# Generated by pormake.
# Topology fcd, (5)-cn, num edge types: 1
# Building blocks:
#     Node 0, Type 0, BuildingBlock: XOMCOT_clean_sbu_1, # of connection points: 5
#     Node 1, Type 0, BuildingBlock: XOMCOT_clean_sbu_1, # of connection points: 5
#     Node 2, Type 0, BuildingBlock: XOMCOT_clean_sbu_1, # of connection points: 5
#     Node 3, Type 0, BuildingBlock: XOMCOT_clean_sbu_1, # of connection points: 5
#     Node 4, Type 0, BuildingBlock: XOMCOT_clean_sbu_1, # of connection points: 5
#     Node 5, Type 0, BuildingBlock: XOMCOT_clean_sbu_1, # of connection points: 5
#     Node 6, Type 0, BuildingBlock: XOMCOT_clean_sbu_1, # of connection points: 5
#     Node 7, Type 0, BuildingBlock: XOMCOT_clean_sbu_1, # of connection points: 5
#     Node 8, Type 0, BuildingBlock: XOMCOT_clean_sbu_1, # of connection points: 5
#     Node 9, Type 0, BuildingBlock: XOMCOT_clean_sbu_1, # of connection points: 5
#     Node 10, Type 0, BuildingBlock: XOMCOT_clean_sbu_1, # of connection points: 5
#     Node 11, Type 0, BuildingBlock: XOMCOT_clean_sbu_1, # of connection points: 5
#     Node 12, Type 0, BuildingBlock: XOMCOT_clean_sbu_1, # of connection points: 5
#     Node 13, Type 0, BuildingBlock: XOMCOT_clean_sbu_1, # of connection points: 5
#     Node 14, Type 0, BuildingBlock: XOMCOT_clean_sbu_1, # of connection points: 5
#     Node 15, Type 0, BuildingBlock: XOMCOT_clean_sbu_1, # of connection points: 5
#     Node 16, Type 0, BuildingBlock: XOMCOT_clean_sbu_1, # of connection points: 5
#     Node 17, Type 0, BuildingBlock: XOMCOT_clean_sbu_1, # of connection points: 5
#     Node 18, Type 0, BuildingBlock: XOMCOT_clean_sbu_1, # of connection points: 5
#     Node 19, Type 0, BuildingBlock: XOMCOT_clean_sbu_1, # of connection points: 5
#     Node 20, Type 0, BuildingBlock: XOMCOT_clean_sbu_1, # of connection points: 5
#     Node 21, Type 0, BuildingBlock: XOMCOT_clean_sbu_1, # of connection points: 5
#     Node 22, Type 0, BuildingBlock: XOMCOT_clean_sbu_1, # of connection points: 5
#     Node 23, Type 0, BuildingBlock: XOMCOT_clean_sbu_1, # of connection points: 5
#     Node 24, Type 0, BuildingBlock: XOMCOT_clean_sbu_1, # of connection points: 5
#     Node 25, Type 0, BuildingBlock: XOMCOT_clean_sbu_1, # of connection points: 5
#     Node 26, Type 0, BuildingBlock: XOMCOT_clean_sbu_1, # of connection points: 5
#     Node 27, Type 0, BuildingBlock: XOMCOT_clean_sbu_1, # of connection points: 5
#     Node 28, Type 0, BuildingBlock: XOMCOT_clean_sbu_1, # of connection points: 5
#     Node 29, Type 0, BuildingBlock: XOMCOT_clean_sbu_1, # of connection points: 5
#     Node 30, Type 0, BuildingBlock: XOMCOT_clean_sbu_1, # of connection points: 5
#     Node 31, Type 0, BuildingBlock: XOMCOT_clean_sbu_1, # of connection points: 5
#     Node 32, Type 0, BuildingBlock: XOMCOT_clean_sbu_1, # of connection points: 5
#     Node 33, Type 0, BuildingBlock: XOMCOT_clean_sbu_1, # of connection points: 5
#     Node 34, Type 0, BuildingBlock: XOMCOT_clean_sbu_1, # of connection points: 5
#     Node 35, Type 0, BuildingBlock: XOMCOT_clean_sbu_1, # of connection points: 5
#     Node 36, Type 0, BuildingBlock: XOMCOT_clean_sbu_1, # of connection points: 5
#     Node 37, Type 0, BuildingBlock: XOMCOT_clean_sbu_1, # of connection points: 5
#     Node 38, Type 0, BuildingBlock: XOMCOT_clean_sbu_1, # of connection points: 5
#     Node 39, Type 0, BuildingBlock: XOMCOT_clean_sbu_1, # of connection points: 5
#     Node 40, Type 0, BuildingBlock: XOMCOT_clean_sbu_1, # of connection points: 5
#     Node 41, Type 0, BuildingBlock: XOMCOT_clean_sbu_1, # of connection points: 5
#     Node 42, Type 0, BuildingBlock: XOMCOT_clean_sbu_1, # of connection points: 5
#     Node 43, Type 0, BuildingBlock: XOMCOT_clean_sbu_1, # of connection points: 5
#     Node 44, Type 0, BuildingBlock: XOMCOT_clean_sbu_1, # of connection points: 5
#     Node 45, Type 0, BuildingBlock: XOMCOT_clean_sbu_1, # of connection points: 5
#     Node 46, Type 0, BuildingBlock: XOMCOT_clean_sbu_1, # of connection points: 5
#     Node 47, Type 0, BuildingBlock: XOMCOT_clean_sbu_1, # of connection points: 5
#     Edge 48, Type (0, 0), BuildingBlock: OJICUG_clean_linker_0, # of connection points: 2
#     Edge 49, Type (0, 0), BuildingBlock: OJICUG_clean_linker_0, # of connection points: 2
#     Edge 50, Type (0, 0), BuildingBlock: OJICUG_clean_linker_0, # of connection points: 2
#     Edge 51, Type (0, 0), BuildingBlock: OJICUG_clean_linker_0, # of connection points: 2
#     Edge 52, Type (0, 0), BuildingBlock: OJICUG_clean_linker_0, # of connection points: 2
#     Edge 53, Type (0, 0), BuildingBlock: OJICUG_clean_linker_0, # of connection points: 2
#     Edge 54, Type (0, 0), BuildingBlock: OJICUG_clean_linker_0, # of connection points: 2
#     Edge 55, Type (0, 0), BuildingBlock: OJICUG_clean_linker_0, # of connection points: 2
#     Edge 56, Type (0, 0), BuildingBlock: OJICUG_clean_linker_0, # of connection points: 2
#     Edge 57, Type (0, 0), BuildingBlock: OJICUG_clean_linker_0, # of connection points: 2
#     Edge 58, Type (0, 0), BuildingBlock: OJICUG_clean_linker_0, # of connection points: 2
#     Edge 59, Type (0, 0), BuildingBlock: OJICUG_clean_linker_0, # of connection points: 2
#     Edge 60, Type (0, 0), BuildingBlock: OJICUG_clean_linker_0, # of connection points: 2
#     Edge 61, Type (0, 0), BuildingBlock: OJICUG_clean_linker_0, # of connection points: 2
#     Edge 62, Type (0, 0), BuildingBlock: OJICUG_clean_linker_0, # of connection points: 2
#     Edge 63, Type (0, 0), BuildingBlock: OJICUG_clean_linker_0, # of connection points: 2
#     Edge 64, Type (0, 0), BuildingBlock: OJICUG_clean_linker_0, # of connection points: 2
#     Edge 65, Type (0, 0), BuildingBlock: OJICUG_clean_linker_0, # of connection points: 2
#     Edge 66, Type (0, 0), BuildingBlock: OJICUG_clean_linker_0, # of connection points: 2
#     Edge 67, Type (0, 0), BuildingBlock: OJICUG_clean_linker_0, # of connection points: 2
#     Edge 68, Type (0, 0), BuildingBlock: OJICUG_clean_linker_0, # of connection points: 2
#     Edge 69, Type (0, 0), BuildingBlock: OJICUG_clean_linker_0, # of connection points: 2
#     Edge 70, Type (0, 0), BuildingBlock: OJICUG_clean_linker_0, # of connection points: 2
#     Edge 71, Type (0, 0), BuildingBlock: OJICUG_clean_linker_0, # of connection points: 2
#     Edge 72, Type (0, 0), BuildingBlock: OJICUG_clean_linker_0, # of connection points: 2
#     Edge 73, Type (0, 0), BuildingBlock: OJICUG_clean_linker_0, # of connection points: 2
#     Edge 74, Type (0, 0), BuildingBlock: OJICUG_clean_linker_0, # of connection points: 2
#     Edge 75, Type (0, 0), BuildingBlock: OJICUG_clean_linker_0, # of connection points: 2
#     Edge 76, Type (0, 0), BuildingBlock: OJICUG_clean_linker_0, # of connection points: 2
#     Edge 77, Type (0, 0), BuildingBlock: OJICUG_clean_linker_0, # of connection points: 2
#     Edge 78, Type (0, 0), BuildingBlock: OJICUG_clean_linker_0, # of connection points: 2
#     Edge 79, Type (0, 0), BuildingBlock: OJICUG_clean_linker_0, # of connection points: 2
#     Edge 80, Type (0, 0), BuildingBlock: OJICUG_clean_linker_0, # of connection points: 2
#     Edge 81, Type (0, 0), BuildingBlock: OJICUG_clean_linker_0, # of connection points: 2
#     Edge 82, Type (0, 0), BuildingBlock: OJICUG_clean_linker_0, # of connection points: 2
#     Edge 83, Type (0, 0), BuildingBlock: OJICUG_clean_linker_0, # of connection points: 2
#     Edge 84, Type (0, 0), BuildingBlock: OJICUG_clean_linker_0, # of connection points: 2
#     Edge 85, Type (0, 0), BuildingBlock: OJICUG_clean_linker_0, # of connection points: 2
#     Edge 86, Type (0, 0), BuildingBlock: OJICUG_clean_linker_0, # of connection points: 2
#     Edge 87, Type (0, 0), BuildingBlock: OJICUG_clean_linker_0, # of connection points: 2
#     Edge 88, Type (0, 0), BuildingBlock: OJICUG_clean_linker_0, # of connection points: 2
#     Edge 89, Type (0, 0), BuildingBlock: OJICUG_clean_linker_0, # of connection points: 2
#     Edge 90, Type (0, 0), BuildingBlock: OJICUG_clean_linker_0, # of connection points: 2
#     Edge 91, Type (0, 0), BuildingBlock: OJICUG_clean_linker_0, # of connection points: 2
#     Edge 92, Type (0, 0), BuildingBlock: OJICUG_clean_linker_0, # of connection points: 2
#     Edge 93, Type (0, 0), BuildingBlock: OJICUG_clean_linker_0, # of connection points: 2
#     Edge 94, Type (0, 0), BuildingBlock: OJICUG_clean_linker_0, # of connection points: 2
#     Edge 95, Type (0, 0), BuildingBlock: OJICUG_clean_linker_0, # of connection points: 2
#     Edge 96, Type (0, 0), BuildingBlock: OJICUG_clean_linker_0, # of connection points: 2
#     Edge 97, Type (0, 0), BuildingBlock: OJICUG_clean_linker_0, # of connection points: 2
#     Edge 98, Type (0, 0), BuildingBlock: OJICUG_clean_linker_0, # of connection points: 2
#     Edge 99, Type (0, 0), BuildingBlock: OJICUG_clean_linker_0, # of connection points: 2
#     Edge 100, Type (0, 0), BuildingBlock: OJICUG_clean_linker_0, # of connection points: 2
#     Edge 101, Type (0, 0), BuildingBlock: OJICUG_clean_linker_0, # of connection points: 2
#     Edge 102, Type (0, 0), BuildingBlock: OJICUG_clean_linker_0, # of connection points: 2
#     Edge 103, Type (0, 0), BuildingBlock: OJICUG_clean_linker_0, # of connection points: 2
#     Edge 104, Type (0, 0), BuildingBlock: OJICUG_clean_linker_0, # of connection points: 2
#     Edge 105, Type (0, 0), BuildingBlock: OJICUG_clean_linker_0, # of connection points: 2
#     Edge 106, Type (0, 0), BuildingBlock: OJICUG_clean_linker_0, # of connection points: 2
#     Edge 107, Type (0, 0), BuildingBlock: OJICUG_clean_linker_0, # of connection points: 2
#     Edge 108, Type (0, 0), BuildingBlock: OJICUG_clean_linker_0, # of connection points: 2
#     Edge 109, Type (0, 0), BuildingBlock: OJICUG_clean_linker_0, # of connection points: 2
#     Edge 110, Type (0, 0), BuildingBlock: OJICUG_clean_linker_0, # of connection points: 2
#     Edge 111, Type (0, 0), BuildingBlock: OJICUG_clean_linker_0, # of connection points: 2
#     Edge 112, Type (0, 0), BuildingBlock: OJICUG_clean_linker_0, # of connection points: 2
#     Edge 113, Type (0, 0), BuildingBlock: OJICUG_clean_linker_0, # of connection points: 2
#     Edge 114, Type (0, 0), BuildingBlock: OJICUG_clean_linker_0, # of connection points: 2
#     Edge 115, Type (0, 0), BuildingBlock: OJICUG_clean_linker_0, # of connection points: 2
#     Edge 116, Type (0, 0), BuildingBlock: OJICUG_clean_linker_0, # of connection points: 2
#     Edge 117, Type (0, 0), BuildingBlock: OJICUG_clean_linker_0, # of connection points: 2
#     Edge 118, Type (0, 0), BuildingBlock: OJICUG_clean_linker_0, # of connection points: 2
#     Edge 119, Type (0, 0), BuildingBlock: OJICUG_clean_linker_0, # of connection points: 2
#     Edge 120, Type (0, 0), BuildingBlock: OJICUG_clean_linker_0, # of connection points: 2
#     Edge 121, Type (0, 0), BuildingBlock: OJICUG_clean_linker_0, # of connection points: 2
#     Edge 122, Type (0, 0), BuildingBlock: OJICUG_clean_linker_0, # of connection points: 2
#     Edge 123, Type (0, 0), BuildingBlock: OJICUG_clean_linker_0, # of connection points: 2
#     Edge 124, Type (0, 0), BuildingBlock: OJICUG_clean_linker_0, # of connection points: 2
#     Edge 125, Type (0, 0), BuildingBlock: OJICUG_clean_linker_0, # of connection points: 2
#     Edge 126, Type (0, 0), BuildingBlock: OJICUG_clean_linker_0, # of connection points: 2
#     Edge 127, Type (0, 0), BuildingBlock: OJICUG_clean_linker_0, # of connection points: 2
#     Edge 128, Type (0, 0), BuildingBlock: OJICUG_clean_linker_0, # of connection points: 2
#     Edge 129, Type (0, 0), BuildingBlock: OJICUG_clean_linker_0, # of connection points: 2
#     Edge 130, Type (0, 0), BuildingBlock: OJICUG_clean_linker_0, # of connection points: 2
#     Edge 131, Type (0, 0), BuildingBlock: OJICUG_clean_linker_0, # of connection points: 2
#     Edge 132, Type (0, 0), BuildingBlock: OJICUG_clean_linker_0, # of connection points: 2
#     Edge 133, Type (0, 0), BuildingBlock: OJICUG_clean_linker_0, # of connection points: 2
#     Edge 134, Type (0, 0), BuildingBlock: OJICUG_clean_linker_0, # of connection points: 2
#     Edge 135, Type (0, 0), BuildingBlock: OJICUG_clean_linker_0, # of connection points: 2
#     Edge 136, Type (0, 0), BuildingBlock: OJICUG_clean_linker_0, # of connection points: 2
#     Edge 137, Type (0, 0), BuildingBlock: OJICUG_clean_linker_0, # of connection points: 2
#     Edge 138, Type (0, 0), BuildingBlock: OJICUG_clean_linker_0, # of connection points: 2
#     Edge 139, Type (0, 0), BuildingBlock: OJICUG_clean_linker_0, # of connection points: 2
#     Edge 140, Type (0, 0), BuildingBlock: OJICUG_clean_linker_0, # of connection points: 2
#     Edge 141, Type (0, 0), BuildingBlock: OJICUG_clean_linker_0, # of connection points: 2
#     Edge 142, Type (0, 0), BuildingBlock: OJICUG_clean_linker_0, # of connection points: 2
#     Edge 143, Type (0, 0), BuildingBlock: OJICUG_clean_linker_0, # of connection points: 2
#     Edge 144, Type (0, 0), BuildingBlock: OJICUG_clean_linker_0, # of connection points: 2
#     Edge 145, Type (0, 0), BuildingBlock: OJICUG_clean_linker_0, # of connection points: 2
#     Edge 146, Type (0, 0), BuildingBlock: OJICUG_clean_linker_0, # of connection points: 2
#     Edge 147, Type (0, 0), BuildingBlock: OJICUG_clean_linker_0, # of connection points: 2
#     Edge 148, Type (0, 0), BuildingBlock: OJICUG_clean_linker_0, # of connection points: 2
#     Edge 149, Type (0, 0), BuildingBlock: OJICUG_clean_linker_0, # of connection points: 2
#     Edge 150, Type (0, 0), BuildingBlock: OJICUG_clean_linker_0, # of connection points: 2
#     Edge 151, Type (0, 0), BuildingBlock: OJICUG_clean_linker_0, # of connection points: 2
#     Edge 152, Type (0, 0), BuildingBlock: OJICUG_clean_linker_0, # of connection points: 2
#     Edge 153, Type (0, 0), BuildingBlock: OJICUG_clean_linker_0, # of connection points: 2
#     Edge 154, Type (0, 0), BuildingBlock: OJICUG_clean_linker_0, # of connection points: 2
#     Edge 155, Type (0, 0), BuildingBlock: OJICUG_clean_linker_0, # of connection points: 2
#     Edge 156, Type (0, 0), BuildingBlock: OJICUG_clean_linker_0, # of connection points: 2
#     Edge 157, Type (0, 0), BuildingBlock: OJICUG_clean_linker_0, # of connection points: 2
#     Edge 158, Type (0, 0), BuildingBlock: OJICUG_clean_linker_0, # of connection points: 2
#     Edge 159, Type (0, 0), BuildingBlock: OJICUG_clean_linker_0, # of connection points: 2
#     Edge 160, Type (0, 0), BuildingBlock: OJICUG_clean_linker_0, # of connection points: 2
#     Edge 161, Type (0, 0), BuildingBlock: OJICUG_clean_linker_0, # of connection points: 2
#     Edge 162, Type (0, 0), BuildingBlock: OJICUG_clean_linker_0, # of connection points: 2
#     Edge 163, Type (0, 0), BuildingBlock: OJICUG_clean_linker_0, # of connection points: 2
#     Edge 164, Type (0, 0), BuildingBlock: OJICUG_clean_linker_0, # of connection points: 2
#     Edge 165, Type (0, 0), BuildingBlock: OJICUG_clean_linker_0, # of connection points: 2
#     Edge 166, Type (0, 0), BuildingBlock: OJICUG_clean_linker_0, # of connection points: 2
#     Edge 167, Type (0, 0), BuildingBlock: OJICUG_clean_linker_0, # of connection points: 2
# Relax obj value: 0.330
# Max RMSD: 0.262
# Mean RMSD: 0.262
data_MOF--net-fcd--node1-XOMCOT_clean_sbu_1--edge1-OJICUG_clean_linker_0
_symmetry_space_group_name_H-M    P1
_symmetry_Int_Tables_number       1
_symmetry_cell_setting            triclinic
loop_
_symmetry_equiv_pos_as_xyz
'x, y, z'
_cell_length_a     52.711894
_cell_length_b     52.67987
_cell_length_c     52.723529
_cell_angle_alpha  90.008241
_cell_angle_beta   89.995669
_cell_angle_gamma 90.000695
loop_
_atom_site_label
_atom_site_type_symbol
_atom_site_fract_x
_atom_site_fract_y
_atom_site_fract_z
_atom_type_partial_charge
C0 C 0.07268 0.18536 0.43183 0.0
C1 C 0.0514 0.19814 0.43997 0.0
N2 N 0.04569 0.21604 0.42264 0.0
N3 N 0.08045 0.19532 0.40961 0.0
C4 C 0.06372 0.21408 0.40457 0.0
H5 H 0.08145 0.16927 0.44106 0.0
Co6 Co 0.1064 0.18215 0.38983 0.0
C7 C 0.12181 0.22356 0.35491 0.0
O8 O 0.12562 0.20751 0.33621 0.0
N9 N 0.13301 0.1681 0.37021 0.0
C10 C 0.15666 0.14053 0.34864 0.0
C11 C 0.13233 0.14771 0.35464 0.0
C12 C 0.15806 0.17329 0.37271 0.0
N13 N 0.17283 0.15649 0.36027 0.0
O14 O 0.12943 0.18896 0.417 0.0
H15 H 0.11548 0.13752 0.34909 0.0
H16 H 0.16546 0.18786 0.38514 0.0
O17 O 0.11338 0.21565 0.3762 0.0
C18 C 0.1379 0.16979 0.42899 0.0
O19 O 0.13243 0.14688 0.42079 0.0
N20 N 0.08222 0.17391 0.36522 0.0
C21 C 0.03493 0.15879 0.3474 0.0
C22 C 0.04537 0.18201 0.33964 0.0
C23 C 0.06919 0.18941 0.34898 0.0
C24 C 0.073 0.15057 0.37131 0.0
C25 C 0.04959 0.14249 0.36236 0.0
H26 H 0.07553 0.20846 0.34519 0.0
H27 H 0.08305 0.139 0.38497 0.0
H28 H 0.06444 0.22579 0.38774 0.0
H29 H 0.04037 0.19385 0.45675 0.0
H30 H 0.16206 0.12401 0.33768 0.0
H31 H 0.03433 0.19522 0.32842 0.0
H32 H 0.04217 0.12439 0.3687 0.0
C33 C 0.93593 0.31536 0.43011 0.0
C34 C 0.95651 0.3016 0.43829 0.0
N35 N 0.95963 0.28173 0.42253 0.0
N36 N 0.92594 0.30415 0.40942 0.0
C37 C 0.94072 0.28358 0.40532 0.0
H38 H 0.92933 0.33306 0.43812 0.0
Co39 Co 0.90005 0.31851 0.39028 0.0
C40 C 0.87738 0.27737 0.35945 0.0
O41 O 0.87314 0.29359 0.341 0.0
N42 N 0.87367 0.33424 0.37166 0.0
C43 C 0.85031 0.36316 0.35149 0.0
C44 C 0.87457 0.35485 0.35638 0.0
C45 C 0.84857 0.3303 0.37541 0.0
N46 N 0.83403 0.34772 0.3636 0.0
O47 O 0.8783 0.31677 0.41931 0.0
H48 H 0.89157 0.36439 0.35022 0.0
H49 H 0.84112 0.3159 0.38803 0.0
O50 O 0.88864 0.28472 0.37966 0.0
C51 C 0.87523 0.33836 0.42971 0.0
O52 O 0.88602 0.35827 0.41923 0.0
N53 N 0.92292 0.32184 0.36324 0.0
C54 C 0.96788 0.33039 0.337 0.0
C55 C 0.95546 0.307 0.33497 0.0
C56 C 0.93271 0.30311 0.34813 0.0
C57 C 0.93463 0.34482 0.36479 0.0
C58 C 0.95678 0.34973 0.35134 0.0
H59 H 0.9247 0.28432 0.34796 0.0
H60 H 0.92756 0.35891 0.37795 0.0
H61 H 0.93814 0.27055 0.38969 0.0
H62 H 0.96901 0.30658 0.45379 0.0
H63 H 0.8451 0.37983 0.34068 0.0
H64 H 0.96406 0.29143 0.32465 0.0
H65 H 0.96634 0.36776 0.35395 0.0
C66 C 0.06539 0.81799 0.07112 0.0
C67 C 0.04439 0.80472 0.0631 0.0
N68 N 0.04153 0.7844 0.07831 0.0
N69 N 0.07584 0.80597 0.09113 0.0
C70 C 0.06097 0.78543 0.09493 0.0
H71 H 0.07197 0.83588 0.06353 0.0
Co72 Co 0.10236 0.81902 0.11038 0.0
C73 C 0.12282 0.77633 0.14043 0.0
O74 O 0.12645 0.79168 0.15975 0.0
N75 N 0.12944 0.83311 0.1292 0.0
C76 C 0.15401 0.85995 0.15069 0.0
C77 C 0.12942 0.85287 0.14557 0.0
C78 C 0.15435 0.82835 0.12507 0.0
N79 N 0.16963 0.84457 0.13764 0.0
O80 O 0.12376 0.81733 0.08105 0.0
H81 H 0.11283 0.86267 0.15242 0.0
H82 H 0.16117 0.81436 0.11167 0.0
O83 O 0.11283 0.78479 0.12 0.0
C84 C 0.12681 0.83898 0.07077 0.0
O85 O 0.11657 0.85888 0.0818 0.0
N86 N 0.07968 0.82243 0.13773 0.0
C87 C 0.0343 0.83149 0.16318 0.0
C88 C 0.04594 0.80767 0.16463 0.0
C89 C 0.06887 0.80352 0.1519 0.0
C90 C 0.06885 0.84589 0.13694 0.0
C91 C 0.04648 0.85102 0.15001 0.0
H92 H 0.07608 0.78442 0.15146 0.0
H93 H 0.07665 0.86021 0.12448 0.0
H94 H 0.06385 0.77179 0.10998 0.0
H95 H 0.03146 0.81029 0.04816 0.0
H96 H 0.15991 0.87588 0.16225 0.0
H97 H 0.03654 0.79198 0.17403 0.0
H98 H 0.03757 0.86943 0.14785 0.0
C99 C 0.93276 0.68383 0.07278 0.0
C100 C 0.9534 0.69731 0.06421 0.0
N101 N 0.95662 0.71751 0.07951 0.0
N102 N 0.92286 0.69561 0.09322 0.0
C103 C 0.93774 0.7162 0.09676 0.0
H104 H 0.92604 0.66599 0.0652 0.0
Co105 Co 0.89686 0.68228 0.11297 0.0
C106 C 0.87582 0.72522 0.1426 0.0
O107 O 0.87219 0.71016 0.16214 0.0
N108 N 0.87035 0.66779 0.13233 0.0
C109 C 0.84681 0.64014 0.15399 0.0
C110 C 0.87112 0.64803 0.14869 0.0
C111 C 0.84528 0.67175 0.12842 0.0
N112 N 0.83063 0.65502 0.14107 0.0
O113 O 0.87506 0.68328 0.08388 0.0
H114 H 0.88804 0.6387 0.15536 0.0
H115 H 0.83793 0.68548 0.11502 0.0
O116 O 0.88594 0.71648 0.12234 0.0
C117 C 0.87201 0.66152 0.07382 0.0
O118 O 0.88231 0.64174 0.08501 0.0
N119 N 0.91989 0.67957 0.14003 0.0
C120 C 0.96511 0.67118 0.16596 0.0
C121 C 0.95311 0.69484 0.16729 0.0
C122 C 0.93025 0.69865 0.15432 0.0
C123 C 0.93118 0.65633 0.1392 0.0
C124 C 0.95344 0.65153 0.15252 0.0
H125 H 0.92267 0.7176 0.15387 0.0
H126 H 0.92369 0.6419 0.12665 0.0
H127 H 0.93525 0.72968 0.11201 0.0
H128 H 0.96587 0.69197 0.04879 0.0
H129 H 0.84151 0.62401 0.16555 0.0
H130 H 0.96214 0.71064 0.17687 0.0
H131 H 0.96266 0.63326 0.15041 0.0
C132 C 0.42702 0.06537 0.18186 0.0
C133 C 0.43533 0.04447 0.1951 0.0
N134 N 0.42003 0.04124 0.21528 0.0
N135 N 0.40673 0.07543 0.19375 0.0
C136 C 0.40304 0.06039 0.2142 0.0
H137 H 0.43463 0.07217 0.16407 0.0
Co138 Co 0.38721 0.10168 0.18048 0.0
C139 C 0.35737 0.12257 0.22321 0.0
O140 O 0.33779 0.12608 0.20818 0.0
N141 N 0.36812 0.12841 0.1661 0.0
C142 C 0.34681 0.15248 0.13866 0.0
C143 C 0.35225 0.128 0.14596 0.0
C144 C 0.37169 0.15342 0.17082 0.0
N145 N 0.35918 0.1684 0.15428 0.0
O146 O 0.41629 0.12337 0.18209 0.0
H147 H 0.346 0.11123 0.13604 0.0
H148 H 0.38467 0.16053 0.18506 0.0
O149 O 0.37763 0.11241 0.21456 0.0
C150 C 0.42679 0.12696 0.16065 0.0
O151 O 0.41605 0.11715 0.14039 0.0
N152 N 0.36008 0.07876 0.17737 0.0
C153 C 0.3353 0.03287 0.16916 0.0
C154 C 0.33353 0.04499 0.1927 0.0
C155 C 0.34591 0.06819 0.19641 0.0
C156 C 0.36109 0.06748 0.15414 0.0
C157 C 0.34836 0.04483 0.14943 0.0
H158 H 0.34618 0.0758 0.21534 0.0
H159 H 0.37356 0.07513 0.13975 0.0
H160 H 0.38785 0.06296 0.22773 0.0
H161 H 0.45058 0.03185 0.1896 0.0
H162 H 0.33549 0.15811 0.12248 0.0
H163 H 0.32419 0.03578 0.20852 0.0
H164 H 0.35074 0.03555 0.13124 0.0
C165 C 0.56316 0.42824 0.19185 0.0
C166 C 0.55557 0.44947 0.20498 0.0
N167 N 0.57411 0.45587 0.22138 0.0
N168 N 0.5863 0.42111 0.20002 0.0
C169 C 0.59247 0.43825 0.21808 0.0
H170 H 0.55289 0.4191 0.17662 0.0
Co171 Co 0.60536 0.39543 0.18523 0.0
C172 C 0.64067 0.37607 0.22506 0.0
O173 O 0.65696 0.3675 0.20828 0.0
N174 N 0.624 0.36925 0.16924 0.0
C175 C 0.64389 0.34677 0.13951 0.0
C176 C 0.63815 0.37081 0.14792 0.0
C177 C 0.6218 0.34398 0.17353 0.0
N178 N 0.63342 0.32993 0.15558 0.0
O179 O 0.57851 0.37216 0.1927 0.0
H180 H 0.64285 0.38813 0.13806 0.0
H181 H 0.6104 0.33596 0.1886 0.0
O182 O 0.6207 0.38791 0.21805 0.0
C183 C 0.56585 0.36413 0.17379 0.0
O184 O 0.57291 0.37059 0.15078 0.0
N185 N 0.62974 0.41965 0.17664 0.0
C186 C 0.64912 0.4669 0.1636 0.0
C187 C 0.65854 0.45401 0.18488 0.0
C188 C 0.64843 0.4302 0.19124 0.0
C189 C 0.62196 0.43118 0.15491 0.0
C190 C 0.63148 0.45473 0.14795 0.0
H191 H 0.65403 0.42167 0.20895 0.0
H192 H 0.6067 0.42284 0.14399 0.0
H193 H 0.61032 0.43815 0.2282 0.0
H194 H 0.53823 0.46001 0.20186 0.0
H195 H 0.65399 0.34205 0.12226 0.0
H196 H 0.67199 0.46309 0.19749 0.0
H197 H 0.62383 0.46415 0.13136 0.0
C198 C 0.42813 0.93204 0.31529 0.0
C199 C 0.43624 0.95284 0.30177 0.0
N200 N 0.42059 0.95598 0.28185 0.0
N201 N 0.40761 0.92195 0.30382 0.0
C202 C 0.40358 0.93688 0.28336 0.0
H203 H 0.43605 0.92535 0.33298 0.0
Co204 Co 0.3883 0.89578 0.3176 0.0
C205 C 0.35752 0.87481 0.27557 0.0
O206 O 0.33828 0.8715 0.29107 0.0
N207 N 0.36943 0.86911 0.33249 0.0
C208 C 0.3484 0.84535 0.36042 0.0
C209 C 0.35359 0.86973 0.35266 0.0
C210 C 0.37317 0.84405 0.32819 0.0
N211 N 0.36087 0.82924 0.34506 0.0
O212 O 0.41742 0.87407 0.3157 0.0
H213 H 0.3472 0.88661 0.36229 0.0
H214 H 0.38615 0.83678 0.31403 0.0
O215 O 0.37806 0.88486 0.28372 0.0
C216 C 0.42814 0.87092 0.3371 0.0
O217 O 0.41751 0.88103 0.35727 0.0
N218 N 0.36124 0.91878 0.32109 0.0
C219 C 0.33649 0.96464 0.32978 0.0
C220 C 0.33437 0.95253 0.30625 0.0
C221 C 0.34675 0.92935 0.3023 0.0
C222 C 0.36268 0.93009 0.34428 0.0
C223 C 0.34997 0.9527 0.34924 0.0
H224 H 0.3467 0.92174 0.28337 0.0
H225 H 0.37539 0.92244 0.35846 0.0
H226 H 0.38813 0.93426 0.27013 0.0
H227 H 0.4516 0.96547 0.30693 0.0
H228 H 0.33718 0.83992 0.37674 0.0
H229 H 0.32472 0.96172 0.29061 0.0
H230 H 0.35264 0.96197 0.3674 0.0
C231 C 0.56769 0.5715 0.31497 0.0
C232 C 0.55925 0.55018 0.3025 0.0
N233 N 0.57605 0.54441 0.28409 0.0
N234 N 0.58962 0.57926 0.30441 0.0
C235 C 0.59417 0.5625 0.28554 0.0
H236 H 0.55896 0.58024 0.33135 0.0
Co237 Co 0.60968 0.60504 0.31754 0.0
C238 C 0.64403 0.62099 0.27597 0.0
O239 O 0.66289 0.62466 0.29185 0.0
N240 N 0.62953 0.63141 0.33166 0.0
C241 C 0.65084 0.65481 0.35964 0.0
C242 C 0.64474 0.63053 0.35228 0.0
C243 C 0.6273 0.65651 0.32653 0.0
N244 N 0.63959 0.67113 0.34357 0.0
O245 O 0.58255 0.62827 0.31131 0.0
H246 H 0.64988 0.61359 0.36255 0.0
H247 H 0.61507 0.66405 0.31186 0.0
O248 O 0.62285 0.61237 0.28398 0.0
C249 C 0.57086 0.6371 0.33048 0.0
O250 O 0.57923 0.63181 0.35336 0.0
N251 N 0.63436 0.5807 0.32509 0.0
C252 C 0.65289 0.53335 0.33905 0.0
C253 C 0.6603 0.54431 0.316 0.0
C254 C 0.65057 0.56813 0.30917 0.0
C255 C 0.6285 0.57088 0.34823 0.0
C256 C 0.63773 0.54736 0.3557 0.0
H257 H 0.65409 0.57483 0.29021 0.0
H258 H 0.6148 0.58052 0.3601 0.0
H259 H 0.61076 0.56318 0.2735 0.0
H260 H 0.54266 0.53911 0.30741 0.0
H261 H 0.66152 0.66006 0.37637 0.0
H262 H 0.67158 0.53366 0.30252 0.0
H263 H 0.6315 0.53934 0.37358 0.0
C264 C 0.18355 0.43099 0.06553 0.0
C265 C 0.19691 0.43969 0.04488 0.0
N266 N 0.21768 0.42508 0.04208 0.0
N267 N 0.19591 0.41111 0.07582 0.0
C268 C 0.21678 0.40809 0.06124 0.0
H269 H 0.16537 0.43797 0.07195 0.0
Co270 Co 0.18249 0.39132 0.10165 0.0
C271 C 0.22417 0.35967 0.12137 0.0
O272 O 0.2084 0.34044 0.12334 0.0
N273 N 0.16794 0.37197 0.12813 0.0
C274 C 0.14061 0.35049 0.15215 0.0
C275 C 0.1479 0.35594 0.1277 0.0
C276 C 0.17269 0.37547 0.15313 0.0
N277 N 0.15615 0.36295 0.16809 0.0
O278 O 0.1845 0.42009 0.12379 0.0
H279 H 0.13801 0.34962 0.11097 0.0
H280 H 0.18686 0.38851 0.16026 0.0
O281 O 0.21644 0.38082 0.11227 0.0
C282 C 0.16304 0.4305 0.12758 0.0
O283 O 0.14277 0.41991 0.11761 0.0
N284 N 0.17891 0.36463 0.07821 0.0
C285 C 0.16953 0.33969 0.03258 0.0
C286 C 0.19351 0.33837 0.04388 0.0
C287 C 0.19783 0.3509 0.06688 0.0
C288 C 0.15538 0.36551 0.06756 0.0
C289 C 0.15008 0.35266 0.0451 0.0
H290 H 0.21701 0.35147 0.07383 0.0
H291 H 0.14108 0.37782 0.07566 0.0
H292 H 0.23068 0.39327 0.0641 0.0
H293 H 0.19103 0.45464 0.03208 0.0
H294 H 0.1244 0.33918 0.15775 0.0
H295 H 0.20914 0.32917 0.0342 0.0
H296 H 0.13156 0.35479 0.03644 0.0
C297 C 0.18109 0.5741 0.43668 0.0
C298 C 0.19394 0.56507 0.45749 0.0
N299 N 0.21629 0.57731 0.45898 0.0
N300 N 0.19534 0.5918 0.42495 0.0
C301 C 0.21681 0.59323 0.4389 0.0
H302 H 0.16208 0.56884 0.43106 0.0
Co303 Co 0.18361 0.611 0.39778 0.0
C304 C 0.227 0.64051 0.3787 0.0
O305 O 0.21199 0.66025 0.37625 0.0
N306 N 0.17075 0.62995 0.36979 0.0
C307 C 0.15107 0.65752 0.34426 0.0
C308 C 0.15751 0.65201 0.36899 0.0
C309 C 0.17205 0.62267 0.34517 0.0
N310 N 0.16007 0.63883 0.3295 0.0
O311 O 0.18521 0.58114 0.3772 0.0
H312 H 0.1526 0.66357 0.38514 0.0
H313 H 0.18146 0.60568 0.33855 0.0
O314 O 0.21831 0.61973 0.38781 0.0
C315 C 0.16366 0.57053 0.37468 0.0
O316 O 0.1437 0.58179 0.38453 0.0
N317 N 0.18042 0.63875 0.41998 0.0
C318 C 0.17082 0.66359 0.4656 0.0
C319 C 0.1954 0.66296 0.45557 0.0
C320 C 0.19984 0.65054 0.43257 0.0
C321 C 0.15623 0.64035 0.42897 0.0
C322 C 0.15091 0.65317 0.45148 0.0
H323 H 0.21925 0.6482 0.42668 0.0
H324 H 0.14128 0.62985 0.41961 0.0
H325 H 0.23224 0.60615 0.43491 0.0
H326 H 0.18681 0.55158 0.47125 0.0
H327 H 0.13989 0.67348 0.33773 0.0
H328 H 0.21128 0.67032 0.46634 0.0
H329 H 0.13178 0.65271 0.459 0.0
C330 C 0.80917 0.942 0.42701 0.0
C331 C 0.7958 0.94963 0.44813 0.0
N332 N 0.7798 0.9308 0.45464 0.0
N333 N 0.80141 0.9186 0.42017 0.0
C334 C 0.78338 0.91237 0.43725 0.0
H335 H 0.82423 0.95243 0.41776 0.0
Co336 Co 0.81586 0.89868 0.39504 0.0
C337 C 0.7754 0.86251 0.37909 0.0
O338 O 0.79181 0.84421 0.37493 0.0
N339 N 0.83111 0.87887 0.36938 0.0
C340 C 0.85976 0.85722 0.34717 0.0
C341 C 0.85209 0.86421 0.37108 0.0
C342 C 0.82619 0.88 0.3442 0.0
N343 N 0.84357 0.86738 0.33027 0.0
O344 O 0.80875 0.92511 0.37113 0.0
H345 H 0.86224 0.85994 0.38832 0.0
H346 H 0.81125 0.8915 0.33606 0.0
O347 O 0.78289 0.88388 0.38775 0.0
C348 C 0.82771 0.93742 0.36264 0.0
O349 O 0.85072 0.92999 0.3687 0.0
N350 N 0.82434 0.87483 0.41997 0.0
C351 C 0.83951 0.85613 0.46693 0.0
C352 C 0.8173 0.84702 0.45544 0.0
C353 C 0.80985 0.85683 0.43182 0.0
C354 C 0.84672 0.8825 0.43029 0.0
C355 C 0.85477 0.87326 0.45359 0.0
H356 H 0.79148 0.85161 0.42459 0.0
H357 H 0.85754 0.8973 0.42105 0.0
H358 H 0.77341 0.89443 0.4373 0.0
H359 H 0.79846 0.96714 0.45855 0.0
H360 H 0.87668 0.84653 0.34252 0.0
H361 H 0.80489 0.83406 0.46546 0.0
H362 H 0.87207 0.88068 0.46187 0.0
C363 C 0.31213 0.56182 0.5717 0.0
C364 C 0.29858 0.55416 0.5507 0.0
N365 N 0.28233 0.57287 0.54445 0.0
N366 N 0.30423 0.58511 0.57874 0.0
C367 C 0.28596 0.59126 0.56187 0.0
H368 H 0.32738 0.55148 0.58073 0.0
Co369 Co 0.31896 0.60492 0.60385 0.0
C370 C 0.2783 0.64045 0.6209 0.0
O371 O 0.29449 0.65894 0.62511 0.0
N372 N 0.33454 0.62453 0.62942 0.0
C373 C 0.36397 0.6451 0.65167 0.0
C374 C 0.35606 0.63839 0.62774 0.0
C375 C 0.32957 0.62356 0.6546 0.0
N376 N 0.34738 0.63556 0.66855 0.0
O377 O 0.31244 0.57824 0.62761 0.0
H378 H 0.36642 0.64215 0.6105 0.0
H379 H 0.31427 0.61252 0.6627 0.0
O380 O 0.28599 0.61931 0.61185 0.0
C381 C 0.33142 0.56601 0.63619 0.0
O382 O 0.35444 0.57364 0.63042 0.0
N383 N 0.32674 0.62912 0.57905 0.0
C384 C 0.33992 0.64759 0.53146 0.0
C385 C 0.31812 0.65663 0.54371 0.0
C386 C 0.31168 0.64695 0.56766 0.0
C387 C 0.34886 0.62168 0.56801 0.0
C388 C 0.35591 0.63078 0.54433 0.0
H389 H 0.29351 0.65201 0.57547 0.0
H390 H 0.36011 0.60698 0.57689 0.0
H391 H 0.27581 0.6091 0.56202 0.0
H392 H 0.30127 0.53671 0.54019 0.0
H393 H 0.38127 0.65515 0.65635 0.0
H394 H 0.30519 0.66933 0.53404 0.0
H395 H 0.3729 0.62341 0.5354 0.0
C396 C 0.9367 0.81779 0.56843 0.0
C397 C 0.95734 0.80411 0.56025 0.0
N398 N 0.96066 0.78437 0.57611 0.0
N399 N 0.92685 0.80661 0.58922 0.0
C400 C 0.94185 0.78622 0.59342 0.0
H401 H 0.9299 0.83534 0.56029 0.0
Co402 Co 0.90064 0.82058 0.60824 0.0
C403 C 0.87672 0.77828 0.6373 0.0
O404 O 0.86928 0.79388 0.65524 0.0
N405 N 0.87405 0.83597 0.62672 0.0
C406 C 0.85074 0.86441 0.64765 0.0
C407 C 0.87498 0.85608 0.64266 0.0
C408 C 0.84896 0.83243 0.62254 0.0
N409 N 0.83446 0.84949 0.63491 0.0
O410 O 0.87917 0.81892 0.5789 0.0
H411 H 0.89203 0.8652 0.64934 0.0
H412 H 0.84148 0.81843 0.6095 0.0
O413 O 0.88961 0.78649 0.61843 0.0
C414 C 0.87627 0.84046 0.56835 0.0
O415 O 0.88684 0.86041 0.579 0.0
N416 N 0.92315 0.82374 0.63556 0.0
C417 C 0.9678 0.83146 0.66256 0.0
C418 C 0.95471 0.80843 0.66465 0.0
C419 C 0.93209 0.80499 0.65114 0.0
C420 C 0.93538 0.84646 0.63407 0.0
C421 C 0.95743 0.85093 0.64785 0.0
H422 H 0.92347 0.78647 0.6515 0.0
H423 H 0.92881 0.86062 0.62075 0.0
H424 H 0.93942 0.7733 0.60916 0.0
H425 H 0.96967 0.80903 0.54459 0.0
H426 H 0.84554 0.88065 0.65912 0.0
H427 H 0.96269 0.79278 0.67533 0.0
H428 H 0.96748 0.86869 0.64526 0.0
C429 C 0.07228 0.68652 0.56508 0.0
C430 C 0.05124 0.69983 0.55718 0.0
N431 N 0.04577 0.71744 0.57489 0.0
N432 N 0.08013 0.69585 0.58754 0.0
C433 C 0.06371 0.71477 0.59296 0.0
H434 H 0.08081 0.67048 0.55552 0.0
Co435 Co 0.10573 0.68182 0.60714 0.0
C436 C 0.12227 0.7226 0.64243 0.0
O437 O 0.12609 0.70632 0.66092 0.0
N438 N 0.13192 0.6669 0.62656 0.0
C439 C 0.15496 0.63844 0.64759 0.0
C440 C 0.13079 0.64599 0.64136 0.0
C441 C 0.15704 0.67196 0.62463 0.0
N442 N 0.17146 0.65467 0.63682 0.0
O443 O 0.12898 0.68843 0.58005 0.0
H444 H 0.11376 0.63575 0.64621 0.0
H445 H 0.16475 0.68687 0.6128 0.0
O446 O 0.11347 0.71502 0.62116 0.0
C447 C 0.13734 0.66935 0.56782 0.0
O448 O 0.13164 0.64638 0.57568 0.0
N449 N 0.08132 0.67391 0.63171 0.0
C450 C 0.03394 0.65992 0.65029 0.0
C451 C 0.04532 0.68259 0.65834 0.0
C452 C 0.06914 0.68943 0.64859 0.0
C453 C 0.07114 0.65108 0.62522 0.0
C454 C 0.04764 0.64358 0.63447 0.0
H455 H 0.07618 0.70816 0.65273 0.0
H456 H 0.08053 0.63949 0.61111 0.0
H457 H 0.06457 0.72606 0.61007 0.0
H458 H 0.0402 0.69609 0.54028 0.0
H459 H 0.16004 0.62156 0.65814 0.0
H460 H 0.03502 0.69583 0.67021 0.0
H461 H 0.03944 0.62592 0.62786 0.0
C462 C 0.92953 0.19235 0.93726 0.0
C463 C 0.95023 0.20617 0.9451 0.0
N464 N 0.95635 0.22272 0.92659 0.0
N465 N 0.92249 0.20025 0.91401 0.0
C466 C 0.9391 0.21885 0.90803 0.0
H467 H 0.92078 0.17681 0.94741 0.0
Co468 Co 0.8978 0.18448 0.89451 0.0
C469 C 0.87791 0.22369 0.85894 0.0
O470 O 0.87263 0.2065 0.84167 0.0
N471 N 0.8727 0.16749 0.87543 0.0
C472 C 0.85124 0.13636 0.85651 0.0
C473 C 0.87498 0.14538 0.8626 0.0
C474 C 0.84738 0.17161 0.87651 0.0
N475 N 0.83393 0.15285 0.86544 0.0
O476 O 0.87389 0.19041 0.92117 0.0
H477 H 0.89252 0.13539 0.85923 0.0
H478 H 0.83887 0.18713 0.88694 0.0
O479 O 0.88864 0.21718 0.87968 0.0
C480 C 0.86599 0.17108 0.93329 0.0
O481 O 0.87316 0.14833 0.92601 0.0
N482 N 0.92259 0.17738 0.87018 0.0
C483 C 0.96934 0.16519 0.84918 0.0
C484 C 0.95605 0.18655 0.84062 0.0
C485 C 0.93252 0.1925 0.85155 0.0
C486 C 0.93478 0.15584 0.87752 0.0
C487 C 0.95809 0.14928 0.86716 0.0
H488 H 0.92375 0.21023 0.8465 0.0
H489 H 0.92704 0.14458 0.89284 0.0
H490 H 0.93893 0.22892 0.89016 0.0
H491 H 0.96068 0.20337 0.96254 0.0
H492 H 0.84703 0.1185 0.84729 0.0
H493 H 0.96458 0.19946 0.82709 0.0
H494 H 0.96801 0.13275 0.87433 0.0
C495 C 0.07098 0.31756 0.93305 0.0
C496 C 0.04958 0.30519 0.94143 0.0
N497 N 0.0441 0.28644 0.92491 0.0
N498 N 0.07906 0.30659 0.91144 0.0
C499 C 0.06243 0.28758 0.90703 0.0
H500 H 0.07959 0.33411 0.9416 0.0
Co501 Co 0.10515 0.31922 0.89152 0.0
C502 C 0.11978 0.2776 0.85669 0.0
O503 O 0.12317 0.29367 0.83792 0.0
N504 N 0.13194 0.33279 0.87174 0.0
C505 C 0.156 0.35985 0.84998 0.0
C506 C 0.13156 0.35307 0.85604 0.0
C507 C 0.15691 0.32723 0.87425 0.0
N508 N 0.17193 0.34373 0.8617 0.0
O509 O 0.12813 0.31243 0.91875 0.0
H510 H 0.11488 0.36348 0.8504 0.0
H511 H 0.1641 0.31263 0.88677 0.0
O512 O 0.11179 0.28551 0.87816 0.0
C513 C 0.137 0.33156 0.93053 0.0
O514 O 0.13193 0.35448 0.92213 0.0
N515 N 0.081 0.32746 0.86682 0.0
C516 C 0.03406 0.34315 0.84847 0.0
C517 C 0.04396 0.31947 0.84144 0.0
C518 C 0.06757 0.31179 0.85106 0.0
C519 C 0.07223 0.35113 0.87233 0.0
C520 C 0.04904 0.3595 0.86308 0.0
H521 H 0.07341 0.29246 0.84788 0.0
H522 H 0.0825 0.36283 0.88572 0.0
H523 H 0.06339 0.27519 0.8907 0.0
H524 H 0.03828 0.31037 0.95778 0.0
H525 H 0.16164 0.37621 0.83891 0.0
H526 H 0.03264 0.3062 0.83057 0.0
H527 H 0.042 0.37792 0.86892 0.0
C528 C 0.5639 0.92857 0.81087 0.0
C529 C 0.55596 0.94984 0.798 0.0
N530 N 0.57403 0.95626 0.78108 0.0
N531 N 0.58678 0.92147 0.80202 0.0
C532 C 0.59246 0.93863 0.78383 0.0
H533 H 0.55406 0.91941 0.82636 0.0
Co534 Co 0.60625 0.89588 0.81633 0.0
C535 C 0.6418 0.87772 0.77615 0.0
O536 O 0.65838 0.86953 0.79282 0.0
N537 N 0.62535 0.86976 0.83184 0.0
C538 C 0.64589 0.84717 0.86105 0.0
C539 C 0.63972 0.87123 0.85303 0.0
C540 C 0.62348 0.84453 0.82721 0.0
N541 N 0.63549 0.83041 0.84485 0.0
O542 O 0.57964 0.87236 0.80868 0.0
H543 H 0.64431 0.88846 0.86308 0.0
H544 H 0.61205 0.83654 0.81214 0.0
O545 O 0.62155 0.88899 0.78331 0.0
C546 C 0.56716 0.86395 0.82756 0.0
O547 O 0.57432 0.87016 0.85061 0.0
N548 N 0.6303 0.92032 0.82517 0.0
C549 C 0.64912 0.96749 0.83935 0.0
C550 C 0.65842 0.95537 0.81755 0.0
C551 C 0.64857 0.9316 0.81061 0.0
C552 C 0.62259 0.93112 0.8473 0.0
C553 C 0.63188 0.95458 0.85485 0.0
H554 H 0.65403 0.92369 0.79257 0.0
H555 H 0.60761 0.92224 0.85816 0.0
H556 H 0.61004 0.93852 0.77325 0.0
H557 H 0.53872 0.96037 0.80167 0.0
H558 H 0.65624 0.84235 0.87811 0.0
H559 H 0.67155 0.96502 0.80502 0.0
H560 H 0.62434 0.96336 0.87185 0.0
C561 C 0.43166 0.56623 0.815 0.0
C562 C 0.43979 0.54548 0.80138 0.0
N563 N 0.42361 0.54189 0.78196 0.0
N564 N 0.4106 0.5758 0.80407 0.0
C565 C 0.40629 0.56066 0.78383 0.0
H566 H 0.43993 0.57321 0.83241 0.0
Co567 Co 0.39091 0.60155 0.81799 0.0
C568 C 0.35976 0.62208 0.77587 0.0
O569 O 0.34048 0.62553 0.7913 0.0
N570 N 0.37161 0.62777 0.83299 0.0
C571 C 0.35027 0.651 0.86113 0.0
C572 C 0.35603 0.62675 0.85334 0.0
C573 C 0.37467 0.65291 0.82863 0.0
N574 N 0.36214 0.66739 0.84561 0.0
O575 O 0.41956 0.62384 0.81582 0.0
H576 H 0.35022 0.60973 0.86306 0.0
H577 H 0.38732 0.66048 0.81434 0.0
O578 O 0.3803 0.61219 0.78417 0.0
C579 C 0.43045 0.62743 0.83706 0.0
O580 O 0.42025 0.61735 0.85747 0.0
N581 N 0.36433 0.57807 0.8217 0.0
C582 C 0.33966 0.53229 0.83083 0.0
C583 C 0.33699 0.54447 0.8074 0.0
C584 C 0.34936 0.56761 0.80323 0.0
C585 C 0.36639 0.56663 0.84478 0.0
C586 C 0.35376 0.54404 0.84995 0.0
H587 H 0.3488 0.57535 0.78436 0.0
H588 H 0.3794 0.57427 0.85869 0.0
H589 H 0.39041 0.56286 0.77105 0.0
H590 H 0.45552 0.53317 0.80617 0.0
H591 H 0.3391 0.65616 0.87757 0.0
H592 H 0.32685 0.53539 0.792 0.0
H593 H 0.35681 0.5347 0.86801 0.0
C594 C 0.56398 0.07276 0.68882 0.0
C595 C 0.556 0.05149 0.70164 0.0
N596 N 0.57414 0.04489 0.71842 0.0
N597 N 0.58696 0.0797 0.69754 0.0
C598 C 0.59266 0.06243 0.71562 0.0
H599 H 0.55409 0.08207 0.67344 0.0
Co600 Co 0.60643 0.1053 0.68328 0.0
C601 C 0.64222 0.1231 0.72334 0.0
O602 O 0.65881 0.13131 0.70668 0.0
N603 N 0.62554 0.13141 0.66782 0.0
C604 C 0.64612 0.15406 0.6387 0.0
C605 C 0.63978 0.12999 0.64653 0.0
C606 C 0.62392 0.15661 0.67268 0.0
N607 N 0.63598 0.17076 0.65511 0.0
O608 O 0.58001 0.12884 0.69136 0.0
H609 H 0.64416 0.1128 0.6363 0.0
H610 H 0.61265 0.16456 0.68789 0.0
O611 O 0.62193 0.11193 0.71618 0.0
C612 C 0.56735 0.13782 0.67287 0.0
O613 O 0.57429 0.13235 0.64957 0.0
N614 N 0.63033 0.08085 0.67415 0.0
C615 C 0.64895 0.03369 0.65978 0.0
C616 C 0.65844 0.04575 0.68151 0.0
C617 C 0.64869 0.06952 0.68855 0.0
C618 C 0.62245 0.07011 0.65205 0.0
C619 C 0.63163 0.04665 0.6444 0.0
H620 H 0.6543 0.07739 0.70656 0.0
H621 H 0.60741 0.07905 0.6413 0.0
H622 H 0.61029 0.0624 0.7261 0.0
H623 H 0.53867 0.04108 0.69806 0.0
H624 H 0.65641 0.15894 0.62161 0.0
H625 H 0.67164 0.03607 0.69393 0.0
H626 H 0.62397 0.03793 0.62743 0.0
C627 C 0.42732 0.43284 0.68167 0.0
C628 C 0.43592 0.45384 0.69457 0.0
N629 N 0.42181 0.45652 0.71567 0.0
N630 N 0.40805 0.4222 0.69468 0.0
C631 C 0.40525 0.43697 0.71545 0.0
H632 H 0.43403 0.42633 0.66341 0.0
Co633 Co 0.38871 0.39533 0.68248 0.0
C634 C 0.35894 0.37575 0.72579 0.0
O635 O 0.33937 0.37215 0.71081 0.0
N636 N 0.36955 0.36774 0.6691 0.0
C637 C 0.34172 0.34323 0.64848 0.0
C638 C 0.3476 0.36768 0.65568 0.0
C639 C 0.3764 0.34296 0.66975 0.0
N640 N 0.36009 0.32791 0.65716 0.0
O641 O 0.41817 0.37427 0.68488 0.0
H642 H 0.33639 0.38418 0.65109 0.0
H643 H 0.39317 0.33579 0.67913 0.0
O644 O 0.37932 0.38555 0.71697 0.0
C645 C 0.42952 0.37059 0.6639 0.0
O646 O 0.41922 0.37957 0.64304 0.0
N647 N 0.3614 0.41791 0.67873 0.0
C648 C 0.33683 0.46362 0.66901 0.0
C649 C 0.3361 0.45292 0.69329 0.0
C650 C 0.34835 0.4298 0.69777 0.0
C651 C 0.3611 0.42753 0.65475 0.0
C652 C 0.34847 0.45013 0.64934 0.0
H653 H 0.34947 0.42327 0.71708 0.0
H654 H 0.37239 0.41855 0.64015 0.0
H655 H 0.39098 0.43393 0.72987 0.0
H656 H 0.45048 0.46689 0.68827 0.0
H657 H 0.32575 0.33729 0.63702 0.0
H658 H 0.32774 0.46321 0.709 0.0
H659 H 0.34992 0.45818 0.63048 0.0
C660 C 0.81046 0.55895 0.92925 0.0
C661 C 0.79698 0.55102 0.95016 0.0
N662 N 0.78074 0.56964 0.95674 0.0
N663 N 0.80259 0.58235 0.92259 0.0
C664 C 0.78434 0.58828 0.93955 0.0
H665 H 0.82577 0.54878 0.92012 0.0
Co666 Co 0.81775 0.6026 0.8982 0.0
C667 C 0.77755 0.63894 0.8814 0.0
O668 O 0.79398 0.65731 0.87759 0.0
N669 N 0.83391 0.62264 0.87336 0.0
C670 C 0.86406 0.64323 0.85211 0.0
C671 C 0.85572 0.63592 0.87572 0.0
C672 C 0.82922 0.62256 0.84812 0.0
N673 N 0.84744 0.63463 0.83477 0.0
O674 O 0.81113 0.57661 0.87366 0.0
H675 H 0.86598 0.63886 0.89318 0.0
H676 H 0.81376 0.61213 0.83951 0.0
O677 O 0.78496 0.61758 0.89019 0.0
C678 C 0.82991 0.56426 0.86484 0.0
O679 O 0.85304 0.57134 0.87086 0.0
N680 N 0.82553 0.62611 0.92373 0.0
C681 C 0.83886 0.64463 0.97134 0.0
C682 C 0.8173 0.654 0.95889 0.0
C683 C 0.81075 0.64426 0.93498 0.0
C684 C 0.84733 0.61814 0.93503 0.0
C685 C 0.85444 0.62725 0.9587 0.0
H686 H 0.79279 0.64974 0.92698 0.0
H687 H 0.85836 0.60321 0.92624 0.0
H688 H 0.77436 0.60621 0.93973 0.0
H689 H 0.79981 0.53348 0.96047 0.0
H690 H 0.8816 0.65306 0.84794 0.0
H691 H 0.80465 0.66716 0.96833 0.0
H692 H 0.87128 0.61963 0.96771 0.0
C693 C 0.8095 0.44198 0.57296 0.0
C694 C 0.7957 0.4499 0.55222 0.0
N695 N 0.77966 0.4311 0.5457 0.0
N696 N 0.80196 0.41843 0.57954 0.0
C697 C 0.78362 0.41243 0.56273 0.0
H698 H 0.82483 0.45224 0.58193 0.0
Co699 Co 0.81736 0.39769 0.60341 0.0
C700 C 0.77701 0.36178 0.62067 0.0
O701 O 0.7933 0.34337 0.62479 0.0
N702 N 0.83373 0.37687 0.62769 0.0
C703 C 0.86167 0.35139 0.64662 0.0
C704 C 0.85191 0.35916 0.62375 0.0
C705 C 0.83259 0.37905 0.65325 0.0
N706 N 0.84975 0.36423 0.66515 0.0
O707 O 0.81148 0.42348 0.62831 0.0
H708 H 0.85876 0.35298 0.60548 0.0
H709 H 0.82009 0.39204 0.66305 0.0
O710 O 0.78457 0.38299 0.61167 0.0
C711 C 0.8307 0.43607 0.63574 0.0
O712 O 0.85342 0.42917 0.62817 0.0
N713 N 0.82445 0.37457 0.57751 0.0
C714 C 0.83808 0.35551 0.53033 0.0
C715 C 0.81644 0.34625 0.54272 0.0
C716 C 0.80976 0.35624 0.56648 0.0
C717 C 0.84629 0.38248 0.56627 0.0
C718 C 0.85355 0.37311 0.54278 0.0
H719 H 0.79189 0.35068 0.57466 0.0
H720 H 0.85736 0.39737 0.57507 0.0
H721 H 0.77386 0.39437 0.56247 0.0
H722 H 0.79823 0.4675 0.54193 0.0
H723 H 0.87753 0.3386 0.64926 0.0
H724 H 0.80394 0.33287 0.53339 0.0
H725 H 0.87044 0.38061 0.53377 0.0
C726 C 0.18085 0.07144 0.56121 0.0
C727 C 0.19406 0.06246 0.54059 0.0
N728 N 0.21611 0.07526 0.53907 0.0
N729 N 0.19456 0.08967 0.57277 0.0
C730 C 0.21608 0.09143 0.55894 0.0
H731 H 0.16192 0.06583 0.56674 0.0
Co732 Co 0.1822 0.10931 0.59933 0.0
C733 C 0.22537 0.13905 0.61887 0.0
O734 O 0.21041 0.15885 0.62125 0.0
N735 N 0.16863 0.12879 0.62662 0.0
C736 C 0.14851 0.15721 0.65088 0.0
C737 C 0.15579 0.15111 0.62654 0.0
C738 C 0.16881 0.12193 0.65139 0.0
N739 N 0.15652 0.1386 0.66628 0.0
O740 O 0.18364 0.07989 0.62052 0.0
H741 H 0.15182 0.16254 0.61004 0.0
H742 H 0.17776 0.10497 0.65868 0.0
O743 O 0.21666 0.11831 0.60973 0.0
C744 C 0.16226 0.06896 0.62303 0.0
O745 O 0.1422 0.07964 0.61274 0.0
N746 N 0.1793 0.1366 0.57659 0.0
C747 C 0.17028 0.16207 0.53123 0.0
C748 C 0.19466 0.1616 0.54172 0.0
C749 C 0.19881 0.14884 0.56459 0.0
C750 C 0.15531 0.13787 0.56706 0.0
C751 C 0.15026 0.15099 0.54468 0.0
H752 H 0.21812 0.14679 0.57091 0.0
H753 H 0.14031 0.12709 0.57602 0.0
H754 H 0.23113 0.10482 0.56284 0.0
H755 H 0.18733 0.04866 0.52694 0.0
H756 H 0.13757 0.17359 0.65673 0.0
H757 H 0.21064 0.16945 0.53144 0.0
H758 H 0.1313 0.1504 0.53676 0.0
C759 C 0.6804 0.42857 0.43616 0.0
C760 C 0.6929 0.4381 0.45697 0.0
N761 N 0.71525 0.42593 0.45908 0.0
N762 N 0.69487 0.41062 0.42509 0.0
C763 C 0.71611 0.40957 0.43937 0.0
H764 H 0.66148 0.43364 0.43011 0.0
Co765 Co 0.68364 0.39068 0.39833 0.0
C766 C 0.72729 0.36055 0.38082 0.0
O767 O 0.71228 0.34077 0.37864 0.0
N768 N 0.67122 0.37097 0.37071 0.0
C769 C 0.65147 0.34297 0.34569 0.0
C770 C 0.65786 0.34897 0.37032 0.0
C771 C 0.67273 0.37766 0.34595 0.0
N772 N 0.66068 0.36126 0.33059 0.0
O773 O 0.68584 0.41991 0.377 0.0
H774 H 0.65269 0.33785 0.3867 0.0
H775 H 0.6822 0.39449 0.33901 0.0
O776 O 0.71849 0.38156 0.38925 0.0
C777 C 0.66452 0.43068 0.37351 0.0
O778 O 0.64408 0.41989 0.38289 0.0
N779 N 0.67991 0.36363 0.42123 0.0
C780 C 0.66936 0.33959 0.46704 0.0
C781 C 0.69414 0.34001 0.45752 0.0
C782 C 0.69906 0.35205 0.43442 0.0
C783 C 0.65556 0.36232 0.42982 0.0
C784 C 0.64976 0.3499 0.45242 0.0
H785 H 0.71859 0.35423 0.42886 0.0
H786 H 0.64082 0.37269 0.41998 0.0
H787 H 0.7316 0.39656 0.43593 0.0
H788 H 0.6855 0.45184 0.47033 0.0
H789 H 0.64007 0.32705 0.33947 0.0
H790 H 0.70978 0.33277 0.46871 0.0
H791 H 0.6305 0.35051 0.45957 0.0
C792 C 0.57158 0.68591 0.93489 0.0
C793 C 0.5503 0.6989 0.94271 0.0
N794 N 0.54452 0.71626 0.92487 0.0
N795 N 0.57927 0.69521 0.91236 0.0
C796 C 0.56251 0.7138 0.90682 0.0
H797 H 0.58037 0.67008 0.94455 0.0
Co798 Co 0.60509 0.68157 0.89267 0.0
C799 C 0.62189 0.72314 0.85841 0.0
O800 O 0.62642 0.70722 0.83977 0.0
N801 N 0.63149 0.66704 0.87319 0.0
C802 C 0.65468 0.63854 0.85234 0.0
C803 C 0.63046 0.64624 0.85821 0.0
C804 C 0.65663 0.67189 0.87556 0.0
N805 N 0.67113 0.65455 0.86352 0.0
O806 O 0.62814 0.6877 0.92002 0.0
H807 H 0.61342 0.63612 0.85312 0.0
H808 H 0.66425 0.6866 0.88769 0.0
O809 O 0.61276 0.71507 0.87935 0.0
C810 C 0.6364 0.66831 0.9318 0.0
O811 O 0.63057 0.64555 0.92343 0.0
N812 N 0.58088 0.67402 0.86777 0.0
C813 C 0.53342 0.66074 0.84898 0.0
C814 C 0.54513 0.68325 0.841 0.0
C815 C 0.56902 0.68972 0.85082 0.0
C816 C 0.57041 0.65128 0.87409 0.0
C817 C 0.5468 0.64417 0.8648 0.0
H818 H 0.57634 0.70835 0.84673 0.0
H819 H 0.57958 0.63953 0.88822 0.0
H820 H 0.56315 0.725 0.88965 0.0
H821 H 0.5393 0.6951 0.95962 0.0
H822 H 0.65979 0.62164 0.84183 0.0
H823 H 0.53504 0.69665 0.82914 0.0
H824 H 0.53825 0.62668 0.87142 0.0
C825 C 0.4349 0.8159 0.92844 0.0
C826 C 0.45556 0.80256 0.93712 0.0
N827 N 0.4584 0.78179 0.92251 0.0
N828 N 0.42458 0.80352 0.90859 0.0
C829 C 0.43924 0.78269 0.90551 0.0
H830 H 0.42844 0.83405 0.93549 0.0
Co831 Co 0.39834 0.8167 0.88905 0.0
C832 C 0.37807 0.77434 0.85855 0.0
O833 O 0.37514 0.78978 0.8392 0.0
N834 N 0.37149 0.83102 0.86992 0.0
C835 C 0.34755 0.85803 0.84791 0.0
C836 C 0.37195 0.85032 0.85301 0.0
C837 C 0.34647 0.82708 0.87428 0.0
N838 N 0.33159 0.84348 0.86147 0.0
O839 O 0.37669 0.81504 0.91817 0.0
H840 H 0.38872 0.85945 0.84571 0.0
H841 H 0.33931 0.81364 0.88805 0.0
O842 O 0.38772 0.78258 0.87924 0.0
C843 C 0.37357 0.83661 0.9286 0.0
O844 O 0.38372 0.85663 0.9177 0.0
N845 N 0.42131 0.81999 0.86198 0.0
C846 C 0.46623 0.82938 0.83583 0.0
C847 C 0.45497 0.80535 0.8349 0.0
C848 C 0.4323 0.80101 0.84804 0.0
C849 C 0.43196 0.84354 0.86255 0.0
C850 C 0.45403 0.84885 0.84909 0.0
H851 H 0.42535 0.78183 0.84883 0.0
H852 H 0.42408 0.8579 0.87494 0.0
H853 H 0.43638 0.76875 0.89073 0.0
H854 H 0.46831 0.8084 0.95212 0.0
H855 H 0.34205 0.87386 0.83603 0.0
H856 H 0.46444 0.7897 0.82551 0.0
H857 H 0.4627 0.86741 0.85093 0.0
C858 C 0.56959 0.31513 0.56741 0.0
C859 C 0.54846 0.30175 0.55987 0.0
N860 N 0.54358 0.28386 0.57747 0.0
N861 N 0.5781 0.30556 0.58952 0.0
C862 C 0.56196 0.28644 0.5951 0.0
H863 H 0.57774 0.33136 0.55785 0.0
Co864 Co 0.60411 0.3195 0.60873 0.0
C865 C 0.62211 0.27804 0.64248 0.0
O866 O 0.62671 0.2939 0.66116 0.0
N867 N 0.63065 0.33433 0.62774 0.0
C868 C 0.65391 0.36281 0.64852 0.0
C869 C 0.62967 0.3551 0.64275 0.0
C870 C 0.65578 0.32954 0.62517 0.0
N871 N 0.67031 0.34683 0.63723 0.0
O872 O 0.62671 0.31374 0.58096 0.0
H873 H 0.61264 0.36515 0.64804 0.0
H874 H 0.66335 0.31482 0.61301 0.0
O875 O 0.61251 0.28611 0.62176 0.0
C876 C 0.63456 0.33316 0.56895 0.0
O877 O 0.62865 0.3559 0.5773 0.0
N878 N 0.5803 0.32657 0.63413 0.0
C879 C 0.5329 0.33882 0.65364 0.0
C880 C 0.545 0.31636 0.66111 0.0
C881 C 0.56887 0.31043 0.65096 0.0
C882 C 0.56942 0.34926 0.62828 0.0
C883 C 0.54582 0.35585 0.63795 0.0
H884 H 0.57648 0.29184 0.65466 0.0
H885 H 0.5782 0.36131 0.61417 0.0
H886 H 0.56335 0.27489 0.612 0.0
H887 H 0.53696 0.30558 0.54329 0.0
H888 H 0.65907 0.37962 0.65914 0.0
H889 H 0.53519 0.30259 0.6728 0.0
H890 H 0.53684 0.37324 0.63162 0.0
C891 C 0.43601 0.18185 0.5722 0.0
C892 C 0.45661 0.1956 0.56408 0.0
N893 N 0.45958 0.21558 0.57973 0.0
N894 N 0.42581 0.1932 0.59272 0.0
C895 C 0.44061 0.21376 0.59687 0.0
H896 H 0.42938 0.1642 0.56412 0.0
Co897 Co 0.39908 0.1794 0.61119 0.0
C898 C 0.37483 0.22182 0.6397 0.0
O899 O 0.36693 0.20633 0.65754 0.0
N900 N 0.37196 0.1642 0.62909 0.0
C901 C 0.34797 0.13604 0.64961 0.0
C902 C 0.37238 0.14419 0.64516 0.0
C903 C 0.34699 0.16789 0.6243 0.0
N904 N 0.33209 0.15099 0.63641 0.0
O905 O 0.37831 0.18128 0.58145 0.0
H906 H 0.38919 0.13501 0.65232 0.0
H907 H 0.33991 0.18187 0.61104 0.0
O908 O 0.38805 0.21349 0.62112 0.0
C909 C 0.37545 0.15987 0.57064 0.0
O910 O 0.38548 0.1397 0.58139 0.0
N911 N 0.42094 0.17612 0.63897 0.0
C912 C 0.46543 0.16843 0.66618 0.0
C913 C 0.45247 0.19155 0.66801 0.0
C914 C 0.42993 0.19498 0.6544 0.0
C915 C 0.43296 0.15328 0.63784 0.0
C916 C 0.45491 0.14881 0.65176 0.0
H917 H 0.42148 0.21358 0.65448 0.0
H918 H 0.42639 0.13904 0.62459 0.0
H919 H 0.43786 0.2269 0.61237 0.0
H920 H 0.4691 0.19067 0.54855 0.0
H921 H 0.34239 0.11989 0.66102 0.0
H922 H 0.46057 0.2073 0.67845 0.0
H923 H 0.46487 0.13097 0.64935 0.0
C924 C 0.92815 0.56711 0.68484 0.0
C925 C 0.93639 0.54668 0.69889 0.0
N926 N 0.92189 0.54515 0.71982 0.0
N927 N 0.90873 0.5785 0.69701 0.0
C928 C 0.90548 0.56472 0.71838 0.0
H929 H 0.93526 0.57268 0.66644 0.0
Co930 Co 0.88975 0.60533 0.68392 0.0
C931 C 0.85985 0.62556 0.727 0.0
O932 O 0.84038 0.62942 0.71197 0.0
N933 N 0.87091 0.63289 0.66983 0.0
C934 C 0.8428 0.65724 0.64938 0.0
C935 C 0.84841 0.63297 0.65734 0.0
C936 C 0.87839 0.65751 0.66908 0.0
N937 N 0.8619 0.67245 0.65658 0.0
O938 O 0.91949 0.6261 0.68579 0.0
H939 H 0.83652 0.61662 0.6541 0.0
H940 H 0.89564 0.66468 0.67753 0.0
O941 O 0.88023 0.61578 0.71817 0.0
C942 C 0.9306 0.62765 0.6644 0.0
O943 O 0.91969 0.61705 0.64462 0.0
N944 N 0.86223 0.58296 0.68042 0.0
C945 C 0.83719 0.53751 0.67071 0.0
C946 C 0.83654 0.54823 0.69499 0.0
C947 C 0.84899 0.57126 0.69945 0.0
C948 C 0.86187 0.5733 0.65645 0.0
C949 C 0.84902 0.55084 0.65105 0.0
H950 H 0.85003 0.57792 0.71872 0.0
H951 H 0.87325 0.58215 0.64185 0.0
H952 H 0.891 0.56847 0.73242 0.0
H953 H 0.95093 0.5332 0.69351 0.0
H954 H 0.82637 0.66314 0.63856 0.0
H955 H 0.82804 0.53805 0.71068 0.0
H956 H 0.85038 0.54275 0.6322 0.0
C957 C 0.06544 0.92763 0.68822 0.0
C958 C 0.0575 0.94896 0.70107 0.0
N959 N 0.0754 0.95511 0.71825 0.0
N960 N 0.08813 0.92029 0.6974 0.0
C961 C 0.09362 0.93727 0.71579 0.0
H962 H 0.05578 0.9186 0.67252 0.0
Co963 Co 0.1082 0.89479 0.68377 0.0
C964 C 0.14388 0.87986 0.72487 0.0
O965 O 0.16246 0.87576 0.70876 0.0
N966 N 0.1282 0.86873 0.66932 0.0
C967 C 0.14978 0.84581 0.64116 0.0
C968 C 0.14324 0.86995 0.64858 0.0
C969 C 0.12655 0.84359 0.67446 0.0
N970 N 0.13901 0.82925 0.65731 0.0
O971 O 0.08167 0.87108 0.69101 0.0
H972 H 0.14799 0.887 0.63831 0.0
H973 H 0.11464 0.83579 0.68925 0.0
O974 O 0.12252 0.88814 0.71699 0.0
C975 C 0.06972 0.86206 0.67207 0.0
O976 O 0.07756 0.86749 0.64904 0.0
N977 N 0.1321 0.91954 0.67513 0.0
C978 C 0.14956 0.96685 0.65959 0.0
C979 C 0.15825 0.95621 0.68237 0.0
C980 C 0.14907 0.93238 0.69 0.0
C981 C 0.12498 0.92902 0.65221 0.0
C982 C 0.13366 0.95247 0.64394 0.0
H983 H 0.15375 0.9258 0.70876 0.0
H984 H 0.11086 0.91905 0.64114 0.0
H985 H 0.11092 0.93692 0.7268 0.0
H986 H 0.04045 0.95977 0.69724 0.0
H987 H 0.16047 0.84079 0.62436 0.0
H988 H 0.17025 0.96704 0.69506 0.0
H989 H 0.12661 0.96007 0.6262 0.0
C990 C 0.92437 0.4384 0.82277 0.0
C991 C 0.9325 0.46018 0.81084 0.0
N992 N 0.92045 0.46186 0.78844 0.0
N993 N 0.90753 0.42624 0.80777 0.0
C994 C 0.90563 0.44108 0.78693 0.0
H995 H 0.92966 0.43248 0.84165 0.0
Co996 Co 0.88864 0.39741 0.81626 0.0
C997 C 0.88456 0.37033 0.76819 0.0
O998 O 0.89425 0.35019 0.77924 0.0
N999 N 0.86939 0.36847 0.82486 0.0
C1000 C 0.83916 0.33894 0.82364 0.0
C1001 C 0.84551 0.3634 0.81701 0.0
C1002 C 0.87687 0.34691 0.83666 0.0
N1003 N 0.85901 0.32858 0.8359 0.0
O1004 O 0.9192 0.37768 0.81463 0.0
H1005 H 0.83394 0.37611 0.80582 0.0
H1006 H 0.89564 0.34381 0.84414 0.0
O1007 O 0.88174 0.39082 0.78078 0.0
C1008 C 0.9308 0.37699 0.83578 0.0
O1009 O 0.91973 0.38721 0.85566 0.0
N1010 N 0.86002 0.41806 0.8196 0.0
C1011 C 0.83357 0.46248 0.82952 0.0
C1012 C 0.83495 0.45296 0.80474 0.0
C1013 C 0.84797 0.4303 0.80018 0.0
C1014 C 0.85654 0.4256 0.84404 0.0
C1015 C 0.84311 0.44775 0.84949 0.0
H1016 H 0.85048 0.42429 0.7808 0.0
H1017 H 0.86649 0.41585 0.85911 0.0
H1018 H 0.89311 0.4372 0.77115 0.0
H1019 H 0.94522 0.47435 0.81856 0.0
H1020 H 0.82169 0.32924 0.81891 0.0
H1021 H 0.8278 0.46392 0.7889 0.0
H1022 H 0.84262 0.45467 0.86883 0.0
C1023 C 0.07007 0.06812 0.81441 0.0
C1024 C 0.06165 0.047 0.80161 0.0
N1025 N 0.07748 0.04266 0.78204 0.0
N1026 N 0.09099 0.07722 0.80286 0.0
C1027 C 0.09501 0.06134 0.78313 0.0
H1028 H 0.06198 0.07582 0.8316 0.0
Co1029 Co 0.11023 0.10388 0.81562 0.0
C1030 C 0.13955 0.12568 0.77257 0.0
O1031 O 0.15752 0.13366 0.78785 0.0
N1032 N 0.129 0.13108 0.82971 0.0
C1033 C 0.15069 0.15519 0.85683 0.0
C1034 C 0.14566 0.13073 0.84922 0.0
C1035 C 0.12457 0.1561 0.82568 0.0
N1036 N 0.1373 0.17108 0.84204 0.0
O1037 O 0.08114 0.12546 0.8127 0.0
H1038 H 0.15279 0.11394 0.85848 0.0
H1039 H 0.111 0.16319 0.81201 0.0
O1040 O 0.12061 0.1132 0.78121 0.0
C1041 C 0.07064 0.13032 0.83389 0.0
O1042 O 0.08112 0.12145 0.85472 0.0
N1043 N 0.13729 0.08122 0.81998 0.0
C1044 C 0.16351 0.03649 0.82981 0.0
C1045 C 0.16591 0.04851 0.80624 0.0
C1046 C 0.15279 0.07119 0.80173 0.0
C1047 C 0.13552 0.07005 0.8432 0.0
C1048 C 0.1489 0.04797 0.84872 0.0
H1049 H 0.15336 0.07899 0.78287 0.0
H1050 H 0.12229 0.07752 0.857 0.0
H1051 H 0.11076 0.06309 0.77011 0.0
H1052 H 0.04581 0.03509 0.80701 0.0
H1053 H 0.16248 0.16081 0.87268 0.0
H1054 H 0.17653 0.03966 0.79103 0.0
H1055 H 0.1461 0.03878 0.86689 0.0
C1056 C 0.67994 0.92821 0.56364 0.0
C1057 C 0.69246 0.93757 0.54277 0.0
N1058 N 0.7149 0.92554 0.54089 0.0
N1059 N 0.69449 0.91051 0.57499 0.0
C1060 C 0.7158 0.90942 0.56078 0.0
H1061 H 0.66098 0.93326 0.56959 0.0
Co1062 Co 0.6834 0.89096 0.60212 0.0
C1063 C 0.72735 0.86167 0.62018 0.0
O1064 O 0.7125 0.84183 0.62286 0.0
N1065 N 0.67115 0.87165 0.63012 0.0
C1066 C 0.65179 0.84386 0.65566 0.0
C1067 C 0.65799 0.84954 0.63091 0.0
C1068 C 0.67269 0.87876 0.65477 0.0
N1069 N 0.66089 0.86247 0.67045 0.0
O1070 O 0.68514 0.92063 0.6229 0.0
H1071 H 0.65289 0.8381 0.61473 0.0
H1072 H 0.68206 0.89576 0.6614 0.0
O1073 O 0.71833 0.88244 0.6114 0.0
C1074 C 0.66358 0.93102 0.62612 0.0
O1075 O 0.64342 0.91964 0.61681 0.0
N1076 N 0.68009 0.86339 0.57972 0.0
C1077 C 0.67004 0.83843 0.53427 0.0
C1078 C 0.69475 0.8393 0.54391 0.0
C1079 C 0.69942 0.85181 0.56681 0.0
C1080 C 0.65579 0.86161 0.57107 0.0
C1081 C 0.65025 0.84873 0.54865 0.0
H1082 H 0.71891 0.85433 0.57238 0.0
H1083 H 0.64088 0.87196 0.58066 0.0
H1084 H 0.73139 0.8966 0.56445 0.0
H1085 H 0.68504 0.95113 0.52924 0.0
H1086 H 0.64064 0.82788 0.66219 0.0
H1087 H 0.71054 0.83206 0.53291 0.0
H1088 H 0.63101 0.84899 0.54142 0.0
C1089 C 0.68099 0.07258 0.9357 0.0
C1090 C 0.69365 0.06413 0.9569 0.0
N1091 N 0.71512 0.07775 0.95924 0.0
N1092 N 0.69454 0.09126 0.92465 0.0
C1093 C 0.71537 0.09383 0.93934 0.0
H1094 H 0.66255 0.06624 0.92936 0.0
Co1095 Co 0.68299 0.11041 0.89743 0.0
C1096 C 0.72663 0.13985 0.87844 0.0
O1097 O 0.71158 0.15939 0.87487 0.0
N1098 N 0.67036 0.12934 0.86945 0.0
C1099 C 0.6504 0.15663 0.84387 0.0
C1100 C 0.65648 0.151 0.86866 0.0
C1101 C 0.67243 0.12242 0.8448 0.0
N1102 N 0.66031 0.13843 0.8291 0.0
O1103 O 0.68503 0.08059 0.87677 0.0
H1104 H 0.65077 0.16211 0.88486 0.0
H1105 H 0.68239 0.10573 0.83821 0.0
O1106 O 0.71779 0.11934 0.88799 0.0
C1107 C 0.66356 0.07005 0.87345 0.0
O1108 O 0.6433 0.08127 0.88273 0.0
N1109 N 0.67931 0.13811 0.91961 0.0
C1110 C 0.66903 0.16345 0.96478 0.0
C1111 C 0.69357 0.16353 0.95465 0.0
C1112 C 0.69834 0.15088 0.93182 0.0
C1113 C 0.65513 0.13898 0.92871 0.0
C1114 C 0.64945 0.15201 0.95099 0.0
H1115 H 0.71778 0.14926 0.9258 0.0
H1116 H 0.64051 0.12783 0.91957 0.0
H1117 H 0.73014 0.10767 0.93601 0.0
H1118 H 0.68694 0.05009 0.97031 0.0
H1119 H 0.63877 0.17224 0.8373 0.0
H1120 H 0.70922 0.1717 0.96519 0.0
H1121 H 0.63039 0.15102 0.95862 0.0
C1122 C 0.31325 0.43604 0.92862 0.0
C1123 C 0.29984 0.44436 0.94943 0.0
N1124 N 0.28288 0.4263 0.95574 0.0
N1125 N 0.30463 0.41297 0.92175 0.0
C1126 C 0.28601 0.40762 0.9385 0.0
H1127 H 0.32897 0.44573 0.91966 0.0
Co1128 Co 0.31926 0.39252 0.89716 0.0
C1129 C 0.27843 0.35708 0.88042 0.0
O1130 O 0.2945 0.33831 0.87703 0.0
N1131 N 0.33484 0.37233 0.8721 0.0
C1132 C 0.36474 0.35236 0.84995 0.0
C1133 C 0.35674 0.35911 0.87386 0.0
C1134 C 0.32971 0.37284 0.84697 0.0
N1135 N 0.3478 0.36124 0.83307 0.0
O1136 O 0.31326 0.41883 0.87286 0.0
H1137 H 0.36737 0.35603 0.89107 0.0
H1138 H 0.31415 0.38349 0.83882 0.0
O1139 O 0.28618 0.37837 0.88905 0.0
C1140 C 0.33238 0.43056 0.86393 0.0
O1141 O 0.35531 0.42277 0.86986 0.0
N1142 N 0.32651 0.36866 0.92244 0.0
C1143 C 0.33903 0.35083 0.97045 0.0
C1144 C 0.31709 0.34207 0.95826 0.0
C1145 C 0.31097 0.35144 0.93412 0.0
C1146 C 0.34872 0.37585 0.93346 0.0
C1147 C 0.35544 0.36705 0.95735 0.0
H1148 H 0.2927 0.34668 0.92636 0.0
H1149 H 0.36031 0.39016 0.9244 0.0
H1150 H 0.27533 0.39009 0.93845 0.0
H1151 H 0.30314 0.46177 0.95982 0.0
H1152 H 0.38237 0.34291 0.84528 0.0
H1153 H 0.30382 0.32984 0.96811 0.0
H1154 H 0.37254 0.37423 0.96624 0.0
C1155 C 0.81454 0.07012 0.06871 0.0
C1156 C 0.8008 0.06141 0.04829 0.0
N1157 N 0.7811 0.07723 0.04468 0.0
N1158 N 0.80337 0.09118 0.07805 0.0
C1159 C 0.7829 0.0949 0.0631 0.0
H1160 H 0.83221 0.06228 0.07553 0.0
Co1161 Co 0.81712 0.1118 0.10313 0.0
C1162 C 0.77456 0.14261 0.12341 0.0
O1163 O 0.78972 0.16207 0.12694 0.0
N1164 N 0.83205 0.13236 0.12875 0.0
C1165 C 0.8569 0.15956 0.14955 0.0
C1166 C 0.84717 0.15299 0.12629 0.0
C1167 C 0.8326 0.12726 0.15393 0.0
N1168 N 0.84799 0.14311 0.16688 0.0
O1169 O 0.81561 0.08358 0.12598 0.0
H1170 H 0.85179 0.16244 0.10876 0.0
H1171 H 0.82245 0.11172 0.16263 0.0
O1172 O 0.78318 0.12211 0.11369 0.0
C1173 C 0.83704 0.07277 0.12875 0.0
O1174 O 0.85699 0.08304 0.11785 0.0
N1175 N 0.82024 0.13771 0.079 0.0
C1176 C 0.8297 0.16259 0.03352 0.0
C1177 C 0.806 0.16483 0.04527 0.0
C1178 C 0.80166 0.15237 0.06832 0.0
C1179 C 0.84352 0.13596 0.06794 0.0
C1180 C 0.84885 0.1487 0.04548 0.0
H1181 H 0.78274 0.15278 0.07599 0.0
H1182 H 0.85764 0.12346 0.07606 0.0
H1183 H 0.76993 0.11067 0.06511 0.0
H1184 H 0.80575 0.0456 0.03614 0.0
H1185 H 0.87063 0.17442 0.15311 0.0
H1186 H 0.79063 0.17484 0.03601 0.0
H1187 H 0.86715 0.14604 0.03649 0.0
C1188 C 0.43238 0.31774 0.0732 0.0
C1189 C 0.45286 0.3045 0.06397 0.0
N1190 N 0.45591 0.28351 0.07821 0.0
N1191 N 0.4224 0.3051 0.09305 0.0
C1192 C 0.43706 0.2842 0.09558 0.0
H1193 H 0.4258 0.33598 0.06651 0.0
Co1194 Co 0.39645 0.31811 0.11304 0.0
C1195 C 0.37634 0.2754 0.14325 0.0
O1196 O 0.37363 0.29055 0.16287 0.0
N1197 N 0.36992 0.33238 0.13259 0.0
C1198 C 0.34615 0.35977 0.15435 0.0
C1199 C 0.37052 0.35211 0.149 0.0
C1200 C 0.34487 0.32817 0.12875 0.0
N1201 N 0.33009 0.34477 0.14143 0.0
O1202 O 0.37446 0.31664 0.08421 0.0
H1203 H 0.38734 0.36161 0.15568 0.0
H1204 H 0.33761 0.3144 0.11536 0.0
O1205 O 0.38584 0.28392 0.12261 0.0
C1206 C 0.37076 0.3381 0.07379 0.0
O1207 O 0.38046 0.3584 0.08458 0.0
N1208 N 0.41971 0.32108 0.13986 0.0
C1209 C 0.4648 0.33001 0.16584 0.0
C1210 C 0.45345 0.30601 0.16657 0.0
C1211 C 0.43071 0.3019 0.1535 0.0
C1212 C 0.43046 0.34458 0.13945 0.0
C1213 C 0.45262 0.34966 0.15285 0.0
H1214 H 0.4237 0.28275 0.15251 0.0
H1215 H 0.42262 0.35908 0.12721 0.0
H1216 H 0.43442 0.27007 0.11021 0.0
H1217 H 0.46534 0.31054 0.04882 0.0
H1218 H 0.34072 0.37588 0.16589 0.0
H1219 H 0.46292 0.29022 0.17573 0.0
H1220 H 0.46138 0.36819 0.15114 0.0
C1221 C 0.56928 0.18824 0.06243 0.0
C1222 C 0.54806 0.20154 0.05494 0.0
N1223 N 0.54209 0.21817 0.07341 0.0
N1224 N 0.57673 0.19663 0.08539 0.0
C1225 C 0.55993 0.215 0.09149 0.0
H1226 H 0.57813 0.17275 0.05227 0.0
Co1227 Co 0.60199 0.18212 0.10516 0.0
C1228 C 0.61859 0.22292 0.1407 0.0
O1229 O 0.6229 0.20671 0.15914 0.0
N1230 N 0.62772 0.16673 0.12476 0.0
C1231 C 0.65017 0.13746 0.14536 0.0
C1232 C 0.62618 0.14522 0.13865 0.0
C1233 C 0.65287 0.17186 0.12377 0.0
N1234 N 0.66694 0.15415 0.13579 0.0
O1235 O 0.62571 0.18883 0.07851 0.0
H1236 H 0.60901 0.13475 0.14246 0.0
H1237 H 0.66087 0.18722 0.11273 0.0
O1238 O 0.60968 0.21519 0.11954 0.0
C1239 C 0.63434 0.1698 0.06638 0.0
O1240 O 0.62847 0.14679 0.074 0.0
N1241 N 0.57722 0.17409 0.12931 0.0
C1242 C 0.52963 0.16042 0.14748 0.0
C1243 C 0.54157 0.18243 0.15649 0.0
C1244 C 0.56552 0.18912 0.14696 0.0
C1245 C 0.5665 0.1518 0.1219 0.0
C1246 C 0.54284 0.1445 0.13086 0.0
H1247 H 0.57309 0.20742 0.15197 0.0
H1248 H 0.57561 0.14059 0.1073 0.0
H1249 H 0.56038 0.22545 0.10914 0.0
H1250 H 0.5372 0.19837 0.03781 0.0
H1251 H 0.65496 0.12023 0.15545 0.0
H1252 H 0.53165 0.19532 0.16905 0.0
H1253 H 0.53418 0.12735 0.12352 0.0
C1254 C 0.43476 0.68242 0.42995 0.0
C1255 C 0.4552 0.69597 0.43882 0.0
N1256 N 0.45823 0.71652 0.42395 0.0
N1257 N 0.42481 0.69444 0.4097 0.0
C1258 C 0.4394 0.7153 0.40661 0.0
H1259 H 0.42826 0.66431 0.43709 0.0
Co1260 Co 0.39933 0.68066 0.38969 0.0
C1261 C 0.37899 0.72261 0.35841 0.0
O1262 O 0.37667 0.70706 0.33905 0.0
N1263 N 0.37331 0.66563 0.37013 0.0
C1264 C 0.34998 0.63714 0.34934 0.0
C1265 C 0.37425 0.64503 0.35484 0.0
C1266 C 0.34821 0.67006 0.37321 0.0
N1267 N 0.33367 0.65285 0.36107 0.0
O1268 O 0.37693 0.68233 0.41822 0.0
H1269 H 0.39121 0.63513 0.34916 0.0
H1270 H 0.34071 0.68449 0.38575 0.0
O1271 O 0.38835 0.71457 0.37931 0.0
C1272 C 0.37331 0.66093 0.4288 0.0
O1273 O 0.38347 0.64064 0.41842 0.0
N1274 N 0.42296 0.67752 0.3632 0.0
C1275 C 0.46873 0.66896 0.33833 0.0
C1276 C 0.45687 0.69265 0.33673 0.0
C1277 C 0.43378 0.69656 0.34922 0.0
C1278 C 0.43419 0.65426 0.36438 0.0
C1279 C 0.45674 0.64936 0.35158 0.0
H1280 H 0.42635 0.71557 0.34955 0.0
H1281 H 0.42646 0.63992 0.37687 0.0
H1282 H 0.4368 0.72896 0.39154 0.0
H1283 H 0.46772 0.69038 0.4541 0.0
H1284 H 0.34476 0.62047 0.33853 0.0
H1285 H 0.46616 0.7084 0.32733 0.0
H1286 H 0.46588 0.63108 0.35392 0.0
C1287 C 0.57093 0.81289 0.43609 0.0
C1288 C 0.54994 0.79954 0.44405 0.0
N1289 N 0.54421 0.78222 0.42615 0.0
N1290 N 0.5785 0.80385 0.41341 0.0
C1291 C 0.56197 0.78506 0.40792 0.0
H1292 H 0.57957 0.82881 0.44573 0.0
Co1293 Co 0.60371 0.81819 0.39354 0.0
C1294 C 0.62085 0.77749 0.35837 0.0
O1295 O 0.62448 0.79379 0.33985 0.0
N1296 N 0.62949 0.83348 0.37389 0.0
C1297 C 0.6519 0.8625 0.35295 0.0
C1298 C 0.6279 0.85447 0.35925 0.0
C1299 C 0.6547 0.82886 0.37566 0.0
N1300 N 0.66874 0.84649 0.36352 0.0
O1301 O 0.62727 0.81212 0.42047 0.0
H1302 H 0.61065 0.86447 0.35465 0.0
H1303 H 0.66273 0.81404 0.38739 0.0
O1304 O 0.61191 0.78501 0.37961 0.0
C1305 C 0.63535 0.83143 0.43252 0.0
O1306 O 0.62911 0.85424 0.4246 0.0
N1307 N 0.579 0.82559 0.36908 0.0
C1308 C 0.53136 0.8386 0.35048 0.0
C1309 C 0.54331 0.8163 0.34224 0.0
C1310 C 0.56725 0.80994 0.352 0.0
C1311 C 0.56823 0.8481 0.37577 0.0
C1312 C 0.54456 0.85507 0.36656 0.0
H1313 H 0.57477 0.79145 0.34767 0.0
H1314 H 0.57731 0.85978 0.39 0.0
H1315 H 0.56255 0.77404 0.39063 0.0
H1316 H 0.53904 0.80313 0.46107 0.0
H1317 H 0.65662 0.87956 0.34253 0.0
H1318 H 0.53337 0.80296 0.33017 0.0
H1319 H 0.53585 0.87242 0.37336 0.0
C1320 C 0.06522 0.42929 0.3135 0.0
C1321 C 0.05674 0.45066 0.30113 0.0
N1322 N 0.07359 0.45661 0.28283 0.0
N1323 N 0.08722 0.4217 0.30298 0.0
C1324 C 0.09177 0.43857 0.28423 0.0
H1325 H 0.05649 0.42043 0.32982 0.0
Co1326 Co 0.1076 0.39617 0.316 0.0
C1327 C 0.14261 0.38135 0.27451 0.0
O1328 O 0.16145 0.37797 0.29048 0.0
N1329 N 0.12783 0.37001 0.32995 0.0
C1330 C 0.14958 0.3467 0.35764 0.0
C1331 C 0.14301 0.37094 0.3506 0.0
C1332 C 0.12612 0.34495 0.32448 0.0
N1333 N 0.13867 0.33036 0.34134 0.0
O1334 O 0.08092 0.37251 0.30926 0.0
H1335 H 0.14783 0.38784 0.36108 0.0
H1336 H 0.11408 0.33736 0.30968 0.0
O1337 O 0.1212 0.38944 0.28246 0.0
C1338 C 0.06933 0.36316 0.32826 0.0
O1339 O 0.07749 0.36831 0.35124 0.0
N1340 N 0.13176 0.42088 0.3241 0.0
C1341 C 0.14989 0.46806 0.33934 0.0
C1342 C 0.15755 0.45765 0.31609 0.0
C1343 C 0.148 0.43393 0.30861 0.0
C1344 C 0.12557 0.43019 0.34737 0.0
C1345 C 0.13462 0.45356 0.35549 0.0
H1346 H 0.15178 0.42762 0.28956 0.0
H1347 H 0.11187 0.42016 0.35892 0.0
H1348 H 0.10843 0.43803 0.27229 0.0
H1349 H 0.04011 0.46165 0.30608 0.0
H1350 H 0.16036 0.34144 0.37431 0.0
H1351 H 0.16896 0.46861 0.30298 0.0
H1352 H 0.12828 0.46104 0.37356 0.0
C1353 C 0.92462 0.06347 0.3226 0.0
C1354 C 0.93325 0.04196 0.31059 0.0
N1355 N 0.92244 0.04085 0.28751 0.0
N1356 N 0.90867 0.07608 0.30706 0.0
C1357 C 0.90781 0.06181 0.28575 0.0
H1358 H 0.92881 0.06884 0.34192 0.0
Co1359 Co 0.88942 0.10445 0.3161 0.0
C1360 C 0.88475 0.1329 0.26899 0.0
O1361 O 0.89398 0.15282 0.28082 0.0
N1362 N 0.86977 0.13294 0.32549 0.0
C1363 C 0.83876 0.16165 0.32572 0.0
C1364 C 0.8456 0.13756 0.31832 0.0
C1365 C 0.87697 0.15442 0.33763 0.0
N1366 N 0.85862 0.17227 0.33776 0.0
O1367 O 0.91971 0.12458 0.31488 0.0
H1368 H 0.83408 0.12481 0.30712 0.0
H1369 H 0.89585 0.15786 0.34471 0.0
O1370 O 0.88244 0.11187 0.28078 0.0
C1371 C 0.93156 0.12525 0.33589 0.0
O1372 O 0.92091 0.11472 0.35583 0.0
N1373 N 0.86105 0.08338 0.31884 0.0
C1374 C 0.83384 0.03923 0.32798 0.0
C1375 C 0.83615 0.04868 0.30325 0.0
C1376 C 0.8496 0.07115 0.29905 0.0
C1377 C 0.85684 0.07585 0.34316 0.0
C1378 C 0.84301 0.05385 0.34821 0.0
H1379 H 0.85279 0.07707 0.27974 0.0
H1380 H 0.86637 0.08558 0.35852 0.0
H1381 H 0.89605 0.06616 0.26952 0.0
H1382 H 0.94537 0.0275 0.31873 0.0
H1383 H 0.82093 0.17097 0.32162 0.0
H1384 H 0.82932 0.0378 0.2872 0.0
H1385 H 0.84185 0.04698 0.36755 0.0
C1386 C 0.06164 0.57363 0.19154 0.0
C1387 C 0.05367 0.55264 0.20485 0.0
N1388 N 0.07237 0.54565 0.22083 0.0
N1389 N 0.08517 0.57999 0.1992 0.0
C1390 C 0.09119 0.56268 0.21712 0.0
H1391 H 0.05135 0.58307 0.17651 0.0
Co1392 Co 0.10493 0.60484 0.18399 0.0
C1393 C 0.14089 0.62361 0.22378 0.0
O1394 O 0.15732 0.63196 0.20704 0.0
N1395 N 0.1243 0.63013 0.16755 0.0
C1396 C 0.14426 0.65161 0.13712 0.0
C1397 C 0.13773 0.62787 0.14582 0.0
C1398 C 0.12327 0.65546 0.17175 0.0
N1399 N 0.13502 0.66892 0.15343 0.0
O1400 O 0.0789 0.62908 0.19147 0.0
H1401 H 0.14131 0.61032 0.13589 0.0
H1402 H 0.1126 0.66401 0.18708 0.0
O1403 O 0.12072 0.61215 0.2167 0.0
C1404 C 0.06633 0.6377 0.17275 0.0
O1405 O 0.07305 0.63132 0.14961 0.0
N1406 N 0.12845 0.57979 0.17545 0.0
C1407 C 0.14748 0.53245 0.16214 0.0
C1408 C 0.15751 0.5455 0.18305 0.0
C1409 C 0.14755 0.56935 0.18957 0.0
C1410 C 0.11993 0.56804 0.15411 0.0
C1411 C 0.12926 0.54445 0.14703 0.0
H1412 H 0.15379 0.57811 0.20694 0.0
H1413 H 0.10442 0.57635 0.14354 0.0
H1414 H 0.10928 0.56221 0.22679 0.0
H1415 H 0.03596 0.54263 0.20207 0.0
H1416 H 0.15406 0.65584 0.11958 0.0
H1417 H 0.17145 0.53659 0.19523 0.0
H1418 H 0.12117 0.53496 0.13068 0.0
C1419 C 0.93762 0.92865 0.19092 0.0
C1420 C 0.94543 0.94922 0.20506 0.0
N1421 N 0.92642 0.95572 0.22084 0.0
N1422 N 0.91392 0.92212 0.19798 0.0
C1423 C 0.90767 0.93888 0.21633 0.0
H1424 H 0.94823 0.9195 0.17593 0.0
Co1425 Co 0.89403 0.8973 0.18276 0.0
C1426 C 0.85816 0.88024 0.22316 0.0
O1427 O 0.83972 0.87596 0.20695 0.0
N1428 N 0.87435 0.87201 0.16678 0.0
C1429 C 0.85451 0.84991 0.13675 0.0
C1430 C 0.86127 0.87381 0.14481 0.0
C1431 C 0.87483 0.84682 0.17185 0.0
N1432 N 0.86325 0.83295 0.1537 0.0
O1433 O 0.92041 0.87317 0.18928 0.0
H1434 H 0.85818 0.89108 0.13426 0.0
H1435 H 0.8853 0.83863 0.1875 0.0
O1436 O 0.87931 0.88922 0.21549 0.0
C1437 C 0.93248 0.86441 0.17029 0.0
O1438 O 0.925 0.87042 0.14729 0.0
N1439 N 0.87011 0.92241 0.17497 0.0
C1440 C 0.85168 0.97012 0.16194 0.0
C1441 C 0.84237 0.95762 0.18348 0.0
C1442 C 0.85204 0.93363 0.18987 0.0
C1443 C 0.87786 0.93369 0.15309 0.0
C1444 C 0.86879 0.95743 0.14612 0.0
H1445 H 0.84668 0.92561 0.20785 0.0
H1446 H 0.89273 0.92493 0.14196 0.0
H1447 H 0.88958 0.93902 0.226 0.0
H1448 H 0.96325 0.95925 0.20316 0.0
H1449 H 0.84501 0.84529 0.11914 0.0
H1450 H 0.82938 0.96711 0.19628 0.0
H1451 H 0.87635 0.96651 0.1293 0.0
C1452 C 0.31258 0.06177 0.42659 0.0
C1453 C 0.29896 0.05375 0.44739 0.0
N1454 N 0.28263 0.07233 0.45386 0.0
N1455 N 0.30468 0.08515 0.41989 0.0
C1456 C 0.2863 0.091 0.43675 0.0
H1457 H 0.32787 0.05159 0.41743 0.0
Co1458 Co 0.31941 0.10526 0.39506 0.0
C1459 C 0.2791 0.14159 0.37904 0.0
O1460 O 0.29547 0.16009 0.37557 0.0
N1461 N 0.33497 0.12517 0.36974 0.0
C1462 C 0.36439 0.14553 0.34731 0.0
C1463 C 0.35679 0.13855 0.37127 0.0
C1464 C 0.32948 0.12479 0.34467 0.0
N1465 N 0.34727 0.13666 0.3306 0.0
O1466 O 0.31244 0.07906 0.37086 0.0
H1467 H 0.36759 0.14173 0.38836 0.0
H1468 H 0.31382 0.11418 0.33667 0.0
O1469 O 0.28655 0.12012 0.38747 0.0
C1470 C 0.33116 0.06692 0.36162 0.0
O1471 O 0.35434 0.07432 0.36704 0.0
N1472 N 0.32762 0.12893 0.42021 0.0
C1473 C 0.34185 0.14671 0.46778 0.0
C1474 C 0.31973 0.15584 0.45617 0.0
C1475 C 0.31274 0.14649 0.43224 0.0
C1476 C 0.34996 0.12132 0.43065 0.0
C1477 C 0.35756 0.13012 0.45427 0.0
H1478 H 0.29438 0.1516 0.42492 0.0
H1479 H 0.36103 0.10677 0.4213 0.0
H1480 H 0.27611 0.10882 0.4368 0.0
H1481 H 0.30163 0.03614 0.45762 0.0
H1482 H 0.38183 0.15523 0.34247 0.0
H1483 H 0.30698 0.16836 0.46633 0.0
H1484 H 0.37479 0.12268 0.46266 0.0
C1485 C 0.31368 0.93612 0.07267 0.0
C1486 C 0.30087 0.94507 0.05176 0.0
N1487 N 0.28318 0.9278 0.04518 0.0
N1488 N 0.30402 0.91342 0.07934 0.0
C1489 C 0.28536 0.90892 0.06238 0.0
H1490 H 0.3297 0.94509 0.08184 0.0
Co1491 Co 0.3177 0.89251 0.10408 0.0
C1492 C 0.27624 0.85734 0.11936 0.0
O1493 O 0.2921 0.83841 0.12274 0.0
N1494 N 0.33238 0.87182 0.12939 0.0
C1495 C 0.36122 0.8504 0.1516 0.0
C1496 C 0.3536 0.85751 0.1277 0.0
C1497 C 0.32723 0.87256 0.15453 0.0
N1498 N 0.34473 0.86011 0.16847 0.0
O1499 O 0.31125 0.91861 0.12844 0.0
H1500 H 0.36407 0.85378 0.11052 0.0
H1501 H 0.31215 0.88388 0.16268 0.0
O1502 O 0.28429 0.8787 0.11118 0.0
C1503 C 0.33005 0.93036 0.13797 0.0
O1504 O 0.35316 0.92254 0.13287 0.0
N1505 N 0.32533 0.86886 0.0787 0.0
C1506 C 0.33929 0.8508 0.03113 0.0
C1507 C 0.31666 0.8426 0.04242 0.0
C1508 C 0.30981 0.85212 0.06632 0.0
C1509 C 0.34805 0.87564 0.06849 0.0
C1510 C 0.35551 0.86669 0.04487 0.0
H1511 H 0.29114 0.84779 0.07337 0.0
H1512 H 0.35963 0.88965 0.07806 0.0
H1513 H 0.27402 0.89181 0.06226 0.0
H1514 H 0.30512 0.96234 0.04149 0.0
H1515 H 0.37835 0.84007 0.15629 0.0
H1516 H 0.30351 0.83069 0.03206 0.0
H1517 H 0.37311 0.87346 0.03668 0.0
C1518 C 0.6828 0.56797 0.06781 0.0
C1519 C 0.69582 0.55875 0.04719 0.0
N1520 N 0.71675 0.57304 0.04392 0.0
N1521 N 0.69551 0.58786 0.07763 0.0
C1522 C 0.71627 0.59037 0.06281 0.0
H1523 H 0.66458 0.56134 0.07452 0.0
Co1524 Co 0.68251 0.6082 0.10322 0.0
C1525 C 0.72453 0.63991 0.1221 0.0
O1526 O 0.70884 0.65922 0.12391 0.0
N1527 N 0.6683 0.6281 0.12946 0.0
C1528 C 0.64135 0.65029 0.15326 0.0
C1529 C 0.64838 0.64427 0.12887 0.0
C1530 C 0.67321 0.62504 0.15447 0.0
N1531 N 0.65692 0.63802 0.1693 0.0
O1532 O 0.68457 0.57979 0.1258 0.0
H1533 H 0.63841 0.65035 0.1121 0.0
H1534 H 0.68733 0.61202 0.16175 0.0
O1535 O 0.71663 0.61865 0.11337 0.0
C1536 C 0.66321 0.56938 0.13012 0.0
O1537 O 0.64272 0.57989 0.12052 0.0
N1538 N 0.67893 0.63452 0.07935 0.0
C1539 C 0.66944 0.65923 0.03363 0.0
C1540 C 0.69352 0.66037 0.04472 0.0
C1541 C 0.69791 0.64794 0.06775 0.0
C1542 C 0.65533 0.63373 0.06886 0.0
C1543 C 0.64998 0.64647 0.04636 0.0
H1544 H 0.71715 0.64722 0.07453 0.0
H1545 H 0.64097 0.62163 0.07717 0.0
H1546 H 0.73036 0.60507 0.06528 0.0
H1547 H 0.6896 0.54367 0.0347 0.0
H1548 H 0.62527 0.66183 0.15877 0.0
H1549 H 0.70916 0.66937 0.03487 0.0
H1550 H 0.63138 0.64448 0.03784 0.0
C1551 C 0.19047 0.93974 0.92943 0.0
C1552 C 0.20351 0.94777 0.95058 0.0
N1553 N 0.22106 0.93009 0.95639 0.0
N1554 N 0.19986 0.91721 0.92185 0.0
C1555 C 0.2186 0.91191 0.93849 0.0
H1556 H 0.17442 0.94915 0.92077 0.0
Co1557 Co 0.18565 0.89705 0.89679 0.0
C1558 C 0.22589 0.86085 0.88115 0.0
O1559 O 0.2093 0.84246 0.87824 0.0
N1560 N 0.17055 0.87704 0.87115 0.0
C1561 C 0.14196 0.85559 0.84867 0.0
C1562 C 0.14955 0.86239 0.87266 0.0
C1563 C 0.17562 0.87828 0.846 0.0
N1564 N 0.15825 0.86584 0.83191 0.0
O1565 O 0.19227 0.92357 0.87283 0.0
H1566 H 0.13928 0.85806 0.88981 0.0
H1567 H 0.19059 0.88983 0.838 0.0
O1568 O 0.21874 0.88257 0.88924 0.0
C1569 C 0.17309 0.93542 0.86415 0.0
O1570 O 0.15021 0.9276 0.87021 0.0
N1571 N 0.17763 0.87311 0.92182 0.0
C1572 C 0.16275 0.8545 0.96893 0.0
C1573 C 0.18552 0.84631 0.95789 0.0
C1574 C 0.19284 0.85611 0.93424 0.0
C1575 C 0.15483 0.87997 0.9318 0.0
C1576 C 0.1469 0.87073 0.95516 0.0
H1577 H 0.21161 0.85177 0.92746 0.0
H1578 H 0.14351 0.89419 0.92224 0.0
H1579 H 0.22974 0.89468 0.93792 0.0
H1580 H 0.19945 0.96464 0.96157 0.0
H1581 H 0.12501 0.84503 0.84387 0.0
H1582 H 0.19842 0.83417 0.96831 0.0
H1583 H 0.12921 0.87752 0.96314 0.0
C1584 C 0.13346 0.29301 0.36905 0.0
C1585 C 0.13586 0.30338 0.34461 0.0
H1586 H 0.12679 0.2598 0.39142 0.0
C1587 C 0.1339 0.28724 0.3235 0.0
H1588 H 0.13442 0.30504 0.38566 0.0
C1589 C 0.12965 0.26121 0.32678 0.0
C1590 C 0.1268 0.25094 0.35124 0.0
H1591 H 0.13566 0.2948 0.30449 0.0
H1592 H 0.12819 0.24922 0.31015 0.0
C1593 C 0.12881 0.26712 0.37232 0.0
C1594 C 0.87805 0.20552 0.36471 0.0
C1595 C 0.86158 0.19854 0.34491 0.0
H1596 H 0.89579 0.23597 0.38514 0.0
C1597 C 0.84936 0.21772 0.33101 0.0
H1598 H 0.88759 0.19114 0.37584 0.0
C1599 C 0.85416 0.24327 0.33617 0.0
C1600 C 0.8711 0.25028 0.35552 0.0
H1601 H 0.83682 0.21302 0.31545 0.0
H1602 H 0.84485 0.25755 0.32468 0.0
C1603 C 0.88264 0.23116 0.3701 0.0
C1604 C 0.13437 0.7123 0.17097 0.0
C1605 C 0.13383 0.69598 0.14993 0.0
H1606 H 0.13168 0.75049 0.18444 0.0
C1607 C 0.1306 0.70637 0.12559 0.0
H1608 H 0.13693 0.70474 0.18989 0.0
C1609 C 0.12729 0.73252 0.12242 0.0
C1610 C 0.1275 0.74882 0.14351 0.0
H1611 H 0.12978 0.69419 0.10907 0.0
H1612 H 0.12433 0.73992 0.10348 0.0
C1613 C 0.13144 0.73846 0.16778 0.0
C1614 C 0.87135 0.76875 0.12387 0.0
C1615 C 0.87104 0.7528 0.14522 0.0
H1616 H 0.86889 0.80681 0.10985 0.0
C1617 C 0.86693 0.76359 0.16929 0.0
H1618 H 0.87446 0.76104 0.10508 0.0
C1619 C 0.86393 0.78983 0.17202 0.0
C1620 C 0.86455 0.80579 0.15072 0.0
H1621 H 0.86662 0.75185 0.18615 0.0
H1622 H 0.86124 0.7977 0.1908 0.0
C1623 C 0.86797 0.79495 0.12658 0.0
C1624 C 0.33096 0.13203 0.26158 0.0
C1625 C 0.35495 0.12781 0.25067 0.0
H1626 H 0.30979 0.13819 0.29578 0.0
C1627 C 0.37647 0.12791 0.26637 0.0
H1628 H 0.31399 0.13206 0.25001 0.0
C1629 C 0.37403 0.13172 0.29248 0.0
C1630 C 0.34998 0.13519 0.30348 0.0
H1631 H 0.39521 0.12476 0.25853 0.0
H1632 H 0.39089 0.13104 0.30418 0.0
C1633 C 0.3285 0.13548 0.28776 0.0
C1634 C 0.65718 0.34967 0.26071 0.0
C1635 C 0.64576 0.37225 0.25224 0.0
H1636 H 0.67028 0.32825 0.29287 0.0
C1637 C 0.63923 0.39104 0.26994 0.0
H1638 H 0.66223 0.33486 0.24738 0.0
C1639 C 0.6445 0.3875 0.29567 0.0
C1640 C 0.6556 0.36482 0.30414 0.0
H1641 H 0.63048 0.40862 0.26383 0.0
H1642 H 0.63961 0.40229 0.30908 0.0
C1643 C 0.66168 0.34582 0.28657 0.0
C1644 C 0.37553 0.8687 0.23202 0.0
C1645 C 0.35436 0.86951 0.24819 0.0
H1646 H 0.38903 0.8648 0.19393 0.0
C1647 C 0.33004 0.86594 0.2378 0.0
H1648 H 0.39451 0.87135 0.23944 0.0
C1649 C 0.32691 0.86237 0.2117 0.0
C1650 C 0.34804 0.86185 0.19552 0.0
H1651 H 0.31332 0.8665 0.24974 0.0
H1652 H 0.30795 0.86016 0.20409 0.0
C1653 C 0.37241 0.86473 0.20599 0.0
C1654 C 0.62628 0.62884 0.23273 0.0
C1655 C 0.64749 0.62606 0.24862 0.0
H1656 H 0.61273 0.63515 0.195 0.0
C1657 C 0.67192 0.62816 0.23811 0.0
H1658 H 0.60722 0.62743 0.24029 0.0
C1659 C 0.67503 0.63239 0.2121 0.0
C1660 C 0.65381 0.63511 0.19625 0.0
H1661 H 0.68863 0.62609 0.24989 0.0
H1662 H 0.69401 0.63356 0.20433 0.0
C1663 C 0.62941 0.63352 0.20685 0.0
C1664 C 0.26132 0.3313 0.1297 0.0
C1665 C 0.25128 0.35595 0.12753 0.0
H1666 H 0.29448 0.3085 0.1358 0.0
C1667 C 0.26745 0.37686 0.13095 0.0
H1668 H 0.24936 0.31478 0.12712 0.0
C1669 C 0.29317 0.37318 0.13629 0.0
C1670 C 0.30329 0.34853 0.1379 0.0
H1671 H 0.26025 0.39606 0.12943 0.0
H1672 H 0.30531 0.38961 0.13839 0.0
C1673 C 0.28711 0.32765 0.1346 0.0
C1674 C 0.26487 0.66775 0.37018 0.0
C1675 C 0.25435 0.64339 0.37319 0.0
H1676 H 0.2985 0.68976 0.36395 0.0
C1677 C 0.27027 0.6221 0.37118 0.0
H1678 H 0.25315 0.68457 0.37165 0.0
C1679 C 0.2962 0.62516 0.36641 0.0
C1680 C 0.30674 0.64956 0.36397 0.0
H1681 H 0.26271 0.6031 0.37337 0.0
H1682 H 0.30815 0.60847 0.36541 0.0
C1683 C 0.29082 0.67079 0.36583 0.0
C1684 C 0.73131 0.87894 0.37305 0.0
C1685 C 0.74804 0.85823 0.37445 0.0
H1686 H 0.693 0.89141 0.36823 0.0
C1687 C 0.73834 0.83354 0.37141 0.0
H1688 H 0.73818 0.8982 0.37525 0.0
C1689 C 0.71234 0.82967 0.36752 0.0
C1690 C 0.69566 0.85041 0.36614 0.0
H1691 H 0.75075 0.81719 0.37242 0.0
H1692 H 0.70524 0.81048 0.36556 0.0
C1693 C 0.70545 0.87508 0.36877 0.0
C1694 C 0.20864 0.62672 0.63158 0.0
C1695 C 0.19843 0.65123 0.63415 0.0
H1696 H 0.24174 0.60415 0.62507 0.0
C1697 C 0.21475 0.67225 0.63268 0.0
H1698 H 0.19647 0.61018 0.6322 0.0
C1699 C 0.2408 0.66881 0.62875 0.0
C1700 C 0.25091 0.64429 0.62574 0.0
H1701 H 0.20732 0.69132 0.6346 0.0
H1702 H 0.25293 0.68537 0.62765 0.0
C1703 C 0.23454 0.6233 0.62725 0.0
C1704 C 0.84954 0.7422 0.65146 0.0
C1705 C 0.87231 0.75085 0.64061 0.0
H1706 H 0.82818 0.70997 0.66448 0.0
C1707 C 0.8913 0.73322 0.63442 0.0
H1708 H 0.83464 0.75548 0.65639 0.0
C1709 C 0.88787 0.70745 0.63979 0.0
C1710 C 0.86512 0.69884 0.65067 0.0
H1711 H 0.90909 0.73946 0.62625 0.0
H1712 H 0.90292 0.69415 0.63542 0.0
C1713 C 0.84581 0.71632 0.65605 0.0
C1714 C 0.13032 0.75988 0.671 0.0
C1715 C 0.12734 0.74993 0.64643 0.0
H1716 H 0.13635 0.79319 0.69371 0.0
C1717 C 0.12917 0.76638 0.62555 0.0
H1718 H 0.12898 0.74767 0.68748 0.0
C1719 C 0.13376 0.79223 0.62914 0.0
C1720 C 0.13626 0.8023 0.6537 0.0
H1721 H 0.12704 0.75931 0.60637 0.0
H1722 H 0.13458 0.80448 0.61268 0.0
C1723 C 0.1345 0.78588 0.6746 0.0
C1724 C 0.85118 0.28297 0.82833 0.0
C1725 C 0.86244 0.30233 0.84279 0.0
H1726 H 0.84741 0.24305 0.82193 0.0
C1727 C 0.87834 0.2956 0.86312 0.0
H1728 H 0.83913 0.28752 0.81234 0.0
C1729 C 0.8831 0.27006 0.86868 0.0
C1730 C 0.8723 0.25073 0.85379 0.0
H1731 H 0.88716 0.31012 0.87467 0.0
H1732 H 0.8956 0.26549 0.88434 0.0
C1733 C 0.85615 0.25748 0.83368 0.0
C1734 C 0.1327 0.20822 0.87016 0.0
C1735 C 0.1338 0.19793 0.8456 0.0
H1736 H 0.12699 0.24139 0.89291 0.0
C1737 C 0.13037 0.21403 0.82466 0.0
H1738 H 0.1349 0.19616 0.88663 0.0
C1739 C 0.12606 0.24 0.82821 0.0
C1740 C 0.1246 0.25023 0.8528 0.0
H1741 H 0.13117 0.20651 0.80557 0.0
H1742 H 0.12354 0.25198 0.81171 0.0
C1743 C 0.12793 0.23406 0.87373 0.0
C1744 C 0.63974 0.89244 0.73117 0.0
C1745 C 0.64672 0.87386 0.74892 0.0
H1746 H 0.63952 0.90341 0.69194 0.0
C1747 C 0.6584 0.85141 0.74047 0.0
H1748 H 0.63077 0.90991 0.73726 0.0
C1749 C 0.66268 0.84744 0.71458 0.0
C1750 C 0.65612 0.86621 0.69695 0.0
H1751 H 0.66381 0.83676 0.75383 0.0
H1752 H 0.67146 0.82995 0.70831 0.0
C1753 C 0.64479 0.8888 0.70539 0.0
C1754 C 0.37489 0.63112 0.70621 0.0
C1755 C 0.35057 0.63396 0.69562 0.0
H1756 H 0.39685 0.6249 0.73981 0.0
C1757 C 0.32938 0.63374 0.71174 0.0
H1758 H 0.39155 0.63085 0.69422 0.0
C1759 C 0.3324 0.63051 0.7379 0.0
C1760 C 0.35668 0.62701 0.74841 0.0
H1761 H 0.31046 0.63595 0.70404 0.0
H1762 H 0.31565 0.63018 0.74979 0.0
C1763 C 0.3779 0.62751 0.7323 0.0
C1764 C 0.66267 0.15339 0.785 0.0
C1765 C 0.6559 0.13464 0.80257 0.0
H1766 H 0.66419 0.16402 0.74575 0.0
C1767 C 0.64469 0.11203 0.79406 0.0
H1768 H 0.67136 0.17089 0.79135 0.0
C1769 C 0.63993 0.10834 0.76825 0.0
C1770 C 0.64709 0.12691 0.75056 0.0
H1771 H 0.6393 0.09744 0.80749 0.0
H1772 H 0.63102 0.09086 0.7621 0.0
C1773 C 0.65868 0.14937 0.75908 0.0
C1774 C 0.375 0.3669 0.79531 0.0
C1775 C 0.35087 0.36298 0.806 0.0
H1776 H 0.39648 0.37431 0.76161 0.0
C1777 C 0.32959 0.36252 0.79003 0.0
H1778 H 0.39169 0.36773 0.80723 0.0
C1779 C 0.33231 0.36615 0.76392 0.0
C1780 C 0.35636 0.37071 0.75328 0.0
H1781 H 0.31082 0.35949 0.79781 0.0
H1782 H 0.31546 0.36589 0.75217 0.0
C1783 C 0.3777 0.37089 0.76923 0.0
C1784 C 0.73366 0.62235 0.87425 0.0
C1785 C 0.75026 0.64313 0.87622 0.0
H1786 H 0.69554 0.60972 0.86843 0.0
C1787 C 0.74048 0.66779 0.8732 0.0
H1788 H 0.74058 0.60311 0.87642 0.0
C1789 C 0.71454 0.67157 0.86877 0.0
C1790 C 0.698 0.65076 0.86679 0.0
H1791 H 0.75277 0.6842 0.87464 0.0
H1792 H 0.70739 0.69073 0.86683 0.0
C1793 C 0.70788 0.62611 0.86942 0.0
C1794 C 0.73967 0.33315 0.62837 0.0
C1795 C 0.74964 0.35776 0.62553 0.0
H1796 H 0.70635 0.31041 0.63424 0.0
C1797 C 0.73315 0.37864 0.62727 0.0
H1798 H 0.75189 0.31667 0.62707 0.0
C1799 C 0.70729 0.37503 0.63174 0.0
C1800 C 0.69723 0.35045 0.6342 0.0
H1801 H 0.74023 0.39784 0.62522 0.0
H1802 H 0.69503 0.39149 0.6326 0.0
C1803 C 0.71366 0.32953 0.63242 0.0
C1804 C 0.28948 0.16916 0.63057 0.0
C1805 C 0.30519 0.14784 0.6332 0.0
H1806 H 0.25192 0.18309 0.62431 0.0
C1807 C 0.29443 0.12348 0.6316 0.0
H1808 H 0.29734 0.18811 0.63183 0.0
C1809 C 0.26847 0.12051 0.62693 0.0
C1810 C 0.25275 0.14187 0.62423 0.0
H1811 H 0.30623 0.10674 0.63328 0.0
H1812 H 0.26072 0.10152 0.62542 0.0
C1813 C 0.2635 0.16622 0.62635 0.0
C1814 C 0.76519 0.33311 0.3731 0.0
C1815 C 0.7547 0.35753 0.37564 0.0
H1816 H 0.79877 0.31093 0.36725 0.0
C1817 C 0.77067 0.37876 0.37336 0.0
H1818 H 0.75344 0.31633 0.37479 0.0
C1819 C 0.79662 0.37558 0.36871 0.0
C1820 C 0.80712 0.35112 0.36666 0.0
H1821 H 0.76314 0.3978 0.37519 0.0
H1822 H 0.80859 0.39222 0.36743 0.0
C1823 C 0.79114 0.32995 0.36886 0.0
C1824 C 0.62702 0.76698 0.87589 0.0
C1825 C 0.62618 0.75066 0.85482 0.0
H1826 H 0.63088 0.80515 0.88918 0.0
C1827 C 0.62929 0.76094 0.8304 0.0
H1828 H 0.62475 0.75964 0.89495 0.0
C1829 C 0.63263 0.78709 0.82712 0.0
C1830 C 0.63339 0.80337 0.8482 0.0
H1831 H 0.6287 0.74886 0.81379 0.0
H1832 H 0.63465 0.79463 0.80813 0.0
C1833 C 0.63077 0.79302 0.87262 0.0
C1834 C 0.36652 0.70492 0.87335 0.0
C1835 C 0.36464 0.69438 0.84892 0.0
H1836 H 0.37257 0.73845 0.89557 0.0
C1837 C 0.36652 0.71042 0.82776 0.0
H1838 H 0.36548 0.69292 0.88998 0.0
C1839 C 0.37032 0.73648 0.83093 0.0
C1840 C 0.3728 0.74696 0.85535 0.0
H1841 H 0.36506 0.70273 0.80877 0.0
H1842 H 0.37186 0.74832 0.81421 0.0
C1843 C 0.37077 0.73092 0.87653 0.0
C1844 C 0.6312 0.20836 0.62766 0.0
C1845 C 0.63402 0.19782 0.65197 0.0
H1846 H 0.62492 0.24188 0.60564 0.0
C1847 C 0.63348 0.21394 0.67318 0.0
H1848 H 0.63116 0.19634 0.611 0.0
C1849 C 0.63009 0.24011 0.67013 0.0
C1850 C 0.6267 0.25055 0.64583 0.0
H1851 H 0.63567 0.20626 0.6921 0.0
H1852 H 0.62962 0.25207 0.68684 0.0
C1853 C 0.6274 0.23441 0.62463 0.0
C1854 C 0.38962 0.26674 0.63654 0.0
C1855 C 0.37049 0.24927 0.64275 0.0
H1856 H 0.40132 0.30578 0.63703 0.0
C1857 C 0.34761 0.25813 0.65317 0.0
H1858 H 0.40749 0.26034 0.62868 0.0
C1859 C 0.34389 0.2841 0.65729 0.0
C1860 C 0.36332 0.30141 0.65185 0.0
H1861 H 0.33259 0.24497 0.65808 0.0
H1862 H 0.32616 0.29065 0.66535 0.0
C1863 C 0.38619 0.29259 0.64144 0.0
C1864 C 0.87809 0.62871 0.77082 0.0
C1865 C 0.85692 0.62946 0.75465 0.0
H1866 H 0.89163 0.62996 0.80908 0.0
C1867 C 0.83269 0.63307 0.76526 0.0
H1868 H 0.89699 0.62594 0.76324 0.0
C1869 C 0.82963 0.63517 0.79151 0.0
C1870 C 0.85075 0.63412 0.80767 0.0
H1871 H 0.81596 0.63369 0.75335 0.0
H1872 H 0.81074 0.6375 0.79924 0.0
C1873 C 0.87504 0.63119 0.79705 0.0
C1874 C 0.17577 0.86925 0.78854 0.0
C1875 C 0.15477 0.86797 0.8049 0.0
H1876 H 0.18884 0.87373 0.75029 0.0
C1877 C 0.13027 0.87029 0.79468 0.0
H1878 H 0.19483 0.86752 0.79598 0.0
C1879 C 0.12681 0.87419 0.76872 0.0
C1880 C 0.14777 0.87554 0.75232 0.0
H1881 H 0.11374 0.86983 0.80686 0.0
H1882 H 0.10766 0.87618 0.76152 0.0
C1883 C 0.1723 0.87277 0.76245 0.0
C1884 C 0.86442 0.38994 0.72983 0.0
C1885 C 0.87536 0.36872 0.74172 0.0
H1886 H 0.84764 0.40514 0.69618 0.0
C1887 C 0.87697 0.34576 0.7282 0.0
H1888 H 0.86299 0.40796 0.73959 0.0
C1889 C 0.86808 0.34415 0.70329 0.0
C1890 C 0.85725 0.36539 0.69139 0.0
H1891 H 0.88517 0.329 0.73682 0.0
H1892 H 0.86966 0.32627 0.69329 0.0
C1893 C 0.85539 0.38828 0.70498 0.0
C1894 C 0.13592 0.1102 0.72795 0.0
C1895 C 0.14258 0.12948 0.74508 0.0
H1896 H 0.1359 0.09795 0.6891 0.0
C1897 C 0.15329 0.15209 0.73583 0.0
H1898 H 0.12781 0.09255 0.73467 0.0
C1899 C 0.15724 0.15539 0.70981 0.0
C1900 C 0.15134 0.13581 0.69282 0.0
H1901 H 0.15853 0.16722 0.74872 0.0
H1902 H 0.16554 0.1729 0.70296 0.0
C1903 C 0.14066 0.1132 0.70204 0.0
C1904 C 0.7656 0.83446 0.62667 0.0
C1905 C 0.75487 0.85883 0.62478 0.0
H1906 H 0.79949 0.81249 0.63133 0.0
C1907 C 0.7707 0.88016 0.62701 0.0
H1908 H 0.75394 0.81761 0.62498 0.0
C1909 C 0.79678 0.87713 0.631 0.0
C1910 C 0.8075 0.85273 0.63238 0.0
H1911 H 0.76296 0.89916 0.62566 0.0
H1912 H 0.80866 0.89383 0.63233 0.0
C1913 C 0.79167 0.83146 0.63021 0.0
C1914 C 0.79056 0.17022 0.86616 0.0
C1915 C 0.80692 0.14924 0.86702 0.0
H1916 H 0.75243 0.18368 0.86878 0.0
C1917 C 0.79663 0.12492 0.87092 0.0
H1918 H 0.79802 0.18912 0.86308 0.0
C1919 C 0.77052 0.12174 0.87448 0.0
C1920 C 0.75418 0.1428 0.87388 0.0
H1921 H 0.80886 0.10845 0.87201 0.0
H1922 H 0.76317 0.10284 0.8779 0.0
C1923 C 0.76446 0.16703 0.86937 0.0
C1924 C 0.24079 0.32896 0.87235 0.0
C1925 C 0.25114 0.35344 0.87493 0.0
H1926 H 0.2072 0.30671 0.86615 0.0
C1927 C 0.23512 0.37458 0.87225 0.0
H1928 H 0.25265 0.31229 0.87434 0.0
C1929 C 0.20932 0.37135 0.86719 0.0
C1930 C 0.19886 0.3469 0.86505 0.0
H1931 H 0.2425 0.39368 0.87406 0.0
H1932 H 0.19741 0.38801 0.86568 0.0
C1933 C 0.21483 0.32573 0.8677 0.0
C1934 C 0.73104 0.1241 0.12831 0.0
C1935 C 0.74699 0.14546 0.12797 0.0
H1936 H 0.69302 0.11016 0.13127 0.0
C1937 C 0.73623 0.16968 0.13128 0.0
H1938 H 0.73873 0.1052 0.12581 0.0
C1939 C 0.71001 0.17251 0.13421 0.0
C1940 C 0.69406 0.15118 0.13433 0.0
H1941 H 0.74799 0.18654 0.13105 0.0
H1942 H 0.70214 0.19138 0.13631 0.0
C1943 C 0.70488 0.12692 0.13163 0.0
C1944 C 0.36829 0.23242 0.12452 0.0
C1945 C 0.37082 0.24801 0.14599 0.0
H1946 H 0.36228 0.19476 0.11039 0.0
C1947 C 0.36854 0.23708 0.17022 0.0
H1948 H 0.36992 0.2403 0.10561 0.0
C1949 C 0.36443 0.21101 0.17292 0.0
C1950 C 0.36203 0.19542 0.15148 0.0
H1951 H 0.37045 0.24857 0.18715 0.0
H1952 H 0.36312 0.20297 0.19178 0.0
C1953 C 0.36373 0.20642 0.12724 0.0
C1954 C 0.6241 0.26695 0.12379 0.0
C1955 C 0.62311 0.25037 0.14466 0.0
H1956 H 0.62838 0.30523 0.11095 0.0
C1957 C 0.62635 0.26033 0.16919 0.0
H1958 H 0.62173 0.25988 0.10464 0.0
C1959 C 0.63001 0.28641 0.17278 0.0
C1960 C 0.63094 0.30295 0.1519 0.0
H1961 H 0.62567 0.24806 0.18565 0.0
H1962 H 0.63216 0.29369 0.19187 0.0
C1963 C 0.62814 0.29291 0.12737 0.0
C1964 C 0.37098 0.76031 0.33061 0.0
C1965 C 0.37326 0.7499 0.35507 0.0
H1966 H 0.36534 0.79391 0.30831 0.0
C1967 C 0.37052 0.76592 0.37619 0.0
H1968 H 0.37306 0.74849 0.31393 0.0
C1969 C 0.36574 0.79183 0.37291 0.0
C1970 C 0.36402 0.80231 0.34844 0.0
H1971 H 0.37214 0.75847 0.39527 0.0
H1972 H 0.36413 0.80381 0.38951 0.0
C1973 C 0.36665 0.78629 0.32734 0.0
C1974 C 0.62947 0.7403 0.32985 0.0
C1975 C 0.62637 0.75023 0.35442 0.0
H1976 H 0.63609 0.70709 0.30716 0.0
C1977 C 0.62856 0.73384 0.37531 0.0
H1978 H 0.62786 0.75246 0.31336 0.0
C1979 C 0.63365 0.70807 0.37173 0.0
C1980 C 0.6363 0.69803 0.34718 0.0
H1981 H 0.62635 0.7409 0.39448 0.0
H1982 H 0.63476 0.69585 0.3882 0.0
C1983 C 0.63414 0.71439 0.32626 0.0
C1984 C 0.174 0.3694 0.2109 0.0
C1985 C 0.15287 0.36638 0.19496 0.0
H1986 H 0.18737 0.37624 0.24868 0.0
C1987 C 0.12842 0.36813 0.20541 0.0
H1988 H 0.19303 0.36812 0.20327 0.0
C1989 C 0.12513 0.37316 0.2312 0.0
C1990 C 0.14624 0.37616 0.24719 0.0
H1991 H 0.1118 0.36629 0.19349 0.0
H1992 H 0.10602 0.37462 0.23862 0.0
C1993 C 0.17073 0.374 0.23684 0.0
C1994 C 0.86612 0.1142 0.22942 0.0
C1995 C 0.87527 0.13544 0.2427 0.0
H1996 H 0.85041 0.09993 0.19488 0.0
C1997 C 0.8747 0.15932 0.23083 0.0
H1998 H 0.86637 0.09551 0.23795 0.0
C1999 C 0.86531 0.1619 0.20619 0.0
C2000 C 0.85628 0.14067 0.19283 0.0
H2001 H 0.88142 0.17612 0.24059 0.0
H2002 H 0.86505 0.18056 0.19761 0.0
C2003 C 0.85673 0.11678 0.20477 0.0
C2004 C 0.13917 0.60875 0.26874 0.0
C2005 C 0.1459 0.62744 0.251 0.0
H2006 H 0.13915 0.59768 0.30794 0.0
C2007 C 0.15736 0.65 0.25948 0.0
H2008 H 0.13038 0.59119 0.26263 0.0
C2009 C 0.16164 0.65396 0.28537 0.0
C2010 C 0.15532 0.63508 0.30299 0.0
H2011 H 0.16257 0.66474 0.24614 0.0
H2012 H 0.17024 0.67154 0.29166 0.0
C2013 C 0.14423 0.61239 0.29451 0.0
C2014 C 0.82612 0.87012 0.28683 0.0
C2015 C 0.84708 0.86911 0.30325 0.0
H2016 H 0.81314 0.8741 0.24849 0.0
C2017 C 0.87161 0.87122 0.29304 0.0
H2018 H 0.80704 0.86852 0.29426 0.0
C2019 C 0.87513 0.87475 0.26705 0.0
C2020 C 0.8542 0.8759 0.25059 0.0
H2021 H 0.88811 0.87093 0.30526 0.0
H2022 H 0.89429 0.87667 0.25986 0.0
C2023 C 0.82965 0.87325 0.26069 0.0
C2024 C 0.21599 0.17387 0.36626 0.0
C2025 C 0.1997 0.15293 0.36367 0.0
H2026 H 0.25401 0.18676 0.37287 0.0
C2027 C 0.20978 0.12834 0.36593 0.0
H2028 H 0.20864 0.19299 0.36462 0.0
C2029 C 0.23552 0.12474 0.37102 0.0
C2030 C 0.25186 0.14565 0.37362 0.0
H2031 H 0.19762 0.11185 0.36447 0.0
H2032 H 0.24261 0.10553 0.3729 0.0
C2033 C 0.24189 0.17027 0.37095 0.0
C2034 C 0.23825 0.82946 0.12622 0.0
C2035 C 0.24887 0.85388 0.12448 0.0
H2036 H 0.20443 0.8074 0.1317 0.0
C2037 C 0.23307 0.87511 0.12777 0.0
H2038 H 0.24994 0.81273 0.12375 0.0
C2039 C 0.20723 0.87201 0.13272 0.0
C2040 C 0.19653 0.84762 0.13407 0.0
H2041 H 0.24069 0.89418 0.12662 0.0
H2042 H 0.19547 0.88872 0.13484 0.0
C2043 C 0.21226 0.82637 0.13072 0.0
C2044 C 0.76175 0.66833 0.12983 0.0
C2045 C 0.75171 0.64366 0.12792 0.0
H2046 H 0.79494 0.6912 0.13549 0.0
C2047 C 0.76793 0.62279 0.13129 0.0
H2048 H 0.74976 0.68482 0.12729 0.0
C2049 C 0.79371 0.62652 0.13635 0.0
C2050 C 0.80382 0.65119 0.13772 0.0
H2051 H 0.76074 0.60357 0.12997 0.0
H2052 H 0.80589 0.61011 0.13844 0.0
C2053 C 0.78759 0.67203 0.13446 0.0
C2054 C 0.28839 0.82715 0.8694 0.0
C2055 C 0.3049 0.84768 0.8654 0.0
H2056 H 0.25032 0.81518 0.87721 0.0
C2057 C 0.29521 0.87251 0.86649 0.0
H2058 H 0.29544 0.80786 0.86865 0.0
C2059 C 0.26959 0.87675 0.87179 0.0
C2060 C 0.25302 0.85624 0.8757 0.0
H2061 H 0.30759 0.88869 0.86388 0.0
H2062 H 0.26276 0.89613 0.87271 0.0
C2063 C 0.26262 0.83137 0.87424 0.0
C2064 C 0.01228 0.23961 0.39957 0.0
C2065 C 0.02378 0.2324 0.42254 0.0
H2066 H 0.98264 0.26086 0.38158 0.0
C2067 C 0.01333 0.24108 0.44546 0.0
H2068 H 0.01969 0.23293 0.38163 0.0
C2069 C 0.9921 0.25697 0.44543 0.0
C2070 C 0.98065 0.26427 0.4225 0.0
H2071 H 0.02184 0.23592 0.46342 0.0
H2072 H 0.98457 0.26354 0.46337 0.0
C2073 C 0.99085 0.25529 0.39956 0.0
C2074 C 0.98875 0.74304 0.10209 0.0
C2075 C 0.9777 0.73484 0.07926 0.0
H2076 H 0.01811 0.76509 0.11962 0.0
C2077 C 0.98814 0.74299 0.05615 0.0
H2078 H 0.98125 0.73676 0.12015 0.0
C2079 C 0.0091 0.75925 0.05585 0.0
C2080 C 0.02033 0.76723 0.07865 0.0
H2081 H 0.97992 0.73694 0.03833 0.0
H2082 H 0.01674 0.7654 0.03781 0.0
C2083 C 0.01 0.75893 0.10178 0.0
C2084 C 0.39718 0.00929 0.24087 0.0
C2085 C 0.4201 0.01999 0.23244 0.0
H2086 H 0.3794 0.98014 0.26303 0.0
C2087 C 0.44312 0.00906 0.24021 0.0
H2088 H 0.37917 0.01715 0.23489 0.0
C2089 C 0.44325 0.98801 0.25635 0.0
C2090 C 0.42036 0.97716 0.26462 0.0
H2091 H 0.46101 0.01699 0.23398 0.0
H2092 H 0.46124 0.98002 0.26221 0.0
C2093 C 0.3973 0.98794 0.25665 0.0
C2094 C 0.59839 0.51146 0.25902 0.0
C2095 C 0.57568 0.52228 0.26796 0.0
H2096 H 0.61573 0.48188 0.23718 0.0
C2097 C 0.55256 0.5107 0.26147 0.0
H2098 H 0.61656 0.51968 0.26393 0.0
C2099 C 0.55211 0.48889 0.2464 0.0
C2100 C 0.57477 0.47802 0.23748 0.0
H2101 H 0.53474 0.51862 0.26789 0.0
H2102 H 0.53396 0.4804 0.2419 0.0
C2103 C 0.59795 0.48955 0.24399 0.0
C2104 C 0.26085 0.40301 0.98997 0.0
C2105 C 0.26663 0.42599 0.9777 0.0
H2106 H 0.24081 0.38473 0.02022 0.0
C2107 C 0.25664 0.44871 0.98744 0.0
H2108 H 0.26857 0.38524 0.98314 0.0
C2109 C 0.24087 0.44843 0.00875 0.0
C2110 C 0.235 0.42546 0.02095 0.0
H2111 H 0.26071 0.46666 0.97833 0.0
H2112 H 0.23328 0.46619 0.01574 0.0
C2113 C 0.24528 0.40276 0.01144 0.0
C2114 C 0.24616 0.59802 0.48854 0.0
C2115 C 0.23403 0.57599 0.47969 0.0
H2116 H 0.271 0.61429 0.51631 0.0
C2117 C 0.23834 0.55288 0.49225 0.0
H2118 H 0.24291 0.61614 0.47941 0.0
C2119 C 0.2544 0.5518 0.51332 0.0
C2120 C 0.26611 0.57391 0.52251 0.0
H2121 H 0.22926 0.53564 0.48574 0.0
H2122 H 0.25727 0.53379 0.52277 0.0
C2123 C 0.26192 0.59702 0.50985 0.0
C2124 C 0.75209 0.95159 0.48616 0.0
C2125 C 0.7639 0.92961 0.47679 0.0
H2126 H 0.7271 0.96744 0.51407 0.0
C2127 C 0.7601 0.90644 0.48946 0.0
H2128 H 0.75467 0.96964 0.47671 0.0
C2129 C 0.74459 0.90523 0.51092 0.0
C2130 C 0.73234 0.92711 0.51996 0.0
H2131 H 0.76926 0.88927 0.48286 0.0
H2132 H 0.74162 0.88705 0.52003 0.0
C2133 C 0.73628 0.95031 0.50741 0.0
C2134 C 0.99167 0.75731 0.59867 0.0
C2135 C 0.98155 0.76674 0.57588 0.0
H2136 H 0.02018 0.73425 0.61622 0.0
C2137 C 0.99281 0.75955 0.55282 0.0
H2138 H 0.98359 0.76277 0.61674 0.0
C2139 C 0.01379 0.74334 0.55252 0.0
C2140 C 0.02416 0.73418 0.57528 0.0
H2141 H 0.98532 0.76641 0.53498 0.0
H2142 H 0.02216 0.73828 0.53446 0.0
C2143 C 0.01284 0.74129 0.59838 0.0
C2144 C 0.98994 0.24553 0.9029 0.0
C2145 C 0.97819 0.23921 0.92601 0.0
H2146 H 0.02008 0.26551 0.88441 0.0
C2147 C 0.98861 0.24862 0.94868 0.0
H2148 H 0.98262 0.23833 0.88512 0.0
C2149 C 0.01023 0.26396 0.94829 0.0
C2150 C 0.02207 0.27019 0.92524 0.0
H2151 H 0.97993 0.24426 0.96676 0.0
H2152 H 0.01784 0.27075 0.96611 0.0
C2153 C 0.01166 0.2608 0.90253 0.0
C2154 C 0.55135 0.01154 0.74227 0.0
C2155 C 0.57429 0.0227 0.73448 0.0
H2156 H 0.53329 0.98157 0.76274 0.0
C2157 C 0.59725 0.01144 0.74214 0.0
H2158 H 0.53334 0.01979 0.73692 0.0
C2159 C 0.59722 0.98954 0.75719 0.0
C2160 C 0.57423 0.97843 0.76497 0.0
H2161 H 0.61527 0.0193 0.73624 0.0
H2162 H 0.61522 0.98157 0.763 0.0
C2163 C 0.55132 0.98971 0.7573 0.0
C2164 C 0.39994 0.50934 0.758 0.0
C2165 C 0.42311 0.52055 0.76495 0.0
H2166 H 0.38143 0.47979 0.73702 0.0
C2167 C 0.44583 0.5101 0.75578 0.0
H2168 H 0.38218 0.51683 0.7651 0.0
C2169 C 0.4454 0.48903 0.73966 0.0
C2170 C 0.42226 0.4777 0.73287 0.0
H2171 H 0.4639 0.51844 0.76088 0.0
H2172 H 0.46314 0.48141 0.73266 0.0
C2173 C 0.39953 0.48798 0.74226 0.0
C2174 C 0.7598 0.59368 0.99116 0.0
C2175 C 0.76483 0.57049 0.97894 0.0
H2176 H 0.74061 0.61266 0.02151 0.0
C2177 C 0.75443 0.54809 0.98897 0.0
H2178 H 0.76786 0.61122 0.98413 0.0
C2179 C 0.73898 0.5489 0.0105 0.0
C2180 C 0.73381 0.57209 0.02261 0.0
H2181 H 0.75791 0.52998 0.97992 0.0
H2182 H 0.73106 0.53137 0.01771 0.0
C2183 C 0.74452 0.59446 0.01281 0.0
C2184 C 0.74478 0.40562 0.48918 0.0
C2185 C 0.73254 0.4275 0.48014 0.0
H2186 H 0.76936 0.38964 0.51726 0.0
C2187 C 0.73633 0.45067 0.4928 0.0
H2188 H 0.74194 0.38746 0.48 0.0
C2189 C 0.75198 0.45191 0.51417 0.0
C2190 C 0.7638 0.42994 0.52351 0.0
H2191 H 0.72716 0.4678 0.48614 0.0
H2192 H 0.75446 0.46995 0.5237 0.0
C2193 C 0.76016 0.40681 0.51072 0.0
C2194 C 0.25485 0.05064 0.48473 0.0
C2195 C 0.26625 0.07298 0.47571 0.0
H2196 H 0.22988 0.03391 0.51214 0.0
C2197 C 0.26159 0.09596 0.48846 0.0
H2198 H 0.25806 0.03271 0.47522 0.0
C2199 C 0.2457 0.0966 0.50967 0.0
C2200 C 0.23391 0.07432 0.51839 0.0
H2201 H 0.27041 0.11341 0.48214 0.0
H2202 H 0.24209 0.11463 0.51884 0.0
C2203 C 0.23869 0.05134 0.50574 0.0
C2204 C 0.48936 0.75425 0.90054 0.0
C2205 C 0.47941 0.76433 0.92313 0.0
H2206 H 0.51805 0.73109 0.8834 0.0
C2207 C 0.49108 0.75813 0.94627 0.0
H2208 H 0.48096 0.75896 0.88241 0.0
C2209 C 0.51231 0.74224 0.94684 0.0
C2210 C 0.52255 0.73251 0.92425 0.0
H2211 H 0.48373 0.76557 0.96394 0.0
H2212 H 0.52101 0.73792 0.96493 0.0
C2213 C 0.5108 0.73861 0.90108 0.0
C2214 C 0.49105 0.2409 0.55607 0.0
C2215 C 0.48013 0.2336 0.57926 0.0
H2216 H 0.51985 0.26262 0.53736 0.0
C2217 C 0.49029 0.2433 0.60192 0.0
H2218 H 0.48351 0.23383 0.53832 0.0
C2219 C 0.51121 0.25965 0.60137 0.0
C2220 C 0.52219 0.26685 0.57814 0.0
H2221 H 0.48243 0.23778 0.62007 0.0
H2222 H 0.51864 0.26687 0.6191 0.0
C2223 C 0.51174 0.25747 0.5555 0.0
C2224 C 0.89812 0.49255 0.76117 0.0
C2225 C 0.92087 0.48298 0.77123 0.0
H2226 H 0.88069 0.52042 0.73716 0.0
C2227 C 0.94393 0.49453 0.76458 0.0
H2228 H 0.88011 0.48406 0.76626 0.0
C2229 C 0.94428 0.51498 0.74766 0.0
C2230 C 0.92153 0.52466 0.73777 0.0
H2231 H 0.96164 0.48739 0.77214 0.0
H2232 H 0.96227 0.52341 0.7424 0.0
C2233 C 0.89843 0.51341 0.74481 0.0
C2234 C 0.05383 0.00961 0.75869 0.0
C2235 C 0.077 0.02108 0.76524 0.0
H2236 H 0.0352 0.97955 0.73867 0.0
C2237 C 0.09966 0.01056 0.75595 0.0
H2238 H 0.03607 0.01739 0.76545 0.0
C2239 C 0.09917 0.98884 0.74068 0.0
C2240 C 0.07598 0.97732 0.73421 0.0
H2241 H 0.11782 0.01878 0.76091 0.0
H2242 H 0.11693 0.98126 0.73371 0.0
C2243 C 0.05332 0.98805 0.74325 0.0
C2244 C 0.75478 0.05447 0.01342 0.0
C2245 C 0.76411 0.07736 0.02337 0.0
H2246 H 0.73155 0.03675 0.98507 0.0
C2247 C 0.75738 0.10036 0.01167 0.0
H2248 H 0.75975 0.03655 0.02215 0.0
C2249 C 0.74171 0.10044 0.99031 0.0
C2250 C 0.73216 0.07756 0.98051 0.0
H2251 H 0.76462 0.11823 0.01879 0.0
H2252 H 0.73665 0.11841 0.98172 0.0
C2253 C 0.7387 0.05459 0.99233 0.0
C2254 C 0.50965 0.24465 0.05237 0.0
C2255 C 0.52003 0.23428 0.07461 0.0
H2256 H 0.48094 0.26841 0.03613 0.0
C2257 C 0.50838 0.23964 0.098 0.0
H2258 H 0.51827 0.24089 0.03412 0.0
C2259 C 0.48695 0.25525 0.09914 0.0
C2260 C 0.47687 0.26601 0.07693 0.0
H2261 H 0.51571 0.23161 0.11542 0.0
H2262 H 0.47867 0.25942 0.11747 0.0
C2263 C 0.4884 0.26047 0.05354 0.0
C2264 C 0.51208 0.7562 0.44819 0.0
C2265 C 0.52235 0.76582 0.42557 0.0
H2266 H 0.48346 0.733 0.46537 0.0
C2267 C 0.51069 0.75956 0.40241 0.0
H2268 H 0.52073 0.76065 0.46628 0.0
C2269 C 0.4893 0.74387 0.4019 0.0
C2270 C 0.47926 0.73395 0.42453 0.0
H2271 H 0.51794 0.76699 0.38469 0.0
H2272 H 0.48098 0.73903 0.38377 0.0
C2273 C 0.49086 0.74031 0.44766 0.0
C2274 C 0.09587 0.51147 0.24299 0.0
C2275 C 0.07281 0.52338 0.23677 0.0
H2276 H 0.11424 0.48101 0.26255 0.0
C2277 C 0.05007 0.5128 0.24584 0.0
H2278 H 0.11371 0.51888 0.23607 0.0
C2279 C 0.05034 0.49086 0.26074 0.0
C2280 C 0.07336 0.4789 0.26692 0.0
H2281 H 0.03201 0.52158 0.24159 0.0
H2282 H 0.03247 0.48315 0.26725 0.0
C2283 C 0.09614 0.48948 0.25787 0.0
C2284 C 0.94735 0.98546 0.25039 0.0
C2285 C 0.92549 0.97737 0.23748 0.0
H2286 H 0.9634 0.0121 0.27666 0.0
C2287 C 0.90274 0.9909 0.24082 0.0
H2288 H 0.96507 0.97531 0.24819 0.0
C2289 C 0.90188 0.01208 0.25679 0.0
C2290 C 0.92365 0.01992 0.27001 0.0
H2291 H 0.88569 0.98525 0.23086 0.0
H2292 H 0.88404 0.02197 0.25925 0.0
C2293 C 0.94637 0.00638 0.2667 0.0
C2294 C 0.24477 0.95215 0.99034 0.0
C2295 C 0.23701 0.92948 0.97861 0.0
H2296 H 0.2653 0.96938 0.02084 0.0
C2297 C 0.24451 0.90622 0.98935 0.0
H2298 H 0.23944 0.97036 0.98248 0.0
C2299 C 0.2594 0.90566 0.01128 0.0
C2300 C 0.26721 0.92834 0.02297 0.0
H2301 H 0.23857 0.8884 0.98105 0.0
H2302 H 0.2651 0.88743 0.01882 0.0
C2303 C 0.25974 0.95158 0.01222 0.0
C2304 C 0.17016 0.15614 0.46039 0.0
C2305 C 0.15037 0.17263 0.45373 0.0
H2306 H 0.19264 0.14068 0.49048 0.0
C2307 C 0.13987 0.18869 0.47221 0.0
H2308 H 0.17841 0.14353 0.4464 0.0
C2309 C 0.14755 0.18662 0.49754 0.0
C2310 C 0.16635 0.16905 0.50443 0.0
H2311 H 0.12433 0.20129 0.46748 0.0
H2312 H 0.13791 0.1977 0.51191 0.0
C2313 C 0.17834 0.15461 0.48552 0.0
C2314 C 0.85759 0.32074 0.47048 0.0
C2315 C 0.86168 0.34137 0.45402 0.0
H2316 H 0.84665 0.30904 0.50808 0.0
C2317 C 0.85481 0.36586 0.46194 0.0
H2318 H 0.86268 0.30165 0.46479 0.0
C2319 C 0.84576 0.36997 0.48636 0.0
C2320 C 0.84336 0.34972 0.50345 0.0
H2321 H 0.85732 0.38209 0.44957 0.0
H2322 H 0.84154 0.38923 0.49227 0.0
C2323 C 0.84844 0.32491 0.49514 0.0
C2324 C 0.15242 0.87032 0.01196 0.0
C2325 C 0.15683 0.84956 0.99589 0.0
H2326 H 0.13997 0.88317 0.04818 0.0
C2327 C 0.15394 0.82484 0.00543 0.0
H2328 H 0.15498 0.88957 0.00515 0.0
C2329 C 0.14518 0.82107 0.03032 0.0
C2330 C 0.13939 0.84202 0.04587 0.0
H2331 H 0.15737 0.80857 0.99335 0.0
H2332 H 0.14199 0.80189 0.03698 0.0
C2333 C 0.14385 0.86661 0.03662 0.0
C2334 C 0.84714 0.67488 0.00749 0.0
C2335 C 0.84379 0.65003 0.99843 0.0
H2336 H 0.85885 0.69822 0.03885 0.0
C2337 C 0.84686 0.62956 0.01517 0.0
H2338 H 0.84475 0.69094 0.9949 0.0
C2339 C 0.85472 0.63362 0.04002 0.0
C2340 C 0.85976 0.65827 0.0488 0.0
H2341 H 0.84388 0.61024 0.00875 0.0
H2342 H 0.85768 0.61725 0.05211 0.0
C2343 C 0.85517 0.67899 0.03256 0.0
C2344 C 0.46744 0.14358 0.17963 0.0
C2345 C 0.45187 0.1393 0.15834 0.0
H2346 H 0.50472 0.15385 0.19291 0.0
C2347 C 0.46137 0.1448 0.13408 0.0
H2348 H 0.46058 0.13956 0.19857 0.0
C2349 C 0.48633 0.15279 0.13095 0.0
C2350 C 0.5024 0.15553 0.15197 0.0
H2351 H 0.4498 0.14208 0.11732 0.0
H2352 H 0.49336 0.15608 0.11191 0.0
C2353 C 0.49261 0.15172 0.17645 0.0
C2354 C 0.51056 0.3219 0.15937 0.0
C2355 C 0.49139 0.33368 0.1736 0.0
H2356 H 0.54966 0.32269 0.14827 0.0
C2357 C 0.49785 0.35268 0.19113 0.0
H2358 H 0.50587 0.3075 0.14545 0.0
C2359 C 0.523 0.36092 0.19319 0.0
C2360 C 0.54168 0.35076 0.17715 0.0
H2361 H 0.48322 0.36221 0.20198 0.0
H2362 H 0.52737 0.37671 0.20561 0.0
C2363 C 0.5355 0.33064 0.16088 0.0
C2364 C 0.4942 0.84658 0.32145 0.0
C2365 C 0.50408 0.84321 0.34595 0.0
H2366 H 0.46199 0.85813 0.29924 0.0
C2367 C 0.48802 0.8461 0.36697 0.0
H2368 H 0.50629 0.84434 0.30499 0.0
C2369 C 0.46298 0.85377 0.36378 0.0
C2370 C 0.45335 0.85882 0.33947 0.0
H2371 H 0.49514 0.84316 0.38603 0.0
H2372 H 0.45142 0.8566 0.38053 0.0
C2373 C 0.46893 0.85442 0.31821 0.0
C2374 C 0.52785 0.6396 0.31122 0.0
C2375 C 0.54618 0.64971 0.3277 0.0
H2376 H 0.48821 0.63779 0.3019 0.0
C2377 C 0.53939 0.66922 0.34449 0.0
H2378 H 0.53267 0.62429 0.29836 0.0
C2379 C 0.51425 0.67739 0.34596 0.0
C2380 C 0.4955 0.66569 0.33111 0.0
H2381 H 0.55327 0.67718 0.3574 0.0
H2382 H 0.50911 0.69136 0.36015 0.0
C2383 C 0.50252 0.64726 0.31322 0.0
C2384 C 0.13267 0.48822 0.15641 0.0
C2385 C 0.15301 0.50536 0.15749 0.0
H2386 H 0.12006 0.45106 0.14653 0.0
C2387 C 0.17759 0.49677 0.15182 0.0
H2388 H 0.1136 0.49434 0.16111 0.0
C2389 C 0.18137 0.47176 0.14339 0.0
C2390 C 0.16058 0.45521 0.1406 0.0
H2391 H 0.19354 0.50971 0.15261 0.0
H2392 H 0.20024 0.46585 0.1378 0.0
C2393 C 0.1364 0.46346 0.14806 0.0
C2394 C 0.13314 0.5104 0.35107 0.0
C2395 C 0.15419 0.4951 0.34548 0.0
H2396 H 0.11967 0.54616 0.36425 0.0
C2397 C 0.17865 0.50551 0.34715 0.0
H2398 H 0.11404 0.50293 0.34945 0.0
C2399 C 0.18197 0.53051 0.35579 0.0
C2400 C 0.16082 0.54534 0.36264 0.0
H2401 H 0.19513 0.49403 0.34278 0.0
H2402 H 0.20103 0.53788 0.35791 0.0
C2403 C 0.1364 0.53519 0.3595 0.0
C2404 C 0.84109 0.96841 0.32985 0.0
C2405 C 0.82446 0.96182 0.34954 0.0
H2406 H 0.85632 0.99828 0.30697 0.0
C2407 C 0.80788 0.98023 0.35937 0.0
H2408 H 0.85412 0.9545 0.32213 0.0
C2409 C 0.80955 0.00546 0.35114 0.0
C2410 C 0.82727 0.01232 0.33246 0.0
H2411 H 0.79514 0.97559 0.37482 0.0
H2412 H 0.79801 0.01981 0.36028 0.0
C2413 C 0.84224 0.99339 0.32113 0.0
C2414 C 0.31297 0.49786 0.64636 0.0
C2415 C 0.33054 0.4906 0.665 0.0
H2416 H 0.29881 0.52821 0.6232 0.0
C2417 C 0.34565 0.50917 0.67669 0.0
H2418 H 0.30141 0.48372 0.63693 0.0
C2419 C 0.3447 0.53432 0.66839 0.0
C2420 C 0.32814 0.54136 0.6488 0.0
H2421 H 0.35959 0.50388 0.69084 0.0
H2422 H 0.35779 0.54801 0.6764 0.0
C2423 C 0.31148 0.52322 0.63859 0.0
C2424 C 0.84923 0.82625 0.50303 0.0
C2425 C 0.8454 0.85099 0.49386 0.0
H2426 H 0.86217 0.80331 0.5342 0.0
C2427 C 0.84903 0.87165 0.51025 0.0
H2428 H 0.84642 0.81004 0.4907 0.0
C2429 C 0.85786 0.8679 0.53481 0.0
C2430 C 0.86332 0.84337 0.54365 0.0
H2431 H 0.84573 0.89089 0.50374 0.0
H2432 H 0.86118 0.88441 0.54661 0.0
C2433 C 0.8582 0.82244 0.52784 0.0
C2434 C 0.17804 0.65478 0.51124 0.0
C2435 C 0.1665 0.66985 0.49254 0.0
H2436 H 0.17753 0.64278 0.55008 0.0
C2437 C 0.14782 0.68747 0.49966 0.0
H2438 H 0.19222 0.64079 0.5061 0.0
C2439 C 0.13988 0.68904 0.52495 0.0
C2440 C 0.14998 0.67244 0.54318 0.0
H2441 H 0.13851 0.69905 0.48545 0.0
H2442 H 0.12448 0.70177 0.52981 0.0
C2443 C 0.16959 0.65582 0.53631 0.0
C2444 C 0.83282 0.15619 0.96311 0.0
C2445 C 0.8519 0.17377 0.95714 0.0
H2446 H 0.80995 0.13976 0.99242 0.0
C2447 C 0.86026 0.19091 0.97574 0.0
H2448 H 0.8262 0.14276 0.94901 0.0
C2449 C 0.8514 0.18881 0.00066 0.0
C2450 C 0.83352 0.1701 0.00694 0.0
H2451 H 0.87522 0.20438 0.97155 0.0
H2452 H 0.85967 0.20062 0.01531 0.0
C2453 C 0.82345 0.15458 0.98781 0.0
C2454 C 0.13895 0.31286 0.97384 0.0
C2455 C 0.14955 0.32872 0.95524 0.0
H2456 H 0.13698 0.30414 0.0136 0.0
C2457 C 0.16954 0.34503 0.96177 0.0
H2458 H 0.12326 0.3004 0.96923 0.0
C2459 C 0.17782 0.34662 0.98687 0.0
C2460 C 0.16573 0.3324 0.00586 0.0
H2461 H 0.17787 0.3575 0.94769 0.0
H2462 H 0.19225 0.36044 0.99175 0.0
C2463 C 0.14673 0.31499 0.99912 0.0
C2464 C 0.51209 0.82135 0.84184 0.0
C2465 C 0.49277 0.83327 0.82793 0.0
H2466 H 0.55129 0.82209 0.85261 0.0
C2467 C 0.49904 0.85252 0.81063 0.0
H2468 H 0.50756 0.80674 0.85559 0.0
C2469 C 0.52416 0.86085 0.80846 0.0
C2470 C 0.54301 0.85053 0.82418 0.0
H2471 H 0.4843 0.86216 0.80003 0.0
H2472 H 0.52838 0.87684 0.79623 0.0
C2473 C 0.537 0.83017 0.84023 0.0
C2474 C 0.49021 0.65369 0.8659 0.0
C2475 C 0.50612 0.65607 0.84472 0.0
H2476 H 0.45376 0.64327 0.87996 0.0
C2477 C 0.49614 0.65197 0.82038 0.0
H2478 H 0.49745 0.65716 0.88484 0.0
C2479 C 0.47091 0.64388 0.8175 0.0
C2480 C 0.45549 0.63993 0.83897 0.0
H2481 H 0.50814 0.65379 0.8038 0.0
H2482 H 0.4639 0.63957 0.79868 0.0
C2483 C 0.4652 0.64575 0.86307 0.0
C2484 C 0.53596 0.17084 0.66121 0.0
C2485 C 0.54293 0.15056 0.67696 0.0
H2486 H 0.50543 0.19322 0.64643 0.0
C2487 C 0.52475 0.13955 0.693 0.0
H2488 H 0.54972 0.17947 0.6486 0.0
C2489 C 0.49932 0.14698 0.69132 0.0
C2490 C 0.49208 0.16604 0.67418 0.0
H2491 H 0.52972 0.12363 0.70503 0.0
H2492 H 0.48511 0.13668 0.70202 0.0
C2493 C 0.51073 0.17877 0.66009 0.0
C2494 C 0.47046 0.35683 0.68427 0.0
C2495 C 0.45474 0.35843 0.66273 0.0
H2496 H 0.50809 0.34917 0.69831 0.0
C2497 C 0.46424 0.35052 0.63915 0.0
H2498 H 0.4636 0.36283 0.70268 0.0
C2499 C 0.48937 0.34277 0.63676 0.0
C2500 C 0.50554 0.34277 0.65787 0.0
H2501 H 0.45252 0.35119 0.62229 0.0
H2502 H 0.49651 0.33773 0.61815 0.0
C2503 C 0.49582 0.34905 0.68183 0.0
C2504 C 0.84332 0.50809 0.8231 0.0
C2505 C 0.82772 0.48951 0.83416 0.0
H2506 H 0.85628 0.54663 0.82445 0.0
C2507 C 0.81012 0.49673 0.85281 0.0
H2508 H 0.85733 0.50289 0.80898 0.0
C2509 C 0.8091 0.52193 0.86122 0.0
C2510 C 0.82624 0.53995 0.85162 0.0
H2511 H 0.79814 0.48263 0.86177 0.0
H2512 H 0.79638 0.52681 0.8766 0.0
C2513 C 0.84282 0.53303 0.83201 0.0
C2514 C 0.84515 0.46692 0.66826 0.0
C2515 C 0.82775 0.46028 0.64927 0.0
H2516 H 0.86093 0.49691 0.69073 0.0
C2517 C 0.8105 0.47853 0.64034 0.0
H2518 H 0.8587 0.45313 0.67526 0.0
C2519 C 0.81222 0.5037 0.64868 0.0
C2520 C 0.83062 0.51062 0.66662 0.0
H2521 H 0.79716 0.47384 0.62542 0.0
H2522 H 0.80019 0.518 0.64011 0.0
C2523 C 0.84634 0.49186 0.67714 0.0
C2524 C 0.13243 0.00921 0.64838 0.0
C2525 C 0.15365 0.99392 0.65341 0.0
H2526 H 0.11858 0.04485 0.63525 0.0
C2527 C 0.17805 0.00432 0.65094 0.0
H2528 H 0.1134 0.00176 0.65064 0.0
C2529 C 0.1811 0.02925 0.642 0.0
C2530 C 0.15975 0.044 0.6356 0.0
H2531 H 0.19466 0.99287 0.65485 0.0
H2532 H 0.20009 0.03659 0.6392 0.0
C2533 C 0.13544 0.03392 0.63961 0.0
C2534 C 0.63561 0.49056 0.34752 0.0
C2535 C 0.65693 0.50615 0.34428 0.0
H2536 H 0.6214 0.45443 0.35885 0.0
C2537 C 0.68125 0.49598 0.34798 0.0
H2538 H 0.61668 0.49796 0.34439 0.0
C2539 C 0.68404 0.47086 0.35641 0.0
C2540 C 0.6625 0.45575 0.36111 0.0
H2541 H 0.69791 0.50775 0.34548 0.0
H2542 H 0.7029 0.46368 0.36028 0.0
C2543 C 0.63835 0.46564 0.35579 0.0
C2544 C 0.66874 0.65394 0.96281 0.0
C2545 C 0.64911 0.67075 0.95646 0.0
H2546 H 0.69127 0.63794 0.99261 0.0
C2547 C 0.63898 0.68679 0.97517 0.0
H2548 H 0.67669 0.64133 0.94865 0.0
C2549 C 0.64686 0.6844 0.0004 0.0
C2550 C 0.6655 0.66654 0.00696 0.0
H2551 H 0.62357 0.69964 0.97068 0.0
H2552 H 0.63747 0.69546 0.01497 0.0
C2553 C 0.67712 0.65209 0.98785 0.0
C2554 C 0.34742 0.82164 0.9941 0.0
C2555 C 0.34468 0.84623 0.004 0.0
H2556 H 0.35887 0.79911 0.96207 0.0
C2557 C 0.34876 0.8672 0.98813 0.0
H2558 H 0.34424 0.80521 0.00603 0.0
C2559 C 0.3569 0.86382 0.96327 0.0
C2560 C 0.36126 0.83935 0.95365 0.0
H2561 H 0.34631 0.88636 0.99524 0.0
H2562 H 0.36058 0.88052 0.95187 0.0
C2563 C 0.35575 0.8182 0.96903 0.0
C2564 C 0.63777 0.31385 0.52593 0.0
C2565 C 0.64729 0.33066 0.54429 0.0
H2566 H 0.63724 0.30374 0.48643 0.0
C2567 C 0.66658 0.34775 0.53767 0.0
H2568 H 0.62263 0.30075 0.53061 0.0
C2569 C 0.67537 0.34894 0.51273 0.0
C2570 C 0.66449 0.33354 0.49392 0.0
H2571 H 0.67408 0.36093 0.55156 0.0
H2572 H 0.68935 0.36319 0.50779 0.0
C2573 C 0.64605 0.31557 0.50075 0.0
C2574 C 0.35841 0.17877 0.53013 0.0
C2575 C 0.36337 0.15746 0.54546 0.0
H2576 H 0.34749 0.19212 0.49307 0.0
C2577 C 0.35862 0.13312 0.53573 0.0
H2578 H 0.36184 0.19777 0.53718 0.0
C2579 C 0.3506 0.12998 0.5108 0.0
C2580 C 0.34709 0.15109 0.49496 0.0
H2581 H 0.36186 0.11631 0.54712 0.0
H2582 H 0.3478 0.1109 0.50363 0.0
C2583 C 0.35023 0.17559 0.50498 0.0
C2584 C 0.97119 0.64531 0.68268 0.0
C2585 C 0.956 0.63922 0.66157 0.0
H2586 H 0.00819 0.65685 0.69572 0.0
C2587 C 0.96605 0.64238 0.63711 0.0
H2588 H 0.9639 0.64312 0.70176 0.0
C2589 C 0.99107 0.65 0.63376 0.0
C2590 C 0.00673 0.65473 0.65475 0.0
H2591 H 0.9548 0.63823 0.62042 0.0
H2592 H 0.99843 0.65165 0.61463 0.0
C2593 C 0.99644 0.65312 0.67927 0.0
C2594 C 0.01328 0.82149 0.65705 0.0
C2595 C 0.99431 0.83395 0.67097 0.0
H2596 H 0.05255 0.82094 0.64652 0.0
C2597 C 0.00115 0.85274 0.68857 0.0
H2598 H 0.0083 0.80725 0.64307 0.0
C2599 C 0.02654 0.86013 0.69099 0.0
C2600 C 0.04512 0.84936 0.67522 0.0
H2601 H 0.98669 0.86282 0.69913 0.0
H2602 H 0.03122 0.87582 0.70342 0.0
C2603 C 0.03849 0.82938 0.65893 0.0
C2604 C 0.96747 0.36466 0.86263 0.0
C2605 C 0.9564 0.36581 0.83844 0.0
H2606 H 0.00047 0.35636 0.88453 0.0
C2607 C 0.97056 0.35759 0.81733 0.0
H2608 H 0.95708 0.37051 0.87936 0.0
C2609 C 0.99573 0.34936 0.82039 0.0
C2610 C 0.007 0.3495 0.84454 0.0
H2611 H 0.96246 0.35817 0.79846 0.0
H2612 H 0.00662 0.34375 0.80389 0.0
C2613 C 0.99241 0.35664 0.86562 0.0
C2614 C 0.02875 0.14356 0.8153 0.0
C2615 C 0.04614 0.14372 0.83556 0.0
H2616 H 0.99016 0.15048 0.80375 0.0
C2617 C 0.03886 0.1544 0.85883 0.0
H2618 H 0.03392 0.13538 0.79717 0.0
C2619 C 0.01418 0.16302 0.86245 0.0
C2620 C 0.99626 0.16111 0.84291 0.0
H2621 H 0.05195 0.15509 0.87467 0.0
H2622 H 0.00869 0.17004 0.88099 0.0
C2623 C 0.00383 0.15217 0.819 0.0
C2624 C 0.63303 0.99017 0.65188 0.0
C2625 C 0.65383 0.00656 0.65462 0.0
H2626 H 0.61992 0.95345 0.64116 0.0
C2627 C 0.67844 0.99715 0.6507 0.0
H2628 H 0.6139 0.99688 0.65529 0.0
C2629 C 0.68197 0.97204 0.64249 0.0
C2630 C 0.66091 0.95616 0.63826 0.0
H2631 H 0.69474 0.00949 0.65284 0.0
H2632 H 0.70101 0.96546 0.63843 0.0
C2633 C 0.63652 0.96528 0.64382 0.0
C2634 C 0.63671 0.03594 0.85513 0.0
C2635 C 0.66103 0.04497 0.86114 0.0
H2636 H 0.61418 0.00443 0.8432 0.0
C2637 C 0.68211 0.02902 0.85718 0.0
H2638 H 0.62011 0.04781 0.85757 0.0
C2639 C 0.67863 0.00394 0.84882 0.0
C2640 C 0.65406 0.99463 0.84446 0.0
H2641 H 0.7011 0.03553 0.86159 0.0
H2642 H 0.69491 0.99154 0.84694 0.0
C2643 C 0.63328 0.01109 0.84691 0.0
C2644 C 0.31247 0.47325 0.86025 0.0
C2645 C 0.3294 0.45496 0.85078 0.0
H2646 H 0.30266 0.51283 0.8613 0.0
C2647 C 0.3465 0.4617 0.83154 0.0
H2648 H 0.29936 0.4685 0.87535 0.0
C2649 C 0.34784 0.48676 0.82305 0.0
C2650 C 0.33253 0.50549 0.83415 0.0
H2651 H 0.35978 0.44788 0.82407 0.0
H2652 H 0.36229 0.49189 0.80934 0.0
C2653 C 0.31432 0.49851 0.85226 0.0
C2654 C 0.81856 0.03194 0.14547 0.0
C2655 C 0.83961 0.04789 0.14141 0.0
H2656 H 0.80585 0.99434 0.15534 0.0
C2657 C 0.86398 0.03881 0.14712 0.0
H2658 H 0.79954 0.03848 0.14124 0.0
C2659 C 0.86749 0.01386 0.15499 0.0
C2660 C 0.84674 0.99736 0.15738 0.0
H2661 H 0.88055 0.05071 0.14458 0.0
H2662 H 0.88663 0.00714 0.15839 0.0
C2663 C 0.82212 0.00676 0.15347 0.0
C2664 C 0.34689 0.32205 0.00776 0.0
C2665 C 0.34339 0.3465 0.99778 0.0
H2666 H 0.35841 0.30004 0.04008 0.0
C2667 C 0.34594 0.36763 0.01377 0.0
H2668 H 0.34489 0.30551 0.99571 0.0
C2669 C 0.35347 0.3646 0.03887 0.0
C2670 C 0.3587 0.34035 0.04858 0.0
H2671 H 0.34289 0.38665 0.00655 0.0
H2672 H 0.35609 0.38143 0.05039 0.0
C2673 C 0.35458 0.31897 0.03306 0.0
C2674 C 0.63732 0.1893 0.02347 0.0
C2675 C 0.64738 0.17298 0.04197 0.0
H2676 H 0.63626 0.19886 0.98386 0.0
C2677 C 0.66731 0.15657 0.03551 0.0
H2678 H 0.62168 0.20185 0.02803 0.0
C2679 C 0.67608 0.1554 0.01056 0.0
C2680 C 0.66455 0.17012 0.99159 0.0
H2681 H 0.67522 0.14374 0.04949 0.0
H2682 H 0.69048 0.14153 0.00571 0.0
C2683 C 0.64558 0.18759 0.9983 0.0
C2684 C 0.35699 0.67997 0.46951 0.0
C2685 C 0.36069 0.65872 0.45373 0.0
H2686 H 0.34729 0.69314 0.50697 0.0
C2687 C 0.35455 0.6345 0.46297 0.0
H2688 H 0.36154 0.69888 0.46285 0.0
C2689 C 0.34657 0.63132 0.48791 0.0
C2690 C 0.34451 0.65226 0.50422 0.0
H2691 H 0.35682 0.61779 0.45121 0.0
H2692 H 0.34286 0.61229 0.49479 0.0
C2693 C 0.34888 0.67674 0.49468 0.0
C2694 C 0.66775 0.84568 0.46353 0.0
C2695 C 0.6483 0.82873 0.45704 0.0
H2696 H 0.69055 0.86126 0.49332 0.0
C2697 C 0.63863 0.81215 0.47553 0.0
H2698 H 0.67535 0.85871 0.44955 0.0
C2699 C 0.64685 0.81405 0.5007 0.0
C2700 C 0.66538 0.83197 0.50743 0.0
H2701 H 0.62335 0.79918 0.47094 0.0
H2702 H 0.63788 0.80245 0.51511 0.0
C2703 C 0.67648 0.84704 0.48848 0.0
C2704 C 0.02627 0.36029 0.30915 0.0
C2705 C 0.04491 0.35009 0.32522 0.0
H2706 H 0.98649 0.36194 0.30046 0.0
C2707 C 0.03855 0.33013 0.34163 0.0
H2708 H 0.03075 0.37594 0.29659 0.0
C2709 C 0.01351 0.32166 0.34326 0.0
C2710 C 0.99444 0.33351 0.32898 0.0
H2711 H 0.05266 0.32209 0.35424 0.0
H2712 H 0.00869 0.30742 0.3573 0.0
C2713 C 0.00105 0.35231 0.31131 0.0
C2714 C 0.99307 0.14674 0.36508 0.0
C2715 C 0.00774 0.15291 0.34374 0.0
H2716 H 0.95764 0.13355 0.37929 0.0
C2717 C 0.99647 0.15229 0.31961 0.0
H2718 H 0.00116 0.14763 0.38396 0.0
C2719 C 0.97125 0.14413 0.31685 0.0
C2720 C 0.95706 0.13671 0.33824 0.0
H2721 H 0.00742 0.15714 0.30291 0.0
H2722 H 0.96317 0.14284 0.298 0.0
C2723 C 0.96809 0.13875 0.36238 0.0
C2724 C 0.99864 0.64927 0.19122 0.0
C2725 C 0.9918 0.66799 0.17355 0.0
H2726 H 0.02847 0.62553 0.2055 0.0
C2727 C 0.01069 0.67969 0.15889 0.0
H2728 H 0.98423 0.63977 0.20238 0.0
C2729 C 0.0357 0.67108 0.1601 0.0
C2730 C 0.04223 0.65116 0.17648 0.0
H2731 H 0.0057 0.69387 0.14485 0.0
H2732 H 0.04961 0.67892 0.14714 0.0
C2733 C 0.02386 0.64117 0.19297 0.0
C2734 C 0.98871 0.82336 0.15549 0.0
C2735 C 0.00751 0.83496 0.17036 0.0
H2736 H 0.94977 0.82392 0.14381 0.0
C2737 C 0.00055 0.85348 0.18818 0.0
H2738 H 0.99379 0.80932 0.14134 0.0
C2739 C 0.97526 0.86136 0.19004 0.0
C2740 C 0.95691 0.85138 0.1735 0.0
H2741 H 0.01488 0.86288 0.19952 0.0
H2742 H 0.97052 0.87676 0.20282 0.0
C2743 C 0.96363 0.83176 0.15681 0.0
C2744 C 0.31069 0.02441 0.35909 0.0
C2745 C 0.32748 0.0424 0.34884 0.0
H2746 H 0.30058 0.98494 0.36106 0.0
C2747 C 0.34392 0.03522 0.32919 0.0
H2748 H 0.2981 0.0295 0.37452 0.0
C2749 C 0.34478 0.01002 0.32103 0.0
C2750 C 0.32968 0.99157 0.3329 0.0
H2751 H 0.35709 0.0488 0.32113 0.0
H2752 H 0.35876 0.00456 0.30697 0.0
C2753 C 0.31209 0.99901 0.35145 0.0
C2754 C 0.31084 0.99826 0.14801 0.0
C2755 C 0.32866 0.00588 0.16625 0.0
H2756 H 0.2967 0.96759 0.12531 0.0
C2757 C 0.34406 0.9876 0.17797 0.0
H2758 H 0.29909 0.0122 0.13852 0.0
C2759 C 0.34325 0.96236 0.16996 0.0
C2760 C 0.32657 0.95499 0.15059 0.0
H2761 H 0.35821 0.99322 0.19179 0.0
H2762 H 0.35661 0.9489 0.17791 0.0
C2763 C 0.30951 0.97282 0.14051 0.0
C2764 C 0.67873 0.50302 0.15347 0.0
C2765 C 0.65432 0.4941 0.15928 0.0
H2766 H 0.70089 0.53435 0.1396 0.0
C2767 C 0.63377 0.511 0.15862 0.0
H2768 H 0.69483 0.49025 0.15392 0.0
C2769 C 0.63714 0.53592 0.15058 0.0
C2770 C 0.66115 0.54454 0.14297 0.0
H2771 H 0.61482 0.50459 0.16341 0.0
H2772 H 0.62065 0.54814 0.14935 0.0
C2773 C 0.68215 0.52818 0.14532 0.0
C2774 C 0.19179 0.97866 0.86068 0.0
C2775 C 0.17589 0.95971 0.85076 0.0
H2776 H 0.20011 0.01859 0.86174 0.0
C2777 C 0.1593 0.96567 0.83083 0.0
H2778 H 0.20444 0.97451 0.87633 0.0
C2779 C 0.1574 0.9906 0.82204 0.0
C2780 C 0.17158 0.00998 0.83354 0.0
H2781 H 0.14679 0.95133 0.82305 0.0
H2782 H 0.14328 0.99509 0.80778 0.0
C2783 C 0.18934 0.00379 0.85238 0.0
loop_
_geom_bond_atom_site_label_1
_geom_bond_atom_site_label_2
_geom_bond_distance
_geom_bond_site_symmetry_2
_ccdc_geom_bond_type
C0 C1 1.351 . S
C0 N3 1.368 . S
C0 H5 0.931 . S
C1 C0 1.351 . S
C1 N2 1.373 . S
C1 H29 0.930 . S
N2 C1 1.373 . S
N2 C4 1.340 . S
N3 C0 1.368 . S
N3 C4 1.321 . S
N3 Co6 2.135 . S
C4 N2 1.340 . S
C4 N3 1.321 . S
C4 H28 0.930 . S
H5 C0 0.931 . S
Co6 N3 2.135 . S
Co6 N9 2.121 . S
Co6 O14 2.055 . S
Co6 O17 2.039 . S
Co6 N20 2.140 . S
C7 O8 1.227 . S
C7 O17 1.265 . S
O8 C7 1.227 . S
N9 Co6 2.121 . S
N9 C11 1.375 . S
N9 C12 1.313 . S
C10 C11 1.338 . S
C10 N13 1.377 . S
C10 H30 0.930 . S
C11 N9 1.375 . S
C11 C10 1.338 . S
C11 H15 0.931 . S
C12 N9 1.313 . S
C12 N13 1.344 . S
C12 H16 0.930 . S
N13 C10 1.377 . S
N13 C12 1.344 . S
O14 Co6 2.055 . S
O14 C18 1.253 . S
H15 C11 0.931 . S
H16 C12 0.930 . S
O17 Co6 2.039 . S
O17 C7 1.265 . S
C18 O14 1.253 . S
C18 O19 1.227 . S
O19 C18 1.227 . S
N20 Co6 2.140 . S
N20 C23 1.346 . S
N20 C24 1.345 . S
C21 C22 1.387 . S
C21 C25 1.391 . S
C22 C21 1.387 . S
C22 C23 1.369 . S
C22 H31 0.929 . S
C23 N20 1.346 . S
C23 C22 1.369 . S
C23 H26 0.928 . S
C24 N20 1.345 . S
C24 C25 1.371 . S
C24 H27 0.931 . S
C25 C21 1.391 . S
C25 C24 1.371 . S
C25 H32 0.930 . S
H26 C23 0.928 . S
H27 C24 0.931 . S
H28 C4 0.930 . S
H29 C1 0.930 . S
H30 C10 0.930 . S
H31 C22 0.929 . S
H32 C25 0.930 . S
C33 C34 1.351 . S
C33 N36 1.368 . S
C33 H38 0.931 . S
C34 C33 1.351 . S
C34 N35 1.373 . S
C34 H62 0.930 . S
N35 C34 1.373 . S
N35 C37 1.340 . S
N36 C33 1.368 . S
N36 C37 1.321 . S
N36 Co39 2.135 . S
C37 N35 1.340 . S
C37 N36 1.321 . S
C37 H61 0.930 . S
H38 C33 0.931 . S
Co39 N36 2.135 . S
Co39 N42 2.121 . S
Co39 O47 2.055 . S
Co39 O50 2.039 . S
Co39 N53 2.140 . S
C40 O41 1.227 . S
C40 O50 1.265 . S
O41 C40 1.227 . S
N42 Co39 2.121 . S
N42 C44 1.375 . S
N42 C45 1.313 . S
C43 C44 1.338 . S
C43 N46 1.377 . S
C43 H63 0.930 . S
C44 N42 1.375 . S
C44 C43 1.338 . S
C44 H48 0.931 . S
C45 N42 1.313 . S
C45 N46 1.344 . S
C45 H49 0.930 . S
N46 C43 1.377 . S
N46 C45 1.344 . S
O47 Co39 2.055 . S
O47 C51 1.253 . S
H48 C44 0.931 . S
H49 C45 0.930 . S
O50 Co39 2.039 . S
O50 C40 1.265 . S
C51 O47 1.253 . S
C51 O52 1.227 . S
O52 C51 1.227 . S
N53 Co39 2.140 . S
N53 C56 1.346 . S
N53 C57 1.345 . S
C54 C55 1.387 . S
C54 C58 1.391 . S
C55 C54 1.387 . S
C55 C56 1.369 . S
C55 H64 0.929 . S
C56 N53 1.346 . S
C56 C55 1.369 . S
C56 H59 0.928 . S
C57 N53 1.345 . S
C57 C58 1.371 . S
C57 H60 0.931 . S
C58 C54 1.391 . S
C58 C57 1.371 . S
C58 H65 0.930 . S
H59 C56 0.928 . S
H60 C57 0.931 . S
H61 C37 0.930 . S
H62 C34 0.930 . S
H63 C43 0.930 . S
H64 C55 0.929 . S
H65 C58 0.930 . S
C66 C67 1.351 . S
C66 N69 1.368 . S
C66 H71 0.931 . S
C67 C66 1.351 . S
C67 N68 1.373 . S
C67 H95 0.930 . S
N68 C67 1.373 . S
N68 C70 1.340 . S
N69 C66 1.368 . S
N69 C70 1.321 . S
N69 Co72 2.135 . S
C70 N68 1.340 . S
C70 N69 1.321 . S
C70 H94 0.930 . S
H71 C66 0.931 . S
Co72 N69 2.135 . S
Co72 N75 2.121 . S
Co72 O80 2.055 . S
Co72 O83 2.039 . S
Co72 N86 2.140 . S
C73 O74 1.227 . S
C73 O83 1.265 . S
O74 C73 1.227 . S
N75 Co72 2.121 . S
N75 C77 1.375 . S
N75 C78 1.313 . S
C76 C77 1.338 . S
C76 N79 1.377 . S
C76 H96 0.930 . S
C77 N75 1.375 . S
C77 C76 1.338 . S
C77 H81 0.931 . S
C78 N75 1.313 . S
C78 N79 1.344 . S
C78 H82 0.930 . S
N79 C76 1.377 . S
N79 C78 1.344 . S
O80 Co72 2.055 . S
O80 C84 1.253 . S
H81 C77 0.931 . S
H82 C78 0.930 . S
O83 Co72 2.039 . S
O83 C73 1.265 . S
C84 O80 1.253 . S
C84 O85 1.227 . S
O85 C84 1.227 . S
N86 Co72 2.140 . S
N86 C89 1.346 . S
N86 C90 1.345 . S
C87 C88 1.387 . S
C87 C91 1.391 . S
C88 C87 1.387 . S
C88 C89 1.369 . S
C88 H97 0.929 . S
C89 N86 1.346 . S
C89 C88 1.369 . S
C89 H92 0.928 . S
C90 N86 1.345 . S
C90 C91 1.371 . S
C90 H93 0.931 . S
C91 C87 1.391 . S
C91 C90 1.371 . S
C91 H98 0.930 . S
H92 C89 0.928 . S
H93 C90 0.931 . S
H94 C70 0.930 . S
H95 C67 0.930 . S
H96 C76 0.930 . S
H97 C88 0.929 . S
H98 C91 0.930 . S
C99 C100 1.351 . S
C99 N102 1.368 . S
C99 H104 0.931 . S
C100 C99 1.351 . S
C100 N101 1.373 . S
C100 H128 0.930 . S
N101 C100 1.373 . S
N101 C103 1.340 . S
N102 C99 1.368 . S
N102 C103 1.321 . S
N102 Co105 2.135 . S
C103 N101 1.340 . S
C103 N102 1.321 . S
C103 H127 0.930 . S
H104 C99 0.931 . S
Co105 N102 2.135 . S
Co105 N108 2.121 . S
Co105 O113 2.055 . S
Co105 O116 2.039 . S
Co105 N119 2.140 . S
C106 O107 1.227 . S
C106 O116 1.265 . S
O107 C106 1.227 . S
N108 Co105 2.121 . S
N108 C110 1.375 . S
N108 C111 1.313 . S
C109 C110 1.338 . S
C109 N112 1.377 . S
C109 H129 0.930 . S
C110 N108 1.375 . S
C110 C109 1.338 . S
C110 H114 0.931 . S
C111 N108 1.313 . S
C111 N112 1.344 . S
C111 H115 0.930 . S
N112 C109 1.377 . S
N112 C111 1.344 . S
O113 Co105 2.055 . S
O113 C117 1.253 . S
H114 C110 0.931 . S
H115 C111 0.930 . S
O116 Co105 2.039 . S
O116 C106 1.265 . S
C117 O113 1.253 . S
C117 O118 1.227 . S
O118 C117 1.227 . S
N119 Co105 2.140 . S
N119 C122 1.346 . S
N119 C123 1.345 . S
C120 C121 1.387 . S
C120 C124 1.391 . S
C121 C120 1.387 . S
C121 C122 1.369 . S
C121 H130 0.929 . S
C122 N119 1.346 . S
C122 C121 1.369 . S
C122 H125 0.928 . S
C123 N119 1.345 . S
C123 C124 1.371 . S
C123 H126 0.931 . S
C124 C120 1.391 . S
C124 C123 1.371 . S
C124 H131 0.930 . S
H125 C122 0.928 . S
H126 C123 0.931 . S
H127 C103 0.930 . S
H128 C100 0.930 . S
H129 C109 0.930 . S
H130 C121 0.929 . S
H131 C124 0.930 . S
C132 C133 1.351 . S
C132 N135 1.368 . S
C132 H137 0.931 . S
C133 C132 1.351 . S
C133 N134 1.373 . S
C133 H161 0.930 . S
N134 C133 1.373 . S
N134 C136 1.340 . S
N135 C132 1.368 . S
N135 C136 1.321 . S
N135 Co138 2.135 . S
C136 N134 1.340 . S
C136 N135 1.321 . S
C136 H160 0.930 . S
H137 C132 0.931 . S
Co138 N135 2.135 . S
Co138 N141 2.121 . S
Co138 O146 2.055 . S
Co138 O149 2.039 . S
Co138 N152 2.140 . S
C139 O140 1.227 . S
C139 O149 1.265 . S
O140 C139 1.227 . S
N141 Co138 2.121 . S
N141 C143 1.375 . S
N141 C144 1.313 . S
C142 C143 1.338 . S
C142 N145 1.377 . S
C142 H162 0.930 . S
C143 N141 1.375 . S
C143 C142 1.338 . S
C143 H147 0.931 . S
C144 N141 1.313 . S
C144 N145 1.344 . S
C144 H148 0.930 . S
N145 C142 1.377 . S
N145 C144 1.344 . S
O146 Co138 2.055 . S
O146 C150 1.253 . S
H147 C143 0.931 . S
H148 C144 0.930 . S
O149 Co138 2.039 . S
O149 C139 1.265 . S
C150 O146 1.253 . S
C150 O151 1.227 . S
O151 C150 1.227 . S
N152 Co138 2.140 . S
N152 C155 1.346 . S
N152 C156 1.345 . S
C153 C154 1.387 . S
C153 C157 1.391 . S
C154 C153 1.387 . S
C154 C155 1.369 . S
C154 H163 0.929 . S
C155 N152 1.346 . S
C155 C154 1.369 . S
C155 H158 0.928 . S
C156 N152 1.345 . S
C156 C157 1.371 . S
C156 H159 0.931 . S
C157 C153 1.391 . S
C157 C156 1.371 . S
C157 H164 0.930 . S
H158 C155 0.928 . S
H159 C156 0.931 . S
H160 C136 0.930 . S
H161 C133 0.930 . S
H162 C142 0.930 . S
H163 C154 0.929 . S
H164 C157 0.930 . S
C165 C166 1.351 . S
C165 N168 1.368 . S
C165 H170 0.931 . S
C166 C165 1.351 . S
C166 N167 1.373 . S
C166 H194 0.930 . S
N167 C166 1.373 . S
N167 C169 1.340 . S
N168 C165 1.368 . S
N168 C169 1.321 . S
N168 Co171 2.135 . S
C169 N167 1.340 . S
C169 N168 1.321 . S
C169 H193 0.930 . S
H170 C165 0.931 . S
Co171 N168 2.135 . S
Co171 N174 2.121 . S
Co171 O179 2.055 . S
Co171 O182 2.039 . S
Co171 N185 2.140 . S
C172 O173 1.227 . S
C172 O182 1.265 . S
O173 C172 1.227 . S
N174 Co171 2.121 . S
N174 C176 1.375 . S
N174 C177 1.313 . S
C175 C176 1.338 . S
C175 N178 1.377 . S
C175 H195 0.930 . S
C176 N174 1.375 . S
C176 C175 1.338 . S
C176 H180 0.931 . S
C177 N174 1.313 . S
C177 N178 1.344 . S
C177 H181 0.930 . S
N178 C175 1.377 . S
N178 C177 1.344 . S
O179 Co171 2.055 . S
O179 C183 1.253 . S
H180 C176 0.931 . S
H181 C177 0.930 . S
O182 Co171 2.039 . S
O182 C172 1.265 . S
C183 O179 1.253 . S
C183 O184 1.227 . S
O184 C183 1.227 . S
N185 Co171 2.140 . S
N185 C188 1.346 . S
N185 C189 1.345 . S
C186 C187 1.387 . S
C186 C190 1.391 . S
C187 C186 1.387 . S
C187 C188 1.369 . S
C187 H196 0.929 . S
C188 N185 1.346 . S
C188 C187 1.369 . S
C188 H191 0.928 . S
C189 N185 1.345 . S
C189 C190 1.371 . S
C189 H192 0.931 . S
C190 C186 1.391 . S
C190 C189 1.371 . S
C190 H197 0.930 . S
H191 C188 0.928 . S
H192 C189 0.931 . S
H193 C169 0.930 . S
H194 C166 0.930 . S
H195 C175 0.930 . S
H196 C187 0.929 . S
H197 C190 0.930 . S
C198 C199 1.351 . S
C198 N201 1.368 . S
C198 H203 0.931 . S
C199 C198 1.351 . S
C199 N200 1.373 . S
C199 H227 0.930 . S
N200 C199 1.373 . S
N200 C202 1.340 . S
N201 C198 1.368 . S
N201 C202 1.321 . S
N201 Co204 2.135 . S
C202 N200 1.340 . S
C202 N201 1.321 . S
C202 H226 0.930 . S
H203 C198 0.931 . S
Co204 N201 2.135 . S
Co204 N207 2.121 . S
Co204 O212 2.055 . S
Co204 O215 2.039 . S
Co204 N218 2.140 . S
C205 O206 1.227 . S
C205 O215 1.265 . S
O206 C205 1.227 . S
N207 Co204 2.121 . S
N207 C209 1.375 . S
N207 C210 1.313 . S
C208 C209 1.338 . S
C208 N211 1.377 . S
C208 H228 0.930 . S
C209 N207 1.375 . S
C209 C208 1.338 . S
C209 H213 0.931 . S
C210 N207 1.313 . S
C210 N211 1.344 . S
C210 H214 0.930 . S
N211 C208 1.377 . S
N211 C210 1.344 . S
O212 Co204 2.055 . S
O212 C216 1.253 . S
H213 C209 0.931 . S
H214 C210 0.930 . S
O215 Co204 2.039 . S
O215 C205 1.265 . S
C216 O212 1.253 . S
C216 O217 1.227 . S
O217 C216 1.227 . S
N218 Co204 2.140 . S
N218 C221 1.346 . S
N218 C222 1.345 . S
C219 C220 1.387 . S
C219 C223 1.391 . S
C220 C219 1.387 . S
C220 C221 1.369 . S
C220 H229 0.929 . S
C221 N218 1.346 . S
C221 C220 1.369 . S
C221 H224 0.928 . S
C222 N218 1.345 . S
C222 C223 1.371 . S
C222 H225 0.931 . S
C223 C219 1.391 . S
C223 C222 1.371 . S
C223 H230 0.930 . S
H224 C221 0.928 . S
H225 C222 0.931 . S
H226 C202 0.930 . S
H227 C199 0.930 . S
H228 C208 0.930 . S
H229 C220 0.929 . S
H230 C223 0.930 . S
C231 C232 1.351 . S
C231 N234 1.368 . S
C231 H236 0.931 . S
C232 C231 1.351 . S
C232 N233 1.373 . S
C232 H260 0.930 . S
N233 C232 1.373 . S
N233 C235 1.340 . S
N234 C231 1.368 . S
N234 C235 1.321 . S
N234 Co237 2.135 . S
C235 N233 1.340 . S
C235 N234 1.321 . S
C235 H259 0.930 . S
H236 C231 0.931 . S
Co237 N234 2.135 . S
Co237 N240 2.121 . S
Co237 O245 2.055 . S
Co237 O248 2.039 . S
Co237 N251 2.140 . S
C238 O239 1.227 . S
C238 O248 1.265 . S
O239 C238 1.227 . S
N240 Co237 2.121 . S
N240 C242 1.375 . S
N240 C243 1.313 . S
C241 C242 1.338 . S
C241 N244 1.377 . S
C241 H261 0.930 . S
C242 N240 1.375 . S
C242 C241 1.338 . S
C242 H246 0.931 . S
C243 N240 1.313 . S
C243 N244 1.344 . S
C243 H247 0.930 . S
N244 C241 1.377 . S
N244 C243 1.344 . S
O245 Co237 2.055 . S
O245 C249 1.253 . S
H246 C242 0.931 . S
H247 C243 0.930 . S
O248 Co237 2.039 . S
O248 C238 1.265 . S
C249 O245 1.253 . S
C249 O250 1.227 . S
O250 C249 1.227 . S
N251 Co237 2.140 . S
N251 C254 1.346 . S
N251 C255 1.345 . S
C252 C253 1.387 . S
C252 C256 1.391 . S
C253 C252 1.387 . S
C253 C254 1.369 . S
C253 H262 0.929 . S
C254 N251 1.346 . S
C254 C253 1.369 . S
C254 H257 0.928 . S
C255 N251 1.345 . S
C255 C256 1.371 . S
C255 H258 0.931 . S
C256 C252 1.391 . S
C256 C255 1.371 . S
C256 H263 0.930 . S
H257 C254 0.928 . S
H258 C255 0.931 . S
H259 C235 0.930 . S
H260 C232 0.930 . S
H261 C241 0.930 . S
H262 C253 0.929 . S
H263 C256 0.930 . S
C264 C265 1.351 . S
C264 N267 1.368 . S
C264 H269 0.931 . S
C265 C264 1.351 . S
C265 N266 1.373 . S
C265 H293 0.930 . S
N266 C265 1.373 . S
N266 C268 1.340 . S
N267 C264 1.368 . S
N267 C268 1.321 . S
N267 Co270 2.135 . S
C268 N266 1.340 . S
C268 N267 1.321 . S
C268 H292 0.930 . S
H269 C264 0.931 . S
Co270 N267 2.135 . S
Co270 N273 2.121 . S
Co270 O278 2.055 . S
Co270 O281 2.039 . S
Co270 N284 2.140 . S
C271 O272 1.227 . S
C271 O281 1.265 . S
O272 C271 1.227 . S
N273 Co270 2.121 . S
N273 C275 1.375 . S
N273 C276 1.313 . S
C274 C275 1.338 . S
C274 N277 1.377 . S
C274 H294 0.930 . S
C275 N273 1.375 . S
C275 C274 1.338 . S
C275 H279 0.931 . S
C276 N273 1.313 . S
C276 N277 1.344 . S
C276 H280 0.930 . S
N277 C274 1.377 . S
N277 C276 1.344 . S
O278 Co270 2.055 . S
O278 C282 1.253 . S
H279 C275 0.931 . S
H280 C276 0.930 . S
O281 Co270 2.039 . S
O281 C271 1.265 . S
C282 O278 1.253 . S
C282 O283 1.227 . S
O283 C282 1.227 . S
N284 Co270 2.140 . S
N284 C287 1.346 . S
N284 C288 1.345 . S
C285 C286 1.387 . S
C285 C289 1.391 . S
C286 C285 1.387 . S
C286 C287 1.369 . S
C286 H295 0.929 . S
C287 N284 1.346 . S
C287 C286 1.369 . S
C287 H290 0.928 . S
C288 N284 1.345 . S
C288 C289 1.371 . S
C288 H291 0.931 . S
C289 C285 1.391 . S
C289 C288 1.371 . S
C289 H296 0.930 . S
H290 C287 0.928 . S
H291 C288 0.931 . S
H292 C268 0.930 . S
H293 C265 0.930 . S
H294 C274 0.930 . S
H295 C286 0.929 . S
H296 C289 0.930 . S
C297 C298 1.351 . S
C297 N300 1.368 . S
C297 H302 0.931 . S
C298 C297 1.351 . S
C298 N299 1.373 . S
C298 H326 0.930 . S
N299 C298 1.373 . S
N299 C301 1.340 . S
N300 C297 1.368 . S
N300 C301 1.321 . S
N300 Co303 2.135 . S
C301 N299 1.340 . S
C301 N300 1.321 . S
C301 H325 0.930 . S
H302 C297 0.931 . S
Co303 N300 2.135 . S
Co303 N306 2.121 . S
Co303 O311 2.055 . S
Co303 O314 2.039 . S
Co303 N317 2.140 . S
C304 O305 1.227 . S
C304 O314 1.265 . S
O305 C304 1.227 . S
N306 Co303 2.121 . S
N306 C308 1.375 . S
N306 C309 1.313 . S
C307 C308 1.338 . S
C307 N310 1.377 . S
C307 H327 0.930 . S
C308 N306 1.375 . S
C308 C307 1.338 . S
C308 H312 0.931 . S
C309 N306 1.313 . S
C309 N310 1.344 . S
C309 H313 0.930 . S
N310 C307 1.377 . S
N310 C309 1.344 . S
O311 Co303 2.055 . S
O311 C315 1.253 . S
H312 C308 0.931 . S
H313 C309 0.930 . S
O314 Co303 2.039 . S
O314 C304 1.265 . S
C315 O311 1.253 . S
C315 O316 1.227 . S
O316 C315 1.227 . S
N317 Co303 2.140 . S
N317 C320 1.346 . S
N317 C321 1.345 . S
C318 C319 1.387 . S
C318 C322 1.391 . S
C319 C318 1.387 . S
C319 C320 1.369 . S
C319 H328 0.929 . S
C320 N317 1.346 . S
C320 C319 1.369 . S
C320 H323 0.928 . S
C321 N317 1.345 . S
C321 C322 1.371 . S
C321 H324 0.931 . S
C322 C318 1.391 . S
C322 C321 1.371 . S
C322 H329 0.930 . S
H323 C320 0.928 . S
H324 C321 0.931 . S
H325 C301 0.930 . S
H326 C298 0.930 . S
H327 C307 0.930 . S
H328 C319 0.929 . S
H329 C322 0.930 . S
C330 C331 1.351 . S
C330 N333 1.368 . S
C330 H335 0.931 . S
C331 C330 1.351 . S
C331 N332 1.373 . S
C331 H359 0.930 . S
N332 C331 1.373 . S
N332 C334 1.340 . S
N333 C330 1.368 . S
N333 C334 1.321 . S
N333 Co336 2.135 . S
C334 N332 1.340 . S
C334 N333 1.321 . S
C334 H358 0.930 . S
H335 C330 0.931 . S
Co336 N333 2.135 . S
Co336 N339 2.121 . S
Co336 O344 2.055 . S
Co336 O347 2.039 . S
Co336 N350 2.140 . S
C337 O338 1.227 . S
C337 O347 1.265 . S
O338 C337 1.227 . S
N339 Co336 2.121 . S
N339 C341 1.375 . S
N339 C342 1.313 . S
C340 C341 1.338 . S
C340 N343 1.377 . S
C340 H360 0.930 . S
C341 N339 1.375 . S
C341 C340 1.338 . S
C341 H345 0.931 . S
C342 N339 1.313 . S
C342 N343 1.344 . S
C342 H346 0.930 . S
N343 C340 1.377 . S
N343 C342 1.344 . S
O344 Co336 2.055 . S
O344 C348 1.253 . S
H345 C341 0.931 . S
H346 C342 0.930 . S
O347 Co336 2.039 . S
O347 C337 1.265 . S
C348 O344 1.253 . S
C348 O349 1.227 . S
O349 C348 1.227 . S
N350 Co336 2.140 . S
N350 C353 1.346 . S
N350 C354 1.345 . S
C351 C352 1.387 . S
C351 C355 1.391 . S
C352 C351 1.387 . S
C352 C353 1.369 . S
C352 H361 0.929 . S
C353 N350 1.346 . S
C353 C352 1.369 . S
C353 H356 0.928 . S
C354 N350 1.345 . S
C354 C355 1.371 . S
C354 H357 0.931 . S
C355 C351 1.391 . S
C355 C354 1.371 . S
C355 H362 0.930 . S
H356 C353 0.928 . S
H357 C354 0.931 . S
H358 C334 0.930 . S
H359 C331 0.930 . S
H360 C340 0.930 . S
H361 C352 0.929 . S
H362 C355 0.930 . S
C363 C364 1.351 . S
C363 N366 1.368 . S
C363 H368 0.931 . S
C364 C363 1.351 . S
C364 N365 1.373 . S
C364 H392 0.930 . S
N365 C364 1.373 . S
N365 C367 1.340 . S
N366 C363 1.368 . S
N366 C367 1.321 . S
N366 Co369 2.135 . S
C367 N365 1.340 . S
C367 N366 1.321 . S
C367 H391 0.930 . S
H368 C363 0.931 . S
Co369 N366 2.135 . S
Co369 N372 2.121 . S
Co369 O377 2.055 . S
Co369 O380 2.039 . S
Co369 N383 2.140 . S
C370 O371 1.227 . S
C370 O380 1.265 . S
O371 C370 1.227 . S
N372 Co369 2.121 . S
N372 C374 1.375 . S
N372 C375 1.313 . S
C373 C374 1.338 . S
C373 N376 1.377 . S
C373 H393 0.930 . S
C374 N372 1.375 . S
C374 C373 1.338 . S
C374 H378 0.931 . S
C375 N372 1.313 . S
C375 N376 1.344 . S
C375 H379 0.930 . S
N376 C373 1.377 . S
N376 C375 1.344 . S
O377 Co369 2.055 . S
O377 C381 1.253 . S
H378 C374 0.931 . S
H379 C375 0.930 . S
O380 Co369 2.039 . S
O380 C370 1.265 . S
C381 O377 1.253 . S
C381 O382 1.227 . S
O382 C381 1.227 . S
N383 Co369 2.140 . S
N383 C386 1.346 . S
N383 C387 1.345 . S
C384 C385 1.387 . S
C384 C388 1.391 . S
C385 C384 1.387 . S
C385 C386 1.369 . S
C385 H394 0.929 . S
C386 N383 1.346 . S
C386 C385 1.369 . S
C386 H389 0.928 . S
C387 N383 1.345 . S
C387 C388 1.371 . S
C387 H390 0.931 . S
C388 C384 1.391 . S
C388 C387 1.371 . S
C388 H395 0.930 . S
H389 C386 0.928 . S
H390 C387 0.931 . S
H391 C367 0.930 . S
H392 C364 0.930 . S
H393 C373 0.930 . S
H394 C385 0.929 . S
H395 C388 0.930 . S
C396 C397 1.351 . S
C396 N399 1.368 . S
C396 H401 0.931 . S
C397 C396 1.351 . S
C397 N398 1.373 . S
C397 H425 0.930 . S
N398 C397 1.373 . S
N398 C400 1.340 . S
N399 C396 1.368 . S
N399 C400 1.321 . S
N399 Co402 2.135 . S
C400 N398 1.340 . S
C400 N399 1.321 . S
C400 H424 0.930 . S
H401 C396 0.931 . S
Co402 N399 2.135 . S
Co402 N405 2.121 . S
Co402 O410 2.055 . S
Co402 O413 2.039 . S
Co402 N416 2.140 . S
C403 O404 1.227 . S
C403 O413 1.265 . S
O404 C403 1.227 . S
N405 Co402 2.121 . S
N405 C407 1.375 . S
N405 C408 1.313 . S
C406 C407 1.338 . S
C406 N409 1.377 . S
C406 H426 0.930 . S
C407 N405 1.375 . S
C407 C406 1.338 . S
C407 H411 0.931 . S
C408 N405 1.313 . S
C408 N409 1.344 . S
C408 H412 0.930 . S
N409 C406 1.377 . S
N409 C408 1.344 . S
O410 Co402 2.055 . S
O410 C414 1.253 . S
H411 C407 0.931 . S
H412 C408 0.930 . S
O413 Co402 2.039 . S
O413 C403 1.265 . S
C414 O410 1.253 . S
C414 O415 1.227 . S
O415 C414 1.227 . S
N416 Co402 2.140 . S
N416 C419 1.346 . S
N416 C420 1.345 . S
C417 C418 1.387 . S
C417 C421 1.391 . S
C418 C417 1.387 . S
C418 C419 1.369 . S
C418 H427 0.929 . S
C419 N416 1.346 . S
C419 C418 1.369 . S
C419 H422 0.928 . S
C420 N416 1.345 . S
C420 C421 1.371 . S
C420 H423 0.931 . S
C421 C417 1.391 . S
C421 C420 1.371 . S
C421 H428 0.930 . S
H422 C419 0.928 . S
H423 C420 0.931 . S
H424 C400 0.930 . S
H425 C397 0.930 . S
H426 C406 0.930 . S
H427 C418 0.929 . S
H428 C421 0.930 . S
C429 C430 1.351 . S
C429 N432 1.368 . S
C429 H434 0.931 . S
C430 C429 1.351 . S
C430 N431 1.373 . S
C430 H458 0.930 . S
N431 C430 1.373 . S
N431 C433 1.340 . S
N432 C429 1.368 . S
N432 C433 1.321 . S
N432 Co435 2.135 . S
C433 N431 1.340 . S
C433 N432 1.321 . S
C433 H457 0.930 . S
H434 C429 0.931 . S
Co435 N432 2.135 . S
Co435 N438 2.121 . S
Co435 O443 2.055 . S
Co435 O446 2.039 . S
Co435 N449 2.140 . S
C436 O437 1.227 . S
C436 O446 1.265 . S
O437 C436 1.227 . S
N438 Co435 2.121 . S
N438 C440 1.375 . S
N438 C441 1.313 . S
C439 C440 1.338 . S
C439 N442 1.377 . S
C439 H459 0.930 . S
C440 N438 1.375 . S
C440 C439 1.338 . S
C440 H444 0.931 . S
C441 N438 1.313 . S
C441 N442 1.344 . S
C441 H445 0.930 . S
N442 C439 1.377 . S
N442 C441 1.344 . S
O443 Co435 2.055 . S
O443 C447 1.253 . S
H444 C440 0.931 . S
H445 C441 0.930 . S
O446 Co435 2.039 . S
O446 C436 1.265 . S
C447 O443 1.253 . S
C447 O448 1.227 . S
O448 C447 1.227 . S
N449 Co435 2.140 . S
N449 C452 1.346 . S
N449 C453 1.345 . S
C450 C451 1.387 . S
C450 C454 1.391 . S
C451 C450 1.387 . S
C451 C452 1.369 . S
C451 H460 0.929 . S
C452 N449 1.346 . S
C452 C451 1.369 . S
C452 H455 0.928 . S
C453 N449 1.345 . S
C453 C454 1.371 . S
C453 H456 0.931 . S
C454 C450 1.391 . S
C454 C453 1.371 . S
C454 H461 0.930 . S
H455 C452 0.928 . S
H456 C453 0.931 . S
H457 C433 0.930 . S
H458 C430 0.930 . S
H459 C439 0.930 . S
H460 C451 0.929 . S
H461 C454 0.930 . S
C462 C463 1.351 . S
C462 N465 1.368 . S
C462 H467 0.931 . S
C463 C462 1.351 . S
C463 N464 1.373 . S
C463 H491 0.930 . S
N464 C463 1.373 . S
N464 C466 1.340 . S
N465 C462 1.368 . S
N465 C466 1.321 . S
N465 Co468 2.135 . S
C466 N464 1.340 . S
C466 N465 1.321 . S
C466 H490 0.930 . S
H467 C462 0.931 . S
Co468 N465 2.135 . S
Co468 N471 2.121 . S
Co468 O476 2.055 . S
Co468 O479 2.039 . S
Co468 N482 2.140 . S
C469 O470 1.227 . S
C469 O479 1.265 . S
O470 C469 1.227 . S
N471 Co468 2.121 . S
N471 C473 1.375 . S
N471 C474 1.313 . S
C472 C473 1.338 . S
C472 N475 1.377 . S
C472 H492 0.930 . S
C473 N471 1.375 . S
C473 C472 1.338 . S
C473 H477 0.931 . S
C474 N471 1.313 . S
C474 N475 1.344 . S
C474 H478 0.930 . S
N475 C472 1.377 . S
N475 C474 1.344 . S
O476 Co468 2.055 . S
O476 C480 1.253 . S
H477 C473 0.931 . S
H478 C474 0.930 . S
O479 Co468 2.039 . S
O479 C469 1.265 . S
C480 O476 1.253 . S
C480 O481 1.227 . S
O481 C480 1.227 . S
N482 Co468 2.140 . S
N482 C485 1.346 . S
N482 C486 1.345 . S
C483 C484 1.387 . S
C483 C487 1.391 . S
C484 C483 1.387 . S
C484 C485 1.369 . S
C484 H493 0.929 . S
C485 N482 1.346 . S
C485 C484 1.369 . S
C485 H488 0.928 . S
C486 N482 1.345 . S
C486 C487 1.371 . S
C486 H489 0.931 . S
C487 C483 1.391 . S
C487 C486 1.371 . S
C487 H494 0.930 . S
H488 C485 0.928 . S
H489 C486 0.931 . S
H490 C466 0.930 . S
H491 C463 0.930 . S
H492 C472 0.930 . S
H493 C484 0.929 . S
H494 C487 0.930 . S
C495 C496 1.351 . S
C495 N498 1.368 . S
C495 H500 0.931 . S
C496 C495 1.351 . S
C496 N497 1.373 . S
C496 H524 0.930 . S
N497 C496 1.373 . S
N497 C499 1.340 . S
N498 C495 1.368 . S
N498 C499 1.321 . S
N498 Co501 2.135 . S
C499 N497 1.340 . S
C499 N498 1.321 . S
C499 H523 0.930 . S
H500 C495 0.931 . S
Co501 N498 2.135 . S
Co501 N504 2.121 . S
Co501 O509 2.055 . S
Co501 O512 2.039 . S
Co501 N515 2.140 . S
C502 O503 1.227 . S
C502 O512 1.265 . S
O503 C502 1.227 . S
N504 Co501 2.121 . S
N504 C506 1.375 . S
N504 C507 1.313 . S
C505 C506 1.338 . S
C505 N508 1.377 . S
C505 H525 0.930 . S
C506 N504 1.375 . S
C506 C505 1.338 . S
C506 H510 0.931 . S
C507 N504 1.313 . S
C507 N508 1.344 . S
C507 H511 0.930 . S
N508 C505 1.377 . S
N508 C507 1.344 . S
O509 Co501 2.055 . S
O509 C513 1.253 . S
H510 C506 0.931 . S
H511 C507 0.930 . S
O512 Co501 2.039 . S
O512 C502 1.265 . S
C513 O509 1.253 . S
C513 O514 1.227 . S
O514 C513 1.227 . S
N515 Co501 2.140 . S
N515 C518 1.346 . S
N515 C519 1.345 . S
C516 C517 1.387 . S
C516 C520 1.391 . S
C517 C516 1.387 . S
C517 C518 1.369 . S
C517 H526 0.929 . S
C518 N515 1.346 . S
C518 C517 1.369 . S
C518 H521 0.928 . S
C519 N515 1.345 . S
C519 C520 1.371 . S
C519 H522 0.931 . S
C520 C516 1.391 . S
C520 C519 1.371 . S
C520 H527 0.930 . S
H521 C518 0.928 . S
H522 C519 0.931 . S
H523 C499 0.930 . S
H524 C496 0.930 . S
H525 C505 0.930 . S
H526 C517 0.929 . S
H527 C520 0.930 . S
C528 C529 1.351 . S
C528 N531 1.368 . S
C528 H533 0.931 . S
C529 C528 1.351 . S
C529 N530 1.373 . S
C529 H557 0.930 . S
N530 C529 1.373 . S
N530 C532 1.340 . S
N531 C528 1.368 . S
N531 C532 1.321 . S
N531 Co534 2.135 . S
C532 N530 1.340 . S
C532 N531 1.321 . S
C532 H556 0.930 . S
H533 C528 0.931 . S
Co534 N531 2.135 . S
Co534 N537 2.121 . S
Co534 O542 2.055 . S
Co534 O545 2.039 . S
Co534 N548 2.140 . S
C535 O536 1.227 . S
C535 O545 1.265 . S
O536 C535 1.227 . S
N537 Co534 2.121 . S
N537 C539 1.375 . S
N537 C540 1.313 . S
C538 C539 1.338 . S
C538 N541 1.377 . S
C538 H558 0.930 . S
C539 N537 1.375 . S
C539 C538 1.338 . S
C539 H543 0.931 . S
C540 N537 1.313 . S
C540 N541 1.344 . S
C540 H544 0.930 . S
N541 C538 1.377 . S
N541 C540 1.344 . S
O542 Co534 2.055 . S
O542 C546 1.253 . S
H543 C539 0.931 . S
H544 C540 0.930 . S
O545 Co534 2.039 . S
O545 C535 1.265 . S
C546 O542 1.253 . S
C546 O547 1.227 . S
O547 C546 1.227 . S
N548 Co534 2.140 . S
N548 C551 1.346 . S
N548 C552 1.345 . S
C549 C550 1.387 . S
C549 C553 1.391 . S
C550 C549 1.387 . S
C550 C551 1.369 . S
C550 H559 0.929 . S
C551 N548 1.346 . S
C551 C550 1.369 . S
C551 H554 0.928 . S
C552 N548 1.345 . S
C552 C553 1.371 . S
C552 H555 0.931 . S
C553 C549 1.391 . S
C553 C552 1.371 . S
C553 H560 0.930 . S
H554 C551 0.928 . S
H555 C552 0.931 . S
H556 C532 0.930 . S
H557 C529 0.930 . S
H558 C538 0.930 . S
H559 C550 0.929 . S
H560 C553 0.930 . S
C561 C562 1.351 . S
C561 N564 1.368 . S
C561 H566 0.931 . S
C562 C561 1.351 . S
C562 N563 1.373 . S
C562 H590 0.930 . S
N563 C562 1.373 . S
N563 C565 1.340 . S
N564 C561 1.368 . S
N564 C565 1.321 . S
N564 Co567 2.135 . S
C565 N563 1.340 . S
C565 N564 1.321 . S
C565 H589 0.930 . S
H566 C561 0.931 . S
Co567 N564 2.135 . S
Co567 N570 2.121 . S
Co567 O575 2.055 . S
Co567 O578 2.039 . S
Co567 N581 2.140 . S
C568 O569 1.227 . S
C568 O578 1.265 . S
O569 C568 1.227 . S
N570 Co567 2.121 . S
N570 C572 1.375 . S
N570 C573 1.313 . S
C571 C572 1.338 . S
C571 N574 1.377 . S
C571 H591 0.930 . S
C572 N570 1.375 . S
C572 C571 1.338 . S
C572 H576 0.931 . S
C573 N570 1.313 . S
C573 N574 1.344 . S
C573 H577 0.930 . S
N574 C571 1.377 . S
N574 C573 1.344 . S
O575 Co567 2.055 . S
O575 C579 1.253 . S
H576 C572 0.931 . S
H577 C573 0.930 . S
O578 Co567 2.039 . S
O578 C568 1.265 . S
C579 O575 1.253 . S
C579 O580 1.227 . S
O580 C579 1.227 . S
N581 Co567 2.140 . S
N581 C584 1.346 . S
N581 C585 1.345 . S
C582 C583 1.387 . S
C582 C586 1.391 . S
C583 C582 1.387 . S
C583 C584 1.369 . S
C583 H592 0.929 . S
C584 N581 1.346 . S
C584 C583 1.369 . S
C584 H587 0.928 . S
C585 N581 1.345 . S
C585 C586 1.371 . S
C585 H588 0.931 . S
C586 C582 1.391 . S
C586 C585 1.371 . S
C586 H593 0.930 . S
H587 C584 0.928 . S
H588 C585 0.931 . S
H589 C565 0.930 . S
H590 C562 0.930 . S
H591 C571 0.930 . S
H592 C583 0.929 . S
H593 C586 0.930 . S
C594 C595 1.351 . S
C594 N597 1.368 . S
C594 H599 0.931 . S
C595 C594 1.351 . S
C595 N596 1.373 . S
C595 H623 0.930 . S
N596 C595 1.373 . S
N596 C598 1.340 . S
N597 C594 1.368 . S
N597 C598 1.321 . S
N597 Co600 2.135 . S
C598 N596 1.340 . S
C598 N597 1.321 . S
C598 H622 0.930 . S
H599 C594 0.931 . S
Co600 N597 2.135 . S
Co600 N603 2.121 . S
Co600 O608 2.055 . S
Co600 O611 2.039 . S
Co600 N614 2.140 . S
C601 O602 1.227 . S
C601 O611 1.265 . S
O602 C601 1.227 . S
N603 Co600 2.121 . S
N603 C605 1.375 . S
N603 C606 1.313 . S
C604 C605 1.338 . S
C604 N607 1.377 . S
C604 H624 0.930 . S
C605 N603 1.375 . S
C605 C604 1.338 . S
C605 H609 0.931 . S
C606 N603 1.313 . S
C606 N607 1.344 . S
C606 H610 0.930 . S
N607 C604 1.377 . S
N607 C606 1.344 . S
O608 Co600 2.055 . S
O608 C612 1.253 . S
H609 C605 0.931 . S
H610 C606 0.930 . S
O611 Co600 2.039 . S
O611 C601 1.265 . S
C612 O608 1.253 . S
C612 O613 1.227 . S
O613 C612 1.227 . S
N614 Co600 2.140 . S
N614 C617 1.346 . S
N614 C618 1.345 . S
C615 C616 1.387 . S
C615 C619 1.391 . S
C616 C615 1.387 . S
C616 C617 1.369 . S
C616 H625 0.929 . S
C617 N614 1.346 . S
C617 C616 1.369 . S
C617 H620 0.928 . S
C618 N614 1.345 . S
C618 C619 1.371 . S
C618 H621 0.931 . S
C619 C615 1.391 . S
C619 C618 1.371 . S
C619 H626 0.930 . S
H620 C617 0.928 . S
H621 C618 0.931 . S
H622 C598 0.930 . S
H623 C595 0.930 . S
H624 C604 0.930 . S
H625 C616 0.929 . S
H626 C619 0.930 . S
C627 C628 1.351 . S
C627 N630 1.368 . S
C627 H632 0.931 . S
C628 C627 1.351 . S
C628 N629 1.373 . S
C628 H656 0.930 . S
N629 C628 1.373 . S
N629 C631 1.340 . S
N630 C627 1.368 . S
N630 C631 1.321 . S
N630 Co633 2.135 . S
C631 N629 1.340 . S
C631 N630 1.321 . S
C631 H655 0.930 . S
H632 C627 0.931 . S
Co633 N630 2.135 . S
Co633 N636 2.121 . S
Co633 O641 2.055 . S
Co633 O644 2.039 . S
Co633 N647 2.140 . S
C634 O635 1.227 . S
C634 O644 1.265 . S
O635 C634 1.227 . S
N636 Co633 2.121 . S
N636 C638 1.375 . S
N636 C639 1.313 . S
C637 C638 1.338 . S
C637 N640 1.377 . S
C637 H657 0.930 . S
C638 N636 1.375 . S
C638 C637 1.338 . S
C638 H642 0.931 . S
C639 N636 1.313 . S
C639 N640 1.344 . S
C639 H643 0.930 . S
N640 C637 1.377 . S
N640 C639 1.344 . S
O641 Co633 2.055 . S
O641 C645 1.253 . S
H642 C638 0.931 . S
H643 C639 0.930 . S
O644 Co633 2.039 . S
O644 C634 1.265 . S
C645 O641 1.253 . S
C645 O646 1.227 . S
O646 C645 1.227 . S
N647 Co633 2.140 . S
N647 C650 1.346 . S
N647 C651 1.345 . S
C648 C649 1.387 . S
C648 C652 1.391 . S
C649 C648 1.387 . S
C649 C650 1.369 . S
C649 H658 0.929 . S
C650 N647 1.346 . S
C650 C649 1.369 . S
C650 H653 0.928 . S
C651 N647 1.345 . S
C651 C652 1.371 . S
C651 H654 0.931 . S
C652 C648 1.391 . S
C652 C651 1.371 . S
C652 H659 0.930 . S
H653 C650 0.928 . S
H654 C651 0.931 . S
H655 C631 0.930 . S
H656 C628 0.930 . S
H657 C637 0.930 . S
H658 C649 0.929 . S
H659 C652 0.930 . S
C660 C661 1.351 . S
C660 N663 1.368 . S
C660 H665 0.931 . S
C661 C660 1.351 . S
C661 N662 1.373 . S
C661 H689 0.930 . S
N662 C661 1.373 . S
N662 C664 1.340 . S
N663 C660 1.368 . S
N663 C664 1.321 . S
N663 Co666 2.135 . S
C664 N662 1.340 . S
C664 N663 1.321 . S
C664 H688 0.930 . S
H665 C660 0.931 . S
Co666 N663 2.135 . S
Co666 N669 2.121 . S
Co666 O674 2.055 . S
Co666 O677 2.039 . S
Co666 N680 2.140 . S
C667 O668 1.227 . S
C667 O677 1.265 . S
O668 C667 1.227 . S
N669 Co666 2.121 . S
N669 C671 1.375 . S
N669 C672 1.313 . S
C670 C671 1.338 . S
C670 N673 1.377 . S
C670 H690 0.930 . S
C671 N669 1.375 . S
C671 C670 1.338 . S
C671 H675 0.931 . S
C672 N669 1.313 . S
C672 N673 1.344 . S
C672 H676 0.930 . S
N673 C670 1.377 . S
N673 C672 1.344 . S
O674 Co666 2.055 . S
O674 C678 1.253 . S
H675 C671 0.931 . S
H676 C672 0.930 . S
O677 Co666 2.039 . S
O677 C667 1.265 . S
C678 O674 1.253 . S
C678 O679 1.227 . S
O679 C678 1.227 . S
N680 Co666 2.140 . S
N680 C683 1.346 . S
N680 C684 1.345 . S
C681 C682 1.387 . S
C681 C685 1.391 . S
C682 C681 1.387 . S
C682 C683 1.369 . S
C682 H691 0.929 . S
C683 N680 1.346 . S
C683 C682 1.369 . S
C683 H686 0.928 . S
C684 N680 1.345 . S
C684 C685 1.371 . S
C684 H687 0.931 . S
C685 C681 1.391 . S
C685 C684 1.371 . S
C685 H692 0.930 . S
H686 C683 0.928 . S
H687 C684 0.931 . S
H688 C664 0.930 . S
H689 C661 0.930 . S
H690 C670 0.930 . S
H691 C682 0.929 . S
H692 C685 0.930 . S
C693 C694 1.351 . S
C693 N696 1.368 . S
C693 H698 0.931 . S
C694 C693 1.351 . S
C694 N695 1.373 . S
C694 H722 0.930 . S
N695 C694 1.373 . S
N695 C697 1.340 . S
N696 C693 1.368 . S
N696 C697 1.321 . S
N696 Co699 2.135 . S
C697 N695 1.340 . S
C697 N696 1.321 . S
C697 H721 0.930 . S
H698 C693 0.931 . S
Co699 N696 2.135 . S
Co699 N702 2.121 . S
Co699 O707 2.055 . S
Co699 O710 2.039 . S
Co699 N713 2.140 . S
C700 O701 1.227 . S
C700 O710 1.265 . S
O701 C700 1.227 . S
N702 Co699 2.121 . S
N702 C704 1.375 . S
N702 C705 1.313 . S
C703 C704 1.338 . S
C703 N706 1.377 . S
C703 H723 0.930 . S
C704 N702 1.375 . S
C704 C703 1.338 . S
C704 H708 0.931 . S
C705 N702 1.313 . S
C705 N706 1.344 . S
C705 H709 0.930 . S
N706 C703 1.377 . S
N706 C705 1.344 . S
O707 Co699 2.055 . S
O707 C711 1.253 . S
H708 C704 0.931 . S
H709 C705 0.930 . S
O710 Co699 2.039 . S
O710 C700 1.265 . S
C711 O707 1.253 . S
C711 O712 1.227 . S
O712 C711 1.227 . S
N713 Co699 2.140 . S
N713 C716 1.346 . S
N713 C717 1.345 . S
C714 C715 1.387 . S
C714 C718 1.391 . S
C715 C714 1.387 . S
C715 C716 1.369 . S
C715 H724 0.929 . S
C716 N713 1.346 . S
C716 C715 1.369 . S
C716 H719 0.928 . S
C717 N713 1.345 . S
C717 C718 1.371 . S
C717 H720 0.931 . S
C718 C714 1.391 . S
C718 C717 1.371 . S
C718 H725 0.930 . S
H719 C716 0.928 . S
H720 C717 0.931 . S
H721 C697 0.930 . S
H722 C694 0.930 . S
H723 C703 0.930 . S
H724 C715 0.929 . S
H725 C718 0.930 . S
C726 C727 1.351 . S
C726 N729 1.368 . S
C726 H731 0.931 . S
C727 C726 1.351 . S
C727 N728 1.373 . S
C727 H755 0.930 . S
N728 C727 1.373 . S
N728 C730 1.340 . S
N729 C726 1.368 . S
N729 C730 1.321 . S
N729 Co732 2.135 . S
C730 N728 1.340 . S
C730 N729 1.321 . S
C730 H754 0.930 . S
H731 C726 0.931 . S
Co732 N729 2.135 . S
Co732 N735 2.121 . S
Co732 O740 2.055 . S
Co732 O743 2.039 . S
Co732 N746 2.140 . S
C733 O734 1.227 . S
C733 O743 1.265 . S
O734 C733 1.227 . S
N735 Co732 2.121 . S
N735 C737 1.375 . S
N735 C738 1.313 . S
C736 C737 1.338 . S
C736 N739 1.377 . S
C736 H756 0.930 . S
C737 N735 1.375 . S
C737 C736 1.338 . S
C737 H741 0.931 . S
C738 N735 1.313 . S
C738 N739 1.344 . S
C738 H742 0.930 . S
N739 C736 1.377 . S
N739 C738 1.344 . S
O740 Co732 2.055 . S
O740 C744 1.253 . S
H741 C737 0.931 . S
H742 C738 0.930 . S
O743 Co732 2.039 . S
O743 C733 1.265 . S
C744 O740 1.253 . S
C744 O745 1.227 . S
O745 C744 1.227 . S
N746 Co732 2.140 . S
N746 C749 1.346 . S
N746 C750 1.345 . S
C747 C748 1.387 . S
C747 C751 1.391 . S
C748 C747 1.387 . S
C748 C749 1.369 . S
C748 H757 0.929 . S
C749 N746 1.346 . S
C749 C748 1.369 . S
C749 H752 0.928 . S
C750 N746 1.345 . S
C750 C751 1.371 . S
C750 H753 0.931 . S
C751 C747 1.391 . S
C751 C750 1.371 . S
C751 H758 0.930 . S
H752 C749 0.928 . S
H753 C750 0.931 . S
H754 C730 0.930 . S
H755 C727 0.930 . S
H756 C736 0.930 . S
H757 C748 0.929 . S
H758 C751 0.930 . S
C759 C760 1.351 . S
C759 N762 1.368 . S
C759 H764 0.931 . S
C760 C759 1.351 . S
C760 N761 1.373 . S
C760 H788 0.930 . S
N761 C760 1.373 . S
N761 C763 1.340 . S
N762 C759 1.368 . S
N762 C763 1.321 . S
N762 Co765 2.135 . S
C763 N761 1.340 . S
C763 N762 1.321 . S
C763 H787 0.930 . S
H764 C759 0.931 . S
Co765 N762 2.135 . S
Co765 N768 2.121 . S
Co765 O773 2.055 . S
Co765 O776 2.039 . S
Co765 N779 2.140 . S
C766 O767 1.227 . S
C766 O776 1.265 . S
O767 C766 1.227 . S
N768 Co765 2.121 . S
N768 C770 1.375 . S
N768 C771 1.313 . S
C769 C770 1.338 . S
C769 N772 1.377 . S
C769 H789 0.930 . S
C770 N768 1.375 . S
C770 C769 1.338 . S
C770 H774 0.931 . S
C771 N768 1.313 . S
C771 N772 1.344 . S
C771 H775 0.930 . S
N772 C769 1.377 . S
N772 C771 1.344 . S
O773 Co765 2.055 . S
O773 C777 1.253 . S
H774 C770 0.931 . S
H775 C771 0.930 . S
O776 Co765 2.039 . S
O776 C766 1.265 . S
C777 O773 1.253 . S
C777 O778 1.227 . S
O778 C777 1.227 . S
N779 Co765 2.140 . S
N779 C782 1.346 . S
N779 C783 1.345 . S
C780 C781 1.387 . S
C780 C784 1.391 . S
C781 C780 1.387 . S
C781 C782 1.369 . S
C781 H790 0.929 . S
C782 N779 1.346 . S
C782 C781 1.369 . S
C782 H785 0.928 . S
C783 N779 1.345 . S
C783 C784 1.371 . S
C783 H786 0.931 . S
C784 C780 1.391 . S
C784 C783 1.371 . S
C784 H791 0.930 . S
H785 C782 0.928 . S
H786 C783 0.931 . S
H787 C763 0.930 . S
H788 C760 0.930 . S
H789 C769 0.930 . S
H790 C781 0.929 . S
H791 C784 0.930 . S
C792 C793 1.351 . S
C792 N795 1.368 . S
C792 H797 0.931 . S
C793 C792 1.351 . S
C793 N794 1.373 . S
C793 H821 0.930 . S
N794 C793 1.373 . S
N794 C796 1.340 . S
N795 C792 1.368 . S
N795 C796 1.321 . S
N795 Co798 2.135 . S
C796 N794 1.340 . S
C796 N795 1.321 . S
C796 H820 0.930 . S
H797 C792 0.931 . S
Co798 N795 2.135 . S
Co798 N801 2.121 . S
Co798 O806 2.055 . S
Co798 O809 2.039 . S
Co798 N812 2.140 . S
C799 O800 1.227 . S
C799 O809 1.265 . S
O800 C799 1.227 . S
N801 Co798 2.121 . S
N801 C803 1.375 . S
N801 C804 1.313 . S
C802 C803 1.338 . S
C802 N805 1.377 . S
C802 H822 0.930 . S
C803 N801 1.375 . S
C803 C802 1.338 . S
C803 H807 0.931 . S
C804 N801 1.313 . S
C804 N805 1.344 . S
C804 H808 0.930 . S
N805 C802 1.377 . S
N805 C804 1.344 . S
O806 Co798 2.055 . S
O806 C810 1.253 . S
H807 C803 0.931 . S
H808 C804 0.930 . S
O809 Co798 2.039 . S
O809 C799 1.265 . S
C810 O806 1.253 . S
C810 O811 1.227 . S
O811 C810 1.227 . S
N812 Co798 2.140 . S
N812 C815 1.346 . S
N812 C816 1.345 . S
C813 C814 1.387 . S
C813 C817 1.391 . S
C814 C813 1.387 . S
C814 C815 1.369 . S
C814 H823 0.929 . S
C815 N812 1.346 . S
C815 C814 1.369 . S
C815 H818 0.928 . S
C816 N812 1.345 . S
C816 C817 1.371 . S
C816 H819 0.931 . S
C817 C813 1.391 . S
C817 C816 1.371 . S
C817 H824 0.930 . S
H818 C815 0.928 . S
H819 C816 0.931 . S
H820 C796 0.930 . S
H821 C793 0.930 . S
H822 C802 0.930 . S
H823 C814 0.929 . S
H824 C817 0.930 . S
C825 C826 1.351 . S
C825 N828 1.368 . S
C825 H830 0.931 . S
C826 C825 1.351 . S
C826 N827 1.373 . S
C826 H854 0.930 . S
N827 C826 1.373 . S
N827 C829 1.340 . S
N828 C825 1.368 . S
N828 C829 1.321 . S
N828 Co831 2.135 . S
C829 N827 1.340 . S
C829 N828 1.321 . S
C829 H853 0.930 . S
H830 C825 0.931 . S
Co831 N828 2.135 . S
Co831 N834 2.121 . S
Co831 O839 2.055 . S
Co831 O842 2.039 . S
Co831 N845 2.140 . S
C832 O833 1.227 . S
C832 O842 1.265 . S
O833 C832 1.227 . S
N834 Co831 2.121 . S
N834 C836 1.375 . S
N834 C837 1.313 . S
C835 C836 1.338 . S
C835 N838 1.377 . S
C835 H855 0.930 . S
C836 N834 1.375 . S
C836 C835 1.338 . S
C836 H840 0.931 . S
C837 N834 1.313 . S
C837 N838 1.344 . S
C837 H841 0.930 . S
N838 C835 1.377 . S
N838 C837 1.344 . S
O839 Co831 2.055 . S
O839 C843 1.253 . S
H840 C836 0.931 . S
H841 C837 0.930 . S
O842 Co831 2.039 . S
O842 C832 1.265 . S
C843 O839 1.253 . S
C843 O844 1.227 . S
O844 C843 1.227 . S
N845 Co831 2.140 . S
N845 C848 1.346 . S
N845 C849 1.345 . S
C846 C847 1.387 . S
C846 C850 1.391 . S
C847 C846 1.387 . S
C847 C848 1.369 . S
C847 H856 0.929 . S
C848 N845 1.346 . S
C848 C847 1.369 . S
C848 H851 0.928 . S
C849 N845 1.345 . S
C849 C850 1.371 . S
C849 H852 0.931 . S
C850 C846 1.391 . S
C850 C849 1.371 . S
C850 H857 0.930 . S
H851 C848 0.928 . S
H852 C849 0.931 . S
H853 C829 0.930 . S
H854 C826 0.930 . S
H855 C835 0.930 . S
H856 C847 0.929 . S
H857 C850 0.930 . S
C858 C859 1.351 . S
C858 N861 1.368 . S
C858 H863 0.931 . S
C859 C858 1.351 . S
C859 N860 1.373 . S
C859 H887 0.930 . S
N860 C859 1.373 . S
N860 C862 1.340 . S
N861 C858 1.368 . S
N861 C862 1.321 . S
N861 Co864 2.135 . S
C862 N860 1.340 . S
C862 N861 1.321 . S
C862 H886 0.930 . S
H863 C858 0.931 . S
Co864 N861 2.135 . S
Co864 N867 2.121 . S
Co864 O872 2.055 . S
Co864 O875 2.039 . S
Co864 N878 2.140 . S
C865 O866 1.227 . S
C865 O875 1.265 . S
O866 C865 1.227 . S
N867 Co864 2.121 . S
N867 C869 1.375 . S
N867 C870 1.313 . S
C868 C869 1.338 . S
C868 N871 1.377 . S
C868 H888 0.930 . S
C869 N867 1.375 . S
C869 C868 1.338 . S
C869 H873 0.931 . S
C870 N867 1.313 . S
C870 N871 1.344 . S
C870 H874 0.930 . S
N871 C868 1.377 . S
N871 C870 1.344 . S
O872 Co864 2.055 . S
O872 C876 1.253 . S
H873 C869 0.931 . S
H874 C870 0.930 . S
O875 Co864 2.039 . S
O875 C865 1.265 . S
C876 O872 1.253 . S
C876 O877 1.227 . S
O877 C876 1.227 . S
N878 Co864 2.140 . S
N878 C881 1.346 . S
N878 C882 1.345 . S
C879 C880 1.387 . S
C879 C883 1.391 . S
C880 C879 1.387 . S
C880 C881 1.369 . S
C880 H889 0.929 . S
C881 N878 1.346 . S
C881 C880 1.369 . S
C881 H884 0.928 . S
C882 N878 1.345 . S
C882 C883 1.371 . S
C882 H885 0.931 . S
C883 C879 1.391 . S
C883 C882 1.371 . S
C883 H890 0.930 . S
H884 C881 0.928 . S
H885 C882 0.931 . S
H886 C862 0.930 . S
H887 C859 0.930 . S
H888 C868 0.930 . S
H889 C880 0.929 . S
H890 C883 0.930 . S
C891 C892 1.351 . S
C891 N894 1.368 . S
C891 H896 0.931 . S
C892 C891 1.351 . S
C892 N893 1.373 . S
C892 H920 0.930 . S
N893 C892 1.373 . S
N893 C895 1.340 . S
N894 C891 1.368 . S
N894 C895 1.321 . S
N894 Co897 2.135 . S
C895 N893 1.340 . S
C895 N894 1.321 . S
C895 H919 0.930 . S
H896 C891 0.931 . S
Co897 N894 2.135 . S
Co897 N900 2.121 . S
Co897 O905 2.055 . S
Co897 O908 2.039 . S
Co897 N911 2.140 . S
C898 O899 1.227 . S
C898 O908 1.265 . S
O899 C898 1.227 . S
N900 Co897 2.121 . S
N900 C902 1.375 . S
N900 C903 1.313 . S
C901 C902 1.338 . S
C901 N904 1.377 . S
C901 H921 0.930 . S
C902 N900 1.375 . S
C902 C901 1.338 . S
C902 H906 0.931 . S
C903 N900 1.313 . S
C903 N904 1.344 . S
C903 H907 0.930 . S
N904 C901 1.377 . S
N904 C903 1.344 . S
O905 Co897 2.055 . S
O905 C909 1.253 . S
H906 C902 0.931 . S
H907 C903 0.930 . S
O908 Co897 2.039 . S
O908 C898 1.265 . S
C909 O905 1.253 . S
C909 O910 1.227 . S
O910 C909 1.227 . S
N911 Co897 2.140 . S
N911 C914 1.346 . S
N911 C915 1.345 . S
C912 C913 1.387 . S
C912 C916 1.391 . S
C913 C912 1.387 . S
C913 C914 1.369 . S
C913 H922 0.929 . S
C914 N911 1.346 . S
C914 C913 1.369 . S
C914 H917 0.928 . S
C915 N911 1.345 . S
C915 C916 1.371 . S
C915 H918 0.931 . S
C916 C912 1.391 . S
C916 C915 1.371 . S
C916 H923 0.930 . S
H917 C914 0.928 . S
H918 C915 0.931 . S
H919 C895 0.930 . S
H920 C892 0.930 . S
H921 C901 0.930 . S
H922 C913 0.929 . S
H923 C916 0.930 . S
C924 C925 1.351 . S
C924 N927 1.368 . S
C924 H929 0.931 . S
C925 C924 1.351 . S
C925 N926 1.373 . S
C925 H953 0.930 . S
N926 C925 1.373 . S
N926 C928 1.340 . S
N927 C924 1.368 . S
N927 C928 1.321 . S
N927 Co930 2.135 . S
C928 N926 1.340 . S
C928 N927 1.321 . S
C928 H952 0.930 . S
H929 C924 0.931 . S
Co930 N927 2.135 . S
Co930 N933 2.121 . S
Co930 O938 2.055 . S
Co930 O941 2.039 . S
Co930 N944 2.140 . S
C931 O932 1.227 . S
C931 O941 1.265 . S
O932 C931 1.227 . S
N933 Co930 2.121 . S
N933 C935 1.375 . S
N933 C936 1.313 . S
C934 C935 1.338 . S
C934 N937 1.377 . S
C934 H954 0.930 . S
C935 N933 1.375 . S
C935 C934 1.338 . S
C935 H939 0.931 . S
C936 N933 1.313 . S
C936 N937 1.344 . S
C936 H940 0.930 . S
N937 C934 1.377 . S
N937 C936 1.344 . S
O938 Co930 2.055 . S
O938 C942 1.253 . S
H939 C935 0.931 . S
H940 C936 0.930 . S
O941 Co930 2.039 . S
O941 C931 1.265 . S
C942 O938 1.253 . S
C942 O943 1.227 . S
O943 C942 1.227 . S
N944 Co930 2.140 . S
N944 C947 1.346 . S
N944 C948 1.345 . S
C945 C946 1.387 . S
C945 C949 1.391 . S
C946 C945 1.387 . S
C946 C947 1.369 . S
C946 H955 0.929 . S
C947 N944 1.346 . S
C947 C946 1.369 . S
C947 H950 0.928 . S
C948 N944 1.345 . S
C948 C949 1.371 . S
C948 H951 0.931 . S
C949 C945 1.391 . S
C949 C948 1.371 . S
C949 H956 0.930 . S
H950 C947 0.928 . S
H951 C948 0.931 . S
H952 C928 0.930 . S
H953 C925 0.930 . S
H954 C934 0.930 . S
H955 C946 0.929 . S
H956 C949 0.930 . S
C957 C958 1.351 . S
C957 N960 1.368 . S
C957 H962 0.931 . S
C958 C957 1.351 . S
C958 N959 1.373 . S
C958 H986 0.930 . S
N959 C958 1.373 . S
N959 C961 1.340 . S
N960 C957 1.368 . S
N960 C961 1.321 . S
N960 Co963 2.135 . S
C961 N959 1.340 . S
C961 N960 1.321 . S
C961 H985 0.930 . S
H962 C957 0.931 . S
Co963 N960 2.135 . S
Co963 N966 2.121 . S
Co963 O971 2.055 . S
Co963 O974 2.039 . S
Co963 N977 2.140 . S
C964 O965 1.227 . S
C964 O974 1.265 . S
O965 C964 1.227 . S
N966 Co963 2.121 . S
N966 C968 1.375 . S
N966 C969 1.313 . S
C967 C968 1.338 . S
C967 N970 1.377 . S
C967 H987 0.930 . S
C968 N966 1.375 . S
C968 C967 1.338 . S
C968 H972 0.931 . S
C969 N966 1.313 . S
C969 N970 1.344 . S
C969 H973 0.930 . S
N970 C967 1.377 . S
N970 C969 1.344 . S
O971 Co963 2.055 . S
O971 C975 1.253 . S
H972 C968 0.931 . S
H973 C969 0.930 . S
O974 Co963 2.039 . S
O974 C964 1.265 . S
C975 O971 1.253 . S
C975 O976 1.227 . S
O976 C975 1.227 . S
N977 Co963 2.140 . S
N977 C980 1.346 . S
N977 C981 1.345 . S
C978 C979 1.387 . S
C978 C982 1.391 . S
C979 C978 1.387 . S
C979 C980 1.369 . S
C979 H988 0.929 . S
C980 N977 1.346 . S
C980 C979 1.369 . S
C980 H983 0.928 . S
C981 N977 1.345 . S
C981 C982 1.371 . S
C981 H984 0.931 . S
C982 C978 1.391 . S
C982 C981 1.371 . S
C982 H989 0.930 . S
H983 C980 0.928 . S
H984 C981 0.931 . S
H985 C961 0.930 . S
H986 C958 0.930 . S
H987 C967 0.930 . S
H988 C979 0.929 . S
H989 C982 0.930 . S
C990 C991 1.351 . S
C990 N993 1.368 . S
C990 H995 0.931 . S
C991 C990 1.351 . S
C991 N992 1.373 . S
C991 H1019 0.930 . S
N992 C991 1.373 . S
N992 C994 1.340 . S
N993 C990 1.368 . S
N993 C994 1.321 . S
N993 Co996 2.135 . S
C994 N992 1.340 . S
C994 N993 1.321 . S
C994 H1018 0.930 . S
H995 C990 0.931 . S
Co996 N993 2.135 . S
Co996 N999 2.121 . S
Co996 O1004 2.055 . S
Co996 O1007 2.039 . S
Co996 N1010 2.140 . S
C997 O998 1.227 . S
C997 O1007 1.265 . S
O998 C997 1.227 . S
N999 Co996 2.121 . S
N999 C1001 1.375 . S
N999 C1002 1.313 . S
C1000 C1001 1.338 . S
C1000 N1003 1.377 . S
C1000 H1020 0.930 . S
C1001 N999 1.375 . S
C1001 C1000 1.338 . S
C1001 H1005 0.931 . S
C1002 N999 1.313 . S
C1002 N1003 1.344 . S
C1002 H1006 0.930 . S
N1003 C1000 1.377 . S
N1003 C1002 1.344 . S
O1004 Co996 2.055 . S
O1004 C1008 1.253 . S
H1005 C1001 0.931 . S
H1006 C1002 0.930 . S
O1007 Co996 2.039 . S
O1007 C997 1.265 . S
C1008 O1004 1.253 . S
C1008 O1009 1.227 . S
O1009 C1008 1.227 . S
N1010 Co996 2.140 . S
N1010 C1013 1.346 . S
N1010 C1014 1.345 . S
C1011 C1012 1.387 . S
C1011 C1015 1.391 . S
C1012 C1011 1.387 . S
C1012 C1013 1.369 . S
C1012 H1021 0.929 . S
C1013 N1010 1.346 . S
C1013 C1012 1.369 . S
C1013 H1016 0.928 . S
C1014 N1010 1.345 . S
C1014 C1015 1.371 . S
C1014 H1017 0.931 . S
C1015 C1011 1.391 . S
C1015 C1014 1.371 . S
C1015 H1022 0.930 . S
H1016 C1013 0.928 . S
H1017 C1014 0.931 . S
H1018 C994 0.930 . S
H1019 C991 0.930 . S
H1020 C1000 0.930 . S
H1021 C1012 0.929 . S
H1022 C1015 0.930 . S
C1023 C1024 1.351 . S
C1023 N1026 1.368 . S
C1023 H1028 0.931 . S
C1024 C1023 1.351 . S
C1024 N1025 1.373 . S
C1024 H1052 0.930 . S
N1025 C1024 1.373 . S
N1025 C1027 1.340 . S
N1026 C1023 1.368 . S
N1026 C1027 1.321 . S
N1026 Co1029 2.135 . S
C1027 N1025 1.340 . S
C1027 N1026 1.321 . S
C1027 H1051 0.930 . S
H1028 C1023 0.931 . S
Co1029 N1026 2.135 . S
Co1029 N1032 2.121 . S
Co1029 O1037 2.055 . S
Co1029 O1040 2.039 . S
Co1029 N1043 2.140 . S
C1030 O1031 1.227 . S
C1030 O1040 1.265 . S
O1031 C1030 1.227 . S
N1032 Co1029 2.121 . S
N1032 C1034 1.375 . S
N1032 C1035 1.313 . S
C1033 C1034 1.338 . S
C1033 N1036 1.377 . S
C1033 H1053 0.930 . S
C1034 N1032 1.375 . S
C1034 C1033 1.338 . S
C1034 H1038 0.931 . S
C1035 N1032 1.313 . S
C1035 N1036 1.344 . S
C1035 H1039 0.930 . S
N1036 C1033 1.377 . S
N1036 C1035 1.344 . S
O1037 Co1029 2.055 . S
O1037 C1041 1.253 . S
H1038 C1034 0.931 . S
H1039 C1035 0.930 . S
O1040 Co1029 2.039 . S
O1040 C1030 1.265 . S
C1041 O1037 1.253 . S
C1041 O1042 1.227 . S
O1042 C1041 1.227 . S
N1043 Co1029 2.140 . S
N1043 C1046 1.346 . S
N1043 C1047 1.345 . S
C1044 C1045 1.387 . S
C1044 C1048 1.391 . S
C1045 C1044 1.387 . S
C1045 C1046 1.369 . S
C1045 H1054 0.929 . S
C1046 N1043 1.346 . S
C1046 C1045 1.369 . S
C1046 H1049 0.928 . S
C1047 N1043 1.345 . S
C1047 C1048 1.371 . S
C1047 H1050 0.931 . S
C1048 C1044 1.391 . S
C1048 C1047 1.371 . S
C1048 H1055 0.930 . S
H1049 C1046 0.928 . S
H1050 C1047 0.931 . S
H1051 C1027 0.930 . S
H1052 C1024 0.930 . S
H1053 C1033 0.930 . S
H1054 C1045 0.929 . S
H1055 C1048 0.930 . S
C1056 C1057 1.351 . S
C1056 N1059 1.368 . S
C1056 H1061 0.931 . S
C1057 C1056 1.351 . S
C1057 N1058 1.373 . S
C1057 H1085 0.930 . S
N1058 C1057 1.373 . S
N1058 C1060 1.340 . S
N1059 C1056 1.368 . S
N1059 C1060 1.321 . S
N1059 Co1062 2.135 . S
C1060 N1058 1.340 . S
C1060 N1059 1.321 . S
C1060 H1084 0.930 . S
H1061 C1056 0.931 . S
Co1062 N1059 2.135 . S
Co1062 N1065 2.121 . S
Co1062 O1070 2.055 . S
Co1062 O1073 2.039 . S
Co1062 N1076 2.140 . S
C1063 O1064 1.227 . S
C1063 O1073 1.265 . S
O1064 C1063 1.227 . S
N1065 Co1062 2.121 . S
N1065 C1067 1.375 . S
N1065 C1068 1.313 . S
C1066 C1067 1.338 . S
C1066 N1069 1.377 . S
C1066 H1086 0.930 . S
C1067 N1065 1.375 . S
C1067 C1066 1.338 . S
C1067 H1071 0.931 . S
C1068 N1065 1.313 . S
C1068 N1069 1.344 . S
C1068 H1072 0.930 . S
N1069 C1066 1.377 . S
N1069 C1068 1.344 . S
O1070 Co1062 2.055 . S
O1070 C1074 1.253 . S
H1071 C1067 0.931 . S
H1072 C1068 0.930 . S
O1073 Co1062 2.039 . S
O1073 C1063 1.265 . S
C1074 O1070 1.253 . S
C1074 O1075 1.227 . S
O1075 C1074 1.227 . S
N1076 Co1062 2.140 . S
N1076 C1079 1.346 . S
N1076 C1080 1.345 . S
C1077 C1078 1.387 . S
C1077 C1081 1.391 . S
C1078 C1077 1.387 . S
C1078 C1079 1.369 . S
C1078 H1087 0.929 . S
C1079 N1076 1.346 . S
C1079 C1078 1.369 . S
C1079 H1082 0.928 . S
C1080 N1076 1.345 . S
C1080 C1081 1.371 . S
C1080 H1083 0.931 . S
C1081 C1077 1.391 . S
C1081 C1080 1.371 . S
C1081 H1088 0.930 . S
H1082 C1079 0.928 . S
H1083 C1080 0.931 . S
H1084 C1060 0.930 . S
H1085 C1057 0.930 . S
H1086 C1066 0.930 . S
H1087 C1078 0.929 . S
H1088 C1081 0.930 . S
C1089 C1090 1.351 . S
C1089 N1092 1.368 . S
C1089 H1094 0.931 . S
C1090 C1089 1.351 . S
C1090 N1091 1.373 . S
C1090 H1118 0.930 . S
N1091 C1090 1.373 . S
N1091 C1093 1.340 . S
N1092 C1089 1.368 . S
N1092 C1093 1.321 . S
N1092 Co1095 2.135 . S
C1093 N1091 1.340 . S
C1093 N1092 1.321 . S
C1093 H1117 0.930 . S
H1094 C1089 0.931 . S
Co1095 N1092 2.135 . S
Co1095 N1098 2.121 . S
Co1095 O1103 2.055 . S
Co1095 O1106 2.039 . S
Co1095 N1109 2.140 . S
C1096 O1097 1.227 . S
C1096 O1106 1.265 . S
O1097 C1096 1.227 . S
N1098 Co1095 2.121 . S
N1098 C1100 1.375 . S
N1098 C1101 1.313 . S
C1099 C1100 1.338 . S
C1099 N1102 1.377 . S
C1099 H1119 0.930 . S
C1100 N1098 1.375 . S
C1100 C1099 1.338 . S
C1100 H1104 0.931 . S
C1101 N1098 1.313 . S
C1101 N1102 1.344 . S
C1101 H1105 0.930 . S
N1102 C1099 1.377 . S
N1102 C1101 1.344 . S
O1103 Co1095 2.055 . S
O1103 C1107 1.253 . S
H1104 C1100 0.931 . S
H1105 C1101 0.930 . S
O1106 Co1095 2.039 . S
O1106 C1096 1.265 . S
C1107 O1103 1.253 . S
C1107 O1108 1.227 . S
O1108 C1107 1.227 . S
N1109 Co1095 2.140 . S
N1109 C1112 1.346 . S
N1109 C1113 1.345 . S
C1110 C1111 1.387 . S
C1110 C1114 1.391 . S
C1111 C1110 1.387 . S
C1111 C1112 1.369 . S
C1111 H1120 0.929 . S
C1112 N1109 1.346 . S
C1112 C1111 1.369 . S
C1112 H1115 0.928 . S
C1113 N1109 1.345 . S
C1113 C1114 1.371 . S
C1113 H1116 0.931 . S
C1114 C1110 1.391 . S
C1114 C1113 1.371 . S
C1114 H1121 0.930 . S
H1115 C1112 0.928 . S
H1116 C1113 0.931 . S
H1117 C1093 0.930 . S
H1118 C1090 0.930 . S
H1119 C1099 0.930 . S
H1120 C1111 0.929 . S
H1121 C1114 0.930 . S
C1122 C1123 1.351 . S
C1122 N1125 1.368 . S
C1122 H1127 0.931 . S
C1123 C1122 1.351 . S
C1123 N1124 1.373 . S
C1123 H1151 0.930 . S
N1124 C1123 1.373 . S
N1124 C1126 1.340 . S
N1125 C1122 1.368 . S
N1125 C1126 1.321 . S
N1125 Co1128 2.135 . S
C1126 N1124 1.340 . S
C1126 N1125 1.321 . S
C1126 H1150 0.930 . S
H1127 C1122 0.931 . S
Co1128 N1125 2.135 . S
Co1128 N1131 2.121 . S
Co1128 O1136 2.055 . S
Co1128 O1139 2.039 . S
Co1128 N1142 2.140 . S
C1129 O1130 1.227 . S
C1129 O1139 1.265 . S
O1130 C1129 1.227 . S
N1131 Co1128 2.121 . S
N1131 C1133 1.375 . S
N1131 C1134 1.313 . S
C1132 C1133 1.338 . S
C1132 N1135 1.377 . S
C1132 H1152 0.930 . S
C1133 N1131 1.375 . S
C1133 C1132 1.338 . S
C1133 H1137 0.931 . S
C1134 N1131 1.313 . S
C1134 N1135 1.344 . S
C1134 H1138 0.930 . S
N1135 C1132 1.377 . S
N1135 C1134 1.344 . S
O1136 Co1128 2.055 . S
O1136 C1140 1.253 . S
H1137 C1133 0.931 . S
H1138 C1134 0.930 . S
O1139 Co1128 2.039 . S
O1139 C1129 1.265 . S
C1140 O1136 1.253 . S
C1140 O1141 1.227 . S
O1141 C1140 1.227 . S
N1142 Co1128 2.140 . S
N1142 C1145 1.346 . S
N1142 C1146 1.345 . S
C1143 C1144 1.387 . S
C1143 C1147 1.391 . S
C1144 C1143 1.387 . S
C1144 C1145 1.369 . S
C1144 H1153 0.929 . S
C1145 N1142 1.346 . S
C1145 C1144 1.369 . S
C1145 H1148 0.928 . S
C1146 N1142 1.345 . S
C1146 C1147 1.371 . S
C1146 H1149 0.931 . S
C1147 C1143 1.391 . S
C1147 C1146 1.371 . S
C1147 H1154 0.930 . S
H1148 C1145 0.928 . S
H1149 C1146 0.931 . S
H1150 C1126 0.930 . S
H1151 C1123 0.930 . S
H1152 C1132 0.930 . S
H1153 C1144 0.929 . S
H1154 C1147 0.930 . S
C1155 C1156 1.351 . S
C1155 N1158 1.368 . S
C1155 H1160 0.931 . S
C1156 C1155 1.351 . S
C1156 N1157 1.373 . S
C1156 H1184 0.930 . S
N1157 C1156 1.373 . S
N1157 C1159 1.340 . S
N1158 C1155 1.368 . S
N1158 C1159 1.321 . S
N1158 Co1161 2.135 . S
C1159 N1157 1.340 . S
C1159 N1158 1.321 . S
C1159 H1183 0.930 . S
H1160 C1155 0.931 . S
Co1161 N1158 2.135 . S
Co1161 N1164 2.121 . S
Co1161 O1169 2.055 . S
Co1161 O1172 2.039 . S
Co1161 N1175 2.140 . S
C1162 O1163 1.227 . S
C1162 O1172 1.265 . S
O1163 C1162 1.227 . S
N1164 Co1161 2.121 . S
N1164 C1166 1.375 . S
N1164 C1167 1.313 . S
C1165 C1166 1.338 . S
C1165 N1168 1.377 . S
C1165 H1185 0.930 . S
C1166 N1164 1.375 . S
C1166 C1165 1.338 . S
C1166 H1170 0.931 . S
C1167 N1164 1.313 . S
C1167 N1168 1.344 . S
C1167 H1171 0.930 . S
N1168 C1165 1.377 . S
N1168 C1167 1.344 . S
O1169 Co1161 2.055 . S
O1169 C1173 1.253 . S
H1170 C1166 0.931 . S
H1171 C1167 0.930 . S
O1172 Co1161 2.039 . S
O1172 C1162 1.265 . S
C1173 O1169 1.253 . S
C1173 O1174 1.227 . S
O1174 C1173 1.227 . S
N1175 Co1161 2.140 . S
N1175 C1178 1.346 . S
N1175 C1179 1.345 . S
C1176 C1177 1.387 . S
C1176 C1180 1.391 . S
C1177 C1176 1.387 . S
C1177 C1178 1.369 . S
C1177 H1186 0.929 . S
C1178 N1175 1.346 . S
C1178 C1177 1.369 . S
C1178 H1181 0.928 . S
C1179 N1175 1.345 . S
C1179 C1180 1.371 . S
C1179 H1182 0.931 . S
C1180 C1176 1.391 . S
C1180 C1179 1.371 . S
C1180 H1187 0.930 . S
H1181 C1178 0.928 . S
H1182 C1179 0.931 . S
H1183 C1159 0.930 . S
H1184 C1156 0.930 . S
H1185 C1165 0.930 . S
H1186 C1177 0.929 . S
H1187 C1180 0.930 . S
C1188 C1189 1.351 . S
C1188 N1191 1.368 . S
C1188 H1193 0.931 . S
C1189 C1188 1.351 . S
C1189 N1190 1.373 . S
C1189 H1217 0.930 . S
N1190 C1189 1.373 . S
N1190 C1192 1.340 . S
N1191 C1188 1.368 . S
N1191 C1192 1.321 . S
N1191 Co1194 2.135 . S
C1192 N1190 1.340 . S
C1192 N1191 1.321 . S
C1192 H1216 0.930 . S
H1193 C1188 0.931 . S
Co1194 N1191 2.135 . S
Co1194 N1197 2.121 . S
Co1194 O1202 2.055 . S
Co1194 O1205 2.039 . S
Co1194 N1208 2.140 . S
C1195 O1196 1.227 . S
C1195 O1205 1.265 . S
O1196 C1195 1.227 . S
N1197 Co1194 2.121 . S
N1197 C1199 1.375 . S
N1197 C1200 1.313 . S
C1198 C1199 1.338 . S
C1198 N1201 1.377 . S
C1198 H1218 0.930 . S
C1199 N1197 1.375 . S
C1199 C1198 1.338 . S
C1199 H1203 0.931 . S
C1200 N1197 1.313 . S
C1200 N1201 1.344 . S
C1200 H1204 0.930 . S
N1201 C1198 1.377 . S
N1201 C1200 1.344 . S
O1202 Co1194 2.055 . S
O1202 C1206 1.253 . S
H1203 C1199 0.931 . S
H1204 C1200 0.930 . S
O1205 Co1194 2.039 . S
O1205 C1195 1.265 . S
C1206 O1202 1.253 . S
C1206 O1207 1.227 . S
O1207 C1206 1.227 . S
N1208 Co1194 2.140 . S
N1208 C1211 1.346 . S
N1208 C1212 1.345 . S
C1209 C1210 1.387 . S
C1209 C1213 1.391 . S
C1210 C1209 1.387 . S
C1210 C1211 1.369 . S
C1210 H1219 0.929 . S
C1211 N1208 1.346 . S
C1211 C1210 1.369 . S
C1211 H1214 0.928 . S
C1212 N1208 1.345 . S
C1212 C1213 1.371 . S
C1212 H1215 0.931 . S
C1213 C1209 1.391 . S
C1213 C1212 1.371 . S
C1213 H1220 0.930 . S
H1214 C1211 0.928 . S
H1215 C1212 0.931 . S
H1216 C1192 0.930 . S
H1217 C1189 0.930 . S
H1218 C1198 0.930 . S
H1219 C1210 0.929 . S
H1220 C1213 0.930 . S
C1221 C1222 1.351 . S
C1221 N1224 1.368 . S
C1221 H1226 0.931 . S
C1222 C1221 1.351 . S
C1222 N1223 1.373 . S
C1222 H1250 0.930 . S
N1223 C1222 1.373 . S
N1223 C1225 1.340 . S
N1224 C1221 1.368 . S
N1224 C1225 1.321 . S
N1224 Co1227 2.135 . S
C1225 N1223 1.340 . S
C1225 N1224 1.321 . S
C1225 H1249 0.930 . S
H1226 C1221 0.931 . S
Co1227 N1224 2.135 . S
Co1227 N1230 2.121 . S
Co1227 O1235 2.055 . S
Co1227 O1238 2.039 . S
Co1227 N1241 2.140 . S
C1228 O1229 1.227 . S
C1228 O1238 1.265 . S
O1229 C1228 1.227 . S
N1230 Co1227 2.121 . S
N1230 C1232 1.375 . S
N1230 C1233 1.313 . S
C1231 C1232 1.338 . S
C1231 N1234 1.377 . S
C1231 H1251 0.930 . S
C1232 N1230 1.375 . S
C1232 C1231 1.338 . S
C1232 H1236 0.931 . S
C1233 N1230 1.313 . S
C1233 N1234 1.344 . S
C1233 H1237 0.930 . S
N1234 C1231 1.377 . S
N1234 C1233 1.344 . S
O1235 Co1227 2.055 . S
O1235 C1239 1.253 . S
H1236 C1232 0.931 . S
H1237 C1233 0.930 . S
O1238 Co1227 2.039 . S
O1238 C1228 1.265 . S
C1239 O1235 1.253 . S
C1239 O1240 1.227 . S
O1240 C1239 1.227 . S
N1241 Co1227 2.140 . S
N1241 C1244 1.346 . S
N1241 C1245 1.345 . S
C1242 C1243 1.387 . S
C1242 C1246 1.391 . S
C1243 C1242 1.387 . S
C1243 C1244 1.369 . S
C1243 H1252 0.929 . S
C1244 N1241 1.346 . S
C1244 C1243 1.369 . S
C1244 H1247 0.928 . S
C1245 N1241 1.345 . S
C1245 C1246 1.371 . S
C1245 H1248 0.931 . S
C1246 C1242 1.391 . S
C1246 C1245 1.371 . S
C1246 H1253 0.930 . S
H1247 C1244 0.928 . S
H1248 C1245 0.931 . S
H1249 C1225 0.930 . S
H1250 C1222 0.930 . S
H1251 C1231 0.930 . S
H1252 C1243 0.929 . S
H1253 C1246 0.930 . S
C1254 C1255 1.351 . S
C1254 N1257 1.368 . S
C1254 H1259 0.931 . S
C1255 C1254 1.351 . S
C1255 N1256 1.373 . S
C1255 H1283 0.930 . S
N1256 C1255 1.373 . S
N1256 C1258 1.340 . S
N1257 C1254 1.368 . S
N1257 C1258 1.321 . S
N1257 Co1260 2.135 . S
C1258 N1256 1.340 . S
C1258 N1257 1.321 . S
C1258 H1282 0.930 . S
H1259 C1254 0.931 . S
Co1260 N1257 2.135 . S
Co1260 N1263 2.121 . S
Co1260 O1268 2.055 . S
Co1260 O1271 2.039 . S
Co1260 N1274 2.140 . S
C1261 O1262 1.227 . S
C1261 O1271 1.265 . S
O1262 C1261 1.227 . S
N1263 Co1260 2.121 . S
N1263 C1265 1.375 . S
N1263 C1266 1.313 . S
C1264 C1265 1.338 . S
C1264 N1267 1.377 . S
C1264 H1284 0.930 . S
C1265 N1263 1.375 . S
C1265 C1264 1.338 . S
C1265 H1269 0.931 . S
C1266 N1263 1.313 . S
C1266 N1267 1.344 . S
C1266 H1270 0.930 . S
N1267 C1264 1.377 . S
N1267 C1266 1.344 . S
O1268 Co1260 2.055 . S
O1268 C1272 1.253 . S
H1269 C1265 0.931 . S
H1270 C1266 0.930 . S
O1271 Co1260 2.039 . S
O1271 C1261 1.265 . S
C1272 O1268 1.253 . S
C1272 O1273 1.227 . S
O1273 C1272 1.227 . S
N1274 Co1260 2.140 . S
N1274 C1277 1.346 . S
N1274 C1278 1.345 . S
C1275 C1276 1.387 . S
C1275 C1279 1.391 . S
C1276 C1275 1.387 . S
C1276 C1277 1.369 . S
C1276 H1285 0.929 . S
C1277 N1274 1.346 . S
C1277 C1276 1.369 . S
C1277 H1280 0.928 . S
C1278 N1274 1.345 . S
C1278 C1279 1.371 . S
C1278 H1281 0.931 . S
C1279 C1275 1.391 . S
C1279 C1278 1.371 . S
C1279 H1286 0.930 . S
H1280 C1277 0.928 . S
H1281 C1278 0.931 . S
H1282 C1258 0.930 . S
H1283 C1255 0.930 . S
H1284 C1264 0.930 . S
H1285 C1276 0.929 . S
H1286 C1279 0.930 . S
C1287 C1288 1.351 . S
C1287 N1290 1.368 . S
C1287 H1292 0.931 . S
C1288 C1287 1.351 . S
C1288 N1289 1.373 . S
C1288 H1316 0.930 . S
N1289 C1288 1.373 . S
N1289 C1291 1.340 . S
N1290 C1287 1.368 . S
N1290 C1291 1.321 . S
N1290 Co1293 2.135 . S
C1291 N1289 1.340 . S
C1291 N1290 1.321 . S
C1291 H1315 0.930 . S
H1292 C1287 0.931 . S
Co1293 N1290 2.135 . S
Co1293 N1296 2.121 . S
Co1293 O1301 2.055 . S
Co1293 O1304 2.039 . S
Co1293 N1307 2.140 . S
C1294 O1295 1.227 . S
C1294 O1304 1.265 . S
O1295 C1294 1.227 . S
N1296 Co1293 2.121 . S
N1296 C1298 1.375 . S
N1296 C1299 1.313 . S
C1297 C1298 1.338 . S
C1297 N1300 1.377 . S
C1297 H1317 0.930 . S
C1298 N1296 1.375 . S
C1298 C1297 1.338 . S
C1298 H1302 0.931 . S
C1299 N1296 1.313 . S
C1299 N1300 1.344 . S
C1299 H1303 0.930 . S
N1300 C1297 1.377 . S
N1300 C1299 1.344 . S
O1301 Co1293 2.055 . S
O1301 C1305 1.253 . S
H1302 C1298 0.931 . S
H1303 C1299 0.930 . S
O1304 Co1293 2.039 . S
O1304 C1294 1.265 . S
C1305 O1301 1.253 . S
C1305 O1306 1.227 . S
O1306 C1305 1.227 . S
N1307 Co1293 2.140 . S
N1307 C1310 1.346 . S
N1307 C1311 1.345 . S
C1308 C1309 1.387 . S
C1308 C1312 1.391 . S
C1309 C1308 1.387 . S
C1309 C1310 1.369 . S
C1309 H1318 0.929 . S
C1310 N1307 1.346 . S
C1310 C1309 1.369 . S
C1310 H1313 0.928 . S
C1311 N1307 1.345 . S
C1311 C1312 1.371 . S
C1311 H1314 0.931 . S
C1312 C1308 1.391 . S
C1312 C1311 1.371 . S
C1312 H1319 0.930 . S
H1313 C1310 0.928 . S
H1314 C1311 0.931 . S
H1315 C1291 0.930 . S
H1316 C1288 0.930 . S
H1317 C1297 0.930 . S
H1318 C1309 0.929 . S
H1319 C1312 0.930 . S
C1320 C1321 1.351 . S
C1320 N1323 1.368 . S
C1320 H1325 0.931 . S
C1321 C1320 1.351 . S
C1321 N1322 1.373 . S
C1321 H1349 0.930 . S
N1322 C1321 1.373 . S
N1322 C1324 1.340 . S
N1323 C1320 1.368 . S
N1323 C1324 1.321 . S
N1323 Co1326 2.135 . S
C1324 N1322 1.340 . S
C1324 N1323 1.321 . S
C1324 H1348 0.930 . S
H1325 C1320 0.931 . S
Co1326 N1323 2.135 . S
Co1326 N1329 2.121 . S
Co1326 O1334 2.055 . S
Co1326 O1337 2.039 . S
Co1326 N1340 2.140 . S
C1327 O1328 1.227 . S
C1327 O1337 1.265 . S
O1328 C1327 1.227 . S
N1329 Co1326 2.121 . S
N1329 C1331 1.375 . S
N1329 C1332 1.313 . S
C1330 C1331 1.338 . S
C1330 N1333 1.377 . S
C1330 H1350 0.930 . S
C1331 N1329 1.375 . S
C1331 C1330 1.338 . S
C1331 H1335 0.931 . S
C1332 N1329 1.313 . S
C1332 N1333 1.344 . S
C1332 H1336 0.930 . S
N1333 C1330 1.377 . S
N1333 C1332 1.344 . S
O1334 Co1326 2.055 . S
O1334 C1338 1.253 . S
H1335 C1331 0.931 . S
H1336 C1332 0.930 . S
O1337 Co1326 2.039 . S
O1337 C1327 1.265 . S
C1338 O1334 1.253 . S
C1338 O1339 1.227 . S
O1339 C1338 1.227 . S
N1340 Co1326 2.140 . S
N1340 C1343 1.346 . S
N1340 C1344 1.345 . S
C1341 C1342 1.387 . S
C1341 C1345 1.391 . S
C1342 C1341 1.387 . S
C1342 C1343 1.369 . S
C1342 H1351 0.929 . S
C1343 N1340 1.346 . S
C1343 C1342 1.369 . S
C1343 H1346 0.928 . S
C1344 N1340 1.345 . S
C1344 C1345 1.371 . S
C1344 H1347 0.931 . S
C1345 C1341 1.391 . S
C1345 C1344 1.371 . S
C1345 H1352 0.930 . S
H1346 C1343 0.928 . S
H1347 C1344 0.931 . S
H1348 C1324 0.930 . S
H1349 C1321 0.930 . S
H1350 C1330 0.930 . S
H1351 C1342 0.929 . S
H1352 C1345 0.930 . S
C1353 C1354 1.351 . S
C1353 N1356 1.368 . S
C1353 H1358 0.931 . S
C1354 C1353 1.351 . S
C1354 N1355 1.373 . S
C1354 H1382 0.930 . S
N1355 C1354 1.373 . S
N1355 C1357 1.340 . S
N1356 C1353 1.368 . S
N1356 C1357 1.321 . S
N1356 Co1359 2.135 . S
C1357 N1355 1.340 . S
C1357 N1356 1.321 . S
C1357 H1381 0.930 . S
H1358 C1353 0.931 . S
Co1359 N1356 2.135 . S
Co1359 N1362 2.121 . S
Co1359 O1367 2.055 . S
Co1359 O1370 2.039 . S
Co1359 N1373 2.140 . S
C1360 O1361 1.227 . S
C1360 O1370 1.265 . S
O1361 C1360 1.227 . S
N1362 Co1359 2.121 . S
N1362 C1364 1.375 . S
N1362 C1365 1.313 . S
C1363 C1364 1.338 . S
C1363 N1366 1.377 . S
C1363 H1383 0.930 . S
C1364 N1362 1.375 . S
C1364 C1363 1.338 . S
C1364 H1368 0.931 . S
C1365 N1362 1.313 . S
C1365 N1366 1.344 . S
C1365 H1369 0.930 . S
N1366 C1363 1.377 . S
N1366 C1365 1.344 . S
O1367 Co1359 2.055 . S
O1367 C1371 1.253 . S
H1368 C1364 0.931 . S
H1369 C1365 0.930 . S
O1370 Co1359 2.039 . S
O1370 C1360 1.265 . S
C1371 O1367 1.253 . S
C1371 O1372 1.227 . S
O1372 C1371 1.227 . S
N1373 Co1359 2.140 . S
N1373 C1376 1.346 . S
N1373 C1377 1.345 . S
C1374 C1375 1.387 . S
C1374 C1378 1.391 . S
C1375 C1374 1.387 . S
C1375 C1376 1.369 . S
C1375 H1384 0.929 . S
C1376 N1373 1.346 . S
C1376 C1375 1.369 . S
C1376 H1379 0.928 . S
C1377 N1373 1.345 . S
C1377 C1378 1.371 . S
C1377 H1380 0.931 . S
C1378 C1374 1.391 . S
C1378 C1377 1.371 . S
C1378 H1385 0.930 . S
H1379 C1376 0.928 . S
H1380 C1377 0.931 . S
H1381 C1357 0.930 . S
H1382 C1354 0.930 . S
H1383 C1363 0.930 . S
H1384 C1375 0.929 . S
H1385 C1378 0.930 . S
C1386 C1387 1.351 . S
C1386 N1389 1.368 . S
C1386 H1391 0.931 . S
C1387 C1386 1.351 . S
C1387 N1388 1.373 . S
C1387 H1415 0.930 . S
N1388 C1387 1.373 . S
N1388 C1390 1.340 . S
N1389 C1386 1.368 . S
N1389 C1390 1.321 . S
N1389 Co1392 2.135 . S
C1390 N1388 1.340 . S
C1390 N1389 1.321 . S
C1390 H1414 0.930 . S
H1391 C1386 0.931 . S
Co1392 N1389 2.135 . S
Co1392 N1395 2.121 . S
Co1392 O1400 2.055 . S
Co1392 O1403 2.039 . S
Co1392 N1406 2.140 . S
C1393 O1394 1.227 . S
C1393 O1403 1.265 . S
O1394 C1393 1.227 . S
N1395 Co1392 2.121 . S
N1395 C1397 1.375 . S
N1395 C1398 1.313 . S
C1396 C1397 1.338 . S
C1396 N1399 1.377 . S
C1396 H1416 0.930 . S
C1397 N1395 1.375 . S
C1397 C1396 1.338 . S
C1397 H1401 0.931 . S
C1398 N1395 1.313 . S
C1398 N1399 1.344 . S
C1398 H1402 0.930 . S
N1399 C1396 1.377 . S
N1399 C1398 1.344 . S
O1400 Co1392 2.055 . S
O1400 C1404 1.253 . S
H1401 C1397 0.931 . S
H1402 C1398 0.930 . S
O1403 Co1392 2.039 . S
O1403 C1393 1.265 . S
C1404 O1400 1.253 . S
C1404 O1405 1.227 . S
O1405 C1404 1.227 . S
N1406 Co1392 2.140 . S
N1406 C1409 1.346 . S
N1406 C1410 1.345 . S
C1407 C1408 1.387 . S
C1407 C1411 1.391 . S
C1408 C1407 1.387 . S
C1408 C1409 1.369 . S
C1408 H1417 0.929 . S
C1409 N1406 1.346 . S
C1409 C1408 1.369 . S
C1409 H1412 0.928 . S
C1410 N1406 1.345 . S
C1410 C1411 1.371 . S
C1410 H1413 0.931 . S
C1411 C1407 1.391 . S
C1411 C1410 1.371 . S
C1411 H1418 0.930 . S
H1412 C1409 0.928 . S
H1413 C1410 0.931 . S
H1414 C1390 0.930 . S
H1415 C1387 0.930 . S
H1416 C1396 0.930 . S
H1417 C1408 0.929 . S
H1418 C1411 0.930 . S
C1419 C1420 1.351 . S
C1419 N1422 1.368 . S
C1419 H1424 0.931 . S
C1420 C1419 1.351 . S
C1420 N1421 1.373 . S
C1420 H1448 0.930 . S
N1421 C1420 1.373 . S
N1421 C1423 1.340 . S
N1422 C1419 1.368 . S
N1422 C1423 1.321 . S
N1422 Co1425 2.135 . S
C1423 N1421 1.340 . S
C1423 N1422 1.321 . S
C1423 H1447 0.930 . S
H1424 C1419 0.931 . S
Co1425 N1422 2.135 . S
Co1425 N1428 2.121 . S
Co1425 O1433 2.055 . S
Co1425 O1436 2.039 . S
Co1425 N1439 2.140 . S
C1426 O1427 1.227 . S
C1426 O1436 1.265 . S
O1427 C1426 1.227 . S
N1428 Co1425 2.121 . S
N1428 C1430 1.375 . S
N1428 C1431 1.313 . S
C1429 C1430 1.338 . S
C1429 N1432 1.377 . S
C1429 H1449 0.930 . S
C1430 N1428 1.375 . S
C1430 C1429 1.338 . S
C1430 H1434 0.931 . S
C1431 N1428 1.313 . S
C1431 N1432 1.344 . S
C1431 H1435 0.930 . S
N1432 C1429 1.377 . S
N1432 C1431 1.344 . S
O1433 Co1425 2.055 . S
O1433 C1437 1.253 . S
H1434 C1430 0.931 . S
H1435 C1431 0.930 . S
O1436 Co1425 2.039 . S
O1436 C1426 1.265 . S
C1437 O1433 1.253 . S
C1437 O1438 1.227 . S
O1438 C1437 1.227 . S
N1439 Co1425 2.140 . S
N1439 C1442 1.346 . S
N1439 C1443 1.345 . S
C1440 C1441 1.387 . S
C1440 C1444 1.391 . S
C1441 C1440 1.387 . S
C1441 C1442 1.369 . S
C1441 H1450 0.929 . S
C1442 N1439 1.346 . S
C1442 C1441 1.369 . S
C1442 H1445 0.928 . S
C1443 N1439 1.345 . S
C1443 C1444 1.371 . S
C1443 H1446 0.931 . S
C1444 C1440 1.391 . S
C1444 C1443 1.371 . S
C1444 H1451 0.930 . S
H1445 C1442 0.928 . S
H1446 C1443 0.931 . S
H1447 C1423 0.930 . S
H1448 C1420 0.930 . S
H1449 C1429 0.930 . S
H1450 C1441 0.929 . S
H1451 C1444 0.930 . S
C1452 C1453 1.351 . S
C1452 N1455 1.368 . S
C1452 H1457 0.931 . S
C1453 C1452 1.351 . S
C1453 N1454 1.373 . S
C1453 H1481 0.930 . S
N1454 C1453 1.373 . S
N1454 C1456 1.340 . S
N1455 C1452 1.368 . S
N1455 C1456 1.321 . S
N1455 Co1458 2.135 . S
C1456 N1454 1.340 . S
C1456 N1455 1.321 . S
C1456 H1480 0.930 . S
H1457 C1452 0.931 . S
Co1458 N1455 2.135 . S
Co1458 N1461 2.121 . S
Co1458 O1466 2.055 . S
Co1458 O1469 2.039 . S
Co1458 N1472 2.140 . S
C1459 O1460 1.227 . S
C1459 O1469 1.265 . S
O1460 C1459 1.227 . S
N1461 Co1458 2.121 . S
N1461 C1463 1.375 . S
N1461 C1464 1.313 . S
C1462 C1463 1.338 . S
C1462 N1465 1.377 . S
C1462 H1482 0.930 . S
C1463 N1461 1.375 . S
C1463 C1462 1.338 . S
C1463 H1467 0.931 . S
C1464 N1461 1.313 . S
C1464 N1465 1.344 . S
C1464 H1468 0.930 . S
N1465 C1462 1.377 . S
N1465 C1464 1.344 . S
O1466 Co1458 2.055 . S
O1466 C1470 1.253 . S
H1467 C1463 0.931 . S
H1468 C1464 0.930 . S
O1469 Co1458 2.039 . S
O1469 C1459 1.265 . S
C1470 O1466 1.253 . S
C1470 O1471 1.227 . S
O1471 C1470 1.227 . S
N1472 Co1458 2.140 . S
N1472 C1475 1.346 . S
N1472 C1476 1.345 . S
C1473 C1474 1.387 . S
C1473 C1477 1.391 . S
C1474 C1473 1.387 . S
C1474 C1475 1.369 . S
C1474 H1483 0.929 . S
C1475 N1472 1.346 . S
C1475 C1474 1.369 . S
C1475 H1478 0.928 . S
C1476 N1472 1.345 . S
C1476 C1477 1.371 . S
C1476 H1479 0.931 . S
C1477 C1473 1.391 . S
C1477 C1476 1.371 . S
C1477 H1484 0.930 . S
H1478 C1475 0.928 . S
H1479 C1476 0.931 . S
H1480 C1456 0.930 . S
H1481 C1453 0.930 . S
H1482 C1462 0.930 . S
H1483 C1474 0.929 . S
H1484 C1477 0.930 . S
C1485 C1486 1.351 . S
C1485 N1488 1.368 . S
C1485 H1490 0.931 . S
C1486 C1485 1.351 . S
C1486 N1487 1.373 . S
C1486 H1514 0.930 . S
N1487 C1486 1.373 . S
N1487 C1489 1.340 . S
N1488 C1485 1.368 . S
N1488 C1489 1.321 . S
N1488 Co1491 2.135 . S
C1489 N1487 1.340 . S
C1489 N1488 1.321 . S
C1489 H1513 0.930 . S
H1490 C1485 0.931 . S
Co1491 N1488 2.135 . S
Co1491 N1494 2.121 . S
Co1491 O1499 2.055 . S
Co1491 O1502 2.039 . S
Co1491 N1505 2.140 . S
C1492 O1493 1.227 . S
C1492 O1502 1.265 . S
O1493 C1492 1.227 . S
N1494 Co1491 2.121 . S
N1494 C1496 1.375 . S
N1494 C1497 1.313 . S
C1495 C1496 1.338 . S
C1495 N1498 1.377 . S
C1495 H1515 0.930 . S
C1496 N1494 1.375 . S
C1496 C1495 1.338 . S
C1496 H1500 0.931 . S
C1497 N1494 1.313 . S
C1497 N1498 1.344 . S
C1497 H1501 0.930 . S
N1498 C1495 1.377 . S
N1498 C1497 1.344 . S
O1499 Co1491 2.055 . S
O1499 C1503 1.253 . S
H1500 C1496 0.931 . S
H1501 C1497 0.930 . S
O1502 Co1491 2.039 . S
O1502 C1492 1.265 . S
C1503 O1499 1.253 . S
C1503 O1504 1.227 . S
O1504 C1503 1.227 . S
N1505 Co1491 2.140 . S
N1505 C1508 1.346 . S
N1505 C1509 1.345 . S
C1506 C1507 1.387 . S
C1506 C1510 1.391 . S
C1507 C1506 1.387 . S
C1507 C1508 1.369 . S
C1507 H1516 0.929 . S
C1508 N1505 1.346 . S
C1508 C1507 1.369 . S
C1508 H1511 0.928 . S
C1509 N1505 1.345 . S
C1509 C1510 1.371 . S
C1509 H1512 0.931 . S
C1510 C1506 1.391 . S
C1510 C1509 1.371 . S
C1510 H1517 0.930 . S
H1511 C1508 0.928 . S
H1512 C1509 0.931 . S
H1513 C1489 0.930 . S
H1514 C1486 0.930 . S
H1515 C1495 0.930 . S
H1516 C1507 0.929 . S
H1517 C1510 0.930 . S
C1518 C1519 1.351 . S
C1518 N1521 1.368 . S
C1518 H1523 0.931 . S
C1519 C1518 1.351 . S
C1519 N1520 1.373 . S
C1519 H1547 0.930 . S
N1520 C1519 1.373 . S
N1520 C1522 1.340 . S
N1521 C1518 1.368 . S
N1521 C1522 1.321 . S
N1521 Co1524 2.135 . S
C1522 N1520 1.340 . S
C1522 N1521 1.321 . S
C1522 H1546 0.930 . S
H1523 C1518 0.931 . S
Co1524 N1521 2.135 . S
Co1524 N1527 2.121 . S
Co1524 O1532 2.055 . S
Co1524 O1535 2.039 . S
Co1524 N1538 2.140 . S
C1525 O1526 1.227 . S
C1525 O1535 1.265 . S
O1526 C1525 1.227 . S
N1527 Co1524 2.121 . S
N1527 C1529 1.375 . S
N1527 C1530 1.313 . S
C1528 C1529 1.338 . S
C1528 N1531 1.377 . S
C1528 H1548 0.930 . S
C1529 N1527 1.375 . S
C1529 C1528 1.338 . S
C1529 H1533 0.931 . S
C1530 N1527 1.313 . S
C1530 N1531 1.344 . S
C1530 H1534 0.930 . S
N1531 C1528 1.377 . S
N1531 C1530 1.344 . S
O1532 Co1524 2.055 . S
O1532 C1536 1.253 . S
H1533 C1529 0.931 . S
H1534 C1530 0.930 . S
O1535 Co1524 2.039 . S
O1535 C1525 1.265 . S
C1536 O1532 1.253 . S
C1536 O1537 1.227 . S
O1537 C1536 1.227 . S
N1538 Co1524 2.140 . S
N1538 C1541 1.346 . S
N1538 C1542 1.345 . S
C1539 C1540 1.387 . S
C1539 C1543 1.391 . S
C1540 C1539 1.387 . S
C1540 C1541 1.369 . S
C1540 H1549 0.929 . S
C1541 N1538 1.346 . S
C1541 C1540 1.369 . S
C1541 H1544 0.928 . S
C1542 N1538 1.345 . S
C1542 C1543 1.371 . S
C1542 H1545 0.931 . S
C1543 C1539 1.391 . S
C1543 C1542 1.371 . S
C1543 H1550 0.930 . S
H1544 C1541 0.928 . S
H1545 C1542 0.931 . S
H1546 C1522 0.930 . S
H1547 C1519 0.930 . S
H1548 C1528 0.930 . S
H1549 C1540 0.929 . S
H1550 C1543 0.930 . S
C1551 C1552 1.351 . S
C1551 N1554 1.368 . S
C1551 H1556 0.931 . S
C1552 C1551 1.351 . S
C1552 N1553 1.373 . S
C1552 H1580 0.930 . S
N1553 C1552 1.373 . S
N1553 C1555 1.340 . S
N1554 C1551 1.368 . S
N1554 C1555 1.321 . S
N1554 Co1557 2.135 . S
C1555 N1553 1.340 . S
C1555 N1554 1.321 . S
C1555 H1579 0.930 . S
H1556 C1551 0.931 . S
Co1557 N1554 2.135 . S
Co1557 N1560 2.121 . S
Co1557 O1565 2.055 . S
Co1557 O1568 2.039 . S
Co1557 N1571 2.140 . S
C1558 O1559 1.227 . S
C1558 O1568 1.265 . S
O1559 C1558 1.227 . S
N1560 Co1557 2.121 . S
N1560 C1562 1.375 . S
N1560 C1563 1.313 . S
C1561 C1562 1.338 . S
C1561 N1564 1.377 . S
C1561 H1581 0.930 . S
C1562 N1560 1.375 . S
C1562 C1561 1.338 . S
C1562 H1566 0.931 . S
C1563 N1560 1.313 . S
C1563 N1564 1.344 . S
C1563 H1567 0.930 . S
N1564 C1561 1.377 . S
N1564 C1563 1.344 . S
O1565 Co1557 2.055 . S
O1565 C1569 1.253 . S
H1566 C1562 0.931 . S
H1567 C1563 0.930 . S
O1568 Co1557 2.039 . S
O1568 C1558 1.265 . S
C1569 O1565 1.253 . S
C1569 O1570 1.227 . S
O1570 C1569 1.227 . S
N1571 Co1557 2.140 . S
N1571 C1574 1.346 . S
N1571 C1575 1.345 . S
C1572 C1573 1.387 . S
C1572 C1576 1.391 . S
C1573 C1572 1.387 . S
C1573 C1574 1.369 . S
C1573 H1582 0.929 . S
C1574 N1571 1.346 . S
C1574 C1573 1.369 . S
C1574 H1577 0.928 . S
C1575 N1571 1.345 . S
C1575 C1576 1.371 . S
C1575 H1578 0.931 . S
C1576 C1572 1.391 . S
C1576 C1575 1.371 . S
C1576 H1583 0.930 . S
H1577 C1574 0.928 . S
H1578 C1575 0.931 . S
H1579 C1555 0.930 . S
H1580 C1552 0.930 . S
H1581 C1561 0.930 . S
H1582 C1573 0.929 . S
H1583 C1576 0.930 . S
C1584 C1585 1.387 . S
C1584 H1588 0.950 . S
C1584 C1593 1.390 . S
C1585 C1584 1.387 . S
C1585 C1587 1.387 . S
H1586 C1593 0.950 . S
C1587 C1585 1.387 . S
C1587 C1589 1.390 . S
C1587 H1591 0.950 . S
H1588 C1584 0.950 . S
C1589 C1587 1.390 . S
C1589 C1590 1.387 . S
C1589 H1592 0.950 . S
C1590 C1589 1.387 . S
C1590 C1593 1.387 . S
H1591 C1587 0.950 . S
H1592 C1589 0.950 . S
C1593 C1584 1.390 . S
C1593 H1586 0.950 . S
C1593 C1590 1.387 . S
C1594 C1595 1.387 . S
C1594 H1598 0.950 . S
C1594 C1603 1.390 . S
C1595 C1594 1.387 . S
C1595 C1597 1.387 . S
H1596 C1603 0.950 . S
C1597 C1595 1.387 . S
C1597 C1599 1.390 . S
C1597 H1601 0.950 . S
H1598 C1594 0.950 . S
C1599 C1597 1.390 . S
C1599 C1600 1.387 . S
C1599 H1602 0.950 . S
C1600 C1599 1.387 . S
C1600 C1603 1.387 . S
H1601 C1597 0.950 . S
H1602 C1599 0.950 . S
C1603 C1594 1.390 . S
C1603 H1596 0.950 . S
C1603 C1600 1.387 . S
C1604 C1605 1.387 . S
C1604 H1608 0.950 . S
C1604 C1613 1.390 . S
C1605 C1604 1.387 . S
C1605 C1607 1.387 . S
H1606 C1613 0.950 . S
C1607 C1605 1.387 . S
C1607 C1609 1.390 . S
C1607 H1611 0.950 . S
H1608 C1604 0.950 . S
C1609 C1607 1.390 . S
C1609 C1610 1.387 . S
C1609 H1612 0.950 . S
C1610 C1609 1.387 . S
C1610 C1613 1.387 . S
H1611 C1607 0.950 . S
H1612 C1609 0.950 . S
C1613 C1604 1.390 . S
C1613 H1606 0.950 . S
C1613 C1610 1.387 . S
C1614 C1615 1.387 . S
C1614 H1618 0.950 . S
C1614 C1623 1.390 . S
C1615 C1614 1.387 . S
C1615 C1617 1.387 . S
H1616 C1623 0.950 . S
C1617 C1615 1.387 . S
C1617 C1619 1.390 . S
C1617 H1621 0.950 . S
H1618 C1614 0.950 . S
C1619 C1617 1.390 . S
C1619 C1620 1.387 . S
C1619 H1622 0.950 . S
C1620 C1619 1.387 . S
C1620 C1623 1.387 . S
H1621 C1617 0.950 . S
H1622 C1619 0.950 . S
C1623 C1614 1.390 . S
C1623 H1616 0.950 . S
C1623 C1620 1.387 . S
C1624 C1625 1.387 . S
C1624 H1628 0.950 . S
C1624 C1633 1.390 . S
C1625 C1624 1.387 . S
C1625 C1627 1.387 . S
H1626 C1633 0.950 . S
C1627 C1625 1.387 . S
C1627 C1629 1.390 . S
C1627 H1631 0.950 . S
H1628 C1624 0.950 . S
C1629 C1627 1.390 . S
C1629 C1630 1.387 . S
C1629 H1632 0.950 . S
C1630 C1629 1.387 . S
C1630 C1633 1.387 . S
H1631 C1627 0.950 . S
H1632 C1629 0.950 . S
C1633 C1624 1.390 . S
C1633 H1626 0.950 . S
C1633 C1630 1.387 . S
C1634 C1635 1.387 . S
C1634 H1638 0.950 . S
C1634 C1643 1.390 . S
C1635 C1634 1.387 . S
C1635 C1637 1.387 . S
H1636 C1643 0.950 . S
C1637 C1635 1.387 . S
C1637 C1639 1.390 . S
C1637 H1641 0.950 . S
H1638 C1634 0.950 . S
C1639 C1637 1.390 . S
C1639 C1640 1.387 . S
C1639 H1642 0.950 . S
C1640 C1639 1.387 . S
C1640 C1643 1.387 . S
H1641 C1637 0.950 . S
H1642 C1639 0.950 . S
C1643 C1634 1.390 . S
C1643 H1636 0.950 . S
C1643 C1640 1.387 . S
C1644 C1645 1.387 . S
C1644 H1648 0.950 . S
C1644 C1653 1.390 . S
C1645 C1644 1.387 . S
C1645 C1647 1.387 . S
H1646 C1653 0.950 . S
C1647 C1645 1.387 . S
C1647 C1649 1.390 . S
C1647 H1651 0.950 . S
H1648 C1644 0.950 . S
C1649 C1647 1.390 . S
C1649 C1650 1.387 . S
C1649 H1652 0.950 . S
C1650 C1649 1.387 . S
C1650 C1653 1.387 . S
H1651 C1647 0.950 . S
H1652 C1649 0.950 . S
C1653 C1644 1.390 . S
C1653 H1646 0.950 . S
C1653 C1650 1.387 . S
C1654 C1655 1.387 . S
C1654 H1658 0.950 . S
C1654 C1663 1.390 . S
C1655 C1654 1.387 . S
C1655 C1657 1.387 . S
H1656 C1663 0.950 . S
C1657 C1655 1.387 . S
C1657 C1659 1.390 . S
C1657 H1661 0.950 . S
H1658 C1654 0.950 . S
C1659 C1657 1.390 . S
C1659 C1660 1.387 . S
C1659 H1662 0.950 . S
C1660 C1659 1.387 . S
C1660 C1663 1.387 . S
H1661 C1657 0.950 . S
H1662 C1659 0.950 . S
C1663 C1654 1.390 . S
C1663 H1656 0.950 . S
C1663 C1660 1.387 . S
C1664 C1665 1.387 . S
C1664 H1668 0.950 . S
C1664 C1673 1.390 . S
C1665 C1664 1.387 . S
C1665 C1667 1.387 . S
H1666 C1673 0.950 . S
C1667 C1665 1.387 . S
C1667 C1669 1.390 . S
C1667 H1671 0.950 . S
H1668 C1664 0.950 . S
C1669 C1667 1.390 . S
C1669 C1670 1.387 . S
C1669 H1672 0.950 . S
C1670 C1669 1.387 . S
C1670 C1673 1.387 . S
H1671 C1667 0.950 . S
H1672 C1669 0.950 . S
C1673 C1664 1.390 . S
C1673 H1666 0.950 . S
C1673 C1670 1.387 . S
C1674 C1675 1.387 . S
C1674 H1678 0.950 . S
C1674 C1683 1.390 . S
C1675 C1674 1.387 . S
C1675 C1677 1.387 . S
H1676 C1683 0.950 . S
C1677 C1675 1.387 . S
C1677 C1679 1.390 . S
C1677 H1681 0.950 . S
H1678 C1674 0.950 . S
C1679 C1677 1.390 . S
C1679 C1680 1.387 . S
C1679 H1682 0.950 . S
C1680 C1679 1.387 . S
C1680 C1683 1.387 . S
H1681 C1677 0.950 . S
H1682 C1679 0.950 . S
C1683 C1674 1.390 . S
C1683 H1676 0.950 . S
C1683 C1680 1.387 . S
C1684 C1685 1.387 . S
C1684 H1688 0.950 . S
C1684 C1693 1.390 . S
C1685 C1684 1.387 . S
C1685 C1687 1.387 . S
H1686 C1693 0.950 . S
C1687 C1685 1.387 . S
C1687 C1689 1.390 . S
C1687 H1691 0.950 . S
H1688 C1684 0.950 . S
C1689 C1687 1.390 . S
C1689 C1690 1.387 . S
C1689 H1692 0.950 . S
C1690 C1689 1.387 . S
C1690 C1693 1.387 . S
H1691 C1687 0.950 . S
H1692 C1689 0.950 . S
C1693 C1684 1.390 . S
C1693 H1686 0.950 . S
C1693 C1690 1.387 . S
C1694 C1695 1.387 . S
C1694 H1698 0.950 . S
C1694 C1703 1.390 . S
C1695 C1694 1.387 . S
C1695 C1697 1.387 . S
H1696 C1703 0.950 . S
C1697 C1695 1.387 . S
C1697 C1699 1.390 . S
C1697 H1701 0.950 . S
H1698 C1694 0.950 . S
C1699 C1697 1.390 . S
C1699 C1700 1.387 . S
C1699 H1702 0.950 . S
C1700 C1699 1.387 . S
C1700 C1703 1.387 . S
H1701 C1697 0.950 . S
H1702 C1699 0.950 . S
C1703 C1694 1.390 . S
C1703 H1696 0.950 . S
C1703 C1700 1.387 . S
C1704 C1705 1.387 . S
C1704 H1708 0.950 . S
C1704 C1713 1.390 . S
C1705 C1704 1.387 . S
C1705 C1707 1.387 . S
H1706 C1713 0.950 . S
C1707 C1705 1.387 . S
C1707 C1709 1.390 . S
C1707 H1711 0.950 . S
H1708 C1704 0.950 . S
C1709 C1707 1.390 . S
C1709 C1710 1.387 . S
C1709 H1712 0.950 . S
C1710 C1709 1.387 . S
C1710 C1713 1.387 . S
H1711 C1707 0.950 . S
H1712 C1709 0.950 . S
C1713 C1704 1.390 . S
C1713 H1706 0.950 . S
C1713 C1710 1.387 . S
C1714 C1715 1.387 . S
C1714 H1718 0.950 . S
C1714 C1723 1.390 . S
C1715 C1714 1.387 . S
C1715 C1717 1.387 . S
H1716 C1723 0.950 . S
C1717 C1715 1.387 . S
C1717 C1719 1.390 . S
C1717 H1721 0.950 . S
H1718 C1714 0.950 . S
C1719 C1717 1.390 . S
C1719 C1720 1.387 . S
C1719 H1722 0.950 . S
C1720 C1719 1.387 . S
C1720 C1723 1.387 . S
H1721 C1717 0.950 . S
H1722 C1719 0.950 . S
C1723 C1714 1.390 . S
C1723 H1716 0.950 . S
C1723 C1720 1.387 . S
C1724 C1725 1.387 . S
C1724 H1728 0.950 . S
C1724 C1733 1.390 . S
C1725 C1724 1.387 . S
C1725 C1727 1.387 . S
H1726 C1733 0.950 . S
C1727 C1725 1.387 . S
C1727 C1729 1.390 . S
C1727 H1731 0.950 . S
H1728 C1724 0.950 . S
C1729 C1727 1.390 . S
C1729 C1730 1.387 . S
C1729 H1732 0.950 . S
C1730 C1729 1.387 . S
C1730 C1733 1.387 . S
H1731 C1727 0.950 . S
H1732 C1729 0.950 . S
C1733 C1724 1.390 . S
C1733 H1726 0.950 . S
C1733 C1730 1.387 . S
C1734 C1735 1.387 . S
C1734 H1738 0.950 . S
C1734 C1743 1.390 . S
C1735 C1734 1.387 . S
C1735 C1737 1.387 . S
H1736 C1743 0.950 . S
C1737 C1735 1.387 . S
C1737 C1739 1.390 . S
C1737 H1741 0.950 . S
H1738 C1734 0.950 . S
C1739 C1737 1.390 . S
C1739 C1740 1.387 . S
C1739 H1742 0.950 . S
C1740 C1739 1.387 . S
C1740 C1743 1.387 . S
H1741 C1737 0.950 . S
H1742 C1739 0.950 . S
C1743 C1734 1.390 . S
C1743 H1736 0.950 . S
C1743 C1740 1.387 . S
C1744 C1745 1.387 . S
C1744 H1748 0.950 . S
C1744 C1753 1.390 . S
C1745 C1744 1.387 . S
C1745 C1747 1.387 . S
H1746 C1753 0.950 . S
C1747 C1745 1.387 . S
C1747 C1749 1.390 . S
C1747 H1751 0.950 . S
H1748 C1744 0.950 . S
C1749 C1747 1.390 . S
C1749 C1750 1.387 . S
C1749 H1752 0.950 . S
C1750 C1749 1.387 . S
C1750 C1753 1.387 . S
H1751 C1747 0.950 . S
H1752 C1749 0.950 . S
C1753 C1744 1.390 . S
C1753 H1746 0.950 . S
C1753 C1750 1.387 . S
C1754 C1755 1.387 . S
C1754 H1758 0.950 . S
C1754 C1763 1.390 . S
C1755 C1754 1.387 . S
C1755 C1757 1.387 . S
H1756 C1763 0.950 . S
C1757 C1755 1.387 . S
C1757 C1759 1.390 . S
C1757 H1761 0.950 . S
H1758 C1754 0.950 . S
C1759 C1757 1.390 . S
C1759 C1760 1.387 . S
C1759 H1762 0.950 . S
C1760 C1759 1.387 . S
C1760 C1763 1.387 . S
H1761 C1757 0.950 . S
H1762 C1759 0.950 . S
C1763 C1754 1.390 . S
C1763 H1756 0.950 . S
C1763 C1760 1.387 . S
C1764 C1765 1.387 . S
C1764 H1768 0.950 . S
C1764 C1773 1.390 . S
C1765 C1764 1.387 . S
C1765 C1767 1.387 . S
H1766 C1773 0.950 . S
C1767 C1765 1.387 . S
C1767 C1769 1.390 . S
C1767 H1771 0.950 . S
H1768 C1764 0.950 . S
C1769 C1767 1.390 . S
C1769 C1770 1.387 . S
C1769 H1772 0.950 . S
C1770 C1769 1.387 . S
C1770 C1773 1.387 . S
H1771 C1767 0.950 . S
H1772 C1769 0.950 . S
C1773 C1764 1.390 . S
C1773 H1766 0.950 . S
C1773 C1770 1.387 . S
C1774 C1775 1.387 . S
C1774 H1778 0.950 . S
C1774 C1783 1.390 . S
C1775 C1774 1.387 . S
C1775 C1777 1.387 . S
H1776 C1783 0.950 . S
C1777 C1775 1.387 . S
C1777 C1779 1.390 . S
C1777 H1781 0.950 . S
H1778 C1774 0.950 . S
C1779 C1777 1.390 . S
C1779 C1780 1.387 . S
C1779 H1782 0.950 . S
C1780 C1779 1.387 . S
C1780 C1783 1.387 . S
H1781 C1777 0.950 . S
H1782 C1779 0.950 . S
C1783 C1774 1.390 . S
C1783 H1776 0.950 . S
C1783 C1780 1.387 . S
C1784 C1785 1.387 . S
C1784 H1788 0.950 . S
C1784 C1793 1.390 . S
C1785 C1784 1.387 . S
C1785 C1787 1.387 . S
H1786 C1793 0.950 . S
C1787 C1785 1.387 . S
C1787 C1789 1.390 . S
C1787 H1791 0.950 . S
H1788 C1784 0.950 . S
C1789 C1787 1.390 . S
C1789 C1790 1.387 . S
C1789 H1792 0.950 . S
C1790 C1789 1.387 . S
C1790 C1793 1.387 . S
H1791 C1787 0.950 . S
H1792 C1789 0.950 . S
C1793 C1784 1.390 . S
C1793 H1786 0.950 . S
C1793 C1790 1.387 . S
C1794 C1795 1.387 . S
C1794 H1798 0.950 . S
C1794 C1803 1.390 . S
C1795 C1794 1.387 . S
C1795 C1797 1.387 . S
H1796 C1803 0.950 . S
C1797 C1795 1.387 . S
C1797 C1799 1.390 . S
C1797 H1801 0.950 . S
H1798 C1794 0.950 . S
C1799 C1797 1.390 . S
C1799 C1800 1.387 . S
C1799 H1802 0.950 . S
C1800 C1799 1.387 . S
C1800 C1803 1.387 . S
H1801 C1797 0.950 . S
H1802 C1799 0.950 . S
C1803 C1794 1.390 . S
C1803 H1796 0.950 . S
C1803 C1800 1.387 . S
C1804 C1805 1.387 . S
C1804 H1808 0.950 . S
C1804 C1813 1.390 . S
C1805 C1804 1.387 . S
C1805 C1807 1.387 . S
H1806 C1813 0.950 . S
C1807 C1805 1.387 . S
C1807 C1809 1.390 . S
C1807 H1811 0.950 . S
H1808 C1804 0.950 . S
C1809 C1807 1.390 . S
C1809 C1810 1.387 . S
C1809 H1812 0.950 . S
C1810 C1809 1.387 . S
C1810 C1813 1.387 . S
H1811 C1807 0.950 . S
H1812 C1809 0.950 . S
C1813 C1804 1.390 . S
C1813 H1806 0.950 . S
C1813 C1810 1.387 . S
C1814 C1815 1.387 . S
C1814 H1818 0.950 . S
C1814 C1823 1.390 . S
C1815 C1814 1.387 . S
C1815 C1817 1.387 . S
H1816 C1823 0.950 . S
C1817 C1815 1.387 . S
C1817 C1819 1.390 . S
C1817 H1821 0.950 . S
H1818 C1814 0.950 . S
C1819 C1817 1.390 . S
C1819 C1820 1.387 . S
C1819 H1822 0.950 . S
C1820 C1819 1.387 . S
C1820 C1823 1.387 . S
H1821 C1817 0.950 . S
H1822 C1819 0.950 . S
C1823 C1814 1.390 . S
C1823 H1816 0.950 . S
C1823 C1820 1.387 . S
C1824 C1825 1.387 . S
C1824 H1828 0.950 . S
C1824 C1833 1.390 . S
C1825 C1824 1.387 . S
C1825 C1827 1.387 . S
H1826 C1833 0.950 . S
C1827 C1825 1.387 . S
C1827 C1829 1.390 . S
C1827 H1831 0.950 . S
H1828 C1824 0.950 . S
C1829 C1827 1.390 . S
C1829 C1830 1.387 . S
C1829 H1832 0.950 . S
C1830 C1829 1.387 . S
C1830 C1833 1.387 . S
H1831 C1827 0.950 . S
H1832 C1829 0.950 . S
C1833 C1824 1.390 . S
C1833 H1826 0.950 . S
C1833 C1830 1.387 . S
C1834 C1835 1.387 . S
C1834 H1838 0.950 . S
C1834 C1843 1.390 . S
C1835 C1834 1.387 . S
C1835 C1837 1.387 . S
H1836 C1843 0.950 . S
C1837 C1835 1.387 . S
C1837 C1839 1.390 . S
C1837 H1841 0.950 . S
H1838 C1834 0.950 . S
C1839 C1837 1.390 . S
C1839 C1840 1.387 . S
C1839 H1842 0.950 . S
C1840 C1839 1.387 . S
C1840 C1843 1.387 . S
H1841 C1837 0.950 . S
H1842 C1839 0.950 . S
C1843 C1834 1.390 . S
C1843 H1836 0.950 . S
C1843 C1840 1.387 . S
C1844 C1845 1.387 . S
C1844 H1848 0.950 . S
C1844 C1853 1.390 . S
C1845 C1844 1.387 . S
C1845 C1847 1.387 . S
H1846 C1853 0.950 . S
C1847 C1845 1.387 . S
C1847 C1849 1.390 . S
C1847 H1851 0.950 . S
H1848 C1844 0.950 . S
C1849 C1847 1.390 . S
C1849 C1850 1.387 . S
C1849 H1852 0.950 . S
C1850 C1849 1.387 . S
C1850 C1853 1.387 . S
H1851 C1847 0.950 . S
H1852 C1849 0.950 . S
C1853 C1844 1.390 . S
C1853 H1846 0.950 . S
C1853 C1850 1.387 . S
C1854 C1855 1.387 . S
C1854 H1858 0.950 . S
C1854 C1863 1.390 . S
C1855 C1854 1.387 . S
C1855 C1857 1.387 . S
H1856 C1863 0.950 . S
C1857 C1855 1.387 . S
C1857 C1859 1.390 . S
C1857 H1861 0.950 . S
H1858 C1854 0.950 . S
C1859 C1857 1.390 . S
C1859 C1860 1.387 . S
C1859 H1862 0.950 . S
C1860 C1859 1.387 . S
C1860 C1863 1.387 . S
H1861 C1857 0.950 . S
H1862 C1859 0.950 . S
C1863 C1854 1.390 . S
C1863 H1856 0.950 . S
C1863 C1860 1.387 . S
C1864 C1865 1.387 . S
C1864 H1868 0.950 . S
C1864 C1873 1.390 . S
C1865 C1864 1.387 . S
C1865 C1867 1.387 . S
H1866 C1873 0.950 . S
C1867 C1865 1.387 . S
C1867 C1869 1.390 . S
C1867 H1871 0.950 . S
H1868 C1864 0.950 . S
C1869 C1867 1.390 . S
C1869 C1870 1.387 . S
C1869 H1872 0.950 . S
C1870 C1869 1.387 . S
C1870 C1873 1.387 . S
H1871 C1867 0.950 . S
H1872 C1869 0.950 . S
C1873 C1864 1.390 . S
C1873 H1866 0.950 . S
C1873 C1870 1.387 . S
C1874 C1875 1.387 . S
C1874 H1878 0.950 . S
C1874 C1883 1.390 . S
C1875 C1874 1.387 . S
C1875 C1877 1.387 . S
H1876 C1883 0.950 . S
C1877 C1875 1.387 . S
C1877 C1879 1.390 . S
C1877 H1881 0.950 . S
H1878 C1874 0.950 . S
C1879 C1877 1.390 . S
C1879 C1880 1.387 . S
C1879 H1882 0.950 . S
C1880 C1879 1.387 . S
C1880 C1883 1.387 . S
H1881 C1877 0.950 . S
H1882 C1879 0.950 . S
C1883 C1874 1.390 . S
C1883 H1876 0.950 . S
C1883 C1880 1.387 . S
C1884 C1885 1.387 . S
C1884 H1888 0.950 . S
C1884 C1893 1.390 . S
C1885 C1884 1.387 . S
C1885 C1887 1.387 . S
H1886 C1893 0.950 . S
C1887 C1885 1.387 . S
C1887 C1889 1.390 . S
C1887 H1891 0.950 . S
H1888 C1884 0.950 . S
C1889 C1887 1.390 . S
C1889 C1890 1.387 . S
C1889 H1892 0.950 . S
C1890 C1889 1.387 . S
C1890 C1893 1.387 . S
H1891 C1887 0.950 . S
H1892 C1889 0.950 . S
C1893 C1884 1.390 . S
C1893 H1886 0.950 . S
C1893 C1890 1.387 . S
C1894 C1895 1.387 . S
C1894 H1898 0.950 . S
C1894 C1903 1.390 . S
C1895 C1894 1.387 . S
C1895 C1897 1.387 . S
H1896 C1903 0.950 . S
C1897 C1895 1.387 . S
C1897 C1899 1.390 . S
C1897 H1901 0.950 . S
H1898 C1894 0.950 . S
C1899 C1897 1.390 . S
C1899 C1900 1.387 . S
C1899 H1902 0.950 . S
C1900 C1899 1.387 . S
C1900 C1903 1.387 . S
H1901 C1897 0.950 . S
H1902 C1899 0.950 . S
C1903 C1894 1.390 . S
C1903 H1896 0.950 . S
C1903 C1900 1.387 . S
C1904 C1905 1.387 . S
C1904 H1908 0.950 . S
C1904 C1913 1.390 . S
C1905 C1904 1.387 . S
C1905 C1907 1.387 . S
H1906 C1913 0.950 . S
C1907 C1905 1.387 . S
C1907 C1909 1.390 . S
C1907 H1911 0.950 . S
H1908 C1904 0.950 . S
C1909 C1907 1.390 . S
C1909 C1910 1.387 . S
C1909 H1912 0.950 . S
C1910 C1909 1.387 . S
C1910 C1913 1.387 . S
H1911 C1907 0.950 . S
H1912 C1909 0.950 . S
C1913 C1904 1.390 . S
C1913 H1906 0.950 . S
C1913 C1910 1.387 . S
C1914 C1915 1.387 . S
C1914 H1918 0.950 . S
C1914 C1923 1.390 . S
C1915 C1914 1.387 . S
C1915 C1917 1.387 . S
H1916 C1923 0.950 . S
C1917 C1915 1.387 . S
C1917 C1919 1.390 . S
C1917 H1921 0.950 . S
H1918 C1914 0.950 . S
C1919 C1917 1.390 . S
C1919 C1920 1.387 . S
C1919 H1922 0.950 . S
C1920 C1919 1.387 . S
C1920 C1923 1.387 . S
H1921 C1917 0.950 . S
H1922 C1919 0.950 . S
C1923 C1914 1.390 . S
C1923 H1916 0.950 . S
C1923 C1920 1.387 . S
C1924 C1925 1.387 . S
C1924 H1928 0.950 . S
C1924 C1933 1.390 . S
C1925 C1924 1.387 . S
C1925 C1927 1.387 . S
H1926 C1933 0.950 . S
C1927 C1925 1.387 . S
C1927 C1929 1.390 . S
C1927 H1931 0.950 . S
H1928 C1924 0.950 . S
C1929 C1927 1.390 . S
C1929 C1930 1.387 . S
C1929 H1932 0.950 . S
C1930 C1929 1.387 . S
C1930 C1933 1.387 . S
H1931 C1927 0.950 . S
H1932 C1929 0.950 . S
C1933 C1924 1.390 . S
C1933 H1926 0.950 . S
C1933 C1930 1.387 . S
C1934 C1935 1.387 . S
C1934 H1938 0.950 . S
C1934 C1943 1.390 . S
C1935 C1934 1.387 . S
C1935 C1937 1.387 . S
H1936 C1943 0.950 . S
C1937 C1935 1.387 . S
C1937 C1939 1.390 . S
C1937 H1941 0.950 . S
H1938 C1934 0.950 . S
C1939 C1937 1.390 . S
C1939 C1940 1.387 . S
C1939 H1942 0.950 . S
C1940 C1939 1.387 . S
C1940 C1943 1.387 . S
H1941 C1937 0.950 . S
H1942 C1939 0.950 . S
C1943 C1934 1.390 . S
C1943 H1936 0.950 . S
C1943 C1940 1.387 . S
C1944 C1945 1.387 . S
C1944 H1948 0.950 . S
C1944 C1953 1.390 . S
C1945 C1944 1.387 . S
C1945 C1947 1.387 . S
H1946 C1953 0.950 . S
C1947 C1945 1.387 . S
C1947 C1949 1.390 . S
C1947 H1951 0.950 . S
H1948 C1944 0.950 . S
C1949 C1947 1.390 . S
C1949 C1950 1.387 . S
C1949 H1952 0.950 . S
C1950 C1949 1.387 . S
C1950 C1953 1.387 . S
H1951 C1947 0.950 . S
H1952 C1949 0.950 . S
C1953 C1944 1.390 . S
C1953 H1946 0.950 . S
C1953 C1950 1.387 . S
C1954 C1955 1.387 . S
C1954 H1958 0.950 . S
C1954 C1963 1.390 . S
C1955 C1954 1.387 . S
C1955 C1957 1.387 . S
H1956 C1963 0.950 . S
C1957 C1955 1.387 . S
C1957 C1959 1.390 . S
C1957 H1961 0.950 . S
H1958 C1954 0.950 . S
C1959 C1957 1.390 . S
C1959 C1960 1.387 . S
C1959 H1962 0.950 . S
C1960 C1959 1.387 . S
C1960 C1963 1.387 . S
H1961 C1957 0.950 . S
H1962 C1959 0.950 . S
C1963 C1954 1.390 . S
C1963 H1956 0.950 . S
C1963 C1960 1.387 . S
C1964 C1965 1.387 . S
C1964 H1968 0.950 . S
C1964 C1973 1.390 . S
C1965 C1964 1.387 . S
C1965 C1967 1.387 . S
H1966 C1973 0.950 . S
C1967 C1965 1.387 . S
C1967 C1969 1.390 . S
C1967 H1971 0.950 . S
H1968 C1964 0.950 . S
C1969 C1967 1.390 . S
C1969 C1970 1.387 . S
C1969 H1972 0.950 . S
C1970 C1969 1.387 . S
C1970 C1973 1.387 . S
H1971 C1967 0.950 . S
H1972 C1969 0.950 . S
C1973 C1964 1.390 . S
C1973 H1966 0.950 . S
C1973 C1970 1.387 . S
C1974 C1975 1.387 . S
C1974 H1978 0.950 . S
C1974 C1983 1.390 . S
C1975 C1974 1.387 . S
C1975 C1977 1.387 . S
H1976 C1983 0.950 . S
C1977 C1975 1.387 . S
C1977 C1979 1.390 . S
C1977 H1981 0.950 . S
H1978 C1974 0.950 . S
C1979 C1977 1.390 . S
C1979 C1980 1.387 . S
C1979 H1982 0.950 . S
C1980 C1979 1.387 . S
C1980 C1983 1.387 . S
H1981 C1977 0.950 . S
H1982 C1979 0.950 . S
C1983 C1974 1.390 . S
C1983 H1976 0.950 . S
C1983 C1980 1.387 . S
C1984 C1985 1.387 . S
C1984 H1988 0.950 . S
C1984 C1993 1.390 . S
C1985 C1984 1.387 . S
C1985 C1987 1.387 . S
H1986 C1993 0.950 . S
C1987 C1985 1.387 . S
C1987 C1989 1.390 . S
C1987 H1991 0.950 . S
H1988 C1984 0.950 . S
C1989 C1987 1.390 . S
C1989 C1990 1.387 . S
C1989 H1992 0.950 . S
C1990 C1989 1.387 . S
C1990 C1993 1.387 . S
H1991 C1987 0.950 . S
H1992 C1989 0.950 . S
C1993 C1984 1.390 . S
C1993 H1986 0.950 . S
C1993 C1990 1.387 . S
C1994 C1995 1.387 . S
C1994 H1998 0.950 . S
C1994 C2003 1.390 . S
C1995 C1994 1.387 . S
C1995 C1997 1.387 . S
H1996 C2003 0.950 . S
C1997 C1995 1.387 . S
C1997 C1999 1.390 . S
C1997 H2001 0.950 . S
H1998 C1994 0.950 . S
C1999 C1997 1.390 . S
C1999 C2000 1.387 . S
C1999 H2002 0.950 . S
C2000 C1999 1.387 . S
C2000 C2003 1.387 . S
H2001 C1997 0.950 . S
H2002 C1999 0.950 . S
C2003 C1994 1.390 . S
C2003 H1996 0.950 . S
C2003 C2000 1.387 . S
C2004 C2005 1.387 . S
C2004 H2008 0.950 . S
C2004 C2013 1.390 . S
C2005 C2004 1.387 . S
C2005 C2007 1.387 . S
H2006 C2013 0.950 . S
C2007 C2005 1.387 . S
C2007 C2009 1.390 . S
C2007 H2011 0.950 . S
H2008 C2004 0.950 . S
C2009 C2007 1.390 . S
C2009 C2010 1.387 . S
C2009 H2012 0.950 . S
C2010 C2009 1.387 . S
C2010 C2013 1.387 . S
H2011 C2007 0.950 . S
H2012 C2009 0.950 . S
C2013 C2004 1.390 . S
C2013 H2006 0.950 . S
C2013 C2010 1.387 . S
C2014 C2015 1.387 . S
C2014 H2018 0.950 . S
C2014 C2023 1.390 . S
C2015 C2014 1.387 . S
C2015 C2017 1.387 . S
H2016 C2023 0.950 . S
C2017 C2015 1.387 . S
C2017 C2019 1.390 . S
C2017 H2021 0.950 . S
H2018 C2014 0.950 . S
C2019 C2017 1.390 . S
C2019 C2020 1.387 . S
C2019 H2022 0.950 . S
C2020 C2019 1.387 . S
C2020 C2023 1.387 . S
H2021 C2017 0.950 . S
H2022 C2019 0.950 . S
C2023 C2014 1.390 . S
C2023 H2016 0.950 . S
C2023 C2020 1.387 . S
C2024 C2025 1.387 . S
C2024 H2028 0.950 . S
C2024 C2033 1.390 . S
C2025 C2024 1.387 . S
C2025 C2027 1.387 . S
H2026 C2033 0.950 . S
C2027 C2025 1.387 . S
C2027 C2029 1.390 . S
C2027 H2031 0.950 . S
H2028 C2024 0.950 . S
C2029 C2027 1.390 . S
C2029 C2030 1.387 . S
C2029 H2032 0.950 . S
C2030 C2029 1.387 . S
C2030 C2033 1.387 . S
H2031 C2027 0.950 . S
H2032 C2029 0.950 . S
C2033 C2024 1.390 . S
C2033 H2026 0.950 . S
C2033 C2030 1.387 . S
C2034 C2035 1.387 . S
C2034 H2038 0.950 . S
C2034 C2043 1.390 . S
C2035 C2034 1.387 . S
C2035 C2037 1.387 . S
H2036 C2043 0.950 . S
C2037 C2035 1.387 . S
C2037 C2039 1.390 . S
C2037 H2041 0.950 . S
H2038 C2034 0.950 . S
C2039 C2037 1.390 . S
C2039 C2040 1.387 . S
C2039 H2042 0.950 . S
C2040 C2039 1.387 . S
C2040 C2043 1.387 . S
H2041 C2037 0.950 . S
H2042 C2039 0.950 . S
C2043 C2034 1.390 . S
C2043 H2036 0.950 . S
C2043 C2040 1.387 . S
C2044 C2045 1.387 . S
C2044 H2048 0.950 . S
C2044 C2053 1.390 . S
C2045 C2044 1.387 . S
C2045 C2047 1.387 . S
H2046 C2053 0.950 . S
C2047 C2045 1.387 . S
C2047 C2049 1.390 . S
C2047 H2051 0.950 . S
H2048 C2044 0.950 . S
C2049 C2047 1.390 . S
C2049 C2050 1.387 . S
C2049 H2052 0.950 . S
C2050 C2049 1.387 . S
C2050 C2053 1.387 . S
H2051 C2047 0.950 . S
H2052 C2049 0.950 . S
C2053 C2044 1.390 . S
C2053 H2046 0.950 . S
C2053 C2050 1.387 . S
C2054 C2055 1.387 . S
C2054 H2058 0.950 . S
C2054 C2063 1.390 . S
C2055 C2054 1.387 . S
C2055 C2057 1.387 . S
H2056 C2063 0.950 . S
C2057 C2055 1.387 . S
C2057 C2059 1.390 . S
C2057 H2061 0.950 . S
H2058 C2054 0.950 . S
C2059 C2057 1.390 . S
C2059 C2060 1.387 . S
C2059 H2062 0.950 . S
C2060 C2059 1.387 . S
C2060 C2063 1.387 . S
H2061 C2057 0.950 . S
H2062 C2059 0.950 . S
C2063 C2054 1.390 . S
C2063 H2056 0.950 . S
C2063 C2060 1.387 . S
C2064 C2065 1.387 . S
C2064 H2068 0.950 . S
C2064 C2073 1.390 1_455 S
C2065 C2064 1.387 . S
C2065 C2067 1.387 . S
H2066 C2073 0.950 . S
C2067 C2065 1.387 . S
C2067 C2069 1.390 1_455 S
C2067 H2071 0.950 . S
H2068 C2064 0.950 . S
C2069 C2067 1.390 1_655 S
C2069 C2070 1.387 . S
C2069 H2072 0.950 . S
C2070 C2069 1.387 . S
C2070 C2073 1.387 . S
H2071 C2067 0.950 . S
H2072 C2069 0.950 . S
C2073 C2064 1.390 1_655 S
C2073 H2066 0.950 . S
C2073 C2070 1.387 . S
C2074 C2075 1.387 . S
C2074 H2078 0.950 . S
C2074 C2083 1.390 1_655 S
C2075 C2074 1.387 . S
C2075 C2077 1.387 . S
H2076 C2083 0.950 . S
C2077 C2075 1.387 . S
C2077 C2079 1.390 1_655 S
C2077 H2081 0.950 . S
H2078 C2074 0.950 . S
C2079 C2077 1.390 1_455 S
C2079 C2080 1.387 . S
C2079 H2082 0.950 . S
C2080 C2079 1.387 . S
C2080 C2083 1.387 . S
H2081 C2077 0.950 . S
H2082 C2079 0.950 . S
C2083 C2074 1.390 1_455 S
C2083 H2076 0.950 . S
C2083 C2080 1.387 . S
C2084 C2085 1.387 . S
C2084 H2088 0.950 . S
C2084 C2093 1.390 1_545 S
C2085 C2084 1.387 . S
C2085 C2087 1.387 . S
H2086 C2093 0.950 . S
C2087 C2085 1.387 . S
C2087 C2089 1.390 1_545 S
C2087 H2091 0.950 . S
H2088 C2084 0.950 . S
C2089 C2087 1.390 1_565 S
C2089 C2090 1.387 . S
C2089 H2092 0.950 . S
C2090 C2089 1.387 . S
C2090 C2093 1.387 . S
H2091 C2087 0.950 . S
H2092 C2089 0.950 . S
C2093 C2084 1.390 1_565 S
C2093 H2086 0.950 . S
C2093 C2090 1.387 . S
C2094 C2095 1.387 . S
C2094 H2098 0.950 . S
C2094 C2103 1.390 . S
C2095 C2094 1.387 . S
C2095 C2097 1.387 . S
H2096 C2103 0.950 . S
C2097 C2095 1.387 . S
C2097 C2099 1.390 . S
C2097 H2101 0.950 . S
H2098 C2094 0.950 . S
C2099 C2097 1.390 . S
C2099 C2100 1.387 . S
C2099 H2102 0.950 . S
C2100 C2099 1.387 . S
C2100 C2103 1.387 . S
H2101 C2097 0.950 . S
H2102 C2099 0.950 . S
C2103 C2094 1.390 . S
C2103 H2096 0.950 . S
C2103 C2100 1.387 . S
C2104 C2105 1.387 . S
C2104 H2108 0.950 . S
C2104 C2113 1.390 1_556 S
C2105 C2104 1.387 . S
C2105 C2107 1.387 . S
H2106 C2113 0.950 . S
C2107 C2105 1.387 . S
C2107 C2109 1.390 1_556 S
C2107 H2111 0.950 . S
H2108 C2104 0.950 . S
C2109 C2107 1.390 1_554 S
C2109 C2110 1.387 . S
C2109 H2112 0.950 . S
C2110 C2109 1.387 . S
C2110 C2113 1.387 . S
H2111 C2107 0.950 . S
H2112 C2109 0.950 . S
C2113 C2104 1.390 1_554 S
C2113 H2106 0.950 . S
C2113 C2110 1.387 . S
C2114 C2115 1.387 . S
C2114 H2118 0.950 . S
C2114 C2123 1.390 . S
C2115 C2114 1.387 . S
C2115 C2117 1.387 . S
H2116 C2123 0.950 . S
C2117 C2115 1.387 . S
C2117 C2119 1.390 . S
C2117 H2121 0.950 . S
H2118 C2114 0.950 . S
C2119 C2117 1.390 . S
C2119 C2120 1.387 . S
C2119 H2122 0.950 . S
C2120 C2119 1.387 . S
C2120 C2123 1.387 . S
H2121 C2117 0.950 . S
H2122 C2119 0.950 . S
C2123 C2114 1.390 . S
C2123 H2116 0.950 . S
C2123 C2120 1.387 . S
C2124 C2125 1.387 . S
C2124 H2128 0.950 . S
C2124 C2133 1.390 . S
C2125 C2124 1.387 . S
C2125 C2127 1.387 . S
H2126 C2133 0.950 . S
C2127 C2125 1.387 . S
C2127 C2129 1.390 . S
C2127 H2131 0.950 . S
H2128 C2124 0.950 . S
C2129 C2127 1.390 . S
C2129 C2130 1.387 . S
C2129 H2132 0.950 . S
C2130 C2129 1.387 . S
C2130 C2133 1.387 . S
H2131 C2127 0.950 . S
H2132 C2129 0.950 . S
C2133 C2124 1.390 . S
C2133 H2126 0.950 . S
C2133 C2130 1.387 . S
C2134 C2135 1.387 . S
C2134 H2138 0.950 . S
C2134 C2143 1.390 1_655 S
C2135 C2134 1.387 . S
C2135 C2137 1.387 . S
H2136 C2143 0.950 . S
C2137 C2135 1.387 . S
C2137 C2139 1.390 1_655 S
C2137 H2141 0.950 . S
H2138 C2134 0.950 . S
C2139 C2137 1.390 1_455 S
C2139 C2140 1.387 . S
C2139 H2142 0.950 . S
C2140 C2139 1.387 . S
C2140 C2143 1.387 . S
H2141 C2137 0.950 . S
H2142 C2139 0.950 . S
C2143 C2134 1.390 1_455 S
C2143 H2136 0.950 . S
C2143 C2140 1.387 . S
C2144 C2145 1.387 . S
C2144 H2148 0.950 . S
C2144 C2153 1.390 1_655 S
C2145 C2144 1.387 . S
C2145 C2147 1.387 . S
H2146 C2153 0.950 . S
C2147 C2145 1.387 . S
C2147 C2149 1.390 1_655 S
C2147 H2151 0.950 . S
H2148 C2144 0.950 . S
C2149 C2147 1.390 1_455 S
C2149 C2150 1.387 . S
C2149 H2152 0.950 . S
C2150 C2149 1.387 . S
C2150 C2153 1.387 . S
H2151 C2147 0.950 . S
H2152 C2149 0.950 . S
C2153 C2144 1.390 1_455 S
C2153 H2146 0.950 . S
C2153 C2150 1.387 . S
C2154 C2155 1.387 . S
C2154 H2158 0.950 . S
C2154 C2163 1.390 1_545 S
C2155 C2154 1.387 . S
C2155 C2157 1.387 . S
H2156 C2163 0.950 . S
C2157 C2155 1.387 . S
C2157 C2159 1.390 1_545 S
C2157 H2161 0.950 . S
H2158 C2154 0.950 . S
C2159 C2157 1.390 1_565 S
C2159 C2160 1.387 . S
C2159 H2162 0.950 . S
C2160 C2159 1.387 . S
C2160 C2163 1.387 . S
H2161 C2157 0.950 . S
H2162 C2159 0.950 . S
C2163 C2154 1.390 1_565 S
C2163 H2156 0.950 . S
C2163 C2160 1.387 . S
C2164 C2165 1.387 . S
C2164 H2168 0.950 . S
C2164 C2173 1.390 . S
C2165 C2164 1.387 . S
C2165 C2167 1.387 . S
H2166 C2173 0.950 . S
C2167 C2165 1.387 . S
C2167 C2169 1.390 . S
C2167 H2171 0.950 . S
H2168 C2164 0.950 . S
C2169 C2167 1.390 . S
C2169 C2170 1.387 . S
C2169 H2172 0.950 . S
C2170 C2169 1.387 . S
C2170 C2173 1.387 . S
H2171 C2167 0.950 . S
H2172 C2169 0.950 . S
C2173 C2164 1.390 . S
C2173 H2166 0.950 . S
C2173 C2170 1.387 . S
C2174 C2175 1.387 . S
C2174 H2178 0.950 . S
C2174 C2183 1.390 1_556 S
C2175 C2174 1.387 . S
C2175 C2177 1.387 . S
H2176 C2183 0.950 . S
C2177 C2175 1.387 . S
C2177 C2179 1.390 1_556 S
C2177 H2181 0.950 . S
H2178 C2174 0.950 . S
C2179 C2177 1.390 1_554 S
C2179 C2180 1.387 . S
C2179 H2182 0.950 . S
C2180 C2179 1.387 . S
C2180 C2183 1.387 . S
H2181 C2177 0.950 . S
H2182 C2179 0.950 . S
C2183 C2174 1.390 1_554 S
C2183 H2176 0.950 . S
C2183 C2180 1.387 . S
C2184 C2185 1.387 . S
C2184 H2188 0.950 . S
C2184 C2193 1.390 . S
C2185 C2184 1.387 . S
C2185 C2187 1.387 . S
H2186 C2193 0.950 . S
C2187 C2185 1.387 . S
C2187 C2189 1.390 . S
C2187 H2191 0.950 . S
H2188 C2184 0.950 . S
C2189 C2187 1.390 . S
C2189 C2190 1.387 . S
C2189 H2192 0.950 . S
C2190 C2189 1.387 . S
C2190 C2193 1.387 . S
H2191 C2187 0.950 . S
H2192 C2189 0.950 . S
C2193 C2184 1.390 . S
C2193 H2186 0.950 . S
C2193 C2190 1.387 . S
C2194 C2195 1.387 . S
C2194 H2198 0.950 . S
C2194 C2203 1.390 . S
C2195 C2194 1.387 . S
C2195 C2197 1.387 . S
H2196 C2203 0.950 . S
C2197 C2195 1.387 . S
C2197 C2199 1.390 . S
C2197 H2201 0.950 . S
H2198 C2194 0.950 . S
C2199 C2197 1.390 . S
C2199 C2200 1.387 . S
C2199 H2202 0.950 . S
C2200 C2199 1.387 . S
C2200 C2203 1.387 . S
H2201 C2197 0.950 . S
H2202 C2199 0.950 . S
C2203 C2194 1.390 . S
C2203 H2196 0.950 . S
C2203 C2200 1.387 . S
C2204 C2205 1.387 . S
C2204 H2208 0.950 . S
C2204 C2213 1.390 . S
C2205 C2204 1.387 . S
C2205 C2207 1.387 . S
H2206 C2213 0.950 . S
C2207 C2205 1.387 . S
C2207 C2209 1.390 . S
C2207 H2211 0.950 . S
H2208 C2204 0.950 . S
C2209 C2207 1.390 . S
C2209 C2210 1.387 . S
C2209 H2212 0.950 . S
C2210 C2209 1.387 . S
C2210 C2213 1.387 . S
H2211 C2207 0.950 . S
H2212 C2209 0.950 . S
C2213 C2204 1.390 . S
C2213 H2206 0.950 . S
C2213 C2210 1.387 . S
C2214 C2215 1.387 . S
C2214 H2218 0.950 . S
C2214 C2223 1.390 . S
C2215 C2214 1.387 . S
C2215 C2217 1.387 . S
H2216 C2223 0.950 . S
C2217 C2215 1.387 . S
C2217 C2219 1.390 . S
C2217 H2221 0.950 . S
H2218 C2214 0.950 . S
C2219 C2217 1.390 . S
C2219 C2220 1.387 . S
C2219 H2222 0.950 . S
C2220 C2219 1.387 . S
C2220 C2223 1.387 . S
H2221 C2217 0.950 . S
H2222 C2219 0.950 . S
C2223 C2214 1.390 . S
C2223 H2216 0.950 . S
C2223 C2220 1.387 . S
C2224 C2225 1.387 . S
C2224 H2228 0.950 . S
C2224 C2233 1.390 . S
C2225 C2224 1.387 . S
C2225 C2227 1.387 . S
H2226 C2233 0.950 . S
C2227 C2225 1.387 . S
C2227 C2229 1.390 . S
C2227 H2231 0.950 . S
H2228 C2224 0.950 . S
C2229 C2227 1.390 . S
C2229 C2230 1.387 . S
C2229 H2232 0.950 . S
C2230 C2229 1.387 . S
C2230 C2233 1.387 . S
H2231 C2227 0.950 . S
H2232 C2229 0.950 . S
C2233 C2224 1.390 . S
C2233 H2226 0.950 . S
C2233 C2230 1.387 . S
C2234 C2235 1.387 . S
C2234 H2238 0.950 . S
C2234 C2243 1.390 1_545 S
C2235 C2234 1.387 . S
C2235 C2237 1.387 . S
H2236 C2243 0.950 . S
C2237 C2235 1.387 . S
C2237 C2239 1.390 1_545 S
C2237 H2241 0.950 . S
H2238 C2234 0.950 . S
C2239 C2237 1.390 1_565 S
C2239 C2240 1.387 . S
C2239 H2242 0.950 . S
C2240 C2239 1.387 . S
C2240 C2243 1.387 . S
H2241 C2237 0.950 . S
H2242 C2239 0.950 . S
C2243 C2234 1.390 1_565 S
C2243 H2236 0.950 . S
C2243 C2240 1.387 . S
C2244 C2245 1.387 . S
C2244 H2248 0.950 . S
C2244 C2253 1.390 1_554 S
C2245 C2244 1.387 . S
C2245 C2247 1.387 . S
H2246 C2253 0.950 . S
C2247 C2245 1.387 . S
C2247 C2249 1.390 1_554 S
C2247 H2251 0.950 . S
H2248 C2244 0.950 . S
C2249 C2247 1.390 1_556 S
C2249 C2250 1.387 . S
C2249 H2252 0.950 . S
C2250 C2249 1.387 . S
C2250 C2253 1.387 . S
H2251 C2247 0.950 . S
H2252 C2249 0.950 . S
C2253 C2244 1.390 1_556 S
C2253 H2246 0.950 . S
C2253 C2250 1.387 . S
C2254 C2255 1.387 . S
C2254 H2258 0.950 . S
C2254 C2263 1.390 . S
C2255 C2254 1.387 . S
C2255 C2257 1.387 . S
H2256 C2263 0.950 . S
C2257 C2255 1.387 . S
C2257 C2259 1.390 . S
C2257 H2261 0.950 . S
H2258 C2254 0.950 . S
C2259 C2257 1.390 . S
C2259 C2260 1.387 . S
C2259 H2262 0.950 . S
C2260 C2259 1.387 . S
C2260 C2263 1.387 . S
H2261 C2257 0.950 . S
H2262 C2259 0.950 . S
C2263 C2254 1.390 . S
C2263 H2256 0.950 . S
C2263 C2260 1.387 . S
C2264 C2265 1.387 . S
C2264 H2268 0.950 . S
C2264 C2273 1.390 . S
C2265 C2264 1.387 . S
C2265 C2267 1.387 . S
H2266 C2273 0.950 . S
C2267 C2265 1.387 . S
C2267 C2269 1.390 . S
C2267 H2271 0.950 . S
H2268 C2264 0.950 . S
C2269 C2267 1.390 . S
C2269 C2270 1.387 . S
C2269 H2272 0.950 . S
C2270 C2269 1.387 . S
C2270 C2273 1.387 . S
H2271 C2267 0.950 . S
H2272 C2269 0.950 . S
C2273 C2264 1.390 . S
C2273 H2266 0.950 . S
C2273 C2270 1.387 . S
C2274 C2275 1.387 . S
C2274 H2278 0.950 . S
C2274 C2283 1.390 . S
C2275 C2274 1.387 . S
C2275 C2277 1.387 . S
H2276 C2283 0.950 . S
C2277 C2275 1.387 . S
C2277 C2279 1.390 . S
C2277 H2281 0.950 . S
H2278 C2274 0.950 . S
C2279 C2277 1.390 . S
C2279 C2280 1.387 . S
C2279 H2282 0.950 . S
C2280 C2279 1.387 . S
C2280 C2283 1.387 . S
H2281 C2277 0.950 . S
H2282 C2279 0.950 . S
C2283 C2274 1.390 . S
C2283 H2276 0.950 . S
C2283 C2280 1.387 . S
C2284 C2285 1.387 . S
C2284 H2288 0.950 . S
C2284 C2293 1.390 1_565 S
C2285 C2284 1.387 . S
C2285 C2287 1.387 . S
H2286 C2293 0.950 . S
C2287 C2285 1.387 . S
C2287 C2289 1.390 1_565 S
C2287 H2291 0.950 . S
H2288 C2284 0.950 . S
C2289 C2287 1.390 1_545 S
C2289 C2290 1.387 . S
C2289 H2292 0.950 . S
C2290 C2289 1.387 . S
C2290 C2293 1.387 . S
H2291 C2287 0.950 . S
H2292 C2289 0.950 . S
C2293 C2284 1.390 1_545 S
C2293 H2286 0.950 . S
C2293 C2290 1.387 . S
C2294 C2295 1.387 . S
C2294 H2298 0.950 . S
C2294 C2303 1.390 1_556 S
C2295 C2294 1.387 . S
C2295 C2297 1.387 . S
H2296 C2303 0.950 . S
C2297 C2295 1.387 . S
C2297 C2299 1.390 1_556 S
C2297 H2301 0.950 . S
H2298 C2294 0.950 . S
C2299 C2297 1.390 1_554 S
C2299 C2300 1.387 . S
C2299 H2302 0.950 . S
C2300 C2299 1.387 . S
C2300 C2303 1.387 . S
H2301 C2297 0.950 . S
H2302 C2299 0.950 . S
C2303 C2294 1.390 1_554 S
C2303 H2296 0.950 . S
C2303 C2300 1.387 . S
C2304 C2305 1.387 . S
C2304 H2308 0.950 . S
C2304 C2313 1.390 . S
C2305 C2304 1.387 . S
C2305 C2307 1.387 . S
H2306 C2313 0.950 . S
C2307 C2305 1.387 . S
C2307 C2309 1.390 . S
C2307 H2311 0.950 . S
H2308 C2304 0.950 . S
C2309 C2307 1.390 . S
C2309 C2310 1.387 . S
C2309 H2312 0.950 . S
C2310 C2309 1.387 . S
C2310 C2313 1.387 . S
H2311 C2307 0.950 . S
H2312 C2309 0.950 . S
C2313 C2304 1.390 . S
C2313 H2306 0.950 . S
C2313 C2310 1.387 . S
C2314 C2315 1.387 . S
C2314 H2318 0.950 . S
C2314 C2323 1.390 . S
C2315 C2314 1.387 . S
C2315 C2317 1.387 . S
H2316 C2323 0.950 . S
C2317 C2315 1.387 . S
C2317 C2319 1.390 . S
C2317 H2321 0.950 . S
H2318 C2314 0.950 . S
C2319 C2317 1.390 . S
C2319 C2320 1.387 . S
C2319 H2322 0.950 . S
C2320 C2319 1.387 . S
C2320 C2323 1.387 . S
H2321 C2317 0.950 . S
H2322 C2319 0.950 . S
C2323 C2314 1.390 . S
C2323 H2316 0.950 . S
C2323 C2320 1.387 . S
C2324 C2325 1.387 . S
C2324 H2328 0.950 . S
C2324 C2333 1.390 1_556 S
C2325 C2324 1.387 . S
C2325 C2327 1.387 . S
H2326 C2333 0.950 . S
C2327 C2325 1.387 . S
C2327 C2329 1.390 1_556 S
C2327 H2331 0.950 . S
H2328 C2324 0.950 . S
C2329 C2327 1.390 1_554 S
C2329 C2330 1.387 . S
C2329 H2332 0.950 . S
C2330 C2329 1.387 . S
C2330 C2333 1.387 . S
H2331 C2327 0.950 . S
H2332 C2329 0.950 . S
C2333 C2324 1.390 1_554 S
C2333 H2326 0.950 . S
C2333 C2330 1.387 . S
C2334 C2335 1.387 . S
C2334 H2338 0.950 . S
C2334 C2343 1.390 1_556 S
C2335 C2334 1.387 . S
C2335 C2337 1.387 . S
H2336 C2343 0.950 . S
C2337 C2335 1.387 . S
C2337 C2339 1.390 1_556 S
C2337 H2341 0.950 . S
H2338 C2334 0.950 . S
C2339 C2337 1.390 1_554 S
C2339 C2340 1.387 . S
C2339 H2342 0.950 . S
C2340 C2339 1.387 . S
C2340 C2343 1.387 . S
H2341 C2337 0.950 . S
H2342 C2339 0.950 . S
C2343 C2334 1.390 1_554 S
C2343 H2336 0.950 . S
C2343 C2340 1.387 . S
C2344 C2345 1.387 . S
C2344 H2348 0.950 . S
C2344 C2353 1.390 . S
C2345 C2344 1.387 . S
C2345 C2347 1.387 . S
H2346 C2353 0.950 . S
C2347 C2345 1.387 . S
C2347 C2349 1.390 . S
C2347 H2351 0.950 . S
H2348 C2344 0.950 . S
C2349 C2347 1.390 . S
C2349 C2350 1.387 . S
C2349 H2352 0.950 . S
C2350 C2349 1.387 . S
C2350 C2353 1.387 . S
H2351 C2347 0.950 . S
H2352 C2349 0.950 . S
C2353 C2344 1.390 . S
C2353 H2346 0.950 . S
C2353 C2350 1.387 . S
C2354 C2355 1.387 . S
C2354 H2358 0.950 . S
C2354 C2363 1.390 . S
C2355 C2354 1.387 . S
C2355 C2357 1.387 . S
H2356 C2363 0.950 . S
C2357 C2355 1.387 . S
C2357 C2359 1.390 . S
C2357 H2361 0.950 . S
H2358 C2354 0.950 . S
C2359 C2357 1.390 . S
C2359 C2360 1.387 . S
C2359 H2362 0.950 . S
C2360 C2359 1.387 . S
C2360 C2363 1.387 . S
H2361 C2357 0.950 . S
H2362 C2359 0.950 . S
C2363 C2354 1.390 . S
C2363 H2356 0.950 . S
C2363 C2360 1.387 . S
C2364 C2365 1.387 . S
C2364 H2368 0.950 . S
C2364 C2373 1.390 . S
C2365 C2364 1.387 . S
C2365 C2367 1.387 . S
H2366 C2373 0.950 . S
C2367 C2365 1.387 . S
C2367 C2369 1.390 . S
C2367 H2371 0.950 . S
H2368 C2364 0.950 . S
C2369 C2367 1.390 . S
C2369 C2370 1.387 . S
C2369 H2372 0.950 . S
C2370 C2369 1.387 . S
C2370 C2373 1.387 . S
H2371 C2367 0.950 . S
H2372 C2369 0.950 . S
C2373 C2364 1.390 . S
C2373 H2366 0.950 . S
C2373 C2370 1.387 . S
C2374 C2375 1.387 . S
C2374 H2378 0.950 . S
C2374 C2383 1.390 . S
C2375 C2374 1.387 . S
C2375 C2377 1.387 . S
H2376 C2383 0.950 . S
C2377 C2375 1.387 . S
C2377 C2379 1.390 . S
C2377 H2381 0.950 . S
H2378 C2374 0.950 . S
C2379 C2377 1.390 . S
C2379 C2380 1.387 . S
C2379 H2382 0.950 . S
C2380 C2379 1.387 . S
C2380 C2383 1.387 . S
H2381 C2377 0.950 . S
H2382 C2379 0.950 . S
C2383 C2374 1.390 . S
C2383 H2376 0.950 . S
C2383 C2380 1.387 . S
C2384 C2385 1.387 . S
C2384 H2388 0.950 . S
C2384 C2393 1.390 . S
C2385 C2384 1.387 . S
C2385 C2387 1.387 . S
H2386 C2393 0.950 . S
C2387 C2385 1.387 . S
C2387 C2389 1.390 . S
C2387 H2391 0.950 . S
H2388 C2384 0.950 . S
C2389 C2387 1.390 . S
C2389 C2390 1.387 . S
C2389 H2392 0.950 . S
C2390 C2389 1.387 . S
C2390 C2393 1.387 . S
H2391 C2387 0.950 . S
H2392 C2389 0.950 . S
C2393 C2384 1.390 . S
C2393 H2386 0.950 . S
C2393 C2390 1.387 . S
C2394 C2395 1.387 . S
C2394 H2398 0.950 . S
C2394 C2403 1.390 . S
C2395 C2394 1.387 . S
C2395 C2397 1.387 . S
H2396 C2403 0.950 . S
C2397 C2395 1.387 . S
C2397 C2399 1.390 . S
C2397 H2401 0.950 . S
H2398 C2394 0.950 . S
C2399 C2397 1.390 . S
C2399 C2400 1.387 . S
C2399 H2402 0.950 . S
C2400 C2399 1.387 . S
C2400 C2403 1.387 . S
H2401 C2397 0.950 . S
H2402 C2399 0.950 . S
C2403 C2394 1.390 . S
C2403 H2396 0.950 . S
C2403 C2400 1.387 . S
C2404 C2405 1.387 . S
C2404 H2408 0.950 . S
C2404 C2413 1.390 1_565 S
C2405 C2404 1.387 . S
C2405 C2407 1.387 . S
H2406 C2413 0.950 . S
C2407 C2405 1.387 . S
C2407 C2409 1.390 1_565 S
C2407 H2411 0.950 . S
H2408 C2404 0.950 . S
C2409 C2407 1.390 1_545 S
C2409 C2410 1.387 . S
C2409 H2412 0.950 . S
C2410 C2409 1.387 . S
C2410 C2413 1.387 . S
H2411 C2407 0.950 . S
H2412 C2409 0.950 . S
C2413 C2404 1.390 1_545 S
C2413 H2406 0.950 . S
C2413 C2410 1.387 . S
C2414 C2415 1.387 . S
C2414 H2418 0.950 . S
C2414 C2423 1.390 . S
C2415 C2414 1.387 . S
C2415 C2417 1.387 . S
H2416 C2423 0.950 . S
C2417 C2415 1.387 . S
C2417 C2419 1.390 . S
C2417 H2421 0.950 . S
H2418 C2414 0.950 . S
C2419 C2417 1.390 . S
C2419 C2420 1.387 . S
C2419 H2422 0.950 . S
C2420 C2419 1.387 . S
C2420 C2423 1.387 . S
H2421 C2417 0.950 . S
H2422 C2419 0.950 . S
C2423 C2414 1.390 . S
C2423 H2416 0.950 . S
C2423 C2420 1.387 . S
C2424 C2425 1.387 . S
C2424 H2428 0.950 . S
C2424 C2433 1.390 . S
C2425 C2424 1.387 . S
C2425 C2427 1.387 . S
H2426 C2433 0.950 . S
C2427 C2425 1.387 . S
C2427 C2429 1.390 . S
C2427 H2431 0.950 . S
H2428 C2424 0.950 . S
C2429 C2427 1.390 . S
C2429 C2430 1.387 . S
C2429 H2432 0.950 . S
C2430 C2429 1.387 . S
C2430 C2433 1.387 . S
H2431 C2427 0.950 . S
H2432 C2429 0.950 . S
C2433 C2424 1.390 . S
C2433 H2426 0.950 . S
C2433 C2430 1.387 . S
C2434 C2435 1.387 . S
C2434 H2438 0.950 . S
C2434 C2443 1.390 . S
C2435 C2434 1.387 . S
C2435 C2437 1.387 . S
H2436 C2443 0.950 . S
C2437 C2435 1.387 . S
C2437 C2439 1.390 . S
C2437 H2441 0.950 . S
H2438 C2434 0.950 . S
C2439 C2437 1.390 . S
C2439 C2440 1.387 . S
C2439 H2442 0.950 . S
C2440 C2439 1.387 . S
C2440 C2443 1.387 . S
H2441 C2437 0.950 . S
H2442 C2439 0.950 . S
C2443 C2434 1.390 . S
C2443 H2436 0.950 . S
C2443 C2440 1.387 . S
C2444 C2445 1.387 . S
C2444 H2448 0.950 . S
C2444 C2453 1.390 1_556 S
C2445 C2444 1.387 . S
C2445 C2447 1.387 . S
H2446 C2453 0.950 . S
C2447 C2445 1.387 . S
C2447 C2449 1.390 1_556 S
C2447 H2451 0.950 . S
H2448 C2444 0.950 . S
C2449 C2447 1.390 1_554 S
C2449 C2450 1.387 . S
C2449 H2452 0.950 . S
C2450 C2449 1.387 . S
C2450 C2453 1.387 . S
H2451 C2447 0.950 . S
H2452 C2449 0.950 . S
C2453 C2444 1.390 1_554 S
C2453 H2446 0.950 . S
C2453 C2450 1.387 . S
C2454 C2455 1.387 . S
C2454 H2458 0.950 . S
C2454 C2463 1.390 1_556 S
C2455 C2454 1.387 . S
C2455 C2457 1.387 . S
H2456 C2463 0.950 . S
C2457 C2455 1.387 . S
C2457 C2459 1.390 1_556 S
C2457 H2461 0.950 . S
H2458 C2454 0.950 . S
C2459 C2457 1.390 1_554 S
C2459 C2460 1.387 . S
C2459 H2462 0.950 . S
C2460 C2459 1.387 . S
C2460 C2463 1.387 . S
H2461 C2457 0.950 . S
H2462 C2459 0.950 . S
C2463 C2454 1.390 1_554 S
C2463 H2456 0.950 . S
C2463 C2460 1.387 . S
C2464 C2465 1.387 . S
C2464 H2468 0.950 . S
C2464 C2473 1.390 . S
C2465 C2464 1.387 . S
C2465 C2467 1.387 . S
H2466 C2473 0.950 . S
C2467 C2465 1.387 . S
C2467 C2469 1.390 . S
C2467 H2471 0.950 . S
H2468 C2464 0.950 . S
C2469 C2467 1.390 . S
C2469 C2470 1.387 . S
C2469 H2472 0.950 . S
C2470 C2469 1.387 . S
C2470 C2473 1.387 . S
H2471 C2467 0.950 . S
H2472 C2469 0.950 . S
C2473 C2464 1.390 . S
C2473 H2466 0.950 . S
C2473 C2470 1.387 . S
C2474 C2475 1.387 . S
C2474 H2478 0.950 . S
C2474 C2483 1.390 . S
C2475 C2474 1.387 . S
C2475 C2477 1.387 . S
H2476 C2483 0.950 . S
C2477 C2475 1.387 . S
C2477 C2479 1.390 . S
C2477 H2481 0.950 . S
H2478 C2474 0.950 . S
C2479 C2477 1.390 . S
C2479 C2480 1.387 . S
C2479 H2482 0.950 . S
C2480 C2479 1.387 . S
C2480 C2483 1.387 . S
H2481 C2477 0.950 . S
H2482 C2479 0.950 . S
C2483 C2474 1.390 . S
C2483 H2476 0.950 . S
C2483 C2480 1.387 . S
C2484 C2485 1.387 . S
C2484 H2488 0.950 . S
C2484 C2493 1.390 . S
C2485 C2484 1.387 . S
C2485 C2487 1.387 . S
H2486 C2493 0.950 . S
C2487 C2485 1.387 . S
C2487 C2489 1.390 . S
C2487 H2491 0.950 . S
H2488 C2484 0.950 . S
C2489 C2487 1.390 . S
C2489 C2490 1.387 . S
C2489 H2492 0.950 . S
C2490 C2489 1.387 . S
C2490 C2493 1.387 . S
H2491 C2487 0.950 . S
H2492 C2489 0.950 . S
C2493 C2484 1.390 . S
C2493 H2486 0.950 . S
C2493 C2490 1.387 . S
C2494 C2495 1.387 . S
C2494 H2498 0.950 . S
C2494 C2503 1.390 . S
C2495 C2494 1.387 . S
C2495 C2497 1.387 . S
H2496 C2503 0.950 . S
C2497 C2495 1.387 . S
C2497 C2499 1.390 . S
C2497 H2501 0.950 . S
H2498 C2494 0.950 . S
C2499 C2497 1.390 . S
C2499 C2500 1.387 . S
C2499 H2502 0.950 . S
C2500 C2499 1.387 . S
C2500 C2503 1.387 . S
H2501 C2497 0.950 . S
H2502 C2499 0.950 . S
C2503 C2494 1.390 . S
C2503 H2496 0.950 . S
C2503 C2500 1.387 . S
C2504 C2505 1.387 . S
C2504 H2508 0.950 . S
C2504 C2513 1.390 . S
C2505 C2504 1.387 . S
C2505 C2507 1.387 . S
H2506 C2513 0.950 . S
C2507 C2505 1.387 . S
C2507 C2509 1.390 . S
C2507 H2511 0.950 . S
H2508 C2504 0.950 . S
C2509 C2507 1.390 . S
C2509 C2510 1.387 . S
C2509 H2512 0.950 . S
C2510 C2509 1.387 . S
C2510 C2513 1.387 . S
H2511 C2507 0.950 . S
H2512 C2509 0.950 . S
C2513 C2504 1.390 . S
C2513 H2506 0.950 . S
C2513 C2510 1.387 . S
C2514 C2515 1.387 . S
C2514 H2518 0.950 . S
C2514 C2523 1.390 . S
C2515 C2514 1.387 . S
C2515 C2517 1.387 . S
H2516 C2523 0.950 . S
C2517 C2515 1.387 . S
C2517 C2519 1.390 . S
C2517 H2521 0.950 . S
H2518 C2514 0.950 . S
C2519 C2517 1.390 . S
C2519 C2520 1.387 . S
C2519 H2522 0.950 . S
C2520 C2519 1.387 . S
C2520 C2523 1.387 . S
H2521 C2517 0.950 . S
H2522 C2519 0.950 . S
C2523 C2514 1.390 . S
C2523 H2516 0.950 . S
C2523 C2520 1.387 . S
C2524 C2525 1.387 . S
C2524 H2528 0.950 . S
C2524 C2533 1.390 1_565 S
C2525 C2524 1.387 . S
C2525 C2527 1.387 . S
H2526 C2533 0.950 . S
C2527 C2525 1.387 . S
C2527 C2529 1.390 1_565 S
C2527 H2531 0.950 . S
H2528 C2524 0.950 . S
C2529 C2527 1.390 1_545 S
C2529 C2530 1.387 . S
C2529 H2532 0.950 . S
C2530 C2529 1.387 . S
C2530 C2533 1.387 . S
H2531 C2527 0.950 . S
H2532 C2529 0.950 . S
C2533 C2524 1.390 1_545 S
C2533 H2526 0.950 . S
C2533 C2530 1.387 . S
C2534 C2535 1.387 . S
C2534 H2538 0.950 . S
C2534 C2543 1.390 . S
C2535 C2534 1.387 . S
C2535 C2537 1.387 . S
H2536 C2543 0.950 . S
C2537 C2535 1.387 . S
C2537 C2539 1.390 . S
C2537 H2541 0.950 . S
H2538 C2534 0.950 . S
C2539 C2537 1.390 . S
C2539 C2540 1.387 . S
C2539 H2542 0.950 . S
C2540 C2539 1.387 . S
C2540 C2543 1.387 . S
H2541 C2537 0.950 . S
H2542 C2539 0.950 . S
C2543 C2534 1.390 . S
C2543 H2536 0.950 . S
C2543 C2540 1.387 . S
C2544 C2545 1.387 . S
C2544 H2548 0.950 . S
C2544 C2553 1.390 1_556 S
C2545 C2544 1.387 . S
C2545 C2547 1.387 . S
H2546 C2553 0.950 . S
C2547 C2545 1.387 . S
C2547 C2549 1.390 1_556 S
C2547 H2551 0.950 . S
H2548 C2544 0.950 . S
C2549 C2547 1.390 1_554 S
C2549 C2550 1.387 . S
C2549 H2552 0.950 . S
C2550 C2549 1.387 . S
C2550 C2553 1.387 . S
H2551 C2547 0.950 . S
H2552 C2549 0.950 . S
C2553 C2544 1.390 1_554 S
C2553 H2546 0.950 . S
C2553 C2550 1.387 . S
C2554 C2555 1.387 . S
C2554 H2558 0.950 . S
C2554 C2563 1.390 1_554 S
C2555 C2554 1.387 . S
C2555 C2557 1.387 . S
H2556 C2563 0.950 . S
C2557 C2555 1.387 . S
C2557 C2559 1.390 1_554 S
C2557 H2561 0.950 . S
H2558 C2554 0.950 . S
C2559 C2557 1.390 1_556 S
C2559 C2560 1.387 . S
C2559 H2562 0.950 . S
C2560 C2559 1.387 . S
C2560 C2563 1.387 . S
H2561 C2557 0.950 . S
H2562 C2559 0.950 . S
C2563 C2554 1.390 1_556 S
C2563 H2556 0.950 . S
C2563 C2560 1.387 . S
C2564 C2565 1.387 . S
C2564 H2568 0.950 . S
C2564 C2573 1.390 . S
C2565 C2564 1.387 . S
C2565 C2567 1.387 . S
H2566 C2573 0.950 . S
C2567 C2565 1.387 . S
C2567 C2569 1.390 . S
C2567 H2571 0.950 . S
H2568 C2564 0.950 . S
C2569 C2567 1.390 . S
C2569 C2570 1.387 . S
C2569 H2572 0.950 . S
C2570 C2569 1.387 . S
C2570 C2573 1.387 . S
H2571 C2567 0.950 . S
H2572 C2569 0.950 . S
C2573 C2564 1.390 . S
C2573 H2566 0.950 . S
C2573 C2570 1.387 . S
C2574 C2575 1.387 . S
C2574 H2578 0.950 . S
C2574 C2583 1.390 . S
C2575 C2574 1.387 . S
C2575 C2577 1.387 . S
H2576 C2583 0.950 . S
C2577 C2575 1.387 . S
C2577 C2579 1.390 . S
C2577 H2581 0.950 . S
H2578 C2574 0.950 . S
C2579 C2577 1.390 . S
C2579 C2580 1.387 . S
C2579 H2582 0.950 . S
C2580 C2579 1.387 . S
C2580 C2583 1.387 . S
H2581 C2577 0.950 . S
H2582 C2579 0.950 . S
C2583 C2574 1.390 . S
C2583 H2576 0.950 . S
C2583 C2580 1.387 . S
C2584 C2585 1.387 . S
C2584 H2588 0.950 . S
C2584 C2593 1.390 1_655 S
C2585 C2584 1.387 . S
C2585 C2587 1.387 . S
H2586 C2593 0.950 . S
C2587 C2585 1.387 . S
C2587 C2589 1.390 1_655 S
C2587 H2591 0.950 . S
H2588 C2584 0.950 . S
C2589 C2587 1.390 1_455 S
C2589 C2590 1.387 . S
C2589 H2592 0.950 . S
C2590 C2589 1.387 . S
C2590 C2593 1.387 . S
H2591 C2587 0.950 . S
H2592 C2589 0.950 . S
C2593 C2584 1.390 1_455 S
C2593 H2586 0.950 . S
C2593 C2590 1.387 . S
C2594 C2595 1.387 . S
C2594 H2598 0.950 . S
C2594 C2603 1.390 1_655 S
C2595 C2594 1.387 . S
C2595 C2597 1.387 . S
H2596 C2603 0.950 . S
C2597 C2595 1.387 . S
C2597 C2599 1.390 1_655 S
C2597 H2601 0.950 . S
H2598 C2594 0.950 . S
C2599 C2597 1.390 1_455 S
C2599 C2600 1.387 . S
C2599 H2602 0.950 . S
C2600 C2599 1.387 . S
C2600 C2603 1.387 . S
H2601 C2597 0.950 . S
H2602 C2599 0.950 . S
C2603 C2594 1.390 1_455 S
C2603 H2596 0.950 . S
C2603 C2600 1.387 . S
C2604 C2605 1.387 . S
C2604 H2608 0.950 . S
C2604 C2613 1.390 1_655 S
C2605 C2604 1.387 . S
C2605 C2607 1.387 . S
H2606 C2613 0.950 . S
C2607 C2605 1.387 . S
C2607 C2609 1.390 1_655 S
C2607 H2611 0.950 . S
H2608 C2604 0.950 . S
C2609 C2607 1.390 1_455 S
C2609 C2610 1.387 . S
C2609 H2612 0.950 . S
C2610 C2609 1.387 . S
C2610 C2613 1.387 . S
H2611 C2607 0.950 . S
H2612 C2609 0.950 . S
C2613 C2604 1.390 1_455 S
C2613 H2606 0.950 . S
C2613 C2610 1.387 . S
C2614 C2615 1.387 . S
C2614 H2618 0.950 . S
C2614 C2623 1.390 1_455 S
C2615 C2614 1.387 . S
C2615 C2617 1.387 . S
H2616 C2623 0.950 . S
C2617 C2615 1.387 . S
C2617 C2619 1.390 1_455 S
C2617 H2621 0.950 . S
H2618 C2614 0.950 . S
C2619 C2617 1.390 1_655 S
C2619 C2620 1.387 . S
C2619 H2622 0.950 . S
C2620 C2619 1.387 . S
C2620 C2623 1.387 . S
H2621 C2617 0.950 . S
H2622 C2619 0.950 . S
C2623 C2614 1.390 1_655 S
C2623 H2616 0.950 . S
C2623 C2620 1.387 . S
C2624 C2625 1.387 . S
C2624 H2628 0.950 . S
C2624 C2633 1.390 1_545 S
C2625 C2624 1.387 . S
C2625 C2627 1.387 . S
H2626 C2633 0.950 . S
C2627 C2625 1.387 . S
C2627 C2629 1.390 1_545 S
C2627 H2631 0.950 . S
H2628 C2624 0.950 . S
C2629 C2627 1.390 1_565 S
C2629 C2630 1.387 . S
C2629 H2632 0.950 . S
C2630 C2629 1.387 . S
C2630 C2633 1.387 . S
H2631 C2627 0.950 . S
H2632 C2629 0.950 . S
C2633 C2624 1.390 1_565 S
C2633 H2626 0.950 . S
C2633 C2630 1.387 . S
C2634 C2635 1.387 . S
C2634 H2638 0.950 . S
C2634 C2643 1.390 1_545 S
C2635 C2634 1.387 . S
C2635 C2637 1.387 . S
H2636 C2643 0.950 . S
C2637 C2635 1.387 . S
C2637 C2639 1.390 1_545 S
C2637 H2641 0.950 . S
H2638 C2634 0.950 . S
C2639 C2637 1.390 1_565 S
C2639 C2640 1.387 . S
C2639 H2642 0.950 . S
C2640 C2639 1.387 . S
C2640 C2643 1.387 . S
H2641 C2637 0.950 . S
H2642 C2639 0.950 . S
C2643 C2634 1.390 1_565 S
C2643 H2636 0.950 . S
C2643 C2640 1.387 . S
C2644 C2645 1.387 . S
C2644 H2648 0.950 . S
C2644 C2653 1.390 . S
C2645 C2644 1.387 . S
C2645 C2647 1.387 . S
H2646 C2653 0.950 . S
C2647 C2645 1.387 . S
C2647 C2649 1.390 . S
C2647 H2651 0.950 . S
H2648 C2644 0.950 . S
C2649 C2647 1.390 . S
C2649 C2650 1.387 . S
C2649 H2652 0.950 . S
C2650 C2649 1.387 . S
C2650 C2653 1.387 . S
H2651 C2647 0.950 . S
H2652 C2649 0.950 . S
C2653 C2644 1.390 . S
C2653 H2646 0.950 . S
C2653 C2650 1.387 . S
C2654 C2655 1.387 . S
C2654 H2658 0.950 . S
C2654 C2663 1.390 1_545 S
C2655 C2654 1.387 . S
C2655 C2657 1.387 . S
H2656 C2663 0.950 . S
C2657 C2655 1.387 . S
C2657 C2659 1.390 1_545 S
C2657 H2661 0.950 . S
H2658 C2654 0.950 . S
C2659 C2657 1.390 1_565 S
C2659 C2660 1.387 . S
C2659 H2662 0.950 . S
C2660 C2659 1.387 . S
C2660 C2663 1.387 . S
H2661 C2657 0.950 . S
H2662 C2659 0.950 . S
C2663 C2654 1.390 1_565 S
C2663 H2656 0.950 . S
C2663 C2660 1.387 . S
C2664 C2665 1.387 . S
C2664 H2668 0.950 . S
C2664 C2673 1.390 1_556 S
C2665 C2664 1.387 . S
C2665 C2667 1.387 . S
H2666 C2673 0.950 . S
C2667 C2665 1.387 . S
C2667 C2669 1.390 1_556 S
C2667 H2671 0.950 . S
H2668 C2664 0.950 . S
C2669 C2667 1.390 1_554 S
C2669 C2670 1.387 . S
C2669 H2672 0.950 . S
C2670 C2669 1.387 . S
C2670 C2673 1.387 . S
H2671 C2667 0.950 . S
H2672 C2669 0.950 . S
C2673 C2664 1.390 1_554 S
C2673 H2666 0.950 . S
C2673 C2670 1.387 . S
C2674 C2675 1.387 . S
C2674 H2678 0.950 . S
C2674 C2683 1.390 1_554 S
C2675 C2674 1.387 . S
C2675 C2677 1.387 . S
H2676 C2683 0.950 . S
C2677 C2675 1.387 . S
C2677 C2679 1.390 1_554 S
C2677 H2681 0.950 . S
H2678 C2674 0.950 . S
C2679 C2677 1.390 1_556 S
C2679 C2680 1.387 . S
C2679 H2682 0.950 . S
C2680 C2679 1.387 . S
C2680 C2683 1.387 . S
H2681 C2677 0.950 . S
H2682 C2679 0.950 . S
C2683 C2674 1.390 1_556 S
C2683 H2676 0.950 . S
C2683 C2680 1.387 . S
C2684 C2685 1.387 . S
C2684 H2688 0.950 . S
C2684 C2693 1.390 . S
C2685 C2684 1.387 . S
C2685 C2687 1.387 . S
H2686 C2693 0.950 . S
C2687 C2685 1.387 . S
C2687 C2689 1.390 . S
C2687 H2691 0.950 . S
H2688 C2684 0.950 . S
C2689 C2687 1.390 . S
C2689 C2690 1.387 . S
C2689 H2692 0.950 . S
C2690 C2689 1.387 . S
C2690 C2693 1.387 . S
H2691 C2687 0.950 . S
H2692 C2689 0.950 . S
C2693 C2684 1.390 . S
C2693 H2686 0.950 . S
C2693 C2690 1.387 . S
C2694 C2695 1.387 . S
C2694 H2698 0.950 . S
C2694 C2703 1.390 . S
C2695 C2694 1.387 . S
C2695 C2697 1.387 . S
H2696 C2703 0.950 . S
C2697 C2695 1.387 . S
C2697 C2699 1.390 . S
C2697 H2701 0.950 . S
H2698 C2694 0.950 . S
C2699 C2697 1.390 . S
C2699 C2700 1.387 . S
C2699 H2702 0.950 . S
C2700 C2699 1.387 . S
C2700 C2703 1.387 . S
H2701 C2697 0.950 . S
H2702 C2699 0.950 . S
C2703 C2694 1.390 . S
C2703 H2696 0.950 . S
C2703 C2700 1.387 . S
C2704 C2705 1.387 . S
C2704 H2708 0.950 . S
C2704 C2713 1.390 1_455 S
C2705 C2704 1.387 . S
C2705 C2707 1.387 . S
H2706 C2713 0.950 . S
C2707 C2705 1.387 . S
C2707 C2709 1.390 1_455 S
C2707 H2711 0.950 . S
H2708 C2704 0.950 . S
C2709 C2707 1.390 1_655 S
C2709 C2710 1.387 . S
C2709 H2712 0.950 . S
C2710 C2709 1.387 . S
C2710 C2713 1.387 . S
H2711 C2707 0.950 . S
H2712 C2709 0.950 . S
C2713 C2704 1.390 1_655 S
C2713 H2706 0.950 . S
C2713 C2710 1.387 . S
C2714 C2715 1.387 . S
C2714 H2718 0.950 . S
C2714 C2723 1.390 1_455 S
C2715 C2714 1.387 . S
C2715 C2717 1.387 . S
H2716 C2723 0.950 . S
C2717 C2715 1.387 . S
C2717 C2719 1.390 1_455 S
C2717 H2721 0.950 . S
H2718 C2714 0.950 . S
C2719 C2717 1.390 1_655 S
C2719 C2720 1.387 . S
C2719 H2722 0.950 . S
C2720 C2719 1.387 . S
C2720 C2723 1.387 . S
H2721 C2717 0.950 . S
H2722 C2719 0.950 . S
C2723 C2714 1.390 1_655 S
C2723 H2716 0.950 . S
C2723 C2720 1.387 . S
C2724 C2725 1.387 . S
C2724 H2728 0.950 . S
C2724 C2733 1.390 1_655 S
C2725 C2724 1.387 . S
C2725 C2727 1.387 . S
H2726 C2733 0.950 . S
C2727 C2725 1.387 . S
C2727 C2729 1.390 1_655 S
C2727 H2731 0.950 . S
H2728 C2724 0.950 . S
C2729 C2727 1.390 1_455 S
C2729 C2730 1.387 . S
C2729 H2732 0.950 . S
C2730 C2729 1.387 . S
C2730 C2733 1.387 . S
H2731 C2727 0.950 . S
H2732 C2729 0.950 . S
C2733 C2724 1.390 1_455 S
C2733 H2726 0.950 . S
C2733 C2730 1.387 . S
C2734 C2735 1.387 . S
C2734 H2738 0.950 . S
C2734 C2743 1.390 1_455 S
C2735 C2734 1.387 . S
C2735 C2737 1.387 . S
H2736 C2743 0.950 . S
C2737 C2735 1.387 . S
C2737 C2739 1.390 1_455 S
C2737 H2741 0.950 . S
H2738 C2734 0.950 . S
C2739 C2737 1.390 1_655 S
C2739 C2740 1.387 . S
C2739 H2742 0.950 . S
C2740 C2739 1.387 . S
C2740 C2743 1.387 . S
H2741 C2737 0.950 . S
H2742 C2739 0.950 . S
C2743 C2734 1.390 1_655 S
C2743 H2736 0.950 . S
C2743 C2740 1.387 . S
C2744 C2745 1.387 . S
C2744 H2748 0.950 . S
C2744 C2753 1.390 1_545 S
C2745 C2744 1.387 . S
C2745 C2747 1.387 . S
H2746 C2753 0.950 . S
C2747 C2745 1.387 . S
C2747 C2749 1.390 1_545 S
C2747 H2751 0.950 . S
H2748 C2744 0.950 . S
C2749 C2747 1.390 1_565 S
C2749 C2750 1.387 . S
C2749 H2752 0.950 . S
C2750 C2749 1.387 . S
C2750 C2753 1.387 . S
H2751 C2747 0.950 . S
H2752 C2749 0.950 . S
C2753 C2744 1.390 1_565 S
C2753 H2746 0.950 . S
C2753 C2750 1.387 . S
C2754 C2755 1.387 . S
C2754 H2758 0.950 . S
C2754 C2763 1.390 1_545 S
C2755 C2754 1.387 . S
C2755 C2757 1.387 . S
H2756 C2763 0.950 . S
C2757 C2755 1.387 . S
C2757 C2759 1.390 1_545 S
C2757 H2761 0.950 . S
H2758 C2754 0.950 . S
C2759 C2757 1.390 1_565 S
C2759 C2760 1.387 . S
C2759 H2762 0.950 . S
C2760 C2759 1.387 . S
C2760 C2763 1.387 . S
H2761 C2757 0.950 . S
H2762 C2759 0.950 . S
C2763 C2754 1.390 1_565 S
C2763 H2756 0.950 . S
C2763 C2760 1.387 . S
C2764 C2765 1.387 . S
C2764 H2768 0.950 . S
C2764 C2773 1.390 . S
C2765 C2764 1.387 . S
C2765 C2767 1.387 . S
H2766 C2773 0.950 . S
C2767 C2765 1.387 . S
C2767 C2769 1.390 . S
C2767 H2771 0.950 . S
H2768 C2764 0.950 . S
C2769 C2767 1.390 . S
C2769 C2770 1.387 . S
C2769 H2772 0.950 . S
C2770 C2769 1.387 . S
C2770 C2773 1.387 . S
H2771 C2767 0.950 . S
H2772 C2769 0.950 . S
C2773 C2764 1.390 . S
C2773 H2766 0.950 . S
C2773 C2770 1.387 . S
C2774 C2775 1.387 . S
C2774 H2778 0.950 . S
C2774 C2783 1.390 1_565 S
C2775 C2774 1.387 . S
C2775 C2777 1.387 . S
H2776 C2783 0.950 . S
C2777 C2775 1.387 . S
C2777 C2779 1.390 1_565 S
C2777 H2781 0.950 . S
H2778 C2774 0.950 . S
C2779 C2777 1.390 1_545 S
C2779 C2780 1.387 . S
C2779 H2782 0.950 . S
C2780 C2779 1.387 . S
C2780 C2783 1.387 . S
H2781 C2777 0.950 . S
H2782 C2779 0.950 . S
C2783 C2774 1.390 1_545 S
C2783 H2776 0.950 . S
C2783 C2780 1.387 . S
C1585 N1333 1.453 . S
C1590 C7 1.475 . S
C1595 N1366 1.454 . S
C1600 C40 1.476 . S
C1605 N1399 1.453 . S
C1610 C73 1.476 . S
C1615 C106 1.474 . S
C1620 N1432 1.451 . S
C1625 C139 1.476 . S
C1630 N1465 1.454 . S
C1635 C172 1.475 . S
C1640 N772 1.451 . S
C1645 C205 1.476 . S
C1650 N1498 1.454 . S
C1655 C238 1.474 . S
C1660 N1531 1.451 . S
C1665 C271 1.477 . S
C1670 N1201 1.454 . S
C1675 C304 1.476 . S
C1680 N1267 1.453 . S
C1685 C337 1.474 . S
C1690 N1300 1.451 . S
C1695 N442 1.450 . S
C1700 C370 1.474 . S
C1705 C403 1.476 . S
C1710 N937 1.454 . S
C1715 C436 1.474 . S
C1720 N970 1.452 . S
C1725 N1003 1.454 . S
C1730 C469 1.476 . S
C1735 N1036 1.452 . S
C1740 C502 1.476 . S
C1745 C535 1.474 . S
C1750 N1069 1.451 . S
C1755 N376 1.454 . S
C1760 C568 1.476 . S
C1765 N1102 1.454 . S
C1770 C601 1.476 . S
C1775 N1135 1.454 . S
C1780 C634 1.476 . S
C1785 C667 1.476 . S
C1790 N805 1.454 . S
C1795 C700 1.474 . S
C1800 N871 1.452 . S
C1805 N904 1.453 . S
C1810 C733 1.475 . S
C1815 C766 1.474 . S
C1820 N46 1.451 . S
C1825 C799 1.474 . S
C1830 N541 1.451 . S
C1835 N574 1.451 . S
C1840 C832 1.474 . S
C1845 N607 1.453 . S
C1850 C865 1.475 . S
C1855 C898 1.475 . S
C1860 N640 1.453 . S
C1865 C931 1.474 . S
C1870 N673 1.451 . S
C1875 N1564 1.454 . S
C1880 C964 1.476 . S
C1885 C997 1.475 . S
C1890 N706 1.454 . S
C1895 C1030 1.475 . S
C1900 N739 1.453 . S
C1905 C1063 1.475 . S
C1910 N409 1.451 . S
C1915 N475 1.453 . S
C1920 C1096 1.477 . S
C1925 C1129 1.476 . S
C1930 N508 1.454 . S
C1935 C1162 1.474 . S
C1940 N1234 1.452 . S
C1945 C1195 1.476 . S
C1950 N145 1.452 . S
C1955 C1228 1.476 . S
C1960 N178 1.453 . S
C1965 C1261 1.475 . S
C1970 N211 1.453 . S
C1975 C1294 1.474 . S
C1980 N244 1.452 . S
C1985 N277 1.451 . S
C1990 C1327 1.474 . S
C1995 C1360 1.474 . S
C2000 N1168 1.451 . S
C2005 C1393 1.475 . S
C2010 N310 1.451 . S
C2015 N343 1.450 . S
C2020 C1426 1.474 . S
C2025 N13 1.451 . S
C2030 C1459 1.474 . S
C2035 C1492 1.474 . S
C2040 N79 1.451 . S
C2045 C1525 1.474 . S
C2050 N112 1.451 . S
C2055 N838 1.451 . S
C2060 C1558 1.474 . S
C2065 N2 0.592 . S
C2070 N35 0.592 . S
C2075 N101 0.592 . S
C2080 N68 0.592 . S
C2085 N134 0.592 . S
C2090 N200 0.592 . S
C2095 N233 0.592 . S
C2100 N167 0.592 . S
C2105 N1124 0.592 . S
C2110 N266 0.592 . S
C2115 N299 0.592 . S
C2120 N365 0.592 . S
C2125 N332 0.590 . S
C2130 N1058 0.590 . S
C2135 N398 0.590 . S
C2140 N431 0.590 . S
C2145 N464 0.590 . S
C2150 N497 0.590 . S
C2155 N596 0.592 . S
C2160 N530 0.592 . S
C2165 N563 0.590 . S
C2170 N629 0.590 . S
C2175 N662 0.590 . S
C2180 N1520 0.590 . S
C2185 N761 0.590 . S
C2190 N695 0.590 . S
C2195 N1454 0.592 . S
C2200 N728 0.592 . S
C2205 N827 0.592 . S
C2210 N794 0.592 . S
C2215 N893 0.590 . S
C2220 N860 0.590 . S
C2225 N992 0.592 . S
C2230 N926 0.592 . S
C2235 N1025 0.590 . S
C2240 N959 0.590 . S
C2245 N1157 0.590 . S
C2250 N1091 0.590 . S
C2255 N1223 0.592 . S
C2260 N1190 0.592 . S
C2265 N1289 0.592 . S
C2270 N1256 0.592 . S
C2275 N1388 0.590 . S
C2280 N1322 0.590 . S
C2285 N1421 0.592 . S
C2290 N1355 0.592 . S
C2295 N1553 0.592 . S
C2300 N1487 0.592 . S
C2305 C18 1.327 . S
C2310 C747 1.237 . S
C2315 C51 1.328 . S
C2320 C714 1.240 . S
C2325 C1572 1.237 . S
C2330 C84 1.327 . S
C2335 C681 1.241 . S
C2340 C117 1.328 . S
C2345 C150 1.328 . S
C2350 C1242 1.242 . S
C2355 C1209 1.238 . S
C2360 C183 1.327 . S
C2365 C1308 1.242 . S
C2370 C216 1.328 . S
C2375 C249 1.328 . S
C2380 C1275 1.242 . S
C2385 C1407 1.238 . S
C2390 C282 1.327 . S
C2395 C1341 1.238 . S
C2400 C315 1.327 . S
C2405 C348 1.327 . S
C2410 C1374 1.238 . S
C2415 C648 1.242 . S
C2420 C381 1.328 . S
C2425 C351 1.239 . S
C2430 C414 1.327 . S
C2435 C318 1.242 . S
C2440 C447 1.328 . S
C2445 C480 1.328 . S
C2450 C1176 1.242 . S
C2455 C513 1.327 . S
C2460 C285 1.237 . S
C2465 C846 1.242 . S
C2470 C546 1.328 . S
C2475 C813 1.242 . S
C2480 C579 1.328 . S
C2485 C612 1.328 . S
C2490 C912 1.242 . S
C2495 C645 1.327 . S
C2500 C879 1.237 . S
C2505 C1011 1.239 . S
C2510 C678 1.328 . S
C2515 C711 1.328 . S
C2520 C945 1.239 . S
C2525 C978 1.241 . S
C2530 C744 1.328 . S
C2535 C252 1.241 . S
C2540 C777 1.328 . S
C2545 C810 1.327 . S
C2550 C1539 1.238 . S
C2555 C1506 1.242 . S
C2560 C843 1.328 . S
C2565 C876 1.328 . S
C2570 C780 1.242 . S
C2575 C909 1.328 . S
C2580 C1473 1.242 . S
C2585 C942 1.328 . S
C2590 C450 1.242 . S
C2595 C417 1.241 . S
C2600 C975 1.328 . S
C2605 C1008 1.327 . S
C2610 C516 1.238 . S
C2615 C1041 1.328 . S
C2620 C483 1.242 . S
C2625 C615 1.238 . S
C2630 C1074 1.327 . S
C2635 C1107 1.327 . S
C2640 C549 1.238 . S
C2645 C1140 1.328 . S
C2650 C582 1.240 . S
C2655 C1173 1.328 . S
C2660 C1440 1.242 . S
C2665 C1143 1.238 . S
C2670 C1206 1.327 . S
C2675 C1239 1.328 . S
C2680 C1110 1.241 . S
C2685 C1272 1.327 . S
C2690 C384 1.239 . S
C2695 C1305 1.328 . S
C2700 C1077 1.241 . S
C2705 C1338 1.327 . S
C2710 C54 1.237 . S
C2715 C21 1.242 . S
C2720 C1371 1.328 . S
C2725 C120 1.238 . S
C2730 C1404 1.327 . S
C2735 C87 1.242 . S
C2740 C1437 1.328 . S
C2745 C1470 1.328 . S
C2750 C219 1.241 . S
C2755 C153 1.239 . S
C2760 C1503 1.327 . S
C2765 C186 1.238 . S
C2770 C1536 1.327 . S
C2775 C1569 1.327 . S
C2780 C1044 1.239 . S
