# Generated by pormake.
# Topology yfl, (5)-cn, num edge types: 1
# Building blocks:
#     Node 0, Type 0, BuildingBlock: XOMCOT_clean_sbu_1, # of connection points: 5
#     Node 1, Type 0, BuildingBlock: XOMCOT_clean_sbu_1, # of connection points: 5
#     Node 2, Type 0, BuildingBlock: XOMCOT_clean_sbu_1, # of connection points: 5
#     Node 3, Type 0, BuildingBlock: XOMCOT_clean_sbu_1, # of connection points: 5
#     Node 4, Type 0, BuildingBlock: XOMCOT_clean_sbu_1, # of connection points: 5
#     Node 5, Type 0, BuildingBlock: XOMCOT_clean_sbu_1, # of connection points: 5
#     Node 6, Type 0, BuildingBlock: XOMCOT_clean_sbu_1, # of connection points: 5
#     Node 7, Type 0, BuildingBlock: XOMCOT_clean_sbu_1, # of connection points: 5
#     Node 8, Type 0, BuildingBlock: XOMCOT_clean_sbu_1, # of connection points: 5
#     Node 9, Type 0, BuildingBlock: XOMCOT_clean_sbu_1, # of connection points: 5
#     Node 10, Type 0, BuildingBlock: XOMCOT_clean_sbu_1, # of connection points: 5
#     Node 11, Type 0, BuildingBlock: XOMCOT_clean_sbu_1, # of connection points: 5
#     Node 12, Type 0, BuildingBlock: XOMCOT_clean_sbu_1, # of connection points: 5
#     Node 13, Type 0, BuildingBlock: XOMCOT_clean_sbu_1, # of connection points: 5
#     Node 14, Type 0, BuildingBlock: XOMCOT_clean_sbu_1, # of connection points: 5
#     Node 15, Type 0, BuildingBlock: XOMCOT_clean_sbu_1, # of connection points: 5
#     Edge 16, Type (0, 0), BuildingBlock: TEMPAE_clean_linker_10, # of connection points: 2
#     Edge 17, Type (0, 0), BuildingBlock: TEMPAE_clean_linker_10, # of connection points: 2
#     Edge 18, Type (0, 0), BuildingBlock: TEMPAE_clean_linker_10, # of connection points: 2
#     Edge 19, Type (0, 0), BuildingBlock: TEMPAE_clean_linker_10, # of connection points: 2
#     Edge 20, Type (0, 0), BuildingBlock: TEMPAE_clean_linker_10, # of connection points: 2
#     Edge 21, Type (0, 0), BuildingBlock: TEMPAE_clean_linker_10, # of connection points: 2
#     Edge 22, Type (0, 0), BuildingBlock: TEMPAE_clean_linker_10, # of connection points: 2
#     Edge 23, Type (0, 0), BuildingBlock: TEMPAE_clean_linker_10, # of connection points: 2
#     Edge 24, Type (0, 0), BuildingBlock: TEMPAE_clean_linker_10, # of connection points: 2
#     Edge 25, Type (0, 0), BuildingBlock: TEMPAE_clean_linker_10, # of connection points: 2
#     Edge 26, Type (0, 0), BuildingBlock: TEMPAE_clean_linker_10, # of connection points: 2
#     Edge 27, Type (0, 0), BuildingBlock: TEMPAE_clean_linker_10, # of connection points: 2
#     Edge 28, Type (0, 0), BuildingBlock: TEMPAE_clean_linker_10, # of connection points: 2
#     Edge 29, Type (0, 0), BuildingBlock: TEMPAE_clean_linker_10, # of connection points: 2
#     Edge 30, Type (0, 0), BuildingBlock: TEMPAE_clean_linker_10, # of connection points: 2
#     Edge 31, Type (0, 0), BuildingBlock: TEMPAE_clean_linker_10, # of connection points: 2
#     Edge 32, Type (0, 0), BuildingBlock: TEMPAE_clean_linker_10, # of connection points: 2
#     Edge 33, Type (0, 0), BuildingBlock: TEMPAE_clean_linker_10, # of connection points: 2
#     Edge 34, Type (0, 0), BuildingBlock: TEMPAE_clean_linker_10, # of connection points: 2
#     Edge 35, Type (0, 0), BuildingBlock: TEMPAE_clean_linker_10, # of connection points: 2
#     Edge 36, Type (0, 0), BuildingBlock: TEMPAE_clean_linker_10, # of connection points: 2
#     Edge 37, Type (0, 0), BuildingBlock: TEMPAE_clean_linker_10, # of connection points: 2
#     Edge 38, Type (0, 0), BuildingBlock: TEMPAE_clean_linker_10, # of connection points: 2
#     Edge 39, Type (0, 0), BuildingBlock: TEMPAE_clean_linker_10, # of connection points: 2
#     Edge 40, Type (0, 0), BuildingBlock: TEMPAE_clean_linker_10, # of connection points: 2
#     Edge 41, Type (0, 0), BuildingBlock: TEMPAE_clean_linker_10, # of connection points: 2
#     Edge 42, Type (0, 0), BuildingBlock: TEMPAE_clean_linker_10, # of connection points: 2
#     Edge 43, Type (0, 0), BuildingBlock: TEMPAE_clean_linker_10, # of connection points: 2
#     Edge 44, Type (0, 0), BuildingBlock: TEMPAE_clean_linker_10, # of connection points: 2
#     Edge 45, Type (0, 0), BuildingBlock: TEMPAE_clean_linker_10, # of connection points: 2
#     Edge 46, Type (0, 0), BuildingBlock: TEMPAE_clean_linker_10, # of connection points: 2
#     Edge 47, Type (0, 0), BuildingBlock: TEMPAE_clean_linker_10, # of connection points: 2
#     Edge 48, Type (0, 0), BuildingBlock: TEMPAE_clean_linker_10, # of connection points: 2
#     Edge 49, Type (0, 0), BuildingBlock: TEMPAE_clean_linker_10, # of connection points: 2
#     Edge 50, Type (0, 0), BuildingBlock: TEMPAE_clean_linker_10, # of connection points: 2
#     Edge 51, Type (0, 0), BuildingBlock: TEMPAE_clean_linker_10, # of connection points: 2
#     Edge 52, Type (0, 0), BuildingBlock: TEMPAE_clean_linker_10, # of connection points: 2
#     Edge 53, Type (0, 0), BuildingBlock: TEMPAE_clean_linker_10, # of connection points: 2
#     Edge 54, Type (0, 0), BuildingBlock: TEMPAE_clean_linker_10, # of connection points: 2
#     Edge 55, Type (0, 0), BuildingBlock: TEMPAE_clean_linker_10, # of connection points: 2
# Relax obj value: 0.506
# Max RMSD: 0.266
# Mean RMSD: 0.266
data_MOF--net-yfl--node1-XOMCOT_clean_sbu_1--edge1-TEMPAE_clean_linker_10
_symmetry_space_group_name_H-M    P1
_symmetry_Int_Tables_number       1
_symmetry_cell_setting            triclinic
loop_
_symmetry_equiv_pos_as_xyz
'x, y, z'
_cell_length_a     28.656787
_cell_length_b     28.602144
_cell_length_c     106.99195
_cell_angle_alpha  89.907607
_cell_angle_beta   90.018895
_cell_angle_gamma 90.083433
loop_
_atom_site_label
_atom_site_type_symbol
_atom_site_fract_x
_atom_site_fract_y
_atom_site_fract_z
_atom_type_partial_charge
C0 C 0.03855 0.17348 0.28834 0.0
C1 C 0.00768 0.17499 0.27851 0.0
N2 N 0.99089 0.2187 0.27766 0.0
N3 N 0.04146 0.2162 0.29361 0.0
C4 C 0.0117 0.24293 0.28691 0.0
H5 H 0.06033 0.14405 0.29075 0.0
Co6 Co 0.08661 0.23345 0.30525 0.0
C7 C 0.04159 0.30891 0.32057 0.0
O8 O 0.04437 0.2842 0.33089 0.0
N9 N 0.13268 0.25117 0.317 0.0
C10 C 0.18322 0.29505 0.32761 0.0
C11 C 0.1587 0.29064 0.31668 0.0
C12 C 0.14264 0.23215 0.32827 0.0
N13 N 0.17294 0.25823 0.33497 0.0
O14 O 0.05588 0.19275 0.31744 0.0
H15 H 0.15865 0.31613 0.30924 0.0
H16 H 0.12702 0.2005 0.33174 0.0
O17 O 0.05212 0.29008 0.31011 0.0
C18 C 0.07491 0.15215 0.31723 0.0
O19 O 0.11286 0.14635 0.31053 0.0
N20 N 0.1175 0.26747 0.29265 0.0
C21 C 0.16738 0.30904 0.27319 0.0
C22 C 0.12752 0.33055 0.27809 0.0
C23 C 0.10298 0.30921 0.28777 0.0
C24 C 0.1557 0.24556 0.28787 0.0
C25 C 0.18134 0.26581 0.27815 0.0
H26 H 0.07216 0.32654 0.29115 0.0
H27 H 0.16633 0.21217 0.29168 0.0
H28 H 0.00805 0.28027 0.28806 0.0
H29 H 1.00155 0.14747 0.27176 0.0
H30 H 0.20515 0.3244 0.3301 0.0
H31 H 0.11488 0.36339 0.27435 0.0
H32 H 0.21202 0.24807 0.27465 0.0
C33 C 0.19142 0.03373 0.6946 0.0
C34 C 0.2081 0.06688 0.70278 0.0
N35 N 0.25498 0.06482 0.70273 0.0
N36 N 0.22771 0.01092 0.68937 0.0
C37 C 0.26581 0.03203 0.6942 0.0
H38 H 0.15526 0.02374 0.69379 0.0
Co39 Co 0.22851 0.95179 0.6818 0.0
C40 C 0.30362 0.95925 0.66222 0.0
O41 O 0.2796 0.93486 0.65405 0.0
N42 N 0.22992 0.89183 0.67438 0.0
C43 C 0.25585 0.82473 0.66652 0.0
C44 C 0.26585 0.86125 0.67435 0.0
C45 C 0.19807 0.87203 0.66669 0.0
N46 N 0.21325 0.83172 0.66156 0.0
O47 O 0.18694 0.97456 0.66877 0.0
H48 H 0.29905 0.86643 0.67885 0.0
H49 H 0.16511 0.88771 0.66437 0.0
O50 O 0.28527 0.96972 0.67273 0.0
C51 C 0.14538 0.9684 0.67287 0.0
O52 O 0.13996 0.94687 0.68364 0.0
N53 N 0.26384 0.92962 0.69531 0.0
C54 C 0.30432 0.90399 0.71793 0.0
C55 C 0.33228 0.91436 0.70755 0.0
C56 C 0.31139 0.9276 0.69632 0.0
C57 C 0.23622 0.91889 0.70526 0.0
C58 C 0.25573 0.90627 0.71671 0.0
H59 H 0.33368 0.93655 0.68855 0.0
H60 H 0.19871 0.92126 0.70434 0.0
H61 H 0.30099 0.0198 0.69266 0.0
H62 H 0.18737 0.08643 0.70942 0.0
H63 H 0.28001 0.79741 0.66392 0.0
H64 H 0.36999 0.91325 0.70818 0.0
H65 H 0.23302 0.89797 0.7245 0.0
C66 C 0.01775 0.81104 0.29979 0.0
C67 C 0.05341 0.81655 0.29129 0.0
N68 N 0.08221 0.7797 0.29241 0.0
N69 N 0.02425 0.77089 0.30618 0.0
C70 C 0.06428 0.75308 0.30162 0.0
H71 H 0.9875 0.83332 0.3007 0.0
Co72 Co 0.98189 0.74472 0.31726 0.0
C73 C 0.03369 0.66397 0.32943 0.0
O74 O 0.028 0.68042 0.34078 0.0
N75 N 0.93871 0.71814 0.32847 0.0
C76 C 0.89277 0.66495 0.33736 0.0
C77 C 0.92498 0.67295 0.32818 0.0
C78 C 0.91363 0.73703 0.3379 0.0
N79 N 0.88523 0.7054 0.34344 0.0
O80 O 0.00992 0.78281 0.33021 0.0
H81 H 0.9369 0.64734 0.32153 0.0
H82 H 0.91478 0.77352 0.34042 0.0
O83 O 0.02186 0.68916 0.32005 0.0
C84 C 0.98798 0.82191 0.3301 0.0
O85 O 0.94906 0.82452 0.32364 0.0
N86 N 0.95328 0.71347 0.30394 0.0
C87 C 0.9096 0.67583 0.28299 0.0
C88 C 0.95589 0.66444 0.28584 0.0
C89 C 0.97711 0.68375 0.29628 0.0
C90 C 0.90838 0.72556 0.30127 0.0
C91 C 0.88562 0.7068 0.29086 0.0
H92 H 0.01316 0.6753 0.29797 0.0
H93 H 0.89035 0.75027 0.30719 0.0
H94 H 0.07838 0.71942 0.30425 0.0
H95 H 0.05567 0.84312 0.2841 0.0
H96 H 0.87582 0.63187 0.33924 0.0
H97 H 0.97621 0.64183 0.27982 0.0
H98 H 0.84983 0.71662 0.28897 0.0
C99 C 0.78718 0.0127 0.6852 0.0
C100 C 0.78267 0.97938 0.69436 0.0
N101 N 0.7388 0.96251 0.69393 0.0
N102 N 0.74646 0.01662 0.679 0.0
C103 C 0.71754 0.9856 0.68452 0.0
H104 H 0.81797 0.03341 0.6833 0.0
Co105 Co 0.73802 0.05836 0.66611 0.0
C106 C 0.64405 0.04221 0.65515 0.0
O107 O 0.64259 0.08778 0.65365 0.0
N108 N 0.73208 0.10067 0.65278 0.0
C109 C 0.73122 0.12443 0.63298 0.0
C110 C 0.73019 0.08637 0.64074 0.0
C111 C 0.73476 0.14785 0.65209 0.0
N112 N 0.73398 0.16275 0.64015 0.0
O113 O 0.78174 0.02191 0.6562 0.0
H114 H 0.72899 0.05024 0.63778 0.0
H115 H 0.73899 0.1708 0.66001 0.0
O116 O 0.68082 0.02344 0.66001 0.0
C117 C 0.82048 0.04434 0.6558 0.0
O118 O 0.82219 0.08623 0.66081 0.0
N119 N 0.70158 0.09543 0.67696 0.0
C120 C 0.66824 0.13998 0.69848 0.0
C121 C 0.64113 0.1065 0.69224 0.0
C122 C 0.65894 0.08362 0.68179 0.0
C123 C 0.7277 0.12915 0.68263 0.0
C124 C 0.71172 0.15201 0.69335 0.0
H125 H 0.63956 0.05402 0.67843 0.0
H126 H 0.7628 0.13586 0.67937 0.0
H127 H 0.68158 0.98032 0.68181 0.0
H128 H 0.80903 0.96963 0.70113 0.0
H129 H 0.73108 0.12416 0.62286 0.0
H130 H 0.60728 0.09599 0.69576 0.0
H131 H 0.73464 0.17662 0.69797 0.0
C132 C 0.97899 0.30336 0.93213 0.0
C133 C 0.95155 0.29865 0.94263 0.0
N134 N 0.94625 0.25267 0.94499 0.0
N135 N 0.99032 0.26051 0.92789 0.0
C136 C 0.96991 0.23042 0.93591 0.0
H137 H 0.99126 0.33586 0.92814 0.0
Co138 Co 0.02999 0.24606 0.91485 0.0
C139 C 0.96337 0.16904 0.90472 0.0
O140 O 0.94146 0.19278 0.896 0.0
N141 N 0.06923 0.23134 0.90167 0.0
C142 C 0.09439 0.21612 0.88253 0.0
C143 C 0.05568 0.22188 0.88987 0.0
C144 C 0.11629 0.23124 0.90131 0.0
N145 N 0.13243 0.22215 0.88973 0.0
O146 O 0.99339 0.2868 0.90404 0.0
H147 H 0.01995 0.22061 0.88669 0.0
H148 H 0.1382 0.23908 0.90928 0.0
O149 O 0.99427 0.18912 0.91142 0.0
C150 C 0.01706 0.3241 0.90195 0.0
O151 O 0.06054 0.32559 0.90584 0.0
N152 N 0.06753 0.21204 0.92592 0.0
C153 C 0.10785 0.17063 0.94679 0.0
C154 C 0.09321 0.14306 0.93667 0.0
C155 C 0.07334 0.16465 0.92619 0.0
C156 C 0.08623 0.23939 0.93504 0.0
C157 C 0.10611 0.21941 0.94564 0.0
H158 H 0.06101 0.14318 0.91858 0.0
H159 H 0.08273 0.27699 0.93447 0.0
H160 H 0.97335 0.19284 0.93527 0.0
H161 H 0.93827 0.32678 0.94836 0.0
H162 H 0.09457 0.20818 0.87264 0.0
H163 H 0.09488 0.10527 0.93712 0.0
H164 H 0.11844 0.24192 0.95307 0.0
C165 C 0.27645 0.03339 0.04372 0.0
C166 C 0.27287 0.05846 0.03277 0.0
N167 N 0.22733 0.0642 0.03016 0.0
N168 N 0.23326 0.0236 0.04807 0.0
C169 C 0.20423 0.04401 0.03973 0.0
H170 H 0.30858 0.01966 0.04747 0.0
Co171 Co 0.2163 0.97756 0.05976 0.0
C172 C 0.14325 0.02251 0.07519 0.0
O173 O 0.16653 0.01158 0.08537 0.0
N174 N 0.19868 0.93055 0.07122 0.0
C175 C 0.15625 0.88194 0.08289 0.0
C176 C 0.15513 0.91417 0.07336 0.0
C177 C 0.22564 0.9065 0.07933 0.0
N178 N 0.20079 0.8773 0.08669 0.0
O179 O 0.25655 0.00711 0.07207 0.0
H180 H 0.12399 0.92603 0.06865 0.0
H181 H 0.26289 0.9101 0.07992 0.0
O182 O 0.16142 0.01424 0.06452 0.0
C183 C 0.29677 0.98793 0.0712 0.0
O184 O 0.30206 0.95334 0.06325 0.0
N185 N 0.1829 0.94727 0.04724 0.0
C186 C 0.15418 0.91899 0.02371 0.0
C187 C 0.12222 0.93939 0.032 0.0
C188 C 0.13734 0.9534 0.04383 0.0
C189 C 0.21291 0.92336 0.03979 0.0
C190 C 0.19936 0.90907 0.02794 0.0
H191 H 0.11337 0.97222 0.04974 0.0
H192 H 0.24876 0.91879 0.04271 0.0
H193 H 0.16667 0.04092 0.04011 0.0
H194 H 0.30141 0.0676 0.0266 0.0
H195 H 0.12623 0.86475 0.08696 0.0
H196 H 0.08689 0.94723 0.02907 0.0
H197 H 0.22463 0.89214 0.02193 0.0
C198 C 0.05205 0.71715 0.93232 0.0
C199 C 0.08874 0.73858 0.93834 0.0
N200 N 0.07448 0.78095 0.94228 0.0
N201 N 0.0147 0.74582 0.9325 0.0
C202 C 0.02994 0.78465 0.93838 0.0
H203 H 0.05227 0.68197 0.92868 0.0
Co204 Co 0.95287 0.73418 0.92778 0.0
C205 C 0.98208 0.81526 0.91151 0.0
O206 O 0.02206 0.79536 0.90875 0.0
N207 N 0.89224 0.72297 0.92304 0.0
C208 C 0.82016 0.69557 0.9212 0.0
C209 C 0.857 0.70233 0.92931 0.0
C210 C 0.87644 0.72858 0.91132 0.0
N211 N 0.83276 0.71219 0.90989 0.0
O212 O 0.97341 0.69549 0.91394 0.0
H213 H 0.85875 0.6912 0.93897 0.0
H214 H 0.89795 0.74161 0.90376 0.0
O215 O 0.95244 0.79303 0.91817 0.0
C216 C 0.97094 0.65398 0.91844 0.0
O217 O 0.95987 0.64909 0.93029 0.0
N218 N 0.93152 0.76565 0.94194 0.0
C219 C 0.90227 0.80354 0.9646 0.0
C220 C 0.89303 0.8266 0.95325 0.0
C221 C 0.90732 0.80668 0.94199 0.0
C222 C 0.94033 0.74244 0.95281 0.0
C223 C 0.92617 0.76079 0.96425 0.0
H224 H 0.89848 0.82406 0.93337 0.0
H225 H 0.95848 0.70932 0.95255 0.0
H226 H 0.00751 0.81379 0.94066 0.0
H227 H 0.12235 0.72297 0.94028 0.0
H228 H 0.78731 0.67868 0.92336 0.0
H229 H 0.87481 0.85972 0.95304 0.0
H230 H 0.93305 0.74107 0.97269 0.0
C231 C 0.68452 0.96927 0.04595 0.0
C232 C 0.70422 0.93173 0.03995 0.0
N233 N 0.75089 0.93709 0.04011 0.0
N234 N 0.71861 0.99818 0.04995 0.0
C235 C 0.75862 0.97693 0.04651 0.0
H236 H 0.64764 0.9767 0.04637 0.0
Co237 Co 0.7107 0.05934 0.05554 0.0
C238 C 0.79688 0.08204 0.07061 0.0
O239 O 0.79172 0.12616 0.06749 0.0
N240 N 0.7009 0.12058 0.06114 0.0
C241 C 0.69393 0.1975 0.06312 0.0
C242 C 0.6959 0.16105 0.05477 0.0
C243 C 0.69902 0.13312 0.07328 0.0
N244 N 0.69687 0.17984 0.07477 0.0
O245 O 0.66666 0.03776 0.06812 0.0
H246 H 0.69594 0.16465 0.04474 0.0
H247 H 0.70329 0.10849 0.08088 0.0
O248 O 0.76663 0.05181 0.06682 0.0
C249 C 0.62636 0.04526 0.06334 0.0
O250 O 0.62434 0.06385 0.05211 0.0
N251 N 0.74836 0.08058 0.04212 0.0
C252 C 0.79066 0.11251 0.02021 0.0
C253 C 0.81768 0.09856 0.03045 0.0
C254 C 0.79598 0.08219 0.04124 0.0
C255 C 0.72175 0.09126 0.03195 0.0
C256 C 0.74206 0.10788 0.02094 0.0
H257 H 0.81827 0.06923 0.04849 0.0
H258 H 0.68422 0.08783 0.03251 0.0
H259 H 0.79283 0.99193 0.04782 0.0
H260 H 0.6855 0.90528 0.03472 0.0
H261 H 0.69425 0.2343 0.06074 0.0
H262 H 0.85545 0.09952 0.03005 0.0
H263 H 0.71986 0.11785 0.01319 0.0
C264 C 0.49015 0.68067 0.792 0.0
C265 C 0.45086 0.69991 0.78679 0.0
N266 N 0.45061 0.74602 0.78933 0.0
N267 N 0.51466 0.71437 0.79787 0.0
C268 C 0.48917 0.75361 0.79629 0.0
H269 H 0.50168 0.64506 0.79076 0.0
Co270 Co 0.57482 0.70637 0.80393 0.0
C271 C 0.60094 0.79416 0.81739 0.0
O272 O 0.64355 0.78655 0.81336 0.0
N273 N 0.6351 0.69603 0.81018 0.0
C274 C 0.71019 0.68361 0.81433 0.0
C275 C 0.67745 0.68881 0.80496 0.0
C276 C 0.64289 0.69357 0.82258 0.0
N277 N 0.68812 0.68714 0.8254 0.0
O278 O 0.55108 0.66345 0.81658 0.0
H279 H 0.68476 0.68807 0.79508 0.0
H280 H 0.61561 0.69781 0.82946 0.0
O281 O 0.56856 0.76423 0.81478 0.0
C282 C 0.55837 0.62242 0.8122 0.0
O283 O 0.57823 0.61878 0.80117 0.0
N284 N 0.59733 0.74257 0.79043 0.0
C285 C 0.62416 0.78419 0.76793 0.0
C286 C 0.60476 0.81097 0.77754 0.0
C287 C 0.59103 0.78951 0.78862 0.0
C288 C 0.61409 0.7157 0.78093 0.0
C289 C 0.62845 0.73581 0.76967 0.0
H290 H 0.57363 0.81101 0.79538 0.0
H291 H 0.61599 0.67818 0.78209 0.0
H292 H 0.49993 0.78769 0.7995 0.0
H293 H 0.42686 0.68213 0.78059 0.0
H294 H 0.74739 0.67921 0.81308 0.0
H295 H 0.59887 0.84813 0.77639 0.0
H296 H 0.64277 0.71368 0.76242 0.0
C297 C 0.76343 0.49754 0.18787 0.0
C298 C 0.75919 0.52088 0.19896 0.0
N299 N 0.80097 0.53977 0.20187 0.0
N300 N 0.80737 0.50204 0.18363 0.0
C301 C 0.82956 0.52807 0.19229 0.0
H302 H 0.73623 0.47803 0.18319 0.0
Co303 Co 0.8247 0.47325 0.16903 0.0
C304 C 0.92267 0.4989 0.16291 0.0
O305 O 0.92708 0.45506 0.15946 0.0
N306 N 0.83866 0.44365 0.15388 0.0
C307 C 0.84607 0.43641 0.13329 0.0
C308 C 0.84958 0.46651 0.1432 0.0
C309 C 0.82787 0.39988 0.15015 0.0
N310 N 0.83178 0.39464 0.13766 0.0
O311 O 0.78529 0.51749 0.16013 0.0
H312 H 0.85626 0.50367 0.14256 0.0
H313 H 0.81356 0.37345 0.15624 0.0
O314 O 0.88316 0.51331 0.16729 0.0
C315 C 0.74696 0.49927 0.15632 0.0
O316 O 0.74217 0.45365 0.15688 0.0
N317 N 0.85722 0.42823 0.17871 0.0
C318 C 0.88232 0.37034 0.19869 0.0
C319 C 0.90879 0.40988 0.19575 0.0
C320 C 0.89524 0.43874 0.18594 0.0
C321 C 0.83171 0.389 0.18128 0.0
C322 C 0.84414 0.35901 0.1911 0.0
H323 H 0.91299 0.47165 0.18521 0.0
H324 H 0.79897 0.3832 0.17653 0.0
H325 H 0.86618 0.53686 0.19174 0.0
H326 H 0.72758 0.52324 0.20443 0.0
H327 H 0.8494 0.44579 0.12352 0.0
H328 H 0.93807 0.42021 0.20154 0.0
H329 H 0.82202 0.32942 0.19333 0.0
C330 C 0.51402 0.28163 0.79688 0.0
C331 C 0.53414 0.28887 0.7854 0.0
N332 N 0.5612 0.25179 0.78276 0.0
N333 N 0.52826 0.24013 0.8015 0.0
C334 C 0.55769 0.2231 0.79275 0.0
H335 H 0.4875 0.30346 0.80101 0.0
Co336 Co 0.49878 0.20988 0.81477 0.0
C337 C 0.56604 0.14467 0.82605 0.0
O338 O 0.56045 0.16595 0.83682 0.0
N339 N 0.46758 0.17902 0.82794 0.0
C340 C 0.43439 0.12191 0.83898 0.0
C341 C 0.46076 0.13229 0.82866 0.0
C342 C 0.44432 0.19619 0.83791 0.0
N343 N 0.42369 0.16225 0.84476 0.0
O344 O 0.52841 0.2539 0.82608 0.0
H345 H 0.47338 0.10713 0.82194 0.0
H346 H 0.44028 0.23292 0.83983 0.0
O347 O 0.54929 0.16358 0.81618 0.0
C348 C 0.50181 0.28945 0.82753 0.0
O349 O 0.45917 0.28723 0.82304 0.0
N350 N 0.46737 0.17242 0.80327 0.0
C351 C 0.41961 0.13927 0.78256 0.0
C352 C 0.4634 0.12103 0.78566 0.0
C353 C 0.48669 0.13779 0.79618 0.0
C354 C 0.42364 0.18849 0.8008 0.0
C355 C 0.39881 0.17203 0.79049 0.0
H356 H 0.52131 0.12492 0.79802 0.0
H357 H 0.40922 0.2163 0.80644 0.0
H358 H 0.57251 0.18836 0.79307 0.0
H359 H 0.52671 0.31747 0.77906 0.0
H360 H 0.42286 0.08739 0.84176 0.0
H361 H 0.48022 0.09546 0.77971 0.0
H362 H 0.36505 0.18695 0.7883 0.0
C363 C 0.39141 0.52364 0.19544 0.0
C364 C 0.38321 0.48571 0.20306 0.0
N365 N 0.33749 0.48509 0.20601 0.0
N366 N 0.35102 0.54657 0.19349 0.0
C367 C 0.3189 0.52243 0.20011 0.0
H368 H 0.42504 0.53482 0.19199 0.0
Co369 Co 0.34398 0.60325 0.18519 0.0
C370 C 0.26632 0.54431 0.17346 0.0
O371 O 0.28968 0.50482 0.17356 0.0
N372 N 0.33711 0.66 0.17711 0.0
C373 C 0.33323 0.73606 0.1732 0.0
C374 C 0.34547 0.70282 0.18189 0.0
C375 C 0.32074 0.66779 0.1655 0.0
N376 N 0.31776 0.71379 0.16292 0.0
O377 O 0.38388 0.58075 0.17177 0.0
H378 H 0.35891 0.70942 0.19117 0.0
H379 H 0.30997 0.6403 0.15917 0.0
O380 O 0.28599 0.58176 0.17723 0.0
C381 C 0.42344 0.60171 0.17179 0.0
O382 O 0.4304 0.63554 0.17986 0.0
N383 N 0.30984 0.62652 0.19866 0.0
C384 C 0.2685 0.66539 0.21979 0.0
C385 C 0.242 0.65596 0.20904 0.0
C386 C 0.26345 0.63728 0.19849 0.0
C387 C 0.33622 0.63527 0.20898 0.0
C388 C 0.31634 0.65488 0.21964 0.0
H389 H 0.24261 0.63222 0.19021 0.0
H390 H 0.37317 0.62759 0.20882 0.0
H391 H 0.28296 0.53343 0.20106 0.0
H392 H 0.40915 0.46122 0.20639 0.0
H393 H 0.3355 0.7736 0.17432 0.0
H394 H 0.20488 0.66283 0.20872 0.0
H395 H 0.33851 0.66242 0.22758 0.0
C396 C 0.44953 0.80575 0.43864 0.0
C397 C 0.428 0.79742 0.44996 0.0
N398 N 0.42918 0.75108 0.45214 0.0
N399 N 0.46356 0.76467 0.43374 0.0
C400 C 0.45024 0.73211 0.44214 0.0
H401 H 0.45696 0.83968 0.43464 0.0
Co402 Co 0.50216 0.75487 0.42009 0.0
C403 C 0.44194 0.67278 0.41035 0.0
O404 O 0.41785 0.69573 0.40189 0.0
N405 N 0.54065 0.7447 0.4064 0.0
C406 C 0.56378 0.73698 0.38673 0.0
C407 C 0.52613 0.73611 0.39462 0.0
C408 C 0.5873 0.7504 0.40547 0.0
N409 N 0.60207 0.7461 0.39358 0.0
O410 O 0.45998 0.79168 0.40982 0.0
H411 H 0.49023 0.73172 0.39182 0.0
H412 H 0.6097 0.75965 0.41323 0.0
O413 O 0.47199 0.6943 0.41702 0.0
C414 C 0.48089 0.83105 0.40842 0.0
O415 O 0.52333 0.83547 0.41293 0.0
N416 N 0.54514 0.72629 0.43072 0.0
C417 C 0.58137 0.70265 0.45387 0.0
C418 C 0.56607 0.66753 0.44565 0.0
C419 C 0.54853 0.68016 0.43389 0.0
C420 C 0.56607 0.75973 0.4378 0.0
C421 C 0.5845 0.74867 0.44943 0.0
H422 H 0.53396 0.65342 0.42796 0.0
H423 H 0.56366 0.79601 0.435 0.0
H424 H 0.45783 0.69526 0.44127 0.0
H425 H 0.41525 0.8235 0.45643 0.0
H426 H 0.56309 0.73186 0.37671 0.0
H427 H 0.56409 0.63136 0.44861 0.0
H428 H 0.59785 0.77655 0.45527 0.0
C429 C 0.74715 0.63075 0.5536 0.0
C430 C 0.72886 0.66474 0.54591 0.0
N431 N 0.68752 0.64952 0.54143 0.0
N432 N 0.71751 0.59414 0.55401 0.0
C433 C 0.68081 0.60764 0.54696 0.0
H434 H 0.78151 0.63154 0.55773 0.0
Co435 Co 0.72791 0.53283 0.5596 0.0
C436 C 0.65092 0.54439 0.57905 0.0
O437 O 0.67876 0.55351 0.5885 0.0
N438 N 0.73821 0.47236 0.56508 0.0
C439 C 0.76114 0.39837 0.56575 0.0
C440 C 0.75669 0.43728 0.5583 0.0
C441 C 0.73258 0.4545 0.57665 0.0
N442 N 0.74609 0.40948 0.57729 0.0
O443 O 0.76445 0.55547 0.57359 0.0
H444 H 0.76685 0.44006 0.54859 0.0
H445 H 0.71924 0.4741 0.58448 0.0
O446 O 0.66799 0.536 0.56828 0.0
C447 C 0.80661 0.5523 0.56972 0.0
O448 O 0.81379 0.53928 0.5581 0.0
N449 N 0.69797 0.50903 0.54537 0.0
C450 C 0.66458 0.4706 0.52313 0.0
C451 C 0.64206 0.46151 0.53456 0.0
C452 C 0.65933 0.48107 0.5456 0.0
C453 C 0.72038 0.51813 0.5344 0.0
C454 C 0.70378 0.50009 0.52316 0.0
H455 H 0.64273 0.47229 0.55437 0.0
H456 H 0.75155 0.53952 0.53442 0.0
H457 H 0.65206 0.58458 0.54476 0.0
H458 H 0.74664 0.69644 0.5431 0.0
H459 H 0.77535 0.36489 0.56299 0.0
H460 H 0.61242 0.43807 0.53508 0.0
H461 H 0.72199 0.50876 0.5146 0.0
C462 C 0.52917 0.21508 0.4414 0.0
C463 C 0.5661 0.23374 0.44796 0.0
N464 N 0.55718 0.27926 0.45008 0.0
N465 N 0.49694 0.24867 0.43947 0.0
C466 C 0.51574 0.28757 0.44458 0.0
H467 H 0.52444 0.17845 0.43932 0.0
Co468 Co 0.43379 0.24068 0.43541 0.0
C469 C 0.46422 0.31941 0.41839 0.0
O470 O 0.50401 0.29903 0.41569 0.0
N471 N 0.37131 0.23289 0.4315 0.0
C472 C 0.29451 0.22141 0.43166 0.0
C473 C 0.33394 0.22594 0.43898 0.0
C474 C 0.35417 0.23185 0.4198 0.0
N475 N 0.30787 0.22462 0.41965 0.0
O476 O 0.44991 0.19972 0.42162 0.0
H477 H 0.33523 0.22412 0.44907 0.0
H478 H 0.37527 0.23648 0.4115 0.0
O479 O 0.43469 0.29812 0.4253 0.0
C480 C 0.4449 0.15835 0.42603 0.0
O481 O 0.43367 0.15373 0.43788 0.0
N482 N 0.41745 0.27498 0.44951 0.0
C483 C 0.40011 0.31797 0.47229 0.0
C484 C 0.38887 0.34059 0.46103 0.0
C485 C 0.39745 0.31824 0.44968 0.0
C486 C 0.42738 0.25203 0.46034 0.0
C487 C 0.41934 0.273 0.47184 0.0
H488 H 0.38788 0.33567 0.44112 0.0
H489 H 0.44221 0.21729 0.45998 0.0
H490 H 0.49683 0.32007 0.44562 0.0
H491 H 0.59524 0.2144 0.4518 0.0
H492 H 0.25916 0.21542 0.43485 0.0
H493 H 0.37367 0.37524 0.46098 0.0
H494 H 0.4273 0.25378 0.48031 0.0
C495 C 0.2008 0.46542 0.55711 0.0
C496 C 0.22317 0.42894 0.5513 0.0
N497 N 0.2693 0.43814 0.55113 0.0
N498 N 0.23276 0.49745 0.56062 0.0
C499 C 0.27413 0.47894 0.55725 0.0
H500 H 0.16346 0.4701 0.55752 0.0
Co501 Co 0.22368 0.55982 0.56492 0.0
C502 C 0.29957 0.57719 0.58472 0.0
O503 O 0.28289 0.61728 0.5886 0.0
N504 N 0.21369 0.62287 0.56905 0.0
C505 C 0.20681 0.70047 0.56876 0.0
C506 C 0.22044 0.6618 0.56206 0.0
C507 C 0.1943 0.63884 0.57971 0.0
N508 N 0.19008 0.68563 0.57981 0.0
O509 O 0.1768 0.54133 0.57711 0.0
H510 H 0.23451 0.66252 0.5527 0.0
H511 H 0.18591 0.61691 0.58765 0.0
O512 O 0.27688 0.55336 0.57661 0.0
C513 C 0.13781 0.54571 0.57138 0.0
O514 O 0.1386 0.55893 0.55961 0.0
N515 N 0.26476 0.57766 0.55203 0.0
C516 C 0.31605 0.60117 0.53074 0.0
C517 C 0.33573 0.60542 0.5427 0.0
C518 C 0.3093 0.59422 0.55324 0.0
C519 C 0.24523 0.57274 0.54051 0.0
C520 C 0.27009 0.58443 0.52976 0.0
H521 H 0.32488 0.59958 0.56224 0.0
H522 H 0.20977 0.56009 0.53971 0.0
H523 H 0.30688 0.49755 0.55804 0.0
H524 H 0.20624 0.40089 0.54623 0.0
H525 H 0.20958 0.73664 0.56585 0.0
H526 H 0.37117 0.61771 0.54397 0.0
H527 H 0.25279 0.58156 0.52079 0.0
C528 C 0.20208 0.38031 0.26331 0.0
C529 C 0.19393 0.33196 0.26296 0.0
C530 C 0.22571 0.40303 0.25357 0.0
C531 C 0.24185 0.37674 0.24325 0.0
C532 C 0.23412 0.32786 0.24287 0.0
C533 C 0.21022 0.30602 0.25274 0.0
C534 C 0.23337 0.45523 0.25434 0.0
C535 C 0.25083 0.29877 0.232 0.0
C536 C 0.26591 0.44681 0.21381 0.0
C537 C 0.31416 0.45449 0.21473 0.0
C538 C 0.24208 0.42021 0.2228 0.0
C539 C 0.26715 0.40071 0.23295 0.0
C540 C 0.31607 0.40686 0.23369 0.0
C541 C 0.33897 0.43371 0.22458 0.0
C542 C 0.18987 0.41427 0.22167 0.0
C543 C 0.344 0.38658 0.24437 0.0
H544 H 0.19019 0.40044 0.27126 0.0
H545 H 0.20352 0.26874 0.25236 0.0
H546 H 0.27127 0.46314 0.2541 0.0
H547 H 0.21729 0.4727 0.24614 0.0
H548 H 0.21834 0.47057 0.26298 0.0
H549 H 0.24235 0.2611 0.23317 0.0
H550 H 0.23462 0.31144 0.22321 0.0
H551 H 0.28916 0.30251 0.23093 0.0
H552 H 0.24665 0.46201 0.2061 0.0
H553 H 0.37611 0.43981 0.22545 0.0
H554 H 0.17236 0.4322 0.22957 0.0
H555 H 0.18036 0.37672 0.22223 0.0
H556 H 0.17608 0.42885 0.21278 0.0
H557 H 0.33354 0.40358 0.25325 0.0
H558 H 0.38216 0.39153 0.24308 0.0
H559 H 0.3367 0.34866 0.24535 0.0
C560 C 0.37866 0.76902 0.77845 0.0
C561 C 0.42346 0.78042 0.78272 0.0
C562 C 0.35636 0.79644 0.76939 0.0
C563 C 0.37943 0.83636 0.76457 0.0
C564 C 0.42235 0.85089 0.76982 0.0
C565 C 0.44401 0.82261 0.77883 0.0
C566 C 0.31025 0.78008 0.76414 0.0
C567 C 0.44761 0.89379 0.76511 0.0
C568 C 0.36013 0.85488 0.72996 0.0
C569 C 0.32569 0.88949 0.72989 0.0
C570 C 0.37877 0.83837 0.74122 0.0
C571 C 0.36289 0.85734 0.75268 0.0
C572 C 0.32956 0.8938 0.75264 0.0
C573 C 0.3109 0.90912 0.74122 0.0
C574 C 0.41438 0.79945 0.74084 0.0
C575 C 0.31273 0.91576 0.76463 0.0
H576 H 0.36231 0.73698 0.78165 0.0
H577 H 0.47864 0.83182 0.78205 0.0
H578 H 0.28549 0.80969 0.76333 0.0
H579 H 0.31576 0.76589 0.7546 0.0
H580 H 0.29408 0.75233 0.76999 0.0
H581 H 0.47465 0.90582 0.77183 0.0
H582 H 0.46508 0.88548 0.75613 0.0
H583 H 0.42286 0.92285 0.76334 0.0
H584 H 0.37137 0.83955 0.7212 0.0
H585 H 0.28477 0.9365 0.74113 0.0
H586 H 0.40027 0.76804 0.74564 0.0
H587 H 0.4465 0.81013 0.74588 0.0
H588 H 0.42402 0.78963 0.73114 0.0
H589 H 0.28926 0.89099 0.76957 0.0
H590 H 0.29327 0.94872 0.7629 0.0
H591 H 0.34248 0.92333 0.77096 0.0
C592 C 0.85492 0.58899 0.21426 0.0
C593 C 0.81314 0.56355 0.21331 0.0
C594 C 0.86854 0.60937 0.22561 0.0
C595 C 0.83929 0.60491 0.23619 0.0
C596 C 0.79635 0.58094 0.23522 0.0
C597 C 0.78401 0.56021 0.22385 0.0
C598 C 0.91487 0.63445 0.22636 0.0
C599 C 0.76405 0.57588 0.24631 0.0
C600 C 0.89628 0.61032 0.26802 0.0
C601 C 0.88787 0.65679 0.27152 0.0
C602 C 0.88046 0.59299 0.25656 0.0
C603 C 0.85495 0.62268 0.24849 0.0
C604 C 0.84476 0.66908 0.25214 0.0
C605 C 0.86157 0.68571 0.26361 0.0
C606 C 0.89196 0.54323 0.25297 0.0
C607 C 0.81699 0.70139 0.24381 0.0
H608 H 0.87739 0.5927 0.2062 0.0
H609 H 0.75197 0.54033 0.22342 0.0
H610 H 0.90985 0.6705 0.22992 0.0
H611 H 0.93807 0.61606 0.23306 0.0
H612 H 0.93275 0.63636 0.21716 0.0
H613 H 0.73008 0.55983 0.24372 0.0
H614 H 0.78076 0.5537 0.25354 0.0
H615 H 0.75732 0.61052 0.25059 0.0
H616 H 0.91588 0.58759 0.27421 0.0
H617 H 0.85538 0.72179 0.26621 0.0
H618 H 0.91271 0.54299 0.24421 0.0
H619 H 0.85943 0.52335 0.25114 0.0
H620 H 0.91207 0.52474 0.26035 0.0
H621 H 0.83623 0.7076 0.23497 0.0
H622 H 0.81006 0.73566 0.24831 0.0
H623 H 0.78315 0.68498 0.24132 0.0
C624 C 0.55206 0.24763 0.75995 0.0
C625 C 0.57905 0.23946 0.77066 0.0
C626 C 0.56722 0.23293 0.74814 0.0
C627 C 0.61095 0.21043 0.74699 0.0
C628 C 0.63884 0.20299 0.75775 0.0
C629 C 0.62221 0.21709 0.76951 0.0
C630 C 0.53599 0.2407 0.73695 0.0
C631 C 0.68591 0.17962 0.75686 0.0
C632 C 0.62899 0.12983 0.71931 0.0
C633 C 0.65313 0.15872 0.71085 0.0
C634 C 0.61486 0.14636 0.73103 0.0
C635 C 0.62627 0.19257 0.7346 0.0
C636 C 0.65121 0.2218 0.72625 0.0
C637 C 0.66394 0.2047 0.71443 0.0
C638 C 0.58741 0.1144 0.73957 0.0
C639 C 0.66445 0.27111 0.72981 0.0
H640 H 0.51824 0.26413 0.76088 0.0
H641 H 0.64289 0.21081 0.77782 0.0
H642 H 0.55283 0.26566 0.73041 0.0
H643 H 0.53073 0.20746 0.7318 0.0
H644 H 0.5013 0.2548 0.73962 0.0
H645 H 0.70454 0.17918 0.76597 0.0
H646 H 0.68157 0.14305 0.75362 0.0
H647 H 0.70798 0.19795 0.74987 0.0
H648 H 0.62154 0.09385 0.71687 0.0
H649 H 0.68216 0.22751 0.70797 0.0
H650 H 0.55357 0.13083 0.74202 0.0
H651 H 0.60679 0.10882 0.74842 0.0
H652 H 0.58036 0.07979 0.73525 0.0
H653 H 0.63252 0.29216 0.73138 0.0
H654 H 0.68586 0.28857 0.72252 0.0
H655 H 0.68436 0.27093 0.73871 0.0
C656 C 0.17014 0.05294 0.01319 0.0
C657 C 0.20811 0.07755 0.01825 0.0
C658 C 0.15257 0.06385 0.0013 0.0
C659 C 0.17328 0.10055 -0.00566 0.0
C660 C 0.21181 0.1253 -0.00062 0.0
C661 C 0.22889 0.11331 0.01125 0.0
C662 C 0.11209 0.03597 -0.00384 0.0
C663 C 0.23475 0.16474 0.99226 0.0
C664 C 0.15482 0.11296 0.95928 0.0
C665 C 0.12226 0.14942 0.95884 0.0
C666 C 0.17072 0.09541 0.97081 0.0
C667 C 0.15345 0.11481 0.98207 0.0
C668 C 0.11891 0.15006 0.98163 0.0
C669 C 0.10379 0.16692 0.97002 0.0
C670 C 0.20723 0.05744 0.97091 0.0
C671 C 0.09882 0.17093 -0.00658 0.0
H672 H 0.15479 0.0244 0.01842 0.0
H673 H 0.25833 0.13213 0.01514 0.0
H674 H 0.08293 0.05964 -0.00637 0.0
H675 H 0.12294 0.01765 0.9875 0.0
H676 H 0.09903 0.00952 0.00293 0.0
H677 H 0.26518 0.17959 -0.00267 0.0
H678 H 0.24663 0.15218 0.98298 0.0
H679 H 0.2091 0.1931 0.99059 0.0
H680 H 0.16899 0.09926 0.95064 0.0
H681 H 0.07766 0.19429 0.96969 0.0
H682 H 0.19765 0.02948 0.97763 0.0
H683 H 0.24105 0.07235 0.97403 0.0
H684 H 0.21212 0.04159 0.96154 0.0
H685 H 0.08513 0.14288 -0.00041 0.0
H686 H 0.0702 0.19605 0.99144 0.0
H687 H 0.12669 0.18944 -0.00135 0.0
C688 C 0.1241 0.7898 0.9609 0.0
C689 C 0.09564 0.80993 0.9517 0.0
C690 C 0.13602 0.81459 0.9717 0.0
C691 C 0.11907 0.86064 0.97334 0.0
C692 C 0.0937 0.88263 0.96365 0.0
C693 C 0.08239 0.85698 0.9529 0.0
C694 C 0.16381 0.79017 0.98178 0.0
C695 C 0.07561 0.93193 0.96498 0.0
C696 C 0.09991 0.88741 0.00749 0.0
C697 C 0.14177 0.9099 0.01053 0.0
C698 C 0.09059 0.87398 -0.00485 0.0
C699 C 0.12405 0.88327 0.98571 0.0
C700 C 0.16475 0.90904 0.98859 0.0
C701 C 0.17309 0.92215 0.00099 0.0
C702 C 0.0463 0.84726 0.99237 0.0
C703 C 0.20067 0.92044 0.97872 0.0
H704 H 0.13439 0.75353 0.96011 0.0
H705 H 0.06123 0.87304 0.94569 0.0
H706 H 0.19319 0.81254 0.98492 0.0
H707 H 0.14111 0.78365 0.99001 0.0
H708 H 0.1781 0.75616 0.97857 0.0
H709 H 0.06385 0.94659 0.95589 0.0
H710 H 0.04554 0.93203 0.97151 0.0
H711 H 0.10271 0.95527 0.96897 0.0
H712 H 0.0755 0.87832 0.01485 0.0
H713 H 0.20479 0.94102 0.00329 0.0
H714 H 0.05495 0.81033 0.99022 0.0
H715 H 0.02846 0.86211 0.98407 0.0
H716 H 0.02169 0.84779 0.00038 0.0
H717 H 0.21752 0.88773 0.97548 0.0
H718 H 0.22821 0.94436 0.98226 0.0
H719 H 0.18377 0.93681 0.97048 0.0
C720 C 0.91212 0.81837 0.98762 0.0
C721 C 0.88537 0.82285 0.97668 0.0
C722 C 0.89538 0.83464 -0.00084 0.0
C723 C 0.85143 0.85699 -0.00032 0.0
C724 C 0.82463 0.8623 0.98865 0.0
C725 C 0.8417 0.84478 0.97733 0.0
C726 C 0.92489 0.82814 0.01072 0.0
C727 C 0.77764 0.88621 0.98882 0.0
C728 C 0.77709 0.8672 0.02875 0.0
C729 C 0.78289 0.91451 0.03172 0.0
C730 C 0.80195 0.84692 0.01886 0.0
C731 C 0.83275 0.87493 0.01169 0.0
C732 C 0.8411 0.92188 0.01518 0.0
C733 C 0.81616 0.94108 0.02519 0.0
C734 C 0.79312 0.79634 0.0156 0.0
C735 C 0.87361 0.9529 0.00777 0.0
H736 H 0.94625 0.80221 0.98719 0.0
H737 H 0.8203 0.84759 0.96901 0.0
H738 H 0.94103 0.86204 0.01331 0.0
H739 H 0.90328 0.81642 0.01874 0.0
H740 H 0.9532 0.80225 0.00923 0.0
H741 H 0.76181 0.88865 0.97936 0.0
H742 H 0.75332 0.86675 -0.005 0.0
H743 H 0.7812 0.92205 0.99266 0.0
H744 H 0.75171 0.84661 0.03387 0.0
H745 H 0.82042 0.97784 0.02733 0.0
H746 H 0.82664 0.7777 0.0142 0.0
H747 H 0.77336 0.79432 0.0067 0.0
H748 H 0.7728 0.77796 0.02297 0.0
H749 H 0.90756 0.93523 0.00626 0.0
H750 H 0.88003 0.98692 0.01247 0.0
H751 H 0.85823 0.95989 -0.00157 0.0
C752 C 0.7989 0.11843 -0.00305 0.0
C753 C 0.81336 0.13208 0.00892 0.0
C754 C 0.82027 0.137 0.98624 0.0
C755 C 0.8568 0.16998 0.98758 0.0
C756 C 0.87167 0.18371 -0.00036 0.0
C757 C 0.84971 0.16462 0.01016 0.0
C758 C 0.80381 0.12137 0.97351 0.0
C759 C 0.91053 0.21883 0.00142 0.0
C760 C 0.94065 0.18998 0.96071 0.0
C761 C 0.92338 0.23159 0.95554 0.0
C762 C 0.91909 0.16926 0.97109 0.0
C763 C 0.87924 0.19067 0.97637 0.0
C764 C 0.86151 0.23256 0.97116 0.0
C765 C 0.88394 0.25262 0.96081 0.0
C766 C 0.93934 0.12487 0.97649 0.0
C767 C 0.81904 0.25632 0.97656 0.0
H768 H 0.77123 0.09282 -0.00403 0.0
H769 H 0.86058 0.17568 0.0194 0.0
H770 H 0.79135 0.15194 0.96806 0.0
H771 H 0.83326 0.10577 0.96824 0.0
H772 H 0.77514 0.09527 0.97409 0.0
H773 H 0.91837 0.22519 0.01144 0.0
H774 H 0.94277 0.20638 -0.00324 0.0
H775 H 0.90088 0.25257 -0.00301 0.0
H776 H 0.97167 0.17412 0.9568 0.0
H777 H 0.87039 0.28454 0.95675 0.0
H778 H 0.91234 0.09705 0.97673 0.0
H779 H 0.95069 0.13102 0.98627 0.0
H780 H 0.96973 0.11202 0.97105 0.0
H781 H 0.78895 0.23187 0.97654 0.0
H782 H 0.80924 0.28828 0.97126 0.0
H783 H 0.82575 0.26617 0.98642 0.0
C784 C 0.62922 0.78645 0.74452 0.0
C785 C 0.63904 0.80696 0.75613 0.0
C786 C 0.6426 0.80843 0.73334 0.0
C787 C 0.66619 0.85188 0.73383 0.0
C788 C 0.67601 0.87279 0.74552 0.0
C789 C 0.6625 0.84998 0.75652 0.0
C790 C 0.63161 0.78523 0.72102 0.0
C791 C 0.70112 0.91916 0.74643 0.0
C792 C 0.74546 0.89517 0.70809 0.0
C793 C 0.7182 0.93039 0.70267 0.0
C794 C 0.72792 0.86736 0.71779 0.0
C795 C 0.68209 0.87528 0.72221 0.0
C796 C 0.65347 0.9091 0.71633 0.0
C797 C 0.67189 0.93623 0.70657 0.0
C798 C 0.7593 0.83127 0.72375 0.0
C799 C 0.60448 0.91866 0.72082 0.0
H800 H 0.6105 0.75353 0.74416 0.0
H801 H 0.67074 0.86567 0.76547 0.0
H802 H 0.61002 0.80883 0.71516 0.0
H803 H 0.66437 0.77846 0.71581 0.0
H804 H 0.61268 0.75162 0.72224 0.0
H805 H 0.70489 0.93126 0.75624 0.0
H806 H 0.73641 0.9162 0.74224 0.0
H807 H 0.68192 0.94624 0.74107 0.0
H808 H 0.781 0.89016 0.70491 0.0
H809 H 0.65087 0.96369 0.70245 0.0
H810 H 0.74095 0.79722 0.72453 0.0
H811 H 0.76857 0.84252 0.73336 0.0
H812 H 0.79207 0.82609 0.71838 0.0
H813 H 0.58484 0.88551 0.72201 0.0
H814 H 0.58494 0.94165 0.71429 0.0
H815 H 0.60592 0.93598 0.73009 0.0
C816 C 0.89578 0.37032 0.22165 0.0
C817 C 0.8916 0.34501 0.21049 0.0
C818 C 0.90794 0.34815 0.23286 0.0
C819 C 0.91652 0.29945 0.23289 0.0
C820 C 0.91062 0.27335 0.22174 0.0
C821 C 0.89786 0.29648 0.21065 0.0
C822 C 0.91323 0.37719 0.24456 0.0
C823 C 0.91976 0.22142 0.22142 0.0
C824 C 1.00165 0.25795 0.25761 0.0
C825 C 0.97167 0.23871 0.26655 0.0
C826 C 0.98414 0.27684 0.24648 0.0
C827 C 0.93534 0.27688 0.24435 0.0
C828 C 0.90488 0.25733 0.25341 0.0
C829 C 0.92358 0.23808 0.26442 0.0
C830 C 0.01785 0.29707 0.23706 0.0
C831 C 0.85269 0.25741 0.25155 0.0
H832 H 0.89004 0.4078 0.22157 0.0
H833 H 0.89449 0.27698 0.20202 0.0
H834 H 0.89293 0.36149 0.25234 0.0
H835 H 0.95039 0.37774 0.24748 0.0
H836 H 0.90146 0.41384 0.24318 0.0
H837 H 0.91012 0.20565 0.21229 0.0
H838 H 0.95735 0.21479 0.22316 0.0
H839 H 0.89991 0.20349 0.22893 0.0
H840 H 0.03891 0.25786 0.25939 0.0
H841 H 0.90084 0.22288 0.27143 0.0
H842 H 0.011 0.33496 0.23581 0.0
H843 H 0.01276 0.2801 0.22784 0.0
H844 H 0.05483 0.29253 0.23994 0.0
H845 H 0.83996 0.29393 0.2508 0.0
H846 H 0.83396 0.23981 0.25934 0.0
H847 H 0.84364 0.23959 0.24267 0.0
C848 C 0.31474 0.04616 0.71843 0.0
C849 C 0.28433 0.07875 0.71297 0.0
C850 C 0.33899 0.05651 0.72943 0.0
C851 C 0.333 0.10078 0.73505 0.0
C852 C 0.30376 0.13456 0.72934 0.0
C853 C 0.27931 0.1229 0.7184 0.0
C854 C 0.36925 0.01926 0.73532 0.0
C855 C 0.29723 0.1824 0.735 0.0
C856 C 0.35245 0.10996 0.77 0.0
C857 C 0.39785 0.12784 0.77048 0.0
C858 C 0.33104 0.10061 0.75849 0.0
C859 C 0.35534 0.11061 0.74727 0.0
C860 C 0.4012 0.12894 0.74773 0.0
C861 C 0.4221 0.13698 0.75937 0.0
C862 C 0.2826 0.07975 0.75834 0.0
C863 C 0.42797 0.14044 0.73597 0.0
H864 H 0.31783 0.0116 0.71444 0.0
H865 H 0.25562 0.14787 0.71419 0.0
H866 H 0.40451 0.03331 0.73737 0.0
H867 H 0.35373 0.00808 0.74435 0.0
H868 H 0.37301 0.98803 0.72924 0.0
H869 H 0.2763 0.20581 0.72889 0.0
H870 H 0.27928 0.17912 0.74415 0.0
H871 H 0.33163 0.19899 0.73676 0.0
H872 H 0.33396 0.10295 0.77865 0.0
H873 H 0.45708 0.15145 0.75982 0.0
H874 H 0.28304 0.0458 0.75333 0.0
H875 H 0.25839 0.10318 0.75322 0.0
H876 H 0.26864 0.07389 0.7679 0.0
H877 H 0.43115 0.10889 0.73002 0.0
H878 H 0.46352 0.15394 0.73799 0.0
H879 H 0.40874 0.16713 0.73047 0.0
C880 C 0.20977 0.71847 0.22977 0.0
C881 C 0.24624 0.68609 0.23105 0.0
C882 C 0.18605 0.73564 0.24024 0.0
C883 C 0.20005 0.72124 0.25232 0.0
C884 C 0.23829 0.69049 0.25376 0.0
C885 C 0.26052 0.67275 0.2431 0.0
C886 C 0.14479 0.76771 0.23833 0.0
C887 C 0.25473 0.67513 0.26653 0.0
C888 C 0.15114 0.79253 0.27919 0.0
C889 C 0.11424 0.76401 0.28307 0.0
C890 C 0.18085 0.77822 0.26949 0.0
C891 C 0.17206 0.73524 0.26334 0.0
C892 C 0.13476 0.70634 0.26732 0.0
C893 C 0.10665 0.72089 0.27725 0.0
C894 C 0.22109 0.80923 0.2657 0.0
C895 C 0.12341 0.6609 0.26079 0.0
H896 H 0.19925 0.73009 0.22055 0.0
H897 H 0.28827 0.64742 0.24424 0.0
H898 H 0.11267 0.75067 0.24194 0.0
H899 H 0.1497 0.80055 0.24366 0.0
H900 H 0.13928 0.77667 0.22833 0.0
H901 H 0.28832 0.65584 0.2661 0.0
H902 H 0.2591 0.70584 0.27274 0.0
H903 H 0.22816 0.65199 0.27086 0.0
H904 H 0.15657 0.82587 0.28376 0.0
H905 H 0.07741 0.69944 0.28018 0.0
H906 H 0.21541 0.82265 0.25609 0.0
H907 H 0.25401 0.78884 0.2656 0.0
H908 H 0.22542 0.8395 0.27209 0.0
H909 H 0.11497 0.66782 0.25084 0.0
H910 H 0.09338 0.64243 0.26515 0.0
H911 H 0.15408 0.63733 0.26098 0.0
C912 C 0.68837 0.69097 0.52113 0.0
C913 C 0.66417 0.66479 0.53016 0.0
C914 C 0.66993 0.69771 0.50913 0.0
C915 C 0.62646 0.67735 0.50599 0.0
C916 C 0.60053 0.65322 0.51521 0.0
C917 C 0.61935 0.64794 0.52724 0.0
C918 C 0.69816 0.7247 0.49961 0.0
C919 C 0.55372 0.63155 0.51226 0.0
C920 C 0.57235 0.72441 0.4763 0.0
C921 C 0.58958 0.69309 0.46732 0.0
C922 C 0.58213 0.71853 0.48902 0.0
C923 C 0.60948 0.6801 0.49289 0.0
C924 C 0.6244 0.64659 0.484 0.0
C925 C 0.61436 0.65357 0.47127 0.0
C926 C 0.5652 0.75482 0.4982 0.0
C927 C 0.6525 0.60436 0.48787 0.0
H928 H 0.72291 0.70423 0.52314 0.0
H929 H 0.59963 0.62893 0.53423 0.0
H930 H 0.70952 0.70085 0.49203 0.0
H931 H 0.67648 0.75244 0.49527 0.0
H932 H 0.72963 0.7412 0.50378 0.0
H933 H 0.53954 0.61105 0.52024 0.0
H934 H 0.52835 0.65935 0.50985 0.0
H935 H 0.55664 0.60819 0.50403 0.0
H936 H 0.55157 0.75409 0.47335 0.0
H937 H 0.62723 0.62897 0.4644 0.0
H938 H 0.59534 0.77571 0.50156 0.0
H939 H 0.54909 0.73798 0.50648 0.0
H940 H 0.53935 0.77899 0.49394 0.0
H941 H 0.68737 0.61572 0.49121 0.0
H942 H 0.65737 0.57931 0.48005 0.0
H943 H 0.63509 0.58591 0.49573 0.0
C944 C 0.5919 0.28908 0.47094 0.0
C945 C 0.57795 0.30847 0.45951 0.0
C946 C 0.6061 0.31762 0.48088 0.0
C947 C 0.60702 0.36676 0.47928 0.0
C948 C 0.59423 0.38653 0.46763 0.0
C949 C 0.57943 0.35709 0.45791 0.0
C950 C 0.61869 0.29523 0.49323 0.0
C951 C 0.59548 0.43872 0.46552 0.0
C952 C 0.60169 0.43876 0.50905 0.0
C953 C 0.64918 0.44719 0.51139 0.0
C954 C 0.5873 0.41364 0.49846 0.0
C955 C 0.62114 0.39717 0.48989 0.0
C956 C 0.66889 0.40709 0.49192 0.0
C957 C 0.68236 0.4315 0.50269 0.0
C958 C 0.53602 0.40336 0.49665 0.0
C959 C 0.70597 0.39054 0.48294 0.0
H960 H 0.58968 0.25162 0.47231 0.0
H961 H 0.5684 0.372 0.44907 0.0
H962 H 0.65458 0.30543 0.496 0.0
H963 H 0.59471 0.30785 0.50063 0.0
H964 H 0.61668 0.25646 0.49288 0.0
H965 H 0.58635 0.44833 0.45575 0.0
H966 H 0.57061 0.45619 0.47193 0.0
H967 H 0.63076 0.45258 0.46767 0.0
H968 H 0.5757 0.45141 0.51557 0.0
H969 H 0.71918 0.43695 0.50446 0.0
H970 H 0.53021 0.36502 0.49686 0.0
H971 H 0.52428 0.41608 0.48738 0.0
H972 H 0.51398 0.41973 0.50397 0.0
H973 H 0.70788 0.35181 0.48315 0.0
H974 H 0.741 0.40481 0.48524 0.0
H975 H 0.69693 0.40097 0.47324 0.0
C976 C 0.33161 0.44946 0.53556 0.0
C977 C 0.30177 0.41935 0.54221 0.0
C978 C 0.35561 0.43396 0.52496 0.0
C979 C 0.34957 0.38729 0.52096 0.0
C980 C 0.32273 0.35575 0.52822 0.0
C981 C 0.29902 0.37226 0.53878 0.0
C982 C 0.38389 0.46871 0.51746 0.0
C983 C 0.31588 0.30553 0.52429 0.0
C984 C 0.34668 0.36226 0.48631 0.0
C985 C 0.38949 0.33975 0.48449 0.0
C986 C 0.33407 0.37925 0.49809 0.0
C987 C 0.36499 0.37333 0.5083 0.0
C988 C 0.40899 0.35217 0.50645 0.0
C989 C 0.42079 0.33566 0.49453 0.0
C990 C 0.2869 0.40203 0.49969 0.0
C991 C 0.44301 0.34601 0.5171 0.0
H992 H 0.33358 0.48612 0.53801 0.0
H993 H 0.27633 0.34898 0.54399 0.0
H994 H 0.41735 0.45306 0.51438 0.0
H995 H 0.36415 0.47874 0.50895 0.0
H996 H 0.39147 0.50099 0.52287 0.0
H997 H 0.29923 0.28422 0.53175 0.0
H998 H 0.2933 0.30434 0.51586 0.0
H999 H 0.34977 0.28939 0.52177 0.0
H1000 H 0.32217 0.36505 0.47863 0.0
H1001 H 0.45427 0.31894 0.49309 0.0
H1002 H 0.29094 0.43719 0.50391 0.0
H1003 H 0.26514 0.38082 0.50614 0.0
H1004 H 0.26794 0.40578 0.49068 0.0
H1005 H 0.45194 0.38056 0.52115 0.0
H1006 H 0.47573 0.32854 0.51411 0.0
H1007 H 0.42676 0.32492 0.52465 0.0
C1008 C 0.33514 0.59461 0.50789 0.0
C1009 C 0.34179 0.61709 0.51942 0.0
C1010 C 0.35358 0.61342 0.49683 0.0
C1011 C 0.38021 0.65504 0.49735 0.0
C1012 C 0.39061 0.67551 0.50904 0.0
C1013 C 0.37067 0.65679 0.51992 0.0
C1014 C 0.3428 0.58997 0.48453 0.0
C1015 C 0.42126 0.71836 0.51 0.0
C1016 C 0.44672 0.6926 0.46833 0.0
C1017 C 0.41718 0.72726 0.4635 0.0
C1018 C 0.43574 0.66911 0.47945 0.0
C1019 C 0.39343 0.67969 0.48566 0.0
C1020 C 0.36338 0.71453 0.48075 0.0
C1021 C 0.37599 0.73836 0.4698 0.0
C1022 C 0.46922 0.63265 0.48432 0.0
C1023 C 0.31763 0.7263 0.48699 0.0
H1024 H 0.3144 0.56295 0.50745 0.0
H1025 H 0.37619 0.67465 0.52871 0.0
H1026 H 0.32183 0.61386 0.47859 0.0
H1027 H 0.37563 0.5824 0.47944 0.0
H1028 H 0.32316 0.55676 0.48577 0.0
H1029 H 0.43089 0.72638 0.51982 0.0
H1030 H 0.45371 0.71342 0.50449 0.0
H1031 H 0.40268 0.74898 0.50602 0.0
H1032 H 0.47888 0.68437 0.46349 0.0
H1033 H 0.35323 0.76501 0.46597 0.0
H1034 H 0.45962 0.59813 0.48036 0.0
H1035 H 0.46815 0.62979 0.49465 0.0
H1036 H 0.50562 0.64044 0.48141 0.0
H1037 H 0.29587 0.69433 0.48787 0.0
H1038 H 0.29757 0.7531 0.48174 0.0
H1039 H 0.32416 0.73956 0.49658 0.0
C1040 C 0.07735 0.08998 0.3336 0.0
C1041 C 0.05467 0.11019 0.32331 0.0
C1042 C 0.06816 0.0434 0.33725 0.0
C1043 C 0.03678 0.01568 0.33016 0.0
C1044 C 0.01253 0.03671 0.32002 0.0
C1045 C 0.0216 0.08366 0.31678 0.0
C1046 C 0.09392 0.02319 0.3483 0.0
C1047 C 0.97918 0.00872 0.31206 0.0
C1048 C 0.04931 0.88289 0.32733 0.0
C1049 C 0.00958 0.86709 0.33371 0.0
C1050 C 0.06011 0.93103 0.32665 0.0
C1051 C 0.03104 0.96419 0.33273 0.0
C1052 C 0.99341 0.94777 0.34014 0.0
C1053 C 0.98268 0.89966 0.34034 0.0
C1054 C 0.1002 0.9466 0.31851 0.0
C1055 C 0.96226 0.9813 0.34709 0.0
H1056 H 0.10397 0.10995 0.33845 0.0
H1057 H 1.00519 0.09865 0.30857 0.0
H1058 H 0.06964 1.00344 0.35443 0.0
H1059 H 0.12082 0.99831 0.34497 0.0
H1060 H 0.11146 0.05073 0.35392 0.0
H1061 H 0.96191 0.03047 0.3048 0.0
H1062 H 0.99834 0.97999 0.30736 0.0
H1063 H 0.95187 0.99243 0.31798 0.0
H1064 H 0.06942 0.85815 0.32188 0.0
H1065 H 0.95135 0.88778 0.34507 0.0
H1066 H 0.12281 0.97163 0.3236 0.0
H1067 H 0.08635 0.965 0.31015 0.0
H1068 H 0.12187 0.91672 0.31532 0.0
H1069 H 0.98336 0.00812 0.35202 0.0
H1070 H 0.93983 0.963 0.35402 0.0
H1071 H 0.93934 0.99981 0.34036 0.0
C1072 C 0.09118 0.9671 0.65434 0.0
C1073 C 0.10273 0.98376 0.66626 0.0
C1074 C 0.04552 0.9726 0.64953 0.0
C1075 C 0.01097 0.99536 0.65685 0.0
C1076 C 0.02359 0.01417 0.66862 0.0
C1077 C 0.06898 0.00776 0.67318 0.0
C1078 C 0.03388 0.9517 0.63699 0.0
C1079 C 0.98861 0.03962 0.6767 0.0
C1080 C 0.89891 0.05254 0.64634 0.0
C1081 C 0.86541 0.02334 0.65191 0.0
C1082 C 0.94656 0.04113 0.64655 0.0
C1083 C 0.96127 0.99969 0.65261 0.0
C1084 C 0.92707 0.9675 0.65694 0.0
C1085 C 0.87937 0.97973 0.65655 0.0
C1086 C 0.98141 0.07604 0.64154 0.0
C1087 C 0.94112 0.92234 0.66316 0.0
H1088 H 0.11689 0.94749 0.64909 0.0
H1089 H 0.07772 0.02017 0.68247 0.0
H1090 H 0.01788 0.91675 0.63843 0.0
H1091 H 0.00846 0.97355 0.63179 0.0
H1092 H 0.06565 0.94721 0.63117 0.0
H1093 H 1.00454 0.0537 0.68538 0.0
H1094 H 0.97295 0.0691 0.67141 0.0
H1095 H 0.95988 0.01553 0.67935 0.0
H1096 H 0.8882 0.0863 0.64271 0.0
H1097 H 0.85374 0.95722 0.66098 0.0
H1098 H 0.00977 0.05806 0.63639 0.0
H1099 H 0.99758 0.09514 0.64946 0.0
H1100 H 0.96474 0.10198 0.63523 0.0
H1101 H 0.96945 0.90508 0.65782 0.0
H1102 H 0.91123 0.89778 0.66403 0.0
H1103 H 0.95467 0.92988 0.67267 0.0
C1104 C 0.95472 0.59878 0.90064 0.0
C1105 C 0.98066 0.6108 0.91128 0.0
C1106 C 0.95482 0.55239 0.89604 0.0
C1107 C 0.9813 0.51747 0.90229 0.0
C1108 C 0.00937 0.53046 0.91263 0.0
C1109 C 0.00853 0.57668 0.91698 0.0
C1110 C 0.92462 0.54036 0.88496 0.0
C1111 C 0.03868 0.49498 0.91957 0.0
C1112 C 0.95722 0.387 0.90444 0.0
C1113 C 0.99601 0.3692 0.89807 0.0
C1114 C 0.94874 0.4356 0.90483 0.0
C1115 C 0.97942 0.46688 0.89855 0.0
C1116 C 0.0148 0.44828 0.89079 0.0
C1117 C 0.02294 0.3998 0.89075 0.0
C1118 C 0.91025 0.45363 0.91312 0.0
C1119 C 0.04762 0.47983 0.88366 0.0
H1120 H 0.93212 0.62476 0.89641 0.0
H1121 H 0.02814 0.58578 0.9253 0.0
H1122 H 0.94338 0.51692 0.87842 0.0
H1123 H 0.89306 0.52149 0.88824 0.0
H1124 H 0.91323 0.57213 0.87981 0.0
H1125 H 0.05953 0.51105 0.92719 0.0
H1126 H 0.01581 0.46768 0.92369 0.0
H1127 H 0.06294 0.47735 0.91302 0.0
H1128 H 0.93649 0.36366 0.9102 0.0
H1129 H 0.05304 0.38622 0.88581 0.0
H1130 H 0.89142 0.48282 0.90853 0.0
H1131 H 0.92565 0.46731 0.92191 0.0
H1132 H 0.88481 0.42573 0.91556 0.0
H1133 H 0.02848 0.5095 0.87938 0.0
H1134 H 0.06644 0.46057 0.8762 0.0
H1135 H 0.07385 0.49458 0.8902 0.0
C1136 C 0.5679 0.04731 0.08096 0.0
C1137 C 0.58173 0.03094 0.06918 0.0
C1138 C 0.52092 0.04321 0.0849 0.0
C1139 C 0.48737 0.02243 0.07685 0.0
C1140 C 0.50222 1.00358 0.06527 0.0
C1141 C 0.54893 0.00825 0.06161 0.0
C1142 C 0.50684 0.06343 0.09734 0.0
C1143 C 0.46826 0.98048 0.05639 0.0
C1144 C 0.36782 0.973 0.08364 0.0
C1145 C 0.33927 1.00543 0.07746 0.0
C1146 C 0.41598 0.98088 0.08505 0.0
C1147 C 0.43627 0.02174 0.07989 0.0
C1148 C 0.40659 0.05702 0.07497 0.0
C1149 C 0.3583 0.04845 0.07383 0.0
C1150 C 0.44571 0.94278 0.09067 0.0
C1151 C 0.42643 0.10138 0.06947 0.0
H1152 H 0.59298 0.06574 0.08673 0.0
H1153 H 0.55951 0.99584 0.05246 0.0
H1154 H 0.48906 0.09738 0.0958 0.0
H1155 H 0.48191 0.04003 0.10224 0.0
H1156 H 0.53753 0.06954 0.10348 0.0
H1157 H 0.48579 0.96612 0.04797 0.0
H1158 H 0.44961 0.95154 0.06117 0.0
H1159 H 0.44169 1.00621 0.0533 0.0
H1160 H 0.35323 0.93947 0.08636 0.0
H1161 H 0.33651 0.07324 0.06885 0.0
H1162 H 0.47455 0.95778 0.09631 0.0
H1163 H 0.46152 0.92181 0.08306 0.0
H1164 H 0.42477 0.91892 0.09667 0.0
H1165 H 0.45434 0.11573 0.07555 0.0
H1166 H 0.39912 0.12847 0.06814 0.0
H1167 H 0.44218 0.09354 0.06023 0.0
C1168 C 0.56108 0.3539 0.82639 0.0
C1169 C 0.5192 0.33632 0.83127 0.0
C1170 C 0.56973 0.40251 0.82607 0.0
C1171 C 0.53581 0.43411 0.83078 0.0
C1172 C 0.49598 0.41593 0.83694 0.0
C1173 C 0.48805 0.3674 0.83703 0.0
C1174 C 0.61292 0.42013 0.81952 0.0
C1175 C 0.45915 0.44784 0.84227 0.0
C1176 C 0.56276 0.56582 0.83021 0.0
C1177 C 0.54451 0.57848 0.81853 0.0
C1178 C 0.55932 0.51919 0.83458 0.0
C1179 C 0.53716 0.48476 0.82707 0.0
C1180 C 0.51672 0.49837 0.81556 0.0
C1181 C 0.52092 0.54477 0.81144 0.0
C1182 C 0.58155 0.50636 0.84689 0.0
C1183 C 0.49211 0.46342 0.80727 0.0
H1184 H 0.585 0.33022 0.82177 0.0
H1185 H 0.45556 0.35398 0.84081 0.0
H1186 H 0.60325 0.43364 0.81015 0.0
H1187 H 0.62892 0.44938 0.82481 0.0
H1188 H 0.6393 0.39207 0.81831 0.0
H1189 H 0.4353 0.42893 0.84873 0.0
H1190 H 0.47535 0.47748 0.84736 0.0
H1191 H 0.43805 0.46267 0.83453 0.0
H1192 H 0.58212 0.59152 0.83556 0.0
H1193 H 0.50732 0.5544 0.80233 0.0
H1194 H 0.61359 0.48566 0.84512 0.0
H1195 H 0.55769 0.48423 0.85254 0.0
H1196 H 0.59125 0.53777 0.85241 0.0
H1197 H 0.51713 0.43621 0.80418 0.0
H1198 H 0.47659 0.48001 0.79884 0.0
H1199 H 0.46391 0.44554 0.81254 0.0
C1200 C 0.67216 0.51483 0.14527 0.0
C1201 C 0.70366 0.52686 0.15478 0.0
C1202 C 0.62528 0.52944 0.14566 0.0
C1203 C 0.60887 0.55485 0.15612 0.0
C1204 C 0.64119 0.56905 0.16545 0.0
C1205 C 0.68837 0.55562 0.16453 0.0
C1206 C 0.59282 0.51532 0.13521 0.0
C1207 C 0.62531 0.59529 0.17691 0.0
C1208 C 0.49185 0.6176 0.15817 0.0
C1209 C 0.46449 0.58501 0.1647 0.0
C1210 C 0.53775 0.60701 0.15445 0.0
C1211 C 0.55764 0.56353 0.15787 0.0
C1212 C 0.52925 0.52959 0.16392 0.0
C1213 C 0.48273 0.54048 0.16705 0.0
C1214 C 0.56573 0.64344 0.1475 0.0
C1215 C 0.54905 0.4831 0.16798 0.0
H1216 H 0.68373 0.49205 0.13779 0.0
H1217 H 0.71231 0.56419 0.17203 0.0
H1218 H 0.56993 0.48639 0.13841 0.0
H1219 H 0.56998 0.54496 0.1325 0.0
H1220 H 0.61225 0.50329 0.12683 0.0
H1221 H 0.65488 0.60501 0.18311 0.0
H1222 H 0.60653 0.62758 0.17417 0.0
H1223 H 0.60054 0.57328 0.18231 0.0
H1224 H 0.47799 0.65229 0.15646 0.0
H1225 H 0.462 0.51548 0.17228 0.0
H1226 H 0.58547 0.62722 0.13971 0.0
H1227 H 0.59147 0.6596 0.15393 0.0
H1228 H 0.54318 0.67156 0.14366 0.0
H1229 H 0.5651 0.46488 0.15992 0.0
H1230 H 0.5221 0.45988 0.17214 0.0
H1231 H 0.57698 0.4889 0.175 0.0
C1232 C 0.48378 0.90502 0.39657 0.0
C1233 C 0.45797 0.87471 0.40425 0.0
C1234 C 0.47657 0.95362 0.39685 0.0
C1235 C 0.44305 0.9725 0.40513 0.0
C1236 C 0.41273 0.94153 0.41163 0.0
C1237 C 0.42052 0.89284 0.4111 0.0
C1238 C 0.50894 0.98487 0.38949 0.0
C1239 C 0.37568 0.95996 0.42031 0.0
C1240 C 0.47833 0.07929 0.42403 0.0
C1241 C 0.45158 0.11504 0.41869 0.0
C1242 C 0.47686 0.03349 0.41938 0.0
C1243 C 0.44721 0.02257 0.40918 0.0
C1244 C 0.4216 0.0591 0.40334 0.0
C1245 C 0.42412 0.10505 0.40818 0.0
C1246 C 0.50562 0.99629 0.42582 0.0
C1247 C 0.38942 0.0494 0.3925 0.0
H1248 H 0.51297 0.89115 0.3913 0.0
H1249 H 0.40075 0.86972 0.41716 0.0
H1250 H 0.48978 0.01511 0.38551 0.0
H1251 H 0.53638 0.99878 0.3958 0.0
H1252 H 0.52628 0.96563 0.38176 0.0
H1253 H 0.34984 0.93252 0.42282 0.0
H1254 H 0.39238 0.97266 0.42903 0.0
H1255 H 0.3571 0.9899 0.41599 0.0
H1256 H 0.49912 0.08686 0.43226 0.0
H1257 H 0.40245 0.13237 0.40423 0.0
H1258 H 0.52804 0.97806 0.41893 0.0
H1259 H 0.48223 0.96974 0.43008 0.0
H1260 H 0.52831 0.01092 0.43328 0.0
H1261 H 0.40447 0.02302 0.38607 0.0
H1262 H 0.38168 0.08174 0.38713 0.0
H1263 H 0.35599 0.03521 0.39612 0.0
C1264 C 0.07688 0.5616 0.58779 0.0
C1265 C 0.09154 0.53723 0.57713 0.0
C1266 C 0.02891 0.56499 0.59078 0.0
C1267 C 0.99515 0.54376 0.58287 0.0
C1268 C 0.01059 0.5157 0.57277 0.0
C1269 C 0.05836 0.51294 0.57005 0.0
C1270 C 0.01455 0.59434 0.60181 0.0
C1271 C 0.97646 0.49204 0.56405 0.0
C1272 C 0.86399 0.528 0.58597 0.0
C1273 C 0.84829 0.56177 0.57744 0.0
C1274 C 0.91171 0.52505 0.5892 0.0
C1275 C 0.94429 0.55606 0.58358 0.0
C1276 C 0.92739 0.5935 0.57615 0.0
C1277 C 0.87972 0.59571 0.57315 0.0
C1278 C 0.92776 0.48574 0.59754 0.0
C1279 C 0.96033 0.62788 0.57005 0.0
H1280 H 0.10234 0.58093 0.59322 0.0
H1281 H 0.06965 0.49419 0.56178 0.0
H1282 H 0.00858 0.63081 0.59865 0.0
H1283 H 0.98176 0.58123 0.60609 0.0
H1284 H 0.04236 0.59504 0.60905 0.0
H1285 H 0.99412 0.4685 0.55729 0.0
H1286 H 0.95068 0.47123 0.56943 0.0
H1287 H 0.95692 0.51892 0.55869 0.0
H1288 H 0.83999 0.50112 0.58914 0.0
H1289 H 0.86778 0.62143 0.56641 0.0
H1290 H 0.95681 0.49734 0.60367 0.0
H1291 H 0.9408 0.45652 0.59171 0.0
H1292 H 0.89881 0.47228 0.60345 0.0
H1293 H 0.9863 0.64089 0.5769 0.0
H1294 H 0.94155 0.65828 0.566 0.0
H1295 H 0.9797 0.61011 0.56244 0.0
C1296 C 0.06341 0.58471 0.33649 0.0
C1297 C 0.03998 0.6123 0.32762 0.0
C1298 C 0.06506 0.5354 0.3354 0.0
C1299 C 0.04099 0.51269 0.3255 0.0
C1300 C 0.01725 0.54042 0.31656 0.0
C1301 C 0.01789 0.58948 0.31759 0.0
C1302 C 0.09245 0.50759 0.34488 0.0
C1303 C 0.98975 0.51825 0.30607 0.0
C1304 C 0.07161 0.38866 0.31493 0.0
C1305 C 0.03909 0.36101 0.32143 0.0
C1306 C 0.07342 0.43755 0.31644 0.0
C1307 C 0.04081 0.46015 0.32434 0.0
C1308 C 0.0072 0.43249 0.33075 0.0
C1309 C 0.00746 0.38326 0.32945 0.0
C1310 C 0.11095 0.46492 0.30974 0.0
C1311 C 0.97059 0.45495 0.33889 0.0
H1312 H 0.08049 0.60169 0.34431 0.0
H1313 H 0.99886 0.60974 0.3108 0.0
H1314 H 0.06849 0.48516 0.35039 0.0
H1315 H 0.11742 0.48412 0.34005 0.0
H1316 H 0.11215 0.5304 0.35142 0.0
H1317 H 0.97192 0.54459 0.30011 0.0
H1318 H 0.01311 0.49708 0.30008 0.0
H1319 H 0.96305 0.49422 0.30999 0.0
H1320 H 0.09701 0.3719 0.30898 0.0
H1321 H 0.9825 0.36219 0.33459 0.0
H1322 H 0.13145 0.48564 0.31658 0.0
H1323 H 0.09492 0.48999 0.3031 0.0
H1324 H 0.13519 0.44196 0.30447 0.0
H1325 H 0.98749 0.47369 0.34675 0.0
H1326 H 0.94565 0.42898 0.34279 0.0
H1327 H 0.95078 0.48124 0.3334 0.0
C1328 C 0.37887 0.9998 0.66773 0.0
C1329 C 0.35455 0.96765 0.66026 0.0
C1330 C 0.4274 1.00623 0.66647 0.0
C1331 C 0.45274 0.97936 0.65765 0.0
C1332 C 0.42851 0.94632 0.65021 0.0
C1333 C 0.37979 0.94118 0.65151 0.0
C1334 C 0.45144 0.04244 0.67447 0.0
C1335 C 0.45408 0.91638 0.64085 0.0
C1336 C 0.56458 0.03637 0.64599 0.0
C1337 C 0.59866 0.01714 0.65392 0.0
C1338 C 0.51755 0.0229 0.64676 0.0
C1339 C 0.50378 0.98868 0.65559 0.0
C1340 C 0.53852 0.96643 0.66299 0.0
C1341 C 0.5856 0.981 0.66209 0.0
C1342 C 0.48213 0.04782 0.63869 0.0
C1343 C 0.5256 0.92916 0.67236 0.0
H1344 H 0.35987 0.02028 0.67455 0.0
H1345 H 0.3616 0.91565 0.64583 0.0
H1346 H 0.48014 0.02607 0.67987 0.0
H1347 H 0.46727 0.06973 0.66842 0.0
H1348 H 0.42711 0.05959 0.68111 0.0
H1349 H 0.43082 0.89029 0.63634 0.0
H1350 H 0.46963 0.93877 0.63347 0.0
H1351 H 0.48319 0.89765 0.64551 0.0
H1352 H 0.57434 0.06418 0.6396 0.0
H1353 H 0.61146 0.96618 0.66832 0.0
H1354 H 0.45884 0.06914 0.64469 0.0
H1355 H 0.4599 0.02221 0.63368 0.0
H1356 H 0.49879 0.07125 0.6317 0.0
H1357 H 0.50666 0.94533 0.68029 0.0
H1358 H 0.5568 0.91086 0.6761 0.0
H1359 H 0.50188 0.90304 0.66806 0.0
C1360 C 0.94405 0.09055 0.89525 0.0
C1361 C 0.95843 0.11707 0.9056 0.0
C1362 C 0.94493 0.04118 0.89553 0.0
C1363 C 0.96017 0.0175 0.90646 0.0
C1364 C 0.97299 0.04416 0.91708 0.0
C1365 C 0.97194 0.09336 0.91652 0.0
C1366 C 0.9311 0.01439 0.88397 0.0
C1367 C 0.98898 0.02074 0.929 0.0
C1368 C 0.93195 0.88789 0.91159 0.0
C1369 C 0.97475 0.8662 0.90887 0.0
C1370 C 0.92641 0.93677 0.91064 0.0
C1371 C 0.96433 0.96504 0.90669 0.0
C1372 C 0.00702 0.94319 0.90342 0.0
C1373 C 0.01173 0.89427 0.90457 0.0
C1374 C 0.88029 0.95831 0.91424 0.0
C1375 C 0.04832 0.97168 0.89906 0.0
H1376 H 0.93376 0.10837 0.88674 0.0
H1377 H 0.98239 0.11337 0.92465 0.0
H1378 H 0.96174 0.99506 0.88031 0.0
H1379 H 0.90391 0.98811 0.88627 0.0
H1380 H 0.91764 0.03764 0.87646 0.0
H1381 H 0.99591 0.04627 0.93659 0.0
H1382 H 0.96219 0.99548 0.93226 0.0
H1383 H 0.02141 1.0007 0.92721 0.0
H1384 H 0.90281 0.86674 0.91469 0.0
H1385 H 0.04498 0.87821 0.90242 0.0
H1386 H 0.86684 0.98029 0.90649 0.0
H1387 H 0.88522 0.98151 0.92244 0.0
H1388 H 0.85359 0.93154 0.91662 0.0
H1389 H 0.03814 0.99419 0.89106 0.0
H1390 H 0.07814 0.94941 0.89617 0.0
H1391 H 0.06012 0.99512 0.90669 0.0
C1392 C 0.86276 0.02356 0.07188 0.0
C1393 C 0.84444 0.06771 0.07479 0.0
C1394 C 0.91103 0.01449 0.07299 0.0
C1395 C 0.94172 0.05038 0.07709 0.0
C1396 C 0.92283 0.09388 0.08082 0.0
C1397 C 0.87463 0.10184 0.0797 0.0
C1398 C 0.92948 0.96731 0.06912 0.0
C1399 C 0.95387 0.13323 0.08525 0.0
C1400 C 0.06715 0.02312 0.08692 0.0
C1401 C 0.09236 0.03324 0.07598 0.0
C1402 C 0.01823 0.02788 0.08738 0.0
C1403 C 0.99368 0.04384 0.0767 0.0
C1404 C 0.01904 0.05499 0.0657 0.0
C1405 C 0.06786 0.04928 0.06545 0.0
C1406 C 0.99271 0.01503 0.09924 0.0
C1407 C 0.99452 0.07281 0.05415 0.0
H1408 H 0.83993 0.99698 0.06804 0.0
H1409 H 0.86085 0.13599 0.08208 0.0
H1410 H 0.94977 0.97095 0.06035 0.0
H1411 H 0.95347 0.95332 0.07636 0.0
H1412 H 0.90099 0.9416 0.06754 0.0
H1413 H 0.93353 0.16356 0.08874 0.0
H1414 H 0.97731 0.12096 0.09282 0.0
H1415 H 0.9763 0.14523 0.07742 0.0
H1416 H 0.08549 0.01004 0.09507 0.0
H1417 H 0.08687 0.05706 0.05693 0.0
H1418 H 0.96697 0.98695 0.09729 0.0
H1419 H 0.97294 0.04559 0.10277 0.0
H1420 H 0.01674 1.00282 0.10671 0.0
H1421 H 0.96859 0.04668 0.0509 0.0
H1422 H 0.01918 0.08022 0.04638 0.0
H1423 H 0.97517 0.10533 0.05637 0.0
C1424 C 0.58641 0.06988 0.81481 0.0
C1425 C 0.57502 0.09317 0.82594 0.0
C1426 C 0.58836 0.02062 0.81428 0.0
C1427 C 0.57806 0.99362 0.82508 0.0
C1428 C 0.56694 0.01697 0.83636 0.0
C1429 C 0.56598 0.06622 0.83668 0.0
C1430 C 0.60124 0.99741 0.8021 0.0
C1431 C 0.55508 0.98987 0.84806 0.0
C1432 C 0.54762 0.86437 0.81963 0.0
C1433 C 0.59079 0.84268 0.82177 0.0
C1434 C 0.54236 0.91327 0.82107 0.0
C1435 C 0.58116 0.94114 0.82471 0.0
C1436 C 0.62393 0.91887 0.82756 0.0
C1437 C 0.62806 0.87022 0.82614 0.0
C1438 C 0.49587 0.93537 0.81813 0.0
C1439 C 0.6663 0.94673 0.83148 0.0
H1440 H 0.59339 0.09023 0.80647 0.0
H1441 H 0.55623 0.08357 0.84529 0.0
H1442 H 0.6327 0.97538 0.80343 0.0
H1443 H 0.57256 0.97402 0.79902 0.0
H1444 H 0.60836 0.02318 0.79455 0.0
H1445 H 0.54635 0.01311 0.85603 0.0
H1446 H 0.52493 0.96646 0.84624 0.0
H1447 H 0.58489 0.96738 0.8508 0.0
H1448 H 0.51866 0.84368 0.81619 0.0
H1449 H 0.66156 0.85389 0.82791 0.0
H1450 H 0.49895 0.95689 0.80954 0.0
H1451 H 0.48515 0.95904 0.82582 0.0
H1452 H 0.46805 0.90884 0.81667 0.0
H1453 H 0.67704 0.97027 0.82374 0.0
H1454 H 0.69633 0.92402 0.83396 0.0
H1455 H 0.6579 0.96909 0.83963 0.0
C1456 C 0.99689 0.52508 0.15331 0.0
C1457 C 0.96679 0.52612 0.16365 0.0
C1458 C 0.04481 0.53494 0.15451 0.0
C1459 C 0.06373 0.54512 0.16644 0.0
C1460 C 0.03287 0.54966 0.17677 0.0
C1461 C 0.98469 0.54044 0.17523 0.0
C1462 C 0.07573 0.53062 0.14315 0.0
C1463 C 0.05122 0.5603 0.18967 0.0
C1464 C 0.18887 0.50295 0.17186 0.0
C1465 C 0.21488 0.54446 0.17101 0.0
C1466 C 0.13988 0.50299 0.17061 0.0
C1467 C 0.11586 0.54549 0.16826 0.0
C1468 C 0.14199 0.58746 0.16721 0.0
C1469 C 0.19097 0.58649 0.16867 0.0
C1470 C 0.11372 0.45737 0.17191 0.0
C1471 C 0.1182 0.63342 0.16453 0.0
H1472 H 0.98339 0.5134 0.14437 0.0
H1473 H 0.96193 0.54054 0.18332 0.0
H1474 H 0.10044 0.56045 0.14261 0.0
H1475 H 0.09673 0.49817 0.14387 0.0
H1476 H 0.0552 0.52923 0.13435 0.0
H1477 H 0.02273 0.56919 0.19629 0.0
H1478 H 0.07003 0.52928 0.19333 0.0
H1479 H 0.07646 0.58971 0.18936 0.0
H1480 H 0.20671 0.47036 0.17381 0.0
H1481 H 0.21061 0.61881 0.16797 0.0
H1482 H 0.09505 0.44938 0.16308 0.0
H1483 H 0.08707 0.46029 0.17939 0.0
H1484 H 0.13718 0.42764 0.17416 0.0
H1485 H 0.09897 0.63124 0.15555 0.0
H1486 H 0.14333 0.66298 0.16399 0.0
H1487 H 0.09221 0.64106 0.17192 0.0
C1488 C 0.45131 0.59755 0.42232 0.0
C1489 C 0.43887 0.62068 0.41123 0.0
C1490 C 0.45315 0.54838 0.423 0.0
C1491 C 0.44216 0.52118 0.41233 0.0
C1492 C 0.42817 0.54429 0.40119 0.0
C1493 C 0.42649 0.59362 0.40079 0.0
C1494 C 0.46773 0.52557 0.43513 0.0
C1495 C 0.41622 0.5169 0.38958 0.0
C1496 C 0.49438 0.39807 0.41133 0.0
C1497 C 0.45704 0.37012 0.41545 0.0
C1498 C 0.48965 0.4469 0.40997 0.0
C1499 C 0.44651 0.46876 0.41278 0.0
C1500 C 0.40824 0.44056 0.41652 0.0
C1501 C 0.41389 0.39178 0.41776 0.0
C1502 C 0.53138 0.47534 0.40589 0.0
C1503 C 0.36159 0.46207 0.4196 0.0
H1504 H 0.45986 0.61796 0.43053 0.0
H1505 H 0.41697 0.61104 0.39216 0.0
H1506 H 0.44048 0.5006 0.43827 0.0
H1507 H 0.50026 0.5053 0.43369 0.0
H1508 H 0.4739 0.55149 0.44268 0.0
H1509 H 0.40401 0.53976 0.38184 0.0
H1510 H 0.44738 0.49734 0.38636 0.0
H1511 H 0.38864 0.49078 0.39167 0.0
H1512 H 0.52793 0.382 0.40953 0.0
H1513 H 0.38453 0.37067 0.42076 0.0
H1514 H 0.54213 0.49916 0.41355 0.0
H1515 H 0.52217 0.49746 0.39773 0.0
H1516 H 0.56163 0.45304 0.40335 0.0
H1517 H 0.36528 0.48555 0.42779 0.0
H1518 H 0.33465 0.4353 0.42177 0.0
H1519 H 0.34918 0.48375 0.41167 0.0
C1520 C 0.38106 0.60367 0.58973 0.0
C1521 C 0.35042 0.56731 0.58643 0.0
C1522 C 0.42981 0.59798 0.58913 0.0
C1523 C 0.44887 0.55443 0.58545 0.0
C1524 C 0.41819 0.51677 0.58277 0.0
C1525 C 0.36946 0.5238 0.58314 0.0
C1526 C 0.46087 0.63949 0.59179 0.0
C1527 C 0.43679 0.4694 0.57912 0.0
C1528 C 0.57001 0.55515 0.57049 0.0
C1529 C 0.59923 0.54531 0.5807 0.0
C1530 C 0.52122 0.55799 0.5719 0.0
C1531 C 0.50068 0.5494 0.58375 0.0
C1532 C 0.52994 0.53803 0.59401 0.0
C1533 C 0.57881 0.53685 0.59241 0.0
C1534 C 0.49176 0.57138 0.56075 0.0
C1535 C 0.5096 0.52723 0.6067 0.0
H1536 H 0.36703 0.63764 0.59215 0.0
H1537 H 0.34625 0.49545 0.58056 0.0
H1538 H 0.4869 0.63053 0.59908 0.0
H1539 H 0.48049 0.64905 0.58322 0.0
H1540 H 0.44081 0.67051 0.59495 0.0
H1541 H 0.40885 0.44247 0.57876 0.0
H1542 H 0.45339 0.47159 0.56978 0.0
H1543 H 0.46398 0.45789 0.58584 0.0
H1544 H 0.58542 0.56192 0.56141 0.0
H1545 H 0.60104 0.52875 0.60032 0.0
H1546 H 0.47194 0.60375 0.56283 0.0
H1547 H 0.46588 0.54351 0.55875 0.0
H1548 H 0.51306 0.57737 0.55221 0.0
H1549 H 0.4919 0.55864 0.61047 0.0
H1550 H 0.53664 0.51586 0.61349 0.0
H1551 H 0.48288 0.49927 0.60588 0.0
C1552 C 0.29364 0.19219 0.39891 0.0
C1553 C 0.27971 0.22151 0.40866 0.0
C1554 C 0.27153 0.19408 0.38728 0.0
C1555 C 0.23545 0.22702 0.38533 0.0
C1556 C 0.21961 0.25503 0.39538 0.0
C1557 C 0.24179 0.25156 0.40703 0.0
C1558 C 0.28871 0.16287 0.37688 0.0
C1559 C 0.18166 0.29097 0.39359 0.0
C1560 C 0.22752 0.27395 0.35234 0.0
C1561 C 0.18833 0.25028 0.34765 0.0
C1562 C 0.24241 0.26747 0.36468 0.0
C1563 C 0.21822 0.23567 0.37248 0.0
C1564 C 0.17895 0.21129 0.36787 0.0
C1565 C 0.16414 0.21927 0.35556 0.0
C1566 C 0.28436 0.2944 0.36933 0.0
C1567 C 0.15286 0.1765 0.37589 0.0
H1568 H 0.32292 0.16883 0.40034 0.0
H1569 H 0.23163 0.27438 0.41463 0.0
H1570 H 0.25891 0.14639 0.37194 0.0
H1571 H 0.30823 0.1841 0.36994 0.0
H1572 H 0.31216 0.13489 0.3804 0.0
H1573 H 0.16993 0.30616 0.4026 0.0
H1574 H 0.19489 0.3197 0.38757 0.0
H1575 H 0.15114 0.27533 0.38878 0.0
H1576 H 0.24703 0.29737 0.34635 0.0
H1577 H 0.13335 0.20128 0.35224 0.0
H1578 H 0.31289 0.2698 0.37173 0.0
H1579 H 0.27531 0.31383 0.37796 0.0
H1580 H 0.29768 0.3197 0.36229 0.0
H1581 H 0.17698 0.14866 0.37911 0.0
H1582 H 0.12333 0.1599 0.37083 0.0
H1583 H 0.13905 0.19406 0.38435 0.0
C1584 C 0.21069 0.76341 0.64755 0.0
C1585 C 0.19384 0.80767 0.6509 0.0
C1586 C 0.20046 0.74404 0.63586 0.0
C1587 C 0.17147 0.7689 0.62747 0.0
C1588 C 0.15004 0.81092 0.6313 0.0
C1589 C 0.16188 0.83014 0.64292 0.0
C1590 C 0.22373 0.69878 0.63214 0.0
C1591 C 0.11737 0.83748 0.62281 0.0
C1592 C 0.20755 0.75042 0.59396 0.0
C1593 C 0.17874 0.7131 0.59056 0.0
C1594 C 0.20359 0.77093 0.60578 0.0
C1595 C 0.16935 0.75412 0.61422 0.0
C1596 C 0.13733 0.71935 0.61036 0.0
C1597 C 0.14285 0.69873 0.59859 0.0
C1598 C 0.2385 0.80793 0.60956 0.0
C1599 C 0.09926 0.70172 0.6189 0.0
H1600 H 0.23389 0.74485 0.65381 0.0
H1601 H 0.14798 0.86406 0.64531 0.0
H1602 H 0.19754 0.67366 0.62851 0.0
H1603 H 0.24913 0.70563 0.62452 0.0
H1604 H 0.24256 0.68216 0.64006 0.0
H1605 H 0.09477 0.86177 0.62818 0.0
H1606 H 0.13809 0.85844 0.61606 0.0
H1607 H 0.09486 0.8133 0.61739 0.0
H1608 H 0.23546 0.76113 0.58775 0.0
H1609 H 0.12028 0.67014 0.59581 0.0
H1610 H 0.26133 0.79404 0.61708 0.0
H1611 H 0.22029 0.83902 0.61334 0.0
H1612 H 0.26087 0.81921 0.60163 0.0
H1613 H 0.11413 0.67592 0.62555 0.0
H1614 H 0.07094 0.68421 0.61357 0.0
H1615 H 0.08401 0.73066 0.62445 0.0
C1616 C 0.8111 0.68458 0.35367 0.0
C1617 C 0.85025 0.71391 0.35284 0.0
C1618 C 0.7751 0.69378 0.36211 0.0
C1619 C 0.77789 0.73369 0.36986 0.0
C1620 C 0.81788 0.76269 0.36944 0.0
C1621 C 0.85372 0.7524 0.36092 0.0
C1622 C 0.73301 0.66182 0.3623 0.0
C1623 C 0.82198 0.80549 0.3776 0.0
C1624 C 0.6563 0.77335 0.37746 0.0
C1625 C 0.64867 0.75088 0.3889 0.0
C1626 C 0.70002 0.7719 0.37169 0.0
C1627 C 0.73665 0.74664 0.37744 0.0
C1628 C 0.73014 0.72706 0.38948 0.0
C1629 C 0.68603 0.72967 0.39513 0.0
C1630 C 0.70576 0.79399 0.35895 0.0
C1631 C 0.76836 0.6999 0.39591 0.0
H1632 H 0.80749 0.65521 0.3474 0.0
H1633 H 0.88416 0.7748 0.36051 0.0
H1634 H 0.72539 0.65031 0.37199 0.0
H1635 H 0.70196 0.68101 0.35883 0.0
H1636 H 0.73797 0.63031 0.35639 0.0
H1637 H 0.85762 0.8208 0.37734 0.0
H1638 H 0.79685 0.83239 0.37437 0.0
H1639 H 0.81301 0.79688 0.38742 0.0
H1640 H 0.62743 0.7906 0.37282 0.0
H1641 H 0.6799 0.71244 0.40401 0.0
H1642 H 0.70694 0.76618 0.35173 0.0
H1643 H 0.73903 0.81375 0.3584 0.0
H1644 H 0.67655 0.81803 0.35666 0.0
H1645 H 0.77169 0.66506 0.39144 0.0
H1646 H 0.76089 0.69461 0.406 0.0
H1647 H 0.80244 0.71796 0.39493 0.0
C1648 C 0.7819 0.22238 0.63021 0.0
C1649 C 0.73934 0.20917 0.63551 0.0
C1650 C 0.78486 0.26177 0.62247 0.0
C1651 C 0.74395 0.28773 0.61988 0.0
C1652 C 0.70176 0.27672 0.62613 0.0
C1653 C 0.69998 0.23724 0.6339 0.0
C1654 C 0.83061 0.2726 0.61609 0.0
C1655 C 0.65743 0.30359 0.62364 0.0
C1656 C 0.75362 0.39752 0.60003 0.0
C1657 C 0.74491 0.37952 0.58806 0.0
C1658 C 0.75317 0.36824 0.61057 0.0
C1659 C 0.74336 0.32011 0.60905 0.0
C1660 C 0.73394 0.30199 0.59699 0.0
C1661 C 0.73507 0.33192 0.58664 0.0
C1662 C 0.76389 0.38855 0.62326 0.0
C1663 C 0.72289 0.25085 0.59498 0.0
H1664 H 0.81198 0.1999 0.63145 0.0
H1665 H 0.6671 0.22613 0.63795 0.0
H1666 H 0.82892 0.2609 0.60621 0.0
H1667 H 0.83744 0.31078 0.61605 0.0
H1668 H 0.86037 0.2546 0.62069 0.0
H1669 H 0.63022 0.29604 0.63076 0.0
H1670 H 0.66427 0.34176 0.62348 0.0
H1671 H 0.64355 0.29371 0.61432 0.0
H1672 H 0.76177 0.43429 0.60109 0.0
H1673 H 0.72771 0.31823 0.57742 0.0
H1674 H 0.79609 0.37237 0.62706 0.0
H1675 H 0.73524 0.38043 0.62989 0.0
H1676 H 0.76887 0.42705 0.62292 0.0
H1677 H 0.75285 0.22908 0.59802 0.0
H1678 H 0.71516 0.24274 0.58504 0.0
H1679 H 0.69235 0.24051 0.60073 0.0
C1680 C 0.19188 0.23382 0.87357 0.0
C1681 C 0.18009 0.21958 0.88568 0.0
C1682 C 0.23674 0.22661 0.86885 0.0
C1683 C 0.27062 0.20449 0.87644 0.0
C1684 C 0.25982 0.1926 0.88896 0.0
C1685 C 0.21447 0.20036 0.89346 0.0
C1686 C 0.247 0.24033 0.85548 0.0
C1687 C 0.29519 0.16927 0.89734 0.0
C1688 C 0.35375 0.13648 0.85626 0.0
C1689 C 0.39004 0.16885 0.8546 0.0
C1690 C 0.3163 0.14613 0.86423 0.0
C1691 C 0.31502 0.18929 0.87066 0.0
C1692 C 0.35328 0.22042 0.86985 0.0
C1693 C 0.39046 0.20978 0.86182 0.0
C1694 C 0.27622 0.11182 0.8649 0.0
C1695 C 0.35344 0.26645 0.87673 0.0
H1696 H 0.16555 0.24972 0.86768 0.0
H1697 H 0.20528 0.18936 0.90284 0.0
H1698 H 0.27926 0.26172 0.855 0.0
H1699 H 0.25291 0.20844 0.8498 0.0
H1700 H 0.218 0.26049 0.85118 0.0
H1701 H 0.28414 0.16965 0.9073 0.0
H1702 H 0.2997 0.13236 0.89442 0.0
H1703 H 0.32969 0.18666 0.89654 0.0
H1704 H 0.35286 0.10483 0.85075 0.0
H1705 H 0.419 0.23437 0.86085 0.0
H1706 H 0.24568 0.1264 0.85985 0.0
H1707 H 0.26556 0.10594 0.87474 0.0
H1708 H 0.28518 0.07757 0.86065 0.0
H1709 H 0.32951 0.29118 0.87195 0.0
H1710 H 0.38879 0.28241 0.87699 0.0
H1711 H 0.34068 0.26193 0.88644 0.0
C1712 C 0.27263 0.77518 0.15239 0.0
C1713 C 0.29985 0.73468 0.15172 0.0
C1714 C 0.255 0.79613 0.14154 0.0
C1715 C 0.26565 0.77643 0.12975 0.0
C1716 C 0.29292 0.73532 0.12903 0.0
C1717 C 0.30939 0.71466 0.14006 0.0
C1718 C 0.22537 0.83954 0.14268 0.0
C1719 C 0.30568 0.7139 0.1166 0.0
C1720 C 0.19136 0.81343 0.10213 0.0
C1721 C 0.21803 0.85013 0.0971 0.0
C1722 C 0.20665 0.78865 0.11269 0.0
C1723 C 0.25001 0.80028 0.11819 0.0
C1724 C 0.27777 0.83619 0.11297 0.0
C1725 C 0.26124 0.86099 0.1026 0.0
C1726 C 0.17596 0.75077 0.11812 0.0
C1727 C 0.32453 0.84923 0.11851 0.0
H1728 H 0.26472 0.79012 0.16144 0.0
H1729 H 0.33077 0.68349 0.13959 0.0
H1730 H 0.2432 0.86946 0.1381 0.0
H1731 H 0.19157 0.83436 0.13781 0.0
H1732 H 0.21829 0.84891 0.15257 0.0
H1733 H 0.32587 0.68102 0.11769 0.0
H1734 H 0.27371 0.70634 0.11111 0.0
H1735 H 0.32683 0.73908 0.11109 0.0
H1736 H 0.15834 0.80416 0.0979 0.0
H1737 H 0.28199 0.88966 0.09905 0.0
H1738 H 0.16585 0.76015 0.12781 0.0
H1739 H 0.19538 0.71731 0.11863 0.0
H1740 H 0.14371 0.7452 0.11255 0.0
H1741 H 0.31953 0.86382 0.12801 0.0
H1742 H 0.34341 0.8755 0.11275 0.0
H1743 H 0.34681 0.81772 0.11945 0.0
C1744 C 0.77816 0.67091 0.89588 0.0
C1745 C 0.80833 0.7085 0.8982 0.0
C1746 C 0.75771 0.66497 0.88407 0.0
C1747 C 0.768 0.69729 0.87443 0.0
C1748 C 0.79782 0.73568 0.87679 0.0
C1749 C 0.8173 0.74099 0.88867 0.0
C1750 C 0.72547 0.62399 0.88188 0.0
C1751 C 0.80944 0.771 0.86673 0.0
C1752 C 0.74985 0.66506 0.8404 0.0
C1753 C 0.70809 0.68845 0.83774 0.0
C1754 C 0.76942 0.66673 0.85242 0.0
C1755 C 0.74643 0.6922 0.86194 0.0
C1756 C 0.70405 0.71539 0.85934 0.0
C1757 C 0.68567 0.7136 0.84726 0.0
C1758 C 0.81502 0.642 0.85489 0.0
C1759 C 0.67857 0.74298 0.86925 0.0
H1760 H 0.77155 0.64546 0.90318 0.0
H1761 H 0.83993 0.77055 0.8905 0.0
H1762 H 0.69081 0.63665 0.87874 0.0
H1763 H 0.7396 0.60154 0.87433 0.0
H1764 H 0.72068 0.60232 0.89041 0.0
H1765 H 0.8342 0.79822 0.87005 0.0
H1766 H 0.82507 0.75309 0.85855 0.0
H1767 H 0.77714 0.78848 0.86346 0.0
H1768 H 0.76709 0.64537 0.83311 0.0
H1769 H 0.65409 0.73287 0.84524 0.0
H1770 H 0.81111 0.61737 0.86284 0.0
H1771 H 0.8421 0.6679 0.85756 0.0
H1772 H 0.82754 0.62228 0.84661 0.0
H1773 H 0.67252 0.7209 0.87763 0.0
H1774 H 0.64441 0.75637 0.8659 0.0
H1775 H 0.70022 0.77316 0.87222 0.0
C1776 C 0.69459 0.25185 0.08732 0.0
C1777 C 0.70941 0.20556 0.08582 0.0
C1778 C 0.71275 0.27987 0.0969 0.0
C1779 C 0.74646 0.26098 0.10515 0.0
C1780 C 0.75956 0.21353 0.10414 0.0
C1781 C 0.74093 0.1864 0.09447 0.0
C1782 C 0.69776 0.33035 0.09775 0.0
C1783 C 0.79535 0.19215 0.11279 0.0
C1784 C 0.83255 0.34829 0.11835 0.0
C1785 C 0.81362 0.35706 0.13018 0.0
C1786 C 0.81168 0.31608 0.11024 0.0
C1787 C 0.77094 0.29201 0.11409 0.0
C1788 C 0.75275 0.29916 0.12622 0.0
C1789 C 0.77428 0.33174 0.13412 0.0
C1790 C 0.8323 0.30903 0.09739 0.0
C1791 C 0.70956 0.27379 0.13065 0.0
H1792 H 0.66992 0.26654 0.08072 0.0
H1793 H 0.75325 0.15092 0.0933 0.0
H1794 H 0.68688 0.33886 0.10743 0.0
H1795 H 0.72767 0.35343 0.09539 0.0
H1796 H 0.66848 0.33852 0.0913 0.0
H1797 H 0.7974 0.15356 0.11175 0.0
H1798 H 0.83024 0.20714 0.11072 0.0
H1799 H 0.78711 0.20046 0.12267 0.0
H1800 H 0.86321 0.36746 0.11535 0.0
H1801 H 0.75898 0.33882 0.14317 0.0
H1802 H 0.80688 0.32034 0.09017 0.0
H1803 H 0.83955 0.27143 0.09578 0.0
H1804 H 0.8652 0.32903 0.09605 0.0
H1805 H 0.679 0.28533 0.12508 0.0
H1806 H 0.70218 0.28036 0.14069 0.0
H1807 H 0.71339 0.23558 0.12922 0.0
loop_
_geom_bond_atom_site_label_1
_geom_bond_atom_site_label_2
_geom_bond_distance
_geom_bond_site_symmetry_2
_ccdc_geom_bond_type
C0 C1 1.351 . S
C0 N3 1.368 . S
C0 H5 0.931 . S
C1 C0 1.351 . S
C1 N2 1.373 . S
C1 H29 0.930 . S
N2 C1 1.373 . S
N2 C4 1.340 . S
N3 C0 1.368 . S
N3 C4 1.321 . S
N3 Co6 2.135 1_655 S
C4 N2 1.340 . S
C4 N3 1.321 . S
C4 H28 0.930 . S
H5 C0 0.931 . S
Co6 N3 2.135 1_455 S
Co6 N9 2.121 . S
Co6 O14 2.055 1_455 S
Co6 O17 2.039 1_455 S
Co6 N20 2.140 . S
C7 O8 1.227 1_655 S
C7 O17 1.265 . S
O8 C7 1.227 1_455 S
N9 Co6 2.121 . S
N9 C11 1.375 . S
N9 C12 1.313 . S
C10 C11 1.338 . S
C10 N13 1.377 . S
C10 H30 0.930 . S
C11 N9 1.375 . S
C11 C10 1.338 . S
C11 H15 0.931 . S
C12 N9 1.313 . S
C12 N13 1.344 . S
C12 H16 0.930 . S
N13 C10 1.377 . S
N13 C12 1.344 . S
O14 Co6 2.055 1_655 S
O14 C18 1.253 1_655 S
H15 C11 0.931 . S
H16 C12 0.930 . S
O17 Co6 2.039 1_655 S
O17 C7 1.265 . S
C18 O14 1.253 1_455 S
C18 O19 1.227 . S
O19 C18 1.227 . S
N20 Co6 2.140 . S
N20 C23 1.346 . S
N20 C24 1.345 . S
C21 C22 1.387 . S
C21 C25 1.391 . S
C22 C21 1.387 . S
C22 C23 1.369 . S
C22 H31 0.929 . S
C23 N20 1.346 . S
C23 C22 1.369 . S
C23 H26 0.928 . S
C24 N20 1.345 . S
C24 C25 1.371 . S
C24 H27 0.931 . S
C25 C21 1.391 . S
C25 C24 1.371 . S
C25 H32 0.930 . S
H26 C23 0.928 . S
H27 C24 0.931 . S
H28 C4 0.930 . S
H29 C1 0.930 . S
H30 C10 0.930 . S
H31 C22 0.929 . S
H32 C25 0.930 . S
C33 C34 1.351 . S
C33 N36 1.368 . S
C33 H38 0.931 . S
C34 C33 1.351 . S
C34 N35 1.373 . S
C34 H62 0.930 . S
N35 C34 1.373 . S
N35 C37 1.340 . S
N36 C33 1.368 . S
N36 C37 1.321 . S
N36 Co39 2.135 1_545 S
C37 N35 1.340 . S
C37 N36 1.321 . S
C37 H61 0.930 . S
H38 C33 0.931 . S
Co39 N36 2.135 1_565 S
Co39 N42 2.121 . S
Co39 O47 2.055 1_565 S
Co39 O50 2.039 1_565 S
Co39 N53 2.140 . S
C40 O41 1.227 1_545 S
C40 O50 1.265 . S
O41 C40 1.227 1_565 S
N42 Co39 2.121 . S
N42 C44 1.375 . S
N42 C45 1.313 . S
C43 C44 1.338 . S
C43 N46 1.377 . S
C43 H63 0.930 . S
C44 N42 1.375 . S
C44 C43 1.338 . S
C44 H48 0.931 . S
C45 N42 1.313 . S
C45 N46 1.344 . S
C45 H49 0.930 . S
N46 C43 1.377 . S
N46 C45 1.344 . S
O47 Co39 2.055 1_545 S
O47 C51 1.253 1_545 S
H48 C44 0.931 . S
H49 C45 0.930 . S
O50 Co39 2.039 1_545 S
O50 C40 1.265 . S
C51 O47 1.253 1_565 S
C51 O52 1.227 . S
O52 C51 1.227 . S
N53 Co39 2.140 . S
N53 C56 1.346 . S
N53 C57 1.345 . S
C54 C55 1.387 . S
C54 C58 1.391 . S
C55 C54 1.387 . S
C55 C56 1.369 . S
C55 H64 0.929 . S
C56 N53 1.346 . S
C56 C55 1.369 . S
C56 H59 0.928 . S
C57 N53 1.345 . S
C57 C58 1.371 . S
C57 H60 0.931 . S
C58 C54 1.391 . S
C58 C57 1.371 . S
C58 H65 0.930 . S
H59 C56 0.928 . S
H60 C57 0.931 . S
H61 C37 0.930 . S
H62 C34 0.930 . S
H63 C43 0.930 . S
H64 C55 0.929 . S
H65 C58 0.930 . S
C66 C67 1.351 . S
C66 N69 1.368 . S
C66 H71 0.931 . S
C67 C66 1.351 . S
C67 N68 1.373 . S
C67 H95 0.930 . S
N68 C67 1.373 . S
N68 C70 1.340 . S
N69 C66 1.368 . S
N69 C70 1.321 . S
N69 Co72 2.135 1_455 S
C70 N68 1.340 . S
C70 N69 1.321 . S
C70 H94 0.930 . S
H71 C66 0.931 . S
Co72 N69 2.135 1_655 S
Co72 N75 2.121 . S
Co72 O80 2.055 1_655 S
Co72 O83 2.039 1_655 S
Co72 N86 2.140 . S
C73 O74 1.227 1_455 S
C73 O83 1.265 . S
O74 C73 1.227 1_655 S
N75 Co72 2.121 . S
N75 C77 1.375 . S
N75 C78 1.313 . S
C76 C77 1.338 . S
C76 N79 1.377 . S
C76 H96 0.930 . S
C77 N75 1.375 . S
C77 C76 1.338 . S
C77 H81 0.931 . S
C78 N75 1.313 . S
C78 N79 1.344 . S
C78 H82 0.930 . S
N79 C76 1.377 . S
N79 C78 1.344 . S
O80 Co72 2.055 1_455 S
O80 C84 1.253 1_455 S
H81 C77 0.931 . S
H82 C78 0.930 . S
O83 Co72 2.039 1_455 S
O83 C73 1.265 . S
C84 O80 1.253 1_655 S
C84 O85 1.227 . S
O85 C84 1.227 . S
N86 Co72 2.140 . S
N86 C89 1.346 . S
N86 C90 1.345 . S
C87 C88 1.387 . S
C87 C91 1.391 . S
C88 C87 1.387 . S
C88 C89 1.369 . S
C88 H97 0.929 . S
C89 N86 1.346 . S
C89 C88 1.369 . S
C89 H92 0.928 . S
C90 N86 1.345 . S
C90 C91 1.371 . S
C90 H93 0.931 . S
C91 C87 1.391 . S
C91 C90 1.371 . S
C91 H98 0.930 . S
H92 C89 0.928 . S
H93 C90 0.931 . S
H94 C70 0.930 . S
H95 C67 0.930 . S
H96 C76 0.930 . S
H97 C88 0.929 . S
H98 C91 0.930 . S
C99 C100 1.351 . S
C99 N102 1.368 . S
C99 H104 0.931 . S
C100 C99 1.351 . S
C100 N101 1.373 . S
C100 H128 0.930 . S
N101 C100 1.373 . S
N101 C103 1.340 . S
N102 C99 1.368 . S
N102 C103 1.321 . S
N102 Co105 2.135 1_565 S
C103 N101 1.340 . S
C103 N102 1.321 . S
C103 H127 0.930 . S
H104 C99 0.931 . S
Co105 N102 2.135 1_545 S
Co105 N108 2.121 . S
Co105 O113 2.055 1_545 S
Co105 O116 2.039 1_545 S
Co105 N119 2.140 . S
C106 O107 1.227 1_565 S
C106 O116 1.265 . S
O107 C106 1.227 1_545 S
N108 Co105 2.121 . S
N108 C110 1.375 . S
N108 C111 1.313 . S
C109 C110 1.338 . S
C109 N112 1.377 . S
C109 H129 0.930 . S
C110 N108 1.375 . S
C110 C109 1.338 . S
C110 H114 0.931 . S
C111 N108 1.313 . S
C111 N112 1.344 . S
C111 H115 0.930 . S
N112 C109 1.377 . S
N112 C111 1.344 . S
O113 Co105 2.055 1_565 S
O113 C117 1.253 1_565 S
H114 C110 0.931 . S
H115 C111 0.930 . S
O116 Co105 2.039 1_565 S
O116 C106 1.265 . S
C117 O113 1.253 1_545 S
C117 O118 1.227 . S
O118 C117 1.227 . S
N119 Co105 2.140 . S
N119 C122 1.346 . S
N119 C123 1.345 . S
C120 C121 1.387 . S
C120 C124 1.391 . S
C121 C120 1.387 . S
C121 C122 1.369 . S
C121 H130 0.929 . S
C122 N119 1.346 . S
C122 C121 1.369 . S
C122 H125 0.928 . S
C123 N119 1.345 . S
C123 C124 1.371 . S
C123 H126 0.931 . S
C124 C120 1.391 . S
C124 C123 1.371 . S
C124 H131 0.930 . S
H125 C122 0.928 . S
H126 C123 0.931 . S
H127 C103 0.930 . S
H128 C100 0.930 . S
H129 C109 0.930 . S
H130 C121 0.929 . S
H131 C124 0.930 . S
C132 C133 1.351 . S
C132 N135 1.368 . S
C132 H137 0.931 . S
C133 C132 1.351 . S
C133 N134 1.373 . S
C133 H161 0.930 . S
N134 C133 1.373 . S
N134 C136 1.340 . S
N135 C132 1.368 . S
N135 C136 1.321 . S
N135 Co138 2.135 1_655 S
C136 N134 1.340 . S
C136 N135 1.321 . S
C136 H160 0.930 . S
H137 C132 0.931 . S
Co138 N135 2.135 1_455 S
Co138 N141 2.121 . S
Co138 O146 2.055 1_455 S
Co138 O149 2.039 1_455 S
Co138 N152 2.140 . S
C139 O140 1.227 1_655 S
C139 O149 1.265 . S
O140 C139 1.227 1_455 S
N141 Co138 2.121 . S
N141 C143 1.375 . S
N141 C144 1.313 . S
C142 C143 1.338 . S
C142 N145 1.377 . S
C142 H162 0.930 . S
C143 N141 1.375 . S
C143 C142 1.338 . S
C143 H147 0.931 . S
C144 N141 1.313 . S
C144 N145 1.344 . S
C144 H148 0.930 . S
N145 C142 1.377 . S
N145 C144 1.344 . S
O146 Co138 2.055 1_655 S
O146 C150 1.253 1_655 S
H147 C143 0.931 . S
H148 C144 0.930 . S
O149 Co138 2.039 1_655 S
O149 C139 1.265 . S
C150 O146 1.253 1_455 S
C150 O151 1.227 . S
O151 C150 1.227 . S
N152 Co138 2.140 . S
N152 C155 1.346 . S
N152 C156 1.345 . S
C153 C154 1.387 . S
C153 C157 1.391 . S
C154 C153 1.387 . S
C154 C155 1.369 . S
C154 H163 0.929 . S
C155 N152 1.346 . S
C155 C154 1.369 . S
C155 H158 0.928 . S
C156 N152 1.345 . S
C156 C157 1.371 . S
C156 H159 0.931 . S
C157 C153 1.391 . S
C157 C156 1.371 . S
C157 H164 0.930 . S
H158 C155 0.928 . S
H159 C156 0.931 . S
H160 C136 0.930 . S
H161 C133 0.930 . S
H162 C142 0.930 . S
H163 C154 0.929 . S
H164 C157 0.930 . S
C165 C166 1.351 . S
C165 N168 1.368 . S
C165 H170 0.931 . S
C166 C165 1.351 . S
C166 N167 1.373 . S
C166 H194 0.930 . S
N167 C166 1.373 . S
N167 C169 1.340 . S
N168 C165 1.368 . S
N168 C169 1.321 . S
N168 Co171 2.135 1_545 S
C169 N167 1.340 . S
C169 N168 1.321 . S
C169 H193 0.930 . S
H170 C165 0.931 . S
Co171 N168 2.135 1_565 S
Co171 N174 2.121 . S
Co171 O179 2.055 1_565 S
Co171 O182 2.039 1_565 S
Co171 N185 2.140 . S
C172 O173 1.227 1_545 S
C172 O182 1.265 . S
O173 C172 1.227 1_565 S
N174 Co171 2.121 . S
N174 C176 1.375 . S
N174 C177 1.313 . S
C175 C176 1.338 . S
C175 N178 1.377 . S
C175 H195 0.930 . S
C176 N174 1.375 . S
C176 C175 1.338 . S
C176 H180 0.931 . S
C177 N174 1.313 . S
C177 N178 1.344 . S
C177 H181 0.930 . S
N178 C175 1.377 . S
N178 C177 1.344 . S
O179 Co171 2.055 1_545 S
O179 C183 1.253 1_545 S
H180 C176 0.931 . S
H181 C177 0.930 . S
O182 Co171 2.039 1_545 S
O182 C172 1.265 . S
C183 O179 1.253 1_565 S
C183 O184 1.227 . S
O184 C183 1.227 . S
N185 Co171 2.140 . S
N185 C188 1.346 . S
N185 C189 1.345 . S
C186 C187 1.387 . S
C186 C190 1.391 . S
C187 C186 1.387 . S
C187 C188 1.369 . S
C187 H196 0.929 . S
C188 N185 1.346 . S
C188 C187 1.369 . S
C188 H191 0.928 . S
C189 N185 1.345 . S
C189 C190 1.371 . S
C189 H192 0.931 . S
C190 C186 1.391 . S
C190 C189 1.371 . S
C190 H197 0.930 . S
H191 C188 0.928 . S
H192 C189 0.931 . S
H193 C169 0.930 . S
H194 C166 0.930 . S
H195 C175 0.930 . S
H196 C187 0.929 . S
H197 C190 0.930 . S
C198 C199 1.351 . S
C198 N201 1.368 . S
C198 H203 0.931 . S
C199 C198 1.351 . S
C199 N200 1.373 . S
C199 H227 0.930 . S
N200 C199 1.373 . S
N200 C202 1.340 . S
N201 C198 1.368 . S
N201 C202 1.321 . S
N201 Co204 2.135 1_455 S
C202 N200 1.340 . S
C202 N201 1.321 . S
C202 H226 0.930 . S
H203 C198 0.931 . S
Co204 N201 2.135 1_655 S
Co204 N207 2.121 . S
Co204 O212 2.055 1_655 S
Co204 O215 2.039 1_655 S
Co204 N218 2.140 . S
C205 O206 1.227 1_455 S
C205 O215 1.265 . S
O206 C205 1.227 1_655 S
N207 Co204 2.121 . S
N207 C209 1.375 . S
N207 C210 1.313 . S
C208 C209 1.338 . S
C208 N211 1.377 . S
C208 H228 0.930 . S
C209 N207 1.375 . S
C209 C208 1.338 . S
C209 H213 0.931 . S
C210 N207 1.313 . S
C210 N211 1.344 . S
C210 H214 0.930 . S
N211 C208 1.377 . S
N211 C210 1.344 . S
O212 Co204 2.055 1_455 S
O212 C216 1.253 1_455 S
H213 C209 0.931 . S
H214 C210 0.930 . S
O215 Co204 2.039 1_455 S
O215 C205 1.265 . S
C216 O212 1.253 1_655 S
C216 O217 1.227 . S
O217 C216 1.227 . S
N218 Co204 2.140 . S
N218 C221 1.346 . S
N218 C222 1.345 . S
C219 C220 1.387 . S
C219 C223 1.391 . S
C220 C219 1.387 . S
C220 C221 1.369 . S
C220 H229 0.929 . S
C221 N218 1.346 . S
C221 C220 1.369 . S
C221 H224 0.928 . S
C222 N218 1.345 . S
C222 C223 1.371 . S
C222 H225 0.931 . S
C223 C219 1.391 . S
C223 C222 1.371 . S
C223 H230 0.930 . S
H224 C221 0.928 . S
H225 C222 0.931 . S
H226 C202 0.930 . S
H227 C199 0.930 . S
H228 C208 0.930 . S
H229 C220 0.929 . S
H230 C223 0.930 . S
C231 C232 1.351 . S
C231 N234 1.368 . S
C231 H236 0.931 . S
C232 C231 1.351 . S
C232 N233 1.373 . S
C232 H260 0.930 . S
N233 C232 1.373 . S
N233 C235 1.340 . S
N234 C231 1.368 . S
N234 C235 1.321 . S
N234 Co237 2.135 1_565 S
C235 N233 1.340 . S
C235 N234 1.321 . S
C235 H259 0.930 . S
H236 C231 0.931 . S
Co237 N234 2.135 1_545 S
Co237 N240 2.121 . S
Co237 O245 2.055 1_545 S
Co237 O248 2.039 1_545 S
Co237 N251 2.140 . S
C238 O239 1.227 1_565 S
C238 O248 1.265 . S
O239 C238 1.227 1_545 S
N240 Co237 2.121 . S
N240 C242 1.375 . S
N240 C243 1.313 . S
C241 C242 1.338 . S
C241 N244 1.377 . S
C241 H261 0.930 . S
C242 N240 1.375 . S
C242 C241 1.338 . S
C242 H246 0.931 . S
C243 N240 1.313 . S
C243 N244 1.344 . S
C243 H247 0.930 . S
N244 C241 1.377 . S
N244 C243 1.344 . S
O245 Co237 2.055 1_565 S
O245 C249 1.253 1_565 S
H246 C242 0.931 . S
H247 C243 0.930 . S
O248 Co237 2.039 1_565 S
O248 C238 1.265 . S
C249 O245 1.253 1_545 S
C249 O250 1.227 . S
O250 C249 1.227 . S
N251 Co237 2.140 . S
N251 C254 1.346 . S
N251 C255 1.345 . S
C252 C253 1.387 . S
C252 C256 1.391 . S
C253 C252 1.387 . S
C253 C254 1.369 . S
C253 H262 0.929 . S
C254 N251 1.346 . S
C254 C253 1.369 . S
C254 H257 0.928 . S
C255 N251 1.345 . S
C255 C256 1.371 . S
C255 H258 0.931 . S
C256 C252 1.391 . S
C256 C255 1.371 . S
C256 H263 0.930 . S
H257 C254 0.928 . S
H258 C255 0.931 . S
H259 C235 0.930 . S
H260 C232 0.930 . S
H261 C241 0.930 . S
H262 C253 0.929 . S
H263 C256 0.930 . S
C264 C265 1.351 . S
C264 N267 1.368 . S
C264 H269 0.931 . S
C265 C264 1.351 . S
C265 N266 1.373 . S
C265 H293 0.930 . S
N266 C265 1.373 . S
N266 C268 1.340 . S
N267 C264 1.368 . S
N267 C268 1.321 . S
N267 Co270 2.135 . S
C268 N266 1.340 . S
C268 N267 1.321 . S
C268 H292 0.930 . S
H269 C264 0.931 . S
Co270 N267 2.135 . S
Co270 N273 2.121 . S
Co270 O278 2.055 . S
Co270 O281 2.039 . S
Co270 N284 2.140 . S
C271 O272 1.227 . S
C271 O281 1.265 . S
O272 C271 1.227 . S
N273 Co270 2.121 . S
N273 C275 1.375 . S
N273 C276 1.313 . S
C274 C275 1.338 . S
C274 N277 1.377 . S
C274 H294 0.930 . S
C275 N273 1.375 . S
C275 C274 1.338 . S
C275 H279 0.931 . S
C276 N273 1.313 . S
C276 N277 1.344 . S
C276 H280 0.930 . S
N277 C274 1.377 . S
N277 C276 1.344 . S
O278 Co270 2.055 . S
O278 C282 1.253 . S
H279 C275 0.931 . S
H280 C276 0.930 . S
O281 Co270 2.039 . S
O281 C271 1.265 . S
C282 O278 1.253 . S
C282 O283 1.227 . S
O283 C282 1.227 . S
N284 Co270 2.140 . S
N284 C287 1.346 . S
N284 C288 1.345 . S
C285 C286 1.387 . S
C285 C289 1.391 . S
C286 C285 1.387 . S
C286 C287 1.369 . S
C286 H295 0.929 . S
C287 N284 1.346 . S
C287 C286 1.369 . S
C287 H290 0.928 . S
C288 N284 1.345 . S
C288 C289 1.371 . S
C288 H291 0.931 . S
C289 C285 1.391 . S
C289 C288 1.371 . S
C289 H296 0.930 . S
H290 C287 0.928 . S
H291 C288 0.931 . S
H292 C268 0.930 . S
H293 C265 0.930 . S
H294 C274 0.930 . S
H295 C286 0.929 . S
H296 C289 0.930 . S
C297 C298 1.351 . S
C297 N300 1.368 . S
C297 H302 0.931 . S
C298 C297 1.351 . S
C298 N299 1.373 . S
C298 H326 0.930 . S
N299 C298 1.373 . S
N299 C301 1.340 . S
N300 C297 1.368 . S
N300 C301 1.321 . S
N300 Co303 2.135 . S
C301 N299 1.340 . S
C301 N300 1.321 . S
C301 H325 0.930 . S
H302 C297 0.931 . S
Co303 N300 2.135 . S
Co303 N306 2.121 . S
Co303 O311 2.055 . S
Co303 O314 2.039 . S
Co303 N317 2.140 . S
C304 O305 1.227 . S
C304 O314 1.265 . S
O305 C304 1.227 . S
N306 Co303 2.121 . S
N306 C308 1.375 . S
N306 C309 1.313 . S
C307 C308 1.338 . S
C307 N310 1.377 . S
C307 H327 0.930 . S
C308 N306 1.375 . S
C308 C307 1.338 . S
C308 H312 0.931 . S
C309 N306 1.313 . S
C309 N310 1.344 . S
C309 H313 0.930 . S
N310 C307 1.377 . S
N310 C309 1.344 . S
O311 Co303 2.055 . S
O311 C315 1.253 . S
H312 C308 0.931 . S
H313 C309 0.930 . S
O314 Co303 2.039 . S
O314 C304 1.265 . S
C315 O311 1.253 . S
C315 O316 1.227 . S
O316 C315 1.227 . S
N317 Co303 2.140 . S
N317 C320 1.346 . S
N317 C321 1.345 . S
C318 C319 1.387 . S
C318 C322 1.391 . S
C319 C318 1.387 . S
C319 C320 1.369 . S
C319 H328 0.929 . S
C320 N317 1.346 . S
C320 C319 1.369 . S
C320 H323 0.928 . S
C321 N317 1.345 . S
C321 C322 1.371 . S
C321 H324 0.931 . S
C322 C318 1.391 . S
C322 C321 1.371 . S
C322 H329 0.930 . S
H323 C320 0.928 . S
H324 C321 0.931 . S
H325 C301 0.930 . S
H326 C298 0.930 . S
H327 C307 0.930 . S
H328 C319 0.929 . S
H329 C322 0.930 . S
C330 C331 1.351 . S
C330 N333 1.368 . S
C330 H335 0.931 . S
C331 C330 1.351 . S
C331 N332 1.373 . S
C331 H359 0.930 . S
N332 C331 1.373 . S
N332 C334 1.340 . S
N333 C330 1.368 . S
N333 C334 1.321 . S
N333 Co336 2.135 . S
C334 N332 1.340 . S
C334 N333 1.321 . S
C334 H358 0.930 . S
H335 C330 0.931 . S
Co336 N333 2.135 . S
Co336 N339 2.121 . S
Co336 O344 2.055 . S
Co336 O347 2.039 . S
Co336 N350 2.140 . S
C337 O338 1.227 . S
C337 O347 1.265 . S
O338 C337 1.227 . S
N339 Co336 2.121 . S
N339 C341 1.375 . S
N339 C342 1.313 . S
C340 C341 1.338 . S
C340 N343 1.377 . S
C340 H360 0.930 . S
C341 N339 1.375 . S
C341 C340 1.338 . S
C341 H345 0.931 . S
C342 N339 1.313 . S
C342 N343 1.344 . S
C342 H346 0.930 . S
N343 C340 1.377 . S
N343 C342 1.344 . S
O344 Co336 2.055 . S
O344 C348 1.253 . S
H345 C341 0.931 . S
H346 C342 0.930 . S
O347 Co336 2.039 . S
O347 C337 1.265 . S
C348 O344 1.253 . S
C348 O349 1.227 . S
O349 C348 1.227 . S
N350 Co336 2.140 . S
N350 C353 1.346 . S
N350 C354 1.345 . S
C351 C352 1.387 . S
C351 C355 1.391 . S
C352 C351 1.387 . S
C352 C353 1.369 . S
C352 H361 0.929 . S
C353 N350 1.346 . S
C353 C352 1.369 . S
C353 H356 0.928 . S
C354 N350 1.345 . S
C354 C355 1.371 . S
C354 H357 0.931 . S
C355 C351 1.391 . S
C355 C354 1.371 . S
C355 H362 0.930 . S
H356 C353 0.928 . S
H357 C354 0.931 . S
H358 C334 0.930 . S
H359 C331 0.930 . S
H360 C340 0.930 . S
H361 C352 0.929 . S
H362 C355 0.930 . S
C363 C364 1.351 . S
C363 N366 1.368 . S
C363 H368 0.931 . S
C364 C363 1.351 . S
C364 N365 1.373 . S
C364 H392 0.930 . S
N365 C364 1.373 . S
N365 C367 1.340 . S
N366 C363 1.368 . S
N366 C367 1.321 . S
N366 Co369 2.135 . S
C367 N365 1.340 . S
C367 N366 1.321 . S
C367 H391 0.930 . S
H368 C363 0.931 . S
Co369 N366 2.135 . S
Co369 N372 2.121 . S
Co369 O377 2.055 . S
Co369 O380 2.039 . S
Co369 N383 2.140 . S
C370 O371 1.227 . S
C370 O380 1.265 . S
O371 C370 1.227 . S
N372 Co369 2.121 . S
N372 C374 1.375 . S
N372 C375 1.313 . S
C373 C374 1.338 . S
C373 N376 1.377 . S
C373 H393 0.930 . S
C374 N372 1.375 . S
C374 C373 1.338 . S
C374 H378 0.931 . S
C375 N372 1.313 . S
C375 N376 1.344 . S
C375 H379 0.930 . S
N376 C373 1.377 . S
N376 C375 1.344 . S
O377 Co369 2.055 . S
O377 C381 1.253 . S
H378 C374 0.931 . S
H379 C375 0.930 . S
O380 Co369 2.039 . S
O380 C370 1.265 . S
C381 O377 1.253 . S
C381 O382 1.227 . S
O382 C381 1.227 . S
N383 Co369 2.140 . S
N383 C386 1.346 . S
N383 C387 1.345 . S
C384 C385 1.387 . S
C384 C388 1.391 . S
C385 C384 1.387 . S
C385 C386 1.369 . S
C385 H394 0.929 . S
C386 N383 1.346 . S
C386 C385 1.369 . S
C386 H389 0.928 . S
C387 N383 1.345 . S
C387 C388 1.371 . S
C387 H390 0.931 . S
C388 C384 1.391 . S
C388 C387 1.371 . S
C388 H395 0.930 . S
H389 C386 0.928 . S
H390 C387 0.931 . S
H391 C367 0.930 . S
H392 C364 0.930 . S
H393 C373 0.930 . S
H394 C385 0.929 . S
H395 C388 0.930 . S
C396 C397 1.351 . S
C396 N399 1.368 . S
C396 H401 0.931 . S
C397 C396 1.351 . S
C397 N398 1.373 . S
C397 H425 0.930 . S
N398 C397 1.373 . S
N398 C400 1.340 . S
N399 C396 1.368 . S
N399 C400 1.321 . S
N399 Co402 2.135 . S
C400 N398 1.340 . S
C400 N399 1.321 . S
C400 H424 0.930 . S
H401 C396 0.931 . S
Co402 N399 2.135 . S
Co402 N405 2.121 . S
Co402 O410 2.055 . S
Co402 O413 2.039 . S
Co402 N416 2.140 . S
C403 O404 1.227 . S
C403 O413 1.265 . S
O404 C403 1.227 . S
N405 Co402 2.121 . S
N405 C407 1.375 . S
N405 C408 1.313 . S
C406 C407 1.338 . S
C406 N409 1.377 . S
C406 H426 0.930 . S
C407 N405 1.375 . S
C407 C406 1.338 . S
C407 H411 0.931 . S
C408 N405 1.313 . S
C408 N409 1.344 . S
C408 H412 0.930 . S
N409 C406 1.377 . S
N409 C408 1.344 . S
O410 Co402 2.055 . S
O410 C414 1.253 . S
H411 C407 0.931 . S
H412 C408 0.930 . S
O413 Co402 2.039 . S
O413 C403 1.265 . S
C414 O410 1.253 . S
C414 O415 1.227 . S
O415 C414 1.227 . S
N416 Co402 2.140 . S
N416 C419 1.346 . S
N416 C420 1.345 . S
C417 C418 1.387 . S
C417 C421 1.391 . S
C418 C417 1.387 . S
C418 C419 1.369 . S
C418 H427 0.929 . S
C419 N416 1.346 . S
C419 C418 1.369 . S
C419 H422 0.928 . S
C420 N416 1.345 . S
C420 C421 1.371 . S
C420 H423 0.931 . S
C421 C417 1.391 . S
C421 C420 1.371 . S
C421 H428 0.930 . S
H422 C419 0.928 . S
H423 C420 0.931 . S
H424 C400 0.930 . S
H425 C397 0.930 . S
H426 C406 0.930 . S
H427 C418 0.929 . S
H428 C421 0.930 . S
C429 C430 1.351 . S
C429 N432 1.368 . S
C429 H434 0.931 . S
C430 C429 1.351 . S
C430 N431 1.373 . S
C430 H458 0.930 . S
N431 C430 1.373 . S
N431 C433 1.340 . S
N432 C429 1.368 . S
N432 C433 1.321 . S
N432 Co435 2.135 . S
C433 N431 1.340 . S
C433 N432 1.321 . S
C433 H457 0.930 . S
H434 C429 0.931 . S
Co435 N432 2.135 . S
Co435 N438 2.121 . S
Co435 O443 2.055 . S
Co435 O446 2.039 . S
Co435 N449 2.140 . S
C436 O437 1.227 . S
C436 O446 1.265 . S
O437 C436 1.227 . S
N438 Co435 2.121 . S
N438 C440 1.375 . S
N438 C441 1.313 . S
C439 C440 1.338 . S
C439 N442 1.377 . S
C439 H459 0.930 . S
C440 N438 1.375 . S
C440 C439 1.338 . S
C440 H444 0.931 . S
C441 N438 1.313 . S
C441 N442 1.344 . S
C441 H445 0.930 . S
N442 C439 1.377 . S
N442 C441 1.344 . S
O443 Co435 2.055 . S
O443 C447 1.253 . S
H444 C440 0.931 . S
H445 C441 0.930 . S
O446 Co435 2.039 . S
O446 C436 1.265 . S
C447 O443 1.253 . S
C447 O448 1.227 . S
O448 C447 1.227 . S
N449 Co435 2.140 . S
N449 C452 1.346 . S
N449 C453 1.345 . S
C450 C451 1.387 . S
C450 C454 1.391 . S
C451 C450 1.387 . S
C451 C452 1.369 . S
C451 H460 0.929 . S
C452 N449 1.346 . S
C452 C451 1.369 . S
C452 H455 0.928 . S
C453 N449 1.345 . S
C453 C454 1.371 . S
C453 H456 0.931 . S
C454 C450 1.391 . S
C454 C453 1.371 . S
C454 H461 0.930 . S
H455 C452 0.928 . S
H456 C453 0.931 . S
H457 C433 0.930 . S
H458 C430 0.930 . S
H459 C439 0.930 . S
H460 C451 0.929 . S
H461 C454 0.930 . S
C462 C463 1.351 . S
C462 N465 1.368 . S
C462 H467 0.931 . S
C463 C462 1.351 . S
C463 N464 1.373 . S
C463 H491 0.930 . S
N464 C463 1.373 . S
N464 C466 1.340 . S
N465 C462 1.368 . S
N465 C466 1.321 . S
N465 Co468 2.135 . S
C466 N464 1.340 . S
C466 N465 1.321 . S
C466 H490 0.930 . S
H467 C462 0.931 . S
Co468 N465 2.135 . S
Co468 N471 2.121 . S
Co468 O476 2.055 . S
Co468 O479 2.039 . S
Co468 N482 2.140 . S
C469 O470 1.227 . S
C469 O479 1.265 . S
O470 C469 1.227 . S
N471 Co468 2.121 . S
N471 C473 1.375 . S
N471 C474 1.313 . S
C472 C473 1.338 . S
C472 N475 1.377 . S
C472 H492 0.930 . S
C473 N471 1.375 . S
C473 C472 1.338 . S
C473 H477 0.931 . S
C474 N471 1.313 . S
C474 N475 1.344 . S
C474 H478 0.930 . S
N475 C472 1.377 . S
N475 C474 1.344 . S
O476 Co468 2.055 . S
O476 C480 1.253 . S
H477 C473 0.931 . S
H478 C474 0.930 . S
O479 Co468 2.039 . S
O479 C469 1.265 . S
C480 O476 1.253 . S
C480 O481 1.227 . S
O481 C480 1.227 . S
N482 Co468 2.140 . S
N482 C485 1.346 . S
N482 C486 1.345 . S
C483 C484 1.387 . S
C483 C487 1.391 . S
C484 C483 1.387 . S
C484 C485 1.369 . S
C484 H493 0.929 . S
C485 N482 1.346 . S
C485 C484 1.369 . S
C485 H488 0.928 . S
C486 N482 1.345 . S
C486 C487 1.371 . S
C486 H489 0.931 . S
C487 C483 1.391 . S
C487 C486 1.371 . S
C487 H494 0.930 . S
H488 C485 0.928 . S
H489 C486 0.931 . S
H490 C466 0.930 . S
H491 C463 0.930 . S
H492 C472 0.930 . S
H493 C484 0.929 . S
H494 C487 0.930 . S
C495 C496 1.351 . S
C495 N498 1.368 . S
C495 H500 0.931 . S
C496 C495 1.351 . S
C496 N497 1.373 . S
C496 H524 0.930 . S
N497 C496 1.373 . S
N497 C499 1.340 . S
N498 C495 1.368 . S
N498 C499 1.321 . S
N498 Co501 2.135 . S
C499 N497 1.340 . S
C499 N498 1.321 . S
C499 H523 0.930 . S
H500 C495 0.931 . S
Co501 N498 2.135 . S
Co501 N504 2.121 . S
Co501 O509 2.055 . S
Co501 O512 2.039 . S
Co501 N515 2.140 . S
C502 O503 1.227 . S
C502 O512 1.265 . S
O503 C502 1.227 . S
N504 Co501 2.121 . S
N504 C506 1.375 . S
N504 C507 1.313 . S
C505 C506 1.338 . S
C505 N508 1.377 . S
C505 H525 0.930 . S
C506 N504 1.375 . S
C506 C505 1.338 . S
C506 H510 0.931 . S
C507 N504 1.313 . S
C507 N508 1.344 . S
C507 H511 0.930 . S
N508 C505 1.377 . S
N508 C507 1.344 . S
O509 Co501 2.055 . S
O509 C513 1.253 . S
H510 C506 0.931 . S
H511 C507 0.930 . S
O512 Co501 2.039 . S
O512 C502 1.265 . S
C513 O509 1.253 . S
C513 O514 1.227 . S
O514 C513 1.227 . S
N515 Co501 2.140 . S
N515 C518 1.346 . S
N515 C519 1.345 . S
C516 C517 1.387 . S
C516 C520 1.391 . S
C517 C516 1.387 . S
C517 C518 1.369 . S
C517 H526 0.929 . S
C518 N515 1.346 . S
C518 C517 1.369 . S
C518 H521 0.928 . S
C519 N515 1.345 . S
C519 C520 1.371 . S
C519 H522 0.931 . S
C520 C516 1.391 . S
C520 C519 1.371 . S
C520 H527 0.930 . S
H521 C518 0.928 . S
H522 C519 0.931 . S
H523 C499 0.930 . S
H524 C496 0.930 . S
H525 C505 0.930 . S
H526 C517 0.929 . S
H527 C520 0.930 . S
C528 C529 1.391 . S
C528 C530 1.394 . S
C528 H544 0.931 . S
C529 C528 1.391 . S
C529 C533 1.376 . S
C530 C528 1.394 . S
C530 C531 1.369 . S
C530 C534 1.531 . S
C531 C530 1.369 . S
C531 C532 1.410 . S
C531 C539 1.503 . S
C532 C531 1.410 . S
C532 C533 1.392 . S
C532 C535 1.511 . S
C533 C529 1.376 . S
C533 C532 1.392 . S
C533 H545 0.929 . S
C534 C530 1.531 . S
C534 H546 0.960 . S
C534 H547 0.962 . S
C534 H548 0.960 . S
C535 C532 1.511 . S
C535 H549 0.961 . S
C535 H550 0.961 . S
C535 H551 0.961 . S
C536 C537 1.370 . S
C536 C538 1.363 . S
C536 H552 0.931 . S
C537 C536 1.370 . S
C537 C541 1.408 . S
C538 C536 1.363 . S
C538 C539 1.370 . S
C538 C542 1.524 . S
C539 C531 1.503 . S
C539 C538 1.370 . S
C539 C540 1.403 . S
C540 C539 1.403 . S
C540 C541 1.404 . S
C540 C543 1.539 . S
C541 C537 1.408 . S
C541 C540 1.404 . S
C541 H553 0.930 . S
C542 C538 1.524 . S
C542 H554 0.956 . S
C542 H555 0.961 . S
C542 H556 0.961 . S
C543 C540 1.539 . S
C543 H557 0.958 . S
C543 H558 0.961 . S
C543 H559 0.960 . S
H544 C528 0.931 . S
H545 C533 0.929 . S
H546 C534 0.960 . S
H547 C534 0.962 . S
H548 C534 0.960 . S
H549 C535 0.961 . S
H550 C535 0.961 . S
H551 C535 0.961 . S
H552 C536 0.931 . S
H553 C541 0.930 . S
H554 C542 0.956 . S
H555 C542 0.961 . S
H556 C542 0.961 . S
H557 C543 0.958 . S
H558 C543 0.961 . S
H559 C543 0.960 . S
C560 C561 1.391 . S
C560 C562 1.394 . S
C560 H576 0.931 . S
C561 C560 1.391 . S
C561 C565 1.376 . S
C562 C560 1.394 . S
C562 C563 1.369 . S
C562 C566 1.531 . S
C563 C562 1.369 . S
C563 C564 1.410 . S
C563 C571 1.503 . S
C564 C563 1.410 . S
C564 C565 1.392 . S
C564 C567 1.511 . S
C565 C561 1.376 . S
C565 C564 1.392 . S
C565 H577 0.929 . S
C566 C562 1.531 . S
C566 H578 0.960 . S
C566 H579 0.962 . S
C566 H580 0.960 . S
C567 C564 1.511 . S
C567 H581 0.961 . S
C567 H582 0.961 . S
C567 H583 0.961 . S
C568 C569 1.370 . S
C568 C570 1.363 . S
C568 H584 0.931 . S
C569 C568 1.370 . S
C569 C573 1.408 . S
C570 C568 1.363 . S
C570 C571 1.370 . S
C570 C574 1.524 . S
C571 C563 1.503 . S
C571 C570 1.370 . S
C571 C572 1.403 . S
C572 C571 1.403 . S
C572 C573 1.404 . S
C572 C575 1.539 . S
C573 C569 1.408 . S
C573 C572 1.404 . S
C573 H585 0.930 . S
C574 C570 1.524 . S
C574 H586 0.956 . S
C574 H587 0.961 . S
C574 H588 0.961 . S
C575 C572 1.539 . S
C575 H589 0.958 . S
C575 H590 0.961 . S
C575 H591 0.960 . S
H576 C560 0.931 . S
H577 C565 0.929 . S
H578 C566 0.960 . S
H579 C566 0.962 . S
H580 C566 0.960 . S
H581 C567 0.961 . S
H582 C567 0.961 . S
H583 C567 0.961 . S
H584 C568 0.931 . S
H585 C573 0.930 . S
H586 C574 0.956 . S
H587 C574 0.961 . S
H588 C574 0.961 . S
H589 C575 0.958 . S
H590 C575 0.961 . S
H591 C575 0.960 . S
C592 C593 1.391 . S
C592 C594 1.394 . S
C592 H608 0.931 . S
C593 C592 1.391 . S
C593 C597 1.376 . S
C594 C592 1.394 . S
C594 C595 1.369 . S
C594 C598 1.531 . S
C595 C594 1.369 . S
C595 C596 1.410 . S
C595 C603 1.503 . S
C596 C595 1.410 . S
C596 C597 1.392 . S
C596 C599 1.511 . S
C597 C593 1.376 . S
C597 C596 1.392 . S
C597 H609 0.929 . S
C598 C594 1.531 . S
C598 H610 0.960 . S
C598 H611 0.962 . S
C598 H612 0.960 . S
C599 C596 1.511 . S
C599 H613 0.961 . S
C599 H614 0.961 . S
C599 H615 0.961 . S
C600 C601 1.370 . S
C600 C602 1.363 . S
C600 H616 0.931 . S
C601 C600 1.370 . S
C601 C605 1.408 . S
C602 C600 1.363 . S
C602 C603 1.370 . S
C602 C606 1.524 . S
C603 C595 1.503 . S
C603 C602 1.370 . S
C603 C604 1.403 . S
C604 C603 1.403 . S
C604 C605 1.404 . S
C604 C607 1.539 . S
C605 C601 1.408 . S
C605 C604 1.404 . S
C605 H617 0.930 . S
C606 C602 1.524 . S
C606 H618 0.956 . S
C606 H619 0.961 . S
C606 H620 0.961 . S
C607 C604 1.539 . S
C607 H621 0.958 . S
C607 H622 0.961 . S
C607 H623 0.960 . S
H608 C592 0.931 . S
H609 C597 0.929 . S
H610 C598 0.960 . S
H611 C598 0.962 . S
H612 C598 0.960 . S
H613 C599 0.961 . S
H614 C599 0.961 . S
H615 C599 0.961 . S
H616 C600 0.931 . S
H617 C605 0.930 . S
H618 C606 0.956 . S
H619 C606 0.961 . S
H620 C606 0.961 . S
H621 C607 0.958 . S
H622 C607 0.961 . S
H623 C607 0.960 . S
C624 C625 1.391 . S
C624 C626 1.394 . S
C624 H640 0.931 . S
C625 C624 1.391 . S
C625 C629 1.376 . S
C626 C624 1.394 . S
C626 C627 1.369 . S
C626 C630 1.531 . S
C627 C626 1.369 . S
C627 C628 1.410 . S
C627 C635 1.503 . S
C628 C627 1.410 . S
C628 C629 1.392 . S
C628 C631 1.511 . S
C629 C625 1.376 . S
C629 C628 1.392 . S
C629 H641 0.929 . S
C630 C626 1.531 . S
C630 H642 0.960 . S
C630 H643 0.962 . S
C630 H644 0.960 . S
C631 C628 1.511 . S
C631 H645 0.961 . S
C631 H646 0.961 . S
C631 H647 0.961 . S
C632 C633 1.370 . S
C632 C634 1.363 . S
C632 H648 0.931 . S
C633 C632 1.370 . S
C633 C637 1.408 . S
C634 C632 1.363 . S
C634 C635 1.370 . S
C634 C638 1.524 . S
C635 C627 1.503 . S
C635 C634 1.370 . S
C635 C636 1.403 . S
C636 C635 1.403 . S
C636 C637 1.404 . S
C636 C639 1.539 . S
C637 C633 1.408 . S
C637 C636 1.404 . S
C637 H649 0.930 . S
C638 C634 1.524 . S
C638 H650 0.956 . S
C638 H651 0.961 . S
C638 H652 0.961 . S
C639 C636 1.539 . S
C639 H653 0.958 . S
C639 H654 0.961 . S
C639 H655 0.960 . S
H640 C624 0.931 . S
H641 C629 0.929 . S
H642 C630 0.960 . S
H643 C630 0.962 . S
H644 C630 0.960 . S
H645 C631 0.961 . S
H646 C631 0.961 . S
H647 C631 0.961 . S
H648 C632 0.931 . S
H649 C637 0.930 . S
H650 C638 0.956 . S
H651 C638 0.961 . S
H652 C638 0.961 . S
H653 C639 0.958 . S
H654 C639 0.961 . S
H655 C639 0.960 . S
C656 C657 1.391 . S
C656 C658 1.394 . S
C656 H672 0.931 . S
C657 C656 1.391 . S
C657 C661 1.376 . S
C658 C656 1.394 . S
C658 C659 1.369 . S
C658 C662 1.531 . S
C659 C658 1.369 . S
C659 C660 1.410 . S
C659 C667 1.503 1_554 S
C660 C659 1.410 . S
C660 C661 1.392 . S
C660 C663 1.511 . S
C661 C657 1.376 . S
C661 C660 1.392 . S
C661 H673 0.929 . S
C662 C658 1.531 . S
C662 H674 0.960 . S
C662 H675 0.962 . S
C662 H676 0.960 . S
C663 C660 1.511 . S
C663 H677 0.961 . S
C663 H678 0.961 1_554 S
C663 H679 0.961 . S
C664 C665 1.370 . S
C664 C666 1.363 . S
C664 H680 0.931 . S
C665 C664 1.370 . S
C665 C669 1.408 . S
C666 C664 1.363 . S
C666 C667 1.370 . S
C666 C670 1.524 . S
C667 C659 1.503 1_556 S
C667 C666 1.370 . S
C667 C668 1.403 . S
C668 C667 1.403 . S
C668 C669 1.404 . S
C668 C671 1.539 1_556 S
C669 C665 1.408 . S
C669 C668 1.404 . S
C669 H681 0.930 . S
C670 C666 1.524 . S
C670 H682 0.956 . S
C670 H683 0.961 . S
C670 H684 0.961 . S
C671 C668 1.539 1_554 S
C671 H685 0.958 . S
C671 H686 1.000 . S
C671 H687 0.960 . S
H672 C656 0.931 . S
H673 C661 0.929 . S
H674 C662 0.960 . S
H675 C662 0.962 . S
H676 C662 0.960 . S
H677 C663 0.961 . S
H678 C663 0.961 1_556 S
H679 C663 0.961 . S
H680 C664 0.931 . S
H681 C669 0.930 . S
H682 C670 0.956 . S
H683 C670 0.961 . S
H684 C670 0.961 . S
H685 C671 0.958 . S
H686 C671 1.000 . S
H687 C671 0.960 . S
C688 C689 1.391 . S
C688 C690 1.394 . S
C688 H704 0.931 . S
C689 C688 1.391 . S
C689 C693 1.376 . S
C690 C688 1.394 . S
C690 C691 1.369 . S
C690 C694 1.531 . S
C691 C690 1.369 . S
C691 C692 1.410 . S
C691 C699 1.503 1_556 S
C692 C691 1.410 . S
C692 C693 1.392 . S
C692 C695 1.511 . S
C693 C689 1.376 . S
C693 C692 1.392 . S
C693 H705 0.929 . S
C694 C690 1.531 . S
C694 H706 0.960 . S
C694 H707 1.020 . S
C694 H708 0.960 . S
C695 C692 1.511 . S
C695 H709 0.961 . S
C695 H710 0.961 . S
C695 H711 0.961 . S
C696 C697 1.370 . S
C696 C698 1.363 . S
C696 H712 0.931 . S
C697 C696 1.370 . S
C697 C701 1.408 . S
C698 C696 1.363 . S
C698 C699 1.370 . S
C698 C702 1.524 . S
C699 C691 1.503 1_554 S
C699 C698 1.370 . S
C699 C700 1.403 . S
C700 C699 1.403 . S
C700 C701 1.404 . S
C700 C703 1.539 1_554 S
C701 C697 1.408 . S
C701 C700 1.404 . S
C701 H713 0.930 . S
C702 C698 1.524 . S
C702 H714 0.956 . S
C702 H715 0.961 . S
C702 H716 0.961 . S
C703 C700 1.539 1_556 S
C703 H717 0.958 . S
C703 H718 0.961 . S
C703 H719 0.960 . S
H704 C688 0.931 . S
H705 C693 0.929 . S
H706 C694 0.960 . S
H707 C694 1.020 . S
H708 C694 0.960 . S
H709 C695 0.961 . S
H710 C695 0.961 . S
H711 C695 0.961 . S
H712 C696 0.931 . S
H713 C701 0.930 . S
H714 C702 0.956 . S
H715 C702 0.961 . S
H716 C702 0.961 . S
H717 C703 0.958 . S
H718 C703 0.961 . S
H719 C703 0.960 . S
C720 C721 1.391 . S
C720 C722 1.394 . S
C720 H736 0.931 . S
C721 C720 1.391 . S
C721 C725 1.376 . S
C722 C720 1.394 . S
C722 C723 1.369 . S
C722 C726 1.531 1_556 S
C723 C722 1.369 . S
C723 C724 1.410 . S
C723 C731 1.503 1_556 S
C724 C723 1.410 . S
C724 C725 1.392 . S
C724 C727 1.511 . S
C725 C721 1.376 . S
C725 C724 1.392 . S
C725 H737 0.929 . S
C726 C722 1.531 1_554 S
C726 H738 0.960 . S
C726 H739 0.984 . S
C726 H740 0.960 . S
C727 C724 1.511 . S
C727 H741 0.961 . S
C727 H742 0.961 . S
C727 H743 0.961 . S
C728 C729 1.370 . S
C728 C730 1.363 . S
C728 H744 0.931 . S
C729 C728 1.370 . S
C729 C733 1.408 . S
C730 C728 1.363 . S
C730 C731 1.370 . S
C730 C734 1.524 1_554 S
C731 C723 1.503 1_554 S
C731 C730 1.370 . S
C731 C732 1.403 . S
C732 C731 1.403 . S
C732 C733 1.404 . S
C732 C735 1.539 . S
C733 C729 1.408 . S
C733 C732 1.404 . S
C733 H745 0.930 . S
C734 C730 1.524 1_556 S
C734 H746 0.956 . S
C734 H747 0.961 . S
C734 H748 0.961 . S
C735 C732 1.539 . S
C735 H749 0.958 . S
C735 H750 0.961 . S
C735 H751 0.960 . S
H736 C720 0.931 . S
H737 C725 0.929 . S
H738 C726 0.960 . S
H739 C726 0.984 . S
H740 C726 0.960 . S
H741 C727 0.961 . S
H742 C727 0.961 . S
H743 C727 0.961 . S
H744 C728 0.931 . S
H745 C733 0.930 . S
H746 C734 0.956 . S
H747 C734 0.961 . S
H748 C734 0.961 . S
H749 C735 0.958 . S
H750 C735 0.961 . S
H751 C735 0.960 . S
C752 C753 1.391 . S
C752 C754 1.394 . S
C752 H768 0.931 . S
C753 C752 1.391 . S
C753 C757 1.376 . S
C754 C752 1.394 . S
C754 C755 1.369 . S
C754 C758 1.531 1_554 S
C755 C754 1.369 . S
C755 C756 1.410 . S
C755 C763 1.503 1_554 S
C756 C755 1.410 . S
C756 C757 1.392 . S
C756 C759 1.511 . S
C757 C753 1.376 . S
C757 C756 1.392 . S
C757 H769 0.929 . S
C758 C754 1.531 1_556 S
C758 H770 0.960 . S
C758 H771 0.962 . S
C758 H772 0.960 1_556 S
C759 C756 1.511 . S
C759 H773 0.961 . S
C759 H774 0.961 . S
C759 H775 0.961 . S
C760 C761 1.370 . S
C760 C762 1.363 . S
C760 H776 0.931 . S
C761 C760 1.370 . S
C761 C765 1.408 . S
C762 C760 1.363 . S
C762 C763 1.370 . S
C762 C766 1.524 . S
C763 C755 1.503 1_556 S
C763 C762 1.370 . S
C763 C764 1.403 . S
C764 C763 1.403 . S
C764 C765 1.404 . S
C764 C767 1.539 1_556 S
C765 C761 1.408 . S
C765 C764 1.404 . S
C765 H777 0.930 . S
C766 C762 1.524 . S
C766 H778 0.956 . S
C766 H779 0.961 . S
C766 H780 0.961 . S
C767 C764 1.539 1_554 S
C767 H781 0.958 . S
C767 H782 0.961 . S
C767 H783 0.960 . S
H768 C752 0.931 . S
H769 C757 0.929 . S
H770 C758 0.960 . S
H771 C758 0.962 . S
H772 C758 0.960 1_554 S
H773 C759 0.961 . S
H774 C759 0.961 . S
H775 C759 0.961 . S
H776 C760 0.931 . S
H777 C765 0.930 . S
H778 C766 0.956 . S
H779 C766 0.961 . S
H780 C766 0.961 . S
H781 C767 0.958 . S
H782 C767 0.961 . S
H783 C767 0.960 . S
C784 C785 1.391 . S
C784 C786 1.394 . S
C784 H800 0.931 . S
C785 C784 1.391 . S
C785 C789 1.376 . S
C786 C784 1.394 . S
C786 C787 1.369 . S
C786 C790 1.531 . S
C787 C786 1.369 . S
C787 C788 1.410 . S
C787 C795 1.503 . S
C788 C787 1.410 . S
C788 C789 1.392 . S
C788 C791 1.511 . S
C789 C785 1.376 . S
C789 C788 1.392 . S
C789 H801 0.929 . S
C790 C786 1.531 . S
C790 H802 0.960 . S
C790 H803 0.962 . S
C790 H804 0.960 . S
C791 C788 1.511 . S
C791 H805 0.961 . S
C791 H806 0.961 . S
C791 H807 0.961 . S
C792 C793 1.370 . S
C792 C794 1.363 . S
C792 H808 0.931 . S
C793 C792 1.370 . S
C793 C797 1.408 . S
C794 C792 1.363 . S
C794 C795 1.370 . S
C794 C798 1.524 . S
C795 C787 1.503 . S
C795 C794 1.370 . S
C795 C796 1.403 . S
C796 C795 1.403 . S
C796 C797 1.404 . S
C796 C799 1.539 . S
C797 C793 1.408 . S
C797 C796 1.404 . S
C797 H809 0.930 . S
C798 C794 1.524 . S
C798 H810 0.956 . S
C798 H811 0.961 . S
C798 H812 0.961 . S
C799 C796 1.539 . S
C799 H813 0.958 . S
C799 H814 0.961 . S
C799 H815 0.960 . S
H800 C784 0.931 . S
H801 C789 0.929 . S
H802 C790 0.960 . S
H803 C790 0.962 . S
H804 C790 0.960 . S
H805 C791 0.961 . S
H806 C791 0.961 . S
H807 C791 0.961 . S
H808 C792 0.931 . S
H809 C797 0.930 . S
H810 C798 0.956 . S
H811 C798 0.961 . S
H812 C798 0.961 . S
H813 C799 0.958 . S
H814 C799 0.961 . S
H815 C799 0.960 . S
C816 C817 1.391 . S
C816 C818 1.394 . S
C816 H832 0.931 . S
C817 C816 1.391 . S
C817 C821 1.376 . S
C818 C816 1.394 . S
C818 C819 1.369 . S
C818 C822 1.531 . S
C819 C818 1.369 . S
C819 C820 1.410 . S
C819 C827 1.503 . S
C820 C819 1.410 . S
C820 C821 1.392 . S
C820 C823 1.511 . S
C821 C817 1.376 . S
C821 C820 1.392 . S
C821 H833 0.929 . S
C822 C818 1.531 . S
C822 H834 0.960 . S
C822 H835 0.962 . S
C822 H836 0.960 . S
C823 C820 1.511 . S
C823 H837 0.961 . S
C823 H838 0.961 . S
C823 H839 0.961 . S
C824 C825 1.370 . S
C824 C826 1.363 . S
C824 H840 0.931 . S
C825 C824 1.370 . S
C825 C829 1.408 . S
C826 C824 1.363 . S
C826 C827 1.370 . S
C826 C830 1.524 . S
C827 C819 1.503 . S
C827 C826 1.370 . S
C827 C828 1.403 . S
C828 C827 1.403 . S
C828 C829 1.404 . S
C828 C831 1.539 . S
C829 C825 1.408 . S
C829 C828 1.404 . S
C829 H841 0.930 . S
C830 C826 1.524 . S
C830 H842 0.956 . S
C830 H843 0.961 . S
C830 H844 0.961 . S
C831 C828 1.539 . S
C831 H845 0.958 . S
C831 H846 0.961 . S
C831 H847 0.960 . S
H832 C816 0.931 . S
H833 C821 0.929 . S
H834 C822 0.960 . S
H835 C822 0.962 . S
H836 C822 0.960 . S
H837 C823 0.961 . S
H838 C823 0.961 . S
H839 C823 0.961 . S
H840 C824 0.931 . S
H841 C829 0.930 . S
H842 C830 0.956 . S
H843 C830 0.961 . S
H844 C830 0.961 . S
H845 C831 0.958 . S
H846 C831 0.961 . S
H847 C831 0.960 . S
C848 C849 1.391 . S
C848 C850 1.394 . S
C848 H864 0.931 . S
C849 C848 1.391 . S
C849 C853 1.376 . S
C850 C848 1.394 . S
C850 C851 1.369 . S
C850 C854 1.531 . S
C851 C850 1.369 . S
C851 C852 1.410 . S
C851 C859 1.503 . S
C852 C851 1.410 . S
C852 C853 1.392 . S
C852 C855 1.511 . S
C853 C849 1.376 . S
C853 C852 1.392 . S
C853 H865 0.929 . S
C854 C850 1.531 . S
C854 H866 0.960 . S
C854 H867 0.962 . S
C854 H868 0.960 . S
C855 C852 1.511 . S
C855 H869 0.961 . S
C855 H870 0.961 . S
C855 H871 0.961 . S
C856 C857 1.370 . S
C856 C858 1.363 . S
C856 H872 0.931 . S
C857 C856 1.370 . S
C857 C861 1.408 . S
C858 C856 1.363 . S
C858 C859 1.370 . S
C858 C862 1.524 . S
C859 C851 1.503 . S
C859 C858 1.370 . S
C859 C860 1.403 . S
C860 C859 1.403 . S
C860 C861 1.404 . S
C860 C863 1.539 . S
C861 C857 1.408 . S
C861 C860 1.404 . S
C861 H873 0.930 . S
C862 C858 1.524 . S
C862 H874 0.956 . S
C862 H875 0.961 . S
C862 H876 0.961 . S
C863 C860 1.539 . S
C863 H877 0.958 . S
C863 H878 0.961 . S
C863 H879 0.960 . S
H864 C848 0.931 . S
H865 C853 0.929 . S
H866 C854 0.960 . S
H867 C854 0.962 . S
H868 C854 0.960 . S
H869 C855 0.961 . S
H870 C855 0.961 . S
H871 C855 0.961 . S
H872 C856 0.931 . S
H873 C861 0.930 . S
H874 C862 0.956 . S
H875 C862 0.961 . S
H876 C862 0.961 . S
H877 C863 0.958 . S
H878 C863 0.961 . S
H879 C863 0.960 . S
C880 C881 1.391 . S
C880 C882 1.394 . S
C880 H896 0.931 . S
C881 C880 1.391 . S
C881 C885 1.376 . S
C882 C880 1.394 . S
C882 C883 1.369 . S
C882 C886 1.531 . S
C883 C882 1.369 . S
C883 C884 1.410 . S
C883 C891 1.503 . S
C884 C883 1.410 . S
C884 C885 1.392 . S
C884 C887 1.511 . S
C885 C881 1.376 . S
C885 C884 1.392 . S
C885 H897 0.929 . S
C886 C882 1.531 . S
C886 H898 0.960 . S
C886 H899 0.962 . S
C886 H900 0.960 . S
C887 C884 1.511 . S
C887 H901 0.961 . S
C887 H902 0.961 . S
C887 H903 0.961 . S
C888 C889 1.370 . S
C888 C890 1.363 . S
C888 H904 0.931 . S
C889 C888 1.370 . S
C889 C893 1.408 . S
C890 C888 1.363 . S
C890 C891 1.370 . S
C890 C894 1.524 . S
C891 C883 1.503 . S
C891 C890 1.370 . S
C891 C892 1.403 . S
C892 C891 1.403 . S
C892 C893 1.404 . S
C892 C895 1.539 . S
C893 C889 1.408 . S
C893 C892 1.404 . S
C893 H905 0.930 . S
C894 C890 1.524 . S
C894 H906 0.956 . S
C894 H907 0.961 . S
C894 H908 0.961 . S
C895 C892 1.539 . S
C895 H909 0.958 . S
C895 H910 0.961 . S
C895 H911 0.960 . S
H896 C880 0.931 . S
H897 C885 0.929 . S
H898 C886 0.960 . S
H899 C886 0.962 . S
H900 C886 0.960 . S
H901 C887 0.961 . S
H902 C887 0.961 . S
H903 C887 0.961 . S
H904 C888 0.931 . S
H905 C893 0.930 . S
H906 C894 0.956 . S
H907 C894 0.961 . S
H908 C894 0.961 . S
H909 C895 0.958 . S
H910 C895 0.961 . S
H911 C895 0.960 . S
C912 C913 1.391 . S
C912 C914 1.394 . S
C912 H928 0.931 . S
C913 C912 1.391 . S
C913 C917 1.376 . S
C914 C912 1.394 . S
C914 C915 1.369 . S
C914 C918 1.531 . S
C915 C914 1.369 . S
C915 C916 1.410 . S
C915 C923 1.503 . S
C916 C915 1.410 . S
C916 C917 1.392 . S
C916 C919 1.511 . S
C917 C913 1.376 . S
C917 C916 1.392 . S
C917 H929 0.929 . S
C918 C914 1.531 . S
C918 H930 0.960 . S
C918 H931 0.962 . S
C918 H932 0.960 . S
C919 C916 1.511 . S
C919 H933 0.961 . S
C919 H934 0.961 . S
C919 H935 0.961 . S
C920 C921 1.370 . S
C920 C922 1.363 . S
C920 H936 0.931 . S
C921 C920 1.370 . S
C921 C925 1.408 . S
C922 C920 1.363 . S
C922 C923 1.370 . S
C922 C926 1.524 . S
C923 C915 1.503 . S
C923 C922 1.370 . S
C923 C924 1.403 . S
C924 C923 1.403 . S
C924 C925 1.404 . S
C924 C927 1.539 . S
C925 C921 1.408 . S
C925 C924 1.404 . S
C925 H937 0.930 . S
C926 C922 1.524 . S
C926 H938 0.956 . S
C926 H939 0.961 . S
C926 H940 0.961 . S
C927 C924 1.539 . S
C927 H941 0.958 . S
C927 H942 0.961 . S
C927 H943 0.960 . S
H928 C912 0.931 . S
H929 C917 0.929 . S
H930 C918 0.960 . S
H931 C918 0.962 . S
H932 C918 0.960 . S
H933 C919 0.961 . S
H934 C919 0.961 . S
H935 C919 0.961 . S
H936 C920 0.931 . S
H937 C925 0.930 . S
H938 C926 0.956 . S
H939 C926 0.961 . S
H940 C926 0.961 . S
H941 C927 0.958 . S
H942 C927 0.961 . S
H943 C927 0.960 . S
C944 C945 1.391 . S
C944 C946 1.394 . S
C944 H960 0.931 . S
C945 C944 1.391 . S
C945 C949 1.376 . S
C946 C944 1.394 . S
C946 C947 1.369 . S
C946 C950 1.531 . S
C947 C946 1.369 . S
C947 C948 1.410 . S
C947 C955 1.503 . S
C948 C947 1.410 . S
C948 C949 1.392 . S
C948 C951 1.511 . S
C949 C945 1.376 . S
C949 C948 1.392 . S
C949 H961 0.929 . S
C950 C946 1.531 . S
C950 H962 0.960 . S
C950 H963 0.962 . S
C950 H964 0.960 . S
C951 C948 1.511 . S
C951 H965 0.961 . S
C951 H966 0.961 . S
C951 H967 0.961 . S
C952 C953 1.370 . S
C952 C954 1.363 . S
C952 H968 0.931 . S
C953 C952 1.370 . S
C953 C957 1.408 . S
C954 C952 1.363 . S
C954 C955 1.370 . S
C954 C958 1.524 . S
C955 C947 1.503 . S
C955 C954 1.370 . S
C955 C956 1.403 . S
C956 C955 1.403 . S
C956 C957 1.404 . S
C956 C959 1.539 . S
C957 C953 1.408 . S
C957 C956 1.404 . S
C957 H969 0.930 . S
C958 C954 1.524 . S
C958 H970 0.956 . S
C958 H971 0.961 . S
C958 H972 0.961 . S
C959 C956 1.539 . S
C959 H973 0.958 . S
C959 H974 0.961 . S
C959 H975 0.960 . S
H960 C944 0.931 . S
H961 C949 0.929 . S
H962 C950 0.960 . S
H963 C950 0.962 . S
H964 C950 0.960 . S
H965 C951 0.961 . S
H966 C951 0.961 . S
H967 C951 0.961 . S
H968 C952 0.931 . S
H969 C957 0.930 . S
H970 C958 0.956 . S
H971 C958 0.961 . S
H972 C958 0.961 . S
H973 C959 0.958 . S
H974 C959 0.961 . S
H975 C959 0.960 . S
C976 C977 1.391 . S
C976 C978 1.394 . S
C976 H992 0.931 . S
C977 C976 1.391 . S
C977 C981 1.376 . S
C978 C976 1.394 . S
C978 C979 1.369 . S
C978 C982 1.531 . S
C979 C978 1.369 . S
C979 C980 1.410 . S
C979 C987 1.503 . S
C980 C979 1.410 . S
C980 C981 1.392 . S
C980 C983 1.511 . S
C981 C977 1.376 . S
C981 C980 1.392 . S
C981 H993 0.929 . S
C982 C978 1.531 . S
C982 H994 0.960 . S
C982 H995 0.962 . S
C982 H996 0.960 . S
C983 C980 1.511 . S
C983 H997 0.961 . S
C983 H998 0.961 . S
C983 H999 0.961 . S
C984 C985 1.370 . S
C984 C986 1.363 . S
C984 H1000 0.931 . S
C985 C984 1.370 . S
C985 C989 1.408 . S
C986 C984 1.363 . S
C986 C987 1.370 . S
C986 C990 1.524 . S
C987 C979 1.503 . S
C987 C986 1.370 . S
C987 C988 1.403 . S
C988 C987 1.403 . S
C988 C989 1.404 . S
C988 C991 1.539 . S
C989 C985 1.408 . S
C989 C988 1.404 . S
C989 H1001 0.930 . S
C990 C986 1.524 . S
C990 H1002 0.956 . S
C990 H1003 0.961 . S
C990 H1004 0.961 . S
C991 C988 1.539 . S
C991 H1005 0.958 . S
C991 H1006 0.961 . S
C991 H1007 0.960 . S
H992 C976 0.931 . S
H993 C981 0.929 . S
H994 C982 0.960 . S
H995 C982 0.962 . S
H996 C982 0.960 . S
H997 C983 0.961 . S
H998 C983 0.961 . S
H999 C983 0.961 . S
H1000 C984 0.931 . S
H1001 C989 0.930 . S
H1002 C990 0.956 . S
H1003 C990 0.961 . S
H1004 C990 0.961 . S
H1005 C991 0.958 . S
H1006 C991 0.961 . S
H1007 C991 0.960 . S
C1008 C1009 1.391 . S
C1008 C1010 1.394 . S
C1008 H1024 0.931 . S
C1009 C1008 1.391 . S
C1009 C1013 1.376 . S
C1010 C1008 1.394 . S
C1010 C1011 1.369 . S
C1010 C1014 1.531 . S
C1011 C1010 1.369 . S
C1011 C1012 1.410 . S
C1011 C1019 1.503 . S
C1012 C1011 1.410 . S
C1012 C1013 1.392 . S
C1012 C1015 1.511 . S
C1013 C1009 1.376 . S
C1013 C1012 1.392 . S
C1013 H1025 0.929 . S
C1014 C1010 1.531 . S
C1014 H1026 0.960 . S
C1014 H1027 0.962 . S
C1014 H1028 0.960 . S
C1015 C1012 1.511 . S
C1015 H1029 0.961 . S
C1015 H1030 0.961 . S
C1015 H1031 0.961 . S
C1016 C1017 1.370 . S
C1016 C1018 1.363 . S
C1016 H1032 0.931 . S
C1017 C1016 1.370 . S
C1017 C1021 1.408 . S
C1018 C1016 1.363 . S
C1018 C1019 1.370 . S
C1018 C1022 1.524 . S
C1019 C1011 1.503 . S
C1019 C1018 1.370 . S
C1019 C1020 1.403 . S
C1020 C1019 1.403 . S
C1020 C1021 1.404 . S
C1020 C1023 1.539 . S
C1021 C1017 1.408 . S
C1021 C1020 1.404 . S
C1021 H1033 0.930 . S
C1022 C1018 1.524 . S
C1022 H1034 0.956 . S
C1022 H1035 0.961 . S
C1022 H1036 0.961 . S
C1023 C1020 1.539 . S
C1023 H1037 0.958 . S
C1023 H1038 0.961 . S
C1023 H1039 0.960 . S
H1024 C1008 0.931 . S
H1025 C1013 0.929 . S
H1026 C1014 0.960 . S
H1027 C1014 0.962 . S
H1028 C1014 0.960 . S
H1029 C1015 0.961 . S
H1030 C1015 0.961 . S
H1031 C1015 0.961 . S
H1032 C1016 0.931 . S
H1033 C1021 0.930 . S
H1034 C1022 0.956 . S
H1035 C1022 0.961 . S
H1036 C1022 0.961 . S
H1037 C1023 0.958 . S
H1038 C1023 0.961 . S
H1039 C1023 0.960 . S
C1040 C1041 1.391 . S
C1040 C1042 1.394 . S
C1040 H1056 0.931 . S
C1041 C1040 1.391 . S
C1041 C1045 1.376 1_455 S
C1042 C1040 1.394 . S
C1042 C1043 1.369 1_455 S
C1042 C1046 1.531 . S
C1043 C1042 1.369 1_655 S
C1043 C1044 1.410 . S
C1043 C1051 1.503 1_545 S
C1044 C1043 1.410 . S
C1044 C1045 1.392 . S
C1044 C1047 1.511 . S
C1045 C1041 1.376 1_655 S
C1045 C1044 1.392 . S
C1045 H1057 0.929 . S
C1046 C1042 1.531 . S
C1046 H1058 0.960 1_545 S
C1046 H1059 0.962 . S
C1046 H1060 0.960 . S
C1047 C1044 1.511 . S
C1047 H1061 0.961 . S
C1047 H1062 0.961 1_545 S
C1047 H1063 0.961 . S
C1048 C1049 1.370 1_455 S
C1048 C1050 1.363 . S
C1048 H1064 0.931 . S
C1049 C1048 1.370 1_655 S
C1049 C1053 1.408 . S
C1050 C1048 1.363 . S
C1050 C1051 1.370 1_455 S
C1050 C1054 1.524 . S
C1051 C1043 1.503 1_565 S
C1051 C1050 1.370 1_655 S
C1051 C1052 1.403 . S
C1052 C1051 1.403 . S
C1052 C1053 1.404 . S
C1052 C1055 1.539 . S
C1053 C1049 1.408 . S
C1053 C1052 1.404 . S
C1053 H1065 0.930 . S
C1054 C1050 1.524 . S
C1054 H1066 0.956 . S
C1054 H1067 0.955 1_565 S
C1054 H1068 0.961 . S
C1055 C1052 1.539 . S
C1055 H1069 0.958 . S
C1055 H1070 0.961 . S
C1055 H1071 0.960 1_565 S
H1056 C1040 0.931 . S
H1057 C1045 0.929 . S
H1058 C1046 0.960 1_565 S
H1059 C1046 0.962 . S
H1060 C1046 0.960 . S
H1061 C1047 0.961 . S
H1062 C1047 0.961 1_565 S
H1063 C1047 0.961 . S
H1064 C1048 0.931 . S
H1065 C1053 0.930 . S
H1066 C1054 0.956 . S
H1067 C1054 0.955 1_545 S
H1068 C1054 0.961 . S
H1069 C1055 0.958 . S
H1070 C1055 0.961 . S
H1071 C1055 0.960 1_545 S
C1072 C1073 1.391 . S
C1072 C1074 1.394 . S
C1072 H1088 0.931 . S
C1073 C1072 1.391 . S
C1073 C1077 1.376 1_565 S
C1074 C1072 1.394 . S
C1074 C1075 1.369 . S
C1074 C1078 1.531 . S
C1075 C1074 1.369 . S
C1075 C1076 1.410 1_565 S
C1075 C1083 1.502 1_465 S
C1076 C1075 1.410 1_545 S
C1076 C1077 1.392 . S
C1076 C1079 1.511 . S
C1077 C1073 1.376 1_545 S
C1077 C1076 1.392 . S
C1077 H1089 0.929 . S
C1078 C1074 1.531 . S
C1078 H1090 0.960 1_455 S
C1078 H1091 0.962 . S
C1078 H1092 0.960 . S
C1079 C1076 1.511 . S
C1079 H1093 0.961 . S
C1079 H1094 0.938 1_455 S
C1079 H1095 0.961 . S
C1080 C1081 1.370 . S
C1080 C1082 1.363 . S
C1080 H1096 0.931 . S
C1081 C1080 1.370 . S
C1081 C1085 1.408 . S
C1082 C1080 1.363 . S
C1082 C1083 1.371 . S
C1082 C1086 1.524 . S
C1083 C1075 1.502 1_645 S
C1083 C1082 1.371 . S
C1083 C1084 1.404 . S
C1084 C1083 1.404 . S
C1084 C1085 1.404 . S
C1084 C1087 1.539 . S
C1085 C1081 1.408 . S
C1085 C1084 1.404 . S
C1085 H1097 0.930 . S
C1086 C1082 1.524 . S
C1086 H1098 0.958 1_545 S
C1086 H1099 0.958 1_655 S
C1086 H1100 0.960 . S
C1087 C1084 1.539 . S
C1087 H1101 0.958 1_545 S
C1087 H1102 0.961 . S
C1087 H1103 0.956 1_655 S
H1088 C1072 0.931 . S
H1089 C1077 0.929 . S
H1090 C1078 0.960 1_655 S
H1091 C1078 0.962 . S
H1092 C1078 0.960 . S
H1093 C1079 0.961 . S
H1094 C1079 0.938 1_655 S
H1095 C1079 0.961 . S
H1096 C1080 0.931 . S
H1097 C1085 0.930 . S
H1098 C1086 0.958 1_565 S
H1099 C1086 0.958 1_455 S
H1100 C1086 0.960 . S
H1101 C1087 0.958 1_565 S
H1102 C1087 0.961 . S
H1103 C1087 0.956 1_455 S
C1104 C1105 1.391 . S
C1104 C1106 1.394 . S
C1104 H1120 0.931 . S
C1105 C1104 1.391 . S
C1105 C1109 1.376 1_655 S
C1106 C1104 1.394 . S
C1106 C1107 1.369 1_655 S
C1106 C1110 1.531 . S
C1107 C1106 1.369 1_455 S
C1107 C1108 1.410 . S
C1107 C1115 1.503 . S
C1108 C1107 1.410 . S
C1108 C1109 1.392 . S
C1108 C1111 1.511 . S
C1109 C1105 1.376 1_455 S
C1109 C1108 1.392 . S
C1109 H1121 0.929 . S
C1110 C1106 1.531 . S
C1110 H1122 0.960 . S
C1110 H1123 0.962 . S
C1110 H1124 0.960 . S
C1111 C1108 1.511 . S
C1111 H1125 0.961 . S
C1111 H1126 0.961 . S
C1111 H1127 0.961 . S
C1112 C1113 1.370 1_655 S
C1112 C1114 1.363 . S
C1112 H1128 0.931 . S
C1113 C1112 1.370 1_455 S
C1113 C1117 1.408 . S
C1114 C1112 1.363 . S
C1114 C1115 1.370 1_655 S
C1114 C1118 1.524 . S
C1115 C1107 1.503 . S
C1115 C1114 1.370 1_455 S
C1115 C1116 1.403 . S
C1116 C1115 1.403 . S
C1116 C1117 1.404 . S
C1116 C1119 1.539 . S
C1117 C1113 1.408 . S
C1117 C1116 1.404 . S
C1117 H1129 0.930 . S
C1118 C1114 1.524 . S
C1118 H1130 0.956 . S
C1118 H1131 0.961 . S
C1118 H1132 0.961 . S
C1119 C1116 1.539 . S
C1119 H1133 0.958 . S
C1119 H1134 0.961 . S
C1119 H1135 0.960 . S
H1120 C1104 0.931 . S
H1121 C1109 0.929 . S
H1122 C1110 0.960 . S
H1123 C1110 0.962 . S
H1124 C1110 0.960 . S
H1125 C1111 0.961 . S
H1126 C1111 0.961 . S
H1127 C1111 0.961 . S
H1128 C1112 0.931 . S
H1129 C1117 0.930 . S
H1130 C1118 0.956 . S
H1131 C1118 0.961 . S
H1132 C1118 0.961 . S
H1133 C1119 0.958 . S
H1134 C1119 0.961 . S
H1135 C1119 0.960 . S
C1136 C1137 1.391 . S
C1136 C1138 1.394 . S
C1136 H1152 0.931 . S
C1137 C1136 1.391 . S
C1137 C1141 1.376 1_545 S
C1138 C1136 1.394 . S
C1138 C1139 1.369 1_545 S
C1138 C1142 1.531 . S
C1139 C1138 1.369 1_565 S
C1139 C1140 1.410 . S
C1139 C1147 1.503 . S
C1140 C1139 1.410 . S
C1140 C1141 1.392 . S
C1140 C1143 1.511 . S
C1141 C1137 1.376 1_565 S
C1141 C1140 1.392 . S
C1141 H1153 0.929 . S
C1142 C1138 1.531 . S
C1142 H1154 0.960 . S
C1142 H1155 0.962 . S
C1142 H1156 0.960 . S
C1143 C1140 1.511 . S
C1143 H1157 0.961 . S
C1143 H1158 0.961 . S
C1143 H1159 0.961 . S
C1144 C1145 1.370 1_545 S
C1144 C1146 1.363 . S
C1144 H1160 0.931 . S
C1145 C1144 1.370 1_565 S
C1145 C1149 1.408 . S
C1146 C1144 1.363 . S
C1146 C1147 1.370 1_545 S
C1146 C1150 1.524 . S
C1147 C1139 1.503 . S
C1147 C1146 1.370 1_565 S
C1147 C1148 1.403 . S
C1148 C1147 1.403 . S
C1148 C1149 1.404 . S
C1148 C1151 1.539 . S
C1149 C1145 1.408 . S
C1149 C1148 1.404 . S
C1149 H1161 0.930 . S
C1150 C1146 1.524 . S
C1150 H1162 0.956 . S
C1150 H1163 0.961 1_545 S
C1150 H1164 0.961 . S
C1151 C1148 1.539 . S
C1151 H1165 0.958 . S
C1151 H1166 0.961 . S
C1151 H1167 0.960 . S
H1152 C1136 0.931 . S
H1153 C1141 0.929 . S
H1154 C1142 0.960 . S
H1155 C1142 0.962 . S
H1156 C1142 0.960 . S
H1157 C1143 0.961 . S
H1158 C1143 0.961 . S
H1159 C1143 0.961 . S
H1160 C1144 0.931 . S
H1161 C1149 0.930 . S
H1162 C1150 0.956 . S
H1163 C1150 0.961 1_565 S
H1164 C1150 0.961 . S
H1165 C1151 0.958 . S
H1166 C1151 0.961 . S
H1167 C1151 0.960 . S
C1168 C1169 1.391 . S
C1168 C1170 1.394 . S
C1168 H1184 0.931 . S
C1169 C1168 1.391 . S
C1169 C1173 1.376 . S
C1170 C1168 1.394 . S
C1170 C1171 1.369 . S
C1170 C1174 1.531 . S
C1171 C1170 1.369 . S
C1171 C1172 1.410 . S
C1171 C1179 1.503 . S
C1172 C1171 1.410 . S
C1172 C1173 1.392 . S
C1172 C1175 1.511 . S
C1173 C1169 1.376 . S
C1173 C1172 1.392 . S
C1173 H1185 0.929 . S
C1174 C1170 1.531 . S
C1174 H1186 0.960 . S
C1174 H1187 0.962 . S
C1174 H1188 0.960 . S
C1175 C1172 1.511 . S
C1175 H1189 0.961 . S
C1175 H1190 0.961 . S
C1175 H1191 0.961 . S
C1176 C1177 1.370 . S
C1176 C1178 1.363 . S
C1176 H1192 0.931 . S
C1177 C1176 1.370 . S
C1177 C1181 1.408 . S
C1178 C1176 1.363 . S
C1178 C1179 1.370 . S
C1178 C1182 1.524 . S
C1179 C1171 1.503 . S
C1179 C1178 1.370 . S
C1179 C1180 1.403 . S
C1180 C1179 1.403 . S
C1180 C1181 1.404 . S
C1180 C1183 1.539 . S
C1181 C1177 1.408 . S
C1181 C1180 1.404 . S
C1181 H1193 0.930 . S
C1182 C1178 1.524 . S
C1182 H1194 0.956 . S
C1182 H1195 0.961 . S
C1182 H1196 0.961 . S
C1183 C1180 1.539 . S
C1183 H1197 0.958 . S
C1183 H1198 0.961 . S
C1183 H1199 0.960 . S
H1184 C1168 0.931 . S
H1185 C1173 0.929 . S
H1186 C1174 0.960 . S
H1187 C1174 0.962 . S
H1188 C1174 0.960 . S
H1189 C1175 0.961 . S
H1190 C1175 0.961 . S
H1191 C1175 0.961 . S
H1192 C1176 0.931 . S
H1193 C1181 0.930 . S
H1194 C1182 0.956 . S
H1195 C1182 0.961 . S
H1196 C1182 0.961 . S
H1197 C1183 0.958 . S
H1198 C1183 0.961 . S
H1199 C1183 0.960 . S
C1200 C1201 1.391 . S
C1200 C1202 1.394 . S
C1200 H1216 0.931 . S
C1201 C1200 1.391 . S
C1201 C1205 1.376 . S
C1202 C1200 1.394 . S
C1202 C1203 1.369 . S
C1202 C1206 1.531 . S
C1203 C1202 1.369 . S
C1203 C1204 1.410 . S
C1203 C1211 1.503 . S
C1204 C1203 1.410 . S
C1204 C1205 1.392 . S
C1204 C1207 1.511 . S
C1205 C1201 1.376 . S
C1205 C1204 1.392 . S
C1205 H1217 0.929 . S
C1206 C1202 1.531 . S
C1206 H1218 0.960 . S
C1206 H1219 0.962 . S
C1206 H1220 0.960 . S
C1207 C1204 1.511 . S
C1207 H1221 0.961 . S
C1207 H1222 0.961 . S
C1207 H1223 0.961 . S
C1208 C1209 1.370 . S
C1208 C1210 1.363 . S
C1208 H1224 0.931 . S
C1209 C1208 1.370 . S
C1209 C1213 1.408 . S
C1210 C1208 1.363 . S
C1210 C1211 1.370 . S
C1210 C1214 1.524 . S
C1211 C1203 1.503 . S
C1211 C1210 1.370 . S
C1211 C1212 1.403 . S
C1212 C1211 1.403 . S
C1212 C1213 1.404 . S
C1212 C1215 1.539 . S
C1213 C1209 1.408 . S
C1213 C1212 1.404 . S
C1213 H1225 0.930 . S
C1214 C1210 1.524 . S
C1214 H1226 0.956 . S
C1214 H1227 0.961 . S
C1214 H1228 0.961 . S
C1215 C1212 1.539 . S
C1215 H1229 0.958 . S
C1215 H1230 0.961 . S
C1215 H1231 0.960 . S
H1216 C1200 0.931 . S
H1217 C1205 0.929 . S
H1218 C1206 0.960 . S
H1219 C1206 0.962 . S
H1220 C1206 0.960 . S
H1221 C1207 0.961 . S
H1222 C1207 0.961 . S
H1223 C1207 0.961 . S
H1224 C1208 0.931 . S
H1225 C1213 0.930 . S
H1226 C1214 0.956 . S
H1227 C1214 0.961 . S
H1228 C1214 0.961 . S
H1229 C1215 0.958 . S
H1230 C1215 0.961 . S
H1231 C1215 0.960 . S
C1232 C1233 1.391 . S
C1232 C1234 1.394 . S
C1232 H1248 0.931 . S
C1233 C1232 1.391 . S
C1233 C1237 1.376 . S
C1234 C1232 1.394 . S
C1234 C1235 1.369 . S
C1234 C1238 1.531 . S
C1235 C1234 1.369 . S
C1235 C1236 1.410 . S
C1235 C1243 1.503 1_565 S
C1236 C1235 1.410 . S
C1236 C1237 1.392 . S
C1236 C1239 1.511 . S
C1237 C1233 1.376 . S
C1237 C1236 1.392 . S
C1237 H1249 0.929 . S
C1238 C1234 1.531 . S
C1238 H1250 0.960 1_565 S
C1238 H1251 0.962 . S
C1238 H1252 0.960 . S
C1239 C1236 1.511 . S
C1239 H1253 0.961 . S
C1239 H1254 0.961 1_565 S
C1239 H1255 0.961 . S
C1240 C1241 1.370 . S
C1240 C1242 1.363 . S
C1240 H1256 0.931 . S
C1241 C1240 1.370 . S
C1241 C1245 1.408 . S
C1242 C1240 1.363 . S
C1242 C1243 1.370 . S
C1242 C1246 1.524 . S
C1243 C1235 1.503 1_545 S
C1243 C1242 1.370 . S
C1243 C1244 1.403 . S
C1244 C1243 1.403 . S
C1244 C1245 1.404 . S
C1244 C1247 1.539 . S
C1245 C1241 1.408 . S
C1245 C1244 1.404 . S
C1245 H1257 0.930 . S
C1246 C1242 1.524 . S
C1246 H1258 0.956 . S
C1246 H1259 0.961 1_545 S
C1246 H1260 0.961 . S
C1247 C1244 1.539 . S
C1247 H1261 0.958 . S
C1247 H1262 0.961 . S
C1247 H1263 0.960 1_545 S
H1248 C1232 0.931 . S
H1249 C1237 0.929 . S
H1250 C1238 0.960 1_545 S
H1251 C1238 0.962 . S
H1252 C1238 0.960 . S
H1253 C1239 0.961 . S
H1254 C1239 0.961 1_545 S
H1255 C1239 0.961 . S
H1256 C1240 0.931 . S
H1257 C1245 0.930 . S
H1258 C1246 0.956 . S
H1259 C1246 0.961 1_565 S
H1260 C1246 0.961 . S
H1261 C1247 0.958 . S
H1262 C1247 0.961 . S
H1263 C1247 0.960 1_565 S
C1264 C1265 1.391 . S
C1264 C1266 1.394 . S
C1264 H1280 0.931 . S
C1265 C1264 1.391 . S
C1265 C1269 1.376 . S
C1266 C1264 1.394 . S
C1266 C1267 1.369 . S
C1266 C1270 1.531 . S
C1267 C1266 1.369 . S
C1267 C1268 1.410 . S
C1267 C1275 1.503 1_455 S
C1268 C1267 1.410 . S
C1268 C1269 1.392 . S
C1268 C1271 1.511 . S
C1269 C1265 1.376 . S
C1269 C1268 1.392 . S
C1269 H1281 0.929 . S
C1270 C1266 1.531 . S
C1270 H1282 0.960 1_455 S
C1270 H1283 0.962 . S
C1270 H1284 0.960 . S
C1271 C1268 1.511 . S
C1271 H1285 0.961 . S
C1271 H1286 0.961 1_455 S
C1271 H1287 0.961 . S
C1272 C1273 1.370 . S
C1272 C1274 1.363 . S
C1272 H1288 0.931 . S
C1273 C1272 1.370 . S
C1273 C1277 1.408 . S
C1274 C1272 1.363 . S
C1274 C1275 1.370 . S
C1274 C1278 1.524 . S
C1275 C1267 1.503 1_655 S
C1275 C1274 1.370 . S
C1275 C1276 1.403 . S
C1276 C1275 1.403 . S
C1276 C1277 1.404 . S
C1276 C1279 1.539 . S
C1277 C1273 1.408 . S
C1277 C1276 1.404 . S
C1277 H1289 0.930 . S
C1278 C1274 1.524 . S
C1278 H1290 0.956 1_655 S
C1278 H1291 0.961 1_655 S
C1278 H1292 0.961 . S
C1279 C1276 1.539 . S
C1279 H1293 0.958 . S
C1279 H1294 0.961 . S
C1279 H1295 0.960 . S
H1280 C1264 0.931 . S
H1281 C1269 0.929 . S
H1282 C1270 0.960 1_655 S
H1283 C1270 0.962 . S
H1284 C1270 0.960 . S
H1285 C1271 0.961 . S
H1286 C1271 0.961 1_655 S
H1287 C1271 0.961 . S
H1288 C1272 0.931 . S
H1289 C1277 0.930 . S
H1290 C1278 0.956 1_455 S
H1291 C1278 0.961 1_455 S
H1292 C1278 0.961 . S
H1293 C1279 0.958 . S
H1294 C1279 0.961 . S
H1295 C1279 0.960 . S
C1296 C1297 1.391 . S
C1296 C1298 1.394 . S
C1296 H1312 0.931 . S
C1297 C1296 1.391 . S
C1297 C1301 1.376 1_455 S
C1298 C1296 1.394 . S
C1298 C1299 1.369 1_455 S
C1298 C1302 1.531 . S
C1299 C1298 1.369 1_655 S
C1299 C1300 1.410 . S
C1299 C1307 1.503 . S
C1300 C1299 1.410 . S
C1300 C1301 1.392 . S
C1300 C1303 1.511 . S
C1301 C1297 1.376 1_655 S
C1301 C1300 1.392 . S
C1301 H1313 0.929 . S
C1302 C1298 1.531 . S
C1302 H1314 0.960 . S
C1302 H1315 0.962 . S
C1302 H1316 0.960 . S
C1303 C1300 1.511 . S
C1303 H1317 0.961 . S
C1303 H1318 0.961 . S
C1303 H1319 0.961 . S
C1304 C1305 1.370 1_455 S
C1304 C1306 1.363 . S
C1304 H1320 0.931 . S
C1305 C1304 1.370 1_655 S
C1305 C1309 1.408 . S
C1306 C1304 1.363 . S
C1306 C1307 1.370 1_455 S
C1306 C1310 1.524 . S
C1307 C1299 1.503 . S
C1307 C1306 1.370 1_655 S
C1307 C1308 1.403 . S
C1308 C1307 1.403 . S
C1308 C1309 1.404 . S
C1308 C1311 1.539 . S
C1309 C1305 1.408 . S
C1309 C1308 1.404 . S
C1309 H1321 0.930 . S
C1310 C1306 1.524 . S
C1310 H1322 0.956 . S
C1310 H1323 0.961 . S
C1310 H1324 0.961 . S
C1311 C1308 1.539 . S
C1311 H1325 0.958 . S
C1311 H1326 0.961 . S
C1311 H1327 0.960 . S
H1312 C1296 0.931 . S
H1313 C1301 0.929 . S
H1314 C1302 0.960 . S
H1315 C1302 0.962 . S
H1316 C1302 0.960 . S
H1317 C1303 0.961 . S
H1318 C1303 0.961 . S
H1319 C1303 0.961 . S
H1320 C1304 0.931 . S
H1321 C1309 0.930 . S
H1322 C1310 0.956 . S
H1323 C1310 0.961 . S
H1324 C1310 0.961 . S
H1325 C1311 0.958 . S
H1326 C1311 0.961 . S
H1327 C1311 0.960 . S
C1328 C1329 1.391 1_565 S
C1328 C1330 1.394 . S
C1328 H1344 0.931 . S
C1329 C1328 1.391 1_545 S
C1329 C1333 1.376 . S
C1330 C1328 1.394 . S
C1330 C1331 1.369 . S
C1330 C1334 1.531 . S
C1331 C1330 1.369 . S
C1331 C1332 1.410 1_565 S
C1331 C1339 1.503 . S
C1332 C1331 1.410 1_545 S
C1332 C1333 1.392 . S
C1332 C1335 1.511 . S
C1333 C1329 1.376 . S
C1333 C1332 1.392 . S
C1333 H1345 0.929 . S
C1334 C1330 1.531 . S
C1334 H1346 0.960 . S
C1334 H1347 0.962 . S
C1334 H1348 0.960 . S
C1335 C1332 1.511 . S
C1335 H1349 0.961 . S
C1335 H1350 0.961 . S
C1335 H1351 0.961 . S
C1336 C1337 1.371 . S
C1336 C1338 1.363 1_565 S
C1336 H1352 0.931 1_565 S
C1337 C1336 1.371 . S
C1337 C1341 1.408 . S
C1338 C1336 1.363 1_545 S
C1338 C1339 1.370 1_545 S
C1338 C1342 1.524 . S
C1339 C1331 1.503 . S
C1339 C1338 1.370 1_565 S
C1339 C1340 1.403 . S
C1340 C1339 1.403 . S
C1340 C1341 1.404 . S
C1340 C1343 1.539 . S
C1341 C1337 1.408 . S
C1341 C1340 1.404 . S
C1341 H1353 0.930 . S
C1342 C1338 1.524 . S
C1342 H1354 0.956 . S
C1342 H1355 0.961 . S
C1342 H1356 0.961 . S
C1343 C1340 1.539 . S
C1343 H1357 0.958 . S
C1343 H1358 0.961 . S
C1343 H1359 0.960 . S
H1344 C1328 0.931 . S
H1345 C1333 0.929 . S
H1346 C1334 0.960 . S
H1347 C1334 0.962 . S
H1348 C1334 0.960 . S
H1349 C1335 0.961 . S
H1350 C1335 0.961 . S
H1351 C1335 0.961 . S
H1352 C1336 0.931 1_545 S
H1353 C1341 0.930 . S
H1354 C1342 0.956 . S
H1355 C1342 0.961 . S
H1356 C1342 0.961 . S
H1357 C1343 0.958 . S
H1358 C1343 0.961 . S
H1359 C1343 0.960 . S
C1360 C1361 1.391 . S
C1360 C1362 1.394 . S
C1360 H1376 0.931 . S
C1361 C1360 1.391 . S
C1361 C1365 1.376 . S
C1362 C1360 1.394 . S
C1362 C1363 1.369 1_655 S
C1362 C1366 1.531 . S
C1363 C1362 1.369 1_455 S
C1363 C1364 1.410 . S
C1363 C1371 1.503 1_545 S
C1364 C1363 1.410 . S
C1364 C1365 1.392 1_455 S
C1364 C1367 1.511 . S
C1365 C1361 1.376 . S
C1365 C1364 1.392 1_655 S
C1365 H1377 0.929 . S
C1366 C1362 1.531 . S
C1366 H1378 0.960 1_645 S
C1366 H1379 0.962 . S
C1366 H1380 0.960 1_655 S
C1367 C1364 1.511 . S
C1367 H1381 0.961 . S
C1367 H1382 0.961 1_545 S
C1367 H1383 0.961 . S
C1368 C1369 1.370 1_655 S
C1368 C1370 1.363 . S
C1368 H1384 0.931 . S
C1369 C1368 1.370 1_455 S
C1369 C1373 1.408 . S
C1370 C1368 1.363 . S
C1370 C1371 1.370 1_655 S
C1370 C1374 1.524 . S
C1371 C1363 1.503 1_565 S
C1371 C1370 1.370 1_455 S
C1371 C1372 1.403 . S
C1372 C1371 1.403 . S
C1372 C1373 1.404 . S
C1372 C1375 1.539 . S
C1373 C1369 1.408 . S
C1373 C1372 1.404 . S
C1373 H1385 0.930 . S
C1374 C1370 1.524 . S
C1374 H1386 0.956 . S
C1374 H1387 0.961 . S
C1374 H1388 0.961 . S
C1375 C1372 1.539 . S
C1375 H1389 0.958 . S
C1375 H1390 0.961 . S
C1375 H1391 0.960 1_565 S
H1376 C1360 0.931 . S
H1377 C1365 0.929 . S
H1378 C1366 0.960 1_465 S
H1379 C1366 0.962 . S
H1380 C1366 0.960 1_455 S
H1381 C1367 0.961 . S
H1382 C1367 0.961 1_565 S
H1383 C1367 0.961 . S
H1384 C1368 0.931 . S
H1385 C1373 0.930 . S
H1386 C1374 0.956 . S
H1387 C1374 0.961 . S
H1388 C1374 0.961 . S
H1389 C1375 0.958 . S
H1390 C1375 0.961 . S
H1391 C1375 0.960 1_545 S
C1392 C1393 1.391 . S
C1392 C1394 1.394 . S
C1392 H1408 0.931 . S
C1393 C1392 1.391 . S
C1393 C1397 1.376 1_565 S
C1394 C1392 1.394 . S
C1394 C1395 1.369 1_565 S
C1394 C1398 1.531 . S
C1395 C1394 1.369 1_545 S
C1395 C1396 1.410 . S
C1395 C1403 1.503 1_655 S
C1396 C1395 1.410 . S
C1396 C1397 1.392 . S
C1396 C1399 1.511 . S
C1397 C1393 1.376 1_545 S
C1397 C1396 1.392 . S
C1397 H1409 0.929 . S
C1398 C1394 1.531 . S
C1398 H1410 0.960 1_655 S
C1398 H1411 0.962 . S
C1398 H1412 0.960 . S
C1399 C1396 1.511 . S
C1399 H1413 0.961 . S
C1399 H1414 0.961 . S
C1399 H1415 0.961 . S
C1400 C1401 1.370 1_565 S
C1400 C1402 1.363 . S
C1400 H1416 0.931 . S
C1401 C1400 1.370 1_545 S
C1401 C1405 1.408 . S
C1402 C1400 1.363 . S
C1402 C1403 1.370 1_565 S
C1402 C1406 1.524 . S
C1403 C1395 1.503 1_455 S
C1403 C1402 1.370 1_545 S
C1403 C1404 1.403 . S
C1404 C1403 1.403 . S
C1404 C1405 1.404 . S
C1404 C1407 1.539 . S
C1405 C1401 1.408 . S
C1405 C1404 1.404 . S
C1405 H1417 0.930 . S
C1406 C1402 1.524 . S
C1406 H1418 0.956 . S
C1406 H1419 0.961 . S
C1406 H1420 0.961 . S
C1407 C1404 1.539 . S
C1407 H1421 0.958 . S
C1407 H1422 0.961 . S
C1407 H1423 0.960 1_455 S
H1408 C1392 0.931 . S
H1409 C1397 0.929 . S
H1410 C1398 0.960 1_455 S
H1411 C1398 0.962 . S
H1412 C1398 0.960 . S
H1413 C1399 0.961 . S
H1414 C1399 0.961 . S
H1415 C1399 0.961 . S
H1416 C1400 0.931 . S
H1417 C1405 0.930 . S
H1418 C1406 0.956 . S
H1419 C1406 0.961 . S
H1420 C1406 0.961 . S
H1421 C1407 0.958 . S
H1422 C1407 0.961 . S
H1423 C1407 0.960 1_655 S
C1424 C1425 1.391 . S
C1424 C1426 1.394 . S
C1424 H1440 0.931 . S
C1425 C1424 1.391 . S
C1425 C1429 1.376 . S
C1426 C1424 1.394 . S
C1426 C1427 1.369 . S
C1426 C1430 1.531 . S
C1427 C1426 1.369 . S
C1427 C1428 1.410 . S
C1427 C1435 1.503 1_545 S
C1428 C1427 1.410 . S
C1428 C1429 1.392 . S
C1428 C1431 1.511 . S
C1429 C1425 1.376 . S
C1429 C1428 1.392 . S
C1429 H1441 0.929 . S
C1430 C1426 1.531 . S
C1430 H1442 0.960 . S
C1430 H1443 0.962 . S
C1430 H1444 0.960 . S
C1431 C1428 1.511 . S
C1431 H1445 0.961 . S
C1431 H1446 0.961 1_545 S
C1431 H1447 0.961 . S
C1432 C1433 1.370 . S
C1432 C1434 1.363 . S
C1432 H1448 0.931 . S
C1433 C1432 1.370 . S
C1433 C1437 1.408 . S
C1434 C1432 1.363 . S
C1434 C1435 1.370 . S
C1434 C1438 1.524 . S
C1435 C1427 1.503 1_565 S
C1435 C1434 1.370 . S
C1435 C1436 1.403 . S
C1436 C1435 1.403 . S
C1436 C1437 1.404 . S
C1436 C1439 1.539 . S
C1437 C1433 1.408 . S
C1437 C1436 1.404 . S
C1437 H1449 0.930 . S
C1438 C1434 1.524 . S
C1438 H1450 0.956 1_565 S
C1438 H1451 0.970 . S
C1438 H1452 0.961 . S
C1439 C1436 1.539 . S
C1439 H1453 0.958 . S
C1439 H1454 0.961 . S
C1439 H1455 0.960 . S
H1440 C1424 0.931 . S
H1441 C1429 0.929 . S
H1442 C1430 0.960 . S
H1443 C1430 0.962 . S
H1444 C1430 0.960 . S
H1445 C1431 0.961 . S
H1446 C1431 0.961 1_565 S
H1447 C1431 0.961 . S
H1448 C1432 0.931 . S
H1449 C1437 0.930 . S
H1450 C1438 0.956 1_545 S
H1451 C1438 0.970 . S
H1452 C1438 0.961 . S
H1453 C1439 0.958 . S
H1454 C1439 0.961 . S
H1455 C1439 0.960 . S
C1456 C1457 1.391 . S
C1456 C1458 1.394 . S
C1456 H1472 0.931 . S
C1457 C1456 1.391 . S
C1457 C1461 1.376 . S
C1458 C1456 1.394 . S
C1458 C1459 1.369 . S
C1458 C1462 1.531 . S
C1459 C1458 1.369 . S
C1459 C1460 1.410 . S
C1459 C1467 1.503 1_655 S
C1460 C1459 1.410 . S
C1460 C1461 1.392 . S
C1460 C1463 1.511 . S
C1461 C1457 1.376 . S
C1461 C1460 1.392 . S
C1461 H1473 0.929 . S
C1462 C1458 1.531 . S
C1462 H1474 0.960 1_655 S
C1462 H1475 0.962 . S
C1462 H1476 0.960 . S
C1463 C1460 1.511 . S
C1463 H1477 0.961 . S
C1463 H1478 0.961 1_655 S
C1463 H1479 0.961 . S
C1464 C1465 1.370 . S
C1464 C1466 1.363 . S
C1464 H1480 0.931 . S
C1465 C1464 1.370 . S
C1465 C1469 1.408 . S
C1466 C1464 1.363 . S
C1466 C1467 1.370 . S
C1466 C1470 1.524 . S
C1467 C1459 1.503 1_455 S
C1467 C1466 1.370 . S
C1467 C1468 1.403 . S
C1468 C1467 1.403 . S
C1468 C1469 1.404 . S
C1468 C1471 1.539 . S
C1469 C1465 1.408 . S
C1469 C1468 1.404 . S
C1469 H1481 0.930 . S
C1470 C1466 1.524 . S
C1470 H1482 0.956 1_455 S
C1470 H1483 0.961 1_455 S
C1470 H1484 0.961 . S
C1471 C1468 1.539 . S
C1471 H1485 0.958 . S
C1471 H1486 0.961 . S
C1471 H1487 0.960 . S
H1472 C1456 0.931 . S
H1473 C1461 0.929 . S
H1474 C1462 0.960 1_455 S
H1475 C1462 0.962 . S
H1476 C1462 0.960 . S
H1477 C1463 0.961 . S
H1478 C1463 0.961 1_455 S
H1479 C1463 0.961 . S
H1480 C1464 0.931 . S
H1481 C1469 0.930 . S
H1482 C1470 0.956 1_655 S
H1483 C1470 0.961 1_655 S
H1484 C1470 0.961 . S
H1485 C1471 0.958 . S
H1486 C1471 0.961 . S
H1487 C1471 0.960 . S
C1488 C1489 1.391 . S
C1488 C1490 1.394 . S
C1488 H1504 0.931 . S
C1489 C1488 1.391 . S
C1489 C1493 1.376 . S
C1490 C1488 1.394 . S
C1490 C1491 1.369 . S
C1490 C1494 1.531 . S
C1491 C1490 1.369 . S
C1491 C1492 1.410 . S
C1491 C1499 1.503 . S
C1492 C1491 1.410 . S
C1492 C1493 1.392 . S
C1492 C1495 1.511 . S
C1493 C1489 1.376 . S
C1493 C1492 1.392 . S
C1493 H1505 0.929 . S
C1494 C1490 1.531 . S
C1494 H1506 0.960 . S
C1494 H1507 0.962 . S
C1494 H1508 0.960 . S
C1495 C1492 1.511 . S
C1495 H1509 0.961 . S
C1495 H1510 0.961 . S
C1495 H1511 0.961 . S
C1496 C1497 1.370 . S
C1496 C1498 1.363 . S
C1496 H1512 0.931 . S
C1497 C1496 1.370 . S
C1497 C1501 1.408 . S
C1498 C1496 1.363 . S
C1498 C1499 1.370 . S
C1498 C1502 1.524 . S
C1499 C1491 1.503 . S
C1499 C1498 1.370 . S
C1499 C1500 1.403 . S
C1500 C1499 1.403 . S
C1500 C1501 1.404 . S
C1500 C1503 1.539 . S
C1501 C1497 1.408 . S
C1501 C1500 1.404 . S
C1501 H1513 0.930 . S
C1502 C1498 1.524 . S
C1502 H1514 0.956 . S
C1502 H1515 0.961 . S
C1502 H1516 0.961 . S
C1503 C1500 1.539 . S
C1503 H1517 0.958 . S
C1503 H1518 0.961 . S
C1503 H1519 0.960 . S
H1504 C1488 0.931 . S
H1505 C1493 0.929 . S
H1506 C1494 0.960 . S
H1507 C1494 0.962 . S
H1508 C1494 0.960 . S
H1509 C1495 0.961 . S
H1510 C1495 0.961 . S
H1511 C1495 0.961 . S
H1512 C1496 0.931 . S
H1513 C1501 0.930 . S
H1514 C1502 0.956 . S
H1515 C1502 0.961 . S
H1516 C1502 0.961 . S
H1517 C1503 0.958 . S
H1518 C1503 0.961 . S
H1519 C1503 0.960 . S
C1520 C1521 1.391 . S
C1520 C1522 1.394 . S
C1520 H1536 0.931 . S
C1521 C1520 1.391 . S
C1521 C1525 1.376 . S
C1522 C1520 1.394 . S
C1522 C1523 1.369 . S
C1522 C1526 1.531 . S
C1523 C1522 1.369 . S
C1523 C1524 1.410 . S
C1523 C1531 1.503 . S
C1524 C1523 1.410 . S
C1524 C1525 1.392 . S
C1524 C1527 1.511 . S
C1525 C1521 1.376 . S
C1525 C1524 1.392 . S
C1525 H1537 0.929 . S
C1526 C1522 1.531 . S
C1526 H1538 0.960 . S
C1526 H1539 0.962 . S
C1526 H1540 0.960 . S
C1527 C1524 1.511 . S
C1527 H1541 0.961 . S
C1527 H1542 0.961 . S
C1527 H1543 0.961 . S
C1528 C1529 1.370 . S
C1528 C1530 1.363 . S
C1528 H1544 0.931 . S
C1529 C1528 1.370 . S
C1529 C1533 1.408 . S
C1530 C1528 1.363 . S
C1530 C1531 1.370 . S
C1530 C1534 1.524 . S
C1531 C1523 1.503 . S
C1531 C1530 1.370 . S
C1531 C1532 1.403 . S
C1532 C1531 1.403 . S
C1532 C1533 1.404 . S
C1532 C1535 1.539 . S
C1533 C1529 1.408 . S
C1533 C1532 1.404 . S
C1533 H1545 0.930 . S
C1534 C1530 1.524 . S
C1534 H1546 0.956 . S
C1534 H1547 0.961 . S
C1534 H1548 0.961 . S
C1535 C1532 1.539 . S
C1535 H1549 0.958 . S
C1535 H1550 0.961 . S
C1535 H1551 0.960 . S
H1536 C1520 0.931 . S
H1537 C1525 0.929 . S
H1538 C1526 0.960 . S
H1539 C1526 0.962 . S
H1540 C1526 0.960 . S
H1541 C1527 0.961 . S
H1542 C1527 0.961 . S
H1543 C1527 0.961 . S
H1544 C1528 0.931 . S
H1545 C1533 0.930 . S
H1546 C1534 0.956 . S
H1547 C1534 0.961 . S
H1548 C1534 0.961 . S
H1549 C1535 0.958 . S
H1550 C1535 0.961 . S
H1551 C1535 0.960 . S
C1552 C1553 1.391 . S
C1552 C1554 1.394 . S
C1552 H1568 0.931 . S
C1553 C1552 1.391 . S
C1553 C1557 1.376 . S
C1554 C1552 1.394 . S
C1554 C1555 1.369 . S
C1554 C1558 1.531 . S
C1555 C1554 1.369 . S
C1555 C1556 1.410 . S
C1555 C1563 1.503 . S
C1556 C1555 1.410 . S
C1556 C1557 1.392 . S
C1556 C1559 1.511 . S
C1557 C1553 1.376 . S
C1557 C1556 1.392 . S
C1557 H1569 0.929 . S
C1558 C1554 1.531 . S
C1558 H1570 0.960 . S
C1558 H1571 0.962 . S
C1558 H1572 0.960 . S
C1559 C1556 1.511 . S
C1559 H1573 0.961 . S
C1559 H1574 0.961 . S
C1559 H1575 0.961 . S
C1560 C1561 1.370 . S
C1560 C1562 1.363 . S
C1560 H1576 0.931 . S
C1561 C1560 1.370 . S
C1561 C1565 1.408 . S
C1562 C1560 1.363 . S
C1562 C1563 1.370 . S
C1562 C1566 1.524 . S
C1563 C1555 1.503 . S
C1563 C1562 1.370 . S
C1563 C1564 1.403 . S
C1564 C1563 1.403 . S
C1564 C1565 1.404 . S
C1564 C1567 1.539 . S
C1565 C1561 1.408 . S
C1565 C1564 1.404 . S
C1565 H1577 0.930 . S
C1566 C1562 1.524 . S
C1566 H1578 0.956 . S
C1566 H1579 0.961 . S
C1566 H1580 0.961 . S
C1567 C1564 1.539 . S
C1567 H1581 0.958 . S
C1567 H1582 0.961 . S
C1567 H1583 0.960 . S
H1568 C1552 0.931 . S
H1569 C1557 0.929 . S
H1570 C1558 0.960 . S
H1571 C1558 0.962 . S
H1572 C1558 0.960 . S
H1573 C1559 0.961 . S
H1574 C1559 0.961 . S
H1575 C1559 0.961 . S
H1576 C1560 0.931 . S
H1577 C1565 0.930 . S
H1578 C1566 0.956 . S
H1579 C1566 0.961 . S
H1580 C1566 0.961 . S
H1581 C1567 0.958 . S
H1582 C1567 0.961 . S
H1583 C1567 0.960 . S
C1584 C1585 1.391 . S
C1584 C1586 1.394 . S
C1584 H1600 0.931 . S
C1585 C1584 1.391 . S
C1585 C1589 1.376 . S
C1586 C1584 1.394 . S
C1586 C1587 1.369 . S
C1586 C1590 1.531 . S
C1587 C1586 1.369 . S
C1587 C1588 1.410 . S
C1587 C1595 1.503 . S
C1588 C1587 1.410 . S
C1588 C1589 1.392 . S
C1588 C1591 1.511 . S
C1589 C1585 1.376 . S
C1589 C1588 1.392 . S
C1589 H1601 0.929 . S
C1590 C1586 1.531 . S
C1590 H1602 0.960 . S
C1590 H1603 0.962 . S
C1590 H1604 0.960 . S
C1591 C1588 1.511 . S
C1591 H1605 0.961 . S
C1591 H1606 0.961 . S
C1591 H1607 0.961 . S
C1592 C1593 1.370 . S
C1592 C1594 1.363 . S
C1592 H1608 0.931 . S
C1593 C1592 1.370 . S
C1593 C1597 1.408 . S
C1594 C1592 1.363 . S
C1594 C1595 1.370 . S
C1594 C1598 1.524 . S
C1595 C1587 1.503 . S
C1595 C1594 1.370 . S
C1595 C1596 1.403 . S
C1596 C1595 1.403 . S
C1596 C1597 1.404 . S
C1596 C1599 1.539 . S
C1597 C1593 1.408 . S
C1597 C1596 1.404 . S
C1597 H1609 0.930 . S
C1598 C1594 1.524 . S
C1598 H1610 0.956 . S
C1598 H1611 0.961 . S
C1598 H1612 0.961 . S
C1599 C1596 1.539 . S
C1599 H1613 0.958 . S
C1599 H1614 0.961 . S
C1599 H1615 0.960 . S
H1600 C1584 0.931 . S
H1601 C1589 0.929 . S
H1602 C1590 0.960 . S
H1603 C1590 0.962 . S
H1604 C1590 0.960 . S
H1605 C1591 0.961 . S
H1606 C1591 0.961 . S
H1607 C1591 0.961 . S
H1608 C1592 0.931 . S
H1609 C1597 0.930 . S
H1610 C1598 0.956 . S
H1611 C1598 0.961 . S
H1612 C1598 0.961 . S
H1613 C1599 0.958 . S
H1614 C1599 0.961 . S
H1615 C1599 0.960 . S
C1616 C1617 1.391 . S
C1616 C1618 1.394 . S
C1616 H1632 0.931 . S
C1617 C1616 1.391 . S
C1617 C1621 1.376 . S
C1618 C1616 1.394 . S
C1618 C1619 1.369 . S
C1618 C1622 1.531 . S
C1619 C1618 1.369 . S
C1619 C1620 1.410 . S
C1619 C1627 1.503 . S
C1620 C1619 1.410 . S
C1620 C1621 1.392 . S
C1620 C1623 1.511 . S
C1621 C1617 1.376 . S
C1621 C1620 1.392 . S
C1621 H1633 0.929 . S
C1622 C1618 1.531 . S
C1622 H1634 0.960 . S
C1622 H1635 0.962 . S
C1622 H1636 0.960 . S
C1623 C1620 1.511 . S
C1623 H1637 0.961 . S
C1623 H1638 0.961 . S
C1623 H1639 0.961 . S
C1624 C1625 1.370 . S
C1624 C1626 1.363 . S
C1624 H1640 0.931 . S
C1625 C1624 1.370 . S
C1625 C1629 1.408 . S
C1626 C1624 1.363 . S
C1626 C1627 1.370 . S
C1626 C1630 1.524 . S
C1627 C1619 1.503 . S
C1627 C1626 1.370 . S
C1627 C1628 1.403 . S
C1628 C1627 1.403 . S
C1628 C1629 1.404 . S
C1628 C1631 1.539 . S
C1629 C1625 1.408 . S
C1629 C1628 1.404 . S
C1629 H1641 0.930 . S
C1630 C1626 1.524 . S
C1630 H1642 0.956 . S
C1630 H1643 0.961 . S
C1630 H1644 0.961 . S
C1631 C1628 1.539 . S
C1631 H1645 0.958 . S
C1631 H1646 0.961 . S
C1631 H1647 0.960 . S
H1632 C1616 0.931 . S
H1633 C1621 0.929 . S
H1634 C1622 0.960 . S
H1635 C1622 0.962 . S
H1636 C1622 0.960 . S
H1637 C1623 0.961 . S
H1638 C1623 0.961 . S
H1639 C1623 0.961 . S
H1640 C1624 0.931 . S
H1641 C1629 0.930 . S
H1642 C1630 0.956 . S
H1643 C1630 0.961 . S
H1644 C1630 0.961 . S
H1645 C1631 0.958 . S
H1646 C1631 0.961 . S
H1647 C1631 0.960 . S
C1648 C1649 1.391 . S
C1648 C1650 1.394 . S
C1648 H1664 0.931 . S
C1649 C1648 1.391 . S
C1649 C1653 1.376 . S
C1650 C1648 1.394 . S
C1650 C1651 1.369 . S
C1650 C1654 1.531 . S
C1651 C1650 1.369 . S
C1651 C1652 1.410 . S
C1651 C1659 1.503 . S
C1652 C1651 1.410 . S
C1652 C1653 1.392 . S
C1652 C1655 1.511 . S
C1653 C1649 1.376 . S
C1653 C1652 1.392 . S
C1653 H1665 0.929 . S
C1654 C1650 1.531 . S
C1654 H1666 0.960 . S
C1654 H1667 0.962 . S
C1654 H1668 0.960 . S
C1655 C1652 1.511 . S
C1655 H1669 0.961 . S
C1655 H1670 0.961 . S
C1655 H1671 0.961 . S
C1656 C1657 1.370 . S
C1656 C1658 1.363 . S
C1656 H1672 0.931 . S
C1657 C1656 1.370 . S
C1657 C1661 1.408 . S
C1658 C1656 1.363 . S
C1658 C1659 1.370 . S
C1658 C1662 1.524 . S
C1659 C1651 1.503 . S
C1659 C1658 1.370 . S
C1659 C1660 1.403 . S
C1660 C1659 1.403 . S
C1660 C1661 1.404 . S
C1660 C1663 1.539 . S
C1661 C1657 1.408 . S
C1661 C1660 1.404 . S
C1661 H1673 0.930 . S
C1662 C1658 1.524 . S
C1662 H1674 0.956 . S
C1662 H1675 0.961 . S
C1662 H1676 0.961 . S
C1663 C1660 1.539 . S
C1663 H1677 0.958 . S
C1663 H1678 0.961 . S
C1663 H1679 0.960 . S
H1664 C1648 0.931 . S
H1665 C1653 0.929 . S
H1666 C1654 0.960 . S
H1667 C1654 0.962 . S
H1668 C1654 0.960 . S
H1669 C1655 0.961 . S
H1670 C1655 0.961 . S
H1671 C1655 0.961 . S
H1672 C1656 0.931 . S
H1673 C1661 0.930 . S
H1674 C1662 0.956 . S
H1675 C1662 0.961 . S
H1676 C1662 0.961 . S
H1677 C1663 0.958 . S
H1678 C1663 0.961 . S
H1679 C1663 0.960 . S
C1680 C1681 1.391 . S
C1680 C1682 1.394 . S
C1680 H1696 0.931 . S
C1681 C1680 1.391 . S
C1681 C1685 1.376 . S
C1682 C1680 1.394 . S
C1682 C1683 1.369 . S
C1682 C1686 1.531 . S
C1683 C1682 1.369 . S
C1683 C1684 1.410 . S
C1683 C1691 1.503 . S
C1684 C1683 1.410 . S
C1684 C1685 1.392 . S
C1684 C1687 1.511 . S
C1685 C1681 1.376 . S
C1685 C1684 1.392 . S
C1685 H1697 0.929 . S
C1686 C1682 1.531 . S
C1686 H1698 0.960 . S
C1686 H1699 0.962 . S
C1686 H1700 0.960 . S
C1687 C1684 1.511 . S
C1687 H1701 0.961 . S
C1687 H1702 0.961 . S
C1687 H1703 0.961 . S
C1688 C1689 1.370 . S
C1688 C1690 1.363 . S
C1688 H1704 0.931 . S
C1689 C1688 1.370 . S
C1689 C1693 1.408 . S
C1690 C1688 1.363 . S
C1690 C1691 1.370 . S
C1690 C1694 1.524 . S
C1691 C1683 1.503 . S
C1691 C1690 1.370 . S
C1691 C1692 1.403 . S
C1692 C1691 1.403 . S
C1692 C1693 1.404 . S
C1692 C1695 1.539 . S
C1693 C1689 1.408 . S
C1693 C1692 1.404 . S
C1693 H1705 0.930 . S
C1694 C1690 1.524 . S
C1694 H1706 0.956 . S
C1694 H1707 0.961 . S
C1694 H1708 0.961 . S
C1695 C1692 1.539 . S
C1695 H1709 0.958 . S
C1695 H1710 0.961 . S
C1695 H1711 0.960 . S
H1696 C1680 0.931 . S
H1697 C1685 0.929 . S
H1698 C1686 0.960 . S
H1699 C1686 0.962 . S
H1700 C1686 0.960 . S
H1701 C1687 0.961 . S
H1702 C1687 0.961 . S
H1703 C1687 0.961 . S
H1704 C1688 0.931 . S
H1705 C1693 0.930 . S
H1706 C1694 0.956 . S
H1707 C1694 0.961 . S
H1708 C1694 0.961 . S
H1709 C1695 0.958 . S
H1710 C1695 0.961 . S
H1711 C1695 0.960 . S
C1712 C1713 1.391 . S
C1712 C1714 1.394 . S
C1712 H1728 0.931 . S
C1713 C1712 1.391 . S
C1713 C1717 1.376 . S
C1714 C1712 1.394 . S
C1714 C1715 1.369 . S
C1714 C1718 1.531 . S
C1715 C1714 1.369 . S
C1715 C1716 1.410 . S
C1715 C1723 1.503 . S
C1716 C1715 1.410 . S
C1716 C1717 1.392 . S
C1716 C1719 1.511 . S
C1717 C1713 1.376 . S
C1717 C1716 1.392 . S
C1717 H1729 0.929 . S
C1718 C1714 1.531 . S
C1718 H1730 0.960 . S
C1718 H1731 0.962 . S
C1718 H1732 0.960 . S
C1719 C1716 1.511 . S
C1719 H1733 0.961 . S
C1719 H1734 0.961 . S
C1719 H1735 0.961 . S
C1720 C1721 1.370 . S
C1720 C1722 1.363 . S
C1720 H1736 0.931 . S
C1721 C1720 1.370 . S
C1721 C1725 1.408 . S
C1722 C1720 1.363 . S
C1722 C1723 1.370 . S
C1722 C1726 1.524 . S
C1723 C1715 1.503 . S
C1723 C1722 1.370 . S
C1723 C1724 1.403 . S
C1724 C1723 1.403 . S
C1724 C1725 1.404 . S
C1724 C1727 1.539 . S
C1725 C1721 1.408 . S
C1725 C1724 1.404 . S
C1725 H1737 0.930 . S
C1726 C1722 1.524 . S
C1726 H1738 0.956 . S
C1726 H1739 0.961 . S
C1726 H1740 0.961 . S
C1727 C1724 1.539 . S
C1727 H1741 0.958 . S
C1727 H1742 0.961 . S
C1727 H1743 0.960 . S
H1728 C1712 0.931 . S
H1729 C1717 0.929 . S
H1730 C1718 0.960 . S
H1731 C1718 0.962 . S
H1732 C1718 0.960 . S
H1733 C1719 0.961 . S
H1734 C1719 0.961 . S
H1735 C1719 0.961 . S
H1736 C1720 0.931 . S
H1737 C1725 0.930 . S
H1738 C1726 0.956 . S
H1739 C1726 0.961 . S
H1740 C1726 0.961 . S
H1741 C1727 0.958 . S
H1742 C1727 0.961 . S
H1743 C1727 0.960 . S
C1744 C1745 1.391 . S
C1744 C1746 1.394 . S
C1744 H1760 0.931 . S
C1745 C1744 1.391 . S
C1745 C1749 1.376 . S
C1746 C1744 1.394 . S
C1746 C1747 1.369 . S
C1746 C1750 1.531 . S
C1747 C1746 1.369 . S
C1747 C1748 1.410 . S
C1747 C1755 1.503 . S
C1748 C1747 1.410 . S
C1748 C1749 1.392 . S
C1748 C1751 1.511 . S
C1749 C1745 1.376 . S
C1749 C1748 1.392 . S
C1749 H1761 0.929 . S
C1750 C1746 1.531 . S
C1750 H1762 0.960 . S
C1750 H1763 0.962 . S
C1750 H1764 0.960 . S
C1751 C1748 1.511 . S
C1751 H1765 0.961 . S
C1751 H1766 0.961 . S
C1751 H1767 0.961 . S
C1752 C1753 1.370 . S
C1752 C1754 1.363 . S
C1752 H1768 0.931 . S
C1753 C1752 1.370 . S
C1753 C1757 1.408 . S
C1754 C1752 1.363 . S
C1754 C1755 1.370 . S
C1754 C1758 1.524 . S
C1755 C1747 1.503 . S
C1755 C1754 1.370 . S
C1755 C1756 1.403 . S
C1756 C1755 1.403 . S
C1756 C1757 1.404 . S
C1756 C1759 1.539 . S
C1757 C1753 1.408 . S
C1757 C1756 1.404 . S
C1757 H1769 0.930 . S
C1758 C1754 1.524 . S
C1758 H1770 0.956 . S
C1758 H1771 0.961 . S
C1758 H1772 0.961 . S
C1759 C1756 1.539 . S
C1759 H1773 0.958 . S
C1759 H1774 0.961 . S
C1759 H1775 0.960 . S
H1760 C1744 0.931 . S
H1761 C1749 0.929 . S
H1762 C1750 0.960 . S
H1763 C1750 0.962 . S
H1764 C1750 0.960 . S
H1765 C1751 0.961 . S
H1766 C1751 0.961 . S
H1767 C1751 0.961 . S
H1768 C1752 0.931 . S
H1769 C1757 0.930 . S
H1770 C1758 0.956 . S
H1771 C1758 0.961 . S
H1772 C1758 0.961 . S
H1773 C1759 0.958 . S
H1774 C1759 0.961 . S
H1775 C1759 0.960 . S
C1776 C1777 1.391 . S
C1776 C1778 1.394 . S
C1776 H1792 0.931 . S
C1777 C1776 1.391 . S
C1777 C1781 1.376 . S
C1778 C1776 1.394 . S
C1778 C1779 1.369 . S
C1778 C1782 1.531 . S
C1779 C1778 1.369 . S
C1779 C1780 1.410 . S
C1779 C1787 1.503 . S
C1780 C1779 1.410 . S
C1780 C1781 1.392 . S
C1780 C1783 1.511 . S
C1781 C1777 1.376 . S
C1781 C1780 1.392 . S
C1781 H1793 0.929 . S
C1782 C1778 1.531 . S
C1782 H1794 0.960 . S
C1782 H1795 0.962 . S
C1782 H1796 0.960 . S
C1783 C1780 1.511 . S
C1783 H1797 0.961 . S
C1783 H1798 0.961 . S
C1783 H1799 0.961 . S
C1784 C1785 1.370 . S
C1784 C1786 1.363 . S
C1784 H1800 0.931 . S
C1785 C1784 1.370 . S
C1785 C1789 1.408 . S
C1786 C1784 1.363 . S
C1786 C1787 1.370 . S
C1786 C1790 1.524 . S
C1787 C1779 1.503 . S
C1787 C1786 1.370 . S
C1787 C1788 1.403 . S
C1788 C1787 1.403 . S
C1788 C1789 1.404 . S
C1788 C1791 1.539 . S
C1789 C1785 1.408 . S
C1789 C1788 1.404 . S
C1789 H1801 0.930 . S
C1790 C1786 1.524 . S
C1790 H1802 0.956 . S
C1790 H1803 0.961 . S
C1790 H1804 0.961 . S
C1791 C1788 1.539 . S
C1791 H1805 0.958 . S
C1791 H1806 0.961 . S
C1791 H1807 0.960 . S
H1792 C1776 0.931 . S
H1793 C1781 0.929 . S
H1794 C1782 0.960 . S
H1795 C1782 0.962 . S
H1796 C1782 0.960 . S
H1797 C1783 0.961 . S
H1798 C1783 0.961 . S
H1799 C1783 0.961 . S
H1800 C1784 0.931 . S
H1801 C1789 0.930 . S
H1802 C1790 0.956 . S
H1803 C1790 0.961 . S
H1804 C1790 0.961 . S
H1805 C1791 0.958 . S
H1806 C1791 0.961 . S
H1807 C1791 0.960 . S
C529 C21 0.741 . S
C537 N365 0.680 . S
C561 N266 0.693 . S
C569 C54 0.726 . S
C593 N299 0.699 . S
C601 C87 0.728 . S
C625 N332 0.677 . S
C633 C120 0.729 . S
C657 N167 0.727 . S
C665 C153 0.720 . S
C689 N200 0.748 . S
C697 C186 0.699 . S
C721 C219 0.669 . S
C729 N233 0.724 . S
C753 C252 0.747 . S
C761 N134 0.680 . S
C785 C285 0.684 . S
C793 N101 0.724 . S
C817 C318 0.699 . S
C825 N2 0.720 . S
C849 N35 0.742 . S
C857 C351 0.680 . S
C881 C384 0.660 . S
C889 N68 0.724 . S
C913 N431 0.681 . S
C921 C417 0.688 . S
C945 N464 0.673 . S
C953 C450 0.729 . S
C977 N497 0.730 . S
C985 C483 0.719 . S
C1009 C516 0.749 . S
C1017 N398 0.680 . S
C1041 C18 1.224 . S
C1049 C84 1.201 . S
C1073 C51 1.185 . S
C1081 C117 1.196 . S
C1105 C216 1.225 . S
C1113 C150 1.203 . S
C1137 C249 1.190 . S
C1145 C183 1.195 . S
C1169 C348 1.195 . S
C1177 C282 1.214 . S
C1201 C315 1.187 . S
C1209 C381 1.196 . S
C1233 C414 1.225 . S
C1241 C480 1.205 . S
C1265 C513 1.197 . S
C1273 C447 1.213 . S
C1297 C73 1.179 . S
C1305 C7 1.197 . S
C1329 C40 1.200 . S
C1337 C106 1.195 . S
C1361 C139 1.142 . S
C1369 C205 1.188 . S
C1393 C238 1.115 . S
C1401 C172 1.173 . S
C1425 C337 1.129 . S
C1433 C271 1.153 . S
C1457 C304 1.221 . S
C1465 C370 1.164 . S
C1489 C403 1.209 . S
C1497 C469 1.163 . S
C1521 C502 1.227 . S
C1529 C436 1.172 . S
C1553 N475 1.628 . S
C1561 N13 1.631 . S
C1585 N46 1.656 . S
C1593 N508 1.646 . S
C1617 N79 1.609 . S
C1625 N409 1.628 . S
C1649 N112 1.622 . S
C1657 N442 1.630 . S
C1681 N145 1.660 . S
C1689 N343 1.646 . S
C1713 N376 1.638 . S
C1721 N178 1.640 . S
C1745 N211 1.605 . S
C1753 N277 1.623 . S
C1777 N244 1.658 . S
C1785 N310 1.647 . S
