# Generated by pormake.
# Topology rob, (6)-cn, num edge types: 1
# Building blocks:
#     Node 0, Type 0, BuildingBlock: KUMBUR_clean_sbu_0, # of connection points: 6
#     Node 1, Type 0, BuildingBlock: KUMBUR_clean_sbu_0, # of connection points: 6
#     Node 2, Type 0, BuildingBlock: KUMBUR_clean_sbu_0, # of connection points: 6
#     Node 3, Type 0, BuildingBlock: KUMBUR_clean_sbu_0, # of connection points: 6
#     Edge 4, Type (0, 0), BuildingBlock: KIFKEQ_clean_linker_1, # of connection points: 2
#     Edge 5, Type (0, 0), BuildingBlock: KIFKEQ_clean_linker_1, # of connection points: 2
#     Edge 6, Type (0, 0), BuildingBlock: KIFKEQ_clean_linker_1, # of connection points: 2
#     Edge 7, Type (0, 0), BuildingBlock: KIFKEQ_clean_linker_1, # of connection points: 2
#     Edge 8, Type (0, 0), BuildingBlock: KIFKEQ_clean_linker_1, # of connection points: 2
#     Edge 9, Type (0, 0), BuildingBlock: KIFKEQ_clean_linker_1, # of connection points: 2
#     Edge 10, Type (0, 0), BuildingBlock: KIFKEQ_clean_linker_1, # of connection points: 2
#     Edge 11, Type (0, 0), BuildingBlock: KIFKEQ_clean_linker_1, # of connection points: 2
#     Edge 12, Type (0, 0), BuildingBlock: KIFKEQ_clean_linker_1, # of connection points: 2
#     Edge 13, Type (0, 0), BuildingBlock: KIFKEQ_clean_linker_1, # of connection points: 2
#     Edge 14, Type (0, 0), BuildingBlock: KIFKEQ_clean_linker_1, # of connection points: 2
#     Edge 15, Type (0, 0), BuildingBlock: KIFKEQ_clean_linker_1, # of connection points: 2
# Relax obj value: 0.035
# Max RMSD: 0.159
# Mean RMSD: 0.159
data_MOF--net-rob--node1-KUMBUR_clean_sbu_0--edge1-KIFKEQ_clean_linker_1
_symmetry_space_group_name_H-M    P1
_symmetry_Int_Tables_number       1
_symmetry_cell_setting            triclinic
loop_
_symmetry_equiv_pos_as_xyz
'x, y, z'
_cell_length_a     16.58173
_cell_length_b     25.993139
_cell_length_c     33.752889
_cell_angle_alpha  118.38084
_cell_angle_beta   89.915061
_cell_angle_gamma 90.036449
loop_
_atom_site_label
_atom_site_type_symbol
_atom_site_fract_x
_atom_site_fract_y
_atom_site_fract_z
_atom_type_partial_charge
Tb0 Tb 0.18438 0.31782 0.07269 0.0
C1 C 0.37861 0.08926 0.96335 0.0
C2 C 0.50348 0.10526 1.0044 0.0
C3 C 0.45616 1.0061 0.95666 0.0
C4 C 0.43459 0.12709 0.99287 0.0
C5 C 0.38925 0.02824 0.94418 0.0
C6 C 0.51337 0.04459 0.98662 0.0
C7 C 0.27258 1.01576 0.89779 0.0
N8 N 0.31682 0.11245 0.95083 0.0
C9 C 0.26531 0.07659 0.91735 0.0
C10 C 0.33433 0.99142 0.91161 0.0
Tb11 Tb 0.31118 0.21254 0.98305 0.0
N12 N 0.42483 0.18509 1.00723 0.0
C13 C 0.4848 0.2234 0.0313 0.0
C14 C 0.56207 0.14488 0.03173 0.0
C15 C 0.55309 0.20417 0.04479 0.0
H16 H 0.21757 0.09465 0.90608 0.0
H17 H 0.59907 0.2351 0.06495 0.0
H18 H 0.56613 0.02695 0.99483 0.0
H19 H 0.23076 0.98769 0.87192 0.0
H20 H 0.47971 0.2693 0.0413 0.0
H21 H 0.89305 0.28658 0.9922 0.0
H22 H 0.61558 0.12996 0.04165 0.0
H23 H 0.27894 0.43919 0.14382 0.0
H24 H 0.01354 0.25656 1.01809 0.0
H25 H 0.26767 0.54524 0.17008 0.0
H26 H 0.46533 0.95939 0.94247 0.0
H27 H 0.87691 0.38935 1.0084 0.0
H28 H 0.92884 0.49259 0.04731 0.0
H29 H 0.34032 0.94432 0.89609 0.0
H30 H 0.03243 0.56293 0.09452 0.0
N31 N 0.06824 0.34103 0.04764 0.0
C32 C 0.00821 0.30158 0.02551 0.0
C33 C 0.93051 0.37636 1.01972 0.0
C34 C 0.98981 0.41725 0.04459 0.0
C35 C 0.93932 0.3184 1.01065 0.0
C36 C 0.05862 0.39794 0.05824 0.0
H37 H 0.15769 0.58327 0.1417 0.0
N38 N 0.17799 0.41706 0.09977 0.0
C39 C 0.22469 0.51536 0.14605 0.0
C40 C 0.1156 0.43748 0.08538 0.0
C41 C 0.23075 0.45524 0.13118 0.0
C42 C 0.16272 0.53665 0.12985 0.0
C43 C 0.10635 0.49766 0.0997 0.0
O44 O 0.18986 0.34593 0.14234 0.0
O45 O 0.28086 0.25503 0.05353 0.0
O46 O 0.2371 0.16159 1.00529 0.0
O47 O 0.13313 0.22864 0.0422 0.0
O48 O 0.29484 0.3307 0.11187 0.0
O49 O 0.08592 0.29986 0.10358 0.0
O50 O 0.30835 0.19064 0.9144 0.0
O51 O 0.21388 0.27447 1.00244 0.0
O52 O 0.25616 0.3661 0.04745 0.0
O53 O 0.36424 0.30161 1.01592 0.0
O54 O 0.20125 0.20041 0.94337 0.0
O55 O 0.41179 0.23325 0.95526 0.0
C56 C 0.3272 0.28063 0.08673 0.0
C57 C 0.06555 0.36643 0.18066 0.0
C58 C 0.00337 0.39444 0.25404 0.0
C59 C 0.05377 0.35709 0.21804 0.0
C60 C 0.96555 0.44144 0.25174 0.0
C61 C 0.02691 0.41339 0.17919 0.0
C62 C 0.97721 0.45064 0.21461 0.0
C63 C 0.1643 0.17505 1.02386 0.0
C64 C 0.11807 0.32655 0.14356 0.0
C65 C 0.0399 0.51699 0.08462 0.0
C66 C 0.9813 0.47689 0.05743 0.0
C67 C 0.1675 0.2496 0.96921 0.0
C68 C 0.43418 0.17052 0.8777 0.0
C69 C 0.44456 0.17991 0.84026 0.0
C70 C 0.49589 0.14351 0.80441 0.0
C71 C 0.5358 0.09723 0.80679 0.0
C72 C 0.47504 0.12439 0.87928 0.0
C73 C 0.52534 0.0879 0.84394 0.0
C74 C 0.33082 0.35424 0.03181 0.0
C75 C 0.38113 0.20954 0.9149 0.0
H76 H 0.08249 0.3199 0.21844 0.0
H77 H 0.92665 0.47118 0.27858 0.0
H78 H 0.03462 0.42103 0.15065 0.0
H79 H 0.94701 0.48653 0.21312 0.0
H80 H 0.41419 0.2165 0.83975 0.0
H81 H 0.57541 0.06821 0.77999 0.0
H82 H 0.46878 0.11685 0.9079 0.0
H83 H 0.55687 0.05253 0.84559 0.0
Tb84 Tb 0.67371 0.82104 0.07049 0.0
C85 C 0.86646 0.59311 0.96609 0.0
C86 C 0.98823 0.60965 1.00972 0.0
C87 C 0.93706 0.51082 0.96536 0.0
C88 C 0.92208 0.63112 0.99578 0.0
C89 C 0.87423 0.53233 0.94952 0.0
C90 C -0.00523 0.54936 0.99486 0.0
C91 C 0.76254 0.51869 0.89965 0.0
N92 N 0.80729 0.61575 0.95138 0.0
C93 C 0.75721 0.57941 0.91729 0.0
C94 C 0.82052 0.49504 0.91634 0.0
Tb95 Tb 0.80253 0.71563 0.9824 0.0
N96 N 0.91453 0.68875 1.00823 0.0
C97 C 0.97478 0.72682 0.03224 0.0
C98 C 0.04719 0.64914 0.03679 0.0
C99 C 0.04097 0.70788 0.04756 0.0
H100 H 0.71188 0.59709 0.90424 0.0
H101 H 0.08718 0.73865 0.06762 0.0
H102 H 0.04534 0.53197 1.00498 0.0
H103 H 0.72179 0.49021 0.87329 0.0
H104 H 0.9714 0.77236 0.04092 0.0
H105 H 0.38582 0.78418 0.9855 0.0
H106 H 0.09876 0.63448 0.04843 0.0
H107 H 0.76255 0.94444 0.14265 0.0
H108 H 0.50483 0.75684 1.01429 0.0
H109 H 0.7495 0.05001 0.16708 0.0
H110 H 0.94284 0.46439 0.95402 0.0
H111 H 0.36872 0.88594 0.99937 0.0
H112 H 0.41912 0.98967 0.03683 0.0
H113 H 0.82477 0.44802 0.90253 0.0
H114 H 0.51991 0.06191 0.08496 0.0
N115 N 0.55755 0.84202 0.04381 0.0
C116 C 0.49892 0.80154 1.02104 0.0
C117 C 0.42147 0.87422 1.01224 0.0
C118 C 0.47919 0.91616 0.03769 0.0
C119 C 0.43086 0.81682 1.00445 0.0
C120 C 0.54693 0.89847 0.05341 0.0
H121 H 0.64161 0.08526 0.13531 0.0
N122 N 0.66411 0.92002 0.09679 0.0
C123 C 0.70795 0.0192 0.14257 0.0
C124 C 0.60239 0.93901 0.0809 0.0
C125 C 0.71494 0.95939 0.1288 0.0
C126 C 0.64716 0.03893 0.12448 0.0
C127 C 0.59261 0.99875 0.09373 0.0
O128 O 0.67728 0.85079 0.14036 0.0
O129 O 0.77053 0.75878 0.05268 0.0
O130 O 0.72829 0.66512 1.00472 0.0
O131 O 0.62316 0.73141 0.0403 0.0
O132 O 0.78278 0.83487 0.11093 0.0
O133 O 0.57591 0.80124 0.10058 0.0
O134 O 0.80118 0.6934 0.91373 0.0
O135 O 0.70586 0.77795 1.00066 0.0
O136 O 0.74933 0.86967 0.04696 0.0
O137 O 0.85634 0.80411 1.01522 0.0
O138 O 0.6939 0.7037 0.94162 0.0
O139 O 0.90536 0.73404 0.95473 0.0
C140 C 0.81581 0.78485 0.08639 0.0
C141 C 0.55239 0.8661 0.17757 0.0
C142 C 0.48823 0.88698 0.24888 0.0
C143 C 0.54109 0.85337 0.21318 0.0
C144 C 0.44748 0.93422 0.24853 0.0
C145 C 0.51123 0.91319 0.17765 0.0
C146 C 0.45896 0.94704 0.21306 0.0
C147 C 0.6552 0.67812 1.02275 0.0
C148 C 0.60694 0.82893 0.14078 0.0
C149 C 0.52757 1.01641 0.07642 0.0
C150 C 0.47049 0.97523 0.04876 0.0
C151 C 0.66048 0.75325 0.96696 0.0
C152 C 0.9269 0.67072 0.87716 0.0
C153 C 0.93721 0.67946 0.83946 0.0
C154 C 0.98684 0.64186 0.80322 0.0
C155 C 0.02541 0.59513 0.80558 0.0
C156 C 0.96625 0.62407 0.87876 0.0
C157 C 0.01523 0.58653 0.84308 0.0
C158 C 0.82407 0.85707 0.03143 0.0
C159 C 0.87487 0.71081 0.91435 0.0
H160 H 0.5737 0.8171 0.213 0.0
H161 H 0.40518 0.96026 0.27499 0.0
H162 H 0.51897 0.92343 0.15033 0.0
H163 H 0.42635 0.98281 0.21265 0.0
H164 H 0.90801 0.71649 0.83904 0.0
H165 H 0.06387 0.56526 0.77856 0.0
H166 H 0.95975 0.61695 0.90762 0.0
H167 H 0.04613 0.55096 0.84467 0.0
Tb168 Tb 0.17343 0.71514 0.48487 0.0
C169 C 0.37335 0.94041 0.58902 0.0
C170 C 0.49744 0.92297 0.54687 0.0
C171 C 0.45056 0.02259 0.59347 0.0
C172 C 0.42905 0.90193 0.55958 0.0
C173 C 0.38376 1.00128 0.60685 0.0
C174 C 0.50744 0.98346 0.5636 0.0
C175 C 0.26596 1.01541 0.65304 0.0
N176 N 0.31131 0.91808 0.60223 0.0
C177 C 0.25904 0.95473 0.63493 0.0
C178 C 0.32832 0.03883 0.63874 0.0
Tb179 Tb 0.30605 0.81816 0.57183 0.0
N180 N 0.41898 0.84411 0.54591 0.0
C181 C 0.47782 0.80516 0.52103 0.0
C182 C 0.55524 0.88278 0.51917 0.0
C183 C 0.54572 0.82366 0.50657 0.0
H184 H 0.21088 0.93726 0.64652 0.0
H185 H 0.59092 0.79228 0.48594 0.0
H186 H 0.55988 1.00047 0.55449 0.0
H187 H 0.22356 0.04409 0.67829 0.0
H188 H 0.47219 0.75936 0.51119 0.0
H189 H 0.88875 0.74319 0.57155 0.0
H190 H 0.60837 0.8971 0.50839 0.0
H191 H 0.26534 0.59499 0.40926 0.0
H192 H 0.00687 0.77496 0.54494 0.0
H193 H 0.25259 0.48836 0.37884 0.0
H194 H 0.45975 0.06919 0.60676 0.0
H195 H 0.8717 0.63892 0.55099 0.0
H196 H 0.92085 0.53526 0.50669 0.0
H197 H 0.33419 0.08586 0.65326 0.0
H198 H 0.02006 0.46571 0.45419 0.0
N199 N 0.05953 0.68996 0.51071 0.0
C200 C 0.00107 0.72931 0.53557 0.0
C201 C 0.92425 0.65266 0.53932 0.0
C202 C 0.98158 0.61201 0.51161 0.0
C203 C 0.93358 0.71148 0.55087 0.0
C204 C 0.04916 0.63236 0.49769 0.0
H205 H 0.14369 0.4478 0.40596 0.0
N206 N 0.16603 0.61524 0.45441 0.0
C207 C 0.21066 0.51747 0.40419 0.0
C208 C 0.10439 0.59349 0.46832 0.0
C209 C 0.21757 0.57804 0.4215 0.0
C210 C 0.14921 0.49471 0.41962 0.0
C211 C 0.09431 0.53278 0.4516 0.0
O212 O 0.17324 0.69134 0.41593 0.0
O213 O 0.27167 0.77621 0.50217 0.0
O214 O 0.23294 0.86849 0.5491 0.0
O215 O 0.12313 0.80518 0.51923 0.0
O216 O 0.28049 0.70179 0.44275 0.0
O217 O 0.0727 0.73763 0.45851 0.0
O218 O 0.30627 0.8418 0.64072 0.0
O219 O 0.20831 0.7567 0.55434 0.0
O220 O 0.24881 0.66437 0.50653 0.0
O221 O 0.35733 0.72874 0.53792 0.0
O222 O 0.19921 0.83042 0.61412 0.0
O223 O 0.40847 0.79809 0.59861 0.0
C224 C 0.31556 0.75075 0.46778 0.0
C225 C 0.04634 0.67649 0.38116 0.0
C226 C 0.98378 0.65506 0.30942 0.0
C227 C 0.03667 0.68853 0.34509 0.0
C228 C 0.9412 0.60879 0.31032 0.0
C229 C 0.00318 0.63044 0.38163 0.0
C230 C 0.95077 0.59684 0.34634 0.0
C231 C 0.15748 0.85753 0.53476 0.0
C232 C 0.10176 0.71286 0.41772 0.0
C233 C 0.02865 0.51215 0.46638 0.0
C234 C 0.97227 0.55175 0.49633 0.0
C235 C 0.16453 0.7814 0.58881 0.0
C236 C 0.43304 0.86171 0.67585 0.0
C237 C 0.44285 0.85323 0.71367 0.0
C238 C 0.49372 0.8901 0.74942 0.0
C239 C 0.53422 0.93579 0.74644 0.0
C240 C 0.47407 0.90741 0.67366 0.0
C241 C 0.52428 0.94428 0.70886 0.0
C242 C 0.32397 0.67601 0.52154 0.0
C243 C 0.37918 0.82263 0.63937 0.0
H244 H 0.07063 0.72404 0.34482 0.0
H245 H 0.899 0.58282 0.28382 0.0
H246 H 0.00952 0.62075 0.40927 0.0
H247 H 0.91677 0.56187 0.34723 0.0
H248 H 0.41211 0.81701 0.71461 0.0
H249 H 0.57376 0.96503 0.7731 0.0
H250 H 0.46781 0.9144 0.64477 0.0
H251 H 0.55597 0.97938 0.70685 0.0
Tb252 Tb 0.68329 0.21753 0.48519 0.0
C253 C 0.8772 0.44559 0.59229 0.0
C254 C -3e-05 0.42896 0.54924 0.0
C255 C 0.95183 0.52823 0.5958 0.0
C256 C 0.9327 0.40753 0.56252 0.0
C257 C 0.88683 0.50652 0.61018 0.0
C258 C 0.00841 0.48946 0.56537 0.0
C259 C 0.77218 0.51977 0.6583 0.0
N260 N 0.81631 0.42279 0.60584 0.0
C261 C 0.76543 0.45898 0.63961 0.0
C262 C 0.83252 0.54367 0.6431 0.0
Tb263 Tb 0.81018 0.32283 0.57406 0.0
N264 N 0.9235 0.34969 0.54898 0.0
C265 C 0.98316 0.31124 0.52453 0.0
C266 C 0.05817 0.38914 0.52158 0.0
C267 C 0.05026 0.33012 0.50972 0.0
H268 H 0.71844 0.44108 0.65158 0.0
H269 H 0.09594 0.29908 0.48925 0.0
H270 H 0.05954 0.50678 0.55549 0.0
H271 H 0.73082 0.54813 0.68439 0.0
H272 H 0.97855 0.26547 0.51507 0.0
H273 H 0.39732 0.24279 0.57026 0.0
H274 H 0.1105 0.40372 0.51038 0.0
H275 H 0.77341 0.09835 0.40771 0.0
H276 H 0.51374 0.27551 0.54309 0.0
H277 H 0.7626 0.99148 0.3774 0.0
H278 H 0.95997 0.57486 0.6088 0.0
H279 H 0.38509 0.13904 0.55219 0.0
H280 H 0.43858 0.03633 0.51009 0.0
H281 H 0.8378 0.59073 0.65773 0.0
H282 H 0.54027 0.96785 0.45891 0.0
N283 N 0.57001 0.19159 0.51091 0.0
C284 C 0.50993 0.23007 0.53473 0.0
C285 C 0.43679 0.1532 0.5402 0.0
C286 C 0.49561 0.11329 0.51333 0.0
C287 C 0.4434 0.21171 0.55035 0.0
C288 C 0.56195 0.13413 0.49892 0.0
H289 H 0.65881 0.95035 0.40719 0.0
N290 N 0.67753 0.11779 0.45478 0.0
C291 C 0.72179 0.02035 0.40361 0.0
C292 C 0.61775 0.09571 0.46963 0.0
C293 C 0.72761 0.08098 0.42082 0.0
C294 C 0.66334 0.99729 0.42061 0.0
C295 C 0.60958 0.03506 0.4536 0.0
O296 O 0.68513 0.1934 0.41618 0.0
O297 O 0.77866 0.28112 0.50393 0.0
O298 O 0.73367 0.37355 0.55275 0.0
O299 O 0.62974 0.30615 0.51743 0.0
O300 O 0.79202 0.20658 0.44478 0.0
O301 O 0.58152 0.23628 0.45735 0.0
O302 O 0.80937 0.34654 0.64303 0.0
O303 O 0.71453 0.25967 0.55526 0.0
O304 O 0.75918 0.16727 0.50695 0.0
O305 O 0.86396 0.23403 0.54154 0.0
O306 O 0.70167 0.33355 0.61469 0.0
O307 O 0.911 0.30144 0.60085 0.0
C308 C 0.82423 0.25661 0.47014 0.0
C309 C 0.55911 0.17337 0.38001 0.0
C310 C 0.49651 0.14986 0.30801 0.0
C311 C 0.54847 0.18462 0.34369 0.0
C312 C 0.45616 0.10286 0.30897 0.0
C313 C 0.51844 0.12643 0.38056 0.0
C314 C 0.46727 0.09129 0.34505 0.0
C315 C 0.66041 0.35981 0.53498 0.0
C316 C 0.61213 0.21207 0.41695 0.0
C317 C 0.54642 1.01416 0.46983 0.0
C318 C 0.48896 0.05319 0.4993 0.0
C319 C 0.66908 0.28376 0.58911 0.0
C320 C 0.9363 0.36262 0.67809 0.0
C321 C 0.94499 0.35118 0.71446 0.0
C322 C -0.00058 0.38362 0.74952 0.0
C323 C 0.0441 0.42862 0.74787 0.0
C324 C 0.98141 0.40743 0.67686 0.0
C325 C 0.03504 0.44026 0.71168 0.0
C326 C 0.83254 0.18059 0.52447 0.0
C327 C 0.88138 0.32587 0.64148 0.0
H328 H 0.58066 0.22076 0.34337 0.0
H329 H 0.41434 0.07616 0.28254 0.0
H330 H 0.52549 0.11733 0.40844 0.0
H331 H 0.43508 0.05561 0.34587 0.0
H332 H 0.90947 0.31663 0.71524 0.0
H333 H 0.08762 0.45371 0.77384 0.0
H334 H 0.97597 0.41652 0.64888 0.0
H335 H 0.07066 0.47417 0.71016 0.0
H336 H 0.6953 0.56263 0.98884 0.0
H337 H 0.50758 0.68706 0.06221 0.0
H338 H 0.61645 0.48516 0.99001 0.0
H339 H 0.43152 0.61055 0.06715 0.0
H340 H 0.27447 0.452 0.0309 0.0
H341 H 0.35205 0.5294 0.02814 0.0
H342 H 0.57306 0.44415 0.03324 0.0
H343 H 0.49476 0.36473 0.03287 0.0
C344 C 0.63707 0.57357 1.00512 0.0
C345 C 0.60724 0.63101 0.0244 0.0
C346 C 0.59219 0.52909 1.00663 0.0
C347 C 0.51709 0.5411 0.02871 0.0
C348 C 0.48802 0.59897 0.04887 0.0
C349 C 0.53214 0.64319 0.04637 0.0
C350 C 0.3397 0.44981 0.03135 0.0
C351 C 0.37863 0.40215 0.03184 0.0
C352 C 0.38441 0.49456 0.03015 0.0
C353 C 0.46931 0.49349 0.03044 0.0
C354 C 0.508 0.44611 0.03185 0.0
C355 C 0.46317 0.40064 0.032 0.0
H356 H 0.48803 0.66795 0.5215 0.0
H357 H 0.27033 0.57633 0.52091 0.0
H358 H 0.5687 0.59096 0.52308 0.0
H359 H 0.35041 0.50108 0.52551 0.0
H360 H 0.51365 0.34758 0.49438 0.0
H361 H 0.43441 0.42188 0.48848 0.0
H362 H 0.61204 0.55219 0.568 0.0
H363 H 0.6943 0.47681 0.57054 0.0
C364 C 0.45741 0.63149 0.52207 0.0
C365 C 0.37288 0.62824 0.52109 0.0
C366 C 0.50369 0.58745 0.52343 0.0
C367 C 0.46657 0.53961 0.52487 0.0
C368 C 0.38167 0.53644 0.52366 0.0
C369 C 0.33547 0.57988 0.5213 0.0
C370 C 0.53602 0.39205 0.51061 0.0
C371 C 0.61028 0.40612 0.53345 0.0
C372 C 0.48996 0.43502 0.50754 0.0
C373 C 0.51608 0.49356 0.52791 0.0
C374 C 0.59012 0.50762 0.55113 0.0
C375 C 0.637 0.46437 0.55333 0.0
H376 H 0.01821 0.18644 0.06491 0.0
H377 H 0.1987 0.05795 0.98685 0.0
H378 H 0.93827 0.11106 0.06886 0.0
H379 H 0.11567 0.98158 0.98753 0.0
H380 H 0.98823 0.86369 0.0315 0.0
H381 H 0.07053 0.94098 0.03129 0.0
H382 H 0.85415 0.03248 0.02883 0.0
H383 H 0.7724 0.95688 0.03191 0.0
C384 C 0.04044 0.14194 0.04789 0.0
C385 C 0.1147 0.12832 0.02498 0.0
C386 C -0.00602 0.09839 0.04983 0.0
C387 C 0.01973 0.03978 0.02822 0.0
C388 C 0.09403 0.0262 1.00519 0.0
C389 C 0.14133 0.07002 1.0041 0.0
C390 C 0.95841 0.90052 0.03113 0.0
C391 C 0.87395 0.90429 0.0318 0.0
C392 C 0.0056 0.94472 0.03061 0.0
C393 C 0.9694 0.99319 0.02978 0.0
C394 C 0.88458 0.99663 0.03034 0.0
C395 C 0.83747 0.95302 0.03182 0.0
H396 H 0.79282 0.06524 0.49176 0.0
H397 H 0.98161 0.18989 0.56253 0.0
H398 H 0.87199 0.98833 0.49341 0.0
H399 H 0.05808 0.11399 0.56808 0.0
H400 H 0.21432 0.95521 0.53366 0.0
H401 H 0.13713 0.03243 0.53045 0.0
H402 H 0.91572 0.94842 0.53701 0.0
H403 H -0.00645 0.86915 0.53697 0.0
C404 C 0.85141 0.07634 0.50754 0.0
C405 C 0.88131 0.13371 0.52601 0.0
C406 C 0.89649 0.03219 0.50937 0.0
C407 C 0.97194 0.04441 0.53101 0.0
C408 C 0.00126 0.10218 0.5502 0.0
C409 C 0.95691 0.14608 0.54736 0.0
C410 C 0.14909 0.95328 0.53437 0.0
C411 C 0.10994 0.9059 0.53527 0.0
C412 C 0.10457 0.99795 0.5329 0.0
C413 C 0.01964 0.99712 0.53334 0.0
C414 C 0.98078 0.95018 0.5354 0.0
C415 C 0.02538 0.90479 0.53579 0.0
H416 H 0.47307 0.25786 0.31558 0.0
H417 H 0.48605 0.07511 0.21712 0.0
H418 H 0.44688 0.28301 0.25629 0.0
H419 H 0.4585 0.10026 0.15743 0.0
H420 H 0.30492 0.17055 0.07717 0.0
H421 H 0.35648 0.13445 0.12681 0.0
H422 H 0.50311 0.28992 0.19512 0.0
H423 H 0.44832 0.32681 0.14649 0.0
C424 C 0.4717 0.22306 0.28108 0.0
C425 C 0.4821 0.16451 0.27109 0.0
C426 C 0.45698 0.23749 0.2469 0.0
C427 C 0.45232 0.19378 0.20164 0.0
C428 C 0.46238 0.13509 0.19167 0.0
C429 C 0.47749 0.12061 0.22596 0.0
C430 C 0.34966 0.19623 0.10199 0.0
C431 C 0.37231 0.25168 0.10826 0.0
C432 C 0.37939 0.17555 0.13059 0.0
C433 C 0.43247 0.20995 0.1659 0.0
C434 C 0.46026 0.26311 0.16934 0.0
C435 C 0.42969 0.28404 0.14122 0.0
H436 H 0.47417 0.95994 0.34002 0.0
H437 H 0.46745 0.7778 0.23986 0.0
H438 H 0.4449 0.93296 0.39858 0.0
H439 H 0.43955 0.75076 0.29802 0.0
H440 H 0.43597 0.70463 0.40722 0.0
H441 H 0.49089 0.74212 0.3589 0.0
H442 H 0.34425 0.89749 0.42813 0.0
H443 H 0.29279 0.86078 0.47734 0.0
C444 C 0.46663 0.91416 0.33053 0.0
C445 C 0.4734 0.87105 0.28522 0.0
C446 C 0.45052 0.89861 0.36421 0.0
C447 C 0.44156 0.83953 0.35349 0.0
C448 C 0.44863 0.79658 0.30807 0.0
C449 C 0.46438 0.8121 0.2745 0.0
C450 C 0.4174 0.74751 0.41276 0.0
C451 C 0.36044 0.77983 0.44612 0.0
C452 C 0.44799 0.76879 0.38476 0.0
C453 C 0.42055 0.82226 0.38863 0.0
C454 C 0.36728 0.85629 0.42405 0.0
C455 C 0.33763 0.83528 0.45252 0.0
H456 H 0.5454 0.70737 0.90268 0.0
H457 H 0.67947 0.86601 0.98148 0.0
H458 H 0.49256 0.74885 0.85632 0.0
H459 H 0.62559 0.90792 0.93627 0.0
H460 H 0.63412 0.90262 0.79595 0.0
H461 H 0.65897 0.87953 0.85654 0.0
H462 H 0.41028 0.82803 0.85216 0.0
H463 H 0.38409 0.85308 0.79209 0.0
C464 C 0.56163 0.75173 0.91093 0.0
C465 C 0.61618 0.78348 0.94595 0.0
C466 C 0.53115 0.7756 0.88458 0.0
C467 C 0.55561 0.83145 0.89237 0.0
C468 C 0.60642 0.8645 0.9291 0.0
C469 C 0.63673 0.84063 0.95542 0.0
C470 C 0.58392 0.88785 0.80847 0.0
C471 C 0.5071 0.87947 0.78869 0.0
C472 C 0.59832 0.87453 0.84332 0.0
C473 C 0.5366 0.85189 0.85912 0.0
C474 C 0.45922 0.84483 0.84032 0.0
C475 C 0.44448 0.85885 0.80571 0.0
H476 H 0.6891 0.1708 0.5742 0.0
H477 H 0.55344 0.32871 0.65316 0.0
H478 H 0.63425 0.12811 0.61898 0.0
H479 H 0.49949 0.28644 0.69878 0.0
H480 H 0.38811 0.18144 0.76159 0.0
H481 H 0.41642 0.20678 0.70178 0.0
H482 H 0.66489 0.15589 0.6991 0.0
H483 H 0.63782 0.1323 0.75927 0.0
C484 C 0.64591 0.19585 0.60026 0.0
C485 C 0.62513 0.25304 0.60994 0.0
C486 C 0.615 0.17155 0.62626 0.0
C487 C 0.56318 0.20412 0.66274 0.0
C488 C 0.53876 0.26002 0.67072 0.0
C489 C 0.56992 0.28435 0.64478 0.0
C490 C 0.44886 0.17581 0.74835 0.0
C491 C 0.51072 0.1551 0.76567 0.0
C492 C 0.46485 0.18998 0.71388 0.0
C493 C 0.54281 0.18318 0.69562 0.0
C494 C 0.60382 0.16065 0.71183 0.0
C495 C 0.58815 0.14709 0.74648 0.0
H496 H 0.79238 0.67559 0.07835 0.0
H497 H 0.93592 0.83188 0.14682 0.0
H498 H 0.8434 0.64044 0.12869 0.0
H499 H 0.99021 0.79595 0.19619 0.0
H500 H 0.96438 0.76355 0.31698 0.0
H501 H 0.93763 0.78901 0.25783 0.0
H502 H 0.94517 0.60612 0.15885 0.0
H503 H 0.97261 0.58079 0.21845 0.0
C504 C 0.83702 0.7015 0.10316 0.0
C505 C 0.86008 0.75658 0.10881 0.0
C506 C 0.86646 0.68136 0.13219 0.0
C507 C 0.9197 0.71592 0.1674 0.0
C508 C 0.94736 0.76894 0.1705 0.0
C509 C 0.91708 0.78932 0.14192 0.0
C510 C 0.96188 0.72879 0.2825 0.0
C511 C 0.97071 0.67011 0.27251 0.0
C512 C 0.94682 0.74338 0.24836 0.0
C513 C 0.94045 0.69972 0.20312 0.0
C514 C 0.94982 0.64095 0.19311 0.0
C515 C 0.96502 0.62634 0.22736 0.0
H516 H 0.93839 0.21019 0.40543 0.0
H517 H 0.80732 0.37002 0.48545 0.0
H518 H -0.00662 0.25171 0.35961 0.0
H519 H 0.86317 0.41203 0.4403 0.0
H520 H 0.86176 0.40951 0.30052 0.0
H521 H 0.83314 0.38647 0.36083 0.0
H522 H 0.07874 0.32885 0.35588 0.0
H523 H 0.10871 0.35368 0.29604 0.0
C524 C 0.92308 0.25478 0.41394 0.0
C525 C 0.86878 0.28683 0.4491 0.0
C526 C 0.95486 0.27871 0.38788 0.0
C527 C 0.93205 0.33499 0.39604 0.0
C528 C 0.88112 0.36827 0.43283 0.0
C529 C 0.84964 0.34437 0.45902 0.0
C530 C 0.91055 0.39333 0.31283 0.0
C531 C 0.98759 0.38323 0.29293 0.0
C532 C 0.89397 0.38009 0.34758 0.0
C533 C 0.95361 0.35577 0.36318 0.0
C534 C 0.03125 0.34697 0.34425 0.0
C535 C 0.04819 0.36085 0.30972 0.0
H536 H 0.01002 0.27472 0.74235 0.0
H537 H 0.01889 0.45791 0.83998 0.0
H538 H 0.03558 0.24889 0.80132 0.0
H539 H 0.04681 0.43217 0.89916 0.0
H540 H 0.19589 0.35767 0.97648 0.0
H541 H 0.14454 0.39429 0.92749 0.0
H542 H 0.98616 0.24449 0.86431 0.0
H543 H 0.0412 0.20682 0.91245 0.0
C544 C 0.01592 0.3096 0.77663 0.0
C545 C 0.01209 0.36846 0.78639 0.0
C546 C 0.03036 0.29478 0.81067 0.0
C547 C 0.0415 0.33839 0.85555 0.0
C548 C 0.03762 0.39733 0.86528 0.0
C549 C 0.02249 0.41218 0.8312 0.0
C550 C 0.14839 0.33353 0.95322 0.0
C551 C 0.12231 0.27947 0.94841 0.0
C552 C 0.11879 0.35449 0.92482 0.0
C553 C 0.06225 0.32181 0.89102 0.0
C554 C 0.03154 0.27001 0.88888 0.0
C555 C 0.06216 0.24869 0.91681 0.0
H556 H 0.05175 0.8287 0.65433 0.0
H557 H 0.17801 0.66735 0.57216 0.0
H558 H -0.00421 0.78656 0.69961 0.0
H559 H 0.12113 0.62483 0.61649 0.0
H560 H 0.12724 0.62645 0.75582 0.0
H561 H 0.15441 0.65022 0.69579 0.0
H562 H 0.9087 0.70847 0.70249 0.0
H563 H 0.87999 0.68266 0.76195 0.0
C564 C 0.06569 0.78369 0.64518 0.0
C565 C 0.11896 0.75132 0.60954 0.0
C566 C 0.03336 0.75944 0.6709 0.0
C567 C 0.05468 0.70254 0.66185 0.0
C568 C 0.10432 0.66902 0.62458 0.0
C569 C 0.13641 0.69326 0.59883 0.0
C570 C 0.07806 0.64281 0.74391 0.0
C571 C 0.0014 0.65287 0.7642 0.0
C572 C 0.09382 0.65652 0.70936 0.0
C573 C 0.03373 0.6813 0.69442 0.0
C574 C 0.95644 0.68999 0.71367 0.0
C575 C 0.94027 0.67554 0.74795 0.0
loop_
_geom_bond_atom_site_label_1
_geom_bond_atom_site_label_2
_geom_bond_distance
_geom_bond_site_symmetry_2
_ccdc_geom_bond_type
Tb0 N31 2.660 . S
Tb0 N38 2.600 . S
Tb0 O44 2.546 . S
Tb0 O45 2.610 . S
Tb0 O47 2.320 . S
Tb0 O48 2.552 . S
Tb0 O49 2.413 . S
Tb0 O51 2.362 1_554 S
Tb0 O52 2.421 . S
Tb0 C64 2.833 . S
C1 C4 1.432 . S
C1 C5 1.414 . S
C1 N8 1.359 . S
C2 C4 1.417 1_554 S
C2 C6 1.432 . S
C2 C14 1.410 . S
C3 C5 1.444 . S
C3 C6 1.317 1_556 S
C3 H26 0.929 . S
C4 C1 1.432 . S
C4 C2 1.417 1_556 S
C4 N12 1.360 . S
C5 C1 1.414 . S
C5 C3 1.444 . S
C5 C10 1.385 . S
C6 C2 1.432 . S
C6 C3 1.317 1_554 S
C6 H18 0.930 . S
C7 C9 1.392 . S
C7 C10 1.370 . S
C7 H19 0.931 1_545 S
N8 C1 1.359 . S
N8 C9 1.327 . S
N8 Tb11 2.600 . S
C9 C7 1.392 . S
C9 N8 1.327 . S
C9 H16 0.930 . S
C10 C5 1.385 . S
C10 C7 1.370 . S
C10 H29 0.930 1_545 S
Tb11 N8 2.600 . S
Tb11 N12 2.660 . S
Tb11 O45 2.362 1_556 S
Tb11 O46 2.421 . S
Tb11 O50 2.546 . S
Tb11 O51 2.610 . S
Tb11 O53 2.320 . S
Tb11 O54 2.552 . S
Tb11 O55 2.413 . S
Tb11 C75 2.833 . S
N12 C4 1.360 . S
N12 Tb11 2.660 . S
N12 C13 1.305 1_556 S
C13 N12 1.305 1_554 S
C13 C15 1.407 . S
C13 H20 0.930 . S
C14 C2 1.410 . S
C14 C15 1.345 . S
C14 H22 0.930 . S
C15 C13 1.407 . S
C15 C14 1.345 . S
C15 H17 0.930 . S
H16 C9 0.930 . S
H17 C15 0.930 . S
H18 C6 0.930 . S
H19 C7 0.931 1_565 S
H20 C13 0.930 . S
H21 C35 0.930 . S
H22 C14 0.930 . S
H23 C41 0.930 . S
H24 C32 0.930 1_455 S
H25 C39 0.931 . S
H26 C3 0.929 . S
H27 C33 0.930 . S
H28 C66 0.930 1_556 S
H29 C10 0.930 1_565 S
H30 C65 0.929 . S
N31 Tb0 2.660 . S
N31 C32 1.305 1_454 S
N31 C36 1.360 1_455 S
C32 H24 0.930 1_655 S
C32 N31 1.305 1_656 S
C32 C35 1.407 . S
C33 H27 0.930 . S
C33 C34 1.410 . S
C33 C35 1.345 . S
C34 C33 1.410 . S
C34 C36 1.417 1_556 S
C34 C66 1.432 1_556 S
C35 H21 0.930 . S
C35 C32 1.407 . S
C35 C33 1.345 . S
C36 N31 1.360 1_655 S
C36 C34 1.417 1_554 S
C36 C40 1.432 1_655 S
H37 C42 0.930 1_655 S
N38 Tb0 2.600 . S
N38 C40 1.359 . S
N38 C41 1.327 . S
C39 H25 0.931 . S
C39 C41 1.392 . S
C39 C42 1.370 . S
C40 C36 1.432 1_455 S
C40 N38 1.359 . S
C40 C43 1.414 1_455 S
C41 H23 0.930 . S
C41 N38 1.327 . S
C41 C39 1.392 . S
C42 H37 0.930 1_455 S
C42 C39 1.370 . S
C42 C43 1.385 1_455 S
C43 C40 1.414 1_655 S
C43 C42 1.385 1_655 S
C43 C65 1.444 . S
O44 Tb0 2.546 . S
O44 C64 1.251 . S
O45 Tb0 2.610 . S
O45 Tb11 2.362 1_554 S
O45 C56 1.283 . S
O46 Tb11 2.421 . S
O46 C63 1.262 . S
O47 Tb0 2.320 . S
O47 C63 1.260 1_554 S
O48 Tb0 2.552 . S
O48 C56 1.243 . S
O49 Tb0 2.413 . S
O49 C64 1.256 . S
O50 Tb11 2.546 . S
O50 C75 1.251 . S
O51 Tb0 2.362 1_556 S
O51 Tb11 2.610 . S
O51 C67 1.283 . S
O52 Tb0 2.421 . S
O52 C74 1.262 . S
O53 Tb11 2.320 . S
O53 C74 1.260 1_556 S
O54 Tb11 2.552 . S
O54 C67 1.243 . S
O55 Tb11 2.413 . S
O55 C75 1.256 . S
C56 O45 1.283 . S
C56 O48 1.243 . S
C57 C59 1.382 . S
C57 C61 1.393 . S
C57 C64 1.500 . S
C58 C59 1.400 1_655 S
C58 C60 1.384 . S
C59 C57 1.382 . S
C59 C58 1.400 1_455 S
C59 H76 0.930 . S
C60 C58 1.384 . S
C60 C62 1.392 . S
C60 H77 0.931 . S
C61 C57 1.393 . S
C61 C62 1.401 1_455 S
C61 H78 0.930 . S
C62 C60 1.392 . S
C62 C61 1.401 1_655 S
C62 H79 0.930 . S
C63 O46 1.262 . S
C63 O47 1.260 1_556 S
C64 Tb0 2.833 . S
C64 O44 1.251 . S
C64 O49 1.256 . S
C64 C57 1.500 . S
C65 H30 0.929 . S
C65 C43 1.444 . S
C65 C66 1.317 . S
C66 H28 0.930 1_554 S
C66 C34 1.432 1_554 S
C66 C65 1.317 . S
C67 O51 1.283 . S
C67 O54 1.243 . S
C68 C69 1.382 . S
C68 C72 1.393 . S
C68 C75 1.500 . S
C69 C68 1.382 . S
C69 C70 1.400 . S
C69 H80 0.930 . S
C70 C69 1.400 . S
C70 C71 1.384 . S
C71 C70 1.384 . S
C71 C73 1.392 . S
C71 H81 0.931 . S
C72 C68 1.393 . S
C72 C73 1.401 . S
C72 H82 0.930 . S
C73 C71 1.392 . S
C73 C72 1.401 . S
C73 H83 0.930 . S
C74 O52 1.262 . S
C74 O53 1.260 1_554 S
C75 Tb11 2.833 . S
C75 O50 1.251 . S
C75 O55 1.256 . S
C75 C68 1.500 . S
H76 C59 0.930 . S
H77 C60 0.931 . S
H78 C61 0.930 . S
H79 C62 0.930 . S
H80 C69 0.930 . S
H81 C71 0.931 . S
H82 C72 0.930 . S
H83 C73 0.930 . S
Tb84 N115 2.660 . S
Tb84 N122 2.600 . S
Tb84 O128 2.546 . S
Tb84 O129 2.610 . S
Tb84 O131 2.320 . S
Tb84 O132 2.552 . S
Tb84 O133 2.413 . S
Tb84 O135 2.362 1_554 S
Tb84 O136 2.421 . S
Tb84 C148 2.833 . S
C85 C88 1.432 1_655 S
C85 C89 1.414 1_655 S
C85 N92 1.359 . S
C86 C88 1.417 1_554 S
C86 C90 1.432 . S
C86 C98 1.410 . S
C87 C89 1.444 . S
C87 C90 1.317 1_556 S
C87 H110 0.929 . S
C88 C85 1.432 1_455 S
C88 C86 1.417 1_556 S
C88 N96 1.360 1_455 S
C89 C85 1.414 1_455 S
C89 C87 1.444 . S
C89 C94 1.385 1_455 S
C90 C86 1.432 . S
C90 C87 1.317 1_554 S
C90 H102 0.930 . S
C91 C93 1.392 . S
C91 C94 1.370 . S
C91 H103 0.931 . S
N92 C85 1.359 . S
N92 C93 1.327 . S
N92 Tb95 2.600 . S
C93 C91 1.392 . S
C93 N92 1.327 . S
C93 H100 0.930 . S
C94 C89 1.385 1_655 S
C94 C91 1.370 . S
C94 H113 0.930 1_655 S
Tb95 N92 2.600 . S
Tb95 N96 2.660 . S
Tb95 O129 2.362 1_556 S
Tb95 O130 2.421 . S
Tb95 O134 2.546 . S
Tb95 O135 2.610 . S
Tb95 O137 2.320 . S
Tb95 O138 2.552 . S
Tb95 O139 2.413 . S
Tb95 C159 2.833 . S
N96 C88 1.360 1_655 S
N96 Tb95 2.660 . S
N96 C97 1.305 1_656 S
C97 N96 1.305 1_454 S
C97 C99 1.407 . S
C97 H104 0.930 1_455 S
C98 C86 1.410 . S
C98 C99 1.345 . S
C98 H106 0.930 . S
C99 C97 1.407 . S
C99 C98 1.345 . S
C99 H101 0.930 . S
H100 C93 0.930 . S
H101 C99 0.930 . S
H102 C90 0.930 . S
H103 C91 0.931 . S
H104 C97 0.930 1_655 S
H105 C119 0.930 . S
H106 C98 0.930 . S
H107 C125 0.930 . S
H108 C116 0.930 . S
H109 C123 0.931 1_545 S
H110 C87 0.929 . S
H111 C117 0.930 . S
H112 C150 0.930 1_556 S
H113 C94 0.930 1_455 S
H114 C149 0.929 . S
N115 Tb84 2.660 . S
N115 C116 1.305 1_554 S
N115 C120 1.360 . S
C116 H108 0.930 . S
C116 N115 1.305 1_556 S
C116 C119 1.407 . S
C117 H111 0.930 . S
C117 C118 1.410 . S
C117 C119 1.345 . S
C118 C117 1.410 . S
C118 C120 1.417 1_556 S
C118 C150 1.432 1_556 S
C119 H105 0.930 . S
C119 C116 1.407 . S
C119 C117 1.345 . S
C120 N115 1.360 . S
C120 C118 1.417 1_554 S
C120 C124 1.432 . S
H121 C126 0.930 1_545 S
N122 Tb84 2.600 . S
N122 C124 1.359 . S
N122 C125 1.327 . S
C123 H109 0.931 1_565 S
C123 C125 1.392 . S
C123 C126 1.370 . S
C124 C120 1.432 . S
C124 N122 1.359 . S
C124 C127 1.414 . S
C125 H107 0.930 . S
C125 N122 1.327 . S
C125 C123 1.392 . S
C126 H121 0.930 1_565 S
C126 C123 1.370 . S
C126 C127 1.385 . S
C127 C124 1.414 . S
C127 C126 1.385 . S
C127 C149 1.444 . S
O128 Tb84 2.546 . S
O128 C148 1.251 . S
O129 Tb84 2.610 . S
O129 Tb95 2.362 1_554 S
O129 C140 1.283 . S
O130 Tb95 2.421 . S
O130 C147 1.262 . S
O131 Tb84 2.320 . S
O131 C147 1.260 1_554 S
O132 Tb84 2.552 . S
O132 C140 1.243 . S
O133 Tb84 2.413 . S
O133 C148 1.256 . S
O134 Tb95 2.546 . S
O134 C159 1.251 . S
O135 Tb84 2.362 1_556 S
O135 Tb95 2.610 . S
O135 C151 1.283 . S
O136 Tb84 2.421 . S
O136 C158 1.262 . S
O137 Tb95 2.320 . S
O137 C158 1.260 1_556 S
O138 Tb95 2.552 . S
O138 C151 1.243 . S
O139 Tb95 2.413 . S
O139 C159 1.256 . S
C140 O129 1.283 . S
C140 O132 1.243 . S
C141 C143 1.382 . S
C141 C145 1.393 . S
C141 C148 1.500 . S
C142 C143 1.400 . S
C142 C144 1.384 . S
C143 C141 1.382 . S
C143 C142 1.400 . S
C143 H160 0.930 . S
C144 C142 1.384 . S
C144 C146 1.392 . S
C144 H161 0.931 . S
C145 C141 1.393 . S
C145 C146 1.401 . S
C145 H162 0.930 . S
C146 C144 1.392 . S
C146 C145 1.401 . S
C146 H163 0.930 . S
C147 O130 1.262 . S
C147 O131 1.260 1_556 S
C148 Tb84 2.833 . S
C148 O128 1.251 . S
C148 O133 1.256 . S
C148 C141 1.500 . S
C149 H114 0.929 . S
C149 C127 1.444 . S
C149 C150 1.317 . S
C150 H112 0.930 1_554 S
C150 C118 1.432 1_554 S
C150 C149 1.317 . S
C151 O135 1.283 . S
C151 O138 1.243 . S
C152 C153 1.382 . S
C152 C156 1.393 . S
C152 C159 1.500 . S
C153 C152 1.382 . S
C153 C154 1.400 1_655 S
C153 H164 0.930 . S
C154 C153 1.400 1_455 S
C154 C155 1.384 . S
C155 C154 1.384 . S
C155 C157 1.392 . S
C155 H165 0.931 . S
C156 C152 1.393 . S
C156 C157 1.401 1_655 S
C156 H166 0.930 . S
C157 C155 1.392 . S
C157 C156 1.401 1_455 S
C157 H167 0.930 . S
C158 O136 1.262 . S
C158 O137 1.260 1_554 S
C159 Tb95 2.833 . S
C159 O134 1.251 . S
C159 O139 1.256 . S
C159 C152 1.500 . S
H160 C143 0.930 . S
H161 C144 0.931 . S
H162 C145 0.930 . S
H163 C146 0.930 . S
H164 C153 0.930 . S
H165 C155 0.931 . S
H166 C156 0.930 . S
H167 C157 0.930 . S
Tb168 N199 2.660 . S
Tb168 N206 2.600 . S
Tb168 O212 2.546 . S
Tb168 O213 2.610 . S
Tb168 O215 2.320 . S
Tb168 O216 2.552 . S
Tb168 O217 2.413 . S
Tb168 O219 2.362 . S
Tb168 O220 2.421 . S
Tb168 C232 2.833 . S
C169 C172 1.432 . S
C169 C173 1.414 . S
C169 N176 1.359 . S
C170 C172 1.417 . S
C170 C174 1.432 . S
C170 C182 1.410 . S
C171 C173 1.444 . S
C171 C174 1.317 . S
C171 H194 0.929 . S
C172 C169 1.432 . S
C172 C170 1.417 . S
C172 N180 1.360 . S
C173 C169 1.414 . S
C173 C171 1.444 . S
C173 C178 1.385 . S
C174 C170 1.432 . S
C174 C171 1.317 . S
C174 H186 0.930 . S
C175 C177 1.392 . S
C175 C178 1.370 . S
C175 H187 0.931 1_565 S
N176 C169 1.359 . S
N176 C177 1.327 . S
N176 Tb179 2.600 . S
C177 C175 1.392 . S
C177 N176 1.327 . S
C177 H184 0.930 . S
C178 C173 1.385 . S
C178 C175 1.370 . S
C178 H197 0.930 1_565 S
Tb179 N176 2.600 . S
Tb179 N180 2.660 . S
Tb179 O213 2.362 . S
Tb179 O214 2.421 . S
Tb179 O218 2.546 . S
Tb179 O219 2.610 . S
Tb179 O221 2.320 . S
Tb179 O222 2.552 . S
Tb179 O223 2.413 . S
Tb179 C243 2.833 . S
N180 C172 1.360 . S
N180 Tb179 2.660 . S
N180 C181 1.305 . S
C181 N180 1.305 . S
C181 C183 1.407 . S
C181 H188 0.930 . S
C182 C170 1.410 . S
C182 C183 1.345 . S
C182 H190 0.930 . S
C183 C181 1.407 . S
C183 C182 1.345 . S
C183 H185 0.930 . S
H184 C177 0.930 . S
H185 C183 0.930 . S
H186 C174 0.930 . S
H187 C175 0.931 1_545 S
H188 C181 0.930 . S
H189 C203 0.930 . S
H190 C182 0.930 . S
H191 C209 0.930 . S
H192 C200 0.930 1_455 S
H193 C207 0.931 . S
H194 C171 0.929 . S
H195 C201 0.930 . S
H196 C234 0.930 . S
H197 C178 0.930 1_545 S
H198 C233 0.929 . S
N199 Tb168 2.660 . S
N199 C200 1.305 1_455 S
N199 C204 1.360 1_455 S
C200 H192 0.930 1_655 S
C200 N199 1.305 1_655 S
C200 C203 1.407 . S
C201 H195 0.930 . S
C201 C202 1.410 . S
C201 C203 1.345 . S
C202 C201 1.410 . S
C202 C204 1.417 . S
C202 C234 1.432 . S
C203 H189 0.930 . S
C203 C200 1.407 . S
C203 C201 1.345 . S
C204 N199 1.360 1_655 S
C204 C202 1.417 . S
C204 C208 1.432 1_655 S
H205 C210 0.930 1_655 S
N206 Tb168 2.600 . S
N206 C208 1.359 . S
N206 C209 1.327 . S
C207 H193 0.931 . S
C207 C209 1.392 . S
C207 C210 1.370 . S
C208 C204 1.432 1_455 S
C208 N206 1.359 . S
C208 C211 1.414 1_455 S
C209 H191 0.930 . S
C209 N206 1.327 . S
C209 C207 1.392 . S
C210 H205 0.930 1_455 S
C210 C207 1.370 . S
C210 C211 1.385 1_455 S
C211 C208 1.414 1_655 S
C211 C210 1.385 1_655 S
C211 C233 1.444 . S
O212 Tb168 2.546 . S
O212 C232 1.251 . S
O213 Tb168 2.610 . S
O213 Tb179 2.362 . S
O213 C224 1.283 . S
O214 Tb179 2.421 . S
O214 C231 1.262 . S
O215 Tb168 2.320 . S
O215 C231 1.260 . S
O216 Tb168 2.552 . S
O216 C224 1.243 . S
O217 Tb168 2.413 . S
O217 C232 1.256 . S
O218 Tb179 2.546 . S
O218 C243 1.251 . S
O219 Tb168 2.362 . S
O219 Tb179 2.610 . S
O219 C235 1.283 . S
O220 Tb168 2.421 . S
O220 C242 1.262 . S
O221 Tb179 2.320 . S
O221 C242 1.260 . S
O222 Tb179 2.552 . S
O222 C235 1.243 . S
O223 Tb179 2.413 . S
O223 C243 1.256 . S
C224 O213 1.283 . S
C224 O216 1.243 . S
C225 C227 1.382 . S
C225 C229 1.393 . S
C225 C232 1.500 . S
C226 C227 1.400 1_655 S
C226 C228 1.384 . S
C227 C225 1.382 . S
C227 C226 1.400 1_455 S
C227 H244 0.930 . S
C228 C226 1.384 . S
C228 C230 1.392 . S
C228 H245 0.931 . S
C229 C225 1.393 . S
C229 C230 1.401 1_455 S
C229 H246 0.930 . S
C230 C228 1.392 . S
C230 C229 1.401 1_655 S
C230 H247 0.930 . S
C231 O214 1.262 . S
C231 O215 1.260 . S
C232 Tb168 2.833 . S
C232 O212 1.251 . S
C232 O217 1.256 . S
C232 C225 1.500 . S
C233 H198 0.929 . S
C233 C211 1.444 . S
C233 C234 1.317 . S
C234 H196 0.930 . S
C234 C202 1.432 . S
C234 C233 1.317 . S
C235 O219 1.283 . S
C235 O222 1.243 . S
C236 C237 1.382 . S
C236 C240 1.393 . S
C236 C243 1.500 . S
C237 C236 1.382 . S
C237 C238 1.400 . S
C237 H248 0.930 . S
C238 C237 1.400 . S
C238 C239 1.384 . S
C239 C238 1.384 . S
C239 C241 1.392 . S
C239 H249 0.931 . S
C240 C236 1.393 . S
C240 C241 1.401 . S
C240 H250 0.930 . S
C241 C239 1.392 . S
C241 C240 1.401 . S
C241 H251 0.930 . S
C242 O220 1.262 . S
C242 O221 1.260 . S
C243 Tb179 2.833 . S
C243 O218 1.251 . S
C243 O223 1.256 . S
C243 C236 1.500 . S
H244 C227 0.930 . S
H245 C228 0.931 . S
H246 C229 0.930 . S
H247 C230 0.930 . S
H248 C237 0.930 . S
H249 C239 0.931 . S
H250 C240 0.930 . S
H251 C241 0.930 . S
Tb252 N283 2.660 . S
Tb252 N290 2.600 . S
Tb252 O296 2.546 . S
Tb252 O297 2.610 . S
Tb252 O299 2.320 . S
Tb252 O300 2.552 . S
Tb252 O301 2.413 . S
Tb252 O303 2.362 . S
Tb252 O304 2.421 . S
Tb252 C316 2.833 . S
C253 C256 1.432 1_655 S
C253 C257 1.414 1_655 S
C253 N260 1.359 . S
C254 C256 1.417 . S
C254 C258 1.432 . S
C254 C266 1.410 . S
C255 C257 1.444 . S
C255 C258 1.317 . S
C255 H278 0.929 . S
C256 C253 1.432 1_455 S
C256 C254 1.417 . S
C256 N264 1.360 1_455 S
C257 C253 1.414 1_455 S
C257 C255 1.444 . S
C257 C262 1.385 1_455 S
C258 C254 1.432 . S
C258 C255 1.317 . S
C258 H270 0.930 . S
C259 C261 1.392 . S
C259 C262 1.370 . S
C259 H271 0.931 . S
N260 C253 1.359 . S
N260 C261 1.327 . S
N260 Tb263 2.600 . S
C261 C259 1.392 . S
C261 N260 1.327 . S
C261 H268 0.930 . S
C262 C257 1.385 1_655 S
C262 C259 1.370 . S
C262 H281 0.930 1_655 S
Tb263 N260 2.600 . S
Tb263 N264 2.660 . S
Tb263 O297 2.362 . S
Tb263 O298 2.421 . S
Tb263 O302 2.546 . S
Tb263 O303 2.610 . S
Tb263 O305 2.320 . S
Tb263 O306 2.552 . S
Tb263 O307 2.413 . S
Tb263 C327 2.833 . S
N264 C256 1.360 1_655 S
N264 Tb263 2.660 . S
N264 C265 1.305 1_655 S
C265 N264 1.305 1_455 S
C265 C267 1.407 . S
C265 H272 0.930 1_455 S
C266 C254 1.410 . S
C266 C267 1.345 . S
C266 H274 0.930 . S
C267 C265 1.407 . S
C267 C266 1.345 . S
C267 H269 0.930 . S
H268 C261 0.930 . S
H269 C267 0.930 . S
H270 C258 0.930 . S
H271 C259 0.931 . S
H272 C265 0.930 1_655 S
H273 C287 0.930 . S
H274 C266 0.930 . S
H275 C293 0.930 . S
H276 C284 0.930 . S
H277 C291 0.931 1_565 S
H278 C255 0.929 . S
H279 C285 0.930 . S
H280 C318 0.930 . S
H281 C262 0.930 1_455 S
H282 C317 0.929 . S
N283 Tb252 2.660 . S
N283 C284 1.305 . S
N283 C288 1.360 . S
C284 H276 0.930 . S
C284 N283 1.305 . S
C284 C287 1.407 . S
C285 H279 0.930 . S
C285 C286 1.410 . S
C285 C287 1.345 . S
C286 C285 1.410 . S
C286 C288 1.417 . S
C286 C318 1.432 . S
C287 H273 0.930 . S
C287 C284 1.407 . S
C287 C285 1.345 . S
C288 N283 1.360 . S
C288 C286 1.417 . S
C288 C292 1.432 . S
H289 C294 0.930 1_565 S
N290 Tb252 2.600 . S
N290 C292 1.359 . S
N290 C293 1.327 . S
C291 H277 0.931 1_545 S
C291 C293 1.392 . S
C291 C294 1.370 . S
C292 C288 1.432 . S
C292 N290 1.359 . S
C292 C295 1.414 . S
C293 H275 0.930 . S
C293 N290 1.327 . S
C293 C291 1.392 . S
C294 H289 0.930 1_545 S
C294 C291 1.370 . S
C294 C295 1.385 . S
C295 C292 1.414 . S
C295 C294 1.385 . S
C295 C317 1.444 . S
O296 Tb252 2.546 . S
O296 C316 1.251 . S
O297 Tb252 2.610 . S
O297 Tb263 2.362 . S
O297 C308 1.283 . S
O298 Tb263 2.421 . S
O298 C315 1.262 . S
O299 Tb252 2.320 . S
O299 C315 1.260 . S
O300 Tb252 2.552 . S
O300 C308 1.243 . S
O301 Tb252 2.413 . S
O301 C316 1.256 . S
O302 Tb263 2.546 . S
O302 C327 1.251 . S
O303 Tb252 2.362 . S
O303 Tb263 2.610 . S
O303 C319 1.283 . S
O304 Tb252 2.421 . S
O304 C326 1.262 . S
O305 Tb263 2.320 . S
O305 C326 1.260 . S
O306 Tb263 2.552 . S
O306 C319 1.243 . S
O307 Tb263 2.413 . S
O307 C327 1.256 . S
C308 O297 1.283 . S
C308 O300 1.243 . S
C309 C311 1.382 . S
C309 C313 1.393 . S
C309 C316 1.500 . S
C310 C311 1.400 . S
C310 C312 1.384 . S
C311 C309 1.382 . S
C311 C310 1.400 . S
C311 H328 0.930 . S
C312 C310 1.384 . S
C312 C314 1.392 . S
C312 H329 0.931 . S
C313 C309 1.393 . S
C313 C314 1.401 . S
C313 H330 0.930 . S
C314 C312 1.392 . S
C314 C313 1.401 . S
C314 H331 0.930 . S
C315 O298 1.262 . S
C315 O299 1.260 . S
C316 Tb252 2.833 . S
C316 O296 1.251 . S
C316 O301 1.256 . S
C316 C309 1.500 . S
C317 H282 0.929 . S
C317 C295 1.444 . S
C317 C318 1.317 . S
C318 H280 0.930 . S
C318 C286 1.432 . S
C318 C317 1.317 . S
C319 O303 1.283 . S
C319 O306 1.243 . S
C320 C321 1.382 . S
C320 C324 1.393 . S
C320 C327 1.500 . S
C321 C320 1.382 . S
C321 C322 1.400 1_655 S
C321 H332 0.930 . S
C322 C321 1.400 1_455 S
C322 C323 1.384 . S
C323 C322 1.384 . S
C323 C325 1.392 . S
C323 H333 0.931 . S
C324 C320 1.393 . S
C324 C325 1.401 1_655 S
C324 H334 0.930 . S
C325 C323 1.392 . S
C325 C324 1.401 1_455 S
C325 H335 0.930 . S
C326 O304 1.262 . S
C326 O305 1.260 . S
C327 Tb263 2.833 . S
C327 O302 1.251 . S
C327 O307 1.256 . S
C327 C320 1.500 . S
H328 C311 0.930 . S
H329 C312 0.931 . S
H330 C313 0.930 . S
H331 C314 0.930 . S
H332 C321 0.930 . S
H333 C323 0.931 . S
H334 C324 0.930 . S
H335 C325 0.930 . S
H336 C344 0.950 . S
H337 C349 0.950 . S
H338 C346 0.950 . S
H339 C348 0.950 . S
H340 C350 0.950 . S
H341 C352 0.950 . S
H342 C354 0.950 1_556 S
H343 C355 0.950 . S
C344 H336 0.950 . S
C344 C345 1.386 . S
C344 C346 1.391 . S
C345 C344 1.386 . S
C345 C349 1.393 . S
C346 H338 0.950 . S
C346 C344 1.391 . S
C346 C347 1.400 . S
C347 C346 1.400 . S
C347 C348 1.398 . S
C347 C353 1.491 . S
C348 H339 0.950 . S
C348 C347 1.398 . S
C348 C349 1.391 . S
C349 H337 0.950 . S
C349 C345 1.393 . S
C349 C348 1.391 . S
C350 H340 0.950 . S
C350 C351 1.386 . S
C350 C352 1.391 . S
C351 C350 1.386 . S
C351 C355 1.393 . S
C352 H341 0.950 . S
C352 C350 1.391 . S
C352 C353 1.400 . S
C353 C347 1.491 . S
C353 C352 1.400 . S
C353 C354 1.398 . S
C354 H342 0.950 1_554 S
C354 C353 1.398 . S
C354 C355 1.391 . S
C355 H343 0.950 . S
C355 C351 1.393 . S
C355 C354 1.391 . S
H356 C364 0.950 . S
H357 C369 0.950 . S
H358 C366 0.950 . S
H359 C368 0.950 . S
H360 C370 0.950 . S
H361 C372 0.950 . S
H362 C374 0.950 . S
H363 C375 0.950 . S
C364 H356 0.950 . S
C364 C365 1.386 . S
C364 C366 1.391 . S
C365 C364 1.386 . S
C365 C369 1.393 . S
C366 H358 0.950 . S
C366 C364 1.391 . S
C366 C367 1.400 . S
C367 C366 1.400 . S
C367 C368 1.398 . S
C367 C373 1.491 . S
C368 H359 0.950 . S
C368 C367 1.398 . S
C368 C369 1.391 . S
C369 H357 0.950 . S
C369 C365 1.393 . S
C369 C368 1.391 . S
C370 H360 0.950 . S
C370 C371 1.386 . S
C370 C372 1.391 . S
C371 C370 1.386 . S
C371 C375 1.393 . S
C372 H361 0.950 . S
C372 C370 1.391 . S
C372 C373 1.400 . S
C373 C367 1.491 . S
C373 C372 1.400 . S
C373 C374 1.398 . S
C374 H362 0.950 . S
C374 C373 1.398 . S
C374 C375 1.391 . S
C375 H363 0.950 . S
C375 C371 1.393 . S
C375 C374 1.391 . S
H376 C384 0.950 . S
H377 C389 0.950 . S
H378 C386 0.950 1_655 S
H379 C388 0.950 . S
H380 C390 0.950 . S
H381 C392 0.950 1_455 S
H382 C394 0.950 . S
H383 C395 0.950 . S
C384 H376 0.950 . S
C384 C385 1.384 . S
C384 C386 1.391 . S
C385 C384 1.384 . S
C385 C389 1.395 1_556 S
C386 H378 0.950 1_455 S
C386 C384 1.391 . S
C386 C387 1.400 1_556 S
C387 C386 1.400 1_554 S
C387 C388 1.398 . S
C387 C393 1.491 1_445 S
C388 H379 0.950 . S
C388 C387 1.398 . S
C388 C389 1.391 . S
C389 H377 0.950 . S
C389 C385 1.395 1_554 S
C389 C388 1.391 . S
C390 H380 0.950 . S
C390 C391 1.386 . S
C390 C392 1.391 . S
C391 C390 1.386 . S
C391 C395 1.393 1_554 S
C392 H381 0.950 1_655 S
C392 C390 1.391 . S
C392 C393 1.400 . S
C393 C387 1.491 1_665 S
C393 C392 1.400 . S
C393 C394 1.398 1_554 S
C394 H382 0.950 . S
C394 C393 1.398 1_556 S
C394 C395 1.391 . S
C395 H383 0.950 . S
C395 C391 1.393 1_556 S
C395 C394 1.391 . S
H396 C404 0.950 . S
H397 C409 0.950 . S
H398 C406 0.950 1_565 S
H399 C408 0.950 1_455 S
H400 C410 0.950 . S
H401 C412 0.950 1_545 S
H402 C414 0.950 1_655 S
H403 C415 0.950 . S
C404 H396 0.950 . S
C404 C405 1.386 . S
C404 C406 1.391 . S
C405 C404 1.386 . S
C405 C409 1.393 . S
C406 H398 0.950 1_545 S
C406 C404 1.391 . S
C406 C407 1.400 . S
C407 C406 1.400 . S
C407 C408 1.398 . S
C407 C413 1.491 1_645 S
C408 H399 0.950 1_655 S
C408 C407 1.398 . S
C408 C409 1.391 . S
C409 H397 0.950 . S
C409 C405 1.393 . S
C409 C408 1.391 . S
C410 H400 0.950 . S
C410 C411 1.386 . S
C410 C412 1.391 . S
C411 C410 1.386 . S
C411 C415 1.393 . S
C412 H401 0.950 1_565 S
C412 C410 1.391 . S
C412 C413 1.400 . S
C413 C407 1.491 1_465 S
C413 C412 1.400 . S
C413 C414 1.398 . S
C414 H402 0.950 1_455 S
C414 C413 1.398 . S
C414 C415 1.391 . S
C415 H403 0.950 . S
C415 C411 1.393 . S
C415 C414 1.391 . S
H416 C424 0.950 . S
H417 C429 0.950 . S
H418 C426 0.950 . S
H419 C428 0.950 . S
H420 C430 0.950 . S
H421 C432 0.950 . S
H422 C434 0.950 . S
H423 C435 0.950 . S
C424 H416 0.950 . S
C424 C425 1.386 . S
C424 C426 1.391 . S
C425 C424 1.386 . S
C425 C429 1.393 . S
C426 H418 0.950 . S
C426 C424 1.391 . S
C426 C427 1.400 . S
C427 C426 1.400 . S
C427 C428 1.398 . S
C427 C433 1.491 . S
C428 H419 0.950 . S
C428 C427 1.398 . S
C428 C429 1.391 . S
C429 H417 0.950 . S
C429 C425 1.393 . S
C429 C428 1.391 . S
C430 H420 0.950 . S
C430 C431 1.386 . S
C430 C432 1.391 . S
C431 C430 1.386 . S
C431 C435 1.393 . S
C432 H421 0.950 . S
C432 C430 1.391 . S
C432 C433 1.400 . S
C433 C427 1.491 . S
C433 C432 1.400 . S
C433 C434 1.398 . S
C434 H422 0.950 . S
C434 C433 1.398 . S
C434 C435 1.391 . S
C435 H423 0.950 . S
C435 C431 1.393 . S
C435 C434 1.391 . S
H436 C444 0.950 . S
H437 C449 0.950 . S
H438 C446 0.950 . S
H439 C448 0.950 . S
H440 C450 0.950 . S
H441 C452 0.950 . S
H442 C454 0.950 . S
H443 C455 0.950 . S
C444 H436 0.950 . S
C444 C445 1.386 . S
C444 C446 1.391 . S
C445 C444 1.386 . S
C445 C449 1.393 . S
C446 H438 0.950 . S
C446 C444 1.391 . S
C446 C447 1.400 . S
C447 C446 1.400 . S
C447 C448 1.398 . S
C447 C453 1.491 . S
C448 H439 0.950 . S
C448 C447 1.398 . S
C448 C449 1.391 . S
C449 H437 0.950 . S
C449 C445 1.393 . S
C449 C448 1.391 . S
C450 H440 0.950 . S
C450 C451 1.386 . S
C450 C452 1.391 . S
C451 C450 1.386 . S
C451 C455 1.393 . S
C452 H441 0.950 . S
C452 C450 1.391 . S
C452 C453 1.400 . S
C453 C447 1.491 . S
C453 C452 1.400 . S
C453 C454 1.398 . S
C454 H442 0.950 . S
C454 C453 1.398 . S
C454 C455 1.391 . S
C455 H443 0.950 . S
C455 C451 1.393 . S
C455 C454 1.391 . S
H456 C464 0.950 . S
H457 C469 0.950 . S
H458 C466 0.950 . S
H459 C468 0.950 . S
H460 C470 0.950 . S
H461 C472 0.950 . S
H462 C474 0.950 . S
H463 C475 0.950 . S
C464 H456 0.950 . S
C464 C465 1.386 . S
C464 C466 1.391 . S
C465 C464 1.386 . S
C465 C469 1.393 . S
C466 H458 0.950 . S
C466 C464 1.391 . S
C466 C467 1.400 . S
C467 C466 1.400 . S
C467 C468 1.398 . S
C467 C473 1.491 . S
C468 H459 0.950 . S
C468 C467 1.398 . S
C468 C469 1.391 . S
C469 H457 0.950 . S
C469 C465 1.393 . S
C469 C468 1.391 . S
C470 H460 0.950 . S
C470 C471 1.386 . S
C470 C472 1.391 . S
C471 C470 1.386 . S
C471 C475 1.393 . S
C472 H461 0.950 . S
C472 C470 1.391 . S
C472 C473 1.400 . S
C473 C467 1.491 . S
C473 C472 1.400 . S
C473 C474 1.398 . S
C474 H462 0.950 . S
C474 C473 1.398 . S
C474 C475 1.391 . S
C475 H463 0.950 . S
C475 C471 1.393 . S
C475 C474 1.391 . S
H476 C484 0.950 . S
H477 C489 0.950 . S
H478 C486 0.950 . S
H479 C488 0.950 . S
H480 C490 0.950 . S
H481 C492 0.950 . S
H482 C494 0.950 . S
H483 C495 0.950 . S
C484 H476 0.950 . S
C484 C485 1.386 . S
C484 C486 1.391 . S
C485 C484 1.386 . S
C485 C489 1.393 . S
C486 H478 0.950 . S
C486 C484 1.391 . S
C486 C487 1.400 . S
C487 C486 1.400 . S
C487 C488 1.398 . S
C487 C493 1.491 . S
C488 H479 0.950 . S
C488 C487 1.398 . S
C488 C489 1.391 . S
C489 H477 0.950 . S
C489 C485 1.393 . S
C489 C488 1.391 . S
C490 H480 0.950 . S
C490 C491 1.386 . S
C490 C492 1.391 . S
C491 C490 1.386 . S
C491 C495 1.393 . S
C492 H481 0.950 . S
C492 C490 1.391 . S
C492 C493 1.400 . S
C493 C487 1.491 . S
C493 C492 1.400 . S
C493 C494 1.398 . S
C494 H482 0.950 . S
C494 C493 1.398 . S
C494 C495 1.391 . S
C495 H483 0.950 . S
C495 C491 1.393 . S
C495 C494 1.391 . S
H496 C504 0.950 . S
H497 C509 0.950 . S
H498 C506 0.950 . S
H499 C508 0.950 . S
H500 C510 0.950 . S
H501 C512 0.950 . S
H502 C514 0.950 . S
H503 C515 0.950 . S
C504 H496 0.950 . S
C504 C505 1.386 . S
C504 C506 1.391 . S
C505 C504 1.386 . S
C505 C509 1.393 . S
C506 H498 0.950 . S
C506 C504 1.391 . S
C506 C507 1.400 . S
C507 C506 1.400 . S
C507 C508 1.398 . S
C507 C513 1.491 . S
C508 H499 0.950 . S
C508 C507 1.398 . S
C508 C509 1.391 . S
C509 H497 0.950 . S
C509 C505 1.393 . S
C509 C508 1.391 . S
C510 H500 0.950 . S
C510 C511 1.386 . S
C510 C512 1.391 . S
C511 C510 1.386 . S
C511 C515 1.393 1_655 S
C512 H501 0.950 . S
C512 C510 1.391 . S
C512 C513 1.400 . S
C513 C507 1.491 . S
C513 C512 1.400 . S
C513 C514 1.398 . S
C514 H502 0.950 . S
C514 C513 1.398 . S
C514 C515 1.391 1_655 S
C515 H503 0.950 . S
C515 C511 1.393 1_455 S
C515 C514 1.391 1_455 S
H516 C524 0.950 . S
H517 C529 0.950 . S
H518 C526 0.950 . S
H519 C528 0.950 . S
H520 C530 0.950 . S
H521 C532 0.950 . S
H522 C534 0.950 1_455 S
H523 C535 0.950 . S
C524 H516 0.950 . S
C524 C525 1.386 . S
C524 C526 1.391 . S
C525 C524 1.386 . S
C525 C529 1.393 . S
C526 H518 0.950 . S
C526 C524 1.391 . S
C526 C527 1.400 . S
C527 C526 1.400 . S
C527 C528 1.398 . S
C527 C533 1.491 . S
C528 H519 0.950 . S
C528 C527 1.398 . S
C528 C529 1.391 . S
C529 H517 0.950 . S
C529 C525 1.393 . S
C529 C528 1.391 . S
C530 H520 0.950 . S
C530 C531 1.386 . S
C530 C532 1.391 . S
C531 C530 1.386 . S
C531 C535 1.393 1_655 S
C532 H521 0.950 . S
C532 C530 1.391 . S
C532 C533 1.400 . S
C533 C527 1.491 . S
C533 C532 1.400 . S
C533 C534 1.398 . S
C534 H522 0.950 1_655 S
C534 C533 1.398 . S
C534 C535 1.391 1_655 S
C535 H523 0.950 . S
C535 C531 1.393 1_455 S
C535 C534 1.391 1_455 S
H536 C544 0.950 . S
H537 C549 0.950 1_655 S
H538 C546 0.950 . S
H539 C548 0.950 . S
H540 C550 0.950 . S
H541 C552 0.950 . S
H542 C554 0.950 . S
H543 C555 0.950 . S
C544 H536 0.950 . S
C544 C545 1.386 . S
C544 C546 1.391 . S
C545 C544 1.386 . S
C545 C549 1.393 . S
C546 H538 0.950 . S
C546 C544 1.391 . S
C546 C547 1.400 . S
C547 C546 1.400 . S
C547 C548 1.398 . S
C547 C553 1.491 . S
C548 H539 0.950 . S
C548 C547 1.398 . S
C548 C549 1.391 . S
C549 H537 0.950 1_455 S
C549 C545 1.393 . S
C549 C548 1.391 . S
C550 H540 0.950 . S
C550 C551 1.386 . S
C550 C552 1.391 . S
C551 C550 1.386 . S
C551 C555 1.393 . S
C552 H541 0.950 . S
C552 C550 1.391 . S
C552 C553 1.400 . S
C553 C547 1.491 . S
C553 C552 1.400 . S
C553 C554 1.398 . S
C554 H542 0.950 . S
C554 C553 1.398 . S
C554 C555 1.391 . S
C555 H543 0.950 . S
C555 C551 1.393 . S
C555 C554 1.391 . S
H556 C564 0.950 . S
H557 C569 0.950 . S
H558 C566 0.950 1_655 S
H559 C568 0.950 . S
H560 C570 0.950 . S
H561 C572 0.950 . S
H562 C574 0.950 . S
H563 C575 0.950 . S
C564 H556 0.950 . S
C564 C565 1.386 . S
C564 C566 1.391 . S
C565 C564 1.386 . S
C565 C569 1.393 . S
C566 H558 0.950 1_455 S
C566 C564 1.391 . S
C566 C567 1.400 . S
C567 C566 1.400 . S
C567 C568 1.398 . S
C567 C573 1.491 . S
C568 H559 0.950 . S
C568 C567 1.398 . S
C568 C569 1.391 . S
C569 H557 0.950 . S
C569 C565 1.393 . S
C569 C568 1.391 . S
C570 H560 0.950 . S
C570 C571 1.386 . S
C570 C572 1.391 . S
C571 C570 1.386 . S
C571 C575 1.393 1_455 S
C572 H561 0.950 . S
C572 C570 1.391 . S
C572 C573 1.400 . S
C573 C567 1.491 . S
C573 C572 1.400 . S
C573 C574 1.398 1_455 S
C574 H562 0.950 . S
C574 C573 1.398 1_655 S
C574 C575 1.391 . S
C575 H563 0.950 . S
C575 C571 1.393 1_655 S
C575 C574 1.391 . S
C345 C147 1.508 1_554 S
C351 C74 1.508 . S
C365 C242 1.505 . S
C371 C315 1.505 . S
C385 C63 1.503 . S
C391 C158 1.505 . S
C405 C326 1.491 . S
C411 C231 1.491 . S
C425 C310 1.211 . S
C431 C56 1.182 . S
C445 C142 1.196 . S
C451 C224 1.200 . S
C465 C151 1.209 . S
C471 C238 1.230 . S
C485 C319 1.195 . S
C491 C70 1.193 . S
C505 C140 1.201 . S
C511 C226 1.196 . S
C525 C308 1.179 . S
C531 C58 1.204 . S
C545 C322 1.200 . S
C551 C67 1.207 . S
C565 C235 1.208 . S
C571 C154 1.229 . S
