# Generated by pormake.
# Topology qtz-e, (6)-cn, num edge types: 1
# Building blocks:
#     Node 0, Type 0, BuildingBlock: KUMBUR_clean_sbu_1, # of connection points: 6
#     Node 1, Type 0, BuildingBlock: KUMBUR_clean_sbu_1, # of connection points: 6
#     Node 2, Type 0, BuildingBlock: KUMBUR_clean_sbu_1, # of connection points: 6
#     Node 3, Type 0, BuildingBlock: KUMBUR_clean_sbu_1, # of connection points: 6
#     Node 4, Type 0, BuildingBlock: KUMBUR_clean_sbu_1, # of connection points: 6
#     Node 5, Type 0, BuildingBlock: KUMBUR_clean_sbu_1, # of connection points: 6
#     Edge 6, Type (0, 0), None
#     Edge 7, Type (0, 0), None
#     Edge 8, Type (0, 0), None
#     Edge 9, Type (0, 0), None
#     Edge 10, Type (0, 0), None
#     Edge 11, Type (0, 0), None
#     Edge 12, Type (0, 0), None
#     Edge 13, Type (0, 0), None
#     Edge 14, Type (0, 0), None
#     Edge 15, Type (0, 0), None
#     Edge 16, Type (0, 0), None
#     Edge 17, Type (0, 0), None
#     Edge 18, Type (0, 0), None
#     Edge 19, Type (0, 0), None
#     Edge 20, Type (0, 0), None
#     Edge 21, Type (0, 0), None
#     Edge 22, Type (0, 0), None
#     Edge 23, Type (0, 0), None
# Relax obj value: 0.169
# Max RMSD: 0.232
# Mean RMSD: 0.232
data_MOF--net-qtz-e--node1-KUMBUR_clean_sbu_1--edge1-none
_symmetry_space_group_name_H-M    P1
_symmetry_Int_Tables_number       1
_symmetry_cell_setting            triclinic
loop_
_symmetry_equiv_pos_as_xyz
'x, y, z'
_cell_length_a     14.000674
_cell_length_b     13.998893
_cell_length_c     29.767692
_cell_angle_alpha  88.900505
_cell_angle_beta   90.345955
_cell_angle_gamma 119.85687
loop_
_atom_site_label
_atom_site_type_symbol
_atom_site_fract_x
_atom_site_fract_y
_atom_site_fract_z
_atom_type_partial_charge
Tb0 Tb 0.18378 0.33997 0.95475 0.0
C1 C 0.49206 0.66333 0.10035 0.0
N2 N 0.40242 0.57096 0.0854 0.0
C3 C 0.45021 0.46306 0.13453 0.0
C4 C 0.56197 0.65846 0.13294 0.0
C5 C 0.38054 0.47029 0.10247 0.0
C6 C 0.54393 0.55693 0.1481 0.0
C7 C 0.60446 0.86162 0.09769 0.0
C8 C 0.51769 0.76349 0.08106 0.0
C9 C 0.66627 0.85715 0.13362 0.0
C10 C 0.64778 0.75518 0.14968 0.0
Tb11 Tb 0.29465 0.61087 0.0384 0.0
N12 N 0.45674 0.76487 0.0461 0.0
C13 C 0.62166 0.96097 0.07917 0.0
C14 C 0.48483 0.85899 0.02292 0.0
C15 C 0.56176 0.95926 0.04117 0.0
H16 H 0.31164 0.39465 0.09177 0.0
H17 H 0.57856 0.03531 0.02567 0.0
H18 H 0.96721 0.27552 0.91839 0.0
H19 H 0.1495 0.01832 0.10559 0.0
H20 H 0.44113 0.85452 0.99276 0.0
H21 H 0.68421 0.0389 0.09246 0.0
H22 H 0.23752 0.15855 0.04864 0.0
H23 H 0.43355 0.38572 0.14909 0.0
H24 H 0.72964 0.93148 0.14827 0.0
H25 H 0.7017 0.75026 0.17401 0.0
H26 H 0.81215 0.1308 0.8934 0.0
H27 H 0.60118 0.55055 0.17088 0.0
H28 H 0.05903 0.81828 0.07273 0.0
N29 N 0.05046 0.19022 0.93936 0.0
C30 C 0.05184 0.0965 0.94849 0.0
C31 C 0.87228 0.11213 0.90596 0.0
C32 C 0.93955 0.99083 0.92271 0.0
C33 C 0.96427 0.19808 0.9223 0.0
C34 C 0.86024 0.0097 0.90395 0.0
N35 N 0.10593 0.0987 0.97522 0.0
C36 C 0.16933 0.08487 0.02578 0.0
C37 C 0.07638 0.90112 0.00787 0.0
C38 C 0.13557 0.05118 -0.00198 0.0
C39 C 0.08264 0.89248 0.05389 0.0
C40 C 0.12768 -0.00228 0.07089 0.0
H41 H 0.78312 0.94229 0.89228 0.0
H42 H 0.81557 0.81695 0.92866 0.0
H43 H 0.00303 0.7652 0.97551 0.0
O44 O 0.29902 0.36977 0.90119 0.0
O45 O 0.06868 0.35032 0.01215 0.0
O46 O 0.19 0.44916 0.0667 0.0
O47 O 0.14651 0.35633 0.88581 0.0
O48 O 0.35889 0.42028 0.99507 0.0
O49 O 0.44356 0.60707 0.00919 0.0
O50 O 0.21374 0.59595 0.10025 0.0
O51 O 0.2894 0.6516 0.96722 0.0
O52 O 0.31021 0.51112 0.94603 0.0
O53 O 0.28092 0.74427 0.06101 0.0
O54 O 0.14721 0.58955 -0.00169 0.0
O55 O 0.06936 0.41978 0.96117 0.0
C56 C 0.08909 0.37816 0.05627 0.0
C57 C 0.22716 0.29187 0.83012 0.0
C58 C 0.30427 0.24864 0.76222 0.0
C59 C 0.23883 0.1373 0.7763 0.0
C60 C 0.14777 0.18088 0.83361 0.0
C61 C 0.15608 0.10439 0.80803 0.0
C62 C 0.30431 0.32728 0.79279 0.0
C63 C 0.45353 0.52003 -0.00162 0.0
C64 C 0.23492 0.36325 0.86888 0.0
C65 C 0.90138 0.86251 0.93505 0.0
C66 C 0.97328 0.81976 0.98047 0.0
C67 C 0.30029 0.59605 0.93452 0.0
C68 C 0.29342 0.76183 0.14021 0.0
C69 C 0.31907 0.78136 0.22127 0.0
C70 C 0.42923 0.86011 0.21404 0.0
C71 C 0.39527 0.85727 0.13542 0.0
C72 C 0.25386 0.72342 0.18413 0.0
C73 C 0.4679 0.89588 0.17125 0.0
C74 C 0.06505 0.51105 0.97453 0.0
C75 C 0.23796 0.69839 0.09959 0.0
H76 H 0.24743 0.07133 0.76345 0.0
H77 H 0.08464 0.15121 0.85891 0.0
H78 H 0.10189 0.01773 0.8147 0.0
H79 H 0.36663 0.41292 0.78904 0.0
H80 H 0.48531 0.89595 0.24154 0.0
H81 H 0.41995 0.89854 0.10353 0.0
H82 H 0.17529 0.64899 0.18928 0.0
H83 H 0.55249 0.95982 0.1667 0.0
Tb84 Tb 0.81668 0.17933 0.28574 0.0
C85 C 0.68965 0.54114 0.37906 0.0
N86 N 0.72826 0.47271 0.39032 0.0
C87 C 0.79896 0.56501 0.4583 0.0
C88 C 0.7016 0.62399 0.40778 0.0
C89 C 0.78635 0.48559 0.42838 0.0
C90 C 0.7536 0.63231 0.44887 0.0
C91 C 0.59943 0.59745 0.32455 0.0
C92 C 0.62937 0.52094 0.34064 0.0
C93 C 0.61521 0.68438 0.35184 0.0
C94 C 0.65804 0.69194 0.39506 0.0
Tb95 Tb 0.64545 0.3092 0.35833 0.0
N96 N 0.59708 0.42447 0.31996 0.0
C97 C 0.55046 0.58099 0.28254 0.0
C98 C 0.54257 0.40585 0.2798 0.0
C99 C 0.52856 0.48772 0.25893 0.0
H100 H 0.81045 0.42563 0.43791 0.0
H101 H 0.48231 0.46904 0.22829 0.0
H102 H 0.65267 0.9463 0.2638 0.0
H103 H 0.13015 0.17702 0.42315 0.0
H104 H 0.50299 0.32688 0.26392 0.0
H105 H 0.51954 0.63315 0.2699 0.0
H106 H 0.08791 0.2709 0.36113 0.0
H107 H 0.82792 0.56091 0.49075 0.0
H108 H 0.59149 0.74344 0.34039 0.0
H109 H 0.6605 0.75281 0.41763 0.0
H110 H 0.64019 0.7848 0.23973 0.0
H111 H 0.75345 0.68568 0.47441 0.0
H112 H 0.23531 0.07951 0.38986 0.0
N113 N 0.82423 0.03658 0.27636 0.0
C114 C 0.92255 0.04261 0.27974 0.0
C115 C 0.7195 0.84927 0.25011 0.0
C116 C 0.91008 0.92105 0.25929 0.0
C117 C 0.72763 0.94483 0.26509 0.0
C118 C 0.80956 0.83689 0.24647 0.0
N119 N 0.98389 0.10713 0.3009 0.0
C120 C 0.08059 0.18985 0.34324 0.0
C121 C 0.16581 0.09222 0.32489 0.0
C122 C 0.0702 0.14545 0.31735 0.0
C123 C 0.18954 0.10849 0.37066 0.0
C124 C 0.13183 0.1565 0.38853 0.0
H125 H 0.79976 0.75838 0.23671 0.0
H126 H 0.97121 0.80278 0.26757 0.0
H127 H 0.21887 0.00716 0.29381 0.0
O128 O 0.88156 0.28725 0.22731 0.0
O129 O 0.70814 0.09194 0.34938 0.0
O130 O 0.75193 0.2499 0.38241 0.0
O131 O 0.75893 0.12151 0.21946 0.0
O132 O 0.91587 0.3608 0.31978 0.0
O133 O 0.81315 0.44634 0.33874 0.0
O134 O 0.60845 0.22813 0.42222 0.0
O135 O 0.61301 0.2652 0.28964 0.0
O136 O 0.78376 0.31278 0.26919 0.0
O137 O 0.51455 0.29677 0.3971 0.0
O138 O 0.52301 0.14946 0.32774 0.0
O139 O 0.62296 0.06785 0.29853 0.0
C140 C 0.71429 0.14369 0.38753 0.0
C141 C 0.89656 0.20752 0.15991 0.0
C142 C 0.02808 0.29403 0.09495 0.0
C143 C 0.06443 0.21977 0.10692 0.0
C144 C 0.91818 0.12072 0.16001 0.0
C145 C 0.00173 0.12729 0.13365 0.0
C146 C 0.94845 0.29336 0.12552 0.0
C147 C 0.90857 0.45324 0.32827 0.0
C148 C 0.83012 0.21118 0.19864 0.0
C149 C 0.00796 0.88976 0.26907 0.0
C150 C 0.13821 0.98299 0.30348 0.0
C151 C 0.68631 0.29559 0.25792 0.0
C152 C 0.5501 0.30765 0.47632 0.0
C153 C 0.58837 0.32559 0.55757 0.0
C154 C 0.61337 0.43467 0.55385 0.0
C155 C 0.55352 0.40887 0.47718 0.0
C156 C 0.56871 0.26517 0.5174 0.0
C157 C 0.5904 0.47366 0.51511 0.0
C158 C 0.52565 0.06268 0.31109 0.0
C159 C 0.53443 0.25289 0.43221 0.0
H160 H 0.1403 0.22829 0.0953 0.0
H161 H 0.88105 0.05441 0.18462 0.0
H162 H 0.0285 0.06801 0.13859 0.0
H163 H 0.93212 0.36108 0.12426 0.0
H164 H 0.64822 0.49024 0.58146 0.0
H165 H 0.53481 0.44201 0.44756 0.0
H166 H 0.56344 0.18527 0.51838 0.0
H167 H 0.60411 0.55653 0.51455 0.0
Tb168 Tb 0.68359 0.84131 0.61613 0.0
C169 C 0.18024 0.70894 0.69355 0.0
N170 N 0.28086 0.74861 0.71182 0.0
C171 C 0.2231 0.79718 0.7779 0.0
C172 C 0.09357 0.70153 0.7192 0.0
C173 C 0.30523 0.79699 0.75232 0.0
C174 C 0.11525 0.74113 0.76276 0.0
C175 C 0.05202 0.60744 0.63509 0.0
C176 C 0.15639 0.64798 0.65542 0.0
C177 C 0.97089 0.62032 0.65671 0.0
C178 C 0.98762 0.65031 0.70151 0.0
Tb179 Tb 0.37889 0.67286 0.69078 0.0
N180 N 0.22123 0.60427 0.6465 0.0
C181 C 0.02206 0.53155 0.60101 0.0
C182 C 0.17936 0.51245 0.61993 0.0
C183 C 0.0827 0.47952 0.59534 0.0
H184 H 0.38268 0.81695 0.76763 0.0
H185 H 0.04689 0.40757 0.57528 0.0
H186 H 0.78045 0.64648 0.54605 0.0
H187 H 0.03374 0.28536 0.6755 0.0
H188 H 0.21975 0.46387 0.61789 0.0
H189 H 0.94214 0.49734 0.58509 0.0
H190 H 0.83835 0.1494 0.66943 0.0
H191 H 0.23925 0.82087 0.81218 0.0
H192 H 0.88876 0.58636 0.64286 0.0
H193 H 0.9189 0.63398 0.72242 0.0
H194 H 0.94953 0.63379 0.53643 0.0
H195 H 0.04884 0.72424 0.78558 0.0
H196 H 0.17875 0.26808 0.70414 0.0
N197 N 0.85427 0.79926 0.57694 0.0
C198 C 0.9561 0.86933 0.59815 0.0
C199 C 0.9568 0.70627 0.55116 0.0
C200 C 0.0898 0.86922 0.59125 0.0
C201 C 0.85692 0.71393 0.5566 0.0
C202 C 0.06714 0.7798 0.56564 0.0
N203 N 0.861 0.01203 0.67296 0.0
C204 C 0.8946 0.12084 0.67907 0.0
C205 C 0.10315 0.09366 0.69438 0.0
C206 C 0.95772 0.00366 0.66764 0.0
C207 C 0.10254 0.19224 0.70037 0.0
C208 C 0.00959 0.20383 0.68705 0.0
H209 H 0.13173 0.76056 0.55943 0.0
H210 H 0.27204 0.91715 0.62724 0.0
H211 H 0.30381 0.08864 0.6995 0.0
O212 O 0.63253 0.92516 0.56869 0.0
O213 O 0.62673 0.74407 0.68375 0.0
O214 O 0.52577 0.78923 0.72624 0.0
O215 O 0.69776 0.82735 0.54467 0.0
O216 O 0.62768 0.95886 0.64743 0.0
O217 O 0.44043 0.85562 0.67438 0.0
O218 O 0.40934 0.62239 0.75471 0.0
O219 O 0.38682 0.63371 0.62293 0.0
O220 O 0.51488 0.80167 0.60574 0.0
O221 O 0.24748 0.54648 0.72763 0.0
O222 O 0.43486 0.5555 0.66774 0.0
O223 O 0.59306 0.64286 0.62048 0.0
C224 C 0.6139 0.78205 0.72216 0.0
C225 C 0.72378 0.98232 0.49701 0.0
C226 C 0.7444 0.10926 0.43234 0.0
C227 C 0.85285 0.17767 0.44756 0.0
C228 C 0.83825 0.03515 0.49814 0.0
C229 C 0.90168 0.13617 0.47648 0.0
C230 C 0.67501 0.01537 0.46109 0.0
C231 C 0.5302 0.95184 0.66146 0.0
C232 C 0.66191 0.89444 0.53288 0.0
C233 C 0.2226 0.95637 0.62845 0.0
C234 C 0.23734 0.07078 0.67802 0.0
C235 C 0.43731 0.70751 0.59222 0.0
C236 C 0.26196 0.57471 0.80702 0.0
C237 C 0.27177 0.61137 0.88807 0.0
C238 C 0.18547 0.63293 0.88333 0.0
C239 C 0.16033 0.57129 0.8071 0.0
C240 C 0.31789 0.59316 0.84879 0.0
C241 C 0.12737 0.60799 0.84394 0.0
C242 C 0.51034 0.55082 0.6417 0.0
C243 C 0.30551 0.55844 0.76353 0.0
H244 H 0.90491 0.25957 0.4337 0.0
H245 H 0.87883 -0.00258 0.5154 0.0
H246 H -0.01026 0.1808 0.48103 0.0
H247 H 0.58739 0.96824 0.45499 0.0
H248 H 0.15688 0.66125 0.91094 0.0
H249 H 0.11079 0.55058 0.77722 0.0
H250 H 0.3918 0.58684 0.85123 0.0
H251 H 0.05699 0.61949 0.84211 0.0
Tb252 Tb 0.84291 0.69488 0.9496 0.0
C253 C 0.46052 0.16637 0.0188 0.0
N254 N 0.5182 0.26575 0.03822 0.0
C255 C 0.40425 0.20153 0.10272 0.0
C256 C 0.3773 0.07747 0.04281 0.0
C257 C 0.4878 0.28682 0.07813 0.0
C258 C 0.35749 0.09442 0.08687 0.0
C259 C 0.44277 0.04242 0.95997 0.0
C260 C 0.50376 0.14466 0.98152 0.0
C261 C 0.34322 0.9615 0.97881 0.0
C262 C 0.32139 0.97397 0.02315 0.0
Tb263 Tb 0.6922 0.36826 0.01701 0.0
N264 N 0.61359 0.20941 0.97455 0.0
C265 C 0.49451 0.01328 0.92784 0.0
C266 C 0.66837 0.16759 0.95074 0.0
C267 C 0.6084 0.07189 0.92549 0.0
H268 H 0.54069 0.36445 0.09375 0.0
H269 H 0.6471 0.03661 0.90633 0.0
H270 H 0.11324 0.80218 0.86062 0.0
H271 H 0.7401 0.03841 0.00608 0.0
H272 H 0.75735 0.21155 0.94993 0.0
H273 H 0.45016 0.93563 0.91058 0.0
H274 H 0.68552 0.84347 0.00181 0.0
H275 H 0.39048 0.21571 0.13659 0.0
H276 H 0.29643 0.88126 0.96369 0.0
H277 H 0.26275 0.90307 0.04206 0.0
H278 H 0.28549 0.97516 0.84445 0.0
H279 H 0.30695 0.02511 0.10884 0.0
H280 H 0.9015 0.18584 0.03071 0.0
N281 N 0.05853 0.86404 0.91127 0.0
C282 C 0.09157 0.96425 0.93361 0.0
C283 C 0.23723 0.97533 0.87177 0.0
C284 C 0.22426 0.09833 0.92623 0.0
C285 C 0.13356 0.87327 0.88021 0.0
C286 C 0.28318 0.08043 0.89357 0.0
N287 N 0.84635 0.86939 0.0058 0.0
C288 C 0.7695 0.90128 0.01096 0.0
C289 C 0.00228 0.10981 0.02603 0.0
C290 C 0.95159 0.9662 0.00051 0.0
C291 C 0.90225 0.10964 0.02917 0.0
C292 C 0.79899 0.01587 0.01711 0.0
H293 H 0.36296 0.14736 0.88325 0.0
H294 H 0.35414 0.28526 0.96032 0.0
H295 H 0.20407 0.30755 0.03454 0.0
O296 O 0.7086 0.65549 0.90224 0.0
O297 O 0.88177 0.63568 0.01743 0.0
O298 O 0.72431 0.51635 0.05324 0.0
O299 O 0.86867 0.6994 0.87899 0.0
O300 O 0.66243 0.62872 0.97766 0.0
O301 O 0.57836 0.44115 0.00653 0.0
O302 O 0.77657 0.39463 0.07917 0.0
O303 O 0.68692 0.35456 0.94588 0.0
O304 O 0.75386 0.52409 0.95516 0.0
O305 O 0.68326 0.23367 0.05306 0.0
O306 O 0.8679 0.43143 0.99409 0.0
O307 O 0.94988 0.60391 0.95417 0.0
C308 C 0.82377 0.60159 0.05496 0.0
C309 C 0.76742 0.7572 0.83011 0.0
C310 C 0.68865 0.8042 0.76246 0.0
C311 C 0.77614 0.91092 0.76485 0.0
C312 C 0.86051 0.86196 0.82503 0.0
C313 C 0.86374 0.93801 0.79368 0.0
C314 C 0.68079 0.72628 0.79709 0.0
C315 C 0.57277 0.53187 0.99372 0.0
C316 C 0.77162 0.68169 0.86686 0.0
C317 C 0.26639 0.23144 0.96311 0.0
C318 C 0.1603 0.24377 0.0118 0.0
C319 C 0.72362 0.44628 0.92607 0.0
C320 C 0.6702 0.25002 0.13173 0.0
C321 C 0.64317 0.2627 0.21208 0.0
C322 C 0.53577 0.1746 0.20861 0.0
C323 C 0.57209 0.14889 0.13271 0.0
C324 C 0.70571 0.30941 0.17221 0.0
C325 C 0.50153 0.11795 0.16952 0.0
C326 C 0.95388 0.51517 0.97268 0.0
C327 C 0.73129 0.29033 0.08839 0.0
H328 H 0.77622 0.97433 0.74407 0.0
H329 H 0.93231 0.88642 0.84554 0.0
H330 H 0.93459 0.01954 0.79182 0.0
H331 H 0.61166 0.64303 0.79729 0.0
H332 H 0.47916 0.14386 0.23669 0.0
H333 H 0.54424 0.09827 0.10346 0.0
H334 H 0.78471 0.38456 0.17355 0.0
H335 H 0.41909 0.0487 0.1683 0.0
Tb336 Tb 0.12839 0.84245 0.28284 0.0
C337 C 0.25058 0.47762 0.39501 0.0
N338 N 0.21187 0.54499 0.40536 0.0
C339 C 0.13584 0.44259 0.47334 0.0
C340 C 0.24873 0.40051 0.42565 0.0
C341 C 0.15358 0.5292 0.44385 0.0
C342 C 0.18694 0.3801 0.46488 0.0
C343 C 0.31688 0.40752 0.33839 0.0
C344 C 0.28786 0.48376 0.35245 0.0
C345 C 0.34384 0.35219 0.37078 0.0
C346 C 0.31267 0.35114 0.41575 0.0
Tb347 Tb 0.28257 0.69755 0.36117 0.0
N348 N 0.27533 0.55107 0.32352 0.0
C349 C 0.31031 0.38493 0.29293 0.0
C350 C 0.26137 0.52441 0.27888 0.0
C351 C 0.28843 0.44877 0.26284 0.0
H352 H 0.12291 0.58405 0.452 0.0
H353 H 0.29757 0.44456 0.22722 0.0
H354 H 0.26867 0.08949 0.18068 0.0
H355 H 0.85197 0.84033 0.44448 0.0
H356 H 0.23021 0.55919 0.25463 0.0
H357 H 0.32326 0.31994 0.28069 0.0
H358 H 0.92652 0.74902 0.39553 0.0
H359 H 0.08652 0.42714 0.50298 0.0
H360 H 0.37231 0.29797 0.3599 0.0
H361 H 0.3227 0.29864 0.44029 0.0
H362 H 0.26188 0.25586 0.1575 0.0
H363 H 0.18049 0.3177 0.48842 0.0
H364 H 0.79827 0.96581 0.41958 0.0
N365 N 0.14929 0.03862 0.23079 0.0
C366 C 0.08572 0.07665 0.25357 0.0
C367 C 0.21292 0.2107 0.18607 0.0
C368 C 0.07902 0.20612 0.24169 0.0
C369 C 0.21471 0.11015 0.1982 0.0
C370 C 0.14945 0.25613 0.2054 0.0
N371 N 0.98414 0.86986 0.34586 0.0
C372 C 0.93067 0.8245 0.38476 0.0
C373 C 0.89841 0.0252 0.36262 0.0
C374 C 0.97603 0.96357 0.33258 0.0
C375 C 0.85617 0.95913 0.40004 0.0
C376 C 0.88055 0.87384 0.41166 0.0
H377 H 0.15408 0.32925 0.19036 0.0
H378 H 0.03408 0.34835 0.27651 0.0
H379 H 0.90266 0.22249 0.36575 0.0
O380 O 0.03325 0.70378 0.23851 0.0
O381 O 0.21764 0.90437 0.35287 0.0
O382 O 0.17163 0.74689 0.38977 0.0
O383 O 0.14416 0.86361 0.21164 0.0
O384 O 0.0086 0.66265 0.31025 0.0
O385 O 0.10541 0.57822 0.34409 0.0
O386 O 0.34116 0.76919 0.42463 0.0
O387 O 0.35202 0.73408 0.29447 0.0
O388 O 0.20916 0.75035 0.29067 0.0
O389 O 0.4283 0.70975 0.38596 0.0
O390 O 0.40087 0.8734 0.33897 0.0
O391 O 0.32567 0.94662 0.28613 0.0
C392 C 0.20599 0.85191 0.39166 0.0
C393 C 0.98329 0.75307 0.16521 0.0
C394 C 0.86349 0.6707 0.0968 0.0
C395 C 0.83751 0.75399 0.09811 0.0
C396 C 0.96097 0.83975 0.16024 0.0
C397 C 0.88994 0.83988 0.1276 0.0
C398 C 0.93549 0.66773 0.13164 0.0
C399 C 0.01374 0.57243 0.32702 0.0
C400 C 0.06662 0.76404 0.20169 0.0
C401 C 0.00231 0.26142 0.28231 0.0
C402 C 0.90741 0.17202 0.34137 0.0
C403 C 0.28585 0.74601 0.26778 0.0
C404 C 0.436 0.69589 0.46511 0.0
C405 C 0.43058 0.6703 0.54632 0.0
C406 C 0.40923 0.56292 0.54041 0.0
C407 C 0.44066 0.59901 0.46143 0.0
C408 C 0.43369 0.7337 0.50839 0.0
C409 C 0.41405 0.52811 0.49827 0.0
C410 C 0.41161 0.95389 0.31083 0.0
C411 C 0.42271 0.74967 0.42431 0.0
H412 H 0.77873 0.75482 0.07473 0.0
H413 H 0.00025 0.9105 0.18096 0.0
H414 H 0.87484 0.90774 0.12481 0.0
H415 H 0.95758 0.60382 0.13137 0.0
H416 H 0.3913 0.50567 0.56816 0.0
H417 H 0.45259 0.57206 0.42934 0.0
H418 H 0.4342 0.81074 0.5125 0.0
H419 H 0.39637 0.44472 0.49483 0.0
Tb420 Tb 0.32777 0.14643 0.6195 0.0
C421 C 0.67975 0.17107 0.76583 0.0
N422 N 0.58642 0.1676 0.75075 0.0
C423 C 0.48274 0.01394 0.80108 0.0
C424 C 0.67681 0.0945 0.79755 0.0
C425 C 0.48703 0.08743 0.76772 0.0
C426 C 0.57675 0.01403 0.81463 0.0
C427 C 0.87793 0.25833 0.76383 0.0
C428 C 0.77865 0.24711 0.74724 0.0
C429 C 0.87547 0.18475 0.79651 0.0
C430 C 0.77378 0.0994 0.81112 0.0
Tb431 Tb 0.61903 0.31011 0.70108 0.0
N432 N 0.77791 0.30941 0.71237 0.0
C433 C 0.97626 0.34324 0.74674 0.0
C434 C 0.87177 0.37532 0.68947 0.0
C435 C 0.973 0.40076 0.70861 0.0
H436 H 0.40996 0.07572 0.75561 0.0
H437 H 0.04887 0.45793 0.69307 0.0
H438 H 0.26434 0.30293 0.58281 0.0
H439 H 0.01176 0.84906 0.76953 0.0
H440 H 0.86617 0.41193 0.65853 0.0
H441 H 0.05469 0.35788 0.75989 0.0
H442 H 0.15141 0.90724 0.71365 0.0
H443 H 0.40745 0.95324 0.81573 0.0
H444 H 0.95078 0.19055 0.80911 0.0
H445 H 0.76848 0.03448 0.83225 0.0
H446 H 0.11271 0.31118 0.55656 0.0
H447 H 0.57088 0.95166 0.83837 0.0
H448 H 0.81237 0.73432 0.73479 0.0
N449 N 0.17922 0.13738 0.60779 0.0
C450 C 0.087 0.03978 0.61528 0.0
C451 C 0.09861 0.23589 0.57207 0.0
C452 C 0.97917 0.04753 0.5906 0.0
C453 C 0.18642 0.23009 0.58846 0.0
C454 C -0.00421 0.14779 0.57433 0.0
N455 N 0.09074 0.98576 0.6409 0.0
C456 C 0.07797 0.90341 0.69042 0.0
C457 C 0.89441 0.81354 0.67183 0.0
C458 C 0.04405 0.90662 0.6629 0.0
C459 C 0.8859 0.79081 0.71709 0.0
C460 C -0.00915 0.85098 0.73487 0.0
H461 H 0.92757 0.16059 0.56633 0.0
H462 H 0.80131 0.99015 0.59432 0.0
H463 H 0.75454 0.75404 0.64125 0.0
O464 O 0.36056 0.0625 0.56654 0.0
O465 O 0.34121 0.26772 0.67827 0.0
O466 O 0.45321 0.2433 0.72688 0.0
O467 O 0.33544 0.19394 0.54994 0.0
O468 O 0.41715 0.05194 0.65437 0.0
O469 O 0.6049 0.15352 0.67384 0.0
O470 O 0.60056 0.37983 0.76006 0.0
O471 O 0.6696 0.34365 0.63021 0.0
O472 O 0.49966 0.22547 0.62881 0.0
O473 O 0.74995 0.46064 0.72166 0.0
O474 O 0.58482 0.4307 0.66306 0.0
O475 O 0.41045 0.34119 0.62651 0.0
C476 C 0.38081 0.27537 0.72077 0.0
C477 C 0.26201 0.04125 0.49774 0.0
C478 C 0.19876 0.90205 0.43615 0.0
C479 C 0.09483 0.85607 0.45586 0.0
C480 C 0.15209 0.01191 0.50382 0.0
C481 C 0.06925 0.91718 0.48477 0.0
C482 C 0.28684 0.99193 0.4603 0.0
C483 C 0.51728 0.05855 0.66189 0.0
C484 C 0.34265 0.11258 0.53365 0.0
C485 C 0.85107 0.95402 0.60192 0.0
C486 C 0.81175 0.83725 0.64596 0.0
C487 C 0.58781 0.28456 0.60395 0.0
C488 C 0.76365 0.46881 0.80072 0.0
C489 C 0.76905 0.4547 0.88165 0.0
C490 C 0.84876 0.42277 0.87736 0.0
C491 C 0.86112 0.46472 0.79897 0.0
C492 C 0.71629 0.46273 0.84281 0.0
C493 C 0.89404 0.4271 0.83605 0.0
C494 C 0.50352 0.4349 0.64096 0.0
C495 C 0.70247 0.459 0.75929 0.0
H496 H 0.03246 0.77359 0.44804 0.0
H497 H 0.12928 0.05455 0.52721 0.0
H498 H 0.98551 0.88679 0.49556 0.0
H499 H 0.37156 0.02052 0.45101 0.0
H500 H 0.875 0.39213 0.90552 0.0
H501 H 0.90608 0.48169 0.76828 0.0
H502 H 0.63962 0.46392 0.84529 0.0
H503 H 0.95775 0.40544 0.83355 0.0
loop_
_geom_bond_atom_site_label_1
_geom_bond_atom_site_label_2
_geom_bond_distance
_geom_bond_site_symmetry_2
_ccdc_geom_bond_type
Tb0 N29 2.617 1_455 S
Tb0 N35 2.572 . S
Tb0 O44 2.465 . S
Tb0 O45 2.387 1_556 S
Tb0 O47 2.428 . S
Tb0 O48 2.308 . S
Tb0 O52 2.349 . S
Tb0 O55 2.393 . S
Tb0 C64 2.802 . S
C1 N2 1.379 . S
C1 C4 1.416 . S
C1 C8 1.426 . S
N2 C1 1.379 . S
N2 C5 1.334 . S
N2 Tb11 2.617 . S
C3 C5 1.390 . S
C3 C6 1.339 . S
C3 H23 0.930 . S
C4 C1 1.416 . S
C4 C6 1.416 . S
C4 C10 1.448 1_554 S
C5 N2 1.334 . S
C5 C3 1.390 . S
C5 H16 0.930 . S
C6 C3 1.339 . S
C6 C4 1.416 . S
C6 H27 0.930 . S
C7 C8 1.408 1_556 S
C7 C9 1.427 1_565 S
C7 C13 1.416 . S
C8 C1 1.426 . S
C8 C7 1.408 1_554 S
C8 N12 1.363 . S
C9 C7 1.427 1_545 S
C9 C10 1.328 1_545 S
C9 H24 0.929 . S
C10 C4 1.448 1_556 S
C10 C9 1.328 1_565 S
C10 H25 0.930 1_565 S
Tb11 N2 2.617 . S
Tb11 N12 2.572 . S
Tb11 O46 2.349 . S
Tb11 O49 2.393 . S
Tb11 O50 2.465 . S
Tb11 O51 2.387 1_554 S
Tb11 O53 2.428 . S
Tb11 O54 2.308 . S
Tb11 C75 2.802 . S
N12 C8 1.363 . S
N12 Tb11 2.572 . S
N12 C14 1.340 1_554 S
C13 C7 1.416 . S
C13 C15 1.332 . S
C13 H21 0.931 . S
C14 N12 1.340 1_556 S
C14 C15 1.407 . S
C14 H20 0.930 1_556 S
C15 C13 1.332 . S
C15 C14 1.407 . S
C15 H17 0.929 . S
H16 C5 0.930 . S
H17 C15 0.929 . S
H18 C33 0.930 . S
H19 C40 0.929 . S
H20 C14 0.930 1_554 S
H21 C13 0.931 . S
H22 C36 0.930 1_556 S
H23 C3 0.930 . S
H24 C9 0.929 . S
H25 C10 0.930 1_545 S
H26 C31 0.930 . S
H27 C6 0.930 . S
H28 C39 0.931 . S
N29 Tb0 2.617 1_655 S
N29 C30 1.379 1_545 S
N29 C33 1.334 . S
C30 N29 1.379 1_565 S
C30 C32 1.417 . S
C30 C38 1.424 1_556 S
C31 H26 0.930 . S
C31 C33 1.390 . S
C31 C34 1.339 1_545 S
C32 C30 1.417 . S
C32 C34 1.418 . S
C32 C65 1.445 1_556 S
C33 H18 0.930 . S
C33 N29 1.334 . S
C33 C31 1.390 . S
C34 C31 1.339 1_565 S
C34 C32 1.418 . S
C34 H41 0.930 . S
N35 Tb0 2.572 . S
N35 C36 1.340 1_556 S
N35 C38 1.361 1_446 S
C36 H22 0.930 1_554 S
C36 N35 1.340 1_554 S
C36 C40 1.407 1_545 S
C37 C38 1.413 . S
C37 C39 1.416 1_655 S
C37 C66 1.427 . S
C38 C30 1.424 1_554 S
C38 N35 1.361 1_664 S
C38 C37 1.413 . S
C39 H28 0.931 . S
C39 C37 1.416 1_455 S
C39 C40 1.332 . S
C40 H19 0.929 . S
C40 C36 1.407 1_565 S
C40 C39 1.332 . S
H41 C34 0.930 . S
H42 C65 0.930 . S
H43 C66 0.929 . S
O44 Tb0 2.465 . S
O44 C64 1.264 . S
O45 Tb0 2.387 1_554 S
O45 C56 1.264 . S
O46 Tb11 2.349 . S
O46 C56 1.243 . S
O47 Tb0 2.428 . S
O47 C64 1.256 . S
O48 Tb0 2.308 . S
O48 C63 1.266 1_556 S
O49 Tb11 2.393 . S
O49 C63 1.248 . S
O50 Tb11 2.465 . S
O50 C75 1.264 . S
O51 Tb11 2.387 1_556 S
O51 C67 1.264 . S
O52 Tb0 2.349 . S
O52 C67 1.243 . S
O53 Tb11 2.428 . S
O53 C75 1.256 . S
O54 Tb11 2.308 . S
O54 C74 1.266 1_554 S
O55 Tb0 2.393 . S
O55 C74 1.248 . S
C56 O45 1.264 . S
C56 O46 1.243 . S
C57 C60 1.399 . S
C57 C62 1.383 . S
C57 C64 1.496 . S
C58 C59 1.399 . S
C58 C62 1.389 . S
C59 C58 1.399 . S
C59 C61 1.380 . S
C59 H76 0.929 1_545 S
C60 C57 1.399 . S
C60 C61 1.392 . S
C60 H77 0.929 1_455 S
C61 C59 1.380 . S
C61 C60 1.392 . S
C61 H78 0.929 1_455 S
C62 C57 1.383 . S
C62 C58 1.389 . S
C62 H79 0.931 . S
C63 O48 1.266 1_554 S
C63 O49 1.248 . S
C64 Tb0 2.802 . S
C64 O44 1.264 . S
C64 O47 1.256 . S
C64 C57 1.496 . S
C65 C32 1.445 1_554 S
C65 H42 0.930 . S
C65 C66 1.328 . S
C66 C37 1.427 . S
C66 H43 0.929 . S
C66 C65 1.328 . S
C67 O51 1.264 . S
C67 O52 1.243 . S
C68 C71 1.399 . S
C68 C72 1.383 . S
C68 C75 1.496 . S
C69 C70 1.399 . S
C69 C72 1.389 . S
C70 C69 1.399 . S
C70 C73 1.380 . S
C70 H80 0.929 . S
C71 C68 1.399 . S
C71 C73 1.392 . S
C71 H81 0.929 . S
C72 C68 1.383 . S
C72 C69 1.389 . S
C72 H82 0.931 . S
C73 C70 1.380 . S
C73 C71 1.392 . S
C73 H83 0.929 . S
C74 O54 1.266 1_556 S
C74 O55 1.248 . S
C75 Tb11 2.802 . S
C75 O50 1.264 . S
C75 O53 1.256 . S
C75 C68 1.496 . S
H76 C59 0.929 1_565 S
H77 C60 0.929 1_655 S
H78 C61 0.929 1_655 S
H79 C62 0.931 . S
H80 C70 0.929 . S
H81 C71 0.929 . S
H82 C72 0.931 . S
H83 C73 0.929 . S
Tb84 N113 2.617 1_545 S
Tb84 N119 2.572 1_655 S
Tb84 O128 2.465 1_655 S
Tb84 O129 2.387 . S
Tb84 O131 2.428 . S
Tb84 O132 2.308 . S
Tb84 O136 2.349 . S
Tb84 O139 2.393 . S
Tb84 C148 2.802 . S
C85 N86 1.379 . S
C85 C88 1.416 . S
C85 C92 1.424 . S
N86 C85 1.379 . S
N86 C89 1.334 . S
N86 Tb95 2.617 . S
C87 C89 1.390 . S
C87 C90 1.339 . S
C87 H107 0.930 . S
C88 C85 1.416 . S
C88 C90 1.416 . S
C88 C94 1.448 . S
C89 N86 1.334 . S
C89 C87 1.390 . S
C89 H100 0.930 . S
C90 C87 1.339 . S
C90 C88 1.416 . S
C90 H111 0.930 . S
C91 C92 1.413 . S
C91 C93 1.427 . S
C91 C97 1.416 . S
C92 C85 1.424 . S
C92 C91 1.413 . S
C92 N96 1.361 . S
C93 C91 1.427 . S
C93 C94 1.328 . S
C93 H108 0.929 . S
C94 C88 1.448 . S
C94 C93 1.328 . S
C94 H109 0.930 . S
Tb95 N86 2.617 . S
Tb95 N96 2.572 . S
Tb95 O130 2.349 . S
Tb95 O133 2.393 . S
Tb95 O134 2.465 . S
Tb95 O135 2.387 . S
Tb95 O137 2.428 . S
Tb95 O138 2.308 . S
Tb95 C159 2.802 . S
N96 C92 1.361 . S
N96 Tb95 2.572 . S
N96 C98 1.340 . S
C97 C91 1.416 . S
C97 C99 1.332 . S
C97 H105 0.931 . S
C98 N96 1.340 . S
C98 C99 1.407 . S
C98 H104 0.930 . S
C99 C97 1.332 . S
C99 C98 1.407 . S
C99 H101 0.929 . S
H100 C89 0.930 . S
H101 C99 0.929 . S
H102 C117 0.930 . S
H103 C124 0.929 . S
H104 C98 0.930 . S
H105 C97 0.931 . S
H106 C120 0.930 . S
H107 C87 0.930 . S
H108 C93 0.929 . S
H109 C94 0.930 . S
H110 C115 0.930 . S
H111 C90 0.930 . S
H112 C123 0.931 . S
N113 Tb84 2.617 1_565 S
N113 C114 1.379 . S
N113 C117 1.334 . S
C114 N113 1.379 . S
C114 C116 1.416 . S
C114 C122 1.424 1_655 S
C115 H110 0.930 . S
C115 C117 1.390 . S
C115 C118 1.339 . S
C116 C114 1.416 . S
C116 C118 1.416 . S
C116 C149 1.448 . S
C117 H102 0.930 . S
C117 N113 1.334 . S
C117 C115 1.390 . S
C118 C115 1.339 . S
C118 C116 1.416 . S
C118 H125 0.930 . S
N119 Tb84 2.572 1_455 S
N119 C120 1.340 . S
N119 C122 1.361 1_545 S
C120 H106 0.930 . S
C120 N119 1.340 . S
C120 C124 1.407 . S
C121 C122 1.413 . S
C121 C123 1.416 1_565 S
C121 C150 1.427 . S
C122 C114 1.424 1_455 S
C122 N119 1.361 1_565 S
C122 C121 1.413 . S
C123 H112 0.931 . S
C123 C121 1.416 1_545 S
C123 C124 1.332 . S
C124 H103 0.929 . S
C124 C120 1.407 . S
C124 C123 1.332 . S
H125 C118 0.930 . S
H126 C149 0.930 . S
H127 C150 0.929 . S
O128 Tb84 2.465 1_455 S
O128 C148 1.264 1_455 S
O129 Tb84 2.387 . S
O129 C140 1.264 . S
O130 Tb95 2.349 . S
O130 C140 1.243 . S
O131 Tb84 2.428 . S
O131 C148 1.256 . S
O132 Tb84 2.308 . S
O132 C147 1.266 1_655 S
O133 Tb95 2.393 . S
O133 C147 1.248 1_655 S
O134 Tb95 2.465 . S
O134 C159 1.264 . S
O135 Tb95 2.387 . S
O135 C151 1.264 . S
O136 Tb84 2.349 . S
O136 C151 1.243 . S
O137 Tb95 2.428 . S
O137 C159 1.256 . S
O138 Tb95 2.308 . S
O138 C158 1.266 . S
O139 Tb84 2.393 . S
O139 C158 1.248 . S
C140 O129 1.264 . S
C140 O130 1.243 . S
C141 C144 1.399 1_455 S
C141 C146 1.383 . S
C141 C148 1.496 1_455 S
C142 C143 1.399 . S
C142 C146 1.389 . S
C143 C142 1.399 . S
C143 C145 1.380 . S
C143 H160 0.929 . S
C144 C141 1.399 1_655 S
C144 C145 1.392 1_655 S
C144 H161 0.929 1_545 S
C145 C143 1.380 . S
C145 C144 1.392 1_455 S
C145 H162 0.929 1_445 S
C146 C141 1.383 . S
C146 C142 1.389 . S
C146 H163 0.931 . S
C147 O132 1.266 1_455 S
C147 O133 1.248 1_455 S
C148 Tb84 2.802 . S
C148 O128 1.264 1_655 S
C148 O131 1.256 . S
C148 C141 1.496 1_655 S
C149 C116 1.448 . S
C149 H126 0.930 . S
C149 C150 1.328 1_655 S
C150 C121 1.427 . S
C150 H127 0.929 . S
C150 C149 1.328 1_455 S
C151 O135 1.264 . S
C151 O136 1.243 . S
C152 C155 1.399 . S
C152 C156 1.383 . S
C152 C159 1.496 . S
C153 C154 1.399 . S
C153 C156 1.389 . S
C154 C153 1.399 . S
C154 C157 1.380 . S
C154 H164 0.929 . S
C155 C152 1.399 . S
C155 C157 1.392 . S
C155 H165 0.929 . S
C156 C152 1.383 . S
C156 C153 1.389 . S
C156 H166 0.931 . S
C157 C154 1.380 . S
C157 C155 1.392 . S
C157 H167 0.929 . S
C158 O138 1.266 . S
C158 O139 1.248 . S
C159 Tb95 2.802 . S
C159 O134 1.264 . S
C159 O137 1.256 . S
C159 C152 1.496 . S
H160 C143 0.929 . S
H161 C144 0.929 1_565 S
H162 C145 0.929 1_665 S
H163 C146 0.931 . S
H164 C154 0.929 . S
H165 C155 0.929 . S
H166 C156 0.931 . S
H167 C157 0.929 . S
Tb168 N197 2.617 . S
Tb168 N203 2.572 1_565 S
Tb168 O212 2.465 1_565 S
Tb168 O213 2.387 . S
Tb168 O215 2.428 . S
Tb168 O216 2.308 . S
Tb168 O220 2.349 . S
Tb168 O223 2.393 . S
Tb168 C232 2.802 . S
C169 N170 1.379 . S
C169 C172 1.416 . S
C169 C176 1.424 . S
N170 C169 1.379 . S
N170 C173 1.334 . S
N170 Tb179 2.617 . S
C171 C173 1.390 . S
C171 C174 1.339 . S
C171 H191 0.930 . S
C172 C169 1.416 . S
C172 C174 1.416 . S
C172 C178 1.448 . S
C173 N170 1.334 . S
C173 C171 1.390 . S
C173 H184 0.930 . S
C174 C171 1.339 . S
C174 C172 1.416 . S
C174 H195 0.930 . S
C175 C176 1.413 . S
C175 C177 1.427 1_455 S
C175 C181 1.416 . S
C176 C169 1.424 . S
C176 C175 1.413 . S
C176 N180 1.361 . S
C177 C175 1.427 1_655 S
C177 C178 1.328 1_655 S
C177 H192 0.929 . S
C178 C172 1.448 . S
C178 C177 1.328 1_455 S
C178 H193 0.930 1_455 S
Tb179 N170 2.617 . S
Tb179 N180 2.572 . S
Tb179 O214 2.349 . S
Tb179 O217 2.393 . S
Tb179 O218 2.465 . S
Tb179 O219 2.387 . S
Tb179 O221 2.428 . S
Tb179 O222 2.308 . S
Tb179 C243 2.802 . S
N180 C176 1.361 . S
N180 Tb179 2.572 . S
N180 C182 1.340 . S
C181 C175 1.416 . S
C181 C183 1.332 . S
C181 H189 0.931 . S
C182 N180 1.340 . S
C182 C183 1.407 . S
C182 H188 0.930 . S
C183 C181 1.332 . S
C183 C182 1.407 . S
C183 H185 0.929 . S
H184 C173 0.930 . S
H185 C183 0.929 . S
H186 C201 0.930 . S
H187 C208 0.929 . S
H188 C182 0.930 . S
H189 C181 0.931 . S
H190 C204 0.930 . S
H191 C171 0.930 . S
H192 C177 0.929 . S
H193 C178 0.930 1_655 S
H194 C199 0.930 . S
H195 C174 0.930 . S
H196 C207 0.931 . S
N197 Tb168 2.617 . S
N197 C198 1.379 1_655 S
N197 C201 1.334 . S
C198 N197 1.379 1_455 S
C198 C200 1.416 . S
C198 C206 1.424 1_565 S
C199 H194 0.930 . S
C199 C201 1.390 . S
C199 C202 1.339 1_655 S
C200 C198 1.416 . S
C200 C202 1.416 . S
C200 C233 1.448 . S
C201 H186 0.930 . S
C201 N197 1.334 . S
C201 C199 1.390 . S
C202 C199 1.339 1_455 S
C202 C200 1.416 . S
C202 H209 0.930 . S
N203 Tb168 2.572 1_545 S
N203 C204 1.340 . S
N203 C206 1.361 1_655 S
C204 H190 0.930 . S
C204 N203 1.340 . S
C204 C208 1.407 1_655 S
C205 C206 1.413 . S
C205 C207 1.416 . S
C205 C234 1.427 . S
C206 C198 1.424 1_545 S
C206 N203 1.361 1_455 S
C206 C205 1.413 . S
C207 H196 0.931 . S
C207 C205 1.416 . S
C207 C208 1.332 . S
C208 H187 0.929 . S
C208 C204 1.407 1_455 S
C208 C207 1.332 . S
H209 C202 0.930 . S
H210 C233 0.930 . S
H211 C234 0.929 . S
O212 Tb168 2.465 1_545 S
O212 C232 1.264 1_545 S
O213 Tb168 2.387 . S
O213 C224 1.264 . S
O214 Tb179 2.349 . S
O214 C224 1.243 . S
O215 Tb168 2.428 . S
O215 C232 1.256 . S
O216 Tb168 2.308 . S
O216 C231 1.266 1_565 S
O217 Tb179 2.393 . S
O217 C231 1.248 1_565 S
O218 Tb179 2.465 . S
O218 C243 1.264 . S
O219 Tb179 2.387 . S
O219 C235 1.264 . S
O220 Tb168 2.349 . S
O220 C235 1.243 . S
O221 Tb179 2.428 . S
O221 C243 1.256 . S
O222 Tb179 2.308 . S
O222 C242 1.266 . S
O223 Tb168 2.393 . S
O223 C242 1.248 . S
C224 O213 1.264 . S
C224 O214 1.243 . S
C225 C228 1.399 1_545 S
C225 C230 1.383 . S
C225 C232 1.496 1_545 S
C226 C227 1.399 . S
C226 C230 1.389 . S
C227 C226 1.399 . S
C227 C229 1.380 . S
C227 H244 0.929 1_655 S
C228 C225 1.399 1_565 S
C228 C229 1.392 1_565 S
C228 H245 0.929 . S
C229 C227 1.380 . S
C229 C228 1.392 1_545 S
C229 H246 0.929 1_545 S
C230 C225 1.383 . S
C230 C226 1.389 . S
C230 H247 0.931 . S
C231 O216 1.266 1_545 S
C231 O217 1.248 1_545 S
C232 Tb168 2.802 . S
C232 O212 1.264 1_565 S
C232 O215 1.256 . S
C232 C225 1.496 1_565 S
C233 C200 1.448 . S
C233 H210 0.930 . S
C233 C234 1.328 1_565 S
C234 C205 1.427 . S
C234 H211 0.929 . S
C234 C233 1.328 1_545 S
C235 O219 1.264 . S
C235 O220 1.243 . S
C236 C239 1.399 . S
C236 C240 1.383 . S
C236 C243 1.496 . S
C237 C238 1.399 . S
C237 C240 1.389 . S
C238 C237 1.399 . S
C238 C241 1.380 . S
C238 H248 0.929 . S
C239 C236 1.399 . S
C239 C241 1.392 . S
C239 H249 0.929 . S
C240 C236 1.383 . S
C240 C237 1.389 . S
C240 H250 0.931 . S
C241 C238 1.380 . S
C241 C239 1.392 . S
C241 H251 0.929 . S
C242 O222 1.266 . S
C242 O223 1.248 . S
C243 Tb179 2.802 . S
C243 O218 1.264 . S
C243 O221 1.256 . S
C243 C236 1.496 . S
H244 C227 0.929 1_455 S
H245 C228 0.929 . S
H246 C229 0.929 1_565 S
H247 C230 0.931 . S
H248 C238 0.929 . S
H249 C239 0.929 . S
H250 C240 0.931 . S
H251 C241 0.929 . S
Tb252 N281 2.617 1_655 S
Tb252 N287 2.572 . S
Tb252 O296 2.465 . S
Tb252 O297 2.387 1_556 S
Tb252 O299 2.428 . S
Tb252 O300 2.308 . S
Tb252 O304 2.349 . S
Tb252 O307 2.393 . S
Tb252 C316 2.802 . S
C253 N254 1.379 . S
C253 C256 1.416 . S
C253 C260 1.426 . S
N254 C253 1.379 . S
N254 C257 1.334 . S
N254 Tb263 2.617 . S
C255 C257 1.390 . S
C255 C258 1.339 . S
C255 H275 0.930 . S
C256 C253 1.416 . S
C256 C258 1.416 . S
C256 C262 1.448 1_554 S
C257 N254 1.334 . S
C257 C255 1.390 . S
C257 H268 0.930 . S
C258 C255 1.339 . S
C258 C256 1.416 . S
C258 H279 0.930 . S
C259 C260 1.408 1_556 S
C259 C261 1.427 1_545 S
C259 C265 1.416 . S
C260 C253 1.426 . S
C260 C259 1.408 1_554 S
C260 N264 1.363 . S
C261 C259 1.427 1_565 S
C261 C262 1.328 1_565 S
C261 H276 0.929 . S
C262 C256 1.448 1_556 S
C262 C261 1.328 1_545 S
C262 H277 0.930 1_545 S
Tb263 N254 2.617 . S
Tb263 N264 2.572 . S
Tb263 O298 2.349 . S
Tb263 O301 2.393 . S
Tb263 O302 2.465 . S
Tb263 O303 2.387 1_554 S
Tb263 O305 2.428 . S
Tb263 O306 2.308 . S
Tb263 C327 2.802 . S
N264 C260 1.363 . S
N264 Tb263 2.572 . S
N264 C266 1.340 1_554 S
C265 C259 1.416 . S
C265 C267 1.332 . S
C265 H273 0.931 . S
C266 N264 1.340 1_556 S
C266 C267 1.407 . S
C266 H272 0.930 1_556 S
C267 C265 1.332 . S
C267 C266 1.407 . S
C267 H269 0.929 . S
H268 C257 0.930 . S
H269 C267 0.929 . S
H270 C285 0.930 . S
H271 C292 0.929 . S
H272 C266 0.930 1_554 S
H273 C265 0.931 . S
H274 C288 0.930 1_556 S
H275 C255 0.930 . S
H276 C261 0.929 . S
H277 C262 0.930 1_565 S
H278 C283 0.930 . S
H279 C258 0.930 . S
H280 C291 0.931 . S
N281 Tb252 2.617 1_455 S
N281 C282 1.379 1_565 S
N281 C285 1.334 . S
C282 N281 1.379 1_545 S
C282 C284 1.417 . S
C282 C290 1.424 1_556 S
C283 H278 0.930 . S
C283 C285 1.390 . S
C283 C286 1.339 1_565 S
C284 C282 1.417 . S
C284 C286 1.418 . S
C284 C317 1.445 1_556 S
C285 H270 0.930 . S
C285 N281 1.334 . S
C285 C283 1.390 . S
C286 C283 1.339 1_545 S
C286 C284 1.418 . S
C286 H293 0.930 . S
N287 Tb252 2.572 . S
N287 C288 1.340 1_556 S
N287 C290 1.361 1_666 S
C288 H274 0.930 1_554 S
C288 N287 1.340 1_554 S
C288 C292 1.407 1_565 S
C289 C290 1.413 . S
C289 C291 1.416 1_455 S
C289 C318 1.427 . S
C290 C282 1.424 1_554 S
C290 N287 1.361 1_444 S
C290 C289 1.413 . S
C291 H280 0.931 . S
C291 C289 1.416 1_655 S
C291 C292 1.332 . S
C292 H271 0.929 . S
C292 C288 1.407 1_545 S
C292 C291 1.332 . S
H293 C286 0.930 . S
H294 C317 0.930 . S
H295 C318 0.929 . S
O296 Tb252 2.465 . S
O296 C316 1.264 . S
O297 Tb252 2.387 1_554 S
O297 C308 1.264 . S
O298 Tb263 2.349 . S
O298 C308 1.243 . S
O299 Tb252 2.428 . S
O299 C316 1.256 . S
O300 Tb252 2.308 . S
O300 C315 1.266 1_556 S
O301 Tb263 2.393 . S
O301 C315 1.248 . S
O302 Tb263 2.465 . S
O302 C327 1.264 . S
O303 Tb263 2.387 1_556 S
O303 C319 1.264 . S
O304 Tb252 2.349 . S
O304 C319 1.243 . S
O305 Tb263 2.428 . S
O305 C327 1.256 . S
O306 Tb263 2.308 . S
O306 C326 1.266 1_554 S
O307 Tb252 2.393 . S
O307 C326 1.248 . S
C308 O297 1.264 . S
C308 O298 1.243 . S
C309 C312 1.399 . S
C309 C314 1.383 . S
C309 C316 1.496 . S
C310 C311 1.399 . S
C310 C314 1.389 . S
C311 C310 1.399 . S
C311 C313 1.380 . S
C311 H328 0.929 1_565 S
C312 C309 1.399 . S
C312 C313 1.392 . S
C312 H329 0.929 1_655 S
C313 C311 1.380 . S
C313 C312 1.392 . S
C313 H330 0.929 1_655 S
C314 C309 1.383 . S
C314 C310 1.389 . S
C314 H331 0.931 . S
C315 O300 1.266 1_554 S
C315 O301 1.248 . S
C316 Tb252 2.802 . S
C316 O296 1.264 . S
C316 O299 1.256 . S
C316 C309 1.496 . S
C317 C284 1.445 1_554 S
C317 H294 0.930 . S
C317 C318 1.328 . S
C318 C289 1.427 . S
C318 H295 0.929 . S
C318 C317 1.328 . S
C319 O303 1.264 . S
C319 O304 1.243 . S
C320 C323 1.399 . S
C320 C324 1.383 . S
C320 C327 1.496 . S
C321 C322 1.399 . S
C321 C324 1.389 . S
C322 C321 1.399 . S
C322 C325 1.380 . S
C322 H332 0.929 . S
C323 C320 1.399 . S
C323 C325 1.392 . S
C323 H333 0.929 . S
C324 C320 1.383 . S
C324 C321 1.389 . S
C324 H334 0.931 . S
C325 C322 1.380 . S
C325 C323 1.392 . S
C325 H335 0.929 . S
C326 O306 1.266 1_556 S
C326 O307 1.248 . S
C327 Tb263 2.802 . S
C327 O302 1.264 . S
C327 O305 1.256 . S
C327 C320 1.496 . S
H328 C311 0.929 1_545 S
H329 C312 0.929 1_455 S
H330 C313 0.929 1_455 S
H331 C314 0.931 . S
H332 C322 0.929 . S
H333 C323 0.929 . S
H334 C324 0.931 . S
H335 C325 0.929 . S
Tb336 N365 2.617 1_565 S
Tb336 N371 2.572 1_455 S
Tb336 O380 2.465 1_455 S
Tb336 O381 2.387 . S
Tb336 O383 2.428 . S
Tb336 O384 2.308 . S
Tb336 O388 2.349 . S
Tb336 O391 2.393 . S
Tb336 C400 2.802 . S
C337 N338 1.379 . S
C337 C340 1.416 . S
C337 C344 1.424 . S
N338 C337 1.379 . S
N338 C341 1.334 . S
N338 Tb347 2.617 . S
C339 C341 1.390 . S
C339 C342 1.339 . S
C339 H359 0.930 . S
C340 C337 1.416 . S
C340 C342 1.416 . S
C340 C346 1.448 . S
C341 N338 1.334 . S
C341 C339 1.390 . S
C341 H352 0.930 . S
C342 C339 1.339 . S
C342 C340 1.416 . S
C342 H363 0.930 . S
C343 C344 1.413 . S
C343 C345 1.427 . S
C343 C349 1.416 . S
C344 C337 1.424 . S
C344 C343 1.413 . S
C344 N348 1.361 . S
C345 C343 1.427 . S
C345 C346 1.328 . S
C345 H360 0.929 . S
C346 C340 1.448 . S
C346 C345 1.328 . S
C346 H361 0.930 . S
Tb347 N338 2.617 . S
Tb347 N348 2.572 . S
Tb347 O382 2.349 . S
Tb347 O385 2.393 . S
Tb347 O386 2.465 . S
Tb347 O387 2.387 . S
Tb347 O389 2.428 . S
Tb347 O390 2.308 . S
Tb347 C411 2.802 . S
N348 C344 1.361 . S
N348 Tb347 2.572 . S
N348 C350 1.340 . S
C349 C343 1.416 . S
C349 C351 1.332 . S
C349 H357 0.931 . S
C350 N348 1.340 . S
C350 C351 1.407 . S
C350 H356 0.930 . S
C351 C349 1.332 . S
C351 C350 1.407 . S
C351 H353 0.929 . S
H352 C341 0.930 . S
H353 C351 0.929 . S
H354 C369 0.930 . S
H355 C376 0.929 . S
H356 C350 0.930 . S
H357 C349 0.931 . S
H358 C372 0.930 . S
H359 C339 0.930 . S
H360 C345 0.929 . S
H361 C346 0.930 . S
H362 C367 0.930 . S
H363 C342 0.930 . S
H364 C375 0.931 . S
N365 Tb336 2.617 1_545 S
N365 C366 1.379 . S
N365 C369 1.334 . S
C366 N365 1.379 . S
C366 C368 1.416 . S
C366 C374 1.424 1_455 S
C367 H362 0.930 . S
C367 C369 1.390 . S
C367 C370 1.339 . S
C368 C366 1.416 . S
C368 C370 1.416 . S
C368 C401 1.448 . S
C369 H354 0.930 . S
C369 N365 1.334 . S
C369 C367 1.390 . S
C370 C367 1.339 . S
C370 C368 1.416 . S
C370 H377 0.930 . S
N371 Tb336 2.572 1_655 S
N371 C372 1.340 . S
N371 C374 1.361 1_565 S
C372 H358 0.930 . S
C372 N371 1.340 . S
C372 C376 1.407 . S
C373 C374 1.413 . S
C373 C375 1.416 1_545 S
C373 C402 1.427 . S
C374 C366 1.424 1_655 S
C374 N371 1.361 1_545 S
C374 C373 1.413 . S
C375 H364 0.931 . S
C375 C373 1.416 1_565 S
C375 C376 1.332 . S
C376 H355 0.929 . S
C376 C372 1.407 . S
C376 C375 1.332 . S
H377 C370 0.930 . S
H378 C401 0.930 . S
H379 C402 0.929 . S
O380 Tb336 2.465 1_655 S
O380 C400 1.264 1_655 S
O381 Tb336 2.387 . S
O381 C392 1.264 . S
O382 Tb347 2.349 . S
O382 C392 1.243 . S
O383 Tb336 2.428 . S
O383 C400 1.256 . S
O384 Tb336 2.308 . S
O384 C399 1.266 1_455 S
O385 Tb347 2.393 . S
O385 C399 1.248 1_455 S
O386 Tb347 2.465 . S
O386 C411 1.264 . S
O387 Tb347 2.387 . S
O387 C403 1.264 . S
O388 Tb336 2.349 . S
O388 C403 1.243 . S
O389 Tb347 2.428 . S
O389 C411 1.256 . S
O390 Tb347 2.308 . S
O390 C410 1.266 . S
O391 Tb336 2.393 . S
O391 C410 1.248 . S
C392 O381 1.264 . S
C392 O382 1.243 . S
C393 C396 1.399 1_655 S
C393 C398 1.383 . S
C393 C400 1.496 1_655 S
C394 C395 1.399 . S
C394 C398 1.389 . S
C395 C394 1.399 . S
C395 C397 1.380 . S
C395 H412 0.929 . S
C396 C393 1.399 1_455 S
C396 C397 1.392 1_455 S
C396 H413 0.929 1_565 S
C397 C395 1.380 . S
C397 C396 1.392 1_655 S
C397 H414 0.929 1_665 S
C398 C393 1.383 . S
C398 C394 1.389 . S
C398 H415 0.931 . S
C399 O384 1.266 1_655 S
C399 O385 1.248 1_655 S
C400 Tb336 2.802 . S
C400 O380 1.264 1_455 S
C400 O383 1.256 . S
C400 C393 1.496 1_455 S
C401 C368 1.448 . S
C401 H378 0.930 . S
C401 C402 1.328 1_455 S
C402 C373 1.427 . S
C402 H379 0.929 . S
C402 C401 1.328 1_655 S
C403 O387 1.264 . S
C403 O388 1.243 . S
C404 C407 1.399 . S
C404 C408 1.383 . S
C404 C411 1.496 . S
C405 C406 1.399 . S
C405 C408 1.389 . S
C406 C405 1.399 . S
C406 C409 1.380 . S
C406 H416 0.929 . S
C407 C404 1.399 . S
C407 C409 1.392 . S
C407 H417 0.929 . S
C408 C404 1.383 . S
C408 C405 1.389 . S
C408 H418 0.931 . S
C409 C406 1.380 . S
C409 C407 1.392 . S
C409 H419 0.929 . S
C410 O390 1.266 . S
C410 O391 1.248 . S
C411 Tb347 2.802 . S
C411 O386 1.264 . S
C411 O389 1.256 . S
C411 C404 1.496 . S
H412 C395 0.929 . S
H413 C396 0.929 1_545 S
H414 C397 0.929 1_445 S
H415 C398 0.931 . S
H416 C406 0.929 . S
H417 C407 0.929 . S
H418 C408 0.931 . S
H419 C409 0.929 . S
Tb420 N449 2.617 . S
Tb420 N455 2.572 1_545 S
Tb420 O464 2.465 1_545 S
Tb420 O465 2.387 . S
Tb420 O467 2.428 . S
Tb420 O468 2.308 . S
Tb420 O472 2.349 . S
Tb420 O475 2.393 . S
Tb420 C484 2.802 . S
C421 N422 1.379 . S
C421 C424 1.416 . S
C421 C428 1.424 . S
N422 C421 1.379 . S
N422 C425 1.334 . S
N422 Tb431 2.617 . S
C423 C425 1.390 . S
C423 C426 1.339 . S
C423 H443 0.930 . S
C424 C421 1.416 . S
C424 C426 1.416 . S
C424 C430 1.448 . S
C425 N422 1.334 . S
C425 C423 1.390 . S
C425 H436 0.930 . S
C426 C423 1.339 . S
C426 C424 1.416 . S
C426 H447 0.930 . S
C427 C428 1.413 . S
C427 C429 1.427 1_655 S
C427 C433 1.416 . S
C428 C421 1.424 . S
C428 C427 1.413 . S
C428 N432 1.361 . S
C429 C427 1.427 1_455 S
C429 C430 1.328 1_455 S
C429 H444 0.929 . S
C430 C424 1.448 . S
C430 C429 1.328 1_655 S
C430 H445 0.930 1_655 S
Tb431 N422 2.617 . S
Tb431 N432 2.572 . S
Tb431 O466 2.349 . S
Tb431 O469 2.393 . S
Tb431 O470 2.465 . S
Tb431 O471 2.387 . S
Tb431 O473 2.428 . S
Tb431 O474 2.308 . S
Tb431 C495 2.802 . S
N432 C428 1.361 . S
N432 Tb431 2.572 . S
N432 C434 1.340 . S
C433 C427 1.416 . S
C433 C435 1.332 . S
C433 H441 0.931 . S
C434 N432 1.340 . S
C434 C435 1.407 . S
C434 H440 0.930 . S
C435 C433 1.332 . S
C435 C434 1.407 . S
C435 H437 0.929 . S
H436 C425 0.930 . S
H437 C435 0.929 . S
H438 C453 0.930 . S
H439 C460 0.929 . S
H440 C434 0.930 . S
H441 C433 0.931 . S
H442 C456 0.930 . S
H443 C423 0.930 . S
H444 C429 0.929 . S
H445 C430 0.930 1_455 S
H446 C451 0.930 . S
H447 C426 0.930 . S
H448 C459 0.931 . S
N449 Tb420 2.617 . S
N449 C450 1.379 1_455 S
N449 C453 1.334 . S
C450 N449 1.379 1_655 S
C450 C452 1.416 . S
C450 C458 1.424 1_545 S
C451 H446 0.930 . S
C451 C453 1.390 . S
C451 C454 1.339 1_455 S
C452 C450 1.416 . S
C452 C454 1.416 . S
C452 C485 1.448 . S
C453 H438 0.930 . S
C453 N449 1.334 . S
C453 C451 1.390 . S
C454 C451 1.339 1_655 S
C454 C452 1.416 . S
C454 H461 0.930 . S
N455 Tb420 2.572 1_565 S
N455 C456 1.340 . S
N455 C458 1.361 1_455 S
C456 H442 0.930 . S
C456 N455 1.340 . S
C456 C460 1.407 1_455 S
C457 C458 1.413 . S
C457 C459 1.416 . S
C457 C486 1.427 . S
C458 C450 1.424 1_565 S
C458 N455 1.361 1_655 S
C458 C457 1.413 . S
C459 H448 0.931 . S
C459 C457 1.416 . S
C459 C460 1.332 . S
C460 H439 0.929 . S
C460 C456 1.407 1_655 S
C460 C459 1.332 . S
H461 C454 0.930 . S
H462 C485 0.930 . S
H463 C486 0.929 . S
O464 Tb420 2.465 1_565 S
O464 C484 1.264 1_565 S
O465 Tb420 2.387 . S
O465 C476 1.264 . S
O466 Tb431 2.349 . S
O466 C476 1.243 . S
O467 Tb420 2.428 . S
O467 C484 1.256 . S
O468 Tb420 2.308 . S
O468 C483 1.266 1_545 S
O469 Tb431 2.393 . S
O469 C483 1.248 1_545 S
O470 Tb431 2.465 . S
O470 C495 1.264 . S
O471 Tb431 2.387 . S
O471 C487 1.264 . S
O472 Tb420 2.349 . S
O472 C487 1.243 . S
O473 Tb431 2.428 . S
O473 C495 1.256 . S
O474 Tb431 2.308 . S
O474 C494 1.266 . S
O475 Tb420 2.393 . S
O475 C494 1.248 . S
C476 O465 1.264 . S
C476 O466 1.243 . S
C477 C480 1.399 1_565 S
C477 C482 1.383 . S
C477 C484 1.496 1_565 S
C478 C479 1.399 . S
C478 C482 1.389 . S
C479 C478 1.399 . S
C479 C481 1.380 . S
C479 H496 0.929 1_455 S
C480 C477 1.399 1_545 S
C480 C481 1.392 1_545 S
C480 H497 0.929 . S
C481 C479 1.380 . S
C481 C480 1.392 1_565 S
C481 H498 0.929 1_565 S
C482 C477 1.383 . S
C482 C478 1.389 . S
C482 H499 0.931 . S
C483 O468 1.266 1_565 S
C483 O469 1.248 1_565 S
C484 Tb420 2.802 . S
C484 O464 1.264 1_545 S
C484 O467 1.256 . S
C484 C477 1.496 1_545 S
C485 C452 1.448 . S
C485 H462 0.930 . S
C485 C486 1.328 1_545 S
C486 C457 1.427 . S
C486 H463 0.929 . S
C486 C485 1.328 1_565 S
C487 O471 1.264 . S
C487 O472 1.243 . S
C488 C491 1.399 . S
C488 C492 1.383 . S
C488 C495 1.496 . S
C489 C490 1.399 . S
C489 C492 1.389 . S
C490 C489 1.399 . S
C490 C493 1.380 . S
C490 H500 0.929 . S
C491 C488 1.399 . S
C491 C493 1.392 . S
C491 H501 0.929 . S
C492 C488 1.383 . S
C492 C489 1.389 . S
C492 H502 0.931 . S
C493 C490 1.380 . S
C493 C491 1.392 . S
C493 H503 0.929 . S
C494 O474 1.266 . S
C494 O475 1.248 . S
C495 Tb431 2.802 . S
C495 O470 1.264 . S
C495 O473 1.256 . S
C495 C488 1.496 . S
H496 C479 0.929 1_655 S
H497 C480 0.929 . S
H498 C481 0.929 1_545 S
H499 C482 0.931 . S
H500 C490 0.929 . S
H501 C491 0.929 . S
H502 C492 0.931 . S
H503 C493 0.929 . S
C403 C69 1.479 . S
C487 C153 1.479 . S
C67 C237 1.479 . S
C151 C321 1.479 . S
C235 C405 1.479 . S
C319 C489 1.479 . S
C63 C315 3.147 . S
C399 C147 3.146 1_655 S
C483 C231 3.145 1_565 S
C242 C494 2.823 . S
C74 C326 2.824 1_455 S
C410 C158 2.824 1_565 S
C476 C58 1.729 . S
C142 C56 1.728 . S
C226 C140 1.728 . S
C224 C310 1.729 . S
C394 C308 1.728 . S
C478 C392 1.728 . S
