# Generated by pormake.
# Topology bsn, (6)-cn, num edge types: 1
# Building blocks:
#     Node 0, Type 0, BuildingBlock: BETDEL_clean_sbu_0, # of connection points: 6
#     Node 1, Type 0, BuildingBlock: BETDEL_clean_sbu_0, # of connection points: 6
#     Node 2, Type 0, BuildingBlock: BETDEL_clean_sbu_0, # of connection points: 6
#     Node 3, Type 0, BuildingBlock: BETDEL_clean_sbu_0, # of connection points: 6
#     Edge 4, Type (0, 0), BuildingBlock: FUNLAD_clean_linker_0, # of connection points: 2
#     Edge 5, Type (0, 0), BuildingBlock: FUNLAD_clean_linker_0, # of connection points: 2
#     Edge 6, Type (0, 0), BuildingBlock: FUNLAD_clean_linker_0, # of connection points: 2
#     Edge 7, Type (0, 0), BuildingBlock: FUNLAD_clean_linker_0, # of connection points: 2
#     Edge 8, Type (0, 0), BuildingBlock: FUNLAD_clean_linker_0, # of connection points: 2
#     Edge 9, Type (0, 0), BuildingBlock: FUNLAD_clean_linker_0, # of connection points: 2
#     Edge 10, Type (0, 0), BuildingBlock: FUNLAD_clean_linker_0, # of connection points: 2
#     Edge 11, Type (0, 0), BuildingBlock: FUNLAD_clean_linker_0, # of connection points: 2
#     Edge 12, Type (0, 0), BuildingBlock: FUNLAD_clean_linker_0, # of connection points: 2
#     Edge 13, Type (0, 0), BuildingBlock: FUNLAD_clean_linker_0, # of connection points: 2
#     Edge 14, Type (0, 0), BuildingBlock: FUNLAD_clean_linker_0, # of connection points: 2
#     Edge 15, Type (0, 0), BuildingBlock: FUNLAD_clean_linker_0, # of connection points: 2
# Relax obj value: 0.363
# Max RMSD: 0.269
# Mean RMSD: 0.269
data_MOF--net-bsn--node1-BETDEL_clean_sbu_0--edge1-FUNLAD_clean_linker_0
_symmetry_space_group_name_H-M    P1
_symmetry_Int_Tables_number       1
_symmetry_cell_setting            triclinic
loop_
_symmetry_equiv_pos_as_xyz
'x, y, z'
_cell_length_a     37.506361
_cell_length_b     37.526032
_cell_length_c     16.815604
_cell_angle_alpha  93.819315
_cell_angle_beta   92.433403
_cell_angle_gamma 89.853232
loop_
_atom_site_label
_atom_site_type_symbol
_atom_site_fract_x
_atom_site_fract_y
_atom_site_fract_z
_atom_type_partial_charge
Dy0 Dy 0.05324 0.25831 0.33829 0.0
C1 C 0.90205 0.25252 0.38028 0.0
C2 C 0.11964 0.26332 0.27867 0.0
Dy3 Dy 0.9736 0.26003 0.35894 0.0
O4 O 0.11133 0.27417 0.35053 0.0
O5 O 0.09167 0.25001 0.23952 0.0
O6 O 0.06401 0.2325 0.45287 0.0
O7 O 0.01993 0.26698 0.44204 0.0
C8 C 0.03549 0.24518 0.48594 0.0
C9 C 0.99386 0.27223 0.21144 0.0
O10 O 0.98839 0.31369 0.41443 0.0
O11 O 0.04035 0.31746 0.3463 0.0
O12 O 0.9235 0.22704 0.35768 0.0
O13 O 0.92 0.28194 0.39421 0.0
O14 O 0.96645 0.28696 0.24396 0.0
O15 O 1.00717 0.24989 0.25645 0.0
O16 O 0.04195 0.19971 0.32208 0.0
O17 O 0.98597 0.20256 0.37599 0.0
C18 C 0.0148 0.33272 0.38918 0.0
C19 C 0.01374 0.18412 0.34962 0.0
Dy20 Dy 0.01498 0.80751 0.59804 0.0
C21 C 1.0024 0.65358 0.59975 0.0
C22 C 0.02426 0.87497 0.55066 0.0
Dy23 Dy 1.01253 0.72564 0.59948 0.0
O24 O 0.03035 0.8654 0.62287 0.0
O25 O 0.01316 0.84775 0.50474 0.0
O26 O 0.99114 0.81459 0.71752 0.0
O27 O 0.02284 0.76941 0.6892 0.0
C28 C 1.0026 0.78387 0.73998 0.0
C29 C 0.02562 0.75219 0.4597 0.0
O30 O 0.95574 0.74086 0.62291 0.0
O31 O 0.95606 0.79913 0.58327 0.0
O32 O 0.99089 0.67376 0.54461 0.0
O33 O 0.01884 0.67297 0.65705 0.0
O34 O 0.04049 0.72344 0.4839 0.0
O35 O 1.0038 0.76412 0.50943 0.0
O36 O 0.07355 0.79241 0.60204 0.0
O37 O 0.06916 0.73431 0.64097 0.0
C38 C 0.93896 0.77072 0.60523 0.0
C39 C 0.0883 0.76298 0.62898 0.0
Dy40 Dy 0.5546 0.75824 0.83286 0.0
C41 C 0.40358 0.75361 0.87254 0.0
C42 C 0.62132 0.76237 0.77459 0.0
Dy43 Dy 0.47521 0.76154 0.8533 0.0
O44 O 0.61299 0.77258 0.84676 0.0
O45 O 0.5932 0.75012 0.73429 0.0
O46 O 0.56465 0.73205 0.94714 0.0
O47 O 0.52149 0.76778 0.93672 0.0
C48 C 0.53657 0.74562 -0.0195 0.0
C49 C 0.49576 0.77333 0.70586 0.0
O50 O 0.49025 0.8155 0.90707 0.0
O51 O 0.54316 0.81767 0.84177 0.0
O52 O 0.42517 0.72848 0.84884 0.0
O53 O 0.4214 0.78298 0.88879 0.0
O54 O 0.46869 0.78867 0.73849 0.0
O55 O 0.50856 0.75067 0.75072 0.0
O56 O 0.54192 0.69993 0.8147 0.0
O57 O 0.48702 0.70407 0.87273 0.0
C58 C 0.51756 0.83374 0.88321 0.0
C59 C 0.51395 0.68486 0.84451 0.0
Dy60 Dy 0.51484 0.30679 0.10313 0.0
C61 C 0.51935 0.1532 0.11933 0.0
C62 C 0.51132 0.37494 0.05481 0.0
Dy63 Dy 0.51077 0.22525 0.11084 0.0
O64 O 0.50514 0.36573 0.126 0.0
O65 O 0.51945 0.34688 0.00976 0.0
O66 O 0.53549 0.3142 0.22939 0.0
O67 O 0.50102 0.271 0.19413 0.0
C68 C 0.5208 0.28504 0.25021 0.0
C69 C 0.50409 0.24979 0.96534 0.0
O70 O 0.4536 0.23796 0.13031 0.0
O71 O 0.45553 0.29582 0.08844 0.0
O72 O 0.53853 0.17365 0.07903 0.0
O73 O 0.49567 0.17231 0.1574 0.0
O74 O 0.48722 0.22207 -0.014 0.0
O75 O 0.52515 0.26137 0.02109 0.0
O76 O 0.57312 0.2936 0.10774 0.0
O77 O 0.56635 0.23809 0.15878 0.0
C78 C 0.4375 0.26775 0.10998 0.0
C79 C 0.58653 0.26544 0.1424 0.0
C80 C 0.99562 0.38555 0.47547 0.0
C81 C 0.01641 0.37137 0.41323 0.0
C82 C 0.9963 0.42205 0.49792 0.0
C83 C 0.01767 0.44531 0.45826 0.0
C84 C 0.03843 0.43118 0.39605 0.0
C85 C 0.03814 0.39451 0.37426 0.0
C86 C 0.01673 0.48457 0.4764 0.0
C87 C 1.00964 0.50004 0.54874 0.0
C88 C 1.00642 0.53936 0.56323 0.0
C89 C 0.01781 0.55606 0.63723 0.0
C90 C 0.01584 0.5933 0.6506 0.0
C91 C 1.00168 0.61421 0.59065 0.0
H92 H 0.98111 0.54819 0.44771 0.0
C93 C 0.98885 0.59728 0.51809 0.0
C94 C 0.99126 0.56031 0.50439 0.0
H95 H 0.97761 0.61269 0.47088 0.0
H96 H 0.97861 0.36845 0.50688 0.0
H97 H 0.97922 0.43206 0.54468 0.0
H98 H 0.05485 0.4486 0.36398 0.0
H99 H 0.05435 0.38443 0.32592 0.0
H100 H 0.02272 0.50135 0.42841 0.0
H101 H 1.00727 0.48372 0.59923 0.0
H102 H 0.0291 0.54039 0.68392 0.0
H103 H 0.02587 0.60573 0.7071 0.0
C104 C 0.68565 0.77983 0.78952 0.0
C105 C 0.6576 0.7628 0.74405 0.0
C106 C 0.72031 0.77904 0.76179 0.0
C107 C 0.72756 0.76097 0.68815 0.0
C108 C 0.69944 0.74392 0.64294 0.0
C109 C 0.66471 0.74512 0.67019 0.0
C110 C 0.76442 0.75763 0.65942 0.0
C111 C 0.78961 0.78284 0.67625 0.0
C112 C 0.82704 0.77877 0.65141 0.0
C113 C 0.84707 0.80945 0.64033 0.0
C114 C 0.88308 0.80676 0.62232 0.0
C115 C 0.90004 0.77328 0.61655 0.0
H116 H 0.82946 0.72099 0.65396 0.0
C117 C 0.8799 0.7425 0.62684 0.0
C118 C 0.84378 0.74517 0.64388 0.0
H119 H 0.89217 0.71632 0.62311 0.0
H120 H 0.68088 0.79346 0.84692 0.0
H121 H 0.74148 0.79167 0.79924 0.0
H122 H 0.70436 0.72956 0.5864 0.0
H123 H 0.64357 0.73162 0.63412 0.0
H124 H 0.77054 0.73412 0.62117 0.0
H125 H 0.78244 0.8079 0.70768 0.0
H126 H 0.8349 0.83566 0.64641 0.0
H127 H 0.89784 0.83104 0.61541 0.0
C128 C 0.51704 0.41944 0.95133 0.0
C129 C 0.50929 0.41184 0.02941 0.0
C130 C 0.51497 0.45454 0.92776 0.0
C131 C 0.50518 0.48271 -0.01784 0.0
C132 C 0.49713 0.47481 0.0599 0.0
C133 C 0.49931 0.43983 0.08341 0.0
C134 C 0.50188 0.52042 0.96019 0.0
C135 C 0.51839 0.53387 0.89902 0.0
C136 C 0.51582 0.57221 0.88141 0.0
C137 C 0.54403 0.58807 0.84424 0.0
C138 C 0.5432 0.62447 0.83045 0.0
C139 C 0.5139 0.64574 0.85287 0.0
H140 H 0.46296 0.58173 0.92675 0.0
C141 C 0.485 0.62949 0.88703 0.0
C142 C 0.48588 0.59319 0.90089 0.0
H143 H 0.46176 0.64488 0.90415 0.0
H144 H 0.52454 0.39825 0.90835 0.0
H145 H 0.52044 0.45925 0.8667 0.0
H146 H 0.48927 0.49584 0.10294 0.0
H147 H 0.49306 0.43472 0.14393 0.0
H148 H 0.48671 0.53829 -0.00061 0.0
H149 H 0.53633 0.51709 0.864 0.0
H150 H 0.56722 0.57246 0.82762 0.0
H151 H 0.56584 0.63601 0.80361 0.0
C152 C 0.84177 0.28111 0.37797 0.0
C153 C 0.86278 0.25009 0.37237 0.0
C154 C 0.80526 0.27954 0.35705 0.0
C155 C 0.78914 0.24684 0.32997 0.0
C156 C 0.80985 0.21559 0.32927 0.0
C157 C 0.84634 0.2172 0.34973 0.0
C158 C 0.7511 0.24417 0.30121 0.0
C159 C 0.73307 0.27124 0.26886 0.0
C160 C 0.69564 0.26834 0.23519 0.0
C161 C 0.68273 0.29459 0.18542 0.0
C162 C 0.64759 0.29339 0.15376 0.0
C163 C 0.62448 0.26583 0.1712 0.0
H164 H 0.68054 0.22054 0.29246 0.0
C165 C 0.6374 0.23946 0.22066 0.0
C166 C 0.67239 0.24079 0.25269 0.0
H167 H 0.62024 0.21808 0.2364 0.0
H168 H 0.85378 0.3068 0.39565 0.0
H169 H 0.78994 0.30401 0.36136 0.0
H170 H 0.79806 0.18997 0.30986 0.0
H171 H 0.86192 0.19285 0.34506 0.0
H172 H 0.73876 0.21808 0.3013 0.0
H173 H 0.74679 0.2963 0.26289 0.0
H174 H 0.69987 0.31626 0.17112 0.0
H175 H 0.6385 0.31425 0.11625 0.0
C176 C 0.37776 0.24072 0.13037 0.0
C177 C 0.39846 0.27102 0.11918 0.0
C178 C 0.34162 0.24412 0.1468 0.0
C179 C 0.32538 0.278 0.15276 0.0
C180 C 0.34593 0.30819 0.14043 0.0
C181 C 0.38197 0.30476 0.12303 0.0
C182 C 0.28797 0.28286 0.17743 0.0
C183 C 0.26247 0.25786 0.16178 0.0
C184 C 0.22564 0.26174 0.19061 0.0
C185 C 0.19748 0.24418 0.14661 0.0
C186 C 0.16284 0.24553 0.17429 0.0
C187 C 0.15581 0.26389 0.24745 0.0
H188 H 0.23967 0.29371 0.29995 0.0
C189 C 0.18387 0.28156 0.29162 0.0
C190 C 0.21847 0.28062 0.2634 0.0
H191 H 0.17918 0.29574 0.34845 0.0
H192 H 0.38964 0.21435 0.12815 0.0
H193 H 0.32692 0.2203 0.15785 0.0
H194 H 0.33416 0.33461 0.14524 0.0
H195 H 0.39717 0.32871 0.11537 0.0
H196 H 0.28113 0.30825 0.20789 0.0
H197 H 0.26833 0.23399 0.12449 0.0
H198 H 0.20231 0.22921 0.09075 0.0
H199 H 0.1417 0.23153 0.1392 0.0
C200 C 0.34306 0.78176 0.86725 0.0
C201 C 0.36437 0.75092 0.86335 0.0
C202 C 0.30669 0.77973 0.84477 0.0
C203 C 0.29108 0.74676 0.81791 0.0
C204 C 0.31207 0.71574 0.81891 0.0
C205 C 0.34838 0.71781 0.84086 0.0
C206 C 0.25326 0.74344 0.7878 0.0
C207 C 0.23494 0.77008 0.7545 0.0
C208 C 0.19767 0.76659 0.71981 0.0
C209 C 0.18372 0.79403 0.67461 0.0
C210 C 0.14858 0.79254 0.64294 0.0
C211 C 0.12652 0.76342 0.65556 0.0
H212 H 0.18438 0.71584 0.76747 0.0
C213 C 0.14059 0.73569 0.69963 0.0
C214 C 0.17553 0.73732 0.73183 0.0
H215 H 0.12428 0.71303 0.71151 0.0
H216 H 0.35473 0.80762 0.8847 0.0
H217 H 0.29112 0.80406 0.84775 0.0
H218 H 0.30067 0.68992 0.79972 0.0
H219 H 0.36419 0.69359 0.83748 0.0
H220 H 0.24143 0.71715 0.78815 0.0
H221 H 0.24823 0.79543 0.74923 0.0
H222 H 0.19997 0.81698 0.66434 0.0
H223 H 0.13859 0.81445 0.6096 0.0
C224 C 0.49488 0.88899 0.9568 0.0
C225 C 0.52061 0.87233 0.90839 0.0
C226 C 0.49813 0.92501 -0.01681 0.0
C227 C 0.52734 0.94531 0.96202 0.0
C228 C 0.55268 0.92881 0.91246 0.0
C229 C 0.54949 0.89271 0.88625 0.0
C230 C 0.53154 0.98396 -0.01269 0.0
C231 C 0.51654 1.00007 0.052 0.0
C232 C 0.5196 0.03911 0.0746 0.0
C233 C 0.49353 0.05577 0.12206 0.0
C234 C 0.49412 0.09279 0.14 0.0
C235 C 0.52098 0.11379 0.11112 0.0
H236 H 0.56906 0.04834 0.0159 0.0
C237 C 0.54807 0.09699 0.06728 0.0
C238 C 0.54756 0.06008 0.04954 0.0
H239 H 0.56937 0.1125 0.04499 0.0
H240 H 0.47211 0.87421 -0.02537 0.0
H241 H 0.47731 0.93683 0.01888 0.0
H242 H 0.57525 0.94385 0.8944 0.0
H243 H 0.56976 0.88082 0.8489 0.0
H244 H 0.54771 0.9995 0.95034 0.0
H245 H 0.50032 0.98452 0.08888 0.0
H246 H 0.47195 0.04027 0.14321 0.0
H247 H 0.47292 0.10507 0.17399 0.0
C248 C 0.01653 0.9195 0.44756 0.0
C249 C 0.02848 0.9114 0.52454 0.0
C250 C 0.01952 0.95421 0.42311 0.0
C251 C 0.03471 0.98147 0.47522 0.0
C252 C 0.04757 0.97306 0.55137 0.0
C253 C 0.04418 0.93841 0.57615 0.0
C254 C 0.03765 0.01878 0.45174 0.0
C255 C 0.01325 0.03357 0.40287 0.0
C256 C 0.01425 0.07176 0.38518 0.0
C257 C 0.98195 0.09013 0.37475 0.0
C258 C 0.98182 0.12651 0.36183 0.0
C259 C 0.01405 0.14509 0.35703 0.0
H260 H 0.07191 0.07643 0.38433 0.0
C261 C 0.04643 0.12639 0.36404 0.0
C262 C 0.04656 0.09008 0.37851 0.0
H263 H 0.07169 0.14002 0.36067 0.0
H264 H 1.00458 0.89906 0.40634 0.0
H265 H 1.01023 0.95952 0.36322 0.0
H266 H 0.05964 0.9935 0.59238 0.0
H267 H 0.05382 0.93278 0.63565 0.0
H268 H 0.05883 0.03531 0.48061 0.0
H269 H 0.99 0.01815 0.3807 0.0
H270 H 0.95671 0.07651 0.37884 0.0
H271 H 0.95644 0.14015 0.35613 0.0
C272 C 0.02384 0.24865 0.08864 0.0
C273 C 1.00068 0.2733 0.12601 0.0
C274 C 0.02789 0.24807 0.00625 0.0
C275 C 1.00871 0.27214 0.95981 0.0
C276 C 0.9867 0.29763 -0.00193 0.0
C277 C 0.98255 0.2981 0.08023 0.0
C278 C 1.01107 0.27188 0.8718 0.0
C279 C 0.0199 0.24277 0.82552 0.0
C280 C 0.02194 0.24284 0.73754 0.0
C281 C 0.04546 0.21909 0.69863 0.0
C282 C 0.04925 0.21933 0.61641 0.0
C283 C 0.02918 0.24304 0.57134 0.0
H284 H 0.98139 0.28339 0.71916 0.0
C285 C 1.00443 0.26572 0.6094 0.0
C286 C 1.00082 0.26567 0.6918 0.0
H287 H 0.98834 0.28399 0.5758 0.0
H288 H 0.03828 0.22936 0.12274 0.0
H289 H 0.04614 0.22886 -0.02038 0.0
H290 H 0.97199 0.31677 0.964 0.0
H291 H 0.96472 0.31757 0.10773 0.0
H292 H 1.00436 0.29654 0.8443 0.0
H293 H 0.02682 0.21808 0.85257 0.0
H294 H 0.06164 0.20088 0.73224 0.0
H295 H 0.06828 0.20132 0.58831 0.0
C296 C 0.02276 0.74512 0.84783 0.0
C297 C 1.00203 0.7738 0.82272 0.0
C298 C 0.0257 0.73847 0.92852 0.0
C299 C 1.00819 0.76051 -0.01482 0.0
C300 C 0.98564 0.78781 0.95914 0.0
C301 C 0.98273 0.79446 0.87856 0.0
C302 C 0.01435 0.75456 0.07076 0.0
C303 C 1.01201 0.78092 0.1286 0.0
C304 C 0.018 0.77486 0.214 0.0
C305 C 0.99829 0.79492 0.27006 0.0
C306 C 1.00151 0.78825 0.35062 0.0
C307 C 0.02509 0.7619 0.37652 0.0
H308 H 0.05921 0.73444 0.19881 0.0
C309 C 0.0462 0.74308 0.32107 0.0
C310 C 0.04269 0.74946 0.24032 0.0
H311 H 0.06479 0.72282 0.33977 0.0
H312 H 0.03765 0.72858 0.80562 0.0
H313 H 0.04271 0.71688 0.947 0.0
H314 H 0.97039 0.80429 0.00061 0.0
H315 H 0.96605 0.81633 0.8603 0.0
H316 H 0.02211 0.72787 0.08607 0.0
H317 H 1.00427 0.80766 0.11383 0.0
H318 H 0.97939 0.81488 0.25113 0.0
H319 H 0.98467 0.80291 0.39206 0.0
C320 C 0.54962 0.71929 0.11067 0.0
C321 C 0.5302 0.74357 0.06586 0.0
C322 C 0.54582 0.71907 0.19288 0.0
C323 C 0.52293 0.74343 0.232 0.0
C324 C 0.50242 0.76683 0.1865 0.0
C325 C 0.50604 0.76686 0.10411 0.0
C326 C 0.52092 0.74339 0.31996 0.0
C327 C 0.513 0.77276 0.36633 0.0
C328 C 0.51066 0.77306 0.45432 0.0
C329 C 0.48924 0.79904 0.49273 0.0
C330 C 0.48509 0.79955 0.57488 0.0
C331 C 0.50264 0.77431 0.62047 0.0
H332 H 0.5471 0.72893 0.47376 0.0
C333 C 0.52524 0.74917 0.58294 0.0
C334 C 0.52929 0.74854 0.50056 0.0
H335 H 0.53925 0.72955 0.61692 0.0
H336 H 0.56817 0.70079 0.08239 0.0
H337 H 0.5615 0.70042 0.22632 0.0
H338 H 0.48346 0.78504 0.21405 0.0
H339 H 0.49044 0.78557 0.07068 0.0
H340 H 0.52711 0.7185 0.3469 0.0
H341 H 0.50702 0.79761 0.33895 0.0
H342 H 0.47498 0.81853 0.45879 0.0
H343 H 0.4677 0.8194 0.60253 0.0
C344 C 0.54283 0.29327 0.39118 0.0
C345 C 0.5209 0.27483 0.33276 0.0
C346 C 0.5407 0.28623 0.47108 0.0
C347 C 0.51629 0.26081 0.49385 0.0
C348 C 0.49583 0.24098 0.43476 0.0
C349 C 0.49802 0.24799 0.35465 0.0
C350 C 0.5113 0.25457 0.57849 0.0
C351 C 0.51702 0.28007 0.63778 0.0
C352 C 0.51166 0.27374 0.72212 0.0
C353 C 0.5335 0.29169 0.78152 0.0
C354 C 0.53054 0.28462 0.86137 0.0
C355 C 0.50525 0.2599 0.88282 0.0
H356 H 0.46709 0.23696 0.70006 0.0
C357 C 0.48221 0.24327 0.82392 0.0
C358 C 0.48531 0.25015 0.74415 0.0
H359 H 0.46218 0.22444 0.83929 0.0
H360 H 0.56122 0.31359 0.37534 0.0
H361 H 0.55812 0.30087 0.51455 0.0
H362 H 0.47729 0.22083 0.45083 0.0
H363 H 0.48112 0.23317 0.3103 0.0
H364 H 0.50152 0.22848 0.59172 0.0
H365 H 0.52684 0.30619 0.6251 0.0
H366 H 0.55367 0.31032 0.76587 0.0
H367 H 0.54868 0.2977 0.90583 0.0
loop_
_geom_bond_atom_site_label_1
_geom_bond_atom_site_label_2
_geom_bond_distance
_geom_bond_site_symmetry_2
_ccdc_geom_bond_type
Dy0 O4 2.398 . S
Dy0 O5 2.491 . S
Dy0 O6 2.403 . S
Dy0 O7 2.664 1_455 S
Dy0 O11 2.326 . S
Dy0 O15 2.310 . S
Dy0 O16 2.351 . S
C1 O12 1.185 . S
C1 O13 1.355 . S
C2 O4 1.185 . S
C2 O5 1.355 . S
Dy3 O7 2.310 . S
Dy3 O10 2.351 . S
Dy3 O12 2.398 . S
Dy3 O13 2.491 . S
Dy3 O14 2.403 . S
Dy3 O15 2.664 1_655 S
Dy3 O17 2.326 . S
O4 Dy0 2.398 . S
O4 C2 1.185 . S
O5 Dy0 2.491 . S
O5 C2 1.355 . S
O6 Dy0 2.403 . S
O6 C8 1.254 . S
O7 Dy0 2.664 1_655 S
O7 Dy3 2.310 . S
O7 C8 1.268 1_655 S
C8 O6 1.254 . S
C8 O7 1.268 1_455 S
C9 O14 1.254 . S
C9 O15 1.268 1_655 S
O10 Dy3 2.351 . S
O10 C18 1.249 1_655 S
O11 Dy0 2.326 . S
O11 C18 1.267 . S
O12 C1 1.185 . S
O12 Dy3 2.398 . S
O13 C1 1.355 . S
O13 Dy3 2.491 . S
O14 Dy3 2.403 . S
O14 C9 1.254 . S
O15 Dy0 2.310 . S
O15 Dy3 2.664 1_455 S
O15 C9 1.268 1_455 S
O16 Dy0 2.351 . S
O16 C19 1.249 1_455 S
O17 Dy3 2.326 . S
O17 C19 1.267 . S
C18 O10 1.249 1_455 S
C18 O11 1.267 . S
C19 O16 1.249 1_655 S
C19 O17 1.267 . S
Dy20 O24 2.398 1_455 S
Dy20 O25 2.491 1_455 S
Dy20 O26 2.403 . S
Dy20 O27 2.664 . S
Dy20 O31 2.326 1_455 S
Dy20 O35 2.310 1_455 S
Dy20 O36 2.351 . S
C21 O32 1.185 . S
C21 O33 1.355 . S
C22 O24 1.185 . S
C22 O25 1.355 . S
Dy23 O27 2.310 1_655 S
Dy23 O30 2.351 . S
Dy23 O32 2.398 1_655 S
Dy23 O33 2.491 1_655 S
Dy23 O34 2.403 . S
Dy23 O35 2.664 . S
Dy23 O37 2.326 1_655 S
O24 Dy20 2.398 1_655 S
O24 C22 1.185 . S
O25 Dy20 2.491 1_655 S
O25 C22 1.355 . S
O26 Dy20 2.403 . S
O26 C28 1.254 . S
O27 Dy20 2.664 . S
O27 Dy23 2.310 1_455 S
O27 C28 1.268 . S
C28 O26 1.254 . S
C28 O27 1.268 . S
C29 O34 1.254 . S
C29 O35 1.268 . S
O30 Dy23 2.351 . S
O30 C38 1.249 . S
O31 Dy20 2.326 1_655 S
O31 C38 1.267 . S
O32 C21 1.185 . S
O32 Dy23 2.398 1_455 S
O33 C21 1.355 . S
O33 Dy23 2.491 1_455 S
O34 Dy23 2.403 . S
O34 C29 1.254 . S
O35 Dy20 2.310 1_655 S
O35 Dy23 2.664 . S
O35 C29 1.268 . S
O36 Dy20 2.351 . S
O36 C39 1.249 . S
O37 Dy23 2.326 1_455 S
O37 C39 1.267 . S
C38 O30 1.249 . S
C38 O31 1.267 . S
C39 O36 1.249 . S
C39 O37 1.267 . S
Dy40 O44 2.398 . S
Dy40 O45 2.491 . S
Dy40 O46 2.403 1_556 S
Dy40 O47 2.664 . S
Dy40 O51 2.326 . S
Dy40 O55 2.310 . S
Dy40 O56 2.351 . S
C41 O52 1.185 . S
C41 O53 1.355 . S
C42 O44 1.185 . S
C42 O45 1.355 . S
Dy43 O47 2.310 . S
Dy43 O50 2.351 . S
Dy43 O52 2.398 . S
Dy43 O53 2.491 . S
Dy43 O54 2.403 . S
Dy43 O55 2.664 . S
Dy43 O57 2.326 . S
O44 Dy40 2.398 . S
O44 C42 1.185 . S
O45 Dy40 2.491 . S
O45 C42 1.355 . S
O46 Dy40 2.403 1_554 S
O46 C48 1.254 . S
O47 Dy40 2.664 . S
O47 Dy43 2.310 . S
O47 C48 1.268 1_556 S
C48 O46 1.254 . S
C48 O47 1.268 1_554 S
C49 O54 1.254 . S
C49 O55 1.268 . S
O50 Dy43 2.351 . S
O50 C58 1.249 . S
O51 Dy40 2.326 . S
O51 C58 1.267 . S
O52 C41 1.185 . S
O52 Dy43 2.398 . S
O53 C41 1.355 . S
O53 Dy43 2.491 . S
O54 Dy43 2.403 . S
O54 C49 1.254 . S
O55 Dy40 2.310 . S
O55 Dy43 2.664 . S
O55 C49 1.268 . S
O56 Dy40 2.351 . S
O56 C59 1.249 . S
O57 Dy43 2.326 . S
O57 C59 1.267 . S
C58 O50 1.249 . S
C58 O51 1.267 . S
C59 O56 1.249 . S
C59 O57 1.267 . S
Dy60 O64 2.398 . S
Dy60 O65 2.491 . S
Dy60 O66 2.403 . S
Dy60 O67 2.664 . S
Dy60 O71 2.326 . S
Dy60 O75 2.310 . S
Dy60 O76 2.351 . S
C61 O72 1.185 . S
C61 O73 1.355 . S
C62 O64 1.185 . S
C62 O65 1.355 . S
Dy63 O67 2.310 . S
Dy63 O70 2.351 . S
Dy63 O72 2.398 . S
Dy63 O73 2.491 . S
Dy63 O74 2.403 1_554 S
Dy63 O75 2.664 . S
Dy63 O77 2.326 . S
O64 Dy60 2.398 . S
O64 C62 1.185 . S
O65 Dy60 2.491 . S
O65 C62 1.355 . S
O66 Dy60 2.403 . S
O66 C68 1.254 . S
O67 Dy60 2.664 . S
O67 Dy63 2.310 . S
O67 C68 1.268 . S
C68 O66 1.254 . S
C68 O67 1.268 . S
C69 O74 1.254 . S
C69 O75 1.268 1_556 S
O70 Dy63 2.351 . S
O70 C78 1.249 . S
O71 Dy60 2.326 . S
O71 C78 1.267 . S
O72 C61 1.185 . S
O72 Dy63 2.398 . S
O73 C61 1.355 . S
O73 Dy63 2.491 . S
O74 Dy63 2.403 1_556 S
O74 C69 1.254 . S
O75 Dy60 2.310 . S
O75 Dy63 2.664 . S
O75 C69 1.268 1_554 S
O76 Dy60 2.351 . S
O76 C79 1.249 . S
O77 Dy63 2.326 . S
O77 C79 1.267 . S
C78 O70 1.249 . S
C78 O71 1.267 . S
C79 O76 1.249 . S
C79 O77 1.267 . S
C80 C81 1.386 . S
C80 C82 1.383 . S
C80 H96 0.951 . S
C81 C80 1.386 . S
C81 C85 1.383 . S
C82 C80 1.383 . S
C82 C83 1.402 . S
C82 H97 0.951 . S
C83 C82 1.402 . S
C83 C84 1.375 . S
C83 C86 1.481 . S
C84 C83 1.375 . S
C84 C85 1.367 . S
C84 H98 0.951 . S
C85 C81 1.383 . S
C85 C84 1.367 . S
C85 H99 0.950 . S
C86 C83 1.481 . S
C86 C87 1.297 . S
C86 H100 0.950 . S
C87 C86 1.297 . S
C87 C88 1.479 . S
C87 H101 0.950 . S
C88 C87 1.479 . S
C88 C89 1.375 . S
C88 C94 1.404 . S
C89 C88 1.375 . S
C89 C90 1.369 . S
C89 H102 0.950 . S
C90 C89 1.369 . S
C90 C91 1.392 . S
C90 H103 0.951 . S
C91 C90 1.392 . S
C91 C93 1.384 . S
H92 C94 0.949 . S
C93 C91 1.384 . S
C93 C94 1.385 . S
C93 H95 0.950 . S
C94 C88 1.404 . S
C94 H92 0.949 . S
C94 C93 1.385 . S
H95 C93 0.950 . S
H96 C80 0.951 . S
H97 C82 0.951 . S
H98 C84 0.951 . S
H99 C85 0.950 . S
H100 C86 0.950 . S
H101 C87 0.950 . S
H102 C89 0.950 . S
H103 C90 0.951 . S
C104 C105 1.386 . S
C104 C106 1.383 . S
C104 H120 0.951 . S
C105 C104 1.386 . S
C105 C109 1.383 . S
C106 C104 1.383 . S
C106 C107 1.402 . S
C106 H121 0.951 . S
C107 C106 1.402 . S
C107 C108 1.375 . S
C107 C110 1.481 . S
C108 C107 1.375 . S
C108 C109 1.367 . S
C108 H122 0.951 . S
C109 C105 1.383 . S
C109 C108 1.367 . S
C109 H123 0.950 . S
C110 C107 1.481 . S
C110 C111 1.297 . S
C110 H124 0.950 . S
C111 C110 1.297 . S
C111 C112 1.479 . S
C111 H125 0.950 . S
C112 C111 1.479 . S
C112 C113 1.375 . S
C112 C118 1.404 . S
C113 C112 1.375 . S
C113 C114 1.369 . S
C113 H126 0.950 . S
C114 C113 1.369 . S
C114 C115 1.392 . S
C114 H127 0.951 . S
C115 C114 1.392 . S
C115 C117 1.384 . S
H116 C118 0.949 . S
C117 C115 1.384 . S
C117 C118 1.385 . S
C117 H119 0.950 . S
C118 C112 1.404 . S
C118 H116 0.949 . S
C118 C117 1.385 . S
H119 C117 0.950 . S
H120 C104 0.951 . S
H121 C106 0.951 . S
H122 C108 0.951 . S
H123 C109 0.950 . S
H124 C110 0.950 . S
H125 C111 0.950 . S
H126 C113 0.950 . S
H127 C114 0.951 . S
C128 C129 1.386 . S
C128 C130 1.383 . S
C128 H144 0.951 1_554 S
C129 C128 1.386 . S
C129 C133 1.383 . S
C130 C128 1.383 . S
C130 C131 1.402 . S
C130 H145 0.951 1_554 S
C131 C130 1.402 . S
C131 C132 1.375 . S
C131 C134 1.481 . S
C132 C131 1.375 . S
C132 C133 1.367 . S
C132 H146 0.951 . S
C133 C129 1.383 . S
C133 C132 1.367 . S
C133 H147 0.950 . S
C134 C131 1.481 . S
C134 C135 1.297 1_554 S
C134 H148 0.950 . S
C135 C134 1.297 1_556 S
C135 C136 1.479 . S
C135 H149 0.950 . S
C136 C135 1.479 . S
C136 C137 1.375 . S
C136 C142 1.404 1_556 S
C137 C136 1.375 . S
C137 C138 1.369 . S
C137 H150 0.950 . S
C138 C137 1.369 . S
C138 C139 1.392 . S
C138 H151 0.951 . S
C139 C138 1.392 . S
C139 C141 1.384 . S
H140 C142 0.949 . S
C141 C139 1.384 . S
C141 C142 1.385 1_556 S
C141 H143 0.950 1_556 S
C142 C136 1.404 1_554 S
C142 H140 0.949 . S
C142 C141 1.385 1_554 S
H143 C141 0.950 1_554 S
H144 C128 0.951 1_556 S
H145 C130 0.951 1_556 S
H146 C132 0.951 . S
H147 C133 0.950 . S
H148 C134 0.950 . S
H149 C135 0.950 . S
H150 C137 0.950 . S
H151 C138 0.951 . S
C152 C153 1.386 . S
C152 C154 1.383 . S
C152 H168 0.951 . S
C153 C152 1.386 . S
C153 C157 1.383 . S
C154 C152 1.383 . S
C154 C155 1.402 . S
C154 H169 0.951 . S
C155 C154 1.402 . S
C155 C156 1.375 . S
C155 C158 1.481 . S
C156 C155 1.375 . S
C156 C157 1.367 . S
C156 H170 0.951 . S
C157 C153 1.383 . S
C157 C156 1.367 . S
C157 H171 0.950 . S
C158 C155 1.481 . S
C158 C159 1.297 . S
C158 H172 0.950 . S
C159 C158 1.297 . S
C159 C160 1.479 . S
C159 H173 0.950 . S
C160 C159 1.479 . S
C160 C161 1.375 . S
C160 C166 1.404 . S
C161 C160 1.375 . S
C161 C162 1.369 . S
C161 H174 0.950 . S
C162 C161 1.369 . S
C162 C163 1.392 . S
C162 H175 0.951 . S
C163 C162 1.392 . S
C163 C165 1.384 . S
H164 C166 0.949 . S
C165 C163 1.384 . S
C165 C166 1.385 . S
C165 H167 0.950 . S
C166 C160 1.404 . S
C166 H164 0.949 . S
C166 C165 1.385 . S
H167 C165 0.950 . S
H168 C152 0.951 . S
H169 C154 0.951 . S
H170 C156 0.951 . S
H171 C157 0.950 . S
H172 C158 0.950 . S
H173 C159 0.950 . S
H174 C161 0.950 . S
H175 C162 0.951 . S
C176 C177 1.386 . S
C176 C178 1.383 . S
C176 H192 0.951 . S
C177 C176 1.386 . S
C177 C181 1.383 . S
C178 C176 1.383 . S
C178 C179 1.402 . S
C178 H193 0.951 . S
C179 C178 1.402 . S
C179 C180 1.375 . S
C179 C182 1.481 . S
C180 C179 1.375 . S
C180 C181 1.367 . S
C180 H194 0.951 . S
C181 C177 1.383 . S
C181 C180 1.367 . S
C181 H195 0.950 . S
C182 C179 1.481 . S
C182 C183 1.297 . S
C182 H196 0.950 . S
C183 C182 1.297 . S
C183 C184 1.479 . S
C183 H197 0.950 . S
C184 C183 1.479 . S
C184 C185 1.375 . S
C184 C190 1.404 . S
C185 C184 1.375 . S
C185 C186 1.369 . S
C185 H198 0.950 . S
C186 C185 1.369 . S
C186 C187 1.392 . S
C186 H199 0.951 . S
C187 C186 1.392 . S
C187 C189 1.384 . S
H188 C190 0.949 . S
C189 C187 1.384 . S
C189 C190 1.385 . S
C189 H191 0.950 . S
C190 C184 1.404 . S
C190 H188 0.949 . S
C190 C189 1.385 . S
H191 C189 0.950 . S
H192 C176 0.951 . S
H193 C178 0.951 . S
H194 C180 0.951 . S
H195 C181 0.950 . S
H196 C182 0.950 . S
H197 C183 0.950 . S
H198 C185 0.950 . S
H199 C186 0.951 . S
C200 C201 1.386 . S
C200 C202 1.383 . S
C200 H216 0.951 . S
C201 C200 1.386 . S
C201 C205 1.383 . S
C202 C200 1.383 . S
C202 C203 1.402 . S
C202 H217 0.951 . S
C203 C202 1.402 . S
C203 C204 1.375 . S
C203 C206 1.481 . S
C204 C203 1.375 . S
C204 C205 1.367 . S
C204 H218 0.951 . S
C205 C201 1.383 . S
C205 C204 1.367 . S
C205 H219 0.950 . S
C206 C203 1.481 . S
C206 C207 1.297 . S
C206 H220 0.950 . S
C207 C206 1.297 . S
C207 C208 1.479 . S
C207 H221 0.950 . S
C208 C207 1.479 . S
C208 C209 1.375 . S
C208 C214 1.404 . S
C209 C208 1.375 . S
C209 C210 1.369 . S
C209 H222 0.950 . S
C210 C209 1.369 . S
C210 C211 1.392 . S
C210 H223 0.951 . S
C211 C210 1.392 . S
C211 C213 1.384 . S
H212 C214 0.949 . S
C213 C211 1.384 . S
C213 C214 1.385 . S
C213 H215 0.950 . S
C214 C208 1.404 . S
C214 H212 0.949 . S
C214 C213 1.385 . S
H215 C213 0.950 . S
H216 C200 0.951 . S
H217 C202 0.951 . S
H218 C204 0.951 . S
H219 C205 0.950 . S
H220 C206 0.950 . S
H221 C207 0.950 . S
H222 C209 0.950 . S
H223 C210 0.951 . S
C224 C225 1.386 . S
C224 C226 1.383 . S
C224 H240 0.951 . S
C225 C224 1.386 . S
C225 C229 1.383 . S
C226 C224 1.383 . S
C226 C227 1.402 . S
C226 H241 0.951 . S
C227 C226 1.402 . S
C227 C228 1.375 . S
C227 C230 1.481 1_556 S
C228 C227 1.375 . S
C228 C229 1.367 . S
C228 H242 0.951 . S
C229 C225 1.383 . S
C229 C228 1.367 . S
C229 H243 0.950 . S
C230 C227 1.481 1_554 S
C230 C231 1.297 . S
C230 H244 0.950 1_554 S
C231 C230 1.297 . S
C231 C232 1.479 1_565 S
C231 H245 0.950 . S
C232 C231 1.479 1_545 S
C232 C233 1.375 . S
C232 C238 1.404 . S
C233 C232 1.375 . S
C233 C234 1.369 . S
C233 H246 0.950 . S
C234 C233 1.369 . S
C234 C235 1.392 . S
C234 H247 0.951 . S
C235 C234 1.392 . S
C235 C237 1.384 . S
H236 C238 0.949 . S
C237 C235 1.384 . S
C237 C238 1.385 . S
C237 H239 0.950 . S
C238 C232 1.404 . S
C238 H236 0.949 . S
C238 C237 1.385 . S
H239 C237 0.950 . S
H240 C224 0.951 . S
H241 C226 0.951 . S
H242 C228 0.951 . S
H243 C229 0.950 . S
H244 C230 0.950 1_556 S
H245 C231 0.950 . S
H246 C233 0.950 . S
H247 C234 0.951 . S
C248 C249 1.386 . S
C248 C250 1.383 . S
C248 H264 0.951 . S
C249 C248 1.386 . S
C249 C253 1.383 1_655 S
C250 C248 1.383 . S
C250 C251 1.402 . S
C250 H265 0.951 . S
C251 C250 1.402 . S
C251 C252 1.375 1_655 S
C251 C254 1.481 1_565 S
C252 C251 1.375 1_455 S
C252 C253 1.367 . S
C252 H266 0.951 . S
C253 C249 1.383 1_455 S
C253 C252 1.367 . S
C253 H267 0.950 . S
C254 C251 1.481 1_545 S
C254 C255 1.297 . S
C254 H268 0.950 1_655 S
C255 C254 1.297 . S
C255 C256 1.479 . S
C255 H269 0.950 . S
C256 C255 1.479 . S
C256 C257 1.375 . S
C256 C262 1.404 1_655 S
C257 C256 1.375 . S
C257 C258 1.369 . S
C257 H270 0.950 . S
C258 C257 1.369 . S
C258 C259 1.392 . S
C258 H271 0.951 . S
C259 C258 1.392 . S
C259 C261 1.384 1_655 S
H260 C262 0.949 . S
C261 C259 1.384 1_455 S
C261 C262 1.385 . S
C261 H263 0.950 . S
C262 C256 1.404 1_455 S
C262 H260 0.949 . S
C262 C261 1.385 . S
H263 C261 0.950 . S
H264 C248 0.951 . S
H265 C250 0.951 . S
H266 C252 0.951 . S
H267 C253 0.950 . S
H268 C254 0.950 1_455 S
H269 C255 0.950 . S
H270 C257 0.950 . S
H271 C258 0.951 . S
C272 C273 1.386 . S
C272 C274 1.383 . S
C272 H288 0.951 . S
C273 C272 1.386 . S
C273 C277 1.383 1_455 S
C274 C272 1.383 . S
C274 C275 1.402 1_454 S
C274 H289 0.951 1_554 S
C275 C274 1.402 1_656 S
C275 C276 1.375 1_556 S
C275 C278 1.481 . S
C276 C275 1.375 1_554 S
C276 C277 1.367 . S
C276 H290 0.951 . S
C277 C273 1.383 1_655 S
C277 C276 1.367 . S
C277 H291 0.950 . S
C278 C275 1.481 . S
C278 C279 1.297 1_655 S
C278 H292 0.950 . S
C279 C278 1.297 1_455 S
C279 C280 1.479 . S
C279 H293 0.950 . S
C280 C279 1.479 . S
C280 C281 1.375 . S
C280 C286 1.404 1_455 S
C281 C280 1.375 . S
C281 C282 1.369 . S
C281 H294 0.950 . S
C282 C281 1.369 . S
C282 C283 1.392 . S
C282 H295 0.951 . S
C283 C282 1.392 . S
C283 C285 1.384 1_455 S
H284 C286 0.949 . S
C285 C283 1.384 1_655 S
C285 C286 1.385 . S
C285 H287 0.950 . S
C286 C280 1.404 1_655 S
C286 H284 0.949 . S
C286 C285 1.385 . S
H287 C285 0.950 . S
H288 C272 0.951 . S
H289 C274 0.951 1_556 S
H290 C276 0.951 . S
H291 C277 0.950 . S
H292 C278 0.950 . S
H293 C279 0.950 . S
H294 C281 0.950 . S
H295 C282 0.951 . S
C296 C297 1.386 1_455 S
C296 C298 1.383 . S
C296 H312 0.951 . S
C297 C296 1.386 1_655 S
C297 C301 1.383 . S
C298 C296 1.383 . S
C298 C299 1.402 1_456 S
C298 H313 0.951 1_556 S
C299 C298 1.402 1_654 S
C299 C300 1.375 1_554 S
C299 C302 1.481 . S
C300 C299 1.375 1_556 S
C300 C301 1.367 . S
C300 H314 0.951 . S
C301 C297 1.383 . S
C301 C300 1.367 . S
C301 H315 0.950 . S
C302 C299 1.481 . S
C302 C303 1.297 . S
C302 H316 0.950 . S
C303 C302 1.297 . S
C303 C304 1.479 . S
C303 H317 0.950 1_655 S
C304 C303 1.479 . S
C304 C305 1.375 1_655 S
C304 C310 1.404 . S
C305 C304 1.375 1_455 S
C305 C306 1.369 . S
C305 H318 0.950 . S
C306 C305 1.369 . S
C306 C307 1.392 1_455 S
C306 H319 0.951 . S
C307 C306 1.392 1_655 S
C307 C309 1.384 . S
H308 C310 0.949 . S
C309 C307 1.384 . S
C309 C310 1.385 . S
C309 H311 0.950 . S
C310 C304 1.404 . S
C310 H308 0.949 . S
C310 C309 1.385 . S
H311 C309 0.950 . S
H312 C296 0.951 . S
H313 C298 0.951 1_554 S
H314 C300 0.951 . S
H315 C301 0.950 . S
H316 C302 0.950 . S
H317 C303 0.950 1_455 S
H318 C305 0.950 . S
H319 C306 0.951 . S
C320 C321 1.386 . S
C320 C322 1.383 . S
C320 H336 0.951 . S
C321 C320 1.386 . S
C321 C325 1.383 . S
C322 C320 1.383 . S
C322 C323 1.402 . S
C322 H337 0.951 . S
C323 C322 1.402 . S
C323 C324 1.375 . S
C323 C326 1.481 . S
C324 C323 1.375 . S
C324 C325 1.367 . S
C324 H338 0.951 . S
C325 C321 1.383 . S
C325 C324 1.367 . S
C325 H339 0.950 . S
C326 C323 1.481 . S
C326 C327 1.297 . S
C326 H340 0.950 . S
C327 C326 1.297 . S
C327 C328 1.479 . S
C327 H341 0.950 . S
C328 C327 1.479 . S
C328 C329 1.375 . S
C328 C334 1.404 . S
C329 C328 1.375 . S
C329 C330 1.369 . S
C329 H342 0.950 . S
C330 C329 1.369 . S
C330 C331 1.392 . S
C330 H343 0.951 . S
C331 C330 1.392 . S
C331 C333 1.384 . S
H332 C334 0.949 . S
C333 C331 1.384 . S
C333 C334 1.385 . S
C333 H335 0.950 . S
C334 C328 1.404 . S
C334 H332 0.949 . S
C334 C333 1.385 . S
H335 C333 0.950 . S
H336 C320 0.951 . S
H337 C322 0.951 . S
H338 C324 0.951 . S
H339 C325 0.950 . S
H340 C326 0.950 . S
H341 C327 0.950 . S
H342 C329 0.950 . S
H343 C330 0.951 . S
C344 C345 1.386 . S
C344 C346 1.383 . S
C344 H360 0.951 . S
C345 C344 1.386 . S
C345 C349 1.383 . S
C346 C344 1.383 . S
C346 C347 1.402 . S
C346 H361 0.951 . S
C347 C346 1.402 . S
C347 C348 1.375 . S
C347 C350 1.481 . S
C348 C347 1.375 . S
C348 C349 1.367 . S
C348 H362 0.951 . S
C349 C345 1.383 . S
C349 C348 1.367 . S
C349 H363 0.950 . S
C350 C347 1.481 . S
C350 C351 1.297 . S
C350 H364 0.950 . S
C351 C350 1.297 . S
C351 C352 1.479 . S
C351 H365 0.950 . S
C352 C351 1.479 . S
C352 C353 1.375 . S
C352 C358 1.404 . S
C353 C352 1.375 . S
C353 C354 1.369 . S
C353 H366 0.950 . S
C354 C353 1.369 . S
C354 C355 1.392 . S
C354 H367 0.951 . S
C355 C354 1.392 . S
C355 C357 1.384 . S
H356 C358 0.949 . S
C357 C355 1.384 . S
C357 C358 1.385 . S
C357 H359 0.950 . S
C358 C352 1.404 . S
C358 H356 0.949 . S
C358 C357 1.385 . S
H359 C357 0.950 . S
H360 C344 0.951 . S
H361 C346 0.951 . S
H362 C348 0.951 . S
H363 C349 0.950 . S
H364 C350 0.950 . S
H365 C351 0.950 . S
H366 C353 0.950 . S
H367 C354 0.951 . S
C81 C18 1.789 . S
C91 C21 1.774 . S
C105 C42 1.815 . S
C115 C38 1.773 . S
C129 C62 1.923 . S
C139 C59 1.986 . S
C153 C1 1.786 . S
C163 C79 1.893 . S
C177 C78 1.822 . S
C187 C2 1.837 . S
C201 C41 1.791 . S
C211 C39 1.897 . S
C225 C58 1.766 . S
C235 C61 1.758 . S
C249 C22 1.888 . S
C259 C19 1.957 . S
C273 C9 0.817 1_455 S
C283 C8 0.737 . S
C297 C28 0.836 1_655 S
C307 C29 0.854 . S
C321 C48 0.858 . S
C331 C49 0.736 . S
C345 C68 0.860 . S
C355 C69 0.766 . S
