# Generated by pormake.
# Topology uoa, (4)-cn, num edge types: 1
# Building blocks:
#     Node 0, Type 0, BuildingBlock: QUQFOY_clean_sbu_1, # of connection points: 4
#     Node 1, Type 0, BuildingBlock: QUQFOY_clean_sbu_1, # of connection points: 4
#     Node 2, Type 0, BuildingBlock: QUQFOY_clean_sbu_1, # of connection points: 4
#     Node 3, Type 0, BuildingBlock: QUQFOY_clean_sbu_1, # of connection points: 4
#     Node 4, Type 0, BuildingBlock: QUQFOY_clean_sbu_1, # of connection points: 4
#     Node 5, Type 0, BuildingBlock: QUQFOY_clean_sbu_1, # of connection points: 4
#     Node 6, Type 0, BuildingBlock: QUQFOY_clean_sbu_1, # of connection points: 4
#     Node 7, Type 0, BuildingBlock: QUQFOY_clean_sbu_1, # of connection points: 4
#     Node 8, Type 0, BuildingBlock: QUQFOY_clean_sbu_1, # of connection points: 4
#     Node 9, Type 0, BuildingBlock: QUQFOY_clean_sbu_1, # of connection points: 4
#     Node 10, Type 0, BuildingBlock: QUQFOY_clean_sbu_1, # of connection points: 4
#     Node 11, Type 0, BuildingBlock: QUQFOY_clean_sbu_1, # of connection points: 4
#     Node 12, Type 0, BuildingBlock: QUQFOY_clean_sbu_1, # of connection points: 4
#     Node 13, Type 0, BuildingBlock: QUQFOY_clean_sbu_1, # of connection points: 4
#     Node 14, Type 0, BuildingBlock: QUQFOY_clean_sbu_1, # of connection points: 4
#     Node 15, Type 0, BuildingBlock: QUQFOY_clean_sbu_1, # of connection points: 4
#     Node 16, Type 0, BuildingBlock: QUQFOY_clean_sbu_1, # of connection points: 4
#     Node 17, Type 0, BuildingBlock: QUQFOY_clean_sbu_1, # of connection points: 4
#     Node 18, Type 0, BuildingBlock: QUQFOY_clean_sbu_1, # of connection points: 4
#     Node 19, Type 0, BuildingBlock: QUQFOY_clean_sbu_1, # of connection points: 4
#     Node 20, Type 0, BuildingBlock: QUQFOY_clean_sbu_1, # of connection points: 4
#     Node 21, Type 0, BuildingBlock: QUQFOY_clean_sbu_1, # of connection points: 4
#     Node 22, Type 0, BuildingBlock: QUQFOY_clean_sbu_1, # of connection points: 4
#     Node 23, Type 0, BuildingBlock: QUQFOY_clean_sbu_1, # of connection points: 4
#     Node 24, Type 0, BuildingBlock: QUQFOY_clean_sbu_1, # of connection points: 4
#     Node 25, Type 0, BuildingBlock: QUQFOY_clean_sbu_1, # of connection points: 4
#     Node 26, Type 0, BuildingBlock: QUQFOY_clean_sbu_1, # of connection points: 4
#     Node 27, Type 0, BuildingBlock: QUQFOY_clean_sbu_1, # of connection points: 4
#     Node 28, Type 0, BuildingBlock: QUQFOY_clean_sbu_1, # of connection points: 4
#     Node 29, Type 0, BuildingBlock: QUQFOY_clean_sbu_1, # of connection points: 4
#     Node 30, Type 0, BuildingBlock: QUQFOY_clean_sbu_1, # of connection points: 4
#     Node 31, Type 0, BuildingBlock: QUQFOY_clean_sbu_1, # of connection points: 4
#     Edge 32, Type (0, 0), BuildingBlock: KIFKEQ_clean_linker_1, # of connection points: 2
#     Edge 33, Type (0, 0), BuildingBlock: KIFKEQ_clean_linker_1, # of connection points: 2
#     Edge 34, Type (0, 0), BuildingBlock: KIFKEQ_clean_linker_1, # of connection points: 2
#     Edge 35, Type (0, 0), BuildingBlock: KIFKEQ_clean_linker_1, # of connection points: 2
#     Edge 36, Type (0, 0), BuildingBlock: KIFKEQ_clean_linker_1, # of connection points: 2
#     Edge 37, Type (0, 0), BuildingBlock: KIFKEQ_clean_linker_1, # of connection points: 2
#     Edge 38, Type (0, 0), BuildingBlock: KIFKEQ_clean_linker_1, # of connection points: 2
#     Edge 39, Type (0, 0), BuildingBlock: KIFKEQ_clean_linker_1, # of connection points: 2
#     Edge 40, Type (0, 0), BuildingBlock: KIFKEQ_clean_linker_1, # of connection points: 2
#     Edge 41, Type (0, 0), BuildingBlock: KIFKEQ_clean_linker_1, # of connection points: 2
#     Edge 42, Type (0, 0), BuildingBlock: KIFKEQ_clean_linker_1, # of connection points: 2
#     Edge 43, Type (0, 0), BuildingBlock: KIFKEQ_clean_linker_1, # of connection points: 2
#     Edge 44, Type (0, 0), BuildingBlock: KIFKEQ_clean_linker_1, # of connection points: 2
#     Edge 45, Type (0, 0), BuildingBlock: KIFKEQ_clean_linker_1, # of connection points: 2
#     Edge 46, Type (0, 0), BuildingBlock: KIFKEQ_clean_linker_1, # of connection points: 2
#     Edge 47, Type (0, 0), BuildingBlock: KIFKEQ_clean_linker_1, # of connection points: 2
#     Edge 48, Type (0, 0), BuildingBlock: KIFKEQ_clean_linker_1, # of connection points: 2
#     Edge 49, Type (0, 0), BuildingBlock: KIFKEQ_clean_linker_1, # of connection points: 2
#     Edge 50, Type (0, 0), BuildingBlock: KIFKEQ_clean_linker_1, # of connection points: 2
#     Edge 51, Type (0, 0), BuildingBlock: KIFKEQ_clean_linker_1, # of connection points: 2
#     Edge 52, Type (0, 0), BuildingBlock: KIFKEQ_clean_linker_1, # of connection points: 2
#     Edge 53, Type (0, 0), BuildingBlock: KIFKEQ_clean_linker_1, # of connection points: 2
#     Edge 54, Type (0, 0), BuildingBlock: KIFKEQ_clean_linker_1, # of connection points: 2
#     Edge 55, Type (0, 0), BuildingBlock: KIFKEQ_clean_linker_1, # of connection points: 2
#     Edge 56, Type (0, 0), BuildingBlock: KIFKEQ_clean_linker_1, # of connection points: 2
#     Edge 57, Type (0, 0), BuildingBlock: KIFKEQ_clean_linker_1, # of connection points: 2
#     Edge 58, Type (0, 0), BuildingBlock: KIFKEQ_clean_linker_1, # of connection points: 2
#     Edge 59, Type (0, 0), BuildingBlock: KIFKEQ_clean_linker_1, # of connection points: 2
#     Edge 60, Type (0, 0), BuildingBlock: KIFKEQ_clean_linker_1, # of connection points: 2
#     Edge 61, Type (0, 0), BuildingBlock: KIFKEQ_clean_linker_1, # of connection points: 2
#     Edge 62, Type (0, 0), BuildingBlock: KIFKEQ_clean_linker_1, # of connection points: 2
#     Edge 63, Type (0, 0), BuildingBlock: KIFKEQ_clean_linker_1, # of connection points: 2
#     Edge 64, Type (0, 0), BuildingBlock: KIFKEQ_clean_linker_1, # of connection points: 2
#     Edge 65, Type (0, 0), BuildingBlock: KIFKEQ_clean_linker_1, # of connection points: 2
#     Edge 66, Type (0, 0), BuildingBlock: KIFKEQ_clean_linker_1, # of connection points: 2
#     Edge 67, Type (0, 0), BuildingBlock: KIFKEQ_clean_linker_1, # of connection points: 2
#     Edge 68, Type (0, 0), BuildingBlock: KIFKEQ_clean_linker_1, # of connection points: 2
#     Edge 69, Type (0, 0), BuildingBlock: KIFKEQ_clean_linker_1, # of connection points: 2
#     Edge 70, Type (0, 0), BuildingBlock: KIFKEQ_clean_linker_1, # of connection points: 2
#     Edge 71, Type (0, 0), BuildingBlock: KIFKEQ_clean_linker_1, # of connection points: 2
#     Edge 72, Type (0, 0), BuildingBlock: KIFKEQ_clean_linker_1, # of connection points: 2
#     Edge 73, Type (0, 0), BuildingBlock: KIFKEQ_clean_linker_1, # of connection points: 2
#     Edge 74, Type (0, 0), BuildingBlock: KIFKEQ_clean_linker_1, # of connection points: 2
#     Edge 75, Type (0, 0), BuildingBlock: KIFKEQ_clean_linker_1, # of connection points: 2
#     Edge 76, Type (0, 0), BuildingBlock: KIFKEQ_clean_linker_1, # of connection points: 2
#     Edge 77, Type (0, 0), BuildingBlock: KIFKEQ_clean_linker_1, # of connection points: 2
#     Edge 78, Type (0, 0), BuildingBlock: KIFKEQ_clean_linker_1, # of connection points: 2
#     Edge 79, Type (0, 0), BuildingBlock: KIFKEQ_clean_linker_1, # of connection points: 2
#     Edge 80, Type (0, 0), BuildingBlock: KIFKEQ_clean_linker_1, # of connection points: 2
#     Edge 81, Type (0, 0), BuildingBlock: KIFKEQ_clean_linker_1, # of connection points: 2
#     Edge 82, Type (0, 0), BuildingBlock: KIFKEQ_clean_linker_1, # of connection points: 2
#     Edge 83, Type (0, 0), BuildingBlock: KIFKEQ_clean_linker_1, # of connection points: 2
#     Edge 84, Type (0, 0), BuildingBlock: KIFKEQ_clean_linker_1, # of connection points: 2
#     Edge 85, Type (0, 0), BuildingBlock: KIFKEQ_clean_linker_1, # of connection points: 2
#     Edge 86, Type (0, 0), BuildingBlock: KIFKEQ_clean_linker_1, # of connection points: 2
#     Edge 87, Type (0, 0), BuildingBlock: KIFKEQ_clean_linker_1, # of connection points: 2
#     Edge 88, Type (0, 0), BuildingBlock: KIFKEQ_clean_linker_1, # of connection points: 2
#     Edge 89, Type (0, 0), BuildingBlock: KIFKEQ_clean_linker_1, # of connection points: 2
#     Edge 90, Type (0, 0), BuildingBlock: KIFKEQ_clean_linker_1, # of connection points: 2
#     Edge 91, Type (0, 0), BuildingBlock: KIFKEQ_clean_linker_1, # of connection points: 2
#     Edge 92, Type (0, 0), BuildingBlock: KIFKEQ_clean_linker_1, # of connection points: 2
#     Edge 93, Type (0, 0), BuildingBlock: KIFKEQ_clean_linker_1, # of connection points: 2
#     Edge 94, Type (0, 0), BuildingBlock: KIFKEQ_clean_linker_1, # of connection points: 2
#     Edge 95, Type (0, 0), BuildingBlock: KIFKEQ_clean_linker_1, # of connection points: 2
# Relax obj value: 0.073
# Max RMSD: 0.150
# Mean RMSD: 0.150
data_MOF--net-uoa--node1-QUQFOY_clean_sbu_1--edge1-KIFKEQ_clean_linker_1
_symmetry_space_group_name_H-M    P1
_symmetry_Int_Tables_number       1
_symmetry_cell_setting            triclinic
loop_
_symmetry_equiv_pos_as_xyz
'x, y, z'
_cell_length_a     79.718315
_cell_length_b     79.750618
_cell_length_c     29.016243
_cell_angle_alpha  89.906593
_cell_angle_beta   89.968513
_cell_angle_gamma 90.033482
loop_
_atom_site_label
_atom_site_type_symbol
_atom_site_fract_x
_atom_site_fract_y
_atom_site_fract_z
_atom_type_partial_charge
O0 O 0.03996 0.09779 0.17597 0.0
Cd1 Cd 0.05085 0.09284 0.11281 0.0
Cd2 Cd 0.02148 0.10341 0.08528 0.0
O3 O 0.02014 0.11442 0.14949 0.0
O4 O 0.07569 0.0942 0.12312 0.0
O5 O 0.06128 0.11308 0.08359 0.0
C6 C 0.07531 0.10847 0.10196 0.0
C7 C 0.01784 0.117 0.01517 0.0
C8 C 0.02843 0.10849 0.18319 0.0
C9 C 0.02833 0.0673 0.07186 0.0
O10 O 0.01699 0.07805 0.08036 0.0
O11 O 0.04372 0.07125 0.07696 0.0
O12 O 1.00528 0.11409 0.04213 0.0
O13 O 0.0327 0.11342 0.02997 0.0
O14 O 0.17175 0.78914 0.42387 0.0
Cd15 Cd 0.1786 0.80094 0.36354 0.0
Cd16 Cd 0.16648 0.77254 0.32944 0.0
O17 O 0.15589 0.76931 0.3941 0.0
O18 O 0.17881 0.82521 0.38076 0.0
O19 O 0.16045 0.81422 0.3322 0.0
C20 C 0.16548 0.82696 0.35594 0.0
C21 C 0.15208 0.76997 0.26009 0.0
C22 C 0.1613 0.77724 0.42906 0.0
C23 C 0.20352 0.77837 0.3195 0.0
O24 O 0.19171 0.76768 0.32112 0.0
O25 O 0.2008 0.79351 0.33143 0.0
O26 O 0.15527 0.75706 0.28548 0.0
O27 O 0.15585 0.78461 0.27611 0.0
O28 O 0.48088 0.92386 0.67236 0.0
Cd29 Cd 0.46908 0.93003 0.61152 0.0
Cd30 Cd 0.4975 0.91758 0.57823 0.0
O31 O 0.50065 0.90767 0.64369 0.0
O32 O 0.44474 0.93001 0.62844 0.0
O33 O 0.45612 0.91137 0.58142 0.0
C34 C 0.44324 0.91642 0.60465 0.0
C35 C 0.50042 0.90249 0.5102 0.0
C36 C 0.49275 0.91345 0.67827 0.0
C37 C 0.49162 0.95452 0.56531 0.0
O38 O 0.50229 0.94271 0.56774 0.0
O39 O 0.47648 0.95194 0.57767 0.0
O40 O 0.51322 0.90604 0.53555 0.0
O41 O 0.48569 0.90629 0.52562 0.0
O42 O 0.34736 0.23156 0.92295 0.0
Cd43 Cd 0.34213 0.21991 0.8613 0.0
Cd44 Cd 0.35456 0.24832 0.82861 0.0
O45 O 0.36428 0.25084 0.8945 0.0
O46 O 0.3434 0.19516 0.87345 0.0
O47 O 0.36223 0.20916 0.83252 0.0
C48 C 0.35762 0.19532 0.85203 0.0
C49 C 0.36967 0.25137 0.76046 0.0
C50 C 0.35807 0.24318 0.92902 0.0
C51 C 0.31787 0.24238 0.81415 0.0
O52 O 0.32947 0.25322 0.81823 0.0
O53 O 0.32062 0.22717 0.82539 0.0
O54 O 0.36631 0.26412 0.78619 0.0
O55 O 0.36572 0.23665 0.77561 0.0
O56 O 0.0413 0.924 0.32551 0.0
Cd57 Cd 0.05232 0.92983 0.38794 0.0
Cd58 Cd 0.02303 0.91895 0.41603 0.0
O59 O 0.02132 0.90764 0.35233 0.0
O60 O 0.07686 0.92973 0.37331 0.0
O61 O 0.06474 0.9109 0.41852 0.0
C62 C 0.07794 0.916 0.39674 0.0
C63 C 0.01963 0.90552 0.4864 0.0
C64 C 0.02971 0.91334 0.31853 0.0
C65 C 0.02953 0.9553 0.42815 0.0
O66 O 0.01833 0.94429 0.42068 0.0
O67 O 0.04495 0.95164 0.42232 0.0
O68 O 1.007 0.90834 0.45968 0.0
O69 O 0.03446 0.90909 0.47121 0.0
O70 O 0.34579 0.79209 0.57834 0.0
Cd71 Cd 0.3402 0.80311 0.64092 0.0
Cd72 Cd 0.35111 0.77378 0.66877 0.0
O73 O 0.36218 0.77209 0.60474 0.0
O74 O 0.34045 0.82764 0.62618 0.0
O75 O 0.35933 0.81542 0.67093 0.0
C76 C 0.35428 0.82864 0.64915 0.0
C77 C 0.36485 0.76995 0.73843 0.0
C78 C 0.3564 0.78049 0.57109 0.0
C79 C 0.31473 0.78037 0.68181 0.0
O80 O 0.32575 0.76919 0.67429 0.0
O81 O 0.31838 0.79579 0.67573 0.0
O82 O 0.36173 0.75746 0.7115 0.0
O83 O 0.36137 0.78487 0.72383 0.0
O84 O 0.48118 0.09544 0.83246 0.0
Cd85 Cd 0.46965 0.09042 0.89447 0.0
Cd86 Cd 0.49831 0.10261 0.92634 0.0
O87 O 0.50078 0.11212 0.86015 0.0
O88 O 0.44487 0.09205 0.883 0.0
O89 O 0.45927 0.11068 0.92335 0.0
C90 C 0.44531 0.10627 0.90425 0.0
C91 C 0.50187 0.11791 0.99386 0.0
C92 C 0.49293 0.10598 0.82594 0.0
C93 C 0.49192 0.06599 0.94155 0.0
O94 O 0.50285 0.0775 0.9374 0.0
O95 O 0.47673 0.06883 0.93028 0.0
O96 O 0.51447 0.11421 0.96785 0.0
O97 O 0.48703 0.11418 0.97931 0.0
O98 O 0.1769 0.2309 0.07508 0.0
Cd99 Cd 0.18109 0.22013 0.13885 0.0
Cd100 Cd 0.17034 0.2496 0.16514 0.0
O101 O 0.16004 0.25077 0.10004 0.0
O102 O 0.17926 0.19527 0.1295 0.0
O103 O 0.16033 0.21033 0.16684 0.0
C104 C 0.16479 0.1961 0.14948 0.0
C105 C 0.1559 0.25361 0.2337 0.0
C106 C 0.16628 0.24243 0.06691 0.0
C107 C 0.20627 0.24254 0.18189 0.0
O108 O 0.19566 0.25391 0.1724 0.0
O109 O 0.20234 0.22717 0.17644 0.0
O110 O 0.15926 0.26606 0.2067 0.0
O111 O 0.15955 0.23869 0.2197 0.0
O112 O 0.98169 0.92771 0.82679 0.0
Cd113 Cd 0.97028 0.93129 0.88964 0.0
Cd114 Cd 0.99914 0.91929 0.91999 0.0
O115 O 1.00088 0.91026 0.85322 0.0
O116 O 0.9454 0.92822 0.88168 0.0
O117 O 0.96205 0.9096 0.91534 0.0
C118 C 0.94742 0.91349 0.89952 0.0
C119 C 1.00325 0.90376 0.98701 0.0
C120 C 0.99318 0.91696 0.81947 0.0
C121 C 0.99236 0.95545 0.93814 0.0
O122 O 1.00354 0.94436 0.93154 0.0
O123 O 0.9771 0.9523 0.9283 0.0
O124 O 0.01566 0.90757 0.96038 0.0
O125 O 0.98831 0.90749 0.97328 0.0
O126 O 0.84627 0.23068 0.58002 0.0
Cd127 Cd 0.84115 0.21921 0.64208 0.0
Cd128 Cd 0.85328 0.24789 0.67369 0.0
O129 O 0.86291 0.25032 0.60768 0.0
O130 O 0.8426 0.19444 0.63063 0.0
O131 O 0.8613 0.20866 0.67121 0.0
C132 C 0.8568 0.19475 0.65208 0.0
C133 C 0.86846 0.25137 0.74144 0.0
C134 C 0.85681 0.24243 0.57348 0.0
C135 C 0.81665 0.24155 0.68854 0.0
O136 O 0.82815 0.25249 0.68426 0.0
O137 O 0.81953 0.22634 0.67761 0.0
O138 O 0.86485 0.26399 0.71538 0.0
O139 O 0.86471 0.23655 0.72681 0.0
O140 O 0.54063 0.09809 0.33199 0.0
Cd141 Cd 0.55199 0.09208 0.39387 0.0
Cd142 Cd 0.52292 0.10319 0.42347 0.0
O143 O 0.5207 0.11431 0.35948 0.0
O144 O 0.5764 0.0919 0.37776 0.0
O145 O 0.56493 0.11079 0.42383 0.0
C146 C 0.57788 0.10556 0.40119 0.0
C147 C 0.51994 0.11691 0.49352 0.0
C148 C 0.52893 0.10865 0.32539 0.0
C149 C 0.52923 0.0667 0.4353 0.0
O150 O 0.5181 0.07788 0.42906 0.0
O151 O 0.54463 0.07019 0.42819 0.0
O152 O 0.50716 0.11402 0.4674 0.0
O153 O 0.53467 0.11322 0.47794 0.0
O154 O 0.67387 0.79003 0.07882 0.0
Cd155 Cd 0.68006 0.80158 0.13994 0.0
Cd156 Cd 0.66729 0.7733 0.1726 0.0
O157 O 0.65715 0.77063 0.10732 0.0
O158 O 0.68013 0.826 0.12392 0.0
O159 O 0.66138 0.81435 0.17032 0.0
C160 C 0.66649 0.82735 0.14764 0.0
C161 C 0.65237 0.77062 0.24105 0.0
C162 C 0.66313 0.77846 0.07281 0.0
C163 C 0.70423 0.77869 0.18581 0.0
O164 O 0.69237 0.76809 0.18254 0.0
O165 O 0.70178 0.79391 0.17415 0.0
O166 O 0.65555 0.75777 0.21553 0.0
O167 O 0.6564 0.78527 0.22551 0.0
O168 O 0.98043 0.09477 0.67493 0.0
Cd169 Cd 0.96923 0.09008 0.6123 0.0
Cd170 Cd 0.99795 0.10261 0.58202 0.0
O171 O 0.99981 0.11198 0.64834 0.0
O172 O 0.94439 0.09164 0.62275 0.0
O173 O 0.95905 0.11054 0.58386 0.0
C174 C 0.94497 0.10601 0.60213 0.0
C175 C 1.00178 0.11807 0.51485 0.0
C176 C 0.99192 0.10553 0.68212 0.0
C177 C 0.99191 0.06611 0.5651 0.0
O178 O 1.00278 0.07759 0.57071 0.0
O179 O 0.97661 0.06884 0.5755 0.0
O180 O 0.01427 0.11444 0.54133 0.0
O181 O 0.98688 0.11422 0.52882 0.0
O182 O 0.6753 0.22984 0.42529 0.0
Cd183 Cd 0.68125 0.21833 0.36394 0.0
Cd184 Cd 0.66881 0.24687 0.33189 0.0
O185 O 0.65878 0.24949 0.3973 0.0
O186 O 0.68103 0.19391 0.37981 0.0
O187 O 0.66236 0.20579 0.33371 0.0
C188 C 0.66733 0.19273 0.3563 0.0
C189 C 0.65384 0.25018 0.26382 0.0
C190 C 0.6647 0.24152 0.4316 0.0
C191 C 0.70569 0.24101 0.31829 0.0
O192 O 0.69395 0.25172 0.32173 0.0
O193 O 0.70308 0.2258 0.32977 0.0
O194 O 0.65735 0.26284 0.28973 0.0
O195 O 0.65758 0.23537 0.27876 0.0
O196 O 0.53985 0.92169 0.17255 0.0
Cd197 Cd 0.55139 0.92792 0.11104 0.0
Cd198 Cd 0.52239 0.91683 0.08051 0.0
O199 O 0.51979 0.90575 0.14447 0.0
O200 O 0.57575 0.92817 0.12763 0.0
O201 O 0.5645 0.9094 0.08078 0.0
C202 C 0.57737 0.91462 0.10376 0.0
C203 C 0.51976 0.90306 0.01038 0.0
C204 C 0.52798 0.91127 0.17879 0.0
C205 C 0.52877 0.95339 0.06962 0.0
O206 O 0.51763 0.94215 0.07495 0.0
O207 O 0.54414 0.94992 0.07728 0.0
O208 O 0.50686 0.90597 0.03605 0.0
O209 O 0.53441 0.90682 0.02638 0.0
O210 O 0.84452 0.78994 0.9261 0.0
Cd211 Cd 0.84123 0.80089 0.86219 0.0
Cd212 Cd 0.85184 0.77152 0.83558 0.0
O213 O 0.8619 0.77051 0.90105 0.0
O214 O 0.84412 0.82581 0.86932 0.0
O215 O 0.86303 0.80916 0.83709 0.0
C216 C 0.85894 0.82383 0.85214 0.0
C217 C 0.86628 0.76734 0.76698 0.0
C218 C 0.85529 0.77854 0.93427 0.0
C219 C 0.81613 0.77875 0.81804 0.0
O220 O 0.82654 0.7673 0.82836 0.0
O221 O 0.82028 0.7941 0.82288 0.0
O222 O 0.86296 0.75496 0.79422 0.0
O223 O 0.86262 0.78229 0.78073 0.0
O224 O 0.54078 0.59541 0.6778 0.0
Cd225 Cd 0.55152 0.59094 0.61415 0.0
Cd226 Cd 0.52212 0.6017 0.58763 0.0
O227 O 0.52113 0.61243 0.65224 0.0
O228 O 0.57641 0.5926 0.62345 0.0
O229 O 0.56147 0.61154 0.58567 0.0
C230 C 0.57567 0.60702 0.60314 0.0
C231 C 0.51812 0.61555 0.5181 0.0
C232 C 0.5294 0.60622 0.68561 0.0
C233 C 0.52891 0.56572 0.57214 0.0
O234 O 0.51761 0.57638 0.58178 0.0
O235 O 0.54432 0.56964 0.57702 0.0
O236 O 0.50568 0.61255 0.54545 0.0
O237 O 0.53305 0.61196 0.53228 0.0
O238 O 0.67416 0.28891 0.92486 0.0
Cd239 Cd 0.679 0.30014 0.86202 0.0
Cd240 Cd 0.66809 0.271 0.83328 0.0
O241 O 0.65745 0.26923 0.89801 0.0
O242 O 0.67745 0.32494 0.87283 0.0
O243 O 0.65863 0.31046 0.83337 0.0
C244 C 0.66315 0.32447 0.8519 0.0
C245 C 0.65401 0.26774 0.76375 0.0
C246 C 0.6635 0.27731 0.93189 0.0
C247 C 0.70429 0.27778 0.81929 0.0
O248 O 0.69341 0.26647 0.82702 0.0
O249 O 0.70053 0.29314 0.82559 0.0
O250 O 0.65704 0.25504 0.79013 0.0
O251 O 0.65779 0.2825 0.77879 0.0
O252 O 0.98176 0.41974 0.17094 0.0
Cd253 Cd 0.97085 0.42764 0.10985 0.0
Cd254 Cd 1.00119 0.41823 0.08053 0.0
O255 O 1.00435 0.4072 0.1438 0.0
O256 O 0.94653 0.42802 0.12671 0.0
O257 O 0.95732 0.40993 0.0772 0.0
C258 C 0.94463 0.41489 0.10134 0.0
C259 C 1.00428 0.40455 0.01069 0.0
C260 C 0.9947 0.4107 0.17718 0.0
C261 C 0.99336 0.4545 0.07148 0.0
O262 O 1.00488 0.44362 0.07555 0.0
O263 O 0.97812 0.45046 0.07933 0.0
O264 O 0.0171 0.40811 0.03604 0.0
O265 O 0.98949 0.40768 0.02686 0.0
O266 O 0.84594 0.72947 0.42722 0.0
Cd267 Cd 0.84053 0.71847 0.3645 0.0
Cd268 Cd 0.85137 0.74788 0.33696 0.0
O269 O 0.86233 0.74956 0.40111 0.0
O270 O 0.84079 0.69394 0.37902 0.0
O271 O 0.85974 0.70628 0.33465 0.0
C272 C 0.85466 0.69301 0.35619 0.0
C273 C 0.86521 0.75179 0.26745 0.0
C274 C 0.85651 0.74111 0.43465 0.0
C275 C 0.8151 0.74109 0.32324 0.0
O276 O 0.82601 0.75235 0.33113 0.0
O277 O 0.81881 0.7257 0.32926 0.0
O278 O 0.86203 0.76425 0.29438 0.0
O279 O 0.86177 0.73684 0.28199 0.0
O280 O 0.53869 0.42325 0.82884 0.0
Cd281 Cd 0.54983 0.42809 0.89171 0.0
Cd282 Cd 0.52064 0.41716 0.92028 0.0
O283 O 0.51896 0.40653 0.85564 0.0
O284 O 0.57466 0.42674 0.88082 0.0
O285 O 0.56031 0.40779 0.92031 0.0
C286 C 0.57431 0.41243 0.90176 0.0
C287 C 0.5175 0.40303 0.98984 0.0
C288 C 0.52709 0.41259 0.82179 0.0
C289 C 0.52733 0.45331 0.93432 0.0
O290 O 0.51602 0.44245 0.92643 0.0
O291 O 0.54272 0.44954 0.92819 0.0
O292 O 0.50476 0.40601 0.96362 0.0
O293 O 0.53224 0.40691 0.97463 0.0
O294 O 0.84817 0.28976 0.0796 0.0
Cd295 Cd 0.84242 0.30122 0.14145 0.0
Cd296 Cd 0.85363 0.27224 0.17124 0.0
O297 O 0.86463 0.27002 0.10714 0.0
O298 O 0.84237 0.32562 0.12517 0.0
O299 O 0.86136 0.31402 0.17078 0.0
C300 C 0.85615 0.32699 0.14819 0.0
C301 C 0.86752 0.26932 0.24111 0.0
C302 C 0.8588 0.27814 0.07301 0.0
C303 C 0.81719 0.27858 0.18385 0.0
O304 O 0.82832 0.26743 0.17727 0.0
O305 O 0.82068 0.29397 0.1766 0.0
O306 O 0.86457 0.25653 0.21512 0.0
O307 O 0.86377 0.28403 0.22548 0.0
O308 O 0.98202 0.59996 0.33267 0.0
Cd309 Cd 0.97026 0.59307 0.39299 0.0
Cd310 Cd 0.99856 0.60542 0.42693 0.0
O311 O 1.00169 0.61605 0.36227 0.0
O312 O 0.94599 0.59266 0.37553 0.0
O313 O 0.9568 0.61115 0.42399 0.0
C314 C 0.94412 0.60601 0.40013 0.0
C315 C 1.00087 0.61972 0.49643 0.0
C316 C 0.99381 0.61051 0.32737 0.0
C317 C 0.99309 0.56836 0.43697 0.0
O318 O 1.00369 0.58026 0.43519 0.0
O319 O 0.9779 0.57095 0.42522 0.0
O320 O 0.01386 0.61675 0.47115 0.0
O321 O 0.98629 0.61582 0.48018 0.0
O322 O 0.67375 0.73203 0.57845 0.0
Cd323 Cd 0.67928 0.72052 0.64016 0.0
Cd324 Cd 0.66718 0.74908 0.6725 0.0
O325 O 0.65714 0.7515 0.60696 0.0
O326 O 0.67793 0.69577 0.62853 0.0
O327 O 0.65935 0.7098 0.67003 0.0
C328 C 0.66385 0.69594 0.65058 0.0
C329 C 0.65238 0.75215 0.74111 0.0
C330 C 0.6631 0.74369 0.57245 0.0
C331 C 0.7039 0.74301 0.68565 0.0
O332 O 0.69234 0.75389 0.68182 0.0
O333 O 0.70101 0.72778 0.67492 0.0
O334 O 0.65568 0.7649 0.71518 0.0
O335 O 0.65622 0.73743 0.72596 0.0
O336 O 0.48009 0.4244 0.32852 0.0
Cd337 Cd 0.4687 0.43048 0.38999 0.0
Cd338 Cd 0.49724 0.41797 0.42161 0.0
O339 O 0.49973 0.40785 0.35636 0.0
O340 O 0.44425 0.4305 0.37448 0.0
O341 O 0.45601 0.41174 0.42059 0.0
C342 C 0.44296 0.41684 0.39817 0.0
C343 C 0.5004 0.40304 0.48984 0.0
C344 C 0.49172 0.41376 0.32213 0.0
C345 C 0.49159 0.45483 0.43493 0.0
O346 O 0.50227 0.44308 0.43127 0.0
O347 O 0.47633 0.45224 0.4239 0.0
O348 O 0.51311 0.40642 0.46386 0.0
O349 O 0.48563 0.40689 0.4749 0.0
O350 O 0.34427 0.73174 0.08001 0.0
Cd351 Cd 0.34107 0.72071 0.14387 0.0
Cd352 Cd 0.35176 0.75004 0.17063 0.0
O353 O 0.36169 0.75116 0.10497 0.0
O354 O 0.34385 0.6958 0.13636 0.0
O355 O 0.36289 0.71233 0.16853 0.0
C356 C 0.35871 0.6977 0.15334 0.0
C357 C 0.36634 0.75417 0.239 0.0
C358 C 0.35503 0.74317 0.07179 0.0
C359 C 0.31606 0.74278 0.18868 0.0
O360 O 0.32648 0.75424 0.17841 0.0
O361 O 0.32017 0.72744 0.18349 0.0
O362 O 0.36296 0.76658 0.21189 0.0
O363 O 0.36265 0.73923 0.22521 0.0
O364 O 0.03959 0.59805 0.83384 0.0
Cd365 Cd 0.05145 0.59175 0.89452 0.0
Cd366 Cd 0.02313 0.60422 0.92837 0.0
O367 O 0.01984 0.61416 0.86296 0.0
O368 O 0.07578 0.59163 0.8774 0.0
O369 O 0.06455 0.6103 0.92459 0.0
C370 C 0.07738 0.60519 0.90126 0.0
C371 C 0.02088 0.61943 0.99642 0.0
C372 C 0.02769 0.60846 0.82821 0.0
C373 C 0.02886 0.56729 0.94118 0.0
O374 O 0.01819 0.57911 0.93906 0.0
O375 O 0.04396 0.56986 0.92845 0.0
O376 O 1.00786 0.61603 0.97174 0.0
O377 O 0.03544 0.61535 0.98036 0.0
O378 O 0.17649 0.29068 0.57418 0.0
Cd379 Cd 0.18086 0.30148 0.6377 0.0
Cd380 Cd 0.17018 0.27205 0.66435 0.0
O381 O 0.15954 0.27093 0.59966 0.0
O382 O 0.17921 0.32632 0.62758 0.0
O383 O 0.16021 0.31152 0.66566 0.0
C384 C 0.16476 0.32565 0.64767 0.0
C385 C 0.15613 0.26807 0.73356 0.0
C386 C 0.16575 0.27923 0.56634 0.0
C387 C 0.20619 0.27903 0.67983 0.0
O388 O 0.19553 0.26769 0.67053 0.0
O389 O 0.20224 0.29442 0.67477 0.0
O390 O 0.15929 0.25562 0.70652 0.0
O391 O 0.15973 0.28299 0.71928 0.0
O392 O 0.48035 0.59324 0.17796 0.0
Cd393 Cd 0.46918 0.5896 0.11484 0.0
Cd394 Cd 0.49821 0.60135 0.08526 0.0
O395 O 0.49958 0.61071 0.15173 0.0
O396 O 0.44431 0.59287 0.12222 0.0
O397 O 0.46121 0.61131 0.08869 0.0
C398 C 0.4465 0.60756 0.10431 0.0
C399 C 0.50286 0.61647 0.01784 0.0
C400 C 0.49176 0.60407 0.1854 0.0
C401 C 0.49129 0.5652 0.06763 0.0
O402 O 0.50251 0.57622 0.07468 0.0
O403 O 0.47599 0.56848 0.07666 0.0
O404 O 0.51508 0.61271 0.04513 0.0
O405 O 0.4878 0.61298 0.03115 0.0
O406 O 0.17283 0.73115 0.92257 0.0
Cd407 Cd 0.17909 0.71934 0.86183 0.0
Cd408 Cd 0.16629 0.7475 0.82819 0.0
O409 O 0.15632 0.75061 0.8936 0.0
O410 O 0.17926 0.69499 0.87876 0.0
O411 O 0.16049 0.70628 0.83184 0.0
C412 C 0.16565 0.69342 0.85502 0.0
C413 C 0.15121 0.74981 0.75987 0.0
C414 C 0.16224 0.74287 0.92831 0.0
C415 C 0.20328 0.74215 0.81527 0.0
O416 O 0.19135 0.75269 0.81779 0.0
O417 O 0.20088 0.72699 0.82765 0.0
O418 O 0.15444 0.76279 0.78486 0.0
O419 O 0.15532 0.73524 0.77583 0.0
O420 O 0.04111 0.42557 0.66973 0.0
Cd421 Cd 0.05208 0.4301 0.60633 0.0
Cd422 Cd 0.02262 0.41951 0.57924 0.0
O423 O 0.02081 0.4093 0.64424 0.0
O424 O 0.07686 0.42832 0.61679 0.0
O425 O 0.06213 0.40959 0.57767 0.0
C426 C 0.07623 0.41401 0.59605 0.0
C427 C 0.01722 0.40502 0.51155 0.0
C428 C 0.02927 0.41524 0.67755 0.0
C429 C 0.03012 0.45565 0.56381 0.0
O430 O 0.01874 0.44488 0.5718 0.0
O431 O 0.04546 0.45178 0.57001 0.0
O432 O 1.00523 0.40943 0.53888 0.0
O433 O 0.03248 0.40766 0.52467 0.0
O434 O 0.34874 0.29019 0.42353 0.0
Cd435 Cd 0.34223 0.30184 0.36268 0.0
Cd436 Cd 0.35462 0.27345 0.3297 0.0
O437 O 0.36508 0.27062 0.39457 0.0
O438 O 0.34195 0.32617 0.37933 0.0
O439 O 0.36062 0.315 0.33192 0.0
C440 C 0.35545 0.32783 0.35513 0.0
C441 C 0.36909 0.27057 0.26059 0.0
C442 C 0.35937 0.2785 0.42923 0.0
C443 C 0.31765 0.27907 0.31811 0.0
O444 O 0.32945 0.2684 0.32096 0.0
O445 O 0.32029 0.29428 0.32949 0.0
O446 O 0.36593 0.25778 0.28648 0.0
O447 O 0.36532 0.28528 0.27608 0.0
H448 H 0.01775 0.12548 0.71293 0.0
H449 H 0.97494 0.09689 0.76005 0.0
H450 H 0.02429 0.13288 0.79284 0.0
H451 H 0.98155 0.10408 0.83912 0.0
H452 H 0.98843 0.12667 0.97512 0.0
H453 H 0.98227 0.12754 0.89294 0.0
H454 H 0.03443 0.11798 0.86248 0.0
H455 H 0.04068 0.11746 0.94473 0.0
C456 C 1.0097 0.12084 0.74021 0.0
C457 C 0.99587 0.11052 0.73009 0.0
C458 C 0.01347 0.12506 0.78593 0.0
C459 C 1.00337 0.11919 0.8223 0.0
C460 C 0.98941 0.10911 0.81193 0.0
C461 C 0.98572 0.10482 0.7665 0.0
C462 C 0.99867 0.1252 0.95092 0.0
C463 C 0.01499 0.12172 0.96646 0.0
C464 C 0.99512 0.12558 0.90382 0.0
C465 C 1.00779 0.12243 0.87124 0.0
C466 C 0.02438 0.12046 0.88667 0.0
C467 C 0.02796 0.12013 0.93388 0.0
H468 H 0.16861 0.7254 0.00685 0.0
H469 H 0.14406 0.77027 0.95749 0.0
H470 H 0.16153 0.73281 0.08537 0.0
H471 H 0.13675 0.77766 0.03706 0.0
H472 H 0.15336 0.79287 0.18975 0.0
H473 H 0.15218 0.78669 0.10743 0.0
H474 H 0.138 0.73562 0.13828 0.0
H475 H 0.13955 0.74167 0.2204 0.0
C476 C 0.16156 0.73681 0.01269 0.0
C477 C 0.15699 0.74729 0.9758 0.0
C478 C 0.15733 0.74097 0.05784 0.0
C479 C 0.14843 0.75576 0.06753 0.0
C480 C 0.14363 0.7662 0.03068 0.0
C481 C 0.14778 0.76194 0.98517 0.0
C482 C 0.1495 0.78046 0.17894 0.0
C483 C 0.14685 0.76767 0.21158 0.0
C484 C 0.14881 0.77692 0.1317 0.0
C485 C 0.14538 0.76056 0.11635 0.0
C486 C 0.14109 0.74824 0.14905 0.0
C487 C 0.14188 0.75174 0.19613 0.0
H488 H 0.54571 0.91753 0.25694 0.0
H489 H 0.50071 0.893 0.20851 0.0
H490 H 0.53833 0.9106 0.33567 0.0
H491 H 0.49336 0.8858 0.28817 0.0
H492 H 0.47775 0.903 0.43944 0.0
H493 H 0.48422 0.9013 0.3574 0.0
H494 H 0.53529 0.8877 0.39002 0.0
H495 H 0.52894 0.88982 0.47191 0.0
C496 C 0.5343 0.91049 0.26303 0.0
C497 C 0.52375 0.90593 0.22636 0.0
C498 C 0.53014 0.90634 0.3083 0.0
C499 C 0.5153 0.89753 0.31829 0.0
C500 C 0.50486 0.89265 0.2816 0.0
C501 C 0.50909 0.89673 0.23602 0.0
C502 C 0.49022 0.89915 0.42911 0.0
C503 C 0.50292 0.89684 0.46213 0.0
C504 C 0.49393 0.89816 0.38202 0.0
C505 C 0.51038 0.89475 0.36718 0.0
C506 C 0.52261 0.89078 0.40035 0.0
C507 C 0.51894 0.89188 0.4473 0.0
H508 H 0.35302 0.29602 0.50758 0.0
H509 H 0.37815 0.25149 0.45839 0.0
H510 H 0.36041 0.28881 0.58603 0.0
H511 H 0.38582 0.24432 0.53787 0.0
H512 H 0.36939 0.2286 0.69003 0.0
H513 H 0.37076 0.23497 0.60789 0.0
H514 H 0.38365 0.2863 0.63941 0.0
H515 H 0.38185 0.28005 0.72147 0.0
C516 C 0.36028 0.28473 0.51344 0.0
C517 C 0.36488 0.27427 0.47664 0.0
C518 C 0.3647 0.28069 0.55855 0.0
C519 C 0.37384 0.26605 0.56829 0.0
C520 C 0.37874 0.25567 0.53148 0.0
C521 C 0.37438 0.2598 0.48601 0.0
C522 C 0.37301 0.24112 0.67945 0.0
C523 C 0.37519 0.25391 0.71224 0.0
C524 C 0.37382 0.24477 0.63228 0.0
C525 C 0.37692 0.26124 0.61712 0.0
C526 C 0.3808 0.27358 0.65002 0.0
C527 C 0.37988 0.26997 0.69706 0.0
H528 H 0.97647 0.92583 0.74133 0.0
H529 H 0.0192 0.89729 0.78881 0.0
H530 H 0.98332 0.91878 0.66224 0.0
H531 H 0.026 0.89007 0.70893 0.0
H532 H 0.04248 0.90557 0.55682 0.0
H533 H 0.03619 0.90522 0.63913 0.0
H534 H 0.98414 0.895 0.60888 0.0
H535 H 0.99033 0.89563 0.5267 0.0
C536 C 0.98729 0.91796 0.73495 0.0
C537 C 0.99733 0.9122 0.77146 0.0
C538 C 0.99112 0.91376 0.68953 0.0
C539 C 1.00512 0.90373 0.6793 0.0
C540 C 0.01514 0.89784 0.71575 0.0
C541 C 0.01123 0.90196 0.76144 0.0
C542 C 0.02978 0.90277 0.56775 0.0
C543 C 0.01685 0.90091 0.53522 0.0
C544 C 0.02618 0.90256 0.61497 0.0
C545 C 1.0096 0.90045 0.63043 0.0
C546 C 0.99698 0.89706 0.59795 0.0
C547 C 1.00055 0.89731 0.55085 0.0
H548 H 0.36564 0.79252 0.80935 0.0
H549 H 0.37444 0.74035 0.77753 0.0
H550 H 0.36642 0.78595 0.89145 0.0
H551 H 0.37553 0.73387 0.85952 0.0
H552 H 0.34567 0.72635 0.99426 0.0
H553 H 0.35235 0.73311 0.91474 0.0
H554 H 0.38182 0.77548 0.95982 0.0
H555 H 0.37496 0.76881 0.04 0.0
C556 C 0.36827 0.77975 0.81984 0.0
C557 C 0.36969 0.7669 0.78694 0.0
C558 C 0.36874 0.77599 0.86694 0.0
C559 C 0.37067 0.75932 0.88194 0.0
C560 C 0.37361 0.74676 0.849 0.0
C561 C 0.37311 0.7505 0.802 0.0
C562 C 0.35364 0.73707 0.98739 0.0
C563 C 0.35969 0.74708 0.02353 0.0
C564 C 0.35762 0.74085 0.94173 0.0
C565 C 0.36773 0.75477 0.93095 0.0
C566 C 0.37396 0.76471 0.96705 0.0
C567 C 0.37005 0.76086 0.01293 0.0
H568 H 0.531 0.12939 0.03181 0.0
H569 H 0.47925 0.1186 0.06472 0.0
H570 H 0.53744 0.13143 0.11365 0.0
H571 H 0.48579 0.12019 0.14664 0.0
H572 H 0.54649 0.10156 0.24741 0.0
H573 H 0.53951 0.10868 0.16856 0.0
H574 H 0.49551 0.13528 0.21549 0.0
H575 H 0.50243 0.12787 0.29524 0.0
C576 C 0.52091 0.12784 0.05648 0.0
C577 C 0.50468 0.12355 0.0418 0.0
C578 C 0.52463 0.12889 0.10341 0.0
C579 C 0.51223 0.12554 0.13669 0.0
C580 C 0.49565 0.12283 0.12196 0.0
C581 C 0.49189 0.1219 0.07491 0.0
C582 C 0.53537 0.10903 0.24116 0.0
C583 C 0.52495 0.11403 0.2777 0.0
C584 C 0.53146 0.11329 0.19583 0.0
C585 C 0.517 0.12267 0.18564 0.0
C586 C 0.50671 0.12799 0.2222 0.0
C587 C 0.51069 0.12378 0.26784 0.0
H588 H 0.14538 0.25391 0.53478 0.0
H589 H 0.17453 0.29653 0.489 0.0
H590 H 0.13804 0.2477 0.45471 0.0
H591 H 0.16744 0.29021 0.40966 0.0
H592 H 0.15424 0.23095 0.30435 0.0
H593 H 0.15304 0.23738 0.38633 0.0
H594 H 0.14459 0.28961 0.35426 0.0
H595 H 0.14618 0.28326 0.27227 0.0
C596 C 0.15015 0.262 0.50774 0.0
C597 C 0.16064 0.27566 0.51828 0.0
C598 C 0.14595 0.25842 0.46192 0.0
C599 C 0.15206 0.26851 0.42583 0.0
C600 C 0.16224 0.28236 0.43662 0.0
C601 C 0.16647 0.28588 0.48219 0.0
C602 C 0.15166 0.24373 0.31474 0.0
C603 C 0.15062 0.25665 0.28184 0.0
C604 C 0.15094 0.24741 0.36181 0.0
C605 C 0.1491 0.26407 0.37679 0.0
C606 C 0.14644 0.27671 0.34377 0.0
C607 C 0.14723 0.27305 0.29677 0.0
H608 H 1.00398 0.89321 0.28798 0.0
H609 H 0.04721 0.92113 0.24082 0.0
H610 H 0.99752 0.8856 0.20821 0.0
H611 H 0.04064 0.91384 0.16188 0.0
H612 H 0.03285 0.89334 0.02468 0.0
H613 H 0.0394 0.89131 0.10651 0.0
H614 H 0.98735 0.90033 0.13968 0.0
H615 H 0.98072 0.90188 0.05788 0.0
C616 C 0.01215 0.89763 0.26072 0.0
C617 C 0.02604 0.90788 0.27078 0.0
C618 C 1.00844 0.89329 0.21505 0.0
C619 C 0.01861 0.89903 0.17864 0.0
C620 C 0.03271 0.90891 0.18903 0.0
C621 C 0.03638 0.91327 0.23441 0.0
C622 C 0.02272 0.89439 0.04939 0.0
C623 C 1.00633 0.89806 0.03481 0.0
C624 C 0.02649 0.89336 0.09631 0.0
C625 C 0.01397 0.8961 0.12965 0.0
C626 C 0.99729 0.89816 0.11497 0.0
C627 C 0.9935 0.89909 0.06797 0.0
H628 H 0.85151 0.29559 0.99494 0.0
H629 H 0.87817 0.25174 0.04296 0.0
H630 H 0.8587 0.28868 0.91613 0.0
H631 H 0.88563 0.2449 0.96325 0.0
H632 H 0.8798 0.28047 0.77971 0.0
H633 H 0.88167 0.28683 0.86162 0.0
H634 H 0.87056 0.23513 0.89417 0.0
H635 H 0.86912 0.22867 0.81218 0.0
C636 C 0.85906 0.28453 0.98874 0.0
C637 C 0.86415 0.27416 0.02532 0.0
C638 C 0.86336 0.28066 0.94344 0.0
C639 C 0.87287 0.26629 0.93333 0.0
C640 C 0.87825 0.25603 0.96992 0.0
C641 C 0.874 0.25997 0.01553 0.0
C642 C 0.87824 0.27035 0.8043 0.0
C643 C 0.87403 0.25413 0.78947 0.0
C644 C 0.87919 0.27403 0.85126 0.0
C645 C 0.87583 0.26158 0.88442 0.0
C646 C 0.87321 0.24501 0.86957 0.0
C647 C 0.87236 0.24131 0.82249 0.0
H648 H 0.51982 0.12477 0.79603 0.0
H649 H 0.47574 0.09859 0.74759 0.0
H650 H 0.52698 0.13208 0.71631 0.0
H651 H 0.48294 0.10569 0.6688 0.0
H652 H 0.49116 0.12827 0.5335 0.0
H653 H 0.48499 0.12937 0.61564 0.0
H654 H 0.53649 0.11679 0.64625 0.0
H655 H 0.54277 0.11603 0.56394 0.0
C656 C 0.51162 0.12066 0.7685 0.0
C657 C 0.49725 0.11102 0.77819 0.0
C658 C 0.51575 0.12482 0.7229 0.0
C659 C 0.50546 0.11959 0.68625 0.0
C660 C 0.49097 0.11022 0.69621 0.0
C661 C 0.48693 0.10598 0.74148 0.0
C662 C 0.50128 0.12618 0.55772 0.0
C663 C 0.51739 0.12179 0.54221 0.0
C664 C 0.49772 0.1267 0.60481 0.0
C665 C 0.51015 0.12276 0.63741 0.0
C666 C 0.52663 0.11988 0.62202 0.0
C667 C 0.53022 0.11943 0.5748 0.0
H668 H 0.64431 0.77066 0.54325 0.0
H669 H 0.66979 0.72634 0.49397 0.0
H670 H 0.63668 0.77786 0.4638 0.0
H671 H 0.66238 0.73356 0.41547 0.0
H672 H 0.65303 0.79351 0.3112 0.0
H673 H 0.65192 0.78724 0.39348 0.0
H674 H 0.63866 0.73594 0.36276 0.0
H675 H 0.64013 0.7421 0.28062 0.0
C676 C 0.64818 0.76241 0.51561 0.0
C677 C 0.65774 0.74797 0.52495 0.0
C678 C 0.64384 0.76655 0.47016 0.0
C679 C 0.6488 0.75622 0.43335 0.0
C680 C 0.65805 0.74164 0.44301 0.0
C681 C 0.66248 0.73758 0.48812 0.0
C682 C 0.64937 0.78102 0.32201 0.0
C683 C 0.64698 0.76821 0.28941 0.0
C684 C 0.64872 0.77743 0.36923 0.0
C685 C 0.6456 0.76099 0.38459 0.0
C686 C 0.64152 0.74864 0.35195 0.0
C687 C 0.64225 0.75219 0.30487 0.0
H688 H 0.97922 0.11959 0.44402 0.0
H689 H 0.03128 0.1287 0.47693 0.0
H690 H 0.98585 0.12102 0.36214 0.0
H691 H 0.03783 0.13054 0.39506 0.0
H692 H 0.04576 0.10047 0.26099 0.0
H693 H 0.03909 0.10769 0.34001 0.0
H694 H 0.9961 0.13601 0.29357 0.0
H695 H 1.00267 0.12852 0.21379 0.0
C696 C 0.99197 0.12248 0.43384 0.0
C697 C 1.00479 0.12371 0.46695 0.0
C698 C 0.99578 0.12333 0.38681 0.0
C699 C 0.01245 0.1255 0.37209 0.0
C700 C 0.02493 0.12842 0.40533 0.0
C701 C 0.02115 0.12749 0.45227 0.0
C702 C 0.03493 0.10833 0.26741 0.0
C703 C 0.02468 0.1138 0.23102 0.0
C704 C 0.03121 0.11264 0.31282 0.0
C705 C 0.01711 0.12254 0.32315 0.0
C706 C 1.007 0.12831 0.28673 0.0
C707 C 0.01079 0.12404 0.24107 0.0
H708 H 0.64252 0.27924 0.22523 0.0
H709 H 0.65347 0.22751 0.19312 0.0
H710 H 0.6409 0.28568 0.14328 0.0
H711 H 0.65221 0.23405 0.11105 0.0
H712 H 0.64417 0.25092 0.96223 0.0
H713 H 0.63688 0.24394 0.04201 0.0
H714 H 0.66414 0.28752 0.08892 0.0
H715 H 0.6712 0.29457 0.00995 0.0
C716 C 0.64419 0.26915 0.2007 0.0
C717 C 0.6484 0.25293 0.21565 0.0
C718 C 0.64338 0.27287 0.15372 0.0
C719 C 0.64684 0.26047 0.12068 0.0
C720 C 0.64948 0.24389 0.13561 0.0
C721 C 0.65021 0.24015 0.18271 0.0
C722 C 0.64846 0.25908 0.98962 0.0
C723 C 0.65835 0.27326 0.97972 0.0
C724 C 0.64431 0.25505 0.03527 0.0
C725 C 0.64983 0.26523 0.07179 0.0
C726 C 0.6594 0.27958 0.06162 0.0
C727 C 0.66361 0.28353 0.01625 0.0
H728 H 0.52024 0.89543 0.70774 0.0
H729 H 0.47517 0.91972 0.75662 0.0
H730 H 0.52759 0.88814 0.78738 0.0
H731 H 0.48254 0.91267 0.83521 0.0
H732 H 0.49144 0.89066 0.97036 0.0
H733 H 0.48542 0.88919 0.8882 0.0
H734 H 0.53649 0.90356 0.85774 0.0
H735 H 0.54264 0.90464 0.94009 0.0
C736 C 0.51186 0.89911 0.73533 0.0
C737 C 0.49716 0.90823 0.72581 0.0
C738 C 0.51609 0.89496 0.78088 0.0
C739 C 0.50559 0.8997 0.81761 0.0
C740 C 0.49076 0.90852 0.80777 0.0
C741 C 0.48662 0.91273 0.76258 0.0
C742 C 0.50151 0.89306 0.94616 0.0
C743 C 0.51743 0.89803 0.96172 0.0
C744 C 0.49804 0.89232 0.89906 0.0
C745 C 0.51036 0.89666 0.86647 0.0
C746 C 0.52671 0.90014 0.88193 0.0
C747 C 0.53023 0.90078 0.92918 0.0
H748 H 0.8762 0.73768 0.72882 0.0
H749 H 0.86777 0.78986 0.69596 0.0
H750 H 0.87795 0.7312 0.64693 0.0
H751 H 0.86907 0.7833 0.6141 0.0
H752 H 0.87657 0.76677 0.4658 0.0
H753 H 0.88396 0.77315 0.54577 0.0
H754 H 0.8554 0.73013 0.59131 0.0
H755 H 0.84831 0.72365 0.51214 0.0
C756 C 0.87509 0.74783 0.70417 0.0
C757 C 0.87157 0.76423 0.71886 0.0
C758 C 0.87597 0.7441 0.65721 0.0
C759 C 0.87324 0.75666 0.62397 0.0
C760 C 0.87124 0.77332 0.63874 0.0
C761 C 0.87045 0.77708 0.68576 0.0
C762 C 0.87202 0.75861 0.49293 0.0
C763 C 0.86176 0.74477 0.48258 0.0
C764 C 0.87623 0.76228 0.5387 0.0
C765 C 0.87035 0.75211 0.57494 0.0
C766 C 0.86043 0.73806 0.56429 0.0
C767 C 0.8562 0.73444 0.51878 0.0
H768 H 0.51717 0.6245 0.21618 0.0
H769 H 0.47513 0.59483 0.26343 0.0
H770 H 0.52366 0.63193 0.29605 0.0
H771 H 0.4817 0.60206 0.34254 0.0
H772 H 0.48838 0.62465 0.47878 0.0
H773 H 0.48199 0.62545 0.39672 0.0
H774 H 0.53428 0.61717 0.36519 0.0
H775 H 0.54076 0.6167 0.44728 0.0
C776 C 0.50928 0.61962 0.2435 0.0
C777 C 0.49568 0.609 0.23342 0.0
C778 C 0.51302 0.62387 0.2892 0.0
C779 C 0.50312 0.6177 0.32561 0.0
C780 C 0.48939 0.6073 0.31531 0.0
C781 C 0.48572 0.603 0.26987 0.0
C782 C 0.49859 0.62345 0.45437 0.0
C783 C 0.51503 0.62033 0.46955 0.0
C784 C 0.49491 0.62379 0.40734 0.0
C785 C 0.50757 0.62097 0.3745 0.0
C786 C 0.52424 0.61938 0.38959 0.0
C787 C 0.52795 0.61909 0.43671 0.0
H788 H 0.67183 0.22404 0.50966 0.0
H789 H 0.64559 0.26814 0.4616 0.0
H790 H 0.66455 0.23091 0.58839 0.0
H791 H 0.63805 0.27496 0.54133 0.0
H792 H 0.64277 0.23883 0.7242 0.0
H793 H 0.64126 0.23275 0.64207 0.0
H794 H 0.6531 0.28442 0.61117 0.0
H795 H 0.65419 0.29061 0.69338 0.0
C796 C 0.66437 0.23516 0.51583 0.0
C797 C 0.6594 0.2456 0.47925 0.0
C798 C 0.66002 0.239 0.5611 0.0
C799 C 0.65058 0.25342 0.57119 0.0
C800 C 0.64536 0.26379 0.53464 0.0
C801 C 0.64966 0.25986 0.48903 0.0
C802 C 0.64459 0.249 0.69992 0.0
C803 C 0.64888 0.26513 0.71529 0.0
C804 C 0.64384 0.24549 0.65283 0.0
C805 C 0.64748 0.258 0.62011 0.0
C806 C 0.65023 0.27449 0.63545 0.0
C807 C 0.65089 0.27803 0.68264 0.0
H808 H 1.00305 0.39598 0.709 0.0
H809 H 0.04689 0.42315 0.75488 0.0
H810 H 0.99658 0.3886 0.789 0.0
H811 H 0.04034 0.416 0.83413 0.0
H812 H 0.03316 0.39374 0.97025 0.0
H813 H 0.03902 0.39253 0.88795 0.0
H814 H 0.9871 0.40375 0.8587 0.0
H815 H 0.98113 0.40459 0.94114 0.0
C816 C 0.01134 0.4003 0.73604 0.0
C817 C 0.02544 0.41022 0.72557 0.0
C818 C 1.00761 0.3961 0.78181 0.0
C819 C 0.01801 0.40161 0.81787 0.0
C820 C 0.03225 0.41127 0.80715 0.0
C821 C 0.03591 0.41552 0.76165 0.0
C822 C 0.02289 0.3955 0.94628 0.0
C823 C 1.00674 0.39954 0.96215 0.0
C824 C 0.02628 0.39491 0.89913 0.0
C825 C 0.01362 0.39846 0.86687 0.0
C826 C 0.99713 0.40097 0.88267 0.0
C827 C 0.99371 0.40147 0.92996 0.0
H828 H 0.87477 0.78143 0.22845 0.0
H829 H 0.86613 0.72924 0.19651 0.0
H830 H 0.87587 0.78794 0.14647 0.0
H831 H 0.86693 0.73583 0.11443 0.0
H832 H 0.87533 0.753 0.96593 0.0
H833 H 0.88226 0.74637 0.04605 0.0
H834 H 0.85271 0.78864 0.09132 0.0
H835 H 0.84597 0.79536 0.01184 0.0
C836 C 0.87348 0.77128 0.20395 0.0
C837 C 0.8701 0.75486 0.21898 0.0
C838 C 0.87399 0.77504 0.15697 0.0
C839 C 0.8711 0.76247 0.124 0.0
C840 C 0.86921 0.7458 0.13895 0.0
C841 C 0.86874 0.74202 0.18605 0.0
C842 C 0.87042 0.76093 0.99302 0.0
C843 C 0.86002 0.77467 0.98248 0.0
C844 C 0.87438 0.75711 0.03887 0.0
C845 C 0.86813 0.76703 0.07501 0.0
C846 C 0.85799 0.78092 0.06429 0.0
C847 C 0.85398 0.78467 0.01865 0.0
H848 H 0.54046 0.40322 0.05986 0.0
H849 H 0.48865 0.39169 0.02981 0.0
H850 H 0.53436 0.40209 0.14215 0.0
H851 H 0.48267 0.39014 0.11204 0.0
H852 H 0.51829 0.39462 0.29194 0.0
H853 H 0.525 0.38701 0.2122 0.0
H854 H 0.48086 0.41345 0.16555 0.0
H855 H 0.47409 0.42079 0.24431 0.0
C856 C 0.5279 0.39988 0.07079 0.0
C857 C 0.51496 0.39786 0.03834 0.0
C858 C 0.52441 0.3992 0.11803 0.0
C859 C 0.50794 0.3964 0.1336 0.0
C860 C 0.4954 0.39274 0.10108 0.0
C861 C 0.49885 0.39352 0.05395 0.0
C862 C 0.50997 0.39865 0.2646 0.0
C863 C 0.49571 0.4084 0.27449 0.0
C864 C 0.51383 0.39432 0.21899 0.0
C865 C 0.5034 0.39951 0.18255 0.0
C866 C 0.48899 0.40894 0.19277 0.0
C867 C 0.48521 0.41333 0.23804 0.0
H868 H 0.86666 0.29216 0.31139 0.0
H869 H 0.87906 0.24061 0.28111 0.0
H870 H 0.86754 0.2859 0.39372 0.0
H871 H 0.88029 0.23447 0.36327 0.0
H872 H 0.87556 0.26933 0.54351 0.0
H873 H 0.88288 0.27647 0.46379 0.0
H874 H 0.85665 0.23234 0.41645 0.0
H875 H 0.84954 0.22516 0.49524 0.0
C876 C 0.87013 0.27963 0.32229 0.0
C877 C 0.8725 0.2668 0.28974 0.0
C878 C 0.87065 0.27605 0.36952 0.0
C879 C 0.87361 0.2596 0.38496 0.0
C880 C 0.87757 0.24718 0.3524 0.0
C881 C 0.87697 0.25073 0.3053 0.0
C882 C 0.87149 0.26111 0.51602 0.0
C883 C 0.86189 0.24671 0.52575 0.0
C884 C 0.87566 0.26522 0.47042 0.0
C885 C 0.87047 0.25491 0.43382 0.0
C886 C 0.86114 0.24039 0.44382 0.0
C887 C 0.8569 0.23636 0.4891 0.0
H888 H 0.04526 0.60249 0.74964 0.0
H889 H 1.00013 0.62647 0.79923 0.0
H890 H 0.03787 0.60983 0.67125 0.0
H891 H 0.99275 0.63404 0.71979 0.0
H892 H 0.97787 0.61798 0.56639 0.0
H893 H 0.98393 0.61885 0.64882 0.0
H894 H 0.03494 0.6336 0.61908 0.0
H895 H 0.02902 0.63236 0.53684 0.0
C896 C 0.03379 0.60946 0.74388 0.0
C897 C 0.02324 0.6138 0.7808 0.0
C898 C 0.02964 0.61385 0.69882 0.0
C899 C 0.01479 0.62267 0.68922 0.0
C900 C 1.00427 0.62723 0.7261 0.0
C901 C 1.00851 0.62292 0.77153 0.0
C902 C 0.99024 0.6219 0.57748 0.0
C903 C 1.00305 0.62481 0.54509 0.0
C904 C 0.99371 0.62242 0.62478 0.0
C905 C 1.01003 0.62591 0.64045 0.0
C906 C 0.02235 0.63045 0.60805 0.0
C907 C 0.01892 0.62985 0.5609 0.0
H908 H 0.6701 0.79589 0.99454 0.0
H909 H 0.64394 0.75181 0.04328 0.0
H910 H 0.66268 0.78895 0.91596 0.0
H911 H 0.63627 0.7449 0.96369 0.0
H912 H 0.65241 0.72923 0.81138 0.0
H913 H 0.65126 0.73542 0.89359 0.0
H914 H 0.63927 0.78704 0.86266 0.0
H915 H 0.64083 0.78095 0.78053 0.0
C916 C 0.66262 0.78476 0.98855 0.0
C917 C 0.65772 0.77435 0.02527 0.0
C918 C 0.65819 0.78087 0.94338 0.0
C919 C 0.64874 0.76644 0.9335 0.0
C920 C 0.64358 0.7561 0.9702 0.0
C921 C 0.64795 0.76007 0.01573 0.0
C922 C 0.64904 0.74179 0.82211 0.0
C923 C 0.64703 0.75468 0.78945 0.0
C924 C 0.64836 0.74533 0.86931 0.0
C925 C 0.64557 0.76181 0.88464 0.0
C926 C 0.64187 0.7743 0.85191 0.0
C927 C 0.64265 0.77079 0.80482 0.0
H928 H 0.5445 0.42026 0.7438 0.0
H929 H 0.50072 0.39331 0.79142 0.0
H930 H 0.53755 0.41322 0.66482 0.0
H931 H 0.49384 0.38605 0.71166 0.0
H932 H 0.47764 0.40275 0.56045 0.0
H933 H 0.48407 0.40145 0.64255 0.0
H934 H 0.53572 0.38998 0.61058 0.0
H935 H 0.52939 0.39163 0.52859 0.0
C936 C 0.53345 0.4127 0.73747 0.0
C937 C 0.52311 0.40745 0.77398 0.0
C938 C 0.52956 0.40849 0.6921 0.0
C939 C 0.5152 0.39896 0.68192 0.0
C940 C 0.50496 0.39345 0.71842 0.0
C941 C 0.50892 0.39759 0.76405 0.0
C942 C 0.49026 0.39946 0.57093 0.0
C943 C 0.50308 0.3976 0.53804 0.0
C944 C 0.49394 0.3987 0.61804 0.0
C945 C 0.5105 0.396 0.63303 0.0
C946 C 0.52293 0.3925 0.60007 0.0
C947 C 0.51927 0.39333 0.55307 0.0
H948 H 0.37644 0.78379 0.27706 0.0
H949 H 0.36775 0.73166 0.31002 0.0
H950 H 0.37821 0.79029 0.35894 0.0
H951 H 0.36907 0.73823 0.39187 0.0
H952 H 0.34841 0.79796 0.4935 0.0
H953 H 0.35559 0.79144 0.41441 0.0
H954 H 0.38393 0.74837 0.46028 0.0
H955 H 0.37645 0.75478 0.54018 0.0
C956 C 0.37528 0.77365 0.30173 0.0
C957 C 0.37167 0.75726 0.28707 0.0
C958 C 0.37617 0.77739 0.34868 0.0
C959 C 0.37337 0.76485 0.38194 0.0
C960 C 0.3713 0.74819 0.3672 0.0
C961 C 0.3705 0.74443 0.32019 0.0
C962 C 0.35627 0.78715 0.48695 0.0
C963 C 0.36173 0.77682 0.52323 0.0
C964 C 0.36056 0.7835 0.44149 0.0
C965 C 0.37044 0.76943 0.43095 0.0
C966 C 0.37623 0.75926 0.46726 0.0
C967 C 0.37197 0.76295 0.51299 0.0
H968 H 0.04378 0.61812 0.06653 0.0
H969 H 0.99302 0.63324 0.03535 0.0
H970 H 0.03765 0.62002 0.14875 0.0
H971 H 0.98703 0.63558 0.1174 0.0
H972 H 0.97587 0.60532 0.24917 0.0
H973 H 0.98337 0.61246 0.17076 0.0
H974 H 0.02913 0.63561 0.21886 0.0
H975 H 0.02163 0.62819 0.29837 0.0
C976 C 0.0315 0.62245 0.07718 0.0
C977 C 0.01878 0.62522 0.04449 0.0
C978 C 0.02799 0.62356 0.12437 0.0
C979 C 0.01173 0.62756 0.13961 0.0
C980 C 0.99956 0.63204 0.10675 0.0
C981 C 1.00303 0.6308 0.05971 0.0
C982 C 0.98749 0.61204 0.24332 0.0
C983 C 0.99821 0.61607 0.2801 0.0
C984 C 0.99171 0.61632 0.19823 0.0
C985 C 1.0068 0.62474 0.18847 0.0
C986 C 0.01743 0.62909 0.22527 0.0
C987 C 0.01312 0.62489 0.27075 0.0
H988 H 0.15479 0.29073 0.80407 0.0
H989 H 0.14668 0.2384 0.77281 0.0
H990 H 0.15385 0.28433 0.88616 0.0
H991 H 0.14537 0.23207 0.8549 0.0
H992 H 0.17525 0.22519 0.98975 0.0
H993 H 0.16827 0.23154 0.91026 0.0
H994 H 0.13884 0.27402 0.95472 0.0
H995 H 0.14606 0.26778 0.03489 0.0
C996 C 0.15226 0.27795 0.81467 0.0
C997 C 0.15111 0.26502 0.78194 0.0
C998 C 0.15169 0.27428 0.86181 0.0
C999 C 0.1499 0.25763 0.87703 0.0
C1000 C 0.14718 0.24497 0.84421 0.0
C1001 C 0.14781 0.24861 0.79716 0.0
C1002 C 0.16721 0.23585 0.98277 0.0
C1003 C 0.16131 0.24605 0.01873 0.0
C1004 C 0.16305 0.23938 0.93712 0.0
C1005 C 0.15289 0.25322 0.92613 0.0
C1006 C 0.14674 0.26331 0.96208 0.0
C1007 C 0.15086 0.25971 0.00797 0.0
H1008 H 0.50451 0.62716 0.71686 0.0
H1009 H 0.54627 0.59701 0.76325 0.0
H1010 H 0.49826 0.63464 0.7968 0.0
H1011 H 0.5399 0.60421 0.84251 0.0
H1012 H 0.53297 0.62537 0.98007 0.0
H1013 H 0.5397 0.62683 0.89824 0.0
H1014 H 0.48732 0.6201 0.8649 0.0
H1015 H 0.48053 0.61905 0.94669 0.0
C1016 C 0.5124 0.6222 0.74401 0.0
C1017 C 0.52583 0.6114 0.73365 0.0
C1018 C 0.5088 0.62646 0.78978 0.0
C1019 C 0.51863 0.62011 0.82605 0.0
C1020 C 0.53226 0.60961 0.81544 0.0
C1021 C 0.53581 0.60532 0.7699 0.0
C1022 C 0.52282 0.62469 0.95533 0.0
C1023 C 0.50625 0.62182 0.96987 0.0
C1024 C 0.5267 0.62539 0.90841 0.0
C1025 C 0.5141 0.62316 0.87505 0.0
C1026 C 0.49733 0.62186 0.88965 0.0
C1027 C 0.49344 0.62124 0.93663 0.0
H1028 H 0.14351 0.74944 0.45762 0.0
H1029 H 0.16648 0.79502 0.50753 0.0
H1030 H 0.13588 0.74188 0.53692 0.0
H1031 H 0.15913 0.78746 0.58577 0.0
H1032 H 0.1527 0.72699 0.68967 0.0
H1033 H 0.1512 0.73322 0.60742 0.0
H1034 H 0.13577 0.78387 0.63848 0.0
H1035 H 0.1377 0.77778 0.72058 0.0
C1036 C 0.1468 0.75789 0.48535 0.0
C1037 C 0.1557 0.77278 0.47625 0.0
C1038 C 0.14247 0.75355 0.53071 0.0
C1039 C 0.14678 0.76412 0.56767 0.0
C1040 C 0.1553 0.77917 0.55817 0.0
C1041 C 0.1597 0.78342 0.51319 0.0
C1042 C 0.14849 0.7393 0.67894 0.0
C1043 C 0.14563 0.75199 0.7116 0.0
C1044 C 0.14761 0.74287 0.63172 0.0
C1045 C 0.14376 0.75916 0.61643 0.0
C1046 C 0.1392 0.77131 0.64919 0.0
C1047 C 0.1402 0.76779 0.69626 0.0
H1048 H 0.97291 0.3976 0.23913 0.0
H1049 H 0.02503 0.41032 0.22015 0.0
H1050 H 0.97838 0.39028 0.31917 0.0
H1051 H 0.03043 0.40449 0.30122 0.0
H1052 H 0.0387 0.39152 0.44764 0.0
H1053 H 0.03336 0.38783 0.36547 0.0
H1054 H 0.98218 0.40436 0.38602 0.0
H1055 H 0.98726 0.40681 0.46755 0.0
C1056 C 0.98557 0.39882 0.25236 0.0
C1057 C 0.99853 0.40467 0.22392 0.0
C1058 C 0.98872 0.39478 0.29836 0.0
C1059 C 1.00479 0.39714 0.31749 0.0
C1060 C 0.01792 0.40228 0.28806 0.0
C1061 C 0.01485 0.40579 0.24157 0.0
C1062 C 0.0262 0.39387 0.43454 0.0
C1063 C 0.01344 0.39957 0.46401 0.0
C1064 C 0.02316 0.39197 0.3873 0.0
C1065 C 1.00739 0.39607 0.36842 0.0
C1066 C 0.99443 0.4008 0.39872 0.0
C1067 C 0.99737 0.40233 0.44586 0.0
H1068 H 0.36837 0.29337 0.18996 0.0
H1069 H 0.38074 0.24185 0.2211 0.0
H1070 H 0.36918 0.287 0.10773 0.0
H1071 H 0.38188 0.2356 0.13904 0.0
H1072 H 0.37698 0.27007 0.95806 0.0
H1073 H 0.38443 0.27737 0.03752 0.0
H1074 H 0.35806 0.23347 0.08636 0.0
H1075 H 0.35081 0.22614 0.00784 0.0
C1076 C 0.37183 0.28084 0.17927 0.0
C1077 C 0.37419 0.26804 0.21205 0.0
C1078 C 0.37231 0.27719 0.13209 0.0
C1079 C 0.37521 0.2607 0.11693 0.0
C1080 C 0.3792 0.24833 0.1497 0.0
C1081 C 0.37866 0.25195 0.19674 0.0
C1082 C 0.37291 0.26193 0.98582 0.0
C1083 C 0.36323 0.24756 0.97659 0.0
C1084 C 0.37715 0.26613 0.03127 0.0
C1085 C 0.37196 0.25593 0.06822 0.0
C1086 C 0.36255 0.24144 0.05871 0.0
C1087 C 0.35823 0.23732 0.01359 0.0
H1088 H 0.04807 0.04369 0.02954 0.0
H1089 H 0.99722 0.05302 0.07396 0.0
H1090 H 0.03926 0.01701 0.99643 0.0
H1091 H 0.98852 0.02613 0.04273 0.0
H1092 H 0.97429 0.9848 0.94172 0.0
H1093 H 0.98318 0.01169 0.97368 0.0
H1094 H 0.03052 0.98965 0.01383 0.0
H1095 H 0.02192 0.96316 0.9803 0.0
C1096 C 0.03506 0.03994 0.0328 0.0
C1097 C 0.02337 0.05052 0.05435 0.0
C1098 C 0.02998 0.02459 0.01394 0.0
C1099 C 0.01311 0.01932 0.01664 0.0
C1100 C 1.00152 0.02983 0.03899 0.0
C1101 C 1.00656 0.04524 0.05733 0.0
C1102 C 0.98659 0.98574 0.95733 0.0
C1103 C 0.9974 0.97183 0.9582 0.0
C1104 C 0.99169 1.00114 0.97596 0.0
C1105 C 1.00763 1.00296 0.99644 0.0
C1106 C 0.01832 0.98894 0.99761 0.0
C1107 C 0.01331 0.97365 0.97856 0.0
H1108 H 0.21161 0.74878 0.27794 0.0
H1109 H 0.2333 0.79582 0.32134 0.0
H1110 H 0.23849 0.74011 0.24674 0.0
H1111 H 0.2605 0.78687 0.29157 0.0
H1112 H 0.30187 0.77388 0.1897 0.0
H1113 H 0.27505 0.78226 0.22193 0.0
H1114 H 0.2659 0.73115 0.26497 0.0
H1115 H 0.2926 0.72265 0.23099 0.0
C1116 C 0.22218 0.75723 0.28133 0.0
C1117 C 0.22025 0.77304 0.30215 0.0
C1118 C 0.23769 0.75218 0.26361 0.0
C1119 C 0.25178 0.76273 0.26652 0.0
C1120 C 0.2499 0.77849 0.28792 0.0
C1121 C 0.23431 0.78361 0.30531 0.0
C1122 C 0.29413 0.76439 0.20592 0.0
C1123 C 0.29941 0.74756 0.20764 0.0
C1124 C 0.27876 0.76924 0.22484 0.0
C1125 C 0.26824 0.75745 0.24646 0.0
C1126 C 0.27351 0.74058 0.2481 0.0
C1127 C 0.28887 0.73569 0.22874 0.0
H1128 H 0.54893 0.04194 0.47286 0.0
H1129 H 0.49762 0.05355 0.43755 0.0
H1130 H 0.53985 0.01525 0.50566 0.0
H1131 H 0.4886 0.02668 0.46846 0.0
H1132 H 0.47482 0.98466 0.56788 0.0
H1133 H 0.48416 0.01163 0.53718 0.0
H1134 H 0.52974 0.98842 0.48788 0.0
H1135 H 0.52074 0.9618 0.5201 0.0
C1136 C 0.53575 0.03871 0.47153 0.0
C1137 C 0.52403 0.04992 0.4526 0.0
C1138 C 0.5305 0.02335 0.49022 0.0
C1139 C 0.51342 0.01871 0.49 0.0
C1140 C 0.50178 0.02987 0.47029 0.0
C1141 C 0.507 0.04527 0.4521 0.0
C1142 C 0.48685 0.98536 0.5506 0.0
C1143 C 0.49703 0.97105 0.54668 0.0
C1144 C 0.49219 1.00082 0.53267 0.0
C1145 C 0.50776 1.00232 0.50988 0.0
C1146 C 0.51785 0.98793 0.50588 0.0
C1147 C 0.51261 0.97258 0.5242 0.0
H1148 H 0.28814 0.22484 0.81263 0.0
H1149 H 0.31031 0.27204 0.77205 0.0
H1150 H 0.26126 0.23397 0.7811 0.0
H1151 H 0.28379 0.28089 0.73904 0.0
H1152 H 0.22984 0.29878 0.72228 0.0
H1153 H 0.25641 0.28992 0.75621 0.0
H1154 H 0.247 0.23911 0.71139 0.0
H1155 H 0.22027 0.24785 0.67925 0.0
C1156 C 0.28731 0.23712 0.79677 0.0
C1157 C 0.3014 0.2477 0.79506 0.0
C1158 C 0.27191 0.24234 0.77837 0.0
C1159 C 0.27025 0.25822 0.75734 0.0
C1160 C 0.2844 0.26873 0.75562 0.0
C1161 C 0.29971 0.26359 0.77438 0.0
C1162 C 0.23349 0.28574 0.71954 0.0
C1163 C 0.22289 0.27405 0.69808 0.0
C1164 C 0.24878 0.28064 0.73888 0.0
C1165 C 0.25393 0.26373 0.73683 0.0
C1166 C 0.24338 0.25214 0.71464 0.0
C1167 C 0.22806 0.25721 0.69577 0.0
H1168 H 0.99818 0.96903 0.42728 0.0
H1169 H 0.04907 0.97928 0.46966 0.0
H1170 H 0.98914 0.99565 0.4595 0.0
H1171 H 0.03994 1.00568 0.50376 0.0
H1172 H 0.02154 0.0591 0.52232 0.0
H1173 H 0.03056 0.03291 0.4879 0.0
H1174 H 0.98386 1.00971 0.52915 0.0
H1175 H 0.97454 0.03629 0.562 0.0
C1176 C 1.00746 0.97697 0.44362 0.0
C1177 C 0.02438 0.97201 0.44578 0.0
C1178 C 1.00222 0.99221 0.46256 0.0
C1179 C 0.01372 1.00289 0.48471 0.0
C1180 C 0.03071 0.99797 0.48646 0.0
C1181 C 0.03598 0.98278 0.467 0.0
C1182 C 0.01317 0.04842 0.52416 0.0
C1183 C 0.99729 0.04983 0.54504 0.0
C1184 C 0.01842 0.0333 0.50458 0.0
C1185 C 1.00803 0.01905 0.5057 0.0
C1186 C 0.99215 0.02044 0.52685 0.0
C1187 C 0.98681 0.03567 0.54602 0.0
H1188 H 0.21032 0.77162 0.77143 0.0
H1189 H 0.23347 0.7254 0.81593 0.0
H1190 H 0.23675 0.78083 0.73847 0.0
H1191 H 0.26025 0.73492 0.78442 0.0
H1192 H 0.30136 0.74886 0.68285 0.0
H1193 H 0.27468 0.73976 0.71481 0.0
H1194 H 0.26383 0.79075 0.75536 0.0
H1195 H 0.29034 0.79994 0.72161 0.0
C1196 C 0.22112 0.76346 0.77465 0.0
C1197 C 0.21973 0.74773 0.79641 0.0
C1198 C 0.23637 0.76883 0.75591 0.0
C1199 C 0.25077 0.7587 0.75869 0.0
C1200 C 0.24941 0.74299 0.78084 0.0
C1201 C 0.23406 0.73754 0.79924 0.0
C1202 C 0.29325 0.75817 0.69836 0.0
C1203 C 0.29801 0.77516 0.69955 0.0
C1204 C 0.27796 0.7529 0.71715 0.0
C1205 C 0.26703 0.76444 0.73814 0.0
C1206 C 0.27175 0.78148 0.73899 0.0
C1207 C 0.28701 0.78679 0.71972 0.0
H1208 H 0.49724 0.96668 0.06818 0.0
H1209 H 0.54858 0.97818 0.03261 0.0
H1210 H 0.48835 0.99372 0.03826 0.0
H1211 H 0.53962 1.00503 1.0007 0.0
H1212 H 0.52095 0.05854 0.98675 0.0
H1213 H 0.52975 0.03185 0.01889 0.0
H1214 H 0.48386 1.00902 0.97023 0.0
H1215 H 0.47474 0.03607 0.93974 0.0
C1216 C 0.50665 0.97497 0.05376 0.0
C1217 C 0.52365 0.97025 0.05289 0.0
C1218 C 0.50151 0.99048 0.03615 0.0
C1219 C 0.51319 1.00165 0.01662 0.0
C1220 C 0.53024 0.99694 0.01603 0.0
C1221 C 0.53542 0.98148 0.0342 0.0
C1222 C 0.51271 0.04783 0.98284 0.0
C1223 C 0.49712 0.04947 0.96057 0.0
C1224 C 0.51783 0.03243 1.00109 0.0
C1225 C 0.50761 0.01813 0.99716 0.0
C1226 C 0.492 0.01977 0.97469 0.0
C1227 C 0.48678 0.03527 0.95688 0.0
H1228 H 0.22034 0.27374 0.18251 0.0
H1229 H 0.22971 0.22265 0.22474 0.0
H1230 H 0.24693 0.28237 0.21574 0.0
H1231 H 0.25613 0.23139 0.25976 0.0
H1232 H 0.31008 0.24936 0.27647 0.0
H1233 H 0.28357 0.24051 0.2434 0.0
H1234 H 0.26094 0.28723 0.28597 0.0
H1235 H 0.2878 0.29638 0.31757 0.0
C1236 C 0.22806 0.26433 0.19909 0.0
C1237 C 0.22288 0.24747 0.20084 0.0
C1238 C 0.24329 0.26933 0.2186 0.0
C1239 C 0.25374 0.25765 0.24088 0.0
C1240 C 0.24858 0.24074 0.2424 0.0
C1241 C 0.23338 0.2357 0.22242 0.0
C1242 C 0.29945 0.25777 0.27897 0.0
C1243 C 0.30112 0.27362 0.29972 0.0
C1244 C 0.28416 0.25261 0.26016 0.0
C1245 C 0.26999 0.26309 0.26189 0.0
C1246 C 0.27161 0.2789 0.2832 0.0
C1247 C 0.287 0.28413 0.30166 0.0
H1248 H 0.80896 0.27092 0.73167 0.0
H1249 H 0.78691 0.22404 0.68845 0.0
H1250 H 0.78227 0.27963 0.76398 0.0
H1251 H 0.75987 0.23305 0.71918 0.0
H1252 H 0.71813 0.2465 0.81902 0.0
H1253 H 0.74506 0.23782 0.788 0.0
H1254 H 0.75511 0.2889 0.7461 0.0
H1255 H 0.72835 0.29767 0.77903 0.0
C1256 C 0.79835 0.26251 0.72862 0.0
C1257 C 0.80011 0.24675 0.70739 0.0
C1258 C 0.78295 0.26758 0.74696 0.0
C1259 C 0.76877 0.25712 0.74423 0.0
C1260 C 0.77052 0.24137 0.72271 0.0
C1261 C 0.78602 0.23621 0.70477 0.0
C1262 C 0.72611 0.25592 0.80337 0.0
C1263 C 0.72106 0.27281 0.80161 0.0
C1264 C 0.74155 0.25089 0.78514 0.0
C1265 C 0.75234 0.26259 0.76411 0.0
C1266 C 0.7473 0.27953 0.76257 0.0
C1267 C 0.73191 0.28459 0.78132 0.0
H1268 H 0.73429 0.79567 0.18676 0.0
H1269 H 0.71125 0.74905 0.22876 0.0
H1270 H 0.76093 0.78629 0.21924 0.0
H1271 H 0.73753 0.73997 0.26272 0.0
H1272 H 0.79116 0.7214 0.28191 0.0
H1273 H 0.76481 0.73041 0.24706 0.0
H1274 H 0.77487 0.78137 0.28949 0.0
H1275 H 0.80141 0.77245 0.32252 0.0
C1276 C 0.73488 0.78347 0.20308 0.0
C1277 C 0.72062 0.77313 0.20495 0.0
C1278 C 0.75014 0.77809 0.22205 0.0
C1279 C 0.75149 0.76233 0.24384 0.0
C1280 C 0.73717 0.75204 0.2456 0.0
C1281 C 0.722 0.75732 0.22626 0.0
C1282 C 0.78769 0.7345 0.28398 0.0
C1283 C 0.79843 0.74618 0.30498 0.0
C1284 C 0.77253 0.7397 0.26409 0.0
C1285 C 0.76764 0.75669 0.26512 0.0
C1286 C 0.7783 0.76827 0.28698 0.0
C1287 C 0.7935 0.76311 0.30639 0.0
H1288 H 0.73578 0.22408 0.31893 0.0
H1289 H 0.71285 0.27036 0.27407 0.0
H1290 H 0.76259 0.23342 0.28721 0.0
H1291 H 0.73928 0.27937 0.24078 0.0
H1292 H 0.79281 0.29828 0.22309 0.0
H1293 H 0.76631 0.28922 0.25711 0.0
H1294 H 0.77716 0.23808 0.21796 0.0
H1295 H 0.80385 0.24706 0.18586 0.0
C1296 C 0.73643 0.23619 0.30209 0.0
C1297 C 0.72215 0.24647 0.29927 0.0
C1298 C 0.75179 0.24154 0.28356 0.0
C1299 C 0.75322 0.25721 0.26123 0.0
C1300 C 0.73887 0.2674 0.25839 0.0
C1301 C 0.72361 0.26215 0.27733 0.0
C1302 C 0.78948 0.28512 0.22158 0.0
C1303 C 0.80049 0.27342 0.20177 0.0
C1304 C 0.77423 0.27989 0.24099 0.0
C1305 C 0.7695 0.26285 0.24059 0.0
C1306 C 0.78044 0.25123 0.21996 0.0
C1307 C 0.79573 0.25643 0.20108 0.0
H1308 H 0.73346 0.72524 0.68665 0.0
H1309 H 0.71194 0.77277 0.72636 0.0
H1310 H 0.76055 0.7342 0.71715 0.0
H1311 H 0.73869 0.78145 0.75836 0.0
H1312 H 0.79288 0.79871 0.7745 0.0
H1313 H 0.76621 0.79011 0.74059 0.0
H1314 H 0.77488 0.73928 0.78672 0.0
H1315 H 0.8017 0.74775 0.81882 0.0
C1316 C 0.73448 0.73755 0.70208 0.0
C1317 C 0.72051 0.74826 0.70391 0.0
C1318 C 0.75 0.74268 0.71989 0.0
C1319 C 0.7519 0.75859 0.74043 0.0
C1320 C 0.73788 0.76926 0.74215 0.0
C1321 C 0.72245 0.7642 0.72399 0.0
C1322 C 0.78905 0.78572 0.77746 0.0
C1323 C 0.79946 0.77394 0.79932 0.0
C1324 C 0.7737 0.78077 0.75815 0.0
C1325 C 0.76832 0.76394 0.76064 0.0
C1326 C 0.77869 0.75225 0.78313 0.0
C1327 C 0.79406 0.75716 0.80197 0.0
H1328 H 0.54857 0.54229 0.52862 0.0
H1329 H 0.49768 0.55168 0.57268 0.0
H1330 H 0.5396 0.51597 0.49362 0.0
H1331 H 0.48883 0.52518 0.53945 0.0
H1332 H 0.47429 0.48468 0.43698 0.0
H1333 H 0.4836 0.51138 0.46911 0.0
H1334 H 0.53049 0.48852 0.50971 0.0
H1335 H 0.52146 0.46218 0.47612 0.0
C1336 C 0.53552 0.53864 0.53137 0.0
C1337 C 0.52387 0.54913 0.55343 0.0
C1338 C 0.53035 0.52349 0.51139 0.0
C1339 C 0.51342 0.51837 0.51339 0.0
C1340 C 0.50187 0.52879 0.53621 0.0
C1341 C 0.507 0.54397 0.55572 0.0
C1342 C 0.4866 0.4854 0.45259 0.0
C1343 C 0.49711 0.47127 0.45379 0.0
C1344 C 0.49194 0.5007 0.47135 0.0
C1345 C 0.50784 0.5022 0.49223 0.0
C1346 C 0.51831 0.48802 0.49328 0.0
C1347 C 0.51305 0.47282 0.47418 0.0
H1348 H 0.97288 0.47888 0.0348 0.0
H1349 H 0.02443 0.46874 0.07085 0.0
H1350 H 0.98132 0.50586 0.00215 0.0
H1351 H 0.03278 0.49581 0.04008 0.0
H1352 H 0.04593 0.53733 0.93925 0.0
H1353 H 0.03691 0.51038 0.97055 0.0
H1354 H 0.99093 0.53312 0.01872 0.0
H1355 H 0.99965 0.55977 0.98589 0.0
C1356 C 0.98597 0.48252 0.03641 0.0
C1357 C 0.99797 0.4716 0.05531 0.0
C1358 C 0.99083 0.49802 0.01774 0.0
C1359 C 1.00781 0.50307 0.01799 0.0
C1360 C 0.01968 0.49227 0.0381 0.0
C1361 C 0.01485 0.47675 0.05623 0.0
C1362 C 0.03388 0.53655 0.9564 0.0
C1363 C 0.02353 0.55074 0.9599 0.0
C1364 C 0.02872 0.52109 0.97469 0.0
C1365 C 0.01316 0.51947 0.99746 0.0
C1366 C 1.00285 0.53371 1.00085 0.0
C1367 C 1.00792 0.54909 0.98219 0.0
H1368 H 0.49616 0.46741 0.933 0.0
H1369 H 0.54707 0.477 0.97636 0.0
H1370 H 0.48744 0.49428 0.96424 0.0
H1371 H 0.53825 0.50364 0.00958 0.0
H1372 H 0.52087 0.55744 0.02569 0.0
H1373 H 0.52947 0.53092 0.99242 0.0
H1374 H 0.48211 0.50889 0.0328 0.0
H1375 H 0.47321 0.53583 0.0644 0.0
C1376 C 0.50551 0.47524 0.94943 0.0
C1377 C 0.52234 0.47004 0.95207 0.0
C1378 C 0.50046 0.49064 0.96779 0.0
C1379 C 0.51206 0.50122 0.98985 0.0
C1380 C 0.52895 0.49602 0.99228 0.0
C1381 C 0.53404 0.48068 0.97336 0.0
C1382 C 0.51226 0.54694 0.02754 0.0
C1383 C 0.49633 0.54878 0.04783 0.0
C1384 C 0.51727 0.53163 0.00865 0.0
C1385 C 0.50658 0.5176 0.00995 0.0
C1386 C 0.49063 0.51944 0.0304 0.0
C1387 C 0.48552 0.53487 0.04883 0.0
H1388 H 0.99882 0.46941 0.56316 0.0
H1389 H 0.05006 0.47984 0.524 0.0
H1390 H 0.99012 0.49633 0.53229 0.0
H1391 H 0.04123 0.50666 0.49129 0.0
H1392 H 0.02267 0.56063 0.47928 0.0
H1393 H 0.03171 0.53378 0.50998 0.0
H1394 H 0.98545 0.51119 0.4633 0.0
H1395 H 0.97611 0.53834 0.43409 0.0
C1396 C 1.00825 0.47744 0.54771 0.0
C1397 C 0.02517 0.47244 0.54613 0.0
C1398 C 1.00321 0.49287 0.52956 0.0
C1399 C 0.01489 0.50373 0.50882 0.0
C1400 C 0.03187 0.49877 0.50747 0.0
C1401 C 0.03696 0.48335 0.52611 0.0
C1402 C 0.0144 0.54993 0.47541 0.0
C1403 C 0.99862 0.55168 0.45421 0.0
C1404 C 0.01967 0.53445 0.49284 0.0
C1405 C 1.00937 0.5202 0.48924 0.0
C1406 C 0.99364 0.52191 0.4675 0.0
C1407 C 0.98829 0.53747 0.45043 0.0
H1408 H 0.07637 0.14125 0.07487 0.0
H1409 H 0.10704 0.10216 0.13432 0.0
H1410 H 0.09873 0.16151 0.08839 0.0
H1411 H 0.12949 0.12253 0.14764 0.0
H1412 H 0.17058 0.16409 0.11867 0.0
H1413 H 0.14975 0.14206 0.1051 0.0
H1414 H 0.11109 0.17404 0.16074 0.0
H1415 H 0.13179 0.19597 0.17451 0.0
C1416 C 0.08797 0.1369 0.09015 0.0
C1417 C 0.08987 0.12007 0.10363 0.0
C1418 C 0.10073 0.14856 0.09831 0.0
C1419 C 0.11577 0.14367 0.11972 0.0
C1420 C 0.11804 0.12668 0.13112 0.0
C1421 C 0.10517 0.11502 0.12344 0.0
C1422 C 0.15768 0.16631 0.12869 0.0
C1423 C 0.15285 0.18183 0.14758 0.0
C1424 C 0.14576 0.1537 0.12086 0.0
C1425 C 0.12875 0.15642 0.13119 0.0
C1426 C 0.12406 0.17168 0.15164 0.0
C1427 C 0.13597 0.18419 0.15996 0.0
H1428 H 0.1655 0.85009 0.42498 0.0
H1429 H 0.14173 0.83835 0.29522 0.0
H1430 H 0.14573 0.87318 0.43648 0.0
H1431 H 0.1223 0.86185 0.30626 0.0
H1432 H 0.102 0.9164 0.32998 0.0
H1433 H 0.12477 0.89625 0.31871 0.0
H1434 H 0.11113 0.87136 0.44535 0.0
H1435 H 0.08794 0.89118 0.45608 0.0
C1436 C 0.15632 0.85267 0.39839 0.0
C1437 C 0.15519 0.8424 0.35911 0.0
C1438 C 0.14496 0.86582 0.4052 0.0
C1439 C 0.13251 0.86923 0.37232 0.0
C1440 C 0.13185 0.85949 0.33202 0.0
C1441 C 0.14296 0.84607 0.32572 0.0
C1442 C 0.10401 0.90681 0.35586 0.0
C1443 C 0.09318 0.9054 0.39401 0.0
C1444 C 0.11697 0.89523 0.34917 0.0
C1445 C 0.11965 0.88227 0.38109 0.0
C1446 C 0.10935 0.8813 0.42035 0.0
C1447 C 0.09611 0.89263 0.42647 0.0
H1448 H 0.3539 0.85256 0.58198 0.0
H1449 H 0.37939 0.83858 0.7076 0.0
H1450 H 0.37416 0.87522 0.56985 0.0
H1451 H 0.39932 0.86168 0.69603 0.0
H1452 H 0.42011 0.91649 0.67384 0.0
H1453 H 0.3972 0.89653 0.68628 0.0
H1454 H 0.40885 0.87251 0.55716 0.0
H1455 H 0.43219 0.89212 0.54522 0.0
C1456 C 0.36358 0.85456 0.60758 0.0
C1457 C 0.36502 0.84379 0.64586 0.0
C1458 C 0.37522 0.86745 0.60038 0.0
C1459 C 0.38828 0.87013 0.63194 0.0
C1460 C 0.38931 0.85989 0.6713 0.0
C1461 C 0.37791 0.8467 0.67792 0.0
C1462 C 0.41764 0.90712 0.6477 0.0
C1463 C 0.42794 0.9059 0.60844 0.0
C1464 C 0.4046 0.89565 0.65505 0.0
C1465 C 0.40132 0.883 0.62274 0.0
C1466 C 0.41111 0.88221 0.58249 0.0
C1467 C 0.42443 0.89342 0.57567 0.0
H1468 H 0.44474 0.13918 0.92989 0.0
H1469 H 0.41352 0.10031 0.87167 0.0
H1470 H 0.42276 0.15974 0.91511 0.0
H1471 H 0.39142 0.12099 0.85726 0.0
H1472 H 0.35117 0.16371 0.88539 0.0
H1473 H 0.37151 0.1413 0.89994 0.0
H1474 H 0.41071 0.17188 0.84093 0.0
H1475 H 0.3905 0.19417 0.82601 0.0
C1476 C 0.43309 0.13494 0.91465 0.0
C1477 C 0.43093 0.11808 0.90186 0.0
C1478 C 0.42055 0.14677 0.90578 0.0
C1479 C 0.40546 0.14202 0.88441 0.0
C1480 C 0.40292 0.12502 0.87371 0.0
C1481 C 0.41558 0.11319 0.88203 0.0
C1482 C 0.36407 0.16554 0.87481 0.0
C1483 C 0.3692 0.18077 0.85461 0.0
C1484 C 0.37571 0.15271 0.88321 0.0
C1485 C 0.39274 0.15494 0.87221 0.0
C1486 C 0.39772 0.16991 0.85049 0.0
C1487 C 0.38609 0.18262 0.84155 0.0
H1488 H 0.89159 0.81998 0.87357 0.0
H1489 H 0.85486 0.8578 0.8412 0.0
H1490 H 0.91221 0.84141 0.88912 0.0
H1491 H 0.87599 0.87962 0.85188 0.0
H1492 H 0.91332 0.91728 0.90863 0.0
H1493 H 0.89179 0.89585 0.8979 0.0
H1494 H 0.93061 0.85987 0.86411 0.0
H1495 H 0.95173 0.8808 0.87971 0.0
C1496 C 0.88812 0.83298 0.86834 0.0
C1497 C 0.8717 0.83723 0.85569 0.0
C1498 C 0.90003 0.84542 0.87699 0.0
C1499 C 0.89611 0.86256 0.87144 0.0
C1500 C 0.87963 0.86672 0.85763 0.0
C1501 C 0.86749 0.85421 0.85073 0.0
C1502 C 0.91711 0.90464 0.89984 0.0
C1503 C 0.93417 0.90059 0.89587 0.0
C1504 C 0.90476 0.89233 0.89292 0.0
C1505 C 0.90919 0.87582 0.88007 0.0
C1506 C 0.9264 0.87207 0.87549 0.0
C1507 C 0.93866 0.88416 0.88417 0.0
H1508 H 0.91306 0.09994 0.63378 0.0
H1509 H 0.94449 0.139 0.57696 0.0
H1510 H 0.89087 0.12056 0.64779 0.0
H1511 H 0.92242 0.15949 0.59127 0.0
H1512 H 0.88961 0.19379 0.67875 0.0
H1513 H 0.90998 0.1716 0.66454 0.0
H1514 H 0.8711 0.14079 0.60514 0.0
H1515 H 0.85062 0.16309 0.61906 0.0
C1516 C 0.91515 0.11285 0.62364 0.0
C1517 C 0.93058 0.11781 0.60432 0.0
C1518 C 0.90245 0.12465 0.63173 0.0
C1519 C 0.90501 0.14168 0.62128 0.0
C1520 C 0.92019 0.1465 0.60043 0.0
C1521 C 0.93278 0.13471 0.59182 0.0
C1522 C 0.88531 0.18221 0.66328 0.0
C1523 C 0.86847 0.18026 0.64993 0.0
C1524 C 0.89703 0.16955 0.65473 0.0
C1525 C 0.89219 0.15455 0.6331 0.0
C1526 C 0.8752 0.15222 0.62182 0.0
C1527 C 0.86348 0.16499 0.62985 0.0
H1528 H 0.6426 0.18237 0.29721 0.0
H1529 H 0.66734 0.16925 0.42465 0.0
H1530 H 0.62259 0.15938 0.30909 0.0
H1531 H 0.64698 0.14669 0.43706 0.0
H1532 H 0.58879 0.13011 0.46007 0.0
H1533 H 0.61231 0.14951 0.44821 0.0
H1534 H 0.62448 0.12469 0.32061 0.0
H1535 H 0.60138 0.10495 0.33299 0.0
C1536 C 0.6439 0.17446 0.32737 0.0
C1537 C 0.6566 0.17758 0.35984 0.0
C1538 C 0.63246 0.16133 0.33415 0.0
C1539 C 0.63324 0.15136 0.3741 0.0
C1540 C 0.64611 0.15424 0.40607 0.0
C1541 C 0.65781 0.16708 0.39873 0.0
C1542 C 0.59669 0.12859 0.42999 0.0
C1543 C 0.59327 0.11595 0.39761 0.0
C1544 C 0.61012 0.13968 0.42322 0.0
C1545 C 0.62011 0.1386 0.3834 0.0
C1546 C 0.61693 0.12578 0.35151 0.0
C1547 C 0.60378 0.11444 0.35883 0.0
H1548 H 0.58846 0.89033 0.04438 0.0
H1549 H 0.60082 0.91522 0.17203 0.0
H1550 H 0.61203 0.87101 0.05598 0.0
H1551 H 0.62398 0.89557 0.18413 0.0
H1552 H 0.64202 0.83796 0.20714 0.0
H1553 H 0.62219 0.86109 0.19548 0.0
H1554 H 0.6465 0.87355 0.06711 0.0
H1555 H 0.66667 0.85083 0.07929 0.0
C1556 C 0.59633 0.89182 0.07452 0.0
C1557 C 0.59281 0.90434 0.10717 0.0
C1558 C 0.60979 0.88078 0.08114 0.0
C1559 C 0.61973 0.8818 0.12105 0.0
C1560 C 0.61646 0.89452 0.15316 0.0
C1561 C 0.60328 0.90581 0.14601 0.0
C1562 C 0.64335 0.84586 0.17695 0.0
C1563 C 0.65595 0.84262 0.14427 0.0
C1564 C 0.63201 0.85907 0.17029 0.0
C1565 C 0.63281 0.86901 0.13029 0.0
C1566 C 0.64562 0.86603 0.09815 0.0
C1567 C 0.65721 0.8531 0.10535 0.0
H1568 H 0.57593 0.64006 0.57855 0.0
H1569 H 0.60778 0.60096 0.63304 0.0
H1570 H 0.59805 0.66058 0.59218 0.0
H1571 H 0.63001 0.62161 0.64637 0.0
H1572 H 0.66996 0.66442 0.61654 0.0
H1573 H 0.64947 0.64206 0.60313 0.0
H1574 H 0.61086 0.67247 0.66529 0.0
H1575 H 0.63123 0.69471 0.679 0.0
C1576 C 0.58774 0.63577 0.59274 0.0
C1577 C 0.59005 0.61885 0.60482 0.0
C1578 C 0.60036 0.64758 0.60097 0.0
C1579 C 0.61567 0.64275 0.62098 0.0
C1580 C 0.61833 0.6257 0.63096 0.0
C1581 C 0.6056 0.61388 0.62326 0.0
C1582 C 0.65716 0.66622 0.62805 0.0
C1583 C 0.65224 0.68139 0.64875 0.0
C1584 C 0.64544 0.65341 0.6203 0.0
C1585 C 0.62851 0.65562 0.63251 0.0
C1586 C 0.62376 0.67052 0.65477 0.0
C1587 C 0.63548 0.68321 0.66303 0.0
H1588 H 0.57526 0.37957 0.9279 0.0
H1589 H 0.60606 0.4188 0.86937 0.0
H1590 H 0.59753 0.3593 0.91365 0.0
H1591 H 0.62845 0.3984 0.85543 0.0
H1592 H 0.6692 0.35624 0.88431 0.0
H1593 H 0.64858 0.37842 0.89827 0.0
H1594 H 0.60979 0.34722 0.83997 0.0
H1595 H 0.63029 0.32515 0.82572 0.0
C1596 C 0.58688 0.38394 0.91268 0.0
C1597 C 0.58883 0.40082 0.89965 0.0
C1598 C 0.59958 0.37228 0.90412 0.0
C1599 C 0.61464 0.37721 0.88279 0.0
C1600 C 0.61698 0.39423 0.87186 0.0
C1601 C 0.60415 0.4059 0.8799 0.0
C1602 C 0.65633 0.35423 0.87377 0.0
C1603 C 0.6514 0.33889 0.854 0.0
C1604 C 0.64453 0.36693 0.88182 0.0
C1605 C 0.62753 0.36445 0.87087 0.0
C1606 C 0.62275 0.34938 0.84952 0.0
C1607 C 0.63455 0.33679 0.84095 0.0
H1608 H 0.85553 0.35041 0.0797 0.0
H1609 H 0.88102 0.33769 0.20632 0.0
H1610 H 0.87551 0.37325 0.06654 0.0
H1611 H 0.90066 0.36094 0.19369 0.0
H1612 H 0.92147 0.41513 0.17041 0.0
H1613 H 0.89854 0.39526 0.18302 0.0
H1614 H 0.90986 0.37132 0.05356 0.0
H1615 H 0.93322 0.39088 0.04138 0.0
C1616 C 0.86515 0.35273 0.10527 0.0
C1617 C 0.86668 0.34226 0.14415 0.0
C1618 C 0.87663 0.36572 0.0975 0.0
C1619 C 0.88961 0.3688 0.12903 0.0
C1620 C 0.8907 0.35885 0.16896 0.0
C1621 C 0.87948 0.34557 0.17617 0.0
C1622 C 0.91891 0.40583 0.14418 0.0
C1623 C 0.92916 0.4046 0.1048 0.0
C1624 C 0.90586 0.3944 0.15164 0.0
C1625 C 0.9025 0.38177 0.11935 0.0
C1626 C 0.91217 0.38101 0.07888 0.0
C1627 C 0.92552 0.3922 0.07192 0.0
H1628 H 0.93245 0.62976 0.46033 0.0
H1629 H 0.92118 0.60584 0.33053 0.0
H1630 H 0.90891 0.64909 0.44849 0.0
H1631 H 0.89805 0.62551 0.31824 0.0
H1632 H 0.87988 0.68326 0.29786 0.0
H1633 H 0.89984 0.66023 0.30932 0.0
H1634 H 0.87444 0.64632 0.43496 0.0
H1635 H 0.85416 0.66894 0.42293 0.0
C1636 C 0.92483 0.62848 0.42965 0.0
C1637 C 0.92864 0.61623 0.3965 0.0
C1638 C 0.91138 0.63953 0.42289 0.0
C1639 C 0.90176 0.6388 0.38235 0.0
C1640 C 0.90532 0.62634 0.3497 0.0
C1641 C 0.91848 0.61503 0.35696 0.0
C1642 C 0.87835 0.67508 0.32739 0.0
C1643 C 0.8654 0.67788 0.35934 0.0
C1644 C 0.88976 0.66192 0.33394 0.0
C1645 C 0.88868 0.65159 0.37314 0.0
C1646 C 0.87555 0.65415 0.40455 0.0
C1647 C 0.8639 0.66702 0.39743 0.0
H1648 H 0.35505 0.35113 0.4237 0.0
H1649 H 0.37963 0.33902 0.29532 0.0
H1650 H 0.3748 0.37422 0.43567 0.0
H1651 H 0.39905 0.36252 0.3068 0.0
H1652 H 0.41932 0.41712 0.33038 0.0
H1653 H 0.39656 0.39697 0.31847 0.0
H1654 H 0.40934 0.37238 0.44617 0.0
H1655 H 0.4325 0.3922 0.45756 0.0
C1656 C 0.3644 0.35363 0.39749 0.0
C1657 C 0.36576 0.34326 0.35847 0.0
C1658 C 0.37575 0.36678 0.40458 0.0
C1659 C 0.38842 0.37009 0.37223 0.0
C1660 C 0.38932 0.36025 0.33215 0.0
C1661 C 0.37823 0.34682 0.3256 0.0
C1662 C 0.41712 0.4076 0.35636 0.0
C1663 C 0.4277 0.40627 0.39501 0.0
C1664 C 0.40417 0.39602 0.3493 0.0
C1665 C 0.40126 0.38314 0.38133 0.0
C1666 C 0.4113 0.38226 0.42107 0.0
C1667 C 0.42453 0.39359 0.42758 0.0
H1668 H 0.39132 0.70144 0.13109 0.0
H1669 H 0.35448 0.66375 0.16424 0.0
H1670 H 0.41178 0.67992 0.1149 0.0
H1671 H 0.37547 0.64185 0.15293 0.0
H1672 H 0.41237 0.604 0.09559 0.0
H1673 H 0.39102 0.62556 0.10655 0.0
H1674 H 0.43017 0.66136 0.13919 0.0
H1675 H 0.45111 0.64029 0.12338 0.0
C1676 C 0.38779 0.68845 0.13635 0.0
C1677 C 0.37139 0.68426 0.14941 0.0
C1678 C 0.39962 0.67596 0.12733 0.0
C1679 C 0.39562 0.65883 0.13289 0.0
C1680 C 0.37916 0.65473 0.14713 0.0
C1681 C 0.36711 0.66729 0.1544 0.0
C1682 C 0.41627 0.61663 0.10415 0.0
C1683 C 0.43337 0.62057 0.10778 0.0
C1684 C 0.40403 0.62902 0.11121 0.0
C1685 C 0.40859 0.64551 0.12389 0.0
C1686 C 0.42585 0.64918 0.128 0.0
C1687 C 0.438 0.637 0.11919 0.0
H1688 H 0.08847 0.62955 0.96045 0.0
H1689 H 0.10062 0.60489 0.83231 0.0
H1690 H 0.1118 0.64913 0.94828 0.0
H1691 H 0.12355 0.6248 0.81964 0.0
H1692 H 0.14122 0.6824 0.79591 0.0
H1693 H 0.12163 0.65908 0.8081 0.0
H1694 H 0.14609 0.64722 0.93658 0.0
H1695 H 0.16602 0.67013 0.92389 0.0
C1696 C 0.09625 0.62816 0.93007 0.0
C1697 C 0.09274 0.61562 0.89747 0.0
C1698 C 0.10958 0.63936 0.92312 0.0
C1699 C 0.11939 0.63849 0.88291 0.0
C1700 C 0.11613 0.62575 0.85083 0.0
C1701 C 0.10309 0.6143 0.85831 0.0
C1702 C 0.14263 0.6746 0.82626 0.0
C1703 C 0.15521 0.67807 0.85881 0.0
C1704 C 0.13143 0.66127 0.83322 0.0
C1705 C 0.13233 0.65144 0.87339 0.0
C1706 C 0.14512 0.65465 0.90542 0.0
C1707 C 0.15657 0.66769 0.89793 0.0
H1708 H 0.10807 0.42002 0.6278 0.0
H1709 H 0.07672 0.38102 0.57084 0.0
H1710 H 0.13021 0.39943 0.6421 0.0
H1711 H 0.0988 0.36052 0.5853 0.0
H1712 H 0.1317 0.32607 0.67236 0.0
H1713 H 0.11118 0.34808 0.65752 0.0
H1714 H 0.15016 0.37958 0.60097 0.0
H1715 H 0.17079 0.35749 0.61566 0.0
C1716 C 0.10599 0.40713 0.61767 0.0
C1717 C 0.09059 0.40218 0.59825 0.0
C1718 C 0.11868 0.39533 0.62592 0.0
C1719 C 0.11616 0.37831 0.61547 0.0
C1720 C 0.10101 0.3735 0.59449 0.0
C1721 C 0.08842 0.38529 0.58577 0.0
C1722 C 0.13598 0.33777 0.65739 0.0
C1723 C 0.15291 0.33998 0.64512 0.0
C1724 C 0.12417 0.35032 0.64844 0.0
C1725 C 0.129 0.36547 0.62744 0.0
C1726 C 0.14605 0.36804 0.61716 0.0
C1727 C 0.15786 0.35538 0.62564 0.0
loop_
_geom_bond_atom_site_label_1
_geom_bond_atom_site_label_2
_geom_bond_distance
_geom_bond_site_symmetry_2
_ccdc_geom_bond_type
O0 Cd1 2.223 . S
O0 C8 1.315 . S
Cd1 O0 2.223 . S
Cd1 O4 2.297 . S
Cd1 O5 2.439 . S
Cd1 O11 2.240 . S
Cd2 O3 2.240 . S
Cd2 O10 2.223 . S
Cd2 O12 2.299 1_454 S
Cd2 O13 2.439 1_554 S
O3 Cd2 2.240 . S
O3 C8 1.279 . S
O4 Cd1 2.297 . S
O4 C6 1.247 . S
O5 Cd1 2.439 . S
O5 C6 1.208 . S
C6 O4 1.247 . S
C6 O5 1.208 . S
C7 O12 1.254 1_455 S
C7 O13 1.208 . S
C8 O0 1.315 . S
C8 O3 1.279 . S
C9 O10 1.315 . S
C9 O11 1.279 . S
O10 Cd2 2.223 . S
O10 C9 1.315 . S
O11 Cd1 2.240 . S
O11 C9 1.279 . S
O12 Cd2 2.299 1_656 S
O12 C7 1.254 1_655 S
O13 Cd2 2.439 1_556 S
O13 C7 1.208 . S
O14 Cd15 2.223 . S
O14 C22 1.315 . S
Cd15 O14 2.223 . S
Cd15 O18 2.297 . S
Cd15 O19 2.439 . S
Cd15 O25 2.240 . S
Cd16 O17 2.240 . S
Cd16 O24 2.223 . S
Cd16 O26 2.297 . S
Cd16 O27 2.439 . S
O17 Cd16 2.240 . S
O17 C22 1.279 . S
O18 Cd15 2.297 . S
O18 C20 1.247 . S
O19 Cd15 2.439 . S
O19 C20 1.208 . S
C20 O18 1.247 . S
C20 O19 1.208 . S
C21 O26 1.247 . S
C21 O27 1.208 . S
C22 O14 1.315 . S
C22 O17 1.279 . S
C23 O24 1.315 . S
C23 O25 1.279 . S
O24 Cd16 2.223 . S
O24 C23 1.315 . S
O25 Cd15 2.240 . S
O25 C23 1.279 . S
O26 Cd16 2.297 . S
O26 C21 1.247 . S
O27 Cd16 2.439 . S
O27 C21 1.208 . S
O28 Cd29 2.223 . S
O28 C36 1.315 . S
Cd29 O28 2.223 . S
Cd29 O32 2.297 . S
Cd29 O33 2.439 . S
Cd29 O39 2.240 . S
Cd30 O31 2.240 . S
Cd30 O38 2.223 . S
Cd30 O40 2.297 . S
Cd30 O41 2.439 . S
O31 Cd30 2.240 . S
O31 C36 1.279 . S
O32 Cd29 2.297 . S
O32 C34 1.247 . S
O33 Cd29 2.439 . S
O33 C34 1.208 . S
C34 O32 1.247 . S
C34 O33 1.208 . S
C35 O40 1.247 . S
C35 O41 1.208 . S
C36 O28 1.315 . S
C36 O31 1.279 . S
C37 O38 1.315 . S
C37 O39 1.279 . S
O38 Cd30 2.223 . S
O38 C37 1.315 . S
O39 Cd29 2.240 . S
O39 C37 1.279 . S
O40 Cd30 2.297 . S
O40 C35 1.247 . S
O41 Cd30 2.439 . S
O41 C35 1.208 . S
O42 Cd43 2.223 . S
O42 C50 1.315 . S
Cd43 O42 2.223 . S
Cd43 O46 2.297 . S
Cd43 O47 2.439 . S
Cd43 O53 2.240 . S
Cd44 O45 2.240 . S
Cd44 O52 2.223 . S
Cd44 O54 2.297 . S
Cd44 O55 2.439 . S
O45 Cd44 2.240 . S
O45 C50 1.279 . S
O46 Cd43 2.297 . S
O46 C48 1.247 . S
O47 Cd43 2.439 . S
O47 C48 1.208 . S
C48 O46 1.247 . S
C48 O47 1.208 . S
C49 O54 1.247 . S
C49 O55 1.208 . S
C50 O42 1.315 . S
C50 O45 1.279 . S
C51 O52 1.315 . S
C51 O53 1.279 . S
O52 Cd44 2.223 . S
O52 C51 1.315 . S
O53 Cd43 2.240 . S
O53 C51 1.279 . S
O54 Cd44 2.297 . S
O54 C49 1.247 . S
O55 Cd44 2.439 . S
O55 C49 1.208 . S
O56 Cd57 2.223 . S
O56 C64 1.315 . S
Cd57 O56 2.223 . S
Cd57 O60 2.297 . S
Cd57 O61 2.439 . S
Cd57 O67 2.240 . S
Cd58 O59 2.240 . S
Cd58 O66 2.223 . S
Cd58 O68 2.296 . S
Cd58 O69 2.439 . S
O59 Cd58 2.240 . S
O59 C64 1.279 . S
O60 Cd57 2.297 . S
O60 C62 1.247 . S
O61 Cd57 2.439 . S
O61 C62 1.208 . S
C62 O60 1.247 . S
C62 O61 1.208 . S
C63 O68 1.241 . S
C63 O69 1.208 . S
C64 O56 1.315 . S
C64 O59 1.279 . S
C65 O66 1.315 . S
C65 O67 1.279 . S
O66 Cd58 2.223 . S
O66 C65 1.315 . S
O67 Cd57 2.240 . S
O67 C65 1.279 . S
O68 Cd58 2.296 . S
O68 C63 1.241 . S
O69 Cd58 2.439 . S
O69 C63 1.208 . S
O70 Cd71 2.223 . S
O70 C78 1.315 . S
Cd71 O70 2.223 . S
Cd71 O74 2.297 . S
Cd71 O75 2.439 . S
Cd71 O81 2.240 . S
Cd72 O73 2.240 . S
Cd72 O80 2.223 . S
Cd72 O82 2.297 . S
Cd72 O83 2.439 . S
O73 Cd72 2.240 . S
O73 C78 1.279 . S
O74 Cd71 2.297 . S
O74 C76 1.247 . S
O75 Cd71 2.439 . S
O75 C76 1.208 . S
C76 O74 1.247 . S
C76 O75 1.208 . S
C77 O82 1.247 . S
C77 O83 1.208 . S
C78 O70 1.315 . S
C78 O73 1.279 . S
C79 O80 1.315 . S
C79 O81 1.279 . S
O80 Cd72 2.223 . S
O80 C79 1.315 . S
O81 Cd71 2.240 . S
O81 C79 1.279 . S
O82 Cd72 2.297 . S
O82 C77 1.247 . S
O83 Cd72 2.439 . S
O83 C77 1.208 . S
O84 Cd85 2.223 . S
O84 C92 1.315 . S
Cd85 O84 2.223 . S
Cd85 O88 2.297 . S
Cd85 O89 2.439 . S
Cd85 O95 2.240 . S
Cd86 O87 2.240 . S
Cd86 O94 2.223 . S
Cd86 O96 2.297 1_556 S
Cd86 O97 2.439 1_556 S
O87 Cd86 2.240 . S
O87 C92 1.279 . S
O88 Cd85 2.297 . S
O88 C90 1.247 . S
O89 Cd85 2.439 . S
O89 C90 1.208 . S
C90 O88 1.247 . S
C90 O89 1.208 . S
C91 O96 1.247 . S
C91 O97 1.208 . S
C92 O84 1.315 . S
C92 O87 1.279 . S
C93 O94 1.315 . S
C93 O95 1.279 . S
O94 Cd86 2.223 . S
O94 C93 1.315 . S
O95 Cd85 2.240 . S
O95 C93 1.279 . S
O96 Cd86 2.297 1_554 S
O96 C91 1.247 . S
O97 Cd86 2.439 1_554 S
O97 C91 1.208 . S
O98 Cd99 2.223 . S
O98 C106 1.315 . S
Cd99 O98 2.223 . S
Cd99 O102 2.297 . S
Cd99 O103 2.439 . S
Cd99 O109 2.240 . S
Cd100 O101 2.240 . S
Cd100 O108 2.223 . S
Cd100 O110 2.297 . S
Cd100 O111 2.439 . S
O101 Cd100 2.240 . S
O101 C106 1.279 . S
O102 Cd99 2.297 . S
O102 C104 1.247 . S
O103 Cd99 2.439 . S
O103 C104 1.208 . S
C104 O102 1.247 . S
C104 O103 1.208 . S
C105 O110 1.247 . S
C105 O111 1.208 . S
C106 O98 1.315 . S
C106 O101 1.279 . S
C107 O108 1.315 . S
C107 O109 1.279 . S
O108 Cd100 2.223 . S
O108 C107 1.315 . S
O109 Cd99 2.240 . S
O109 C107 1.279 . S
O110 Cd100 2.297 . S
O110 C105 1.247 . S
O111 Cd100 2.439 . S
O111 C105 1.208 . S
O112 Cd113 2.223 . S
O112 C120 1.315 . S
Cd113 O112 2.223 . S
Cd113 O116 2.297 . S
Cd113 O117 2.439 . S
Cd113 O123 2.240 . S
Cd114 O115 2.240 . S
Cd114 O122 2.223 . S
Cd114 O124 2.299 1_656 S
Cd114 O125 2.439 1_556 S
O115 Cd114 2.240 . S
O115 C120 1.279 . S
O116 Cd113 2.297 . S
O116 C118 1.247 . S
O117 Cd113 2.439 . S
O117 C118 1.208 . S
C118 O116 1.247 . S
C118 O117 1.208 . S
C119 O124 1.254 1_655 S
C119 O125 1.208 . S
C120 O112 1.315 . S
C120 O115 1.279 . S
C121 O122 1.315 . S
C121 O123 1.279 . S
O122 Cd114 2.223 . S
O122 C121 1.315 . S
O123 Cd113 2.240 . S
O123 C121 1.279 . S
O124 Cd114 2.299 1_454 S
O124 C119 1.254 1_455 S
O125 Cd114 2.439 1_554 S
O125 C119 1.208 . S
O126 Cd127 2.223 . S
O126 C134 1.315 . S
Cd127 O126 2.223 . S
Cd127 O130 2.297 . S
Cd127 O131 2.439 . S
Cd127 O137 2.240 . S
Cd128 O129 2.240 . S
Cd128 O136 2.223 . S
Cd128 O138 2.297 . S
Cd128 O139 2.439 . S
O129 Cd128 2.240 . S
O129 C134 1.279 . S
O130 Cd127 2.297 . S
O130 C132 1.247 . S
O131 Cd127 2.439 . S
O131 C132 1.208 . S
C132 O130 1.247 . S
C132 O131 1.208 . S
C133 O138 1.247 . S
C133 O139 1.208 . S
C134 O126 1.315 . S
C134 O129 1.279 . S
C135 O136 1.315 . S
C135 O137 1.279 . S
O136 Cd128 2.223 . S
O136 C135 1.315 . S
O137 Cd127 2.240 . S
O137 C135 1.279 . S
O138 Cd128 2.297 . S
O138 C133 1.247 . S
O139 Cd128 2.439 . S
O139 C133 1.208 . S
O140 Cd141 2.223 . S
O140 C148 1.315 . S
Cd141 O140 2.223 . S
Cd141 O144 2.297 . S
Cd141 O145 2.439 . S
Cd141 O151 2.240 . S
Cd142 O143 2.240 . S
Cd142 O150 2.223 . S
Cd142 O152 2.297 . S
Cd142 O153 2.439 . S
O143 Cd142 2.240 . S
O143 C148 1.279 . S
O144 Cd141 2.297 . S
O144 C146 1.247 . S
O145 Cd141 2.439 . S
O145 C146 1.208 . S
C146 O144 1.247 . S
C146 O145 1.208 . S
C147 O152 1.247 . S
C147 O153 1.208 . S
C148 O140 1.315 . S
C148 O143 1.279 . S
C149 O150 1.315 . S
C149 O151 1.279 . S
O150 Cd142 2.223 . S
O150 C149 1.315 . S
O151 Cd141 2.240 . S
O151 C149 1.279 . S
O152 Cd142 2.297 . S
O152 C147 1.247 . S
O153 Cd142 2.439 . S
O153 C147 1.208 . S
O154 Cd155 2.223 . S
O154 C162 1.315 . S
Cd155 O154 2.223 . S
Cd155 O158 2.297 . S
Cd155 O159 2.439 . S
Cd155 O165 2.240 . S
Cd156 O157 2.240 . S
Cd156 O164 2.223 . S
Cd156 O166 2.297 . S
Cd156 O167 2.439 . S
O157 Cd156 2.240 . S
O157 C162 1.279 . S
O158 Cd155 2.297 . S
O158 C160 1.247 . S
O159 Cd155 2.439 . S
O159 C160 1.208 . S
C160 O158 1.247 . S
C160 O159 1.208 . S
C161 O166 1.247 . S
C161 O167 1.208 . S
C162 O154 1.315 . S
C162 O157 1.279 . S
C163 O164 1.315 . S
C163 O165 1.279 . S
O164 Cd156 2.223 . S
O164 C163 1.315 . S
O165 Cd155 2.240 . S
O165 C163 1.279 . S
O166 Cd156 2.297 . S
O166 C161 1.247 . S
O167 Cd156 2.439 . S
O167 C161 1.208 . S
O168 Cd169 2.223 . S
O168 C176 1.315 . S
Cd169 O168 2.223 . S
Cd169 O172 2.297 . S
Cd169 O173 2.439 . S
Cd169 O179 2.240 . S
Cd170 O171 2.240 . S
Cd170 O178 2.223 . S
Cd170 O180 2.296 . S
Cd170 O181 2.439 . S
O171 Cd170 2.240 . S
O171 C176 1.279 . S
O172 Cd169 2.297 . S
O172 C174 1.247 . S
O173 Cd169 2.439 . S
O173 C174 1.208 . S
C174 O172 1.247 . S
C174 O173 1.208 . S
C175 O180 1.241 . S
C175 O181 1.208 . S
C176 O168 1.315 . S
C176 O171 1.279 . S
C177 O178 1.315 . S
C177 O179 1.279 . S
O178 Cd170 2.223 . S
O178 C177 1.315 . S
O179 Cd169 2.240 . S
O179 C177 1.279 . S
O180 Cd170 2.296 . S
O180 C175 1.241 . S
O181 Cd170 2.439 . S
O181 C175 1.208 . S
O182 Cd183 2.223 . S
O182 C190 1.315 . S
Cd183 O182 2.223 . S
Cd183 O186 2.297 . S
Cd183 O187 2.439 . S
Cd183 O193 2.240 . S
Cd184 O185 2.240 . S
Cd184 O192 2.223 . S
Cd184 O194 2.297 . S
Cd184 O195 2.439 . S
O185 Cd184 2.240 . S
O185 C190 1.279 . S
O186 Cd183 2.297 . S
O186 C188 1.247 . S
O187 Cd183 2.439 . S
O187 C188 1.208 . S
C188 O186 1.247 . S
C188 O187 1.208 . S
C189 O194 1.247 . S
C189 O195 1.208 . S
C190 O182 1.315 . S
C190 O185 1.279 . S
C191 O192 1.315 . S
C191 O193 1.279 . S
O192 Cd184 2.223 . S
O192 C191 1.315 . S
O193 Cd183 2.240 . S
O193 C191 1.279 . S
O194 Cd184 2.297 . S
O194 C189 1.247 . S
O195 Cd184 2.439 . S
O195 C189 1.208 . S
O196 Cd197 2.223 . S
O196 C204 1.315 . S
Cd197 O196 2.223 . S
Cd197 O200 2.297 . S
Cd197 O201 2.439 . S
Cd197 O207 2.240 . S
Cd198 O199 2.240 . S
Cd198 O206 2.223 . S
Cd198 O208 2.297 1_554 S
Cd198 O209 2.439 1_554 S
O199 Cd198 2.240 . S
O199 C204 1.279 . S
O200 Cd197 2.297 . S
O200 C202 1.247 . S
O201 Cd197 2.439 . S
O201 C202 1.208 . S
C202 O200 1.247 . S
C202 O201 1.208 . S
C203 O208 1.247 . S
C203 O209 1.208 . S
C204 O196 1.315 . S
C204 O199 1.279 . S
C205 O206 1.315 . S
C205 O207 1.279 . S
O206 Cd198 2.223 . S
O206 C205 1.315 . S
O207 Cd197 2.240 . S
O207 C205 1.279 . S
O208 Cd198 2.297 1_556 S
O208 C203 1.247 . S
O209 Cd198 2.439 1_556 S
O209 C203 1.208 . S
O210 Cd211 2.223 . S
O210 C218 1.315 . S
Cd211 O210 2.223 . S
Cd211 O214 2.297 . S
Cd211 O215 2.439 . S
Cd211 O221 2.240 . S
Cd212 O213 2.240 . S
Cd212 O220 2.223 . S
Cd212 O222 2.297 . S
Cd212 O223 2.439 . S
O213 Cd212 2.240 . S
O213 C218 1.279 . S
O214 Cd211 2.297 . S
O214 C216 1.247 . S
O215 Cd211 2.439 . S
O215 C216 1.208 . S
C216 O214 1.247 . S
C216 O215 1.208 . S
C217 O222 1.247 . S
C217 O223 1.208 . S
C218 O210 1.315 . S
C218 O213 1.279 . S
C219 O220 1.315 . S
C219 O221 1.279 . S
O220 Cd212 2.223 . S
O220 C219 1.315 . S
O221 Cd211 2.240 . S
O221 C219 1.279 . S
O222 Cd212 2.297 . S
O222 C217 1.247 . S
O223 Cd212 2.439 . S
O223 C217 1.208 . S
O224 Cd225 2.223 . S
O224 C232 1.315 . S
Cd225 O224 2.223 . S
Cd225 O228 2.297 . S
Cd225 O229 2.439 . S
Cd225 O235 2.240 . S
Cd226 O227 2.240 . S
Cd226 O234 2.223 . S
Cd226 O236 2.297 . S
Cd226 O237 2.439 . S
O227 Cd226 2.240 . S
O227 C232 1.279 . S
O228 Cd225 2.297 . S
O228 C230 1.247 . S
O229 Cd225 2.439 . S
O229 C230 1.208 . S
C230 O228 1.247 . S
C230 O229 1.208 . S
C231 O236 1.247 . S
C231 O237 1.208 . S
C232 O224 1.315 . S
C232 O227 1.279 . S
C233 O234 1.315 . S
C233 O235 1.279 . S
O234 Cd226 2.223 . S
O234 C233 1.315 . S
O235 Cd225 2.240 . S
O235 C233 1.279 . S
O236 Cd226 2.297 . S
O236 C231 1.247 . S
O237 Cd226 2.439 . S
O237 C231 1.208 . S
O238 Cd239 2.223 . S
O238 C246 1.315 . S
Cd239 O238 2.223 . S
Cd239 O242 2.297 . S
Cd239 O243 2.439 . S
Cd239 O249 2.240 . S
Cd240 O241 2.240 . S
Cd240 O248 2.223 . S
Cd240 O250 2.297 . S
Cd240 O251 2.439 . S
O241 Cd240 2.240 . S
O241 C246 1.279 . S
O242 Cd239 2.297 . S
O242 C244 1.247 . S
O243 Cd239 2.439 . S
O243 C244 1.208 . S
C244 O242 1.247 . S
C244 O243 1.208 . S
C245 O250 1.247 . S
C245 O251 1.208 . S
C246 O238 1.315 . S
C246 O241 1.279 . S
C247 O248 1.315 . S
C247 O249 1.279 . S
O248 Cd240 2.223 . S
O248 C247 1.315 . S
O249 Cd239 2.240 . S
O249 C247 1.279 . S
O250 Cd240 2.297 . S
O250 C245 1.247 . S
O251 Cd240 2.439 . S
O251 C245 1.208 . S
O252 Cd253 2.223 . S
O252 C260 1.315 . S
Cd253 O252 2.223 . S
Cd253 O256 2.297 . S
Cd253 O257 2.439 . S
Cd253 O263 2.240 . S
Cd254 O255 2.240 . S
Cd254 O262 2.223 . S
Cd254 O264 2.299 1_654 S
Cd254 O265 2.439 1_554 S
O255 Cd254 2.240 . S
O255 C260 1.279 . S
O256 Cd253 2.297 . S
O256 C258 1.247 . S
O257 Cd253 2.439 . S
O257 C258 1.208 . S
C258 O256 1.247 . S
C258 O257 1.208 . S
C259 O264 1.254 1_655 S
C259 O265 1.208 . S
C260 O252 1.315 . S
C260 O255 1.279 . S
C261 O262 1.315 . S
C261 O263 1.279 . S
O262 Cd254 2.223 . S
O262 C261 1.315 . S
O263 Cd253 2.240 . S
O263 C261 1.279 . S
O264 Cd254 2.299 1_456 S
O264 C259 1.254 1_455 S
O265 Cd254 2.439 1_556 S
O265 C259 1.208 . S
O266 Cd267 2.223 . S
O266 C274 1.315 . S
Cd267 O266 2.223 . S
Cd267 O270 2.297 . S
Cd267 O271 2.439 . S
Cd267 O277 2.240 . S
Cd268 O269 2.240 . S
Cd268 O276 2.223 . S
Cd268 O278 2.297 . S
Cd268 O279 2.439 . S
O269 Cd268 2.240 . S
O269 C274 1.279 . S
O270 Cd267 2.297 . S
O270 C272 1.247 . S
O271 Cd267 2.439 . S
O271 C272 1.208 . S
C272 O270 1.247 . S
C272 O271 1.208 . S
C273 O278 1.247 . S
C273 O279 1.208 . S
C274 O266 1.315 . S
C274 O269 1.279 . S
C275 O276 1.315 . S
C275 O277 1.279 . S
O276 Cd268 2.223 . S
O276 C275 1.315 . S
O277 Cd267 2.240 . S
O277 C275 1.279 . S
O278 Cd268 2.297 . S
O278 C273 1.247 . S
O279 Cd268 2.439 . S
O279 C273 1.208 . S
O280 Cd281 2.223 . S
O280 C288 1.315 . S
Cd281 O280 2.223 . S
Cd281 O284 2.297 . S
Cd281 O285 2.439 . S
Cd281 O291 2.240 . S
Cd282 O283 2.240 . S
Cd282 O290 2.223 . S
Cd282 O292 2.297 1_556 S
Cd282 O293 2.439 1_556 S
O283 Cd282 2.240 . S
O283 C288 1.279 . S
O284 Cd281 2.297 . S
O284 C286 1.247 . S
O285 Cd281 2.439 . S
O285 C286 1.208 . S
C286 O284 1.247 . S
C286 O285 1.208 . S
C287 O292 1.247 . S
C287 O293 1.208 . S
C288 O280 1.315 . S
C288 O283 1.279 . S
C289 O290 1.315 . S
C289 O291 1.279 . S
O290 Cd282 2.223 . S
O290 C289 1.315 . S
O291 Cd281 2.240 . S
O291 C289 1.279 . S
O292 Cd282 2.297 1_554 S
O292 C287 1.247 . S
O293 Cd282 2.439 1_554 S
O293 C287 1.208 . S
O294 Cd295 2.223 . S
O294 C302 1.315 . S
Cd295 O294 2.223 . S
Cd295 O298 2.297 . S
Cd295 O299 2.439 . S
Cd295 O305 2.240 . S
Cd296 O297 2.240 . S
Cd296 O304 2.223 . S
Cd296 O306 2.297 . S
Cd296 O307 2.439 . S
O297 Cd296 2.240 . S
O297 C302 1.279 . S
O298 Cd295 2.297 . S
O298 C300 1.247 . S
O299 Cd295 2.439 . S
O299 C300 1.208 . S
C300 O298 1.247 . S
C300 O299 1.208 . S
C301 O306 1.247 . S
C301 O307 1.208 . S
C302 O294 1.315 . S
C302 O297 1.279 . S
C303 O304 1.315 . S
C303 O305 1.279 . S
O304 Cd296 2.223 . S
O304 C303 1.315 . S
O305 Cd295 2.240 . S
O305 C303 1.279 . S
O306 Cd296 2.297 . S
O306 C301 1.247 . S
O307 Cd296 2.439 . S
O307 C301 1.208 . S
O308 Cd309 2.223 . S
O308 C316 1.315 . S
Cd309 O308 2.223 . S
Cd309 O312 2.297 . S
Cd309 O313 2.439 . S
Cd309 O319 2.240 . S
Cd310 O311 2.240 . S
Cd310 O318 2.223 . S
Cd310 O320 2.296 . S
Cd310 O321 2.439 . S
O311 Cd310 2.240 . S
O311 C316 1.279 . S
O312 Cd309 2.297 . S
O312 C314 1.247 . S
O313 Cd309 2.439 . S
O313 C314 1.208 . S
C314 O312 1.247 . S
C314 O313 1.208 . S
C315 O320 1.241 . S
C315 O321 1.208 . S
C316 O308 1.315 . S
C316 O311 1.279 . S
C317 O318 1.315 . S
C317 O319 1.279 . S
O318 Cd310 2.223 . S
O318 C317 1.315 . S
O319 Cd309 2.240 . S
O319 C317 1.279 . S
O320 Cd310 2.296 . S
O320 C315 1.241 . S
O321 Cd310 2.439 . S
O321 C315 1.208 . S
O322 Cd323 2.223 . S
O322 C330 1.315 . S
Cd323 O322 2.223 . S
Cd323 O326 2.297 . S
Cd323 O327 2.439 . S
Cd323 O333 2.240 . S
Cd324 O325 2.240 . S
Cd324 O332 2.223 . S
Cd324 O334 2.297 . S
Cd324 O335 2.439 . S
O325 Cd324 2.240 . S
O325 C330 1.279 . S
O326 Cd323 2.297 . S
O326 C328 1.247 . S
O327 Cd323 2.439 . S
O327 C328 1.208 . S
C328 O326 1.247 . S
C328 O327 1.208 . S
C329 O334 1.247 . S
C329 O335 1.208 . S
C330 O322 1.315 . S
C330 O325 1.279 . S
C331 O332 1.315 . S
C331 O333 1.279 . S
O332 Cd324 2.223 . S
O332 C331 1.315 . S
O333 Cd323 2.240 . S
O333 C331 1.279 . S
O334 Cd324 2.297 . S
O334 C329 1.247 . S
O335 Cd324 2.439 . S
O335 C329 1.208 . S
O336 Cd337 2.223 . S
O336 C344 1.315 . S
Cd337 O336 2.223 . S
Cd337 O340 2.297 . S
Cd337 O341 2.439 . S
Cd337 O347 2.240 . S
Cd338 O339 2.240 . S
Cd338 O346 2.223 . S
Cd338 O348 2.297 . S
Cd338 O349 2.439 . S
O339 Cd338 2.240 . S
O339 C344 1.279 . S
O340 Cd337 2.297 . S
O340 C342 1.247 . S
O341 Cd337 2.439 . S
O341 C342 1.208 . S
C342 O340 1.247 . S
C342 O341 1.208 . S
C343 O348 1.247 . S
C343 O349 1.208 . S
C344 O336 1.315 . S
C344 O339 1.279 . S
C345 O346 1.315 . S
C345 O347 1.279 . S
O346 Cd338 2.223 . S
O346 C345 1.315 . S
O347 Cd337 2.240 . S
O347 C345 1.279 . S
O348 Cd338 2.297 . S
O348 C343 1.247 . S
O349 Cd338 2.439 . S
O349 C343 1.208 . S
O350 Cd351 2.223 . S
O350 C358 1.315 . S
Cd351 O350 2.223 . S
Cd351 O354 2.297 . S
Cd351 O355 2.439 . S
Cd351 O361 2.240 . S
Cd352 O353 2.240 . S
Cd352 O360 2.223 . S
Cd352 O362 2.297 . S
Cd352 O363 2.439 . S
O353 Cd352 2.240 . S
O353 C358 1.279 . S
O354 Cd351 2.297 . S
O354 C356 1.247 . S
O355 Cd351 2.439 . S
O355 C356 1.208 . S
C356 O354 1.247 . S
C356 O355 1.208 . S
C357 O362 1.247 . S
C357 O363 1.208 . S
C358 O350 1.315 . S
C358 O353 1.279 . S
C359 O360 1.315 . S
C359 O361 1.279 . S
O360 Cd352 2.223 . S
O360 C359 1.315 . S
O361 Cd351 2.240 . S
O361 C359 1.279 . S
O362 Cd352 2.297 . S
O362 C357 1.247 . S
O363 Cd352 2.439 . S
O363 C357 1.208 . S
O364 Cd365 2.223 . S
O364 C372 1.315 . S
Cd365 O364 2.223 . S
Cd365 O368 2.297 . S
Cd365 O369 2.439 . S
Cd365 O375 2.240 . S
Cd366 O367 2.240 . S
Cd366 O374 2.223 . S
Cd366 O376 2.299 1_456 S
Cd366 O377 2.439 1_556 S
O367 Cd366 2.240 . S
O367 C372 1.279 . S
O368 Cd365 2.297 . S
O368 C370 1.247 . S
O369 Cd365 2.439 . S
O369 C370 1.208 . S
C370 O368 1.247 . S
C370 O369 1.208 . S
C371 O376 1.254 1_455 S
C371 O377 1.208 . S
C372 O364 1.315 . S
C372 O367 1.279 . S
C373 O374 1.315 . S
C373 O375 1.279 . S
O374 Cd366 2.223 . S
O374 C373 1.315 . S
O375 Cd365 2.240 . S
O375 C373 1.279 . S
O376 Cd366 2.299 1_654 S
O376 C371 1.254 1_655 S
O377 Cd366 2.439 1_554 S
O377 C371 1.208 . S
O378 Cd379 2.223 . S
O378 C386 1.315 . S
Cd379 O378 2.223 . S
Cd379 O382 2.297 . S
Cd379 O383 2.439 . S
Cd379 O389 2.240 . S
Cd380 O381 2.240 . S
Cd380 O388 2.223 . S
Cd380 O390 2.297 . S
Cd380 O391 2.439 . S
O381 Cd380 2.240 . S
O381 C386 1.279 . S
O382 Cd379 2.297 . S
O382 C384 1.247 . S
O383 Cd379 2.439 . S
O383 C384 1.208 . S
C384 O382 1.247 . S
C384 O383 1.208 . S
C385 O390 1.247 . S
C385 O391 1.208 . S
C386 O378 1.315 . S
C386 O381 1.279 . S
C387 O388 1.315 . S
C387 O389 1.279 . S
O388 Cd380 2.223 . S
O388 C387 1.315 . S
O389 Cd379 2.240 . S
O389 C387 1.279 . S
O390 Cd380 2.297 . S
O390 C385 1.247 . S
O391 Cd380 2.439 . S
O391 C385 1.208 . S
O392 Cd393 2.223 . S
O392 C400 1.315 . S
Cd393 O392 2.223 . S
Cd393 O396 2.297 . S
Cd393 O397 2.439 . S
Cd393 O403 2.240 . S
Cd394 O395 2.240 . S
Cd394 O402 2.223 . S
Cd394 O404 2.297 1_554 S
Cd394 O405 2.439 1_554 S
O395 Cd394 2.240 . S
O395 C400 1.279 . S
O396 Cd393 2.297 . S
O396 C398 1.247 . S
O397 Cd393 2.439 . S
O397 C398 1.208 . S
C398 O396 1.247 . S
C398 O397 1.208 . S
C399 O404 1.247 . S
C399 O405 1.208 . S
C400 O392 1.315 . S
C400 O395 1.279 . S
C401 O402 1.315 . S
C401 O403 1.279 . S
O402 Cd394 2.223 . S
O402 C401 1.315 . S
O403 Cd393 2.240 . S
O403 C401 1.279 . S
O404 Cd394 2.297 1_556 S
O404 C399 1.247 . S
O405 Cd394 2.439 1_556 S
O405 C399 1.208 . S
O406 Cd407 2.223 . S
O406 C414 1.315 . S
Cd407 O406 2.223 . S
Cd407 O410 2.297 . S
Cd407 O411 2.439 . S
Cd407 O417 2.240 . S
Cd408 O409 2.240 . S
Cd408 O416 2.223 . S
Cd408 O418 2.297 . S
Cd408 O419 2.439 . S
O409 Cd408 2.240 . S
O409 C414 1.279 . S
O410 Cd407 2.297 . S
O410 C412 1.247 . S
O411 Cd407 2.439 . S
O411 C412 1.208 . S
C412 O410 1.247 . S
C412 O411 1.208 . S
C413 O418 1.247 . S
C413 O419 1.208 . S
C414 O406 1.315 . S
C414 O409 1.279 . S
C415 O416 1.315 . S
C415 O417 1.279 . S
O416 Cd408 2.223 . S
O416 C415 1.315 . S
O417 Cd407 2.240 . S
O417 C415 1.279 . S
O418 Cd408 2.297 . S
O418 C413 1.247 . S
O419 Cd408 2.439 . S
O419 C413 1.208 . S
O420 Cd421 2.223 . S
O420 C428 1.315 . S
Cd421 O420 2.223 . S
Cd421 O424 2.297 . S
Cd421 O425 2.439 . S
Cd421 O431 2.240 . S
Cd422 O423 2.240 . S
Cd422 O430 2.223 . S
Cd422 O432 2.296 . S
Cd422 O433 2.439 . S
O423 Cd422 2.240 . S
O423 C428 1.279 . S
O424 Cd421 2.297 . S
O424 C426 1.247 . S
O425 Cd421 2.439 . S
O425 C426 1.208 . S
C426 O424 1.247 . S
C426 O425 1.208 . S
C427 O432 1.241 . S
C427 O433 1.208 . S
C428 O420 1.315 . S
C428 O423 1.279 . S
C429 O430 1.315 . S
C429 O431 1.279 . S
O430 Cd422 2.223 . S
O430 C429 1.315 . S
O431 Cd421 2.240 . S
O431 C429 1.279 . S
O432 Cd422 2.296 . S
O432 C427 1.241 . S
O433 Cd422 2.439 . S
O433 C427 1.208 . S
O434 Cd435 2.223 . S
O434 C442 1.315 . S
Cd435 O434 2.223 . S
Cd435 O438 2.297 . S
Cd435 O439 2.439 . S
Cd435 O445 2.240 . S
Cd436 O437 2.240 . S
Cd436 O444 2.223 . S
Cd436 O446 2.297 . S
Cd436 O447 2.439 . S
O437 Cd436 2.240 . S
O437 C442 1.279 . S
O438 Cd435 2.297 . S
O438 C440 1.247 . S
O439 Cd435 2.439 . S
O439 C440 1.208 . S
C440 O438 1.247 . S
C440 O439 1.208 . S
C441 O446 1.247 . S
C441 O447 1.208 . S
C442 O434 1.315 . S
C442 O437 1.279 . S
C443 O444 1.315 . S
C443 O445 1.279 . S
O444 Cd436 2.223 . S
O444 C443 1.315 . S
O445 Cd435 2.240 . S
O445 C443 1.279 . S
O446 Cd436 2.297 . S
O446 C441 1.247 . S
O447 Cd436 2.439 . S
O447 C441 1.208 . S
H448 C456 0.950 . S
H449 C461 0.950 . S
H450 C458 0.950 1_455 S
H451 C460 0.950 . S
H452 C462 0.950 . S
H453 C464 0.950 1_655 S
H454 C466 0.950 . S
H455 C467 0.950 . S
C456 H448 0.950 . S
C456 C457 1.386 . S
C456 C458 1.391 . S
C457 C456 1.386 . S
C457 C461 1.393 . S
C458 H450 0.950 1_655 S
C458 C456 1.391 . S
C458 C459 1.400 . S
C459 C458 1.400 . S
C459 C460 1.398 . S
C459 C465 1.491 1_655 S
C460 H451 0.950 . S
C460 C459 1.398 . S
C460 C461 1.391 . S
C461 H449 0.950 . S
C461 C457 1.393 . S
C461 C460 1.391 . S
C462 H452 0.950 . S
C462 C463 1.386 . S
C462 C464 1.391 . S
C463 C462 1.386 . S
C463 C467 1.393 . S
C464 H453 0.950 1_455 S
C464 C462 1.391 . S
C464 C465 1.400 . S
C465 C459 1.491 1_455 S
C465 C464 1.400 . S
C465 C466 1.398 . S
C466 H454 0.950 . S
C466 C465 1.398 . S
C466 C467 1.391 . S
C467 H455 0.950 . S
C467 C463 1.393 . S
C467 C466 1.391 . S
H468 C476 0.950 . S
H469 C481 0.950 . S
H470 C478 0.950 . S
H471 C480 0.950 . S
H472 C482 0.950 . S
H473 C484 0.950 . S
H474 C486 0.950 . S
H475 C487 0.950 . S
C476 H468 0.950 . S
C476 C477 1.386 . S
C476 C478 1.391 . S
C477 C476 1.386 . S
C477 C481 1.393 . S
C478 H470 0.950 . S
C478 C476 1.391 . S
C478 C479 1.400 . S
C479 C478 1.400 . S
C479 C480 1.398 . S
C479 C485 1.491 1_556 S
C480 H471 0.950 . S
C480 C479 1.398 . S
C480 C481 1.391 . S
C481 H469 0.950 . S
C481 C477 1.393 . S
C481 C480 1.391 . S
C482 H472 0.950 . S
C482 C483 1.386 . S
C482 C484 1.391 . S
C483 C482 1.386 . S
C483 C487 1.393 . S
C484 H473 0.950 . S
C484 C482 1.391 . S
C484 C485 1.400 . S
C485 C479 1.491 1_554 S
C485 C484 1.400 . S
C485 C486 1.398 . S
C486 H474 0.950 . S
C486 C485 1.398 . S
C486 C487 1.391 . S
C487 H475 0.950 . S
C487 C483 1.393 . S
C487 C486 1.391 . S
H488 C496 0.950 . S
H489 C501 0.950 . S
H490 C498 0.950 . S
H491 C500 0.950 . S
H492 C502 0.950 . S
H493 C504 0.950 . S
H494 C506 0.950 . S
H495 C507 0.950 . S
C496 H488 0.950 . S
C496 C497 1.386 . S
C496 C498 1.391 . S
C497 C496 1.386 . S
C497 C501 1.393 . S
C498 H490 0.950 . S
C498 C496 1.391 . S
C498 C499 1.400 . S
C499 C498 1.400 . S
C499 C500 1.398 . S
C499 C505 1.491 . S
C500 H491 0.950 . S
C500 C499 1.398 . S
C500 C501 1.391 . S
C501 H489 0.950 . S
C501 C497 1.393 . S
C501 C500 1.391 . S
C502 H492 0.950 . S
C502 C503 1.386 . S
C502 C504 1.391 . S
C503 C502 1.386 . S
C503 C507 1.393 . S
C504 H493 0.950 . S
C504 C502 1.391 . S
C504 C505 1.400 . S
C505 C499 1.491 . S
C505 C504 1.400 . S
C505 C506 1.398 . S
C506 H494 0.950 . S
C506 C505 1.398 . S
C506 C507 1.391 . S
C507 H495 0.950 . S
C507 C503 1.393 . S
C507 C506 1.391 . S
H508 C516 0.950 . S
H509 C521 0.950 . S
H510 C518 0.950 . S
H511 C520 0.950 . S
H512 C522 0.950 . S
H513 C524 0.950 . S
H514 C526 0.950 . S
H515 C527 0.950 . S
C516 H508 0.950 . S
C516 C517 1.386 . S
C516 C518 1.391 . S
C517 C516 1.386 . S
C517 C521 1.393 . S
C518 H510 0.950 . S
C518 C516 1.391 . S
C518 C519 1.400 . S
C519 C518 1.400 . S
C519 C520 1.398 . S
C519 C525 1.491 . S
C520 H511 0.950 . S
C520 C519 1.398 . S
C520 C521 1.391 . S
C521 H509 0.950 . S
C521 C517 1.393 . S
C521 C520 1.391 . S
C522 H512 0.950 . S
C522 C523 1.386 . S
C522 C524 1.391 . S
C523 C522 1.386 . S
C523 C527 1.393 . S
C524 H513 0.950 . S
C524 C522 1.391 . S
C524 C525 1.400 . S
C525 C519 1.491 . S
C525 C524 1.400 . S
C525 C526 1.398 . S
C526 H514 0.950 . S
C526 C525 1.398 . S
C526 C527 1.391 . S
C527 H515 0.950 . S
C527 C523 1.393 . S
C527 C526 1.391 . S
H528 C536 0.950 . S
H529 C541 0.950 . S
H530 C538 0.950 . S
H531 C540 0.950 . S
H532 C542 0.950 . S
H533 C544 0.950 . S
H534 C546 0.950 . S
H535 C547 0.950 . S
C536 H528 0.950 . S
C536 C537 1.386 . S
C536 C538 1.391 . S
C537 C536 1.386 . S
C537 C541 1.393 1_655 S
C538 H530 0.950 . S
C538 C536 1.391 . S
C538 C539 1.400 . S
C539 C538 1.400 . S
C539 C540 1.398 1_655 S
C539 C545 1.491 1_655 S
C540 H531 0.950 . S
C540 C539 1.398 1_455 S
C540 C541 1.391 . S
C541 H529 0.950 . S
C541 C537 1.393 1_455 S
C541 C540 1.391 . S
C542 H532 0.950 . S
C542 C543 1.386 . S
C542 C544 1.391 . S
C543 C542 1.386 . S
C543 C547 1.393 1_455 S
C544 H533 0.950 . S
C544 C542 1.391 . S
C544 C545 1.400 . S
C545 C539 1.491 1_455 S
C545 C544 1.400 . S
C545 C546 1.398 1_455 S
C546 H534 0.950 . S
C546 C545 1.398 1_655 S
C546 C547 1.391 . S
C547 H535 0.950 . S
C547 C543 1.393 1_655 S
C547 C546 1.391 . S
H548 C556 0.950 . S
H549 C561 0.950 . S
H550 C558 0.950 . S
H551 C560 0.950 . S
H552 C562 0.950 . S
H553 C564 0.950 . S
H554 C566 0.950 . S
H555 C567 0.950 . S
C556 H548 0.950 . S
C556 C557 1.386 . S
C556 C558 1.391 . S
C557 C556 1.386 . S
C557 C561 1.393 . S
C558 H550 0.950 . S
C558 C556 1.391 . S
C558 C559 1.400 . S
C559 C558 1.400 . S
C559 C560 1.398 . S
C559 C565 1.491 1_556 S
C560 H551 0.950 . S
C560 C559 1.398 . S
C560 C561 1.391 . S
C561 H549 0.950 . S
C561 C557 1.393 . S
C561 C560 1.391 . S
C562 H552 0.950 . S
C562 C563 1.386 . S
C562 C564 1.391 . S
C563 C562 1.386 . S
C563 C567 1.393 . S
C564 H553 0.950 . S
C564 C562 1.391 . S
C564 C565 1.400 . S
C565 C559 1.491 1_554 S
C565 C564 1.400 . S
C565 C566 1.398 . S
C566 H554 0.950 . S
C566 C565 1.398 . S
C566 C567 1.391 . S
C567 H555 0.950 . S
C567 C563 1.393 . S
C567 C566 1.391 . S
H568 C576 0.950 . S
H569 C581 0.950 . S
H570 C578 0.950 . S
H571 C580 0.950 . S
H572 C582 0.950 . S
H573 C584 0.950 . S
H574 C586 0.950 . S
H575 C587 0.950 . S
C576 H568 0.950 . S
C576 C577 1.386 . S
C576 C578 1.391 . S
C577 C576 1.386 . S
C577 C581 1.393 . S
C578 H570 0.950 . S
C578 C576 1.391 . S
C578 C579 1.400 . S
C579 C578 1.400 . S
C579 C580 1.398 . S
C579 C585 1.491 . S
C580 H571 0.950 . S
C580 C579 1.398 . S
C580 C581 1.391 . S
C581 H569 0.950 . S
C581 C577 1.393 . S
C581 C580 1.391 . S
C582 H572 0.950 . S
C582 C583 1.386 . S
C582 C584 1.391 . S
C583 C582 1.386 . S
C583 C587 1.393 . S
C584 H573 0.950 . S
C584 C582 1.391 . S
C584 C585 1.400 . S
C585 C579 1.491 . S
C585 C584 1.400 . S
C585 C586 1.398 . S
C586 H574 0.950 . S
C586 C585 1.398 . S
C586 C587 1.391 . S
C587 H575 0.950 . S
C587 C583 1.393 . S
C587 C586 1.391 . S
H588 C596 0.950 . S
H589 C601 0.950 . S
H590 C598 0.950 . S
H591 C600 0.950 . S
H592 C602 0.950 . S
H593 C604 0.950 . S
H594 C606 0.950 . S
H595 C607 0.950 . S
C596 H588 0.950 . S
C596 C597 1.386 . S
C596 C598 1.391 . S
C597 C596 1.386 . S
C597 C601 1.393 . S
C598 H590 0.950 . S
C598 C596 1.391 . S
C598 C599 1.400 . S
C599 C598 1.400 . S
C599 C600 1.398 . S
C599 C605 1.491 . S
C600 H591 0.950 . S
C600 C599 1.398 . S
C600 C601 1.391 . S
C601 H589 0.950 . S
C601 C597 1.393 . S
C601 C600 1.391 . S
C602 H592 0.950 . S
C602 C603 1.386 . S
C602 C604 1.391 . S
C603 C602 1.386 . S
C603 C607 1.393 . S
C604 H593 0.950 . S
C604 C602 1.391 . S
C604 C605 1.400 . S
C605 C599 1.491 . S
C605 C604 1.400 . S
C605 C606 1.398 . S
C606 H594 0.950 . S
C606 C605 1.398 . S
C606 C607 1.391 . S
C607 H595 0.950 . S
C607 C603 1.393 . S
C607 C606 1.391 . S
H608 C616 0.950 . S
H609 C621 0.950 . S
H610 C618 0.950 . S
H611 C620 0.950 . S
H612 C622 0.950 . S
H613 C624 0.950 . S
H614 C626 0.950 . S
H615 C627 0.950 . S
C616 H608 0.950 . S
C616 C617 1.386 1_655 S
C616 C618 1.391 . S
C617 C616 1.386 1_455 S
C617 C621 1.393 . S
C618 H610 0.950 . S
C618 C616 1.391 . S
C618 C619 1.400 1_655 S
C619 C618 1.400 1_455 S
C619 C620 1.398 . S
C619 C625 1.491 1_455 S
C620 H611 0.950 . S
C620 C619 1.398 . S
C620 C621 1.391 . S
C621 H609 0.950 . S
C621 C617 1.393 . S
C621 C620 1.391 . S
C622 H612 0.950 . S
C622 C623 1.386 1_455 S
C622 C624 1.391 . S
C623 C622 1.386 1_655 S
C623 C627 1.393 . S
C624 H613 0.950 . S
C624 C622 1.391 . S
C624 C625 1.400 1_455 S
C625 C619 1.491 1_655 S
C625 C624 1.400 1_655 S
C625 C626 1.398 . S
C626 H614 0.950 . S
C626 C625 1.398 . S
C626 C627 1.391 . S
C627 H615 0.950 . S
C627 C623 1.393 . S
C627 C626 1.391 . S
H628 C636 0.950 . S
H629 C641 0.950 . S
H630 C638 0.950 . S
H631 C640 0.950 . S
H632 C642 0.950 . S
H633 C644 0.950 . S
H634 C646 0.950 . S
H635 C647 0.950 . S
C636 H628 0.950 . S
C636 C637 1.386 . S
C636 C638 1.391 . S
C637 C636 1.386 . S
C637 C641 1.393 . S
C638 H630 0.950 . S
C638 C636 1.391 . S
C638 C639 1.400 . S
C639 C638 1.400 . S
C639 C640 1.398 . S
C639 C645 1.491 1_554 S
C640 H631 0.950 . S
C640 C639 1.398 . S
C640 C641 1.391 . S
C641 H629 0.950 . S
C641 C637 1.393 . S
C641 C640 1.391 . S
C642 H632 0.950 . S
C642 C643 1.386 . S
C642 C644 1.391 . S
C643 C642 1.386 . S
C643 C647 1.393 . S
C644 H633 0.950 . S
C644 C642 1.391 . S
C644 C645 1.400 . S
C645 C639 1.491 1_556 S
C645 C644 1.400 . S
C645 C646 1.398 . S
C646 H634 0.950 . S
C646 C645 1.398 . S
C646 C647 1.391 . S
C647 H635 0.950 . S
C647 C643 1.393 . S
C647 C646 1.391 . S
H648 C656 0.950 . S
H649 C661 0.950 . S
H650 C658 0.950 . S
H651 C660 0.950 . S
H652 C662 0.950 . S
H653 C664 0.950 . S
H654 C666 0.950 . S
H655 C667 0.950 . S
C656 H648 0.950 . S
C656 C657 1.386 . S
C656 C658 1.391 . S
C657 C656 1.386 . S
C657 C661 1.393 . S
C658 H650 0.950 . S
C658 C656 1.391 . S
C658 C659 1.400 . S
C659 C658 1.400 . S
C659 C660 1.398 . S
C659 C665 1.491 . S
C660 H651 0.950 . S
C660 C659 1.398 . S
C660 C661 1.391 . S
C661 H649 0.950 . S
C661 C657 1.393 . S
C661 C660 1.391 . S
C662 H652 0.950 . S
C662 C663 1.386 . S
C662 C664 1.391 . S
C663 C662 1.386 . S
C663 C667 1.393 . S
C664 H653 0.950 . S
C664 C662 1.391 . S
C664 C665 1.400 . S
C665 C659 1.491 . S
C665 C664 1.400 . S
C665 C666 1.398 . S
C666 H654 0.950 . S
C666 C665 1.398 . S
C666 C667 1.391 . S
C667 H655 0.950 . S
C667 C663 1.393 . S
C667 C666 1.391 . S
H668 C676 0.950 . S
H669 C681 0.950 . S
H670 C678 0.950 . S
H671 C680 0.950 . S
H672 C682 0.950 . S
H673 C684 0.950 . S
H674 C686 0.950 . S
H675 C687 0.950 . S
C676 H668 0.950 . S
C676 C677 1.386 . S
C676 C678 1.391 . S
C677 C676 1.386 . S
C677 C681 1.393 . S
C678 H670 0.950 . S
C678 C676 1.391 . S
C678 C679 1.400 . S
C679 C678 1.400 . S
C679 C680 1.398 . S
C679 C685 1.491 . S
C680 H671 0.950 . S
C680 C679 1.398 . S
C680 C681 1.391 . S
C681 H669 0.950 . S
C681 C677 1.393 . S
C681 C680 1.391 . S
C682 H672 0.950 . S
C682 C683 1.386 . S
C682 C684 1.391 . S
C683 C682 1.386 . S
C683 C687 1.393 . S
C684 H673 0.950 . S
C684 C682 1.391 . S
C684 C685 1.400 . S
C685 C679 1.491 . S
C685 C684 1.400 . S
C685 C686 1.398 . S
C686 H674 0.950 . S
C686 C685 1.398 . S
C686 C687 1.391 . S
C687 H675 0.950 . S
C687 C683 1.393 . S
C687 C686 1.391 . S
H688 C696 0.950 . S
H689 C701 0.950 . S
H690 C698 0.950 . S
H691 C700 0.950 . S
H692 C702 0.950 . S
H693 C704 0.950 . S
H694 C706 0.950 . S
H695 C707 0.950 . S
C696 H688 0.950 . S
C696 C697 1.386 . S
C696 C698 1.391 . S
C697 C696 1.386 . S
C697 C701 1.393 1_655 S
C698 H690 0.950 . S
C698 C696 1.391 . S
C698 C699 1.400 . S
C699 C698 1.400 . S
C699 C700 1.398 1_655 S
C699 C705 1.491 1_655 S
C700 H691 0.950 . S
C700 C699 1.398 1_455 S
C700 C701 1.391 . S
C701 H689 0.950 . S
C701 C697 1.393 1_455 S
C701 C700 1.391 . S
C702 H692 0.950 . S
C702 C703 1.386 . S
C702 C704 1.391 . S
C703 C702 1.386 . S
C703 C707 1.393 1_455 S
C704 H693 0.950 . S
C704 C702 1.391 . S
C704 C705 1.400 . S
C705 C699 1.491 1_455 S
C705 C704 1.400 . S
C705 C706 1.398 1_455 S
C706 H694 0.950 . S
C706 C705 1.398 1_655 S
C706 C707 1.391 . S
C707 H695 0.950 . S
C707 C703 1.393 1_655 S
C707 C706 1.391 . S
H708 C716 0.950 . S
H709 C721 0.950 . S
H710 C718 0.950 . S
H711 C720 0.950 . S
H712 C722 0.950 . S
H713 C724 0.950 . S
H714 C726 0.950 . S
H715 C727 0.950 . S
C716 H708 0.950 . S
C716 C717 1.386 . S
C716 C718 1.391 . S
C717 C716 1.386 . S
C717 C721 1.393 . S
C718 H710 0.950 . S
C718 C716 1.391 . S
C718 C719 1.400 . S
C719 C718 1.400 . S
C719 C720 1.398 . S
C719 C725 1.491 1_554 S
C720 H711 0.950 . S
C720 C719 1.398 . S
C720 C721 1.391 . S
C721 H709 0.950 . S
C721 C717 1.393 . S
C721 C720 1.391 . S
C722 H712 0.950 . S
C722 C723 1.386 . S
C722 C724 1.391 . S
C723 C722 1.386 . S
C723 C727 1.393 . S
C724 H713 0.950 . S
C724 C722 1.391 . S
C724 C725 1.400 . S
C725 C719 1.491 1_556 S
C725 C724 1.400 . S
C725 C726 1.398 . S
C726 H714 0.950 . S
C726 C725 1.398 . S
C726 C727 1.391 . S
C727 H715 0.950 . S
C727 C723 1.393 . S
C727 C726 1.391 . S
H728 C736 0.950 . S
H729 C741 0.950 . S
H730 C738 0.950 . S
H731 C740 0.950 . S
H732 C742 0.950 . S
H733 C744 0.950 . S
H734 C746 0.950 . S
H735 C747 0.950 . S
C736 H728 0.950 . S
C736 C737 1.386 . S
C736 C738 1.391 . S
C737 C736 1.386 . S
C737 C741 1.393 . S
C738 H730 0.950 . S
C738 C736 1.391 . S
C738 C739 1.400 . S
C739 C738 1.400 . S
C739 C740 1.398 . S
C739 C745 1.491 . S
C740 H731 0.950 . S
C740 C739 1.398 . S
C740 C741 1.391 . S
C741 H729 0.950 . S
C741 C737 1.393 . S
C741 C740 1.391 . S
C742 H732 0.950 . S
C742 C743 1.386 . S
C742 C744 1.391 . S
C743 C742 1.386 . S
C743 C747 1.393 . S
C744 H733 0.950 . S
C744 C742 1.391 . S
C744 C745 1.400 . S
C745 C739 1.491 . S
C745 C744 1.400 . S
C745 C746 1.398 . S
C746 H734 0.950 . S
C746 C745 1.398 . S
C746 C747 1.391 . S
C747 H735 0.950 . S
C747 C743 1.393 . S
C747 C746 1.391 . S
H748 C756 0.950 . S
H749 C761 0.950 . S
H750 C758 0.950 . S
H751 C760 0.950 . S
H752 C762 0.950 . S
H753 C764 0.950 . S
H754 C766 0.950 . S
H755 C767 0.950 . S
C756 H748 0.950 . S
C756 C757 1.386 . S
C756 C758 1.391 . S
C757 C756 1.386 . S
C757 C761 1.393 . S
C758 H750 0.950 . S
C758 C756 1.391 . S
C758 C759 1.400 . S
C759 C758 1.400 . S
C759 C760 1.398 . S
C759 C765 1.491 . S
C760 H751 0.950 . S
C760 C759 1.398 . S
C760 C761 1.391 . S
C761 H749 0.950 . S
C761 C757 1.393 . S
C761 C760 1.391 . S
C762 H752 0.950 . S
C762 C763 1.386 . S
C762 C764 1.391 . S
C763 C762 1.386 . S
C763 C767 1.393 . S
C764 H753 0.950 . S
C764 C762 1.391 . S
C764 C765 1.400 . S
C765 C759 1.491 . S
C765 C764 1.400 . S
C765 C766 1.398 . S
C766 H754 0.950 . S
C766 C765 1.398 . S
C766 C767 1.391 . S
C767 H755 0.950 . S
C767 C763 1.393 . S
C767 C766 1.391 . S
H768 C776 0.950 . S
H769 C781 0.950 . S
H770 C778 0.950 . S
H771 C780 0.950 . S
H772 C782 0.950 . S
H773 C784 0.950 . S
H774 C786 0.950 . S
H775 C787 0.950 . S
C776 H768 0.950 . S
C776 C777 1.386 . S
C776 C778 1.391 . S
C777 C776 1.386 . S
C777 C781 1.393 . S
C778 H770 0.950 . S
C778 C776 1.391 . S
C778 C779 1.400 . S
C779 C778 1.400 . S
C779 C780 1.398 . S
C779 C785 1.491 . S
C780 H771 0.950 . S
C780 C779 1.398 . S
C780 C781 1.391 . S
C781 H769 0.950 . S
C781 C777 1.393 . S
C781 C780 1.391 . S
C782 H772 0.950 . S
C782 C783 1.386 . S
C782 C784 1.391 . S
C783 C782 1.386 . S
C783 C787 1.393 . S
C784 H773 0.950 . S
C784 C782 1.391 . S
C784 C785 1.400 . S
C785 C779 1.491 . S
C785 C784 1.400 . S
C785 C786 1.398 . S
C786 H774 0.950 . S
C786 C785 1.398 . S
C786 C787 1.391 . S
C787 H775 0.950 . S
C787 C783 1.393 . S
C787 C786 1.391 . S
H788 C796 0.950 . S
H789 C801 0.950 . S
H790 C798 0.950 . S
H791 C800 0.950 . S
H792 C802 0.950 . S
H793 C804 0.950 . S
H794 C806 0.950 . S
H795 C807 0.950 . S
C796 H788 0.950 . S
C796 C797 1.386 . S
C796 C798 1.391 . S
C797 C796 1.386 . S
C797 C801 1.393 . S
C798 H790 0.950 . S
C798 C796 1.391 . S
C798 C799 1.400 . S
C799 C798 1.400 . S
C799 C800 1.398 . S
C799 C805 1.491 . S
C800 H791 0.950 . S
C800 C799 1.398 . S
C800 C801 1.391 . S
C801 H789 0.950 . S
C801 C797 1.393 . S
C801 C800 1.391 . S
C802 H792 0.950 . S
C802 C803 1.386 . S
C802 C804 1.391 . S
C803 C802 1.386 . S
C803 C807 1.393 . S
C804 H793 0.950 . S
C804 C802 1.391 . S
C804 C805 1.400 . S
C805 C799 1.491 . S
C805 C804 1.400 . S
C805 C806 1.398 . S
C806 H794 0.950 . S
C806 C805 1.398 . S
C806 C807 1.391 . S
C807 H795 0.950 . S
C807 C803 1.393 . S
C807 C806 1.391 . S
H808 C816 0.950 . S
H809 C821 0.950 . S
H810 C818 0.950 . S
H811 C820 0.950 . S
H812 C822 0.950 . S
H813 C824 0.950 . S
H814 C826 0.950 . S
H815 C827 0.950 . S
C816 H808 0.950 . S
C816 C817 1.386 1_655 S
C816 C818 1.391 . S
C817 C816 1.386 1_455 S
C817 C821 1.393 . S
C818 H810 0.950 . S
C818 C816 1.391 . S
C818 C819 1.400 1_655 S
C819 C818 1.400 1_455 S
C819 C820 1.398 . S
C819 C825 1.491 1_455 S
C820 H811 0.950 . S
C820 C819 1.398 . S
C820 C821 1.391 . S
C821 H809 0.950 . S
C821 C817 1.393 . S
C821 C820 1.391 . S
C822 H812 0.950 . S
C822 C823 1.386 1_455 S
C822 C824 1.391 . S
C823 C822 1.386 1_655 S
C823 C827 1.393 . S
C824 H813 0.950 . S
C824 C822 1.391 . S
C824 C825 1.400 1_455 S
C825 C819 1.491 1_655 S
C825 C824 1.400 1_655 S
C825 C826 1.398 . S
C826 H814 0.950 . S
C826 C825 1.398 . S
C826 C827 1.391 . S
C827 H815 0.950 . S
C827 C823 1.393 . S
C827 C826 1.391 . S
H828 C836 0.950 . S
H829 C841 0.950 . S
H830 C838 0.950 . S
H831 C840 0.950 . S
H832 C842 0.950 . S
H833 C844 0.950 . S
H834 C846 0.950 . S
H835 C847 0.950 . S
C836 H828 0.950 . S
C836 C837 1.386 . S
C836 C838 1.391 . S
C837 C836 1.386 . S
C837 C841 1.393 . S
C838 H830 0.950 . S
C838 C836 1.391 . S
C838 C839 1.400 . S
C839 C838 1.400 . S
C839 C840 1.398 . S
C839 C845 1.491 1_554 S
C840 H831 0.950 . S
C840 C839 1.398 . S
C840 C841 1.391 . S
C841 H829 0.950 . S
C841 C837 1.393 . S
C841 C840 1.391 . S
C842 H832 0.950 . S
C842 C843 1.386 . S
C842 C844 1.391 . S
C843 C842 1.386 . S
C843 C847 1.393 . S
C844 H833 0.950 . S
C844 C842 1.391 . S
C844 C845 1.400 . S
C845 C839 1.491 1_556 S
C845 C844 1.400 . S
C845 C846 1.398 . S
C846 H834 0.950 . S
C846 C845 1.398 . S
C846 C847 1.391 . S
C847 H835 0.950 . S
C847 C843 1.393 . S
C847 C846 1.391 . S
H848 C856 0.950 . S
H849 C861 0.950 . S
H850 C858 0.950 . S
H851 C860 0.950 . S
H852 C862 0.950 . S
H853 C864 0.950 . S
H854 C866 0.950 . S
H855 C867 0.950 . S
C856 H848 0.950 . S
C856 C857 1.386 . S
C856 C858 1.391 . S
C857 C856 1.386 . S
C857 C861 1.393 . S
C858 H850 0.950 . S
C858 C856 1.391 . S
C858 C859 1.400 . S
C859 C858 1.400 . S
C859 C860 1.398 . S
C859 C865 1.491 . S
C860 H851 0.950 . S
C860 C859 1.398 . S
C860 C861 1.391 . S
C861 H849 0.950 . S
C861 C857 1.393 . S
C861 C860 1.391 . S
C862 H852 0.950 . S
C862 C863 1.386 . S
C862 C864 1.391 . S
C863 C862 1.386 . S
C863 C867 1.393 . S
C864 H853 0.950 . S
C864 C862 1.391 . S
C864 C865 1.400 . S
C865 C859 1.491 . S
C865 C864 1.400 . S
C865 C866 1.398 . S
C866 H854 0.950 . S
C866 C865 1.398 . S
C866 C867 1.391 . S
C867 H855 0.950 . S
C867 C863 1.393 . S
C867 C866 1.391 . S
H868 C876 0.950 . S
H869 C881 0.950 . S
H870 C878 0.950 . S
H871 C880 0.950 . S
H872 C882 0.950 . S
H873 C884 0.950 . S
H874 C886 0.950 . S
H875 C887 0.950 . S
C876 H868 0.950 . S
C876 C877 1.386 . S
C876 C878 1.391 . S
C877 C876 1.386 . S
C877 C881 1.393 . S
C878 H870 0.950 . S
C878 C876 1.391 . S
C878 C879 1.400 . S
C879 C878 1.400 . S
C879 C880 1.398 . S
C879 C885 1.491 . S
C880 H871 0.950 . S
C880 C879 1.398 . S
C880 C881 1.391 . S
C881 H869 0.950 . S
C881 C877 1.393 . S
C881 C880 1.391 . S
C882 H872 0.950 . S
C882 C883 1.386 . S
C882 C884 1.391 . S
C883 C882 1.386 . S
C883 C887 1.393 . S
C884 H873 0.950 . S
C884 C882 1.391 . S
C884 C885 1.400 . S
C885 C879 1.491 . S
C885 C884 1.400 . S
C885 C886 1.398 . S
C886 H874 0.950 . S
C886 C885 1.398 . S
C886 C887 1.391 . S
C887 H875 0.950 . S
C887 C883 1.393 . S
C887 C886 1.391 . S
H888 C896 0.950 . S
H889 C901 0.950 1_655 S
H890 C898 0.950 . S
H891 C900 0.950 . S
H892 C902 0.950 . S
H893 C904 0.950 . S
H894 C906 0.950 . S
H895 C907 0.950 1_455 S
C896 H888 0.950 . S
C896 C897 1.386 . S
C896 C898 1.391 . S
C897 C896 1.386 . S
C897 C901 1.393 . S
C898 H890 0.950 . S
C898 C896 1.391 . S
C898 C899 1.400 . S
C899 C898 1.400 . S
C899 C900 1.398 1_455 S
C899 C905 1.491 1_455 S
C900 H891 0.950 . S
C900 C899 1.398 1_655 S
C900 C901 1.391 1_655 S
C901 H889 0.950 1_455 S
C901 C897 1.393 . S
C901 C900 1.391 1_455 S
C902 H892 0.950 . S
C902 C903 1.386 . S
C902 C904 1.391 . S
C903 C902 1.386 . S
C903 C907 1.393 . S
C904 H893 0.950 . S
C904 C902 1.391 . S
C904 C905 1.400 . S
C905 C899 1.491 1_655 S
C905 C904 1.400 . S
C905 C906 1.398 1_655 S
C906 H894 0.950 . S
C906 C905 1.398 1_455 S
C906 C907 1.391 1_455 S
C907 H895 0.950 1_655 S
C907 C903 1.393 . S
C907 C906 1.391 1_655 S
H908 C916 0.950 . S
H909 C921 0.950 . S
H910 C918 0.950 . S
H911 C920 0.950 . S
H912 C922 0.950 . S
H913 C924 0.950 . S
H914 C926 0.950 . S
H915 C927 0.950 . S
C916 H908 0.950 . S
C916 C917 1.386 . S
C916 C918 1.391 . S
C917 C916 1.386 . S
C917 C921 1.393 . S
C918 H910 0.950 . S
C918 C916 1.391 . S
C918 C919 1.400 . S
C919 C918 1.400 . S
C919 C920 1.398 . S
C919 C925 1.491 1_554 S
C920 H911 0.950 . S
C920 C919 1.398 . S
C920 C921 1.391 . S
C921 H909 0.950 . S
C921 C917 1.393 . S
C921 C920 1.391 . S
C922 H912 0.950 . S
C922 C923 1.386 . S
C922 C924 1.391 . S
C923 C922 1.386 . S
C923 C927 1.393 . S
C924 H913 0.950 . S
C924 C922 1.391 . S
C924 C925 1.400 . S
C925 C919 1.491 1_556 S
C925 C924 1.400 . S
C925 C926 1.398 . S
C926 H914 0.950 . S
C926 C925 1.398 . S
C926 C927 1.391 . S
C927 H915 0.950 . S
C927 C923 1.393 . S
C927 C926 1.391 . S
H928 C936 0.950 . S
H929 C941 0.950 . S
H930 C938 0.950 . S
H931 C940 0.950 . S
H932 C942 0.950 . S
H933 C944 0.950 . S
H934 C946 0.950 . S
H935 C947 0.950 . S
C936 H928 0.950 . S
C936 C937 1.386 . S
C936 C938 1.391 . S
C937 C936 1.386 . S
C937 C941 1.393 . S
C938 H930 0.950 . S
C938 C936 1.391 . S
C938 C939 1.400 . S
C939 C938 1.400 . S
C939 C940 1.398 . S
C939 C945 1.491 . S
C940 H931 0.950 . S
C940 C939 1.398 . S
C940 C941 1.391 . S
C941 H929 0.950 . S
C941 C937 1.393 . S
C941 C940 1.391 . S
C942 H932 0.950 . S
C942 C943 1.386 . S
C942 C944 1.391 . S
C943 C942 1.386 . S
C943 C947 1.393 . S
C944 H933 0.950 . S
C944 C942 1.391 . S
C944 C945 1.400 . S
C945 C939 1.491 . S
C945 C944 1.400 . S
C945 C946 1.398 . S
C946 H934 0.950 . S
C946 C945 1.398 . S
C946 C947 1.391 . S
C947 H935 0.950 . S
C947 C943 1.393 . S
C947 C946 1.391 . S
H948 C956 0.950 . S
H949 C961 0.950 . S
H950 C958 0.950 . S
H951 C960 0.950 . S
H952 C962 0.950 . S
H953 C964 0.950 . S
H954 C966 0.950 . S
H955 C967 0.950 . S
C956 H948 0.950 . S
C956 C957 1.386 . S
C956 C958 1.391 . S
C957 C956 1.386 . S
C957 C961 1.393 . S
C958 H950 0.950 . S
C958 C956 1.391 . S
C958 C959 1.400 . S
C959 C958 1.400 . S
C959 C960 1.398 . S
C959 C965 1.491 . S
C960 H951 0.950 . S
C960 C959 1.398 . S
C960 C961 1.391 . S
C961 H949 0.950 . S
C961 C957 1.393 . S
C961 C960 1.391 . S
C962 H952 0.950 . S
C962 C963 1.386 . S
C962 C964 1.391 . S
C963 C962 1.386 . S
C963 C967 1.393 . S
C964 H953 0.950 . S
C964 C962 1.391 . S
C964 C965 1.400 . S
C965 C959 1.491 . S
C965 C964 1.400 . S
C965 C966 1.398 . S
C966 H954 0.950 . S
C966 C965 1.398 . S
C966 C967 1.391 . S
C967 H955 0.950 . S
C967 C963 1.393 . S
C967 C966 1.391 . S
H968 C976 0.950 . S
H969 C981 0.950 . S
H970 C978 0.950 . S
H971 C980 0.950 . S
H972 C982 0.950 . S
H973 C984 0.950 . S
H974 C986 0.950 . S
H975 C987 0.950 . S
C976 H968 0.950 . S
C976 C977 1.386 . S
C976 C978 1.391 . S
C977 C976 1.386 . S
C977 C981 1.393 1_455 S
C978 H970 0.950 . S
C978 C976 1.391 . S
C978 C979 1.400 . S
C979 C978 1.400 . S
C979 C980 1.398 1_455 S
C979 C985 1.491 1_455 S
C980 H971 0.950 . S
C980 C979 1.398 1_655 S
C980 C981 1.391 . S
C981 H969 0.950 . S
C981 C977 1.393 1_655 S
C981 C980 1.391 . S
C982 H972 0.950 . S
C982 C983 1.386 . S
C982 C984 1.391 . S
C983 C982 1.386 . S
C983 C987 1.393 1_655 S
C984 H973 0.950 . S
C984 C982 1.391 . S
C984 C985 1.400 . S
C985 C979 1.491 1_655 S
C985 C984 1.400 . S
C985 C986 1.398 1_655 S
C986 H974 0.950 . S
C986 C985 1.398 1_455 S
C986 C987 1.391 . S
C987 H975 0.950 . S
C987 C983 1.393 1_455 S
C987 C986 1.391 . S
H988 C996 0.950 . S
H989 C1001 0.950 . S
H990 C998 0.950 . S
H991 C1000 0.950 . S
H992 C1002 0.950 . S
H993 C1004 0.950 . S
H994 C1006 0.950 . S
H995 C1007 0.950 . S
C996 H988 0.950 . S
C996 C997 1.386 . S
C996 C998 1.391 . S
C997 C996 1.386 . S
C997 C1001 1.393 . S
C998 H990 0.950 . S
C998 C996 1.391 . S
C998 C999 1.400 . S
C999 C998 1.400 . S
C999 C1000 1.398 . S
C999 C1005 1.491 1_556 S
C1000 H991 0.950 . S
C1000 C999 1.398 . S
C1000 C1001 1.391 . S
C1001 H989 0.950 . S
C1001 C997 1.393 . S
C1001 C1000 1.391 . S
C1002 H992 0.950 . S
C1002 C1003 1.386 . S
C1002 C1004 1.391 . S
C1003 C1002 1.386 . S
C1003 C1007 1.393 . S
C1004 H993 0.950 . S
C1004 C1002 1.391 . S
C1004 C1005 1.400 . S
C1005 C999 1.491 1_554 S
C1005 C1004 1.400 . S
C1005 C1006 1.398 . S
C1006 H994 0.950 . S
C1006 C1005 1.398 . S
C1006 C1007 1.391 . S
C1007 H995 0.950 . S
C1007 C1003 1.393 . S
C1007 C1006 1.391 . S
H1008 C1016 0.950 . S
H1009 C1021 0.950 . S
H1010 C1018 0.950 . S
H1011 C1020 0.950 . S
H1012 C1022 0.950 . S
H1013 C1024 0.950 . S
H1014 C1026 0.950 . S
H1015 C1027 0.950 . S
C1016 H1008 0.950 . S
C1016 C1017 1.386 . S
C1016 C1018 1.391 . S
C1017 C1016 1.386 . S
C1017 C1021 1.393 . S
C1018 H1010 0.950 . S
C1018 C1016 1.391 . S
C1018 C1019 1.400 . S
C1019 C1018 1.400 . S
C1019 C1020 1.398 . S
C1019 C1025 1.491 . S
C1020 H1011 0.950 . S
C1020 C1019 1.398 . S
C1020 C1021 1.391 . S
C1021 H1009 0.950 . S
C1021 C1017 1.393 . S
C1021 C1020 1.391 . S
C1022 H1012 0.950 . S
C1022 C1023 1.386 . S
C1022 C1024 1.391 . S
C1023 C1022 1.386 . S
C1023 C1027 1.393 . S
C1024 H1013 0.950 . S
C1024 C1022 1.391 . S
C1024 C1025 1.400 . S
C1025 C1019 1.491 . S
C1025 C1024 1.400 . S
C1025 C1026 1.398 . S
C1026 H1014 0.950 . S
C1026 C1025 1.398 . S
C1026 C1027 1.391 . S
C1027 H1015 0.950 . S
C1027 C1023 1.393 . S
C1027 C1026 1.391 . S
H1028 C1036 0.950 . S
H1029 C1041 0.950 . S
H1030 C1038 0.950 . S
H1031 C1040 0.950 . S
H1032 C1042 0.950 . S
H1033 C1044 0.950 . S
H1034 C1046 0.950 . S
H1035 C1047 0.950 . S
C1036 H1028 0.950 . S
C1036 C1037 1.386 . S
C1036 C1038 1.391 . S
C1037 C1036 1.386 . S
C1037 C1041 1.393 . S
C1038 H1030 0.950 . S
C1038 C1036 1.391 . S
C1038 C1039 1.400 . S
C1039 C1038 1.400 . S
C1039 C1040 1.398 . S
C1039 C1045 1.491 . S
C1040 H1031 0.950 . S
C1040 C1039 1.398 . S
C1040 C1041 1.391 . S
C1041 H1029 0.950 . S
C1041 C1037 1.393 . S
C1041 C1040 1.391 . S
C1042 H1032 0.950 . S
C1042 C1043 1.386 . S
C1042 C1044 1.391 . S
C1043 C1042 1.386 . S
C1043 C1047 1.393 . S
C1044 H1033 0.950 . S
C1044 C1042 1.391 . S
C1044 C1045 1.400 . S
C1045 C1039 1.491 . S
C1045 C1044 1.400 . S
C1045 C1046 1.398 . S
C1046 H1034 0.950 . S
C1046 C1045 1.398 . S
C1046 C1047 1.391 . S
C1047 H1035 0.950 . S
C1047 C1043 1.393 . S
C1047 C1046 1.391 . S
H1048 C1056 0.950 . S
H1049 C1061 0.950 . S
H1050 C1058 0.950 . S
H1051 C1060 0.950 . S
H1052 C1062 0.950 . S
H1053 C1064 0.950 . S
H1054 C1066 0.950 . S
H1055 C1067 0.950 . S
C1056 H1048 0.950 . S
C1056 C1057 1.386 . S
C1056 C1058 1.391 . S
C1057 C1056 1.386 . S
C1057 C1061 1.393 1_655 S
C1058 H1050 0.950 . S
C1058 C1056 1.391 . S
C1058 C1059 1.400 . S
C1059 C1058 1.400 . S
C1059 C1060 1.398 1_655 S
C1059 C1065 1.491 1_655 S
C1060 H1051 0.950 . S
C1060 C1059 1.398 1_455 S
C1060 C1061 1.391 . S
C1061 H1049 0.950 . S
C1061 C1057 1.393 1_455 S
C1061 C1060 1.391 . S
C1062 H1052 0.950 . S
C1062 C1063 1.386 . S
C1062 C1064 1.391 . S
C1063 C1062 1.386 . S
C1063 C1067 1.393 1_455 S
C1064 H1053 0.950 . S
C1064 C1062 1.391 . S
C1064 C1065 1.400 . S
C1065 C1059 1.491 1_455 S
C1065 C1064 1.400 . S
C1065 C1066 1.398 1_455 S
C1066 H1054 0.950 . S
C1066 C1065 1.398 1_655 S
C1066 C1067 1.391 . S
C1067 H1055 0.950 . S
C1067 C1063 1.393 1_655 S
C1067 C1066 1.391 . S
H1068 C1076 0.950 . S
H1069 C1081 0.950 . S
H1070 C1078 0.950 . S
H1071 C1080 0.950 . S
H1072 C1082 0.950 . S
H1073 C1084 0.950 . S
H1074 C1086 0.950 . S
H1075 C1087 0.950 . S
C1076 H1068 0.950 . S
C1076 C1077 1.386 . S
C1076 C1078 1.391 . S
C1077 C1076 1.386 . S
C1077 C1081 1.393 . S
C1078 H1070 0.950 . S
C1078 C1076 1.391 . S
C1078 C1079 1.400 . S
C1079 C1078 1.400 . S
C1079 C1080 1.398 . S
C1079 C1085 1.491 1_554 S
C1080 H1071 0.950 . S
C1080 C1079 1.398 . S
C1080 C1081 1.391 . S
C1081 H1069 0.950 . S
C1081 C1077 1.393 . S
C1081 C1080 1.391 . S
C1082 H1072 0.950 . S
C1082 C1083 1.386 . S
C1082 C1084 1.391 . S
C1083 C1082 1.386 . S
C1083 C1087 1.393 . S
C1084 H1073 0.950 . S
C1084 C1082 1.391 . S
C1084 C1085 1.400 . S
C1085 C1079 1.491 1_556 S
C1085 C1084 1.400 . S
C1085 C1086 1.398 . S
C1086 H1074 0.950 . S
C1086 C1085 1.398 . S
C1086 C1087 1.391 . S
C1087 H1075 0.950 . S
C1087 C1083 1.393 . S
C1087 C1086 1.391 . S
H1088 C1096 0.950 . S
H1089 C1101 0.950 1_655 S
H1090 C1098 0.951 1_565 S
H1091 C1100 0.950 1_556 S
H1092 C1102 0.950 . S
H1093 C1104 0.951 1_545 S
H1094 C1106 0.950 1_554 S
H1095 C1107 0.950 1_455 S
C1096 H1088 0.950 . S
C1096 C1097 1.386 . S
C1096 C1098 1.391 . S
C1097 C1096 1.386 . S
C1097 C1101 1.393 . S
C1098 H1090 0.951 1_545 S
C1098 C1096 1.391 . S
C1098 C1099 1.400 . S
C1099 C1098 1.400 . S
C1099 C1100 1.398 1_455 S
C1099 C1105 1.491 1_444 S
C1100 H1091 0.950 1_554 S
C1100 C1099 1.398 1_655 S
C1100 C1101 1.391 1_655 S
C1101 H1089 0.950 1_455 S
C1101 C1097 1.393 . S
C1101 C1100 1.391 1_455 S
C1102 H1092 0.950 . S
C1102 C1103 1.386 . S
C1102 C1104 1.391 . S
C1103 C1102 1.386 . S
C1103 C1107 1.393 . S
C1104 H1093 0.951 1_565 S
C1104 C1102 1.391 . S
C1104 C1105 1.400 . S
C1105 C1099 1.491 1_666 S
C1105 C1104 1.400 . S
C1105 C1106 1.398 1_655 S
C1106 H1094 0.950 1_556 S
C1106 C1105 1.398 1_455 S
C1106 C1107 1.391 1_455 S
C1107 H1095 0.950 1_655 S
C1107 C1103 1.393 . S
C1107 C1106 1.391 1_655 S
H1108 C1116 0.950 . S
H1109 C1121 0.950 . S
H1110 C1118 0.950 . S
H1111 C1120 0.950 . S
H1112 C1122 0.950 . S
H1113 C1124 0.950 . S
H1114 C1126 0.950 . S
H1115 C1127 0.950 . S
C1116 H1108 0.950 . S
C1116 C1117 1.386 . S
C1116 C1118 1.391 . S
C1117 C1116 1.386 . S
C1117 C1121 1.393 . S
C1118 H1110 0.950 . S
C1118 C1116 1.391 . S
C1118 C1119 1.400 . S
C1119 C1118 1.400 . S
C1119 C1120 1.398 . S
C1119 C1125 1.491 . S
C1120 H1111 0.950 . S
C1120 C1119 1.398 . S
C1120 C1121 1.391 . S
C1121 H1109 0.950 . S
C1121 C1117 1.393 . S
C1121 C1120 1.391 . S
C1122 H1112 0.950 . S
C1122 C1123 1.386 . S
C1122 C1124 1.391 . S
C1123 C1122 1.386 . S
C1123 C1127 1.393 . S
C1124 H1113 0.950 . S
C1124 C1122 1.391 . S
C1124 C1125 1.400 . S
C1125 C1119 1.491 . S
C1125 C1124 1.400 . S
C1125 C1126 1.398 . S
C1126 H1114 0.950 . S
C1126 C1125 1.398 . S
C1126 C1127 1.391 . S
C1127 H1115 0.950 . S
C1127 C1123 1.393 . S
C1127 C1126 1.391 . S
H1128 C1136 0.950 . S
H1129 C1141 0.950 . S
H1130 C1138 0.950 1_565 S
H1131 C1140 0.950 . S
H1132 C1142 0.950 . S
H1133 C1144 0.950 1_545 S
H1134 C1146 0.950 . S
H1135 C1147 0.950 . S
C1136 H1128 0.950 . S
C1136 C1137 1.386 . S
C1136 C1138 1.391 . S
C1137 C1136 1.386 . S
C1137 C1141 1.393 . S
C1138 H1130 0.950 1_545 S
C1138 C1136 1.391 . S
C1138 C1139 1.400 . S
C1139 C1138 1.400 . S
C1139 C1140 1.398 . S
C1139 C1145 1.491 1_545 S
C1140 H1131 0.950 . S
C1140 C1139 1.398 . S
C1140 C1141 1.391 . S
C1141 H1129 0.950 . S
C1141 C1137 1.393 . S
C1141 C1140 1.391 . S
C1142 H1132 0.950 . S
C1142 C1143 1.386 . S
C1142 C1144 1.391 . S
C1143 C1142 1.386 . S
C1143 C1147 1.393 . S
C1144 H1133 0.950 1_565 S
C1144 C1142 1.391 . S
C1144 C1145 1.400 . S
C1145 C1139 1.491 1_565 S
C1145 C1144 1.400 . S
C1145 C1146 1.398 . S
C1146 H1134 0.950 . S
C1146 C1145 1.398 . S
C1146 C1147 1.391 . S
C1147 H1135 0.950 . S
C1147 C1143 1.393 . S
C1147 C1146 1.391 . S
H1148 C1156 0.950 . S
H1149 C1161 0.950 . S
H1150 C1158 0.950 . S
H1151 C1160 0.950 . S
H1152 C1162 0.950 . S
H1153 C1164 0.950 . S
H1154 C1166 0.950 . S
H1155 C1167 0.950 . S
C1156 H1148 0.950 . S
C1156 C1157 1.386 . S
C1156 C1158 1.391 . S
C1157 C1156 1.386 . S
C1157 C1161 1.393 . S
C1158 H1150 0.950 . S
C1158 C1156 1.391 . S
C1158 C1159 1.400 . S
C1159 C1158 1.400 . S
C1159 C1160 1.398 . S
C1159 C1165 1.491 . S
C1160 H1151 0.950 . S
C1160 C1159 1.398 . S
C1160 C1161 1.391 . S
C1161 H1149 0.950 . S
C1161 C1157 1.393 . S
C1161 C1160 1.391 . S
C1162 H1152 0.950 . S
C1162 C1163 1.386 . S
C1162 C1164 1.391 . S
C1163 C1162 1.386 . S
C1163 C1167 1.393 . S
C1164 H1153 0.950 . S
C1164 C1162 1.391 . S
C1164 C1165 1.400 . S
C1165 C1159 1.491 . S
C1165 C1164 1.400 . S
C1165 C1166 1.398 . S
C1166 H1154 0.950 . S
C1166 C1165 1.398 . S
C1166 C1167 1.391 . S
C1167 H1155 0.950 . S
C1167 C1163 1.393 . S
C1167 C1166 1.391 . S
H1168 C1176 0.950 1_655 S
H1169 C1181 0.950 . S
H1170 C1178 0.950 . S
H1171 C1180 0.950 . S
H1172 C1182 0.950 1_455 S
H1173 C1184 0.950 . S
H1174 C1186 0.950 . S
H1175 C1187 0.950 . S
C1176 H1168 0.950 1_455 S
C1176 C1177 1.386 . S
C1176 C1178 1.391 1_455 S
C1177 C1176 1.386 . S
C1177 C1181 1.393 . S
C1178 H1170 0.950 . S
C1178 C1176 1.391 1_655 S
C1178 C1179 1.400 1_655 S
C1179 C1178 1.400 1_455 S
C1179 C1180 1.398 . S
C1179 C1185 1.491 1_465 S
C1180 H1171 0.950 . S
C1180 C1179 1.398 . S
C1180 C1181 1.391 . S
C1181 H1169 0.950 . S
C1181 C1177 1.393 . S
C1181 C1180 1.391 . S
C1182 H1172 0.950 1_655 S
C1182 C1183 1.386 . S
C1182 C1184 1.391 1_655 S
C1183 C1182 1.386 . S
C1183 C1187 1.393 . S
C1184 H1173 0.950 . S
C1184 C1182 1.391 1_455 S
C1184 C1185 1.400 1_455 S
C1185 C1179 1.491 1_645 S
C1185 C1184 1.400 1_655 S
C1185 C1186 1.398 . S
C1186 H1174 0.950 . S
C1186 C1185 1.398 . S
C1186 C1187 1.391 . S
C1187 H1175 0.950 . S
C1187 C1183 1.393 . S
C1187 C1186 1.391 . S
H1188 C1196 0.950 . S
H1189 C1201 0.950 . S
H1190 C1198 0.950 . S
H1191 C1200 0.950 . S
H1192 C1202 0.950 . S
H1193 C1204 0.950 . S
H1194 C1206 0.950 . S
H1195 C1207 0.950 . S
C1196 H1188 0.950 . S
C1196 C1197 1.386 . S
C1196 C1198 1.391 . S
C1197 C1196 1.386 . S
C1197 C1201 1.393 . S
C1198 H1190 0.950 . S
C1198 C1196 1.391 . S
C1198 C1199 1.400 . S
C1199 C1198 1.400 . S
C1199 C1200 1.398 . S
C1199 C1205 1.491 . S
C1200 H1191 0.950 . S
C1200 C1199 1.398 . S
C1200 C1201 1.391 . S
C1201 H1189 0.950 . S
C1201 C1197 1.393 . S
C1201 C1200 1.391 . S
C1202 H1192 0.950 . S
C1202 C1203 1.386 . S
C1202 C1204 1.391 . S
C1203 C1202 1.386 . S
C1203 C1207 1.393 . S
C1204 H1193 0.950 . S
C1204 C1202 1.391 . S
C1204 C1205 1.400 . S
C1205 C1199 1.491 . S
C1205 C1204 1.400 . S
C1205 C1206 1.398 . S
C1206 H1194 0.950 . S
C1206 C1205 1.398 . S
C1206 C1207 1.391 . S
C1207 H1195 0.950 . S
C1207 C1203 1.393 . S
C1207 C1206 1.391 . S
H1208 C1216 0.946 1_556 S
H1209 C1221 0.950 . S
H1210 C1218 0.950 . S
H1211 C1220 0.935 1_545 S
H1212 C1222 0.946 1_554 S
H1213 C1224 0.950 . S
H1214 C1226 0.935 1_565 S
H1215 C1227 0.950 . S
C1216 H1208 0.946 1_554 S
C1216 C1217 1.386 . S
C1216 C1218 1.391 1_554 S
C1217 C1216 1.386 . S
C1217 C1221 1.393 . S
C1218 H1210 0.950 . S
C1218 C1216 1.391 1_556 S
C1218 C1219 1.400 1_556 S
C1219 C1218 1.400 1_554 S
C1219 C1220 1.398 . S
C1219 C1225 1.491 1_564 S
C1220 H1211 0.935 1_565 S
C1220 C1219 1.398 . S
C1220 C1221 1.391 . S
C1221 H1209 0.950 . S
C1221 C1217 1.393 . S
C1221 C1220 1.391 . S
C1222 H1212 0.946 1_556 S
C1222 C1223 1.386 . S
C1222 C1224 1.391 1_556 S
C1223 C1222 1.386 . S
C1223 C1227 1.393 . S
C1224 H1213 0.950 . S
C1224 C1222 1.391 1_554 S
C1224 C1225 1.400 1_554 S
C1225 C1219 1.491 1_546 S
C1225 C1224 1.400 1_556 S
C1225 C1226 1.398 . S
C1226 H1214 0.935 1_545 S
C1226 C1225 1.398 . S
C1226 C1227 1.391 . S
C1227 H1215 0.950 . S
C1227 C1223 1.393 . S
C1227 C1226 1.391 . S
H1228 C1236 0.950 . S
H1229 C1241 0.950 . S
H1230 C1238 0.950 . S
H1231 C1240 0.950 . S
H1232 C1242 0.950 . S
H1233 C1244 0.950 . S
H1234 C1246 0.950 . S
H1235 C1247 0.950 . S
C1236 H1228 0.950 . S
C1236 C1237 1.386 . S
C1236 C1238 1.391 . S
C1237 C1236 1.386 . S
C1237 C1241 1.393 . S
C1238 H1230 0.950 . S
C1238 C1236 1.391 . S
C1238 C1239 1.400 . S
C1239 C1238 1.400 . S
C1239 C1240 1.398 . S
C1239 C1245 1.491 . S
C1240 H1231 0.950 . S
C1240 C1239 1.398 . S
C1240 C1241 1.391 . S
C1241 H1229 0.950 . S
C1241 C1237 1.393 . S
C1241 C1240 1.391 . S
C1242 H1232 0.950 . S
C1242 C1243 1.386 . S
C1242 C1244 1.391 . S
C1243 C1242 1.386 . S
C1243 C1247 1.393 . S
C1244 H1233 0.950 . S
C1244 C1242 1.391 . S
C1244 C1245 1.400 . S
C1245 C1239 1.491 . S
C1245 C1244 1.400 . S
C1245 C1246 1.398 . S
C1246 H1234 0.950 . S
C1246 C1245 1.398 . S
C1246 C1247 1.391 . S
C1247 H1235 0.950 . S
C1247 C1243 1.393 . S
C1247 C1246 1.391 . S
H1248 C1256 0.950 . S
H1249 C1261 0.950 . S
H1250 C1258 0.950 . S
H1251 C1260 0.950 . S
H1252 C1262 0.950 . S
H1253 C1264 0.950 . S
H1254 C1266 0.950 . S
H1255 C1267 0.950 . S
C1256 H1248 0.950 . S
C1256 C1257 1.386 . S
C1256 C1258 1.391 . S
C1257 C1256 1.386 . S
C1257 C1261 1.393 . S
C1258 H1250 0.950 . S
C1258 C1256 1.391 . S
C1258 C1259 1.400 . S
C1259 C1258 1.400 . S
C1259 C1260 1.398 . S
C1259 C1265 1.491 . S
C1260 H1251 0.950 . S
C1260 C1259 1.398 . S
C1260 C1261 1.391 . S
C1261 H1249 0.950 . S
C1261 C1257 1.393 . S
C1261 C1260 1.391 . S
C1262 H1252 0.950 . S
C1262 C1263 1.386 . S
C1262 C1264 1.391 . S
C1263 C1262 1.386 . S
C1263 C1267 1.393 . S
C1264 H1253 0.950 . S
C1264 C1262 1.391 . S
C1264 C1265 1.400 . S
C1265 C1259 1.491 . S
C1265 C1264 1.400 . S
C1265 C1266 1.398 . S
C1266 H1254 0.950 . S
C1266 C1265 1.398 . S
C1266 C1267 1.391 . S
C1267 H1255 0.950 . S
C1267 C1263 1.393 . S
C1267 C1266 1.391 . S
H1268 C1276 0.950 . S
H1269 C1281 0.950 . S
H1270 C1278 0.950 . S
H1271 C1280 0.950 . S
H1272 C1282 0.950 . S
H1273 C1284 0.950 . S
H1274 C1286 0.950 . S
H1275 C1287 0.950 . S
C1276 H1268 0.950 . S
C1276 C1277 1.386 . S
C1276 C1278 1.391 . S
C1277 C1276 1.386 . S
C1277 C1281 1.393 . S
C1278 H1270 0.950 . S
C1278 C1276 1.391 . S
C1278 C1279 1.400 . S
C1279 C1278 1.400 . S
C1279 C1280 1.398 . S
C1279 C1285 1.491 . S
C1280 H1271 0.950 . S
C1280 C1279 1.398 . S
C1280 C1281 1.391 . S
C1281 H1269 0.950 . S
C1281 C1277 1.393 . S
C1281 C1280 1.391 . S
C1282 H1272 0.950 . S
C1282 C1283 1.386 . S
C1282 C1284 1.391 . S
C1283 C1282 1.386 . S
C1283 C1287 1.393 . S
C1284 H1273 0.950 . S
C1284 C1282 1.391 . S
C1284 C1285 1.400 . S
C1285 C1279 1.491 . S
C1285 C1284 1.400 . S
C1285 C1286 1.398 . S
C1286 H1274 0.950 . S
C1286 C1285 1.398 . S
C1286 C1287 1.391 . S
C1287 H1275 0.950 . S
C1287 C1283 1.393 . S
C1287 C1286 1.391 . S
H1288 C1296 0.950 . S
H1289 C1301 0.950 . S
H1290 C1298 0.950 . S
H1291 C1300 0.950 . S
H1292 C1302 0.950 . S
H1293 C1304 0.950 . S
H1294 C1306 0.950 . S
H1295 C1307 0.950 . S
C1296 H1288 0.950 . S
C1296 C1297 1.386 . S
C1296 C1298 1.391 . S
C1297 C1296 1.386 . S
C1297 C1301 1.393 . S
C1298 H1290 0.950 . S
C1298 C1296 1.391 . S
C1298 C1299 1.400 . S
C1299 C1298 1.400 . S
C1299 C1300 1.398 . S
C1299 C1305 1.491 . S
C1300 H1291 0.950 . S
C1300 C1299 1.398 . S
C1300 C1301 1.391 . S
C1301 H1289 0.950 . S
C1301 C1297 1.393 . S
C1301 C1300 1.391 . S
C1302 H1292 0.950 . S
C1302 C1303 1.386 . S
C1302 C1304 1.391 . S
C1303 C1302 1.386 . S
C1303 C1307 1.393 . S
C1304 H1293 0.950 . S
C1304 C1302 1.391 . S
C1304 C1305 1.400 . S
C1305 C1299 1.491 . S
C1305 C1304 1.400 . S
C1305 C1306 1.398 . S
C1306 H1294 0.950 . S
C1306 C1305 1.398 . S
C1306 C1307 1.391 . S
C1307 H1295 0.950 . S
C1307 C1303 1.393 . S
C1307 C1306 1.391 . S
H1308 C1316 0.950 . S
H1309 C1321 0.950 . S
H1310 C1318 0.950 . S
H1311 C1320 0.950 . S
H1312 C1322 0.950 . S
H1313 C1324 0.950 . S
H1314 C1326 0.950 . S
H1315 C1327 0.950 . S
C1316 H1308 0.950 . S
C1316 C1317 1.386 . S
C1316 C1318 1.391 . S
C1317 C1316 1.386 . S
C1317 C1321 1.393 . S
C1318 H1310 0.950 . S
C1318 C1316 1.391 . S
C1318 C1319 1.400 . S
C1319 C1318 1.400 . S
C1319 C1320 1.398 . S
C1319 C1325 1.491 . S
C1320 H1311 0.950 . S
C1320 C1319 1.398 . S
C1320 C1321 1.391 . S
C1321 H1309 0.950 . S
C1321 C1317 1.393 . S
C1321 C1320 1.391 . S
C1322 H1312 0.950 . S
C1322 C1323 1.386 . S
C1322 C1324 1.391 . S
C1323 C1322 1.386 . S
C1323 C1327 1.393 . S
C1324 H1313 0.950 . S
C1324 C1322 1.391 . S
C1324 C1325 1.400 . S
C1325 C1319 1.491 . S
C1325 C1324 1.400 . S
C1325 C1326 1.398 . S
C1326 H1314 0.950 . S
C1326 C1325 1.398 . S
C1326 C1327 1.391 . S
C1327 H1315 0.950 . S
C1327 C1323 1.393 . S
C1327 C1326 1.391 . S
H1328 C1336 0.950 . S
H1329 C1341 0.950 . S
H1330 C1338 0.950 . S
H1331 C1340 0.950 . S
H1332 C1342 0.950 . S
H1333 C1344 0.950 . S
H1334 C1346 0.950 . S
H1335 C1347 0.950 . S
C1336 H1328 0.950 . S
C1336 C1337 1.386 . S
C1336 C1338 1.391 . S
C1337 C1336 1.386 . S
C1337 C1341 1.393 . S
C1338 H1330 0.950 . S
C1338 C1336 1.391 . S
C1338 C1339 1.400 . S
C1339 C1338 1.400 . S
C1339 C1340 1.398 . S
C1339 C1345 1.491 . S
C1340 H1331 0.950 . S
C1340 C1339 1.398 . S
C1340 C1341 1.391 . S
C1341 H1329 0.950 . S
C1341 C1337 1.393 . S
C1341 C1340 1.391 . S
C1342 H1332 0.950 . S
C1342 C1343 1.386 . S
C1342 C1344 1.391 . S
C1343 C1342 1.386 . S
C1343 C1347 1.393 . S
C1344 H1333 0.950 . S
C1344 C1342 1.391 . S
C1344 C1345 1.400 . S
C1345 C1339 1.491 . S
C1345 C1344 1.400 . S
C1345 C1346 1.398 . S
C1346 H1334 0.950 . S
C1346 C1345 1.398 . S
C1346 C1347 1.391 . S
C1347 H1335 0.950 . S
C1347 C1343 1.393 . S
C1347 C1346 1.391 . S
H1348 C1356 0.950 . S
H1349 C1361 0.950 . S
H1350 C1358 0.949 1_455 S
H1351 C1360 0.950 . S
H1352 C1362 0.950 . S
H1353 C1364 0.949 1_655 S
H1354 C1366 0.950 . S
H1355 C1367 0.950 . S
C1356 H1348 0.950 . S
C1356 C1357 1.386 . S
C1356 C1358 1.391 . S
C1357 C1356 1.386 . S
C1357 C1361 1.393 1_554 S
C1358 H1350 0.949 1_655 S
C1358 C1356 1.391 . S
C1358 C1359 1.400 . S
C1359 C1358 1.400 . S
C1359 C1360 1.398 1_554 S
C1359 C1365 1.491 1_654 S
C1360 H1351 0.950 . S
C1360 C1359 1.398 1_556 S
C1360 C1361 1.391 . S
C1361 H1349 0.950 . S
C1361 C1357 1.393 1_556 S
C1361 C1360 1.391 . S
C1362 H1352 0.950 . S
C1362 C1363 1.386 . S
C1362 C1364 1.391 . S
C1363 C1362 1.386 . S
C1363 C1367 1.393 1_556 S
C1364 H1353 0.949 1_455 S
C1364 C1362 1.391 . S
C1364 C1365 1.400 . S
C1365 C1359 1.491 1_456 S
C1365 C1364 1.400 . S
C1365 C1366 1.398 1_556 S
C1366 H1354 0.950 . S
C1366 C1365 1.398 1_554 S
C1366 C1367 1.391 . S
C1367 H1355 0.950 . S
C1367 C1363 1.393 1_554 S
C1367 C1366 1.391 . S
H1368 C1376 0.950 . S
H1369 C1381 0.950 . S
H1370 C1378 0.950 . S
H1371 C1380 0.950 . S
H1372 C1382 0.950 . S
H1373 C1384 0.950 . S
H1374 C1386 0.950 . S
H1375 C1387 0.950 . S
C1376 H1368 0.950 . S
C1376 C1377 1.386 1_554 S
C1376 C1378 1.391 . S
C1377 C1376 1.386 1_556 S
C1377 C1381 1.393 . S
C1378 H1370 0.950 . S
C1378 C1376 1.391 . S
C1378 C1379 1.400 1_554 S
C1379 C1378 1.400 1_556 S
C1379 C1380 1.398 . S
C1379 C1385 1.491 1_556 S
C1380 H1371 0.950 . S
C1380 C1379 1.398 . S
C1380 C1381 1.391 . S
C1381 H1369 0.950 . S
C1381 C1377 1.393 . S
C1381 C1380 1.391 . S
C1382 H1372 0.950 . S
C1382 C1383 1.386 1_556 S
C1382 C1384 1.391 . S
C1383 C1382 1.386 1_554 S
C1383 C1387 1.393 . S
C1384 H1373 0.950 . S
C1384 C1382 1.391 . S
C1384 C1385 1.400 1_556 S
C1385 C1379 1.491 1_554 S
C1385 C1384 1.400 1_554 S
C1385 C1386 1.398 . S
C1386 H1374 0.950 . S
C1386 C1385 1.398 . S
C1386 C1387 1.391 . S
C1387 H1375 0.950 . S
C1387 C1383 1.393 . S
C1387 C1386 1.391 . S
H1388 C1396 0.950 1_655 S
H1389 C1401 0.950 . S
H1390 C1398 0.950 . S
H1391 C1400 0.950 . S
H1392 C1402 0.950 1_455 S
H1393 C1404 0.950 . S
H1394 C1406 0.950 . S
H1395 C1407 0.950 . S
C1396 H1388 0.950 1_455 S
C1396 C1397 1.386 . S
C1396 C1398 1.391 1_455 S
C1397 C1396 1.386 . S
C1397 C1401 1.393 . S
C1398 H1390 0.950 . S
C1398 C1396 1.391 1_655 S
C1398 C1399 1.400 1_655 S
C1399 C1398 1.400 1_455 S
C1399 C1400 1.398 . S
C1399 C1405 1.491 1_455 S
C1400 H1391 0.950 . S
C1400 C1399 1.398 . S
C1400 C1401 1.391 . S
C1401 H1389 0.950 . S
C1401 C1397 1.393 . S
C1401 C1400 1.391 . S
C1402 H1392 0.950 1_655 S
C1402 C1403 1.386 . S
C1402 C1404 1.391 1_655 S
C1403 C1402 1.386 . S
C1403 C1407 1.393 . S
C1404 H1393 0.950 . S
C1404 C1402 1.391 1_455 S
C1404 C1405 1.400 1_455 S
C1405 C1399 1.491 1_655 S
C1405 C1404 1.400 1_655 S
C1405 C1406 1.398 . S
C1406 H1394 0.950 . S
C1406 C1405 1.398 . S
C1406 C1407 1.391 . S
C1407 H1395 0.950 . S
C1407 C1403 1.393 . S
C1407 C1406 1.391 . S
H1408 C1416 0.950 . S
H1409 C1421 0.950 . S
H1410 C1418 0.950 . S
H1411 C1420 0.950 . S
H1412 C1422 0.950 . S
H1413 C1424 0.950 . S
H1414 C1426 0.950 . S
H1415 C1427 0.950 . S
C1416 H1408 0.950 . S
C1416 C1417 1.386 . S
C1416 C1418 1.391 . S
C1417 C1416 1.386 . S
C1417 C1421 1.393 . S
C1418 H1410 0.950 . S
C1418 C1416 1.391 . S
C1418 C1419 1.400 . S
C1419 C1418 1.400 . S
C1419 C1420 1.398 . S
C1419 C1425 1.491 . S
C1420 H1411 0.950 . S
C1420 C1419 1.398 . S
C1420 C1421 1.391 . S
C1421 H1409 0.950 . S
C1421 C1417 1.393 . S
C1421 C1420 1.391 . S
C1422 H1412 0.950 . S
C1422 C1423 1.386 . S
C1422 C1424 1.391 . S
C1423 C1422 1.386 . S
C1423 C1427 1.393 . S
C1424 H1413 0.950 . S
C1424 C1422 1.391 . S
C1424 C1425 1.400 . S
C1425 C1419 1.491 . S
C1425 C1424 1.400 . S
C1425 C1426 1.398 . S
C1426 H1414 0.950 . S
C1426 C1425 1.398 . S
C1426 C1427 1.391 . S
C1427 H1415 0.950 . S
C1427 C1423 1.393 . S
C1427 C1426 1.391 . S
H1428 C1436 0.950 . S
H1429 C1441 0.950 . S
H1430 C1438 0.950 . S
H1431 C1440 0.950 . S
H1432 C1442 0.950 . S
H1433 C1444 0.950 . S
H1434 C1446 0.950 . S
H1435 C1447 0.950 . S
C1436 H1428 0.950 . S
C1436 C1437 1.386 . S
C1436 C1438 1.391 . S
C1437 C1436 1.386 . S
C1437 C1441 1.393 . S
C1438 H1430 0.950 . S
C1438 C1436 1.391 . S
C1438 C1439 1.400 . S
C1439 C1438 1.400 . S
C1439 C1440 1.398 . S
C1439 C1445 1.491 . S
C1440 H1431 0.950 . S
C1440 C1439 1.398 . S
C1440 C1441 1.391 . S
C1441 H1429 0.950 . S
C1441 C1437 1.393 . S
C1441 C1440 1.391 . S
C1442 H1432 0.950 . S
C1442 C1443 1.386 . S
C1442 C1444 1.391 . S
C1443 C1442 1.386 . S
C1443 C1447 1.393 . S
C1444 H1433 0.950 . S
C1444 C1442 1.391 . S
C1444 C1445 1.400 . S
C1445 C1439 1.491 . S
C1445 C1444 1.400 . S
C1445 C1446 1.398 . S
C1446 H1434 0.950 . S
C1446 C1445 1.398 . S
C1446 C1447 1.391 . S
C1447 H1435 0.950 . S
C1447 C1443 1.393 . S
C1447 C1446 1.391 . S
H1448 C1456 0.950 . S
H1449 C1461 0.950 . S
H1450 C1458 0.950 . S
H1451 C1460 0.950 . S
H1452 C1462 0.950 . S
H1453 C1464 0.950 . S
H1454 C1466 0.950 . S
H1455 C1467 0.950 . S
C1456 H1448 0.950 . S
C1456 C1457 1.386 . S
C1456 C1458 1.391 . S
C1457 C1456 1.386 . S
C1457 C1461 1.393 . S
C1458 H1450 0.950 . S
C1458 C1456 1.391 . S
C1458 C1459 1.400 . S
C1459 C1458 1.400 . S
C1459 C1460 1.398 . S
C1459 C1465 1.491 . S
C1460 H1451 0.950 . S
C1460 C1459 1.398 . S
C1460 C1461 1.391 . S
C1461 H1449 0.950 . S
C1461 C1457 1.393 . S
C1461 C1460 1.391 . S
C1462 H1452 0.950 . S
C1462 C1463 1.386 . S
C1462 C1464 1.391 . S
C1463 C1462 1.386 . S
C1463 C1467 1.393 . S
C1464 H1453 0.950 . S
C1464 C1462 1.391 . S
C1464 C1465 1.400 . S
C1465 C1459 1.491 . S
C1465 C1464 1.400 . S
C1465 C1466 1.398 . S
C1466 H1454 0.950 . S
C1466 C1465 1.398 . S
C1466 C1467 1.391 . S
C1467 H1455 0.950 . S
C1467 C1463 1.393 . S
C1467 C1466 1.391 . S
H1468 C1476 0.950 . S
H1469 C1481 0.950 . S
H1470 C1478 0.950 . S
H1471 C1480 0.950 . S
H1472 C1482 0.950 . S
H1473 C1484 0.950 . S
H1474 C1486 0.950 . S
H1475 C1487 0.950 . S
C1476 H1468 0.950 . S
C1476 C1477 1.386 . S
C1476 C1478 1.391 . S
C1477 C1476 1.386 . S
C1477 C1481 1.393 . S
C1478 H1470 0.950 . S
C1478 C1476 1.391 . S
C1478 C1479 1.400 . S
C1479 C1478 1.400 . S
C1479 C1480 1.398 . S
C1479 C1485 1.491 . S
C1480 H1471 0.950 . S
C1480 C1479 1.398 . S
C1480 C1481 1.391 . S
C1481 H1469 0.950 . S
C1481 C1477 1.393 . S
C1481 C1480 1.391 . S
C1482 H1472 0.950 . S
C1482 C1483 1.386 . S
C1482 C1484 1.391 . S
C1483 C1482 1.386 . S
C1483 C1487 1.393 . S
C1484 H1473 0.950 . S
C1484 C1482 1.391 . S
C1484 C1485 1.400 . S
C1485 C1479 1.491 . S
C1485 C1484 1.400 . S
C1485 C1486 1.398 . S
C1486 H1474 0.950 . S
C1486 C1485 1.398 . S
C1486 C1487 1.391 . S
C1487 H1475 0.950 . S
C1487 C1483 1.393 . S
C1487 C1486 1.391 . S
H1488 C1496 0.950 . S
H1489 C1501 0.950 . S
H1490 C1498 0.950 . S
H1491 C1500 0.950 . S
H1492 C1502 0.950 . S
H1493 C1504 0.950 . S
H1494 C1506 0.950 . S
H1495 C1507 0.950 . S
C1496 H1488 0.950 . S
C1496 C1497 1.386 . S
C1496 C1498 1.391 . S
C1497 C1496 1.386 . S
C1497 C1501 1.393 . S
C1498 H1490 0.950 . S
C1498 C1496 1.391 . S
C1498 C1499 1.400 . S
C1499 C1498 1.400 . S
C1499 C1500 1.398 . S
C1499 C1505 1.491 . S
C1500 H1491 0.950 . S
C1500 C1499 1.398 . S
C1500 C1501 1.391 . S
C1501 H1489 0.950 . S
C1501 C1497 1.393 . S
C1501 C1500 1.391 . S
C1502 H1492 0.950 . S
C1502 C1503 1.386 . S
C1502 C1504 1.391 . S
C1503 C1502 1.386 . S
C1503 C1507 1.393 . S
C1504 H1493 0.950 . S
C1504 C1502 1.391 . S
C1504 C1505 1.400 . S
C1505 C1499 1.491 . S
C1505 C1504 1.400 . S
C1505 C1506 1.398 . S
C1506 H1494 0.950 . S
C1506 C1505 1.398 . S
C1506 C1507 1.391 . S
C1507 H1495 0.950 . S
C1507 C1503 1.393 . S
C1507 C1506 1.391 . S
H1508 C1516 0.950 . S
H1509 C1521 0.950 . S
H1510 C1518 0.950 . S
H1511 C1520 0.950 . S
H1512 C1522 0.950 . S
H1513 C1524 0.950 . S
H1514 C1526 0.950 . S
H1515 C1527 0.950 . S
C1516 H1508 0.950 . S
C1516 C1517 1.386 . S
C1516 C1518 1.391 . S
C1517 C1516 1.386 . S
C1517 C1521 1.393 . S
C1518 H1510 0.950 . S
C1518 C1516 1.391 . S
C1518 C1519 1.400 . S
C1519 C1518 1.400 . S
C1519 C1520 1.398 . S
C1519 C1525 1.491 . S
C1520 H1511 0.950 . S
C1520 C1519 1.398 . S
C1520 C1521 1.391 . S
C1521 H1509 0.950 . S
C1521 C1517 1.393 . S
C1521 C1520 1.391 . S
C1522 H1512 0.950 . S
C1522 C1523 1.386 . S
C1522 C1524 1.391 . S
C1523 C1522 1.386 . S
C1523 C1527 1.393 . S
C1524 H1513 0.950 . S
C1524 C1522 1.391 . S
C1524 C1525 1.400 . S
C1525 C1519 1.491 . S
C1525 C1524 1.400 . S
C1525 C1526 1.398 . S
C1526 H1514 0.950 . S
C1526 C1525 1.398 . S
C1526 C1527 1.391 . S
C1527 H1515 0.950 . S
C1527 C1523 1.393 . S
C1527 C1526 1.391 . S
H1528 C1536 0.950 . S
H1529 C1541 0.950 . S
H1530 C1538 0.950 . S
H1531 C1540 0.950 . S
H1532 C1542 0.950 . S
H1533 C1544 0.950 . S
H1534 C1546 0.950 . S
H1535 C1547 0.950 . S
C1536 H1528 0.950 . S
C1536 C1537 1.386 . S
C1536 C1538 1.391 . S
C1537 C1536 1.386 . S
C1537 C1541 1.393 . S
C1538 H1530 0.950 . S
C1538 C1536 1.391 . S
C1538 C1539 1.400 . S
C1539 C1538 1.400 . S
C1539 C1540 1.398 . S
C1539 C1545 1.491 . S
C1540 H1531 0.950 . S
C1540 C1539 1.398 . S
C1540 C1541 1.391 . S
C1541 H1529 0.950 . S
C1541 C1537 1.393 . S
C1541 C1540 1.391 . S
C1542 H1532 0.950 . S
C1542 C1543 1.386 . S
C1542 C1544 1.391 . S
C1543 C1542 1.386 . S
C1543 C1547 1.393 . S
C1544 H1533 0.950 . S
C1544 C1542 1.391 . S
C1544 C1545 1.400 . S
C1545 C1539 1.491 . S
C1545 C1544 1.400 . S
C1545 C1546 1.398 . S
C1546 H1534 0.950 . S
C1546 C1545 1.398 . S
C1546 C1547 1.391 . S
C1547 H1535 0.950 . S
C1547 C1543 1.393 . S
C1547 C1546 1.391 . S
H1548 C1556 0.950 . S
H1549 C1561 0.950 . S
H1550 C1558 0.950 . S
H1551 C1560 0.950 . S
H1552 C1562 0.950 . S
H1553 C1564 0.950 . S
H1554 C1566 0.950 . S
H1555 C1567 0.950 . S
C1556 H1548 0.950 . S
C1556 C1557 1.386 . S
C1556 C1558 1.391 . S
C1557 C1556 1.386 . S
C1557 C1561 1.393 . S
C1558 H1550 0.950 . S
C1558 C1556 1.391 . S
C1558 C1559 1.400 . S
C1559 C1558 1.400 . S
C1559 C1560 1.398 . S
C1559 C1565 1.491 . S
C1560 H1551 0.950 . S
C1560 C1559 1.398 . S
C1560 C1561 1.391 . S
C1561 H1549 0.950 . S
C1561 C1557 1.393 . S
C1561 C1560 1.391 . S
C1562 H1552 0.950 . S
C1562 C1563 1.386 . S
C1562 C1564 1.391 . S
C1563 C1562 1.386 . S
C1563 C1567 1.393 . S
C1564 H1553 0.950 . S
C1564 C1562 1.391 . S
C1564 C1565 1.400 . S
C1565 C1559 1.491 . S
C1565 C1564 1.400 . S
C1565 C1566 1.398 . S
C1566 H1554 0.950 . S
C1566 C1565 1.398 . S
C1566 C1567 1.391 . S
C1567 H1555 0.950 . S
C1567 C1563 1.393 . S
C1567 C1566 1.391 . S
H1568 C1576 0.950 . S
H1569 C1581 0.950 . S
H1570 C1578 0.950 . S
H1571 C1580 0.950 . S
H1572 C1582 0.950 . S
H1573 C1584 0.950 . S
H1574 C1586 0.950 . S
H1575 C1587 0.950 . S
C1576 H1568 0.950 . S
C1576 C1577 1.386 . S
C1576 C1578 1.391 . S
C1577 C1576 1.386 . S
C1577 C1581 1.393 . S
C1578 H1570 0.950 . S
C1578 C1576 1.391 . S
C1578 C1579 1.400 . S
C1579 C1578 1.400 . S
C1579 C1580 1.398 . S
C1579 C1585 1.491 . S
C1580 H1571 0.950 . S
C1580 C1579 1.398 . S
C1580 C1581 1.391 . S
C1581 H1569 0.950 . S
C1581 C1577 1.393 . S
C1581 C1580 1.391 . S
C1582 H1572 0.950 . S
C1582 C1583 1.386 . S
C1582 C1584 1.391 . S
C1583 C1582 1.386 . S
C1583 C1587 1.393 . S
C1584 H1573 0.950 . S
C1584 C1582 1.391 . S
C1584 C1585 1.400 . S
C1585 C1579 1.491 . S
C1585 C1584 1.400 . S
C1585 C1586 1.398 . S
C1586 H1574 0.950 . S
C1586 C1585 1.398 . S
C1586 C1587 1.391 . S
C1587 H1575 0.950 . S
C1587 C1583 1.393 . S
C1587 C1586 1.391 . S
H1588 C1596 0.950 . S
H1589 C1601 0.950 . S
H1590 C1598 0.950 . S
H1591 C1600 0.950 . S
H1592 C1602 0.950 . S
H1593 C1604 0.950 . S
H1594 C1606 0.950 . S
H1595 C1607 0.950 . S
C1596 H1588 0.950 . S
C1596 C1597 1.386 . S
C1596 C1598 1.391 . S
C1597 C1596 1.386 . S
C1597 C1601 1.393 . S
C1598 H1590 0.950 . S
C1598 C1596 1.391 . S
C1598 C1599 1.400 . S
C1599 C1598 1.400 . S
C1599 C1600 1.398 . S
C1599 C1605 1.491 . S
C1600 H1591 0.950 . S
C1600 C1599 1.398 . S
C1600 C1601 1.391 . S
C1601 H1589 0.950 . S
C1601 C1597 1.393 . S
C1601 C1600 1.391 . S
C1602 H1592 0.950 . S
C1602 C1603 1.386 . S
C1602 C1604 1.391 . S
C1603 C1602 1.386 . S
C1603 C1607 1.393 . S
C1604 H1593 0.950 . S
C1604 C1602 1.391 . S
C1604 C1605 1.400 . S
C1605 C1599 1.491 . S
C1605 C1604 1.400 . S
C1605 C1606 1.398 . S
C1606 H1594 0.950 . S
C1606 C1605 1.398 . S
C1606 C1607 1.391 . S
C1607 H1595 0.950 . S
C1607 C1603 1.393 . S
C1607 C1606 1.391 . S
H1608 C1616 0.950 . S
H1609 C1621 0.950 . S
H1610 C1618 0.950 . S
H1611 C1620 0.950 . S
H1612 C1622 0.950 . S
H1613 C1624 0.950 . S
H1614 C1626 0.950 . S
H1615 C1627 0.950 . S
C1616 H1608 0.950 . S
C1616 C1617 1.386 . S
C1616 C1618 1.391 . S
C1617 C1616 1.386 . S
C1617 C1621 1.393 . S
C1618 H1610 0.950 . S
C1618 C1616 1.391 . S
C1618 C1619 1.400 . S
C1619 C1618 1.400 . S
C1619 C1620 1.398 . S
C1619 C1625 1.491 . S
C1620 H1611 0.950 . S
C1620 C1619 1.398 . S
C1620 C1621 1.391 . S
C1621 H1609 0.950 . S
C1621 C1617 1.393 . S
C1621 C1620 1.391 . S
C1622 H1612 0.950 . S
C1622 C1623 1.386 . S
C1622 C1624 1.391 . S
C1623 C1622 1.386 . S
C1623 C1627 1.393 . S
C1624 H1613 0.950 . S
C1624 C1622 1.391 . S
C1624 C1625 1.400 . S
C1625 C1619 1.491 . S
C1625 C1624 1.400 . S
C1625 C1626 1.398 . S
C1626 H1614 0.950 . S
C1626 C1625 1.398 . S
C1626 C1627 1.391 . S
C1627 H1615 0.950 . S
C1627 C1623 1.393 . S
C1627 C1626 1.391 . S
H1628 C1636 0.950 . S
H1629 C1641 0.950 . S
H1630 C1638 0.950 . S
H1631 C1640 0.950 . S
H1632 C1642 0.950 . S
H1633 C1644 0.950 . S
H1634 C1646 0.950 . S
H1635 C1647 0.950 . S
C1636 H1628 0.950 . S
C1636 C1637 1.386 . S
C1636 C1638 1.391 . S
C1637 C1636 1.386 . S
C1637 C1641 1.393 . S
C1638 H1630 0.950 . S
C1638 C1636 1.391 . S
C1638 C1639 1.400 . S
C1639 C1638 1.400 . S
C1639 C1640 1.398 . S
C1639 C1645 1.491 . S
C1640 H1631 0.950 . S
C1640 C1639 1.398 . S
C1640 C1641 1.391 . S
C1641 H1629 0.950 . S
C1641 C1637 1.393 . S
C1641 C1640 1.391 . S
C1642 H1632 0.950 . S
C1642 C1643 1.386 . S
C1642 C1644 1.391 . S
C1643 C1642 1.386 . S
C1643 C1647 1.393 . S
C1644 H1633 0.950 . S
C1644 C1642 1.391 . S
C1644 C1645 1.400 . S
C1645 C1639 1.491 . S
C1645 C1644 1.400 . S
C1645 C1646 1.398 . S
C1646 H1634 0.950 . S
C1646 C1645 1.398 . S
C1646 C1647 1.391 . S
C1647 H1635 0.950 . S
C1647 C1643 1.393 . S
C1647 C1646 1.391 . S
H1648 C1656 0.950 . S
H1649 C1661 0.950 . S
H1650 C1658 0.950 . S
H1651 C1660 0.950 . S
H1652 C1662 0.950 . S
H1653 C1664 0.950 . S
H1654 C1666 0.950 . S
H1655 C1667 0.950 . S
C1656 H1648 0.950 . S
C1656 C1657 1.386 . S
C1656 C1658 1.391 . S
C1657 C1656 1.386 . S
C1657 C1661 1.393 . S
C1658 H1650 0.950 . S
C1658 C1656 1.391 . S
C1658 C1659 1.400 . S
C1659 C1658 1.400 . S
C1659 C1660 1.398 . S
C1659 C1665 1.491 . S
C1660 H1651 0.950 . S
C1660 C1659 1.398 . S
C1660 C1661 1.391 . S
C1661 H1649 0.950 . S
C1661 C1657 1.393 . S
C1661 C1660 1.391 . S
C1662 H1652 0.950 . S
C1662 C1663 1.386 . S
C1662 C1664 1.391 . S
C1663 C1662 1.386 . S
C1663 C1667 1.393 . S
C1664 H1653 0.950 . S
C1664 C1662 1.391 . S
C1664 C1665 1.400 . S
C1665 C1659 1.491 . S
C1665 C1664 1.400 . S
C1665 C1666 1.398 . S
C1666 H1654 0.950 . S
C1666 C1665 1.398 . S
C1666 C1667 1.391 . S
C1667 H1655 0.950 . S
C1667 C1663 1.393 . S
C1667 C1666 1.391 . S
H1668 C1676 0.950 . S
H1669 C1681 0.950 . S
H1670 C1678 0.950 . S
H1671 C1680 0.950 . S
H1672 C1682 0.950 . S
H1673 C1684 0.950 . S
H1674 C1686 0.950 . S
H1675 C1687 0.950 . S
C1676 H1668 0.950 . S
C1676 C1677 1.386 . S
C1676 C1678 1.391 . S
C1677 C1676 1.386 . S
C1677 C1681 1.393 . S
C1678 H1670 0.950 . S
C1678 C1676 1.391 . S
C1678 C1679 1.400 . S
C1679 C1678 1.400 . S
C1679 C1680 1.398 . S
C1679 C1685 1.491 . S
C1680 H1671 0.950 . S
C1680 C1679 1.398 . S
C1680 C1681 1.391 . S
C1681 H1669 0.950 . S
C1681 C1677 1.393 . S
C1681 C1680 1.391 . S
C1682 H1672 0.950 . S
C1682 C1683 1.386 . S
C1682 C1684 1.391 . S
C1683 C1682 1.386 . S
C1683 C1687 1.393 . S
C1684 H1673 0.950 . S
C1684 C1682 1.391 . S
C1684 C1685 1.400 . S
C1685 C1679 1.491 . S
C1685 C1684 1.400 . S
C1685 C1686 1.398 . S
C1686 H1674 0.950 . S
C1686 C1685 1.398 . S
C1686 C1687 1.391 . S
C1687 H1675 0.950 . S
C1687 C1683 1.393 . S
C1687 C1686 1.391 . S
H1688 C1696 0.950 . S
H1689 C1701 0.950 . S
H1690 C1698 0.950 . S
H1691 C1700 0.950 . S
H1692 C1702 0.950 . S
H1693 C1704 0.950 . S
H1694 C1706 0.950 . S
H1695 C1707 0.950 . S
C1696 H1688 0.950 . S
C1696 C1697 1.386 . S
C1696 C1698 1.391 . S
C1697 C1696 1.386 . S
C1697 C1701 1.393 . S
C1698 H1690 0.950 . S
C1698 C1696 1.391 . S
C1698 C1699 1.400 . S
C1699 C1698 1.400 . S
C1699 C1700 1.398 . S
C1699 C1705 1.491 . S
C1700 H1691 0.950 . S
C1700 C1699 1.398 . S
C1700 C1701 1.391 . S
C1701 H1689 0.950 . S
C1701 C1697 1.393 . S
C1701 C1700 1.391 . S
C1702 H1692 0.950 . S
C1702 C1703 1.386 . S
C1702 C1704 1.391 . S
C1703 C1702 1.386 . S
C1703 C1707 1.393 . S
C1704 H1693 0.950 . S
C1704 C1702 1.391 . S
C1704 C1705 1.400 . S
C1705 C1699 1.491 . S
C1705 C1704 1.400 . S
C1705 C1706 1.398 . S
C1706 H1694 0.950 . S
C1706 C1705 1.398 . S
C1706 C1707 1.391 . S
C1707 H1695 0.950 . S
C1707 C1703 1.393 . S
C1707 C1706 1.391 . S
H1708 C1716 0.950 . S
H1709 C1721 0.950 . S
H1710 C1718 0.950 . S
H1711 C1720 0.950 . S
H1712 C1722 0.950 . S
H1713 C1724 0.950 . S
H1714 C1726 0.950 . S
H1715 C1727 0.950 . S
C1716 H1708 0.950 . S
C1716 C1717 1.386 . S
C1716 C1718 1.391 . S
C1717 C1716 1.386 . S
C1717 C1721 1.393 . S
C1718 H1710 0.950 . S
C1718 C1716 1.391 . S
C1718 C1719 1.400 . S
C1719 C1718 1.400 . S
C1719 C1720 1.398 . S
C1719 C1725 1.491 . S
C1720 H1711 0.950 . S
C1720 C1719 1.398 . S
C1720 C1721 1.391 . S
C1721 H1709 0.950 . S
C1721 C1717 1.393 . S
C1721 C1720 1.391 . S
C1722 H1712 0.950 . S
C1722 C1723 1.386 . S
C1722 C1724 1.391 . S
C1723 C1722 1.386 . S
C1723 C1727 1.393 . S
C1724 H1713 0.950 . S
C1724 C1722 1.391 . S
C1724 C1725 1.400 . S
C1725 C1719 1.491 . S
C1725 C1724 1.400 . S
C1725 C1726 1.398 . S
C1726 H1714 0.950 . S
C1726 C1725 1.398 . S
C1726 C1727 1.391 . S
C1727 H1715 0.950 . S
C1727 C1723 1.393 . S
C1727 C1726 1.391 . S
C457 C176 1.145 . S
C463 C7 1.178 . S
C477 C414 1.168 . S
C483 C21 1.172 . S
C497 C204 1.174 . S
C503 C35 1.165 . S
C517 C442 1.159 . S
C523 C49 1.180 . S
C537 C120 1.159 . S
C543 C63 1.180 . S
C557 C77 1.161 . S
C563 C358 1.161 . S
C577 C91 1.180 . S
C583 C148 1.145 . S
C597 C386 1.145 . S
C603 C105 1.182 . S
C617 C64 1.167 . S
C623 C119 1.174 . S
C637 C302 1.145 . S
C643 C133 1.179 . S
C657 C92 1.168 . S
C663 C147 1.173 . S
C677 C330 1.176 . S
C683 C161 1.160 . S
C697 C175 1.175 . S
C703 C8 1.165 . S
C717 C189 1.171 . S
C723 C246 1.148 . S
C737 C36 1.167 . S
C743 C203 1.174 . S
C757 C217 1.161 . S
C763 C274 1.159 . S
C777 C400 1.150 . S
C783 C231 1.169 . S
C797 C190 1.175 . S
C803 C245 1.158 . S
C817 C428 1.154 . S
C823 C259 1.165 . S
C837 C273 1.164 . S
C843 C218 1.174 . S
C857 C287 1.159 . S
C863 C344 1.176 . S
C877 C301 1.157 . S
C883 C134 1.174 . S
C897 C372 1.175 . S
C903 C315 1.164 . S
C917 C162 1.175 . S
C923 C329 1.162 . S
C937 C288 1.152 . S
C943 C343 1.167 . S
C957 C357 1.158 . S
C963 C78 1.175 . S
C977 C371 1.168 . S
C983 C316 1.172 . S
C997 C385 1.163 . S
C1003 C106 1.175 . S
C1017 C232 1.151 . S
C1023 C399 1.183 . S
C1037 C22 1.175 . S
C1043 C413 1.162 . S
C1057 C260 1.169 . S
C1063 C427 1.157 . S
C1077 C441 1.183 . S
C1083 C50 1.146 . S
C1097 C9 1.323 . S
C1103 C121 1.323 . S
C1117 C23 1.304 . S
C1123 C359 1.304 . S
C1137 C149 1.315 . S
C1143 C37 1.315 . S
C1157 C51 1.333 . S
C1163 C387 1.333 . S
C1177 C65 1.310 . S
C1183 C177 1.310 . S
C1197 C415 1.307 . S
C1203 C79 1.307 . S
C1217 C205 1.325 . S
C1223 C93 1.325 . S
C1237 C107 1.328 . S
C1243 C443 1.328 . S
C1257 C135 1.333 . S
C1263 C247 1.333 . S
C1277 C163 1.306 . S
C1283 C275 1.306 . S
C1297 C191 1.308 . S
C1303 C303 1.308 . S
C1317 C331 1.318 . S
C1323 C219 1.318 . S
C1337 C233 1.328 . S
C1343 C345 1.328 . S
C1357 C261 1.304 . S
C1363 C373 1.304 . S
C1377 C289 1.336 . S
C1383 C401 1.336 . S
C1397 C429 1.336 . S
C1403 C317 1.336 . S
C1417 C6 1.383 . S
C1423 C104 1.387 . S
C1437 C20 1.401 . S
C1443 C62 1.406 . S
C1457 C76 1.400 . S
C1463 C34 1.406 . S
C1477 C90 1.383 . S
C1483 C48 1.388 . S
C1497 C216 1.399 . S
C1503 C118 1.406 . S
C1517 C174 1.389 . S
C1523 C132 1.383 . S
C1537 C188 1.383 . S
C1543 C146 1.390 . S
C1557 C202 1.398 . S
C1563 C160 1.406 . S
C1577 C230 1.384 . S
C1583 C328 1.384 . S
C1597 C286 1.383 . S
C1603 C244 1.385 . S
C1617 C300 1.391 . S
C1623 C258 1.401 . S
C1637 C314 1.405 . S
C1643 C272 1.396 . S
C1657 C440 1.393 . S
C1663 C342 1.384 . S
C1677 C356 1.406 . S
C1683 C398 1.402 . S
C1697 C370 1.389 . S
C1703 C412 1.399 . S
C1717 C426 1.384 . S
C1723 C384 1.384 . S
