# Generated by pormake.
# Topology vch, (7)-cn, num edge types: 1
# Building blocks:
#     Node 0, Type 0, BuildingBlock: NUHQUE_clean_sbu_2, # of connection points: 7
#     Node 1, Type 0, BuildingBlock: NUHQUE_clean_sbu_2, # of connection points: 7
#     Node 2, Type 0, BuildingBlock: NUHQUE_clean_sbu_2, # of connection points: 7
#     Node 3, Type 0, BuildingBlock: NUHQUE_clean_sbu_2, # of connection points: 7
#     Node 4, Type 0, BuildingBlock: NUHQUE_clean_sbu_2, # of connection points: 7
#     Node 5, Type 0, BuildingBlock: NUHQUE_clean_sbu_2, # of connection points: 7
#     Node 6, Type 0, BuildingBlock: NUHQUE_clean_sbu_2, # of connection points: 7
#     Node 7, Type 0, BuildingBlock: NUHQUE_clean_sbu_2, # of connection points: 7
#     Node 8, Type 0, BuildingBlock: NUHQUE_clean_sbu_2, # of connection points: 7
#     Node 9, Type 0, BuildingBlock: NUHQUE_clean_sbu_2, # of connection points: 7
#     Node 10, Type 0, BuildingBlock: NUHQUE_clean_sbu_2, # of connection points: 7
#     Node 11, Type 0, BuildingBlock: NUHQUE_clean_sbu_2, # of connection points: 7
#     Node 12, Type 0, BuildingBlock: NUHQUE_clean_sbu_2, # of connection points: 7
#     Node 13, Type 0, BuildingBlock: NUHQUE_clean_sbu_2, # of connection points: 7
#     Node 14, Type 0, BuildingBlock: NUHQUE_clean_sbu_2, # of connection points: 7
#     Node 15, Type 0, BuildingBlock: NUHQUE_clean_sbu_2, # of connection points: 7
#     Edge 16, Type (0, 0), BuildingBlock: MIFKUJ_clean_linker_0, # of connection points: 2
#     Edge 17, Type (0, 0), BuildingBlock: MIFKUJ_clean_linker_0, # of connection points: 2
#     Edge 18, Type (0, 0), BuildingBlock: MIFKUJ_clean_linker_0, # of connection points: 2
#     Edge 19, Type (0, 0), BuildingBlock: MIFKUJ_clean_linker_0, # of connection points: 2
#     Edge 20, Type (0, 0), BuildingBlock: MIFKUJ_clean_linker_0, # of connection points: 2
#     Edge 21, Type (0, 0), BuildingBlock: MIFKUJ_clean_linker_0, # of connection points: 2
#     Edge 22, Type (0, 0), BuildingBlock: MIFKUJ_clean_linker_0, # of connection points: 2
#     Edge 23, Type (0, 0), BuildingBlock: MIFKUJ_clean_linker_0, # of connection points: 2
#     Edge 24, Type (0, 0), BuildingBlock: MIFKUJ_clean_linker_0, # of connection points: 2
#     Edge 25, Type (0, 0), BuildingBlock: MIFKUJ_clean_linker_0, # of connection points: 2
#     Edge 26, Type (0, 0), BuildingBlock: MIFKUJ_clean_linker_0, # of connection points: 2
#     Edge 27, Type (0, 0), BuildingBlock: MIFKUJ_clean_linker_0, # of connection points: 2
#     Edge 28, Type (0, 0), BuildingBlock: MIFKUJ_clean_linker_0, # of connection points: 2
#     Edge 29, Type (0, 0), BuildingBlock: MIFKUJ_clean_linker_0, # of connection points: 2
#     Edge 30, Type (0, 0), BuildingBlock: MIFKUJ_clean_linker_0, # of connection points: 2
#     Edge 31, Type (0, 0), BuildingBlock: MIFKUJ_clean_linker_0, # of connection points: 2
#     Edge 32, Type (0, 0), BuildingBlock: MIFKUJ_clean_linker_0, # of connection points: 2
#     Edge 33, Type (0, 0), BuildingBlock: MIFKUJ_clean_linker_0, # of connection points: 2
#     Edge 34, Type (0, 0), BuildingBlock: MIFKUJ_clean_linker_0, # of connection points: 2
#     Edge 35, Type (0, 0), BuildingBlock: MIFKUJ_clean_linker_0, # of connection points: 2
#     Edge 36, Type (0, 0), BuildingBlock: MIFKUJ_clean_linker_0, # of connection points: 2
#     Edge 37, Type (0, 0), BuildingBlock: MIFKUJ_clean_linker_0, # of connection points: 2
#     Edge 38, Type (0, 0), BuildingBlock: MIFKUJ_clean_linker_0, # of connection points: 2
#     Edge 39, Type (0, 0), BuildingBlock: MIFKUJ_clean_linker_0, # of connection points: 2
#     Edge 40, Type (0, 0), BuildingBlock: MIFKUJ_clean_linker_0, # of connection points: 2
#     Edge 41, Type (0, 0), BuildingBlock: MIFKUJ_clean_linker_0, # of connection points: 2
#     Edge 42, Type (0, 0), BuildingBlock: MIFKUJ_clean_linker_0, # of connection points: 2
#     Edge 43, Type (0, 0), BuildingBlock: MIFKUJ_clean_linker_0, # of connection points: 2
#     Edge 44, Type (0, 0), BuildingBlock: MIFKUJ_clean_linker_0, # of connection points: 2
#     Edge 45, Type (0, 0), BuildingBlock: MIFKUJ_clean_linker_0, # of connection points: 2
#     Edge 46, Type (0, 0), BuildingBlock: MIFKUJ_clean_linker_0, # of connection points: 2
#     Edge 47, Type (0, 0), BuildingBlock: MIFKUJ_clean_linker_0, # of connection points: 2
#     Edge 48, Type (0, 0), BuildingBlock: MIFKUJ_clean_linker_0, # of connection points: 2
#     Edge 49, Type (0, 0), BuildingBlock: MIFKUJ_clean_linker_0, # of connection points: 2
#     Edge 50, Type (0, 0), BuildingBlock: MIFKUJ_clean_linker_0, # of connection points: 2
#     Edge 51, Type (0, 0), BuildingBlock: MIFKUJ_clean_linker_0, # of connection points: 2
#     Edge 52, Type (0, 0), BuildingBlock: MIFKUJ_clean_linker_0, # of connection points: 2
#     Edge 53, Type (0, 0), BuildingBlock: MIFKUJ_clean_linker_0, # of connection points: 2
#     Edge 54, Type (0, 0), BuildingBlock: MIFKUJ_clean_linker_0, # of connection points: 2
#     Edge 55, Type (0, 0), BuildingBlock: MIFKUJ_clean_linker_0, # of connection points: 2
#     Edge 56, Type (0, 0), BuildingBlock: MIFKUJ_clean_linker_0, # of connection points: 2
#     Edge 57, Type (0, 0), BuildingBlock: MIFKUJ_clean_linker_0, # of connection points: 2
#     Edge 58, Type (0, 0), BuildingBlock: MIFKUJ_clean_linker_0, # of connection points: 2
#     Edge 59, Type (0, 0), BuildingBlock: MIFKUJ_clean_linker_0, # of connection points: 2
#     Edge 60, Type (0, 0), BuildingBlock: MIFKUJ_clean_linker_0, # of connection points: 2
#     Edge 61, Type (0, 0), BuildingBlock: MIFKUJ_clean_linker_0, # of connection points: 2
#     Edge 62, Type (0, 0), BuildingBlock: MIFKUJ_clean_linker_0, # of connection points: 2
#     Edge 63, Type (0, 0), BuildingBlock: MIFKUJ_clean_linker_0, # of connection points: 2
#     Edge 64, Type (0, 0), BuildingBlock: MIFKUJ_clean_linker_0, # of connection points: 2
#     Edge 65, Type (0, 0), BuildingBlock: MIFKUJ_clean_linker_0, # of connection points: 2
#     Edge 66, Type (0, 0), BuildingBlock: MIFKUJ_clean_linker_0, # of connection points: 2
#     Edge 67, Type (0, 0), BuildingBlock: MIFKUJ_clean_linker_0, # of connection points: 2
#     Edge 68, Type (0, 0), BuildingBlock: MIFKUJ_clean_linker_0, # of connection points: 2
#     Edge 69, Type (0, 0), BuildingBlock: MIFKUJ_clean_linker_0, # of connection points: 2
#     Edge 70, Type (0, 0), BuildingBlock: MIFKUJ_clean_linker_0, # of connection points: 2
#     Edge 71, Type (0, 0), BuildingBlock: MIFKUJ_clean_linker_0, # of connection points: 2
# Relax obj value: 0.152
# Max RMSD: 0.216
# Mean RMSD: 0.216
data_MOF--net-vch--node1-NUHQUE_clean_sbu_2--edge1-MIFKUJ_clean_linker_0
_symmetry_space_group_name_H-M    P1
_symmetry_Int_Tables_number       1
_symmetry_cell_setting            triclinic
loop_
_symmetry_equiv_pos_as_xyz
'x, y, z'
_cell_length_a     26.192605
_cell_length_b     67.862742
_cell_length_c     82.633505
_cell_angle_alpha  90.002894
_cell_angle_beta   89.935829
_cell_angle_gamma 89.986662
loop_
_atom_site_label
_atom_site_type_symbol
_atom_site_fract_x
_atom_site_fract_y
_atom_site_fract_z
_atom_type_partial_charge
O0 O 0.17569 0.10379 0.1025 0.0
Tb1 Tb 0.19036 0.10817 0.12822 0.0
Eu2 Eu 0.04438 0.09577 0.14052 0.0
C3 C 0.18896 0.08746 0.09498 0.0
O4 O 0.2052 0.07242 0.10355 0.0
C5 C 0.14357 0.07159 0.14183 0.0
O6 O 0.03909 0.09596 0.16797 0.0
C7 C 0.95658 0.08877 0.127 0.0
C8 C 0.03143 0.11241 0.17611 0.0
O9 O 0.02715 0.12904 0.16809 0.0
C10 C 0.10129 0.14046 0.13296 0.0
C11 C 0.91011 0.099 0.12096 0.0
C12 C 0.90444 0.10316 0.10429 0.0
C13 C 0.85899 0.11155 0.09834 0.0
C14 C 0.81956 0.11591 0.10924 0.0
C15 C 0.82376 0.11132 0.12568 0.0
C16 C 0.8689 0.10281 0.13152 0.0
O17 O 0.15818 0.08912 0.14632 0.0
O18 O 0.09624 0.06967 0.1372 0.0
O19 O 0.26678 0.09544 0.12672 0.0
O20 O 0.25844 0.12445 0.136 0.0
C21 C 0.29094 0.11051 0.13264 0.0
O22 O 0.06322 0.12793 0.13557 0.0
O23 O 0.15012 0.13586 0.13107 0.0
O24 O 0.96394 0.08836 0.14274 0.0
O25 O 0.99914 0.09106 0.11873 0.0
H26 H 0.93477 0.09944 0.0959 0.0
H27 H 0.78338 0.1214 0.10472 0.0
H28 H 0.87115 0.0987 0.14418 0.0
O29 O 0.41583 0.88021 0.07123 0.0
Tb30 Tb 0.42867 0.88536 0.09679 0.0
Eu31 Eu 0.58226 0.88152 0.12495 0.0
C32 C 0.39796 0.89447 0.06209 0.0
O33 O 0.39585 0.91242 0.06801 0.0
C34 C 0.49813 0.91263 0.11756 0.0
O35 O 0.57739 0.87061 0.1506 0.0
C36 C 0.67586 0.88829 0.11663 0.0
C37 C 0.53322 0.86974 0.15813 0.0
O38 O 0.4913 0.87364 0.15001 0.0
C39 C 0.50022 0.8533 0.10879 0.0
C40 C 0.71455 0.89152 0.10406 0.0
C41 C 0.70241 0.89413 0.08759 0.0
C42 C 0.74157 0.89821 0.07633 0.0
C43 C 0.79233 0.8993 0.08178 0.0
C44 C 0.80448 0.89672 0.09812 0.0
C45 C 0.76538 0.89276 0.10918 0.0
O46 O 0.49591 0.90165 0.10448 0.0
O47 O 0.53549 0.90929 0.12782 0.0
O48 O 0.36374 0.90521 0.09967 0.0
O49 O 0.36699 0.87913 0.11384 0.0
C50 C 0.34005 0.89468 0.11044 0.0
O51 O 0.53346 0.86734 0.10584 0.0
O52 O 0.45286 0.85603 0.10402 0.0
O53 O 0.65761 0.87038 0.11856 0.0
O54 O 0.64241 0.90238 0.11923 0.0
H55 H 0.66301 0.89331 0.08366 0.0
H56 H 0.82294 0.9017 0.07315 0.0
H57 H 0.77441 0.89099 0.12191 0.0
O58 O 0.65444 0.8844 0.41216 0.0
Tb59 Tb 0.63741 0.88356 0.38652 0.0
Eu60 Eu 0.47919 0.89578 0.3656 0.0
C61 C 0.62626 0.89392 0.42274 0.0
O62 O 0.58387 0.90251 0.41802 0.0
C63 C 0.57334 0.91858 0.37279 0.0
O64 O 0.48394 0.88733 0.33928 0.0
C65 C 0.38623 0.90564 0.37319 0.0
C66 C 0.52751 0.8861 0.33144 0.0
O67 O 0.57039 0.88936 0.33923 0.0
C68 C 0.54299 0.85756 0.37634 0.0
C69 C 0.34148 0.90065 0.38329 0.0
C70 C 0.34583 0.89694 0.4 0.0
C71 C 0.30206 0.89269 0.40918 0.0
C72 C 0.25419 0.89226 0.40163 0.0
C73 C 0.24866 0.89694 0.38517 0.0
C74 C 0.29286 0.90081 0.37603 0.0
O75 O 0.57351 0.90167 0.38027 0.0
O76 O 0.53194 0.92213 0.36452 0.0
O77 O 0.69367 0.89995 0.37219 0.0
O78 O 0.70427 0.86922 0.37624 0.0
C79 C 0.72345 0.88489 0.3695 0.0
O80 O 0.51301 0.87178 0.38181 0.0
O81 O 0.59309 0.85817 0.3786 0.0
O82 O 0.39737 0.89344 0.36137 0.0
O83 O 0.42675 0.91307 0.38034 0.0
H84 H 0.3828 0.89748 0.40586 0.0
H85 H 0.22075 0.8889 0.40886 0.0
H86 H 0.28951 0.90464 0.36334 0.0
O87 O 0.86143 0.11676 0.41077 0.0
Tb88 Tb 0.85681 0.12438 0.38515 0.0
Eu89 Eu 0.99237 0.11453 0.38768 0.0
C90 C 0.82713 0.10432 0.41644 0.0
O91 O 0.79694 0.09544 0.40605 0.0
C92 C 0.90482 0.08391 0.38259 0.0
O93 O 0.98894 0.11087 0.36039 0.0
C94 C 0.08223 0.10535 0.39902 0.0
C95 C 1.00107 0.12548 0.3506 0.0
O96 O 0.01481 0.14244 0.3569 0.0
C97 C 0.94032 0.15737 0.38468 0.0
C98 C 0.13121 0.11076 0.40708 0.0
C99 C 0.1356 0.10956 0.42414 0.0
C100 C 0.18356 0.11111 0.4317 0.0
C101 C 0.22675 0.11463 0.42215 0.0
C102 C 0.22398 0.11509 0.40525 0.0
C103 C 0.17598 0.1135 0.39772 0.0
O104 O 0.88172 0.09729 0.37386 0.0
O105 O 0.93946 0.08912 0.39321 0.0
O106 O 0.78198 0.13634 0.39184 0.0
O107 O 0.78833 0.11989 0.3702 0.0
C108 C 0.75682 0.12933 0.37959 0.0
O109 O 0.97279 0.14639 0.39296 0.0
O110 O 0.89999 0.14995 0.37737 0.0
O111 O 0.07442 0.11059 0.3839 0.0
O112 O 0.04015 0.10492 0.40772 0.0
H113 H 0.10236 0.10625 0.43147 0.0
H114 H 0.26368 0.11619 0.42795 0.0
H115 H 0.17399 0.11321 0.38462 0.0
O116 O 0.82127 0.87788 0.89774 0.0
Tb117 Tb 0.81371 0.87095 0.87219 0.0
Eu118 Eu 0.94632 0.8778 0.87662 0.0
C119 C 0.78822 0.8905 0.90382 0.0
O120 O 0.75592 0.89912 0.89393 0.0
C121 C 0.86348 0.91129 0.87286 0.0
O122 O 0.94002 0.87899 0.84947 0.0
C123 C 0.03981 0.8837 0.88627 0.0
C124 C 0.96023 0.8647 0.8408 0.0
O125 O 0.98263 0.84997 0.84829 0.0
C126 C 0.89148 0.83671 0.87333 0.0
C127 C 0.08432 0.87413 0.89416 0.0
C128 C 0.08294 0.86963 0.91081 0.0
C129 C 0.12639 0.86238 0.91864 0.0
C130 C 0.17135 0.85948 0.90982 0.0
C131 C 0.17469 0.8644 0.89336 0.0
C132 C 0.13062 0.87167 0.88554 0.0
O133 O 0.83895 0.89931 0.86311 0.0
O134 O 0.89871 0.90444 0.88266 0.0
O135 O 0.74006 0.85894 0.87975 0.0
O136 O 0.74362 0.8753 0.85794 0.0
C137 C 0.71344 0.86576 0.86774 0.0
O138 O 0.92092 0.84711 0.88303 0.0
O139 O 0.85604 0.84514 0.86442 0.0
O140 O 0.02835 0.87844 0.87142 0.0
O141 O 0.99929 0.8871 0.89526 0.0
H142 H 0.0488 0.87237 0.91788 0.0
H143 H 0.20524 0.85485 0.91626 0.0
H144 H 0.1326 0.87586 0.87291 0.0
O145 O 0.60859 0.11028 0.93401 0.0
Tb146 Tb 0.5953 0.10188 0.90901 0.0
Eu147 Eu 0.44657 0.1015 0.87655 0.0
C148 C 0.60937 0.09666 0.94533 0.0
O149 O 0.59582 0.0786 0.94153 0.0
C150 C 0.52544 0.07198 0.89179 0.0
O151 O 0.45942 0.10511 0.84953 0.0
C152 C 0.35053 0.09714 0.88372 0.0
C153 C 0.45574 0.12188 0.8416 0.0
O154 O 0.44502 0.1381 0.84957 0.0
C155 C 0.52761 0.13216 0.89163 0.0
C156 C 0.31127 0.09563 0.8965 0.0
C157 C 0.32339 0.09639 0.91311 0.0
C158 C 0.28448 0.09403 0.92472 0.0
C159 C 0.23415 0.09076 0.91969 0.0
C160 C 0.22161 0.08969 0.90324 0.0
C161 C 0.26042 0.09236 0.89169 0.0
O162 O 0.52633 0.0858 0.90286 0.0
O163 O 0.49152 0.07329 0.88009 0.0
O164 O 0.65808 0.08059 0.90911 0.0
O165 O 0.65762 0.10317 0.89137 0.0
C166 C 0.68271 0.08804 0.8969 0.0
O167 O 0.4921 0.11901 0.89493 0.0
O168 O 0.57316 0.12986 0.89822 0.0
O169 O 0.37145 0.11446 0.88094 0.0
O170 O 0.38261 0.08235 0.88231 0.0
H171 H 0.3625 0.09871 0.91693 0.0
H172 H 0.20444 0.08914 0.92876 0.0
H173 H 0.25131 0.09142 0.87891 0.0
O174 O 0.35984 0.11243 0.60538 0.0
Tb175 Tb 0.35239 0.11974 0.63087 0.0
Eu176 Eu 0.49211 0.11026 0.63057 0.0
C177 C 0.32805 0.09918 0.59956 0.0
O178 O 0.29937 0.08934 0.60981 0.0
C179 C 0.40257 0.08067 0.63768 0.0
O180 O 0.49222 0.10921 0.65804 0.0
C181 C 0.58036 0.10197 0.61753 0.0
C182 C 0.50253 0.12491 0.66684 0.0
O183 O 0.51486 0.14139 0.65948 0.0
C184 C 0.43537 0.15236 0.63291 0.0
C185 C 0.6277 0.10903 0.60927 0.0
C186 C 0.6329 0.10732 0.59225 0.0
C187 C 0.68006 0.1112 0.58464 0.0
C188 C 0.72128 0.11756 0.59404 0.0
C189 C 0.71727 0.11916 0.61087 0.0
C190 C 0.6707 0.11471 0.61849 0.0
O191 O 0.38129 0.09557 0.64513 0.0
O192 O 0.44088 0.08374 0.62773 0.0
O193 O 0.27914 0.10979 0.64086 0.0
O194 O 0.28203 0.13706 0.62851 0.0
C195 C 0.25224 0.12472 0.63597 0.0
O196 O 0.4693 0.14172 0.62491 0.0
O197 O 0.39499 0.14464 0.63994 0.0
O198 O 0.57418 0.10581 0.63302 0.0
O199 O 0.5372 0.10202 0.60939 0.0
H200 H 0.60128 0.10198 0.58503 0.0
H201 H 0.75774 0.12049 0.58826 0.0
H202 H 0.66852 0.11524 0.63158 0.0
O203 O 0.10446 0.8966 0.57888 0.0
Tb204 Tb 0.09578 0.89875 0.60496 0.0
Eu205 Eu 0.95531 0.90302 0.63375 0.0
C206 C 0.12264 0.91165 0.57065 0.0
O207 O 0.12908 0.92858 0.57808 0.0
C208 C 0.04414 0.92875 0.62627 0.0
O209 O 0.94938 0.89602 0.66031 0.0
C210 C 0.86864 0.91667 0.62321 0.0
C211 C 0.97913 0.88293 0.66727 0.0
O212 O 0.0126 0.87328 0.65846 0.0
C213 C 0.01663 0.86346 0.61562 0.0
C214 C 0.82107 0.91302 0.61389 0.0
C215 C 0.82145 0.91284 0.5968 0.0
C216 C 0.77536 0.91231 0.58811 0.0
C217 C 0.72905 0.91142 0.59655 0.0
C218 C 0.72771 0.91165 0.61344 0.0
C219 C 0.77372 0.91233 0.62214 0.0
O220 O 0.03631 0.91726 0.61388 0.0
O221 O 0.01176 0.92713 0.63807 0.0
O222 O 0.16532 0.91619 0.60819 0.0
O223 O 0.15974 0.88857 0.62001 0.0
C224 C 0.18913 0.90373 0.61742 0.0
O225 O 0.97845 0.87364 0.62234 0.0
O226 O 0.06143 0.87026 0.61037 0.0
O227 O 0.87378 0.90773 0.63723 0.0
O228 O 0.91206 0.91874 0.61531 0.0
H229 H 0.85719 0.91395 0.59025 0.0
H230 H 0.69335 0.91078 0.58991 0.0
H231 H 0.77253 0.91313 0.63523 0.0
O232 O 0.65891 0.61489 0.08276 0.0
Tb233 Tb 0.65114 0.61154 0.10882 0.0
Eu234 Eu 0.50985 0.6075 0.13789 0.0
C235 C 0.67095 0.59941 0.07394 0.0
O236 O 0.67304 0.58206 0.08096 0.0
C237 C 0.59491 0.58074 0.12801 0.0
O238 O 0.50392 0.60886 0.16513 0.0
C239 C 0.42194 0.59797 0.12532 0.0
C240 C 0.51514 0.6249 0.17332 0.0
O241 O 0.52959 0.64077 0.16545 0.0
C242 C 0.5793 0.6475 0.12271 0.0
C243 C 0.37836 0.60338 0.11463 0.0
C244 C 0.38508 0.60514 0.09775 0.0
C245 C 0.34283 0.60803 0.08764 0.0
C246 C 0.29381 0.60914 0.09427 0.0
C247 C 0.28559 0.60767 0.11102 0.0
C248 C 0.32839 0.60468 0.12116 0.0
O249 O 0.5888 0.59384 0.11668 0.0
O250 O 0.56267 0.58159 0.13993 0.0
O251 O 0.72018 0.59331 0.11037 0.0
O252 O 0.71466 0.61869 0.12516 0.0
C253 C 0.74391 0.604 0.12103 0.0
O254 O 0.541 0.63745 0.12955 0.0
O255 O 0.62108 0.64032 0.11559 0.0
O256 O 0.42648 0.60708 0.1393 0.0
O257 O 0.46622 0.59363 0.1186 0.0
H258 H 0.42272 0.60382 0.09241 0.0
H259 H 0.26169 0.61055 0.08608 0.0
H260 H 0.32291 0.60313 0.13409 0.0
O261 O 0.89004 0.38005 0.09774 0.0
Tb262 Tb 0.88016 0.37843 0.1238 0.0
Eu263 Eu 0.02032 0.38788 0.12546 0.0
C264 C 0.87554 0.39586 0.08974 0.0
O265 O 0.86464 0.41198 0.09785 0.0
C266 C 0.9302 0.41772 0.13095 0.0
O267 O 0.02112 0.38691 0.15299 0.0
C268 C 0.11153 0.39564 0.11443 0.0
C269 C 0.9851 0.37822 0.16154 0.0
O270 O 0.94707 0.36975 0.15398 0.0
C271 C 0.96389 0.34516 0.12174 0.0
C272 C 0.1574 0.38685 0.10654 0.0
C273 C 0.16159 0.38603 0.08948 0.0
C274 C 0.20662 0.37911 0.08206 0.0
C275 C 0.24735 0.37303 0.09184 0.0
C276 C 0.24467 0.37422 0.10873 0.0
C277 C 0.19975 0.38122 0.11604 0.0
O278 O 0.9082 0.40278 0.13814 0.0
O279 O 0.97126 0.41486 0.12218 0.0
O280 O 0.80269 0.38843 0.11868 0.0
O281 O 0.81265 0.36517 0.13545 0.0
C282 C 0.77915 0.37629 0.12822 0.0
O283 O 0.99815 0.35771 0.11612 0.0
O284 O 0.91923 0.35061 0.12766 0.0
O285 O 0.10214 0.39081 0.12954 0.0
O286 O 0.06978 0.39762 0.10577 0.0
H287 H 0.13032 0.39105 0.08196 0.0
H288 H 0.28294 0.36854 0.0862 0.0
H289 H 0.19829 0.38263 0.1291 0.0
O290 O 0.12918 0.389 0.43153 0.0
Tb291 Tb 0.12159 0.39298 0.40556 0.0
Eu292 Eu 0.97656 0.39213 0.37124 0.0
C293 C 0.14507 0.40378 0.44051 0.0
O294 O 0.15118 0.42114 0.43376 0.0
C295 C 0.05622 0.42206 0.38526 0.0
O296 O 0.99316 0.38304 0.34543 0.0
C297 C 0.87977 0.39762 0.37677 0.0
C298 C 0.95642 0.37693 0.33581 0.0
O299 O 0.91036 0.37453 0.34179 0.0
C300 C 0.05136 0.36207 0.38981 0.0
C301 C 0.8426 0.40167 0.38973 0.0
C302 C 0.85769 0.40285 0.40605 0.0
C303 C 0.82147 0.40743 0.418 0.0
C304 C 0.77049 0.41061 0.41362 0.0
C305 C 0.75451 0.40907 0.3975 0.0
C306 C 0.79103 0.40459 0.38556 0.0
O307 O 0.05505 0.40893 0.39687 0.0
O308 O 0.02318 0.42026 0.37335 0.0
O309 O 0.18352 0.41413 0.40185 0.0
O310 O 0.18902 0.38598 0.39091 0.0
C311 C 0.21189 0.40281 0.39292 0.0
O312 O 0.01736 0.37621 0.39156 0.0
O313 O 0.09636 0.36431 0.39676 0.0
O314 O 0.90131 0.38012 0.3767 0.0
O315 O 0.9115 0.41193 0.37308 0.0
H316 H 0.89718 0.40033 0.40938 0.0
H317 H 0.74273 0.41361 0.42302 0.0
H318 H 0.77948 0.40356 0.37299 0.0
O319 O 0.37938 0.60971 0.40318 0.0
Tb320 Tb 0.37175 0.61603 0.37757 0.0
Eu321 Eu 0.5032 0.60912 0.38377 0.0
C322 C 0.35075 0.59562 0.40932 0.0
O323 O 0.32418 0.5845 0.3994 0.0
C324 C 0.42164 0.57578 0.37749 0.0
O325 O 0.50006 0.60854 0.35647 0.0
C326 C 0.59511 0.60257 0.39478 0.0
C327 C 0.51779 0.62351 0.34803 0.0
O328 O 0.53769 0.63858 0.35576 0.0
C329 C 0.44802 0.65046 0.37946 0.0
C330 C 0.64276 0.61067 0.40209 0.0
C331 C 0.64616 0.61362 0.41899 0.0
C332 C 0.69265 0.61911 0.42622 0.0
C333 C 0.73571 0.62195 0.41642 0.0
C334 C 0.73392 0.61845 0.39975 0.0
C335 C 0.68743 0.61273 0.3926 0.0
O336 O 0.39894 0.58836 0.36783 0.0
O337 O 0.45476 0.58208 0.38827 0.0
O338 O 0.29756 0.62643 0.38619 0.0
O339 O 0.30123 0.61242 0.36334 0.0
C340 C 0.27079 0.62052 0.37392 0.0
O341 O 0.47699 0.64016 0.38943 0.0
O342 O 0.41408 0.64185 0.3701 0.0
O343 O 0.58536 0.60626 0.37947 0.0
O344 O 0.55368 0.60179 0.40378 0.0
H345 H 0.61319 0.61105 0.42663 0.0
H346 H 0.77212 0.62544 0.42198 0.0
H347 H 0.68648 0.6094 0.37977 0.0
O348 O 0.3779 0.37494 0.90816 0.0
Tb349 Tb 0.36555 0.37175 0.88229 0.0
Eu350 Eu 0.50198 0.37988 0.88361 0.0
C351 C 0.36006 0.39067 0.91554 0.0
O352 O 0.34012 0.40485 0.90675 0.0
C353 C 0.41616 0.41093 0.87647 0.0
O354 O 0.50296 0.37854 0.85627 0.0
C355 C 0.59197 0.38731 0.8956 0.0
C356 C 0.52291 0.36329 0.8487 0.0
O357 O 0.54238 0.34883 0.85728 0.0
C358 C 0.44566 0.33838 0.88018 0.0
C359 C 0.64071 0.37967 0.90242 0.0
C360 C 0.64896 0.38062 0.91931 0.0
C361 C 0.69715 0.37632 0.92589 0.0
C362 C 0.73642 0.37008 0.91558 0.0
C363 C 0.7297 0.36949 0.89881 0.0
C364 C 0.68193 0.37446 0.8922 0.0
O365 O 0.39411 0.39654 0.86854 0.0
O366 O 0.45253 0.40684 0.88685 0.0
O367 O 0.29121 0.38541 0.87756 0.0
O368 O 0.29497 0.35442 0.8798 0.0
C369 C 0.26457 0.36929 0.87738 0.0
O370 O 0.47751 0.34868 0.88921 0.0
O371 O 0.40708 0.34674 0.8726 0.0
O372 O 0.5833 0.38524 0.88002 0.0
O373 O 0.55033 0.38596 0.90447 0.0
H374 H 0.61887 0.38588 0.92722 0.0
H375 H 0.77376 0.36676 0.92058 0.0
H376 H 0.67754 0.37481 0.87916 0.0
O377 O 0.1695 0.61159 0.9148 0.0
Tb378 Tb 0.15781 0.61601 0.88902 0.0
Eu379 Eu 1.00175 0.60308 0.86469 0.0
C380 C 0.18632 0.62644 0.92353 0.0
O381 O 0.19149 0.64374 0.91657 0.0
C382 C 0.09684 0.58021 0.87284 0.0
O383 O 0.00797 0.60762 0.83768 0.0
C384 C 0.90809 0.59477 0.87232 0.0
C385 C 0.04215 0.61887 0.83056 0.0
O386 O 0.07539 0.62857 0.83939 0.0
C387 C 0.06497 0.64089 0.87727 0.0
C388 C 0.86475 0.60029 0.8828 0.0
C389 C 0.86984 0.60343 0.89959 0.0
C390 C 0.82693 0.60886 0.90886 0.0
C391 C 0.77933 0.61089 0.90128 0.0
C392 C 0.77361 0.6074 0.88467 0.0
C393 C 0.81656 0.60215 0.87552 0.0
O394 O 0.09752 0.59725 0.88022 0.0
O395 O 0.05468 0.57669 0.86484 0.0
O396 O 0.21559 0.60259 0.87342 0.0
O397 O 0.22729 0.63167 0.88239 0.0
C398 C 0.24661 0.61757 0.87366 0.0
O399 O 0.0372 0.62562 0.8817 0.0
O400 O 0.11341 0.6418 0.88181 0.0
O401 O 0.92057 0.60754 0.86103 0.0
O402 O 0.94756 0.58576 0.87882 0.0
H403 H 0.90667 0.60175 0.90539 0.0
H404 H 0.74602 0.6144 0.90854 0.0
H405 H 0.81254 0.59956 0.86262 0.0
O406 O 0.89627 0.61369 0.59555 0.0
Tb407 Tb 0.87992 0.62073 0.62062 0.0
Eu408 Eu 0.01418 0.6108 0.62041 0.0
C409 C 0.87191 0.59904 0.5886 0.0
O410 O 0.84502 0.58703 0.59771 0.0
C411 C 0.92578 0.58172 0.62902 0.0
O412 O 0.01342 0.61133 0.64776 0.0
C413 C 0.10305 0.6015 0.60856 0.0
C414 C 0.03721 0.62527 0.65586 0.0
O415 O 0.06137 0.63912 0.6478 0.0
C416 C 0.96087 0.65313 0.62072 0.0
C417 C 0.14693 0.60838 0.59866 0.0
C418 C 0.14292 0.60983 0.58166 0.0
C419 C 0.1861 0.61403 0.57219 0.0
C420 C 0.23344 0.61659 0.57972 0.0
C421 C 0.23863 0.6146 0.5965 0.0
C422 C 0.19517 0.61086 0.606 0.0
O423 O 0.90578 0.59716 0.63603 0.0
O424 O 0.96292 0.58423 0.61857 0.0
O425 O 0.80562 0.60985 0.62893 0.0
O426 O 0.80854 0.63685 0.61619 0.0
C427 C 0.77839 0.62416 0.6231 0.0
O428 O 0.99143 0.64142 0.6124 0.0
O429 O 0.92184 0.64615 0.62896 0.0
O430 O 0.09709 0.60895 0.62313 0.0
O431 O 0.0596 0.59812 0.60108 0.0
H432 H 0.10676 0.60717 0.57569 0.0
H433 H 0.26718 0.61906 0.57236 0.0
H434 H 0.19945 0.60876 0.61893 0.0
O435 O 0.68676 0.37973 0.59044 0.0
Tb436 Tb 0.67188 0.37663 0.61624 0.0
Eu437 Eu 0.5129 0.38587 0.64034 0.0
C438 C 0.67416 0.39529 0.58184 0.0
O439 O 0.64714 0.40943 0.58851 0.0
C440 C 0.60297 0.41178 0.63249 0.0
O441 O 0.53122 0.3823 0.66687 0.0
C442 C 0.41538 0.38912 0.63628 0.0
C443 C 0.53691 0.36517 0.67411 0.0
O444 O 0.53538 0.3489 0.66553 0.0
C445 C 0.57738 0.35089 0.62443 0.0
C446 C 0.37227 0.38188 0.62656 0.0
C447 C 0.37375 0.38077 0.60952 0.0
C448 C 0.33111 0.37364 0.60094 0.0
C449 C 0.2877 0.36754 0.60956 0.0
C450 C 0.28567 0.36909 0.62641 0.0
C451 C 0.32786 0.37627 0.63486 0.0
O452 O 0.61152 0.39379 0.62737 0.0
O453 O 0.55779 0.41423 0.63907 0.0
O454 O 0.7372 0.38823 0.62971 0.0
O455 O 0.73058 0.35729 0.62597 0.0
C456 C 0.75847 0.37115 0.63223 0.0
O457 O 0.5512 0.36693 0.62127 0.0
O458 O 0.62633 0.35018 0.62058 0.0
O459 O 0.43628 0.37615 0.64608 0.0
O460 O 0.44841 0.40121 0.62949 0.0
H461 H 0.40748 0.38553 0.603 0.0
H462 H 0.25387 0.36277 0.60308 0.0
H463 H 0.3259 0.37769 0.64792 0.0
H464 H 0.76815 0.14416 0.1326 0.0
H465 H 0.67795 0.14458 0.14059 0.0
H466 H 0.68224 0.08164 0.14748 0.0
H467 H 0.77268 0.08125 0.13986 0.0
H468 H 0.61941 0.09951 0.12044 0.0
H469 H 0.65067 0.1031 0.17775 0.0
H470 H 0.68786 0.11762 0.2024 0.0
H471 H 0.60743 0.17167 0.1935 0.0
H472 H 0.57038 0.15759 0.16862 0.0
H473 H 0.35774 0.08009 0.13144 0.0
H474 H 0.45065 0.08128 0.13459 0.0
H475 H 0.4426 0.14393 0.14295 0.0
H476 H 0.34933 0.14275 0.13988 0.0
H477 H 0.50852 0.12694 0.16357 0.0
H478 H 0.48071 0.12718 0.10736 0.0
H479 H 0.45469 0.11865 0.0796 0.0
H480 H 0.53538 0.06376 0.083 0.0
H481 H 0.56098 0.07171 0.11094 0.0
C482 C 0.75042 0.13061 0.13665 0.0
C483 C 0.77715 0.11268 0.13571 0.0
C484 C 0.69899 0.13085 0.14118 0.0
C485 C 0.67362 0.11314 0.14461 0.0
C486 C 0.70143 0.09547 0.14503 0.0
C487 C 0.75307 0.09527 0.14077 0.0
C488 C 0.61724 0.11252 0.1441 0.0
C489 C 0.59487 0.10504 0.13 0.0
C490 C 0.58606 0.12088 0.15623 0.0
C491 C 0.60815 0.12934 0.17122 0.0
C492 C 0.64132 0.11815 0.18094 0.0
C493 C 0.66228 0.12629 0.19499 0.0
C494 C 0.65013 0.14557 0.19949 0.0
C495 C 0.61686 0.15674 0.18999 0.0
C496 C 0.59583 0.14868 0.17592 0.0
C497 C 0.37592 0.09413 0.13379 0.0
C498 C 0.34666 0.11138 0.13513 0.0
C499 C 0.4289 0.0948 0.13559 0.0
C500 C 0.45368 0.11274 0.13868 0.0
C501 C 0.4243 0.12994 0.14048 0.0
C502 C 0.37114 0.12927 0.1387 0.0
C503 C 0.51023 0.11341 0.13995 0.0
C504 C 0.53275 0.12109 0.15406 0.0
C505 C 0.54198 0.10574 0.12756 0.0
C506 C 0.52214 0.09994 0.1114 0.0
C507 C 0.49192 0.11307 0.10237 0.0
C508 C 0.47753 0.10839 0.08654 0.0
C509 C 0.49349 0.0907 0.07955 0.0
C510 C 0.52313 0.07748 0.08844 0.0
C511 C 0.53747 0.08204 0.10429 0.0
H512 H 0.48323 0.0873 0.06719 0.0
H513 H 0.6664 0.15184 0.21037 0.0
H514 H 0.27738 0.9246 0.10142 0.0
H515 H 0.1851 0.92661 0.10552 0.0
H516 H 0.1894 0.87305 0.13364 0.0
H517 H 0.28187 0.87096 0.12953 0.0
H518 H 0.12388 0.87077 0.10855 0.0
H519 H 0.15464 0.91573 0.15186 0.0
H520 H 0.18781 0.94473 0.16641 0.0
H521 H 0.1167 0.98311 0.13185 0.0
H522 H 0.08293 0.95435 0.11708 0.0
H523 H 0.85541 0.87182 0.11846 0.0
H524 H 0.94589 0.87296 0.12588 0.0
H525 H 0.96516 0.92555 0.09719 0.0
H526 H 0.87462 0.92469 0.08996 0.0
H527 H 0.01759 0.92734 0.12624 0.0
H528 H 0.997 0.88284 0.0812 0.0
H529 H 0.95984 0.85438 0.06688 0.0
H530 H 0.01371 0.81561 0.10421 0.0
H531 H 0.0506 0.84392 0.11888 0.0
C532 C 0.25876 0.91351 0.10879 0.0
C533 C 0.28653 0.89762 0.11517 0.0
C534 C 0.20614 0.91474 0.11122 0.0
C535 C 0.18052 0.90004 0.11997 0.0
C536 C 0.20859 0.88459 0.12692 0.0
C537 C 0.26128 0.8834 0.12455 0.0
C538 C 0.12412 0.89938 0.1199 0.0
C539 C 0.10058 0.88294 0.11281 0.0
C540 C 0.09397 0.91554 0.12496 0.0
C541 C 0.1164 0.93285 0.13332 0.0
C542 C 0.14655 0.93033 0.14724 0.0
C543 C 0.16534 0.94673 0.15556 0.0
C544 C 0.15445 0.96573 0.15004 0.0
C545 C 0.12509 0.96838 0.13611 0.0
C546 C 0.10595 0.95204 0.1278 0.0
C547 C 0.8788 0.88379 0.11396 0.0
C548 C 0.85822 0.89807 0.10353 0.0
C549 C 0.93041 0.88437 0.11814 0.0
C550 C 0.96214 0.89925 0.11196 0.0
C551 C 0.94123 0.91396 0.10207 0.0
C552 C 0.88972 0.91334 0.09784 0.0
C553 C 0.01777 0.8988 0.11488 0.0
C554 C 0.04104 0.91505 0.12233 0.0
C555 C 0.0479 0.88254 0.11005 0.0
C556 C 0.02598 0.86551 0.10123 0.0
C557 C 1.00053 0.86826 0.08642 0.0
C558 C 0.9796 0.85216 0.07823 0.0
C559 C 0.98427 0.8332 0.08466 0.0
C560 C 0.01003 0.83031 0.09927 0.0
C561 C 0.03097 0.84637 0.10752 0.0
H562 H 0.96804 0.82075 0.0783 0.0
H563 H 0.16829 0.97839 0.15665 0.0
H564 H 0.76564 0.914 0.3508 0.0
H565 H 0.85649 0.91798 0.34413 0.0
H566 H 0.88947 0.86299 0.36829 0.0
H567 H 0.79935 0.85856 0.37404 0.0
H568 H 0.92839 0.92432 0.36297 0.0
H569 H 0.99571 0.8419 0.3584 0.0
H570 H 0.96658 0.81112 0.34556 0.0
H571 H 0.87918 0.84435 0.31113 0.0
H572 H 0.90835 0.87536 0.3236 0.0
H573 H 0.16211 0.91129 0.39962 0.0
H574 H 0.07584 0.91147 0.38925 0.0
H575 H 0.12968 0.88881 0.34349 0.0
H576 H 0.21634 0.88682 0.35444 0.0
H577 H 0.05006 0.8706 0.34995 0.0
H578 H 0.08313 0.93847 0.34927 0.0
H579 H 0.11215 0.9711 0.35857 0.0
H580 H 1.00009 0.97034 0.39653 0.0
H581 H 0.97094 0.93755 0.38767 0.0
C582 C 0.79233 0.90251 0.35416 0.0
C583 C 0.77569 0.886 0.36293 0.0
C584 C 0.84422 0.90481 0.35043 0.0
C585 C 0.88021 0.89071 0.35555 0.0
C586 C 0.86281 0.87384 0.36373 0.0
C587 C 0.81108 0.87137 0.36714 0.0
C588 C 0.93615 0.89453 0.3543 0.0
C589 C 0.955 0.91266 0.3599 0.0
C590 C 0.97125 0.87964 0.34971 0.0
C591 C 0.95415 0.861 0.34199 0.0
C592 C 0.97062 0.84268 0.34801 0.0
C593 C 0.95399 0.82517 0.34081 0.0
C594 C 0.92101 0.82578 0.32755 0.0
C595 C 0.90465 0.8439 0.32143 0.0
C596 C 0.92117 0.86145 0.32857 0.0
C597 C 0.15587 0.90605 0.38741 0.0
C598 C 0.19648 0.89867 0.37801 0.0
C599 C 0.10629 0.90662 0.38132 0.0
C600 C 0.0959 0.90054 0.36542 0.0
C601 C 0.13652 0.89368 0.35578 0.0
C602 C 0.18625 0.8927 0.36202 0.0
C603 C 0.04206 0.89998 0.35953 0.0
C604 C 0.02361 0.88247 0.35261 0.0
C605 C 0.00748 0.91572 0.36232 0.0
C606 C 0.02499 0.93545 0.36782 0.0
C607 C 0.06491 0.94518 0.35968 0.0
C608 C 0.08136 0.96372 0.36487 0.0
C609 C 0.05802 0.97278 0.37814 0.0
C610 C 0.01814 0.96331 0.38625 0.0
C611 C 1.00159 0.94474 0.38113 0.0
H612 H 0.0708 0.98714 0.38213 0.0
H613 H 0.90814 0.81221 0.32201 0.0
H614 H 0.68793 0.1435 0.40127 0.0
H615 H 0.59495 0.14144 0.40004 0.0
H616 H 0.60518 0.11385 0.35308 0.0
H617 H 0.69874 0.11576 0.35442 0.0
H618 H 0.5242 0.15595 0.38214 0.0
H619 H 0.50859 0.0817 0.34826 0.0
H620 H 0.55235 0.04959 0.3458 0.0
H621 H 0.62069 0.05787 0.39251 0.0
H622 H 0.57773 0.09007 0.39516 0.0
H623 H 0.25515 0.13985 0.38057 0.0
H624 H 0.34226 0.1427 0.36949 0.0
H625 H 0.38987 0.09365 0.39914 0.0
H626 H 0.3035 0.09029 0.40944 0.0
H627 H 0.4398 0.09146 0.37333 0.0
H628 H 0.40187 0.14451 0.41072 0.0
H629 H 0.35486 0.17377 0.42035 0.0
H630 H 0.39478 0.20488 0.37689 0.0
H631 H 0.44156 0.17569 0.36692 0.0
C632 C 0.67036 0.13717 0.39061 0.0
C633 C 0.70054 0.12968 0.37797 0.0
C634 C 0.61711 0.13601 0.3899 0.0
C635 C 0.59272 0.12732 0.37653 0.0
C636 C 0.6229 0.12034 0.36365 0.0
C637 C 0.67633 0.12149 0.36438 0.0
C638 C 0.53595 0.12529 0.37644 0.0
C639 C 0.50578 0.14186 0.38005 0.0
C640 C 0.51149 0.10694 0.37386 0.0
C641 C 0.54044 0.08836 0.37181 0.0
C642 C 0.53331 0.07671 0.35793 0.0
C643 C 0.55786 0.05849 0.35653 0.0
C644 C 0.58906 0.05166 0.36903 0.0
C645 C 0.59642 0.06317 0.38285 0.0
C646 C 0.57234 0.08147 0.38425 0.0
C647 C 0.28407 0.1294 0.3843 0.0
C648 C 0.27283 0.11505 0.39604 0.0
C649 C 0.33395 0.13114 0.37812 0.0
C650 C 0.37324 0.11867 0.38373 0.0
C651 C 0.36072 0.10352 0.39459 0.0
C652 C 0.31123 0.10168 0.40058 0.0
C653 C 0.42815 0.12196 0.37956 0.0
C654 C 0.45805 0.10567 0.37501 0.0
C655 C 0.45259 0.14035 0.38203 0.0
C656 C 0.42457 0.15787 0.38799 0.0
C657 C 0.4003 0.15756 0.40318 0.0
C658 C 0.37375 0.17412 0.4087 0.0
C659 C 0.37168 0.19115 0.39921 0.0
C660 C 0.3963 0.19166 0.3842 0.0
C661 C 0.42282 0.17512 0.37861 0.0
H662 H 0.35113 0.20396 0.40351 0.0
H663 H 0.60774 0.03748 0.36797 0.0
H664 H 0.24984 0.8366 0.89703 0.0
H665 H 0.33943 0.83945 0.88936 0.0
H666 H 0.30674 0.89301 0.8634 0.0
H667 H 0.21702 0.89106 0.87194 0.0
H668 H 0.38037 0.85725 0.84887 0.0
H669 H 0.35277 0.9061 0.89017 0.0
H670 H 0.32484 0.9202 0.91618 0.0
H671 H 0.41675 0.87812 0.94177 0.0
H672 H 0.44368 0.86325 0.9159 0.0
H673 H 0.65016 0.8829 0.84528 0.0
H674 H 0.55627 0.88372 0.84573 0.0
H675 H 0.55631 0.84755 0.88866 0.0
H676 H 0.64947 0.84686 0.88833 0.0
H677 H 0.49704 0.87924 0.89252 0.0
H678 H 0.52091 0.82928 0.85156 0.0
H679 H 0.55355 0.81612 0.82573 0.0
H680 H 0.47279 0.86115 0.79972 0.0
H681 H 0.4402 0.87474 0.82544 0.0
C682 C 0.26138 0.84902 0.88965 0.0
C683 C 0.22604 0.86381 0.88539 0.0
C684 C 0.3127 0.85055 0.88523 0.0
C685 C 0.32979 0.86659 0.87605 0.0
C686 C 0.29423 0.88057 0.8706 0.0
C687 C 0.24282 0.87932 0.87536 0.0
C688 C 0.38531 0.86895 0.87302 0.0
C689 C 0.40593 0.86242 0.85828 0.0
C690 C 0.41861 0.87534 0.88543 0.0
C691 C 0.39951 0.88331 0.90105 0.0
C692 C 0.36601 0.89951 0.90133 0.0
C693 C 0.35064 0.90774 0.91606 0.0
C694 C 0.36911 0.90009 0.93062 0.0
C695 C 0.40265 0.88409 0.93048 0.0
C696 C 0.41768 0.87566 0.91578 0.0
C697 C 0.62996 0.87492 0.85466 0.0
C698 C 0.65706 0.86482 0.86677 0.0
C699 C 0.57636 0.87538 0.8549 0.0
C700 C 0.54911 0.86568 0.86723 0.0
C701 C 0.57637 0.85521 0.87906 0.0
C702 C 0.62967 0.85476 0.87883 0.0
C703 C 0.49247 0.86713 0.8685 0.0
C704 C 0.47159 0.8743 0.883 0.0
C705 C 0.45914 0.86134 0.85587 0.0
C706 C 0.47862 0.85316 0.84043 0.0
C707 C 0.51048 0.83648 0.84034 0.0
C708 C 0.52889 0.82892 0.82572 0.0
C709 C 0.51538 0.83783 0.81109 0.0
C710 C 0.4833 0.85428 0.81106 0.0
C711 C 0.46482 0.86191 0.82565 0.0
H712 H 0.52967 0.83195 0.79978 0.0
H713 H 0.35727 0.90652 0.94201 0.0
H714 H 0.1556 0.0628 0.91621 0.0
H715 H 0.06468 0.05902 0.91063 0.0
H716 H 0.07452 0.10378 0.8737 0.0
H717 H 0.16564 0.10802 0.87955 0.0
H718 H 0.99796 0.11082 0.89522 0.0
H719 H 0.05055 0.05456 0.8627 0.0
H720 H 0.09807 0.0236 0.85832 0.0
H721 H 0.02102 0.99717 0.89876 0.0
H722 H 0.97295 0.02797 0.90333 0.0
H723 H 0.742 0.10542 0.87392 0.0
H724 H 0.83414 0.10149 0.87032 0.0
H725 H 0.83512 0.05543 0.90631 0.0
H726 H 0.74261 0.05908 0.90972 0.0
H727 H 0.90676 0.04835 0.88335 0.0
H728 H 0.85888 0.10151 0.91768 0.0
H729 H 0.81355 0.13175 0.92589 0.0
H730 H 0.88436 0.16355 0.88694 0.0
H731 H 0.92978 0.1334 0.87841 0.0
C732 C 0.13853 0.07176 0.90681 0.0
C733 C 0.16779 0.08583 0.89841 0.0
C734 C 0.0866 0.06941 0.9035 0.0
C735 C 0.06278 0.08097 0.89163 0.0
C736 C 0.09218 0.09462 0.88286 0.0
C737 C 0.14428 0.09696 0.88615 0.0
C738 C 0.00648 0.08005 0.88947 0.0
C739 C 0.97814 0.09727 0.8922 0.0
C740 C 0.98039 0.06217 0.88633 0.0
C741 C 0.00835 0.04355 0.88338 0.0
C742 C 0.04382 0.04214 0.87066 0.0
C743 C 0.07079 0.02462 0.86813 0.0
C744 C 0.06263 0.00844 0.87827 0.0
C745 C 0.02736 0.00972 0.89093 0.0
C746 C 1.00007 0.02717 0.89345 0.0
C747 C 0.76166 0.09413 0.88076 0.0
C748 C 0.73547 0.08282 0.89232 0.0
C749 C 0.81432 0.09193 0.87874 0.0
C750 C 0.84173 0.07853 0.88835 0.0
C751 C 0.81486 0.06599 0.89887 0.0
C752 C 0.76206 0.06814 0.90085 0.0
C753 C 0.89844 0.07924 0.88878 0.0
C754 C 0.9267 0.06199 0.88596 0.0
C755 C 0.92462 0.097 0.89228 0.0
C756 C 0.89724 0.11516 0.89729 0.0
C757 C 0.86446 0.11492 0.91079 0.0
C758 C 0.83882 0.13204 0.91552 0.0
C759 C 0.84592 0.14955 0.9069 0.0
C760 C 0.87881 0.14997 0.89357 0.0
C761 C 0.90455 0.13287 0.8888 0.0
H762 H 0.82606 0.1628 0.91058 0.0
H763 H 0.0836 0.9949 0.87631 0.0
H764 H 0.77423 0.15254 0.60976 0.0
H765 H 0.863 0.15606 0.61855 0.0
H766 H 0.85724 0.09816 0.64003 0.0
H767 H 0.76771 0.09492 0.63166 0.0
H768 H 0.92111 0.12233 0.65699 0.0
H769 H 0.8957 0.10364 0.60163 0.0
H770 H 0.8585 0.10722 0.57439 0.0
H771 H 0.93337 0.16308 0.56876 0.0
H772 H 0.97018 0.16003 0.59613 0.0
H773 H 0.18553 0.09775 0.64832 0.0
H774 H 0.09209 0.09893 0.64766 0.0
H775 H 0.09851 0.15614 0.62496 0.0
H776 H 0.19199 0.15482 0.62534 0.0
H777 H 0.03367 0.13272 0.60939 0.0
H778 H 0.06203 0.14999 0.66522 0.0
H779 H 0.09726 0.14542 0.69263 0.0
H780 H 0.01749 0.09041 0.69708 0.0
H781 H 0.98229 0.09453 0.6696 0.0
C782 C 0.7914 0.14092 0.61692 0.0
C783 C 0.76433 0.12349 0.62009 0.0
C784 C 0.84219 0.14285 0.62181 0.0
C785 C 0.8672 0.12716 0.62959 0.0
C786 C 0.83884 0.11042 0.634 0.0
C787 C 0.78767 0.1086 0.62928 0.0
C788 C 0.92378 0.12727 0.63128 0.0
C789 C 0.94578 0.12446 0.64659 0.0
C790 C 0.95604 0.13012 0.61769 0.0
C791 C 0.93535 0.13169 0.601 0.0
C792 C 0.90406 0.11673 0.59462 0.0
C793 C 0.883 0.11867 0.57916 0.0
C794 C 0.8935 0.13538 0.56986 0.0
C795 C 0.92523 0.15016 0.57599 0.0
C796 C 0.94621 0.14833 0.59148 0.0
C797 C 0.16695 0.11068 0.64338 0.0
C798 C 0.19597 0.12623 0.63693 0.0
C799 C 0.11352 0.11137 0.64305 0.0
C800 C 0.08808 0.12771 0.63639 0.0
C801 C 0.11718 0.14338 0.63017 0.0
C802 C 0.17058 0.14266 0.63045 0.0
C803 C 0.03129 0.12808 0.63518 0.0
C804 C 0.00916 0.13079 0.61986 0.0
C805 C 0.99908 0.1249 0.64873 0.0
C806 C 0.01987 0.12249 0.6653 0.0
C807 C 0.05227 0.13685 0.672 0.0
C808 C 0.07219 0.13435 0.68756 0.0
C809 C 0.05972 0.11761 0.69658 0.0
C810 C 0.02716 0.10336 0.69007 0.0
C811 C 0.00716 0.10578 0.67452 0.0
H812 H 0.0752 0.1157 0.70861 0.0
H813 H 0.87714 0.13687 0.5579 0.0
H814 H 0.24871 0.8762 0.6325 0.0
H815 H 0.34114 0.87782 0.63724 0.0
H816 H 0.34444 0.93656 0.6173 0.0
H817 H 0.25242 0.93486 0.61242 0.0
H818 H 0.4149 0.88211 0.61394 0.0
H819 H 0.44397 0.96257 0.63537 0.0
H820 H 0.40096 0.98803 0.65172 0.0
H821 H 0.31636 0.94341 0.67692 0.0
H822 H 0.36014 0.91758 0.66117 0.0
H823 H 0.66141 0.94212 0.61317 0.0
H824 H 0.57005 0.94084 0.61927 0.0
H825 H 0.5872 0.88118 0.63649 0.0
H826 H 0.67894 0.88245 0.63017 0.0
H827 H 0.50654 0.93456 0.64398 0.0
H828 H 0.48682 0.85397 0.6216 0.0
H829 H 0.53262 0.83063 0.60384 0.0
H830 H 0.59622 0.87894 0.57698 0.0
H831 H 0.55015 0.90251 0.59438 0.0
C832 C 0.2691 0.88956 0.62938 0.0
C833 C 0.24342 0.90545 0.62215 0.0
C834 C 0.3219 0.89044 0.63203 0.0
C835 C 0.34982 0.90734 0.6277 0.0
C836 C 0.32378 0.92346 0.62094 0.0
C837 C 0.27116 0.92249 0.61816 0.0
C838 C 0.4065 0.90764 0.62921 0.0
C839 C 0.43487 0.89333 0.62082 0.0
C840 C 0.43271 0.92272 0.63766 0.0
C841 C 0.40521 0.93812 0.647 0.0
C842 C 0.41632 0.95816 0.64444 0.0
C843 C 0.39183 0.97266 0.6536 0.0
C844 C 0.35595 0.96734 0.66531 0.0
C845 C 0.34418 0.9475 0.66783 0.0
C846 C 0.36887 0.93291 0.6588 0.0
C847 C 0.64587 0.92899 0.61879 0.0
C848 C 0.67703 0.91244 0.62134 0.0
C849 C 0.59366 0.92824 0.62223 0.0
C850 C 0.57147 0.91082 0.62811 0.0
C851 C 0.60333 0.89471 0.63178 0.0
C852 C 0.65576 0.89549 0.62835 0.0
C853 C 0.51477 0.90903 0.62876 0.0
C854 C 0.48645 0.92313 0.63738 0.0
C855 C 0.48846 0.89409 0.62017 0.0
C856 C 0.51559 0.87999 0.60945 0.0
C857 C 0.51046 0.85959 0.61187 0.0
C858 C 0.53645 0.84633 0.60186 0.0
C859 C 0.56748 0.8533 0.58934 0.0
C860 C 0.57235 0.87355 0.58673 0.0
C861 C 0.54632 0.88687 0.59667 0.0
H862 H 0.58764 0.84301 0.58162 0.0
H863 H 0.33756 0.97862 0.6725 0.0
H864 H 0.81343 0.57869 0.10795 0.0
H865 H 0.9057 0.5785 0.11205 0.0
H866 H 0.89007 0.62367 0.14854 0.0
H867 H 0.79783 0.62458 0.14375 0.0
H868 H 0.96229 0.63395 0.13167 0.0
H869 H 0.92665 0.57409 0.15645 0.0
H870 H 0.89139 0.54096 0.16129 0.0
H871 H 0.97896 0.51813 0.12155 0.0
H872 H 0.01341 0.55125 0.11607 0.0
H873 H 0.24157 0.58662 0.13622 0.0
H874 H 0.15141 0.586 0.14423 0.0
H875 H 0.11697 0.62838 0.10687 0.0
H876 H 0.20653 0.63053 0.10001 0.0
H877 H 0.07134 0.57423 0.13133 0.0
H878 H 0.01572 0.6549 0.11245 0.0
H879 H 0.05255 0.68827 0.11415 0.0
H880 H 0.14872 0.66985 0.15338 0.0
H881 H 0.11199 0.63645 0.15208 0.0
C882 C 0.82963 0.5884 0.117 0.0
C883 C 0.79845 0.60175 0.12546 0.0
C884 C 0.88256 0.5882 0.11944 0.0
C885 C 0.90551 0.60101 0.1307 0.0
C886 C 0.8738 0.61372 0.13969 0.0
C887 C 0.82093 0.61416 0.13703 0.0
C888 C 0.96256 0.6022 0.13211 0.0
C889 C 0.98595 0.62083 0.13171 0.0
C890 C 0.99412 0.58522 0.13289 0.0
C891 C 0.9725 0.56526 0.1358 0.0
C892 C 0.93793 0.56208 0.14859 0.0
C893 C 0.91806 0.54329 0.15146 0.0
C894 C 0.93303 0.52746 0.14177 0.0
C895 C 0.96747 0.53041 0.12907 0.0
C896 C 0.98709 0.54922 0.12605 0.0
C897 C 0.21503 0.59628 0.13006 0.0
C898 C 0.23181 0.60851 0.11734 0.0
C899 C 0.16315 0.5957 0.13451 0.0
C900 C 0.12674 0.60728 0.12631 0.0
C901 C 0.14378 0.61964 0.11378 0.0
C902 C 0.19541 0.62057 0.10962 0.0
C903 C 0.07074 0.60594 0.13011 0.0
C904 C 0.04757 0.5873 0.1315 0.0
C905 C 0.03935 0.62295 0.13115 0.0
C906 C 0.06128 0.64311 0.13209 0.0
C907 C 0.0445 0.65799 0.1215 0.0
C908 C 0.06543 0.67691 0.12238 0.0
C909 C 0.10303 0.68117 0.13384 0.0
C910 C 0.1197 0.66652 0.14448 0.0
C911 C 0.09889 0.64758 0.14366 0.0
H912 H 0.1192 0.69582 0.13449 0.0
H913 H 0.9182 0.5129 0.14419 0.0
H914 H 0.29252 0.39838 0.13036 0.0
H915 H 0.38199 0.39592 0.13888 0.0
H916 H 0.39327 0.33893 0.11609 0.0
H917 H 0.30415 0.34137 0.10751 0.0
H918 H 0.45223 0.3697 0.15476 0.0
H919 H 0.49493 0.34202 0.09028 0.0
H920 H 0.45335 0.34145 0.06349 0.0
H921 H 0.37205 0.39455 0.07511 0.0
H922 H 0.41402 0.39569 0.10179 0.0
H923 H 0.72191 0.34974 0.14563 0.0
H924 H 0.62822 0.34735 0.14652 0.0
H925 H 0.61686 0.398 0.11516 0.0
H926 H 0.70972 0.40022 0.11406 0.0
H927 H 0.55684 0.36988 0.10462 0.0
H928 H 0.58976 0.40084 0.15586 0.0
H929 H 0.62883 0.40404 0.18287 0.0
H930 H 0.55831 0.34988 0.19777 0.0
H931 H 0.51934 0.34622 0.17076 0.0
C932 C 0.31349 0.38497 0.12779 0.0
C933 C 0.29172 0.37015 0.11813 0.0
C934 C 0.36462 0.3836 0.13264 0.0
C935 C 0.39445 0.3674 0.12786 0.0
C936 C 0.37104 0.35163 0.11976 0.0
C937 C 0.32016 0.35303 0.11488 0.0
C938 C 0.45099 0.36848 0.12874 0.0
C939 C 0.47526 0.3696 0.14384 0.0
C940 C 0.48086 0.36882 0.11444 0.0
C941 C 0.45719 0.36878 0.09811 0.0
C942 C 0.46848 0.35365 0.08707 0.0
C943 C 0.44482 0.35323 0.0719 0.0
C944 C 0.40993 0.36791 0.06762 0.0
C945 C 0.39898 0.38316 0.07844 0.0
C946 C 0.42272 0.3837 0.09359 0.0
C947 C 0.69925 0.3604 0.13904 0.0
C948 C 0.723 0.37513 0.12975 0.0
C949 C 0.64579 0.35908 0.13958 0.0
C950 C 0.61539 0.37253 0.13092 0.0
C951 C 0.63937 0.38739 0.12187 0.0
C952 C 0.6925 0.38868 0.12129 0.0
C953 C 0.5587 0.37092 0.13069 0.0
C954 C 0.53418 0.36975 0.11562 0.0
C955 C 0.52878 0.37096 0.145 0.0
C956 C 0.5521 0.37315 0.16124 0.0
C957 C 0.58293 0.38952 0.16485 0.0
C958 C 0.60499 0.39144 0.18017 0.0
C959 C 0.59618 0.37714 0.19202 0.0
C960 C 0.56517 0.36092 0.18858 0.0
C961 C 0.54306 0.35893 0.17327 0.0
H962 H 0.61329 0.37865 0.20387 0.0
H963 H 0.39145 0.3675 0.05591 0.0
H964 H 0.68825 0.4369 0.4091 0.0
H965 H 0.59596 0.4385 0.40533 0.0
H966 H 0.60287 0.38813 0.37354 0.0
H967 H 0.69558 0.38649 0.37725 0.0
H968 H 0.53604 0.41316 0.36214 0.0
H969 H 0.56237 0.38302 0.41332 0.0
H970 H 0.59044 0.37721 0.4414 0.0
H971 H 0.5189 0.43112 0.45643 0.0
H972 H 0.49045 0.43728 0.42842 0.0
H973 H 0.2781 0.3791 0.37648 0.0
H974 H 0.37034 0.38389 0.3733 0.0
H975 H 0.3585 0.44066 0.39649 0.0
H976 H 0.26631 0.43595 0.39969 0.0
H977 H 0.42701 0.41416 0.41122 0.0
H978 H 0.38272 0.43655 0.35843 0.0
H979 H 0.34565 0.43475 0.33115 0.0
H980 H 0.4466 0.38709 0.31914 0.0
H981 H 0.48379 0.38834 0.34648 0.0
C982 C 0.6702 0.42619 0.40124 0.0
C983 C 0.69931 0.41145 0.39358 0.0
C984 C 0.61733 0.4271 0.39913 0.0
C985 C 0.59215 0.41321 0.38939 0.0
C986 C 0.62134 0.399 0.38114 0.0
C987 C 0.6744 0.39812 0.38322 0.0
C988 C 0.53537 0.41323 0.38821 0.0
C989 C 0.51214 0.41317 0.37287 0.0
C990 C 0.50404 0.41344 0.4022 0.0
C991 C 0.5248 0.41072 0.41874 0.0
C992 C 0.55324 0.39378 0.42257 0.0
C993 C 0.56877 0.39032 0.4385 0.0
C994 C 0.55614 0.40372 0.45071 0.0
C995 C 0.5284 0.42071 0.44698 0.0
C996 C 0.51257 0.42418 0.43108 0.0
C997 C 0.29505 0.39277 0.38056 0.0
C998 C 0.26529 0.40708 0.38845 0.0
C999 C 0.34768 0.39551 0.37872 0.0
C1000 C 0.37123 0.41259 0.38472 0.0
C1001 C 0.34105 0.42734 0.39184 0.0
C1002 C 0.28844 0.42465 0.39361 0.0
C1003 C 0.4277 0.41408 0.38521 0.0
C1004 C 0.45089 0.4144 0.40048 0.0
C1005 C 0.45859 0.41331 0.37115 0.0
C1006 C 0.43611 0.41255 0.35463 0.0
C1007 C 0.39691 0.42558 0.35005 0.0
C1008 C 0.37583 0.42467 0.33454 0.0
C1009 C 0.39376 0.41082 0.3234 0.0
C1010 C 0.43279 0.39784 0.32777 0.0
C1011 C 0.45393 0.39868 0.34328 0.0
H1012 H 0.37742 0.41014 0.31139 0.0
H1013 H 0.56823 0.40102 0.46303 0.0
H1014 H 0.20608 0.63269 0.39757 0.0
H1015 H 0.11287 0.63094 0.39789 0.0
H1016 H 0.11397 0.60709 0.34953 0.0
H1017 H 0.20786 0.60871 0.34917 0.0
H1018 H 0.0377 0.63645 0.35463 0.0
H1019 H 0.09629 0.57623 0.37918 0.0
H1020 H 0.14849 0.55696 0.39833 0.0
H1021 H 0.07554 0.58591 0.43835 0.0
H1022 H 0.02342 0.60556 0.41945 0.0
H1023 H 0.7824 0.58741 0.38557 0.0
H1024 H 0.87204 0.58619 0.37674 0.0
H1025 H 0.88648 0.64851 0.38581 0.0
H1026 H 0.79734 0.64965 0.39489 0.0
H1027 H 0.95426 0.59592 0.39708 0.0
H1028 H 0.9757 0.66667 0.35853 0.0
H1029 H 0.92494 0.68646 0.33937 0.0
H1030 H 0.83749 0.63527 0.3266 0.0
H1031 H 0.88817 0.61512 0.3455 0.0
C1032 C 0.18652 0.62722 0.38693 0.0
C1033 C 0.21426 0.62081 0.37334 0.0
C1034 C 0.13322 0.62616 0.38716 0.0
C1035 C 0.10642 0.6187 0.3738 0.0
C1036 C 0.13389 0.61286 0.35998 0.0
C1037 C 0.18745 0.61378 0.35979 0.0
C1038 C 0.04987 0.61658 0.37456 0.0
C1039 C 0.01941 0.62752 0.36385 0.0
C1040 C 0.02597 0.60472 0.38647 0.0
C1041 C 0.05619 0.59248 0.39788 0.0
C1042 C 0.09155 0.57856 0.39206 0.0
C1043 C 0.12114 0.56757 0.40287 0.0
C1044 C 0.11548 0.57028 0.41954 0.0
C1045 C 0.07986 0.58383 0.42544 0.0
C1046 C 0.05027 0.59489 0.41468 0.0
C1047 C 0.80433 0.60093 0.38514 0.0
C1048 C 0.78286 0.61868 0.39067 0.0
C1049 C 0.85563 0.6002 0.38028 0.0
C1050 C 0.88604 0.61726 0.3806 0.0
C1051 C 0.86373 0.6352 0.3853 0.0
C1052 C 0.81277 0.63587 0.39041 0.0
C1053 C 0.94196 0.61614 0.37737 0.0
C1054 C 0.97241 0.60466 0.38771 0.0
C1055 C 0.96578 0.62748 0.36512 0.0
C1056 C 0.93551 0.63942 0.35355 0.0
C1057 C 0.9458 0.65962 0.35158 0.0
C1058 C 0.91701 0.6709 0.34077 0.0
C1059 C 0.87792 0.66214 0.3318 0.0
C1060 C 0.86765 0.64206 0.33359 0.0
C1061 C 0.89635 0.6307 0.34438 0.0
H1062 H 0.85566 0.67091 0.32345 0.0
H1063 H 0.13865 0.56187 0.42789 0.0
H1064 H 0.20344 0.33657 0.87782 0.0
H1065 H 0.10984 0.3355 0.87699 0.0
H1066 H 0.1053 0.39885 0.87282 0.0
H1067 H 0.19864 0.39997 0.87381 0.0
H1068 H 0.04017 0.38658 0.89538 0.0
H1069 H 0.07723 0.36871 0.84049 0.0
H1070 H 0.11777 0.34956 0.81862 0.0
H1071 H 0.04527 0.29685 0.83592 0.0
H1072 H 0.00483 0.31566 0.85804 0.0
H1073 H 0.77871 0.39681 0.88063 0.0
H1074 H 0.86839 0.39538 0.87212 0.0
H1075 H 0.87624 0.3346 0.88707 0.0
H1076 H 0.78682 0.33615 0.89592 0.0
H1077 H 0.93819 0.34551 0.85764 0.0
H1078 H 0.90994 0.36216 0.91379 0.0
H1079 H 0.86858 0.38059 0.93591 0.0
H1080 H 0.92466 0.43499 0.91617 0.0
H1081 H 0.96606 0.41682 0.89382 0.0
C1082 C 0.18241 0.35023 0.87657 0.0
C1083 C 0.20829 0.36835 0.87587 0.0
C1084 C 0.12893 0.34961 0.87604 0.0
C1085 C 0.10035 0.3671 0.87471 0.0
C1086 C 0.12637 0.38517 0.87383 0.0
C1087 C 0.17975 0.38579 0.87435 0.0
C1088 C 0.04341 0.36669 0.87505 0.0
C1089 C 0.01805 0.37784 0.88692 0.0
C1090 C 0.01421 0.35491 0.86432 0.0
C1091 C 0.03839 0.34357 0.85102 0.0
C1092 C 0.07026 0.35301 0.83971 0.0
C1093 C 0.09316 0.34222 0.82725 0.0
C1094 C 0.08421 0.32199 0.8259 0.0
C1095 C 0.05222 0.31252 0.83699 0.0
C1096 C 0.02926 0.32324 0.84948 0.0
C1097 C 0.79892 0.38291 0.88138 0.0
C1098 C 0.77584 0.36652 0.88874 0.0
C1099 C 0.85022 0.38214 0.87665 0.0
C1100 C 0.87901 0.36491 0.87906 0.0
C1101 C 0.85464 0.34798 0.88501 0.0
C1102 C 0.80356 0.34884 0.88999 0.0
C1103 C 0.93559 0.36551 0.87782 0.0
C1104 C 0.96066 0.35436 0.86593 0.0
C1105 C 0.96476 0.3772 0.88855 0.0
C1106 C 0.94056 0.38817 0.90205 0.0
C1107 C 0.9131 0.37806 0.9141 0.0
C1108 C 0.88972 0.38845 0.92669 0.0
C1109 C 0.89375 0.40896 0.92741 0.0
C1110 C 0.92145 0.41911 0.91558 0.0
C1111 C 0.94496 0.40877 0.90296 0.0
H1112 H 0.87554 0.41699 0.93716 0.0
H1113 H 0.10197 0.31366 0.81625 0.0
H1114 H 0.29038 0.59017 0.85415 0.0
H1115 H 0.38132 0.58743 0.84708 0.0
H1116 H 0.41141 0.6414 0.87303 0.0
H1117 H 0.32083 0.64452 0.87937 0.0
H1118 H 0.47139 0.63929 0.84764 0.0
H1119 H 0.42068 0.59293 0.89099 0.0
H1120 H 0.36782 0.56517 0.90064 0.0
H1121 H 0.42509 0.52875 0.8622 0.0
H1122 H 0.47806 0.55637 0.85227 0.0
H1123 H 0.70171 0.63591 0.88914 0.0
H1124 H 0.61394 0.63614 0.87936 0.0
H1125 H 0.64117 0.58192 0.85346 0.0
H1126 H 0.72913 0.58134 0.86365 0.0
H1127 H 0.55446 0.5799 0.87074 0.0
H1128 H 0.62339 0.62447 0.83247 0.0
H1129 H 0.67446 0.65253 0.82261 0.0
H1130 H 0.58219 0.69243 0.85041 0.0
H1131 H 0.53101 0.66459 0.86063 0.0
C1132 C 0.31655 0.60159 0.85796 0.0
C1133 C 0.29908 0.6174 0.86738 0.0
C1134 C 0.36831 0.6 0.85401 0.0
C1135 C 0.40335 0.61398 0.85983 0.0
C1136 C 0.38518 0.63041 0.86842 0.0
C1137 C 0.33343 0.63215 0.8721 0.0
C1138 C 0.45924 0.61083 0.85849 0.0
C1139 C 0.48964 0.62631 0.85265 0.0
C1140 C 0.48302 0.59353 0.86444 0.0
C1141 C 0.45311 0.5767 0.87087 0.0
C1142 C 0.42208 0.57897 0.88464 0.0
C1143 C 0.39206 0.56329 0.89013 0.0
C1144 C 0.39315 0.5452 0.88204 0.0
C1145 C 0.42441 0.54275 0.86847 0.0
C1146 C 0.45448 0.5584 0.86292 0.0
C1147 C 0.68913 0.6241 0.88128 0.0
C1148 C 0.72222 0.60858 0.87721 0.0
C1149 C 0.63909 0.62433 0.87556 0.0
C1150 C 0.62112 0.60916 0.86552 0.0
C1151 C 0.65435 0.59383 0.86112 0.0
C1152 C 0.70463 0.5936 0.86685 0.0
C1153 C 0.56662 0.60885 0.86067 0.0
C1154 C 0.53647 0.59269 0.8653 0.0
C1155 C 0.54306 0.62552 0.85359 0.0
C1156 C 0.57342 0.64239 0.84736 0.0
C1157 C 0.61414 0.63921 0.83655 0.0
C1158 C 0.6431 0.65508 0.83089 0.0
C1159 C 0.6316 0.67424 0.83589 0.0
C1160 C 0.59103 0.67758 0.84654 0.0
C1161 C 0.56196 0.66175 0.85225 0.0
H1162 H 0.65409 0.68651 0.8315 0.0
H1163 H 0.3698 0.5331 0.88629 0.0
H1164 H 0.71261 0.59847 0.6375 0.0
H1165 H 0.61939 0.59777 0.63534 0.0
H1166 H 0.62359 0.65001 0.60562 0.0
H1167 H 0.71692 0.6507 0.6077 0.0
H1168 H 0.54342 0.62177 0.64374 0.0
H1169 H 0.53382 0.64739 0.57716 0.0
H1170 H 0.58034 0.64434 0.55127 0.0
H1171 H 0.65089 0.59096 0.56797 0.0
H1172 H 0.60393 0.59359 0.59383 0.0
H1173 H 0.28047 0.63937 0.61919 0.0
H1174 H 0.37132 0.64163 0.62668 0.0
H1175 H 0.40415 0.59126 0.5965 0.0
H1176 H 0.31437 0.58935 0.58881 0.0
H1177 H 0.46535 0.61989 0.58913 0.0
H1178 H 0.40891 0.5893 0.63842 0.0
H1179 H 0.35677 0.58615 0.66315 0.0
H1180 H 0.41592 0.64113 0.68073 0.0
H1181 H 0.46792 0.64474 0.65598 0.0
C1182 C 0.69357 0.60992 0.63065 0.0
C1183 C 0.72195 0.62466 0.62279 0.0
C1184 C 0.64029 0.60951 0.62943 0.0
C1185 C 0.61437 0.62372 0.6202 0.0
C1186 C 0.64269 0.63874 0.61265 0.0
C1187 C 0.69599 0.6392 0.61392 0.0
C1188 C 0.558 0.62241 0.61806 0.0
C1189 C 0.5263 0.62145 0.6318 0.0
C1190 C 0.53544 0.62176 0.60252 0.0
C1191 C 0.56616 0.62085 0.58748 0.0
C1192 C 0.55954 0.63509 0.57533 0.0
C1193 C 0.58573 0.63339 0.56064 0.0
C1194 C 0.61831 0.61742 0.55796 0.0
C1195 C 0.62557 0.60331 0.57006 0.0
C1196 C 0.59939 0.60494 0.58475 0.0
C1197 C 0.30714 0.6286 0.61449 0.0
C1198 C 0.29076 0.61426 0.6034 0.0
C1199 C 0.35894 0.62988 0.61874 0.0
C1200 C 0.39472 0.61667 0.61208 0.0
C1201 C 0.3775 0.60173 0.60168 0.0
C1202 C 0.3262 0.60058 0.59735 0.0
C1203 C 0.45058 0.61908 0.61477 0.0
C1204 C 0.48226 0.62043 0.60111 0.0
C1205 C 0.47292 0.61958 0.63036 0.0
C1206 C 0.44186 0.6174 0.64527 0.0
C1207 C 0.41047 0.60081 0.6475 0.0
C1208 C 0.38101 0.59892 0.66153 0.0
C1209 C 0.3829 0.61347 0.67348 0.0
C1210 C 0.41441 0.6299 0.67145 0.0
C1211 C 0.44392 0.63186 0.65743 0.0
H1212 H 0.36003 0.61198 0.68434 0.0
H1213 H 0.63774 0.61594 0.54646 0.0
H1214 H 0.23386 0.33446 0.62818 0.0
H1215 H 0.14475 0.33016 0.63656 0.0
H1216 H 0.13785 0.39155 0.65017 0.0
H1217 H 0.2276 0.3955 0.6426 0.0
H1218 H 0.07525 0.3719 0.66855 0.0
H1219 H 0.10796 0.37615 0.61181 0.0
H1220 H 0.14799 0.3671 0.58583 0.0
H1221 H 0.08056 0.30953 0.58865 0.0
H1222 H 0.04088 0.31813 0.61484 0.0
H1223 H 0.82704 0.39925 0.64064 0.0
H1224 H 0.91796 0.39436 0.64654 0.0
H1225 H 0.89821 0.33152 0.64274 0.0
H1226 H 0.8073 0.33627 0.63693 0.0
H1227 H 0.97283 0.34793 0.62204 0.0
H1228 H 0.92683 0.35012 0.67862 0.0
H1229 H 0.8843 0.36483 0.70236 0.0
H1230 H 0.97352 0.41746 0.69675 0.0
H1231 H 0.01606 0.40319 0.67283 0.0
C1232 C 0.2136 0.34678 0.63351 0.0
C1233 C 0.23697 0.3653 0.63472 0.0
C1234 C 0.1628 0.34439 0.6382 0.0
C1235 C 0.13429 0.36068 0.64358 0.0
C1236 C 0.15901 0.37879 0.64603 0.0
C1237 C 0.21017 0.38106 0.64168 0.0
C1238 C 0.07784 0.35963 0.64449 0.0
C1239 C 0.05284 0.36662 0.6584 0.0
C1240 C 0.04853 0.35288 0.63119 0.0
C1241 C 0.07201 0.34769 0.61539 0.0
C1242 C 0.10199 0.36151 0.60695 0.0
C1243 C 0.12459 0.35647 0.59219 0.0
C1244 C 0.11694 0.33773 0.58562 0.0
C1245 C 0.08656 0.32402 0.59378 0.0
C1246 C 0.06403 0.32896 0.60859 0.0
C1247 C 0.84186 0.38441 0.6416 0.0
C1248 C 0.81042 0.36816 0.63843 0.0
C1249 C 0.89358 0.38164 0.64496 0.0
C1250 C 0.91444 0.36262 0.64521 0.0
C1251 C 0.88261 0.3463 0.6427 0.0
C1252 C 0.83082 0.34905 0.63941 0.0
C1253 C 0.97034 0.36006 0.6461 0.0
C1254 C 0.99526 0.35263 0.63239 0.0
C1255 C 0.99932 0.36715 0.6593 0.0
C1256 C 0.97456 0.37559 0.6739 0.0
C1257 C 0.93724 0.36486 0.68241 0.0
C1258 C 0.91313 0.37312 0.6959 0.0
C1259 C 0.9262 0.39207 0.70106 0.0
C1260 C 0.96352 0.40277 0.69277 0.0
C1261 C 0.98769 0.39459 0.67925 0.0
H1262 H 0.90742 0.39845 0.71149 0.0
H1263 H 0.13443 0.33386 0.57417 0.0
H1264 H 0.21232 0.05607 0.07541 0.0
H1265 H 0.23117 0.05668 0.04642 0.0
H1266 H 0.19529 0.11866 0.04485 0.0
H1267 H 0.17613 0.11817 0.07382 0.0
H1268 H 0.15952 0.09972 0.01813 0.0
H1269 H 0.32047 0.10355 0.04675 0.0
H1270 H 0.38374 0.09223 0.06666 0.0
H1271 H 0.39414 0.03636 0.04243 0.0
H1272 H 0.33072 0.04745 0.02229 0.0
H1273 H 0.27351 0.12533 0.94473 0.0
H1274 H 0.26204 0.12396 0.97416 0.0
H1275 H 0.29908 0.06201 0.97363 0.0
H1276 H 0.31119 0.06352 0.94418 0.0
H1277 H 0.334 0.07974 1.00123 0.0
H1278 H 0.17832 0.07599 0.97154 0.0
H1279 H 0.11497 0.08667 0.95133 0.0
H1280 H 0.09156 0.14059 0.9775 0.0
H1281 H 0.15568 0.13042 0.9977 0.0
C1282 C 0.20795 0.06981 0.06888 0.0
C1283 C 0.19333 0.08714 0.07703 0.0
C1284 C 0.21894 0.07014 0.05229 0.0
C1285 C 0.21567 0.08781 0.04347 0.0
C1286 C 0.19839 0.10488 0.05139 0.0
C1287 C 0.18741 0.10456 0.06798 0.0
C1288 C 0.23227 0.08873 0.02621 0.0
C1289 C 0.19784 0.09558 0.01448 0.0
C1290 C 0.28183 0.08283 0.02129 0.0
C1291 C 0.32062 0.07626 0.03313 0.0
C1292 C 0.33614 0.08883 0.04571 0.0
C1293 C 0.37205 0.08245 0.05703 0.0
C1294 C 0.39279 0.06351 0.05589 0.0
C1295 C 0.37796 0.051 0.04332 0.0
C1296 C 0.34216 0.05735 0.03192 0.0
C1297 C 0.28135 0.11167 0.95104 0.0
C1298 C 0.29407 0.09461 0.94232 0.0
C1299 C 0.27414 0.1108 0.9678 0.0
C1300 C 0.27869 0.09278 0.97607 0.0
C1301 C 0.29528 0.07606 0.96752 0.0
C1302 C 0.30259 0.07695 0.95074 0.0
C1303 C 0.2615 0.09101 0.9932 0.0
C1304 C 0.29568 0.08391 0.00488 0.0
C1305 C 0.21149 0.0965 0.99803 0.0
C1306 C 0.17221 0.10253 0.98606 0.0
C1307 C 0.15995 0.09019 0.97293 0.0
C1308 C 0.12389 0.09615 0.96147 0.0
C1309 C 0.09931 0.11431 0.96311 0.0
C1310 C 0.11069 0.12654 0.97623 0.0
C1311 C 0.14691 0.12069 0.98769 0.0
H1312 H 0.07138 0.1189 0.95423 0.0
H1313 H 0.42042 0.05854 0.06472 0.0
H1314 H 0.33875 0.91893 0.04378 0.0
H1315 H 0.28385 0.90983 0.02113 0.0
H1316 H 0.33957 0.85011 0.02347 0.0
H1317 H 0.39467 0.85904 0.04625 0.0
H1318 H 0.33131 0.8644 0.99195 0.0
H1319 H 0.22854 0.85935 0.03953 0.0
H1320 H 0.19076 0.87047 0.06531 0.0
H1321 H 0.11561 0.91805 0.04073 0.0
H1322 H 0.15362 0.90742 0.01483 0.0
H1323 H 0.1547 0.8306 0.93667 0.0
H1324 H 0.18897 0.832 0.9642 0.0
H1325 H 0.14339 0.89294 0.96778 0.0
H1326 H 0.10798 0.8914 0.94044 0.0
H1327 H 0.14436 0.87458 0.9977 0.0
H1328 H 0.25382 0.88099 0.95061 0.0
H1329 H 0.28876 0.86901 0.9247 0.0
H1330 H 0.35253 0.81862 0.9487 0.0
H1331 H 0.31642 0.82994 0.97469 0.0
C1332 C 0.33997 0.90391 0.03936 0.0
C1333 C 0.3709 0.88967 0.04689 0.0
C1334 C 0.30825 0.89872 0.02649 0.0
C1335 C 0.307 0.87923 0.02085 0.0
C1336 C 0.33974 0.8652 0.02775 0.0
C1337 C 0.37124 0.87034 0.04074 0.0
C1338 C 0.27076 0.8735 0.00793 0.0
C1339 C 0.29039 0.8663 0.9933 0.0
C1340 C 0.21741 0.87623 0.00968 0.0
C1341 C 0.19435 0.88268 0.02524 0.0
C1342 C 0.20433 0.87229 0.03963 0.0
C1343 C 0.1828 0.87849 0.05427 0.0
C1344 C 0.15089 0.89498 0.05467 0.0
C1345 C 0.14038 0.90529 0.04041 0.0
C1346 C 0.16188 0.89917 0.02575 0.0
C1347 C 0.14985 0.84397 0.94366 0.0
C1348 C 0.1292 0.86094 0.93646 0.0
C1349 C 0.16965 0.84481 0.95933 0.0
C1350 C 0.17001 0.86274 0.96781 0.0
C1351 C 0.14377 0.879 0.96139 0.0
C1352 C 0.12339 0.87809 0.94579 0.0
C1353 C 0.20496 0.86562 0.9817 0.0
C1354 C 0.18522 0.87243 0.99646 0.0
C1355 C 0.25831 0.86255 0.98009 0.0
C1356 C 0.28181 0.85618 0.96457 0.0
C1357 C 0.27492 0.86727 0.95035 0.0
C1358 C 0.29472 0.86055 0.93564 0.0
C1359 C 0.32261 0.84302 0.93504 0.0
C1360 C 0.33077 0.83217 0.94917 0.0
C1361 C 0.31049 0.83869 0.96389 0.0
H1362 H 0.33813 0.83793 0.92363 0.0
H1363 H 0.13423 0.89974 0.06601 0.0
H1364 H 0.58642 0.91678 0.44707 0.0
H1365 H 0.62048 0.92113 0.47445 0.0
H1366 H 0.74185 0.88018 0.46375 0.0
H1367 H 0.7082 0.87569 0.43648 0.0
H1368 H 0.69612 0.87326 0.49338 0.0
H1369 H 0.76509 0.92855 0.46354 0.0
H1370 H 0.75975 0.95836 0.44653 0.0
H1371 H 0.66813 0.98695 0.48264 0.0
H1372 H 0.67209 0.95725 0.49977 0.0
H1373 H 0.83006 0.89053 0.56611 0.0
H1374 H 0.81558 0.88887 0.53677 0.0
H1375 H 0.70115 0.9344 0.54078 0.0
H1376 H 0.71679 0.93656 0.56978 0.0
H1377 H 0.75034 0.93884 0.51358 0.0
H1378 H 0.66904 0.88522 0.54147 0.0
H1379 H 0.66533 0.85614 0.55934 0.0
H1380 H 0.76882 0.82524 0.52797 0.0
H1381 H 0.77364 0.85426 0.51002 0.0
C1382 C 0.6202 0.90863 0.45057 0.0
C1383 C 0.64464 0.89592 0.43958 0.0
C1384 C 0.63978 0.91122 0.46618 0.0
C1385 C 0.68404 0.90115 0.47103 0.0
C1386 C 0.70779 0.88814 0.46021 0.0
C1387 C 0.68846 0.88562 0.44462 0.0
C1388 C 0.70548 0.90396 0.48745 0.0
C1389 C 0.70879 0.88754 0.49772 0.0
C1390 C 0.7207 0.92269 0.49321 0.0
C1391 C 0.71854 0.94059 0.48289 0.0
C1392 C 0.74346 0.94113 0.4678 0.0
C1393 C 0.74076 0.95803 0.45815 0.0
C1394 C 0.71364 0.97452 0.46349 0.0
C1395 C 0.68916 0.97417 0.47851 0.0
C1396 C 0.69163 0.95732 0.4882 0.0
C1397 C 0.80286 0.9005 0.56061 0.0
C1398 C 0.77391 0.91342 0.57021 0.0
C1399 C 0.79426 0.89945 0.5439 0.0
C1400 C 0.75642 0.91121 0.53664 0.0
C1401 C 0.73027 0.92509 0.54609 0.0
C1402 C 0.73899 0.92621 0.56269 0.0
C1403 C 0.74075 0.90816 0.51956 0.0
C1404 C 0.73835 0.92451 0.50918 0.0
C1405 C 0.72516 0.88946 0.51379 0.0
C1406 C 0.72218 0.87197 0.52451 0.0
C1407 C 0.69129 0.87227 0.53845 0.0
C1408 C 0.68894 0.8558 0.54858 0.0
C1409 C 0.71695 0.83888 0.54482 0.0
C1410 C 0.74724 0.83838 0.53089 0.0
C1411 C 0.74978 0.85482 0.52073 0.0
H1412 H 0.71508 0.82614 0.55268 0.0
H1413 H 0.71163 0.98758 0.45599 0.0
H1414 H 0.87936 0.1209 0.44201 0.0
H1415 H 0.85595 0.11993 0.47077 0.0
H1416 H 0.72513 0.08396 0.45927 0.0
H1417 H 0.74923 0.08425 0.43085 0.0
H1418 H 0.77821 0.13349 0.48646 0.0
H1419 H 0.68988 0.05506 0.49 0.0
H1420 H 0.70232 0.02224 0.47779 0.0
H1421 H 0.8593 0.03607 0.46802 0.0
H1422 H 0.84796 0.0689 0.48032 0.0
H1423 H 0.62868 0.12625 0.55836 0.0
H1424 H 0.65337 0.12331 0.52968 0.0
H1425 H 0.77772 0.08496 0.54304 0.0
H1426 H 0.75326 0.08787 0.57149 0.0
H1427 H 0.73225 0.07209 0.51563 0.0
H1428 H 0.80175 0.13194 0.53634 0.0
H1429 H 0.79962 0.16426 0.54996 0.0
H1430 H 0.69879 0.18652 0.51331 0.0
H1431 H 0.69978 0.15421 0.49959 0.0
C1432 C 0.84612 0.11252 0.44567 0.0
C1433 C 0.81644 0.10256 0.43409 0.0
C1434 C 0.83252 0.11208 0.46212 0.0
C1435 C 0.78893 0.10171 0.46733 0.0
C1436 C 0.75954 0.0917 0.45574 0.0
C1437 C 0.77337 0.09195 0.4394 0.0
C1438 C 0.77298 0.10185 0.48473 0.0
C1439 C 0.76821 0.12002 0.49278 0.0
C1440 C 0.76048 0.08432 0.49323 0.0
C1441 C 0.7679 0.06451 0.48597 0.0
C1442 C 0.72711 0.05107 0.48531 0.0
C1443 C 0.73396 0.03247 0.47836 0.0
C1444 C 0.78154 0.02708 0.47211 0.0
C1445 C 0.82241 0.04028 0.47282 0.0
C1446 C 0.81578 0.0589 0.47976 0.0
C1447 C 0.66058 0.1169 0.55508 0.0
C1448 C 0.68912 0.10733 0.56713 0.0
C1449 C 0.67493 0.11533 0.53874 0.0
C1450 C 0.71778 0.10405 0.53419 0.0
C1451 C 0.7446 0.09374 0.54619 0.0
C1452 C 0.73063 0.09544 0.56245 0.0
C1453 C 0.73656 0.10371 0.51713 0.0
C1454 C 0.74196 0.08552 0.5092 0.0
C1455 C 0.75096 0.12114 0.50889 0.0
C1456 C 0.7504 0.14061 0.51704 0.0
C1457 C 0.7788 0.14368 0.53126 0.0
C1458 C 0.77786 0.162 0.53898 0.0
C1459 C 0.74897 0.17742 0.53253 0.0
C1460 C 0.72108 0.17456 0.51831 0.0
C1461 C 0.72184 0.15625 0.51055 0.0
H1462 H 0.74828 0.1916 0.53852 0.0
H1463 H 0.78676 0.01268 0.46673 0.0
H1464 H 0.70987 0.90842 0.91969 0.0
H1465 H 0.69647 0.91101 0.94874 0.0
H1466 H 0.84058 0.88194 0.95723 0.0
H1467 H 0.8532 0.87853 0.92795 0.0
H1468 H 0.77472 0.86767 0.97694 0.0
H1469 H 0.82242 0.93285 0.9626 0.0
H1470 H 0.82033 0.96411 0.94742 0.0
H1471 H 0.66651 0.97439 0.96331 0.0
H1472 H 0.66727 0.94297 0.97834 0.0
H1473 H 0.7807 0.92651 0.05656 0.0
H1474 H 0.78174 0.92659 0.02713 0.0
H1475 H 0.67915 0.87682 0.02665 0.0
H1476 H 0.68051 0.87599 0.05634 0.0
H1477 H 0.72414 0.93066 1.00288 0.0
H1478 H 0.71023 0.846 0.99613 0.0
H1479 H 0.72732 0.81604 0.01219 0.0
H1480 H 0.84031 0.84721 0.03977 0.0
H1481 H 0.82432 0.87725 0.02375 0.0
C1482 C 0.739 0.90268 0.9277 0.0
C1483 C 0.78274 0.8933 0.9215 0.0
C1484 C 0.73132 0.90425 0.94437 0.0
C1485 C 0.76775 0.89691 0.95526 0.0
C1486 C 0.81182 0.8877 0.94909 0.0
C1487 C 0.81917 0.88585 0.93236 0.0
C1488 C 0.7592 0.8985 0.97303 0.0
C1489 C 0.76366 0.88147 0.98258 0.0
C1490 C 0.74552 0.91654 0.98054 0.0
C1491 C 0.74476 0.93545 0.97149 0.0
C1492 C 0.78797 0.94168 0.96275 0.0
C1493 C 0.78705 0.95944 0.95418 0.0
C1494 C 0.7433 0.97121 0.95438 0.0
C1495 C 0.70034 0.96524 0.96314 0.0
C1496 C 0.701 0.94745 0.9717 0.0
C1497 C 0.75797 0.91566 0.0502 0.0
C1498 C 0.73152 0.90093 0.05877 0.0
C1499 C 0.75829 0.91582 0.03333 0.0
C1500 C 0.73164 0.9014 0.02459 0.0
C1501 C 0.70116 0.88779 0.03311 0.0
C1502 C 0.70139 0.88747 0.05008 0.0
C1503 C 0.73945 0.89982 0.00677 0.0
C1504 C 0.7348 0.91685 0.9972 0.0
C1505 C 0.75512 0.88198 0.99935 0.0
C1506 C 0.76562 0.8639 0.00887 0.0
C1507 C 0.73883 0.84642 0.00559 0.0
C1508 C 0.74831 0.82944 0.01469 0.0
C1509 C 0.78475 0.82975 0.02703 0.0
C1510 C 0.81197 0.84701 0.03025 0.0
C1511 C 0.80269 0.86402 0.02117 0.0
H1512 H 0.79196 0.81659 0.03408 0.0
H1513 H 0.74276 0.98499 0.9478 0.0
H1514 H 0.66506 0.12896 0.95451 0.0
H1515 H 0.71198 0.13357 0.97986 0.0
H1516 H 0.65413 0.07811 0.99753 0.0
H1517 H 0.60735 0.07333 0.97224 0.0
H1518 H 0.65215 0.1075 0.02085 0.0
H1519 H 0.77026 0.07988 0.98203 0.0
H1520 H 0.81672 0.07902 0.95605 0.0
H1521 H 0.88582 0.13483 0.9669 0.0
H1522 H 0.83914 0.13618 0.99284 0.0
H1523 H 0.87956 0.08507 0.07411 0.0
H1524 H 0.84301 0.08498 0.04681 0.0
H1525 H 0.77529 0.14185 0.0557 0.0
H1526 H 0.81288 0.14235 0.08276 0.0
H1527 H 0.84134 0.11159 0.01896 0.0
H1528 H 0.64558 0.13538 0.04409 0.0
H1529 H 0.59797 0.13561 0.06988 0.0
H1530 H 0.68371 0.0856 0.08639 0.0
H1531 H 0.73098 0.08476 0.06056 0.0
C1532 C 0.66172 0.11787 0.96388 0.0
C1533 C 0.63257 0.10074 0.96134 0.0
C1534 C 0.68883 0.12048 0.97831 0.0
C1535 C 0.68701 0.10607 0.9905 0.0
C1536 C 0.65618 0.08938 0.98827 0.0
C1537 C 0.62949 0.08667 0.9738 0.0
C1538 C 0.71834 0.10801 0.00539 0.0
C1539 C 0.69348 0.10849 0.02042 0.0
C1540 C 0.77234 0.10912 0.00483 0.0
C1541 C 0.80083 0.10821 0.98931 0.0
C1542 C 0.79506 0.09204 0.97882 0.0
C1543 C 0.82147 0.09146 0.96411 0.0
C1544 C 0.85412 0.10688 0.95982 0.0
C1545 C 0.86048 0.12291 0.97024 0.0
C1546 C 0.83408 0.12358 0.98495 0.0
C1547 C 0.8586 0.0979 0.07004 0.0
C1548 C 0.84859 0.1136 0.08069 0.0
C1549 C 0.83746 0.09777 0.05446 0.0
C1550 C 0.80567 0.11324 0.04938 0.0
C1551 C 0.79916 0.12965 0.05948 0.0
C1552 C 0.82064 0.12989 0.07494 0.0
C1553 C 0.77503 0.11132 0.03437 0.0
C1554 C 0.79999 0.11079 0.01935 0.0
C1555 C 0.72104 0.1101 0.03493 0.0
C1556 C 0.69239 0.11021 0.05046 0.0
C1557 C 0.65417 0.12439 0.0532 0.0
C1558 C 0.6272 0.12461 0.06781 0.0
C1559 C 0.63804 0.11071 0.07979 0.0
C1560 C 0.67558 0.09644 0.07713 0.0
C1561 C 0.7025 0.09609 0.0625 0.0
H1562 H 0.61727 0.11098 0.0911 0.0
H1563 H 0.87464 0.10638 0.94846 0.0
H1564 H 0.12948 0.12595 0.45771 0.0
H1565 H 0.15027 0.12208 0.48658 0.0
H1566 H 0.27654 0.08421 0.47392 0.0
H1567 H 0.25468 0.08732 0.44545 0.0
H1568 H 0.23648 0.07059 0.49965 0.0
H1569 H 0.29123 0.13475 0.48232 0.0
H1570 H 0.28088 0.16797 0.47067 0.0
H1571 H 0.17338 0.18274 0.50803 0.0
H1572 H 0.18263 0.14949 0.51978 0.0
H1573 H 0.37508 0.11892 0.57458 0.0
H1574 H 0.34986 0.1192 0.54601 0.0
H1575 H 0.22894 0.07795 0.55652 0.0
H1576 H 0.25507 0.077 0.58474 0.0
H1577 H 0.26711 0.13113 0.53185 0.0
H1578 H 0.20035 0.04997 0.52477 0.0
H1579 H 0.22249 0.01717 0.53559 0.0
H1580 H 0.37552 0.03678 0.54489 0.0
H1581 H 0.35449 0.06958 0.53396 0.0
C1582 C 0.16101 0.11653 0.46118 0.0
C1583 C 0.19099 0.10725 0.4493 0.0
C1584 C 0.17322 0.11446 0.47765 0.0
C1585 C 0.21575 0.10316 0.48247 0.0
C1586 C 0.24379 0.09309 0.47061 0.0
C1587 C 0.23148 0.09503 0.45428 0.0
C1588 C 0.23295 0.10233 0.49967 0.0
C1589 C 0.24284 0.08385 0.5067 0.0
C1590 C 0.24274 0.11958 0.50883 0.0
C1591 C 0.23719 0.13958 0.50182 0.0
C1592 C 0.26511 0.14504 0.48798 0.0
C1593 C 0.25949 0.16387 0.48137 0.0
C1594 C 0.22638 0.17744 0.48858 0.0
C1595 C 0.19893 0.17221 0.50244 0.0
C1596 C 0.20436 0.15337 0.50909 0.0
C1597 C 0.34374 0.10964 0.57072 0.0
C1598 C 0.31726 0.0979 0.58196 0.0
C1599 C 0.32905 0.10993 0.55441 0.0
C1600 C 0.28757 0.09852 0.54902 0.0
C1601 C 0.26161 0.08662 0.56023 0.0
C1602 C 0.2766 0.08614 0.57644 0.0
C1603 C 0.27043 0.09941 0.53182 0.0
C1604 C 0.26047 0.11788 0.52482 0.0
C1605 C 0.26226 0.08217 0.52249 0.0
C1606 C 0.27565 0.06229 0.52868 0.0
C1607 C 0.23879 0.04724 0.52904 0.0
C1608 C 0.25113 0.02866 0.53522 0.0
C1609 C 0.30032 0.02491 0.54099 0.0
C1610 C 0.33737 0.03971 0.5405 0.0
C1611 C 0.32524 0.0583 0.53432 0.0
H1612 H 0.30976 0.01054 0.54581 0.0
H1613 H 0.22208 0.19202 0.48345 0.0
H1614 H 0.33466 0.91986 0.43099 0.0
H1615 H 0.31397 0.92057 0.45988 0.0
H1616 H 0.2504 0.86204 0.45626 0.0
H1617 H 0.26965 0.86166 0.42727 0.0
H1618 H 0.18324 0.88569 0.4685 0.0
H1619 H 0.35943 0.87313 0.47956 0.0
H1620 H 0.45244 0.87814 0.47753 0.0
H1621 H 0.43635 0.93648 0.49698 0.0
H1622 H 0.34311 0.93194 0.49892 0.0
H1623 H 0.11853 0.87834 0.55196 0.0
H1624 H 0.15749 0.87312 0.52539 0.0
H1625 H 0.21124 0.93319 0.52518 0.0
H1626 H 0.17271 0.93852 0.55177 0.0
H1627 H 0.28596 0.90732 0.51563 0.0
H1628 H 0.11033 0.92061 0.50264 0.0
H1629 H 0.01711 0.91598 0.50441 0.0
H1630 H 0.03326 0.85615 0.48829 0.0
H1631 H 0.12671 0.86035 0.48663 0.0
C1632 C 0.31808 0.90688 0.43654 0.0
C1633 C 0.30382 0.89069 0.42699 0.0
C1634 C 0.30613 0.90729 0.45305 0.0
C1635 C 0.28045 0.89136 0.4603 0.0
C1636 C 0.26993 0.87455 0.45095 0.0
C1637 C 0.28128 0.87425 0.43444 0.0
C1638 C 0.25874 0.8932 0.47688 0.0
C1639 C 0.20608 0.89 0.47885 0.0
C1640 C 0.288 0.89948 0.49032 0.0
C1641 C 0.34415 0.90224 0.48925 0.0
C1642 C 0.37564 0.88708 0.48329 0.0
C1643 C 0.42844 0.88983 0.48218 0.0
C1644 C 0.45028 0.90763 0.48709 0.0
C1645 C 0.41938 0.92271 0.49317 0.0
C1646 C 0.36655 0.92004 0.49429 0.0
C1647 C 0.13824 0.8905 0.54621 0.0
C1648 C 0.14227 0.90888 0.55397 0.0
C1649 C 0.16057 0.88748 0.53103 0.0
C1650 C 0.18723 0.90278 0.52329 0.0
C1651 C 0.19105 0.92116 0.53096 0.0
C1652 C 0.16861 0.92421 0.54611 0.0
C1653 C 0.21082 0.89966 0.50714 0.0
C1654 C 0.26354 0.90276 0.50525 0.0
C1655 C 0.18173 0.89328 0.49373 0.0
C1656 C 0.12554 0.89073 0.49468 0.0
C1657 C 0.09404 0.90642 0.4996 0.0
C1658 C 0.04115 0.90388 0.50056 0.0
C1659 C 0.01929 0.88576 0.49651 0.0
C1660 C 0.05026 0.87016 0.49145 0.0
C1661 C 0.10317 0.87262 0.49049 0.0
H1662 H 0.97833 0.88383 0.49726 0.0
H1663 H 0.49116 0.90974 0.48621 0.0
H1664 H 0.66851 0.63265 0.05501 0.0
H1665 H 0.70176 0.63646 0.02744 0.0
H1666 H 0.74567 0.57522 0.02694 0.0
H1667 H 0.71253 0.57126 0.05437 0.0
H1668 H 0.82261 0.59964 0.01589 0.0
H1669 H 0.64288 0.58948 0.00673 0.0
H1670 H 0.55085 0.59622 0.00978 0.0
H1671 H 0.57247 0.65459 0.99094 0.0
H1672 H 0.66483 0.6483 0.98801 0.0
H1673 H 0.85721 0.58184 0.93129 0.0
H1674 H 0.83918 0.58282 0.96039 0.0
H1675 H 0.78169 0.64214 0.95547 0.0
H1676 H 0.79821 0.64086 0.92635 0.0
H1677 H 0.71409 0.62077 0.96993 0.0
H1678 H 0.89287 0.63066 0.97738 0.0
H1679 H 0.98489 0.62412 0.9741 0.0
H1680 H 0.96638 0.5672 0.996 0.0
H1681 H 0.87406 0.57327 0.99921 0.0
C1682 C 0.68489 0.61996 0.04898 0.0
C1683 C 0.68771 0.60164 0.05689 0.0
C1684 C 0.70389 0.62216 0.03323 0.0
C1685 C 0.72621 0.60611 0.02514 0.0
C1686 C 0.72881 0.58781 0.03298 0.0
C1687 C 0.7095 0.58556 0.04864 0.0
C1688 C 0.74704 0.6083 0.00851 0.0
C1689 C 0.79887 0.6041 0.00578 0.0
C1690 C 0.71635 0.61464 0.99544 0.0
C1691 C 0.66089 0.6185 0.99734 0.0
C1692 C 0.62811 0.60383 0.0034 0.0
C1693 C 0.57586 0.60755 0.00507 0.0
C1694 C 0.55584 0.62584 1.0006 0.0
C1695 C 0.58804 0.64044 0.99443 0.0
C1696 C 0.64034 0.63681 0.99276 0.0
C1697 C 0.84241 0.5953 0.93657 0.0
C1698 C 0.82924 0.6113 0.92665 0.0
C1699 C 0.83197 0.59587 0.95319 0.0
C1700 C 0.80893 0.61257 0.96018 0.0
C1701 C 0.79915 0.62905 0.95039 0.0
C1702 C 0.809 0.62839 0.93378 0.0
C1703 C 0.78994 0.6121 0.97718 0.0
C1704 C 0.73824 0.61654 0.98001 0.0
C1705 C 0.82087 0.60609 0.99033 0.0
C1706 C 0.87641 0.60236 0.9884 0.0
C1707 C 0.90832 0.61668 0.98137 0.0
C1708 C 0.96056 0.61307 0.97955 0.0
C1709 C 0.98145 0.59524 0.98481 0.0
C1710 C 0.95014 0.58099 0.99192 0.0
C1711 C 0.89785 0.58452 0.99376 0.0
H1712 H 0.02191 0.59248 0.98339 0.0
H1713 H 0.51536 0.62868 1.00187 0.0
H1714 H 0.64281 0.36542 0.95309 0.0
H1715 H 0.6692 0.36945 0.9815 0.0
H1716 H 0.80516 0.39986 0.96581 0.0
H1717 H 0.77863 0.39628 0.93772 0.0
H1718 H 0.82685 0.36995 0.98679 0.0
H1719 H 0.70991 0.42489 0.98299 0.0
H1720 H 0.62683 0.44091 0.97807 0.0
H1721 H 0.55808 0.40553 0.01526 0.0
H1722 H 0.64064 0.3891 0.02024 0.0
H1723 H 0.8495 0.42559 0.06897 0.0
H1724 H 0.81579 0.42243 0.04147 0.0
H1725 H 0.83009 0.35921 0.04455 0.0
H1726 H 0.86531 0.36228 0.07177 0.0
H1727 H 0.73141 0.40483 0.03005 0.0
H1728 H 0.8544 0.34062 0.00654 0.0
H1729 H 0.93692 0.32487 0.0128 0.0
H1730 H 0.99493 0.37998 0.03048 0.0
H1731 H 0.91371 0.39625 0.02364 0.0
C1732 C 0.67791 0.37318 0.95578 0.0
C1733 C 0.70923 0.38015 0.94319 0.0
C1734 C 0.69301 0.37545 0.97197 0.0
C1735 C 0.73947 0.38478 0.97575 0.0
C1736 C 0.76957 0.39238 0.96319 0.0
C1737 C 0.75446 0.39023 0.94713 0.0
C1738 C 0.7584 0.38607 0.99265 0.0
C1739 C 0.80587 0.37753 0.99627 0.0
C1740 C 0.73111 0.39595 0.005 0.0
C1741 C 0.68134 0.40564 1.00188 0.0
C1742 C 0.67697 0.42039 0.99001 0.0
C1743 C 0.63 0.42958 0.98724 0.0
C1744 C 0.58722 0.42424 0.99635 0.0
C1745 C 0.59128 0.40967 0.00823 0.0
C1746 C 0.63814 0.40041 0.01102 0.0
C1747 C 0.84621 0.41103 0.06369 0.0
C1748 C 0.86064 0.39421 0.0725 0.0
C1749 C 0.82643 0.40924 0.04803 0.0
C1750 C 0.82051 0.3906 0.0409 0.0
C1751 C 0.83493 0.37378 0.04969 0.0
C1752 C 0.85531 0.37557 0.06525 0.0
C1753 C 0.80002 0.3888 0.02418 0.0
C1754 C 0.75225 0.39717 0.0206 0.0
C1755 C 0.82711 0.37879 0.01182 0.0
C1756 C 0.87767 0.36959 0.01476 0.0
C1757 C 0.88503 0.34944 0.01154 0.0
C1758 C 0.93163 0.34043 0.01516 0.0
C1759 C 0.97114 0.35141 0.02205 0.0
C1760 C 0.9644 0.37149 0.02509 0.0
C1761 C 0.91816 0.38064 0.02128 0.0
H1762 H 0.00695 0.34434 0.02503 0.0
H1763 H 0.55093 0.43142 0.99422 0.0
H1764 H 0.1384 0.36988 0.45846 0.0
H1765 H 0.17417 0.36386 0.48538 0.0
H1766 H 0.22728 0.42396 0.48743 0.0
H1767 H 0.19175 0.43011 0.4606 0.0
H1768 H 0.30191 0.3979 0.49585 0.0
H1769 H 0.12725 0.41026 0.50944 0.0
H1770 H 0.03387 0.40599 0.50819 0.0
H1771 H 0.04933 0.34591 0.52369 0.0
H1772 H 0.14297 0.34971 0.52477 0.0
H1773 H 0.35462 0.4044 0.58096 0.0
H1774 H 0.32954 0.40806 0.55257 0.0
H1775 H 0.27353 0.34827 0.55231 0.0
H1776 H 0.29846 0.34459 0.58065 0.0
H1777 H 0.20148 0.37349 0.54264 0.0
H1778 H 0.3773 0.36179 0.52979 0.0
H1779 H 0.47039 0.36681 0.53133 0.0
H1780 H 0.45244 0.42644 0.51492 0.0
H1781 H 0.35912 0.42188 0.51351 0.0
C1782 C 0.1572 0.38187 0.46471 0.0
C1783 C 0.16221 0.40047 0.45737 0.0
C1784 C 0.17761 0.37842 0.4801 0.0
C1785 C 0.20341 0.39347 0.4884 0.0
C1786 C 0.20771 0.41212 0.48121 0.0
C1787 C 0.18709 0.41562 0.4659 0.0
C1788 C 0.22715 0.38969 0.5044 0.0
C1789 C 0.2799 0.39277 0.50615 0.0
C1790 C 0.19856 0.38259 0.51771 0.0
C1791 C 0.14225 0.3802 0.51696 0.0
C1792 C 0.11083 0.39607 0.5124 0.0
C1793 C 0.05783 0.39375 0.51177 0.0
C1794 C 0.03571 0.37567 0.51579 0.0
C1795 C 0.06654 0.35989 0.52053 0.0
C1796 C 0.11959 0.36212 0.52115 0.0
C1797 C 0.33864 0.39183 0.57466 0.0
C1798 C 0.32826 0.37425 0.58301 0.0
C1799 C 0.32408 0.39396 0.55846 0.0
C1800 C 0.29934 0.37847 0.55034 0.0
C1801 C 0.29219 0.36046 0.55837 0.0
C1802 C 0.30664 0.35835 0.57453 0.0
C1803 C 0.2764 0.3816 0.53411 0.0
C1804 C 0.22366 0.37847 0.53232 0.0
C1805 C 0.30498 0.38874 0.52081 0.0
C1806 C 0.36111 0.39155 0.5217 0.0
C1807 C 0.39313 0.37604 0.52665 0.0
C1808 C 0.44596 0.37879 0.52747 0.0
C1809 C 0.4673 0.39695 0.52326 0.0
C1810 C 0.43585 0.41239 0.5182 0.0
C1811 C 0.38298 0.40972 0.51737 0.0
H1812 H 0.50822 0.39905 0.5239 0.0
H1813 H 0.99469 0.3739 0.51526 0.0
H1814 H 0.15671 0.58331 0.55326 0.0
H1815 H 0.1759 0.57897 0.5244 0.0
H1816 H 0.23387 0.63838 0.52218 0.0
H1817 H 0.21544 0.64265 0.55107 0.0
H1818 H 0.17919 0.62535 0.49326 0.0
H1819 H 0.31458 0.6058 0.52986 0.0
H1820 H 0.34874 0.58736 0.55317 0.0
H1821 H 0.30925 0.53272 0.53014 0.0
H1822 H 0.27379 0.55089 0.50684 0.0
H1823 H 0.3642 0.62504 0.43142 0.0
H1824 H 0.3291 0.62644 0.45885 0.0
H1825 H 0.27465 0.56677 0.45414 0.0
H1826 H 0.30881 0.56535 0.42651 0.0
H1827 H 0.32122 0.57764 0.4858 0.0
H1828 H 0.19199 0.5968 0.44812 0.0
H1829 H 0.15871 0.61514 0.42466 0.0
H1830 H 0.18516 0.66984 0.44935 0.0
H1831 H 0.22006 0.65185 0.47282 0.0
C1832 C 0.17178 0.59565 0.54645 0.0
C1833 C 0.18459 0.61331 0.55431 0.0
C1834 C 0.18298 0.59313 0.53002 0.0
C1835 C 0.2067 0.60831 0.52123 0.0
C1836 C 0.21546 0.62653 0.52875 0.0
C1837 C 0.20496 0.62895 0.54521 0.0
C1838 C 0.22862 0.60442 0.505 0.0
C1839 C 0.21031 0.61498 0.49162 0.0
C1840 C 0.26874 0.59066 0.50286 0.0
C1841 C 0.29098 0.57971 0.5167 0.0
C1842 C 0.31278 0.58986 0.52983 0.0
C1843 C 0.33242 0.57946 0.54303 0.0
C1844 C 0.33106 0.55888 0.54315 0.0
C1845 C 0.31018 0.54866 0.53005 0.0
C1846 C 0.29028 0.55901 0.51684 0.0
C1847 C 0.34583 0.61205 0.43634 0.0
C1848 C 0.33904 0.59511 0.4268 0.0
C1849 C 0.32555 0.61292 0.45197 0.0
C1850 C 0.29888 0.59678 0.4584 0.0
C1851 C 0.29504 0.57938 0.44934 0.0
C1852 C 0.31455 0.57861 0.43359 0.0
C1853 C 0.27208 0.59868 0.4741 0.0
C1854 C 0.28963 0.58781 0.48739 0.0
C1855 C 0.23113 0.61208 0.47613 0.0
C1856 C 0.20919 0.62297 0.46218 0.0
C1857 C 0.19119 0.61275 0.44851 0.0
C1858 C 0.17195 0.62308 0.43521 0.0
C1859 C 0.16982 0.64364 0.43551 0.0
C1860 C 0.18688 0.65391 0.44913 0.0
C1861 C 0.20645 0.64365 0.46244 0.0
H1862 H 0.15489 0.6516 0.4252 0.0
H1863 H 0.34629 0.55085 0.55338 0.0
H1864 H 0.1857 0.4094 0.06113 0.0
H1865 H 0.21315 0.41236 0.03288 0.0
H1866 H 0.27461 0.35341 0.03463 0.0
H1867 H 0.2474 0.35043 0.06282 0.0
H1868 H 0.34319 0.37772 0.02229 0.0
H1869 H 0.16585 0.36436 0.0122 0.0
H1870 H 0.07286 0.36876 0.01424 0.0
H1871 H 0.08678 0.42807 0.99667 0.0
H1872 H 0.1802 0.42398 0.99452 0.0
H1873 H 0.37842 0.3609 0.93728 0.0
H1874 H 0.356 0.36041 0.96605 0.0
H1875 H 0.30554 0.42079 0.96289 0.0
H1876 H 0.32809 0.42137 0.93419 0.0
H1877 H 0.2335 0.39746 0.97619 0.0
H1878 H 0.41154 0.40867 0.98302 0.0
H1879 H 0.50344 0.40254 0.97926 0.0
H1880 H 0.48894 0.34648 1.00287 0.0
H1881 H 0.39646 0.35193 0.00627 0.0
C1882 C 0.20381 0.39689 0.05535 0.0
C1883 C 0.21437 0.37969 0.06421 0.0
C1884 C 0.21977 0.39863 0.03921 0.0
C1885 C 0.24616 0.38312 0.03159 0.0
C1886 C 0.25478 0.36565 0.04025 0.0
C1887 C 0.23896 0.36393 0.05634 0.0
C1888 C 0.26682 0.38533 0.01487 0.0
C1889 C 0.31907 0.38179 0.01216 0.0
C1890 C 0.23584 0.39122 1.00172 0.0
C1891 C 0.17998 0.39394 0.00339 0.0
C1892 C 0.14913 0.37841 0.00893 0.0
C1893 C 0.09629 0.38083 0.01006 0.0
C1894 C 0.07382 0.39873 0.00567 0.0
C1895 C 0.10422 0.41423 1.0001 0.0
C1896 C 0.15711 0.41186 0.99889 0.0
C1897 C 0.36349 0.37419 0.94278 0.0
C1898 C 0.35443 0.39113 0.9334 0.0
C1899 C 0.35069 0.3739 0.95924 0.0
C1900 C 0.32887 0.39055 0.96663 0.0
C1901 C 0.32198 0.40773 0.95744 0.0
C1902 C 0.3349 0.40804 0.94103 0.0
C1903 C 0.3097 0.38964 0.98356 0.0
C1904 C 0.25774 0.39348 0.98632 0.0
C1905 C 0.34101 0.38394 0.99671 0.0
C1906 C 0.39678 0.38063 0.99474 0.0
C1907 C 0.42774 0.39492 0.98725 0.0
C1908 C 0.48001 0.39158 0.9852 0.0
C1909 C 0.50206 0.37414 0.99083 0.0
C1910 C 0.47181 0.35998 0.9985 0.0
C1911 C 0.41941 0.36317 1.00046 0.0
H1912 H 0.54259 0.37163 0.98928 0.0
H1913 H 0.03286 0.40057 0.0065 0.0
H1914 H 0.21986 0.65445 0.9447 0.0
H1915 H 0.255 0.64957 0.97173 0.0
H1916 H 0.22973 0.58697 0.96758 0.0
H1917 H 0.19364 0.59178 0.94051 0.0
H1918 H 0.20319 0.59973 0.99696 0.0
H1919 H 0.34925 0.60682 0.96283 0.0
H1920 H 0.4046 0.62233 0.94232 0.0
H1921 H 0.41988 0.67368 0.97229 0.0
H1922 H 0.36392 0.65861 0.99287 0.0
H1923 H 0.34501 0.57727 0.06678 0.0
H1924 H 0.3287 0.57872 0.03755 0.0
H1925 H 0.33064 0.64224 0.0396 0.0
H1926 H 0.34676 0.64073 0.06884 0.0
H1927 H 0.37395 0.62667 0.0107 0.0
H1928 H 0.22239 0.62036 0.04364 0.0
H1929 H 0.16937 0.60443 0.06455 0.0
H1930 H 0.16605 0.55108 0.03662 0.0
H1931 H 0.22002 0.56659 0.01568 0.0
C1932 C 0.2215 0.63963 0.94954 0.0
C1933 C 0.20413 0.62349 0.94039 0.0
C1934 C 0.24196 0.63685 0.96498 0.0
C1935 C 0.24602 0.61786 0.97158 0.0
C1936 C 0.22732 0.60175 0.96269 0.0
C1937 C 0.20664 0.60453 0.94723 0.0
C1938 C 0.26945 0.61492 0.98781 0.0
C1939 C 0.2409 0.60533 0.99984 0.0
C1940 C 0.31839 0.62249 0.99172 0.0
C1941 C 0.35196 0.63164 0.97934 0.0
C1942 C 0.36403 0.62149 0.96499 0.0
C1943 C 0.39559 0.63019 0.95336 0.0
C1944 C 0.41565 0.64899 0.95598 0.0
C1945 C 0.40427 0.65912 0.97026 0.0
C1946 C 0.37265 0.6505 0.98192 0.0
C1947 C 0.34392 0.59148 0.06082 0.0
C1948 C 0.34775 0.60889 0.06988 0.0
C1949 C 0.33422 0.59231 0.04419 0.0
C1950 C 0.32792 0.61059 0.03646 0.0
C1951 C 0.33554 0.628 0.04532 0.0
C1952 C 0.34492 0.62715 0.06197 0.0
C1953 C 0.30754 0.61163 0.01973 0.0
C1954 C 0.33652 0.62092 0.00768 0.0
C1955 C 0.25906 0.60376 0.01577 0.0
C1956 C 0.22571 0.59456 0.02818 0.0
C1957 C 0.21067 0.60519 0.04201 0.0
C1958 C 0.18043 0.59624 0.05387 0.0
C1959 C 0.16443 0.57674 0.05193 0.0
C1960 C 0.17854 0.56617 0.03811 0.0
C1961 C 0.20897 0.57503 0.02625 0.0
H1962 H 0.14102 0.56984 0.06112 0.0
H1963 H 0.4401 0.6557 0.94697 0.0
H1964 H 0.89839 0.62783 0.56694 0.0
H1965 H 0.86875 0.63103 0.53904 0.0
H1966 H 0.79649 0.57406 0.54225 0.0
H1967 H 0.82733 0.57049 0.57001 0.0
H1968 H 0.83606 0.58036 0.51233 0.0
H1969 H 0.7339 0.61542 0.55067 0.0
H1970 H 0.71673 0.63935 0.57242 0.0
H1971 H 0.76363 0.68671 0.54133 0.0
H1972 H 0.78191 0.66301 0.51944 0.0
H1973 H 0.66275 0.59118 0.44806 0.0
H1974 H 0.69068 0.58813 0.47624 0.0
H1975 H 0.76803 0.64406 0.47269 0.0
H1976 H 0.7397 0.64728 0.44458 0.0
H1977 H 0.72423 0.63833 0.50298 0.0
H1978 H 0.83336 0.60347 0.46581 0.0
H1979 H 0.85214 0.5798 0.44397 0.0
H1980 H 0.79311 0.53257 0.47307 0.0
H1981 H 0.77321 0.55604 0.49501 0.0
C1982 C 0.8773 0.61575 0.56161 0.0
C1983 C 0.86414 0.59909 0.57084 0.0
C1984 C 0.86008 0.61767 0.54567 0.0
C1985 C 0.82918 0.60303 0.53872 0.0
C1986 C 0.81972 0.58566 0.54743 0.0
C1987 C 0.83709 0.58369 0.56335 0.0
C1988 C 0.80343 0.60645 0.52295 0.0
C1989 C 0.81118 0.59291 0.51036 0.0
C1990 C 0.77143 0.62302 0.52031 0.0
C1991 C 0.75965 0.63737 0.53341 0.0
C1992 C 0.74091 0.63092 0.54848 0.0
C1993 C 0.73095 0.64445 0.56085 0.0
C1994 C 0.73916 0.66454 0.55827 0.0
C1995 C 0.75727 0.67113 0.54331 0.0
C1996 C 0.7674 0.65765 0.53091 0.0
C1997 C 0.68426 0.60312 0.45345 0.0
C1998 C 0.69927 0.61943 0.44409 0.0
C1999 C 0.70062 0.60128 0.4695 0.0
C2000 C 0.73222 0.6157 0.47647 0.0
C2001 C 0.74389 0.63271 0.46755 0.0
C2002 C 0.72778 0.63452 0.45148 0.0
C2003 C 0.75701 0.61225 0.4924 0.0
C2004 C 0.74906 0.62578 0.50501 0.0
C2005 C 0.78892 0.59571 0.49508 0.0
C2006 C 0.8013 0.58154 0.48198 0.0
C2007 C 0.82402 0.58806 0.46751 0.0
C2008 C 0.83492 0.57468 0.45511 0.0
C2009 C 0.8237 0.5547 0.45711 0.0
C2010 C 0.80169 0.54806 0.47153 0.0
C2011 C 0.79061 0.56139 0.48395 0.0
H2012 H 0.83217 0.54436 0.44751 0.0
H2013 H 0.73145 0.67499 0.56786 0.0
H2014 H 0.7203 0.36711 0.56327 0.0
H2015 H 0.75747 0.37088 0.53636 0.0
H2016 H 0.71265 0.43207 0.53586 0.0
H2017 H 0.67399 0.42823 0.56264 0.0
H2018 H 0.69365 0.41682 0.50791 0.0
H2019 H 0.83949 0.41661 0.54245 0.0
H2020 H 0.8982 0.40457 0.56355 0.0
H2021 H 0.92566 0.35193 0.53606 0.0
H2022 H 0.86656 0.36352 0.51488 0.0
H2023 H 0.82347 0.43959 0.43739 0.0
H2024 H 0.81441 0.43943 0.46689 0.0
H2025 H 0.83289 0.37627 0.4672 0.0
H2026 H 0.8432 0.37652 0.43768 0.0
H2027 H 0.86995 0.39442 0.49564 0.0
H2028 H 0.71897 0.39532 0.46168 0.0
H2029 H 0.66712 0.40975 0.43982 0.0
H2030 H 0.65204 0.46344 0.46685 0.0
H2031 H 0.70541 0.44958 0.48867 0.0
C2032 C 0.71817 0.38137 0.55743 0.0
C2033 C 0.69421 0.39738 0.56514 0.0
C2034 C 0.73989 0.38355 0.54207 0.0
C2035 C 0.73893 0.40188 0.53416 0.0
C2036 C 0.71417 0.4178 0.54172 0.0
C2037 C 0.69197 0.41558 0.55703 0.0
C2038 C 0.76243 0.40426 0.51785 0.0
C2039 C 0.7325 0.41222 0.50536 0.0
C2040 C 0.81297 0.39799 0.51434 0.0
C2041 C 0.84813 0.39086 0.52715 0.0
C2042 C 0.85765 0.40238 0.54097 0.0
C2043 C 0.89109 0.39565 0.55293 0.0
C2044 C 0.91553 0.37747 0.55117 0.0
C2045 C 0.90659 0.36598 0.53743 0.0
C2046 C 0.87317 0.37264 0.52543 0.0
C2047 C 0.82809 0.42583 0.44388 0.0
C2048 C 0.8342 0.40807 0.43538 0.0
C2049 C 0.82253 0.42572 0.46069 0.0
C2050 C 0.8218 0.40778 0.46918 0.0
C2051 C 0.8332 0.39025 0.46088 0.0
C2052 C 0.8393 0.3904 0.44404 0.0
C2053 C 0.80112 0.40694 0.48591 0.0
C2054 C 0.83133 0.39917 0.49836 0.0
C2055 C 0.75099 0.41354 0.48946 0.0
C2056 C 0.71672 0.42149 0.47673 0.0
C2057 C 0.70488 0.41025 0.46293 0.0
C2058 C 0.67541 0.41835 0.45052 0.0
C2059 C 0.65649 0.43752 0.4519 0.0
C2060 C 0.66687 0.44861 0.46576 0.0
C2061 C 0.69687 0.44066 0.47814 0.0
H2062 H 0.63359 0.44373 0.44227 0.0
H2063 H 0.94149 0.37231 0.56043 0.0
H2064 H 0.24394 0.07129 0.15081 0.0
H2065 H 0.30635 0.04484 0.14694 0.0
H2066 H 0.18998 0.00856 0.12524 0.0
H2067 H 0.12768 0.03518 0.12853 0.0
H2068 H 0.25091 0.99079 0.15141 0.0
H2069 H 0.27314 0.03177 0.10228 0.0
H2070 H 0.29782 0.06275 0.08863 0.0
H2071 H 0.44627 0.05973 0.11023 0.0
H2072 H 0.42252 0.0292 0.12433 0.0
H2073 H 0.43893 0.93221 0.09587 0.0
H2074 H 0.37781 0.95864 0.10131 0.0
H2075 H 0.41432 0.95584 0.15218 0.0
H2076 H 0.47335 0.92861 0.14687 0.0
H2077 H 0.39598 0.99418 0.11299 0.0
H2078 H 0.31018 0.97471 0.17431 0.0
H2079 H 0.29661 0.94599 0.19209 0.0
H2080 H 0.28676 0.90821 0.15061 0.0
H2081 H 0.29973 0.93683 0.13255 0.0
C2082 C 0.23181 0.05782 0.14495 0.0
C2083 C 0.18109 0.05548 0.13968 0.0
C2084 C 0.26747 0.04271 0.14284 0.0
C2085 C 0.25276 0.02486 0.1357 0.0
C2086 C 0.20199 0.0223 0.13072 0.0
C2087 C 0.1665 0.03751 0.1326 0.0
C2088 C 0.28974 0.00856 0.13375 0.0
C2089 C 0.28236 0.9914 0.1429 0.0
C2090 C 0.33213 0.00983 0.1232 0.0
C2091 C 0.34575 0.02828 0.11456 0.0
C2092 C 0.31083 0.03784 0.10429 0.0
C2093 C 0.32467 0.05533 0.09646 0.0
C2094 C 0.37332 0.06329 0.09871 0.0
C2095 C 0.40854 0.05364 0.10856 0.0
C2096 C 0.39488 0.03629 0.11651 0.0
C2097 C 0.43286 0.93689 0.10826 0.0
C2098 C 0.45978 0.92802 0.12098 0.0
C2099 C 0.39838 0.95214 0.11134 0.0
C2100 C 0.39086 0.95908 0.12718 0.0
C2101 C 0.41848 0.95045 0.13991 0.0
C2102 C 0.45245 0.93499 0.13684 0.0
C2103 C 0.35576 0.97591 0.13009 0.0
C2104 C 0.36394 0.99334 0.1213 0.0
C2105 C 0.31521 0.97515 0.14144 0.0
C2106 C 0.30628 0.95785 0.15206 0.0
C2107 C 0.30486 0.96028 0.16896 0.0
C2108 C 0.29737 0.94404 0.17909 0.0
C2109 C 0.29101 0.92527 0.17246 0.0
C2110 C 0.29181 0.92275 0.15568 0.0
C2111 C 0.29922 0.93896 0.1455 0.0
H2112 H 0.28531 0.9127 0.18031 0.0
H2113 H 0.38376 0.07697 0.09288 0.0
H2114 H 0.8783 0.0637 0.35576 0.0
H2115 H 0.83325 0.03221 0.35449 0.0
H2116 H 0.83953 0.02767 0.40656 0.0
H2117 H 0.88724 0.05879 0.40775 0.0
H2118 H 0.84555 0.99207 0.39334 0.0
H2119 H 0.73912 0.04854 0.38698 0.0
H2120 H 0.71294 0.08007 0.37474 0.0
H2121 H 0.68659 0.05105 0.32934 0.0
H2122 H 0.71455 0.01946 0.34112 0.0
H2123 H 0.6292 0.92805 0.39917 0.0
H2124 H 0.69439 0.95348 0.40154 0.0
H2125 H 0.68163 0.9652 0.3503 0.0
H2126 H 0.61325 0.94068 0.34831 0.0
H2127 H 0.67985 0.99743 0.3647 0.0
H2128 H 0.79616 0.94073 0.37223 0.0
H2129 H 0.82815 0.91068 0.38592 0.0
H2130 H 0.83094 0.9412 0.43127 0.0
H2131 H 0.79945 0.97141 0.41798 0.0
C2132 C 0.87109 0.05571 0.36688 0.0
C2133 C 0.8857 0.0636 0.38185 0.0
C2134 C 0.84523 0.03779 0.36616 0.0
C2135 C 0.83174 0.02789 0.38046 0.0
C2136 C 0.84929 0.03513 0.39539 0.0
C2137 C 0.87647 0.05286 0.39607 0.0
C2138 C 0.79555 0.0111 0.37986 0.0
C2139 C 0.80916 0.99321 0.38715 0.0
C2140 C 0.74793 0.01269 0.37186 0.0
C2141 C 0.72954 0.03162 0.3649 0.0
C2142 C 0.7283 0.0489 0.37433 0.0
C2143 C 0.7134 0.06682 0.36745 0.0
C2144 C 0.69838 0.06758 0.35125 0.0
C2145 C 0.69842 0.05044 0.34188 0.0
C2146 C 0.71396 0.03254 0.34864 0.0
C2147 C 0.64088 0.9359 0.38841 0.0
C2148 C 0.61645 0.93244 0.37357 0.0
C2149 C 0.67867 0.95033 0.38971 0.0
C2150 C 0.69405 0.96113 0.37605 0.0
C2151 C 0.6706 0.95713 0.36106 0.0
C2152 C 0.63161 0.94313 0.35988 0.0
C2153 C 0.73061 0.97787 0.37754 0.0
C2154 C 0.71655 0.99603 0.37066 0.0
C2155 C 0.77736 0.97658 0.38616 0.0
C2156 C 0.7949 0.95822 0.39413 0.0
C2157 C 0.80312 0.94094 0.38514 0.0
C2158 C 0.82122 0.92393 0.3928 0.0
C2159 C 0.83098 0.92401 0.40941 0.0
C2160 C 0.82307 0.94114 0.41842 0.0
C2161 C 0.8053 0.95822 0.41083 0.0
H2162 H 0.84495 0.91081 0.41529 0.0
H2163 H 0.68625 0.08138 0.34596 0.0
H2164 H 0.81456 0.93446 0.85084 0.0
H2165 H 0.7716 0.96596 0.85599 0.0
H2166 H 0.82176 0.96428 0.90565 0.0
H2167 H 0.86602 0.93312 0.90049 0.0
H2168 H 0.71168 0.96628 0.89962 0.0
H2169 H 0.868 0.99741 0.88571 0.0
H2170 H 0.94355 0.00501 0.8691 0.0
H2171 H 0.84764 0.02843 0.83173 0.0
H2172 H 0.77115 0.02006 0.84769 0.0
H2173 H 0.5712 0.05341 0.9169 0.0
H2174 H 0.64081 0.02932 0.91572 0.0
H2175 H 0.63924 0.03249 0.86354 0.0
H2176 H 0.57092 0.05711 0.86477 0.0
H2177 H 0.73479 0.03196 0.87432 0.0
H2178 H 0.58085 0.99491 0.88474 0.0
H2179 H 0.50292 0.9856 0.89967 0.0
H2180 H 0.5926 0.97252 0.9418 0.0
H2181 H 0.67099 0.98205 0.92716 0.0
C2182 C 0.81739 0.94106 0.86274 0.0
C2183 C 0.84355 0.9314 0.87526 0.0
C2184 C 0.79312 0.95906 0.86564 0.0
C2185 C 0.79392 0.96743 0.88116 0.0
C2186 C 0.82129 0.95811 0.89356 0.0
C2187 C 0.84654 0.94035 0.89057 0.0
C2188 C 0.76054 0.98437 0.88486 0.0
C2189 C 0.71719 0.98078 0.89436 0.0
C2190 C 0.7675 0.00307 0.87763 0.0
C2191 C 0.81359 0.00786 0.86787 0.0
C2192 C 0.86282 0.00388 0.87384 0.0
C2193 C 0.9059 0.0084 0.86456 0.0
C2194 C 0.90047 0.0173 0.84943 0.0
C2195 C 0.85183 0.02155 0.84347 0.0
C2196 C 0.80855 0.01684 0.8526 0.0
C2197 C 0.58613 0.04903 0.90521 0.0
C2198 C 0.56636 0.0572 0.89094 0.0
C2199 C 0.62562 0.03523 0.90454 0.0
C2200 C 0.64506 0.02904 0.88953 0.0
C2201 C 0.62504 0.03715 0.87525 0.0
C2202 C 0.58577 0.05105 0.87594 0.0
C2203 C 0.68503 0.01362 0.88861 0.0
C2204 C 0.72962 0.01752 0.8797 0.0
C2205 C 0.6789 0.99502 0.89612 0.0
C2206 C 0.63169 0.98947 0.90495 0.0
C2207 C 0.58388 0.99025 0.89724 0.0
C2208 C 0.53964 0.9849 0.90564 0.0
C2209 C 0.54278 0.97856 0.9217 0.0
C2210 C 0.5902 0.97751 0.92938 0.0
C2211 C 0.63454 0.98289 0.92105 0.0
H2212 H 0.50849 0.97439 0.92817 0.0
H2213 H 0.93395 0.02089 0.84233 0.0
H2214 H 0.1124 0.92534 0.651 0.0
H2215 H 0.19198 0.94403 0.65439 0.0
H2216 H 0.16056 0.97546 0.61001 0.0
H2217 H 0.08364 0.95572 0.60608 0.0
H2218 H 0.2555 0.97111 0.61156 0.0
H2219 H 0.12753 0.9936 0.6502 0.0
H2220 H 0.06675 0.98888 0.67272 0.0
H2221 H 0.18852 0.96843 0.70316 0.0
H2222 H 0.24982 0.9729 0.68078 0.0
H2223 H 0.30755 0.07258 0.64895 0.0
H2224 H 0.26324 0.04133 0.64879 0.0
H2225 H 0.39791 0.01281 0.62965 0.0
H2226 H 0.44177 0.0447 0.62886 0.0
H2227 H 0.269 0.00912 0.6626 0.0
H2228 H 0.36532 0.97308 0.60799 0.0
H2229 H 0.4115 0.9819 0.58293 0.0
H2230 H 0.33115 0.03703 0.58087 0.0
H2231 H 0.28433 0.02845 0.60584 0.0
C2232 C 0.12309 0.93616 0.64197 0.0
C2233 C 0.09226 0.93935 0.62836 0.0
C2234 C 0.16834 0.94683 0.6439 0.0
C2235 C 0.18187 0.96147 0.63263 0.0
C2236 C 0.15126 0.96423 0.61885 0.0
C2237 C 0.10707 0.95313 0.61667 0.0
C2238 C 0.22518 0.9751 0.63561 0.0
C2239 C 0.25892 0.97921 0.62282 0.0
C2240 C 0.22967 0.98583 0.65023 0.0
C2241 C 0.19313 0.9834 0.66379 0.0
C2242 C 0.14125 0.98804 0.6617 0.0
C2243 C 0.10672 0.98541 0.67443 0.0
C2244 C 0.12374 0.9783 0.68935 0.0
C2245 C 0.17538 0.9739 0.69159 0.0
C2246 C 0.21005 0.9765 0.67889 0.0
C2247 C 0.32797 0.0597 0.64472 0.0
C2248 C 0.378 0.06115 0.63874 0.0
C2249 C 0.30261 0.04171 0.64476 0.0
C2250 C 0.32692 0.02459 0.63913 0.0
C2251 C 0.37787 0.02581 0.6338 0.0
C2252 C 0.403 0.04402 0.6334 0.0
C2253 C 0.29707 0.006 0.63817 0.0
C2254 C 0.2665 0.0007 0.65147 0.0
C2255 C 0.29374 0.99484 0.62374 0.0
C2256 C 0.32192 0.00022 0.60884 0.0
C2257 C 0.35759 0.98707 0.60216 0.0
C2258 C 0.38384 0.99203 0.588 0.0
C2259 C 0.37441 0.01005 0.58036 0.0
C2260 C 0.33859 0.02313 0.58684 0.0
C2261 C 0.31224 0.01823 0.60101 0.0
H2262 H 0.3948 0.01384 0.5694 0.0
H2263 H 0.09695 0.97625 0.69918 0.0
H2264 H 0.83325 0.42601 0.14044 0.0
H2265 H 0.7906 0.45779 0.14059 0.0
H2266 H 0.92876 0.48573 0.12362 0.0
H2267 H 0.97134 0.4536 0.1229 0.0
H2268 H 0.80213 0.4892 0.1565 0.0
H2269 H 0.89488 0.5284 0.10182 0.0
H2270 H 0.93942 0.52021 0.07637 0.0
H2271 H 0.86159 0.46457 0.07447 0.0
H2272 H 0.81632 0.4725 0.09982 0.0
H2273 H 0.66587 0.57882 0.15216 0.0
H2274 H 0.74072 0.55705 0.15326 0.0
H2275 H 0.69845 0.53233 0.10697 0.0
H2276 H 0.62683 0.55525 0.10534 0.0
H2277 H 0.79326 0.5319 0.10791 0.0
H2278 H 0.66351 0.51172 0.14716 0.0
H2279 H 0.6082 0.51653 0.17104 0.0
H2280 H 0.74003 0.528 0.20043 0.0
H2281 H 0.79604 0.52343 0.17666 0.0
C2282 C 0.85477 0.43891 0.13682 0.0
C2283 C 0.90571 0.43731 0.13167 0.0
C2284 C 0.83031 0.45713 0.13694 0.0
C2285 C 0.85629 0.47425 0.13211 0.0
C2286 C 0.90762 0.47276 0.12725 0.0
C2287 C 0.93199 0.4544 0.12688 0.0
C2288 C 0.82853 0.49338 0.13203 0.0
C2289 C 0.80042 0.49856 0.14586 0.0
C2290 C 0.8265 0.50577 0.11824 0.0
C2291 C 0.85314 0.50087 0.10292 0.0
C2292 C 0.88746 0.51439 0.096 0.0
C2293 C 0.91275 0.50981 0.08157 0.0
C2294 C 0.9036 0.49182 0.07386 0.0
C2295 C 0.86891 0.47843 0.08051 0.0
C2296 C 0.8435 0.48295 0.09493 0.0
C2297 C 0.67324 0.56882 0.14221 0.0
C2298 C 0.64074 0.5684 0.12875 0.0
C2299 C 0.71579 0.55636 0.14284 0.0
C2300 C 0.7247 0.5426 0.1304 0.0
C2301 C 0.69275 0.54275 0.11673 0.0
C2302 C 0.65152 0.5557 0.11584 0.0
C2303 C 0.76412 0.5269 0.13197 0.0
C2304 C 0.7954 0.52263 0.11858 0.0
C2305 C 0.76734 0.51476 0.14588 0.0
C2306 C 0.7338 0.51747 0.16014 0.0
C2307 C 0.6806 0.51536 0.15871 0.0
C2308 C 0.64917 0.51804 0.17222 0.0
C2309 C 0.67058 0.52263 0.18724 0.0
C2310 C 0.7235 0.52449 0.18879 0.0
C2311 C 0.7551 0.52186 0.17531 0.0
H2312 H 0.64618 0.5247 0.19768 0.0
H2313 H 0.92322 0.4883 0.0627 0.0
H2314 H 0.09579 0.44195 0.41066 0.0
H2315 H 0.16628 0.46557 0.41043 0.0
H2316 H 0.17577 0.46066 0.35842 0.0
H2317 H 0.10645 0.43633 0.35876 0.0
H2318 H 0.268 0.46031 0.37032 0.0
H2319 H 0.12158 0.50197 0.37777 0.0
H2320 H 0.042 0.51408 0.39031 0.0
H2321 H 0.12012 0.52236 0.43545 0.0
H2322 H 0.20015 0.51026 0.42319 0.0
H2323 H 0.37847 0.55449 0.35334 0.0
H2324 H 0.32728 0.52456 0.35616 0.0
H2325 H 0.36173 0.52266 0.40715 0.0
H2326 H 0.41415 0.55244 0.40434 0.0
H2327 H 0.25337 0.52518 0.39768 0.0
H2328 H 0.3994 0.48088 0.3893 0.0
H2329 H 0.47914 0.47226 0.37496 0.0
H2330 H 0.39947 0.47325 0.32956 0.0
H2331 H 0.31908 0.48144 0.34372 0.0
C2332 C 0.11309 0.44593 0.3992 0.0
C2333 C 0.0965 0.43716 0.38476 0.0
C2334 C 0.15306 0.45953 0.39905 0.0
C2335 C 0.1762 0.46503 0.38439 0.0
C2336 C 0.15873 0.45657 0.36988 0.0
C2337 C 0.11894 0.44282 0.37006 0.0
C2338 C 0.21875 0.47949 0.38422 0.0
C2339 C 0.26447 0.47451 0.37625 0.0
C2340 C 0.21489 0.49797 0.39214 0.0
C2341 C 0.16665 0.50496 0.39962 0.0
C2342 C 0.12165 0.50621 0.39041 0.0
C2343 C 0.07652 0.51313 0.39746 0.0
C2344 C 0.07595 0.51889 0.41369 0.0
C2345 C 0.12056 0.51781 0.4229 0.0
C2346 C 0.16585 0.51098 0.4159 0.0
C2347 C 0.37637 0.54736 0.36505 0.0
C2348 C 0.4001 0.55577 0.37863 0.0
C2349 C 0.34729 0.53025 0.36663 0.0
C2350 C 0.34092 0.52144 0.38185 0.0
C2351 C 0.36662 0.52922 0.39529 0.0
C2352 C 0.39667 0.54615 0.39365 0.0
C2353 C 0.30196 0.5059 0.38388 0.0
C2354 C 0.25687 0.51077 0.39208 0.0
C2355 C 0.30603 0.48754 0.376 0.0
C2356 C 0.3535 0.48179 0.36753 0.0
C2357 C 0.39899 0.4792 0.37626 0.0
C2358 C 0.44423 0.47437 0.36818 0.0
C2359 C 0.44445 0.47235 0.35135 0.0
C2360 C 0.39929 0.47492 0.34259 0.0
C2361 C 0.35379 0.47945 0.35065 0.0
H2362 H 0.47951 0.46865 0.3451 0.0
H2363 H 0.04101 0.5243 0.4191 0.0
H2364 H 0.43752 0.44284 0.89571 0.0
H2365 H 0.39579 0.47517 0.8953 0.0
H2366 H 0.30283 0.45654 0.85505 0.0
H2367 H 0.34434 0.42437 0.85531 0.0
H2368 H 0.3383 0.49371 0.8508 0.0
H2369 H 0.25528 0.45613 0.89313 0.0
H2370 H 0.24957 0.43728 0.91858 0.0
H2371 H 0.31263 0.48622 0.94474 0.0
H2372 H 0.31905 0.50532 0.91939 0.0
H2373 H 0.11573 0.55149 0.85075 0.0
H2374 H 0.18308 0.52673 0.85127 0.0
H2375 H 0.24367 0.55254 0.89497 0.0
H2376 H 0.17383 0.5766 0.89503 0.0
H2377 H 0.23894 0.51548 0.89868 0.0
H2378 H 0.31148 0.55446 0.85551 0.0
H2379 H 0.31251 0.57254 0.82948 0.0
H2380 H 0.26565 0.52024 0.80446 0.0
H2381 H 0.26421 0.50189 0.83021 0.0
C2382 C 0.40856 0.4457 0.88667 0.0
C2383 C 0.39413 0.431 0.87557 0.0
C2384 C 0.3846 0.46415 0.88651 0.0
C2385 C 0.34593 0.4682 0.87523 0.0
C2386 C 0.33263 0.45375 0.86385 0.0
C2387 C 0.35631 0.43532 0.86405 0.0
C2388 C 0.31788 0.4872 0.87545 0.0
C2389 C 0.31646 0.4985 0.86125 0.0
C2390 C 0.2906 0.49372 0.88922 0.0
C2391 C 0.28825 0.48204 0.90435 0.0
C2392 C 0.26846 0.46278 0.90428 0.0
C2393 C 0.26489 0.45209 0.9187 0.0
C2394 C 0.28079 0.46055 0.93327 0.0
C2395 C 0.30038 0.47969 0.93345 0.0
C2396 C 0.30396 0.49046 0.91907 0.0
C2397 C 0.14367 0.552 0.86039 0.0
C2398 C 0.14014 0.56622 0.87268 0.0
C2399 C 0.18272 0.53798 0.86056 0.0
C2400 C 0.2196 0.53802 0.8729 0.0
C2401 C 0.21616 0.55231 0.88519 0.0
C2402 C 0.17643 0.56612 0.88518 0.0
C2403 C 0.25813 0.52191 0.87385 0.0
C2404 C 0.26165 0.51109 0.8883 0.0
C2405 C 0.28708 0.51576 0.86025 0.0
C2406 C 0.28735 0.52688 0.8448 0.0
C2407 C 0.30101 0.5469 0.84447 0.0
C2408 C 0.30181 0.55716 0.82978 0.0
C2409 C 0.28897 0.54757 0.81539 0.0
C2410 C 0.27553 0.52767 0.81562 0.0
C2411 C 0.27488 0.51731 0.83023 0.0
H2412 H 0.28958 0.55557 0.80406 0.0
H2413 H 0.27783 0.45228 0.94443 0.0
H2414 H 0.94905 0.54702 0.61371 0.0
H2415 H 0.89863 0.51656 0.61388 0.0
H2416 H 0.79167 0.54308 0.64708 0.0
H2417 H 0.84146 0.57339 0.64707 0.0
H2418 H 0.86552 0.49193 0.64068 0.0
H2419 H 0.67397 0.53113 0.63433 0.0
H2420 H 0.64047 0.56274 0.62407 0.0
H2421 H 0.7588 0.56455 0.5882 0.0
H2422 H 0.79317 0.53295 0.5982 0.0
H2423 H 0.59589 0.44682 0.64797 0.0
H2424 H 0.656 0.47423 0.64741 0.0
H2425 H 0.7545 0.44142 0.61541 0.0
H2426 H 0.69282 0.41424 0.61526 0.0
H2427 H 0.68797 0.49519 0.61998 0.0
H2428 H 0.88614 0.45664 0.63194 0.0
H2429 H 0.92344 0.43003 0.64836 0.0
H2430 H 0.78912 0.42869 0.67815 0.0
H2431 H 0.75214 0.45602 0.6625 0.0
C2432 C 0.9151 0.54627 0.62118 0.0
C2433 C 0.89901 0.56265 0.63027 0.0
C2434 C 0.88644 0.52889 0.62126 0.0
C2435 C 0.8412 0.52778 0.6303 0.0
C2436 C 0.82617 0.54382 0.63985 0.0
C2437 C 0.8548 0.5611 0.63985 0.0
C2438 C 0.80853 0.51011 0.62947 0.0
C2439 C 0.82711 0.49236 0.63579 0.0
C2440 C 0.75782 0.51119 0.62373 0.0
C2441 C 0.7363 0.52974 0.6171 0.0
C2442 C 0.69269 0.53821 0.62419 0.0
C2443 C 0.67373 0.55617 0.61846 0.0
C2444 C 0.69791 0.56572 0.60558 0.0
C2445 C 0.74061 0.55721 0.59827 0.0
C2446 C 0.75987 0.5393 0.60397 0.0
C2447 C 0.63027 0.44538 0.64077 0.0
C2448 C 0.6402 0.42812 0.63189 0.0
C2449 C 0.6646 0.46106 0.64051 0.0
C2450 C 0.70991 0.4597 0.63156 0.0
C2451 C 0.72009 0.44256 0.62263 0.0
C2452 C 0.68509 0.42697 0.62266 0.0
C2453 C 0.74507 0.47669 0.63104 0.0
C2454 C 0.72678 0.49443 0.62452 0.0
C2455 C 0.79571 0.47565 0.63697 0.0
C2456 C 0.81575 0.45814 0.64572 0.0
C2457 C 0.86437 0.45061 0.64193 0.0
C2458 C 0.88569 0.43551 0.65122 0.0
C2459 C 0.85855 0.42759 0.66425 0.0
C2460 C 0.81 0.43477 0.66801 0.0
C2461 C 0.78882 0.4501 0.65891 0.0
H2462 H 0.87506 0.41586 0.6714 0.0
H2463 H 0.6837 0.57971 0.60127 0.0
H2464 H 0.16251 0.17154 0.1242 0.0
H2465 H 0.13854 0.20616 0.12181 0.0
H2466 H 0.98518 0.19214 0.137 0.0
H2467 H 0.00832 0.15747 0.13919 0.0
H2468 H 0.98392 0.21633 0.11159 0.0
H2469 H 0.06942 0.21415 0.16282 0.0
H2470 H 0.1398 0.20666 0.18164 0.0
H2471 H 0.24004 0.24432 0.15451 0.0
H2472 H 0.1704 0.25183 0.13539 0.0
H2473 H 0.90261 0.31405 0.13022 0.0
H2474 H 0.92579 0.2792 0.13124 0.0
H2475 H 0.07668 0.29318 0.11373 0.0
H2476 H 0.05418 0.32804 0.11276 0.0
H2477 H 0.07922 0.26909 0.14009 0.0
H2478 H 0.99186 0.27157 0.08907 0.0
H2479 H 0.92036 0.27915 0.07071 0.0
H2480 H 0.82213 0.24098 0.09809 0.0
H2481 H 0.89289 0.23339 0.11676 0.0
C2482 C 0.1237 0.17577 0.12712 0.0
C2483 C 0.08744 0.16163 0.13193 0.0
C2484 C 0.11011 0.19561 0.12577 0.0
C2485 C 0.06019 0.20175 0.12937 0.0
C2486 C 0.02391 0.18772 0.13415 0.0
C2487 C 0.03735 0.16787 0.13544 0.0
C2488 C 0.0456 0.22279 0.12799 0.0
C2489 C 0.00434 0.22785 0.11799 0.0
C2490 C 0.07291 0.23784 0.13608 0.0
C2491 C 0.11483 0.23339 0.14758 0.0
C2492 C 0.10658 0.22071 0.16079 0.0
C2493 C 0.14632 0.21649 0.17153 0.0
C2494 C 0.1944 0.22497 0.16924 0.0
C2495 C 0.20279 0.23774 0.15625 0.0
C2496 C 0.1632 0.242 0.14547 0.0
C2497 C 0.94063 0.30973 0.12646 0.0
C2498 C 0.9765 0.32389 0.12139 0.0
C2499 C 0.95374 0.28979 0.12701 0.0
C2500 C 1.00287 0.28362 0.12248 0.0
C2501 C 0.03857 0.29765 0.11728 0.0
C2502 C 0.02549 0.31758 0.11667 0.0
C2503 C 0.01763 0.26261 0.12368 0.0
C2504 C 0.05888 0.25757 0.13367 0.0
C2505 C 0.99014 0.24758 0.11565 0.0
C2506 C 0.94756 0.25207 0.10441 0.0
C2507 C 0.9549 0.26492 0.09126 0.0
C2508 C 0.91453 0.26919 0.08078 0.0
C2509 C 0.86669 0.26059 0.08325 0.0
C2510 C 0.85918 0.24765 0.09619 0.0
C2511 C 0.89942 0.24335 0.10672 0.0
H2512 H 0.83548 0.26391 0.07513 0.0
H2513 H 0.22511 0.22168 0.17757 0.0
H2514 H 0.59668 0.83853 0.11285 0.0
H2515 H 0.61937 0.80462 0.12002 0.0
H2516 H 0.46033 0.79121 0.12796 0.0
H2517 H 0.43756 0.82503 0.12105 0.0
H2518 H 0.52294 0.77114 0.14926 0.0
H2519 H 0.51147 0.7838 0.0914 0.0
H2520 H 0.53501 0.80123 0.06629 0.0
H2521 H 0.69143 0.78387 0.07254 0.0
H2522 H 0.66885 0.76654 0.09782 0.0
H2523 H 0.49569 0.67015 0.13035 0.0
H2524 H 0.49072 0.706 0.13184 0.0
H2525 H 0.65004 0.71027 0.11902 0.0
H2526 H 0.65523 0.6745 0.11713 0.0
H2527 H 0.59756 0.73571 0.10232 0.0
H2528 H 0.6071 0.7187 0.15815 0.0
H2529 H 0.58338 0.70086 0.18304 0.0
H2530 H 0.43306 0.72598 0.18117 0.0
H2531 H 0.45557 0.74373 0.15611 0.0
C2532 C 0.56676 0.82852 0.11659 0.0
C2533 C 0.51532 0.83436 0.11618 0.0
C2534 C 0.57973 0.80913 0.12061 0.0
C2535 C 0.54141 0.79532 0.12425 0.0
C2536 C 0.49048 0.80159 0.12514 0.0
C2537 C 0.47752 0.82092 0.12109 0.0
C2538 C 0.55307 0.77396 0.12513 0.0
C2539 C 0.5392 0.76334 0.13903 0.0
C2540 C 0.57514 0.76388 0.11186 0.0
C2541 C 0.58859 0.77407 0.09657 0.0
C2542 C 0.55093 0.78381 0.08747 0.0
C2543 C 0.56409 0.79366 0.0732 0.0
C2544 C 0.61472 0.79371 0.06784 0.0
C2545 C 0.65225 0.78385 0.07672 0.0
C2546 C 0.6393 0.77401 0.09101 0.0
C2547 C 0.52979 0.67867 0.12788 0.0
C2548 C 0.57584 0.66933 0.12358 0.0
C2549 C 0.52694 0.6992 0.12885 0.0
C2550 C 0.57023 0.71085 0.12579 0.0
C2551 C 0.61616 0.7016 0.12147 0.0
C2552 C 0.61898 0.6811 0.12036 0.0
C2553 C 0.56704 0.7327 0.12643 0.0
C2554 C 0.58225 0.74344 0.11274 0.0
C2555 C 0.54642 0.74284 0.13993 0.0
C2556 C 0.53294 0.73244 0.15517 0.0
C2557 C 0.56888 0.72033 0.16299 0.0
C2558 C 0.55566 0.71024 0.17713 0.0
C2559 C 0.50672 0.71225 0.18366 0.0
C2560 C 0.47095 0.72443 0.17609 0.0
C2561 C 0.48393 0.73452 0.16192 0.0
H2562 H 0.49654 0.7044 0.19461 0.0
H2563 H 0.62484 0.80135 0.0568 0.0
H2564 H 0.40973 0.67495 0.35629 0.0
H2565 H 0.42077 0.71051 0.35398 0.0
H2566 H 0.50975 0.71069 0.3979 0.0
H2567 H 0.50012 0.67493 0.40004 0.0
H2568 H 0.39385 0.74066 0.37147 0.0
H2569 H 0.60122 0.74532 0.39589 0.0
H2570 H 0.67868 0.72466 0.39702 0.0
H2571 H 0.62952 0.69312 0.35476 0.0
H2572 H 0.5522 0.71377 0.35325 0.0
H2573 H 0.46193 0.83962 0.39114 0.0
H2574 H 0.43964 0.80466 0.38951 0.0
H2575 H 0.55355 0.79642 0.35229 0.0
H2576 H 0.57753 0.8311 0.35454 0.0
H2577 H 0.56695 0.77015 0.37338 0.0
H2578 H 0.41959 0.79317 0.34531 0.0
H2579 H 0.34292 0.81351 0.34075 0.0
H2580 H 0.27346 0.78938 0.38346 0.0
H2581 H 0.35003 0.76908 0.38841 0.0
C2582 C 0.43167 0.68253 0.36548 0.0
C2583 C 0.45431 0.67208 0.37831 0.0
C2584 C 0.43776 0.7029 0.36417 0.0
C2585 C 0.46644 0.71328 0.37567 0.0
C2586 C 0.48818 0.70295 0.38871 0.0
C2587 C 0.48259 0.68251 0.38994 0.0
C2588 C 0.47439 0.73483 0.37382 0.0
C2589 C 0.43169 0.74714 0.37188 0.0
C2590 C 0.5238 0.74325 0.37393 0.0
C2591 C 0.57067 0.73097 0.37457 0.0
C2592 C 0.60707 0.73403 0.38681 0.0
C2593 C 0.65093 0.72231 0.38751 0.0
C2594 C 0.65894 0.70754 0.376 0.0
C2595 C 0.6232 0.70452 0.36371 0.0
C2596 C 0.57934 0.71622 0.36293 0.0
C2597 C 0.48121 0.83042 0.38233 0.0
C2598 C 0.52148 0.83795 0.37298 0.0
C2599 C 0.46847 0.81042 0.38139 0.0
C2600 C 0.49491 0.79781 0.37077 0.0
C2601 C 0.53292 0.80574 0.36069 0.0
C2602 C 0.54637 0.82558 0.36189 0.0
C2603 C 0.48635 0.77614 0.37112 0.0
C2604 C 0.52903 0.76376 0.37288 0.0
C2605 C 0.43704 0.76766 0.37029 0.0
C2606 C 0.39075 0.77973 0.3673 0.0
C2607 C 0.38811 0.7923 0.35379 0.0
C2608 C 0.34464 0.8038 0.35113 0.0
C2609 C 0.30339 0.80277 0.36183 0.0
C2610 C 0.30546 0.79018 0.37519 0.0
C2611 C 0.34886 0.77865 0.37792 0.0
H2612 H 0.26978 0.8117 0.35975 0.0
H2613 H 0.69287 0.69847 0.37659 0.0
H2614 H 0.11453 0.33107 0.38401 0.0
H2615 H 0.09043 0.29712 0.37865 0.0
H2616 H 0.93219 0.31441 0.37549 0.0
H2617 H 0.95613 0.34851 0.38145 0.0
H2618 H 0.94106 0.28498 0.39537 0.0
H2619 H 0.9995 0.29653 0.34207 0.0
H2620 H 0.05708 0.30799 0.32042 0.0
H2621 H 0.17235 0.26738 0.3363 0.0
H2622 H 0.11577 0.25587 0.35822 0.0
H2623 H 0.87225 0.18584 0.37583 0.0
H2624 H 0.88755 0.22119 0.37298 0.0
H2625 H 0.04479 0.21287 0.38676 0.0
H2626 H 0.02978 0.17739 0.3898 0.0
H2627 H 0.02862 0.23795 0.35868 0.0
H2628 H 0.9693 0.22966 0.41389 0.0
H2629 H 0.90868 0.21838 0.43477 0.0
H2630 H 0.79015 0.25348 0.4134 0.0
H2631 H 0.84995 0.26475 0.39223 0.0
C2632 C 0.07465 0.32778 0.38186 0.0
C2633 C 0.03717 0.34252 0.38326 0.0
C2634 C 0.06093 0.3083 0.37867 0.0
C2635 C 0.00947 0.30313 0.37658 0.0
C2636 C 0.97216 0.31802 0.37707 0.0
C2637 C 0.98591 0.33756 0.38035 0.0
C2638 C 0.99468 0.282 0.37569 0.0
C2639 C 0.9594 0.27481 0.38706 0.0
C2640 C 0.01917 0.26859 0.36507 0.0
C2641 C 0.05344 0.27543 0.35188 0.0
C2642 C 0.03727 0.29014 0.34103 0.0
C2643 C 0.06972 0.29663 0.32869 0.0
C2644 C 0.11837 0.28844 0.327 0.0
C2645 C 0.13465 0.27372 0.33763 0.0
C2646 C 0.10237 0.26718 0.35001 0.0
C2647 C 0.91016 0.19148 0.37824 0.0
C2648 C 0.94979 0.1788 0.38312 0.0
C2649 C 0.91877 0.2117 0.37661 0.0
C2650 C 0.96724 0.21961 0.37967 0.0
C2651 C 0.00713 0.207 0.38431 0.0
C2652 C 0.99839 0.18678 0.38615 0.0
C2653 C 0.9759 0.24113 0.37849 0.0
C2654 C 0.00994 0.24829 0.36677 0.0
C2655 C 0.9498 0.25457 0.38862 0.0
C2656 C 0.91392 0.24786 0.40137 0.0
C2657 C 0.93019 0.23483 0.41355 0.0
C2658 C 0.896 0.22846 0.42546 0.0
C2659 C 0.84555 0.23516 0.42538 0.0
C2660 C 0.82922 0.24827 0.41342 0.0
C2661 C 0.86324 0.25466 0.40148 0.0
H2662 H 0.81914 0.23022 0.43462 0.0
H2663 H 0.14344 0.29348 0.31744 0.0
H2664 H 0.9793 0.81665 0.87977 0.0
H2665 H 0.99599 0.78157 0.87548 0.0
H2666 H 0.84164 0.77339 0.8587 0.0
H2667 H 0.82482 0.80867 0.86261 0.0
H2668 H 0.88267 0.7445 0.8833 0.0
H2669 H 0.91588 0.77239 0.8314 0.0
H2670 H 0.95209 0.79712 0.8128 0.0
H2671 H 0.10362 0.78063 0.82717 0.0
H2672 H 0.06833 0.75617 0.84623 0.0
H2673 H 0.96428 0.64637 0.86891 0.0
H2674 H 0.92245 0.67769 0.86239 0.0
H2675 H 0.06745 0.70758 0.86593 0.0
H2676 H 0.10944 0.6765 0.87176 0.0
H2677 H 0.01368 0.72416 0.84318 0.0
H2678 H 0.98085 0.70332 0.89898 0.0
H2679 H 0.94781 0.68 0.91938 0.0
H2680 H 0.7982 0.68387 0.89841 0.0
H2681 H 0.83056 0.70712 0.8778 0.0
C2682 C 0.9488 0.80739 0.87525 0.0
C2683 C 0.90078 0.81538 0.87151 0.0
C2684 C 0.95844 0.78739 0.87276 0.0
C2685 C 0.92007 0.77501 0.86671 0.0
C2686 C 0.87167 0.78279 0.86334 0.0
C2687 C 0.86225 0.8029 0.86555 0.0
C2688 C 0.93139 0.75397 0.86381 0.0
C2689 C 0.91034 0.7399 0.87427 0.0
C2690 C 0.96781 0.74817 0.85211 0.0
C2691 C 0.98938 0.76251 0.84035 0.0
C2692 C 0.95692 0.77412 0.8307 0.0
C2693 C 0.97728 0.78809 0.82005 0.0
C2694 C 0.0301 0.79043 0.81879 0.0
C2695 C 0.06269 0.77879 0.82816 0.0
C2696 C 0.04252 0.76487 0.83889 0.0
C2697 C 0.98729 0.65958 0.86802 0.0
C2698 C 0.04001 0.659 0.87119 0.0
C2699 C 0.96333 0.67748 0.86433 0.0
C2700 C 0.99162 0.69509 0.86403 0.0
C2701 C 0.0447 0.69425 0.86614 0.0
C2702 C 0.06866 0.67641 0.86961 0.0
C2703 C 0.96636 0.71467 0.86308 0.0
C2704 C 0.98487 0.72856 0.8519 0.0
C2705 C 0.92786 0.72037 0.87421 0.0
C2706 C 0.90819 0.70677 0.88679 0.0
C2707 C 0.94095 0.69914 0.89871 0.0
C2708 C 0.92236 0.68595 0.9103 0.0
C2709 C 0.87097 0.68041 0.91016 0.0
C2710 C 0.83801 0.68815 0.89848 0.0
C2711 C 0.85643 0.70135 0.88686 0.0
H2712 H 0.85669 0.67018 0.91913 0.0
H2713 H 0.04577 0.80126 0.81055 0.0
H2714 H 0.59397 0.16015 0.88121 0.0
H2715 H 0.57471 0.19452 0.87511 0.0
H2716 H 0.41373 0.18247 0.87928 0.0
H2717 H 0.43266 0.14795 0.88585 0.0
H2718 H 0.46007 0.21301 0.8519 0.0
H2719 H 0.44255 0.1975 0.90987 0.0
H2720 H 0.47382 0.18155 0.93479 0.0
H2721 H 0.6146 0.21368 0.93116 0.0
H2722 H 0.58438 0.22958 0.90605 0.0
H2723 H 0.37775 0.31115 0.86869 0.0
H2724 H 0.38879 0.27547 0.86712 0.0
H2725 H 0.54134 0.28118 0.88624 0.0
H2726 H 0.52996 0.31681 0.88831 0.0
H2727 H 0.49582 0.25286 0.90099 0.0
H2728 H 0.51593 0.27065 0.84554 0.0
H2729 H 0.49326 0.2862 0.81956 0.0
H2730 H 0.35854 0.25034 0.81663 0.0
H2731 H 0.37996 0.23479 0.84275 0.0
C2732 C 0.55435 0.16464 0.88046 0.0
C2733 C 0.51482 0.15137 0.8842 0.0
C2734 C 0.54348 0.18427 0.87689 0.0
C2735 C 0.4929 0.19097 0.87683 0.0
C2736 C 0.45301 0.17747 0.87919 0.0
C2737 C 0.4639 0.15778 0.88296 0.0
C2738 C 0.48293 0.21241 0.87687 0.0
C2739 C 0.46689 0.22178 0.86265 0.0
C2740 C 0.49371 0.22378 0.89077 0.0
C2741 C 0.51144 0.21455 0.90602 0.0
C2742 C 0.48033 0.20103 0.91432 0.0
C2743 C 0.49783 0.19202 0.92848 0.0
C2744 C 0.54623 0.19656 0.93453 0.0
C2745 C 0.57715 0.21017 0.92645 0.0
C2746 C 0.55984 0.21918 0.91226 0.0
C2747 C 0.41377 0.30482 0.87249 0.0
C2748 C 0.45294 0.31682 0.87868 0.0
C2749 C 0.42013 0.2844 0.87149 0.0
C2750 C 0.46611 0.2756 0.87639 0.0
C2751 C 0.50546 0.2876 0.88241 0.0
C2752 C 0.49891 0.30799 0.88359 0.0
C2753 C 0.47252 0.25382 0.87596 0.0
C2754 C 0.48829 0.24428 0.89017 0.0
C2755 C 0.46222 0.24243 0.86193 0.0
C2756 C 0.44927 0.25171 0.8462 0.0
C2757 C 0.48123 0.2662 0.83943 0.0
C2758 C 0.46865 0.27499 0.82466 0.0
C2759 C 0.42442 0.2693 0.81647 0.0
C2760 C 0.39274 0.25476 0.82301 0.0
C2761 C 0.4051 0.24594 0.83779 0.0
H2762 H 0.41475 0.27612 0.80503 0.0
H2763 H 0.55972 0.18956 0.94549 0.0
H2764 H 0.36213 0.18031 0.63711 0.0
H2765 H 0.37402 0.21597 0.63965 0.0
H2766 H 0.53685 0.20845 0.63514 0.0
H2767 H 0.52529 0.17274 0.63215 0.0
H2768 H 0.49048 0.23532 0.66294 0.0
H2769 H 0.49361 0.22184 0.60425 0.0
H2770 H 0.45531 0.20809 0.57945 0.0
H2771 H 0.32079 0.24312 0.58697 0.0
H2772 H 0.3581 0.25685 0.61198 0.0
H2773 H 0.62225 0.31861 0.63751 0.0
H2774 H 0.58221 0.28723 0.64402 0.0
H2775 H 0.4348 0.31107 0.63136 0.0
H2776 H 0.47491 0.34274 0.62477 0.0
H2777 H 0.45403 0.2776 0.61532 0.0
H2778 H 0.4542 0.29709 0.66933 0.0
H2779 H 0.48423 0.31141 0.69497 0.0
H2780 H 0.59967 0.26671 0.69854 0.0
H2781 H 0.57099 0.25228 0.67272 0.0
C2782 C 0.4005 0.18625 0.6367 0.0
C2783 C 0.44284 0.17381 0.63437 0.0
C2784 C 0.40714 0.20656 0.63819 0.0
C2785 C 0.45625 0.21468 0.63768 0.0
C2786 C 0.4987 0.20232 0.63565 0.0
C2787 C 0.49202 0.18201 0.63381 0.0
C2788 C 0.46323 0.23619 0.63841 0.0
C2789 C 0.48294 0.24465 0.65256 0.0
C2790 C 0.4505 0.24831 0.62513 0.0
C2791 C 0.42832 0.24014 0.61008 0.0
C2792 C 0.45565 0.22644 0.6007 0.0
C2793 C 0.43418 0.21869 0.58659 0.0
C2794 C 0.38556 0.22467 0.58167 0.0
C2795 C 0.35839 0.23846 0.59082 0.0
C2796 C 0.37968 0.24623 0.60496 0.0
C2797 C 0.58119 0.3173 0.63635 0.0
C2798 C 0.55177 0.33301 0.63044 0.0
C2799 C 0.55827 0.2994 0.64023 0.0
C2800 C 0.50551 0.29685 0.63823 0.0
C2801 C 0.47558 0.31279 0.63301 0.0
C2802 C 0.49852 0.33084 0.62927 0.0
C2803 C 0.48362 0.27684 0.63967 0.0
C2804 C 0.46085 0.26852 0.62591 0.0
C2805 C 0.49247 0.26498 0.65348 0.0
C2806 C 0.51055 0.27364 0.66898 0.0
C2807 C 0.48631 0.29038 0.67549 0.0
C2808 C 0.50301 0.2985 0.69009 0.0
C2809 C 0.54381 0.28997 0.6984 0.0
C2810 C 0.56802 0.27329 0.6921 0.0
C2811 C 0.5515 0.26512 0.67747 0.0
H2812 H 0.55665 0.29628 0.70972 0.0
H2813 H 0.369 0.21866 0.57073 0.0
H2814 H 0.89823 0.68179 0.63278 0.0
H2815 H 0.90856 0.7174 0.6305 0.0
H2816 H 0.04936 0.70905 0.60426 0.0
H2817 H 0.0396 0.6733 0.60655 0.0
H2818 H 0.05673 0.73752 0.62792 0.0
H2819 H 0.94515 0.72135 0.58401 0.0
H2820 H 0.86969 0.70615 0.57128 0.0
H2821 H 0.77098 0.74158 0.6009 0.0
H2822 H 0.84588 0.75678 0.61399 0.0
H2823 H 0.08046 0.83615 0.6017 0.0
H2824 H 0.07064 0.80047 0.60132 0.0
H2825 H 0.92707 0.80569 0.62655 0.0
H2826 H 0.936 0.84145 0.62691 0.0
H2827 H 0.92243 0.77858 0.60227 0.0
H2828 H 0.03302 0.79361 0.64698 0.0
H2829 H 0.10793 0.80844 0.6603 0.0
H2830 H 0.20789 0.77491 0.62962 0.0
H2831 H 0.13351 0.76008 0.61596 0.0
C2832 C 0.93151 0.68747 0.62655 0.0
C2833 C 0.96799 0.67469 0.61977 0.0
C2834 C 0.93719 0.70784 0.6252 0.0
C2835 C 0.97936 0.7158 0.61703 0.0
C2836 C 0.01643 0.70314 0.61055 0.0
C2837 C 0.0107 0.68273 0.61184 0.0
C2838 C 0.98473 0.73739 0.61537 0.0
C2839 C 0.02782 0.74649 0.62208 0.0
C2840 C 0.94633 0.74904 0.60806 0.0
C2841 C 0.90117 0.74008 0.60008 0.0
C2842 C 0.90736 0.7258 0.58789 0.0
C2843 C 0.86469 0.7172 0.5806 0.0
C2844 C 0.81558 0.72286 0.58531 0.0
C2845 C 0.80905 0.73719 0.59728 0.0
C2846 C 0.8516 0.74582 0.60463 0.0
C2847 C 0.04658 0.82982 0.60713 0.0
C2848 C 0.00924 0.84181 0.61447 0.0
C2849 C 0.04114 0.80937 0.60691 0.0
C2850 C 0.99849 0.80046 0.6141 0.0
C2851 C 0.96034 0.81231 0.62096 0.0
C2852 C 0.96566 0.83279 0.62118 0.0
C2853 C 0.99437 0.77874 0.61488 0.0
C2854 C 0.9515 0.7696 0.60802 0.0
C2855 C 0.03291 0.76705 0.62209 0.0
C2856 C 0.07769 0.7759 0.63033 0.0
C2857 C 0.07097 0.78952 0.64298 0.0
C2858 C 0.11333 0.79791 0.65061 0.0
C2859 C 0.16264 0.79267 0.64578 0.0
C2860 C 0.16967 0.77898 0.63334 0.0
C2861 C 0.12743 0.77057 0.62565 0.0
H2862 H 0.19539 0.79917 0.6517 0.0
H2863 H 0.7826 0.71617 0.57965 0.0
H2864 H 0.98869 0.09125 0.33318 0.0
H2865 H 0.99068 0.08722 0.30368 0.0
H2866 H 0.01404 0.14973 0.29802 0.0
H2867 H 0.01227 0.15386 0.32739 0.0
H2868 H 0.94209 0.13538 0.27676 0.0
H2869 H 0.11273 0.11833 0.29416 0.0
H2870 H 0.17603 0.09961 0.31001 0.0
H2871 H 0.12345 0.04562 0.28865 0.0
H2872 H 0.05933 0.06402 0.27283 0.0
H2873 H 0.02735 0.14423 0.19635 0.0
H2874 H 0.01917 0.14452 0.22574 0.0
H2875 H 0.01617 0.08097 0.22622 0.0
H2876 H 0.02585 0.08058 0.19669 0.0
H2877 H 0.07268 0.09335 0.25025 0.0
H2878 H 0.90565 0.10938 0.23184 0.0
H2879 H 0.83996 0.12706 0.21617 0.0
H2880 H 0.88114 0.1813 0.23951 0.0
H2881 H 0.94757 0.16399 0.25518 0.0
C2882 C 0.99413 0.10415 0.32566 0.0
C2883 C 1.00055 0.12287 0.3327 0.0
C2884 C 0.99543 0.10181 0.30878 0.0
C2885 C 1.00291 0.11816 0.29858 0.0
C2886 C 0.00826 0.13689 0.30559 0.0
C2887 C 0.0074 0.13921 0.32243 0.0
C2888 C 0.00567 0.11587 0.28063 0.0
C2889 C 0.97095 0.12634 0.27096 0.0
C2890 C 0.04221 0.10357 0.27301 0.0
C2891 C 0.08088 0.09252 0.28246 0.0
C2892 C 0.11439 0.10245 0.29295 0.0
C2893 C 0.15047 0.0919 0.3019 0.0
C2894 C 0.15366 0.07143 0.30037 0.0
C2895 C 0.12087 0.06148 0.28984 0.0
C2896 C 0.08468 0.07196 0.28087 0.0
C2897 C 0.02492 0.13028 0.20266 0.0
C2898 C 0.027 0.11237 0.19409 0.0
C2899 C 0.01992 0.13047 0.21953 0.0
C2900 C 0.01599 0.11277 0.2283 0.0
C2901 C 0.01887 0.09484 0.2198 0.0
C2902 C 0.02432 0.09464 0.20288 0.0
C2903 C 0.00951 0.11312 0.2463 0.0
C2904 C 0.0435 0.10229 0.256 0.0
C2905 C 0.97186 0.12492 0.25397 0.0
C2906 C 0.9319 0.13541 0.24459 0.0
C2907 C 0.90096 0.12511 0.23355 0.0
C2908 C 0.86354 0.13506 0.22468 0.0
C2909 C 0.85646 0.1553 0.22682 0.0
C2910 C 0.88671 0.16562 0.23786 0.0
C2911 C 0.9242 0.15574 0.24675 0.0
H2912 H 0.82747 0.16297 0.21994 0.0
H2913 H 0.18162 0.06329 0.30732 0.0
H2914 H 0.44885 0.86589 0.17749 0.0
H2915 H 0.44613 0.86544 0.20707 0.0
H2916 H 0.61062 0.86809 0.20864 0.0
H2917 H 0.6137 0.86796 0.17911 0.0
H2918 H 0.57678 0.84451 0.23172 0.0
H2919 H 0.53535 0.90988 0.21316 0.0
H2920 H 0.487 0.93423 0.19716 0.0
H2921 H 0.34858 0.91729 0.22131 0.0
H2922 H 0.39605 0.89266 0.23733 0.0
H2923 H 0.60989 0.88372 0.31101 0.0
H2924 H 0.60909 0.87825 0.28174 0.0
H2925 H 0.44487 0.87364 0.28272 0.0
H2926 H 0.44526 0.87932 0.3119 0.0
H2927 H 0.47583 0.89713 0.25849 0.0
H2928 H 0.51958 0.8328 0.27822 0.0
H2929 H 0.56919 0.80866 0.29402 0.0
H2930 H 0.70479 0.82411 0.26767 0.0
H2931 H 0.65611 0.84856 0.25186 0.0
C2932 C 0.48447 0.86612 0.18412 0.0
C2933 C 0.53147 0.86715 0.17593 0.0
C2934 C 0.48285 0.86596 0.20105 0.0
C2935 C 0.52814 0.86716 0.21011 0.0
C2936 C 0.57516 0.86725 0.20194 0.0
C2937 C 0.57684 0.86721 0.18503 0.0
C2938 C 0.52663 0.86926 0.22803 0.0
C2939 C 0.55509 0.85613 0.23757 0.0
C2940 C 0.49763 0.88422 0.2357 0.0
C2941 C 0.46917 0.8993 0.22634 0.0
C2942 C 0.49456 0.91128 0.21501 0.0
C2943 C 0.46732 0.92514 0.20594 0.0
C2944 C 0.41473 0.92727 0.20819 0.0
C2945 C 0.38931 0.91561 0.21957 0.0
C2946 C 0.41637 0.90171 0.22866 0.0
C2947 C 0.57362 0.88143 0.30502 0.0
C2948 C 0.52765 0.88195 0.31382 0.0
C2949 C 0.57323 0.87824 0.28828 0.0
C2950 C 0.52692 0.87538 0.28003 0.0
C2951 C 0.48104 0.87582 0.28881 0.0
C2952 C 0.48139 0.87901 0.30552 0.0
C2953 C 0.52612 0.87241 0.2622 0.0
C2954 C 0.49729 0.88543 0.25267 0.0
C2955 C 0.55499 0.85743 0.25454 0.0
C2956 C 0.58427 0.84264 0.26395 0.0
C2957 C 0.56005 0.83116 0.27587 0.0
C2958 C 0.58799 0.8174 0.28482 0.0
C2959 C 0.64013 0.81489 0.28188 0.0
C2960 C 0.66441 0.82609 0.26995 0.0
C2961 C 0.63665 0.83988 0.26098 0.0
H2962 H 0.6617 0.80423 0.28882 0.0
H2963 H 0.39373 0.93799 0.20115 0.0
H2964 H 0.91987 0.90276 0.68907 0.0
H2965 H 0.91685 0.89847 0.71838 0.0
H2966 H 0.02817 0.85181 0.71507 0.0
H2967 H 0.03133 0.85594 0.68562 0.0
H2968 H 0.94899 0.84271 0.73598 0.0
H2969 H 0.06547 0.89609 0.72716 0.0
H2970 H 0.09392 0.92798 0.71603 0.0
H2971 H 0.97223 0.95746 0.7411 0.0
H2972 H 0.94257 0.9257 0.75219 0.0
H2973 H 0.00941 0.84013 0.81974 0.0
H2974 H 0.01245 0.84237 0.79029 0.0
H2975 H 0.91313 0.8931 0.7918 0.0
H2976 H 0.91127 0.89132 0.82137 0.0
H2977 H 0.98852 0.89957 0.77159 0.0
H2978 H 0.87074 0.84607 0.77997 0.0
H2979 H 0.84294 0.81422 0.79135 0.0
H2980 H 0.96719 0.785 0.76737 0.0
H2981 H 0.99608 0.81673 0.75598 0.0
C2982 C 0.94363 0.89152 0.69453 0.0
C2983 C 0.97607 0.87975 0.68499 0.0
C2984 C 0.94195 0.88914 0.71131 0.0
C2985 C 0.97271 0.87498 0.71892 0.0
C2986 C 1.00421 0.86286 0.70943 0.0
C2987 C 0.00608 0.86529 0.69261 0.0
C2988 C 0.97241 0.87311 0.73682 0.0
C2989 C 0.95826 0.85505 0.74379 0.0
C2990 C 0.98361 0.88933 0.74698 0.0
C2991 C 1.0015 0.90848 0.74038 0.0
C2992 C 0.04452 0.90935 0.73019 0.0
C2993 C 0.06091 0.9274 0.72391 0.0
C2994 C 0.03482 0.94472 0.72783 0.0
C2995 C 0.99236 0.94403 0.73806 0.0
C2996 C 0.97576 0.926 0.74436 0.0
C2997 C 0.98803 0.85173 0.81382 0.0
C2998 C 0.96008 0.86557 0.8229 0.0
C2999 C 0.98961 0.85293 0.79695 0.0
C3000 C 0.96251 0.86776 0.78877 0.0
C3001 C 0.93436 0.88153 0.79783 0.0
C3002 C 0.93319 0.88046 0.81472 0.0
C3003 C 0.96444 0.86922 0.77082 0.0
C3004 C 0.9791 0.88721 0.76382 0.0
C3005 C 0.95364 0.85294 0.76064 0.0
C3006 C 0.93577 0.83379 0.76722 0.0
C3007 C 0.89225 0.83286 0.77718 0.0
C3008 C 0.87627 0.81484 0.78362 0.0
C3009 C 0.90328 0.7976 0.78008 0.0
C3010 C 0.94627 0.79836 0.77007 0.0
C3011 C 0.96242 0.81636 0.76361 0.0
H3012 H 0.89093 0.78367 0.78511 0.0
H3013 H 0.04758 0.95869 0.72297 0.0
H3014 H 0.46272 0.1541 0.8216 0.0
H3015 H 0.47212 0.15449 0.79215 0.0
H3016 H 0.47147 0.09093 0.79147 0.0
H3017 H 0.46374 0.09045 0.82093 0.0
H3018 H 0.53989 0.10311 0.77121 0.0
H3019 H 0.36457 0.11986 0.78028 0.0
H3020 H 0.2925 0.13852 0.79189 0.0
H3021 H 0.34787 0.19155 0.76962 0.0
H3022 H 0.42066 0.17325 0.75803 0.0
H3023 H 0.48807 0.09267 0.68647 0.0
H3024 H 0.48143 0.09202 0.71606 0.0
H3025 H 0.50174 0.15504 0.71753 0.0
H3026 H 0.50851 0.15582 0.68803 0.0
H3027 H 0.42308 0.14292 0.73715 0.0
H3028 H 0.59847 0.12508 0.72783 0.0
H3029 H 0.66841 0.10552 0.71592 0.0
H3030 H 0.60942 0.05322 0.73841 0.0
H3031 H 0.53867 0.07243 0.75028 0.0
C3032 C 0.46463 0.14019 0.81519 0.0
C3033 C 0.46222 0.12224 0.82368 0.0
C3034 C 0.46973 0.14043 0.79829 0.0
C3035 C 0.47165 0.12273 0.78942 0.0
C3036 C 0.47002 0.10481 0.79793 0.0
C3037 C 0.46545 0.10456 0.81483 0.0
C3038 C 0.47542 0.12285 0.77134 0.0
C3039 C 0.51382 0.11162 0.7638 0.0
C3040 C 0.44212 0.13418 0.76151 0.0
C3041 C 0.39834 0.14522 0.76842 0.0
C3042 C 0.36157 0.13553 0.77795 0.0
C3043 C 0.32056 0.14603 0.78452 0.0
C3044 C 0.31569 0.16621 0.78153 0.0
C3045 C 0.35174 0.17592 0.77194 0.0
C3046 C 0.39286 0.16549 0.76536 0.0
C3047 C 0.49127 0.10639 0.69308 0.0
C3048 C 0.49903 0.12429 0.68483 0.0
C3049 C 0.4876 0.10599 0.71002 0.0
C3050 C 0.49141 0.12348 0.71908 0.0
C3051 C 0.49869 0.14136 0.71085 0.0
C3052 C 0.50277 0.14175 0.69395 0.0
C3053 C 0.48745 0.12322 0.73711 0.0
C3054 C 0.44903 0.13441 0.74461 0.0
C3055 C 0.52038 0.11171 0.74688 0.0
C3056 C 0.56299 0.10016 0.73981 0.0
C3057 C 0.60017 0.10938 0.73013 0.0
C3058 C 0.64 0.09836 0.72341 0.0
C3059 C 0.64328 0.07813 0.72637 0.0
C3060 C 0.60679 0.06888 0.73611 0.0
C3061 C 0.56684 0.07983 0.74285 0.0
H3062 H 0.67415 0.06963 0.72116 0.0
H3063 H 0.28391 0.17432 0.78663 0.0
H3064 H 0.53669 0.6553 0.19406 0.0
H3065 H 0.53502 0.65484 0.22365 0.0
H3066 H 0.48707 0.59405 0.22289 0.0
H3067 H 0.48809 0.59443 0.1933 0.0
H3068 H 0.43394 0.61481 0.24518 0.0
H3069 H 0.61024 0.60596 0.23106 0.0
H3070 H 0.6913 0.61409 0.21741 0.0
H3071 H 0.69594 0.66978 0.24204 0.0
H3072 H 0.61449 0.66209 0.25568 0.0
H3073 H 0.48739 0.59354 0.32796 0.0
H3074 H 0.48525 0.59358 0.29836 0.0
H3075 H 0.53999 0.65353 0.29792 0.0
H3076 H 0.54335 0.65345 0.32745 0.0
H3077 H 0.58942 0.63266 0.27612 0.0
H3078 H 0.41288 0.64152 0.29031 0.0
H3079 H 0.33195 0.63328 0.304 0.0
H3080 H 0.32758 0.57761 0.27934 0.0
H3081 H 0.40889 0.58541 0.26566 0.0
C3082 C 0.52569 0.64183 0.20017 0.0
C3083 C 0.5128 0.62486 0.19128 0.0
C3084 C 0.52491 0.64157 0.2171 0.0
C3085 C 0.51152 0.62433 0.22552 0.0
C3086 C 0.4976 0.60751 0.21668 0.0
C3087 C 0.49837 0.60775 0.19974 0.0
C3088 C 0.51265 0.62377 0.24353 0.0
C3089 C 0.46811 0.61848 0.25195 0.0
C3090 C 0.55692 0.6289 0.25239 0.0
C3091 C 0.60602 0.63352 0.24427 0.0
C3092 C 0.62835 0.62 0.23347 0.0
C3093 C 0.6744 0.62452 0.22575 0.0
C3094 C 0.69869 0.64246 0.22882 0.0
C3095 C 0.67704 0.6559 0.23966 0.0
C3096 C 0.63096 0.65146 0.2474 0.0
C3097 C 0.49889 0.60675 0.32157 0.0
C3098 C 0.51555 0.62349 0.33009 0.0
C3099 C 0.49742 0.60678 0.30462 0.0
C3100 C 0.51192 0.62364 0.29586 0.0
C3101 C 0.52864 0.64034 0.30438 0.0
C3102 C 0.53042 0.64028 0.32129 0.0
C3103 C 0.51058 0.62385 0.27783 0.0
C3104 C 0.55517 0.62902 0.26938 0.0
C3105 C 0.46633 0.61862 0.26896 0.0
C3106 C 0.41723 0.61397 0.27708 0.0
C3107 C 0.39484 0.62746 0.28789 0.0
C3108 C 0.34888 0.62288 0.29564 0.0
C3109 C 0.32471 0.60491 0.29258 0.0
C3110 C 0.34638 0.59151 0.28172 0.0
C3111 C 0.39238 0.59601 0.27395 0.0
H3112 H 0.28913 0.60139 0.29859 0.0
H3113 H 0.73434 0.64594 0.22283 0.0
H3114 H 0.05987 0.39258 0.18176 0.0
H3115 H 0.06032 0.3923 0.21146 0.0
H3116 H 0.91387 0.36327 0.21158 0.0
H3117 H 0.91294 0.36359 0.1821 0.0
H3118 H 0.9157 0.39344 0.23276 0.0
H3119 H 0.02359 0.33798 0.21958 0.0
H3120 H 0.09716 0.32161 0.20666 0.0
H3121 H 0.19997 0.35941 0.2326 0.0
H3122 H 0.12692 0.37619 0.24551 0.0
H3123 H 0.89118 0.36196 0.31314 0.0
H3124 H 0.90156 0.3619 0.28378 0.0
H3125 H 0.05073 0.38808 0.28884 0.0
H3126 H 0.04109 0.38776 0.31833 0.0
H3127 H 0.05187 0.36143 0.26514 0.0
H3128 H 0.94588 0.41623 0.279 0.0
H3129 H 0.8733 0.43333 0.29184 0.0
H3130 H 0.76824 0.39809 0.26443 0.0
H3131 H 0.84023 0.38058 0.25159 0.0
C3132 C 0.02782 0.38612 0.18812 0.0
C3133 C 0.98641 0.3781 0.17952 0.0
C3134 C 0.02822 0.38589 0.2051 0.0
C3135 C 0.98725 0.37764 0.21378 0.0
C3136 C 0.94588 0.36973 0.20518 0.0
C3137 C 0.94552 0.36989 0.18828 0.0
C3138 C 0.9866 0.37742 0.2318 0.0
C3139 C 0.94522 0.38625 0.23982 0.0
C3140 C 0.02588 0.3686 0.24108 0.0
C3141 C 0.06979 0.35848 0.23337 0.0
C3142 C 0.06187 0.34291 0.22243 0.0
C3143 C 0.10348 0.33353 0.21513 0.0
C3144 C 0.15321 0.3395 0.21877 0.0
C3145 C 0.16143 0.35482 0.22976 0.0
C3146 C 0.11995 0.36426 0.23709 0.0
C3147 C 0.92644 0.36754 0.30804 0.0
C3148 C 0.96511 0.37503 0.31811 0.0
C3149 C 0.93222 0.3676 0.29122 0.0
C3150 C 0.97646 0.37541 0.28403 0.0
C3151 C 0.01611 0.38209 0.29407 0.0
C3152 C 0.01051 0.38191 0.31094 0.0
C3153 C 0.98042 0.37712 0.26608 0.0
C3154 C 0.02244 0.36868 0.25808 0.0
C3155 C 0.94187 0.38643 0.25678 0.0
C3156 C 0.89847 0.39697 0.26444 0.0
C3157 C 0.9073 0.41203 0.2758 0.0
C3158 C 0.86626 0.42181 0.28306 0.0
C3159 C 0.81619 0.41677 0.27898 0.0
C3160 C 0.80705 0.40196 0.26759 0.0
C3161 C 0.84796 0.39212 0.26031 0.0
H3162 H 0.78447 0.42436 0.28462 0.0
H3163 H 0.18537 0.33223 0.21311 0.0
H3164 H 0.56906 0.3344 0.69307 0.0
H3165 H 0.57054 0.33282 0.7227 0.0
H3166 H 0.5134 0.3924 0.72512 0.0
H3167 H 0.51316 0.39419 0.69565 0.0
H3168 H 0.58352 0.38806 0.7468 0.0
H3169 H 0.43546 0.34991 0.73128 0.0
H3170 H 0.39047 0.32331 0.71679 0.0
H3171 H 0.48413 0.28012 0.74043 0.0
H3172 H 0.52997 0.30649 0.75498 0.0
H3173 H 0.49135 0.39152 0.8272 0.0
H3174 H 0.49655 0.39058 0.79766 0.0
H3175 H 0.56363 0.3326 0.79993 0.0
H3176 H 0.55801 0.33332 0.82947 0.0
H3177 H 0.49331 0.3346 0.77613 0.0
H3178 H 0.63773 0.37282 0.79283 0.0
H3179 H 0.68239 0.39948 0.80733 0.0
H3180 H 0.59549 0.44269 0.78123 0.0
H3181 H 0.54978 0.41627 0.76674 0.0
C3182 C 0.55681 0.34713 0.69995 0.0
C3183 C 0.54059 0.36434 0.69201 0.0
C3184 C 0.5575 0.34621 0.7169 0.0
C3185 C 0.54119 0.36238 0.72623 0.0
C3186 C 0.52611 0.37971 0.71826 0.0
C3187 C 0.52597 0.38071 0.70137 0.0
C3188 C 0.53948 0.36143 0.74426 0.0
C3189 C 0.56326 0.37647 0.75318 0.0
C3190 C 0.5143 0.34604 0.7527 0.0
C3191 C 0.48639 0.33017 0.74411 0.0
C3192 C 0.44658 0.33474 0.73334 0.0
C3193 C 0.42087 0.31971 0.72514 0.0
C3194 C 0.43442 0.30004 0.7277 0.0
C3195 C 0.47362 0.29536 0.73849 0.0
C3196 C 0.49944 0.31034 0.74673 0.0
C3197 C 0.50712 0.37854 0.82143 0.0
C3198 C 0.52463 0.36256 0.83074 0.0
C3199 C 0.51026 0.37805 0.80453 0.0
C3200 C 0.53118 0.36163 0.79655 0.0
C3201 C 0.54753 0.34546 0.80579 0.0
C3202 C 0.54446 0.34594 0.8227 0.0
C3203 C 0.53651 0.36143 0.77859 0.0
C3204 C 0.51362 0.34615 0.76972 0.0
C3205 C 0.5624 0.37662 0.77017 0.0
C3206 C 0.59002 0.39255 0.77881 0.0
C3207 C 0.62788 0.388 0.79027 0.0
C3208 C 0.65343 0.40307 0.79847 0.0
C3209 C 0.6417 0.42277 0.79523 0.0
C3210 C 0.60449 0.42743 0.78374 0.0
C3211 C 0.57879 0.41241 0.77552 0.0
H3212 H 0.66152 0.43442 0.80159 0.0
H3213 H 0.41462 0.28843 0.72129 0.0
H3214 H 0.09188 0.64923 0.67609 0.0
H3215 H 0.09361 0.6488 0.70568 0.0
H3216 H 0.98569 0.60082 0.70599 0.0
H3217 H 0.98367 0.60116 0.67636 0.0
H3218 H 0.96104 0.62965 0.7281 0.0
H3219 H 0.10949 0.592 0.71322 0.0
H3220 H 0.19102 0.58601 0.6991 0.0
H3221 H 0.25834 0.63546 0.72347 0.0
H3222 H 0.17694 0.64192 0.73758 0.0
H3223 H 0.98394 0.59823 0.80903 0.0
H3224 H 0.98445 0.60033 0.7796 0.0
H3225 H 0.10161 0.64491 0.78174 0.0
H3226 H 0.10211 0.64258 0.81136 0.0
H3227 H 0.12241 0.61922 0.75832 0.0
H3228 H 0.97591 0.65678 0.77363 0.0
H3229 H 0.89458 0.66351 0.78764 0.0
H3230 H 0.8237 0.61548 0.76238 0.0
H3231 H 0.90484 0.60829 0.74838 0.0
C3232 C 0.06845 0.63858 0.68243 0.0
C3233 C 0.03774 0.62518 0.67383 0.0
C3234 C 0.06966 0.63831 0.69937 0.0
C3235 C 0.04014 0.62466 0.70807 0.0
C3236 C 0.00885 0.61146 0.69954 0.0
C3237 C 0.00787 0.61163 0.68259 0.0
C3238 C 0.04174 0.6242 0.72608 0.0
C3239 C 0.9962 0.62712 0.73472 0.0
C3240 C 0.08788 0.62149 0.73472 0.0
C3241 C 0.13695 0.61757 0.72632 0.0
C3242 C 0.14155 0.6017 0.71547 0.0
C3243 C 0.18777 0.5982 0.70748 0.0
C3244 C 0.22979 0.61038 0.71035 0.0
C3245 C 0.22573 0.62605 0.72124 0.0
C3246 C 0.17958 0.62963 0.72925 0.0
C3247 C 0.00983 0.60854 0.8033 0.0
C3248 C 0.04282 0.62032 0.81261 0.0
C3249 C 0.0099 0.60978 0.78642 0.0
C3250 C 0.04246 0.62301 0.7784 0.0
C3251 C 0.07599 0.63463 0.78764 0.0
C3252 C 0.07614 0.63332 0.80458 0.0
C3253 C 0.04157 0.62453 0.7604 0.0
C3254 C 0.08723 0.62182 0.75174 0.0
C3255 C 0.99556 0.62756 0.75172 0.0
C3256 C 0.94661 0.63189 0.76006 0.0
C3257 C 0.94309 0.64756 0.77115 0.0
C3258 C 0.897 0.65147 0.77908 0.0
C3259 C 0.85404 0.6399 0.77593 0.0
C3260 C 0.85704 0.62442 0.76482 0.0
C3261 C 0.90305 0.62043 0.75687 0.0
H3262 H 0.81839 0.64295 0.78208 0.0
H3263 H 0.26554 0.60766 0.70415 0.0
loop_
_geom_bond_atom_site_label_1
_geom_bond_atom_site_label_2
_geom_bond_distance
_geom_bond_site_symmetry_2
_ccdc_geom_bond_type
O0 Tb1 2.292 . S
O0 C3 1.255 . S
Tb1 O0 2.292 . S
Tb1 O17 2.326 . S
Tb1 O19 2.500 . S
Tb1 O20 2.473 . S
Tb1 O23 2.324 . S
Eu2 O6 2.292 1_455 S
Eu2 C7 2.852 1_455 S
Eu2 O18 2.324 . S
Eu2 O22 2.326 . S
Eu2 O24 2.500 1_455 S
Eu2 O25 2.473 1_455 S
C3 O0 1.255 . S
C3 O4 1.247 . S
O4 C3 1.247 . S
C5 O17 1.242 . S
C5 O18 1.258 . S
O6 Eu2 2.292 1_655 S
O6 C8 1.255 . S
C7 Eu2 2.852 1_655 S
C7 C11 1.503 . S
C7 O24 1.273 . S
C7 O25 1.257 . S
C8 O6 1.255 . S
C8 O9 1.247 1_655 S
O9 C8 1.247 1_455 S
C10 O22 1.242 . S
C10 O23 1.258 . S
C11 C7 1.503 . S
C11 C12 1.379 . S
C11 C16 1.392 . S
C12 C11 1.379 . S
C12 C13 1.404 . S
C12 H26 0.929 . S
C13 C12 1.404 . S
C13 C14 1.389 . S
C14 C13 1.389 . S
C14 C15 1.399 . S
C14 H27 0.931 . S
C15 C14 1.399 . S
C15 C16 1.390 . S
C16 C11 1.392 . S
C16 C15 1.390 . S
C16 H28 0.929 . S
O17 Tb1 2.326 . S
O17 C5 1.242 . S
O18 Eu2 2.324 . S
O18 C5 1.258 . S
O19 Tb1 2.500 . S
O19 C21 1.273 . S
O20 Tb1 2.473 . S
O20 C21 1.257 . S
C21 O19 1.273 . S
C21 O20 1.257 . S
O22 Eu2 2.326 . S
O22 C10 1.242 . S
O23 Tb1 2.324 . S
O23 C10 1.258 . S
O24 Eu2 2.500 1_655 S
O24 C7 1.273 . S
O25 Eu2 2.473 1_655 S
O25 C7 1.257 . S
H26 C12 0.929 . S
H27 C14 0.931 . S
H28 C16 0.929 . S
O29 Tb30 2.292 . S
O29 C32 1.255 . S
Tb30 O29 2.292 . S
Tb30 O46 2.326 . S
Tb30 O48 2.500 . S
Tb30 O49 2.473 . S
Tb30 O52 2.324 . S
Eu31 O35 2.292 . S
Eu31 C36 2.852 . S
Eu31 O47 2.324 . S
Eu31 O51 2.326 . S
Eu31 O53 2.500 . S
Eu31 O54 2.473 . S
C32 O29 1.255 . S
C32 O33 1.247 . S
O33 C32 1.247 . S
C34 O46 1.242 . S
C34 O47 1.258 . S
O35 Eu31 2.292 . S
O35 C37 1.255 . S
C36 Eu31 2.852 . S
C36 C40 1.503 . S
C36 O53 1.273 . S
C36 O54 1.257 . S
C37 O35 1.255 . S
C37 O38 1.247 . S
O38 C37 1.247 . S
C39 O51 1.242 . S
C39 O52 1.258 . S
C40 C36 1.503 . S
C40 C41 1.379 . S
C40 C45 1.392 . S
C41 C40 1.379 . S
C41 C42 1.404 . S
C41 H55 0.929 . S
C42 C41 1.404 . S
C42 C43 1.389 . S
C43 C42 1.389 . S
C43 C44 1.399 . S
C43 H56 0.931 . S
C44 C43 1.399 . S
C44 C45 1.390 . S
C45 C40 1.392 . S
C45 C44 1.390 . S
C45 H57 0.929 . S
O46 Tb30 2.326 . S
O46 C34 1.242 . S
O47 Eu31 2.324 . S
O47 C34 1.258 . S
O48 Tb30 2.500 . S
O48 C50 1.273 . S
O49 Tb30 2.473 . S
O49 C50 1.257 . S
C50 O48 1.273 . S
C50 O49 1.257 . S
O51 Eu31 2.326 . S
O51 C39 1.242 . S
O52 Tb30 2.324 . S
O52 C39 1.258 . S
O53 Eu31 2.500 . S
O53 C36 1.273 . S
O54 Eu31 2.473 . S
O54 C36 1.257 . S
H55 C41 0.929 . S
H56 C43 0.931 . S
H57 C45 0.929 . S
O58 Tb59 2.292 . S
O58 C61 1.255 . S
Tb59 O58 2.292 . S
Tb59 O75 2.326 . S
Tb59 O77 2.500 . S
Tb59 O78 2.473 . S
Tb59 O81 2.324 . S
Eu60 O64 2.292 . S
Eu60 C65 2.852 . S
Eu60 O76 2.324 . S
Eu60 O80 2.326 . S
Eu60 O82 2.500 . S
Eu60 O83 2.473 . S
C61 O58 1.255 . S
C61 O62 1.247 . S
O62 C61 1.247 . S
C63 O75 1.242 . S
C63 O76 1.258 . S
O64 Eu60 2.292 . S
O64 C66 1.255 . S
C65 Eu60 2.852 . S
C65 C69 1.503 . S
C65 O82 1.273 . S
C65 O83 1.257 . S
C66 O64 1.255 . S
C66 O67 1.247 . S
O67 C66 1.247 . S
C68 O80 1.242 . S
C68 O81 1.258 . S
C69 C65 1.503 . S
C69 C70 1.379 . S
C69 C74 1.392 . S
C70 C69 1.379 . S
C70 C71 1.404 . S
C70 H84 0.929 . S
C71 C70 1.404 . S
C71 C72 1.389 . S
C72 C71 1.389 . S
C72 C73 1.399 . S
C72 H85 0.931 . S
C73 C72 1.399 . S
C73 C74 1.390 . S
C74 C69 1.392 . S
C74 C73 1.390 . S
C74 H86 0.929 . S
O75 Tb59 2.326 . S
O75 C63 1.242 . S
O76 Eu60 2.324 . S
O76 C63 1.258 . S
O77 Tb59 2.500 . S
O77 C79 1.273 . S
O78 Tb59 2.473 . S
O78 C79 1.257 . S
C79 O77 1.273 . S
C79 O78 1.257 . S
O80 Eu60 2.326 . S
O80 C68 1.242 . S
O81 Tb59 2.324 . S
O81 C68 1.258 . S
O82 Eu60 2.500 . S
O82 C65 1.273 . S
O83 Eu60 2.473 . S
O83 C65 1.257 . S
H84 C70 0.929 . S
H85 C72 0.931 . S
H86 C74 0.929 . S
O87 Tb88 2.292 . S
O87 C90 1.255 . S
Tb88 O87 2.292 . S
Tb88 O104 2.326 . S
Tb88 O106 2.500 . S
Tb88 O107 2.473 . S
Tb88 O110 2.324 . S
Eu89 O93 2.292 1_655 S
Eu89 C94 2.852 1_655 S
Eu89 O105 2.324 . S
Eu89 O109 2.326 . S
Eu89 O111 2.500 1_655 S
Eu89 O112 2.473 1_655 S
C90 O87 1.255 . S
C90 O91 1.247 . S
O91 C90 1.247 . S
C92 O104 1.242 . S
C92 O105 1.258 . S
O93 Eu89 2.292 1_455 S
O93 C95 1.255 . S
C94 Eu89 2.852 1_455 S
C94 C98 1.503 . S
C94 O111 1.273 . S
C94 O112 1.257 . S
C95 O93 1.255 . S
C95 O96 1.247 1_455 S
O96 C95 1.247 1_655 S
C97 O109 1.242 . S
C97 O110 1.258 . S
C98 C94 1.503 . S
C98 C99 1.379 . S
C98 C103 1.392 . S
C99 C98 1.379 . S
C99 C100 1.404 . S
C99 H113 0.929 . S
C100 C99 1.404 . S
C100 C101 1.389 . S
C101 C100 1.389 . S
C101 C102 1.399 . S
C101 H114 0.931 . S
C102 C101 1.399 . S
C102 C103 1.390 . S
C103 C98 1.392 . S
C103 C102 1.390 . S
C103 H115 0.929 . S
O104 Tb88 2.326 . S
O104 C92 1.242 . S
O105 Eu89 2.324 . S
O105 C92 1.258 . S
O106 Tb88 2.500 . S
O106 C108 1.273 . S
O107 Tb88 2.473 . S
O107 C108 1.257 . S
C108 O106 1.273 . S
C108 O107 1.257 . S
O109 Eu89 2.326 . S
O109 C97 1.242 . S
O110 Tb88 2.324 . S
O110 C97 1.258 . S
O111 Eu89 2.500 1_455 S
O111 C94 1.273 . S
O112 Eu89 2.473 1_455 S
O112 C94 1.257 . S
H113 C99 0.929 . S
H114 C101 0.931 . S
H115 C103 0.929 . S
O116 Tb117 2.292 . S
O116 C119 1.255 . S
Tb117 O116 2.292 . S
Tb117 O133 2.326 . S
Tb117 O135 2.500 . S
Tb117 O136 2.473 . S
Tb117 O139 2.324 . S
Eu118 O122 2.292 1_655 S
Eu118 C123 2.852 1_655 S
Eu118 O134 2.324 . S
Eu118 O138 2.326 . S
Eu118 O140 2.500 1_655 S
Eu118 O141 2.473 1_655 S
C119 O116 1.255 . S
C119 O120 1.247 . S
O120 C119 1.247 . S
C121 O133 1.242 . S
C121 O134 1.258 . S
O122 Eu118 2.292 1_455 S
O122 C124 1.255 . S
C123 Eu118 2.852 1_455 S
C123 C127 1.503 . S
C123 O140 1.273 . S
C123 O141 1.257 . S
C124 O122 1.255 . S
C124 O125 1.247 1_455 S
O125 C124 1.247 1_655 S
C126 O138 1.242 . S
C126 O139 1.258 . S
C127 C123 1.503 . S
C127 C128 1.379 . S
C127 C132 1.392 . S
C128 C127 1.379 . S
C128 C129 1.404 . S
C128 H142 0.929 . S
C129 C128 1.404 . S
C129 C130 1.389 . S
C130 C129 1.389 . S
C130 C131 1.399 . S
C130 H143 0.931 . S
C131 C130 1.399 . S
C131 C132 1.390 . S
C132 C127 1.392 . S
C132 C131 1.390 . S
C132 H144 0.929 . S
O133 Tb117 2.326 . S
O133 C121 1.242 . S
O134 Eu118 2.324 . S
O134 C121 1.258 . S
O135 Tb117 2.500 . S
O135 C137 1.273 . S
O136 Tb117 2.473 . S
O136 C137 1.257 . S
C137 O135 1.273 . S
C137 O136 1.257 . S
O138 Eu118 2.326 . S
O138 C126 1.242 . S
O139 Tb117 2.324 . S
O139 C126 1.258 . S
O140 Eu118 2.500 1_455 S
O140 C123 1.273 . S
O141 Eu118 2.473 1_455 S
O141 C123 1.257 . S
H142 C128 0.929 . S
H143 C130 0.931 . S
H144 C132 0.929 . S
O145 Tb146 2.292 . S
O145 C148 1.255 . S
Tb146 O145 2.292 . S
Tb146 O162 2.326 . S
Tb146 O164 2.500 . S
Tb146 O165 2.473 . S
Tb146 O168 2.324 . S
Eu147 O151 2.292 . S
Eu147 C152 2.852 . S
Eu147 O163 2.324 . S
Eu147 O167 2.326 . S
Eu147 O169 2.500 . S
Eu147 O170 2.473 . S
C148 O145 1.255 . S
C148 O149 1.247 . S
O149 C148 1.247 . S
C150 O162 1.242 . S
C150 O163 1.258 . S
O151 Eu147 2.292 . S
O151 C153 1.255 . S
C152 Eu147 2.852 . S
C152 C156 1.503 . S
C152 O169 1.273 . S
C152 O170 1.257 . S
C153 O151 1.255 . S
C153 O154 1.247 . S
O154 C153 1.247 . S
C155 O167 1.242 . S
C155 O168 1.258 . S
C156 C152 1.503 . S
C156 C157 1.379 . S
C156 C161 1.392 . S
C157 C156 1.379 . S
C157 C158 1.404 . S
C157 H171 0.929 . S
C158 C157 1.404 . S
C158 C159 1.389 . S
C159 C158 1.389 . S
C159 C160 1.399 . S
C159 H172 0.931 . S
C160 C159 1.399 . S
C160 C161 1.390 . S
C161 C156 1.392 . S
C161 C160 1.390 . S
C161 H173 0.929 . S
O162 Tb146 2.326 . S
O162 C150 1.242 . S
O163 Eu147 2.324 . S
O163 C150 1.258 . S
O164 Tb146 2.500 . S
O164 C166 1.273 . S
O165 Tb146 2.473 . S
O165 C166 1.257 . S
C166 O164 1.273 . S
C166 O165 1.257 . S
O167 Eu147 2.326 . S
O167 C155 1.242 . S
O168 Tb146 2.324 . S
O168 C155 1.258 . S
O169 Eu147 2.500 . S
O169 C152 1.273 . S
O170 Eu147 2.473 . S
O170 C152 1.257 . S
H171 C157 0.929 . S
H172 C159 0.931 . S
H173 C161 0.929 . S
O174 Tb175 2.292 . S
O174 C177 1.255 . S
Tb175 O174 2.292 . S
Tb175 O191 2.326 . S
Tb175 O193 2.500 . S
Tb175 O194 2.473 . S
Tb175 O197 2.324 . S
Eu176 O180 2.292 . S
Eu176 C181 2.852 . S
Eu176 O192 2.324 . S
Eu176 O196 2.326 . S
Eu176 O198 2.500 . S
Eu176 O199 2.473 . S
C177 O174 1.255 . S
C177 O178 1.247 . S
O178 C177 1.247 . S
C179 O191 1.242 . S
C179 O192 1.258 . S
O180 Eu176 2.292 . S
O180 C182 1.255 . S
C181 Eu176 2.852 . S
C181 C185 1.503 . S
C181 O198 1.273 . S
C181 O199 1.257 . S
C182 O180 1.255 . S
C182 O183 1.247 . S
O183 C182 1.247 . S
C184 O196 1.242 . S
C184 O197 1.258 . S
C185 C181 1.503 . S
C185 C186 1.379 . S
C185 C190 1.392 . S
C186 C185 1.379 . S
C186 C187 1.404 . S
C186 H200 0.929 . S
C187 C186 1.404 . S
C187 C188 1.389 . S
C188 C187 1.389 . S
C188 C189 1.399 . S
C188 H201 0.931 . S
C189 C188 1.399 . S
C189 C190 1.390 . S
C190 C185 1.392 . S
C190 C189 1.390 . S
C190 H202 0.929 . S
O191 Tb175 2.326 . S
O191 C179 1.242 . S
O192 Eu176 2.324 . S
O192 C179 1.258 . S
O193 Tb175 2.500 . S
O193 C195 1.273 . S
O194 Tb175 2.473 . S
O194 C195 1.257 . S
C195 O193 1.273 . S
C195 O194 1.257 . S
O196 Eu176 2.326 . S
O196 C184 1.242 . S
O197 Tb175 2.324 . S
O197 C184 1.258 . S
O198 Eu176 2.500 . S
O198 C181 1.273 . S
O199 Eu176 2.473 . S
O199 C181 1.257 . S
H200 C186 0.929 . S
H201 C188 0.931 . S
H202 C190 0.929 . S
O203 Tb204 2.292 . S
O203 C206 1.255 . S
Tb204 O203 2.292 . S
Tb204 O220 2.326 . S
Tb204 O222 2.500 . S
Tb204 O223 2.473 . S
Tb204 O226 2.324 . S
Eu205 O209 2.292 1_455 S
Eu205 C210 2.852 1_455 S
Eu205 O221 2.324 . S
Eu205 O225 2.326 . S
Eu205 O227 2.500 1_455 S
Eu205 O228 2.473 1_455 S
C206 O203 1.255 . S
C206 O207 1.247 . S
O207 C206 1.247 . S
C208 O220 1.242 . S
C208 O221 1.258 . S
O209 Eu205 2.292 1_655 S
O209 C211 1.255 . S
C210 Eu205 2.852 1_655 S
C210 C214 1.503 . S
C210 O227 1.273 . S
C210 O228 1.257 . S
C211 O209 1.255 . S
C211 O212 1.247 1_655 S
O212 C211 1.247 1_455 S
C213 O225 1.242 . S
C213 O226 1.258 . S
C214 C210 1.503 . S
C214 C215 1.379 . S
C214 C219 1.392 . S
C215 C214 1.379 . S
C215 C216 1.404 . S
C215 H229 0.929 . S
C216 C215 1.404 . S
C216 C217 1.389 . S
C217 C216 1.389 . S
C217 C218 1.399 . S
C217 H230 0.931 . S
C218 C217 1.399 . S
C218 C219 1.390 . S
C219 C214 1.392 . S
C219 C218 1.390 . S
C219 H231 0.929 . S
O220 Tb204 2.326 . S
O220 C208 1.242 . S
O221 Eu205 2.324 . S
O221 C208 1.258 . S
O222 Tb204 2.500 . S
O222 C224 1.273 . S
O223 Tb204 2.473 . S
O223 C224 1.257 . S
C224 O222 1.273 . S
C224 O223 1.257 . S
O225 Eu205 2.326 . S
O225 C213 1.242 . S
O226 Tb204 2.324 . S
O226 C213 1.258 . S
O227 Eu205 2.500 1_655 S
O227 C210 1.273 . S
O228 Eu205 2.473 1_655 S
O228 C210 1.257 . S
H229 C215 0.929 . S
H230 C217 0.931 . S
H231 C219 0.929 . S
O232 Tb233 2.292 . S
O232 C235 1.255 . S
Tb233 O232 2.292 . S
Tb233 O249 2.326 . S
Tb233 O251 2.500 . S
Tb233 O252 2.473 . S
Tb233 O255 2.324 . S
Eu234 O238 2.292 . S
Eu234 C239 2.852 . S
Eu234 O250 2.324 . S
Eu234 O254 2.326 . S
Eu234 O256 2.500 . S
Eu234 O257 2.473 . S
C235 O232 1.255 . S
C235 O236 1.247 . S
O236 C235 1.247 . S
C237 O249 1.242 . S
C237 O250 1.258 . S
O238 Eu234 2.292 . S
O238 C240 1.255 . S
C239 Eu234 2.852 . S
C239 C243 1.503 . S
C239 O256 1.273 . S
C239 O257 1.257 . S
C240 O238 1.255 . S
C240 O241 1.247 . S
O241 C240 1.247 . S
C242 O254 1.242 . S
C242 O255 1.258 . S
C243 C239 1.503 . S
C243 C244 1.379 . S
C243 C248 1.392 . S
C244 C243 1.379 . S
C244 C245 1.404 . S
C244 H258 0.929 . S
C245 C244 1.404 . S
C245 C246 1.389 . S
C246 C245 1.389 . S
C246 C247 1.399 . S
C246 H259 0.931 . S
C247 C246 1.399 . S
C247 C248 1.390 . S
C248 C243 1.392 . S
C248 C247 1.390 . S
C248 H260 0.929 . S
O249 Tb233 2.326 . S
O249 C237 1.242 . S
O250 Eu234 2.324 . S
O250 C237 1.258 . S
O251 Tb233 2.500 . S
O251 C253 1.273 . S
O252 Tb233 2.473 . S
O252 C253 1.257 . S
C253 O251 1.273 . S
C253 O252 1.257 . S
O254 Eu234 2.326 . S
O254 C242 1.242 . S
O255 Tb233 2.324 . S
O255 C242 1.258 . S
O256 Eu234 2.500 . S
O256 C239 1.273 . S
O257 Eu234 2.473 . S
O257 C239 1.257 . S
H258 C244 0.929 . S
H259 C246 0.931 . S
H260 C248 0.929 . S
O261 Tb262 2.292 . S
O261 C264 1.255 . S
Tb262 O261 2.292 . S
Tb262 O278 2.326 . S
Tb262 O280 2.500 . S
Tb262 O281 2.473 . S
Tb262 O284 2.324 . S
Eu263 O267 2.292 1_655 S
Eu263 C268 2.852 1_655 S
Eu263 O279 2.324 . S
Eu263 O283 2.326 . S
Eu263 O285 2.500 1_655 S
Eu263 O286 2.473 1_655 S
C264 O261 1.255 . S
C264 O265 1.247 . S
O265 C264 1.247 . S
C266 O278 1.242 . S
C266 O279 1.258 . S
O267 Eu263 2.292 1_455 S
O267 C269 1.255 . S
C268 Eu263 2.852 1_455 S
C268 C272 1.503 . S
C268 O285 1.273 . S
C268 O286 1.257 . S
C269 O267 1.255 . S
C269 O270 1.247 1_455 S
O270 C269 1.247 1_655 S
C271 O283 1.242 . S
C271 O284 1.258 . S
C272 C268 1.503 . S
C272 C273 1.379 . S
C272 C277 1.392 . S
C273 C272 1.379 . S
C273 C274 1.404 . S
C273 H287 0.929 . S
C274 C273 1.404 . S
C274 C275 1.389 . S
C275 C274 1.389 . S
C275 C276 1.399 . S
C275 H288 0.931 . S
C276 C275 1.399 . S
C276 C277 1.390 . S
C277 C272 1.392 . S
C277 C276 1.390 . S
C277 H289 0.929 . S
O278 Tb262 2.326 . S
O278 C266 1.242 . S
O279 Eu263 2.324 . S
O279 C266 1.258 . S
O280 Tb262 2.500 . S
O280 C282 1.273 . S
O281 Tb262 2.473 . S
O281 C282 1.257 . S
C282 O280 1.273 . S
C282 O281 1.257 . S
O283 Eu263 2.326 . S
O283 C271 1.242 . S
O284 Tb262 2.324 . S
O284 C271 1.258 . S
O285 Eu263 2.500 1_455 S
O285 C268 1.273 . S
O286 Eu263 2.473 1_455 S
O286 C268 1.257 . S
H287 C273 0.929 . S
H288 C275 0.931 . S
H289 C277 0.929 . S
O290 Tb291 2.292 . S
O290 C293 1.255 . S
Tb291 O290 2.292 . S
Tb291 O307 2.326 . S
Tb291 O309 2.500 . S
Tb291 O310 2.473 . S
Tb291 O313 2.324 . S
Eu292 O296 2.292 1_455 S
Eu292 C297 2.852 1_455 S
Eu292 O308 2.324 . S
Eu292 O312 2.326 . S
Eu292 O314 2.500 1_455 S
Eu292 O315 2.473 1_455 S
C293 O290 1.255 . S
C293 O294 1.247 . S
O294 C293 1.247 . S
C295 O307 1.242 . S
C295 O308 1.258 . S
O296 Eu292 2.292 1_655 S
O296 C298 1.255 . S
C297 Eu292 2.852 1_655 S
C297 C301 1.503 . S
C297 O314 1.273 . S
C297 O315 1.257 . S
C298 O296 1.255 . S
C298 O299 1.247 1_655 S
O299 C298 1.247 1_455 S
C300 O312 1.242 . S
C300 O313 1.258 . S
C301 C297 1.503 . S
C301 C302 1.379 . S
C301 C306 1.392 . S
C302 C301 1.379 . S
C302 C303 1.404 . S
C302 H316 0.929 . S
C303 C302 1.404 . S
C303 C304 1.389 . S
C304 C303 1.389 . S
C304 C305 1.399 . S
C304 H317 0.931 . S
C305 C304 1.399 . S
C305 C306 1.390 . S
C306 C301 1.392 . S
C306 C305 1.390 . S
C306 H318 0.929 . S
O307 Tb291 2.326 . S
O307 C295 1.242 . S
O308 Eu292 2.324 . S
O308 C295 1.258 . S
O309 Tb291 2.500 . S
O309 C311 1.273 . S
O310 Tb291 2.473 . S
O310 C311 1.257 . S
C311 O309 1.273 . S
C311 O310 1.257 . S
O312 Eu292 2.326 . S
O312 C300 1.242 . S
O313 Tb291 2.324 . S
O313 C300 1.258 . S
O314 Eu292 2.500 1_655 S
O314 C297 1.273 . S
O315 Eu292 2.473 1_655 S
O315 C297 1.257 . S
H316 C302 0.929 . S
H317 C304 0.931 . S
H318 C306 0.929 . S
O319 Tb320 2.292 . S
O319 C322 1.255 . S
Tb320 O319 2.292 . S
Tb320 O336 2.326 . S
Tb320 O338 2.500 . S
Tb320 O339 2.473 . S
Tb320 O342 2.324 . S
Eu321 O325 2.292 . S
Eu321 C326 2.852 . S
Eu321 O337 2.324 . S
Eu321 O341 2.326 . S
Eu321 O343 2.500 . S
Eu321 O344 2.473 . S
C322 O319 1.255 . S
C322 O323 1.247 . S
O323 C322 1.247 . S
C324 O336 1.242 . S
C324 O337 1.258 . S
O325 Eu321 2.292 . S
O325 C327 1.255 . S
C326 Eu321 2.852 . S
C326 C330 1.503 . S
C326 O343 1.273 . S
C326 O344 1.257 . S
C327 O325 1.255 . S
C327 O328 1.247 . S
O328 C327 1.247 . S
C329 O341 1.242 . S
C329 O342 1.258 . S
C330 C326 1.503 . S
C330 C331 1.379 . S
C330 C335 1.392 . S
C331 C330 1.379 . S
C331 C332 1.404 . S
C331 H345 0.929 . S
C332 C331 1.404 . S
C332 C333 1.389 . S
C333 C332 1.389 . S
C333 C334 1.399 . S
C333 H346 0.931 . S
C334 C333 1.399 . S
C334 C335 1.390 . S
C335 C330 1.392 . S
C335 C334 1.390 . S
C335 H347 0.929 . S
O336 Tb320 2.326 . S
O336 C324 1.242 . S
O337 Eu321 2.324 . S
O337 C324 1.258 . S
O338 Tb320 2.500 . S
O338 C340 1.273 . S
O339 Tb320 2.473 . S
O339 C340 1.257 . S
C340 O338 1.273 . S
C340 O339 1.257 . S
O341 Eu321 2.326 . S
O341 C329 1.242 . S
O342 Tb320 2.324 . S
O342 C329 1.258 . S
O343 Eu321 2.500 . S
O343 C326 1.273 . S
O344 Eu321 2.473 . S
O344 C326 1.257 . S
H345 C331 0.929 . S
H346 C333 0.931 . S
H347 C335 0.929 . S
O348 Tb349 2.292 . S
O348 C351 1.255 . S
Tb349 O348 2.292 . S
Tb349 O365 2.326 . S
Tb349 O367 2.500 . S
Tb349 O368 2.473 . S
Tb349 O371 2.324 . S
Eu350 O354 2.292 . S
Eu350 C355 2.852 . S
Eu350 O366 2.324 . S
Eu350 O370 2.326 . S
Eu350 O372 2.500 . S
Eu350 O373 2.473 . S
C351 O348 1.255 . S
C351 O352 1.247 . S
O352 C351 1.247 . S
C353 O365 1.242 . S
C353 O366 1.258 . S
O354 Eu350 2.292 . S
O354 C356 1.255 . S
C355 Eu350 2.852 . S
C355 C359 1.503 . S
C355 O372 1.273 . S
C355 O373 1.257 . S
C356 O354 1.255 . S
C356 O357 1.247 . S
O357 C356 1.247 . S
C358 O370 1.242 . S
C358 O371 1.258 . S
C359 C355 1.503 . S
C359 C360 1.379 . S
C359 C364 1.392 . S
C360 C359 1.379 . S
C360 C361 1.404 . S
C360 H374 0.929 . S
C361 C360 1.404 . S
C361 C362 1.389 . S
C362 C361 1.389 . S
C362 C363 1.399 . S
C362 H375 0.931 . S
C363 C362 1.399 . S
C363 C364 1.390 . S
C364 C359 1.392 . S
C364 C363 1.390 . S
C364 H376 0.929 . S
O365 Tb349 2.326 . S
O365 C353 1.242 . S
O366 Eu350 2.324 . S
O366 C353 1.258 . S
O367 Tb349 2.500 . S
O367 C369 1.273 . S
O368 Tb349 2.473 . S
O368 C369 1.257 . S
C369 O367 1.273 . S
C369 O368 1.257 . S
O370 Eu350 2.326 . S
O370 C358 1.242 . S
O371 Tb349 2.324 . S
O371 C358 1.258 . S
O372 Eu350 2.500 . S
O372 C355 1.273 . S
O373 Eu350 2.473 . S
O373 C355 1.257 . S
H374 C360 0.929 . S
H375 C362 0.931 . S
H376 C364 0.929 . S
O377 Tb378 2.292 . S
O377 C380 1.255 . S
Tb378 O377 2.292 . S
Tb378 O394 2.326 . S
Tb378 O396 2.500 . S
Tb378 O397 2.473 . S
Tb378 O400 2.324 . S
Eu379 O383 2.292 1_455 S
Eu379 C384 2.852 1_455 S
Eu379 O395 2.324 . S
Eu379 O399 2.326 . S
Eu379 O401 2.500 1_455 S
Eu379 O402 2.473 1_455 S
C380 O377 1.255 . S
C380 O381 1.247 . S
O381 C380 1.247 . S
C382 O394 1.242 . S
C382 O395 1.258 . S
O383 Eu379 2.292 1_655 S
O383 C385 1.255 . S
C384 Eu379 2.852 1_655 S
C384 C388 1.503 . S
C384 O401 1.273 . S
C384 O402 1.257 . S
C385 O383 1.255 . S
C385 O386 1.247 1_655 S
O386 C385 1.247 1_455 S
C387 O399 1.242 . S
C387 O400 1.258 . S
C388 C384 1.503 . S
C388 C389 1.379 . S
C388 C393 1.392 . S
C389 C388 1.379 . S
C389 C390 1.404 . S
C389 H403 0.929 . S
C390 C389 1.404 . S
C390 C391 1.389 . S
C391 C390 1.389 . S
C391 C392 1.399 . S
C391 H404 0.931 . S
C392 C391 1.399 . S
C392 C393 1.390 . S
C393 C388 1.392 . S
C393 C392 1.390 . S
C393 H405 0.929 . S
O394 Tb378 2.326 . S
O394 C382 1.242 . S
O395 Eu379 2.324 . S
O395 C382 1.258 . S
O396 Tb378 2.500 . S
O396 C398 1.273 . S
O397 Tb378 2.473 . S
O397 C398 1.257 . S
C398 O396 1.273 . S
C398 O397 1.257 . S
O399 Eu379 2.326 . S
O399 C387 1.242 . S
O400 Tb378 2.324 . S
O400 C387 1.258 . S
O401 Eu379 2.500 1_655 S
O401 C384 1.273 . S
O402 Eu379 2.473 1_655 S
O402 C384 1.257 . S
H403 C389 0.929 . S
H404 C391 0.931 . S
H405 C393 0.929 . S
O406 Tb407 2.292 . S
O406 C409 1.255 . S
Tb407 O406 2.292 . S
Tb407 O423 2.326 . S
Tb407 O425 2.500 . S
Tb407 O426 2.473 . S
Tb407 O429 2.324 . S
Eu408 O412 2.292 1_655 S
Eu408 C413 2.852 1_655 S
Eu408 O424 2.324 . S
Eu408 O428 2.326 . S
Eu408 O430 2.500 1_655 S
Eu408 O431 2.473 1_655 S
C409 O406 1.255 . S
C409 O410 1.247 . S
O410 C409 1.247 . S
C411 O423 1.242 . S
C411 O424 1.258 . S
O412 Eu408 2.292 1_455 S
O412 C414 1.255 . S
C413 Eu408 2.852 1_455 S
C413 C417 1.503 . S
C413 O430 1.273 . S
C413 O431 1.257 . S
C414 O412 1.255 . S
C414 O415 1.247 1_455 S
O415 C414 1.247 1_655 S
C416 O428 1.242 . S
C416 O429 1.258 . S
C417 C413 1.503 . S
C417 C418 1.379 . S
C417 C422 1.392 . S
C418 C417 1.379 . S
C418 C419 1.404 . S
C418 H432 0.929 . S
C419 C418 1.404 . S
C419 C420 1.389 . S
C420 C419 1.389 . S
C420 C421 1.399 . S
C420 H433 0.931 . S
C421 C420 1.399 . S
C421 C422 1.390 . S
C422 C417 1.392 . S
C422 C421 1.390 . S
C422 H434 0.929 . S
O423 Tb407 2.326 . S
O423 C411 1.242 . S
O424 Eu408 2.324 . S
O424 C411 1.258 . S
O425 Tb407 2.500 . S
O425 C427 1.273 . S
O426 Tb407 2.473 . S
O426 C427 1.257 . S
C427 O425 1.273 . S
C427 O426 1.257 . S
O428 Eu408 2.326 . S
O428 C416 1.242 . S
O429 Tb407 2.324 . S
O429 C416 1.258 . S
O430 Eu408 2.500 1_455 S
O430 C413 1.273 . S
O431 Eu408 2.473 1_455 S
O431 C413 1.257 . S
H432 C418 0.929 . S
H433 C420 0.931 . S
H434 C422 0.929 . S
O435 Tb436 2.292 . S
O435 C438 1.255 . S
Tb436 O435 2.292 . S
Tb436 O452 2.326 . S
Tb436 O454 2.500 . S
Tb436 O455 2.473 . S
Tb436 O458 2.324 . S
Eu437 O441 2.292 . S
Eu437 C442 2.852 . S
Eu437 O453 2.324 . S
Eu437 O457 2.326 . S
Eu437 O459 2.500 . S
Eu437 O460 2.473 . S
C438 O435 1.255 . S
C438 O439 1.247 . S
O439 C438 1.247 . S
C440 O452 1.242 . S
C440 O453 1.258 . S
O441 Eu437 2.292 . S
O441 C443 1.255 . S
C442 Eu437 2.852 . S
C442 C446 1.503 . S
C442 O459 1.273 . S
C442 O460 1.257 . S
C443 O441 1.255 . S
C443 O444 1.247 . S
O444 C443 1.247 . S
C445 O457 1.242 . S
C445 O458 1.258 . S
C446 C442 1.503 . S
C446 C447 1.379 . S
C446 C451 1.392 . S
C447 C446 1.379 . S
C447 C448 1.404 . S
C447 H461 0.929 . S
C448 C447 1.404 . S
C448 C449 1.389 . S
C449 C448 1.389 . S
C449 C450 1.399 . S
C449 H462 0.931 . S
C450 C449 1.399 . S
C450 C451 1.390 . S
C451 C446 1.392 . S
C451 C450 1.390 . S
C451 H463 0.929 . S
O452 Tb436 2.326 . S
O452 C440 1.242 . S
O453 Eu437 2.324 . S
O453 C440 1.258 . S
O454 Tb436 2.500 . S
O454 C456 1.273 . S
O455 Tb436 2.473 . S
O455 C456 1.257 . S
C456 O454 1.273 . S
C456 O455 1.257 . S
O457 Eu437 2.326 . S
O457 C445 1.242 . S
O458 Tb436 2.324 . S
O458 C445 1.258 . S
O459 Eu437 2.500 . S
O459 C442 1.273 . S
O460 Eu437 2.473 . S
O460 C442 1.257 . S
H461 C447 0.929 . S
H462 C449 0.931 . S
H463 C451 0.929 . S
H464 C482 0.951 . S
H465 C484 0.951 . S
H466 C486 0.950 . S
H467 C487 0.950 . S
H468 C489 0.950 . S
H469 C492 0.950 . S
H470 C493 0.950 . S
H471 C495 0.950 . S
H472 C496 0.950 . S
H473 C497 0.951 . S
H474 C499 0.951 . S
H475 C501 0.950 . S
H476 C502 0.950 . S
H477 C504 0.950 . S
H478 C507 0.950 . S
H479 C508 0.950 . S
H480 C510 0.950 . S
H481 C511 0.950 . S
C482 H464 0.951 . S
C482 C483 1.366 . S
C482 C484 1.388 . S
C483 C482 1.366 . S
C483 C487 1.385 . S
C484 H465 0.951 . S
C484 C482 1.388 . S
C484 C485 1.366 . S
C485 C484 1.366 . S
C485 C486 1.414 . S
C485 C488 1.499 . S
C486 H466 0.950 . S
C486 C485 1.414 . S
C486 C487 1.374 . S
C487 H467 0.950 . S
C487 C483 1.385 . S
C487 C486 1.374 . S
C488 C485 1.499 . S
C488 C489 1.373 . S
C488 C490 1.389 . S
C489 H468 0.950 . S
C489 C488 1.373 . S
C489 C505 1.377 . S
C490 C488 1.389 . S
C490 C491 1.524 . S
C490 C504 1.377 . S
C491 C490 1.524 . S
C491 C492 1.397 . S
C491 C496 1.363 . S
C492 H469 0.950 . S
C492 C491 1.397 . S
C492 C493 1.334 . S
C493 H470 0.950 . S
C493 C492 1.334 . S
C493 C494 1.287 . S
C494 C493 1.287 . S
C494 C495 1.524 . S
C494 H513 0.913 . S
C495 H471 0.950 . S
C495 C494 1.524 . S
C495 C496 1.415 . S
C496 H472 0.950 . S
C496 C491 1.363 . S
C496 C495 1.415 . S
C497 H473 0.951 . S
C497 C498 1.366 . S
C497 C499 1.388 . S
C498 C497 1.366 . S
C498 C502 1.385 . S
C499 H474 0.951 . S
C499 C497 1.388 . S
C499 C500 1.366 . S
C500 C499 1.366 . S
C500 C501 1.414 . S
C500 C503 1.499 . S
C501 H475 0.950 . S
C501 C500 1.414 . S
C501 C502 1.374 . S
C502 H476 0.950 . S
C502 C498 1.385 . S
C502 C501 1.374 . S
C503 C500 1.499 . S
C503 C504 1.373 . S
C503 C505 1.389 . S
C504 H477 0.950 . S
C504 C490 1.377 . S
C504 C503 1.373 . S
C505 C489 1.377 . S
C505 C503 1.389 . S
C505 C506 1.524 . S
C506 C505 1.524 . S
C506 C507 1.397 . S
C506 C511 1.363 . S
C507 H478 0.950 . S
C507 C506 1.397 . S
C507 C508 1.334 . S
C508 H479 0.950 . S
C508 C507 1.334 . S
C508 C509 1.287 . S
C509 C508 1.287 . S
C509 C510 1.524 . S
C509 H512 0.999 . S
C510 H480 0.950 . S
C510 C509 1.524 . S
C510 C511 1.415 . S
C511 H481 0.950 . S
C511 C506 1.363 . S
C511 C510 1.415 . S
H512 C509 0.999 . S
H513 C494 0.913 . S
H514 C532 0.951 . S
H515 C534 0.951 . S
H516 C536 0.950 . S
H517 C537 0.950 . S
H518 C539 0.950 . S
H519 C542 0.950 . S
H520 C543 0.950 . S
H521 C545 0.950 . S
H522 C546 0.950 . S
H523 C547 0.951 . S
H524 C549 0.951 . S
H525 C551 0.950 . S
H526 C552 0.950 . S
H527 C554 0.950 . S
H528 C557 0.950 . S
H529 C558 0.950 . S
H530 C560 0.950 . S
H531 C561 0.950 . S
C532 H514 0.951 . S
C532 C533 1.366 . S
C532 C534 1.388 . S
C533 C532 1.366 . S
C533 C537 1.385 . S
C534 H515 0.951 . S
C534 C532 1.388 . S
C534 C535 1.366 . S
C535 C534 1.366 . S
C535 C536 1.414 . S
C535 C538 1.499 . S
C536 H516 0.950 . S
C536 C535 1.414 . S
C536 C537 1.374 . S
C537 H517 0.950 . S
C537 C533 1.385 . S
C537 C536 1.374 . S
C538 C535 1.499 . S
C538 C539 1.373 . S
C538 C540 1.389 . S
C539 H518 0.950 . S
C539 C538 1.373 . S
C539 C555 1.377 1_455 S
C540 C538 1.389 . S
C540 C541 1.524 . S
C540 C554 1.377 1_455 S
C541 C540 1.524 . S
C541 C542 1.397 . S
C541 C546 1.363 . S
C542 H519 0.950 . S
C542 C541 1.397 . S
C542 C543 1.334 . S
C543 H520 0.950 . S
C543 C542 1.334 . S
C543 C544 1.287 . S
C544 C543 1.287 . S
C544 C545 1.524 . S
C544 H563 0.913 . S
C545 H521 0.950 . S
C545 C544 1.524 . S
C545 C546 1.415 . S
C546 H522 0.950 . S
C546 C541 1.363 . S
C546 C545 1.415 . S
C547 H523 0.951 . S
C547 C548 1.366 . S
C547 C549 1.388 . S
C548 C547 1.366 . S
C548 C552 1.385 . S
C549 H524 0.951 . S
C549 C547 1.388 . S
C549 C550 1.366 . S
C550 C549 1.366 . S
C550 C551 1.414 . S
C550 C553 1.499 . S
C551 H525 0.950 . S
C551 C550 1.414 . S
C551 C552 1.374 . S
C552 H526 0.950 . S
C552 C548 1.385 . S
C552 C551 1.374 . S
C553 C550 1.499 . S
C553 C554 1.373 . S
C553 C555 1.389 . S
C554 H527 0.950 . S
C554 C540 1.377 1_655 S
C554 C553 1.373 . S
C555 C539 1.377 1_655 S
C555 C553 1.389 . S
C555 C556 1.524 . S
C556 C555 1.524 . S
C556 C557 1.397 . S
C556 C561 1.363 . S
C557 H528 0.950 . S
C557 C556 1.397 . S
C557 C558 1.334 . S
C558 H529 0.950 . S
C558 C557 1.334 . S
C558 C559 1.287 . S
C559 C558 1.287 . S
C559 C560 1.524 . S
C559 H562 0.999 . S
C560 H530 0.950 . S
C560 C559 1.524 . S
C560 C561 1.415 . S
C561 H531 0.950 . S
C561 C556 1.363 . S
C561 C560 1.415 . S
H562 C559 0.999 . S
H563 C544 0.913 . S
H564 C582 0.951 . S
H565 C584 0.951 . S
H566 C586 0.950 . S
H567 C587 0.950 . S
H568 C589 0.950 . S
H569 C592 0.950 . S
H570 C593 0.950 . S
H571 C595 0.950 . S
H572 C596 0.950 . S
H573 C597 0.951 . S
H574 C599 0.951 . S
H575 C601 0.950 . S
H576 C602 0.950 . S
H577 C604 0.950 . S
H578 C607 0.950 . S
H579 C608 0.950 . S
H580 C610 0.950 . S
H581 C611 0.950 1_655 S
C582 H564 0.951 . S
C582 C583 1.366 . S
C582 C584 1.388 . S
C583 C582 1.366 . S
C583 C587 1.385 . S
C584 H565 0.951 . S
C584 C582 1.388 . S
C584 C585 1.366 . S
C585 C584 1.366 . S
C585 C586 1.414 . S
C585 C588 1.499 . S
C586 H566 0.950 . S
C586 C585 1.414 . S
C586 C587 1.374 . S
C587 H567 0.950 . S
C587 C583 1.385 . S
C587 C586 1.374 . S
C588 C585 1.499 . S
C588 C589 1.373 . S
C588 C590 1.389 . S
C589 H568 0.950 . S
C589 C588 1.373 . S
C589 C605 1.377 1_655 S
C590 C588 1.389 . S
C590 C591 1.524 . S
C590 C604 1.377 1_655 S
C591 C590 1.524 . S
C591 C592 1.397 . S
C591 C596 1.363 . S
C592 H569 0.950 . S
C592 C591 1.397 . S
C592 C593 1.334 . S
C593 H570 0.950 . S
C593 C592 1.334 . S
C593 C594 1.287 . S
C594 C593 1.287 . S
C594 C595 1.524 . S
C594 H613 0.913 . S
C595 H571 0.950 . S
C595 C594 1.524 . S
C595 C596 1.415 . S
C596 H572 0.950 . S
C596 C591 1.363 . S
C596 C595 1.415 . S
C597 H573 0.951 . S
C597 C598 1.366 . S
C597 C599 1.388 . S
C598 C597 1.366 . S
C598 C602 1.385 . S
C599 H574 0.951 . S
C599 C597 1.388 . S
C599 C600 1.366 . S
C600 C599 1.366 . S
C600 C601 1.414 . S
C600 C603 1.499 . S
C601 H575 0.950 . S
C601 C600 1.414 . S
C601 C602 1.374 . S
C602 H576 0.950 . S
C602 C598 1.385 . S
C602 C601 1.374 . S
C603 C600 1.499 . S
C603 C604 1.373 . S
C603 C605 1.389 . S
C604 H577 0.950 . S
C604 C590 1.377 1_455 S
C604 C603 1.373 . S
C605 C589 1.377 1_455 S
C605 C603 1.389 . S
C605 C606 1.524 . S
C606 C605 1.524 . S
C606 C607 1.397 . S
C606 C611 1.363 . S
C607 H578 0.950 . S
C607 C606 1.397 . S
C607 C608 1.334 . S
C608 H579 0.950 . S
C608 C607 1.334 . S
C608 C609 1.287 . S
C609 C608 1.287 . S
C609 C610 1.524 . S
C609 H612 0.999 . S
C610 H580 0.950 . S
C610 C609 1.524 . S
C610 C611 1.415 . S
C611 H581 0.950 1_455 S
C611 C606 1.363 . S
C611 C610 1.415 . S
H612 C609 0.999 . S
H613 C594 0.913 . S
H614 C632 0.951 . S
H615 C634 0.951 . S
H616 C636 0.950 . S
H617 C637 0.950 . S
H618 C639 0.950 . S
H619 C642 0.950 . S
H620 C643 0.950 . S
H621 C645 0.950 . S
H622 C646 0.950 . S
H623 C647 0.951 . S
H624 C649 0.951 . S
H625 C651 0.950 . S
H626 C652 0.950 . S
H627 C654 0.950 . S
H628 C657 0.950 . S
H629 C658 0.950 . S
H630 C660 0.950 . S
H631 C661 0.950 . S
C632 H614 0.951 . S
C632 C633 1.366 . S
C632 C634 1.388 . S
C633 C632 1.366 . S
C633 C637 1.385 . S
C634 H615 0.951 . S
C634 C632 1.388 . S
C634 C635 1.366 . S
C635 C634 1.366 . S
C635 C636 1.414 . S
C635 C638 1.499 . S
C636 H616 0.950 . S
C636 C635 1.414 . S
C636 C637 1.374 . S
C637 H617 0.950 . S
C637 C633 1.385 . S
C637 C636 1.374 . S
C638 C635 1.499 . S
C638 C639 1.373 . S
C638 C640 1.389 . S
C639 H618 0.950 . S
C639 C638 1.373 . S
C639 C655 1.377 . S
C640 C638 1.389 . S
C640 C641 1.524 . S
C640 C654 1.377 . S
C641 C640 1.524 . S
C641 C642 1.397 . S
C641 C646 1.363 . S
C642 H619 0.950 . S
C642 C641 1.397 . S
C642 C643 1.334 . S
C643 H620 0.950 . S
C643 C642 1.334 . S
C643 C644 1.287 . S
C644 C643 1.287 . S
C644 C645 1.524 . S
C644 H663 0.913 . S
C645 H621 0.950 . S
C645 C644 1.524 . S
C645 C646 1.415 . S
C646 H622 0.950 . S
C646 C641 1.363 . S
C646 C645 1.415 . S
C647 H623 0.951 . S
C647 C648 1.366 . S
C647 C649 1.388 . S
C648 C647 1.366 . S
C648 C652 1.385 . S
C649 H624 0.951 . S
C649 C647 1.388 . S
C649 C650 1.366 . S
C650 C649 1.366 . S
C650 C651 1.414 . S
C650 C653 1.499 . S
C651 H625 0.950 . S
C651 C650 1.414 . S
C651 C652 1.374 . S
C652 H626 0.950 . S
C652 C648 1.385 . S
C652 C651 1.374 . S
C653 C650 1.499 . S
C653 C654 1.373 . S
C653 C655 1.389 . S
C654 H627 0.950 . S
C654 C640 1.377 . S
C654 C653 1.373 . S
C655 C639 1.377 . S
C655 C653 1.389 . S
C655 C656 1.524 . S
C656 C655 1.524 . S
C656 C657 1.397 . S
C656 C661 1.363 . S
C657 H628 0.950 . S
C657 C656 1.397 . S
C657 C658 1.334 . S
C658 H629 0.950 . S
C658 C657 1.334 . S
C658 C659 1.287 . S
C659 C658 1.287 . S
C659 C660 1.524 . S
C659 H662 0.999 . S
C660 H630 0.950 . S
C660 C659 1.524 . S
C660 C661 1.415 . S
C661 H631 0.950 . S
C661 C656 1.363 . S
C661 C660 1.415 . S
H662 C659 0.999 . S
H663 C644 0.913 . S
H664 C682 0.951 . S
H665 C684 0.951 . S
H666 C686 0.950 . S
H667 C687 0.950 . S
H668 C689 0.950 . S
H669 C692 0.950 . S
H670 C693 0.950 . S
H671 C695 0.950 . S
H672 C696 0.950 . S
H673 C697 0.951 . S
H674 C699 0.951 . S
H675 C701 0.950 . S
H676 C702 0.950 . S
H677 C704 0.950 . S
H678 C707 0.950 . S
H679 C708 0.950 . S
H680 C710 0.950 . S
H681 C711 0.950 . S
C682 H664 0.951 . S
C682 C683 1.366 . S
C682 C684 1.388 . S
C683 C682 1.366 . S
C683 C687 1.385 . S
C684 H665 0.951 . S
C684 C682 1.388 . S
C684 C685 1.366 . S
C685 C684 1.366 . S
C685 C686 1.414 . S
C685 C688 1.499 . S
C686 H666 0.950 . S
C686 C685 1.414 . S
C686 C687 1.374 . S
C687 H667 0.950 . S
C687 C683 1.385 . S
C687 C686 1.374 . S
C688 C685 1.499 . S
C688 C689 1.373 . S
C688 C690 1.389 . S
C689 H668 0.950 . S
C689 C688 1.373 . S
C689 C705 1.377 . S
C690 C688 1.389 . S
C690 C691 1.524 . S
C690 C704 1.377 . S
C691 C690 1.524 . S
C691 C692 1.397 . S
C691 C696 1.363 . S
C692 H669 0.950 . S
C692 C691 1.397 . S
C692 C693 1.334 . S
C693 H670 0.950 . S
C693 C692 1.334 . S
C693 C694 1.287 . S
C694 C693 1.287 . S
C694 C695 1.524 . S
C694 H713 0.913 . S
C695 H671 0.950 . S
C695 C694 1.524 . S
C695 C696 1.415 . S
C696 H672 0.950 . S
C696 C691 1.363 . S
C696 C695 1.415 . S
C697 H673 0.951 . S
C697 C698 1.366 . S
C697 C699 1.388 . S
C698 C697 1.366 . S
C698 C702 1.385 . S
C699 H674 0.951 . S
C699 C697 1.388 . S
C699 C700 1.366 . S
C700 C699 1.366 . S
C700 C701 1.414 . S
C700 C703 1.499 . S
C701 H675 0.950 . S
C701 C700 1.414 . S
C701 C702 1.374 . S
C702 H676 0.950 . S
C702 C698 1.385 . S
C702 C701 1.374 . S
C703 C700 1.499 . S
C703 C704 1.373 . S
C703 C705 1.389 . S
C704 H677 0.950 . S
C704 C690 1.377 . S
C704 C703 1.373 . S
C705 C689 1.377 . S
C705 C703 1.389 . S
C705 C706 1.524 . S
C706 C705 1.524 . S
C706 C707 1.397 . S
C706 C711 1.363 . S
C707 H678 0.950 . S
C707 C706 1.397 . S
C707 C708 1.334 . S
C708 H679 0.950 . S
C708 C707 1.334 . S
C708 C709 1.287 . S
C709 C708 1.287 . S
C709 C710 1.524 . S
C709 H712 0.999 . S
C710 H680 0.950 . S
C710 C709 1.524 . S
C710 C711 1.415 . S
C711 H681 0.950 . S
C711 C706 1.363 . S
C711 C710 1.415 . S
H712 C709 0.999 . S
H713 C694 0.913 . S
H714 C732 0.951 . S
H715 C734 0.951 . S
H716 C736 0.950 . S
H717 C737 0.950 . S
H718 C739 0.950 . S
H719 C742 0.950 . S
H720 C743 0.950 . S
H721 C745 0.950 . S
H722 C746 0.950 1_655 S
H723 C747 0.951 . S
H724 C749 0.951 . S
H725 C751 0.950 . S
H726 C752 0.950 . S
H727 C754 0.950 . S
H728 C757 0.950 . S
H729 C758 0.950 . S
H730 C760 0.950 . S
H731 C761 0.950 . S
C732 H714 0.951 . S
C732 C733 1.366 . S
C732 C734 1.388 . S
C733 C732 1.366 . S
C733 C737 1.385 . S
C734 H715 0.951 . S
C734 C732 1.388 . S
C734 C735 1.366 . S
C735 C734 1.366 . S
C735 C736 1.414 . S
C735 C738 1.499 . S
C736 H716 0.950 . S
C736 C735 1.414 . S
C736 C737 1.374 . S
C737 H717 0.950 . S
C737 C733 1.385 . S
C737 C736 1.374 . S
C738 C735 1.499 . S
C738 C739 1.373 . S
C738 C740 1.389 . S
C739 H718 0.950 . S
C739 C738 1.373 . S
C739 C755 1.377 1_455 S
C740 C738 1.389 . S
C740 C741 1.524 . S
C740 C754 1.377 1_455 S
C741 C740 1.524 . S
C741 C742 1.397 . S
C741 C746 1.363 . S
C742 H719 0.950 . S
C742 C741 1.397 . S
C742 C743 1.334 . S
C743 H720 0.950 . S
C743 C742 1.334 . S
C743 C744 1.287 . S
C744 C743 1.287 . S
C744 C745 1.524 . S
C744 H763 0.913 . S
C745 H721 0.950 . S
C745 C744 1.524 . S
C745 C746 1.415 . S
C746 H722 0.950 1_455 S
C746 C741 1.363 . S
C746 C745 1.415 . S
C747 H723 0.951 . S
C747 C748 1.366 . S
C747 C749 1.388 . S
C748 C747 1.366 . S
C748 C752 1.385 . S
C749 H724 0.951 . S
C749 C747 1.388 . S
C749 C750 1.366 . S
C750 C749 1.366 . S
C750 C751 1.414 . S
C750 C753 1.499 . S
C751 H725 0.950 . S
C751 C750 1.414 . S
C751 C752 1.374 . S
C752 H726 0.950 . S
C752 C748 1.385 . S
C752 C751 1.374 . S
C753 C750 1.499 . S
C753 C754 1.373 . S
C753 C755 1.389 . S
C754 H727 0.950 . S
C754 C740 1.377 1_655 S
C754 C753 1.373 . S
C755 C739 1.377 1_655 S
C755 C753 1.389 . S
C755 C756 1.524 . S
C756 C755 1.524 . S
C756 C757 1.397 . S
C756 C761 1.363 . S
C757 H728 0.950 . S
C757 C756 1.397 . S
C757 C758 1.334 . S
C758 H729 0.950 . S
C758 C757 1.334 . S
C758 C759 1.287 . S
C759 C758 1.287 . S
C759 C760 1.524 . S
C759 H762 0.999 . S
C760 H730 0.950 . S
C760 C759 1.524 . S
C760 C761 1.415 . S
C761 H731 0.950 . S
C761 C756 1.363 . S
C761 C760 1.415 . S
H762 C759 0.999 . S
H763 C744 0.913 . S
H764 C782 0.951 . S
H765 C784 0.951 . S
H766 C786 0.950 . S
H767 C787 0.950 . S
H768 C789 0.950 . S
H769 C792 0.950 . S
H770 C793 0.950 . S
H771 C795 0.950 . S
H772 C796 0.950 . S
H773 C797 0.951 . S
H774 C799 0.951 . S
H775 C801 0.950 . S
H776 C802 0.950 . S
H777 C804 0.950 . S
H778 C807 0.950 . S
H779 C808 0.950 . S
H780 C810 0.950 . S
H781 C811 0.950 . S
C782 H764 0.951 . S
C782 C783 1.366 . S
C782 C784 1.388 . S
C783 C782 1.366 . S
C783 C787 1.385 . S
C784 H765 0.951 . S
C784 C782 1.388 . S
C784 C785 1.366 . S
C785 C784 1.366 . S
C785 C786 1.414 . S
C785 C788 1.499 . S
C786 H766 0.950 . S
C786 C785 1.414 . S
C786 C787 1.374 . S
C787 H767 0.950 . S
C787 C783 1.385 . S
C787 C786 1.374 . S
C788 C785 1.499 . S
C788 C789 1.373 . S
C788 C790 1.389 . S
C789 H768 0.950 . S
C789 C788 1.373 . S
C789 C805 1.377 1_655 S
C790 C788 1.389 . S
C790 C791 1.524 . S
C790 C804 1.377 1_655 S
C791 C790 1.524 . S
C791 C792 1.397 . S
C791 C796 1.363 . S
C792 H769 0.950 . S
C792 C791 1.397 . S
C792 C793 1.334 . S
C793 H770 0.950 . S
C793 C792 1.334 . S
C793 C794 1.287 . S
C794 C793 1.287 . S
C794 C795 1.524 . S
C794 H813 0.913 . S
C795 H771 0.950 . S
C795 C794 1.524 . S
C795 C796 1.415 . S
C796 H772 0.950 . S
C796 C791 1.363 . S
C796 C795 1.415 . S
C797 H773 0.951 . S
C797 C798 1.366 . S
C797 C799 1.388 . S
C798 C797 1.366 . S
C798 C802 1.385 . S
C799 H774 0.951 . S
C799 C797 1.388 . S
C799 C800 1.366 . S
C800 C799 1.366 . S
C800 C801 1.414 . S
C800 C803 1.499 . S
C801 H775 0.950 . S
C801 C800 1.414 . S
C801 C802 1.374 . S
C802 H776 0.950 . S
C802 C798 1.385 . S
C802 C801 1.374 . S
C803 C800 1.499 . S
C803 C804 1.373 . S
C803 C805 1.389 . S
C804 H777 0.950 . S
C804 C790 1.377 1_455 S
C804 C803 1.373 . S
C805 C789 1.377 1_455 S
C805 C803 1.389 . S
C805 C806 1.524 . S
C806 C805 1.524 . S
C806 C807 1.397 . S
C806 C811 1.363 . S
C807 H778 0.950 . S
C807 C806 1.397 . S
C807 C808 1.334 . S
C808 H779 0.950 . S
C808 C807 1.334 . S
C808 C809 1.287 . S
C809 C808 1.287 . S
C809 C810 1.524 . S
C809 H812 0.999 . S
C810 H780 0.950 . S
C810 C809 1.524 . S
C810 C811 1.415 . S
C811 H781 0.950 . S
C811 C806 1.363 . S
C811 C810 1.415 . S
H812 C809 0.999 . S
H813 C794 0.913 . S
H814 C832 0.951 . S
H815 C834 0.951 . S
H816 C836 0.950 . S
H817 C837 0.950 . S
H818 C839 0.950 . S
H819 C842 0.950 . S
H820 C843 0.950 . S
H821 C845 0.950 . S
H822 C846 0.950 . S
H823 C847 0.951 . S
H824 C849 0.951 . S
H825 C851 0.950 . S
H826 C852 0.950 . S
H827 C854 0.950 . S
H828 C857 0.950 . S
H829 C858 0.950 . S
H830 C860 0.950 . S
H831 C861 0.950 . S
C832 H814 0.951 . S
C832 C833 1.366 . S
C832 C834 1.388 . S
C833 C832 1.366 . S
C833 C837 1.385 . S
C834 H815 0.951 . S
C834 C832 1.388 . S
C834 C835 1.366 . S
C835 C834 1.366 . S
C835 C836 1.414 . S
C835 C838 1.499 . S
C836 H816 0.950 . S
C836 C835 1.414 . S
C836 C837 1.374 . S
C837 H817 0.950 . S
C837 C833 1.385 . S
C837 C836 1.374 . S
C838 C835 1.499 . S
C838 C839 1.373 . S
C838 C840 1.389 . S
C839 H818 0.950 . S
C839 C838 1.373 . S
C839 C855 1.377 . S
C840 C838 1.389 . S
C840 C841 1.524 . S
C840 C854 1.377 . S
C841 C840 1.524 . S
C841 C842 1.397 . S
C841 C846 1.363 . S
C842 H819 0.950 . S
C842 C841 1.397 . S
C842 C843 1.334 . S
C843 H820 0.950 . S
C843 C842 1.334 . S
C843 C844 1.287 . S
C844 C843 1.287 . S
C844 C845 1.524 . S
C844 H863 0.913 . S
C845 H821 0.950 . S
C845 C844 1.524 . S
C845 C846 1.415 . S
C846 H822 0.950 . S
C846 C841 1.363 . S
C846 C845 1.415 . S
C847 H823 0.951 . S
C847 C848 1.366 . S
C847 C849 1.388 . S
C848 C847 1.366 . S
C848 C852 1.385 . S
C849 H824 0.951 . S
C849 C847 1.388 . S
C849 C850 1.366 . S
C850 C849 1.366 . S
C850 C851 1.414 . S
C850 C853 1.499 . S
C851 H825 0.950 . S
C851 C850 1.414 . S
C851 C852 1.374 . S
C852 H826 0.950 . S
C852 C848 1.385 . S
C852 C851 1.374 . S
C853 C850 1.499 . S
C853 C854 1.373 . S
C853 C855 1.389 . S
C854 H827 0.950 . S
C854 C840 1.377 . S
C854 C853 1.373 . S
C855 C839 1.377 . S
C855 C853 1.389 . S
C855 C856 1.524 . S
C856 C855 1.524 . S
C856 C857 1.397 . S
C856 C861 1.363 . S
C857 H828 0.950 . S
C857 C856 1.397 . S
C857 C858 1.334 . S
C858 H829 0.950 . S
C858 C857 1.334 . S
C858 C859 1.287 . S
C859 C858 1.287 . S
C859 C860 1.524 . S
C859 H862 0.999 . S
C860 H830 0.950 . S
C860 C859 1.524 . S
C860 C861 1.415 . S
C861 H831 0.950 . S
C861 C856 1.363 . S
C861 C860 1.415 . S
H862 C859 0.999 . S
H863 C844 0.913 . S
H864 C882 0.951 . S
H865 C884 0.951 . S
H866 C886 0.950 . S
H867 C887 0.950 . S
H868 C889 0.950 . S
H869 C892 0.950 . S
H870 C893 0.950 . S
H871 C895 0.950 . S
H872 C896 0.950 . S
H873 C897 0.951 . S
H874 C899 0.951 . S
H875 C901 0.950 . S
H876 C902 0.950 . S
H877 C904 0.950 . S
H878 C907 0.950 . S
H879 C908 0.950 . S
H880 C910 0.950 . S
H881 C911 0.950 . S
C882 H864 0.951 . S
C882 C883 1.366 . S
C882 C884 1.388 . S
C883 C882 1.366 . S
C883 C887 1.385 . S
C884 H865 0.951 . S
C884 C882 1.388 . S
C884 C885 1.366 . S
C885 C884 1.366 . S
C885 C886 1.414 . S
C885 C888 1.499 . S
C886 H866 0.950 . S
C886 C885 1.414 . S
C886 C887 1.374 . S
C887 H867 0.950 . S
C887 C883 1.385 . S
C887 C886 1.374 . S
C888 C885 1.499 . S
C888 C889 1.373 . S
C888 C890 1.389 . S
C889 H868 0.950 . S
C889 C888 1.373 . S
C889 C905 1.377 1_655 S
C890 C888 1.389 . S
C890 C891 1.524 . S
C890 C904 1.377 1_655 S
C891 C890 1.524 . S
C891 C892 1.397 . S
C891 C896 1.363 . S
C892 H869 0.950 . S
C892 C891 1.397 . S
C892 C893 1.334 . S
C893 H870 0.950 . S
C893 C892 1.334 . S
C893 C894 1.287 . S
C894 C893 1.287 . S
C894 C895 1.524 . S
C894 H913 0.913 . S
C895 H871 0.950 . S
C895 C894 1.524 . S
C895 C896 1.415 . S
C896 H872 0.950 . S
C896 C891 1.363 . S
C896 C895 1.415 . S
C897 H873 0.951 . S
C897 C898 1.366 . S
C897 C899 1.388 . S
C898 C897 1.366 . S
C898 C902 1.385 . S
C899 H874 0.951 . S
C899 C897 1.388 . S
C899 C900 1.366 . S
C900 C899 1.366 . S
C900 C901 1.414 . S
C900 C903 1.499 . S
C901 H875 0.950 . S
C901 C900 1.414 . S
C901 C902 1.374 . S
C902 H876 0.950 . S
C902 C898 1.385 . S
C902 C901 1.374 . S
C903 C900 1.499 . S
C903 C904 1.373 . S
C903 C905 1.389 . S
C904 H877 0.950 . S
C904 C890 1.377 1_455 S
C904 C903 1.373 . S
C905 C889 1.377 1_455 S
C905 C903 1.389 . S
C905 C906 1.524 . S
C906 C905 1.524 . S
C906 C907 1.397 . S
C906 C911 1.363 . S
C907 H878 0.950 . S
C907 C906 1.397 . S
C907 C908 1.334 . S
C908 H879 0.950 . S
C908 C907 1.334 . S
C908 C909 1.287 . S
C909 C908 1.287 . S
C909 C910 1.524 . S
C909 H912 0.999 . S
C910 H880 0.950 . S
C910 C909 1.524 . S
C910 C911 1.415 . S
C911 H881 0.950 . S
C911 C906 1.363 . S
C911 C910 1.415 . S
H912 C909 0.999 . S
H913 C894 0.913 . S
H914 C932 0.951 . S
H915 C934 0.951 . S
H916 C936 0.950 . S
H917 C937 0.950 . S
H918 C939 0.950 . S
H919 C942 0.950 . S
H920 C943 0.950 . S
H921 C945 0.950 . S
H922 C946 0.950 . S
H923 C947 0.951 . S
H924 C949 0.951 . S
H925 C951 0.950 . S
H926 C952 0.950 . S
H927 C954 0.950 . S
H928 C957 0.950 . S
H929 C958 0.950 . S
H930 C960 0.950 . S
H931 C961 0.950 . S
C932 H914 0.951 . S
C932 C933 1.366 . S
C932 C934 1.388 . S
C933 C932 1.366 . S
C933 C937 1.385 . S
C934 H915 0.951 . S
C934 C932 1.388 . S
C934 C935 1.366 . S
C935 C934 1.366 . S
C935 C936 1.414 . S
C935 C938 1.499 . S
C936 H916 0.950 . S
C936 C935 1.414 . S
C936 C937 1.374 . S
C937 H917 0.950 . S
C937 C933 1.385 . S
C937 C936 1.374 . S
C938 C935 1.499 . S
C938 C939 1.373 . S
C938 C940 1.389 . S
C939 H918 0.950 . S
C939 C938 1.373 . S
C939 C955 1.377 . S
C940 C938 1.389 . S
C940 C941 1.524 . S
C940 C954 1.377 . S
C941 C940 1.524 . S
C941 C942 1.397 . S
C941 C946 1.363 . S
C942 H919 0.950 . S
C942 C941 1.397 . S
C942 C943 1.334 . S
C943 H920 0.950 . S
C943 C942 1.334 . S
C943 C944 1.287 . S
C944 C943 1.287 . S
C944 C945 1.524 . S
C944 H963 0.913 . S
C945 H921 0.950 . S
C945 C944 1.524 . S
C945 C946 1.415 . S
C946 H922 0.950 . S
C946 C941 1.363 . S
C946 C945 1.415 . S
C947 H923 0.951 . S
C947 C948 1.366 . S
C947 C949 1.388 . S
C948 C947 1.366 . S
C948 C952 1.385 . S
C949 H924 0.951 . S
C949 C947 1.388 . S
C949 C950 1.366 . S
C950 C949 1.366 . S
C950 C951 1.414 . S
C950 C953 1.499 . S
C951 H925 0.950 . S
C951 C950 1.414 . S
C951 C952 1.374 . S
C952 H926 0.950 . S
C952 C948 1.385 . S
C952 C951 1.374 . S
C953 C950 1.499 . S
C953 C954 1.373 . S
C953 C955 1.389 . S
C954 H927 0.950 . S
C954 C940 1.377 . S
C954 C953 1.373 . S
C955 C939 1.377 . S
C955 C953 1.389 . S
C955 C956 1.524 . S
C956 C955 1.524 . S
C956 C957 1.397 . S
C956 C961 1.363 . S
C957 H928 0.950 . S
C957 C956 1.397 . S
C957 C958 1.334 . S
C958 H929 0.950 . S
C958 C957 1.334 . S
C958 C959 1.287 . S
C959 C958 1.287 . S
C959 C960 1.524 . S
C959 H962 0.999 . S
C960 H930 0.950 . S
C960 C959 1.524 . S
C960 C961 1.415 . S
C961 H931 0.950 . S
C961 C956 1.363 . S
C961 C960 1.415 . S
H962 C959 0.999 . S
H963 C944 0.913 . S
H964 C982 0.951 . S
H965 C984 0.951 . S
H966 C986 0.950 . S
H967 C987 0.950 . S
H968 C989 0.950 . S
H969 C992 0.950 . S
H970 C993 0.950 . S
H971 C995 0.950 . S
H972 C996 0.950 . S
H973 C997 0.951 . S
H974 C999 0.951 . S
H975 C1001 0.950 . S
H976 C1002 0.950 . S
H977 C1004 0.950 . S
H978 C1007 0.950 . S
H979 C1008 0.950 . S
H980 C1010 0.950 . S
H981 C1011 0.950 . S
C982 H964 0.951 . S
C982 C983 1.366 . S
C982 C984 1.388 . S
C983 C982 1.366 . S
C983 C987 1.385 . S
C984 H965 0.951 . S
C984 C982 1.388 . S
C984 C985 1.366 . S
C985 C984 1.366 . S
C985 C986 1.414 . S
C985 C988 1.499 . S
C986 H966 0.950 . S
C986 C985 1.414 . S
C986 C987 1.374 . S
C987 H967 0.950 . S
C987 C983 1.385 . S
C987 C986 1.374 . S
C988 C985 1.499 . S
C988 C989 1.373 . S
C988 C990 1.389 . S
C989 H968 0.950 . S
C989 C988 1.373 . S
C989 C1005 1.377 . S
C990 C988 1.389 . S
C990 C991 1.524 . S
C990 C1004 1.377 . S
C991 C990 1.524 . S
C991 C992 1.397 . S
C991 C996 1.363 . S
C992 H969 0.950 . S
C992 C991 1.397 . S
C992 C993 1.334 . S
C993 H970 0.950 . S
C993 C992 1.334 . S
C993 C994 1.287 . S
C994 C993 1.287 . S
C994 C995 1.524 . S
C994 H1013 0.913 . S
C995 H971 0.950 . S
C995 C994 1.524 . S
C995 C996 1.415 . S
C996 H972 0.950 . S
C996 C991 1.363 . S
C996 C995 1.415 . S
C997 H973 0.951 . S
C997 C998 1.366 . S
C997 C999 1.388 . S
C998 C997 1.366 . S
C998 C1002 1.385 . S
C999 H974 0.951 . S
C999 C997 1.388 . S
C999 C1000 1.366 . S
C1000 C999 1.366 . S
C1000 C1001 1.414 . S
C1000 C1003 1.499 . S
C1001 H975 0.950 . S
C1001 C1000 1.414 . S
C1001 C1002 1.374 . S
C1002 H976 0.950 . S
C1002 C998 1.385 . S
C1002 C1001 1.374 . S
C1003 C1000 1.499 . S
C1003 C1004 1.373 . S
C1003 C1005 1.389 . S
C1004 H977 0.950 . S
C1004 C990 1.377 . S
C1004 C1003 1.373 . S
C1005 C989 1.377 . S
C1005 C1003 1.389 . S
C1005 C1006 1.524 . S
C1006 C1005 1.524 . S
C1006 C1007 1.397 . S
C1006 C1011 1.363 . S
C1007 H978 0.950 . S
C1007 C1006 1.397 . S
C1007 C1008 1.334 . S
C1008 H979 0.950 . S
C1008 C1007 1.334 . S
C1008 C1009 1.287 . S
C1009 C1008 1.287 . S
C1009 C1010 1.524 . S
C1009 H1012 0.999 . S
C1010 H980 0.950 . S
C1010 C1009 1.524 . S
C1010 C1011 1.415 . S
C1011 H981 0.950 . S
C1011 C1006 1.363 . S
C1011 C1010 1.415 . S
H1012 C1009 0.999 . S
H1013 C994 0.913 . S
H1014 C1032 0.951 . S
H1015 C1034 0.951 . S
H1016 C1036 0.950 . S
H1017 C1037 0.950 . S
H1018 C1039 0.950 . S
H1019 C1042 0.950 . S
H1020 C1043 0.950 . S
H1021 C1045 0.950 . S
H1022 C1046 0.950 . S
H1023 C1047 0.951 . S
H1024 C1049 0.951 . S
H1025 C1051 0.950 . S
H1026 C1052 0.950 . S
H1027 C1054 0.950 . S
H1028 C1057 0.950 . S
H1029 C1058 0.950 . S
H1030 C1060 0.950 . S
H1031 C1061 0.950 . S
C1032 H1014 0.951 . S
C1032 C1033 1.366 . S
C1032 C1034 1.388 . S
C1033 C1032 1.366 . S
C1033 C1037 1.385 . S
C1034 H1015 0.951 . S
C1034 C1032 1.388 . S
C1034 C1035 1.366 . S
C1035 C1034 1.366 . S
C1035 C1036 1.414 . S
C1035 C1038 1.499 . S
C1036 H1016 0.950 . S
C1036 C1035 1.414 . S
C1036 C1037 1.374 . S
C1037 H1017 0.950 . S
C1037 C1033 1.385 . S
C1037 C1036 1.374 . S
C1038 C1035 1.499 . S
C1038 C1039 1.373 . S
C1038 C1040 1.389 . S
C1039 H1018 0.950 . S
C1039 C1038 1.373 . S
C1039 C1055 1.377 1_455 S
C1040 C1038 1.389 . S
C1040 C1041 1.524 . S
C1040 C1054 1.377 1_455 S
C1041 C1040 1.524 . S
C1041 C1042 1.397 . S
C1041 C1046 1.363 . S
C1042 H1019 0.950 . S
C1042 C1041 1.397 . S
C1042 C1043 1.334 . S
C1043 H1020 0.950 . S
C1043 C1042 1.334 . S
C1043 C1044 1.287 . S
C1044 C1043 1.287 . S
C1044 C1045 1.524 . S
C1044 H1063 0.913 . S
C1045 H1021 0.950 . S
C1045 C1044 1.524 . S
C1045 C1046 1.415 . S
C1046 H1022 0.950 . S
C1046 C1041 1.363 . S
C1046 C1045 1.415 . S
C1047 H1023 0.951 . S
C1047 C1048 1.366 . S
C1047 C1049 1.388 . S
C1048 C1047 1.366 . S
C1048 C1052 1.385 . S
C1049 H1024 0.951 . S
C1049 C1047 1.388 . S
C1049 C1050 1.366 . S
C1050 C1049 1.366 . S
C1050 C1051 1.414 . S
C1050 C1053 1.499 . S
C1051 H1025 0.950 . S
C1051 C1050 1.414 . S
C1051 C1052 1.374 . S
C1052 H1026 0.950 . S
C1052 C1048 1.385 . S
C1052 C1051 1.374 . S
C1053 C1050 1.499 . S
C1053 C1054 1.373 . S
C1053 C1055 1.389 . S
C1054 H1027 0.950 . S
C1054 C1040 1.377 1_655 S
C1054 C1053 1.373 . S
C1055 C1039 1.377 1_655 S
C1055 C1053 1.389 . S
C1055 C1056 1.524 . S
C1056 C1055 1.524 . S
C1056 C1057 1.397 . S
C1056 C1061 1.363 . S
C1057 H1028 0.950 . S
C1057 C1056 1.397 . S
C1057 C1058 1.334 . S
C1058 H1029 0.950 . S
C1058 C1057 1.334 . S
C1058 C1059 1.287 . S
C1059 C1058 1.287 . S
C1059 C1060 1.524 . S
C1059 H1062 0.999 . S
C1060 H1030 0.950 . S
C1060 C1059 1.524 . S
C1060 C1061 1.415 . S
C1061 H1031 0.950 . S
C1061 C1056 1.363 . S
C1061 C1060 1.415 . S
H1062 C1059 0.999 . S
H1063 C1044 0.913 . S
H1064 C1082 0.951 . S
H1065 C1084 0.951 . S
H1066 C1086 0.950 . S
H1067 C1087 0.950 . S
H1068 C1089 0.950 . S
H1069 C1092 0.950 . S
H1070 C1093 0.950 . S
H1071 C1095 0.950 . S
H1072 C1096 0.950 . S
H1073 C1097 0.951 . S
H1074 C1099 0.951 . S
H1075 C1101 0.950 . S
H1076 C1102 0.950 . S
H1077 C1104 0.950 . S
H1078 C1107 0.950 . S
H1079 C1108 0.950 . S
H1080 C1110 0.950 . S
H1081 C1111 0.950 1_455 S
C1082 H1064 0.951 . S
C1082 C1083 1.366 . S
C1082 C1084 1.388 . S
C1083 C1082 1.366 . S
C1083 C1087 1.385 . S
C1084 H1065 0.951 . S
C1084 C1082 1.388 . S
C1084 C1085 1.366 . S
C1085 C1084 1.366 . S
C1085 C1086 1.414 . S
C1085 C1088 1.499 . S
C1086 H1066 0.950 . S
C1086 C1085 1.414 . S
C1086 C1087 1.374 . S
C1087 H1067 0.950 . S
C1087 C1083 1.385 . S
C1087 C1086 1.374 . S
C1088 C1085 1.499 . S
C1088 C1089 1.373 . S
C1088 C1090 1.389 . S
C1089 H1068 0.950 . S
C1089 C1088 1.373 . S
C1089 C1105 1.377 1_455 S
C1090 C1088 1.389 . S
C1090 C1091 1.524 . S
C1090 C1104 1.377 1_455 S
C1091 C1090 1.524 . S
C1091 C1092 1.397 . S
C1091 C1096 1.363 . S
C1092 H1069 0.950 . S
C1092 C1091 1.397 . S
C1092 C1093 1.334 . S
C1093 H1070 0.950 . S
C1093 C1092 1.334 . S
C1093 C1094 1.287 . S
C1094 C1093 1.287 . S
C1094 C1095 1.524 . S
C1094 H1113 0.913 . S
C1095 H1071 0.950 . S
C1095 C1094 1.524 . S
C1095 C1096 1.415 . S
C1096 H1072 0.950 . S
C1096 C1091 1.363 . S
C1096 C1095 1.415 . S
C1097 H1073 0.951 . S
C1097 C1098 1.366 . S
C1097 C1099 1.388 . S
C1098 C1097 1.366 . S
C1098 C1102 1.385 . S
C1099 H1074 0.951 . S
C1099 C1097 1.388 . S
C1099 C1100 1.366 . S
C1100 C1099 1.366 . S
C1100 C1101 1.414 . S
C1100 C1103 1.499 . S
C1101 H1075 0.950 . S
C1101 C1100 1.414 . S
C1101 C1102 1.374 . S
C1102 H1076 0.950 . S
C1102 C1098 1.385 . S
C1102 C1101 1.374 . S
C1103 C1100 1.499 . S
C1103 C1104 1.373 . S
C1103 C1105 1.389 . S
C1104 H1077 0.950 . S
C1104 C1090 1.377 1_655 S
C1104 C1103 1.373 . S
C1105 C1089 1.377 1_655 S
C1105 C1103 1.389 . S
C1105 C1106 1.524 . S
C1106 C1105 1.524 . S
C1106 C1107 1.397 . S
C1106 C1111 1.363 . S
C1107 H1078 0.950 . S
C1107 C1106 1.397 . S
C1107 C1108 1.334 . S
C1108 H1079 0.950 . S
C1108 C1107 1.334 . S
C1108 C1109 1.287 . S
C1109 C1108 1.287 . S
C1109 C1110 1.524 . S
C1109 H1112 0.999 . S
C1110 H1080 0.950 . S
C1110 C1109 1.524 . S
C1110 C1111 1.415 . S
C1111 H1081 0.950 1_655 S
C1111 C1106 1.363 . S
C1111 C1110 1.415 . S
H1112 C1109 0.999 . S
H1113 C1094 0.913 . S
H1114 C1132 0.951 . S
H1115 C1134 0.951 . S
H1116 C1136 0.950 . S
H1117 C1137 0.950 . S
H1118 C1139 0.950 . S
H1119 C1142 0.950 . S
H1120 C1143 0.950 . S
H1121 C1145 0.950 . S
H1122 C1146 0.950 . S
H1123 C1147 0.951 . S
H1124 C1149 0.951 . S
H1125 C1151 0.950 . S
H1126 C1152 0.950 . S
H1127 C1154 0.950 . S
H1128 C1157 0.950 . S
H1129 C1158 0.950 . S
H1130 C1160 0.950 . S
H1131 C1161 0.950 . S
C1132 H1114 0.951 . S
C1132 C1133 1.366 . S
C1132 C1134 1.388 . S
C1133 C1132 1.366 . S
C1133 C1137 1.385 . S
C1134 H1115 0.951 . S
C1134 C1132 1.388 . S
C1134 C1135 1.366 . S
C1135 C1134 1.366 . S
C1135 C1136 1.414 . S
C1135 C1138 1.499 . S
C1136 H1116 0.950 . S
C1136 C1135 1.414 . S
C1136 C1137 1.374 . S
C1137 H1117 0.950 . S
C1137 C1133 1.385 . S
C1137 C1136 1.374 . S
C1138 C1135 1.499 . S
C1138 C1139 1.373 . S
C1138 C1140 1.389 . S
C1139 H1118 0.950 . S
C1139 C1138 1.373 . S
C1139 C1155 1.377 . S
C1140 C1138 1.389 . S
C1140 C1141 1.524 . S
C1140 C1154 1.377 . S
C1141 C1140 1.524 . S
C1141 C1142 1.397 . S
C1141 C1146 1.363 . S
C1142 H1119 0.950 . S
C1142 C1141 1.397 . S
C1142 C1143 1.334 . S
C1143 H1120 0.950 . S
C1143 C1142 1.334 . S
C1143 C1144 1.287 . S
C1144 C1143 1.287 . S
C1144 C1145 1.524 . S
C1144 H1163 0.913 . S
C1145 H1121 0.950 . S
C1145 C1144 1.524 . S
C1145 C1146 1.415 . S
C1146 H1122 0.950 . S
C1146 C1141 1.363 . S
C1146 C1145 1.415 . S
C1147 H1123 0.951 . S
C1147 C1148 1.366 . S
C1147 C1149 1.388 . S
C1148 C1147 1.366 . S
C1148 C1152 1.385 . S
C1149 H1124 0.951 . S
C1149 C1147 1.388 . S
C1149 C1150 1.366 . S
C1150 C1149 1.366 . S
C1150 C1151 1.414 . S
C1150 C1153 1.499 . S
C1151 H1125 0.950 . S
C1151 C1150 1.414 . S
C1151 C1152 1.374 . S
C1152 H1126 0.950 . S
C1152 C1148 1.385 . S
C1152 C1151 1.374 . S
C1153 C1150 1.499 . S
C1153 C1154 1.373 . S
C1153 C1155 1.389 . S
C1154 H1127 0.950 . S
C1154 C1140 1.377 . S
C1154 C1153 1.373 . S
C1155 C1139 1.377 . S
C1155 C1153 1.389 . S
C1155 C1156 1.524 . S
C1156 C1155 1.524 . S
C1156 C1157 1.397 . S
C1156 C1161 1.363 . S
C1157 H1128 0.950 . S
C1157 C1156 1.397 . S
C1157 C1158 1.334 . S
C1158 H1129 0.950 . S
C1158 C1157 1.334 . S
C1158 C1159 1.287 . S
C1159 C1158 1.287 . S
C1159 C1160 1.524 . S
C1159 H1162 0.999 . S
C1160 H1130 0.950 . S
C1160 C1159 1.524 . S
C1160 C1161 1.415 . S
C1161 H1131 0.950 . S
C1161 C1156 1.363 . S
C1161 C1160 1.415 . S
H1162 C1159 0.999 . S
H1163 C1144 0.913 . S
H1164 C1182 0.951 . S
H1165 C1184 0.951 . S
H1166 C1186 0.950 . S
H1167 C1187 0.950 . S
H1168 C1189 0.950 . S
H1169 C1192 0.950 . S
H1170 C1193 0.950 . S
H1171 C1195 0.950 . S
H1172 C1196 0.950 . S
H1173 C1197 0.951 . S
H1174 C1199 0.951 . S
H1175 C1201 0.950 . S
H1176 C1202 0.950 . S
H1177 C1204 0.950 . S
H1178 C1207 0.950 . S
H1179 C1208 0.950 . S
H1180 C1210 0.950 . S
H1181 C1211 0.950 . S
C1182 H1164 0.951 . S
C1182 C1183 1.366 . S
C1182 C1184 1.388 . S
C1183 C1182 1.366 . S
C1183 C1187 1.385 . S
C1184 H1165 0.951 . S
C1184 C1182 1.388 . S
C1184 C1185 1.366 . S
C1185 C1184 1.366 . S
C1185 C1186 1.414 . S
C1185 C1188 1.499 . S
C1186 H1166 0.950 . S
C1186 C1185 1.414 . S
C1186 C1187 1.374 . S
C1187 H1167 0.950 . S
C1187 C1183 1.385 . S
C1187 C1186 1.374 . S
C1188 C1185 1.499 . S
C1188 C1189 1.373 . S
C1188 C1190 1.389 . S
C1189 H1168 0.950 . S
C1189 C1188 1.373 . S
C1189 C1205 1.377 . S
C1190 C1188 1.389 . S
C1190 C1191 1.524 . S
C1190 C1204 1.377 . S
C1191 C1190 1.524 . S
C1191 C1192 1.397 . S
C1191 C1196 1.363 . S
C1192 H1169 0.950 . S
C1192 C1191 1.397 . S
C1192 C1193 1.334 . S
C1193 H1170 0.950 . S
C1193 C1192 1.334 . S
C1193 C1194 1.287 . S
C1194 C1193 1.287 . S
C1194 C1195 1.524 . S
C1194 H1213 0.913 . S
C1195 H1171 0.950 . S
C1195 C1194 1.524 . S
C1195 C1196 1.415 . S
C1196 H1172 0.950 . S
C1196 C1191 1.363 . S
C1196 C1195 1.415 . S
C1197 H1173 0.951 . S
C1197 C1198 1.366 . S
C1197 C1199 1.388 . S
C1198 C1197 1.366 . S
C1198 C1202 1.385 . S
C1199 H1174 0.951 . S
C1199 C1197 1.388 . S
C1199 C1200 1.366 . S
C1200 C1199 1.366 . S
C1200 C1201 1.414 . S
C1200 C1203 1.499 . S
C1201 H1175 0.950 . S
C1201 C1200 1.414 . S
C1201 C1202 1.374 . S
C1202 H1176 0.950 . S
C1202 C1198 1.385 . S
C1202 C1201 1.374 . S
C1203 C1200 1.499 . S
C1203 C1204 1.373 . S
C1203 C1205 1.389 . S
C1204 H1177 0.950 . S
C1204 C1190 1.377 . S
C1204 C1203 1.373 . S
C1205 C1189 1.377 . S
C1205 C1203 1.389 . S
C1205 C1206 1.524 . S
C1206 C1205 1.524 . S
C1206 C1207 1.397 . S
C1206 C1211 1.363 . S
C1207 H1178 0.950 . S
C1207 C1206 1.397 . S
C1207 C1208 1.334 . S
C1208 H1179 0.950 . S
C1208 C1207 1.334 . S
C1208 C1209 1.287 . S
C1209 C1208 1.287 . S
C1209 C1210 1.524 . S
C1209 H1212 0.999 . S
C1210 H1180 0.950 . S
C1210 C1209 1.524 . S
C1210 C1211 1.415 . S
C1211 H1181 0.950 . S
C1211 C1206 1.363 . S
C1211 C1210 1.415 . S
H1212 C1209 0.999 . S
H1213 C1194 0.913 . S
H1214 C1232 0.951 . S
H1215 C1234 0.951 . S
H1216 C1236 0.950 . S
H1217 C1237 0.950 . S
H1218 C1239 0.950 . S
H1219 C1242 0.950 . S
H1220 C1243 0.950 . S
H1221 C1245 0.950 . S
H1222 C1246 0.950 1_655 S
H1223 C1247 0.951 . S
H1224 C1249 0.951 . S
H1225 C1251 0.950 . S
H1226 C1252 0.950 . S
H1227 C1254 0.950 . S
H1228 C1257 0.950 . S
H1229 C1258 0.950 . S
H1230 C1260 0.950 . S
H1231 C1261 0.950 . S
C1232 H1214 0.951 . S
C1232 C1233 1.366 . S
C1232 C1234 1.388 . S
C1233 C1232 1.366 . S
C1233 C1237 1.385 . S
C1234 H1215 0.951 . S
C1234 C1232 1.388 . S
C1234 C1235 1.366 . S
C1235 C1234 1.366 . S
C1235 C1236 1.414 . S
C1235 C1238 1.499 . S
C1236 H1216 0.950 . S
C1236 C1235 1.414 . S
C1236 C1237 1.374 . S
C1237 H1217 0.950 . S
C1237 C1233 1.385 . S
C1237 C1236 1.374 . S
C1238 C1235 1.499 . S
C1238 C1239 1.373 . S
C1238 C1240 1.389 . S
C1239 H1218 0.950 . S
C1239 C1238 1.373 . S
C1239 C1255 1.377 1_455 S
C1240 C1238 1.389 . S
C1240 C1241 1.524 . S
C1240 C1254 1.377 1_455 S
C1241 C1240 1.524 . S
C1241 C1242 1.397 . S
C1241 C1246 1.363 . S
C1242 H1219 0.950 . S
C1242 C1241 1.397 . S
C1242 C1243 1.334 . S
C1243 H1220 0.950 . S
C1243 C1242 1.334 . S
C1243 C1244 1.287 . S
C1244 C1243 1.287 . S
C1244 C1245 1.524 . S
C1244 H1263 0.913 . S
C1245 H1221 0.950 . S
C1245 C1244 1.524 . S
C1245 C1246 1.415 . S
C1246 H1222 0.950 1_455 S
C1246 C1241 1.363 . S
C1246 C1245 1.415 . S
C1247 H1223 0.951 . S
C1247 C1248 1.366 . S
C1247 C1249 1.388 . S
C1248 C1247 1.366 . S
C1248 C1252 1.385 . S
C1249 H1224 0.951 . S
C1249 C1247 1.388 . S
C1249 C1250 1.366 . S
C1250 C1249 1.366 . S
C1250 C1251 1.414 . S
C1250 C1253 1.499 . S
C1251 H1225 0.950 . S
C1251 C1250 1.414 . S
C1251 C1252 1.374 . S
C1252 H1226 0.950 . S
C1252 C1248 1.385 . S
C1252 C1251 1.374 . S
C1253 C1250 1.499 . S
C1253 C1254 1.373 . S
C1253 C1255 1.389 . S
C1254 H1227 0.950 . S
C1254 C1240 1.377 1_655 S
C1254 C1253 1.373 . S
C1255 C1239 1.377 1_655 S
C1255 C1253 1.389 . S
C1255 C1256 1.524 . S
C1256 C1255 1.524 . S
C1256 C1257 1.397 . S
C1256 C1261 1.363 . S
C1257 H1228 0.950 . S
C1257 C1256 1.397 . S
C1257 C1258 1.334 . S
C1258 H1229 0.950 . S
C1258 C1257 1.334 . S
C1258 C1259 1.287 . S
C1259 C1258 1.287 . S
C1259 C1260 1.524 . S
C1259 H1262 0.999 . S
C1260 H1230 0.950 . S
C1260 C1259 1.524 . S
C1260 C1261 1.415 . S
C1261 H1231 0.950 . S
C1261 C1256 1.363 . S
C1261 C1260 1.415 . S
H1262 C1259 0.999 . S
H1263 C1244 0.913 . S
H1264 C1282 0.951 . S
H1265 C1284 0.951 . S
H1266 C1286 0.950 . S
H1267 C1287 0.950 . S
H1268 C1289 0.950 . S
H1269 C1292 0.950 . S
H1270 C1293 0.950 . S
H1271 C1295 0.950 . S
H1272 C1296 0.950 . S
H1273 C1297 0.951 . S
H1274 C1299 0.951 . S
H1275 C1301 0.950 . S
H1276 C1302 0.950 . S
H1277 C1304 0.950 . S
H1278 C1307 0.950 . S
H1279 C1308 0.950 . S
H1280 C1310 0.950 . S
H1281 C1311 0.950 . S
C1282 H1264 0.951 . S
C1282 C1283 1.366 . S
C1282 C1284 1.388 . S
C1283 C1282 1.366 . S
C1283 C1287 1.385 . S
C1284 H1265 0.951 . S
C1284 C1282 1.388 . S
C1284 C1285 1.366 . S
C1285 C1284 1.366 . S
C1285 C1286 1.414 . S
C1285 C1288 1.499 . S
C1286 H1266 0.950 . S
C1286 C1285 1.414 . S
C1286 C1287 1.374 . S
C1287 H1267 0.950 . S
C1287 C1283 1.385 . S
C1287 C1286 1.374 . S
C1288 C1285 1.499 . S
C1288 C1289 1.373 1_554 S
C1288 C1290 1.389 . S
C1289 H1268 0.950 . S
C1289 C1288 1.373 1_556 S
C1289 C1305 1.377 . S
C1290 C1288 1.389 . S
C1290 C1291 1.524 . S
C1290 C1304 1.377 1_554 S
C1291 C1290 1.524 . S
C1291 C1292 1.397 . S
C1291 C1296 1.363 . S
C1292 H1269 0.950 . S
C1292 C1291 1.397 . S
C1292 C1293 1.334 . S
C1293 H1270 0.950 . S
C1293 C1292 1.334 . S
C1293 C1294 1.287 . S
C1294 C1293 1.287 . S
C1294 C1295 1.524 . S
C1294 H1313 0.913 . S
C1295 H1271 0.950 . S
C1295 C1294 1.524 . S
C1295 C1296 1.415 . S
C1296 H1272 0.950 . S
C1296 C1291 1.363 . S
C1296 C1295 1.415 . S
C1297 H1273 0.951 . S
C1297 C1298 1.366 . S
C1297 C1299 1.388 . S
C1298 C1297 1.366 . S
C1298 C1302 1.385 . S
C1299 H1274 0.951 . S
C1299 C1297 1.388 . S
C1299 C1300 1.366 . S
C1300 C1299 1.366 . S
C1300 C1301 1.414 . S
C1300 C1303 1.499 . S
C1301 H1275 0.950 . S
C1301 C1300 1.414 . S
C1301 C1302 1.374 . S
C1302 H1276 0.950 . S
C1302 C1298 1.385 . S
C1302 C1301 1.374 . S
C1303 C1300 1.499 . S
C1303 C1304 1.373 . S
C1303 C1305 1.389 . S
C1304 H1277 0.950 . S
C1304 C1290 1.377 1_556 S
C1304 C1303 1.373 . S
C1305 C1289 1.377 . S
C1305 C1303 1.389 . S
C1305 C1306 1.524 . S
C1306 C1305 1.524 . S
C1306 C1307 1.397 . S
C1306 C1311 1.363 . S
C1307 H1278 0.950 . S
C1307 C1306 1.397 . S
C1307 C1308 1.334 . S
C1308 H1279 0.950 . S
C1308 C1307 1.334 . S
C1308 C1309 1.287 . S
C1309 C1308 1.287 . S
C1309 C1310 1.524 . S
C1309 H1312 0.999 . S
C1310 H1280 0.950 . S
C1310 C1309 1.524 . S
C1310 C1311 1.415 . S
C1311 H1281 0.950 . S
C1311 C1306 1.363 . S
C1311 C1310 1.415 . S
H1312 C1309 0.999 . S
H1313 C1294 0.913 . S
H1314 C1332 0.951 . S
H1315 C1334 0.951 . S
H1316 C1336 0.950 . S
H1317 C1337 0.950 . S
H1318 C1339 0.950 . S
H1319 C1342 0.950 . S
H1320 C1343 0.950 . S
H1321 C1345 0.950 . S
H1322 C1346 0.950 . S
H1323 C1347 0.951 . S
H1324 C1349 0.951 . S
H1325 C1351 0.950 . S
H1326 C1352 0.950 . S
H1327 C1354 0.950 . S
H1328 C1357 0.950 . S
H1329 C1358 0.950 . S
H1330 C1360 0.950 . S
H1331 C1361 0.950 . S
C1332 H1314 0.951 . S
C1332 C1333 1.366 . S
C1332 C1334 1.388 . S
C1333 C1332 1.366 . S
C1333 C1337 1.385 . S
C1334 H1315 0.951 . S
C1334 C1332 1.388 . S
C1334 C1335 1.366 . S
C1335 C1334 1.366 . S
C1335 C1336 1.414 . S
C1335 C1338 1.499 . S
C1336 H1316 0.950 . S
C1336 C1335 1.414 . S
C1336 C1337 1.374 . S
C1337 H1317 0.950 . S
C1337 C1333 1.385 . S
C1337 C1336 1.374 . S
C1338 C1335 1.499 . S
C1338 C1339 1.373 1_554 S
C1338 C1340 1.389 . S
C1339 H1318 0.950 . S
C1339 C1338 1.373 1_556 S
C1339 C1355 1.377 . S
C1340 C1338 1.389 . S
C1340 C1341 1.524 . S
C1340 C1354 1.377 1_554 S
C1341 C1340 1.524 . S
C1341 C1342 1.397 . S
C1341 C1346 1.363 . S
C1342 H1319 0.950 . S
C1342 C1341 1.397 . S
C1342 C1343 1.334 . S
C1343 H1320 0.950 . S
C1343 C1342 1.334 . S
C1343 C1344 1.287 . S
C1344 C1343 1.287 . S
C1344 C1345 1.524 . S
C1344 H1363 0.913 . S
C1345 H1321 0.950 . S
C1345 C1344 1.524 . S
C1345 C1346 1.415 . S
C1346 H1322 0.950 . S
C1346 C1341 1.363 . S
C1346 C1345 1.415 . S
C1347 H1323 0.951 . S
C1347 C1348 1.366 . S
C1347 C1349 1.388 . S
C1348 C1347 1.366 . S
C1348 C1352 1.385 . S
C1349 H1324 0.951 . S
C1349 C1347 1.388 . S
C1349 C1350 1.366 . S
C1350 C1349 1.366 . S
C1350 C1351 1.414 . S
C1350 C1353 1.499 . S
C1351 H1325 0.950 . S
C1351 C1350 1.414 . S
C1351 C1352 1.374 . S
C1352 H1326 0.950 . S
C1352 C1348 1.385 . S
C1352 C1351 1.374 . S
C1353 C1350 1.499 . S
C1353 C1354 1.373 . S
C1353 C1355 1.389 . S
C1354 H1327 0.950 . S
C1354 C1340 1.377 1_556 S
C1354 C1353 1.373 . S
C1355 C1339 1.377 . S
C1355 C1353 1.389 . S
C1355 C1356 1.524 . S
C1356 C1355 1.524 . S
C1356 C1357 1.397 . S
C1356 C1361 1.363 . S
C1357 H1328 0.950 . S
C1357 C1356 1.397 . S
C1357 C1358 1.334 . S
C1358 H1329 0.950 . S
C1358 C1357 1.334 . S
C1358 C1359 1.287 . S
C1359 C1358 1.287 . S
C1359 C1360 1.524 . S
C1359 H1362 0.999 . S
C1360 H1330 0.950 . S
C1360 C1359 1.524 . S
C1360 C1361 1.415 . S
C1361 H1331 0.950 . S
C1361 C1356 1.363 . S
C1361 C1360 1.415 . S
H1362 C1359 0.999 . S
H1363 C1344 0.913 . S
H1364 C1382 0.951 . S
H1365 C1384 0.951 . S
H1366 C1386 0.950 . S
H1367 C1387 0.950 . S
H1368 C1389 0.950 . S
H1369 C1392 0.950 . S
H1370 C1393 0.950 . S
H1371 C1395 0.950 . S
H1372 C1396 0.950 . S
H1373 C1397 0.951 . S
H1374 C1399 0.951 . S
H1375 C1401 0.950 . S
H1376 C1402 0.950 . S
H1377 C1404 0.950 . S
H1378 C1407 0.950 . S
H1379 C1408 0.950 . S
H1380 C1410 0.950 . S
H1381 C1411 0.950 . S
C1382 H1364 0.951 . S
C1382 C1383 1.366 . S
C1382 C1384 1.388 . S
C1383 C1382 1.366 . S
C1383 C1387 1.385 . S
C1384 H1365 0.951 . S
C1384 C1382 1.388 . S
C1384 C1385 1.366 . S
C1385 C1384 1.366 . S
C1385 C1386 1.414 . S
C1385 C1388 1.499 . S
C1386 H1366 0.950 . S
C1386 C1385 1.414 . S
C1386 C1387 1.374 . S
C1387 H1367 0.950 . S
C1387 C1383 1.385 . S
C1387 C1386 1.374 . S
C1388 C1385 1.499 . S
C1388 C1389 1.373 . S
C1388 C1390 1.389 . S
C1389 H1368 0.950 . S
C1389 C1388 1.373 . S
C1389 C1405 1.377 . S
C1390 C1388 1.389 . S
C1390 C1391 1.524 . S
C1390 C1404 1.377 . S
C1391 C1390 1.524 . S
C1391 C1392 1.397 . S
C1391 C1396 1.363 . S
C1392 H1369 0.950 . S
C1392 C1391 1.397 . S
C1392 C1393 1.334 . S
C1393 H1370 0.950 . S
C1393 C1392 1.334 . S
C1393 C1394 1.287 . S
C1394 C1393 1.287 . S
C1394 C1395 1.524 . S
C1394 H1413 0.913 . S
C1395 H1371 0.950 . S
C1395 C1394 1.524 . S
C1395 C1396 1.415 . S
C1396 H1372 0.950 . S
C1396 C1391 1.363 . S
C1396 C1395 1.415 . S
C1397 H1373 0.951 . S
C1397 C1398 1.366 . S
C1397 C1399 1.388 . S
C1398 C1397 1.366 . S
C1398 C1402 1.385 . S
C1399 H1374 0.951 . S
C1399 C1397 1.388 . S
C1399 C1400 1.366 . S
C1400 C1399 1.366 . S
C1400 C1401 1.414 . S
C1400 C1403 1.499 . S
C1401 H1375 0.950 . S
C1401 C1400 1.414 . S
C1401 C1402 1.374 . S
C1402 H1376 0.950 . S
C1402 C1398 1.385 . S
C1402 C1401 1.374 . S
C1403 C1400 1.499 . S
C1403 C1404 1.373 . S
C1403 C1405 1.389 . S
C1404 H1377 0.950 . S
C1404 C1390 1.377 . S
C1404 C1403 1.373 . S
C1405 C1389 1.377 . S
C1405 C1403 1.389 . S
C1405 C1406 1.524 . S
C1406 C1405 1.524 . S
C1406 C1407 1.397 . S
C1406 C1411 1.363 . S
C1407 H1378 0.950 . S
C1407 C1406 1.397 . S
C1407 C1408 1.334 . S
C1408 H1379 0.950 . S
C1408 C1407 1.334 . S
C1408 C1409 1.287 . S
C1409 C1408 1.287 . S
C1409 C1410 1.524 . S
C1409 H1412 0.999 . S
C1410 H1380 0.950 . S
C1410 C1409 1.524 . S
C1410 C1411 1.415 . S
C1411 H1381 0.950 . S
C1411 C1406 1.363 . S
C1411 C1410 1.415 . S
H1412 C1409 0.999 . S
H1413 C1394 0.913 . S
H1414 C1432 0.951 . S
H1415 C1434 0.951 . S
H1416 C1436 0.950 . S
H1417 C1437 0.950 . S
H1418 C1439 0.950 . S
H1419 C1442 0.950 . S
H1420 C1443 0.950 . S
H1421 C1445 0.950 . S
H1422 C1446 0.950 . S
H1423 C1447 0.951 . S
H1424 C1449 0.951 . S
H1425 C1451 0.950 . S
H1426 C1452 0.950 . S
H1427 C1454 0.950 . S
H1428 C1457 0.950 . S
H1429 C1458 0.950 . S
H1430 C1460 0.950 . S
H1431 C1461 0.950 . S
C1432 H1414 0.951 . S
C1432 C1433 1.366 . S
C1432 C1434 1.388 . S
C1433 C1432 1.366 . S
C1433 C1437 1.385 . S
C1434 H1415 0.951 . S
C1434 C1432 1.388 . S
C1434 C1435 1.366 . S
C1435 C1434 1.366 . S
C1435 C1436 1.414 . S
C1435 C1438 1.499 . S
C1436 H1416 0.950 . S
C1436 C1435 1.414 . S
C1436 C1437 1.374 . S
C1437 H1417 0.950 . S
C1437 C1433 1.385 . S
C1437 C1436 1.374 . S
C1438 C1435 1.499 . S
C1438 C1439 1.373 . S
C1438 C1440 1.389 . S
C1439 H1418 0.950 . S
C1439 C1438 1.373 . S
C1439 C1455 1.377 . S
C1440 C1438 1.389 . S
C1440 C1441 1.524 . S
C1440 C1454 1.377 . S
C1441 C1440 1.524 . S
C1441 C1442 1.397 . S
C1441 C1446 1.363 . S
C1442 H1419 0.950 . S
C1442 C1441 1.397 . S
C1442 C1443 1.334 . S
C1443 H1420 0.950 . S
C1443 C1442 1.334 . S
C1443 C1444 1.287 . S
C1444 C1443 1.287 . S
C1444 C1445 1.524 . S
C1444 H1463 0.913 . S
C1445 H1421 0.950 . S
C1445 C1444 1.524 . S
C1445 C1446 1.415 . S
C1446 H1422 0.950 . S
C1446 C1441 1.363 . S
C1446 C1445 1.415 . S
C1447 H1423 0.951 . S
C1447 C1448 1.366 . S
C1447 C1449 1.388 . S
C1448 C1447 1.366 . S
C1448 C1452 1.385 . S
C1449 H1424 0.951 . S
C1449 C1447 1.388 . S
C1449 C1450 1.366 . S
C1450 C1449 1.366 . S
C1450 C1451 1.414 . S
C1450 C1453 1.499 . S
C1451 H1425 0.950 . S
C1451 C1450 1.414 . S
C1451 C1452 1.374 . S
C1452 H1426 0.950 . S
C1452 C1448 1.385 . S
C1452 C1451 1.374 . S
C1453 C1450 1.499 . S
C1453 C1454 1.373 . S
C1453 C1455 1.389 . S
C1454 H1427 0.950 . S
C1454 C1440 1.377 . S
C1454 C1453 1.373 . S
C1455 C1439 1.377 . S
C1455 C1453 1.389 . S
C1455 C1456 1.524 . S
C1456 C1455 1.524 . S
C1456 C1457 1.397 . S
C1456 C1461 1.363 . S
C1457 H1428 0.950 . S
C1457 C1456 1.397 . S
C1457 C1458 1.334 . S
C1458 H1429 0.950 . S
C1458 C1457 1.334 . S
C1458 C1459 1.287 . S
C1459 C1458 1.287 . S
C1459 C1460 1.524 . S
C1459 H1462 0.999 . S
C1460 H1430 0.950 . S
C1460 C1459 1.524 . S
C1460 C1461 1.415 . S
C1461 H1431 0.950 . S
C1461 C1456 1.363 . S
C1461 C1460 1.415 . S
H1462 C1459 0.999 . S
H1463 C1444 0.913 . S
H1464 C1482 0.951 . S
H1465 C1484 0.951 . S
H1466 C1486 0.950 . S
H1467 C1487 0.950 . S
H1468 C1489 0.951 1_556 S
H1469 C1492 0.950 . S
H1470 C1493 0.950 . S
H1471 C1495 0.950 . S
H1472 C1496 0.950 . S
H1473 C1497 0.951 . S
H1474 C1499 0.951 . S
H1475 C1501 0.950 . S
H1476 C1502 0.950 . S
H1477 C1504 0.950 . S
H1478 C1507 0.950 . S
H1479 C1508 0.950 . S
H1480 C1510 0.950 . S
H1481 C1511 0.950 . S
C1482 H1464 0.951 . S
C1482 C1483 1.366 . S
C1482 C1484 1.388 . S
C1483 C1482 1.366 . S
C1483 C1487 1.385 . S
C1484 H1465 0.951 . S
C1484 C1482 1.388 . S
C1484 C1485 1.366 . S
C1485 C1484 1.366 . S
C1485 C1486 1.414 . S
C1485 C1488 1.499 . S
C1486 H1466 0.950 . S
C1486 C1485 1.414 . S
C1486 C1487 1.374 . S
C1487 H1467 0.950 . S
C1487 C1483 1.385 . S
C1487 C1486 1.374 . S
C1488 C1485 1.499 . S
C1488 C1489 1.373 1_556 S
C1488 C1490 1.389 . S
C1489 H1468 0.951 1_554 S
C1489 C1488 1.373 1_554 S
C1489 C1505 1.377 . S
C1490 C1488 1.389 . S
C1490 C1491 1.524 . S
C1490 C1504 1.377 1_556 S
C1491 C1490 1.524 . S
C1491 C1492 1.397 . S
C1491 C1496 1.363 . S
C1492 H1469 0.950 . S
C1492 C1491 1.397 . S
C1492 C1493 1.334 . S
C1493 H1470 0.950 . S
C1493 C1492 1.334 . S
C1493 C1494 1.287 . S
C1494 C1493 1.287 . S
C1494 C1495 1.524 . S
C1494 H1513 0.913 . S
C1495 H1471 0.950 . S
C1495 C1494 1.524 . S
C1495 C1496 1.415 . S
C1496 H1472 0.950 . S
C1496 C1491 1.363 . S
C1496 C1495 1.415 . S
C1497 H1473 0.951 . S
C1497 C1498 1.366 . S
C1497 C1499 1.388 . S
C1498 C1497 1.366 . S
C1498 C1502 1.385 . S
C1499 H1474 0.951 . S
C1499 C1497 1.388 . S
C1499 C1500 1.366 . S
C1500 C1499 1.366 . S
C1500 C1501 1.414 . S
C1500 C1503 1.499 . S
C1501 H1475 0.950 . S
C1501 C1500 1.414 . S
C1501 C1502 1.374 . S
C1502 H1476 0.950 . S
C1502 C1498 1.385 . S
C1502 C1501 1.374 . S
C1503 C1500 1.499 . S
C1503 C1504 1.373 . S
C1503 C1505 1.389 . S
C1504 H1477 0.950 . S
C1504 C1490 1.377 1_554 S
C1504 C1503 1.373 . S
C1505 C1489 1.377 . S
C1505 C1503 1.389 . S
C1505 C1506 1.524 . S
C1506 C1505 1.524 . S
C1506 C1507 1.397 . S
C1506 C1511 1.363 . S
C1507 H1478 0.950 . S
C1507 C1506 1.397 . S
C1507 C1508 1.334 . S
C1508 H1479 0.950 . S
C1508 C1507 1.334 . S
C1508 C1509 1.287 . S
C1509 C1508 1.287 . S
C1509 C1510 1.524 . S
C1509 H1512 0.999 . S
C1510 H1480 0.950 . S
C1510 C1509 1.524 . S
C1510 C1511 1.415 . S
C1511 H1481 0.950 . S
C1511 C1506 1.363 . S
C1511 C1510 1.415 . S
H1512 C1509 0.999 . S
H1513 C1494 0.913 . S
H1514 C1532 0.951 . S
H1515 C1534 0.951 . S
H1516 C1536 0.950 . S
H1517 C1537 0.950 . S
H1518 C1539 0.950 . S
H1519 C1542 0.950 . S
H1520 C1543 0.950 . S
H1521 C1545 0.950 . S
H1522 C1546 0.950 . S
H1523 C1547 0.951 . S
H1524 C1549 0.951 . S
H1525 C1551 0.950 . S
H1526 C1552 0.950 . S
H1527 C1554 0.950 . S
H1528 C1557 0.950 . S
H1529 C1558 0.950 . S
H1530 C1560 0.950 . S
H1531 C1561 0.950 . S
C1532 H1514 0.951 . S
C1532 C1533 1.366 . S
C1532 C1534 1.388 . S
C1533 C1532 1.366 . S
C1533 C1537 1.385 . S
C1534 H1515 0.951 . S
C1534 C1532 1.388 . S
C1534 C1535 1.366 . S
C1535 C1534 1.366 . S
C1535 C1536 1.414 . S
C1535 C1538 1.499 . S
C1536 H1516 0.950 . S
C1536 C1535 1.414 . S
C1536 C1537 1.374 . S
C1537 H1517 0.950 . S
C1537 C1533 1.385 . S
C1537 C1536 1.374 . S
C1538 C1535 1.499 . S
C1538 C1539 1.373 1_556 S
C1538 C1540 1.389 . S
C1539 H1518 0.950 . S
C1539 C1538 1.373 1_554 S
C1539 C1555 1.377 . S
C1540 C1538 1.389 . S
C1540 C1541 1.524 . S
C1540 C1554 1.377 1_556 S
C1541 C1540 1.524 . S
C1541 C1542 1.397 . S
C1541 C1546 1.363 . S
C1542 H1519 0.950 . S
C1542 C1541 1.397 . S
C1542 C1543 1.334 . S
C1543 H1520 0.950 . S
C1543 C1542 1.334 . S
C1543 C1544 1.287 . S
C1544 C1543 1.287 . S
C1544 C1545 1.524 . S
C1544 H1563 0.913 . S
C1545 H1521 0.950 . S
C1545 C1544 1.524 . S
C1545 C1546 1.415 . S
C1546 H1522 0.950 . S
C1546 C1541 1.363 . S
C1546 C1545 1.415 . S
C1547 H1523 0.951 . S
C1547 C1548 1.366 . S
C1547 C1549 1.388 . S
C1548 C1547 1.366 . S
C1548 C1552 1.385 . S
C1549 H1524 0.951 . S
C1549 C1547 1.388 . S
C1549 C1550 1.366 . S
C1550 C1549 1.366 . S
C1550 C1551 1.414 . S
C1550 C1553 1.499 . S
C1551 H1525 0.950 . S
C1551 C1550 1.414 . S
C1551 C1552 1.374 . S
C1552 H1526 0.950 . S
C1552 C1548 1.385 . S
C1552 C1551 1.374 . S
C1553 C1550 1.499 . S
C1553 C1554 1.373 . S
C1553 C1555 1.389 . S
C1554 H1527 0.950 . S
C1554 C1540 1.377 1_554 S
C1554 C1553 1.373 . S
C1555 C1539 1.377 . S
C1555 C1553 1.389 . S
C1555 C1556 1.524 . S
C1556 C1555 1.524 . S
C1556 C1557 1.397 . S
C1556 C1561 1.363 . S
C1557 H1528 0.950 . S
C1557 C1556 1.397 . S
C1557 C1558 1.334 . S
C1558 H1529 0.950 . S
C1558 C1557 1.334 . S
C1558 C1559 1.287 . S
C1559 C1558 1.287 . S
C1559 C1560 1.524 . S
C1559 H1562 0.999 . S
C1560 H1530 0.950 . S
C1560 C1559 1.524 . S
C1560 C1561 1.415 . S
C1561 H1531 0.950 . S
C1561 C1556 1.363 . S
C1561 C1560 1.415 . S
H1562 C1559 0.999 . S
H1563 C1544 0.913 . S
H1564 C1582 0.951 . S
H1565 C1584 0.951 . S
H1566 C1586 0.950 . S
H1567 C1587 0.950 . S
H1568 C1589 0.950 . S
H1569 C1592 0.950 . S
H1570 C1593 0.950 . S
H1571 C1595 0.950 . S
H1572 C1596 0.950 . S
H1573 C1597 0.951 . S
H1574 C1599 0.951 . S
H1575 C1601 0.950 . S
H1576 C1602 0.950 . S
H1577 C1604 0.950 . S
H1578 C1607 0.950 . S
H1579 C1608 0.950 . S
H1580 C1610 0.950 . S
H1581 C1611 0.950 . S
C1582 H1564 0.951 . S
C1582 C1583 1.366 . S
C1582 C1584 1.388 . S
C1583 C1582 1.366 . S
C1583 C1587 1.385 . S
C1584 H1565 0.951 . S
C1584 C1582 1.388 . S
C1584 C1585 1.366 . S
C1585 C1584 1.366 . S
C1585 C1586 1.414 . S
C1585 C1588 1.499 . S
C1586 H1566 0.950 . S
C1586 C1585 1.414 . S
C1586 C1587 1.374 . S
C1587 H1567 0.950 . S
C1587 C1583 1.385 . S
C1587 C1586 1.374 . S
C1588 C1585 1.499 . S
C1588 C1589 1.373 . S
C1588 C1590 1.389 . S
C1589 H1568 0.950 . S
C1589 C1588 1.373 . S
C1589 C1605 1.377 . S
C1590 C1588 1.389 . S
C1590 C1591 1.524 . S
C1590 C1604 1.377 . S
C1591 C1590 1.524 . S
C1591 C1592 1.397 . S
C1591 C1596 1.363 . S
C1592 H1569 0.950 . S
C1592 C1591 1.397 . S
C1592 C1593 1.334 . S
C1593 H1570 0.950 . S
C1593 C1592 1.334 . S
C1593 C1594 1.287 . S
C1594 C1593 1.287 . S
C1594 C1595 1.524 . S
C1594 H1613 0.913 . S
C1595 H1571 0.950 . S
C1595 C1594 1.524 . S
C1595 C1596 1.415 . S
C1596 H1572 0.950 . S
C1596 C1591 1.363 . S
C1596 C1595 1.415 . S
C1597 H1573 0.951 . S
C1597 C1598 1.366 . S
C1597 C1599 1.388 . S
C1598 C1597 1.366 . S
C1598 C1602 1.385 . S
C1599 H1574 0.951 . S
C1599 C1597 1.388 . S
C1599 C1600 1.366 . S
C1600 C1599 1.366 . S
C1600 C1601 1.414 . S
C1600 C1603 1.499 . S
C1601 H1575 0.950 . S
C1601 C1600 1.414 . S
C1601 C1602 1.374 . S
C1602 H1576 0.950 . S
C1602 C1598 1.385 . S
C1602 C1601 1.374 . S
C1603 C1600 1.499 . S
C1603 C1604 1.373 . S
C1603 C1605 1.389 . S
C1604 H1577 0.950 . S
C1604 C1590 1.377 . S
C1604 C1603 1.373 . S
C1605 C1589 1.377 . S
C1605 C1603 1.389 . S
C1605 C1606 1.524 . S
C1606 C1605 1.524 . S
C1606 C1607 1.397 . S
C1606 C1611 1.363 . S
C1607 H1578 0.950 . S
C1607 C1606 1.397 . S
C1607 C1608 1.334 . S
C1608 H1579 0.950 . S
C1608 C1607 1.334 . S
C1608 C1609 1.287 . S
C1609 C1608 1.287 . S
C1609 C1610 1.524 . S
C1609 H1612 0.999 . S
C1610 H1580 0.950 . S
C1610 C1609 1.524 . S
C1610 C1611 1.415 . S
C1611 H1581 0.950 . S
C1611 C1606 1.363 . S
C1611 C1610 1.415 . S
H1612 C1609 0.999 . S
H1613 C1594 0.913 . S
H1614 C1632 0.951 . S
H1615 C1634 0.951 . S
H1616 C1636 0.950 . S
H1617 C1637 0.950 . S
H1618 C1639 0.950 . S
H1619 C1642 0.950 . S
H1620 C1643 0.950 . S
H1621 C1645 0.950 . S
H1622 C1646 0.950 . S
H1623 C1647 0.951 . S
H1624 C1649 0.951 . S
H1625 C1651 0.950 . S
H1626 C1652 0.950 . S
H1627 C1654 0.950 . S
H1628 C1657 0.950 . S
H1629 C1658 0.950 . S
H1630 C1660 0.950 . S
H1631 C1661 0.950 . S
C1632 H1614 0.951 . S
C1632 C1633 1.366 . S
C1632 C1634 1.388 . S
C1633 C1632 1.366 . S
C1633 C1637 1.385 . S
C1634 H1615 0.951 . S
C1634 C1632 1.388 . S
C1634 C1635 1.366 . S
C1635 C1634 1.366 . S
C1635 C1636 1.414 . S
C1635 C1638 1.499 . S
C1636 H1616 0.950 . S
C1636 C1635 1.414 . S
C1636 C1637 1.374 . S
C1637 H1617 0.950 . S
C1637 C1633 1.385 . S
C1637 C1636 1.374 . S
C1638 C1635 1.499 . S
C1638 C1639 1.373 . S
C1638 C1640 1.389 . S
C1639 H1618 0.950 . S
C1639 C1638 1.373 . S
C1639 C1655 1.377 . S
C1640 C1638 1.389 . S
C1640 C1641 1.524 . S
C1640 C1654 1.377 . S
C1641 C1640 1.524 . S
C1641 C1642 1.397 . S
C1641 C1646 1.363 . S
C1642 H1619 0.950 . S
C1642 C1641 1.397 . S
C1642 C1643 1.334 . S
C1643 H1620 0.950 . S
C1643 C1642 1.334 . S
C1643 C1644 1.287 . S
C1644 C1643 1.287 . S
C1644 C1645 1.524 . S
C1644 H1663 0.913 . S
C1645 H1621 0.950 . S
C1645 C1644 1.524 . S
C1645 C1646 1.415 . S
C1646 H1622 0.950 . S
C1646 C1641 1.363 . S
C1646 C1645 1.415 . S
C1647 H1623 0.951 . S
C1647 C1648 1.366 . S
C1647 C1649 1.388 . S
C1648 C1647 1.366 . S
C1648 C1652 1.385 . S
C1649 H1624 0.951 . S
C1649 C1647 1.388 . S
C1649 C1650 1.366 . S
C1650 C1649 1.366 . S
C1650 C1651 1.414 . S
C1650 C1653 1.499 . S
C1651 H1625 0.950 . S
C1651 C1650 1.414 . S
C1651 C1652 1.374 . S
C1652 H1626 0.950 . S
C1652 C1648 1.385 . S
C1652 C1651 1.374 . S
C1653 C1650 1.499 . S
C1653 C1654 1.373 . S
C1653 C1655 1.389 . S
C1654 H1627 0.950 . S
C1654 C1640 1.377 . S
C1654 C1653 1.373 . S
C1655 C1639 1.377 . S
C1655 C1653 1.389 . S
C1655 C1656 1.524 . S
C1656 C1655 1.524 . S
C1656 C1657 1.397 . S
C1656 C1661 1.363 . S
C1657 H1628 0.950 . S
C1657 C1656 1.397 . S
C1657 C1658 1.334 . S
C1658 H1629 0.950 . S
C1658 C1657 1.334 . S
C1658 C1659 1.287 . S
C1659 C1658 1.287 . S
C1659 C1660 1.524 . S
C1659 H1662 0.999 . S
C1660 H1630 0.950 . S
C1660 C1659 1.524 . S
C1660 C1661 1.415 . S
C1661 H1631 0.950 . S
C1661 C1656 1.363 . S
C1661 C1660 1.415 . S
H1662 C1659 0.999 . S
H1663 C1644 0.913 . S
H1664 C1682 0.951 . S
H1665 C1684 0.951 . S
H1666 C1686 0.950 . S
H1667 C1687 0.950 . S
H1668 C1689 0.950 . S
H1669 C1692 0.942 1_554 S
H1670 C1693 0.950 1_554 S
H1671 C1695 0.950 . S
H1672 C1696 0.950 . S
H1673 C1697 0.951 . S
H1674 C1699 0.951 . S
H1675 C1701 0.950 . S
H1676 C1702 0.950 . S
H1677 C1704 0.950 . S
H1678 C1707 0.950 . S
H1679 C1708 0.950 . S
H1680 C1710 0.950 . S
H1681 C1711 0.950 . S
C1682 H1664 0.951 . S
C1682 C1683 1.366 . S
C1682 C1684 1.388 . S
C1683 C1682 1.366 . S
C1683 C1687 1.385 . S
C1684 H1665 0.951 . S
C1684 C1682 1.388 . S
C1684 C1685 1.366 . S
C1685 C1684 1.366 . S
C1685 C1686 1.414 . S
C1685 C1688 1.499 . S
C1686 H1666 0.950 . S
C1686 C1685 1.414 . S
C1686 C1687 1.374 . S
C1687 H1667 0.950 . S
C1687 C1683 1.385 . S
C1687 C1686 1.374 . S
C1688 C1685 1.499 . S
C1688 C1689 1.373 . S
C1688 C1690 1.389 1_554 S
C1689 H1668 0.950 . S
C1689 C1688 1.373 . S
C1689 C1705 1.377 1_554 S
C1690 C1688 1.389 1_556 S
C1690 C1691 1.524 . S
C1690 C1704 1.377 . S
C1691 C1690 1.524 . S
C1691 C1692 1.405 . S
C1691 C1696 1.363 . S
C1692 H1669 0.942 1_556 S
C1692 C1691 1.405 . S
C1692 C1693 1.333 . S
C1693 H1670 0.950 1_556 S
C1693 C1692 1.333 . S
C1693 C1694 1.287 . S
C1694 C1693 1.287 . S
C1694 C1695 1.524 . S
C1694 H1713 0.913 . S
C1695 H1671 0.950 . S
C1695 C1694 1.524 . S
C1695 C1696 1.415 . S
C1696 H1672 0.950 . S
C1696 C1691 1.363 . S
C1696 C1695 1.415 . S
C1697 H1673 0.951 . S
C1697 C1698 1.366 . S
C1697 C1699 1.388 . S
C1698 C1697 1.366 . S
C1698 C1702 1.385 . S
C1699 H1674 0.951 . S
C1699 C1697 1.388 . S
C1699 C1700 1.366 . S
C1700 C1699 1.366 . S
C1700 C1701 1.414 . S
C1700 C1703 1.499 . S
C1701 H1675 0.950 . S
C1701 C1700 1.414 . S
C1701 C1702 1.374 . S
C1702 H1676 0.950 . S
C1702 C1698 1.385 . S
C1702 C1701 1.374 . S
C1703 C1700 1.499 . S
C1703 C1704 1.373 . S
C1703 C1705 1.389 . S
C1704 H1677 0.950 . S
C1704 C1690 1.377 . S
C1704 C1703 1.373 . S
C1705 C1689 1.377 1_556 S
C1705 C1703 1.389 . S
C1705 C1706 1.524 . S
C1706 C1705 1.524 . S
C1706 C1707 1.397 . S
C1706 C1711 1.363 . S
C1707 H1678 0.950 . S
C1707 C1706 1.397 . S
C1707 C1708 1.334 . S
C1708 H1679 0.950 . S
C1708 C1707 1.334 . S
C1708 C1709 1.287 . S
C1709 C1708 1.287 . S
C1709 C1710 1.524 . S
C1709 H1712 0.999 . S
C1710 H1680 0.950 . S
C1710 C1709 1.524 . S
C1710 C1711 1.415 . S
C1711 H1681 0.950 . S
C1711 C1706 1.363 . S
C1711 C1710 1.415 . S
H1712 C1709 0.999 . S
H1713 C1694 0.913 . S
H1714 C1732 0.951 . S
H1715 C1734 0.951 . S
H1716 C1736 0.950 . S
H1717 C1737 0.950 . S
H1718 C1739 0.950 . S
H1719 C1742 0.950 . S
H1720 C1743 0.950 . S
H1721 C1745 0.950 . S
H1722 C1746 0.950 . S
H1723 C1747 0.951 . S
H1724 C1749 0.951 . S
H1725 C1751 0.950 . S
H1726 C1752 0.950 . S
H1727 C1754 0.950 . S
H1728 C1757 0.950 . S
H1729 C1758 0.950 . S
H1730 C1760 0.950 . S
H1731 C1761 0.950 . S
C1732 H1714 0.951 . S
C1732 C1733 1.366 . S
C1732 C1734 1.388 . S
C1733 C1732 1.366 . S
C1733 C1737 1.385 . S
C1734 H1715 0.951 . S
C1734 C1732 1.388 . S
C1734 C1735 1.366 . S
C1735 C1734 1.366 . S
C1735 C1736 1.414 . S
C1735 C1738 1.499 . S
C1736 H1716 0.950 . S
C1736 C1735 1.414 . S
C1736 C1737 1.374 . S
C1737 H1717 0.950 . S
C1737 C1733 1.385 . S
C1737 C1736 1.374 . S
C1738 C1735 1.499 . S
C1738 C1739 1.373 . S
C1738 C1740 1.389 . S
C1739 H1718 0.950 . S
C1739 C1738 1.373 . S
C1739 C1755 1.377 . S
C1740 C1738 1.389 . S
C1740 C1741 1.524 . S
C1740 C1754 1.377 1_556 S
C1741 C1740 1.524 . S
C1741 C1742 1.397 . S
C1741 C1746 1.363 1_556 S
C1742 H1719 0.950 . S
C1742 C1741 1.397 . S
C1742 C1743 1.334 . S
C1743 H1720 0.950 . S
C1743 C1742 1.334 . S
C1743 C1744 1.287 . S
C1744 C1743 1.287 . S
C1744 C1745 1.524 1_556 S
C1744 H1763 0.913 . S
C1745 H1721 0.950 . S
C1745 C1744 1.524 1_554 S
C1745 C1746 1.415 . S
C1746 H1722 0.950 . S
C1746 C1741 1.363 1_554 S
C1746 C1745 1.415 . S
C1747 H1723 0.951 . S
C1747 C1748 1.366 . S
C1747 C1749 1.388 . S
C1748 C1747 1.366 . S
C1748 C1752 1.385 . S
C1749 H1724 0.951 . S
C1749 C1747 1.388 . S
C1749 C1750 1.366 . S
C1750 C1749 1.366 . S
C1750 C1751 1.414 . S
C1750 C1753 1.499 . S
C1751 H1725 0.950 . S
C1751 C1750 1.414 . S
C1751 C1752 1.374 . S
C1752 H1726 0.950 . S
C1752 C1748 1.385 . S
C1752 C1751 1.374 . S
C1753 C1750 1.499 . S
C1753 C1754 1.373 . S
C1753 C1755 1.389 1_554 S
C1754 H1727 0.950 . S
C1754 C1740 1.377 1_554 S
C1754 C1753 1.373 . S
C1755 C1739 1.377 . S
C1755 C1753 1.389 1_556 S
C1755 C1756 1.524 . S
C1756 C1755 1.524 . S
C1756 C1757 1.397 1_556 S
C1756 C1761 1.363 . S
C1757 H1728 0.950 . S
C1757 C1756 1.397 1_554 S
C1757 C1758 1.334 . S
C1758 H1729 0.950 . S
C1758 C1757 1.334 . S
C1758 C1759 1.287 1_554 S
C1759 C1758 1.287 1_556 S
C1759 C1760 1.524 . S
C1759 H1762 0.999 . S
C1760 H1730 0.950 . S
C1760 C1759 1.524 . S
C1760 C1761 1.415 . S
C1761 H1731 0.950 . S
C1761 C1756 1.363 . S
C1761 C1760 1.415 . S
H1762 C1759 0.999 . S
H1763 C1744 0.913 . S
H1764 C1782 0.951 . S
H1765 C1784 0.951 . S
H1766 C1786 0.950 . S
H1767 C1787 0.950 . S
H1768 C1789 0.950 . S
H1769 C1792 0.950 . S
H1770 C1793 0.950 . S
H1771 C1795 0.950 . S
H1772 C1796 0.950 . S
H1773 C1797 0.951 . S
H1774 C1799 0.951 . S
H1775 C1801 0.950 . S
H1776 C1802 0.950 . S
H1777 C1804 0.950 . S
H1778 C1807 0.950 . S
H1779 C1808 0.950 . S
H1780 C1810 0.950 . S
H1781 C1811 0.950 . S
C1782 H1764 0.951 . S
C1782 C1783 1.366 . S
C1782 C1784 1.388 . S
C1783 C1782 1.366 . S
C1783 C1787 1.385 . S
C1784 H1765 0.951 . S
C1784 C1782 1.388 . S
C1784 C1785 1.366 . S
C1785 C1784 1.366 . S
C1785 C1786 1.414 . S
C1785 C1788 1.499 . S
C1786 H1766 0.950 . S
C1786 C1785 1.414 . S
C1786 C1787 1.374 . S
C1787 H1767 0.950 . S
C1787 C1783 1.385 . S
C1787 C1786 1.374 . S
C1788 C1785 1.499 . S
C1788 C1789 1.373 . S
C1788 C1790 1.389 . S
C1789 H1768 0.950 . S
C1789 C1788 1.373 . S
C1789 C1805 1.377 . S
C1790 C1788 1.389 . S
C1790 C1791 1.524 . S
C1790 C1804 1.377 . S
C1791 C1790 1.524 . S
C1791 C1792 1.397 . S
C1791 C1796 1.363 . S
C1792 H1769 0.950 . S
C1792 C1791 1.397 . S
C1792 C1793 1.334 . S
C1793 H1770 0.950 . S
C1793 C1792 1.334 . S
C1793 C1794 1.287 . S
C1794 C1793 1.287 . S
C1794 C1795 1.524 . S
C1794 H1813 0.913 . S
C1795 H1771 0.950 . S
C1795 C1794 1.524 . S
C1795 C1796 1.415 . S
C1796 H1772 0.950 . S
C1796 C1791 1.363 . S
C1796 C1795 1.415 . S
C1797 H1773 0.951 . S
C1797 C1798 1.366 . S
C1797 C1799 1.388 . S
C1798 C1797 1.366 . S
C1798 C1802 1.385 . S
C1799 H1774 0.951 . S
C1799 C1797 1.388 . S
C1799 C1800 1.366 . S
C1800 C1799 1.366 . S
C1800 C1801 1.414 . S
C1800 C1803 1.499 . S
C1801 H1775 0.950 . S
C1801 C1800 1.414 . S
C1801 C1802 1.374 . S
C1802 H1776 0.950 . S
C1802 C1798 1.385 . S
C1802 C1801 1.374 . S
C1803 C1800 1.499 . S
C1803 C1804 1.373 . S
C1803 C1805 1.389 . S
C1804 H1777 0.950 . S
C1804 C1790 1.377 . S
C1804 C1803 1.373 . S
C1805 C1789 1.377 . S
C1805 C1803 1.389 . S
C1805 C1806 1.524 . S
C1806 C1805 1.524 . S
C1806 C1807 1.397 . S
C1806 C1811 1.363 . S
C1807 H1778 0.950 . S
C1807 C1806 1.397 . S
C1807 C1808 1.334 . S
C1808 H1779 0.950 . S
C1808 C1807 1.334 . S
C1808 C1809 1.287 . S
C1809 C1808 1.287 . S
C1809 C1810 1.524 . S
C1809 H1812 0.999 . S
C1810 H1780 0.950 . S
C1810 C1809 1.524 . S
C1810 C1811 1.415 . S
C1811 H1781 0.950 . S
C1811 C1806 1.363 . S
C1811 C1810 1.415 . S
H1812 C1809 0.999 . S
H1813 C1794 0.913 . S
H1814 C1832 0.951 . S
H1815 C1834 0.951 . S
H1816 C1836 0.950 . S
H1817 C1837 0.950 . S
H1818 C1839 0.950 . S
H1819 C1842 0.950 . S
H1820 C1843 0.950 . S
H1821 C1845 0.950 . S
H1822 C1846 0.950 . S
H1823 C1847 0.951 . S
H1824 C1849 0.951 . S
H1825 C1851 0.950 . S
H1826 C1852 0.950 . S
H1827 C1854 0.950 . S
H1828 C1857 0.950 . S
H1829 C1858 0.950 . S
H1830 C1860 0.950 . S
H1831 C1861 0.950 . S
C1832 H1814 0.951 . S
C1832 C1833 1.366 . S
C1832 C1834 1.388 . S
C1833 C1832 1.366 . S
C1833 C1837 1.385 . S
C1834 H1815 0.951 . S
C1834 C1832 1.388 . S
C1834 C1835 1.366 . S
C1835 C1834 1.366 . S
C1835 C1836 1.414 . S
C1835 C1838 1.499 . S
C1836 H1816 0.950 . S
C1836 C1835 1.414 . S
C1836 C1837 1.374 . S
C1837 H1817 0.950 . S
C1837 C1833 1.385 . S
C1837 C1836 1.374 . S
C1838 C1835 1.499 . S
C1838 C1839 1.373 . S
C1838 C1840 1.389 . S
C1839 H1818 0.950 . S
C1839 C1838 1.373 . S
C1839 C1855 1.377 . S
C1840 C1838 1.389 . S
C1840 C1841 1.524 . S
C1840 C1854 1.377 . S
C1841 C1840 1.524 . S
C1841 C1842 1.397 . S
C1841 C1846 1.363 . S
C1842 H1819 0.950 . S
C1842 C1841 1.397 . S
C1842 C1843 1.334 . S
C1843 H1820 0.950 . S
C1843 C1842 1.334 . S
C1843 C1844 1.287 . S
C1844 C1843 1.287 . S
C1844 C1845 1.524 . S
C1844 H1863 0.913 . S
C1845 H1821 0.950 . S
C1845 C1844 1.524 . S
C1845 C1846 1.415 . S
C1846 H1822 0.950 . S
C1846 C1841 1.363 . S
C1846 C1845 1.415 . S
C1847 H1823 0.951 . S
C1847 C1848 1.366 . S
C1847 C1849 1.388 . S
C1848 C1847 1.366 . S
C1848 C1852 1.385 . S
C1849 H1824 0.951 . S
C1849 C1847 1.388 . S
C1849 C1850 1.366 . S
C1850 C1849 1.366 . S
C1850 C1851 1.414 . S
C1850 C1853 1.499 . S
C1851 H1825 0.950 . S
C1851 C1850 1.414 . S
C1851 C1852 1.374 . S
C1852 H1826 0.950 . S
C1852 C1848 1.385 . S
C1852 C1851 1.374 . S
C1853 C1850 1.499 . S
C1853 C1854 1.373 . S
C1853 C1855 1.389 . S
C1854 H1827 0.950 . S
C1854 C1840 1.377 . S
C1854 C1853 1.373 . S
C1855 C1839 1.377 . S
C1855 C1853 1.389 . S
C1855 C1856 1.524 . S
C1856 C1855 1.524 . S
C1856 C1857 1.397 . S
C1856 C1861 1.363 . S
C1857 H1828 0.950 . S
C1857 C1856 1.397 . S
C1857 C1858 1.334 . S
C1858 H1829 0.950 . S
C1858 C1857 1.334 . S
C1858 C1859 1.287 . S
C1859 C1858 1.287 . S
C1859 C1860 1.524 . S
C1859 H1862 0.999 . S
C1860 H1830 0.950 . S
C1860 C1859 1.524 . S
C1860 C1861 1.415 . S
C1861 H1831 0.950 . S
C1861 C1856 1.363 . S
C1861 C1860 1.415 . S
H1862 C1859 0.999 . S
H1863 C1844 0.913 . S
H1864 C1882 0.951 . S
H1865 C1884 0.951 . S
H1866 C1886 0.950 . S
H1867 C1887 0.950 . S
H1868 C1889 0.950 . S
H1869 C1892 0.950 . S
H1870 C1893 0.950 . S
H1871 C1895 0.950 . S
H1872 C1896 0.950 . S
H1873 C1897 0.951 . S
H1874 C1899 0.951 . S
H1875 C1901 0.950 . S
H1876 C1902 0.950 . S
H1877 C1904 0.950 . S
H1878 C1907 0.944 1_556 S
H1879 C1908 0.950 1_556 S
H1880 C1910 0.950 . S
H1881 C1911 0.950 . S
C1882 H1864 0.951 . S
C1882 C1883 1.366 . S
C1882 C1884 1.388 . S
C1883 C1882 1.366 . S
C1883 C1887 1.385 . S
C1884 H1865 0.951 . S
C1884 C1882 1.388 . S
C1884 C1885 1.366 . S
C1885 C1884 1.366 . S
C1885 C1886 1.414 . S
C1885 C1888 1.499 . S
C1886 H1866 0.950 . S
C1886 C1885 1.414 . S
C1886 C1887 1.374 . S
C1887 H1867 0.950 . S
C1887 C1883 1.385 . S
C1887 C1886 1.374 . S
C1888 C1885 1.499 . S
C1888 C1889 1.373 . S
C1888 C1890 1.389 . S
C1889 H1868 0.950 . S
C1889 C1888 1.373 . S
C1889 C1905 1.377 . S
C1890 C1888 1.389 . S
C1890 C1891 1.524 . S
C1890 C1904 1.377 1_554 S
C1891 C1890 1.524 . S
C1891 C1892 1.397 . S
C1891 C1896 1.363 . S
C1892 H1869 0.950 . S
C1892 C1891 1.397 . S
C1892 C1893 1.334 . S
C1893 H1870 0.950 . S
C1893 C1892 1.334 . S
C1893 C1894 1.287 . S
C1894 C1893 1.287 . S
C1894 C1895 1.524 . S
C1894 H1913 0.913 . S
C1895 H1871 0.950 . S
C1895 C1894 1.524 . S
C1895 C1896 1.415 . S
C1896 H1872 0.950 . S
C1896 C1891 1.363 . S
C1896 C1895 1.415 . S
C1897 H1873 0.951 . S
C1897 C1898 1.366 . S
C1897 C1899 1.388 . S
C1898 C1897 1.366 . S
C1898 C1902 1.385 . S
C1899 H1874 0.951 . S
C1899 C1897 1.388 . S
C1899 C1900 1.366 . S
C1900 C1899 1.366 . S
C1900 C1901 1.414 . S
C1900 C1903 1.499 . S
C1901 H1875 0.950 . S
C1901 C1900 1.414 . S
C1901 C1902 1.374 . S
C1902 H1876 0.950 . S
C1902 C1898 1.385 . S
C1902 C1901 1.374 . S
C1903 C1900 1.499 . S
C1903 C1904 1.373 . S
C1903 C1905 1.389 1_556 S
C1904 H1877 0.950 . S
C1904 C1890 1.377 1_556 S
C1904 C1903 1.373 . S
C1905 C1889 1.377 . S
C1905 C1903 1.389 1_554 S
C1905 C1906 1.524 . S
C1906 C1905 1.524 . S
C1906 C1907 1.397 . S
C1906 C1911 1.363 . S
C1907 H1878 0.944 1_554 S
C1907 C1906 1.397 . S
C1907 C1908 1.334 . S
C1908 H1879 0.950 1_554 S
C1908 C1907 1.334 . S
C1908 C1909 1.287 . S
C1909 C1908 1.287 . S
C1909 C1910 1.524 . S
C1909 H1912 0.999 . S
C1910 H1880 0.950 . S
C1910 C1909 1.524 . S
C1910 C1911 1.415 . S
C1911 H1881 0.950 . S
C1911 C1906 1.363 . S
C1911 C1910 1.415 . S
H1912 C1909 0.999 . S
H1913 C1894 0.913 . S
H1914 C1932 0.951 . S
H1915 C1934 0.951 . S
H1916 C1936 0.950 . S
H1917 C1937 0.950 . S
H1918 C1939 0.950 . S
H1919 C1942 0.950 . S
H1920 C1943 0.950 . S
H1921 C1945 0.950 1_554 S
H1922 C1946 0.950 . S
H1923 C1947 0.951 . S
H1924 C1949 0.951 . S
H1925 C1951 0.950 . S
H1926 C1952 0.950 . S
H1927 C1954 0.950 . S
H1928 C1957 0.950 . S
H1929 C1958 0.950 . S
H1930 C1960 0.950 . S
H1931 C1961 0.910 1_556 S
C1932 H1914 0.951 . S
C1932 C1933 1.366 . S
C1932 C1934 1.388 . S
C1933 C1932 1.366 . S
C1933 C1937 1.385 . S
C1934 H1915 0.951 . S
C1934 C1932 1.388 . S
C1934 C1935 1.366 . S
C1935 C1934 1.366 . S
C1935 C1936 1.414 . S
C1935 C1938 1.499 . S
C1936 H1916 0.950 . S
C1936 C1935 1.414 . S
C1936 C1937 1.374 . S
C1937 H1917 0.950 . S
C1937 C1933 1.385 . S
C1937 C1936 1.374 . S
C1938 C1935 1.499 . S
C1938 C1939 1.373 . S
C1938 C1940 1.364 1_556 S
C1939 H1918 0.950 . S
C1939 C1938 1.373 . S
C1939 C1955 1.377 1_556 S
C1940 C1938 1.364 1_554 S
C1940 C1941 1.509 1_554 S
C1940 C1954 1.420 . S
C1941 C1940 1.509 1_556 S
C1941 C1942 1.397 . S
C1941 C1946 1.363 1_556 S
C1942 H1919 0.950 . S
C1942 C1941 1.397 . S
C1942 C1943 1.334 . S
C1943 H1920 0.950 . S
C1943 C1942 1.334 . S
C1943 C1944 1.287 . S
C1944 C1943 1.287 . S
C1944 C1945 1.524 . S
C1944 H1963 0.913 . S
C1945 H1921 0.950 1_556 S
C1945 C1944 1.524 . S
C1945 C1946 1.415 1_556 S
C1946 H1922 0.950 . S
C1946 C1941 1.363 1_554 S
C1946 C1945 1.415 1_554 S
C1947 H1923 0.951 . S
C1947 C1948 1.366 . S
C1947 C1949 1.388 . S
C1948 C1947 1.366 . S
C1948 C1952 1.385 . S
C1949 H1924 0.951 . S
C1949 C1947 1.388 . S
C1949 C1950 1.366 . S
C1950 C1949 1.366 . S
C1950 C1951 1.414 . S
C1950 C1953 1.499 . S
C1951 H1925 0.950 . S
C1951 C1950 1.414 . S
C1951 C1952 1.374 . S
C1952 H1926 0.950 . S
C1952 C1948 1.385 . S
C1952 C1951 1.374 . S
C1953 C1950 1.499 . S
C1953 C1954 1.373 . S
C1953 C1955 1.389 . S
C1954 H1927 0.950 . S
C1954 C1940 1.420 . S
C1954 C1953 1.373 . S
C1955 C1939 1.377 1_554 S
C1955 C1953 1.389 . S
C1955 C1956 1.524 . S
C1956 C1955 1.524 . S
C1956 C1957 1.397 . S
C1956 C1961 1.363 . S
C1957 H1928 0.950 . S
C1957 C1956 1.397 . S
C1957 C1958 1.334 . S
C1958 H1929 0.950 . S
C1958 C1957 1.334 . S
C1958 C1959 1.287 . S
C1959 C1958 1.287 . S
C1959 C1960 1.524 . S
C1959 H1962 0.999 . S
C1960 H1930 0.950 . S
C1960 C1959 1.524 . S
C1960 C1961 1.415 . S
C1961 H1931 0.910 1_554 S
C1961 C1956 1.363 . S
C1961 C1960 1.415 . S
H1962 C1959 0.999 . S
H1963 C1944 0.913 . S
H1964 C1982 0.951 . S
H1965 C1984 0.951 . S
H1966 C1986 0.950 . S
H1967 C1987 0.950 . S
H1968 C1989 0.950 . S
H1969 C1992 0.950 . S
H1970 C1993 0.950 . S
H1971 C1995 0.950 . S
H1972 C1996 0.950 . S
H1973 C1997 0.951 . S
H1974 C1999 0.951 . S
H1975 C2001 0.950 . S
H1976 C2002 0.950 . S
H1977 C2004 0.950 . S
H1978 C2007 0.950 . S
H1979 C2008 0.950 . S
H1980 C2010 0.950 . S
H1981 C2011 0.950 . S
C1982 H1964 0.951 . S
C1982 C1983 1.366 . S
C1982 C1984 1.388 . S
C1983 C1982 1.366 . S
C1983 C1987 1.385 . S
C1984 H1965 0.951 . S
C1984 C1982 1.388 . S
C1984 C1985 1.366 . S
C1985 C1984 1.366 . S
C1985 C1986 1.414 . S
C1985 C1988 1.499 . S
C1986 H1966 0.950 . S
C1986 C1985 1.414 . S
C1986 C1987 1.374 . S
C1987 H1967 0.950 . S
C1987 C1983 1.385 . S
C1987 C1986 1.374 . S
C1988 C1985 1.499 . S
C1988 C1989 1.373 . S
C1988 C1990 1.389 . S
C1989 H1968 0.950 . S
C1989 C1988 1.373 . S
C1989 C2005 1.377 . S
C1990 C1988 1.389 . S
C1990 C1991 1.524 . S
C1990 C2004 1.377 . S
C1991 C1990 1.524 . S
C1991 C1992 1.397 . S
C1991 C1996 1.363 . S
C1992 H1969 0.950 . S
C1992 C1991 1.397 . S
C1992 C1993 1.334 . S
C1993 H1970 0.950 . S
C1993 C1992 1.334 . S
C1993 C1994 1.287 . S
C1994 C1993 1.287 . S
C1994 C1995 1.524 . S
C1994 H2013 0.913 . S
C1995 H1971 0.950 . S
C1995 C1994 1.524 . S
C1995 C1996 1.415 . S
C1996 H1972 0.950 . S
C1996 C1991 1.363 . S
C1996 C1995 1.415 . S
C1997 H1973 0.951 . S
C1997 C1998 1.366 . S
C1997 C1999 1.388 . S
C1998 C1997 1.366 . S
C1998 C2002 1.385 . S
C1999 H1974 0.951 . S
C1999 C1997 1.388 . S
C1999 C2000 1.366 . S
C2000 C1999 1.366 . S
C2000 C2001 1.414 . S
C2000 C2003 1.499 . S
C2001 H1975 0.950 . S
C2001 C2000 1.414 . S
C2001 C2002 1.374 . S
C2002 H1976 0.950 . S
C2002 C1998 1.385 . S
C2002 C2001 1.374 . S
C2003 C2000 1.499 . S
C2003 C2004 1.373 . S
C2003 C2005 1.389 . S
C2004 H1977 0.950 . S
C2004 C1990 1.377 . S
C2004 C2003 1.373 . S
C2005 C1989 1.377 . S
C2005 C2003 1.389 . S
C2005 C2006 1.524 . S
C2006 C2005 1.524 . S
C2006 C2007 1.397 . S
C2006 C2011 1.363 . S
C2007 H1978 0.950 . S
C2007 C2006 1.397 . S
C2007 C2008 1.334 . S
C2008 H1979 0.950 . S
C2008 C2007 1.334 . S
C2008 C2009 1.287 . S
C2009 C2008 1.287 . S
C2009 C2010 1.524 . S
C2009 H2012 0.999 . S
C2010 H1980 0.950 . S
C2010 C2009 1.524 . S
C2010 C2011 1.415 . S
C2011 H1981 0.950 . S
C2011 C2006 1.363 . S
C2011 C2010 1.415 . S
H2012 C2009 0.999 . S
H2013 C1994 0.913 . S
H2014 C2032 0.951 . S
H2015 C2034 0.951 . S
H2016 C2036 0.950 . S
H2017 C2037 0.950 . S
H2018 C2039 0.950 . S
H2019 C2042 0.950 . S
H2020 C2043 0.950 . S
H2021 C2045 0.950 . S
H2022 C2046 0.950 . S
H2023 C2047 0.951 . S
H2024 C2049 0.951 . S
H2025 C2051 0.950 . S
H2026 C2052 0.950 . S
H2027 C2054 0.950 . S
H2028 C2057 0.950 . S
H2029 C2058 0.950 . S
H2030 C2060 0.950 . S
H2031 C2061 0.950 . S
C2032 H2014 0.951 . S
C2032 C2033 1.366 . S
C2032 C2034 1.388 . S
C2033 C2032 1.366 . S
C2033 C2037 1.385 . S
C2034 H2015 0.951 . S
C2034 C2032 1.388 . S
C2034 C2035 1.366 . S
C2035 C2034 1.366 . S
C2035 C2036 1.414 . S
C2035 C2038 1.499 . S
C2036 H2016 0.950 . S
C2036 C2035 1.414 . S
C2036 C2037 1.374 . S
C2037 H2017 0.950 . S
C2037 C2033 1.385 . S
C2037 C2036 1.374 . S
C2038 C2035 1.499 . S
C2038 C2039 1.373 . S
C2038 C2040 1.389 . S
C2039 H2018 0.950 . S
C2039 C2038 1.373 . S
C2039 C2055 1.377 . S
C2040 C2038 1.389 . S
C2040 C2041 1.524 . S
C2040 C2054 1.377 . S
C2041 C2040 1.524 . S
C2041 C2042 1.397 . S
C2041 C2046 1.363 . S
C2042 H2019 0.950 . S
C2042 C2041 1.397 . S
C2042 C2043 1.334 . S
C2043 H2020 0.950 . S
C2043 C2042 1.334 . S
C2043 C2044 1.287 . S
C2044 C2043 1.287 . S
C2044 C2045 1.524 . S
C2044 H2063 0.913 . S
C2045 H2021 0.950 . S
C2045 C2044 1.524 . S
C2045 C2046 1.415 . S
C2046 H2022 0.950 . S
C2046 C2041 1.363 . S
C2046 C2045 1.415 . S
C2047 H2023 0.951 . S
C2047 C2048 1.366 . S
C2047 C2049 1.388 . S
C2048 C2047 1.366 . S
C2048 C2052 1.385 . S
C2049 H2024 0.951 . S
C2049 C2047 1.388 . S
C2049 C2050 1.366 . S
C2050 C2049 1.366 . S
C2050 C2051 1.414 . S
C2050 C2053 1.499 . S
C2051 H2025 0.950 . S
C2051 C2050 1.414 . S
C2051 C2052 1.374 . S
C2052 H2026 0.950 . S
C2052 C2048 1.385 . S
C2052 C2051 1.374 . S
C2053 C2050 1.499 . S
C2053 C2054 1.373 . S
C2053 C2055 1.389 . S
C2054 H2027 0.950 . S
C2054 C2040 1.377 . S
C2054 C2053 1.373 . S
C2055 C2039 1.377 . S
C2055 C2053 1.389 . S
C2055 C2056 1.524 . S
C2056 C2055 1.524 . S
C2056 C2057 1.397 . S
C2056 C2061 1.363 . S
C2057 H2028 0.950 . S
C2057 C2056 1.397 . S
C2057 C2058 1.334 . S
C2058 H2029 0.950 . S
C2058 C2057 1.334 . S
C2058 C2059 1.287 . S
C2059 C2058 1.287 . S
C2059 C2060 1.524 . S
C2059 H2062 0.999 . S
C2060 H2030 0.950 . S
C2060 C2059 1.524 . S
C2060 C2061 1.415 . S
C2061 H2031 0.950 . S
C2061 C2056 1.363 . S
C2061 C2060 1.415 . S
H2062 C2059 0.999 . S
H2063 C2044 0.913 . S
H2064 C2082 0.951 . S
H2065 C2084 0.951 . S
H2066 C2086 0.950 . S
H2067 C2087 0.950 . S
H2068 C2089 0.950 . S
H2069 C2092 0.950 . S
H2070 C2093 0.950 . S
H2071 C2095 0.950 . S
H2072 C2096 0.950 . S
H2073 C2097 0.951 . S
H2074 C2099 0.951 . S
H2075 C2101 0.950 . S
H2076 C2102 0.950 . S
H2077 C2104 0.950 . S
H2078 C2107 0.950 . S
H2079 C2108 0.950 . S
H2080 C2110 0.950 . S
H2081 C2111 0.950 . S
C2082 H2064 0.951 . S
C2082 C2083 1.366 . S
C2082 C2084 1.388 . S
C2083 C2082 1.366 . S
C2083 C2087 1.385 . S
C2084 H2065 0.951 . S
C2084 C2082 1.388 . S
C2084 C2085 1.366 . S
C2085 C2084 1.366 . S
C2085 C2086 1.414 . S
C2085 C2088 1.499 . S
C2086 H2066 0.950 . S
C2086 C2085 1.414 . S
C2086 C2087 1.374 . S
C2087 H2067 0.950 . S
C2087 C2083 1.385 . S
C2087 C2086 1.374 . S
C2088 C2085 1.499 . S
C2088 C2089 1.373 1_545 S
C2088 C2090 1.389 . S
C2089 H2068 0.950 . S
C2089 C2088 1.373 1_565 S
C2089 C2105 1.377 . S
C2090 C2088 1.389 . S
C2090 C2091 1.524 . S
C2090 C2104 1.377 . S
C2091 C2090 1.524 . S
C2091 C2092 1.397 . S
C2091 C2096 1.363 . S
C2092 H2069 0.950 . S
C2092 C2091 1.397 . S
C2092 C2093 1.334 . S
C2093 H2070 0.950 . S
C2093 C2092 1.334 . S
C2093 C2094 1.287 . S
C2094 C2093 1.287 . S
C2094 C2095 1.524 . S
C2094 H2113 0.913 . S
C2095 H2071 0.950 . S
C2095 C2094 1.524 . S
C2095 C2096 1.415 . S
C2096 H2072 0.950 . S
C2096 C2091 1.363 . S
C2096 C2095 1.415 . S
C2097 H2073 0.951 . S
C2097 C2098 1.366 . S
C2097 C2099 1.388 . S
C2098 C2097 1.366 . S
C2098 C2102 1.385 . S
C2099 H2074 0.951 . S
C2099 C2097 1.388 . S
C2099 C2100 1.366 . S
C2100 C2099 1.366 . S
C2100 C2101 1.414 . S
C2100 C2103 1.499 . S
C2101 H2075 0.950 . S
C2101 C2100 1.414 . S
C2101 C2102 1.374 . S
C2102 H2076 0.950 . S
C2102 C2098 1.385 . S
C2102 C2101 1.374 . S
C2103 C2100 1.499 . S
C2103 C2104 1.373 1_565 S
C2103 C2105 1.389 . S
C2104 H2077 0.950 . S
C2104 C2090 1.377 . S
C2104 C2103 1.373 1_545 S
C2105 C2089 1.377 . S
C2105 C2103 1.389 . S
C2105 C2106 1.524 . S
C2106 C2105 1.524 . S
C2106 C2107 1.397 . S
C2106 C2111 1.363 . S
C2107 H2078 0.950 . S
C2107 C2106 1.397 . S
C2107 C2108 1.334 . S
C2108 H2079 0.950 . S
C2108 C2107 1.334 . S
C2108 C2109 1.287 . S
C2109 C2108 1.287 . S
C2109 C2110 1.524 . S
C2109 H2112 0.999 . S
C2110 H2080 0.950 . S
C2110 C2109 1.524 . S
C2110 C2111 1.415 . S
C2111 H2081 0.950 . S
C2111 C2106 1.363 . S
C2111 C2110 1.415 . S
H2112 C2109 0.999 . S
H2113 C2094 0.913 . S
H2114 C2132 0.951 . S
H2115 C2134 0.951 . S
H2116 C2136 0.950 . S
H2117 C2137 0.950 . S
H2118 C2139 0.950 . S
H2119 C2142 0.950 . S
H2120 C2143 0.950 . S
H2121 C2145 0.950 . S
H2122 C2146 0.950 . S
H2123 C2147 0.951 . S
H2124 C2149 0.951 . S
H2125 C2151 0.950 . S
H2126 C2152 0.950 . S
H2127 C2154 0.950 . S
H2128 C2157 0.950 . S
H2129 C2158 0.950 . S
H2130 C2160 0.950 . S
H2131 C2161 0.950 . S
C2132 H2114 0.951 . S
C2132 C2133 1.366 . S
C2132 C2134 1.388 . S
C2133 C2132 1.366 . S
C2133 C2137 1.385 . S
C2134 H2115 0.951 . S
C2134 C2132 1.388 . S
C2134 C2135 1.366 . S
C2135 C2134 1.366 . S
C2135 C2136 1.414 . S
C2135 C2138 1.499 . S
C2136 H2116 0.950 . S
C2136 C2135 1.414 . S
C2136 C2137 1.374 . S
C2137 H2117 0.950 . S
C2137 C2133 1.385 . S
C2137 C2136 1.374 . S
C2138 C2135 1.499 . S
C2138 C2139 1.399 . S
C2138 C2140 1.389 . S
C2139 H2118 0.950 . S
C2139 C2138 1.399 . S
C2139 C2155 1.350 1_545 S
C2140 C2138 1.389 . S
C2140 C2141 1.524 . S
C2140 C2154 1.350 1_545 S
C2141 C2140 1.524 . S
C2141 C2142 1.397 . S
C2141 C2146 1.363 . S
C2142 H2119 0.950 . S
C2142 C2141 1.397 . S
C2142 C2143 1.334 . S
C2143 H2120 0.950 . S
C2143 C2142 1.334 . S
C2143 C2144 1.287 . S
C2144 C2143 1.287 . S
C2144 C2145 1.524 . S
C2144 H2163 0.913 . S
C2145 H2121 0.950 . S
C2145 C2144 1.524 . S
C2145 C2146 1.415 . S
C2146 H2122 0.950 . S
C2146 C2141 1.363 . S
C2146 C2145 1.415 . S
C2147 H2123 0.951 . S
C2147 C2148 1.366 . S
C2147 C2149 1.388 . S
C2148 C2147 1.366 . S
C2148 C2152 1.385 . S
C2149 H2124 0.951 . S
C2149 C2147 1.388 . S
C2149 C2150 1.366 . S
C2150 C2149 1.366 . S
C2150 C2151 1.414 . S
C2150 C2153 1.499 . S
C2151 H2125 0.950 . S
C2151 C2150 1.414 . S
C2151 C2152 1.374 . S
C2152 H2126 0.950 . S
C2152 C2148 1.385 . S
C2152 C2151 1.374 . S
C2153 C2150 1.499 . S
C2153 C2154 1.399 . S
C2153 C2155 1.389 . S
C2154 H2127 0.950 . S
C2154 C2140 1.350 1_565 S
C2154 C2153 1.399 . S
C2155 C2139 1.350 1_565 S
C2155 C2153 1.389 . S
C2155 C2156 1.524 . S
C2156 C2155 1.524 . S
C2156 C2157 1.397 . S
C2156 C2161 1.363 . S
C2157 H2128 0.950 . S
C2157 C2156 1.397 . S
C2157 C2158 1.334 . S
C2158 H2129 0.950 . S
C2158 C2157 1.334 . S
C2158 C2159 1.287 . S
C2159 C2158 1.287 . S
C2159 C2160 1.524 . S
C2159 H2162 0.999 . S
C2160 H2130 0.950 . S
C2160 C2159 1.524 . S
C2160 C2161 1.415 . S
C2161 H2131 0.950 . S
C2161 C2156 1.363 . S
C2161 C2160 1.415 . S
H2162 C2159 0.999 . S
H2163 C2144 0.913 . S
H2164 C2182 0.951 . S
H2165 C2184 0.951 . S
H2166 C2186 0.950 . S
H2167 C2187 0.950 . S
H2168 C2189 0.950 . S
H2169 C2192 0.942 1_565 S
H2170 C2193 0.950 . S
H2171 C2195 0.950 . S
H2172 C2196 0.950 . S
H2173 C2197 0.951 . S
H2174 C2199 0.951 . S
H2175 C2201 0.950 . S
H2176 C2202 0.950 . S
H2177 C2204 0.950 . S
H2178 C2207 0.942 1_545 S
H2179 C2208 0.950 . S
H2180 C2210 0.950 . S
H2181 C2211 0.950 . S
C2182 H2164 0.951 . S
C2182 C2183 1.366 . S
C2182 C2184 1.388 . S
C2183 C2182 1.366 . S
C2183 C2187 1.385 . S
C2184 H2165 0.951 . S
C2184 C2182 1.388 . S
C2184 C2185 1.366 . S
C2185 C2184 1.366 . S
C2185 C2186 1.414 . S
C2185 C2188 1.499 . S
C2186 H2166 0.950 . S
C2186 C2185 1.414 . S
C2186 C2187 1.374 . S
C2187 H2167 0.950 . S
C2187 C2183 1.385 . S
C2187 C2186 1.374 . S
C2188 C2185 1.499 . S
C2188 C2189 1.373 . S
C2188 C2190 1.389 1_565 S
C2189 H2168 0.950 . S
C2189 C2188 1.373 . S
C2189 C2205 1.377 . S
C2190 C2188 1.389 1_545 S
C2190 C2191 1.524 . S
C2190 C2204 1.377 . S
C2191 C2190 1.524 . S
C2191 C2192 1.397 . S
C2191 C2196 1.363 . S
C2192 H2169 0.942 1_545 S
C2192 C2191 1.397 . S
C2192 C2193 1.334 . S
C2193 H2170 0.950 . S
C2193 C2192 1.334 . S
C2193 C2194 1.287 . S
C2194 C2193 1.287 . S
C2194 C2195 1.524 . S
C2194 H2213 0.913 . S
C2195 H2171 0.950 . S
C2195 C2194 1.524 . S
C2195 C2196 1.415 . S
C2196 H2172 0.950 . S
C2196 C2191 1.363 . S
C2196 C2195 1.415 . S
C2197 H2173 0.951 . S
C2197 C2198 1.366 . S
C2197 C2199 1.388 . S
C2198 C2197 1.366 . S
C2198 C2202 1.385 . S
C2199 H2174 0.951 . S
C2199 C2197 1.388 . S
C2199 C2200 1.366 . S
C2200 C2199 1.366 . S
C2200 C2201 1.414 . S
C2200 C2203 1.499 . S
C2201 H2175 0.950 . S
C2201 C2200 1.414 . S
C2201 C2202 1.374 . S
C2202 H2176 0.950 . S
C2202 C2198 1.385 . S
C2202 C2201 1.374 . S
C2203 C2200 1.499 . S
C2203 C2204 1.373 . S
C2203 C2205 1.389 1_545 S
C2204 H2177 0.950 . S
C2204 C2190 1.377 . S
C2204 C2203 1.373 . S
C2205 C2189 1.377 . S
C2205 C2203 1.389 1_565 S
C2205 C2206 1.524 . S
C2206 C2205 1.524 . S
C2206 C2207 1.397 . S
C2206 C2211 1.363 . S
C2207 H2178 0.942 1_565 S
C2207 C2206 1.397 . S
C2207 C2208 1.334 . S
C2208 H2179 0.950 . S
C2208 C2207 1.334 . S
C2208 C2209 1.287 . S
C2209 C2208 1.287 . S
C2209 C2210 1.524 . S
C2209 H2212 0.999 . S
C2210 H2180 0.950 . S
C2210 C2209 1.524 . S
C2210 C2211 1.415 . S
C2211 H2181 0.950 . S
C2211 C2206 1.363 . S
C2211 C2210 1.415 . S
H2212 C2209 0.999 . S
H2213 C2194 0.913 . S
H2214 C2232 0.951 . S
H2215 C2234 0.951 . S
H2216 C2236 0.950 . S
H2217 C2237 0.950 . S
H2218 C2239 0.950 . S
H2219 C2242 0.950 . S
H2220 C2243 0.950 . S
H2221 C2245 0.950 . S
H2222 C2246 0.950 . S
H2223 C2247 0.951 . S
H2224 C2249 0.951 . S
H2225 C2251 0.950 . S
H2226 C2252 0.950 . S
H2227 C2254 0.950 . S
H2228 C2257 0.950 . S
H2229 C2258 0.950 . S
H2230 C2260 0.950 . S
H2231 C2261 0.950 . S
C2232 H2214 0.951 . S
C2232 C2233 1.366 . S
C2232 C2234 1.388 . S
C2233 C2232 1.366 . S
C2233 C2237 1.385 . S
C2234 H2215 0.951 . S
C2234 C2232 1.388 . S
C2234 C2235 1.366 . S
C2235 C2234 1.366 . S
C2235 C2236 1.414 . S
C2235 C2238 1.499 . S
C2236 H2216 0.950 . S
C2236 C2235 1.414 . S
C2236 C2237 1.374 . S
C2237 H2217 0.950 . S
C2237 C2233 1.385 . S
C2237 C2236 1.374 . S
C2238 C2235 1.499 . S
C2238 C2239 1.373 . S
C2238 C2240 1.389 . S
C2239 H2218 0.950 . S
C2239 C2238 1.373 . S
C2239 C2255 1.377 1_565 S
C2240 C2238 1.389 . S
C2240 C2241 1.524 . S
C2240 C2254 1.377 1_565 S
C2241 C2240 1.524 . S
C2241 C2242 1.397 . S
C2241 C2246 1.363 . S
C2242 H2219 0.950 . S
C2242 C2241 1.397 . S
C2242 C2243 1.334 . S
C2243 H2220 0.950 . S
C2243 C2242 1.334 . S
C2243 C2244 1.287 . S
C2244 C2243 1.287 . S
C2244 C2245 1.524 . S
C2244 H2263 0.913 . S
C2245 H2221 0.950 . S
C2245 C2244 1.524 . S
C2245 C2246 1.415 . S
C2246 H2222 0.950 . S
C2246 C2241 1.363 . S
C2246 C2245 1.415 . S
C2247 H2223 0.951 . S
C2247 C2248 1.366 . S
C2247 C2249 1.388 . S
C2248 C2247 1.366 . S
C2248 C2252 1.385 . S
C2249 H2224 0.951 . S
C2249 C2247 1.388 . S
C2249 C2250 1.366 . S
C2250 C2249 1.366 . S
C2250 C2251 1.414 . S
C2250 C2253 1.499 . S
C2251 H2225 0.950 . S
C2251 C2250 1.414 . S
C2251 C2252 1.374 . S
C2252 H2226 0.950 . S
C2252 C2248 1.385 . S
C2252 C2251 1.374 . S
C2253 C2250 1.499 . S
C2253 C2254 1.373 . S
C2253 C2255 1.389 . S
C2254 H2227 0.950 . S
C2254 C2240 1.377 1_545 S
C2254 C2253 1.373 . S
C2255 C2239 1.377 1_545 S
C2255 C2253 1.389 . S
C2255 C2256 1.524 . S
C2256 C2255 1.524 . S
C2256 C2257 1.397 . S
C2256 C2261 1.363 . S
C2257 H2228 0.950 . S
C2257 C2256 1.397 . S
C2257 C2258 1.334 . S
C2258 H2229 0.950 . S
C2258 C2257 1.334 . S
C2258 C2259 1.287 . S
C2259 C2258 1.287 . S
C2259 C2260 1.524 . S
C2259 H2262 0.999 . S
C2260 H2230 0.950 . S
C2260 C2259 1.524 . S
C2260 C2261 1.415 . S
C2261 H2231 0.950 . S
C2261 C2256 1.363 . S
C2261 C2260 1.415 . S
H2262 C2259 0.999 . S
H2263 C2244 0.913 . S
H2264 C2282 0.951 . S
H2265 C2284 0.951 . S
H2266 C2286 0.950 . S
H2267 C2287 0.950 . S
H2268 C2289 0.950 . S
H2269 C2292 0.950 . S
H2270 C2293 0.950 . S
H2271 C2295 0.950 . S
H2272 C2296 0.950 . S
H2273 C2297 0.951 . S
H2274 C2299 0.951 . S
H2275 C2301 0.950 . S
H2276 C2302 0.950 . S
H2277 C2304 0.950 . S
H2278 C2307 0.950 . S
H2279 C2308 0.950 . S
H2280 C2310 0.950 . S
H2281 C2311 0.950 . S
C2282 H2264 0.951 . S
C2282 C2283 1.366 . S
C2282 C2284 1.388 . S
C2283 C2282 1.366 . S
C2283 C2287 1.385 . S
C2284 H2265 0.951 . S
C2284 C2282 1.388 . S
C2284 C2285 1.366 . S
C2285 C2284 1.366 . S
C2285 C2286 1.414 . S
C2285 C2288 1.499 . S
C2286 H2266 0.950 . S
C2286 C2285 1.414 . S
C2286 C2287 1.374 . S
C2287 H2267 0.950 . S
C2287 C2283 1.385 . S
C2287 C2286 1.374 . S
C2288 C2285 1.499 . S
C2288 C2289 1.373 . S
C2288 C2290 1.389 . S
C2289 H2268 0.950 . S
C2289 C2288 1.373 . S
C2289 C2305 1.377 . S
C2290 C2288 1.389 . S
C2290 C2291 1.524 . S
C2290 C2304 1.377 . S
C2291 C2290 1.524 . S
C2291 C2292 1.397 . S
C2291 C2296 1.363 . S
C2292 H2269 0.950 . S
C2292 C2291 1.397 . S
C2292 C2293 1.334 . S
C2293 H2270 0.950 . S
C2293 C2292 1.334 . S
C2293 C2294 1.287 . S
C2294 C2293 1.287 . S
C2294 C2295 1.524 . S
C2294 H2313 0.913 . S
C2295 H2271 0.950 . S
C2295 C2294 1.524 . S
C2295 C2296 1.415 . S
C2296 H2272 0.950 . S
C2296 C2291 1.363 . S
C2296 C2295 1.415 . S
C2297 H2273 0.951 . S
C2297 C2298 1.366 . S
C2297 C2299 1.388 . S
C2298 C2297 1.366 . S
C2298 C2302 1.385 . S
C2299 H2274 0.951 . S
C2299 C2297 1.388 . S
C2299 C2300 1.366 . S
C2300 C2299 1.366 . S
C2300 C2301 1.414 . S
C2300 C2303 1.499 . S
C2301 H2275 0.950 . S
C2301 C2300 1.414 . S
C2301 C2302 1.374 . S
C2302 H2276 0.950 . S
C2302 C2298 1.385 . S
C2302 C2301 1.374 . S
C2303 C2300 1.499 . S
C2303 C2304 1.373 . S
C2303 C2305 1.389 . S
C2304 H2277 0.950 . S
C2304 C2290 1.377 . S
C2304 C2303 1.373 . S
C2305 C2289 1.377 . S
C2305 C2303 1.389 . S
C2305 C2306 1.524 . S
C2306 C2305 1.524 . S
C2306 C2307 1.397 . S
C2306 C2311 1.363 . S
C2307 H2278 0.950 . S
C2307 C2306 1.397 . S
C2307 C2308 1.334 . S
C2308 H2279 0.950 . S
C2308 C2307 1.334 . S
C2308 C2309 1.287 . S
C2309 C2308 1.287 . S
C2309 C2310 1.524 . S
C2309 H2312 0.999 . S
C2310 H2280 0.950 . S
C2310 C2309 1.524 . S
C2310 C2311 1.415 . S
C2311 H2281 0.950 . S
C2311 C2306 1.363 . S
C2311 C2310 1.415 . S
H2312 C2309 0.999 . S
H2313 C2294 0.913 . S
H2314 C2332 0.951 . S
H2315 C2334 0.951 . S
H2316 C2336 0.950 . S
H2317 C2337 0.950 . S
H2318 C2339 0.950 . S
H2319 C2342 0.950 . S
H2320 C2343 0.950 . S
H2321 C2345 0.950 . S
H2322 C2346 0.950 . S
H2323 C2347 0.951 . S
H2324 C2349 0.951 . S
H2325 C2351 0.950 . S
H2326 C2352 0.950 . S
H2327 C2354 0.950 . S
H2328 C2357 0.950 . S
H2329 C2358 0.950 . S
H2330 C2360 0.950 . S
H2331 C2361 0.950 . S
C2332 H2314 0.951 . S
C2332 C2333 1.366 . S
C2332 C2334 1.388 . S
C2333 C2332 1.366 . S
C2333 C2337 1.385 . S
C2334 H2315 0.951 . S
C2334 C2332 1.388 . S
C2334 C2335 1.366 . S
C2335 C2334 1.366 . S
C2335 C2336 1.414 . S
C2335 C2338 1.499 . S
C2336 H2316 0.950 . S
C2336 C2335 1.414 . S
C2336 C2337 1.374 . S
C2337 H2317 0.950 . S
C2337 C2333 1.385 . S
C2337 C2336 1.374 . S
C2338 C2335 1.499 . S
C2338 C2339 1.373 . S
C2338 C2340 1.389 . S
C2339 H2318 0.950 . S
C2339 C2338 1.373 . S
C2339 C2355 1.377 . S
C2340 C2338 1.389 . S
C2340 C2341 1.524 . S
C2340 C2354 1.377 . S
C2341 C2340 1.524 . S
C2341 C2342 1.397 . S
C2341 C2346 1.363 . S
C2342 H2319 0.950 . S
C2342 C2341 1.397 . S
C2342 C2343 1.334 . S
C2343 H2320 0.950 . S
C2343 C2342 1.334 . S
C2343 C2344 1.287 . S
C2344 C2343 1.287 . S
C2344 C2345 1.524 . S
C2344 H2363 0.913 . S
C2345 H2321 0.950 . S
C2345 C2344 1.524 . S
C2345 C2346 1.415 . S
C2346 H2322 0.950 . S
C2346 C2341 1.363 . S
C2346 C2345 1.415 . S
C2347 H2323 0.951 . S
C2347 C2348 1.366 . S
C2347 C2349 1.388 . S
C2348 C2347 1.366 . S
C2348 C2352 1.385 . S
C2349 H2324 0.951 . S
C2349 C2347 1.388 . S
C2349 C2350 1.366 . S
C2350 C2349 1.366 . S
C2350 C2351 1.414 . S
C2350 C2353 1.499 . S
C2351 H2325 0.950 . S
C2351 C2350 1.414 . S
C2351 C2352 1.374 . S
C2352 H2326 0.950 . S
C2352 C2348 1.385 . S
C2352 C2351 1.374 . S
C2353 C2350 1.499 . S
C2353 C2354 1.373 . S
C2353 C2355 1.389 . S
C2354 H2327 0.950 . S
C2354 C2340 1.377 . S
C2354 C2353 1.373 . S
C2355 C2339 1.377 . S
C2355 C2353 1.389 . S
C2355 C2356 1.524 . S
C2356 C2355 1.524 . S
C2356 C2357 1.397 . S
C2356 C2361 1.363 . S
C2357 H2328 0.950 . S
C2357 C2356 1.397 . S
C2357 C2358 1.334 . S
C2358 H2329 0.950 . S
C2358 C2357 1.334 . S
C2358 C2359 1.287 . S
C2359 C2358 1.287 . S
C2359 C2360 1.524 . S
C2359 H2362 0.999 . S
C2360 H2330 0.950 . S
C2360 C2359 1.524 . S
C2360 C2361 1.415 . S
C2361 H2331 0.950 . S
C2361 C2356 1.363 . S
C2361 C2360 1.415 . S
H2362 C2359 0.999 . S
H2363 C2344 0.913 . S
H2364 C2382 0.951 . S
H2365 C2384 0.951 . S
H2366 C2386 0.950 . S
H2367 C2387 0.950 . S
H2368 C2389 0.950 . S
H2369 C2392 0.950 . S
H2370 C2393 0.950 . S
H2371 C2395 0.950 . S
H2372 C2396 0.950 . S
H2373 C2397 0.951 . S
H2374 C2399 0.951 . S
H2375 C2401 0.950 . S
H2376 C2402 0.950 . S
H2377 C2404 0.950 . S
H2378 C2407 0.950 . S
H2379 C2408 0.950 . S
H2380 C2410 0.950 . S
H2381 C2411 0.950 . S
C2382 H2364 0.951 . S
C2382 C2383 1.366 . S
C2382 C2384 1.388 . S
C2383 C2382 1.366 . S
C2383 C2387 1.385 . S
C2384 H2365 0.951 . S
C2384 C2382 1.388 . S
C2384 C2385 1.366 . S
C2385 C2384 1.366 . S
C2385 C2386 1.414 . S
C2385 C2388 1.499 . S
C2386 H2366 0.950 . S
C2386 C2385 1.414 . S
C2386 C2387 1.374 . S
C2387 H2367 0.950 . S
C2387 C2383 1.385 . S
C2387 C2386 1.374 . S
C2388 C2385 1.499 . S
C2388 C2389 1.373 . S
C2388 C2390 1.389 . S
C2389 H2368 0.950 . S
C2389 C2388 1.373 . S
C2389 C2405 1.377 . S
C2390 C2388 1.389 . S
C2390 C2391 1.524 . S
C2390 C2404 1.377 . S
C2391 C2390 1.524 . S
C2391 C2392 1.397 . S
C2391 C2396 1.363 . S
C2392 H2369 0.950 . S
C2392 C2391 1.397 . S
C2392 C2393 1.334 . S
C2393 H2370 0.950 . S
C2393 C2392 1.334 . S
C2393 C2394 1.287 . S
C2394 C2393 1.287 . S
C2394 C2395 1.524 . S
C2394 H2413 0.913 . S
C2395 H2371 0.950 . S
C2395 C2394 1.524 . S
C2395 C2396 1.415 . S
C2396 H2372 0.950 . S
C2396 C2391 1.363 . S
C2396 C2395 1.415 . S
C2397 H2373 0.951 . S
C2397 C2398 1.366 . S
C2397 C2399 1.388 . S
C2398 C2397 1.366 . S
C2398 C2402 1.385 . S
C2399 H2374 0.951 . S
C2399 C2397 1.388 . S
C2399 C2400 1.366 . S
C2400 C2399 1.366 . S
C2400 C2401 1.414 . S
C2400 C2403 1.499 . S
C2401 H2375 0.950 . S
C2401 C2400 1.414 . S
C2401 C2402 1.374 . S
C2402 H2376 0.950 . S
C2402 C2398 1.385 . S
C2402 C2401 1.374 . S
C2403 C2400 1.499 . S
C2403 C2404 1.373 . S
C2403 C2405 1.389 . S
C2404 H2377 0.950 . S
C2404 C2390 1.377 . S
C2404 C2403 1.373 . S
C2405 C2389 1.377 . S
C2405 C2403 1.389 . S
C2405 C2406 1.524 . S
C2406 C2405 1.524 . S
C2406 C2407 1.397 . S
C2406 C2411 1.363 . S
C2407 H2378 0.950 . S
C2407 C2406 1.397 . S
C2407 C2408 1.334 . S
C2408 H2379 0.950 . S
C2408 C2407 1.334 . S
C2408 C2409 1.287 . S
C2409 C2408 1.287 . S
C2409 C2410 1.524 . S
C2409 H2412 0.999 . S
C2410 H2380 0.950 . S
C2410 C2409 1.524 . S
C2410 C2411 1.415 . S
C2411 H2381 0.950 . S
C2411 C2406 1.363 . S
C2411 C2410 1.415 . S
H2412 C2409 0.999 . S
H2413 C2394 0.913 . S
H2414 C2432 0.951 . S
H2415 C2434 0.951 . S
H2416 C2436 0.950 . S
H2417 C2437 0.950 . S
H2418 C2439 0.950 . S
H2419 C2442 0.950 . S
H2420 C2443 0.950 . S
H2421 C2445 0.950 . S
H2422 C2446 0.950 . S
H2423 C2447 0.951 . S
H2424 C2449 0.951 . S
H2425 C2451 0.950 . S
H2426 C2452 0.950 . S
H2427 C2454 0.950 . S
H2428 C2457 0.950 . S
H2429 C2458 0.950 . S
H2430 C2460 0.950 . S
H2431 C2461 0.950 . S
C2432 H2414 0.951 . S
C2432 C2433 1.366 . S
C2432 C2434 1.388 . S
C2433 C2432 1.366 . S
C2433 C2437 1.385 . S
C2434 H2415 0.951 . S
C2434 C2432 1.388 . S
C2434 C2435 1.366 . S
C2435 C2434 1.366 . S
C2435 C2436 1.414 . S
C2435 C2438 1.499 . S
C2436 H2416 0.950 . S
C2436 C2435 1.414 . S
C2436 C2437 1.374 . S
C2437 H2417 0.950 . S
C2437 C2433 1.385 . S
C2437 C2436 1.374 . S
C2438 C2435 1.499 . S
C2438 C2439 1.373 . S
C2438 C2440 1.389 . S
C2439 H2418 0.950 . S
C2439 C2438 1.373 . S
C2439 C2455 1.377 . S
C2440 C2438 1.389 . S
C2440 C2441 1.524 . S
C2440 C2454 1.377 . S
C2441 C2440 1.524 . S
C2441 C2442 1.397 . S
C2441 C2446 1.363 . S
C2442 H2419 0.950 . S
C2442 C2441 1.397 . S
C2442 C2443 1.334 . S
C2443 H2420 0.950 . S
C2443 C2442 1.334 . S
C2443 C2444 1.287 . S
C2444 C2443 1.287 . S
C2444 C2445 1.524 . S
C2444 H2463 0.913 . S
C2445 H2421 0.950 . S
C2445 C2444 1.524 . S
C2445 C2446 1.415 . S
C2446 H2422 0.950 . S
C2446 C2441 1.363 . S
C2446 C2445 1.415 . S
C2447 H2423 0.951 . S
C2447 C2448 1.366 . S
C2447 C2449 1.388 . S
C2448 C2447 1.366 . S
C2448 C2452 1.385 . S
C2449 H2424 0.951 . S
C2449 C2447 1.388 . S
C2449 C2450 1.366 . S
C2450 C2449 1.366 . S
C2450 C2451 1.414 . S
C2450 C2453 1.499 . S
C2451 H2425 0.950 . S
C2451 C2450 1.414 . S
C2451 C2452 1.374 . S
C2452 H2426 0.950 . S
C2452 C2448 1.385 . S
C2452 C2451 1.374 . S
C2453 C2450 1.499 . S
C2453 C2454 1.373 . S
C2453 C2455 1.389 . S
C2454 H2427 0.950 . S
C2454 C2440 1.377 . S
C2454 C2453 1.373 . S
C2455 C2439 1.377 . S
C2455 C2453 1.389 . S
C2455 C2456 1.524 . S
C2456 C2455 1.524 . S
C2456 C2457 1.397 . S
C2456 C2461 1.363 . S
C2457 H2428 0.950 . S
C2457 C2456 1.397 . S
C2457 C2458 1.334 . S
C2458 H2429 0.950 . S
C2458 C2457 1.334 . S
C2458 C2459 1.287 . S
C2459 C2458 1.287 . S
C2459 C2460 1.524 . S
C2459 H2462 0.999 . S
C2460 H2430 0.950 . S
C2460 C2459 1.524 . S
C2460 C2461 1.415 . S
C2461 H2431 0.950 . S
C2461 C2456 1.363 . S
C2461 C2460 1.415 . S
H2462 C2459 0.999 . S
H2463 C2444 0.913 . S
H2464 C2482 0.951 . S
H2465 C2484 0.951 . S
H2466 C2486 0.950 . S
H2467 C2487 0.950 . S
H2468 C2489 0.950 . S
H2469 C2492 0.950 1_655 S
H2470 C2493 0.950 . S
H2471 C2495 0.950 . S
H2472 C2496 0.950 . S
H2473 C2497 0.951 . S
H2474 C2499 0.951 . S
H2475 C2501 0.950 . S
H2476 C2502 0.950 . S
H2477 C2504 0.950 . S
H2478 C2507 0.950 1_455 S
H2479 C2508 0.950 . S
H2480 C2510 0.950 . S
H2481 C2511 0.950 . S
C2482 H2464 0.951 . S
C2482 C2483 1.366 . S
C2482 C2484 1.388 . S
C2483 C2482 1.366 . S
C2483 C2487 1.385 1_455 S
C2484 H2465 0.951 . S
C2484 C2482 1.388 . S
C2484 C2485 1.366 . S
C2485 C2484 1.366 . S
C2485 C2486 1.414 1_455 S
C2485 C2488 1.499 1_455 S
C2486 H2466 0.950 . S
C2486 C2485 1.414 1_655 S
C2486 C2487 1.374 . S
C2487 H2467 0.950 . S
C2487 C2483 1.385 1_655 S
C2487 C2486 1.374 . S
C2488 C2485 1.499 1_655 S
C2488 C2489 1.373 . S
C2488 C2490 1.389 1_655 S
C2489 H2468 0.950 . S
C2489 C2488 1.373 . S
C2489 C2505 1.377 . S
C2490 C2488 1.389 1_455 S
C2490 C2491 1.524 . S
C2490 C2504 1.377 . S
C2491 C2490 1.524 . S
C2491 C2492 1.397 . S
C2491 C2496 1.363 . S
C2492 H2469 0.950 1_455 S
C2492 C2491 1.397 . S
C2492 C2493 1.334 . S
C2493 H2470 0.950 . S
C2493 C2492 1.334 . S
C2493 C2494 1.287 . S
C2494 C2493 1.287 . S
C2494 C2495 1.524 . S
C2494 H2513 0.913 . S
C2495 H2471 0.950 . S
C2495 C2494 1.524 . S
C2495 C2496 1.415 . S
C2496 H2472 0.950 . S
C2496 C2491 1.363 . S
C2496 C2495 1.415 . S
C2497 H2473 0.951 . S
C2497 C2498 1.366 . S
C2497 C2499 1.388 . S
C2498 C2497 1.366 . S
C2498 C2502 1.385 1_655 S
C2499 H2474 0.951 . S
C2499 C2497 1.388 . S
C2499 C2500 1.366 . S
C2500 C2499 1.366 . S
C2500 C2501 1.414 1_655 S
C2500 C2503 1.499 1_655 S
C2501 H2475 0.950 . S
C2501 C2500 1.414 1_455 S
C2501 C2502 1.374 . S
C2502 H2476 0.950 . S
C2502 C2498 1.385 1_455 S
C2502 C2501 1.374 . S
C2503 C2500 1.499 1_455 S
C2503 C2504 1.373 . S
C2503 C2505 1.389 1_455 S
C2504 H2477 0.950 . S
C2504 C2490 1.377 . S
C2504 C2503 1.373 . S
C2505 C2489 1.377 . S
C2505 C2503 1.389 1_655 S
C2505 C2506 1.524 . S
C2506 C2505 1.524 . S
C2506 C2507 1.397 . S
C2506 C2511 1.363 . S
C2507 H2478 0.950 1_655 S
C2507 C2506 1.397 . S
C2507 C2508 1.334 . S
C2508 H2479 0.950 . S
C2508 C2507 1.334 . S
C2508 C2509 1.287 . S
C2509 C2508 1.287 . S
C2509 C2510 1.524 . S
C2509 H2512 0.999 . S
C2510 H2480 0.950 . S
C2510 C2509 1.524 . S
C2510 C2511 1.415 . S
C2511 H2481 0.950 . S
C2511 C2506 1.363 . S
C2511 C2510 1.415 . S
H2512 C2509 0.999 . S
H2513 C2494 0.913 . S
H2514 C2532 0.951 . S
H2515 C2534 0.951 . S
H2516 C2536 0.950 . S
H2517 C2537 0.950 . S
H2518 C2539 0.950 . S
H2519 C2542 0.950 . S
H2520 C2543 0.950 . S
H2521 C2545 0.950 . S
H2522 C2546 0.950 . S
H2523 C2547 0.951 . S
H2524 C2549 0.951 . S
H2525 C2551 0.950 . S
H2526 C2552 0.950 . S
H2527 C2554 0.950 . S
H2528 C2557 0.950 . S
H2529 C2558 0.950 . S
H2530 C2560 0.950 . S
H2531 C2561 0.950 . S
C2532 H2514 0.951 . S
C2532 C2533 1.366 . S
C2532 C2534 1.388 . S
C2533 C2532 1.366 . S
C2533 C2537 1.385 . S
C2534 H2515 0.951 . S
C2534 C2532 1.388 . S
C2534 C2535 1.366 . S
C2535 C2534 1.366 . S
C2535 C2536 1.414 . S
C2535 C2538 1.499 . S
C2536 H2516 0.950 . S
C2536 C2535 1.414 . S
C2536 C2537 1.374 . S
C2537 H2517 0.950 . S
C2537 C2533 1.385 . S
C2537 C2536 1.374 . S
C2538 C2535 1.499 . S
C2538 C2539 1.373 . S
C2538 C2540 1.389 . S
C2539 H2518 0.950 . S
C2539 C2538 1.373 . S
C2539 C2555 1.377 . S
C2540 C2538 1.389 . S
C2540 C2541 1.524 . S
C2540 C2554 1.377 . S
C2541 C2540 1.524 . S
C2541 C2542 1.397 . S
C2541 C2546 1.363 . S
C2542 H2519 0.950 . S
C2542 C2541 1.397 . S
C2542 C2543 1.334 . S
C2543 H2520 0.950 . S
C2543 C2542 1.334 . S
C2543 C2544 1.287 . S
C2544 C2543 1.287 . S
C2544 C2545 1.524 . S
C2544 H2563 0.913 . S
C2545 H2521 0.950 . S
C2545 C2544 1.524 . S
C2545 C2546 1.415 . S
C2546 H2522 0.950 . S
C2546 C2541 1.363 . S
C2546 C2545 1.415 . S
C2547 H2523 0.951 . S
C2547 C2548 1.366 . S
C2547 C2549 1.388 . S
C2548 C2547 1.366 . S
C2548 C2552 1.385 . S
C2549 H2524 0.951 . S
C2549 C2547 1.388 . S
C2549 C2550 1.366 . S
C2550 C2549 1.366 . S
C2550 C2551 1.414 . S
C2550 C2553 1.499 . S
C2551 H2525 0.950 . S
C2551 C2550 1.414 . S
C2551 C2552 1.374 . S
C2552 H2526 0.950 . S
C2552 C2548 1.385 . S
C2552 C2551 1.374 . S
C2553 C2550 1.499 . S
C2553 C2554 1.373 . S
C2553 C2555 1.389 . S
C2554 H2527 0.950 . S
C2554 C2540 1.377 . S
C2554 C2553 1.373 . S
C2555 C2539 1.377 . S
C2555 C2553 1.389 . S
C2555 C2556 1.524 . S
C2556 C2555 1.524 . S
C2556 C2557 1.397 . S
C2556 C2561 1.363 . S
C2557 H2528 0.950 . S
C2557 C2556 1.397 . S
C2557 C2558 1.334 . S
C2558 H2529 0.950 . S
C2558 C2557 1.334 . S
C2558 C2559 1.287 . S
C2559 C2558 1.287 . S
C2559 C2560 1.524 . S
C2559 H2562 0.999 . S
C2560 H2530 0.950 . S
C2560 C2559 1.524 . S
C2560 C2561 1.415 . S
C2561 H2531 0.950 . S
C2561 C2556 1.363 . S
C2561 C2560 1.415 . S
H2562 C2559 0.999 . S
H2563 C2544 0.913 . S
H2564 C2582 0.951 . S
H2565 C2584 0.951 . S
H2566 C2586 0.950 . S
H2567 C2587 0.950 . S
H2568 C2589 0.950 . S
H2569 C2592 0.950 . S
H2570 C2593 0.950 . S
H2571 C2595 0.950 . S
H2572 C2596 0.950 . S
H2573 C2597 0.951 . S
H2574 C2599 0.951 . S
H2575 C2601 0.950 . S
H2576 C2602 0.950 . S
H2577 C2604 0.950 . S
H2578 C2607 0.950 . S
H2579 C2608 0.950 . S
H2580 C2610 0.950 . S
H2581 C2611 0.950 . S
C2582 H2564 0.951 . S
C2582 C2583 1.366 . S
C2582 C2584 1.388 . S
C2583 C2582 1.366 . S
C2583 C2587 1.385 . S
C2584 H2565 0.951 . S
C2584 C2582 1.388 . S
C2584 C2585 1.366 . S
C2585 C2584 1.366 . S
C2585 C2586 1.414 . S
C2585 C2588 1.499 . S
C2586 H2566 0.950 . S
C2586 C2585 1.414 . S
C2586 C2587 1.374 . S
C2587 H2567 0.950 . S
C2587 C2583 1.385 . S
C2587 C2586 1.374 . S
C2588 C2585 1.499 . S
C2588 C2589 1.373 . S
C2588 C2590 1.389 . S
C2589 H2568 0.950 . S
C2589 C2588 1.373 . S
C2589 C2605 1.377 . S
C2590 C2588 1.389 . S
C2590 C2591 1.524 . S
C2590 C2604 1.377 . S
C2591 C2590 1.524 . S
C2591 C2592 1.397 . S
C2591 C2596 1.363 . S
C2592 H2569 0.950 . S
C2592 C2591 1.397 . S
C2592 C2593 1.334 . S
C2593 H2570 0.950 . S
C2593 C2592 1.334 . S
C2593 C2594 1.287 . S
C2594 C2593 1.287 . S
C2594 C2595 1.524 . S
C2594 H2613 0.913 . S
C2595 H2571 0.950 . S
C2595 C2594 1.524 . S
C2595 C2596 1.415 . S
C2596 H2572 0.950 . S
C2596 C2591 1.363 . S
C2596 C2595 1.415 . S
C2597 H2573 0.951 . S
C2597 C2598 1.366 . S
C2597 C2599 1.388 . S
C2598 C2597 1.366 . S
C2598 C2602 1.385 . S
C2599 H2574 0.951 . S
C2599 C2597 1.388 . S
C2599 C2600 1.366 . S
C2600 C2599 1.366 . S
C2600 C2601 1.414 . S
C2600 C2603 1.499 . S
C2601 H2575 0.950 . S
C2601 C2600 1.414 . S
C2601 C2602 1.374 . S
C2602 H2576 0.950 . S
C2602 C2598 1.385 . S
C2602 C2601 1.374 . S
C2603 C2600 1.499 . S
C2603 C2604 1.373 . S
C2603 C2605 1.389 . S
C2604 H2577 0.950 . S
C2604 C2590 1.377 . S
C2604 C2603 1.373 . S
C2605 C2589 1.377 . S
C2605 C2603 1.389 . S
C2605 C2606 1.524 . S
C2606 C2605 1.524 . S
C2606 C2607 1.397 . S
C2606 C2611 1.363 . S
C2607 H2578 0.950 . S
C2607 C2606 1.397 . S
C2607 C2608 1.334 . S
C2608 H2579 0.950 . S
C2608 C2607 1.334 . S
C2608 C2609 1.287 . S
C2609 C2608 1.287 . S
C2609 C2610 1.524 . S
C2609 H2612 0.999 . S
C2610 H2580 0.950 . S
C2610 C2609 1.524 . S
C2610 C2611 1.415 . S
C2611 H2581 0.950 . S
C2611 C2606 1.363 . S
C2611 C2610 1.415 . S
H2612 C2609 0.999 . S
H2613 C2594 0.913 . S
H2614 C2632 0.951 . S
H2615 C2634 0.951 . S
H2616 C2636 0.950 . S
H2617 C2637 0.950 . S
H2618 C2639 0.950 . S
H2619 C2642 0.950 . S
H2620 C2643 0.950 . S
H2621 C2645 0.950 . S
H2622 C2646 0.950 . S
H2623 C2647 0.951 . S
H2624 C2649 0.951 . S
H2625 C2651 0.950 . S
H2626 C2652 0.950 . S
H2627 C2654 0.950 . S
H2628 C2657 0.950 . S
H2629 C2658 0.950 . S
H2630 C2660 0.950 . S
H2631 C2661 0.950 . S
C2632 H2614 0.951 . S
C2632 C2633 1.366 . S
C2632 C2634 1.388 . S
C2633 C2632 1.366 . S
C2633 C2637 1.385 1_455 S
C2634 H2615 0.951 . S
C2634 C2632 1.388 . S
C2634 C2635 1.377 . S
C2635 C2634 1.377 . S
C2635 C2636 1.404 1_455 S
C2635 C2638 1.498 1_455 S
C2636 H2616 0.950 . S
C2636 C2635 1.404 1_655 S
C2636 C2637 1.374 . S
C2637 H2617 0.950 . S
C2637 C2633 1.385 1_655 S
C2637 C2636 1.374 . S
C2638 C2635 1.498 1_655 S
C2638 C2639 1.373 . S
C2638 C2640 1.389 1_655 S
C2639 H2618 0.950 . S
C2639 C2638 1.373 . S
C2639 C2655 1.377 . S
C2640 C2638 1.389 1_455 S
C2640 C2641 1.524 . S
C2640 C2654 1.377 . S
C2641 C2640 1.524 . S
C2641 C2642 1.397 1_455 S
C2641 C2646 1.363 . S
C2642 H2619 0.950 . S
C2642 C2641 1.397 1_655 S
C2642 C2643 1.334 . S
C2643 H2620 0.950 . S
C2643 C2642 1.334 . S
C2643 C2644 1.287 1_655 S
C2644 C2643 1.287 1_455 S
C2644 C2645 1.524 . S
C2644 H2663 0.913 . S
C2645 H2621 0.950 . S
C2645 C2644 1.524 . S
C2645 C2646 1.415 . S
C2646 H2622 0.950 . S
C2646 C2641 1.363 . S
C2646 C2645 1.415 . S
C2647 H2623 0.951 . S
C2647 C2648 1.366 . S
C2647 C2649 1.388 . S
C2648 C2647 1.366 . S
C2648 C2652 1.385 1_655 S
C2649 H2624 0.951 . S
C2649 C2647 1.388 . S
C2649 C2650 1.377 . S
C2650 C2649 1.377 . S
C2650 C2651 1.404 1_655 S
C2650 C2653 1.498 1_655 S
C2651 H2625 0.950 . S
C2651 C2650 1.404 1_455 S
C2651 C2652 1.374 . S
C2652 H2626 0.950 . S
C2652 C2648 1.385 1_455 S
C2652 C2651 1.374 . S
C2653 C2650 1.498 1_455 S
C2653 C2654 1.373 . S
C2653 C2655 1.389 1_455 S
C2654 H2627 0.950 . S
C2654 C2640 1.377 . S
C2654 C2653 1.373 . S
C2655 C2639 1.377 . S
C2655 C2653 1.389 1_655 S
C2655 C2656 1.524 . S
C2656 C2655 1.524 . S
C2656 C2657 1.397 1_655 S
C2656 C2661 1.363 . S
C2657 H2628 0.950 . S
C2657 C2656 1.397 1_455 S
C2657 C2658 1.334 . S
C2658 H2629 0.950 . S
C2658 C2657 1.334 . S
C2658 C2659 1.287 1_455 S
C2659 C2658 1.287 1_655 S
C2659 C2660 1.524 . S
C2659 H2662 0.999 . S
C2660 H2630 0.950 . S
C2660 C2659 1.524 . S
C2660 C2661 1.415 . S
C2661 H2631 0.950 . S
C2661 C2656 1.363 . S
C2661 C2660 1.415 . S
H2662 C2659 0.999 . S
H2663 C2644 0.913 . S
H2664 C2682 0.951 . S
H2665 C2684 0.950 1_455 S
H2666 C2686 0.950 . S
H2667 C2687 0.950 . S
H2668 C2689 0.950 . S
H2669 C2692 0.950 . S
H2670 C2693 0.950 . S
H2671 C2695 0.950 . S
H2672 C2696 0.950 . S
H2673 C2697 0.951 . S
H2674 C2699 0.950 1_655 S
H2675 C2701 0.950 . S
H2676 C2702 0.950 . S
H2677 C2704 0.950 . S
H2678 C2707 0.950 . S
H2679 C2708 0.950 . S
H2680 C2710 0.950 . S
H2681 C2711 0.950 . S
C2682 H2664 0.951 . S
C2682 C2683 1.366 . S
C2682 C2684 1.388 . S
C2683 C2682 1.366 . S
C2683 C2687 1.385 . S
C2684 H2665 0.950 1_655 S
C2684 C2682 1.388 . S
C2684 C2685 1.365 1_655 S
C2685 C2684 1.365 1_455 S
C2685 C2686 1.413 1_455 S
C2685 C2688 1.499 . S
C2686 H2666 0.950 . S
C2686 C2685 1.413 1_655 S
C2686 C2687 1.374 . S
C2687 H2667 0.950 . S
C2687 C2683 1.385 . S
C2687 C2686 1.374 . S
C2688 C2685 1.499 . S
C2688 C2689 1.373 1_455 S
C2688 C2690 1.389 . S
C2689 H2668 0.950 . S
C2689 C2688 1.373 1_655 S
C2689 C2705 1.377 . S
C2690 C2688 1.389 . S
C2690 C2691 1.524 . S
C2690 C2704 1.377 . S
C2691 C2690 1.524 . S
C2691 C2692 1.397 . S
C2691 C2696 1.363 . S
C2692 H2669 0.950 . S
C2692 C2691 1.397 . S
C2692 C2693 1.334 . S
C2693 H2670 0.950 . S
C2693 C2692 1.334 . S
C2693 C2694 1.287 . S
C2694 C2693 1.287 . S
C2694 C2695 1.524 . S
C2694 H2713 0.913 . S
C2695 H2671 0.950 . S
C2695 C2694 1.524 . S
C2695 C2696 1.415 . S
C2696 H2672 0.950 . S
C2696 C2691 1.363 . S
C2696 C2695 1.415 . S
C2697 H2673 0.951 . S
C2697 C2698 1.366 . S
C2697 C2699 1.388 . S
C2698 C2697 1.366 . S
C2698 C2702 1.385 . S
C2699 H2674 0.950 1_455 S
C2699 C2697 1.388 . S
C2699 C2700 1.365 1_455 S
C2700 C2699 1.365 1_655 S
C2700 C2701 1.413 1_655 S
C2700 C2703 1.499 . S
C2701 H2675 0.950 . S
C2701 C2700 1.413 1_455 S
C2701 C2702 1.374 . S
C2702 H2676 0.950 . S
C2702 C2698 1.385 . S
C2702 C2701 1.374 . S
C2703 C2700 1.499 . S
C2703 C2704 1.373 1_655 S
C2703 C2705 1.389 . S
C2704 H2677 0.950 . S
C2704 C2690 1.377 . S
C2704 C2703 1.373 1_455 S
C2705 C2689 1.377 . S
C2705 C2703 1.389 . S
C2705 C2706 1.524 . S
C2706 C2705 1.524 . S
C2706 C2707 1.397 . S
C2706 C2711 1.363 . S
C2707 H2678 0.950 . S
C2707 C2706 1.397 . S
C2707 C2708 1.334 . S
C2708 H2679 0.950 . S
C2708 C2707 1.334 . S
C2708 C2709 1.287 . S
C2709 C2708 1.287 . S
C2709 C2710 1.524 . S
C2709 H2712 0.999 . S
C2710 H2680 0.950 . S
C2710 C2709 1.524 . S
C2710 C2711 1.415 . S
C2711 H2681 0.950 . S
C2711 C2706 1.363 . S
C2711 C2710 1.415 . S
H2712 C2709 0.999 . S
H2713 C2694 0.913 . S
H2714 C2732 0.951 . S
H2715 C2734 0.951 . S
H2716 C2736 0.950 . S
H2717 C2737 0.950 . S
H2718 C2739 0.950 . S
H2719 C2742 0.950 . S
H2720 C2743 0.950 . S
H2721 C2745 0.950 . S
H2722 C2746 0.950 . S
H2723 C2747 0.951 . S
H2724 C2749 0.951 . S
H2725 C2751 0.950 . S
H2726 C2752 0.950 . S
H2727 C2754 0.950 . S
H2728 C2757 0.950 . S
H2729 C2758 0.950 . S
H2730 C2760 0.950 . S
H2731 C2761 0.950 . S
C2732 H2714 0.951 . S
C2732 C2733 1.366 . S
C2732 C2734 1.388 . S
C2733 C2732 1.366 . S
C2733 C2737 1.385 . S
C2734 H2715 0.951 . S
C2734 C2732 1.388 . S
C2734 C2735 1.366 . S
C2735 C2734 1.366 . S
C2735 C2736 1.414 . S
C2735 C2738 1.499 . S
C2736 H2716 0.950 . S
C2736 C2735 1.414 . S
C2736 C2737 1.374 . S
C2737 H2717 0.950 . S
C2737 C2733 1.385 . S
C2737 C2736 1.374 . S
C2738 C2735 1.499 . S
C2738 C2739 1.373 . S
C2738 C2740 1.389 . S
C2739 H2718 0.950 . S
C2739 C2738 1.373 . S
C2739 C2755 1.377 . S
C2740 C2738 1.389 . S
C2740 C2741 1.524 . S
C2740 C2754 1.377 . S
C2741 C2740 1.524 . S
C2741 C2742 1.397 . S
C2741 C2746 1.363 . S
C2742 H2719 0.950 . S
C2742 C2741 1.397 . S
C2742 C2743 1.334 . S
C2743 H2720 0.950 . S
C2743 C2742 1.334 . S
C2743 C2744 1.287 . S
C2744 C2743 1.287 . S
C2744 C2745 1.524 . S
C2744 H2763 0.913 . S
C2745 H2721 0.950 . S
C2745 C2744 1.524 . S
C2745 C2746 1.415 . S
C2746 H2722 0.950 . S
C2746 C2741 1.363 . S
C2746 C2745 1.415 . S
C2747 H2723 0.951 . S
C2747 C2748 1.366 . S
C2747 C2749 1.388 . S
C2748 C2747 1.366 . S
C2748 C2752 1.385 . S
C2749 H2724 0.951 . S
C2749 C2747 1.388 . S
C2749 C2750 1.366 . S
C2750 C2749 1.366 . S
C2750 C2751 1.414 . S
C2750 C2753 1.499 . S
C2751 H2725 0.950 . S
C2751 C2750 1.414 . S
C2751 C2752 1.374 . S
C2752 H2726 0.950 . S
C2752 C2748 1.385 . S
C2752 C2751 1.374 . S
C2753 C2750 1.499 . S
C2753 C2754 1.373 . S
C2753 C2755 1.389 . S
C2754 H2727 0.950 . S
C2754 C2740 1.377 . S
C2754 C2753 1.373 . S
C2755 C2739 1.377 . S
C2755 C2753 1.389 . S
C2755 C2756 1.524 . S
C2756 C2755 1.524 . S
C2756 C2757 1.397 . S
C2756 C2761 1.363 . S
C2757 H2728 0.950 . S
C2757 C2756 1.397 . S
C2757 C2758 1.334 . S
C2758 H2729 0.950 . S
C2758 C2757 1.334 . S
C2758 C2759 1.287 . S
C2759 C2758 1.287 . S
C2759 C2760 1.524 . S
C2759 H2762 0.999 . S
C2760 H2730 0.950 . S
C2760 C2759 1.524 . S
C2760 C2761 1.415 . S
C2761 H2731 0.950 . S
C2761 C2756 1.363 . S
C2761 C2760 1.415 . S
H2762 C2759 0.999 . S
H2763 C2744 0.913 . S
H2764 C2782 0.951 . S
H2765 C2784 0.951 . S
H2766 C2786 0.950 . S
H2767 C2787 0.950 . S
H2768 C2789 0.950 . S
H2769 C2792 0.950 . S
H2770 C2793 0.950 . S
H2771 C2795 0.950 . S
H2772 C2796 0.950 . S
H2773 C2797 0.951 . S
H2774 C2799 0.951 . S
H2775 C2801 0.950 . S
H2776 C2802 0.950 . S
H2777 C2804 0.950 . S
H2778 C2807 0.950 . S
H2779 C2808 0.950 . S
H2780 C2810 0.950 . S
H2781 C2811 0.950 . S
C2782 H2764 0.951 . S
C2782 C2783 1.366 . S
C2782 C2784 1.388 . S
C2783 C2782 1.366 . S
C2783 C2787 1.385 . S
C2784 H2765 0.951 . S
C2784 C2782 1.388 . S
C2784 C2785 1.366 . S
C2785 C2784 1.366 . S
C2785 C2786 1.414 . S
C2785 C2788 1.499 . S
C2786 H2766 0.950 . S
C2786 C2785 1.414 . S
C2786 C2787 1.374 . S
C2787 H2767 0.950 . S
C2787 C2783 1.385 . S
C2787 C2786 1.374 . S
C2788 C2785 1.499 . S
C2788 C2789 1.373 . S
C2788 C2790 1.389 . S
C2789 H2768 0.950 . S
C2789 C2788 1.373 . S
C2789 C2805 1.377 . S
C2790 C2788 1.389 . S
C2790 C2791 1.524 . S
C2790 C2804 1.377 . S
C2791 C2790 1.524 . S
C2791 C2792 1.397 . S
C2791 C2796 1.363 . S
C2792 H2769 0.950 . S
C2792 C2791 1.397 . S
C2792 C2793 1.334 . S
C2793 H2770 0.950 . S
C2793 C2792 1.334 . S
C2793 C2794 1.287 . S
C2794 C2793 1.287 . S
C2794 C2795 1.524 . S
C2794 H2813 0.913 . S
C2795 H2771 0.950 . S
C2795 C2794 1.524 . S
C2795 C2796 1.415 . S
C2796 H2772 0.950 . S
C2796 C2791 1.363 . S
C2796 C2795 1.415 . S
C2797 H2773 0.951 . S
C2797 C2798 1.366 . S
C2797 C2799 1.388 . S
C2798 C2797 1.366 . S
C2798 C2802 1.385 . S
C2799 H2774 0.951 . S
C2799 C2797 1.388 . S
C2799 C2800 1.366 . S
C2800 C2799 1.366 . S
C2800 C2801 1.414 . S
C2800 C2803 1.499 . S
C2801 H2775 0.950 . S
C2801 C2800 1.414 . S
C2801 C2802 1.374 . S
C2802 H2776 0.950 . S
C2802 C2798 1.385 . S
C2802 C2801 1.374 . S
C2803 C2800 1.499 . S
C2803 C2804 1.373 . S
C2803 C2805 1.389 . S
C2804 H2777 0.950 . S
C2804 C2790 1.377 . S
C2804 C2803 1.373 . S
C2805 C2789 1.377 . S
C2805 C2803 1.389 . S
C2805 C2806 1.524 . S
C2806 C2805 1.524 . S
C2806 C2807 1.397 . S
C2806 C2811 1.363 . S
C2807 H2778 0.950 . S
C2807 C2806 1.397 . S
C2807 C2808 1.334 . S
C2808 H2779 0.950 . S
C2808 C2807 1.334 . S
C2808 C2809 1.287 . S
C2809 C2808 1.287 . S
C2809 C2810 1.524 . S
C2809 H2812 0.999 . S
C2810 H2780 0.950 . S
C2810 C2809 1.524 . S
C2810 C2811 1.415 . S
C2811 H2781 0.950 . S
C2811 C2806 1.363 . S
C2811 C2810 1.415 . S
H2812 C2809 0.999 . S
H2813 C2794 0.913 . S
H2814 C2832 0.951 . S
H2815 C2834 0.951 . S
H2816 C2836 0.950 . S
H2817 C2837 0.950 . S
H2818 C2839 0.950 . S
H2819 C2842 0.950 . S
H2820 C2843 0.950 . S
H2821 C2845 0.950 . S
H2822 C2846 0.950 . S
H2823 C2847 0.951 . S
H2824 C2849 0.951 . S
H2825 C2851 0.950 . S
H2826 C2852 0.950 . S
H2827 C2854 0.950 . S
H2828 C2857 0.950 . S
H2829 C2858 0.950 . S
H2830 C2860 0.950 . S
H2831 C2861 0.950 . S
C2832 H2814 0.951 . S
C2832 C2833 1.366 . S
C2832 C2834 1.388 . S
C2833 C2832 1.366 . S
C2833 C2837 1.385 1_655 S
C2834 H2815 0.951 . S
C2834 C2832 1.388 . S
C2834 C2835 1.366 . S
C2835 C2834 1.366 . S
C2835 C2836 1.414 1_655 S
C2835 C2838 1.499 . S
C2836 H2816 0.950 . S
C2836 C2835 1.414 1_455 S
C2836 C2837 1.374 . S
C2837 H2817 0.950 . S
C2837 C2833 1.385 1_455 S
C2837 C2836 1.374 . S
C2838 C2835 1.499 . S
C2838 C2839 1.373 1_655 S
C2838 C2840 1.389 . S
C2839 H2818 0.950 . S
C2839 C2838 1.373 1_455 S
C2839 C2855 1.377 . S
C2840 C2838 1.389 . S
C2840 C2841 1.524 . S
C2840 C2854 1.377 . S
C2841 C2840 1.524 . S
C2841 C2842 1.397 . S
C2841 C2846 1.363 . S
C2842 H2819 0.950 . S
C2842 C2841 1.397 . S
C2842 C2843 1.334 . S
C2843 H2820 0.950 . S
C2843 C2842 1.334 . S
C2843 C2844 1.287 . S
C2844 C2843 1.287 . S
C2844 C2845 1.524 . S
C2844 H2863 0.913 . S
C2845 H2821 0.950 . S
C2845 C2844 1.524 . S
C2845 C2846 1.415 . S
C2846 H2822 0.950 . S
C2846 C2841 1.363 . S
C2846 C2845 1.415 . S
C2847 H2823 0.951 . S
C2847 C2848 1.366 . S
C2847 C2849 1.388 . S
C2848 C2847 1.366 . S
C2848 C2852 1.385 1_455 S
C2849 H2824 0.951 . S
C2849 C2847 1.388 . S
C2849 C2850 1.366 . S
C2850 C2849 1.366 . S
C2850 C2851 1.414 1_455 S
C2850 C2853 1.499 . S
C2851 H2825 0.950 . S
C2851 C2850 1.414 1_655 S
C2851 C2852 1.374 . S
C2852 H2826 0.950 . S
C2852 C2848 1.385 1_655 S
C2852 C2851 1.374 . S
C2853 C2850 1.499 . S
C2853 C2854 1.373 1_455 S
C2853 C2855 1.389 . S
C2854 H2827 0.950 . S
C2854 C2840 1.377 . S
C2854 C2853 1.373 1_655 S
C2855 C2839 1.377 . S
C2855 C2853 1.389 . S
C2855 C2856 1.524 . S
C2856 C2855 1.524 . S
C2856 C2857 1.397 . S
C2856 C2861 1.363 . S
C2857 H2828 0.950 . S
C2857 C2856 1.397 . S
C2857 C2858 1.334 . S
C2858 H2829 0.950 . S
C2858 C2857 1.334 . S
C2858 C2859 1.287 . S
C2859 C2858 1.287 . S
C2859 C2860 1.524 . S
C2859 H2862 0.999 . S
C2860 H2830 0.950 . S
C2860 C2859 1.524 . S
C2860 C2861 1.415 . S
C2861 H2831 0.950 . S
C2861 C2856 1.363 . S
C2861 C2860 1.415 . S
H2862 C2859 0.999 . S
H2863 C2844 0.913 . S
H2864 C2882 0.951 . S
H2865 C2884 0.951 . S
H2866 C2886 0.950 . S
H2867 C2887 0.950 . S
H2868 C2889 0.950 . S
H2869 C2892 0.950 . S
H2870 C2893 0.950 . S
H2871 C2895 0.950 . S
H2872 C2896 0.950 . S
H2873 C2897 0.951 . S
H2874 C2899 0.951 . S
H2875 C2901 0.950 . S
H2876 C2902 0.950 . S
H2877 C2904 0.950 . S
H2878 C2907 0.950 . S
H2879 C2908 0.950 . S
H2880 C2910 0.950 . S
H2881 C2911 0.950 . S
C2882 H2864 0.951 . S
C2882 C2883 1.366 . S
C2882 C2884 1.388 . S
C2883 C2882 1.366 . S
C2883 C2887 1.385 . S
C2884 H2865 0.951 . S
C2884 C2882 1.388 . S
C2884 C2885 1.366 . S
C2885 C2884 1.366 . S
C2885 C2886 1.414 . S
C2885 C2888 1.499 . S
C2886 H2866 0.950 . S
C2886 C2885 1.414 . S
C2886 C2887 1.374 . S
C2887 H2867 0.950 . S
C2887 C2883 1.385 . S
C2887 C2886 1.374 . S
C2888 C2885 1.499 . S
C2888 C2889 1.373 1_455 S
C2888 C2890 1.389 . S
C2889 H2868 0.950 . S
C2889 C2888 1.373 1_655 S
C2889 C2905 1.377 . S
C2890 C2888 1.389 . S
C2890 C2891 1.524 . S
C2890 C2904 1.377 . S
C2891 C2890 1.524 . S
C2891 C2892 1.397 . S
C2891 C2896 1.363 . S
C2892 H2869 0.950 . S
C2892 C2891 1.397 . S
C2892 C2893 1.334 . S
C2893 H2870 0.950 . S
C2893 C2892 1.334 . S
C2893 C2894 1.287 . S
C2894 C2893 1.287 . S
C2894 C2895 1.524 . S
C2894 H2913 0.913 . S
C2895 H2871 0.950 . S
C2895 C2894 1.524 . S
C2895 C2896 1.415 . S
C2896 H2872 0.950 . S
C2896 C2891 1.363 . S
C2896 C2895 1.415 . S
C2897 H2873 0.951 . S
C2897 C2898 1.366 . S
C2897 C2899 1.388 . S
C2898 C2897 1.366 . S
C2898 C2902 1.385 . S
C2899 H2874 0.951 . S
C2899 C2897 1.388 . S
C2899 C2900 1.366 . S
C2900 C2899 1.366 . S
C2900 C2901 1.414 . S
C2900 C2903 1.499 . S
C2901 H2875 0.950 . S
C2901 C2900 1.414 . S
C2901 C2902 1.374 . S
C2902 H2876 0.950 . S
C2902 C2898 1.385 . S
C2902 C2901 1.374 . S
C2903 C2900 1.499 . S
C2903 C2904 1.373 1_655 S
C2903 C2905 1.389 . S
C2904 H2877 0.950 . S
C2904 C2890 1.377 . S
C2904 C2903 1.373 1_455 S
C2905 C2889 1.377 . S
C2905 C2903 1.389 . S
C2905 C2906 1.524 . S
C2906 C2905 1.524 . S
C2906 C2907 1.397 . S
C2906 C2911 1.363 . S
C2907 H2878 0.950 . S
C2907 C2906 1.397 . S
C2907 C2908 1.334 . S
C2908 H2879 0.950 . S
C2908 C2907 1.334 . S
C2908 C2909 1.287 . S
C2909 C2908 1.287 . S
C2909 C2910 1.524 . S
C2909 H2912 0.999 . S
C2910 H2880 0.950 . S
C2910 C2909 1.524 . S
C2910 C2911 1.415 . S
C2911 H2881 0.950 . S
C2911 C2906 1.363 . S
C2911 C2910 1.415 . S
H2912 C2909 0.999 . S
H2913 C2894 0.913 . S
H2914 C2932 0.951 . S
H2915 C2934 0.951 . S
H2916 C2936 0.950 . S
H2917 C2937 0.950 . S
H2918 C2939 0.950 . S
H2919 C2942 0.950 . S
H2920 C2943 0.950 . S
H2921 C2945 0.950 . S
H2922 C2946 0.950 . S
H2923 C2947 0.951 . S
H2924 C2949 0.951 . S
H2925 C2951 0.950 . S
H2926 C2952 0.950 . S
H2927 C2954 0.950 . S
H2928 C2957 0.950 . S
H2929 C2958 0.950 . S
H2930 C2960 0.950 . S
H2931 C2961 0.950 . S
C2932 H2914 0.951 . S
C2932 C2933 1.366 . S
C2932 C2934 1.388 . S
C2933 C2932 1.366 . S
C2933 C2937 1.385 . S
C2934 H2915 0.951 . S
C2934 C2932 1.388 . S
C2934 C2935 1.366 . S
C2935 C2934 1.366 . S
C2935 C2936 1.414 . S
C2935 C2938 1.499 . S
C2936 H2916 0.950 . S
C2936 C2935 1.414 . S
C2936 C2937 1.374 . S
C2937 H2917 0.950 . S
C2937 C2933 1.385 . S
C2937 C2936 1.374 . S
C2938 C2935 1.499 . S
C2938 C2939 1.373 . S
C2938 C2940 1.389 . S
C2939 H2918 0.950 . S
C2939 C2938 1.373 . S
C2939 C2955 1.377 . S
C2940 C2938 1.389 . S
C2940 C2941 1.524 . S
C2940 C2954 1.377 . S
C2941 C2940 1.524 . S
C2941 C2942 1.397 . S
C2941 C2946 1.363 . S
C2942 H2919 0.950 . S
C2942 C2941 1.397 . S
C2942 C2943 1.334 . S
C2943 H2920 0.950 . S
C2943 C2942 1.334 . S
C2943 C2944 1.287 . S
C2944 C2943 1.287 . S
C2944 C2945 1.524 . S
C2944 H2963 0.913 . S
C2945 H2921 0.950 . S
C2945 C2944 1.524 . S
C2945 C2946 1.415 . S
C2946 H2922 0.950 . S
C2946 C2941 1.363 . S
C2946 C2945 1.415 . S
C2947 H2923 0.951 . S
C2947 C2948 1.366 . S
C2947 C2949 1.388 . S
C2948 C2947 1.366 . S
C2948 C2952 1.385 . S
C2949 H2924 0.951 . S
C2949 C2947 1.388 . S
C2949 C2950 1.366 . S
C2950 C2949 1.366 . S
C2950 C2951 1.414 . S
C2950 C2953 1.499 . S
C2951 H2925 0.950 . S
C2951 C2950 1.414 . S
C2951 C2952 1.374 . S
C2952 H2926 0.950 . S
C2952 C2948 1.385 . S
C2952 C2951 1.374 . S
C2953 C2950 1.499 . S
C2953 C2954 1.373 . S
C2953 C2955 1.389 . S
C2954 H2927 0.950 . S
C2954 C2940 1.377 . S
C2954 C2953 1.373 . S
C2955 C2939 1.377 . S
C2955 C2953 1.389 . S
C2955 C2956 1.524 . S
C2956 C2955 1.524 . S
C2956 C2957 1.397 . S
C2956 C2961 1.363 . S
C2957 H2928 0.950 . S
C2957 C2956 1.397 . S
C2957 C2958 1.334 . S
C2958 H2929 0.950 . S
C2958 C2957 1.334 . S
C2958 C2959 1.287 . S
C2959 C2958 1.287 . S
C2959 C2960 1.524 . S
C2959 H2962 0.999 . S
C2960 H2930 0.950 . S
C2960 C2959 1.524 . S
C2960 C2961 1.415 . S
C2961 H2931 0.950 . S
C2961 C2956 1.363 . S
C2961 C2960 1.415 . S
H2962 C2959 0.999 . S
H2963 C2944 0.913 . S
H2964 C2982 0.951 . S
H2965 C2984 0.951 . S
H2966 C2986 0.950 . S
H2967 C2987 0.950 . S
H2968 C2989 0.950 . S
H2969 C2992 0.950 . S
H2970 C2993 0.950 . S
H2971 C2995 0.950 . S
H2972 C2996 0.950 . S
H2973 C2997 0.951 . S
H2974 C2999 0.951 . S
H2975 C3001 0.950 . S
H2976 C3002 0.950 . S
H2977 C3004 0.950 . S
H2978 C3007 0.950 . S
H2979 C3008 0.950 . S
H2980 C3010 0.950 . S
H2981 C3011 0.950 . S
C2982 H2964 0.951 . S
C2982 C2983 1.366 . S
C2982 C2984 1.388 . S
C2983 C2982 1.366 . S
C2983 C2987 1.385 1_655 S
C2984 H2965 0.951 . S
C2984 C2982 1.388 . S
C2984 C2985 1.366 . S
C2985 C2984 1.366 . S
C2985 C2986 1.414 1_655 S
C2985 C2988 1.499 . S
C2986 H2966 0.950 . S
C2986 C2985 1.414 1_455 S
C2986 C2987 1.374 . S
C2987 H2967 0.950 . S
C2987 C2983 1.385 1_455 S
C2987 C2986 1.374 . S
C2988 C2985 1.499 . S
C2988 C2989 1.373 1_655 S
C2988 C2990 1.389 . S
C2989 H2968 0.950 . S
C2989 C2988 1.373 1_455 S
C2989 C3005 1.377 . S
C2990 C2988 1.389 . S
C2990 C2991 1.524 . S
C2990 C3004 1.377 . S
C2991 C2990 1.524 . S
C2991 C2992 1.397 1_655 S
C2991 C2996 1.363 . S
C2992 H2969 0.950 . S
C2992 C2991 1.397 1_455 S
C2992 C2993 1.334 . S
C2993 H2970 0.950 . S
C2993 C2992 1.334 . S
C2993 C2994 1.287 1_455 S
C2994 C2993 1.287 1_655 S
C2994 C2995 1.524 . S
C2994 H3013 0.913 . S
C2995 H2971 0.950 . S
C2995 C2994 1.524 . S
C2995 C2996 1.415 . S
C2996 H2972 0.950 . S
C2996 C2991 1.363 . S
C2996 C2995 1.415 . S
C2997 H2973 0.951 . S
C2997 C2998 1.366 . S
C2997 C2999 1.388 . S
C2998 C2997 1.366 . S
C2998 C3002 1.385 1_455 S
C2999 H2974 0.951 . S
C2999 C2997 1.388 . S
C2999 C3000 1.366 . S
C3000 C2999 1.366 . S
C3000 C3001 1.414 1_455 S
C3000 C3003 1.499 . S
C3001 H2975 0.950 . S
C3001 C3000 1.414 1_655 S
C3001 C3002 1.374 . S
C3002 H2976 0.950 . S
C3002 C2998 1.385 1_655 S
C3002 C3001 1.374 . S
C3003 C3000 1.499 . S
C3003 C3004 1.373 1_455 S
C3003 C3005 1.389 . S
C3004 H2977 0.950 . S
C3004 C2990 1.377 . S
C3004 C3003 1.373 1_655 S
C3005 C2989 1.377 . S
C3005 C3003 1.389 . S
C3005 C3006 1.524 . S
C3006 C3005 1.524 . S
C3006 C3007 1.397 1_455 S
C3006 C3011 1.363 . S
C3007 H2978 0.950 . S
C3007 C3006 1.397 1_655 S
C3007 C3008 1.334 . S
C3008 H2979 0.950 . S
C3008 C3007 1.334 . S
C3008 C3009 1.287 1_655 S
C3009 C3008 1.287 1_455 S
C3009 C3010 1.524 . S
C3009 H3012 0.999 . S
C3010 H2980 0.950 . S
C3010 C3009 1.524 . S
C3010 C3011 1.415 . S
C3011 H2981 0.950 . S
C3011 C3006 1.363 . S
C3011 C3010 1.415 . S
H3012 C3009 0.999 . S
H3013 C2994 0.913 . S
H3014 C3032 0.951 . S
H3015 C3034 0.951 . S
H3016 C3036 0.950 . S
H3017 C3037 0.950 . S
H3018 C3039 0.950 . S
H3019 C3042 0.950 . S
H3020 C3043 0.950 . S
H3021 C3045 0.950 . S
H3022 C3046 0.950 . S
H3023 C3047 0.951 . S
H3024 C3049 0.951 . S
H3025 C3051 0.950 . S
H3026 C3052 0.950 . S
H3027 C3054 0.950 . S
H3028 C3057 0.950 . S
H3029 C3058 0.950 . S
H3030 C3060 0.950 . S
H3031 C3061 0.950 . S
C3032 H3014 0.951 . S
C3032 C3033 1.366 . S
C3032 C3034 1.388 . S
C3033 C3032 1.366 . S
C3033 C3037 1.385 . S
C3034 H3015 0.951 . S
C3034 C3032 1.388 . S
C3034 C3035 1.366 . S
C3035 C3034 1.366 . S
C3035 C3036 1.414 . S
C3035 C3038 1.499 . S
C3036 H3016 0.950 . S
C3036 C3035 1.414 . S
C3036 C3037 1.374 . S
C3037 H3017 0.950 . S
C3037 C3033 1.385 . S
C3037 C3036 1.374 . S
C3038 C3035 1.499 . S
C3038 C3039 1.373 . S
C3038 C3040 1.389 . S
C3039 H3018 0.950 . S
C3039 C3038 1.373 . S
C3039 C3055 1.377 . S
C3040 C3038 1.389 . S
C3040 C3041 1.524 . S
C3040 C3054 1.377 . S
C3041 C3040 1.524 . S
C3041 C3042 1.397 . S
C3041 C3046 1.363 . S
C3042 H3019 0.950 . S
C3042 C3041 1.397 . S
C3042 C3043 1.334 . S
C3043 H3020 0.950 . S
C3043 C3042 1.334 . S
C3043 C3044 1.287 . S
C3044 C3043 1.287 . S
C3044 C3045 1.524 . S
C3044 H3063 0.913 . S
C3045 H3021 0.950 . S
C3045 C3044 1.524 . S
C3045 C3046 1.415 . S
C3046 H3022 0.950 . S
C3046 C3041 1.363 . S
C3046 C3045 1.415 . S
C3047 H3023 0.951 . S
C3047 C3048 1.366 . S
C3047 C3049 1.388 . S
C3048 C3047 1.366 . S
C3048 C3052 1.385 . S
C3049 H3024 0.951 . S
C3049 C3047 1.388 . S
C3049 C3050 1.366 . S
C3050 C3049 1.366 . S
C3050 C3051 1.414 . S
C3050 C3053 1.499 . S
C3051 H3025 0.950 . S
C3051 C3050 1.414 . S
C3051 C3052 1.374 . S
C3052 H3026 0.950 . S
C3052 C3048 1.385 . S
C3052 C3051 1.374 . S
C3053 C3050 1.499 . S
C3053 C3054 1.373 . S
C3053 C3055 1.389 . S
C3054 H3027 0.950 . S
C3054 C3040 1.377 . S
C3054 C3053 1.373 . S
C3055 C3039 1.377 . S
C3055 C3053 1.389 . S
C3055 C3056 1.524 . S
C3056 C3055 1.524 . S
C3056 C3057 1.397 . S
C3056 C3061 1.363 . S
C3057 H3028 0.950 . S
C3057 C3056 1.397 . S
C3057 C3058 1.334 . S
C3058 H3029 0.950 . S
C3058 C3057 1.334 . S
C3058 C3059 1.287 . S
C3059 C3058 1.287 . S
C3059 C3060 1.524 . S
C3059 H3062 0.999 . S
C3060 H3030 0.950 . S
C3060 C3059 1.524 . S
C3060 C3061 1.415 . S
C3061 H3031 0.950 . S
C3061 C3056 1.363 . S
C3061 C3060 1.415 . S
H3062 C3059 0.999 . S
H3063 C3044 0.913 . S
H3064 C3082 0.951 . S
H3065 C3084 0.951 . S
H3066 C3086 0.950 . S
H3067 C3087 0.950 . S
H3068 C3089 0.950 . S
H3069 C3092 0.950 . S
H3070 C3093 0.950 . S
H3071 C3095 0.950 . S
H3072 C3096 0.950 . S
H3073 C3097 0.951 . S
H3074 C3099 0.951 . S
H3075 C3101 0.950 . S
H3076 C3102 0.950 . S
H3077 C3104 0.950 . S
H3078 C3107 0.950 . S
H3079 C3108 0.950 . S
H3080 C3110 0.950 . S
H3081 C3111 0.950 . S
C3082 H3064 0.951 . S
C3082 C3083 1.366 . S
C3082 C3084 1.388 . S
C3083 C3082 1.366 . S
C3083 C3087 1.385 . S
C3084 H3065 0.951 . S
C3084 C3082 1.388 . S
C3084 C3085 1.366 . S
C3085 C3084 1.366 . S
C3085 C3086 1.414 . S
C3085 C3088 1.499 . S
C3086 H3066 0.950 . S
C3086 C3085 1.414 . S
C3086 C3087 1.374 . S
C3087 H3067 0.950 . S
C3087 C3083 1.385 . S
C3087 C3086 1.374 . S
C3088 C3085 1.499 . S
C3088 C3089 1.373 . S
C3088 C3090 1.389 . S
C3089 H3068 0.950 . S
C3089 C3088 1.373 . S
C3089 C3105 1.377 . S
C3090 C3088 1.389 . S
C3090 C3091 1.524 . S
C3090 C3104 1.377 . S
C3091 C3090 1.524 . S
C3091 C3092 1.397 . S
C3091 C3096 1.363 . S
C3092 H3069 0.950 . S
C3092 C3091 1.397 . S
C3092 C3093 1.334 . S
C3093 H3070 0.950 . S
C3093 C3092 1.334 . S
C3093 C3094 1.287 . S
C3094 C3093 1.287 . S
C3094 C3095 1.524 . S
C3094 H3113 0.913 . S
C3095 H3071 0.950 . S
C3095 C3094 1.524 . S
C3095 C3096 1.415 . S
C3096 H3072 0.950 . S
C3096 C3091 1.363 . S
C3096 C3095 1.415 . S
C3097 H3073 0.951 . S
C3097 C3098 1.366 . S
C3097 C3099 1.388 . S
C3098 C3097 1.366 . S
C3098 C3102 1.385 . S
C3099 H3074 0.951 . S
C3099 C3097 1.388 . S
C3099 C3100 1.366 . S
C3100 C3099 1.366 . S
C3100 C3101 1.414 . S
C3100 C3103 1.499 . S
C3101 H3075 0.950 . S
C3101 C3100 1.414 . S
C3101 C3102 1.374 . S
C3102 H3076 0.950 . S
C3102 C3098 1.385 . S
C3102 C3101 1.374 . S
C3103 C3100 1.499 . S
C3103 C3104 1.373 . S
C3103 C3105 1.389 . S
C3104 H3077 0.950 . S
C3104 C3090 1.377 . S
C3104 C3103 1.373 . S
C3105 C3089 1.377 . S
C3105 C3103 1.389 . S
C3105 C3106 1.524 . S
C3106 C3105 1.524 . S
C3106 C3107 1.397 . S
C3106 C3111 1.363 . S
C3107 H3078 0.950 . S
C3107 C3106 1.397 . S
C3107 C3108 1.334 . S
C3108 H3079 0.950 . S
C3108 C3107 1.334 . S
C3108 C3109 1.287 . S
C3109 C3108 1.287 . S
C3109 C3110 1.524 . S
C3109 H3112 0.999 . S
C3110 H3080 0.950 . S
C3110 C3109 1.524 . S
C3110 C3111 1.415 . S
C3111 H3081 0.950 . S
C3111 C3106 1.363 . S
C3111 C3110 1.415 . S
H3112 C3109 0.999 . S
H3113 C3094 0.913 . S
H3114 C3132 0.951 . S
H3115 C3134 0.951 . S
H3116 C3136 0.950 . S
H3117 C3137 0.950 . S
H3118 C3139 0.950 . S
H3119 C3142 0.950 . S
H3120 C3143 0.950 . S
H3121 C3145 0.950 . S
H3122 C3146 0.950 . S
H3123 C3147 0.951 . S
H3124 C3149 0.951 . S
H3125 C3151 0.950 . S
H3126 C3152 0.950 . S
H3127 C3154 0.950 . S
H3128 C3157 0.950 . S
H3129 C3158 0.950 . S
H3130 C3160 0.950 . S
H3131 C3161 0.950 . S
C3132 H3114 0.951 . S
C3132 C3133 1.366 . S
C3132 C3134 1.388 . S
C3133 C3132 1.366 . S
C3133 C3137 1.385 1_455 S
C3134 H3115 0.951 . S
C3134 C3132 1.388 . S
C3134 C3135 1.366 . S
C3135 C3134 1.366 . S
C3135 C3136 1.414 1_455 S
C3135 C3138 1.499 . S
C3136 H3116 0.950 . S
C3136 C3135 1.414 1_655 S
C3136 C3137 1.374 . S
C3137 H3117 0.950 . S
C3137 C3133 1.385 1_655 S
C3137 C3136 1.374 . S
C3138 C3135 1.499 . S
C3138 C3139 1.373 1_455 S
C3138 C3140 1.389 . S
C3139 H3118 0.950 . S
C3139 C3138 1.373 1_655 S
C3139 C3155 1.377 . S
C3140 C3138 1.389 . S
C3140 C3141 1.524 . S
C3140 C3154 1.377 . S
C3141 C3140 1.524 . S
C3141 C3142 1.397 . S
C3141 C3146 1.363 . S
C3142 H3119 0.950 . S
C3142 C3141 1.397 . S
C3142 C3143 1.334 . S
C3143 H3120 0.950 . S
C3143 C3142 1.334 . S
C3143 C3144 1.287 . S
C3144 C3143 1.287 . S
C3144 C3145 1.524 . S
C3144 H3163 0.913 . S
C3145 H3121 0.950 . S
C3145 C3144 1.524 . S
C3145 C3146 1.415 . S
C3146 H3122 0.950 . S
C3146 C3141 1.363 . S
C3146 C3145 1.415 . S
C3147 H3123 0.951 . S
C3147 C3148 1.366 . S
C3147 C3149 1.388 . S
C3148 C3147 1.366 . S
C3148 C3152 1.385 1_655 S
C3149 H3124 0.951 . S
C3149 C3147 1.388 . S
C3149 C3150 1.366 . S
C3150 C3149 1.366 . S
C3150 C3151 1.414 1_655 S
C3150 C3153 1.499 . S
C3151 H3125 0.950 . S
C3151 C3150 1.414 1_455 S
C3151 C3152 1.374 . S
C3152 H3126 0.950 . S
C3152 C3148 1.385 1_455 S
C3152 C3151 1.374 . S
C3153 C3150 1.499 . S
C3153 C3154 1.373 1_655 S
C3153 C3155 1.389 . S
C3154 H3127 0.950 . S
C3154 C3140 1.377 . S
C3154 C3153 1.373 1_455 S
C3155 C3139 1.377 . S
C3155 C3153 1.389 . S
C3155 C3156 1.524 . S
C3156 C3155 1.524 . S
C3156 C3157 1.397 . S
C3156 C3161 1.363 . S
C3157 H3128 0.950 . S
C3157 C3156 1.397 . S
C3157 C3158 1.334 . S
C3158 H3129 0.950 . S
C3158 C3157 1.334 . S
C3158 C3159 1.287 . S
C3159 C3158 1.287 . S
C3159 C3160 1.524 . S
C3159 H3162 0.999 . S
C3160 H3130 0.950 . S
C3160 C3159 1.524 . S
C3160 C3161 1.415 . S
C3161 H3131 0.950 . S
C3161 C3156 1.363 . S
C3161 C3160 1.415 . S
H3162 C3159 0.999 . S
H3163 C3144 0.913 . S
H3164 C3182 0.951 . S
H3165 C3184 0.951 . S
H3166 C3186 0.950 . S
H3167 C3187 0.950 . S
H3168 C3189 0.950 . S
H3169 C3192 0.950 . S
H3170 C3193 0.950 . S
H3171 C3195 0.950 . S
H3172 C3196 0.950 . S
H3173 C3197 0.951 . S
H3174 C3199 0.951 . S
H3175 C3201 0.950 . S
H3176 C3202 0.950 . S
H3177 C3204 0.950 . S
H3178 C3207 0.950 . S
H3179 C3208 0.950 . S
H3180 C3210 0.950 . S
H3181 C3211 0.950 . S
C3182 H3164 0.951 . S
C3182 C3183 1.366 . S
C3182 C3184 1.388 . S
C3183 C3182 1.366 . S
C3183 C3187 1.385 . S
C3184 H3165 0.951 . S
C3184 C3182 1.388 . S
C3184 C3185 1.366 . S
C3185 C3184 1.366 . S
C3185 C3186 1.414 . S
C3185 C3188 1.499 . S
C3186 H3166 0.950 . S
C3186 C3185 1.414 . S
C3186 C3187 1.374 . S
C3187 H3167 0.950 . S
C3187 C3183 1.385 . S
C3187 C3186 1.374 . S
C3188 C3185 1.499 . S
C3188 C3189 1.373 . S
C3188 C3190 1.389 . S
C3189 H3168 0.950 . S
C3189 C3188 1.373 . S
C3189 C3205 1.377 . S
C3190 C3188 1.389 . S
C3190 C3191 1.524 . S
C3190 C3204 1.377 . S
C3191 C3190 1.524 . S
C3191 C3192 1.397 . S
C3191 C3196 1.363 . S
C3192 H3169 0.950 . S
C3192 C3191 1.397 . S
C3192 C3193 1.334 . S
C3193 H3170 0.950 . S
C3193 C3192 1.334 . S
C3193 C3194 1.287 . S
C3194 C3193 1.287 . S
C3194 C3195 1.524 . S
C3194 H3213 0.913 . S
C3195 H3171 0.950 . S
C3195 C3194 1.524 . S
C3195 C3196 1.415 . S
C3196 H3172 0.950 . S
C3196 C3191 1.363 . S
C3196 C3195 1.415 . S
C3197 H3173 0.951 . S
C3197 C3198 1.366 . S
C3197 C3199 1.388 . S
C3198 C3197 1.366 . S
C3198 C3202 1.385 . S
C3199 H3174 0.951 . S
C3199 C3197 1.388 . S
C3199 C3200 1.366 . S
C3200 C3199 1.366 . S
C3200 C3201 1.414 . S
C3200 C3203 1.499 . S
C3201 H3175 0.950 . S
C3201 C3200 1.414 . S
C3201 C3202 1.374 . S
C3202 H3176 0.950 . S
C3202 C3198 1.385 . S
C3202 C3201 1.374 . S
C3203 C3200 1.499 . S
C3203 C3204 1.373 . S
C3203 C3205 1.389 . S
C3204 H3177 0.950 . S
C3204 C3190 1.377 . S
C3204 C3203 1.373 . S
C3205 C3189 1.377 . S
C3205 C3203 1.389 . S
C3205 C3206 1.524 . S
C3206 C3205 1.524 . S
C3206 C3207 1.397 . S
C3206 C3211 1.363 . S
C3207 H3178 0.950 . S
C3207 C3206 1.397 . S
C3207 C3208 1.334 . S
C3208 H3179 0.950 . S
C3208 C3207 1.334 . S
C3208 C3209 1.287 . S
C3209 C3208 1.287 . S
C3209 C3210 1.524 . S
C3209 H3212 0.999 . S
C3210 H3180 0.950 . S
C3210 C3209 1.524 . S
C3210 C3211 1.415 . S
C3211 H3181 0.950 . S
C3211 C3206 1.363 . S
C3211 C3210 1.415 . S
H3212 C3209 0.999 . S
H3213 C3194 0.913 . S
H3214 C3232 0.951 . S
H3215 C3234 0.951 . S
H3216 C3236 0.950 . S
H3217 C3237 0.950 . S
H3218 C3239 0.950 . S
H3219 C3242 0.950 . S
H3220 C3243 0.950 . S
H3221 C3245 0.950 . S
H3222 C3246 0.950 . S
H3223 C3247 0.951 . S
H3224 C3249 0.951 . S
H3225 C3251 0.950 . S
H3226 C3252 0.950 . S
H3227 C3254 0.950 . S
H3228 C3257 0.950 . S
H3229 C3258 0.950 . S
H3230 C3260 0.950 . S
H3231 C3261 0.950 . S
C3232 H3214 0.951 . S
C3232 C3233 1.366 . S
C3232 C3234 1.388 . S
C3233 C3232 1.366 . S
C3233 C3237 1.385 1_455 S
C3234 H3215 0.951 . S
C3234 C3232 1.388 . S
C3234 C3235 1.366 . S
C3235 C3234 1.366 . S
C3235 C3236 1.414 1_455 S
C3235 C3238 1.499 . S
C3236 H3216 0.950 . S
C3236 C3235 1.414 1_655 S
C3236 C3237 1.374 . S
C3237 H3217 0.950 . S
C3237 C3233 1.385 1_655 S
C3237 C3236 1.374 . S
C3238 C3235 1.499 . S
C3238 C3239 1.373 1_455 S
C3238 C3240 1.389 . S
C3239 H3218 0.950 . S
C3239 C3238 1.373 1_655 S
C3239 C3255 1.377 . S
C3240 C3238 1.389 . S
C3240 C3241 1.524 . S
C3240 C3254 1.377 . S
C3241 C3240 1.524 . S
C3241 C3242 1.397 . S
C3241 C3246 1.363 . S
C3242 H3219 0.950 . S
C3242 C3241 1.397 . S
C3242 C3243 1.334 . S
C3243 H3220 0.950 . S
C3243 C3242 1.334 . S
C3243 C3244 1.287 . S
C3244 C3243 1.287 . S
C3244 C3245 1.524 . S
C3244 H3263 0.913 . S
C3245 H3221 0.950 . S
C3245 C3244 1.524 . S
C3245 C3246 1.415 . S
C3246 H3222 0.950 . S
C3246 C3241 1.363 . S
C3246 C3245 1.415 . S
C3247 H3223 0.951 . S
C3247 C3248 1.366 . S
C3247 C3249 1.388 . S
C3248 C3247 1.366 . S
C3248 C3252 1.385 1_655 S
C3249 H3224 0.951 . S
C3249 C3247 1.388 . S
C3249 C3250 1.366 . S
C3250 C3249 1.366 . S
C3250 C3251 1.414 1_655 S
C3250 C3253 1.499 . S
C3251 H3225 0.950 . S
C3251 C3250 1.414 1_455 S
C3251 C3252 1.374 . S
C3252 H3226 0.950 . S
C3252 C3248 1.385 1_455 S
C3252 C3251 1.374 . S
C3253 C3250 1.499 . S
C3253 C3254 1.373 1_655 S
C3253 C3255 1.389 . S
C3254 H3227 0.950 . S
C3254 C3240 1.377 . S
C3254 C3253 1.373 1_455 S
C3255 C3239 1.377 . S
C3255 C3253 1.389 . S
C3255 C3256 1.524 . S
C3256 C3255 1.524 . S
C3256 C3257 1.397 . S
C3256 C3261 1.363 . S
C3257 H3228 0.950 . S
C3257 C3256 1.397 . S
C3257 C3258 1.334 . S
C3258 H3229 0.950 . S
C3258 C3257 1.334 . S
C3258 C3259 1.287 . S
C3259 C3258 1.287 . S
C3259 C3260 1.524 . S
C3259 H3262 0.999 . S
C3260 H3230 0.950 . S
C3260 C3259 1.524 . S
C3260 C3261 1.415 . S
C3261 H3231 0.950 . S
C3261 C3256 1.363 . S
C3261 C3260 1.415 . S
H3262 C3259 0.999 . S
H3263 C3244 0.913 . S
C483 C15 2.245 . S
C498 C21 2.153 . S
C533 C50 2.152 . S
C548 C44 2.245 . S
C583 C79 2.153 . S
C598 C73 2.245 . S
C633 C108 2.153 . S
C648 C102 2.245 . S
C683 C131 2.245 . S
C698 C137 2.153 . S
C733 C160 2.245 . S
C748 C166 2.153 . S
C783 C189 2.245 . S
C798 C195 2.153 . S
C833 C224 2.152 . S
C848 C218 2.245 . S
C883 C253 2.153 . S
C898 C247 2.245 . S
C933 C276 2.245 . S
C948 C282 2.152 . S
C983 C305 2.245 . S
C998 C311 2.152 . S
C1033 C340 2.153 . S
C1048 C334 2.244 . S
C1083 C369 2.152 . S
C1098 C363 2.245 . S
C1133 C398 2.153 . S
C1148 C392 2.245 . S
C1183 C427 2.153 . S
C1198 C421 2.245 . S
C1233 C450 2.245 . S
C1248 C456 2.152 . S
C1283 C3 0.837 . S
C1298 C158 0.831 . S
C1333 C32 0.837 . S
C1348 C129 0.831 . S
C1383 C61 0.837 . S
C1398 C216 0.830 . S
C1433 C90 0.837 . S
C1448 C187 0.829 . S
C1483 C119 0.837 . S
C1498 C42 0.830 . S
C1533 C148 0.837 . S
C1548 C13 0.830 . S
C1583 C100 0.830 . S
C1598 C177 0.837 . S
C1633 C71 0.830 . S
C1648 C206 0.838 . S
C1683 C235 0.838 . S
C1698 C390 0.829 . S
C1733 C361 0.829 . S
C1748 C264 0.838 . S
C1783 C293 0.838 . S
C1798 C448 0.829 . S
C1833 C419 0.831 . S
C1848 C322 0.837 . S
C1883 C274 0.829 . S
C1898 C351 0.838 . S
C1933 C380 0.838 . S
C1948 C245 0.830 . S
C1983 C409 0.837 . S
C1998 C332 0.831 . S
C2033 C438 0.837 . S
C2048 C303 0.831 . S
C2083 C5 1.258 . S
C2098 C34 1.258 . S
C2133 C92 1.258 . S
C2148 C63 1.258 . S
C2183 C121 1.258 . S
C2198 C150 1.258 . S
C2233 C208 1.259 . S
C2248 C179 1.257 . S
C2283 C266 1.257 . S
C2298 C237 1.259 . S
C2333 C295 1.258 . S
C2348 C324 1.258 . S
C2383 C353 1.258 . S
C2398 C382 1.258 . S
C2433 C411 1.258 . S
C2448 C440 1.258 . S
C2483 C10 1.520 . S
C2498 C271 1.521 . S
C2533 C39 1.521 . S
C2548 C242 1.520 . S
C2583 C329 1.520 . S
C2598 C68 1.520 . S
C2633 C300 1.520 . S
C2648 C97 1.521 . S
C2683 C126 1.520 . S
C2698 C387 1.520 . S
C2733 C155 1.521 . S
C2748 C358 1.520 . S
C2783 C184 1.521 . S
C2798 C445 1.520 . S
C2833 C416 1.521 . S
C2848 C213 1.521 . S
C2883 C95 1.323 . S
C2898 C8 1.323 . S
C2933 C37 1.325 . S
C2948 C66 1.324 . S
C2983 C211 1.325 . S
C2998 C124 1.324 . S
C3033 C153 1.323 . S
C3048 C182 1.323 . S
C3083 C240 1.325 . S
C3098 C327 1.325 . S
C3133 C269 1.323 . S
C3148 C298 1.324 . S
C3183 C443 1.323 . S
C3198 C356 1.324 . S
C3233 C414 1.323 . S
C3248 C385 1.323 . S
