# Generated by pormake.
# Topology uos, (4)-cn, num edge types: 1
# Building blocks:
#     Node 0, Type 0, BuildingBlock: QUQFOY_clean_sbu_3, # of connection points: 4
#     Node 1, Type 0, BuildingBlock: QUQFOY_clean_sbu_3, # of connection points: 4
#     Node 2, Type 0, BuildingBlock: QUQFOY_clean_sbu_3, # of connection points: 4
#     Node 3, Type 0, BuildingBlock: QUQFOY_clean_sbu_3, # of connection points: 4
#     Node 4, Type 0, BuildingBlock: QUQFOY_clean_sbu_3, # of connection points: 4
#     Node 5, Type 0, BuildingBlock: QUQFOY_clean_sbu_3, # of connection points: 4
#     Node 6, Type 0, BuildingBlock: QUQFOY_clean_sbu_3, # of connection points: 4
#     Node 7, Type 0, BuildingBlock: QUQFOY_clean_sbu_3, # of connection points: 4
#     Node 8, Type 0, BuildingBlock: QUQFOY_clean_sbu_3, # of connection points: 4
#     Node 9, Type 0, BuildingBlock: QUQFOY_clean_sbu_3, # of connection points: 4
#     Node 10, Type 0, BuildingBlock: QUQFOY_clean_sbu_3, # of connection points: 4
#     Node 11, Type 0, BuildingBlock: QUQFOY_clean_sbu_3, # of connection points: 4
#     Node 12, Type 0, BuildingBlock: QUQFOY_clean_sbu_3, # of connection points: 4
#     Node 13, Type 0, BuildingBlock: QUQFOY_clean_sbu_3, # of connection points: 4
#     Node 14, Type 0, BuildingBlock: QUQFOY_clean_sbu_3, # of connection points: 4
#     Node 15, Type 0, BuildingBlock: QUQFOY_clean_sbu_3, # of connection points: 4
#     Node 16, Type 0, BuildingBlock: QUQFOY_clean_sbu_3, # of connection points: 4
#     Node 17, Type 0, BuildingBlock: QUQFOY_clean_sbu_3, # of connection points: 4
#     Node 18, Type 0, BuildingBlock: QUQFOY_clean_sbu_3, # of connection points: 4
#     Node 19, Type 0, BuildingBlock: QUQFOY_clean_sbu_3, # of connection points: 4
#     Node 20, Type 0, BuildingBlock: QUQFOY_clean_sbu_3, # of connection points: 4
#     Node 21, Type 0, BuildingBlock: QUQFOY_clean_sbu_3, # of connection points: 4
#     Node 22, Type 0, BuildingBlock: QUQFOY_clean_sbu_3, # of connection points: 4
#     Node 23, Type 0, BuildingBlock: QUQFOY_clean_sbu_3, # of connection points: 4
#     Node 24, Type 0, BuildingBlock: QUQFOY_clean_sbu_3, # of connection points: 4
#     Node 25, Type 0, BuildingBlock: QUQFOY_clean_sbu_3, # of connection points: 4
#     Node 26, Type 0, BuildingBlock: QUQFOY_clean_sbu_3, # of connection points: 4
#     Node 27, Type 0, BuildingBlock: QUQFOY_clean_sbu_3, # of connection points: 4
#     Node 28, Type 0, BuildingBlock: QUQFOY_clean_sbu_3, # of connection points: 4
#     Node 29, Type 0, BuildingBlock: QUQFOY_clean_sbu_3, # of connection points: 4
#     Node 30, Type 0, BuildingBlock: QUQFOY_clean_sbu_3, # of connection points: 4
#     Node 31, Type 0, BuildingBlock: QUQFOY_clean_sbu_3, # of connection points: 4
#     Edge 32, Type (0, 0), BuildingBlock: XIVTED_clean_linker_0, # of connection points: 2
#     Edge 33, Type (0, 0), BuildingBlock: XIVTED_clean_linker_0, # of connection points: 2
#     Edge 34, Type (0, 0), BuildingBlock: XIVTED_clean_linker_0, # of connection points: 2
#     Edge 35, Type (0, 0), BuildingBlock: XIVTED_clean_linker_0, # of connection points: 2
#     Edge 36, Type (0, 0), BuildingBlock: XIVTED_clean_linker_0, # of connection points: 2
#     Edge 37, Type (0, 0), BuildingBlock: XIVTED_clean_linker_0, # of connection points: 2
#     Edge 38, Type (0, 0), BuildingBlock: XIVTED_clean_linker_0, # of connection points: 2
#     Edge 39, Type (0, 0), BuildingBlock: XIVTED_clean_linker_0, # of connection points: 2
#     Edge 40, Type (0, 0), BuildingBlock: XIVTED_clean_linker_0, # of connection points: 2
#     Edge 41, Type (0, 0), BuildingBlock: XIVTED_clean_linker_0, # of connection points: 2
#     Edge 42, Type (0, 0), BuildingBlock: XIVTED_clean_linker_0, # of connection points: 2
#     Edge 43, Type (0, 0), BuildingBlock: XIVTED_clean_linker_0, # of connection points: 2
#     Edge 44, Type (0, 0), BuildingBlock: XIVTED_clean_linker_0, # of connection points: 2
#     Edge 45, Type (0, 0), BuildingBlock: XIVTED_clean_linker_0, # of connection points: 2
#     Edge 46, Type (0, 0), BuildingBlock: XIVTED_clean_linker_0, # of connection points: 2
#     Edge 47, Type (0, 0), BuildingBlock: XIVTED_clean_linker_0, # of connection points: 2
#     Edge 48, Type (0, 0), BuildingBlock: XIVTED_clean_linker_0, # of connection points: 2
#     Edge 49, Type (0, 0), BuildingBlock: XIVTED_clean_linker_0, # of connection points: 2
#     Edge 50, Type (0, 0), BuildingBlock: XIVTED_clean_linker_0, # of connection points: 2
#     Edge 51, Type (0, 0), BuildingBlock: XIVTED_clean_linker_0, # of connection points: 2
#     Edge 52, Type (0, 0), BuildingBlock: XIVTED_clean_linker_0, # of connection points: 2
#     Edge 53, Type (0, 0), BuildingBlock: XIVTED_clean_linker_0, # of connection points: 2
#     Edge 54, Type (0, 0), BuildingBlock: XIVTED_clean_linker_0, # of connection points: 2
#     Edge 55, Type (0, 0), BuildingBlock: XIVTED_clean_linker_0, # of connection points: 2
#     Edge 56, Type (0, 0), BuildingBlock: XIVTED_clean_linker_0, # of connection points: 2
#     Edge 57, Type (0, 0), BuildingBlock: XIVTED_clean_linker_0, # of connection points: 2
#     Edge 58, Type (0, 0), BuildingBlock: XIVTED_clean_linker_0, # of connection points: 2
#     Edge 59, Type (0, 0), BuildingBlock: XIVTED_clean_linker_0, # of connection points: 2
#     Edge 60, Type (0, 0), BuildingBlock: XIVTED_clean_linker_0, # of connection points: 2
#     Edge 61, Type (0, 0), BuildingBlock: XIVTED_clean_linker_0, # of connection points: 2
#     Edge 62, Type (0, 0), BuildingBlock: XIVTED_clean_linker_0, # of connection points: 2
#     Edge 63, Type (0, 0), BuildingBlock: XIVTED_clean_linker_0, # of connection points: 2
#     Edge 64, Type (0, 0), BuildingBlock: XIVTED_clean_linker_0, # of connection points: 2
#     Edge 65, Type (0, 0), BuildingBlock: XIVTED_clean_linker_0, # of connection points: 2
#     Edge 66, Type (0, 0), BuildingBlock: XIVTED_clean_linker_0, # of connection points: 2
#     Edge 67, Type (0, 0), BuildingBlock: XIVTED_clean_linker_0, # of connection points: 2
#     Edge 68, Type (0, 0), BuildingBlock: XIVTED_clean_linker_0, # of connection points: 2
#     Edge 69, Type (0, 0), BuildingBlock: XIVTED_clean_linker_0, # of connection points: 2
#     Edge 70, Type (0, 0), BuildingBlock: XIVTED_clean_linker_0, # of connection points: 2
#     Edge 71, Type (0, 0), BuildingBlock: XIVTED_clean_linker_0, # of connection points: 2
#     Edge 72, Type (0, 0), BuildingBlock: XIVTED_clean_linker_0, # of connection points: 2
#     Edge 73, Type (0, 0), BuildingBlock: XIVTED_clean_linker_0, # of connection points: 2
#     Edge 74, Type (0, 0), BuildingBlock: XIVTED_clean_linker_0, # of connection points: 2
#     Edge 75, Type (0, 0), BuildingBlock: XIVTED_clean_linker_0, # of connection points: 2
#     Edge 76, Type (0, 0), BuildingBlock: XIVTED_clean_linker_0, # of connection points: 2
#     Edge 77, Type (0, 0), BuildingBlock: XIVTED_clean_linker_0, # of connection points: 2
#     Edge 78, Type (0, 0), BuildingBlock: XIVTED_clean_linker_0, # of connection points: 2
#     Edge 79, Type (0, 0), BuildingBlock: XIVTED_clean_linker_0, # of connection points: 2
#     Edge 80, Type (0, 0), BuildingBlock: XIVTED_clean_linker_0, # of connection points: 2
#     Edge 81, Type (0, 0), BuildingBlock: XIVTED_clean_linker_0, # of connection points: 2
#     Edge 82, Type (0, 0), BuildingBlock: XIVTED_clean_linker_0, # of connection points: 2
#     Edge 83, Type (0, 0), BuildingBlock: XIVTED_clean_linker_0, # of connection points: 2
#     Edge 84, Type (0, 0), BuildingBlock: XIVTED_clean_linker_0, # of connection points: 2
#     Edge 85, Type (0, 0), BuildingBlock: XIVTED_clean_linker_0, # of connection points: 2
#     Edge 86, Type (0, 0), BuildingBlock: XIVTED_clean_linker_0, # of connection points: 2
#     Edge 87, Type (0, 0), BuildingBlock: XIVTED_clean_linker_0, # of connection points: 2
#     Edge 88, Type (0, 0), BuildingBlock: XIVTED_clean_linker_0, # of connection points: 2
#     Edge 89, Type (0, 0), BuildingBlock: XIVTED_clean_linker_0, # of connection points: 2
#     Edge 90, Type (0, 0), BuildingBlock: XIVTED_clean_linker_0, # of connection points: 2
#     Edge 91, Type (0, 0), BuildingBlock: XIVTED_clean_linker_0, # of connection points: 2
#     Edge 92, Type (0, 0), BuildingBlock: XIVTED_clean_linker_0, # of connection points: 2
#     Edge 93, Type (0, 0), BuildingBlock: XIVTED_clean_linker_0, # of connection points: 2
#     Edge 94, Type (0, 0), BuildingBlock: XIVTED_clean_linker_0, # of connection points: 2
#     Edge 95, Type (0, 0), BuildingBlock: XIVTED_clean_linker_0, # of connection points: 2
# Relax obj value: 0.043
# Max RMSD: 0.063
# Mean RMSD: 0.063
data_MOF--net-uos--node1-QUQFOY_clean_sbu_3--edge1-XIVTED_clean_linker_0
_symmetry_space_group_name_H-M    P1
_symmetry_Int_Tables_number       1
_symmetry_cell_setting            triclinic
loop_
_symmetry_equiv_pos_as_xyz
'x, y, z'
_cell_length_a     87.850212
_cell_length_b     87.762559
_cell_length_c     24.263867
_cell_angle_alpha  89.930913
_cell_angle_beta   90.047492
_cell_angle_gamma 90.096948
loop_
_atom_site_label
_atom_site_type_symbol
_atom_site_fract_x
_atom_site_fract_y
_atom_site_fract_z
_atom_type_partial_charge
C0 C 0.14817 0.17632 0.19653 0.0
O1 O 0.15029 0.17803 0.2479 0.0
Cd2 Cd 0.16414 0.1615 0.30654 0.0
O3 O 0.15234 0.16422 0.17168 0.0
Cd4 Cd 0.16243 0.13858 0.19954 0.0
C5 C 0.19636 0.15486 0.2273 0.0
O6 O 0.15216 0.13789 0.29097 0.0
O7 O 0.1682 0.12001 0.27346 0.0
O8 O 0.14103 0.1276 0.15134 0.0
C9 C 0.15921 0.1262 0.30751 0.0
O10 O 0.18982 0.16099 0.26852 0.0
C11 C 0.1487 0.11862 0.12135 0.0
O12 O 0.18911 0.14625 0.19408 0.0
O13 O 0.16311 0.11908 0.12659 0.0
C14 C 0.0449 0.89989 0.34626 0.0
O15 O 0.04953 0.89568 0.39345 0.0
Cd16 Cd 0.07339 0.9012 0.43441 0.0
O17 O 0.0537 0.90697 0.31312 0.0
Cd18 Cd 0.08144 0.91377 0.31191 0.0
C19 C 0.07585 0.94026 0.40955 0.0
O20 O 0.09129 0.8934 0.36853 0.0
O21 O 0.10628 0.91254 0.35809 0.0
O22 O 0.08315 0.90041 0.22551 0.0
C23 C 0.10415 0.89936 0.37795 0.0
O24 O 0.07481 0.92888 0.44203 0.0
C25 C 0.09141 0.91019 0.20124 0.0
O26 O 0.07736 0.93837 0.35766 0.0
O27 O 0.09412 0.92251 0.22706 0.0
C28 C 0.3303 0.78829 0.65209 0.0
O29 O 0.33369 0.79227 0.70094 0.0
Cd30 Cd 0.34479 0.81542 0.73413 0.0
O31 O 0.33233 0.7973 0.61151 0.0
Cd32 Cd 0.34082 0.82424 0.60476 0.0
C33 C 0.31501 0.83798 0.69849 0.0
O34 O 0.36268 0.82316 0.66635 0.0
O35 O 0.35615 0.84537 0.63772 0.0
O36 O 0.35301 0.8212 0.5156 0.0
C37 C 0.36526 0.83736 0.6659 0.0
O38 O 0.32341 0.83288 0.73708 0.0
C39 C 0.34561 0.8319 0.49262 0.0
O40 O 0.31823 0.83542 0.64808 0.0
O41 O 0.33512 0.83811 0.52069 0.0
C42 C 0.43743 0.06182 0.85453 0.0
O43 O 0.43258 0.06539 0.90206 0.0
Cd44 Cd 0.40779 0.07347 0.92727 0.0
O45 O 0.42863 0.06186 0.81267 0.0
Cd46 Cd 0.40076 0.06658 0.79975 0.0
C47 C 0.39081 0.03969 0.89434 0.0
O48 O 0.40004 0.0895 0.85381 0.0
O49 O 0.37811 0.08033 0.83355 0.0
O50 O 0.40686 0.07711 0.71006 0.0
C51 C 0.38576 0.09104 0.85504 0.0
O52 O 0.3939 0.04957 0.93106 0.0
C53 C 0.39563 0.07111 0.68521 0.0
O54 O 0.39326 0.04245 0.84347 0.0
O55 O 0.38736 0.06201 0.71289 0.0
C56 C 0.17957 0.8156 0.79726 0.0
O57 O 0.18201 0.81772 0.74628 0.0
Cd58 Cd 0.17927 0.84082 0.69645 0.0
O59 O 0.17593 0.82667 0.82861 0.0
Cd60 Cd 0.17338 0.8548 0.81416 0.0
C61 C 0.20827 0.85971 0.75932 0.0
O62 O 0.15747 0.85262 0.7336 0.0
O63 O 0.16654 0.87502 0.74739 0.0
O64 O 0.15334 0.85416 0.8826 0.0
C65 C 0.15765 0.8665 0.7201 0.0
O66 O 0.20216 0.85516 0.71472 0.0
C67 C 0.15741 0.86616 0.90778 0.0
O68 O 0.20098 0.85926 0.80474 0.0
O69 O 0.16961 0.87252 0.89154 0.0
C70 C 0.44744 0.91612 0.09504 0.0
O71 O 0.4471 0.91572 0.04277 0.0
Cd72 Cd 0.42725 0.90707 0.98353 0.0
O73 O 0.43599 0.91209 0.12374 0.0
Cd74 Cd 0.40965 0.9043 0.09861 0.0
C75 C 0.40167 0.93475 0.01831 0.0
O76 O 0.41548 0.88595 0.02617 0.0
O77 O 0.39229 0.89374 0.03127 0.0
O78 O 0.40896 0.88594 0.17285 0.0
C79 C 0.40189 0.88492 0.00912 0.0
O80 O 0.40923 0.9278 0.98136 0.0
C81 C 0.39655 0.89058 0.19352 0.0
O82 O 0.40121 0.92979 0.06778 0.0
O83 O 0.39061 0.90237 0.17204 0.0
C84 C 0.35114 0.19291 0.31361 0.0
O85 O 0.35212 0.19443 0.26174 0.0
Cd86 Cd 0.34372 0.17639 0.19555 0.0
O87 O 0.34701 0.18033 0.33519 0.0
Cd88 Cd 0.34278 0.154 0.29878 0.0
C89 C 0.30897 0.1651 0.24899 0.0
O90 O 0.35752 0.15384 0.21382 0.0
O91 O 0.3401 0.13659 0.22179 0.0
O92 O 0.36251 0.14331 0.35669 0.0
C93 C 0.35105 0.14211 0.19426 0.0
O94 O 0.31652 0.17219 0.21216 0.0
C95 C 0.354 0.13367 0.38069 0.0
O96 O 0.31563 0.15784 0.28758 0.0
O97 O 0.33996 0.13382 0.36802 0.0
C98 C 0.06054 0.08467 0.64454 0.0
O99 O 0.06709 0.08909 0.60071 0.0
Cd100 Cd 0.09179 0.08172 0.57304 0.0
O101 O 0.06758 0.07648 0.6798 0.0
Cd102 Cd 0.0942 0.06679 0.69336 0.0
C103 C 0.08826 0.04248 0.58887 0.0
O104 O 0.10686 0.08791 0.65061 0.0
O105 O 0.12077 0.06799 0.65865 0.0
O106 O 0.0908 0.0769 0.78486 0.0
C107 C 0.11984 0.08192 0.64531 0.0
O108 O 0.08988 0.05417 0.55819 0.0
C109 C 0.09899 0.06711 0.8093 0.0
O110 O 0.08854 0.04367 0.64126 0.0
O111 O 0.10423 0.05628 0.78025 0.0
C112 C 0.80623 0.80837 0.82633 0.0
O113 O 0.80706 0.81235 0.77613 0.0
Cd114 Cd 0.80973 0.83728 0.74044 0.0
O115 O 0.80621 0.81827 0.86483 0.0
Cd116 Cd 0.8064 0.84694 0.86648 0.0
C117 C 0.77525 0.85039 0.78594 0.0
O118 O 0.82683 0.84928 0.80149 0.0
O119 O 0.81467 0.87007 0.81542 0.0
O120 O 0.82169 0.84446 0.94892 0.0
C121 C 0.82591 0.86344 0.7933 0.0
O122 O 0.7844 0.84778 0.74642 0.0
C123 C 0.81606 0.85579 0.97403 0.0
O124 O 0.77968 0.84946 0.83596 0.0
O125 O 0.80488 0.86243 0.95101 0.0
C126 C 0.94978 0.09116 0.59768 0.0
O127 O 0.94744 0.09335 0.54666 0.0
Cd128 Cd 0.9245 0.08864 0.49774 0.0
O129 O 0.93903 0.08688 0.62944 0.0
Cd130 Cd 0.91102 0.08276 0.61858 0.0
C131 C 0.91688 0.05176 0.54016 0.0
O132 O 0.90534 0.10139 0.5475 0.0
O133 O 0.88849 0.08389 0.55957 0.0
O134 O 0.90629 0.09935 0.69618 0.0
C135 C 0.89237 0.09608 0.53532 0.0
O136 O 0.91998 0.06123 0.50193 0.0
C137 C 0.89704 0.09052 0.72062 0.0
O138 O 0.91422 0.05629 0.58917 0.0
O139 O 0.89502 0.07742 0.69953 0.0
C140 C 0.65862 0.19727 0.35244 0.0
O141 O 0.65548 0.19289 0.30387 0.0
Cd142 Cd 0.64711 0.16864 0.27148 0.0
O143 O 0.65791 0.18813 0.39324 0.0
Cd144 Cd 0.6526 0.1603 0.40066 0.0
C145 C 0.6797 0.14988 0.30684 0.0
O146 O 0.63071 0.15866 0.33979 0.0
O147 O 0.64061 0.13739 0.36468 0.0
O148 O 0.63917 0.16274 0.48756 0.0
C149 C 0.63025 0.14426 0.33822 0.0
O150 O 0.67039 0.15392 0.26934 0.0
C151 C 0.64695 0.15268 0.5125 0.0
O152 O 0.67667 0.15204 0.35771 0.0
O153 O 0.65826 0.14715 0.48675 0.0
C154 C 0.55236 0.9163 0.05846 0.0
O155 O 0.55195 0.91896 0.00704 0.0
Cd156 Cd 0.57016 0.91199 0.93884 0.0
O157 O 0.56377 0.90972 0.08037 0.0
Cd158 Cd 0.58892 0.90184 0.04297 0.0
C159 C 0.5976 0.93583 0.98567 0.0
O160 O 0.58007 0.88779 0.96262 0.0
O161 O 0.60381 0.89398 0.96337 0.0
O162 O 0.59027 0.88034 0.10589 0.0
C163 C 0.59306 0.88666 0.94061 0.0
O164 O 0.5896 0.93144 0.9449 0.0
C165 C 0.60325 0.88371 0.12541 0.0
O166 O 0.59806 0.92809 0.03013 0.0
O167 O 0.60936 0.89595 0.10818 0.0
C168 C 0.81093 0.18145 0.14504 0.0
O169 O 0.81184 0.17873 0.19632 0.0
Cd170 Cd 0.81797 0.15536 0.24017 0.0
O171 O 0.81294 0.17094 0.10955 0.0
Cd172 Cd 0.81742 0.14285 0.11662 0.0
C173 C 0.78614 0.13678 0.19512 0.0
O174 O 0.83711 0.14404 0.1859 0.0
O175 O 0.82753 0.1218 0.17283 0.0
O176 O 0.83375 0.14544 0.03704 0.0
C177 C 0.83753 0.12994 0.19633 0.0
O178 O 0.79443 0.14123 0.23504 0.0
C179 C 0.82918 0.13351 0.01262 0.0
O180 O 0.79097 0.13741 0.14554 0.0
O181 O 0.81815 0.12634 0.03463 0.0
C182 C 0.54682 0.06421 0.91594 0.0
O183 O 0.54876 0.06326 0.96769 0.0
Cd184 Cd 0.57019 0.07087 0.02134 0.0
O185 O 0.55729 0.0694 0.88473 0.0
Cd186 Cd 0.58404 0.07752 0.9029 0.0
C187 C 0.59456 0.04489 0.96709 0.0
O188 O 0.57957 0.0938 0.9824 0.0
O189 O 0.60277 0.08701 0.96818 0.0
O190 O 0.58378 0.09721 0.83202 0.0
C191 C 0.59347 0.09509 -0.00479 0.0
O192 O 0.58834 0.05033 0.01015 0.0
C193 C 0.59579 0.09262 0.80819 0.0
O194 O 0.5934 0.05169 0.92081 0.0
O195 O 0.60174 0.08043 0.82634 0.0
C196 C 0.65121 0.78517 0.61509 0.0
O197 O 0.64579 0.79064 0.65941 0.0
Cd198 Cd 0.63639 0.81547 0.68002 0.0
O199 O 0.65238 0.79326 0.57159 0.0
Cd200 Cd 0.64716 0.82051 0.5497 0.0
C201 C 0.67047 0.83311 0.65417 0.0
O202 O 0.62356 0.82322 0.59929 0.0
O203 O 0.63308 0.84398 0.56798 0.0
O204 O 0.63807 0.81536 0.45708 0.0
C205 C 0.62251 0.83754 0.59475 0.0
O206 O 0.66 0.82978 0.68849 0.0
C207 C 0.64695 0.82486 0.43395 0.0
O208 O 0.669 0.83013 0.60293 0.0
O209 O 0.65683 0.8313 0.46435 0.0
C210 C 0.9349 0.89902 0.38037 0.0
O211 O 0.93307 0.89657 0.4315 0.0
Cd212 Cd 0.91172 0.90387 0.48495 0.0
O213 O 0.92425 0.90467 0.35104 0.0
Cd214 Cd 0.89672 0.91089 0.3654 0.0
C215 C 0.90733 0.9413 0.43981 0.0
O216 O 0.8909 0.89319 0.43825 0.0
O217 O 0.87485 0.91148 0.42875 0.0
O218 O 0.89126 0.89364 0.29093 0.0
C219 C 0.87854 0.89927 0.45321 0.0
O220 O 0.91026 0.93155 0.47734 0.0
C221 C 0.88181 0.90213 0.2661 0.0
O222 O 0.90298 0.93709 0.39196 0.0
O223 O 0.87988 0.91545 0.28548 0.0
C224 C 0.67738 0.67791 0.68602 0.0
O225 O 0.67941 0.67627 0.73749 0.0
Cd226 Cd 0.6773 0.65358 0.79012 0.0
O227 O 0.67426 0.6665 0.65547 0.0
Cd228 Cd 0.67182 0.63848 0.67237 0.0
C229 C 0.70666 0.63472 0.72848 0.0
O230 O 0.65613 0.64064 0.75331 0.0
O231 O 0.66575 0.61845 0.74056 0.0
O232 O 0.65146 0.63803 0.60509 0.0
C233 C 0.65685 0.62686 0.76802 0.0
O234 O 0.7005 0.63977 0.77223 0.0
C235 C 0.65592 0.62615 0.58014 0.0
O236 O 0.6994 0.63446 0.68294 0.0
O237 O 0.66846 0.6204 0.59594 0.0
C238 C 0.53577 0.40551 0.88978 0.0
O239 O 0.54093 0.40213 0.93712 0.0
Cd240 Cd 0.56619 0.40319 0.97041 0.0
O241 O 0.54469 0.40975 0.85111 0.0
Cd242 Cd 0.57312 0.41254 0.8428 0.0
C243 C 0.57371 0.44085 0.9368 0.0
O244 O 0.58046 0.3915 0.9007 0.0
O245 O 0.59812 0.40784 0.88546 0.0
O246 O 0.57294 0.39842 0.75718 0.0
C247 C 0.59422 0.39529 0.90708 0.0
O248 O 0.57219 0.43023 0.97224 0.0
C249 C 0.58205 0.40719 0.73177 0.0
O250 O 0.57335 0.438 0.8852 0.0
O251 O 0.58591 0.4194 0.75625 0.0
C252 C 0.82227 0.2909 0.1574 0.0
O253 O 0.8235 0.29323 0.20886 0.0
Cd254 Cd 0.83174 0.31532 0.25766 0.0
O255 O 0.82533 0.30134 0.12255 0.0
Cd256 Cd 0.83247 0.3287 0.13321 0.0
C257 C 0.80225 0.33767 0.21488 0.0
O258 O 0.85156 0.32653 0.20573 0.0
O259 O 0.84296 0.349 0.18879 0.0
O260 O 0.84966 0.32912 0.05478 0.0
C261 C 0.85216 0.34069 0.21542 0.0
O262 O 0.80966 0.3318 0.25471 0.0
C263 C 0.84331 0.34035 0.03116 0.0
O264 O 0.80722 0.3369 0.16552 0.0
O265 O 0.83117 0.34539 0.05292 0.0
C266 C 0.94084 0.56137 0.3891 0.0
O267 O 0.93965 0.56138 0.44123 0.0
Cd268 Cd 0.91907 0.57044 0.49586 0.0
O269 O 0.93 0.56603 0.35855 0.0
Cd270 Cd 0.90348 0.57426 0.37869 0.0
C271 C 0.89427 0.54305 0.45376 0.0
O272 O 0.90925 0.59234 0.45165 0.0
O273 O 0.8858 0.58551 0.44424 0.0
O274 O 0.90492 0.59227 0.30327 0.0
C275 C 0.89559 0.59413 0.46663 0.0
O276 O 0.90083 0.54985 0.49356 0.0
C277 C 0.89226 0.58864 0.28172 0.0
O278 O 0.89479 0.54847 0.40493 0.0
O279 O 0.88517 0.5775 0.30325 0.0
C280 C 0.66705 0.30811 0.3214 0.0
O281 O 0.66749 0.31055 0.26985 0.0
Cd282 Cd 0.66302 0.33355 0.22123 0.0
O283 O 0.66418 0.31884 0.35522 0.0
Cd284 Cd 0.65993 0.3469 0.34358 0.0
C285 C 0.69336 0.35236 0.27731 0.0
O286 O 0.64261 0.34548 0.26658 0.0
O287 O 0.6524 0.36758 0.28061 0.0
O288 O 0.64089 0.34628 0.41591 0.0
C289 C 0.64302 0.35944 0.25395 0.0
O290 O 0.68636 0.34769 0.23458 0.0
C291 C 0.64562 0.35806 0.44095 0.0
O292 O 0.68704 0.35198 0.32466 0.0
O293 O 0.6578 0.36412 0.42299 0.0
C294 C 0.9454 0.41638 0.59422 0.0
O295 O 0.94218 0.4139 0.54398 0.0
Cd296 Cd 0.919 0.40496 0.50412 0.0
O297 O 0.93555 0.41432 0.63206 0.0
Cd298 Cd 0.90811 0.40699 0.63092 0.0
C299 C 0.89782 0.43562 0.54361 0.0
O300 O 0.90908 0.38626 0.56438 0.0
O301 O 0.88685 0.39482 0.58483 0.0
O302 O 0.91035 0.39185 0.71433 0.0
C303 C 0.89478 0.38513 0.55904 0.0
O304 O 0.90285 0.4273 0.50474 0.0
C305 C 0.89912 0.39798 0.73857 0.0
O306 O 0.89943 0.43165 0.59392 0.0
O307 O 0.8929 0.40924 0.71456 0.0
C308 C 0.83528 0.69985 0.82815 0.0
O309 O 0.83841 0.69559 0.77942 0.0
Cd310 Cd 0.84686 0.67154 0.7449 0.0
O311 O 0.83647 0.69067 0.86873 0.0
Cd312 Cd 0.84303 0.66312 0.87536 0.0
C313 C 0.81523 0.65199 0.78476 0.0
O314 O 0.86411 0.66147 0.81039 0.0
O315 O 0.8547 0.6403 0.83904 0.0
O316 O 0.85683 0.66431 0.96231 0.0
C317 C 0.8645 0.64704 0.8096 0.0
O318 O 0.82376 0.6563 0.74527 0.0
C319 C 0.84846 0.65451 0.98629 0.0
O320 O 0.81907 0.65422 0.83484 0.0
O321 O 0.83683 0.64983 0.96011 0.0
C322 C 0.54757 0.58764 0.12999 0.0
O323 O 0.55275 0.59154 0.0832 0.0
Cd324 Cd 0.57747 0.58691 0.04813 0.0
O325 O 0.55613 0.58135 0.16592 0.0
Cd326 Cd 0.58395 0.5754 0.1733 0.0
C327 C 0.58006 0.54819 0.07658 0.0
O328 O 0.59369 0.59594 0.11798 0.0
O329 O 0.6094 0.57762 0.13161 0.0
O330 O 0.58404 0.58869 0.2602 0.0
C331 C 0.60695 0.59069 0.11131 0.0
O332 O 0.57947 0.55921 0.04236 0.0
C333 C 0.59238 0.57919 0.28554 0.0
O334 O 0.58077 0.55064 0.12839 0.0
O335 O 0.59582 0.56704 0.25995 0.0
C336 C 0.33359 0.29597 0.32004 0.0
O337 O 0.33381 0.29568 0.26775 0.0
Cd338 Cd 0.32276 0.31364 0.20663 0.0
O339 O 0.32808 0.30726 0.34631 0.0
Cd340 Cd 0.31872 0.33334 0.32139 0.0
C341 C 0.28693 0.31811 0.26655 0.0
O342 O 0.33299 0.33664 0.23818 0.0
O343 O 0.31526 0.35321 0.24987 0.0
O344 O 0.33834 0.34241 0.38194 0.0
C345 C 0.32614 0.34832 0.22055 0.0
O346 O 0.29564 0.31401 0.22729 0.0
C347 C 0.33016 0.35159 0.40919 0.0
O348 O 0.29226 0.32475 0.30926 0.0
O349 O 0.31603 0.35195 0.39744 0.0
C350 C 0.43516 0.58695 0.11588 0.0
O351 O 0.4309 0.59023 0.06729 0.0
Cd352 Cd 0.40634 0.58729 0.02825 0.0
O353 O 0.4257 0.58202 0.15158 0.0
Cd354 Cd 0.39746 0.57801 0.15399 0.0
C355 C 0.39919 0.54948 0.06164 0.0
O356 O 0.38999 0.59847 0.09324 0.0
O357 O 0.3728 0.58156 0.1082 0.0
O358 O 0.39661 0.59235 0.23879 0.0
C359 C 0.37646 0.59403 0.08549 0.0
O360 O 0.40125 0.56001 0.02619 0.0
C361 C 0.38765 0.58337 0.26387 0.0
O362 O 0.3985 0.5525 0.11304 0.0
O363 O 0.38415 0.57105 0.23937 0.0
C364 C 0.15087 0.70831 0.82851 0.0
O365 O 0.14754 0.70407 0.77987 0.0
Cd366 Cd 0.13682 0.68083 0.74565 0.0
O367 O 0.14899 0.69946 0.86969 0.0
Cd368 Cd 0.14111 0.67231 0.87753 0.0
C369 C 0.16707 0.65898 0.78275 0.0
O370 O 0.11964 0.67247 0.81443 0.0
O371 O 0.12633 0.65065 0.84592 0.0
O372 O 0.12883 0.67412 0.96716 0.0
C373 C 0.11749 0.6582 0.81514 0.0
O374 O 0.15864 0.66391 0.74391 0.0
C375 C 0.13708 0.66389 0.98923 0.0
O376 O 0.16375 0.6615 0.83311 0.0
O377 O 0.14801 0.65871 0.96064 0.0
C378 C 0.05554 0.42801 0.60243 0.0
O379 O 0.05907 0.4271 0.55183 0.0
Cd380 Cd 0.08259 0.41889 0.51426 0.0
O381 O 0.06524 0.42502 0.64005 0.0
Cd382 Cd 0.09294 0.41828 0.63938 0.0
C383 C 0.10369 0.44864 0.56236 0.0
O384 O 0.09047 0.39849 0.57125 0.0
O385 O 0.11347 0.40538 0.58797 0.0
O386 O 0.08775 0.40298 0.72037 0.0
C387 C 0.1045 0.39622 0.56388 0.0
O388 O 0.09904 0.4409 0.52135 0.0
C389 C 0.09982 0.40654 0.74607 0.0
O390 O 0.10167 0.44386 0.61152 0.0
O391 O 0.1083 0.41655 0.72385 0.0
C392 C 0.30278 0.68058 0.67319 0.0
O393 O 0.30105 0.67808 0.72433 0.0
Cd394 Cd 0.30401 0.65464 0.77157 0.0
O395 O 0.30584 0.66975 0.64001 0.0
Cd396 Cd 0.30812 0.64148 0.65173 0.0
C397 C 0.27377 0.63705 0.71141 0.0
O398 O 0.32506 0.6427 0.72967 0.0
O399 O 0.31497 0.62073 0.71621 0.0
O400 O 0.32741 0.64174 0.5804 0.0
C401 C 0.32455 0.62877 0.74235 0.0
O402 O 0.28049 0.64114 0.75546 0.0
C403 C 0.32266 0.62996 0.55548 0.0
O404 O 0.28059 0.63756 0.66507 0.0
O405 O 0.31039 0.62402 0.57313 0.0
C406 C 0.04733 0.56845 0.3949 0.0
O407 O 0.04816 0.56939 0.44702 0.0
Cd408 Cd 0.06774 0.58043 0.50211 0.0
O409 O 0.05807 0.57331 0.36426 0.0
Cd410 Cd 0.08376 0.58392 0.38434 0.0
C411 C 0.09501 0.55466 0.46605 0.0
O412 O 0.07668 0.60225 0.45496 0.0
O413 O 0.10054 0.59705 0.44792 0.0
O414 O 0.08181 0.60129 0.30727 0.0
C415 C 0.09021 0.60503 0.4699 0.0
O416 O 0.08735 0.56116 0.5038 0.0
C417 C 0.09458 0.59791 0.28624 0.0
O418 O 0.09461 0.55954 0.41646 0.0
O419 O 0.10195 0.58712 0.30878 0.0
C420 C 0.13161 0.28093 0.15673 0.0
O421 O 0.13007 0.28306 0.20815 0.0
Cd422 Cd 0.13749 0.30492 0.25941 0.0
O423 O 0.13658 0.29146 0.1253 0.0
Cd424 Cd 0.14268 0.31905 0.13888 0.0
C425 C 0.17418 0.31021 0.21097 0.0
O426 O 0.12569 0.32546 0.21414 0.0
O427 O 0.14442 0.3409 0.20069 0.0
O428 O 0.12562 0.32643 0.06519 0.0
C429 C 0.13229 0.33781 0.22668 0.0
O430 O 0.16518 0.30751 0.25099 0.0
C431 C 0.13513 0.33485 0.0401 0.0
O432 O 0.16906 0.31355 0.16325 0.0
O433 O 0.14863 0.33514 0.05895 0.0
C434 C 0.4221 0.40632 0.87586 0.0
O435 O 0.41637 0.40251 0.92186 0.0
Cd436 Cd 0.39072 0.40488 0.94876 0.0
O437 O 0.41371 0.41138 0.83695 0.0
Cd438 Cd 0.38549 0.41518 0.82381 0.0
C439 C 0.38656 0.44317 0.91789 0.0
O440 O 0.37744 0.39331 0.87533 0.0
O441 O 0.35993 0.40997 0.86376 0.0
O442 O 0.38902 0.40309 0.73533 0.0
C443 C 0.36359 0.39681 0.88063 0.0
O444 O 0.38698 0.43239 0.95305 0.0
C445 C 0.37907 0.41085 0.70992 0.0
O446 O 0.38677 0.44038 0.86631 0.0
O447 O 0.37285 0.42166 0.73638 0.0
H448 H 0.28974 0.18722 0.21151 0.0
H449 H 0.21725 0.13398 0.19323 0.0
H450 H 0.29049 0.14122 0.2744 0.0
H451 H 0.21288 0.18045 0.24875 0.0
H452 H 0.24509 0.13678 0.19592 0.0
H453 H 0.26197 0.18519 0.20024 0.0
C454 C 0.28404 0.17673 0.22294 0.0
C455 C 0.2923 0.16441 0.24437 0.0
C456 C 0.23796 0.14637 0.20683 0.0
C457 C 0.26095 0.16189 0.22984 0.0
C458 C 0.22216 0.14484 0.20486 0.0
C459 C 0.21286 0.157 0.22099 0.0
C460 C 0.24438 0.16026 0.22359 0.0
C461 C 0.21973 0.1708 0.23633 0.0
C462 C 0.26829 0.1756 0.21648 0.0
C463 C 0.28446 0.15103 0.25841 0.0
N464 N 0.23513 0.1721 0.23708 0.0
N465 N 0.26919 0.15005 0.25034 0.0
H466 H 0.0802 0.96776 0.35694 0.0
H467 H 0.08279 0.01499 0.6393 0.0
H468 H 0.07234 0.94808 0.51769 0.0
H469 H 0.08809 0.03563 0.47874 0.0
H470 H 0.07868 0.99037 0.59488 0.0
H471 H 0.08257 0.99286 0.40011 0.0
C472 C 0.07886 0.96871 0.40117 0.0
C473 C 0.07614 0.95575 0.43368 0.0
C474 C 0.08072 0.0003 0.56934 0.0
C475 C 0.07895 0.9844 0.48337 0.0
C476 C 0.0831 0.01436 0.59474 0.0
C477 C 0.08582 0.02742 0.56279 0.0
C478 C 0.08109 -0.00076 0.51155 0.0
C479 C 0.08604 0.02588 0.50512 0.0
C480 C 0.08025 0.98304 0.42582 0.0
C481 C 0.07451 0.9577 0.49087 0.0
N482 N 0.08375 0.01206 0.48139 0.0
N483 N 0.07602 0.97171 0.51382 0.0
H484 H 0.22438 0.87098 0.67289 0.0
H485 H 0.30256 0.84243 0.80085 0.0
H486 H 0.2294 0.85644 0.84182 0.0
H487 H 0.29519 0.85233 0.62848 0.0
H488 H 0.27762 0.85325 0.8218 0.0
H489 H 0.25195 0.8706 0.66249 0.0
C490 C 0.23134 0.86801 0.7082 0.0
C491 C 0.22463 0.86343 0.75796 0.0
C492 C 0.28156 0.85324 0.77952 0.0
C493 C 0.25618 0.86263 0.74599 0.0
C494 C 0.2958 0.84705 0.76745 0.0
C495 C 0.30085 0.84619 0.71261 0.0
C496 C 0.27234 0.85862 0.73648 0.0
C497 C 0.29166 0.8525 0.67121 0.0
C498 C 0.24709 0.86775 0.70218 0.0
C499 C 0.23415 0.85993 0.80262 0.0
N500 N 0.27779 0.85829 0.68395 0.0
N501 N 0.24948 0.85927 0.79524 0.0
H502 H 0.38526 0.01458 0.82999 0.0
H503 H 0.39265 0.95823 0.08592 0.0
H504 H 0.38602 0.02944 -0.0004 0.0
H505 H 0.39399 0.94433 0.91541 0.0
H506 H 0.38462 0.98371 0.05633 0.0
H507 H 0.38264 0.98831 0.86165 0.0
C508 C 0.38463 0.01236 0.87386 0.0
C509 C 0.38622 0.02421 0.91215 0.0
C510 C 0.38644 0.97499 0.02551 0.0
C511 C 0.38342 -0.00587 0.94876 0.0
C512 C 0.39099 0.96045 0.04241 0.0
C513 C 0.39432 0.94927 0.003 0.0
C514 C 0.38522 0.97829 0.9689 0.0
C515 C 0.39188 0.95272 0.94717 0.0
C516 C 0.38316 -0.00266 0.89197 0.0
C517 C 0.38512 0.02065 0.96853 0.0
N518 N 0.38767 0.96695 0.93178 0.0
N519 N 0.38405 0.0059 0.98514 0.0
H520 H 0.75015 0.84741 0.8531 0.0
H521 H 0.69447 0.84428 0.59428 0.0
H522 H 0.76344 0.85873 0.68673 0.0
H523 H 0.67941 0.83686 0.76158 0.0
H524 H 0.71913 0.8526 0.62943 0.0
H525 H 0.7235 0.84678 0.82312 0.0
C526 C 0.74745 0.85006 0.8106 0.0
C527 C 0.75905 0.85284 0.77215 0.0
C528 C 0.71038 0.8493 0.65856 0.0
C529 C 0.7287 0.85197 0.73749 0.0
C530 C 0.6963 0.84451 0.63843 0.0
C531 C 0.68491 0.83966 0.67494 0.0
C532 C 0.7132 0.84909 0.71561 0.0
C533 C 0.68789 0.84037 0.73182 0.0
C534 C 0.73225 0.84963 0.79342 0.0
C535 C 0.75489 0.85623 0.7176 0.0
N536 N 0.70181 0.8448 0.75038 0.0
N537 N 0.74011 0.8555 0.7018 0.0
H538 H 0.90594 0.96586 0.36943 0.0
H539 H 0.91371 0.02747 0.61077 0.0
H540 H 0.91219 0.95408 0.54085 0.0
H541 H 0.91767 0.03869 0.43798 0.0
H542 H 0.91146 0.00056 0.58601 0.0
H543 H 0.90848 0.99282 0.39383 0.0
C544 C 0.90784 0.96892 0.41212 0.0
C545 C 0.90888 0.95768 0.45309 0.0
C546 C 0.91287 0.00892 0.55357 0.0
C547 C 0.91173 0.98845 0.48129 0.0
C548 C 0.91414 0.02429 0.56769 0.0
C549 C 0.91591 0.03537 0.52645 0.0
C550 C 0.91324 0.00462 0.4978 0.0
C551 C 0.91638 0.03056 0.47124 0.0
C552 C 0.90933 0.9843 0.42601 0.0
C553 C 0.91136 0.96232 0.50778 0.0
N554 N 0.91499 0.01556 0.45853 0.0
N555 N 0.91265 0.97733 0.52027 0.0
H556 H 0.70311 0.14014 0.37325 0.0
H557 H 0.76177 0.13572 0.12394 0.0
H558 H 0.6902 0.14485 0.20227 0.0
H559 H 0.774 0.1291 0.29464 0.0
H560 H 0.73487 0.13473 0.15005 0.0
H561 H 0.72845 0.13212 0.344 0.0
C562 C 0.70554 0.13936 0.32959 0.0
C563 C 0.69457 0.14344 0.29024 0.0
C564 C 0.74345 0.13324 0.18165 0.0
C565 C 0.72359 0.13432 0.25639 0.0
C566 C 0.75881 0.13371 0.16666 0.0
C567 C 0.77014 0.1328 0.20731 0.0
C568 C 0.73946 0.1319 0.2376 0.0
C569 C 0.76564 0.13017 0.26206 0.0
C570 C 0.72002 0.13475 0.31286 0.0
C571 C 0.69834 0.14203 0.23417 0.0
N572 N 0.75068 0.13004 0.27569 0.0
N573 N 0.71258 0.13778 0.21896 0.0
H574 H 0.60227 0.02895 0.05985 0.0
H575 H 0.60508 0.95199 0.89356 0.0
H576 H 0.60339 0.02628 0.88223 0.0
H577 H 0.60588 0.9545 0.07115 0.0
H578 H 0.61071 0.97914 0.88888 0.0
H579 H 0.60961 0.00222 0.06496 0.0
C580 C 0.60428 0.0228 0.02186 0.0
C581 C 0.60182 0.02975 0.97047 0.0
C582 C 0.60996 0.97374 0.92893 0.0
C583 C 0.61012 -0.00091 0.97611 0.0
C584 C 0.60673 0.95822 0.93163 0.0
C585 C 0.60463 0.95108 0.98285 0.0
C586 C 0.61083 0.98223 0.9778 0.0
C587 C 0.6072 0.95961 0.0308 0.0
C588 C 0.60851 0.00753 0.02485 0.0
C589 C 0.6049 0.02132 0.92272 0.0
N590 N 0.60983 0.97484 0.02712 0.0
N591 N 0.6086 0.00634 0.92669 0.0
H592 H 0.72259 0.62467 0.81719 0.0
H593 H 0.80183 0.64813 0.68356 0.0
H594 H 0.72787 0.6366 0.64573 0.0
H595 H 0.7947 0.63966 0.85703 0.0
H596 H 0.77611 0.63884 0.66484 0.0
H597 H 0.75016 0.62437 0.82738 0.0
C598 C 0.7296 0.62696 0.78138 0.0
C599 C 0.72298 0.63096 0.7308 0.0
C600 C 0.78025 0.63885 0.70689 0.0
C601 C 0.75456 0.63095 0.74242 0.0
C602 C 0.79493 0.64417 0.71769 0.0
C603 C 0.80034 0.64494 0.77213 0.0
C604 C 0.77093 0.63425 0.75083 0.0
C605 C 0.79094 0.63951 0.81453 0.0
C606 C 0.74535 0.62682 0.78725 0.0
C607 C 0.73255 0.63358 0.68554 0.0
N608 N 0.77665 0.63455 0.80302 0.0
N609 N 0.74791 0.63384 0.69268 0.0
H610 H 0.57709 0.45028 0.04327 0.0
H611 H 0.57884 0.53897 0.96894 0.0
H612 H 0.57484 0.46745 0.87655 0.0
H613 H 0.58087 0.52139 0.13514 0.0
H614 H 0.57821 0.51295 0.93406 0.0
H615 H 0.57942 0.47625 0.07696 0.0
C616 C 0.5771 0.45952 0.0136 0.0
C617 C 0.57566 0.45665 0.95687 0.0
C618 C 0.57882 0.51478 0.97814 0.0
C619 C 0.57833 0.48655 -0.00446 0.0
C620 C 0.57917 0.52965 -0.0018 0.0
C621 C 0.57985 0.53241 0.0552 0.0
C622 C 0.57914 0.50252 0.01526 0.0
C623 C 0.5803 0.51984 0.09093 0.0
C624 C 0.57844 0.47438 0.03299 0.0
C625 C 0.57587 0.46911 0.92059 0.0
N626 N 0.5799 0.50545 0.07036 0.0
N627 N 0.57711 0.48354 0.94058 0.0
H628 H 0.7083 0.36068 0.18362 0.0
H629 H 0.7891 0.34271 0.31538 0.0
H630 H 0.7155 0.35276 0.35729 0.0
H631 H 0.78119 0.34854 0.14092 0.0
H632 H 0.76323 0.35128 0.33353 0.0
H633 H 0.73575 0.3616 0.17005 0.0
C634 C 0.71567 0.35939 0.21913 0.0
C635 C 0.70962 0.35633 0.27153 0.0
C636 C 0.7672 0.35086 0.29132 0.0
C637 C 0.7411 0.35716 0.25607 0.0
C638 C 0.78198 0.34592 0.28083 0.0
C639 C 0.78726 0.34461 0.22638 0.0
C640 C 0.75755 0.35444 0.24709 0.0
C641 C 0.77757 0.34918 0.18348 0.0
C642 C 0.73136 0.35989 0.2113 0.0
C643 C 0.71969 0.35501 0.31612 0.0
N644 N 0.76311 0.3537 0.19473 0.0
N645 N 0.73497 0.35515 0.30721 0.0
H646 H 0.89097 0.44672 0.44116 0.0
H647 H 0.88496 0.53141 0.55225 0.0
H648 H 0.8898 0.45885 0.61355 0.0
H649 H 0.88927 0.51981 0.38018 0.0
H650 H 0.88031 0.50468 0.57363 0.0
H651 H 0.88427 0.47284 0.41729 0.0
C652 C 0.88911 0.45482 0.47412 0.0
C653 C 0.8913 0.45066 0.5295 0.0
C654 C 0.88201 0.50798 0.53105 0.0
C655 C 0.88366 0.48064 0.50222 0.0
C656 C 0.88465 0.52326 0.51876 0.0
C657 C 0.88785 0.52778 0.46447 0.0
C658 C 0.88276 0.4971 0.48885 0.0
C659 C 0.88702 0.51679 0.42267 0.0
C660 C 0.88526 0.46975 0.46036 0.0
C661 C 0.88846 0.46159 0.57032 0.0
N662 N 0.88486 0.50188 0.43589 0.0
N663 N 0.88502 0.47614 0.55581 0.0
H664 H 0.27183 0.30816 0.17515 0.0
H665 H 0.18911 0.31005 0.31013 0.0
H666 H 0.26416 0.32244 0.34317 0.0
H667 H 0.19713 0.31024 0.13455 0.0
H668 H 0.21661 0.31107 0.32563 0.0
H669 H 0.24452 0.30524 0.16279 0.0
C670 C 0.26442 0.31061 0.20968 0.0
C671 C 0.27034 0.31563 0.26033 0.0
C672 C 0.21232 0.31085 0.28377 0.0
C673 C 0.23892 0.31227 0.24613 0.0
C674 C 0.19664 0.3102 0.27481 0.0
C675 C 0.1908 0.31009 0.22088 0.0
C676 C 0.22224 0.31121 0.23851 0.0
C677 C 0.20111 0.31037 0.17679 0.0
C678 C 0.24879 0.30899 0.2024 0.0
C679 C 0.26011 0.31862 0.30338 0.0
N680 N 0.21632 0.31089 0.1866 0.0
N681 N 0.24486 0.31688 0.29531 0.0
H682 H 0.39394 0.52356 0.12265 0.0
H683 H 0.38864 0.46952 0.85715 0.0
H684 H 0.39936 0.5394 0.95516 0.0
H685 H 0.3853 0.45309 0.02461 0.0
H686 H 0.39114 0.49548 0.89238 0.0
H687 H 0.38971 0.49776 0.08759 0.0
C688 C 0.39429 0.52162 0.07859 0.0
C689 C 0.39706 0.53368 0.04188 0.0
C690 C 0.3898 0.48619 0.92139 0.0
C691 C 0.39213 0.50423 0.00147 0.0
C692 C 0.38832 0.47137 0.90127 0.0
C693 C 0.38685 0.45908 0.93793 0.0
C694 C 0.38981 0.48875 0.97858 0.0
C695 C 0.3865 0.46219 -0.00526 0.0
C696 C 0.39184 0.5069 0.05858 0.0
C697 C 0.39731 0.53049 0.98513 0.0
N698 N 0.38803 0.47669 0.01329 0.0
N699 N 0.39488 0.5161 0.96674 0.0
H700 H 0.25229 0.63929 0.62945 0.0
H701 H 0.18651 0.64423 0.85298 0.0
H702 H 0.25775 0.6278 0.80131 0.0
H703 H 0.18011 0.65526 0.68102 0.0
H704 H 0.21134 0.63352 0.83082 0.0
H705 H 0.22467 0.64011 0.64292 0.0
C706 C 0.24766 0.63655 0.66962 0.0
C707 C 0.25731 0.63381 0.71462 0.0
C708 C 0.20444 0.63812 0.79776 0.0
C709 C 0.22587 0.63494 0.73052 0.0
C710 C 0.19027 0.64429 0.81047 0.0
C711 C 0.18133 0.65092 0.76899 0.0
C712 C 0.20983 0.63874 0.74327 0.0
C713 C 0.1867 0.65045 0.71447 0.0
C714 C 0.23191 0.63711 0.67741 0.0
C715 C 0.25072 0.63029 0.76575 0.0
N716 N 0.2007 0.64468 0.70331 0.0
N717 N 0.23544 0.6312 0.7725 0.0
H718 H 0.10821 0.47186 0.63654 0.0
H719 H 0.10649 0.53297 0.39577 0.0
H720 H 0.1124 0.4609 0.4638 0.0
H721 H 0.10176 0.54375 0.56848 0.0
H722 H 0.1149 0.50736 0.42122 0.0
H723 H 0.1122 0.49872 0.61407 0.0
C724 C 0.1103 0.47504 0.59407 0.0
C725 C 0.10955 0.46417 0.55185 0.0
C726 C 0.11228 0.51542 0.45357 0.0
C727 C 0.11392 0.49488 0.52571 0.0
C728 C 0.10751 0.53006 0.43901 0.0
C729 C 0.10303 0.54038 0.48 0.0
C730 C 0.1125 0.51109 0.50942 0.0
C731 C 0.10473 0.53603 0.53542 0.0
C732 C 0.11252 0.4904 0.58118 0.0
C733 C 0.1125 0.46894 0.49758 0.0
N734 N 0.10907 0.52165 0.54847 0.0
N735 N 0.11427 0.48397 0.48595 0.0
H736 H 0.16157 0.09725 0.05302 0.0
H737 H 0.08478 0.08385 0.88817 0.0
H738 H 0.11829 0.11625 0.1011 0.0
H739 H 0.12531 0.05745 0.85839 0.0
H740 H 0.09629 0.09383 0.97217 0.0
H741 H 0.14836 0.0811 0.98584 0.0
C742 C 0.1493 0.09797 0.04964 0.0
C743 C 0.14104 0.10825 0.08219 0.0
C744 C 0.1026 0.08564 0.94794 0.0
C745 C 0.12587 0.08981 0.0058 0.0
C746 C 0.09598 0.07988 0.9001 0.0
C747 C 0.10416 0.06992 0.86618 0.0
C748 C 0.11763 0.08165 0.96135 0.0
C749 C 0.11862 0.06512 0.88351 0.0
C750 C 0.14176 0.08869 0.01155 0.0
C751 C 0.12514 0.10861 0.07649 0.0
N752 N 0.12505 0.07128 0.92941 0.0
N753 N 0.11811 0.09965 0.03872 0.0
H754 H 0.13079 0.85486 0.94851 0.0
H755 H 0.11557 0.92478 0.15237 0.0
H756 H 0.16147 0.8931 0.96358 0.0
H757 H 0.0856 0.8861 0.13381 0.0
H758 H 0.13156 0.91469 0.07816 0.0
H759 H 0.11361 0.86697 0.01365 0.0
C760 C 0.13398 0.86578 0.96585 0.0
C761 C 0.14763 0.87295 0.95074 0.0
C762 C 0.12137 0.90853 0.08992 0.0
C763 C 0.12786 0.88703 0.02517 0.0
C764 C 0.11217 0.91435 0.1319 0.0
C765 C 0.0993 0.90621 0.14953 0.0
C766 C 0.11764 0.89448 0.0656 0.0
C767 C 0.09548 0.89271 0.12183 0.0
C768 C 0.1241 0.87275 0.00287 0.0
C769 C 0.1511 0.88714 0.97436 0.0
N770 N 0.10468 0.88721 0.08167 0.0
N771 N 0.14127 0.89373 0.01046 0.0
H772 H 0.40621 0.86435 0.2425 0.0
H773 H 0.33346 0.85623 0.43742 0.0
H774 H 0.36907 0.89651 0.24258 0.0
H775 H 0.3696 0.82305 0.42874 0.0
H776 H 0.34526 0.87024 0.36154 0.0
H777 H 0.39242 0.84871 0.30878 0.0
C778 C 0.39519 0.86819 0.2568 0.0
C779 C 0.38881 0.8818 0.23718 0.0
C780 C 0.3505 0.85979 0.37578 0.0
C781 C 0.37284 0.86382 0.3127 0.0
C782 C 0.34371 0.85172 0.41884 0.0
C783 C 0.35065 0.83853 0.43977 0.0
C784 C 0.36435 0.85465 0.35376 0.0
C785 C 0.36391 0.83321 0.41412 0.0
C786 C 0.38726 0.85918 0.29438 0.0
C787 C 0.37445 0.88614 0.25688 0.0
N788 N 0.37043 0.8414 0.37289 0.0
N789 N 0.36694 0.87717 0.29364 0.0
H790 H 0.41218 0.08849 0.61363 0.0
H791 H 0.339 0.11101 0.43677 0.0
H792 H 0.36853 0.06642 0.63204 0.0
H793 H 0.38351 0.13097 0.41422 0.0
H794 H 0.34997 0.09294 0.50263 0.0
H795 H 0.40252 0.10192 0.53287 0.0
C796 C 0.40064 0.08625 0.60002 0.0
C797 C 0.39109 0.07647 0.62995 0.0
C798 C 0.35734 0.10122 0.483 0.0
C799 C 0.37983 0.09206 0.53823 0.0
C800 C 0.35107 0.11158 0.44565 0.0
C801 C 0.36033 0.12261 0.42043 0.0
C802 C 0.37297 0.10193 0.49528 0.0
C803 C 0.37592 0.12275 0.43304 0.0
C804 C 0.3951 0.09398 0.55404 0.0
C805 C 0.37627 0.07393 0.61029 0.0
N806 N 0.38172 0.11263 0.46977 0.0
N807 N 0.371 0.08187 0.56613 0.0
H808 H 0.81087 0.88319 0.02546 0.0
H809 H 0.88514 0.87487 0.21437 0.0
H810 H 0.839 0.84297 0.03358 0.0
H811 H 0.85701 0.91514 0.21507 0.0
H812 H 0.86814 0.86331 0.14729 0.0
H813 H 0.8268 0.89501 0.09671 0.0
C814 C 0.82021 0.87674 0.04291 0.0
C815 C 0.82365 0.86209 0.0234 0.0
C816 C 0.86566 0.8747 0.16183 0.0
C817 C 0.84204 0.87562 0.10393 0.0
C818 C 0.87544 0.88136 0.19998 0.0
C819 C 0.8725 0.896 0.22039 0.0
C820 C 0.85275 0.88269 0.14375 0.0
C821 C 0.85973 0.90384 0.20022 0.0
C822 C 0.82937 0.88354 0.0832 0.0
C823 C 0.83595 0.8543 0.04716 0.0
N824 N 0.85027 0.89706 0.16309 0.0
N825 N 0.84474 0.8612 0.0858 0.0
H826 H 0.82552 0.10588 0.96096 0.0
H827 H 0.89997 0.11749 0.77517 0.0
H828 H 0.85248 0.14703 0.9569 0.0
H829 H 0.87293 0.07638 0.77167 0.0
H830 H 0.8828 0.12804 0.84386 0.0
H831 H 0.8423 0.09478 0.89105 0.0
C832 C 0.83481 0.11266 0.9448 0.0
C833 C 0.83762 0.1274 0.96486 0.0
C834 C 0.88063 0.11668 0.82837 0.0
C835 C 0.85697 0.11469 0.88581 0.0
C836 C 0.8905 0.1106 0.78933 0.0
C837 C 0.88787 0.09603 0.76757 0.0
C838 C 0.86796 0.10818 0.84588 0.0
C839 C 0.8754 0.08765 0.78747 0.0
C840 C 0.84445 0.10627 0.90524 0.0
C841 C 0.84989 0.13562 0.94276 0.0
N842 N 0.86584 0.09388 0.82535 0.0
N843 N 0.85914 0.12913 0.90473 0.0
H844 H 0.58623 0.11962 0.76375 0.0
H845 H 0.65927 0.12879 0.56965 0.0
H846 H 0.62259 0.08669 0.75518 0.0
H847 H 0.62201 0.16078 0.57297 0.0
H848 H 0.64721 0.11453 0.64431 0.0
H849 H 0.59988 0.13564 0.69784 0.0
C850 C 0.59703 0.1157 0.74767 0.0
C851 C 0.60325 0.10176 0.76478 0.0
C852 C 0.64175 0.12476 0.62912 0.0
C853 C 0.61905 0.12014 0.68995 0.0
C854 C 0.6487 0.13298 0.58679 0.0
C855 C 0.64157 0.14592 0.56473 0.0
C856 C 0.62756 0.12949 0.6494 0.0
C857 C 0.62787 0.15082 0.58852 0.0
C858 C 0.60487 0.1249 0.7103 0.0
C859 C 0.61734 0.09731 0.7429 0.0
N860 N 0.62123 0.14251 0.62919 0.0
N861 N 0.62477 0.10648 0.70665 0.0
H862 H 0.66197 0.84728 0.37722 0.0
H863 H 0.59354 0.8561 0.16375 0.0
H864 H 0.62489 0.81519 0.36255 0.0
H865 H 0.63078 0.88807 0.17624 0.0
H866 H 0.60647 0.83944 0.22918 0.0
H867 H 0.65285 0.8603 0.2946 0.0
C868 C 0.65212 0.84275 0.3559 0.0
C869 C 0.64403 0.83027 0.3773 0.0
C870 C 0.61187 0.85006 0.21745 0.0
C871 C 0.63337 0.8453 0.28344 0.0
C872 C 0.60445 0.85963 0.1803 0.0
C873 C 0.61102 0.87358 0.16502 0.0
C874 C 0.62595 0.85449 0.23977 0.0
C875 C 0.62525 0.87748 0.1873 0.0
C876 C 0.64685 0.85026 0.30893 0.0
C877 C 0.63138 0.82487 0.34785 0.0
N878 N 0.63219 0.86802 0.22387 0.0
N879 N 0.6263 0.83256 0.30291 0.0
H880 H 0.62865 0.63607 0.5404 0.0
H881 H 0.61644 0.56534 0.33737 0.0
H882 H 0.66098 0.59933 0.52489 0.0
H883 H 0.58532 0.60311 0.35221 0.0
H884 H 0.63165 0.57604 0.41267 0.0
H885 H 0.61188 0.62308 0.47578 0.0
C886 C 0.63228 0.6253 0.52309 0.0
C887 C 0.64629 0.61882 0.53783 0.0
C888 C 0.62138 0.58186 0.39989 0.0
C889 C 0.62699 0.60375 0.46404 0.0
C890 C 0.61262 0.57569 0.35728 0.0
C891 C 0.59967 0.58343 0.3382 0.0
C892 C 0.61714 0.59585 0.42342 0.0
C893 C 0.59528 0.59683 0.36529 0.0
C894 C 0.62263 0.61783 0.48638 0.0
C895 C 0.65032 0.60478 0.51435 0.0
N896 N 0.60408 0.60268 0.4061 0.0
N897 N 0.64071 0.59771 0.47853 0.0
H898 H 0.6063 0.42034 0.67858 0.0
H899 H 0.61932 0.34737 0.48667 0.0
H900 H 0.57563 0.38193 0.67048 0.0
H901 H 0.65075 0.38517 0.49423 0.0
H902 H 0.60283 0.3604 0.55203 0.0
H903 H 0.62184 0.40868 0.60635 0.0
C904 C 0.60266 0.40961 0.66084 0.0
C905 C 0.58969 0.40205 0.68082 0.0
C906 C 0.61334 0.36586 0.53959 0.0
C907 C 0.60757 0.38852 0.59908 0.0
C908 C 0.62283 0.35836 0.5025 0.0
C909 C 0.63647 0.36516 0.48507 0.0
C910 C 0.61747 0.38031 0.55951 0.0
C911 C 0.64037 0.37947 0.50678 0.0
C912 C 0.61161 0.40289 0.61998 0.0
C913 C 0.58557 0.38814 0.65655 0.0
N914 N 0.6309 0.38659 0.54281 0.0
N915 N 0.59455 0.38177 0.61736 0.0
H916 H 0.90943 0.37333 0.79645 0.0
H917 H 0.83359 0.366 0.97737 0.0
H918 H 0.87286 0.4061 0.79157 0.0
H919 H 0.87018 0.33324 0.98078 0.0
H920 H 0.84777 0.38092 0.90946 0.0
H921 H 0.89566 0.35911 0.86715 0.0
C922 C 0.8986 0.37767 0.81087 0.0
C923 C 0.89225 0.39089 0.78791 0.0
C924 C 0.85267 0.37043 0.92486 0.0
C925 C 0.87629 0.37451 0.86813 0.0
C926 C 0.84452 0.36184 0.96332 0.0
C927 C 0.85071 0.34834 0.98475 0.0
C928 C 0.86712 0.3655 0.9078 0.0
C929 C 0.86496 0.34355 0.9653 0.0
C930 C 0.89069 0.36948 0.85097 0.0
C931 C 0.87818 0.39596 0.80812 0.0
N932 N 0.8727 0.35215 0.92811 0.0
N933 N 0.87061 0.38769 0.84678 0.0
H934 H 0.86438 0.58529 0.23221 0.0
H935 H 0.87404 0.66029 0.04715 0.0
H936 H 0.90463 0.61359 0.23154 0.0
H937 H 0.83435 0.63125 0.04148 0.0
H938 H 0.88442 0.64445 0.12082 0.0
H939 H 0.8526 0.60255 0.16541 0.0
C940 C 0.87079 0.59504 0.21762 0.0
C941 C 0.88553 0.59798 0.23732 0.0
C942 C 0.87337 0.64162 0.10386 0.0
C943 C 0.87205 0.61789 0.16171 0.0
C944 C 0.86738 0.65074 0.06209 0.0
C945 C 0.85336 0.64702 0.03786 0.0
C946 C 0.86531 0.62865 0.12141 0.0
C947 C 0.84523 0.63451 0.05884 0.0
C948 C 0.86402 0.60495 0.17981 0.0
C949 C 0.89326 0.61085 0.21735 0.0
N950 N 0.8514 0.62567 0.09906 0.0
N951 N 0.88642 0.62034 0.18076 0.0
H952 H 0.31666 0.37424 0.47069 0.0
H953 H 0.39318 0.39209 0.63686 0.0
H954 H 0.35981 0.35226 0.44117 0.0
H955 H 0.35165 0.41735 0.6614 0.0
H956 H 0.38147 0.37911 0.55893 0.0
H957 H 0.32925 0.39125 0.53698 0.0
C958 C 0.32874 0.37297 0.47824 0.0
C959 C 0.33717 0.36174 0.45069 0.0
C960 C 0.37494 0.38763 0.58077 0.0
C961 C 0.35164 0.38119 0.52569 0.0
C962 C 0.38168 0.39512 0.6251 0.0
C963 C 0.37334 0.40573 0.65582 0.0
C964 C 0.35966 0.39059 0.56744 0.0
C965 C 0.35848 0.40924 0.63872 0.0
C966 C 0.33594 0.38273 0.51575 0.0
C967 C 0.35282 0.36068 0.46164 0.0
N968 N 0.352 0.4015 0.59613 0.0
N969 N 0.35951 0.37022 0.4983 0.0
H970 H 0.31709 0.60315 0.50075 0.0
H971 H 0.39462 0.60778 0.32852 0.0
H972 H 0.34939 0.64016 0.51177 0.0
H973 H 0.36276 0.57051 0.31394 0.0
H974 H 0.37895 0.61869 0.40116 0.0
H975 H 0.3339 0.59041 0.43484 0.0
C976 C 0.32763 0.60866 0.48892 0.0
C977 C 0.33182 0.62277 0.51163 0.0
C978 C 0.37543 0.60805 0.38254 0.0
C979 C 0.35118 0.60816 0.43708 0.0
C980 C 0.38445 0.60175 0.34127 0.0
C981 C 0.37994 0.58826 0.3149 0.0
C982 C 0.36173 0.60088 0.39739 0.0
C983 C 0.36666 0.58093 0.3332 0.0
C984 C 0.33727 0.60133 0.45164 0.0
C985 C 0.34567 0.62932 0.49521 0.0
N986 N 0.35791 0.58743 0.37295 0.0
N987 N 0.35484 0.62196 0.45905 0.0
H988 H 0.11233 0.67009 0.05367 0.0
H989 H 0.1224 0.59475 0.23642 0.0
H990 H 0.15133 0.64039 0.04223 0.0
H991 H 0.08193 0.62261 0.23566 0.0
H992 H 0.13401 0.61211 0.16952 0.0
H993 H 0.10232 0.6542 0.12792 0.0
C994 C 0.11894 0.66039 0.06749 0.0
C995 C 0.13262 0.65648 0.04142 0.0
C996 C 0.12257 0.61439 0.18391 0.0
C997 C 0.12108 0.63807 0.12557 0.0
C998 C 0.1159 0.60442 0.22177 0.0
C999 C 0.10116 0.60721 0.24149 0.0
C1000 C 0.11445 0.62724 0.16586 0.0
C1001 C 0.09331 0.61998 0.22144 0.0
C1002 C 0.11315 0.65124 0.10956 0.0
C1003 C 0.14069 0.64378 0.06101 0.0
N1004 N 0.10007 0.62954 0.18486 0.0
N1005 N 0.13472 0.63493 0.10156 0.0
H1006 H 0.12723 0.40774 0.80021 0.0
H1007 H 0.10719 0.33599 0.99121 0.0
H1008 H 0.08345 0.38534 0.80315 0.0
H1009 H 0.15165 0.35699 0.98696 0.0
H1010 H 0.09827 0.35447 0.92355 0.0
H1011 H 0.13611 0.39032 0.87229 0.0
C1012 C 0.11941 0.39933 0.81663 0.0
C1013 C 0.1046 0.39794 0.79548 0.0
C1014 C 0.11 0.35503 0.93718 0.0
C1015 C 0.11475 0.37785 0.87713 0.0
C1016 C 0.11513 0.34441 0.97563 0.0
C1017 C 0.1302 0.34493 -0.00532 0.0
C1018 C 0.11999 0.36631 0.9176 0.0
C1019 C 0.13995 0.35614 0.97318 0.0
C1020 C 0.12453 0.38931 0.85744 0.0
C1021 C 0.09498 0.38678 0.81805 0.0
N1022 N 0.13466 0.36643 0.93587 0.0
N1023 N 0.10025 0.37712 0.85735 0.0
H1024 H 0.10856 0.26191 0.18435 0.0
H1025 H 0.15823 0.19039 0.1025 0.0
H1026 H 0.14871 0.26476 0.08286 0.0
H1027 H 0.12243 0.19116 0.22371 0.0
H1028 H 0.14984 0.21554 0.06935 0.0
H1029 H 0.10808 0.2344 0.17099 0.0
C1030 C 0.11706 0.25672 0.15805 0.0
C1031 C 0.12885 0.26548 0.13551 0.0
C1032 C 0.14355 0.20998 0.10209 0.0
C1033 C 0.12877 0.23397 0.12176 0.0
C1034 C 0.14828 0.19564 0.12073 0.0
C1035 C 0.14109 0.18894 0.16626 0.0
C1036 C 0.13154 0.21744 0.12917 0.0
C1037 C 0.12836 0.19613 0.18892 0.0
C1038 C 0.11684 0.24102 0.15055 0.0
C1039 C 0.1395 0.25831 0.10126 0.0
N1040 N 0.1241 0.21007 0.17059 0.0
N1041 N 0.13947 0.24285 0.09662 0.0
H1042 H 0.95364 0.87569 0.4063 0.0
H1043 H 0.02617 0.91626 0.27712 0.0
H1044 H 0.95034 0.91517 0.3011 0.0
H1045 H 0.02715 0.87679 0.3832 0.0
H1046 H -0.00159 0.91335 0.26869 0.0
H1047 H 0.98025 0.87295 0.38077 0.0
C1048 C 0.95853 0.88366 0.3771 0.0
C1049 C 0.94992 0.8958 0.35638 0.0
C1050 C 0.00477 0.90518 0.29293 0.0
C1051 C 0.98055 0.89304 0.32799 0.0
C1052 C 0.02059 0.90681 0.2976 0.0
C1053 C 0.02886 0.89693 0.33182 0.0
C1054 C -0.00265 0.89355 0.32248 0.0
C1055 C 0.02115 0.88486 0.35736 0.0
C1056 C 0.97374 0.88213 0.3625 0.0
C1057 C 0.95669 0.9057 0.31812 0.0
N1058 N 0.00584 0.88361 0.35263 0.0
N1059 N 0.97176 0.90432 0.306 0.0
H1060 H 0.33238 0.76947 0.56158 0.0
H1061 H 0.28646 0.70366 0.7173 0.0
H1062 H 0.31244 0.77284 0.72354 0.0
H1063 H 0.31835 0.69382 0.58706 0.0
H1064 H 0.29002 0.73078 0.70074 0.0
H1065 H 0.32223 0.74332 0.55402 0.0
C1066 C 0.32572 0.76477 0.59511 0.0
C1067 C 0.32341 0.77316 0.6436 0.0
C1068 C 0.29611 0.72272 0.67519 0.0
C1069 C 0.31163 0.7437 0.63483 0.0
C1070 C 0.29404 0.70724 0.68452 0.0
C1071 C 0.30237 0.69653 0.65424 0.0
C1072 C 0.30674 0.72758 0.63581 0.0
C1073 C 0.31182 0.70176 0.61158 0.0
C1074 C 0.31997 0.74992 0.59079 0.0
C1075 C 0.3147 0.76665 0.68583 0.0
N1076 N 0.31402 0.717 0.60425 0.0
N1077 N 0.30917 0.75233 0.68048 0.0
H1078 H 0.45735 0.06927 0.77129 0.0
H1079 H 0.52746 0.04316 0.95784 0.0
H1080 H 0.4542 0.04551 0.92652 0.0
H1081 H 0.53235 0.07477 0.82269 0.0
H1082 H 0.50127 0.03846 0.93024 0.0
H1083 H 0.48524 0.06625 0.77416 0.0
C1084 C 0.46251 0.06311 0.80518 0.0
C1085 C 0.4536 0.0578 0.84916 0.0
C1086 C 0.50806 0.04632 0.90612 0.0
C1087 C 0.48515 0.05429 0.85263 0.0
C1088 C 0.52303 0.04901 0.92191 0.0
C1089 C 0.53194 0.05962 0.89319 0.0
C1090 C 0.50181 0.05449 0.8618 0.0
C1091 C 0.52575 0.06663 0.84623 0.0
C1092 C 0.47837 0.06146 0.80695 0.0
C1093 C 0.46074 0.04996 0.89224 0.0
N1094 N 0.51091 0.06417 0.83252 0.0
N1095 N 0.47607 0.04854 0.89307 0.0
H1096 H 0.19591 0.79194 0.75712 0.0
H1097 H 0.14847 0.72792 0.91684 0.0
H1098 H 0.16331 0.80326 0.88347 0.0
H1099 H 0.16912 0.72305 0.75657 0.0
H1100 H 0.15881 0.75406 0.92211 0.0
H1101 H 0.19193 0.76502 0.77647 0.0
C1102 C 0.18808 0.78874 0.78964 0.0
C1103 C 0.17968 0.7998 0.81795 0.0
C1104 C 0.16117 0.74713 0.88623 0.0
C1105 C 0.17484 0.76897 0.8396 0.0
C1106 C 0.15532 0.73229 0.88322 0.0
C1107 C 0.15777 0.72348 0.83581 0.0
C1108 C 0.16977 0.75291 0.84205 0.0
C1109 C 0.16673 0.72957 0.79342 0.0
C1110 C 0.18578 0.77337 0.80056 0.0
C1111 C 0.1699 0.79504 0.86039 0.0
N1112 N 0.17237 0.74388 0.79753 0.0
N1113 N 0.1675 0.77989 0.8693 0.0
H1114 H 0.46253 0.94266 0.08206 0.0
H1115 H 0.53955 0.90021 0.14366 0.0
H1116 H 0.46512 0.89924 0.16431 0.0
H1117 H 0.53445 0.94114 0.04704 0.0
H1118 H 0.5137 0.90388 0.17991 0.0
H1119 H 0.48955 0.94672 0.09996 0.0
C1120 C 0.46877 0.93421 0.10552 0.0
C1121 C 0.46178 0.92056 0.12131 0.0
C1122 C 0.51841 0.91228 0.15198 0.0
C1123 C 0.49279 0.92467 0.13942 0.0
C1124 C 0.53315 0.91021 0.13148 0.0
C1125 C 0.53888 0.92021 0.0914 0.0
C1126 C 0.50954 0.92445 0.13224 0.0
C1127 C 0.53025 0.933 0.07696 0.0
C1128 C 0.4842 0.93645 0.11547 0.0
C1129 C 0.47023 0.9099 0.15146 0.0
N1130 N 0.51593 0.93463 0.09674 0.0
N1131 N 0.48547 0.91197 0.15826 0.0
H1132 H 0.37504 0.21234 0.31159 0.0
H1133 H 0.3199 0.27841 0.39921 0.0
H1134 H 0.33161 0.20485 0.38935 0.0
H1135 H 0.36123 0.28339 0.30548 0.0
H1136 H 0.32799 0.25265 0.42634 0.0
H1137 H 0.37454 0.23879 0.3422 0.0
C1138 C 0.36562 0.21621 0.33676 0.0
C1139 C 0.35326 0.20659 0.34741 0.0
C1140 C 0.3355 0.25957 0.40129 0.0
C1141 C 0.35215 0.23696 0.38003 0.0
C1142 C 0.33092 0.27426 0.38608 0.0
C1143 C 0.33985 0.28278 0.34944 0.0
C1144 C 0.34909 0.25357 0.37961 0.0
C1145 C 0.35396 0.27698 0.33315 0.0
C1146 C 0.36526 0.23132 0.35396 0.0
C1147 C 0.34132 0.21203 0.3802 0.0
N1148 N 0.35805 0.26266 0.34772 0.0
N1149 N 0.34082 0.22704 0.39402 0.0
H1150 H 0.96325 0.0772 0.68685 0.0
H1151 H 0.04512 0.10808 0.59735 0.0
H1152 H 0.97185 0.10946 0.55615 0.0
H1153 H 0.03915 0.0703 0.70934 0.0
H1154 H 0.01783 0.11245 0.59879 0.0
H1155 H 0.99042 0.07808 0.7113 0.0
C1156 C 0.97079 0.08466 0.66403 0.0
C1157 C 0.96539 0.09309 0.6189 0.0
C1158 C 0.02244 0.10327 0.62351 0.0
C1159 C -0.00375 0.09419 0.64654 0.0
C1160 C 0.03805 0.10077 0.62269 0.0
C1161 C 0.04437 0.08862 0.65243 0.0
C1162 C 0.01297 0.09344 0.65371 0.0
C1163 C 0.0347 0.07971 0.68541 0.0
C1164 C 0.98627 0.08512 0.67782 0.0
C1165 C 0.9756 0.10258 0.59064 0.0
N1166 N 0.01939 0.08213 0.68447 0.0
N1167 N 0.99052 0.10278 0.60469 0.0
H1168 H 0.83453 0.71725 0.92312 0.0
H1169 H 0.79397 0.78597 0.76426 0.0
H1170 H 0.82183 0.71767 0.75119 0.0
H1171 H 0.8189 0.79338 0.91511 0.0
H1172 H 0.79862 0.75877 0.77244 0.0
H1173 H 0.82444 0.74336 0.93199 0.0
C1174 C 0.82958 0.72278 0.88745 0.0
C1175 C 0.82918 0.71537 0.83617 0.0
C1176 C 0.80297 0.76628 0.80418 0.0
C1177 C 0.81742 0.74482 0.84632 0.0
C1178 C 0.80025 0.7818 0.79964 0.0
C1179 C 0.80628 0.79192 0.83857 0.0
C1180 C 0.81198 0.76077 0.84759 0.0
C1181 C 0.81413 0.78591 0.8841 0.0
C1182 C 0.82384 0.73762 0.89257 0.0
C1183 C 0.8226 0.72299 0.79132 0.0
N1184 N 0.81702 0.77066 0.88694 0.0
N1185 N 0.81699 0.73723 0.79751 0.0
H1186 H 0.67692 0.21339 0.28509 0.0
H1187 H 0.65504 0.29359 0.41247 0.0
H1188 H 0.65151 0.21712 0.4364 0.0
H1189 H 0.68484 0.28686 0.27343 0.0
H1190 H 0.65616 0.26604 0.43153 0.0
H1191 H 0.68263 0.24042 0.28925 0.0
C1192 C 0.67265 0.21996 0.31954 0.0
C1193 C 0.66358 0.21314 0.36004 0.0
C1194 C 0.66267 0.27068 0.39753 0.0
C1195 C 0.66977 0.24429 0.36471 0.0
C1196 C 0.66206 0.28637 0.38679 0.0
C1197 C 0.66961 0.29239 0.34067 0.0
C1198 C 0.67092 0.26113 0.36192 0.0
C1199 C 0.67857 0.28262 0.30869 0.0
C1200 C 0.67592 0.23542 0.32206 0.0
C1201 C 0.6585 0.22206 0.40427 0.0
N1202 N 0.67884 0.2675 0.31958 0.0
N1203 N 0.66142 0.23733 0.40493 0.0
H1204 H 0.83102 0.27439 0.06622 0.0
H1205 H 0.79032 0.20062 0.1889 0.0
H1206 H 0.80142 0.27316 0.20785 0.0
H1207 H 0.82506 0.1981 0.06395 0.0
H1208 H 0.78922 0.22812 0.17655 0.0
H1209 H 0.82451 0.24756 0.04728 0.0
C1210 C 0.82293 0.26856 0.09254 0.0
C1211 C 0.81694 0.27581 0.13921 0.0
C1212 C 0.79695 0.22161 0.15109 0.0
C1213 C 0.80939 0.24547 0.11777 0.0
C1214 C 0.79753 0.20591 0.15805 0.0
C1215 C 0.80794 0.19722 0.12794 0.0
C1216 C 0.80718 0.22875 0.11483 0.0
C1217 C 0.81693 0.20451 0.08806 0.0
C1218 C 0.81926 0.25329 0.08185 0.0
C1219 C 0.80651 0.26786 0.17206 0.0
N1220 N 0.81661 0.21999 0.08346 0.0
N1221 N 0.80317 0.25312 0.16094 0.0
H1222 H 0.69127 0.70268 0.72997 0.0
H1223 H 0.65286 0.7641 0.53084 0.0
H1224 H 0.66382 0.68875 0.59119 0.0
H1225 H 0.66356 0.77084 0.70273 0.0
H1226 H 0.66228 0.73766 0.53843 0.0
H1227 H 0.68757 0.72916 0.7038 0.0
C1228 C 0.68461 0.70519 0.69349 0.0
C1229 C 0.67755 0.69353 0.66341 0.0
C1230 C 0.66262 0.74505 0.57413 0.0
C1231 C 0.67313 0.72388 0.6336 0.0
C1232 C 0.65729 0.76005 0.56987 0.0
C1233 C 0.65726 0.76953 0.61645 0.0
C1234 C 0.66828 0.73981 0.62488 0.0
C1235 C 0.66314 0.76384 0.66603 0.0
C1236 C 0.68248 0.72032 0.67865 0.0
C1237 C 0.66932 0.69745 0.6158 0.0
N1238 N 0.66842 0.74939 0.66886 0.0
N1239 N 0.66709 0.71239 0.60274 0.0
H1240 H 0.5153 0.39149 0.95616 0.0
H1241 H 0.44076 0.419 0.79594 0.0
H1242 H 0.51826 0.41699 0.80417 0.0
H1243 H 0.4415 0.39052 0.94119 0.0
H1244 H 0.46879 0.41793 0.79325 0.0
H1245 H 0.48799 0.39066 0.94687 0.0
C1246 C 0.5102 0.39692 0.92056 0.0
C1247 C 0.51914 0.40442 0.88107 0.0
C1248 C 0.46273 0.41185 0.82533 0.0
C1249 C 0.48746 0.40353 0.87008 0.0
C1250 C 0.44678 0.41243 0.82683 0.0
C1251 C 0.43878 0.40498 0.86921 0.0
C1252 C 0.47061 0.40374 0.86642 0.0
C1253 C 0.44712 0.39663 0.90814 0.0
C1254 C 0.4945 0.39641 0.91518 0.0
C1255 C 0.51178 0.4111 0.8356 0.0
N1256 N 0.46249 0.39632 0.90588 0.0
N1257 N 0.49629 0.4106 0.83149 0.0
H1258 H 0.95836 0.53751 0.41944 0.0
H1259 H 0.03176 0.57862 0.30402 0.0
H1260 H 0.95676 0.57535 0.30627 0.0
H1261 H 0.0308 0.5446 0.43228 0.0
H1262 H 0.00528 0.57214 0.28068 0.0
H1263 H 0.98528 0.53418 0.39879 0.0
C1264 C 0.96367 0.54489 0.38919 0.0
C1265 C 0.95552 0.55689 0.36527 0.0
C1266 C 0.01103 0.56582 0.3129 0.0
C1267 C 0.98642 0.55358 0.34301 0.0
C1268 C 0.02612 0.56947 0.32603 0.0
C1269 C 0.03324 0.56232 0.37084 0.0
C1270 C 0.00322 0.55492 0.34471 0.0
C1271 C 0.02554 0.55057 0.39816 0.0
C1272 C 0.97904 0.54304 0.37747 0.0
C1273 C 0.96278 0.56605 0.32585 0.0
N1274 N 0.01089 0.54738 0.38514 0.0
N1275 N 0.97799 0.56448 0.31699 0.0
H1276 H 0.96206 0.41185 0.68915 0.0
H1277 H 0.03628 0.44636 0.54613 0.0
H1278 H 0.96379 0.43344 0.52944 0.0
H1279 H 0.03846 0.41709 0.68881 0.0
H1280 H 0.00873 0.44746 0.55548 0.0
H1281 H 0.98897 0.41873 0.70358 0.0
C1282 C 0.96803 0.41823 0.65762 0.0
C1283 C 0.96084 0.42185 0.60763 0.0
C1284 C 0.0152 0.44094 0.58533 0.0
C1285 C 0.99129 0.42986 0.62398 0.0
C1286 C 0.03093 0.44036 0.58008 0.0
C1287 C 0.03957 0.4314 0.61617 0.0
C1288 C 0.00797 0.43225 0.62632 0.0
C1289 C 0.03214 0.42405 0.65994 0.0
C1290 C 0.98334 0.42212 0.66581 0.0
C1291 C 0.969 0.43016 0.56813 0.0
N1292 N 0.01666 0.42436 0.66318 0.0
N1293 N 0.98378 0.43379 0.57704 0.0
H1294 H 0.45184 0.57308 0.19828 0.0
H1295 H 0.52927 0.60876 0.08276 0.0
H1296 H 0.45541 0.60556 0.06517 0.0
H1297 H 0.52873 0.57212 0.20152 0.0
H1298 H 0.5018 0.61071 0.09 0.0
H1299 H 0.47951 0.57523 0.21286 0.0
C1300 C 0.4584 0.58078 0.17267 0.0
C1301 C 0.45139 0.58899 0.12994 0.0
C1302 C 0.50763 0.60228 0.11489 0.0
C1303 C 0.48278 0.59156 0.1465 0.0
C1304 C 0.52334 0.60117 0.11076 0.0
C1305 C 0.53125 0.59009 0.1409 0.0
C1306 C 0.49962 0.59209 0.14885 0.0
C1307 C 0.52301 0.58076 0.17731 0.0
C1308 C 0.47414 0.58198 0.1809 0.0
C1309 C 0.46036 0.59882 0.09799 0.0
N1310 N 0.50755 0.5818 0.17968 0.0
N1311 N 0.47554 0.59976 0.10677 0.0
H1312 H 0.14738 0.14173 0.39412 0.0
H1313 H 0.14242 0.0684 0.58447 0.0
H1314 H 0.16779 0.09866 0.35106 0.0
H1315 H 0.12275 0.11207 0.62371 0.0
H1316 H 0.15647 0.08035 0.50866 0.0
H1317 H 0.14272 0.13218 0.48669 0.0
C1318 C 0.15094 0.13025 0.40432 0.0
C1319 C 0.15769 0.12084 0.3647 0.0
C1320 C 0.14933 0.08737 0.53461 0.0
C1321 C 0.1523 0.10975 0.47063 0.0
C1322 C 0.14138 0.08057 0.57805 0.0
C1323 C 0.13119 0.08925 0.60946 0.0
C1324 C 0.14699 0.10288 0.52289 0.0
C1325 C 0.13028 0.10495 0.59966 0.0
C1326 C 0.14835 0.12482 0.45732 0.0
C1327 C 0.16237 0.1062 0.38038 0.0
N1328 N 0.13789 0.11121 0.5567 0.0
N1329 N 0.15936 0.10098 0.43204 0.0
H1330 H 0.1023 0.87167 0.42826 0.0
H1331 H 0.16025 0.89422 0.66852 0.0
H1332 H 0.12802 0.91364 0.429 0.0
H1333 H 0.13854 0.85021 0.65457 0.0
H1334 H 0.14867 0.90169 0.58073 0.0
H1335 H 0.11612 0.86339 0.51007 0.0
C1336 C 0.11099 0.87906 0.44532 0.0
C1337 C 0.11395 0.8934 0.42217 0.0
C1338 C 0.14649 0.89039 0.5969 0.0
C1339 C 0.12965 0.88411 0.5162 0.0
C1340 C 0.15301 0.88616 0.64709 0.0
C1341 C 0.15031 0.87159 0.66878 0.0
C1342 C 0.13717 0.87998 0.56859 0.0
C1343 C 0.14091 0.86156 0.63932 0.0
C1344 C 0.11885 0.87435 0.49212 0.0
C1345 C 0.12537 0.9025 0.44572 0.0
N1346 N 0.13466 0.86596 0.59079 0.0
N1347 N 0.13271 0.89777 0.4919 0.0
H1348 H 0.41628 0.86046 0.96245 0.0
H1349 H 0.36909 0.8677 0.68421 0.0
H1350 H 0.37971 0.89247 0.93645 0.0
H1351 H 0.38309 0.82353 0.74428 0.0
H1352 H 0.38043 0.87941 0.76551 0.0
H1353 H 0.41042 0.84883 0.8724 0.0
C1354 C 0.40705 0.865 0.93782 0.0
C1355 C 0.39835 0.8773 0.95684 0.0
C1356 C 0.38119 0.86718 0.76038 0.0
C1357 C 0.39205 0.86455 0.85438 0.0
C1358 C 0.3748 0.86048 0.71397 0.0
C1359 C 0.37487 0.84459 0.7082 0.0
C1360 C 0.38782 0.85794 0.80093 0.0
C1361 C 0.38261 0.83582 0.74769 0.0
C1362 C 0.40377 0.85842 0.88674 0.0
C1363 C 0.38656 0.88287 0.92357 0.0
N1364 N 0.38867 0.84262 0.79301 0.0
N1365 N 0.38383 0.87651 0.87375 0.0
H1366 H 0.39907 0.11572 0.90284 0.0
H1367 H 0.33591 0.12037 0.13536 0.0
H1368 H 0.35675 0.09072 0.89618 0.0
H1369 H 0.37443 0.15091 0.12713 0.0
H1370 H 0.3425 0.11058 0.04443 0.0
H1371 H 0.3892 0.13043 0.98013 0.0
C1372 C 0.38759 0.11351 0.91712 0.0
C1373 C 0.37879 0.10184 0.89379 0.0
C1374 C 0.34944 0.11951 0.06228 0.0
C1375 C 0.36753 0.11842 0.98262 0.0
C1376 C 0.34575 0.12503 0.11434 0.0
C1377 C 0.35475 0.13634 0.13898 0.0
C1378 C 0.36232 0.12523 0.03495 0.0
C1379 C 0.36726 0.14209 0.10973 0.0
C1380 C 0.38197 0.12189 0.96129 0.0
C1381 C 0.36396 0.09953 0.91338 0.0
N1382 N 0.37076 0.13637 0.05938 0.0
N1383 N 0.35887 0.10759 0.95737 0.0
H1384 H 0.88553 0.87474 0.51688 0.0
H1385 H 0.8208 0.89074 0.74098 0.0
H1386 H 0.85422 0.91249 0.50527 0.0
H1387 H 0.85117 0.85212 0.74419 0.0
H1388 H 0.83401 0.90024 0.65884 0.0
H1389 H 0.87375 0.86723 0.60341 0.0
C1390 C 0.87611 0.88142 0.53247 0.0
C1391 C 0.87081 0.89423 0.50386 0.0
C1392 C 0.83783 0.88975 0.67785 0.0
C1393 C 0.85731 0.88576 0.60324 0.0
C1394 C 0.83037 0.88439 0.72485 0.0
C1395 C 0.83484 0.87056 0.74895 0.0
C1396 C 0.84982 0.88122 0.65525 0.0
C1397 C 0.84727 0.86276 0.72651 0.0
C1398 C 0.86941 0.87716 0.58203 0.0
C1399 C 0.85861 0.90249 0.52603 0.0
N1400 N 0.85426 0.86815 0.68074 0.0
N1401 N 0.85224 0.89811 0.57456 0.0
H1402 H 0.83565 0.10197 0.24588 0.0
H1403 H 0.89824 0.12155 0.47433 0.0
H1404 H 0.8597 0.14487 0.25338 0.0
H1405 H 0.86767 0.08309 0.48539 0.0
H1406 H 0.88549 0.12948 0.38958 0.0
H1407 H 0.84902 0.09371 0.32909 0.0
C1408 C 0.84384 0.10959 0.26476 0.0
C1409 C 0.84653 0.12415 0.243 0.0
C1410 C 0.88153 0.11934 0.41069 0.0
C1411 C 0.86174 0.11484 0.33807 0.0
C1412 C 0.88878 0.11484 0.45908 0.0
C1413 C 0.884 0.10165 0.4868 0.0
C1414 C 0.8695 0.11053 0.38975 0.0
C1415 C 0.8717 0.09335 0.4653 0.0
C1416 C 0.85139 0.10491 0.31239 0.0
C1417 C 0.85724 0.13358 0.26904 0.0
N1418 N 0.86491 0.09789 0.41781 0.0
N1419 N 0.86444 0.12877 0.31534 0.0
H1420 H 0.60822 0.15578 0.26999 0.0
H1421 H 0.61937 0.09015 0.05394 0.0
H1422 H 0.63316 0.11463 0.3068 0.0
H1423 H 0.57796 0.11658 0.05416 0.0
H1424 H 0.62627 0.10134 0.14243 0.0
H1425 H 0.59775 0.14338 0.18762 0.0
C1426 C 0.61129 0.14408 0.26125 0.0
C1427 C 0.62171 0.13627 0.29476 0.0
C1428 C 0.61565 0.10465 0.12317 0.0
C1429 C 0.61011 0.12229 0.20077 0.0
C1430 C 0.61178 0.0984 0.07248 0.0
C1431 C 0.59809 0.10249 0.04686 0.0
C1432 C 0.6059 0.11527 0.14789 0.0
C1433 C 0.58861 0.11314 0.07283 0.0
C1434 C 0.60534 0.13706 0.21436 0.0
C1435 C 0.62527 0.12112 0.28182 0.0
N1436 N 0.59276 0.1193 0.12197 0.0
N1437 N 0.61968 0.11471 0.23527 0.0
H1438 H 0.62325 0.86825 0.61214 0.0
H1439 H 0.57537 0.86504 0.89085 0.0
H1440 H 0.60126 0.82698 0.66801 0.0
H1441 H 0.6146 0.89381 0.86447 0.0
H1442 H 0.57883 0.85439 0.79797 0.0
H1443 H 0.61312 0.88158 0.69227 0.0
C1444 C 0.61601 0.86206 0.64056 0.0
C1445 C 0.61339 0.84639 0.63424 0.0
C1446 C 0.58656 0.86312 0.81264 0.0
C1447 C 0.60186 0.86157 0.72568 0.0
C1448 C 0.58464 0.86914 0.8654 0.0
C1449 C 0.59485 0.88014 0.88532 0.0
C1450 C 0.59853 0.86844 0.77957 0.0
C1451 C 0.60662 0.88517 0.85089 0.0
C1452 C 0.61031 0.86967 0.68636 0.0
C1453 C 0.60376 0.83901 0.67195 0.0
N1454 N 0.60813 0.8793 0.79958 0.0
N1455 N 0.59848 0.84663 0.71671 0.0
H1456 H 0.63173 0.57744 0.06257 0.0
H1457 H 0.63847 0.6432 0.83587 0.0
H1458 H 0.60469 0.61848 0.06238 0.0
H1459 H 0.66055 0.59948 0.82083 0.0
H1460 H 0.62839 0.63545 0.92503 0.0
H1461 H 0.6453 0.58679 0.98121 0.0
C1462 C 0.62883 0.58852 0.04596 0.0
C1463 C 0.61696 0.59714 0.06869 0.0
C1464 C 0.63544 0.62754 0.90231 0.0
C1465 C 0.63226 0.60778 0.97574 0.0
C1466 C 0.64116 0.63194 0.85131 0.0
C1467 C 0.65028 0.62192 0.82085 0.0
C1468 C 0.63887 0.61301 0.92309 0.0
C1469 C 0.65347 0.6075 0.84291 0.0
C1470 C 0.63649 0.5938 -0.00065 0.0
C1471 C 0.61366 0.61141 0.04569 0.0
N1472 N 0.64774 0.60345 0.89282 0.0
N1473 N 0.6212 0.61623 0.00017 0.0
H1474 H 0.64759 0.38671 0.20158 0.0
H1475 H 0.58887 0.36844 0.95994 0.0
H1476 H 0.62281 0.34433 0.18872 0.0
H1477 H 0.61992 0.40662 0.95608 0.0
H1478 H 0.60136 0.35925 0.04336 0.0
H1479 H 0.63715 0.39454 0.11253 0.0
C1480 C 0.63988 0.3791 0.18017 0.0
C1481 C 0.63603 0.36486 0.20247 0.0
C1482 C 0.60556 0.36955 0.02397 0.0
C1483 C 0.62418 0.37366 0.1007 0.0
C1484 C 0.59847 0.37477 0.97627 0.0
C1485 C 0.6033 0.38837 0.95146 0.0
C1486 C 0.61746 0.37808 0.04725 0.0
C1487 C 0.61581 0.3961 0.97409 0.0
C1488 C 0.63403 0.38351 0.1292 0.0
C1489 C 0.62606 0.35541 0.17295 0.0
N1490 N 0.62236 0.39093 0.02121 0.0
N1491 N 0.62046 0.35999 0.12358 0.0
H1492 H 0.86565 0.3864 0.5211 0.0
H1493 H 0.87455 0.32715 0.27709 0.0
H1494 H 0.90863 0.36384 0.49335 0.0
H1495 H 0.84652 0.36745 0.2676 0.0
H1496 H 0.88503 0.33648 0.36492 0.0
H1497 H 0.85562 0.37461 0.43786 0.0
C1498 C 0.87291 0.37881 0.49796 0.0
C1499 C 0.88805 0.37625 0.51371 0.0
C1500 C 0.87663 0.34323 0.34319 0.0
C1501 C 0.87662 0.36277 0.41853 0.0
C1502 C 0.87069 0.33797 0.29329 0.0
C1503 C 0.85968 0.34656 0.2652 0.0
C1504 C 0.87121 0.35695 0.36525 0.0
C1505 C 0.85503 0.36049 0.28778 0.0
C1506 C 0.86721 0.37217 0.45026 0.0
C1507 C 0.89692 0.36621 0.4822 0.0
N1508 N 0.8607 0.36517 0.3368 0.0
N1509 N 0.89108 0.35984 0.43571 0.0
H1510 H 0.86223 0.61682 0.78623 0.0
H1511 H 0.91192 0.61727 0.51365 0.0
H1512 H 0.88386 0.65831 0.73052 0.0
H1513 H 0.87115 0.59031 0.53395 0.0
H1514 H 0.90632 0.63018 0.60129 0.0
H1515 H 0.87098 0.60404 0.70308 0.0
C1516 C 0.86903 0.6232 0.75693 0.0
C1517 C 0.87213 0.63872 0.76481 0.0
C1518 C 0.89864 0.62146 0.58618 0.0
C1519 C 0.88213 0.62413 0.6698 0.0
C1520 C 0.90178 0.61413 0.53644 0.0
C1521 C 0.89194 0.60277 0.5167 0.0
C1522 C 0.8858 0.61705 0.61659 0.0
C1523 C 0.87898 0.59907 0.54756 0.0
C1524 C 0.87392 0.61591 0.70939 0.0
C1525 C 0.88111 0.64636 0.72566 0.0
N1526 N 0.87636 0.6061 0.59631 0.0
N1527 N 0.88576 0.63898 0.67939 0.0
H1528 H 0.34428 0.33581 0.1422 0.0
H1529 H 0.33852 0.40666 0.938 0.0
H1530 H 0.31489 0.37429 0.17229 0.0
H1531 H 0.36717 0.36743 0.91212 0.0
H1532 H 0.32661 0.39355 0.01618 0.0
H1533 H 0.35005 0.34595 0.05141 0.0
C1534 C 0.33903 0.34643 0.12964 0.0
C1535 C 0.32926 0.35435 0.16506 0.0
C1536 C 0.33533 0.38773 -0.00723 0.0
C1537 C 0.33583 0.36607 0.06085 0.0
C1538 C 0.34205 0.39516 0.948 0.0
C1539 C 0.35401 0.38818 0.91934 0.0
C1540 C 0.34064 0.37328 0.00856 0.0
C1541 C 0.35815 0.3733 0.93379 0.0
C1542 C 0.34227 0.35218 0.07758 0.0
C1543 C 0.3226 0.36792 0.1463 0.0
N1544 N 0.35161 0.36642 0.97781 0.0
N1545 N 0.32614 0.37346 0.09553 0.0
H1546 H 0.38146 0.62047 0.02954 0.0
H1547 H 0.32039 0.6015 0.79558 0.0
H1548 H 0.35097 0.5819 0.03764 0.0
H1549 H 0.34567 0.64367 0.80394 0.0
H1550 H 0.33198 0.59361 0.88285 0.0
H1551 H 0.36844 0.62911 0.94644 0.0
C1552 C 0.3719 0.61392 0.01413 0.0
C1553 C 0.36734 0.60041 0.0402 0.0
C1554 C 0.33496 0.60459 0.86553 0.0
C1555 C 0.35254 0.61008 0.94479 0.0
C1556 C 0.32844 0.60904 0.81561 0.0
C1557 C 0.33209 0.62325 0.79266 0.0
C1558 C 0.34524 0.6144 0.89224 0.0
C1559 C 0.34253 0.63263 0.82031 0.0
C1560 C 0.3645 0.61882 0.96662 0.0
C1561 C 0.35487 0.59237 0.01867 0.0
N1562 N 0.34875 0.62803 0.86865 0.0
N1563 N 0.34798 0.59725 0.97179 0.0
H1564 H 0.10017 0.67095 0.73282 0.0
H1565 H 0.1144 0.602 0.53861 0.0
H1566 H 0.11677 0.6278 0.79391 0.0
H1567 H 0.0729 0.62756 0.5161 0.0
H1568 H 0.11838 0.61483 0.62652 0.0
H1569 H 0.09168 0.65807 0.64819 0.0
C1570 C 0.10176 0.65876 0.72893 0.0
C1571 C 0.1094 0.65046 0.76996 0.0
C1572 C 0.10841 0.61762 0.60224 0.0
C1573 C 0.10014 0.63597 0.67371 0.0
C1574 C 0.10621 0.61045 0.55191 0.0
C1575 C 0.09329 0.61375 0.52029 0.0
C1576 C 0.0978 0.6284 0.62048 0.0
C1577 C 0.08297 0.62471 0.53963 0.0
C1578 C 0.09695 0.65148 0.68079 0.0
C1579 C 0.11112 0.63469 0.76305 0.0
N1580 N 0.08551 0.6318 0.58862 0.0
N1581 N 0.10682 0.62801 0.71527 0.0
H1582 H 0.10717 0.33363 0.29089 0.0
H1583 H 0.13271 0.39503 0.51605 0.0
H1584 H 0.14791 0.36096 0.27672 0.0
H1585 H 0.08796 0.37468 0.51003 0.0
H1586 H 0.13988 0.38024 0.43466 0.0
H1587 H 0.10106 0.34669 0.37682 0.0
C1588 C 0.11479 0.34243 0.30576 0.0
C1589 C 0.12804 0.34626 0.27667 0.0
C1590 C 0.12852 0.37897 0.4514 0.0
C1591 C 0.12122 0.36112 0.37505 0.0
C1592 C 0.12447 0.38732 0.49799 0.0
C1593 C 0.10969 0.38614 0.51938 0.0
C1594 C 0.11774 0.36935 0.42649 0.0
C1595 C 0.09944 0.376 0.49449 0.0
C1596 C 0.11133 0.34985 0.35482 0.0
C1597 C 0.13754 0.35771 0.29781 0.0
N1598 N 0.10364 0.36804 0.44918 0.0
N1599 N 0.13396 0.36473 0.34589 0.0
loop_
_geom_bond_atom_site_label_1
_geom_bond_atom_site_label_2
_geom_bond_distance
_geom_bond_site_symmetry_2
_ccdc_geom_bond_type
C0 O1 1.306 . S
C0 O3 1.160 . S
O1 C0 1.306 . S
O1 Cd2 2.228 . S
Cd2 O1 2.228 . S
Cd2 O6 2.273 . S
Cd2 O10 2.277 . S
O3 C0 1.160 . S
O3 Cd4 2.203 . S
Cd4 O3 2.203 . S
Cd4 O6 2.411 . S
Cd4 O7 2.333 . S
Cd4 O8 2.352 . S
Cd4 O12 2.277 . S
Cd4 O13 2.356 . S
C5 O10 1.209 . S
C5 O12 1.226 . S
O6 Cd2 2.273 . S
O6 Cd4 2.411 . S
O6 C9 1.320 . S
O7 Cd4 2.333 . S
O7 C9 1.214 . S
O8 Cd4 2.352 . S
O8 C11 1.258 . S
C9 O6 1.320 . S
C9 O7 1.214 . S
O10 Cd2 2.277 . S
O10 C5 1.209 . S
C11 O8 1.258 . S
C11 O13 1.282 . S
O12 Cd4 2.277 . S
O12 C5 1.226 . S
O13 Cd4 2.356 . S
O13 C11 1.282 . S
C14 O15 1.306 . S
C14 O17 1.160 . S
O15 C14 1.306 . S
O15 Cd16 2.228 . S
Cd16 O15 2.228 . S
Cd16 O20 2.273 . S
Cd16 O24 2.277 . S
O17 C14 1.160 . S
O17 Cd18 2.203 . S
Cd18 O17 2.203 . S
Cd18 O20 2.411 . S
Cd18 O21 2.333 . S
Cd18 O22 2.352 . S
Cd18 O26 2.277 . S
Cd18 O27 2.356 . S
C19 O24 1.209 . S
C19 O26 1.226 . S
O20 Cd16 2.273 . S
O20 Cd18 2.411 . S
O20 C23 1.320 . S
O21 Cd18 2.333 . S
O21 C23 1.214 . S
O22 Cd18 2.352 . S
O22 C25 1.258 . S
C23 O20 1.320 . S
C23 O21 1.214 . S
O24 Cd16 2.277 . S
O24 C19 1.209 . S
C25 O22 1.258 . S
C25 O27 1.282 . S
O26 Cd18 2.277 . S
O26 C19 1.226 . S
O27 Cd18 2.356 . S
O27 C25 1.282 . S
C28 O29 1.306 . S
C28 O31 1.160 . S
O29 C28 1.306 . S
O29 Cd30 2.228 . S
Cd30 O29 2.228 . S
Cd30 O34 2.273 . S
Cd30 O38 2.277 . S
O31 C28 1.160 . S
O31 Cd32 2.203 . S
Cd32 O31 2.203 . S
Cd32 O34 2.411 . S
Cd32 O35 2.333 . S
Cd32 O36 2.352 . S
Cd32 O40 2.277 . S
Cd32 O41 2.356 . S
C33 O38 1.209 . S
C33 O40 1.226 . S
O34 Cd30 2.273 . S
O34 Cd32 2.411 . S
O34 C37 1.320 . S
O35 Cd32 2.333 . S
O35 C37 1.214 . S
O36 Cd32 2.352 . S
O36 C39 1.258 . S
C37 O34 1.320 . S
C37 O35 1.214 . S
O38 Cd30 2.277 . S
O38 C33 1.209 . S
C39 O36 1.258 . S
C39 O41 1.282 . S
O40 Cd32 2.277 . S
O40 C33 1.226 . S
O41 Cd32 2.356 . S
O41 C39 1.282 . S
C42 O43 1.306 . S
C42 O45 1.160 . S
O43 C42 1.306 . S
O43 Cd44 2.228 1_556 S
Cd44 O43 2.228 1_554 S
Cd44 O48 2.273 1_554 S
Cd44 O52 2.277 1_554 S
O45 C42 1.160 . S
O45 Cd46 2.203 . S
Cd46 O45 2.203 . S
Cd46 O48 2.411 . S
Cd46 O49 2.333 . S
Cd46 O50 2.352 . S
Cd46 O54 2.277 . S
Cd46 O55 2.356 . S
C47 O52 1.209 . S
C47 O54 1.226 . S
O48 Cd44 2.273 1_556 S
O48 Cd46 2.411 . S
O48 C51 1.320 . S
O49 Cd46 2.333 . S
O49 C51 1.214 . S
O50 Cd46 2.352 . S
O50 C53 1.258 . S
C51 O48 1.320 . S
C51 O49 1.214 . S
O52 Cd44 2.277 1_556 S
O52 C47 1.209 . S
C53 O50 1.258 . S
C53 O55 1.282 . S
O54 Cd46 2.277 . S
O54 C47 1.226 . S
O55 Cd46 2.356 . S
O55 C53 1.282 . S
C56 O57 1.306 . S
C56 O59 1.160 . S
O57 C56 1.306 . S
O57 Cd58 2.228 . S
Cd58 O57 2.228 . S
Cd58 O62 2.273 . S
Cd58 O66 2.277 . S
O59 C56 1.160 . S
O59 Cd60 2.203 . S
Cd60 O59 2.203 . S
Cd60 O62 2.411 . S
Cd60 O63 2.333 . S
Cd60 O64 2.352 . S
Cd60 O68 2.277 . S
Cd60 O69 2.356 . S
C61 O66 1.209 . S
C61 O68 1.226 . S
O62 Cd58 2.273 . S
O62 Cd60 2.411 . S
O62 C65 1.320 . S
O63 Cd60 2.333 . S
O63 C65 1.214 . S
O64 Cd60 2.352 . S
O64 C67 1.258 . S
C65 O62 1.320 . S
C65 O63 1.214 . S
O66 Cd58 2.277 . S
O66 C61 1.209 . S
C67 O64 1.258 . S
C67 O69 1.282 . S
O68 Cd60 2.277 . S
O68 C61 1.226 . S
O69 Cd60 2.356 . S
O69 C67 1.282 . S
C70 O71 1.306 . S
C70 O73 1.160 . S
O71 C70 1.306 . S
O71 Cd72 2.228 1_554 S
Cd72 O71 2.228 1_556 S
Cd72 O76 2.273 1_556 S
Cd72 O80 2.277 1_556 S
O73 C70 1.160 . S
O73 Cd74 2.203 . S
Cd74 O73 2.203 . S
Cd74 O76 2.411 . S
Cd74 O77 2.333 . S
Cd74 O78 2.352 . S
Cd74 O82 2.277 . S
Cd74 O83 2.356 . S
C75 O80 1.209 . S
C75 O82 1.226 . S
O76 Cd72 2.273 1_554 S
O76 Cd74 2.411 . S
O76 C79 1.320 . S
O77 Cd74 2.333 . S
O77 C79 1.214 . S
O78 Cd74 2.352 . S
O78 C81 1.258 . S
C79 O76 1.320 . S
C79 O77 1.214 . S
O80 Cd72 2.277 1_554 S
O80 C75 1.209 . S
C81 O78 1.258 . S
C81 O83 1.282 . S
O82 Cd74 2.277 . S
O82 C75 1.226 . S
O83 Cd74 2.356 . S
O83 C81 1.282 . S
C84 O85 1.306 . S
C84 O87 1.160 . S
O85 C84 1.306 . S
O85 Cd86 2.228 . S
Cd86 O85 2.228 . S
Cd86 O90 2.273 . S
Cd86 O94 2.277 . S
O87 C84 1.160 . S
O87 Cd88 2.203 . S
Cd88 O87 2.203 . S
Cd88 O90 2.411 . S
Cd88 O91 2.333 . S
Cd88 O92 2.352 . S
Cd88 O96 2.277 . S
Cd88 O97 2.356 . S
C89 O94 1.209 . S
C89 O96 1.226 . S
O90 Cd86 2.273 . S
O90 Cd88 2.411 . S
O90 C93 1.320 . S
O91 Cd88 2.333 . S
O91 C93 1.214 . S
O92 Cd88 2.352 . S
O92 C95 1.258 . S
C93 O90 1.320 . S
C93 O91 1.214 . S
O94 Cd86 2.277 . S
O94 C89 1.209 . S
C95 O92 1.258 . S
C95 O97 1.282 . S
O96 Cd88 2.277 . S
O96 C89 1.226 . S
O97 Cd88 2.356 . S
O97 C95 1.282 . S
C98 O99 1.306 . S
C98 O101 1.160 . S
O99 C98 1.306 . S
O99 Cd100 2.228 . S
Cd100 O99 2.228 . S
Cd100 O104 2.273 . S
Cd100 O108 2.277 . S
O101 C98 1.160 . S
O101 Cd102 2.203 . S
Cd102 O101 2.203 . S
Cd102 O104 2.411 . S
Cd102 O105 2.333 . S
Cd102 O106 2.352 . S
Cd102 O110 2.277 . S
Cd102 O111 2.356 . S
C103 O108 1.209 . S
C103 O110 1.226 . S
O104 Cd100 2.273 . S
O104 Cd102 2.411 . S
O104 C107 1.320 . S
O105 Cd102 2.333 . S
O105 C107 1.214 . S
O106 Cd102 2.352 . S
O106 C109 1.258 . S
C107 O104 1.320 . S
C107 O105 1.214 . S
O108 Cd100 2.277 . S
O108 C103 1.209 . S
C109 O106 1.258 . S
C109 O111 1.282 . S
O110 Cd102 2.277 . S
O110 C103 1.226 . S
O111 Cd102 2.356 . S
O111 C109 1.282 . S
C112 O113 1.306 . S
C112 O115 1.160 . S
O113 C112 1.306 . S
O113 Cd114 2.228 . S
Cd114 O113 2.228 . S
Cd114 O118 2.273 . S
Cd114 O122 2.277 . S
O115 C112 1.160 . S
O115 Cd116 2.203 . S
Cd116 O115 2.203 . S
Cd116 O118 2.411 . S
Cd116 O119 2.333 . S
Cd116 O120 2.352 . S
Cd116 O124 2.277 . S
Cd116 O125 2.356 . S
C117 O122 1.209 . S
C117 O124 1.226 . S
O118 Cd114 2.273 . S
O118 Cd116 2.411 . S
O118 C121 1.320 . S
O119 Cd116 2.333 . S
O119 C121 1.214 . S
O120 Cd116 2.352 . S
O120 C123 1.258 . S
C121 O118 1.320 . S
C121 O119 1.214 . S
O122 Cd114 2.277 . S
O122 C117 1.209 . S
C123 O120 1.258 . S
C123 O125 1.282 . S
O124 Cd116 2.277 . S
O124 C117 1.226 . S
O125 Cd116 2.356 . S
O125 C123 1.282 . S
C126 O127 1.306 . S
C126 O129 1.160 . S
O127 C126 1.306 . S
O127 Cd128 2.228 . S
Cd128 O127 2.228 . S
Cd128 O132 2.273 . S
Cd128 O136 2.277 . S
O129 C126 1.160 . S
O129 Cd130 2.203 . S
Cd130 O129 2.203 . S
Cd130 O132 2.411 . S
Cd130 O133 2.333 . S
Cd130 O134 2.352 . S
Cd130 O138 2.277 . S
Cd130 O139 2.356 . S
C131 O136 1.209 . S
C131 O138 1.226 . S
O132 Cd128 2.273 . S
O132 Cd130 2.411 . S
O132 C135 1.320 . S
O133 Cd130 2.333 . S
O133 C135 1.214 . S
O134 Cd130 2.352 . S
O134 C137 1.258 . S
C135 O132 1.320 . S
C135 O133 1.214 . S
O136 Cd128 2.277 . S
O136 C131 1.209 . S
C137 O134 1.258 . S
C137 O139 1.282 . S
O138 Cd130 2.277 . S
O138 C131 1.226 . S
O139 Cd130 2.356 . S
O139 C137 1.282 . S
C140 O141 1.306 . S
C140 O143 1.160 . S
O141 C140 1.306 . S
O141 Cd142 2.228 . S
Cd142 O141 2.228 . S
Cd142 O146 2.273 . S
Cd142 O150 2.277 . S
O143 C140 1.160 . S
O143 Cd144 2.203 . S
Cd144 O143 2.203 . S
Cd144 O146 2.411 . S
Cd144 O147 2.333 . S
Cd144 O148 2.352 . S
Cd144 O152 2.277 . S
Cd144 O153 2.356 . S
C145 O150 1.209 . S
C145 O152 1.226 . S
O146 Cd142 2.273 . S
O146 Cd144 2.411 . S
O146 C149 1.320 . S
O147 Cd144 2.333 . S
O147 C149 1.214 . S
O148 Cd144 2.352 . S
O148 C151 1.258 . S
C149 O146 1.320 . S
C149 O147 1.214 . S
O150 Cd142 2.277 . S
O150 C145 1.209 . S
C151 O148 1.258 . S
C151 O153 1.282 . S
O152 Cd144 2.277 . S
O152 C145 1.226 . S
O153 Cd144 2.356 . S
O153 C151 1.282 . S
C154 O155 1.306 . S
C154 O157 1.160 . S
O155 C154 1.306 . S
O155 Cd156 2.228 1_554 S
Cd156 O155 2.228 1_556 S
Cd156 O160 2.273 1_556 S
Cd156 O164 2.277 1_556 S
O157 C154 1.160 . S
O157 Cd158 2.203 . S
Cd158 O157 2.203 . S
Cd158 O160 2.411 . S
Cd158 O161 2.333 . S
Cd158 O162 2.352 . S
Cd158 O166 2.277 . S
Cd158 O167 2.356 . S
C159 O164 1.209 . S
C159 O166 1.226 . S
O160 Cd156 2.273 1_554 S
O160 Cd158 2.411 . S
O160 C163 1.320 . S
O161 Cd158 2.333 . S
O161 C163 1.214 . S
O162 Cd158 2.352 . S
O162 C165 1.258 . S
C163 O160 1.320 . S
C163 O161 1.214 . S
O164 Cd156 2.277 1_554 S
O164 C159 1.209 . S
C165 O162 1.258 . S
C165 O167 1.282 . S
O166 Cd158 2.277 . S
O166 C159 1.226 . S
O167 Cd158 2.356 . S
O167 C165 1.282 . S
C168 O169 1.306 . S
C168 O171 1.160 . S
O169 C168 1.306 . S
O169 Cd170 2.228 . S
Cd170 O169 2.228 . S
Cd170 O174 2.273 . S
Cd170 O178 2.277 . S
O171 C168 1.160 . S
O171 Cd172 2.203 . S
Cd172 O171 2.203 . S
Cd172 O174 2.411 . S
Cd172 O175 2.333 . S
Cd172 O176 2.352 . S
Cd172 O180 2.277 . S
Cd172 O181 2.356 . S
C173 O178 1.209 . S
C173 O180 1.226 . S
O174 Cd170 2.273 . S
O174 Cd172 2.411 . S
O174 C177 1.320 . S
O175 Cd172 2.333 . S
O175 C177 1.214 . S
O176 Cd172 2.352 . S
O176 C179 1.258 . S
C177 O174 1.320 . S
C177 O175 1.214 . S
O178 Cd170 2.277 . S
O178 C173 1.209 . S
C179 O176 1.258 . S
C179 O181 1.282 . S
O180 Cd172 2.277 . S
O180 C173 1.226 . S
O181 Cd172 2.356 . S
O181 C179 1.282 . S
C182 O183 1.306 . S
C182 O185 1.160 . S
O183 C182 1.306 . S
O183 Cd184 2.228 1_556 S
Cd184 O183 2.228 1_554 S
Cd184 O188 2.273 1_554 S
Cd184 O192 2.277 1_554 S
O185 C182 1.160 . S
O185 Cd186 2.203 . S
Cd186 O185 2.203 . S
Cd186 O188 2.411 . S
Cd186 O189 2.333 . S
Cd186 O190 2.352 . S
Cd186 O194 2.277 . S
Cd186 O195 2.356 . S
C187 O192 1.209 . S
C187 O194 1.226 . S
O188 Cd184 2.273 1_556 S
O188 Cd186 2.411 . S
O188 C191 1.320 . S
O189 Cd186 2.333 . S
O189 C191 1.214 . S
O190 Cd186 2.352 . S
O190 C193 1.258 . S
C191 O188 1.320 . S
C191 O189 1.214 . S
O192 Cd184 2.277 1_556 S
O192 C187 1.209 . S
C193 O190 1.258 . S
C193 O195 1.282 . S
O194 Cd186 2.277 . S
O194 C187 1.226 . S
O195 Cd186 2.356 . S
O195 C193 1.282 . S
C196 O197 1.306 . S
C196 O199 1.160 . S
O197 C196 1.306 . S
O197 Cd198 2.228 . S
Cd198 O197 2.228 . S
Cd198 O202 2.273 . S
Cd198 O206 2.277 . S
O199 C196 1.160 . S
O199 Cd200 2.203 . S
Cd200 O199 2.203 . S
Cd200 O202 2.411 . S
Cd200 O203 2.333 . S
Cd200 O204 2.352 . S
Cd200 O208 2.277 . S
Cd200 O209 2.356 . S
C201 O206 1.209 . S
C201 O208 1.226 . S
O202 Cd198 2.273 . S
O202 Cd200 2.411 . S
O202 C205 1.320 . S
O203 Cd200 2.333 . S
O203 C205 1.214 . S
O204 Cd200 2.352 . S
O204 C207 1.258 . S
C205 O202 1.320 . S
C205 O203 1.214 . S
O206 Cd198 2.277 . S
O206 C201 1.209 . S
C207 O204 1.258 . S
C207 O209 1.282 . S
O208 Cd200 2.277 . S
O208 C201 1.226 . S
O209 Cd200 2.356 . S
O209 C207 1.282 . S
C210 O211 1.306 . S
C210 O213 1.160 . S
O211 C210 1.306 . S
O211 Cd212 2.228 . S
Cd212 O211 2.228 . S
Cd212 O216 2.273 . S
Cd212 O220 2.277 . S
O213 C210 1.160 . S
O213 Cd214 2.203 . S
Cd214 O213 2.203 . S
Cd214 O216 2.411 . S
Cd214 O217 2.333 . S
Cd214 O218 2.352 . S
Cd214 O222 2.277 . S
Cd214 O223 2.356 . S
C215 O220 1.209 . S
C215 O222 1.226 . S
O216 Cd212 2.273 . S
O216 Cd214 2.411 . S
O216 C219 1.320 . S
O217 Cd214 2.333 . S
O217 C219 1.214 . S
O218 Cd214 2.352 . S
O218 C221 1.258 . S
C219 O216 1.320 . S
C219 O217 1.214 . S
O220 Cd212 2.277 . S
O220 C215 1.209 . S
C221 O218 1.258 . S
C221 O223 1.282 . S
O222 Cd214 2.277 . S
O222 C215 1.226 . S
O223 Cd214 2.356 . S
O223 C221 1.282 . S
C224 O225 1.306 . S
C224 O227 1.160 . S
O225 C224 1.306 . S
O225 Cd226 2.228 . S
Cd226 O225 2.228 . S
Cd226 O230 2.273 . S
Cd226 O234 2.277 . S
O227 C224 1.160 . S
O227 Cd228 2.203 . S
Cd228 O227 2.203 . S
Cd228 O230 2.411 . S
Cd228 O231 2.333 . S
Cd228 O232 2.352 . S
Cd228 O236 2.277 . S
Cd228 O237 2.356 . S
C229 O234 1.209 . S
C229 O236 1.226 . S
O230 Cd226 2.273 . S
O230 Cd228 2.411 . S
O230 C233 1.320 . S
O231 Cd228 2.333 . S
O231 C233 1.214 . S
O232 Cd228 2.352 . S
O232 C235 1.258 . S
C233 O230 1.320 . S
C233 O231 1.214 . S
O234 Cd226 2.277 . S
O234 C229 1.209 . S
C235 O232 1.258 . S
C235 O237 1.282 . S
O236 Cd228 2.277 . S
O236 C229 1.226 . S
O237 Cd228 2.356 . S
O237 C235 1.282 . S
C238 O239 1.306 . S
C238 O241 1.160 . S
O239 C238 1.306 . S
O239 Cd240 2.228 1_556 S
Cd240 O239 2.228 1_554 S
Cd240 O244 2.273 1_554 S
Cd240 O248 2.277 1_554 S
O241 C238 1.160 . S
O241 Cd242 2.203 . S
Cd242 O241 2.203 . S
Cd242 O244 2.411 . S
Cd242 O245 2.333 . S
Cd242 O246 2.352 . S
Cd242 O250 2.277 . S
Cd242 O251 2.356 . S
C243 O248 1.209 . S
C243 O250 1.226 . S
O244 Cd240 2.273 1_556 S
O244 Cd242 2.411 . S
O244 C247 1.320 . S
O245 Cd242 2.333 . S
O245 C247 1.214 . S
O246 Cd242 2.352 . S
O246 C249 1.258 . S
C247 O244 1.320 . S
C247 O245 1.214 . S
O248 Cd240 2.277 1_556 S
O248 C243 1.209 . S
C249 O246 1.258 . S
C249 O251 1.282 . S
O250 Cd242 2.277 . S
O250 C243 1.226 . S
O251 Cd242 2.356 . S
O251 C249 1.282 . S
C252 O253 1.306 . S
C252 O255 1.160 . S
O253 C252 1.306 . S
O253 Cd254 2.228 . S
Cd254 O253 2.228 . S
Cd254 O258 2.273 . S
Cd254 O262 2.277 . S
O255 C252 1.160 . S
O255 Cd256 2.203 . S
Cd256 O255 2.203 . S
Cd256 O258 2.411 . S
Cd256 O259 2.333 . S
Cd256 O260 2.352 . S
Cd256 O264 2.277 . S
Cd256 O265 2.356 . S
C257 O262 1.209 . S
C257 O264 1.226 . S
O258 Cd254 2.273 . S
O258 Cd256 2.411 . S
O258 C261 1.320 . S
O259 Cd256 2.333 . S
O259 C261 1.214 . S
O260 Cd256 2.352 . S
O260 C263 1.258 . S
C261 O258 1.320 . S
C261 O259 1.214 . S
O262 Cd254 2.277 . S
O262 C257 1.209 . S
C263 O260 1.258 . S
C263 O265 1.282 . S
O264 Cd256 2.277 . S
O264 C257 1.226 . S
O265 Cd256 2.356 . S
O265 C263 1.282 . S
C266 O267 1.306 . S
C266 O269 1.160 . S
O267 C266 1.306 . S
O267 Cd268 2.228 . S
Cd268 O267 2.228 . S
Cd268 O272 2.273 . S
Cd268 O276 2.277 . S
O269 C266 1.160 . S
O269 Cd270 2.203 . S
Cd270 O269 2.203 . S
Cd270 O272 2.411 . S
Cd270 O273 2.333 . S
Cd270 O274 2.352 . S
Cd270 O278 2.277 . S
Cd270 O279 2.356 . S
C271 O276 1.209 . S
C271 O278 1.226 . S
O272 Cd268 2.273 . S
O272 Cd270 2.411 . S
O272 C275 1.320 . S
O273 Cd270 2.333 . S
O273 C275 1.214 . S
O274 Cd270 2.352 . S
O274 C277 1.258 . S
C275 O272 1.320 . S
C275 O273 1.214 . S
O276 Cd268 2.277 . S
O276 C271 1.209 . S
C277 O274 1.258 . S
C277 O279 1.282 . S
O278 Cd270 2.277 . S
O278 C271 1.226 . S
O279 Cd270 2.356 . S
O279 C277 1.282 . S
C280 O281 1.306 . S
C280 O283 1.160 . S
O281 C280 1.306 . S
O281 Cd282 2.228 . S
Cd282 O281 2.228 . S
Cd282 O286 2.273 . S
Cd282 O290 2.277 . S
O283 C280 1.160 . S
O283 Cd284 2.203 . S
Cd284 O283 2.203 . S
Cd284 O286 2.411 . S
Cd284 O287 2.333 . S
Cd284 O288 2.352 . S
Cd284 O292 2.277 . S
Cd284 O293 2.356 . S
C285 O290 1.209 . S
C285 O292 1.226 . S
O286 Cd282 2.273 . S
O286 Cd284 2.411 . S
O286 C289 1.320 . S
O287 Cd284 2.333 . S
O287 C289 1.214 . S
O288 Cd284 2.352 . S
O288 C291 1.258 . S
C289 O286 1.320 . S
C289 O287 1.214 . S
O290 Cd282 2.277 . S
O290 C285 1.209 . S
C291 O288 1.258 . S
C291 O293 1.282 . S
O292 Cd284 2.277 . S
O292 C285 1.226 . S
O293 Cd284 2.356 . S
O293 C291 1.282 . S
C294 O295 1.306 . S
C294 O297 1.160 . S
O295 C294 1.306 . S
O295 Cd296 2.228 . S
Cd296 O295 2.228 . S
Cd296 O300 2.273 . S
Cd296 O304 2.277 . S
O297 C294 1.160 . S
O297 Cd298 2.203 . S
Cd298 O297 2.203 . S
Cd298 O300 2.411 . S
Cd298 O301 2.333 . S
Cd298 O302 2.352 . S
Cd298 O306 2.277 . S
Cd298 O307 2.356 . S
C299 O304 1.209 . S
C299 O306 1.226 . S
O300 Cd296 2.273 . S
O300 Cd298 2.411 . S
O300 C303 1.320 . S
O301 Cd298 2.333 . S
O301 C303 1.214 . S
O302 Cd298 2.352 . S
O302 C305 1.258 . S
C303 O300 1.320 . S
C303 O301 1.214 . S
O304 Cd296 2.277 . S
O304 C299 1.209 . S
C305 O302 1.258 . S
C305 O307 1.282 . S
O306 Cd298 2.277 . S
O306 C299 1.226 . S
O307 Cd298 2.356 . S
O307 C305 1.282 . S
C308 O309 1.306 . S
C308 O311 1.160 . S
O309 C308 1.306 . S
O309 Cd310 2.228 . S
Cd310 O309 2.228 . S
Cd310 O314 2.273 . S
Cd310 O318 2.277 . S
O311 C308 1.160 . S
O311 Cd312 2.203 . S
Cd312 O311 2.203 . S
Cd312 O314 2.411 . S
Cd312 O315 2.333 . S
Cd312 O316 2.352 . S
Cd312 O320 2.277 . S
Cd312 O321 2.356 . S
C313 O318 1.209 . S
C313 O320 1.226 . S
O314 Cd310 2.273 . S
O314 Cd312 2.411 . S
O314 C317 1.320 . S
O315 Cd312 2.333 . S
O315 C317 1.214 . S
O316 Cd312 2.352 . S
O316 C319 1.258 . S
C317 O314 1.320 . S
C317 O315 1.214 . S
O318 Cd310 2.277 . S
O318 C313 1.209 . S
C319 O316 1.258 . S
C319 O321 1.282 . S
O320 Cd312 2.277 . S
O320 C313 1.226 . S
O321 Cd312 2.356 . S
O321 C319 1.282 . S
C322 O323 1.306 . S
C322 O325 1.160 . S
O323 C322 1.306 . S
O323 Cd324 2.228 1_554 S
Cd324 O323 2.228 1_556 S
Cd324 O328 2.273 1_556 S
Cd324 O332 2.277 1_556 S
O325 C322 1.160 . S
O325 Cd326 2.203 . S
Cd326 O325 2.203 . S
Cd326 O328 2.411 . S
Cd326 O329 2.333 . S
Cd326 O330 2.352 . S
Cd326 O334 2.277 . S
Cd326 O335 2.356 . S
C327 O332 1.209 . S
C327 O334 1.226 . S
O328 Cd324 2.273 1_554 S
O328 Cd326 2.411 . S
O328 C331 1.320 . S
O329 Cd326 2.333 . S
O329 C331 1.214 . S
O330 Cd326 2.352 . S
O330 C333 1.258 . S
C331 O328 1.320 . S
C331 O329 1.214 . S
O332 Cd324 2.277 1_554 S
O332 C327 1.209 . S
C333 O330 1.258 . S
C333 O335 1.282 . S
O334 Cd326 2.277 . S
O334 C327 1.226 . S
O335 Cd326 2.356 . S
O335 C333 1.282 . S
C336 O337 1.306 . S
C336 O339 1.160 . S
O337 C336 1.306 . S
O337 Cd338 2.228 . S
Cd338 O337 2.228 . S
Cd338 O342 2.273 . S
Cd338 O346 2.277 . S
O339 C336 1.160 . S
O339 Cd340 2.203 . S
Cd340 O339 2.203 . S
Cd340 O342 2.411 . S
Cd340 O343 2.333 . S
Cd340 O344 2.352 . S
Cd340 O348 2.277 . S
Cd340 O349 2.356 . S
C341 O346 1.209 . S
C341 O348 1.226 . S
O342 Cd338 2.273 . S
O342 Cd340 2.411 . S
O342 C345 1.320 . S
O343 Cd340 2.333 . S
O343 C345 1.214 . S
O344 Cd340 2.352 . S
O344 C347 1.258 . S
C345 O342 1.320 . S
C345 O343 1.214 . S
O346 Cd338 2.277 . S
O346 C341 1.209 . S
C347 O344 1.258 . S
C347 O349 1.282 . S
O348 Cd340 2.277 . S
O348 C341 1.226 . S
O349 Cd340 2.356 . S
O349 C347 1.282 . S
C350 O351 1.306 . S
C350 O353 1.160 . S
O351 C350 1.306 . S
O351 Cd352 2.228 1_554 S
Cd352 O351 2.228 1_556 S
Cd352 O356 2.273 1_556 S
Cd352 O360 2.277 1_556 S
O353 C350 1.160 . S
O353 Cd354 2.203 . S
Cd354 O353 2.203 . S
Cd354 O356 2.411 . S
Cd354 O357 2.333 . S
Cd354 O358 2.352 . S
Cd354 O362 2.277 . S
Cd354 O363 2.356 . S
C355 O360 1.209 . S
C355 O362 1.226 . S
O356 Cd352 2.273 1_554 S
O356 Cd354 2.411 . S
O356 C359 1.320 . S
O357 Cd354 2.333 . S
O357 C359 1.214 . S
O358 Cd354 2.352 . S
O358 C361 1.258 . S
C359 O356 1.320 . S
C359 O357 1.214 . S
O360 Cd352 2.277 1_554 S
O360 C355 1.209 . S
C361 O358 1.258 . S
C361 O363 1.282 . S
O362 Cd354 2.277 . S
O362 C355 1.226 . S
O363 Cd354 2.356 . S
O363 C361 1.282 . S
C364 O365 1.306 . S
C364 O367 1.160 . S
O365 C364 1.306 . S
O365 Cd366 2.228 . S
Cd366 O365 2.228 . S
Cd366 O370 2.273 . S
Cd366 O374 2.277 . S
O367 C364 1.160 . S
O367 Cd368 2.203 . S
Cd368 O367 2.203 . S
Cd368 O370 2.411 . S
Cd368 O371 2.333 . S
Cd368 O372 2.352 . S
Cd368 O376 2.277 . S
Cd368 O377 2.356 . S
C369 O374 1.209 . S
C369 O376 1.226 . S
O370 Cd366 2.273 . S
O370 Cd368 2.411 . S
O370 C373 1.320 . S
O371 Cd368 2.333 . S
O371 C373 1.214 . S
O372 Cd368 2.352 . S
O372 C375 1.258 . S
C373 O370 1.320 . S
C373 O371 1.214 . S
O374 Cd366 2.277 . S
O374 C369 1.209 . S
C375 O372 1.258 . S
C375 O377 1.282 . S
O376 Cd368 2.277 . S
O376 C369 1.226 . S
O377 Cd368 2.356 . S
O377 C375 1.282 . S
C378 O379 1.306 . S
C378 O381 1.160 . S
O379 C378 1.306 . S
O379 Cd380 2.228 . S
Cd380 O379 2.228 . S
Cd380 O384 2.273 . S
Cd380 O388 2.277 . S
O381 C378 1.160 . S
O381 Cd382 2.203 . S
Cd382 O381 2.203 . S
Cd382 O384 2.411 . S
Cd382 O385 2.333 . S
Cd382 O386 2.352 . S
Cd382 O390 2.277 . S
Cd382 O391 2.356 . S
C383 O388 1.209 . S
C383 O390 1.226 . S
O384 Cd380 2.273 . S
O384 Cd382 2.411 . S
O384 C387 1.320 . S
O385 Cd382 2.333 . S
O385 C387 1.214 . S
O386 Cd382 2.352 . S
O386 C389 1.258 . S
C387 O384 1.320 . S
C387 O385 1.214 . S
O388 Cd380 2.277 . S
O388 C383 1.209 . S
C389 O386 1.258 . S
C389 O391 1.282 . S
O390 Cd382 2.277 . S
O390 C383 1.226 . S
O391 Cd382 2.356 . S
O391 C389 1.282 . S
C392 O393 1.306 . S
C392 O395 1.160 . S
O393 C392 1.306 . S
O393 Cd394 2.228 . S
Cd394 O393 2.228 . S
Cd394 O398 2.273 . S
Cd394 O402 2.277 . S
O395 C392 1.160 . S
O395 Cd396 2.203 . S
Cd396 O395 2.203 . S
Cd396 O398 2.411 . S
Cd396 O399 2.333 . S
Cd396 O400 2.352 . S
Cd396 O404 2.277 . S
Cd396 O405 2.356 . S
C397 O402 1.209 . S
C397 O404 1.226 . S
O398 Cd394 2.273 . S
O398 Cd396 2.411 . S
O398 C401 1.320 . S
O399 Cd396 2.333 . S
O399 C401 1.214 . S
O400 Cd396 2.352 . S
O400 C403 1.258 . S
C401 O398 1.320 . S
C401 O399 1.214 . S
O402 Cd394 2.277 . S
O402 C397 1.209 . S
C403 O400 1.258 . S
C403 O405 1.282 . S
O404 Cd396 2.277 . S
O404 C397 1.226 . S
O405 Cd396 2.356 . S
O405 C403 1.282 . S
C406 O407 1.306 . S
C406 O409 1.160 . S
O407 C406 1.306 . S
O407 Cd408 2.228 . S
Cd408 O407 2.228 . S
Cd408 O412 2.273 . S
Cd408 O416 2.277 . S
O409 C406 1.160 . S
O409 Cd410 2.203 . S
Cd410 O409 2.203 . S
Cd410 O412 2.411 . S
Cd410 O413 2.333 . S
Cd410 O414 2.352 . S
Cd410 O418 2.277 . S
Cd410 O419 2.356 . S
C411 O416 1.209 . S
C411 O418 1.226 . S
O412 Cd408 2.273 . S
O412 Cd410 2.411 . S
O412 C415 1.320 . S
O413 Cd410 2.333 . S
O413 C415 1.214 . S
O414 Cd410 2.352 . S
O414 C417 1.258 . S
C415 O412 1.320 . S
C415 O413 1.214 . S
O416 Cd408 2.277 . S
O416 C411 1.209 . S
C417 O414 1.258 . S
C417 O419 1.282 . S
O418 Cd410 2.277 . S
O418 C411 1.226 . S
O419 Cd410 2.356 . S
O419 C417 1.282 . S
C420 O421 1.306 . S
C420 O423 1.160 . S
O421 C420 1.306 . S
O421 Cd422 2.228 . S
Cd422 O421 2.228 . S
Cd422 O426 2.273 . S
Cd422 O430 2.277 . S
O423 C420 1.160 . S
O423 Cd424 2.203 . S
Cd424 O423 2.203 . S
Cd424 O426 2.411 . S
Cd424 O427 2.333 . S
Cd424 O428 2.352 . S
Cd424 O432 2.277 . S
Cd424 O433 2.356 . S
C425 O430 1.209 . S
C425 O432 1.226 . S
O426 Cd422 2.273 . S
O426 Cd424 2.411 . S
O426 C429 1.320 . S
O427 Cd424 2.333 . S
O427 C429 1.214 . S
O428 Cd424 2.352 . S
O428 C431 1.258 . S
C429 O426 1.320 . S
C429 O427 1.214 . S
O430 Cd422 2.277 . S
O430 C425 1.209 . S
C431 O428 1.258 . S
C431 O433 1.282 . S
O432 Cd424 2.277 . S
O432 C425 1.226 . S
O433 Cd424 2.356 . S
O433 C431 1.282 . S
C434 O435 1.306 . S
C434 O437 1.160 . S
O435 C434 1.306 . S
O435 Cd436 2.228 1_556 S
Cd436 O435 2.228 1_554 S
Cd436 O440 2.273 1_554 S
Cd436 O444 2.277 1_554 S
O437 C434 1.160 . S
O437 Cd438 2.203 . S
Cd438 O437 2.203 . S
Cd438 O440 2.411 . S
Cd438 O441 2.333 . S
Cd438 O442 2.352 . S
Cd438 O446 2.277 . S
Cd438 O447 2.356 . S
C439 O444 1.209 . S
C439 O446 1.226 . S
O440 Cd436 2.273 1_556 S
O440 Cd438 2.411 . S
O440 C443 1.320 . S
O441 Cd438 2.333 . S
O441 C443 1.214 . S
O442 Cd438 2.352 . S
O442 C445 1.258 . S
C443 O440 1.320 . S
C443 O441 1.214 . S
O444 Cd436 2.277 1_556 S
O444 C439 1.209 . S
C445 O442 1.258 . S
C445 O447 1.282 . S
O446 Cd438 2.277 . S
O446 C439 1.226 . S
O447 Cd438 2.356 . S
O447 C445 1.282 . S
H448 C454 0.930 . S
H449 C458 0.930 . S
H450 C463 0.929 . S
H451 C461 0.929 . S
H452 C456 0.929 . S
H453 C462 0.929 . S
C454 H448 0.930 . S
C454 C455 1.367 . S
C454 C462 1.378 . S
C455 C454 1.367 . S
C455 C463 1.433 . S
C456 H452 0.929 . S
C456 C458 1.378 . S
C456 C460 1.350 . S
C457 C460 1.463 . S
C457 C462 1.350 . S
C457 N465 1.427 . S
C458 H449 0.930 . S
C458 C456 1.378 . S
C458 C459 1.367 . S
C459 C458 1.367 . S
C459 C461 1.433 . S
C460 C456 1.350 . S
C460 C457 1.463 . S
C460 N464 1.427 . S
C461 H451 0.929 . S
C461 C459 1.433 . S
C461 N464 1.384 . S
C462 H453 0.929 . S
C462 C454 1.378 . S
C462 C457 1.350 . S
C463 H450 0.929 . S
C463 C455 1.433 . S
C463 N465 1.384 . S
N464 C460 1.427 . S
N464 C461 1.384 . S
N465 C457 1.427 . S
N465 C463 1.384 . S
H466 C472 0.930 . S
H467 C476 0.930 . S
H468 C481 0.929 . S
H469 C479 0.929 . S
H470 C474 0.929 . S
H471 C480 0.929 . S
C472 H466 0.930 . S
C472 C473 1.367 . S
C472 C480 1.378 . S
C473 C472 1.367 . S
C473 C481 1.433 . S
C474 H470 0.929 . S
C474 C476 1.378 . S
C474 C478 1.350 . S
C475 C478 1.463 1_565 S
C475 C480 1.350 . S
C475 N483 1.427 . S
C476 H467 0.930 . S
C476 C474 1.378 . S
C476 C477 1.367 . S
C477 C476 1.367 . S
C477 C479 1.433 . S
C478 C474 1.350 . S
C478 C475 1.463 1_545 S
C478 N482 1.427 . S
C479 H469 0.929 . S
C479 C477 1.433 . S
C479 N482 1.384 . S
C480 H471 0.929 . S
C480 C472 1.378 . S
C480 C475 1.350 . S
C481 H468 0.929 . S
C481 C473 1.433 . S
C481 N483 1.384 . S
N482 C478 1.427 . S
N482 C479 1.384 . S
N483 C475 1.427 . S
N483 C481 1.384 . S
H484 C490 0.930 . S
H485 C494 0.930 . S
H486 C499 0.929 . S
H487 C497 0.929 . S
H488 C492 0.929 . S
H489 C498 0.929 . S
C490 H484 0.930 . S
C490 C491 1.367 . S
C490 C498 1.378 . S
C491 C490 1.367 . S
C491 C499 1.433 . S
C492 H488 0.929 . S
C492 C494 1.378 . S
C492 C496 1.350 . S
C493 C496 1.463 . S
C493 C498 1.350 . S
C493 N501 1.427 . S
C494 H485 0.930 . S
C494 C492 1.378 . S
C494 C495 1.367 . S
C495 C494 1.367 . S
C495 C497 1.433 . S
C496 C492 1.350 . S
C496 C493 1.463 . S
C496 N500 1.427 . S
C497 H487 0.929 . S
C497 C495 1.433 . S
C497 N500 1.384 . S
C498 H489 0.929 . S
C498 C490 1.378 . S
C498 C493 1.350 . S
C499 H486 0.929 . S
C499 C491 1.433 . S
C499 N501 1.384 . S
N500 C496 1.427 . S
N500 C497 1.384 . S
N501 C493 1.427 . S
N501 C499 1.384 . S
H502 C508 0.930 . S
H503 C512 0.930 . S
H504 C517 0.929 . S
H505 C515 0.929 . S
H506 C510 0.929 . S
H507 C516 0.929 . S
C508 H502 0.930 . S
C508 C509 1.367 . S
C508 C516 1.378 . S
C509 C508 1.367 . S
C509 C517 1.433 1_556 S
C510 H506 0.929 . S
C510 C512 1.378 . S
C510 C514 1.350 . S
C511 C514 1.463 1_546 S
C511 C516 1.350 . S
C511 N519 1.427 1_556 S
C512 H503 0.930 . S
C512 C510 1.378 . S
C512 C513 1.367 . S
C513 C512 1.367 . S
C513 C515 1.433 1_554 S
C514 C510 1.350 . S
C514 C511 1.463 1_564 S
C514 N518 1.427 1_554 S
C515 H505 0.929 . S
C515 C513 1.433 1_556 S
C515 N518 1.384 . S
C516 H507 0.929 . S
C516 C508 1.378 . S
C516 C511 1.350 . S
C517 H504 0.929 . S
C517 C509 1.433 1_554 S
C517 N519 1.384 . S
N518 C514 1.427 1_556 S
N518 C515 1.384 . S
N519 C511 1.427 1_554 S
N519 C517 1.384 . S
H520 C526 0.930 . S
H521 C530 0.930 . S
H522 C535 0.929 . S
H523 C533 0.929 . S
H524 C528 0.929 . S
H525 C534 0.929 . S
C526 H520 0.930 . S
C526 C527 1.367 . S
C526 C534 1.378 . S
C527 C526 1.367 . S
C527 C535 1.433 . S
C528 H524 0.929 . S
C528 C530 1.378 . S
C528 C532 1.350 . S
C529 C532 1.463 . S
C529 C534 1.350 . S
C529 N537 1.427 . S
C530 H521 0.930 . S
C530 C528 1.378 . S
C530 C531 1.367 . S
C531 C530 1.367 . S
C531 C533 1.433 . S
C532 C528 1.350 . S
C532 C529 1.463 . S
C532 N536 1.427 . S
C533 H523 0.929 . S
C533 C531 1.433 . S
C533 N536 1.384 . S
C534 H525 0.929 . S
C534 C526 1.378 . S
C534 C529 1.350 . S
C535 H522 0.929 . S
C535 C527 1.433 . S
C535 N537 1.384 . S
N536 C532 1.427 . S
N536 C533 1.384 . S
N537 C529 1.427 . S
N537 C535 1.384 . S
H538 C544 0.930 . S
H539 C548 0.930 . S
H540 C553 0.929 . S
H541 C551 0.929 . S
H542 C546 0.929 . S
H543 C552 0.929 . S
C544 H538 0.930 . S
C544 C545 1.367 . S
C544 C552 1.378 . S
C545 C544 1.367 . S
C545 C553 1.433 . S
C546 H542 0.929 . S
C546 C548 1.378 . S
C546 C550 1.350 . S
C547 C550 1.463 1_565 S
C547 C552 1.350 . S
C547 N555 1.427 . S
C548 H539 0.930 . S
C548 C546 1.378 . S
C548 C549 1.367 . S
C549 C548 1.367 . S
C549 C551 1.433 . S
C550 C546 1.350 . S
C550 C547 1.463 1_545 S
C550 N554 1.427 . S
C551 H541 0.929 . S
C551 C549 1.433 . S
C551 N554 1.384 . S
C552 H543 0.929 . S
C552 C544 1.378 . S
C552 C547 1.350 . S
C553 H540 0.929 . S
C553 C545 1.433 . S
C553 N555 1.384 . S
N554 C550 1.427 . S
N554 C551 1.384 . S
N555 C547 1.427 . S
N555 C553 1.384 . S
H556 C562 0.930 . S
H557 C566 0.930 . S
H558 C571 0.929 . S
H559 C569 0.929 . S
H560 C564 0.929 . S
H561 C570 0.929 . S
C562 H556 0.930 . S
C562 C563 1.367 . S
C562 C570 1.378 . S
C563 C562 1.367 . S
C563 C571 1.433 . S
C564 H560 0.929 . S
C564 C566 1.378 . S
C564 C568 1.350 . S
C565 C568 1.463 . S
C565 C570 1.350 . S
C565 N573 1.427 . S
C566 H557 0.930 . S
C566 C564 1.378 . S
C566 C567 1.367 . S
C567 C566 1.367 . S
C567 C569 1.433 . S
C568 C564 1.350 . S
C568 C565 1.463 . S
C568 N572 1.427 . S
C569 H559 0.929 . S
C569 C567 1.433 . S
C569 N572 1.384 . S
C570 H561 0.929 . S
C570 C562 1.378 . S
C570 C565 1.350 . S
C571 H558 0.929 . S
C571 C563 1.433 . S
C571 N573 1.384 . S
N572 C568 1.427 . S
N572 C569 1.384 . S
N573 C565 1.427 . S
N573 C571 1.384 . S
H574 C580 0.930 . S
H575 C584 0.930 . S
H576 C589 0.929 . S
H577 C587 0.929 . S
H578 C582 0.929 1_556 S
H579 C588 0.929 1_554 S
C580 H574 0.930 . S
C580 C581 1.367 . S
C580 C588 1.378 . S
C581 C580 1.367 . S
C581 C589 1.433 . S
C582 H578 0.929 1_554 S
C582 C584 1.378 . S
C582 C586 1.350 . S
C583 C586 1.463 1_546 S
C583 C588 1.350 . S
C583 N591 1.427 . S
C584 H575 0.930 . S
C584 C582 1.378 . S
C584 C585 1.367 . S
C585 C584 1.367 . S
C585 C587 1.433 . S
C586 C582 1.350 . S
C586 C583 1.463 1_564 S
C586 N590 1.427 . S
C587 H577 0.929 . S
C587 C585 1.433 . S
C587 N590 1.384 . S
C588 H579 0.929 1_556 S
C588 C580 1.378 . S
C588 C583 1.350 . S
C589 H576 0.929 . S
C589 C581 1.433 . S
C589 N591 1.384 . S
N590 C586 1.427 . S
N590 C587 1.384 . S
N591 C583 1.427 . S
N591 C589 1.384 . S
H592 C598 0.930 . S
H593 C602 0.930 . S
H594 C607 0.929 . S
H595 C605 0.929 . S
H596 C600 0.929 . S
H597 C606 0.929 . S
C598 H592 0.930 . S
C598 C599 1.367 . S
C598 C606 1.378 . S
C599 C598 1.367 . S
C599 C607 1.433 . S
C600 H596 0.929 . S
C600 C602 1.378 . S
C600 C604 1.350 . S
C601 C604 1.463 . S
C601 C606 1.350 . S
C601 N609 1.427 . S
C602 H593 0.930 . S
C602 C600 1.378 . S
C602 C603 1.367 . S
C603 C602 1.367 . S
C603 C605 1.433 . S
C604 C600 1.350 . S
C604 C601 1.463 . S
C604 N608 1.427 . S
C605 H595 0.929 . S
C605 C603 1.433 . S
C605 N608 1.384 . S
C606 H597 0.929 . S
C606 C598 1.378 . S
C606 C601 1.350 . S
C607 H594 0.929 . S
C607 C599 1.433 . S
C607 N609 1.384 . S
N608 C604 1.427 . S
N608 C605 1.384 . S
N609 C601 1.427 . S
N609 C607 1.384 . S
H610 C616 0.933 . S
H611 C620 0.933 . S
H612 C625 0.929 . S
H613 C623 0.929 . S
H614 C618 0.929 . S
H615 C624 0.929 . S
C616 H610 0.933 . S
C616 C617 1.363 1_554 S
C616 C624 1.379 . S
C617 C616 1.363 1_556 S
C617 C625 1.433 . S
C618 H614 0.929 . S
C618 C620 1.379 . S
C618 C622 1.350 1_556 S
C619 C622 1.463 1_556 S
C619 C624 1.350 1_556 S
C619 N627 1.427 . S
C620 H611 0.933 . S
C620 C618 1.379 . S
C620 C621 1.363 1_556 S
C621 C620 1.363 1_554 S
C621 C623 1.433 . S
C622 C618 1.350 1_554 S
C622 C619 1.463 1_554 S
C622 N626 1.427 . S
C623 H613 0.929 . S
C623 C621 1.433 . S
C623 N626 1.384 . S
C624 H615 0.929 . S
C624 C616 1.379 . S
C624 C619 1.350 1_554 S
C625 H612 0.929 . S
C625 C617 1.433 . S
C625 N627 1.384 . S
N626 C622 1.427 . S
N626 C623 1.384 . S
N627 C619 1.427 . S
N627 C625 1.384 . S
H628 C634 0.930 . S
H629 C638 0.930 . S
H630 C643 0.929 . S
H631 C641 0.929 . S
H632 C636 0.929 . S
H633 C642 0.929 . S
C634 H628 0.930 . S
C634 C635 1.367 . S
C634 C642 1.378 . S
C635 C634 1.367 . S
C635 C643 1.433 . S
C636 H632 0.929 . S
C636 C638 1.378 . S
C636 C640 1.350 . S
C637 C640 1.463 . S
C637 C642 1.350 . S
C637 N645 1.427 . S
C638 H629 0.930 . S
C638 C636 1.378 . S
C638 C639 1.367 . S
C639 C638 1.367 . S
C639 C641 1.433 . S
C640 C636 1.350 . S
C640 C637 1.463 . S
C640 N644 1.427 . S
C641 H631 0.929 . S
C641 C639 1.433 . S
C641 N644 1.384 . S
C642 H633 0.929 . S
C642 C634 1.378 . S
C642 C637 1.350 . S
C643 H630 0.929 . S
C643 C635 1.433 . S
C643 N645 1.384 . S
N644 C640 1.427 . S
N644 C641 1.384 . S
N645 C637 1.427 . S
N645 C643 1.384 . S
H646 C652 0.930 . S
H647 C656 0.930 . S
H648 C661 0.929 . S
H649 C659 0.929 . S
H650 C654 0.929 . S
H651 C660 0.929 . S
C652 H646 0.930 . S
C652 C653 1.367 . S
C652 C660 1.378 . S
C653 C652 1.367 . S
C653 C661 1.433 . S
C654 H650 0.929 . S
C654 C656 1.378 . S
C654 C658 1.350 . S
C655 C658 1.463 . S
C655 C660 1.350 . S
C655 N663 1.427 . S
C656 H647 0.930 . S
C656 C654 1.378 . S
C656 C657 1.367 . S
C657 C656 1.367 . S
C657 C659 1.433 . S
C658 C654 1.350 . S
C658 C655 1.463 . S
C658 N662 1.427 . S
C659 H649 0.929 . S
C659 C657 1.433 . S
C659 N662 1.384 . S
C660 H651 0.929 . S
C660 C652 1.378 . S
C660 C655 1.350 . S
C661 H648 0.929 . S
C661 C653 1.433 . S
C661 N663 1.384 . S
N662 C658 1.427 . S
N662 C659 1.384 . S
N663 C655 1.427 . S
N663 C661 1.384 . S
H664 C670 0.930 . S
H665 C674 0.930 . S
H666 C679 0.929 . S
H667 C677 0.929 . S
H668 C672 0.929 . S
H669 C678 0.929 . S
C670 H664 0.930 . S
C670 C671 1.367 . S
C670 C678 1.378 . S
C671 C670 1.367 . S
C671 C679 1.433 . S
C672 H668 0.929 . S
C672 C674 1.378 . S
C672 C676 1.350 . S
C673 C676 1.463 . S
C673 C678 1.350 . S
C673 N681 1.427 . S
C674 H665 0.930 . S
C674 C672 1.378 . S
C674 C675 1.367 . S
C675 C674 1.367 . S
C675 C677 1.433 . S
C676 C672 1.350 . S
C676 C673 1.463 . S
C676 N680 1.427 . S
C677 H667 0.929 . S
C677 C675 1.433 . S
C677 N680 1.384 . S
C678 H669 0.929 . S
C678 C670 1.378 . S
C678 C673 1.350 . S
C679 H666 0.929 . S
C679 C671 1.433 . S
C679 N681 1.384 . S
N680 C676 1.427 . S
N680 C677 1.384 . S
N681 C673 1.427 . S
N681 C679 1.384 . S
H682 C688 0.930 . S
H683 C692 0.930 . S
H684 C697 0.929 1_556 S
H685 C695 0.929 1_554 S
H686 C690 0.929 . S
H687 C696 0.929 . S
C688 H682 0.930 . S
C688 C689 1.367 . S
C688 C696 1.378 . S
C689 C688 1.367 . S
C689 C697 1.433 . S
C690 H686 0.929 . S
C690 C692 1.378 . S
C690 C694 1.350 . S
C691 C694 1.463 1_554 S
C691 C696 1.350 . S
C691 N699 1.427 1_554 S
C692 H683 0.930 . S
C692 C690 1.378 . S
C692 C693 1.367 . S
C693 C692 1.367 . S
C693 C695 1.433 . S
C694 C690 1.350 . S
C694 C691 1.463 1_556 S
C694 N698 1.427 1_556 S
C695 H685 0.929 1_556 S
C695 C693 1.433 . S
C695 N698 1.384 1_556 S
C696 H687 0.929 . S
C696 C688 1.378 . S
C696 C691 1.350 . S
C697 H684 0.929 1_554 S
C697 C689 1.433 . S
C697 N699 1.384 1_554 S
N698 C694 1.427 1_554 S
N698 C695 1.384 1_554 S
N699 C691 1.427 1_556 S
N699 C697 1.384 1_556 S
H700 C706 0.930 . S
H701 C710 0.930 . S
H702 C715 0.929 . S
H703 C713 0.929 . S
H704 C708 0.929 . S
H705 C714 0.929 . S
C706 H700 0.930 . S
C706 C707 1.367 . S
C706 C714 1.378 . S
C707 C706 1.367 . S
C707 C715 1.433 . S
C708 H704 0.929 . S
C708 C710 1.378 . S
C708 C712 1.350 . S
C709 C712 1.463 . S
C709 C714 1.350 . S
C709 N717 1.427 . S
C710 H701 0.930 . S
C710 C708 1.378 . S
C710 C711 1.367 . S
C711 C710 1.367 . S
C711 C713 1.433 . S
C712 C708 1.350 . S
C712 C709 1.463 . S
C712 N716 1.427 . S
C713 H703 0.929 . S
C713 C711 1.433 . S
C713 N716 1.384 . S
C714 H705 0.929 . S
C714 C706 1.378 . S
C714 C709 1.350 . S
C715 H702 0.929 . S
C715 C707 1.433 . S
C715 N717 1.384 . S
N716 C712 1.427 . S
N716 C713 1.384 . S
N717 C709 1.427 . S
N717 C715 1.384 . S
H718 C724 0.930 . S
H719 C728 0.930 . S
H720 C733 0.929 . S
H721 C731 0.929 . S
H722 C726 0.929 . S
H723 C732 0.929 . S
C724 H718 0.930 . S
C724 C725 1.367 . S
C724 C732 1.378 . S
C725 C724 1.367 . S
C725 C733 1.433 . S
C726 H722 0.929 . S
C726 C728 1.378 . S
C726 C730 1.350 . S
C727 C730 1.463 . S
C727 C732 1.350 . S
C727 N735 1.427 . S
C728 H719 0.930 . S
C728 C726 1.378 . S
C728 C729 1.367 . S
C729 C728 1.367 . S
C729 C731 1.433 . S
C730 C726 1.350 . S
C730 C727 1.463 . S
C730 N734 1.427 . S
C731 H721 0.929 . S
C731 C729 1.433 . S
C731 N734 1.384 . S
C732 H723 0.929 . S
C732 C724 1.378 . S
C732 C727 1.350 . S
C733 H720 0.929 . S
C733 C725 1.433 . S
C733 N735 1.384 . S
N734 C730 1.427 . S
N734 C731 1.384 . S
N735 C727 1.427 . S
N735 C733 1.384 . S
H736 C742 0.930 . S
H737 C746 0.930 . S
H738 C751 0.929 1_554 S
H739 C749 0.929 . S
H740 C744 0.929 . S
H741 C750 0.929 . S
C742 H736 0.930 . S
C742 C743 1.367 . S
C742 C750 1.378 . S
C743 C742 1.367 . S
C743 C751 1.433 . S
C744 H740 0.929 . S
C744 C746 1.378 . S
C744 C748 1.350 . S
C745 C748 1.463 . S
C745 C750 1.350 . S
C745 N753 1.427 . S
C746 H737 0.930 . S
C746 C744 1.378 . S
C746 C747 1.367 . S
C747 C746 1.367 . S
C747 C749 1.433 . S
C748 C744 1.350 . S
C748 C745 1.463 . S
C748 N752 1.427 . S
C749 H739 0.929 . S
C749 C747 1.433 . S
C749 N752 1.384 . S
C750 H741 0.929 . S
C750 C742 1.378 . S
C750 C745 1.350 . S
C751 H738 0.929 1_556 S
C751 C743 1.433 . S
C751 N753 1.384 . S
N752 C748 1.427 . S
N752 C749 1.384 . S
N753 C745 1.427 . S
N753 C751 1.384 . S
H754 C760 0.930 . S
H755 C764 0.930 . S
H756 C769 0.929 1_556 S
H757 C767 0.929 . S
H758 C762 0.929 . S
H759 C768 0.929 . S
C760 H754 0.930 . S
C760 C761 1.367 . S
C760 C768 1.378 . S
C761 C760 1.367 . S
C761 C769 1.433 . S
C762 H758 0.929 . S
C762 C764 1.378 . S
C762 C766 1.350 . S
C763 C766 1.463 . S
C763 C768 1.350 . S
C763 N771 1.427 . S
C764 H755 0.930 . S
C764 C762 1.378 . S
C764 C765 1.367 . S
C765 C764 1.367 . S
C765 C767 1.433 . S
C766 C762 1.350 . S
C766 C763 1.463 . S
C766 N770 1.427 . S
C767 H757 0.929 . S
C767 C765 1.433 . S
C767 N770 1.384 . S
C768 H759 0.929 . S
C768 C760 1.378 . S
C768 C763 1.350 . S
C769 H756 0.929 1_554 S
C769 C761 1.433 . S
C769 N771 1.384 . S
N770 C766 1.427 . S
N770 C767 1.384 . S
N771 C763 1.427 . S
N771 C769 1.384 . S
H772 C778 0.930 . S
H773 C782 0.930 . S
H774 C787 0.929 . S
H775 C785 0.929 . S
H776 C780 0.929 . S
H777 C786 0.929 . S
C778 H772 0.930 . S
C778 C779 1.367 . S
C778 C786 1.378 . S
C779 C778 1.367 . S
C779 C787 1.433 . S
C780 H776 0.929 . S
C780 C782 1.378 . S
C780 C784 1.350 . S
C781 C784 1.463 . S
C781 C786 1.350 . S
C781 N789 1.427 . S
C782 H773 0.930 . S
C782 C780 1.378 . S
C782 C783 1.367 . S
C783 C782 1.367 . S
C783 C785 1.433 . S
C784 C780 1.350 . S
C784 C781 1.463 . S
C784 N788 1.427 . S
C785 H775 0.929 . S
C785 C783 1.433 . S
C785 N788 1.384 . S
C786 H777 0.929 . S
C786 C778 1.378 . S
C786 C781 1.350 . S
C787 H774 0.929 . S
C787 C779 1.433 . S
C787 N789 1.384 . S
N788 C784 1.427 . S
N788 C785 1.384 . S
N789 C781 1.427 . S
N789 C787 1.384 . S
H790 C796 0.930 . S
H791 C800 0.930 . S
H792 C805 0.929 . S
H793 C803 0.929 . S
H794 C798 0.929 . S
H795 C804 0.929 . S
C796 H790 0.930 . S
C796 C797 1.367 . S
C796 C804 1.378 . S
C797 C796 1.367 . S
C797 C805 1.433 . S
C798 H794 0.929 . S
C798 C800 1.378 . S
C798 C802 1.350 . S
C799 C802 1.463 . S
C799 C804 1.350 . S
C799 N807 1.427 . S
C800 H791 0.930 . S
C800 C798 1.378 . S
C800 C801 1.367 . S
C801 C800 1.367 . S
C801 C803 1.433 . S
C802 C798 1.350 . S
C802 C799 1.463 . S
C802 N806 1.427 . S
C803 H793 0.929 . S
C803 C801 1.433 . S
C803 N806 1.384 . S
C804 H795 0.929 . S
C804 C796 1.378 . S
C804 C799 1.350 . S
C805 H792 0.929 . S
C805 C797 1.433 . S
C805 N807 1.384 . S
N806 C802 1.427 . S
N806 C803 1.384 . S
N807 C799 1.427 . S
N807 C805 1.384 . S
H808 C814 0.930 . S
H809 C818 0.930 . S
H810 C823 0.929 . S
H811 C821 0.929 . S
H812 C816 0.929 . S
H813 C822 0.929 . S
C814 H808 0.930 . S
C814 C815 1.367 . S
C814 C822 1.378 . S
C815 C814 1.367 . S
C815 C823 1.433 . S
C816 H812 0.929 . S
C816 C818 1.378 . S
C816 C820 1.350 . S
C817 C820 1.463 . S
C817 C822 1.350 . S
C817 N825 1.427 . S
C818 H809 0.930 . S
C818 C816 1.378 . S
C818 C819 1.367 . S
C819 C818 1.367 . S
C819 C821 1.433 . S
C820 C816 1.350 . S
C820 C817 1.463 . S
C820 N824 1.427 . S
C821 H811 0.929 . S
C821 C819 1.433 . S
C821 N824 1.384 . S
C822 H813 0.929 . S
C822 C814 1.378 . S
C822 C817 1.350 . S
C823 H810 0.929 . S
C823 C815 1.433 . S
C823 N825 1.384 . S
N824 C820 1.427 . S
N824 C821 1.384 . S
N825 C817 1.427 . S
N825 C823 1.384 . S
H826 C832 0.930 . S
H827 C836 0.930 . S
H828 C841 0.929 1_554 S
H829 C839 0.929 . S
H830 C834 0.929 . S
H831 C840 0.929 . S
C832 H826 0.930 . S
C832 C833 1.367 . S
C832 C840 1.378 . S
C833 C832 1.367 . S
C833 C841 1.433 . S
C834 H830 0.929 . S
C834 C836 1.378 . S
C834 C838 1.350 . S
C835 C838 1.463 . S
C835 C840 1.350 . S
C835 N843 1.427 . S
C836 H827 0.930 . S
C836 C834 1.378 . S
C836 C837 1.367 . S
C837 C836 1.367 . S
C837 C839 1.433 . S
C838 C834 1.350 . S
C838 C835 1.463 . S
C838 N842 1.427 . S
C839 H829 0.929 . S
C839 C837 1.433 . S
C839 N842 1.384 . S
C840 H831 0.929 . S
C840 C832 1.378 . S
C840 C835 1.350 . S
C841 H828 0.929 1_556 S
C841 C833 1.433 . S
C841 N843 1.384 . S
N842 C838 1.427 . S
N842 C839 1.384 . S
N843 C835 1.427 . S
N843 C841 1.384 . S
H844 C850 0.930 . S
H845 C854 0.930 . S
H846 C859 0.929 . S
H847 C857 0.929 . S
H848 C852 0.929 . S
H849 C858 0.929 . S
C850 H844 0.930 . S
C850 C851 1.367 . S
C850 C858 1.378 . S
C851 C850 1.367 . S
C851 C859 1.433 . S
C852 H848 0.929 . S
C852 C854 1.378 . S
C852 C856 1.350 . S
C853 C856 1.463 . S
C853 C858 1.350 . S
C853 N861 1.427 . S
C854 H845 0.930 . S
C854 C852 1.378 . S
C854 C855 1.367 . S
C855 C854 1.367 . S
C855 C857 1.433 . S
C856 C852 1.350 . S
C856 C853 1.463 . S
C856 N860 1.427 . S
C857 H847 0.929 . S
C857 C855 1.433 . S
C857 N860 1.384 . S
C858 H849 0.929 . S
C858 C850 1.378 . S
C858 C853 1.350 . S
C859 H846 0.929 . S
C859 C851 1.433 . S
C859 N861 1.384 . S
N860 C856 1.427 . S
N860 C857 1.384 . S
N861 C853 1.427 . S
N861 C859 1.384 . S
H862 C868 0.930 . S
H863 C872 0.930 . S
H864 C877 0.929 . S
H865 C875 0.929 . S
H866 C870 0.929 . S
H867 C876 0.929 . S
C868 H862 0.930 . S
C868 C869 1.367 . S
C868 C876 1.378 . S
C869 C868 1.367 . S
C869 C877 1.433 . S
C870 H866 0.929 . S
C870 C872 1.378 . S
C870 C874 1.350 . S
C871 C874 1.463 . S
C871 C876 1.350 . S
C871 N879 1.427 . S
C872 H863 0.930 . S
C872 C870 1.378 . S
C872 C873 1.367 . S
C873 C872 1.367 . S
C873 C875 1.433 . S
C874 C870 1.350 . S
C874 C871 1.463 . S
C874 N878 1.427 . S
C875 H865 0.929 . S
C875 C873 1.433 . S
C875 N878 1.384 . S
C876 H867 0.929 . S
C876 C868 1.378 . S
C876 C871 1.350 . S
C877 H864 0.929 . S
C877 C869 1.433 . S
C877 N879 1.384 . S
N878 C874 1.427 . S
N878 C875 1.384 . S
N879 C871 1.427 . S
N879 C877 1.384 . S
H880 C886 0.930 . S
H881 C890 0.930 . S
H882 C895 0.929 . S
H883 C893 0.929 . S
H884 C888 0.929 . S
H885 C894 0.929 . S
C886 H880 0.930 . S
C886 C887 1.367 . S
C886 C894 1.378 . S
C887 C886 1.367 . S
C887 C895 1.433 . S
C888 H884 0.929 . S
C888 C890 1.378 . S
C888 C892 1.350 . S
C889 C892 1.463 . S
C889 C894 1.350 . S
C889 N897 1.427 . S
C890 H881 0.930 . S
C890 C888 1.378 . S
C890 C891 1.367 . S
C891 C890 1.367 . S
C891 C893 1.433 . S
C892 C888 1.350 . S
C892 C889 1.463 . S
C892 N896 1.427 . S
C893 H883 0.929 . S
C893 C891 1.433 . S
C893 N896 1.384 . S
C894 H885 0.929 . S
C894 C886 1.378 . S
C894 C889 1.350 . S
C895 H882 0.929 . S
C895 C887 1.433 . S
C895 N897 1.384 . S
N896 C892 1.427 . S
N896 C893 1.384 . S
N897 C889 1.427 . S
N897 C895 1.384 . S
H898 C904 0.930 . S
H899 C908 0.930 . S
H900 C913 0.929 . S
H901 C911 0.929 . S
H902 C906 0.929 . S
H903 C912 0.929 . S
C904 H898 0.930 . S
C904 C905 1.367 . S
C904 C912 1.378 . S
C905 C904 1.367 . S
C905 C913 1.433 . S
C906 H902 0.929 . S
C906 C908 1.378 . S
C906 C910 1.350 . S
C907 C910 1.463 . S
C907 C912 1.350 . S
C907 N915 1.427 . S
C908 H899 0.930 . S
C908 C906 1.378 . S
C908 C909 1.367 . S
C909 C908 1.367 . S
C909 C911 1.433 . S
C910 C906 1.350 . S
C910 C907 1.463 . S
C910 N914 1.427 . S
C911 H901 0.929 . S
C911 C909 1.433 . S
C911 N914 1.384 . S
C912 H903 0.929 . S
C912 C904 1.378 . S
C912 C907 1.350 . S
C913 H900 0.929 . S
C913 C905 1.433 . S
C913 N915 1.384 . S
N914 C910 1.427 . S
N914 C911 1.384 . S
N915 C907 1.427 . S
N915 C913 1.384 . S
H916 C922 0.930 . S
H917 C926 0.930 . S
H918 C931 0.929 . S
H919 C929 0.929 . S
H920 C924 0.929 . S
H921 C930 0.929 . S
C922 H916 0.930 . S
C922 C923 1.367 . S
C922 C930 1.378 . S
C923 C922 1.367 . S
C923 C931 1.433 . S
C924 H920 0.929 . S
C924 C926 1.378 . S
C924 C928 1.350 . S
C925 C928 1.463 . S
C925 C930 1.350 . S
C925 N933 1.427 . S
C926 H917 0.930 . S
C926 C924 1.378 . S
C926 C927 1.367 . S
C927 C926 1.367 . S
C927 C929 1.433 . S
C928 C924 1.350 . S
C928 C925 1.463 . S
C928 N932 1.427 . S
C929 H919 0.929 . S
C929 C927 1.433 . S
C929 N932 1.384 . S
C930 H921 0.929 . S
C930 C922 1.378 . S
C930 C925 1.350 . S
C931 H918 0.929 . S
C931 C923 1.433 . S
C931 N933 1.384 . S
N932 C928 1.427 . S
N932 C929 1.384 . S
N933 C925 1.427 . S
N933 C931 1.384 . S
H934 C940 0.930 . S
H935 C944 0.930 . S
H936 C949 0.929 . S
H937 C947 0.929 . S
H938 C942 0.929 . S
H939 C948 0.929 . S
C940 H934 0.930 . S
C940 C941 1.367 . S
C940 C948 1.378 . S
C941 C940 1.367 . S
C941 C949 1.433 . S
C942 H938 0.929 . S
C942 C944 1.378 . S
C942 C946 1.350 . S
C943 C946 1.463 . S
C943 C948 1.350 . S
C943 N951 1.427 . S
C944 H935 0.930 . S
C944 C942 1.378 . S
C944 C945 1.367 . S
C945 C944 1.367 . S
C945 C947 1.433 . S
C946 C942 1.350 . S
C946 C943 1.463 . S
C946 N950 1.427 . S
C947 H937 0.929 . S
C947 C945 1.433 . S
C947 N950 1.384 . S
C948 H939 0.929 . S
C948 C940 1.378 . S
C948 C943 1.350 . S
C949 H936 0.929 . S
C949 C941 1.433 . S
C949 N951 1.384 . S
N950 C946 1.427 . S
N950 C947 1.384 . S
N951 C943 1.427 . S
N951 C949 1.384 . S
H952 C958 0.930 . S
H953 C962 0.930 . S
H954 C967 0.929 . S
H955 C965 0.929 . S
H956 C960 0.929 . S
H957 C966 0.929 . S
C958 H952 0.930 . S
C958 C959 1.367 . S
C958 C966 1.378 . S
C959 C958 1.367 . S
C959 C967 1.433 . S
C960 H956 0.929 . S
C960 C962 1.378 . S
C960 C964 1.350 . S
C961 C964 1.463 . S
C961 C966 1.350 . S
C961 N969 1.427 . S
C962 H953 0.930 . S
C962 C960 1.378 . S
C962 C963 1.367 . S
C963 C962 1.367 . S
C963 C965 1.433 . S
C964 C960 1.350 . S
C964 C961 1.463 . S
C964 N968 1.427 . S
C965 H955 0.929 . S
C965 C963 1.433 . S
C965 N968 1.384 . S
C966 H957 0.929 . S
C966 C958 1.378 . S
C966 C961 1.350 . S
C967 H954 0.929 . S
C967 C959 1.433 . S
C967 N969 1.384 . S
N968 C964 1.427 . S
N968 C965 1.384 . S
N969 C961 1.427 . S
N969 C967 1.384 . S
H970 C976 0.930 . S
H971 C980 0.930 . S
H972 C985 0.929 . S
H973 C983 0.929 . S
H974 C978 0.929 . S
H975 C984 0.929 . S
C976 H970 0.930 . S
C976 C977 1.367 . S
C976 C984 1.378 . S
C977 C976 1.367 . S
C977 C985 1.433 . S
C978 H974 0.929 . S
C978 C980 1.378 . S
C978 C982 1.350 . S
C979 C982 1.463 . S
C979 C984 1.350 . S
C979 N987 1.427 . S
C980 H971 0.930 . S
C980 C978 1.378 . S
C980 C981 1.367 . S
C981 C980 1.367 . S
C981 C983 1.433 . S
C982 C978 1.350 . S
C982 C979 1.463 . S
C982 N986 1.427 . S
C983 H973 0.929 . S
C983 C981 1.433 . S
C983 N986 1.384 . S
C984 H975 0.929 . S
C984 C976 1.378 . S
C984 C979 1.350 . S
C985 H972 0.929 . S
C985 C977 1.433 . S
C985 N987 1.384 . S
N986 C982 1.427 . S
N986 C983 1.384 . S
N987 C979 1.427 . S
N987 C985 1.384 . S
H988 C994 0.930 . S
H989 C998 0.930 . S
H990 C1003 0.929 . S
H991 C1001 0.929 . S
H992 C996 0.929 . S
H993 C1002 0.929 . S
C994 H988 0.930 . S
C994 C995 1.367 . S
C994 C1002 1.378 . S
C995 C994 1.367 . S
C995 C1003 1.433 . S
C996 H992 0.929 . S
C996 C998 1.378 . S
C996 C1000 1.350 . S
C997 C1000 1.463 . S
C997 C1002 1.350 . S
C997 N1005 1.427 . S
C998 H989 0.930 . S
C998 C996 1.378 . S
C998 C999 1.367 . S
C999 C998 1.367 . S
C999 C1001 1.433 . S
C1000 C996 1.350 . S
C1000 C997 1.463 . S
C1000 N1004 1.427 . S
C1001 H991 0.929 . S
C1001 C999 1.433 . S
C1001 N1004 1.384 . S
C1002 H993 0.929 . S
C1002 C994 1.378 . S
C1002 C997 1.350 . S
C1003 H990 0.929 . S
C1003 C995 1.433 . S
C1003 N1005 1.384 . S
N1004 C1000 1.427 . S
N1004 C1001 1.384 . S
N1005 C997 1.427 . S
N1005 C1003 1.384 . S
H1006 C1012 0.930 . S
H1007 C1016 0.930 . S
H1008 C1021 0.929 . S
H1009 C1019 0.929 1_554 S
H1010 C1014 0.929 . S
H1011 C1020 0.929 . S
C1012 H1006 0.930 . S
C1012 C1013 1.367 . S
C1012 C1020 1.378 . S
C1013 C1012 1.367 . S
C1013 C1021 1.433 . S
C1014 H1010 0.929 . S
C1014 C1016 1.378 . S
C1014 C1018 1.350 . S
C1015 C1018 1.463 . S
C1015 C1020 1.350 . S
C1015 N1023 1.427 . S
C1016 H1007 0.930 . S
C1016 C1014 1.378 . S
C1016 C1017 1.367 . S
C1017 C1016 1.367 . S
C1017 C1019 1.433 . S
C1018 C1014 1.350 . S
C1018 C1015 1.463 . S
C1018 N1022 1.427 . S
C1019 H1009 0.929 1_556 S
C1019 C1017 1.433 . S
C1019 N1022 1.384 . S
C1020 H1011 0.929 . S
C1020 C1012 1.378 . S
C1020 C1015 1.350 . S
C1021 H1008 0.929 . S
C1021 C1013 1.433 . S
C1021 N1023 1.384 . S
N1022 C1018 1.427 . S
N1022 C1019 1.384 . S
N1023 C1015 1.427 . S
N1023 C1021 1.384 . S
H1024 C1030 0.930 . S
H1025 C1034 0.930 . S
H1026 C1039 0.929 . S
H1027 C1037 0.929 . S
H1028 C1032 0.929 . S
H1029 C1038 0.929 . S
C1030 H1024 0.930 . S
C1030 C1031 1.367 . S
C1030 C1038 1.378 . S
C1031 C1030 1.367 . S
C1031 C1039 1.433 . S
C1032 H1028 0.929 . S
C1032 C1034 1.378 . S
C1032 C1036 1.350 . S
C1033 C1036 1.463 . S
C1033 C1038 1.350 . S
C1033 N1041 1.427 . S
C1034 H1025 0.930 . S
C1034 C1032 1.378 . S
C1034 C1035 1.367 . S
C1035 C1034 1.367 . S
C1035 C1037 1.433 . S
C1036 C1032 1.350 . S
C1036 C1033 1.463 . S
C1036 N1040 1.427 . S
C1037 H1027 0.929 . S
C1037 C1035 1.433 . S
C1037 N1040 1.384 . S
C1038 H1029 0.929 . S
C1038 C1030 1.378 . S
C1038 C1033 1.350 . S
C1039 H1026 0.929 . S
C1039 C1031 1.433 . S
C1039 N1041 1.384 . S
N1040 C1036 1.427 . S
N1040 C1037 1.384 . S
N1041 C1033 1.427 . S
N1041 C1039 1.384 . S
H1042 C1048 0.930 . S
H1043 C1052 0.930 . S
H1044 C1057 0.929 . S
H1045 C1055 0.929 . S
H1046 C1050 0.929 . S
H1047 C1056 0.929 . S
C1048 H1042 0.930 . S
C1048 C1049 1.367 . S
C1048 C1056 1.378 . S
C1049 C1048 1.367 . S
C1049 C1057 1.433 . S
C1050 H1046 0.929 . S
C1050 C1052 1.378 . S
C1050 C1054 1.350 . S
C1051 C1054 1.463 1_655 S
C1051 C1056 1.350 . S
C1051 N1059 1.427 . S
C1052 H1043 0.930 . S
C1052 C1050 1.378 . S
C1052 C1053 1.367 . S
C1053 C1052 1.367 . S
C1053 C1055 1.433 . S
C1054 C1050 1.350 . S
C1054 C1051 1.463 1_455 S
C1054 N1058 1.427 . S
C1055 H1045 0.929 . S
C1055 C1053 1.433 . S
C1055 N1058 1.384 . S
C1056 H1047 0.929 . S
C1056 C1048 1.378 . S
C1056 C1051 1.350 . S
C1057 H1044 0.929 . S
C1057 C1049 1.433 . S
C1057 N1059 1.384 . S
N1058 C1054 1.427 . S
N1058 C1055 1.384 . S
N1059 C1051 1.427 . S
N1059 C1057 1.384 . S
H1060 C1066 0.930 . S
H1061 C1070 0.930 . S
H1062 C1075 0.929 . S
H1063 C1073 0.929 . S
H1064 C1068 0.929 . S
H1065 C1074 0.929 . S
C1066 H1060 0.930 . S
C1066 C1067 1.367 . S
C1066 C1074 1.378 . S
C1067 C1066 1.367 . S
C1067 C1075 1.433 . S
C1068 H1064 0.929 . S
C1068 C1070 1.378 . S
C1068 C1072 1.350 . S
C1069 C1072 1.463 . S
C1069 C1074 1.350 . S
C1069 N1077 1.427 . S
C1070 H1061 0.930 . S
C1070 C1068 1.378 . S
C1070 C1071 1.367 . S
C1071 C1070 1.367 . S
C1071 C1073 1.433 . S
C1072 C1068 1.350 . S
C1072 C1069 1.463 . S
C1072 N1076 1.427 . S
C1073 H1063 0.929 . S
C1073 C1071 1.433 . S
C1073 N1076 1.384 . S
C1074 H1065 0.929 . S
C1074 C1066 1.378 . S
C1074 C1069 1.350 . S
C1075 H1062 0.929 . S
C1075 C1067 1.433 . S
C1075 N1077 1.384 . S
N1076 C1072 1.427 . S
N1076 C1073 1.384 . S
N1077 C1069 1.427 . S
N1077 C1075 1.384 . S
H1078 C1084 0.930 . S
H1079 C1088 0.930 . S
H1080 C1093 0.929 . S
H1081 C1091 0.929 . S
H1082 C1086 0.929 . S
H1083 C1092 0.929 . S
C1084 H1078 0.930 . S
C1084 C1085 1.367 . S
C1084 C1092 1.378 . S
C1085 C1084 1.367 . S
C1085 C1093 1.433 . S
C1086 H1082 0.929 . S
C1086 C1088 1.378 . S
C1086 C1090 1.350 . S
C1087 C1090 1.463 . S
C1087 C1092 1.350 . S
C1087 N1095 1.427 . S
C1088 H1079 0.930 . S
C1088 C1086 1.378 . S
C1088 C1089 1.367 . S
C1089 C1088 1.367 . S
C1089 C1091 1.433 . S
C1090 C1086 1.350 . S
C1090 C1087 1.463 . S
C1090 N1094 1.427 . S
C1091 H1081 0.929 . S
C1091 C1089 1.433 . S
C1091 N1094 1.384 . S
C1092 H1083 0.929 . S
C1092 C1084 1.378 . S
C1092 C1087 1.350 . S
C1093 H1080 0.929 . S
C1093 C1085 1.433 . S
C1093 N1095 1.384 . S
N1094 C1090 1.427 . S
N1094 C1091 1.384 . S
N1095 C1087 1.427 . S
N1095 C1093 1.384 . S
H1096 C1102 0.930 . S
H1097 C1106 0.930 . S
H1098 C1111 0.929 . S
H1099 C1109 0.929 . S
H1100 C1104 0.929 . S
H1101 C1110 0.929 . S
C1102 H1096 0.930 . S
C1102 C1103 1.367 . S
C1102 C1110 1.378 . S
C1103 C1102 1.367 . S
C1103 C1111 1.433 . S
C1104 H1100 0.929 . S
C1104 C1106 1.378 . S
C1104 C1108 1.350 . S
C1105 C1108 1.463 . S
C1105 C1110 1.350 . S
C1105 N1113 1.427 . S
C1106 H1097 0.930 . S
C1106 C1104 1.378 . S
C1106 C1107 1.367 . S
C1107 C1106 1.367 . S
C1107 C1109 1.433 . S
C1108 C1104 1.350 . S
C1108 C1105 1.463 . S
C1108 N1112 1.427 . S
C1109 H1099 0.929 . S
C1109 C1107 1.433 . S
C1109 N1112 1.384 . S
C1110 H1101 0.929 . S
C1110 C1102 1.378 . S
C1110 C1105 1.350 . S
C1111 H1098 0.929 . S
C1111 C1103 1.433 . S
C1111 N1113 1.384 . S
N1112 C1108 1.427 . S
N1112 C1109 1.384 . S
N1113 C1105 1.427 . S
N1113 C1111 1.384 . S
H1114 C1120 0.930 . S
H1115 C1124 0.930 . S
H1116 C1129 0.929 . S
H1117 C1127 0.929 . S
H1118 C1122 0.929 . S
H1119 C1128 0.929 . S
C1120 H1114 0.930 . S
C1120 C1121 1.367 . S
C1120 C1128 1.378 . S
C1121 C1120 1.367 . S
C1121 C1129 1.433 . S
C1122 H1118 0.929 . S
C1122 C1124 1.378 . S
C1122 C1126 1.350 . S
C1123 C1126 1.463 . S
C1123 C1128 1.350 . S
C1123 N1131 1.427 . S
C1124 H1115 0.930 . S
C1124 C1122 1.378 . S
C1124 C1125 1.367 . S
C1125 C1124 1.367 . S
C1125 C1127 1.433 . S
C1126 C1122 1.350 . S
C1126 C1123 1.463 . S
C1126 N1130 1.427 . S
C1127 H1117 0.929 . S
C1127 C1125 1.433 . S
C1127 N1130 1.384 . S
C1128 H1119 0.929 . S
C1128 C1120 1.378 . S
C1128 C1123 1.350 . S
C1129 H1116 0.929 . S
C1129 C1121 1.433 . S
C1129 N1131 1.384 . S
N1130 C1126 1.427 . S
N1130 C1127 1.384 . S
N1131 C1123 1.427 . S
N1131 C1129 1.384 . S
H1132 C1138 0.930 . S
H1133 C1142 0.930 . S
H1134 C1147 0.929 . S
H1135 C1145 0.929 . S
H1136 C1140 0.929 . S
H1137 C1146 0.929 . S
C1138 H1132 0.930 . S
C1138 C1139 1.367 . S
C1138 C1146 1.378 . S
C1139 C1138 1.367 . S
C1139 C1147 1.433 . S
C1140 H1136 0.929 . S
C1140 C1142 1.378 . S
C1140 C1144 1.350 . S
C1141 C1144 1.463 . S
C1141 C1146 1.350 . S
C1141 N1149 1.427 . S
C1142 H1133 0.930 . S
C1142 C1140 1.378 . S
C1142 C1143 1.367 . S
C1143 C1142 1.367 . S
C1143 C1145 1.433 . S
C1144 C1140 1.350 . S
C1144 C1141 1.463 . S
C1144 N1148 1.427 . S
C1145 H1135 0.929 . S
C1145 C1143 1.433 . S
C1145 N1148 1.384 . S
C1146 H1137 0.929 . S
C1146 C1138 1.378 . S
C1146 C1141 1.350 . S
C1147 H1134 0.929 . S
C1147 C1139 1.433 . S
C1147 N1149 1.384 . S
N1148 C1144 1.427 . S
N1148 C1145 1.384 . S
N1149 C1141 1.427 . S
N1149 C1147 1.384 . S
H1150 C1156 0.930 . S
H1151 C1160 0.930 . S
H1152 C1165 0.929 . S
H1153 C1163 0.929 . S
H1154 C1158 0.929 . S
H1155 C1164 0.929 . S
C1156 H1150 0.930 . S
C1156 C1157 1.367 . S
C1156 C1164 1.378 . S
C1157 C1156 1.367 . S
C1157 C1165 1.433 . S
C1158 H1154 0.929 . S
C1158 C1160 1.378 . S
C1158 C1162 1.350 . S
C1159 C1162 1.463 1_655 S
C1159 C1164 1.350 . S
C1159 N1167 1.427 . S
C1160 H1151 0.930 . S
C1160 C1158 1.378 . S
C1160 C1161 1.367 . S
C1161 C1160 1.367 . S
C1161 C1163 1.433 . S
C1162 C1158 1.350 . S
C1162 C1159 1.463 1_455 S
C1162 N1166 1.427 . S
C1163 H1153 0.929 . S
C1163 C1161 1.433 . S
C1163 N1166 1.384 . S
C1164 H1155 0.929 . S
C1164 C1156 1.378 . S
C1164 C1159 1.350 . S
C1165 H1152 0.929 . S
C1165 C1157 1.433 . S
C1165 N1167 1.384 . S
N1166 C1162 1.427 . S
N1166 C1163 1.384 . S
N1167 C1159 1.427 . S
N1167 C1165 1.384 . S
H1168 C1174 0.930 . S
H1169 C1178 0.930 . S
H1170 C1183 0.929 . S
H1171 C1181 0.929 . S
H1172 C1176 0.929 . S
H1173 C1182 0.929 . S
C1174 H1168 0.930 . S
C1174 C1175 1.367 . S
C1174 C1182 1.378 . S
C1175 C1174 1.367 . S
C1175 C1183 1.433 . S
C1176 H1172 0.929 . S
C1176 C1178 1.378 . S
C1176 C1180 1.350 . S
C1177 C1180 1.463 . S
C1177 C1182 1.350 . S
C1177 N1185 1.427 . S
C1178 H1169 0.930 . S
C1178 C1176 1.378 . S
C1178 C1179 1.367 . S
C1179 C1178 1.367 . S
C1179 C1181 1.433 . S
C1180 C1176 1.350 . S
C1180 C1177 1.463 . S
C1180 N1184 1.427 . S
C1181 H1171 0.929 . S
C1181 C1179 1.433 . S
C1181 N1184 1.384 . S
C1182 H1173 0.929 . S
C1182 C1174 1.378 . S
C1182 C1177 1.350 . S
C1183 H1170 0.929 . S
C1183 C1175 1.433 . S
C1183 N1185 1.384 . S
N1184 C1180 1.427 . S
N1184 C1181 1.384 . S
N1185 C1177 1.427 . S
N1185 C1183 1.384 . S
H1186 C1192 0.930 . S
H1187 C1196 0.930 . S
H1188 C1201 0.929 . S
H1189 C1199 0.929 . S
H1190 C1194 0.929 . S
H1191 C1200 0.929 . S
C1192 H1186 0.930 . S
C1192 C1193 1.367 . S
C1192 C1200 1.378 . S
C1193 C1192 1.367 . S
C1193 C1201 1.433 . S
C1194 H1190 0.929 . S
C1194 C1196 1.378 . S
C1194 C1198 1.350 . S
C1195 C1198 1.463 . S
C1195 C1200 1.350 . S
C1195 N1203 1.427 . S
C1196 H1187 0.930 . S
C1196 C1194 1.378 . S
C1196 C1197 1.367 . S
C1197 C1196 1.367 . S
C1197 C1199 1.433 . S
C1198 C1194 1.350 . S
C1198 C1195 1.463 . S
C1198 N1202 1.427 . S
C1199 H1189 0.929 . S
C1199 C1197 1.433 . S
C1199 N1202 1.384 . S
C1200 H1191 0.929 . S
C1200 C1192 1.378 . S
C1200 C1195 1.350 . S
C1201 H1188 0.929 . S
C1201 C1193 1.433 . S
C1201 N1203 1.384 . S
N1202 C1198 1.427 . S
N1202 C1199 1.384 . S
N1203 C1195 1.427 . S
N1203 C1201 1.384 . S
H1204 C1210 0.930 . S
H1205 C1214 0.930 . S
H1206 C1219 0.929 . S
H1207 C1217 0.929 . S
H1208 C1212 0.929 . S
H1209 C1218 0.929 . S
C1210 H1204 0.930 . S
C1210 C1211 1.367 . S
C1210 C1218 1.378 . S
C1211 C1210 1.367 . S
C1211 C1219 1.433 . S
C1212 H1208 0.929 . S
C1212 C1214 1.378 . S
C1212 C1216 1.350 . S
C1213 C1216 1.463 . S
C1213 C1218 1.350 . S
C1213 N1221 1.427 . S
C1214 H1205 0.930 . S
C1214 C1212 1.378 . S
C1214 C1215 1.367 . S
C1215 C1214 1.367 . S
C1215 C1217 1.433 . S
C1216 C1212 1.350 . S
C1216 C1213 1.463 . S
C1216 N1220 1.427 . S
C1217 H1207 0.929 . S
C1217 C1215 1.433 . S
C1217 N1220 1.384 . S
C1218 H1209 0.929 . S
C1218 C1210 1.378 . S
C1218 C1213 1.350 . S
C1219 H1206 0.929 . S
C1219 C1211 1.433 . S
C1219 N1221 1.384 . S
N1220 C1216 1.427 . S
N1220 C1217 1.384 . S
N1221 C1213 1.427 . S
N1221 C1219 1.384 . S
H1222 C1228 0.930 . S
H1223 C1232 0.930 . S
H1224 C1237 0.929 . S
H1225 C1235 0.929 . S
H1226 C1230 0.929 . S
H1227 C1236 0.929 . S
C1228 H1222 0.930 . S
C1228 C1229 1.367 . S
C1228 C1236 1.378 . S
C1229 C1228 1.367 . S
C1229 C1237 1.433 . S
C1230 H1226 0.929 . S
C1230 C1232 1.378 . S
C1230 C1234 1.350 . S
C1231 C1234 1.463 . S
C1231 C1236 1.350 . S
C1231 N1239 1.427 . S
C1232 H1223 0.930 . S
C1232 C1230 1.378 . S
C1232 C1233 1.367 . S
C1233 C1232 1.367 . S
C1233 C1235 1.433 . S
C1234 C1230 1.350 . S
C1234 C1231 1.463 . S
C1234 N1238 1.427 . S
C1235 H1225 0.929 . S
C1235 C1233 1.433 . S
C1235 N1238 1.384 . S
C1236 H1227 0.929 . S
C1236 C1228 1.378 . S
C1236 C1231 1.350 . S
C1237 H1224 0.929 . S
C1237 C1229 1.433 . S
C1237 N1239 1.384 . S
N1238 C1234 1.427 . S
N1238 C1235 1.384 . S
N1239 C1231 1.427 . S
N1239 C1237 1.384 . S
H1240 C1246 0.930 . S
H1241 C1250 0.930 . S
H1242 C1255 0.929 . S
H1243 C1253 0.929 . S
H1244 C1248 0.929 . S
H1245 C1254 0.929 . S
C1246 H1240 0.930 . S
C1246 C1247 1.367 . S
C1246 C1254 1.378 . S
C1247 C1246 1.367 . S
C1247 C1255 1.433 . S
C1248 H1244 0.929 . S
C1248 C1250 1.378 . S
C1248 C1252 1.350 . S
C1249 C1252 1.463 . S
C1249 C1254 1.350 . S
C1249 N1257 1.427 . S
C1250 H1241 0.930 . S
C1250 C1248 1.378 . S
C1250 C1251 1.367 . S
C1251 C1250 1.367 . S
C1251 C1253 1.433 . S
C1252 C1248 1.350 . S
C1252 C1249 1.463 . S
C1252 N1256 1.427 . S
C1253 H1243 0.929 . S
C1253 C1251 1.433 . S
C1253 N1256 1.384 . S
C1254 H1245 0.929 . S
C1254 C1246 1.378 . S
C1254 C1249 1.350 . S
C1255 H1242 0.929 . S
C1255 C1247 1.433 . S
C1255 N1257 1.384 . S
N1256 C1252 1.427 . S
N1256 C1253 1.384 . S
N1257 C1249 1.427 . S
N1257 C1255 1.384 . S
H1258 C1264 0.930 . S
H1259 C1268 0.930 . S
H1260 C1273 0.929 . S
H1261 C1271 0.929 . S
H1262 C1266 0.929 . S
H1263 C1272 0.929 . S
C1264 H1258 0.930 . S
C1264 C1265 1.367 . S
C1264 C1272 1.378 . S
C1265 C1264 1.367 . S
C1265 C1273 1.433 . S
C1266 H1262 0.929 . S
C1266 C1268 1.378 . S
C1266 C1270 1.350 . S
C1267 C1270 1.463 1_655 S
C1267 C1272 1.350 . S
C1267 N1275 1.427 . S
C1268 H1259 0.930 . S
C1268 C1266 1.378 . S
C1268 C1269 1.367 . S
C1269 C1268 1.367 . S
C1269 C1271 1.433 . S
C1270 C1266 1.350 . S
C1270 C1267 1.463 1_455 S
C1270 N1274 1.427 . S
C1271 H1261 0.929 . S
C1271 C1269 1.433 . S
C1271 N1274 1.384 . S
C1272 H1263 0.929 . S
C1272 C1264 1.378 . S
C1272 C1267 1.350 . S
C1273 H1260 0.929 . S
C1273 C1265 1.433 . S
C1273 N1275 1.384 . S
N1274 C1270 1.427 . S
N1274 C1271 1.384 . S
N1275 C1267 1.427 . S
N1275 C1273 1.384 . S
H1276 C1282 0.930 . S
H1277 C1286 0.930 . S
H1278 C1291 0.929 . S
H1279 C1289 0.929 . S
H1280 C1284 0.929 . S
H1281 C1290 0.929 . S
C1282 H1276 0.930 . S
C1282 C1283 1.367 . S
C1282 C1290 1.378 . S
C1283 C1282 1.367 . S
C1283 C1291 1.433 . S
C1284 H1280 0.929 . S
C1284 C1286 1.378 . S
C1284 C1288 1.350 . S
C1285 C1288 1.463 1_655 S
C1285 C1290 1.350 . S
C1285 N1293 1.427 . S
C1286 H1277 0.930 . S
C1286 C1284 1.378 . S
C1286 C1287 1.367 . S
C1287 C1286 1.367 . S
C1287 C1289 1.433 . S
C1288 C1284 1.350 . S
C1288 C1285 1.463 1_455 S
C1288 N1292 1.427 . S
C1289 H1279 0.929 . S
C1289 C1287 1.433 . S
C1289 N1292 1.384 . S
C1290 H1281 0.929 . S
C1290 C1282 1.378 . S
C1290 C1285 1.350 . S
C1291 H1278 0.929 . S
C1291 C1283 1.433 . S
C1291 N1293 1.384 . S
N1292 C1288 1.427 . S
N1292 C1289 1.384 . S
N1293 C1285 1.427 . S
N1293 C1291 1.384 . S
H1294 C1300 0.930 . S
H1295 C1304 0.930 . S
H1296 C1309 0.929 . S
H1297 C1307 0.929 . S
H1298 C1302 0.929 . S
H1299 C1308 0.929 . S
C1300 H1294 0.930 . S
C1300 C1301 1.367 . S
C1300 C1308 1.378 . S
C1301 C1300 1.367 . S
C1301 C1309 1.433 . S
C1302 H1298 0.929 . S
C1302 C1304 1.378 . S
C1302 C1306 1.350 . S
C1303 C1306 1.463 . S
C1303 C1308 1.350 . S
C1303 N1311 1.427 . S
C1304 H1295 0.930 . S
C1304 C1302 1.378 . S
C1304 C1305 1.367 . S
C1305 C1304 1.367 . S
C1305 C1307 1.433 . S
C1306 C1302 1.350 . S
C1306 C1303 1.463 . S
C1306 N1310 1.427 . S
C1307 H1297 0.929 . S
C1307 C1305 1.433 . S
C1307 N1310 1.384 . S
C1308 H1299 0.929 . S
C1308 C1300 1.378 . S
C1308 C1303 1.350 . S
C1309 H1296 0.929 . S
C1309 C1301 1.433 . S
C1309 N1311 1.384 . S
N1310 C1306 1.427 . S
N1310 C1307 1.384 . S
N1311 C1303 1.427 . S
N1311 C1309 1.384 . S
H1312 C1318 0.930 . S
H1313 C1322 0.930 . S
H1314 C1327 0.929 . S
H1315 C1325 0.929 . S
H1316 C1320 0.929 . S
H1317 C1326 0.929 . S
C1318 H1312 0.930 . S
C1318 C1319 1.367 . S
C1318 C1326 1.378 . S
C1319 C1318 1.367 . S
C1319 C1327 1.433 . S
C1320 H1316 0.929 . S
C1320 C1322 1.378 . S
C1320 C1324 1.350 . S
C1321 C1324 1.463 . S
C1321 C1326 1.350 . S
C1321 N1329 1.427 . S
C1322 H1313 0.930 . S
C1322 C1320 1.378 . S
C1322 C1323 1.367 . S
C1323 C1322 1.367 . S
C1323 C1325 1.433 . S
C1324 C1320 1.350 . S
C1324 C1321 1.463 . S
C1324 N1328 1.427 . S
C1325 H1315 0.929 . S
C1325 C1323 1.433 . S
C1325 N1328 1.384 . S
C1326 H1317 0.929 . S
C1326 C1318 1.378 . S
C1326 C1321 1.350 . S
C1327 H1314 0.929 . S
C1327 C1319 1.433 . S
C1327 N1329 1.384 . S
N1328 C1324 1.427 . S
N1328 C1325 1.384 . S
N1329 C1321 1.427 . S
N1329 C1327 1.384 . S
H1330 C1336 0.930 . S
H1331 C1340 0.930 . S
H1332 C1345 0.929 . S
H1333 C1343 0.929 . S
H1334 C1338 0.929 . S
H1335 C1344 0.929 . S
C1336 H1330 0.930 . S
C1336 C1337 1.367 . S
C1336 C1344 1.378 . S
C1337 C1336 1.367 . S
C1337 C1345 1.433 . S
C1338 H1334 0.929 . S
C1338 C1340 1.378 . S
C1338 C1342 1.350 . S
C1339 C1342 1.463 . S
C1339 C1344 1.350 . S
C1339 N1347 1.427 . S
C1340 H1331 0.930 . S
C1340 C1338 1.378 . S
C1340 C1341 1.367 . S
C1341 C1340 1.367 . S
C1341 C1343 1.433 . S
C1342 C1338 1.350 . S
C1342 C1339 1.463 . S
C1342 N1346 1.427 . S
C1343 H1333 0.929 . S
C1343 C1341 1.433 . S
C1343 N1346 1.384 . S
C1344 H1335 0.929 . S
C1344 C1336 1.378 . S
C1344 C1339 1.350 . S
C1345 H1332 0.929 . S
C1345 C1337 1.433 . S
C1345 N1347 1.384 . S
N1346 C1342 1.427 . S
N1346 C1343 1.384 . S
N1347 C1339 1.427 . S
N1347 C1345 1.384 . S
H1348 C1354 0.930 1_554 S
H1349 C1358 0.930 . S
H1350 C1363 0.929 . S
H1351 C1361 0.929 . S
H1352 C1356 0.929 . S
H1353 C1362 0.929 . S
C1354 H1348 0.930 1_556 S
C1354 C1355 1.367 . S
C1354 C1362 1.378 . S
C1355 C1354 1.367 . S
C1355 C1363 1.433 . S
C1356 H1352 0.929 . S
C1356 C1358 1.378 . S
C1356 C1360 1.350 . S
C1357 C1360 1.463 . S
C1357 C1362 1.350 . S
C1357 N1365 1.427 . S
C1358 H1349 0.930 . S
C1358 C1356 1.378 . S
C1358 C1359 1.367 . S
C1359 C1358 1.367 . S
C1359 C1361 1.433 . S
C1360 C1356 1.350 . S
C1360 C1357 1.463 . S
C1360 N1364 1.427 . S
C1361 H1351 0.929 . S
C1361 C1359 1.433 . S
C1361 N1364 1.384 . S
C1362 H1353 0.929 . S
C1362 C1354 1.378 . S
C1362 C1357 1.350 . S
C1363 H1350 0.929 . S
C1363 C1355 1.433 . S
C1363 N1365 1.384 . S
N1364 C1360 1.427 . S
N1364 C1361 1.384 . S
N1365 C1357 1.427 . S
N1365 C1363 1.384 . S
H1366 C1372 0.930 1_556 S
H1367 C1376 0.930 . S
H1368 C1381 0.929 . S
H1369 C1379 0.929 . S
H1370 C1374 0.929 . S
H1371 C1380 0.929 . S
C1372 H1366 0.930 1_554 S
C1372 C1373 1.367 . S
C1372 C1380 1.378 . S
C1373 C1372 1.367 . S
C1373 C1381 1.433 . S
C1374 H1370 0.929 . S
C1374 C1376 1.378 . S
C1374 C1378 1.350 . S
C1375 C1378 1.463 . S
C1375 C1380 1.350 . S
C1375 N1383 1.427 . S
C1376 H1367 0.930 . S
C1376 C1374 1.378 . S
C1376 C1377 1.367 . S
C1377 C1376 1.367 . S
C1377 C1379 1.433 . S
C1378 C1374 1.350 . S
C1378 C1375 1.463 . S
C1378 N1382 1.427 . S
C1379 H1369 0.929 . S
C1379 C1377 1.433 . S
C1379 N1382 1.384 . S
C1380 H1371 0.929 . S
C1380 C1372 1.378 . S
C1380 C1375 1.350 . S
C1381 H1368 0.929 . S
C1381 C1373 1.433 . S
C1381 N1383 1.384 . S
N1382 C1378 1.427 . S
N1382 C1379 1.384 . S
N1383 C1375 1.427 . S
N1383 C1381 1.384 . S
H1384 C1390 0.930 . S
H1385 C1394 0.930 . S
H1386 C1399 0.929 . S
H1387 C1397 0.929 . S
H1388 C1392 0.929 . S
H1389 C1398 0.929 . S
C1390 H1384 0.930 . S
C1390 C1391 1.367 . S
C1390 C1398 1.378 . S
C1391 C1390 1.367 . S
C1391 C1399 1.433 . S
C1392 H1388 0.929 . S
C1392 C1394 1.378 . S
C1392 C1396 1.350 . S
C1393 C1396 1.463 . S
C1393 C1398 1.350 . S
C1393 N1401 1.427 . S
C1394 H1385 0.930 . S
C1394 C1392 1.378 . S
C1394 C1395 1.367 . S
C1395 C1394 1.367 . S
C1395 C1397 1.433 . S
C1396 C1392 1.350 . S
C1396 C1393 1.463 . S
C1396 N1400 1.427 . S
C1397 H1387 0.929 . S
C1397 C1395 1.433 . S
C1397 N1400 1.384 . S
C1398 H1389 0.929 . S
C1398 C1390 1.378 . S
C1398 C1393 1.350 . S
C1399 H1386 0.929 . S
C1399 C1391 1.433 . S
C1399 N1401 1.384 . S
N1400 C1396 1.427 . S
N1400 C1397 1.384 . S
N1401 C1393 1.427 . S
N1401 C1399 1.384 . S
H1402 C1408 0.930 . S
H1403 C1412 0.930 . S
H1404 C1417 0.929 . S
H1405 C1415 0.929 . S
H1406 C1410 0.929 . S
H1407 C1416 0.929 . S
C1408 H1402 0.930 . S
C1408 C1409 1.367 . S
C1408 C1416 1.378 . S
C1409 C1408 1.367 . S
C1409 C1417 1.433 . S
C1410 H1406 0.929 . S
C1410 C1412 1.378 . S
C1410 C1414 1.350 . S
C1411 C1414 1.463 . S
C1411 C1416 1.350 . S
C1411 N1419 1.427 . S
C1412 H1403 0.930 . S
C1412 C1410 1.378 . S
C1412 C1413 1.367 . S
C1413 C1412 1.367 . S
C1413 C1415 1.433 . S
C1414 C1410 1.350 . S
C1414 C1411 1.463 . S
C1414 N1418 1.427 . S
C1415 H1405 0.929 . S
C1415 C1413 1.433 . S
C1415 N1418 1.384 . S
C1416 H1407 0.929 . S
C1416 C1408 1.378 . S
C1416 C1411 1.350 . S
C1417 H1404 0.929 . S
C1417 C1409 1.433 . S
C1417 N1419 1.384 . S
N1418 C1414 1.427 . S
N1418 C1415 1.384 . S
N1419 C1411 1.427 . S
N1419 C1417 1.384 . S
H1420 C1426 0.930 . S
H1421 C1430 0.930 1_556 S
H1422 C1435 0.929 . S
H1423 C1433 0.929 . S
H1424 C1428 0.929 . S
H1425 C1434 0.929 . S
C1426 H1420 0.930 . S
C1426 C1427 1.367 . S
C1426 C1434 1.378 . S
C1427 C1426 1.367 . S
C1427 C1435 1.433 . S
C1428 H1424 0.929 . S
C1428 C1430 1.378 . S
C1428 C1432 1.350 . S
C1429 C1432 1.463 . S
C1429 C1434 1.350 . S
C1429 N1437 1.427 . S
C1430 H1421 0.930 1_554 S
C1430 C1428 1.378 . S
C1430 C1431 1.367 . S
C1431 C1430 1.367 . S
C1431 C1433 1.433 . S
C1432 C1428 1.350 . S
C1432 C1429 1.463 . S
C1432 N1436 1.427 . S
C1433 H1423 0.929 . S
C1433 C1431 1.433 . S
C1433 N1436 1.384 . S
C1434 H1425 0.929 . S
C1434 C1426 1.378 . S
C1434 C1429 1.350 . S
C1435 H1422 0.929 . S
C1435 C1427 1.433 . S
C1435 N1437 1.384 . S
N1436 C1432 1.427 . S
N1436 C1433 1.384 . S
N1437 C1429 1.427 . S
N1437 C1435 1.384 . S
H1438 C1444 0.930 . S
H1439 C1448 0.930 . S
H1440 C1453 0.929 . S
H1441 C1451 0.929 1_554 S
H1442 C1446 0.929 . S
H1443 C1452 0.929 . S
C1444 H1438 0.930 . S
C1444 C1445 1.367 . S
C1444 C1452 1.378 . S
C1445 C1444 1.367 . S
C1445 C1453 1.433 . S
C1446 H1442 0.929 . S
C1446 C1448 1.378 . S
C1446 C1450 1.350 . S
C1447 C1450 1.463 . S
C1447 C1452 1.350 . S
C1447 N1455 1.427 . S
C1448 H1439 0.930 . S
C1448 C1446 1.378 . S
C1448 C1449 1.367 . S
C1449 C1448 1.367 . S
C1449 C1451 1.433 . S
C1450 C1446 1.350 . S
C1450 C1447 1.463 . S
C1450 N1454 1.427 . S
C1451 H1441 0.929 1_556 S
C1451 C1449 1.433 . S
C1451 N1454 1.384 . S
C1452 H1443 0.929 . S
C1452 C1444 1.378 . S
C1452 C1447 1.350 . S
C1453 H1440 0.929 . S
C1453 C1445 1.433 . S
C1453 N1455 1.384 . S
N1454 C1450 1.427 . S
N1454 C1451 1.384 . S
N1455 C1447 1.427 . S
N1455 C1453 1.384 . S
H1456 C1462 0.930 . S
H1457 C1466 0.930 . S
H1458 C1471 0.929 1_554 S
H1459 C1469 0.929 . S
H1460 C1464 0.929 . S
H1461 C1470 0.929 . S
C1462 H1456 0.930 . S
C1462 C1463 1.367 . S
C1462 C1470 1.378 . S
C1463 C1462 1.367 . S
C1463 C1471 1.433 . S
C1464 H1460 0.929 . S
C1464 C1466 1.378 . S
C1464 C1468 1.350 . S
C1465 C1468 1.463 . S
C1465 C1470 1.350 . S
C1465 N1473 1.427 . S
C1466 H1457 0.930 . S
C1466 C1464 1.378 . S
C1466 C1467 1.367 . S
C1467 C1466 1.367 . S
C1467 C1469 1.433 . S
C1468 C1464 1.350 . S
C1468 C1465 1.463 . S
C1468 N1472 1.427 . S
C1469 H1459 0.929 . S
C1469 C1467 1.433 . S
C1469 N1472 1.384 . S
C1470 H1461 0.929 . S
C1470 C1462 1.378 . S
C1470 C1465 1.350 . S
C1471 H1458 0.929 1_556 S
C1471 C1463 1.433 . S
C1471 N1473 1.384 . S
N1472 C1468 1.427 . S
N1472 C1469 1.384 . S
N1473 C1465 1.427 . S
N1473 C1471 1.384 . S
H1474 C1480 0.930 . S
H1475 C1484 0.930 . S
H1476 C1489 0.929 . S
H1477 C1487 0.929 . S
H1478 C1482 0.929 . S
H1479 C1488 0.929 . S
C1480 H1474 0.930 . S
C1480 C1481 1.367 . S
C1480 C1488 1.378 . S
C1481 C1480 1.367 . S
C1481 C1489 1.433 . S
C1482 H1478 0.929 . S
C1482 C1484 1.378 . S
C1482 C1486 1.350 . S
C1483 C1486 1.463 . S
C1483 C1488 1.350 . S
C1483 N1491 1.427 . S
C1484 H1475 0.930 . S
C1484 C1482 1.378 . S
C1484 C1485 1.367 . S
C1485 C1484 1.367 . S
C1485 C1487 1.433 . S
C1486 C1482 1.350 . S
C1486 C1483 1.463 . S
C1486 N1490 1.427 . S
C1487 H1477 0.929 . S
C1487 C1485 1.433 . S
C1487 N1490 1.384 . S
C1488 H1479 0.929 . S
C1488 C1480 1.378 . S
C1488 C1483 1.350 . S
C1489 H1476 0.929 . S
C1489 C1481 1.433 . S
C1489 N1491 1.384 . S
N1490 C1486 1.427 . S
N1490 C1487 1.384 . S
N1491 C1483 1.427 . S
N1491 C1489 1.384 . S
H1492 C1498 0.930 . S
H1493 C1502 0.930 . S
H1494 C1507 0.929 . S
H1495 C1505 0.929 . S
H1496 C1500 0.929 . S
H1497 C1506 0.929 . S
C1498 H1492 0.930 . S
C1498 C1499 1.367 . S
C1498 C1506 1.378 . S
C1499 C1498 1.367 . S
C1499 C1507 1.433 . S
C1500 H1496 0.929 . S
C1500 C1502 1.378 . S
C1500 C1504 1.350 . S
C1501 C1504 1.463 . S
C1501 C1506 1.350 . S
C1501 N1509 1.427 . S
C1502 H1493 0.930 . S
C1502 C1500 1.378 . S
C1502 C1503 1.367 . S
C1503 C1502 1.367 . S
C1503 C1505 1.433 . S
C1504 C1500 1.350 . S
C1504 C1501 1.463 . S
C1504 N1508 1.427 . S
C1505 H1495 0.929 . S
C1505 C1503 1.433 . S
C1505 N1508 1.384 . S
C1506 H1497 0.929 . S
C1506 C1498 1.378 . S
C1506 C1501 1.350 . S
C1507 H1494 0.929 . S
C1507 C1499 1.433 . S
C1507 N1509 1.384 . S
N1508 C1504 1.427 . S
N1508 C1505 1.384 . S
N1509 C1501 1.427 . S
N1509 C1507 1.384 . S
H1510 C1516 0.930 . S
H1511 C1520 0.930 . S
H1512 C1525 0.929 . S
H1513 C1523 0.929 . S
H1514 C1518 0.929 . S
H1515 C1524 0.929 . S
C1516 H1510 0.930 . S
C1516 C1517 1.367 . S
C1516 C1524 1.378 . S
C1517 C1516 1.367 . S
C1517 C1525 1.433 . S
C1518 H1514 0.929 . S
C1518 C1520 1.378 . S
C1518 C1522 1.350 . S
C1519 C1522 1.463 . S
C1519 C1524 1.350 . S
C1519 N1527 1.427 . S
C1520 H1511 0.930 . S
C1520 C1518 1.378 . S
C1520 C1521 1.367 . S
C1521 C1520 1.367 . S
C1521 C1523 1.433 . S
C1522 C1518 1.350 . S
C1522 C1519 1.463 . S
C1522 N1526 1.427 . S
C1523 H1513 0.929 . S
C1523 C1521 1.433 . S
C1523 N1526 1.384 . S
C1524 H1515 0.929 . S
C1524 C1516 1.378 . S
C1524 C1519 1.350 . S
C1525 H1512 0.929 . S
C1525 C1517 1.433 . S
C1525 N1527 1.384 . S
N1526 C1522 1.427 . S
N1526 C1523 1.384 . S
N1527 C1519 1.427 . S
N1527 C1525 1.384 . S
H1528 C1534 0.930 . S
H1529 C1538 0.930 1_556 S
H1530 C1543 0.929 . S
H1531 C1541 0.929 . S
H1532 C1536 0.929 . S
H1533 C1542 0.929 . S
C1534 H1528 0.930 . S
C1534 C1535 1.367 . S
C1534 C1542 1.378 . S
C1535 C1534 1.367 . S
C1535 C1543 1.433 . S
C1536 H1532 0.929 . S
C1536 C1538 1.378 . S
C1536 C1540 1.350 . S
C1537 C1540 1.463 . S
C1537 C1542 1.350 . S
C1537 N1545 1.427 . S
C1538 H1529 0.930 1_554 S
C1538 C1536 1.378 . S
C1538 C1539 1.367 . S
C1539 C1538 1.367 . S
C1539 C1541 1.433 . S
C1540 C1536 1.350 . S
C1540 C1537 1.463 . S
C1540 N1544 1.427 . S
C1541 H1531 0.929 . S
C1541 C1539 1.433 . S
C1541 N1544 1.384 . S
C1542 H1533 0.929 . S
C1542 C1534 1.378 . S
C1542 C1537 1.350 . S
C1543 H1530 0.929 . S
C1543 C1535 1.433 . S
C1543 N1545 1.384 . S
N1544 C1540 1.427 . S
N1544 C1541 1.384 . S
N1545 C1537 1.427 . S
N1545 C1543 1.384 . S
H1546 C1552 0.930 . S
H1547 C1556 0.930 . S
H1548 C1561 0.929 1_554 S
H1549 C1559 0.929 . S
H1550 C1554 0.929 . S
H1551 C1560 0.929 . S
C1552 H1546 0.930 . S
C1552 C1553 1.367 . S
C1552 C1560 1.378 . S
C1553 C1552 1.367 . S
C1553 C1561 1.433 . S
C1554 H1550 0.929 . S
C1554 C1556 1.378 . S
C1554 C1558 1.350 . S
C1555 C1558 1.463 . S
C1555 C1560 1.350 . S
C1555 N1563 1.427 . S
C1556 H1547 0.930 . S
C1556 C1554 1.378 . S
C1556 C1557 1.367 . S
C1557 C1556 1.367 . S
C1557 C1559 1.433 . S
C1558 C1554 1.350 . S
C1558 C1555 1.463 . S
C1558 N1562 1.427 . S
C1559 H1549 0.929 . S
C1559 C1557 1.433 . S
C1559 N1562 1.384 . S
C1560 H1551 0.929 . S
C1560 C1552 1.378 . S
C1560 C1555 1.350 . S
C1561 H1548 0.929 1_556 S
C1561 C1553 1.433 . S
C1561 N1563 1.384 . S
N1562 C1558 1.427 . S
N1562 C1559 1.384 . S
N1563 C1555 1.427 . S
N1563 C1561 1.384 . S
H1564 C1570 0.930 . S
H1565 C1574 0.930 . S
H1566 C1579 0.929 . S
H1567 C1577 0.929 . S
H1568 C1572 0.929 . S
H1569 C1578 0.929 . S
C1570 H1564 0.930 . S
C1570 C1571 1.367 . S
C1570 C1578 1.378 . S
C1571 C1570 1.367 . S
C1571 C1579 1.433 . S
C1572 H1568 0.929 . S
C1572 C1574 1.378 . S
C1572 C1576 1.350 . S
C1573 C1576 1.463 . S
C1573 C1578 1.350 . S
C1573 N1581 1.427 . S
C1574 H1565 0.930 . S
C1574 C1572 1.378 . S
C1574 C1575 1.367 . S
C1575 C1574 1.367 . S
C1575 C1577 1.433 . S
C1576 C1572 1.350 . S
C1576 C1573 1.463 . S
C1576 N1580 1.427 . S
C1577 H1567 0.929 . S
C1577 C1575 1.433 . S
C1577 N1580 1.384 . S
C1578 H1569 0.929 . S
C1578 C1570 1.378 . S
C1578 C1573 1.350 . S
C1579 H1566 0.929 . S
C1579 C1571 1.433 . S
C1579 N1581 1.384 . S
N1580 C1576 1.427 . S
N1580 C1577 1.384 . S
N1581 C1573 1.427 . S
N1581 C1579 1.384 . S
H1582 C1588 0.930 . S
H1583 C1592 0.930 . S
H1584 C1597 0.929 . S
H1585 C1595 0.929 . S
H1586 C1590 0.929 . S
H1587 C1596 0.929 . S
C1588 H1582 0.930 . S
C1588 C1589 1.367 . S
C1588 C1596 1.378 . S
C1589 C1588 1.367 . S
C1589 C1597 1.433 . S
C1590 H1586 0.929 . S
C1590 C1592 1.378 . S
C1590 C1594 1.350 . S
C1591 C1594 1.463 . S
C1591 C1596 1.350 . S
C1591 N1599 1.427 . S
C1592 H1583 0.930 . S
C1592 C1590 1.378 . S
C1592 C1593 1.367 . S
C1593 C1592 1.367 . S
C1593 C1595 1.433 . S
C1594 C1590 1.350 . S
C1594 C1591 1.463 . S
C1594 N1598 1.427 . S
C1595 H1585 0.929 . S
C1595 C1593 1.433 . S
C1595 N1598 1.384 . S
C1596 H1587 0.929 . S
C1596 C1588 1.378 . S
C1596 C1591 1.350 . S
C1597 H1584 0.929 . S
C1597 C1589 1.433 . S
C1597 N1599 1.384 . S
N1598 C1594 1.427 . S
N1598 C1595 1.384 . S
N1599 C1591 1.427 . S
N1599 C1597 1.384 . S
C455 C89 1.486 . S
C459 C5 1.488 . S
C473 C19 1.488 . S
C477 C103 1.489 . S
C491 C61 1.486 . S
C495 C33 1.488 . S
C509 C47 1.488 . S
C513 C75 1.489 . S
C527 C117 1.487 . S
C531 C201 1.489 . S
C545 C215 1.489 . S
C549 C131 1.488 . S
C563 C145 1.487 . S
C567 C173 1.489 . S
C581 C187 1.488 . S
C585 C159 1.486 . S
C599 C229 1.486 . S
C603 C313 1.488 . S
C617 C243 1.487 . S
C621 C327 1.486 . S
C635 C285 1.486 . S
C639 C257 1.488 . S
C653 C299 1.487 . S
C657 C271 1.486 . S
C671 C341 1.488 . S
C675 C425 1.486 . S
C689 C355 1.489 . S
C693 C439 1.488 . S
C707 C397 1.489 . S
C711 C369 1.487 . S
C725 C383 1.489 . S
C729 C411 1.487 . S
C743 C11 1.472 1_556 S
C747 C109 1.474 . S
C761 C67 1.473 1_554 S
C765 C25 1.473 . S
C779 C81 1.474 . S
C783 C39 1.469 . S
C797 C53 1.474 . S
C801 C95 1.470 . S
C815 C123 1.470 1_554 S
C819 C221 1.474 . S
C833 C179 1.471 1_556 S
C837 C137 1.474 . S
C851 C193 1.474 . S
C855 C151 1.472 . S
C869 C207 1.470 . S
C873 C165 1.474 . S
C887 C235 1.471 . S
C891 C333 1.470 . S
C905 C249 1.469 . S
C909 C291 1.472 . S
C923 C305 1.474 . S
C927 C263 1.469 1_556 S
C941 C277 1.469 . S
C945 C319 1.474 1_554 S
C959 C347 1.469 . S
C963 C445 1.472 . S
C977 C403 1.470 . S
C981 C361 1.471 . S
C995 C375 1.474 1_554 S
C999 C417 1.470 . S
C1013 C389 1.472 . S
C1017 C431 1.474 1_556 S
C1031 C420 1.482 . S
C1035 C0 1.481 . S
C1049 C210 1.478 . S
C1053 C14 1.486 . S
C1067 C28 1.487 . S
C1071 C392 1.477 . S
C1085 C42 1.486 . S
C1089 C182 1.478 . S
C1103 C56 1.477 . S
C1107 C364 1.486 . S
C1121 C70 1.479 . S
C1125 C154 1.484 . S
C1139 C84 1.485 . S
C1143 C336 1.479 . S
C1157 C126 1.485 . S
C1161 C98 1.478 . S
C1175 C308 1.486 . S
C1179 C112 1.478 . S
C1193 C140 1.477 . S
C1197 C280 1.487 . S
C1211 C252 1.487 . S
C1215 C168 1.477 . S
C1229 C224 1.477 . S
C1233 C196 1.486 . S
C1247 C238 1.477 . S
C1251 C434 1.487 . S
C1265 C266 1.477 . S
C1269 C406 1.487 . S
C1283 C294 1.487 . S
C1287 C378 1.477 . S
C1301 C350 1.486 . S
C1305 C322 1.478 . S
C1319 C9 1.482 . S
C1323 C107 1.482 . S
C1337 C23 1.482 . S
C1341 C65 1.482 . S
C1355 C79 1.482 1_556 S
C1359 C37 1.482 . S
C1373 C51 1.482 1_554 S
C1377 C93 1.482 . S
C1391 C219 1.482 . S
C1395 C121 1.482 . S
C1409 C177 1.482 . S
C1413 C135 1.482 . S
C1427 C149 1.482 . S
C1431 C191 1.482 1_554 S
C1445 C205 1.482 . S
C1449 C163 1.482 1_556 S
C1463 C331 1.482 1_556 S
C1467 C233 1.482 . S
C1481 C289 1.482 . S
C1485 C247 1.482 1_554 S
C1499 C303 1.482 . S
C1503 C261 1.482 . S
C1517 C317 1.482 . S
C1521 C275 1.482 . S
C1535 C345 1.482 . S
C1539 C443 1.482 1_554 S
C1553 C359 1.482 1_556 S
C1557 C401 1.482 . S
C1571 C373 1.482 . S
C1575 C415 1.482 . S
C1589 C429 1.482 . S
C1593 C387 1.482 . S
