# Generated by pormake.
# Topology crb, (4)-cn, num edge types: 1
# Building blocks:
#     Node 0, Type 0, BuildingBlock: NAHDIM_clean_sbu_0, # of connection points: 4
#     Node 1, Type 0, BuildingBlock: NAHDIM_clean_sbu_0, # of connection points: 4
#     Node 2, Type 0, BuildingBlock: NAHDIM_clean_sbu_0, # of connection points: 4
#     Node 3, Type 0, BuildingBlock: NAHDIM_clean_sbu_0, # of connection points: 4
#     Node 4, Type 0, BuildingBlock: NAHDIM_clean_sbu_0, # of connection points: 4
#     Node 5, Type 0, BuildingBlock: NAHDIM_clean_sbu_0, # of connection points: 4
#     Node 6, Type 0, BuildingBlock: NAHDIM_clean_sbu_0, # of connection points: 4
#     Node 7, Type 0, BuildingBlock: NAHDIM_clean_sbu_0, # of connection points: 4
#     Edge 8, Type (0, 0), BuildingBlock: CIFDUS_clean_linker_0, # of connection points: 2
#     Edge 9, Type (0, 0), BuildingBlock: CIFDUS_clean_linker_0, # of connection points: 2
#     Edge 10, Type (0, 0), BuildingBlock: CIFDUS_clean_linker_0, # of connection points: 2
#     Edge 11, Type (0, 0), BuildingBlock: CIFDUS_clean_linker_0, # of connection points: 2
#     Edge 12, Type (0, 0), BuildingBlock: CIFDUS_clean_linker_0, # of connection points: 2
#     Edge 13, Type (0, 0), BuildingBlock: CIFDUS_clean_linker_0, # of connection points: 2
#     Edge 14, Type (0, 0), BuildingBlock: CIFDUS_clean_linker_0, # of connection points: 2
#     Edge 15, Type (0, 0), BuildingBlock: CIFDUS_clean_linker_0, # of connection points: 2
#     Edge 16, Type (0, 0), BuildingBlock: CIFDUS_clean_linker_0, # of connection points: 2
#     Edge 17, Type (0, 0), BuildingBlock: CIFDUS_clean_linker_0, # of connection points: 2
#     Edge 18, Type (0, 0), BuildingBlock: CIFDUS_clean_linker_0, # of connection points: 2
#     Edge 19, Type (0, 0), BuildingBlock: CIFDUS_clean_linker_0, # of connection points: 2
#     Edge 20, Type (0, 0), BuildingBlock: CIFDUS_clean_linker_0, # of connection points: 2
#     Edge 21, Type (0, 0), BuildingBlock: CIFDUS_clean_linker_0, # of connection points: 2
#     Edge 22, Type (0, 0), BuildingBlock: CIFDUS_clean_linker_0, # of connection points: 2
#     Edge 23, Type (0, 0), BuildingBlock: CIFDUS_clean_linker_0, # of connection points: 2
# Relax obj value: 0.033
# Max RMSD: 0.066
# Mean RMSD: 0.066
data_MOF--net-crb--node1-NAHDIM_clean_sbu_0--edge1-CIFDUS_clean_linker_0
_symmetry_space_group_name_H-M    P1
_symmetry_Int_Tables_number       1
_symmetry_cell_setting            triclinic
loop_
_symmetry_equiv_pos_as_xyz
'x, y, z'
_cell_length_a     36.836882
_cell_length_b     38.546806
_cell_length_c     21.764113
_cell_angle_alpha  90.275013
_cell_angle_beta   90.077536
_cell_angle_gamma 90.016251
loop_
_atom_site_label
_atom_site_type_symbol
_atom_site_fract_x
_atom_site_fract_y
_atom_site_fract_z
_atom_type_partial_charge
C0 C 0.29245 0.26965 0.16464 0.0
O1 O 0.3005 0.24869 0.11887 0.0
O2 O 0.37016 0.31563 0.07659 0.0
Zn3 Zn 0.31607 0.32253 0.07967 0.0
O4 O 0.29396 0.29766 0.00673 0.0
C5 C 0.31438 0.39533 0.03933 0.0
O6 O 0.32795 0.38339 0.98762 0.0
O7 O 0.29691 0.3021 0.15805 0.0
C8 C 0.27107 0.31007 0.9691 0.0
O9 O 0.25887 0.34176 0.97741 0.0
C10 C 0.38629 0.31512 0.025 0.0
O11 O 0.36712 0.31838 0.97443 0.0
O12 O 0.3064 0.3742 0.08193 0.0
C13 C 0.67019 0.28971 0.90586 0.0
O14 O 0.64196 0.27671 0.93447 0.0
O15 O 0.61665 0.32317 0.02064 0.0
Zn16 Zn 0.6705 0.33227 0.01281 0.0
O17 O 0.69886 0.30489 0.07514 0.0
C18 C 0.65852 0.40025 0.06047 0.0
O19 O 0.63355 0.38293 0.0905 0.0
O20 O 0.68705 0.3152 0.92983 0.0
C21 C 0.70263 0.31343 0.1312 0.0
O22 O 0.68735 0.34201 0.15162 0.0
C23 C 0.60129 0.30857 0.06595 0.0
O24 O 0.621 0.29786 0.11244 0.0
O25 O 0.67898 0.38397 0.02312 0.0
C26 C 0.7119 0.71719 0.14331 0.0
O27 O 0.68115 0.73276 0.13016 0.0
O28 O 0.64066 0.68513 0.04552 0.0
Zn29 Zn 0.6944 0.67667 0.03527 0.0
O30 O 0.71275 0.70408 0.96318 0.0
C31 C 0.68597 0.60577 0.06181 0.0
O32 O 0.66791 0.62016 0.1073 0.0
O33 O 0.72245 0.69206 0.10987 0.0
C34 C 0.72568 0.69027 0.91483 0.0
O35 O 0.7271 0.6563 0.9104 0.0
C36 C 0.62077 0.68346 -0.00218 0.0
O37 O 0.63614 0.67757 0.94434 0.0
O38 O 0.70137 0.62529 0.02284 0.0
C39 C 0.31112 0.69742 0.90518 0.0
O40 O 0.32582 0.66838 0.88549 0.0
O41 O 0.38973 0.68235 0.02596 0.0
Zn42 Zn 0.33558 0.67489 0.02632 0.0
O43 O 0.31372 0.69007 0.10675 0.0
C44 C 0.32548 0.60204 0.05214 0.0
O45 O 0.33075 0.61263 0.10892 0.0
O46 O 0.31251 0.70485 0.96202 0.0
C47 C 0.28132 0.68147 0.11969 0.0
O48 O 0.26332 0.66121 0.08168 0.0
C49 C 0.40881 0.68168 0.07466 0.0
O50 O 0.39273 0.67681 0.12777 0.0
O51 O 0.32578 0.62415 0.00898 0.0
C52 C 0.80236 0.78262 0.61387 0.0
O53 O 0.81034 0.76845 0.56057 0.0
O54 O 0.87649 0.84495 0.545 0.0
Zn55 Zn 0.82165 0.84388 0.54805 0.0
O56 O 0.79761 0.82473 0.47152 0.0
C57 C 0.79895 0.91165 0.51091 0.0
O58 O 0.79988 0.89654 0.45671 0.0
O59 O 0.80521 0.81533 0.62027 0.0
C60 C 0.81184 0.80663 0.429 0.0
O61 O 0.84648 0.79878 0.4318 0.0
C62 C 0.89853 0.81956 0.54523 0.0
O63 O 0.88603 0.78766 0.54464 0.0
O64 O 0.80614 0.8938 0.55842 0.0
C65 C 0.20434 0.78259 0.41253 0.0
O66 O 0.18117 0.76334 0.44309 0.0
O67 O 0.13711 0.8146 0.51421 0.0
Zn68 Zn 0.19067 0.82631 0.51446 0.0
O69 O 0.21568 0.79726 0.57802 0.0
C70 C 0.17578 0.89969 0.51156 0.0
O71 O 0.14796 0.88902 0.47871 0.0
O72 O 0.21245 0.81246 0.43339 0.0
C73 C 0.21762 0.80494 0.63471 0.0
O74 O 0.20255 0.83377 0.6546 0.0
C75 C 0.115 0.82831 0.55197 0.0
O76 O 0.12711 0.85058 0.59303 0.0
O77 O 0.19861 0.8776 0.53115 0.0
C78 C 0.19962 0.22628 0.65456 0.0
O79 O 0.1815 0.24155 0.61021 0.0
O80 O 0.13063 0.18649 0.57566 0.0
Zn81 Zn 0.18272 0.17083 0.57644 0.0
O82 O 0.20693 0.18777 0.49901 0.0
C83 C 0.15632 0.1009 0.59367 0.0
O84 O 0.12713 0.11761 0.6117 0.0
O85 O 0.2055 0.19382 0.65053 0.0
C86 C 0.21146 0.16793 0.4528 0.0
O87 O 0.20071 0.13549 0.45595 0.0
C88 C 0.10891 0.1816 0.5311 0.0
O89 O 0.12055 0.16569 0.48138 0.0
O90 O 0.18458 0.11812 0.57964 0.0
C91 C 0.79479 0.20536 0.40152 0.0
O92 O 0.81899 0.183 0.38143 0.0
O93 O 0.87039 0.18475 0.50506 0.0
Zn94 Zn 0.817 0.18264 0.52338 0.0
O95 O 0.80466 0.20567 0.60355 0.0
C96 C 0.80863 0.11497 0.57384 0.0
O97 O 0.82279 0.13081 0.62179 0.0
O98 O 0.78951 0.20847 0.45887 0.0
C99 C 0.7713 0.20515 0.61816 0.0
O100 O 0.74828 0.1888 0.58205 0.0
C101 C 0.89347 0.19926 0.54014 0.0
O102 O 0.88232 0.21465 0.59068 0.0
O103 O 0.80253 0.13231 0.52537 0.0
H104 H 0.32148 0.44729 0.95569 0.0
H105 H 0.30114 0.42854 0.14802 0.0
H106 H 0.30169 0.49079 0.16846 0.0
H107 H 0.31096 0.55041 0.13291 0.0
H108 H 0.33 0.56958 0.94043 0.0
H109 H 0.32676 0.50737 0.91893 0.0
C110 C 0.31694 0.45682 0.00201 0.0
C111 C 0.31157 0.43321 0.05027 0.0
C112 C 0.3172 0.49275 0.01352 0.0
C113 C 0.30538 0.44607 0.10994 0.0
C114 C 0.3058 0.4817 0.12178 0.0
C115 C 0.31427 0.54101 0.0862 0.0
C116 C 0.32106 0.5646 0.03848 0.0
C117 C 0.31219 0.50524 0.0741 0.0
C118 C 0.32482 0.55199 0.97808 0.0
C119 C 0.32306 0.5164 0.96575 0.0
H120 H 0.43309 0.29927 0.11761 0.0
H121 H 0.42935 0.32581 0.92517 0.0
H122 H 0.49548 0.32508 0.9206 0.0
H123 H 0.5543 0.31903 0.97184 0.0
H124 H 0.55847 0.29159 0.16379 0.0
H125 H 0.49219 0.29034 0.16776 0.0
C126 C 0.44675 0.30479 0.07463 0.0
C127 C 0.4263 0.31281 0.02194 0.0
C128 C 0.48483 0.30421 0.0722 0.0
C129 C 0.4444 0.31958 0.96646 0.0
C130 C 0.48224 0.31925 0.96378 0.0
C131 C 0.54074 0.31268 0.01455 0.0
C132 C 0.56129 0.30569 0.06755 0.0
C133 C 0.50271 0.31193 0.01648 0.0
C134 C 0.54329 0.29713 0.12232 0.0
C135 C 0.50539 0.29649 0.12469 0.0
H136 H 0.69896 0.44641 0.99432 0.0
H137 H 0.6256 0.43929 0.14838 0.0
H138 H 0.62874 0.50181 0.16336 0.0
H139 H 0.65064 0.55862 0.13148 0.0
H140 H 0.72279 0.56702 0.97617 0.0
H141 H 0.72186 0.50394 0.96314 0.0
C142 C 0.68384 0.45855 0.03134 0.0
C143 C 0.66201 0.43815 0.07003 0.0
C144 C 0.68545 0.49476 0.03945 0.0
C145 C 0.64249 0.45431 0.11768 0.0
C146 C 0.64426 0.49011 0.12639 0.0
C147 C 0.66634 0.54672 0.09489 0.0
C148 C 0.68671 0.56755 0.05486 0.0
C149 C 0.6654 0.5106 0.08731 0.0
C150 C 0.70681 0.55161 0.00763 0.0
C151 C 0.70628 0.51553 0.00012 0.0
H152 H 0.45028 0.68592 0.97172 0.0
H153 H 0.45748 0.68366 0.16967 0.0
H154 H 0.52365 0.68563 0.16357 0.0
H155 H 0.57959 0.68575 0.10186 0.0
H156 H 0.57194 0.68663 0.90388 0.0
H157 H 0.50588 0.68758 0.91034 0.0
C158 C 0.46626 0.68605 0.01361 0.0
C159 C 0.44887 0.68454 0.07105 0.0
C160 C 0.50429 0.68685 0.0098 0.0
C161 C 0.4701 0.6847 0.1248 0.0
C162 C 0.50799 0.68582 0.12138 0.0
C163 C 0.56348 0.6864 0.06013 0.0
C164 C 0.58075 0.68603 0.00248 0.0
C165 C 0.52539 0.68657 0.0641 0.0
C166 C 0.55942 0.68677 0.94888 0.0
C167 C 0.52159 0.68731 0.95249 0.0
H168 H 0.80784 0.95295 0.61179 0.0
H169 H 0.77855 0.95581 0.41972 0.0
H170 H 0.77625 0.01901 0.42348 0.0
H171 H 0.78709 0.07351 0.47901 0.0
H172 H 0.8182 0.07081 0.67025 0.0
H173 H 0.81498 0.00758 0.66907 0.0
C174 C 0.80052 0.96736 0.57093 0.0
C175 C 0.79366 0.94964 0.51546 0.0
C176 C 0.7998 0.00379 0.57309 0.0
C177 C 0.78421 0.96877 0.46296 0.0
C178 C 0.78293 0.00495 0.46499 0.0
C179 C 0.79282 0.05914 0.52063 0.0
C180 C 0.80317 0.07691 0.57446 0.0
C181 C 0.7914 0.02275 0.51947 0.0
C182 C 0.81039 0.05782 0.62801 0.0
C183 C 0.80859 0.02162 0.62741 0.0
H184 H 0.05963 0.86988 0.58744 0.0
H185 H 0.08251 0.77044 0.50455 0.0
H186 H 0.01741 0.75848 0.49603 0.0
H187 H 0.95385 0.77654 0.51207 0.0
H188 H 0.93161 0.87779 0.58865 0.0
H189 H 0.99651 0.88884 0.59952 0.0
C190 C 0.05034 0.84551 0.56784 0.0
C191 C 0.07575 0.82094 0.5472 0.0
C192 C 0.01298 0.83921 0.56173 0.0
C193 C 0.06339 0.78974 0.52084 0.0
C194 C 0.02621 0.78289 0.516 0.0
C195 C 0.96328 0.80098 0.53115 0.0
C196 C 0.93797 0.82623 0.54974 0.0
C197 C 0.00073 0.80746 0.53625 0.0
C198 C 0.95054 0.85797 0.57376 0.0
C199 C 0.98765 0.86428 0.5802 0.0
H200 H 0.21269 0.05524 0.58137 0.0
H201 H 0.09568 0.06162 0.57968 0.0
H202 H 0.09159 0.00031 0.5531 0.0
H203 H 0.12094 0.94514 0.52764 0.0
H204 H 0.23753 0.93677 0.53563 0.0
H205 H 0.24216 0.9985 0.56238 0.0
C206 C 0.18634 0.04311 0.5755 0.0
C207 C 0.15457 0.06305 0.58227 0.0
C208 C 0.1841 0.00754 0.56099 0.0
C209 C 0.12058 0.04691 0.57502 0.0
C210 C 0.11817 0.01184 0.5595 0.0
C211 C 0.14737 0.95688 0.53506 0.0
C212 C 0.17887 0.93667 0.52891 0.0
C213 C 0.14971 0.992 0.55184 0.0
C214 C 0.21291 0.95194 0.53993 0.0
C215 C 0.21554 0.98719 0.55516 0.0
H216 H 0.94995 0.22261 0.60944 0.0
H217 H 0.9251 0.16955 0.43933 0.0
H218 H 0.9897 0.16123 0.41966 0.0
H219 H 0.05311 0.16612 0.4535 0.0
H220 H 0.0777 0.21813 0.62474 0.0
H221 H 0.01339 0.22989 0.64085 0.0
C222 C 0.95863 0.20945 0.56783 0.0
C223 C 0.93267 0.19654 0.5262 0.0
C224 C 0.99582 0.20442 0.55703 0.0
C225 C 0.94447 0.17962 0.4724 0.0
C226 C 0.98143 0.17481 0.46107 0.0
C227 C 0.04445 0.18029 0.49408 0.0
C228 C 0.07019 0.191 0.53798 0.0
C229 C 0.00733 0.18666 0.50349 0.0
C230 C 0.05846 0.20936 0.59032 0.0
C231 C 0.02166 0.21611 0.59965 0.0
H232 H 0.23048 0.23458 0.42747 0.0
H233 H 0.22858 0.13154 0.34884 0.0
H234 H 0.25389 0.15379 0.25325 0.0
H235 H 0.27579 0.20258 0.19135 0.0
H236 H 0.27684 0.30572 0.26965 0.0
H237 H 0.25266 0.28326 0.36586 0.0
C238 C 0.2357 0.21694 0.38953 0.0
C239 C 0.22762 0.18144 0.39541 0.0
C240 C 0.25005 0.22991 0.33449 0.0
C241 C 0.23448 0.159 0.34563 0.0
C242 C 0.24897 0.17169 0.29087 0.0
C243 C 0.2708 0.22016 0.22947 0.0
C244 C 0.27811 0.25578 0.22315 0.0
C245 C 0.25672 0.20712 0.28469 0.0
C246 C 0.27142 0.27817 0.27309 0.0
C247 C 0.2576 0.26537 0.32822 0.0
H248 H 0.70253 0.31548 0.25574 0.0
H249 H 0.74754 0.2596 0.10134 0.0
H250 H 0.78007 0.22113 0.17122 0.0
H251 H 0.79564 0.2033 0.27634 0.0
H252 H 0.74906 0.25855 0.4303 0.0
H253 H 0.71719 0.29715 0.36035 0.0
C254 C 0.71957 0.29498 0.23735 0.0
C255 C 0.72271 0.29051 0.1735 0.0
C256 C 0.73783 0.27272 0.2777 0.0
C257 C 0.74462 0.26359 0.15039 0.0
C258 C 0.76325 0.24157 0.19029 0.0
C259 C 0.77849 0.22375 0.29457 0.0
C260 C 0.77484 0.22801 0.35845 0.0
C261 C 0.76001 0.24586 0.25406 0.0
C262 C 0.75238 0.2546 0.38131 0.0
C263 C 0.73415 0.27679 0.34136 0.0
H264 H 0.82933 0.75813 0.3426 0.0
H265 H 0.74252 0.8258 0.40122 0.0
H266 H 0.70394 0.80392 0.31857 0.0
H267 H 0.69472 0.76567 0.2296 0.0
H268 H 0.78096 0.69706 0.17204 0.0
H269 H 0.81974 0.71914 0.25441 0.0
C270 C 0.80203 0.76819 0.33715 0.0
C271 C 0.78893 0.79364 0.37795 0.0
C272 C 0.77979 0.75525 0.28983 0.0
C273 C 0.75334 0.80618 0.37051 0.0
C274 C 0.73121 0.79369 0.32323 0.0
C275 C 0.72198 0.7555 0.23507 0.0
C276 C 0.73489 0.7298 0.1946 0.0
C277 C 0.74413 0.76821 0.28267 0.0
C278 C 0.77025 0.7168 0.2026 0.0
C279 C 0.79252 0.72947 0.24963 0.0
H280 H 0.18606 0.72476 0.34797 0.0
H281 H 0.26314 0.80912 0.35236 0.0
H282 H 0.29452 0.78454 0.26346 0.0
H283 H 0.30028 0.73891 0.18485 0.0
H284 H 0.22168 0.65595 0.17791 0.0
H285 H 0.19082 0.68005 0.26781 0.0
C286 C 0.2097 0.73782 0.32945 0.0
C287 C 0.22229 0.76867 0.35689 0.0
C288 C 0.22745 0.72369 0.2781 0.0
C289 C 0.2528 0.78539 0.33203 0.0
C290 C 0.27086 0.77128 0.28133 0.0
C291 C 0.27653 0.726 0.20327 0.0
C292 C 0.2634 0.69558 0.17508 0.0
C293 C 0.25851 0.74038 0.25418 0.0
C294 C 0.2323 0.6794 0.19885 0.0
C295 C 0.21464 0.69317 0.2502 0.0
H296 H 0.22652 0.81289 0.7582 0.0
H297 H 0.25162 0.74389 0.60726 0.0
H298 H 0.28286 0.70474 0.6773 0.0
H299 H 0.3029 0.68982 0.78145 0.0
H300 H 0.2777 0.7588 0.93238 0.0
H301 H 0.24676 0.79809 0.86226 0.0
C302 C 0.23883 0.78931 0.74058 0.0
C303 C 0.23667 0.7814 0.67756 0.0
C304 C 0.25678 0.76682 0.78111 0.0
C305 C 0.25281 0.75068 0.65558 0.0
C306 C 0.27072 0.72822 0.69559 0.0
C307 C 0.29068 0.71345 0.79903 0.0
C308 C 0.29266 0.72127 0.86211 0.0
C309 C 0.27284 0.736 0.75846 0.0
C310 C 0.27664 0.75206 0.88404 0.0
C311 C 0.25889 0.7746 0.84397 0.0
H312 H 0.23228 0.33194 0.87018 0.0
H313 H 0.28485 0.24162 0.94583 0.0
H314 H 0.26775 0.20773 0.85527 0.0
H315 H 0.23802 0.20372 0.75414 0.0
H316 H 0.18647 0.29457 0.67825 0.0
H317 H 0.20316 0.32812 0.76909 0.0
C318 C 0.23987 0.30481 0.86703 0.0
C319 C 0.25972 0.28938 0.91485 0.0
C320 C 0.23028 0.28552 0.81456 0.0
C321 C 0.26955 0.25421 0.90971 0.0
C322 C 0.25982 0.23477 0.85789 0.0
C323 C 0.23052 0.23087 0.75741 0.0
C324 C 0.21102 0.24653 0.70933 0.0
C325 C 0.24026 0.25017 0.80991 0.0
C326 C 0.20154 0.28178 0.71441 0.0
C327 C 0.211 0.30105 0.76647 0.0
H328 H 0.73735 0.2949 0.85474 0.0
H329 H 0.63252 0.24677 0.82966 0.0
H330 H 0.65459 0.21655 0.73835 0.0
H331 H 0.70377 0.20289 0.66695 0.0
H332 H 0.80941 0.24914 0.69334 0.0
H333 H 0.78696 0.28083 0.78311 0.0
C334 C 0.71929 0.27803 0.82894 0.0
C335 C 0.68333 0.27317 0.84877 0.0
C336 C 0.73235 0.26019 0.77708 0.0
C337 C 0.66034 0.25091 0.81536 0.0
C338 C 0.67293 0.23359 0.76319 0.0
C339 C 0.72192 0.21991 0.69227 0.0
C340 C 0.75818 0.22366 0.67345 0.0
C341 C 0.70893 0.23784 0.74391 0.0
C342 C 0.78138 0.2457 0.70699 0.0
C343 C 0.76854 0.26392 0.75821 0.0
H344 H 0.75294 0.66934 0.80466 0.0
H345 H 0.72845 0.76107 0.91143 0.0
H346 H 0.75049 0.79768 0.82831 0.0
H347 H 0.77639 0.80375 0.72503 0.0
H348 H 0.80013 0.71197 0.61792 0.0
H349 H 0.77879 0.67539 0.70154 0.0
C350 C 0.75242 0.69733 0.80982 0.0
C351 C 0.73905 0.71237 0.86424 0.0
C352 C 0.76504 0.71828 0.76178 0.0
C353 C 0.73857 0.74874 0.87004 0.0
C354 C 0.75119 0.76974 0.82253 0.0
C355 C 0.77699 0.77575 0.72002 0.0
C356 C 0.78984 0.76067 0.66525 0.0
C357 C 0.76446 0.7548 0.76817 0.0
C358 C 0.79029 0.72432 0.65949 0.0
C359 C 0.77811 0.70333 0.70731 0.0
loop_
_geom_bond_atom_site_label_1
_geom_bond_atom_site_label_2
_geom_bond_distance
_geom_bond_site_symmetry_2
_ccdc_geom_bond_type
C0 O1 1.160 . S
C0 O7 1.185 . S
O1 C0 1.160 . S
O2 Zn3 1.899 . S
O2 C10 1.284 . S
Zn3 O2 1.899 . S
Zn3 O4 2.032 . S
Zn3 O7 2.086 . S
Zn3 O12 1.977 . S
O4 Zn3 2.032 . S
O4 C8 1.278 1_554 S
C5 O6 1.203 . S
C5 O12 1.267 . S
O6 C5 1.203 . S
O7 C0 1.185 . S
O7 Zn3 2.086 . S
C8 O4 1.278 1_556 S
C8 O9 1.211 . S
O9 C8 1.211 . S
C10 O2 1.284 . S
C10 O11 1.273 1_554 S
O11 C10 1.273 1_556 S
O12 Zn3 1.977 . S
O12 C5 1.267 . S
C13 O14 1.160 . S
C13 O20 1.185 . S
O14 C13 1.160 . S
O15 Zn16 1.899 1_556 S
O15 C23 1.284 1_556 S
Zn16 O15 1.899 1_554 S
Zn16 O17 2.032 . S
Zn16 O20 2.086 1_554 S
Zn16 O25 1.977 . S
O17 Zn16 2.032 . S
O17 C21 1.278 . S
C18 O19 1.203 . S
C18 O25 1.267 . S
O19 C18 1.203 . S
O20 C13 1.185 . S
O20 Zn16 2.086 1_556 S
C21 O17 1.278 . S
C21 O22 1.211 . S
O22 C21 1.211 . S
C23 O15 1.284 1_554 S
C23 O24 1.273 . S
O24 C23 1.273 . S
O25 Zn16 1.977 . S
O25 C18 1.267 . S
C26 O27 1.160 . S
C26 O33 1.185 . S
O27 C26 1.160 . S
O28 Zn29 1.899 . S
O28 C36 1.284 . S
Zn29 O28 1.899 . S
Zn29 O30 2.032 . S
Zn29 O33 2.086 . S
Zn29 O38 1.977 . S
O30 Zn29 2.032 . S
O30 C34 1.278 1_554 S
C31 O32 1.203 . S
C31 O38 1.267 . S
O32 C31 1.203 . S
O33 C26 1.185 . S
O33 Zn29 2.086 . S
C34 O30 1.278 1_556 S
C34 O35 1.211 . S
O35 C34 1.211 . S
C36 O28 1.284 . S
C36 O37 1.273 1_554 S
O37 C36 1.273 1_556 S
O38 Zn29 1.977 . S
O38 C31 1.267 . S
C39 O40 1.160 . S
C39 O46 1.185 . S
O40 C39 1.160 . S
O41 Zn42 1.899 1_556 S
O41 C49 1.284 1_556 S
Zn42 O41 1.899 1_554 S
Zn42 O43 2.032 . S
Zn42 O46 2.086 1_554 S
Zn42 O51 1.977 . S
O43 Zn42 2.032 . S
O43 C47 1.278 . S
C44 O45 1.203 . S
C44 O51 1.267 . S
O45 C44 1.203 . S
O46 C39 1.185 . S
O46 Zn42 2.086 1_556 S
C47 O43 1.278 . S
C47 O48 1.211 . S
O48 C47 1.211 . S
C49 O41 1.284 1_554 S
C49 O50 1.273 . S
O50 C49 1.273 . S
O51 Zn42 1.977 . S
O51 C44 1.267 . S
C52 O53 1.160 . S
C52 O59 1.185 . S
O53 C52 1.160 . S
O54 Zn55 1.899 . S
O54 C62 1.284 . S
Zn55 O54 1.899 . S
Zn55 O56 2.032 . S
Zn55 O59 2.086 . S
Zn55 O64 1.977 . S
O56 Zn55 2.032 . S
O56 C60 1.278 . S
C57 O58 1.203 . S
C57 O64 1.267 . S
O58 C57 1.203 . S
O59 C52 1.185 . S
O59 Zn55 2.086 . S
C60 O56 1.278 . S
C60 O61 1.211 . S
O61 C60 1.211 . S
C62 O54 1.284 . S
C62 O63 1.273 . S
O63 C62 1.273 . S
O64 Zn55 1.977 . S
O64 C57 1.267 . S
C65 O66 1.160 . S
C65 O72 1.185 . S
O66 C65 1.160 . S
O67 Zn68 1.899 . S
O67 C75 1.284 . S
Zn68 O67 1.899 . S
Zn68 O69 2.032 . S
Zn68 O72 2.086 . S
Zn68 O77 1.977 . S
O69 Zn68 2.032 . S
O69 C73 1.278 . S
C70 O71 1.203 . S
C70 O77 1.267 . S
O71 C70 1.203 . S
O72 C65 1.185 . S
O72 Zn68 2.086 . S
C73 O69 1.278 . S
C73 O74 1.211 . S
O74 C73 1.211 . S
C75 O67 1.284 . S
C75 O76 1.273 . S
O76 C75 1.273 . S
O77 Zn68 1.977 . S
O77 C70 1.267 . S
C78 O79 1.160 . S
C78 O85 1.185 . S
O79 C78 1.160 . S
O80 Zn81 1.899 . S
O80 C88 1.284 . S
Zn81 O80 1.899 . S
Zn81 O82 2.032 . S
Zn81 O85 2.086 . S
Zn81 O90 1.977 . S
O82 Zn81 2.032 . S
O82 C86 1.278 . S
C83 O84 1.203 . S
C83 O90 1.267 . S
O84 C83 1.203 . S
O85 C78 1.185 . S
O85 Zn81 2.086 . S
C86 O82 1.278 . S
C86 O87 1.211 . S
O87 C86 1.211 . S
C88 O80 1.284 . S
C88 O89 1.273 . S
O89 C88 1.273 . S
O90 Zn81 1.977 . S
O90 C83 1.267 . S
C91 O92 1.160 . S
C91 O98 1.185 . S
O92 C91 1.160 . S
O93 Zn94 1.899 . S
O93 C101 1.284 . S
Zn94 O93 1.899 . S
Zn94 O95 2.032 . S
Zn94 O98 2.086 . S
Zn94 O103 1.977 . S
O95 Zn94 2.032 . S
O95 C99 1.278 . S
C96 O97 1.203 . S
C96 O103 1.267 . S
O97 C96 1.203 . S
O98 C91 1.185 . S
O98 Zn94 2.086 . S
C99 O95 1.278 . S
C99 O100 1.211 . S
O100 C99 1.211 . S
C101 O93 1.284 . S
C101 O102 1.273 . S
O102 C101 1.273 . S
O103 Zn94 1.977 . S
O103 C96 1.267 . S
H104 C110 0.930 1_556 S
H105 C113 0.930 . S
H106 C114 0.930 . S
H107 C115 0.930 . S
H108 C118 0.930 . S
H109 C119 0.930 . S
C110 H104 0.930 1_554 S
C110 C111 1.355 . S
C110 C112 1.415 . S
C111 C110 1.355 . S
C111 C113 1.419 . S
C112 C110 1.415 . S
C112 C117 1.425 . S
C112 C119 1.409 1_554 S
C113 H105 0.930 . S
C113 C111 1.419 . S
C113 C114 1.362 . S
C114 H106 0.930 . S
C114 C113 1.362 . S
C114 C117 1.409 . S
C115 H107 0.930 . S
C115 C116 1.355 . S
C115 C117 1.415 . S
C116 C115 1.355 . S
C116 C118 1.419 1_554 S
C117 C112 1.425 . S
C117 C114 1.409 . S
C117 C115 1.415 . S
C118 H108 0.930 . S
C118 C116 1.419 1_556 S
C118 C119 1.362 . S
C119 H109 0.930 . S
C119 C112 1.409 1_556 S
C119 C118 1.362 . S
H120 C126 0.930 . S
H121 C129 0.930 . S
H122 C130 0.930 . S
H123 C131 0.930 . S
H124 C134 0.930 . S
H125 C135 0.930 . S
C126 H120 0.930 . S
C126 C127 1.355 . S
C126 C128 1.415 . S
C127 C126 1.355 . S
C127 C129 1.419 1_554 S
C128 C126 1.415 . S
C128 C133 1.425 . S
C128 C135 1.409 . S
C129 H121 0.930 . S
C129 C127 1.419 1_556 S
C129 C130 1.362 . S
C130 H122 0.930 . S
C130 C129 1.362 . S
C130 C133 1.409 1_556 S
C131 H123 0.930 . S
C131 C132 1.355 1_556 S
C131 C133 1.415 1_556 S
C132 C131 1.355 1_554 S
C132 C134 1.419 . S
C133 C128 1.425 . S
C133 C130 1.409 1_554 S
C133 C131 1.415 1_554 S
C134 H124 0.930 . S
C134 C132 1.419 . S
C134 C135 1.362 . S
C135 H125 0.930 . S
C135 C128 1.409 . S
C135 C134 1.362 . S
H136 C142 0.930 . S
H137 C145 0.930 . S
H138 C146 0.930 . S
H139 C147 0.930 . S
H140 C150 0.930 . S
H141 C151 0.930 1_556 S
C142 H136 0.930 . S
C142 C143 1.355 . S
C142 C144 1.415 . S
C143 C142 1.355 . S
C143 C145 1.419 . S
C144 C142 1.415 . S
C144 C149 1.425 . S
C144 C151 1.409 . S
C145 H137 0.930 . S
C145 C143 1.419 . S
C145 C146 1.362 . S
C146 H138 0.930 . S
C146 C145 1.362 . S
C146 C149 1.409 . S
C147 H139 0.930 . S
C147 C148 1.355 . S
C147 C149 1.415 . S
C148 C147 1.355 . S
C148 C150 1.419 . S
C149 C144 1.425 . S
C149 C146 1.409 . S
C149 C147 1.415 . S
C150 H140 0.930 . S
C150 C148 1.419 . S
C150 C151 1.362 . S
C151 H141 0.930 1_554 S
C151 C144 1.409 . S
C151 C150 1.362 . S
H152 C158 0.930 . S
H153 C161 0.930 . S
H154 C162 0.930 . S
H155 C163 0.930 . S
H156 C166 0.930 . S
H157 C167 0.930 . S
C158 H152 0.930 . S
C158 C159 1.355 1_556 S
C158 C160 1.415 1_556 S
C159 C158 1.355 1_554 S
C159 C161 1.419 . S
C160 C158 1.415 1_554 S
C160 C165 1.425 . S
C160 C167 1.409 1_554 S
C161 H153 0.930 . S
C161 C159 1.419 . S
C161 C162 1.362 . S
C162 H154 0.930 . S
C162 C161 1.362 . S
C162 C165 1.409 . S
C163 H155 0.930 . S
C163 C164 1.355 . S
C163 C165 1.415 . S
C164 C163 1.355 . S
C164 C166 1.419 1_554 S
C165 C160 1.425 . S
C165 C162 1.409 . S
C165 C163 1.415 . S
C166 H156 0.930 . S
C166 C164 1.419 1_556 S
C166 C167 1.362 . S
C167 H157 0.930 . S
C167 C160 1.409 1_556 S
C167 C166 1.362 . S
H168 C174 0.930 . S
H169 C177 0.930 . S
H170 C178 0.930 . S
H171 C179 0.930 . S
H172 C182 0.930 . S
H173 C183 0.930 . S
C174 H168 0.930 . S
C174 C175 1.355 . S
C174 C176 1.415 . S
C175 C174 1.355 . S
C175 C177 1.419 . S
C176 C174 1.415 . S
C176 C181 1.425 1_565 S
C176 C183 1.409 1_565 S
C177 H169 0.930 . S
C177 C175 1.419 . S
C177 C178 1.362 . S
C178 H170 0.930 . S
C178 C177 1.362 . S
C178 C181 1.409 1_565 S
C179 H171 0.930 . S
C179 C180 1.355 . S
C179 C181 1.415 . S
C180 C179 1.355 . S
C180 C182 1.419 . S
C181 C176 1.425 1_545 S
C181 C178 1.409 1_545 S
C181 C179 1.415 . S
C182 H172 0.930 . S
C182 C180 1.419 . S
C182 C183 1.362 . S
C183 H173 0.930 . S
C183 C176 1.409 1_545 S
C183 C182 1.362 . S
H184 C190 0.930 . S
H185 C193 0.930 . S
H186 C194 0.930 . S
H187 C195 0.930 . S
H188 C198 0.930 . S
H189 C199 0.930 . S
C190 H184 0.930 . S
C190 C191 1.355 . S
C190 C192 1.415 . S
C191 C190 1.355 . S
C191 C193 1.419 . S
C192 C190 1.415 . S
C192 C197 1.425 1_455 S
C192 C199 1.409 1_455 S
C193 H185 0.930 . S
C193 C191 1.419 . S
C193 C194 1.362 . S
C194 H186 0.930 . S
C194 C193 1.362 . S
C194 C197 1.409 1_455 S
C195 H187 0.930 . S
C195 C196 1.355 . S
C195 C197 1.415 . S
C196 C195 1.355 . S
C196 C198 1.419 . S
C197 C192 1.425 1_655 S
C197 C194 1.409 1_655 S
C197 C195 1.415 . S
C198 H188 0.930 . S
C198 C196 1.419 . S
C198 C199 1.362 . S
C199 H189 0.930 . S
C199 C192 1.409 1_655 S
C199 C198 1.362 . S
H200 C206 0.930 . S
H201 C209 0.930 . S
H202 C210 0.930 . S
H203 C211 0.930 . S
H204 C214 0.930 . S
H205 C215 0.930 . S
C206 H200 0.930 . S
C206 C207 1.355 . S
C206 C208 1.415 . S
C207 C206 1.355 . S
C207 C209 1.419 . S
C208 C206 1.415 . S
C208 C213 1.425 1_545 S
C208 C215 1.409 1_545 S
C209 H201 0.930 . S
C209 C207 1.419 . S
C209 C210 1.362 . S
C210 H202 0.930 . S
C210 C209 1.362 . S
C210 C213 1.409 1_545 S
C211 H203 0.930 . S
C211 C212 1.355 . S
C211 C213 1.415 . S
C212 C211 1.355 . S
C212 C214 1.419 . S
C213 C208 1.425 1_565 S
C213 C210 1.409 1_565 S
C213 C211 1.415 . S
C214 H204 0.930 . S
C214 C212 1.419 . S
C214 C215 1.362 . S
C215 H205 0.930 . S
C215 C208 1.409 1_565 S
C215 C214 1.362 . S
H216 C222 0.930 . S
H217 C225 0.930 . S
H218 C226 0.930 . S
H219 C227 0.930 . S
H220 C230 0.930 . S
H221 C231 0.930 . S
C222 H216 0.930 . S
C222 C223 1.355 . S
C222 C224 1.415 . S
C223 C222 1.355 . S
C223 C225 1.419 . S
C224 C222 1.415 . S
C224 C229 1.425 1_655 S
C224 C231 1.409 1_655 S
C225 H217 0.930 . S
C225 C223 1.419 . S
C225 C226 1.362 . S
C226 H218 0.930 . S
C226 C225 1.362 . S
C226 C229 1.409 1_655 S
C227 H219 0.930 . S
C227 C228 1.355 . S
C227 C229 1.415 . S
C228 C227 1.355 . S
C228 C230 1.419 . S
C229 C224 1.425 1_455 S
C229 C226 1.409 1_455 S
C229 C227 1.415 . S
C230 H220 0.930 . S
C230 C228 1.419 . S
C230 C231 1.362 . S
C231 H221 0.930 . S
C231 C224 1.409 1_455 S
C231 C230 1.362 . S
H232 C238 0.930 . S
H233 C241 0.930 . S
H234 C242 0.930 . S
H235 C243 0.930 . S
H236 C246 0.930 . S
H237 C247 0.930 . S
C238 H232 0.930 . S
C238 C239 1.355 . S
C238 C240 1.415 . S
C239 C238 1.355 . S
C239 C241 1.419 . S
C240 C238 1.415 . S
C240 C245 1.425 . S
C240 C247 1.409 . S
C241 H233 0.930 . S
C241 C239 1.419 . S
C241 C242 1.362 . S
C242 H234 0.930 . S
C242 C241 1.362 . S
C242 C245 1.409 . S
C243 H235 0.930 . S
C243 C244 1.355 . S
C243 C245 1.415 . S
C244 C243 1.355 . S
C244 C246 1.419 . S
C245 C240 1.425 . S
C245 C242 1.409 . S
C245 C243 1.415 . S
C246 H236 0.930 . S
C246 C244 1.419 . S
C246 C247 1.362 . S
C247 H237 0.930 . S
C247 C240 1.409 . S
C247 C246 1.362 . S
H248 C254 0.930 . S
H249 C257 0.930 . S
H250 C258 0.930 . S
H251 C259 0.930 . S
H252 C262 0.930 . S
H253 C263 0.930 . S
C254 H248 0.930 . S
C254 C255 1.355 . S
C254 C256 1.415 . S
C255 C254 1.355 . S
C255 C257 1.419 . S
C256 C254 1.415 . S
C256 C261 1.425 . S
C256 C263 1.409 . S
C257 H249 0.930 . S
C257 C255 1.419 . S
C257 C258 1.362 . S
C258 H250 0.930 . S
C258 C257 1.362 . S
C258 C261 1.409 . S
C259 H251 0.930 . S
C259 C260 1.355 . S
C259 C261 1.415 . S
C260 C259 1.355 . S
C260 C262 1.419 . S
C261 C256 1.425 . S
C261 C258 1.409 . S
C261 C259 1.415 . S
C262 H252 0.930 . S
C262 C260 1.419 . S
C262 C263 1.362 . S
C263 H253 0.930 . S
C263 C256 1.409 . S
C263 C262 1.362 . S
H264 C270 0.930 . S
H265 C273 0.930 . S
H266 C274 0.930 . S
H267 C275 0.930 . S
H268 C278 0.930 . S
H269 C279 0.930 . S
C270 H264 0.930 . S
C270 C271 1.355 . S
C270 C272 1.415 . S
C271 C270 1.355 . S
C271 C273 1.419 . S
C272 C270 1.415 . S
C272 C277 1.425 . S
C272 C279 1.409 . S
C273 H265 0.930 . S
C273 C271 1.419 . S
C273 C274 1.362 . S
C274 H266 0.930 . S
C274 C273 1.362 . S
C274 C277 1.409 . S
C275 H267 0.930 . S
C275 C276 1.355 . S
C275 C277 1.415 . S
C276 C275 1.355 . S
C276 C278 1.419 . S
C277 C272 1.425 . S
C277 C274 1.409 . S
C277 C275 1.415 . S
C278 H268 0.930 . S
C278 C276 1.419 . S
C278 C279 1.362 . S
C279 H269 0.930 . S
C279 C272 1.409 . S
C279 C278 1.362 . S
H280 C286 0.930 . S
H281 C289 0.930 . S
H282 C290 0.930 . S
H283 C291 0.930 . S
H284 C294 0.930 . S
H285 C295 0.930 . S
C286 H280 0.930 . S
C286 C287 1.355 . S
C286 C288 1.415 . S
C287 C286 1.355 . S
C287 C289 1.419 . S
C288 C286 1.415 . S
C288 C293 1.425 . S
C288 C295 1.409 . S
C289 H281 0.930 . S
C289 C287 1.419 . S
C289 C290 1.362 . S
C290 H282 0.930 . S
C290 C289 1.362 . S
C290 C293 1.409 . S
C291 H283 0.930 . S
C291 C292 1.355 . S
C291 C293 1.415 . S
C292 C291 1.355 . S
C292 C294 1.419 . S
C293 C288 1.425 . S
C293 C290 1.409 . S
C293 C291 1.415 . S
C294 H284 0.930 . S
C294 C292 1.419 . S
C294 C295 1.362 . S
C295 H285 0.930 . S
C295 C288 1.409 . S
C295 C294 1.362 . S
H296 C302 0.930 . S
H297 C305 0.930 . S
H298 C306 0.930 . S
H299 C307 0.930 . S
H300 C310 0.930 . S
H301 C311 0.930 . S
C302 H296 0.930 . S
C302 C303 1.355 . S
C302 C304 1.415 . S
C303 C302 1.355 . S
C303 C305 1.419 . S
C304 C302 1.415 . S
C304 C309 1.425 . S
C304 C311 1.409 . S
C305 H297 0.930 . S
C305 C303 1.419 . S
C305 C306 1.362 . S
C306 H298 0.930 . S
C306 C305 1.362 . S
C306 C309 1.409 . S
C307 H299 0.930 . S
C307 C308 1.355 . S
C307 C309 1.415 . S
C308 C307 1.355 . S
C308 C310 1.419 . S
C309 C304 1.425 . S
C309 C306 1.409 . S
C309 C307 1.415 . S
C310 H300 0.930 . S
C310 C308 1.419 . S
C310 C311 1.362 . S
C311 H301 0.930 . S
C311 C304 1.409 . S
C311 C310 1.362 . S
H312 C318 0.930 . S
H313 C321 0.930 . S
H314 C322 0.930 . S
H315 C323 0.930 . S
H316 C326 0.930 . S
H317 C327 0.930 . S
C318 H312 0.930 . S
C318 C319 1.355 . S
C318 C320 1.415 . S
C319 C318 1.355 . S
C319 C321 1.419 . S
C320 C318 1.415 . S
C320 C325 1.425 . S
C320 C327 1.409 . S
C321 H313 0.930 . S
C321 C319 1.419 . S
C321 C322 1.362 . S
C322 H314 0.930 . S
C322 C321 1.362 . S
C322 C325 1.409 . S
C323 H315 0.930 . S
C323 C324 1.355 . S
C323 C325 1.415 . S
C324 C323 1.355 . S
C324 C326 1.419 . S
C325 C320 1.425 . S
C325 C322 1.409 . S
C325 C323 1.415 . S
C326 H316 0.930 . S
C326 C324 1.419 . S
C326 C327 1.362 . S
C327 H317 0.930 . S
C327 C320 1.409 . S
C327 C326 1.362 . S
H328 C334 0.930 . S
H329 C337 0.930 . S
H330 C338 0.930 . S
H331 C339 0.930 . S
H332 C342 0.930 . S
H333 C343 0.930 . S
C334 H328 0.930 . S
C334 C335 1.355 . S
C334 C336 1.415 . S
C335 C334 1.355 . S
C335 C337 1.419 . S
C336 C334 1.415 . S
C336 C341 1.425 . S
C336 C343 1.409 . S
C337 H329 0.930 . S
C337 C335 1.419 . S
C337 C338 1.362 . S
C338 H330 0.930 . S
C338 C337 1.362 . S
C338 C341 1.409 . S
C339 H331 0.930 . S
C339 C340 1.355 . S
C339 C341 1.415 . S
C340 C339 1.355 . S
C340 C342 1.419 . S
C341 C336 1.425 . S
C341 C338 1.409 . S
C341 C339 1.415 . S
C342 H332 0.930 . S
C342 C340 1.419 . S
C342 C343 1.362 . S
C343 H333 0.930 . S
C343 C336 1.409 . S
C343 C342 1.362 . S
H344 C350 0.930 . S
H345 C353 0.930 . S
H346 C354 0.930 . S
H347 C355 0.930 . S
H348 C358 0.930 . S
H349 C359 0.930 . S
C350 H344 0.930 . S
C350 C351 1.355 . S
C350 C352 1.415 . S
C351 C350 1.355 . S
C351 C353 1.419 . S
C352 C350 1.415 . S
C352 C357 1.425 . S
C352 C359 1.409 . S
C353 H345 0.930 . S
C353 C351 1.419 . S
C353 C354 1.362 . S
C354 H346 0.930 . S
C354 C353 1.362 . S
C354 C357 1.409 . S
C355 H347 0.930 . S
C355 C356 1.355 . S
C355 C357 1.415 . S
C356 C355 1.355 . S
C356 C358 1.419 . S
C357 C352 1.425 . S
C357 C354 1.409 . S
C357 C355 1.415 . S
C358 H348 0.930 . S
C358 C356 1.419 . S
C358 C359 1.362 . S
C359 H349 0.930 . S
C359 C352 1.409 . S
C359 C358 1.362 . S
C111 C5 1.446 . S
C116 C44 1.445 . S
C127 C10 1.443 . S
C132 C23 1.443 . S
C143 C18 1.409 . S
C148 C31 1.452 . S
C159 C49 1.444 . S
C164 C36 1.444 . S
C175 C57 1.443 . S
C180 C96 1.415 . S
C191 C75 1.473 . S
C196 C62 1.474 . S
C207 C83 1.412 . S
C212 C70 1.447 . S
C223 C101 1.473 . S
C228 C88 1.473 . S
C239 C86 1.384 . S
C244 C0 1.387 . S
C255 C21 1.405 . S
C260 C91 1.433 . S
C271 C60 1.402 . S
C276 C26 1.433 . S
C287 C65 1.393 . S
C292 C47 1.379 . S
C303 C73 1.393 . S
C308 C39 1.430 . S
C319 C8 1.429 . S
C324 C78 1.391 . S
C335 C13 1.377 . S
C340 C99 1.405 . S
C351 C34 1.433 . S
C356 C52 1.407 . S
