# Generated by pormake.
# Topology unr, (4)-cn, num edge types: 1
# Building blocks:
#     Node 0, Type 0, BuildingBlock: CEKHIL_clean_sbu_0, # of connection points: 4
#     Node 1, Type 0, BuildingBlock: CEKHIL_clean_sbu_0, # of connection points: 4
#     Node 2, Type 0, BuildingBlock: CEKHIL_clean_sbu_0, # of connection points: 4
#     Node 3, Type 0, BuildingBlock: CEKHIL_clean_sbu_0, # of connection points: 4
#     Node 4, Type 0, BuildingBlock: CEKHIL_clean_sbu_0, # of connection points: 4
#     Node 5, Type 0, BuildingBlock: CEKHIL_clean_sbu_0, # of connection points: 4
#     Node 6, Type 0, BuildingBlock: CEKHIL_clean_sbu_0, # of connection points: 4
#     Node 7, Type 0, BuildingBlock: CEKHIL_clean_sbu_0, # of connection points: 4
#     Node 8, Type 0, BuildingBlock: CEKHIL_clean_sbu_0, # of connection points: 4
#     Node 9, Type 0, BuildingBlock: CEKHIL_clean_sbu_0, # of connection points: 4
#     Node 10, Type 0, BuildingBlock: CEKHIL_clean_sbu_0, # of connection points: 4
#     Node 11, Type 0, BuildingBlock: CEKHIL_clean_sbu_0, # of connection points: 4
#     Node 12, Type 0, BuildingBlock: CEKHIL_clean_sbu_0, # of connection points: 4
#     Node 13, Type 0, BuildingBlock: CEKHIL_clean_sbu_0, # of connection points: 4
#     Node 14, Type 0, BuildingBlock: CEKHIL_clean_sbu_0, # of connection points: 4
#     Node 15, Type 0, BuildingBlock: CEKHIL_clean_sbu_0, # of connection points: 4
#     Node 16, Type 0, BuildingBlock: CEKHIL_clean_sbu_0, # of connection points: 4
#     Node 17, Type 0, BuildingBlock: CEKHIL_clean_sbu_0, # of connection points: 4
#     Node 18, Type 0, BuildingBlock: CEKHIL_clean_sbu_0, # of connection points: 4
#     Node 19, Type 0, BuildingBlock: CEKHIL_clean_sbu_0, # of connection points: 4
#     Node 20, Type 0, BuildingBlock: CEKHIL_clean_sbu_0, # of connection points: 4
#     Node 21, Type 0, BuildingBlock: CEKHIL_clean_sbu_0, # of connection points: 4
#     Node 22, Type 0, BuildingBlock: CEKHIL_clean_sbu_0, # of connection points: 4
#     Node 23, Type 0, BuildingBlock: CEKHIL_clean_sbu_0, # of connection points: 4
#     Node 24, Type 0, BuildingBlock: CEKHIL_clean_sbu_0, # of connection points: 4
#     Node 25, Type 0, BuildingBlock: CEKHIL_clean_sbu_0, # of connection points: 4
#     Node 26, Type 0, BuildingBlock: CEKHIL_clean_sbu_0, # of connection points: 4
#     Node 27, Type 0, BuildingBlock: CEKHIL_clean_sbu_0, # of connection points: 4
#     Node 28, Type 0, BuildingBlock: CEKHIL_clean_sbu_0, # of connection points: 4
#     Node 29, Type 0, BuildingBlock: CEKHIL_clean_sbu_0, # of connection points: 4
#     Node 30, Type 0, BuildingBlock: CEKHIL_clean_sbu_0, # of connection points: 4
#     Node 31, Type 0, BuildingBlock: CEKHIL_clean_sbu_0, # of connection points: 4
#     Node 32, Type 0, BuildingBlock: CEKHIL_clean_sbu_0, # of connection points: 4
#     Node 33, Type 0, BuildingBlock: CEKHIL_clean_sbu_0, # of connection points: 4
#     Node 34, Type 0, BuildingBlock: CEKHIL_clean_sbu_0, # of connection points: 4
#     Node 35, Type 0, BuildingBlock: CEKHIL_clean_sbu_0, # of connection points: 4
#     Edge 36, Type (0, 0), None
#     Edge 37, Type (0, 0), None
#     Edge 38, Type (0, 0), None
#     Edge 39, Type (0, 0), None
#     Edge 40, Type (0, 0), None
#     Edge 41, Type (0, 0), None
#     Edge 42, Type (0, 0), None
#     Edge 43, Type (0, 0), None
#     Edge 44, Type (0, 0), None
#     Edge 45, Type (0, 0), None
#     Edge 46, Type (0, 0), None
#     Edge 47, Type (0, 0), None
#     Edge 48, Type (0, 0), None
#     Edge 49, Type (0, 0), None
#     Edge 50, Type (0, 0), None
#     Edge 51, Type (0, 0), None
#     Edge 52, Type (0, 0), None
#     Edge 53, Type (0, 0), None
#     Edge 54, Type (0, 0), None
#     Edge 55, Type (0, 0), None
#     Edge 56, Type (0, 0), None
#     Edge 57, Type (0, 0), None
#     Edge 58, Type (0, 0), None
#     Edge 59, Type (0, 0), None
#     Edge 60, Type (0, 0), None
#     Edge 61, Type (0, 0), None
#     Edge 62, Type (0, 0), None
#     Edge 63, Type (0, 0), None
#     Edge 64, Type (0, 0), None
#     Edge 65, Type (0, 0), None
#     Edge 66, Type (0, 0), None
#     Edge 67, Type (0, 0), None
#     Edge 68, Type (0, 0), None
#     Edge 69, Type (0, 0), None
#     Edge 70, Type (0, 0), None
#     Edge 71, Type (0, 0), None
#     Edge 72, Type (0, 0), None
#     Edge 73, Type (0, 0), None
#     Edge 74, Type (0, 0), None
#     Edge 75, Type (0, 0), None
#     Edge 76, Type (0, 0), None
#     Edge 77, Type (0, 0), None
#     Edge 78, Type (0, 0), None
#     Edge 79, Type (0, 0), None
#     Edge 80, Type (0, 0), None
#     Edge 81, Type (0, 0), None
#     Edge 82, Type (0, 0), None
#     Edge 83, Type (0, 0), None
#     Edge 84, Type (0, 0), None
#     Edge 85, Type (0, 0), None
#     Edge 86, Type (0, 0), None
#     Edge 87, Type (0, 0), None
#     Edge 88, Type (0, 0), None
#     Edge 89, Type (0, 0), None
#     Edge 90, Type (0, 0), None
#     Edge 91, Type (0, 0), None
#     Edge 92, Type (0, 0), None
#     Edge 93, Type (0, 0), None
#     Edge 94, Type (0, 0), None
#     Edge 95, Type (0, 0), None
#     Edge 96, Type (0, 0), None
#     Edge 97, Type (0, 0), None
#     Edge 98, Type (0, 0), None
#     Edge 99, Type (0, 0), None
#     Edge 100, Type (0, 0), None
#     Edge 101, Type (0, 0), None
#     Edge 102, Type (0, 0), None
#     Edge 103, Type (0, 0), None
#     Edge 104, Type (0, 0), None
#     Edge 105, Type (0, 0), None
#     Edge 106, Type (0, 0), None
#     Edge 107, Type (0, 0), None
# Relax obj value: 0.376
# Max RMSD: 0.187
# Mean RMSD: 0.181
data_MOF--net-unr--node1-CEKHIL_clean_sbu_0--edge1-none
_symmetry_space_group_name_H-M    P1
_symmetry_Int_Tables_number       1
_symmetry_cell_setting            triclinic
loop_
_symmetry_equiv_pos_as_xyz
'x, y, z'
_cell_length_a     22.110499
_cell_length_b     22.129877
_cell_length_c     44.362309
_cell_angle_alpha  89.926358
_cell_angle_beta   89.961067
_cell_angle_gamma 119.96018
loop_
_atom_site_label
_atom_site_type_symbol
_atom_site_fract_x
_atom_site_fract_y
_atom_site_fract_z
_atom_type_partial_charge
Co0 Co 0.22964 0.20421 0.1896 0.0
O1 O 0.31536 0.20493 0.19193 0.0
O2 O 0.29065 0.25992 0.15643 0.0
C3 C 0.23363 0.21929 0.24132 0.0
O4 O 0.13983 0.21107 0.18063 0.0
Co5 Co 0.10252 0.12465 0.22274 0.0
O6 O 0.11368 0.22055 0.22619 0.0
C7 C 0.12489 0.06597 0.16595 0.0
C8 C 0.33468 0.24357 0.16812 0.0
C9 C 0.09872 0.21868 0.199 0.0
O10 O 0.18886 0.11532 0.16497 0.0
O11 O 0.08168 0.06872 0.18408 0.0
O12 O 0.26248 0.27335 0.22343 0.0
O13 O 0.20029 0.16133 0.22724 0.0
Co14 Co 0.875 0.12695 0.19704 0.0
O15 O 0.87133 0.20639 0.21259 0.0
O16 O 0.85452 0.171 0.16485 0.0
C17 C 0.81126 0.05805 0.23857 0.0
O18 O 0.88093 0.05027 0.17187 0.0
Co19 Co 0.91026 0.03087 0.2216 0.0
O20 O 0.82501 0.95953 0.19984 0.0
C21 C 0.02286 0.16889 0.196 0.0
C22 C 0.86004 0.21635 0.18487 0.0
C23 C 0.85878 0.98491 0.17612 0.0
O24 O 0.97876 0.18845 0.18954 0.0
O25 O 0.00326 0.11054 0.20907 0.0
O26 O 0.77951 0.06213 0.21455 0.0
O27 O 0.87751 0.09067 0.23507 0.0
Co28 Co 0.95897 0.86711 0.15436 0.0
O29 O 0.87031 0.78317 0.15703 0.0
O30 O 0.92812 0.82842 0.11455 0.0
C31 C -7e-05 0.83233 0.19484 0.0
O32 O 0.05118 0.9578 0.14392 0.0
Co33 Co 0.0346 0.96695 0.20831 0.0
O34 O 0.11104 0.96692 0.18391 0.0
C35 C 0.91258 0.9641 0.17301 0.0
C36 C 0.87329 0.77906 0.12809 0.0
C37 C 0.10705 0.99359 0.15954 0.0
O38 O 0.90953 0.92263 0.15211 0.0
O39 O 0.95257 0.97838 0.19606 0.0
O40 O 0.00596 0.81369 0.16769 0.0
O41 O 0.97471 0.87319 0.19561 0.0
Co42 Co 0.14729 0.18535 0.31671 0.0
O43 O 0.1355 0.26463 0.31581 0.0
O44 O 0.16857 0.23008 0.35628 0.0
C45 C 0.205 0.21963 0.27142 0.0
O46 O 0.15762 0.09769 0.32373 0.0
Co47 Co 0.10318 0.08192 0.26212 0.0
O48 O 0.18992 0.08736 0.27885 0.0
C49 C -0.00047 0.08466 0.30839 0.0
C50 C 0.15289 0.27397 0.34379 0.0
C51 C 0.17012 0.06119 0.30461 0.0
O52 O 0.04559 0.12647 0.32704 0.0
O53 O 0.01587 0.07058 0.28258 0.0
O54 O 0.24038 0.2419 0.29631 0.0
O55 O 0.14019 0.17584 0.27534 0.0
Co56 Co 0.79189 0.92458 0.29628 0.0
O57 O 0.70292 0.84591 0.28496 0.0
O58 O 0.73739 0.87944 0.33192 0.0
C59 C 0.78319 -0.00539 0.25847 0.0
O60 O 0.88311 0.0003 0.31701 0.0
Co61 Co 0.91404 0.02144 0.26267 0.0
O62 O 0.90917 0.09075 0.28999 0.0
C63 C 0.89758 0.88337 0.28362 0.0
C64 C 0.68965 0.83606 0.31355 0.0
C65 C 0.92533 0.06523 0.31148 0.0
O66 O 0.83745 0.8636 0.29583 0.0
O67 O 0.93051 0.94132 0.26949 0.0
O68 O 0.75646 0.99013 0.28515 0.0
O69 O 0.81682 0.96164 0.25714 0.0
Co70 Co 0.07236 0.85058 0.27216 0.0
O71 O 0.15648 0.84478 0.26417 0.0
O72 O 0.08279 0.79423 0.30205 0.0
C73 C 0.04166 0.83437 0.22149 0.0
O74 O 0.98036 0.84546 0.2893 0.0
Co75 Co 0.01346 0.92669 0.25005 0.0
O76 O 0.9257 0.83194 0.24798 0.0
C77 C 0.11418 0.98773 0.30039 0.0
C78 C 0.13942 0.80601 0.2881 0.0
C79 C 0.92391 0.83503 0.27597 0.0
O80 O 0.13025 0.93988 0.29622 0.0
O81 O 0.06028 0.98294 0.28778 0.0
O82 O 0.02292 0.78107 0.23938 0.0
O83 O 0.07291 0.89309 0.23529 0.0
Co84 Co 0.84694 0.87598 0.83081 0.0
O85 O 0.76945 0.89045 0.82172 0.0
O86 O 0.78857 0.85586 0.86588 0.0
C87 C 0.93546 0.97321 0.81 0.0
O88 O 0.92537 0.86201 0.84769 0.0
Co89 Co 0.9223 0.84504 0.77539 0.0
O90 O 0.92121 0.79349 0.81249 0.0
C91 C 0.79073 0.74871 0.79145 0.0
C92 C 0.74867 0.86957 0.8491 0.0
C93 C 0.95715 0.83821 0.83186 0.0
O94 O 0.78562 0.77468 0.81665 0.0
O95 O 0.8472 0.74816 0.78787 0.0
O96 O 0.91088 0.97652 0.83623 0.0
O97 O 0.90037 0.91425 0.79571 0.0
Co98 Co 0.13341 0.92063 0.7988 0.0
O99 O 0.11835 0.82842 0.80326 0.0
O100 O 0.21482 0.92412 0.81729 0.0
C101 C 0.02678 0.88846 0.81963 0.0
O102 O 0.16189 0.02579 0.79885 0.0
Co103 Co 0.05057 0.94643 0.75706 0.0
O104 O 0.1327 0.03927 0.75293 0.0
C105 C 0.1636 0.94558 0.73067 0.0
C106 C 0.17903 0.85625 0.81552 0.0
C107 C 0.16233 0.06559 0.77752 0.0
O108 O 0.16839 0.91896 0.75578 0.0
O109 O 0.13468 0.98198 0.73061 0.0
O110 O 0.08182 0.91041 0.83631 0.0
O111 O 0.03716 0.88527 0.79098 0.0
Co112 Co 0.11057 0.19178 0.79202 0.0
O113 O 0.19091 0.28316 0.78655 0.0
O114 O 0.11711 0.25214 0.82492 0.0
C115 C 0.16716 0.13306 0.78264 0.0
O116 O 0.02416 0.09636 0.80573 0.0
Co117 Co 0.05628 0.09131 0.73923 0.0
O118 O 0.00698 0.01866 0.7693 0.0
C119 C -0.00493 0.17299 0.75202 0.0
C120 C 0.17489 0.29904 0.81214 0.0
C121 C -0.00486 0.03263 0.7955 0.0
O122 O 0.05134 0.21922 0.76505 0.0
O123 O 0.98135 0.11092 0.75426 0.0
O124 O 0.16974 0.15744 0.80951 0.0
O125 O 0.13909 0.15305 0.76219 0.0
Co126 Co 0.81009 0.77044 0.69425 0.0
O127 O 0.82751 0.69387 0.69708 0.0
O128 O 0.72916 0.68608 0.68062 0.0
C129 C 0.91525 0.83653 0.66995 0.0
O130 O 0.77778 0.84133 0.68446 0.0
Co131 Co 0.8513 0.86939 0.72417 0.0
O132 O 0.75783 0.86069 0.72939 0.0
C133 C 0.77757 0.77547 0.76342 0.0
C134 C 0.7654 0.65576 0.68633 0.0
C135 C 0.75796 0.87351 0.70217 0.0
O136 O 0.77614 0.74429 0.7387 0.0
O137 O 0.80003 0.8397 0.76228 0.0
O138 O 0.85818 0.79686 0.65555 0.0
O139 O 0.90874 0.84239 0.69896 0.0
Co140 Co 0.10512 0.98436 0.66184 0.0
O141 O 0.18537 0.07246 0.67328 0.0
O142 O 0.17156 0.02241 0.62876 0.0
C143 C 0.01938 0.00348 0.67796 0.0
O144 O 0.02347 0.89611 0.64334 0.0
Co145 Co 0.01682 0.88153 0.71543 0.0
O146 O 0.00953 0.82514 0.67936 0.0
C147 C 0.14656 0.90237 0.70359 0.0
C148 C 0.20981 0.0746 0.64653 0.0
C149 C 0.98176 0.84232 0.65897 0.0
O150 O 0.1556 0.9338 0.67807 0.0
O151 O 0.08667 0.84959 0.70754 0.0
O152 O 0.05135 0.02984 0.65269 0.0
O153 O 0.04646 0.9747 0.69492 0.0
Co154 Co 0.85733 0.06563 0.68917 0.0
O155 O 0.77586 0.07539 0.69322 0.0
O156 O 0.85215 0.11998 0.65592 0.0
C157 C 0.78918 0.94826 0.69681 0.0
O158 O 0.94268 0.05261 0.67389 0.0
Co159 Co 0.9175 0.07028 0.71473 0.0
O160 O 0.94052 -0.00406 0.71461 0.0
C161 C 0.97358 0.18476 0.72186 0.0
C162 C 0.79306 0.10759 0.66771 0.0
C163 C 0.96286 0.01472 0.68835 0.0
O164 O 0.90784 0.15519 0.71757 0.0
O165 O 0.00119 0.1663 0.70223 0.0
O166 O 0.79957 0.97514 0.67014 0.0
O167 O 0.82196 0.99025 0.71898 0.0
Co168 Co 0.85002 0.48291 0.53314 0.0
O169 O 0.93853 0.48587 0.54013 0.0
O170 O 0.91179 0.52891 0.50037 0.0
C171 C 0.84346 0.51087 0.58294 0.0
O172 O 0.76131 0.4861 0.51675 0.0
Co173 Co 0.71853 0.41443 0.55937 0.0
O174 O 0.72657 0.50966 0.55766 0.0
C175 C 0.75114 0.34205 0.51116 0.0
C176 C 0.95598 0.51537 0.51387 0.0
C177 C 0.71716 0.49961 0.53003 0.0
O178 O 0.81508 0.39003 0.51276 0.0
O179 O 0.70407 0.34944 0.5243 0.0
O180 O 0.8764 0.5599 0.56292 0.0
O181 O 0.81328 0.44942 0.57161 0.0
Co182 Co 0.49224 0.40638 0.51619 0.0
O183 O 0.48373 0.48646 0.52677 0.0
O184 O 0.47759 0.44864 0.48023 0.0
C185 C 0.41896 0.34233 0.5567 0.0
O186 O 0.50476 0.32679 0.49676 0.0
Co187 Co 0.52417 0.31592 0.55255 0.0
O188 O 0.44687 0.24257 0.52776 0.0
C189 C 0.64127 0.44972 0.5252 0.0
C190 C 0.47606 0.49406 0.49839 0.0
C191 C 0.48446 0.26336 0.50478 0.0
O192 O 0.59872 0.46714 0.51337 0.0
O193 O 0.61893 0.39488 0.54141 0.0
O194 O 0.393 0.34295 0.53041 0.0
O195 O 0.48564 0.37514 0.55618 0.0
Co196 Co 0.58879 0.14323 0.50232 0.0
O197 O 0.49986 0.06251 0.50548 0.0
O198 O 0.5657 0.0946 0.46408 0.0
C199 C 0.61849 0.11776 0.5484 0.0
O200 O 0.68372 0.22972 0.49201 0.0
Co201 Co 0.65144 0.25551 0.55313 0.0
O202 O 0.73148 0.24803 0.53607 0.0
C203 C 0.54022 0.24469 0.50772 0.0
C204 C 0.50793 0.05074 0.47773 0.0
C205 C 0.73452 0.26907 0.50954 0.0
O206 O 0.5419 0.19853 0.49076 0.0
O207 O 0.57397 0.26402 0.53267 0.0
O208 O 0.63025 0.09262 0.52402 0.0
O209 O 0.59482 0.15909 0.54342 0.0
Co210 Co 0.73768 0.49353 0.6517 0.0
O211 O 0.7333 0.57683 0.64589 0.0
O212 O 0.7522 0.54095 0.68983 0.0
C213 C 0.80756 0.51919 0.60958 0.0
O214 O 0.74067 0.40557 0.66535 0.0
Co215 Co 0.70451 0.38207 0.60212 0.0
O216 O 0.78553 0.38853 0.62526 0.0
C217 C 0.59017 0.38995 0.6391 0.0
C218 C 0.74554 0.58742 0.6744 0.0
C219 C 0.75893 0.36701 0.65077 0.0
O220 O 0.63236 0.43845 0.65705 0.0
O221 O 0.61212 0.37008 0.6165 0.0
O222 O 0.83602 0.54336 0.63571 0.0
O223 O 0.74137 0.4786 0.61082 0.0
Co224 Co 0.38504 0.22093 0.62229 0.0
O225 O 0.29911 0.13958 0.60946 0.0
O226 O 0.32079 0.18008 0.65603 0.0
C227 C 0.38593 0.28277 0.57879 0.0
O228 O 0.47185 0.30239 0.64439 0.0
Co229 Co 0.51373 0.31269 0.59393 0.0
O230 O 0.50226 0.38794 0.61352 0.0
C231 C 0.49363 0.18042 0.62364 0.0
C232 C 0.27816 0.13317 0.63711 0.0
C233 C 0.51434 0.36709 0.63773 0.0
O234 O 0.42978 0.16081 0.63068 0.0
O235 O 0.53055 0.23687 0.60899 0.0
O236 O 0.35278 0.28301 0.60308 0.0
O237 O 0.41979 0.25071 0.58303 0.0
Co238 Co 0.67252 0.1529 0.6285 0.0
O239 O 0.76053 0.15473 0.62623 0.0
O240 O 0.6838 0.10729 0.66343 0.0
C241 C 0.65322 0.12604 0.57787 0.0
O242 O 0.57511 0.14533 0.63866 0.0
Co243 Co 0.61502 0.22083 0.59431 0.0
O244 O 0.53035 0.12435 0.59442 0.0
C245 C 0.70466 0.29346 0.64756 0.0
C246 C 0.74467 0.12396 0.65215 0.0
C247 C 0.52205 0.13185 0.62169 0.0
O248 O 0.72157 0.24606 0.64958 0.0
O249 O 0.65533 0.28563 0.63027 0.0
O250 O 0.63304 0.07633 0.59787 0.0
O251 O 0.67866 0.18689 0.58945 0.0
Co252 Co 0.51308 0.29087 0.14456 0.0
O253 O 0.42577 0.28216 0.12946 0.0
O254 O 0.44933 0.2686 0.17671 0.0
C255 C 0.58818 0.38912 0.11952 0.0
O256 O 0.59758 0.31669 0.17303 0.0
Co257 Co 0.57037 0.25085 0.13703 0.0
O258 O 0.58679 0.21693 0.17667 0.0
C259 C 0.495 0.1463 0.13247 0.0
C260 C 0.40551 0.26818 0.15746 0.0
C261 C 0.62136 0.27961 0.1837 0.0
O262 O 0.4673 0.18513 0.1308 0.0
O263 O 0.52801 0.15465 0.1565 0.0
O264 O 0.5575 0.39233 0.14406 0.0
O265 O 0.57287 0.3275 0.10997 0.0
Co266 Co 0.80127 0.33728 0.16079 0.0
O267 O 0.77928 0.24333 0.16484 0.0
O268 O 0.87835 0.33429 0.18054 0.0
C269 C 0.69469 0.30836 0.17701 0.0
O270 O 0.83591 0.44307 0.15688 0.0
Co271 Co 0.71401 0.37355 0.11957 0.0
O272 O 0.7339 0.43663 0.15427 0.0
C273 C 0.82775 0.35407 0.0941 0.0
C274 C 0.83931 0.26682 0.17715 0.0
C275 C 0.79905 0.47353 0.15634 0.0
O276 O 0.84227 0.33968 0.12014 0.0
O277 O 0.7799 0.36947 0.08969 0.0
O278 O 0.74396 0.32598 0.19676 0.0
O279 O 0.71153 0.30964 0.14917 0.0
Co280 Co 0.77867 0.59463 0.1112 0.0
O281 O 0.86345 0.68033 0.10481 0.0
O282 O 0.76448 0.67223 0.12033 0.0
C283 C 0.82479 0.54077 0.14082 0.0
O284 O 0.68234 0.50945 0.11976 0.0
Co285 Co 0.78426 0.47563 0.07969 0.0
O286 O 0.68261 0.43055 0.08798 0.0
C287 C 0.77989 0.57821 0.0454 0.0
C288 C 0.83087 0.71122 0.11433 0.0
C289 C 0.65184 0.44889 0.10702 0.0
O290 O 0.75041 0.59199 0.06703 0.0
O291 O 0.8226 0.55737 0.05178 0.0
O292 O 0.80836 0.5845 0.15216 0.0
O293 O 0.82485 0.54216 0.11171 0.0
Co294 Co 0.55808 0.11807 0.04074 0.0
O295 O 0.53822 0.0252 0.04906 0.0
O296 O 0.47057 0.05078 0.02175 0.0
C297 C 0.66886 0.152 0.02393 0.0
O298 O 0.56899 0.21302 0.02913 0.0
Co299 Co 0.67909 0.22738 0.07995 0.0
O300 O 0.65675 0.29187 0.05836 0.0
C301 C 0.53786 0.14735 0.10611 0.0
C302 C 0.48504 0.00384 0.03169 0.0
C303 C 0.60937 0.27601 0.03865 0.0
O304 O 0.51086 0.12093 0.08025 0.0
O305 O 0.6039 0.18053 0.11062 0.0
O306 O 0.61699 0.12417 0.0055 0.0
O307 O 0.65123 0.15318 0.05157 0.0
Co308 Co 0.81963 0.34183 -0.00076 0.0
O309 O 0.88397 0.4409 -0.00279 0.0
O310 O 0.90936 0.35921 0.98459 0.0
C311 C 0.73723 0.35778 0.97659 0.0
O312 O 0.75975 0.23373 0.99344 0.0
Co313 Co 0.75309 0.28125 0.03122 0.0
O314 O 0.78288 0.20855 0.03658 0.0
C315 C 0.84259 0.32475 0.06783 0.0
C316 C 0.92953 0.42506 0.98767 0.0
C317 C 0.74287 0.18887 0.01445 0.0
O318 O 0.85692 0.36034 0.04356 0.0
O319 O 0.79901 0.26162 0.06529 0.0
O320 O 0.78052 0.34669 0.96111 0.0
O321 O 0.73539 0.34706 0.00557 0.0
Co322 Co 0.61661 0.4311 0.00297 0.0
O323 O 0.54789 0.44343 0.02654 0.0
O324 O 0.56026 0.4504 0.97694 0.0
C325 C 0.60664 0.3359 0.02574 0.0
O326 O 0.66814 0.40982 0.96927 0.0
Co327 Co 0.75862 0.44971 0.02422 0.0
O328 O 0.77693 0.47092 0.98039 0.0
C329 C 0.75206 0.5635 0.01393 0.0
C330 C 0.52764 0.45406 0.00046 0.0
C331 C 0.72951 0.41769 0.96766 0.0
O332 O 0.686 0.53635 0.00985 0.0
O333 O 0.78004 0.53487 -0.00021 0.0
O334 O 0.55954 0.3297 0.00639 0.0
O335 O 0.65453 0.39915 0.03268 0.0
Co336 Co 0.56947 0.81885 0.87587 0.0
O337 O 0.65825 0.82808 0.88636 0.0
O338 O 0.63482 0.85965 0.84253 0.0
C339 C 0.56192 0.85965 0.92379 0.0
O340 O 0.48027 0.81389 0.85644 0.0
Co341 Co 0.43831 0.75645 0.90331 0.0
O342 O 0.44492 0.84872 0.89401 0.0
C343 C 0.46971 0.66912 0.86182 0.0
C344 C 0.67945 0.85406 0.85975 0.0
C345 C 0.43498 0.82868 0.86729 0.0
O346 O 0.53404 0.71884 0.86056 0.0
O347 O 0.42448 0.67836 0.87558 0.0
O348 O 0.59323 0.90305 0.90162 0.0
O349 O 0.53321 0.7961 0.91521 0.0
Co350 Co 0.21261 0.72688 0.8523 0.0
O351 O 0.20743 0.81033 0.85844 0.0
O352 O 0.19798 0.75909 0.8143 0.0
C353 C 0.14218 0.67231 0.89455 0.0
O354 O 0.22077 0.64321 0.83648 0.0
Co355 Co 0.24652 0.64443 0.89648 0.0
O356 O 0.16825 0.56967 0.87202 0.0
C357 C 0.36027 0.77473 0.8638 0.0
C358 C 0.20006 0.8103 0.82946 0.0
C359 C 0.2003 0.5825 0.84758 0.0
O360 O 0.31762 0.78513 0.84797 0.0
O361 O 0.33876 0.7261 0.88364 0.0
O362 O 0.11417 0.66826 0.86823 0.0
O363 O 0.2087 0.70442 0.89328 0.0
Co364 Co 0.30016 0.46132 0.85279 0.0
O365 O 0.2123 0.37521 0.85463 0.0
O366 O 0.2829 0.41065 0.81511 0.0
C367 C 0.32475 0.44123 0.90067 0.0
O368 O 0.3953 0.554 0.84375 0.0
Co369 Co 0.3622 0.57742 0.89861 0.0
O370 O 0.44728 0.57314 0.88681 0.0
C371 C 0.25519 0.56412 0.85083 0.0
C372 C 0.22414 0.36407 0.82734 0.0
C373 C 0.44919 0.59372 0.86031 0.0
O374 O 0.25036 0.51025 0.83787 0.0
O375 O 0.29373 0.59181 0.87397 0.0
O376 O 0.34272 0.41694 0.87771 0.0
O377 O 0.29937 0.47996 0.89344 0.0
Co378 Co 0.45341 0.8445 0.99182 0.0
O379 O 0.45151 0.93062 0.98837 0.0
O380 O 0.46512 0.88678 0.03098 0.0
C381 C 0.5259 0.87323 0.94938 0.0
O382 O 0.45256 0.75258 0.0041 0.0
Co383 Co 0.43004 0.73791 0.94541 0.0
O384 O 0.51123 0.74277 0.96777 0.0
C385 C 0.30894 0.73778 0.97976 0.0
C386 C 0.46026 0.93626 0.01726 0.0
C387 C 0.47787 0.71736 0.99158 0.0
O388 O 0.34829 0.7906 -0.0037 0.0
O389 O 0.33441 0.71674 0.959 0.0
O390 O 0.5525 0.8936 0.97615 0.0
O391 O 0.45962 0.83382 0.95017 0.0
Co392 Co 0.10639 0.56369 0.96506 0.0
O393 O 0.02305 0.48087 0.95256 0.0
O394 O 0.03934 0.52965 -0.00229 0.0
C395 C 0.11049 0.61803 0.91898 0.0
O396 O 0.19052 0.64968 0.98646 0.0
Co397 Co 0.23703 0.64035 0.94023 0.0
O398 O 0.22262 0.72164 0.94965 0.0
C399 C 0.21338 0.52261 0.97965 0.0
C400 C -0.00052 0.47963 0.97933 0.0
C401 C 0.23289 0.71147 0.97628 0.0
O402 O 0.14782 0.50282 0.9783 0.0
O403 O 0.25761 0.58231 0.96952 0.0
O404 O 0.07585 0.62234 0.94185 0.0
O405 O 0.14368 0.586 0.92578 0.0
Co406 Co 0.38954 0.49597 0.97871 0.0
O407 O 0.47844 0.50565 0.97058 0.0
O408 O 0.41978 0.45799 0.0123 0.0
C409 C 0.35981 0.45769 0.93016 0.0
O410 O 0.29281 0.4835 0.99269 0.0
Co411 Co 0.31714 0.55342 0.93799 0.0
O412 O 0.23942 0.45904 0.94969 0.0
C413 C 0.42714 0.6428 0.98594 0.0
C414 C 0.47465 0.47478 -0.00441 0.0
C415 C 0.23787 0.47097 0.97721 0.0
O416 O 0.43592 0.59336 -0.00362 0.0
O417 O 0.38722 0.63375 0.96346 0.0
O418 O 0.34824 0.41272 0.95146 0.0
O419 O 0.38154 0.51977 0.93958 0.0
Co420 Co 0.13005 0.59166 0.47754 0.0
O421 O 0.03793 0.57666 0.47658 0.0
O422 O 0.07184 0.52415 0.50895 0.0
C423 C 0.17727 0.70933 0.47829 0.0
O424 O 0.22828 0.60352 0.47965 0.0
Co425 Co 0.19781 0.66648 0.4183 0.0
O426 O 0.27667 0.658 0.43543 0.0
C427 C 0.10909 0.5182 0.41686 0.0
C428 C 0.02342 0.53723 0.49958 0.0
C429 C 0.27894 0.62965 0.4601 0.0
O430 O 0.10854 0.51615 0.44592 0.0
O431 O 0.12315 0.57387 0.40271 0.0
O432 O 0.16164 0.67587 0.50352 0.0
O433 O 0.15694 0.6701 0.45499 0.0
Co434 Co 0.4506 0.64205 0.47378 0.0
O435 O 0.4355 0.5502 0.46301 0.0
O436 O 0.48866 0.60824 0.50434 0.0
C437 C 0.34359 0.62708 0.46487 0.0
O438 O 0.46927 0.73331 0.49334 0.0
Co439 Co 0.45021 0.74166 0.4234 0.0
O440 O 0.51787 0.79952 0.45489 0.0
C441 C 0.55628 0.70422 0.42183 0.0
C442 C 0.46702 0.55246 0.48803 0.0
C443 C 0.48481 0.78936 0.47909 0.0
O444 O 0.5428 0.68702 0.45004 0.0
O445 O 0.53691 0.74348 0.4094 0.0
O446 O 0.35527 0.6022 0.48936 0.0
O447 O 0.39311 0.65036 0.44467 0.0
Co448 Co 0.38206 0.87112 0.46035 0.0
O449 O 0.47384 0.94661 0.44993 0.0
O450 O 0.3927 0.95624 0.47551 0.0
C451 C 0.42839 0.80588 0.47581 0.0
O452 O 0.28911 0.80382 0.48395 0.0
Co453 Co 0.31166 0.80405 0.4402 0.0
O454 O 0.22398 0.80638 0.44982 0.0
C455 C 0.30346 0.86282 0.40216 0.0
C456 C 0.45584 0.98527 0.465 0.0
C457 C 0.22744 0.78311 0.47485 0.0
O458 O 0.36129 0.89298 0.41624 0.0
O459 O 0.25215 0.83828 0.41943 0.0
O460 O 0.42403 0.84939 0.49394 0.0
O461 O 0.39748 0.79516 0.4497 0.0
Co462 Co 0.22734 0.46266 0.36199 0.0
O463 O 0.21625 0.37268 0.37576 0.0
O464 O 0.14383 0.37601 0.3434 0.0
C465 C 0.34164 0.50734 0.35122 0.0
O466 O 0.24223 0.55694 0.34215 0.0
Co467 Co 0.205 0.46745 0.36179 0.0
O468 O 0.13906 0.48687 0.33436 0.0
C469 C 0.12459 0.47004 0.39961 0.0
C470 C 0.16551 0.33918 0.35732 0.0
C471 C 0.18828 0.54693 0.32921 0.0
O472 O 0.18142 0.47135 0.40398 0.0
O473 O 0.10845 0.45814 0.37251 0.0
O474 O 0.29698 0.46821 0.33098 0.0
O475 O 0.31328 0.51532 0.37494 0.0
Co476 Co 0.51996 0.69252 0.34212 0.0
O477 O 0.59062 0.78915 0.34671 0.0
O478 O 0.59322 0.71726 0.31261 0.0
C479 C 0.42547 0.70692 0.34421 0.0
O480 O 0.45053 0.58987 0.33091 0.0
Co481 Co 0.41882 0.61238 0.39687 0.0
O482 O 0.44225 0.54719 0.37556 0.0
C483 C 0.55561 0.65148 0.40142 0.0
C484 C 0.62282 0.7792 0.32456 0.0
C485 C 0.41802 0.5389 0.34946 0.0
O486 O 0.57336 0.66873 0.37362 0.0
O487 O 0.49872 0.59518 0.40526 0.0
O488 O 0.46004 0.71906 0.31913 0.0
O489 O 0.45216 0.69243 0.36734 0.0
Co490 Co 0.23317 0.72409 0.32471 0.0
O491 O 0.14884 0.72627 0.31964 0.0
O492 O 0.24376 0.7922 0.29322 0.0
C493 C 0.17891 0.60632 0.32443 0.0
O494 O 0.33007 0.72675 0.32765 0.0
Co495 Co 0.23792 0.656 0.38313 0.0
O496 O 0.32744 0.67164 0.37125 0.0
C497 C 0.2946 0.80765 0.38126 0.0
C498 C 0.17907 0.77391 0.2997 0.0
C499 C 0.35729 0.70239 0.34714 0.0
O500 O 0.26342 0.80023 0.35609 0.0
O501 O 0.29668 0.75705 0.39383 0.0
O502 O 0.19809 0.64061 0.29927 0.0
O503 O 0.18501 0.64349 0.34765 0.0
loop_
_geom_bond_atom_site_label_1
_geom_bond_atom_site_label_2
_geom_bond_distance
_geom_bond_site_symmetry_2
_ccdc_geom_bond_type
Co0 O1 2.216 . S
Co0 O2 2.091 . S
Co0 O4 2.004 . S
Co0 O10 2.021 . S
Co0 O12 2.137 . S
Co0 O13 2.244 . S
O1 Co0 2.216 . S
O1 C8 1.247 . S
O2 Co0 2.091 . S
O2 C8 1.261 . S
C3 O12 1.247 . S
C3 O13 1.272 . S
O4 Co0 2.004 . S
O4 C9 1.259 . S
Co5 O6 2.061 . S
Co5 O11 2.052 . S
Co5 O13 2.135 . S
O6 Co5 2.061 . S
O6 C9 1.235 . S
C7 O10 1.238 . S
C7 O11 1.241 . S
C8 O1 1.247 . S
C8 O2 1.261 . S
C9 O4 1.259 . S
C9 O6 1.235 . S
O10 Co0 2.021 . S
O10 C7 1.238 . S
O11 Co5 2.052 . S
O11 C7 1.241 . S
O12 Co0 2.137 . S
O12 C3 1.247 . S
O13 Co0 2.244 . S
O13 C3 1.272 . S
O13 Co5 2.135 . S
Co14 O15 2.216 . S
Co14 O16 2.091 . S
Co14 O18 2.004 1_545 S
Co14 O24 2.021 . S
Co14 O26 2.137 1_545 S
Co14 O27 2.244 . S
O15 Co14 2.216 . S
O15 C22 1.247 . S
O16 Co14 2.091 . S
O16 C22 1.261 . S
C17 O26 1.247 . S
C17 O27 1.272 1_565 S
O18 Co14 2.004 1_565 S
O18 C23 1.259 . S
Co19 O20 2.061 . S
Co19 O25 2.052 1_565 S
Co19 O27 2.135 1_565 S
O20 Co19 2.061 . S
O20 C23 1.235 . S
C21 O24 1.238 . S
C21 O25 1.241 . S
C22 O15 1.247 . S
C22 O16 1.261 . S
C23 O18 1.259 . S
C23 O20 1.235 . S
O24 Co14 2.021 . S
O24 C21 1.238 . S
O25 Co19 2.052 1_545 S
O25 C21 1.241 . S
O26 Co14 2.137 1_565 S
O26 C17 1.247 . S
O27 Co14 2.244 . S
O27 C17 1.272 1_545 S
O27 Co19 2.135 1_545 S
Co28 O29 2.216 . S
Co28 O30 2.091 . S
Co28 O32 2.004 1_655 S
Co28 O38 2.021 . S
Co28 O40 2.137 1_655 S
Co28 O41 2.244 . S
O29 Co28 2.216 . S
O29 C36 1.247 . S
O30 Co28 2.091 . S
O30 C36 1.261 . S
C31 O40 1.247 . S
C31 O41 1.272 1_455 S
O32 Co28 2.004 1_455 S
O32 C37 1.259 . S
Co33 O34 2.061 . S
Co33 O39 2.052 1_455 S
Co33 O41 2.135 1_455 S
O34 Co33 2.061 . S
O34 C37 1.235 . S
C35 O38 1.238 . S
C35 O39 1.241 . S
C36 O29 1.247 . S
C36 O30 1.261 . S
C37 O32 1.259 . S
C37 O34 1.235 . S
O38 Co28 2.021 . S
O38 C35 1.238 . S
O39 Co33 2.052 1_655 S
O39 C35 1.241 . S
O40 Co28 2.137 1_455 S
O40 C31 1.247 . S
O41 Co28 2.244 . S
O41 C31 1.272 1_655 S
O41 Co33 2.135 1_655 S
Co42 O43 2.216 . S
Co42 O44 2.091 . S
Co42 O46 2.004 . S
Co42 O52 2.021 . S
Co42 O54 2.137 . S
Co42 O55 2.244 . S
O43 Co42 2.216 . S
O43 C50 1.247 . S
O44 Co42 2.091 . S
O44 C50 1.261 . S
C45 O54 1.247 . S
C45 O55 1.272 . S
O46 Co42 2.004 . S
O46 C51 1.259 . S
Co47 O48 2.061 . S
Co47 O53 2.052 . S
Co47 O55 2.135 . S
O48 Co47 2.061 . S
O48 C51 1.235 . S
C49 O52 1.238 . S
C49 O53 1.241 . S
C50 O43 1.247 . S
C50 O44 1.261 . S
C51 O46 1.259 . S
C51 O48 1.235 . S
O52 Co42 2.021 . S
O52 C49 1.238 . S
O53 Co47 2.052 . S
O53 C49 1.241 . S
O54 Co42 2.137 . S
O54 C45 1.247 . S
O55 Co42 2.244 . S
O55 C45 1.272 . S
O55 Co47 2.135 . S
Co56 O57 2.216 . S
Co56 O58 2.091 . S
Co56 O60 2.004 1_565 S
Co56 O66 2.021 . S
Co56 O68 2.137 1_565 S
Co56 O69 2.244 . S
O57 Co56 2.216 . S
O57 C64 1.247 . S
O58 Co56 2.091 . S
O58 C64 1.261 . S
C59 O68 1.247 . S
C59 O69 1.272 1_545 S
O60 Co56 2.004 1_545 S
O60 C65 1.259 . S
Co61 O62 2.061 . S
Co61 O67 2.052 1_545 S
Co61 O69 2.135 1_545 S
O62 Co61 2.061 . S
O62 C65 1.235 . S
C63 O66 1.238 . S
C63 O67 1.241 . S
C64 O57 1.247 . S
C64 O58 1.261 . S
C65 O60 1.259 . S
C65 O62 1.235 . S
O66 Co56 2.021 . S
O66 C63 1.238 . S
O67 Co61 2.052 1_565 S
O67 C63 1.241 . S
O68 Co56 2.137 1_545 S
O68 C59 1.247 . S
O69 Co56 2.244 . S
O69 C59 1.272 1_565 S
O69 Co61 2.135 1_565 S
Co70 O71 2.216 . S
Co70 O72 2.091 . S
Co70 O74 2.004 1_455 S
Co70 O80 2.021 . S
Co70 O82 2.137 1_455 S
Co70 O83 2.244 . S
O71 Co70 2.216 . S
O71 C78 1.247 . S
O72 Co70 2.091 . S
O72 C78 1.261 . S
C73 O82 1.247 . S
C73 O83 1.272 1_655 S
O74 Co70 2.004 1_655 S
O74 C79 1.259 . S
Co75 O76 2.061 . S
Co75 O81 2.052 1_655 S
Co75 O83 2.135 1_655 S
O76 Co75 2.061 . S
O76 C79 1.235 . S
C77 O80 1.238 . S
C77 O81 1.241 . S
C78 O71 1.247 . S
C78 O72 1.261 . S
C79 O74 1.259 . S
C79 O76 1.235 . S
O80 Co70 2.021 . S
O80 C77 1.238 . S
O81 Co75 2.052 1_455 S
O81 C77 1.241 . S
O82 Co70 2.137 1_655 S
O82 C73 1.247 . S
O83 Co70 2.244 . S
O83 C73 1.272 1_455 S
O83 Co75 2.135 1_455 S
Co84 O85 2.216 . S
Co84 O86 2.091 . S
Co84 O88 2.004 . S
Co84 O94 2.021 . S
Co84 O96 2.137 . S
Co84 O97 2.244 . S
O85 Co84 2.216 . S
O85 C92 1.247 . S
O86 Co84 2.091 . S
O86 C92 1.261 . S
C87 O96 1.247 . S
C87 O97 1.272 . S
O88 Co84 2.004 . S
O88 C93 1.259 . S
Co89 O90 2.061 . S
Co89 O95 2.052 . S
Co89 O97 2.135 . S
O90 Co89 2.061 . S
O90 C93 1.235 . S
C91 O94 1.238 . S
C91 O95 1.241 . S
C92 O85 1.247 . S
C92 O86 1.261 . S
C93 O88 1.259 . S
C93 O90 1.235 . S
O94 Co84 2.021 . S
O94 C91 1.238 . S
O95 Co89 2.052 . S
O95 C91 1.241 . S
O96 Co84 2.137 . S
O96 C87 1.247 . S
O97 Co84 2.244 . S
O97 C87 1.272 . S
O97 Co89 2.135 . S
Co98 O99 2.216 . S
Co98 O100 2.091 . S
Co98 O102 2.004 1_565 S
Co98 O108 2.021 1_565 S
Co98 O110 2.137 . S
Co98 O111 2.244 . S
O99 Co98 2.216 . S
O99 C106 1.247 . S
O100 Co98 2.091 . S
O100 C106 1.261 . S
C101 O110 1.247 . S
C101 O111 1.272 . S
O102 Co98 2.004 1_545 S
O102 C107 1.259 . S
Co103 O104 2.061 . S
Co103 O109 2.052 . S
Co103 O111 2.135 1_545 S
O104 Co103 2.061 . S
O104 C107 1.235 . S
C105 O108 1.238 . S
C105 O109 1.241 . S
C106 O99 1.247 . S
C106 O100 1.261 . S
C107 O102 1.259 . S
C107 O104 1.235 . S
O108 Co98 2.021 1_545 S
O108 C105 1.238 . S
O109 Co103 2.052 . S
O109 C105 1.241 . S
O110 Co98 2.137 . S
O110 C101 1.247 . S
O111 Co98 2.244 . S
O111 C101 1.272 . S
O111 Co103 2.135 1_565 S
Co112 O113 2.216 . S
Co112 O114 2.091 . S
Co112 O116 2.004 1_455 S
Co112 O122 2.021 1_455 S
Co112 O124 2.137 . S
Co112 O125 2.244 . S
O113 Co112 2.216 . S
O113 C120 1.247 . S
O114 Co112 2.091 . S
O114 C120 1.261 . S
C115 O124 1.247 . S
C115 O125 1.272 . S
O116 Co112 2.004 1_655 S
O116 C121 1.259 . S
Co117 O118 2.061 . S
Co117 O123 2.052 . S
Co117 O125 2.135 1_655 S
O118 Co117 2.061 . S
O118 C121 1.235 . S
C119 O122 1.238 . S
C119 O123 1.241 . S
C120 O113 1.247 . S
C120 O114 1.261 . S
C121 O116 1.259 . S
C121 O118 1.235 . S
O122 Co112 2.021 1_655 S
O122 C119 1.238 . S
O123 Co117 2.052 . S
O123 C119 1.241 . S
O124 Co112 2.137 . S
O124 C115 1.247 . S
O125 Co112 2.244 . S
O125 C115 1.272 . S
O125 Co117 2.135 1_455 S
Co126 O127 2.216 . S
Co126 O128 2.091 . S
Co126 O130 2.004 . S
Co126 O136 2.021 . S
Co126 O138 2.137 . S
Co126 O139 2.244 . S
O127 Co126 2.216 . S
O127 C134 1.247 . S
O128 Co126 2.091 . S
O128 C134 1.261 . S
C129 O138 1.247 . S
C129 O139 1.272 . S
O130 Co126 2.004 . S
O130 C135 1.259 . S
Co131 O132 2.061 . S
Co131 O137 2.052 . S
Co131 O139 2.135 . S
O132 Co131 2.061 . S
O132 C135 1.235 . S
C133 O136 1.238 . S
C133 O137 1.241 . S
C134 O127 1.247 . S
C134 O128 1.261 . S
C135 O130 1.259 . S
C135 O132 1.235 . S
O136 Co126 2.021 . S
O136 C133 1.238 . S
O137 Co131 2.052 . S
O137 C133 1.241 . S
O138 Co126 2.137 . S
O138 C129 1.247 . S
O139 Co126 2.244 . S
O139 C129 1.272 . S
O139 Co131 2.135 . S
Co140 O141 2.216 . S
Co140 O142 2.091 . S
Co140 O144 2.004 1_545 S
Co140 O150 2.021 1_545 S
Co140 O152 2.137 . S
Co140 O153 2.244 . S
O141 Co140 2.216 . S
O141 C148 1.247 . S
O142 Co140 2.091 . S
O142 C148 1.261 . S
C143 O152 1.247 . S
C143 O153 1.272 . S
O144 Co140 2.004 1_565 S
O144 C149 1.259 . S
Co145 O146 2.061 . S
Co145 O151 2.052 . S
Co145 O153 2.135 1_565 S
O146 Co145 2.061 . S
O146 C149 1.235 . S
C147 O150 1.238 . S
C147 O151 1.241 . S
C148 O141 1.247 . S
C148 O142 1.261 . S
C149 O144 1.259 . S
C149 O146 1.235 . S
O150 Co140 2.021 1_565 S
O150 C147 1.238 . S
O151 Co145 2.052 . S
O151 C147 1.241 . S
O152 Co140 2.137 . S
O152 C143 1.247 . S
O153 Co140 2.244 . S
O153 C143 1.272 . S
O153 Co145 2.135 1_545 S
Co154 O155 2.216 . S
Co154 O156 2.091 . S
Co154 O158 2.004 1_655 S
Co154 O164 2.021 1_655 S
Co154 O166 2.137 . S
Co154 O167 2.244 . S
O155 Co154 2.216 . S
O155 C162 1.247 . S
O156 Co154 2.091 . S
O156 C162 1.261 . S
C157 O166 1.247 . S
C157 O167 1.272 . S
O158 Co154 2.004 1_455 S
O158 C163 1.259 . S
Co159 O160 2.061 . S
Co159 O165 2.052 . S
Co159 O167 2.135 1_455 S
O160 Co159 2.061 . S
O160 C163 1.235 . S
C161 O164 1.238 . S
C161 O165 1.241 . S
C162 O155 1.247 . S
C162 O156 1.261 . S
C163 O158 1.259 . S
C163 O160 1.235 . S
O164 Co154 2.021 1_455 S
O164 C161 1.238 . S
O165 Co159 2.052 . S
O165 C161 1.241 . S
O166 Co154 2.137 . S
O166 C157 1.247 . S
O167 Co154 2.244 . S
O167 C157 1.272 . S
O167 Co159 2.135 1_655 S
Co168 O169 2.216 . S
Co168 O170 2.091 . S
Co168 O172 2.004 . S
Co168 O178 2.021 . S
Co168 O180 2.137 . S
Co168 O181 2.244 . S
O169 Co168 2.216 . S
O169 C176 1.247 . S
O170 Co168 2.091 . S
O170 C176 1.261 . S
C171 O180 1.247 . S
C171 O181 1.272 . S
O172 Co168 2.004 . S
O172 C177 1.259 . S
Co173 O174 2.061 . S
Co173 O179 2.052 . S
Co173 O181 2.135 . S
O174 Co173 2.061 . S
O174 C177 1.235 . S
C175 O178 1.238 . S
C175 O179 1.241 . S
C176 O169 1.247 . S
C176 O170 1.261 . S
C177 O172 1.259 . S
C177 O174 1.235 . S
O178 Co168 2.021 . S
O178 C175 1.238 . S
O179 Co173 2.052 . S
O179 C175 1.241 . S
O180 Co168 2.137 . S
O180 C171 1.247 . S
O181 Co168 2.244 . S
O181 C171 1.272 . S
O181 Co173 2.135 . S
Co182 O183 2.216 . S
Co182 O184 2.091 . S
Co182 O186 2.004 . S
Co182 O192 2.021 . S
Co182 O194 2.137 . S
Co182 O195 2.244 . S
O183 Co182 2.216 . S
O183 C190 1.247 . S
O184 Co182 2.091 . S
O184 C190 1.261 . S
C185 O194 1.247 . S
C185 O195 1.272 . S
O186 Co182 2.004 . S
O186 C191 1.259 . S
Co187 O188 2.061 . S
Co187 O193 2.052 . S
Co187 O195 2.135 . S
O188 Co187 2.061 . S
O188 C191 1.235 . S
C189 O192 1.238 . S
C189 O193 1.241 . S
C190 O183 1.247 . S
C190 O184 1.261 . S
C191 O186 1.259 . S
C191 O188 1.235 . S
O192 Co182 2.021 . S
O192 C189 1.238 . S
O193 Co187 2.052 . S
O193 C189 1.241 . S
O194 Co182 2.137 . S
O194 C185 1.247 . S
O195 Co182 2.244 . S
O195 C185 1.272 . S
O195 Co187 2.135 . S
Co196 O197 2.216 . S
Co196 O198 2.091 . S
Co196 O200 2.004 . S
Co196 O206 2.021 . S
Co196 O208 2.137 . S
Co196 O209 2.244 . S
O197 Co196 2.216 . S
O197 C204 1.247 . S
O198 Co196 2.091 . S
O198 C204 1.261 . S
C199 O208 1.247 . S
C199 O209 1.272 . S
O200 Co196 2.004 . S
O200 C205 1.259 . S
Co201 O202 2.061 . S
Co201 O207 2.052 . S
Co201 O209 2.135 . S
O202 Co201 2.061 . S
O202 C205 1.235 . S
C203 O206 1.238 . S
C203 O207 1.241 . S
C204 O197 1.247 . S
C204 O198 1.261 . S
C205 O200 1.259 . S
C205 O202 1.235 . S
O206 Co196 2.021 . S
O206 C203 1.238 . S
O207 Co201 2.052 . S
O207 C203 1.241 . S
O208 Co196 2.137 . S
O208 C199 1.247 . S
O209 Co196 2.244 . S
O209 C199 1.272 . S
O209 Co201 2.135 . S
Co210 O211 2.216 . S
Co210 O212 2.091 . S
Co210 O214 2.004 . S
Co210 O220 2.021 . S
Co210 O222 2.137 . S
Co210 O223 2.244 . S
O211 Co210 2.216 . S
O211 C218 1.247 . S
O212 Co210 2.091 . S
O212 C218 1.261 . S
C213 O222 1.247 . S
C213 O223 1.272 . S
O214 Co210 2.004 . S
O214 C219 1.259 . S
Co215 O216 2.061 . S
Co215 O221 2.052 . S
Co215 O223 2.135 . S
O216 Co215 2.061 . S
O216 C219 1.235 . S
C217 O220 1.238 . S
C217 O221 1.241 . S
C218 O211 1.247 . S
C218 O212 1.261 . S
C219 O214 1.259 . S
C219 O216 1.235 . S
O220 Co210 2.021 . S
O220 C217 1.238 . S
O221 Co215 2.052 . S
O221 C217 1.241 . S
O222 Co210 2.137 . S
O222 C213 1.247 . S
O223 Co210 2.244 . S
O223 C213 1.272 . S
O223 Co215 2.135 . S
Co224 O225 2.216 . S
Co224 O226 2.091 . S
Co224 O228 2.004 . S
Co224 O234 2.021 . S
Co224 O236 2.137 . S
Co224 O237 2.244 . S
O225 Co224 2.216 . S
O225 C232 1.247 . S
O226 Co224 2.091 . S
O226 C232 1.261 . S
C227 O236 1.247 . S
C227 O237 1.272 . S
O228 Co224 2.004 . S
O228 C233 1.259 . S
Co229 O230 2.061 . S
Co229 O235 2.052 . S
Co229 O237 2.135 . S
O230 Co229 2.061 . S
O230 C233 1.235 . S
C231 O234 1.238 . S
C231 O235 1.241 . S
C232 O225 1.247 . S
C232 O226 1.261 . S
C233 O228 1.259 . S
C233 O230 1.235 . S
O234 Co224 2.021 . S
O234 C231 1.238 . S
O235 Co229 2.052 . S
O235 C231 1.241 . S
O236 Co224 2.137 . S
O236 C227 1.247 . S
O237 Co224 2.244 . S
O237 C227 1.272 . S
O237 Co229 2.135 . S
Co238 O239 2.216 . S
Co238 O240 2.091 . S
Co238 O242 2.004 . S
Co238 O248 2.021 . S
Co238 O250 2.137 . S
Co238 O251 2.244 . S
O239 Co238 2.216 . S
O239 C246 1.247 . S
O240 Co238 2.091 . S
O240 C246 1.261 . S
C241 O250 1.247 . S
C241 O251 1.272 . S
O242 Co238 2.004 . S
O242 C247 1.259 . S
Co243 O244 2.061 . S
Co243 O249 2.052 . S
Co243 O251 2.135 . S
O244 Co243 2.061 . S
O244 C247 1.235 . S
C245 O248 1.238 . S
C245 O249 1.241 . S
C246 O239 1.247 . S
C246 O240 1.261 . S
C247 O242 1.259 . S
C247 O244 1.235 . S
O248 Co238 2.021 . S
O248 C245 1.238 . S
O249 Co243 2.052 . S
O249 C245 1.241 . S
O250 Co238 2.137 . S
O250 C241 1.247 . S
O251 Co238 2.244 . S
O251 C241 1.272 . S
O251 Co243 2.135 . S
Co252 O253 2.216 . S
Co252 O254 2.091 . S
Co252 O256 2.004 . S
Co252 O262 2.021 . S
Co252 O264 2.137 . S
Co252 O265 2.244 . S
O253 Co252 2.216 . S
O253 C260 1.247 . S
O254 Co252 2.091 . S
O254 C260 1.261 . S
C255 O264 1.247 . S
C255 O265 1.272 . S
O256 Co252 2.004 . S
O256 C261 1.259 . S
Co257 O258 2.061 . S
Co257 O263 2.052 . S
Co257 O265 2.135 . S
O258 Co257 2.061 . S
O258 C261 1.235 . S
C259 O262 1.238 . S
C259 O263 1.241 . S
C260 O253 1.247 . S
C260 O254 1.261 . S
C261 O256 1.259 . S
C261 O258 1.235 . S
O262 Co252 2.021 . S
O262 C259 1.238 . S
O263 Co257 2.052 . S
O263 C259 1.241 . S
O264 Co252 2.137 . S
O264 C255 1.247 . S
O265 Co252 2.244 . S
O265 C255 1.272 . S
O265 Co257 2.135 . S
Co266 O267 2.216 . S
Co266 O268 2.091 . S
Co266 O270 2.004 . S
Co266 O276 2.021 . S
Co266 O278 2.137 . S
Co266 O279 2.244 . S
O267 Co266 2.216 . S
O267 C274 1.247 . S
O268 Co266 2.091 . S
O268 C274 1.261 . S
C269 O278 1.247 . S
C269 O279 1.272 . S
O270 Co266 2.004 . S
O270 C275 1.259 . S
Co271 O272 2.061 . S
Co271 O277 2.052 . S
Co271 O279 2.135 . S
O272 Co271 2.061 . S
O272 C275 1.235 . S
C273 O276 1.238 . S
C273 O277 1.241 . S
C274 O267 1.247 . S
C274 O268 1.261 . S
C275 O270 1.259 . S
C275 O272 1.235 . S
O276 Co266 2.021 . S
O276 C273 1.238 . S
O277 Co271 2.052 . S
O277 C273 1.241 . S
O278 Co266 2.137 . S
O278 C269 1.247 . S
O279 Co266 2.244 . S
O279 C269 1.272 . S
O279 Co271 2.135 . S
Co280 O281 2.216 . S
Co280 O282 2.091 . S
Co280 O284 2.004 . S
Co280 O290 2.021 . S
Co280 O292 2.137 . S
Co280 O293 2.244 . S
O281 Co280 2.216 . S
O281 C288 1.247 . S
O282 Co280 2.091 . S
O282 C288 1.261 . S
C283 O292 1.247 . S
C283 O293 1.272 . S
O284 Co280 2.004 . S
O284 C289 1.259 . S
Co285 O286 2.061 . S
Co285 O291 2.052 . S
Co285 O293 2.135 . S
O286 Co285 2.061 . S
O286 C289 1.235 . S
C287 O290 1.238 . S
C287 O291 1.241 . S
C288 O281 1.247 . S
C288 O282 1.261 . S
C289 O284 1.259 . S
C289 O286 1.235 . S
O290 Co280 2.021 . S
O290 C287 1.238 . S
O291 Co285 2.052 . S
O291 C287 1.241 . S
O292 Co280 2.137 . S
O292 C283 1.247 . S
O293 Co280 2.244 . S
O293 C283 1.272 . S
O293 Co285 2.135 . S
Co294 O295 2.214 1_556 S
Co294 O296 2.098 . S
Co294 O298 2.010 . S
Co294 O304 2.009 1_556 S
Co294 O306 2.145 . S
Co294 O307 2.239 1_556 S
O295 Co294 2.214 1_554 S
O295 C302 1.247 1_554 S
O296 Co294 2.098 . S
O296 C302 1.261 . S
C297 O306 1.247 . S
C297 O307 1.272 1_556 S
O298 Co294 2.010 . S
O298 C303 1.259 . S
Co299 O300 2.061 . S
Co299 O305 2.052 . S
Co299 O307 2.135 . S
O300 Co299 2.061 . S
O300 C303 1.235 1_554 S
C301 O304 1.238 . S
C301 O305 1.241 . S
C302 O295 1.247 1_556 S
C302 O296 1.261 . S
C303 O298 1.259 . S
C303 O300 1.235 1_556 S
O304 Co294 2.009 1_554 S
O304 C301 1.238 . S
O305 Co299 2.052 . S
O305 C301 1.241 . S
O306 Co294 2.145 . S
O306 C297 1.247 . S
O307 Co294 2.239 1_554 S
O307 C297 1.272 1_554 S
O307 Co299 2.135 . S
Co308 O309 2.214 1_556 S
Co308 O310 2.098 . S
Co308 O312 2.010 . S
Co308 O318 2.009 1_556 S
Co308 O320 2.145 . S
Co308 O321 2.239 1_556 S
O309 Co308 2.214 1_554 S
O309 C316 1.247 1_554 S
O310 Co308 2.098 . S
O310 C316 1.261 . S
C311 O320 1.247 . S
C311 O321 1.272 1_556 S
O312 Co308 2.010 . S
O312 C317 1.259 . S
Co313 O314 2.061 . S
Co313 O319 2.052 . S
Co313 O321 2.135 . S
O314 Co313 2.061 . S
O314 C317 1.235 1_554 S
C315 O318 1.238 . S
C315 O319 1.241 . S
C316 O309 1.247 1_556 S
C316 O310 1.261 . S
C317 O312 1.259 . S
C317 O314 1.235 1_556 S
O318 Co308 2.009 1_554 S
O318 C315 1.238 . S
O319 Co313 2.052 . S
O319 C315 1.241 . S
O320 Co308 2.145 . S
O320 C311 1.247 . S
O321 Co308 2.239 1_554 S
O321 C311 1.272 1_554 S
O321 Co313 2.135 . S
Co322 O323 2.214 1_556 S
Co322 O324 2.098 . S
Co322 O326 2.009 . S
Co322 O332 2.010 1_556 S
Co322 O334 2.145 . S
Co322 O335 2.239 1_556 S
O323 Co322 2.214 1_554 S
O323 C330 1.247 1_554 S
O324 Co322 2.098 . S
O324 C330 1.261 . S
C325 O334 1.247 . S
C325 O335 1.272 1_556 S
O326 Co322 2.009 . S
O326 C331 1.259 . S
Co327 O328 2.061 . S
Co327 O333 2.052 . S
Co327 O335 2.135 . S
O328 Co327 2.061 . S
O328 C331 1.235 1_554 S
C329 O332 1.238 . S
C329 O333 1.241 . S
C330 O323 1.247 1_556 S
C330 O324 1.261 . S
C331 O326 1.259 . S
C331 O328 1.235 1_556 S
O332 Co322 2.010 1_554 S
O332 C329 1.238 . S
O333 Co327 2.052 . S
O333 C329 1.241 . S
O334 Co322 2.145 . S
O334 C325 1.247 . S
O335 Co322 2.239 1_554 S
O335 C325 1.272 1_554 S
O335 Co327 2.135 . S
Co336 O337 2.216 . S
Co336 O338 2.091 . S
Co336 O340 2.004 . S
Co336 O346 2.021 . S
Co336 O348 2.137 . S
Co336 O349 2.244 . S
O337 Co336 2.216 . S
O337 C344 1.247 . S
O338 Co336 2.091 . S
O338 C344 1.261 . S
C339 O348 1.247 . S
C339 O349 1.272 . S
O340 Co336 2.004 . S
O340 C345 1.259 . S
Co341 O342 2.061 . S
Co341 O347 2.052 . S
Co341 O349 2.135 . S
O342 Co341 2.061 . S
O342 C345 1.235 . S
C343 O346 1.238 . S
C343 O347 1.241 . S
C344 O337 1.247 . S
C344 O338 1.261 . S
C345 O340 1.259 . S
C345 O342 1.235 . S
O346 Co336 2.021 . S
O346 C343 1.238 . S
O347 Co341 2.052 . S
O347 C343 1.241 . S
O348 Co336 2.137 . S
O348 C339 1.247 . S
O349 Co336 2.244 . S
O349 C339 1.272 . S
O349 Co341 2.135 . S
Co350 O351 2.216 . S
Co350 O352 2.091 . S
Co350 O354 2.004 . S
Co350 O360 2.021 . S
Co350 O362 2.137 . S
Co350 O363 2.244 . S
O351 Co350 2.216 . S
O351 C358 1.247 . S
O352 Co350 2.091 . S
O352 C358 1.261 . S
C353 O362 1.247 . S
C353 O363 1.272 . S
O354 Co350 2.004 . S
O354 C359 1.259 . S
Co355 O356 2.061 . S
Co355 O361 2.052 . S
Co355 O363 2.135 . S
O356 Co355 2.061 . S
O356 C359 1.235 . S
C357 O360 1.238 . S
C357 O361 1.241 . S
C358 O351 1.247 . S
C358 O352 1.261 . S
C359 O354 1.259 . S
C359 O356 1.235 . S
O360 Co350 2.021 . S
O360 C357 1.238 . S
O361 Co355 2.052 . S
O361 C357 1.241 . S
O362 Co350 2.137 . S
O362 C353 1.247 . S
O363 Co350 2.244 . S
O363 C353 1.272 . S
O363 Co355 2.135 . S
Co364 O365 2.216 . S
Co364 O366 2.091 . S
Co364 O368 2.004 . S
Co364 O374 2.021 . S
Co364 O376 2.137 . S
Co364 O377 2.244 . S
O365 Co364 2.216 . S
O365 C372 1.247 . S
O366 Co364 2.091 . S
O366 C372 1.261 . S
C367 O376 1.247 . S
C367 O377 1.272 . S
O368 Co364 2.004 . S
O368 C373 1.259 . S
Co369 O370 2.061 . S
Co369 O375 2.052 . S
Co369 O377 2.135 . S
O370 Co369 2.061 . S
O370 C373 1.235 . S
C371 O374 1.238 . S
C371 O375 1.241 . S
C372 O365 1.247 . S
C372 O366 1.261 . S
C373 O368 1.259 . S
C373 O370 1.235 . S
O374 Co364 2.021 . S
O374 C371 1.238 . S
O375 Co369 2.052 . S
O375 C371 1.241 . S
O376 Co364 2.137 . S
O376 C367 1.247 . S
O377 Co364 2.244 . S
O377 C367 1.272 . S
O377 Co369 2.135 . S
Co378 O379 2.216 . S
Co378 O380 2.091 1_556 S
Co378 O382 2.004 1_556 S
Co378 O388 2.021 1_556 S
Co378 O390 2.137 . S
Co378 O391 2.244 . S
O379 Co378 2.216 . S
O379 C386 1.247 1_556 S
O380 Co378 2.091 1_554 S
O380 C386 1.261 . S
C381 O390 1.247 . S
C381 O391 1.272 . S
O382 Co378 2.004 1_554 S
O382 C387 1.259 . S
Co383 O384 2.061 . S
Co383 O389 2.052 . S
Co383 O391 2.135 . S
O384 Co383 2.061 . S
O384 C387 1.235 1_556 S
C385 O388 1.250 . S
C385 O389 1.215 1_554 S
C386 O379 1.247 1_554 S
C386 O380 1.261 . S
C387 O382 1.259 . S
C387 O384 1.235 1_554 S
O388 Co378 2.021 1_554 S
O388 C385 1.250 . S
O389 Co383 2.052 . S
O389 C385 1.215 1_556 S
O390 Co378 2.137 . S
O390 C381 1.247 . S
O391 Co378 2.244 . S
O391 C381 1.272 . S
O391 Co383 2.135 . S
Co392 O393 2.216 . S
Co392 O394 2.091 1_556 S
Co392 O396 2.004 1_556 S
Co392 O402 2.021 1_556 S
Co392 O404 2.137 . S
Co392 O405 2.244 . S
O393 Co392 2.216 . S
O393 C400 1.247 1_556 S
O394 Co392 2.091 1_554 S
O394 C400 1.261 . S
C395 O404 1.247 . S
C395 O405 1.272 . S
O396 Co392 2.004 1_554 S
O396 C401 1.259 . S
Co397 O398 2.061 . S
Co397 O403 2.052 . S
Co397 O405 2.135 . S
O398 Co397 2.061 . S
O398 C401 1.235 1_556 S
C399 O402 1.250 . S
C399 O403 1.215 1_554 S
C400 O393 1.247 1_554 S
C400 O394 1.261 . S
C401 O396 1.259 . S
C401 O398 1.235 1_554 S
O402 Co392 2.021 1_554 S
O402 C399 1.250 . S
O403 Co397 2.052 . S
O403 C399 1.215 1_556 S
O404 Co392 2.137 . S
O404 C395 1.247 . S
O405 Co392 2.244 . S
O405 C395 1.272 . S
O405 Co397 2.135 . S
Co406 O407 2.216 . S
Co406 O408 2.091 1_556 S
Co406 O410 2.004 1_556 S
Co406 O416 2.021 1_556 S
Co406 O418 2.137 . S
Co406 O419 2.244 . S
O407 Co406 2.216 . S
O407 C414 1.247 1_556 S
O408 Co406 2.091 1_554 S
O408 C414 1.261 . S
C409 O418 1.247 . S
C409 O419 1.272 . S
O410 Co406 2.004 1_554 S
O410 C415 1.259 . S
Co411 O412 2.061 . S
Co411 O417 2.052 . S
Co411 O419 2.135 . S
O412 Co411 2.061 . S
O412 C415 1.235 1_556 S
C413 O416 1.251 . S
C413 O417 1.215 1_554 S
C414 O407 1.247 1_554 S
C414 O408 1.261 . S
C415 O410 1.259 . S
C415 O412 1.235 1_554 S
O416 Co406 2.021 1_554 S
O416 C413 1.251 . S
O417 Co411 2.052 . S
O417 C413 1.215 1_556 S
O418 Co406 2.137 . S
O418 C409 1.247 . S
O419 Co406 2.244 . S
O419 C409 1.272 . S
O419 Co411 2.135 . S
Co420 O421 2.216 . S
Co420 O422 2.091 . S
Co420 O424 2.004 . S
Co420 O430 2.021 . S
Co420 O432 2.137 . S
Co420 O433 2.244 . S
O421 Co420 2.216 . S
O421 C428 1.247 . S
O422 Co420 2.091 . S
O422 C428 1.261 . S
C423 O432 1.247 . S
C423 O433 1.272 . S
O424 Co420 2.004 . S
O424 C429 1.259 . S
Co425 O426 2.061 . S
Co425 O431 2.052 . S
Co425 O433 2.135 . S
O426 Co425 2.061 . S
O426 C429 1.235 . S
C427 O430 1.238 . S
C427 O431 1.241 . S
C428 O421 1.247 . S
C428 O422 1.261 . S
C429 O424 1.259 . S
C429 O426 1.235 . S
O430 Co420 2.021 . S
O430 C427 1.238 . S
O431 Co425 2.052 . S
O431 C427 1.241 . S
O432 Co420 2.137 . S
O432 C423 1.247 . S
O433 Co420 2.244 . S
O433 C423 1.272 . S
O433 Co425 2.135 . S
Co434 O435 2.216 . S
Co434 O436 2.091 . S
Co434 O438 2.004 . S
Co434 O444 2.021 . S
Co434 O446 2.137 . S
Co434 O447 2.244 . S
O435 Co434 2.216 . S
O435 C442 1.247 . S
O436 Co434 2.091 . S
O436 C442 1.261 . S
C437 O446 1.247 . S
C437 O447 1.272 . S
O438 Co434 2.004 . S
O438 C443 1.259 . S
Co439 O440 2.061 . S
Co439 O445 2.052 . S
Co439 O447 2.135 . S
O440 Co439 2.061 . S
O440 C443 1.235 . S
C441 O444 1.238 . S
C441 O445 1.241 . S
C442 O435 1.247 . S
C442 O436 1.261 . S
C443 O438 1.259 . S
C443 O440 1.235 . S
O444 Co434 2.021 . S
O444 C441 1.238 . S
O445 Co439 2.052 . S
O445 C441 1.241 . S
O446 Co434 2.137 . S
O446 C437 1.247 . S
O447 Co434 2.244 . S
O447 C437 1.272 . S
O447 Co439 2.135 . S
Co448 O449 2.216 . S
Co448 O450 2.091 . S
Co448 O452 2.004 . S
Co448 O458 2.021 . S
Co448 O460 2.137 . S
Co448 O461 2.244 . S
O449 Co448 2.216 . S
O449 C456 1.247 . S
O450 Co448 2.091 . S
O450 C456 1.261 . S
C451 O460 1.247 . S
C451 O461 1.272 . S
O452 Co448 2.004 . S
O452 C457 1.259 . S
Co453 O454 2.061 . S
Co453 O459 2.052 . S
Co453 O461 2.135 . S
O454 Co453 2.061 . S
O454 C457 1.235 . S
C455 O458 1.238 . S
C455 O459 1.241 . S
C456 O449 1.247 . S
C456 O450 1.261 . S
C457 O452 1.259 . S
C457 O454 1.235 . S
O458 Co448 2.021 . S
O458 C455 1.238 . S
O459 Co453 2.052 . S
O459 C455 1.241 . S
O460 Co448 2.137 . S
O460 C451 1.247 . S
O461 Co448 2.244 . S
O461 C451 1.272 . S
O461 Co453 2.135 . S
Co462 O463 2.216 . S
Co462 O464 2.091 . S
Co462 O466 2.004 . S
Co462 O472 2.021 . S
Co462 O474 2.137 . S
Co462 O475 2.244 . S
O463 Co462 2.216 . S
O463 C470 1.247 . S
O464 Co462 2.091 . S
O464 C470 1.261 . S
C465 O474 1.247 . S
C465 O475 1.272 . S
O466 Co462 2.004 . S
O466 C471 1.259 . S
Co467 O468 2.061 . S
Co467 O473 2.052 . S
Co467 O475 2.135 . S
O468 Co467 2.061 . S
O468 C471 1.235 . S
C469 O472 1.238 . S
C469 O473 1.241 . S
C470 O463 1.247 . S
C470 O464 1.261 . S
C471 O466 1.259 . S
C471 O468 1.235 . S
O472 Co462 2.021 . S
O472 C469 1.238 . S
O473 Co467 2.052 . S
O473 C469 1.241 . S
O474 Co462 2.137 . S
O474 C465 1.247 . S
O475 Co462 2.244 . S
O475 C465 1.272 . S
O475 Co467 2.135 . S
Co476 O477 2.216 . S
Co476 O478 2.091 . S
Co476 O480 2.004 . S
Co476 O486 2.021 . S
Co476 O488 2.137 . S
Co476 O489 2.244 . S
O477 Co476 2.216 . S
O477 C484 1.247 . S
O478 Co476 2.091 . S
O478 C484 1.261 . S
C479 O488 1.247 . S
C479 O489 1.272 . S
O480 Co476 2.004 . S
O480 C485 1.259 . S
Co481 O482 2.061 . S
Co481 O487 2.052 . S
Co481 O489 2.135 . S
O482 Co481 2.061 . S
O482 C485 1.235 . S
C483 O486 1.238 . S
C483 O487 1.241 . S
C484 O477 1.247 . S
C484 O478 1.261 . S
C485 O480 1.259 . S
C485 O482 1.235 . S
O486 Co476 2.021 . S
O486 C483 1.238 . S
O487 Co481 2.052 . S
O487 C483 1.241 . S
O488 Co476 2.137 . S
O488 C479 1.247 . S
O489 Co476 2.244 . S
O489 C479 1.272 . S
O489 Co481 2.135 . S
Co490 O491 2.216 . S
Co490 O492 2.091 . S
Co490 O494 2.004 . S
Co490 O500 2.021 . S
Co490 O502 2.137 . S
Co490 O503 2.244 . S
O491 Co490 2.216 . S
O491 C498 1.247 . S
O492 Co490 2.091 . S
O492 C498 1.261 . S
C493 O502 1.247 . S
C493 O503 1.272 . S
O494 Co490 2.004 . S
O494 C499 1.259 . S
Co495 O496 2.061 . S
Co495 O501 2.052 . S
Co495 O503 2.135 . S
O496 Co495 2.061 . S
O496 C499 1.235 . S
C497 O500 1.238 . S
C497 O501 1.241 . S
C498 O491 1.247 . S
C498 O492 1.261 . S
C499 O494 1.259 . S
C499 O496 1.235 . S
O500 Co490 2.021 . S
O500 C497 1.238 . S
O501 Co495 2.052 . S
O501 C497 1.241 . S
O502 Co490 2.137 . S
O502 C493 1.247 . S
O503 Co490 2.244 . S
O503 C493 1.272 . S
O503 Co495 2.135 . S
C9 C21 1.680 1_455 S
C23 C35 1.681 . S
C7 C37 1.681 1_545 S
C51 C77 1.681 1_545 S
C65 C49 1.681 1_655 S
C63 C79 1.681 . S
C93 C101 1.662 1_655 S
C115 C107 1.662 . S
C87 C121 1.662 1_565 S
C157 C135 1.662 1_545 S
C149 C129 1.662 1_455 S
C163 C143 1.662 . S
C189 C177 1.681 . S
C191 C203 1.681 . S
C205 C175 1.681 . S
C219 C245 1.681 . S
C233 C217 1.681 . S
C247 C231 1.681 . S
C269 C261 1.662 . S
C275 C283 1.662 . S
C255 C289 1.662 . S
C325 C303 1.662 . S
C317 C297 1.662 . S
C311 C331 1.662 . S
C357 C345 1.681 . S
C359 C371 1.681 . S
C373 C343 1.681 . S
C413 C387 1.683 . S
C401 C385 1.683 . S
C399 C415 1.683 . S
C429 C437 1.662 . S
C443 C451 1.662 . S
C457 C423 1.662 . S
C493 C471 1.662 . S
C465 C485 1.662 . S
C499 C479 1.662 . S
C45 C3 2.041 . S
C17 C59 2.041 1_565 S
C73 C31 2.041 1_655 S
C133 C91 1.783 . S
C105 C147 1.783 1_545 S
C161 C119 1.783 1_455 S
C171 C213 2.041 . S
C185 C227 2.041 . S
C199 C241 2.041 . S
C301 C259 1.783 . S
C315 C273 1.783 . S
C287 C329 1.783 . S
C381 C339 2.041 . S
C395 C353 2.041 . S
C367 C409 2.041 . S
C427 C469 1.783 . S
C483 C441 1.783 . S
C455 C497 1.783 . S
C8 C260 2.716 . S
C22 C274 2.716 . S
C36 C288 2.716 . S
C470 C50 2.716 . S
C484 C64 2.717 . S
C78 C498 2.715 . S
C92 C344 2.716 . S
C358 C106 2.716 . S
C372 C120 2.716 . S
C218 C134 2.716 . S
C232 C148 2.716 . S
C246 C162 2.716 . S
C428 C176 2.716 1_455 S
C190 C442 2.717 . S
C204 C456 2.716 1_545 S
C302 C386 2.716 1_546 S
C316 C400 2.716 1_656 S
C414 C330 2.715 1_554 S
