# Generated by pormake.
# Topology umk, (4)-cn, num edge types: 1
# Building blocks:
#     Node 0, Type 0, BuildingBlock: QUQFOY_clean_sbu_3, # of connection points: 4
#     Node 1, Type 0, BuildingBlock: QUQFOY_clean_sbu_3, # of connection points: 4
#     Node 2, Type 0, BuildingBlock: QUQFOY_clean_sbu_3, # of connection points: 4
#     Node 3, Type 0, BuildingBlock: QUQFOY_clean_sbu_3, # of connection points: 4
#     Node 4, Type 0, BuildingBlock: QUQFOY_clean_sbu_3, # of connection points: 4
#     Node 5, Type 0, BuildingBlock: QUQFOY_clean_sbu_3, # of connection points: 4
#     Node 6, Type 0, BuildingBlock: QUQFOY_clean_sbu_3, # of connection points: 4
#     Node 7, Type 0, BuildingBlock: QUQFOY_clean_sbu_3, # of connection points: 4
#     Node 8, Type 0, BuildingBlock: QUQFOY_clean_sbu_3, # of connection points: 4
#     Node 9, Type 0, BuildingBlock: QUQFOY_clean_sbu_3, # of connection points: 4
#     Node 10, Type 0, BuildingBlock: QUQFOY_clean_sbu_3, # of connection points: 4
#     Node 11, Type 0, BuildingBlock: QUQFOY_clean_sbu_3, # of connection points: 4
#     Node 12, Type 0, BuildingBlock: QUQFOY_clean_sbu_3, # of connection points: 4
#     Node 13, Type 0, BuildingBlock: QUQFOY_clean_sbu_3, # of connection points: 4
#     Node 14, Type 0, BuildingBlock: QUQFOY_clean_sbu_3, # of connection points: 4
#     Node 15, Type 0, BuildingBlock: QUQFOY_clean_sbu_3, # of connection points: 4
#     Node 16, Type 0, BuildingBlock: QUQFOY_clean_sbu_3, # of connection points: 4
#     Node 17, Type 0, BuildingBlock: QUQFOY_clean_sbu_3, # of connection points: 4
#     Node 18, Type 0, BuildingBlock: QUQFOY_clean_sbu_3, # of connection points: 4
#     Node 19, Type 0, BuildingBlock: QUQFOY_clean_sbu_3, # of connection points: 4
#     Node 20, Type 0, BuildingBlock: QUQFOY_clean_sbu_3, # of connection points: 4
#     Node 21, Type 0, BuildingBlock: QUQFOY_clean_sbu_3, # of connection points: 4
#     Node 22, Type 0, BuildingBlock: QUQFOY_clean_sbu_3, # of connection points: 4
#     Node 23, Type 0, BuildingBlock: QUQFOY_clean_sbu_3, # of connection points: 4
#     Edge 24, Type (0, 0), BuildingBlock: AJUNOK_clean_linker_0, # of connection points: 2
#     Edge 25, Type (0, 0), BuildingBlock: AJUNOK_clean_linker_0, # of connection points: 2
#     Edge 26, Type (0, 0), BuildingBlock: AJUNOK_clean_linker_0, # of connection points: 2
#     Edge 27, Type (0, 0), BuildingBlock: AJUNOK_clean_linker_0, # of connection points: 2
#     Edge 28, Type (0, 0), BuildingBlock: AJUNOK_clean_linker_0, # of connection points: 2
#     Edge 29, Type (0, 0), BuildingBlock: AJUNOK_clean_linker_0, # of connection points: 2
#     Edge 30, Type (0, 0), BuildingBlock: AJUNOK_clean_linker_0, # of connection points: 2
#     Edge 31, Type (0, 0), BuildingBlock: AJUNOK_clean_linker_0, # of connection points: 2
#     Edge 32, Type (0, 0), BuildingBlock: AJUNOK_clean_linker_0, # of connection points: 2
#     Edge 33, Type (0, 0), BuildingBlock: AJUNOK_clean_linker_0, # of connection points: 2
#     Edge 34, Type (0, 0), BuildingBlock: AJUNOK_clean_linker_0, # of connection points: 2
#     Edge 35, Type (0, 0), BuildingBlock: AJUNOK_clean_linker_0, # of connection points: 2
#     Edge 36, Type (0, 0), BuildingBlock: AJUNOK_clean_linker_0, # of connection points: 2
#     Edge 37, Type (0, 0), BuildingBlock: AJUNOK_clean_linker_0, # of connection points: 2
#     Edge 38, Type (0, 0), BuildingBlock: AJUNOK_clean_linker_0, # of connection points: 2
#     Edge 39, Type (0, 0), BuildingBlock: AJUNOK_clean_linker_0, # of connection points: 2
#     Edge 40, Type (0, 0), BuildingBlock: AJUNOK_clean_linker_0, # of connection points: 2
#     Edge 41, Type (0, 0), BuildingBlock: AJUNOK_clean_linker_0, # of connection points: 2
#     Edge 42, Type (0, 0), BuildingBlock: AJUNOK_clean_linker_0, # of connection points: 2
#     Edge 43, Type (0, 0), BuildingBlock: AJUNOK_clean_linker_0, # of connection points: 2
#     Edge 44, Type (0, 0), BuildingBlock: AJUNOK_clean_linker_0, # of connection points: 2
#     Edge 45, Type (0, 0), BuildingBlock: AJUNOK_clean_linker_0, # of connection points: 2
#     Edge 46, Type (0, 0), BuildingBlock: AJUNOK_clean_linker_0, # of connection points: 2
#     Edge 47, Type (0, 0), BuildingBlock: AJUNOK_clean_linker_0, # of connection points: 2
#     Edge 48, Type (0, 0), BuildingBlock: AJUNOK_clean_linker_0, # of connection points: 2
#     Edge 49, Type (0, 0), BuildingBlock: AJUNOK_clean_linker_0, # of connection points: 2
#     Edge 50, Type (0, 0), BuildingBlock: AJUNOK_clean_linker_0, # of connection points: 2
#     Edge 51, Type (0, 0), BuildingBlock: AJUNOK_clean_linker_0, # of connection points: 2
#     Edge 52, Type (0, 0), BuildingBlock: AJUNOK_clean_linker_0, # of connection points: 2
#     Edge 53, Type (0, 0), BuildingBlock: AJUNOK_clean_linker_0, # of connection points: 2
#     Edge 54, Type (0, 0), BuildingBlock: AJUNOK_clean_linker_0, # of connection points: 2
#     Edge 55, Type (0, 0), BuildingBlock: AJUNOK_clean_linker_0, # of connection points: 2
#     Edge 56, Type (0, 0), BuildingBlock: AJUNOK_clean_linker_0, # of connection points: 2
#     Edge 57, Type (0, 0), BuildingBlock: AJUNOK_clean_linker_0, # of connection points: 2
#     Edge 58, Type (0, 0), BuildingBlock: AJUNOK_clean_linker_0, # of connection points: 2
#     Edge 59, Type (0, 0), BuildingBlock: AJUNOK_clean_linker_0, # of connection points: 2
#     Edge 60, Type (0, 0), BuildingBlock: AJUNOK_clean_linker_0, # of connection points: 2
#     Edge 61, Type (0, 0), BuildingBlock: AJUNOK_clean_linker_0, # of connection points: 2
#     Edge 62, Type (0, 0), BuildingBlock: AJUNOK_clean_linker_0, # of connection points: 2
#     Edge 63, Type (0, 0), BuildingBlock: AJUNOK_clean_linker_0, # of connection points: 2
#     Edge 64, Type (0, 0), BuildingBlock: AJUNOK_clean_linker_0, # of connection points: 2
#     Edge 65, Type (0, 0), BuildingBlock: AJUNOK_clean_linker_0, # of connection points: 2
#     Edge 66, Type (0, 0), BuildingBlock: AJUNOK_clean_linker_0, # of connection points: 2
#     Edge 67, Type (0, 0), BuildingBlock: AJUNOK_clean_linker_0, # of connection points: 2
#     Edge 68, Type (0, 0), BuildingBlock: AJUNOK_clean_linker_0, # of connection points: 2
#     Edge 69, Type (0, 0), BuildingBlock: AJUNOK_clean_linker_0, # of connection points: 2
#     Edge 70, Type (0, 0), BuildingBlock: AJUNOK_clean_linker_0, # of connection points: 2
#     Edge 71, Type (0, 0), BuildingBlock: AJUNOK_clean_linker_0, # of connection points: 2
# Relax obj value: 0.057
# Max RMSD: 0.042
# Mean RMSD: 0.042
data_MOF--net-umk--node1-QUQFOY_clean_sbu_3--edge1-AJUNOK_clean_linker_0
_symmetry_space_group_name_H-M    P1
_symmetry_Int_Tables_number       1
_symmetry_cell_setting            triclinic
loop_
_symmetry_equiv_pos_as_xyz
'x, y, z'
_cell_length_a     52.593425
_cell_length_b     52.292971
_cell_length_c     34.489333
_cell_angle_alpha  90.305532
_cell_angle_beta   89.723633
_cell_angle_gamma 120.22651
loop_
_atom_site_label
_atom_site_type_symbol
_atom_site_fract_x
_atom_site_fract_y
_atom_site_fract_z
_atom_type_partial_charge
C0 C 0.31269 0.44981 0.13971 0.0
O1 O 0.34026 0.46293 0.13396 0.0
Cd2 Cd 0.36554 0.48233 0.07423 0.0
O3 O 0.29477 0.44416 0.11186 0.0
Cd4 Cd 0.30035 0.45001 0.03991 0.0
C5 C 0.34064 0.41636 0.02745 0.0
O6 O 0.33965 0.50186 0.04179 0.0
O7 O 0.33023 0.48163 -0.01463 0.0
O8 O 0.25956 0.45909 0.03962 0.0
C9 C 0.3445 0.50485 0.0057 0.0
O10 O 0.36205 0.44076 0.03935 0.0
C11 C 0.24456 0.44027 0.01368 0.0
O12 O 0.31431 0.41148 0.02831 0.0
O13 O 0.2546 0.42421 0.001 0.0
C14 C 0.82608 0.32352 0.63458 0.0
O15 O 0.83144 0.34978 0.62924 0.0
Cd16 Cd 0.84739 0.37677 0.57104 0.0
O17 O 0.8266 0.30766 0.60657 0.0
Cd18 Cd 0.83115 0.31168 0.53322 0.0
C19 C 0.90335 0.36118 0.54644 0.0
O20 O 0.81041 0.34362 0.52929 0.0
O21 O 0.82909 0.3398 0.47592 0.0
O22 O 0.78747 0.26251 0.53683 0.0
C23 C 0.81555 0.35054 0.49399 0.0
O24 O 0.89347 0.37765 0.55839 0.0
C25 C 0.7928 0.2522 0.50648 0.0
O26 O 0.88581 0.33472 0.53506 0.0
O27 O 0.81695 0.26905 0.48918 0.0
C28 C 0.48383 0.83737 0.14243 0.0
O29 O 0.46319 0.84289 0.13732 0.0
Cd30 Cd 0.45278 0.86038 0.08016 0.0
O31 O 0.50031 0.83836 0.1144 0.0
Cd32 Cd 0.50117 0.84474 0.04139 0.0
C33 C 0.52466 0.91685 0.05765 0.0
O34 O 0.4485 0.82465 0.03542 0.0
O35 O 0.47297 0.84542 -0.01606 0.0
O36 O 0.50587 0.80067 0.04142 0.0
C37 C 0.44811 0.83149 0.00049 0.0
O38 O 0.49827 0.90689 0.06921 0.0
C39 C 0.52224 0.80741 0.01167 0.0
O40 O 0.53332 0.89933 0.04573 0.0
O41 O 0.53014 0.83236 -0.00369 0.0
C42 C 0.61811 0.49646 0.63834 0.0
O43 O 0.59175 0.47769 0.62956 0.0
Cd44 Cd 0.57036 0.4677 0.56743 0.0
O45 O 0.63684 0.51207 0.61232 0.0
Cd46 Cd 0.63504 0.51301 0.53889 0.0
C47 C 0.58804 0.53854 0.53918 0.0
O48 O 0.60311 0.45963 0.52969 0.0
O49 O 0.60439 0.48592 0.48176 0.0
O50 O 0.68314 0.51636 0.5407 0.0
C51 C 0.59565 0.46032 0.4952 0.0
O52 O 0.5693 0.51163 0.54664 0.0
C53 C 0.69357 0.53243 0.51083 0.0
O54 O 0.61553 0.5475 0.53826 0.0
O55 O 0.6774 0.54092 0.49481 0.0
C56 C 0.09224 0.63504 0.14474 0.0
O57 O 0.08145 0.60752 0.13917 0.0
Cd58 Cd 0.07481 0.58174 0.08008 0.0
O59 O 0.10133 0.65325 0.11655 0.0
Cd60 Cd 0.10164 0.64678 0.0441 0.0
C61 C 0.02814 0.60143 0.03735 0.0
O62 O 0.11636 0.60929 0.04071 0.0
O63 O 0.09705 0.61462 -0.01126 0.0
O64 O 0.15162 0.68659 0.03359 0.0
C65 C 0.10997 0.60277 0.00534 0.0
O66 O 0.03364 0.58181 0.04963 0.0
C67 C 0.14525 0.70222 0.01226 0.0
O68 O 0.04823 0.62863 0.03561 0.0
O69 O 0.11811 0.69301 0.00674 0.0
C70 C 0.43972 0.11328 0.64002 0.0
O71 O 0.45839 0.10489 0.63569 0.0
Cd72 Cd 0.4784 0.09795 0.57761 0.0
O73 O 0.42867 0.11936 0.61107 0.0
Cd74 Cd 0.43464 0.1195 0.53852 0.0
C75 C 0.41214 0.04599 0.53602 0.0
O76 O 0.4875 0.1393 0.54094 0.0
O77 O 0.46876 0.12518 0.48458 0.0
O78 O 0.43 0.16388 0.53902 0.0
C79 C 0.49162 0.13637 0.50552 0.0
O80 O 0.43775 0.05406 0.54897 0.0
C81 C 0.41464 0.1575 0.50841 0.0
O82 O 0.40329 0.06454 0.53212 0.0
O83 O 0.40714 0.13261 0.49284 0.0
C84 C 0.49103 0.63718 0.80519 0.0
O85 O 0.47267 0.60998 0.81078 0.0
Cd86 Cd 0.45734 0.58389 0.87006 0.0
O87 O 0.50407 0.6549 0.8334 0.0
Cd88 Cd 0.50196 0.65008 0.90641 0.0
C89 C 0.52545 0.60059 0.90683 0.0
O90 O 0.44911 0.61639 0.90785 0.0
O91 O 0.47016 0.62144 0.96241 0.0
O92 O 0.50647 0.69907 0.90679 0.0
C93 C 0.44641 0.60964 0.94327 0.0
O94 O 0.49946 0.58225 0.89551 0.0
C95 C 0.52234 0.70842 0.93696 0.0
O96 O 0.5343 0.62815 0.91001 0.0
O97 O 0.53023 0.69132 0.95175 0.0
C98 C 0.84297 0.51146 0.30528 0.0
O99 O 0.85364 0.49473 0.3106 0.0
Cd100 Cd 0.85642 0.47178 0.36832 0.0
O101 O 0.83263 0.51949 0.33337 0.0
Cd102 Cd 0.83028 0.51158 0.40575 0.0
C103 C 0.90352 0.53637 0.41581 0.0
O104 O 0.81201 0.45857 0.40047 0.0
O105 O 0.82308 0.47592 0.45804 0.0
O106 O 0.78593 0.51605 0.40579 0.0
C107 C 0.81323 0.45353 0.43595 0.0
O108 O 0.89736 0.51101 0.40309 0.0
C109 C 0.79177 0.53057 0.43732 0.0
O110 O 0.88429 0.54444 0.4162 0.0
O111 O 0.81622 0.53762 0.45308 0.0
C112 C 0.31307 0.8498 0.80167 0.0
O113 O 0.34068 0.86178 0.8062 0.0
Cd114 Cd 0.36769 0.87089 0.86455 0.0
O115 O 0.29537 0.84061 0.83047 0.0
Cd116 Cd 0.3013 0.84087 0.90287 0.0
C117 C 0.34414 0.91604 0.90377 0.0
O118 O 0.33929 0.82761 0.90109 0.0
O119 O 0.33179 0.84007 0.95742 0.0
O120 O 0.25771 0.79204 0.90621 0.0
C121 C 0.34558 0.83088 0.93672 0.0
O122 O 0.36481 0.91231 0.89111 0.0
C123 C 0.24463 0.79808 0.93261 0.0
O124 O 0.31808 0.89434 0.90846 0.0
O125 O 0.25736 0.82476 0.94441 0.0
C126 C 0.44489 0.32189 0.3023 0.0
O127 O 0.46865 0.34643 0.30561 0.0
Cd128 Cd 0.48454 0.37465 0.36342 0.0
O129 O 0.42927 0.30849 0.33192 0.0
Cd130 Cd 0.43573 0.31483 0.4044 0.0
C131 C 0.41755 0.36705 0.39649 0.0
O132 O 0.48955 0.34467 0.40941 0.0
O133 O 0.46529 0.34853 0.45697 0.0
O134 O 0.4303 0.26577 0.40469 0.0
C135 C 0.49009 0.35555 0.44245 0.0
O136 O 0.44379 0.38175 0.38344 0.0
C137 C 0.41472 0.25664 0.43519 0.0
O138 O 0.40615 0.33965 0.40472 0.0
O139 O 0.40764 0.27417 0.4511 0.0
C140 C 0.10321 0.45611 0.79918 0.0
O141 O 0.09183 0.47238 0.80263 0.0
Cd142 Cd 0.07663 0.48546 0.86056 0.0
O143 O 0.1087 0.44514 0.8287 0.0
Cd144 Cd 0.10269 0.4486 0.9004 0.0
C145 C 0.02884 0.41543 0.89538 0.0
O146 O 0.11589 0.50049 0.90459 0.0
O147 O 0.09253 0.47362 0.95385 0.0
O148 O 0.15262 0.46164 0.91447 0.0
C149 C 0.10653 0.49917 0.9388 0.0
O150 O 0.03372 0.44039 0.88305 0.0
C151 C 0.14663 0.43981 0.9361 0.0
O152 O 0.0498 0.41042 0.90183 0.0
O153 O 0.11962 0.42034 0.94004 0.0
C154 C 0.62239 0.12395 0.30638 0.0
O155 O 0.59597 0.11776 0.31154 0.0
Cd156 Cd 0.56773 0.10081 0.36869 0.0
O157 O 0.63805 0.12354 0.33436 0.0
Cd158 Cd 0.63239 0.11693 0.40739 0.0
C159 C 0.58285 0.0444 0.39118 0.0
O160 O 0.60049 0.1376 0.41116 0.0
O161 O 0.60438 0.11964 0.46483 0.0
O162 O 0.68195 0.16019 0.4068 0.0
C163 C 0.59353 0.13281 0.44648 0.0
O164 O 0.56636 0.05413 0.37951 0.0
C165 C 0.69104 0.15327 0.43675 0.0
O166 O 0.60885 0.06203 0.40344 0.0
O167 O 0.67339 0.12848 0.45216 0.0
C168 C 0.61655 0.49584 0.80283 0.0
O169 O 0.5897 0.47787 0.81055 0.0
Cd170 Cd 0.56551 0.46552 0.87138 0.0
O171 O 0.63521 0.50989 0.82962 0.0
Cd172 Cd 0.63286 0.50929 0.90297 0.0
C173 C 0.58627 0.53595 0.90646 0.0
O174 O 0.59732 0.45696 0.90888 0.0
O175 O 0.60456 0.48157 0.96148 0.0
O176 O 0.67521 0.50295 0.90408 0.0
C177 C 0.59182 0.45661 0.94459 0.0
O178 O 0.56718 0.50985 0.8959 0.0
C179 C 0.68987 0.52258 0.92932 0.0
O180 O 0.61354 0.54401 0.90847 0.0
O181 O 0.67924 0.53849 0.94058 0.0
C182 C 0.09037 0.6347 0.30731 0.0
O183 O 0.07998 0.60721 0.31279 0.0
Cd184 Cd 0.0758 0.58181 0.37156 0.0
O185 O 0.09967 0.65315 0.33541 0.0
Cd186 Cd 0.10141 0.64856 0.40782 0.0
C187 C 0.02813 0.59954 0.41692 0.0
O188 O 0.11933 0.61361 0.40504 0.0
O189 O 0.10767 0.62118 0.46175 0.0
O190 O 0.14607 0.69733 0.40486 0.0
C191 C 0.11766 0.60822 0.4409 0.0
O192 O 0.03448 0.58045 0.40454 0.0
C193 C 0.14118 0.70718 0.43602 0.0
O194 O 0.04736 0.62709 0.41755 0.0
O195 O 0.1171 0.69029 0.45334 0.0
C196 C 0.43879 0.10917 0.80147 0.0
O197 O 0.45457 0.09726 0.80471 0.0
Cd198 Cd 0.47265 0.08718 0.86208 0.0
O199 O 0.43015 0.11746 0.8311 0.0
Cd200 Cd 0.43575 0.11539 0.90317 0.0
C201 C 0.40458 0.04048 0.90172 0.0
O202 O 0.48764 0.12997 0.90032 0.0
O203 O 0.46781 0.11706 0.95657 0.0
O204 O 0.43513 0.16186 0.90532 0.0
C205 C 0.49074 0.12652 0.93586 0.0
O206 O 0.42903 0.04491 0.88828 0.0
C207 C 0.42 0.1559 0.93623 0.0
O208 O 0.39969 0.06172 0.90754 0.0
O209 O 0.41102 0.13052 0.95087 0.0
C210 C 0.31224 0.46089 0.30097 0.0
O211 O 0.33775 0.48345 0.3036 0.0
Cd212 Cd 0.36635 0.50042 0.36065 0.0
O213 O 0.298 0.44657 0.33095 0.0
Cd214 Cd 0.30478 0.45363 0.40311 0.0
C215 C 0.35544 0.43275 0.39619 0.0
O216 O 0.33774 0.50698 0.40737 0.0
O217 O 0.33769 0.48249 0.45729 0.0
O218 O 0.26278 0.45997 0.41031 0.0
C219 C 0.34675 0.50746 0.44145 0.0
O220 O 0.37081 0.45854 0.38178 0.0
C221 C 0.24802 0.4386 0.43322 0.0
O222 O 0.32845 0.42268 0.40526 0.0
O223 O 0.25888 0.42236 0.44157 0.0
C224 C 0.83209 0.32381 0.79662 0.0
O225 O 0.84481 0.35165 0.80127 0.0
Cd226 Cd 0.85961 0.37917 0.85989 0.0
O227 O 0.82512 0.30625 0.8254 0.0
Cd228 Cd 0.8302 0.31294 0.89791 0.0
C229 C 0.9049 0.35473 0.89522 0.0
O230 O 0.81813 0.35188 0.89968 0.0
O231 O 0.83291 0.34464 0.95413 0.0
O232 O 0.78045 0.2728 0.90793 0.0
C233 C 0.82291 0.35839 0.93519 0.0
O234 O 0.90109 0.37546 0.88299 0.0
C235 C 0.78669 0.25731 0.92976 0.0
O236 O 0.88328 0.32871 0.90097 0.0
O237 O 0.81383 0.26679 0.93577 0.0
C238 C 0.48242 0.83684 0.30438 0.0
O239 O 0.46172 0.84242 0.30872 0.0
Cd240 Cd 0.44922 0.85906 0.36517 0.0
O241 O 0.49823 0.83765 0.33297 0.0
Cd242 Cd 0.49755 0.84415 0.40611 0.0
C243 C 0.51997 0.91635 0.38973 0.0
O244 O 0.4448 0.82282 0.40863 0.0
O245 O 0.46624 0.84281 0.46195 0.0
O246 O 0.50387 0.80087 0.40787 0.0
C247 C 0.4423 0.82874 0.44342 0.0
O248 O 0.49384 0.90615 0.37727 0.0
C249 C 0.51934 0.80828 0.43844 0.0
O250 O 0.5286 0.89909 0.40245 0.0
O251 O 0.52628 0.83334 0.45299 0.0
C252 C 0.43193 0.32224 0.1412 0.0
O253 O 0.44513 0.35007 0.13658 0.0
Cd254 Cd 0.46475 0.37621 0.07755 0.0
O255 O 0.4261 0.3047 0.11247 0.0
Cd256 Cd 0.43159 0.31124 0.04029 0.0
C257 C 0.39995 0.35342 0.03002 0.0
O258 O 0.48366 0.34941 0.04503 0.0
O259 O 0.46572 0.3412 -0.01231 0.0
O260 O 0.43095 0.26407 0.04218 0.0
C261 C 0.48802 0.35509 0.00928 0.0
O262 O 0.42433 0.37437 0.04253 0.0
C263 C 0.41743 0.25429 0.01031 0.0
O264 O 0.39436 0.32669 0.03011 0.0
O265 O 0.40948 0.27048 -0.00698 0.0
C266 C 0.1082 0.46096 0.63854 0.0
O267 O 0.10296 0.48205 0.63561 0.0
Cd268 Cd 0.08669 0.49558 0.5799 0.0
O269 O 0.10772 0.44583 0.60906 0.0
Cd270 Cd 0.10384 0.44892 0.53636 0.0
C271 C 0.03131 0.42462 0.55003 0.0
O272 O 0.12214 0.50125 0.53461 0.0
O273 O 0.10275 0.47923 0.48108 0.0
O274 O 0.15248 0.45583 0.53214 0.0
C275 C 0.11579 0.50335 0.5 0.0
O276 O 0.04118 0.45046 0.56426 0.0
C277 C 0.14715 0.43559 0.50768 0.0
O278 O 0.0489 0.41636 0.53712 0.0
O279 O 0.12045 0.4194 0.49719 0.0
C280 C 0.62378 0.12457 0.14409 0.0
O281 O 0.59739 0.11821 0.13854 0.0
Cd282 Cd 0.56932 0.09938 0.08155 0.0
O283 O 0.63973 0.12404 0.11638 0.0
Cd284 Cd 0.63431 0.11766 0.04342 0.0
C285 C 0.58754 0.04496 0.05871 0.0
O286 O 0.59953 0.1344 0.03594 0.0
O287 O 0.60395 0.11278 -0.01452 0.0
O288 O 0.67587 0.16664 0.03637 0.0
C289 C 0.59232 0.12643 0.0012 0.0
O290 O 0.57046 0.05409 0.07039 0.0
C291 C 0.69059 0.16027 0.01309 0.0
O292 O 0.61357 0.06313 0.04684 0.0
O293 O 0.68021 0.13297 0.0053 0.0
C294 C 0.48995 0.63873 0.64205 0.0
O295 O 0.47027 0.61218 0.63512 0.0
Cd296 Cd 0.45802 0.58799 0.57433 0.0
O297 O 0.50496 0.65634 0.61473 0.0
Cd298 Cd 0.5035 0.65257 0.54158 0.0
C299 C 0.52742 0.60408 0.54213 0.0
O300 O 0.45026 0.61953 0.5342 0.0
O301 O 0.47624 0.62142 0.48518 0.0
O302 O 0.50585 0.70051 0.54264 0.0
C303 C 0.45085 0.61149 0.49977 0.0
O304 O 0.50086 0.58595 0.55163 0.0
C305 C 0.52233 0.71113 0.51313 0.0
O306 O 0.53685 0.63179 0.53974 0.0
O307 O 0.53139 0.6951 0.49753 0.0
C308 C 0.84054 0.50951 0.14261 0.0
O309 O 0.85071 0.4924 0.13647 0.0
Cd310 Cd 0.85625 0.47217 0.07732 0.0
O311 O 0.8314 0.51881 0.11488 0.0
Cd312 Cd 0.83015 0.51206 0.04244 0.0
C313 C 0.90362 0.53929 0.03504 0.0
O314 O 0.81459 0.45938 0.03958 0.0
O315 O 0.83176 0.48344 -0.0135 0.0
O316 O 0.78073 0.50339 0.03513 0.0
C317 C 0.81994 0.45876 0.00387 0.0
O318 O 0.89756 0.51379 0.04675 0.0
C319 C 0.78697 0.52427 0.01153 0.0
O320 O 0.88397 0.54679 0.03383 0.0
O321 O 0.81406 0.54149 0.00393 0.0
C322 C 0.31166 0.85117 0.63944 0.0
O323 O 0.33889 0.86064 0.63438 0.0
Cd324 Cd 0.36507 0.86764 0.57548 0.0
O325 O 0.29399 0.84433 0.61092 0.0
Cd326 Cd 0.29931 0.84521 0.53822 0.0
C327 C 0.34966 0.91897 0.53553 0.0
O328 O 0.33273 0.82574 0.53919 0.0
O329 O 0.32659 0.83927 0.48325 0.0
O330 O 0.2503 0.80087 0.53886 0.0
C331 C 0.33858 0.82809 0.50341 0.0
O332 O 0.36768 0.91126 0.54751 0.0
C333 C 0.24131 0.80699 0.5081 0.0
O334 O 0.32224 0.90012 0.5324 0.0
O335 O 0.25861 0.8318 0.49252 0.0
C336 C 0.29283 0.46244 0.19724 0.0
C337 C 0.30234 0.44428 0.18004 0.0
C338 C 0.29277 0.46537 0.23771 0.0
C339 C 0.3015 0.44964 0.26188 0.0
H340 H 0.28827 0.47664 0.17939 0.0
H341 H 0.28824 0.48179 0.24997 0.0
S342 S 0.32438 0.39632 0.23091 0.0
N343 N 0.318 0.40837 0.18996 0.0
N344 N 0.31688 0.4131 0.26609 0.0
C345 C 0.30822 0.42928 0.24506 0.0
C346 C 0.3089 0.42678 0.20398 0.0
C347 C 0.84071 0.30656 0.69335 0.0
C348 C 0.82061 0.31264 0.67474 0.0
C349 C 0.8423 0.3067 0.73408 0.0
C350 C 0.82357 0.31253 0.75693 0.0
H351 H 0.85714 0.30465 0.67654 0.0
H352 H 0.85991 0.30491 0.74756 0.0
S353 S 0.76429 0.32502 0.72195 0.0
N354 N 0.77946 0.32103 0.68203 0.0
N355 N 0.78226 0.32096 0.75833 0.0
C356 C 0.80158 0.31566 0.73859 0.0
C357 C 0.80012 0.31576 0.69743 0.0
C358 C 0.4634 0.80912 0.24338 0.0
C359 C 0.48776 0.83017 0.26468 0.0
C360 C 0.4637 0.80933 0.20287 0.0
C361 C 0.48838 0.83057 0.18227 0.0
H362 H 0.44302 0.79413 0.25812 0.0
H363 H 0.44355 0.79447 0.18762 0.0
S364 S 0.55908 0.88792 0.22442 0.0
N365 N 0.53834 0.87067 0.26246 0.0
N366 N 0.53894 0.87101 0.18582 0.0
C367 C 0.51397 0.84973 0.20306 0.0
C368 C 0.51365 0.84954 0.24454 0.0
C369 C 0.63617 0.52488 0.7414 0.0
C370 C 0.62559 0.49822 0.76192 0.0
C371 C 0.63658 0.52504 0.70051 0.0
C372 C 0.62638 0.49851 0.67947 0.0
H373 H 0.64186 0.54517 0.75682 0.0
H374 H 0.64257 0.54544 0.68544 0.0
S375 S 0.6013 0.42407 0.72008 0.0
N376 N 0.60839 0.44563 0.75844 0.0
N377 N 0.60915 0.44589 0.68209 0.0
C378 C 0.61833 0.47238 0.6999 0.0
C379 C 0.61793 0.47224 0.74108 0.0
C380 C 0.11828 0.65843 0.24689 0.0
C381 C 0.09138 0.64444 0.26717 0.0
C382 C 0.11881 0.65857 0.20608 0.0
C383 C 0.09245 0.64479 0.18482 0.0
H384 H 0.13881 0.66679 0.26246 0.0
H385 H 0.13972 0.66699 0.19128 0.0
S386 S 0.01675 0.60929 0.22459 0.0
N387 N 0.03816 0.61971 0.26323 0.0
N388 N 0.03915 0.62011 0.18679 0.0
C389 C 0.06568 0.63331 0.2049 0.0
C390 C 0.06514 0.63309 0.24613 0.0
C391 C 0.41264 0.0876 0.74015 0.0
C392 C 0.43085 0.11303 0.7621 0.0
C393 C 0.41266 0.08868 0.69958 0.0
C394 C 0.43098 0.11518 0.67987 0.0
H395 H 0.40029 0.06628 0.75425 0.0
H396 H 0.40042 0.06814 0.68353 0.0
S397 S 0.48065 0.18828 0.72425 0.0
N398 N 0.46569 0.16582 0.76159 0.0
N399 N 0.46591 0.1678 0.68507 0.0
C400 C 0.44737 0.14121 0.70155 0.0
C401 C 0.44726 0.14014 0.74289 0.0
C402 C 0.51971 0.65427 0.70283 0.0
C403 C 0.49414 0.64853 0.68274 0.0
C404 C 0.52001 0.65387 0.74366 0.0
C405 C 0.49478 0.64786 0.76508 0.0
H406 H 0.53854 0.6564 0.68703 0.0
H407 H 0.53904 0.65569 0.75828 0.0
S408 S 0.42411 0.63575 0.72593 0.0
N409 N 0.44442 0.64005 0.68716 0.0
N410 N 0.44503 0.63943 0.76354 0.0
C411 C 0.47019 0.64479 0.74525 0.0
C412 C 0.46986 0.6451 0.70405 0.0
C413 C 0.81557 0.5088 0.24519 0.0
C414 C 0.84245 0.5206 0.26517 0.0
C415 C 0.81491 0.50813 0.20436 0.0
C416 C 0.84112 0.5193 0.18281 0.0
H417 H 0.79498 0.49755 0.26101 0.0
H418 H 0.79384 0.49645 0.18983 0.0
S419 S 0.917 0.55681 0.22166 0.0
N420 N 0.89572 0.54697 0.26054 0.0
N421 N 0.89449 0.54582 0.18413 0.0
C422 C 0.86804 0.53368 0.20255 0.0
C423 C 0.86871 0.53432 0.24377 0.0
C424 C 0.31079 0.8746 0.70116 0.0
C425 C 0.30137 0.84852 0.67962 0.0
C426 C 0.31128 0.87425 0.74172 0.0
C427 C 0.30237 0.84779 0.76192 0.0
H428 H 0.32023 0.89576 0.68652 0.0
H429 H 0.32101 0.89514 0.75725 0.0
S430 S 0.27357 0.77327 0.71893 0.0
N431 N 0.28089 0.7953 0.68121 0.0
N432 N 0.28176 0.79463 0.75778 0.0
C433 C 0.29063 0.82123 0.74088 0.0
C434 C 0.29016 0.8216 0.6995 0.0
C435 C 0.45273 0.30637 0.23752 0.0
C436 C 0.4345 0.31117 0.26281 0.0
C437 C 0.44917 0.30609 0.19724 0.0
C438 C 0.42772 0.3113 0.18115 0.0
H439 H 0.47126 0.30512 0.24884 0.0
H440 H 0.4651 0.30471 0.17863 0.0
S441 S 0.37286 0.32228 0.23496 0.0
N442 N 0.39251 0.31831 0.26915 0.0
N443 N 0.38654 0.31895 0.19324 0.0
C444 C 0.40802 0.31394 0.20611 0.0
C445 C 0.41122 0.31354 0.24712 0.0
C446 C 0.09034 0.42909 0.69678 0.0
C447 C 0.11323 0.45366 0.67773 0.0
C448 C 0.08898 0.42794 0.73747 0.0
C449 C 0.11064 0.45116 0.7599 0.0
H450 H 0.07186 0.41236 0.68037 0.0
H451 H 0.06951 0.41034 0.75129 0.0
S452 S 0.17722 0.51777 0.72359 0.0
N453 N 0.15964 0.4997 0.684 0.0
N454 N 0.15724 0.49733 0.76041 0.0
C455 C 0.13509 0.47414 0.74111 0.0
C456 C 0.13637 0.47543 0.6999 0.0
C457 C 0.62899 0.15122 0.2457 0.0
C458 C 0.63392 0.13112 0.26654 0.0
C459 C 0.62939 0.15142 0.20521 0.0
C460 C 0.63472 0.13152 0.18416 0.0
H461 H 0.62226 0.16511 0.26074 0.0
H462 H 0.62291 0.16543 0.19027 0.0
S463 S 0.65283 0.07732 0.22512 0.0
N464 N 0.6476 0.0932 0.26352 0.0
N465 N 0.64835 0.09357 0.18688 0.0
C466 C 0.64273 0.11347 0.20456 0.0
C467 C 0.64232 0.11327 0.24604 0.0
C468 C 0.17218 0.41321 0.95998 0.0
C469 C 0.17022 0.43901 0.95807 0.0
C470 C 0.19615 0.4135 -0.02155 0.0
C471 C 0.21831 0.43933 -0.00342 0.0
H472 H 0.15568 0.39305 0.94604 0.0
H473 H 0.19743 0.39346 -0.02164 0.0
S474 S 0.22186 0.51204 0.00159 0.0
N475 N 0.19163 0.4906 -0.0232 0.0
N476 N 0.23593 0.49101 0.01243 0.0
C477 C 0.21582 0.46489 -0.00404 0.0
C478 C 0.19196 0.46476 -0.02355 0.0
C479 C 0.74212 0.19674 0.43196 0.0
C480 C 0.71948 0.17481 0.45487 0.0
C481 C 0.7671 0.22056 0.44893 0.0
C482 C 0.76999 0.22374 0.48946 0.0
H483 H 0.74 0.1961 0.40069 0.0
H484 H 0.78326 0.2376 0.43015 0.0
S485 S 0.71833 0.17104 0.56232 0.0
N486 N 0.7029 0.15649 0.52017 0.0
N487 N 0.74934 0.20173 0.55202 0.0
C488 C 0.74831 0.20117 0.51264 0.0
C489 C 0.72319 0.17657 0.49535 0.0
C490 C 0.52812 0.78306 0.95254 0.0
C491 C 0.52836 0.78543 -0.0068 0.0
C492 C 0.52766 0.75873 0.93436 0.0
C493 C 0.52821 0.73633 0.95615 0.0
H494 H 0.52636 0.79908 0.93468 0.0
H495 H 0.5258 0.75694 0.90307 0.0
S496 S 0.5325 0.7342 0.06338 0.0
N497 N 0.53141 0.76465 0.05461 0.0
N498 N 0.53159 0.7195 0.02054 0.0
C499 C 0.53061 0.73961 -0.00328 0.0
C500 C 0.53037 0.764 0.01523 0.0
C501 C 0.72407 0.53784 0.4523 0.0
C502 C 0.72141 0.53752 0.49293 0.0
C503 C 0.7476 0.53683 0.43442 0.0
C504 C 0.76974 0.53624 0.45651 0.0
H505 H 0.70695 0.53708 0.43413 0.0
H506 H 0.74798 0.53561 0.40307 0.0
S507 S 0.77459 0.53846 0.56396 0.0
N508 N 0.7439 0.53865 0.55473 0.0
N509 N 0.78861 0.53777 0.52128 0.0
C510 C 0.76832 0.53791 0.49716 0.0
C511 C 0.74402 0.53825 0.51533 0.0
C512 C 0.2099 0.74465 0.94543 0.0
C513 C 0.21735 0.77433 0.95092 0.0
C514 C 0.18621 0.72161 0.96514 0.0
C515 C 0.16856 0.72718 -0.0096 0.0
H516 H 0.22307 0.73914 0.92672 0.0
H517 H 0.18181 0.69919 0.96084 0.0
S518 S 0.17733 0.80034 0.01382 0.0
N519 N 0.20442 0.80782 -0.01688 0.0
N520 N 0.15911 0.764 0.01921 0.0
C521 C 0.17487 0.75643 -0.0047 0.0
C522 C 0.19948 0.78014 -0.0242 0.0
C523 C 0.41006 0.20291 0.51189 0.0
C524 C 0.4088 0.17957 0.48977 0.0
C525 C 0.40959 0.22678 0.49413 0.0
C526 C 0.40857 0.22853 0.45354 0.0
H527 H 0.4125 0.20327 0.54309 0.0
H528 H 0.41195 0.24486 0.51219 0.0
S529 S 0.40209 0.17199 0.38267 0.0
N530 N 0.40375 0.15857 0.42521 0.0
N531 N 0.40383 0.20385 0.39192 0.0
C532 C 0.40575 0.20467 0.43124 0.0
C533 C 0.40558 0.18006 0.44933 0.0
C534 C 0.76123 0.55052 -0.01363 0.0
C535 C 0.76337 0.52485 -0.01075 0.0
C536 C 0.73757 0.54997 0.96652 0.0
C537 C 0.71599 0.52402 0.94789 0.0
H538 H 0.77739 0.57079 0.00044 0.0
H539 H 0.73611 0.56989 0.96586 0.0
S540 S 0.71324 0.45159 0.94526 0.0
N541 N 0.74278 0.47329 0.97106 0.0
N542 N 0.69917 0.47234 0.9329 0.0
C543 C 0.7187 0.49859 0.94964 0.0
C544 C 0.74218 0.49899 0.97054 0.0
C545 C 0.16656 0.73814 0.4942 0.0
C546 C 0.16406 0.73535 0.4536 0.0
C547 C 0.19102 0.76217 0.51173 0.0
C548 C 0.2135 0.78469 0.48934 0.0
H549 H 0.15039 0.72079 0.51261 0.0
H550 H 0.19277 0.76262 0.54304 0.0
S551 S 0.21566 0.78941 0.38191 0.0
N552 N 0.18501 0.75816 0.39152 0.0
N553 N 0.23047 0.80377 0.42438 0.0
C554 C 0.21026 0.78315 0.44876 0.0
C555 C 0.18569 0.75834 0.43091 0.0
C556 C 0.41504 0.20096 0.93366 0.0
C557 C 0.41524 0.17848 0.95565 0.0
C558 C 0.414 0.22454 0.95164 0.0
C559 C 0.41392 0.22693 -0.00771 0.0
H560 H 0.4163 0.20064 0.90231 0.0
H561 H 0.41471 0.24176 0.93353 0.0
S562 S 0.41274 0.17315 0.063 0.0
N563 N 0.4136 0.15924 0.02024 0.0
N564 N 0.41261 0.20407 0.054 0.0
C565 C 0.41321 0.20416 0.0146 0.0
C566 C 0.41359 0.17979 -0.00372 0.0
C567 C 0.19814 0.46123 0.48239 0.0
C568 C 0.17194 0.43436 0.48901 0.0
C569 C 0.22226 0.46199 0.46414 0.0
C570 C 0.22161 0.43586 0.45261 0.0
H571 H 0.19991 0.48208 0.49074 0.0
H572 H 0.2418 0.48334 0.4594 0.0
S573 S 0.15864 0.35958 0.464 0.0
N574 N 0.14661 0.38081 0.48251 0.0
N575 N 0.1928 0.38217 0.44949 0.0
C576 C 0.19581 0.40868 0.45959 0.0
C577 C 0.17072 0.40795 0.47734 0.0
C578 C 0.73871 0.23355 0.96379 0.0
C579 C 0.76308 0.23173 0.95074 0.0
C580 C 0.71597 0.2105 -0.01538 0.0
C581 C 0.71618 0.18424 -0.00755 0.0
H582 H 0.73736 0.25323 0.95837 0.0
H583 H 0.69771 0.21312 -0.006 0.0
S584 S 0.77475 0.16808 0.96408 0.0
N585 N 0.78643 0.20178 0.94734 0.0
N586 N 0.7427 0.15755 -0.01477 0.0
C587 C 0.74024 0.18185 -0.02078 0.0
C588 C 0.76398 0.20586 0.95879 0.0
C589 C 0.52761 0.76515 0.43634 0.0
C590 C 0.52584 0.78705 0.45811 0.0
C591 C 0.52877 0.74179 0.45453 0.0
C592 C 0.52735 0.73901 0.49515 0.0
H593 H 0.52711 0.76551 0.40495 0.0
H594 H 0.52891 0.72481 0.43653 0.0
S595 S 0.52487 0.79163 0.56546 0.0
N596 N 0.52504 0.80566 0.5226 0.0
N597 N 0.52617 0.76123 0.55667 0.0
C598 C 0.52694 0.76146 0.51728 0.0
C599 C 0.52648 0.78563 0.49879 0.0
C600 C 0.33702 0.36763 0.03889 0.0
C601 C 0.34749 0.39328 0.01617 0.0
C602 C 0.35213 0.35176 0.03969 0.0
C603 C 0.37797 0.36127 0.01777 0.0
H604 H 0.31915 0.36171 0.05921 0.0
H605 H 0.34541 0.33407 0.06054 0.0
S606 S 0.41057 0.42338 0.94804 0.0
N607 N 0.38223 0.42451 0.96692 0.0
N608 N 0.41051 0.39485 0.96844 0.0
C609 C 0.38642 0.3847 -0.0083 0.0
C610 C 0.37115 0.4007 -0.00913 0.0
C611 C -0.01774 0.41051 0.57741 0.0
C612 C -0.00121 0.40465 0.55031 0.0
C613 C 0.9516 0.39541 0.57645 0.0
C614 C 0.93571 0.37351 0.54843 0.0
H615 H -0.00688 0.42755 0.5993 0.0
H616 H 0.94024 0.40148 0.59762 0.0
S617 S -0.03201 0.34776 0.47257 0.0
N618 N -0.00314 0.37395 0.49588 0.0
N619 N 0.93868 0.3452 0.49421 0.0
C620 C 0.95168 0.36609 0.52231 0.0
C621 C -0.01669 0.38172 0.52322 0.0
C622 C 0.53931 0.9653 0.08817 0.0
C623 C 0.54488 0.94932 0.05982 0.0
C624 C 0.55452 -0.00385 0.08849 0.0
C625 C 0.57608 0.01262 0.06044 0.0
H626 H 0.52232 0.95386 0.10984 0.0
H627 H 0.54861 0.00721 0.11038 0.0
S628 S 0.60104 -0.01835 -0.01816 0.0
N629 N 0.57506 0.95219 0.0045 0.0
N630 N 0.60388 0.01071 0.00506 0.0
C631 C 0.58331 -0.0029 0.03325 0.0
C632 C 0.56766 0.96533 0.03294 0.0
C633 C 0.589 0.58655 0.55163 0.0
C634 C 0.57675 0.55899 0.53253 0.0
C635 C 0.57413 0.60272 0.55233 0.0
C636 C 0.54671 0.59168 0.53391 0.0
H637 H 0.60903 0.59463 0.56828 0.0
H638 H 0.58308 0.62279 0.56952 0.0
S639 S 0.50858 0.52379 0.47375 0.0
N640 N 0.53799 0.52379 0.49022 0.0
N641 N 0.51025 0.55394 0.49158 0.0
C642 C 0.53573 0.56554 0.51206 0.0
C643 C 0.55071 0.54924 0.51135 0.0
C644 C 0.95075 0.54889 0.0066 0.0
C645 C 0.93472 0.56021 0.02539 0.0
C646 C -0.01854 0.56416 0.00731 0.0
C647 C -0.00264 0.59138 0.02678 0.0
H648 H 0.93943 0.52699 -0.00631 0.0
H649 H -0.00721 0.55353 -0.00508 0.0
S650 S 0.96598 0.63243 0.07608 0.0
N651 N 0.93693 0.60173 0.0604 0.0
N652 N -0.00492 0.63068 0.06164 0.0
C653 C -0.01819 0.6044 0.04243 0.0
C654 C 0.95029 0.58871 0.04174 0.0
C655 C 0.40612 -0.00186 0.51381 0.0
C656 C 0.39286 0.01407 0.52737 0.0
C657 C 0.39092 0.96725 0.51371 0.0
C658 C 0.36176 0.95083 0.52719 0.0
H659 H 0.42905 0.00968 0.50507 0.0
H660 H 0.40271 0.95612 0.50486 0.0
S661 S 0.31581 -0.01823 0.56155 0.0
N662 N 0.34793 0.01122 0.5512 0.0
N663 N 0.31916 0.95272 0.55104 0.0
C664 C 0.34733 0.96633 0.53787 0.0
C665 C 0.36295 -0.00192 0.53795 0.0
C666 C 0.57285 0.60045 0.89785 0.0
C667 C 0.545 0.5887 0.9155 0.0
C668 C 0.58794 0.58451 0.89782 0.0
C669 C 0.57548 0.55651 0.91547 0.0
H670 H 0.58192 0.62083 0.8815 0.0
H671 H 0.6082 0.59302 0.8814 0.0
S672 S 0.50598 0.51918 0.97191 0.0
N673 N 0.5078 0.54971 0.9557 0.0
N674 N 0.53599 0.52 0.95578 0.0
C675 C 0.54905 0.54608 0.93621 0.0
C676 C 0.53383 0.56213 0.93618 0.0
C677 C 0.95033 0.5852 0.41031 0.0
C678 C 0.93441 0.55684 0.42693 0.0
C679 C -0.01864 0.60093 0.41059 0.0
C680 C -0.00291 0.58863 0.42749 0.0
H681 H 0.93894 0.59405 0.39406 0.0
H682 H -0.00705 0.62144 0.39453 0.0
S683 S 0.96541 0.51807 0.48169 0.0
N684 N 0.93653 0.51943 0.46589 0.0
N685 N -0.00552 0.54883 0.46644 0.0
C686 C -0.01873 0.56182 0.44764 0.0
C687 C 0.94997 0.54594 0.44735 0.0
C688 C 0.38117 -0.00575 0.9403 0.0
C689 C 0.38124 0.00959 0.90693 0.0
C690 C 0.36609 0.96317 0.94084 0.0
C691 C 0.35066 0.94669 0.90806 0.0
H692 H 0.39476 0.00631 0.96491 0.0
H693 H 0.36844 0.95206 0.96584 0.0
S694 S 0.34345 0.97651 0.81423 0.0
N695 N 0.36378 0.00617 0.84108 0.0
N696 N 0.33536 0.94779 0.84213 0.0
C697 C 0.34907 0.96179 0.87549 0.0
C698 C 0.36443 -0.00668 0.87492 0.0
C699 C 0.3548 0.38403 0.39757 0.0
C700 C 0.37008 0.41506 0.40189 0.0
C701 C 0.36994 0.36812 0.39749 0.0
C702 C 0.40079 0.38278 0.40164 0.0
H703 H 0.33129 0.37218 0.39247 0.0
H704 H 0.35762 0.34445 0.39244 0.0
S705 S 0.45008 0.46306 0.42029 0.0
N706 N 0.41715 0.45915 0.41526 0.0
N707 N 0.44534 0.4296 0.41479 0.0
C708 C 0.41585 0.4135 0.40841 0.0
C709 C 0.40057 0.42952 0.40862 0.0
C710 C -0.01772 0.39606 0.932 0.0
C711 C -0.00202 0.39245 0.90146 0.0
C712 C 0.95144 0.38096 0.93197 0.0
C713 C 0.93539 0.36181 0.9014 0.0
H714 H -0.00607 0.41238 0.95447 0.0
H715 H 0.94015 0.38605 0.95442 0.0
S716 S 0.96618 0.344 0.81552 0.0
N717 N -0.00463 0.36748 0.84085 0.0
N718 N 0.93726 0.33901 0.84081 0.0
C719 C 0.95077 0.35656 0.87201 0.0
C720 C -0.01781 0.37195 0.87203 0.0
C721 C 0.5595 0.96484 0.41807 0.0
C722 C 0.54016 0.94881 0.38757 0.0
C723 C 0.57484 -0.0039 0.41844 0.0
C724 C 0.57119 0.01207 0.38833 0.0
H725 H 0.56157 0.95322 0.44266 0.0
H726 H 0.58832 0.00772 0.44329 0.0
S727 S 0.52765 0.98047 0.29853 0.0
N728 N 0.52159 0.95137 0.32418 0.0
N729 N 0.55011 0.00956 0.32491 0.0
C730 C 0.55364 -0.0038 0.3565 0.0
C731 C 0.5382 0.96471 0.35611 0.0
C732 C 0.4164 0.57792 -0.0013 0.0
C733 C 0.41897 0.58424 0.9588 0.0
C734 C 0.39181 0.55267 0.01373 0.0
C735 C 0.36901 0.53249 -0.01062 0.0
H736 H 0.43373 0.59236 0.01848 0.0
H737 H 0.39113 0.54851 0.04456 0.0
S738 S 0.36401 0.53962 0.88316 0.0
N739 N 0.39558 0.56894 0.89547 0.0
N740 N 0.34977 0.52125 0.92376 0.0
C741 C 0.37088 0.53888 0.94962 0.0
C742 C 0.39572 0.56482 0.93433 0.0
C743 C 0.80969 0.39473 0.50331 0.0
C744 C 0.81226 0.37496 0.47792 0.0
C745 C 0.8092 0.41959 0.48936 0.0
C746 C 0.81072 0.42543 0.44942 0.0
H747 H 0.80903 0.39159 0.5344 0.0
H748 H 0.80811 0.43462 0.51015 0.0
S749 S 0.81495 0.37898 0.37056 0.0
N750 N 0.81468 0.36193 0.41085 0.0
N751 N 0.81301 0.40822 0.3844 0.0
C752 C 0.81192 0.40508 0.42356 0.0
C753 C 0.81292 0.37999 0.43787 0.0
C754 C 0.37434 0.82771 -0.00781 0.0
C755 C 0.37102 0.8292 0.95198 0.0
C756 C 0.39888 0.82751 0.0075 0.0
C757 C 0.42137 0.82936 -0.01676 0.0
H758 H 0.35792 0.82686 0.01206 0.0
H759 H 0.4006 0.82671 0.03871 0.0
S760 S 0.42285 0.83255 0.87583 0.0
N761 N 0.39188 0.83136 0.88802 0.0
N762 N 0.43829 0.83171 0.91701 0.0
C763 C 0.41815 0.8304 0.94298 0.0
C764 C 0.3929 0.8301 0.9273 0.0
C765 C 0.54351 0.38225 0.45985 0.0
C766 C 0.51695 0.38226 0.45587 0.0
C767 C 0.56927 0.40779 0.47216 0.0
C768 C 0.56937 0.43435 0.47923 0.0
H769 H 0.54425 0.36217 0.45408 0.0
H770 H 0.58914 0.40683 0.47611 0.0
S771 S 0.50577 0.44612 0.47171 0.0
N772 N 0.49236 0.41105 0.45963 0.0
N773 N 0.54093 0.45923 0.4812 0.0
C774 C 0.54311 0.43476 0.47451 0.0
C775 C 0.51679 0.40865 0.46317 0.0
C776 C 0.13066 0.55385 0.94844 0.0
C777 C 0.10733 0.52522 0.95691 0.0
C778 C 0.13151 0.57905 0.96432 0.0
C779 C 0.10885 0.57633 -0.01133 0.0
H780 H 0.14848 0.55679 0.92961 0.0
H781 H 0.14992 0.60073 0.95749 0.0
S782 S 0.0417 0.50684 0.01711 0.0
N783 N 0.06042 0.49589 -0.01006 0.0
N784 N 0.06177 0.5433 0.01885 0.0
C785 C 0.08518 0.548 -0.00323 0.0
C786 C 0.08448 0.52237 -0.01887 0.0
C787 C 0.52394 0.13755 0.45138 0.0
C788 C 0.51935 0.13853 0.49142 0.0
C789 C 0.54853 0.13672 0.43718 0.0
C790 C 0.56923 0.13626 0.46248 0.0
H791 H 0.50817 0.13694 0.43076 0.0
H792 H 0.55076 0.13548 0.40609 0.0
S793 S 0.56875 0.14075 0.56974 0.0
N794 N 0.53886 0.14109 0.55619 0.0
N795 N 0.58453 0.13859 0.52932 0.0
C796 C 0.56543 0.13808 0.50251 0.0
C797 C 0.54067 0.13951 0.51702 0.0
C798 C 0.52186 0.3822 0.95434 0.0
C799 C 0.5159 0.38009 -0.00568 0.0
C800 C 0.54697 0.40656 0.93883 0.0
C801 C 0.56694 0.43007 0.9626 0.0
H802 H 0.50682 0.36501 0.93472 0.0
H803 H 0.55026 0.40728 0.90773 0.0
S804 S 0.56208 0.43486 0.06948 0.0
N805 N 0.53265 0.40314 0.05771 0.0
N806 N 0.57964 0.44919 0.02837 0.0
C807 C 0.56162 0.42799 0.00276 0.0
C808 C 0.53618 0.40294 0.01867 0.0
C809 C 0.11562 0.55974 0.43107 0.0
C810 C 0.11994 0.583 0.45601 0.0
C811 C 0.11469 0.53422 0.44541 0.0
C812 C 0.11856 0.53122 0.48511 0.0
H813 H 0.11195 0.56078 0.40038 0.0
H814 H 0.11059 0.51659 0.42527 0.0
S815 S 0.13287 0.58699 0.56201 0.0
N816 N 0.12947 0.60208 0.5219 0.0
N817 N 0.12852 0.55463 0.54887 0.0
C818 C 0.12406 0.5549 0.51011 0.0
C819 C 0.12452 0.58063 0.49557 0.0
C820 C 0.54725 0.13056 0.00707 0.0
C821 C 0.56759 0.12788 -0.01676 0.0
C822 C 0.52272 0.13049 -0.00863 0.0
C823 C 0.51784 0.12831 0.95116 0.0
H824 H 0.54984 0.13203 0.03829 0.0
H825 H 0.50737 0.13201 0.01098 0.0
S826 S 0.56549 0.12247 0.87596 0.0
N827 N 0.5818 0.12387 0.91736 0.0
N828 N 0.53604 0.12445 0.88759 0.0
C829 C 0.53849 0.1265 0.92684 0.0
C830 C 0.56325 0.12605 0.94295 0.0
C831 C 0.39622 0.57995 0.49301 0.0
C832 C 0.4246 0.58572 0.48279 0.0
C833 C 0.37092 0.55454 0.47944 0.0
C834 C 0.37327 0.53388 0.45585 0.0
H835 H 0.39356 0.59518 0.51167 0.0
H836 H 0.34945 0.55092 0.48765 0.0
S837 S 0.44205 0.53747 0.4225 0.0
N838 N 0.45328 0.56802 0.4482 0.0
N839 N 0.40574 0.52006 0.42372 0.0
C840 C 0.40135 0.53913 0.44571 0.0
C841 C 0.42706 0.56515 0.45891 0.0
C842 C 0.82087 0.38693 -0.00744 0.0
C843 C 0.82078 0.3834 0.95209 0.0
C844 C 0.81962 0.41085 0.00912 0.0
C845 C 0.81876 0.43243 -0.01418 0.0
H846 H 0.82199 0.37113 0.01164 0.0
H847 H 0.82014 0.41284 0.04043 0.0
S848 S 0.81718 0.43306 0.87835 0.0
N849 N 0.81876 0.40318 0.8891 0.0
N850 N 0.81698 0.44828 0.92031 0.0
C851 C 0.81827 0.42898 0.94537 0.0
C852 C 0.81912 0.40444 0.92849 0.0
C853 C 0.41139 0.82959 0.49828 0.0
C854 C 0.41439 0.82558 0.45851 0.0
C855 C 0.38619 0.8291 0.51283 0.0
C856 C 0.36331 0.82517 0.48803 0.0
H857 H 0.42883 0.83358 0.51831 0.0
H858 H 0.38518 0.83291 0.54355 0.0
S859 S 0.3592 0.81158 0.38205 0.0
N860 N 0.39115 0.81547 0.39493 0.0
N861 N 0.34437 0.81553 0.42228 0.0
C862 C 0.36558 0.82029 0.44844 0.0
C863 C 0.39095 0.8202 0.43369 0.0
loop_
_geom_bond_atom_site_label_1
_geom_bond_atom_site_label_2
_geom_bond_distance
_geom_bond_site_symmetry_2
_ccdc_geom_bond_type
C0 O1 1.306 . S
C0 O3 1.160 . S
O1 C0 1.306 . S
O1 Cd2 2.228 . S
Cd2 O1 2.228 . S
Cd2 O6 2.273 . S
Cd2 O10 2.277 . S
O3 C0 1.160 . S
O3 Cd4 2.203 . S
Cd4 O3 2.203 . S
Cd4 O6 2.411 . S
Cd4 O7 2.333 . S
Cd4 O8 2.352 . S
Cd4 O12 2.277 . S
Cd4 O13 2.356 . S
C5 O10 1.209 . S
C5 O12 1.226 . S
O6 Cd2 2.273 . S
O6 Cd4 2.411 . S
O6 C9 1.320 . S
O7 Cd4 2.333 . S
O7 C9 1.214 . S
O8 Cd4 2.352 . S
O8 C11 1.258 . S
C9 O6 1.320 . S
C9 O7 1.214 . S
O10 Cd2 2.277 . S
O10 C5 1.209 . S
C11 O8 1.258 . S
C11 O13 1.282 . S
O12 Cd4 2.277 . S
O12 C5 1.226 . S
O13 Cd4 2.356 . S
O13 C11 1.282 . S
C14 O15 1.306 . S
C14 O17 1.160 . S
O15 C14 1.306 . S
O15 Cd16 2.228 . S
Cd16 O15 2.228 . S
Cd16 O20 2.273 . S
Cd16 O24 2.277 . S
O17 C14 1.160 . S
O17 Cd18 2.203 . S
Cd18 O17 2.203 . S
Cd18 O20 2.411 . S
Cd18 O21 2.333 . S
Cd18 O22 2.352 . S
Cd18 O26 2.277 . S
Cd18 O27 2.356 . S
C19 O24 1.209 . S
C19 O26 1.226 . S
O20 Cd16 2.273 . S
O20 Cd18 2.411 . S
O20 C23 1.320 . S
O21 Cd18 2.333 . S
O21 C23 1.214 . S
O22 Cd18 2.352 . S
O22 C25 1.258 . S
C23 O20 1.320 . S
C23 O21 1.214 . S
O24 Cd16 2.277 . S
O24 C19 1.209 . S
C25 O22 1.258 . S
C25 O27 1.282 . S
O26 Cd18 2.277 . S
O26 C19 1.226 . S
O27 Cd18 2.356 . S
O27 C25 1.282 . S
C28 O29 1.306 . S
C28 O31 1.160 . S
O29 C28 1.306 . S
O29 Cd30 2.228 . S
Cd30 O29 2.228 . S
Cd30 O34 2.273 . S
Cd30 O38 2.277 . S
O31 C28 1.160 . S
O31 Cd32 2.203 . S
Cd32 O31 2.203 . S
Cd32 O34 2.411 . S
Cd32 O35 2.333 . S
Cd32 O36 2.352 . S
Cd32 O40 2.277 . S
Cd32 O41 2.356 . S
C33 O38 1.209 . S
C33 O40 1.226 . S
O34 Cd30 2.273 . S
O34 Cd32 2.411 . S
O34 C37 1.320 . S
O35 Cd32 2.333 . S
O35 C37 1.214 . S
O36 Cd32 2.352 . S
O36 C39 1.258 . S
C37 O34 1.320 . S
C37 O35 1.214 . S
O38 Cd30 2.277 . S
O38 C33 1.209 . S
C39 O36 1.258 . S
C39 O41 1.282 . S
O40 Cd32 2.277 . S
O40 C33 1.226 . S
O41 Cd32 2.356 . S
O41 C39 1.282 . S
C42 O43 1.306 . S
C42 O45 1.160 . S
O43 C42 1.306 . S
O43 Cd44 2.228 . S
Cd44 O43 2.228 . S
Cd44 O48 2.273 . S
Cd44 O52 2.277 . S
O45 C42 1.160 . S
O45 Cd46 2.203 . S
Cd46 O45 2.203 . S
Cd46 O48 2.411 . S
Cd46 O49 2.333 . S
Cd46 O50 2.352 . S
Cd46 O54 2.277 . S
Cd46 O55 2.356 . S
C47 O52 1.209 . S
C47 O54 1.226 . S
O48 Cd44 2.273 . S
O48 Cd46 2.411 . S
O48 C51 1.320 . S
O49 Cd46 2.333 . S
O49 C51 1.214 . S
O50 Cd46 2.352 . S
O50 C53 1.258 . S
C51 O48 1.320 . S
C51 O49 1.214 . S
O52 Cd44 2.277 . S
O52 C47 1.209 . S
C53 O50 1.258 . S
C53 O55 1.282 . S
O54 Cd46 2.277 . S
O54 C47 1.226 . S
O55 Cd46 2.356 . S
O55 C53 1.282 . S
C56 O57 1.306 . S
C56 O59 1.160 . S
O57 C56 1.306 . S
O57 Cd58 2.228 . S
Cd58 O57 2.228 . S
Cd58 O62 2.273 . S
Cd58 O66 2.277 . S
O59 C56 1.160 . S
O59 Cd60 2.203 . S
Cd60 O59 2.203 . S
Cd60 O62 2.411 . S
Cd60 O63 2.333 . S
Cd60 O64 2.352 . S
Cd60 O68 2.277 . S
Cd60 O69 2.356 . S
C61 O66 1.209 . S
C61 O68 1.226 . S
O62 Cd58 2.273 . S
O62 Cd60 2.411 . S
O62 C65 1.320 . S
O63 Cd60 2.333 . S
O63 C65 1.214 . S
O64 Cd60 2.352 . S
O64 C67 1.258 . S
C65 O62 1.320 . S
C65 O63 1.214 . S
O66 Cd58 2.277 . S
O66 C61 1.209 . S
C67 O64 1.258 . S
C67 O69 1.282 . S
O68 Cd60 2.277 . S
O68 C61 1.226 . S
O69 Cd60 2.356 . S
O69 C67 1.282 . S
C70 O71 1.306 . S
C70 O73 1.160 . S
O71 C70 1.306 . S
O71 Cd72 2.228 . S
Cd72 O71 2.228 . S
Cd72 O76 2.273 . S
Cd72 O80 2.277 . S
O73 C70 1.160 . S
O73 Cd74 2.203 . S
Cd74 O73 2.203 . S
Cd74 O76 2.411 . S
Cd74 O77 2.333 . S
Cd74 O78 2.352 . S
Cd74 O82 2.277 . S
Cd74 O83 2.356 . S
C75 O80 1.209 . S
C75 O82 1.226 . S
O76 Cd72 2.273 . S
O76 Cd74 2.411 . S
O76 C79 1.320 . S
O77 Cd74 2.333 . S
O77 C79 1.214 . S
O78 Cd74 2.352 . S
O78 C81 1.258 . S
C79 O76 1.320 . S
C79 O77 1.214 . S
O80 Cd72 2.277 . S
O80 C75 1.209 . S
C81 O78 1.258 . S
C81 O83 1.282 . S
O82 Cd74 2.277 . S
O82 C75 1.226 . S
O83 Cd74 2.356 . S
O83 C81 1.282 . S
C84 O85 1.306 . S
C84 O87 1.160 . S
O85 C84 1.306 . S
O85 Cd86 2.228 . S
Cd86 O85 2.228 . S
Cd86 O90 2.273 . S
Cd86 O94 2.277 . S
O87 C84 1.160 . S
O87 Cd88 2.203 . S
Cd88 O87 2.203 . S
Cd88 O90 2.411 . S
Cd88 O91 2.333 . S
Cd88 O92 2.352 . S
Cd88 O96 2.277 . S
Cd88 O97 2.356 . S
C89 O94 1.209 . S
C89 O96 1.226 . S
O90 Cd86 2.273 . S
O90 Cd88 2.411 . S
O90 C93 1.320 . S
O91 Cd88 2.333 . S
O91 C93 1.214 . S
O92 Cd88 2.352 . S
O92 C95 1.258 . S
C93 O90 1.320 . S
C93 O91 1.214 . S
O94 Cd86 2.277 . S
O94 C89 1.209 . S
C95 O92 1.258 . S
C95 O97 1.282 . S
O96 Cd88 2.277 . S
O96 C89 1.226 . S
O97 Cd88 2.356 . S
O97 C95 1.282 . S
C98 O99 1.306 . S
C98 O101 1.160 . S
O99 C98 1.306 . S
O99 Cd100 2.228 . S
Cd100 O99 2.228 . S
Cd100 O104 2.273 . S
Cd100 O108 2.277 . S
O101 C98 1.160 . S
O101 Cd102 2.203 . S
Cd102 O101 2.203 . S
Cd102 O104 2.411 . S
Cd102 O105 2.333 . S
Cd102 O106 2.352 . S
Cd102 O110 2.277 . S
Cd102 O111 2.356 . S
C103 O108 1.209 . S
C103 O110 1.226 . S
O104 Cd100 2.273 . S
O104 Cd102 2.411 . S
O104 C107 1.320 . S
O105 Cd102 2.333 . S
O105 C107 1.214 . S
O106 Cd102 2.352 . S
O106 C109 1.258 . S
C107 O104 1.320 . S
C107 O105 1.214 . S
O108 Cd100 2.277 . S
O108 C103 1.209 . S
C109 O106 1.258 . S
C109 O111 1.282 . S
O110 Cd102 2.277 . S
O110 C103 1.226 . S
O111 Cd102 2.356 . S
O111 C109 1.282 . S
C112 O113 1.306 . S
C112 O115 1.160 . S
O113 C112 1.306 . S
O113 Cd114 2.228 . S
Cd114 O113 2.228 . S
Cd114 O118 2.273 . S
Cd114 O122 2.277 . S
O115 C112 1.160 . S
O115 Cd116 2.203 . S
Cd116 O115 2.203 . S
Cd116 O118 2.411 . S
Cd116 O119 2.333 . S
Cd116 O120 2.352 . S
Cd116 O124 2.277 . S
Cd116 O125 2.356 . S
C117 O122 1.209 . S
C117 O124 1.226 . S
O118 Cd114 2.273 . S
O118 Cd116 2.411 . S
O118 C121 1.320 . S
O119 Cd116 2.333 . S
O119 C121 1.214 . S
O120 Cd116 2.352 . S
O120 C123 1.258 . S
C121 O118 1.320 . S
C121 O119 1.214 . S
O122 Cd114 2.277 . S
O122 C117 1.209 . S
C123 O120 1.258 . S
C123 O125 1.282 . S
O124 Cd116 2.277 . S
O124 C117 1.226 . S
O125 Cd116 2.356 . S
O125 C123 1.282 . S
C126 O127 1.306 . S
C126 O129 1.160 . S
O127 C126 1.306 . S
O127 Cd128 2.228 . S
Cd128 O127 2.228 . S
Cd128 O132 2.273 . S
Cd128 O136 2.277 . S
O129 C126 1.160 . S
O129 Cd130 2.203 . S
Cd130 O129 2.203 . S
Cd130 O132 2.411 . S
Cd130 O133 2.333 . S
Cd130 O134 2.352 . S
Cd130 O138 2.277 . S
Cd130 O139 2.356 . S
C131 O136 1.209 . S
C131 O138 1.226 . S
O132 Cd128 2.273 . S
O132 Cd130 2.411 . S
O132 C135 1.320 . S
O133 Cd130 2.333 . S
O133 C135 1.214 . S
O134 Cd130 2.352 . S
O134 C137 1.258 . S
C135 O132 1.320 . S
C135 O133 1.214 . S
O136 Cd128 2.277 . S
O136 C131 1.209 . S
C137 O134 1.258 . S
C137 O139 1.282 . S
O138 Cd130 2.277 . S
O138 C131 1.226 . S
O139 Cd130 2.356 . S
O139 C137 1.282 . S
C140 O141 1.306 . S
C140 O143 1.160 . S
O141 C140 1.306 . S
O141 Cd142 2.228 . S
Cd142 O141 2.228 . S
Cd142 O146 2.273 . S
Cd142 O150 2.277 . S
O143 C140 1.160 . S
O143 Cd144 2.203 . S
Cd144 O143 2.203 . S
Cd144 O146 2.411 . S
Cd144 O147 2.333 . S
Cd144 O148 2.352 . S
Cd144 O152 2.277 . S
Cd144 O153 2.356 . S
C145 O150 1.209 . S
C145 O152 1.226 . S
O146 Cd142 2.273 . S
O146 Cd144 2.411 . S
O146 C149 1.320 . S
O147 Cd144 2.333 . S
O147 C149 1.214 . S
O148 Cd144 2.352 . S
O148 C151 1.258 . S
C149 O146 1.320 . S
C149 O147 1.214 . S
O150 Cd142 2.277 . S
O150 C145 1.209 . S
C151 O148 1.258 . S
C151 O153 1.282 . S
O152 Cd144 2.277 . S
O152 C145 1.226 . S
O153 Cd144 2.356 . S
O153 C151 1.282 . S
C154 O155 1.306 . S
C154 O157 1.160 . S
O155 C154 1.306 . S
O155 Cd156 2.228 . S
Cd156 O155 2.228 . S
Cd156 O160 2.273 . S
Cd156 O164 2.277 . S
O157 C154 1.160 . S
O157 Cd158 2.203 . S
Cd158 O157 2.203 . S
Cd158 O160 2.411 . S
Cd158 O161 2.333 . S
Cd158 O162 2.352 . S
Cd158 O166 2.277 . S
Cd158 O167 2.356 . S
C159 O164 1.209 . S
C159 O166 1.226 . S
O160 Cd156 2.273 . S
O160 Cd158 2.411 . S
O160 C163 1.320 . S
O161 Cd158 2.333 . S
O161 C163 1.214 . S
O162 Cd158 2.352 . S
O162 C165 1.258 . S
C163 O160 1.320 . S
C163 O161 1.214 . S
O164 Cd156 2.277 . S
O164 C159 1.209 . S
C165 O162 1.258 . S
C165 O167 1.282 . S
O166 Cd158 2.277 . S
O166 C159 1.226 . S
O167 Cd158 2.356 . S
O167 C165 1.282 . S
C168 O169 1.306 . S
C168 O171 1.160 . S
O169 C168 1.306 . S
O169 Cd170 2.228 . S
Cd170 O169 2.228 . S
Cd170 O174 2.273 . S
Cd170 O178 2.277 . S
O171 C168 1.160 . S
O171 Cd172 2.203 . S
Cd172 O171 2.203 . S
Cd172 O174 2.411 . S
Cd172 O175 2.333 . S
Cd172 O176 2.352 . S
Cd172 O180 2.277 . S
Cd172 O181 2.356 . S
C173 O178 1.209 . S
C173 O180 1.226 . S
O174 Cd170 2.273 . S
O174 Cd172 2.411 . S
O174 C177 1.320 . S
O175 Cd172 2.333 . S
O175 C177 1.214 . S
O176 Cd172 2.352 . S
O176 C179 1.258 . S
C177 O174 1.320 . S
C177 O175 1.214 . S
O178 Cd170 2.277 . S
O178 C173 1.209 . S
C179 O176 1.258 . S
C179 O181 1.282 . S
O180 Cd172 2.277 . S
O180 C173 1.226 . S
O181 Cd172 2.356 . S
O181 C179 1.282 . S
C182 O183 1.306 . S
C182 O185 1.160 . S
O183 C182 1.306 . S
O183 Cd184 2.228 . S
Cd184 O183 2.228 . S
Cd184 O188 2.273 . S
Cd184 O192 2.277 . S
O185 C182 1.160 . S
O185 Cd186 2.203 . S
Cd186 O185 2.203 . S
Cd186 O188 2.411 . S
Cd186 O189 2.333 . S
Cd186 O190 2.352 . S
Cd186 O194 2.277 . S
Cd186 O195 2.356 . S
C187 O192 1.209 . S
C187 O194 1.226 . S
O188 Cd184 2.273 . S
O188 Cd186 2.411 . S
O188 C191 1.320 . S
O189 Cd186 2.333 . S
O189 C191 1.214 . S
O190 Cd186 2.352 . S
O190 C193 1.258 . S
C191 O188 1.320 . S
C191 O189 1.214 . S
O192 Cd184 2.277 . S
O192 C187 1.209 . S
C193 O190 1.258 . S
C193 O195 1.282 . S
O194 Cd186 2.277 . S
O194 C187 1.226 . S
O195 Cd186 2.356 . S
O195 C193 1.282 . S
C196 O197 1.306 . S
C196 O199 1.160 . S
O197 C196 1.306 . S
O197 Cd198 2.228 . S
Cd198 O197 2.228 . S
Cd198 O202 2.273 . S
Cd198 O206 2.277 . S
O199 C196 1.160 . S
O199 Cd200 2.203 . S
Cd200 O199 2.203 . S
Cd200 O202 2.411 . S
Cd200 O203 2.333 . S
Cd200 O204 2.352 . S
Cd200 O208 2.277 . S
Cd200 O209 2.356 . S
C201 O206 1.209 . S
C201 O208 1.226 . S
O202 Cd198 2.273 . S
O202 Cd200 2.411 . S
O202 C205 1.320 . S
O203 Cd200 2.333 . S
O203 C205 1.214 . S
O204 Cd200 2.352 . S
O204 C207 1.258 . S
C205 O202 1.320 . S
C205 O203 1.214 . S
O206 Cd198 2.277 . S
O206 C201 1.209 . S
C207 O204 1.258 . S
C207 O209 1.282 . S
O208 Cd200 2.277 . S
O208 C201 1.226 . S
O209 Cd200 2.356 . S
O209 C207 1.282 . S
C210 O211 1.306 . S
C210 O213 1.160 . S
O211 C210 1.306 . S
O211 Cd212 2.228 . S
Cd212 O211 2.228 . S
Cd212 O216 2.273 . S
Cd212 O220 2.277 . S
O213 C210 1.160 . S
O213 Cd214 2.203 . S
Cd214 O213 2.203 . S
Cd214 O216 2.411 . S
Cd214 O217 2.333 . S
Cd214 O218 2.352 . S
Cd214 O222 2.277 . S
Cd214 O223 2.356 . S
C215 O220 1.209 . S
C215 O222 1.226 . S
O216 Cd212 2.273 . S
O216 Cd214 2.411 . S
O216 C219 1.320 . S
O217 Cd214 2.333 . S
O217 C219 1.214 . S
O218 Cd214 2.352 . S
O218 C221 1.258 . S
C219 O216 1.320 . S
C219 O217 1.214 . S
O220 Cd212 2.277 . S
O220 C215 1.209 . S
C221 O218 1.258 . S
C221 O223 1.282 . S
O222 Cd214 2.277 . S
O222 C215 1.226 . S
O223 Cd214 2.356 . S
O223 C221 1.282 . S
C224 O225 1.306 . S
C224 O227 1.160 . S
O225 C224 1.306 . S
O225 Cd226 2.228 . S
Cd226 O225 2.228 . S
Cd226 O230 2.273 . S
Cd226 O234 2.277 . S
O227 C224 1.160 . S
O227 Cd228 2.203 . S
Cd228 O227 2.203 . S
Cd228 O230 2.411 . S
Cd228 O231 2.333 . S
Cd228 O232 2.352 . S
Cd228 O236 2.277 . S
Cd228 O237 2.356 . S
C229 O234 1.209 . S
C229 O236 1.226 . S
O230 Cd226 2.273 . S
O230 Cd228 2.411 . S
O230 C233 1.320 . S
O231 Cd228 2.333 . S
O231 C233 1.214 . S
O232 Cd228 2.352 . S
O232 C235 1.258 . S
C233 O230 1.320 . S
C233 O231 1.214 . S
O234 Cd226 2.277 . S
O234 C229 1.209 . S
C235 O232 1.258 . S
C235 O237 1.282 . S
O236 Cd228 2.277 . S
O236 C229 1.226 . S
O237 Cd228 2.356 . S
O237 C235 1.282 . S
C238 O239 1.306 . S
C238 O241 1.160 . S
O239 C238 1.306 . S
O239 Cd240 2.228 . S
Cd240 O239 2.228 . S
Cd240 O244 2.273 . S
Cd240 O248 2.277 . S
O241 C238 1.160 . S
O241 Cd242 2.203 . S
Cd242 O241 2.203 . S
Cd242 O244 2.411 . S
Cd242 O245 2.333 . S
Cd242 O246 2.352 . S
Cd242 O250 2.277 . S
Cd242 O251 2.356 . S
C243 O248 1.209 . S
C243 O250 1.226 . S
O244 Cd240 2.273 . S
O244 Cd242 2.411 . S
O244 C247 1.320 . S
O245 Cd242 2.333 . S
O245 C247 1.214 . S
O246 Cd242 2.352 . S
O246 C249 1.258 . S
C247 O244 1.320 . S
C247 O245 1.214 . S
O248 Cd240 2.277 . S
O248 C243 1.209 . S
C249 O246 1.258 . S
C249 O251 1.282 . S
O250 Cd242 2.277 . S
O250 C243 1.226 . S
O251 Cd242 2.356 . S
O251 C249 1.282 . S
C252 O253 1.306 . S
C252 O255 1.160 . S
O253 C252 1.306 . S
O253 Cd254 2.228 . S
Cd254 O253 2.228 . S
Cd254 O258 2.273 . S
Cd254 O262 2.277 . S
O255 C252 1.160 . S
O255 Cd256 2.203 . S
Cd256 O255 2.203 . S
Cd256 O258 2.411 . S
Cd256 O259 2.333 . S
Cd256 O260 2.352 . S
Cd256 O264 2.277 . S
Cd256 O265 2.356 . S
C257 O262 1.209 . S
C257 O264 1.226 . S
O258 Cd254 2.273 . S
O258 Cd256 2.411 . S
O258 C261 1.320 . S
O259 Cd256 2.333 . S
O259 C261 1.214 . S
O260 Cd256 2.352 . S
O260 C263 1.258 . S
C261 O258 1.320 . S
C261 O259 1.214 . S
O262 Cd254 2.277 . S
O262 C257 1.209 . S
C263 O260 1.258 . S
C263 O265 1.282 . S
O264 Cd256 2.277 . S
O264 C257 1.226 . S
O265 Cd256 2.356 . S
O265 C263 1.282 . S
C266 O267 1.306 . S
C266 O269 1.160 . S
O267 C266 1.306 . S
O267 Cd268 2.228 . S
Cd268 O267 2.228 . S
Cd268 O272 2.273 . S
Cd268 O276 2.277 . S
O269 C266 1.160 . S
O269 Cd270 2.203 . S
Cd270 O269 2.203 . S
Cd270 O272 2.411 . S
Cd270 O273 2.333 . S
Cd270 O274 2.352 . S
Cd270 O278 2.277 . S
Cd270 O279 2.356 . S
C271 O276 1.209 . S
C271 O278 1.226 . S
O272 Cd268 2.273 . S
O272 Cd270 2.411 . S
O272 C275 1.320 . S
O273 Cd270 2.333 . S
O273 C275 1.214 . S
O274 Cd270 2.352 . S
O274 C277 1.258 . S
C275 O272 1.320 . S
C275 O273 1.214 . S
O276 Cd268 2.277 . S
O276 C271 1.209 . S
C277 O274 1.258 . S
C277 O279 1.282 . S
O278 Cd270 2.277 . S
O278 C271 1.226 . S
O279 Cd270 2.356 . S
O279 C277 1.282 . S
C280 O281 1.306 . S
C280 O283 1.160 . S
O281 C280 1.306 . S
O281 Cd282 2.228 . S
Cd282 O281 2.228 . S
Cd282 O286 2.273 . S
Cd282 O290 2.277 . S
O283 C280 1.160 . S
O283 Cd284 2.203 . S
Cd284 O283 2.203 . S
Cd284 O286 2.411 . S
Cd284 O287 2.333 . S
Cd284 O288 2.352 . S
Cd284 O292 2.277 . S
Cd284 O293 2.356 . S
C285 O290 1.209 . S
C285 O292 1.226 . S
O286 Cd282 2.273 . S
O286 Cd284 2.411 . S
O286 C289 1.320 . S
O287 Cd284 2.333 . S
O287 C289 1.214 . S
O288 Cd284 2.352 . S
O288 C291 1.258 . S
C289 O286 1.320 . S
C289 O287 1.214 . S
O290 Cd282 2.277 . S
O290 C285 1.209 . S
C291 O288 1.258 . S
C291 O293 1.282 . S
O292 Cd284 2.277 . S
O292 C285 1.226 . S
O293 Cd284 2.356 . S
O293 C291 1.282 . S
C294 O295 1.306 . S
C294 O297 1.160 . S
O295 C294 1.306 . S
O295 Cd296 2.228 . S
Cd296 O295 2.228 . S
Cd296 O300 2.273 . S
Cd296 O304 2.277 . S
O297 C294 1.160 . S
O297 Cd298 2.203 . S
Cd298 O297 2.203 . S
Cd298 O300 2.411 . S
Cd298 O301 2.333 . S
Cd298 O302 2.352 . S
Cd298 O306 2.277 . S
Cd298 O307 2.356 . S
C299 O304 1.209 . S
C299 O306 1.226 . S
O300 Cd296 2.273 . S
O300 Cd298 2.411 . S
O300 C303 1.320 . S
O301 Cd298 2.333 . S
O301 C303 1.214 . S
O302 Cd298 2.352 . S
O302 C305 1.258 . S
C303 O300 1.320 . S
C303 O301 1.214 . S
O304 Cd296 2.277 . S
O304 C299 1.209 . S
C305 O302 1.258 . S
C305 O307 1.282 . S
O306 Cd298 2.277 . S
O306 C299 1.226 . S
O307 Cd298 2.356 . S
O307 C305 1.282 . S
C308 O309 1.306 . S
C308 O311 1.160 . S
O309 C308 1.306 . S
O309 Cd310 2.228 . S
Cd310 O309 2.228 . S
Cd310 O314 2.273 . S
Cd310 O318 2.277 . S
O311 C308 1.160 . S
O311 Cd312 2.203 . S
Cd312 O311 2.203 . S
Cd312 O314 2.411 . S
Cd312 O315 2.333 . S
Cd312 O316 2.352 . S
Cd312 O320 2.277 . S
Cd312 O321 2.356 . S
C313 O318 1.209 . S
C313 O320 1.226 . S
O314 Cd310 2.273 . S
O314 Cd312 2.411 . S
O314 C317 1.320 . S
O315 Cd312 2.333 . S
O315 C317 1.214 . S
O316 Cd312 2.352 . S
O316 C319 1.258 . S
C317 O314 1.320 . S
C317 O315 1.214 . S
O318 Cd310 2.277 . S
O318 C313 1.209 . S
C319 O316 1.258 . S
C319 O321 1.282 . S
O320 Cd312 2.277 . S
O320 C313 1.226 . S
O321 Cd312 2.356 . S
O321 C319 1.282 . S
C322 O323 1.306 . S
C322 O325 1.160 . S
O323 C322 1.306 . S
O323 Cd324 2.228 . S
Cd324 O323 2.228 . S
Cd324 O328 2.273 . S
Cd324 O332 2.277 . S
O325 C322 1.160 . S
O325 Cd326 2.203 . S
Cd326 O325 2.203 . S
Cd326 O328 2.411 . S
Cd326 O329 2.333 . S
Cd326 O330 2.352 . S
Cd326 O334 2.277 . S
Cd326 O335 2.356 . S
C327 O332 1.209 . S
C327 O334 1.226 . S
O328 Cd324 2.273 . S
O328 Cd326 2.411 . S
O328 C331 1.320 . S
O329 Cd326 2.333 . S
O329 C331 1.214 . S
O330 Cd326 2.352 . S
O330 C333 1.258 . S
C331 O328 1.320 . S
C331 O329 1.214 . S
O332 Cd324 2.277 . S
O332 C327 1.209 . S
C333 O330 1.258 . S
C333 O335 1.282 . S
O334 Cd326 2.277 . S
O334 C327 1.226 . S
O335 Cd326 2.356 . S
O335 C333 1.282 . S
C336 C337 1.369 . S
C336 C338 1.419 . S
C336 H340 0.930 . S
C337 C336 1.369 . S
C337 C346 1.429 . S
C338 C336 1.419 . S
C338 C339 1.363 . S
C338 H341 0.929 . S
C339 C338 1.363 . S
C339 C345 1.428 . S
H340 C336 0.930 . S
H341 C338 0.929 . S
S342 N343 1.613 . S
S342 N344 1.610 . S
N343 S342 1.613 . S
N343 C346 1.350 . S
N344 S342 1.610 . S
N344 C345 1.351 . S
C345 C339 1.428 . S
C345 N344 1.351 . S
C345 C346 1.434 . S
C346 C337 1.429 . S
C346 N343 1.350 . S
C346 C345 1.434 . S
C347 C348 1.369 . S
C347 C349 1.419 . S
C347 H351 0.930 . S
C348 C347 1.369 . S
C348 C357 1.429 . S
C349 C347 1.419 . S
C349 C350 1.363 . S
C349 H352 0.929 . S
C350 C349 1.363 . S
C350 C356 1.428 . S
H351 C347 0.930 . S
H352 C349 0.929 . S
S353 N354 1.613 . S
S353 N355 1.610 . S
N354 S353 1.613 . S
N354 C357 1.350 . S
N355 S353 1.610 . S
N355 C356 1.351 . S
C356 C350 1.428 . S
C356 N355 1.351 . S
C356 C357 1.434 . S
C357 C348 1.429 . S
C357 N354 1.350 . S
C357 C356 1.434 . S
C358 C359 1.369 . S
C358 C360 1.419 . S
C358 H362 0.930 . S
C359 C358 1.369 . S
C359 C368 1.429 . S
C360 C358 1.419 . S
C360 C361 1.363 . S
C360 H363 0.929 . S
C361 C360 1.363 . S
C361 C367 1.428 . S
H362 C358 0.930 . S
H363 C360 0.929 . S
S364 N365 1.613 . S
S364 N366 1.610 . S
N365 S364 1.613 . S
N365 C368 1.350 . S
N366 S364 1.610 . S
N366 C367 1.351 . S
C367 C361 1.428 . S
C367 N366 1.351 . S
C367 C368 1.434 . S
C368 C359 1.429 . S
C368 N365 1.350 . S
C368 C367 1.434 . S
C369 C370 1.369 . S
C369 C371 1.419 . S
C369 H373 0.930 . S
C370 C369 1.369 . S
C370 C379 1.429 . S
C371 C369 1.419 . S
C371 C372 1.363 . S
C371 H374 0.929 . S
C372 C371 1.363 . S
C372 C378 1.428 . S
H373 C369 0.930 . S
H374 C371 0.929 . S
S375 N376 1.613 . S
S375 N377 1.610 . S
N376 S375 1.613 . S
N376 C379 1.350 . S
N377 S375 1.610 . S
N377 C378 1.351 . S
C378 C372 1.428 . S
C378 N377 1.351 . S
C378 C379 1.434 . S
C379 C370 1.429 . S
C379 N376 1.350 . S
C379 C378 1.434 . S
C380 C381 1.369 . S
C380 C382 1.419 . S
C380 H384 0.930 . S
C381 C380 1.369 . S
C381 C390 1.429 . S
C382 C380 1.419 . S
C382 C383 1.363 . S
C382 H385 0.929 . S
C383 C382 1.363 . S
C383 C389 1.428 . S
H384 C380 0.930 . S
H385 C382 0.929 . S
S386 N387 1.613 . S
S386 N388 1.610 . S
N387 S386 1.613 . S
N387 C390 1.350 . S
N388 S386 1.610 . S
N388 C389 1.351 . S
C389 C383 1.428 . S
C389 N388 1.351 . S
C389 C390 1.434 . S
C390 C381 1.429 . S
C390 N387 1.350 . S
C390 C389 1.434 . S
C391 C392 1.369 . S
C391 C393 1.419 . S
C391 H395 0.930 . S
C392 C391 1.369 . S
C392 C401 1.429 . S
C393 C391 1.419 . S
C393 C394 1.363 . S
C393 H396 0.929 . S
C394 C393 1.363 . S
C394 C400 1.428 . S
H395 C391 0.930 . S
H396 C393 0.929 . S
S397 N398 1.613 . S
S397 N399 1.610 . S
N398 S397 1.613 . S
N398 C401 1.350 . S
N399 S397 1.610 . S
N399 C400 1.351 . S
C400 C394 1.428 . S
C400 N399 1.351 . S
C400 C401 1.434 . S
C401 C392 1.429 . S
C401 N398 1.350 . S
C401 C400 1.434 . S
C402 C403 1.369 . S
C402 C404 1.419 . S
C402 H406 0.930 . S
C403 C402 1.369 . S
C403 C412 1.429 . S
C404 C402 1.419 . S
C404 C405 1.363 . S
C404 H407 0.929 . S
C405 C404 1.363 . S
C405 C411 1.428 . S
H406 C402 0.930 . S
H407 C404 0.929 . S
S408 N409 1.613 . S
S408 N410 1.610 . S
N409 S408 1.613 . S
N409 C412 1.350 . S
N410 S408 1.610 . S
N410 C411 1.351 . S
C411 C405 1.428 . S
C411 N410 1.351 . S
C411 C412 1.434 . S
C412 C403 1.429 . S
C412 N409 1.350 . S
C412 C411 1.434 . S
C413 C414 1.369 . S
C413 C415 1.419 . S
C413 H417 0.930 . S
C414 C413 1.369 . S
C414 C423 1.429 . S
C415 C413 1.419 . S
C415 C416 1.363 . S
C415 H418 0.929 . S
C416 C415 1.363 . S
C416 C422 1.428 . S
H417 C413 0.930 . S
H418 C415 0.929 . S
S419 N420 1.613 . S
S419 N421 1.610 . S
N420 S419 1.613 . S
N420 C423 1.350 . S
N421 S419 1.610 . S
N421 C422 1.351 . S
C422 C416 1.428 . S
C422 N421 1.351 . S
C422 C423 1.434 . S
C423 C414 1.429 . S
C423 N420 1.350 . S
C423 C422 1.434 . S
C424 C425 1.369 . S
C424 C426 1.419 . S
C424 H428 0.930 . S
C425 C424 1.369 . S
C425 C434 1.429 . S
C426 C424 1.419 . S
C426 C427 1.363 . S
C426 H429 0.929 . S
C427 C426 1.363 . S
C427 C433 1.428 . S
H428 C424 0.930 . S
H429 C426 0.929 . S
S430 N431 1.613 . S
S430 N432 1.610 . S
N431 S430 1.613 . S
N431 C434 1.350 . S
N432 S430 1.610 . S
N432 C433 1.351 . S
C433 C427 1.428 . S
C433 N432 1.351 . S
C433 C434 1.434 . S
C434 C425 1.429 . S
C434 N431 1.350 . S
C434 C433 1.434 . S
C435 C436 1.369 . S
C435 C437 1.419 . S
C435 H439 0.930 . S
C436 C435 1.369 . S
C436 C445 1.429 . S
C437 C435 1.419 . S
C437 C438 1.363 . S
C437 H440 0.929 . S
C438 C437 1.363 . S
C438 C444 1.428 . S
H439 C435 0.930 . S
H440 C437 0.929 . S
S441 N442 1.613 . S
S441 N443 1.610 . S
N442 S441 1.613 . S
N442 C445 1.350 . S
N443 S441 1.610 . S
N443 C444 1.351 . S
C444 C438 1.428 . S
C444 N443 1.351 . S
C444 C445 1.434 . S
C445 C436 1.429 . S
C445 N442 1.350 . S
C445 C444 1.434 . S
C446 C447 1.369 . S
C446 C448 1.419 . S
C446 H450 0.930 . S
C447 C446 1.369 . S
C447 C456 1.429 . S
C448 C446 1.419 . S
C448 C449 1.363 . S
C448 H451 0.929 . S
C449 C448 1.363 . S
C449 C455 1.428 . S
H450 C446 0.930 . S
H451 C448 0.929 . S
S452 N453 1.613 . S
S452 N454 1.610 . S
N453 S452 1.613 . S
N453 C456 1.350 . S
N454 S452 1.610 . S
N454 C455 1.351 . S
C455 C449 1.428 . S
C455 N454 1.351 . S
C455 C456 1.434 . S
C456 C447 1.429 . S
C456 N453 1.350 . S
C456 C455 1.434 . S
C457 C458 1.369 . S
C457 C459 1.419 . S
C457 H461 0.930 . S
C458 C457 1.369 . S
C458 C467 1.429 . S
C459 C457 1.419 . S
C459 C460 1.363 . S
C459 H462 0.929 . S
C460 C459 1.363 . S
C460 C466 1.428 . S
H461 C457 0.930 . S
H462 C459 0.929 . S
S463 N464 1.613 . S
S463 N465 1.610 . S
N464 S463 1.613 . S
N464 C467 1.350 . S
N465 S463 1.610 . S
N465 C466 1.351 . S
C466 C460 1.428 . S
C466 N465 1.351 . S
C466 C467 1.434 . S
C467 C458 1.429 . S
C467 N464 1.350 . S
C467 C466 1.434 . S
C468 C469 1.369 . S
C468 C470 1.419 . S
C468 H472 0.930 . S
C469 C468 1.369 . S
C469 C478 1.429 1_556 S
C470 C468 1.419 . S
C470 C471 1.363 1_556 S
C470 H473 0.929 . S
C471 C470 1.363 1_554 S
C471 C477 1.428 . S
H472 C468 0.930 . S
H473 C470 0.929 . S
S474 N475 1.613 . S
S474 N476 1.610 . S
N475 S474 1.613 . S
N475 C478 1.350 . S
N476 S474 1.610 . S
N476 C477 1.351 . S
C477 C471 1.428 . S
C477 N476 1.351 . S
C477 C478 1.434 . S
C478 C469 1.429 1_554 S
C478 N475 1.350 . S
C478 C477 1.434 . S
C479 C480 1.369 . S
C479 C481 1.419 . S
C479 H483 0.930 . S
C480 C479 1.369 . S
C480 C489 1.429 . S
C481 C479 1.419 . S
C481 C482 1.363 . S
C481 H484 0.929 . S
C482 C481 1.363 . S
C482 C488 1.428 . S
H483 C479 0.930 . S
H484 C481 0.929 . S
S485 N486 1.613 . S
S485 N487 1.610 . S
N486 S485 1.613 . S
N486 C489 1.350 . S
N487 S485 1.610 . S
N487 C488 1.351 . S
C488 C482 1.428 . S
C488 N487 1.351 . S
C488 C489 1.434 . S
C489 C480 1.429 . S
C489 N486 1.350 . S
C489 C488 1.434 . S
C490 C491 1.369 1_556 S
C490 C492 1.419 . S
C490 H494 0.930 . S
C491 C490 1.369 1_554 S
C491 C500 1.429 . S
C492 C490 1.419 . S
C492 C493 1.363 . S
C492 H495 0.929 . S
C493 C492 1.363 . S
C493 C499 1.428 1_556 S
H494 C490 0.930 . S
H495 C492 0.929 . S
S496 N497 1.613 . S
S496 N498 1.610 . S
N497 S496 1.613 . S
N497 C500 1.350 . S
N498 S496 1.610 . S
N498 C499 1.351 . S
C499 C493 1.428 1_554 S
C499 N498 1.351 . S
C499 C500 1.434 . S
C500 C491 1.429 . S
C500 N497 1.350 . S
C500 C499 1.434 . S
C501 C502 1.369 . S
C501 C503 1.419 . S
C501 H505 0.930 . S
C502 C501 1.369 . S
C502 C511 1.429 . S
C503 C501 1.419 . S
C503 C504 1.363 . S
C503 H506 0.929 . S
C504 C503 1.363 . S
C504 C510 1.428 . S
H505 C501 0.930 . S
H506 C503 0.929 . S
S507 N508 1.613 . S
S507 N509 1.610 . S
N508 S507 1.613 . S
N508 C511 1.350 . S
N509 S507 1.610 . S
N509 C510 1.351 . S
C510 C504 1.428 . S
C510 N509 1.351 . S
C510 C511 1.434 . S
C511 C502 1.429 . S
C511 N508 1.350 . S
C511 C510 1.434 . S
C512 C513 1.369 . S
C512 C514 1.419 . S
C512 H516 0.930 . S
C513 C512 1.369 . S
C513 C522 1.429 1_556 S
C514 C512 1.419 . S
C514 C515 1.363 1_556 S
C514 H517 0.929 . S
C515 C514 1.363 1_554 S
C515 C521 1.428 . S
H516 C512 0.930 . S
H517 C514 0.929 . S
S518 N519 1.613 . S
S518 N520 1.610 . S
N519 S518 1.613 . S
N519 C522 1.350 . S
N520 S518 1.610 . S
N520 C521 1.351 . S
C521 C515 1.428 . S
C521 N520 1.351 . S
C521 C522 1.434 . S
C522 C513 1.429 1_554 S
C522 N519 1.350 . S
C522 C521 1.434 . S
C523 C524 1.369 . S
C523 C525 1.419 . S
C523 H527 0.930 . S
C524 C523 1.369 . S
C524 C533 1.429 . S
C525 C523 1.419 . S
C525 C526 1.363 . S
C525 H528 0.929 . S
C526 C525 1.363 . S
C526 C532 1.428 . S
H527 C523 0.930 . S
H528 C525 0.929 . S
S529 N530 1.613 . S
S529 N531 1.610 . S
N530 S529 1.613 . S
N530 C533 1.350 . S
N531 S529 1.610 . S
N531 C532 1.351 . S
C532 C526 1.428 . S
C532 N531 1.351 . S
C532 C533 1.434 . S
C533 C524 1.429 . S
C533 N530 1.350 . S
C533 C532 1.434 . S
C534 C535 1.369 . S
C534 C536 1.419 1_554 S
C534 H538 0.930 . S
C535 C534 1.369 . S
C535 C544 1.429 . S
C536 C534 1.419 1_556 S
C536 C537 1.363 . S
C536 H539 0.929 . S
C537 C536 1.363 . S
C537 C543 1.428 . S
H538 C534 0.930 . S
H539 C536 0.929 . S
S540 N541 1.613 1_556 S
S540 N542 1.610 . S
N541 S540 1.613 1_554 S
N541 C544 1.350 . S
N542 S540 1.610 . S
N542 C543 1.351 . S
C543 C537 1.428 . S
C543 N542 1.351 . S
C543 C544 1.434 1_556 S
C544 C535 1.429 . S
C544 N541 1.350 . S
C544 C543 1.434 1_554 S
C545 C546 1.369 . S
C545 C547 1.419 . S
C545 H549 0.930 . S
C546 C545 1.369 . S
C546 C555 1.429 . S
C547 C545 1.419 . S
C547 C548 1.363 . S
C547 H550 0.929 . S
C548 C547 1.363 . S
C548 C554 1.428 . S
H549 C545 0.930 . S
H550 C547 0.929 . S
S551 N552 1.613 . S
S551 N553 1.610 . S
N552 S551 1.613 . S
N552 C555 1.350 . S
N553 S551 1.610 . S
N553 C554 1.351 . S
C554 C548 1.428 . S
C554 N553 1.351 . S
C554 C555 1.434 . S
C555 C546 1.429 . S
C555 N552 1.350 . S
C555 C554 1.434 . S
C556 C557 1.369 . S
C556 C558 1.419 . S
C556 H560 0.930 . S
C557 C556 1.369 . S
C557 C566 1.429 1_556 S
C558 C556 1.419 . S
C558 C559 1.363 1_556 S
C558 H561 0.929 . S
C559 C558 1.363 1_554 S
C559 C565 1.428 . S
H560 C556 0.930 . S
H561 C558 0.929 . S
S562 N563 1.613 . S
S562 N564 1.610 . S
N563 S562 1.613 . S
N563 C566 1.350 . S
N564 S562 1.610 . S
N564 C565 1.351 . S
C565 C559 1.428 . S
C565 N564 1.351 . S
C565 C566 1.434 . S
C566 C557 1.429 1_554 S
C566 N563 1.350 . S
C566 C565 1.434 . S
C567 C568 1.369 . S
C567 C569 1.419 . S
C567 H571 0.930 . S
C568 C567 1.369 . S
C568 C577 1.429 . S
C569 C567 1.419 . S
C569 C570 1.363 . S
C569 H572 0.929 . S
C570 C569 1.363 . S
C570 C576 1.428 . S
H571 C567 0.930 . S
H572 C569 0.929 . S
S573 N574 1.613 . S
S573 N575 1.610 . S
N574 S573 1.613 . S
N574 C577 1.350 . S
N575 S573 1.610 . S
N575 C576 1.351 . S
C576 C570 1.428 . S
C576 N575 1.351 . S
C576 C577 1.434 . S
C577 C568 1.429 . S
C577 N574 1.350 . S
C577 C576 1.434 . S
C578 C579 1.369 1_554 S
C578 C580 1.419 . S
C578 H582 0.930 . S
C579 C578 1.369 1_556 S
C579 C588 1.429 . S
C580 C578 1.419 . S
C580 C581 1.363 . S
C580 H583 0.929 . S
C581 C580 1.363 . S
C581 C587 1.428 1_554 S
H582 C578 0.930 . S
H583 C580 0.929 . S
S584 N585 1.613 . S
S584 N586 1.610 . S
N585 S584 1.613 . S
N585 C588 1.350 . S
N586 S584 1.610 . S
N586 C587 1.351 . S
C587 C581 1.428 1_556 S
C587 N586 1.351 . S
C587 C588 1.434 . S
C588 C579 1.429 . S
C588 N585 1.350 . S
C588 C587 1.434 . S
C589 C590 1.369 . S
C589 C591 1.419 . S
C589 H593 0.930 . S
C590 C589 1.369 . S
C590 C599 1.429 . S
C591 C589 1.419 . S
C591 C592 1.363 . S
C591 H594 0.929 . S
C592 C591 1.363 . S
C592 C598 1.428 . S
H593 C589 0.930 . S
H594 C591 0.929 . S
S595 N596 1.613 . S
S595 N597 1.610 . S
N596 S595 1.613 . S
N596 C599 1.350 . S
N597 S595 1.610 . S
N597 C598 1.351 . S
C598 C592 1.428 . S
C598 N597 1.351 . S
C598 C599 1.434 . S
C599 C590 1.429 . S
C599 N596 1.350 . S
C599 C598 1.434 . S
C600 C601 1.369 . S
C600 C602 1.419 . S
C600 H604 0.930 . S
C601 C600 1.369 . S
C601 C610 1.429 . S
C602 C600 1.419 . S
C602 C603 1.363 . S
C602 H605 0.929 . S
C603 C602 1.363 . S
C603 C609 1.428 . S
H604 C600 0.930 . S
H605 C602 0.929 . S
S606 N607 1.613 1_556 S
S606 N608 1.610 1_556 S
N607 S606 1.613 1_554 S
N607 C610 1.350 . S
N608 S606 1.610 1_554 S
N608 C609 1.351 . S
C609 C603 1.428 . S
C609 N608 1.351 . S
C609 C610 1.434 . S
C610 C601 1.429 . S
C610 N607 1.350 . S
C610 C609 1.434 . S
C611 C612 1.369 . S
C611 C613 1.419 1_455 S
C611 H615 0.930 . S
C612 C611 1.369 . S
C612 C621 1.429 . S
C613 C611 1.419 1_655 S
C613 C614 1.363 . S
C613 H616 0.929 . S
C614 C613 1.363 . S
C614 C620 1.428 . S
H615 C611 0.930 . S
H616 C613 0.929 . S
S617 N618 1.615 1_655 S
S617 N619 1.607 . S
N618 S617 1.615 1_455 S
N618 C621 1.350 . S
N619 S617 1.607 . S
N619 C620 1.351 . S
C620 C614 1.428 . S
C620 N619 1.351 . S
C620 C621 1.434 1_655 S
C621 C612 1.429 . S
C621 N618 1.350 . S
C621 C620 1.434 1_455 S
C622 C623 1.369 . S
C622 C624 1.419 1_565 S
C622 H626 0.930 . S
C623 C622 1.369 . S
C623 C632 1.429 . S
C624 C622 1.419 1_545 S
C624 C625 1.363 . S
C624 H627 0.929 . S
C625 C624 1.363 . S
C625 C631 1.428 . S
H626 C622 0.930 . S
H627 C624 0.929 . S
S628 N629 1.615 1_546 S
S628 N630 1.607 1_556 S
N629 S628 1.615 1_564 S
N629 C632 1.350 . S
N630 S628 1.607 1_554 S
N630 C631 1.351 . S
C631 C625 1.428 . S
C631 N630 1.351 . S
C631 C632 1.434 1_545 S
C632 C623 1.429 . S
C632 N629 1.350 . S
C632 C631 1.434 1_565 S
C633 C634 1.369 . S
C633 C635 1.419 . S
C633 H637 0.930 . S
C634 C633 1.369 . S
C634 C643 1.429 . S
C635 C633 1.419 . S
C635 C636 1.363 . S
C635 H638 0.929 . S
C636 C635 1.363 . S
C636 C642 1.428 . S
H637 C633 0.930 . S
H638 C635 0.929 . S
S639 N640 1.613 . S
S639 N641 1.610 . S
N640 S639 1.613 . S
N640 C643 1.350 . S
N641 S639 1.610 . S
N641 C642 1.351 . S
C642 C636 1.428 . S
C642 N641 1.351 . S
C642 C643 1.434 . S
C643 C634 1.429 . S
C643 N640 1.350 . S
C643 C642 1.434 . S
C644 C645 1.369 . S
C644 C646 1.419 1_655 S
C644 H648 0.930 . S
C645 C644 1.369 . S
C645 C654 1.429 . S
C646 C644 1.419 1_455 S
C646 C647 1.363 . S
C646 H649 0.929 . S
C647 C646 1.363 . S
C647 C653 1.428 . S
H648 C644 0.930 . S
H649 C646 0.929 . S
S650 N651 1.615 1_455 S
S650 N652 1.607 . S
N651 S650 1.615 1_655 S
N651 C654 1.350 . S
N652 S650 1.607 . S
N652 C653 1.351 . S
C653 C647 1.428 . S
C653 N652 1.351 . S
C653 C654 1.434 1_455 S
C654 C645 1.429 . S
C654 N651 1.350 . S
C654 C653 1.434 1_655 S
C655 C656 1.369 . S
C655 C657 1.419 1_545 S
C655 H659 0.930 . S
C656 C655 1.369 . S
C656 C665 1.429 . S
C657 C655 1.419 1_565 S
C657 C658 1.363 . S
C657 H660 0.929 . S
C658 C657 1.363 . S
C658 C664 1.428 . S
H659 C655 0.930 . S
H660 C657 0.929 . S
S661 N662 1.615 1_565 S
S661 N663 1.607 . S
N662 S661 1.615 1_545 S
N662 C665 1.350 . S
N663 S661 1.607 . S
N663 C664 1.351 . S
C664 C658 1.428 . S
C664 N663 1.351 . S
C664 C665 1.434 1_565 S
C665 C656 1.429 . S
C665 N662 1.350 . S
C665 C664 1.434 1_545 S
C666 C667 1.369 . S
C666 C668 1.419 . S
C666 H670 0.930 . S
C667 C666 1.369 . S
C667 C676 1.429 . S
C668 C666 1.419 . S
C668 C669 1.363 . S
C668 H671 0.929 . S
C669 C668 1.363 . S
C669 C675 1.428 . S
H670 C666 0.930 . S
H671 C668 0.929 . S
S672 N673 1.613 . S
S672 N674 1.610 . S
N673 S672 1.613 . S
N673 C676 1.350 . S
N674 S672 1.610 . S
N674 C675 1.351 . S
C675 C669 1.428 . S
C675 N674 1.351 . S
C675 C676 1.434 . S
C676 C667 1.429 . S
C676 N673 1.350 . S
C676 C675 1.434 . S
C677 C678 1.369 . S
C677 C679 1.419 1_655 S
C677 H681 0.930 . S
C678 C677 1.369 . S
C678 C687 1.429 . S
C679 C677 1.419 1_455 S
C679 C680 1.363 . S
C679 H682 0.929 . S
C680 C679 1.363 . S
C680 C686 1.428 . S
H681 C677 0.930 . S
H682 C679 0.929 . S
S683 N684 1.617 1_455 S
S683 N685 1.609 . S
N684 S683 1.617 1_655 S
N684 C687 1.350 . S
N685 S683 1.609 . S
N685 C686 1.351 . S
C686 C680 1.428 . S
C686 N685 1.351 . S
C686 C687 1.434 1_455 S
C687 C678 1.429 . S
C687 N684 1.350 . S
C687 C686 1.434 1_655 S
C688 C689 1.369 . S
C688 C690 1.419 1_545 S
C688 H692 0.930 . S
C689 C688 1.369 . S
C689 C698 1.429 . S
C690 C688 1.419 1_565 S
C690 C691 1.363 . S
C690 H693 0.929 . S
C691 C690 1.363 . S
C691 C697 1.428 . S
H692 C688 0.930 . S
H693 C690 0.929 . S
S694 N695 1.616 1_565 S
S694 N696 1.608 . S
N695 S694 1.616 1_545 S
N695 C698 1.350 . S
N696 S694 1.608 . S
N696 C697 1.351 . S
C697 C691 1.428 . S
C697 N696 1.351 . S
C697 C698 1.434 1_565 S
C698 C689 1.429 . S
C698 N695 1.350 . S
C698 C697 1.434 1_545 S
C699 C700 1.369 . S
C699 C701 1.419 . S
C699 H703 0.930 . S
C700 C699 1.369 . S
C700 C709 1.429 . S
C701 C699 1.419 . S
C701 C702 1.363 . S
C701 H704 0.929 . S
C702 C701 1.363 . S
C702 C708 1.428 . S
H703 C699 0.930 . S
H704 C701 0.929 . S
S705 N706 1.613 . S
S705 N707 1.610 . S
N706 S705 1.613 . S
N706 C709 1.350 . S
N707 S705 1.610 . S
N707 C708 1.351 . S
C708 C702 1.428 . S
C708 N707 1.351 . S
C708 C709 1.434 . S
C709 C700 1.429 . S
C709 N706 1.350 . S
C709 C708 1.434 . S
C710 C711 1.369 . S
C710 C712 1.419 1_455 S
C710 H714 0.930 . S
C711 C710 1.369 . S
C711 C720 1.429 . S
C712 C710 1.419 1_655 S
C712 C713 1.363 . S
C712 H715 0.929 . S
C713 C712 1.363 . S
C713 C719 1.428 . S
H714 C710 0.930 . S
H715 C712 0.929 . S
S716 N717 1.616 1_655 S
S716 N718 1.608 . S
N717 S716 1.616 1_455 S
N717 C720 1.350 . S
N718 S716 1.608 . S
N718 C719 1.351 . S
C719 C713 1.428 . S
C719 N718 1.351 . S
C719 C720 1.434 1_655 S
C720 C711 1.429 . S
C720 N717 1.350 . S
C720 C719 1.434 1_455 S
C721 C722 1.369 . S
C721 C723 1.419 1_565 S
C721 H725 0.930 . S
C722 C721 1.369 . S
C722 C731 1.429 . S
C723 C721 1.419 1_545 S
C723 C724 1.363 . S
C723 H726 0.929 . S
C724 C723 1.363 . S
C724 C730 1.428 . S
H725 C721 0.930 . S
H726 C723 0.929 . S
S727 N728 1.617 1_545 S
S727 N729 1.609 . S
N728 S727 1.617 1_565 S
N728 C731 1.350 . S
N729 S727 1.609 . S
N729 C730 1.351 . S
C730 C724 1.428 . S
C730 N729 1.351 . S
C730 C731 1.434 1_545 S
C731 C722 1.429 . S
C731 N728 1.350 . S
C731 C730 1.434 1_565 S
C732 C733 1.369 1_554 S
C732 C734 1.419 . S
C732 H736 0.930 . S
C733 C732 1.369 1_556 S
C733 C742 1.429 . S
C734 C732 1.419 . S
C734 C735 1.363 . S
C734 H737 0.929 . S
C735 C734 1.363 . S
C735 C741 1.428 1_554 S
H736 C732 0.930 . S
H737 C734 0.929 . S
S738 N739 1.613 . S
S738 N740 1.610 . S
N739 S738 1.613 . S
N739 C742 1.350 . S
N740 S738 1.610 . S
N740 C741 1.351 . S
C741 C735 1.428 1_556 S
C741 N740 1.351 . S
C741 C742 1.434 . S
C742 C733 1.429 . S
C742 N739 1.350 . S
C742 C741 1.434 . S
C743 C744 1.369 . S
C743 C745 1.419 . S
C743 H747 0.930 . S
C744 C743 1.369 . S
C744 C753 1.429 . S
C745 C743 1.419 . S
C745 C746 1.363 . S
C745 H748 0.929 . S
C746 C745 1.363 . S
C746 C752 1.428 . S
H747 C743 0.930 . S
H748 C745 0.929 . S
S749 N750 1.613 . S
S749 N751 1.610 . S
N750 S749 1.613 . S
N750 C753 1.350 . S
N751 S749 1.610 . S
N751 C752 1.351 . S
C752 C746 1.428 . S
C752 N751 1.351 . S
C752 C753 1.434 . S
C753 C744 1.429 . S
C753 N750 1.350 . S
C753 C752 1.434 . S
C754 C755 1.369 1_554 S
C754 C756 1.419 . S
C754 H758 0.930 . S
C755 C754 1.369 1_556 S
C755 C764 1.429 . S
C756 C754 1.419 . S
C756 C757 1.363 . S
C756 H759 0.929 . S
C757 C756 1.363 . S
C757 C763 1.428 1_554 S
H758 C754 0.930 . S
H759 C756 0.929 . S
S760 N761 1.613 . S
S760 N762 1.610 . S
N761 S760 1.613 . S
N761 C764 1.350 . S
N762 S760 1.610 . S
N762 C763 1.351 . S
C763 C757 1.428 1_556 S
C763 N762 1.351 . S
C763 C764 1.434 . S
C764 C755 1.429 . S
C764 N761 1.350 . S
C764 C763 1.434 . S
C765 C766 1.369 . S
C765 C767 1.419 . S
C765 H769 0.930 . S
C766 C765 1.369 . S
C766 C775 1.429 . S
C767 C765 1.419 . S
C767 C768 1.363 . S
C767 H770 0.929 . S
C768 C767 1.363 . S
C768 C774 1.428 . S
H769 C765 0.930 . S
H770 C767 0.929 . S
S771 N772 1.613 . S
S771 N773 1.610 . S
N772 S771 1.613 . S
N772 C775 1.350 . S
N773 S771 1.610 . S
N773 C774 1.351 . S
C774 C768 1.428 . S
C774 N773 1.351 . S
C774 C775 1.434 . S
C775 C766 1.429 . S
C775 N772 1.350 . S
C775 C774 1.434 . S
C776 C777 1.369 . S
C776 C778 1.419 . S
C776 H780 0.930 . S
C777 C776 1.369 . S
C777 C786 1.421 1_556 S
C778 C776 1.419 . S
C778 C779 1.363 1_556 S
C778 H781 0.929 . S
C779 C778 1.363 1_554 S
C779 C785 1.428 . S
H780 C776 0.930 . S
H781 C778 0.929 . S
S782 N783 1.613 . S
S782 N784 1.610 . S
N783 S782 1.613 . S
N783 C786 1.351 . S
N784 S782 1.610 . S
N784 C785 1.351 . S
C785 C779 1.428 . S
C785 N784 1.351 . S
C785 C786 1.441 . S
C786 C777 1.421 1_554 S
C786 N783 1.351 . S
C786 C785 1.441 . S
C787 C788 1.369 . S
C787 C789 1.419 . S
C787 H791 0.930 . S
C788 C787 1.369 . S
C788 C797 1.429 . S
C789 C787 1.419 . S
C789 C790 1.363 . S
C789 H792 0.929 . S
C790 C789 1.363 . S
C790 C796 1.428 . S
H791 C787 0.930 . S
H792 C789 0.929 . S
S793 N794 1.613 . S
S793 N795 1.610 . S
N794 S793 1.613 . S
N794 C797 1.350 . S
N795 S793 1.610 . S
N795 C796 1.351 . S
C796 C790 1.428 . S
C796 N795 1.351 . S
C796 C797 1.434 . S
C797 C788 1.429 . S
C797 N794 1.350 . S
C797 C796 1.434 . S
C798 C799 1.369 1_556 S
C798 C800 1.419 . S
C798 H802 0.930 . S
C799 C798 1.369 1_554 S
C799 C808 1.429 . S
C800 C798 1.419 . S
C800 C801 1.363 . S
C800 H803 0.929 . S
C801 C800 1.363 . S
C801 C807 1.428 1_556 S
H802 C798 0.930 . S
H803 C800 0.929 . S
S804 N805 1.613 . S
S804 N806 1.610 . S
N805 S804 1.613 . S
N805 C808 1.350 . S
N806 S804 1.610 . S
N806 C807 1.351 . S
C807 C801 1.428 1_554 S
C807 N806 1.351 . S
C807 C808 1.434 . S
C808 C799 1.429 . S
C808 N805 1.350 . S
C808 C807 1.434 . S
C809 C810 1.369 . S
C809 C811 1.419 . S
C809 H813 0.930 . S
C810 C809 1.369 . S
C810 C819 1.429 . S
C811 C809 1.419 . S
C811 C812 1.363 . S
C811 H814 0.929 . S
C812 C811 1.363 . S
C812 C818 1.428 . S
H813 C809 0.930 . S
H814 C811 0.929 . S
S815 N816 1.613 . S
S815 N817 1.610 . S
N816 S815 1.613 . S
N816 C819 1.350 . S
N817 S815 1.610 . S
N817 C818 1.351 . S
C818 C812 1.428 . S
C818 N817 1.351 . S
C818 C819 1.434 . S
C819 C810 1.429 . S
C819 N816 1.350 . S
C819 C818 1.434 . S
C820 C821 1.369 . S
C820 C822 1.419 . S
C820 H824 0.930 . S
C821 C820 1.369 . S
C821 C830 1.429 1_554 S
C822 C820 1.419 . S
C822 C823 1.363 1_554 S
C822 H825 0.929 . S
C823 C822 1.363 1_556 S
C823 C829 1.428 . S
H824 C820 0.930 . S
H825 C822 0.929 . S
S826 N827 1.613 . S
S826 N828 1.610 . S
N827 S826 1.613 . S
N827 C830 1.350 . S
N828 S826 1.610 . S
N828 C829 1.351 . S
C829 C823 1.428 . S
C829 N828 1.351 . S
C829 C830 1.434 . S
C830 C821 1.429 1_556 S
C830 N827 1.350 . S
C830 C829 1.434 . S
C831 C832 1.369 . S
C831 C833 1.419 . S
C831 H835 0.930 . S
C832 C831 1.369 . S
C832 C841 1.429 . S
C833 C831 1.419 . S
C833 C834 1.363 . S
C833 H836 0.929 . S
C834 C833 1.363 . S
C834 C840 1.428 . S
H835 C831 0.930 . S
H836 C833 0.929 . S
S837 N838 1.613 . S
S837 N839 1.610 . S
N838 S837 1.613 . S
N838 C841 1.350 . S
N839 S837 1.610 . S
N839 C840 1.351 . S
C840 C834 1.428 . S
C840 N839 1.351 . S
C840 C841 1.434 . S
C841 C832 1.429 . S
C841 N838 1.350 . S
C841 C840 1.434 . S
C842 C843 1.369 1_554 S
C842 C844 1.419 . S
C842 H846 0.930 . S
C843 C842 1.369 1_556 S
C843 C852 1.429 . S
C844 C842 1.419 . S
C844 C845 1.363 . S
C844 H847 0.929 . S
C845 C844 1.363 . S
C845 C851 1.428 1_554 S
H846 C842 0.930 . S
H847 C844 0.929 . S
S848 N849 1.613 . S
S848 N850 1.610 . S
N849 S848 1.613 . S
N849 C852 1.350 . S
N850 S848 1.610 . S
N850 C851 1.351 . S
C851 C845 1.428 1_556 S
C851 N850 1.351 . S
C851 C852 1.434 . S
C852 C843 1.429 . S
C852 N849 1.350 . S
C852 C851 1.434 . S
C853 C854 1.369 . S
C853 C855 1.419 . S
C853 H857 0.930 . S
C854 C853 1.369 . S
C854 C863 1.429 . S
C855 C853 1.419 . S
C855 C856 1.363 . S
C855 H858 0.929 . S
C856 C855 1.363 . S
C856 C862 1.428 . S
H857 C853 0.930 . S
H858 C855 0.929 . S
S859 N860 1.613 . S
S859 N861 1.610 . S
N860 S859 1.613 . S
N860 C863 1.350 . S
N861 S859 1.610 . S
N861 C862 1.351 . S
C862 C856 1.428 . S
C862 N861 1.351 . S
C862 C863 1.434 . S
C863 C854 1.429 . S
C863 N860 1.350 . S
C863 C862 1.434 . S
C337 C0 1.493 . S
C339 C210 1.493 . S
C348 C14 1.491 . S
C350 C224 1.492 . S
C359 C238 1.492 . S
C361 C28 1.492 . S
C370 C168 1.492 . S
C372 C42 1.492 . S
C381 C182 1.491 . S
C383 C56 1.491 . S
C392 C196 1.496 . S
C394 C70 1.495 . S
C403 C294 1.493 . S
C405 C84 1.493 . S
C414 C98 1.491 . S
C416 C308 1.492 . S
C425 C322 1.496 . S
C427 C112 1.495 . S
C436 C126 1.496 . S
C438 C252 1.495 . S
C447 C266 1.497 . S
C449 C140 1.496 . S
C458 C154 1.494 . S
C460 C280 1.494 . S
C469 C151 1.401 . S
C471 C11 1.402 . S
C480 C165 1.400 . S
C482 C25 1.403 . S
C491 C39 1.403 . S
C493 C95 1.400 . S
C502 C53 1.403 . S
C504 C109 1.400 . S
C513 C123 1.400 . S
C515 C67 1.403 . S
C524 C81 1.399 . S
C526 C137 1.403 . S
C535 C319 1.400 . S
C537 C179 1.402 . S
C546 C193 1.404 . S
C548 C333 1.400 . S
C557 C207 1.399 . S
C559 C263 1.403 . S
C568 C277 1.402 . S
C570 C221 1.401 . S
C579 C235 1.403 . S
C581 C291 1.400 . S
C590 C249 1.399 . S
C592 C305 1.403 . S
C601 C5 1.429 . S
C603 C257 1.429 . S
C612 C271 1.430 . S
C614 C19 1.430 . S
C623 C33 1.430 . S
C625 C285 1.430 . S
C634 C47 1.429 . S
C636 C299 1.429 . S
C645 C313 1.430 . S
C647 C61 1.430 . S
C656 C75 1.429 . S
C658 C327 1.429 . S
C667 C89 1.428 . S
C669 C173 1.428 . S
C678 C103 1.428 . S
C680 C187 1.428 . S
C689 C201 1.429 . S
C691 C117 1.428 . S
C700 C215 1.427 . S
C702 C131 1.427 . S
C711 C145 1.428 . S
C713 C229 1.428 . S
C722 C243 1.427 . S
C724 C159 1.427 . S
C733 C93 1.524 . S
C735 C9 1.525 . S
C744 C23 1.525 . S
C746 C107 1.524 . S
C755 C121 1.524 . S
C757 C37 1.525 . S
C766 C135 1.524 . S
C768 C51 1.525 . S
C777 C149 1.524 . S
C779 C65 1.524 . S
C788 C79 1.525 . S
C790 C163 1.525 . S
C799 C261 1.524 . S
C801 C177 1.525 . S
C810 C191 1.525 . S
C812 C275 1.524 . S
C821 C289 1.525 . S
C823 C205 1.524 . S
C832 C303 1.525 . S
C834 C219 1.524 . S
C843 C233 1.524 . S
C845 C317 1.525 . S
C854 C247 1.524 . S
C856 C331 1.525 . S
