# Generated by pormake.
# Topology soe, (5)-cn, num edge types: 1
# Building blocks:
#     Node 0, Type 0, BuildingBlock: XOMCOT_clean_sbu_0, # of connection points: 5
#     Node 1, Type 0, BuildingBlock: XOMCOT_clean_sbu_0, # of connection points: 5
#     Node 2, Type 0, BuildingBlock: XOMCOT_clean_sbu_0, # of connection points: 5
#     Node 3, Type 0, BuildingBlock: XOMCOT_clean_sbu_0, # of connection points: 5
#     Node 4, Type 0, BuildingBlock: XOMCOT_clean_sbu_0, # of connection points: 5
#     Node 5, Type 0, BuildingBlock: XOMCOT_clean_sbu_0, # of connection points: 5
#     Node 6, Type 0, BuildingBlock: XOMCOT_clean_sbu_0, # of connection points: 5
#     Node 7, Type 0, BuildingBlock: XOMCOT_clean_sbu_0, # of connection points: 5
#     Edge 8, Type (0, 0), BuildingBlock: UVAHIK_clean_linker_0, # of connection points: 2
#     Edge 9, Type (0, 0), BuildingBlock: UVAHIK_clean_linker_0, # of connection points: 2
#     Edge 10, Type (0, 0), BuildingBlock: UVAHIK_clean_linker_0, # of connection points: 2
#     Edge 11, Type (0, 0), BuildingBlock: UVAHIK_clean_linker_0, # of connection points: 2
#     Edge 12, Type (0, 0), BuildingBlock: UVAHIK_clean_linker_0, # of connection points: 2
#     Edge 13, Type (0, 0), BuildingBlock: UVAHIK_clean_linker_0, # of connection points: 2
#     Edge 14, Type (0, 0), BuildingBlock: UVAHIK_clean_linker_0, # of connection points: 2
#     Edge 15, Type (0, 0), BuildingBlock: UVAHIK_clean_linker_0, # of connection points: 2
#     Edge 16, Type (0, 0), BuildingBlock: UVAHIK_clean_linker_0, # of connection points: 2
#     Edge 17, Type (0, 0), BuildingBlock: UVAHIK_clean_linker_0, # of connection points: 2
#     Edge 18, Type (0, 0), BuildingBlock: UVAHIK_clean_linker_0, # of connection points: 2
#     Edge 19, Type (0, 0), BuildingBlock: UVAHIK_clean_linker_0, # of connection points: 2
#     Edge 20, Type (0, 0), BuildingBlock: UVAHIK_clean_linker_0, # of connection points: 2
#     Edge 21, Type (0, 0), BuildingBlock: UVAHIK_clean_linker_0, # of connection points: 2
#     Edge 22, Type (0, 0), BuildingBlock: UVAHIK_clean_linker_0, # of connection points: 2
#     Edge 23, Type (0, 0), BuildingBlock: UVAHIK_clean_linker_0, # of connection points: 2
#     Edge 24, Type (0, 0), BuildingBlock: UVAHIK_clean_linker_0, # of connection points: 2
#     Edge 25, Type (0, 0), BuildingBlock: UVAHIK_clean_linker_0, # of connection points: 2
#     Edge 26, Type (0, 0), BuildingBlock: UVAHIK_clean_linker_0, # of connection points: 2
#     Edge 27, Type (0, 0), BuildingBlock: UVAHIK_clean_linker_0, # of connection points: 2
# Relax obj value: 0.031
# Max RMSD: 0.067
# Mean RMSD: 0.067
data_MOF--net-soe--node1-XOMCOT_clean_sbu_0--edge1-UVAHIK_clean_linker_0
_symmetry_space_group_name_H-M    P1
_symmetry_Int_Tables_number       1
_symmetry_cell_setting            triclinic
loop_
_symmetry_equiv_pos_as_xyz
'x, y, z'
_cell_length_a     73.906272
_cell_length_b     57.25338
_cell_length_c     22.088181
_cell_angle_alpha  90.023347
_cell_angle_beta   90.007878
_cell_angle_gamma 90.051435
loop_
_atom_site_label
_atom_site_type_symbol
_atom_site_fract_x
_atom_site_fract_y
_atom_site_fract_z
_atom_type_partial_charge
Co0 Co 0.11051 0.09779 0.10445 0.0
C1 C 0.11165 0.104 0.96945 0.0
C2 C 0.09715 0.1312 0.01492 0.0
C3 C 0.096 0.13502 0.95359 0.0
N4 N 0.1073 0.11202 0.02517 0.0
N5 N 0.10507 0.11784 0.92506 0.0
H6 H 0.11896 0.08813 0.96073 0.0
H7 H 0.09057 0.14137 0.04981 0.0
C8 C 0.12436 0.14653 0.11762 0.0
O9 O 0.13292 0.14345 0.0661 0.0
N10 N 0.11303 0.08379 0.18334 0.0
C11 C 0.11958 0.06237 0.19535 0.0
C12 C 0.11985 0.05927 0.2571 0.0
C13 C 0.10933 0.09345 0.23761 0.0
N14 N 0.11342 0.07882 0.28372 0.0
C15 C 0.14096 0.07435 0.05228 0.0
C16 C 0.16701 0.09309 0.12763 0.0
C17 C 0.172 0.07538 0.08703 0.0
C18 C 0.1587 0.06624 0.0486 0.0
C19 C 0.14906 0.10087 0.12952 0.0
N20 N 0.13626 0.09186 0.09121 0.0
H21 H 0.13081 0.06516 0.02671 0.0
H22 H 0.14533 0.11306 0.16461 0.0
H23 H 0.12414 0.05003 0.16157 0.0
H24 H 0.10373 0.11077 0.24307 0.0
O25 O 0.10105 0.06874 0.07343 0.0
O26 O 0.08432 0.09695 0.11276 0.0
O27 O 0.11522 0.12978 0.14085 0.0
C28 C 0.08508 0.07637 0.08763 0.0
H29 H 0.0884 0.14878 0.93166 0.0
H30 H 0.12488 0.04399 0.28048 0.0
H31 H 0.17676 0.10035 0.15908 0.0
H32 H 0.16168 0.05182 0.01845 0.0
Co33 Co 0.40079 0.92173 0.10329 0.0
C34 C 0.40047 0.91629 0.96805 0.0
C35 C 0.41131 0.88652 0.01389 0.0
C36 C 0.41281 0.88287 0.95263 0.0
N37 N 0.40312 0.90722 0.02389 0.0
N38 N 0.406 0.90163 0.92374 0.0
H39 H 0.39585 0.93378 0.95942 0.0
H40 H 0.41645 0.87511 0.04889 0.0
C41 C 0.38464 0.87443 0.11865 0.0
O42 O 0.37493 0.87916 0.07034 0.0
N43 N 0.39917 0.93599 0.18225 0.0
C44 C 0.39373 0.95798 0.19384 0.0
C45 C 0.39337 0.96122 0.25551 0.0
C46 C 0.40218 0.92614 0.23678 0.0
N47 N 0.39863 0.94118 0.28249 0.0
C48 C 0.37039 0.9454 0.0508 0.0
C49 C 0.34482 0.92986 0.13257 0.0
C50 C 0.33976 0.94663 0.08951 0.0
C51 C 0.35281 0.95418 0.04793 0.0
C52 C 0.36259 0.92141 0.13363 0.0
N53 N 0.37511 0.92875 0.0921 0.0
H54 H 0.38045 0.95352 0.02271 0.0
H55 H 0.36646 0.90992 0.17013 0.0
H56 H 0.38998 0.97065 0.15976 0.0
H57 H 0.40637 0.9082 0.24287 0.0
O58 O 0.41066 0.95037 0.0714 0.0
O59 O 0.42704 0.92155 0.10951 0.0
O60 O 0.39548 0.88989 0.13982 0.0
C61 C 0.42656 0.94218 0.08453 0.0
H62 H 0.41875 0.8677 0.93124 0.0
H63 H 0.38953 0.97712 0.27865 0.0
H64 H 0.33529 0.9238 0.16635 0.0
H65 H 0.34982 0.96789 0.0157 0.0
Co66 Co 0.11324 0.42336 0.41134 0.0
C67 C 0.11383 0.41735 0.54653 0.0
C68 C 0.10116 0.38882 0.50042 0.0
C69 C 0.09976 0.38504 0.56172 0.0
N70 N 0.11041 0.4088 0.49056 0.0
N71 N 0.10769 0.40305 0.59066 0.0
H72 H 0.12001 0.43397 0.55559 0.0
H73 H 0.09524 0.37809 0.4653 0.0
C74 C 0.12783 0.37512 0.3958 0.0
O75 O 0.13686 0.37835 0.44637 0.0
N76 N 0.11533 0.43761 0.33254 0.0
C77 C 0.12157 0.4592 0.32049 0.0
C78 C 0.12154 0.46241 0.25874 0.0
C79 C 0.11149 0.42798 0.27832 0.0
N80 N 0.11522 0.44276 0.23219 0.0
C81 C 0.14364 0.4466 0.46461 0.0
C82 C 0.16949 0.43009 0.3852 0.0
C83 C 0.17444 0.44695 0.42816 0.0
C84 C 0.16131 0.45494 0.46866 0.0
C85 C 0.15165 0.42175 0.38363 0.0
N86 N 0.13896 0.42971 0.42381 0.0
H87 H 0.13351 0.45526 0.49131 0.0
H88 H 0.14786 0.41005 0.34746 0.0
H89 H 0.12615 0.47156 0.35421 0.0
H90 H 0.10607 0.41055 0.27288 0.0
O91 O 0.10371 0.45215 0.44326 0.0
O92 O 0.08704 0.42377 0.4041 0.0
O93 O 0.11813 0.39162 0.37404 0.0
C94 C 0.08774 0.44431 0.42954 0.0
H95 H 0.0927 0.3707 0.58326 0.0
H96 H 0.12628 0.47783 0.23528 0.0
H97 H 0.17916 0.42394 0.35201 0.0
H98 H 0.16436 0.46874 0.50067 0.0
Co99 Co 0.40237 0.59626 0.40099 0.0
C100 C 0.40205 0.60138 0.53435 0.0
C101 C 0.41095 0.63268 0.48989 0.0
C102 C 0.41205 0.63602 0.55146 0.0
N103 N 0.40463 0.61102 0.47925 0.0
N104 N 0.40655 0.61629 0.57952 0.0
H105 H 0.39765 0.58353 0.54103 0.0
H106 H 0.41497 0.64501 0.45537 0.0
C107 C 0.38584 0.63443 0.32295 0.0
O108 O 0.37482 0.6192 0.29791 0.0
N109 N 0.40051 0.58131 0.32189 0.0
C110 C 0.39513 0.55926 0.31008 0.0
C111 C 0.3958 0.55547 0.24873 0.0
C112 C 0.40521 0.59021 0.26732 0.0
N113 N 0.40193 0.57502 0.22159 0.0
C114 C 0.37281 0.56675 0.43412 0.0
C115 C 0.34546 0.59948 0.42931 0.0
C116 C 0.34106 0.576 0.43957 0.0
C117 C 0.35504 0.55974 0.44394 0.0
C118 C 0.36366 0.6059 0.42141 0.0
N119 N 0.37696 0.58929 0.41906 0.0
H120 H 0.38319 0.5537 0.43829 0.0
H121 H 0.36687 0.62419 0.41745 0.0
H122 H 0.39132 0.54639 0.34326 0.0
H123 H 0.41052 0.60765 0.26108 0.0
O124 O 0.41296 0.5682 0.43344 0.0
O125 O 0.4286 0.59699 0.39217 0.0
O126 O 0.39685 0.62798 0.36438 0.0
C127 C 0.42861 0.5766 0.41839 0.0
H128 H 0.41672 0.65175 0.57369 0.0
H129 H 0.3922 0.53937 0.22602 0.0
H130 H 0.33499 0.6127 0.42806 0.0
H131 H 0.35222 0.54152 0.45327 0.0
Co132 Co 0.90112 0.92124 0.90786 0.0
C133 C 0.9006 0.91578 0.04306 0.0
C134 C 0.91142 0.88597 0.99729 0.0
C135 C 0.91287 0.88232 0.05855 0.0
N136 N 0.90327 0.90668 0.98724 0.0
N137 N 0.90608 0.90111 0.0874 0.0
H138 H 0.89601 0.93329 0.05165 0.0
H139 H 0.91659 0.87455 0.96234 0.0
C140 C 0.88495 0.87397 0.89195 0.0
O141 O 0.87516 0.87872 0.94009 0.0
N142 N 0.89965 0.93555 0.82896 0.0
C143 C 0.89432 0.95759 0.81746 0.0
C144 C 0.89398 0.96085 0.7558 0.0
C145 C 0.90261 0.92569 0.77438 0.0
N146 N 0.89914 0.94078 0.72873 0.0
C147 C 0.8706 0.94491 0.9597 0.0
C148 C 0.84521 0.92935 0.87725 0.0
C149 C 0.84005 0.94614 0.92018 0.0
C150 C 0.85302 0.9537 0.96209 0.0
C151 C 0.86298 0.92093 0.87659 0.0
N152 N 0.87542 0.92827 0.91846 0.0
H153 H 0.88059 0.95299 0.98815 0.0
H154 H 0.86693 0.90946 0.84014 0.0
H155 H 0.89061 0.97026 0.85158 0.0
H156 H 0.90669 0.90771 0.76819 0.0
O157 O 0.91094 0.94984 0.94016 0.0
O158 O 0.92737 0.92102 0.90228 0.0
O159 O 0.89585 0.88941 0.87107 0.0
C160 C 0.92685 0.94163 0.92741 0.0
H161 H 0.91878 0.86715 0.07998 0.0
H162 H 0.89021 0.97679 0.73273 0.0
H163 H 0.83576 0.92325 0.84327 0.0
H164 H 0.84996 0.96742 0.99427 0.0
Co165 Co 0.61048 0.09769 0.90647 0.0
C166 C 0.61174 0.10351 0.04149 0.0
C167 C 0.59963 0.13261 0.99621 0.0
C168 C 0.59856 0.13637 0.05758 0.0
N169 N 0.60833 0.11229 0.98579 0.0
N170 N 0.60613 0.11801 0.08601 0.0
H171 H 0.61748 0.08659 0.05001 0.0
H172 H 0.59382 0.1436 0.96148 0.0
C173 C 0.6257 0.14557 0.88944 0.0
O174 O 0.63538 0.14177 0.93837 0.0
N175 N 0.61197 0.08337 0.82761 0.0
C176 C 0.61774 0.06157 0.81554 0.0
C177 C 0.61756 0.0583 0.75383 0.0
C178 C 0.60829 0.09308 0.77341 0.0
N179 N 0.61164 0.07814 0.72731 0.0
C180 C 0.64117 0.0742 0.95723 0.0
C181 C 0.66662 0.09105 0.87681 0.0
C182 C 0.67187 0.07409 0.91911 0.0
C183 C 0.65886 0.06584 0.95993 0.0
C184 C 0.64872 0.09907 0.87588 0.0
N185 N 0.63626 0.09111 0.91687 0.0
H186 H 0.63119 0.06562 0.98475 0.0
H187 H 0.64473 0.1107 0.83985 0.0
H188 H 0.62213 0.0491 0.84923 0.0
H189 H 0.60329 0.11071 0.76794 0.0
O190 O 0.60095 0.06897 0.9391 0.0
O191 O 0.58423 0.09749 0.90121 0.0
O192 O 0.61532 0.12946 0.86902 0.0
C193 C 0.58495 0.07693 0.92647 0.0
H194 H 0.59192 0.15093 0.07955 0.0
H195 H 0.62198 0.04273 0.73036 0.0
H196 H 0.67611 0.09761 0.84352 0.0
H197 H 0.662 0.05193 0.99144 0.0
Co198 Co 0.90245 0.59586 0.60879 0.0
C199 C 0.90209 0.60098 0.47544 0.0
C200 C 0.91099 0.63229 0.51998 0.0
C201 C 0.91208 0.63563 0.45841 0.0
N202 N 0.90468 0.61063 0.53057 0.0
N203 N 0.90658 0.6159 0.43031 0.0
H204 H 0.8977 0.58314 0.46872 0.0
H205 H 0.91502 0.64462 0.55452 0.0
C206 C 0.88593 0.63403 0.68688 0.0
O207 O 0.87489 0.61882 0.71184 0.0
N208 N 0.90063 0.58091 0.68787 0.0
C209 C 0.89532 0.55883 0.69963 0.0
C210 C 0.89598 0.55504 0.76098 0.0
C211 C 0.90529 0.58983 0.74247 0.0
N212 N 0.90204 0.57463 0.78816 0.0
C213 C 0.87285 0.56636 0.57596 0.0
C214 C 0.84554 0.59914 0.58058 0.0
C215 C 0.8411 0.57565 0.57058 0.0
C216 C 0.85507 0.55936 0.56632 0.0
C217 C 0.86375 0.60554 0.58836 0.0
N218 N 0.87703 0.5889 0.59082 0.0
H219 H 0.88322 0.55328 0.57181 0.0
H220 H 0.86699 0.62382 0.59217 0.0
H221 H 0.89156 0.54593 0.66643 0.0
H222 H 0.91055 0.60729 0.74877 0.0
O223 O 0.91302 0.5678 0.57623 0.0
O224 O 0.92868 0.59659 0.61751 0.0
O225 O 0.89695 0.62757 0.64549 0.0
C226 C 0.92868 0.5762 0.59127 0.0
H227 H 0.91674 0.65137 0.43622 0.0
H228 H 0.89243 0.53893 0.78366 0.0
H229 H 0.83509 0.61239 0.58173 0.0
H230 H 0.85224 0.54112 0.55722 0.0
Co231 Co 0.61291 0.42311 0.59828 0.0
C232 C 0.61254 0.41772 0.46317 0.0
C233 C 0.60411 0.38667 0.50889 0.0
C234 C 0.60244 0.38309 0.44759 0.0
N235 N 0.61104 0.40815 0.51901 0.0
N236 N 0.60776 0.40266 0.41879 0.0
H237 H 0.61556 0.43582 0.45473 0.0
H238 H 0.59976 0.37465 0.54371 0.0
C239 C 0.62882 0.37584 0.61986 0.0
O240 O 0.63927 0.37965 0.57274 0.0
N241 N 0.61405 0.43783 0.67694 0.0
C242 C 0.61939 0.45988 0.68835 0.0
C243 C 0.61937 0.46335 0.75 0.0
C244 C 0.61072 0.42819 0.73157 0.0
N245 N 0.61398 0.4434 0.77721 0.0
C246 C 0.6439 0.44495 0.54437 0.0
C247 C 0.66858 0.43212 0.63215 0.0
C248 C 0.67407 0.44739 0.58608 0.0
C249 C 0.66154 0.45349 0.5414 0.0
C250 C 0.65081 0.42353 0.6327 0.0
N251 N 0.6387 0.42972 0.5886 0.0
H252 H 0.63419 0.45219 0.51363 0.0
H253 H 0.64655 0.41296 0.6706 0.0
H254 H 0.62336 0.47241 0.65421 0.0
H255 H 0.60652 0.41025 0.73783 0.0
O256 O 0.60355 0.45166 0.56447 0.0
O257 O 0.58667 0.42323 0.60247 0.0
O258 O 0.6177 0.39162 0.63715 0.0
C259 C 0.58751 0.44371 0.57677 0.0
H260 H 0.59732 0.36742 0.42614 0.0
H261 H 0.62307 0.47936 0.7729 0.0
H262 H 0.67777 0.42736 0.66829 0.0
H263 H 0.66499 0.46603 0.50651 0.0
C264 C 0.31361 0.96444 0.14594 0.0
C265 C 0.32158 0.95781 0.09074 0.0
C266 C 0.29732 0.9769 0.14675 0.0
C267 C 0.25755 0.99231 0.05238 0.0
H268 H 0.25331 0.04464 0.16302 0.0
C269 C 0.19888 0.05801 0.0339 0.0
C270 C 0.19039 0.06478 0.0881 0.0
C271 C 0.21518 0.04565 0.03497 0.0
C272 C 0.2542 0.02995 0.13225 0.0
H273 H 0.3183 0.95836 0.9932 0.0
H274 H 0.29007 0.98028 0.99454 0.0
H275 H 0.28059 0.02066 0.16419 0.0
H276 H 0.19266 0.06428 0.18599 0.0
H277 H 0.22116 0.04282 0.18784 0.0
H278 H 0.23121 1.0016 0.02033 0.0
C279 C 0.29633 0.97577 0.03729 0.0
C280 C 0.26983 0.01616 0.13301 0.0
C281 C 0.31261 0.96337 0.03648 0.0
C282 C 0.19895 0.05963 0.14337 0.0
C283 C 0.21528 0.04726 0.14444 0.0
C284 C 0.24195 1.00609 0.0516 0.0
C285 C 0.28858 0.98296 0.0924 0.0
C286 C 0.27173 0.99721 0.09292 0.0
C287 C 0.22342 0.03974 0.09027 0.0
C288 C 0.2401 0.02516 0.09133 0.0
H289 H 0.32024 0.96069 0.18856 0.0
H290 H 0.29162 0.98189 0.19002 0.0
H291 H 0.25842 0.97764 0.02156 0.0
H292 H 0.19278 0.062 0.99054 0.0
H293 H 0.22128 0.04058 0.99236 0.0
C294 C 0.20216 0.4612 0.48197 0.0
C295 C 0.19256 0.4581 0.42766 0.0
C296 C 0.21822 0.47411 0.48293 0.0
C297 C 0.24134 0.52164 0.40447 0.0
H298 H 0.284 0.49951 0.4887 0.0
C299 C 0.31048 0.56974 0.3941 0.0
C300 C 0.32213 0.56775 0.44395 0.0
C301 C 0.29398 0.55767 0.39323 0.0
C302 C 0.27213 0.50623 0.46594 0.0
H303 H 0.19228 0.46586 0.33168 0.0
H304 H 0.22037 0.48866 0.33342 0.0
H305 H 0.2572 0.47486 0.48362 0.0
H306 H 0.32536 0.55299 0.53341 0.0
H307 H 0.29624 0.53294 0.53357 0.0
H308 H 0.25603 0.55324 0.38793 0.0
C309 C 0.21547 0.481 0.37515 0.0
C310 C 0.25681 0.49196 0.46267 0.0
C311 C 0.19953 0.46776 0.37403 0.0
C312 C 0.31657 0.55472 0.49441 0.0
C313 C 0.29999 0.54299 0.49401 0.0
C314 C 0.2566 0.53608 0.40841 0.0
C315 C 0.22486 0.48451 0.42976 0.0
C316 C 0.24127 0.49949 0.43186 0.0
C317 C 0.28874 0.5436 0.44257 0.0
C318 C 0.27222 0.52859 0.43927 0.0
H319 H 0.19705 0.45396 0.52394 0.0
H320 H 0.22512 0.47662 0.52571 0.0
H321 H 0.22945 0.52801 0.38106 0.0
H322 H 0.31463 0.57944 0.35434 0.0
H323 H 0.28581 0.55847 0.3526 0.0
C324 C 0.69904 0.0574 0.97209 0.0
C325 C 0.69023 0.06337 0.91784 0.0
C326 C 0.71534 0.04506 0.97118 0.0
C327 C 0.75397 0.02842 0.8737 0.0
H328 H 0.75872 0.97726 0.98762 0.0
C329 C 0.81386 0.96356 0.86305 0.0
C330 C 0.82185 0.95727 0.91851 0.0
C331 C 0.79751 0.97587 0.86175 0.0
C332 C 0.75771 0.99162 0.95591 0.0
H333 H 0.69195 0.06144 0.81992 0.0
H334 H 0.7205 0.04008 0.81835 0.0
H335 H 0.7314 1.00103 0.98805 0.0
H336 H 0.81853 0.95834 0.01601 0.0
H337 H 0.79024 0.98009 0.01381 0.0
H338 H 0.78035 0.01909 0.84179 0.0
C339 C 0.71483 0.0451 0.86164 0.0
C340 C 0.74205 1.00528 0.9562 0.0
C341 C 0.69848 0.05742 0.86255 0.0
C342 C 0.81284 0.96308 0.97253 0.0
C343 C 0.79651 0.97537 0.97122 0.0
C344 C 0.76968 0.01478 0.87349 0.0
C345 C 0.72328 0.0384 0.91598 0.0
C346 C 0.74001 0.02391 0.9153 0.0
C347 C 0.78873 0.98217 0.91585 0.0
C348 C 0.77178 0.99625 0.91476 0.0
H349 H 0.6932 0.06203 0.01544 0.0
H350 H 0.72169 0.04061 0.01384 0.0
H351 H 0.75292 0.04278 0.842 0.0
H352 H 0.82051 0.95963 0.82057 0.0
H353 H 0.79179 0.98054 0.81827 0.0
C354 C 0.81028 0.57038 0.61533 0.0
C355 C 0.82215 0.56744 0.56633 0.0
C356 C 0.79371 0.55848 0.61673 0.0
C357 C 0.77207 0.50587 0.54949 0.0
H358 H 0.72884 0.52964 0.62735 0.0
C359 C 0.70236 0.46041 0.53345 0.0
C360 C 0.69211 0.45878 0.58686 0.0
C361 C 0.71841 0.47334 0.53227 0.0
C362 C 0.74089 0.52271 0.60597 0.0
H363 H 0.82563 0.55117 0.47869 0.0
H364 H 0.79644 0.53131 0.47951 0.0
H365 H 0.7556 0.55453 0.61948 0.0
H366 H 0.6907 0.4692 0.68105 0.0
H367 H 0.7188 0.49193 0.67893 0.0
H368 H 0.75719 0.47424 0.53499 0.0
C369 C 0.80008 0.54202 0.51804 0.0
C370 C 0.75624 0.53696 0.60144 0.0
C371 C 0.81671 0.55362 0.5171 0.0
C372 C 0.69844 0.46995 0.63945 0.0
C373 C 0.71439 0.48316 0.63805 0.0
C374 C 0.75669 0.49176 0.55344 0.0
C375 C 0.78862 0.5436 0.5688 0.0
C376 C 0.77205 0.52875 0.57298 0.0
C377 C 0.72444 0.48517 0.58426 0.0
C378 C 0.74093 0.50001 0.58168 0.0
H379 H 0.8143 0.58072 0.65416 0.0
H380 H 0.78536 0.56005 0.65677 0.0
H381 H 0.78409 0.49864 0.5287 0.0
H382 H 0.69779 0.45198 0.49228 0.0
H383 H 0.72581 0.47467 0.49008 0.0
C384 C 0.96073 0.94623 0.93068 0.0
C385 C 0.94337 0.95517 0.94219 0.0
C386 C 0.97617 0.95919 0.94612 0.0
C387 C 0.99129 0.01955 0.98173 0.0
H388 H 0.03239 0.98852 0.05518 0.0
C389 C 0.05129 0.07105 0.08561 0.0
C390 C 0.06871 0.06238 0.07385 0.0
C391 C 0.03595 0.05787 0.07036 0.0
C392 C 0.0211 0.99744 0.03418 0.0
H393 H 0.92861 0.98471 0.97893 0.0
H394 H 0.95537 1.00705 0.00614 0.0
H395 H 1.00601 0.96567 0.02502 0.0
H396 H 0.0837 0.03303 0.03722 0.0
H397 H 0.05709 0.01025 0.01039 0.0
H398 H 1.00636 0.05132 0.9909 0.0
C399 C 0.95715 0.99023 0.98449 0.0
C400 C 1.00598 0.98431 0.01676 0.0
C401 C 0.94178 0.97732 0.96917 0.0
C402 C 0.07047 0.04021 0.04711 0.0
C403 C 0.0552 0.02706 0.032 0.0
C404 C 1.0064 0.03268 0.99916 0.0
C405 C 0.97456 0.98136 0.97325 0.0
C406 C 0.99087 0.99521 0.99042 0.0
C407 C 0.03773 0.03573 0.04317 0.0
C408 C 0.0215 0.0218 0.02564 0.0
H409 H 0.96239 0.92923 0.90991 0.0
H410 H 0.98937 0.95192 0.93627 0.0
H411 H 0.98001 0.02848 0.96072 0.0
H412 H 0.04948 0.08806 0.1062 0.0
H413 H 0.0227 0.06496 0.08024 0.0
C414 C 0.46043 0.94688 0.08239 0.0
C415 C 0.44309 0.95578 0.0704 0.0
C416 C 0.47589 0.95991 0.06761 0.0
C417 C 0.49102 0.02036 0.03306 0.0
H418 H 0.5323 0.98949 0.96033 0.0
C419 C 0.55113 0.07191 0.92989 0.0
C420 C 0.56855 0.06319 0.94144 0.0
C421 C 0.53579 0.05881 0.94542 0.0
C422 C 0.52096 0.99836 0.98116 0.0
H423 H 0.42838 0.98534 0.03357 0.0
H424 H 0.45518 1.0078 0.00751 0.0
H425 H 0.5059 0.96655 0.98966 0.0
H426 H 0.58352 0.03387 0.9783 0.0
H427 H 0.5569 0.01123 0.00564 0.0
H428 H 0.50607 0.05217 0.0245 0.0
C429 C 0.45693 0.99095 0.02901 0.0
C430 C 0.50583 0.98519 0.9981 0.0
C431 C 0.44153 0.97797 0.04366 0.0
C432 C 0.5703 0.04109 0.96854 0.0
C433 C 0.55501 0.02801 0.98393 0.0
C434 C 0.50615 0.03354 0.01612 0.0
C435 C 0.47431 0.98212 0.0407 0.0
C436 C 0.49065 0.99602 0.02415 0.0
C437 C 0.53755 0.03668 0.97268 0.0
C438 C 0.52131 0.02271 0.98991 0.0
H439 H 0.46206 0.92985 0.103 0.0
H440 H 0.48907 0.95267 0.0778 0.0
H441 H 0.47968 0.02925 0.05386 0.0
H442 H 0.54934 0.08887 0.90902 0.0
H443 H 0.52254 0.06591 0.93552 0.0
C444 C 0.07311 0.48015 0.47132 0.0
C445 C 0.07136 0.45806 0.44414 0.0
C446 C 0.05782 0.49309 0.4872 0.0
C447 C 0.00922 0.48682 0.52158 0.0
H448 H 0.00827 0.55386 0.49631 0.0
C449 C 0.94418 0.54091 0.55032 0.0
C450 C 0.94542 0.56304 0.57758 0.0
C451 C 0.95972 0.52833 0.53563 0.0
C452 C 0.00841 0.53521 0.50443 0.0
H453 H 0.05217 0.43228 0.41178 0.0
H454 H 0.02536 0.45502 0.43911 0.0
H455 H 0.03475 0.53143 0.4653 0.0
H456 H 0.96401 0.58932 0.61109 0.0
H457 H 0.99135 0.56718 0.58568 0.0
H458 H 0.98288 0.49057 0.5606 0.0
C459 C 0.03861 0.46221 0.44873 0.0
C460 C 0.02358 0.52233 0.48652 0.0
C461 C 0.05395 0.44924 0.43271 0.0
C462 C 0.96262 0.57231 0.59012 0.0
C463 C 0.97826 0.55968 0.57523 0.0
C464 C 0.99407 0.4997 0.53948 0.0
C465 C 0.04038 0.48428 0.47637 0.0
C466 C 0.02415 0.49796 0.49473 0.0
C467 C 0.97697 0.53753 0.54777 0.0
C468 C 0.99344 0.52404 0.53091 0.0
H469 H 0.08633 0.48744 0.48096 0.0
H470 H 0.0597 0.50985 0.50913 0.0
H471 H 0.00933 0.46817 0.52963 0.0
H472 H 0.93113 0.53326 0.53981 0.0
H473 H 0.9582 0.51153 0.51367 0.0
C474 C 0.46256 0.57266 0.41928 0.0
C475 C 0.44536 0.56348 0.4322 0.0
C476 C 0.4782 0.5601 0.43451 0.0
C477 C 0.49404 0.5127 0.53595 0.0
H478 H 0.5347 0.5092 0.42559 0.0
C479 C 0.55375 0.44889 0.57344 0.0
C480 C 0.57119 0.45741 0.56116 0.0
C481 C 0.53846 0.46202 0.55776 0.0
C482 C 0.52354 0.51019 0.45723 0.0
H483 H 0.43107 0.53378 0.47033 0.0
H484 H 0.45814 0.51196 0.49603 0.0
H485 H 0.50819 0.53225 0.39807 0.0
H486 H 0.58628 0.48643 0.52306 0.0
H487 H 0.55974 0.50932 0.49644 0.0
H488 H 0.50933 0.49064 0.59508 0.0
C489 C 0.45966 0.52897 0.47518 0.0
C490 C 0.50835 0.52345 0.44145 0.0
C491 C 0.44412 0.54145 0.46 0.0
C492 C 0.57303 0.47931 0.53303 0.0
C493 C 0.55779 0.49239 0.51736 0.0
C494 C 0.5092 0.49946 0.55171 0.0
C495 C 0.47691 0.53816 0.46308 0.0
C496 C 0.49337 0.52476 0.48049 0.0
C497 C 0.54031 0.48393 0.52939 0.0
C498 C 0.52413 0.49798 0.5125 0.0
H499 H 0.46395 0.58961 0.39799 0.0
H500 H 0.4913 0.56775 0.42493 0.0
H501 H 0.48287 0.51365 0.56758 0.0
H502 H 0.55189 0.43205 0.5949 0.0
H503 H 0.52518 0.45487 0.56711 0.0
C504 C 0.106 0.13339 0.8207 0.0
C505 C 0.10638 0.11427 0.86057 0.0
C506 C 0.10694 0.12997 0.7581 0.0
C507 C 0.12015 0.08623 0.64224 0.0
H508 H 0.0904 0.12411 0.53614 0.0
C509 C 0.11095 0.06462 0.38924 0.0
C510 C 0.11194 0.08327 0.34792 0.0
C511 C 0.11022 0.06879 0.4515 0.0
C512 C 0.09892 0.11355 0.56514 0.0
H513 H 0.10777 0.0765 0.86572 0.0
H514 H 0.10924 0.07048 0.75671 0.0
H515 H 0.08937 0.13056 0.64528 0.0
H516 H 0.11286 0.12105 0.34032 0.0
H517 H 0.11138 0.1283 0.44901 0.0
H518 H 0.12954 0.06907 0.56208 0.0
C519 C 0.10861 0.08819 0.77378 0.0
C520 C 0.09836 0.11726 0.62772 0.0
C521 C 0.10776 0.09163 0.83638 0.0
C522 C 0.11187 0.10625 0.37057 0.0
C523 C 0.11106 0.11042 0.43295 0.0
C524 C 0.12064 0.08246 0.57975 0.0
C525 C 0.10819 0.10731 0.7338 0.0
C526 C 0.10894 0.10361 0.66709 0.0
C527 C 0.11038 0.09172 0.47413 0.0
C528 C 0.10999 0.09602 0.54049 0.0
H529 H 0.10519 0.15105 0.83797 0.0
H530 H 0.1069 0.14512 0.72879 0.0
H531 H 0.12874 0.07568 0.67103 0.0
H532 H 0.11062 0.04672 0.37359 0.0
H533 H 0.10937 0.05401 0.48198 0.0
C534 C 0.38837 0.9491 0.387 0.0
C535 C 0.39953 0.93672 0.3467 0.0
C536 C 0.38933 0.9451 0.44926 0.0
C537 C 0.40476 0.90205 0.56307 0.0
H538 H 0.40116 0.95484 0.67253 0.0
C539 C 0.41764 0.89393 0.8204 0.0
C540 C 0.40561 0.9057 0.85921 0.0
C541 C 0.41712 0.89767 0.7579 0.0
C542 C 0.40201 0.93989 0.64259 0.0
H543 H 0.42051 0.91041 0.34049 0.0
H544 H 0.42232 0.90351 0.44942 0.0
H545 H 0.40004 0.9613 0.56355 0.0
H546 H 0.38345 0.93049 0.8621 0.0
H547 H 0.38265 0.93714 0.75315 0.0
H548 H 0.40682 0.88067 0.64232 0.0
C549 C 0.41261 0.91611 0.43267 0.0
C550 C 0.40135 0.94358 0.58008 0.0
C551 C 0.4116 0.92006 0.37022 0.0
C552 C 0.3931 0.9214 0.83383 0.0
C553 C 0.39263 0.92519 0.7713 0.0
C554 C 0.40548 0.89837 0.62562 0.0
C555 C 0.40153 0.92865 0.47299 0.0
C556 C 0.40263 0.9247 0.53951 0.0
C557 C 0.4046 0.91333 0.73261 0.0
C558 C 0.40403 0.91724 0.6661 0.0
H559 H 0.37866 0.9617 0.37039 0.0
H560 H 0.38032 0.95472 0.47878 0.0
H561 H 0.40552 0.88707 0.53322 0.0
H562 H 0.42767 0.88203 0.83822 0.0
H563 H 0.42672 0.88853 0.72943 0.0
C564 C 0.10866 0.38782 0.69539 0.0
C565 C 0.10841 0.40685 0.65521 0.0
C566 C 0.10925 0.39143 0.75799 0.0
C567 C 0.12076 0.43615 0.87326 0.0
H568 H 0.09254 0.39657 0.98001 0.0
C569 C 0.11199 0.45702 0.12694 0.0
C570 C 0.11355 0.43835 0.16801 0.0
C571 C 0.11108 0.45291 0.06465 0.0
C572 C 0.10064 0.40762 0.95084 0.0
H573 H 0.10819 0.44466 0.64962 0.0
H574 H 0.10911 0.45099 0.75857 0.0
H575 H 0.09157 0.39 0.87089 0.0
H576 H 0.11529 0.40062 0.17518 0.0
H577 H 0.11356 0.39347 0.0665 0.0
H578 H 0.12973 0.45386 0.95318 0.0
C579 C 0.10924 0.43323 0.74173 0.0
C580 C 0.10011 0.40385 0.88827 0.0
C581 C 0.10871 0.4296 0.67915 0.0
C582 C 0.11386 0.41542 0.14511 0.0
C583 C 0.11289 0.4113 0.08272 0.0
C584 C 0.12124 0.43997 0.93574 0.0
C585 C 0.10953 0.41419 0.78199 0.0
C586 C 0.11015 0.41809 0.84866 0.0
C587 C 0.11164 0.43002 0.04174 0.0
C588 C 0.11116 0.42579 0.97529 0.0
H589 H 0.10868 0.37008 0.6784 0.0
H590 H 0.10976 0.37636 0.78754 0.0
H591 H 0.12893 0.44719 0.84429 0.0
H592 H 0.11135 0.47487 0.14283 0.0
H593 H 0.10979 0.46769 0.03439 0.0
C594 C 0.41496 0.59627 0.13364 0.0
C595 C 0.40328 0.57911 0.15713 0.0
C596 C 0.41594 0.60027 0.07109 0.0
C597 C 0.40523 0.57262 0.92297 0.0
H598 H 0.40785 0.63598 0.86192 0.0
C599 C 0.39514 0.59472 0.66924 0.0
C600 C 0.40651 0.61185 0.64398 0.0
C601 C 0.39509 0.59062 0.73177 0.0
C602 C 0.40732 0.61816 0.87819 0.0
H603 H 0.38308 0.55321 0.13269 0.0
H604 H 0.38481 0.56011 0.02457 0.0
H605 H 0.40754 0.62915 0.9709 0.0
H606 H 0.42712 0.63763 0.66518 0.0
H607 H 0.42698 0.63055 0.77361 0.0
H608 H 0.4049 0.56163 0.83028 0.0
C609 C 0.39353 0.57015 0.05418 0.0
C610 C 0.40717 0.61424 0.94074 0.0
C611 C 0.39256 0.56617 0.11646 0.0
C612 C 0.4179 0.62464 0.68288 0.0
C613 C 0.41784 0.62056 0.74527 0.0
C614 C 0.40535 0.57653 0.86045 0.0
C615 C 0.40524 0.58721 0.03056 0.0
C616 C 0.40604 0.59142 0.96397 0.0
C617 C 0.40641 0.60355 0.7706 0.0
C618 C 0.40634 0.59936 0.83723 0.0
H619 H 0.42351 0.60644 0.16344 0.0
H620 H 0.42525 0.61339 0.05443 0.0
H621 H 0.40465 0.55478 0.93918 0.0
H622 H 0.38604 0.58473 0.64088 0.0
H623 H 0.38595 0.57757 0.74982 0.0
C624 C 0.91771 0.89341 0.19074 0.0
C625 C 0.9057 0.90522 0.15193 0.0
C626 C 0.91721 0.89717 0.25323 0.0
C627 C 0.90223 0.93947 0.3686 0.0
H628 H 0.90563 0.88664 0.47786 0.0
C629 C 0.88883 0.94878 0.62433 0.0
C630 C 0.89998 0.93632 0.66451 0.0
C631 C 0.88973 0.94478 0.56204 0.0
C632 C 0.90491 0.90162 0.44804 0.0
H633 H 0.8836 0.9301 0.14903 0.0
H634 H 0.88283 0.93679 0.258 0.0
H635 H 0.90685 0.88023 0.36875 0.0
H636 H 0.92085 0.90987 0.6705 0.0
H637 H 0.92255 0.90296 0.56154 0.0
H638 H 0.90039 0.9609 0.44767 0.0
C639 C 0.89278 0.92479 0.23984 0.0
C640 C 0.90557 0.89793 0.38548 0.0
C641 C 0.89323 0.92098 0.17731 0.0
C642 C 0.91196 0.91958 0.64086 0.0
C643 C 0.91291 0.91562 0.57839 0.0
C644 C 0.90163 0.94317 0.43111 0.0
C645 C 0.90473 0.91289 0.27853 0.0
C646 C 0.90418 0.91681 0.34504 0.0
C647 C 0.90184 0.92825 0.53819 0.0
C648 C 0.90287 0.92428 0.47165 0.0
H649 H 0.92771 0.88147 0.17293 0.0
H650 H 0.92678 0.888 0.2817 0.0
H651 H 0.90142 0.95442 0.33868 0.0
H652 H 0.87919 0.96144 0.64104 0.0
H653 H 0.88073 0.95446 0.53262 0.0
C654 C 0.61109 0.10546 0.64019 0.0
C655 C 0.61012 0.08256 0.66313 0.0
C656 C 0.61037 0.10955 0.57778 0.0
C657 C 0.61832 0.08042 0.4312 0.0
H658 H 0.59017 0.13157 0.36543 0.0
C659 C 0.60659 0.09133 0.17423 0.0
C660 C 0.60689 0.1141 0.15048 0.0
C661 C 0.60698 0.08765 0.2368 0.0
C662 C 0.59828 0.11738 0.38308 0.0
H663 H 0.60698 0.04614 0.63806 0.0
H664 H 0.60583 0.05328 0.52956 0.0
H665 H 0.59065 0.12501 0.47455 0.0
H666 H 0.60821 0.15082 0.17391 0.0
H667 H 0.60906 0.14443 0.28297 0.0
H668 H 0.62606 0.07285 0.33997 0.0
C669 C 0.60746 0.06803 0.5598 0.0
C670 C 0.59853 0.11362 0.44564 0.0
C671 C 0.60813 0.06394 0.62211 0.0
C672 C 0.6077 0.13309 0.19077 0.0
C673 C 0.60816 0.12941 0.25332 0.0
C674 C 0.61812 0.08423 0.36871 0.0
C675 C 0.60871 0.09085 0.53685 0.0
C676 C 0.60851 0.09504 0.47041 0.0
C677 C 0.60774 0.10664 0.27716 0.0
C678 C 0.60806 0.10272 0.3438 0.0
H679 H 0.61286 0.12021 0.67025 0.0
H680 H 0.61155 0.12733 0.56151 0.0
H681 H 0.62638 0.06619 0.44891 0.0
H682 H 0.60565 0.07633 0.14459 0.0
H683 H 0.60634 0.06989 0.25355 0.0
C684 C 0.89517 0.59433 0.34053 0.0
C685 C 0.90654 0.61146 0.36584 0.0
C686 C 0.89513 0.59023 0.27799 0.0
C687 C 0.90734 0.61778 0.13166 0.0
H688 H 0.90474 0.5544 0.07053 0.0
C689 C 0.91503 0.59592 0.87618 0.0
C690 C 0.90337 0.57873 0.85263 0.0
C691 C 0.91599 0.59991 0.93875 0.0
C692 C 0.90529 0.57224 0.08678 0.0
H693 H 0.92714 0.63726 0.34472 0.0
H694 H 0.927 0.63018 0.23628 0.0
H695 H 0.90497 0.56125 0.17944 0.0
H696 H 0.88322 0.55277 0.87695 0.0
H697 H 0.88491 0.55969 0.98509 0.0
H698 H 0.90756 0.62877 0.03897 0.0
C699 C 0.91787 0.62019 0.26458 0.0
C700 C 0.90541 0.57615 0.1493 0.0
C701 C 0.91793 0.62426 0.32698 0.0
C702 C 0.89267 0.56576 0.89324 0.0
C703 C 0.89363 0.56975 0.95553 0.0
C704 C 0.9072 0.61386 0.0691 0.0
C705 C 0.90645 0.60317 0.23921 0.0
C706 C 0.90638 0.59898 0.17257 0.0
C707 C 0.90531 0.58683 0.97922 0.0
C708 C 0.90609 0.59104 0.04582 0.0
H709 H 0.88608 0.58433 0.36887 0.0
H710 H 0.88599 0.57718 0.25991 0.0
H711 H 0.90785 0.63561 0.14797 0.0
H712 H 0.92357 0.6061 0.84642 0.0
H713 H 0.92529 0.61305 0.95545 0.0
C714 C 0.59621 0.39415 0.31562 0.0
C715 C 0.60761 0.407 0.35432 0.0
C716 C 0.59632 0.39811 0.25313 0.0
C717 C 0.60919 0.44191 0.13773 0.0
H718 H 0.60787 0.38911 0.02778 0.0
C719 C 0.62334 0.45211 0.88244 0.0
C720 C 0.61278 0.43909 0.84154 0.0
C721 C 0.62221 0.4481 0.94471 0.0
C722 C 0.608 0.40407 0.05779 0.0
H723 H 0.62824 0.43395 0.35701 0.0
H724 H 0.62838 0.44091 0.24821 0.0
H725 H 0.60677 0.38245 0.13679 0.0
H726 H 0.59265 0.41166 0.83458 0.0
H727 H 0.59061 0.4047 0.9434 0.0
H728 H 0.61043 0.46354 0.05888 0.0
C729 C 0.61915 0.42798 0.26636 0.0
C730 C 0.60739 0.40025 0.12034 0.0
C731 C 0.61906 0.42399 0.32884 0.0
C732 C 0.60112 0.42183 0.86463 0.0
C733 C 0.59996 0.41784 0.92708 0.0
C734 C 0.60977 0.44573 0.07524 0.0
C735 C 0.60781 0.41505 0.22769 0.0
C736 C 0.60807 0.41912 0.16109 0.0
C737 C 0.61046 0.43097 0.96792 0.0
C738 C 0.6093 0.42686 0.03444 0.0
H739 H 0.587 0.3812 0.33355 0.0
H740 H 0.58721 0.38809 0.22479 0.0
H741 H 0.60942 0.45686 0.16778 0.0
H742 H 0.63275 0.46519 0.86636 0.0
H743 H 0.63077 0.45822 0.97465 0.0
C744 C 0.12812 0.18991 0.1127 0.0
C745 C 0.12486 0.16974 0.14733 0.0
C746 C 0.12822 0.21199 0.13983 0.0
C747 C 0.13737 0.24253 0.27976 0.0
H748 H 0.10606 0.29125 0.21765 0.0
C749 C 0.13177 0.33178 0.40067 0.0
C750 C 0.128 0.35185 0.3664 0.0
C751 C 0.13129 0.30961 0.37408 0.0
C752 C 0.11518 0.27809 0.23505 0.0
H753 H 0.1194 0.15686 0.23777 0.0
H754 H 0.12022 0.19557 0.28568 0.0
H755 H 0.10562 0.25262 0.17121 0.0
H756 H 0.12114 0.36448 0.27692 0.0
H757 H 0.12124 0.32601 0.22949 0.0
H758 H 0.14763 0.26794 0.34169 0.0
C759 C 0.12244 0.19419 0.23734 0.0
C760 C 0.11477 0.25585 0.20862 0.0
C761 C 0.12191 0.1721 0.20993 0.0
C762 C 0.124 0.3493 0.3046 0.0
C763 C 0.12391 0.32714 0.27758 0.0
C764 C 0.13809 0.26489 0.30539 0.0
C765 C 0.12546 0.21435 0.20241 0.0
C766 C 0.12579 0.23784 0.23091 0.0
C767 C 0.12742 0.30688 0.312 0.0
C768 C 0.12692 0.28305 0.28371 0.0
H769 H 0.13033 0.18868 0.06432 0.0
H770 H 0.13067 0.22724 0.11197 0.0
H771 H 0.14617 0.22901 0.2973 0.0
H772 H 0.13467 0.33313 0.44863 0.0
H773 H 0.13364 0.29461 0.4028 0.0
C774 C 0.39552 0.84387 0.19241 0.0
C775 C 0.38381 0.85062 0.14535 0.0
C776 C 0.39542 0.82084 0.21412 0.0
C777 C 0.38225 0.76089 0.16766 0.0
H778 H 0.38762 0.74642 0.33812 0.0
C779 C 0.37318 0.66699 0.25933 0.0
C780 C 0.38528 0.65937 0.30428 0.0
C781 C 0.37282 0.69045 0.2414 0.0
C782 C 0.38629 0.75014 0.29026 0.0
H783 H 0.36241 0.83855 0.08574 0.0
H784 H 0.36209 0.79876 0.12394 0.0
H785 H 0.38732 0.78713 0.30515 0.0
H786 H 0.40652 0.67063 0.36559 0.0
H787 H 0.40598 0.71138 0.33403 0.0
H788 H 0.38127 0.72398 0.1526 0.0
C789 C 0.37162 0.81104 0.14334 0.0
C790 C 0.38613 0.77351 0.27136 0.0
C791 C 0.37172 0.83398 0.12169 0.0
C792 C 0.39696 0.67584 0.33101 0.0
C793 C 0.39659 0.69929 0.31313 0.0
C794 C 0.38241 0.73757 0.18652 0.0
C795 C 0.38363 0.80404 0.18924 0.0
C796 C 0.38403 0.7792 0.2098 0.0
C797 C 0.38455 0.70692 0.26795 0.0
C798 C 0.38438 0.73185 0.24808 0.0
H799 H 0.40502 0.85623 0.21164 0.0
H800 H 0.40494 0.81605 0.24925 0.0
H801 H 0.38098 0.76455 0.11975 0.0
H802 H 0.36395 0.65484 0.23784 0.0
H803 H 0.3632 0.69572 0.20705 0.0
C804 C 0.87196 0.83357 0.88851 0.0
C805 C 0.88412 0.85018 0.86514 0.0
C806 C 0.87184 0.81065 0.86677 0.0
C807 C 0.88644 0.7731 0.7389 0.0
H808 H 0.88136 0.72357 0.85744 0.0
C809 C 0.89713 0.67541 0.67909 0.0
C810 C 0.88539 0.65897 0.70562 0.0
C811 C 0.89679 0.69886 0.69704 0.0
C812 C 0.88256 0.73715 0.82358 0.0
H813 H 0.90544 0.85574 0.79927 0.0
H814 H 0.90534 0.81556 0.7615 0.0
H815 H 0.88111 0.76413 0.89041 0.0
H816 H 0.86399 0.6545 0.77178 0.0
H817 H 0.86329 0.69538 0.80269 0.0
H818 H 0.88794 0.74601 0.67208 0.0
C819 C 0.89578 0.82038 0.79647 0.0
C820 C 0.88243 0.76047 0.84251 0.0
C821 C 0.89589 0.8434 0.81827 0.0
C822 C 0.87326 0.66662 0.75045 0.0
C823 C 0.87293 0.69008 0.76844 0.0
C824 C 0.88658 0.74973 0.71993 0.0
C825 C 0.88391 0.80362 0.82108 0.0
C826 C 0.88429 0.77878 0.80045 0.0
C827 C 0.88472 0.70651 0.74209 0.0
C828 C 0.88459 0.73144 0.76203 0.0
H829 H 0.8626 0.83816 0.92431 0.0
H830 H 0.86226 0.79839 0.88595 0.0
H831 H 0.8877 0.78672 0.70517 0.0
H832 H 0.90672 0.67017 0.64462 0.0
H833 H 0.90623 0.71091 0.6763 0.0
C834 C 0.63676 0.18696 0.88511 0.0
C835 C 0.62635 0.16885 0.85978 0.0
C836 C 0.63692 0.20922 0.85905 0.0
C837 C 0.62741 0.24107 0.7168 0.0
H838 H 0.62634 0.29521 0.82237 0.0
C839 C 0.64 0.33455 0.62725 0.0
C840 C 0.62896 0.35258 0.64973 0.0
C841 C 0.63955 0.31226 0.65316 0.0
C842 C 0.62652 0.2803 0.79219 0.0
H843 H 0.60809 0.15998 0.7864 0.0
H844 H 0.60832 0.1989 0.74094 0.0
H845 H 0.62542 0.2561 0.86599 0.0
H846 H 0.60895 0.36128 0.71793 0.0
H847 H 0.60815 0.32235 0.76307 0.0
H848 H 0.62828 0.26528 0.64297 0.0
C849 C 0.61647 0.1958 0.78089 0.0
C850 C 0.62619 0.25784 0.81723 0.0
C851 C 0.61627 0.1735 0.80712 0.0
C852 C 0.61766 0.34783 0.69948 0.0
C853 C 0.61725 0.32552 0.72554 0.0
C854 C 0.6278 0.26353 0.69176 0.0
C855 C 0.62669 0.214 0.80683 0.0
C856 C 0.6267 0.23792 0.7799 0.0
C857 C 0.62809 0.30738 0.70238 0.0
C858 C 0.62742 0.28345 0.72912 0.0
H859 H 0.64474 0.18404 0.92553 0.0
H860 H 0.64519 0.22267 0.87969 0.0
H861 H 0.62796 0.22615 0.68669 0.0
H862 H 0.64892 0.33755 0.58912 0.0
H863 H 0.6483 0.29886 0.63477 0.0
loop_
_geom_bond_atom_site_label_1
_geom_bond_atom_site_label_2
_geom_bond_distance
_geom_bond_site_symmetry_2
_ccdc_geom_bond_type
Co0 N4 2.148 . S
Co0 N10 2.128 . S
Co0 N20 2.194 . S
Co0 O25 2.351 . S
Co0 O26 2.155 . S
Co0 O27 2.096 . S
C1 N4 1.301 1_556 S
C1 N5 1.328 . S
C1 H6 0.930 . S
C2 C3 1.333 . S
C2 N4 1.317 1_556 S
C2 H7 0.930 1_556 S
C3 C2 1.333 . S
C3 N5 1.350 . S
C3 H29 0.931 . S
N4 Co0 2.148 . S
N4 C1 1.301 1_554 S
N4 C2 1.317 1_554 S
N5 C1 1.328 . S
N5 C3 1.350 . S
H6 C1 0.930 . S
H7 C2 0.930 1_554 S
C8 O9 1.224 . S
C8 O27 1.247 . S
O9 C8 1.224 . S
N10 Co0 2.128 . S
N10 C11 1.355 . S
N10 C13 1.311 . S
C11 N10 1.355 . S
C11 C12 1.363 . S
C11 H23 0.929 . S
C12 C11 1.363 . S
C12 N14 1.375 . S
C12 H30 0.931 . S
C13 N10 1.311 . S
C13 N14 1.347 . S
C13 H24 0.929 . S
N14 C12 1.375 . S
N14 C13 1.347 . S
C15 C18 1.365 . S
C15 N20 1.328 . S
C15 H21 0.929 . S
C16 C17 1.362 . S
C16 C19 1.378 . S
C16 H31 0.929 . S
C17 C16 1.362 . S
C17 C18 1.366 . S
C18 C15 1.365 . S
C18 C17 1.366 . S
C18 H32 0.930 . S
C19 C16 1.378 . S
C19 N20 1.315 . S
C19 H22 0.930 . S
N20 Co0 2.194 . S
N20 C15 1.328 . S
N20 C19 1.315 . S
H21 C15 0.929 . S
H22 C19 0.930 . S
H23 C11 0.929 . S
H24 C13 0.929 . S
O25 Co0 2.351 . S
O25 C28 1.244 . S
O26 Co0 2.155 . S
O26 C28 1.240 . S
O27 Co0 2.096 . S
O27 C8 1.247 . S
C28 O25 1.244 . S
C28 O26 1.240 . S
H29 C3 0.931 . S
H30 C12 0.931 . S
H31 C16 0.929 . S
H32 C18 0.930 . S
Co33 N37 2.148 . S
Co33 N43 2.128 . S
Co33 N53 2.194 . S
Co33 O58 2.351 . S
Co33 O59 2.155 . S
Co33 O60 2.096 . S
C34 N37 1.301 1_556 S
C34 N38 1.328 . S
C34 H39 0.930 . S
C35 C36 1.333 . S
C35 N37 1.317 1_556 S
C35 H40 0.930 1_556 S
C36 C35 1.333 . S
C36 N38 1.350 . S
C36 H62 0.931 . S
N37 Co33 2.148 . S
N37 C34 1.301 1_554 S
N37 C35 1.317 1_554 S
N38 C34 1.328 . S
N38 C36 1.350 . S
H39 C34 0.930 . S
H40 C35 0.930 1_554 S
C41 O42 1.224 . S
C41 O60 1.247 . S
O42 C41 1.224 . S
N43 Co33 2.128 . S
N43 C44 1.355 . S
N43 C46 1.311 . S
C44 N43 1.355 . S
C44 C45 1.363 . S
C44 H56 0.929 . S
C45 C44 1.363 . S
C45 N47 1.375 . S
C45 H63 0.931 . S
C46 N43 1.311 . S
C46 N47 1.347 . S
C46 H57 0.929 . S
N47 C45 1.375 . S
N47 C46 1.347 . S
C48 C51 1.365 . S
C48 N53 1.328 . S
C48 H54 0.929 . S
C49 C50 1.362 . S
C49 C52 1.378 . S
C49 H64 0.929 . S
C50 C49 1.362 . S
C50 C51 1.366 . S
C51 C48 1.365 . S
C51 C50 1.366 . S
C51 H65 0.930 . S
C52 C49 1.378 . S
C52 N53 1.315 . S
C52 H55 0.930 . S
N53 Co33 2.194 . S
N53 C48 1.328 . S
N53 C52 1.315 . S
H54 C48 0.929 . S
H55 C52 0.930 . S
H56 C44 0.929 . S
H57 C46 0.929 . S
O58 Co33 2.351 . S
O58 C61 1.244 . S
O59 Co33 2.155 . S
O59 C61 1.240 . S
O60 Co33 2.096 . S
O60 C41 1.247 . S
C61 O58 1.244 . S
C61 O59 1.240 . S
H62 C36 0.931 . S
H63 C45 0.931 . S
H64 C49 0.929 . S
H65 C51 0.930 . S
Co66 N70 2.148 . S
Co66 N76 2.128 . S
Co66 N86 2.194 . S
Co66 O91 2.351 . S
Co66 O92 2.155 . S
Co66 O93 2.096 . S
C67 N70 1.301 . S
C67 N71 1.328 . S
C67 H72 0.930 . S
C68 C69 1.333 . S
C68 N70 1.317 . S
C68 H73 0.930 . S
C69 C68 1.333 . S
C69 N71 1.350 . S
C69 H95 0.931 . S
N70 Co66 2.148 . S
N70 C67 1.301 . S
N70 C68 1.317 . S
N71 C67 1.328 . S
N71 C69 1.350 . S
H72 C67 0.930 . S
H73 C68 0.930 . S
C74 O75 1.224 . S
C74 O93 1.247 . S
O75 C74 1.224 . S
N76 Co66 2.128 . S
N76 C77 1.355 . S
N76 C79 1.311 . S
C77 N76 1.355 . S
C77 C78 1.363 . S
C77 H89 0.929 . S
C78 C77 1.363 . S
C78 N80 1.375 . S
C78 H96 0.931 . S
C79 N76 1.311 . S
C79 N80 1.347 . S
C79 H90 0.929 . S
N80 C78 1.375 . S
N80 C79 1.347 . S
C81 C84 1.365 . S
C81 N86 1.328 . S
C81 H87 0.929 . S
C82 C83 1.362 . S
C82 C85 1.378 . S
C82 H97 0.929 . S
C83 C82 1.362 . S
C83 C84 1.366 . S
C84 C81 1.365 . S
C84 C83 1.366 . S
C84 H98 0.930 . S
C85 C82 1.378 . S
C85 N86 1.315 . S
C85 H88 0.930 . S
N86 Co66 2.194 . S
N86 C81 1.328 . S
N86 C85 1.315 . S
H87 C81 0.929 . S
H88 C85 0.930 . S
H89 C77 0.929 . S
H90 C79 0.929 . S
O91 Co66 2.351 . S
O91 C94 1.244 . S
O92 Co66 2.155 . S
O92 C94 1.240 . S
O93 Co66 2.096 . S
O93 C74 1.247 . S
C94 O91 1.244 . S
C94 O92 1.240 . S
H95 C69 0.931 . S
H96 C78 0.931 . S
H97 C82 0.929 . S
H98 C84 0.930 . S
Co99 N103 2.148 . S
Co99 N109 2.128 . S
Co99 N119 2.194 . S
Co99 O124 2.351 . S
Co99 O125 2.155 . S
Co99 O126 2.096 . S
C100 N103 1.301 . S
C100 N104 1.328 . S
C100 H105 0.930 . S
C101 C102 1.333 . S
C101 N103 1.317 . S
C101 H106 0.930 . S
C102 C101 1.333 . S
C102 N104 1.350 . S
C102 H128 0.931 . S
N103 Co99 2.148 . S
N103 C100 1.301 . S
N103 C101 1.317 . S
N104 C100 1.328 . S
N104 C102 1.350 . S
H105 C100 0.930 . S
H106 C101 0.930 . S
C107 O108 1.224 . S
C107 O126 1.247 . S
O108 C107 1.224 . S
N109 Co99 2.128 . S
N109 C110 1.355 . S
N109 C112 1.311 . S
C110 N109 1.355 . S
C110 C111 1.363 . S
C110 H122 0.929 . S
C111 C110 1.363 . S
C111 N113 1.375 . S
C111 H129 0.931 . S
C112 N109 1.311 . S
C112 N113 1.347 . S
C112 H123 0.929 . S
N113 C111 1.375 . S
N113 C112 1.347 . S
C114 C117 1.365 . S
C114 N119 1.328 . S
C114 H120 0.929 . S
C115 C116 1.362 . S
C115 C118 1.378 . S
C115 H130 0.929 . S
C116 C115 1.362 . S
C116 C117 1.366 . S
C117 C114 1.365 . S
C117 C116 1.366 . S
C117 H131 0.930 . S
C118 C115 1.378 . S
C118 N119 1.315 . S
C118 H121 0.930 . S
N119 Co99 2.194 . S
N119 C114 1.328 . S
N119 C118 1.315 . S
H120 C114 0.929 . S
H121 C118 0.930 . S
H122 C110 0.929 . S
H123 C112 0.929 . S
O124 Co99 2.351 . S
O124 C127 1.244 . S
O125 Co99 2.155 . S
O125 C127 1.240 . S
O126 Co99 2.096 . S
O126 C107 1.247 . S
C127 O124 1.244 . S
C127 O125 1.240 . S
H128 C102 0.931 . S
H129 C111 0.931 . S
H130 C115 0.929 . S
H131 C117 0.930 . S
Co132 N136 2.148 . S
Co132 N142 2.128 . S
Co132 N152 2.194 . S
Co132 O157 2.351 . S
Co132 O158 2.155 . S
Co132 O159 2.096 . S
C133 N136 1.301 1_554 S
C133 N137 1.328 . S
C133 H138 0.930 . S
C134 C135 1.333 . S
C134 N136 1.317 1_554 S
C134 H139 0.930 1_554 S
C135 C134 1.333 . S
C135 N137 1.350 . S
C135 H161 0.931 . S
N136 Co132 2.148 . S
N136 C133 1.301 1_556 S
N136 C134 1.317 1_556 S
N137 C133 1.328 . S
N137 C135 1.350 . S
H138 C133 0.930 . S
H139 C134 0.930 1_556 S
C140 O141 1.224 . S
C140 O159 1.247 . S
O141 C140 1.224 . S
N142 Co132 2.128 . S
N142 C143 1.355 . S
N142 C145 1.311 . S
C143 N142 1.355 . S
C143 C144 1.363 . S
C143 H155 0.929 . S
C144 C143 1.363 . S
C144 N146 1.375 . S
C144 H162 0.931 . S
C145 N142 1.311 . S
C145 N146 1.347 . S
C145 H156 0.929 . S
N146 C144 1.375 . S
N146 C145 1.347 . S
C147 C150 1.365 . S
C147 N152 1.328 . S
C147 H153 0.929 . S
C148 C149 1.362 . S
C148 C151 1.378 . S
C148 H163 0.929 . S
C149 C148 1.362 . S
C149 C150 1.366 . S
C150 C147 1.365 . S
C150 C149 1.366 . S
C150 H164 0.930 . S
C151 C148 1.378 . S
C151 N152 1.315 . S
C151 H154 0.930 . S
N152 Co132 2.194 . S
N152 C147 1.328 . S
N152 C151 1.315 . S
H153 C147 0.929 . S
H154 C151 0.930 . S
H155 C143 0.929 . S
H156 C145 0.929 . S
O157 Co132 2.351 . S
O157 C160 1.244 . S
O158 Co132 2.155 . S
O158 C160 1.240 . S
O159 Co132 2.096 . S
O159 C140 1.247 . S
C160 O157 1.244 . S
C160 O158 1.240 . S
H161 C135 0.931 . S
H162 C144 0.931 . S
H163 C148 0.929 . S
H164 C150 0.930 . S
Co165 N169 2.148 . S
Co165 N175 2.128 . S
Co165 N185 2.194 . S
Co165 O190 2.351 . S
Co165 O191 2.155 . S
Co165 O192 2.096 . S
C166 N169 1.301 1_554 S
C166 N170 1.328 . S
C166 H171 0.930 . S
C167 C168 1.333 . S
C167 N169 1.317 1_554 S
C167 H172 0.930 1_554 S
C168 C167 1.333 . S
C168 N170 1.350 . S
C168 H194 0.931 . S
N169 Co165 2.148 . S
N169 C166 1.301 1_556 S
N169 C167 1.317 1_556 S
N170 C166 1.328 . S
N170 C168 1.350 . S
H171 C166 0.930 . S
H172 C167 0.930 1_556 S
C173 O174 1.224 . S
C173 O192 1.247 . S
O174 C173 1.224 . S
N175 Co165 2.128 . S
N175 C176 1.355 . S
N175 C178 1.311 . S
C176 N175 1.355 . S
C176 C177 1.363 . S
C176 H188 0.929 . S
C177 C176 1.363 . S
C177 N179 1.375 . S
C177 H195 0.931 . S
C178 N175 1.311 . S
C178 N179 1.347 . S
C178 H189 0.929 . S
N179 C177 1.375 . S
N179 C178 1.347 . S
C180 C183 1.365 . S
C180 N185 1.328 . S
C180 H186 0.929 . S
C181 C182 1.362 . S
C181 C184 1.378 . S
C181 H196 0.929 . S
C182 C181 1.362 . S
C182 C183 1.366 . S
C183 C180 1.365 . S
C183 C182 1.366 . S
C183 H197 0.930 . S
C184 C181 1.378 . S
C184 N185 1.315 . S
C184 H187 0.930 . S
N185 Co165 2.194 . S
N185 C180 1.328 . S
N185 C184 1.315 . S
H186 C180 0.929 . S
H187 C184 0.930 . S
H188 C176 0.929 . S
H189 C178 0.929 . S
O190 Co165 2.351 . S
O190 C193 1.244 . S
O191 Co165 2.155 . S
O191 C193 1.240 . S
O192 Co165 2.096 . S
O192 C173 1.247 . S
C193 O190 1.244 . S
C193 O191 1.240 . S
H194 C168 0.931 . S
H195 C177 0.931 . S
H196 C181 0.929 . S
H197 C183 0.930 . S
Co198 N202 2.148 . S
Co198 N208 2.128 . S
Co198 N218 2.194 . S
Co198 O223 2.351 . S
Co198 O224 2.155 . S
Co198 O225 2.096 . S
C199 N202 1.301 . S
C199 N203 1.328 . S
C199 H204 0.930 . S
C200 C201 1.333 . S
C200 N202 1.317 . S
C200 H205 0.930 . S
C201 C200 1.333 . S
C201 N203 1.350 . S
C201 H227 0.931 . S
N202 Co198 2.148 . S
N202 C199 1.301 . S
N202 C200 1.317 . S
N203 C199 1.328 . S
N203 C201 1.350 . S
H204 C199 0.930 . S
H205 C200 0.930 . S
C206 O207 1.224 . S
C206 O225 1.247 . S
O207 C206 1.224 . S
N208 Co198 2.128 . S
N208 C209 1.355 . S
N208 C211 1.311 . S
C209 N208 1.355 . S
C209 C210 1.363 . S
C209 H221 0.929 . S
C210 C209 1.363 . S
C210 N212 1.375 . S
C210 H228 0.931 . S
C211 N208 1.311 . S
C211 N212 1.347 . S
C211 H222 0.929 . S
N212 C210 1.375 . S
N212 C211 1.347 . S
C213 C216 1.365 . S
C213 N218 1.328 . S
C213 H219 0.929 . S
C214 C215 1.362 . S
C214 C217 1.378 . S
C214 H229 0.929 . S
C215 C214 1.362 . S
C215 C216 1.366 . S
C216 C213 1.365 . S
C216 C215 1.366 . S
C216 H230 0.930 . S
C217 C214 1.378 . S
C217 N218 1.315 . S
C217 H220 0.930 . S
N218 Co198 2.194 . S
N218 C213 1.328 . S
N218 C217 1.315 . S
H219 C213 0.929 . S
H220 C217 0.930 . S
H221 C209 0.929 . S
H222 C211 0.929 . S
O223 Co198 2.351 . S
O223 C226 1.244 . S
O224 Co198 2.155 . S
O224 C226 1.240 . S
O225 Co198 2.096 . S
O225 C206 1.247 . S
C226 O223 1.244 . S
C226 O224 1.240 . S
H227 C201 0.931 . S
H228 C210 0.931 . S
H229 C214 0.929 . S
H230 C216 0.930 . S
Co231 N235 2.148 . S
Co231 N241 2.128 . S
Co231 N251 2.194 . S
Co231 O256 2.351 . S
Co231 O257 2.155 . S
Co231 O258 2.096 . S
C232 N235 1.301 . S
C232 N236 1.328 . S
C232 H237 0.930 . S
C233 C234 1.333 . S
C233 N235 1.317 . S
C233 H238 0.930 . S
C234 C233 1.333 . S
C234 N236 1.350 . S
C234 H260 0.931 . S
N235 Co231 2.148 . S
N235 C232 1.301 . S
N235 C233 1.317 . S
N236 C232 1.328 . S
N236 C234 1.350 . S
H237 C232 0.930 . S
H238 C233 0.930 . S
C239 O240 1.224 . S
C239 O258 1.247 . S
O240 C239 1.224 . S
N241 Co231 2.128 . S
N241 C242 1.355 . S
N241 C244 1.311 . S
C242 N241 1.355 . S
C242 C243 1.363 . S
C242 H254 0.929 . S
C243 C242 1.363 . S
C243 N245 1.375 . S
C243 H261 0.931 . S
C244 N241 1.311 . S
C244 N245 1.347 . S
C244 H255 0.929 . S
N245 C243 1.375 . S
N245 C244 1.347 . S
C246 C249 1.365 . S
C246 N251 1.328 . S
C246 H252 0.929 . S
C247 C248 1.362 . S
C247 C250 1.378 . S
C247 H262 0.929 . S
C248 C247 1.362 . S
C248 C249 1.366 . S
C249 C246 1.365 . S
C249 C248 1.366 . S
C249 H263 0.930 . S
C250 C247 1.378 . S
C250 N251 1.315 . S
C250 H253 0.930 . S
N251 Co231 2.194 . S
N251 C246 1.328 . S
N251 C250 1.315 . S
H252 C246 0.929 . S
H253 C250 0.930 . S
H254 C242 0.929 . S
H255 C244 0.929 . S
O256 Co231 2.351 . S
O256 C259 1.244 . S
O257 Co231 2.155 . S
O257 C259 1.240 . S
O258 Co231 2.096 . S
O258 C239 1.247 . S
C259 O256 1.244 . S
C259 O257 1.240 . S
H260 C234 0.931 . S
H261 C243 0.931 . S
H262 C247 0.929 . S
H263 C249 0.930 . S
C264 C265 1.349 . S
C264 C266 1.327 . S
C264 H289 0.950 . S
C265 C264 1.349 . S
C265 C281 1.349 . S
C266 C264 1.327 . S
C266 C285 1.429 . S
C266 H290 0.950 . S
C267 C284 1.574 . S
C267 C286 1.368 . S
C267 H291 0.949 . S
H268 C272 0.949 . S
C269 C270 1.349 . S
C269 C271 1.327 . S
C269 H292 0.950 . S
C270 C269 1.349 . S
C270 C282 1.349 . S
C271 C269 1.327 . S
C271 C287 1.429 . S
C271 H293 0.950 . S
C272 H268 0.949 . S
C272 C280 1.574 . S
C272 C288 1.368 . S
H273 C281 0.950 . S
H274 C279 0.950 . S
H275 C280 0.949 . S
H276 C282 0.950 . S
H277 C283 0.950 . S
H278 C284 0.949 . S
C279 H274 0.950 . S
C279 C281 1.327 . S
C279 C285 1.429 . S
C280 C272 1.574 . S
C280 H275 0.949 . S
C280 C286 1.368 1_545 S
C281 C265 1.349 . S
C281 H273 0.950 . S
C281 C279 1.327 . S
C282 C270 1.349 . S
C282 H276 0.950 . S
C282 C283 1.327 . S
C283 H277 0.950 . S
C283 C282 1.327 . S
C283 C287 1.429 . S
C284 C267 1.574 . S
C284 H278 0.949 . S
C284 C288 1.368 1_565 S
C285 C266 1.429 . S
C285 C279 1.429 . S
C285 C286 1.523 . S
C286 C267 1.368 . S
C286 C280 1.368 1_565 S
C286 C285 1.523 . S
C287 C271 1.429 . S
C287 C283 1.429 . S
C287 C288 1.523 . S
C288 C272 1.368 . S
C288 C284 1.368 1_545 S
C288 C287 1.523 . S
H289 C264 0.950 . S
H290 C266 0.950 . S
H291 C267 0.949 . S
H292 C269 0.950 . S
H293 C271 0.950 . S
C294 C295 1.349 . S
C294 C296 1.327 . S
C294 H319 0.950 . S
C295 C294 1.349 . S
C295 C311 1.349 . S
C296 C294 1.327 . S
C296 C315 1.429 . S
C296 H320 0.950 . S
C297 C314 1.574 . S
C297 C316 1.368 . S
C297 H321 0.949 . S
H298 C302 0.949 . S
C299 C300 1.349 . S
C299 C301 1.327 . S
C299 H322 0.950 . S
C300 C299 1.349 . S
C300 C312 1.349 . S
C301 C299 1.327 . S
C301 C317 1.429 . S
C301 H323 0.950 . S
C302 H298 0.949 . S
C302 C310 1.574 . S
C302 C318 1.368 . S
H303 C311 0.950 . S
H304 C309 0.950 . S
H305 C310 0.949 . S
H306 C312 0.950 . S
H307 C313 0.950 . S
H308 C314 0.949 . S
C309 H304 0.950 . S
C309 C311 1.327 . S
C309 C315 1.429 . S
C310 C302 1.574 . S
C310 H305 0.949 . S
C310 C316 1.368 . S
C311 C295 1.349 . S
C311 H303 0.950 . S
C311 C309 1.327 . S
C312 C300 1.349 . S
C312 H306 0.950 . S
C312 C313 1.327 . S
C313 H307 0.950 . S
C313 C312 1.327 . S
C313 C317 1.429 . S
C314 C297 1.574 . S
C314 H308 0.949 . S
C314 C318 1.368 . S
C315 C296 1.429 . S
C315 C309 1.429 . S
C315 C316 1.523 . S
C316 C297 1.368 . S
C316 C310 1.368 . S
C316 C315 1.523 . S
C317 C301 1.429 . S
C317 C313 1.429 . S
C317 C318 1.523 . S
C318 C302 1.368 . S
C318 C314 1.368 . S
C318 C317 1.523 . S
H319 C294 0.950 . S
H320 C296 0.950 . S
H321 C297 0.949 . S
H322 C299 0.950 . S
H323 C301 0.950 . S
C324 C325 1.349 . S
C324 C326 1.327 . S
C324 H349 0.950 . S
C325 C324 1.349 . S
C325 C341 1.349 . S
C326 C324 1.327 . S
C326 C345 1.429 . S
C326 H350 0.950 . S
C327 C344 1.574 . S
C327 C346 1.368 . S
C327 H351 0.949 . S
H328 C332 0.949 . S
C329 C330 1.349 . S
C329 C331 1.327 . S
C329 H352 0.950 . S
C330 C329 1.349 . S
C330 C342 1.349 . S
C331 C329 1.327 . S
C331 C347 1.429 . S
C331 H353 0.950 . S
C332 H328 0.949 . S
C332 C340 1.574 . S
C332 C348 1.368 . S
H333 C341 0.950 . S
H334 C339 0.950 . S
H335 C340 0.949 . S
H336 C342 0.950 . S
H337 C343 0.950 . S
H338 C344 0.949 . S
C339 H334 0.950 . S
C339 C341 1.327 . S
C339 C345 1.429 . S
C340 C332 1.574 . S
C340 H335 0.949 . S
C340 C346 1.368 1_565 S
C341 C325 1.349 . S
C341 H333 0.950 . S
C341 C339 1.327 . S
C342 C330 1.349 . S
C342 H336 0.950 . S
C342 C343 1.327 . S
C343 H337 0.950 . S
C343 C342 1.327 . S
C343 C347 1.429 . S
C344 C327 1.574 . S
C344 H338 0.949 . S
C344 C348 1.368 1_545 S
C345 C326 1.429 . S
C345 C339 1.429 . S
C345 C346 1.523 . S
C346 C327 1.368 . S
C346 C340 1.368 1_545 S
C346 C345 1.523 . S
C347 C331 1.429 . S
C347 C343 1.429 . S
C347 C348 1.523 . S
C348 C332 1.368 . S
C348 C344 1.368 1_565 S
C348 C347 1.523 . S
H349 C324 0.950 . S
H350 C326 0.950 . S
H351 C327 0.949 . S
H352 C329 0.950 . S
H353 C331 0.950 . S
C354 C355 1.349 . S
C354 C356 1.327 . S
C354 H379 0.950 . S
C355 C354 1.349 . S
C355 C371 1.349 . S
C356 C354 1.327 . S
C356 C375 1.429 . S
C356 H380 0.950 . S
C357 C374 1.574 . S
C357 C376 1.368 . S
C357 H381 0.949 . S
H358 C362 0.949 . S
C359 C360 1.349 . S
C359 C361 1.327 . S
C359 H382 0.950 . S
C360 C359 1.349 . S
C360 C372 1.349 . S
C361 C359 1.327 . S
C361 C377 1.429 . S
C361 H383 0.950 . S
C362 H358 0.949 . S
C362 C370 1.574 . S
C362 C378 1.368 . S
H363 C371 0.950 . S
H364 C369 0.950 . S
H365 C370 0.949 . S
H366 C372 0.950 . S
H367 C373 0.950 . S
H368 C374 0.949 . S
C369 H364 0.950 . S
C369 C371 1.327 . S
C369 C375 1.429 . S
C370 C362 1.574 . S
C370 H365 0.949 . S
C370 C376 1.368 . S
C371 C355 1.349 . S
C371 H363 0.950 . S
C371 C369 1.327 . S
C372 C360 1.349 . S
C372 H366 0.950 . S
C372 C373 1.327 . S
C373 H367 0.950 . S
C373 C372 1.327 . S
C373 C377 1.429 . S
C374 C357 1.574 . S
C374 H368 0.949 . S
C374 C378 1.368 . S
C375 C356 1.429 . S
C375 C369 1.429 . S
C375 C376 1.523 . S
C376 C357 1.368 . S
C376 C370 1.368 . S
C376 C375 1.523 . S
C377 C361 1.429 . S
C377 C373 1.429 . S
C377 C378 1.523 . S
C378 C362 1.368 . S
C378 C374 1.368 . S
C378 C377 1.523 . S
H379 C354 0.950 . S
H380 C356 0.950 . S
H381 C357 0.949 . S
H382 C359 0.950 . S
H383 C361 0.950 . S
C384 C385 1.349 . S
C384 C386 1.327 . S
C384 H409 0.950 . S
C385 C384 1.349 . S
C385 C401 1.349 . S
C386 C384 1.327 . S
C386 C405 1.429 . S
C386 H410 0.950 1_556 S
C387 C404 1.574 1_655 S
C387 C406 1.368 1_545 S
C387 H411 0.949 . S
H388 C392 0.949 . S
C389 C390 1.349 . S
C389 C391 1.327 . S
C389 H412 0.950 . S
C390 C389 1.349 . S
C390 C402 1.349 . S
C391 C389 1.327 . S
C391 C407 1.429 . S
C391 H413 0.950 1_554 S
C392 H388 0.949 . S
C392 C400 1.574 1_455 S
C392 C408 1.368 1_565 S
H393 C401 0.950 . S
H394 C399 0.944 1_545 S
H395 C400 0.949 . S
H396 C402 0.950 . S
H397 C403 0.944 1_565 S
H398 C404 0.949 . S
C399 H394 0.944 1_565 S
C399 C401 1.327 . S
C399 C405 1.429 . S
C400 C392 1.574 1_655 S
C400 H395 0.949 . S
C400 C406 1.368 1_554 S
C401 C385 1.349 . S
C401 H393 0.950 . S
C401 C399 1.327 . S
C402 C390 1.349 . S
C402 H396 0.950 . S
C402 C403 1.327 . S
C403 H397 0.944 1_545 S
C403 C402 1.327 . S
C403 C407 1.429 . S
C404 C387 1.574 1_455 S
C404 H398 0.949 . S
C404 C408 1.368 1_556 S
C405 C386 1.429 . S
C405 C399 1.429 . S
C405 C406 1.523 . S
C406 C387 1.368 1_565 S
C406 C400 1.368 1_556 S
C406 C405 1.523 . S
C407 C391 1.429 . S
C407 C403 1.429 . S
C407 C408 1.523 . S
C408 C392 1.368 1_545 S
C408 C404 1.368 1_554 S
C408 C407 1.523 . S
H409 C384 0.950 . S
H410 C386 0.950 1_554 S
H411 C387 0.949 . S
H412 C389 0.950 . S
H413 C391 0.950 1_556 S
C414 C415 1.349 . S
C414 C416 1.327 . S
C414 H439 0.950 . S
C415 C414 1.349 . S
C415 C431 1.349 . S
C416 C414 1.327 . S
C416 C435 1.429 . S
C416 H440 0.950 . S
C417 C434 1.574 1_554 S
C417 C436 1.368 1_545 S
C417 H441 0.949 . S
H418 C422 0.949 . S
C419 C420 1.349 . S
C419 C421 1.327 . S
C419 H442 0.950 . S
C420 C419 1.349 . S
C420 C432 1.349 . S
C421 C419 1.327 . S
C421 C437 1.429 . S
C421 H443 0.950 . S
C422 H418 0.949 . S
C422 C430 1.574 1_556 S
C422 C438 1.368 1_565 S
H423 C431 0.950 . S
H424 C429 0.950 1_545 S
H425 C430 0.949 . S
H426 C432 0.950 . S
H427 C433 0.950 1_565 S
H428 C434 0.949 . S
C429 H424 0.950 1_565 S
C429 C431 1.327 . S
C429 C435 1.429 . S
C430 C422 1.574 1_554 S
C430 H425 0.949 . S
C430 C436 1.368 . S
C431 C415 1.349 . S
C431 H423 0.950 . S
C431 C429 1.327 . S
C432 C420 1.349 . S
C432 H426 0.950 . S
C432 C433 1.327 . S
C433 H427 0.950 1_545 S
C433 C432 1.327 . S
C433 C437 1.429 . S
C434 C417 1.574 1_556 S
C434 H428 0.949 . S
C434 C438 1.368 . S
C435 C416 1.429 . S
C435 C429 1.429 . S
C435 C436 1.523 . S
C436 C417 1.368 1_565 S
C436 C430 1.368 . S
C436 C435 1.523 . S
C437 C421 1.429 . S
C437 C433 1.429 . S
C437 C438 1.523 . S
C438 C422 1.368 1_545 S
C438 C434 1.368 . S
C438 C437 1.523 . S
H439 C414 0.950 . S
H440 C416 0.950 . S
H441 C417 0.949 . S
H442 C419 0.950 . S
H443 C421 0.950 . S
C444 C445 1.349 . S
C444 C446 1.327 . S
C444 H469 0.950 . S
C445 C444 1.349 . S
C445 C461 1.349 . S
C446 C444 1.327 . S
C446 C465 1.429 . S
C446 H470 0.950 . S
C447 C464 1.574 1_455 S
C447 C466 1.368 . S
C447 H471 0.949 . S
H448 C452 0.949 . S
C449 C450 1.349 . S
C449 C451 1.327 . S
C449 H472 0.950 . S
C450 C449 1.349 . S
C450 C462 1.349 . S
C451 C449 1.327 . S
C451 C467 1.429 . S
C451 H473 0.950 . S
C452 H448 0.949 . S
C452 C460 1.574 1_655 S
C452 C468 1.368 . S
H453 C461 0.950 . S
H454 C459 0.950 . S
H455 C460 0.949 . S
H456 C462 0.950 . S
H457 C463 0.950 . S
H458 C464 0.949 . S
C459 H454 0.950 . S
C459 C461 1.327 . S
C459 C465 1.429 . S
C460 C452 1.574 1_455 S
C460 H455 0.949 . S
C460 C466 1.368 . S
C461 C445 1.349 . S
C461 H453 0.950 . S
C461 C459 1.327 . S
C462 C450 1.349 . S
C462 H456 0.950 . S
C462 C463 1.327 . S
C463 H457 0.950 . S
C463 C462 1.327 . S
C463 C467 1.429 . S
C464 C447 1.574 1_655 S
C464 H458 0.949 . S
C464 C468 1.368 . S
C465 C446 1.429 . S
C465 C459 1.429 . S
C465 C466 1.523 . S
C466 C447 1.368 . S
C466 C460 1.368 . S
C466 C465 1.523 . S
C467 C451 1.429 . S
C467 C463 1.429 . S
C467 C468 1.523 . S
C468 C452 1.368 . S
C468 C464 1.368 . S
C468 C467 1.523 . S
H469 C444 0.950 . S
H470 C446 0.950 . S
H471 C447 0.949 . S
H472 C449 0.950 . S
H473 C451 0.950 . S
C474 C475 1.349 . S
C474 C476 1.327 . S
C474 H499 0.950 . S
C475 C474 1.349 . S
C475 C491 1.349 . S
C476 C474 1.327 . S
C476 C495 1.429 . S
C476 H500 0.950 . S
C477 C494 1.574 . S
C477 C496 1.368 . S
C477 H501 0.949 . S
H478 C482 0.949 . S
C479 C480 1.349 . S
C479 C481 1.327 . S
C479 H502 0.950 . S
C480 C479 1.349 . S
C480 C492 1.349 . S
C481 C479 1.327 . S
C481 C497 1.429 . S
C481 H503 0.950 . S
C482 H478 0.949 . S
C482 C490 1.574 . S
C482 C498 1.368 . S
H483 C491 0.950 . S
H484 C489 0.950 . S
H485 C490 0.949 . S
H486 C492 0.950 . S
H487 C493 0.950 . S
H488 C494 0.949 . S
C489 H484 0.950 . S
C489 C491 1.327 . S
C489 C495 1.429 . S
C490 C482 1.574 . S
C490 H485 0.949 . S
C490 C496 1.368 . S
C491 C475 1.349 . S
C491 H483 0.950 . S
C491 C489 1.327 . S
C492 C480 1.349 . S
C492 H486 0.950 . S
C492 C493 1.327 . S
C493 H487 0.950 . S
C493 C492 1.327 . S
C493 C497 1.429 . S
C494 C477 1.574 . S
C494 H488 0.949 . S
C494 C498 1.368 . S
C495 C476 1.429 . S
C495 C489 1.429 . S
C495 C496 1.523 . S
C496 C477 1.368 . S
C496 C490 1.368 . S
C496 C495 1.523 . S
C497 C481 1.429 . S
C497 C493 1.429 . S
C497 C498 1.523 . S
C498 C482 1.368 . S
C498 C494 1.368 . S
C498 C497 1.523 . S
H499 C474 0.950 . S
H500 C476 0.950 . S
H501 C477 0.949 . S
H502 C479 0.950 . S
H503 C481 0.950 . S
C504 C505 1.349 . S
C504 C506 1.327 . S
C504 H529 0.950 . S
C505 C504 1.349 . S
C505 C521 1.349 . S
C506 C504 1.327 . S
C506 C525 1.429 . S
C506 H530 0.950 . S
C507 C524 1.574 . S
C507 C526 1.368 . S
C507 H531 0.949 . S
H508 C512 0.949 . S
C509 C510 1.349 . S
C509 C511 1.327 . S
C509 H532 0.950 . S
C510 C509 1.349 . S
C510 C522 1.349 . S
C511 C509 1.327 . S
C511 C527 1.429 . S
C511 H533 0.950 . S
C512 H508 0.949 . S
C512 C520 1.574 . S
C512 C528 1.368 . S
H513 C521 0.950 . S
H514 C519 0.950 . S
H515 C520 0.949 . S
H516 C522 0.950 . S
H517 C523 0.950 . S
H518 C524 0.949 . S
C519 H514 0.950 . S
C519 C521 1.327 . S
C519 C525 1.429 . S
C520 C512 1.574 . S
C520 H515 0.949 . S
C520 C526 1.368 . S
C521 C505 1.349 . S
C521 H513 0.950 . S
C521 C519 1.327 . S
C522 C510 1.349 . S
C522 H516 0.950 . S
C522 C523 1.327 . S
C523 H517 0.950 . S
C523 C522 1.327 . S
C523 C527 1.429 . S
C524 C507 1.574 . S
C524 H518 0.949 . S
C524 C528 1.368 . S
C525 C506 1.429 . S
C525 C519 1.429 . S
C525 C526 1.523 . S
C526 C507 1.368 . S
C526 C520 1.368 . S
C526 C525 1.523 . S
C527 C511 1.429 . S
C527 C523 1.429 . S
C527 C528 1.523 . S
C528 C512 1.368 . S
C528 C524 1.368 . S
C528 C527 1.523 . S
H529 C504 0.950 . S
H530 C506 0.950 . S
H531 C507 0.949 . S
H532 C509 0.950 . S
H533 C511 0.950 . S
C534 C535 1.349 . S
C534 C536 1.327 . S
C534 H559 0.950 . S
C535 C534 1.349 . S
C535 C551 1.349 . S
C536 C534 1.327 . S
C536 C555 1.429 . S
C536 H560 0.950 . S
C537 C554 1.574 . S
C537 C556 1.368 . S
C537 H561 0.949 . S
H538 C542 0.949 . S
C539 C540 1.349 . S
C539 C541 1.327 . S
C539 H562 0.950 . S
C540 C539 1.349 . S
C540 C552 1.349 . S
C541 C539 1.327 . S
C541 C557 1.429 . S
C541 H563 0.950 . S
C542 H538 0.949 . S
C542 C550 1.574 . S
C542 C558 1.368 . S
H543 C551 0.950 . S
H544 C549 0.950 . S
H545 C550 0.949 . S
H546 C552 0.950 . S
H547 C553 0.950 . S
H548 C554 0.949 . S
C549 H544 0.950 . S
C549 C551 1.327 . S
C549 C555 1.429 . S
C550 C542 1.574 . S
C550 H545 0.949 . S
C550 C556 1.368 . S
C551 C535 1.349 . S
C551 H543 0.950 . S
C551 C549 1.327 . S
C552 C540 1.349 . S
C552 H546 0.950 . S
C552 C553 1.327 . S
C553 H547 0.950 . S
C553 C552 1.327 . S
C553 C557 1.429 . S
C554 C537 1.574 . S
C554 H548 0.949 . S
C554 C558 1.368 . S
C555 C536 1.429 . S
C555 C549 1.429 . S
C555 C556 1.523 . S
C556 C537 1.368 . S
C556 C550 1.368 . S
C556 C555 1.523 . S
C557 C541 1.429 . S
C557 C553 1.429 . S
C557 C558 1.523 . S
C558 C542 1.368 . S
C558 C554 1.368 . S
C558 C557 1.523 . S
H559 C534 0.950 . S
H560 C536 0.950 . S
H561 C537 0.949 . S
H562 C539 0.950 . S
H563 C541 0.950 . S
C564 C565 1.349 . S
C564 C566 1.327 . S
C564 H589 0.950 . S
C565 C564 1.349 . S
C565 C581 1.349 . S
C566 C564 1.327 . S
C566 C585 1.429 . S
C566 H590 0.950 . S
C567 C584 1.574 . S
C567 C586 1.368 . S
C567 H591 0.949 . S
H568 C572 0.949 . S
C569 C570 1.349 . S
C569 C571 1.327 . S
C569 H592 0.950 . S
C570 C569 1.349 . S
C570 C582 1.349 . S
C571 C569 1.327 . S
C571 C587 1.429 . S
C571 H593 0.950 . S
C572 H568 0.949 . S
C572 C580 1.574 . S
C572 C588 1.368 . S
H573 C581 0.950 . S
H574 C579 0.950 . S
H575 C580 0.949 . S
H576 C582 0.950 . S
H577 C583 0.950 . S
H578 C584 0.949 . S
C579 H574 0.950 . S
C579 C581 1.327 . S
C579 C585 1.429 . S
C580 C572 1.574 . S
C580 H575 0.949 . S
C580 C586 1.368 . S
C581 C565 1.349 . S
C581 H573 0.950 . S
C581 C579 1.327 . S
C582 C570 1.349 . S
C582 H576 0.950 . S
C582 C583 1.327 . S
C583 H577 0.950 . S
C583 C582 1.327 . S
C583 C587 1.429 . S
C584 C567 1.574 . S
C584 H578 0.949 . S
C584 C588 1.368 . S
C585 C566 1.429 . S
C585 C579 1.429 . S
C585 C586 1.523 . S
C586 C567 1.368 . S
C586 C580 1.368 . S
C586 C585 1.523 . S
C587 C571 1.429 . S
C587 C583 1.429 . S
C587 C588 1.523 1_554 S
C588 C572 1.368 . S
C588 C584 1.368 . S
C588 C587 1.523 1_556 S
H589 C564 0.950 . S
H590 C566 0.950 . S
H591 C567 0.949 . S
H592 C569 0.950 . S
H593 C571 0.950 . S
C594 C595 1.349 . S
C594 C596 1.327 . S
C594 H619 0.950 . S
C595 C594 1.349 . S
C595 C611 1.349 . S
C596 C594 1.327 . S
C596 C615 1.429 . S
C596 H620 0.950 . S
C597 C614 1.574 . S
C597 C616 1.368 . S
C597 H621 0.949 . S
H598 C602 0.949 . S
C599 C600 1.349 . S
C599 C601 1.327 . S
C599 H622 0.950 . S
C600 C599 1.349 . S
C600 C612 1.349 . S
C601 C599 1.327 . S
C601 C617 1.429 . S
C601 H623 0.950 . S
C602 H598 0.949 . S
C602 C610 1.574 . S
C602 C618 1.368 . S
H603 C611 0.950 . S
H604 C609 0.950 . S
H605 C610 0.949 . S
H606 C612 0.950 . S
H607 C613 0.950 . S
H608 C614 0.949 . S
C609 H604 0.950 . S
C609 C611 1.327 . S
C609 C615 1.429 . S
C610 C602 1.574 . S
C610 H605 0.949 . S
C610 C616 1.368 . S
C611 C595 1.349 . S
C611 H603 0.950 . S
C611 C609 1.327 . S
C612 C600 1.349 . S
C612 H606 0.950 . S
C612 C613 1.327 . S
C613 H607 0.950 . S
C613 C612 1.327 . S
C613 C617 1.429 . S
C614 C597 1.574 . S
C614 H608 0.949 . S
C614 C618 1.368 . S
C615 C596 1.429 . S
C615 C609 1.429 . S
C615 C616 1.523 1_554 S
C616 C597 1.368 . S
C616 C610 1.368 . S
C616 C615 1.523 1_556 S
C617 C601 1.429 . S
C617 C613 1.429 . S
C617 C618 1.523 . S
C618 C602 1.368 . S
C618 C614 1.368 . S
C618 C617 1.523 . S
H619 C594 0.950 . S
H620 C596 0.950 . S
H621 C597 0.949 . S
H622 C599 0.950 . S
H623 C601 0.950 . S
C624 C625 1.349 . S
C624 C626 1.327 . S
C624 H649 0.950 . S
C625 C624 1.349 . S
C625 C641 1.349 . S
C626 C624 1.327 . S
C626 C645 1.429 . S
C626 H650 0.950 . S
C627 C644 1.574 . S
C627 C646 1.368 . S
C627 H651 0.949 . S
H628 C632 0.949 . S
C629 C630 1.349 . S
C629 C631 1.327 . S
C629 H652 0.950 . S
C630 C629 1.349 . S
C630 C642 1.349 . S
C631 C629 1.327 . S
C631 C647 1.429 . S
C631 H653 0.950 . S
C632 H628 0.949 . S
C632 C640 1.574 . S
C632 C648 1.368 . S
H633 C641 0.950 . S
H634 C639 0.950 . S
H635 C640 0.949 . S
H636 C642 0.950 . S
H637 C643 0.950 . S
H638 C644 0.949 . S
C639 H634 0.950 . S
C639 C641 1.327 . S
C639 C645 1.429 . S
C640 C632 1.574 . S
C640 H635 0.949 . S
C640 C646 1.368 . S
C641 C625 1.349 . S
C641 H633 0.950 . S
C641 C639 1.327 . S
C642 C630 1.349 . S
C642 H636 0.950 . S
C642 C643 1.327 . S
C643 H637 0.950 . S
C643 C642 1.327 . S
C643 C647 1.429 . S
C644 C627 1.574 . S
C644 H638 0.949 . S
C644 C648 1.368 . S
C645 C626 1.429 . S
C645 C639 1.429 . S
C645 C646 1.523 . S
C646 C627 1.368 . S
C646 C640 1.368 . S
C646 C645 1.523 . S
C647 C631 1.429 . S
C647 C643 1.429 . S
C647 C648 1.523 . S
C648 C632 1.368 . S
C648 C644 1.368 . S
C648 C647 1.523 . S
H649 C624 0.950 . S
H650 C626 0.950 . S
H651 C627 0.949 . S
H652 C629 0.950 . S
H653 C631 0.950 . S
C654 C655 1.349 . S
C654 C656 1.327 . S
C654 H679 0.950 . S
C655 C654 1.349 . S
C655 C671 1.349 . S
C656 C654 1.327 . S
C656 C675 1.429 . S
C656 H680 0.950 . S
C657 C674 1.574 . S
C657 C676 1.368 . S
C657 H681 0.949 . S
H658 C662 0.949 . S
C659 C660 1.349 . S
C659 C661 1.327 . S
C659 H682 0.950 . S
C660 C659 1.349 . S
C660 C672 1.349 . S
C661 C659 1.327 . S
C661 C677 1.429 . S
C661 H683 0.950 . S
C662 H658 0.949 . S
C662 C670 1.574 . S
C662 C678 1.368 . S
H663 C671 0.950 . S
H664 C669 0.950 . S
H665 C670 0.949 . S
H666 C672 0.950 . S
H667 C673 0.950 . S
H668 C674 0.949 . S
C669 H664 0.950 . S
C669 C671 1.327 . S
C669 C675 1.429 . S
C670 C662 1.574 . S
C670 H665 0.949 . S
C670 C676 1.368 . S
C671 C655 1.349 . S
C671 H663 0.950 . S
C671 C669 1.327 . S
C672 C660 1.349 . S
C672 H666 0.950 . S
C672 C673 1.327 . S
C673 H667 0.950 . S
C673 C672 1.327 . S
C673 C677 1.429 . S
C674 C657 1.574 . S
C674 H668 0.949 . S
C674 C678 1.368 . S
C675 C656 1.429 . S
C675 C669 1.429 . S
C675 C676 1.523 . S
C676 C657 1.368 . S
C676 C670 1.368 . S
C676 C675 1.523 . S
C677 C661 1.429 . S
C677 C673 1.429 . S
C677 C678 1.523 . S
C678 C662 1.368 . S
C678 C674 1.368 . S
C678 C677 1.523 . S
H679 C654 0.950 . S
H680 C656 0.950 . S
H681 C657 0.949 . S
H682 C659 0.950 . S
H683 C661 0.950 . S
C684 C685 1.349 . S
C684 C686 1.327 . S
C684 H709 0.950 . S
C685 C684 1.349 . S
C685 C701 1.349 . S
C686 C684 1.327 . S
C686 C705 1.429 . S
C686 H710 0.950 . S
C687 C704 1.574 . S
C687 C706 1.368 . S
C687 H711 0.949 . S
H688 C692 0.949 . S
C689 C690 1.349 . S
C689 C691 1.327 . S
C689 H712 0.950 . S
C690 C689 1.349 . S
C690 C702 1.349 . S
C691 C689 1.327 . S
C691 C707 1.429 . S
C691 H713 0.950 . S
C692 H688 0.949 . S
C692 C700 1.574 . S
C692 C708 1.368 . S
H693 C701 0.950 . S
H694 C699 0.950 . S
H695 C700 0.949 . S
H696 C702 0.950 . S
H697 C703 0.950 . S
H698 C704 0.949 . S
C699 H694 0.950 . S
C699 C701 1.327 . S
C699 C705 1.429 . S
C700 C692 1.574 . S
C700 H695 0.949 . S
C700 C706 1.368 . S
C701 C685 1.349 . S
C701 H693 0.950 . S
C701 C699 1.327 . S
C702 C690 1.349 . S
C702 H696 0.950 . S
C702 C703 1.327 . S
C703 H697 0.950 . S
C703 C702 1.327 . S
C703 C707 1.429 . S
C704 C687 1.574 . S
C704 H698 0.949 . S
C704 C708 1.368 . S
C705 C686 1.429 . S
C705 C699 1.429 . S
C705 C706 1.523 . S
C706 C687 1.368 . S
C706 C700 1.368 . S
C706 C705 1.523 . S
C707 C691 1.429 . S
C707 C703 1.429 . S
C707 C708 1.523 1_556 S
C708 C692 1.368 . S
C708 C704 1.368 . S
C708 C707 1.523 1_554 S
H709 C684 0.950 . S
H710 C686 0.950 . S
H711 C687 0.949 . S
H712 C689 0.950 . S
H713 C691 0.950 . S
C714 C715 1.349 . S
C714 C716 1.327 . S
C714 H739 0.950 . S
C715 C714 1.349 . S
C715 C731 1.349 . S
C716 C714 1.327 . S
C716 C735 1.429 . S
C716 H740 0.950 . S
C717 C734 1.574 . S
C717 C736 1.368 . S
C717 H741 0.949 . S
H718 C722 0.949 . S
C719 C720 1.349 . S
C719 C721 1.327 . S
C719 H742 0.950 . S
C720 C719 1.349 . S
C720 C732 1.349 . S
C721 C719 1.327 . S
C721 C737 1.429 . S
C721 H743 0.950 . S
C722 H718 0.949 . S
C722 C730 1.574 . S
C722 C738 1.368 . S
H723 C731 0.950 . S
H724 C729 0.950 . S
H725 C730 0.949 . S
H726 C732 0.950 . S
H727 C733 0.950 . S
H728 C734 0.949 . S
C729 H724 0.950 . S
C729 C731 1.327 . S
C729 C735 1.429 . S
C730 C722 1.574 . S
C730 H725 0.949 . S
C730 C736 1.368 . S
C731 C715 1.349 . S
C731 H723 0.950 . S
C731 C729 1.327 . S
C732 C720 1.349 . S
C732 H726 0.950 . S
C732 C733 1.327 . S
C733 H727 0.950 . S
C733 C732 1.327 . S
C733 C737 1.429 . S
C734 C717 1.574 . S
C734 H728 0.949 . S
C734 C738 1.368 . S
C735 C716 1.429 . S
C735 C729 1.429 . S
C735 C736 1.523 . S
C736 C717 1.368 . S
C736 C730 1.368 . S
C736 C735 1.523 . S
C737 C721 1.429 . S
C737 C733 1.429 . S
C737 C738 1.523 1_556 S
C738 C722 1.368 . S
C738 C734 1.368 . S
C738 C737 1.523 1_554 S
H739 C714 0.950 . S
H740 C716 0.950 . S
H741 C717 0.949 . S
H742 C719 0.950 . S
H743 C721 0.950 . S
C744 C745 1.349 . S
C744 C746 1.327 . S
C744 H769 0.950 . S
C745 C744 1.349 . S
C745 C761 1.349 . S
C746 C744 1.327 . S
C746 C765 1.429 . S
C746 H770 0.950 . S
C747 C764 1.574 . S
C747 C766 1.368 . S
C747 H771 0.949 . S
H748 C752 0.949 . S
C749 C750 1.349 . S
C749 C751 1.327 . S
C749 H772 0.950 . S
C750 C749 1.349 . S
C750 C762 1.349 . S
C751 C749 1.327 . S
C751 C767 1.429 . S
C751 H773 0.950 . S
C752 H748 0.949 . S
C752 C760 1.574 . S
C752 C768 1.368 . S
H753 C761 0.950 . S
H754 C759 0.950 . S
H755 C760 0.949 . S
H756 C762 0.950 . S
H757 C763 0.950 . S
H758 C764 0.949 . S
C759 H754 0.950 . S
C759 C761 1.327 . S
C759 C765 1.429 . S
C760 C752 1.574 . S
C760 H755 0.949 . S
C760 C766 1.368 . S
C761 C745 1.349 . S
C761 H753 0.950 . S
C761 C759 1.327 . S
C762 C750 1.349 . S
C762 H756 0.950 . S
C762 C763 1.327 . S
C763 H757 0.950 . S
C763 C762 1.327 . S
C763 C767 1.429 . S
C764 C747 1.574 . S
C764 H758 0.949 . S
C764 C768 1.368 . S
C765 C746 1.429 . S
C765 C759 1.429 . S
C765 C766 1.523 . S
C766 C747 1.368 . S
C766 C760 1.368 . S
C766 C765 1.523 . S
C767 C751 1.429 . S
C767 C763 1.429 . S
C767 C768 1.523 . S
C768 C752 1.368 . S
C768 C764 1.368 . S
C768 C767 1.523 . S
H769 C744 0.950 . S
H770 C746 0.950 . S
H771 C747 0.949 . S
H772 C749 0.950 . S
H773 C751 0.950 . S
C774 C775 1.349 . S
C774 C776 1.327 . S
C774 H799 0.950 . S
C775 C774 1.349 . S
C775 C791 1.349 . S
C776 C774 1.327 . S
C776 C795 1.429 . S
C776 H800 0.950 . S
C777 C794 1.574 . S
C777 C796 1.368 . S
C777 H801 0.949 . S
H778 C782 0.949 . S
C779 C780 1.349 . S
C779 C781 1.327 . S
C779 H802 0.950 . S
C780 C779 1.349 . S
C780 C792 1.349 . S
C781 C779 1.327 . S
C781 C797 1.429 . S
C781 H803 0.950 . S
C782 H778 0.949 . S
C782 C790 1.574 . S
C782 C798 1.368 . S
H783 C791 0.950 . S
H784 C789 0.950 . S
H785 C790 0.949 . S
H786 C792 0.950 . S
H787 C793 0.950 . S
H788 C794 0.949 . S
C789 H784 0.950 . S
C789 C791 1.327 . S
C789 C795 1.429 . S
C790 C782 1.574 . S
C790 H785 0.949 . S
C790 C796 1.368 . S
C791 C775 1.349 . S
C791 H783 0.950 . S
C791 C789 1.327 . S
C792 C780 1.349 . S
C792 H786 0.950 . S
C792 C793 1.327 . S
C793 H787 0.950 . S
C793 C792 1.327 . S
C793 C797 1.429 . S
C794 C777 1.574 . S
C794 H788 0.949 . S
C794 C798 1.368 . S
C795 C776 1.429 . S
C795 C789 1.429 . S
C795 C796 1.523 . S
C796 C777 1.368 . S
C796 C790 1.368 . S
C796 C795 1.523 . S
C797 C781 1.429 . S
C797 C793 1.429 . S
C797 C798 1.523 . S
C798 C782 1.368 . S
C798 C794 1.368 . S
C798 C797 1.523 . S
H799 C774 0.950 . S
H800 C776 0.950 . S
H801 C777 0.949 . S
H802 C779 0.950 . S
H803 C781 0.950 . S
C804 C805 1.349 . S
C804 C806 1.327 . S
C804 H829 0.950 . S
C805 C804 1.349 . S
C805 C821 1.349 . S
C806 C804 1.327 . S
C806 C825 1.429 . S
C806 H830 0.950 . S
C807 C824 1.574 . S
C807 C826 1.368 . S
C807 H831 0.949 . S
H808 C812 0.949 . S
C809 C810 1.349 . S
C809 C811 1.327 . S
C809 H832 0.950 . S
C810 C809 1.349 . S
C810 C822 1.349 . S
C811 C809 1.327 . S
C811 C827 1.429 . S
C811 H833 0.950 . S
C812 H808 0.949 . S
C812 C820 1.574 . S
C812 C828 1.368 . S
H813 C821 0.950 . S
H814 C819 0.950 . S
H815 C820 0.949 . S
H816 C822 0.950 . S
H817 C823 0.950 . S
H818 C824 0.949 . S
C819 H814 0.950 . S
C819 C821 1.327 . S
C819 C825 1.429 . S
C820 C812 1.574 . S
C820 H815 0.949 . S
C820 C826 1.368 . S
C821 C805 1.349 . S
C821 H813 0.950 . S
C821 C819 1.327 . S
C822 C810 1.349 . S
C822 H816 0.950 . S
C822 C823 1.327 . S
C823 H817 0.950 . S
C823 C822 1.327 . S
C823 C827 1.429 . S
C824 C807 1.574 . S
C824 H818 0.949 . S
C824 C828 1.368 . S
C825 C806 1.429 . S
C825 C819 1.429 . S
C825 C826 1.523 . S
C826 C807 1.368 . S
C826 C820 1.368 . S
C826 C825 1.523 . S
C827 C811 1.429 . S
C827 C823 1.429 . S
C827 C828 1.523 . S
C828 C812 1.368 . S
C828 C824 1.368 . S
C828 C827 1.523 . S
H829 C804 0.950 . S
H830 C806 0.950 . S
H831 C807 0.949 . S
H832 C809 0.950 . S
H833 C811 0.950 . S
C834 C835 1.349 . S
C834 C836 1.327 . S
C834 H859 0.950 . S
C835 C834 1.349 . S
C835 C851 1.349 . S
C836 C834 1.327 . S
C836 C855 1.429 . S
C836 H860 0.950 . S
C837 C854 1.574 . S
C837 C856 1.368 . S
C837 H861 0.949 . S
H838 C842 0.949 . S
C839 C840 1.349 . S
C839 C841 1.327 . S
C839 H862 0.950 . S
C840 C839 1.349 . S
C840 C852 1.349 . S
C841 C839 1.327 . S
C841 C857 1.429 . S
C841 H863 0.950 . S
C842 H838 0.949 . S
C842 C850 1.574 . S
C842 C858 1.368 . S
H843 C851 0.950 . S
H844 C849 0.950 . S
H845 C850 0.949 . S
H846 C852 0.950 . S
H847 C853 0.950 . S
H848 C854 0.949 . S
C849 H844 0.950 . S
C849 C851 1.327 . S
C849 C855 1.429 . S
C850 C842 1.574 . S
C850 H845 0.949 . S
C850 C856 1.368 . S
C851 C835 1.349 . S
C851 H843 0.950 . S
C851 C849 1.327 . S
C852 C840 1.349 . S
C852 H846 0.950 . S
C852 C853 1.327 . S
C853 H847 0.950 . S
C853 C852 1.327 . S
C853 C857 1.429 . S
C854 C837 1.574 . S
C854 H848 0.949 . S
C854 C858 1.368 . S
C855 C836 1.429 . S
C855 C849 1.429 . S
C855 C856 1.523 . S
C856 C837 1.368 . S
C856 C850 1.368 . S
C856 C855 1.523 . S
C857 C841 1.429 . S
C857 C853 1.429 . S
C857 C858 1.523 . S
C858 C842 1.368 . S
C858 C854 1.368 . S
C858 C857 1.523 . S
H859 C834 0.950 . S
H860 C836 0.950 . S
H861 C837 0.949 . S
H862 C839 0.950 . S
H863 C841 0.950 . S
C265 C50 1.510 . S
C270 C17 1.510 . S
C295 C83 1.510 . S
C300 C116 1.510 . S
C325 C182 1.510 . S
C330 C149 1.510 . S
C355 C215 1.510 . S
C360 C248 1.510 . S
C385 C160 1.522 . S
C390 C28 1.522 . S
C415 C61 1.522 . S
C420 C193 1.522 . S
C445 C94 1.522 . S
C450 C226 1.522 . S
C475 C127 1.522 . S
C480 C259 1.522 . S
C505 N5 1.326 . S
C510 N14 1.321 . S
C535 N47 1.321 . S
C540 N38 1.326 . S
C565 N71 1.326 . S
C570 N80 1.321 . S
C595 N113 1.321 . S
C600 N104 1.326 . S
C625 N137 1.326 . S
C630 N146 1.321 . S
C655 N179 1.321 . S
C660 N170 1.326 . S
C685 N203 1.326 . S
C690 N212 1.321 . S
C715 N236 1.326 . S
C720 N245 1.321 . S
C745 C8 1.525 . S
C750 C74 1.525 . S
C775 C41 1.525 . S
C780 C107 1.525 . S
C805 C140 1.525 . S
C810 C206 1.525 . S
C835 C173 1.525 . S
C840 C239 1.525 . S
