# Generated by pormake.
# Topology snz, (6)-cn, num edge types: 1
# Building blocks:
#     Node 0, Type 0, BuildingBlock: CUKXOW_clean_sbu_0, # of connection points: 6
#     Node 1, Type 0, BuildingBlock: CUKXOW_clean_sbu_0, # of connection points: 6
#     Node 2, Type 0, BuildingBlock: CUKXOW_clean_sbu_0, # of connection points: 6
#     Node 3, Type 0, BuildingBlock: CUKXOW_clean_sbu_0, # of connection points: 6
#     Node 4, Type 0, BuildingBlock: CUKXOW_clean_sbu_0, # of connection points: 6
#     Node 5, Type 0, BuildingBlock: CUKXOW_clean_sbu_0, # of connection points: 6
#     Node 6, Type 0, BuildingBlock: CUKXOW_clean_sbu_0, # of connection points: 6
#     Node 7, Type 0, BuildingBlock: CUKXOW_clean_sbu_0, # of connection points: 6
#     Node 8, Type 0, BuildingBlock: CUKXOW_clean_sbu_0, # of connection points: 6
#     Edge 9, Type (0, 0), BuildingBlock: ZUJKAS_clean_linker_0, # of connection points: 2
#     Edge 10, Type (0, 0), BuildingBlock: ZUJKAS_clean_linker_0, # of connection points: 2
#     Edge 11, Type (0, 0), BuildingBlock: ZUJKAS_clean_linker_0, # of connection points: 2
#     Edge 12, Type (0, 0), BuildingBlock: ZUJKAS_clean_linker_0, # of connection points: 2
#     Edge 13, Type (0, 0), BuildingBlock: ZUJKAS_clean_linker_0, # of connection points: 2
#     Edge 14, Type (0, 0), BuildingBlock: ZUJKAS_clean_linker_0, # of connection points: 2
#     Edge 15, Type (0, 0), BuildingBlock: ZUJKAS_clean_linker_0, # of connection points: 2
#     Edge 16, Type (0, 0), BuildingBlock: ZUJKAS_clean_linker_0, # of connection points: 2
#     Edge 17, Type (0, 0), BuildingBlock: ZUJKAS_clean_linker_0, # of connection points: 2
#     Edge 18, Type (0, 0), BuildingBlock: ZUJKAS_clean_linker_0, # of connection points: 2
#     Edge 19, Type (0, 0), BuildingBlock: ZUJKAS_clean_linker_0, # of connection points: 2
#     Edge 20, Type (0, 0), BuildingBlock: ZUJKAS_clean_linker_0, # of connection points: 2
#     Edge 21, Type (0, 0), BuildingBlock: ZUJKAS_clean_linker_0, # of connection points: 2
#     Edge 22, Type (0, 0), BuildingBlock: ZUJKAS_clean_linker_0, # of connection points: 2
#     Edge 23, Type (0, 0), BuildingBlock: ZUJKAS_clean_linker_0, # of connection points: 2
#     Edge 24, Type (0, 0), BuildingBlock: ZUJKAS_clean_linker_0, # of connection points: 2
#     Edge 25, Type (0, 0), BuildingBlock: ZUJKAS_clean_linker_0, # of connection points: 2
#     Edge 26, Type (0, 0), BuildingBlock: ZUJKAS_clean_linker_0, # of connection points: 2
#     Edge 27, Type (0, 0), BuildingBlock: ZUJKAS_clean_linker_0, # of connection points: 2
#     Edge 28, Type (0, 0), BuildingBlock: ZUJKAS_clean_linker_0, # of connection points: 2
#     Edge 29, Type (0, 0), BuildingBlock: ZUJKAS_clean_linker_0, # of connection points: 2
#     Edge 30, Type (0, 0), BuildingBlock: ZUJKAS_clean_linker_0, # of connection points: 2
#     Edge 31, Type (0, 0), BuildingBlock: ZUJKAS_clean_linker_0, # of connection points: 2
#     Edge 32, Type (0, 0), BuildingBlock: ZUJKAS_clean_linker_0, # of connection points: 2
#     Edge 33, Type (0, 0), BuildingBlock: ZUJKAS_clean_linker_0, # of connection points: 2
#     Edge 34, Type (0, 0), BuildingBlock: ZUJKAS_clean_linker_0, # of connection points: 2
#     Edge 35, Type (0, 0), BuildingBlock: ZUJKAS_clean_linker_0, # of connection points: 2
# Relax obj value: 0.101
# Max RMSD: 0.188
# Mean RMSD: 0.132
data_MOF--net-snz--node1-CUKXOW_clean_sbu_0--edge1-ZUJKAS_clean_linker_0
_symmetry_space_group_name_H-M    P1
_symmetry_Int_Tables_number       1
_symmetry_cell_setting            triclinic
loop_
_symmetry_equiv_pos_as_xyz
'x, y, z'
_cell_length_a     63.816263
_cell_length_b     71.521566
_cell_length_c     18.81176
_cell_angle_alpha  93.521349
_cell_angle_beta   93.272535
_cell_angle_gamma 120.37446
loop_
_atom_site_label
_atom_site_type_symbol
_atom_site_fract_x
_atom_site_fract_y
_atom_site_fract_z
_atom_type_partial_charge
Tb0 Tb 0.03698 0.45238 0.96947 0.0
C1 C 0.07356 0.4842 0.87101 0.0
Tb2 Tb 0.07033 0.50226 0.02392 0.0
O3 O 1.01683 0.46017 0.8899 0.0
O4 O 0.03325 0.48029 0.98512 0.0
O5 O 0.06309 0.46419 0.89102 0.0
C6 C 0.08728 0.54409 0.06361 0.0
O7 O 0.0754 0.50107 0.91079 0.0
C8 C 0.09291 0.48032 0.04893 0.0
C9 C 0.03589 0.4696 0.12559 0.0
O10 O 0.08224 0.53538 -0.00245 0.0
O11 O 0.08279 0.52929 0.10655 0.0
O12 O 0.10311 0.50124 0.06384 0.0
O13 O 0.07172 0.47381 0.02158 0.0
O14 O 0.04544 0.48952 0.10554 0.0
O15 O 0.03339 0.45286 0.08356 0.0
C16 C 1.01345 0.40933 0.94233 0.0
O17 O 0.03662 0.42233 0.93831 0.0
O18 O 1.00356 0.42055 0.96235 0.0
C19 C 0.02223 0.47847 0.92514 0.0
Tb20 Tb 0.59958 0.50801 0.0026 0.0
C21 C 0.60121 0.48483 0.13629 0.0
Tb22 Tb 0.58368 0.45845 0.98588 0.0
O23 O 0.56341 0.50387 0.01818 0.0
O24 O 0.5679 0.47761 0.00323 0.0
O25 O 0.61194 0.50333 0.10637 0.0
C26 C 0.56684 0.41619 0.98985 0.0
O27 O 0.58608 0.46564 0.10011 0.0
C28 C 0.62762 0.48626 0.95102 0.0
C29 C 0.57994 0.47994 0.85219 0.0
O30 O 0.58836 0.43179 0.01627 0.0
O31 O 0.55454 0.4244 0.96201 0.0
O32 O 0.61452 0.46619 0.92329 0.0
O33 O 0.61685 0.48927 0.00064 0.0
O34 O 0.5695 0.46171 0.88371 0.0
O35 O 0.59362 0.49967 0.88735 0.0
C36 C 0.62728 0.55108 0.01566 0.0
O37 O 0.61123 0.53978 0.05834 0.0
O38 O 0.62747 0.53815 0.96443 0.0
C39 C 0.55221 0.48275 0.01519 0.0
Tb40 Tb 0.59976 0.99365 0.08718 0.0
C41 C 0.59812 0.96275 0.9591 0.0
Tb42 Tb 0.62051 0.9624 0.10978 0.0
O43 O 0.63096 0.01903 0.03777 0.0
O44 O 0.6312 0.99242 0.07023 0.0
O45 O 0.58588 0.97081 0.99072 0.0
C46 C 0.64925 0.94571 0.13462 0.0
O47 O 0.61557 0.96101 0.99442 0.0
C48 C 0.57365 0.94647 0.1259 0.0
C49 C 0.6253 0.99564 0.23926 0.0
O50 O 0.62638 0.93467 0.10964 0.0
O51 O 0.65592 0.96614 0.14554 0.0
O52 O 0.58298 0.93458 0.10835 0.0
O53 O 0.59088 0.96577 0.14091 0.0
O54 O 0.63175 0.98173 0.21349 0.0
O55 O 0.61129 0.00108 0.20143 0.0
C56 C 0.57085 0.01028 0.07271 0.0
O57 O 0.59284 0.0204 0.10519 0.0
O58 O 0.56488 0.99051 0.04968 0.0
C59 C 0.64368 0.00953 0.0412 0.0
Tb60 Tb 0.80625 0.8161 0.29985 0.0
C61 C 0.84115 0.84897 0.19962 0.0
Tb62 Tb 0.84006 0.86577 0.3564 0.0
O63 O 0.77376 0.81772 0.26074 0.0
O64 O 0.80544 0.84484 0.30301 0.0
O65 O 0.8315 0.82899 0.21921 0.0
C66 C 0.86494 0.90879 0.38395 0.0
O67 O 0.84376 0.86564 0.24223 0.0
C68 C 0.85369 0.83887 0.40002 0.0
C69 C 0.80268 0.83383 0.45309 0.0
O70 O 0.87425 0.897 0.36485 0.0
O71 O 0.84162 0.89638 0.38716 0.0
O72 O 0.85896 0.85693 0.43668 0.0
O73 O 0.84332 0.83767 0.3396 0.0
O74 O 0.81354 0.85394 0.43378 0.0
O75 O 0.80051 0.81688 0.41268 0.0
C76 C 0.78926 0.77462 0.25459 0.0
O77 O 0.79545 0.78276 0.32141 0.0
O78 O 0.79253 0.78976 0.21435 0.0
C79 C 0.7843 0.83866 0.27593 0.0
Tb80 Tb 0.29411 0.86037 0.35374 0.0
C81 C 0.30535 0.8357 0.46573 0.0
Tb82 Tb 0.27811 0.81192 0.31331 0.0
O83 O 0.2662 0.84972 0.42881 0.0
O84 O 0.26054 0.82975 0.33614 0.0
O85 O 0.31296 0.85497 0.44183 0.0
C86 C 0.24975 0.76897 0.28891 0.0
O87 O 0.28944 0.81693 0.42754 0.0
C88 C 0.32468 0.8375 0.2937 0.0
C89 C 0.2759 0.83957 0.19486 0.0
O90 O 0.25202 0.78045 0.34823 0.0
O91 O 0.26373 0.78162 0.24429 0.0
O92 O 0.31311 0.81634 0.28295 0.0
O93 O 0.30974 0.84254 0.31555 0.0
O94 O 0.26516 0.82 0.21781 0.0
O95 O 0.29047 0.8576 0.23778 0.0
C96 C 0.3079 0.90232 0.36548 0.0
O97 O 0.2865 0.8864 0.33978 0.0
O98 O 0.32186 0.89468 0.38396 0.0
C99 C 0.25178 0.83082 0.39362 0.0
Tb100 Tb 0.25803 0.35757 0.21284 0.0
C101 C 0.25069 0.32383 0.08297 0.0
Tb102 Tb 0.27768 0.32524 0.22939 0.0
O103 O 0.29588 0.38511 0.22403 0.0
O104 O 0.28783 0.35442 0.1818 0.0
O105 O 0.24196 0.33514 0.11531 0.0
C106 C 0.30587 0.30776 0.23892 0.0
O107 O 0.26729 0.32035 0.11521 0.0
C108 C 0.23302 0.30875 0.26982 0.0
C109 C 0.28037 0.35585 0.36269 0.0
O110 O 0.28394 0.29827 0.20619 0.0
O111 O 0.31217 0.32737 0.26502 0.0
O112 O 0.24527 0.29877 0.27103 0.0
O113 O 0.24629 0.32654 0.24524 0.0
O114 O 0.29057 0.34571 0.33123 0.0
O115 O 0.26502 0.36031 0.32779 0.0
C116 C 0.23101 0.37592 0.18862 0.0
O117 O 0.22911 0.36397 0.23984 0.0
O118 O 0.24835 0.37775 0.15132 0.0
C119 C 0.30509 0.37343 0.20225 0.0
Tb120 Tb 0.41885 0.1683 0.64509 0.0
C121 C 0.47446 0.20087 0.70656 0.0
Tb122 Tb 0.45398 0.15071 0.68719 0.0
O123 O 0.40856 0.17142 0.75461 0.0
O124 O 0.43259 0.16123 0.73573 0.0
O125 O 0.45484 0.19776 0.66663 0.0
C126 C 0.47417 0.13016 0.74903 0.0
O127 O 0.47722 0.18476 0.72714 0.0
C128 C 0.45348 0.16144 0.55492 0.0
C129 C 0.39737 0.11787 0.63941 0.0
O130 O 0.46977 0.14411 0.78173 0.0
O131 O 0.46755 0.12799 0.68102 0.0
O132 O 0.47228 0.16233 0.5897 0.0
O133 O 0.43591 0.15318 0.59283 0.0
O134 O 0.41762 0.12153 0.67708 0.0
O135 O 0.39479 0.13361 0.61392 0.0
C136 C 0.40003 0.1865 0.56399 0.0
O137 O 0.38827 0.17237 0.6086 0.0
O138 O 0.42221 0.19028 0.56537 0.0
C139 C 0.42264 0.1653 0.78526 0.0
Tb140 Tb 0.91017 0.1441 0.66634 0.0
C141 C 0.94311 0.12333 0.6356 0.0
Tb142 Tb 0.96635 0.17404 0.64403 0.0
O143 O 0.89606 0.1368 0.55077 0.0
O144 O 0.93245 0.15529 0.58357 0.0
O145 O 0.92354 0.12137 0.66399 0.0
C146 C 1.00844 0.20052 0.59104 0.0
O147 O 0.96088 0.14192 0.61651 0.0
C148 C 0.95595 0.16293 0.77499 0.0
C149 C 0.9332 0.19486 0.66717 0.0
O150 O 0.99038 0.1826 0.55816 0.0
O151 O 1.0029 0.20358 0.6545 0.0
O152 O 0.97654 0.16777 0.75004 0.0
O153 O 0.94355 0.16649 0.72907 0.0
O154 O 0.95261 0.19643 0.63884 0.0
O155 O 0.91591 0.17661 0.68991 0.0
C156 C 0.86982 0.12018 0.73028 0.0
O157 O 0.87216 0.13345 0.68289 0.0
O158 O 0.89024 0.12041 0.7416 0.0
C159 C 0.91757 0.14762 0.52825 0.0
Tb160 Tb 0.96524 0.67443 0.65305 0.0
C161 C 0.94919 0.62717 0.68903 0.0
Tb162 Tb 0.91166 0.64417 0.67699 0.0
O163 O 0.97711 0.67432 0.76446 0.0
O164 O 0.94288 0.6704 0.73829 0.0
O165 O 0.96521 0.64418 0.6581 0.0
C166 C 0.86856 0.61918 0.72871 0.0
O167 O 0.92812 0.6248 0.70648 0.0
C168 C 0.92037 0.64876 0.54157 0.0
C169 C 0.92771 0.69132 0.64002 0.0
O170 O 0.87538 0.61441 0.66991 0.0
O171 O 0.88617 0.63787 0.75873 0.0
O172 O 0.89985 0.64438 0.56552 0.0
O173 O 0.934 0.64819 0.59191 0.0
O174 O 0.9119 0.67457 0.67243 0.0
O175 O 0.94856 0.69342 0.6216 0.0
C176 C 1.00843 0.69953 0.60207 0.0
O177 O 1.00134 0.70438 0.66016 0.0
O178 O 0.99104 0.68069 0.57232 0.0
C179 C 0.9566 0.66989 0.78849 0.0
H180 H 0.08188 0.51816 0.79477 0.0
H181 H 0.07759 0.51651 0.6644 0.0
H182 H 0.07226 0.45381 0.64738 0.0
H183 H 0.07686 0.45535 0.77751 0.0
H184 H 0.097 0.48222 0.53693 0.0
H185 H 1.00567 0.47055 0.5799 0.0
H186 H 0.03151 0.49488 0.62531 0.0
H187 H 0.02494 0.46872 0.64981 0.0
C188 C 0.08071 0.50439 0.76344 0.0
C189 C 0.07901 0.48659 0.79618 0.0
C190 C 0.07813 0.50344 0.68906 0.0
C191 C 0.07392 0.48477 0.64714 0.0
C192 C 0.0752 0.46821 0.67941 0.0
H193 H 0.02954 0.43574 0.19967 0.0
H194 H 0.03505 0.43701 0.32986 0.0
C195 C 0.07778 0.46913 0.75369 0.0
C196 C 0.0648 0.481 0.57124 0.0
H197 H 1.01511 0.47061 0.46032 0.0
C198 C 0.07913 0.47968 0.5199 0.0
C199 C 0.04131 0.47743 0.55014 0.0
C200 C 0.02481 0.47777 0.60404 0.0
C201 C 0.07078 0.47537 0.44703 0.0
C202 C 0.04733 0.47188 0.4259 0.0
C203 C 0.03296 0.47311 0.47731 0.0
C204 C 0.03831 0.46852 0.35001 0.0
C205 C 0.08731 0.47511 0.39313 0.0
C206 C 0.0365 0.48508 0.31954 0.0
C207 C 0.0332 0.48437 0.2455 0.0
C208 C 0.03173 0.46709 0.20128 0.0
C209 C 0.03083 0.44936 0.23238 0.0
C210 C 0.03415 0.45011 0.30659 0.0
H211 H 0.10641 0.4822 0.4174 0.0
H212 H 0.08054 0.45803 0.37131 0.0
H213 H 0.0873 0.48433 0.34775 0.0
H214 H 0.0394 0.49928 0.35271 0.0
H215 H 0.03359 0.49811 0.22302 0.0
H216 H 0.59176 0.45217 0.79141 0.0
H217 H 0.60962 0.45505 0.67953 0.0
H218 H 0.59309 0.50473 0.62956 0.0
H219 H 0.57813 0.50384 0.74707 0.0
H220 H 0.59566 0.44682 0.55629 0.0
H221 H 0.65989 0.53465 0.58037 0.0
H222 H 0.64394 0.52144 0.65501 0.0
H223 H 0.63073 0.53158 0.59141 0.0
C224 C 0.59178 0.46361 0.75626 0.0
C225 C 0.58358 0.47779 0.77722 0.0
C226 C 0.60219 0.46537 0.6925 0.0
C227 C 0.60357 0.48067 0.64706 0.0
C228 C 0.59349 0.49363 0.66546 0.0
H229 H 0.56949 0.46138 0.22745 0.0
H230 H 0.5783 0.46047 0.35401 0.0
C231 C 0.58425 0.49269 0.73133 0.0
C232 C 0.61384 0.48192 0.57806 0.0
H233 H 0.64148 0.51754 0.4556 0.0
C234 C 0.60643 0.46238 0.53544 0.0
C235 C 0.62914 0.50204 0.55122 0.0
C236 C 0.64162 0.52353 0.59764 0.0
C237 C 0.61109 0.4625 0.46398 0.0
C238 C 0.62174 0.48248 0.43366 0.0
C239 C 0.63228 0.5021 0.4783 0.0
C240 C 0.61732 0.48299 0.35655 0.0
C241 C 0.60308 0.44108 0.4207 0.0
C242 C 0.63605 0.49711 0.31719 0.0
C243 C 0.63076 0.49831 0.24522 0.0
C244 C 0.60682 0.48519 0.2124 0.0
C245 C 0.58814 0.47137 0.25193 0.0
C246 C 0.59326 0.47059 0.32378 0.0
H247 H 0.60684 0.43046 0.45326 0.0
H248 H 0.58306 0.43239 0.40577 0.0
H249 H 0.61249 0.44339 0.37131 0.0
H250 H 0.65462 0.50711 0.34204 0.0
H251 H 0.64537 0.50901 0.21488 0.0
H252 H 0.62533 0.9534 0.87289 0.0
H253 H 0.63034 0.96063 0.7481 0.0
H254 H 0.57242 0.97513 0.7429 0.0
H255 H 0.56693 0.96768 0.86733 0.0
H256 H 0.57431 0.9525 0.61424 0.0
H257 H 0.66324 0.0263 0.71531 0.0
H258 H 0.65931 0.00102 0.74124 0.0
H259 H 0.64027 0.01081 0.77339 0.0
C260 C 0.61314 0.95749 0.84475 0.0
C261 C 0.59616 0.96052 0.88045 0.0
C262 C 0.61618 0.96177 0.77371 0.0
C263 C 0.60227 0.96908 0.73783 0.0
C264 C 0.58354 0.96982 0.77063 0.0
H265 H 0.6048 0.01388 0.32064 0.0
H266 H 0.60222 0.01259 0.44932 0.0
C267 C 0.58043 0.96551 0.84162 0.0
C268 C 0.60864 0.97775 0.66862 0.0
H269 H 0.65407 0.01858 0.58908 0.0
C270 C 0.59163 0.967 0.60856 0.0
C271 C 0.63119 0.99686 0.66242 0.0
C272 C 0.64951 0.00959 0.72656 0.0
C273 C 0.59698 0.97445 0.54123 0.0
C274 C 0.61975 0.99328 0.53474 0.0
C275 C 0.63661 0.00426 0.59497 0.0
C276 C 0.62687 0.00043 0.46422 0.0
C277 C 0.57859 0.96177 0.47712 0.0
C278 C 0.64302 0.99556 0.43211 0.0
C279 C 0.64456 0.99624 0.35874 0.0
C280 C 0.62986 0.00173 0.31704 0.0
C281 C 0.61609 0.00928 0.35118 0.0
C282 C 0.61455 0.00855 0.4246 0.0
H283 H 0.56351 0.94582 0.48989 0.0
H284 H 0.57054 0.97138 0.45809 0.0
H285 H 0.58759 0.95882 0.43254 0.0
H286 H 0.65279 0.98943 0.46252 0.0
H287 H 0.65572 0.99075 0.3341 0.0
H288 H 0.79884 0.86234 0.54657 0.0
H289 H 0.80375 0.86407 0.67675 0.0
H290 H 0.79986 0.80197 0.66008 0.0
H291 H 0.7953 0.80016 0.52965 0.0
H292 H 0.77961 0.83594 0.78723 0.0
H293 H 0.87125 0.84824 0.74542 0.0
H294 H 0.85186 0.84972 0.67507 0.0
H295 H 0.84562 0.82372 0.70027 0.0
C296 C 0.79829 0.84873 0.57051 0.0
C297 C 0.79733 0.83139 0.52804 0.0
C298 C 0.80107 0.84975 0.64483 0.0
C299 C 0.80284 0.83344 0.67724 0.0
C300 C 0.79896 0.81487 0.63536 0.0
H301 H 0.8439 0.82079 0.10187 0.0
H302 H 0.83785 0.81955 0.9722 0.0
C303 C 0.79618 0.81381 0.56094 0.0
C304 C 0.81194 0.83733 0.7533 0.0
H305 H 0.86165 0.84806 0.86488 0.0
C306 C 0.79751 0.8386 0.80447 0.0
C307 C 0.83547 0.84105 0.77476 0.0
C308 C 0.8521 0.84081 0.72114 0.0
C309 C 0.8058 0.84298 0.87743 0.0
C310 C 0.82929 0.84661 0.89892 0.0
C311 C 0.84376 0.84545 0.84768 0.0
C312 C 0.83826 0.85001 0.97499 0.0
C313 C 0.78914 0.84313 0.93105 0.0
C314 C 0.8421 0.8683 0.01854 0.0
C315 C 0.84557 0.8691 0.09278 0.0
C316 C 0.84515 0.85155 0.12381 0.0
C317 C 0.84394 0.83441 0.07945 0.0
C318 C 0.84049 0.83365 0.00541 0.0
H319 H 0.77003 0.83587 0.9066 0.0
H320 H 0.78922 0.834 0.97665 0.0
H321 H 0.79572 0.86019 0.95259 0.0
H322 H 0.84089 0.88126 0.99537 0.0
H323 H 0.84661 0.88259 0.12559 0.0
H324 H 0.28915 0.80019 0.54077 0.0
H325 H 0.28793 0.80087 0.67017 0.0
H326 H 0.33325 0.87091 0.69311 0.0
H327 H 0.33488 0.87054 0.56399 0.0
H328 H 0.33863 0.84672 0.81225 0.0
H329 H 0.24431 0.82788 0.72687 0.0
H330 H 0.2532 0.80968 0.68774 0.0
H331 H 0.26806 0.83746 0.66738 0.0
C332 C 0.29961 0.8157 0.57338 0.0
C333 C 0.3114 0.83539 0.54207 0.0
C334 C 0.29887 0.81602 0.64723 0.0
C335 C 0.30996 0.83597 0.69007 0.0
C336 C 0.32441 0.8554 0.66021 0.0
H337 H 0.30044 0.87578 0.1246 0.0
H338 H 0.30731 0.87606 -0.00177 0.0
C339 C 0.32522 0.85512 0.5864 0.0
C340 C 0.30293 0.83695 0.76236 0.0
H341 H 0.2551 0.83102 0.85078 0.0
C342 C 0.32042 0.84328 0.82104 0.0
C343 C 0.27919 0.83271 0.77259 0.0
C344 C 0.26009 0.82671 0.71043 0.0
C345 C 0.31452 0.84498 0.89074 0.0
C346 C 0.29073 0.84064 0.90095 0.0
C347 C 0.27332 0.83443 0.84215 0.0
C348 C 0.28324 0.8413 0.97287 0.0
C349 C 0.33356 0.8509 0.95292 0.0
C350 C 0.2661 0.82188 -0.00175 0.0
C351 C 0.26194 0.82163 0.07006 0.0
C352 C 0.27498 0.84084 0.11719 0.0
C353 C 0.29034 0.86066 0.0898 0.0
C354 C 0.29445 0.86086 0.01788 0.0
H355 H 0.34912 0.84934 0.93666 0.0
H356 H 0.34081 0.86805 0.97484 0.0
H357 H 0.32545 0.84039 -0.00356 0.0
H358 H 0.25707 0.80669 0.96356 0.0
H359 H 0.24976 0.80615 0.08933 0.0
H360 H 0.25863 0.37171 0.44889 0.0
H361 H 0.25349 0.36665 0.57502 0.0
H362 H 0.30121 0.34036 0.5803 0.0
H363 H 0.30685 0.34562 0.45476 0.0
H364 H 0.23201 0.32422 0.61398 0.0
H365 H 0.32187 0.37853 0.77074 0.0
H366 H 0.31476 0.38293 0.68123 0.0
H367 H 0.32318 0.36282 0.69481 0.0
C368 C 0.26871 0.36553 0.47735 0.0
C369 C 0.28282 0.35871 0.44147 0.0
C370 C 0.26565 0.36259 0.54934 0.0
C371 C 0.27686 0.35304 0.58643 0.0
C372 C 0.29263 0.34798 0.55257 0.0
H373 H 0.26762 0.30387 0.99433 0.0
H374 H 0.26943 0.30619 0.8659 0.0
C375 C 0.29574 0.35094 0.48065 0.0
C376 C 0.26956 0.34564 0.65685 0.0
H377 H 0.29178 0.34972 0.82936 0.0
C378 C 0.245 0.32989 0.66136 0.0
C379 C 0.28666 0.35296 0.71787 0.0
C380 C 0.31305 0.37039 0.71629 0.0
C381 C 0.23711 0.32103 0.72565 0.0
C382 C 0.25426 0.32825 0.78646 0.0
C383 C 0.27879 0.34402 0.78197 0.0
C384 C 0.24718 0.32098 0.85713 0.0
C385 C 0.21067 0.30385 0.72793 0.0
C386 C 0.2329 0.32742 0.89326 0.0
C387 C 0.2318 0.32614 0.96666 0.0
C388 C 0.24529 0.31868 0.00473 0.0
C389 C 0.25732 0.31 0.96675 0.0
C390 C 0.25838 0.31128 0.89337 0.0
H391 H 0.20136 0.2962 0.67347 0.0
H392 H 0.20901 0.29094 0.76111 0.0
H393 H 0.20104 0.3115 0.75242 0.0
H394 H 0.22432 0.33513 0.86609 0.0
H395 H 0.22213 0.33274 0.99418 0.0
H396 H 0.48841 0.1731 0.46141 0.0
H397 H 0.48378 0.17451 0.33171 0.0
H398 H 0.40836 0.15559 0.34159 0.0
H399 H 0.41289 0.15408 0.47108 0.0
H400 H 0.45162 0.14049 0.22631 0.0
H401 H 0.43371 0.20876 0.22797 0.0
H402 H 0.44638 0.20325 0.30673 0.0
H403 H 0.41421 0.18714 0.27878 0.0
C404 C 0.4709 0.16946 0.43607 0.0
C405 C 0.45109 0.16366 0.47689 0.0
C406 C 0.46825 0.1702 0.36176 0.0
C407 C 0.44579 0.16542 0.32645 0.0
C408 C 0.42601 0.15978 0.36733 0.0
H409 H 0.39121 0.16008 0.88443 0.0
H410 H 0.39705 0.1595 0.01398 0.0
C411 C 0.42862 0.15889 0.44156 0.0
C412 C 0.44284 0.16554 0.24676 0.0
H413 H 0.42814 0.18923 0.11528 0.0
C414 C 0.44661 0.15124 0.20204 0.0
C415 C 0.43615 0.17944 0.21466 0.0
C416 C 0.43257 0.19567 0.25935 0.0
C417 C 0.44336 0.15008 0.12667 0.0
C418 C 0.43679 0.16407 0.09438 0.0
C419 C 0.43315 0.17846 0.13932 0.0
C420 C 0.43319 0.16385 0.01447 0.0
C421 C 0.44618 0.13327 0.08259 0.0
C422 C 0.45154 0.16667 0.97049 0.0
C423 C 0.44802 0.1667 0.89595 0.0
C424 C 0.42622 0.16417 0.86357 0.0
C425 C 0.40811 0.1618 0.90757 0.0
C426 C 0.41149 0.16154 0.98186 0.0
H427 H 0.44373 0.11977 0.11401 0.0
H428 H 0.4328 0.12624 0.03415 0.0
H429 H 0.46484 0.14107 0.06528 0.0
H430 H 0.46884 0.16931 0.99388 0.0
H431 H 0.46273 0.16951 0.86414 0.0
H432 H 0.95834 0.15372 0.46643 0.0
H433 H 0.96535 0.1563 0.33964 0.0
H434 H 0.8943 0.14835 0.28989 0.0
H435 H 0.88731 0.14558 0.41651 0.0
H436 H 0.90106 0.12354 0.19547 0.0
H437 H 0.98376 0.20584 0.22094 0.0
H438 H 0.98734 0.18748 0.27411 0.0
H439 H 0.96538 0.19528 0.29402 0.0
C440 C 0.94459 0.15322 0.4288 0.0
C441 C 0.92262 0.15015 0.45198 0.0
C442 C 0.94852 0.15457 0.35596 0.0
C443 C 0.93062 0.15306 0.30457 0.0
C444 C 0.90854 0.14974 0.32794 0.0
H445 H 0.9166 0.15894 0.83994 0.0
H446 H 0.90993 0.15579 0.96691 0.0
C447 C 0.90457 0.14822 0.40054 0.0
C448 C 0.93436 0.15412 0.22636 0.0
H449 H 0.97296 0.18523 0.10713 0.0
C450 C 0.91675 0.13712 0.17633 0.0
C451 C 0.9548 0.17178 0.20055 0.0
C452 C 0.97377 0.19123 0.25007 0.0
C453 C 0.91915 0.13712 0.1022 0.0
C454 C 0.93964 0.15471 0.07656 0.0
C455 C 0.95729 0.17168 0.12645 0.0
C456 C 0.94315 0.15588 -0.0016 0.0
C457 C 0.89995 0.11799 0.05207 0.0
C458 C 0.96416 0.15725 0.97319 0.0
C459 C 0.96798 0.15901 0.9005 0.0
C460 C 0.95099 0.15967 0.85117 0.0
C461 C 0.92992 0.15824 0.87628 0.0
C462 C 0.92606 0.15638 0.949 0.0
H463 H 0.88915 0.10346 0.08082 0.0
H464 H 0.88716 0.12242 0.02663 0.0
H465 H 0.90833 0.11354 0.009 0.0
H466 H 0.97769 0.15698 0.00991 0.0
H467 H 0.98444 0.16017 0.88309 0.0
H468 H 0.95789 0.6495 0.47263 0.0
H469 H 0.96453 0.65376 0.34553 0.0
H470 H 0.89984 0.65811 0.31068 0.0
H471 H 0.89351 0.65436 0.43709 0.0
H472 H 0.93457 0.62778 0.22379 0.0
H473 H 0.949 0.71084 0.21992 0.0
H474 H 0.94992 0.69942 0.30216 0.0
H475 H 0.9211 0.69224 0.25491 0.0
C476 C 0.94534 0.65172 0.43805 0.0
C477 C 0.92533 0.65183 0.46531 0.0
C478 C 0.94905 0.65402 0.36521 0.0
C479 C 0.93293 0.65665 0.3182 0.0
C480 C 0.9129 0.65664 0.34563 0.0
H481 H 0.91916 0.66921 0.85773 0.0
H482 H 0.91263 0.66501 0.98491 0.0
C483 C 0.9092 0.65432 0.41808 0.0
C484 C 0.93642 0.65864 0.24017 0.0
H485 H 0.9427 0.69107 0.10653 0.0
C486 C 0.93653 0.64171 0.19837 0.0
C487 C 0.93881 0.67671 0.20629 0.0
C488 C 0.93994 0.69594 0.24819 0.0
C489 C 0.93847 0.64215 0.12403 0.0
C490 C 0.94084 0.66021 0.09014 0.0
C491 C 0.94074 0.67714 0.13195 0.0
C492 C 0.94428 0.66218 0.01208 0.0
C493 C 0.93734 0.62292 0.08213 0.0
C494 C 0.96431 0.66221 0.98455 0.0
C495 C 0.96795 0.66449 0.91203 0.0
C496 C 0.95174 0.6669 0.86486 0.0
C497 C 0.93175 0.66702 0.89226 0.0
C498 C 0.92811 0.66476 0.96515 0.0
H499 H 0.92833 0.60803 0.11046 0.0
H500 H 0.92732 0.61941 0.02822 0.0
H501 H 0.95618 0.62665 0.07527 0.0
H502 H 0.97741 0.66079 0.01944 0.0
H503 H 0.98363 0.66446 0.89293 0.0
H504 H 0.1926 0.37078 0.25909 0.0
H505 H 0.16607 0.38559 0.2334 0.0
H506 H 0.2077 0.41706 0.05998 0.0
H507 H 0.23397 0.40192 0.08466 0.0
H508 H 0.17738 0.42757 0.23698 0.0
H509 H 0.13845 0.38629 0.96318 0.0
H510 H 0.15505 0.37833 0.02285 0.0
H511 H 0.17121 0.4014 0.97315 0.0
C512 C 0.19601 0.38079 0.21531 0.0
C513 C 0.21529 0.38517 0.17371 0.0
C514 C 0.18084 0.38923 0.20064 0.0
C515 C 0.18458 0.40212 0.14392 0.0
C516 C 0.20404 0.4067 0.10283 0.0
H517 H 0.1408 0.49618 0.0877 0.0
H518 H 0.16135 0.47588 0.11129 0.0
C519 C 0.21917 0.39821 0.11735 0.0
C520 C 0.16879 0.41153 0.12976 0.0
H521 H 0.1323 0.41571 -0.0009 0.0
C522 C 0.16738 0.42482 0.18511 0.0
C523 C 0.15536 0.40766 0.06247 0.0
C524 C 0.15485 0.39246 0.00222 0.0
C525 C 0.15365 0.43494 0.17432 0.0
C526 C 0.14133 0.43205 0.10591 0.0
C527 C 0.14197 0.41812 0.05127 0.0
C528 C 0.12862 0.44411 0.08949 0.0
C529 C 0.15244 0.44865 0.23642 0.0
C530 C 0.10346 0.433 0.06724 0.0
C531 C 0.09165 0.44465 0.05327 0.0
C532 C 0.10489 0.46753 0.06068 0.0
C533 C 0.1301 0.47854 0.08178 0.0
C534 C 0.14186 0.46696 0.09566 0.0
H535 H 0.15649 0.44406 0.28861 0.0
H536 H 0.16624 0.46603 0.23336 0.0
H537 H 0.13416 0.44702 0.235 0.0
H538 H 0.09291 0.41536 0.06192 0.0
H539 H 0.07217 0.4358 0.03812 0.0
H540 H 0.66823 0.57554 0.94949 0.0
H541 H 0.6992 0.61412 0.98269 0.0
H542 H 0.65664 0.61751 0.1478 0.0
H543 H 0.62573 0.57921 0.11481 0.0
H544 H 0.67473 0.6526 0.06014 0.0
H545 H 0.74646 0.63689 0.17177 0.0
H546 H 0.73281 0.62483 0.08214 0.0
H547 H 0.71464 0.61583 0.15583 0.0
C548 C 0.66542 0.58467 0.99221 0.0
C549 C 0.64469 0.57456 0.0297 0.0
C550 C 0.68316 0.60655 0.01148 0.0
C551 C 0.68025 0.61844 0.06827 0.0
C552 C 0.65918 0.6085 0.10407 0.0
H553 H 0.77274 0.7395 0.33185 0.0
H554 H 0.74818 0.70091 0.28369 0.0
C555 C 0.64157 0.58669 0.08513 0.0
C556 C 0.69906 0.6413 0.0913 0.0
H557 H 0.7566 0.67364 0.17582 0.0
C558 C 0.6927 0.65727 0.08493 0.0
C559 C 0.72229 0.64712 0.12448 0.0
C560 C 0.72954 0.63031 0.13464 0.0
C561 C 0.70898 0.67901 0.11132 0.0
C562 C 0.73229 0.68489 0.144 0.0
C563 C 0.73873 0.66897 0.15027 0.0
C564 C 0.74992 0.70758 0.17281 0.0
C565 C 0.70091 0.69545 0.10565 0.0
C566 C 0.7596 0.72379 0.12613 0.0
C567 C 0.77339 0.74563 0.15332 0.0
C568 C 0.77782 0.75155 0.22757 0.0
C569 C 0.76946 0.73526 0.2744 0.0
C570 C 0.75551 0.71332 0.24704 0.0
H571 H 0.68082 0.68749 0.09281 0.0
H572 H 0.70635 0.70631 0.1564 0.0
H573 H 0.70986 0.70574 0.0624 0.0
H574 H 0.75568 0.71956 0.06869 0.0
H575 H 0.77986 0.75792 0.11613 0.0
H576 H 0.55312 0.96946 0.17857 0.0
H577 H 0.51131 0.9548 0.21174 0.0
H578 H 0.49483 0.88968 0.14415 0.0
H579 H 0.5364 0.9042 0.11064 0.0
H580 H 0.46386 0.92653 0.12614 0.0
H581 H 0.47863 0.88815 0.35622 0.0
H582 H 0.50353 0.90923 0.31494 0.0
H583 H 0.48744 0.88162 0.27355 0.0
C584 C 0.54049 0.95204 0.17025 0.0
C585 C 0.54806 0.93796 0.14221 0.0
C586 C 0.51662 0.94369 0.18928 0.0
C587 C 0.50001 0.92111 0.18135 0.0
C588 C 0.50741 0.90713 0.15173 0.0
H589 H 0.35557 0.82506 0.24862 0.0
H590 H 0.39795 0.84774 0.22503 0.0
C591 C 0.53116 0.91545 0.13236 0.0
C592 C 0.47506 0.91194 0.20508 0.0
H593 H 0.4375 0.87742 0.31892 0.0
C594 C 0.45812 0.91601 0.16889 0.0
C595 C 0.46764 0.89834 0.26119 0.0
C596 C 0.48528 0.89419 0.30429 0.0
C597 C 0.43363 0.90588 0.18478 0.0
C598 C 0.426 0.89162 0.2392 0.0
C599 C 0.44325 0.88828 0.27712 0.0
C600 C 0.39988 0.87837 0.2534 0.0
C601 C 0.41585 0.90969 0.14094 0.0
C602 C 0.38664 0.88797 0.27773 0.0
C603 C 0.36212 0.87489 0.29138 0.0
C604 C 0.35056 0.85204 0.28113 0.0
C605 C 0.36392 0.8426 0.25716 0.0
C606 C 0.38823 0.85557 0.24364 0.0
H607 H 0.42352 0.91784 0.09259 0.0
H608 H 0.39865 0.89404 0.12386 0.0
H609 H 0.41125 0.92023 0.17409 0.0
H610 H 0.39531 0.90552 0.28684 0.0
H611 H 0.35226 0.88259 0.30985 0.0
H612 H 0.58394 0.05237 0.10906 0.0
H613 H 0.56485 0.07183 0.06087 0.0
H614 H 0.50837 0.01221 0.94113 0.0
H615 H 0.52736 0.99258 0.98958 0.0
H616 H 0.55884 0.07406 0.91172 0.0
H617 H 0.47068 0.0394 0.03155 0.0
H618 H 0.49612 0.03743 0.06908 0.0
H619 H 0.47739 0.01985 0.99094 0.0
C620 C 0.56715 0.04331 0.0737 0.0
C621 C 0.55711 0.02099 0.05291 0.0
C622 C 0.55632 0.05446 0.04609 0.0
C623 C 0.53517 0.04345 -0.00231 0.0
C624 C 0.52449 0.02094 0.97921 0.0
H625 H 0.48469 0.10087 0.68639 0.0
H626 H 0.49933 0.0795 0.74655 0.0
C627 C 0.53537 0.00976 0.00677 0.0
C628 C 0.52573 0.05595 0.96173 0.0
H629 H 0.47647 0.06259 0.94031 0.0
C630 C 0.54085 0.07159 0.91804 0.0
C631 C 0.50231 0.05272 0.97041 0.0
C632 C 0.48568 0.03657 0.01845 0.0
C633 C 0.53311 0.08403 0.8823 0.0
C634 C 0.50954 0.08056 0.88997 0.0
C635 C 0.49447 0.06507 0.93421 0.0
C636 C 0.50044 0.09322 0.85347 0.0
C637 C 0.55033 0.10102 0.83744 0.0
C638 C 0.49598 0.10777 0.8938 0.0
C639 C 0.48773 0.12001 0.85962 0.0
C640 C 0.48362 0.11772 0.78459 0.0
C641 C 0.48789 0.10302 0.74427 0.0
C642 C 0.49626 0.09085 0.7785 0.0
H643 H 0.56942 0.1048 0.84908 0.0
H644 H 0.5445 0.09488 0.77994 0.0
H645 H 0.54992 0.11631 0.84671 0.0
H646 H 0.49907 0.10978 0.95171 0.0
H647 H 0.48441 0.13114 0.89195 0.0
H648 H 0.96354 0.23497 0.62449 0.0
H649 H 0.96791 0.26952 0.67056 0.0
H650 H 0.90648 0.23547 0.79213 0.0
H651 H 0.90195 0.2007 0.74684 0.0
H652 H 0.93472 0.28676 0.67756 0.0
H653 H 0.96748 0.27421 0.94163 0.0
H654 H 0.96495 0.25835 0.85978 0.0
H655 H 0.938 0.25308 0.9005 0.0
C656 C 0.95062 0.23472 0.65992 0.0
C657 C 0.93268 0.2151 0.68305 0.0
C658 C 0.9531 0.25449 0.68593 0.0
C659 C 0.93775 0.25496 0.73546 0.0
C660 C 0.91864 0.23535 0.75447 0.0
H661 H 0.96419 0.38154 0.92812 0.0
H662 H 0.94203 0.34282 0.88152 0.0
C663 C 0.91608 0.21552 0.72835 0.0
C664 C 0.94373 0.27604 0.77287 0.0
H665 H 0.97094 0.30811 0.93077 0.0
C666 C 0.94219 0.29136 0.73329 0.0
C667 C 0.95371 0.28191 0.84536 0.0
C668 C 0.95634 0.26615 0.88954 0.0
C669 C 0.95115 0.31274 0.7639 0.0
C670 C 0.96182 0.31875 0.83559 0.0
C671 C 0.96257 0.30325 0.8759 0.0
C672 C 0.97472 0.34162 0.86707 0.0
C673 C 0.95035 0.32911 0.71866 0.0
C674 C 1.00031 0.3534 0.87545 0.0
C675 C 1.01294 0.37538 0.90167 0.0
C676 C 1.0001 0.38579 0.92039 0.0
C677 C 0.97445 0.3738 0.91405 0.0
C678 C 0.96181 0.3518 0.88729 0.0
H679 H 0.943 0.32218 0.66227 0.0
H680 H 0.93864 0.33481 0.74149 0.0
H681 H 0.96895 0.34355 0.71924 0.0
H682 H 1.0105 0.34569 0.86016 0.0
H683 H 0.03271 0.3843 0.90619 0.0
H684 H 0.85227 0.62844 0.84971 0.0
H685 H 0.81173 0.60726 0.89173 0.0
H686 H 0.78918 0.55971 0.70824 0.0
H687 H 0.82972 0.58067 0.66661 0.0
H688 H 0.76568 0.59514 0.82616 0.0
H689 H 0.7711 0.52193 0.8734 0.0
H690 H 0.79757 0.54759 0.85991 0.0
H691 H 0.77698 0.52972 0.78454 0.0
C692 C 0.8387 0.61339 0.81862 0.0
C693 C 0.84424 0.60613 0.75512 0.0
C694 C 0.8155 0.60133 0.84257 0.0
C695 C 0.79742 0.58169 0.80379 0.0
C696 C 0.80291 0.57454 0.73999 0.0
H697 H 0.64807 0.48184 0.83371 0.0
H698 H 0.6889 0.50639 0.80016 0.0
C699 C 0.82608 0.58658 0.71605 0.0
C700 C 0.77275 0.56877 0.82941 0.0
H701 H 0.73204 0.51833 0.87567 0.0
C702 C 0.75838 0.5784 0.83752 0.0
C703 C 0.7632 0.54694 0.84465 0.0
C704 C 0.77808 0.53597 0.84091 0.0
C705 C 0.73446 0.56655 0.85782 0.0
C706 C 0.72475 0.54455 0.87153 0.0
C707 C 0.73934 0.53512 0.86477 0.0
C708 C 0.69926 0.53064 0.8905 0.0
C709 C 0.71954 0.57747 0.86201 0.0
C710 C 0.6912 0.53609 0.9523 0.0
C711 C 0.66766 0.52202 0.9715 0.0
C712 C 0.65189 0.50217 0.92959 0.0
C713 C 0.65985 0.49696 0.86733 0.0
C714 C 0.68322 0.511 0.84807 0.0
H715 H 0.72716 0.59222 0.83279 0.0
H716 H 0.70031 0.56611 0.83968 0.0
H717 H 0.71954 0.58259 0.91891 0.0
H718 H 0.7033 0.55092 0.98677 0.0
H719 H 0.66206 0.52639 0.02001 0.0
H720 H 0.99413 0.63113 0.69248 0.0
H721 H 1.0058 0.60542 0.7305 0.0
H722 H 0.93128 0.56045 0.76689 0.0
H723 H 0.91954 0.58653 0.73116 0.0
H724 H 0.96154 0.56341 0.87487 0.0
H725 H 0.99594 0.5512 0.6234 0.0
H726 H 1.01124 0.57941 0.65755 0.0
H727 H 0.979 0.56509 0.62892 0.0
C728 C 0.9801 0.61568 0.70776 0.0
C729 C 0.95582 0.61084 0.70814 0.0
C730 C 0.98682 0.6009 0.72919 0.0
C731 C 0.96936 0.58074 0.75014 0.0
C732 C 0.94508 0.57584 0.75054 0.0
H733 H 0.99607 0.47416 0.79987 0.0
H734 H 0.98279 0.49869 0.75929 0.0
C735 C 0.93837 0.59075 0.72992 0.0
C736 C 0.97667 0.56521 0.77433 0.0
H737 H 1.00666 0.5388 0.72676 0.0
C738 C 0.97124 0.5579 0.84223 0.0
C739 C 0.98905 0.55774 0.73149 0.0
C740 C 0.99391 0.56358 0.65602 0.0
C741 C 0.97817 0.54366 0.86888 0.0
C742 C 0.99161 0.53705 0.82746 0.0
C743 C 0.99668 0.54408 0.75908 0.0
C744 C 0.99993 0.5223 0.85282 0.0
C745 C 0.97047 0.53548 0.94045 0.0
C746 C 1.01434 0.52748 0.9185 0.0
C747 C 0.02162 0.51324 0.94233 0.0
C748 C 1.01508 0.49383 0.90015 0.0
C749 C 1.00128 0.48897 0.83365 0.0
C750 C 0.99373 0.50302 0.81033 0.0
H751 H 0.95439 0.53656 0.95433 0.0
H752 H 0.96586 0.5183 0.94097 0.0
H753 H 0.98568 0.54568 0.98271 0.0
H754 H 0.02001 0.54253 0.95139 0.0
H755 H 0.03229 0.5174 0.99374 0.0
H756 H 0.59409 0.39839 0.02856 0.0
H757 H 0.58446 0.36099 0.99565 0.0
H758 H 0.51388 0.34472 0.89644 0.0
H759 H 0.5234 0.38211 0.92891 0.0
H760 H 0.51673 0.31229 0.98671 0.0
H761 H 0.58046 0.34115 0.77451 0.0
H762 H 0.59152 0.35481 0.86387 0.0
H763 H 0.56849 0.35716 0.81292 0.0
C764 C 0.57634 0.38671 0.00091 0.0
C765 C 0.5595 0.39306 0.98073 0.0
C766 C 0.57095 0.36544 0.98203 0.0
C767 C 0.54863 0.35032 0.94307 0.0
C768 C 0.53124 0.35628 0.92646 0.0
H769 H 0.4816 0.23835 0.65635 0.0
H770 H 0.5049 0.275 0.71912 0.0
C771 C 0.53666 0.37757 0.945 0.0
C772 C 0.5439 0.32872 0.91478 0.0
H773 H 0.55646 0.30335 0.77848 0.0
C774 C 0.52568 0.31024 0.94209 0.0
C775 C 0.55564 0.32633 0.85635 0.0
C776 C 0.57506 0.34584 0.82461 0.0
C777 C 0.51818 0.28926 0.91059 0.0
C778 C 0.52934 0.28687 0.8506 0.0
C779 C 0.5482 0.30535 0.82496 0.0
C780 C 0.51924 0.26559 0.80811 0.0
C781 C 0.49744 0.26983 0.93899 0.0
C782 C 0.52055 0.24846 0.83614 0.0
C783 C 0.5073 0.22745 0.80023 0.0
C784 C 0.49249 0.22339 0.73617 0.0
C785 C 0.49267 0.24094 0.70592 0.0
C786 C 0.50601 0.26189 0.74156 0.0
H787 H 0.48898 0.2747 0.98073 0.0
H788 H 0.48312 0.25935 0.89477 0.0
H789 H 0.50437 0.25992 0.96276 0.0
H790 H 0.53089 0.25114 0.88726 0.0
H791 H 0.50749 0.21424 0.82492 0.0
H792 H 0.82682 0.11963 0.71355 0.0
H793 H 0.78952 0.09724 0.76988 0.0
H794 H 0.82452 0.06747 0.87968 0.0
H795 H 0.86212 0.09029 0.82472 0.0
H796 H 0.76043 0.05325 0.75957 0.0
H797 H 0.79751 0.08494 0.04338 0.0
H798 H 0.81396 0.09823 0.96955 0.0
H799 H 0.81344 0.07427 -0.0042 0.0
C800 C 0.8266 0.10841 0.75007 0.0
C801 C 0.84738 0.10675 0.76497 0.0
C802 C 0.80526 0.09558 0.78214 0.0
C803 C 0.80423 0.08082 0.82985 0.0
C804 C 0.82497 0.07904 0.84439 0.0
H805 H 0.67536 0.99385 0.05143 0.0
H806 H 0.71476 0.0084 5e-05 0.0
C807 C 0.8464 0.09198 0.81257 0.0
C808 C 0.7812 0.06709 0.86264 0.0
H809 H 0.75633 0.05649 0.02227 0.0
C810 C 0.75962 0.05387 0.81705 0.0
C811 C 0.78008 0.06775 0.93775 0.0
C812 C 0.80241 0.08218 0.9896 0.0
C813 C 0.73697 0.0418 0.84428 0.0
C814 C 0.73575 0.04299 0.91907 0.0
C815 C 0.75737 0.05549 0.96494 0.0
C816 C 0.71195 0.03357 0.94974 0.0
C817 C 0.71434 0.02826 0.79276 0.0
C818 C 0.69751 0.04295 0.93883 0.0
C819 C 0.6754 0.0349 0.96864 0.0
C820 C 0.66709 0.01718 0.00982 0.0
C821 C 0.68137 0.00755 0.02023 0.0
C822 C 0.70382 0.01584 0.99091 0.0
H823 H 0.7188 0.02464 0.7393 0.0
H824 H 0.7017 0.01266 0.81387 0.0
H825 H 0.7047 0.0374 0.78586 0.0
H826 H 0.7035 0.05673 0.90775 0.0
H827 H 0.66478 0.04265 0.95939 0.0
H828 H 0.63668 0.90308 0.11544 0.0
H829 H 0.66263 0.88769 0.14122 0.0
H830 H 0.72342 0.95209 0.21134 0.0
H831 H 0.69742 0.96753 0.18648 0.0
H832 H 0.70563 0.89626 0.08439 0.0
H833 H 0.72207 0.91789 0.37923 0.0
H834 H 0.69843 0.91883 0.32496 0.0
H835 H 0.72972 0.94028 0.327 0.0
C836 C 0.65556 0.91394 0.13656 0.0
C837 C 0.66502 0.93648 0.14933 0.0
C838 C 0.67037 0.90514 0.15121 0.0
C839 C 0.69488 0.91868 0.17923 0.0
C840 C 0.70444 0.94126 0.19117 0.0
H841 H 0.80544 0.88325 0.29265 0.0
H842 H 0.78545 0.90433 0.26924 0.0
C843 C 0.68962 0.95008 0.17655 0.0
C844 C 0.71041 0.9091 0.19448 0.0
H845 H 0.74272 0.9014 0.32924 0.0
C846 C 0.71377 0.89744 0.13791 0.0
C847 C 0.72119 0.91074 0.26428 0.0
C848 C 0.71757 0.92245 0.32759 0.0
C849 C 0.72739 0.88724 0.14928 0.0
C850 C 0.73765 0.88843 0.2193 0.0
C851 C 0.73486 0.90054 0.27562 0.0
C852 C 0.74991 0.87599 0.23556 0.0
C853 C 0.7307 0.87523 0.0862 0.0
C854 C 0.73649 0.85314 0.22573 0.0
C855 C 0.7478 0.84119 0.23974 0.0
C856 C 0.77274 0.85181 0.26425 0.0
C857 C 0.78616 0.87468 0.27494 0.0
C858 C 0.77478 0.8867 0.26115 0.0
H859 H 0.72761 0.88072 0.0347 0.0
H860 H 0.74931 0.87754 0.09076 0.0
H861 H 0.7173 0.85754 0.08476 0.0
H862 H 0.71721 0.84453 0.20712 0.0
H863 H 0.73697 0.82357 0.23105 0.0
H864 H 0.2413 0.74507 0.16214 0.0
H865 H 0.21023 0.70676 0.12899 0.0
H866 H 0.18736 0.70197 0.34175 0.0
H867 H 0.2184 0.74054 0.37536 0.0
H868 H 0.19816 0.66752 0.27154 0.0
H869 H 0.13277 0.68249 0.11259 0.0
H870 H 0.16455 0.69868 0.09877 0.0
H871 H 0.15468 0.70202 0.18354 0.0
C872 C 0.22973 0.73583 0.20196 0.0
C873 C 0.23216 0.74563 0.27126 0.0
C874 C 0.21196 0.71405 0.18284 0.0
C875 C 0.19646 0.7018 0.23279 0.0
C876 C 0.19915 0.71136 0.30257 0.0
H877 H 0.09303 0.56247 0.19867 0.0
H878 H 0.1174 0.60118 0.24214 0.0
C879 C 0.21686 0.73325 0.32167 0.0
C880 C 0.17777 0.67884 0.2118 0.0
H881 H 0.12455 0.64617 0.10539 0.0
C882 C 0.1819 0.66274 0.23591 0.0
C883 C 0.15685 0.67293 0.16477 0.0
C884 C 0.15172 0.68987 0.1385 0.0
C885 C 0.16586 0.64069 0.21237 0.0
C886 C 0.14487 0.6347 0.16509 0.0
C887 C 0.14061 0.65086 0.14181 0.0
C888 C 0.12757 0.61175 0.13772 0.0
C889 C 0.17206 0.62412 0.23616 0.0
C890 C 0.12411 0.6051 0.06409 0.0
C891 C 0.10986 0.58301 0.03896 0.0
C892 C 0.09907 0.56741 0.08737 0.0
C893 C 0.10144 0.57423 0.16045 0.0
C894 C 0.11543 0.59627 0.18538 0.0
H895 H 0.19162 0.63182 0.25672 0.0
H896 H 0.16096 0.61592 0.28 0.0
H897 H 0.16793 0.61149 0.19146 0.0
H898 H 0.13322 0.61689 0.02649 0.0
H899 H 0.10821 0.57808 0.98233 0.0
H900 H 0.52047 0.49559 0.048 0.0
H901 H 0.47867 0.47352 0.0776 0.0
H902 H 0.48333 0.41557 0.04394 0.0
H903 H 0.52584 0.43797 0.01617 0.0
H904 H 0.43877 0.44186 -0.00043 0.0
H905 H 0.45777 0.4085 0.23791 0.0
H906 H 0.48173 0.43041 0.19671 0.0
H907 H 0.46798 0.40275 0.15688 0.0
C908 C 0.51265 0.47814 0.04692 0.0
C909 C 0.52648 0.46852 0.02977 0.0
C910 C 0.48868 0.4655 0.06386 0.0
C911 C 0.47778 0.44285 0.0641 0.0
C912 C 0.49142 0.43306 0.04578 0.0
H913 H 0.32573 0.35122 0.14442 0.0
H914 H 0.36752 0.36649 0.11065 0.0
C915 C 0.51563 0.44582 0.02918 0.0
C916 C 0.45207 0.42987 0.08254 0.0
H917 H 0.41645 0.39697 0.20375 0.0
C918 C 0.43395 0.43199 0.04407 0.0
C919 C 0.44561 0.41691 0.14062 0.0
C920 C 0.46428 0.41459 0.18593 0.0
C921 C 0.40986 0.42191 0.06264 0.0
C922 C 0.40356 0.40938 0.12149 0.0
C923 C 0.42136 0.40663 0.15872 0.0
C924 C 0.37879 0.39985 0.14645 0.0
C925 C 0.39125 0.42485 0.01952 0.0
C926 C 0.37141 0.41347 0.17915 0.0
C927 C 0.34767 0.40479 0.19911 0.0
C928 C 0.33077 0.3823 0.1864 0.0
C929 C 0.33836 0.36861 0.15513 0.0
C930 C 0.36221 0.37729 0.13572 0.0
H931 H 0.39763 0.43136 0.9679 0.0
H932 H 0.37369 0.40913 0.00835 0.0
H933 H 0.38773 0.43648 0.05078 0.0
H934 H 0.38396 0.4309 0.18838 0.0
H935 H 0.3424 0.41575 0.22313 0.0
H936 H 0.89042 0.69631 0.68361 0.0
H937 H 0.87766 0.72119 0.64316 0.0
H938 H 0.93623 0.74722 0.5074 0.0
H939 H 0.9495 0.72275 0.54883 0.0
H940 H 0.93214 0.77914 0.57646 0.0
H941 H 0.8409 0.71424 0.45218 0.0
H942 H 0.84614 0.71195 0.54511 0.0
H943 H 0.86445 0.70872 0.48174 0.0
C944 C 0.90067 0.70737 0.64533 0.0
C945 C 0.92096 0.70745 0.61931 0.0
C946 C 0.89321 0.72148 0.62178 0.0
C947 C 0.90561 0.73573 0.57092 0.0
C948 C 0.92625 0.73626 0.54628 0.0
H949 H 0.85062 0.80391 0.32173 0.0
H950 H 0.86325 0.77882 0.36279 0.0
C951 C 0.93386 0.72227 0.57021 0.0
C952 C 0.89726 0.75027 0.54396 0.0
H953 H 0.84798 0.75039 0.46305 0.0
C954 C 0.91376 0.77284 0.55144 0.0
C955 C 0.8734 0.74204 0.51013 0.0
C956 C 0.85527 0.71791 0.49607 0.0
C957 C 0.90697 0.78742 0.52731 0.0
C958 C 0.88278 0.77927 0.49637 0.0
C959 C 0.86641 0.75667 0.4876 0.0
C960 C 0.87422 0.79393 0.47218 0.0
C961 C 0.92597 0.81138 0.53395 0.0
C962 C 0.87554 0.81039 0.52034 0.0
C963 C 0.86856 0.8248 0.49684 0.0
C964 C 0.85978 0.82284 0.42495 0.0
C965 C 0.85749 0.80585 0.37734 0.0
C966 C 0.86468 0.79152 0.40077 0.0
H967 H 0.94478 0.81413 0.53852 0.0
H968 H 0.92374 0.81921 0.4872 0.0
H969 H 0.924 0.81956 0.58302 0.0
H970 H 0.88211 0.81218 0.57613 0.0
H971 H 0.87014 0.83756 0.53493 0.0
H972 H 0.36248 0.10229 0.52518 0.0
H973 H 0.33817 0.06445 0.47155 0.0
H974 H 0.36627 0.04411 0.64555 0.0
H975 H 0.39055 0.08175 0.69952 0.0
H976 H 0.36346 0.04288 0.43126 0.0
H977 H 0.29332 0.9962 0.61172 0.0
H978 H 0.30758 0.0254 0.61146 0.0
H979 H 0.32319 0.01397 0.65785 0.0
C980 C 0.36285 0.08967 0.55329 0.0
C981 C 0.37859 0.09499 0.61623 0.0
C982 C 0.34901 0.0681 0.52243 0.0
C983 C 0.3504 0.05156 0.55481 0.0
C984 C 0.36469 0.05662 0.62033 0.0
H985 H 0.35175 0.9375 0.41947 0.0
H986 H 0.36022 0.97442 0.45572 0.0
C987 C 0.37868 0.07817 0.65084 0.0
C988 C 0.34018 0.02976 0.5156 0.0
H989 H 0.30453 0.97559 0.53288 0.0
C990 C 0.35019 0.02815 0.4526 0.0
C991 C 0.32288 0.01065 0.54362 0.0
C992 C 0.31093 0.01158 0.60955 0.0
C993 C 0.34435 0.00783 0.41903 0.0
C994 C 0.32821 0.9888 0.44956 0.0
C995 C 0.31712 0.99032 0.51018 0.0
C996 C 0.32367 0.96722 0.42183 0.0
C997 C 0.35592 0.00683 0.35228 0.0
C998 C 0.30043 0.95119 0.39049 0.0
C999 C 0.29564 0.93025 0.36937 0.0
C1000 C 0.31396 0.92501 0.3803 0.0
C1001 C 0.33739 0.9412 0.4103 0.0
C1002 C 0.34222 0.96222 0.43085 0.0
H1003 H 0.36354 0.0223 0.32691 0.0
H1004 H 0.37103 0.00385 0.36642 0.0
H1005 H 0.34242 0.99322 0.31271 0.0
H1006 H 0.28592 0.95481 0.38348 0.0
H1007 H 0.27739 0.91799 0.34655 0.0
H1008 H 0.02085 0.19457 0.45933 0.0
H1009 H 0.05932 0.21731 0.40899 0.0
H1010 H 0.08643 0.2618 0.60205 0.0
H1011 H 0.04798 0.2388 0.65329 0.0
H1012 H 0.08272 0.26057 0.38126 0.0
H1013 H 0.13964 0.24676 0.58185 0.0
H1014 H 0.10673 0.23072 0.57241 0.0
H1015 H 0.12226 0.25779 0.61819 0.0
C1016 C 0.03502 0.20919 0.49112 0.0
C1017 C 0.03153 0.21482 0.56051 0.0
C1018 C 0.05697 0.22222 0.46217 0.0
C1019 C 0.07593 0.24113 0.502 0.0
C1020 C 0.07226 0.24708 0.57079 0.0
H1021 H 0.21019 0.33138 0.30848 0.0
H1022 H 0.17204 0.31738 0.36568 0.0
C1023 C 0.05027 0.23399 0.59991 0.0
C1024 C 0.09959 0.25418 0.47151 0.0
H1025 H 0.1599 0.26948 0.49346 0.0
C1026 C 0.09966 0.26271 0.40608 0.0
C1027 C 0.12167 0.25684 0.50372 0.0
C1028 C 0.12269 0.24742 0.5726 0.0
C1029 C 0.12104 0.27339 0.37131 0.0
C1030 C 0.143 0.27577 0.40312 0.0
C1031 C 0.14307 0.26774 0.46936 0.0
C1032 C 0.16552 0.28458 0.36566 0.0
C1033 C 0.11978 0.28121 0.29941 0.0
C1034 C 0.17457 0.27091 0.34683 0.0
C1035 C 0.19614 0.27886 0.31405 0.0
C1036 C 0.20925 0.30069 0.29924 0.0
C1037 C 0.20016 0.31441 0.31748 0.0
C1038 C 0.17844 0.30642 0.3505 0.0
H1039 H 0.10067 0.27499 0.27687 0.0
H1040 H 0.12957 0.29928 0.30524 0.0
H1041 H 0.12884 0.27601 0.26074 0.0
H1042 H 0.16497 0.25404 0.35798 0.0
H1043 H 0.20273 0.2679 0.30099 0.0
H1044 H 0.35461 0.18146 0.55935 0.0
H1045 H 0.33965 0.20147 0.49227 0.0
H1046 H 0.40909 0.23684 0.40656 0.0
H1047 H 0.4239 0.2166 0.4722 0.0
H1048 H 0.35832 0.24535 0.50744 0.0
H1049 H 0.3616 0.21819 0.22788 0.0
H1050 H 0.36362 0.20442 0.30296 0.0
H1051 H 0.38998 0.22908 0.283 0.0
C1052 C 0.36653 0.19331 0.52546 0.0
C1053 C 0.39037 0.19752 0.52088 0.0
C1054 C 0.35801 0.20473 0.48727 0.0
C1055 C 0.37316 0.22046 0.44371 0.0
C1056 C 0.3969 0.22446 0.43854 0.0
H1057 H 0.34991 0.32452 0.31802 0.0
H1058 H 0.36835 0.30409 0.36306 0.0
C1059 C 0.4054 0.21301 0.47651 0.0
C1060 C 0.36466 0.23364 0.40751 0.0
H1061 H 0.35515 0.24814 0.24439 0.0
C1062 C 0.35757 0.24591 0.4499 0.0
C1063 C 0.36356 0.23424 0.33238 0.0
C1064 C 0.36987 0.22062 0.28375 0.0
C1065 C 0.3495 0.25886 0.41938 0.0
C1066 C 0.34903 0.25995 0.34448 0.0
C1067 C 0.35591 0.24754 0.3019 0.0
C1068 C 0.34007 0.27295 0.30937 0.0
C1069 C 0.341 0.27085 0.46751 0.0
C1070 C 0.31884 0.26243 0.26121 0.0
C1071 C 0.30845 0.27409 0.23491 0.0
C1072 C 0.31916 0.29647 0.25633 0.0
C1073 C 0.34124 0.30726 0.30099 0.0
C1074 C 0.35167 0.29559 0.3271 0.0
H1075 H 0.33705 0.26423 0.52018 0.0
H1076 H 0.35552 0.28828 0.47736 0.0
H1077 H 0.3243 0.26989 0.4421 0.0
H1078 H 0.30968 0.24501 0.24653 0.0
H1079 H 0.29144 0.26539 0.2004 0.0
H1080 H 0.84682 0.93531 0.41006 0.0
H1081 H 0.86994 0.97441 0.44935 0.0
H1082 H 0.93745 0.9745 0.44325 0.0
H1083 H 0.91438 0.9353 0.40297 0.0
H1084 H 0.92841 0.99388 0.57939 0.0
H1085 H 0.91648 0.02575 0.3277 0.0
H1086 H 0.88938 0.00252 0.3519 0.0
H1087 H 0.91467 -0.00028 0.32912 0.0
C1088 C 0.86659 0.94372 0.41642 0.0
C1089 C 0.87889 0.93243 0.40353 0.0
C1090 C 0.87973 0.96598 0.43862 0.0
C1091 C 0.9053 0.9772 0.44857 0.0
C1092 C 0.91769 0.96602 0.43536 0.0
H1093 H 0.97348 0.11792 0.55088 0.0
H1094 H 0.9709 0.08362 0.51031 0.0
C1095 C 0.90454 0.94375 0.41234 0.0
C1096 C 0.91876 0.00041 0.47608 0.0
H1097 H 0.92782 0.04954 0.43567 0.0
C1098 C 0.92881 0.00622 0.54777 0.0
C1099 C 0.91942 0.01636 0.4342 0.0
C1100 C 0.90961 0.0109 0.3562 0.0
C1101 C 0.93804 0.02745 0.58019 0.0
C1102 C 0.93696 0.04299 0.53971 0.0
C1103 C 0.92851 0.03752 0.46664 0.0
C1104 C 0.94158 0.06408 0.5734 0.0
C1105 C 0.94809 0.03289 0.65796 0.0
C1106 C 0.92615 0.06439 0.62305 0.0
C1107 C 0.92743 0.08387 0.646 0.0
C1108 C 0.94414 0.10338 0.61947 0.0
C1109 C 0.96042 0.10319 0.57245 0.0
C1110 C 0.95901 0.08363 0.54918 0.0
H1111 H 0.95475 0.02199 0.67447 0.0
H1112 H 0.96328 0.05007 0.66881 0.0
H1113 H 0.93338 0.03064 0.69147 0.0
H1114 H 0.91225 0.04937 0.64124 0.0
H1115 H 0.91471 0.08348 0.68246 0.0
H1116 H 0.02499 0.6905 0.48133 0.0
H1117 H 0.06619 0.71093 0.44296 0.0
H1118 H 0.08842 0.75816 0.62718 0.0
H1119 H 0.04735 0.73772 0.66597 0.0
H1120 H 0.0935 0.7543 0.41057 0.0
H1121 H 0.14015 0.74029 0.64101 0.0
H1122 H 0.10742 0.72481 0.61974 0.0
H1123 H 0.12197 0.75178 0.66616 0.0
C1124 C 0.03867 0.70527 0.51355 0.0
C1125 C 0.03297 0.71246 0.57687 0.0
C1126 C 0.06221 0.71693 0.49157 0.0
C1127 C 0.0806 0.7359 0.53277 0.0
C1128 C 0.07475 0.74334 0.59523 0.0
H1129 H 0.23162 0.83339 0.51436 0.0
H1130 H 0.19017 0.8092 0.54433 0.0
C1131 C 0.0512 0.73173 0.61711 0.0
C1132 C 0.10581 0.74802 0.51025 0.0
H1133 H 0.16565 0.76636 0.56572 0.0
C1134 C 0.10927 0.7568 0.44419 0.0
C1135 C 0.12642 0.75123 0.55395 0.0
C1136 C 0.12388 0.74137 0.62387 0.0
C1137 C 0.13277 0.76936 0.42193 0.0
C1138 C 0.15344 0.77288 0.46623 0.0
C1139 C 0.14989 0.76372 0.53167 0.0
C1140 C 0.17896 0.78698 0.44777 0.0
C1141 C 0.13529 0.77944 0.35245 0.0
C1142 C 0.18684 0.78239 0.38408 0.0
C1143 C 0.21064 0.79636 0.36657 0.0
C1144 C 0.22706 0.81506 0.41276 0.0
C1145 C 0.21938 0.8192 0.47739 0.0
C1146 C 0.19565 0.80533 0.49469 0.0
H1147 H 0.11859 0.77967 0.33391 0.0
H1148 H 0.15109 0.79638 0.35803 0.0
H1149 H 0.13837 0.76975 0.31046 0.0
H1150 H 0.17458 0.76806 0.34774 0.0
H1151 H 0.21607 0.79268 0.31657 0.0
loop_
_geom_bond_atom_site_label_1
_geom_bond_atom_site_label_2
_geom_bond_distance
_geom_bond_site_symmetry_2
_ccdc_geom_bond_type
Tb0 O3 2.453 1_455 S
Tb0 O4 2.596 . S
Tb0 O5 2.374 1_554 S
Tb0 O13 2.343 . S
Tb0 O15 2.353 . S
Tb0 O17 2.427 1_455 S
Tb0 O18 2.513 1_554 S
C1 O5 1.251 . S
C1 O7 1.263 . S
Tb2 O4 2.343 . S
Tb2 O7 2.353 1_554 S
Tb2 O10 2.427 . S
Tb2 O11 2.513 . S
Tb2 O12 2.453 . S
Tb2 O13 2.596 . S
Tb2 O14 2.374 . S
O3 Tb0 2.453 1_655 S
O3 C19 1.245 1_655 S
O4 Tb0 2.596 . S
O4 Tb2 2.343 . S
O4 C19 1.259 . S
O5 Tb0 2.374 1_556 S
O5 C1 1.251 . S
C6 O10 1.275 . S
C6 O11 1.246 . S
O7 C1 1.263 . S
O7 Tb2 2.353 1_556 S
C8 O12 1.245 . S
C8 O13 1.259 . S
C9 O14 1.250 . S
C9 O15 1.263 . S
O10 Tb2 2.427 . S
O10 C6 1.275 . S
O11 Tb2 2.513 . S
O11 C6 1.246 . S
O12 Tb2 2.453 . S
O12 C8 1.245 . S
O13 Tb0 2.343 . S
O13 Tb2 2.596 . S
O13 C8 1.259 . S
O14 Tb2 2.374 . S
O14 C9 1.250 . S
O15 Tb0 2.353 . S
O15 C9 1.263 . S
C16 O17 1.275 . S
C16 O18 1.246 1_654 S
O17 Tb0 2.427 1_655 S
O17 C16 1.275 . S
O18 Tb0 2.513 1_556 S
O18 C16 1.246 1_456 S
C19 O3 1.245 1_455 S
C19 O4 1.259 . S
Tb20 O23 2.453 . S
Tb20 O24 2.596 . S
Tb20 O25 2.374 . S
Tb20 O33 2.343 . S
Tb20 O35 2.353 1_554 S
Tb20 O37 2.427 . S
Tb20 O38 2.513 . S
C21 O25 1.251 . S
C21 O27 1.263 . S
Tb22 O24 2.343 . S
Tb22 O27 2.353 . S
Tb22 O30 2.427 . S
Tb22 O31 2.513 . S
Tb22 O32 2.453 . S
Tb22 O33 2.596 . S
Tb22 O34 2.374 1_554 S
O23 Tb20 2.453 . S
O23 C39 1.245 . S
O24 Tb20 2.596 . S
O24 Tb22 2.343 . S
O24 C39 1.259 . S
O25 Tb20 2.374 . S
O25 C21 1.251 . S
C26 O30 1.275 . S
C26 O31 1.246 . S
O27 C21 1.263 . S
O27 Tb22 2.353 . S
C28 O32 1.245 . S
C28 O33 1.259 . S
C29 O34 1.250 . S
C29 O35 1.263 . S
O30 Tb22 2.427 . S
O30 C26 1.275 . S
O31 Tb22 2.513 . S
O31 C26 1.246 . S
O32 Tb22 2.453 . S
O32 C28 1.245 . S
O33 Tb20 2.343 . S
O33 Tb22 2.596 . S
O33 C28 1.259 . S
O34 Tb22 2.374 1_556 S
O34 C29 1.250 . S
O35 Tb20 2.353 1_556 S
O35 C29 1.263 . S
C36 O37 1.275 . S
C36 O38 1.246 . S
O37 Tb20 2.427 . S
O37 C36 1.275 . S
O38 Tb20 2.513 . S
O38 C36 1.246 . S
C39 O23 1.245 . S
C39 O24 1.259 . S
Tb40 O43 2.453 . S
Tb40 O44 2.596 . S
Tb40 O45 2.374 . S
Tb40 O53 2.343 . S
Tb40 O55 2.353 . S
Tb40 O57 2.427 . S
Tb40 O58 2.513 . S
C41 O45 1.251 1_556 S
C41 O47 1.263 1_556 S
Tb42 O44 2.343 1_565 S
Tb42 O47 2.353 1_565 S
Tb42 O50 2.427 . S
Tb42 O51 2.513 1_565 S
Tb42 O52 2.453 . S
Tb42 O53 2.596 1_565 S
Tb42 O54 2.374 1_565 S
O43 Tb40 2.453 . S
O43 C59 1.245 . S
O44 Tb40 2.596 . S
O44 Tb42 2.343 1_545 S
O44 C59 1.259 . S
O45 Tb40 2.374 . S
O45 C41 1.251 1_554 S
C46 O50 1.275 . S
C46 O51 1.246 1_565 S
O47 C41 1.263 1_554 S
O47 Tb42 2.353 1_545 S
C48 O52 1.245 1_545 S
C48 O53 1.259 . S
C49 O54 1.250 . S
C49 O55 1.263 . S
O50 Tb42 2.427 . S
O50 C46 1.275 . S
O51 Tb42 2.513 1_545 S
O51 C46 1.246 1_545 S
O52 Tb42 2.453 . S
O52 C48 1.245 1_565 S
O53 Tb40 2.343 . S
O53 Tb42 2.596 1_545 S
O53 C48 1.259 . S
O54 Tb42 2.374 1_545 S
O54 C49 1.250 . S
O55 Tb40 2.353 . S
O55 C49 1.263 . S
C56 O57 1.275 . S
C56 O58 1.246 . S
O57 Tb40 2.427 . S
O57 C56 1.275 . S
O58 Tb40 2.513 . S
O58 C56 1.246 . S
C59 O43 1.245 . S
C59 O44 1.259 . S
Tb60 O63 2.453 . S
Tb60 O64 2.596 . S
Tb60 O65 2.374 . S
Tb60 O73 2.343 . S
Tb60 O75 2.353 . S
Tb60 O77 2.427 . S
Tb60 O78 2.513 . S
C61 O65 1.251 . S
C61 O67 1.263 . S
Tb62 O64 2.343 . S
Tb62 O67 2.353 . S
Tb62 O70 2.427 . S
Tb62 O71 2.513 . S
Tb62 O72 2.453 . S
Tb62 O73 2.596 . S
Tb62 O74 2.374 . S
O63 Tb60 2.453 . S
O63 C79 1.245 . S
O64 Tb60 2.596 . S
O64 Tb62 2.343 . S
O64 C79 1.259 . S
O65 Tb60 2.374 . S
O65 C61 1.251 . S
C66 O70 1.275 . S
C66 O71 1.246 . S
O67 C61 1.263 . S
O67 Tb62 2.353 . S
C68 O72 1.245 . S
C68 O73 1.259 . S
C69 O74 1.250 . S
C69 O75 1.263 . S
O70 Tb62 2.427 . S
O70 C66 1.275 . S
O71 Tb62 2.513 . S
O71 C66 1.246 . S
O72 Tb62 2.453 . S
O72 C68 1.245 . S
O73 Tb60 2.343 . S
O73 Tb62 2.596 . S
O73 C68 1.259 . S
O74 Tb62 2.374 . S
O74 C69 1.250 . S
O75 Tb60 2.353 . S
O75 C69 1.263 . S
C76 O77 1.275 . S
C76 O78 1.246 . S
O77 Tb60 2.427 . S
O77 C76 1.275 . S
O78 Tb60 2.513 . S
O78 C76 1.246 . S
C79 O63 1.245 . S
C79 O64 1.259 . S
Tb80 O83 2.453 . S
Tb80 O84 2.596 . S
Tb80 O85 2.374 . S
Tb80 O93 2.343 . S
Tb80 O95 2.353 . S
Tb80 O97 2.427 . S
Tb80 O98 2.513 . S
C81 O85 1.251 . S
C81 O87 1.263 . S
Tb82 O84 2.343 . S
Tb82 O87 2.353 . S
Tb82 O90 2.427 . S
Tb82 O91 2.513 . S
Tb82 O92 2.453 . S
Tb82 O93 2.596 . S
Tb82 O94 2.374 . S
O83 Tb80 2.453 . S
O83 C99 1.245 . S
O84 Tb80 2.596 . S
O84 Tb82 2.343 . S
O84 C99 1.259 . S
O85 Tb80 2.374 . S
O85 C81 1.251 . S
C86 O90 1.275 . S
C86 O91 1.246 . S
O87 C81 1.263 . S
O87 Tb82 2.353 . S
C88 O92 1.245 . S
C88 O93 1.259 . S
C89 O94 1.250 . S
C89 O95 1.263 . S
O90 Tb82 2.427 . S
O90 C86 1.275 . S
O91 Tb82 2.513 . S
O91 C86 1.246 . S
O92 Tb82 2.453 . S
O92 C88 1.245 . S
O93 Tb80 2.343 . S
O93 Tb82 2.596 . S
O93 C88 1.259 . S
O94 Tb82 2.374 . S
O94 C89 1.250 . S
O95 Tb80 2.353 . S
O95 C89 1.263 . S
C96 O97 1.275 . S
C96 O98 1.246 . S
O97 Tb80 2.427 . S
O97 C96 1.275 . S
O98 Tb80 2.513 . S
O98 C96 1.246 . S
C99 O83 1.245 . S
C99 O84 1.259 . S
Tb100 O103 2.453 . S
Tb100 O104 2.596 . S
Tb100 O105 2.374 . S
Tb100 O113 2.343 . S
Tb100 O115 2.353 . S
Tb100 O117 2.427 . S
Tb100 O118 2.513 . S
C101 O105 1.251 . S
C101 O107 1.263 . S
Tb102 O104 2.343 . S
Tb102 O107 2.353 . S
Tb102 O110 2.427 . S
Tb102 O111 2.513 . S
Tb102 O112 2.453 . S
Tb102 O113 2.596 . S
Tb102 O114 2.374 . S
O103 Tb100 2.453 . S
O103 C119 1.245 . S
O104 Tb100 2.596 . S
O104 Tb102 2.343 . S
O104 C119 1.259 . S
O105 Tb100 2.374 . S
O105 C101 1.251 . S
C106 O110 1.275 . S
C106 O111 1.246 . S
O107 C101 1.263 . S
O107 Tb102 2.353 . S
C108 O112 1.245 . S
C108 O113 1.259 . S
C109 O114 1.250 . S
C109 O115 1.263 . S
O110 Tb102 2.427 . S
O110 C106 1.275 . S
O111 Tb102 2.513 . S
O111 C106 1.246 . S
O112 Tb102 2.453 . S
O112 C108 1.245 . S
O113 Tb100 2.343 . S
O113 Tb102 2.596 . S
O113 C108 1.259 . S
O114 Tb102 2.374 . S
O114 C109 1.250 . S
O115 Tb100 2.353 . S
O115 C109 1.263 . S
C116 O117 1.275 . S
C116 O118 1.246 . S
O117 Tb100 2.427 . S
O117 C116 1.275 . S
O118 Tb100 2.513 . S
O118 C116 1.246 . S
C119 O103 1.245 . S
C119 O104 1.259 . S
Tb120 O123 2.453 . S
Tb120 O124 2.596 . S
Tb120 O125 2.374 . S
Tb120 O133 2.343 . S
Tb120 O135 2.353 . S
Tb120 O137 2.427 . S
Tb120 O138 2.513 . S
C121 O125 1.251 . S
C121 O127 1.263 . S
Tb122 O124 2.343 . S
Tb122 O127 2.353 . S
Tb122 O130 2.427 . S
Tb122 O131 2.513 . S
Tb122 O132 2.453 . S
Tb122 O133 2.596 . S
Tb122 O134 2.374 . S
O123 Tb120 2.453 . S
O123 C139 1.245 . S
O124 Tb120 2.596 . S
O124 Tb122 2.343 . S
O124 C139 1.259 . S
O125 Tb120 2.374 . S
O125 C121 1.251 . S
C126 O130 1.275 . S
C126 O131 1.246 . S
O127 C121 1.263 . S
O127 Tb122 2.353 . S
C128 O132 1.245 . S
C128 O133 1.259 . S
C129 O134 1.250 . S
C129 O135 1.263 . S
O130 Tb122 2.427 . S
O130 C126 1.275 . S
O131 Tb122 2.513 . S
O131 C126 1.246 . S
O132 Tb122 2.453 . S
O132 C128 1.245 . S
O133 Tb120 2.343 . S
O133 Tb122 2.596 . S
O133 C128 1.259 . S
O134 Tb122 2.374 . S
O134 C129 1.250 . S
O135 Tb120 2.353 . S
O135 C129 1.263 . S
C136 O137 1.275 . S
C136 O138 1.246 . S
O137 Tb120 2.427 . S
O137 C136 1.275 . S
O138 Tb120 2.513 . S
O138 C136 1.246 . S
C139 O123 1.245 . S
C139 O124 1.259 . S
Tb140 O143 2.453 . S
Tb140 O144 2.596 . S
Tb140 O145 2.374 . S
Tb140 O153 2.343 . S
Tb140 O155 2.353 . S
Tb140 O157 2.427 . S
Tb140 O158 2.513 . S
C141 O145 1.251 . S
C141 O147 1.263 . S
Tb142 O144 2.343 . S
Tb142 O147 2.353 . S
Tb142 O150 2.427 . S
Tb142 O151 2.513 . S
Tb142 O152 2.453 . S
Tb142 O153 2.596 . S
Tb142 O154 2.374 . S
O143 Tb140 2.453 . S
O143 C159 1.245 . S
O144 Tb140 2.596 . S
O144 Tb142 2.343 . S
O144 C159 1.259 . S
O145 Tb140 2.374 . S
O145 C141 1.251 . S
C146 O150 1.275 . S
C146 O151 1.246 . S
O147 C141 1.263 . S
O147 Tb142 2.353 . S
C148 O152 1.245 . S
C148 O153 1.259 . S
C149 O154 1.250 . S
C149 O155 1.263 . S
O150 Tb142 2.427 . S
O150 C146 1.275 . S
O151 Tb142 2.513 . S
O151 C146 1.246 . S
O152 Tb142 2.453 . S
O152 C148 1.245 . S
O153 Tb140 2.343 . S
O153 Tb142 2.596 . S
O153 C148 1.259 . S
O154 Tb142 2.374 . S
O154 C149 1.250 . S
O155 Tb140 2.353 . S
O155 C149 1.263 . S
C156 O157 1.275 . S
C156 O158 1.246 . S
O157 Tb140 2.427 . S
O157 C156 1.275 . S
O158 Tb140 2.513 . S
O158 C156 1.246 . S
C159 O143 1.245 . S
C159 O144 1.259 . S
Tb160 O163 2.453 . S
Tb160 O164 2.596 . S
Tb160 O165 2.374 . S
Tb160 O173 2.343 . S
Tb160 O175 2.353 . S
Tb160 O177 2.427 . S
Tb160 O178 2.513 . S
C161 O165 1.251 . S
C161 O167 1.263 . S
Tb162 O164 2.343 . S
Tb162 O167 2.353 . S
Tb162 O170 2.427 . S
Tb162 O171 2.513 . S
Tb162 O172 2.453 . S
Tb162 O173 2.596 . S
Tb162 O174 2.374 . S
O163 Tb160 2.453 . S
O163 C179 1.245 . S
O164 Tb160 2.596 . S
O164 Tb162 2.343 . S
O164 C179 1.259 . S
O165 Tb160 2.374 . S
O165 C161 1.251 . S
C166 O170 1.275 . S
C166 O171 1.246 . S
O167 C161 1.263 . S
O167 Tb162 2.353 . S
C168 O172 1.245 . S
C168 O173 1.259 . S
C169 O174 1.250 . S
C169 O175 1.263 . S
O170 Tb162 2.427 . S
O170 C166 1.275 . S
O171 Tb162 2.513 . S
O171 C166 1.246 . S
O172 Tb162 2.453 . S
O172 C168 1.245 . S
O173 Tb160 2.343 . S
O173 Tb162 2.596 . S
O173 C168 1.259 . S
O174 Tb162 2.374 . S
O174 C169 1.250 . S
O175 Tb160 2.353 . S
O175 C169 1.263 . S
C176 O177 1.275 . S
C176 O178 1.246 . S
O177 Tb160 2.427 . S
O177 C176 1.275 . S
O178 Tb160 2.513 . S
O178 C176 1.246 . S
C179 O163 1.245 . S
C179 O164 1.259 . S
H180 C188 0.929 . S
H181 C190 0.930 . S
H182 C192 0.973 . S
H183 C195 0.929 . S
H184 C198 0.930 . S
H185 C200 0.960 . S
H186 C200 0.960 . S
H187 C200 0.960 . S
C188 H180 0.929 . S
C188 C189 1.377 . S
C188 C190 1.384 . S
C189 C188 1.377 . S
C189 C195 1.390 . S
C190 H181 0.930 . S
C190 C188 1.384 . S
C190 C191 1.372 . S
C191 C190 1.372 . S
C191 C192 1.400 . S
C191 C196 1.490 . S
C192 H182 0.973 . S
C192 C191 1.400 . S
C192 C195 1.386 . S
H193 C209 0.930 1_655 S
H194 C210 0.931 1_655 S
C195 H183 0.929 . S
C195 C189 1.390 . S
C195 C192 1.386 . S
C196 C191 1.490 . S
C196 C198 1.395 . S
C196 C199 1.403 . S
H197 C203 0.930 . S
C198 H184 0.930 . S
C198 C196 1.395 . S
C198 C201 1.403 . S
C199 C196 1.403 . S
C199 C200 1.524 . S
C199 C203 1.400 . S
C200 H185 0.960 . S
C200 H186 0.960 . S
C200 H187 0.960 . S
C200 C199 1.524 . S
C201 C198 1.403 . S
C201 C202 1.392 . S
C201 C205 1.495 . S
C202 C201 1.392 . S
C202 C203 1.385 . S
C202 C204 1.478 . S
C203 H197 0.930 . S
C203 C199 1.400 . S
C203 C202 1.385 . S
C204 C202 1.478 . S
C204 C206 1.381 . S
C204 C210 1.383 . S
C205 C201 1.495 . S
C205 H211 0.959 . S
C205 H212 0.961 . S
C205 H213 0.960 . S
C206 C204 1.381 . S
C206 C207 1.394 . S
C206 H214 0.930 . S
C207 C206 1.394 . S
C207 C208 1.383 . S
C207 H215 0.929 . S
C208 C207 1.383 . S
C208 C209 1.377 . S
C209 H193 0.930 1_455 S
C209 C208 1.377 . S
C209 C210 1.379 . S
C210 H194 0.931 1_455 S
C210 C204 1.383 . S
C210 C209 1.379 . S
H211 C205 0.959 . S
H212 C205 0.961 . S
H213 C205 0.960 . S
H214 C206 0.930 . S
H215 C207 0.929 . S
H216 C224 0.929 . S
H217 C226 0.930 . S
H218 C228 0.930 . S
H219 C231 0.929 . S
H220 C234 0.930 . S
H221 C236 0.960 . S
H222 C236 0.960 . S
H223 C236 0.960 . S
C224 H216 0.929 . S
C224 C225 1.377 . S
C224 C226 1.384 . S
C225 C224 1.377 . S
C225 C231 1.390 . S
C226 H217 0.930 . S
C226 C224 1.384 . S
C226 C227 1.372 . S
C227 C226 1.372 . S
C227 C228 1.400 . S
C227 C232 1.490 . S
C228 H218 0.930 . S
C228 C227 1.400 . S
C228 C231 1.386 . S
H229 C245 0.930 . S
H230 C246 0.931 . S
C231 H219 0.929 . S
C231 C225 1.390 . S
C231 C228 1.386 . S
C232 C227 1.490 . S
C232 C234 1.395 . S
C232 C235 1.403 . S
H233 C239 0.930 . S
C234 H220 0.930 . S
C234 C232 1.395 . S
C234 C237 1.403 . S
C235 C232 1.403 . S
C235 C236 1.524 . S
C235 C239 1.400 . S
C236 H221 0.960 . S
C236 H222 0.960 . S
C236 H223 0.960 . S
C236 C235 1.524 . S
C237 C234 1.403 . S
C237 C238 1.392 . S
C237 C241 1.495 . S
C238 C237 1.392 . S
C238 C239 1.385 . S
C238 C240 1.478 . S
C239 H233 0.930 . S
C239 C235 1.400 . S
C239 C238 1.385 . S
C240 C238 1.478 . S
C240 C242 1.381 . S
C240 C246 1.383 . S
C241 C237 1.495 . S
C241 H247 0.959 . S
C241 H248 0.961 . S
C241 H249 0.960 . S
C242 C240 1.381 . S
C242 C243 1.394 . S
C242 H250 0.930 . S
C243 C242 1.394 . S
C243 C244 1.383 . S
C243 H251 0.929 . S
C244 C243 1.383 . S
C244 C245 1.377 . S
C245 H229 0.930 . S
C245 C244 1.377 . S
C245 C246 1.379 . S
C246 H230 0.931 . S
C246 C240 1.383 . S
C246 C245 1.379 . S
H247 C241 0.959 . S
H248 C241 0.961 . S
H249 C241 0.960 . S
H250 C242 0.930 . S
H251 C243 0.929 . S
H252 C260 0.929 . S
H253 C262 0.930 . S
H254 C264 0.930 . S
H255 C267 0.929 . S
H256 C270 0.930 1_565 S
H257 C272 0.960 . S
H258 C272 0.960 . S
H259 C272 0.960 . S
C260 H252 0.929 . S
C260 C261 1.377 . S
C260 C262 1.384 . S
C261 C260 1.377 . S
C261 C267 1.390 . S
C262 H253 0.930 . S
C262 C260 1.384 . S
C262 C263 1.372 . S
C263 C262 1.372 . S
C263 C264 1.400 . S
C263 C268 1.490 . S
C264 H254 0.930 . S
C264 C263 1.400 . S
C264 C267 1.386 . S
H265 C281 0.930 . S
H266 C282 0.931 . S
C267 H255 0.929 . S
C267 C261 1.390 . S
C267 C264 1.386 . S
C268 C263 1.490 . S
C268 C270 1.395 . S
C268 C271 1.403 . S
H269 C275 0.930 . S
C270 H256 0.930 1_545 S
C270 C268 1.395 . S
C270 C273 1.403 . S
C271 C268 1.403 . S
C271 C272 1.524 . S
C271 C275 1.400 . S
C272 H257 0.960 . S
C272 H258 0.960 . S
C272 H259 0.960 . S
C272 C271 1.524 . S
C273 C270 1.403 . S
C273 C274 1.392 . S
C273 C277 1.495 1_545 S
C274 C273 1.392 . S
C274 C275 1.385 . S
C274 C276 1.478 . S
C275 H269 0.930 . S
C275 C271 1.400 . S
C275 C274 1.385 . S
C276 C274 1.478 . S
C276 C278 1.381 . S
C276 C282 1.383 . S
C277 C273 1.495 1_565 S
C277 H283 0.959 . S
C277 H284 0.961 . S
C277 H285 0.960 . S
C278 C276 1.381 . S
C278 C279 1.394 . S
C278 H286 0.930 . S
C279 C278 1.394 . S
C279 C280 1.383 . S
C279 H287 0.929 . S
C280 C279 1.383 . S
C280 C281 1.377 . S
C281 H265 0.930 . S
C281 C280 1.377 . S
C281 C282 1.379 . S
C282 H266 0.931 . S
C282 C276 1.383 . S
C282 C281 1.379 . S
H283 C277 0.959 . S
H284 C277 0.961 . S
H285 C277 0.960 . S
H286 C278 0.930 . S
H287 C279 0.929 . S
H288 C296 0.929 . S
H289 C298 0.930 . S
H290 C300 0.930 . S
H291 C303 0.929 . S
H292 C306 0.930 . S
H293 C308 0.960 . S
H294 C308 0.960 . S
H295 C308 0.960 . S
C296 H288 0.929 . S
C296 C297 1.377 . S
C296 C298 1.384 . S
C297 C296 1.377 . S
C297 C303 1.390 . S
C298 H289 0.930 . S
C298 C296 1.384 . S
C298 C299 1.372 . S
C299 C298 1.372 . S
C299 C300 1.400 . S
C299 C304 1.490 . S
C300 H290 0.930 . S
C300 C299 1.400 . S
C300 C303 1.386 . S
H301 C317 0.930 . S
H302 C318 0.931 . S
C303 H291 0.929 . S
C303 C297 1.390 . S
C303 C300 1.386 . S
C304 C299 1.490 . S
C304 C306 1.395 . S
C304 C307 1.403 . S
H305 C311 0.930 . S
C306 H292 0.930 . S
C306 C304 1.395 . S
C306 C309 1.403 . S
C307 C304 1.403 . S
C307 C308 1.524 . S
C307 C311 1.400 . S
C308 H293 0.960 . S
C308 H294 0.960 . S
C308 H295 0.960 . S
C308 C307 1.524 . S
C309 C306 1.403 . S
C309 C310 1.392 . S
C309 C313 1.495 . S
C310 C309 1.392 . S
C310 C311 1.385 . S
C310 C312 1.478 . S
C311 H305 0.930 . S
C311 C307 1.400 . S
C311 C310 1.385 . S
C312 C310 1.478 . S
C312 C314 1.381 . S
C312 C318 1.383 . S
C313 C309 1.495 . S
C313 H319 0.959 . S
C313 H320 0.961 . S
C313 H321 0.960 . S
C314 C312 1.381 . S
C314 C315 1.394 1_556 S
C314 H322 0.930 . S
C315 C314 1.394 1_554 S
C315 C316 1.383 . S
C315 H323 0.929 . S
C316 C315 1.383 . S
C316 C317 1.377 . S
C317 H301 0.930 . S
C317 C316 1.377 . S
C317 C318 1.379 1_554 S
C318 H302 0.931 . S
C318 C312 1.383 . S
C318 C317 1.379 1_556 S
H319 C313 0.959 . S
H320 C313 0.961 . S
H321 C313 0.960 . S
H322 C314 0.930 . S
H323 C315 0.929 . S
H324 C332 0.929 . S
H325 C334 0.930 . S
H326 C336 0.930 . S
H327 C339 0.929 . S
H328 C342 0.930 . S
H329 C344 0.960 . S
H330 C344 0.960 . S
H331 C344 0.960 . S
C332 H324 0.929 . S
C332 C333 1.377 . S
C332 C334 1.384 . S
C333 C332 1.377 . S
C333 C339 1.390 . S
C334 H325 0.930 . S
C334 C332 1.384 . S
C334 C335 1.372 . S
C335 C334 1.372 . S
C335 C336 1.400 . S
C335 C340 1.490 . S
C336 H326 0.930 . S
C336 C335 1.400 . S
C336 C339 1.386 . S
H337 C353 0.930 1_554 S
H338 C354 0.931 . S
C339 H327 0.929 . S
C339 C333 1.390 . S
C339 C336 1.386 . S
C340 C335 1.490 . S
C340 C342 1.395 . S
C340 C343 1.403 . S
H341 C347 0.930 . S
C342 H328 0.930 . S
C342 C340 1.395 . S
C342 C345 1.403 . S
C343 C340 1.403 . S
C343 C344 1.524 . S
C343 C347 1.400 . S
C344 H329 0.960 . S
C344 H330 0.960 . S
C344 H331 0.960 . S
C344 C343 1.524 . S
C345 C342 1.403 . S
C345 C346 1.392 . S
C345 C349 1.495 . S
C346 C345 1.392 . S
C346 C347 1.385 . S
C346 C348 1.478 . S
C347 H341 0.930 . S
C347 C343 1.400 . S
C347 C346 1.385 . S
C348 C346 1.478 . S
C348 C350 1.381 . S
C348 C354 1.383 . S
C349 C345 1.495 . S
C349 H355 0.959 . S
C349 H356 0.961 . S
C349 H357 0.960 . S
C350 C348 1.381 . S
C350 C351 1.394 1_556 S
C350 H358 0.930 . S
C351 C350 1.394 1_554 S
C351 C352 1.383 . S
C351 H359 0.929 . S
C352 C351 1.383 . S
C352 C353 1.377 1_554 S
C353 H337 0.930 1_556 S
C353 C352 1.377 1_556 S
C353 C354 1.379 . S
C354 H338 0.931 . S
C354 C348 1.383 . S
C354 C353 1.379 . S
H355 C349 0.959 . S
H356 C349 0.961 . S
H357 C349 0.960 . S
H358 C350 0.930 . S
H359 C351 0.929 . S
H360 C368 0.929 . S
H361 C370 0.930 . S
H362 C372 0.930 . S
H363 C375 0.929 . S
H364 C378 0.930 . S
H365 C380 0.960 . S
H366 C380 0.960 . S
H367 C380 0.960 . S
C368 H360 0.929 . S
C368 C369 1.377 . S
C368 C370 1.384 . S
C369 C368 1.377 . S
C369 C375 1.390 . S
C370 H361 0.930 . S
C370 C368 1.384 . S
C370 C371 1.372 . S
C371 C370 1.372 . S
C371 C372 1.400 . S
C371 C376 1.490 . S
C372 H362 0.930 . S
C372 C371 1.400 . S
C372 C375 1.386 . S
H373 C389 0.930 . S
H374 C390 0.931 . S
C375 H363 0.929 . S
C375 C369 1.390 . S
C375 C372 1.386 . S
C376 C371 1.490 . S
C376 C378 1.395 . S
C376 C379 1.403 . S
H377 C383 0.930 . S
C378 H364 0.930 . S
C378 C376 1.395 . S
C378 C381 1.403 . S
C379 C376 1.403 . S
C379 C380 1.524 . S
C379 C383 1.400 . S
C380 H365 0.960 . S
C380 H366 0.960 . S
C380 H367 0.960 . S
C380 C379 1.524 . S
C381 C378 1.403 . S
C381 C382 1.392 . S
C381 C385 1.495 . S
C382 C381 1.392 . S
C382 C383 1.385 . S
C382 C384 1.478 . S
C383 H377 0.930 . S
C383 C379 1.400 . S
C383 C382 1.385 . S
C384 C382 1.478 . S
C384 C386 1.381 . S
C384 C390 1.383 . S
C385 C381 1.495 . S
C385 H391 0.959 . S
C385 H392 0.961 . S
C385 H393 0.960 . S
C386 C384 1.381 . S
C386 C387 1.394 . S
C386 H394 0.930 . S
C387 C386 1.394 . S
C387 C388 1.388 . S
C387 H395 0.929 . S
C388 C387 1.388 . S
C388 C389 1.384 . S
C389 H373 0.930 . S
C389 C388 1.384 . S
C389 C390 1.379 . S
C390 H374 0.931 . S
C390 C384 1.383 . S
C390 C389 1.379 . S
H391 C385 0.959 . S
H392 C385 0.961 . S
H393 C385 0.960 . S
H394 C386 0.930 . S
H395 C387 0.929 . S
H396 C404 0.929 . S
H397 C406 0.930 . S
H398 C408 0.930 . S
H399 C411 0.929 . S
H400 C414 0.930 . S
H401 C416 0.960 . S
H402 C416 0.960 . S
H403 C416 0.960 . S
C404 H396 0.929 . S
C404 C405 1.377 . S
C404 C406 1.384 . S
C405 C404 1.377 . S
C405 C411 1.390 . S
C406 H397 0.930 . S
C406 C404 1.384 . S
C406 C407 1.372 . S
C407 C406 1.372 . S
C407 C408 1.400 . S
C407 C412 1.490 . S
C408 H398 0.930 . S
C408 C407 1.400 . S
C408 C411 1.386 . S
H409 C425 0.930 . S
H410 C426 0.931 . S
C411 H399 0.929 . S
C411 C405 1.390 . S
C411 C408 1.386 . S
C412 C407 1.490 . S
C412 C414 1.395 . S
C412 C415 1.403 . S
H413 C419 0.930 . S
C414 H400 0.930 . S
C414 C412 1.395 . S
C414 C417 1.403 . S
C415 C412 1.403 . S
C415 C416 1.524 . S
C415 C419 1.400 . S
C416 H401 0.960 . S
C416 H402 0.960 . S
C416 H403 0.960 . S
C416 C415 1.524 . S
C417 C414 1.403 . S
C417 C418 1.392 . S
C417 C421 1.495 . S
C418 C417 1.392 . S
C418 C419 1.385 . S
C418 C420 1.478 . S
C419 H413 0.930 . S
C419 C415 1.400 . S
C419 C418 1.385 . S
C420 C418 1.478 . S
C420 C422 1.381 1_554 S
C420 C426 1.383 1_554 S
C421 C417 1.495 . S
C421 H427 0.959 . S
C421 H428 0.961 . S
C421 H429 0.960 . S
C422 C420 1.381 1_556 S
C422 C423 1.394 . S
C422 H430 0.930 1_556 S
C423 C422 1.394 . S
C423 C424 1.383 . S
C423 H431 0.929 . S
C424 C423 1.383 . S
C424 C425 1.377 . S
C425 H409 0.930 . S
C425 C424 1.377 . S
C425 C426 1.379 . S
C426 H410 0.931 . S
C426 C420 1.383 1_556 S
C426 C425 1.379 . S
H427 C421 0.959 . S
H428 C421 0.961 . S
H429 C421 0.960 . S
H430 C422 0.930 1_554 S
H431 C423 0.929 . S
H432 C440 0.929 . S
H433 C442 0.930 . S
H434 C444 0.930 . S
H435 C447 0.929 . S
H436 C450 0.930 . S
H437 C452 0.960 . S
H438 C452 0.960 . S
H439 C452 0.960 . S
C440 H432 0.929 . S
C440 C441 1.377 . S
C440 C442 1.384 . S
C441 C440 1.377 . S
C441 C447 1.390 . S
C442 H433 0.930 . S
C442 C440 1.384 . S
C442 C443 1.372 . S
C443 C442 1.372 . S
C443 C444 1.400 . S
C443 C448 1.490 . S
C444 H434 0.930 . S
C444 C443 1.400 . S
C444 C447 1.386 . S
H445 C461 0.930 . S
H446 C462 0.931 1_554 S
C447 H435 0.929 . S
C447 C441 1.390 . S
C447 C444 1.386 . S
C448 C443 1.490 . S
C448 C450 1.395 . S
C448 C451 1.403 . S
H449 C455 0.930 . S
C450 H436 0.930 . S
C450 C448 1.395 . S
C450 C453 1.403 . S
C451 C448 1.403 . S
C451 C452 1.524 . S
C451 C455 1.400 . S
C452 H437 0.960 . S
C452 H438 0.960 . S
C452 H439 0.960 . S
C452 C451 1.524 . S
C453 C450 1.403 . S
C453 C454 1.392 . S
C453 C457 1.495 . S
C454 C453 1.392 . S
C454 C455 1.385 . S
C454 C456 1.478 . S
C455 H449 0.930 . S
C455 C451 1.400 . S
C455 C454 1.385 . S
C456 C454 1.478 . S
C456 C458 1.381 1_554 S
C456 C462 1.383 1_554 S
C457 C453 1.495 . S
C457 H463 0.959 . S
C457 H464 0.961 . S
C457 H465 0.960 . S
C458 C456 1.381 1_556 S
C458 C459 1.394 . S
C458 H466 0.930 . S
C459 C458 1.394 . S
C459 C460 1.383 . S
C459 H467 0.929 . S
C460 C459 1.383 . S
C460 C461 1.377 . S
C461 H445 0.930 . S
C461 C460 1.377 . S
C461 C462 1.379 . S
C462 H446 0.931 1_556 S
C462 C456 1.383 1_556 S
C462 C461 1.379 . S
H463 C457 0.959 . S
H464 C457 0.961 . S
H465 C457 0.960 . S
H466 C458 0.930 . S
H467 C459 0.929 . S
H468 C476 0.929 . S
H469 C478 0.930 . S
H470 C480 0.930 . S
H471 C483 0.929 . S
H472 C486 0.930 . S
H473 C488 0.960 . S
H474 C488 0.960 . S
H475 C488 0.960 . S
C476 H468 0.929 . S
C476 C477 1.377 . S
C476 C478 1.384 . S
C477 C476 1.377 . S
C477 C483 1.390 . S
C478 H469 0.930 . S
C478 C476 1.384 . S
C478 C479 1.372 . S
C479 C478 1.372 . S
C479 C480 1.400 . S
C479 C484 1.490 . S
C480 H470 0.930 . S
C480 C479 1.400 . S
C480 C483 1.386 . S
H481 C497 0.930 . S
H482 C498 0.931 . S
C483 H471 0.929 . S
C483 C477 1.390 . S
C483 C480 1.386 . S
C484 C479 1.490 . S
C484 C486 1.395 . S
C484 C487 1.403 . S
H485 C491 0.930 . S
C486 H472 0.930 . S
C486 C484 1.395 . S
C486 C489 1.403 . S
C487 C484 1.403 . S
C487 C488 1.524 . S
C487 C491 1.400 . S
C488 H473 0.960 . S
C488 H474 0.960 . S
C488 H475 0.960 . S
C488 C487 1.524 . S
C489 C486 1.403 . S
C489 C490 1.392 . S
C489 C493 1.495 . S
C490 C489 1.392 . S
C490 C491 1.385 . S
C490 C492 1.478 . S
C491 H485 0.930 . S
C491 C487 1.400 . S
C491 C490 1.385 . S
C492 C490 1.478 . S
C492 C494 1.381 1_554 S
C492 C498 1.383 1_554 S
C493 C489 1.495 . S
C493 H499 0.959 . S
C493 H500 0.961 . S
C493 H501 0.960 . S
C494 C492 1.381 1_556 S
C494 C495 1.394 . S
C494 H502 0.936 . S
C495 C494 1.394 . S
C495 C496 1.383 . S
C495 H503 0.929 . S
C496 C495 1.383 . S
C496 C497 1.377 . S
C497 H481 0.930 . S
C497 C496 1.377 . S
C497 C498 1.379 . S
C498 H482 0.931 . S
C498 C492 1.383 1_556 S
C498 C497 1.379 . S
H499 C493 0.959 . S
H500 C493 0.961 . S
H501 C493 0.960 . S
H502 C494 0.936 . S
H503 C495 0.929 . S
H504 C512 0.929 . S
H505 C514 0.930 . S
H506 C516 0.930 . S
H507 C519 0.929 . S
H508 C522 0.930 . S
H509 C524 0.960 1_556 S
H510 C524 0.960 . S
H511 C524 0.960 . S
C512 H504 0.929 . S
C512 C513 1.377 . S
C512 C514 1.384 . S
C513 C512 1.377 . S
C513 C519 1.390 . S
C514 H505 0.930 . S
C514 C512 1.384 . S
C514 C515 1.372 . S
C515 C514 1.372 . S
C515 C516 1.400 . S
C515 C520 1.490 . S
C516 H506 0.930 . S
C516 C515 1.400 . S
C516 C519 1.386 . S
H517 C533 0.930 . S
H518 C534 0.931 . S
C519 H507 0.929 . S
C519 C513 1.390 . S
C519 C516 1.386 . S
C520 C515 1.490 . S
C520 C522 1.395 . S
C520 C523 1.403 . S
H521 C527 0.930 . S
C522 H508 0.930 . S
C522 C520 1.395 . S
C522 C525 1.403 . S
C523 C520 1.403 . S
C523 C524 1.524 . S
C523 C527 1.400 . S
C524 H509 0.960 1_554 S
C524 H510 0.960 . S
C524 H511 0.960 . S
C524 C523 1.524 . S
C525 C522 1.403 . S
C525 C526 1.392 . S
C525 C529 1.495 . S
C526 C525 1.392 . S
C526 C527 1.385 . S
C526 C528 1.478 . S
C527 H521 0.930 . S
C527 C523 1.400 . S
C527 C526 1.385 . S
C528 C526 1.478 . S
C528 C530 1.381 . S
C528 C534 1.383 . S
C529 C525 1.495 . S
C529 H535 0.959 . S
C529 H536 0.961 . S
C529 H537 0.960 . S
C530 C528 1.381 . S
C530 C531 1.394 . S
C530 H538 0.930 . S
C531 C530 1.394 . S
C531 C532 1.383 . S
C531 H539 0.929 . S
C532 C531 1.383 . S
C532 C533 1.377 . S
C533 H517 0.930 . S
C533 C532 1.377 . S
C533 C534 1.379 . S
C534 H518 0.931 . S
C534 C528 1.383 . S
C534 C533 1.379 . S
H535 C529 0.959 . S
H536 C529 0.961 . S
H537 C529 0.960 . S
H538 C530 0.930 . S
H539 C531 0.929 . S
H540 C548 0.929 . S
H541 C550 0.930 . S
H542 C552 0.930 . S
H543 C555 0.929 . S
H544 C558 0.930 . S
H545 C560 0.960 . S
H546 C560 0.960 . S
H547 C560 0.960 . S
C548 H540 0.929 . S
C548 C549 1.377 . S
C548 C550 1.384 . S
C549 C548 1.377 . S
C549 C555 1.390 . S
C550 H541 0.930 . S
C550 C548 1.384 . S
C550 C551 1.372 . S
C551 C550 1.372 . S
C551 C552 1.400 . S
C551 C556 1.490 . S
C552 H542 0.930 . S
C552 C551 1.400 . S
C552 C555 1.386 . S
H553 C569 0.930 . S
H554 C570 0.931 . S
C555 H543 0.929 . S
C555 C549 1.390 . S
C555 C552 1.386 . S
C556 C551 1.490 . S
C556 C558 1.395 . S
C556 C559 1.403 . S
H557 C563 0.930 . S
C558 H544 0.930 . S
C558 C556 1.395 . S
C558 C561 1.403 . S
C559 C556 1.403 . S
C559 C560 1.524 . S
C559 C563 1.400 . S
C560 H545 0.960 . S
C560 H546 0.960 . S
C560 H547 0.960 . S
C560 C559 1.524 . S
C561 C558 1.403 . S
C561 C562 1.392 . S
C561 C565 1.495 . S
C562 C561 1.392 . S
C562 C563 1.385 . S
C562 C564 1.478 . S
C563 H557 0.930 . S
C563 C559 1.400 . S
C563 C562 1.385 . S
C564 C562 1.478 . S
C564 C566 1.381 . S
C564 C570 1.383 . S
C565 C561 1.495 . S
C565 H571 0.959 . S
C565 H572 0.961 . S
C565 H573 0.960 . S
C566 C564 1.381 . S
C566 C567 1.394 . S
C566 H574 0.930 . S
C567 C566 1.394 . S
C567 C568 1.383 . S
C567 H575 0.929 . S
C568 C567 1.383 . S
C568 C569 1.377 . S
C569 H553 0.930 . S
C569 C568 1.377 . S
C569 C570 1.379 . S
C570 H554 0.931 . S
C570 C564 1.383 . S
C570 C569 1.379 . S
H571 C565 0.959 . S
H572 C565 0.961 . S
H573 C565 0.960 . S
H574 C566 0.930 . S
H575 C567 0.929 . S
H576 C584 0.929 . S
H577 C586 0.930 . S
H578 C588 0.930 . S
H579 C591 0.929 . S
H580 C594 0.930 . S
H581 C596 0.960 . S
H582 C596 0.960 . S
H583 C596 0.960 . S
C584 H576 0.929 . S
C584 C585 1.377 . S
C584 C586 1.384 . S
C585 C584 1.377 . S
C585 C591 1.390 . S
C586 H577 0.930 . S
C586 C584 1.384 . S
C586 C587 1.372 . S
C587 C586 1.372 . S
C587 C588 1.400 . S
C587 C592 1.490 . S
C588 H578 0.930 . S
C588 C587 1.400 . S
C588 C591 1.386 . S
H589 C605 0.930 . S
H590 C606 0.931 . S
C591 H579 0.929 . S
C591 C585 1.390 . S
C591 C588 1.386 . S
C592 C587 1.490 . S
C592 C594 1.395 . S
C592 C595 1.403 . S
H593 C599 0.930 . S
C594 H580 0.930 . S
C594 C592 1.395 . S
C594 C597 1.403 . S
C595 C592 1.403 . S
C595 C596 1.524 . S
C595 C599 1.400 . S
C596 H581 0.960 . S
C596 H582 0.960 . S
C596 H583 0.960 . S
C596 C595 1.524 . S
C597 C594 1.403 . S
C597 C598 1.392 . S
C597 C601 1.495 . S
C598 C597 1.392 . S
C598 C599 1.385 . S
C598 C600 1.478 . S
C599 H593 0.930 . S
C599 C595 1.400 . S
C599 C598 1.385 . S
C600 C598 1.478 . S
C600 C602 1.381 . S
C600 C606 1.383 . S
C601 C597 1.495 . S
C601 H607 0.959 . S
C601 H608 0.961 . S
C601 H609 0.960 . S
C602 C600 1.381 . S
C602 C603 1.394 . S
C602 H610 0.930 . S
C603 C602 1.394 . S
C603 C604 1.383 . S
C603 H611 0.929 . S
C604 C603 1.383 . S
C604 C605 1.377 . S
C605 H589 0.930 . S
C605 C604 1.377 . S
C605 C606 1.379 . S
C606 H590 0.931 . S
C606 C600 1.383 . S
C606 C605 1.379 . S
H607 C601 0.959 . S
H608 C601 0.961 . S
H609 C601 0.960 . S
H610 C602 0.930 . S
H611 C603 0.929 . S
H612 C620 0.929 . S
H613 C622 0.930 . S
H614 C624 0.930 . S
H615 C627 0.929 . S
H616 C630 0.930 . S
H617 C632 0.960 . S
H618 C632 0.960 . S
H619 C632 0.960 . S
C620 H612 0.929 . S
C620 C621 1.377 . S
C620 C622 1.384 . S
C621 C620 1.377 . S
C621 C627 1.390 . S
C622 H613 0.930 . S
C622 C620 1.384 . S
C622 C623 1.372 . S
C623 C622 1.372 . S
C623 C624 1.400 . S
C623 C628 1.490 . S
C624 H614 0.930 . S
C624 C623 1.400 . S
C624 C627 1.386 . S
H625 C641 0.930 . S
H626 C642 0.931 . S
C627 H615 0.929 . S
C627 C621 1.390 . S
C627 C624 1.386 . S
C628 C623 1.490 . S
C628 C630 1.395 1_554 S
C628 C631 1.403 . S
H629 C635 0.930 . S
C630 H616 0.930 . S
C630 C628 1.395 1_556 S
C630 C633 1.403 . S
C631 C628 1.403 . S
C631 C632 1.524 . S
C631 C635 1.400 1_554 S
C632 H617 0.960 . S
C632 H618 0.960 . S
C632 H619 0.960 . S
C632 C631 1.524 . S
C633 C630 1.403 . S
C633 C634 1.392 . S
C633 C637 1.495 . S
C634 C633 1.392 . S
C634 C635 1.385 . S
C634 C636 1.478 . S
C635 H629 0.930 . S
C635 C631 1.400 1_556 S
C635 C634 1.385 . S
C636 C634 1.478 . S
C636 C638 1.381 . S
C636 C642 1.383 . S
C637 C633 1.495 . S
C637 H643 0.959 . S
C637 H644 0.961 . S
C637 H645 0.960 . S
C638 C636 1.381 . S
C638 C639 1.394 . S
C638 H646 0.930 . S
C639 C638 1.394 . S
C639 C640 1.383 . S
C639 H647 0.929 . S
C640 C639 1.383 . S
C640 C641 1.377 . S
C641 H625 0.930 . S
C641 C640 1.377 . S
C641 C642 1.379 . S
C642 H626 0.931 . S
C642 C636 1.383 . S
C642 C641 1.379 . S
H643 C637 0.959 . S
H644 C637 0.961 . S
H645 C637 0.960 . S
H646 C638 0.930 . S
H647 C639 0.929 . S
H648 C656 0.929 . S
H649 C658 0.930 . S
H650 C660 0.930 . S
H651 C663 0.929 . S
H652 C666 0.930 . S
H653 C668 0.960 . S
H654 C668 0.960 . S
H655 C668 0.960 . S
C656 H648 0.929 . S
C656 C657 1.377 . S
C656 C658 1.384 . S
C657 C656 1.377 . S
C657 C663 1.390 . S
C658 H649 0.930 . S
C658 C656 1.384 . S
C658 C659 1.372 . S
C659 C658 1.372 . S
C659 C660 1.400 . S
C659 C664 1.490 . S
C660 H650 0.930 . S
C660 C659 1.400 . S
C660 C663 1.386 . S
H661 C677 0.930 . S
H662 C678 0.931 . S
C663 H651 0.929 . S
C663 C657 1.390 . S
C663 C660 1.386 . S
C664 C659 1.490 . S
C664 C666 1.395 . S
C664 C667 1.403 . S
H665 C671 0.930 . S
C666 H652 0.930 . S
C666 C664 1.395 . S
C666 C669 1.403 . S
C667 C664 1.403 . S
C667 C668 1.524 . S
C667 C671 1.400 . S
C668 H653 0.960 . S
C668 H654 0.960 . S
C668 H655 0.960 . S
C668 C667 1.524 . S
C669 C666 1.403 . S
C669 C670 1.392 . S
C669 C673 1.495 1_655 S
C670 C669 1.392 . S
C670 C671 1.385 . S
C670 C672 1.478 . S
C671 H665 0.930 . S
C671 C667 1.400 . S
C671 C670 1.385 . S
C672 C670 1.478 . S
C672 C674 1.383 1_556 S
C672 C678 1.383 . S
C673 C669 1.495 1_455 S
C673 H679 0.959 . S
C673 H680 0.961 . S
C673 H681 0.960 . S
C674 C672 1.383 1_554 S
C674 C675 1.396 1_655 S
C674 H682 0.926 1_655 S
C675 C674 1.396 1_455 S
C675 C676 1.383 1_455 S
C675 H683 0.929 . S
C676 C675 1.383 1_655 S
C676 C677 1.377 1_554 S
C677 H661 0.930 . S
C677 C676 1.377 1_556 S
C677 C678 1.379 . S
C678 H662 0.931 . S
C678 C672 1.383 . S
C678 C677 1.379 . S
H679 C673 0.959 . S
H680 C673 0.961 . S
H681 C673 0.960 . S
H682 C674 0.926 1_455 S
H683 C675 0.929 . S
H684 C692 0.929 . S
H685 C694 0.930 . S
H686 C696 0.930 . S
H687 C699 0.929 . S
H688 C702 0.930 . S
H689 C704 0.960 . S
H690 C704 0.960 . S
H691 C704 0.960 . S
C692 H684 0.929 . S
C692 C693 1.377 . S
C692 C694 1.384 . S
C693 C692 1.377 . S
C693 C699 1.390 . S
C694 H685 0.930 . S
C694 C692 1.384 . S
C694 C695 1.372 . S
C695 C694 1.372 . S
C695 C696 1.400 . S
C695 C700 1.490 . S
C696 H686 0.930 . S
C696 C695 1.400 . S
C696 C699 1.386 . S
H697 C713 0.930 . S
H698 C714 0.931 . S
C699 H687 0.929 . S
C699 C693 1.390 . S
C699 C696 1.386 . S
C700 C695 1.490 . S
C700 C702 1.395 . S
C700 C703 1.403 . S
H701 C707 0.930 . S
C702 H688 0.930 . S
C702 C700 1.395 . S
C702 C705 1.403 . S
C703 C700 1.403 . S
C703 C704 1.524 . S
C703 C707 1.400 . S
C704 H689 0.960 . S
C704 H690 0.960 . S
C704 H691 0.960 . S
C704 C703 1.524 . S
C705 C702 1.403 . S
C705 C706 1.392 . S
C705 C709 1.495 . S
C706 C705 1.392 . S
C706 C707 1.385 . S
C706 C708 1.478 . S
C707 H701 0.930 . S
C707 C703 1.400 . S
C707 C706 1.385 . S
C708 C706 1.478 . S
C708 C710 1.381 1_556 S
C708 C714 1.383 . S
C709 C705 1.495 . S
C709 H715 0.959 . S
C709 H716 0.961 . S
C709 H717 0.960 1_556 S
C710 C708 1.381 1_554 S
C710 C711 1.394 . S
C710 H718 0.930 . S
C711 C710 1.394 . S
C711 C712 1.383 . S
C711 H719 0.929 . S
C712 C711 1.383 . S
C712 C713 1.377 1_554 S
C713 H697 0.930 . S
C713 C712 1.377 1_556 S
C713 C714 1.379 . S
C714 H698 0.931 . S
C714 C708 1.383 . S
C714 C713 1.379 . S
H715 C709 0.959 . S
H716 C709 0.961 . S
H717 C709 0.960 1_554 S
H718 C710 0.930 . S
H719 C711 0.929 . S
H720 C728 0.929 . S
H721 C730 0.930 . S
H722 C732 0.930 . S
H723 C735 0.929 . S
H724 C738 0.930 . S
H725 C740 0.960 . S
H726 C740 0.964 . S
H727 C740 0.960 . S
C728 H720 0.929 . S
C728 C729 1.377 . S
C728 C730 1.384 . S
C729 C728 1.377 . S
C729 C735 1.390 . S
C730 H721 0.930 . S
C730 C728 1.384 . S
C730 C731 1.372 . S
C731 C730 1.372 . S
C731 C732 1.400 . S
C731 C736 1.490 . S
C732 H722 0.930 . S
C732 C731 1.400 . S
C732 C735 1.386 . S
H733 C749 0.930 . S
H734 C750 0.931 . S
C735 H723 0.929 . S
C735 C729 1.390 . S
C735 C732 1.386 . S
C736 C731 1.490 . S
C736 C738 1.395 . S
C736 C739 1.403 . S
H737 C743 0.930 . S
C738 H724 0.930 . S
C738 C736 1.395 . S
C738 C741 1.403 . S
C739 C736 1.403 . S
C739 C740 1.524 . S
C739 C743 1.400 . S
C740 H725 0.960 . S
C740 H726 0.964 . S
C740 H727 0.960 . S
C740 C739 1.524 . S
C741 C738 1.403 . S
C741 C742 1.392 . S
C741 C745 1.495 1_556 S
C742 C741 1.392 . S
C742 C743 1.385 . S
C742 C744 1.478 . S
C743 H737 0.930 . S
C743 C739 1.400 . S
C743 C742 1.385 . S
C744 C742 1.478 . S
C744 C746 1.381 1_656 S
C744 C750 1.383 . S
C745 C741 1.495 1_554 S
C745 H751 0.959 . S
C745 H752 0.961 . S
C745 H753 0.960 . S
C746 C744 1.381 1_454 S
C746 C747 1.394 . S
C746 H754 0.930 . S
C747 C746 1.394 . S
C747 C748 1.383 . S
C747 H755 0.929 . S
C748 C747 1.383 . S
C748 C749 1.377 1_454 S
C749 H733 0.930 . S
C749 C748 1.377 1_656 S
C749 C750 1.379 . S
C750 H734 0.931 . S
C750 C744 1.383 . S
C750 C749 1.379 . S
H751 C745 0.959 . S
H752 C745 0.961 . S
H753 C745 0.960 . S
H754 C746 0.930 . S
H755 C747 0.929 . S
H756 C764 0.929 . S
H757 C766 0.930 . S
H758 C768 0.930 . S
H759 C771 0.929 . S
H760 C774 0.930 1_554 S
H761 C776 0.960 . S
H762 C776 0.960 . S
H763 C776 0.960 . S
C764 H756 0.929 . S
C764 C765 1.377 . S
C764 C766 1.384 . S
C765 C764 1.377 . S
C765 C771 1.390 . S
C766 H757 0.930 . S
C766 C764 1.384 . S
C766 C767 1.372 1_554 S
C767 C766 1.372 1_556 S
C767 C768 1.400 . S
C767 C772 1.490 . S
C768 H758 0.930 . S
C768 C767 1.400 . S
C768 C771 1.386 1_556 S
H769 C785 0.930 . S
H770 C786 0.931 . S
C771 H759 0.929 . S
C771 C765 1.390 . S
C771 C768 1.386 1_554 S
C772 C767 1.490 . S
C772 C774 1.395 . S
C772 C775 1.403 . S
H773 C779 0.930 . S
C774 H760 0.930 1_556 S
C774 C772 1.395 . S
C774 C777 1.403 . S
C775 C772 1.403 . S
C775 C776 1.524 . S
C775 C779 1.400 . S
C776 H761 0.960 . S
C776 H762 0.960 . S
C776 H763 0.960 . S
C776 C775 1.524 . S
C777 C774 1.403 . S
C777 C778 1.392 . S
C777 C781 1.486 1_556 S
C778 C777 1.392 . S
C778 C779 1.385 . S
C778 C780 1.478 . S
C779 H773 0.930 . S
C779 C775 1.400 . S
C779 C778 1.385 . S
C780 C778 1.478 . S
C780 C782 1.381 . S
C780 C786 1.383 . S
C781 C777 1.486 1_554 S
C781 H787 0.972 . S
C781 H788 0.961 . S
C781 H789 0.954 1_554 S
C782 C780 1.381 . S
C782 C783 1.394 . S
C782 H790 0.930 . S
C783 C782 1.394 . S
C783 C784 1.383 . S
C783 H791 0.929 . S
C784 C783 1.383 . S
C784 C785 1.377 . S
C785 H769 0.930 . S
C785 C784 1.377 . S
C785 C786 1.379 . S
C786 H770 0.931 . S
C786 C780 1.383 . S
C786 C785 1.379 . S
H787 C781 0.972 . S
H788 C781 0.961 . S
H789 C781 0.954 1_556 S
H790 C782 0.930 . S
H791 C783 0.929 . S
H792 C800 0.929 . S
H793 C802 0.930 . S
H794 C804 0.930 . S
H795 C807 0.929 . S
H796 C810 0.930 . S
H797 C812 0.960 . S
H798 C812 0.960 . S
H799 C812 0.960 1_556 S
C800 H792 0.929 . S
C800 C801 1.377 . S
C800 C802 1.384 . S
C801 C800 1.377 . S
C801 C807 1.390 . S
C802 H793 0.930 . S
C802 C800 1.384 . S
C802 C803 1.372 . S
C803 C802 1.372 . S
C803 C804 1.400 . S
C803 C808 1.490 . S
C804 H794 0.930 . S
C804 C803 1.400 . S
C804 C807 1.386 . S
H805 C821 0.930 . S
H806 C822 0.931 1_556 S
C807 H795 0.929 . S
C807 C801 1.390 . S
C807 C804 1.386 . S
C808 C803 1.490 . S
C808 C810 1.395 . S
C808 C811 1.403 . S
H809 C815 0.930 . S
C810 H796 0.930 . S
C810 C808 1.395 . S
C810 C813 1.403 . S
C811 C808 1.403 . S
C811 C812 1.524 1_556 S
C811 C815 1.400 1_556 S
C812 H797 0.960 . S
C812 H798 0.960 . S
C812 H799 0.960 1_554 S
C812 C811 1.524 1_554 S
C813 C810 1.403 . S
C813 C814 1.392 . S
C813 C817 1.495 . S
C814 C813 1.392 . S
C814 C815 1.385 1_556 S
C814 C816 1.478 1_556 S
C815 H809 0.930 . S
C815 C811 1.400 1_554 S
C815 C814 1.385 1_554 S
C816 C814 1.478 1_554 S
C816 C818 1.381 . S
C816 C822 1.383 . S
C817 C813 1.495 . S
C817 H823 0.959 . S
C817 H824 0.961 . S
C817 H825 0.960 . S
C818 C816 1.381 . S
C818 C819 1.394 . S
C818 H826 0.930 . S
C819 C818 1.394 . S
C819 C820 1.383 . S
C819 H827 0.929 . S
C820 C819 1.383 . S
C820 C821 1.377 . S
C821 H805 0.930 . S
C821 C820 1.377 . S
C821 C822 1.379 . S
C822 H806 0.931 1_554 S
C822 C816 1.383 . S
C822 C821 1.379 . S
H823 C817 0.959 . S
H824 C817 0.961 . S
H825 C817 0.960 . S
H826 C818 0.930 . S
H827 C819 0.929 . S
H828 C836 0.929 . S
H829 C838 0.930 . S
H830 C840 0.930 . S
H831 C843 0.929 1_545 S
H832 C846 0.930 . S
H833 C848 0.960 . S
H834 C848 0.960 . S
H835 C848 0.960 . S
C836 H828 0.929 . S
C836 C837 1.377 . S
C836 C838 1.384 . S
C837 C836 1.377 . S
C837 C843 1.390 . S
C838 H829 0.930 . S
C838 C836 1.384 . S
C838 C839 1.372 . S
C839 C838 1.372 . S
C839 C840 1.400 . S
C839 C844 1.490 . S
C840 H830 0.930 . S
C840 C839 1.400 . S
C840 C843 1.386 . S
H841 C857 0.930 . S
H842 C858 0.931 . S
C843 H831 0.929 1_565 S
C843 C837 1.390 . S
C843 C840 1.386 . S
C844 C839 1.490 . S
C844 C846 1.395 . S
C844 C847 1.403 . S
H845 C851 0.930 . S
C846 H832 0.930 . S
C846 C844 1.395 . S
C846 C849 1.403 . S
C847 C844 1.403 . S
C847 C848 1.524 . S
C847 C851 1.400 . S
C848 H833 0.960 . S
C848 H834 0.960 . S
C848 H835 0.960 . S
C848 C847 1.524 . S
C849 C846 1.403 . S
C849 C850 1.392 . S
C849 C853 1.495 . S
C850 C849 1.392 . S
C850 C851 1.385 . S
C850 C852 1.478 . S
C851 H845 0.930 . S
C851 C847 1.400 . S
C851 C850 1.385 . S
C852 C850 1.478 . S
C852 C854 1.381 . S
C852 C858 1.383 . S
C853 C849 1.495 . S
C853 H859 0.959 . S
C853 H860 0.961 . S
C853 H861 0.960 . S
C854 C852 1.381 . S
C854 C855 1.394 . S
C854 H862 0.930 . S
C855 C854 1.394 . S
C855 C856 1.383 . S
C855 H863 0.929 . S
C856 C855 1.383 . S
C856 C857 1.377 . S
C857 H841 0.930 . S
C857 C856 1.377 . S
C857 C858 1.379 . S
C858 H842 0.931 . S
C858 C852 1.383 . S
C858 C857 1.379 . S
H859 C853 0.959 . S
H860 C853 0.961 . S
H861 C853 0.960 . S
H862 C854 0.930 . S
H863 C855 0.929 . S
H864 C872 0.929 . S
H865 C874 0.930 . S
H866 C876 0.930 . S
H867 C879 0.929 . S
H868 C882 0.930 . S
H869 C884 0.960 . S
H870 C884 0.960 . S
H871 C884 0.960 . S
C872 H864 0.929 . S
C872 C873 1.377 . S
C872 C874 1.384 . S
C873 C872 1.377 . S
C873 C879 1.390 . S
C874 H865 0.930 . S
C874 C872 1.384 . S
C874 C875 1.372 . S
C875 C874 1.372 . S
C875 C876 1.400 . S
C875 C880 1.490 . S
C876 H866 0.930 . S
C876 C875 1.400 . S
C876 C879 1.386 . S
H877 C893 0.930 . S
H878 C894 0.931 . S
C879 H867 0.929 . S
C879 C873 1.390 . S
C879 C876 1.386 . S
C880 C875 1.490 . S
C880 C882 1.395 . S
C880 C883 1.403 . S
H881 C887 0.930 . S
C882 H868 0.930 . S
C882 C880 1.395 . S
C882 C885 1.403 . S
C883 C880 1.403 . S
C883 C884 1.524 . S
C883 C887 1.400 . S
C884 H869 0.960 . S
C884 H870 0.960 . S
C884 H871 0.960 . S
C884 C883 1.524 . S
C885 C882 1.403 . S
C885 C886 1.392 . S
C885 C889 1.495 . S
C886 C885 1.392 . S
C886 C887 1.385 . S
C886 C888 1.478 . S
C887 H881 0.930 . S
C887 C883 1.400 . S
C887 C886 1.385 . S
C888 C886 1.478 . S
C888 C890 1.381 . S
C888 C894 1.383 . S
C889 C885 1.495 . S
C889 H895 0.959 . S
C889 H896 0.961 . S
C889 H897 0.960 . S
C890 C888 1.381 . S
C890 C891 1.394 . S
C890 H898 0.930 . S
C891 C890 1.394 . S
C891 C892 1.383 . S
C891 H899 0.929 . S
C892 C891 1.383 . S
C892 C893 1.377 . S
C893 H877 0.930 . S
C893 C892 1.377 . S
C893 C894 1.379 . S
C894 H878 0.931 . S
C894 C888 1.383 . S
C894 C893 1.379 . S
H895 C889 0.959 . S
H896 C889 0.961 . S
H897 C889 0.960 . S
H898 C890 0.930 . S
H899 C891 0.929 . S
H900 C908 0.929 . S
H901 C910 0.930 . S
H902 C912 0.930 . S
H903 C915 0.929 . S
H904 C918 0.930 . S
H905 C920 0.960 . S
H906 C920 0.960 . S
H907 C920 0.960 . S
C908 H900 0.929 . S
C908 C909 1.377 . S
C908 C910 1.384 . S
C909 C908 1.377 . S
C909 C915 1.390 . S
C910 H901 0.930 . S
C910 C908 1.384 . S
C910 C911 1.372 . S
C911 C910 1.372 . S
C911 C912 1.400 . S
C911 C916 1.490 . S
C912 H902 0.930 . S
C912 C911 1.400 . S
C912 C915 1.386 . S
H913 C929 0.930 . S
H914 C930 0.931 . S
C915 H903 0.929 . S
C915 C909 1.390 . S
C915 C912 1.386 . S
C916 C911 1.490 . S
C916 C918 1.395 . S
C916 C919 1.403 . S
H917 C923 0.930 . S
C918 H904 0.930 . S
C918 C916 1.395 . S
C918 C921 1.403 . S
C919 C916 1.403 . S
C919 C920 1.524 . S
C919 C923 1.400 . S
C920 H905 0.960 . S
C920 H906 0.960 . S
C920 H907 0.960 . S
C920 C919 1.524 . S
C921 C918 1.403 . S
C921 C922 1.392 . S
C921 C925 1.495 . S
C922 C921 1.392 . S
C922 C923 1.385 . S
C922 C924 1.478 . S
C923 H917 0.930 . S
C923 C919 1.400 . S
C923 C922 1.385 . S
C924 C922 1.478 . S
C924 C926 1.381 . S
C924 C930 1.383 . S
C925 C921 1.495 . S
C925 H931 0.959 1_554 S
C925 H932 0.961 1_554 S
C925 H933 0.960 . S
C926 C924 1.381 . S
C926 C927 1.394 . S
C926 H934 0.930 . S
C927 C926 1.394 . S
C927 C928 1.383 . S
C927 H935 0.929 . S
C928 C927 1.383 . S
C928 C929 1.377 . S
C929 H913 0.930 . S
C929 C928 1.377 . S
C929 C930 1.379 . S
C930 H914 0.931 . S
C930 C924 1.383 . S
C930 C929 1.379 . S
H931 C925 0.959 1_556 S
H932 C925 0.961 1_556 S
H933 C925 0.960 . S
H934 C926 0.930 . S
H935 C927 0.929 . S
H936 C944 0.929 . S
H937 C946 0.930 . S
H938 C948 0.930 . S
H939 C951 0.929 . S
H940 C954 0.930 . S
H941 C956 0.960 . S
H942 C956 0.960 . S
H943 C956 0.960 . S
C944 H936 0.929 . S
C944 C945 1.377 . S
C944 C946 1.384 . S
C945 C944 1.377 . S
C945 C951 1.390 . S
C946 H937 0.930 . S
C946 C944 1.384 . S
C946 C947 1.372 . S
C947 C946 1.372 . S
C947 C948 1.400 . S
C947 C952 1.490 . S
C948 H938 0.930 . S
C948 C947 1.400 . S
C948 C951 1.386 . S
H949 C965 0.930 . S
H950 C966 0.931 . S
C951 H939 0.929 . S
C951 C945 1.390 . S
C951 C948 1.386 . S
C952 C947 1.490 . S
C952 C954 1.395 . S
C952 C955 1.403 . S
H953 C959 0.930 . S
C954 H940 0.930 . S
C954 C952 1.395 . S
C954 C957 1.403 . S
C955 C952 1.403 . S
C955 C956 1.524 . S
C955 C959 1.400 . S
C956 H941 0.960 . S
C956 H942 0.960 . S
C956 H943 0.960 . S
C956 C955 1.524 . S
C957 C954 1.403 . S
C957 C958 1.392 . S
C957 C961 1.495 . S
C958 C957 1.392 . S
C958 C959 1.385 . S
C958 C960 1.478 . S
C959 H953 0.930 . S
C959 C955 1.400 . S
C959 C958 1.385 . S
C960 C958 1.478 . S
C960 C962 1.381 . S
C960 C966 1.383 . S
C961 C957 1.495 . S
C961 H967 0.959 . S
C961 H968 0.961 . S
C961 H969 0.960 . S
C962 C960 1.381 . S
C962 C963 1.394 . S
C962 H970 0.930 . S
C963 C962 1.394 . S
C963 C964 1.383 . S
C963 H971 0.929 . S
C964 C963 1.383 . S
C964 C965 1.377 . S
C965 H949 0.930 . S
C965 C964 1.377 . S
C965 C966 1.379 . S
C966 H950 0.931 . S
C966 C960 1.383 . S
C966 C965 1.379 . S
H967 C961 0.959 . S
H968 C961 0.961 . S
H969 C961 0.960 . S
H970 C962 0.930 . S
H971 C963 0.929 . S
H972 C980 0.929 . S
H973 C982 0.930 . S
H974 C984 0.930 . S
H975 C987 0.929 . S
H976 C990 0.930 . S
H977 C992 0.960 . S
H978 C992 0.960 . S
H979 C992 0.960 . S
C980 H972 0.929 . S
C980 C981 1.377 . S
C980 C982 1.384 . S
C981 C980 1.377 . S
C981 C987 1.390 . S
C982 H973 0.930 . S
C982 C980 1.384 . S
C982 C983 1.372 . S
C983 C982 1.372 . S
C983 C984 1.400 . S
C983 C988 1.490 . S
C984 H974 0.930 . S
C984 C983 1.400 . S
C984 C987 1.386 . S
H985 C1001 0.930 . S
H986 C1002 0.931 . S
C987 H975 0.929 . S
C987 C981 1.390 . S
C987 C984 1.386 . S
C988 C983 1.490 . S
C988 C990 1.395 . S
C988 C991 1.403 . S
H989 C995 0.930 1_565 S
C990 H976 0.930 . S
C990 C988 1.395 . S
C990 C993 1.403 . S
C991 C988 1.403 . S
C991 C992 1.524 . S
C991 C995 1.400 . S
C992 H977 0.960 . S
C992 H978 0.960 . S
C992 H979 0.960 . S
C992 C991 1.524 . S
C993 C990 1.403 . S
C993 C994 1.399 . S
C993 C997 1.495 . S
C994 C993 1.399 . S
C994 C995 1.384 . S
C994 C996 1.472 1_545 S
C995 H989 0.930 1_545 S
C995 C991 1.400 . S
C995 C994 1.384 . S
C996 C994 1.472 1_565 S
C996 C998 1.381 . S
C996 C1002 1.383 . S
C997 C993 1.495 . S
C997 H1003 0.959 . S
C997 H1004 0.961 . S
C997 H1005 0.960 . S
C998 C996 1.381 . S
C998 C999 1.394 . S
C998 H1006 0.930 . S
C999 C998 1.394 . S
C999 C1000 1.383 . S
C999 H1007 0.929 . S
C1000 C999 1.383 . S
C1000 C1001 1.377 . S
C1001 H985 0.930 . S
C1001 C1000 1.377 . S
C1001 C1002 1.379 . S
C1002 H986 0.931 . S
C1002 C996 1.383 . S
C1002 C1001 1.379 . S
H1003 C997 0.959 . S
H1004 C997 0.961 . S
H1005 C997 0.960 . S
H1006 C998 0.930 . S
H1007 C999 0.929 . S
H1008 C1016 0.929 1_655 S
H1009 C1018 0.930 . S
H1010 C1020 0.930 . S
H1011 C1023 0.929 . S
H1012 C1026 0.930 . S
H1013 C1028 0.960 . S
H1014 C1028 0.960 . S
H1015 C1028 0.960 . S
C1016 H1008 0.929 1_455 S
C1016 C1017 1.377 . S
C1016 C1018 1.384 . S
C1017 C1016 1.377 . S
C1017 C1023 1.390 . S
C1018 H1009 0.930 . S
C1018 C1016 1.384 . S
C1018 C1019 1.372 . S
C1019 C1018 1.372 . S
C1019 C1020 1.400 . S
C1019 C1024 1.490 . S
C1020 H1010 0.930 . S
C1020 C1019 1.400 . S
C1020 C1023 1.386 . S
H1021 C1037 0.930 . S
H1022 C1038 0.931 . S
C1023 H1011 0.929 . S
C1023 C1017 1.390 . S
C1023 C1020 1.386 . S
C1024 C1019 1.490 . S
C1024 C1026 1.395 . S
C1024 C1027 1.403 . S
H1025 C1031 0.930 . S
C1026 H1012 0.930 . S
C1026 C1024 1.395 . S
C1026 C1029 1.403 . S
C1027 C1024 1.403 . S
C1027 C1028 1.524 . S
C1027 C1031 1.400 . S
C1028 H1013 0.960 . S
C1028 H1014 0.960 . S
C1028 H1015 0.960 . S
C1028 C1027 1.524 . S
C1029 C1026 1.403 . S
C1029 C1030 1.392 . S
C1029 C1033 1.495 . S
C1030 C1029 1.392 . S
C1030 C1031 1.385 . S
C1030 C1032 1.478 . S
C1031 H1025 0.930 . S
C1031 C1027 1.400 . S
C1031 C1030 1.385 . S
C1032 C1030 1.478 . S
C1032 C1034 1.381 . S
C1032 C1038 1.383 . S
C1033 C1029 1.495 . S
C1033 H1039 0.959 . S
C1033 H1040 0.961 . S
C1033 H1041 0.960 . S
C1034 C1032 1.381 . S
C1034 C1035 1.394 . S
C1034 H1042 0.930 . S
C1035 C1034 1.394 . S
C1035 C1036 1.383 . S
C1035 H1043 0.929 . S
C1036 C1035 1.383 . S
C1036 C1037 1.377 . S
C1037 H1021 0.930 . S
C1037 C1036 1.377 . S
C1037 C1038 1.379 . S
C1038 H1022 0.931 . S
C1038 C1032 1.383 . S
C1038 C1037 1.379 . S
H1039 C1033 0.959 . S
H1040 C1033 0.961 . S
H1041 C1033 0.960 . S
H1042 C1034 0.930 . S
H1043 C1035 0.929 . S
H1044 C1052 0.929 . S
H1045 C1054 0.930 . S
H1046 C1056 0.930 . S
H1047 C1059 0.929 . S
H1048 C1062 0.930 . S
H1049 C1064 0.960 . S
H1050 C1064 0.960 . S
H1051 C1064 0.960 . S
C1052 H1044 0.929 . S
C1052 C1053 1.377 . S
C1052 C1054 1.384 . S
C1053 C1052 1.377 . S
C1053 C1059 1.390 . S
C1054 H1045 0.930 . S
C1054 C1052 1.384 . S
C1054 C1055 1.372 . S
C1055 C1054 1.372 . S
C1055 C1056 1.400 . S
C1055 C1060 1.490 . S
C1056 H1046 0.930 . S
C1056 C1055 1.400 . S
C1056 C1059 1.386 . S
H1057 C1073 0.930 . S
H1058 C1074 0.931 . S
C1059 H1047 0.929 . S
C1059 C1053 1.390 . S
C1059 C1056 1.386 . S
C1060 C1055 1.490 . S
C1060 C1062 1.395 . S
C1060 C1063 1.403 . S
H1061 C1067 0.930 . S
C1062 H1048 0.930 . S
C1062 C1060 1.395 . S
C1062 C1065 1.403 . S
C1063 C1060 1.403 . S
C1063 C1064 1.524 . S
C1063 C1067 1.400 . S
C1064 H1049 0.960 . S
C1064 H1050 0.960 . S
C1064 H1051 0.960 . S
C1064 C1063 1.524 . S
C1065 C1062 1.403 . S
C1065 C1066 1.392 . S
C1065 C1069 1.495 . S
C1066 C1065 1.392 . S
C1066 C1067 1.385 . S
C1066 C1068 1.478 . S
C1067 H1061 0.930 . S
C1067 C1063 1.400 . S
C1067 C1066 1.385 . S
C1068 C1066 1.478 . S
C1068 C1070 1.381 . S
C1068 C1074 1.383 . S
C1069 C1065 1.495 . S
C1069 H1075 0.959 . S
C1069 H1076 0.961 . S
C1069 H1077 0.960 . S
C1070 C1068 1.381 . S
C1070 C1071 1.394 . S
C1070 H1078 0.930 . S
C1071 C1070 1.394 . S
C1071 C1072 1.383 . S
C1071 H1079 0.929 . S
C1072 C1071 1.383 . S
C1072 C1073 1.377 . S
C1073 H1057 0.930 . S
C1073 C1072 1.377 . S
C1073 C1074 1.379 . S
C1074 H1058 0.931 . S
C1074 C1068 1.383 . S
C1074 C1073 1.379 . S
H1075 C1069 0.959 . S
H1076 C1069 0.961 . S
H1077 C1069 0.960 . S
H1078 C1070 0.930 . S
H1079 C1071 0.929 . S
H1080 C1088 0.929 . S
H1081 C1090 0.930 . S
H1082 C1092 0.930 . S
H1083 C1095 0.929 . S
H1084 C1098 0.930 . S
H1085 C1100 0.960 . S
H1086 C1100 0.960 . S
H1087 C1100 0.960 . S
C1088 H1080 0.929 . S
C1088 C1089 1.377 . S
C1088 C1090 1.384 . S
C1089 C1088 1.377 . S
C1089 C1095 1.390 . S
C1090 H1081 0.930 . S
C1090 C1088 1.384 . S
C1090 C1091 1.372 . S
C1091 C1090 1.372 . S
C1091 C1092 1.400 . S
C1091 C1096 1.490 . S
C1092 H1082 0.930 . S
C1092 C1091 1.400 . S
C1092 C1095 1.386 . S
H1093 C1109 0.930 . S
H1094 C1110 0.931 . S
C1095 H1083 0.929 . S
C1095 C1089 1.390 . S
C1095 C1092 1.386 . S
C1096 C1091 1.490 . S
C1096 C1098 1.395 . S
C1096 C1099 1.403 1_565 S
H1097 C1103 0.930 . S
C1098 H1084 0.930 . S
C1098 C1096 1.395 . S
C1098 C1101 1.403 1_565 S
C1099 C1096 1.403 1_545 S
C1099 C1100 1.524 . S
C1099 C1103 1.400 . S
C1100 H1085 0.960 . S
C1100 H1086 0.960 . S
C1100 H1087 0.960 . S
C1100 C1099 1.524 . S
C1101 C1098 1.403 1_545 S
C1101 C1102 1.392 . S
C1101 C1105 1.495 . S
C1102 C1101 1.392 . S
C1102 C1103 1.385 . S
C1102 C1104 1.478 . S
C1103 H1097 0.930 . S
C1103 C1099 1.400 . S
C1103 C1102 1.385 . S
C1104 C1102 1.478 . S
C1104 C1106 1.381 . S
C1104 C1110 1.383 . S
C1105 C1101 1.495 . S
C1105 H1111 0.959 . S
C1105 H1112 0.961 . S
C1105 H1113 0.960 . S
C1106 C1104 1.381 . S
C1106 C1107 1.394 . S
C1106 H1114 0.930 . S
C1107 C1106 1.394 . S
C1107 C1108 1.383 . S
C1107 H1115 0.929 . S
C1108 C1107 1.383 . S
C1108 C1109 1.377 . S
C1109 H1093 0.930 . S
C1109 C1108 1.377 . S
C1109 C1110 1.379 . S
C1110 H1094 0.931 . S
C1110 C1104 1.383 . S
C1110 C1109 1.379 . S
H1111 C1105 0.959 . S
H1112 C1105 0.961 . S
H1113 C1105 0.960 . S
H1114 C1106 0.930 . S
H1115 C1107 0.929 . S
H1116 C1124 0.929 1_655 S
H1117 C1126 0.930 . S
H1118 C1128 0.930 . S
H1119 C1131 0.929 . S
H1120 C1134 0.930 . S
H1121 C1136 0.960 . S
H1122 C1136 0.960 . S
H1123 C1136 0.960 . S
C1124 H1116 0.929 1_455 S
C1124 C1125 1.377 . S
C1124 C1126 1.384 . S
C1125 C1124 1.377 . S
C1125 C1131 1.390 . S
C1126 H1117 0.930 . S
C1126 C1124 1.384 . S
C1126 C1127 1.372 . S
C1127 C1126 1.372 . S
C1127 C1128 1.400 . S
C1127 C1132 1.490 . S
C1128 H1118 0.930 . S
C1128 C1127 1.400 . S
C1128 C1131 1.386 . S
H1129 C1145 0.930 . S
H1130 C1146 0.931 . S
C1131 H1119 0.929 . S
C1131 C1125 1.390 . S
C1131 C1128 1.386 . S
C1132 C1127 1.490 . S
C1132 C1134 1.395 . S
C1132 C1135 1.403 . S
H1133 C1139 0.930 . S
C1134 H1120 0.930 . S
C1134 C1132 1.395 . S
C1134 C1137 1.403 . S
C1135 C1132 1.403 . S
C1135 C1136 1.524 . S
C1135 C1139 1.400 . S
C1136 H1121 0.960 . S
C1136 H1122 0.960 . S
C1136 H1123 0.960 . S
C1136 C1135 1.524 . S
C1137 C1134 1.403 . S
C1137 C1138 1.392 . S
C1137 C1141 1.495 . S
C1138 C1137 1.392 . S
C1138 C1139 1.385 . S
C1138 C1140 1.478 . S
C1139 H1133 0.930 . S
C1139 C1135 1.400 . S
C1139 C1138 1.385 . S
C1140 C1138 1.478 . S
C1140 C1142 1.381 . S
C1140 C1146 1.383 . S
C1141 C1137 1.495 . S
C1141 H1147 0.959 . S
C1141 H1148 0.961 . S
C1141 H1149 0.960 . S
C1142 C1140 1.381 . S
C1142 C1143 1.394 . S
C1142 H1150 0.930 . S
C1143 C1142 1.394 . S
C1143 C1144 1.383 . S
C1143 H1151 0.929 . S
C1144 C1143 1.383 . S
C1144 C1145 1.377 . S
C1145 H1129 0.930 . S
C1145 C1144 1.377 . S
C1145 C1146 1.379 . S
C1146 H1130 0.931 . S
C1146 C1140 1.383 . S
C1146 C1145 1.379 . S
H1147 C1141 0.959 . S
H1148 C1141 0.961 . S
H1149 C1141 0.960 . S
H1150 C1142 0.930 . S
H1151 C1143 0.929 . S
C189 C1 1.012 . S
C208 C9 1.031 . S
C225 C29 1.018 . S
C244 C21 1.028 . S
C261 C41 1.050 . S
C280 C49 1.041 . S
C297 C69 1.010 . S
C316 C61 1.033 . S
C333 C81 1.018 . S
C352 C89 1.028 . S
C369 C109 1.048 . S
C388 C101 1.018 1_556 S
C405 C128 1.216 . S
C424 C139 1.247 . S
C441 C159 1.219 . S
C460 C148 1.223 . S
C477 C168 1.233 . S
C496 C179 1.243 . S
C513 C116 2.271 . S
C532 C8 2.221 . S
C549 C36 1.719 . S
C568 C76 1.700 . S
C585 C48 2.787 1_565 S
C604 C88 2.778 . S
C621 C56 0.972 . S
C640 C126 0.978 . S
C657 C149 1.176 . S
C676 C16 1.143 . S
C693 C166 1.622 . S
C712 C28 1.618 . S
C729 C161 1.666 . S
C748 C19 1.632 . S
C765 C26 0.888 . S
C784 C121 0.937 . S
C801 C156 1.392 . S
C820 C59 1.313 . S
C837 C46 2.265 . S
C856 C79 2.234 . S
C873 C86 1.715 . S
C892 C6 1.689 . S
C909 C39 2.766 . S
C928 C119 2.789 . S
C945 C169 1.666 . S
C964 C68 1.617 . S
C981 C129 0.921 . S
C1000 C96 0.935 . S
C1017 C146 1.388 1_455 S
C1036 C108 1.360 . S
C1053 C136 1.000 . S
C1072 C106 0.922 . S
C1089 C66 1.154 . S
C1108 C141 1.159 . S
C1125 C176 1.620 1_455 S
C1144 C99 1.589 . S
