# Generated by pormake.
# Topology cha, (4)-cn, num edge types: 1
# Building blocks:
#     Node 0, Type 0, BuildingBlock: QUQFOY_clean_sbu_1, # of connection points: 4
#     Node 1, Type 0, BuildingBlock: QUQFOY_clean_sbu_1, # of connection points: 4
#     Node 2, Type 0, BuildingBlock: QUQFOY_clean_sbu_1, # of connection points: 4
#     Node 3, Type 0, BuildingBlock: QUQFOY_clean_sbu_1, # of connection points: 4
#     Node 4, Type 0, BuildingBlock: QUQFOY_clean_sbu_1, # of connection points: 4
#     Node 5, Type 0, BuildingBlock: QUQFOY_clean_sbu_1, # of connection points: 4
#     Node 6, Type 0, BuildingBlock: QUQFOY_clean_sbu_1, # of connection points: 4
#     Node 7, Type 0, BuildingBlock: QUQFOY_clean_sbu_1, # of connection points: 4
#     Node 8, Type 0, BuildingBlock: QUQFOY_clean_sbu_1, # of connection points: 4
#     Node 9, Type 0, BuildingBlock: QUQFOY_clean_sbu_1, # of connection points: 4
#     Node 10, Type 0, BuildingBlock: QUQFOY_clean_sbu_1, # of connection points: 4
#     Node 11, Type 0, BuildingBlock: QUQFOY_clean_sbu_1, # of connection points: 4
#     Node 12, Type 0, BuildingBlock: QUQFOY_clean_sbu_1, # of connection points: 4
#     Node 13, Type 0, BuildingBlock: QUQFOY_clean_sbu_1, # of connection points: 4
#     Node 14, Type 0, BuildingBlock: QUQFOY_clean_sbu_1, # of connection points: 4
#     Node 15, Type 0, BuildingBlock: QUQFOY_clean_sbu_1, # of connection points: 4
#     Node 16, Type 0, BuildingBlock: QUQFOY_clean_sbu_1, # of connection points: 4
#     Node 17, Type 0, BuildingBlock: QUQFOY_clean_sbu_1, # of connection points: 4
#     Node 18, Type 0, BuildingBlock: QUQFOY_clean_sbu_1, # of connection points: 4
#     Node 19, Type 0, BuildingBlock: QUQFOY_clean_sbu_1, # of connection points: 4
#     Node 20, Type 0, BuildingBlock: QUQFOY_clean_sbu_1, # of connection points: 4
#     Node 21, Type 0, BuildingBlock: QUQFOY_clean_sbu_1, # of connection points: 4
#     Node 22, Type 0, BuildingBlock: QUQFOY_clean_sbu_1, # of connection points: 4
#     Node 23, Type 0, BuildingBlock: QUQFOY_clean_sbu_1, # of connection points: 4
#     Node 24, Type 0, BuildingBlock: QUQFOY_clean_sbu_1, # of connection points: 4
#     Node 25, Type 0, BuildingBlock: QUQFOY_clean_sbu_1, # of connection points: 4
#     Node 26, Type 0, BuildingBlock: QUQFOY_clean_sbu_1, # of connection points: 4
#     Node 27, Type 0, BuildingBlock: QUQFOY_clean_sbu_1, # of connection points: 4
#     Node 28, Type 0, BuildingBlock: QUQFOY_clean_sbu_1, # of connection points: 4
#     Node 29, Type 0, BuildingBlock: QUQFOY_clean_sbu_1, # of connection points: 4
#     Node 30, Type 0, BuildingBlock: QUQFOY_clean_sbu_1, # of connection points: 4
#     Node 31, Type 0, BuildingBlock: QUQFOY_clean_sbu_1, # of connection points: 4
#     Node 32, Type 0, BuildingBlock: QUQFOY_clean_sbu_1, # of connection points: 4
#     Node 33, Type 0, BuildingBlock: QUQFOY_clean_sbu_1, # of connection points: 4
#     Node 34, Type 0, BuildingBlock: QUQFOY_clean_sbu_1, # of connection points: 4
#     Node 35, Type 0, BuildingBlock: QUQFOY_clean_sbu_1, # of connection points: 4
#     Edge 36, Type (0, 0), BuildingBlock: MIFKUJ_clean_linker_0, # of connection points: 2
#     Edge 37, Type (0, 0), BuildingBlock: MIFKUJ_clean_linker_0, # of connection points: 2
#     Edge 38, Type (0, 0), BuildingBlock: MIFKUJ_clean_linker_0, # of connection points: 2
#     Edge 39, Type (0, 0), BuildingBlock: MIFKUJ_clean_linker_0, # of connection points: 2
#     Edge 40, Type (0, 0), BuildingBlock: MIFKUJ_clean_linker_0, # of connection points: 2
#     Edge 41, Type (0, 0), BuildingBlock: MIFKUJ_clean_linker_0, # of connection points: 2
#     Edge 42, Type (0, 0), BuildingBlock: MIFKUJ_clean_linker_0, # of connection points: 2
#     Edge 43, Type (0, 0), BuildingBlock: MIFKUJ_clean_linker_0, # of connection points: 2
#     Edge 44, Type (0, 0), BuildingBlock: MIFKUJ_clean_linker_0, # of connection points: 2
#     Edge 45, Type (0, 0), BuildingBlock: MIFKUJ_clean_linker_0, # of connection points: 2
#     Edge 46, Type (0, 0), BuildingBlock: MIFKUJ_clean_linker_0, # of connection points: 2
#     Edge 47, Type (0, 0), BuildingBlock: MIFKUJ_clean_linker_0, # of connection points: 2
#     Edge 48, Type (0, 0), BuildingBlock: MIFKUJ_clean_linker_0, # of connection points: 2
#     Edge 49, Type (0, 0), BuildingBlock: MIFKUJ_clean_linker_0, # of connection points: 2
#     Edge 50, Type (0, 0), BuildingBlock: MIFKUJ_clean_linker_0, # of connection points: 2
#     Edge 51, Type (0, 0), BuildingBlock: MIFKUJ_clean_linker_0, # of connection points: 2
#     Edge 52, Type (0, 0), BuildingBlock: MIFKUJ_clean_linker_0, # of connection points: 2
#     Edge 53, Type (0, 0), BuildingBlock: MIFKUJ_clean_linker_0, # of connection points: 2
#     Edge 54, Type (0, 0), BuildingBlock: MIFKUJ_clean_linker_0, # of connection points: 2
#     Edge 55, Type (0, 0), BuildingBlock: MIFKUJ_clean_linker_0, # of connection points: 2
#     Edge 56, Type (0, 0), BuildingBlock: MIFKUJ_clean_linker_0, # of connection points: 2
#     Edge 57, Type (0, 0), BuildingBlock: MIFKUJ_clean_linker_0, # of connection points: 2
#     Edge 58, Type (0, 0), BuildingBlock: MIFKUJ_clean_linker_0, # of connection points: 2
#     Edge 59, Type (0, 0), BuildingBlock: MIFKUJ_clean_linker_0, # of connection points: 2
#     Edge 60, Type (0, 0), BuildingBlock: MIFKUJ_clean_linker_0, # of connection points: 2
#     Edge 61, Type (0, 0), BuildingBlock: MIFKUJ_clean_linker_0, # of connection points: 2
#     Edge 62, Type (0, 0), BuildingBlock: MIFKUJ_clean_linker_0, # of connection points: 2
#     Edge 63, Type (0, 0), BuildingBlock: MIFKUJ_clean_linker_0, # of connection points: 2
#     Edge 64, Type (0, 0), BuildingBlock: MIFKUJ_clean_linker_0, # of connection points: 2
#     Edge 65, Type (0, 0), BuildingBlock: MIFKUJ_clean_linker_0, # of connection points: 2
#     Edge 66, Type (0, 0), BuildingBlock: MIFKUJ_clean_linker_0, # of connection points: 2
#     Edge 67, Type (0, 0), BuildingBlock: MIFKUJ_clean_linker_0, # of connection points: 2
#     Edge 68, Type (0, 0), BuildingBlock: MIFKUJ_clean_linker_0, # of connection points: 2
#     Edge 69, Type (0, 0), BuildingBlock: MIFKUJ_clean_linker_0, # of connection points: 2
#     Edge 70, Type (0, 0), BuildingBlock: MIFKUJ_clean_linker_0, # of connection points: 2
#     Edge 71, Type (0, 0), BuildingBlock: MIFKUJ_clean_linker_0, # of connection points: 2
#     Edge 72, Type (0, 0), BuildingBlock: MIFKUJ_clean_linker_0, # of connection points: 2
#     Edge 73, Type (0, 0), BuildingBlock: MIFKUJ_clean_linker_0, # of connection points: 2
#     Edge 74, Type (0, 0), BuildingBlock: MIFKUJ_clean_linker_0, # of connection points: 2
#     Edge 75, Type (0, 0), BuildingBlock: MIFKUJ_clean_linker_0, # of connection points: 2
#     Edge 76, Type (0, 0), BuildingBlock: MIFKUJ_clean_linker_0, # of connection points: 2
#     Edge 77, Type (0, 0), BuildingBlock: MIFKUJ_clean_linker_0, # of connection points: 2
#     Edge 78, Type (0, 0), BuildingBlock: MIFKUJ_clean_linker_0, # of connection points: 2
#     Edge 79, Type (0, 0), BuildingBlock: MIFKUJ_clean_linker_0, # of connection points: 2
#     Edge 80, Type (0, 0), BuildingBlock: MIFKUJ_clean_linker_0, # of connection points: 2
#     Edge 81, Type (0, 0), BuildingBlock: MIFKUJ_clean_linker_0, # of connection points: 2
#     Edge 82, Type (0, 0), BuildingBlock: MIFKUJ_clean_linker_0, # of connection points: 2
#     Edge 83, Type (0, 0), BuildingBlock: MIFKUJ_clean_linker_0, # of connection points: 2
#     Edge 84, Type (0, 0), BuildingBlock: MIFKUJ_clean_linker_0, # of connection points: 2
#     Edge 85, Type (0, 0), BuildingBlock: MIFKUJ_clean_linker_0, # of connection points: 2
#     Edge 86, Type (0, 0), BuildingBlock: MIFKUJ_clean_linker_0, # of connection points: 2
#     Edge 87, Type (0, 0), BuildingBlock: MIFKUJ_clean_linker_0, # of connection points: 2
#     Edge 88, Type (0, 0), BuildingBlock: MIFKUJ_clean_linker_0, # of connection points: 2
#     Edge 89, Type (0, 0), BuildingBlock: MIFKUJ_clean_linker_0, # of connection points: 2
#     Edge 90, Type (0, 0), BuildingBlock: MIFKUJ_clean_linker_0, # of connection points: 2
#     Edge 91, Type (0, 0), BuildingBlock: MIFKUJ_clean_linker_0, # of connection points: 2
#     Edge 92, Type (0, 0), BuildingBlock: MIFKUJ_clean_linker_0, # of connection points: 2
#     Edge 93, Type (0, 0), BuildingBlock: MIFKUJ_clean_linker_0, # of connection points: 2
#     Edge 94, Type (0, 0), BuildingBlock: MIFKUJ_clean_linker_0, # of connection points: 2
#     Edge 95, Type (0, 0), BuildingBlock: MIFKUJ_clean_linker_0, # of connection points: 2
#     Edge 96, Type (0, 0), BuildingBlock: MIFKUJ_clean_linker_0, # of connection points: 2
#     Edge 97, Type (0, 0), BuildingBlock: MIFKUJ_clean_linker_0, # of connection points: 2
#     Edge 98, Type (0, 0), BuildingBlock: MIFKUJ_clean_linker_0, # of connection points: 2
#     Edge 99, Type (0, 0), BuildingBlock: MIFKUJ_clean_linker_0, # of connection points: 2
#     Edge 100, Type (0, 0), BuildingBlock: MIFKUJ_clean_linker_0, # of connection points: 2
#     Edge 101, Type (0, 0), BuildingBlock: MIFKUJ_clean_linker_0, # of connection points: 2
#     Edge 102, Type (0, 0), BuildingBlock: MIFKUJ_clean_linker_0, # of connection points: 2
#     Edge 103, Type (0, 0), BuildingBlock: MIFKUJ_clean_linker_0, # of connection points: 2
#     Edge 104, Type (0, 0), BuildingBlock: MIFKUJ_clean_linker_0, # of connection points: 2
#     Edge 105, Type (0, 0), BuildingBlock: MIFKUJ_clean_linker_0, # of connection points: 2
#     Edge 106, Type (0, 0), BuildingBlock: MIFKUJ_clean_linker_0, # of connection points: 2
#     Edge 107, Type (0, 0), BuildingBlock: MIFKUJ_clean_linker_0, # of connection points: 2
# Relax obj value: 0.043
# Max RMSD: 0.076
# Mean RMSD: 0.076
data_MOF--net-cha--node1-QUQFOY_clean_sbu_1--edge1-MIFKUJ_clean_linker_0
_symmetry_space_group_name_H-M    P1
_symmetry_Int_Tables_number       1
_symmetry_cell_setting            triclinic
loop_
_symmetry_equiv_pos_as_xyz
'x, y, z'
_cell_length_a     80.910433
_cell_length_b     80.901363
_cell_length_c     108.79113
_cell_angle_alpha  89.996274
_cell_angle_beta   90.00351
_cell_angle_gamma 119.99264
loop_
_atom_site_label
_atom_site_type_symbol
_atom_site_fract_x
_atom_site_fract_y
_atom_site_fract_z
_atom_type_partial_charge
O0 O 0.03384 0.27636 0.07382 0.0
Cd1 Cd 0.03292 0.26695 0.09158 0.0
Cd2 Cd 0.01542 0.28768 0.09475 0.0
O3 O 0.02485 0.29761 0.07707 0.0
O4 O 0.04953 0.25525 0.09077 0.0
O5 O 0.05655 0.28042 0.10225 0.0
C6 C 0.06116 0.26825 0.09821 0.0
C7 C 0.02146 0.30714 0.11194 0.0
C8 C 0.0308 0.28937 0.06982 0.0
C9 C 0.99148 0.2453 0.09806 0.0
O10 O 0.99155 0.26089 0.09633 0.0
O11 O 0.00698 0.24492 0.0976 0.0
O12 O 0.00938 0.30561 0.10363 0.0
O13 O 0.031 0.29846 0.1101 0.0
O14 O 0.77586 0.7827 0.07435 0.0
Cd15 Cd 0.78813 0.79365 0.09126 0.0
Cd16 Cd 0.76877 0.75492 0.09643 0.0
O17 O 0.75764 0.7522 0.0789 0.0
O18 O 0.79983 0.82168 0.08855 0.0
O19 O 0.77689 0.80603 0.10207 0.0
C20 C 0.78839 0.82193 0.09667 0.0
C21 C 0.7501 0.74098 0.11389 0.0
C22 C 0.76362 0.76579 0.07116 0.0
C23 C 0.81157 0.77542 0.0979 0.0
O24 O 0.79615 0.75945 0.09762 0.0
O25 O 0.81128 0.79087 0.09637 0.0
O26 O 0.7524 0.73081 0.10567 0.0
O27 O 0.75761 0.75908 0.11186 0.0
O28 O 0.27553 0.02817 0.0741 0.0
Cd29 Cd 0.26519 0.0286 0.09139 0.0
Cd30 Cd 0.30378 0.04779 0.09592 0.0
O31 O 0.30598 0.03935 0.07825 0.0
O32 O 0.23709 0.01216 0.08909 0.0
O33 O 0.25344 0.00458 0.10184 0.0
C34 C 0.23729 1.00026 0.09685 0.0
C35 C 0.31764 0.04259 0.11325 0.0
C36 C 0.29222 0.03249 0.07061 0.0
C37 C 0.28333 0.07002 0.09829 0.0
O38 O 0.29934 0.07073 0.09742 0.0
O39 O 0.26789 0.0542 0.09711 0.0
O40 O 0.32788 0.05514 0.10508 0.0
O41 O 0.29953 0.03216 0.11121 0.0
O42 O 0.28141 0.03293 0.93547 0.0
Cd43 Cd 0.27214 0.03234 0.91769 0.0
Cd44 Cd 0.2922 0.01382 0.91472 0.0
O45 O 0.30193 0.02292 0.93248 0.0
O46 O 0.26008 0.04858 0.919 0.0
O47 O 0.28508 0.05629 0.90722 0.0
C48 C 0.27277 0.0605 0.91152 0.0
C49 C 0.31172 0.0196 0.8976 0.0
C50 C 0.29396 0.02931 0.93962 0.0
C51 C 0.24997 0.99088 0.91092 0.0
O52 O 0.2652 0.99039 0.91291 0.0
O53 O 0.25009 0.00665 0.91136 0.0
O54 O 0.30982 0.00733 0.90588 0.0
O55 O 0.30343 0.02952 0.89947 0.0
O56 O 0.02682 0.27222 0.9353 0.0
Cd57 Cd 0.02643 0.26173 0.91793 0.0
Cd58 Cd 0.04662 0.30062 0.91338 0.0
O59 O 0.03941 0.30296 0.93138 0.0
O60 O 0.00894 0.23376 0.92004 0.0
O61 O 0.00258 0.25118 0.9074 0.0
C62 C 0.99752 0.23473 0.91222 0.0
C63 C 0.04344 0.31759 0.89698 0.0
C64 C 0.03217 0.2891 0.93894 0.0
C65 C 0.0673 0.27841 0.91039 0.0
O66 O 0.06843 0.29463 0.91104 0.0
O67 O 0.05142 0.26324 0.91209 0.0
O68 O 0.05643 0.32595 0.90526 0.0
O69 O 0.03141 0.2996 0.89839 0.0
O70 O 0.78288 0.77413 0.93788 0.0
Cd71 Cd 0.79587 0.78751 0.92161 0.0
Cd72 Cd 0.75696 0.77064 0.91555 0.0
O73 O 0.75227 0.75925 0.93314 0.0
O74 O 0.82294 0.79578 0.92565 0.0
O75 O 0.80771 0.77651 0.91013 0.0
C76 C 0.82299 0.78545 0.91668 0.0
C77 C 0.74057 0.75253 0.89832 0.0
C78 C 0.76552 0.7634 0.94092 0.0
C79 C 0.78131 0.8139 0.91483 0.0
O80 O 0.7649 0.79907 0.91414 0.0
O81 O 0.79593 0.81247 0.91726 0.0
O82 O 0.73231 0.7576 0.9064 0.0
O83 O 0.75801 0.75683 0.90036 0.0
O84 O 0.03155 0.78523 0.93457 0.0
Cd85 Cd 0.03102 0.79301 0.91654 0.0
Cd86 Cd 0.04851 0.77257 0.91344 0.0
O87 O 0.03944 0.76317 0.93126 0.0
O88 O 0.01437 0.80469 0.91682 0.0
O89 O 0.0065 0.7779 0.90691 0.0
C90 C 0.00221 0.79063 0.91023 0.0
C91 C 0.04273 0.75273 0.89649 0.0
C92 C 0.03438 0.77208 0.9386 0.0
C93 C 0.07204 0.81455 0.90922 0.0
O94 O 0.07231 0.7993 0.91158 0.0
O95 O 0.05635 0.8146 0.90945 0.0
O96 O 0.0548 0.75458 0.9049 0.0
O97 O 0.03298 0.76125 0.89813 0.0
O98 O 0.28192 0.27418 0.93552 0.0
Cd99 Cd 0.26985 0.26267 0.91866 0.0
Cd100 Cd 0.288 0.30173 0.91326 0.0
O101 O 0.29824 0.30493 0.9311 0.0
O102 O 0.25974 0.23482 0.92113 0.0
O103 O 0.28219 0.25176 0.90757 0.0
C104 C 0.27136 0.23551 0.9128 0.0
C105 C 0.30721 0.31886 0.89657 0.0
C106 C 0.29307 0.29137 0.9388 0.0
C107 C 0.24492 0.2788 0.91137 0.0
O108 O 0.26001 0.29504 0.91126 0.0
O109 O 0.24578 0.26383 0.91358 0.0
O110 O 0.30219 0.32693 0.90481 0.0
O111 O 0.3023 0.30116 0.89819 0.0
O112 O 0.78321 0.03277 0.93689 0.0
Cd113 Cd 0.79454 0.0315 0.92012 0.0
Cd114 Cd 0.75593 0.00972 0.91479 0.0
O115 O 0.75253 0.01776 0.93231 0.0
O116 O 0.82238 0.04945 0.92242 0.0
O117 O 0.80525 0.05429 0.90863 0.0
C118 C 0.82155 0.06 0.91386 0.0
C119 C 0.74081 0.01305 0.8974 0.0
C120 C 0.76596 0.02667 0.94001 0.0
C121 C 0.779 0.98996 0.91379 0.0
O122 O 0.76247 0.98818 0.91362 0.0
O123 O 0.79367 0.00622 0.91561 0.0
O124 O 0.73141 1.0003 0.90566 0.0
O125 O 0.75877 0.02463 0.89931 0.0
O126 O 0.77762 0.0261 0.07332 0.0
Cd127 Cd 0.7895 0.02757 0.09042 0.0
Cd128 Cd 0.76969 0.04666 0.09513 0.0
O129 O 0.75883 0.03782 0.07757 0.0
O130 O 0.80134 0.01131 0.08802 0.0
O131 O 0.77801 0.00396 0.10123 0.0
C132 C 0.78966 0.99958 0.09603 0.0
C133 C 0.75075 0.04243 0.11239 0.0
C134 C 0.76519 0.03041 0.06996 0.0
C135 C 0.81243 0.06928 0.09702 0.0
O136 O 0.79695 0.0697 0.09635 0.0
O137 O 0.81233 0.0536 0.09577 0.0
O138 O 0.75303 0.05452 0.1039 0.0
O139 O 0.75842 0.03189 0.11076 0.0
O140 O 0.03288 0.78678 0.07338 0.0
Cd141 Cd 0.03164 0.79616 0.09082 0.0
Cd142 Cd 0.01307 0.75734 0.09455 0.0
O143 O 0.02227 0.75626 0.07688 0.0
O144 O 0.04781 0.82438 0.08899 0.0
O145 O 0.05543 0.80777 0.10148 0.0
C146 C 0.0597 0.82404 0.0967 0.0
C147 C 0.01789 0.74265 0.11159 0.0
C148 C 0.02912 0.77041 0.06956 0.0
C149 C 0.99 0.77693 0.09721 0.0
O150 O 0.98976 0.76117 0.09601 0.0
O151 O 0.00564 0.79265 0.0964 0.0
O152 O 0.00577 0.7328 0.10312 0.0
O153 O 0.02812 0.76091 0.11005 0.0
O154 O 0.27571 0.28269 0.07304 0.0
Cd155 Cd 0.26586 0.27138 0.09032 0.0
Cd156 Cd 0.30456 0.29048 0.09468 0.0
O157 O 0.30643 0.30082 0.07698 0.0
O158 O 0.23768 0.26008 0.08877 0.0
O159 O 0.25507 0.28378 0.10146 0.0
C160 C 0.23856 0.27213 0.09683 0.0
C161 C 0.3193 0.30991 0.11172 0.0
C162 C 0.29251 0.29465 0.06949 0.0
C163 C 0.28403 0.24786 0.09695 0.0
O164 O 0.30008 0.26315 0.09628 0.0
O165 O 0.26864 0.24829 0.0956 0.0
O166 O 0.32908 0.3073 0.10336 0.0
O167 O 0.3011 0.30226 0.11007 0.0
O168 O 0.70117 0.61185 0.40759 0.0
Cd169 Cd 0.70085 0.60168 0.42505 0.0
Cd170 Cd 0.68199 0.62124 0.42929 0.0
O171 O 0.69036 0.63148 0.41156 0.0
O172 O 0.71767 0.59037 0.42322 0.0
O173 O 0.72458 0.61446 0.4357 0.0
C174 C 0.72925 0.6027 0.43101 0.0
C175 C 0.68668 0.64082 0.44625 0.0
C176 C 0.69693 0.62422 0.40398 0.0
C177 C 0.65953 0.57855 0.43182 0.0
O178 O 0.65897 0.59393 0.43084 0.0
O179 O 0.67529 0.57878 0.43078 0.0
O180 O 0.6743 0.63815 0.43787 0.0
O181 O 0.6972 0.63312 0.44467 0.0
O182 O 0.44657 0.11613 0.40647 0.0
Cd183 Cd 0.45889 0.1277 0.42327 0.0
Cd184 Cd 0.43993 0.0888 0.42877 0.0
O185 O 0.42894 0.0856 0.41115 0.0
O186 O 0.46984 0.15555 0.42023 0.0
O187 O 0.44726 0.13982 0.43395 0.0
C188 C 0.45833 0.15566 0.42835 0.0
C189 C 0.42116 0.0734 0.446 0.0
C190 C 0.43464 0.09909 0.40335 0.0
C191 C 0.48296 0.11045 0.43034 0.0
O192 O 0.46766 0.09437 0.43022 0.0
O193 O 0.48246 0.12572 0.4285 0.0
O194 O 0.42477 0.06419 0.43776 0.0
O195 O 0.42731 0.09133 0.4441 0.0
O196 O 0.94675 0.35745 0.40537 0.0
Cd197 Cd 0.93427 0.35808 0.42187 0.0
Cd198 Cd 0.97295 0.37985 0.42815 0.0
O199 O 0.97733 0.37397 0.41029 0.0
O200 O 0.90658 0.34015 0.41894 0.0
O201 O 0.92299 0.33494 0.43308 0.0
C202 C 0.90695 0.3294 0.42752 0.0
C203 C 0.98895 0.37666 0.4451 0.0
C204 C 0.96424 0.36469 0.40244 0.0
C205 C 0.94928 0.3991 0.42942 0.0
O206 O 0.96566 0.40066 0.43021 0.0
O207 O 0.93479 0.38318 0.42662 0.0
O208 O 0.99751 0.39041 0.43732 0.0
O209 O 0.9714 0.36394 0.44288 0.0
O210 O 0.95519 0.37203 0.26924 0.0
Cd211 Cd 0.94071 0.37019 0.25313 0.0
Cd212 Cd 0.95774 0.34827 0.24657 0.0
O213 O 0.96831 0.3546 0.26434 0.0
O214 O 0.93037 0.38756 0.25651 0.0
O215 O 0.95094 0.39294 0.24161 0.0
C216 C 0.94061 0.39826 0.24761 0.0
C217 C 0.97689 0.35167 0.22953 0.0
C218 C 0.96529 0.3646 0.27206 0.0
C219 C 0.91487 0.32856 0.24615 0.0
O220 O 0.92973 0.32718 0.24485 0.0
O221 O 0.91625 0.34443 0.24911 0.0
O222 O 0.97267 0.33849 0.23762 0.0
O223 O 0.97095 0.36362 0.23142 0.0
O224 O 0.69148 0.60638 0.26937 0.0
Cd225 Cd 0.69246 0.59727 0.25177 0.0
Cd226 Cd 0.71098 0.63587 0.24823 0.0
O227 O 0.70175 0.63684 0.26587 0.0
O228 O 0.67585 0.56903 0.25312 0.0
O229 O 0.66889 0.58655 0.24098 0.0
C230 C 0.66429 0.56998 0.24541 0.0
C231 C 0.70635 0.6508 0.23126 0.0
C232 C 0.69514 0.62271 0.27321 0.0
C233 C 0.73399 0.61637 0.24521 0.0
O234 O 0.73433 0.63213 0.24671 0.0
O235 O 0.71829 0.60069 0.24589 0.0
O236 O 0.71841 0.66052 0.2398 0.0
O237 O 0.69603 0.63253 0.23272 0.0
O238 O 0.44952 0.11197 0.27037 0.0
Cd239 Cd 0.46031 0.12479 0.25357 0.0
Cd240 Cd 0.42153 0.10549 0.24827 0.0
O241 O 0.41895 0.09436 0.2658 0.0
O242 O 0.48838 0.13621 0.2559 0.0
O243 O 0.4722 0.11378 0.24216 0.0
C244 C 0.48829 0.12507 0.24742 0.0
C245 C 0.40673 0.08659 0.231 0.0
C246 C 0.43253 0.09989 0.27352 0.0
C247 C 0.44209 0.14836 0.24713 0.0
O248 O 0.42614 0.13291 0.24707 0.0
O249 O 0.45749 0.14809 0.2489 0.0
O250 O 0.39702 0.08919 0.23941 0.0
O251 O 0.42488 0.09397 0.23269 0.0
O252 O 0.69232 0.11605 0.26952 0.0
Cd253 Cd 0.69373 0.12867 0.25275 0.0
Cd254 Cd 0.71349 0.10985 0.2471 0.0
O255 O 0.70553 0.09875 0.26471 0.0
O256 O 0.67648 0.13939 0.25518 0.0
O257 O 0.67074 0.11711 0.24143 0.0
C258 C 0.66553 0.12805 0.24674 0.0
C259 C 0.70886 0.09085 0.22978 0.0
C260 C 0.69754 0.10417 0.27255 0.0
C261 C 0.73522 0.15283 0.24598 0.0
O262 O 0.73593 0.13749 0.24566 0.0
O263 O 0.71951 0.15233 0.24807 0.0
O264 O 0.72167 0.09378 0.23789 0.0
O265 O 0.69793 0.09798 0.23181 0.0
O266 O 0.94595 0.60984 0.26744 0.0
Cd267 Cd 0.93556 0.60019 0.24999 0.0
Cd268 Cd 0.95523 0.6391 0.24638 0.0
O269 O 0.96563 0.64045 0.26402 0.0
O270 O 0.92374 0.57202 0.25213 0.0
O271 O 0.94779 0.58844 0.23949 0.0
C272 C 0.93592 0.57226 0.24442 0.0
C273 C 0.97444 0.65331 0.22916 0.0
C274 C 0.95836 0.62626 0.27133 0.0
C275 C 0.91264 0.61884 0.24342 0.0
O276 O 0.92789 0.63475 0.24489 0.0
O277 O 0.91296 0.60331 0.2441 0.0
O278 O 0.97214 0.66339 0.23746 0.0
O279 O 0.96665 0.63514 0.23101 0.0
O280 O 0.44872 0.36953 0.26933 0.0
Cd281 Cd 0.45969 0.36774 0.25254 0.0
Cd282 Cd 0.42125 0.34823 0.24707 0.0
O283 O 0.41819 0.35642 0.2646 0.0
O284 O 0.48773 0.38469 0.25479 0.0
O285 O 0.4712 0.39062 0.24113 0.0
C286 C 0.48739 0.39564 0.24632 0.0
C287 C 0.40761 0.3533 0.22956 0.0
C288 C 0.43166 0.36445 0.27239 0.0
C289 C 0.44189 0.32604 0.24604 0.0
O290 O 0.42589 0.32545 0.24585 0.0
O291 O 0.4572 0.34175 0.24791 0.0
O292 O 0.39731 0.34061 0.23764 0.0
O293 O 0.42566 0.36387 0.23175 0.0
O294 O 0.44446 0.35938 0.40503 0.0
Cd295 Cd 0.45714 0.36026 0.42173 0.0
Cd296 Cd 0.43827 0.38039 0.42742 0.0
O297 O 0.42702 0.37242 0.40989 0.0
O298 O 0.46809 0.34339 0.41856 0.0
O299 O 0.44586 0.33664 0.43253 0.0
C300 C 0.45685 0.33187 0.42682 0.0
C301 C 0.41962 0.37767 0.44459 0.0
C302 C 0.43252 0.36454 0.40203 0.0
C303 C 0.48132 0.40167 0.42864 0.0
O304 O 0.46603 0.40247 0.42864 0.0
O305 O 0.48077 0.38587 0.42681 0.0
O306 O 0.42333 0.39029 0.43619 0.0
O307 O 0.42565 0.36575 0.44292 0.0
O308 O 0.70306 0.11707 0.40568 0.0
Cd309 Cd 0.70191 0.12778 0.42272 0.0
Cd310 Cd 0.68223 0.08937 0.42787 0.0
O311 O 0.68984 0.08645 0.41014 0.0
O312 O 0.71922 0.15581 0.4207 0.0
O313 O 0.7251 0.13862 0.43385 0.0
C314 C 0.73029 0.155 0.42888 0.0
C315 C 0.68768 0.07561 0.44515 0.0
C316 C 0.69775 0.10004 0.40242 0.0
C317 C 0.66047 0.11035 0.42976 0.0
O318 O 0.65967 0.09425 0.42959 0.0
O319 O 0.67624 0.1256 0.42791 0.0
O320 O 0.67477 0.06538 0.43718 0.0
O321 O 0.69828 0.09366 0.44296 0.0
O322 O 0.94137 0.61045 0.40547 0.0
Cd323 Cd 0.93122 0.60011 0.42285 0.0
Cd324 Cd 0.96977 0.61837 0.42723 0.0
O325 O 0.97202 0.62884 0.40949 0.0
O326 O 0.90321 0.58966 0.42104 0.0
O327 O 0.9209 0.61326 0.43372 0.0
C328 C 0.90435 0.60194 0.42902 0.0
C329 C 0.98507 0.63777 0.44422 0.0
C330 C 0.95819 0.6223 0.40191 0.0
C331 C 0.94799 0.57563 0.42975 0.0
O332 O 0.96428 0.59061 0.42894 0.0
O333 O 0.93288 0.5766 0.42844 0.0
O334 O 0.9945 0.6346 0.43589 0.0
O335 O 0.96694 0.6307 0.44257 0.0
O336 O 0.36498 0.94132 0.74152 0.0
Cd337 Cd 0.36516 0.93199 0.75915 0.0
Cd338 Cd 0.34682 0.95221 0.76291 0.0
O339 O 0.35565 0.96223 0.74514 0.0
O340 O 0.38174 0.92039 0.75727 0.0
O341 O 0.38936 0.94505 0.76937 0.0
C342 C 0.39375 0.93306 0.76471 0.0
C343 C 0.35205 0.9721 0.7798 0.0
C344 C 0.3615 0.95412 0.7377 0.0
C345 C 0.32402 0.90962 0.76631 0.0
O346 O 0.32358 0.92498 0.76475 0.0
O347 O 0.33973 0.90968 0.76551 0.0
O348 O 0.33965 0.96956 0.77146 0.0
O349 O 0.3623 0.96411 0.7782 0.0
O350 O 0.10841 0.45074 0.74034 0.0
Cd351 Cd 0.12094 0.462 0.75716 0.0
Cd352 Cd 0.103 0.423 0.76236 0.0
O353 O 0.09262 0.41991 0.74457 0.0
O354 O 0.13133 0.48992 0.75477 0.0
O355 O 0.10905 0.47313 0.76846 0.0
C356 C 0.11992 0.48935 0.76321 0.0
C357 C 0.08384 0.4068 0.77927 0.0
C358 C 0.0974 0.43357 0.73701 0.0
C359 C 0.14594 0.44559 0.76407 0.0
O360 O 0.13089 0.42932 0.76421 0.0
O361 O 0.14499 0.46055 0.76195 0.0
O362 O 0.08807 0.39807 0.77102 0.0
O363 O 0.08958 0.42468 0.77753 0.0
O364 O 0.61197 0.69346 0.73988 0.0
Cd365 Cd 0.60003 0.69396 0.75659 0.0
Cd366 Cd 0.63913 0.71559 0.76202 0.0
O367 O 0.64274 0.7086 0.74425 0.0
O368 O 0.57234 0.67663 0.75332 0.0
O369 O 0.58805 0.67022 0.76731 0.0
C370 C 0.57226 0.6652 0.76157 0.0
C371 C 0.65541 0.71283 0.77895 0.0
C372 C 0.62919 0.69977 0.73661 0.0
C373 C 0.61566 0.73512 0.76372 0.0
O374 O 0.63208 0.73667 0.76386 0.0
O375 O 0.6009 0.71907 0.76158 0.0
O376 O 0.66391 0.72624 0.77094 0.0
O377 O 0.63776 0.70018 0.77698 0.0
O378 O 0.61614 0.70228 0.60248 0.0
Cd379 Cd 0.60444 0.70062 0.5853 0.0
Cd380 Cd 0.62376 0.68121 0.58101 0.0
O381 O 0.63456 0.69003 0.59857 0.0
O382 O 0.59293 0.71726 0.5873 0.0
O383 O 0.61621 0.72387 0.57418 0.0
C384 C 0.60467 0.72859 0.57916 0.0
C385 C 0.64271 0.68641 0.56364 0.0
C386 C 0.62834 0.69777 0.60603 0.0
C387 C 0.58112 0.65885 0.57886 0.0
O388 O 0.59647 0.65821 0.57965 0.0
O389 O 0.58145 0.67465 0.58004 0.0
O390 O 0.64055 0.67394 0.57184 0.0
O391 O 0.6349 0.69673 0.56566 0.0
O392 O 0.36172 0.94197 0.60296 0.0
Cd393 Cd 0.36207 0.93147 0.58572 0.0
Cd394 Cd 0.38281 0.97068 0.58154 0.0
O395 O 0.37489 0.97285 0.59937 0.0
O396 O 0.34506 0.9035 0.58822 0.0
O397 O 0.33819 0.91998 0.57513 0.0
C398 C 0.33342 0.90384 0.58031 0.0
C399 C 0.37987 0.98726 0.56482 0.0
C400 C 0.36704 0.95878 0.60674 0.0
C401 C 0.40339 0.94835 0.5789 0.0
O402 O 0.40463 0.96462 0.57965 0.0
O403 O 0.38736 0.9332 0.58025 0.0
O404 O 0.39264 0.99585 0.5732 0.0
O405 O 0.36791 0.96928 0.56631 0.0
O406 O 0.1157 0.44241 0.60279 0.0
Cd407 Cd 0.12763 0.45539 0.58618 0.0
Cd408 Cd 0.08849 0.43772 0.58078 0.0
O409 O 0.08485 0.42736 0.59858 0.0
O410 O 0.15538 0.46591 0.58939 0.0
O411 O 0.13974 0.44395 0.5753 0.0
C412 C 0.15552 0.45471 0.58105 0.0
C413 C 0.07271 0.41852 0.5638 0.0
C414 C 0.09846 0.43173 0.60611 0.0
C415 C 0.11159 0.4807 0.57915 0.0
O416 O 0.09528 0.46571 0.57889 0.0
O417 O 0.12646 0.47961 0.58136 0.0
O418 O 0.0639 0.42327 0.57168 0.0
O419 O 0.0904 0.42382 0.56592 0.0
O420 O 0.36171 0.44854 0.60177 0.0
Cd421 Cd 0.36223 0.45845 0.58421 0.0
Cd422 Cd 0.38149 0.43895 0.58092 0.0
O423 O 0.37232 0.42855 0.59854 0.0
O424 O 0.3457 0.47004 0.58614 0.0
O425 O 0.33809 0.44552 0.57392 0.0
C426 C 0.33367 0.45743 0.57868 0.0
C427 C 0.37732 0.41972 0.56387 0.0
C428 C 0.36552 0.43603 0.60575 0.0
C429 C 0.40359 0.48156 0.57766 0.0
O430 O 0.40432 0.46639 0.57936 0.0
O431 O 0.3877 0.48115 0.57817 0.0
O432 O 0.38983 0.42268 0.57222 0.0
O433 O 0.36625 0.42677 0.5656 0.0
O434 O 0.61898 0.94473 0.60211 0.0
Cd435 Cd 0.60654 0.93354 0.58528 0.0
Cd436 Cd 0.62449 0.9725 0.5801 0.0
O437 O 0.63504 0.97552 0.59783 0.0
O438 O 0.59564 0.90559 0.58797 0.0
O439 O 0.61788 0.92164 0.57412 0.0
C440 C 0.60682 0.90564 0.57955 0.0
C441 C 0.64377 0.98773 0.56305 0.0
C442 C 0.6301 0.96188 0.60543 0.0
C443 C 0.58169 0.9503 0.57852 0.0
O444 O 0.5967 0.96662 0.57845 0.0
O445 O 0.58272 0.93534 0.58047 0.0
O446 O 0.64033 0.99714 0.57126 0.0
O447 O 0.637 0.96967 0.56484 0.0
O448 O 0.11658 0.70114 0.60102 0.0
Cd449 Cd 0.12779 0.69959 0.58425 0.0
Cd450 Cd 0.08893 0.67882 0.57914 0.0
O451 O 0.08581 0.68672 0.59672 0.0
O452 O 0.15571 0.71632 0.58711 0.0
O453 O 0.14003 0.72305 0.57328 0.0
C454 C 0.15589 0.72776 0.57883 0.0
C455 C 0.0747 0.68331 0.56173 0.0
C456 C 0.09947 0.69543 0.60429 0.0
C457 C 0.11075 0.65783 0.57782 0.0
O458 O 0.09449 0.65667 0.57786 0.0
O459 O 0.12582 0.67383 0.57949 0.0
O460 O 0.06475 0.6705 0.56984 0.0
O461 O 0.09272 0.69432 0.56384 0.0
O462 O 0.10803 0.69064 0.73909 0.0
Cd463 Cd 0.12023 0.69269 0.75616 0.0
Cd464 Cd 0.10242 0.71378 0.76023 0.0
O465 O 0.09207 0.70574 0.74253 0.0
O466 O 0.13123 0.67559 0.75428 0.0
O467 O 0.10837 0.66978 0.76757 0.0
C468 C 0.11964 0.66467 0.76262 0.0
C469 C 0.08351 0.70867 0.77756 0.0
C470 C 0.09702 0.69657 0.73534 0.0
C471 C 0.1449 0.7346 0.7625 0.0
O472 O 0.12995 0.73597 0.76191 0.0
O473 O 0.14387 0.71849 0.76108 0.0
O474 O 0.08605 0.72145 0.76951 0.0
O475 O 0.09082 0.69793 0.77537 0.0
O476 O 0.36317 0.45161 0.73957 0.0
Cd477 Cd 0.36449 0.46307 0.75675 0.0
Cd478 Cd 0.34436 0.42427 0.76196 0.0
O479 O 0.35084 0.42104 0.74395 0.0
O480 O 0.38211 0.4908 0.7538 0.0
O481 O 0.38886 0.47409 0.7668 0.0
C482 C 0.3939 0.4902 0.76148 0.0
C483 C 0.34754 0.40754 0.77849 0.0
C484 C 0.35774 0.43461 0.73617 0.0
C485 C 0.32409 0.44706 0.76489 0.0
O486 O 0.32293 0.43081 0.76443 0.0
O487 O 0.33991 0.46215 0.76287 0.0
O488 O 0.33405 0.39922 0.77052 0.0
O489 O 0.36006 0.42528 0.77669 0.0
O490 O 0.61212 0.95248 0.73934 0.0
Cd491 Cd 0.60046 0.93855 0.75575 0.0
Cd492 Cd 0.63945 0.95555 0.76108 0.0
O493 O 0.64294 0.96696 0.74358 0.0
O494 O 0.5726 0.92786 0.75287 0.0
O495 O 0.58829 0.94903 0.76737 0.0
C496 C 0.57242 0.93838 0.76168 0.0
C497 C 0.65362 0.97353 0.77874 0.0
C498 C 0.6294 0.96322 0.73613 0.0
C499 C 0.61673 0.91284 0.76178 0.0
O500 O 0.63317 0.92765 0.76218 0.0
O501 O 0.60199 0.91427 0.75983 0.0
O502 O 0.66356 0.97076 0.77057 0.0
O503 O 0.6357 0.96697 0.77652 0.0
H504 H 0.09192 0.29719 0.11024 0.0
H505 H 0.12316 0.29992 0.11381 0.0
H506 H 0.10311 0.24492 0.09688 0.0
H507 H 0.07204 0.24206 0.09336 0.0
H508 H 0.12402 0.24884 0.11722 0.0
H509 H 0.12947 0.28566 0.08079 0.0
H510 H 0.12789 0.31099 0.06915 0.0
H511 H 0.16931 0.35339 0.09336 0.0
H512 H 0.17095 0.32825 0.10524 0.0
H513 H 0.20179 0.24563 0.0916 0.0
H514 H 0.17303 0.24716 0.09587 0.0
H515 H 0.20676 0.30149 0.11384 0.0
H516 H 0.23586 0.30004 0.10959 0.0
H517 H 0.18093 0.3015 0.0969 0.0
H518 H 0.1791 0.264 0.13111 0.0
H519 H 0.1808 0.23807 0.14187 0.0
H520 H 0.1326 0.1964 0.12131 0.0
H521 H 0.13077 0.22207 0.11028 0.0
C522 C 0.09413 0.2856 0.10742 0.0
C523 C 0.07953 0.26945 0.10146 0.0
C524 C 0.112 0.28721 0.10942 0.0
C525 C 0.11553 0.27269 0.10552 0.0
C526 C 0.10073 0.2563 0.09998 0.0
C527 C 0.08297 0.25472 0.09793 0.0
C528 C 0.13476 0.27468 0.10664 0.0
C529 C 0.13647 0.26034 0.11277 0.0
C530 C 0.15113 0.28997 0.10112 0.0
C531 C 0.15014 0.30507 0.094 0.0
C532 C 0.13811 0.30037 0.08369 0.0
C533 C 0.13723 0.31469 0.07704 0.0
C534 C 0.14844 0.33378 0.08054 0.0
C535 C 0.1606 0.33859 0.09068 0.0
C536 C 0.16151 0.32432 0.09737 0.0
C537 C 0.20314 0.25786 0.09656 0.0
C538 C 0.22113 0.27272 0.10026 0.0
C539 C 0.18664 0.25866 0.09904 0.0
C540 C 0.18771 0.27435 0.10527 0.0
C541 C 0.20562 0.28921 0.10907 0.0
C542 C 0.2222 0.28833 0.10667 0.0
C543 C 0.17006 0.27538 0.10721 0.0
C544 C 0.16862 0.29025 0.10162 0.0
C545 C 0.1539 0.26051 0.11317 0.0
C546 C 0.15487 0.24499 0.11981 0.0
C547 C 0.16894 0.24931 0.12881 0.0
C548 C 0.16992 0.23465 0.13497 0.0
C549 C 0.15684 0.2156 0.13226 0.0
C550 C 0.14272 0.21116 0.1234 0.0
C551 C 0.14169 0.22577 0.11721 0.0
H552 H 0.15762 0.20428 0.13704 0.0
H553 H 0.14774 0.34486 0.07537 0.0
H554 H 0.76458 0.96965 0.11062 0.0
H555 H 0.76256 0.93849 0.11298 0.0
H556 H 0.81159 0.95723 0.08939 0.0
H557 H 0.8136 0.98809 0.08693 0.0
H558 H 0.78262 0.9233 0.08219 0.0
H559 H 0.81444 0.95246 0.12041 0.0
H560 H 0.81777 0.96802 0.14047 0.0
H561 H 0.76579 0.91946 0.15293 0.0
H562 H 0.76203 0.9037 0.13287 0.0
H563 H 0.81315 0.85744 0.08803 0.0
H564 H 0.81128 0.8864 0.0902 0.0
H565 H 0.76105 0.85622 0.11279 0.0
H566 H 0.76295 0.82694 0.11076 0.0
H567 H 0.78575 0.89333 0.12126 0.0
H568 H 0.75517 0.86317 0.08366 0.0
H569 H 0.75189 0.84743 0.06368 0.0
H570 H 0.801 0.89785 0.05 0.0
H571 H 0.80476 0.9138 0.06997 0.0
C572 C 0.77505 0.96718 0.10607 0.0
C573 C 0.7892 0.98134 0.09855 0.0
C574 C 0.7739 0.94938 0.10744 0.0
C575 C 0.78692 0.94551 0.10135 0.0
C576 C 0.80132 0.95983 0.09412 0.0
C577 C 0.80247 0.97752 0.09275 0.0
C578 C 0.7852 0.92634 0.10188 0.0
C579 C 0.78346 0.91685 0.09074 0.0
C580 C 0.78557 0.91754 0.11305 0.0
C581 C 0.78783 0.92701 0.12509 0.0
C582 C 0.80363 0.94517 0.12739 0.0
C583 C 0.80561 0.95401 0.13876 0.0
C584 C 0.79197 0.94476 0.14795 0.0
C585 C 0.77633 0.92663 0.14579 0.0
C586 C 0.77427 0.91773 0.13443 0.0
C587 C 0.80177 0.85691 0.09356 0.0
C588 C 0.78807 0.8398 0.09912 0.0
C589 C 0.8007 0.87352 0.09477 0.0
C590 C 0.78583 0.8734 0.10147 0.0
C591 C 0.77259 0.85659 0.10752 0.0
C592 C 0.77368 0.83988 0.10634 0.0
C593 C 0.78382 0.89069 0.10154 0.0
C594 C 0.78473 0.89973 0.11274 0.0
C595 C 0.78262 0.89912 0.09042 0.0
C596 C 0.78032 0.88963 0.07835 0.0
C597 C 0.76535 0.87086 0.07642 0.0
C598 C 0.7634 0.86191 0.06509 0.0
C599 C 0.77625 0.87162 0.05558 0.0
C600 C 0.79106 0.89034 0.05738 0.0
C601 C 0.7931 0.89935 0.06869 0.0
H602 H 0.77471 0.86467 0.04682 0.0
H603 H 0.79353 0.95163 0.15675 0.0
H604 H 0.09031 0.82805 0.11019 0.0
H605 H 0.12163 0.85702 0.11245 0.0
H606 H 0.1017 0.88867 0.09123 0.0
H607 H 0.07069 0.85999 0.08886 0.0
H608 H 0.13503 0.89383 0.08261 0.0
H609 H 0.10846 0.89456 0.12236 0.0
H610 H 0.09423 0.88121 0.14257 0.0
H611 H 0.14349 0.8771 0.15229 0.0
H612 H 0.15791 0.8902 0.13206 0.0
H613 H 0.20129 0.98982 0.08941 0.0
H614 H 0.17248 0.95887 0.09165 0.0
H615 H 0.20404 0.93792 0.11195 0.0
H616 H 0.23316 0.96921 0.10988 0.0
H617 H 0.16756 0.92495 0.12158 0.0
H618 H 0.19523 0.92642 0.0826 0.0
H619 H 0.20968 0.93983 0.06245 0.0
H620 H 0.15848 0.93915 0.0512 0.0
H621 H 0.14381 0.926 0.07135 0.0
C622 C 0.09256 0.84126 0.10615 0.0
C623 C 0.07803 0.84168 0.09929 0.0
C624 C 0.11045 0.8578 0.10746 0.0
C625 C 0.11403 0.87503 0.10199 0.0
C626 C 0.09933 0.87553 0.09547 0.0
C627 C 0.08156 0.8591 0.09416 0.0
C628 C 0.13327 0.8924 0.10237 0.0
C629 C 0.14205 0.9007 0.09114 0.0
C630 C 0.14281 0.90098 0.11349 0.0
C631 C 0.13416 0.89314 0.12564 0.0
C632 C 0.11618 0.89065 0.12876 0.0
C633 C 0.1081 0.88316 0.14023 0.0
C634 C 0.11792 0.87825 0.14869 0.0
C635 C 0.13588 0.88087 0.14571 0.0
C636 C 0.14402 0.88834 0.13425 0.0
C637 C 0.20215 0.97873 0.09446 0.0
C638 C 0.21959 0.98194 0.09936 0.0
C639 C 0.18564 0.961 0.0957 0.0
C640 C 0.18617 0.94596 0.10176 0.0
C641 C 0.20334 0.94931 0.10718 0.0
C642 C 0.21995 0.96717 0.10597 0.0
C643 C 0.16891 0.92665 0.10182 0.0
C644 C 0.1606 0.91795 0.11307 0.0
C645 C 0.15976 0.91758 0.09071 0.0
C646 C 0.16847 0.92534 0.07853 0.0
C647 C 0.1871 0.92925 0.07586 0.0
C648 C 0.19532 0.93679 0.06444 0.0
C649 C 0.18502 0.94037 0.05556 0.0
C650 C 0.16645 0.93638 0.05809 0.0
C651 C 0.15816 0.92886 0.0695 0.0
H652 H 0.19142 0.94621 0.04672 0.0
H653 H 0.11165 0.87246 0.15756 0.0
H654 H 0.24758 0.07163 0.91865 0.0
H655 H 0.24915 0.10201 0.9149 0.0
H656 H 0.30069 0.12114 0.89379 0.0
H657 H 0.29935 0.09058 0.89768 0.0
H658 H 0.30417 0.14819 0.90986 0.0
H659 H 0.25915 0.11036 0.87929 0.0
H660 H 0.23084 0.0823 0.87069 0.0
H661 H 0.19459 0.09153 0.89515 0.0
H662 H 0.2227 0.11949 0.90403 0.0
H663 H 0.29757 0.23254 0.89823 0.0
H664 H 0.29956 0.20369 0.89418 0.0
H665 H 0.24936 0.17067 0.91636 0.0
H666 H 0.24725 0.19917 0.92038 0.0
H667 H 0.24813 0.1521 0.89526 0.0
H668 H 0.29363 0.1862 0.92791 0.0
H669 H 0.32187 0.21391 0.93691 0.0
H670 H 0.35713 0.21145 0.90829 0.0
H671 H 0.32902 0.18385 0.89903 0.0
C672 C 0.25919 0.08218 0.91311 0.0
C673 C 0.27333 0.07863 0.90844 0.0
C674 C 0.26001 0.09956 0.91091 0.0
C675 C 0.27488 0.1138 0.90391 0.0
C676 C 0.28902 0.11032 0.89916 0.0
C677 C 0.2882 0.09284 0.90136 0.0
C678 C 0.2759 0.13252 0.90215 0.0
C679 C 0.29209 0.14912 0.90637 0.0
C680 C 0.26007 0.13375 0.89774 0.0
C681 C 0.24307 0.11699 0.89237 0.0
C682 C 0.24516 0.10634 0.88289 0.0
C683 C 0.22914 0.09046 0.87796 0.0
C684 C 0.21093 0.08512 0.88238 0.0
C685 C 0.2087 0.09568 0.89173 0.0
C686 C 0.22467 0.11158 0.89671 0.0
C687 C 0.2869 0.21909 0.90216 0.0
C688 C 0.2723 0.21817 0.90967 0.0
C689 C 0.28809 0.20265 0.89987 0.0
C690 C 0.27467 0.18504 0.90503 0.0
C691 C 0.25985 0.18407 0.91226 0.0
C692 C 0.25872 0.20043 0.91459 0.0
C693 C 0.27611 0.16757 0.90333 0.0
C694 C 0.26036 0.15122 0.89846 0.0
C695 C 0.29233 0.16659 0.90713 0.0
C696 C 0.3092 0.18314 0.9127 0.0
C697 C 0.30738 0.19168 0.92348 0.0
C698 C 0.32336 0.20734 0.92864 0.0
C699 C 0.34127 0.21448 0.92315 0.0
C700 C 0.34324 0.20593 0.91252 0.0
C701 C 0.32729 0.19028 0.90731 0.0
H702 H 0.35363 0.2266 0.92717 0.0
H703 H 0.19855 0.07281 0.87855 0.0
H704 H 0.96772 0.23208 0.89844 0.0
H705 H 0.93668 0.20335 0.8947 0.0
H706 H 0.9547 0.1699 0.9157 0.0
H707 H 0.98553 0.19826 0.91936 0.0
H708 H 0.93635 0.15144 0.89506 0.0
H709 H 0.92653 0.18582 0.92827 0.0
H710 H 0.92649 0.2136 0.93757 0.0
H711 H 0.88761 0.2112 0.90981 0.0
H712 H 0.88763 0.18353 0.90025 0.0
H713 H 0.85805 0.07229 0.92106 0.0
H714 H 0.88649 0.10269 0.91657 0.0
H715 H 0.85299 0.11964 0.8947 0.0
H716 H 0.82417 0.08896 0.89921 0.0
H717 H 0.8772 0.14783 0.91104 0.0
H718 H 0.88276 0.1093 0.88025 0.0
H719 H 0.88253 0.08098 0.87166 0.0
H720 H 0.92927 0.09082 0.89511 0.0
H721 H 0.92962 0.11904 0.90398 0.0
C722 C 0.96508 0.21856 0.90217 0.0
C723 C 0.97907 0.21747 0.90924 0.0
C724 C 0.94733 0.20218 0.90006 0.0
C725 C 0.94331 0.18449 0.90499 0.0
C726 C 0.95746 0.18336 0.91177 0.0
C727 C 0.97509 0.19965 0.91391 0.0
C728 C 0.92429 0.16708 0.90353 0.0
C729 C 0.92341 0.15065 0.89856 0.0
C730 C 0.90729 0.16618 0.90773 0.0
C731 C 0.90728 0.18279 0.91346 0.0
C732 C 0.91811 0.19132 0.92409 0.0
C733 C 0.91806 0.20702 0.92942 0.0
C734 C 0.90711 0.2142 0.92426 0.0
C735 C 0.89613 0.20565 0.91378 0.0
C736 C 0.89615 0.18996 0.90841 0.0
C737 C 0.85667 0.08238 0.91522 0.0
C738 C 0.83882 0.07818 0.91048 0.0
C739 C 0.873 0.09975 0.91261 0.0
C740 C 0.87192 0.11337 0.90519 0.0
C741 C 0.85415 0.10928 0.9004 0.0
C742 C 0.83773 0.09175 0.90295 0.0
C743 C 0.88941 0.13206 0.90297 0.0
C744 C 0.89002 0.14872 0.90725 0.0
C745 C 0.9062 0.13318 0.89818 0.0
C746 C 0.90615 0.11626 0.89282 0.0
C747 C 0.89291 0.10536 0.88364 0.0
C748 C 0.89277 0.08933 0.87871 0.0
C749 C 0.90586 0.08409 0.88285 0.0
C750 C 0.91914 0.0949 0.89191 0.0
C751 C 0.91934 0.11093 0.89688 0.0
H752 H 0.90572 0.07168 0.87902 0.0
H753 H 0.90708 0.22635 0.9284 0.0
H754 H 0.8384 0.78349 0.89463 0.0
H755 H 0.86825 0.78307 0.89148 0.0
H756 H 0.8746 0.78128 0.93082 0.0
H757 H 0.8458 0.78321 0.93388 0.0
H758 H 0.906 0.80445 0.92312 0.0
H759 H 0.86121 0.7414 0.90947 0.0
H760 H 0.83467 0.71681 0.89719 0.0
H761 H 0.86645 0.7411 0.86403 0.0
H762 H 0.8931 0.76599 0.87611 0.0
H763 H 0.96762 0.75796 0.90823 0.0
H764 H 0.93622 0.7556 0.90727 0.0
H765 H 0.96354 0.8169 0.90417 0.0
H766 H 0.99476 0.8193 0.90593 0.0
H767 H 0.91519 0.76323 0.89343 0.0
H768 H 0.94089 0.83454 0.91973 0.0
H769 H 0.96561 0.85474 0.9348 0.0
H770 H 0.96833 0.80599 0.94768 0.0
H771 H 0.94347 0.78547 0.9328 0.0
C772 C 0.84621 0.78292 0.90255 0.0
C773 C 0.83994 0.78351 0.91449 0.0
C774 C 0.8632 0.78253 0.90077 0.0
C775 C 0.87378 0.78201 0.9109 0.0
C776 C 0.86698 0.78192 0.92281 0.0
C777 C 0.85044 0.78294 0.92457 0.0
C778 C 0.8924 0.78256 0.90932 0.0
C779 C 0.90788 0.79536 0.91662 0.0
C780 C 0.89504 0.7706 0.90098 0.0
C781 C 0.87906 0.75567 0.89369 0.0
C782 C 0.86248 0.74158 0.89956 0.0
C783 C 0.84743 0.72758 0.89263 0.0
C784 C 0.84885 0.72743 0.87984 0.0
C785 C 0.86536 0.74126 0.87394 0.0
C786 C 0.88044 0.7553 0.88082 0.0
C787 C 0.96686 0.77087 0.90717 0.0
C788 C 0.98355 0.78883 0.90733 0.0
C789 C 0.94892 0.76953 0.9066 0.0
C790 C 0.94743 0.78611 0.90599 0.0
C791 C 0.96423 0.80393 0.90505 0.0
C792 C 0.98209 0.8053 0.90598 0.0
C793 C 0.92854 0.78498 0.9073 0.0
C794 C 0.91315 0.77224 0.89992 0.0
C795 C 0.92563 0.79632 0.916 0.0
C796 C 0.94048 0.80853 0.92506 0.0
C797 C 0.94673 0.82814 0.92581 0.0
C798 C 0.96076 0.83964 0.93431 0.0
C799 C 0.96858 0.83166 0.94216 0.0
C800 C 0.96232 0.81216 0.94156 0.0
C801 C 0.94827 0.80059 0.93309 0.0
H802 H 0.97946 0.8406 0.94873 0.0
H803 H 0.83718 0.71657 0.87449 0.0
H804 H 0.75919 0.62939 0.4449 0.0
H805 H 0.79003 0.63121 0.44855 0.0
H806 H 0.77132 0.5798 0.42736 0.0
H807 H 0.74067 0.57779 0.42381 0.0
H808 H 0.78972 0.57924 0.44775 0.0
H809 H 0.79991 0.62419 0.41494 0.0
H810 H 0.80024 0.65234 0.40595 0.0
H811 H 0.83931 0.68804 0.43388 0.0
H812 H 0.83902 0.66002 0.44313 0.0
H813 H 0.86777 0.57776 0.42193 0.0
H814 H 0.83944 0.57992 0.42637 0.0
H815 H 0.87323 0.63067 0.44792 0.0
H816 H 0.90196 0.62867 0.4434 0.0
H817 H 0.84912 0.63475 0.43201 0.0
H818 H 0.8431 0.5899 0.46242 0.0
H819 H 0.84305 0.56152 0.47072 0.0
H820 H 0.79624 0.52537 0.44708 0.0
H821 H 0.79618 0.55355 0.43851 0.0
C822 C 0.76162 0.6184 0.44112 0.0
C823 C 0.7475 0.60349 0.43402 0.0
C824 C 0.77927 0.6195 0.44317 0.0
C825 C 0.78305 0.60571 0.43815 0.0
C826 C 0.76875 0.59058 0.43136 0.0
C827 C 0.75122 0.5895 0.42929 0.0
C828 C 0.80199 0.6071 0.43949 0.0
C829 C 0.80271 0.59137 0.4443 0.0
C830 C 0.81907 0.62318 0.43537 0.0
C831 C 0.81925 0.63999 0.42981 0.0
C832 C 0.80844 0.63802 0.41922 0.0
C833 C 0.80865 0.65395 0.41407 0.0
C834 C 0.81973 0.67196 0.41937 0.0
C835 C 0.83069 0.67407 0.42981 0.0
C836 C 0.83052 0.65818 0.435 0.0
C837 C 0.86924 0.58934 0.42769 0.0
C838 C 0.88715 0.60303 0.43233 0.0
C839 C 0.85297 0.5905 0.43027 0.0
C840 C 0.85414 0.60531 0.43761 0.0
C841 C 0.87199 0.61906 0.44229 0.0
C842 C 0.88836 0.61786 0.43973 0.0
C843 C 0.8367 0.60659 0.43986 0.0
C844 C 0.83625 0.62281 0.43574 0.0
C845 C 0.81983 0.59092 0.44459 0.0
C846 C 0.8197 0.57388 0.44978 0.0
C847 C 0.83287 0.57591 0.45893 0.0
C848 C 0.83285 0.55985 0.46369 0.0
C849 C 0.81966 0.54165 0.45942 0.0
C850 C 0.80644 0.53947 0.45039 0.0
C851 C 0.80641 0.55549 0.44559 0.0
H852 H 0.81967 0.52924 0.46311 0.0
H853 H 0.81988 0.68428 0.41536 0.0
H854 H 0.43354 0.30298 0.44269 0.0
H855 H 0.43149 0.27181 0.44514 0.0
H856 H 0.47664 0.28821 0.4186 0.0
H857 H 0.47869 0.31907 0.41606 0.0
H858 H 0.44657 0.25363 0.41344 0.0
H859 H 0.48441 0.28647 0.44922 0.0
H860 H 0.49087 0.30392 0.46883 0.0
H861 H 0.44127 0.25662 0.48487 0.0
H862 H 0.43437 0.23898 0.46528 0.0
H863 H 0.48085 0.19065 0.4182 0.0
H864 H 0.47796 0.21906 0.42018 0.0
H865 H 0.43093 0.18939 0.44533 0.0
H866 H 0.43379 0.16062 0.44344 0.0
H867 H 0.45653 0.2277 0.45232 0.0
H868 H 0.42047 0.19369 0.4171 0.0
H869 H 0.41434 0.17612 0.39756 0.0
H870 H 0.4603 0.22561 0.38045 0.0
H871 H 0.4669 0.2434 0.39995 0.0
C872 C 0.44313 0.29998 0.43747 0.0
C873 C 0.45623 0.3135 0.42915 0.0
C874 C 0.44196 0.28218 0.4389 0.0
C875 C 0.45391 0.27767 0.43205 0.0
C876 C 0.46721 0.29132 0.42394 0.0
C877 C 0.4684 0.30901 0.42252 0.0
C878 C 0.4523 0.25857 0.43283 0.0
C879 C 0.44887 0.24804 0.42194 0.0
C880 C 0.45461 0.25092 0.44399 0.0
C881 C 0.45874 0.26151 0.45574 0.0
C882 C 0.47478 0.27987 0.45689 0.0
C883 C 0.47854 0.28977 0.46801 0.0
C884 C 0.46645 0.28141 0.47807 0.0
C885 C 0.4506 0.2631 0.47705 0.0
C886 C 0.44676 0.25314 0.46595 0.0
C887 C 0.46996 0.19012 0.42424 0.0
C888 C 0.45743 0.17328 0.43058 0.0
C889 C 0.46831 0.2064 0.42535 0.0
C890 C 0.45405 0.20626 0.43275 0.0
C891 C 0.44199 0.18977 0.43953 0.0
C892 C 0.44363 0.17335 0.43842 0.0
C893 C 0.45144 0.22318 0.43285 0.0
C894 C 0.45399 0.23321 0.44387 0.0
C895 C 0.44827 0.23043 0.42181 0.0
C896 C 0.44426 0.21984 0.41002 0.0
C897 C 0.42935 0.20079 0.4092 0.0
C898 C 0.42578 0.1908 0.39812 0.0
C899 C 0.43694 0.19973 0.38778 0.0
C900 C 0.45167 0.2187 0.38848 0.0
C901 C 0.45532 0.22875 0.39953 0.0
H902 H 0.43415 0.19197 0.37921 0.0
H903 H 0.46939 0.2891 0.48668 0.0
H904 H 0.90359 0.29995 0.44198 0.0
H905 H 0.87447 0.26934 0.44604 0.0
H906 H 0.84192 0.28736 0.4241 0.0
H907 H 0.87071 0.31772 0.42001 0.0
H908 H 0.82358 0.27018 0.44558 0.0
H909 H 0.85619 0.25839 0.41217 0.0
H910 H 0.88334 0.25741 0.40264 0.0
H911 H 0.88091 0.21895 0.43072 0.0
H912 H 0.85387 0.21991 0.44051 0.0
H913 H 0.74217 0.1915 0.42181 0.0
H914 H 0.77287 0.21992 0.42567 0.0
H915 H 0.79084 0.18654 0.44678 0.0
H916 H 0.7599 0.15774 0.44287 0.0
H917 H 0.81806 0.20988 0.43021 0.0
H918 H 0.78158 0.21744 0.46151 0.0
H919 H 0.75407 0.21814 0.47067 0.0
H920 H 0.76353 0.26434 0.4468 0.0
H921 H 0.79093 0.26374 0.43736 0.0
C922 C 0.89018 0.2974 0.4381 0.0
C923 C 0.88947 0.31123 0.43063 0.0
C924 C 0.87359 0.27991 0.4404 0.0
C925 C 0.85604 0.27604 0.43532 0.0
C926 C 0.85528 0.29004 0.42814 0.0
C927 C 0.8718 0.30737 0.42576 0.0
C928 C 0.8384 0.2573 0.43707 0.0
C929 C 0.82235 0.25698 0.44222 0.0
C930 C 0.83697 0.23999 0.43304 0.0
C931 C 0.8532 0.23943 0.42716 0.0
C932 C 0.86157 0.24987 0.41638 0.0
C933 C 0.87691 0.24929 0.41091 0.0
C934 C 0.88389 0.23818 0.41609 0.0
C935 C 0.87551 0.22758 0.42673 0.0
C936 C 0.86018 0.22814 0.43224 0.0
C937 C 0.75255 0.19015 0.42737 0.0
C938 C 0.74857 0.17233 0.43204 0.0
C939 C 0.7701 0.20648 0.42963 0.0
C940 C 0.78411 0.20543 0.43663 0.0
C941 C 0.7802 0.18769 0.4414 0.0
C942 C 0.76251 0.17128 0.43919 0.0
C943 C 0.80304 0.22285 0.43838 0.0
C944 C 0.81935 0.22295 0.43387 0.0
C945 C 0.80472 0.23998 0.44301 0.0
C946 C 0.78827 0.24047 0.44868 0.0
C947 C 0.77772 0.22767 0.45815 0.0
C948 C 0.76215 0.22806 0.4634 0.0
C949 C 0.75704 0.24126 0.45931 0.0
C950 C 0.76751 0.25412 0.44996 0.0
C951 C 0.78308 0.25378 0.44467 0.0
H952 H 0.74498 0.24154 0.46338 0.0
H953 H 0.89576 0.23774 0.41185 0.0
H954 H 0.91841 0.41103 0.25789 0.0
H955 H 0.91867 0.44074 0.25378 0.0
H956 H 0.96288 0.456 0.22669 0.0
H957 H 0.96281 0.42609 0.23083 0.0
H958 H 0.97039 0.48589 0.24228 0.0
H959 H 0.91834 0.44217 0.21724 0.0
H960 H 0.88851 0.4124 0.2125 0.0
H961 H 0.85888 0.42578 0.23996 0.0
H962 H 0.88859 0.45551 0.24499 0.0
H963 H 0.96022 0.56741 0.22905 0.0
H964 H 0.96194 0.53823 0.22604 0.0
H965 H 0.91517 0.50828 0.25137 0.0
H966 H 0.91311 0.53702 0.25418 0.0
H967 H 0.9107 0.48627 0.23247 0.0
H968 H 0.9629 0.52648 0.25978 0.0
H969 H 0.99256 0.55574 0.2656 0.0
H970 H 0.02155 0.5486 0.23478 0.0
H971 H 0.99197 0.5194 0.22869 0.0
C972 C 0.92815 0.42061 0.251 0.0
C973 C 0.94056 0.41614 0.24466 0.0
C974 C 0.92821 0.43759 0.24862 0.0
C975 C 0.94061 0.4505 0.23981 0.0
C976 C 0.95313 0.44619 0.23348 0.0
C977 C 0.95303 0.42908 0.23583 0.0
C978 C 0.94066 0.46866 0.23759 0.0
C979 C 0.95745 0.48602 0.23986 0.0
C980 C 0.92371 0.46883 0.23462 0.0
C981 C 0.90574 0.45104 0.23154 0.0
C982 C 0.90549 0.43872 0.22232 0.0
C983 C 0.8886 0.42185 0.21958 0.0
C984 C 0.87182 0.41719 0.22593 0.0
C985 C 0.87189 0.42941 0.23504 0.0
C986 C 0.88875 0.44629 0.23783 0.0
C987 C 0.95022 0.55454 0.23388 0.0
C988 C 0.93657 0.55457 0.24188 0.0
C989 C 0.95128 0.5379 0.2322 0.0
C990 C 0.93881 0.52106 0.23858 0.0
C991 C 0.92493 0.52103 0.24632 0.0
C992 C 0.92381 0.53755 0.24795 0.0
C993 C 0.94028 0.50348 0.23755 0.0
C994 C 0.92375 0.4862 0.23465 0.0
C995 C 0.95742 0.50339 0.24004 0.0
C996 C 0.97518 0.52091 0.24369 0.0
C997 C 0.97556 0.53124 0.25419 0.0
C998 C 0.99236 0.54779 0.25755 0.0
C999 C 0.00891 0.55406 0.25054 0.0
C1000 C 0.00871 0.54375 0.24018 0.0
C1001 C 0.99194 0.5272 0.23677 0.0
H1002 H 0.0219 0.56688 0.25316 0.0
H1003 H 0.85876 0.40413 0.2238 0.0
H1004 H 0.65257 0.5335 0.25247 0.0
H1005 H 0.62199 0.50498 0.24858 0.0
H1006 H 0.60384 0.53812 0.22736 0.0
H1007 H 0.63462 0.56704 0.23137 0.0
H1008 H 0.57652 0.51484 0.24344 0.0
H1009 H 0.61396 0.50694 0.21292 0.0
H1010 H 0.64177 0.50615 0.20437 0.0
H1011 H 0.63157 0.46028 0.22877 0.0
H1012 H 0.60386 0.46097 0.23761 0.0
H1013 H 0.49117 0.42505 0.23165 0.0
H1014 H 0.52046 0.45548 0.22759 0.0
H1015 H 0.55255 0.43711 0.24974 0.0
H1016 H 0.52359 0.40689 0.25377 0.0
H1017 H 0.57148 0.45443 0.22874 0.0
H1018 H 0.53784 0.46648 0.26138 0.0
H1019 H 0.51041 0.46754 0.27037 0.0
H1020 H 0.51373 0.50579 0.24185 0.0
H1021 H 0.54106 0.50475 0.2326 0.0
C1022 C 0.64219 0.53477 0.24687 0.0
C1023 C 0.64607 0.55257 0.24221 0.0
C1024 C 0.6247 0.51839 0.2446 0.0
C1025 C 0.61067 0.51932 0.23754 0.0
C1026 C 0.6145 0.53704 0.23278 0.0
C1027 C 0.6321 0.55353 0.23504 0.0
C1028 C 0.5918 0.50182 0.23573 0.0
C1029 C 0.57535 0.50174 0.23994 0.0
C1030 C 0.59025 0.48464 0.2313 0.0
C1031 C 0.60686 0.48408 0.22597 0.0
C1032 C 0.61771 0.49676 0.21652 0.0
C1033 C 0.63345 0.49632 0.21162 0.0
C1034 C 0.63845 0.48319 0.21604 0.0
C1035 C 0.62768 0.47044 0.22536 0.0
C1036 C 0.61193 0.47083 0.2303 0.0
C1037 C 0.50451 0.42746 0.23556 0.0
C1038 C 0.50504 0.41358 0.24308 0.0
C1039 C 0.52121 0.44487 0.23327 0.0
C1040 C 0.53868 0.44862 0.23844 0.0
C1041 C 0.53926 0.43454 0.24564 0.0
C1042 C 0.52264 0.41727 0.24797 0.0
C1043 C 0.55638 0.46736 0.23681 0.0
C1044 C 0.5726 0.46765 0.23197 0.0
C1045 C 0.55771 0.48471 0.24065 0.0
C1046 C 0.54131 0.48534 0.24621 0.0
C1047 C 0.53261 0.47498 0.25697 0.0
C1048 C 0.51711 0.4756 0.26212 0.0
C1049 C 0.51029 0.48667 0.25666 0.0
C1050 C 0.519 0.49718 0.24605 0.0
C1051 C 0.5345 0.49659 0.24085 0.0
H1052 H 0.49829 0.48714 0.26067 0.0
H1053 H 0.65065 0.48287 0.21223 0.0
H1054 H 0.49289 0.10084 0.23184 0.0
H1055 H 0.52241 0.10016 0.22779 0.0
H1056 H 0.55322 0.14832 0.25197 0.0
H1057 H 0.52407 0.14922 0.25594 0.0
H1058 H 0.57342 0.15229 0.2315 0.0
H1059 H 0.53771 0.10245 0.26152 0.0
H1060 H 0.50978 0.07284 0.26892 0.0
H1061 H 0.5152 0.04184 0.23863 0.0
H1062 H 0.54304 0.07135 0.23096 0.0
H1063 H 0.65288 0.15127 0.25547 0.0
H1064 H 0.62244 0.14951 0.25154 0.0
H1065 H 0.60629 0.10174 0.22721 0.0
H1066 H 0.63693 0.10329 0.23123 0.0
H1067 H 0.57769 0.09526 0.24316 0.0
H1068 H 0.61716 0.14465 0.21532 0.0
H1069 H 0.64551 0.17436 0.20849 0.0
H1070 H 0.63335 0.2064 0.23481 0.0
H1071 H 0.60507 0.17685 0.24192 0.0
C1072 C 0.506 0.11137 0.2362 0.0
C1073 C 0.5061 0.12503 0.24425 0.0
C1074 C 0.52284 0.11092 0.23392 0.0
C1075 C 0.54002 0.1241 0.23966 0.0
C1076 C 0.54018 0.13803 0.24742 0.0
C1077 C 0.52343 0.13846 0.24972 0.0
C1078 C 0.55785 0.1233 0.23801 0.0
C1079 C 0.57436 0.13983 0.23407 0.0
C1080 C 0.55899 0.10685 0.24097 0.0
C1081 C 0.54228 0.08914 0.24558 0.0
C1082 C 0.53284 0.08935 0.25638 0.0
C1083 C 0.51705 0.07258 0.26064 0.0
C1084 C 0.51067 0.05548 0.25423 0.0
C1085 C 0.52012 0.05511 0.24357 0.0
C1086 C 0.53591 0.07184 0.23927 0.0
C1087 C 0.64297 0.14045 0.2492 0.0
C1088 C 0.64738 0.12743 0.24364 0.0
C1089 C 0.62557 0.13953 0.24691 0.0
C1090 C 0.61215 0.12566 0.23895 0.0
C1091 C 0.61647 0.11263 0.23333 0.0
C1092 C 0.634 0.11357 0.23561 0.0
C1093 C 0.59338 0.12447 0.23705 0.0
C1094 C 0.5767 0.10758 0.24032 0.0
C1095 C 0.59208 0.14062 0.23349 0.0
C1096 C 0.60902 0.15849 0.22919 0.0
C1097 C 0.62059 0.15801 0.21971 0.0
C1098 C 0.63664 0.17483 0.21578 0.0
C1099 C 0.64124 0.19225 0.22123 0.0
C1100 C 0.62977 0.19289 0.2306 0.0
C1101 C 0.6137 0.17611 0.23457 0.0
H1102 H 0.65368 0.20526 0.21817 0.0
H1103 H 0.49845 0.04251 0.25754 0.0
H1104 H 0.40641 0.91012 0.75549 0.0
H1105 H 0.4372 0.91235 0.75867 0.0
H1106 H 0.45398 0.96026 0.783 0.0
H1107 H 0.42304 0.95835 0.77963 0.0
H1108 H 0.48213 0.96708 0.76719 0.0
H1109 H 0.44334 0.91641 0.79448 0.0
H1110 H 0.41527 0.88626 0.80104 0.0
H1111 H 0.42765 0.85564 0.77375 0.0
H1112 H 0.45565 0.88564 0.7669 0.0
H1113 H 0.56742 0.96175 0.77782 0.0
H1114 H 0.53775 0.96211 0.78198 0.0
H1115 H 0.50762 0.9154 0.75665 0.0
H1116 H 0.53693 0.91487 0.75254 0.0
H1117 H 0.48728 0.91007 0.77743 0.0
H1118 H 0.52262 0.96138 0.74824 0.0
H1119 H 0.55038 0.99151 0.74129 0.0
H1120 H 0.54427 0.02078 0.77235 0.0
H1121 H 0.51661 0.99074 0.77957 0.0
C1122 C 0.41654 0.92107 0.76161 0.0
C1123 C 0.4122 0.93402 0.76735 0.0
C1124 C 0.43416 0.92226 0.76347 0.0
C1125 C 0.44784 0.93627 0.77124 0.0
C1126 C 0.4436 0.94926 0.77702 0.0
C1127 C 0.4259 0.94811 0.77512 0.0
C1128 C 0.46675 0.93761 0.77282 0.0
C1129 C 0.4833 0.95474 0.76972 0.0
C1130 C 0.46831 0.92146 0.77599 0.0
C1131 C 0.45156 0.90332 0.78014 0.0
C1132 C 0.44002 0.90327 0.78983 0.0
C1133 C 0.42413 0.8862 0.7936 0.0
C1134 C 0.41967 0.86905 0.78781 0.0
C1135 C 0.43112 0.86893 0.77824 0.0
C1136 C 0.44703 0.88597 0.77442 0.0
C1137 C 0.55443 0.95149 0.77321 0.0
C1138 C 0.55456 0.93833 0.76481 0.0
C1139 C 0.53751 0.95176 0.77556 0.0
C1140 C 0.52048 0.93885 0.76956 0.0
C1141 C 0.52056 0.92546 0.76141 0.0
C1142 C 0.53738 0.92524 0.75903 0.0
C1143 C 0.50251 0.93932 0.77142 0.0
C1144 C 0.48614 0.92252 0.77517 0.0
C1145 C 0.50113 0.95575 0.76887 0.0
C1146 C 0.51772 0.97378 0.76452 0.0
C1147 C 0.52731 0.97421 0.75364 0.0
C1148 C 0.543 0.99127 0.74965 0.0
C1149 C 0.54913 0.00804 0.7564 0.0
C1150 C 0.53954 0.00778 0.76715 0.0
C1151 C 0.52385 0.99074 0.77119 0.0
H1152 H 0.56128 0.02124 0.75329 0.0
H1153 H 0.40735 0.85585 0.79074 0.0
H1154 H 0.14419 0.52563 0.75559 0.0
H1155 H 0.14243 0.55428 0.75971 0.0
H1156 H 0.09232 0.52161 0.78202 0.0
H1157 H 0.09394 0.49258 0.77787 0.0
H1158 H 0.08792 0.54507 0.76557 0.0
H1159 H 0.13325 0.55214 0.7959 0.0
H1160 H 0.16172 0.55243 0.80424 0.0
H1161 H 0.19756 0.59829 0.77989 0.0
H1162 H 0.16928 0.5981 0.77126 0.0
H1163 H 0.09359 0.63542 0.77722 0.0
H1164 H 0.09199 0.60479 0.78137 0.0
H1165 H 0.14266 0.62262 0.75956 0.0
H1166 H 0.14442 0.65305 0.75547 0.0
H1167 H 0.1438 0.605 0.78035 0.0
H1168 H 0.09837 0.59371 0.74772 0.0
H1169 H 0.07012 0.59313 0.73868 0.0
H1170 H 0.03477 0.55507 0.76714 0.0
H1171 H 0.06288 0.55564 0.77644 0.0
C1172 C 0.13284 0.52448 0.76146 0.0
C1173 C 0.11921 0.5068 0.76641 0.0
C1174 C 0.13192 0.54094 0.76386 0.0
C1175 C 0.11737 0.54016 0.77129 0.0
C1176 C 0.10372 0.52255 0.77631 0.0
C1177 C 0.1047 0.50601 0.77396 0.0
C1178 C 0.11621 0.55773 0.77324 0.0
C1179 C 0.09995 0.55807 0.7691 0.0
C1180 C 0.132 0.57476 0.77769 0.0
C1181 C 0.1491 0.57503 0.78289 0.0
C1182 C 0.14718 0.56221 0.79226 0.0
C1183 C 0.1633 0.56237 0.79705 0.0
C1184 C 0.18144 0.57536 0.79259 0.0
C1185 C 0.1835 0.58824 0.78334 0.0
C1186 C 0.16743 0.58813 0.77851 0.0
C1187 C 0.10447 0.63285 0.77342 0.0
C1188 C 0.11908 0.64663 0.76597 0.0
C1189 C 0.1035 0.61533 0.77576 0.0
C1190 C 0.11713 0.61135 0.7707 0.0
C1191 C 0.132 0.62535 0.76358 0.0
C1192 C 0.13293 0.64275 0.76121 0.0
C1193 C 0.11578 0.59246 0.77231 0.0
C1194 C 0.13159 0.5919 0.77712 0.0
C1195 C 0.09961 0.57525 0.76845 0.0
C1196 C 0.08274 0.57492 0.76286 0.0
C1197 C 0.08459 0.58536 0.75211 0.0
C1198 C 0.06861 0.585 0.74692 0.0
C1199 C 0.05067 0.57413 0.75235 0.0
C1200 C 0.04868 0.56353 0.76296 0.0
C1201 C 0.06463 0.56386 0.76819 0.0
H1202 H 0.03831 0.57386 0.74832 0.0
H1203 H 0.19389 0.57545 0.7963 0.0
H1204 H 0.42311 0.49411 0.77647 0.0
H1205 H 0.45499 0.52239 0.77864 0.0
H1206 H 0.43912 0.55317 0.75337 0.0
H1207 H 0.40755 0.52523 0.75114 0.0
H1208 H 0.47296 0.55607 0.74727 0.0
H1209 H 0.44225 0.56191 0.78401 0.0
H1210 H 0.42555 0.55094 0.80387 0.0
H1211 H 0.4726 0.54671 0.81849 0.0
H1212 H 0.48947 0.55743 0.79864 0.0
H1213 H 0.53713 0.65282 0.75172 0.0
H1214 H 0.50868 0.62161 0.75389 0.0
H1215 H 0.53876 0.60404 0.77855 0.0
H1216 H 0.56756 0.63562 0.7765 0.0
H1217 H 0.50098 0.59145 0.78603 0.0
H1218 H 0.53323 0.58903 0.75005 0.0
H1219 H 0.55009 0.60028 0.73028 0.0
H1220 H 0.50034 0.59757 0.71418 0.0
H1221 H 0.48326 0.58658 0.73392 0.0
C1222 C 0.4264 0.50697 0.77146 0.0
C1223 C 0.4128 0.50738 0.7636 0.0
C1224 C 0.4446 0.52311 0.77273 0.0
C1225 C 0.44944 0.53989 0.76615 0.0
C1226 C 0.43575 0.54036 0.75849 0.0
C1227 C 0.41765 0.52435 0.75725 0.0
C1228 C 0.46888 0.5569 0.76677 0.0
C1229 C 0.47903 0.56384 0.75574 0.0
C1230 C 0.47714 0.56665 0.77789 0.0
C1231 C 0.46701 0.56023 0.7898 0.0
C1232 C 0.44895 0.55847 0.79142 0.0
C1233 C 0.43947 0.55234 0.80268 0.0
C1234 C 0.44798 0.54807 0.81242 0.0
C1235 C 0.46601 0.54998 0.81093 0.0
C1236 C 0.47554 0.55609 0.79968 0.0
C1237 C 0.53775 0.64242 0.75768 0.0
C1238 C 0.5547 0.64667 0.76385 0.0
C1239 C 0.52145 0.62454 0.75889 0.0
C1240 C 0.52169 0.61038 0.76621 0.0
C1241 C 0.53831 0.61475 0.7728 0.0
C1242 C 0.55474 0.63276 0.7716 0.0
C1243 C 0.50466 0.59094 0.76645 0.0
C1244 C 0.49503 0.5835 0.7776 0.0
C1245 C 0.49684 0.58062 0.75544 0.0
C1246 C 0.507 0.58709 0.7435 0.0
C1247 C 0.52592 0.59095 0.74232 0.0
C1248 C 0.53552 0.59727 0.73111 0.0
C1249 C 0.5263 0.59966 0.72098 0.0
C1250 C 0.50746 0.59571 0.72203 0.0
C1251 C 0.49781 0.58941 0.73323 0.0
H1252 H 0.53376 0.60456 0.71231 0.0
H1253 H 0.44062 0.54333 0.82113 0.0
H1254 H 0.62926 0.75734 0.56366 0.0
H1255 H 0.63074 0.78798 0.55988 0.0
H1256 H 0.58293 0.77142 0.58425 0.0
H1257 H 0.58118 0.74091 0.5879 0.0
H1258 H 0.57921 0.78832 0.56434 0.0
H1259 H 0.62965 0.80104 0.59353 0.0
H1260 H 0.65907 0.80181 0.60043 0.0
H1261 H 0.68976 0.83788 0.56994 0.0
H1262 H 0.66043 0.83712 0.56278 0.0
H1263 H 0.58357 0.87014 0.5888 0.0
H1264 H 0.58443 0.84099 0.58483 0.0
H1265 H 0.63133 0.87131 0.55967 0.0
H1266 H 0.63069 0.90088 0.56372 0.0
H1267 H 0.63766 0.84876 0.57545 0.0
H1268 H 0.58762 0.84013 0.5485 0.0
H1269 H 0.55807 0.83969 0.54236 0.0
H1270 H 0.52634 0.79601 0.56905 0.0
H1271 H 0.55575 0.79637 0.57547 0.0
C1272 C 0.61897 0.7602 0.56812 0.0
C1273 C 0.60515 0.7467 0.57612 0.0
C1274 C 0.61989 0.77774 0.56599 0.0
C1275 C 0.60705 0.7821 0.57187 0.0
C1276 C 0.59297 0.76841 0.57959 0.0
C1277 C 0.59204 0.75095 0.5817 0.0
C1278 C 0.60838 0.80101 0.57041 0.0
C1279 C 0.59198 0.80153 0.56679 0.0
C1280 C 0.62521 0.81835 0.57323 0.0
C1281 C 0.64282 0.81882 0.57753 0.0
C1282 C 0.64264 0.809 0.58825 0.0
C1283 C 0.6593 0.80946 0.59221 0.0
C1284 C 0.67626 0.81983 0.5856 0.0
C1285 C 0.6766 0.82981 0.57503 0.0
C1286 C 0.65997 0.82938 0.57102 0.0
C1287 C 0.59402 0.87067 0.58235 0.0
C1288 C 0.60704 0.88787 0.57655 0.0
C1289 C 0.59442 0.85392 0.58004 0.0
C1290 C 0.60776 0.85387 0.57182 0.0
C1291 C 0.62084 0.871 0.566 0.0
C1292 C 0.62042 0.88786 0.56829 0.0
C1293 C 0.60829 0.83595 0.56979 0.0
C1294 C 0.62501 0.83562 0.57273 0.0
C1295 C 0.59172 0.81874 0.56641 0.0
C1296 C 0.57393 0.81835 0.5625 0.0
C1297 C 0.57437 0.83051 0.55311 0.0
C1298 C 0.55763 0.83026 0.54957 0.0
C1299 C 0.54034 0.81785 0.55532 0.0
C1300 C 0.53974 0.80562 0.5646 0.0
C1301 C 0.55644 0.80581 0.56818 0.0
H1302 H 0.5274 0.81768 0.55257 0.0
H1303 H 0.68914 0.82017 0.58869 0.0
H1304 H 0.19145 0.73884 0.58747 0.0
H1305 H 0.22018 0.76988 0.5854 0.0
H1306 H 0.1896 0.78952 0.56285 0.0
H1307 H 0.16055 0.75812 0.56477 0.0
H1308 H 0.22697 0.80251 0.55451 0.0
H1309 H 0.19611 0.80213 0.59196 0.0
H1310 H 0.1801 0.78925 0.61181 0.0
H1311 H 0.23056 0.79088 0.62574 0.0
H1312 H 0.24679 0.8035 0.6059 0.0
H1313 H 0.30371 0.89974 0.56576 0.0
H1314 H 0.27231 0.87093 0.56325 0.0
H1315 H 0.29014 0.83977 0.58675 0.0
H1316 H 0.3212 0.86826 0.58936 0.0
H1317 H 0.25627 0.83517 0.59381 0.0
H1318 H 0.28595 0.83286 0.55566 0.0
H1319 H 0.30179 0.84541 0.53571 0.0
H1320 H 0.25352 0.8493 0.52317 0.0
H1321 H 0.23749 0.83699 0.54312 0.0
C1322 C 0.19079 0.74965 0.58197 0.0
C1323 C 0.17363 0.74606 0.57639 0.0
C1324 C 0.20726 0.76743 0.58081 0.0
C1325 C 0.20695 0.78213 0.57416 0.0
C1326 C 0.19011 0.77839 0.56807 0.0
C1327 C 0.17354 0.76047 0.56919 0.0
C1328 C 0.22405 0.80154 0.57421 0.0
C1329 C 0.23322 0.80985 0.56307 0.0
C1330 C 0.23226 0.81106 0.5854 0.0
C1331 C 0.22262 0.80365 0.5974 0.0
C1332 C 0.20376 0.79963 0.59923 0.0
C1333 C 0.19464 0.79238 0.61048 0.0
C1334 C 0.20429 0.78922 0.62002 0.0
C1335 C 0.2231 0.79334 0.61834 0.0
C1336 C 0.23227 0.80056 0.60709 0.0
C1337 C 0.30096 0.88668 0.57028 0.0
C1338 C 0.31494 0.88633 0.57781 0.0
C1339 C 0.28304 0.87023 0.56882 0.0
C1340 C 0.27886 0.85318 0.57483 0.0
C1341 C 0.29298 0.85276 0.58209 0.0
C1342 C 0.31079 0.8691 0.58354 0.0
C1343 C 0.25962 0.83587 0.57415 0.0
C1344 C 0.24995 0.82798 0.58521 0.0
C1345 C 0.251 0.82685 0.5629 0.0
C1346 C 0.26063 0.83424 0.55093 0.0
C1347 C 0.27879 0.83656 0.54869 0.0
C1348 C 0.28778 0.84359 0.53737 0.0
C1349 C 0.27869 0.84821 0.52819 0.0
C1350 C 0.26056 0.84575 0.5303 0.0
C1351 C 0.25151 0.83874 0.5416 0.0
H1352 H 0.28568 0.85365 0.51944 0.0
H1353 H 0.19721 0.78361 0.62873 0.0
H1354 H 0.32215 0.4819 0.58667 0.0
H1355 H 0.29058 0.47847 0.58498 0.0
H1356 H 0.27105 0.42674 0.56403 0.0
H1357 H 0.30293 0.43012 0.56563 0.0
H1358 H 0.25721 0.45063 0.5551 0.0
H1359 H 0.2597 0.42204 0.59298 0.0
H1360 H 0.27365 0.42027 0.61276 0.0
H1361 H 0.27109 0.46897 0.62594 0.0
H1362 H 0.2574 0.47121 0.60618 0.0
H1363 H 0.1601 0.42944 0.56648 0.0
H1364 H 0.18909 0.42718 0.56408 0.0
H1365 H 0.21962 0.47601 0.5878 0.0
H1366 H 0.19088 0.47816 0.59037 0.0
H1367 H 0.22547 0.44793 0.59468 0.0
H1368 H 0.2262 0.47853 0.55624 0.0
H1369 H 0.21302 0.48107 0.53635 0.0
H1370 H 0.20958 0.42892 0.52426 0.0
H1371 H 0.22253 0.42594 0.54415 0.0
C1372 C 0.31125 0.46986 0.58159 0.0
C1373 C 0.31502 0.45618 0.57638 0.0
C1374 C 0.29317 0.46791 0.58066 0.0
C1375 C 0.27839 0.45218 0.57456 0.0
C1376 C 0.28226 0.43893 0.56883 0.0
C1377 C 0.30045 0.44088 0.56976 0.0
C1378 C 0.25881 0.44939 0.57481 0.0
C1379 C 0.25005 0.44967 0.56373 0.0
C1380 C 0.24959 0.4483 0.58608 0.0
C1381 C 0.25763 0.44686 0.59805 0.0
C1382 C 0.26222 0.43245 0.60007 0.0
C1383 C 0.27007 0.43135 0.61128 0.0
C1384 C 0.27329 0.44452 0.62059 0.0
C1385 C 0.2686 0.45878 0.61872 0.0
C1386 C 0.26077 0.45995 0.60752 0.0
C1387 C 0.17306 0.43978 0.57108 0.0
C1388 C 0.17316 0.45394 0.57865 0.0
C1389 C 0.18962 0.43849 0.56969 0.0
C1390 C 0.20657 0.45144 0.57577 0.0
C1391 C 0.20672 0.46579 0.58309 0.0
C1392 C 0.19024 0.46703 0.58451 0.0
C1393 C 0.22409 0.44987 0.57499 0.0
C1394 C 0.23244 0.44864 0.58602 0.0
C1395 C 0.23287 0.4501 0.56368 0.0
C1396 C 0.22511 0.45189 0.55173 0.0
C1397 C 0.22248 0.46752 0.54938 0.0
C1398 C 0.21508 0.46906 0.5381 0.0
C1399 C 0.2104 0.45513 0.52906 0.0
C1400 C 0.21317 0.43967 0.53127 0.0
C1401 C 0.22054 0.43805 0.54255 0.0
H1402 H 0.20468 0.45635 0.52033 0.0
H1403 H 0.27938 0.44367 0.62926 0.0
H1404 H 0.03814 0.30532 0.1334 0.0
H1405 H 0.03547 0.31704 0.15364 0.0
H1406 H 0.00475 0.34244 0.13752 0.0
H1407 H 0.00721 0.33066 0.11728 0.0
H1408 H 0.03111 0.36526 0.1564 0.0
H1409 H 0.97974 0.30076 0.14939 0.0
H1410 H 0.96634 0.2668 0.14408 0.0
H1411 H 0.99619 0.25973 0.17443 0.0
H1412 H 0.01001 0.29376 0.1798 0.0
H1413 H 0.97869 0.36976 0.20786 0.0
H1414 H 0.99104 0.3661 0.18815 0.0
H1415 H 0.01008 0.33057 0.20551 0.0
H1416 H 0.99711 0.3336 0.2251 0.0
H1417 H 0.99181 0.31381 0.18606 0.0
H1418 H 0.04159 0.37748 0.1943 0.0
H1419 H 0.05571 0.41152 0.19963 0.0
H1420 H 0.03035 0.4206 0.16756 0.0
H1421 H 0.01586 0.38655 0.16211 0.0
C1422 C 0.03117 0.31374 0.13411 0.0
C1423 C 0.02277 0.31693 0.12374 0.0
C1424 C 0.02961 0.32038 0.14569 0.0
C1425 C 0.01974 0.33045 0.1471 0.0
C1426 C 0.01242 0.33471 0.13664 0.0
C1427 C 0.01379 0.3279 0.12508 0.0
C1428 C 0.0155 0.33495 0.15954 0.0
C1429 C 0.02243 0.35406 0.16289 0.0
C1430 C 0.00448 0.32033 0.16807 0.0
C1431 C 0.99607 0.29985 0.16491 0.0
C1432 C 0.98357 0.292 0.15487 0.0
C1433 C 0.97588 0.27274 0.15186 0.0
C1434 C 0.98046 0.26113 0.15889 0.0
C1435 C 0.99269 0.26875 0.16897 0.0
C1436 C 1.00045 0.28802 0.17201 0.0
C1437 C 0.98582 0.36145 0.20752 0.0
C1438 C 0.98687 0.35193 0.21804 0.0
C1439 C 0.99296 0.35941 0.19623 0.0
C1440 C 0.00165 0.34812 0.19529 0.0
C1441 C 0.00339 0.33928 0.20594 0.0
C1442 C 0.99602 0.34108 0.21716 0.0
C1443 C 0.00753 0.34425 0.18311 0.0
C1444 C 1.00074 0.32516 0.17972 0.0
C1445 C 0.0188 0.35893 0.17461 0.0
C1446 C 0.0275 0.37942 0.17785 0.0
C1447 C 0.0389 0.3867 0.18843 0.0
C1448 C 0.04699 0.40601 0.19147 0.0
C1449 C 0.04389 0.41821 0.18396 0.0
C1450 C 0.03272 0.41113 0.17337 0.0
C1451 C 0.02458 0.39184 0.1703 0.0
H1452 H 0.05017 0.43315 0.18632 0.0
H1453 H 0.97449 0.24622 0.15654 0.0
H1454 H 0.72772 0.70309 0.11924 0.0
H1455 H 0.71608 0.68863 0.13944 0.0
H1456 H 0.74019 0.74458 0.15567 0.0
H1457 H 0.75172 0.75919 0.13544 0.0
H1458 H 0.75173 0.72067 0.16697 0.0
H1459 H 0.6935 0.71796 0.15441 0.0
H1460 H 0.66645 0.70995 0.14051 0.0
H1461 H 0.64895 0.65046 0.14315 0.0
H1462 H 0.67607 0.65813 0.15693 0.0
H1463 H 0.7218 0.68897 0.22705 0.0
H1464 H 0.72514 0.70482 0.20735 0.0
H1465 H 0.69398 0.65005 0.18946 0.0
H1466 H 0.69009 0.63407 0.20926 0.0
H1467 H 0.68518 0.67425 0.1791 0.0
H1468 H 0.74316 0.67546 0.18942 0.0
H1469 H 0.77077 0.68161 0.20227 0.0
H1470 H 0.78951 0.74151 0.20257 0.0
H1471 H 0.76186 0.73568 0.18983 0.0
C1472 C 0.73023 0.71233 0.12706 0.0
C1473 C 0.74068 0.7323 0.12573 0.0
C1474 C 0.72353 0.70403 0.1386 0.0
C1475 C 0.72725 0.71552 0.14906 0.0
C1476 C 0.73714 0.73546 0.14771 0.0
C1477 C 0.74364 0.74378 0.13614 0.0
C1478 C 0.72224 0.70674 0.16149 0.0
C1479 C 0.73715 0.71082 0.16972 0.0
C1480 C 0.70328 0.6933 0.16487 0.0
C1481 C 0.68693 0.68865 0.15662 0.0
C1482 C 0.68398 0.70318 0.15194 0.0
C1483 C 0.66861 0.6987 0.1441 0.0
C1484 C 0.65602 0.67972 0.14093 0.0
C1485 C 0.65873 0.66517 0.14561 0.0
C1486 C 0.67409 0.66957 0.15345 0.0
C1487 C 0.71538 0.68027 0.21896 0.0
C1488 C 0.70583 0.66025 0.2197 0.0
C1489 C 0.71739 0.68937 0.20768 0.0
C1490 C 0.71023 0.67865 0.19685 0.0
C1491 C 0.69973 0.65864 0.19767 0.0
C1492 C 0.69752 0.64952 0.209 0.0
C1493 C 0.71469 0.6883 0.18464 0.0
C1494 C 0.69975 0.68428 0.17641 0.0
C1495 C 0.73369 0.70154 0.18112 0.0
C1496 C 0.75033 0.70511 0.18879 0.0
C1497 C 0.75309 0.68993 0.19231 0.0
C1498 C 0.76876 0.69335 0.19956 0.0
C1499 C 0.78185 0.71193 0.20326 0.0
C1500 C 0.77933 0.72712 0.1997 0.0
C1501 C 0.76367 0.72377 0.19247 0.0
H1502 H 0.79398 0.71456 0.20887 0.0
H1503 H 0.64412 0.67628 0.13486 0.0
H1504 H 0.35553 0.05848 0.11877 0.0
H1505 H 0.3698 0.06081 0.13897 0.0
H1506 H 0.31372 0.02751 0.15479 0.0
H1507 H 0.29931 0.02497 0.13457 0.0
H1508 H 0.33647 0.06208 0.16677 0.0
H1509 H 0.34173 0.00855 0.15301 0.0
H1510 H 0.35082 0.9908 0.13871 0.0
H1511 H 0.40976 0.03411 0.14198 0.0
H1512 H 0.40099 0.05227 0.15617 0.0
H1513 H 0.36867 0.06339 0.22669 0.0
H1514 H 0.35295 0.05108 0.20693 0.0
H1515 H 0.40783 0.07639 0.18902 0.0
H1516 H 0.42367 0.08814 0.20889 0.0
H1517 H 0.38461 0.0439 0.17821 0.0
H1518 H 0.38057 0.09883 0.18982 0.0
H1519 H 0.37301 0.11873 0.20324 0.0
H1520 H 0.31375 0.07563 0.20288 0.0
H1521 H 0.321 0.05535 0.18959 0.0
C1522 C 0.34622 0.05133 0.1265 0.0
C1523 C 0.32627 0.04157 0.12506 0.0
C1524 C 0.35442 0.05264 0.13804 0.0
C1525 C 0.34283 0.04431 0.1484 0.0
C1526 C 0.32292 0.03402 0.14692 0.0
C1527 C 0.31471 0.03251 0.13534 0.0
C1528 C 0.35146 0.04777 0.16087 0.0
C1529 C 0.3467 0.05776 0.16937 0.0
C1530 C 0.36536 0.04277 0.16408 0.0
C1531 C 0.37068 0.03186 0.15558 0.0
C1532 C 0.35661 0.01438 0.1506 0.0
C1533 C 0.36171 0.00422 0.14253 0.0
C1534 C 0.38085 0.01135 0.13942 0.0
C1535 C 0.39494 0.02862 0.1444 0.0
C1536 C 0.38991 0.03884 0.15246 0.0
C1537 C 0.37741 0.06608 0.21858 0.0
C1538 C 0.39742 0.07689 0.21934 0.0
C1539 C 0.3684 0.05912 0.20726 0.0
C1540 C 0.37916 0.06322 0.1964 0.0
C1541 C 0.39918 0.07312 0.19724 0.0
C1542 C 0.40823 0.07984 0.20861 0.0
C1543 C 0.36955 0.05816 0.18416 0.0
C1544 C 0.37421 0.04802 0.17568 0.0
C1545 C 0.35577 0.06332 0.18085 0.0
C1546 C 0.35136 0.07549 0.18883 0.0
C1547 C 0.36595 0.09354 0.19268 0.0
C1548 C 0.36172 0.10489 0.20025 0.0
C1549 C 0.34292 0.09843 0.20394 0.0
C1550 C 0.3283 0.08061 0.20004 0.0
C1551 C 0.33246 0.06918 0.19248 0.0
H1552 H 0.33967 0.10724 0.2098 0.0
H1553 H 0.38477 0.00346 0.13317 0.0
H1554 H 0.31118 0.03747 0.87635 0.0
H1555 H 0.32249 0.03448 0.85604 0.0
H1556 H 0.34499 0.00083 0.87171 0.0
H1557 H 0.33368 0.00368 0.89202 0.0
H1558 H 0.36873 0.0263 0.85321 0.0
H1559 H 0.30266 0.97833 0.85952 0.0
H1560 H 0.26899 0.96711 0.8646 0.0
H1561 H 0.26537 0.99961 0.83457 0.0
H1562 H 0.29914 0.01125 0.82942 0.0
H1563 H 0.36888 0.9719 0.80161 0.0
H1564 H 0.36626 0.98496 0.82131 0.0
H1565 H 0.33506 0.00881 0.80372 0.0
H1566 H 0.33708 0.99522 0.78411 0.0
H1567 H 0.31684 0.99078 0.82302 0.0
H1568 H 0.38214 0.03693 0.81542 0.0
H1569 H 0.41588 0.04855 0.81034 0.0
H1570 H 0.42146 0.02059 0.84231 0.0
H1571 H 0.38766 0.00858 0.8475 0.0
C1572 C 0.31889 0.02978 0.87553 0.0
C1573 C 0.32139 0.02068 0.88579 0.0
C1574 C 0.32529 0.02803 0.8639 0.0
C1575 C 0.33439 0.01724 0.86234 0.0
C1576 C 0.338 0.0092 0.8727 0.0
C1577 C 0.33147 0.0108 0.8843 0.0
C1578 C 0.33854 0.01285 0.84983 0.0
C1579 C 0.35742 0.01844 0.8466 0.0
C1580 C 0.32381 0.00292 0.84115 0.0
C1581 C 0.30348 0.99583 0.84418 0.0
C1582 C 0.29473 0.9832 0.85406 0.0
C1583 C 0.27562 0.97675 0.85695 0.0
C1584 C 0.26506 0.98269 0.84994 0.0
C1585 C 0.27358 0.99505 0.84001 0.0
C1586 C 0.2927 0.00157 0.8371 0.0
C1587 C 0.36178 0.98024 0.80189 0.0
C1588 C 0.35314 0.98247 0.79129 0.0
C1589 C 0.36034 0.98777 0.81318 0.0
C1590 C 0.35054 0.99801 0.81405 0.0
C1591 C 0.34263 0.00092 0.80334 0.0
C1592 C 0.34385 0.99319 0.79211 0.0
C1593 C 0.34716 0.0043 0.82623 0.0
C1594 C 0.32831 0.9989 0.82948 0.0
C1595 C 0.36196 0.0145 0.83487 0.0
C1596 C 0.38231 0.02171 0.83179 0.0
C1597 C 0.39051 0.03313 0.82132 0.0
C1598 C 0.40966 0.03981 0.81843 0.0
C1599 C 0.4208 0.03527 0.82598 0.0
C1600 C 0.41281 0.02408 0.83646 0.0
C1601 C 0.39366 0.01735 0.83939 0.0
H1602 H 0.43562 0.04046 0.82373 0.0
H1603 H 0.25027 0.97768 0.85218 0.0
H1604 H 0.07336 0.42098 0.79888 0.0
H1605 H 0.0625 0.40612 0.81916 0.0
H1606 H 0.06279 0.35587 0.80631 0.0
H1607 H 0.07343 0.37043 0.78609 0.0
H1608 H 0.03087 0.36978 0.82817 0.0
H1609 H 0.08724 0.34633 0.82848 0.0
H1610 H 0.11831 0.35544 0.81892 0.0
H1611 H 0.13052 0.41337 0.81565 0.0
H1612 H 0.09967 0.40466 0.82535 0.0
H1613 H 0.01884 0.30423 0.87729 0.0
H1614 H 0.02215 0.32049 0.85764 0.0
H1615 H 0.072 0.37056 0.87142 0.0
H1616 H 0.0688 0.35454 0.89101 0.0
H1617 H 0.0787 0.35869 0.84951 0.0
H1618 H 0.03195 0.37177 0.86688 0.0
H1619 H 0.00134 0.36376 0.87665 0.0
H1620 H 0.9709 0.32903 0.84562 0.0
H1621 H 0.00134 0.33662 0.83573 0.0
C1622 C 0.07072 0.40661 0.8003 0.0
C1623 C 0.07442 0.39697 0.79088 0.0
C1624 C 0.06446 0.39813 0.81188 0.0
C1625 C 0.06202 0.37998 0.81426 0.0
C1626 C 0.06469 0.36993 0.80469 0.0
C1627 C 0.07078 0.37831 0.79312 0.0
C1628 C 0.05858 0.37226 0.82696 0.0
C1629 C 0.04128 0.36732 0.83286 0.0
C1630 C 0.07229 0.3693 0.83312 0.0
C1631 C 0.09106 0.37479 0.82752 0.0
C1632 C 0.0966 0.36102 0.82576 0.0
C1633 C 0.11416 0.36612 0.82032 0.0
C1634 C 0.12635 0.38496 0.81664 0.0
C1635 C 0.12104 0.39877 0.81846 0.0
C1636 C 0.1035 0.39375 0.82391 0.0
C1637 C 0.0303 0.31882 0.87621 0.0
C1638 C 0.0436 0.32804 0.88572 0.0
C1639 C 0.03216 0.32811 0.86498 0.0
C1640 C 0.04736 0.34674 0.86305 0.0
C1641 C 0.06021 0.35617 0.87269 0.0
C1642 C 0.0583 0.34698 0.88391 0.0
C1643 C 0.05084 0.35592 0.85075 0.0
C1644 C 0.06821 0.36111 0.84488 0.0
C1645 C 0.03724 0.3592 0.84471 0.0
C1646 C 0.01893 0.35462 0.85062 0.0
C1647 C 0.01873 0.36229 0.86219 0.0
C1648 C 0.00141 0.35785 0.86773 0.0
C1649 C 0.98419 0.34585 0.86177 0.0
C1650 C 0.98425 0.3383 0.85023 0.0
C1651 C 0.00154 0.34268 0.84465 0.0
H1652 H 0.97079 0.34244 0.86608 0.0
H1653 H 0.13993 0.38886 0.81241 0.0
H1654 H 0.64588 0.68361 0.79541 0.0
H1655 H 0.66083 0.68549 0.81536 0.0
H1656 H 0.70104 0.74509 0.8089 0.0
H1657 H 0.68697 0.74292 0.78879 0.0
H1658 H 0.71887 0.73217 0.82009 0.0
H1659 H 0.65776 0.72712 0.82716 0.0
H1660 H 0.62275 0.71233 0.82583 0.0
H1661 H 0.61595 0.66237 0.84426 0.0
H1662 H 0.65095 0.6768 0.84558 0.0
H1663 H 0.70912 0.75173 0.8888 0.0
H1664 H 0.69505 0.74078 0.86858 0.0
H1665 H 0.73505 0.72144 0.86115 0.0
H1666 H 0.74997 0.73349 0.88125 0.0
H1667 H 0.67712 0.71041 0.85687 0.0
H1668 H 0.74511 0.72432 0.83083 0.0
H1669 H 0.78009 0.74489 0.83223 0.0
H1670 H 0.77314 0.78703 0.85191 0.0
H1671 H 0.73814 0.76681 0.8505 0.0
C1672 C 0.65809 0.69701 0.7982 0.0
C1673 C 0.6652 0.71312 0.79054 0.0
C1674 C 0.66656 0.69813 0.80965 0.0
C1675 C 0.68188 0.71556 0.81383 0.0
C1676 C 0.68931 0.73145 0.80597 0.0
C1677 C 0.68118 0.73021 0.79443 0.0
C1678 C 0.68978 0.71772 0.82653 0.0
C1679 C 0.70969 0.72728 0.82811 0.0
C1680 C 0.67795 0.71164 0.83711 0.0
C1681 C 0.65694 0.70293 0.83633 0.0
C1682 C 0.64879 0.71293 0.83085 0.0
C1683 C 0.62896 0.70462 0.83011 0.0
C1684 C 0.61714 0.6864 0.83492 0.0
C1685 C 0.62513 0.67646 0.84052 0.0
C1686 C 0.64495 0.6847 0.84126 0.0
C1687 C 0.71487 0.74501 0.88292 0.0
C1688 C 0.73078 0.74362 0.88661 0.0
C1689 C 0.70674 0.73868 0.87132 0.0
C1690 C 0.7141 0.7305 0.86316 0.0
C1691 C 0.72936 0.72813 0.8671 0.0
C1692 C 0.73782 0.73489 0.87864 0.0
C1693 C 0.7062 0.72537 0.85043 0.0
C1694 C 0.6863 0.71509 0.84884 0.0
C1695 C 0.71803 0.73163 0.83986 0.0
C1696 C 0.73904 0.74394 0.8407 0.0
C1697 C 0.75107 0.73799 0.83544 0.0
C1698 C 0.77089 0.74959 0.83623 0.0
C1699 C 0.77883 0.76722 0.8422 0.0
C1700 C 0.76697 0.77334 0.84733 0.0
C1701 C 0.74715 0.76181 0.84655 0.0
H1702 H 0.79418 0.77617 0.84281 0.0
H1703 H 0.60179 0.67999 0.83434 0.0
H1704 H 0.02609 0.75382 0.87481 0.0
H1705 H 0.02904 0.74174 0.85482 0.0
H1706 H 0.06003 0.71712 0.87171 0.0
H1707 H 0.05764 0.72968 0.89163 0.0
H1708 H 0.07863 0.73659 0.85263 0.0
H1709 H 0.01331 0.68946 0.85975 0.0
H1710 H 0.97948 0.67747 0.86481 0.0
H1711 H 0.97404 0.70663 0.83345 0.0
H1712 H 0.00791 0.71901 0.8283 0.0
H1713 H 0.08427 0.69076 0.79872 0.0
H1714 H 0.0733 0.69378 0.81914 0.0
H1715 H 0.05103 0.72787 0.80386 0.0
H1716 H 0.0621 0.72508 0.78344 0.0
H1717 H 0.02705 0.70156 0.82216 0.0
H1718 H 0.0926 0.75046 0.81615 0.0
H1719 H 0.12649 0.76285 0.81105 0.0
H1720 H 0.13121 0.73016 0.84054 0.0
H1721 H 0.09725 0.71737 0.84571 0.0
C1722 C 0.0332 0.7455 0.87431 0.0
C1723 C 0.04167 0.74276 0.88482 0.0
C1724 C 0.03484 0.73854 0.86286 0.0
C1725 C 0.0447 0.7284 0.86171 0.0
C1726 C 0.05243 0.72495 0.87231 0.0
C1727 C 0.05097 0.73208 0.88372 0.0
C1728 C 0.04831 0.72275 0.84938 0.0
C1729 C 0.06725 0.72858 0.8461 0.0
C1730 C 0.0336 0.71276 0.84065 0.0
C1731 C 0.0132 0.7053 0.8437 0.0
C1732 C 0.00494 0.69343 0.85399 0.0
C1733 C 0.98575 0.68655 0.85686 0.0
C1734 C 0.97463 0.69132 0.84947 0.0
C1735 C 0.98267 0.70296 0.83917 0.0
C1736 C 0.00186 0.7099 0.83626 0.0
C1737 C 0.0767 0.69858 0.79965 0.0
C1738 C 0.07416 0.70778 0.78947 0.0
C1739 C 0.07051 0.70035 0.81134 0.0
C1740 C 0.06152 0.71121 0.81303 0.0
C1741 C 0.05794 0.71944 0.80276 0.0
C1742 C 0.06433 0.71786 0.7911 0.0
C1743 C 0.05725 0.71528 0.82558 0.0
C1744 C 0.0383 0.70932 0.82883 0.0
C1745 C 0.07192 0.72513 0.83432 0.0
C1746 C 0.09233 0.73278 0.83122 0.0
C1747 C 0.10082 0.74577 0.82147 0.0
C1748 C 0.12005 0.7529 0.81858 0.0
C1749 C 0.13098 0.74725 0.82544 0.0
C1750 C 0.12272 0.73449 0.83522 0.0
C1751 C 0.10348 0.72731 0.83814 0.0
H1752 H 0.14587 0.7528 0.8232 0.0
H1753 H 0.95977 0.68598 0.85171 0.0
H1754 H 0.31774 0.37543 0.78802 0.0
H1755 H 0.31577 0.36084 0.80791 0.0
H1756 H 0.3752 0.40145 0.81456 0.0
H1757 H 0.37687 0.41691 0.79484 0.0
H1758 H 0.32899 0.34302 0.81875 0.0
H1759 H 0.38375 0.41053 0.84488 0.0
H1760 H 0.39779 0.44552 0.84398 0.0
H1761 H 0.34763 0.43858 0.82575 0.0
H1762 H 0.33322 0.40358 0.82667 0.0
H1763 H 0.32667 0.31003 0.87948 0.0
H1764 H 0.33922 0.32567 0.85962 0.0
H1765 H 0.31989 0.36555 0.86756 0.0
H1766 H 0.30854 0.35081 0.88756 0.0
H1767 H 0.35018 0.38378 0.856 0.0
H1768 H 0.29406 0.3227 0.84891 0.0
H1769 H 0.27404 0.28764 0.84992 0.0
H1770 H 0.31672 0.28163 0.8302 0.0
H1771 H 0.33709 0.31668 0.8292 0.0
C1772 C 0.33046 0.38119 0.79366 0.0
C1773 C 0.34743 0.39743 0.78989 0.0
C1774 C 0.32934 0.37277 0.80506 0.0
C1775 C 0.34523 0.38015 0.81293 0.0
C1776 C 0.36255 0.39574 0.80886 0.0
C1777 C 0.36356 0.4045 0.79753 0.0
C1778 C 0.34314 0.37193 0.82552 0.0
C1779 C 0.33375 0.35199 0.82688 0.0
C1780 C 0.34906 0.38347 0.83623 0.0
C1781 C 0.35755 0.40448 0.8357 0.0
C1782 C 0.37572 0.4165 0.8407 0.0
C1783 C 0.38374 0.43632 0.84018 0.0
C1784 C 0.37365 0.44427 0.83477 0.0
C1785 C 0.35547 0.43241 0.8299 0.0
C1786 C 0.34738 0.41258 0.8304 0.0
C1787 C 0.32541 0.32233 0.87703 0.0
C1788 C 0.31656 0.32914 0.88508 0.0
C1789 C 0.33245 0.33119 0.86563 0.0
C1790 C 0.33018 0.34661 0.86188 0.0
C1791 C 0.32192 0.35375 0.87014 0.0
C1792 C 0.31535 0.34524 0.88162 0.0
C1793 C 0.33545 0.35486 0.84924 0.0
C1794 C 0.34562 0.37481 0.84787 0.0
C1795 C 0.32937 0.34332 0.83853 0.0
C1796 C 0.31719 0.32228 0.83912 0.0
C1797 C 0.29922 0.31389 0.84487 0.0
C1798 C 0.28781 0.29403 0.84542 0.0
C1799 C 0.29413 0.28242 0.84016 0.0
C1800 C 0.31186 0.29065 0.8343 0.0
C1801 C 0.32334 0.3105 0.83373 0.0
H1802 H 0.28527 0.26705 0.8406 0.0
H1803 H 0.37988 0.45961 0.83437 0.0
H1804 H 0.75777 0.03072 0.87577 0.0
H1805 H 0.74233 0.02735 0.85588 0.0
H1806 H 0.6872 0.99254 0.87272 0.0
H1807 H 0.70263 0.9953 0.89251 0.0
H1808 H 0.68862 0.97587 0.85312 0.0
H1809 H 0.70387 0.03986 0.86189 0.0
H1810 H 0.72434 0.07367 0.86759 0.0
H1811 H 0.75935 0.08262 0.83583 0.0
H1812 H 0.73923 0.04879 0.83002 0.0
H1813 H 0.63526 0.9717 0.80025 0.0
H1814 H 0.64959 0.9819 0.82068 0.0
H1815 H 0.70571 0.00511 0.80486 0.0
H1816 H 0.69151 0.99473 0.78443 0.0
H1817 H 0.70266 0.02844 0.82395 0.0
H1818 H 0.68795 0.96362 0.81626 0.0
H1819 H 0.66687 0.92989 0.81059 0.0
H1820 H 0.62981 0.92294 0.84082 0.0
H1821 H 0.65055 0.95674 0.84656 0.0
C1822 C 0.74234 0.02261 0.87527 0.0
C1823 C 0.73144 0.01326 0.88573 0.0
C1824 C 0.73349 0.02073 0.86388 0.0
C1825 C 0.71352 0.00979 0.86275 0.0
C1826 C 0.70261 0.00101 0.8733 0.0
C1827 C 0.71146 0.00266 0.88464 0.0
C1828 C 0.70407 0.00639 0.85048 0.0
C1829 C 0.69146 0.98746 0.84688 0.0
C1830 C 0.70801 0.02138 0.84213 0.0
C1831 C 0.72014 0.04174 0.84558 0.0
C1832 C 0.71602 0.049 0.85617 0.0
C1833 C 0.72755 0.06818 0.85941 0.0
C1834 C 0.74317 0.08028 0.85209 0.0
C1835 C 0.74726 0.07323 0.8415 0.0
C1836 C 0.73579 0.05406 0.83822 0.0
C1837 C 0.65066 0.97931 0.80108 0.0
C1838 C 0.66225 0.98233 0.79073 0.0
C1839 C 0.65882 0.98506 0.81277 0.0
C1840 C 0.6787 0.99413 0.81429 0.0
C1841 C 0.69034 0.99815 0.80388 0.0
C1842 C 0.6822 0.99216 0.79223 0.0
C1843 C 0.68727 0.99805 0.82677 0.0
C1844 C 0.69974 0.01698 0.83033 0.0
C1845 C 0.68312 0.9831 0.83515 0.0
C1846 C 0.67068 0.96276 0.83175 0.0
C1847 C 0.67521 0.95495 0.82163 0.0
C1848 C 0.66335 0.93581 0.81841 0.0
C1849 C 0.64698 0.92429 0.82531 0.0
C1850 C 0.64247 0.93189 0.83546 0.0
C1851 C 0.65428 0.95103 0.83871 0.0
H1852 H 0.63781 0.90948 0.82281 0.0
H1853 H 0.75207 0.09512 0.85462 0.0
H1854 H 0.7264 0.05597 0.11654 0.0
H1855 H 0.71441 0.05981 0.13631 0.0
H1856 H 0.74246 0.03321 0.1546 0.0
H1857 H 0.75382 0.02861 0.13474 0.0
H1858 H 0.71047 0.02342 0.16597 0.0
H1859 H 0.76293 0.08293 0.15245 0.0
H1860 H 0.78106 0.10976 0.1382 0.0
H1861 H 0.73587 0.12302 0.13874 0.0
H1862 H 0.71736 0.09609 0.15288 0.0
H1863 H 0.72615 0.07012 0.22433 0.0
H1864 H 0.72821 0.05757 0.20429 0.0
H1865 H 0.69221 0.07726 0.18855 0.0
H1866 H 0.68998 0.08978 0.20862 0.0
H1867 H 0.7261 0.08957 0.1758 0.0
H1868 H 0.6753 0.03049 0.19157 0.0
H1869 H 0.6595 0.00445 0.20668 0.0
H1870 H 0.70466 0.9915 0.203 0.0
H1871 H 0.72088 0.01764 0.18799 0.0
C1872 C 0.72974 0.05064 0.12475 0.0
C1873 C 0.7412 0.04213 0.12409 0.0
C1874 C 0.72298 0.05295 0.13608 0.0
C1875 C 0.72795 0.04729 0.14703 0.0
C1876 C 0.7385 0.03782 0.14631 0.0
C1877 C 0.745 0.03519 0.13494 0.0
C1878 C 0.72313 0.05226 0.15922 0.0
C1879 C 0.71404 0.03792 0.16814 0.0
C1880 C 0.72756 0.07115 0.16208 0.0
C1881 C 0.73867 0.08737 0.15361 0.0
C1882 C 0.7568 0.09149 0.14946 0.0
C1883 C 0.76715 0.10672 0.14141 0.0
C1884 C 0.7596 0.11805 0.13754 0.0
C1885 C 0.74169 0.11421 0.14173 0.0
C1886 C 0.73127 0.09897 0.14976 0.0
C1887 C 0.71839 0.0715 0.21666 0.0
C1888 C 0.70793 0.081 0.21807 0.0
C1889 C 0.71953 0.06425 0.20521 0.0
C1890 C 0.71032 0.06642 0.19492 0.0
C1891 C 0.6994 0.07539 0.19637 0.0
C1892 C 0.69808 0.08247 0.20786 0.0
C1893 C 0.7134 0.06075 0.1825 0.0
C1894 C 0.72232 0.07503 0.17356 0.0
C1895 C 0.70915 0.04192 0.17974 0.0
C1896 C 0.69938 0.02614 0.18873 0.0
C1897 C 0.68195 0.02219 0.19406 0.0
C1898 C 0.6729 0.00739 0.20259 0.0
C1899 C 0.6811 0.99635 0.20581 0.0
C1900 C 0.69834 1.00007 0.20049 0.0
C1901 C 0.70745 0.01486 0.19197 0.0
H1902 H 0.67407 0.9849 0.21242 0.0
H1903 H 0.76763 0.12984 0.13131 0.0
H1904 H 0.03348 0.75957 0.13366 0.0
H1905 H 0.03023 0.74377 0.15339 0.0
H1906 H 1.0008 0.68888 0.13546 0.0
H1907 H 0.0034 0.7046 0.11581 0.0
H1908 H 0.9815 0.68787 0.15431 0.0
H1909 H 0.04755 0.70876 0.14817 0.0
H1910 H 0.08137 0.73163 0.14376 0.0
H1911 H 0.08438 0.76437 0.17561 0.0
H1912 H 0.05049 0.74183 0.18013 0.0
H1913 H 0.97486 0.6354 0.20789 0.0
H1914 H 0.98658 0.65005 0.18771 0.0
H1915 H 0.00726 0.70584 0.20354 0.0
H1916 H 0.99555 0.69133 0.22373 0.0
H1917 H 0.03212 0.70509 0.18562 0.0
H1918 H 0.96535 0.68518 0.19048 0.0
H1919 H 0.93161 0.66198 0.19489 0.0
H1920 H 0.93053 0.62682 0.16498 0.0
H1921 H 0.96438 0.64969 0.16051 0.0
C1922 C 0.02664 0.74415 0.13388 0.0
C1923 C 0.01866 0.73335 0.12316 0.0
C1924 C 0.02483 0.7351 0.14519 0.0
C1925 C 0.01535 0.71507 0.14597 0.0
C1926 C 0.00811 0.70433 0.13515 0.0
C1927 C 0.00967 0.71335 0.12389 0.0
C1928 C 0.01159 0.70526 0.15813 0.0
C1929 C 0.99271 0.69141 0.16102 0.0
C1930 C 0.02603 0.71011 0.1671 0.0
C1931 C 0.04642 0.72368 0.16443 0.0
C1932 C 0.05538 0.72091 0.15419 0.0
C1933 C 0.07457 0.73381 0.15168 0.0
C1934 C 0.085 0.74947 0.15939 0.0
C1935 C 0.07627 0.75224 0.16964 0.0
C1936 C 0.05708 0.7394 0.17219 0.0
C1937 C 0.98224 0.6508 0.20714 0.0
C1938 C 0.98414 0.66218 0.21741 0.0
C1939 C 0.98887 0.65915 0.19558 0.0
C1940 C 0.9976 0.67903 0.1941 0.0
C1941 C 1.00055 0.69049 0.20447 0.0
C1942 C 0.99379 0.68215 0.216 0.0
C1943 C 0.00217 0.68776 0.18164 0.0
C1944 C 0.02108 0.70144 0.17877 0.0
C1945 C 0.98781 0.68272 0.17263 0.0
C1946 C 0.96744 0.66902 0.17526 0.0
C1947 C 0.95796 0.67242 0.18491 0.0
C1948 C 0.93881 0.65935 0.18741 0.0
C1949 C 0.92895 0.64291 0.18024 0.0
C1950 C 0.9382 0.63954 0.17054 0.0
C1951 C 0.95736 0.65255 0.16802 0.0
H1952 H 0.91412 0.63281 0.18218 0.0
H1953 H 0.09986 0.75944 0.15743 0.0
H1954 H 0.35728 0.33381 0.1159 0.0
H1955 H 0.37301 0.34632 0.13564 0.0
H1956 H 0.31819 0.32 0.15369 0.0
H1957 H 0.30234 0.30809 0.13385 0.0
H1958 H 0.34094 0.35242 0.1646 0.0
H1959 H 0.34632 0.29837 0.15249 0.0
H1960 H 0.35447 0.27916 0.13883 0.0
H1961 H 0.41338 0.32321 0.13932 0.0
H1962 H 0.40552 0.34281 0.15285 0.0
H1963 H 0.36978 0.33702 0.22379 0.0
H1964 H 0.35578 0.33503 0.20354 0.0
H1965 H 0.41203 0.36936 0.18816 0.0
H1966 H 0.42618 0.37154 0.20843 0.0
H1967 H 0.38991 0.3352 0.17572 0.0
H1968 H 0.38334 0.38765 0.19015 0.0
H1969 H 0.37366 0.40464 0.20468 0.0
H1970 H 0.31504 0.36071 0.20095 0.0
H1971 H 0.3244 0.34331 0.18653 0.0
C1972 C 0.34855 0.33097 0.12404 0.0
C1973 C 0.32857 0.31981 0.12333 0.0
C1974 C 0.35757 0.33803 0.13535 0.0
C1975 C 0.34685 0.33369 0.14624 0.0
C1976 C 0.32682 0.32347 0.14545 0.0
C1977 C 0.31776 0.31666 0.13409 0.0
C1978 C 0.3565 0.33876 0.15846 0.0
C1979 C 0.35154 0.34852 0.16706 0.0
C1980 C 0.37052 0.3339 0.16168 0.0
C1981 C 0.3753 0.32214 0.15356 0.0
C1982 C 0.36098 0.30402 0.14961 0.0
C1983 C 0.36555 0.29305 0.1419 0.0
C1984 C 0.38442 0.29998 0.13818 0.0
C1985 C 0.39876 0.31788 0.14219 0.0
C1986 C 0.39427 0.32892 0.14988 0.0
C1987 C 0.37918 0.34445 0.21615 0.0
C1988 C 0.39911 0.35441 0.21772 0.0
C1989 C 0.37114 0.34334 0.20458 0.0
C1990 C 0.38285 0.35207 0.19433 0.0
C1991 C 0.40273 0.36254 0.19594 0.0
C1992 C 0.41079 0.36383 0.20755 0.0
C1993 C 0.37439 0.34888 0.18182 0.0
C1994 C 0.37949 0.33933 0.1732 0.0
C1995 C 0.36028 0.35362 0.17869 0.0
C1996 C 0.3546 0.36409 0.18733 0.0
C1997 C 0.3684 0.38153 0.1925 0.0
C1998 C 0.36297 0.39126 0.20071 0.0
C1999 C 0.34375 0.38374 0.20376 0.0
C2000 C 0.32992 0.36651 0.19859 0.0
C2001 C 0.33528 0.35672 0.19039 0.0
H2002 H 0.33958 0.3913 0.21011 0.0
H2003 H 0.38793 0.29147 0.13222 0.0
H2004 H 0.66464 0.67046 0.55807 0.0
H2005 H 0.67652 0.66814 0.53786 0.0
H2006 H 0.65389 0.70164 0.52211 0.0
H2007 H 0.64203 0.70413 0.54236 0.0
H2008 H 0.64197 0.66729 0.51005 0.0
H2009 H 0.70099 0.72033 0.52387 0.0
H2010 H 0.72786 0.73786 0.53818 0.0
H2011 H 0.74292 0.69413 0.53492 0.0
H2012 H 0.71596 0.67618 0.52072 0.0
H2013 H 0.67254 0.66472 0.45024 0.0
H2014 H 0.6695 0.67763 0.46986 0.0
H2015 H 0.69832 0.65181 0.48813 0.0
H2016 H 0.70206 0.63947 0.4684 0.0
H2017 H 0.70808 0.68457 0.4987 0.0
H2018 H 0.64863 0.63003 0.48717 0.0
H2019 H 0.62112 0.6104 0.47373 0.0
H2020 H 0.60598 0.65427 0.47381 0.0
H2021 H 0.63357 0.67428 0.48713 0.0
C2022 C 0.66249 0.67765 0.55036 0.0
C2023 C 0.65234 0.68745 0.55182 0.0
C2024 C 0.66936 0.67635 0.53881 0.0
C2025 C 0.66613 0.68474 0.52847 0.0
C2026 C 0.65656 0.69508 0.52997 0.0
C2027 C 0.64987 0.69656 0.54156 0.0
C2028 C 0.67125 0.68127 0.51599 0.0
C2029 C 0.65649 0.67143 0.50748 0.0
C2030 C 0.69009 0.68604 0.5128 0.0
C2031 C 0.70635 0.69683 0.5213 0.0
C2032 C 0.70993 0.71437 0.52628 0.0
C2033 C 0.7252 0.7244 0.53436 0.0
C2034 C 0.73706 0.7171 0.53747 0.0
C2035 C 0.73371 0.69976 0.5325 0.0
C2036 C 0.71845 0.68967 0.52442 0.0
C2037 C 0.67852 0.66206 0.4584 0.0
C2038 C 0.68739 0.65093 0.45778 0.0
C2039 C 0.67668 0.66936 0.46964 0.0
C2040 C 0.68322 0.66528 0.48056 0.0
C2041 C 0.69304 0.65507 0.47986 0.0
C2042 C 0.69517 0.64802 0.46857 0.0
C2043 C 0.67877 0.67062 0.49273 0.0
C2044 C 0.6936 0.68066 0.50121 0.0
C2045 C 0.65991 0.66575 0.49602 0.0
C2046 C 0.64328 0.65374 0.48803 0.0
C2047 C 0.63951 0.63555 0.48425 0.0
C2048 C 0.6239 0.62435 0.47666 0.0
C2049 C 0.61184 0.63111 0.47289 0.0
C2050 C 0.61535 0.64907 0.47672 0.0
C2051 C 0.63097 0.66034 0.48429 0.0
H2052 H 0.59975 0.62241 0.46701 0.0
H2053 H 0.74888 0.72489 0.54373 0.0
H2054 H 0.41107 0.08836 0.46538 0.0
H2055 H 0.40024 0.07414 0.48583 0.0
H2056 H 0.40017 0.02336 0.47377 0.0
H2057 H 0.41075 0.03726 0.45338 0.0
H2058 H 0.36827 0.03788 0.49501 0.0
H2059 H 0.42461 0.01445 0.49642 0.0
H2060 H 0.45579 0.02331 0.48712 0.0
H2061 H 0.46806 0.08116 0.48303 0.0
H2062 H 0.43712 0.07271 0.49248 0.0
H2063 H 0.35563 0.97344 0.54498 0.0
H2064 H 0.35923 0.98926 0.52511 0.0
H2065 H 0.40886 0.03965 0.53879 0.0
H2066 H 0.40534 0.02408 0.55859 0.0
H2067 H 0.41586 0.02732 0.51713 0.0
H2068 H 0.36883 0.04069 0.53369 0.0
H2069 H 0.33807 0.0328 0.54318 0.0
H2070 H 0.30809 0.99737 0.51229 0.0
H2071 H 0.33869 0.00484 0.50269 0.0
C2072 C 0.40837 0.07401 0.46701 0.0
C2073 C 0.41191 0.06402 0.45776 0.0
C2074 C 0.40213 0.0659 0.47869 0.0
C2075 C 0.39957 0.04777 0.48133 0.0
C2076 C 0.40216 0.0374 0.47194 0.0
C2077 C 0.40821 0.0454 0.46027 0.0
C2078 C 0.396 0.04036 0.49412 0.0
C2079 C 0.37863 0.03554 0.49987 0.0
C2080 C 0.40964 0.03754 0.50049 0.0
C2081 C 0.42846 0.04288 0.49503 0.0
C2082 C 0.43401 0.02907 0.49358 0.0
C2083 C 0.45163 0.03402 0.48828 0.0
C2084 C 0.46387 0.05277 0.48445 0.0
C2085 C 0.45854 0.06663 0.48596 0.0
C2086 C 0.44095 0.06176 0.49127 0.0
C2087 C 0.3671 0.98801 0.54383 0.0
C2088 C 0.38024 0.99745 0.55338 0.0
C2089 C 0.36913 0.99704 0.53247 0.0
C2090 C 0.38435 0.01563 0.53046 0.0
C2091 C 0.39704 0.02529 0.54012 0.0
C2092 C 0.39496 0.01635 0.55146 0.0
C2093 C 0.38799 0.02455 0.51806 0.0
C2094 C 0.40543 0.02962 0.51233 0.0
C2095 C 0.37445 0.02768 0.51179 0.0
C2096 C 0.35605 0.02318 0.51753 0.0
C2097 C 0.35567 0.03108 0.52897 0.0
C2098 C 0.33827 0.02672 0.53436 0.0
C2099 C 0.32113 0.01456 0.52836 0.0
C2100 C 0.32138 0.00677 0.51694 0.0
C2101 C 0.33875 0.01109 0.51151 0.0
H2102 H 0.30767 0.01119 0.53254 0.0
H2103 H 0.47749 0.05657 0.48033 0.0
H2104 H 0.02036 0.4064 0.45535 0.0
H2105 H 0.03444 0.40773 0.47531 0.0
H2106 H 0.99388 0.34803 0.48107 0.0
H2107 H 0.97894 0.34697 0.46124 0.0
H2108 H 0.99606 0.3645 0.50079 0.0
H2109 H 0.04423 0.36651 0.47551 0.0
H2110 H 0.06724 0.37648 0.4584 0.0
H2111 H 0.09768 0.43334 0.47304 0.0
H2112 H 0.07471 0.42379 0.49014 0.0
H2113 H 0.08349 0.3998 0.5474 0.0
H2114 H 0.06869 0.38596 0.52754 0.0
H2115 H 0.0267 0.40311 0.53379 0.0
H2116 H 0.04068 0.41582 0.55378 0.0
H2117 H 0.06592 0.40032 0.50802 0.0
H2118 H 0.98657 0.37818 0.5189 0.0
H2119 H 0.96368 0.36375 0.53597 0.0
H2120 H 0.99569 0.33869 0.55011 0.0
H2121 H 0.01863 0.35273 0.53303 0.0
C2122 C 0.01457 0.39345 0.46077 0.0
C2123 C 0.99857 0.37654 0.45667 0.0
C2124 C 0.02275 0.39419 0.47221 0.0
C2125 C 0.01556 0.37789 0.4797 0.0
C2126 C 0.99978 0.36083 0.4755 0.0
C2127 C 0.99129 0.36019 0.46413 0.0
C2128 C 0.02376 0.37918 0.49222 0.0
C2129 C 0.01135 0.37218 0.50234 0.0
C2130 C 0.04372 0.38859 0.49434 0.0
C2131 C 0.05766 0.39444 0.48408 0.0
C2132 C 0.05576 0.38117 0.47504 0.0
C2133 C 0.06881 0.38674 0.46535 0.0
C2134 C 0.0839 0.40553 0.46462 0.0
C2135 C 0.08599 0.41878 0.47361 0.0
C2136 C 0.07297 0.41329 0.48332 0.0
C2137 C 0.07086 0.40024 0.54461 0.0
C2138 C 0.06316 0.40875 0.55221 0.0
C2139 C 0.06245 0.3924 0.53323 0.0
C2140 C 0.04632 0.39316 0.52914 0.0
C2141 C 0.03869 0.40168 0.53679 0.0
C2142 C 0.04681 0.40911 0.54825 0.0
C2143 C 0.03821 0.38634 0.5166 0.0
C2144 C 0.05064 0.39233 0.50647 0.0
C2145 C 0.01828 0.3753 0.51447 0.0
C2146 C 0.0044 0.36662 0.52471 0.0
C2147 C 0.98867 0.36949 0.5256 0.0
C2148 C 0.9757 0.36141 0.53529 0.0
C2149 C 0.97825 0.35035 0.54413 0.0
C2150 C 0.99376 0.34731 0.54328 0.0
C2151 C 0.00676 0.35535 0.5336 0.0
H2152 H 0.9682 0.34411 0.55163 0.0
H2153 H 0.09398 0.40982 0.45711 0.0
H2154 H 0.40285 0.40921 0.55626 0.0
H2155 H 0.40572 0.39846 0.53582 0.0
H2156 H 0.35461 0.39818 0.52433 0.0
H2157 H 0.35174 0.40929 0.54479 0.0
H2158 H 0.35964 0.36568 0.51534 0.0
H2159 H 0.39082 0.43457 0.51689 0.0
H2160 H 0.41242 0.46603 0.52606 0.0
H2161 H 0.45967 0.45632 0.52189 0.0
H2162 H 0.43825 0.42464 0.51287 0.0
H2163 H 0.40759 0.40256 0.45093 0.0
H2164 H 0.39602 0.40615 0.4709 0.0
H2165 H 0.39919 0.35787 0.48475 0.0
H2166 H 0.41085 0.35416 0.46471 0.0
H2167 H 0.41588 0.41445 0.49224 0.0
H2168 H 0.36451 0.3369 0.50777 0.0
H2169 H 0.34212 0.30563 0.49863 0.0
H2170 H 0.33371 0.33355 0.46767 0.0
H2171 H 0.35583 0.36496 0.4767 0.0
C2172 C 0.39198 0.40653 0.54949 0.0
C2173 C 0.37712 0.41025 0.55215 0.0
C2174 C 0.39367 0.40038 0.5378 0.0
C2175 C 0.38044 0.39763 0.52856 0.0
C2176 C 0.36493 0.40018 0.53136 0.0
C2177 C 0.36335 0.40658 0.54304 0.0
C2178 C 0.38403 0.39402 0.51574 0.0
C2179 C 0.37191 0.37629 0.51026 0.0
C2180 C 0.39993 0.40799 0.5091 0.0
C2181 C 0.4129 0.42716 0.51432 0.0
C2182 C 0.40578 0.43908 0.51802 0.0
C2183 C 0.41799 0.45696 0.52318 0.0
C2184 C 0.43739 0.46314 0.52459 0.0
C2185 C 0.44463 0.45149 0.5208 0.0
C2186 C 0.43246 0.43358 0.51566 0.0
C2187 C 0.40557 0.39249 0.45815 0.0
C2188 C 0.41023 0.3781 0.45622 0.0
C2189 C 0.399 0.39462 0.46958 0.0
C2190 C 0.39675 0.38232 0.47933 0.0
C2191 C 0.40067 0.36745 0.47733 0.0
C2192 C 0.40736 0.36536 0.46588 0.0
C2193 C 0.39161 0.38596 0.49177 0.0
C2194 C 0.40355 0.40376 0.49725 0.0
C2195 C 0.37548 0.37208 0.49832 0.0
C2196 C 0.36199 0.35328 0.49286 0.0
C2197 C 0.35783 0.33636 0.49903 0.0
C2198 C 0.34519 0.31861 0.49386 0.0
C2199 C 0.33655 0.31761 0.48256 0.0
C2200 C 0.34048 0.33435 0.47641 0.0
C2201 C 0.35309 0.35213 0.48153 0.0
H2202 H 0.32678 0.30385 0.47857 0.0
H2203 H 0.44681 0.47697 0.52861 0.0
H2204 H 0.64397 0.97099 0.54122 0.0
H2205 H 0.65634 0.98681 0.52147 0.0
H2206 H 0.67865 0.04173 0.53903 0.0
H2207 H 0.66564 0.02594 0.55868 0.0
H2208 H 0.66042 0.04148 0.51991 0.0
H2209 H 0.70787 0.02398 0.527 0.0
H2210 H 0.72048 0.0026 0.53191 0.0
H2211 H 0.69258 0.96861 0.50009 0.0
H2212 H 0.67959 0.98964 0.49507 0.0
H2213 H 0.70601 0.09416 0.46626 0.0
H2214 H 0.70357 0.07998 0.48656 0.0
H2215 H 0.66943 0.02374 0.47113 0.0
H2216 H 0.67166 0.03778 0.45084 0.0
H2217 H 0.69624 0.02618 0.4893 0.0
H2218 H 0.64704 0.04289 0.48362 0.0
H2219 H 0.63517 0.0649 0.47876 0.0
H2220 H 0.66803 0.10143 0.50854 0.0
H2221 H 0.68032 0.07976 0.51345 0.0
C2222 C 0.65182 0.98644 0.54091 0.0
C2223 C 0.65378 0.99721 0.55151 0.0
C2224 C 0.65897 0.99551 0.52959 0.0
C2225 C 0.66859 0.01554 0.5287 0.0
C2226 C 0.67124 0.02628 0.53942 0.0
C2227 C 0.66384 0.01723 0.55067 0.0
C2228 C 0.6745 0.02525 0.5165 0.0
C2229 C 0.66861 0.03837 0.51336 0.0
C2230 C 0.68481 0.02097 0.50775 0.0
C2231 C 0.69262 0.0083 0.51072 0.0
C2232 C 0.7043 0.01186 0.5211 0.0
C2233 C 0.71154 0.99982 0.52389 0.0
C2234 C 0.7073 0.98423 0.51633 0.0
C2235 C 0.69584 0.98068 0.50594 0.0
C2236 C 0.68856 0.99267 0.50311 0.0
C2237 C 0.69832 0.07876 0.46713 0.0
C2238 C 0.68891 0.0671 0.45695 0.0
C2239 C 0.69689 0.07069 0.47875 0.0
C2240 C 0.68617 0.05081 0.48037 0.0
C2241 C 0.67777 0.0391 0.47009 0.0
C2242 C 0.67901 0.04716 0.4585 0.0
C2243 C 0.68223 0.04233 0.49289 0.0
C2244 C 0.68833 0.0294 0.49601 0.0
C2245 C 0.67225 0.04686 0.50169 0.0
C2246 C 0.66477 0.05983 0.4988 0.0
C2247 C 0.65186 0.0557 0.48906 0.0
C2248 C 0.64503 0.0681 0.48631 0.0
C2249 C 0.65089 0.08459 0.49331 0.0
C2250 C 0.66354 0.08868 0.50311 0.0
C2251 C 0.67043 0.07634 0.50588 0.0
H2252 H 0.64558 0.09417 0.49117 0.0
H2253 H 0.71291 0.97493 0.51851 0.0
H2254 H 0.96849 0.63742 0.46623 0.0
H2255 H 0.9845 0.64985 0.48592 0.0
H2256 H 0.03925 0.6733 0.46797 0.0
H2257 H 0.02328 0.66022 0.44838 0.0
H2258 H 0.03978 0.65524 0.48697 0.0
H2259 H 0.0207 0.70166 0.48041 0.0
H2260 H 0.99863 0.71355 0.47582 0.0
H2261 H 0.96543 0.68492 0.50776 0.0
H2262 H 0.98716 0.67264 0.51246 0.0
H2263 H 0.09275 0.70152 0.54047 0.0
H2264 H 0.07819 0.69857 0.52024 0.0
H2265 H 0.02232 0.66362 0.53599 0.0
H2266 H 0.03674 0.66636 0.55621 0.0
H2267 H 0.02383 0.69005 0.51797 0.0
H2268 H 0.04215 0.64195 0.52319 0.0
H2269 H 0.0648 0.63077 0.52774 0.0
H2270 H 0.10042 0.66416 0.49778 0.0
H2271 H 0.07809 0.67577 0.49317 0.0
C2272 C 0.98394 0.64553 0.46644 0.0
C2273 C 0.99461 0.6478 0.45574 0.0
C2274 C 0.99312 0.65272 0.47772 0.0
C2275 C 0.01316 0.66268 0.47849 0.0
C2276 C 0.0238 0.66562 0.46768 0.0
C2277 C 0.01464 0.65819 0.45646 0.0
C2278 C 0.02303 0.66869 0.49063 0.0
C2279 C 0.03652 0.66321 0.4936 0.0
C2280 C 0.01857 0.67871 0.4995 0.0
C2281 C 0.00548 0.68609 0.49672 0.0
C2282 C 0.00861 0.69778 0.4864 0.0
C2283 C 0.99618 0.70461 0.48379 0.0
C2284 C 0.98062 0.69996 0.49148 0.0
C2285 C 0.97749 0.6885 0.50181 0.0
C2286 C 0.98987 0.68162 0.50446 0.0
C2287 C 0.07734 0.69351 0.53968 0.0
C2288 C 0.06591 0.68406 0.54993 0.0
C2289 C 0.06905 0.69179 0.52811 0.0
C2290 C 0.04918 0.68073 0.5266 0.0
C2291 C 0.03767 0.67223 0.53695 0.0
C2292 C 0.04596 0.67376 0.54849 0.0
C2293 C 0.0405 0.67665 0.51414 0.0
C2294 C 0.0272 0.68235 0.51118 0.0
C2295 C 0.04521 0.66697 0.50522 0.0
C2296 C 0.05857 0.6599 0.50793 0.0
C2297 C 0.05489 0.64703 0.51764 0.0
C2298 C 0.06766 0.6406 0.52022 0.0
C2299 C 0.08407 0.6468 0.51308 0.0
C2300 C 0.08772 0.6594 0.50332 0.0
C2301 C 0.07501 0.66591 0.50072 0.0
H2302 H 0.09394 0.6418 0.51509 0.0
H2303 H 0.97101 0.70526 0.48944 0.0
H2304 H 0.03546 0.26904 0.05162 0.0
H2305 H 0.03765 0.2748 0.02965 0.0
H2306 H 0.03392 0.3256 0.03545 0.0
H2307 H 0.03091 0.31942 0.0577 0.0
H2308 H 0.01282 0.30712 0.01659 0.0
H2309 H 0.07695 0.328 0.02697 0.0
H2310 H 0.104 0.32719 0.03678 0.0
H2311 H 0.0914 0.27694 0.0162 0.0
H2312 H 0.06409 0.27727 0.00639 0.0
H2313 H 0.0386 0.32212 0.95061 0.0
H2314 H 0.03994 0.32781 0.97291 0.0
H2315 H 0.02618 0.2698 0.97963 0.0
H2316 H 0.02443 0.26386 0.95761 0.0
H2317 H 0.06064 0.30032 0.9919 0.0
H2318 H 0.99313 0.27852 0.98421 0.0
H2319 H 0.96714 0.28126 0.97436 0.0
H2320 H 0.98905 0.33727 0.98972 0.0
H2321 H 0.01533 0.33496 0.99953 0.0
C2322 C 0.03527 0.28157 0.0483 0.0
C2323 C 0.03317 0.29386 0.05647 0.0
C2324 C 0.03663 0.28491 0.03567 0.0
C2325 C 0.03642 0.3009 0.03084 0.0
C2326 C 0.03427 0.31324 0.03895 0.0
C2327 C 0.03262 0.30973 0.05166 0.0
C2328 C 0.0378 0.30404 0.01729 0.0
C2329 C 0.02357 0.30608 0.01122 0.0
C2330 C 0.05185 0.30281 0.01019 0.0
C2331 C 0.0684 0.30262 0.01598 0.0
C2332 C 0.07988 0.31671 0.02458 0.0
C2333 C 0.09527 0.31634 0.03014 0.0
C2334 C 0.0994 0.30201 0.02713 0.0
C2335 C 0.08818 0.28804 0.01852 0.0
C2336 C 0.07276 0.28833 0.01294 0.0
C2337 C 0.03564 0.31053 0.95685 0.0
C2338 C 0.03143 0.29254 0.95229 0.0
C2339 C 0.03642 0.31381 0.96957 0.0
C2340 C 0.03326 0.29924 0.97788 0.0
C2341 C 0.02874 0.28125 0.97336 0.0
C2342 C 0.02767 0.27788 0.96073 0.0
C2343 C 0.03528 0.30257 0.99134 0.0
C2344 C 0.05021 0.3018 0.99734 0.0
C2345 C 0.02214 0.30535 0.99832 0.0
C2346 C 0.00633 0.30667 0.99245 0.0
C2347 C 0.99252 0.2915 0.98538 0.0
C2348 C 0.97771 0.29296 0.97983 0.0
C2349 C 0.97648 0.30946 0.98137 0.0
C2350 C 0.99004 0.32452 0.98851 0.0
C2351 C 0.00488 0.32314 0.99406 0.0
H2352 H 0.96501 0.31056 0.97708 0.0
H2353 H 0.11132 0.30174 0.03145 0.0
H2354 H 0.73043 0.74563 0.95239 0.0
H2355 H 0.72422 0.73994 0.9745 0.0
H2356 H 0.78431 0.76239 0.98102 0.0
H2357 H 0.79054 0.76769 0.9591 0.0
H2358 H 0.7647 0.73371 0.99598 0.0
H2359 H 0.76322 0.79046 0.98359 0.0
H2360 H 0.75141 0.80843 0.97171 0.0
H2361 H 0.69519 0.77306 0.98646 0.0
H2362 H 0.70664 0.75473 0.99832 0.0
H2363 H 0.7714 0.79184 0.05293 0.0
H2364 H 0.76574 0.78591 0.03097 0.0
H2365 H 0.73685 0.72522 0.03752 0.0
H2366 H 0.74274 0.73105 0.05963 0.0
H2367 H 0.73591 0.76839 0.01608 0.0
H2368 H 0.74917 0.7049 0.01392 0.0
H2369 H 0.7654 0.69109 0.02575 0.0
H2370 H 0.80494 0.7465 0.04014 0.0
H2371 H 0.78909 0.76064 0.02827 0.0
C2372 C 0.74226 0.74901 0.95852 0.0
C2373 C 0.76102 0.75731 0.95396 0.0
C2374 C 0.7387 0.74584 0.97117 0.0
C2375 C 0.75384 0.751 0.97947 0.0
C2376 C 0.77238 0.75829 0.97484 0.0
C2377 C 0.77593 0.76141 0.96226 0.0
C2378 C 0.75089 0.75027 0.99302 0.0
C2379 C 0.75813 0.74104 1.00036 0.0
C2380 C 0.74261 0.76008 0.9988 0.0
C2381 C 0.73572 0.77108 0.99171 0.0
C2382 C 0.74831 0.78643 0.98422 0.0
C2383 C 0.74169 0.79669 0.97751 0.0
C2384 C 0.72254 0.79185 0.9783 0.0
C2385 C 0.71 0.77676 0.98583 0.0
C2386 C 0.71654 0.76644 0.99255 0.0
C2387 C 0.76363 0.7772 0.04976 0.0
C2388 C 0.7577 0.76192 0.05806 0.0
C2389 C 0.76032 0.77383 0.03717 0.0
C2390 C 0.75107 0.75513 0.03255 0.0
C2391 C 0.74423 0.73979 0.04085 0.0
C2392 C 0.74754 0.74315 0.0535 0.0
C2393 C 0.74993 0.75203 0.01902 0.0
C2394 C 0.74196 0.76056 0.0117 0.0
C2395 C 0.75805 0.74206 0.01324 0.0
C2396 C 0.76778 0.73375 0.02034 0.0
C2397 C 0.76134 0.71411 0.0196 0.0
C2398 C 0.77047 0.70624 0.02631 0.0
C2399 C 0.78614 0.71789 0.03373 0.0
C2400 C 0.79275 0.73747 0.03443 0.0
C2401 C 0.78369 0.74542 0.02772 0.0
H2402 H 0.79318 0.71177 0.03893 0.0
H2403 H 0.71744 0.79981 0.97309 0.0
H2404 H 0.32273 0.02749 0.95211 0.0
H2405 H 0.32812 0.0297 0.9744 0.0
H2406 H 0.27936 0.03717 0.97961 0.0
H2407 H 0.27443 0.03576 0.95755 0.0
H2408 H 0.30561 0.06003 0.99402 0.0
H2409 H 0.27905 0.993 0.98413 0.0
H2410 H 0.2783 0.96555 0.97371 0.0
H2411 H 0.33244 0.98008 0.98968 0.0
H2412 H 0.3336 0.00775 1.00009 0.0
H2413 H 0.26698 0.02363 0.05176 0.0
H2414 H 0.27309 0.02443 0.0298 0.0
H2415 H 0.33106 0.03859 0.03708 0.0
H2416 H 0.3252 0.03816 0.05931 0.0
H2417 H 0.30745 0.00799 0.01699 0.0
H2418 H 0.33024 0.07321 0.02926 0.0
H2419 H 0.32775 0.09855 0.04022 0.0
H2420 H 0.27712 0.08519 0.01983 0.0
H2421 H 0.27915 0.05955 0.00889 0.0
C2422 C 0.31327 0.02975 0.95802 0.0
C2423 C 0.29815 0.03145 0.95301 0.0
C2424 C 0.31629 0.0309 0.97078 0.0
C2425 C 0.30401 0.03338 0.97877 0.0
C2426 C 0.28912 0.03534 0.97371 0.0
C2427 C 0.28628 0.03448 0.96103 0.0
C2428 C 0.30621 0.03377 0.9924 0.0
C2429 C 0.30601 0.04861 0.99899 0.0
C2430 C 0.30722 0.01917 0.999 0.0
C2431 C 0.30653 0.00256 0.99275 0.0
C2432 C 0.29086 0.99042 0.98534 0.0
C2433 C 0.29035 0.97481 0.97945 0.0
C2434 C 0.30535 0.97111 0.98099 0.0
C2435 C 0.32086 0.98299 0.98847 0.0
C2436 C 0.32145 0.99863 0.99437 0.0
C2437 C 0.28101 0.02671 0.04878 0.0
C2438 C 0.29564 0.03094 0.05735 0.0
C2439 C 0.28446 0.02716 0.03619 0.0
C2440 C 0.30253 0.03166 0.03184 0.0
C2441 C 0.317 0.03507 0.04029 0.0
C2442 C 0.31363 0.03486 0.05297 0.0
C2443 C 0.30625 0.03388 0.01843 0.0
C2444 C 0.30751 0.01958 0.01194 0.0
C2445 C 0.3059 0.04879 0.01188 0.0
C2446 C 0.30479 0.06438 0.01832 0.0
C2447 C 0.3185 0.07558 0.02718 0.0
C2448 C 0.31718 0.09001 0.03338 0.0
C2449 C 0.30227 0.09346 0.03074 0.0
C2450 C 0.28867 0.0825 0.02187 0.0
C2451 C 0.28991 0.06804 0.01566 0.0
H2452 H 0.30126 0.10463 0.03555 0.0
H2453 H 0.30492 0.95902 0.97643 0.0
H2454 H 0.03292 0.74146 0.95075 0.0
H2455 H 0.03284 0.73688 0.97312 0.0
H2456 H 0.03372 0.78999 0.97903 0.0
H2457 H 0.03339 0.79449 0.9569 0.0
H2458 H 0.06292 0.785 0.99207 0.0
H2459 H 0.99447 0.75296 0.98359 0.0
H2460 H 0.96508 0.72845 0.97349 0.0
H2461 H 0.97321 0.68429 0.98912 0.0
H2462 H 0.00283 0.70858 0.99918 0.0
H2463 H 0.04061 0.7973 0.05154 0.0
H2464 H 0.04283 0.79333 0.02962 0.0
H2465 H 0.026 0.73417 0.0352 0.0
H2466 H 0.02315 0.73792 0.05738 0.0
H2467 H 0.00751 0.73715 0.01619 0.0
H2468 H 0.07262 0.76765 0.02724 0.0
H2469 H 0.10258 0.79108 0.03732 0.0
H2470 H 0.1026 0.83639 0.01675 0.0
H2471 H 0.07248 0.81327 0.00668 0.0
C2472 C 0.03292 0.75206 0.95683 0.0
C2473 C 0.03315 0.76833 0.95202 0.0
C2474 C 0.03288 0.74942 0.96958 0.0
C2475 C 0.03335 0.76315 0.9777 0.0
C2476 C 0.03342 0.77927 0.97292 0.0
C2477 C 0.03313 0.78175 0.96025 0.0
C2478 C 0.03426 0.76125 0.9912 0.0
C2479 C 0.05083 0.77458 0.99738 0.0
C2480 C 0.01877 0.74712 0.99804 0.0
C2481 C 1.00099 0.73257 0.99199 0.0
C2482 C 0.9901 0.73803 0.98477 0.0
C2483 C 0.97338 0.72418 0.97907 0.0
C2484 C 0.96732 0.70482 0.98062 0.0
C2485 C 0.97795 0.69928 0.9879 0.0
C2486 C 0.9947 0.71308 0.99361 0.0
C2487 C 0.03753 0.78344 0.0482 0.0
C2488 C 0.03177 0.76795 0.05629 0.0
C2489 C 0.03892 0.78122 0.0356 0.0
C2490 C 0.03494 0.76354 0.03072 0.0
C2491 C 0.02926 0.74799 0.03875 0.0
C2492 C 0.02771 0.75018 0.05143 0.0
C2493 C 0.03598 0.76143 0.01718 0.0
C2494 C 0.01983 0.74735 0.01095 0.0
C2495 C 0.05202 0.77469 0.01025 0.0
C2496 C 0.07021 0.7887 0.01624 0.0
C2497 C 0.07894 0.78262 0.02492 0.0
C2498 C 0.09597 0.79585 0.03063 0.0
C2499 C 0.10447 0.81522 0.02769 0.0
C2500 C 0.09599 0.82138 0.01902 0.0
C2501 C 0.07896 0.80822 0.01329 0.0
H2502 H 0.11765 0.82544 0.03212 0.0
H2503 H 0.95436 0.69412 0.97621 0.0
H2504 H 0.26574 0.28608 0.0516 0.0
H2505 H 0.27084 0.29096 0.02953 0.0
H2506 H 0.33175 0.32019 0.03514 0.0
H2507 H 0.32677 0.3151 0.05736 0.0
H2508 H 0.28796 0.32056 0.01424 0.0
H2509 H 0.35123 0.30721 0.01137 0.0
H2510 H 0.36561 0.2915 0.02318 0.0
H2511 H 0.31082 0.25229 0.03853 0.0
H2512 H 0.29612 0.26762 0.0267 0.0
H2513 H 0.31122 0.32617 0.95054 0.0
H2514 H 0.31651 0.33197 0.9727 0.0
H2515 H 0.2923 0.27157 0.97893 0.0
H2516 H 0.28725 0.26569 0.95693 0.0
H2517 H 0.32184 0.29112 0.99389 0.0
H2518 H 0.26534 0.29319 0.98169 0.0
H2519 H 0.24756 0.30529 0.96989 0.0
H2520 H 0.28332 0.36137 0.98475 0.0
H2521 H 0.30147 0.34963 0.99652 0.0
C2522 C 0.28026 0.29375 0.0482 0.0
C2523 C 0.29585 0.30002 0.05628 0.0
C2524 C 0.28315 0.29661 0.03554 0.0
C2525 C 0.30166 0.30574 0.03063 0.0
C2526 C 0.31732 0.31289 0.0387 0.0
C2527 C 0.31444 0.31004 0.05141 0.0
C2528 C 0.30428 0.30648 0.01706 0.0
C2529 C 0.2956 0.31436 0.0098 0.0
C2530 C 0.31402 0.29818 0.01122 0.0
C2531 C 0.32266 0.28873 0.01828 0.0
C2532 C 0.34227 0.29522 0.01725 0.0
C2533 C 0.35047 0.28638 0.02394 0.0
C2534 C 0.33915 0.27096 0.03164 0.0
C2535 C 0.31959 0.26429 0.03261 0.0
C2536 C 0.31132 0.27306 0.02592 0.0
C2537 C 0.30733 0.31416 0.95661 0.0
C2538 C 0.29865 0.29544 0.95194 0.0
C2539 C 0.31028 0.31749 0.96929 0.0
C2540 C 0.30457 0.30218 0.97751 0.0
C2541 C 0.29682 0.28362 0.97279 0.0
C2542 C 0.29386 0.28028 0.96018 0.0
C2543 C 0.30538 0.30505 0.99106 0.0
C2544 C 0.31466 0.2978 0.99832 0.0
C2545 C 0.29581 0.31354 0.9969 0.0
C2546 C 0.2849 0.3206 0.98986 0.0
C2547 C 0.2695 0.30813 0.98236 0.0
C2548 C 0.25934 0.31492 0.9757 0.0
C2549 C 0.26435 0.33411 0.97654 0.0
C2550 C 0.27949 0.34653 0.98408 0.0
C2551 C 0.28971 0.33982 0.99075 0.0
H2552 H 0.25646 0.33933 0.97137 0.0
H2553 H 0.34553 0.26415 0.03682 0.0
H2554 H 0.73099 0.01031 0.95148 0.0
H2555 H 0.72468 0.01126 0.97344 0.0
H2556 H 0.78488 0.04819 0.97992 0.0
H2557 H 0.79126 0.04751 0.95811 0.0
H2558 H 0.73629 0.99847 0.99222 0.0
H2559 H 0.79253 0.07736 1.00371 0.0
H2560 H 0.80626 0.10912 0.99407 0.0
H2561 H 0.75601 0.08962 0.97188 0.0
H2562 H 0.74185 0.05782 0.9815 0.0
H2563 H 0.77301 0.01158 0.05212 0.0
H2564 H 0.7666 0.01042 0.03017 0.0
H2565 H 0.73792 0.04262 0.03587 0.0
H2566 H 0.74447 0.04403 0.05798 0.0
H2567 H 0.76304 0.05742 0.01741 0.0
H2568 H 0.71236 0.99585 0.02767 0.0
H2569 H 0.69677 0.96399 0.03728 0.0
H2570 H 0.73177 0.9487 0.01596 0.0
H2571 H 0.74778 0.98057 0.00634 0.0
C2572 C 0.74284 0.0189 0.95755 0.0
C2573 C 0.76164 0.02881 0.95301 0.0
C2574 C 0.73921 0.01936 0.97011 0.0
C2575 C 0.75427 0.0299 0.97834 0.0
C2576 C 0.77297 0.0402 0.97376 0.0
C2577 C 0.77661 0.03971 0.96125 0.0
C2578 C 0.75083 0.02919 0.99183 0.0
C2579 C 0.74198 0.01136 0.99772 0.0
C2580 C 0.75786 0.04597 0.99902 0.0
C2581 C 0.76618 0.06515 0.99329 0.0
C2582 C 0.78436 0.07987 0.99683 0.0
C2583 C 0.79223 0.09788 0.99135 0.0
C2584 C 0.78203 0.10137 0.98235 0.0
C2585 C 0.76392 0.08687 0.97883 0.0
C2586 C 0.75598 0.06885 0.98428 0.0
C2587 C 0.76512 0.01823 0.04877 0.0
C2588 C 0.75929 0.02794 0.05684 0.0
C2589 C 0.76137 0.01747 0.03619 0.0
C2590 C 0.75165 0.0263 0.03135 0.0
C2591 C 0.74542 0.03566 0.03939 0.0
C2592 C 0.74909 0.03637 0.05204 0.0
C2593 C 0.74922 0.02674 0.01781 0.0
C2594 C 0.75703 0.04452 0.01191 0.0
C2595 C 0.74098 0.0099 0.01061 0.0
C2596 C 0.73135 0.99066 0.01633 0.0
C2597 C 0.71683 0.98574 0.02509 0.0
C2598 C 0.7079 0.96767 0.03053 0.0
C2599 C 0.71329 0.95433 0.02724 0.0
C2600 C 0.72761 0.95904 0.01849 0.0
C2601 C 0.73659 0.9771 0.01303 0.0
H2602 H 0.70636 0.94035 0.03147 0.0
H2603 H 0.78816 0.11532 0.97812 0.0
H2604 H 0.69879 0.65449 0.2851 0.0
H2605 H 0.69714 0.65881 0.3073 0.0
H2606 H 0.68576 0.60137 0.31354 0.0
H2607 H 0.68666 0.59675 0.29155 0.0
H2608 H 0.66473 0.60758 0.32814 0.0
H2609 H 0.73162 0.64307 0.31692 0.0
H2610 H 0.75967 0.66771 0.30573 0.0
H2611 H 0.75023 0.71132 0.32086 0.0
H2612 H 0.72197 0.68688 0.33204 0.0
H2613 H 0.70375 0.60612 0.38523 0.0
H2614 H 0.70185 0.61042 0.36323 0.0
H2615 H 0.69058 0.65631 0.37018 0.0
H2616 H 0.69207 0.65188 0.39245 0.0
H2617 H 0.72017 0.66039 0.34952 0.0
H2618 H 0.6549 0.62266 0.36329 0.0
H2619 H 0.62897 0.59652 0.37509 0.0
H2620 H 0.63755 0.55549 0.35532 0.0
H2621 H 0.66375 0.58141 0.34354 0.0
C2622 C 0.69574 0.64274 0.29121 0.0
C2623 C 0.69292 0.6253 0.28651 0.0
C2624 C 0.69492 0.64526 0.30391 0.0
C2625 C 0.69159 0.63051 0.31216 0.0
C2626 C 0.6883 0.61298 0.30742 0.0
C2627 C 0.68888 0.61038 0.29479 0.0
C2628 C 0.69199 0.63315 0.32574 0.0
C2629 C 0.67687 0.61918 0.33277 0.0
C2630 C 0.70761 0.64848 0.33188 0.0
C2631 C 0.72456 0.66315 0.32517 0.0
C2632 C 0.73545 0.6579 0.31778 0.0
C2633 C 0.75139 0.67183 0.31145 0.0
C2634 C 0.75669 0.69106 0.31255 0.0
C2635 C 0.74608 0.69642 0.32 0.0
C2636 C 0.7301 0.68254 0.32633 0.0
C2637 C 0.7011 0.61732 0.38216 0.0
C2638 C 0.69798 0.62861 0.39065 0.0
C2639 C 0.69999 0.61972 0.36955 0.0
C2640 C 0.69597 0.63358 0.36511 0.0
C2641 C 0.69369 0.64552 0.37347 0.0
C2642 C 0.69453 0.64294 0.38617 0.0
C2643 C 0.69319 0.6346 0.35174 0.0
C2644 C 0.70785 0.64915 0.34481 0.0
C2645 C 0.67732 0.61965 0.34566 0.0
C2646 C 0.66138 0.604 0.3526 0.0
C2647 C 0.65136 0.60807 0.36153 0.0
C2648 C 0.6366 0.5933 0.3682 0.0
C2649 C 0.63164 0.57436 0.36597 0.0
C2650 C 0.64141 0.57016 0.35704 0.0
C2651 C 0.6562 0.58489 0.35035 0.0
H2652 H 0.62021 0.56294 0.37114 0.0
H2653 H 0.76904 0.70183 0.30765 0.0
H2654 H 0.44151 0.12489 0.3851 0.0
H2655 H 0.4347 0.11876 0.36326 0.0
H2656 H 0.40735 0.05816 0.36987 0.0
H2657 H 0.41436 0.0642 0.39189 0.0
H2658 H 0.43188 0.0682 0.35113 0.0
H2659 H 0.38075 0.07842 0.36153 0.0
H2660 H 0.36512 0.09469 0.3711 0.0
H2661 H 0.39912 0.14444 0.34907 0.0
H2662 H 0.41514 0.12857 0.33948 0.0
H2663 H 0.39781 0.08045 0.28519 0.0
H2664 H 0.392 0.07354 0.30722 0.0
H2665 H 0.45251 0.09862 0.31333 0.0
H2666 H 0.45841 0.10542 0.29145 0.0
H2667 H 0.40362 0.09875 0.32574 0.0
H2668 H 0.46115 0.07784 0.33722 0.0
H2669 H 0.47522 0.06005 0.32768 0.0
H2670 H 0.42465 0.02798 0.30598 0.0
H2671 H 0.41015 0.04537 0.31551 0.0
C2672 C 0.43383 0.11021 0.38198 0.0
C2673 C 0.42852 0.09503 0.39029 0.0
C2674 C 0.42986 0.10673 0.36946 0.0
C2675 C 0.42036 0.08799 0.3649 0.0
C2676 C 0.41465 0.07274 0.37318 0.0
C2677 C 0.4186 0.07622 0.38577 0.0
C2678 C 0.41759 0.08462 0.35141 0.0
C2679 C 0.42554 0.07472 0.34559 0.0
C2680 C 0.40893 0.09274 0.34416 0.0
C2681 C 0.39921 0.10232 0.34982 0.0
C2682 C 0.38497 0.09287 0.35877 0.0
C2683 C 0.37603 0.10202 0.36419 0.0
C2684 C 0.38114 0.12059 0.3607 0.0
C2685 C 0.39517 0.13005 0.35176 0.0
C2686 C 0.40416 0.12097 0.34631 0.0
C2687 C 0.40985 0.08418 0.29119 0.0
C2688 C 0.42859 0.09353 0.28653 0.0
C2689 C 0.4065 0.08029 0.30379 0.0
C2690 C 0.4218 0.08545 0.31194 0.0
C2691 C 0.44044 0.09424 0.30723 0.0
C2692 C 0.4438 0.09821 0.29469 0.0
C2693 C 0.41862 0.08302 0.32545 0.0
C2694 C 0.40963 0.0919 0.33128 0.0
C2695 C 0.42609 0.07373 0.3327 0.0
C2696 C 0.43461 0.06301 0.32704 0.0
C2697 C 0.45298 0.06692 0.33047 0.0
C2698 C 0.46104 0.05692 0.32505 0.0
C2699 C 0.45085 0.04293 0.31621 0.0
C2700 C 0.43255 0.03887 0.3128 0.0
C2701 C 0.42442 0.04881 0.31819 0.0
H2702 H 0.45713 0.03521 0.31202 0.0
H2703 H 0.37421 0.12766 0.36492 0.0
H2704 H 0.94282 0.33755 0.38542 0.0
H2705 H 0.9489 0.33829 0.3633 0.0
H2706 H 0.00211 0.39089 0.36776 0.0
H2707 H 0.99646 0.38997 0.38999 0.0
H2708 H 0.9673 0.38571 0.34965 0.0
H2709 H 0.01251 0.3647 0.36018 0.0
H2710 H 0.0213 0.34296 0.37039 0.0
H2711 H 0.97736 0.29551 0.35043 0.0
H2712 H 0.96812 0.31695 0.34025 0.0
H2713 H 0.98444 0.39646 0.28622 0.0
H2714 H 0.99061 0.39776 0.30834 0.0
H2715 H 0.9639 0.33628 0.30919 0.0
H2716 H 0.95945 0.33528 0.28691 0.0
H2717 H 0.98853 0.34781 0.32535 0.0
H2718 H 0.94022 0.36403 0.31652 0.0
H2719 H 0.92637 0.38199 0.30692 0.0
H2720 H 0.96913 0.43355 0.32411 0.0
H2721 H 0.98337 0.41592 0.3337 0.0
C2722 C 0.95602 0.34906 0.38174 0.0
C2723 C 0.96917 0.3637 0.38945 0.0
C2724 C 0.95946 0.34944 0.36911 0.0
C2725 C 0.97595 0.36461 0.36395 0.0
C2726 C 0.98937 0.37899 0.37163 0.0
C2727 C 0.98614 0.3784 0.38431 0.0
C2728 C 0.97812 0.36629 0.35042 0.0
C2729 C 0.97231 0.37775 0.3443 0.0
C2730 C 0.98386 0.35525 0.34351 0.0
C2731 C 0.9895 0.3424 0.34956 0.0
C2732 C 0.00459 0.3496 0.35807 0.0
C2733 C 0.00969 0.33734 0.36383 0.0
C2734 C 0.99986 0.31786 0.36109 0.0
C2735 C 0.98495 0.3106 0.35256 0.0
C2736 C 0.97979 0.32281 0.34679 0.0
C2737 C 0.98036 0.38332 0.29114 0.0
C2738 C 0.9715 0.36578 0.28493 0.0
C2739 C 0.98364 0.384 0.30381 0.0
C2740 C 0.97712 0.36706 0.31063 0.0
C2741 C 0.96904 0.3496 0.30425 0.0
C2742 C 0.96647 0.349 0.29151 0.0
C2743 C 0.97768 0.36734 0.32438 0.0
C2744 C 0.9838 0.35608 0.3306 0.0
C2745 C 0.97156 0.37809 0.33141 0.0
C2746 C 0.96298 0.3887 0.32571 0.0
C2747 C 0.94673 0.37922 0.31819 0.0
C2748 C 0.9388 0.38933 0.31276 0.0
C2749 C 0.9469 0.40891 0.31487 0.0
C2750 C 0.9629 0.41839 0.32246 0.0
C2751 C 0.9709 0.40835 0.3279 0.0
H2752 H 0.94075 0.41672 0.31066 0.0
H2753 H 0.00383 0.30839 0.36555 0.0
H2754 H 0.68054 0.06546 0.39049 0.0
H2755 H 0.68064 0.05982 0.36835 0.0
H2756 H 0.71857 0.12003 0.36255 0.0
H2757 H 0.71861 0.12577 0.38454 0.0
H2758 H 0.66777 0.07333 0.35032 0.0
H2759 H 0.74716 0.12712 0.33826 0.0
H2760 H 0.77904 0.13898 0.34739 0.0
H2761 H 0.75783 0.08754 0.36857 0.0
H2762 H 0.7259 0.07525 0.35945 0.0
H2763 H 0.67997 0.11211 0.29118 0.0
H2764 H 0.67942 0.10493 0.31294 0.0
H2765 H 0.70985 0.0749 0.30548 0.0
H2766 H 0.71078 0.08236 0.28355 0.0
H2767 H 0.7257 0.09858 0.32424 0.0
H2768 H 0.66262 0.05045 0.31423 0.0
H2769 H 0.63054 0.03682 0.30509 0.0
H2770 H 0.61863 0.07285 0.32798 0.0
H2771 H 0.65074 0.08691 0.33714 0.0
C2772 C 0.68917 0.07745 0.38453 0.0
C2773 C 0.69953 0.09608 0.38931 0.0
C2774 C 0.68914 0.07421 0.37186 0.0
C2775 C 0.69969 0.08948 0.36378 0.0
C2776 C 0.71052 0.10798 0.3686 0.0
C2777 C 0.71046 0.11124 0.3812 0.0
C2778 C 0.69839 0.08652 0.35024 0.0
C2779 C 0.68041 0.07869 0.34461 0.0
C2780 C 0.71485 0.09311 0.34279 0.0
C2781 C 0.73409 0.10032 0.34822 0.0
C2782 C 0.74932 0.11829 0.34482 0.0
C2783 C 0.76739 0.1251 0.35 0.0
C2784 C 0.77044 0.11404 0.35857 0.0
C2785 C 0.75543 0.09612 0.36196 0.0
C2786 C 0.73734 0.08924 0.3568 0.0
C2787 C 0.68637 0.10377 0.29409 0.0
C2788 C 0.69545 0.09784 0.28557 0.0
C2789 C 0.68594 0.09957 0.30657 0.0
C2790 C 0.69442 0.08919 0.31087 0.0
C2791 C 0.70317 0.08288 0.30238 0.0
C2792 C 0.70361 0.08709 0.28984 0.0
C2793 C 0.69513 0.08612 0.32432 0.0
C2794 C 0.71301 0.0929 0.32993 0.0
C2795 C 0.67854 0.0783 0.33176 0.0
C2796 C 0.65914 0.0698 0.32633 0.0
C2797 C 0.6532 0.05556 0.31727 0.0
C2798 C 0.63501 0.04774 0.31209 0.0
C2799 C 0.62257 0.05398 0.31594 0.0
C2800 C 0.62828 0.06803 0.325 0.0
C2801 C 0.64647 0.0759 0.33021 0.0
H2802 H 0.60849 0.04792 0.31191 0.0
H2803 H 0.78445 0.11935 0.36258 0.0
H2804 H 0.99045 0.65088 0.39065 0.0
H2805 H 0.99631 0.6564 0.3684 0.0
H2806 H 0.93999 0.60932 0.36102 0.0
H2807 H 0.93381 0.60399 0.38299 0.0
H2808 H 0.97467 0.61006 0.34893 0.0
H2809 H 0.94275 0.64722 0.35669 0.0
H2810 H 0.94059 0.67337 0.36679 0.0
H2811 H 0.99546 0.7141 0.35227 0.0
H2812 H 0.99805 0.68812 0.34222 0.0
H2813 H 0.94133 0.59992 0.28947 0.0
H2814 H 0.94743 0.60385 0.31139 0.0
H2815 H 0.9926 0.66183 0.30562 0.0
H2816 H 0.98605 0.65818 0.28342 0.0
H2817 H 0.97229 0.66077 0.32467 0.0
H2818 H 0.0025 0.62588 0.31382 0.0
H2819 H 0.00673 0.60092 0.3038 0.0
H2820 H 0.95948 0.55772 0.32427 0.0
H2821 H 0.95477 0.58238 0.3343 0.0
C2822 C 0.97925 0.64187 0.38427 0.0
C2823 C 0.96166 0.627 0.38862 0.0
C2824 C 0.98263 0.64504 0.3716 0.0
C2825 C 0.96859 0.6332 0.36312 0.0
C2826 C 0.951 0.61857 0.36744 0.0
C2827 C 0.94749 0.61562 0.38002 0.0
C2828 C 0.97214 0.63526 0.3497 0.0
C2829 C 0.97417 0.62113 0.34358 0.0
C2830 C 0.97232 0.65018 0.34284 0.0
C2831 C 0.97071 0.66572 0.34886 0.0
C2832 C 0.95444 0.66173 0.35577 0.0
C2833 C 0.95312 0.67652 0.36145 0.0
C2834 C 0.96791 0.69538 0.36021 0.0
C2835 C 0.98404 0.69949 0.35325 0.0
C2836 C 0.98544 0.68474 0.34756 0.0
C2837 C 0.95271 0.61351 0.29277 0.0
C2838 C 0.96328 0.62871 0.28462 0.0
C2839 C 0.95627 0.6157 0.30537 0.0
C2840 C 0.97077 0.63301 0.3102 0.0
C2841 C 0.98142 0.64828 0.30212 0.0
C2842 C 0.97771 0.64616 0.28943 0.0
C2843 C 0.97399 0.63502 0.32375 0.0
C2844 C 0.97327 0.64991 0.32994 0.0
C2845 C 0.97541 0.62097 0.33072 0.0
C2846 C 0.97823 0.60602 0.32478 0.0
C2847 C 0.99293 0.61105 0.31614 0.0
C2848 C 0.99543 0.59695 0.31046 0.0
C2849 C 0.98337 0.57775 0.31338 0.0
C2850 C 0.96882 0.5726 0.32202 0.0
C2851 C 0.96625 0.58665 0.32772 0.0
H2852 H 0.98532 0.56685 0.30897 0.0
H2853 H 0.96686 0.70681 0.36462 0.0
H2854 H 0.41237 0.37948 0.39082 0.0
H2855 H 0.40532 0.37889 0.36885 0.0
H2856 H 0.43206 0.34518 0.36181 0.0
H2857 H 0.43891 0.34549 0.38362 0.0
H2858 H 0.43 0.3936 0.35027 0.0
H2859 H 0.41229 0.31641 0.33768 0.0
H2860 H 0.39563 0.28423 0.34685 0.0
H2861 H 0.36208 0.30018 0.36917 0.0
H2862 H 0.37834 0.33237 0.36002 0.0
H2863 H 0.45723 0.38432 0.29057 0.0
H2864 H 0.45095 0.3847 0.31243 0.0
H2865 H 0.39052 0.34967 0.30581 0.0
H2866 H 0.39672 0.34905 0.2838 0.0
H2867 H 0.40151 0.3355 0.32421 0.0
H2868 H 0.40887 0.39591 0.31465 0.0
H2869 H 0.42374 0.42806 0.30549 0.0
H2870 H 0.47391 0.44556 0.32743 0.0
H2871 H 0.45946 0.41343 0.3366 0.0
C2872 C 0.41644 0.37166 0.38462 0.0
C2873 C 0.42624 0.36255 0.38901 0.0
C2874 C 0.41248 0.37141 0.37205 0.0
C2875 C 0.41803 0.36188 0.36367 0.0
C2876 C 0.42734 0.35237 0.3681 0.0
C2877 C 0.43134 0.35265 0.3806 0.0
C2878 C 0.41542 0.36288 0.3502 0.0
C2879 C 0.4236 0.38089 0.34458 0.0
C2880 C 0.40667 0.3463 0.34276 0.0
C2881 C 0.39664 0.32686 0.34821 0.0
C2882 C 0.40128 0.31303 0.34449 0.0
C2883 C 0.39193 0.29478 0.3497 0.0
C2884 C 0.37784 0.29017 0.3586 0.0
C2885 C 0.37304 0.30378 0.3623 0.0
C2886 C 0.38234 0.32204 0.35712 0.0
C2887 C 0.44256 0.3769 0.2937 0.0
C2888 C 0.42749 0.36661 0.2854 0.0
C2889 C 0.43898 0.37721 0.30623 0.0
C2890 C 0.42024 0.36732 0.31078 0.0
C2891 C 0.40509 0.35744 0.3025 0.0
C2892 C 0.40866 0.35718 0.28991 0.0
C2893 C 0.41683 0.36624 0.32428 0.0
C2894 C 0.40758 0.3482 0.3299 0.0
C2895 C 0.42434 0.3828 0.33172 0.0
C2896 C 0.4331 0.4022 0.32627 0.0
C2897 C 0.42312 0.40657 0.31747 0.0
C2898 C 0.43147 0.4248 0.31228 0.0
C2899 C 0.44976 0.43884 0.31587 0.0
C2900 C 0.45973 0.43468 0.32467 0.0
C2901 C 0.45146 0.41646 0.32988 0.0
H2902 H 0.4562 0.45295 0.31184 0.0
H2903 H 0.37062 0.27605 0.36263 0.0
H2904 H 0.36054 0.93134 0.71914 0.0
H2905 H 0.36293 0.93748 0.6972 0.0
H2906 H 0.36926 0.99295 0.70381 0.0
H2907 H 0.36589 0.98639 0.72604 0.0
H2908 H 0.34769 0.97798 0.6845 0.0
H2909 H 0.40835 0.98742 0.6955 0.0
H2910 H 0.43171 0.98063 0.70543 0.0
H2911 H 0.41101 0.92939 0.68409 0.0
H2912 H 0.38733 0.93572 0.67415 0.0
H2913 H 0.37672 0.99237 0.61898 0.0
H2914 H 0.37703 0.99701 0.64136 0.0
H2915 H 0.35466 0.93677 0.64692 0.0
H2916 H 0.35399 0.93192 0.62483 0.0
H2917 H 0.38973 0.96226 0.66001 0.0
H2918 H 0.32619 0.95278 0.65121 0.0
H2919 H 0.30433 0.96162 0.64124 0.0
H2920 H 0.33392 0.01688 0.65824 0.0
H2921 H 0.35613 0.00844 0.66818 0.0
C2922 C 0.36255 0.94492 0.71598 0.0
C2923 C 0.36329 0.95849 0.72437 0.0
C2924 C 0.36401 0.94847 0.70339 0.0
C2925 C 0.36686 0.96593 0.69879 0.0
C2926 C 0.36726 0.97945 0.70711 0.0
C2927 C 0.36539 0.97572 0.7198 0.0
C2928 C 0.36913 0.96959 0.68529 0.0
C2929 C 0.3572 0.97495 0.67918 0.0
C2930 C 0.38163 0.96581 0.67826 0.0
C2931 C 0.396 0.96202 0.68411 0.0
C2932 C 0.40871 0.97465 0.69297 0.0
C2933 C 0.42202 0.97089 0.6986 0.0
C2934 C 0.42283 0.95458 0.6954 0.0
C2935 C 0.41037 0.94203 0.68655 0.0
C2936 C 0.39703 0.94571 0.6809 0.0
C2937 C 0.3716 0.98008 0.62497 0.0
C2938 C 0.36543 0.96179 0.62007 0.0
C2939 C 0.3718 0.98277 0.63774 0.0
C2940 C 0.36598 0.96723 0.64577 0.0
C2941 C 0.3593 0.94895 0.64088 0.0
C2942 C 0.3589 0.94623 0.62821 0.0
C2943 C 0.36773 0.96976 0.6593 0.0
C2944 C 0.38053 0.96566 0.66539 0.0
C2945 C 0.35636 0.97508 0.66625 0.0
C2946 C 0.34296 0.98007 0.6603 0.0
C2947 C 0.32815 0.96688 0.65272 0.0
C2948 C 0.31567 0.9718 0.6471 0.0
C2949 C 0.31777 0.98982 0.64907 0.0
C2950 C 0.33233 0.00294 0.6567 0.0
C2951 C 0.34486 0.99809 0.66234 0.0
H2952 H 0.30809 0.9936 0.64472 0.0
H2953 H 0.43313 0.95168 0.69978 0.0
H2954 H 0.08468 0.40001 0.72431 0.0
H2955 H 0.08104 0.39557 0.70198 0.0
H2956 H 0.09351 0.4537 0.69776 0.0
H2957 H 0.09766 0.45838 0.71994 0.0
H2958 H 0.06027 0.39811 0.68339 0.0
H2959 H 0.12341 0.4743 0.67427 0.0
H2960 H 0.1526 0.49863 0.68469 0.0
H2961 H 0.15494 0.45487 0.70565 0.0
H2962 H 0.12594 0.43027 0.69523 0.0
H2963 H 0.06665 0.42347 0.61964 0.0
H2964 H 0.06291 0.41926 0.64195 0.0
H2965 H 0.11756 0.42219 0.64432 0.0
H2966 H 0.12169 0.42723 0.62217 0.0
H2967 H 0.11722 0.44486 0.65996 0.0
H2968 H 0.07299 0.37995 0.65009 0.0
H2969 H 0.04531 0.35323 0.6399 0.0
H2970 H 0.00792 0.36986 0.65685 0.0
H2971 H 0.03542 0.39685 0.66703 0.0
C2972 C 0.08629 0.41173 0.71864 0.0
C2973 C 0.09175 0.42964 0.72389 0.0
C2974 C 0.08419 0.40916 0.70587 0.0
C2975 C 0.08741 0.42442 0.69816 0.0
C2976 C 0.09137 0.44183 0.70349 0.0
C2977 C 0.0937 0.44448 0.71619 0.0
C2978 C 0.08835 0.42282 0.68458 0.0
C2979 C 0.07269 0.40831 0.67823 0.0
C2980 C 0.10477 0.4358 0.67787 0.0
C2981 C 0.1224 0.45048 0.68405 0.0
C2982 C 0.13021 0.46987 0.68106 0.0
C2983 C 0.14671 0.48371 0.68697 0.0
C2984 C 0.15559 0.4783 0.69585 0.0
C2985 C 0.14802 0.45904 0.6988 0.0
C2986 C 0.13154 0.44515 0.6929 0.0
C2987 C 0.07767 0.42282 0.62491 0.0
C2988 C 0.09452 0.4258 0.61917 0.0
C2989 C 0.0755 0.42036 0.63768 0.0
C2990 C 0.08995 0.42039 0.6449 0.0
C2991 C 0.10627 0.42228 0.63902 0.0
C2992 C 0.1086 0.4251 0.62633 0.0
C2993 C 0.08901 0.42026 0.6586 0.0
C2994 C 0.10474 0.43455 0.66503 0.0
C2995 C 0.07287 0.40674 0.66534 0.0
C2996 C 0.0563 0.39053 0.65924 0.0
C2997 C 0.05889 0.378 0.65157 0.0
C2998 C 0.04323 0.36279 0.64581 0.0
C2999 C 0.02488 0.35988 0.6477 0.0
C3000 C 0.02215 0.37215 0.65539 0.0
C3001 C 0.03777 0.38739 0.66117 0.0
H3002 H 0.01277 0.34809 0.64323 0.0
H3003 H 0.16834 0.48904 0.70043 0.0
H3004 H 0.66375 0.71754 0.72456 0.0
H3005 H 0.66922 0.71728 0.70239 0.0
H3006 H 0.60921 0.67799 0.69693 0.0
H3007 H 0.60368 0.67798 0.71892 0.0
H3008 H 0.62986 0.66896 0.68217 0.0
H3009 H 0.62781 0.7259 0.69318 0.0
H3010 H 0.63833 0.75605 0.70439 0.0
H3011 H 0.69454 0.77906 0.68913 0.0
H3012 H 0.68439 0.74892 0.67795 0.0
H3013 H 0.61902 0.71542 0.62385 0.0
H3014 H 0.62488 0.71637 0.64585 0.0
H3015 H 0.65655 0.68711 0.64025 0.0
H3016 H 0.65043 0.68579 0.6181 0.0
H3017 H 0.65489 0.73094 0.66056 0.0
H3018 H 0.64695 0.65653 0.66477 0.0
H3019 H 0.63247 0.62586 0.65362 0.0
H3020 H 0.59006 0.63706 0.63841 0.0
H3021 H 0.60415 0.66766 0.64959 0.0
C3022 C 0.65178 0.70859 0.71865 0.0
C3023 C 0.63324 0.69792 0.72352 0.0
C3024 C 0.65492 0.70853 0.70598 0.0
C3025 C 0.63958 0.69779 0.69796 0.0
C3026 C 0.62127 0.68639 0.7029 0.0
C3027 C 0.61812 0.68648 0.71551 0.0
C3028 C 0.64208 0.69932 0.68438 0.0
C3029 C 0.6356 0.68255 0.67746 0.0
C3030 C 0.64931 0.71699 0.67818 0.0
C3031 C 0.65541 0.7351 0.68487 0.0
C3032 C 0.64245 0.73734 0.6923 0.0
C3033 C 0.64834 0.75443 0.69863 0.0
C3034 C 0.66711 0.76944 0.69751 0.0
C3035 C 0.68002 0.76741 0.69002 0.0
C3036 C 0.67421 0.75033 0.68368 0.0
C3037 C 0.62741 0.70934 0.62723 0.0
C3038 C 0.63408 0.70035 0.61918 0.0
C3039 C 0.63083 0.70998 0.63985 0.0
C3040 C 0.64097 0.70163 0.64476 0.0
C3041 C 0.64847 0.69344 0.6367 0.0
C3042 C 0.64502 0.69276 0.62403 0.0
C3043 C 0.64248 0.70055 0.65834 0.0
C3044 C 0.64967 0.7174 0.66527 0.0
C3045 C 0.63546 0.6829 0.66455 0.0
C3046 C 0.62676 0.66447 0.65788 0.0
C3047 C 0.63452 0.65241 0.65906 0.0
C3048 C 0.62638 0.63505 0.65274 0.0
C3049 C 0.6104 0.62955 0.64527 0.0
C3050 C 0.60248 0.64137 0.64415 0.0
C3051 C 0.61055 0.65873 0.65047 0.0
H3052 H 0.60414 0.61611 0.64038 0.0
H3053 H 0.67164 0.78266 0.70241 0.0
H3054 H 0.35365 0.4021 0.725 0.0
H3055 H 0.35297 0.39597 0.70277 0.0
H3056 H 0.36151 0.45202 0.69522 0.0
H3057 H 0.36262 0.45841 0.71714 0.0
H3058 H 0.32939 0.41973 0.68245 0.0
H3059 H 0.39742 0.44729 0.69197 0.0
H3060 H 0.42429 0.44737 0.70272 0.0
H3061 H 0.40787 0.3921 0.68784 0.0
H3062 H 0.38072 0.3916 0.67713 0.0
H3063 H 0.35792 0.45442 0.62386 0.0
H3064 H 0.35438 0.44769 0.6457 0.0
H3065 H 0.36287 0.39968 0.63995 0.0
H3066 H 0.36717 0.40684 0.61782 0.0
H3067 H 0.3819 0.41866 0.65958 0.0
H3068 H 0.31787 0.393 0.64698 0.0
H3069 H 0.29057 0.39168 0.63601 0.0
H3070 H 0.29716 0.43984 0.65664 0.0
H3071 H 0.32468 0.44164 0.66762 0.0
C3072 C 0.35552 0.41314 0.71858 0.0
C3073 C 0.35823 0.43075 0.72287 0.0
C3074 C 0.35512 0.40961 0.70591 0.0
C3075 C 0.3571 0.42353 0.69739 0.0
C3076 C 0.35988 0.44107 0.70165 0.0
C3077 C 0.36061 0.44472 0.71422 0.0
C3078 C 0.35607 0.42011 0.68395 0.0
C3079 C 0.34082 0.41945 0.67742 0.0
C3080 C 0.3706 0.41894 0.67747 0.0
C3081 C 0.38691 0.41929 0.6839 0.0
C3082 C 0.39942 0.43507 0.6911 0.0
C3083 C 0.41473 0.43522 0.69716 0.0
C3084 C 0.41775 0.41972 0.696 0.0
C3085 C 0.40549 0.40408 0.68875 0.0
C3086 C 0.39015 0.40386 0.68268 0.0
C3087 C 0.35892 0.44231 0.62715 0.0
C3088 C 0.36269 0.43108 0.61902 0.0
C3089 C 0.35677 0.4384 0.6397 0.0
C3090 C 0.35788 0.42288 0.64449 0.0
C3091 C 0.36178 0.41164 0.63646 0.0
C3092 C 0.36419 0.41571 0.62382 0.0
C3093 C 0.35556 0.41911 0.65797 0.0
C3094 C 0.37015 0.4184 0.66455 0.0
C3095 C 0.34019 0.41867 0.66452 0.0
C3096 C 0.32341 0.41748 0.6581 0.0
C3097 C 0.31356 0.40336 0.64914 0.0
C3098 C 0.29804 0.40253 0.64292 0.0
C3099 C 0.29215 0.41567 0.64562 0.0
C3100 C 0.30173 0.42966 0.65457 0.0
C3101 C 0.31727 0.43056 0.66082 0.0
H3102 H 0.28014 0.41501 0.64078 0.0
H3103 H 0.42961 0.41986 0.7007 0.0
H3104 H 0.66019 0.96961 0.72222 0.0
H3105 H 0.66378 0.97439 0.69998 0.0
H3106 H 0.61159 0.97662 0.69861 0.0
H3107 H 0.60746 0.97075 0.72072 0.0
H3108 H 0.60928 0.95408 0.68237 0.0
H3109 H 0.65865 0.01675 0.6926 0.0
H3110 H 0.6878 0.04144 0.70282 0.0
H3111 H 0.72063 0.01973 0.68531 0.0
H3112 H 0.69162 0.99474 0.6751 0.0
H3113 H 0.64526 0.99612 0.61771 0.0
H3114 H 0.64885 0.00107 0.64001 0.0
H3115 H 0.63098 0.9416 0.64516 0.0
H3116 H 0.62705 0.93647 0.62302 0.0
H3117 H 0.66827 0.9963 0.659 0.0
H3118 H 0.59929 0.92392 0.66811 0.0
H3119 H 0.56902 0.90219 0.65761 0.0
H3120 H 0.57338 0.94901 0.63644 0.0
H3121 H 0.60352 0.97105 0.64694 0.0
C3122 C 0.64972 0.97154 0.7172 0.0
C3123 C 0.63351 0.96973 0.72319 0.0
C3124 C 0.65181 0.97435 0.70445 0.0
C3125 C 0.63799 0.97595 0.69751 0.0
C3126 C 0.62238 0.97527 0.70367 0.0
C3127 C 0.62007 0.972 0.71634 0.0
C3128 C 0.63871 0.97641 0.68379 0.0
C3129 C 0.62221 0.96344 0.67733 0.0
C3130 C 0.65543 0.98875 0.67705 0.0
C3131 C 0.67292 0.00377 0.68316 0.0
C3132 C 0.67205 0.01715 0.69099 0.0
C3133 C 0.68856 0.03122 0.69677 0.0
C3134 C 0.70605 0.03213 0.69474 0.0
C3135 C 0.70707 0.019 0.68689 0.0
C3136 C 0.69061 0.0049 0.68109 0.0
C3137 C 0.64245 0.98418 0.62358 0.0
C3138 C 0.6356 0.96584 0.61858 0.0
C3139 C 0.64452 0.98704 0.63633 0.0
C3140 C 0.63981 0.97162 0.64427 0.0
C3141 C 0.63434 0.95363 0.63923 0.0
C3142 C 0.63213 0.95074 0.62655 0.0
C3143 C 0.639 0.97377 0.6578 0.0
C3144 C 0.6554 0.98712 0.66415 0.0
C3145 C 0.62203 0.96222 0.66448 0.0
C3146 C 0.60376 0.94909 0.65823 0.0
C3147 C 0.59375 0.92958 0.66125 0.0
C3148 C 0.57662 0.91722 0.65529 0.0
C3149 C 0.56932 0.92421 0.64633 0.0
C3150 C 0.57909 0.9436 0.64335 0.0
C3151 C 0.5962 0.95603 0.64929 0.0
H3152 H 0.55607 0.91461 0.64172 0.0
H3153 H 0.71881 0.04303 0.69922 0.0
H3154 H 0.08805 0.71897 0.72117 0.0
H3155 H 0.0842 0.71775 0.69882 0.0
H3156 H 0.08922 0.6671 0.69755 0.0
H3157 H 0.09397 0.66884 0.71976 0.0
H3158 H 0.11132 0.68974 0.68165 0.0
H3159 H 0.04604 0.66776 0.69117 0.0
H3160 H 0.01884 0.6682 0.70106 0.0
H3161 H 0.03422 0.72142 0.68336 0.0
H3162 H 0.06168 0.72143 0.67348 0.0
H3163 H 0.06603 0.67479 0.6171 0.0
H3164 H 0.06169 0.67454 0.63942 0.0
H3165 H 0.11968 0.72063 0.64329 0.0
H3166 H 0.12429 0.72053 0.62113 0.0
H3167 H 0.06377 0.69781 0.65757 0.0
H3168 H 0.14058 0.71299 0.66724 0.0
H3169 H 0.1654 0.70853 0.65716 0.0
H3170 H 0.12237 0.66127 0.63658 0.0
H3171 H 0.0973 0.66529 0.64666 0.0
C3172 C 0.08796 0.70737 0.71613 0.0
C3173 C 0.09141 0.69406 0.72221 0.0
C3174 C 0.08569 0.70664 0.70333 0.0
C3175 C 0.08636 0.6923 0.69641 0.0
C3176 C 0.0888 0.67842 0.70261 0.0
C3177 C 0.09144 0.67937 0.71534 0.0
C3178 C 0.08627 0.69264 0.68269 0.0
C3179 C 0.10083 0.69144 0.67645 0.0
C3180 C 0.07252 0.69463 0.67576 0.0
C3181 C 0.05602 0.69467 0.68167 0.0
C3182 C 0.04371 0.67963 0.68946 0.0
C3183 C 0.02823 0.67979 0.69505 0.0
C3184 C 0.02483 0.69485 0.69286 0.0
C3185 C 0.03688 0.70977 0.68505 0.0
C3186 C 0.05239 0.70969 0.67945 0.0
C3187 C 0.07774 0.68509 0.62269 0.0
C3188 C 0.09559 0.69749 0.61736 0.0
C3189 C 0.07523 0.68494 0.63545 0.0
C3190 C 0.09049 0.69726 0.64307 0.0
C3191 C 0.10784 0.71066 0.63764 0.0
C3192 C 0.11043 0.71063 0.62495 0.0
C3193 C 0.08891 0.69514 0.65669 0.0
C3194 C 0.07415 0.69606 0.66286 0.0
C3195 C 0.10213 0.69229 0.66359 0.0
C3196 C 0.11709 0.68957 0.65763 0.0
C3197 C 0.13642 0.7016 0.66061 0.0
C3198 C 0.15053 0.69915 0.65489 0.0
C3199 C 0.14547 0.68466 0.64621 0.0
C3200 C 0.12628 0.67253 0.64327 0.0
C3201 C 0.11212 0.67489 0.64898 0.0
H3202 H 0.15641 0.68282 0.64178 0.0
H3203 H 0.01284 0.69495 0.6972 0.0
H3204 H 0.84832 0.07403 0.09925 0.0
H3205 H 0.87855 0.10403 0.10112 0.0
H3206 H 0.8483 0.13533 0.10076 0.0
H3207 H 0.81804 0.10547 0.0988 0.0
H3208 H 0.87797 0.15033 0.08495 0.0
H3209 H 0.86769 0.13043 0.12714 0.0
H3210 H 0.86121 0.10831 0.14443 0.0
H3211 H 0.91233 0.10674 0.13627 0.0
H3212 H 0.91898 0.12865 0.11881 0.0
H3213 H 0.95569 0.24082 0.09972 0.0
H3214 H 0.9253 0.21098 0.10119 0.0
H3215 H 0.95512 0.17926 0.1019 0.0
H3216 H 0.98564 0.20906 0.10061 0.0
H3217 H 0.92559 0.16455 0.11795 0.0
H3218 H 0.93537 0.18326 0.07552 0.0
H3219 H 0.942 0.20502 0.05798 0.0
H3220 H 0.89183 0.20827 0.06633 0.0
H3221 H 0.88505 0.18672 0.08403 0.0
C3222 C 0.84807 0.08727 0.09966 0.0
C3223 C 0.83073 0.08732 0.09885 0.0
C3224 C 0.86537 0.10441 0.10078 0.0
C3225 C 0.86568 0.12191 0.10116 0.0
C3226 C 0.8484 0.12199 0.10049 0.0
C3227 C 0.8311 0.10488 0.0994 0.0
C3228 C 0.88405 0.14021 0.10171 0.0
C3229 C 0.88824 0.15356 0.09228 0.0
C3230 C 0.89768 0.14419 0.11108 0.0
C3231 C 0.89373 0.13104 0.12159 0.0
C3232 C 0.87747 0.12524 0.12896 0.0
C3233 C 0.87378 0.11277 0.13881 0.0
C3234 C 0.88633 0.10608 0.14143 0.0
C3235 C 0.90261 0.11191 0.13422 0.0
C3236 C 0.90636 0.12437 0.12436 0.0
C3237 C 0.95583 0.22753 0.10029 0.0
C3238 C 0.97313 0.22735 0.09994 0.0
C3239 C 0.93843 0.21047 0.10109 0.0
C3240 C 0.93793 0.19287 0.10146 0.0
C3241 C 0.95517 0.19267 0.10159 0.0
C3242 C 0.9726 0.20974 0.10082 0.0
C3243 C 0.91943 0.17468 0.10122 0.0
C3244 C 0.91525 0.16133 0.11067 0.0
C3245 C 0.90581 0.17063 0.09183 0.0
C3246 C 0.90982 0.18354 0.08117 0.0
C3247 C 0.92584 0.18874 0.07367 0.0
C3248 C 0.92961 0.20101 0.0637 0.0
C3249 C 0.91738 0.20807 0.06107 0.0
C3250 C 0.90131 0.20282 0.06839 0.0
C3251 C 0.89749 0.19057 0.07839 0.0
H3252 H 0.92032 0.21757 0.05334 0.0
H3253 H 0.88345 0.09643 0.14906 0.0
H3254 H 0.98465 0.80778 0.09826 0.0
H3255 H 0.95445 0.80761 0.09979 0.0
H3256 H 0.92404 0.74612 0.10174 0.0
H3257 H 0.95414 0.74612 0.10001 0.0
H3258 H 0.90769 0.75814 0.08561 0.0
H3259 H 0.92981 0.77386 0.12721 0.0
H3260 H 0.95271 0.79211 0.14366 0.0
H3261 H 0.95283 0.84299 0.13227 0.0
H3262 H 0.93011 0.8251 0.11564 0.0
H3263 H 0.81745 0.74525 0.10133 0.0
H3264 H 0.84788 0.74589 0.1026 0.0
H3265 H 0.87798 0.8072 0.09916 0.0
H3266 H 0.84755 0.80676 0.09803 0.0
H3267 H 0.89443 0.79538 0.11631 0.0
H3268 H 0.87296 0.77997 0.07456 0.0
H3269 H 0.85003 0.76191 0.05808 0.0
H3270 H 0.84893 0.71063 0.06967 0.0
H3271 H 0.87166 0.72834 0.08635 0.0
C3272 C 0.97157 0.79422 0.09912 0.0
C3273 C 0.97184 0.77696 0.099 0.0
C3274 C 0.9543 0.79415 0.10004 0.0
C3275 C 0.93697 0.77686 0.10098 0.0
C3276 C 0.93722 0.75964 0.10102 0.0
C3277 C 0.95447 0.75968 0.10006 0.0
C3278 C 0.91851 0.77665 0.10138 0.0
C3279 C 0.90469 0.76605 0.09245 0.0
C3280 C 0.91478 0.78739 0.11009 0.0
C3281 C 0.92839 0.79817 0.12011 0.0
C3282 C 0.93483 0.78898 0.12815 0.0
C3283 C 0.94776 0.79925 0.13752 0.0
C3284 C 0.95426 0.81871 0.13899 0.0
C3285 C 0.9478 0.82792 0.13111 0.0
C3286 C 0.93488 0.81772 0.12172 0.0
C3287 C 0.83051 0.7589 0.10092 0.0
C3288 C 0.83003 0.77594 0.09948 0.0
C3289 C 0.84791 0.75923 0.10161 0.0
C3290 C 0.86519 0.77657 0.10079 0.0
C3291 C 0.8648 0.79366 0.09978 0.0
C3292 C 0.84739 0.79336 0.0991 0.0
C3293 C 0.88364 0.77678 0.1006 0.0
C3294 C 0.89745 0.78743 0.10952 0.0
C3295 C 0.8874 0.7661 0.09187 0.0
C3296 C 0.87386 0.75545 0.08178 0.0
C3297 C 0.86772 0.76481 0.07366 0.0
C3298 C 0.85478 0.75464 0.06427 0.0
C3299 C 0.84799 0.73512 0.06285 0.0
C3300 C 0.85418 0.72575 0.07079 0.0
C3301 C 0.8671 0.73585 0.08021 0.0
H3302 H 0.83796 0.72728 0.05558 0.0
H3303 H 0.96426 0.82663 0.14625 0.0
H3304 H 0.31337 0.10626 0.10154 0.0
H3305 H 0.31233 0.13584 0.10309 0.0
H3306 H 0.25091 0.10392 0.10066 0.0
H3307 H 0.2518 0.07424 0.09898 0.0
H3308 H 0.26589 0.13386 0.08514 0.0
H3309 H 0.2728 0.12367 0.12773 0.0
H3310 H 0.28733 0.11741 0.14575 0.0
H3311 H 0.3401 0.16915 0.13888 0.0
H3312 H 0.32596 0.17559 0.12071 0.0
H3313 H 0.25242 0.21215 0.09788 0.0
H3314 H 0.25145 0.18158 0.09979 0.0
H3315 H 0.31288 0.21093 0.10203 0.0
H3316 H 0.31401 0.24159 0.10028 0.0
H3317 H 0.29672 0.18172 0.11837 0.0
H3318 H 0.29068 0.19102 0.07533 0.0
H3319 H 0.27665 0.1974 0.05708 0.0
H3320 H 0.22276 0.14733 0.06463 0.0
H3321 H 0.23641 0.14079 0.08303 0.0
C3322 C 0.29961 0.10548 0.10144 0.0
C3323 C 0.28266 0.08785 0.10012 0.0
C3324 C 0.29905 0.12242 0.10238 0.0
C3325 C 0.28153 0.12209 0.10208 0.0
C3326 C 0.26458 0.10451 0.10092 0.0
C3327 C 0.26512 0.08755 0.1 0.0
C3328 C 0.28098 0.14015 0.10237 0.0
C3329 C 0.27234 0.14417 0.09252 0.0
C3330 C 0.28983 0.15382 0.11184 0.0
C3331 C 0.29836 0.15002 0.12278 0.0
C3332 C 0.28755 0.13364 0.13 0.0
C3333 C 0.29571 0.13007 0.14026 0.0
C3334 C 0.31464 0.14285 0.14344 0.0
C3335 C 0.32544 0.15925 0.1364 0.0
C3336 C 0.31735 0.16288 0.12612 0.0
C3337 C 0.26574 0.21214 0.09886 0.0
C3338 C 0.28331 0.22935 0.09884 0.0
C3339 C 0.26515 0.19464 0.09992 0.0
C3340 C 0.28211 0.19397 0.10089 0.0
C3341 C 0.29963 0.21111 0.10127 0.0
C3342 C 0.30023 0.22863 0.10021 0.0
C3343 C 0.28165 0.17539 0.10114 0.0
C3344 C 0.29015 0.17132 0.11105 0.0
C3345 C 0.27273 0.16167 0.09171 0.0
C3346 C 0.26451 0.16554 0.08063 0.0
C3347 C 0.27579 0.18146 0.07316 0.0
C3348 C 0.26792 0.18509 0.06277 0.0
C3349 C 0.24881 0.17281 0.05972 0.0
C3350 C 0.23755 0.15684 0.06702 0.0
C3351 C 0.24535 0.15316 0.07742 0.0
H3352 H 0.24274 0.17564 0.05167 0.0
H3353 H 0.32093 0.14007 0.15139 0.0
H3354 H 0.21488 0.98664 0.90595 0.0
H3355 H 0.18462 0.9569 0.9035 0.0
H3356 H 0.21349 0.92471 0.90836 0.0
H3357 H 0.2439 0.95439 0.91062 0.0
H3358 H 0.18685 0.90938 0.89043 0.0
H3359 H 0.18974 0.93065 0.93207 0.0
H3360 H 0.19359 0.95351 0.94835 0.0
H3361 H 0.14547 0.9563 0.93426 0.0
H3362 H 0.14149 0.93363 0.91778 0.0
H3363 H 0.1083 0.82005 0.90889 0.0
H3364 H 0.13823 0.85023 0.90691 0.0
H3365 H 0.10688 0.88005 0.90243 0.0
H3366 H 0.07685 0.84996 0.90456 0.0
H3367 H 0.13437 0.89706 0.91924 0.0
H3368 H 0.13035 0.87396 0.87821 0.0
H3369 H 0.12654 0.85071 0.86223 0.0
H3370 H 0.17665 0.85084 0.87538 0.0
H3371 H 0.18061 0.87391 0.89156 0.0
C3372 C 0.21485 0.97326 0.90641 0.0
C3373 C 0.23182 0.97292 0.90859 0.0
C3374 C 0.19751 0.95626 0.90504 0.0
C3375 C 0.19675 0.93858 0.90593 0.0
C3376 C 0.21374 0.93819 0.90766 0.0
C3377 C 0.23111 0.95519 0.909 0.0
C3378 C 0.17817 0.92049 0.90554 0.0
C3379 C 0.17543 0.90659 0.8968 0.0
C3380 C 0.16313 0.91702 0.9137 0.0
C3381 C 0.16545 0.9306 0.92362 0.0
C3382 C 0.18007 0.93625 0.93239 0.0
C3383 C 0.18226 0.94916 0.94166 0.0
C3384 C 0.16982 0.9564 0.94232 0.0
C3385 C 0.15512 0.9507 0.93372 0.0
C3386 C 0.15288 0.93782 0.92442 0.0
C3387 C 0.10773 0.83298 0.90734 0.0
C3388 C 0.09015 0.83257 0.90692 0.0
C3389 C 0.12488 0.85023 0.90616 0.0
C3390 C 0.12481 0.8674 0.90444 0.0
C3391 C 0.10728 0.86698 0.90375 0.0
C3392 C 0.09012 0.84974 0.90494 0.0
C3393 C 0.14299 0.8859 0.90411 0.0
C3394 C 0.1457 0.89988 0.91278 0.0
C3395 C 0.15799 0.88937 0.89592 0.0
C3396 C 0.15568 0.87554 0.88617 0.0
C3397 C 0.14048 0.86892 0.87776 0.0
C3398 C 0.1383 0.85579 0.86865 0.0
C3399 C 0.15132 0.84927 0.86781 0.0
C3400 C 0.16657 0.85589 0.87605 0.0
C3401 C 0.16879 0.86901 0.88519 0.0
H3402 H 0.14961 0.8391 0.86075 0.0
H3403 H 0.17153 0.96639 0.9495 0.0
H3404 H 0.20917 0.2472 0.9131 0.0
H3405 H 0.17843 0.24599 0.91131 0.0
H3406 H 0.20754 0.3063 0.90338 0.0
H3407 H 0.23824 0.30771 0.90532 0.0
H3408 H 0.18123 0.29743 0.92074 0.0
H3409 H 0.18357 0.27267 0.88095 0.0
H3410 H 0.18672 0.25089 0.86653 0.0
H3411 H 0.13763 0.20307 0.8826 0.0
H3412 H 0.13434 0.22455 0.89724 0.0
H3413 H 0.10287 0.30745 0.90431 0.0
H3414 H 0.13233 0.30621 0.90283 0.0
H3415 H 0.10119 0.24588 0.91069 0.0
H3416 H 0.07152 0.24689 0.91195 0.0
H3417 H 0.12802 0.25385 0.89343 0.0
H3418 H 0.12577 0.27797 0.93328 0.0
H3419 H 0.12244 0.29927 0.94803 0.0
H3420 H 0.17135 0.34769 0.9323 0.0
H3421 H 0.17481 0.3267 0.91733 0.0
C3422 C 0.20903 0.26018 0.91086 0.0
C3423 C 0.22619 0.27757 0.9094 0.0
C3424 C 0.19143 0.25944 0.9098 0.0
C3425 C 0.19068 0.27605 0.90715 0.0
C3426 C 0.20777 0.29332 0.90545 0.0
C3427 C 0.22533 0.29408 0.90655 0.0
C3428 C 0.17217 0.27573 0.90677 0.0
C3429 C 0.16971 0.28809 0.91463 0.0
C3430 C 0.15691 0.26312 0.89909 0.0
C3431 C 0.15883 0.2502 0.89027 0.0
C3432 C 0.17354 0.2575 0.88148 0.0
C3433 C 0.17533 0.24521 0.87325 0.0
C3434 C 0.16242 0.2256 0.87367 0.0
C3435 C 0.14765 0.21825 0.8823 0.0
C3436 C 0.1458 0.23048 0.89055 0.0
C3437 C 0.10222 0.29386 0.90562 0.0
C3438 C 0.08484 0.2773 0.90837 0.0
C3439 C 0.1191 0.2932 0.9048 0.0
C3440 C 0.11903 0.27603 0.90688 0.0
C3441 C 0.1016 0.2593 0.90911 0.0
C3442 C 0.08466 0.25992 0.90984 0.0
C3443 C 0.13723 0.27574 0.90727 0.0
C3444 C 0.13959 0.26322 0.8995 0.0
C3445 C 0.15242 0.28813 0.91508 0.0
C3446 C 0.15044 0.30078 0.92411 0.0
C3447 C 0.13573 0.29318 0.93291 0.0
C3448 C 0.13383 0.30519 0.94132 0.0
C3449 C 0.14665 0.32483 0.94108 0.0
C3450 C 0.16142 0.33248 0.93246 0.0
C3451 C 0.16337 0.32053 0.92402 0.0
H3452 H 0.14516 0.3341 0.9476 0.0
H3453 H 0.16383 0.21611 0.86729 0.0
H3454 H 0.81378 0.84915 0.91595 0.0
H3455 H 0.8161 0.88042 0.91408 0.0
H3456 H 0.7553 0.85296 0.90829 0.0
H3457 H 0.75287 0.82179 0.90992 0.0
H3458 H 0.77352 0.88232 0.89297 0.0
H3459 H 0.77544 0.87126 0.93643 0.0
H3460 H 0.78801 0.86433 0.95519 0.0
H3461 H 0.84242 0.91464 0.9493 0.0
H3462 H 0.83022 0.92173 0.93041 0.0
H3463 H 0.75087 0.95315 0.90951 0.0
H3464 H 0.75411 0.92481 0.908 0.0
H3465 H 0.81496 0.95952 0.91306 0.0
H3466 H 0.81184 0.988 0.91474 0.0
H3467 H 0.80013 0.92833 0.92753 0.0
H3468 H 0.79668 0.94095 0.88498 0.0
H3469 H 0.78337 0.94776 0.86654 0.0
H3470 H 0.73123 0.89443 0.87088 0.0
H3471 H 0.74412 0.88741 0.88945 0.0
C3472 C 0.80092 0.84977 0.91421 0.0
C3473 C 0.78313 0.83294 0.91316 0.0
C3474 C 0.80226 0.86766 0.91318 0.0
C3475 C 0.78583 0.86903 0.91118 0.0
C3476 C 0.76816 0.85226 0.90983 0.0
C3477 C 0.76681 0.83442 0.91082 0.0
C3478 C 0.78679 0.88785 0.91081 0.0
C3479 C 0.77922 0.89233 0.90056 0.0
C3480 C 0.79466 0.90113 0.92058 0.0
C3481 C 0.80199 0.8969 0.93194 0.0
C3482 C 0.79013 0.88076 0.93909 0.0
C3483 C 0.79717 0.87682 0.94975 0.0
C3484 C 0.81602 0.889 0.95341 0.0
C3485 C 0.82784 0.90519 0.94644 0.0
C3486 C 0.82086 0.90919 0.93576 0.0
C3487 C 0.76498 0.95482 0.91023 0.0
C3488 C 0.7811 0.97288 0.91225 0.0
C3489 C 0.76681 0.93859 0.9093 0.0
C3490 C 0.7848 0.94006 0.91029 0.0
C3491 C 0.80094 0.95806 0.91224 0.0
C3492 C 0.79913 0.97433 0.91316 0.0
C3493 C 0.78658 0.92267 0.90977 0.0
C3494 C 0.79465 0.91845 0.91986 0.0
C3495 C 0.7791 0.9096 0.89988 0.0
C3496 C 0.77133 0.91372 0.88867 0.0
C3497 C 0.78232 0.93073 0.88206 0.0
C3498 C 0.77486 0.93462 0.87157 0.0
C3499 C 0.75646 0.92156 0.86756 0.0
C3500 C 0.74549 0.90455 0.87401 0.0
C3501 C 0.75287 0.90059 0.8845 0.0
H3502 H 0.75071 0.9246 0.85944 0.0
H3503 H 0.82145 0.88593 0.96167 0.0
H3504 H 0.51705 0.40569 0.42986 0.0
H3505 H 0.54766 0.43537 0.43166 0.0
H3506 H 0.51828 0.4675 0.43297 0.0
H3507 H 0.4877 0.43801 0.43113 0.0
H3508 H 0.5477 0.48261 0.41671 0.0
H3509 H 0.53751 0.46085 0.45868 0.0
H3510 H 0.53111 0.43785 0.47541 0.0
H3511 H 0.58204 0.43652 0.46622 0.0
H3512 H 0.58861 0.45932 0.44931 0.0
H3513 H 0.62326 0.57263 0.4339 0.0
H3514 H 0.59346 0.54213 0.4346 0.0
H3515 H 0.62508 0.51221 0.43376 0.0
H3516 H 0.65503 0.54269 0.4332 0.0
H3517 H 0.59507 0.49552 0.44966 0.0
H3518 H 0.60553 0.51687 0.40789 0.0
H3519 H 0.61235 0.53969 0.39097 0.0
H3520 H 0.56128 0.54124 0.39934 0.0
H3521 H 0.5543 0.51863 0.41644 0.0
C3522 C 0.51708 0.41905 0.43061 0.0
C3523 C 0.49989 0.41944 0.43034 0.0
C3524 C 0.53459 0.436 0.43168 0.0
C3525 C 0.53523 0.45364 0.43251 0.0
C3526 C 0.51811 0.45405 0.43233 0.0
C3527 C 0.50063 0.43714 0.43131 0.0
C3528 C 0.55374 0.47176 0.43316 0.0
C3529 C 0.55795 0.48553 0.42401 0.0
C3530 C 0.56734 0.47533 0.44248 0.0
C3531 C 0.56344 0.46164 0.45265 0.0
C3532 C 0.54726 0.45553 0.46016 0.0
C3533 C 0.54362 0.44255 0.46968 0.0
C3534 C 0.55614 0.43568 0.47185 0.0
C3535 C 0.57235 0.44182 0.46452 0.0
C3536 C 0.57604 0.45479 0.45497 0.0
C3537 C 0.62393 0.55959 0.43398 0.0
C3538 C 0.64156 0.56013 0.43338 0.0
C3539 C 0.60686 0.54215 0.43434 0.0
C3540 C 0.60705 0.5249 0.43403 0.0
C3541 C 0.62461 0.52536 0.43396 0.0
C3542 C 0.64172 0.54281 0.43361 0.0
C3543 C 0.5889 0.50643 0.4333 0.0
C3544 C 0.58481 0.49258 0.44238 0.0
C3545 C 0.57543 0.50271 0.42387 0.0
C3546 C 0.57949 0.5162 0.41352 0.0
C3547 C 0.59583 0.52219 0.40618 0.0
C3548 C 0.59971 0.53507 0.39655 0.0
C3549 C 0.58728 0.54195 0.39411 0.0
C3550 C 0.57091 0.53591 0.40126 0.0
C3551 C 0.56697 0.52305 0.41092 0.0
H3552 H 0.59032 0.55193 0.38665 0.0
H3553 H 0.5533 0.42564 0.47923 0.0
H3554 H 0.6245 0.08063 0.43416 0.0
H3555 H 0.59495 0.08167 0.43573 0.0
H3556 H 0.62642 0.14276 0.43097 0.0
H3557 H 0.65619 0.14192 0.42952 0.0
H3558 H 0.59855 0.13191 0.4485 0.0
H3559 H 0.60332 0.1147 0.40699 0.0
H3560 H 0.60765 0.096 0.3907 0.0
H3561 H 0.55793 0.04518 0.40333 0.0
H3562 H 0.55346 0.06353 0.41981 0.0
H3563 H 0.51887 0.14198 0.43032 0.0
H3564 H 0.54939 0.1427 0.4318 0.0
H3565 H 0.51962 0.08146 0.4358 0.0
H3566 H 0.4891 0.08056 0.43421 0.0
H3567 H 0.54709 0.09314 0.41871 0.0
H3568 H 0.54206 0.11052 0.46013 0.0
H3569 H 0.53779 0.12933 0.47636 0.0
H3570 H 0.58779 0.17996 0.46383 0.0
H3571 H 0.59222 0.1615 0.4474 0.0
C3572 C 0.62522 0.09433 0.43353 0.0
C3573 C 0.64273 0.11118 0.4316 0.0
C3574 C 0.60828 0.09488 0.4344 0.0
C3575 C 0.60845 0.11226 0.43328 0.0
C3576 C 0.62596 0.1292 0.43182 0.0
C3577 C 0.64295 0.12867 0.43096 0.0
C3578 C 0.59027 0.11258 0.43314 0.0
C3579 C 0.58737 0.12363 0.4419 0.0
C3580 C 0.57558 0.10152 0.42466 0.0
C3581 C 0.57817 0.09046 0.41471 0.0
C3582 C 0.5934 0.09951 0.40636 0.0
C3583 C 0.59586 0.08898 0.39708 0.0
C3584 C 0.5831 0.06941 0.396 0.0
C3585 C 0.56782 0.06034 0.40418 0.0
C3586 C 0.5653 0.0708 0.41349 0.0
C3587 C 0.5188 0.12868 0.43162 0.0
C3588 C 0.50151 0.11121 0.4321 0.0
C3589 C 0.53627 0.12912 0.43251 0.0
C3590 C 0.53679 0.11213 0.43396 0.0
C3591 C 0.51956 0.09474 0.43466 0.0
C3592 C 0.50211 0.09427 0.43378 0.0
C3593 C 0.55523 0.11232 0.43415 0.0
C3594 C 0.55822 0.10141 0.42535 0.0
C3595 C 0.56997 0.12353 0.44258 0.0
C3596 C 0.56736 0.13466 0.45245 0.0
C3597 C 0.55205 0.1257 0.46077 0.0
C3598 C 0.54962 0.13629 0.47001 0.0
C3599 C 0.56248 0.15584 0.4711 0.0
C3600 C 0.57783 0.16482 0.46296 0.0
C3601 C 0.58031 0.1543 0.45369 0.0
H3602 H 0.56057 0.16401 0.47827 0.0
H3603 H 0.58503 0.06128 0.38881 0.0
H3604 H 0.91671 0.40167 0.42851 0.0
H3605 H 0.9142 0.43047 0.43045 0.0
H3606 H 0.97499 0.46408 0.43622 0.0
H3607 H 0.9776 0.43543 0.43454 0.0
H3608 H 0.95684 0.47542 0.45136 0.0
H3609 H 0.95476 0.462 0.40804 0.0
H3610 H 0.94238 0.44236 0.38932 0.0
H3611 H 0.88765 0.43757 0.39513 0.0
H3612 H 0.89966 0.457 0.41397 0.0
H3613 H 0.97704 0.56823 0.43396 0.0
H3614 H 0.97483 0.5371 0.43583 0.0
H3615 H 0.9137 0.50928 0.4317 0.0
H3616 H 0.91576 0.54036 0.42973 0.0
H3617 H 0.92922 0.49374 0.41683 0.0
H3618 H 0.93284 0.51007 0.45937 0.0
H3619 H 0.9461 0.53047 0.4777 0.0
H3620 H 0.99883 0.53052 0.47306 0.0
H3621 H 0.98597 0.51033 0.45459 0.0
C3622 C 0.92952 0.41516 0.43028 0.0
C3623 C 0.94737 0.41623 0.43128 0.0
C3624 C 0.92807 0.43163 0.43134 0.0
C3625 C 0.94445 0.44949 0.43332 0.0
C3626 C 0.96216 0.45048 0.43469 0.0
C3627 C 0.96362 0.43405 0.43368 0.0
C3628 C 0.94336 0.46728 0.4336 0.0
C3629 C 0.95093 0.47949 0.44377 0.0
C3630 C 0.93527 0.47242 0.42382 0.0
C3631 C 0.92804 0.46076 0.41249 0.0
C3632 C 0.94004 0.45663 0.40537 0.0
C3633 C 0.9331 0.44556 0.39473 0.0
C3634 C 0.91422 0.43867 0.39106 0.0
C3635 C 0.90226 0.44288 0.398 0.0
C3636 C 0.90913 0.45393 0.40865 0.0
C3637 C 0.9631 0.55552 0.43355 0.0
C3638 C 0.94658 0.55682 0.43168 0.0
C3639 C 0.96185 0.53772 0.43467 0.0
C3640 C 0.94408 0.52087 0.434 0.0
C3641 C 0.92755 0.52211 0.43227 0.0
C3642 C 0.92877 0.5399 0.43118 0.0
C3643 C 0.9429 0.50197 0.43453 0.0
C3644 C 0.93493 0.48957 0.42449 0.0
C3645 C 0.95073 0.49673 0.4444 0.0
C3646 C 0.95848 0.50881 0.45553 0.0
C3647 C 0.94731 0.51455 0.4622 0.0
C3648 C 0.95475 0.52605 0.47262 0.0
C3649 C 0.97331 0.53182 0.47652 0.0
C3650 C 0.98445 0.52605 0.47002 0.0
C3651 C 0.97709 0.51456 0.45958 0.0
H3652 H 0.97904 0.54072 0.48459 0.0
H3653 H 0.90888 0.4301 0.38282 0.0
H3654 H 0.77047 0.15919 0.23916 0.0
H3655 H 0.80019 0.18969 0.23801 0.0
H3656 H 0.77024 0.21914 0.24844 0.0
H3657 H 0.7403 0.18867 0.24936 0.0
H3658 H 0.79606 0.23861 0.23094 0.0
H3659 H 0.79603 0.21006 0.26956 0.0
H3660 H 0.79334 0.1846 0.28332 0.0
H3661 H 0.84083 0.18531 0.26519 0.0
H3662 H 0.84364 0.2106 0.25121 0.0
H3663 H 0.87962 0.32493 0.24991 0.0
H3664 H 0.84847 0.29575 0.24871 0.0
H3665 H 0.87584 0.264 0.23778 0.0
H3666 H 0.90695 0.29292 0.23911 0.0
H3667 H 0.85082 0.24619 0.25582 0.0
H3668 H 0.85074 0.27516 0.21719 0.0
H3669 H 0.85331 0.30087 0.20373 0.0
H3670 H 0.80603 0.29988 0.22235 0.0
H3671 H 0.80334 0.27432 0.23604 0.0
C3672 C 0.77014 0.17215 0.24114 0.0
C3673 C 0.75301 0.17145 0.24446 0.0
C3674 C 0.78718 0.18959 0.24052 0.0
C3675 C 0.78752 0.20669 0.24337 0.0
C3676 C 0.77034 0.20612 0.24626 0.0
C3677 C 0.75324 0.18868 0.2468 0.0
C3678 C 0.80589 0.22503 0.2437 0.0
C3679 C 0.80796 0.24036 0.2365 0.0
C3680 C 0.82152 0.22724 0.25082 0.0
C3681 C 0.81993 0.2121 0.25926 0.0
C3682 C 0.80581 0.20469 0.26845 0.0
C3683 C 0.80428 0.19031 0.2763 0.0
C3684 C 0.81687 0.18331 0.27511 0.0
C3685 C 0.83107 0.19072 0.26609 0.0
C3686 C 0.83265 0.2051 0.25821 0.0
C3687 C 0.879 0.31177 0.24715 0.0
C3688 C 0.89582 0.31128 0.24465 0.0
C3689 C 0.86117 0.29511 0.24643 0.0
C3690 C 0.85981 0.27769 0.24309 0.0
C3691 C 0.87655 0.27726 0.2404 0.0
C3692 C 0.89434 0.29385 0.24114 0.0
C3693 C 0.8411 0.25971 0.24294 0.0
C3694 C 0.83893 0.24446 0.25024 0.0
C3695 C 0.8254 0.25764 0.23596 0.0
C3696 C 0.82697 0.27296 0.22772 0.0
C3697 C 0.84099 0.28053 0.21848 0.0
C3698 C 0.84245 0.29506 0.2108 0.0
C3699 C 0.82988 0.30204 0.21221 0.0
C3700 C 0.81578 0.29448 0.22128 0.0
C3701 C 0.81427 0.27996 0.229 0.0
H3702 H 0.83103 0.31329 0.20625 0.0
H3703 H 0.81566 0.17217 0.28119 0.0
H3704 H 0.90618 0.649 0.24303 0.0
H3705 H 0.8755 0.64788 0.24157 0.0
H3706 H 0.84681 0.58664 0.23785 0.0
H3707 H 0.87737 0.58756 0.23951 0.0
H3708 H 0.8477 0.63578 0.22456 0.0
H3709 H 0.80454 0.56706 0.25316 0.0
H3710 H 0.80975 0.54901 0.26952 0.0
H3711 H 0.85859 0.60052 0.28226 0.0
H3712 H 0.85352 0.6189 0.26609 0.0
H3713 H 0.73869 0.5855 0.24139 0.0
H3714 H 0.76865 0.58535 0.23896 0.0
H3715 H 0.80012 0.64669 0.24228 0.0
H3716 H 0.77027 0.64703 0.24448 0.0
H3717 H 0.79732 0.59646 0.25484 0.0
H3718 H 0.84136 0.66501 0.22603 0.0
H3719 H 0.83606 0.68367 0.21017 0.0
H3720 H 0.78532 0.63323 0.19827 0.0
H3721 H 0.79045 0.61422 0.21394 0.0
C3722 C 0.89337 0.63529 0.24182 0.0
C3723 C 0.89424 0.61835 0.24151 0.0
C3724 C 0.87584 0.63469 0.24095 0.0
C3725 C 0.85883 0.61716 0.23978 0.0
C3726 C 0.85972 0.6003 0.23897 0.0
C3727 C 0.87723 0.60087 0.23988 0.0
C3728 C 0.84015 0.61649 0.2399 0.0
C3729 C 0.83674 0.62732 0.23125 0.0
C3730 C 0.8257 0.60516 0.24847 0.0
C3731 C 0.82877 0.5943 0.25832 0.0
C3732 C 0.81636 0.57453 0.25948 0.0
C3733 C 0.81929 0.56425 0.26871 0.0
C3734 C 0.83453 0.5736 0.27689 0.0
C3735 C 0.84684 0.59328 0.27588 0.0
C3736 C 0.84395 0.60363 0.26668 0.0
C3737 C 0.75197 0.59899 0.24149 0.0
C3738 C 0.75205 0.61628 0.24313 0.0
C3739 C 0.76909 0.59886 0.24013 0.0
C3740 C 0.78663 0.61601 0.24033 0.0
C3741 C 0.78676 0.6333 0.24187 0.0
C3742 C 0.76965 0.63345 0.24319 0.0
C3743 C 0.80483 0.61575 0.2395 0.0
C3744 C 0.80819 0.60478 0.24807 0.0
C3745 C 0.81923 0.62701 0.23088 0.0
C3746 C 0.81621 0.63823 0.22124 0.0
C3747 C 0.82913 0.65788 0.21999 0.0
C3748 C 0.82614 0.66853 0.21104 0.0
C3749 C 0.81033 0.65965 0.20325 0.0
C3750 C 0.79752 0.6401 0.20435 0.0
C3751 C 0.80045 0.62939 0.21327 0.0
H3752 H 0.80803 0.66793 0.19634 0.0
H3753 H 0.83679 0.56561 0.28403 0.0
H3754 H 0.41211 0.29013 0.24151 0.0
H3755 H 0.41287 0.26039 0.24046 0.0
H3756 H 0.47371 0.29141 0.24643 0.0
H3757 H 0.47316 0.32135 0.24734 0.0
H3758 H 0.46389 0.26393 0.2291 0.0
H3759 H 0.44376 0.26796 0.26992 0.0
H3760 H 0.42395 0.27197 0.28554 0.0
H3761 H 0.37406 0.22249 0.27167 0.0
H3762 H 0.39354 0.21834 0.25585 0.0
H3763 H 0.47327 0.18442 0.24797 0.0
H3764 H 0.47371 0.21479 0.24647 0.0
H3765 H 0.41271 0.1846 0.24116 0.0
H3766 H 0.41207 0.15419 0.24282 0.0
H3767 H 0.42305 0.21194 0.25803 0.0
H3768 H 0.44353 0.20768 0.21732 0.0
H3769 H 0.4636 0.20377 0.20186 0.0
H3770 H 0.51313 0.25363 0.21571 0.0
H3771 H 0.49339 0.25769 0.23137 0.0
C3772 C 0.42569 0.29069 0.24253 0.0
C3773 C 0.44256 0.30814 0.24461 0.0
C3774 C 0.42609 0.27365 0.24196 0.0
C3775 C 0.44331 0.27365 0.24356 0.0
C3776 C 0.46026 0.29108 0.24522 0.0
C3777 C 0.4599 0.30817 0.24576 0.0
C3778 C 0.44349 0.25539 0.24386 0.0
C3779 C 0.45514 0.25263 0.23552 0.0
C3780 C 0.43182 0.24053 0.25209 0.0
C3781 C 0.42008 0.24295 0.26163 0.0
C3782 C 0.42854 0.25802 0.27014 0.0
C3783 C 0.41737 0.2603 0.27904 0.0
C3784 C 0.39775 0.24752 0.27958 0.0
C3785 C 0.38926 0.2324 0.27123 0.0
C3786 C 0.40036 0.23006 0.26231 0.0
C3787 C 0.45995 0.18422 0.24639 0.0
C3788 C 0.44263 0.16684 0.24553 0.0
C3789 C 0.46025 0.20161 0.24549 0.0
C3790 C 0.44326 0.20198 0.24362 0.0
C3791 C 0.42599 0.18466 0.24262 0.0
C3792 C 0.42567 0.16728 0.24354 0.0
C3793 C 0.44333 0.22036 0.24321 0.0
C3794 C 0.43176 0.22318 0.25157 0.0
C3795 C 0.45511 0.23526 0.23502 0.0
C3796 C 0.46701 0.23288 0.2256 0.0
C3797 C 0.45873 0.21772 0.21713 0.0
C3798 C 0.47004 0.21549 0.20832 0.0
C3799 C 0.48964 0.22841 0.20782 0.0
C3800 C 0.49795 0.24362 0.21612 0.0
C3801 C 0.4867 0.2459 0.22495 0.0
H3802 H 0.49837 0.22667 0.20099 0.0
H3803 H 0.38913 0.24931 0.28647 0.0
H3804 H 0.31942 0.87386 0.76867 0.0
H3805 H 0.28951 0.84353 0.77017 0.0
H3806 H 0.25793 0.8735 0.7699 0.0
H3807 H 0.2878 0.90396 0.76851 0.0
H3808 H 0.24294 0.84352 0.78633 0.0
H3809 H 0.2628 0.85444 0.74389 0.0
H3810 H 0.28519 0.86127 0.72671 0.0
H3811 H 0.28753 0.81058 0.735 0.0
H3812 H 0.26534 0.80359 0.75235 0.0
H3813 H 0.15229 0.7712 0.76577 0.0
H3814 H 0.18324 0.79997 0.76844 0.0
H3815 H 0.21102 0.76633 0.76679 0.0
H3816 H 0.18006 0.73741 0.76391 0.0
H3817 H 0.22873 0.79723 0.75244 0.0
H3818 H 0.2067 0.78481 0.79394 0.0
H3819 H 0.18366 0.77765 0.81076 0.0
H3820 H 0.18504 0.83068 0.80432 0.0
H3821 H 0.20784 0.83803 0.78731 0.0
C3822 C 0.30615 0.87406 0.76906 0.0
C3823 C 0.30602 0.89136 0.76835 0.0
C3824 C 0.28905 0.85668 0.76989 0.0
C3825 C 0.27149 0.85625 0.76998 0.0
C3826 C 0.27133 0.87351 0.76982 0.0
C3827 C 0.28843 0.89091 0.76898 0.0
C3828 C 0.25328 0.83779 0.76954 0.0
C3829 C 0.23974 0.83345 0.77888 0.0
C3830 C 0.24931 0.82448 0.75996 0.0
C3831 C 0.26258 0.82861 0.7495 0.0
C3832 C 0.26821 0.84483 0.74211 0.0
C3833 C 0.28084 0.84872 0.73233 0.0
C3834 C 0.28782 0.8364 0.72979 0.0
C3835 C 0.28214 0.82013 0.737 0.0
C3836 C 0.26952 0.8162 0.7468 0.0
C3837 C 0.16494 0.76985 0.76603 0.0
C3838 C 0.16366 0.75196 0.76461 0.0
C3839 C 0.18264 0.78634 0.76763 0.0
C3840 C 0.19944 0.78529 0.76795 0.0
C3841 C 0.19823 0.76746 0.7666 0.0
C3842 C 0.18051 0.75095 0.76498 0.0
C3843 C 0.21829 0.80293 0.7692 0.0
C3844 C 0.23196 0.80717 0.75998 0.0
C3845 C 0.22235 0.8161 0.7789 0.0
C3846 C 0.20887 0.8119 0.78927 0.0
C3847 C 0.202 0.7949 0.79605 0.0
C3848 C 0.18899 0.79081 0.80563 0.0
C3849 C 0.18285 0.80368 0.80859 0.0
C3850 C 0.18978 0.82071 0.802 0.0
C3851 C 0.20277 0.82485 0.7924 0.0
H3852 H 0.17276 0.80047 0.81599 0.0
H3853 H 0.2976 0.83943 0.72221 0.0
H3854 H 0.28875 0.4182 0.77153 0.0
H3855 H 0.25925 0.41933 0.77305 0.0
H3856 H 0.28997 0.47937 0.76431 0.0
H3857 H 0.31971 0.47847 0.763 0.0
H3858 H 0.26323 0.47164 0.78179 0.0
H3859 H 0.26536 0.44675 0.74217 0.0
H3860 H 0.26878 0.42521 0.72768 0.0
H3861 H 0.22024 0.37696 0.74387 0.0
H3862 H 0.2167 0.39819 0.75859 0.0
H3863 H 0.18159 0.47725 0.76209 0.0
H3864 H 0.21242 0.47867 0.76385 0.0
H3865 H 0.18367 0.41848 0.77212 0.0
H3866 H 0.15286 0.41685 0.7702 0.0
H3867 H 0.20994 0.42719 0.75484 0.0
H3868 H 0.20765 0.45255 0.79437 0.0
H3869 H 0.20437 0.47444 0.80863 0.0
H3870 H 0.25313 0.52223 0.79226 0.0
H3871 H 0.25655 0.50065 0.77778 0.0
C3872 C 0.28931 0.43171 0.77004 0.0
C3873 C 0.30659 0.44821 0.76701 0.0
C3874 C 0.2724 0.43231 0.77088 0.0
C3875 C 0.27234 0.44936 0.76856 0.0
C3876 C 0.28968 0.46605 0.76609 0.0
C3877 C 0.30666 0.46549 0.76532 0.0
C3878 C 0.25406 0.44948 0.76814 0.0
C3879 C 0.25164 0.46209 0.7758 0.0
C3880 C 0.23885 0.43683 0.76044 0.0
C3881 C 0.24087 0.42404 0.75155 0.0
C3882 C 0.2555 0.43153 0.7427 0.0
C3883 C 0.25745 0.41938 0.73444 0.0
C3884 C 0.24477 0.39972 0.73487 0.0
C3885 C 0.23007 0.39218 0.74356 0.0
C3886 C 0.22807 0.40427 0.75185 0.0
C3887 C 0.18182 0.46434 0.76439 0.0
C3888 C 0.16472 0.44692 0.76595 0.0
C3889 C 0.19948 0.4652 0.76544 0.0
C3890 C 0.20037 0.4487 0.76819 0.0
C3891 C 0.18333 0.43139 0.76997 0.0
C3892 C 0.16571 0.4305 0.76888 0.0
C3893 C 0.21895 0.44916 0.76861 0.0
C3894 C 0.22148 0.43672 0.76087 0.0
C3895 C 0.23423 0.46201 0.7762 0.0
C3896 C 0.23223 0.475 0.78492 0.0
C3897 C 0.21758 0.46775 0.79375 0.0
C3898 C 0.21571 0.48009 0.80188 0.0
C3899 C 0.2285 0.49972 0.80133 0.0
C3900 C 0.24322 0.50703 0.79267 0.0
C3901 C 0.24514 0.49474 0.7845 0.0
H3902 H 0.22704 0.50925 0.80764 0.0
H3903 H 0.2463 0.39034 0.72847 0.0
H3904 H 0.58342 0.73812 0.76212 0.0
H3905 H 0.58124 0.76715 0.76354 0.0
H3906 H 0.64173 0.80019 0.77055 0.0
H3907 H 0.64403 0.77128 0.76928 0.0
H3908 H 0.62218 0.81174 0.78504 0.0
H3909 H 0.62451 0.79861 0.7421 0.0
H3910 H 0.61406 0.77906 0.72326 0.0
H3911 H 0.55897 0.77444 0.72605 0.0
H3912 H 0.56902 0.79377 0.74502 0.0
H3913 H 0.64494 0.90471 0.76708 0.0
H3914 H 0.64215 0.87339 0.76906 0.0
H3915 H 0.58166 0.84637 0.76213 0.0
H3916 H 0.58433 0.87774 0.76 0.0
H3917 H 0.59835 0.83048 0.74862 0.0
H3918 H 0.59783 0.84682 0.79082 0.0
H3919 H 0.60957 0.86758 0.80909 0.0
H3920 H 0.66234 0.86709 0.80739 0.0
H3921 H 0.65103 0.84656 0.78899 0.0
C3922 C 0.59623 0.75152 0.76407 0.0
C3923 C 0.61393 0.75237 0.76549 0.0
C3924 C 0.59497 0.76812 0.76485 0.0
C3925 C 0.61137 0.78587 0.767 0.0
C3926 C 0.6289 0.78665 0.76887 0.0
C3927 C 0.63019 0.7701 0.76808 0.0
C3928 C 0.6105 0.80377 0.76679 0.0
C3929 C 0.61708 0.8159 0.77706 0.0
C3930 C 0.6035 0.80902 0.75646 0.0
C3931 C 0.59744 0.79743 0.74506 0.0
C3932 C 0.61011 0.79329 0.73875 0.0
C3933 C 0.60427 0.78227 0.72804 0.0
C3934 C 0.58584 0.77546 0.72348 0.0
C3935 C 0.57323 0.7797 0.72961 0.0
C3936 C 0.57899 0.79068 0.74034 0.0
C3937 C 0.63101 0.89214 0.76602 0.0
C3938 C 0.61485 0.89377 0.76338 0.0
C3939 C 0.62942 0.87422 0.76722 0.0
C3940 C 0.61166 0.85754 0.76588 0.0
C3941 C 0.59549 0.85907 0.76324 0.0
C3942 C 0.59705 0.87702 0.76206 0.0
C3943 C 0.61016 0.83854 0.76683 0.0
C3944 C 0.60319 0.82621 0.75669 0.0
C3945 C 0.61691 0.83318 0.77724 0.0
C3946 C 0.62363 0.84525 0.78845 0.0
C3947 C 0.61198 0.85123 0.79429 0.0
C3948 C 0.61856 0.86295 0.80468 0.0
C3949 C 0.63671 0.86869 0.80938 0.0
C3950 C 0.64829 0.86264 0.80373 0.0
C3951 C 0.64179 0.85094 0.79333 0.0
H3952 H 0.64178 0.87779 0.81741 0.0
H3953 H 0.58135 0.76694 0.71519 0.0
H3954 H 0.54562 0.65481 0.57605 0.0
H3955 H 0.51514 0.62518 0.57392 0.0
H3956 H 0.54427 0.59281 0.57541 0.0
H3957 H 0.57484 0.62237 0.57731 0.0
H3958 H 0.5167 0.57845 0.55833 0.0
H3959 H 0.52184 0.59737 0.60069 0.0
H3960 H 0.52646 0.6192 0.61784 0.0
H3961 H 0.47739 0.62232 0.60617 0.0
H3962 H 0.47263 0.60068 0.58885 0.0
H3963 H 0.44007 0.48781 0.57632 0.0
H3964 H 0.46963 0.51837 0.57453 0.0
H3965 H 0.43733 0.54753 0.57267 0.0
H3966 H 0.40765 0.51703 0.57464 0.0
H3967 H 0.46583 0.56415 0.58895 0.0
H3968 H 0.45947 0.54271 0.54727 0.0
H3969 H 0.45503 0.52021 0.53059 0.0
H3970 H 0.50652 0.52109 0.54134 0.0
H3971 H 0.51111 0.54334 0.55822 0.0
C3972 C 0.54558 0.64141 0.57586 0.0
C3973 C 0.56269 0.64098 0.57695 0.0
C3974 C 0.52812 0.62446 0.57467 0.0
C3975 C 0.52739 0.60675 0.57467 0.0
C3976 C 0.54448 0.60631 0.5754 0.0
C3977 C 0.56195 0.62324 0.57653 0.0
C3978 C 0.50879 0.58864 0.57431 0.0
C3979 C 0.50563 0.57523 0.56509 0.0
C3980 C 0.4942 0.5846 0.58298 0.0
C3981 C 0.49701 0.59758 0.5934 0.0
C3982 C 0.51213 0.60283 0.60173 0.0
C3983 C 0.51475 0.61515 0.61149 0.0
C3984 C 0.50226 0.62219 0.61308 0.0
C3985 C 0.48707 0.61688 0.60492 0.0
C3986 C 0.4844 0.60458 0.59513 0.0
C3987 C 0.43921 0.50069 0.57542 0.0
C3988 C 0.42146 0.49995 0.57566 0.0
C3989 C 0.45615 0.51816 0.57434 0.0
C3990 C 0.4557 0.53524 0.57336 0.0
C3991 C 0.43801 0.53452 0.5734 0.0
C3992 C 0.42105 0.51706 0.57449 0.0
C3993 C 0.47372 0.55389 0.57298 0.0
C3994 C 0.4768 0.56741 0.58211 0.0
C3995 C 0.48825 0.55794 0.56427 0.0
C3996 C 0.48555 0.54459 0.55408 0.0
C3997 C 0.46977 0.53799 0.54614 0.0
C3998 C 0.46724 0.52529 0.53664 0.0
C3999 C 0.48048 0.51921 0.53492 0.0
C4000 C 0.49628 0.52581 0.54269 0.0
C4001 C 0.49886 0.53847 0.55222 0.0
H4002 H 0.47853 0.50942 0.52754 0.0
H4003 H 0.50431 0.63172 0.62064 0.0
H4004 H 0.43947 0.97753 0.57404 0.0
H4005 H 0.46866 0.97583 0.57227 0.0
H4006 H 0.4364 0.91492 0.5778 0.0
H4007 H 0.40706 0.91647 0.57967 0.0
H4008 H 0.46801 0.93188 0.59233 0.0
H4009 H 0.45368 0.93257 0.54975 0.0
H4010 H 0.44557 0.94438 0.53112 0.0
H4011 H 0.49776 0.99794 0.53438 0.0
H4012 H 0.50606 0.98654 0.55314 0.0
H4013 H 0.54636 0.91816 0.57961 0.0
H4014 H 0.51527 0.91616 0.57804 0.0
H4015 H 0.54305 0.97697 0.57221 0.0
H4016 H 0.57419 0.97911 0.57363 0.0
H4017 H 0.51264 0.95797 0.55703 0.0
H4018 H 0.52595 0.95844 0.60014 0.0
H4019 H 0.53431 0.94728 0.61897 0.0
H4020 H 0.48415 0.8922 0.61493 0.0
H4021 H 0.47564 0.90296 0.59596 0.0
C4022 C 0.43852 0.96373 0.57478 0.0
C4023 C 0.4209 0.94713 0.577 0.0
C4024 C 0.45523 0.96278 0.57372 0.0
C4025 C 0.45469 0.94523 0.57482 0.0
C4026 C 0.43712 0.9286 0.57691 0.0
C4027 C 0.42036 0.92952 0.57793 0.0
C4028 C 0.4726 0.94441 0.57429 0.0
C4029 C 0.4776 0.93725 0.58451 0.0
C4030 C 0.48533 0.95186 0.56422 0.0
C4031 C 0.48041 0.95875 0.55291 0.0
C4032 C 0.46336 0.94692 0.54655 0.0
C4033 C 0.45874 0.95353 0.53596 0.0
C4034 C 0.47112 0.97192 0.53158 0.0
C4035 C 0.48817 0.98371 0.53778 0.0
C4036 C 0.49285 0.97717 0.54839 0.0
C4037 C 0.54588 0.9311 0.5779 0.0
C4038 C 0.5628 0.94882 0.57683 0.0
C4039 C 0.52809 0.92993 0.57705 0.0
C4040 C 0.52685 0.94645 0.57516 0.0
C4041 C 0.54368 0.96405 0.57369 0.0
C4042 C 0.56148 0.96524 0.57455 0.0
C4043 C 0.50807 0.94553 0.57509 0.0
C4044 C 0.50294 0.95242 0.56479 0.0
C4045 C 0.49525 0.93791 0.58511 0.0
C4046 C 0.50027 0.93144 0.59655 0.0
C4047 C 0.51678 0.9439 0.60321 0.0
C4048 C 0.52154 0.93766 0.61392 0.0
C4049 C 0.5098 0.91902 0.61813 0.0
C4050 C 0.49325 0.90662 0.61165 0.0
C4051 C 0.48845 0.91278 0.60092 0.0
H4052 H 0.51351 0.91421 0.62642 0.0
H4053 H 0.46752 0.97701 0.52338 0.0
H4054 H 0.14289 0.65451 0.57753 0.0
H4055 H 0.14453 0.62515 0.57652 0.0
H4056 H 0.08318 0.59206 0.57386 0.0
H4057 H 0.08137 0.62124 0.57495 0.0
H4058 H 0.09659 0.5779 0.59107 0.0
H4059 H 0.11113 0.59835 0.54905 0.0
H4060 H 0.12868 0.62081 0.53225 0.0
H4061 H 0.18057 0.62322 0.54386 0.0
H4062 H 0.16337 0.60097 0.56085 0.0
H4063 H 0.08252 0.48793 0.57499 0.0
H4064 H 0.0843 0.51885 0.57372 0.0
H4065 H 0.14538 0.54726 0.57825 0.0
H4066 H 0.14379 0.51623 0.57948 0.0
H4067 H 0.13398 0.56458 0.56051 0.0
H4068 H 0.11928 0.5437 0.60228 0.0
H4069 H 0.10167 0.52113 0.61903 0.0
H4070 H 0.05007 0.51973 0.60788 0.0
H4071 H 0.06732 0.54209 0.59095 0.0
C4072 C 0.12975 0.641 0.57662 0.0
C4073 C 0.11199 0.64025 0.57636 0.0
C4074 C 0.13072 0.62423 0.57601 0.0
C4075 C 0.11397 0.60641 0.57507 0.0
C4076 C 0.09628 0.60565 0.57461 0.0
C4077 C 0.09529 0.62238 0.5752 0.0
C4078 C 0.11473 0.58845 0.57513 0.0
C4079 C 0.10457 0.57491 0.58429 0.0
C4080 C 0.12563 0.58479 0.56651 0.0
C4081 C 0.136 0.59816 0.5563 0.0
C4082 C 0.12632 0.6038 0.54809 0.0
C4083 C 0.13619 0.61647 0.53852 0.0
C4084 C 0.15574 0.62348 0.53701 0.0
C4085 C 0.16543 0.6178 0.54505 0.0
C4086 C 0.15563 0.60515 0.55465 0.0
C4087 C 0.09639 0.50071 0.57563 0.0
C4088 C 0.11301 0.49956 0.57745 0.0
C4089 C 0.09736 0.51839 0.57493 0.0
C4090 C 0.11493 0.53533 0.57606 0.0
C4091 C 0.13166 0.53433 0.57739 0.0
C4092 C 0.13071 0.51659 0.57813 0.0
C4093 C 0.11558 0.55398 0.57633 0.0
C4094 C 0.12605 0.56765 0.56729 0.0
C4095 C 0.10497 0.55781 0.58506 0.0
C4096 C 0.09456 0.54443 0.59528 0.0
C4097 C 0.10414 0.53846 0.60334 0.0
C4098 C 0.09423 0.52573 0.61288 0.0
C4099 C 0.07476 0.51897 0.6145 0.0
C4100 C 0.06516 0.52497 0.60661 0.0
C4101 C 0.075 0.53768 0.59704 0.0
H4102 H 0.06711 0.50911 0.62189 0.0
H4103 H 0.16336 0.63328 0.52959 0.0
loop_
_geom_bond_atom_site_label_1
_geom_bond_atom_site_label_2
_geom_bond_distance
_geom_bond_site_symmetry_2
_ccdc_geom_bond_type
O0 Cd1 2.223 . S
O0 C8 1.315 . S
Cd1 O0 2.223 . S
Cd1 O4 2.297 . S
Cd1 O5 2.439 . S
Cd1 O11 2.240 . S
Cd2 O3 2.240 . S
Cd2 O10 2.223 1_455 S
Cd2 O12 2.294 1_455 S
Cd2 O13 2.439 . S
O3 Cd2 2.240 . S
O3 C8 1.279 . S
O4 Cd1 2.297 . S
O4 C6 1.247 . S
O5 Cd1 2.439 . S
O5 C6 1.208 . S
C6 O4 1.247 . S
C6 O5 1.208 . S
C7 O12 1.241 1_455 S
C7 O13 1.208 . S
C8 O0 1.315 . S
C8 O3 1.279 . S
C9 O10 1.315 . S
C9 O11 1.279 1_655 S
O10 Cd2 2.223 1_655 S
O10 C9 1.315 . S
O11 Cd1 2.240 . S
O11 C9 1.279 1_455 S
O12 Cd2 2.294 1_655 S
O12 C7 1.241 1_655 S
O13 Cd2 2.439 . S
O13 C7 1.208 . S
O14 Cd15 2.223 . S
O14 C22 1.315 . S
Cd15 O14 2.223 . S
Cd15 O18 2.297 . S
Cd15 O19 2.439 . S
Cd15 O25 2.240 . S
Cd16 O17 2.240 . S
Cd16 O24 2.223 . S
Cd16 O26 2.297 . S
Cd16 O27 2.439 . S
O17 Cd16 2.240 . S
O17 C22 1.279 . S
O18 Cd15 2.297 . S
O18 C20 1.247 . S
O19 Cd15 2.439 . S
O19 C20 1.208 . S
C20 O18 1.247 . S
C20 O19 1.208 . S
C21 O26 1.247 . S
C21 O27 1.208 . S
C22 O14 1.315 . S
C22 O17 1.279 . S
C23 O24 1.315 . S
C23 O25 1.279 . S
O24 Cd16 2.223 . S
O24 C23 1.315 . S
O25 Cd15 2.240 . S
O25 C23 1.279 . S
O26 Cd16 2.297 . S
O26 C21 1.247 . S
O27 Cd16 2.439 . S
O27 C21 1.208 . S
O28 Cd29 2.223 . S
O28 C36 1.315 . S
Cd29 O28 2.223 . S
Cd29 O32 2.297 1_545 S
Cd29 O33 2.439 1_545 S
Cd29 O39 2.240 . S
Cd30 O31 2.240 . S
Cd30 O38 2.223 . S
Cd30 O40 2.297 . S
Cd30 O41 2.439 . S
O31 Cd30 2.240 . S
O31 C36 1.279 . S
O32 Cd29 2.297 1_565 S
O32 C34 1.247 . S
O33 Cd29 2.439 1_565 S
O33 C34 1.208 . S
C34 O32 1.247 . S
C34 O33 1.208 . S
C35 O40 1.247 . S
C35 O41 1.208 . S
C36 O28 1.315 . S
C36 O31 1.279 . S
C37 O38 1.315 . S
C37 O39 1.279 . S
O38 Cd30 2.223 . S
O38 C37 1.315 . S
O39 Cd29 2.240 . S
O39 C37 1.279 . S
O40 Cd30 2.297 . S
O40 C35 1.247 . S
O41 Cd30 2.439 . S
O41 C35 1.208 . S
O42 Cd43 2.223 . S
O42 C50 1.315 . S
Cd43 O42 2.223 . S
Cd43 O46 2.297 . S
Cd43 O47 2.439 . S
Cd43 O53 2.240 . S
Cd44 O45 2.240 . S
Cd44 O52 2.223 1_545 S
Cd44 O54 2.294 1_545 S
Cd44 O55 2.439 . S
O45 Cd44 2.240 . S
O45 C50 1.279 . S
O46 Cd43 2.297 . S
O46 C48 1.247 . S
O47 Cd43 2.439 . S
O47 C48 1.208 . S
C48 O46 1.247 . S
C48 O47 1.208 . S
C49 O54 1.241 1_545 S
C49 O55 1.208 . S
C50 O42 1.315 . S
C50 O45 1.279 . S
C51 O52 1.315 . S
C51 O53 1.279 1_565 S
O52 Cd44 2.223 1_565 S
O52 C51 1.315 . S
O53 Cd43 2.240 . S
O53 C51 1.279 1_545 S
O54 Cd44 2.294 1_565 S
O54 C49 1.241 1_565 S
O55 Cd44 2.439 . S
O55 C49 1.208 . S
O56 Cd57 2.223 . S
O56 C64 1.315 . S
Cd57 O56 2.223 . S
Cd57 O60 2.297 1_455 S
Cd57 O61 2.439 1_455 S
Cd57 O67 2.240 . S
Cd58 O59 2.240 . S
Cd58 O66 2.223 . S
Cd58 O68 2.297 . S
Cd58 O69 2.439 . S
O59 Cd58 2.240 . S
O59 C64 1.279 . S
O60 Cd57 2.297 1_655 S
O60 C62 1.247 . S
O61 Cd57 2.439 1_655 S
O61 C62 1.208 . S
C62 O60 1.247 . S
C62 O61 1.208 . S
C63 O68 1.247 . S
C63 O69 1.208 . S
C64 O56 1.315 . S
C64 O59 1.279 . S
C65 O66 1.315 . S
C65 O67 1.279 . S
O66 Cd58 2.223 . S
O66 C65 1.315 . S
O67 Cd57 2.240 . S
O67 C65 1.279 . S
O68 Cd58 2.297 . S
O68 C63 1.247 . S
O69 Cd58 2.439 . S
O69 C63 1.208 . S
O70 Cd71 2.223 . S
O70 C78 1.315 . S
Cd71 O70 2.223 . S
Cd71 O74 2.297 . S
Cd71 O75 2.439 . S
Cd71 O81 2.240 . S
Cd72 O73 2.240 . S
Cd72 O80 2.223 . S
Cd72 O82 2.297 . S
Cd72 O83 2.439 . S
O73 Cd72 2.240 . S
O73 C78 1.279 . S
O74 Cd71 2.297 . S
O74 C76 1.247 . S
O75 Cd71 2.439 . S
O75 C76 1.208 . S
C76 O74 1.247 . S
C76 O75 1.208 . S
C77 O82 1.247 . S
C77 O83 1.208 . S
C78 O70 1.315 . S
C78 O73 1.279 . S
C79 O80 1.315 . S
C79 O81 1.279 . S
O80 Cd72 2.223 . S
O80 C79 1.315 . S
O81 Cd71 2.240 . S
O81 C79 1.279 . S
O82 Cd72 2.297 . S
O82 C77 1.247 . S
O83 Cd72 2.439 . S
O83 C77 1.208 . S
O84 Cd85 2.223 . S
O84 C92 1.315 . S
Cd85 O84 2.223 . S
Cd85 O88 2.297 1_455 S
Cd85 O89 2.439 1_455 S
Cd85 O95 2.240 . S
Cd86 O87 2.240 . S
Cd86 O94 2.223 . S
Cd86 O96 2.297 . S
Cd86 O97 2.439 . S
O87 Cd86 2.240 . S
O87 C92 1.279 . S
O88 Cd85 2.297 1_655 S
O88 C90 1.247 . S
O89 Cd85 2.439 1_655 S
O89 C90 1.208 . S
C90 O88 1.247 . S
C90 O89 1.208 . S
C91 O96 1.247 . S
C91 O97 1.208 . S
C92 O84 1.315 . S
C92 O87 1.279 . S
C93 O94 1.315 . S
C93 O95 1.279 . S
O94 Cd86 2.223 . S
O94 C93 1.315 . S
O95 Cd85 2.240 . S
O95 C93 1.279 . S
O96 Cd86 2.297 . S
O96 C91 1.247 . S
O97 Cd86 2.439 . S
O97 C91 1.208 . S
O98 Cd99 2.223 . S
O98 C106 1.315 . S
Cd99 O98 2.223 . S
Cd99 O102 2.297 . S
Cd99 O103 2.439 . S
Cd99 O109 2.240 . S
Cd100 O101 2.240 . S
Cd100 O108 2.223 . S
Cd100 O110 2.297 . S
Cd100 O111 2.439 . S
O101 Cd100 2.240 . S
O101 C106 1.279 . S
O102 Cd99 2.297 . S
O102 C104 1.247 . S
O103 Cd99 2.439 . S
O103 C104 1.208 . S
C104 O102 1.247 . S
C104 O103 1.208 . S
C105 O110 1.247 . S
C105 O111 1.208 . S
C106 O98 1.315 . S
C106 O101 1.279 . S
C107 O108 1.315 . S
C107 O109 1.279 . S
O108 Cd100 2.223 . S
O108 C107 1.315 . S
O109 Cd99 2.240 . S
O109 C107 1.279 . S
O110 Cd100 2.297 . S
O110 C105 1.247 . S
O111 Cd100 2.439 . S
O111 C105 1.208 . S
O112 Cd113 2.223 . S
O112 C120 1.315 . S
Cd113 O112 2.223 . S
Cd113 O116 2.297 . S
Cd113 O117 2.439 . S
Cd113 O123 2.240 . S
Cd114 O115 2.240 . S
Cd114 O122 2.223 1_545 S
Cd114 O124 2.296 1_545 S
Cd114 O125 2.439 . S
O115 Cd114 2.240 . S
O115 C120 1.279 . S
O116 Cd113 2.297 . S
O116 C118 1.247 . S
O117 Cd113 2.439 . S
O117 C118 1.208 . S
C118 O116 1.247 . S
C118 O117 1.208 . S
C119 O124 1.244 1_545 S
C119 O125 1.208 . S
C120 O112 1.315 . S
C120 O115 1.279 . S
C121 O122 1.315 . S
C121 O123 1.279 1_565 S
O122 Cd114 2.223 1_565 S
O122 C121 1.315 . S
O123 Cd113 2.240 . S
O123 C121 1.279 1_545 S
O124 Cd114 2.296 1_565 S
O124 C119 1.244 1_565 S
O125 Cd114 2.439 . S
O125 C119 1.208 . S
O126 Cd127 2.223 . S
O126 C134 1.315 . S
Cd127 O126 2.223 . S
Cd127 O130 2.297 1_545 S
Cd127 O131 2.439 1_545 S
Cd127 O137 2.240 . S
Cd128 O129 2.240 . S
Cd128 O136 2.223 . S
Cd128 O138 2.297 . S
Cd128 O139 2.439 . S
O129 Cd128 2.240 . S
O129 C134 1.279 . S
O130 Cd127 2.297 1_565 S
O130 C132 1.247 . S
O131 Cd127 2.439 1_565 S
O131 C132 1.208 . S
C132 O130 1.247 . S
C132 O131 1.208 . S
C133 O138 1.247 . S
C133 O139 1.208 . S
C134 O126 1.315 . S
C134 O129 1.279 . S
C135 O136 1.315 . S
C135 O137 1.279 . S
O136 Cd128 2.223 . S
O136 C135 1.315 . S
O137 Cd127 2.240 . S
O137 C135 1.279 . S
O138 Cd128 2.297 . S
O138 C133 1.247 . S
O139 Cd128 2.439 . S
O139 C133 1.208 . S
O140 Cd141 2.223 . S
O140 C148 1.315 . S
Cd141 O140 2.223 . S
Cd141 O144 2.297 . S
Cd141 O145 2.439 . S
Cd141 O151 2.240 . S
Cd142 O143 2.240 . S
Cd142 O150 2.223 1_455 S
Cd142 O152 2.296 1_455 S
Cd142 O153 2.439 . S
O143 Cd142 2.240 . S
O143 C148 1.279 . S
O144 Cd141 2.297 . S
O144 C146 1.247 . S
O145 Cd141 2.439 . S
O145 C146 1.208 . S
C146 O144 1.247 . S
C146 O145 1.208 . S
C147 O152 1.244 1_455 S
C147 O153 1.208 . S
C148 O140 1.315 . S
C148 O143 1.279 . S
C149 O150 1.315 . S
C149 O151 1.279 1_655 S
O150 Cd142 2.223 1_655 S
O150 C149 1.315 . S
O151 Cd141 2.240 . S
O151 C149 1.279 1_455 S
O152 Cd142 2.296 1_655 S
O152 C147 1.244 1_655 S
O153 Cd142 2.439 . S
O153 C147 1.208 . S
O154 Cd155 2.223 . S
O154 C162 1.315 . S
Cd155 O154 2.223 . S
Cd155 O158 2.297 . S
Cd155 O159 2.439 . S
Cd155 O165 2.240 . S
Cd156 O157 2.240 . S
Cd156 O164 2.223 . S
Cd156 O166 2.297 . S
Cd156 O167 2.439 . S
O157 Cd156 2.240 . S
O157 C162 1.279 . S
O158 Cd155 2.297 . S
O158 C160 1.247 . S
O159 Cd155 2.439 . S
O159 C160 1.208 . S
C160 O158 1.247 . S
C160 O159 1.208 . S
C161 O166 1.247 . S
C161 O167 1.208 . S
C162 O154 1.315 . S
C162 O157 1.279 . S
C163 O164 1.315 . S
C163 O165 1.279 . S
O164 Cd156 2.223 . S
O164 C163 1.315 . S
O165 Cd155 2.240 . S
O165 C163 1.279 . S
O166 Cd156 2.297 . S
O166 C161 1.247 . S
O167 Cd156 2.439 . S
O167 C161 1.208 . S
O168 Cd169 2.223 . S
O168 C176 1.315 . S
Cd169 O168 2.223 . S
Cd169 O172 2.297 . S
Cd169 O173 2.439 . S
Cd169 O179 2.240 . S
Cd170 O171 2.240 . S
Cd170 O178 2.223 . S
Cd170 O180 2.297 . S
Cd170 O181 2.439 . S
O171 Cd170 2.240 . S
O171 C176 1.279 . S
O172 Cd169 2.297 . S
O172 C174 1.247 . S
O173 Cd169 2.439 . S
O173 C174 1.208 . S
C174 O172 1.247 . S
C174 O173 1.208 . S
C175 O180 1.247 . S
C175 O181 1.208 . S
C176 O168 1.315 . S
C176 O171 1.279 . S
C177 O178 1.315 . S
C177 O179 1.279 . S
O178 Cd170 2.223 . S
O178 C177 1.315 . S
O179 Cd169 2.240 . S
O179 C177 1.279 . S
O180 Cd170 2.297 . S
O180 C175 1.247 . S
O181 Cd170 2.439 . S
O181 C175 1.208 . S
O182 Cd183 2.223 . S
O182 C190 1.315 . S
Cd183 O182 2.223 . S
Cd183 O186 2.297 . S
Cd183 O187 2.439 . S
Cd183 O193 2.240 . S
Cd184 O185 2.240 . S
Cd184 O192 2.223 . S
Cd184 O194 2.297 . S
Cd184 O195 2.439 . S
O185 Cd184 2.240 . S
O185 C190 1.279 . S
O186 Cd183 2.297 . S
O186 C188 1.247 . S
O187 Cd183 2.439 . S
O187 C188 1.208 . S
C188 O186 1.247 . S
C188 O187 1.208 . S
C189 O194 1.247 . S
C189 O195 1.208 . S
C190 O182 1.315 . S
C190 O185 1.279 . S
C191 O192 1.315 . S
C191 O193 1.279 . S
O192 Cd184 2.223 . S
O192 C191 1.315 . S
O193 Cd183 2.240 . S
O193 C191 1.279 . S
O194 Cd184 2.297 . S
O194 C189 1.247 . S
O195 Cd184 2.439 . S
O195 C189 1.208 . S
O196 Cd197 2.223 . S
O196 C204 1.315 . S
Cd197 O196 2.223 . S
Cd197 O200 2.297 . S
Cd197 O201 2.439 . S
Cd197 O207 2.240 . S
Cd198 O199 2.240 . S
Cd198 O206 2.223 . S
Cd198 O208 2.297 . S
Cd198 O209 2.439 . S
O199 Cd198 2.240 . S
O199 C204 1.279 . S
O200 Cd197 2.297 . S
O200 C202 1.247 . S
O201 Cd197 2.439 . S
O201 C202 1.208 . S
C202 O200 1.247 . S
C202 O201 1.208 . S
C203 O208 1.247 . S
C203 O209 1.208 . S
C204 O196 1.315 . S
C204 O199 1.279 . S
C205 O206 1.315 . S
C205 O207 1.279 . S
O206 Cd198 2.223 . S
O206 C205 1.315 . S
O207 Cd197 2.240 . S
O207 C205 1.279 . S
O208 Cd198 2.297 . S
O208 C203 1.247 . S
O209 Cd198 2.439 . S
O209 C203 1.208 . S
O210 Cd211 2.223 . S
O210 C218 1.315 . S
Cd211 O210 2.223 . S
Cd211 O214 2.297 . S
Cd211 O215 2.439 . S
Cd211 O221 2.240 . S
Cd212 O213 2.240 . S
Cd212 O220 2.223 . S
Cd212 O222 2.297 . S
Cd212 O223 2.439 . S
O213 Cd212 2.240 . S
O213 C218 1.279 . S
O214 Cd211 2.297 . S
O214 C216 1.247 . S
O215 Cd211 2.439 . S
O215 C216 1.208 . S
C216 O214 1.247 . S
C216 O215 1.208 . S
C217 O222 1.247 . S
C217 O223 1.208 . S
C218 O210 1.315 . S
C218 O213 1.279 . S
C219 O220 1.315 . S
C219 O221 1.279 . S
O220 Cd212 2.223 . S
O220 C219 1.315 . S
O221 Cd211 2.240 . S
O221 C219 1.279 . S
O222 Cd212 2.297 . S
O222 C217 1.247 . S
O223 Cd212 2.439 . S
O223 C217 1.208 . S
O224 Cd225 2.223 . S
O224 C232 1.315 . S
Cd225 O224 2.223 . S
Cd225 O228 2.297 . S
Cd225 O229 2.439 . S
Cd225 O235 2.240 . S
Cd226 O227 2.240 . S
Cd226 O234 2.223 . S
Cd226 O236 2.297 . S
Cd226 O237 2.439 . S
O227 Cd226 2.240 . S
O227 C232 1.279 . S
O228 Cd225 2.297 . S
O228 C230 1.247 . S
O229 Cd225 2.439 . S
O229 C230 1.208 . S
C230 O228 1.247 . S
C230 O229 1.208 . S
C231 O236 1.247 . S
C231 O237 1.208 . S
C232 O224 1.315 . S
C232 O227 1.279 . S
C233 O234 1.315 . S
C233 O235 1.279 . S
O234 Cd226 2.223 . S
O234 C233 1.315 . S
O235 Cd225 2.240 . S
O235 C233 1.279 . S
O236 Cd226 2.297 . S
O236 C231 1.247 . S
O237 Cd226 2.439 . S
O237 C231 1.208 . S
O238 Cd239 2.223 . S
O238 C246 1.315 . S
Cd239 O238 2.223 . S
Cd239 O242 2.297 . S
Cd239 O243 2.439 . S
Cd239 O249 2.240 . S
Cd240 O241 2.240 . S
Cd240 O248 2.223 . S
Cd240 O250 2.297 . S
Cd240 O251 2.439 . S
O241 Cd240 2.240 . S
O241 C246 1.279 . S
O242 Cd239 2.297 . S
O242 C244 1.247 . S
O243 Cd239 2.439 . S
O243 C244 1.208 . S
C244 O242 1.247 . S
C244 O243 1.208 . S
C245 O250 1.247 . S
C245 O251 1.208 . S
C246 O238 1.315 . S
C246 O241 1.279 . S
C247 O248 1.315 . S
C247 O249 1.279 . S
O248 Cd240 2.223 . S
O248 C247 1.315 . S
O249 Cd239 2.240 . S
O249 C247 1.279 . S
O250 Cd240 2.297 . S
O250 C245 1.247 . S
O251 Cd240 2.439 . S
O251 C245 1.208 . S
O252 Cd253 2.223 . S
O252 C260 1.315 . S
Cd253 O252 2.223 . S
Cd253 O256 2.297 . S
Cd253 O257 2.439 . S
Cd253 O263 2.240 . S
Cd254 O255 2.240 . S
Cd254 O262 2.223 . S
Cd254 O264 2.297 . S
Cd254 O265 2.439 . S
O255 Cd254 2.240 . S
O255 C260 1.279 . S
O256 Cd253 2.297 . S
O256 C258 1.247 . S
O257 Cd253 2.439 . S
O257 C258 1.208 . S
C258 O256 1.247 . S
C258 O257 1.208 . S
C259 O264 1.247 . S
C259 O265 1.208 . S
C260 O252 1.315 . S
C260 O255 1.279 . S
C261 O262 1.315 . S
C261 O263 1.279 . S
O262 Cd254 2.223 . S
O262 C261 1.315 . S
O263 Cd253 2.240 . S
O263 C261 1.279 . S
O264 Cd254 2.297 . S
O264 C259 1.247 . S
O265 Cd254 2.439 . S
O265 C259 1.208 . S
O266 Cd267 2.223 . S
O266 C274 1.315 . S
Cd267 O266 2.223 . S
Cd267 O270 2.297 . S
Cd267 O271 2.439 . S
Cd267 O277 2.240 . S
Cd268 O269 2.240 . S
Cd268 O276 2.223 . S
Cd268 O278 2.297 . S
Cd268 O279 2.439 . S
O269 Cd268 2.240 . S
O269 C274 1.279 . S
O270 Cd267 2.297 . S
O270 C272 1.247 . S
O271 Cd267 2.439 . S
O271 C272 1.208 . S
C272 O270 1.247 . S
C272 O271 1.208 . S
C273 O278 1.247 . S
C273 O279 1.208 . S
C274 O266 1.315 . S
C274 O269 1.279 . S
C275 O276 1.315 . S
C275 O277 1.279 . S
O276 Cd268 2.223 . S
O276 C275 1.315 . S
O277 Cd267 2.240 . S
O277 C275 1.279 . S
O278 Cd268 2.297 . S
O278 C273 1.247 . S
O279 Cd268 2.439 . S
O279 C273 1.208 . S
O280 Cd281 2.223 . S
O280 C288 1.315 . S
Cd281 O280 2.223 . S
Cd281 O284 2.297 . S
Cd281 O285 2.439 . S
Cd281 O291 2.240 . S
Cd282 O283 2.240 . S
Cd282 O290 2.223 . S
Cd282 O292 2.297 . S
Cd282 O293 2.439 . S
O283 Cd282 2.240 . S
O283 C288 1.279 . S
O284 Cd281 2.297 . S
O284 C286 1.247 . S
O285 Cd281 2.439 . S
O285 C286 1.208 . S
C286 O284 1.247 . S
C286 O285 1.208 . S
C287 O292 1.247 . S
C287 O293 1.208 . S
C288 O280 1.315 . S
C288 O283 1.279 . S
C289 O290 1.315 . S
C289 O291 1.279 . S
O290 Cd282 2.223 . S
O290 C289 1.315 . S
O291 Cd281 2.240 . S
O291 C289 1.279 . S
O292 Cd282 2.297 . S
O292 C287 1.247 . S
O293 Cd282 2.439 . S
O293 C287 1.208 . S
O294 Cd295 2.223 . S
O294 C302 1.315 . S
Cd295 O294 2.223 . S
Cd295 O298 2.297 . S
Cd295 O299 2.439 . S
Cd295 O305 2.240 . S
Cd296 O297 2.240 . S
Cd296 O304 2.223 . S
Cd296 O306 2.297 . S
Cd296 O307 2.439 . S
O297 Cd296 2.240 . S
O297 C302 1.279 . S
O298 Cd295 2.297 . S
O298 C300 1.247 . S
O299 Cd295 2.439 . S
O299 C300 1.208 . S
C300 O298 1.247 . S
C300 O299 1.208 . S
C301 O306 1.247 . S
C301 O307 1.208 . S
C302 O294 1.315 . S
C302 O297 1.279 . S
C303 O304 1.315 . S
C303 O305 1.279 . S
O304 Cd296 2.223 . S
O304 C303 1.315 . S
O305 Cd295 2.240 . S
O305 C303 1.279 . S
O306 Cd296 2.297 . S
O306 C301 1.247 . S
O307 Cd296 2.439 . S
O307 C301 1.208 . S
O308 Cd309 2.223 . S
O308 C316 1.315 . S
Cd309 O308 2.223 . S
Cd309 O312 2.297 . S
Cd309 O313 2.439 . S
Cd309 O319 2.240 . S
Cd310 O311 2.240 . S
Cd310 O318 2.223 . S
Cd310 O320 2.297 . S
Cd310 O321 2.439 . S
O311 Cd310 2.240 . S
O311 C316 1.279 . S
O312 Cd309 2.297 . S
O312 C314 1.247 . S
O313 Cd309 2.439 . S
O313 C314 1.208 . S
C314 O312 1.247 . S
C314 O313 1.208 . S
C315 O320 1.247 . S
C315 O321 1.208 . S
C316 O308 1.315 . S
C316 O311 1.279 . S
C317 O318 1.315 . S
C317 O319 1.279 . S
O318 Cd310 2.223 . S
O318 C317 1.315 . S
O319 Cd309 2.240 . S
O319 C317 1.279 . S
O320 Cd310 2.297 . S
O320 C315 1.247 . S
O321 Cd310 2.439 . S
O321 C315 1.208 . S
O322 Cd323 2.223 . S
O322 C330 1.315 . S
Cd323 O322 2.223 . S
Cd323 O326 2.297 . S
Cd323 O327 2.439 . S
Cd323 O333 2.240 . S
Cd324 O325 2.240 . S
Cd324 O332 2.223 . S
Cd324 O334 2.297 . S
Cd324 O335 2.439 . S
O325 Cd324 2.240 . S
O325 C330 1.279 . S
O326 Cd323 2.297 . S
O326 C328 1.247 . S
O327 Cd323 2.439 . S
O327 C328 1.208 . S
C328 O326 1.247 . S
C328 O327 1.208 . S
C329 O334 1.247 . S
C329 O335 1.208 . S
C330 O322 1.315 . S
C330 O325 1.279 . S
C331 O332 1.315 . S
C331 O333 1.279 . S
O332 Cd324 2.223 . S
O332 C331 1.315 . S
O333 Cd323 2.240 . S
O333 C331 1.279 . S
O334 Cd324 2.297 . S
O334 C329 1.247 . S
O335 Cd324 2.439 . S
O335 C329 1.208 . S
O336 Cd337 2.223 . S
O336 C344 1.315 . S
Cd337 O336 2.223 . S
Cd337 O340 2.297 . S
Cd337 O341 2.439 . S
Cd337 O347 2.240 . S
Cd338 O339 2.240 . S
Cd338 O346 2.223 . S
Cd338 O348 2.297 . S
Cd338 O349 2.439 . S
O339 Cd338 2.240 . S
O339 C344 1.279 . S
O340 Cd337 2.297 . S
O340 C342 1.247 . S
O341 Cd337 2.439 . S
O341 C342 1.208 . S
C342 O340 1.247 . S
C342 O341 1.208 . S
C343 O348 1.247 . S
C343 O349 1.208 . S
C344 O336 1.315 . S
C344 O339 1.279 . S
C345 O346 1.315 . S
C345 O347 1.279 . S
O346 Cd338 2.223 . S
O346 C345 1.315 . S
O347 Cd337 2.240 . S
O347 C345 1.279 . S
O348 Cd338 2.297 . S
O348 C343 1.247 . S
O349 Cd338 2.439 . S
O349 C343 1.208 . S
O350 Cd351 2.223 . S
O350 C358 1.315 . S
Cd351 O350 2.223 . S
Cd351 O354 2.297 . S
Cd351 O355 2.439 . S
Cd351 O361 2.240 . S
Cd352 O353 2.240 . S
Cd352 O360 2.223 . S
Cd352 O362 2.297 . S
Cd352 O363 2.439 . S
O353 Cd352 2.240 . S
O353 C358 1.279 . S
O354 Cd351 2.297 . S
O354 C356 1.247 . S
O355 Cd351 2.439 . S
O355 C356 1.208 . S
C356 O354 1.247 . S
C356 O355 1.208 . S
C357 O362 1.247 . S
C357 O363 1.208 . S
C358 O350 1.315 . S
C358 O353 1.279 . S
C359 O360 1.315 . S
C359 O361 1.279 . S
O360 Cd352 2.223 . S
O360 C359 1.315 . S
O361 Cd351 2.240 . S
O361 C359 1.279 . S
O362 Cd352 2.297 . S
O362 C357 1.247 . S
O363 Cd352 2.439 . S
O363 C357 1.208 . S
O364 Cd365 2.223 . S
O364 C372 1.315 . S
Cd365 O364 2.223 . S
Cd365 O368 2.297 . S
Cd365 O369 2.439 . S
Cd365 O375 2.240 . S
Cd366 O367 2.240 . S
Cd366 O374 2.223 . S
Cd366 O376 2.297 . S
Cd366 O377 2.439 . S
O367 Cd366 2.240 . S
O367 C372 1.279 . S
O368 Cd365 2.297 . S
O368 C370 1.247 . S
O369 Cd365 2.439 . S
O369 C370 1.208 . S
C370 O368 1.247 . S
C370 O369 1.208 . S
C371 O376 1.247 . S
C371 O377 1.208 . S
C372 O364 1.315 . S
C372 O367 1.279 . S
C373 O374 1.315 . S
C373 O375 1.279 . S
O374 Cd366 2.223 . S
O374 C373 1.315 . S
O375 Cd365 2.240 . S
O375 C373 1.279 . S
O376 Cd366 2.297 . S
O376 C371 1.247 . S
O377 Cd366 2.439 . S
O377 C371 1.208 . S
O378 Cd379 2.223 . S
O378 C386 1.315 . S
Cd379 O378 2.223 . S
Cd379 O382 2.297 . S
Cd379 O383 2.439 . S
Cd379 O389 2.240 . S
Cd380 O381 2.240 . S
Cd380 O388 2.223 . S
Cd380 O390 2.297 . S
Cd380 O391 2.439 . S
O381 Cd380 2.240 . S
O381 C386 1.279 . S
O382 Cd379 2.297 . S
O382 C384 1.247 . S
O383 Cd379 2.439 . S
O383 C384 1.208 . S
C384 O382 1.247 . S
C384 O383 1.208 . S
C385 O390 1.247 . S
C385 O391 1.208 . S
C386 O378 1.315 . S
C386 O381 1.279 . S
C387 O388 1.315 . S
C387 O389 1.279 . S
O388 Cd380 2.223 . S
O388 C387 1.315 . S
O389 Cd379 2.240 . S
O389 C387 1.279 . S
O390 Cd380 2.297 . S
O390 C385 1.247 . S
O391 Cd380 2.439 . S
O391 C385 1.208 . S
O392 Cd393 2.223 . S
O392 C400 1.315 . S
Cd393 O392 2.223 . S
Cd393 O396 2.297 . S
Cd393 O397 2.439 . S
Cd393 O403 2.240 . S
Cd394 O395 2.240 . S
Cd394 O402 2.223 . S
Cd394 O404 2.297 . S
Cd394 O405 2.439 . S
O395 Cd394 2.240 . S
O395 C400 1.279 . S
O396 Cd393 2.297 . S
O396 C398 1.247 . S
O397 Cd393 2.439 . S
O397 C398 1.208 . S
C398 O396 1.247 . S
C398 O397 1.208 . S
C399 O404 1.247 . S
C399 O405 1.208 . S
C400 O392 1.315 . S
C400 O395 1.279 . S
C401 O402 1.315 . S
C401 O403 1.279 . S
O402 Cd394 2.223 . S
O402 C401 1.315 . S
O403 Cd393 2.240 . S
O403 C401 1.279 . S
O404 Cd394 2.297 . S
O404 C399 1.247 . S
O405 Cd394 2.439 . S
O405 C399 1.208 . S
O406 Cd407 2.223 . S
O406 C414 1.315 . S
Cd407 O406 2.223 . S
Cd407 O410 2.297 . S
Cd407 O411 2.439 . S
Cd407 O417 2.240 . S
Cd408 O409 2.240 . S
Cd408 O416 2.223 . S
Cd408 O418 2.297 . S
Cd408 O419 2.439 . S
O409 Cd408 2.240 . S
O409 C414 1.279 . S
O410 Cd407 2.297 . S
O410 C412 1.247 . S
O411 Cd407 2.439 . S
O411 C412 1.208 . S
C412 O410 1.247 . S
C412 O411 1.208 . S
C413 O418 1.247 . S
C413 O419 1.208 . S
C414 O406 1.315 . S
C414 O409 1.279 . S
C415 O416 1.315 . S
C415 O417 1.279 . S
O416 Cd408 2.223 . S
O416 C415 1.315 . S
O417 Cd407 2.240 . S
O417 C415 1.279 . S
O418 Cd408 2.297 . S
O418 C413 1.247 . S
O419 Cd408 2.439 . S
O419 C413 1.208 . S
O420 Cd421 2.223 . S
O420 C428 1.315 . S
Cd421 O420 2.223 . S
Cd421 O424 2.297 . S
Cd421 O425 2.439 . S
Cd421 O431 2.240 . S
Cd422 O423 2.240 . S
Cd422 O430 2.223 . S
Cd422 O432 2.297 . S
Cd422 O433 2.439 . S
O423 Cd422 2.240 . S
O423 C428 1.279 . S
O424 Cd421 2.297 . S
O424 C426 1.247 . S
O425 Cd421 2.439 . S
O425 C426 1.208 . S
C426 O424 1.247 . S
C426 O425 1.208 . S
C427 O432 1.247 . S
C427 O433 1.208 . S
C428 O420 1.315 . S
C428 O423 1.279 . S
C429 O430 1.315 . S
C429 O431 1.279 . S
O430 Cd422 2.223 . S
O430 C429 1.315 . S
O431 Cd421 2.240 . S
O431 C429 1.279 . S
O432 Cd422 2.297 . S
O432 C427 1.247 . S
O433 Cd422 2.439 . S
O433 C427 1.208 . S
O434 Cd435 2.223 . S
O434 C442 1.315 . S
Cd435 O434 2.223 . S
Cd435 O438 2.297 . S
Cd435 O439 2.439 . S
Cd435 O445 2.240 . S
Cd436 O437 2.240 . S
Cd436 O444 2.223 . S
Cd436 O446 2.297 . S
Cd436 O447 2.439 . S
O437 Cd436 2.240 . S
O437 C442 1.279 . S
O438 Cd435 2.297 . S
O438 C440 1.247 . S
O439 Cd435 2.439 . S
O439 C440 1.208 . S
C440 O438 1.247 . S
C440 O439 1.208 . S
C441 O446 1.247 . S
C441 O447 1.208 . S
C442 O434 1.315 . S
C442 O437 1.279 . S
C443 O444 1.315 . S
C443 O445 1.279 . S
O444 Cd436 2.223 . S
O444 C443 1.315 . S
O445 Cd435 2.240 . S
O445 C443 1.279 . S
O446 Cd436 2.297 . S
O446 C441 1.247 . S
O447 Cd436 2.439 . S
O447 C441 1.208 . S
O448 Cd449 2.223 . S
O448 C456 1.315 . S
Cd449 O448 2.223 . S
Cd449 O452 2.297 . S
Cd449 O453 2.439 . S
Cd449 O459 2.240 . S
Cd450 O451 2.240 . S
Cd450 O458 2.223 . S
Cd450 O460 2.297 . S
Cd450 O461 2.439 . S
O451 Cd450 2.240 . S
O451 C456 1.279 . S
O452 Cd449 2.297 . S
O452 C454 1.247 . S
O453 Cd449 2.439 . S
O453 C454 1.208 . S
C454 O452 1.247 . S
C454 O453 1.208 . S
C455 O460 1.247 . S
C455 O461 1.208 . S
C456 O448 1.315 . S
C456 O451 1.279 . S
C457 O458 1.315 . S
C457 O459 1.279 . S
O458 Cd450 2.223 . S
O458 C457 1.315 . S
O459 Cd449 2.240 . S
O459 C457 1.279 . S
O460 Cd450 2.297 . S
O460 C455 1.247 . S
O461 Cd450 2.439 . S
O461 C455 1.208 . S
O462 Cd463 2.223 . S
O462 C470 1.315 . S
Cd463 O462 2.223 . S
Cd463 O466 2.297 . S
Cd463 O467 2.439 . S
Cd463 O473 2.240 . S
Cd464 O465 2.240 . S
Cd464 O472 2.223 . S
Cd464 O474 2.297 . S
Cd464 O475 2.439 . S
O465 Cd464 2.240 . S
O465 C470 1.279 . S
O466 Cd463 2.297 . S
O466 C468 1.247 . S
O467 Cd463 2.439 . S
O467 C468 1.208 . S
C468 O466 1.247 . S
C468 O467 1.208 . S
C469 O474 1.247 . S
C469 O475 1.208 . S
C470 O462 1.315 . S
C470 O465 1.279 . S
C471 O472 1.315 . S
C471 O473 1.279 . S
O472 Cd464 2.223 . S
O472 C471 1.315 . S
O473 Cd463 2.240 . S
O473 C471 1.279 . S
O474 Cd464 2.297 . S
O474 C469 1.247 . S
O475 Cd464 2.439 . S
O475 C469 1.208 . S
O476 Cd477 2.223 . S
O476 C484 1.315 . S
Cd477 O476 2.223 . S
Cd477 O480 2.297 . S
Cd477 O481 2.439 . S
Cd477 O487 2.240 . S
Cd478 O479 2.240 . S
Cd478 O486 2.223 . S
Cd478 O488 2.297 . S
Cd478 O489 2.439 . S
O479 Cd478 2.240 . S
O479 C484 1.279 . S
O480 Cd477 2.297 . S
O480 C482 1.247 . S
O481 Cd477 2.439 . S
O481 C482 1.208 . S
C482 O480 1.247 . S
C482 O481 1.208 . S
C483 O488 1.247 . S
C483 O489 1.208 . S
C484 O476 1.315 . S
C484 O479 1.279 . S
C485 O486 1.315 . S
C485 O487 1.279 . S
O486 Cd478 2.223 . S
O486 C485 1.315 . S
O487 Cd477 2.240 . S
O487 C485 1.279 . S
O488 Cd478 2.297 . S
O488 C483 1.247 . S
O489 Cd478 2.439 . S
O489 C483 1.208 . S
O490 Cd491 2.223 . S
O490 C498 1.315 . S
Cd491 O490 2.223 . S
Cd491 O494 2.297 . S
Cd491 O495 2.439 . S
Cd491 O501 2.240 . S
Cd492 O493 2.240 . S
Cd492 O500 2.223 . S
Cd492 O502 2.297 . S
Cd492 O503 2.439 . S
O493 Cd492 2.240 . S
O493 C498 1.279 . S
O494 Cd491 2.297 . S
O494 C496 1.247 . S
O495 Cd491 2.439 . S
O495 C496 1.208 . S
C496 O494 1.247 . S
C496 O495 1.208 . S
C497 O502 1.247 . S
C497 O503 1.208 . S
C498 O490 1.315 . S
C498 O493 1.279 . S
C499 O500 1.315 . S
C499 O501 1.279 . S
O500 Cd492 2.223 . S
O500 C499 1.315 . S
O501 Cd491 2.240 . S
O501 C499 1.279 . S
O502 Cd492 2.297 . S
O502 C497 1.247 . S
O503 Cd492 2.439 . S
O503 C497 1.208 . S
H504 C522 0.951 . S
H505 C524 0.951 . S
H506 C526 0.950 . S
H507 C527 0.950 . S
H508 C529 0.950 . S
H509 C532 0.950 . S
H510 C533 0.950 . S
H511 C535 0.950 . S
H512 C536 0.950 . S
H513 C537 0.951 . S
H514 C539 0.951 . S
H515 C541 0.950 . S
H516 C542 0.950 . S
H517 C544 0.950 . S
H518 C547 0.950 . S
H519 C548 0.950 . S
H520 C550 0.950 . S
H521 C551 0.950 . S
C522 H504 0.951 . S
C522 C523 1.366 . S
C522 C524 1.388 . S
C523 C522 1.366 . S
C523 C527 1.385 . S
C524 H505 0.951 . S
C524 C522 1.388 . S
C524 C525 1.366 . S
C525 C524 1.366 . S
C525 C526 1.414 . S
C525 C528 1.499 . S
C526 H506 0.950 . S
C526 C525 1.414 . S
C526 C527 1.374 . S
C527 H507 0.950 . S
C527 C523 1.385 . S
C527 C526 1.374 . S
C528 C525 1.499 . S
C528 C529 1.373 . S
C528 C530 1.389 . S
C529 H508 0.950 . S
C529 C528 1.373 . S
C529 C545 1.377 . S
C530 C528 1.389 . S
C530 C531 1.524 . S
C530 C544 1.377 . S
C531 C530 1.524 . S
C531 C532 1.397 . S
C531 C536 1.363 . S
C532 H509 0.950 . S
C532 C531 1.397 . S
C532 C533 1.334 . S
C533 H510 0.950 . S
C533 C532 1.334 . S
C533 C534 1.287 . S
C534 C533 1.287 . S
C534 C535 1.524 . S
C534 H553 0.913 . S
C535 H511 0.950 . S
C535 C534 1.524 . S
C535 C536 1.415 . S
C536 H512 0.950 . S
C536 C531 1.363 . S
C536 C535 1.415 . S
C537 H513 0.951 . S
C537 C538 1.366 . S
C537 C539 1.388 . S
C538 C537 1.366 . S
C538 C542 1.385 . S
C539 H514 0.951 . S
C539 C537 1.388 . S
C539 C540 1.366 . S
C540 C539 1.366 . S
C540 C541 1.414 . S
C540 C543 1.499 . S
C541 H515 0.950 . S
C541 C540 1.414 . S
C541 C542 1.374 . S
C542 H516 0.950 . S
C542 C538 1.385 . S
C542 C541 1.374 . S
C543 C540 1.499 . S
C543 C544 1.373 . S
C543 C545 1.389 . S
C544 H517 0.950 . S
C544 C530 1.377 . S
C544 C543 1.373 . S
C545 C529 1.377 . S
C545 C543 1.389 . S
C545 C546 1.524 . S
C546 C545 1.524 . S
C546 C547 1.397 . S
C546 C551 1.363 . S
C547 H518 0.950 . S
C547 C546 1.397 . S
C547 C548 1.334 . S
C548 H519 0.950 . S
C548 C547 1.334 . S
C548 C549 1.287 . S
C549 C548 1.287 . S
C549 C550 1.524 . S
C549 H552 0.999 . S
C550 H520 0.950 . S
C550 C549 1.524 . S
C550 C551 1.415 . S
C551 H521 0.950 . S
C551 C546 1.363 . S
C551 C550 1.415 . S
H552 C549 0.999 . S
H553 C534 0.913 . S
H554 C572 0.951 . S
H555 C574 0.951 . S
H556 C576 0.950 . S
H557 C577 0.950 . S
H558 C579 0.950 . S
H559 C582 0.950 . S
H560 C583 0.950 . S
H561 C585 0.950 . S
H562 C586 0.950 . S
H563 C587 0.951 . S
H564 C589 0.951 . S
H565 C591 0.950 . S
H566 C592 0.950 . S
H567 C594 0.950 . S
H568 C597 0.950 . S
H569 C598 0.950 . S
H570 C600 0.950 . S
H571 C601 0.950 . S
C572 H554 0.951 . S
C572 C573 1.366 . S
C572 C574 1.388 . S
C573 C572 1.366 . S
C573 C577 1.385 . S
C574 H555 0.951 . S
C574 C572 1.388 . S
C574 C575 1.366 . S
C575 C574 1.366 . S
C575 C576 1.414 . S
C575 C578 1.499 . S
C576 H556 0.950 . S
C576 C575 1.414 . S
C576 C577 1.374 . S
C577 H557 0.950 . S
C577 C573 1.385 . S
C577 C576 1.374 . S
C578 C575 1.499 . S
C578 C579 1.373 . S
C578 C580 1.389 . S
C579 H558 0.950 . S
C579 C578 1.373 . S
C579 C595 1.377 . S
C580 C578 1.389 . S
C580 C581 1.524 . S
C580 C594 1.377 . S
C581 C580 1.524 . S
C581 C582 1.397 . S
C581 C586 1.363 . S
C582 H559 0.950 . S
C582 C581 1.397 . S
C582 C583 1.334 . S
C583 H560 0.950 . S
C583 C582 1.334 . S
C583 C584 1.287 . S
C584 C583 1.287 . S
C584 C585 1.524 . S
C584 H603 0.913 . S
C585 H561 0.950 . S
C585 C584 1.524 . S
C585 C586 1.415 . S
C586 H562 0.950 . S
C586 C581 1.363 . S
C586 C585 1.415 . S
C587 H563 0.951 . S
C587 C588 1.366 . S
C587 C589 1.388 . S
C588 C587 1.366 . S
C588 C592 1.385 . S
C589 H564 0.951 . S
C589 C587 1.388 . S
C589 C590 1.366 . S
C590 C589 1.366 . S
C590 C591 1.414 . S
C590 C593 1.499 . S
C591 H565 0.950 . S
C591 C590 1.414 . S
C591 C592 1.374 . S
C592 H566 0.950 . S
C592 C588 1.385 . S
C592 C591 1.374 . S
C593 C590 1.499 . S
C593 C594 1.373 . S
C593 C595 1.389 . S
C594 H567 0.950 . S
C594 C580 1.377 . S
C594 C593 1.373 . S
C595 C579 1.377 . S
C595 C593 1.389 . S
C595 C596 1.524 . S
C596 C595 1.524 . S
C596 C597 1.397 . S
C596 C601 1.363 . S
C597 H568 0.950 . S
C597 C596 1.397 . S
C597 C598 1.334 . S
C598 H569 0.950 . S
C598 C597 1.334 . S
C598 C599 1.287 . S
C599 C598 1.287 . S
C599 C600 1.524 . S
C599 H602 0.999 . S
C600 H570 0.950 . S
C600 C599 1.524 . S
C600 C601 1.415 . S
C601 H571 0.950 . S
C601 C596 1.363 . S
C601 C600 1.415 . S
H602 C599 0.999 . S
H603 C584 0.913 . S
H604 C622 0.951 . S
H605 C624 0.951 . S
H606 C626 0.950 . S
H607 C627 0.950 . S
H608 C629 0.950 . S
H609 C632 0.950 . S
H610 C633 0.950 . S
H611 C635 0.950 . S
H612 C636 0.950 . S
H613 C637 0.951 . S
H614 C639 0.951 . S
H615 C641 0.950 . S
H616 C642 0.950 . S
H617 C644 0.950 . S
H618 C647 0.950 . S
H619 C648 0.950 . S
H620 C650 0.950 . S
H621 C651 0.950 . S
C622 H604 0.951 . S
C622 C623 1.366 . S
C622 C624 1.388 . S
C623 C622 1.366 . S
C623 C627 1.385 . S
C624 H605 0.951 . S
C624 C622 1.388 . S
C624 C625 1.366 . S
C625 C624 1.366 . S
C625 C626 1.414 . S
C625 C628 1.499 . S
C626 H606 0.950 . S
C626 C625 1.414 . S
C626 C627 1.374 . S
C627 H607 0.950 . S
C627 C623 1.385 . S
C627 C626 1.374 . S
C628 C625 1.499 . S
C628 C629 1.373 . S
C628 C630 1.389 . S
C629 H608 0.950 . S
C629 C628 1.373 . S
C629 C645 1.377 . S
C630 C628 1.389 . S
C630 C631 1.524 . S
C630 C644 1.377 . S
C631 C630 1.524 . S
C631 C632 1.397 . S
C631 C636 1.363 . S
C632 H609 0.950 . S
C632 C631 1.397 . S
C632 C633 1.334 . S
C633 H610 0.950 . S
C633 C632 1.334 . S
C633 C634 1.287 . S
C634 C633 1.287 . S
C634 C635 1.524 . S
C634 H653 0.913 . S
C635 H611 0.950 . S
C635 C634 1.524 . S
C635 C636 1.415 . S
C636 H612 0.950 . S
C636 C631 1.363 . S
C636 C635 1.415 . S
C637 H613 0.951 . S
C637 C638 1.366 . S
C637 C639 1.388 . S
C638 C637 1.366 . S
C638 C642 1.385 . S
C639 H614 0.951 . S
C639 C637 1.388 . S
C639 C640 1.366 . S
C640 C639 1.366 . S
C640 C641 1.414 . S
C640 C643 1.499 . S
C641 H615 0.950 . S
C641 C640 1.414 . S
C641 C642 1.374 . S
C642 H616 0.950 . S
C642 C638 1.385 . S
C642 C641 1.374 . S
C643 C640 1.499 . S
C643 C644 1.373 . S
C643 C645 1.389 . S
C644 H617 0.950 . S
C644 C630 1.377 . S
C644 C643 1.373 . S
C645 C629 1.377 . S
C645 C643 1.389 . S
C645 C646 1.524 . S
C646 C645 1.524 . S
C646 C647 1.397 . S
C646 C651 1.363 . S
C647 H618 0.950 . S
C647 C646 1.397 . S
C647 C648 1.334 . S
C648 H619 0.950 . S
C648 C647 1.334 . S
C648 C649 1.287 . S
C649 C648 1.287 . S
C649 C650 1.524 . S
C649 H652 0.999 . S
C650 H620 0.950 . S
C650 C649 1.524 . S
C650 C651 1.415 . S
C651 H621 0.950 . S
C651 C646 1.363 . S
C651 C650 1.415 . S
H652 C649 0.999 . S
H653 C634 0.913 . S
H654 C672 0.951 . S
H655 C674 0.951 . S
H656 C676 0.950 . S
H657 C677 0.950 . S
H658 C679 0.950 . S
H659 C682 0.950 . S
H660 C683 0.950 . S
H661 C685 0.950 . S
H662 C686 0.950 . S
H663 C687 0.951 . S
H664 C689 0.951 . S
H665 C691 0.950 . S
H666 C692 0.950 . S
H667 C694 0.950 . S
H668 C697 0.950 . S
H669 C698 0.950 . S
H670 C700 0.950 . S
H671 C701 0.950 . S
C672 H654 0.951 . S
C672 C673 1.366 . S
C672 C674 1.388 . S
C673 C672 1.366 . S
C673 C677 1.385 . S
C674 H655 0.951 . S
C674 C672 1.388 . S
C674 C675 1.366 . S
C675 C674 1.366 . S
C675 C676 1.414 . S
C675 C678 1.499 . S
C676 H656 0.950 . S
C676 C675 1.414 . S
C676 C677 1.374 . S
C677 H657 0.950 . S
C677 C673 1.385 . S
C677 C676 1.374 . S
C678 C675 1.499 . S
C678 C679 1.373 . S
C678 C680 1.389 . S
C679 H658 0.950 . S
C679 C678 1.373 . S
C679 C695 1.377 . S
C680 C678 1.389 . S
C680 C681 1.524 . S
C680 C694 1.377 . S
C681 C680 1.524 . S
C681 C682 1.397 . S
C681 C686 1.363 . S
C682 H659 0.950 . S
C682 C681 1.397 . S
C682 C683 1.334 . S
C683 H660 0.950 . S
C683 C682 1.334 . S
C683 C684 1.287 . S
C684 C683 1.287 . S
C684 C685 1.524 . S
C684 H703 0.913 . S
C685 H661 0.950 . S
C685 C684 1.524 . S
C685 C686 1.415 . S
C686 H662 0.950 . S
C686 C681 1.363 . S
C686 C685 1.415 . S
C687 H663 0.951 . S
C687 C688 1.366 . S
C687 C689 1.388 . S
C688 C687 1.366 . S
C688 C692 1.385 . S
C689 H664 0.951 . S
C689 C687 1.388 . S
C689 C690 1.366 . S
C690 C689 1.366 . S
C690 C691 1.414 . S
C690 C693 1.499 . S
C691 H665 0.950 . S
C691 C690 1.414 . S
C691 C692 1.374 . S
C692 H666 0.950 . S
C692 C688 1.385 . S
C692 C691 1.374 . S
C693 C690 1.499 . S
C693 C694 1.373 . S
C693 C695 1.389 . S
C694 H667 0.950 . S
C694 C680 1.377 . S
C694 C693 1.373 . S
C695 C679 1.377 . S
C695 C693 1.389 . S
C695 C696 1.524 . S
C696 C695 1.524 . S
C696 C697 1.397 . S
C696 C701 1.363 . S
C697 H668 0.950 . S
C697 C696 1.397 . S
C697 C698 1.334 . S
C698 H669 0.950 . S
C698 C697 1.334 . S
C698 C699 1.287 . S
C699 C698 1.287 . S
C699 C700 1.524 . S
C699 H702 0.999 . S
C700 H670 0.950 . S
C700 C699 1.524 . S
C700 C701 1.415 . S
C701 H671 0.950 . S
C701 C696 1.363 . S
C701 C700 1.415 . S
H702 C699 0.999 . S
H703 C684 0.913 . S
H704 C722 0.951 . S
H705 C724 0.951 . S
H706 C726 0.950 . S
H707 C727 0.950 . S
H708 C729 0.950 . S
H709 C732 0.950 . S
H710 C733 0.950 . S
H711 C735 0.950 . S
H712 C736 0.950 . S
H713 C737 0.951 . S
H714 C739 0.951 . S
H715 C741 0.950 . S
H716 C742 0.950 . S
H717 C744 0.950 . S
H718 C747 0.950 . S
H719 C748 0.950 . S
H720 C750 0.950 . S
H721 C751 0.950 . S
C722 H704 0.951 . S
C722 C723 1.366 . S
C722 C724 1.388 . S
C723 C722 1.366 . S
C723 C727 1.385 . S
C724 H705 0.951 . S
C724 C722 1.388 . S
C724 C725 1.366 . S
C725 C724 1.366 . S
C725 C726 1.414 . S
C725 C728 1.499 . S
C726 H706 0.950 . S
C726 C725 1.414 . S
C726 C727 1.374 . S
C727 H707 0.950 . S
C727 C723 1.385 . S
C727 C726 1.374 . S
C728 C725 1.499 . S
C728 C729 1.373 . S
C728 C730 1.389 . S
C729 H708 0.950 . S
C729 C728 1.373 . S
C729 C745 1.377 . S
C730 C728 1.389 . S
C730 C731 1.524 . S
C730 C744 1.377 . S
C731 C730 1.524 . S
C731 C732 1.397 . S
C731 C736 1.363 . S
C732 H709 0.950 . S
C732 C731 1.397 . S
C732 C733 1.334 . S
C733 H710 0.950 . S
C733 C732 1.334 . S
C733 C734 1.287 . S
C734 C733 1.287 . S
C734 C735 1.524 . S
C734 H753 0.913 . S
C735 H711 0.950 . S
C735 C734 1.524 . S
C735 C736 1.415 . S
C736 H712 0.950 . S
C736 C731 1.363 . S
C736 C735 1.415 . S
C737 H713 0.951 . S
C737 C738 1.366 . S
C737 C739 1.388 . S
C738 C737 1.366 . S
C738 C742 1.385 . S
C739 H714 0.951 . S
C739 C737 1.388 . S
C739 C740 1.366 . S
C740 C739 1.366 . S
C740 C741 1.414 . S
C740 C743 1.499 . S
C741 H715 0.950 . S
C741 C740 1.414 . S
C741 C742 1.374 . S
C742 H716 0.950 . S
C742 C738 1.385 . S
C742 C741 1.374 . S
C743 C740 1.499 . S
C743 C744 1.373 . S
C743 C745 1.389 . S
C744 H717 0.950 . S
C744 C730 1.377 . S
C744 C743 1.373 . S
C745 C729 1.377 . S
C745 C743 1.389 . S
C745 C746 1.524 . S
C746 C745 1.524 . S
C746 C747 1.397 . S
C746 C751 1.363 . S
C747 H718 0.950 . S
C747 C746 1.397 . S
C747 C748 1.334 . S
C748 H719 0.950 . S
C748 C747 1.334 . S
C748 C749 1.287 . S
C749 C748 1.287 . S
C749 C750 1.524 . S
C749 H752 0.999 . S
C750 H720 0.950 . S
C750 C749 1.524 . S
C750 C751 1.415 . S
C751 H721 0.950 . S
C751 C746 1.363 . S
C751 C750 1.415 . S
H752 C749 0.999 . S
H753 C734 0.913 . S
H754 C772 0.951 . S
H755 C774 0.951 . S
H756 C776 0.950 . S
H757 C777 0.950 . S
H758 C779 0.950 . S
H759 C782 0.950 . S
H760 C783 0.950 . S
H761 C785 0.950 . S
H762 C786 0.950 . S
H763 C787 0.951 . S
H764 C789 0.951 . S
H765 C791 0.950 . S
H766 C792 0.950 . S
H767 C794 0.950 . S
H768 C797 0.950 . S
H769 C798 0.950 . S
H770 C800 0.950 . S
H771 C801 0.950 . S
C772 H754 0.951 . S
C772 C773 1.366 . S
C772 C774 1.388 . S
C773 C772 1.366 . S
C773 C777 1.385 . S
C774 H755 0.951 . S
C774 C772 1.388 . S
C774 C775 1.366 . S
C775 C774 1.366 . S
C775 C776 1.414 . S
C775 C778 1.499 . S
C776 H756 0.950 . S
C776 C775 1.414 . S
C776 C777 1.374 . S
C777 H757 0.950 . S
C777 C773 1.385 . S
C777 C776 1.374 . S
C778 C775 1.499 . S
C778 C779 1.373 . S
C778 C780 1.389 . S
C779 H758 0.950 . S
C779 C778 1.373 . S
C779 C795 1.377 . S
C780 C778 1.389 . S
C780 C781 1.524 . S
C780 C794 1.377 . S
C781 C780 1.524 . S
C781 C782 1.397 . S
C781 C786 1.363 . S
C782 H759 0.950 . S
C782 C781 1.397 . S
C782 C783 1.334 . S
C783 H760 0.950 . S
C783 C782 1.334 . S
C783 C784 1.287 . S
C784 C783 1.287 . S
C784 C785 1.524 . S
C784 H803 0.913 . S
C785 H761 0.950 . S
C785 C784 1.524 . S
C785 C786 1.415 . S
C786 H762 0.950 . S
C786 C781 1.363 . S
C786 C785 1.415 . S
C787 H763 0.951 . S
C787 C788 1.366 . S
C787 C789 1.388 . S
C788 C787 1.366 . S
C788 C792 1.385 . S
C789 H764 0.951 . S
C789 C787 1.388 . S
C789 C790 1.366 . S
C790 C789 1.366 . S
C790 C791 1.414 . S
C790 C793 1.499 . S
C791 H765 0.950 . S
C791 C790 1.414 . S
C791 C792 1.374 . S
C792 H766 0.950 . S
C792 C788 1.385 . S
C792 C791 1.374 . S
C793 C790 1.499 . S
C793 C794 1.373 . S
C793 C795 1.389 . S
C794 H767 0.950 . S
C794 C780 1.377 . S
C794 C793 1.373 . S
C795 C779 1.377 . S
C795 C793 1.389 . S
C795 C796 1.524 . S
C796 C795 1.524 . S
C796 C797 1.397 . S
C796 C801 1.363 . S
C797 H768 0.950 . S
C797 C796 1.397 . S
C797 C798 1.334 . S
C798 H769 0.950 . S
C798 C797 1.334 . S
C798 C799 1.287 . S
C799 C798 1.287 . S
C799 C800 1.524 . S
C799 H802 0.999 . S
C800 H770 0.950 . S
C800 C799 1.524 . S
C800 C801 1.415 . S
C801 H771 0.950 . S
C801 C796 1.363 . S
C801 C800 1.415 . S
H802 C799 0.999 . S
H803 C784 0.913 . S
H804 C822 0.951 . S
H805 C824 0.951 . S
H806 C826 0.950 . S
H807 C827 0.950 . S
H808 C829 0.950 . S
H809 C832 0.950 . S
H810 C833 0.950 . S
H811 C835 0.950 . S
H812 C836 0.950 . S
H813 C837 0.951 . S
H814 C839 0.951 . S
H815 C841 0.950 . S
H816 C842 0.950 . S
H817 C844 0.950 . S
H818 C847 0.950 . S
H819 C848 0.950 . S
H820 C850 0.950 . S
H821 C851 0.950 . S
C822 H804 0.951 . S
C822 C823 1.366 . S
C822 C824 1.388 . S
C823 C822 1.366 . S
C823 C827 1.385 . S
C824 H805 0.951 . S
C824 C822 1.388 . S
C824 C825 1.366 . S
C825 C824 1.366 . S
C825 C826 1.414 . S
C825 C828 1.499 . S
C826 H806 0.950 . S
C826 C825 1.414 . S
C826 C827 1.374 . S
C827 H807 0.950 . S
C827 C823 1.385 . S
C827 C826 1.374 . S
C828 C825 1.499 . S
C828 C829 1.373 . S
C828 C830 1.389 . S
C829 H808 0.950 . S
C829 C828 1.373 . S
C829 C845 1.377 . S
C830 C828 1.389 . S
C830 C831 1.524 . S
C830 C844 1.377 . S
C831 C830 1.524 . S
C831 C832 1.397 . S
C831 C836 1.363 . S
C832 H809 0.950 . S
C832 C831 1.397 . S
C832 C833 1.334 . S
C833 H810 0.950 . S
C833 C832 1.334 . S
C833 C834 1.287 . S
C834 C833 1.287 . S
C834 C835 1.524 . S
C834 H853 0.913 . S
C835 H811 0.950 . S
C835 C834 1.524 . S
C835 C836 1.415 . S
C836 H812 0.950 . S
C836 C831 1.363 . S
C836 C835 1.415 . S
C837 H813 0.951 . S
C837 C838 1.366 . S
C837 C839 1.388 . S
C838 C837 1.366 . S
C838 C842 1.385 . S
C839 H814 0.951 . S
C839 C837 1.388 . S
C839 C840 1.366 . S
C840 C839 1.366 . S
C840 C841 1.414 . S
C840 C843 1.499 . S
C841 H815 0.950 . S
C841 C840 1.414 . S
C841 C842 1.374 . S
C842 H816 0.950 . S
C842 C838 1.385 . S
C842 C841 1.374 . S
C843 C840 1.499 . S
C843 C844 1.373 . S
C843 C845 1.389 . S
C844 H817 0.950 . S
C844 C830 1.377 . S
C844 C843 1.373 . S
C845 C829 1.377 . S
C845 C843 1.389 . S
C845 C846 1.524 . S
C846 C845 1.524 . S
C846 C847 1.397 . S
C846 C851 1.363 . S
C847 H818 0.950 . S
C847 C846 1.397 . S
C847 C848 1.334 . S
C848 H819 0.950 . S
C848 C847 1.334 . S
C848 C849 1.287 . S
C849 C848 1.287 . S
C849 C850 1.524 . S
C849 H852 0.999 . S
C850 H820 0.950 . S
C850 C849 1.524 . S
C850 C851 1.415 . S
C851 H821 0.950 . S
C851 C846 1.363 . S
C851 C850 1.415 . S
H852 C849 0.999 . S
H853 C834 0.913 . S
H854 C872 0.951 . S
H855 C874 0.951 . S
H856 C876 0.950 . S
H857 C877 0.950 . S
H858 C879 0.950 . S
H859 C882 0.950 . S
H860 C883 0.950 . S
H861 C885 0.950 . S
H862 C886 0.950 . S
H863 C887 0.951 . S
H864 C889 0.951 . S
H865 C891 0.950 . S
H866 C892 0.950 . S
H867 C894 0.950 . S
H868 C897 0.950 . S
H869 C898 0.950 . S
H870 C900 0.950 . S
H871 C901 0.950 . S
C872 H854 0.951 . S
C872 C873 1.366 . S
C872 C874 1.388 . S
C873 C872 1.366 . S
C873 C877 1.385 . S
C874 H855 0.951 . S
C874 C872 1.388 . S
C874 C875 1.366 . S
C875 C874 1.366 . S
C875 C876 1.414 . S
C875 C878 1.499 . S
C876 H856 0.950 . S
C876 C875 1.414 . S
C876 C877 1.374 . S
C877 H857 0.950 . S
C877 C873 1.385 . S
C877 C876 1.374 . S
C878 C875 1.499 . S
C878 C879 1.373 . S
C878 C880 1.389 . S
C879 H858 0.950 . S
C879 C878 1.373 . S
C879 C895 1.377 . S
C880 C878 1.389 . S
C880 C881 1.524 . S
C880 C894 1.377 . S
C881 C880 1.524 . S
C881 C882 1.397 . S
C881 C886 1.363 . S
C882 H859 0.950 . S
C882 C881 1.397 . S
C882 C883 1.334 . S
C883 H860 0.950 . S
C883 C882 1.334 . S
C883 C884 1.287 . S
C884 C883 1.287 . S
C884 C885 1.524 . S
C884 H903 0.913 . S
C885 H861 0.950 . S
C885 C884 1.524 . S
C885 C886 1.415 . S
C886 H862 0.950 . S
C886 C881 1.363 . S
C886 C885 1.415 . S
C887 H863 0.951 . S
C887 C888 1.366 . S
C887 C889 1.388 . S
C888 C887 1.366 . S
C888 C892 1.385 . S
C889 H864 0.951 . S
C889 C887 1.388 . S
C889 C890 1.366 . S
C890 C889 1.366 . S
C890 C891 1.414 . S
C890 C893 1.499 . S
C891 H865 0.950 . S
C891 C890 1.414 . S
C891 C892 1.374 . S
C892 H866 0.950 . S
C892 C888 1.385 . S
C892 C891 1.374 . S
C893 C890 1.499 . S
C893 C894 1.373 . S
C893 C895 1.389 . S
C894 H867 0.950 . S
C894 C880 1.377 . S
C894 C893 1.373 . S
C895 C879 1.377 . S
C895 C893 1.389 . S
C895 C896 1.524 . S
C896 C895 1.524 . S
C896 C897 1.397 . S
C896 C901 1.363 . S
C897 H868 0.950 . S
C897 C896 1.397 . S
C897 C898 1.334 . S
C898 H869 0.950 . S
C898 C897 1.334 . S
C898 C899 1.287 . S
C899 C898 1.287 . S
C899 C900 1.524 . S
C899 H902 0.999 . S
C900 H870 0.950 . S
C900 C899 1.524 . S
C900 C901 1.415 . S
C901 H871 0.950 . S
C901 C896 1.363 . S
C901 C900 1.415 . S
H902 C899 0.999 . S
H903 C884 0.913 . S
H904 C922 0.951 . S
H905 C924 0.951 . S
H906 C926 0.950 . S
H907 C927 0.950 . S
H908 C929 0.950 . S
H909 C932 0.950 . S
H910 C933 0.950 . S
H911 C935 0.950 . S
H912 C936 0.950 . S
H913 C937 0.951 . S
H914 C939 0.951 . S
H915 C941 0.950 . S
H916 C942 0.950 . S
H917 C944 0.950 . S
H918 C947 0.950 . S
H919 C948 0.950 . S
H920 C950 0.950 . S
H921 C951 0.950 . S
C922 H904 0.951 . S
C922 C923 1.366 . S
C922 C924 1.388 . S
C923 C922 1.366 . S
C923 C927 1.385 . S
C924 H905 0.951 . S
C924 C922 1.388 . S
C924 C925 1.366 . S
C925 C924 1.366 . S
C925 C926 1.414 . S
C925 C928 1.499 . S
C926 H906 0.950 . S
C926 C925 1.414 . S
C926 C927 1.374 . S
C927 H907 0.950 . S
C927 C923 1.385 . S
C927 C926 1.374 . S
C928 C925 1.499 . S
C928 C929 1.373 . S
C928 C930 1.389 . S
C929 H908 0.950 . S
C929 C928 1.373 . S
C929 C945 1.377 . S
C930 C928 1.389 . S
C930 C931 1.524 . S
C930 C944 1.377 . S
C931 C930 1.524 . S
C931 C932 1.397 . S
C931 C936 1.363 . S
C932 H909 0.950 . S
C932 C931 1.397 . S
C932 C933 1.334 . S
C933 H910 0.950 . S
C933 C932 1.334 . S
C933 C934 1.287 . S
C934 C933 1.287 . S
C934 C935 1.524 . S
C934 H953 0.913 . S
C935 H911 0.950 . S
C935 C934 1.524 . S
C935 C936 1.415 . S
C936 H912 0.950 . S
C936 C931 1.363 . S
C936 C935 1.415 . S
C937 H913 0.951 . S
C937 C938 1.366 . S
C937 C939 1.388 . S
C938 C937 1.366 . S
C938 C942 1.385 . S
C939 H914 0.951 . S
C939 C937 1.388 . S
C939 C940 1.366 . S
C940 C939 1.366 . S
C940 C941 1.414 . S
C940 C943 1.499 . S
C941 H915 0.950 . S
C941 C940 1.414 . S
C941 C942 1.374 . S
C942 H916 0.950 . S
C942 C938 1.385 . S
C942 C941 1.374 . S
C943 C940 1.499 . S
C943 C944 1.373 . S
C943 C945 1.389 . S
C944 H917 0.950 . S
C944 C930 1.377 . S
C944 C943 1.373 . S
C945 C929 1.377 . S
C945 C943 1.389 . S
C945 C946 1.524 . S
C946 C945 1.524 . S
C946 C947 1.397 . S
C946 C951 1.363 . S
C947 H918 0.950 . S
C947 C946 1.397 . S
C947 C948 1.334 . S
C948 H919 0.950 . S
C948 C947 1.334 . S
C948 C949 1.287 . S
C949 C948 1.287 . S
C949 C950 1.524 . S
C949 H952 0.999 . S
C950 H920 0.950 . S
C950 C949 1.524 . S
C950 C951 1.415 . S
C951 H921 0.950 . S
C951 C946 1.363 . S
C951 C950 1.415 . S
H952 C949 0.999 . S
H953 C934 0.913 . S
H954 C972 0.951 . S
H955 C974 0.951 . S
H956 C976 0.950 . S
H957 C977 0.950 . S
H958 C979 0.950 . S
H959 C982 0.950 . S
H960 C983 0.950 . S
H961 C985 0.950 . S
H962 C986 0.950 . S
H963 C987 0.951 . S
H964 C989 0.951 . S
H965 C991 0.950 . S
H966 C992 0.950 . S
H967 C994 0.950 . S
H968 C997 0.950 . S
H969 C998 0.950 1_455 S
H970 C1000 0.950 . S
H971 C1001 0.950 . S
C972 H954 0.951 . S
C972 C973 1.366 . S
C972 C974 1.388 . S
C973 C972 1.366 . S
C973 C977 1.385 . S
C974 H955 0.951 . S
C974 C972 1.388 . S
C974 C975 1.366 . S
C975 C974 1.366 . S
C975 C976 1.414 . S
C975 C978 1.499 . S
C976 H956 0.950 . S
C976 C975 1.414 . S
C976 C977 1.374 . S
C977 H957 0.950 . S
C977 C973 1.385 . S
C977 C976 1.374 . S
C978 C975 1.499 . S
C978 C979 1.373 . S
C978 C980 1.389 . S
C979 H958 0.950 . S
C979 C978 1.373 . S
C979 C995 1.377 . S
C980 C978 1.389 . S
C980 C981 1.524 . S
C980 C994 1.377 . S
C981 C980 1.524 . S
C981 C982 1.397 . S
C981 C986 1.363 . S
C982 H959 0.950 . S
C982 C981 1.397 . S
C982 C983 1.334 . S
C983 H960 0.950 . S
C983 C982 1.334 . S
C983 C984 1.287 . S
C984 C983 1.287 . S
C984 C985 1.524 . S
C984 H1003 0.913 . S
C985 H961 0.950 . S
C985 C984 1.524 . S
C985 C986 1.415 . S
C986 H962 0.950 . S
C986 C981 1.363 . S
C986 C985 1.415 . S
C987 H963 0.951 . S
C987 C988 1.366 . S
C987 C989 1.388 . S
C988 C987 1.366 . S
C988 C992 1.385 . S
C989 H964 0.951 . S
C989 C987 1.388 . S
C989 C990 1.366 . S
C990 C989 1.366 . S
C990 C991 1.414 . S
C990 C993 1.499 . S
C991 H965 0.950 . S
C991 C990 1.414 . S
C991 C992 1.374 . S
C992 H966 0.950 . S
C992 C988 1.385 . S
C992 C991 1.374 . S
C993 C990 1.499 . S
C993 C994 1.373 . S
C993 C995 1.389 . S
C994 H967 0.950 . S
C994 C980 1.377 . S
C994 C993 1.373 . S
C995 C979 1.377 . S
C995 C993 1.389 . S
C995 C996 1.524 . S
C996 C995 1.524 . S
C996 C997 1.397 . S
C996 C1001 1.363 . S
C997 H968 0.950 . S
C997 C996 1.397 . S
C997 C998 1.334 . S
C998 H969 0.950 1_655 S
C998 C997 1.334 . S
C998 C999 1.287 . S
C999 C998 1.287 . S
C999 C1000 1.524 . S
C999 H1002 0.999 . S
C1000 H970 0.950 . S
C1000 C999 1.524 . S
C1000 C1001 1.415 . S
C1001 H971 0.950 . S
C1001 C996 1.363 . S
C1001 C1000 1.415 . S
H1002 C999 0.999 . S
H1003 C984 0.913 . S
H1004 C1022 0.951 . S
H1005 C1024 0.951 . S
H1006 C1026 0.950 . S
H1007 C1027 0.950 . S
H1008 C1029 0.950 . S
H1009 C1032 0.950 . S
H1010 C1033 0.950 . S
H1011 C1035 0.950 . S
H1012 C1036 0.950 . S
H1013 C1037 0.951 . S
H1014 C1039 0.951 . S
H1015 C1041 0.950 . S
H1016 C1042 0.950 . S
H1017 C1044 0.950 . S
H1018 C1047 0.950 . S
H1019 C1048 0.950 . S
H1020 C1050 0.950 . S
H1021 C1051 0.950 . S
C1022 H1004 0.951 . S
C1022 C1023 1.366 . S
C1022 C1024 1.388 . S
C1023 C1022 1.366 . S
C1023 C1027 1.385 . S
C1024 H1005 0.951 . S
C1024 C1022 1.388 . S
C1024 C1025 1.366 . S
C1025 C1024 1.366 . S
C1025 C1026 1.414 . S
C1025 C1028 1.499 . S
C1026 H1006 0.950 . S
C1026 C1025 1.414 . S
C1026 C1027 1.374 . S
C1027 H1007 0.950 . S
C1027 C1023 1.385 . S
C1027 C1026 1.374 . S
C1028 C1025 1.499 . S
C1028 C1029 1.373 . S
C1028 C1030 1.389 . S
C1029 H1008 0.950 . S
C1029 C1028 1.373 . S
C1029 C1045 1.377 . S
C1030 C1028 1.389 . S
C1030 C1031 1.524 . S
C1030 C1044 1.377 . S
C1031 C1030 1.524 . S
C1031 C1032 1.397 . S
C1031 C1036 1.363 . S
C1032 H1009 0.950 . S
C1032 C1031 1.397 . S
C1032 C1033 1.334 . S
C1033 H1010 0.950 . S
C1033 C1032 1.334 . S
C1033 C1034 1.287 . S
C1034 C1033 1.287 . S
C1034 C1035 1.524 . S
C1034 H1053 0.913 . S
C1035 H1011 0.950 . S
C1035 C1034 1.524 . S
C1035 C1036 1.415 . S
C1036 H1012 0.950 . S
C1036 C1031 1.363 . S
C1036 C1035 1.415 . S
C1037 H1013 0.951 . S
C1037 C1038 1.366 . S
C1037 C1039 1.388 . S
C1038 C1037 1.366 . S
C1038 C1042 1.385 . S
C1039 H1014 0.951 . S
C1039 C1037 1.388 . S
C1039 C1040 1.366 . S
C1040 C1039 1.366 . S
C1040 C1041 1.414 . S
C1040 C1043 1.499 . S
C1041 H1015 0.950 . S
C1041 C1040 1.414 . S
C1041 C1042 1.374 . S
C1042 H1016 0.950 . S
C1042 C1038 1.385 . S
C1042 C1041 1.374 . S
C1043 C1040 1.499 . S
C1043 C1044 1.373 . S
C1043 C1045 1.389 . S
C1044 H1017 0.950 . S
C1044 C1030 1.377 . S
C1044 C1043 1.373 . S
C1045 C1029 1.377 . S
C1045 C1043 1.389 . S
C1045 C1046 1.524 . S
C1046 C1045 1.524 . S
C1046 C1047 1.397 . S
C1046 C1051 1.363 . S
C1047 H1018 0.950 . S
C1047 C1046 1.397 . S
C1047 C1048 1.334 . S
C1048 H1019 0.950 . S
C1048 C1047 1.334 . S
C1048 C1049 1.287 . S
C1049 C1048 1.287 . S
C1049 C1050 1.524 . S
C1049 H1052 0.999 . S
C1050 H1020 0.950 . S
C1050 C1049 1.524 . S
C1050 C1051 1.415 . S
C1051 H1021 0.950 . S
C1051 C1046 1.363 . S
C1051 C1050 1.415 . S
H1052 C1049 0.999 . S
H1053 C1034 0.913 . S
H1054 C1072 0.951 . S
H1055 C1074 0.951 . S
H1056 C1076 0.950 . S
H1057 C1077 0.950 . S
H1058 C1079 0.950 . S
H1059 C1082 0.950 . S
H1060 C1083 0.950 . S
H1061 C1085 0.950 . S
H1062 C1086 0.950 . S
H1063 C1087 0.951 . S
H1064 C1089 0.951 . S
H1065 C1091 0.950 . S
H1066 C1092 0.950 . S
H1067 C1094 0.950 . S
H1068 C1097 0.950 . S
H1069 C1098 0.950 . S
H1070 C1100 0.950 . S
H1071 C1101 0.950 . S
C1072 H1054 0.951 . S
C1072 C1073 1.366 . S
C1072 C1074 1.388 . S
C1073 C1072 1.366 . S
C1073 C1077 1.385 . S
C1074 H1055 0.951 . S
C1074 C1072 1.388 . S
C1074 C1075 1.366 . S
C1075 C1074 1.366 . S
C1075 C1076 1.414 . S
C1075 C1078 1.499 . S
C1076 H1056 0.950 . S
C1076 C1075 1.414 . S
C1076 C1077 1.374 . S
C1077 H1057 0.950 . S
C1077 C1073 1.385 . S
C1077 C1076 1.374 . S
C1078 C1075 1.499 . S
C1078 C1079 1.373 . S
C1078 C1080 1.389 . S
C1079 H1058 0.950 . S
C1079 C1078 1.373 . S
C1079 C1095 1.377 . S
C1080 C1078 1.389 . S
C1080 C1081 1.524 . S
C1080 C1094 1.377 . S
C1081 C1080 1.524 . S
C1081 C1082 1.397 . S
C1081 C1086 1.363 . S
C1082 H1059 0.950 . S
C1082 C1081 1.397 . S
C1082 C1083 1.334 . S
C1083 H1060 0.950 . S
C1083 C1082 1.334 . S
C1083 C1084 1.287 . S
C1084 C1083 1.287 . S
C1084 C1085 1.524 . S
C1084 H1103 0.913 . S
C1085 H1061 0.950 . S
C1085 C1084 1.524 . S
C1085 C1086 1.415 . S
C1086 H1062 0.950 . S
C1086 C1081 1.363 . S
C1086 C1085 1.415 . S
C1087 H1063 0.951 . S
C1087 C1088 1.366 . S
C1087 C1089 1.388 . S
C1088 C1087 1.366 . S
C1088 C1092 1.385 . S
C1089 H1064 0.951 . S
C1089 C1087 1.388 . S
C1089 C1090 1.366 . S
C1090 C1089 1.366 . S
C1090 C1091 1.414 . S
C1090 C1093 1.499 . S
C1091 H1065 0.950 . S
C1091 C1090 1.414 . S
C1091 C1092 1.374 . S
C1092 H1066 0.950 . S
C1092 C1088 1.385 . S
C1092 C1091 1.374 . S
C1093 C1090 1.499 . S
C1093 C1094 1.373 . S
C1093 C1095 1.389 . S
C1094 H1067 0.950 . S
C1094 C1080 1.377 . S
C1094 C1093 1.373 . S
C1095 C1079 1.377 . S
C1095 C1093 1.389 . S
C1095 C1096 1.524 . S
C1096 C1095 1.524 . S
C1096 C1097 1.397 . S
C1096 C1101 1.363 . S
C1097 H1068 0.950 . S
C1097 C1096 1.397 . S
C1097 C1098 1.334 . S
C1098 H1069 0.950 . S
C1098 C1097 1.334 . S
C1098 C1099 1.287 . S
C1099 C1098 1.287 . S
C1099 C1100 1.524 . S
C1099 H1102 0.999 . S
C1100 H1070 0.950 . S
C1100 C1099 1.524 . S
C1100 C1101 1.415 . S
C1101 H1071 0.950 . S
C1101 C1096 1.363 . S
C1101 C1100 1.415 . S
H1102 C1099 0.999 . S
H1103 C1084 0.913 . S
H1104 C1122 0.951 . S
H1105 C1124 0.951 . S
H1106 C1126 0.950 . S
H1107 C1127 0.950 . S
H1108 C1129 0.950 . S
H1109 C1132 0.950 . S
H1110 C1133 0.950 . S
H1111 C1135 0.950 . S
H1112 C1136 0.950 . S
H1113 C1137 0.951 . S
H1114 C1139 0.951 . S
H1115 C1141 0.950 . S
H1116 C1142 0.950 . S
H1117 C1144 0.950 . S
H1118 C1147 0.950 . S
H1119 C1148 0.950 . S
H1120 C1150 0.950 . S
H1121 C1151 0.950 . S
C1122 H1104 0.951 . S
C1122 C1123 1.366 . S
C1122 C1124 1.388 . S
C1123 C1122 1.366 . S
C1123 C1127 1.385 . S
C1124 H1105 0.951 . S
C1124 C1122 1.388 . S
C1124 C1125 1.366 . S
C1125 C1124 1.366 . S
C1125 C1126 1.414 . S
C1125 C1128 1.499 . S
C1126 H1106 0.950 . S
C1126 C1125 1.414 . S
C1126 C1127 1.374 . S
C1127 H1107 0.950 . S
C1127 C1123 1.385 . S
C1127 C1126 1.374 . S
C1128 C1125 1.499 . S
C1128 C1129 1.373 . S
C1128 C1130 1.389 . S
C1129 H1108 0.950 . S
C1129 C1128 1.373 . S
C1129 C1145 1.377 . S
C1130 C1128 1.389 . S
C1130 C1131 1.524 . S
C1130 C1144 1.377 . S
C1131 C1130 1.524 . S
C1131 C1132 1.397 . S
C1131 C1136 1.363 . S
C1132 H1109 0.950 . S
C1132 C1131 1.397 . S
C1132 C1133 1.334 . S
C1133 H1110 0.950 . S
C1133 C1132 1.334 . S
C1133 C1134 1.287 . S
C1134 C1133 1.287 . S
C1134 C1135 1.524 . S
C1134 H1153 0.913 . S
C1135 H1111 0.950 . S
C1135 C1134 1.524 . S
C1135 C1136 1.415 . S
C1136 H1112 0.950 . S
C1136 C1131 1.363 . S
C1136 C1135 1.415 . S
C1137 H1113 0.951 . S
C1137 C1138 1.366 . S
C1137 C1139 1.388 . S
C1138 C1137 1.366 . S
C1138 C1142 1.385 . S
C1139 H1114 0.951 . S
C1139 C1137 1.388 . S
C1139 C1140 1.366 . S
C1140 C1139 1.366 . S
C1140 C1141 1.414 . S
C1140 C1143 1.499 . S
C1141 H1115 0.950 . S
C1141 C1140 1.414 . S
C1141 C1142 1.374 . S
C1142 H1116 0.950 . S
C1142 C1138 1.385 . S
C1142 C1141 1.374 . S
C1143 C1140 1.499 . S
C1143 C1144 1.373 . S
C1143 C1145 1.389 . S
C1144 H1117 0.950 . S
C1144 C1130 1.377 . S
C1144 C1143 1.373 . S
C1145 C1129 1.377 . S
C1145 C1143 1.389 . S
C1145 C1146 1.524 . S
C1146 C1145 1.524 . S
C1146 C1147 1.397 . S
C1146 C1151 1.363 . S
C1147 H1118 0.950 . S
C1147 C1146 1.397 . S
C1147 C1148 1.334 1_565 S
C1148 H1119 0.950 . S
C1148 C1147 1.334 1_545 S
C1148 C1149 1.287 . S
C1149 C1148 1.287 . S
C1149 C1150 1.524 1_545 S
C1149 H1152 0.999 . S
C1150 H1120 0.950 . S
C1150 C1149 1.524 1_565 S
C1150 C1151 1.415 . S
C1151 H1121 0.950 . S
C1151 C1146 1.363 . S
C1151 C1150 1.415 . S
H1152 C1149 0.999 . S
H1153 C1134 0.913 . S
H1154 C1172 0.951 . S
H1155 C1174 0.951 . S
H1156 C1176 0.950 . S
H1157 C1177 0.950 . S
H1158 C1179 0.950 . S
H1159 C1182 0.950 . S
H1160 C1183 0.950 . S
H1161 C1185 0.950 . S
H1162 C1186 0.950 . S
H1163 C1187 0.951 . S
H1164 C1189 0.951 . S
H1165 C1191 0.950 . S
H1166 C1192 0.950 . S
H1167 C1194 0.950 . S
H1168 C1197 0.950 . S
H1169 C1198 0.950 . S
H1170 C1200 0.950 . S
H1171 C1201 0.950 . S
C1172 H1154 0.951 . S
C1172 C1173 1.366 . S
C1172 C1174 1.388 . S
C1173 C1172 1.366 . S
C1173 C1177 1.385 . S
C1174 H1155 0.951 . S
C1174 C1172 1.388 . S
C1174 C1175 1.366 . S
C1175 C1174 1.366 . S
C1175 C1176 1.414 . S
C1175 C1178 1.499 . S
C1176 H1156 0.950 . S
C1176 C1175 1.414 . S
C1176 C1177 1.374 . S
C1177 H1157 0.950 . S
C1177 C1173 1.385 . S
C1177 C1176 1.374 . S
C1178 C1175 1.499 . S
C1178 C1179 1.373 . S
C1178 C1180 1.389 . S
C1179 H1158 0.950 . S
C1179 C1178 1.373 . S
C1179 C1195 1.377 . S
C1180 C1178 1.389 . S
C1180 C1181 1.524 . S
C1180 C1194 1.377 . S
C1181 C1180 1.524 . S
C1181 C1182 1.397 . S
C1181 C1186 1.363 . S
C1182 H1159 0.950 . S
C1182 C1181 1.397 . S
C1182 C1183 1.334 . S
C1183 H1160 0.950 . S
C1183 C1182 1.334 . S
C1183 C1184 1.287 . S
C1184 C1183 1.287 . S
C1184 C1185 1.524 . S
C1184 H1203 0.913 . S
C1185 H1161 0.950 . S
C1185 C1184 1.524 . S
C1185 C1186 1.415 . S
C1186 H1162 0.950 . S
C1186 C1181 1.363 . S
C1186 C1185 1.415 . S
C1187 H1163 0.951 . S
C1187 C1188 1.366 . S
C1187 C1189 1.388 . S
C1188 C1187 1.366 . S
C1188 C1192 1.385 . S
C1189 H1164 0.951 . S
C1189 C1187 1.388 . S
C1189 C1190 1.366 . S
C1190 C1189 1.366 . S
C1190 C1191 1.414 . S
C1190 C1193 1.499 . S
C1191 H1165 0.950 . S
C1191 C1190 1.414 . S
C1191 C1192 1.374 . S
C1192 H1166 0.950 . S
C1192 C1188 1.385 . S
C1192 C1191 1.374 . S
C1193 C1190 1.499 . S
C1193 C1194 1.373 . S
C1193 C1195 1.389 . S
C1194 H1167 0.950 . S
C1194 C1180 1.377 . S
C1194 C1193 1.373 . S
C1195 C1179 1.377 . S
C1195 C1193 1.389 . S
C1195 C1196 1.524 . S
C1196 C1195 1.524 . S
C1196 C1197 1.397 . S
C1196 C1201 1.363 . S
C1197 H1168 0.950 . S
C1197 C1196 1.397 . S
C1197 C1198 1.334 . S
C1198 H1169 0.950 . S
C1198 C1197 1.334 . S
C1198 C1199 1.287 . S
C1199 C1198 1.287 . S
C1199 C1200 1.524 . S
C1199 H1202 0.999 . S
C1200 H1170 0.950 . S
C1200 C1199 1.524 . S
C1200 C1201 1.415 . S
C1201 H1171 0.950 . S
C1201 C1196 1.363 . S
C1201 C1200 1.415 . S
H1202 C1199 0.999 . S
H1203 C1184 0.913 . S
H1204 C1222 0.951 . S
H1205 C1224 0.951 . S
H1206 C1226 0.950 . S
H1207 C1227 0.950 . S
H1208 C1229 0.950 . S
H1209 C1232 0.950 . S
H1210 C1233 0.950 . S
H1211 C1235 0.950 . S
H1212 C1236 0.950 . S
H1213 C1237 0.951 . S
H1214 C1239 0.951 . S
H1215 C1241 0.950 . S
H1216 C1242 0.950 . S
H1217 C1244 0.950 . S
H1218 C1247 0.950 . S
H1219 C1248 0.950 . S
H1220 C1250 0.950 . S
H1221 C1251 0.950 . S
C1222 H1204 0.951 . S
C1222 C1223 1.366 . S
C1222 C1224 1.388 . S
C1223 C1222 1.366 . S
C1223 C1227 1.385 . S
C1224 H1205 0.951 . S
C1224 C1222 1.388 . S
C1224 C1225 1.366 . S
C1225 C1224 1.366 . S
C1225 C1226 1.414 . S
C1225 C1228 1.499 . S
C1226 H1206 0.950 . S
C1226 C1225 1.414 . S
C1226 C1227 1.374 . S
C1227 H1207 0.950 . S
C1227 C1223 1.385 . S
C1227 C1226 1.374 . S
C1228 C1225 1.499 . S
C1228 C1229 1.373 . S
C1228 C1230 1.389 . S
C1229 H1208 0.950 . S
C1229 C1228 1.373 . S
C1229 C1245 1.377 . S
C1230 C1228 1.389 . S
C1230 C1231 1.524 . S
C1230 C1244 1.377 . S
C1231 C1230 1.524 . S
C1231 C1232 1.397 . S
C1231 C1236 1.363 . S
C1232 H1209 0.950 . S
C1232 C1231 1.397 . S
C1232 C1233 1.334 . S
C1233 H1210 0.950 . S
C1233 C1232 1.334 . S
C1233 C1234 1.287 . S
C1234 C1233 1.287 . S
C1234 C1235 1.524 . S
C1234 H1253 0.913 . S
C1235 H1211 0.950 . S
C1235 C1234 1.524 . S
C1235 C1236 1.415 . S
C1236 H1212 0.950 . S
C1236 C1231 1.363 . S
C1236 C1235 1.415 . S
C1237 H1213 0.951 . S
C1237 C1238 1.366 . S
C1237 C1239 1.388 . S
C1238 C1237 1.366 . S
C1238 C1242 1.385 . S
C1239 H1214 0.951 . S
C1239 C1237 1.388 . S
C1239 C1240 1.366 . S
C1240 C1239 1.366 . S
C1240 C1241 1.414 . S
C1240 C1243 1.499 . S
C1241 H1215 0.950 . S
C1241 C1240 1.414 . S
C1241 C1242 1.374 . S
C1242 H1216 0.950 . S
C1242 C1238 1.385 . S
C1242 C1241 1.374 . S
C1243 C1240 1.499 . S
C1243 C1244 1.373 . S
C1243 C1245 1.389 . S
C1244 H1217 0.950 . S
C1244 C1230 1.377 . S
C1244 C1243 1.373 . S
C1245 C1229 1.377 . S
C1245 C1243 1.389 . S
C1245 C1246 1.524 . S
C1246 C1245 1.524 . S
C1246 C1247 1.397 . S
C1246 C1251 1.363 . S
C1247 H1218 0.950 . S
C1247 C1246 1.397 . S
C1247 C1248 1.334 . S
C1248 H1219 0.950 . S
C1248 C1247 1.334 . S
C1248 C1249 1.287 . S
C1249 C1248 1.287 . S
C1249 C1250 1.524 . S
C1249 H1252 0.999 . S
C1250 H1220 0.950 . S
C1250 C1249 1.524 . S
C1250 C1251 1.415 . S
C1251 H1221 0.950 . S
C1251 C1246 1.363 . S
C1251 C1250 1.415 . S
H1252 C1249 0.999 . S
H1253 C1234 0.913 . S
H1254 C1272 0.951 . S
H1255 C1274 0.951 . S
H1256 C1276 0.950 . S
H1257 C1277 0.950 . S
H1258 C1279 0.950 . S
H1259 C1282 0.950 . S
H1260 C1283 0.950 . S
H1261 C1285 0.950 . S
H1262 C1286 0.950 . S
H1263 C1287 0.951 . S
H1264 C1289 0.951 . S
H1265 C1291 0.950 . S
H1266 C1292 0.950 . S
H1267 C1294 0.950 . S
H1268 C1297 0.950 . S
H1269 C1298 0.950 . S
H1270 C1300 0.950 . S
H1271 C1301 0.950 . S
C1272 H1254 0.951 . S
C1272 C1273 1.366 . S
C1272 C1274 1.388 . S
C1273 C1272 1.366 . S
C1273 C1277 1.385 . S
C1274 H1255 0.951 . S
C1274 C1272 1.388 . S
C1274 C1275 1.366 . S
C1275 C1274 1.366 . S
C1275 C1276 1.414 . S
C1275 C1278 1.499 . S
C1276 H1256 0.950 . S
C1276 C1275 1.414 . S
C1276 C1277 1.374 . S
C1277 H1257 0.950 . S
C1277 C1273 1.385 . S
C1277 C1276 1.374 . S
C1278 C1275 1.499 . S
C1278 C1279 1.373 . S
C1278 C1280 1.389 . S
C1279 H1258 0.950 . S
C1279 C1278 1.373 . S
C1279 C1295 1.377 . S
C1280 C1278 1.389 . S
C1280 C1281 1.524 . S
C1280 C1294 1.377 . S
C1281 C1280 1.524 . S
C1281 C1282 1.397 . S
C1281 C1286 1.363 . S
C1282 H1259 0.950 . S
C1282 C1281 1.397 . S
C1282 C1283 1.334 . S
C1283 H1260 0.950 . S
C1283 C1282 1.334 . S
C1283 C1284 1.287 . S
C1284 C1283 1.287 . S
C1284 C1285 1.524 . S
C1284 H1303 0.913 . S
C1285 H1261 0.950 . S
C1285 C1284 1.524 . S
C1285 C1286 1.415 . S
C1286 H1262 0.950 . S
C1286 C1281 1.363 . S
C1286 C1285 1.415 . S
C1287 H1263 0.951 . S
C1287 C1288 1.366 . S
C1287 C1289 1.388 . S
C1288 C1287 1.366 . S
C1288 C1292 1.385 . S
C1289 H1264 0.951 . S
C1289 C1287 1.388 . S
C1289 C1290 1.366 . S
C1290 C1289 1.366 . S
C1290 C1291 1.414 . S
C1290 C1293 1.499 . S
C1291 H1265 0.950 . S
C1291 C1290 1.414 . S
C1291 C1292 1.374 . S
C1292 H1266 0.950 . S
C1292 C1288 1.385 . S
C1292 C1291 1.374 . S
C1293 C1290 1.499 . S
C1293 C1294 1.373 . S
C1293 C1295 1.389 . S
C1294 H1267 0.950 . S
C1294 C1280 1.377 . S
C1294 C1293 1.373 . S
C1295 C1279 1.377 . S
C1295 C1293 1.389 . S
C1295 C1296 1.524 . S
C1296 C1295 1.524 . S
C1296 C1297 1.397 . S
C1296 C1301 1.363 . S
C1297 H1268 0.950 . S
C1297 C1296 1.397 . S
C1297 C1298 1.334 . S
C1298 H1269 0.950 . S
C1298 C1297 1.334 . S
C1298 C1299 1.287 . S
C1299 C1298 1.287 . S
C1299 C1300 1.524 . S
C1299 H1302 0.999 . S
C1300 H1270 0.950 . S
C1300 C1299 1.524 . S
C1300 C1301 1.415 . S
C1301 H1271 0.950 . S
C1301 C1296 1.363 . S
C1301 C1300 1.415 . S
H1302 C1299 0.999 . S
H1303 C1284 0.913 . S
H1304 C1322 0.951 . S
H1305 C1324 0.951 . S
H1306 C1326 0.950 . S
H1307 C1327 0.950 . S
H1308 C1329 0.950 . S
H1309 C1332 0.950 . S
H1310 C1333 0.950 . S
H1311 C1335 0.950 . S
H1312 C1336 0.950 . S
H1313 C1337 0.951 . S
H1314 C1339 0.951 . S
H1315 C1341 0.950 . S
H1316 C1342 0.950 . S
H1317 C1344 0.950 . S
H1318 C1347 0.950 . S
H1319 C1348 0.950 . S
H1320 C1350 0.950 . S
H1321 C1351 0.950 . S
C1322 H1304 0.951 . S
C1322 C1323 1.366 . S
C1322 C1324 1.388 . S
C1323 C1322 1.366 . S
C1323 C1327 1.385 . S
C1324 H1305 0.951 . S
C1324 C1322 1.388 . S
C1324 C1325 1.366 . S
C1325 C1324 1.366 . S
C1325 C1326 1.414 . S
C1325 C1328 1.499 . S
C1326 H1306 0.950 . S
C1326 C1325 1.414 . S
C1326 C1327 1.374 . S
C1327 H1307 0.950 . S
C1327 C1323 1.385 . S
C1327 C1326 1.374 . S
C1328 C1325 1.499 . S
C1328 C1329 1.373 . S
C1328 C1330 1.389 . S
C1329 H1308 0.950 . S
C1329 C1328 1.373 . S
C1329 C1345 1.377 . S
C1330 C1328 1.389 . S
C1330 C1331 1.524 . S
C1330 C1344 1.377 . S
C1331 C1330 1.524 . S
C1331 C1332 1.397 . S
C1331 C1336 1.363 . S
C1332 H1309 0.950 . S
C1332 C1331 1.397 . S
C1332 C1333 1.334 . S
C1333 H1310 0.950 . S
C1333 C1332 1.334 . S
C1333 C1334 1.287 . S
C1334 C1333 1.287 . S
C1334 C1335 1.524 . S
C1334 H1353 0.913 . S
C1335 H1311 0.950 . S
C1335 C1334 1.524 . S
C1335 C1336 1.415 . S
C1336 H1312 0.950 . S
C1336 C1331 1.363 . S
C1336 C1335 1.415 . S
C1337 H1313 0.951 . S
C1337 C1338 1.366 . S
C1337 C1339 1.388 . S
C1338 C1337 1.366 . S
C1338 C1342 1.385 . S
C1339 H1314 0.951 . S
C1339 C1337 1.388 . S
C1339 C1340 1.366 . S
C1340 C1339 1.366 . S
C1340 C1341 1.414 . S
C1340 C1343 1.499 . S
C1341 H1315 0.950 . S
C1341 C1340 1.414 . S
C1341 C1342 1.374 . S
C1342 H1316 0.950 . S
C1342 C1338 1.385 . S
C1342 C1341 1.374 . S
C1343 C1340 1.499 . S
C1343 C1344 1.373 . S
C1343 C1345 1.389 . S
C1344 H1317 0.950 . S
C1344 C1330 1.377 . S
C1344 C1343 1.373 . S
C1345 C1329 1.377 . S
C1345 C1343 1.389 . S
C1345 C1346 1.524 . S
C1346 C1345 1.524 . S
C1346 C1347 1.397 . S
C1346 C1351 1.363 . S
C1347 H1318 0.950 . S
C1347 C1346 1.397 . S
C1347 C1348 1.334 . S
C1348 H1319 0.950 . S
C1348 C1347 1.334 . S
C1348 C1349 1.287 . S
C1349 C1348 1.287 . S
C1349 C1350 1.524 . S
C1349 H1352 0.999 . S
C1350 H1320 0.950 . S
C1350 C1349 1.524 . S
C1350 C1351 1.415 . S
C1351 H1321 0.950 . S
C1351 C1346 1.363 . S
C1351 C1350 1.415 . S
H1352 C1349 0.999 . S
H1353 C1334 0.913 . S
H1354 C1372 0.951 . S
H1355 C1374 0.951 . S
H1356 C1376 0.950 . S
H1357 C1377 0.950 . S
H1358 C1379 0.950 . S
H1359 C1382 0.950 . S
H1360 C1383 0.950 . S
H1361 C1385 0.950 . S
H1362 C1386 0.950 . S
H1363 C1387 0.951 . S
H1364 C1389 0.951 . S
H1365 C1391 0.950 . S
H1366 C1392 0.950 . S
H1367 C1394 0.950 . S
H1368 C1397 0.950 . S
H1369 C1398 0.950 . S
H1370 C1400 0.950 . S
H1371 C1401 0.950 . S
C1372 H1354 0.951 . S
C1372 C1373 1.366 . S
C1372 C1374 1.388 . S
C1373 C1372 1.366 . S
C1373 C1377 1.385 . S
C1374 H1355 0.951 . S
C1374 C1372 1.388 . S
C1374 C1375 1.366 . S
C1375 C1374 1.366 . S
C1375 C1376 1.414 . S
C1375 C1378 1.499 . S
C1376 H1356 0.950 . S
C1376 C1375 1.414 . S
C1376 C1377 1.374 . S
C1377 H1357 0.950 . S
C1377 C1373 1.385 . S
C1377 C1376 1.374 . S
C1378 C1375 1.499 . S
C1378 C1379 1.373 . S
C1378 C1380 1.389 . S
C1379 H1358 0.950 . S
C1379 C1378 1.373 . S
C1379 C1395 1.377 . S
C1380 C1378 1.389 . S
C1380 C1381 1.524 . S
C1380 C1394 1.377 . S
C1381 C1380 1.524 . S
C1381 C1382 1.397 . S
C1381 C1386 1.363 . S
C1382 H1359 0.950 . S
C1382 C1381 1.397 . S
C1382 C1383 1.334 . S
C1383 H1360 0.950 . S
C1383 C1382 1.334 . S
C1383 C1384 1.287 . S
C1384 C1383 1.287 . S
C1384 C1385 1.524 . S
C1384 H1403 0.913 . S
C1385 H1361 0.950 . S
C1385 C1384 1.524 . S
C1385 C1386 1.415 . S
C1386 H1362 0.950 . S
C1386 C1381 1.363 . S
C1386 C1385 1.415 . S
C1387 H1363 0.951 . S
C1387 C1388 1.366 . S
C1387 C1389 1.388 . S
C1388 C1387 1.366 . S
C1388 C1392 1.385 . S
C1389 H1364 0.951 . S
C1389 C1387 1.388 . S
C1389 C1390 1.366 . S
C1390 C1389 1.366 . S
C1390 C1391 1.414 . S
C1390 C1393 1.499 . S
C1391 H1365 0.950 . S
C1391 C1390 1.414 . S
C1391 C1392 1.374 . S
C1392 H1366 0.950 . S
C1392 C1388 1.385 . S
C1392 C1391 1.374 . S
C1393 C1390 1.499 . S
C1393 C1394 1.373 . S
C1393 C1395 1.389 . S
C1394 H1367 0.950 . S
C1394 C1380 1.377 . S
C1394 C1393 1.373 . S
C1395 C1379 1.377 . S
C1395 C1393 1.389 . S
C1395 C1396 1.524 . S
C1396 C1395 1.524 . S
C1396 C1397 1.397 . S
C1396 C1401 1.363 . S
C1397 H1368 0.950 . S
C1397 C1396 1.397 . S
C1397 C1398 1.334 . S
C1398 H1369 0.950 . S
C1398 C1397 1.334 . S
C1398 C1399 1.287 . S
C1399 C1398 1.287 . S
C1399 C1400 1.524 . S
C1399 H1402 0.999 . S
C1400 H1370 0.950 . S
C1400 C1399 1.524 . S
C1400 C1401 1.415 . S
C1401 H1371 0.950 . S
C1401 C1396 1.363 . S
C1401 C1400 1.415 . S
H1402 C1399 0.999 . S
H1403 C1384 0.913 . S
H1404 C1422 0.951 . S
H1405 C1424 0.951 . S
H1406 C1426 0.938 1_655 S
H1407 C1427 0.950 . S
H1408 C1429 0.950 . S
H1409 C1432 0.950 . S
H1410 C1433 0.950 . S
H1411 C1435 0.950 . S
H1412 C1436 0.950 . S
H1413 C1437 0.951 . S
H1414 C1439 0.951 . S
H1415 C1441 0.950 . S
H1416 C1442 0.950 . S
H1417 C1444 0.950 . S
H1418 C1447 0.950 . S
H1419 C1448 0.950 . S
H1420 C1450 0.950 . S
H1421 C1451 0.950 . S
C1422 H1404 0.951 . S
C1422 C1423 1.366 . S
C1422 C1424 1.388 . S
C1423 C1422 1.366 . S
C1423 C1427 1.385 . S
C1424 H1405 0.951 . S
C1424 C1422 1.388 . S
C1424 C1425 1.366 . S
C1425 C1424 1.366 . S
C1425 C1426 1.419 . S
C1425 C1428 1.499 1_455 S
C1426 H1406 0.938 1_455 S
C1426 C1425 1.419 . S
C1426 C1427 1.381 . S
C1427 H1407 0.950 . S
C1427 C1423 1.385 . S
C1427 C1426 1.381 . S
C1428 C1425 1.499 1_655 S
C1428 C1429 1.373 1_655 S
C1428 C1430 1.389 . S
C1429 H1408 0.950 . S
C1429 C1428 1.373 1_455 S
C1429 C1445 1.396 . S
C1430 C1428 1.389 . S
C1430 C1431 1.524 . S
C1430 C1444 1.377 . S
C1431 C1430 1.524 . S
C1431 C1432 1.397 . S
C1431 C1436 1.363 . S
C1432 H1409 0.950 . S
C1432 C1431 1.397 . S
C1432 C1433 1.334 . S
C1433 H1410 0.950 . S
C1433 C1432 1.334 . S
C1433 C1434 1.287 . S
C1434 C1433 1.287 . S
C1434 C1435 1.524 . S
C1434 H1453 0.913 . S
C1435 H1411 0.950 . S
C1435 C1434 1.524 . S
C1435 C1436 1.415 . S
C1436 H1412 0.950 . S
C1436 C1431 1.363 . S
C1436 C1435 1.415 . S
C1437 H1413 0.951 . S
C1437 C1438 1.366 . S
C1437 C1439 1.388 . S
C1438 C1437 1.366 . S
C1438 C1442 1.385 . S
C1439 H1414 0.951 . S
C1439 C1437 1.388 . S
C1439 C1440 1.366 . S
C1440 C1439 1.366 . S
C1440 C1441 1.414 . S
C1440 C1443 1.499 . S
C1441 H1415 0.950 . S
C1441 C1440 1.414 . S
C1441 C1442 1.374 . S
C1442 H1416 0.950 . S
C1442 C1438 1.385 . S
C1442 C1441 1.374 . S
C1443 C1440 1.499 . S
C1443 C1444 1.373 . S
C1443 C1445 1.376 1_655 S
C1444 H1417 0.950 . S
C1444 C1430 1.377 . S
C1444 C1443 1.373 . S
C1445 C1429 1.396 . S
C1445 C1443 1.376 1_455 S
C1445 C1446 1.526 . S
C1446 C1445 1.526 . S
C1446 C1447 1.397 . S
C1446 C1451 1.363 . S
C1447 H1418 0.950 . S
C1447 C1446 1.397 . S
C1447 C1448 1.334 . S
C1448 H1419 0.950 . S
C1448 C1447 1.334 . S
C1448 C1449 1.287 . S
C1449 C1448 1.287 . S
C1449 C1450 1.524 . S
C1449 H1452 0.999 . S
C1450 H1420 0.950 . S
C1450 C1449 1.524 . S
C1450 C1451 1.415 . S
C1451 H1421 0.950 . S
C1451 C1446 1.363 . S
C1451 C1450 1.415 . S
H1452 C1449 0.999 . S
H1453 C1434 0.913 . S
H1454 C1472 0.951 . S
H1455 C1474 0.951 . S
H1456 C1476 0.950 . S
H1457 C1477 0.950 . S
H1458 C1479 0.950 . S
H1459 C1482 0.950 . S
H1460 C1483 0.950 . S
H1461 C1485 0.950 . S
H1462 C1486 0.950 . S
H1463 C1487 0.951 . S
H1464 C1489 0.951 . S
H1465 C1491 0.950 . S
H1466 C1492 0.950 . S
H1467 C1494 0.950 . S
H1468 C1497 0.950 . S
H1469 C1498 0.950 . S
H1470 C1500 0.950 . S
H1471 C1501 0.950 . S
C1472 H1454 0.951 . S
C1472 C1473 1.366 . S
C1472 C1474 1.388 . S
C1473 C1472 1.366 . S
C1473 C1477 1.385 . S
C1474 H1455 0.951 . S
C1474 C1472 1.388 . S
C1474 C1475 1.366 . S
C1475 C1474 1.366 . S
C1475 C1476 1.414 . S
C1475 C1478 1.499 . S
C1476 H1456 0.950 . S
C1476 C1475 1.414 . S
C1476 C1477 1.374 . S
C1477 H1457 0.950 . S
C1477 C1473 1.385 . S
C1477 C1476 1.374 . S
C1478 C1475 1.499 . S
C1478 C1479 1.373 . S
C1478 C1480 1.389 . S
C1479 H1458 0.950 . S
C1479 C1478 1.373 . S
C1479 C1495 1.377 . S
C1480 C1478 1.389 . S
C1480 C1481 1.524 . S
C1480 C1494 1.377 . S
C1481 C1480 1.524 . S
C1481 C1482 1.397 . S
C1481 C1486 1.363 . S
C1482 H1459 0.950 . S
C1482 C1481 1.397 . S
C1482 C1483 1.334 . S
C1483 H1460 0.950 . S
C1483 C1482 1.334 . S
C1483 C1484 1.287 . S
C1484 C1483 1.287 . S
C1484 C1485 1.524 . S
C1484 H1503 0.913 . S
C1485 H1461 0.950 . S
C1485 C1484 1.524 . S
C1485 C1486 1.415 . S
C1486 H1462 0.950 . S
C1486 C1481 1.363 . S
C1486 C1485 1.415 . S
C1487 H1463 0.951 . S
C1487 C1488 1.366 . S
C1487 C1489 1.388 . S
C1488 C1487 1.366 . S
C1488 C1492 1.385 . S
C1489 H1464 0.951 . S
C1489 C1487 1.388 . S
C1489 C1490 1.366 . S
C1490 C1489 1.366 . S
C1490 C1491 1.414 . S
C1490 C1493 1.499 . S
C1491 H1465 0.950 . S
C1491 C1490 1.414 . S
C1491 C1492 1.374 . S
C1492 H1466 0.950 . S
C1492 C1488 1.385 . S
C1492 C1491 1.374 . S
C1493 C1490 1.499 . S
C1493 C1494 1.373 . S
C1493 C1495 1.389 . S
C1494 H1467 0.950 . S
C1494 C1480 1.377 . S
C1494 C1493 1.373 . S
C1495 C1479 1.377 . S
C1495 C1493 1.389 . S
C1495 C1496 1.524 . S
C1496 C1495 1.524 . S
C1496 C1497 1.397 . S
C1496 C1501 1.363 . S
C1497 H1468 0.950 . S
C1497 C1496 1.397 . S
C1497 C1498 1.334 . S
C1498 H1469 0.950 . S
C1498 C1497 1.334 . S
C1498 C1499 1.287 . S
C1499 C1498 1.287 . S
C1499 C1500 1.524 . S
C1499 H1502 0.999 . S
C1500 H1470 0.950 . S
C1500 C1499 1.524 . S
C1500 C1501 1.415 . S
C1501 H1471 0.950 . S
C1501 C1496 1.363 . S
C1501 C1500 1.415 . S
H1502 C1499 0.999 . S
H1503 C1484 0.913 . S
H1504 C1522 0.951 . S
H1505 C1524 0.951 . S
H1506 C1526 0.950 . S
H1507 C1527 0.950 . S
H1508 C1529 0.950 . S
H1509 C1532 0.950 . S
H1510 C1533 0.950 . S
H1511 C1535 0.950 . S
H1512 C1536 0.950 . S
H1513 C1537 0.951 . S
H1514 C1539 0.951 . S
H1515 C1541 0.950 . S
H1516 C1542 0.950 . S
H1517 C1544 0.950 . S
H1518 C1547 0.950 . S
H1519 C1548 0.950 . S
H1520 C1550 0.950 . S
H1521 C1551 0.950 . S
C1522 H1504 0.951 . S
C1522 C1523 1.366 . S
C1522 C1524 1.388 . S
C1523 C1522 1.366 . S
C1523 C1527 1.385 . S
C1524 H1505 0.951 . S
C1524 C1522 1.388 . S
C1524 C1525 1.366 . S
C1525 C1524 1.366 . S
C1525 C1526 1.414 . S
C1525 C1528 1.499 . S
C1526 H1506 0.950 . S
C1526 C1525 1.414 . S
C1526 C1527 1.374 . S
C1527 H1507 0.950 . S
C1527 C1523 1.385 . S
C1527 C1526 1.374 . S
C1528 C1525 1.499 . S
C1528 C1529 1.373 . S
C1528 C1530 1.389 . S
C1529 H1508 0.950 . S
C1529 C1528 1.373 . S
C1529 C1545 1.377 . S
C1530 C1528 1.389 . S
C1530 C1531 1.524 . S
C1530 C1544 1.377 . S
C1531 C1530 1.524 . S
C1531 C1532 1.397 . S
C1531 C1536 1.363 . S
C1532 H1509 0.950 . S
C1532 C1531 1.397 . S
C1532 C1533 1.334 . S
C1533 H1510 0.950 . S
C1533 C1532 1.334 . S
C1533 C1534 1.287 . S
C1534 C1533 1.287 . S
C1534 C1535 1.524 . S
C1534 H1553 0.913 . S
C1535 H1511 0.950 . S
C1535 C1534 1.524 . S
C1535 C1536 1.415 . S
C1536 H1512 0.950 . S
C1536 C1531 1.363 . S
C1536 C1535 1.415 . S
C1537 H1513 0.951 . S
C1537 C1538 1.366 . S
C1537 C1539 1.388 . S
C1538 C1537 1.366 . S
C1538 C1542 1.385 . S
C1539 H1514 0.951 . S
C1539 C1537 1.388 . S
C1539 C1540 1.366 . S
C1540 C1539 1.366 . S
C1540 C1541 1.414 . S
C1540 C1543 1.499 . S
C1541 H1515 0.950 . S
C1541 C1540 1.414 . S
C1541 C1542 1.374 . S
C1542 H1516 0.950 . S
C1542 C1538 1.385 . S
C1542 C1541 1.374 . S
C1543 C1540 1.499 . S
C1543 C1544 1.373 . S
C1543 C1545 1.389 . S
C1544 H1517 0.950 . S
C1544 C1530 1.377 . S
C1544 C1543 1.373 . S
C1545 C1529 1.377 . S
C1545 C1543 1.389 . S
C1545 C1546 1.524 . S
C1546 C1545 1.524 . S
C1546 C1547 1.397 . S
C1546 C1551 1.363 . S
C1547 H1518 0.950 . S
C1547 C1546 1.397 . S
C1547 C1548 1.334 . S
C1548 H1519 0.950 . S
C1548 C1547 1.334 . S
C1548 C1549 1.287 . S
C1549 C1548 1.287 . S
C1549 C1550 1.524 . S
C1549 H1552 0.999 . S
C1550 H1520 0.950 . S
C1550 C1549 1.524 . S
C1550 C1551 1.415 . S
C1551 H1521 0.950 . S
C1551 C1546 1.363 . S
C1551 C1550 1.415 . S
H1552 C1549 0.999 . S
H1553 C1534 0.913 . S
H1554 C1572 0.951 . S
H1555 C1574 0.951 . S
H1556 C1576 0.950 . S
H1557 C1577 0.950 . S
H1558 C1579 0.953 1_545 S
H1559 C1582 0.950 . S
H1560 C1583 0.950 . S
H1561 C1585 0.950 . S
H1562 C1586 0.950 1_545 S
H1563 C1587 0.951 . S
H1564 C1589 0.951 . S
H1565 C1591 0.923 1_545 S
H1566 C1592 0.950 . S
H1567 C1594 0.950 . S
H1568 C1597 0.950 . S
H1569 C1598 0.950 . S
H1570 C1600 0.950 . S
H1571 C1601 0.950 . S
C1572 H1554 0.951 . S
C1572 C1573 1.366 . S
C1572 C1574 1.388 . S
C1573 C1572 1.366 . S
C1573 C1577 1.385 1_545 S
C1574 H1555 0.951 . S
C1574 C1572 1.388 . S
C1574 C1575 1.366 . S
C1575 C1574 1.366 . S
C1575 C1576 1.414 1_545 S
C1575 C1578 1.499 1_545 S
C1576 H1556 0.950 . S
C1576 C1575 1.414 1_565 S
C1576 C1577 1.374 . S
C1577 H1557 0.950 . S
C1577 C1573 1.385 1_565 S
C1577 C1576 1.374 . S
C1578 C1575 1.499 1_565 S
C1578 C1579 1.373 . S
C1578 C1580 1.389 . S
C1579 H1558 0.953 1_565 S
C1579 C1578 1.373 . S
C1579 C1595 1.377 . S
C1580 C1578 1.389 . S
C1580 C1581 1.524 . S
C1580 C1594 1.377 . S
C1581 C1580 1.524 . S
C1581 C1582 1.397 . S
C1581 C1586 1.363 . S
C1582 H1559 0.950 . S
C1582 C1581 1.397 . S
C1582 C1583 1.334 . S
C1583 H1560 0.950 . S
C1583 C1582 1.334 . S
C1583 C1584 1.287 . S
C1584 C1583 1.287 . S
C1584 C1585 1.524 . S
C1584 H1603 0.913 . S
C1585 H1561 0.950 . S
C1585 C1584 1.524 . S
C1585 C1586 1.415 . S
C1586 H1562 0.950 1_565 S
C1586 C1581 1.363 . S
C1586 C1585 1.415 . S
C1587 H1563 0.951 . S
C1587 C1588 1.366 . S
C1587 C1589 1.388 . S
C1588 C1587 1.366 . S
C1588 C1592 1.385 . S
C1589 H1564 0.951 . S
C1589 C1587 1.388 . S
C1589 C1590 1.366 . S
C1590 C1589 1.366 . S
C1590 C1591 1.414 . S
C1590 C1593 1.499 . S
C1591 H1565 0.923 1_565 S
C1591 C1590 1.414 . S
C1591 C1592 1.374 . S
C1592 H1566 0.950 . S
C1592 C1588 1.385 . S
C1592 C1591 1.374 . S
C1593 C1590 1.499 . S
C1593 C1594 1.373 . S
C1593 C1595 1.389 . S
C1594 H1567 0.950 . S
C1594 C1580 1.377 . S
C1594 C1593 1.373 . S
C1595 C1579 1.377 . S
C1595 C1593 1.389 . S
C1595 C1596 1.524 . S
C1596 C1595 1.524 . S
C1596 C1597 1.397 1_565 S
C1596 C1601 1.363 . S
C1597 H1568 0.950 . S
C1597 C1596 1.397 1_545 S
C1597 C1598 1.334 . S
C1598 H1569 0.950 . S
C1598 C1597 1.334 . S
C1598 C1599 1.287 . S
C1599 C1598 1.287 . S
C1599 C1600 1.524 1_545 S
C1599 H1602 0.999 . S
C1600 H1570 0.950 . S
C1600 C1599 1.524 1_565 S
C1600 C1601 1.415 . S
C1601 H1571 0.950 . S
C1601 C1596 1.363 . S
C1601 C1600 1.415 . S
H1602 C1599 0.999 . S
H1603 C1584 0.913 . S
H1604 C1622 0.951 . S
H1605 C1624 0.951 . S
H1606 C1626 0.950 . S
H1607 C1627 0.950 . S
H1608 C1629 0.950 . S
H1609 C1632 0.950 . S
H1610 C1633 0.950 . S
H1611 C1635 0.950 . S
H1612 C1636 0.950 . S
H1613 C1637 0.951 . S
H1614 C1639 0.951 . S
H1615 C1641 0.950 . S
H1616 C1642 0.950 . S
H1617 C1644 0.950 . S
H1618 C1647 0.950 . S
H1619 C1648 0.950 . S
H1620 C1650 0.918 1_655 S
H1621 C1651 0.950 . S
C1622 H1604 0.951 . S
C1622 C1623 1.366 . S
C1622 C1624 1.388 . S
C1623 C1622 1.366 . S
C1623 C1627 1.385 . S
C1624 H1605 0.951 . S
C1624 C1622 1.388 . S
C1624 C1625 1.366 . S
C1625 C1624 1.366 . S
C1625 C1626 1.414 . S
C1625 C1628 1.499 . S
C1626 H1606 0.950 . S
C1626 C1625 1.414 . S
C1626 C1627 1.374 . S
C1627 H1607 0.950 . S
C1627 C1623 1.385 . S
C1627 C1626 1.374 . S
C1628 C1625 1.499 . S
C1628 C1629 1.373 . S
C1628 C1630 1.389 . S
C1629 H1608 0.950 . S
C1629 C1628 1.373 . S
C1629 C1645 1.377 . S
C1630 C1628 1.389 . S
C1630 C1631 1.524 . S
C1630 C1644 1.377 . S
C1631 C1630 1.524 . S
C1631 C1632 1.397 . S
C1631 C1636 1.363 . S
C1632 H1609 0.950 . S
C1632 C1631 1.397 . S
C1632 C1633 1.334 . S
C1633 H1610 0.950 . S
C1633 C1632 1.334 . S
C1633 C1634 1.287 . S
C1634 C1633 1.287 . S
C1634 C1635 1.524 . S
C1634 H1653 0.913 . S
C1635 H1611 0.950 . S
C1635 C1634 1.524 . S
C1635 C1636 1.415 . S
C1636 H1612 0.950 . S
C1636 C1631 1.363 . S
C1636 C1635 1.415 . S
C1637 H1613 0.951 . S
C1637 C1638 1.366 . S
C1637 C1639 1.388 . S
C1638 C1637 1.366 . S
C1638 C1642 1.385 . S
C1639 H1614 0.951 . S
C1639 C1637 1.388 . S
C1639 C1640 1.366 . S
C1640 C1639 1.366 . S
C1640 C1641 1.414 . S
C1640 C1643 1.499 . S
C1641 H1615 0.950 . S
C1641 C1640 1.414 . S
C1641 C1642 1.374 . S
C1642 H1616 0.950 . S
C1642 C1638 1.385 . S
C1642 C1641 1.374 . S
C1643 C1640 1.499 . S
C1643 C1644 1.373 . S
C1643 C1645 1.389 . S
C1644 H1617 0.950 . S
C1644 C1630 1.377 . S
C1644 C1643 1.373 . S
C1645 C1629 1.377 . S
C1645 C1643 1.389 . S
C1645 C1646 1.524 . S
C1646 C1645 1.524 . S
C1646 C1647 1.397 . S
C1646 C1651 1.363 . S
C1647 H1618 0.950 . S
C1647 C1646 1.397 . S
C1647 C1648 1.334 . S
C1648 H1619 0.950 . S
C1648 C1647 1.334 . S
C1648 C1649 1.287 . S
C1649 C1648 1.287 . S
C1649 C1650 1.524 . S
C1649 H1652 0.999 . S
C1650 H1620 0.918 1_455 S
C1650 C1649 1.524 . S
C1650 C1651 1.415 . S
C1651 H1621 0.950 . S
C1651 C1646 1.363 . S
C1651 C1650 1.415 . S
H1652 C1649 0.999 . S
H1653 C1634 0.913 . S
H1654 C1672 0.951 . S
H1655 C1674 0.951 . S
H1656 C1676 0.950 . S
H1657 C1677 0.950 . S
H1658 C1679 0.950 . S
H1659 C1682 0.950 . S
H1660 C1683 0.950 . S
H1661 C1685 0.950 . S
H1662 C1686 0.950 . S
H1663 C1687 0.951 . S
H1664 C1689 0.951 . S
H1665 C1691 0.950 . S
H1666 C1692 0.950 . S
H1667 C1694 0.950 . S
H1668 C1697 0.950 . S
H1669 C1698 0.950 . S
H1670 C1700 0.950 . S
H1671 C1701 0.950 . S
C1672 H1654 0.951 . S
C1672 C1673 1.366 . S
C1672 C1674 1.388 . S
C1673 C1672 1.366 . S
C1673 C1677 1.385 . S
C1674 H1655 0.951 . S
C1674 C1672 1.388 . S
C1674 C1675 1.366 . S
C1675 C1674 1.366 . S
C1675 C1676 1.414 . S
C1675 C1678 1.499 . S
C1676 H1656 0.950 . S
C1676 C1675 1.414 . S
C1676 C1677 1.374 . S
C1677 H1657 0.950 . S
C1677 C1673 1.385 . S
C1677 C1676 1.374 . S
C1678 C1675 1.499 . S
C1678 C1679 1.373 . S
C1678 C1680 1.389 . S
C1679 H1658 0.950 . S
C1679 C1678 1.373 . S
C1679 C1695 1.377 . S
C1680 C1678 1.389 . S
C1680 C1681 1.524 . S
C1680 C1694 1.377 . S
C1681 C1680 1.524 . S
C1681 C1682 1.397 . S
C1681 C1686 1.363 . S
C1682 H1659 0.950 . S
C1682 C1681 1.397 . S
C1682 C1683 1.334 . S
C1683 H1660 0.950 . S
C1683 C1682 1.334 . S
C1683 C1684 1.287 . S
C1684 C1683 1.287 . S
C1684 C1685 1.524 . S
C1684 H1703 0.913 . S
C1685 H1661 0.950 . S
C1685 C1684 1.524 . S
C1685 C1686 1.415 . S
C1686 H1662 0.950 . S
C1686 C1681 1.363 . S
C1686 C1685 1.415 . S
C1687 H1663 0.951 . S
C1687 C1688 1.366 . S
C1687 C1689 1.388 . S
C1688 C1687 1.366 . S
C1688 C1692 1.385 . S
C1689 H1664 0.951 . S
C1689 C1687 1.388 . S
C1689 C1690 1.366 . S
C1690 C1689 1.366 . S
C1690 C1691 1.414 . S
C1690 C1693 1.499 . S
C1691 H1665 0.950 . S
C1691 C1690 1.414 . S
C1691 C1692 1.374 . S
C1692 H1666 0.950 . S
C1692 C1688 1.385 . S
C1692 C1691 1.374 . S
C1693 C1690 1.499 . S
C1693 C1694 1.373 . S
C1693 C1695 1.389 . S
C1694 H1667 0.950 . S
C1694 C1680 1.377 . S
C1694 C1693 1.373 . S
C1695 C1679 1.377 . S
C1695 C1693 1.389 . S
C1695 C1696 1.524 . S
C1696 C1695 1.524 . S
C1696 C1697 1.397 . S
C1696 C1701 1.363 . S
C1697 H1668 0.950 . S
C1697 C1696 1.397 . S
C1697 C1698 1.334 . S
C1698 H1669 0.950 . S
C1698 C1697 1.334 . S
C1698 C1699 1.287 . S
C1699 C1698 1.287 . S
C1699 C1700 1.524 . S
C1699 H1702 0.999 . S
C1700 H1670 0.950 . S
C1700 C1699 1.524 . S
C1700 C1701 1.415 . S
C1701 H1671 0.950 . S
C1701 C1696 1.363 . S
C1701 C1700 1.415 . S
H1702 C1699 0.999 . S
H1703 C1684 0.913 . S
H1704 C1722 0.951 . S
H1705 C1724 0.951 . S
H1706 C1726 0.950 . S
H1707 C1727 0.950 . S
H1708 C1729 0.950 . S
H1709 C1732 0.950 . S
H1710 C1733 0.950 . S
H1711 C1735 0.950 . S
H1712 C1736 0.950 . S
H1713 C1737 0.951 . S
H1714 C1739 0.951 . S
H1715 C1741 0.950 . S
H1716 C1742 0.950 . S
H1717 C1744 0.950 . S
H1718 C1747 0.950 . S
H1719 C1748 0.950 . S
H1720 C1750 0.950 . S
H1721 C1751 0.950 . S
C1722 H1704 0.951 . S
C1722 C1723 1.366 . S
C1722 C1724 1.388 . S
C1723 C1722 1.366 . S
C1723 C1727 1.385 . S
C1724 H1705 0.951 . S
C1724 C1722 1.388 . S
C1724 C1725 1.366 . S
C1725 C1724 1.366 . S
C1725 C1726 1.414 . S
C1725 C1728 1.499 . S
C1726 H1706 0.950 . S
C1726 C1725 1.414 . S
C1726 C1727 1.374 . S
C1727 H1707 0.950 . S
C1727 C1723 1.385 . S
C1727 C1726 1.374 . S
C1728 C1725 1.499 . S
C1728 C1729 1.373 . S
C1728 C1730 1.389 . S
C1729 H1708 0.950 . S
C1729 C1728 1.373 . S
C1729 C1745 1.377 . S
C1730 C1728 1.389 . S
C1730 C1731 1.524 . S
C1730 C1744 1.377 . S
C1731 C1730 1.524 . S
C1731 C1732 1.397 . S
C1731 C1736 1.363 . S
C1732 H1709 0.950 . S
C1732 C1731 1.397 . S
C1732 C1733 1.334 . S
C1733 H1710 0.950 . S
C1733 C1732 1.334 . S
C1733 C1734 1.287 . S
C1734 C1733 1.287 . S
C1734 C1735 1.524 . S
C1734 H1753 0.913 . S
C1735 H1711 0.950 . S
C1735 C1734 1.524 . S
C1735 C1736 1.415 . S
C1736 H1712 0.950 . S
C1736 C1731 1.363 . S
C1736 C1735 1.415 . S
C1737 H1713 0.951 . S
C1737 C1738 1.366 . S
C1737 C1739 1.388 . S
C1738 C1737 1.366 . S
C1738 C1742 1.385 . S
C1739 H1714 0.951 . S
C1739 C1737 1.388 . S
C1739 C1740 1.366 . S
C1740 C1739 1.366 . S
C1740 C1741 1.414 . S
C1740 C1743 1.499 . S
C1741 H1715 0.950 . S
C1741 C1740 1.414 . S
C1741 C1742 1.374 . S
C1742 H1716 0.950 . S
C1742 C1738 1.385 . S
C1742 C1741 1.374 . S
C1743 C1740 1.499 . S
C1743 C1744 1.373 . S
C1743 C1745 1.389 . S
C1744 H1717 0.950 . S
C1744 C1730 1.377 . S
C1744 C1743 1.373 . S
C1745 C1729 1.377 . S
C1745 C1743 1.389 . S
C1745 C1746 1.524 . S
C1746 C1745 1.524 . S
C1746 C1747 1.397 . S
C1746 C1751 1.363 . S
C1747 H1718 0.950 . S
C1747 C1746 1.397 . S
C1747 C1748 1.334 . S
C1748 H1719 0.950 . S
C1748 C1747 1.334 . S
C1748 C1749 1.287 . S
C1749 C1748 1.287 . S
C1749 C1750 1.524 . S
C1749 H1752 0.999 . S
C1750 H1720 0.950 . S
C1750 C1749 1.524 . S
C1750 C1751 1.415 . S
C1751 H1721 0.950 . S
C1751 C1746 1.363 . S
C1751 C1750 1.415 . S
H1752 C1749 0.999 . S
H1753 C1734 0.913 . S
H1754 C1772 0.951 . S
H1755 C1774 0.951 . S
H1756 C1776 0.950 . S
H1757 C1777 0.950 . S
H1758 C1779 0.950 . S
H1759 C1782 0.950 . S
H1760 C1783 0.950 . S
H1761 C1785 0.950 . S
H1762 C1786 0.950 . S
H1763 C1787 0.951 . S
H1764 C1789 0.951 . S
H1765 C1791 0.950 . S
H1766 C1792 0.950 . S
H1767 C1794 0.950 . S
H1768 C1797 0.950 . S
H1769 C1798 0.950 . S
H1770 C1800 0.950 . S
H1771 C1801 0.950 . S
C1772 H1754 0.951 . S
C1772 C1773 1.366 . S
C1772 C1774 1.388 . S
C1773 C1772 1.366 . S
C1773 C1777 1.385 . S
C1774 H1755 0.951 . S
C1774 C1772 1.388 . S
C1774 C1775 1.366 . S
C1775 C1774 1.366 . S
C1775 C1776 1.414 . S
C1775 C1778 1.499 . S
C1776 H1756 0.950 . S
C1776 C1775 1.414 . S
C1776 C1777 1.374 . S
C1777 H1757 0.950 . S
C1777 C1773 1.385 . S
C1777 C1776 1.374 . S
C1778 C1775 1.499 . S
C1778 C1779 1.373 . S
C1778 C1780 1.389 . S
C1779 H1758 0.950 . S
C1779 C1778 1.373 . S
C1779 C1795 1.377 . S
C1780 C1778 1.389 . S
C1780 C1781 1.524 . S
C1780 C1794 1.377 . S
C1781 C1780 1.524 . S
C1781 C1782 1.397 . S
C1781 C1786 1.363 . S
C1782 H1759 0.950 . S
C1782 C1781 1.397 . S
C1782 C1783 1.334 . S
C1783 H1760 0.950 . S
C1783 C1782 1.334 . S
C1783 C1784 1.287 . S
C1784 C1783 1.287 . S
C1784 C1785 1.524 . S
C1784 H1803 0.913 . S
C1785 H1761 0.950 . S
C1785 C1784 1.524 . S
C1785 C1786 1.415 . S
C1786 H1762 0.950 . S
C1786 C1781 1.363 . S
C1786 C1785 1.415 . S
C1787 H1763 0.951 . S
C1787 C1788 1.366 . S
C1787 C1789 1.388 . S
C1788 C1787 1.366 . S
C1788 C1792 1.385 . S
C1789 H1764 0.951 . S
C1789 C1787 1.388 . S
C1789 C1790 1.366 . S
C1790 C1789 1.366 . S
C1790 C1791 1.414 . S
C1790 C1793 1.499 . S
C1791 H1765 0.950 . S
C1791 C1790 1.414 . S
C1791 C1792 1.374 . S
C1792 H1766 0.950 . S
C1792 C1788 1.385 . S
C1792 C1791 1.374 . S
C1793 C1790 1.499 . S
C1793 C1794 1.373 . S
C1793 C1795 1.389 . S
C1794 H1767 0.950 . S
C1794 C1780 1.377 . S
C1794 C1793 1.373 . S
C1795 C1779 1.377 . S
C1795 C1793 1.389 . S
C1795 C1796 1.524 . S
C1796 C1795 1.524 . S
C1796 C1797 1.397 . S
C1796 C1801 1.363 . S
C1797 H1768 0.950 . S
C1797 C1796 1.397 . S
C1797 C1798 1.334 . S
C1798 H1769 0.950 . S
C1798 C1797 1.334 . S
C1798 C1799 1.287 . S
C1799 C1798 1.287 . S
C1799 C1800 1.524 . S
C1799 H1802 0.999 . S
C1800 H1770 0.950 . S
C1800 C1799 1.524 . S
C1800 C1801 1.415 . S
C1801 H1771 0.950 . S
C1801 C1796 1.363 . S
C1801 C1800 1.415 . S
H1802 C1799 0.999 . S
H1803 C1784 0.913 . S
H1804 C1822 0.951 . S
H1805 C1824 0.951 . S
H1806 C1826 0.950 . S
H1807 C1827 0.950 . S
H1808 C1829 0.950 . S
H1809 C1832 0.950 . S
H1810 C1833 0.950 . S
H1811 C1835 0.950 . S
H1812 C1836 0.950 . S
H1813 C1837 0.951 . S
H1814 C1839 0.951 . S
H1815 C1841 0.950 1_545 S
H1816 C1842 0.923 1_545 S
H1817 C1844 0.950 . S
H1818 C1847 0.950 . S
H1819 C1848 0.950 . S
H1820 C1850 0.950 . S
H1821 C1851 0.950 . S
C1822 H1804 0.951 . S
C1822 C1823 1.366 . S
C1822 C1824 1.388 . S
C1823 C1822 1.366 . S
C1823 C1827 1.385 1_545 S
C1824 H1805 0.951 . S
C1824 C1822 1.388 . S
C1824 C1825 1.366 . S
C1825 C1824 1.366 . S
C1825 C1826 1.414 1_545 S
C1825 C1828 1.499 1_545 S
C1826 H1806 0.950 . S
C1826 C1825 1.414 1_565 S
C1826 C1827 1.374 . S
C1827 H1807 0.950 . S
C1827 C1823 1.385 1_565 S
C1827 C1826 1.374 . S
C1828 C1825 1.499 1_565 S
C1828 C1829 1.373 . S
C1828 C1830 1.389 1_565 S
C1829 H1808 0.950 . S
C1829 C1828 1.373 . S
C1829 C1845 1.377 . S
C1830 C1828 1.389 1_545 S
C1830 C1831 1.524 . S
C1830 C1844 1.377 . S
C1831 C1830 1.524 . S
C1831 C1832 1.397 . S
C1831 C1836 1.363 . S
C1832 H1809 0.950 . S
C1832 C1831 1.397 . S
C1832 C1833 1.334 . S
C1833 H1810 0.950 . S
C1833 C1832 1.334 . S
C1833 C1834 1.287 . S
C1834 C1833 1.287 . S
C1834 C1835 1.524 . S
C1834 H1853 0.913 . S
C1835 H1811 0.950 . S
C1835 C1834 1.524 . S
C1835 C1836 1.415 . S
C1836 H1812 0.950 . S
C1836 C1831 1.363 . S
C1836 C1835 1.415 . S
C1837 H1813 0.951 . S
C1837 C1838 1.366 . S
C1837 C1839 1.388 . S
C1838 C1837 1.366 . S
C1838 C1842 1.385 . S
C1839 H1814 0.951 . S
C1839 C1837 1.388 . S
C1839 C1840 1.366 . S
C1840 C1839 1.366 . S
C1840 C1841 1.414 . S
C1840 C1843 1.499 . S
C1841 H1815 0.950 1_565 S
C1841 C1840 1.414 . S
C1841 C1842 1.374 . S
C1842 H1816 0.923 1_565 S
C1842 C1838 1.385 . S
C1842 C1841 1.374 . S
C1843 C1840 1.499 . S
C1843 C1844 1.373 1_565 S
C1843 C1845 1.389 . S
C1844 H1817 0.950 . S
C1844 C1830 1.377 . S
C1844 C1843 1.373 1_545 S
C1845 C1829 1.377 . S
C1845 C1843 1.389 . S
C1845 C1846 1.524 . S
C1846 C1845 1.524 . S
C1846 C1847 1.397 . S
C1846 C1851 1.363 . S
C1847 H1818 0.950 . S
C1847 C1846 1.397 . S
C1847 C1848 1.334 . S
C1848 H1819 0.950 . S
C1848 C1847 1.334 . S
C1848 C1849 1.287 . S
C1849 C1848 1.287 . S
C1849 C1850 1.524 . S
C1849 H1852 0.999 . S
C1850 H1820 0.950 . S
C1850 C1849 1.524 . S
C1850 C1851 1.415 . S
C1851 H1821 0.950 . S
C1851 C1846 1.363 . S
C1851 C1850 1.415 . S
H1852 C1849 0.999 . S
H1853 C1834 0.913 . S
H1854 C1872 0.951 . S
H1855 C1874 0.951 . S
H1856 C1876 0.950 . S
H1857 C1877 0.950 . S
H1858 C1879 0.950 . S
H1859 C1882 0.950 . S
H1860 C1883 0.950 . S
H1861 C1885 0.950 . S
H1862 C1886 0.950 . S
H1863 C1887 0.951 . S
H1864 C1889 0.951 . S
H1865 C1891 0.950 . S
H1866 C1892 0.950 . S
H1867 C1894 0.950 . S
H1868 C1897 0.950 . S
H1869 C1898 0.950 . S
H1870 C1900 0.950 . S
H1871 C1901 0.950 . S
C1872 H1854 0.951 . S
C1872 C1873 1.366 . S
C1872 C1874 1.388 . S
C1873 C1872 1.366 . S
C1873 C1877 1.385 . S
C1874 H1855 0.951 . S
C1874 C1872 1.388 . S
C1874 C1875 1.366 . S
C1875 C1874 1.366 . S
C1875 C1876 1.414 . S
C1875 C1878 1.499 . S
C1876 H1856 0.950 . S
C1876 C1875 1.414 . S
C1876 C1877 1.374 . S
C1877 H1857 0.950 . S
C1877 C1873 1.385 . S
C1877 C1876 1.374 . S
C1878 C1875 1.499 . S
C1878 C1879 1.373 . S
C1878 C1880 1.389 . S
C1879 H1858 0.950 . S
C1879 C1878 1.373 . S
C1879 C1895 1.377 . S
C1880 C1878 1.389 . S
C1880 C1881 1.524 . S
C1880 C1894 1.377 . S
C1881 C1880 1.524 . S
C1881 C1882 1.397 . S
C1881 C1886 1.363 . S
C1882 H1859 0.950 . S
C1882 C1881 1.397 . S
C1882 C1883 1.334 . S
C1883 H1860 0.950 . S
C1883 C1882 1.334 . S
C1883 C1884 1.287 . S
C1884 C1883 1.287 . S
C1884 C1885 1.524 . S
C1884 H1903 0.913 . S
C1885 H1861 0.950 . S
C1885 C1884 1.524 . S
C1885 C1886 1.415 . S
C1886 H1862 0.950 . S
C1886 C1881 1.363 . S
C1886 C1885 1.415 . S
C1887 H1863 0.951 . S
C1887 C1888 1.366 . S
C1887 C1889 1.388 . S
C1888 C1887 1.366 . S
C1888 C1892 1.385 . S
C1889 H1864 0.951 . S
C1889 C1887 1.388 . S
C1889 C1890 1.366 . S
C1890 C1889 1.366 . S
C1890 C1891 1.414 . S
C1890 C1893 1.499 . S
C1891 H1865 0.950 . S
C1891 C1890 1.414 . S
C1891 C1892 1.374 . S
C1892 H1866 0.950 . S
C1892 C1888 1.385 . S
C1892 C1891 1.374 . S
C1893 C1890 1.499 . S
C1893 C1894 1.373 . S
C1893 C1895 1.389 . S
C1894 H1867 0.950 . S
C1894 C1880 1.377 . S
C1894 C1893 1.373 . S
C1895 C1879 1.377 . S
C1895 C1893 1.389 . S
C1895 C1896 1.524 . S
C1896 C1895 1.524 . S
C1896 C1897 1.397 . S
C1896 C1901 1.363 . S
C1897 H1868 0.950 . S
C1897 C1896 1.397 . S
C1897 C1898 1.334 . S
C1898 H1869 0.950 . S
C1898 C1897 1.334 . S
C1898 C1899 1.287 . S
C1899 C1898 1.287 . S
C1899 C1900 1.524 . S
C1899 H1902 0.999 . S
C1900 H1870 0.950 . S
C1900 C1899 1.524 . S
C1900 C1901 1.415 . S
C1901 H1871 0.950 . S
C1901 C1896 1.363 . S
C1901 C1900 1.415 . S
H1902 C1899 0.999 . S
H1903 C1884 0.913 . S
H1904 C1922 0.951 . S
H1905 C1924 0.951 . S
H1906 C1926 0.935 . S
H1907 C1927 0.950 . S
H1908 C1929 0.950 . S
H1909 C1932 0.950 . S
H1910 C1933 0.950 . S
H1911 C1935 0.950 . S
H1912 C1936 0.950 . S
H1913 C1937 0.951 . S
H1914 C1939 0.951 . S
H1915 C1941 0.950 . S
H1916 C1942 0.950 . S
H1917 C1944 0.950 . S
H1918 C1947 0.950 . S
H1919 C1948 0.950 . S
H1920 C1950 0.950 . S
H1921 C1951 0.950 . S
C1922 H1904 0.951 . S
C1922 C1923 1.366 . S
C1922 C1924 1.388 . S
C1923 C1922 1.366 . S
C1923 C1927 1.385 . S
C1924 H1905 0.951 . S
C1924 C1922 1.388 . S
C1924 C1925 1.366 . S
C1925 C1924 1.366 . S
C1925 C1926 1.414 . S
C1925 C1928 1.499 1_455 S
C1926 H1906 0.935 . S
C1926 C1925 1.414 . S
C1926 C1927 1.374 . S
C1927 H1907 0.950 . S
C1927 C1923 1.385 . S
C1927 C1926 1.374 . S
C1928 C1925 1.499 1_655 S
C1928 C1929 1.373 . S
C1928 C1930 1.389 1_655 S
C1929 H1908 0.950 . S
C1929 C1928 1.373 . S
C1929 C1945 1.377 . S
C1930 C1928 1.389 1_455 S
C1930 C1931 1.524 . S
C1930 C1944 1.377 . S
C1931 C1930 1.524 . S
C1931 C1932 1.397 . S
C1931 C1936 1.363 . S
C1932 H1909 0.950 . S
C1932 C1931 1.397 . S
C1932 C1933 1.334 . S
C1933 H1910 0.950 . S
C1933 C1932 1.334 . S
C1933 C1934 1.287 . S
C1934 C1933 1.287 . S
C1934 C1935 1.524 . S
C1934 H1953 0.913 . S
C1935 H1911 0.950 . S
C1935 C1934 1.524 . S
C1935 C1936 1.415 . S
C1936 H1912 0.950 . S
C1936 C1931 1.363 . S
C1936 C1935 1.415 . S
C1937 H1913 0.951 . S
C1937 C1938 1.366 . S
C1937 C1939 1.388 . S
C1938 C1937 1.366 . S
C1938 C1942 1.385 . S
C1939 H1914 0.951 . S
C1939 C1937 1.388 . S
C1939 C1940 1.366 . S
C1940 C1939 1.366 . S
C1940 C1941 1.414 . S
C1940 C1943 1.499 . S
C1941 H1915 0.950 . S
C1941 C1940 1.414 . S
C1941 C1942 1.374 . S
C1942 H1916 0.950 . S
C1942 C1938 1.385 . S
C1942 C1941 1.374 . S
C1943 C1940 1.499 . S
C1943 C1944 1.373 1_655 S
C1943 C1945 1.389 . S
C1944 H1917 0.950 . S
C1944 C1930 1.377 . S
C1944 C1943 1.373 1_455 S
C1945 C1929 1.377 . S
C1945 C1943 1.389 . S
C1945 C1946 1.524 . S
C1946 C1945 1.524 . S
C1946 C1947 1.397 . S
C1946 C1951 1.363 . S
C1947 H1918 0.950 . S
C1947 C1946 1.397 . S
C1947 C1948 1.334 . S
C1948 H1919 0.950 . S
C1948 C1947 1.334 . S
C1948 C1949 1.287 . S
C1949 C1948 1.287 . S
C1949 C1950 1.524 . S
C1949 H1952 0.999 . S
C1950 H1920 0.950 . S
C1950 C1949 1.524 . S
C1950 C1951 1.415 . S
C1951 H1921 0.950 . S
C1951 C1946 1.363 . S
C1951 C1950 1.415 . S
H1952 C1949 0.999 . S
H1953 C1934 0.913 . S
H1954 C1972 0.951 . S
H1955 C1974 0.951 . S
H1956 C1976 0.950 . S
H1957 C1977 0.950 . S
H1958 C1979 0.950 . S
H1959 C1982 0.950 . S
H1960 C1983 0.950 . S
H1961 C1985 0.950 . S
H1962 C1986 0.950 . S
H1963 C1987 0.951 . S
H1964 C1989 0.951 . S
H1965 C1991 0.950 . S
H1966 C1992 0.950 . S
H1967 C1994 0.950 . S
H1968 C1997 0.950 . S
H1969 C1998 0.950 . S
H1970 C2000 0.950 . S
H1971 C2001 0.950 . S
C1972 H1954 0.951 . S
C1972 C1973 1.366 . S
C1972 C1974 1.388 . S
C1973 C1972 1.366 . S
C1973 C1977 1.385 . S
C1974 H1955 0.951 . S
C1974 C1972 1.388 . S
C1974 C1975 1.366 . S
C1975 C1974 1.366 . S
C1975 C1976 1.414 . S
C1975 C1978 1.499 . S
C1976 H1956 0.950 . S
C1976 C1975 1.414 . S
C1976 C1977 1.374 . S
C1977 H1957 0.950 . S
C1977 C1973 1.385 . S
C1977 C1976 1.374 . S
C1978 C1975 1.499 . S
C1978 C1979 1.373 . S
C1978 C1980 1.389 . S
C1979 H1958 0.950 . S
C1979 C1978 1.373 . S
C1979 C1995 1.377 . S
C1980 C1978 1.389 . S
C1980 C1981 1.524 . S
C1980 C1994 1.377 . S
C1981 C1980 1.524 . S
C1981 C1982 1.397 . S
C1981 C1986 1.363 . S
C1982 H1959 0.950 . S
C1982 C1981 1.397 . S
C1982 C1983 1.334 . S
C1983 H1960 0.950 . S
C1983 C1982 1.334 . S
C1983 C1984 1.287 . S
C1984 C1983 1.287 . S
C1984 C1985 1.524 . S
C1984 H2003 0.913 . S
C1985 H1961 0.950 . S
C1985 C1984 1.524 . S
C1985 C1986 1.415 . S
C1986 H1962 0.950 . S
C1986 C1981 1.363 . S
C1986 C1985 1.415 . S
C1987 H1963 0.951 . S
C1987 C1988 1.366 . S
C1987 C1989 1.388 . S
C1988 C1987 1.366 . S
C1988 C1992 1.385 . S
C1989 H1964 0.951 . S
C1989 C1987 1.388 . S
C1989 C1990 1.366 . S
C1990 C1989 1.366 . S
C1990 C1991 1.414 . S
C1990 C1993 1.499 . S
C1991 H1965 0.950 . S
C1991 C1990 1.414 . S
C1991 C1992 1.374 . S
C1992 H1966 0.950 . S
C1992 C1988 1.385 . S
C1992 C1991 1.374 . S
C1993 C1990 1.499 . S
C1993 C1994 1.373 . S
C1993 C1995 1.389 . S
C1994 H1967 0.950 . S
C1994 C1980 1.377 . S
C1994 C1993 1.373 . S
C1995 C1979 1.377 . S
C1995 C1993 1.389 . S
C1995 C1996 1.524 . S
C1996 C1995 1.524 . S
C1996 C1997 1.397 . S
C1996 C2001 1.363 . S
C1997 H1968 0.950 . S
C1997 C1996 1.397 . S
C1997 C1998 1.334 . S
C1998 H1969 0.950 . S
C1998 C1997 1.334 . S
C1998 C1999 1.287 . S
C1999 C1998 1.287 . S
C1999 C2000 1.524 . S
C1999 H2002 0.999 . S
C2000 H1970 0.950 . S
C2000 C1999 1.524 . S
C2000 C2001 1.415 . S
C2001 H1971 0.950 . S
C2001 C1996 1.363 . S
C2001 C2000 1.415 . S
H2002 C1999 0.999 . S
H2003 C1984 0.913 . S
H2004 C2022 0.951 . S
H2005 C2024 0.951 . S
H2006 C2026 0.950 . S
H2007 C2027 0.950 . S
H2008 C2029 0.950 . S
H2009 C2032 0.950 . S
H2010 C2033 0.950 . S
H2011 C2035 0.950 . S
H2012 C2036 0.950 . S
H2013 C2037 0.951 . S
H2014 C2039 0.951 . S
H2015 C2041 0.950 . S
H2016 C2042 0.950 . S
H2017 C2044 0.950 . S
H2018 C2047 0.950 . S
H2019 C2048 0.950 . S
H2020 C2050 0.950 . S
H2021 C2051 0.950 . S
C2022 H2004 0.951 . S
C2022 C2023 1.366 . S
C2022 C2024 1.388 . S
C2023 C2022 1.366 . S
C2023 C2027 1.385 . S
C2024 H2005 0.951 . S
C2024 C2022 1.388 . S
C2024 C2025 1.366 . S
C2025 C2024 1.366 . S
C2025 C2026 1.414 . S
C2025 C2028 1.499 . S
C2026 H2006 0.950 . S
C2026 C2025 1.414 . S
C2026 C2027 1.374 . S
C2027 H2007 0.950 . S
C2027 C2023 1.385 . S
C2027 C2026 1.374 . S
C2028 C2025 1.499 . S
C2028 C2029 1.373 . S
C2028 C2030 1.389 . S
C2029 H2008 0.950 . S
C2029 C2028 1.373 . S
C2029 C2045 1.377 . S
C2030 C2028 1.389 . S
C2030 C2031 1.524 . S
C2030 C2044 1.377 . S
C2031 C2030 1.524 . S
C2031 C2032 1.397 . S
C2031 C2036 1.363 . S
C2032 H2009 0.950 . S
C2032 C2031 1.397 . S
C2032 C2033 1.334 . S
C2033 H2010 0.950 . S
C2033 C2032 1.334 . S
C2033 C2034 1.287 . S
C2034 C2033 1.287 . S
C2034 C2035 1.524 . S
C2034 H2053 0.913 . S
C2035 H2011 0.950 . S
C2035 C2034 1.524 . S
C2035 C2036 1.415 . S
C2036 H2012 0.950 . S
C2036 C2031 1.363 . S
C2036 C2035 1.415 . S
C2037 H2013 0.951 . S
C2037 C2038 1.366 . S
C2037 C2039 1.388 . S
C2038 C2037 1.366 . S
C2038 C2042 1.385 . S
C2039 H2014 0.951 . S
C2039 C2037 1.388 . S
C2039 C2040 1.366 . S
C2040 C2039 1.366 . S
C2040 C2041 1.414 . S
C2040 C2043 1.499 . S
C2041 H2015 0.950 . S
C2041 C2040 1.414 . S
C2041 C2042 1.374 . S
C2042 H2016 0.950 . S
C2042 C2038 1.385 . S
C2042 C2041 1.374 . S
C2043 C2040 1.499 . S
C2043 C2044 1.373 . S
C2043 C2045 1.389 . S
C2044 H2017 0.950 . S
C2044 C2030 1.377 . S
C2044 C2043 1.373 . S
C2045 C2029 1.377 . S
C2045 C2043 1.389 . S
C2045 C2046 1.524 . S
C2046 C2045 1.524 . S
C2046 C2047 1.397 . S
C2046 C2051 1.363 . S
C2047 H2018 0.950 . S
C2047 C2046 1.397 . S
C2047 C2048 1.334 . S
C2048 H2019 0.950 . S
C2048 C2047 1.334 . S
C2048 C2049 1.287 . S
C2049 C2048 1.287 . S
C2049 C2050 1.524 . S
C2049 H2052 0.999 . S
C2050 H2020 0.950 . S
C2050 C2049 1.524 . S
C2050 C2051 1.415 . S
C2051 H2021 0.950 . S
C2051 C2046 1.363 . S
C2051 C2050 1.415 . S
H2052 C2049 0.999 . S
H2053 C2034 0.913 . S
H2054 C2072 0.951 . S
H2055 C2074 0.951 . S
H2056 C2076 0.950 . S
H2057 C2077 0.950 . S
H2058 C2079 0.950 . S
H2059 C2082 0.950 . S
H2060 C2083 0.950 . S
H2061 C2085 0.950 . S
H2062 C2086 0.950 . S
H2063 C2087 0.951 . S
H2064 C2089 0.951 . S
H2065 C2091 0.950 . S
H2066 C2092 0.950 . S
H2067 C2094 0.950 . S
H2068 C2097 0.950 . S
H2069 C2098 0.950 . S
H2070 C2100 0.950 . S
H2071 C2101 0.950 . S
C2072 H2054 0.951 . S
C2072 C2073 1.366 . S
C2072 C2074 1.388 . S
C2073 C2072 1.366 . S
C2073 C2077 1.385 . S
C2074 H2055 0.951 . S
C2074 C2072 1.388 . S
C2074 C2075 1.366 . S
C2075 C2074 1.366 . S
C2075 C2076 1.414 . S
C2075 C2078 1.499 . S
C2076 H2056 0.950 . S
C2076 C2075 1.414 . S
C2076 C2077 1.374 . S
C2077 H2057 0.950 . S
C2077 C2073 1.385 . S
C2077 C2076 1.374 . S
C2078 C2075 1.499 . S
C2078 C2079 1.373 . S
C2078 C2080 1.389 . S
C2079 H2058 0.950 . S
C2079 C2078 1.373 . S
C2079 C2095 1.377 . S
C2080 C2078 1.389 . S
C2080 C2081 1.524 . S
C2080 C2094 1.377 . S
C2081 C2080 1.524 . S
C2081 C2082 1.397 . S
C2081 C2086 1.363 . S
C2082 H2059 0.950 . S
C2082 C2081 1.397 . S
C2082 C2083 1.334 . S
C2083 H2060 0.950 . S
C2083 C2082 1.334 . S
C2083 C2084 1.287 . S
C2084 C2083 1.287 . S
C2084 C2085 1.524 . S
C2084 H2103 0.913 . S
C2085 H2061 0.950 . S
C2085 C2084 1.524 . S
C2085 C2086 1.415 . S
C2086 H2062 0.950 . S
C2086 C2081 1.363 . S
C2086 C2085 1.415 . S
C2087 H2063 0.951 . S
C2087 C2088 1.366 . S
C2087 C2089 1.388 . S
C2088 C2087 1.366 . S
C2088 C2092 1.385 1_565 S
C2089 H2064 0.951 . S
C2089 C2087 1.388 . S
C2089 C2090 1.366 1_565 S
C2090 C2089 1.366 1_545 S
C2090 C2091 1.414 . S
C2090 C2093 1.499 . S
C2091 H2065 0.950 . S
C2091 C2090 1.414 . S
C2091 C2092 1.374 . S
C2092 H2066 0.950 . S
C2092 C2088 1.385 1_545 S
C2092 C2091 1.374 . S
C2093 C2090 1.499 . S
C2093 C2094 1.373 . S
C2093 C2095 1.389 . S
C2094 H2067 0.950 . S
C2094 C2080 1.377 . S
C2094 C2093 1.373 . S
C2095 C2079 1.377 . S
C2095 C2093 1.389 . S
C2095 C2096 1.524 . S
C2096 C2095 1.524 . S
C2096 C2097 1.397 . S
C2096 C2101 1.363 . S
C2097 H2068 0.950 . S
C2097 C2096 1.397 . S
C2097 C2098 1.334 . S
C2098 H2069 0.950 . S
C2098 C2097 1.334 . S
C2098 C2099 1.287 . S
C2099 C2098 1.287 . S
C2099 C2100 1.524 . S
C2099 H2102 0.999 . S
C2100 H2070 0.950 . S
C2100 C2099 1.524 . S
C2100 C2101 1.415 . S
C2101 H2071 0.950 . S
C2101 C2096 1.363 . S
C2101 C2100 1.415 . S
H2102 C2099 0.999 . S
H2103 C2084 0.913 . S
H2104 C2122 0.939 1_655 S
H2105 C2124 0.951 . S
H2106 C2126 0.950 . S
H2107 C2127 0.950 . S
H2108 C2129 0.910 1_655 S
H2109 C2132 0.950 . S
H2110 C2133 0.950 . S
H2111 C2135 0.950 . S
H2112 C2136 0.950 . S
H2113 C2137 0.951 . S
H2114 C2139 0.951 . S
H2115 C2141 0.950 . S
H2116 C2142 0.950 . S
H2117 C2144 0.950 . S
H2118 C2147 0.950 . S
H2119 C2148 0.950 . S
H2120 C2150 0.950 . S
H2121 C2151 0.953 1_455 S
C2122 H2104 0.939 1_455 S
C2122 C2123 1.366 1_455 S
C2122 C2124 1.390 . S
C2123 C2122 1.366 1_655 S
C2123 C2127 1.385 . S
C2124 H2105 0.951 . S
C2124 C2122 1.390 . S
C2124 C2125 1.366 . S
C2125 C2124 1.366 . S
C2125 C2126 1.414 . S
C2125 C2128 1.499 . S
C2126 H2106 0.950 . S
C2126 C2125 1.414 . S
C2126 C2127 1.374 1_455 S
C2127 H2107 0.950 . S
C2127 C2123 1.385 . S
C2127 C2126 1.374 1_655 S
C2128 C2125 1.499 . S
C2128 C2129 1.373 . S
C2128 C2130 1.389 . S
C2129 H2108 0.910 1_455 S
C2129 C2128 1.373 . S
C2129 C2145 1.377 . S
C2130 C2128 1.389 . S
C2130 C2131 1.524 . S
C2130 C2144 1.377 . S
C2131 C2130 1.524 . S
C2131 C2132 1.397 . S
C2131 C2136 1.363 . S
C2132 H2109 0.950 . S
C2132 C2131 1.397 . S
C2132 C2133 1.334 . S
C2133 H2110 0.950 . S
C2133 C2132 1.334 . S
C2133 C2134 1.287 . S
C2134 C2133 1.287 . S
C2134 C2135 1.524 . S
C2134 H2153 0.913 . S
C2135 H2111 0.950 . S
C2135 C2134 1.524 . S
C2135 C2136 1.415 . S
C2136 H2112 0.950 . S
C2136 C2131 1.363 . S
C2136 C2135 1.415 . S
C2137 H2113 0.951 . S
C2137 C2138 1.366 . S
C2137 C2139 1.388 . S
C2138 C2137 1.366 . S
C2138 C2142 1.385 . S
C2139 H2114 0.951 . S
C2139 C2137 1.388 . S
C2139 C2140 1.366 . S
C2140 C2139 1.366 . S
C2140 C2141 1.414 . S
C2140 C2143 1.499 . S
C2141 H2115 0.950 . S
C2141 C2140 1.414 . S
C2141 C2142 1.374 . S
C2142 H2116 0.950 . S
C2142 C2138 1.385 . S
C2142 C2141 1.374 . S
C2143 C2140 1.499 . S
C2143 C2144 1.373 . S
C2143 C2145 1.389 . S
C2144 H2117 0.950 . S
C2144 C2130 1.377 . S
C2144 C2143 1.373 . S
C2145 C2129 1.377 . S
C2145 C2143 1.389 . S
C2145 C2146 1.524 . S
C2146 C2145 1.524 . S
C2146 C2147 1.397 . S
C2146 C2151 1.363 1_455 S
C2147 H2118 0.950 . S
C2147 C2146 1.397 . S
C2147 C2148 1.334 1_455 S
C2148 H2119 0.950 . S
C2148 C2147 1.334 1_655 S
C2148 C2149 1.287 . S
C2149 C2148 1.287 . S
C2149 C2150 1.524 . S
C2149 H2152 0.999 . S
C2150 H2120 0.950 . S
C2150 C2149 1.524 . S
C2150 C2151 1.415 . S
C2151 H2121 0.953 1_655 S
C2151 C2146 1.363 1_655 S
C2151 C2150 1.415 . S
H2152 C2149 0.999 . S
H2153 C2134 0.913 . S
H2154 C2172 0.951 . S
H2155 C2174 0.951 . S
H2156 C2176 0.950 . S
H2157 C2177 0.950 . S
H2158 C2179 0.950 . S
H2159 C2182 0.950 . S
H2160 C2183 0.950 . S
H2161 C2185 0.950 . S
H2162 C2186 0.950 . S
H2163 C2187 0.951 . S
H2164 C2189 0.951 . S
H2165 C2191 0.950 . S
H2166 C2192 0.950 . S
H2167 C2194 0.950 . S
H2168 C2197 0.950 . S
H2169 C2198 0.950 . S
H2170 C2200 0.950 . S
H2171 C2201 0.950 . S
C2172 H2154 0.951 . S
C2172 C2173 1.366 . S
C2172 C2174 1.388 . S
C2173 C2172 1.366 . S
C2173 C2177 1.385 . S
C2174 H2155 0.951 . S
C2174 C2172 1.388 . S
C2174 C2175 1.366 . S
C2175 C2174 1.366 . S
C2175 C2176 1.414 . S
C2175 C2178 1.499 . S
C2176 H2156 0.950 . S
C2176 C2175 1.414 . S
C2176 C2177 1.374 . S
C2177 H2157 0.950 . S
C2177 C2173 1.385 . S
C2177 C2176 1.374 . S
C2178 C2175 1.499 . S
C2178 C2179 1.373 . S
C2178 C2180 1.389 . S
C2179 H2158 0.950 . S
C2179 C2178 1.373 . S
C2179 C2195 1.377 . S
C2180 C2178 1.389 . S
C2180 C2181 1.524 . S
C2180 C2194 1.377 . S
C2181 C2180 1.524 . S
C2181 C2182 1.397 . S
C2181 C2186 1.363 . S
C2182 H2159 0.950 . S
C2182 C2181 1.397 . S
C2182 C2183 1.334 . S
C2183 H2160 0.950 . S
C2183 C2182 1.334 . S
C2183 C2184 1.287 . S
C2184 C2183 1.287 . S
C2184 C2185 1.524 . S
C2184 H2203 0.913 . S
C2185 H2161 0.950 . S
C2185 C2184 1.524 . S
C2185 C2186 1.415 . S
C2186 H2162 0.950 . S
C2186 C2181 1.363 . S
C2186 C2185 1.415 . S
C2187 H2163 0.951 . S
C2187 C2188 1.366 . S
C2187 C2189 1.388 . S
C2188 C2187 1.366 . S
C2188 C2192 1.385 . S
C2189 H2164 0.951 . S
C2189 C2187 1.388 . S
C2189 C2190 1.366 . S
C2190 C2189 1.366 . S
C2190 C2191 1.414 . S
C2190 C2193 1.499 . S
C2191 H2165 0.950 . S
C2191 C2190 1.414 . S
C2191 C2192 1.374 . S
C2192 H2166 0.950 . S
C2192 C2188 1.385 . S
C2192 C2191 1.374 . S
C2193 C2190 1.499 . S
C2193 C2194 1.373 . S
C2193 C2195 1.389 . S
C2194 H2167 0.950 . S
C2194 C2180 1.377 . S
C2194 C2193 1.373 . S
C2195 C2179 1.377 . S
C2195 C2193 1.389 . S
C2195 C2196 1.524 . S
C2196 C2195 1.524 . S
C2196 C2197 1.397 . S
C2196 C2201 1.363 . S
C2197 H2168 0.950 . S
C2197 C2196 1.397 . S
C2197 C2198 1.334 . S
C2198 H2169 0.950 . S
C2198 C2197 1.334 . S
C2198 C2199 1.287 . S
C2199 C2198 1.287 . S
C2199 C2200 1.524 . S
C2199 H2202 0.999 . S
C2200 H2170 0.950 . S
C2200 C2199 1.524 . S
C2200 C2201 1.415 . S
C2201 H2171 0.950 . S
C2201 C2196 1.363 . S
C2201 C2200 1.415 . S
H2202 C2199 0.999 . S
H2203 C2184 0.913 . S
H2204 C2222 0.951 . S
H2205 C2224 0.951 . S
H2206 C2226 0.950 . S
H2207 C2227 0.950 . S
H2208 C2229 0.950 . S
H2209 C2232 0.950 . S
H2210 C2233 0.950 . S
H2211 C2235 0.950 . S
H2212 C2236 0.950 . S
H2213 C2237 0.951 . S
H2214 C2239 0.951 . S
H2215 C2241 0.950 . S
H2216 C2242 0.950 . S
H2217 C2244 0.950 . S
H2218 C2247 0.950 . S
H2219 C2248 0.950 . S
H2220 C2250 0.950 . S
H2221 C2251 0.950 . S
C2222 H2204 0.951 . S
C2222 C2223 1.366 . S
C2222 C2224 1.388 . S
C2223 C2222 1.366 . S
C2223 C2227 1.385 1_565 S
C2224 H2205 0.951 . S
C2224 C2222 1.388 . S
C2224 C2225 1.366 1_565 S
C2225 C2224 1.366 1_545 S
C2225 C2226 1.414 . S
C2225 C2228 1.499 . S
C2226 H2206 0.950 . S
C2226 C2225 1.414 . S
C2226 C2227 1.374 . S
C2227 H2207 0.950 . S
C2227 C2223 1.385 1_545 S
C2227 C2226 1.374 . S
C2228 C2225 1.499 . S
C2228 C2229 1.373 . S
C2228 C2230 1.389 . S
C2229 H2208 0.950 . S
C2229 C2228 1.373 . S
C2229 C2245 1.377 . S
C2230 C2228 1.389 . S
C2230 C2231 1.524 1_545 S
C2230 C2244 1.377 . S
C2231 C2230 1.524 1_565 S
C2231 C2232 1.397 1_565 S
C2231 C2236 1.363 . S
C2232 H2209 0.950 . S
C2232 C2231 1.397 1_545 S
C2232 C2233 1.334 1_545 S
C2233 H2210 0.950 . S
C2233 C2232 1.334 1_565 S
C2233 C2234 1.287 . S
C2234 C2233 1.287 . S
C2234 C2235 1.524 . S
C2234 H2253 0.913 . S
C2235 H2211 0.950 . S
C2235 C2234 1.524 . S
C2235 C2236 1.415 . S
C2236 H2212 0.950 . S
C2236 C2231 1.363 . S
C2236 C2235 1.415 . S
C2237 H2213 0.951 . S
C2237 C2238 1.366 . S
C2237 C2239 1.388 . S
C2238 C2237 1.366 . S
C2238 C2242 1.385 . S
C2239 H2214 0.951 . S
C2239 C2237 1.388 . S
C2239 C2240 1.366 . S
C2240 C2239 1.366 . S
C2240 C2241 1.414 . S
C2240 C2243 1.499 . S
C2241 H2215 0.950 . S
C2241 C2240 1.414 . S
C2241 C2242 1.374 . S
C2242 H2216 0.950 . S
C2242 C2238 1.385 . S
C2242 C2241 1.374 . S
C2243 C2240 1.499 . S
C2243 C2244 1.373 . S
C2243 C2245 1.389 . S
C2244 H2217 0.950 . S
C2244 C2230 1.377 . S
C2244 C2243 1.373 . S
C2245 C2229 1.377 . S
C2245 C2243 1.389 . S
C2245 C2246 1.524 . S
C2246 C2245 1.524 . S
C2246 C2247 1.397 . S
C2246 C2251 1.363 . S
C2247 H2218 0.950 . S
C2247 C2246 1.397 . S
C2247 C2248 1.334 . S
C2248 H2219 0.950 . S
C2248 C2247 1.334 . S
C2248 C2249 1.287 . S
C2249 C2248 1.287 . S
C2249 C2250 1.524 . S
C2249 H2252 0.999 . S
C2250 H2220 0.950 . S
C2250 C2249 1.524 . S
C2250 C2251 1.415 . S
C2251 H2221 0.950 . S
C2251 C2246 1.363 . S
C2251 C2250 1.415 . S
H2252 C2249 0.999 . S
H2253 C2234 0.913 . S
H2254 C2272 0.951 . S
H2255 C2274 0.951 . S
H2256 C2276 0.950 . S
H2257 C2277 0.950 . S
H2258 C2279 0.950 . S
H2259 C2282 0.950 1_455 S
H2260 C2283 0.950 . S
H2261 C2285 0.950 . S
H2262 C2286 0.950 . S
H2263 C2287 0.951 . S
H2264 C2289 0.951 . S
H2265 C2291 0.950 . S
H2266 C2292 0.950 . S
H2267 C2294 0.950 . S
H2268 C2297 0.950 . S
H2269 C2298 0.950 . S
H2270 C2300 0.950 . S
H2271 C2301 0.950 . S
C2272 H2254 0.951 . S
C2272 C2273 1.366 . S
C2272 C2274 1.388 . S
C2273 C2272 1.366 . S
C2273 C2277 1.385 1_655 S
C2274 H2255 0.951 . S
C2274 C2272 1.388 . S
C2274 C2275 1.366 1_655 S
C2275 C2274 1.366 1_455 S
C2275 C2276 1.414 . S
C2275 C2278 1.499 . S
C2276 H2256 0.950 . S
C2276 C2275 1.414 . S
C2276 C2277 1.374 . S
C2277 H2257 0.950 . S
C2277 C2273 1.385 1_455 S
C2277 C2276 1.374 . S
C2278 C2275 1.499 . S
C2278 C2279 1.373 . S
C2278 C2280 1.389 . S
C2279 H2258 0.950 . S
C2279 C2278 1.373 . S
C2279 C2295 1.377 . S
C2280 C2278 1.389 . S
C2280 C2281 1.524 1_455 S
C2280 C2294 1.377 . S
C2281 C2280 1.524 1_655 S
C2281 C2282 1.397 . S
C2281 C2286 1.363 . S
C2282 H2259 0.950 1_655 S
C2282 C2281 1.397 . S
C2282 C2283 1.334 . S
C2283 H2260 0.950 . S
C2283 C2282 1.334 . S
C2283 C2284 1.287 . S
C2284 C2283 1.287 . S
C2284 C2285 1.524 . S
C2284 H2303 0.913 . S
C2285 H2261 0.950 . S
C2285 C2284 1.524 . S
C2285 C2286 1.415 . S
C2286 H2262 0.950 . S
C2286 C2281 1.363 . S
C2286 C2285 1.415 . S
C2287 H2263 0.951 . S
C2287 C2288 1.366 . S
C2287 C2289 1.388 . S
C2288 C2287 1.366 . S
C2288 C2292 1.385 . S
C2289 H2264 0.951 . S
C2289 C2287 1.388 . S
C2289 C2290 1.366 . S
C2290 C2289 1.366 . S
C2290 C2291 1.414 . S
C2290 C2293 1.499 . S
C2291 H2265 0.950 . S
C2291 C2290 1.414 . S
C2291 C2292 1.374 . S
C2292 H2266 0.950 . S
C2292 C2288 1.385 . S
C2292 C2291 1.374 . S
C2293 C2290 1.499 . S
C2293 C2294 1.373 . S
C2293 C2295 1.389 . S
C2294 H2267 0.950 . S
C2294 C2280 1.377 . S
C2294 C2293 1.373 . S
C2295 C2279 1.377 . S
C2295 C2293 1.389 . S
C2295 C2296 1.524 . S
C2296 C2295 1.524 . S
C2296 C2297 1.397 . S
C2296 C2301 1.363 . S
C2297 H2268 0.950 . S
C2297 C2296 1.397 . S
C2297 C2298 1.334 . S
C2298 H2269 0.950 . S
C2298 C2297 1.334 . S
C2298 C2299 1.287 . S
C2299 C2298 1.287 . S
C2299 C2300 1.524 . S
C2299 H2302 0.999 . S
C2300 H2270 0.950 . S
C2300 C2299 1.524 . S
C2300 C2301 1.415 . S
C2301 H2271 0.950 . S
C2301 C2296 1.363 . S
C2301 C2300 1.415 . S
H2302 C2299 0.999 . S
H2303 C2284 0.913 . S
H2304 C2322 0.951 . S
H2305 C2324 0.951 . S
H2306 C2326 0.950 . S
H2307 C2327 0.950 . S
H2308 C2329 0.950 . S
H2309 C2332 0.950 . S
H2310 C2333 0.950 . S
H2311 C2335 0.950 . S
H2312 C2336 0.950 . S
H2313 C2337 0.951 . S
H2314 C2339 0.951 . S
H2315 C2341 0.950 . S
H2316 C2342 0.950 . S
H2317 C2344 0.950 . S
H2318 C2347 0.950 . S
H2319 C2348 0.944 1_655 S
H2320 C2350 0.950 . S
H2321 C2351 0.950 . S
C2322 H2304 0.951 . S
C2322 C2323 1.366 . S
C2322 C2324 1.388 . S
C2323 C2322 1.366 . S
C2323 C2327 1.385 . S
C2324 H2305 0.951 . S
C2324 C2322 1.388 . S
C2324 C2325 1.366 . S
C2325 C2324 1.366 . S
C2325 C2326 1.414 . S
C2325 C2328 1.499 . S
C2326 H2306 0.950 . S
C2326 C2325 1.414 . S
C2326 C2327 1.374 . S
C2327 H2307 0.950 . S
C2327 C2323 1.385 . S
C2327 C2326 1.374 . S
C2328 C2325 1.499 . S
C2328 C2329 1.373 . S
C2328 C2330 1.389 . S
C2329 H2308 0.950 . S
C2329 C2328 1.373 . S
C2329 C2345 1.377 1_554 S
C2330 C2328 1.389 . S
C2330 C2331 1.524 . S
C2330 C2344 1.377 1_554 S
C2331 C2330 1.524 . S
C2331 C2332 1.397 . S
C2331 C2336 1.363 . S
C2332 H2309 0.950 . S
C2332 C2331 1.397 . S
C2332 C2333 1.334 . S
C2333 H2310 0.950 . S
C2333 C2332 1.334 . S
C2333 C2334 1.287 . S
C2334 C2333 1.287 . S
C2334 C2335 1.524 . S
C2334 H2353 0.913 . S
C2335 H2311 0.950 . S
C2335 C2334 1.524 . S
C2335 C2336 1.415 . S
C2336 H2312 0.950 . S
C2336 C2331 1.363 . S
C2336 C2335 1.415 . S
C2337 H2313 0.951 . S
C2337 C2338 1.366 . S
C2337 C2339 1.388 . S
C2338 C2337 1.366 . S
C2338 C2342 1.385 . S
C2339 H2314 0.951 . S
C2339 C2337 1.388 . S
C2339 C2340 1.366 . S
C2340 C2339 1.366 . S
C2340 C2341 1.414 . S
C2340 C2343 1.499 . S
C2341 H2315 0.950 . S
C2341 C2340 1.414 . S
C2341 C2342 1.374 . S
C2342 H2316 0.950 . S
C2342 C2338 1.385 . S
C2342 C2341 1.374 . S
C2343 C2340 1.499 . S
C2343 C2344 1.373 . S
C2343 C2345 1.389 . S
C2344 H2317 0.950 . S
C2344 C2330 1.377 1_556 S
C2344 C2343 1.373 . S
C2345 C2329 1.377 1_556 S
C2345 C2343 1.389 . S
C2345 C2346 1.524 . S
C2346 C2345 1.524 . S
C2346 C2347 1.397 . S
C2346 C2351 1.363 . S
C2347 H2318 0.950 . S
C2347 C2346 1.397 . S
C2347 C2348 1.334 . S
C2348 H2319 0.944 1_455 S
C2348 C2347 1.334 . S
C2348 C2349 1.287 . S
C2349 C2348 1.287 . S
C2349 C2350 1.524 . S
C2349 H2352 0.999 . S
C2350 H2320 0.950 . S
C2350 C2349 1.524 . S
C2350 C2351 1.415 . S
C2351 H2321 0.950 . S
C2351 C2346 1.363 . S
C2351 C2350 1.415 . S
H2352 C2349 0.999 . S
H2353 C2334 0.913 . S
H2354 C2372 0.951 . S
H2355 C2374 0.951 . S
H2356 C2376 0.950 . S
H2357 C2377 0.950 . S
H2358 C2379 0.950 . S
H2359 C2382 0.950 . S
H2360 C2383 0.950 . S
H2361 C2385 0.950 . S
H2362 C2386 0.950 . S
H2363 C2387 0.951 . S
H2364 C2389 0.951 . S
H2365 C2391 0.950 . S
H2366 C2392 0.950 . S
H2367 C2394 0.950 . S
H2368 C2397 0.950 . S
H2369 C2398 0.950 . S
H2370 C2400 0.950 . S
H2371 C2401 0.950 . S
C2372 H2354 0.951 . S
C2372 C2373 1.366 . S
C2372 C2374 1.388 . S
C2373 C2372 1.366 . S
C2373 C2377 1.385 . S
C2374 H2355 0.951 . S
C2374 C2372 1.388 . S
C2374 C2375 1.366 . S
C2375 C2374 1.366 . S
C2375 C2376 1.414 . S
C2375 C2378 1.499 . S
C2376 H2356 0.950 . S
C2376 C2375 1.414 . S
C2376 C2377 1.374 . S
C2377 H2357 0.950 . S
C2377 C2373 1.385 . S
C2377 C2376 1.374 . S
C2378 C2375 1.499 . S
C2378 C2379 1.373 . S
C2378 C2380 1.389 . S
C2379 H2358 0.950 . S
C2379 C2378 1.373 . S
C2379 C2395 1.377 1_556 S
C2380 C2378 1.389 . S
C2380 C2381 1.524 . S
C2380 C2394 1.377 1_556 S
C2381 C2380 1.524 . S
C2381 C2382 1.397 . S
C2381 C2386 1.363 . S
C2382 H2359 0.950 . S
C2382 C2381 1.397 . S
C2382 C2383 1.334 . S
C2383 H2360 0.950 . S
C2383 C2382 1.334 . S
C2383 C2384 1.287 . S
C2384 C2383 1.287 . S
C2384 C2385 1.524 . S
C2384 H2403 0.913 . S
C2385 H2361 0.950 . S
C2385 C2384 1.524 . S
C2385 C2386 1.415 . S
C2386 H2362 0.950 . S
C2386 C2381 1.363 . S
C2386 C2385 1.415 . S
C2387 H2363 0.951 . S
C2387 C2388 1.366 . S
C2387 C2389 1.388 . S
C2388 C2387 1.366 . S
C2388 C2392 1.385 . S
C2389 H2364 0.951 . S
C2389 C2387 1.388 . S
C2389 C2390 1.366 . S
C2390 C2389 1.366 . S
C2390 C2391 1.414 . S
C2390 C2393 1.499 . S
C2391 H2365 0.950 . S
C2391 C2390 1.414 . S
C2391 C2392 1.374 . S
C2392 H2366 0.950 . S
C2392 C2388 1.385 . S
C2392 C2391 1.374 . S
C2393 C2390 1.499 . S
C2393 C2394 1.373 . S
C2393 C2395 1.389 . S
C2394 H2367 0.950 . S
C2394 C2380 1.377 1_554 S
C2394 C2393 1.373 . S
C2395 C2379 1.377 1_554 S
C2395 C2393 1.389 . S
C2395 C2396 1.524 . S
C2396 C2395 1.524 . S
C2396 C2397 1.397 . S
C2396 C2401 1.363 . S
C2397 H2368 0.950 . S
C2397 C2396 1.397 . S
C2397 C2398 1.334 . S
C2398 H2369 0.950 . S
C2398 C2397 1.334 . S
C2398 C2399 1.287 . S
C2399 C2398 1.287 . S
C2399 C2400 1.524 . S
C2399 H2402 0.999 . S
C2400 H2370 0.950 . S
C2400 C2399 1.524 . S
C2400 C2401 1.415 . S
C2401 H2371 0.950 . S
C2401 C2396 1.363 . S
C2401 C2400 1.415 . S
H2402 C2399 0.999 . S
H2403 C2384 0.913 . S
H2404 C2422 0.951 . S
H2405 C2424 0.951 . S
H2406 C2426 0.950 . S
H2407 C2427 0.950 . S
H2408 C2429 0.950 . S
H2409 C2432 0.950 1_565 S
H2410 C2433 0.902 1_565 S
H2411 C2435 0.950 . S
H2412 C2436 0.950 . S
H2413 C2437 0.951 . S
H2414 C2439 0.951 . S
H2415 C2441 0.950 . S
H2416 C2442 0.950 . S
H2417 C2444 0.950 . S
H2418 C2447 0.950 . S
H2419 C2448 0.950 . S
H2420 C2450 0.950 . S
H2421 C2451 0.950 . S
C2422 H2404 0.951 . S
C2422 C2423 1.366 . S
C2422 C2424 1.388 . S
C2423 C2422 1.366 . S
C2423 C2427 1.385 . S
C2424 H2405 0.951 . S
C2424 C2422 1.388 . S
C2424 C2425 1.366 . S
C2425 C2424 1.366 . S
C2425 C2426 1.414 . S
C2425 C2428 1.499 . S
C2426 H2406 0.950 . S
C2426 C2425 1.414 . S
C2426 C2427 1.374 . S
C2427 H2407 0.950 . S
C2427 C2423 1.385 . S
C2427 C2426 1.374 . S
C2428 C2425 1.499 . S
C2428 C2429 1.373 . S
C2428 C2430 1.389 . S
C2429 H2408 0.950 . S
C2429 C2428 1.373 . S
C2429 C2445 1.377 1_556 S
C2430 C2428 1.389 . S
C2430 C2431 1.524 . S
C2430 C2444 1.377 1_556 S
C2431 C2430 1.524 . S
C2431 C2432 1.397 . S
C2431 C2436 1.363 . S
C2432 H2409 0.950 1_545 S
C2432 C2431 1.397 . S
C2432 C2433 1.381 . S
C2433 H2410 0.902 1_545 S
C2433 C2432 1.381 . S
C2433 C2434 1.294 . S
C2434 C2433 1.294 . S
C2434 C2435 1.524 . S
C2434 H2453 0.913 . S
C2435 H2411 0.950 . S
C2435 C2434 1.524 . S
C2435 C2436 1.415 . S
C2436 H2412 0.950 . S
C2436 C2431 1.363 . S
C2436 C2435 1.415 . S
C2437 H2413 0.951 . S
C2437 C2438 1.366 . S
C2437 C2439 1.388 . S
C2438 C2437 1.366 . S
C2438 C2442 1.385 . S
C2439 H2414 0.951 . S
C2439 C2437 1.388 . S
C2439 C2440 1.366 . S
C2440 C2439 1.366 . S
C2440 C2441 1.414 . S
C2440 C2443 1.499 . S
C2441 H2415 0.950 . S
C2441 C2440 1.414 . S
C2441 C2442 1.374 . S
C2442 H2416 0.950 . S
C2442 C2438 1.385 . S
C2442 C2441 1.374 . S
C2443 C2440 1.499 . S
C2443 C2444 1.373 . S
C2443 C2445 1.389 . S
C2444 H2417 0.950 . S
C2444 C2430 1.377 1_554 S
C2444 C2443 1.373 . S
C2445 C2429 1.377 1_554 S
C2445 C2443 1.389 . S
C2445 C2446 1.524 . S
C2446 C2445 1.524 . S
C2446 C2447 1.397 . S
C2446 C2451 1.363 . S
C2447 H2418 0.950 . S
C2447 C2446 1.397 . S
C2447 C2448 1.334 . S
C2448 H2419 0.950 . S
C2448 C2447 1.334 . S
C2448 C2449 1.287 . S
C2449 C2448 1.287 . S
C2449 C2450 1.524 . S
C2449 H2452 0.999 . S
C2450 H2420 0.950 . S
C2450 C2449 1.524 . S
C2450 C2451 1.415 . S
C2451 H2421 0.950 . S
C2451 C2446 1.363 . S
C2451 C2450 1.415 . S
H2452 C2449 0.999 . S
H2453 C2434 0.913 . S
H2454 C2472 0.951 . S
H2455 C2474 0.951 . S
H2456 C2476 0.950 . S
H2457 C2477 0.950 . S
H2458 C2479 0.950 . S
H2459 C2482 0.950 . S
H2460 C2483 0.950 . S
H2461 C2485 0.950 . S
H2462 C2486 0.950 . S
H2463 C2487 0.951 . S
H2464 C2489 0.951 . S
H2465 C2491 0.950 . S
H2466 C2492 0.950 . S
H2467 C2494 0.950 . S
H2468 C2497 0.950 . S
H2469 C2498 0.950 . S
H2470 C2500 0.950 . S
H2471 C2501 0.950 . S
C2472 H2454 0.951 . S
C2472 C2473 1.366 . S
C2472 C2474 1.388 . S
C2473 C2472 1.366 . S
C2473 C2477 1.385 . S
C2474 H2455 0.951 . S
C2474 C2472 1.388 . S
C2474 C2475 1.366 . S
C2475 C2474 1.366 . S
C2475 C2476 1.414 . S
C2475 C2478 1.499 . S
C2476 H2456 0.950 . S
C2476 C2475 1.414 . S
C2476 C2477 1.374 . S
C2477 H2457 0.950 . S
C2477 C2473 1.385 . S
C2477 C2476 1.374 . S
C2478 C2475 1.499 . S
C2478 C2479 1.373 . S
C2478 C2480 1.389 . S
C2479 H2458 0.950 . S
C2479 C2478 1.373 . S
C2479 C2495 1.377 1_556 S
C2480 C2478 1.389 . S
C2480 C2481 1.524 1_455 S
C2480 C2494 1.377 1_556 S
C2481 C2480 1.524 1_655 S
C2481 C2482 1.397 . S
C2481 C2486 1.363 . S
C2482 H2459 0.950 . S
C2482 C2481 1.397 . S
C2482 C2483 1.334 . S
C2483 H2460 0.950 . S
C2483 C2482 1.334 . S
C2483 C2484 1.287 . S
C2484 C2483 1.287 . S
C2484 C2485 1.524 . S
C2484 H2503 0.913 . S
C2485 H2461 0.950 . S
C2485 C2484 1.524 . S
C2485 C2486 1.415 . S
C2486 H2462 0.950 . S
C2486 C2481 1.363 . S
C2486 C2485 1.415 . S
C2487 H2463 0.951 . S
C2487 C2488 1.366 . S
C2487 C2489 1.388 . S
C2488 C2487 1.366 . S
C2488 C2492 1.385 . S
C2489 H2464 0.951 . S
C2489 C2487 1.388 . S
C2489 C2490 1.366 . S
C2490 C2489 1.366 . S
C2490 C2491 1.414 . S
C2490 C2493 1.499 . S
C2491 H2465 0.950 . S
C2491 C2490 1.414 . S
C2491 C2492 1.374 . S
C2492 H2466 0.950 . S
C2492 C2488 1.385 . S
C2492 C2491 1.374 . S
C2493 C2490 1.499 . S
C2493 C2494 1.373 . S
C2493 C2495 1.389 . S
C2494 H2467 0.950 . S
C2494 C2480 1.377 1_554 S
C2494 C2493 1.373 . S
C2495 C2479 1.377 1_554 S
C2495 C2493 1.389 . S
C2495 C2496 1.524 . S
C2496 C2495 1.524 . S
C2496 C2497 1.397 . S
C2496 C2501 1.363 . S
C2497 H2468 0.950 . S
C2497 C2496 1.397 . S
C2497 C2498 1.334 . S
C2498 H2469 0.950 . S
C2498 C2497 1.334 . S
C2498 C2499 1.287 . S
C2499 C2498 1.287 . S
C2499 C2500 1.524 . S
C2499 H2502 0.999 . S
C2500 H2470 0.950 . S
C2500 C2499 1.524 . S
C2500 C2501 1.415 . S
C2501 H2471 0.950 . S
C2501 C2496 1.363 . S
C2501 C2500 1.415 . S
H2502 C2499 0.999 . S
H2503 C2484 0.913 . S
H2504 C2522 0.951 . S
H2505 C2524 0.951 . S
H2506 C2526 0.950 . S
H2507 C2527 0.950 . S
H2508 C2529 0.950 . S
H2509 C2532 0.950 . S
H2510 C2533 0.950 . S
H2511 C2535 0.950 . S
H2512 C2536 0.950 . S
H2513 C2537 0.951 . S
H2514 C2539 0.951 . S
H2515 C2541 0.950 . S
H2516 C2542 0.950 . S
H2517 C2544 0.950 . S
H2518 C2547 0.950 . S
H2519 C2548 0.950 . S
H2520 C2550 0.950 . S
H2521 C2551 0.950 . S
C2522 H2504 0.951 . S
C2522 C2523 1.366 . S
C2522 C2524 1.388 . S
C2523 C2522 1.366 . S
C2523 C2527 1.385 . S
C2524 H2505 0.951 . S
C2524 C2522 1.388 . S
C2524 C2525 1.366 . S
C2525 C2524 1.366 . S
C2525 C2526 1.414 . S
C2525 C2528 1.499 . S
C2526 H2506 0.950 . S
C2526 C2525 1.414 . S
C2526 C2527 1.374 . S
C2527 H2507 0.950 . S
C2527 C2523 1.385 . S
C2527 C2526 1.374 . S
C2528 C2525 1.499 . S
C2528 C2529 1.373 . S
C2528 C2530 1.389 . S
C2529 H2508 0.950 . S
C2529 C2528 1.373 . S
C2529 C2545 1.377 1_554 S
C2530 C2528 1.389 . S
C2530 C2531 1.524 . S
C2530 C2544 1.377 1_554 S
C2531 C2530 1.524 . S
C2531 C2532 1.397 . S
C2531 C2536 1.363 . S
C2532 H2509 0.950 . S
C2532 C2531 1.397 . S
C2532 C2533 1.334 . S
C2533 H2510 0.950 . S
C2533 C2532 1.334 . S
C2533 C2534 1.287 . S
C2534 C2533 1.287 . S
C2534 C2535 1.524 . S
C2534 H2553 0.913 . S
C2535 H2511 0.950 . S
C2535 C2534 1.524 . S
C2535 C2536 1.415 . S
C2536 H2512 0.950 . S
C2536 C2531 1.363 . S
C2536 C2535 1.415 . S
C2537 H2513 0.951 . S
C2537 C2538 1.366 . S
C2537 C2539 1.388 . S
C2538 C2537 1.366 . S
C2538 C2542 1.385 . S
C2539 H2514 0.951 . S
C2539 C2537 1.388 . S
C2539 C2540 1.366 . S
C2540 C2539 1.366 . S
C2540 C2541 1.414 . S
C2540 C2543 1.499 . S
C2541 H2515 0.950 . S
C2541 C2540 1.414 . S
C2541 C2542 1.374 . S
C2542 H2516 0.950 . S
C2542 C2538 1.385 . S
C2542 C2541 1.374 . S
C2543 C2540 1.499 . S
C2543 C2544 1.373 . S
C2543 C2545 1.389 . S
C2544 H2517 0.950 . S
C2544 C2530 1.377 1_556 S
C2544 C2543 1.373 . S
C2545 C2529 1.377 1_556 S
C2545 C2543 1.389 . S
C2545 C2546 1.524 . S
C2546 C2545 1.524 . S
C2546 C2547 1.397 . S
C2546 C2551 1.363 . S
C2547 H2518 0.950 . S
C2547 C2546 1.397 . S
C2547 C2548 1.334 . S
C2548 H2519 0.950 . S
C2548 C2547 1.334 . S
C2548 C2549 1.287 . S
C2549 C2548 1.287 . S
C2549 C2550 1.524 . S
C2549 H2552 0.999 . S
C2550 H2520 0.950 . S
C2550 C2549 1.524 . S
C2550 C2551 1.415 . S
C2551 H2521 0.950 . S
C2551 C2546 1.363 . S
C2551 C2550 1.415 . S
H2552 C2549 0.999 . S
H2553 C2534 0.913 . S
H2554 C2572 0.951 . S
H2555 C2574 0.951 . S
H2556 C2576 0.950 . S
H2557 C2577 0.950 . S
H2558 C2579 0.962 . S
H2559 C2582 0.950 . S
H2560 C2583 0.950 . S
H2561 C2585 0.950 . S
H2562 C2586 0.950 . S
H2563 C2587 0.951 . S
H2564 C2589 0.951 . S
H2565 C2591 0.950 . S
H2566 C2592 0.950 . S
H2567 C2594 0.950 . S
H2568 C2597 0.950 1_545 S
H2569 C2598 0.950 . S
H2570 C2600 0.950 . S
H2571 C2601 0.950 . S
C2572 H2554 0.951 . S
C2572 C2573 1.366 . S
C2572 C2574 1.388 . S
C2573 C2572 1.366 . S
C2573 C2577 1.385 . S
C2574 H2555 0.951 . S
C2574 C2572 1.388 . S
C2574 C2575 1.366 . S
C2575 C2574 1.366 . S
C2575 C2576 1.414 . S
C2575 C2578 1.499 . S
C2576 H2556 0.950 . S
C2576 C2575 1.414 . S
C2576 C2577 1.374 . S
C2577 H2557 0.950 . S
C2577 C2573 1.385 . S
C2577 C2576 1.374 . S
C2578 C2575 1.499 . S
C2578 C2579 1.373 . S
C2578 C2580 1.389 . S
C2579 H2558 0.962 . S
C2579 C2578 1.373 . S
C2579 C2595 1.377 1_556 S
C2580 C2578 1.389 . S
C2580 C2581 1.524 . S
C2580 C2594 1.377 1_556 S
C2581 C2580 1.524 . S
C2581 C2582 1.397 . S
C2581 C2586 1.363 . S
C2582 H2559 0.950 . S
C2582 C2581 1.397 . S
C2582 C2583 1.334 . S
C2583 H2560 0.950 . S
C2583 C2582 1.334 . S
C2583 C2584 1.287 . S
C2584 C2583 1.287 . S
C2584 C2585 1.524 . S
C2584 H2603 0.913 . S
C2585 H2561 0.950 . S
C2585 C2584 1.524 . S
C2585 C2586 1.415 . S
C2586 H2562 0.950 . S
C2586 C2581 1.363 . S
C2586 C2585 1.415 . S
C2587 H2563 0.951 . S
C2587 C2588 1.366 . S
C2587 C2589 1.388 . S
C2588 C2587 1.366 . S
C2588 C2592 1.385 . S
C2589 H2564 0.951 . S
C2589 C2587 1.388 . S
C2589 C2590 1.366 . S
C2590 C2589 1.366 . S
C2590 C2591 1.414 . S
C2590 C2593 1.499 . S
C2591 H2565 0.950 . S
C2591 C2590 1.414 . S
C2591 C2592 1.374 . S
C2592 H2566 0.950 . S
C2592 C2588 1.385 . S
C2592 C2591 1.374 . S
C2593 C2590 1.499 . S
C2593 C2594 1.373 . S
C2593 C2595 1.389 . S
C2594 H2567 0.950 . S
C2594 C2580 1.377 1_554 S
C2594 C2593 1.373 . S
C2595 C2579 1.377 1_554 S
C2595 C2593 1.389 . S
C2595 C2596 1.524 1_545 S
C2596 C2595 1.524 1_565 S
C2596 C2597 1.397 . S
C2596 C2601 1.363 . S
C2597 H2568 0.950 1_565 S
C2597 C2596 1.397 . S
C2597 C2598 1.334 . S
C2598 H2569 0.950 . S
C2598 C2597 1.334 . S
C2598 C2599 1.287 . S
C2599 C2598 1.287 . S
C2599 C2600 1.524 . S
C2599 H2602 0.999 . S
C2600 H2570 0.950 . S
C2600 C2599 1.524 . S
C2600 C2601 1.415 . S
C2601 H2571 0.950 . S
C2601 C2596 1.363 . S
C2601 C2600 1.415 . S
H2602 C2599 0.999 . S
H2603 C2584 0.913 . S
H2604 C2622 0.951 . S
H2605 C2624 0.951 . S
H2606 C2626 0.950 . S
H2607 C2627 0.950 . S
H2608 C2629 0.950 . S
H2609 C2632 0.950 . S
H2610 C2633 0.950 . S
H2611 C2635 0.950 . S
H2612 C2636 0.950 . S
H2613 C2637 0.951 . S
H2614 C2639 0.951 . S
H2615 C2641 0.950 . S
H2616 C2642 0.950 . S
H2617 C2644 0.950 . S
H2618 C2647 0.950 . S
H2619 C2648 0.950 . S
H2620 C2650 0.950 . S
H2621 C2651 0.950 . S
C2622 H2604 0.951 . S
C2622 C2623 1.366 . S
C2622 C2624 1.388 . S
C2623 C2622 1.366 . S
C2623 C2627 1.385 . S
C2624 H2605 0.951 . S
C2624 C2622 1.388 . S
C2624 C2625 1.366 . S
C2625 C2624 1.366 . S
C2625 C2626 1.414 . S
C2625 C2628 1.499 . S
C2626 H2606 0.950 . S
C2626 C2625 1.414 . S
C2626 C2627 1.374 . S
C2627 H2607 0.950 . S
C2627 C2623 1.385 . S
C2627 C2626 1.374 . S
C2628 C2625 1.499 . S
C2628 C2629 1.373 . S
C2628 C2630 1.389 . S
C2629 H2608 0.950 . S
C2629 C2628 1.373 . S
C2629 C2645 1.377 . S
C2630 C2628 1.389 . S
C2630 C2631 1.524 . S
C2630 C2644 1.377 . S
C2631 C2630 1.524 . S
C2631 C2632 1.397 . S
C2631 C2636 1.363 . S
C2632 H2609 0.950 . S
C2632 C2631 1.397 . S
C2632 C2633 1.334 . S
C2633 H2610 0.950 . S
C2633 C2632 1.334 . S
C2633 C2634 1.287 . S
C2634 C2633 1.287 . S
C2634 C2635 1.524 . S
C2634 H2653 0.913 . S
C2635 H2611 0.950 . S
C2635 C2634 1.524 . S
C2635 C2636 1.415 . S
C2636 H2612 0.950 . S
C2636 C2631 1.363 . S
C2636 C2635 1.415 . S
C2637 H2613 0.951 . S
C2637 C2638 1.366 . S
C2637 C2639 1.388 . S
C2638 C2637 1.366 . S
C2638 C2642 1.385 . S
C2639 H2614 0.951 . S
C2639 C2637 1.388 . S
C2639 C2640 1.366 . S
C2640 C2639 1.366 . S
C2640 C2641 1.414 . S
C2640 C2643 1.499 . S
C2641 H2615 0.950 . S
C2641 C2640 1.414 . S
C2641 C2642 1.374 . S
C2642 H2616 0.950 . S
C2642 C2638 1.385 . S
C2642 C2641 1.374 . S
C2643 C2640 1.499 . S
C2643 C2644 1.373 . S
C2643 C2645 1.389 . S
C2644 H2617 0.950 . S
C2644 C2630 1.377 . S
C2644 C2643 1.373 . S
C2645 C2629 1.377 . S
C2645 C2643 1.389 . S
C2645 C2646 1.524 . S
C2646 C2645 1.524 . S
C2646 C2647 1.397 . S
C2646 C2651 1.363 . S
C2647 H2618 0.950 . S
C2647 C2646 1.397 . S
C2647 C2648 1.334 . S
C2648 H2619 0.950 . S
C2648 C2647 1.334 . S
C2648 C2649 1.287 . S
C2649 C2648 1.287 . S
C2649 C2650 1.524 . S
C2649 H2652 0.999 . S
C2650 H2620 0.950 . S
C2650 C2649 1.524 . S
C2650 C2651 1.415 . S
C2651 H2621 0.950 . S
C2651 C2646 1.363 . S
C2651 C2650 1.415 . S
H2652 C2649 0.999 . S
H2653 C2634 0.913 . S
H2654 C2672 0.951 . S
H2655 C2674 0.951 . S
H2656 C2676 0.950 . S
H2657 C2677 0.950 . S
H2658 C2679 0.950 . S
H2659 C2682 0.950 . S
H2660 C2683 0.950 . S
H2661 C2685 0.950 . S
H2662 C2686 0.950 . S
H2663 C2687 0.951 . S
H2664 C2689 0.951 . S
H2665 C2691 0.950 . S
H2666 C2692 0.950 . S
H2667 C2694 0.950 . S
H2668 C2697 0.950 . S
H2669 C2698 0.950 . S
H2670 C2700 0.950 . S
H2671 C2701 0.950 . S
C2672 H2654 0.951 . S
C2672 C2673 1.366 . S
C2672 C2674 1.388 . S
C2673 C2672 1.366 . S
C2673 C2677 1.385 . S
C2674 H2655 0.951 . S
C2674 C2672 1.388 . S
C2674 C2675 1.366 . S
C2675 C2674 1.366 . S
C2675 C2676 1.414 . S
C2675 C2678 1.499 . S
C2676 H2656 0.950 . S
C2676 C2675 1.414 . S
C2676 C2677 1.374 . S
C2677 H2657 0.950 . S
C2677 C2673 1.385 . S
C2677 C2676 1.374 . S
C2678 C2675 1.499 . S
C2678 C2679 1.373 . S
C2678 C2680 1.389 . S
C2679 H2658 0.950 . S
C2679 C2678 1.373 . S
C2679 C2695 1.377 . S
C2680 C2678 1.389 . S
C2680 C2681 1.524 . S
C2680 C2694 1.377 . S
C2681 C2680 1.524 . S
C2681 C2682 1.397 . S
C2681 C2686 1.363 . S
C2682 H2659 0.950 . S
C2682 C2681 1.397 . S
C2682 C2683 1.334 . S
C2683 H2660 0.950 . S
C2683 C2682 1.334 . S
C2683 C2684 1.287 . S
C2684 C2683 1.287 . S
C2684 C2685 1.524 . S
C2684 H2703 0.913 . S
C2685 H2661 0.950 . S
C2685 C2684 1.524 . S
C2685 C2686 1.415 . S
C2686 H2662 0.950 . S
C2686 C2681 1.363 . S
C2686 C2685 1.415 . S
C2687 H2663 0.951 . S
C2687 C2688 1.366 . S
C2687 C2689 1.388 . S
C2688 C2687 1.366 . S
C2688 C2692 1.385 . S
C2689 H2664 0.951 . S
C2689 C2687 1.388 . S
C2689 C2690 1.366 . S
C2690 C2689 1.366 . S
C2690 C2691 1.414 . S
C2690 C2693 1.499 . S
C2691 H2665 0.950 . S
C2691 C2690 1.414 . S
C2691 C2692 1.374 . S
C2692 H2666 0.950 . S
C2692 C2688 1.385 . S
C2692 C2691 1.374 . S
C2693 C2690 1.499 . S
C2693 C2694 1.373 . S
C2693 C2695 1.389 . S
C2694 H2667 0.950 . S
C2694 C2680 1.377 . S
C2694 C2693 1.373 . S
C2695 C2679 1.377 . S
C2695 C2693 1.389 . S
C2695 C2696 1.524 . S
C2696 C2695 1.524 . S
C2696 C2697 1.397 . S
C2696 C2701 1.363 . S
C2697 H2668 0.950 . S
C2697 C2696 1.397 . S
C2697 C2698 1.334 . S
C2698 H2669 0.950 . S
C2698 C2697 1.334 . S
C2698 C2699 1.287 . S
C2699 C2698 1.287 . S
C2699 C2700 1.524 . S
C2699 H2702 0.999 . S
C2700 H2670 0.950 . S
C2700 C2699 1.524 . S
C2700 C2701 1.415 . S
C2701 H2671 0.950 . S
C2701 C2696 1.363 . S
C2701 C2700 1.415 . S
H2702 C2699 0.999 . S
H2703 C2684 0.913 . S
H2704 C2722 0.951 . S
H2705 C2724 0.951 . S
H2706 C2726 0.950 . S
H2707 C2727 0.950 . S
H2708 C2729 0.950 . S
H2709 C2732 0.950 . S
H2710 C2733 0.950 . S
H2711 C2735 0.950 . S
H2712 C2736 0.950 . S
H2713 C2737 0.951 . S
H2714 C2739 0.951 . S
H2715 C2741 0.950 . S
H2716 C2742 0.950 . S
H2717 C2744 0.950 . S
H2718 C2747 0.950 . S
H2719 C2748 0.950 . S
H2720 C2750 0.950 . S
H2721 C2751 0.950 . S
C2722 H2704 0.951 . S
C2722 C2723 1.366 . S
C2722 C2724 1.388 . S
C2723 C2722 1.366 . S
C2723 C2727 1.385 . S
C2724 H2705 0.951 . S
C2724 C2722 1.388 . S
C2724 C2725 1.366 . S
C2725 C2724 1.366 . S
C2725 C2726 1.414 . S
C2725 C2728 1.499 . S
C2726 H2706 0.950 . S
C2726 C2725 1.414 . S
C2726 C2727 1.374 . S
C2727 H2707 0.950 . S
C2727 C2723 1.385 . S
C2727 C2726 1.374 . S
C2728 C2725 1.499 . S
C2728 C2729 1.373 . S
C2728 C2730 1.389 . S
C2729 H2708 0.950 . S
C2729 C2728 1.373 . S
C2729 C2745 1.377 . S
C2730 C2728 1.389 . S
C2730 C2731 1.524 . S
C2730 C2744 1.377 . S
C2731 C2730 1.524 . S
C2731 C2732 1.397 . S
C2731 C2736 1.363 . S
C2732 H2709 0.950 . S
C2732 C2731 1.397 . S
C2732 C2733 1.334 . S
C2733 H2710 0.950 . S
C2733 C2732 1.334 . S
C2733 C2734 1.287 . S
C2734 C2733 1.287 . S
C2734 C2735 1.524 . S
C2734 H2753 0.913 . S
C2735 H2711 0.950 . S
C2735 C2734 1.524 . S
C2735 C2736 1.415 . S
C2736 H2712 0.950 . S
C2736 C2731 1.363 . S
C2736 C2735 1.415 . S
C2737 H2713 0.951 . S
C2737 C2738 1.366 . S
C2737 C2739 1.388 . S
C2738 C2737 1.366 . S
C2738 C2742 1.385 . S
C2739 H2714 0.951 . S
C2739 C2737 1.388 . S
C2739 C2740 1.366 . S
C2740 C2739 1.366 . S
C2740 C2741 1.414 . S
C2740 C2743 1.499 . S
C2741 H2715 0.950 . S
C2741 C2740 1.414 . S
C2741 C2742 1.374 . S
C2742 H2716 0.950 . S
C2742 C2738 1.385 . S
C2742 C2741 1.374 . S
C2743 C2740 1.499 . S
C2743 C2744 1.373 . S
C2743 C2745 1.389 . S
C2744 H2717 0.950 . S
C2744 C2730 1.377 . S
C2744 C2743 1.373 . S
C2745 C2729 1.377 . S
C2745 C2743 1.389 . S
C2745 C2746 1.524 . S
C2746 C2745 1.524 . S
C2746 C2747 1.397 . S
C2746 C2751 1.363 . S
C2747 H2718 0.950 . S
C2747 C2746 1.397 . S
C2747 C2748 1.334 . S
C2748 H2719 0.950 . S
C2748 C2747 1.334 . S
C2748 C2749 1.287 . S
C2749 C2748 1.287 . S
C2749 C2750 1.524 . S
C2749 H2752 0.999 . S
C2750 H2720 0.950 . S
C2750 C2749 1.524 . S
C2750 C2751 1.415 . S
C2751 H2721 0.950 . S
C2751 C2746 1.363 . S
C2751 C2750 1.415 . S
H2752 C2749 0.999 . S
H2753 C2734 0.913 . S
H2754 C2772 0.951 . S
H2755 C2774 0.951 . S
H2756 C2776 0.950 . S
H2757 C2777 0.950 . S
H2758 C2779 0.950 . S
H2759 C2782 0.950 . S
H2760 C2783 0.950 . S
H2761 C2785 0.950 . S
H2762 C2786 0.950 . S
H2763 C2787 0.951 . S
H2764 C2789 0.951 . S
H2765 C2791 0.950 . S
H2766 C2792 0.950 . S
H2767 C2794 0.950 . S
H2768 C2797 0.950 . S
H2769 C2798 0.950 . S
H2770 C2800 0.950 . S
H2771 C2801 0.950 . S
C2772 H2754 0.951 . S
C2772 C2773 1.366 . S
C2772 C2774 1.388 . S
C2773 C2772 1.366 . S
C2773 C2777 1.385 . S
C2774 H2755 0.951 . S
C2774 C2772 1.388 . S
C2774 C2775 1.366 . S
C2775 C2774 1.366 . S
C2775 C2776 1.414 . S
C2775 C2778 1.499 . S
C2776 H2756 0.950 . S
C2776 C2775 1.414 . S
C2776 C2777 1.374 . S
C2777 H2757 0.950 . S
C2777 C2773 1.385 . S
C2777 C2776 1.374 . S
C2778 C2775 1.499 . S
C2778 C2779 1.373 . S
C2778 C2780 1.389 . S
C2779 H2758 0.950 . S
C2779 C2778 1.373 . S
C2779 C2795 1.377 . S
C2780 C2778 1.389 . S
C2780 C2781 1.524 . S
C2780 C2794 1.377 . S
C2781 C2780 1.524 . S
C2781 C2782 1.397 . S
C2781 C2786 1.363 . S
C2782 H2759 0.950 . S
C2782 C2781 1.397 . S
C2782 C2783 1.334 . S
C2783 H2760 0.950 . S
C2783 C2782 1.334 . S
C2783 C2784 1.287 . S
C2784 C2783 1.287 . S
C2784 C2785 1.524 . S
C2784 H2803 0.913 . S
C2785 H2761 0.950 . S
C2785 C2784 1.524 . S
C2785 C2786 1.415 . S
C2786 H2762 0.950 . S
C2786 C2781 1.363 . S
C2786 C2785 1.415 . S
C2787 H2763 0.951 . S
C2787 C2788 1.366 . S
C2787 C2789 1.388 . S
C2788 C2787 1.366 . S
C2788 C2792 1.385 . S
C2789 H2764 0.951 . S
C2789 C2787 1.388 . S
C2789 C2790 1.366 . S
C2790 C2789 1.366 . S
C2790 C2791 1.414 . S
C2790 C2793 1.499 . S
C2791 H2765 0.950 . S
C2791 C2790 1.414 . S
C2791 C2792 1.374 . S
C2792 H2766 0.950 . S
C2792 C2788 1.385 . S
C2792 C2791 1.374 . S
C2793 C2790 1.499 . S
C2793 C2794 1.373 . S
C2793 C2795 1.389 . S
C2794 H2767 0.950 . S
C2794 C2780 1.377 . S
C2794 C2793 1.373 . S
C2795 C2779 1.377 . S
C2795 C2793 1.389 . S
C2795 C2796 1.524 . S
C2796 C2795 1.524 . S
C2796 C2797 1.397 . S
C2796 C2801 1.363 . S
C2797 H2768 0.950 . S
C2797 C2796 1.397 . S
C2797 C2798 1.334 . S
C2798 H2769 0.950 . S
C2798 C2797 1.334 . S
C2798 C2799 1.287 . S
C2799 C2798 1.287 . S
C2799 C2800 1.524 . S
C2799 H2802 0.999 . S
C2800 H2770 0.950 . S
C2800 C2799 1.524 . S
C2800 C2801 1.415 . S
C2801 H2771 0.950 . S
C2801 C2796 1.363 . S
C2801 C2800 1.415 . S
H2802 C2799 0.999 . S
H2803 C2784 0.913 . S
H2804 C2822 0.951 . S
H2805 C2824 0.951 . S
H2806 C2826 0.950 . S
H2807 C2827 0.950 . S
H2808 C2829 0.950 . S
H2809 C2832 0.950 . S
H2810 C2833 0.950 . S
H2811 C2835 0.950 . S
H2812 C2836 0.950 . S
H2813 C2837 0.951 . S
H2814 C2839 0.951 . S
H2815 C2841 0.950 . S
H2816 C2842 0.950 . S
H2817 C2844 0.950 . S
H2818 C2847 0.950 . S
H2819 C2848 0.950 . S
H2820 C2850 0.950 . S
H2821 C2851 0.950 . S
C2822 H2804 0.951 . S
C2822 C2823 1.366 . S
C2822 C2824 1.388 . S
C2823 C2822 1.366 . S
C2823 C2827 1.385 . S
C2824 H2805 0.951 . S
C2824 C2822 1.388 . S
C2824 C2825 1.366 . S
C2825 C2824 1.366 . S
C2825 C2826 1.414 . S
C2825 C2828 1.499 . S
C2826 H2806 0.950 . S
C2826 C2825 1.414 . S
C2826 C2827 1.374 . S
C2827 H2807 0.950 . S
C2827 C2823 1.385 . S
C2827 C2826 1.374 . S
C2828 C2825 1.499 . S
C2828 C2829 1.373 . S
C2828 C2830 1.389 . S
C2829 H2808 0.950 . S
C2829 C2828 1.373 . S
C2829 C2845 1.377 . S
C2830 C2828 1.389 . S
C2830 C2831 1.524 . S
C2830 C2844 1.377 . S
C2831 C2830 1.524 . S
C2831 C2832 1.397 . S
C2831 C2836 1.363 . S
C2832 H2809 0.950 . S
C2832 C2831 1.397 . S
C2832 C2833 1.334 . S
C2833 H2810 0.950 . S
C2833 C2832 1.334 . S
C2833 C2834 1.287 . S
C2834 C2833 1.287 . S
C2834 C2835 1.524 . S
C2834 H2853 0.913 . S
C2835 H2811 0.950 . S
C2835 C2834 1.524 . S
C2835 C2836 1.415 . S
C2836 H2812 0.950 . S
C2836 C2831 1.363 . S
C2836 C2835 1.415 . S
C2837 H2813 0.951 . S
C2837 C2838 1.366 . S
C2837 C2839 1.388 . S
C2838 C2837 1.366 . S
C2838 C2842 1.385 . S
C2839 H2814 0.951 . S
C2839 C2837 1.388 . S
C2839 C2840 1.366 . S
C2840 C2839 1.366 . S
C2840 C2841 1.414 . S
C2840 C2843 1.499 . S
C2841 H2815 0.950 . S
C2841 C2840 1.414 . S
C2841 C2842 1.374 . S
C2842 H2816 0.950 . S
C2842 C2838 1.385 . S
C2842 C2841 1.374 . S
C2843 C2840 1.499 . S
C2843 C2844 1.373 . S
C2843 C2845 1.389 . S
C2844 H2817 0.950 . S
C2844 C2830 1.377 . S
C2844 C2843 1.373 . S
C2845 C2829 1.377 . S
C2845 C2843 1.389 . S
C2845 C2846 1.524 . S
C2846 C2845 1.524 . S
C2846 C2847 1.397 . S
C2846 C2851 1.363 . S
C2847 H2818 0.950 . S
C2847 C2846 1.397 . S
C2847 C2848 1.334 . S
C2848 H2819 0.950 . S
C2848 C2847 1.334 . S
C2848 C2849 1.287 . S
C2849 C2848 1.287 . S
C2849 C2850 1.524 . S
C2849 H2852 0.999 . S
C2850 H2820 0.950 . S
C2850 C2849 1.524 . S
C2850 C2851 1.415 . S
C2851 H2821 0.950 . S
C2851 C2846 1.363 . S
C2851 C2850 1.415 . S
H2852 C2849 0.999 . S
H2853 C2834 0.913 . S
H2854 C2872 0.951 . S
H2855 C2874 0.951 . S
H2856 C2876 0.950 . S
H2857 C2877 0.950 . S
H2858 C2879 0.950 . S
H2859 C2882 0.950 . S
H2860 C2883 0.950 . S
H2861 C2885 0.950 . S
H2862 C2886 0.950 . S
H2863 C2887 0.951 . S
H2864 C2889 0.951 . S
H2865 C2891 0.950 . S
H2866 C2892 0.950 . S
H2867 C2894 0.950 . S
H2868 C2897 0.950 . S
H2869 C2898 0.950 . S
H2870 C2900 0.950 . S
H2871 C2901 0.950 . S
C2872 H2854 0.951 . S
C2872 C2873 1.366 . S
C2872 C2874 1.388 . S
C2873 C2872 1.366 . S
C2873 C2877 1.385 . S
C2874 H2855 0.951 . S
C2874 C2872 1.388 . S
C2874 C2875 1.366 . S
C2875 C2874 1.366 . S
C2875 C2876 1.414 . S
C2875 C2878 1.499 . S
C2876 H2856 0.950 . S
C2876 C2875 1.414 . S
C2876 C2877 1.374 . S
C2877 H2857 0.950 . S
C2877 C2873 1.385 . S
C2877 C2876 1.374 . S
C2878 C2875 1.499 . S
C2878 C2879 1.373 . S
C2878 C2880 1.389 . S
C2879 H2858 0.950 . S
C2879 C2878 1.373 . S
C2879 C2895 1.377 . S
C2880 C2878 1.389 . S
C2880 C2881 1.524 . S
C2880 C2894 1.377 . S
C2881 C2880 1.524 . S
C2881 C2882 1.397 . S
C2881 C2886 1.363 . S
C2882 H2859 0.950 . S
C2882 C2881 1.397 . S
C2882 C2883 1.334 . S
C2883 H2860 0.950 . S
C2883 C2882 1.334 . S
C2883 C2884 1.287 . S
C2884 C2883 1.287 . S
C2884 C2885 1.524 . S
C2884 H2903 0.913 . S
C2885 H2861 0.950 . S
C2885 C2884 1.524 . S
C2885 C2886 1.415 . S
C2886 H2862 0.950 . S
C2886 C2881 1.363 . S
C2886 C2885 1.415 . S
C2887 H2863 0.951 . S
C2887 C2888 1.366 . S
C2887 C2889 1.388 . S
C2888 C2887 1.366 . S
C2888 C2892 1.385 . S
C2889 H2864 0.951 . S
C2889 C2887 1.388 . S
C2889 C2890 1.366 . S
C2890 C2889 1.366 . S
C2890 C2891 1.414 . S
C2890 C2893 1.499 . S
C2891 H2865 0.950 . S
C2891 C2890 1.414 . S
C2891 C2892 1.374 . S
C2892 H2866 0.950 . S
C2892 C2888 1.385 . S
C2892 C2891 1.374 . S
C2893 C2890 1.499 . S
C2893 C2894 1.373 . S
C2893 C2895 1.389 . S
C2894 H2867 0.950 . S
C2894 C2880 1.377 . S
C2894 C2893 1.373 . S
C2895 C2879 1.377 . S
C2895 C2893 1.389 . S
C2895 C2896 1.524 . S
C2896 C2895 1.524 . S
C2896 C2897 1.397 . S
C2896 C2901 1.363 . S
C2897 H2868 0.950 . S
C2897 C2896 1.397 . S
C2897 C2898 1.334 . S
C2898 H2869 0.950 . S
C2898 C2897 1.334 . S
C2898 C2899 1.287 . S
C2899 C2898 1.287 . S
C2899 C2900 1.524 . S
C2899 H2902 0.999 . S
C2900 H2870 0.950 . S
C2900 C2899 1.524 . S
C2900 C2901 1.415 . S
C2901 H2871 0.950 . S
C2901 C2896 1.363 . S
C2901 C2900 1.415 . S
H2902 C2899 0.999 . S
H2903 C2884 0.913 . S
H2904 C2922 0.951 . S
H2905 C2924 0.951 . S
H2906 C2926 0.950 . S
H2907 C2927 0.950 . S
H2908 C2929 0.950 . S
H2909 C2932 0.950 . S
H2910 C2933 0.950 . S
H2911 C2935 0.950 . S
H2912 C2936 0.950 . S
H2913 C2937 0.951 . S
H2914 C2939 0.951 . S
H2915 C2941 0.950 . S
H2916 C2942 0.950 . S
H2917 C2944 0.950 . S
H2918 C2947 0.950 . S
H2919 C2948 0.944 . S
H2920 C2950 0.950 . S
H2921 C2951 0.950 . S
C2922 H2904 0.951 . S
C2922 C2923 1.366 . S
C2922 C2924 1.388 . S
C2923 C2922 1.366 . S
C2923 C2927 1.385 . S
C2924 H2905 0.951 . S
C2924 C2922 1.388 . S
C2924 C2925 1.366 . S
C2925 C2924 1.366 . S
C2925 C2926 1.414 . S
C2925 C2928 1.499 . S
C2926 H2906 0.950 . S
C2926 C2925 1.414 . S
C2926 C2927 1.374 . S
C2927 H2907 0.950 . S
C2927 C2923 1.385 . S
C2927 C2926 1.374 . S
C2928 C2925 1.499 . S
C2928 C2929 1.373 . S
C2928 C2930 1.389 . S
C2929 H2908 0.950 . S
C2929 C2928 1.373 . S
C2929 C2945 1.377 . S
C2930 C2928 1.389 . S
C2930 C2931 1.524 . S
C2930 C2944 1.377 . S
C2931 C2930 1.524 . S
C2931 C2932 1.397 . S
C2931 C2936 1.363 . S
C2932 H2909 0.950 . S
C2932 C2931 1.397 . S
C2932 C2933 1.334 . S
C2933 H2910 0.950 . S
C2933 C2932 1.334 . S
C2933 C2934 1.287 . S
C2934 C2933 1.287 . S
C2934 C2935 1.524 . S
C2934 H2953 0.913 . S
C2935 H2911 0.950 . S
C2935 C2934 1.524 . S
C2935 C2936 1.415 . S
C2936 H2912 0.950 . S
C2936 C2931 1.363 . S
C2936 C2935 1.415 . S
C2937 H2913 0.951 . S
C2937 C2938 1.366 . S
C2937 C2939 1.388 . S
C2938 C2937 1.366 . S
C2938 C2942 1.385 . S
C2939 H2914 0.951 . S
C2939 C2937 1.388 . S
C2939 C2940 1.366 . S
C2940 C2939 1.366 . S
C2940 C2941 1.414 . S
C2940 C2943 1.499 . S
C2941 H2915 0.950 . S
C2941 C2940 1.414 . S
C2941 C2942 1.374 . S
C2942 H2916 0.950 . S
C2942 C2938 1.385 . S
C2942 C2941 1.374 . S
C2943 C2940 1.499 . S
C2943 C2944 1.373 . S
C2943 C2945 1.389 . S
C2944 H2917 0.950 . S
C2944 C2930 1.377 . S
C2944 C2943 1.373 . S
C2945 C2929 1.377 . S
C2945 C2943 1.389 . S
C2945 C2946 1.524 . S
C2946 C2945 1.524 . S
C2946 C2947 1.397 . S
C2946 C2951 1.363 1_565 S
C2947 H2918 0.950 . S
C2947 C2946 1.397 . S
C2947 C2948 1.368 . S
C2948 H2919 0.944 . S
C2948 C2947 1.368 . S
C2948 C2949 1.261 1_565 S
C2949 C2948 1.261 1_545 S
C2949 C2950 1.524 . S
C2949 H2952 0.999 . S
C2950 H2920 0.950 . S
C2950 C2949 1.524 . S
C2950 C2951 1.415 . S
C2951 H2921 0.950 . S
C2951 C2946 1.363 1_545 S
C2951 C2950 1.415 . S
H2952 C2949 0.999 . S
H2953 C2934 0.913 . S
H2954 C2972 0.951 . S
H2955 C2974 0.951 . S
H2956 C2976 0.950 . S
H2957 C2977 0.950 . S
H2958 C2979 0.950 . S
H2959 C2982 0.950 . S
H2960 C2983 0.950 . S
H2961 C2985 0.950 . S
H2962 C2986 0.950 . S
H2963 C2987 0.951 . S
H2964 C2989 0.951 . S
H2965 C2991 0.950 . S
H2966 C2992 0.950 . S
H2967 C2994 0.950 . S
H2968 C2997 0.950 . S
H2969 C2998 0.950 . S
H2970 C3000 0.950 . S
H2971 C3001 0.950 . S
C2972 H2954 0.951 . S
C2972 C2973 1.366 . S
C2972 C2974 1.388 . S
C2973 C2972 1.366 . S
C2973 C2977 1.385 . S
C2974 H2955 0.951 . S
C2974 C2972 1.388 . S
C2974 C2975 1.366 . S
C2975 C2974 1.366 . S
C2975 C2976 1.414 . S
C2975 C2978 1.499 . S
C2976 H2956 0.950 . S
C2976 C2975 1.414 . S
C2976 C2977 1.374 . S
C2977 H2957 0.950 . S
C2977 C2973 1.385 . S
C2977 C2976 1.374 . S
C2978 C2975 1.499 . S
C2978 C2979 1.373 . S
C2978 C2980 1.389 . S
C2979 H2958 0.950 . S
C2979 C2978 1.373 . S
C2979 C2995 1.377 . S
C2980 C2978 1.389 . S
C2980 C2981 1.524 . S
C2980 C2994 1.377 . S
C2981 C2980 1.524 . S
C2981 C2982 1.397 . S
C2981 C2986 1.363 . S
C2982 H2959 0.950 . S
C2982 C2981 1.397 . S
C2982 C2983 1.334 . S
C2983 H2960 0.950 . S
C2983 C2982 1.334 . S
C2983 C2984 1.287 . S
C2984 C2983 1.287 . S
C2984 C2985 1.524 . S
C2984 H3003 0.913 . S
C2985 H2961 0.950 . S
C2985 C2984 1.524 . S
C2985 C2986 1.415 . S
C2986 H2962 0.950 . S
C2986 C2981 1.363 . S
C2986 C2985 1.415 . S
C2987 H2963 0.951 . S
C2987 C2988 1.366 . S
C2987 C2989 1.388 . S
C2988 C2987 1.366 . S
C2988 C2992 1.385 . S
C2989 H2964 0.951 . S
C2989 C2987 1.388 . S
C2989 C2990 1.366 . S
C2990 C2989 1.366 . S
C2990 C2991 1.414 . S
C2990 C2993 1.499 . S
C2991 H2965 0.950 . S
C2991 C2990 1.414 . S
C2991 C2992 1.374 . S
C2992 H2966 0.950 . S
C2992 C2988 1.385 . S
C2992 C2991 1.374 . S
C2993 C2990 1.499 . S
C2993 C2994 1.373 . S
C2993 C2995 1.389 . S
C2994 H2967 0.950 . S
C2994 C2980 1.377 . S
C2994 C2993 1.373 . S
C2995 C2979 1.377 . S
C2995 C2993 1.389 . S
C2995 C2996 1.524 . S
C2996 C2995 1.524 . S
C2996 C2997 1.397 . S
C2996 C3001 1.363 . S
C2997 H2968 0.950 . S
C2997 C2996 1.397 . S
C2997 C2998 1.334 . S
C2998 H2969 0.950 . S
C2998 C2997 1.334 . S
C2998 C2999 1.287 . S
C2999 C2998 1.287 . S
C2999 C3000 1.524 . S
C2999 H3002 0.999 . S
C3000 H2970 0.950 . S
C3000 C2999 1.524 . S
C3000 C3001 1.415 . S
C3001 H2971 0.950 . S
C3001 C2996 1.363 . S
C3001 C3000 1.415 . S
H3002 C2999 0.999 . S
H3003 C2984 0.913 . S
H3004 C3022 0.951 . S
H3005 C3024 0.951 . S
H3006 C3026 0.950 . S
H3007 C3027 0.950 . S
H3008 C3029 0.950 . S
H3009 C3032 0.950 . S
H3010 C3033 0.950 . S
H3011 C3035 0.950 . S
H3012 C3036 0.950 . S
H3013 C3037 0.951 . S
H3014 C3039 0.951 . S
H3015 C3041 0.950 . S
H3016 C3042 0.950 . S
H3017 C3044 0.950 . S
H3018 C3047 0.950 . S
H3019 C3048 0.950 . S
H3020 C3050 0.950 . S
H3021 C3051 0.950 . S
C3022 H3004 0.951 . S
C3022 C3023 1.366 . S
C3022 C3024 1.388 . S
C3023 C3022 1.366 . S
C3023 C3027 1.385 . S
C3024 H3005 0.951 . S
C3024 C3022 1.388 . S
C3024 C3025 1.366 . S
C3025 C3024 1.366 . S
C3025 C3026 1.414 . S
C3025 C3028 1.499 . S
C3026 H3006 0.950 . S
C3026 C3025 1.414 . S
C3026 C3027 1.374 . S
C3027 H3007 0.950 . S
C3027 C3023 1.385 . S
C3027 C3026 1.374 . S
C3028 C3025 1.499 . S
C3028 C3029 1.373 . S
C3028 C3030 1.389 . S
C3029 H3008 0.950 . S
C3029 C3028 1.373 . S
C3029 C3045 1.377 . S
C3030 C3028 1.389 . S
C3030 C3031 1.524 . S
C3030 C3044 1.377 . S
C3031 C3030 1.524 . S
C3031 C3032 1.397 . S
C3031 C3036 1.363 . S
C3032 H3009 0.950 . S
C3032 C3031 1.397 . S
C3032 C3033 1.334 . S
C3033 H3010 0.950 . S
C3033 C3032 1.334 . S
C3033 C3034 1.287 . S
C3034 C3033 1.287 . S
C3034 C3035 1.524 . S
C3034 H3053 0.913 . S
C3035 H3011 0.950 . S
C3035 C3034 1.524 . S
C3035 C3036 1.415 . S
C3036 H3012 0.950 . S
C3036 C3031 1.363 . S
C3036 C3035 1.415 . S
C3037 H3013 0.951 . S
C3037 C3038 1.366 . S
C3037 C3039 1.388 . S
C3038 C3037 1.366 . S
C3038 C3042 1.385 . S
C3039 H3014 0.951 . S
C3039 C3037 1.388 . S
C3039 C3040 1.366 . S
C3040 C3039 1.366 . S
C3040 C3041 1.414 . S
C3040 C3043 1.499 . S
C3041 H3015 0.950 . S
C3041 C3040 1.414 . S
C3041 C3042 1.374 . S
C3042 H3016 0.950 . S
C3042 C3038 1.385 . S
C3042 C3041 1.374 . S
C3043 C3040 1.499 . S
C3043 C3044 1.373 . S
C3043 C3045 1.389 . S
C3044 H3017 0.950 . S
C3044 C3030 1.377 . S
C3044 C3043 1.373 . S
C3045 C3029 1.377 . S
C3045 C3043 1.389 . S
C3045 C3046 1.524 . S
C3046 C3045 1.524 . S
C3046 C3047 1.397 . S
C3046 C3051 1.363 . S
C3047 H3018 0.950 . S
C3047 C3046 1.397 . S
C3047 C3048 1.334 . S
C3048 H3019 0.950 . S
C3048 C3047 1.334 . S
C3048 C3049 1.287 . S
C3049 C3048 1.287 . S
C3049 C3050 1.524 . S
C3049 H3052 0.999 . S
C3050 H3020 0.950 . S
C3050 C3049 1.524 . S
C3050 C3051 1.415 . S
C3051 H3021 0.950 . S
C3051 C3046 1.363 . S
C3051 C3050 1.415 . S
H3052 C3049 0.999 . S
H3053 C3034 0.913 . S
H3054 C3072 0.951 . S
H3055 C3074 0.951 . S
H3056 C3076 0.950 . S
H3057 C3077 0.950 . S
H3058 C3079 0.950 . S
H3059 C3082 0.950 . S
H3060 C3083 0.950 . S
H3061 C3085 0.950 . S
H3062 C3086 0.950 . S
H3063 C3087 0.951 . S
H3064 C3089 0.951 . S
H3065 C3091 0.950 . S
H3066 C3092 0.950 . S
H3067 C3094 0.950 . S
H3068 C3097 0.950 . S
H3069 C3098 0.950 . S
H3070 C3100 0.950 . S
H3071 C3101 0.950 . S
C3072 H3054 0.951 . S
C3072 C3073 1.366 . S
C3072 C3074 1.388 . S
C3073 C3072 1.366 . S
C3073 C3077 1.385 . S
C3074 H3055 0.951 . S
C3074 C3072 1.388 . S
C3074 C3075 1.366 . S
C3075 C3074 1.366 . S
C3075 C3076 1.414 . S
C3075 C3078 1.499 . S
C3076 H3056 0.950 . S
C3076 C3075 1.414 . S
C3076 C3077 1.374 . S
C3077 H3057 0.950 . S
C3077 C3073 1.385 . S
C3077 C3076 1.374 . S
C3078 C3075 1.499 . S
C3078 C3079 1.373 . S
C3078 C3080 1.389 . S
C3079 H3058 0.950 . S
C3079 C3078 1.373 . S
C3079 C3095 1.377 . S
C3080 C3078 1.389 . S
C3080 C3081 1.524 . S
C3080 C3094 1.377 . S
C3081 C3080 1.524 . S
C3081 C3082 1.397 . S
C3081 C3086 1.363 . S
C3082 H3059 0.950 . S
C3082 C3081 1.397 . S
C3082 C3083 1.334 . S
C3083 H3060 0.950 . S
C3083 C3082 1.334 . S
C3083 C3084 1.287 . S
C3084 C3083 1.287 . S
C3084 C3085 1.524 . S
C3084 H3103 0.913 . S
C3085 H3061 0.950 . S
C3085 C3084 1.524 . S
C3085 C3086 1.415 . S
C3086 H3062 0.950 . S
C3086 C3081 1.363 . S
C3086 C3085 1.415 . S
C3087 H3063 0.951 . S
C3087 C3088 1.366 . S
C3087 C3089 1.388 . S
C3088 C3087 1.366 . S
C3088 C3092 1.385 . S
C3089 H3064 0.951 . S
C3089 C3087 1.388 . S
C3089 C3090 1.366 . S
C3090 C3089 1.366 . S
C3090 C3091 1.414 . S
C3090 C3093 1.499 . S
C3091 H3065 0.950 . S
C3091 C3090 1.414 . S
C3091 C3092 1.374 . S
C3092 H3066 0.950 . S
C3092 C3088 1.385 . S
C3092 C3091 1.374 . S
C3093 C3090 1.499 . S
C3093 C3094 1.373 . S
C3093 C3095 1.389 . S
C3094 H3067 0.950 . S
C3094 C3080 1.377 . S
C3094 C3093 1.373 . S
C3095 C3079 1.377 . S
C3095 C3093 1.389 . S
C3095 C3096 1.524 . S
C3096 C3095 1.524 . S
C3096 C3097 1.397 . S
C3096 C3101 1.363 . S
C3097 H3068 0.950 . S
C3097 C3096 1.397 . S
C3097 C3098 1.334 . S
C3098 H3069 0.950 . S
C3098 C3097 1.334 . S
C3098 C3099 1.287 . S
C3099 C3098 1.287 . S
C3099 C3100 1.524 . S
C3099 H3102 0.999 . S
C3100 H3070 0.950 . S
C3100 C3099 1.524 . S
C3100 C3101 1.415 . S
C3101 H3071 0.950 . S
C3101 C3096 1.363 . S
C3101 C3100 1.415 . S
H3102 C3099 0.999 . S
H3103 C3084 0.913 . S
H3104 C3122 0.951 . S
H3105 C3124 0.951 . S
H3106 C3126 0.950 . S
H3107 C3127 0.950 . S
H3108 C3129 0.950 . S
H3109 C3132 0.950 . S
H3110 C3133 0.950 1_545 S
H3111 C3135 0.950 . S
H3112 C3136 0.950 . S
H3113 C3137 0.951 . S
H3114 C3139 0.951 . S
H3115 C3141 0.950 . S
H3116 C3142 0.950 . S
H3117 C3144 0.950 . S
H3118 C3147 0.950 . S
H3119 C3148 0.950 . S
H3120 C3150 0.950 . S
H3121 C3151 0.950 . S
C3122 H3104 0.951 . S
C3122 C3123 1.366 . S
C3122 C3124 1.388 . S
C3123 C3122 1.366 . S
C3123 C3127 1.385 . S
C3124 H3105 0.951 . S
C3124 C3122 1.388 . S
C3124 C3125 1.366 . S
C3125 C3124 1.366 . S
C3125 C3126 1.414 . S
C3125 C3128 1.499 . S
C3126 H3106 0.950 . S
C3126 C3125 1.414 . S
C3126 C3127 1.374 . S
C3127 H3107 0.950 . S
C3127 C3123 1.385 . S
C3127 C3126 1.374 . S
C3128 C3125 1.499 . S
C3128 C3129 1.373 . S
C3128 C3130 1.389 . S
C3129 H3108 0.950 . S
C3129 C3128 1.373 . S
C3129 C3145 1.377 . S
C3130 C3128 1.389 . S
C3130 C3131 1.524 . S
C3130 C3144 1.377 . S
C3131 C3130 1.524 . S
C3131 C3132 1.397 . S
C3131 C3136 1.363 . S
C3132 H3109 0.950 . S
C3132 C3131 1.397 . S
C3132 C3133 1.334 . S
C3133 H3110 0.950 1_565 S
C3133 C3132 1.334 . S
C3133 C3134 1.287 . S
C3134 C3133 1.287 . S
C3134 C3135 1.524 . S
C3134 H3153 0.913 . S
C3135 H3111 0.950 . S
C3135 C3134 1.524 . S
C3135 C3136 1.415 . S
C3136 H3112 0.950 . S
C3136 C3131 1.363 . S
C3136 C3135 1.415 . S
C3137 H3113 0.951 . S
C3137 C3138 1.366 . S
C3137 C3139 1.388 . S
C3138 C3137 1.366 . S
C3138 C3142 1.385 . S
C3139 H3114 0.951 . S
C3139 C3137 1.388 . S
C3139 C3140 1.366 . S
C3140 C3139 1.366 . S
C3140 C3141 1.414 . S
C3140 C3143 1.499 . S
C3141 H3115 0.950 . S
C3141 C3140 1.414 . S
C3141 C3142 1.374 . S
C3142 H3116 0.950 . S
C3142 C3138 1.385 . S
C3142 C3141 1.374 . S
C3143 C3140 1.499 . S
C3143 C3144 1.373 . S
C3143 C3145 1.389 . S
C3144 H3117 0.950 . S
C3144 C3130 1.377 . S
C3144 C3143 1.373 . S
C3145 C3129 1.377 . S
C3145 C3143 1.389 . S
C3145 C3146 1.524 . S
C3146 C3145 1.524 . S
C3146 C3147 1.397 . S
C3146 C3151 1.363 . S
C3147 H3118 0.950 . S
C3147 C3146 1.397 . S
C3147 C3148 1.334 . S
C3148 H3119 0.950 . S
C3148 C3147 1.334 . S
C3148 C3149 1.287 . S
C3149 C3148 1.287 . S
C3149 C3150 1.524 . S
C3149 H3152 0.999 . S
C3150 H3120 0.950 . S
C3150 C3149 1.524 . S
C3150 C3151 1.415 . S
C3151 H3121 0.950 . S
C3151 C3146 1.363 . S
C3151 C3150 1.415 . S
H3152 C3149 0.999 . S
H3153 C3134 0.913 . S
H3154 C3172 0.951 . S
H3155 C3174 0.951 . S
H3156 C3176 0.950 . S
H3157 C3177 0.950 . S
H3158 C3179 0.950 . S
H3159 C3182 0.950 . S
H3160 C3183 0.950 . S
H3161 C3185 0.950 . S
H3162 C3186 0.950 . S
H3163 C3187 0.951 . S
H3164 C3189 0.951 . S
H3165 C3191 0.950 . S
H3166 C3192 0.950 . S
H3167 C3194 0.950 . S
H3168 C3197 0.950 . S
H3169 C3198 0.950 . S
H3170 C3200 0.950 . S
H3171 C3201 0.950 . S
C3172 H3154 0.951 . S
C3172 C3173 1.366 . S
C3172 C3174 1.388 . S
C3173 C3172 1.366 . S
C3173 C3177 1.385 . S
C3174 H3155 0.951 . S
C3174 C3172 1.388 . S
C3174 C3175 1.366 . S
C3175 C3174 1.366 . S
C3175 C3176 1.414 . S
C3175 C3178 1.499 . S
C3176 H3156 0.950 . S
C3176 C3175 1.414 . S
C3176 C3177 1.374 . S
C3177 H3157 0.950 . S
C3177 C3173 1.385 . S
C3177 C3176 1.374 . S
C3178 C3175 1.499 . S
C3178 C3179 1.373 . S
C3178 C3180 1.389 . S
C3179 H3158 0.950 . S
C3179 C3178 1.373 . S
C3179 C3195 1.377 . S
C3180 C3178 1.389 . S
C3180 C3181 1.524 . S
C3180 C3194 1.377 . S
C3181 C3180 1.524 . S
C3181 C3182 1.397 . S
C3181 C3186 1.363 . S
C3182 H3159 0.950 . S
C3182 C3181 1.397 . S
C3182 C3183 1.334 . S
C3183 H3160 0.950 . S
C3183 C3182 1.334 . S
C3183 C3184 1.287 . S
C3184 C3183 1.287 . S
C3184 C3185 1.524 . S
C3184 H3203 0.913 . S
C3185 H3161 0.950 . S
C3185 C3184 1.524 . S
C3185 C3186 1.415 . S
C3186 H3162 0.950 . S
C3186 C3181 1.363 . S
C3186 C3185 1.415 . S
C3187 H3163 0.951 . S
C3187 C3188 1.366 . S
C3187 C3189 1.388 . S
C3188 C3187 1.366 . S
C3188 C3192 1.385 . S
C3189 H3164 0.951 . S
C3189 C3187 1.388 . S
C3189 C3190 1.366 . S
C3190 C3189 1.366 . S
C3190 C3191 1.414 . S
C3190 C3193 1.499 . S
C3191 H3165 0.950 . S
C3191 C3190 1.414 . S
C3191 C3192 1.374 . S
C3192 H3166 0.950 . S
C3192 C3188 1.385 . S
C3192 C3191 1.374 . S
C3193 C3190 1.499 . S
C3193 C3194 1.373 . S
C3193 C3195 1.389 . S
C3194 H3167 0.950 . S
C3194 C3180 1.377 . S
C3194 C3193 1.373 . S
C3195 C3179 1.377 . S
C3195 C3193 1.389 . S
C3195 C3196 1.524 . S
C3196 C3195 1.524 . S
C3196 C3197 1.397 . S
C3196 C3201 1.363 . S
C3197 H3168 0.950 . S
C3197 C3196 1.397 . S
C3197 C3198 1.334 . S
C3198 H3169 0.950 . S
C3198 C3197 1.334 . S
C3198 C3199 1.287 . S
C3199 C3198 1.287 . S
C3199 C3200 1.524 . S
C3199 H3202 0.999 . S
C3200 H3170 0.950 . S
C3200 C3199 1.524 . S
C3200 C3201 1.415 . S
C3201 H3171 0.950 . S
C3201 C3196 1.363 . S
C3201 C3200 1.415 . S
H3202 C3199 0.999 . S
H3203 C3184 0.913 . S
H3204 C3222 0.951 . S
H3205 C3224 0.951 . S
H3206 C3226 0.950 . S
H3207 C3227 0.950 . S
H3208 C3229 0.950 . S
H3209 C3232 0.950 . S
H3210 C3233 0.950 . S
H3211 C3235 0.950 . S
H3212 C3236 0.950 . S
H3213 C3237 0.951 . S
H3214 C3239 0.951 . S
H3215 C3241 0.950 . S
H3216 C3242 0.950 . S
H3217 C3244 0.950 . S
H3218 C3247 0.950 . S
H3219 C3248 0.950 . S
H3220 C3250 0.950 . S
H3221 C3251 0.950 . S
C3222 H3204 0.951 . S
C3222 C3223 1.366 . S
C3222 C3224 1.388 . S
C3223 C3222 1.366 . S
C3223 C3227 1.385 . S
C3224 H3205 0.951 . S
C3224 C3222 1.388 . S
C3224 C3225 1.366 . S
C3225 C3224 1.366 . S
C3225 C3226 1.414 . S
C3225 C3228 1.499 . S
C3226 H3206 0.950 . S
C3226 C3225 1.414 . S
C3226 C3227 1.374 . S
C3227 H3207 0.950 . S
C3227 C3223 1.385 . S
C3227 C3226 1.374 . S
C3228 C3225 1.499 . S
C3228 C3229 1.373 . S
C3228 C3230 1.389 . S
C3229 H3208 0.950 . S
C3229 C3228 1.373 . S
C3229 C3245 1.377 . S
C3230 C3228 1.389 . S
C3230 C3231 1.524 . S
C3230 C3244 1.377 . S
C3231 C3230 1.524 . S
C3231 C3232 1.397 . S
C3231 C3236 1.363 . S
C3232 H3209 0.950 . S
C3232 C3231 1.397 . S
C3232 C3233 1.334 . S
C3233 H3210 0.950 . S
C3233 C3232 1.334 . S
C3233 C3234 1.287 . S
C3234 C3233 1.287 . S
C3234 C3235 1.524 . S
C3234 H3253 0.913 . S
C3235 H3211 0.950 . S
C3235 C3234 1.524 . S
C3235 C3236 1.415 . S
C3236 H3212 0.950 . S
C3236 C3231 1.363 . S
C3236 C3235 1.415 . S
C3237 H3213 0.951 . S
C3237 C3238 1.366 . S
C3237 C3239 1.388 . S
C3238 C3237 1.366 . S
C3238 C3242 1.385 . S
C3239 H3214 0.951 . S
C3239 C3237 1.388 . S
C3239 C3240 1.366 . S
C3240 C3239 1.366 . S
C3240 C3241 1.414 . S
C3240 C3243 1.499 . S
C3241 H3215 0.950 . S
C3241 C3240 1.414 . S
C3241 C3242 1.374 . S
C3242 H3216 0.950 . S
C3242 C3238 1.385 . S
C3242 C3241 1.374 . S
C3243 C3240 1.499 . S
C3243 C3244 1.373 . S
C3243 C3245 1.389 . S
C3244 H3217 0.950 . S
C3244 C3230 1.377 . S
C3244 C3243 1.373 . S
C3245 C3229 1.377 . S
C3245 C3243 1.389 . S
C3245 C3246 1.524 . S
C3246 C3245 1.524 . S
C3246 C3247 1.397 . S
C3246 C3251 1.363 . S
C3247 H3218 0.950 . S
C3247 C3246 1.397 . S
C3247 C3248 1.334 . S
C3248 H3219 0.950 . S
C3248 C3247 1.334 . S
C3248 C3249 1.287 . S
C3249 C3248 1.287 . S
C3249 C3250 1.524 . S
C3249 H3252 0.999 . S
C3250 H3220 0.950 . S
C3250 C3249 1.524 . S
C3250 C3251 1.415 . S
C3251 H3221 0.950 . S
C3251 C3246 1.363 . S
C3251 C3250 1.415 . S
H3252 C3249 0.999 . S
H3253 C3234 0.913 . S
H3254 C3272 0.951 . S
H3255 C3274 0.951 . S
H3256 C3276 0.950 . S
H3257 C3277 0.950 . S
H3258 C3279 0.950 . S
H3259 C3282 0.950 . S
H3260 C3283 0.950 . S
H3261 C3285 0.950 . S
H3262 C3286 0.950 . S
H3263 C3287 0.951 . S
H3264 C3289 0.951 . S
H3265 C3291 0.950 . S
H3266 C3292 0.950 . S
H3267 C3294 0.950 . S
H3268 C3297 0.950 . S
H3269 C3298 0.950 . S
H3270 C3300 0.950 . S
H3271 C3301 0.950 . S
C3272 H3254 0.951 . S
C3272 C3273 1.366 . S
C3272 C3274 1.388 . S
C3273 C3272 1.366 . S
C3273 C3277 1.385 . S
C3274 H3255 0.951 . S
C3274 C3272 1.388 . S
C3274 C3275 1.366 . S
C3275 C3274 1.366 . S
C3275 C3276 1.414 . S
C3275 C3278 1.499 . S
C3276 H3256 0.950 . S
C3276 C3275 1.414 . S
C3276 C3277 1.374 . S
C3277 H3257 0.950 . S
C3277 C3273 1.385 . S
C3277 C3276 1.374 . S
C3278 C3275 1.499 . S
C3278 C3279 1.373 . S
C3278 C3280 1.389 . S
C3279 H3258 0.950 . S
C3279 C3278 1.373 . S
C3279 C3295 1.377 . S
C3280 C3278 1.389 . S
C3280 C3281 1.524 . S
C3280 C3294 1.377 . S
C3281 C3280 1.524 . S
C3281 C3282 1.397 . S
C3281 C3286 1.363 . S
C3282 H3259 0.950 . S
C3282 C3281 1.397 . S
C3282 C3283 1.334 . S
C3283 H3260 0.950 . S
C3283 C3282 1.334 . S
C3283 C3284 1.287 . S
C3284 C3283 1.287 . S
C3284 C3285 1.524 . S
C3284 H3303 0.913 . S
C3285 H3261 0.950 . S
C3285 C3284 1.524 . S
C3285 C3286 1.415 . S
C3286 H3262 0.950 . S
C3286 C3281 1.363 . S
C3286 C3285 1.415 . S
C3287 H3263 0.951 . S
C3287 C3288 1.366 . S
C3287 C3289 1.388 . S
C3288 C3287 1.366 . S
C3288 C3292 1.385 . S
C3289 H3264 0.951 . S
C3289 C3287 1.388 . S
C3289 C3290 1.366 . S
C3290 C3289 1.366 . S
C3290 C3291 1.414 . S
C3290 C3293 1.499 . S
C3291 H3265 0.950 . S
C3291 C3290 1.414 . S
C3291 C3292 1.374 . S
C3292 H3266 0.950 . S
C3292 C3288 1.385 . S
C3292 C3291 1.374 . S
C3293 C3290 1.499 . S
C3293 C3294 1.373 . S
C3293 C3295 1.389 . S
C3294 H3267 0.950 . S
C3294 C3280 1.377 . S
C3294 C3293 1.373 . S
C3295 C3279 1.377 . S
C3295 C3293 1.389 . S
C3295 C3296 1.524 . S
C3296 C3295 1.524 . S
C3296 C3297 1.397 . S
C3296 C3301 1.363 . S
C3297 H3268 0.950 . S
C3297 C3296 1.397 . S
C3297 C3298 1.334 . S
C3298 H3269 0.950 . S
C3298 C3297 1.334 . S
C3298 C3299 1.287 . S
C3299 C3298 1.287 . S
C3299 C3300 1.524 . S
C3299 H3302 0.999 . S
C3300 H3270 0.950 . S
C3300 C3299 1.524 . S
C3300 C3301 1.415 . S
C3301 H3271 0.950 . S
C3301 C3296 1.363 . S
C3301 C3300 1.415 . S
H3302 C3299 0.999 . S
H3303 C3284 0.913 . S
H3304 C3322 0.951 . S
H3305 C3324 0.951 . S
H3306 C3326 0.950 . S
H3307 C3327 0.950 . S
H3308 C3329 0.950 . S
H3309 C3332 0.950 . S
H3310 C3333 0.950 . S
H3311 C3335 0.950 . S
H3312 C3336 0.950 . S
H3313 C3337 0.951 . S
H3314 C3339 0.951 . S
H3315 C3341 0.950 . S
H3316 C3342 0.950 . S
H3317 C3344 0.950 . S
H3318 C3347 0.950 . S
H3319 C3348 0.950 . S
H3320 C3350 0.950 . S
H3321 C3351 0.950 . S
C3322 H3304 0.951 . S
C3322 C3323 1.366 . S
C3322 C3324 1.388 . S
C3323 C3322 1.366 . S
C3323 C3327 1.385 . S
C3324 H3305 0.951 . S
C3324 C3322 1.388 . S
C3324 C3325 1.366 . S
C3325 C3324 1.366 . S
C3325 C3326 1.414 . S
C3325 C3328 1.499 . S
C3326 H3306 0.950 . S
C3326 C3325 1.414 . S
C3326 C3327 1.374 . S
C3327 H3307 0.950 . S
C3327 C3323 1.385 . S
C3327 C3326 1.374 . S
C3328 C3325 1.499 . S
C3328 C3329 1.373 . S
C3328 C3330 1.389 . S
C3329 H3308 0.950 . S
C3329 C3328 1.373 . S
C3329 C3345 1.377 . S
C3330 C3328 1.389 . S
C3330 C3331 1.524 . S
C3330 C3344 1.377 . S
C3331 C3330 1.524 . S
C3331 C3332 1.397 . S
C3331 C3336 1.363 . S
C3332 H3309 0.950 . S
C3332 C3331 1.397 . S
C3332 C3333 1.334 . S
C3333 H3310 0.950 . S
C3333 C3332 1.334 . S
C3333 C3334 1.287 . S
C3334 C3333 1.287 . S
C3334 C3335 1.524 . S
C3334 H3353 0.913 . S
C3335 H3311 0.950 . S
C3335 C3334 1.524 . S
C3335 C3336 1.415 . S
C3336 H3312 0.950 . S
C3336 C3331 1.363 . S
C3336 C3335 1.415 . S
C3337 H3313 0.951 . S
C3337 C3338 1.366 . S
C3337 C3339 1.388 . S
C3338 C3337 1.366 . S
C3338 C3342 1.385 . S
C3339 H3314 0.951 . S
C3339 C3337 1.388 . S
C3339 C3340 1.366 . S
C3340 C3339 1.366 . S
C3340 C3341 1.414 . S
C3340 C3343 1.499 . S
C3341 H3315 0.950 . S
C3341 C3340 1.414 . S
C3341 C3342 1.374 . S
C3342 H3316 0.950 . S
C3342 C3338 1.385 . S
C3342 C3341 1.374 . S
C3343 C3340 1.499 . S
C3343 C3344 1.373 . S
C3343 C3345 1.389 . S
C3344 H3317 0.950 . S
C3344 C3330 1.377 . S
C3344 C3343 1.373 . S
C3345 C3329 1.377 . S
C3345 C3343 1.389 . S
C3345 C3346 1.524 . S
C3346 C3345 1.524 . S
C3346 C3347 1.397 . S
C3346 C3351 1.363 . S
C3347 H3318 0.950 . S
C3347 C3346 1.397 . S
C3347 C3348 1.334 . S
C3348 H3319 0.950 . S
C3348 C3347 1.334 . S
C3348 C3349 1.287 . S
C3349 C3348 1.287 . S
C3349 C3350 1.524 . S
C3349 H3352 0.999 . S
C3350 H3320 0.950 . S
C3350 C3349 1.524 . S
C3350 C3351 1.415 . S
C3351 H3321 0.950 . S
C3351 C3346 1.363 . S
C3351 C3350 1.415 . S
H3352 C3349 0.999 . S
H3353 C3334 0.913 . S
H3354 C3372 0.951 . S
H3355 C3374 0.951 . S
H3356 C3376 0.950 . S
H3357 C3377 0.950 . S
H3358 C3379 0.950 . S
H3359 C3382 0.950 . S
H3360 C3383 0.950 . S
H3361 C3385 0.950 . S
H3362 C3386 0.950 . S
H3363 C3387 0.951 . S
H3364 C3389 0.951 . S
H3365 C3391 0.950 . S
H3366 C3392 0.950 . S
H3367 C3394 0.950 . S
H3368 C3397 0.950 . S
H3369 C3398 0.950 . S
H3370 C3400 0.950 . S
H3371 C3401 0.950 . S
C3372 H3354 0.951 . S
C3372 C3373 1.366 . S
C3372 C3374 1.388 . S
C3373 C3372 1.366 . S
C3373 C3377 1.385 . S
C3374 H3355 0.951 . S
C3374 C3372 1.388 . S
C3374 C3375 1.366 . S
C3375 C3374 1.366 . S
C3375 C3376 1.414 . S
C3375 C3378 1.499 . S
C3376 H3356 0.950 . S
C3376 C3375 1.414 . S
C3376 C3377 1.374 . S
C3377 H3357 0.950 . S
C3377 C3373 1.385 . S
C3377 C3376 1.374 . S
C3378 C3375 1.499 . S
C3378 C3379 1.373 . S
C3378 C3380 1.389 . S
C3379 H3358 0.950 . S
C3379 C3378 1.373 . S
C3379 C3395 1.377 . S
C3380 C3378 1.389 . S
C3380 C3381 1.524 . S
C3380 C3394 1.377 . S
C3381 C3380 1.524 . S
C3381 C3382 1.397 . S
C3381 C3386 1.363 . S
C3382 H3359 0.950 . S
C3382 C3381 1.397 . S
C3382 C3383 1.334 . S
C3383 H3360 0.950 . S
C3383 C3382 1.334 . S
C3383 C3384 1.287 . S
C3384 C3383 1.287 . S
C3384 C3385 1.524 . S
C3384 H3403 0.913 . S
C3385 H3361 0.950 . S
C3385 C3384 1.524 . S
C3385 C3386 1.415 . S
C3386 H3362 0.950 . S
C3386 C3381 1.363 . S
C3386 C3385 1.415 . S
C3387 H3363 0.951 . S
C3387 C3388 1.366 . S
C3387 C3389 1.388 . S
C3388 C3387 1.366 . S
C3388 C3392 1.385 . S
C3389 H3364 0.951 . S
C3389 C3387 1.388 . S
C3389 C3390 1.366 . S
C3390 C3389 1.366 . S
C3390 C3391 1.414 . S
C3390 C3393 1.499 . S
C3391 H3365 0.950 . S
C3391 C3390 1.414 . S
C3391 C3392 1.374 . S
C3392 H3366 0.950 . S
C3392 C3388 1.385 . S
C3392 C3391 1.374 . S
C3393 C3390 1.499 . S
C3393 C3394 1.373 . S
C3393 C3395 1.389 . S
C3394 H3367 0.950 . S
C3394 C3380 1.377 . S
C3394 C3393 1.373 . S
C3395 C3379 1.377 . S
C3395 C3393 1.389 . S
C3395 C3396 1.524 . S
C3396 C3395 1.524 . S
C3396 C3397 1.397 . S
C3396 C3401 1.363 . S
C3397 H3368 0.950 . S
C3397 C3396 1.397 . S
C3397 C3398 1.334 . S
C3398 H3369 0.950 . S
C3398 C3397 1.334 . S
C3398 C3399 1.287 . S
C3399 C3398 1.287 . S
C3399 C3400 1.524 . S
C3399 H3402 0.999 . S
C3400 H3370 0.950 . S
C3400 C3399 1.524 . S
C3400 C3401 1.415 . S
C3401 H3371 0.950 . S
C3401 C3396 1.363 . S
C3401 C3400 1.415 . S
H3402 C3399 0.999 . S
H3403 C3384 0.913 . S
H3404 C3422 0.951 . S
H3405 C3424 0.951 . S
H3406 C3426 0.950 . S
H3407 C3427 0.950 . S
H3408 C3429 0.950 . S
H3409 C3432 0.950 . S
H3410 C3433 0.950 . S
H3411 C3435 0.950 . S
H3412 C3436 0.950 . S
H3413 C3437 0.951 . S
H3414 C3439 0.951 . S
H3415 C3441 0.950 . S
H3416 C3442 0.950 . S
H3417 C3444 0.950 . S
H3418 C3447 0.950 . S
H3419 C3448 0.950 . S
H3420 C3450 0.950 . S
H3421 C3451 0.950 . S
C3422 H3404 0.951 . S
C3422 C3423 1.366 . S
C3422 C3424 1.388 . S
C3423 C3422 1.366 . S
C3423 C3427 1.385 . S
C3424 H3405 0.951 . S
C3424 C3422 1.388 . S
C3424 C3425 1.366 . S
C3425 C3424 1.366 . S
C3425 C3426 1.414 . S
C3425 C3428 1.499 . S
C3426 H3406 0.950 . S
C3426 C3425 1.414 . S
C3426 C3427 1.374 . S
C3427 H3407 0.950 . S
C3427 C3423 1.385 . S
C3427 C3426 1.374 . S
C3428 C3425 1.499 . S
C3428 C3429 1.373 . S
C3428 C3430 1.389 . S
C3429 H3408 0.950 . S
C3429 C3428 1.373 . S
C3429 C3445 1.377 . S
C3430 C3428 1.389 . S
C3430 C3431 1.524 . S
C3430 C3444 1.377 . S
C3431 C3430 1.524 . S
C3431 C3432 1.397 . S
C3431 C3436 1.363 . S
C3432 H3409 0.950 . S
C3432 C3431 1.397 . S
C3432 C3433 1.334 . S
C3433 H3410 0.950 . S
C3433 C3432 1.334 . S
C3433 C3434 1.287 . S
C3434 C3433 1.287 . S
C3434 C3435 1.524 . S
C3434 H3453 0.913 . S
C3435 H3411 0.950 . S
C3435 C3434 1.524 . S
C3435 C3436 1.415 . S
C3436 H3412 0.950 . S
C3436 C3431 1.363 . S
C3436 C3435 1.415 . S
C3437 H3413 0.951 . S
C3437 C3438 1.366 . S
C3437 C3439 1.388 . S
C3438 C3437 1.366 . S
C3438 C3442 1.385 . S
C3439 H3414 0.951 . S
C3439 C3437 1.388 . S
C3439 C3440 1.366 . S
C3440 C3439 1.366 . S
C3440 C3441 1.414 . S
C3440 C3443 1.499 . S
C3441 H3415 0.950 . S
C3441 C3440 1.414 . S
C3441 C3442 1.374 . S
C3442 H3416 0.950 . S
C3442 C3438 1.385 . S
C3442 C3441 1.374 . S
C3443 C3440 1.499 . S
C3443 C3444 1.373 . S
C3443 C3445 1.389 . S
C3444 H3417 0.950 . S
C3444 C3430 1.377 . S
C3444 C3443 1.373 . S
C3445 C3429 1.377 . S
C3445 C3443 1.389 . S
C3445 C3446 1.524 . S
C3446 C3445 1.524 . S
C3446 C3447 1.397 . S
C3446 C3451 1.363 . S
C3447 H3418 0.950 . S
C3447 C3446 1.397 . S
C3447 C3448 1.334 . S
C3448 H3419 0.950 . S
C3448 C3447 1.334 . S
C3448 C3449 1.287 . S
C3449 C3448 1.287 . S
C3449 C3450 1.524 . S
C3449 H3452 0.999 . S
C3450 H3420 0.950 . S
C3450 C3449 1.524 . S
C3450 C3451 1.415 . S
C3451 H3421 0.950 . S
C3451 C3446 1.363 . S
C3451 C3450 1.415 . S
H3452 C3449 0.999 . S
H3453 C3434 0.913 . S
H3454 C3472 0.951 . S
H3455 C3474 0.951 . S
H3456 C3476 0.950 . S
H3457 C3477 0.950 . S
H3458 C3479 0.950 . S
H3459 C3482 0.950 . S
H3460 C3483 0.950 . S
H3461 C3485 0.950 . S
H3462 C3486 0.950 . S
H3463 C3487 0.951 . S
H3464 C3489 0.951 . S
H3465 C3491 0.950 . S
H3466 C3492 0.950 . S
H3467 C3494 0.950 . S
H3468 C3497 0.950 . S
H3469 C3498 0.950 . S
H3470 C3500 0.950 . S
H3471 C3501 0.950 . S
C3472 H3454 0.951 . S
C3472 C3473 1.366 . S
C3472 C3474 1.388 . S
C3473 C3472 1.366 . S
C3473 C3477 1.385 . S
C3474 H3455 0.951 . S
C3474 C3472 1.388 . S
C3474 C3475 1.366 . S
C3475 C3474 1.366 . S
C3475 C3476 1.414 . S
C3475 C3478 1.499 . S
C3476 H3456 0.950 . S
C3476 C3475 1.414 . S
C3476 C3477 1.374 . S
C3477 H3457 0.950 . S
C3477 C3473 1.385 . S
C3477 C3476 1.374 . S
C3478 C3475 1.499 . S
C3478 C3479 1.373 . S
C3478 C3480 1.389 . S
C3479 H3458 0.950 . S
C3479 C3478 1.373 . S
C3479 C3495 1.377 . S
C3480 C3478 1.389 . S
C3480 C3481 1.524 . S
C3480 C3494 1.377 . S
C3481 C3480 1.524 . S
C3481 C3482 1.397 . S
C3481 C3486 1.363 . S
C3482 H3459 0.950 . S
C3482 C3481 1.397 . S
C3482 C3483 1.334 . S
C3483 H3460 0.950 . S
C3483 C3482 1.334 . S
C3483 C3484 1.287 . S
C3484 C3483 1.287 . S
C3484 C3485 1.524 . S
C3484 H3503 0.913 . S
C3485 H3461 0.950 . S
C3485 C3484 1.524 . S
C3485 C3486 1.415 . S
C3486 H3462 0.950 . S
C3486 C3481 1.363 . S
C3486 C3485 1.415 . S
C3487 H3463 0.951 . S
C3487 C3488 1.366 . S
C3487 C3489 1.388 . S
C3488 C3487 1.366 . S
C3488 C3492 1.385 . S
C3489 H3464 0.951 . S
C3489 C3487 1.388 . S
C3489 C3490 1.366 . S
C3490 C3489 1.366 . S
C3490 C3491 1.414 . S
C3490 C3493 1.499 . S
C3491 H3465 0.950 . S
C3491 C3490 1.414 . S
C3491 C3492 1.374 . S
C3492 H3466 0.950 . S
C3492 C3488 1.385 . S
C3492 C3491 1.374 . S
C3493 C3490 1.499 . S
C3493 C3494 1.373 . S
C3493 C3495 1.389 . S
C3494 H3467 0.950 . S
C3494 C3480 1.377 . S
C3494 C3493 1.373 . S
C3495 C3479 1.377 . S
C3495 C3493 1.389 . S
C3495 C3496 1.524 . S
C3496 C3495 1.524 . S
C3496 C3497 1.397 . S
C3496 C3501 1.363 . S
C3497 H3468 0.950 . S
C3497 C3496 1.397 . S
C3497 C3498 1.334 . S
C3498 H3469 0.950 . S
C3498 C3497 1.334 . S
C3498 C3499 1.287 . S
C3499 C3498 1.287 . S
C3499 C3500 1.524 . S
C3499 H3502 0.999 . S
C3500 H3470 0.950 . S
C3500 C3499 1.524 . S
C3500 C3501 1.415 . S
C3501 H3471 0.950 . S
C3501 C3496 1.363 . S
C3501 C3500 1.415 . S
H3502 C3499 0.999 . S
H3503 C3484 0.913 . S
H3504 C3522 0.951 . S
H3505 C3524 0.951 . S
H3506 C3526 0.950 . S
H3507 C3527 0.950 . S
H3508 C3529 0.950 . S
H3509 C3532 0.950 . S
H3510 C3533 0.950 . S
H3511 C3535 0.950 . S
H3512 C3536 0.950 . S
H3513 C3537 0.951 . S
H3514 C3539 0.951 . S
H3515 C3541 0.950 . S
H3516 C3542 0.950 . S
H3517 C3544 0.950 . S
H3518 C3547 0.950 . S
H3519 C3548 0.950 . S
H3520 C3550 0.950 . S
H3521 C3551 0.950 . S
C3522 H3504 0.951 . S
C3522 C3523 1.366 . S
C3522 C3524 1.388 . S
C3523 C3522 1.366 . S
C3523 C3527 1.385 . S
C3524 H3505 0.951 . S
C3524 C3522 1.388 . S
C3524 C3525 1.366 . S
C3525 C3524 1.366 . S
C3525 C3526 1.414 . S
C3525 C3528 1.499 . S
C3526 H3506 0.950 . S
C3526 C3525 1.414 . S
C3526 C3527 1.374 . S
C3527 H3507 0.950 . S
C3527 C3523 1.385 . S
C3527 C3526 1.374 . S
C3528 C3525 1.499 . S
C3528 C3529 1.373 . S
C3528 C3530 1.389 . S
C3529 H3508 0.950 . S
C3529 C3528 1.373 . S
C3529 C3545 1.377 . S
C3530 C3528 1.389 . S
C3530 C3531 1.524 . S
C3530 C3544 1.377 . S
C3531 C3530 1.524 . S
C3531 C3532 1.397 . S
C3531 C3536 1.363 . S
C3532 H3509 0.950 . S
C3532 C3531 1.397 . S
C3532 C3533 1.334 . S
C3533 H3510 0.950 . S
C3533 C3532 1.334 . S
C3533 C3534 1.287 . S
C3534 C3533 1.287 . S
C3534 C3535 1.524 . S
C3534 H3553 0.913 . S
C3535 H3511 0.950 . S
C3535 C3534 1.524 . S
C3535 C3536 1.415 . S
C3536 H3512 0.950 . S
C3536 C3531 1.363 . S
C3536 C3535 1.415 . S
C3537 H3513 0.951 . S
C3537 C3538 1.366 . S
C3537 C3539 1.388 . S
C3538 C3537 1.366 . S
C3538 C3542 1.385 . S
C3539 H3514 0.951 . S
C3539 C3537 1.388 . S
C3539 C3540 1.366 . S
C3540 C3539 1.366 . S
C3540 C3541 1.414 . S
C3540 C3543 1.499 . S
C3541 H3515 0.950 . S
C3541 C3540 1.414 . S
C3541 C3542 1.374 . S
C3542 H3516 0.950 . S
C3542 C3538 1.385 . S
C3542 C3541 1.374 . S
C3543 C3540 1.499 . S
C3543 C3544 1.373 . S
C3543 C3545 1.389 . S
C3544 H3517 0.950 . S
C3544 C3530 1.377 . S
C3544 C3543 1.373 . S
C3545 C3529 1.377 . S
C3545 C3543 1.389 . S
C3545 C3546 1.524 . S
C3546 C3545 1.524 . S
C3546 C3547 1.397 . S
C3546 C3551 1.363 . S
C3547 H3518 0.950 . S
C3547 C3546 1.397 . S
C3547 C3548 1.334 . S
C3548 H3519 0.950 . S
C3548 C3547 1.334 . S
C3548 C3549 1.287 . S
C3549 C3548 1.287 . S
C3549 C3550 1.524 . S
C3549 H3552 0.999 . S
C3550 H3520 0.950 . S
C3550 C3549 1.524 . S
C3550 C3551 1.415 . S
C3551 H3521 0.950 . S
C3551 C3546 1.363 . S
C3551 C3550 1.415 . S
H3552 C3549 0.999 . S
H3553 C3534 0.913 . S
H3554 C3572 0.951 . S
H3555 C3574 0.951 . S
H3556 C3576 0.950 . S
H3557 C3577 0.950 . S
H3558 C3579 0.950 . S
H3559 C3582 0.950 . S
H3560 C3583 0.950 . S
H3561 C3585 0.950 . S
H3562 C3586 0.950 . S
H3563 C3587 0.951 . S
H3564 C3589 0.951 . S
H3565 C3591 0.950 . S
H3566 C3592 0.950 . S
H3567 C3594 0.950 . S
H3568 C3597 0.950 . S
H3569 C3598 0.950 . S
H3570 C3600 0.950 . S
H3571 C3601 0.950 . S
C3572 H3554 0.951 . S
C3572 C3573 1.366 . S
C3572 C3574 1.388 . S
C3573 C3572 1.366 . S
C3573 C3577 1.385 . S
C3574 H3555 0.951 . S
C3574 C3572 1.388 . S
C3574 C3575 1.366 . S
C3575 C3574 1.366 . S
C3575 C3576 1.414 . S
C3575 C3578 1.499 . S
C3576 H3556 0.950 . S
C3576 C3575 1.414 . S
C3576 C3577 1.374 . S
C3577 H3557 0.950 . S
C3577 C3573 1.385 . S
C3577 C3576 1.374 . S
C3578 C3575 1.499 . S
C3578 C3579 1.373 . S
C3578 C3580 1.389 . S
C3579 H3558 0.950 . S
C3579 C3578 1.373 . S
C3579 C3595 1.377 . S
C3580 C3578 1.389 . S
C3580 C3581 1.524 . S
C3580 C3594 1.377 . S
C3581 C3580 1.524 . S
C3581 C3582 1.397 . S
C3581 C3586 1.363 . S
C3582 H3559 0.950 . S
C3582 C3581 1.397 . S
C3582 C3583 1.334 . S
C3583 H3560 0.950 . S
C3583 C3582 1.334 . S
C3583 C3584 1.287 . S
C3584 C3583 1.287 . S
C3584 C3585 1.524 . S
C3584 H3603 0.913 . S
C3585 H3561 0.950 . S
C3585 C3584 1.524 . S
C3585 C3586 1.415 . S
C3586 H3562 0.950 . S
C3586 C3581 1.363 . S
C3586 C3585 1.415 . S
C3587 H3563 0.951 . S
C3587 C3588 1.366 . S
C3587 C3589 1.388 . S
C3588 C3587 1.366 . S
C3588 C3592 1.385 . S
C3589 H3564 0.951 . S
C3589 C3587 1.388 . S
C3589 C3590 1.366 . S
C3590 C3589 1.366 . S
C3590 C3591 1.414 . S
C3590 C3593 1.499 . S
C3591 H3565 0.950 . S
C3591 C3590 1.414 . S
C3591 C3592 1.374 . S
C3592 H3566 0.950 . S
C3592 C3588 1.385 . S
C3592 C3591 1.374 . S
C3593 C3590 1.499 . S
C3593 C3594 1.373 . S
C3593 C3595 1.389 . S
C3594 H3567 0.950 . S
C3594 C3580 1.377 . S
C3594 C3593 1.373 . S
C3595 C3579 1.377 . S
C3595 C3593 1.389 . S
C3595 C3596 1.524 . S
C3596 C3595 1.524 . S
C3596 C3597 1.397 . S
C3596 C3601 1.363 . S
C3597 H3568 0.950 . S
C3597 C3596 1.397 . S
C3597 C3598 1.334 . S
C3598 H3569 0.950 . S
C3598 C3597 1.334 . S
C3598 C3599 1.287 . S
C3599 C3598 1.287 . S
C3599 C3600 1.524 . S
C3599 H3602 0.999 . S
C3600 H3570 0.950 . S
C3600 C3599 1.524 . S
C3600 C3601 1.415 . S
C3601 H3571 0.950 . S
C3601 C3596 1.363 . S
C3601 C3600 1.415 . S
H3602 C3599 0.999 . S
H3603 C3584 0.913 . S
H3604 C3622 0.951 . S
H3605 C3624 0.951 . S
H3606 C3626 0.950 . S
H3607 C3627 0.950 . S
H3608 C3629 0.950 . S
H3609 C3632 0.950 . S
H3610 C3633 0.950 . S
H3611 C3635 0.950 . S
H3612 C3636 0.950 . S
H3613 C3637 0.951 . S
H3614 C3639 0.951 . S
H3615 C3641 0.950 . S
H3616 C3642 0.950 . S
H3617 C3644 0.950 . S
H3618 C3647 0.950 . S
H3619 C3648 0.950 . S
H3620 C3650 0.996 . S
H3621 C3651 0.950 . S
C3622 H3604 0.951 . S
C3622 C3623 1.366 . S
C3622 C3624 1.388 . S
C3623 C3622 1.366 . S
C3623 C3627 1.385 . S
C3624 H3605 0.951 . S
C3624 C3622 1.388 . S
C3624 C3625 1.366 . S
C3625 C3624 1.366 . S
C3625 C3626 1.414 . S
C3625 C3628 1.499 . S
C3626 H3606 0.950 . S
C3626 C3625 1.414 . S
C3626 C3627 1.374 . S
C3627 H3607 0.950 . S
C3627 C3623 1.385 . S
C3627 C3626 1.374 . S
C3628 C3625 1.499 . S
C3628 C3629 1.373 . S
C3628 C3630 1.389 . S
C3629 H3608 0.950 . S
C3629 C3628 1.373 . S
C3629 C3645 1.377 . S
C3630 C3628 1.389 . S
C3630 C3631 1.524 . S
C3630 C3644 1.377 . S
C3631 C3630 1.524 . S
C3631 C3632 1.397 . S
C3631 C3636 1.363 . S
C3632 H3609 0.950 . S
C3632 C3631 1.397 . S
C3632 C3633 1.334 . S
C3633 H3610 0.950 . S
C3633 C3632 1.334 . S
C3633 C3634 1.287 . S
C3634 C3633 1.287 . S
C3634 C3635 1.524 . S
C3634 H3653 0.913 . S
C3635 H3611 0.950 . S
C3635 C3634 1.524 . S
C3635 C3636 1.415 . S
C3636 H3612 0.950 . S
C3636 C3631 1.363 . S
C3636 C3635 1.415 . S
C3637 H3613 0.951 . S
C3637 C3638 1.366 . S
C3637 C3639 1.388 . S
C3638 C3637 1.366 . S
C3638 C3642 1.385 . S
C3639 H3614 0.951 . S
C3639 C3637 1.388 . S
C3639 C3640 1.366 . S
C3640 C3639 1.366 . S
C3640 C3641 1.414 . S
C3640 C3643 1.499 . S
C3641 H3615 0.950 . S
C3641 C3640 1.414 . S
C3641 C3642 1.374 . S
C3642 H3616 0.950 . S
C3642 C3638 1.385 . S
C3642 C3641 1.374 . S
C3643 C3640 1.499 . S
C3643 C3644 1.373 . S
C3643 C3645 1.389 . S
C3644 H3617 0.950 . S
C3644 C3630 1.377 . S
C3644 C3643 1.373 . S
C3645 C3629 1.377 . S
C3645 C3643 1.389 . S
C3645 C3646 1.524 . S
C3646 C3645 1.524 . S
C3646 C3647 1.397 . S
C3646 C3651 1.363 . S
C3647 H3618 0.950 . S
C3647 C3646 1.397 . S
C3647 C3648 1.334 . S
C3648 H3619 0.950 . S
C3648 C3647 1.334 . S
C3648 C3649 1.287 . S
C3649 C3648 1.287 . S
C3649 C3650 1.524 . S
C3649 H3652 0.999 . S
C3650 H3620 0.996 . S
C3650 C3649 1.524 . S
C3650 C3651 1.415 . S
C3651 H3621 0.950 . S
C3651 C3646 1.363 . S
C3651 C3650 1.415 . S
H3652 C3649 0.999 . S
H3653 C3634 0.913 . S
H3654 C3672 0.951 . S
H3655 C3674 0.951 . S
H3656 C3676 0.950 . S
H3657 C3677 0.950 . S
H3658 C3679 0.950 . S
H3659 C3682 0.950 . S
H3660 C3683 0.950 . S
H3661 C3685 0.950 . S
H3662 C3686 0.950 . S
H3663 C3687 0.951 . S
H3664 C3689 0.951 . S
H3665 C3691 0.950 . S
H3666 C3692 0.950 . S
H3667 C3694 0.950 . S
H3668 C3697 0.950 . S
H3669 C3698 0.950 . S
H3670 C3700 0.950 . S
H3671 C3701 0.950 . S
C3672 H3654 0.951 . S
C3672 C3673 1.366 . S
C3672 C3674 1.388 . S
C3673 C3672 1.366 . S
C3673 C3677 1.385 . S
C3674 H3655 0.951 . S
C3674 C3672 1.388 . S
C3674 C3675 1.366 . S
C3675 C3674 1.366 . S
C3675 C3676 1.414 . S
C3675 C3678 1.499 . S
C3676 H3656 0.950 . S
C3676 C3675 1.414 . S
C3676 C3677 1.374 . S
C3677 H3657 0.950 . S
C3677 C3673 1.385 . S
C3677 C3676 1.374 . S
C3678 C3675 1.499 . S
C3678 C3679 1.373 . S
C3678 C3680 1.389 . S
C3679 H3658 0.950 . S
C3679 C3678 1.373 . S
C3679 C3695 1.377 . S
C3680 C3678 1.389 . S
C3680 C3681 1.524 . S
C3680 C3694 1.377 . S
C3681 C3680 1.524 . S
C3681 C3682 1.397 . S
C3681 C3686 1.363 . S
C3682 H3659 0.950 . S
C3682 C3681 1.397 . S
C3682 C3683 1.334 . S
C3683 H3660 0.950 . S
C3683 C3682 1.334 . S
C3683 C3684 1.287 . S
C3684 C3683 1.287 . S
C3684 C3685 1.524 . S
C3684 H3703 0.913 . S
C3685 H3661 0.950 . S
C3685 C3684 1.524 . S
C3685 C3686 1.415 . S
C3686 H3662 0.950 . S
C3686 C3681 1.363 . S
C3686 C3685 1.415 . S
C3687 H3663 0.951 . S
C3687 C3688 1.366 . S
C3687 C3689 1.388 . S
C3688 C3687 1.366 . S
C3688 C3692 1.385 . S
C3689 H3664 0.951 . S
C3689 C3687 1.388 . S
C3689 C3690 1.366 . S
C3690 C3689 1.366 . S
C3690 C3691 1.414 . S
C3690 C3693 1.499 . S
C3691 H3665 0.950 . S
C3691 C3690 1.414 . S
C3691 C3692 1.374 . S
C3692 H3666 0.950 . S
C3692 C3688 1.385 . S
C3692 C3691 1.374 . S
C3693 C3690 1.499 . S
C3693 C3694 1.373 . S
C3693 C3695 1.389 . S
C3694 H3667 0.950 . S
C3694 C3680 1.377 . S
C3694 C3693 1.373 . S
C3695 C3679 1.377 . S
C3695 C3693 1.389 . S
C3695 C3696 1.524 . S
C3696 C3695 1.524 . S
C3696 C3697 1.397 . S
C3696 C3701 1.363 . S
C3697 H3668 0.950 . S
C3697 C3696 1.397 . S
C3697 C3698 1.334 . S
C3698 H3669 0.950 . S
C3698 C3697 1.334 . S
C3698 C3699 1.287 . S
C3699 C3698 1.287 . S
C3699 C3700 1.524 . S
C3699 H3702 0.999 . S
C3700 H3670 0.950 . S
C3700 C3699 1.524 . S
C3700 C3701 1.415 . S
C3701 H3671 0.950 . S
C3701 C3696 1.363 . S
C3701 C3700 1.415 . S
H3702 C3699 0.999 . S
H3703 C3684 0.913 . S
H3704 C3722 0.951 . S
H3705 C3724 0.951 . S
H3706 C3726 0.950 . S
H3707 C3727 0.950 . S
H3708 C3729 0.950 . S
H3709 C3732 0.950 . S
H3710 C3733 0.950 . S
H3711 C3735 0.950 . S
H3712 C3736 0.950 . S
H3713 C3737 0.951 . S
H3714 C3739 0.951 . S
H3715 C3741 0.950 . S
H3716 C3742 0.950 . S
H3717 C3744 0.950 . S
H3718 C3747 0.950 . S
H3719 C3748 0.950 . S
H3720 C3750 0.950 . S
H3721 C3751 0.950 . S
C3722 H3704 0.951 . S
C3722 C3723 1.366 . S
C3722 C3724 1.388 . S
C3723 C3722 1.366 . S
C3723 C3727 1.385 . S
C3724 H3705 0.951 . S
C3724 C3722 1.388 . S
C3724 C3725 1.366 . S
C3725 C3724 1.366 . S
C3725 C3726 1.414 . S
C3725 C3728 1.499 . S
C3726 H3706 0.950 . S
C3726 C3725 1.414 . S
C3726 C3727 1.374 . S
C3727 H3707 0.950 . S
C3727 C3723 1.385 . S
C3727 C3726 1.374 . S
C3728 C3725 1.499 . S
C3728 C3729 1.373 . S
C3728 C3730 1.389 . S
C3729 H3708 0.950 . S
C3729 C3728 1.373 . S
C3729 C3745 1.377 . S
C3730 C3728 1.389 . S
C3730 C3731 1.524 . S
C3730 C3744 1.377 . S
C3731 C3730 1.524 . S
C3731 C3732 1.397 . S
C3731 C3736 1.363 . S
C3732 H3709 0.950 . S
C3732 C3731 1.397 . S
C3732 C3733 1.334 . S
C3733 H3710 0.950 . S
C3733 C3732 1.334 . S
C3733 C3734 1.287 . S
C3734 C3733 1.287 . S
C3734 C3735 1.524 . S
C3734 H3753 0.913 . S
C3735 H3711 0.950 . S
C3735 C3734 1.524 . S
C3735 C3736 1.415 . S
C3736 H3712 0.950 . S
C3736 C3731 1.363 . S
C3736 C3735 1.415 . S
C3737 H3713 0.951 . S
C3737 C3738 1.366 . S
C3737 C3739 1.388 . S
C3738 C3737 1.366 . S
C3738 C3742 1.385 . S
C3739 H3714 0.951 . S
C3739 C3737 1.388 . S
C3739 C3740 1.366 . S
C3740 C3739 1.366 . S
C3740 C3741 1.414 . S
C3740 C3743 1.499 . S
C3741 H3715 0.950 . S
C3741 C3740 1.414 . S
C3741 C3742 1.374 . S
C3742 H3716 0.950 . S
C3742 C3738 1.385 . S
C3742 C3741 1.374 . S
C3743 C3740 1.499 . S
C3743 C3744 1.373 . S
C3743 C3745 1.389 . S
C3744 H3717 0.950 . S
C3744 C3730 1.377 . S
C3744 C3743 1.373 . S
C3745 C3729 1.377 . S
C3745 C3743 1.389 . S
C3745 C3746 1.524 . S
C3746 C3745 1.524 . S
C3746 C3747 1.397 . S
C3746 C3751 1.363 . S
C3747 H3718 0.950 . S
C3747 C3746 1.397 . S
C3747 C3748 1.334 . S
C3748 H3719 0.950 . S
C3748 C3747 1.334 . S
C3748 C3749 1.287 . S
C3749 C3748 1.287 . S
C3749 C3750 1.524 . S
C3749 H3752 0.999 . S
C3750 H3720 0.950 . S
C3750 C3749 1.524 . S
C3750 C3751 1.415 . S
C3751 H3721 0.950 . S
C3751 C3746 1.363 . S
C3751 C3750 1.415 . S
H3752 C3749 0.999 . S
H3753 C3734 0.913 . S
H3754 C3772 0.951 . S
H3755 C3774 0.951 . S
H3756 C3776 0.950 . S
H3757 C3777 0.950 . S
H3758 C3779 0.950 . S
H3759 C3782 0.950 . S
H3760 C3783 0.950 . S
H3761 C3785 0.950 . S
H3762 C3786 0.950 . S
H3763 C3787 0.951 . S
H3764 C3789 0.951 . S
H3765 C3791 0.950 . S
H3766 C3792 0.950 . S
H3767 C3794 0.950 . S
H3768 C3797 0.950 . S
H3769 C3798 0.950 . S
H3770 C3800 0.950 . S
H3771 C3801 0.950 . S
C3772 H3754 0.951 . S
C3772 C3773 1.366 . S
C3772 C3774 1.388 . S
C3773 C3772 1.366 . S
C3773 C3777 1.385 . S
C3774 H3755 0.951 . S
C3774 C3772 1.388 . S
C3774 C3775 1.366 . S
C3775 C3774 1.366 . S
C3775 C3776 1.414 . S
C3775 C3778 1.499 . S
C3776 H3756 0.950 . S
C3776 C3775 1.414 . S
C3776 C3777 1.374 . S
C3777 H3757 0.950 . S
C3777 C3773 1.385 . S
C3777 C3776 1.374 . S
C3778 C3775 1.499 . S
C3778 C3779 1.373 . S
C3778 C3780 1.389 . S
C3779 H3758 0.950 . S
C3779 C3778 1.373 . S
C3779 C3795 1.377 . S
C3780 C3778 1.389 . S
C3780 C3781 1.524 . S
C3780 C3794 1.377 . S
C3781 C3780 1.524 . S
C3781 C3782 1.397 . S
C3781 C3786 1.363 . S
C3782 H3759 0.950 . S
C3782 C3781 1.397 . S
C3782 C3783 1.334 . S
C3783 H3760 0.950 . S
C3783 C3782 1.334 . S
C3783 C3784 1.287 . S
C3784 C3783 1.287 . S
C3784 C3785 1.524 . S
C3784 H3803 0.913 . S
C3785 H3761 0.950 . S
C3785 C3784 1.524 . S
C3785 C3786 1.415 . S
C3786 H3762 0.950 . S
C3786 C3781 1.363 . S
C3786 C3785 1.415 . S
C3787 H3763 0.951 . S
C3787 C3788 1.366 . S
C3787 C3789 1.388 . S
C3788 C3787 1.366 . S
C3788 C3792 1.385 . S
C3789 H3764 0.951 . S
C3789 C3787 1.388 . S
C3789 C3790 1.366 . S
C3790 C3789 1.366 . S
C3790 C3791 1.414 . S
C3790 C3793 1.499 . S
C3791 H3765 0.950 . S
C3791 C3790 1.414 . S
C3791 C3792 1.374 . S
C3792 H3766 0.950 . S
C3792 C3788 1.385 . S
C3792 C3791 1.374 . S
C3793 C3790 1.499 . S
C3793 C3794 1.373 . S
C3793 C3795 1.389 . S
C3794 H3767 0.950 . S
C3794 C3780 1.377 . S
C3794 C3793 1.373 . S
C3795 C3779 1.377 . S
C3795 C3793 1.389 . S
C3795 C3796 1.524 . S
C3796 C3795 1.524 . S
C3796 C3797 1.397 . S
C3796 C3801 1.363 . S
C3797 H3768 0.950 . S
C3797 C3796 1.397 . S
C3797 C3798 1.334 . S
C3798 H3769 0.950 . S
C3798 C3797 1.334 . S
C3798 C3799 1.287 . S
C3799 C3798 1.287 . S
C3799 C3800 1.524 . S
C3799 H3802 0.999 . S
C3800 H3770 0.950 . S
C3800 C3799 1.524 . S
C3800 C3801 1.415 . S
C3801 H3771 0.950 . S
C3801 C3796 1.363 . S
C3801 C3800 1.415 . S
H3802 C3799 0.999 . S
H3803 C3784 0.913 . S
H3804 C3822 0.951 . S
H3805 C3824 0.951 . S
H3806 C3826 0.950 . S
H3807 C3827 0.950 . S
H3808 C3829 0.950 . S
H3809 C3832 0.950 . S
H3810 C3833 0.950 . S
H3811 C3835 0.950 . S
H3812 C3836 0.950 . S
H3813 C3837 0.951 . S
H3814 C3839 0.951 . S
H3815 C3841 0.950 . S
H3816 C3842 0.950 . S
H3817 C3844 0.950 . S
H3818 C3847 0.950 . S
H3819 C3848 0.950 . S
H3820 C3850 0.950 . S
H3821 C3851 0.950 . S
C3822 H3804 0.951 . S
C3822 C3823 1.366 . S
C3822 C3824 1.388 . S
C3823 C3822 1.366 . S
C3823 C3827 1.385 . S
C3824 H3805 0.951 . S
C3824 C3822 1.388 . S
C3824 C3825 1.366 . S
C3825 C3824 1.366 . S
C3825 C3826 1.414 . S
C3825 C3828 1.499 . S
C3826 H3806 0.950 . S
C3826 C3825 1.414 . S
C3826 C3827 1.374 . S
C3827 H3807 0.950 . S
C3827 C3823 1.385 . S
C3827 C3826 1.374 . S
C3828 C3825 1.499 . S
C3828 C3829 1.373 . S
C3828 C3830 1.389 . S
C3829 H3808 0.950 . S
C3829 C3828 1.373 . S
C3829 C3845 1.377 . S
C3830 C3828 1.389 . S
C3830 C3831 1.524 . S
C3830 C3844 1.377 . S
C3831 C3830 1.524 . S
C3831 C3832 1.397 . S
C3831 C3836 1.363 . S
C3832 H3809 0.950 . S
C3832 C3831 1.397 . S
C3832 C3833 1.334 . S
C3833 H3810 0.950 . S
C3833 C3832 1.334 . S
C3833 C3834 1.287 . S
C3834 C3833 1.287 . S
C3834 C3835 1.524 . S
C3834 H3853 0.913 . S
C3835 H3811 0.950 . S
C3835 C3834 1.524 . S
C3835 C3836 1.415 . S
C3836 H3812 0.950 . S
C3836 C3831 1.363 . S
C3836 C3835 1.415 . S
C3837 H3813 0.951 . S
C3837 C3838 1.366 . S
C3837 C3839 1.388 . S
C3838 C3837 1.366 . S
C3838 C3842 1.385 . S
C3839 H3814 0.951 . S
C3839 C3837 1.388 . S
C3839 C3840 1.366 . S
C3840 C3839 1.366 . S
C3840 C3841 1.414 . S
C3840 C3843 1.499 . S
C3841 H3815 0.950 . S
C3841 C3840 1.414 . S
C3841 C3842 1.374 . S
C3842 H3816 0.950 . S
C3842 C3838 1.385 . S
C3842 C3841 1.374 . S
C3843 C3840 1.499 . S
C3843 C3844 1.373 . S
C3843 C3845 1.389 . S
C3844 H3817 0.950 . S
C3844 C3830 1.377 . S
C3844 C3843 1.373 . S
C3845 C3829 1.377 . S
C3845 C3843 1.389 . S
C3845 C3846 1.524 . S
C3846 C3845 1.524 . S
C3846 C3847 1.397 . S
C3846 C3851 1.363 . S
C3847 H3818 0.950 . S
C3847 C3846 1.397 . S
C3847 C3848 1.334 . S
C3848 H3819 0.950 . S
C3848 C3847 1.334 . S
C3848 C3849 1.287 . S
C3849 C3848 1.287 . S
C3849 C3850 1.524 . S
C3849 H3852 0.999 . S
C3850 H3820 0.950 . S
C3850 C3849 1.524 . S
C3850 C3851 1.415 . S
C3851 H3821 0.950 . S
C3851 C3846 1.363 . S
C3851 C3850 1.415 . S
H3852 C3849 0.999 . S
H3853 C3834 0.913 . S
H3854 C3872 0.951 . S
H3855 C3874 0.951 . S
H3856 C3876 0.950 . S
H3857 C3877 0.950 . S
H3858 C3879 0.950 . S
H3859 C3882 0.950 . S
H3860 C3883 0.950 . S
H3861 C3885 0.950 . S
H3862 C3886 0.950 . S
H3863 C3887 0.951 . S
H3864 C3889 0.951 . S
H3865 C3891 0.950 . S
H3866 C3892 0.950 . S
H3867 C3894 0.950 . S
H3868 C3897 0.950 . S
H3869 C3898 0.950 . S
H3870 C3900 0.950 . S
H3871 C3901 0.950 . S
C3872 H3854 0.951 . S
C3872 C3873 1.366 . S
C3872 C3874 1.388 . S
C3873 C3872 1.366 . S
C3873 C3877 1.385 . S
C3874 H3855 0.951 . S
C3874 C3872 1.388 . S
C3874 C3875 1.366 . S
C3875 C3874 1.366 . S
C3875 C3876 1.414 . S
C3875 C3878 1.499 . S
C3876 H3856 0.950 . S
C3876 C3875 1.414 . S
C3876 C3877 1.374 . S
C3877 H3857 0.950 . S
C3877 C3873 1.385 . S
C3877 C3876 1.374 . S
C3878 C3875 1.499 . S
C3878 C3879 1.373 . S
C3878 C3880 1.389 . S
C3879 H3858 0.950 . S
C3879 C3878 1.373 . S
C3879 C3895 1.377 . S
C3880 C3878 1.389 . S
C3880 C3881 1.524 . S
C3880 C3894 1.377 . S
C3881 C3880 1.524 . S
C3881 C3882 1.397 . S
C3881 C3886 1.363 . S
C3882 H3859 0.950 . S
C3882 C3881 1.397 . S
C3882 C3883 1.334 . S
C3883 H3860 0.950 . S
C3883 C3882 1.334 . S
C3883 C3884 1.287 . S
C3884 C3883 1.287 . S
C3884 C3885 1.524 . S
C3884 H3903 0.913 . S
C3885 H3861 0.950 . S
C3885 C3884 1.524 . S
C3885 C3886 1.415 . S
C3886 H3862 0.950 . S
C3886 C3881 1.363 . S
C3886 C3885 1.415 . S
C3887 H3863 0.951 . S
C3887 C3888 1.366 . S
C3887 C3889 1.388 . S
C3888 C3887 1.366 . S
C3888 C3892 1.385 . S
C3889 H3864 0.951 . S
C3889 C3887 1.388 . S
C3889 C3890 1.366 . S
C3890 C3889 1.366 . S
C3890 C3891 1.414 . S
C3890 C3893 1.499 . S
C3891 H3865 0.950 . S
C3891 C3890 1.414 . S
C3891 C3892 1.374 . S
C3892 H3866 0.950 . S
C3892 C3888 1.385 . S
C3892 C3891 1.374 . S
C3893 C3890 1.499 . S
C3893 C3894 1.373 . S
C3893 C3895 1.389 . S
C3894 H3867 0.950 . S
C3894 C3880 1.377 . S
C3894 C3893 1.373 . S
C3895 C3879 1.377 . S
C3895 C3893 1.389 . S
C3895 C3896 1.524 . S
C3896 C3895 1.524 . S
C3896 C3897 1.397 . S
C3896 C3901 1.363 . S
C3897 H3868 0.950 . S
C3897 C3896 1.397 . S
C3897 C3898 1.334 . S
C3898 H3869 0.950 . S
C3898 C3897 1.334 . S
C3898 C3899 1.287 . S
C3899 C3898 1.287 . S
C3899 C3900 1.524 . S
C3899 H3902 0.999 . S
C3900 H3870 0.950 . S
C3900 C3899 1.524 . S
C3900 C3901 1.415 . S
C3901 H3871 0.950 . S
C3901 C3896 1.363 . S
C3901 C3900 1.415 . S
H3902 C3899 0.999 . S
H3903 C3884 0.913 . S
H3904 C3922 0.951 . S
H3905 C3924 0.951 . S
H3906 C3926 0.950 . S
H3907 C3927 0.950 . S
H3908 C3929 0.950 . S
H3909 C3932 0.950 . S
H3910 C3933 0.950 . S
H3911 C3935 0.950 . S
H3912 C3936 0.950 . S
H3913 C3937 0.951 . S
H3914 C3939 0.951 . S
H3915 C3941 0.950 . S
H3916 C3942 0.950 . S
H3917 C3944 0.950 . S
H3918 C3947 0.950 . S
H3919 C3948 0.950 . S
H3920 C3950 0.950 . S
H3921 C3951 0.950 . S
C3922 H3904 0.951 . S
C3922 C3923 1.366 . S
C3922 C3924 1.388 . S
C3923 C3922 1.366 . S
C3923 C3927 1.385 . S
C3924 H3905 0.951 . S
C3924 C3922 1.388 . S
C3924 C3925 1.366 . S
C3925 C3924 1.366 . S
C3925 C3926 1.414 . S
C3925 C3928 1.499 . S
C3926 H3906 0.950 . S
C3926 C3925 1.414 . S
C3926 C3927 1.374 . S
C3927 H3907 0.950 . S
C3927 C3923 1.385 . S
C3927 C3926 1.374 . S
C3928 C3925 1.499 . S
C3928 C3929 1.373 . S
C3928 C3930 1.389 . S
C3929 H3908 0.950 . S
C3929 C3928 1.373 . S
C3929 C3945 1.377 . S
C3930 C3928 1.389 . S
C3930 C3931 1.524 . S
C3930 C3944 1.377 . S
C3931 C3930 1.524 . S
C3931 C3932 1.397 . S
C3931 C3936 1.363 . S
C3932 H3909 0.950 . S
C3932 C3931 1.397 . S
C3932 C3933 1.334 . S
C3933 H3910 0.950 . S
C3933 C3932 1.334 . S
C3933 C3934 1.287 . S
C3934 C3933 1.287 . S
C3934 C3935 1.524 . S
C3934 H3953 0.913 . S
C3935 H3911 0.950 . S
C3935 C3934 1.524 . S
C3935 C3936 1.415 . S
C3936 H3912 0.950 . S
C3936 C3931 1.363 . S
C3936 C3935 1.415 . S
C3937 H3913 0.951 . S
C3937 C3938 1.366 . S
C3937 C3939 1.388 . S
C3938 C3937 1.366 . S
C3938 C3942 1.385 . S
C3939 H3914 0.951 . S
C3939 C3937 1.388 . S
C3939 C3940 1.366 . S
C3940 C3939 1.366 . S
C3940 C3941 1.414 . S
C3940 C3943 1.499 . S
C3941 H3915 0.950 . S
C3941 C3940 1.414 . S
C3941 C3942 1.374 . S
C3942 H3916 0.950 . S
C3942 C3938 1.385 . S
C3942 C3941 1.374 . S
C3943 C3940 1.499 . S
C3943 C3944 1.373 . S
C3943 C3945 1.389 . S
C3944 H3917 0.950 . S
C3944 C3930 1.377 . S
C3944 C3943 1.373 . S
C3945 C3929 1.377 . S
C3945 C3943 1.389 . S
C3945 C3946 1.524 . S
C3946 C3945 1.524 . S
C3946 C3947 1.397 . S
C3946 C3951 1.363 . S
C3947 H3918 0.950 . S
C3947 C3946 1.397 . S
C3947 C3948 1.334 . S
C3948 H3919 0.950 . S
C3948 C3947 1.334 . S
C3948 C3949 1.287 . S
C3949 C3948 1.287 . S
C3949 C3950 1.524 . S
C3949 H3952 0.999 . S
C3950 H3920 0.950 . S
C3950 C3949 1.524 . S
C3950 C3951 1.415 . S
C3951 H3921 0.950 . S
C3951 C3946 1.363 . S
C3951 C3950 1.415 . S
H3952 C3949 0.999 . S
H3953 C3934 0.913 . S
H3954 C3972 0.951 . S
H3955 C3974 0.951 . S
H3956 C3976 0.950 . S
H3957 C3977 0.950 . S
H3958 C3979 0.950 . S
H3959 C3982 0.950 . S
H3960 C3983 0.950 . S
H3961 C3985 0.950 . S
H3962 C3986 0.950 . S
H3963 C3987 0.951 . S
H3964 C3989 0.951 . S
H3965 C3991 0.950 . S
H3966 C3992 0.950 . S
H3967 C3994 0.950 . S
H3968 C3997 0.950 . S
H3969 C3998 0.950 . S
H3970 C4000 0.950 . S
H3971 C4001 0.950 . S
C3972 H3954 0.951 . S
C3972 C3973 1.366 . S
C3972 C3974 1.388 . S
C3973 C3972 1.366 . S
C3973 C3977 1.385 . S
C3974 H3955 0.951 . S
C3974 C3972 1.388 . S
C3974 C3975 1.366 . S
C3975 C3974 1.366 . S
C3975 C3976 1.414 . S
C3975 C3978 1.499 . S
C3976 H3956 0.950 . S
C3976 C3975 1.414 . S
C3976 C3977 1.374 . S
C3977 H3957 0.950 . S
C3977 C3973 1.385 . S
C3977 C3976 1.374 . S
C3978 C3975 1.499 . S
C3978 C3979 1.373 . S
C3978 C3980 1.389 . S
C3979 H3958 0.950 . S
C3979 C3978 1.373 . S
C3979 C3995 1.377 . S
C3980 C3978 1.389 . S
C3980 C3981 1.524 . S
C3980 C3994 1.377 . S
C3981 C3980 1.524 . S
C3981 C3982 1.397 . S
C3981 C3986 1.363 . S
C3982 H3959 0.950 . S
C3982 C3981 1.397 . S
C3982 C3983 1.334 . S
C3983 H3960 0.950 . S
C3983 C3982 1.334 . S
C3983 C3984 1.287 . S
C3984 C3983 1.287 . S
C3984 C3985 1.524 . S
C3984 H4003 0.913 . S
C3985 H3961 0.950 . S
C3985 C3984 1.524 . S
C3985 C3986 1.415 . S
C3986 H3962 0.950 . S
C3986 C3981 1.363 . S
C3986 C3985 1.415 . S
C3987 H3963 0.951 . S
C3987 C3988 1.366 . S
C3987 C3989 1.388 . S
C3988 C3987 1.366 . S
C3988 C3992 1.385 . S
C3989 H3964 0.951 . S
C3989 C3987 1.388 . S
C3989 C3990 1.366 . S
C3990 C3989 1.366 . S
C3990 C3991 1.414 . S
C3990 C3993 1.499 . S
C3991 H3965 0.950 . S
C3991 C3990 1.414 . S
C3991 C3992 1.374 . S
C3992 H3966 0.950 . S
C3992 C3988 1.385 . S
C3992 C3991 1.374 . S
C3993 C3990 1.499 . S
C3993 C3994 1.373 . S
C3993 C3995 1.389 . S
C3994 H3967 0.950 . S
C3994 C3980 1.377 . S
C3994 C3993 1.373 . S
C3995 C3979 1.377 . S
C3995 C3993 1.389 . S
C3995 C3996 1.524 . S
C3996 C3995 1.524 . S
C3996 C3997 1.397 . S
C3996 C4001 1.363 . S
C3997 H3968 0.950 . S
C3997 C3996 1.397 . S
C3997 C3998 1.334 . S
C3998 H3969 0.950 . S
C3998 C3997 1.334 . S
C3998 C3999 1.287 . S
C3999 C3998 1.287 . S
C3999 C4000 1.524 . S
C3999 H4002 0.999 . S
C4000 H3970 0.950 . S
C4000 C3999 1.524 . S
C4000 C4001 1.415 . S
C4001 H3971 0.950 . S
C4001 C3996 1.363 . S
C4001 C4000 1.415 . S
H4002 C3999 0.999 . S
H4003 C3984 0.913 . S
H4004 C4022 0.951 . S
H4005 C4024 0.951 . S
H4006 C4026 0.950 . S
H4007 C4027 0.950 . S
H4008 C4029 0.950 . S
H4009 C4032 0.950 . S
H4010 C4033 0.950 . S
H4011 C4035 0.950 . S
H4012 C4036 0.950 . S
H4013 C4037 0.951 . S
H4014 C4039 0.951 . S
H4015 C4041 0.950 . S
H4016 C4042 0.950 . S
H4017 C4044 0.950 . S
H4018 C4047 0.950 . S
H4019 C4048 0.950 . S
H4020 C4050 0.950 . S
H4021 C4051 0.950 . S
C4022 H4004 0.951 . S
C4022 C4023 1.366 . S
C4022 C4024 1.388 . S
C4023 C4022 1.366 . S
C4023 C4027 1.385 . S
C4024 H4005 0.951 . S
C4024 C4022 1.388 . S
C4024 C4025 1.366 . S
C4025 C4024 1.366 . S
C4025 C4026 1.414 . S
C4025 C4028 1.499 . S
C4026 H4006 0.950 . S
C4026 C4025 1.414 . S
C4026 C4027 1.374 . S
C4027 H4007 0.950 . S
C4027 C4023 1.385 . S
C4027 C4026 1.374 . S
C4028 C4025 1.499 . S
C4028 C4029 1.373 . S
C4028 C4030 1.389 . S
C4029 H4008 0.950 . S
C4029 C4028 1.373 . S
C4029 C4045 1.377 . S
C4030 C4028 1.389 . S
C4030 C4031 1.524 . S
C4030 C4044 1.377 . S
C4031 C4030 1.524 . S
C4031 C4032 1.397 . S
C4031 C4036 1.363 . S
C4032 H4009 0.950 . S
C4032 C4031 1.397 . S
C4032 C4033 1.334 . S
C4033 H4010 0.950 . S
C4033 C4032 1.334 . S
C4033 C4034 1.287 . S
C4034 C4033 1.287 . S
C4034 C4035 1.524 . S
C4034 H4053 0.913 . S
C4035 H4011 0.950 . S
C4035 C4034 1.524 . S
C4035 C4036 1.415 . S
C4036 H4012 0.950 . S
C4036 C4031 1.363 . S
C4036 C4035 1.415 . S
C4037 H4013 0.951 . S
C4037 C4038 1.366 . S
C4037 C4039 1.388 . S
C4038 C4037 1.366 . S
C4038 C4042 1.385 . S
C4039 H4014 0.951 . S
C4039 C4037 1.388 . S
C4039 C4040 1.366 . S
C4040 C4039 1.366 . S
C4040 C4041 1.414 . S
C4040 C4043 1.499 . S
C4041 H4015 0.950 . S
C4041 C4040 1.414 . S
C4041 C4042 1.374 . S
C4042 H4016 0.950 . S
C4042 C4038 1.385 . S
C4042 C4041 1.374 . S
C4043 C4040 1.499 . S
C4043 C4044 1.373 . S
C4043 C4045 1.389 . S
C4044 H4017 0.950 . S
C4044 C4030 1.377 . S
C4044 C4043 1.373 . S
C4045 C4029 1.377 . S
C4045 C4043 1.389 . S
C4045 C4046 1.524 . S
C4046 C4045 1.524 . S
C4046 C4047 1.397 . S
C4046 C4051 1.363 . S
C4047 H4018 0.950 . S
C4047 C4046 1.397 . S
C4047 C4048 1.334 . S
C4048 H4019 0.950 . S
C4048 C4047 1.334 . S
C4048 C4049 1.287 . S
C4049 C4048 1.287 . S
C4049 C4050 1.524 . S
C4049 H4052 0.999 . S
C4050 H4020 0.950 . S
C4050 C4049 1.524 . S
C4050 C4051 1.415 . S
C4051 H4021 0.950 . S
C4051 C4046 1.363 . S
C4051 C4050 1.415 . S
H4052 C4049 0.999 . S
H4053 C4034 0.913 . S
H4054 C4072 0.951 . S
H4055 C4074 0.951 . S
H4056 C4076 0.950 . S
H4057 C4077 0.950 . S
H4058 C4079 0.950 . S
H4059 C4082 0.950 . S
H4060 C4083 0.950 . S
H4061 C4085 0.950 . S
H4062 C4086 0.950 . S
H4063 C4087 0.951 . S
H4064 C4089 0.951 . S
H4065 C4091 0.950 . S
H4066 C4092 0.950 . S
H4067 C4094 0.950 . S
H4068 C4097 0.950 . S
H4069 C4098 0.950 . S
H4070 C4100 0.950 . S
H4071 C4101 0.950 . S
C4072 H4054 0.951 . S
C4072 C4073 1.366 . S
C4072 C4074 1.388 . S
C4073 C4072 1.366 . S
C4073 C4077 1.385 . S
C4074 H4055 0.951 . S
C4074 C4072 1.388 . S
C4074 C4075 1.366 . S
C4075 C4074 1.366 . S
C4075 C4076 1.414 . S
C4075 C4078 1.499 . S
C4076 H4056 0.950 . S
C4076 C4075 1.414 . S
C4076 C4077 1.374 . S
C4077 H4057 0.950 . S
C4077 C4073 1.385 . S
C4077 C4076 1.374 . S
C4078 C4075 1.499 . S
C4078 C4079 1.373 . S
C4078 C4080 1.389 . S
C4079 H4058 0.950 . S
C4079 C4078 1.373 . S
C4079 C4095 1.377 . S
C4080 C4078 1.389 . S
C4080 C4081 1.524 . S
C4080 C4094 1.377 . S
C4081 C4080 1.524 . S
C4081 C4082 1.397 . S
C4081 C4086 1.363 . S
C4082 H4059 0.950 . S
C4082 C4081 1.397 . S
C4082 C4083 1.334 . S
C4083 H4060 0.950 . S
C4083 C4082 1.334 . S
C4083 C4084 1.287 . S
C4084 C4083 1.287 . S
C4084 C4085 1.524 . S
C4084 H4103 0.913 . S
C4085 H4061 0.950 . S
C4085 C4084 1.524 . S
C4085 C4086 1.415 . S
C4086 H4062 0.950 . S
C4086 C4081 1.363 . S
C4086 C4085 1.415 . S
C4087 H4063 0.951 . S
C4087 C4088 1.366 . S
C4087 C4089 1.388 . S
C4088 C4087 1.366 . S
C4088 C4092 1.385 . S
C4089 H4064 0.951 . S
C4089 C4087 1.388 . S
C4089 C4090 1.366 . S
C4090 C4089 1.366 . S
C4090 C4091 1.414 . S
C4090 C4093 1.499 . S
C4091 H4065 0.950 . S
C4091 C4090 1.414 . S
C4091 C4092 1.374 . S
C4092 H4066 0.950 . S
C4092 C4088 1.385 . S
C4092 C4091 1.374 . S
C4093 C4090 1.499 . S
C4093 C4094 1.373 . S
C4093 C4095 1.389 . S
C4094 H4067 0.950 . S
C4094 C4080 1.377 . S
C4094 C4093 1.373 . S
C4095 C4079 1.377 . S
C4095 C4093 1.389 . S
C4095 C4096 1.524 . S
C4096 C4095 1.524 . S
C4096 C4097 1.397 . S
C4096 C4101 1.363 . S
C4097 H4068 0.950 . S
C4097 C4096 1.397 . S
C4097 C4098 1.334 . S
C4098 H4069 0.950 . S
C4098 C4097 1.334 . S
C4098 C4099 1.287 . S
C4099 C4098 1.287 . S
C4099 C4100 1.524 . S
C4099 H4102 0.999 . S
C4100 H4070 0.950 . S
C4100 C4099 1.524 . S
C4100 C4101 1.415 . S
C4101 H4071 0.950 . S
C4101 C4096 1.363 . S
C4101 C4100 1.415 . S
H4102 C4099 0.999 . S
H4103 C4084 0.913 . S
C523 C6 1.439 . S
C538 C160 1.438 . S
C573 C132 1.438 . S
C588 C20 1.438 . S
C623 C146 1.438 . S
C638 C34 1.439 . S
C673 C48 1.439 . S
C688 C104 1.438 . S
C723 C62 1.438 . S
C738 C118 1.438 . S
C773 C76 1.438 . S
C788 C90 1.439 . S
C823 C174 1.438 . S
C838 C328 1.439 . S
C873 C300 1.438 . S
C888 C188 1.438 . S
C923 C202 1.439 . S
C938 C314 1.438 . S
C973 C216 1.439 . S
C988 C272 1.438 . S
C1023 C230 1.439 . S
C1038 C286 1.438 . S
C1073 C244 1.438 . S
C1088 C258 1.439 . S
C1123 C342 1.439 . S
C1138 C496 1.438 . S
C1173 C356 1.438 . S
C1188 C468 1.438 . S
C1223 C482 1.438 . S
C1238 C370 1.438 . S
C1273 C384 1.438 . S
C1288 C440 1.439 . S
C1323 C454 1.439 . S
C1338 C398 1.438 . S
C1373 C426 1.439 . S
C1388 C412 1.438 . S
C1423 C7 1.292 . S
C1438 C217 1.291 . S
C1473 C21 1.291 . S
C1488 C231 1.292 . S
C1523 C35 1.291 . S
C1538 C245 1.292 . S
C1573 C49 1.291 . S
C1588 C343 1.291 . S
C1623 C357 1.292 . S
C1638 C63 1.292 . S
C1673 C371 1.291 . S
C1688 C77 1.291 . S
C1723 C91 1.291 . S
C1738 C469 1.291 . S
C1773 C483 1.291 . S
C1788 C105 1.291 . S
C1823 C119 1.291 . S
C1838 C497 1.292 . S
C1873 C133 1.292 . S
C1888 C259 1.292 . S
C1923 C147 1.291 . S
C1938 C273 1.291 . S
C1973 C161 1.292 . S
C1988 C287 1.291 . S
C2023 C385 1.291 . S
C2038 C175 1.292 . S
C2073 C189 1.292 . S
C2088 C399 1.291 . S
C2123 C203 1.292 . S
C2138 C413 1.292 . S
C2173 C427 1.292 . S
C2188 C301 1.291 . S
C2223 C441 1.291 . S
C2238 C315 1.292 . S
C2273 C329 1.291 . S
C2288 C455 1.291 . S
C2323 C8 1.253 . S
C2338 C64 1.252 . S
C2373 C78 1.252 . S
C2388 C22 1.252 . S
C2423 C50 1.251 . S
C2438 C36 1.252 . S
C2473 C92 1.252 . S
C2488 C148 1.252 . S
C2523 C162 1.252 . S
C2538 C106 1.252 . S
C2573 C120 1.253 . S
C2588 C134 1.252 . S
C2623 C232 1.252 . S
C2638 C176 1.252 . S
C2673 C190 1.252 . S
C2688 C246 1.252 . S
C2723 C204 1.252 . S
C2738 C218 1.253 . S
C2773 C316 1.252 . S
C2788 C260 1.252 . S
C2823 C330 1.252 . S
C2838 C274 1.253 . S
C2873 C302 1.253 . S
C2888 C288 1.252 . S
C2923 C344 1.253 . S
C2938 C400 1.252 . S
C2973 C358 1.252 . S
C2988 C414 1.251 . S
C3023 C372 1.252 . S
C3038 C386 1.252 . S
C3073 C484 1.252 . S
C3088 C428 1.252 . S
C3123 C498 1.251 . S
C3138 C442 1.253 . S
C3173 C470 1.251 . S
C3188 C456 1.252 . S
C3223 C135 2.063 . S
C3238 C9 2.063 . S
C3273 C149 2.063 . S
C3288 C23 2.063 . S
C3323 C37 2.063 . S
C3338 C163 2.063 . S
C3373 C51 2.063 . S
C3388 C93 2.063 . S
C3423 C107 2.063 . S
C3438 C65 2.063 . S
C3473 C79 2.063 . S
C3488 C121 2.063 . S
C3523 C303 2.063 . S
C3538 C177 2.063 . S
C3573 C317 2.063 . S
C3588 C191 2.063 . S
C3623 C205 2.063 . S
C3638 C331 2.063 . S
C3673 C261 2.063 . S
C3688 C219 2.063 . S
C3723 C275 2.063 . S
C3738 C233 2.063 . S
C3773 C289 2.063 . S
C3788 C247 2.063 . S
C3823 C345 2.063 . S
C3838 C471 2.063 . S
C3873 C485 2.063 . S
C3888 C359 2.063 . S
C3923 C373 2.063 . S
C3938 C499 2.063 . S
C3973 C387 2.063 . S
C3988 C429 2.063 . S
C4023 C401 2.063 . S
C4038 C443 2.063 . S
C4073 C457 2.063 . S
C4088 C415 2.063 . S
