# Generated by pormake.
# Topology yfj, (5)-cn, num edge types: 1
# Building blocks:
#     Node 0, Type 0, BuildingBlock: XOMCOT_clean_sbu_1, # of connection points: 5
#     Node 1, Type 0, BuildingBlock: XOMCOT_clean_sbu_1, # of connection points: 5
#     Node 2, Type 0, BuildingBlock: XOMCOT_clean_sbu_1, # of connection points: 5
#     Node 3, Type 0, BuildingBlock: XOMCOT_clean_sbu_1, # of connection points: 5
#     Node 4, Type 0, BuildingBlock: XOMCOT_clean_sbu_1, # of connection points: 5
#     Node 5, Type 0, BuildingBlock: XOMCOT_clean_sbu_1, # of connection points: 5
#     Node 6, Type 0, BuildingBlock: XOMCOT_clean_sbu_1, # of connection points: 5
#     Node 7, Type 0, BuildingBlock: XOMCOT_clean_sbu_1, # of connection points: 5
#     Node 8, Type 0, BuildingBlock: XOMCOT_clean_sbu_1, # of connection points: 5
#     Node 9, Type 0, BuildingBlock: XOMCOT_clean_sbu_1, # of connection points: 5
#     Node 10, Type 0, BuildingBlock: XOMCOT_clean_sbu_1, # of connection points: 5
#     Node 11, Type 0, BuildingBlock: XOMCOT_clean_sbu_1, # of connection points: 5
#     Node 12, Type 0, BuildingBlock: XOMCOT_clean_sbu_1, # of connection points: 5
#     Node 13, Type 0, BuildingBlock: XOMCOT_clean_sbu_1, # of connection points: 5
#     Node 14, Type 0, BuildingBlock: XOMCOT_clean_sbu_1, # of connection points: 5
#     Node 15, Type 0, BuildingBlock: XOMCOT_clean_sbu_1, # of connection points: 5
#     Edge 16, Type (0, 0), BuildingBlock: UVAHIK_clean_linker_0, # of connection points: 2
#     Edge 17, Type (0, 0), BuildingBlock: UVAHIK_clean_linker_0, # of connection points: 2
#     Edge 18, Type (0, 0), BuildingBlock: UVAHIK_clean_linker_0, # of connection points: 2
#     Edge 19, Type (0, 0), BuildingBlock: UVAHIK_clean_linker_0, # of connection points: 2
#     Edge 20, Type (0, 0), BuildingBlock: UVAHIK_clean_linker_0, # of connection points: 2
#     Edge 21, Type (0, 0), BuildingBlock: UVAHIK_clean_linker_0, # of connection points: 2
#     Edge 22, Type (0, 0), BuildingBlock: UVAHIK_clean_linker_0, # of connection points: 2
#     Edge 23, Type (0, 0), BuildingBlock: UVAHIK_clean_linker_0, # of connection points: 2
#     Edge 24, Type (0, 0), BuildingBlock: UVAHIK_clean_linker_0, # of connection points: 2
#     Edge 25, Type (0, 0), BuildingBlock: UVAHIK_clean_linker_0, # of connection points: 2
#     Edge 26, Type (0, 0), BuildingBlock: UVAHIK_clean_linker_0, # of connection points: 2
#     Edge 27, Type (0, 0), BuildingBlock: UVAHIK_clean_linker_0, # of connection points: 2
#     Edge 28, Type (0, 0), BuildingBlock: UVAHIK_clean_linker_0, # of connection points: 2
#     Edge 29, Type (0, 0), BuildingBlock: UVAHIK_clean_linker_0, # of connection points: 2
#     Edge 30, Type (0, 0), BuildingBlock: UVAHIK_clean_linker_0, # of connection points: 2
#     Edge 31, Type (0, 0), BuildingBlock: UVAHIK_clean_linker_0, # of connection points: 2
#     Edge 32, Type (0, 0), BuildingBlock: UVAHIK_clean_linker_0, # of connection points: 2
#     Edge 33, Type (0, 0), BuildingBlock: UVAHIK_clean_linker_0, # of connection points: 2
#     Edge 34, Type (0, 0), BuildingBlock: UVAHIK_clean_linker_0, # of connection points: 2
#     Edge 35, Type (0, 0), BuildingBlock: UVAHIK_clean_linker_0, # of connection points: 2
#     Edge 36, Type (0, 0), BuildingBlock: UVAHIK_clean_linker_0, # of connection points: 2
#     Edge 37, Type (0, 0), BuildingBlock: UVAHIK_clean_linker_0, # of connection points: 2
#     Edge 38, Type (0, 0), BuildingBlock: UVAHIK_clean_linker_0, # of connection points: 2
#     Edge 39, Type (0, 0), BuildingBlock: UVAHIK_clean_linker_0, # of connection points: 2
#     Edge 40, Type (0, 0), BuildingBlock: UVAHIK_clean_linker_0, # of connection points: 2
#     Edge 41, Type (0, 0), BuildingBlock: UVAHIK_clean_linker_0, # of connection points: 2
#     Edge 42, Type (0, 0), BuildingBlock: UVAHIK_clean_linker_0, # of connection points: 2
#     Edge 43, Type (0, 0), BuildingBlock: UVAHIK_clean_linker_0, # of connection points: 2
#     Edge 44, Type (0, 0), BuildingBlock: UVAHIK_clean_linker_0, # of connection points: 2
#     Edge 45, Type (0, 0), BuildingBlock: UVAHIK_clean_linker_0, # of connection points: 2
#     Edge 46, Type (0, 0), BuildingBlock: UVAHIK_clean_linker_0, # of connection points: 2
#     Edge 47, Type (0, 0), BuildingBlock: UVAHIK_clean_linker_0, # of connection points: 2
#     Edge 48, Type (0, 0), BuildingBlock: UVAHIK_clean_linker_0, # of connection points: 2
#     Edge 49, Type (0, 0), BuildingBlock: UVAHIK_clean_linker_0, # of connection points: 2
#     Edge 50, Type (0, 0), BuildingBlock: UVAHIK_clean_linker_0, # of connection points: 2
#     Edge 51, Type (0, 0), BuildingBlock: UVAHIK_clean_linker_0, # of connection points: 2
#     Edge 52, Type (0, 0), BuildingBlock: UVAHIK_clean_linker_0, # of connection points: 2
#     Edge 53, Type (0, 0), BuildingBlock: UVAHIK_clean_linker_0, # of connection points: 2
#     Edge 54, Type (0, 0), BuildingBlock: UVAHIK_clean_linker_0, # of connection points: 2
#     Edge 55, Type (0, 0), BuildingBlock: UVAHIK_clean_linker_0, # of connection points: 2
# Relax obj value: 0.478
# Max RMSD: 0.235
# Mean RMSD: 0.235
data_MOF--net-yfj--node1-XOMCOT_clean_sbu_1--edge1-UVAHIK_clean_linker_0
_symmetry_space_group_name_H-M    P1
_symmetry_Int_Tables_number       1
_symmetry_cell_setting            triclinic
loop_
_symmetry_equiv_pos_as_xyz
'x, y, z'
_cell_length_a     61.532413
_cell_length_b     61.864506
_cell_length_c     54.914449
_cell_angle_alpha  90.030341
_cell_angle_beta   90.063949
_cell_angle_gamma 90.003657
loop_
_atom_site_label
_atom_site_type_symbol
_atom_site_fract_x
_atom_site_fract_y
_atom_site_fract_z
_atom_type_partial_charge
C0 C 0.10941 0.09811 0.33948 0.0
C1 C 0.10558 0.0922 0.36328 0.0
N2 N 0.1133 0.10789 0.37803 0.0
N3 N 0.11922 0.11758 0.33914 0.0
C4 C 0.12153 0.12302 0.36285 0.0
H5 H 0.10578 0.0886 0.32344 0.0
Co6 Co 0.1305 0.13169 0.31176 0.0
C7 C 0.11572 0.17681 0.32737 0.0
O8 O 0.10049 0.17866 0.31071 0.0
N9 N 0.14317 0.14515 0.28423 0.0
C10 C 0.1552 0.16739 0.25533 0.0
C11 C 0.14124 0.16521 0.27477 0.0
C12 C 0.15827 0.13546 0.26995 0.0
N13 N 0.16597 0.14863 0.25231 0.0
O14 O 0.15833 0.12904 0.32568 0.0
H15 H 0.13068 0.17772 0.28141 0.0
H16 H 0.16387 0.1191 0.27275 0.0
O17 O 0.12731 0.15968 0.32846 0.0
C18 C 0.16634 0.11017 0.32373 0.0
O19 O 0.15557 0.0954 0.31144 0.0
N20 N 0.10247 0.13223 0.29741 0.0
C21 C 0.06442 0.11126 0.28259 0.0
C22 C 0.06488 0.12347 0.30421 0.0
C23 C 0.08403 0.13413 0.31113 0.0
C24 C 0.10142 0.12273 0.27501 0.0
C25 C 0.08244 0.11267 0.26702 0.0
H26 H 0.08482 0.14127 0.32909 0.0
H27 H 0.11591 0.12058 0.26423 0.0
H28 H 0.12962 0.13757 0.36881 0.0
H29 H 0.09843 0.07712 0.36918 0.0
H30 H 0.15721 0.18171 0.24424 0.0
H31 H 0.05146 0.12307 0.31692 0.0
H32 H 0.08267 0.10434 0.24968 0.0
C33 C 0.89951 0.59685 0.59108 0.0
C34 C 0.90534 0.59479 0.61516 0.0
N35 N 0.88937 0.60326 0.62896 0.0
N36 N 0.87974 0.60621 0.58968 0.0
C37 C 0.87411 0.61019 0.61305 0.0
H38 H 0.90907 0.59194 0.57552 0.0
Co39 Co 0.86505 0.61353 0.56088 0.0
C40 C 0.82047 0.59891 0.57947 0.0
O41 O 0.81863 0.58195 0.56521 0.0
N42 N 0.85113 0.62211 0.53191 0.0
C43 C 0.82844 0.63134 0.50205 0.0
C44 C 0.83108 0.61879 0.52264 0.0
C45 C 0.86039 0.63641 0.51642 0.0
N46 N 0.84694 0.64249 0.49822 0.0
O47 O 0.86602 0.64262 0.57032 0.0
H48 H 0.81881 0.60852 0.53049 0.0
H49 H 0.8765 0.64298 0.51911 0.0
O50 O 0.83727 0.61098 0.57809 0.0
C51 C 0.88469 0.65132 0.56926 0.0
O52 O 0.9014 0.63995 0.56168 0.0
N53 N 0.86596 0.58437 0.55092 0.0
C54 C 0.89169 0.5478 0.54518 0.0
C55 C 0.87742 0.54946 0.56499 0.0
C56 C 0.86431 0.56784 0.56735 0.0
C57 C 0.87747 0.58153 0.52993 0.0
C58 C 0.89029 0.56319 0.52657 0.0
H59 H 0.85587 0.57026 0.58438 0.0
H60 H 0.87943 0.59475 0.5173 0.0
H61 H 0.85915 0.61808 0.61832 0.0
H62 H 0.9204 0.58805 0.62196 0.0
H63 H 0.81391 0.63238 0.49099 0.0
H64 H 0.8781 0.53787 0.57975 0.0
H65 H 0.90117 0.56256 0.51108 0.0
C66 C 0.39766 0.40582 0.84099 0.0
C67 C 0.40097 0.41161 0.86491 0.0
N68 N 0.39382 0.39543 0.87931 0.0
N69 N 0.38871 0.38596 0.8402 0.0
C70 C 0.38642 0.38011 0.86379 0.0
H71 H 0.40102 0.41565 0.82516 0.0
Co72 Co 0.37846 0.372 0.81221 0.0
C73 C 0.39439 0.32739 0.82818 0.0
O74 O 0.41079 0.32651 0.81292 0.0
N75 N 0.36684 0.35864 0.78409 0.0
C76 C 0.35609 0.33636 0.75455 0.0
C77 C 0.36958 0.33874 0.77446 0.0
C78 C 0.35182 0.36806 0.76948 0.0
N79 N 0.34489 0.35486 0.75145 0.0
O80 O 0.35027 0.37372 0.82528 0.0
H81 H 0.38042 0.32651 0.78136 0.0
H82 H 0.34568 0.38422 0.77235 0.0
O83 O 0.38187 0.34387 0.82837 0.0
C84 C 0.34174 0.39236 0.8234 0.0
O85 O 0.35227 0.40756 0.81157 0.0
N86 N 0.40685 0.3724 0.79875 0.0
C87 C 0.44526 0.39302 0.78448 0.0
C88 C 0.44436 0.38118 0.8063 0.0
C89 C 0.42504 0.3708 0.813 0.0
C90 C 0.40824 0.38184 0.77634 0.0
C91 C 0.42739 0.39174 0.76865 0.0
H92 H 0.42397 0.36387 0.83104 0.0
H93 H 0.39393 0.38391 0.76523 0.0
H94 H 0.37899 0.36507 0.86941 0.0
H95 H 0.40735 0.42694 0.87115 0.0
H96 H 0.35469 0.3221 0.74323 0.0
H97 H 0.45763 0.38162 0.81925 0.0
H98 H 0.42746 0.39995 0.75124 0.0
C99 C 0.60671 0.8985 0.09404 0.0
C100 C 0.60041 0.90096 0.1179 0.0
N101 N 0.61709 0.89504 0.13238 0.0
N102 N 0.62735 0.89127 0.0934 0.0
C103 C 0.63319 0.88913 0.11701 0.0
H104 H 0.59687 0.90169 0.0781 0.0
Co105 Co 0.64276 0.88454 0.06507 0.0
C106 C 0.68643 0.90075 0.08496 0.0
O107 O 0.68752 0.91834 0.07164 0.0
N108 N 0.65746 0.87661 0.03642 0.0
C109 C 0.68103 0.86867 1.00701 0.0
C110 C 0.67758 0.88073 0.02783 0.0
C111 C 0.64897 0.86235 0.02033 0.0
N112 N 0.66296 0.85707 1.00236 0.0
O113 O 0.64259 0.85534 0.07454 0.0
H114 H 0.68931 0.89129 0.03626 0.0
H115 H 0.633 0.85529 0.02232 0.0
O116 O 0.67028 0.8879 0.08275 0.0
C117 C 0.62435 0.84591 0.0722 0.0
O118 O 0.60794 0.85656 0.06266 0.0
N119 N 0.64094 0.9137 0.05521 0.0
C120 C 0.61473 0.94991 0.04868 0.0
C121 C 0.62845 0.94837 0.06901 0.0
C122 C 0.64171 0.93018 0.07182 0.0
C123 C 0.6298 0.91634 0.03391 0.0
C124 C 0.61675 0.93448 0.03016 0.0
H125 H 0.64975 0.92789 0.08914 0.0
H126 H 0.62841 0.90311 0.02118 0.0
H127 H 0.64897 0.88336 0.12278 0.0
H128 H 0.58457 0.90625 0.12403 0.0
H129 H 0.69578 0.86832 0.9963 0.0
H130 H 0.6273 0.95999 0.08372 0.0
H131 H 0.60628 0.93499 0.01429 0.0
C132 C 0.07505 0.3648 0.92026 0.0
C133 C 0.07171 0.36718 0.89567 0.0
N134 N 0.0911 0.36655 0.88444 0.0
N135 N 0.09658 0.36331 0.9249 0.0
C136 C 0.10579 0.36363 0.90244 0.0
H137 H 0.06222 0.36342 0.93345 0.0
Co138 Co 0.11123 0.35845 0.95491 0.0
C139 C 0.11368 0.31573 0.9379 0.0
O140 O 0.09411 0.31448 0.94732 0.0
N141 N 0.12566 0.35283 0.98425 0.0
C142 C 0.1322 0.33866 0.02066 0.0
C143 C 0.1187 0.33826 1.00066 0.0
C144 C 0.14352 0.36184 0.9946 0.0
N145 N 0.14783 0.3536 0.01695 0.0
O146 O 0.13574 0.37516 0.94365 0.0
H147 H 0.10451 0.32815 0.99829 0.0
H148 H 0.15285 0.37463 0.98622 0.0
O149 O 0.12434 0.33326 0.94036 0.0
C150 C 0.13769 0.39281 0.93182 0.0
O151 O 0.12036 0.40373 0.92512 0.0
N152 N 0.0979 0.38304 0.9697 0.0
C153 C 0.07489 0.41968 0.9844 0.0
C154 C 0.0642 0.39989 0.98088 0.0
C155 C 0.07621 0.38156 0.97442 0.0
C156 C 0.10887 0.40129 0.97666 0.0
C157 C 0.09763 0.41993 0.98359 0.0
H158 H 0.06803 0.36622 0.97241 0.0
H159 H 0.12636 0.40197 0.97616 0.0
H160 H 0.12306 0.36188 0.89933 0.0
H161 H 0.05611 0.36864 0.88669 0.0
H162 H 0.13055 0.32862 0.03668 0.0
H163 H 0.04671 0.39871 0.98266 0.0
H164 H 0.10663 0.43466 0.9871 0.0
C165 C 0.63589 0.57707 0.17721 0.0
C166 C 0.6338 0.57393 0.15254 0.0
N167 N 0.63748 0.59286 0.14124 0.0
N168 N 0.6403 0.5981 0.18179 0.0
C169 C 0.64195 0.60702 0.15928 0.0
H170 H 0.63482 0.56438 0.19054 0.0
Co171 Co 0.64601 0.61267 0.21171 0.0
C172 C 0.68819 0.61018 0.19316 0.0
O173 O 0.68635 0.59007 0.20057 0.0
N174 N 0.65252 0.62696 0.24088 0.0
C175 C 0.66786 0.63322 0.27681 0.0
C176 C 0.667 0.61942 0.25715 0.0
C177 C 0.64482 0.64545 0.25097 0.0
N178 N 0.6538 0.64963 0.27303 0.0
O179 O 0.63139 0.6382 0.1995 0.0
H180 H 0.67631 0.60473 0.25484 0.0
H181 H 0.63251 0.65541 0.24257 0.0
O182 O 0.67265 0.62326 0.1975 0.0
C183 C 0.61423 0.64063 0.18667 0.0
O184 O 0.60256 0.62384 0.17999 0.0
N185 N 0.62004 0.60181 0.22618 0.0
C186 C 0.58105 0.58245 0.24065 0.0
C187 C 0.6001 0.57013 0.23801 0.0
C188 C 0.61958 0.58032 0.23154 0.0
C189 C 0.60261 0.61439 0.23233 0.0
C190 C 0.58288 0.60502 0.23913 0.0
H191 H 0.63424 0.57082 0.22986 0.0
H192 H 0.60345 0.63176 0.2314 0.0
H193 H 0.64597 0.62383 0.15621 0.0
H194 H 0.63026 0.55873 0.14361 0.0
H195 H 0.67822 0.63128 0.29258 0.0
H196 H 0.5999 0.55272 0.23989 0.0
H197 H 0.56908 0.61541 0.24269 0.0
C198 C 0.43375 0.13899 0.41913 0.0
C199 C 0.43758 0.13683 0.3946 0.0
N200 N 0.41834 0.13624 0.38301 0.0
N201 N 0.41212 0.13902 0.42336 0.0
C202 C 0.40325 0.13815 0.40073 0.0
H203 H 0.44625 0.1416 0.43253 0.0
Co204 Co 0.39711 0.14386 0.45302 0.0
C205 C 0.39122 0.18831 0.4401 0.0
O206 O 0.40709 0.19251 0.4554 0.0
N207 N 0.38243 0.14956 0.48218 0.0
C208 C 0.37738 0.16104 0.52007 0.0
C209 C 0.39136 0.16092 0.50053 0.0
C210 C 0.36294 0.14292 0.49096 0.0
N211 N 0.35944 0.14964 0.51413 0.0
O212 O 0.37263 0.12729 0.44125 0.0
H213 H 0.40737 0.16812 0.49995 0.0
H214 H 0.3517 0.13302 0.48074 0.0
O215 O 0.38433 0.16899 0.43802 0.0
C216 C 0.37069 0.10943 0.42978 0.0
O217 O 0.38803 0.09822 0.42373 0.0
N218 N 0.40988 0.11902 0.46802 0.0
C219 C 0.43055 0.08116 0.48362 0.0
C220 C 0.4425 0.10016 0.47941 0.0
C221 C 0.4317 0.11909 0.47237 0.0
C222 C 0.39781 0.10176 0.47573 0.0
C223 C 0.40781 0.08256 0.48301 0.0
H224 H 0.4409 0.13377 0.47007 0.0
H225 H 0.38029 0.10238 0.47568 0.0
H226 H 0.38597 0.13912 0.39724 0.0
H227 H 0.45335 0.13663 0.38589 0.0
H228 H 0.38063 0.16833 0.53761 0.0
H229 H 0.46005 0.10032 0.4807 0.0
H230 H 0.39775 0.06882 0.48775 0.0
C231 C 0.9111 0.90482 0.67887 0.0
C232 C 0.91647 0.90622 0.65464 0.0
N233 N 0.89978 0.89841 0.64134 0.0
N234 N 0.891 0.89638 0.68095 0.0
C235 C 0.88456 0.89251 0.65781 0.0
H236 H 0.92138 0.90918 0.6941 0.0
Co237 Co 0.87733 0.88901 0.71024 0.0
C238 C 0.83194 0.90421 0.69446 0.0
O239 O 0.83031 0.92097 0.70903 0.0
N240 N 0.8642 0.88061 0.73974 0.0
C241 C 0.84658 0.87831 0.7751 0.0
C242 C 0.84969 0.8906 0.75436 0.0
C243 C 0.86955 0.86237 0.75195 0.0
N244 N 0.85902 0.86048 0.77334 0.0
O245 O 0.87686 0.8601 0.69989 0.0
H246 H 0.8424 0.90615 0.75071 0.0
H247 H 0.88162 0.85094 0.74575 0.0
O248 O 0.84903 0.89252 0.69479 0.0
C249 C 0.89513 0.85062 0.69854 0.0
O250 O 0.9129 0.86088 0.70507 0.0
N251 N 0.87968 0.91787 0.72069 0.0
C252 C 0.90574 0.95422 0.72644 0.0
C253 C 0.8906 0.95316 0.70735 0.0
C254 C 0.87731 0.93488 0.70502 0.0
C255 C 0.89248 0.91987 0.74087 0.0
C256 C 0.90538 0.93812 0.74432 0.0
H257 H 0.86787 0.93301 0.68853 0.0
H258 H 0.89512 0.90612 0.75265 0.0
H259 H 0.86915 0.88513 0.65321 0.0
H260 H 0.93185 0.91182 0.64749 0.0
H261 H 0.83609 0.88221 0.7903 0.0
H262 H 0.89057 0.96526 0.6931 0.0
H263 H 0.91703 0.93824 0.75913 0.0
C264 C 0.582 0.63194 0.8521 0.0
C265 C 0.57966 0.62908 0.87678 0.0
N266 N 0.5991 0.63221 0.88742 0.0
N267 N 0.60302 0.63628 0.84686 0.0
C268 C 0.61278 0.6371 0.86902 0.0
H269 H 0.56882 0.63129 0.83923 0.0
Co270 Co 0.61659 0.64232 0.81651 0.0
C271 C 0.61492 0.6843 0.83466 0.0
O272 O 0.5946 0.68255 0.82752 0.0
N273 N 0.62998 0.64896 0.78691 0.0
C274 C 0.63526 0.66369 0.75053 0.0
C275 C 0.622 0.66323 0.77073 0.0
C276 C 0.64816 0.641 0.77625 0.0
N277 N 0.65173 0.6496 0.75393 0.0
O278 O 0.64262 0.62766 0.82734 0.0
H279 H 0.60734 0.67257 0.77341 0.0
H280 H 0.65829 0.6287 0.7844 0.0
O281 O 0.62783 0.66861 0.83059 0.0
C282 C 0.64613 0.61031 0.83929 0.0
O283 O 0.6298 0.59808 0.84628 0.0
N284 N 0.60494 0.61683 0.80205 0.0
C285 C 0.58394 0.57918 0.78637 0.0
C286 C 0.57226 0.59844 0.78995 0.0
C287 C 0.58325 0.61723 0.79706 0.0
C288 C 0.61688 0.59921 0.79518 0.0
C289 C 0.60669 0.58011 0.78783 0.0
H290 H 0.57423 0.63208 0.79945 0.0
H291 H 0.63438 0.59947 0.79574 0.0
H292 H 0.62983 0.64078 0.87157 0.0
H293 H 0.5647 0.62529 0.8862 0.0
H294 H 0.63288 0.67372 0.73462 0.0
H295 H 0.55475 0.59891 0.78823 0.0
H296 H 0.61657 0.56611 0.78365 0.0
C297 C 0.41438 0.11375 0.08483 0.0
C298 C 0.4208 0.11296 0.10883 0.0
N299 N 0.40364 0.11813 0.12297 0.0
N300 N 0.39321 0.11918 0.08375 0.0
C301 C 0.38716 0.12196 0.10722 0.0
H302 H 0.4245 0.1107 0.06911 0.0
Co303 Co 0.37723 0.12358 0.05513 0.0
C304 C 0.33509 0.10549 0.0761 0.0
O305 O 0.33512 0.08764 0.06314 0.0
N306 N 0.36185 0.12957 0.02625 0.0
C307 C 0.33701 0.13896 0.99869 0.0
C308 C 0.34089 0.12702 0.01951 0.0
C309 C 0.37034 0.14271 1.00901 0.0
N310 N 0.3556 0.14891 0.9922 0.0
O311 O 0.37582 0.1531 0.06268 0.0
H312 H 0.32876 0.11827 0.02965 0.0
H313 H 0.38678 0.14882 0.00974 0.0
O314 O 0.35023 0.1194 0.07333 0.0
C315 C 0.39302 0.16376 0.05826 0.0
O316 O 0.41008 0.15364 0.04947 0.0
N317 N 0.38049 0.09395 0.04688 0.0
C318 C 0.4077 0.05834 0.03963 0.0
C319 C 0.39602 0.06075 0.0615 0.0
C320 C 0.38207 0.07844 0.06454 0.0
C321 C 0.38924 0.09019 0.02445 0.0
C322 C 0.40233 0.07217 0.02027 0.0
H323 H 0.37519 0.08124 0.08237 0.0
H324 H 0.38837 0.10226 0.01034 0.0
H325 H 0.37096 0.1267 0.11263 0.0
H326 H 0.43702 0.10932 0.11525 0.0
H327 H 0.3215 0.14083 0.98962 0.0
H328 H 0.39916 0.05053 0.07708 0.0
H329 H 0.40979 0.07042 1.00254 0.0
C330 C 0.93494 0.86799 0.34721 0.0
C331 C 0.93871 0.8707 0.3717 0.0
N332 N 0.91984 0.86789 0.38361 0.0
N333 N 0.91358 0.86408 0.34338 0.0
C334 C 0.90506 0.86336 0.36614 0.0
H335 H 0.94741 0.86833 0.3335 0.0
Co336 Co 0.89818 0.85818 0.31408 0.0
C337 C 0.89993 0.81619 0.33314 0.0
O338 O 0.92015 0.81743 0.32558 0.0
N339 N 0.88293 0.85158 0.28554 0.0
C340 C 0.8735 0.83465 0.2514 0.0
C341 C 0.88832 0.83543 0.27023 0.0
C342 C 0.8648 0.86043 0.27564 0.0
N343 N 0.85877 0.85047 0.25479 0.0
O344 O 0.87307 0.87333 0.32659 0.0
H345 H 0.90215 0.82486 0.27269 0.0
H346 H 0.85588 0.87367 0.28372 0.0
O347 O 0.88725 0.83209 0.32907 0.0
C348 C 0.87056 0.89074 0.33879 0.0
O349 O 0.88747 0.90257 0.34486 0.0
N350 N 0.90939 0.88359 0.29877 0.0
C351 C 0.92984 0.92158 0.2832 0.0
C352 C 0.9416 0.90221 0.28563 0.0
C353 C 0.93085 0.88325 0.29267 0.0
C354 C 0.89723 0.90135 0.29288 0.0
C355 C 0.90716 0.92057 0.28553 0.0
H356 H 0.93994 0.86837 0.29426 0.0
H357 H 0.8798 0.9012 0.29444 0.0
H358 H 0.88814 0.85993 0.36982 0.0
H359 H 0.95426 0.87408 0.38012 0.0
H360 H 0.87375 0.82351 0.23619 0.0
H361 H 0.95904 0.90178 0.28315 0.0
H362 H 0.89711 0.93463 0.2822 0.0
C363 C 0.09636 0.39488 0.58757 0.0
C364 C 0.0907 0.39631 0.61174 0.0
N365 N 0.10785 0.39005 0.62538 0.0
N366 N 0.11707 0.38798 0.58584 0.0
C367 C 0.12358 0.38501 0.60914 0.0
H368 H 0.08596 0.39831 0.57215 0.0
Co369 Co 0.13177 0.38144 0.55685 0.0
C370 C 0.17547 0.39835 0.57519 0.0
O371 O 0.1756 0.41612 0.56211 0.0
N372 N 0.14608 0.37352 0.5277 0.0
C373 C 0.16672 0.37016 0.49449 0.0
C374 C 0.16277 0.38237 0.51517 0.0
C375 C 0.14028 0.35611 0.51426 0.0
N376 N 0.15261 0.35354 0.49423 0.0
O377 O 0.13196 0.35231 0.56636 0.0
H378 H 0.17135 0.39686 0.52045 0.0
H379 H 0.12692 0.34553 0.51869 0.0
O380 O 0.15959 0.38514 0.57349 0.0
C381 C 0.11364 0.34304 0.56391 0.0
O382 O 0.09715 0.35409 0.55514 0.0
N383 N 0.12938 0.41068 0.54679 0.0
C384 C 0.10179 0.44577 0.53846 0.0
C385 C 0.11443 0.44464 0.55983 0.0
C386 C 0.12865 0.4272 0.56334 0.0
C387 C 0.11974 0.41323 0.52458 0.0
C388 C 0.1066 0.43105 0.51976 0.0
H389 H 0.13622 0.42532 0.581 0.0
H390 H 0.11978 0.40028 0.51141 0.0
H391 H 0.1395 0.37901 0.61405 0.0
H392 H 0.07492 0.40095 0.61863 0.0
H393 H 0.17916 0.37306 0.48096 0.0
H394 H 0.11184 0.45564 0.57486 0.0
H395 H 0.09851 0.43184 0.50228 0.0
C396 C 0.60944 0.90266 0.43241 0.0
C397 C 0.60591 0.90856 0.40855 0.0
N398 N 0.61309 0.8925 0.39399 0.0
N399 N 0.61853 0.88285 0.43292 0.0
C400 C 0.62069 0.87716 0.4093 0.0
H401 H 0.6061 0.91235 0.44837 0.0
Co402 Co 0.62906 0.86843 0.46037 0.0
C403 C 0.61325 0.82392 0.44351 0.0
O404 O 0.59774 0.82211 0.4598 0.0
N405 N 0.64102 0.85471 0.48798 0.0
C406 C 0.65398 0.83224 0.51616 0.0
C407 C 0.64029 0.8342 0.49635 0.0
C408 C 0.6551 0.86484 0.50316 0.0
N409 N 0.66331 0.85158 0.52041 0.0
O410 O 0.65712 0.87033 0.44699 0.0
H411 H 0.63095 0.82124 0.48844 0.0
H412 H 0.65975 0.88159 0.50112 0.0
O413 O 0.62541 0.84067 0.44339 0.0
C414 C 0.66588 0.88886 0.4489 0.0
O415 O 0.65562 0.90415 0.4609 0.0
N416 N 0.60081 0.86852 0.47415 0.0
C417 C 0.56286 0.89008 0.48813 0.0
C418 C 0.56347 0.8779 0.46651 0.0
C419 C 0.58256 0.86698 0.45998 0.0
C420 C 0.59955 0.87804 0.49653 0.0
C421 C 0.58062 0.88842 0.50408 0.0
H422 H 0.5835 0.85989 0.44201 0.0
H423 H 0.61387 0.87992 0.50765 0.0
H424 H 0.62813 0.8622 0.40346 0.0
H425 H 0.59933 0.92384 0.40245 0.0
H426 H 0.65693 0.81765 0.5265 0.0
H427 H 0.55024 0.87853 0.45352 0.0
H428 H 0.58071 0.8968 0.52139 0.0
C429 C 0.10984 0.0978 0.67855 0.0
C430 C 0.10329 0.09494 0.65478 0.0
N431 N 0.11963 0.10114 0.63997 0.0
N432 N 0.13033 0.10549 0.67882 0.0
C433 C 0.13578 0.10751 0.65508 0.0
H434 H 0.10013 0.09497 0.69465 0.0
Co435 Co 0.1458 0.11486 0.70636 0.0
C436 C 0.18973 0.0986 0.68726 0.0
O437 O 0.19178 0.08186 0.70178 0.0
N438 N 0.16061 0.1256 0.73384 0.0
C439 C 0.18279 0.13311 0.76476 0.0
C440 C 0.17937 0.11989 0.74482 0.0
C441 C 0.15297 0.14217 0.74746 0.0
N442 N 0.16615 0.14722 0.7663 0.0
O443 O 0.14474 0.14287 0.69359 0.0
H444 H 0.18985 0.1069 0.739 0.0
H445 H 0.13767 0.15013 0.74387 0.0
O446 O 0.17308 0.11081 0.68889 0.0
C447 C 0.12616 0.15176 0.69448 0.0
O448 O 0.11046 0.14214 0.70656 0.0
N449 N 0.14498 0.08655 0.71947 0.0
C450 C 0.11763 0.05209 0.73095 0.0
C451 C 0.13019 0.05176 0.70952 0.0
C452 C 0.14437 0.06891 0.70447 0.0
C453 C 0.13585 0.08534 0.74206 0.0
C454 C 0.12275 0.06788 0.74845 0.0
H455 H 0.1517 0.06968 0.6866 0.0
H456 H 0.13613 0.09907 0.75418 0.0
H457 H 0.15117 0.11397 0.64903 0.0
H458 H 0.08742 0.08949 0.64893 0.0
H459 H 0.1966 0.1325 0.77697 0.0
H460 H 0.12748 0.03986 0.69541 0.0
H461 H 0.11485 0.06819 0.76604 0.0
C462 C 0.91036 0.60801 0.92817 0.0
C463 C 0.91294 0.60188 0.90428 0.0
N464 N 0.90292 0.6165 0.88986 0.0
N465 N 0.89914 0.62668 0.92899 0.0
C466 C 0.89464 0.63133 0.90547 0.0
H467 H 0.91607 0.59929 0.944 0.0
Co468 Co 0.88929 0.6408 0.95706 0.0
C469 C 0.90307 0.68612 0.94066 0.0
O470 O 0.91891 0.68838 0.95651 0.0
N471 N 0.87823 0.65421 0.98546 0.0
C472 C 0.86846 0.67622 0.01567 0.0
C473 C 0.88169 0.6738 0.99563 0.0
C474 C 0.86305 0.64498 1.0 0.0
N475 N 0.85667 0.65806 0.01839 0.0
O476 O 0.86077 0.63847 0.94489 0.0
H477 H 0.89288 0.68581 0.98916 0.0
H478 H 0.8564 0.62906 0.99684 0.0
O479 O 0.89176 0.66878 0.94023 0.0
C480 C 0.85253 0.61969 0.94665 0.0
O481 O 0.86353 0.60446 0.95792 0.0
N482 N 0.91789 0.64115 0.9695 0.0
C483 C 0.95678 0.6199 0.97977 0.0
C484 C 0.95517 0.63374 0.95961 0.0
C485 C 0.93555 0.64439 0.95484 0.0
C486 C 0.92006 0.62982 0.99068 0.0
C487 C 0.93947 0.61926 0.99631 0.0
H488 H 0.9337 0.65248 0.93751 0.0
H489 H 0.90597 0.62646 1.00176 0.0
H490 H 0.88462 0.64485 0.90011 0.0
H491 H 0.92143 0.58755 0.89823 0.0
H492 H 0.86767 0.69028 0.02738 0.0
H493 H 0.96818 0.63463 0.94637 0.0
H494 H 0.93993 0.60858 0.01193 0.0
C495 C 0.39561 0.40915 0.17941 0.0
C496 C 0.40165 0.41212 0.15551 0.0
N497 N 0.38535 0.40518 0.14102 0.0
N498 N 0.37548 0.40062 0.18008 0.0
C499 C 0.3697 0.39829 0.15646 0.0
H500 H 0.40551 0.41234 0.1953 0.0
Co501 Co 0.36099 0.39044 0.20779 0.0
C502 C 0.3162 0.40717 0.19123 0.0
O503 O 0.31409 0.42322 0.20671 0.0
N504 N 0.34694 0.37914 0.23552 0.0
C505 C 0.32768 0.37406 0.26937 0.0
C506 C 0.33079 0.38728 0.24941 0.0
C507 C 0.3532 0.36095 0.2473 0.0
N508 N 0.34177 0.35745 0.26789 0.0
O509 O 0.36109 0.36281 0.19374 0.0
H510 H 0.32245 0.40232 0.24594 0.0
H511 H 0.36659 0.35089 0.2415 0.0
O512 O 0.33318 0.39534 0.19172 0.0
C513 C 0.37962 0.35377 0.19319 0.0
O514 O 0.39593 0.36287 0.20478 0.0
N515 N 0.36281 0.41818 0.22203 0.0
C516 C 0.38612 0.45474 0.23664 0.0
C517 C 0.37311 0.45522 0.21554 0.0
C518 C 0.36129 0.43678 0.2087 0.0
C519 C 0.37344 0.41829 0.24384 0.0
C520 C 0.38458 0.43656 0.2518 0.0
H521 H 0.35346 0.43658 0.19107 0.0
H522 H 0.37542 0.40351 0.25406 0.0
H523 H 0.35451 0.3911 0.15074 0.0
H524 H 0.41724 0.41807 0.14935 0.0
H525 H 0.31616 0.3766 0.28397 0.0
H526 H 0.37366 0.46879 0.20314 0.0
H527 H 0.39355 0.43562 0.26874 0.0
C528 C 0.09922 0.09488 0.41772 0.0
C529 C 0.11376 0.10783 0.40439 0.0
C530 C 0.09996 0.09439 0.44318 0.0
C531 C 0.11919 0.12504 0.49692 0.0
H532 H 0.11367 0.06988 0.52981 0.0
C533 C 0.13325 0.11589 0.60078 0.0
C534 C 0.11939 0.10186 0.61363 0.0
C535 C 0.13278 0.11672 0.5753 0.0
C536 C 0.11497 0.08547 0.52098 0.0
H537 H 0.14063 0.1304 0.4078 0.0
H538 H 0.14175 0.12967 0.4521 0.0
H539 H 0.11217 0.07133 0.48551 0.0
H540 H 0.0943 0.0775 0.60942 0.0
H541 H 0.0931 0.07931 0.56521 0.0
H542 H 0.12183 0.13922 0.53238 0.0
C543 C 0.12961 0.12004 0.44279 0.0
C544 C 0.11413 0.08629 0.49553 0.0
C545 C 0.12893 0.12047 0.41731 0.0
C546 C 0.10507 0.08866 0.60025 0.0
C547 C 0.10457 0.08951 0.5748 0.0
C548 C 0.11995 0.12424 0.52239 0.0
C549 C 0.11522 0.1069 0.45605 0.0
C550 C 0.1162 0.10609 0.48317 0.0
C551 C 0.11842 0.10355 0.56195 0.0
C552 C 0.11782 0.10444 0.53478 0.0
H553 H 0.08707 0.08522 0.40853 0.0
H554 H 0.08839 0.08436 0.45282 0.0
H555 H 0.12056 0.14059 0.488 0.0
H556 H 0.14433 0.1265 0.61035 0.0
H557 H 0.14385 0.12756 0.56606 0.0
C558 C 0.89266 0.63374 0.85048 0.0
C559 C 0.9006 0.6158 0.86356 0.0
C560 C 0.89017 0.63286 0.82513 0.0
C561 C 0.88683 0.59359 0.7736 0.0
H562 H 0.89965 0.6439 0.73405 0.0
C563 C 0.89919 0.58902 0.66952 0.0
C564 C 0.88904 0.60489 0.65516 0.0
C565 C 0.89927 0.59068 0.69491 0.0
C566 C 0.89579 0.62979 0.74489 0.0
H567 H 0.91218 0.58278 0.85946 0.0
H568 H 0.90868 0.58163 0.81571 0.0
H569 H 0.90264 0.64627 0.77831 0.0
H570 H 0.87117 0.63504 0.6562 0.0
H571 H 0.87146 0.63806 0.7007 0.0
H572 H 0.88059 0.57699 0.74006 0.0
C573 C 0.90383 0.59625 0.82508 0.0
C574 C 0.89745 0.63113 0.77029 0.0
C575 C 0.90614 0.59705 0.85038 0.0
C576 C 0.87895 0.62247 0.66679 0.0
C577 C 0.87928 0.62429 0.69223 0.0
C578 C 0.88541 0.5922 0.74823 0.0
C579 C 0.8957 0.61408 0.81206 0.0
C580 C 0.89316 0.61299 0.78501 0.0
C581 C 0.88943 0.60838 0.70656 0.0
C582 C 0.89002 0.61023 0.73357 0.0
H583 H 0.88839 0.6486 0.85967 0.0
H584 H 0.88365 0.64686 0.81584 0.0
H585 H 0.88288 0.57941 0.78425 0.0
H586 H 0.90693 0.5752 0.66111 0.0
H587 H 0.90737 0.57825 0.70544 0.0
C588 C 0.39902 0.41765 0.10097 0.0
C589 C 0.38535 0.4041 0.11468 0.0
C590 C 0.39945 0.41636 0.07555 0.0
C591 C 0.38543 0.38012 0.02387 0.0
H592 H 0.3916 0.43265 0.98603 0.0
C593 C 0.37813 0.38221 0.91827 0.0
C594 C 0.39306 0.39533 0.90566 0.0
C595 C 0.37695 0.38278 0.94375 0.0
C596 C 0.39008 0.4178 0.99632 0.0
H597 H 0.36144 0.3784 0.11204 0.0
H598 H 0.36176 0.37657 0.06775 0.0
H599 H 0.38955 0.4348 0.03024 0.0
H600 H 0.41894 0.41879 0.91035 0.0
H601 H 0.41675 0.41989 0.95455 0.0
H602 H 0.38581 0.36318 0.98979 0.0
C603 C 0.3724 0.38803 0.07672 0.0
C604 C 0.38893 0.41902 0.02172 0.0
C605 C 0.372 0.38929 0.10219 0.0
C606 C 0.40695 0.40878 0.91928 0.0
C607 C 0.40571 0.40941 0.9447 0.0
C608 C 0.38648 0.37892 0.99841 0.0
C609 C 0.38615 0.40154 0.06304 0.0
C610 C 0.38674 0.40019 0.03588 0.0
C611 C 0.3906 0.39654 0.95727 0.0
C612 C 0.38898 0.39773 0.98433 0.0
H613 H 0.40938 0.42939 0.10985 0.0
H614 H 0.41046 0.42684 0.06571 0.0
H615 H 0.38404 0.36525 0.03414 0.0
H616 H 0.36696 0.37185 0.90851 0.0
H617 H 0.36498 0.37281 0.95283 0.0
C618 C 0.59923 0.90527 0.35415 0.0
C619 C 0.61364 0.89234 0.36768 0.0
C620 C 0.6 0.90545 0.3287 0.0
C621 C 0.61889 0.87384 0.27568 0.0
H622 H 0.61355 0.9285 0.24168 0.0
C623 C 0.63175 0.88126 0.17153 0.0
C624 C 0.61743 0.89486 0.1587 0.0
C625 C 0.6318 0.88095 0.19702 0.0
C626 C 0.61483 0.91306 0.25085 0.0
H627 H 0.64037 0.86957 0.36478 0.0
H628 H 0.64157 0.86978 0.32048 0.0
H629 H 0.61238 0.92779 0.28602 0.0
H630 H 0.5922 0.91908 0.16287 0.0
H631 H 0.59194 0.91816 0.2071 0.0
H632 H 0.62118 0.85907 0.2405 0.0
C633 C 0.62948 0.8796 0.32959 0.0
C634 C 0.61416 0.91266 0.27629 0.0
C635 C 0.62876 0.87947 0.35505 0.0
C636 C 0.60327 0.90821 0.17204 0.0
C637 C 0.60331 0.90788 0.19749 0.0
C638 C 0.6195 0.87422 0.25021 0.0
C639 C 0.61517 0.89266 0.31611 0.0
C640 C 0.61611 0.89305 0.28902 0.0
C641 C 0.61756 0.89424 0.21033 0.0
C642 C 0.6174 0.89383 0.23746 0.0
H643 H 0.58715 0.91512 0.36318 0.0
H644 H 0.5885 0.91543 0.31886 0.0
H645 H 0.62018 0.85842 0.28491 0.0
H646 H 0.64274 0.87061 0.16194 0.0
H647 H 0.64315 0.8704 0.2063 0.0
C648 C 0.12374 0.37459 0.66322 0.0
C649 C 0.10872 0.38837 0.65166 0.0
C650 C 0.12407 0.37262 0.68865 0.0
C651 C 0.10518 0.39991 0.74532 0.0
H652 H 0.11247 0.34324 0.77436 0.0
C653 C 0.08114 0.38194 0.84448 0.0
C654 C 0.09509 0.36911 0.8587 0.0
C655 C 0.0848 0.38458 0.81956 0.0
C656 C 0.11069 0.35922 0.76655 0.0
H657 H 0.08263 0.41125 0.65815 0.0
H658 H 0.08279 0.40736 0.7021 0.0
H659 H 0.11517 0.34737 0.73023 0.0
H660 H 0.12382 0.34888 0.85778 0.0
H661 H 0.13022 0.35345 0.81402 0.0
H662 H 0.10018 0.41164 0.78157 0.0
C663 C 0.09454 0.39826 0.6916 0.0
C664 C 0.11227 0.36161 0.74123 0.0
C665 C 0.09424 0.40027 0.66625 0.0
C666 C 0.11287 0.35898 0.84736 0.0
C667 C 0.11642 0.36146 0.82229 0.0
C668 C 0.10348 0.39749 0.77056 0.0
C669 C 0.10941 0.38437 0.70318 0.0
C670 C 0.10922 0.38195 0.73024 0.0
C671 C 0.10245 0.37436 0.80812 0.0
C672 C 0.1059 0.37707 0.78146 0.0
H673 H 0.13503 0.36502 0.65268 0.0
H674 H 0.1359 0.36193 0.6969 0.0
H675 H 0.10325 0.4159 0.73762 0.0
H676 H 0.06746 0.39017 0.85268 0.0
H677 H 0.07358 0.39443 0.80916 0.0
C678 C 0.59282 0.6143 0.92698 0.0
C679 C 0.60438 0.62933 0.91284 0.0
C680 C 0.59821 0.61087 0.95138 0.0
C681 C 0.62439 0.63562 1.00461 0.0
H682 H 0.62698 0.57652 0.0279 0.0
C683 C 0.64747 0.61413 0.10456 0.0
C684 C 0.63571 0.59721 0.11546 0.0
C685 C 0.64536 0.6184 0.07959 0.0
C686 C 0.6261 0.59314 0.02182 0.0
H687 H 0.6305 0.65283 0.91346 0.0
H688 H 0.6399 0.64689 0.95634 0.0
H689 H 0.61995 0.58353 0.98501 0.0
H690 H 0.61208 0.57192 0.10866 0.0
H691 H 0.60824 0.57941 0.0655 0.0
H692 H 0.63002 0.64526 0.04158 0.0
C693 C 0.62665 0.63775 0.94839 0.0
C694 C 0.62213 0.59714 0.99718 0.0
C695 C 0.62139 0.64103 0.92381 0.0
C696 C 0.62174 0.58476 0.10082 0.0
C697 C 0.61956 0.58907 0.07598 0.0
C698 C 0.62822 0.63162 0.02938 0.0
C699 C 0.61523 0.62247 0.96238 0.0
C700 C 0.62092 0.61841 0.98833 0.0
C701 C 0.63138 0.60588 0.06495 0.0
C702 C 0.6288 0.61031 0.03837 0.0
H703 H 0.57981 0.60484 0.91905 0.0
H704 H 0.58894 0.59916 0.96171 0.0
H705 H 0.62343 0.65219 0.99836 0.0
H706 H 0.65852 0.62391 0.11525 0.0
H707 H 0.65491 0.63132 0.07171 0.0
C708 C 0.4298 0.12255 0.34278 0.0
C709 C 0.41486 0.13408 0.35712 0.0
C710 C 0.42668 0.12039 0.3177 0.0
C711 C 0.39974 0.1456 0.26511 0.0
H712 H 0.41129 0.09043 0.23417 0.0
C713 C 0.38735 0.13192 0.16137 0.0
C714 C 0.40318 0.11948 0.14928 0.0
C715 C 0.38716 0.13335 0.18683 0.0
C716 C 0.40821 0.10602 0.24244 0.0
H717 H 0.38494 0.15255 0.35623 0.0
H718 H 0.37946 0.14879 0.31224 0.0
H719 H 0.41383 0.09362 0.27829 0.0
H720 H 0.43098 0.09847 0.15487 0.0
H721 H 0.43101 0.10143 0.19893 0.0
H722 H 0.39456 0.15813 0.22922 0.0
C723 C 0.39362 0.14142 0.32052 0.0
C724 C 0.40962 0.10783 0.26778 0.0
C725 C 0.39665 0.14342 0.34573 0.0
C726 C 0.4187 0.10842 0.16339 0.0
C727 C 0.41853 0.10989 0.18879 0.0
C728 C 0.39844 0.14383 0.23971 0.0
C729 C 0.40859 0.12982 0.30623 0.0
C730 C 0.40567 0.12769 0.27941 0.0
C731 C 0.40278 0.12237 0.20089 0.0
C732 C 0.40293 0.12407 0.22801 0.0
H733 H 0.44386 0.11497 0.35101 0.0
H734 H 0.43865 0.11156 0.30721 0.0
H735 H 0.3968 0.16117 0.27349 0.0
H736 H 0.37525 0.14084 0.15121 0.0
H737 H 0.37465 0.14296 0.1955 0.0
C738 C 0.89949 0.85893 0.42125 0.0
C739 C 0.91608 0.87047 0.40939 0.0
C740 C 0.89577 0.8618 0.44622 0.0
C741 C 0.90462 0.90084 0.49608 0.0
H742 H 0.8978 0.85143 0.5388 0.0
C743 C 0.91236 0.90863 0.60013 0.0
C744 C 0.89909 0.89584 0.61517 0.0
C745 C 0.91248 0.90566 0.57491 0.0
C746 C 0.89931 0.86544 0.52711 0.0
H747 H 0.94152 0.8943 0.41442 0.0
H748 H 0.93513 0.89924 0.45781 0.0
H749 H 0.90148 0.84585 0.49496 0.0
H750 H 0.87536 0.86988 0.61517 0.0
H751 H 0.87516 0.86507 0.5711 0.0
H752 H 0.90244 0.92048 0.52803 0.0
C753 C 0.92495 0.88799 0.44786 0.0
C754 C 0.90146 0.86221 0.50197 0.0
C755 C 0.92879 0.88497 0.42303 0.0
C756 C 0.88565 0.88018 0.60421 0.0
C757 C 0.88574 0.87724 0.57891 0.0
C758 C 0.90232 0.90408 0.52113 0.0
C759 C 0.90839 0.87649 0.45976 0.0
C760 C 0.90451 0.87986 0.48623 0.0
C761 C 0.89925 0.88987 0.56394 0.0
C762 C 0.90001 0.88641 0.53705 0.0
H763 H 0.88952 0.84753 0.41129 0.0
H764 H 0.88283 0.85277 0.45487 0.0
H765 H 0.90652 0.9148 0.48438 0.0
H766 H 0.92272 0.92102 0.6078 0.0
H767 H 0.92333 0.91551 0.56407 0.0
C768 C 0.30222 0.0935 0.09988 0.0
C769 C 0.3174 0.10968 0.09399 0.0
C770 C 0.28578 0.09741 0.117 0.0
C771 C 0.25468 0.14149 0.14608 0.0
H772 H 0.24164 0.09879 0.19559 0.0
C773 C 0.19618 0.16055 0.22567 0.0
C774 C 0.18274 0.14397 0.2346 0.0
C775 C 0.21249 0.15613 0.20861 0.0
C776 C 0.24478 0.1108 0.1817 0.0
H777 H 0.32707 0.14274 0.1016 0.0
H778 H 0.29831 0.14958 0.13119 0.0
H779 H 0.26993 0.09149 0.1656 0.0
H780 H 0.17583 0.10971 0.23224 0.0
H781 H 0.2039 0.102 0.20211 0.0
H782 H 0.22937 0.16067 0.16174 0.0
C783 C 0.29908 0.13387 0.12251 0.0
C784 C 0.2611 0.10661 0.16452 0.0
C785 C 0.31565 0.12989 0.1056 0.0
C786 C 0.18604 0.12282 0.22598 0.0
C787 C 0.20223 0.11841 0.20871 0.0
C788 C 0.23823 0.1456 0.16309 0.0
C789 C 0.28395 0.11767 0.12847 0.0
C790 C 0.26634 0.12195 0.14656 0.0
C791 C 0.21573 0.135 0.19974 0.0
C792 C 0.23308 0.13038 0.18128 0.0
H793 H 0.30308 0.07773 0.09137 0.0
H794 H 0.27429 0.08464 0.12101 0.0
H795 H 0.25806 0.15353 0.13228 0.0
H796 H 0.19437 0.17696 0.23221 0.0
H797 H 0.22277 0.1693 0.20266 0.0
C798 C 0.87227 0.66277 0.47158 0.0
C799 C 0.85103 0.65883 0.47991 0.0
C800 C 0.8764 0.67909 0.45451 0.0
C801 C 0.85432 0.73029 0.43042 0.0
H802 H 0.89441 0.72011 0.37726 0.0
C803 C 0.87133 0.79559 0.35658 0.0
C804 C 0.89282 0.79741 0.3481 0.0
C805 C 0.86515 0.77825 0.37156 0.0
C806 C 0.88337 0.72339 0.39214 0.0
H807 H 0.81749 0.66915 0.47679 0.0
H808 H 0.82468 0.69764 0.44703 0.0
H809 H 0.88596 0.69093 0.40546 0.0
H810 H 0.92463 0.78231 0.34886 0.0
H811 H 0.91409 0.7526 0.37516 0.0
H812 H 0.85209 0.76289 0.41751 0.0
C813 C 0.83816 0.68807 0.45373 0.0
C814 C 0.87848 0.70657 0.40831 0.0
C815 C 0.834 0.67158 0.47062 0.0
C816 C 0.90789 0.7814 0.35485 0.0
C817 C 0.90178 0.7642 0.36989 0.0
C818 C 0.85935 0.7472 0.41436 0.0
C819 C 0.85943 0.69207 0.44548 0.0
C820 C 0.86401 0.70982 0.42776 0.0
C821 C 0.88033 0.76233 0.37854 0.0
C822 C 0.8741 0.74406 0.39507 0.0
H823 H 0.88574 0.65318 0.4782 0.0
H824 H 0.893 0.68182 0.44873 0.0
H825 H 0.84327 0.73344 0.44535 0.0
H826 H 0.85928 0.80761 0.35175 0.0
H827 H 0.84842 0.77729 0.37755 0.0
C828 C 0.32483 0.38046 0.72483 0.0
C829 C 0.32832 0.35931 0.73339 0.0
C830 C 0.30866 0.38476 0.70748 0.0
C831 C 0.25708 0.36347 0.68285 0.0
H832 H 0.26932 0.40033 0.62749 0.0
C833 C 0.19494 0.37368 0.6044 0.0
C834 C 0.1934 0.39387 0.59274 0.0
C835 C 0.21154 0.36952 0.62125 0.0
C836 C 0.26543 0.39026 0.643 0.0
H837 H 0.31725 0.32615 0.73052 0.0
H838 H 0.28898 0.33365 0.70041 0.0
H839 H 0.29769 0.3933 0.65751 0.0
H840 H 0.20816 0.42558 0.58994 0.0
H841 H 0.23668 0.4186 0.61973 0.0
H842 H 0.22476 0.36074 0.66884 0.0
C843 C 0.29881 0.34692 0.70708 0.0
C844 C 0.28179 0.38617 0.6602 0.0
C845 C 0.31516 0.34258 0.72419 0.0
C846 C 0.20891 0.40979 0.59841 0.0
C847 C 0.22541 0.40571 0.61546 0.0
C848 C 0.24065 0.36774 0.66583 0.0
C849 C 0.29535 0.36806 0.69848 0.0
C850 C 0.27786 0.37264 0.68029 0.0
C851 C 0.227 0.3855 0.62718 0.0
C852 C 0.24456 0.38113 0.64554 0.0
H853 H 0.33477 0.39368 0.73138 0.0
H854 H 0.30634 0.40124 0.70137 0.0
H855 H 0.2534 0.35322 0.6983 0.0
H856 H 0.18335 0.36098 0.60043 0.0
H857 H 0.21235 0.35362 0.62941 0.0
C858 C 0.67717 0.82888 0.97439 0.0
C859 C 0.65966 0.84111 0.98346 0.0
C860 C 0.67373 0.81265 0.95697 0.0
C861 C 0.63481 0.79415 0.90996 0.0
H862 H 0.66149 0.73799 0.91933 0.0
C863 C 0.60662 0.71925 0.85583 0.0
C864 C 0.62185 0.70332 0.84936 0.0
C865 C 0.6125 0.73655 0.87086 0.0
C866 C 0.65417 0.75366 0.91613 0.0
H867 H 0.62491 0.84616 0.98075 0.0
H868 H 0.61891 0.81797 0.95035 0.0
H869 H 0.66947 0.7673 0.94772 0.0
H870 H 0.65544 0.69336 0.85342 0.0
H871 H 0.66589 0.72386 0.87923 0.0
H872 H 0.61962 0.78071 0.87835 0.0
C873 C 0.63531 0.8209 0.95673 0.0
C874 C 0.65873 0.77047 0.9325 0.0
C875 C 0.63871 0.83695 0.97432 0.0
C876 C 0.64328 0.70534 0.85803 0.0
C877 C 0.64922 0.72277 0.87302 0.0
C878 C 0.6304 0.77743 0.89349 0.0
C879 C 0.65274 0.80842 0.94796 0.0
C880 C 0.64888 0.79085 0.9298 0.0
C881 C 0.63386 0.73857 0.87979 0.0
C882 C 0.63976 0.75682 0.8965 0.0
H883 H 0.69347 0.83151 0.98118 0.0
H884 H 0.68753 0.80344 0.95049 0.0
H885 H 0.62723 0.80975 0.90709 0.0
H886 H 0.58993 0.7182 0.84967 0.0
H887 H 0.60007 0.74807 0.87596 0.0
C888 C 0.18387 0.37033 0.02563 0.0
C889 C 0.16488 0.35993 0.03382 0.0
C890 C 0.2003 0.37635 0.04207 0.0
C891 C 0.2104 0.38628 0.10821 0.0
H892 H 0.27092 0.37952 0.0903 0.0
C893 C 0.28036 0.41582 0.17105 0.0
C894 C 0.29897 0.4027 0.17278 0.0
C895 C 0.26422 0.41148 0.15364 0.0
C896 C 0.25411 0.38139 0.09571 0.0
H897 H 0.1484 0.34813 0.06612 0.0
H898 H 0.17701 0.35805 0.09442 0.0
H899 H 0.24256 0.37006 0.06115 0.0
H900 H 0.31504 0.37462 0.15737 0.0
H901 H 0.2869 0.36694 0.12743 0.0
H902 H 0.2219 0.39702 0.14299 0.0
C903 C 0.17918 0.36182 0.07532 0.0
C904 C 0.2378 0.37621 0.07882 0.0
C905 C 0.1628 0.35583 0.05894 0.0
C906 C 0.301 0.38516 0.15659 0.0
C907 C 0.28488 0.38082 0.13923 0.0
C908 C 0.2267 0.39145 0.12509 0.0
C909 C 0.19819 0.37219 0.06718 0.0
C910 C 0.21568 0.37843 0.08487 0.0
C911 C 0.26621 0.39389 0.13749 0.0
C912 C 0.24881 0.38897 0.11916 0.0
H913 H 0.18622 0.37366 1.00647 0.0
H914 H 0.21458 0.38447 0.03509 0.0
H915 H 0.1936 0.38851 0.11349 0.0
H916 H 0.27826 0.42952 0.1831 0.0
H917 H 0.25026 0.42211 0.1527 0.0
C918 C 0.60317 0.78813 0.42468 0.0
C919 C 0.61684 0.80635 0.42532 0.0
C920 C 0.60654 0.77158 0.40765 0.0
C921 C 0.63459 0.75901 0.34897 0.0
H922 H 0.62544 0.69971 0.36925 0.0
C923 C 0.63951 0.6867 0.28104 0.0
C924 C 0.6491 0.66743 0.28948 0.0
C925 C 0.63511 0.70385 0.29709 0.0
C926 C 0.62825 0.71614 0.36325 0.0
H927 H 0.6448 0.82137 0.40824 0.0
H928 H 0.65088 0.79242 0.37887 0.0
H929 H 0.61929 0.72895 0.39803 0.0
H930 H 0.6612 0.6513 0.32189 0.0
H931 H 0.65412 0.6811 0.34943 0.0
H932 H 0.64416 0.74608 0.31437 0.0
C933 C 0.63731 0.79102 0.39131 0.0
C934 C 0.62443 0.73301 0.37974 0.0
C935 C 0.63391 0.80761 0.40833 0.0
C936 C 0.65408 0.66585 0.31447 0.0
C937 C 0.64971 0.68295 0.33045 0.0
C938 C 0.63845 0.7421 0.33246 0.0
C939 C 0.62372 0.7727 0.39075 0.0
C940 C 0.62758 0.75472 0.37291 0.0
C941 C 0.64012 0.70221 0.32207 0.0
C942 C 0.63545 0.72039 0.33939 0.0
H943 H 0.58977 0.78662 0.43734 0.0
H944 H 0.59548 0.75796 0.4076 0.0
H945 H 0.63697 0.77548 0.34287 0.0
H946 H 0.63557 0.68871 0.26197 0.0
H947 H 0.62753 0.71831 0.28992 0.0
C948 C 0.22585 0.09113 0.66717 0.0
C949 C 0.20666 0.10342 0.66861 0.0
C950 C 0.24175 0.09585 0.64965 0.0
C951 C 0.26039 0.13996 0.6083 0.0
H952 H 0.29362 0.09404 0.578 0.0
C953 C 0.3368 0.15773 0.55042 0.0
C954 C 0.3412 0.14475 0.52994 0.0
C955 C 0.31987 0.15259 0.56642 0.0
C956 C 0.28436 0.10709 0.58606 0.0
H957 H 0.18917 0.13027 0.65238 0.0
H958 H 0.21649 0.13815 0.62171 0.0
H959 H 0.26512 0.0851 0.60711 0.0
H960 H 0.33072 0.11612 0.51033 0.0
H961 H 0.30089 0.10748 0.53787 0.0
H962 H 0.27923 0.16192 0.58688 0.0
C963 C 0.21956 0.12511 0.63439 0.0
C964 C 0.26817 0.10196 0.60308 0.0
C965 C 0.20374 0.12046 0.65195 0.0
C966 C 0.32784 0.12663 0.52574 0.0
C967 C 0.31083 0.1215 0.54177 0.0
C968 C 0.27652 0.14508 0.59126 0.0
C969 C 0.23887 0.11296 0.63302 0.0
C970 C 0.25599 0.11832 0.61455 0.0
C971 C 0.30666 0.13435 0.56244 0.0
C972 C 0.28887 0.12875 0.57997 0.0
H973 H 0.22871 0.07793 0.67972 0.0
H974 H 0.25649 0.0863 0.64946 0.0
H975 H 0.25161 0.15307 0.61687 0.0
H976 H 0.34644 0.17196 0.5542 0.0
H977 H 0.31743 0.16278 0.58222 0.0
C978 C 0.88718 0.7002 0.90153 0.0
C979 C 0.89783 0.70412 0.92374 0.0
C980 C 0.88246 0.71721 0.88554 0.0
C981 C 0.89578 0.77571 0.87368 0.0
H982 H 0.84594 0.7717 0.83065 0.0
C983 C 0.86259 0.84754 0.81584 0.0
C984 C 0.86145 0.84319 0.79075 0.0
C985 C 0.86637 0.83079 0.83253 0.0
C986 C 0.85991 0.77301 0.84258 0.0
H987 H 0.91135 0.72911 0.94686 0.0
H988 H 0.90214 0.75884 0.91983 0.0
H989 H 0.85352 0.74241 0.8591 0.0
H990 H 0.86264 0.81791 0.76352 0.0
H991 H 0.86847 0.78852 0.79276 0.0
H992 H 0.90148 0.80682 0.85755 0.0
C993 C 0.89818 0.74259 0.91405 0.0
C994 C 0.86445 0.75611 0.8588 0.0
C995 C 0.90336 0.7255 0.92975 0.0
C996 C 0.86356 0.8217 0.78275 0.0
C997 C 0.86679 0.80491 0.79945 0.0
C998 C 0.89092 0.7928 0.85785 0.0
C999 C 0.88777 0.73876 0.89156 0.0
C1000 C 0.88259 0.75706 0.87451 0.0
C1001 C 0.86851 0.80931 0.82448 0.0
C1002 C 0.87305 0.79155 0.842 0.0
H1003 H 0.88282 0.6839 0.89627 0.0
H1004 H 0.8749 0.71332 0.86829 0.0
H1005 H 0.91017 0.77707 0.88491 0.0
H1006 H 0.86119 0.86397 0.82245 0.0
H1007 H 0.86758 0.8346 0.85174 0.0
C1008 C 0.66639 0.64835 0.7118 0.0
C1009 C 0.66894 0.64431 0.73688 0.0
C1010 C 0.68288 0.64318 0.69523 0.0
C1011 C 0.74204 0.63136 0.69101 0.0
H1012 H 0.72622 0.60881 0.62754 0.0
C1013 C 0.80489 0.6221 0.61291 0.0
C1014 C 0.80319 0.6039 0.59763 0.0
C1015 C 0.78874 0.6267 0.63015 0.0
C1016 C 0.731 0.61491 0.64524 0.0
H1017 H 0.69127 0.63172 0.76398 0.0
H1018 H 0.71981 0.62233 0.73506 0.0
H1019 H 0.69795 0.61681 0.65717 0.0
H1020 H 0.78309 0.5762 0.58875 0.0
H1021 H 0.75512 0.58406 0.61888 0.0
H1022 H 0.77514 0.62904 0.67921 0.0
C1023 C 0.70507 0.62974 0.72825 0.0
C1024 C 0.71471 0.61978 0.66218 0.0
C1025 C 0.68855 0.63492 0.74486 0.0
C1026 C 0.78492 0.59042 0.60009 0.0
C1027 C 0.76878 0.59501 0.61733 0.0
C1028 C 0.75835 0.62649 0.67405 0.0
C1029 C 0.70245 0.63375 0.70317 0.0
C1030 C 0.71996 0.62816 0.6853 0.0
C1031 C 0.77043 0.61322 0.63261 0.0
C1032 C 0.75307 0.61823 0.65087 0.0
H1033 H 0.65153 0.65531 0.70479 0.0
H1034 H 0.68031 0.6468 0.67616 0.0
H1035 H 0.74675 0.63796 0.7085 0.0
H1036 H 0.81869 0.63291 0.61154 0.0
H1037 H 0.79049 0.64103 0.6413 0.0
C1038 C 0.37896 0.1683 0.96271 0.0
C1039 C 0.35861 0.1654 0.97384 0.0
C1040 C 0.38244 0.18527 0.9463 0.0
C1041 C 0.35344 0.2267 0.90849 0.0
H1042 H 0.40983 0.25468 0.90896 0.0
C1043 C 0.37071 0.30777 0.85838 0.0
C1044 C 0.39009 0.3089 0.84486 0.0
C1045 C 0.3666 0.29018 0.87382 0.0
C1046 C 0.39404 0.24694 0.90846 0.0
H1047 H 0.32592 0.17817 0.97633 0.0
H1048 H 0.332 0.208 0.94817 0.0
H1049 H 0.40306 0.22425 0.93603 0.0
H1050 H 0.42045 0.29241 0.83728 0.0
H1051 H 0.41339 0.26195 0.86436 0.0
H1052 H 0.34437 0.24987 0.88123 0.0
C1053 C 0.34523 0.19687 0.9516 0.0
C1054 C 0.39015 0.22937 0.92393 0.0
C1055 C 0.3417 0.17972 0.96781 0.0
C1056 C 0.40534 0.29209 0.84736 0.0
C1057 C 0.40135 0.27466 0.863 0.0
C1058 C 0.35727 0.24445 0.89319 0.0
C1059 C 0.36573 0.20005 0.94074 0.0
C1060 C 0.36981 0.21888 0.92414 0.0
C1061 C 0.3819 0.27342 0.87637 0.0
C1062 C 0.37766 0.25473 0.89291 0.0
H1063 H 0.39225 0.15739 0.96674 0.0
H1064 H 0.3983 0.18676 0.93796 0.0
H1065 H 0.33768 0.21894 0.90774 0.0
H1066 H 0.3586 0.32042 0.85695 0.0
H1067 H 0.35155 0.28984 0.88403 0.0
C1068 C 0.83431 0.87741 0.23563 0.0
C1069 C 0.84067 0.85579 0.23909 0.0
C1070 C 0.81737 0.8826 0.21954 0.0
C1071 C 0.76833 0.86078 0.19037 0.0
H1072 H 0.77822 0.90426 0.14084 0.0
C1073 C 0.70612 0.87494 0.11267 0.0
C1074 C 0.7039 0.89582 0.10288 0.0
C1075 C 0.7226 0.87028 0.12952 0.0
C1076 C 0.7749 0.89235 0.15478 0.0
H1077 H 0.83382 0.82266 0.22891 0.0
H1078 H 0.80392 0.83167 0.20125 0.0
H1079 H 0.80669 0.8962 0.17034 0.0
H1080 H 0.71706 0.9283 0.1036 0.0
H1081 H 0.74511 0.92051 0.1336 0.0
H1082 H 0.7364 0.85727 0.17552 0.0
C1083 C 0.8122 0.84461 0.21078 0.0
C1084 C 0.79135 0.88767 0.17165 0.0
C1085 C 0.8294 0.83946 0.22649 0.0
C1086 C 0.71843 0.91198 0.11057 0.0
C1087 C 0.73468 0.90742 0.12773 0.0
C1088 C 0.75172 0.86572 0.17379 0.0
C1089 C 0.80611 0.86625 0.20694 0.0
C1090 C 0.78833 0.87172 0.18952 0.0
C1091 C 0.73713 0.88646 0.13743 0.0
C1092 C 0.75476 0.88148 0.15556 0.0
H1093 H 0.84278 0.89034 0.24494 0.0
H1094 H 0.81298 0.89941 0.21705 0.0
H1095 H 0.76543 0.84856 0.20411 0.0
H1096 H 0.69528 0.86206 0.10707 0.0
H1097 H 0.72406 0.85383 0.13602 0.0
C1098 C 0.11412 0.21635 0.33793 0.0
C1099 C 0.12018 0.19513 0.34422 0.0
C1100 C 0.11859 0.23369 0.35363 0.0
C1101 C 0.12429 0.24801 0.41687 0.0
H1102 H 0.15964 0.29645 0.3961 0.0
C1103 C 0.14803 0.31476 0.4853 0.0
C1104 C 0.15104 0.336 0.477 0.0
C1105 C 0.14533 0.29769 0.46885 0.0
C1106 C 0.14938 0.28333 0.4022 0.0
H1107 H 0.13559 0.17559 0.37208 0.0
H1108 H 0.14249 0.20576 0.39991 0.0
H1109 H 0.15217 0.2669 0.36783 0.0
H1110 H 0.15358 0.35612 0.44501 0.0
H1111 H 0.1477 0.32664 0.41606 0.0
H1112 H 0.12034 0.26453 0.45067 0.0
C1113 C 0.1346 0.20893 0.38263 0.0
C1114 C 0.14527 0.26629 0.38596 0.0
C1115 C 0.13066 0.19167 0.36667 0.0
C1116 C 0.15148 0.33983 0.45183 0.0
C1117 C 0.1482 0.32282 0.43528 0.0
C1118 C 0.12792 0.26524 0.43292 0.0
C1119 C 0.12871 0.23012 0.37621 0.0
C1120 C 0.13284 0.24839 0.39322 0.0
C1121 C 0.14491 0.30142 0.44351 0.0
C1122 C 0.14073 0.28315 0.426 0.0
H1123 H 0.10616 0.21962 0.32072 0.0
H1124 H 0.11382 0.24987 0.34829 0.0
H1125 H 0.11442 0.2345 0.42283 0.0
H1126 H 0.14791 0.31135 0.50464 0.0
H1127 H 0.14361 0.28155 0.47617 0.0
C1128 C 0.6811 0.8778 0.54825 0.0
C1129 C 0.67959 0.8568 0.53853 0.0
C1130 C 0.69715 0.88297 0.56545 0.0
C1131 C 0.75128 0.86615 0.5872 0.0
H1132 H 0.737 0.89921 0.64498 0.0
C1133 C 0.81432 0.87927 0.66411 0.0
C1134 C 0.81414 0.89892 0.67702 0.0
C1135 C 0.79776 0.87424 0.64752 0.0
C1136 C 0.74143 0.89026 0.62879 0.0
H1137 H 0.694 0.82485 0.53921 0.0
H1138 H 0.72207 0.83389 0.56905 0.0
H1139 H 0.7086 0.89048 0.61555 0.0
H1140 H 0.79635 0.92879 0.68232 0.0
H1141 H 0.76784 0.92036 0.65293 0.0
H1142 H 0.78413 0.86628 0.59994 0.0
C1143 C 0.71078 0.84635 0.56341 0.0
C1144 C 0.72506 0.88518 0.61194 0.0
C1145 C 0.69455 0.84111 0.54646 0.0
C1146 C 0.79695 0.91344 0.67284 0.0
C1147 C 0.78048 0.90851 0.65603 0.0
C1148 C 0.7677 0.87144 0.60388 0.0
C1149 C 0.71231 0.86735 0.57311 0.0
C1150 C 0.72975 0.87297 0.59098 0.0
C1151 C 0.78061 0.88882 0.64308 0.0
C1152 C 0.76304 0.88348 0.62504 0.0
H1153 H 0.66975 0.89022 0.54269 0.0
H1154 H 0.69794 0.89933 0.57243 0.0
H1155 H 0.75554 0.85701 0.57107 0.0
H1156 H 0.82721 0.86761 0.66693 0.0
H1157 H 0.79833 0.85874 0.6384 0.0
C1158 C 0.11111 0.27787 0.92166 0.0
C1159 C 0.12207 0.29781 0.92244 0.0
C1160 C 0.11786 0.26145 0.90581 0.0
C1161 C 0.14753 0.25279 0.8482 0.0
H1162 H 0.14594 0.19253 0.86754 0.0
C1163 C 0.1507 0.18273 0.77825 0.0
C1164 C 0.16296 0.16422 0.7841 0.0
C1165 C 0.1473 0.19908 0.79548 0.0
C1166 C 0.14667 0.20927 0.86186 0.0
H1167 H 0.14898 0.31597 0.90726 0.0
H1168 H 0.16078 0.28728 0.87959 0.0
H1169 H 0.13779 0.22065 0.89736 0.0
H1170 H 0.18123 0.14858 0.81288 0.0
H1171 H 0.17538 0.17715 0.84293 0.0
H1172 H 0.15639 0.24142 0.81269 0.0
C1173 C 0.14686 0.28439 0.8912 0.0
C1174 C 0.14178 0.22542 0.87893 0.0
C1175 C 0.14021 0.30078 0.90722 0.0
C1176 C 0.17183 0.16262 0.80766 0.0
C1177 C 0.1683 0.17893 0.82498 0.0
C1178 C 0.15229 0.23664 0.8311 0.0
C1179 C 0.13567 0.26455 0.89015 0.0
C1180 C 0.14198 0.24739 0.8723 0.0
C1181 C 0.15595 0.19738 0.81913 0.0
C1182 C 0.15177 0.21465 0.83763 0.0
H1183 H 0.09706 0.275 0.93306 0.0
H1184 H 0.10868 0.24652 0.90533 0.0
H1185 H 0.14768 0.2695 0.84235 0.0
H1186 H 0.14384 0.1847 0.76024 0.0
H1187 H 0.13754 0.21292 0.79036 0.0
C1188 C 0.82794 0.6709 0.04656 0.0
C1189 C 0.84018 0.65385 0.03656 0.0
C1190 C 0.81184 0.66686 0.064 0.0
C1191 C 0.79468 0.62706 0.11018 0.0
H1192 H 0.73842 0.65487 0.10482 0.0
C1193 C 0.72199 0.60097 0.16987 0.0
C1194 C 0.70672 0.61654 0.17729 0.0
C1195 C 0.73859 0.60627 0.15354 0.0
C1196 C 0.75413 0.64722 0.1069 0.0
H1197 H 0.84516 0.6192 0.03736 0.0
H1198 H 0.81714 0.61215 0.06789 0.0
H1199 H 0.76654 0.66256 0.07477 0.0
H1200 H 0.69727 0.65013 0.17356 0.0
H1201 H 0.72663 0.65959 0.14558 0.0
H1202 H 0.78254 0.61194 0.14243 0.0
C1203 C 0.82002 0.62866 0.0622 0.0
C1204 C 0.77025 0.65158 0.08956 0.0
C1205 C 0.83595 0.63267 0.04454 0.0
C1206 C 0.70875 0.63772 0.16826 0.0
C1207 C 0.7255 0.64308 0.15201 0.0
C1208 C 0.77866 0.62285 0.12765 0.0
C1209 C 0.80772 0.6457 0.07212 0.0
C1210 C 0.79068 0.64142 0.09086 0.0
C1211 C 0.74059 0.62737 0.14424 0.0
C1212 C 0.75804 0.6327 0.12618 0.0
H1213 H 0.83059 0.68737 0.04065 0.0
H1214 H 0.80279 0.68038 0.07137 0.0
H1215 H 0.81035 0.61923 0.11197 0.0
H1216 H 0.72088 0.58444 0.17624 0.0
H1217 H 0.74954 0.59357 0.14775 0.0
C1218 C 0.34981 0.31918 0.2773 0.0
C1219 C 0.34497 0.34021 0.28525 0.0
C1220 C 0.35327 0.30247 0.29409 0.0
C1221 C 0.34729 0.28867 0.36071 0.0
H1222 H 0.38666 0.24219 0.34349 0.0
C1223 C 0.38516 0.2274 0.4296 0.0
C1224 C 0.38321 0.20543 0.42337 0.0
C1225 C 0.37899 0.24358 0.41311 0.0
C1226 C 0.37551 0.25501 0.34848 0.0
H1227 H 0.34032 0.36032 0.31702 0.0
H1228 H 0.3474 0.33165 0.34639 0.0
H1229 H 0.37956 0.27097 0.31433 0.0
H1230 H 0.3733 0.18325 0.39486 0.0
H1231 H 0.36316 0.21155 0.3658 0.0
H1232 H 0.34429 0.27295 0.39544 0.0
C1233 C 0.3477 0.32762 0.32722 0.0
C1234 C 0.37126 0.27152 0.33168 0.0
C1235 C 0.34374 0.34419 0.31038 0.0
C1236 C 0.37482 0.20001 0.40031 0.0
C1237 C 0.36915 0.21619 0.38361 0.0
C1238 C 0.35196 0.27238 0.3777 0.0
C1239 C 0.35252 0.30641 0.3194 0.0
C1240 C 0.35701 0.28865 0.33744 0.0
C1241 C 0.37125 0.23815 0.3898 0.0
C1242 C 0.36605 0.25534 0.37173 0.0
H1243 H 0.3506 0.31561 0.25802 0.0
H1244 H 0.35634 0.28641 0.28709 0.0
H1245 H 0.33586 0.30114 0.36588 0.0
H1246 H 0.3916 0.23209 0.4472 0.0
H1247 H 0.38087 0.26037 0.41831 0.0
C1248 C 0.02573 0.09732 0.2865 0.0
C1249 C 0.0472 0.09459 0.27816 0.0
C1250 C 0.01058 0.08042 0.28464 0.0
C1251 C 0.99969 0.02853 0.25297 0.0
H1252 H 0.96873 0.01297 0.31181 0.0
C1253 C 0.96026 0.94438 0.26581 0.0
C1254 C 0.94102 0.94279 0.27952 0.0
C1255 C 0.97133 0.9641 0.26388 0.0
C1256 C 0.9769 0.01724 0.29504 0.0
H1257 H 0.06926 0.07145 0.26138 0.0
H1258 H 0.04289 0.04275 0.25748 0.0
H1259 H 0.99049 0.04587 0.31096 0.0
H1260 H 0.9184 0.96107 0.30184 0.0
H1261 H 0.9371 0.99538 0.29763 0.0
H1262 H 0.98624 0.99992 0.23702 0.0
C1263 C 0.03767 0.058 0.26521 0.0
C1264 C 0.98939 0.03615 0.29459 0.0
C1265 C 0.05282 0.07468 0.26734 0.0
C1266 C 0.93296 0.9616 0.29079 0.0
C1267 C 0.94391 0.98131 0.28872 0.0
C1268 C 0.98706 0.00972 0.25334 0.0
C1269 C 0.01648 0.0605 0.27415 0.0
C1270 C 1.00123 0.04182 0.27369 0.0
C1271 C 0.96341 0.98282 0.2755 0.0
C1272 C 0.97576 0.00361 0.27451 0.0
H1273 H 0.02065 0.11239 0.29474 0.0
H1274 H 0.99428 0.08287 0.29155 0.0
H1275 H 0.00843 0.0326 0.23649 0.0
H1276 H 0.9669 0.93037 0.25662 0.0
H1277 H 0.9864 0.96451 0.25375 0.0
C1278 C 0.07888 0.4781 0.55144 0.0
C1279 C 0.08153 0.45929 0.5372 0.0
C1280 C 0.05871 0.48868 0.55254 0.0
C1281 C 0.00808 0.49778 0.51992 0.0
H1282 H 0.97928 0.49955 0.58262 0.0
C1283 C 0.91778 0.52144 0.5263 0.0
C1284 C 0.91118 0.53375 0.54645 0.0
C1285 C 0.93833 0.51171 0.52593 0.0
C1286 C 0.98712 0.49959 0.56499 0.0
H1287 H 0.0642 0.43727 0.51289 0.0
H1288 H 0.03017 0.4565 0.51368 0.0
H1289 H 0.01672 0.48678 0.57991 0.0
H1290 H 0.92078 0.5454 0.58207 0.0
H1291 H 0.95668 0.52916 0.58122 0.0
H1292 H 0.97902 0.51108 0.50488 0.0
C1293 C 0.04371 0.46288 0.52407 0.0
C1294 C 0.00861 0.49224 0.56351 0.0
C1295 C 0.06354 0.45201 0.52344 0.0
C1296 C 0.92524 0.53556 0.56652 0.0
C1297 C 0.94592 0.52624 0.56597 0.0
C1298 C 0.98679 0.50554 0.52143 0.0
C1299 C 0.04096 0.48103 0.53895 0.0
C1300 C 0.01917 0.49105 0.54093 0.0
C1301 C 0.95299 0.51455 0.54545 0.0
C1302 C 0.97583 0.5063 0.54395 0.0
H1303 H 0.0922 0.48453 0.56208 0.0
H1304 H 0.05695 0.50277 0.56409 0.0
H1305 H 0.01593 0.49701 0.50229 0.0
H1306 H 0.90727 0.51989 0.51055 0.0
H1307 H 0.94284 0.50236 0.51007 0.0
C1308 C 0.48431 0.40583 0.78835 0.0
C1309 C 0.46292 0.40917 0.77999 0.0
C1310 C 0.49995 0.42225 0.78644 0.0
C1311 C 0.51217 0.47388 0.75484 0.0
H1312 H 0.54405 0.48821 0.81356 0.0
C1313 C 0.55309 0.55708 0.76884 0.0
C1314 C 0.57256 0.55816 0.78223 0.0
C1315 C 0.54176 0.53755 0.76659 0.0
C1316 C 0.53562 0.48426 0.79683 0.0
H1317 H 0.44152 0.43282 0.76307 0.0
H1318 H 0.46871 0.46077 0.75916 0.0
H1319 H 0.52137 0.45594 0.81261 0.0
H1320 H 0.5954 0.53921 0.80355 0.0
H1321 H 0.57613 0.50519 0.7989 0.0
H1322 H 0.52621 0.50226 0.73908 0.0
C1323 C 0.47349 0.44539 0.76693 0.0
C1324 C 0.5226 0.46572 0.79631 0.0
C1325 C 0.45787 0.42917 0.76907 0.0
C1326 C 0.58063 0.53904 0.79281 0.0
C1327 C 0.56938 0.51952 0.79046 0.0
C1328 C 0.52529 0.49235 0.75529 0.0
C1329 C 0.49462 0.4423 0.7759 0.0
C1330 C 0.51041 0.46052 0.77546 0.0
C1331 C 0.54964 0.51854 0.77759 0.0
C1332 C 0.53691 0.49801 0.77644 0.0
H1333 H 0.48893 0.39065 0.79667 0.0
H1334 H 0.51618 0.41933 0.79336 0.0
H1335 H 0.50318 0.47016 0.73839 0.0
H1336 H 0.54648 0.57136 0.76017 0.0
H1337 H 0.52651 0.53752 0.75674 0.0
C1338 C 0.43005 0.02591 0.05326 0.0
C1339 C 0.42753 0.04424 0.03825 0.0
C1340 C 0.44994 0.01485 0.05427 0.0
C1341 C 0.49999 0.00368 0.02104 0.0
H1342 H 0.52861 1.00142 0.08389 0.0
C1343 C 0.58934 0.97633 0.02862 0.0
C1344 C 0.59534 0.96415 0.0491 0.0
C1345 C 0.56914 0.98675 0.02776 0.0
C1346 C 0.5208 1.00152 0.06622 0.0
H1347 H 0.44462 0.06479 0.01228 0.0
H1348 H 0.47827 0.04475 0.01307 0.0
H1349 H 0.49174 0.01563 0.08086 0.0
H1350 H 0.58494 0.95329 0.08473 0.0
H1351 H 0.54965 0.97071 0.08303 0.0
H1352 H 0.52851 0.98904 1.00631 0.0
C1353 C 0.46485 0.03912 0.02414 0.0
C1354 C 0.49965 0.00971 0.06455 0.0
C1355 C 0.44527 0.05048 0.02355 0.0
C1356 C 0.58098 0.96302 0.06893 0.0
C1357 C 0.56065 0.97304 0.0679 0.0
C1358 C 0.52096 0.99507 0.02275 0.0
C1359 C 0.46755 0.02151 0.03986 0.0
C1360 C 0.48914 0.01104 0.04192 0.0
C1361 C 0.55423 0.98477 0.04713 0.0
C1362 C 0.53181 0.99405 0.04534 0.0
H1363 H 0.41686 0.02025 0.06459 0.0
H1364 H 0.45162 1.00116 0.06643 0.0
H1365 H 0.49218 0.0045 1.00337 0.0
H1366 H 0.6001 0.97738 0.01305 0.0
H1367 H 0.56513 0.99605 0.01169 0.0
C1368 C 0.04578 0.445 0.9705 0.0
C1369 C 0.06246 0.44014 0.98707 0.0
C1370 C 0.03529 0.46502 0.9712 0.0
C1371 C 0.04127 0.52119 0.9957 0.0
H1372 H 0.98143 0.52556 0.97408 0.0
C1373 C 0.98396 0.59721 1.0028 0.0
C1374 C 0.9737 0.60278 0.98076 0.0
C1375 C 0.99669 0.57845 1.00441 0.0
C1376 C 0.99818 0.52456 0.98009 0.0
H1377 H 0.08087 0.45221 0.01782 0.0
H1378 H 0.06188 0.48686 0.01988 0.0
H1379 H 0.99853 0.4902 0.97687 0.0
H1380 H 0.96909 0.59323 0.94309 0.0
H1381 H 0.99099 0.56046 0.94608 0.0
H1382 H 0.0403 0.55577 0.99969 0.0
C1383 C 0.05731 0.47551 1.00577 0.0
C1384 C 0.0081 0.50429 0.98155 0.0
C1385 C 0.0681 0.45557 1.00476 0.0
C1386 C 0.97709 0.58964 0.9602 0.0
C1387 C 0.98942 0.57075 0.96195 0.0
C1388 C 0.03114 0.54148 0.9947 0.0
C1389 C 0.0409 0.48065 0.9888 0.0
C1390 C 0.02993 0.50227 0.98895 0.0
C1391 C 0.99893 0.56472 0.98418 0.0
C1392 C 0.00962 0.54334 0.98648 0.0
H1393 H 0.04139 0.4336 0.95635 0.0
H1394 H 0.02319 0.46839 0.9574 0.0
H1395 H 0.05816 0.52046 1.00117 0.0
H1396 H 0.9815 0.60696 0.01895 0.0
H1397 H 1.00383 0.57409 0.02177 0.0
C1398 C 0.40134 0.49285 0.23355 0.0
C1399 C 0.4036 0.47116 0.24094 0.0
C1400 C 0.41878 0.50737 0.23572 0.0
C1401 C 0.47115 0.5158 0.26758 0.0
H1402 H 0.488 0.54782 0.21 0.0
C1403 C 0.55698 0.55255 0.25678 0.0
C1404 C 0.55933 0.57199 0.24376 0.0
C1405 C 0.53678 0.54218 0.25814 0.0
C1406 C 0.48338 0.53935 0.22644 0.0
H1407 H 0.42658 0.44797 0.25605 0.0
H1408 H 0.45618 0.47326 0.26059 0.0
H1409 H 0.45426 0.52717 0.20988 0.0
H1410 H 0.54191 0.59571 0.22207 0.0
H1411 H 0.50676 0.57821 0.22534 0.0
H1412 H 0.5002 0.52783 0.28419 0.0
C1413 C 0.44087 0.47912 0.2534 0.0
C1414 C 0.46399 0.5275 0.22632 0.0
C1415 C 0.42368 0.46461 0.25093 0.0
C1416 C 0.54079 0.58097 0.2326 0.0
C1417 C 0.52059 0.5707 0.23413 0.0
C1418 C 0.49042 0.5278 0.26779 0.0
C1419 C 0.43875 0.50059 0.2456 0.0
C1420 C 0.45788 0.51527 0.24673 0.0
C1421 C 0.51833 0.55102 0.24666 0.0
C1422 C 0.49702 0.53944 0.24707 0.0
H1423 H 0.38618 0.4986 0.22591 0.0
H1424 H 0.41666 0.52389 0.22963 0.0
H1425 H 0.46673 0.50672 0.28369 0.0
H1426 H 0.57075 0.54522 0.26586 0.0
H1427 H 0.53579 0.52693 0.26774 0.0
C1428 C 0.5517 0.92696 0.5027 0.0
C1429 C 0.54585 0.907 0.49218 0.0
C1430 C 0.53677 0.94385 0.50444 0.0
C1431 C 0.48837 0.96562 0.47472 0.0
H1432 H 0.48664 0.00338 0.5311 0.0
C1433 C 0.43278 0.0409 0.47759 0.0
C1434 C 0.44156 0.05994 0.48767 0.0
C1435 C 0.44352 0.0211 0.48004 0.0
C1436 C 0.48705 0.99312 0.51512 0.0
H1437 H 0.51917 0.8893 0.47569 0.0
H1438 H 0.49311 0.91913 0.47835 0.0
H1439 H 0.50836 0.97042 0.53236 0.0
H1440 H 0.46843 0.07273 0.50883 0.0
H1441 H 0.48747 0.03836 0.51249 0.0
H1442 H 0.46762 0.98859 0.45716 0.0
C1443 C 0.50942 0.9215 0.48528 0.0
C1444 C 0.49943 0.97417 0.51589 0.0
C1445 C 0.52438 0.90441 0.48375 0.0
C1446 C 0.46126 0.05852 0.50059 0.0
C1447 C 0.47206 0.03869 0.50295 0.0
C1448 C 0.47606 0.98464 0.47389 0.0
C1449 C 0.51554 0.94148 0.49546 0.0
C1450 C 0.5005 0.96035 0.49558 0.0
C1451 C 0.46343 0.01974 0.49252 0.0
C1452 C 0.47547 0.99882 0.49397 0.0
H1453 H 0.56817 0.93004 0.50871 0.0
H1454 H 0.54218 0.95914 0.51193 0.0
H1455 H 0.48908 0.9555 0.45864 0.0
H1456 H 0.41781 0.04133 0.46721 0.0
H1457 H 0.43621 0.00685 0.47202 0.0
C1458 C 0.07932 0.0474 0.74655 0.0
C1459 C 0.09707 0.03909 0.73317 0.0
C1460 C 0.05914 0.03715 0.74631 0.0
C1461 C 0.02302 0.0085 0.70774 0.0
H1462 H 0.99312 0.99044 0.76639 0.0
C1463 C 0.93884 0.9668 0.70469 0.0
C1464 C 0.92502 0.96849 0.72493 0.0
C1465 C 0.95959 0.97598 0.70517 0.0
C1466 C 1.00096 0.99579 0.74983 0.0
H1467 H 0.10693 0.01254 0.70965 0.0
H1468 H 0.07111 0.99545 0.70823 0.0
H1469 H 0.03039 0.00358 0.76895 0.0
H1470 H 0.9215 0.98205 0.761 0.0
H1471 H 0.95713 0.99944 0.76134 0.0
H1472 H 0.99347 1.00199 0.68864 0.0
C1473 C 0.07333 0.00987 0.71914 0.0
C1474 C 0.02246 0.00301 0.75133 0.0
C1475 C 0.09383 0.01981 0.7199 0.0
C1476 C 0.93184 0.98063 0.74512 0.0
C1477 C 0.95244 0.99025 0.74541 0.0
C1478 C 1.00134 1.00174 0.70627 0.0
C1479 C 0.05581 0.01863 0.73219 0.0
C1480 C 0.03368 0.00937 0.73031 0.0
C1481 C 0.96695 0.98742 0.72579 0.0
C1482 C 0.98994 0.99527 0.72731 0.0
H1483 H 0.08043 0.06249 0.7564 0.0
H1484 H 0.04579 0.04434 0.7563 0.0
H1485 H 0.03126 0.01371 0.69133 0.0
H1486 H 0.93418 0.95707 0.68912 0.0
H1487 H 0.9702 0.97306 0.68982 0.0
C1488 C 0.3305 0.11343 0.43057 0.0
C1489 C 0.34885 0.10164 0.42325 0.0
C1490 C 0.30985 0.1072 0.42307 0.0
C1491 C 0.28358 0.081 0.37208 0.0
H1492 H 0.23209 0.09231 0.41075 0.0
C1493 C 0.19729 0.08496 0.33076 0.0
C1494 C 0.18649 0.10432 0.33649 0.0
C1495 C 0.2161 0.07907 0.34331 0.0
C1496 C 0.24633 0.08892 0.39982 0.0
H1497 H 0.35992 0.07346 0.40324 0.0
H1498 H 0.32358 0.0626 0.38992 0.0
H1499 H 0.26754 0.0903 0.43064 0.0
H1500 H 0.18653 0.1325 0.36 0.0
H1501 H 0.21943 0.1222 0.3819 0.0
H1502 H 0.26242 0.08046 0.34115 0.0
C1503 C 0.32531 0.07673 0.40142 0.0
C1504 C 0.26657 0.08775 0.41115 0.0
C1505 C 0.34607 0.08295 0.40903 0.0
C1506 C 0.19464 0.11758 0.3551 0.0
C1507 C 0.21327 0.11155 0.36782 0.0
C1508 C 0.26331 0.082 0.36078 0.0
C1509 C 0.30706 0.08905 0.40803 0.0
C1510 C 0.28548 0.0848 0.39722 0.0
C1511 C 0.22418 0.09229 0.36198 0.0
C1512 C 0.24469 0.08691 0.37444 0.0
H1513 H 0.33205 0.12791 0.44152 0.0
H1514 H 0.29618 0.11728 0.4281 0.0
H1515 H 0.29788 0.07887 0.36084 0.0
H1516 H 0.19131 0.07443 0.31649 0.0
H1517 H 0.22429 0.06417 0.33849 0.0
C1518 C 0.90636 0.67736 0.59322 0.0
C1519 C 0.88795 0.67296 0.57907 0.0
C1520 C 0.90842 0.69722 0.6049 0.0
C1521 C 0.8745 0.74324 0.62504 0.0
H1522 H 0.93068 0.76778 0.641 0.0
C1523 C 0.88082 0.8138 0.69157 0.0
C1524 C 0.89655 0.82956 0.68685 0.0
C1525 C 0.88111 0.79437 0.67878 0.0
C1526 C 0.91483 0.76136 0.63643 0.0
H1527 H 0.85793 0.68577 0.56451 0.0
H1528 H 0.86214 0.72115 0.58349 0.0
H1529 H 0.92877 0.73623 0.61494 0.0
H1530 H 0.92487 0.83791 0.6655 0.0
H1531 H 0.92471 0.80457 0.64199 0.0
H1532 H 0.86045 0.76915 0.64505 0.0
C1533 C 0.8745 0.70903 0.5867 0.0
C1534 C 0.91375 0.74301 0.62177 0.0
C1535 C 0.87214 0.68891 0.57564 0.0
C1536 C 0.91277 0.8257 0.66954 0.0
C1537 C 0.91269 0.80657 0.6562 0.0
C1538 C 0.87555 0.76189 0.63911 0.0
C1539 C 0.89236 0.7132 0.60204 0.0
C1540 C 0.89357 0.73357 0.61615 0.0
C1541 C 0.8967 0.79077 0.66047 0.0
C1542 C 0.89573 0.77102 0.64527 0.0
H1543 H 0.91863 0.66507 0.59623 0.0
H1544 H 0.92218 0.69963 0.61689 0.0
H1545 H 0.85867 0.73625 0.62154 0.0
H1546 H 0.86829 0.81655 0.70507 0.0
H1547 H 0.86895 0.78233 0.68309 0.0
C1548 C 0.17791 0.38912 0.93334 0.0
C1549 C 0.15954 0.40055 0.92534 0.0
C1550 C 0.19854 0.39497 0.92542 0.0
C1551 C 0.22419 0.41938 0.87271 0.0
H1552 H 0.27636 0.40882 0.9106 0.0
C1553 C 0.31006 0.41663 0.83036 0.0
C1554 C 0.32138 0.39756 0.83603 0.0
C1555 C 0.29118 0.42206 0.843 0.0
C1556 C 0.26191 0.41197 0.89988 0.0
H1557 H 0.14842 0.42791 0.90399 0.0
H1558 H 0.18469 0.43824 0.89015 0.0
H1559 H 0.24127 0.41113 0.93114 0.0
H1560 H 0.32214 0.36935 0.85946 0.0
H1561 H 0.28911 0.37885 0.88154 0.0
H1562 H 0.24482 0.41957 0.84139 0.0
C1563 C 0.18301 0.42457 0.90232 0.0
C1564 C 0.24188 0.41329 0.91158 0.0
C1565 C 0.16229 0.41868 0.91027 0.0
C1566 C 0.31362 0.38406 0.85461 0.0
C1567 C 0.29492 0.38962 0.86743 0.0
C1568 C 0.24426 0.41826 0.86105 0.0
C1569 C 0.20127 0.41243 0.90937 0.0
C1570 C 0.22272 0.41608 0.89798 0.0
C1571 C 0.28355 0.40864 0.8617 0.0
C1572 C 0.26313 0.41369 0.87445 0.0
H1573 H 0.17636 0.37515 0.9451 0.0
H1574 H 0.2122 0.38506 0.9309 0.0
H1575 H 0.20971 0.42134 0.86169 0.0
H1576 H 0.31573 0.42734 0.81613 0.0
H1577 H 0.28263 0.43678 0.83828 0.0
C1578 C 0.59991 0.81706 0.08776 0.0
C1579 C 0.621 0.82423 0.08231 0.0
C1580 C 0.59675 0.79731 0.09939 0.0
C1581 C 0.62636 0.75794 0.13733 0.0
H1582 H 0.57712 0.72094 0.12297 0.0
C1583 C 0.61417 0.68051 0.19118 0.0
C1584 C 0.60886 0.66216 0.17746 0.0
C1585 C 0.6119 0.70103 0.18112 0.0
C1586 C 0.59101 0.73105 0.1271 0.0
H1587 H 0.65524 0.81611 0.08356 0.0
H1588 H 0.64973 0.78117 0.10298 0.0
H1589 H 0.58192 0.75443 0.10032 0.0
H1590 H 0.59618 0.65055 0.14304 0.0
H1591 H 0.5932 0.68633 0.1249 0.0
H1592 H 0.63625 0.73414 0.16299 0.0
C1593 C 0.63566 0.7911 0.09909 0.0
C1594 C 0.59363 0.75035 0.11431 0.0
C1595 C 0.63883 0.81101 0.08781 0.0
C1596 C 0.60025 0.66457 0.15398 0.0
C1597 C 0.59846 0.68508 0.14367 0.0
C1598 C 0.62392 0.73856 0.14982 0.0
C1599 C 0.61462 0.78425 0.10548 0.0
C1600 C 0.61146 0.7639 0.11916 0.0
C1601 C 0.60487 0.70349 0.1569 0.0
C1602 C 0.60629 0.72481 0.14479 0.0
H1603 H 0.58588 0.82704 0.08382 0.0
H1604 H 0.58037 0.79263 0.10429 0.0
H1605 H 0.64002 0.76822 0.1419 0.0
H1606 H 0.62055 0.67899 0.20948 0.0
H1607 H 0.61637 0.71491 0.19205 0.0
C1608 C 0.68589 0.61755 0.83811 0.0
C1609 C 0.66857 0.60449 0.84585 0.0
C1610 C 0.70693 0.61347 0.84616 0.0
C1611 C 0.73477 0.5903 0.89847 0.0
H1612 H 0.78592 0.60456 0.86049 0.0
C1613 C 0.82116 0.59497 0.93964 0.0
C1614 C 0.83196 0.61443 0.93441 0.0
C1615 C 0.80213 0.58951 0.92726 0.0
C1616 C 0.77176 0.60044 0.87124 0.0
H1617 H 0.65984 0.57612 0.86691 0.0
H1618 H 0.69681 0.56887 0.88087 0.0
H1619 H 0.75079 0.60092 0.84019 0.0
H1620 H 0.83157 0.64334 0.91207 0.0
H1621 H 0.79829 0.63377 0.89044 0.0
H1622 H 0.75572 0.59035 0.92959 0.0
C1623 C 0.69398 0.58246 0.86886 0.0
C1624 C 0.7517 0.59836 0.85967 0.0
C1625 C 0.67286 0.58659 0.86082 0.0
C1626 C 0.82348 0.62831 0.91657 0.0
C1627 C 0.80461 0.62273 0.90401 0.0
C1628 C 0.75488 0.5922 0.90999 0.0
C1629 C 0.71114 0.59617 0.86205 0.0
C1630 C 0.73288 0.59406 0.87331 0.0
C1631 C 0.7938 0.60329 0.90925 0.0
C1632 C 0.77336 0.59802 0.89658 0.0
H1633 H 0.68314 0.63141 0.82645 0.0
H1634 H 0.71971 0.62454 0.84084 0.0
H1635 H 0.72055 0.58721 0.90953 0.0
H1636 H 0.82739 0.58396 0.9533 0.0
H1637 H 0.79403 0.57445 0.93158 0.0
C1638 C 0.37521 0.19838 0.06967 0.0
C1639 C 0.39417 0.18691 0.06385 0.0
C1640 C 0.37652 0.2198 0.07726 0.0
C1641 C 0.41246 0.25316 0.11177 0.0
H1642 H 0.37051 0.2981 0.09711 0.0
C1643 C 0.36614 0.32591 0.16419 0.0
C1644 C 0.38358 0.33583 0.17628 0.0
C1645 C 0.37001 0.31023 0.14654 0.0
C1646 C 0.38231 0.28568 0.10139 0.0
H1647 H 0.42921 0.18905 0.05991 0.0
H1648 H 0.43148 0.22652 0.0737 0.0
H1649 H 0.37286 0.26631 0.07083 0.0
H1650 H 0.41873 0.33728 0.17942 0.0
H1651 H 0.42547 0.30999 0.14839 0.0
H1652 H 0.42102 0.27167 0.14312 0.0
C1653 C 0.41568 0.21889 0.07231 0.0
C1654 C 0.38374 0.26764 0.08628 0.0
C1655 C 0.41435 0.19751 0.06448 0.0
C1656 C 0.40495 0.32971 0.17057 0.0
C1657 C 0.40882 0.31414 0.15277 0.0
C1658 C 0.41091 0.27109 0.12698 0.0
C1659 C 0.39682 0.23 0.0793 0.0
C1660 C 0.39835 0.25095 0.09184 0.0
C1661 C 0.39139 0.30432 0.14052 0.0
C1662 C 0.39531 0.28714 0.12239 0.0
H1663 H 0.35943 0.19063 0.06909 0.0
H1664 H 0.36177 0.22798 0.08283 0.0
H1665 H 0.42367 0.24035 0.11658 0.0
H1666 H 0.3495 0.33035 0.16823 0.0
H1667 H 0.35622 0.30256 0.13781 0.0
C1668 C 0.84531 0.91558 0.36092 0.0
C1669 C 0.84854 0.8974 0.34602 0.0
C1670 C 0.82451 0.92074 0.36921 0.0
C1671 C 0.76604 0.90778 0.36051 0.0
H1672 H 0.7629 0.9157 0.4305 0.0
C1673 C 0.69396 0.87995 0.41787 0.0
C1674 C 0.68624 0.89381 0.43615 0.0
C1675 C 0.71275 0.88517 0.40501 0.0
C1676 C 0.76351 0.91392 0.41088 0.0
H1677 H 0.83247 0.871 0.32712 0.0
H1678 H 0.79646 0.87971 0.34194 0.0
H1679 H 0.79803 0.91736 0.4102 0.0
H1680 H 0.69203 0.92389 0.45545 0.0
H1681 H 0.72522 0.93276 0.43319 0.0
H1682 H 0.73158 0.90309 0.36153 0.0
C1683 C 0.80982 0.89019 0.34698 0.0
C1684 C 0.7836 0.91496 0.39923 0.0
C1685 C 0.83054 0.88505 0.33871 0.0
C1686 C 0.69767 0.91291 0.44145 0.0
C1687 C 0.7166 0.918 0.42876 0.0
C1688 C 0.74599 0.90658 0.3722 0.0
C1689 C 0.80664 0.90783 0.3627 0.0
C1690 C 0.78513 0.91113 0.37406 0.0
C1691 C 0.72422 0.90421 0.41038 0.0
C1692 C 0.7447 0.90893 0.39757 0.0
H1693 H 0.85888 0.92549 0.36668 0.0
H1694 H 0.82247 0.93455 0.38114 0.0
H1695 H 0.7667 0.9052 0.34102 0.0
H1696 H 0.68538 0.8652 0.4133 0.0
H1697 H 0.71852 0.87411 0.39115 0.0
C1698 C 0.13789 0.1797 0.6648 0.0
C1699 C 0.12125 0.17006 0.67844 0.0
C1700 C 0.133 0.19553 0.6477 0.0
C1701 C 0.11765 0.22017 0.60395 0.0
H1702 H 0.081 0.26785 0.62428 0.0
C1703 C 0.12925 0.30714 0.57412 0.0
C1704 C 0.11097 0.32017 0.57006 0.0
C1705 C 0.12667 0.28577 0.58143 0.0
C1706 C 0.09081 0.2544 0.61806 0.0
H1707 H 0.08648 0.16944 0.68509 0.0
H1708 H 0.07794 0.19721 0.6551 0.0
H1709 H 0.0837 0.23587 0.64984 0.0
H1710 H 0.0757 0.32103 0.56928 0.0
H1711 H 0.07125 0.28364 0.58267 0.0
H1712 H 0.12583 0.23946 0.57294 0.0
C1713 C 0.09475 0.19255 0.65775 0.0
C1714 C 0.09239 0.23611 0.6327 0.0
C1715 C 0.09966 0.17675 0.67496 0.0
C1716 C 0.09007 0.3113 0.57245 0.0
C1717 C 0.08749 0.28998 0.58002 0.0
C1718 C 0.11619 0.23853 0.5894 0.0
C1719 C 0.11137 0.20194 0.64384 0.0
C1720 C 0.10652 0.21925 0.62625 0.0
C1721 C 0.10578 0.27721 0.58498 0.0
C1722 C 0.10342 0.25609 0.59687 0.0
H1723 H 0.15469 0.17485 0.66711 0.0
H1724 H 0.1462 0.20292 0.63767 0.0
H1725 H 0.12825 0.20712 0.5983 0.0
H1726 H 0.14554 0.31355 0.57215 0.0
H1727 H 0.14103 0.27629 0.58549 0.0
loop_
_geom_bond_atom_site_label_1
_geom_bond_atom_site_label_2
_geom_bond_distance
_geom_bond_site_symmetry_2
_ccdc_geom_bond_type
C0 C1 1.351 . S
C0 N3 1.368 . S
C0 H5 0.931 . S
C1 C0 1.351 . S
C1 N2 1.373 . S
C1 H29 0.930 . S
N2 C1 1.373 . S
N2 C4 1.340 . S
N3 C0 1.368 . S
N3 C4 1.321 . S
N3 Co6 2.135 . S
C4 N2 1.340 . S
C4 N3 1.321 . S
C4 H28 0.930 . S
H5 C0 0.931 . S
Co6 N3 2.135 . S
Co6 N9 2.121 . S
Co6 O14 2.055 . S
Co6 O17 2.039 . S
Co6 N20 2.140 . S
C7 O8 1.227 . S
C7 O17 1.265 . S
O8 C7 1.227 . S
N9 Co6 2.121 . S
N9 C11 1.375 . S
N9 C12 1.313 . S
C10 C11 1.338 . S
C10 N13 1.377 . S
C10 H30 0.930 . S
C11 N9 1.375 . S
C11 C10 1.338 . S
C11 H15 0.931 . S
C12 N9 1.313 . S
C12 N13 1.344 . S
C12 H16 0.930 . S
N13 C10 1.377 . S
N13 C12 1.344 . S
O14 Co6 2.055 . S
O14 C18 1.253 . S
H15 C11 0.931 . S
H16 C12 0.930 . S
O17 Co6 2.039 . S
O17 C7 1.265 . S
C18 O14 1.253 . S
C18 O19 1.227 . S
O19 C18 1.227 . S
N20 Co6 2.140 . S
N20 C23 1.346 . S
N20 C24 1.345 . S
C21 C22 1.387 . S
C21 C25 1.391 . S
C22 C21 1.387 . S
C22 C23 1.369 . S
C22 H31 0.929 . S
C23 N20 1.346 . S
C23 C22 1.369 . S
C23 H26 0.928 . S
C24 N20 1.345 . S
C24 C25 1.371 . S
C24 H27 0.931 . S
C25 C21 1.391 . S
C25 C24 1.371 . S
C25 H32 0.930 . S
H26 C23 0.928 . S
H27 C24 0.931 . S
H28 C4 0.930 . S
H29 C1 0.930 . S
H30 C10 0.930 . S
H31 C22 0.929 . S
H32 C25 0.930 . S
C33 C34 1.351 . S
C33 N36 1.368 . S
C33 H38 0.931 . S
C34 C33 1.351 . S
C34 N35 1.373 . S
C34 H62 0.930 . S
N35 C34 1.373 . S
N35 C37 1.340 . S
N36 C33 1.368 . S
N36 C37 1.321 . S
N36 Co39 2.135 . S
C37 N35 1.340 . S
C37 N36 1.321 . S
C37 H61 0.930 . S
H38 C33 0.931 . S
Co39 N36 2.135 . S
Co39 N42 2.121 . S
Co39 O47 2.055 . S
Co39 O50 2.039 . S
Co39 N53 2.140 . S
C40 O41 1.227 . S
C40 O50 1.265 . S
O41 C40 1.227 . S
N42 Co39 2.121 . S
N42 C44 1.375 . S
N42 C45 1.313 . S
C43 C44 1.338 . S
C43 N46 1.377 . S
C43 H63 0.930 . S
C44 N42 1.375 . S
C44 C43 1.338 . S
C44 H48 0.931 . S
C45 N42 1.313 . S
C45 N46 1.344 . S
C45 H49 0.930 . S
N46 C43 1.377 . S
N46 C45 1.344 . S
O47 Co39 2.055 . S
O47 C51 1.253 . S
H48 C44 0.931 . S
H49 C45 0.930 . S
O50 Co39 2.039 . S
O50 C40 1.265 . S
C51 O47 1.253 . S
C51 O52 1.227 . S
O52 C51 1.227 . S
N53 Co39 2.140 . S
N53 C56 1.346 . S
N53 C57 1.345 . S
C54 C55 1.387 . S
C54 C58 1.391 . S
C55 C54 1.387 . S
C55 C56 1.369 . S
C55 H64 0.929 . S
C56 N53 1.346 . S
C56 C55 1.369 . S
C56 H59 0.928 . S
C57 N53 1.345 . S
C57 C58 1.371 . S
C57 H60 0.931 . S
C58 C54 1.391 . S
C58 C57 1.371 . S
C58 H65 0.930 . S
H59 C56 0.928 . S
H60 C57 0.931 . S
H61 C37 0.930 . S
H62 C34 0.930 . S
H63 C43 0.930 . S
H64 C55 0.929 . S
H65 C58 0.930 . S
C66 C67 1.351 . S
C66 N69 1.368 . S
C66 H71 0.931 . S
C67 C66 1.351 . S
C67 N68 1.373 . S
C67 H95 0.930 . S
N68 C67 1.373 . S
N68 C70 1.340 . S
N69 C66 1.368 . S
N69 C70 1.321 . S
N69 Co72 2.135 . S
C70 N68 1.340 . S
C70 N69 1.321 . S
C70 H94 0.930 . S
H71 C66 0.931 . S
Co72 N69 2.135 . S
Co72 N75 2.121 . S
Co72 O80 2.055 . S
Co72 O83 2.039 . S
Co72 N86 2.140 . S
C73 O74 1.227 . S
C73 O83 1.265 . S
O74 C73 1.227 . S
N75 Co72 2.121 . S
N75 C77 1.375 . S
N75 C78 1.313 . S
C76 C77 1.338 . S
C76 N79 1.377 . S
C76 H96 0.930 . S
C77 N75 1.375 . S
C77 C76 1.338 . S
C77 H81 0.931 . S
C78 N75 1.313 . S
C78 N79 1.344 . S
C78 H82 0.930 . S
N79 C76 1.377 . S
N79 C78 1.344 . S
O80 Co72 2.055 . S
O80 C84 1.253 . S
H81 C77 0.931 . S
H82 C78 0.930 . S
O83 Co72 2.039 . S
O83 C73 1.265 . S
C84 O80 1.253 . S
C84 O85 1.227 . S
O85 C84 1.227 . S
N86 Co72 2.140 . S
N86 C89 1.346 . S
N86 C90 1.345 . S
C87 C88 1.387 . S
C87 C91 1.391 . S
C88 C87 1.387 . S
C88 C89 1.369 . S
C88 H97 0.929 . S
C89 N86 1.346 . S
C89 C88 1.369 . S
C89 H92 0.928 . S
C90 N86 1.345 . S
C90 C91 1.371 . S
C90 H93 0.931 . S
C91 C87 1.391 . S
C91 C90 1.371 . S
C91 H98 0.930 . S
H92 C89 0.928 . S
H93 C90 0.931 . S
H94 C70 0.930 . S
H95 C67 0.930 . S
H96 C76 0.930 . S
H97 C88 0.929 . S
H98 C91 0.930 . S
C99 C100 1.351 . S
C99 N102 1.368 . S
C99 H104 0.931 . S
C100 C99 1.351 . S
C100 N101 1.373 . S
C100 H128 0.930 . S
N101 C100 1.373 . S
N101 C103 1.340 . S
N102 C99 1.368 . S
N102 C103 1.321 . S
N102 Co105 2.135 . S
C103 N101 1.340 . S
C103 N102 1.321 . S
C103 H127 0.930 . S
H104 C99 0.931 . S
Co105 N102 2.135 . S
Co105 N108 2.121 . S
Co105 O113 2.055 . S
Co105 O116 2.039 . S
Co105 N119 2.140 . S
C106 O107 1.227 . S
C106 O116 1.265 . S
O107 C106 1.227 . S
N108 Co105 2.121 . S
N108 C110 1.375 . S
N108 C111 1.313 . S
C109 C110 1.338 . S
C109 N112 1.377 . S
C109 H129 0.930 1_554 S
C110 N108 1.375 . S
C110 C109 1.338 . S
C110 H114 0.931 . S
C111 N108 1.313 . S
C111 N112 1.344 . S
C111 H115 0.930 . S
N112 C109 1.377 . S
N112 C111 1.344 . S
O113 Co105 2.055 . S
O113 C117 1.253 . S
H114 C110 0.931 . S
H115 C111 0.930 . S
O116 Co105 2.039 . S
O116 C106 1.265 . S
C117 O113 1.253 . S
C117 O118 1.227 . S
O118 C117 1.227 . S
N119 Co105 2.140 . S
N119 C122 1.346 . S
N119 C123 1.345 . S
C120 C121 1.387 . S
C120 C124 1.391 . S
C121 C120 1.387 . S
C121 C122 1.369 . S
C121 H130 0.929 . S
C122 N119 1.346 . S
C122 C121 1.369 . S
C122 H125 0.928 . S
C123 N119 1.345 . S
C123 C124 1.371 . S
C123 H126 0.931 . S
C124 C120 1.391 . S
C124 C123 1.371 . S
C124 H131 0.930 . S
H125 C122 0.928 . S
H126 C123 0.931 . S
H127 C103 0.930 . S
H128 C100 0.930 . S
H129 C109 0.930 1_556 S
H130 C121 0.929 . S
H131 C124 0.930 . S
C132 C133 1.351 . S
C132 N135 1.368 . S
C132 H137 0.931 . S
C133 C132 1.351 . S
C133 N134 1.373 . S
C133 H161 0.930 . S
N134 C133 1.373 . S
N134 C136 1.340 . S
N135 C132 1.368 . S
N135 C136 1.321 . S
N135 Co138 2.135 . S
C136 N134 1.340 . S
C136 N135 1.321 . S
C136 H160 0.930 . S
H137 C132 0.931 . S
Co138 N135 2.135 . S
Co138 N141 2.121 . S
Co138 O146 2.055 . S
Co138 O149 2.039 . S
Co138 N152 2.140 . S
C139 O140 1.227 . S
C139 O149 1.265 . S
O140 C139 1.227 . S
N141 Co138 2.121 . S
N141 C143 1.375 . S
N141 C144 1.313 . S
C142 C143 1.338 . S
C142 N145 1.377 . S
C142 H162 0.930 1_556 S
C143 N141 1.375 . S
C143 C142 1.338 . S
C143 H147 0.931 . S
C144 N141 1.313 . S
C144 N145 1.344 . S
C144 H148 0.930 . S
N145 C142 1.377 . S
N145 C144 1.344 . S
O146 Co138 2.055 . S
O146 C150 1.253 . S
H147 C143 0.931 . S
H148 C144 0.930 . S
O149 Co138 2.039 . S
O149 C139 1.265 . S
C150 O146 1.253 . S
C150 O151 1.227 . S
O151 C150 1.227 . S
N152 Co138 2.140 . S
N152 C155 1.346 . S
N152 C156 1.345 . S
C153 C154 1.387 . S
C153 C157 1.391 . S
C154 C153 1.387 . S
C154 C155 1.369 . S
C154 H163 0.929 . S
C155 N152 1.346 . S
C155 C154 1.369 . S
C155 H158 0.928 . S
C156 N152 1.345 . S
C156 C157 1.371 . S
C156 H159 0.931 . S
C157 C153 1.391 . S
C157 C156 1.371 . S
C157 H164 0.930 . S
H158 C155 0.928 . S
H159 C156 0.931 . S
H160 C136 0.930 . S
H161 C133 0.930 . S
H162 C142 0.930 1_554 S
H163 C154 0.929 . S
H164 C157 0.930 . S
C165 C166 1.351 . S
C165 N168 1.368 . S
C165 H170 0.931 . S
C166 C165 1.351 . S
C166 N167 1.373 . S
C166 H194 0.930 . S
N167 C166 1.373 . S
N167 C169 1.340 . S
N168 C165 1.368 . S
N168 C169 1.321 . S
N168 Co171 2.135 . S
C169 N167 1.340 . S
C169 N168 1.321 . S
C169 H193 0.930 . S
H170 C165 0.931 . S
Co171 N168 2.135 . S
Co171 N174 2.121 . S
Co171 O179 2.055 . S
Co171 O182 2.039 . S
Co171 N185 2.140 . S
C172 O173 1.227 . S
C172 O182 1.265 . S
O173 C172 1.227 . S
N174 Co171 2.121 . S
N174 C176 1.375 . S
N174 C177 1.313 . S
C175 C176 1.338 . S
C175 N178 1.377 . S
C175 H195 0.930 . S
C176 N174 1.375 . S
C176 C175 1.338 . S
C176 H180 0.931 . S
C177 N174 1.313 . S
C177 N178 1.344 . S
C177 H181 0.930 . S
N178 C175 1.377 . S
N178 C177 1.344 . S
O179 Co171 2.055 . S
O179 C183 1.253 . S
H180 C176 0.931 . S
H181 C177 0.930 . S
O182 Co171 2.039 . S
O182 C172 1.265 . S
C183 O179 1.253 . S
C183 O184 1.227 . S
O184 C183 1.227 . S
N185 Co171 2.140 . S
N185 C188 1.346 . S
N185 C189 1.345 . S
C186 C187 1.387 . S
C186 C190 1.391 . S
C187 C186 1.387 . S
C187 C188 1.369 . S
C187 H196 0.929 . S
C188 N185 1.346 . S
C188 C187 1.369 . S
C188 H191 0.928 . S
C189 N185 1.345 . S
C189 C190 1.371 . S
C189 H192 0.931 . S
C190 C186 1.391 . S
C190 C189 1.371 . S
C190 H197 0.930 . S
H191 C188 0.928 . S
H192 C189 0.931 . S
H193 C169 0.930 . S
H194 C166 0.930 . S
H195 C175 0.930 . S
H196 C187 0.929 . S
H197 C190 0.930 . S
C198 C199 1.351 . S
C198 N201 1.368 . S
C198 H203 0.931 . S
C199 C198 1.351 . S
C199 N200 1.373 . S
C199 H227 0.930 . S
N200 C199 1.373 . S
N200 C202 1.340 . S
N201 C198 1.368 . S
N201 C202 1.321 . S
N201 Co204 2.135 . S
C202 N200 1.340 . S
C202 N201 1.321 . S
C202 H226 0.930 . S
H203 C198 0.931 . S
Co204 N201 2.135 . S
Co204 N207 2.121 . S
Co204 O212 2.055 . S
Co204 O215 2.039 . S
Co204 N218 2.140 . S
C205 O206 1.227 . S
C205 O215 1.265 . S
O206 C205 1.227 . S
N207 Co204 2.121 . S
N207 C209 1.375 . S
N207 C210 1.313 . S
C208 C209 1.338 . S
C208 N211 1.377 . S
C208 H228 0.930 . S
C209 N207 1.375 . S
C209 C208 1.338 . S
C209 H213 0.931 . S
C210 N207 1.313 . S
C210 N211 1.344 . S
C210 H214 0.930 . S
N211 C208 1.377 . S
N211 C210 1.344 . S
O212 Co204 2.055 . S
O212 C216 1.253 . S
H213 C209 0.931 . S
H214 C210 0.930 . S
O215 Co204 2.039 . S
O215 C205 1.265 . S
C216 O212 1.253 . S
C216 O217 1.227 . S
O217 C216 1.227 . S
N218 Co204 2.140 . S
N218 C221 1.346 . S
N218 C222 1.345 . S
C219 C220 1.387 . S
C219 C223 1.391 . S
C220 C219 1.387 . S
C220 C221 1.369 . S
C220 H229 0.929 . S
C221 N218 1.346 . S
C221 C220 1.369 . S
C221 H224 0.928 . S
C222 N218 1.345 . S
C222 C223 1.371 . S
C222 H225 0.931 . S
C223 C219 1.391 . S
C223 C222 1.371 . S
C223 H230 0.930 . S
H224 C221 0.928 . S
H225 C222 0.931 . S
H226 C202 0.930 . S
H227 C199 0.930 . S
H228 C208 0.930 . S
H229 C220 0.929 . S
H230 C223 0.930 . S
C231 C232 1.351 . S
C231 N234 1.368 . S
C231 H236 0.931 . S
C232 C231 1.351 . S
C232 N233 1.373 . S
C232 H260 0.930 . S
N233 C232 1.373 . S
N233 C235 1.340 . S
N234 C231 1.368 . S
N234 C235 1.321 . S
N234 Co237 2.135 . S
C235 N233 1.340 . S
C235 N234 1.321 . S
C235 H259 0.930 . S
H236 C231 0.931 . S
Co237 N234 2.135 . S
Co237 N240 2.121 . S
Co237 O245 2.055 . S
Co237 O248 2.039 . S
Co237 N251 2.140 . S
C238 O239 1.227 . S
C238 O248 1.265 . S
O239 C238 1.227 . S
N240 Co237 2.121 . S
N240 C242 1.375 . S
N240 C243 1.313 . S
C241 C242 1.338 . S
C241 N244 1.377 . S
C241 H261 0.930 . S
C242 N240 1.375 . S
C242 C241 1.338 . S
C242 H246 0.931 . S
C243 N240 1.313 . S
C243 N244 1.344 . S
C243 H247 0.930 . S
N244 C241 1.377 . S
N244 C243 1.344 . S
O245 Co237 2.055 . S
O245 C249 1.253 . S
H246 C242 0.931 . S
H247 C243 0.930 . S
O248 Co237 2.039 . S
O248 C238 1.265 . S
C249 O245 1.253 . S
C249 O250 1.227 . S
O250 C249 1.227 . S
N251 Co237 2.140 . S
N251 C254 1.346 . S
N251 C255 1.345 . S
C252 C253 1.387 . S
C252 C256 1.391 . S
C253 C252 1.387 . S
C253 C254 1.369 . S
C253 H262 0.929 . S
C254 N251 1.346 . S
C254 C253 1.369 . S
C254 H257 0.928 . S
C255 N251 1.345 . S
C255 C256 1.371 . S
C255 H258 0.931 . S
C256 C252 1.391 . S
C256 C255 1.371 . S
C256 H263 0.930 . S
H257 C254 0.928 . S
H258 C255 0.931 . S
H259 C235 0.930 . S
H260 C232 0.930 . S
H261 C241 0.930 . S
H262 C253 0.929 . S
H263 C256 0.930 . S
C264 C265 1.351 . S
C264 N267 1.368 . S
C264 H269 0.931 . S
C265 C264 1.351 . S
C265 N266 1.373 . S
C265 H293 0.930 . S
N266 C265 1.373 . S
N266 C268 1.340 . S
N267 C264 1.368 . S
N267 C268 1.321 . S
N267 Co270 2.135 . S
C268 N266 1.340 . S
C268 N267 1.321 . S
C268 H292 0.930 . S
H269 C264 0.931 . S
Co270 N267 2.135 . S
Co270 N273 2.121 . S
Co270 O278 2.055 . S
Co270 O281 2.039 . S
Co270 N284 2.140 . S
C271 O272 1.227 . S
C271 O281 1.265 . S
O272 C271 1.227 . S
N273 Co270 2.121 . S
N273 C275 1.375 . S
N273 C276 1.313 . S
C274 C275 1.338 . S
C274 N277 1.377 . S
C274 H294 0.930 . S
C275 N273 1.375 . S
C275 C274 1.338 . S
C275 H279 0.931 . S
C276 N273 1.313 . S
C276 N277 1.344 . S
C276 H280 0.930 . S
N277 C274 1.377 . S
N277 C276 1.344 . S
O278 Co270 2.055 . S
O278 C282 1.253 . S
H279 C275 0.931 . S
H280 C276 0.930 . S
O281 Co270 2.039 . S
O281 C271 1.265 . S
C282 O278 1.253 . S
C282 O283 1.227 . S
O283 C282 1.227 . S
N284 Co270 2.140 . S
N284 C287 1.346 . S
N284 C288 1.345 . S
C285 C286 1.387 . S
C285 C289 1.391 . S
C286 C285 1.387 . S
C286 C287 1.369 . S
C286 H295 0.929 . S
C287 N284 1.346 . S
C287 C286 1.369 . S
C287 H290 0.928 . S
C288 N284 1.345 . S
C288 C289 1.371 . S
C288 H291 0.931 . S
C289 C285 1.391 . S
C289 C288 1.371 . S
C289 H296 0.930 . S
H290 C287 0.928 . S
H291 C288 0.931 . S
H292 C268 0.930 . S
H293 C265 0.930 . S
H294 C274 0.930 . S
H295 C286 0.929 . S
H296 C289 0.930 . S
C297 C298 1.351 . S
C297 N300 1.368 . S
C297 H302 0.931 . S
C298 C297 1.351 . S
C298 N299 1.373 . S
C298 H326 0.930 . S
N299 C298 1.373 . S
N299 C301 1.340 . S
N300 C297 1.368 . S
N300 C301 1.321 . S
N300 Co303 2.135 . S
C301 N299 1.340 . S
C301 N300 1.321 . S
C301 H325 0.930 . S
H302 C297 0.931 . S
Co303 N300 2.135 . S
Co303 N306 2.121 . S
Co303 O311 2.055 . S
Co303 O314 2.039 . S
Co303 N317 2.140 . S
C304 O305 1.227 . S
C304 O314 1.265 . S
O305 C304 1.227 . S
N306 Co303 2.121 . S
N306 C308 1.375 . S
N306 C309 1.313 . S
C307 C308 1.338 . S
C307 N310 1.377 . S
C307 H327 0.930 1_554 S
C308 N306 1.375 . S
C308 C307 1.338 . S
C308 H312 0.931 . S
C309 N306 1.313 . S
C309 N310 1.344 . S
C309 H313 0.930 . S
N310 C307 1.377 . S
N310 C309 1.344 . S
O311 Co303 2.055 . S
O311 C315 1.253 . S
H312 C308 0.931 . S
H313 C309 0.930 . S
O314 Co303 2.039 . S
O314 C304 1.265 . S
C315 O311 1.253 . S
C315 O316 1.227 . S
O316 C315 1.227 . S
N317 Co303 2.140 . S
N317 C320 1.346 . S
N317 C321 1.345 . S
C318 C319 1.387 . S
C318 C322 1.391 . S
C319 C318 1.387 . S
C319 C320 1.369 . S
C319 H328 0.929 . S
C320 N317 1.346 . S
C320 C319 1.369 . S
C320 H323 0.928 . S
C321 N317 1.345 . S
C321 C322 1.371 . S
C321 H324 0.931 . S
C322 C318 1.391 . S
C322 C321 1.371 . S
C322 H329 0.930 . S
H323 C320 0.928 . S
H324 C321 0.931 . S
H325 C301 0.930 . S
H326 C298 0.930 . S
H327 C307 0.930 1_556 S
H328 C319 0.929 . S
H329 C322 0.930 . S
C330 C331 1.351 . S
C330 N333 1.368 . S
C330 H335 0.931 . S
C331 C330 1.351 . S
C331 N332 1.373 . S
C331 H359 0.930 . S
N332 C331 1.373 . S
N332 C334 1.340 . S
N333 C330 1.368 . S
N333 C334 1.321 . S
N333 Co336 2.135 . S
C334 N332 1.340 . S
C334 N333 1.321 . S
C334 H358 0.930 . S
H335 C330 0.931 . S
Co336 N333 2.135 . S
Co336 N339 2.121 . S
Co336 O344 2.055 . S
Co336 O347 2.039 . S
Co336 N350 2.140 . S
C337 O338 1.227 . S
C337 O347 1.265 . S
O338 C337 1.227 . S
N339 Co336 2.121 . S
N339 C341 1.375 . S
N339 C342 1.313 . S
C340 C341 1.338 . S
C340 N343 1.377 . S
C340 H360 0.930 . S
C341 N339 1.375 . S
C341 C340 1.338 . S
C341 H345 0.931 . S
C342 N339 1.313 . S
C342 N343 1.344 . S
C342 H346 0.930 . S
N343 C340 1.377 . S
N343 C342 1.344 . S
O344 Co336 2.055 . S
O344 C348 1.253 . S
H345 C341 0.931 . S
H346 C342 0.930 . S
O347 Co336 2.039 . S
O347 C337 1.265 . S
C348 O344 1.253 . S
C348 O349 1.227 . S
O349 C348 1.227 . S
N350 Co336 2.140 . S
N350 C353 1.346 . S
N350 C354 1.345 . S
C351 C352 1.387 . S
C351 C355 1.391 . S
C352 C351 1.387 . S
C352 C353 1.369 . S
C352 H361 0.929 . S
C353 N350 1.346 . S
C353 C352 1.369 . S
C353 H356 0.928 . S
C354 N350 1.345 . S
C354 C355 1.371 . S
C354 H357 0.931 . S
C355 C351 1.391 . S
C355 C354 1.371 . S
C355 H362 0.930 . S
H356 C353 0.928 . S
H357 C354 0.931 . S
H358 C334 0.930 . S
H359 C331 0.930 . S
H360 C340 0.930 . S
H361 C352 0.929 . S
H362 C355 0.930 . S
C363 C364 1.351 . S
C363 N366 1.368 . S
C363 H368 0.931 . S
C364 C363 1.351 . S
C364 N365 1.373 . S
C364 H392 0.930 . S
N365 C364 1.373 . S
N365 C367 1.340 . S
N366 C363 1.368 . S
N366 C367 1.321 . S
N366 Co369 2.135 . S
C367 N365 1.340 . S
C367 N366 1.321 . S
C367 H391 0.930 . S
H368 C363 0.931 . S
Co369 N366 2.135 . S
Co369 N372 2.121 . S
Co369 O377 2.055 . S
Co369 O380 2.039 . S
Co369 N383 2.140 . S
C370 O371 1.227 . S
C370 O380 1.265 . S
O371 C370 1.227 . S
N372 Co369 2.121 . S
N372 C374 1.375 . S
N372 C375 1.313 . S
C373 C374 1.338 . S
C373 N376 1.377 . S
C373 H393 0.930 . S
C374 N372 1.375 . S
C374 C373 1.338 . S
C374 H378 0.931 . S
C375 N372 1.313 . S
C375 N376 1.344 . S
C375 H379 0.930 . S
N376 C373 1.377 . S
N376 C375 1.344 . S
O377 Co369 2.055 . S
O377 C381 1.253 . S
H378 C374 0.931 . S
H379 C375 0.930 . S
O380 Co369 2.039 . S
O380 C370 1.265 . S
C381 O377 1.253 . S
C381 O382 1.227 . S
O382 C381 1.227 . S
N383 Co369 2.140 . S
N383 C386 1.346 . S
N383 C387 1.345 . S
C384 C385 1.387 . S
C384 C388 1.391 . S
C385 C384 1.387 . S
C385 C386 1.369 . S
C385 H394 0.929 . S
C386 N383 1.346 . S
C386 C385 1.369 . S
C386 H389 0.928 . S
C387 N383 1.345 . S
C387 C388 1.371 . S
C387 H390 0.931 . S
C388 C384 1.391 . S
C388 C387 1.371 . S
C388 H395 0.930 . S
H389 C386 0.928 . S
H390 C387 0.931 . S
H391 C367 0.930 . S
H392 C364 0.930 . S
H393 C373 0.930 . S
H394 C385 0.929 . S
H395 C388 0.930 . S
C396 C397 1.351 . S
C396 N399 1.368 . S
C396 H401 0.931 . S
C397 C396 1.351 . S
C397 N398 1.373 . S
C397 H425 0.930 . S
N398 C397 1.373 . S
N398 C400 1.340 . S
N399 C396 1.368 . S
N399 C400 1.321 . S
N399 Co402 2.135 . S
C400 N398 1.340 . S
C400 N399 1.321 . S
C400 H424 0.930 . S
H401 C396 0.931 . S
Co402 N399 2.135 . S
Co402 N405 2.121 . S
Co402 O410 2.055 . S
Co402 O413 2.039 . S
Co402 N416 2.140 . S
C403 O404 1.227 . S
C403 O413 1.265 . S
O404 C403 1.227 . S
N405 Co402 2.121 . S
N405 C407 1.375 . S
N405 C408 1.313 . S
C406 C407 1.338 . S
C406 N409 1.377 . S
C406 H426 0.930 . S
C407 N405 1.375 . S
C407 C406 1.338 . S
C407 H411 0.931 . S
C408 N405 1.313 . S
C408 N409 1.344 . S
C408 H412 0.930 . S
N409 C406 1.377 . S
N409 C408 1.344 . S
O410 Co402 2.055 . S
O410 C414 1.253 . S
H411 C407 0.931 . S
H412 C408 0.930 . S
O413 Co402 2.039 . S
O413 C403 1.265 . S
C414 O410 1.253 . S
C414 O415 1.227 . S
O415 C414 1.227 . S
N416 Co402 2.140 . S
N416 C419 1.346 . S
N416 C420 1.345 . S
C417 C418 1.387 . S
C417 C421 1.391 . S
C418 C417 1.387 . S
C418 C419 1.369 . S
C418 H427 0.929 . S
C419 N416 1.346 . S
C419 C418 1.369 . S
C419 H422 0.928 . S
C420 N416 1.345 . S
C420 C421 1.371 . S
C420 H423 0.931 . S
C421 C417 1.391 . S
C421 C420 1.371 . S
C421 H428 0.930 . S
H422 C419 0.928 . S
H423 C420 0.931 . S
H424 C400 0.930 . S
H425 C397 0.930 . S
H426 C406 0.930 . S
H427 C418 0.929 . S
H428 C421 0.930 . S
C429 C430 1.351 . S
C429 N432 1.368 . S
C429 H434 0.931 . S
C430 C429 1.351 . S
C430 N431 1.373 . S
C430 H458 0.930 . S
N431 C430 1.373 . S
N431 C433 1.340 . S
N432 C429 1.368 . S
N432 C433 1.321 . S
N432 Co435 2.135 . S
C433 N431 1.340 . S
C433 N432 1.321 . S
C433 H457 0.930 . S
H434 C429 0.931 . S
Co435 N432 2.135 . S
Co435 N438 2.121 . S
Co435 O443 2.055 . S
Co435 O446 2.039 . S
Co435 N449 2.140 . S
C436 O437 1.227 . S
C436 O446 1.265 . S
O437 C436 1.227 . S
N438 Co435 2.121 . S
N438 C440 1.375 . S
N438 C441 1.313 . S
C439 C440 1.338 . S
C439 N442 1.377 . S
C439 H459 0.930 . S
C440 N438 1.375 . S
C440 C439 1.338 . S
C440 H444 0.931 . S
C441 N438 1.313 . S
C441 N442 1.344 . S
C441 H445 0.930 . S
N442 C439 1.377 . S
N442 C441 1.344 . S
O443 Co435 2.055 . S
O443 C447 1.253 . S
H444 C440 0.931 . S
H445 C441 0.930 . S
O446 Co435 2.039 . S
O446 C436 1.265 . S
C447 O443 1.253 . S
C447 O448 1.227 . S
O448 C447 1.227 . S
N449 Co435 2.140 . S
N449 C452 1.346 . S
N449 C453 1.345 . S
C450 C451 1.387 . S
C450 C454 1.391 . S
C451 C450 1.387 . S
C451 C452 1.369 . S
C451 H460 0.929 . S
C452 N449 1.346 . S
C452 C451 1.369 . S
C452 H455 0.928 . S
C453 N449 1.345 . S
C453 C454 1.371 . S
C453 H456 0.931 . S
C454 C450 1.391 . S
C454 C453 1.371 . S
C454 H461 0.930 . S
H455 C452 0.928 . S
H456 C453 0.931 . S
H457 C433 0.930 . S
H458 C430 0.930 . S
H459 C439 0.930 . S
H460 C451 0.929 . S
H461 C454 0.930 . S
C462 C463 1.351 . S
C462 N465 1.368 . S
C462 H467 0.931 . S
C463 C462 1.351 . S
C463 N464 1.373 . S
C463 H491 0.930 . S
N464 C463 1.373 . S
N464 C466 1.340 . S
N465 C462 1.368 . S
N465 C466 1.321 . S
N465 Co468 2.135 . S
C466 N464 1.340 . S
C466 N465 1.321 . S
C466 H490 0.930 . S
H467 C462 0.931 . S
Co468 N465 2.135 . S
Co468 N471 2.121 . S
Co468 O476 2.055 . S
Co468 O479 2.039 . S
Co468 N482 2.140 . S
C469 O470 1.227 . S
C469 O479 1.265 . S
O470 C469 1.227 . S
N471 Co468 2.121 . S
N471 C473 1.375 . S
N471 C474 1.313 . S
C472 C473 1.338 . S
C472 N475 1.377 . S
C472 H492 0.930 1_556 S
C473 N471 1.375 . S
C473 C472 1.338 . S
C473 H477 0.931 . S
C474 N471 1.313 . S
C474 N475 1.344 . S
C474 H478 0.930 . S
N475 C472 1.377 . S
N475 C474 1.344 . S
O476 Co468 2.055 . S
O476 C480 1.253 . S
H477 C473 0.931 . S
H478 C474 0.930 . S
O479 Co468 2.039 . S
O479 C469 1.265 . S
C480 O476 1.253 . S
C480 O481 1.227 . S
O481 C480 1.227 . S
N482 Co468 2.140 . S
N482 C485 1.346 . S
N482 C486 1.345 . S
C483 C484 1.387 . S
C483 C487 1.391 . S
C484 C483 1.387 . S
C484 C485 1.369 . S
C484 H493 0.929 . S
C485 N482 1.346 . S
C485 C484 1.369 . S
C485 H488 0.928 . S
C486 N482 1.345 . S
C486 C487 1.371 . S
C486 H489 0.931 . S
C487 C483 1.391 . S
C487 C486 1.371 . S
C487 H494 0.930 . S
H488 C485 0.928 . S
H489 C486 0.931 . S
H490 C466 0.930 . S
H491 C463 0.930 . S
H492 C472 0.930 1_554 S
H493 C484 0.929 . S
H494 C487 0.930 . S
C495 C496 1.351 . S
C495 N498 1.368 . S
C495 H500 0.931 . S
C496 C495 1.351 . S
C496 N497 1.373 . S
C496 H524 0.930 . S
N497 C496 1.373 . S
N497 C499 1.340 . S
N498 C495 1.368 . S
N498 C499 1.321 . S
N498 Co501 2.135 . S
C499 N497 1.340 . S
C499 N498 1.321 . S
C499 H523 0.930 . S
H500 C495 0.931 . S
Co501 N498 2.135 . S
Co501 N504 2.121 . S
Co501 O509 2.055 . S
Co501 O512 2.039 . S
Co501 N515 2.140 . S
C502 O503 1.227 . S
C502 O512 1.265 . S
O503 C502 1.227 . S
N504 Co501 2.121 . S
N504 C506 1.375 . S
N504 C507 1.313 . S
C505 C506 1.338 . S
C505 N508 1.377 . S
C505 H525 0.930 . S
C506 N504 1.375 . S
C506 C505 1.338 . S
C506 H510 0.931 . S
C507 N504 1.313 . S
C507 N508 1.344 . S
C507 H511 0.930 . S
N508 C505 1.377 . S
N508 C507 1.344 . S
O509 Co501 2.055 . S
O509 C513 1.253 . S
H510 C506 0.931 . S
H511 C507 0.930 . S
O512 Co501 2.039 . S
O512 C502 1.265 . S
C513 O509 1.253 . S
C513 O514 1.227 . S
O514 C513 1.227 . S
N515 Co501 2.140 . S
N515 C518 1.346 . S
N515 C519 1.345 . S
C516 C517 1.387 . S
C516 C520 1.391 . S
C517 C516 1.387 . S
C517 C518 1.369 . S
C517 H526 0.929 . S
C518 N515 1.346 . S
C518 C517 1.369 . S
C518 H521 0.928 . S
C519 N515 1.345 . S
C519 C520 1.371 . S
C519 H522 0.931 . S
C520 C516 1.391 . S
C520 C519 1.371 . S
C520 H527 0.930 . S
H521 C518 0.928 . S
H522 C519 0.931 . S
H523 C499 0.930 . S
H524 C496 0.930 . S
H525 C505 0.930 . S
H526 C517 0.929 . S
H527 C520 0.930 . S
C528 C529 1.349 . S
C528 C530 1.327 . S
C528 H553 0.950 . S
C529 C528 1.349 . S
C529 C545 1.349 . S
C530 C528 1.327 . S
C530 C549 1.429 . S
C530 H554 0.950 . S
C531 C548 1.574 . S
C531 C550 1.368 . S
C531 H555 0.949 . S
H532 C536 0.949 . S
C533 C534 1.349 . S
C533 C535 1.327 . S
C533 H556 0.950 . S
C534 C533 1.349 . S
C534 C546 1.349 . S
C535 C533 1.327 . S
C535 C551 1.429 . S
C535 H557 0.950 . S
C536 H532 0.949 . S
C536 C544 1.574 . S
C536 C552 1.368 . S
H537 C545 0.950 . S
H538 C543 0.950 . S
H539 C544 0.949 . S
H540 C546 0.950 . S
H541 C547 0.950 . S
H542 C548 0.949 . S
C543 H538 0.950 . S
C543 C545 1.327 . S
C543 C549 1.429 . S
C544 C536 1.574 . S
C544 H539 0.949 . S
C544 C550 1.368 . S
C545 C529 1.349 . S
C545 H537 0.950 . S
C545 C543 1.327 . S
C546 C534 1.349 . S
C546 H540 0.950 . S
C546 C547 1.327 . S
C547 H541 0.950 . S
C547 C546 1.327 . S
C547 C551 1.429 . S
C548 C531 1.574 . S
C548 H542 0.949 . S
C548 C552 1.368 . S
C549 C530 1.429 . S
C549 C543 1.429 . S
C549 C550 1.523 . S
C550 C531 1.368 . S
C550 C544 1.368 . S
C550 C549 1.523 . S
C551 C535 1.429 . S
C551 C547 1.429 . S
C551 C552 1.523 . S
C552 C536 1.368 . S
C552 C548 1.368 . S
C552 C551 1.523 . S
H553 C528 0.950 . S
H554 C530 0.950 . S
H555 C531 0.949 . S
H556 C533 0.950 . S
H557 C535 0.950 . S
C558 C559 1.349 . S
C558 C560 1.327 . S
C558 H583 0.950 . S
C559 C558 1.349 . S
C559 C575 1.349 . S
C560 C558 1.327 . S
C560 C579 1.429 . S
C560 H584 0.950 . S
C561 C578 1.574 . S
C561 C580 1.368 . S
C561 H585 0.949 . S
H562 C566 0.949 . S
C563 C564 1.349 . S
C563 C565 1.327 . S
C563 H586 0.950 . S
C564 C563 1.349 . S
C564 C576 1.349 . S
C565 C563 1.327 . S
C565 C581 1.429 . S
C565 H587 0.950 . S
C566 H562 0.949 . S
C566 C574 1.574 . S
C566 C582 1.368 . S
H567 C575 0.950 . S
H568 C573 0.950 . S
H569 C574 0.949 . S
H570 C576 0.950 . S
H571 C577 0.950 . S
H572 C578 0.949 . S
C573 H568 0.950 . S
C573 C575 1.327 . S
C573 C579 1.429 . S
C574 C566 1.574 . S
C574 H569 0.949 . S
C574 C580 1.368 . S
C575 C559 1.349 . S
C575 H567 0.950 . S
C575 C573 1.327 . S
C576 C564 1.349 . S
C576 H570 0.950 . S
C576 C577 1.327 . S
C577 H571 0.950 . S
C577 C576 1.327 . S
C577 C581 1.429 . S
C578 C561 1.574 . S
C578 H572 0.949 . S
C578 C582 1.368 . S
C579 C560 1.429 . S
C579 C573 1.429 . S
C579 C580 1.523 . S
C580 C561 1.368 . S
C580 C574 1.368 . S
C580 C579 1.523 . S
C581 C565 1.429 . S
C581 C577 1.429 . S
C581 C582 1.523 . S
C582 C566 1.368 . S
C582 C578 1.368 . S
C582 C581 1.523 . S
H583 C558 0.950 . S
H584 C560 0.950 . S
H585 C561 0.949 . S
H586 C563 0.950 . S
H587 C565 0.950 . S
C588 C589 1.349 . S
C588 C590 1.327 . S
C588 H613 0.950 . S
C589 C588 1.349 . S
C589 C605 1.349 . S
C590 C588 1.327 . S
C590 C609 1.429 . S
C590 H614 0.950 . S
C591 C608 1.574 1_554 S
C591 C610 1.368 . S
C591 H615 0.949 . S
H592 C596 0.949 . S
C593 C594 1.349 . S
C593 C595 1.327 . S
C593 H616 0.950 . S
C594 C593 1.349 . S
C594 C606 1.349 . S
C595 C593 1.327 . S
C595 C611 1.429 . S
C595 H617 0.950 . S
C596 H592 0.949 . S
C596 C604 1.574 1_556 S
C596 C612 1.368 . S
H597 C605 0.950 . S
H598 C603 0.950 . S
H599 C604 0.949 . S
H600 C606 0.950 . S
H601 C607 0.950 . S
H602 C608 0.949 . S
C603 H598 0.950 . S
C603 C605 1.327 . S
C603 C609 1.429 . S
C604 C596 1.574 1_554 S
C604 H599 0.949 . S
C604 C610 1.368 . S
C605 C589 1.349 . S
C605 H597 0.950 . S
C605 C603 1.327 . S
C606 C594 1.349 . S
C606 H600 0.950 . S
C606 C607 1.327 . S
C607 H601 0.950 . S
C607 C606 1.327 . S
C607 C611 1.429 . S
C608 C591 1.574 1_556 S
C608 H602 0.949 . S
C608 C612 1.368 . S
C609 C590 1.429 . S
C609 C603 1.429 . S
C609 C610 1.523 . S
C610 C591 1.368 . S
C610 C604 1.368 . S
C610 C609 1.523 . S
C611 C595 1.429 . S
C611 C607 1.429 . S
C611 C612 1.523 . S
C612 C596 1.368 . S
C612 C608 1.368 . S
C612 C611 1.523 . S
H613 C588 0.950 . S
H614 C590 0.950 . S
H615 C591 0.949 . S
H616 C593 0.950 . S
H617 C595 0.950 . S
C618 C619 1.349 . S
C618 C620 1.327 . S
C618 H643 0.950 . S
C619 C618 1.349 . S
C619 C635 1.349 . S
C620 C618 1.327 . S
C620 C639 1.429 . S
C620 H644 0.950 . S
C621 C638 1.574 . S
C621 C640 1.368 . S
C621 H645 0.949 . S
H622 C626 0.949 . S
C623 C624 1.349 . S
C623 C625 1.327 . S
C623 H646 0.950 . S
C624 C623 1.349 . S
C624 C636 1.349 . S
C625 C623 1.327 . S
C625 C641 1.429 . S
C625 H647 0.950 . S
C626 H622 0.949 . S
C626 C634 1.574 . S
C626 C642 1.368 . S
H627 C635 0.950 . S
H628 C633 0.950 . S
H629 C634 0.949 . S
H630 C636 0.950 . S
H631 C637 0.950 . S
H632 C638 0.949 . S
C633 H628 0.950 . S
C633 C635 1.327 . S
C633 C639 1.429 . S
C634 C626 1.574 . S
C634 H629 0.949 . S
C634 C640 1.368 . S
C635 C619 1.349 . S
C635 H627 0.950 . S
C635 C633 1.327 . S
C636 C624 1.349 . S
C636 H630 0.950 . S
C636 C637 1.327 . S
C637 H631 0.950 . S
C637 C636 1.327 . S
C637 C641 1.429 . S
C638 C621 1.574 . S
C638 H632 0.949 . S
C638 C642 1.368 . S
C639 C620 1.429 . S
C639 C633 1.429 . S
C639 C640 1.523 . S
C640 C621 1.368 . S
C640 C634 1.368 . S
C640 C639 1.523 . S
C641 C625 1.429 . S
C641 C637 1.429 . S
C641 C642 1.523 . S
C642 C626 1.368 . S
C642 C638 1.368 . S
C642 C641 1.523 . S
H643 C618 0.950 . S
H644 C620 0.950 . S
H645 C621 0.949 . S
H646 C623 0.950 . S
H647 C625 0.950 . S
C648 C649 1.349 . S
C648 C650 1.327 . S
C648 H673 0.950 . S
C649 C648 1.349 . S
C649 C665 1.349 . S
C650 C648 1.327 . S
C650 C669 1.429 . S
C650 H674 0.950 . S
C651 C668 1.574 . S
C651 C670 1.368 . S
C651 H675 0.949 . S
H652 C656 0.949 . S
C653 C654 1.349 . S
C653 C655 1.327 . S
C653 H676 0.950 . S
C654 C653 1.349 . S
C654 C666 1.349 . S
C655 C653 1.327 . S
C655 C671 1.429 . S
C655 H677 0.950 . S
C656 H652 0.949 . S
C656 C664 1.574 . S
C656 C672 1.368 . S
H657 C665 0.950 . S
H658 C663 0.950 . S
H659 C664 0.949 . S
H660 C666 0.950 . S
H661 C667 0.950 . S
H662 C668 0.949 . S
C663 H658 0.950 . S
C663 C665 1.327 . S
C663 C669 1.429 . S
C664 C656 1.574 . S
C664 H659 0.949 . S
C664 C670 1.368 . S
C665 C649 1.349 . S
C665 H657 0.950 . S
C665 C663 1.327 . S
C666 C654 1.349 . S
C666 H660 0.950 . S
C666 C667 1.327 . S
C667 H661 0.950 . S
C667 C666 1.327 . S
C667 C671 1.429 . S
C668 C651 1.574 . S
C668 H662 0.949 . S
C668 C672 1.368 . S
C669 C650 1.429 . S
C669 C663 1.429 . S
C669 C670 1.523 . S
C670 C651 1.368 . S
C670 C664 1.368 . S
C670 C669 1.523 . S
C671 C655 1.429 . S
C671 C667 1.429 . S
C671 C672 1.523 . S
C672 C656 1.368 . S
C672 C668 1.368 . S
C672 C671 1.523 . S
H673 C648 0.950 . S
H674 C650 0.950 . S
H675 C651 0.949 . S
H676 C653 0.950 . S
H677 C655 0.950 . S
C678 C679 1.349 . S
C678 C680 1.327 . S
C678 H703 0.950 . S
C679 C678 1.349 . S
C679 C695 1.349 . S
C680 C678 1.327 . S
C680 C699 1.429 . S
C680 H704 0.950 . S
C681 C698 1.574 1_556 S
C681 C700 1.368 . S
C681 H705 0.949 . S
H682 C686 0.949 . S
C683 C684 1.349 . S
C683 C685 1.327 . S
C683 H706 0.950 . S
C684 C683 1.349 . S
C684 C696 1.349 . S
C685 C683 1.327 . S
C685 C701 1.429 . S
C685 H707 0.950 . S
C686 H682 0.949 . S
C686 C694 1.574 1_554 S
C686 C702 1.368 . S
H687 C695 0.950 . S
H688 C693 0.950 . S
H689 C694 0.949 . S
H690 C696 0.950 . S
H691 C697 0.950 . S
H692 C698 0.949 . S
C693 H688 0.950 . S
C693 C695 1.327 . S
C693 C699 1.429 . S
C694 C686 1.574 1_556 S
C694 H689 0.949 . S
C694 C700 1.368 . S
C695 C679 1.349 . S
C695 H687 0.950 . S
C695 C693 1.327 . S
C696 C684 1.349 . S
C696 H690 0.950 . S
C696 C697 1.327 . S
C697 H691 0.950 . S
C697 C696 1.327 . S
C697 C701 1.429 . S
C698 C681 1.574 1_554 S
C698 H692 0.949 . S
C698 C702 1.368 . S
C699 C680 1.429 . S
C699 C693 1.429 . S
C699 C700 1.523 . S
C700 C681 1.368 . S
C700 C694 1.368 . S
C700 C699 1.523 . S
C701 C685 1.429 . S
C701 C697 1.429 . S
C701 C702 1.523 . S
C702 C686 1.368 . S
C702 C698 1.368 . S
C702 C701 1.523 . S
H703 C678 0.950 . S
H704 C680 0.950 . S
H705 C681 0.949 . S
H706 C683 0.950 . S
H707 C685 0.950 . S
C708 C709 1.349 . S
C708 C710 1.327 . S
C708 H733 0.950 . S
C709 C708 1.349 . S
C709 C725 1.349 . S
C710 C708 1.327 . S
C710 C729 1.429 . S
C710 H734 0.950 . S
C711 C728 1.574 . S
C711 C730 1.368 . S
C711 H735 0.949 . S
H712 C716 0.949 . S
C713 C714 1.349 . S
C713 C715 1.327 . S
C713 H736 0.950 . S
C714 C713 1.349 . S
C714 C726 1.349 . S
C715 C713 1.327 . S
C715 C731 1.429 . S
C715 H737 0.950 . S
C716 H712 0.949 . S
C716 C724 1.574 . S
C716 C732 1.368 . S
H717 C725 0.950 . S
H718 C723 0.950 . S
H719 C724 0.949 . S
H720 C726 0.950 . S
H721 C727 0.950 . S
H722 C728 0.949 . S
C723 H718 0.950 . S
C723 C725 1.327 . S
C723 C729 1.429 . S
C724 C716 1.574 . S
C724 H719 0.949 . S
C724 C730 1.368 . S
C725 C709 1.349 . S
C725 H717 0.950 . S
C725 C723 1.327 . S
C726 C714 1.349 . S
C726 H720 0.950 . S
C726 C727 1.327 . S
C727 H721 0.950 . S
C727 C726 1.327 . S
C727 C731 1.429 . S
C728 C711 1.574 . S
C728 H722 0.949 . S
C728 C732 1.368 . S
C729 C710 1.429 . S
C729 C723 1.429 . S
C729 C730 1.523 . S
C730 C711 1.368 . S
C730 C724 1.368 . S
C730 C729 1.523 . S
C731 C715 1.429 . S
C731 C727 1.429 . S
C731 C732 1.523 . S
C732 C716 1.368 . S
C732 C728 1.368 . S
C732 C731 1.523 . S
H733 C708 0.950 . S
H734 C710 0.950 . S
H735 C711 0.949 . S
H736 C713 0.950 . S
H737 C715 0.950 . S
C738 C739 1.349 . S
C738 C740 1.327 . S
C738 H763 0.950 . S
C739 C738 1.349 . S
C739 C755 1.349 . S
C740 C738 1.327 . S
C740 C759 1.429 . S
C740 H764 0.950 . S
C741 C758 1.574 . S
C741 C760 1.368 . S
C741 H765 0.949 . S
H742 C746 0.949 . S
C743 C744 1.349 . S
C743 C745 1.327 . S
C743 H766 0.950 . S
C744 C743 1.349 . S
C744 C756 1.349 . S
C745 C743 1.327 . S
C745 C761 1.429 . S
C745 H767 0.950 . S
C746 H742 0.949 . S
C746 C754 1.574 . S
C746 C762 1.368 . S
H747 C755 0.950 . S
H748 C753 0.950 . S
H749 C754 0.949 . S
H750 C756 0.950 . S
H751 C757 0.950 . S
H752 C758 0.949 . S
C753 H748 0.950 . S
C753 C755 1.327 . S
C753 C759 1.429 . S
C754 C746 1.574 . S
C754 H749 0.949 . S
C754 C760 1.368 . S
C755 C739 1.349 . S
C755 H747 0.950 . S
C755 C753 1.327 . S
C756 C744 1.349 . S
C756 H750 0.950 . S
C756 C757 1.327 . S
C757 H751 0.950 . S
C757 C756 1.327 . S
C757 C761 1.429 . S
C758 C741 1.574 . S
C758 H752 0.949 . S
C758 C762 1.368 . S
C759 C740 1.429 . S
C759 C753 1.429 . S
C759 C760 1.523 . S
C760 C741 1.368 . S
C760 C754 1.368 . S
C760 C759 1.523 . S
C761 C745 1.429 . S
C761 C757 1.429 . S
C761 C762 1.523 . S
C762 C746 1.368 . S
C762 C758 1.368 . S
C762 C761 1.523 . S
H763 C738 0.950 . S
H764 C740 0.950 . S
H765 C741 0.949 . S
H766 C743 0.950 . S
H767 C745 0.950 . S
C768 C769 1.349 . S
C768 C770 1.327 . S
C768 H793 0.950 . S
C769 C768 1.349 . S
C769 C785 1.349 . S
C770 C768 1.327 . S
C770 C789 1.429 . S
C770 H794 0.950 . S
C771 C788 1.574 . S
C771 C790 1.368 . S
C771 H795 0.949 . S
H772 C776 0.949 . S
C773 C774 1.349 . S
C773 C775 1.327 . S
C773 H796 0.950 . S
C774 C773 1.349 . S
C774 C786 1.349 . S
C775 C773 1.327 . S
C775 C791 1.429 . S
C775 H797 0.950 . S
C776 H772 0.949 . S
C776 C784 1.574 . S
C776 C792 1.368 . S
H777 C785 0.950 . S
H778 C783 0.950 . S
H779 C784 0.949 . S
H780 C786 0.950 . S
H781 C787 0.950 . S
H782 C788 0.949 . S
C783 H778 0.950 . S
C783 C785 1.327 . S
C783 C789 1.429 . S
C784 C776 1.574 . S
C784 H779 0.949 . S
C784 C790 1.368 . S
C785 C769 1.349 . S
C785 H777 0.950 . S
C785 C783 1.327 . S
C786 C774 1.349 . S
C786 H780 0.950 . S
C786 C787 1.327 . S
C787 H781 0.950 . S
C787 C786 1.327 . S
C787 C791 1.429 . S
C788 C771 1.574 . S
C788 H782 0.949 . S
C788 C792 1.368 . S
C789 C770 1.429 . S
C789 C783 1.429 . S
C789 C790 1.523 . S
C790 C771 1.368 . S
C790 C784 1.368 . S
C790 C789 1.523 . S
C791 C775 1.429 . S
C791 C787 1.429 . S
C791 C792 1.523 . S
C792 C776 1.368 . S
C792 C788 1.368 . S
C792 C791 1.523 . S
H793 C768 0.950 . S
H794 C770 0.950 . S
H795 C771 0.949 . S
H796 C773 0.950 . S
H797 C775 0.950 . S
C798 C799 1.349 . S
C798 C800 1.327 . S
C798 H823 0.950 . S
C799 C798 1.349 . S
C799 C815 1.349 . S
C800 C798 1.327 . S
C800 C819 1.429 . S
C800 H824 0.950 . S
C801 C818 1.574 . S
C801 C820 1.368 . S
C801 H825 0.949 . S
H802 C806 0.949 . S
C803 C804 1.349 . S
C803 C805 1.327 . S
C803 H826 0.950 . S
C804 C803 1.349 . S
C804 C816 1.349 . S
C805 C803 1.327 . S
C805 C821 1.429 . S
C805 H827 0.950 . S
C806 H802 0.949 . S
C806 C814 1.574 . S
C806 C822 1.368 . S
H807 C815 0.950 . S
H808 C813 0.950 . S
H809 C814 0.949 . S
H810 C816 0.950 . S
H811 C817 0.950 . S
H812 C818 0.949 . S
C813 H808 0.950 . S
C813 C815 1.327 . S
C813 C819 1.429 . S
C814 C806 1.574 . S
C814 H809 0.949 . S
C814 C820 1.368 . S
C815 C799 1.349 . S
C815 H807 0.950 . S
C815 C813 1.327 . S
C816 C804 1.349 . S
C816 H810 0.950 . S
C816 C817 1.327 . S
C817 H811 0.950 . S
C817 C816 1.327 . S
C817 C821 1.429 . S
C818 C801 1.574 . S
C818 H812 0.949 . S
C818 C822 1.368 . S
C819 C800 1.429 . S
C819 C813 1.429 . S
C819 C820 1.523 . S
C820 C801 1.368 . S
C820 C814 1.368 . S
C820 C819 1.523 . S
C821 C805 1.429 . S
C821 C817 1.429 . S
C821 C822 1.523 . S
C822 C806 1.368 . S
C822 C818 1.368 . S
C822 C821 1.523 . S
H823 C798 0.950 . S
H824 C800 0.950 . S
H825 C801 0.949 . S
H826 C803 0.950 . S
H827 C805 0.950 . S
C828 C829 1.349 . S
C828 C830 1.327 . S
C828 H853 0.950 . S
C829 C828 1.349 . S
C829 C845 1.349 . S
C830 C828 1.327 . S
C830 C849 1.429 . S
C830 H854 0.950 . S
C831 C848 1.574 . S
C831 C850 1.368 . S
C831 H855 0.949 . S
H832 C836 0.949 . S
C833 C834 1.349 . S
C833 C835 1.327 . S
C833 H856 0.950 . S
C834 C833 1.349 . S
C834 C846 1.349 . S
C835 C833 1.327 . S
C835 C851 1.429 . S
C835 H857 0.950 . S
C836 H832 0.949 . S
C836 C844 1.574 . S
C836 C852 1.368 . S
H837 C845 0.950 . S
H838 C843 0.950 . S
H839 C844 0.949 . S
H840 C846 0.950 . S
H841 C847 0.950 . S
H842 C848 0.949 . S
C843 H838 0.950 . S
C843 C845 1.327 . S
C843 C849 1.429 . S
C844 C836 1.574 . S
C844 H839 0.949 . S
C844 C850 1.368 . S
C845 C829 1.349 . S
C845 H837 0.950 . S
C845 C843 1.327 . S
C846 C834 1.349 . S
C846 H840 0.950 . S
C846 C847 1.327 . S
C847 H841 0.950 . S
C847 C846 1.327 . S
C847 C851 1.429 . S
C848 C831 1.574 . S
C848 H842 0.949 . S
C848 C852 1.368 . S
C849 C830 1.429 . S
C849 C843 1.429 . S
C849 C850 1.523 . S
C850 C831 1.368 . S
C850 C844 1.368 . S
C850 C849 1.523 . S
C851 C835 1.429 . S
C851 C847 1.429 . S
C851 C852 1.523 . S
C852 C836 1.368 . S
C852 C848 1.368 . S
C852 C851 1.523 . S
H853 C828 0.950 . S
H854 C830 0.950 . S
H855 C831 0.949 . S
H856 C833 0.950 . S
H857 C835 0.950 . S
C858 C859 1.349 . S
C858 C860 1.327 . S
C858 H883 0.950 . S
C859 C858 1.349 . S
C859 C875 1.349 . S
C860 C858 1.327 . S
C860 C879 1.429 . S
C860 H884 0.950 . S
C861 C878 1.574 . S
C861 C880 1.368 . S
C861 H885 0.949 . S
H862 C866 0.949 . S
C863 C864 1.349 . S
C863 C865 1.327 . S
C863 H886 0.950 . S
C864 C863 1.349 . S
C864 C876 1.349 . S
C865 C863 1.327 . S
C865 C881 1.429 . S
C865 H887 0.950 . S
C866 H862 0.949 . S
C866 C874 1.574 . S
C866 C882 1.368 . S
H867 C875 0.950 . S
H868 C873 0.950 . S
H869 C874 0.949 . S
H870 C876 0.950 . S
H871 C877 0.950 . S
H872 C878 0.949 . S
C873 H868 0.950 . S
C873 C875 1.327 . S
C873 C879 1.429 . S
C874 C866 1.574 . S
C874 H869 0.949 . S
C874 C880 1.368 . S
C875 C859 1.349 . S
C875 H867 0.950 . S
C875 C873 1.327 . S
C876 C864 1.349 . S
C876 H870 0.950 . S
C876 C877 1.327 . S
C877 H871 0.950 . S
C877 C876 1.327 . S
C877 C881 1.429 . S
C878 C861 1.574 . S
C878 H872 0.949 . S
C878 C882 1.368 . S
C879 C860 1.429 . S
C879 C873 1.429 . S
C879 C880 1.523 . S
C880 C861 1.368 . S
C880 C874 1.368 . S
C880 C879 1.523 . S
C881 C865 1.429 . S
C881 C877 1.429 . S
C881 C882 1.523 . S
C882 C866 1.368 . S
C882 C878 1.368 . S
C882 C881 1.523 . S
H883 C858 0.950 . S
H884 C860 0.950 . S
H885 C861 0.949 . S
H886 C863 0.950 . S
H887 C865 0.950 . S
C888 C889 1.349 . S
C888 C890 1.327 . S
C888 H913 0.950 . S
C889 C888 1.349 . S
C889 C905 1.349 . S
C890 C888 1.327 . S
C890 C909 1.429 . S
C890 H914 0.950 . S
C891 C908 1.574 . S
C891 C910 1.368 . S
C891 H915 0.949 . S
H892 C896 0.949 . S
C893 C894 1.349 . S
C893 C895 1.327 . S
C893 H916 0.950 . S
C894 C893 1.349 . S
C894 C906 1.349 . S
C895 C893 1.327 . S
C895 C911 1.429 . S
C895 H917 0.950 . S
C896 H892 0.949 . S
C896 C904 1.574 . S
C896 C912 1.368 . S
H897 C905 0.950 . S
H898 C903 0.950 . S
H899 C904 0.949 . S
H900 C906 0.950 . S
H901 C907 0.950 . S
H902 C908 0.949 . S
C903 H898 0.950 . S
C903 C905 1.327 . S
C903 C909 1.429 . S
C904 C896 1.574 . S
C904 H899 0.949 . S
C904 C910 1.368 . S
C905 C889 1.349 . S
C905 H897 0.950 . S
C905 C903 1.327 . S
C906 C894 1.349 . S
C906 H900 0.950 . S
C906 C907 1.327 . S
C907 H901 0.950 . S
C907 C906 1.327 . S
C907 C911 1.429 . S
C908 C891 1.574 . S
C908 H902 0.949 . S
C908 C912 1.368 . S
C909 C890 1.429 . S
C909 C903 1.429 . S
C909 C910 1.523 . S
C910 C891 1.368 . S
C910 C904 1.368 . S
C910 C909 1.523 . S
C911 C895 1.429 . S
C911 C907 1.429 . S
C911 C912 1.523 . S
C912 C896 1.368 . S
C912 C908 1.368 . S
C912 C911 1.523 . S
H913 C888 0.950 . S
H914 C890 0.950 . S
H915 C891 0.949 . S
H916 C893 0.950 . S
H917 C895 0.950 . S
C918 C919 1.349 . S
C918 C920 1.327 . S
C918 H943 0.950 . S
C919 C918 1.349 . S
C919 C935 1.349 . S
C920 C918 1.327 . S
C920 C939 1.429 . S
C920 H944 0.950 . S
C921 C938 1.574 . S
C921 C940 1.368 . S
C921 H945 0.949 . S
H922 C926 0.949 . S
C923 C924 1.349 . S
C923 C925 1.327 . S
C923 H946 0.950 . S
C924 C923 1.349 . S
C924 C936 1.349 . S
C925 C923 1.327 . S
C925 C941 1.429 . S
C925 H947 0.950 . S
C926 H922 0.949 . S
C926 C934 1.574 . S
C926 C942 1.368 . S
H927 C935 0.950 . S
H928 C933 0.950 . S
H929 C934 0.949 . S
H930 C936 0.950 . S
H931 C937 0.950 . S
H932 C938 0.949 . S
C933 H928 0.950 . S
C933 C935 1.327 . S
C933 C939 1.429 . S
C934 C926 1.574 . S
C934 H929 0.949 . S
C934 C940 1.368 . S
C935 C919 1.349 . S
C935 H927 0.950 . S
C935 C933 1.327 . S
C936 C924 1.349 . S
C936 H930 0.950 . S
C936 C937 1.327 . S
C937 H931 0.950 . S
C937 C936 1.327 . S
C937 C941 1.429 . S
C938 C921 1.574 . S
C938 H932 0.949 . S
C938 C942 1.368 . S
C939 C920 1.429 . S
C939 C933 1.429 . S
C939 C940 1.523 . S
C940 C921 1.368 . S
C940 C934 1.368 . S
C940 C939 1.523 . S
C941 C925 1.429 . S
C941 C937 1.429 . S
C941 C942 1.523 . S
C942 C926 1.368 . S
C942 C938 1.368 . S
C942 C941 1.523 . S
H943 C918 0.950 . S
H944 C920 0.950 . S
H945 C921 0.949 . S
H946 C923 0.950 . S
H947 C925 0.950 . S
C948 C949 1.349 . S
C948 C950 1.327 . S
C948 H973 0.950 . S
C949 C948 1.349 . S
C949 C965 1.349 . S
C950 C948 1.327 . S
C950 C969 1.429 . S
C950 H974 0.950 . S
C951 C968 1.574 . S
C951 C970 1.368 . S
C951 H975 0.949 . S
H952 C956 0.949 . S
C953 C954 1.349 . S
C953 C955 1.327 . S
C953 H976 0.950 . S
C954 C953 1.349 . S
C954 C966 1.349 . S
C955 C953 1.327 . S
C955 C971 1.429 . S
C955 H977 0.950 . S
C956 H952 0.949 . S
C956 C964 1.574 . S
C956 C972 1.368 . S
H957 C965 0.950 . S
H958 C963 0.950 . S
H959 C964 0.949 . S
H960 C966 0.950 . S
H961 C967 0.950 . S
H962 C968 0.949 . S
C963 H958 0.950 . S
C963 C965 1.327 . S
C963 C969 1.429 . S
C964 C956 1.574 . S
C964 H959 0.949 . S
C964 C970 1.368 . S
C965 C949 1.349 . S
C965 H957 0.950 . S
C965 C963 1.327 . S
C966 C954 1.349 . S
C966 H960 0.950 . S
C966 C967 1.327 . S
C967 H961 0.950 . S
C967 C966 1.327 . S
C967 C971 1.429 . S
C968 C951 1.574 . S
C968 H962 0.949 . S
C968 C972 1.368 . S
C969 C950 1.429 . S
C969 C963 1.429 . S
C969 C970 1.523 . S
C970 C951 1.368 . S
C970 C964 1.368 . S
C970 C969 1.523 . S
C971 C955 1.429 . S
C971 C967 1.429 . S
C971 C972 1.523 . S
C972 C956 1.368 . S
C972 C968 1.368 . S
C972 C971 1.523 . S
H973 C948 0.950 . S
H974 C950 0.950 . S
H975 C951 0.949 . S
H976 C953 0.950 . S
H977 C955 0.950 . S
C978 C979 1.349 . S
C978 C980 1.327 . S
C978 H1003 0.950 . S
C979 C978 1.349 . S
C979 C995 1.349 . S
C980 C978 1.327 . S
C980 C999 1.429 . S
C980 H1004 0.950 . S
C981 C998 1.574 . S
C981 C1000 1.368 . S
C981 H1005 0.949 . S
H982 C986 0.949 . S
C983 C984 1.349 . S
C983 C985 1.327 . S
C983 H1006 0.950 . S
C984 C983 1.349 . S
C984 C996 1.349 . S
C985 C983 1.327 . S
C985 C1001 1.429 . S
C985 H1007 0.950 . S
C986 H982 0.949 . S
C986 C994 1.574 . S
C986 C1002 1.368 . S
H987 C995 0.950 . S
H988 C993 0.950 . S
H989 C994 0.949 . S
H990 C996 0.950 . S
H991 C997 0.950 . S
H992 C998 0.949 . S
C993 H988 0.950 . S
C993 C995 1.327 . S
C993 C999 1.429 . S
C994 C986 1.574 . S
C994 H989 0.949 . S
C994 C1000 1.368 . S
C995 C979 1.349 . S
C995 H987 0.950 . S
C995 C993 1.327 . S
C996 C984 1.349 . S
C996 H990 0.950 . S
C996 C997 1.327 . S
C997 H991 0.950 . S
C997 C996 1.327 . S
C997 C1001 1.429 . S
C998 C981 1.574 . S
C998 H992 0.949 . S
C998 C1002 1.368 . S
C999 C980 1.429 . S
C999 C993 1.429 . S
C999 C1000 1.523 . S
C1000 C981 1.368 . S
C1000 C994 1.368 . S
C1000 C999 1.523 . S
C1001 C985 1.429 . S
C1001 C997 1.429 . S
C1001 C1002 1.523 . S
C1002 C986 1.368 . S
C1002 C998 1.368 . S
C1002 C1001 1.523 . S
H1003 C978 0.950 . S
H1004 C980 0.950 . S
H1005 C981 0.949 . S
H1006 C983 0.950 . S
H1007 C985 0.950 . S
C1008 C1009 1.349 . S
C1008 C1010 1.327 . S
C1008 H1033 0.950 . S
C1009 C1008 1.349 . S
C1009 C1025 1.349 . S
C1010 C1008 1.327 . S
C1010 C1029 1.429 . S
C1010 H1034 0.950 . S
C1011 C1028 1.574 . S
C1011 C1030 1.368 . S
C1011 H1035 0.949 . S
H1012 C1016 0.949 . S
C1013 C1014 1.349 . S
C1013 C1015 1.327 . S
C1013 H1036 0.950 . S
C1014 C1013 1.349 . S
C1014 C1026 1.349 . S
C1015 C1013 1.327 . S
C1015 C1031 1.429 . S
C1015 H1037 0.950 . S
C1016 H1012 0.949 . S
C1016 C1024 1.574 . S
C1016 C1032 1.368 . S
H1017 C1025 0.950 . S
H1018 C1023 0.950 . S
H1019 C1024 0.949 . S
H1020 C1026 0.950 . S
H1021 C1027 0.950 . S
H1022 C1028 0.949 . S
C1023 H1018 0.950 . S
C1023 C1025 1.327 . S
C1023 C1029 1.429 . S
C1024 C1016 1.574 . S
C1024 H1019 0.949 . S
C1024 C1030 1.368 . S
C1025 C1009 1.349 . S
C1025 H1017 0.950 . S
C1025 C1023 1.327 . S
C1026 C1014 1.349 . S
C1026 H1020 0.950 . S
C1026 C1027 1.327 . S
C1027 H1021 0.950 . S
C1027 C1026 1.327 . S
C1027 C1031 1.429 . S
C1028 C1011 1.574 . S
C1028 H1022 0.949 . S
C1028 C1032 1.368 . S
C1029 C1010 1.429 . S
C1029 C1023 1.429 . S
C1029 C1030 1.523 . S
C1030 C1011 1.368 . S
C1030 C1024 1.368 . S
C1030 C1029 1.523 . S
C1031 C1015 1.429 . S
C1031 C1027 1.429 . S
C1031 C1032 1.523 . S
C1032 C1016 1.368 . S
C1032 C1028 1.368 . S
C1032 C1031 1.523 . S
H1033 C1008 0.950 . S
H1034 C1010 0.950 . S
H1035 C1011 0.949 . S
H1036 C1013 0.950 . S
H1037 C1015 0.950 . S
C1038 C1039 1.349 . S
C1038 C1040 1.327 . S
C1038 H1063 0.950 . S
C1039 C1038 1.349 . S
C1039 C1055 1.349 . S
C1040 C1038 1.327 . S
C1040 C1059 1.429 . S
C1040 H1064 0.950 . S
C1041 C1058 1.574 . S
C1041 C1060 1.368 . S
C1041 H1065 0.949 . S
H1042 C1046 0.949 . S
C1043 C1044 1.349 . S
C1043 C1045 1.327 . S
C1043 H1066 0.950 . S
C1044 C1043 1.349 . S
C1044 C1056 1.349 . S
C1045 C1043 1.327 . S
C1045 C1061 1.429 . S
C1045 H1067 0.950 . S
C1046 H1042 0.949 . S
C1046 C1054 1.574 . S
C1046 C1062 1.368 . S
H1047 C1055 0.950 . S
H1048 C1053 0.950 . S
H1049 C1054 0.949 . S
H1050 C1056 0.950 . S
H1051 C1057 0.950 . S
H1052 C1058 0.949 . S
C1053 H1048 0.950 . S
C1053 C1055 1.327 . S
C1053 C1059 1.429 . S
C1054 C1046 1.574 . S
C1054 H1049 0.949 . S
C1054 C1060 1.368 . S
C1055 C1039 1.349 . S
C1055 H1047 0.950 . S
C1055 C1053 1.327 . S
C1056 C1044 1.349 . S
C1056 H1050 0.950 . S
C1056 C1057 1.327 . S
C1057 H1051 0.950 . S
C1057 C1056 1.327 . S
C1057 C1061 1.429 . S
C1058 C1041 1.574 . S
C1058 H1052 0.949 . S
C1058 C1062 1.368 . S
C1059 C1040 1.429 . S
C1059 C1053 1.429 . S
C1059 C1060 1.523 . S
C1060 C1041 1.368 . S
C1060 C1054 1.368 . S
C1060 C1059 1.523 . S
C1061 C1045 1.429 . S
C1061 C1057 1.429 . S
C1061 C1062 1.523 . S
C1062 C1046 1.368 . S
C1062 C1058 1.368 . S
C1062 C1061 1.523 . S
H1063 C1038 0.950 . S
H1064 C1040 0.950 . S
H1065 C1041 0.949 . S
H1066 C1043 0.950 . S
H1067 C1045 0.950 . S
C1068 C1069 1.349 . S
C1068 C1070 1.327 . S
C1068 H1093 0.950 . S
C1069 C1068 1.349 . S
C1069 C1085 1.349 . S
C1070 C1068 1.327 . S
C1070 C1089 1.429 . S
C1070 H1094 0.950 . S
C1071 C1088 1.574 . S
C1071 C1090 1.368 . S
C1071 H1095 0.949 . S
H1072 C1076 0.949 . S
C1073 C1074 1.349 . S
C1073 C1075 1.327 . S
C1073 H1096 0.950 . S
C1074 C1073 1.349 . S
C1074 C1086 1.349 . S
C1075 C1073 1.327 . S
C1075 C1091 1.429 . S
C1075 H1097 0.950 . S
C1076 H1072 0.949 . S
C1076 C1084 1.574 . S
C1076 C1092 1.368 . S
H1077 C1085 0.950 . S
H1078 C1083 0.950 . S
H1079 C1084 0.949 . S
H1080 C1086 0.950 . S
H1081 C1087 0.950 . S
H1082 C1088 0.949 . S
C1083 H1078 0.950 . S
C1083 C1085 1.327 . S
C1083 C1089 1.429 . S
C1084 C1076 1.574 . S
C1084 H1079 0.949 . S
C1084 C1090 1.368 . S
C1085 C1069 1.349 . S
C1085 H1077 0.950 . S
C1085 C1083 1.327 . S
C1086 C1074 1.349 . S
C1086 H1080 0.950 . S
C1086 C1087 1.327 . S
C1087 H1081 0.950 . S
C1087 C1086 1.327 . S
C1087 C1091 1.429 . S
C1088 C1071 1.574 . S
C1088 H1082 0.949 . S
C1088 C1092 1.368 . S
C1089 C1070 1.429 . S
C1089 C1083 1.429 . S
C1089 C1090 1.523 . S
C1090 C1071 1.368 . S
C1090 C1084 1.368 . S
C1090 C1089 1.523 . S
C1091 C1075 1.429 . S
C1091 C1087 1.429 . S
C1091 C1092 1.523 . S
C1092 C1076 1.368 . S
C1092 C1088 1.368 . S
C1092 C1091 1.523 . S
H1093 C1068 0.950 . S
H1094 C1070 0.950 . S
H1095 C1071 0.949 . S
H1096 C1073 0.950 . S
H1097 C1075 0.950 . S
C1098 C1099 1.349 . S
C1098 C1100 1.327 . S
C1098 H1123 0.950 . S
C1099 C1098 1.349 . S
C1099 C1115 1.349 . S
C1100 C1098 1.327 . S
C1100 C1119 1.429 . S
C1100 H1124 0.950 . S
C1101 C1118 1.574 . S
C1101 C1120 1.368 . S
C1101 H1125 0.949 . S
H1102 C1106 0.949 . S
C1103 C1104 1.349 . S
C1103 C1105 1.327 . S
C1103 H1126 0.950 . S
C1104 C1103 1.349 . S
C1104 C1116 1.349 . S
C1105 C1103 1.327 . S
C1105 C1121 1.429 . S
C1105 H1127 0.950 . S
C1106 H1102 0.949 . S
C1106 C1114 1.574 . S
C1106 C1122 1.368 . S
H1107 C1115 0.950 . S
H1108 C1113 0.950 . S
H1109 C1114 0.949 . S
H1110 C1116 0.950 . S
H1111 C1117 0.950 . S
H1112 C1118 0.949 . S
C1113 H1108 0.950 . S
C1113 C1115 1.327 . S
C1113 C1119 1.429 . S
C1114 C1106 1.574 . S
C1114 H1109 0.949 . S
C1114 C1120 1.368 . S
C1115 C1099 1.349 . S
C1115 H1107 0.950 . S
C1115 C1113 1.327 . S
C1116 C1104 1.349 . S
C1116 H1110 0.950 . S
C1116 C1117 1.327 . S
C1117 H1111 0.950 . S
C1117 C1116 1.327 . S
C1117 C1121 1.429 . S
C1118 C1101 1.574 . S
C1118 H1112 0.949 . S
C1118 C1122 1.368 . S
C1119 C1100 1.429 . S
C1119 C1113 1.429 . S
C1119 C1120 1.523 . S
C1120 C1101 1.368 . S
C1120 C1114 1.368 . S
C1120 C1119 1.523 . S
C1121 C1105 1.429 . S
C1121 C1117 1.429 . S
C1121 C1122 1.523 . S
C1122 C1106 1.368 . S
C1122 C1118 1.368 . S
C1122 C1121 1.523 . S
H1123 C1098 0.950 . S
H1124 C1100 0.950 . S
H1125 C1101 0.949 . S
H1126 C1103 0.950 . S
H1127 C1105 0.950 . S
C1128 C1129 1.349 . S
C1128 C1130 1.327 . S
C1128 H1153 0.950 . S
C1129 C1128 1.349 . S
C1129 C1145 1.349 . S
C1130 C1128 1.327 . S
C1130 C1149 1.429 . S
C1130 H1154 0.950 . S
C1131 C1148 1.574 . S
C1131 C1150 1.368 . S
C1131 H1155 0.949 . S
H1132 C1136 0.949 . S
C1133 C1134 1.349 . S
C1133 C1135 1.327 . S
C1133 H1156 0.950 . S
C1134 C1133 1.349 . S
C1134 C1146 1.349 . S
C1135 C1133 1.327 . S
C1135 C1151 1.429 . S
C1135 H1157 0.950 . S
C1136 H1132 0.949 . S
C1136 C1144 1.574 . S
C1136 C1152 1.368 . S
H1137 C1145 0.950 . S
H1138 C1143 0.950 . S
H1139 C1144 0.949 . S
H1140 C1146 0.950 . S
H1141 C1147 0.950 . S
H1142 C1148 0.949 . S
C1143 H1138 0.950 . S
C1143 C1145 1.327 . S
C1143 C1149 1.429 . S
C1144 C1136 1.574 . S
C1144 H1139 0.949 . S
C1144 C1150 1.368 . S
C1145 C1129 1.349 . S
C1145 H1137 0.950 . S
C1145 C1143 1.327 . S
C1146 C1134 1.349 . S
C1146 H1140 0.950 . S
C1146 C1147 1.327 . S
C1147 H1141 0.950 . S
C1147 C1146 1.327 . S
C1147 C1151 1.429 . S
C1148 C1131 1.574 . S
C1148 H1142 0.949 . S
C1148 C1152 1.368 . S
C1149 C1130 1.429 . S
C1149 C1143 1.429 . S
C1149 C1150 1.523 . S
C1150 C1131 1.368 . S
C1150 C1144 1.368 . S
C1150 C1149 1.523 . S
C1151 C1135 1.429 . S
C1151 C1147 1.429 . S
C1151 C1152 1.523 . S
C1152 C1136 1.368 . S
C1152 C1148 1.368 . S
C1152 C1151 1.523 . S
H1153 C1128 0.950 . S
H1154 C1130 0.950 . S
H1155 C1131 0.949 . S
H1156 C1133 0.950 . S
H1157 C1135 0.950 . S
C1158 C1159 1.349 . S
C1158 C1160 1.327 . S
C1158 H1183 0.950 . S
C1159 C1158 1.349 . S
C1159 C1175 1.349 . S
C1160 C1158 1.327 . S
C1160 C1179 1.429 . S
C1160 H1184 0.950 . S
C1161 C1178 1.574 . S
C1161 C1180 1.368 . S
C1161 H1185 0.949 . S
H1162 C1166 0.949 . S
C1163 C1164 1.349 . S
C1163 C1165 1.327 . S
C1163 H1186 0.950 . S
C1164 C1163 1.349 . S
C1164 C1176 1.349 . S
C1165 C1163 1.327 . S
C1165 C1181 1.429 . S
C1165 H1187 0.950 . S
C1166 H1162 0.949 . S
C1166 C1174 1.574 . S
C1166 C1182 1.368 . S
H1167 C1175 0.950 . S
H1168 C1173 0.950 . S
H1169 C1174 0.949 . S
H1170 C1176 0.950 . S
H1171 C1177 0.950 . S
H1172 C1178 0.949 . S
C1173 H1168 0.950 . S
C1173 C1175 1.327 . S
C1173 C1179 1.429 . S
C1174 C1166 1.574 . S
C1174 H1169 0.949 . S
C1174 C1180 1.368 . S
C1175 C1159 1.349 . S
C1175 H1167 0.950 . S
C1175 C1173 1.327 . S
C1176 C1164 1.349 . S
C1176 H1170 0.950 . S
C1176 C1177 1.327 . S
C1177 H1171 0.950 . S
C1177 C1176 1.327 . S
C1177 C1181 1.429 . S
C1178 C1161 1.574 . S
C1178 H1172 0.949 . S
C1178 C1182 1.368 . S
C1179 C1160 1.429 . S
C1179 C1173 1.429 . S
C1179 C1180 1.523 . S
C1180 C1161 1.368 . S
C1180 C1174 1.368 . S
C1180 C1179 1.523 . S
C1181 C1165 1.429 . S
C1181 C1177 1.429 . S
C1181 C1182 1.523 . S
C1182 C1166 1.368 . S
C1182 C1178 1.368 . S
C1182 C1181 1.523 . S
H1183 C1158 0.950 . S
H1184 C1160 0.950 . S
H1185 C1161 0.949 . S
H1186 C1163 0.950 . S
H1187 C1165 0.950 . S
C1188 C1189 1.349 . S
C1188 C1190 1.327 . S
C1188 H1213 0.950 . S
C1189 C1188 1.349 . S
C1189 C1205 1.349 . S
C1190 C1188 1.327 . S
C1190 C1209 1.429 . S
C1190 H1214 0.950 . S
C1191 C1208 1.574 . S
C1191 C1210 1.368 . S
C1191 H1215 0.949 . S
H1192 C1196 0.949 . S
C1193 C1194 1.349 . S
C1193 C1195 1.327 . S
C1193 H1216 0.950 . S
C1194 C1193 1.349 . S
C1194 C1206 1.349 . S
C1195 C1193 1.327 . S
C1195 C1211 1.429 . S
C1195 H1217 0.950 . S
C1196 H1192 0.949 . S
C1196 C1204 1.574 . S
C1196 C1212 1.368 . S
H1197 C1205 0.950 . S
H1198 C1203 0.950 . S
H1199 C1204 0.949 . S
H1200 C1206 0.950 . S
H1201 C1207 0.950 . S
H1202 C1208 0.949 . S
C1203 H1198 0.950 . S
C1203 C1205 1.327 . S
C1203 C1209 1.429 . S
C1204 C1196 1.574 . S
C1204 H1199 0.949 . S
C1204 C1210 1.368 . S
C1205 C1189 1.349 . S
C1205 H1197 0.950 . S
C1205 C1203 1.327 . S
C1206 C1194 1.349 . S
C1206 H1200 0.950 . S
C1206 C1207 1.327 . S
C1207 H1201 0.950 . S
C1207 C1206 1.327 . S
C1207 C1211 1.429 . S
C1208 C1191 1.574 . S
C1208 H1202 0.949 . S
C1208 C1212 1.368 . S
C1209 C1190 1.429 . S
C1209 C1203 1.429 . S
C1209 C1210 1.523 . S
C1210 C1191 1.368 . S
C1210 C1204 1.368 . S
C1210 C1209 1.523 . S
C1211 C1195 1.429 . S
C1211 C1207 1.429 . S
C1211 C1212 1.523 . S
C1212 C1196 1.368 . S
C1212 C1208 1.368 . S
C1212 C1211 1.523 . S
H1213 C1188 0.950 . S
H1214 C1190 0.950 . S
H1215 C1191 0.949 . S
H1216 C1193 0.950 . S
H1217 C1195 0.950 . S
C1218 C1219 1.349 . S
C1218 C1220 1.327 . S
C1218 H1243 0.950 . S
C1219 C1218 1.349 . S
C1219 C1235 1.349 . S
C1220 C1218 1.327 . S
C1220 C1239 1.429 . S
C1220 H1244 0.950 . S
C1221 C1238 1.574 . S
C1221 C1240 1.368 . S
C1221 H1245 0.949 . S
H1222 C1226 0.949 . S
C1223 C1224 1.349 . S
C1223 C1225 1.327 . S
C1223 H1246 0.950 . S
C1224 C1223 1.349 . S
C1224 C1236 1.349 . S
C1225 C1223 1.327 . S
C1225 C1241 1.429 . S
C1225 H1247 0.950 . S
C1226 H1222 0.949 . S
C1226 C1234 1.574 . S
C1226 C1242 1.368 . S
H1227 C1235 0.950 . S
H1228 C1233 0.950 . S
H1229 C1234 0.949 . S
H1230 C1236 0.950 . S
H1231 C1237 0.950 . S
H1232 C1238 0.949 . S
C1233 H1228 0.950 . S
C1233 C1235 1.327 . S
C1233 C1239 1.429 . S
C1234 C1226 1.574 . S
C1234 H1229 0.949 . S
C1234 C1240 1.368 . S
C1235 C1219 1.349 . S
C1235 H1227 0.950 . S
C1235 C1233 1.327 . S
C1236 C1224 1.349 . S
C1236 H1230 0.950 . S
C1236 C1237 1.327 . S
C1237 H1231 0.950 . S
C1237 C1236 1.327 . S
C1237 C1241 1.429 . S
C1238 C1221 1.574 . S
C1238 H1232 0.949 . S
C1238 C1242 1.368 . S
C1239 C1220 1.429 . S
C1239 C1233 1.429 . S
C1239 C1240 1.523 . S
C1240 C1221 1.368 . S
C1240 C1234 1.368 . S
C1240 C1239 1.523 . S
C1241 C1225 1.429 . S
C1241 C1237 1.429 . S
C1241 C1242 1.523 . S
C1242 C1226 1.368 . S
C1242 C1238 1.368 . S
C1242 C1241 1.523 . S
H1243 C1218 0.950 . S
H1244 C1220 0.950 . S
H1245 C1221 0.949 . S
H1246 C1223 0.950 . S
H1247 C1225 0.950 . S
C1248 C1249 1.349 . S
C1248 C1250 1.327 . S
C1248 H1273 0.950 . S
C1249 C1248 1.349 . S
C1249 C1265 1.349 . S
C1250 C1248 1.327 . S
C1250 C1269 1.429 . S
C1250 H1274 0.950 . S
C1251 C1268 1.574 1_445 S
C1251 C1270 1.368 . S
C1251 H1275 0.949 . S
H1252 C1256 0.949 . S
C1253 C1254 1.349 . S
C1253 C1255 1.327 . S
C1253 H1276 0.950 . S
C1254 C1253 1.349 . S
C1254 C1266 1.349 . S
C1255 C1253 1.327 . S
C1255 C1271 1.429 . S
C1255 H1277 0.950 . S
C1256 H1252 0.949 . S
C1256 C1264 1.574 1_665 S
C1256 C1272 1.368 . S
H1257 C1265 0.950 . S
H1258 C1263 0.950 . S
H1259 C1264 0.949 . S
H1260 C1266 0.950 . S
H1261 C1267 0.950 . S
H1262 C1268 0.949 . S
C1263 H1258 0.950 . S
C1263 C1265 1.327 . S
C1263 C1269 1.429 . S
C1264 C1256 1.574 1_445 S
C1264 H1259 0.949 . S
C1264 C1270 1.368 . S
C1265 C1249 1.349 . S
C1265 H1257 0.950 . S
C1265 C1263 1.327 . S
C1266 C1254 1.349 . S
C1266 H1260 0.950 . S
C1266 C1267 1.327 . S
C1267 H1261 0.950 . S
C1267 C1266 1.327 . S
C1267 C1271 1.429 . S
C1268 C1251 1.574 1_665 S
C1268 H1262 0.949 . S
C1268 C1272 1.368 . S
C1269 C1250 1.429 . S
C1269 C1263 1.429 . S
C1269 C1270 1.523 . S
C1270 C1251 1.368 . S
C1270 C1264 1.368 . S
C1270 C1269 1.523 . S
C1271 C1255 1.429 . S
C1271 C1267 1.429 . S
C1271 C1272 1.523 . S
C1272 C1256 1.368 . S
C1272 C1268 1.368 . S
C1272 C1271 1.523 . S
H1273 C1248 0.950 . S
H1274 C1250 0.950 . S
H1275 C1251 0.949 . S
H1276 C1253 0.950 . S
H1277 C1255 0.950 . S
C1278 C1279 1.349 . S
C1278 C1280 1.327 . S
C1278 H1303 0.950 . S
C1279 C1278 1.349 . S
C1279 C1295 1.349 . S
C1280 C1278 1.327 . S
C1280 C1299 1.429 . S
C1280 H1304 0.950 . S
C1281 C1298 1.574 1_455 S
C1281 C1300 1.368 . S
C1281 H1305 0.949 . S
H1282 C1286 0.949 . S
C1283 C1284 1.349 . S
C1283 C1285 1.327 . S
C1283 H1306 0.950 . S
C1284 C1283 1.349 . S
C1284 C1296 1.349 . S
C1285 C1283 1.327 . S
C1285 C1301 1.429 . S
C1285 H1307 0.950 . S
C1286 H1282 0.949 . S
C1286 C1294 1.574 1_655 S
C1286 C1302 1.368 . S
H1287 C1295 0.950 . S
H1288 C1293 0.950 . S
H1289 C1294 0.949 . S
H1290 C1296 0.950 . S
H1291 C1297 0.950 . S
H1292 C1298 0.949 . S
C1293 H1288 0.950 . S
C1293 C1295 1.327 . S
C1293 C1299 1.429 . S
C1294 C1286 1.574 1_455 S
C1294 H1289 0.949 . S
C1294 C1300 1.368 . S
C1295 C1279 1.349 . S
C1295 H1287 0.950 . S
C1295 C1293 1.327 . S
C1296 C1284 1.349 . S
C1296 H1290 0.950 . S
C1296 C1297 1.327 . S
C1297 H1291 0.950 . S
C1297 C1296 1.327 . S
C1297 C1301 1.429 . S
C1298 C1281 1.574 1_655 S
C1298 H1292 0.949 . S
C1298 C1302 1.368 . S
C1299 C1280 1.429 . S
C1299 C1293 1.429 . S
C1299 C1300 1.523 . S
C1300 C1281 1.368 . S
C1300 C1294 1.368 . S
C1300 C1299 1.523 . S
C1301 C1285 1.429 . S
C1301 C1297 1.429 . S
C1301 C1302 1.523 . S
C1302 C1286 1.368 . S
C1302 C1298 1.368 . S
C1302 C1301 1.523 . S
H1303 C1278 0.950 . S
H1304 C1280 0.950 . S
H1305 C1281 0.949 . S
H1306 C1283 0.950 . S
H1307 C1285 0.950 . S
C1308 C1309 1.349 . S
C1308 C1310 1.327 . S
C1308 H1333 0.950 . S
C1309 C1308 1.349 . S
C1309 C1325 1.349 . S
C1310 C1308 1.327 . S
C1310 C1329 1.429 . S
C1310 H1334 0.950 . S
C1311 C1328 1.574 . S
C1311 C1330 1.368 . S
C1311 H1335 0.949 . S
H1312 C1316 0.949 . S
C1313 C1314 1.349 . S
C1313 C1315 1.327 . S
C1313 H1336 0.950 . S
C1314 C1313 1.349 . S
C1314 C1326 1.349 . S
C1315 C1313 1.327 . S
C1315 C1331 1.429 . S
C1315 H1337 0.950 . S
C1316 H1312 0.949 . S
C1316 C1324 1.574 . S
C1316 C1332 1.368 . S
H1317 C1325 0.950 . S
H1318 C1323 0.950 . S
H1319 C1324 0.949 . S
H1320 C1326 0.950 . S
H1321 C1327 0.950 . S
H1322 C1328 0.949 . S
C1323 H1318 0.950 . S
C1323 C1325 1.327 . S
C1323 C1329 1.429 . S
C1324 C1316 1.574 . S
C1324 H1319 0.949 . S
C1324 C1330 1.368 . S
C1325 C1309 1.349 . S
C1325 H1317 0.950 . S
C1325 C1323 1.327 . S
C1326 C1314 1.349 . S
C1326 H1320 0.950 . S
C1326 C1327 1.327 . S
C1327 H1321 0.950 . S
C1327 C1326 1.327 . S
C1327 C1331 1.429 . S
C1328 C1311 1.574 . S
C1328 H1322 0.949 . S
C1328 C1332 1.368 . S
C1329 C1310 1.429 . S
C1329 C1323 1.429 . S
C1329 C1330 1.523 . S
C1330 C1311 1.368 . S
C1330 C1324 1.368 . S
C1330 C1329 1.523 . S
C1331 C1315 1.429 . S
C1331 C1327 1.429 . S
C1331 C1332 1.523 . S
C1332 C1316 1.368 . S
C1332 C1328 1.368 . S
C1332 C1331 1.523 . S
H1333 C1308 0.950 . S
H1334 C1310 0.950 . S
H1335 C1311 0.949 . S
H1336 C1313 0.950 . S
H1337 C1315 0.950 . S
C1338 C1339 1.349 . S
C1338 C1340 1.327 . S
C1338 H1363 0.950 . S
C1339 C1338 1.349 . S
C1339 C1355 1.349 . S
C1340 C1338 1.327 . S
C1340 C1359 1.429 . S
C1340 H1364 0.950 . S
C1341 C1358 1.574 1_545 S
C1341 C1360 1.368 . S
C1341 H1365 0.949 . S
H1342 C1346 0.949 . S
C1343 C1344 1.349 . S
C1343 C1345 1.327 . S
C1343 H1366 0.950 . S
C1344 C1343 1.349 . S
C1344 C1356 1.349 . S
C1345 C1343 1.327 . S
C1345 C1361 1.429 . S
C1345 H1367 0.950 . S
C1346 H1342 0.949 . S
C1346 C1354 1.574 1_565 S
C1346 C1362 1.368 . S
H1347 C1355 0.950 . S
H1348 C1353 0.950 . S
H1349 C1354 0.949 . S
H1350 C1356 0.950 . S
H1351 C1357 0.950 . S
H1352 C1358 0.949 . S
C1353 H1348 0.950 . S
C1353 C1355 1.327 . S
C1353 C1359 1.429 . S
C1354 C1346 1.574 1_545 S
C1354 H1349 0.949 . S
C1354 C1360 1.368 . S
C1355 C1339 1.349 . S
C1355 H1347 0.950 . S
C1355 C1353 1.327 . S
C1356 C1344 1.349 . S
C1356 H1350 0.950 . S
C1356 C1357 1.327 . S
C1357 H1351 0.950 . S
C1357 C1356 1.327 . S
C1357 C1361 1.429 . S
C1358 C1341 1.574 1_565 S
C1358 H1352 0.949 . S
C1358 C1362 1.368 . S
C1359 C1340 1.429 . S
C1359 C1353 1.429 . S
C1359 C1360 1.523 . S
C1360 C1341 1.368 . S
C1360 C1354 1.368 . S
C1360 C1359 1.523 . S
C1361 C1345 1.429 . S
C1361 C1357 1.429 . S
C1361 C1362 1.523 . S
C1362 C1346 1.368 . S
C1362 C1358 1.368 . S
C1362 C1361 1.523 . S
H1363 C1338 0.950 . S
H1364 C1340 0.950 . S
H1365 C1341 0.949 . S
H1366 C1343 0.950 . S
H1367 C1345 0.950 . S
C1368 C1369 1.349 . S
C1368 C1370 1.327 . S
C1368 H1393 0.950 . S
C1369 C1368 1.349 . S
C1369 C1385 1.349 . S
C1370 C1368 1.327 . S
C1370 C1389 1.429 . S
C1370 H1394 0.950 . S
C1371 C1388 1.574 1_455 S
C1371 C1390 1.368 . S
C1371 H1395 0.949 . S
H1372 C1376 0.949 . S
C1373 C1374 1.349 . S
C1373 C1375 1.327 . S
C1373 H1396 0.950 . S
C1374 C1373 1.349 . S
C1374 C1386 1.349 . S
C1375 C1373 1.327 . S
C1375 C1391 1.429 . S
C1375 H1397 0.950 . S
C1376 H1372 0.949 . S
C1376 C1384 1.574 1_655 S
C1376 C1392 1.368 . S
H1377 C1385 0.950 . S
H1378 C1383 0.950 . S
H1379 C1384 0.949 . S
H1380 C1386 0.950 . S
H1381 C1387 0.950 . S
H1382 C1388 0.949 . S
C1383 H1378 0.950 . S
C1383 C1385 1.327 . S
C1383 C1389 1.429 . S
C1384 C1376 1.574 1_455 S
C1384 H1379 0.949 . S
C1384 C1390 1.368 . S
C1385 C1369 1.349 . S
C1385 H1377 0.950 . S
C1385 C1383 1.327 . S
C1386 C1374 1.349 . S
C1386 H1380 0.950 . S
C1386 C1387 1.327 . S
C1387 H1381 0.950 . S
C1387 C1386 1.327 . S
C1387 C1391 1.429 . S
C1388 C1371 1.574 1_655 S
C1388 H1382 0.949 . S
C1388 C1392 1.368 . S
C1389 C1370 1.429 . S
C1389 C1383 1.429 . S
C1389 C1390 1.523 . S
C1390 C1371 1.368 . S
C1390 C1384 1.368 . S
C1390 C1389 1.523 . S
C1391 C1375 1.429 . S
C1391 C1387 1.429 . S
C1391 C1392 1.523 . S
C1392 C1376 1.368 . S
C1392 C1388 1.368 . S
C1392 C1391 1.523 . S
H1393 C1368 0.950 . S
H1394 C1370 0.950 . S
H1395 C1371 0.949 . S
H1396 C1373 0.950 . S
H1397 C1375 0.950 . S
C1398 C1399 1.349 . S
C1398 C1400 1.327 . S
C1398 H1423 0.950 . S
C1399 C1398 1.349 . S
C1399 C1415 1.349 . S
C1400 C1398 1.327 . S
C1400 C1419 1.429 . S
C1400 H1424 0.950 . S
C1401 C1418 1.574 . S
C1401 C1420 1.368 . S
C1401 H1425 0.949 . S
H1402 C1406 0.949 . S
C1403 C1404 1.349 . S
C1403 C1405 1.327 . S
C1403 H1426 0.950 . S
C1404 C1403 1.349 . S
C1404 C1416 1.349 . S
C1405 C1403 1.327 . S
C1405 C1421 1.429 . S
C1405 H1427 0.950 . S
C1406 H1402 0.949 . S
C1406 C1414 1.574 . S
C1406 C1422 1.368 . S
H1407 C1415 0.950 . S
H1408 C1413 0.950 . S
H1409 C1414 0.949 . S
H1410 C1416 0.950 . S
H1411 C1417 0.950 . S
H1412 C1418 0.949 . S
C1413 H1408 0.950 . S
C1413 C1415 1.327 . S
C1413 C1419 1.429 . S
C1414 C1406 1.574 . S
C1414 H1409 0.949 . S
C1414 C1420 1.368 . S
C1415 C1399 1.349 . S
C1415 H1407 0.950 . S
C1415 C1413 1.327 . S
C1416 C1404 1.349 . S
C1416 H1410 0.950 . S
C1416 C1417 1.327 . S
C1417 H1411 0.950 . S
C1417 C1416 1.327 . S
C1417 C1421 1.429 . S
C1418 C1401 1.574 . S
C1418 H1412 0.949 . S
C1418 C1422 1.368 . S
C1419 C1400 1.429 . S
C1419 C1413 1.429 . S
C1419 C1420 1.523 . S
C1420 C1401 1.368 . S
C1420 C1414 1.368 . S
C1420 C1419 1.523 . S
C1421 C1405 1.429 . S
C1421 C1417 1.429 . S
C1421 C1422 1.523 . S
C1422 C1406 1.368 . S
C1422 C1418 1.368 . S
C1422 C1421 1.523 . S
H1423 C1398 0.950 . S
H1424 C1400 0.950 . S
H1425 C1401 0.949 . S
H1426 C1403 0.950 . S
H1427 C1405 0.950 . S
C1428 C1429 1.349 . S
C1428 C1430 1.327 . S
C1428 H1453 0.950 . S
C1429 C1428 1.349 . S
C1429 C1445 1.349 . S
C1430 C1428 1.327 . S
C1430 C1449 1.429 . S
C1430 H1454 0.950 . S
C1431 C1448 1.574 1_565 S
C1431 C1450 1.368 . S
C1431 H1455 0.949 . S
H1432 C1436 0.949 . S
C1433 C1434 1.349 . S
C1433 C1435 1.327 . S
C1433 H1456 0.950 . S
C1434 C1433 1.349 . S
C1434 C1446 1.349 . S
C1435 C1433 1.327 . S
C1435 C1451 1.429 . S
C1435 H1457 0.950 . S
C1436 H1432 0.949 . S
C1436 C1444 1.574 1_545 S
C1436 C1452 1.368 . S
H1437 C1445 0.950 . S
H1438 C1443 0.950 . S
H1439 C1444 0.949 . S
H1440 C1446 0.950 . S
H1441 C1447 0.950 . S
H1442 C1448 0.949 . S
C1443 H1438 0.950 . S
C1443 C1445 1.327 . S
C1443 C1449 1.429 . S
C1444 C1436 1.574 1_565 S
C1444 H1439 0.949 . S
C1444 C1450 1.368 . S
C1445 C1429 1.349 . S
C1445 H1437 0.950 . S
C1445 C1443 1.327 . S
C1446 C1434 1.349 . S
C1446 H1440 0.950 . S
C1446 C1447 1.327 . S
C1447 H1441 0.950 . S
C1447 C1446 1.327 . S
C1447 C1451 1.429 . S
C1448 C1431 1.574 1_545 S
C1448 H1442 0.949 . S
C1448 C1452 1.368 . S
C1449 C1430 1.429 . S
C1449 C1443 1.429 . S
C1449 C1450 1.523 . S
C1450 C1431 1.368 . S
C1450 C1444 1.368 . S
C1450 C1449 1.523 . S
C1451 C1435 1.429 . S
C1451 C1447 1.429 . S
C1451 C1452 1.523 . S
C1452 C1436 1.368 . S
C1452 C1448 1.368 . S
C1452 C1451 1.523 . S
H1453 C1428 0.950 . S
H1454 C1430 0.950 . S
H1455 C1431 0.949 . S
H1456 C1433 0.950 . S
H1457 C1435 0.950 . S
C1458 C1459 1.349 . S
C1458 C1460 1.327 . S
C1458 H1483 0.950 . S
C1459 C1458 1.349 . S
C1459 C1475 1.349 . S
C1460 C1458 1.327 . S
C1460 C1479 1.429 . S
C1460 H1484 0.950 . S
C1461 C1478 1.574 1_445 S
C1461 C1480 1.368 . S
C1461 H1485 0.949 . S
H1462 C1466 0.949 . S
C1463 C1464 1.349 . S
C1463 C1465 1.327 . S
C1463 H1486 0.950 . S
C1464 C1463 1.349 . S
C1464 C1476 1.349 . S
C1465 C1463 1.327 . S
C1465 C1481 1.429 . S
C1465 H1487 0.950 . S
C1466 H1462 0.949 . S
C1466 C1474 1.574 1_665 S
C1466 C1482 1.368 . S
H1467 C1475 0.950 . S
H1468 C1473 0.950 . S
H1469 C1474 0.949 . S
H1470 C1476 0.950 . S
H1471 C1477 0.950 . S
H1472 C1478 0.949 . S
C1473 H1468 0.950 . S
C1473 C1475 1.327 . S
C1473 C1479 1.429 . S
C1474 C1466 1.574 1_445 S
C1474 H1469 0.949 . S
C1474 C1480 1.368 . S
C1475 C1459 1.349 . S
C1475 H1467 0.950 . S
C1475 C1473 1.327 . S
C1476 C1464 1.349 . S
C1476 H1470 0.950 . S
C1476 C1477 1.327 . S
C1477 H1471 0.950 . S
C1477 C1476 1.327 . S
C1477 C1481 1.429 . S
C1478 C1461 1.574 1_665 S
C1478 H1472 0.949 . S
C1478 C1482 1.368 . S
C1479 C1460 1.429 . S
C1479 C1473 1.429 . S
C1479 C1480 1.523 . S
C1480 C1461 1.368 . S
C1480 C1474 1.368 . S
C1480 C1479 1.523 . S
C1481 C1465 1.429 . S
C1481 C1477 1.429 . S
C1481 C1482 1.523 . S
C1482 C1466 1.368 . S
C1482 C1478 1.368 . S
C1482 C1481 1.523 . S
H1483 C1458 0.950 . S
H1484 C1460 0.950 . S
H1485 C1461 0.949 . S
H1486 C1463 0.950 . S
H1487 C1465 0.950 . S
C1488 C1489 1.349 . S
C1488 C1490 1.327 . S
C1488 H1513 0.950 . S
C1489 C1488 1.349 . S
C1489 C1505 1.349 . S
C1490 C1488 1.327 . S
C1490 C1509 1.429 . S
C1490 H1514 0.950 . S
C1491 C1508 1.574 . S
C1491 C1510 1.368 . S
C1491 H1515 0.949 . S
H1492 C1496 0.949 . S
C1493 C1494 1.349 . S
C1493 C1495 1.327 . S
C1493 H1516 0.950 . S
C1494 C1493 1.349 . S
C1494 C1506 1.349 . S
C1495 C1493 1.327 . S
C1495 C1511 1.429 . S
C1495 H1517 0.950 . S
C1496 H1492 0.949 . S
C1496 C1504 1.574 . S
C1496 C1512 1.368 . S
H1497 C1505 0.950 . S
H1498 C1503 0.950 . S
H1499 C1504 0.949 . S
H1500 C1506 0.950 . S
H1501 C1507 0.950 . S
H1502 C1508 0.949 . S
C1503 H1498 0.950 . S
C1503 C1505 1.327 . S
C1503 C1509 1.429 . S
C1504 C1496 1.574 . S
C1504 H1499 0.949 . S
C1504 C1510 1.368 . S
C1505 C1489 1.349 . S
C1505 H1497 0.950 . S
C1505 C1503 1.327 . S
C1506 C1494 1.349 . S
C1506 H1500 0.950 . S
C1506 C1507 1.327 . S
C1507 H1501 0.950 . S
C1507 C1506 1.327 . S
C1507 C1511 1.429 . S
C1508 C1491 1.574 . S
C1508 H1502 0.949 . S
C1508 C1512 1.368 . S
C1509 C1490 1.429 . S
C1509 C1503 1.429 . S
C1509 C1510 1.523 . S
C1510 C1491 1.368 . S
C1510 C1504 1.368 . S
C1510 C1509 1.523 . S
C1511 C1495 1.429 . S
C1511 C1507 1.429 . S
C1511 C1512 1.523 . S
C1512 C1496 1.368 . S
C1512 C1508 1.368 . S
C1512 C1511 1.523 . S
H1513 C1488 0.950 . S
H1514 C1490 0.950 . S
H1515 C1491 0.949 . S
H1516 C1493 0.950 . S
H1517 C1495 0.950 . S
C1518 C1519 1.349 . S
C1518 C1520 1.327 . S
C1518 H1543 0.950 . S
C1519 C1518 1.349 . S
C1519 C1535 1.349 . S
C1520 C1518 1.327 . S
C1520 C1539 1.429 . S
C1520 H1544 0.950 . S
C1521 C1538 1.574 . S
C1521 C1540 1.368 . S
C1521 H1545 0.949 . S
H1522 C1526 0.949 . S
C1523 C1524 1.349 . S
C1523 C1525 1.327 . S
C1523 H1546 0.950 . S
C1524 C1523 1.349 . S
C1524 C1536 1.349 . S
C1525 C1523 1.327 . S
C1525 C1541 1.429 . S
C1525 H1547 0.950 . S
C1526 H1522 0.949 . S
C1526 C1534 1.574 . S
C1526 C1542 1.368 . S
H1527 C1535 0.950 . S
H1528 C1533 0.950 . S
H1529 C1534 0.949 . S
H1530 C1536 0.950 . S
H1531 C1537 0.950 . S
H1532 C1538 0.949 . S
C1533 H1528 0.950 . S
C1533 C1535 1.327 . S
C1533 C1539 1.429 . S
C1534 C1526 1.574 . S
C1534 H1529 0.949 . S
C1534 C1540 1.368 . S
C1535 C1519 1.349 . S
C1535 H1527 0.950 . S
C1535 C1533 1.327 . S
C1536 C1524 1.349 . S
C1536 H1530 0.950 . S
C1536 C1537 1.327 . S
C1537 H1531 0.950 . S
C1537 C1536 1.327 . S
C1537 C1541 1.429 . S
C1538 C1521 1.574 . S
C1538 H1532 0.949 . S
C1538 C1542 1.368 . S
C1539 C1520 1.429 . S
C1539 C1533 1.429 . S
C1539 C1540 1.523 . S
C1540 C1521 1.368 . S
C1540 C1534 1.368 . S
C1540 C1539 1.523 . S
C1541 C1525 1.429 . S
C1541 C1537 1.429 . S
C1541 C1542 1.523 . S
C1542 C1526 1.368 . S
C1542 C1538 1.368 . S
C1542 C1541 1.523 . S
H1543 C1518 0.950 . S
H1544 C1520 0.950 . S
H1545 C1521 0.949 . S
H1546 C1523 0.950 . S
H1547 C1525 0.950 . S
C1548 C1549 1.349 . S
C1548 C1550 1.327 . S
C1548 H1573 0.950 . S
C1549 C1548 1.349 . S
C1549 C1565 1.349 . S
C1550 C1548 1.327 . S
C1550 C1569 1.429 . S
C1550 H1574 0.950 . S
C1551 C1568 1.574 . S
C1551 C1570 1.368 . S
C1551 H1575 0.949 . S
H1552 C1556 0.949 . S
C1553 C1554 1.349 . S
C1553 C1555 1.327 . S
C1553 H1576 0.950 . S
C1554 C1553 1.349 . S
C1554 C1566 1.349 . S
C1555 C1553 1.327 . S
C1555 C1571 1.429 . S
C1555 H1577 0.950 . S
C1556 H1552 0.949 . S
C1556 C1564 1.574 . S
C1556 C1572 1.368 . S
H1557 C1565 0.950 . S
H1558 C1563 0.950 . S
H1559 C1564 0.949 . S
H1560 C1566 0.950 . S
H1561 C1567 0.950 . S
H1562 C1568 0.949 . S
C1563 H1558 0.950 . S
C1563 C1565 1.327 . S
C1563 C1569 1.429 . S
C1564 C1556 1.574 . S
C1564 H1559 0.949 . S
C1564 C1570 1.368 . S
C1565 C1549 1.349 . S
C1565 H1557 0.950 . S
C1565 C1563 1.327 . S
C1566 C1554 1.349 . S
C1566 H1560 0.950 . S
C1566 C1567 1.327 . S
C1567 H1561 0.950 . S
C1567 C1566 1.327 . S
C1567 C1571 1.429 . S
C1568 C1551 1.574 . S
C1568 H1562 0.949 . S
C1568 C1572 1.368 . S
C1569 C1550 1.429 . S
C1569 C1563 1.429 . S
C1569 C1570 1.523 . S
C1570 C1551 1.368 . S
C1570 C1564 1.368 . S
C1570 C1569 1.523 . S
C1571 C1555 1.429 . S
C1571 C1567 1.429 . S
C1571 C1572 1.523 . S
C1572 C1556 1.368 . S
C1572 C1568 1.368 . S
C1572 C1571 1.523 . S
H1573 C1548 0.950 . S
H1574 C1550 0.950 . S
H1575 C1551 0.949 . S
H1576 C1553 0.950 . S
H1577 C1555 0.950 . S
C1578 C1579 1.349 . S
C1578 C1580 1.327 . S
C1578 H1603 0.950 . S
C1579 C1578 1.349 . S
C1579 C1595 1.349 . S
C1580 C1578 1.327 . S
C1580 C1599 1.429 . S
C1580 H1604 0.950 . S
C1581 C1598 1.574 . S
C1581 C1600 1.368 . S
C1581 H1605 0.949 . S
H1582 C1586 0.949 . S
C1583 C1584 1.349 . S
C1583 C1585 1.327 . S
C1583 H1606 0.950 . S
C1584 C1583 1.349 . S
C1584 C1596 1.349 . S
C1585 C1583 1.327 . S
C1585 C1601 1.429 . S
C1585 H1607 0.950 . S
C1586 H1582 0.949 . S
C1586 C1594 1.574 . S
C1586 C1602 1.368 . S
H1587 C1595 0.950 . S
H1588 C1593 0.950 . S
H1589 C1594 0.949 . S
H1590 C1596 0.950 . S
H1591 C1597 0.950 . S
H1592 C1598 0.949 . S
C1593 H1588 0.950 . S
C1593 C1595 1.327 . S
C1593 C1599 1.429 . S
C1594 C1586 1.574 . S
C1594 H1589 0.949 . S
C1594 C1600 1.368 . S
C1595 C1579 1.349 . S
C1595 H1587 0.950 . S
C1595 C1593 1.327 . S
C1596 C1584 1.349 . S
C1596 H1590 0.950 . S
C1596 C1597 1.327 . S
C1597 H1591 0.950 . S
C1597 C1596 1.327 . S
C1597 C1601 1.429 . S
C1598 C1581 1.574 . S
C1598 H1592 0.949 . S
C1598 C1602 1.368 . S
C1599 C1580 1.429 . S
C1599 C1593 1.429 . S
C1599 C1600 1.523 . S
C1600 C1581 1.368 . S
C1600 C1594 1.368 . S
C1600 C1599 1.523 . S
C1601 C1585 1.429 . S
C1601 C1597 1.429 . S
C1601 C1602 1.523 . S
C1602 C1586 1.368 . S
C1602 C1598 1.368 . S
C1602 C1601 1.523 . S
H1603 C1578 0.950 . S
H1604 C1580 0.950 . S
H1605 C1581 0.949 . S
H1606 C1583 0.950 . S
H1607 C1585 0.950 . S
C1608 C1609 1.349 . S
C1608 C1610 1.327 . S
C1608 H1633 0.950 . S
C1609 C1608 1.349 . S
C1609 C1625 1.349 . S
C1610 C1608 1.327 . S
C1610 C1629 1.429 . S
C1610 H1634 0.950 . S
C1611 C1628 1.574 . S
C1611 C1630 1.368 . S
C1611 H1635 0.949 . S
H1612 C1616 0.949 . S
C1613 C1614 1.349 . S
C1613 C1615 1.327 . S
C1613 H1636 0.950 . S
C1614 C1613 1.349 . S
C1614 C1626 1.349 . S
C1615 C1613 1.327 . S
C1615 C1631 1.429 . S
C1615 H1637 0.950 . S
C1616 H1612 0.949 . S
C1616 C1624 1.574 . S
C1616 C1632 1.368 . S
H1617 C1625 0.950 . S
H1618 C1623 0.950 . S
H1619 C1624 0.949 . S
H1620 C1626 0.950 . S
H1621 C1627 0.950 . S
H1622 C1628 0.949 . S
C1623 H1618 0.950 . S
C1623 C1625 1.327 . S
C1623 C1629 1.429 . S
C1624 C1616 1.574 . S
C1624 H1619 0.949 . S
C1624 C1630 1.368 . S
C1625 C1609 1.349 . S
C1625 H1617 0.950 . S
C1625 C1623 1.327 . S
C1626 C1614 1.349 . S
C1626 H1620 0.950 . S
C1626 C1627 1.327 . S
C1627 H1621 0.950 . S
C1627 C1626 1.327 . S
C1627 C1631 1.429 . S
C1628 C1611 1.574 . S
C1628 H1622 0.949 . S
C1628 C1632 1.368 . S
C1629 C1610 1.429 . S
C1629 C1623 1.429 . S
C1629 C1630 1.523 . S
C1630 C1611 1.368 . S
C1630 C1624 1.368 . S
C1630 C1629 1.523 . S
C1631 C1615 1.429 . S
C1631 C1627 1.429 . S
C1631 C1632 1.523 . S
C1632 C1616 1.368 . S
C1632 C1628 1.368 . S
C1632 C1631 1.523 . S
H1633 C1608 0.950 . S
H1634 C1610 0.950 . S
H1635 C1611 0.949 . S
H1636 C1613 0.950 . S
H1637 C1615 0.950 . S
C1638 C1639 1.349 . S
C1638 C1640 1.327 . S
C1638 H1663 0.950 . S
C1639 C1638 1.349 . S
C1639 C1655 1.349 . S
C1640 C1638 1.327 . S
C1640 C1659 1.429 . S
C1640 H1664 0.950 . S
C1641 C1658 1.574 . S
C1641 C1660 1.368 . S
C1641 H1665 0.949 . S
H1642 C1646 0.949 . S
C1643 C1644 1.349 . S
C1643 C1645 1.327 . S
C1643 H1666 0.950 . S
C1644 C1643 1.349 . S
C1644 C1656 1.349 . S
C1645 C1643 1.327 . S
C1645 C1661 1.429 . S
C1645 H1667 0.950 . S
C1646 H1642 0.949 . S
C1646 C1654 1.574 . S
C1646 C1662 1.368 . S
H1647 C1655 0.950 . S
H1648 C1653 0.950 . S
H1649 C1654 0.949 . S
H1650 C1656 0.950 . S
H1651 C1657 0.950 . S
H1652 C1658 0.949 . S
C1653 H1648 0.950 . S
C1653 C1655 1.327 . S
C1653 C1659 1.429 . S
C1654 C1646 1.574 . S
C1654 H1649 0.949 . S
C1654 C1660 1.368 . S
C1655 C1639 1.349 . S
C1655 H1647 0.950 . S
C1655 C1653 1.327 . S
C1656 C1644 1.349 . S
C1656 H1650 0.950 . S
C1656 C1657 1.327 . S
C1657 H1651 0.950 . S
C1657 C1656 1.327 . S
C1657 C1661 1.429 . S
C1658 C1641 1.574 . S
C1658 H1652 0.949 . S
C1658 C1662 1.368 . S
C1659 C1640 1.429 . S
C1659 C1653 1.429 . S
C1659 C1660 1.523 . S
C1660 C1641 1.368 . S
C1660 C1654 1.368 . S
C1660 C1659 1.523 . S
C1661 C1645 1.429 . S
C1661 C1657 1.429 . S
C1661 C1662 1.523 . S
C1662 C1646 1.368 . S
C1662 C1658 1.368 . S
C1662 C1661 1.523 . S
H1663 C1638 0.950 . S
H1664 C1640 0.950 . S
H1665 C1641 0.949 . S
H1666 C1643 0.950 . S
H1667 C1645 0.950 . S
C1668 C1669 1.349 . S
C1668 C1670 1.327 . S
C1668 H1693 0.950 . S
C1669 C1668 1.349 . S
C1669 C1685 1.349 . S
C1670 C1668 1.327 . S
C1670 C1689 1.429 . S
C1670 H1694 0.950 . S
C1671 C1688 1.574 . S
C1671 C1690 1.368 . S
C1671 H1695 0.949 . S
H1672 C1676 0.949 . S
C1673 C1674 1.349 . S
C1673 C1675 1.327 . S
C1673 H1696 0.950 . S
C1674 C1673 1.349 . S
C1674 C1686 1.349 . S
C1675 C1673 1.327 . S
C1675 C1691 1.429 . S
C1675 H1697 0.950 . S
C1676 H1672 0.949 . S
C1676 C1684 1.574 . S
C1676 C1692 1.368 . S
H1677 C1685 0.950 . S
H1678 C1683 0.950 . S
H1679 C1684 0.949 . S
H1680 C1686 0.950 . S
H1681 C1687 0.950 . S
H1682 C1688 0.949 . S
C1683 H1678 0.950 . S
C1683 C1685 1.327 . S
C1683 C1689 1.429 . S
C1684 C1676 1.574 . S
C1684 H1679 0.949 . S
C1684 C1690 1.368 . S
C1685 C1669 1.349 . S
C1685 H1677 0.950 . S
C1685 C1683 1.327 . S
C1686 C1674 1.349 . S
C1686 H1680 0.950 . S
C1686 C1687 1.327 . S
C1687 H1681 0.950 . S
C1687 C1686 1.327 . S
C1687 C1691 1.429 . S
C1688 C1671 1.574 . S
C1688 H1682 0.949 . S
C1688 C1692 1.368 . S
C1689 C1670 1.429 . S
C1689 C1683 1.429 . S
C1689 C1690 1.523 . S
C1690 C1671 1.368 . S
C1690 C1684 1.368 . S
C1690 C1689 1.523 . S
C1691 C1675 1.429 . S
C1691 C1687 1.429 . S
C1691 C1692 1.523 . S
C1692 C1676 1.368 . S
C1692 C1688 1.368 . S
C1692 C1691 1.523 . S
H1693 C1668 0.950 . S
H1694 C1670 0.950 . S
H1695 C1671 0.949 . S
H1696 C1673 0.950 . S
H1697 C1675 0.950 . S
C1698 C1699 1.349 . S
C1698 C1700 1.327 . S
C1698 H1723 0.950 . S
C1699 C1698 1.349 . S
C1699 C1715 1.349 . S
C1700 C1698 1.327 . S
C1700 C1719 1.429 . S
C1700 H1724 0.950 . S
C1701 C1718 1.574 . S
C1701 C1720 1.368 . S
C1701 H1725 0.949 . S
H1702 C1706 0.949 . S
C1703 C1704 1.349 . S
C1703 C1705 1.327 . S
C1703 H1726 0.950 . S
C1704 C1703 1.349 . S
C1704 C1716 1.349 . S
C1705 C1703 1.327 . S
C1705 C1721 1.429 . S
C1705 H1727 0.950 . S
C1706 H1702 0.949 . S
C1706 C1714 1.574 . S
C1706 C1722 1.368 . S
H1707 C1715 0.950 . S
H1708 C1713 0.950 . S
H1709 C1714 0.949 . S
H1710 C1716 0.950 . S
H1711 C1717 0.950 . S
H1712 C1718 0.949 . S
C1713 H1708 0.950 . S
C1713 C1715 1.327 . S
C1713 C1719 1.429 . S
C1714 C1706 1.574 . S
C1714 H1709 0.949 . S
C1714 C1720 1.368 . S
C1715 C1699 1.349 . S
C1715 H1707 0.950 . S
C1715 C1713 1.327 . S
C1716 C1704 1.349 . S
C1716 H1710 0.950 . S
C1716 C1717 1.327 . S
C1717 H1711 0.950 . S
C1717 C1716 1.327 . S
C1717 C1721 1.429 . S
C1718 C1701 1.574 . S
C1718 H1712 0.949 . S
C1718 C1722 1.368 . S
C1719 C1700 1.429 . S
C1719 C1713 1.429 . S
C1719 C1720 1.523 . S
C1720 C1701 1.368 . S
C1720 C1714 1.368 . S
C1720 C1719 1.523 . S
C1721 C1705 1.429 . S
C1721 C1717 1.429 . S
C1721 C1722 1.523 . S
C1722 C1706 1.368 . S
C1722 C1718 1.368 . S
C1722 C1721 1.523 . S
H1723 C1698 0.950 . S
H1724 C1700 0.950 . S
H1725 C1701 0.949 . S
H1726 C1703 0.950 . S
H1727 C1705 0.950 . S
C529 N2 0.532 . S
C534 N431 0.532 . S
C559 N464 0.532 . S
C564 N35 0.532 . S
C589 N497 0.532 . S
C594 N68 0.532 . S
C619 N398 0.532 . S
C624 N101 0.532 . S
C649 N365 0.532 . S
C654 N134 0.532 . S
C679 N266 0.532 . S
C684 N167 0.532 . S
C709 N200 0.532 . S
C714 N299 0.532 . S
C739 N332 0.532 . S
C744 N233 0.532 . S
C769 C304 1.937 . S
C774 N13 2.044 . S
C799 N46 2.044 . S
C804 C337 1.937 . S
C829 N79 2.044 . S
C834 C370 1.937 . S
C859 N112 2.044 1_556 S
C864 C271 1.937 . S
C889 N145 2.044 1_554 S
C894 C502 1.937 . S
C919 C403 1.937 . S
C924 N178 2.044 . S
C949 C436 1.937 . S
C954 N211 2.044 . S
C979 C469 1.937 . S
C984 N244 2.044 . S
C1009 N277 2.044 . S
C1014 C40 1.937 . S
C1039 N310 2.044 1_556 S
C1044 C73 1.937 . S
C1069 N343 2.044 . S
C1074 C106 1.937 . S
C1099 C7 1.937 . S
C1104 N376 2.044 . S
C1129 N409 2.044 . S
C1134 C238 1.937 . S
C1159 C139 1.937 . S
C1164 N442 2.044 . S
C1189 N475 2.044 1_554 S
C1194 C172 1.937 . S
C1219 N508 2.044 . S
C1224 C205 1.937 . S
C1249 C21 1.125 . S
C1254 C351 1.125 . S
C1279 C384 1.125 . S
C1284 C54 1.125 . S
C1309 C87 1.125 . S
C1314 C285 1.125 . S
C1339 C318 1.125 . S
C1344 C120 1.125 . S
C1369 C153 1.125 . S
C1374 C483 1.125 . S
C1399 C516 1.125 . S
C1404 C186 1.125 . S
C1429 C417 1.125 . S
C1434 C219 1.125 . S
C1459 C450 1.125 . S
C1464 C252 1.125 . S
C1489 C216 0.354 . S
C1494 C18 0.354 . S
C1519 C51 0.354 . S
C1524 C249 0.354 . S
C1549 C150 0.354 . S
C1554 C84 0.354 . S
C1579 C117 0.354 . S
C1584 C183 0.354 . S
C1609 C282 0.354 . S
C1614 C480 0.354 . S
C1639 C315 0.354 . S
C1644 C513 0.354 . S
C1669 C348 0.354 . S
C1674 C414 0.354 . S
C1699 C447 0.354 . S
C1704 C381 0.354 . S
