# Generated by pormake.
# Topology ana, (4)-cn, num edge types: 1
# Building blocks:
#     Node 0, Type 0, BuildingBlock: CEKHIL_clean_sbu_0, # of connection points: 4
#     Node 1, Type 0, BuildingBlock: CEKHIL_clean_sbu_0, # of connection points: 4
#     Node 2, Type 0, BuildingBlock: CEKHIL_clean_sbu_0, # of connection points: 4
#     Node 3, Type 0, BuildingBlock: CEKHIL_clean_sbu_0, # of connection points: 4
#     Node 4, Type 0, BuildingBlock: CEKHIL_clean_sbu_0, # of connection points: 4
#     Node 5, Type 0, BuildingBlock: CEKHIL_clean_sbu_0, # of connection points: 4
#     Node 6, Type 0, BuildingBlock: CEKHIL_clean_sbu_0, # of connection points: 4
#     Node 7, Type 0, BuildingBlock: CEKHIL_clean_sbu_0, # of connection points: 4
#     Node 8, Type 0, BuildingBlock: CEKHIL_clean_sbu_0, # of connection points: 4
#     Node 9, Type 0, BuildingBlock: CEKHIL_clean_sbu_0, # of connection points: 4
#     Node 10, Type 0, BuildingBlock: CEKHIL_clean_sbu_0, # of connection points: 4
#     Node 11, Type 0, BuildingBlock: CEKHIL_clean_sbu_0, # of connection points: 4
#     Node 12, Type 0, BuildingBlock: CEKHIL_clean_sbu_0, # of connection points: 4
#     Node 13, Type 0, BuildingBlock: CEKHIL_clean_sbu_0, # of connection points: 4
#     Node 14, Type 0, BuildingBlock: CEKHIL_clean_sbu_0, # of connection points: 4
#     Node 15, Type 0, BuildingBlock: CEKHIL_clean_sbu_0, # of connection points: 4
#     Node 16, Type 0, BuildingBlock: CEKHIL_clean_sbu_0, # of connection points: 4
#     Node 17, Type 0, BuildingBlock: CEKHIL_clean_sbu_0, # of connection points: 4
#     Node 18, Type 0, BuildingBlock: CEKHIL_clean_sbu_0, # of connection points: 4
#     Node 19, Type 0, BuildingBlock: CEKHIL_clean_sbu_0, # of connection points: 4
#     Node 20, Type 0, BuildingBlock: CEKHIL_clean_sbu_0, # of connection points: 4
#     Node 21, Type 0, BuildingBlock: CEKHIL_clean_sbu_0, # of connection points: 4
#     Node 22, Type 0, BuildingBlock: CEKHIL_clean_sbu_0, # of connection points: 4
#     Node 23, Type 0, BuildingBlock: CEKHIL_clean_sbu_0, # of connection points: 4
#     Node 24, Type 0, BuildingBlock: CEKHIL_clean_sbu_0, # of connection points: 4
#     Node 25, Type 0, BuildingBlock: CEKHIL_clean_sbu_0, # of connection points: 4
#     Node 26, Type 0, BuildingBlock: CEKHIL_clean_sbu_0, # of connection points: 4
#     Node 27, Type 0, BuildingBlock: CEKHIL_clean_sbu_0, # of connection points: 4
#     Node 28, Type 0, BuildingBlock: CEKHIL_clean_sbu_0, # of connection points: 4
#     Node 29, Type 0, BuildingBlock: CEKHIL_clean_sbu_0, # of connection points: 4
#     Node 30, Type 0, BuildingBlock: CEKHIL_clean_sbu_0, # of connection points: 4
#     Node 31, Type 0, BuildingBlock: CEKHIL_clean_sbu_0, # of connection points: 4
#     Node 32, Type 0, BuildingBlock: CEKHIL_clean_sbu_0, # of connection points: 4
#     Node 33, Type 0, BuildingBlock: CEKHIL_clean_sbu_0, # of connection points: 4
#     Node 34, Type 0, BuildingBlock: CEKHIL_clean_sbu_0, # of connection points: 4
#     Node 35, Type 0, BuildingBlock: CEKHIL_clean_sbu_0, # of connection points: 4
#     Node 36, Type 0, BuildingBlock: CEKHIL_clean_sbu_0, # of connection points: 4
#     Node 37, Type 0, BuildingBlock: CEKHIL_clean_sbu_0, # of connection points: 4
#     Node 38, Type 0, BuildingBlock: CEKHIL_clean_sbu_0, # of connection points: 4
#     Node 39, Type 0, BuildingBlock: CEKHIL_clean_sbu_0, # of connection points: 4
#     Node 40, Type 0, BuildingBlock: CEKHIL_clean_sbu_0, # of connection points: 4
#     Node 41, Type 0, BuildingBlock: CEKHIL_clean_sbu_0, # of connection points: 4
#     Node 42, Type 0, BuildingBlock: CEKHIL_clean_sbu_0, # of connection points: 4
#     Node 43, Type 0, BuildingBlock: CEKHIL_clean_sbu_0, # of connection points: 4
#     Node 44, Type 0, BuildingBlock: CEKHIL_clean_sbu_0, # of connection points: 4
#     Node 45, Type 0, BuildingBlock: CEKHIL_clean_sbu_0, # of connection points: 4
#     Node 46, Type 0, BuildingBlock: CEKHIL_clean_sbu_0, # of connection points: 4
#     Node 47, Type 0, BuildingBlock: CEKHIL_clean_sbu_0, # of connection points: 4
#     Edge 48, Type (0, 0), None
#     Edge 49, Type (0, 0), None
#     Edge 50, Type (0, 0), None
#     Edge 51, Type (0, 0), None
#     Edge 52, Type (0, 0), None
#     Edge 53, Type (0, 0), None
#     Edge 54, Type (0, 0), None
#     Edge 55, Type (0, 0), None
#     Edge 56, Type (0, 0), None
#     Edge 57, Type (0, 0), None
#     Edge 58, Type (0, 0), None
#     Edge 59, Type (0, 0), None
#     Edge 60, Type (0, 0), None
#     Edge 61, Type (0, 0), None
#     Edge 62, Type (0, 0), None
#     Edge 63, Type (0, 0), None
#     Edge 64, Type (0, 0), None
#     Edge 65, Type (0, 0), None
#     Edge 66, Type (0, 0), None
#     Edge 67, Type (0, 0), None
#     Edge 68, Type (0, 0), None
#     Edge 69, Type (0, 0), None
#     Edge 70, Type (0, 0), None
#     Edge 71, Type (0, 0), None
#     Edge 72, Type (0, 0), None
#     Edge 73, Type (0, 0), None
#     Edge 74, Type (0, 0), None
#     Edge 75, Type (0, 0), None
#     Edge 76, Type (0, 0), None
#     Edge 77, Type (0, 0), None
#     Edge 78, Type (0, 0), None
#     Edge 79, Type (0, 0), None
#     Edge 80, Type (0, 0), None
#     Edge 81, Type (0, 0), None
#     Edge 82, Type (0, 0), None
#     Edge 83, Type (0, 0), None
#     Edge 84, Type (0, 0), None
#     Edge 85, Type (0, 0), None
#     Edge 86, Type (0, 0), None
#     Edge 87, Type (0, 0), None
#     Edge 88, Type (0, 0), None
#     Edge 89, Type (0, 0), None
#     Edge 90, Type (0, 0), None
#     Edge 91, Type (0, 0), None
#     Edge 92, Type (0, 0), None
#     Edge 93, Type (0, 0), None
#     Edge 94, Type (0, 0), None
#     Edge 95, Type (0, 0), None
#     Edge 96, Type (0, 0), None
#     Edge 97, Type (0, 0), None
#     Edge 98, Type (0, 0), None
#     Edge 99, Type (0, 0), None
#     Edge 100, Type (0, 0), None
#     Edge 101, Type (0, 0), None
#     Edge 102, Type (0, 0), None
#     Edge 103, Type (0, 0), None
#     Edge 104, Type (0, 0), None
#     Edge 105, Type (0, 0), None
#     Edge 106, Type (0, 0), None
#     Edge 107, Type (0, 0), None
#     Edge 108, Type (0, 0), None
#     Edge 109, Type (0, 0), None
#     Edge 110, Type (0, 0), None
#     Edge 111, Type (0, 0), None
#     Edge 112, Type (0, 0), None
#     Edge 113, Type (0, 0), None
#     Edge 114, Type (0, 0), None
#     Edge 115, Type (0, 0), None
#     Edge 116, Type (0, 0), None
#     Edge 117, Type (0, 0), None
#     Edge 118, Type (0, 0), None
#     Edge 119, Type (0, 0), None
#     Edge 120, Type (0, 0), None
#     Edge 121, Type (0, 0), None
#     Edge 122, Type (0, 0), None
#     Edge 123, Type (0, 0), None
#     Edge 124, Type (0, 0), None
#     Edge 125, Type (0, 0), None
#     Edge 126, Type (0, 0), None
#     Edge 127, Type (0, 0), None
#     Edge 128, Type (0, 0), None
#     Edge 129, Type (0, 0), None
#     Edge 130, Type (0, 0), None
#     Edge 131, Type (0, 0), None
#     Edge 132, Type (0, 0), None
#     Edge 133, Type (0, 0), None
#     Edge 134, Type (0, 0), None
#     Edge 135, Type (0, 0), None
#     Edge 136, Type (0, 0), None
#     Edge 137, Type (0, 0), None
#     Edge 138, Type (0, 0), None
#     Edge 139, Type (0, 0), None
#     Edge 140, Type (0, 0), None
#     Edge 141, Type (0, 0), None
#     Edge 142, Type (0, 0), None
#     Edge 143, Type (0, 0), None
# Relax obj value: 0.100
# Max RMSD: 0.127
# Mean RMSD: 0.112
data_MOF--net-ana--node1-CEKHIL_clean_sbu_0--edge1-none
_symmetry_space_group_name_H-M    P1
_symmetry_Int_Tables_number       1
_symmetry_cell_setting            triclinic
loop_
_symmetry_equiv_pos_as_xyz
'x, y, z'
_cell_length_a     28.879728
_cell_length_b     28.279286
_cell_length_c     28.278221
_cell_angle_alpha  89.511237
_cell_angle_beta   89.503597
_cell_angle_gamma 88.904862
loop_
_atom_site_label
_atom_site_type_symbol
_atom_site_fract_x
_atom_site_fract_y
_atom_site_fract_z
_atom_type_partial_charge
Co0 Co 0.14573 0.18035 0.4177 0.0
O1 O 0.21216 0.18296 0.42183 0.0
O2 O 0.17474 0.11987 0.39908 0.0
C3 C 0.13685 0.25089 0.38008 0.0
O4 O 0.077 0.16585 0.40652 0.0
Co5 Co 0.08658 0.25805 0.46971 0.0
O6 O 0.03565 0.2267 0.43728 0.0
C7 C 0.12001 0.17465 0.52304 0.0
C8 C 0.21417 0.13995 0.40665 0.0
C9 C 0.03833 0.18815 0.41447 0.0
O10 O 0.14052 0.15816 0.4858 0.0
O11 O 0.09812 0.21432 0.52434 0.0
O12 O 0.14748 0.21291 0.35655 0.0
O13 O 0.13635 0.24618 0.42539 0.0
Co14 Co 0.09259 0.87069 0.68537 0.0
O15 O 0.14618 0.87286 0.72554 0.0
O16 O 0.0731 0.88321 0.74915 0.0
C17 C 0.11371 0.80376 0.64741 0.0
O18 O 0.02855 0.87068 0.65668 0.0
Co19 Co 0.09961 0.87862 0.57632 0.0
O20 O 0.03242 0.86462 0.57755 0.0
C21 C 0.11031 0.96314 0.63512 0.0
C22 C 0.11671 0.88065 0.75968 0.0
C23 C 1.00952 0.86685 0.61616 0.0
O24 O 0.09681 0.94003 0.67172 0.0
O25 O 0.11845 0.94423 0.59484 0.0
O26 O 0.09406 0.802 0.6888 0.0
O27 O 0.12343 0.84548 0.6316 0.0
Co28 Co 0.36651 0.82439 0.912 0.0
O29 O 0.30355 0.80972 0.9219 0.0
O30 O 0.32644 0.87736 0.89066 0.0
C31 C 0.38468 0.75442 0.87933 0.0
O32 O 0.43262 0.84688 0.89764 0.0
Co33 Co 0.42974 0.75957 0.97413 0.0
O34 O 0.47655 0.79095 0.93404 0.0
C35 C 0.38477 0.84201 0.01701 0.0
C36 C 0.2925 0.85043 0.90443 0.0
C37 C 0.47225 0.8272 0.90742 0.0
O38 O 0.3689 0.8535 0.97629 0.0
O39 O 0.40731 0.80351 0.02533 0.0
O40 O 0.36823 0.78879 0.85358 0.0
O41 O 0.3845 0.76155 0.92436 0.0
Co42 Co 0.41738 0.12686 0.18301 0.0
O43 O 0.35939 0.12651 0.21801 0.0
O44 O 0.42773 0.10796 0.2484 0.0
C45 C 0.40455 0.1983 0.14816 0.0
O46 O 0.48531 0.12377 0.15933 0.0
Co47 Co 0.41998 0.12888 0.07334 0.0
O48 O 0.48783 0.13614 0.08059 0.0
C49 C 0.38854 0.04425 0.1246 0.0
C50 C 0.38338 0.11384 0.25471 0.0
C51 C 0.50787 0.12937 0.12009 0.0
O52 O 0.40662 0.05956 0.1629 0.0
O53 O 0.38594 0.0686 0.08635 0.0
O54 O 0.42077 0.19543 0.19082 0.0
O55 O 0.39403 0.1587 0.12916 0.0
Co56 Co 0.12494 0.83537 0.07642 0.0
O57 O 0.05864 0.83579 0.06818 0.0
O58 O 0.09335 0.8532 0.13501 0.0
C59 C 0.13928 0.87592 0.00896 0.0
O60 O 0.19295 0.84139 0.09626 0.0
Co61 Co 0.1879 0.78496 1.00246 0.0
O62 O 0.23792 0.81805 0.03482 0.0
C63 C 0.14741 0.72885 0.08074 0.0
C64 C 0.05498 0.84959 0.11151 0.0
C65 C 0.23275 0.83627 0.07556 0.0
O66 O 0.12578 0.76591 0.0966 0.0
O67 O 0.17241 0.72906 0.04317 0.0
O68 O 0.12792 0.89818 0.04735 0.0
O69 O 0.13785 0.83035 0.01118 0.0
Co70 Co 0.44793 0.88837 0.34381 0.0
O71 O 0.4858 0.88842 0.3989 0.0
O72 O 0.50911 0.86357 0.32808 0.0
C73 C 0.41972 0.96287 0.35109 0.0
O74 O 0.41815 0.88297 0.27952 0.0
Co75 Co 0.34261 0.8947 0.35434 0.0
O76 O 0.343 0.90474 0.28505 0.0
C77 C 0.38984 0.8024 0.36588 0.0
C78 C 0.51829 0.87037 0.37242 0.0
C79 C 0.37855 0.89242 0.26105 0.0
O80 O 0.42839 0.82269 0.35896 0.0
O81 O 0.35081 0.82457 0.36715 0.0
O82 O 0.45962 0.95373 0.33162 0.0
O83 O 0.3992 0.92705 0.37072 0.0
Co84 Co 0.39806 0.16301 0.58288 0.0
O85 O 0.46366 0.17212 0.57653 0.0
O86 O 0.42925 0.14061 0.6394 0.0
C87 C 0.38961 0.13324 0.50927 0.0
O88 O 0.3324 0.14476 0.60215 0.0
Co89 Co 0.32579 0.21215 0.51751 0.0
O90 O 0.28193 0.16694 0.54563 0.0
C91 C 0.36812 0.26525 0.59585 0.0
C92 C 0.46726 0.15313 0.61829 0.0
C93 C 0.29185 0.14501 0.58374 0.0
O94 O 0.38976 0.2281 0.6112 0.0
O95 O 0.34345 0.26608 0.55845 0.0
O96 O 0.4037 0.10605 0.54374 0.0
O97 O 0.38388 0.17727 0.51933 0.0
Co98 Co 0.08078 0.12118 0.84136 0.0
O99 O 0.04469 0.13166 0.89801 0.0
O100 O 0.01677 0.13898 0.82581 0.0
C101 C 0.11292 0.05216 0.8646 0.0
O102 O 0.11148 0.11247 0.77579 0.0
Co103 Co 0.18811 0.12172 0.85452 0.0
O104 O 0.18742 0.09666 0.78936 0.0
C105 C 0.1348 0.21123 0.85213 0.0
C106 C 1.0096 0.14102 0.87139 0.0
C107 C 0.15295 0.10069 0.76167 0.0
O108 O 0.09853 0.18913 0.84026 0.0
O109 O 0.17287 0.19083 0.8643 0.0
O110 O 0.07184 0.05358 0.8466 0.0
O111 O 0.13087 0.09264 0.87338 0.0
Co112 Co 0.18983 0.40404 0.13149 0.0
O113 O 0.22806 0.34751 0.1257 0.0
O114 O 0.25304 0.41933 0.11078 0.0
C115 C 0.15945 0.38635 0.20272 0.0
O116 O 0.15852 0.47035 0.13516 0.0
Co117 Co 0.08166 0.39256 0.13761 0.0
O118 O 0.08481 0.45846 0.15951 0.0
C119 C 0.13036 0.38364 0.04605 0.0
C120 C 0.26208 0.37404 0.11315 0.0
C121 C 0.11846 0.48558 0.15024 0.0
O122 O 0.16881 0.39632 0.06427 0.0
O123 O 0.09308 0.3768 0.06963 0.0
O124 O 0.20012 0.40495 0.19961 0.0
O125 O 0.14101 0.37456 0.16335 0.0
Co126 Co 0.6929 0.08622 0.86588 0.0
O127 O 0.73301 0.13854 0.85632 0.0
O128 O 0.75376 0.06934 0.88856 0.0
C129 C 0.66463 0.08961 0.79175 0.0
O130 O 0.66182 0.02335 0.87926 0.0
Co131 Co 0.58992 0.09935 0.865 0.0
O132 O 0.58815 0.03 0.85575 0.0
C133 C 0.63865 0.12039 0.95248 0.0
C134 C 0.76501 0.11143 0.8742 0.0
C135 C 0.62267 0.00519 0.86949 0.0
O136 O 0.67614 0.10887 0.93088 0.0
O137 O 0.5991 0.12047 0.93246 0.0
O138 O 0.70273 0.06724 0.80198 0.0
O139 O 0.64471 0.11289 0.82624 0.0
Co140 Co 0.84906 0.93931 0.3909 0.0
O141 O 0.90252 0.97871 0.39594 0.0
O142 O 0.83394 0.00191 0.36829 0.0
C143 C 0.85234 0.90796 0.46475 0.0
O144 O 0.78615 0.91074 0.38152 0.0
Co145 Co 0.85869 0.83185 0.39325 0.0
O146 O 0.79079 0.83439 0.40358 0.0
C147 C 0.87503 0.88211 0.30371 0.0
C148 C 0.87624 0.01222 0.37874 0.0
C149 C 0.7676 0.87105 0.39127 0.0
O150 O 0.86696 0.92105 0.32508 0.0
O151 O 0.87551 0.84176 0.32449 0.0
O152 O 0.83381 0.94919 0.45627 0.0
O153 O 0.8735 0.8881 0.42905 0.0
Co154 Co 0.85417 0.07293 0.12029 0.0
O155 O 0.91097 0.03612 0.12751 0.0
O156 O 0.84116 0.00916 0.14295 0.0
C157 C 0.87211 0.10213 0.04781 0.0
O158 O 0.78723 0.1026 0.11543 0.0
Co159 Co 0.86436 0.18203 0.11433 0.0
O160 O 0.79735 0.18003 0.09912 0.0
C161 C 0.88734 0.13004 0.20127 0.0
C162 C 0.8858 1.00138 0.1416 0.0
C163 C 0.77106 0.14453 0.10459 0.0
O164 O 0.86201 0.09616 0.18705 0.0
O165 O 0.89691 0.16591 0.17536 0.0
O166 O 0.85426 0.0605 0.05197 0.0
O167 O 0.88213 0.12217 0.08703 0.0
Co168 Co 0.35442 0.5778 0.61702 0.0
O169 O 0.41075 0.5405 0.62254 0.0
O170 O 0.34065 0.51411 0.63863 0.0
C171 C 0.3718 0.60683 0.54505 0.0
O172 O 0.28796 0.60841 0.61323 0.0
Co173 Co 0.36594 0.68639 0.61238 0.0
O174 O 0.29898 0.68556 0.59643 0.0
C175 C 0.39088 0.6327 0.69768 0.0
C176 C 0.38517 0.50582 0.63575 0.0
C177 C 0.27231 0.65038 0.60193 0.0
O178 O 0.36385 0.60005 0.68386 0.0
O179 O 0.40051 0.66869 0.67197 0.0
O180 O 0.35303 0.56568 0.54906 0.0
O181 O 0.38284 0.62668 0.58411 0.0
Co182 Co 0.19716 0.58705 0.36251 0.0
O183 O 0.23697 0.63978 0.35433 0.0
O184 O 0.25796 0.57007 0.38531 0.0
C185 C 0.1698 0.59151 0.28811 0.0
O186 O 0.16593 0.52382 0.37416 0.0
Co187 Co 0.09453 0.60072 0.36141 0.0
O188 O 0.09261 0.53167 0.34981 0.0
C189 C 0.14261 0.62188 0.44906 0.0
C190 C 0.26903 0.6125 0.37181 0.0
C191 C 0.12687 0.50617 0.36303 0.0
O192 O 0.17981 0.60861 0.42787 0.0
O193 O 0.10329 0.62338 0.42855 0.0
O194 O 0.20786 0.56918 0.29843 0.0
O195 O 0.14943 0.6143 0.32271 0.0
Co196 Co 0.32812 0.42084 0.86496 0.0
O197 O 0.28713 0.36989 0.85496 0.0
O198 O 0.26739 0.43864 0.88811 0.0
C199 C 0.35587 0.41804 0.79043 0.0
O200 O 0.36031 0.4825 0.87839 0.0
Co201 Co 0.4306 0.40713 0.86171 0.0
O202 O 0.43231 0.47621 0.84922 0.0
C203 C 0.38187 0.38358 0.95001 0.0
C204 C 0.25538 0.39752 0.87259 0.0
C205 C 0.39848 0.50095 0.86487 0.0
O206 O 0.3442 0.39572 0.92946 0.0
O207 O 0.42132 0.38447 0.92913 0.0
O208 O 0.31888 0.44193 0.80162 0.0
O209 O 0.37562 0.39388 0.82446 0.0
Co210 Co 0.87078 0.81736 0.5923 0.0
O211 O 0.87797 0.77909 0.64833 0.0
O212 O 0.88972 0.75225 0.57608 0.0
C213 C 0.80142 0.85163 0.61248 0.0
O214 O 0.86622 0.85001 0.52704 0.0
Co215 Co 0.87315 0.92613 0.61141 0.0
O216 O 0.85545 0.92763 0.54383 0.0
C217 C 0.95908 0.86955 0.61398 0.0
C218 C 0.89022 0.74418 0.62156 0.0
C219 C 0.85841 0.89357 0.51455 0.0
O220 O 0.93788 0.8348 0.59584 0.0
O221 O 0.9387 0.90759 0.6279 0.0
O222 O 0.8034 0.80985 0.59387 0.0
O223 O 0.8411 0.86819 0.62387 0.0
Co224 Co 0.92094 0.14713 0.32618 0.0
O225 O 0.86995 0.14049 0.28331 0.0
O226 O 0.94395 0.13008 0.26393 0.0
C227 C 0.89632 0.21601 0.35612 0.0
O228 O 0.98279 0.15411 0.36169 0.0
Co229 Co 0.89924 0.14811 0.43504 0.0
O230 O 0.96336 0.17096 0.43733 0.0
C231 C 0.89022 0.06124 0.38041 0.0
C232 C 0.90077 0.13156 0.25099 0.0
C233 C 0.99313 0.1674 0.40395 0.0
O234 O 0.91417 0.07879 0.34611 0.0
O235 O 0.87672 0.08461 0.41659 0.0
O236 O 0.91881 0.21558 0.31622 0.0
O237 O 0.88589 0.17543 0.37379 0.0
Co238 Co 0.64562 0.18587 0.09318 0.0
O239 O 0.64677 0.21978 0.15189 0.0
O240 O 0.6224 0.25017 0.08385 0.0
C241 C 0.7206 0.15576 0.09695 0.0
O242 O 0.63958 0.16299 0.0251 0.0
Co243 Co 0.64649 0.08134 0.09636 0.0
O244 O 0.6473 0.08401 0.02638 0.0
C245 C 0.55914 0.12796 0.11913 0.0
C246 C 0.62946 0.2556 0.12878 0.0
C247 C 0.64111 0.12284 0.00419 0.0
O248 O 0.57975 0.1662 0.10781 0.0
O249 O 0.58048 0.08801 0.1201 0.0
O250 O 0.71017 0.19753 0.08086 0.0
O251 O 0.68572 0.13355 0.11596 0.0
Co252 Co 0.59808 0.86232 0.82704 0.0
O253 O 0.65456 0.87211 0.79313 0.0
O254 O 0.58448 0.87757 0.76156 0.0
C255 C 0.62156 0.79435 0.86222 0.0
O256 O 0.53269 0.85271 0.85446 0.0
Co257 Co 0.60847 0.87097 0.93502 0.0
O258 O 0.54214 0.85416 0.9336 0.0
C259 C 0.617 0.95423 0.87579 0.0
C260 C 0.62931 0.87986 0.75638 0.0
C261 C 0.51677 0.84974 0.8972 0.0
O262 O 0.5961 0.93158 0.84348 0.0
O263 O 0.63119 0.93461 0.914 0.0
O264 O 0.6051 0.79406 0.81978 0.0
O265 O 0.62822 0.83584 0.87963 0.0
Co266 Co 0.89391 0.15806 0.93014 0.0
O267 O 0.89714 0.09957 0.96614 0.0
O268 O 0.87461 0.16913 0.99476 0.0
C269 C 0.96402 0.15068 0.89346 0.0
O270 O 0.88554 0.22615 0.90645 0.0
Co271 Co 0.89355 0.1597 0.82031 0.0
O272 O 0.89407 0.22926 0.82737 0.0
C273 C 0.81249 0.12676 0.87397 0.0
C274 C 0.88168 0.12418 1.00174 0.0
C275 C 0.88673 0.24909 0.86705 0.0
O276 O 0.82902 0.14283 0.91238 0.0
O277 O 0.83397 0.12693 0.83426 0.0
O278 O 0.96049 0.16672 0.93633 0.0
O279 O 0.92607 0.13595 0.87549 0.0
Co280 Co 0.5826 0.11525 0.66333 0.0
O281 O 0.5424 0.11827 0.60976 0.0
O282 O 0.52488 0.14752 0.68036 0.0
C283 C 0.60149 0.03755 0.65725 0.0
O284 O 0.61577 0.11598 0.72727 0.0
Co285 Co 0.68618 0.09365 0.64385 0.0
O286 O 0.68465 0.08013 0.71269 0.0
C287 C 0.64569 0.18532 0.61485 0.0
C288 C 0.51274 0.13986 0.63689 0.0
C289 C 0.65366 0.0957 0.74127 0.0
O290 O 0.61051 0.17717 0.64167 0.0
O291 O 0.67792 0.15452 0.60733 0.0
O292 O 0.56346 0.05143 0.67802 0.0
O293 O 0.62427 0.0705 0.63586 0.0
Co294 Co 0.62787 0.83965 0.4323 0.0
O295 O 0.62337 0.89299 0.47366 0.0
O296 O 0.64037 0.81872 0.49545 0.0
C297 C 0.56184 0.8553 0.39375 0.0
O298 O 0.63467 0.77586 0.40165 0.0
Co299 Co 0.63807 0.85196 0.32422 0.0
O300 O 0.6311 0.78228 0.3225 0.0
C301 C 0.71798 0.86656 0.38566 0.0
C302 C 0.6327 0.86251 0.50697 0.0
C303 C 0.63435 0.75784 0.36036 0.0
O304 O 0.69507 0.85079 0.42111 0.0
O305 O 0.7006 0.87415 0.34476 0.0
O306 O 0.56146 0.83367 0.43434 0.0
O307 O 0.60145 0.87066 0.37911 0.0
Co308 Co 0.93821 0.88056 0.1621 0.0
O309 O 0.97608 0.87926 0.10524 0.0
O310 O 0.99984 0.85609 0.17609 0.0
C311 C 0.90714 0.95454 0.15134 0.0
O312 O 0.91306 0.87645 0.22941 0.0
Co313 Co 0.83024 0.89177 0.16275 0.0
O314 O 0.83713 0.89549 0.23216 0.0
C315 C 0.87714 0.8063 0.12472 0.0
C316 C 1.00924 0.86219 0.13162 0.0
C317 C 0.87514 0.88427 0.25216 0.0
O318 O 0.91484 0.81568 0.14652 0.0
O319 O 0.84224 0.83479 0.12258 0.0
O320 O 0.94842 0.94883 0.16889 0.0
O321 O 0.88763 0.91646 0.13819 0.0
Co322 Co 0.83445 0.59323 0.87452 0.0
O323 O 0.79593 0.64902 0.88156 0.0
O324 O 0.77242 0.57616 0.89563 0.0
C325 C 0.86514 0.61218 0.80252 0.0
O326 O 0.86475 0.52714 0.87004 0.0
Co327 Co 0.94195 0.60642 0.87017 0.0
O328 O 0.93936 0.53978 0.85014 0.0
C329 C 0.8922 0.61645 0.96072 0.0
C330 C 0.76293 0.62132 0.89479 0.0
C331 C 0.90535 0.51237 0.85699 0.0
O332 O 0.85517 0.6002 0.94238 0.0
O333 O 0.9289 0.62562 0.93703 0.0
O334 O 0.82451 0.59345 0.80578 0.0
O335 O 0.8832 0.62342 0.84232 0.0
Co336 Co 0.35057 0.91998 0.11529 0.0
O337 O 0.40304 0.96068 0.12057 0.0
O338 O 0.32953 0.98507 0.12055 0.0
C339 C 0.37685 0.8759 0.0551 0.0
O340 O 0.28795 0.88801 0.10821 0.0
Co341 Co 0.3648 0.81231 0.13655 0.0
O342 O 0.30308 0.80948 0.1062 0.0
C343 C 0.37244 0.88245 0.21124 0.0
C344 C 0.37317 0.99536 0.12294 0.0
C345 C 0.27578 0.84508 0.10085 0.0
O346 O 0.34948 0.91218 0.18578 0.0
O347 O 0.38693 0.84225 0.19621 0.0
O348 O 0.35788 0.9172 0.04696 0.0
O349 O 0.3847 0.86562 0.09885 0.0
Co350 Co 0.18513 0.09507 0.63387 0.0
O351 O 0.2256 0.14832 0.63494 0.0
O352 O 0.24156 0.08 0.59968 0.0
C353 C 0.16409 0.09584 0.71107 0.0
O354 O 0.15349 0.0324 0.62584 0.0
Co355 Co 0.08027 0.10827 0.65371 0.0
O356 O 0.08187 0.03798 0.65751 0.0
C357 C 0.12222 0.14708 0.56702 0.0
C358 C 0.25372 0.12286 0.60917 0.0
C359 C 0.11543 0.01403 0.63976 0.0
O360 O 0.15772 0.12024 0.57371 0.0
O361 O 0.08918 0.15149 0.59726 0.0
O362 O 0.20301 0.07616 0.69747 0.0
O363 O 0.14155 0.11868 0.6786 0.0
Co364 Co 0.16313 0.93433 0.89332 0.0
O365 O 0.10803 0.9726 0.891 0.0
O366 O 0.17852 0.99804 0.87352 0.0
C367 C 0.14805 0.90091 0.96444 0.0
O368 O 0.22778 0.90387 0.89276 0.0
Co369 Co 0.14906 0.82433 0.89503 0.0
O370 O 0.21662 0.826 0.90577 0.0
C371 C 0.13107 0.8795 0.80882 0.0
C372 C 0.13427 0.00687 0.87755 0.0
C373 C 0.24293 0.86141 0.90008 0.0
O374 O 0.15257 0.91497 0.82567 0.0
O375 O 0.12132 0.84238 0.8327 0.0
O376 O 0.16655 0.94238 0.96227 0.0
O377 O 0.13546 0.88394 0.92465 0.0
Co378 Co 0.66462 0.43141 0.4001 0.0
O379 O 0.60927 0.469 0.39401 0.0
O380 O 0.68027 0.49478 0.37962 0.0
C381 C 0.64629 0.39957 0.4711 0.0
O382 O 0.72991 0.402 0.40383 0.0
Co383 Co 0.65401 0.32166 0.40335 0.0
O384 O 0.72023 0.32475 0.42088 0.0
C385 C 0.6356 0.37486 0.31576 0.0
C386 C 0.63582 0.50322 0.38106 0.0
C387 C 0.74589 0.36065 0.4152 0.0
O388 O 0.65711 0.41048 0.33232 0.0
O389 O 0.62634 0.3379 0.34016 0.0
O390 O 0.66445 0.44121 0.46887 0.0
O391 O 0.63612 0.38124 0.43111 0.0
Co392 Co 0.83369 0.40317 0.6346 0.0
O393 O 0.794 0.34895 0.63573 0.0
O394 O 0.77763 0.41735 0.60015 0.0
C395 C 0.85262 0.40148 0.71155 0.0
O396 O 0.86423 0.46713 0.62663 0.0
Co397 Co 0.93851 0.39317 0.65582 0.0
O398 O 0.93445 0.46334 0.66041 0.0
C399 C 0.90183 0.3569 0.56687 0.0
C400 C 0.76561 0.37439 0.61032 0.0
C401 C 0.9011 0.48662 0.64161 0.0
O402 O 0.86365 0.37937 0.57498 0.0
O403 O 0.93499 0.35406 0.59661 0.0
O404 O 0.8136 0.42062 0.6979 0.0
O405 O 0.87671 0.38003 0.67928 0.0
Co406 Co 0.68892 0.59279 0.13636 0.0
O407 O 0.72791 0.64715 0.13637 0.0
O408 O 0.74546 0.57864 0.10208 0.0
C409 C 0.66853 0.59399 0.21359 0.0
O410 O 0.65873 0.52916 0.12965 0.0
Co411 Co 0.58397 0.60347 0.15702 0.0
O412 O 0.58802 0.53339 0.16354 0.0
C413 C 0.62438 0.64242 0.06944 0.0
C414 C 0.75654 0.62197 0.11091 0.0
C415 C 0.62181 0.50993 0.14555 0.0
O416 O 0.66052 0.61647 0.07606 0.0
O417 O 0.59145 0.64617 0.09991 0.0
O418 O 0.70783 0.5752 0.19997 0.0
O419 O 0.64516 0.61586 0.18106 0.0
Co420 Co 0.64848 0.67946 0.92086 0.0
O421 O 0.71473 0.68413 0.925 0.0
O422 O 0.67865 0.62055 0.90076 0.0
C423 C 0.63724 0.75037 0.88505 0.0
O424 O 0.58089 0.66247 0.90877 0.0
Co425 Co 0.58518 0.75323 0.97324 0.0
O426 O 0.53736 0.72378 0.93457 0.0
C427 C 0.62149 0.67029 0.02562 0.0
C428 C 0.7175 0.64164 0.90838 0.0
C429 C 0.54181 0.68473 0.91307 0.0
O430 O 0.64363 0.65557 0.98853 0.0
O431 O 0.59757 0.70876 0.02707 0.0
O432 O 0.64928 0.71342 0.86055 0.0
O433 O 0.63662 0.74461 0.93025 0.0
Co434 Co 0.59689 0.36658 0.19141 0.0
O435 O 0.65025 0.3673 0.23228 0.0
O436 O 0.57746 0.37946 0.25551 0.0
C437 C 0.61657 0.29915 0.15361 0.0
O438 O 0.53317 0.36803 0.16091 0.0
Co439 Co 0.60795 0.37463 0.08215 0.0
O440 O 0.54035 0.36316 0.08169 0.0
C441 C 0.61752 0.45888 0.14139 0.0
C442 C 0.62098 0.37565 0.26639 0.0
C443 C 0.51587 0.36535 0.1193 0.0
O444 O 0.60288 0.43588 0.17767 0.0
O445 O 0.6267 0.43991 0.10137 0.0
O446 O 0.59657 0.2978 0.19483 0.0
O447 O 0.62788 0.34057 0.1383 0.0
Co448 Co 0.87113 0.32617 0.42049 0.0
O449 O 0.8088 0.30944 0.43394 0.0
O450 O 0.82871 0.37989 0.40733 0.0
C451 C 0.88516 0.2595 0.38073 0.0
O452 O 0.93508 0.35287 0.40267 0.0
Co453 Co 0.95107 0.26336 0.45749 0.0
O454 O 0.97749 0.28692 0.3967 0.0
C455 C 0.90705 0.33348 0.52104 0.0
C456 C 0.79593 0.35108 0.41995 0.0
C457 C 0.97199 0.33065 0.38827 0.0
O458 O 0.87936 0.34652 0.48777 0.0
O459 O 0.93785 0.30058 0.51661 0.0
O460 O 0.86753 0.29613 0.35909 0.0
O461 O 0.89217 0.26338 0.42554 0.0
Co462 Co 0.92268 0.63111 0.68438 0.0
O463 O 0.86448 0.62871 0.71881 0.0
O464 O 0.93321 0.6181 0.75133 0.0
C465 C 0.90609 0.69938 0.64394 0.0
O466 O 0.99034 0.6311 0.66042 0.0
Co467 Co 0.92266 0.62083 0.57637 0.0
O468 O 0.99054 0.62938 0.58076 0.0
C469 C 0.90591 0.5378 0.63583 0.0
C470 C 0.8884 0.62003 0.75653 0.0
C471 C 0.01165 0.63042 0.62006 0.0
O472 O 0.91911 0.56137 0.67166 0.0
O473 O 0.89965 0.55632 0.5949 0.0
O474 O 0.92179 0.69977 0.68676 0.0
O475 O 0.89662 0.65791 0.62797 0.0
Co476 Co 0.62153 0.33653 0.58414 0.0
O477 O 0.55576 0.33214 0.57398 0.0
O478 O 0.58725 0.35404 0.64118 0.0
C479 C 0.63579 0.37556 0.51582 0.0
O480 O 0.68745 0.34905 0.60658 0.0
Co481 Co 0.69337 0.29035 0.51633 0.0
O482 O 0.73598 0.33555 0.54526 0.0
C483 C 0.64941 0.23151 0.59051 0.0
C484 C 0.55 0.34726 0.61676 0.0
C485 C 0.7272 0.35253 0.58592 0.0
O486 O 0.62598 0.2677 0.6058 0.0
O487 O 0.67668 0.23314 0.55464 0.0
O488 O 0.62126 0.39838 0.55286 0.0
O489 O 0.63807 0.33005 0.51982 0.0
Co490 Co 0.94071 0.38723 0.83744 0.0
O491 O 0.97966 0.38375 0.89169 0.0
O492 O 1.00139 0.36163 0.81965 0.0
C493 C 0.91576 0.46218 0.8481 0.0
O494 O 0.90676 0.38743 0.77406 0.0
Co495 Co 0.83808 0.39233 0.85914 0.0
O496 O 0.83307 0.40913 0.79125 0.0
C497 C 0.8848 0.30088 0.86711 0.0
C498 C 0.01137 0.36627 0.86426 0.0
C499 C 0.86537 0.40005 0.76162 0.0
O500 O 0.92047 0.32128 0.85061 0.0
O501 O 0.84708 0.32324 0.87687 0.0
O502 O 0.95453 0.45219 0.82695 0.0
O503 O 0.89532 0.42667 0.86862 0.0
Co504 Co 0.90103 0.65994 0.08341 0.0
O505 O 0.96644 0.66834 0.07599 0.0
O506 O 0.93257 0.63671 0.13926 0.0
C507 C 0.89121 0.6309 0.01014 0.0
O508 O 0.83542 0.64248 0.10325 0.0
Co509 Co 0.82915 0.71168 0.01968 0.0
O510 O 0.78443 0.66773 0.04841 0.0
C511 C 0.87371 0.76272 0.09764 0.0
C512 C 0.97034 0.649 0.11754 0.0
C513 C 0.79453 0.64449 0.08571 0.0
O514 O 0.8942 0.7247 0.11231 0.0
O515 O 0.8486 0.76497 0.0606 0.0
O516 O 0.90536 0.60324 0.04419 0.0
O517 O 0.88633 0.67501 0.02036 0.0
Co518 Co 0.58365 0.61763 0.34295 0.0
O519 O 0.54662 0.628 0.3988 0.0
O520 O 0.52036 0.63619 0.3259 0.0
C521 C 0.615 0.54837 0.36678 0.0
O522 O 0.61538 0.60939 0.27794 0.0
Co523 Co 0.69079 0.61706 0.35796 0.0
O524 O 0.69124 0.59383 0.29213 0.0
C525 C 0.63749 0.70673 0.35719 0.0
C526 C 0.51239 0.63832 0.37134 0.0
C527 C 0.65704 0.59813 0.26413 0.0
O528 O 0.60162 0.6854 0.34307 0.0
O529 O 0.67504 0.68566 0.3699 0.0
O530 O 0.5744 0.54994 0.34765 0.0
O531 O 0.63292 0.58876 0.37585 0.0
Co532 Co 0.68458 0.90509 0.64091 0.0
O533 O 0.7223 0.84829 0.63748 0.0
O534 O 0.7481 0.91973 0.6214 0.0
C535 C 0.65195 0.8893 0.71126 0.0
O536 O 0.65333 0.9713 0.64188 0.0
Co537 Co 0.57643 0.89218 0.64301 0.0
O538 O 0.5779 0.95976 0.66024 0.0
C539 C 0.63067 0.87602 0.55606 0.0
C540 C 0.75652 0.87435 0.6246 0.0
C541 C 0.61219 0.98671 0.65307 0.0
O542 O 0.66603 0.8959 0.57365 0.0
O543 O 0.5936 0.86686 0.57914 0.0
O544 O 0.69278 0.90771 0.70907 0.0
O545 O 0.63487 0.87634 0.67169 0.0
Co546 Co 0.37819 0.31503 0.09086 0.0
O547 O 0.38025 0.28017 0.14989 0.0
O548 O 0.39662 0.24975 0.07963 0.0
C549 C 0.30796 0.3521 0.10239 0.0
O550 O 0.38027 0.33951 0.02255 0.0
Co551 Co 0.3817 0.42382 0.09381 0.0
O552 O 0.37796 0.41921 0.02398 0.0
C553 C 0.46559 0.36802 0.11404 0.0
C554 C 0.3937 0.24391 0.1252 0.0
C555 C 0.38025 0.38021 1.00178 0.0
O556 O 0.44517 0.33136 0.09895 0.0
O557 O 0.44511 0.40813 0.11946 0.0
O558 O 0.31101 0.30898 0.08718 0.0
O559 O 0.34686 0.36967 0.11549 0.0
Co560 Co 0.42717 0.64468 0.82277 0.0
O561 O 0.37558 0.63825 0.78061 0.0
O562 O 0.44934 0.63265 0.7589 0.0
C563 C 0.40175 0.71119 0.85733 0.0
O564 O 0.4886 0.65204 0.85796 0.0
Co565 Co 0.40532 0.63528 0.93045 0.0
O566 O 0.46803 0.66197 0.93456 0.0
C567 C 0.40412 0.55178 0.87062 0.0
C568 C 0.40582 0.63288 0.74706 0.0
C569 C 0.49801 0.66245 0.90119 0.0
O570 O 0.42535 0.57489 0.83794 0.0
O571 O 0.38805 0.5708 0.90834 0.0
O572 O 0.42285 0.71296 0.81679 0.0
O573 O 0.39139 0.66946 0.87264 0.0
Co574 Co 0.14675 0.69041 0.58902 0.0
O575 O 0.14697 0.72557 0.64701 0.0
O576 O 0.12198 0.75396 0.57837 0.0
C577 C 0.222 0.6617 0.59399 0.0
O578 O 0.14122 0.66573 0.52129 0.0
Co579 Co 0.15075 0.58508 0.59368 0.0
O580 O 0.15285 0.58712 0.52365 0.0
C581 C 0.06272 0.63081 0.61754 0.0
C582 C 0.12859 0.7604 0.62324 0.0
C583 C 0.1449 0.62533 0.50088 0.0
O584 O 0.08166 0.66941 0.60448 0.0
O585 O 0.08521 0.59148 0.6188 0.0
O586 O 0.21131 0.70306 0.57689 0.0
O587 O 0.18719 0.63935 0.61279 0.0
Co588 Co 0.1035 0.36299 0.31867 0.0
O589 O 0.16116 0.3713 0.28573 0.0
O590 O 0.09174 0.37725 0.25278 0.0
C591 C 0.12373 0.29519 0.35604 0.0
O592 O 0.03699 0.35439 0.34272 0.0
Co593 Co 0.10474 0.37254 0.42636 0.0
O594 O 0.03732 0.36113 0.42196 0.0
C595 C 0.12051 0.45512 0.36824 0.0
C596 C 0.13662 0.3785 0.24822 0.0
C597 C 0.0161 0.35497 0.38322 0.0
O598 O 0.10206 0.43268 0.33417 0.0
O599 O 0.13084 0.43539 0.40762 0.0
O600 O 0.10948 0.29475 0.31275 0.0
O601 O 0.1307 0.3367 0.37357 0.0
Co602 Co 0.3969 0.66002 0.42792 0.0
O603 O 0.39778 0.602 0.46418 0.0
O604 O 0.3772 0.67281 0.49175 0.0
C605 C 0.46692 0.64997 0.39235 0.0
O606 O 0.39123 0.72784 0.40415 0.0
Co607 Co 0.39717 0.66143 0.31845 0.0
O608 O 0.39646 0.73116 0.32489 0.0
C609 C 0.31639 0.62809 0.37184 0.0
C610 C 0.3827 0.62776 0.49915 0.0
C611 C 0.39116 0.75084 0.36493 0.0
O612 O 0.33181 0.64676 0.4095 0.0
O613 O 0.33873 0.62661 0.33266 0.0
O614 O 0.46345 0.6665 0.43504 0.0
O615 O 0.42877 0.63644 0.37381 0.0
Co616 Co 0.08669 0.61369 0.16045 0.0
O617 O 0.04531 0.61432 0.10797 0.0
O618 O 0.02882 0.64473 0.17845 0.0
C619 C 0.10765 0.53635 0.15534 0.0
O620 O 0.12068 0.61687 0.22366 0.0
Co621 Co 0.19011 0.59518 0.13982 0.0
O622 O 0.19017 0.58263 0.20892 0.0
C623 C 0.14557 0.68361 0.10721 0.0
C624 C 0.01593 0.63588 0.13549 0.0
C625 C 0.15901 0.59764 0.2376 0.0
O626 O 0.11218 0.67596 0.13646 0.0
O627 O 0.17833 0.65335 0.09989 0.0
O628 O 0.06989 0.54964 0.17702 0.0
O629 O 0.12903 0.56953 0.13276 0.0
Co630 Co 0.1245 0.3468 0.92174 0.0
O631 O 0.11465 0.39947 0.9639 0.0
O632 O 0.14226 0.32823 0.98429 0.0
C633 C 0.05635 0.35388 0.88427 0.0
O634 O 0.13808 0.28315 0.89219 0.0
Co635 Co 0.12844 0.35423 0.81263 0.0
O636 O 0.12038 0.28475 0.81516 0.0
C637 C 0.2076 0.38383 0.87035 0.0
C638 C 0.13019 0.37076 0.99652 0.0
C639 C 0.13141 0.26257 0.85284 0.0
O640 O 0.18866 0.36794 0.90811 0.0
O641 O 0.18883 0.38351 0.82954 0.0
O642 O 0.05916 0.33276 0.92517 0.0
O643 O 0.09369 0.37308 0.86856 0.0
Co644 Co 0.43201 0.38448 0.65951 0.0
O645 O 0.47246 0.37749 0.60521 0.0
O646 O 0.49169 0.35784 0.6785 0.0
C647 C 0.40603 0.45875 0.64347 0.0
O648 O 0.40103 0.38835 0.72486 0.0
Co649 Co 0.32477 0.40077 0.6467 0.0
O650 O 0.33044 0.4214 0.71294 0.0
C651 C 0.37047 0.31006 0.62136 0.0
C652 C 0.50347 0.36075 0.63415 0.0
C653 C 0.36367 0.40894 0.73998 0.0
O654 O 0.40631 0.3197 0.64619 0.0
O655 O 0.33708 0.33949 0.61391 0.0
O656 O 0.44608 0.45209 0.66338 0.0
O657 O 0.3859 0.42121 0.62985 0.0
Co658 Co 0.33199 0.0909 0.3744 0.0
O659 O 0.29234 0.14609 0.3793 0.0
O660 O 0.26993 0.07378 0.39689 0.0
C661 C 0.361 0.10727 0.30123 0.0
O662 O 0.36519 0.02576 0.37188 0.0
Co663 Co 0.43871 0.10881 0.36844 0.0
O664 O 0.4385 0.04185 0.34919 0.0
C665 C 0.39025 0.11832 0.45978 0.0
C666 C 0.25965 0.11876 0.39377 0.0
C667 C 0.40618 0.01282 0.35772 0.0
O668 O 0.35327 0.10127 0.4419 0.0
O669 O 0.42651 0.12791 0.43555 0.0
O670 O 0.32096 0.08765 0.30593 0.0
O671 O 0.37913 0.12112 0.34015 0.0
loop_
_geom_bond_atom_site_label_1
_geom_bond_atom_site_label_2
_geom_bond_distance
_geom_bond_site_symmetry_2
_ccdc_geom_bond_type
Co0 O1 2.216 . S
Co0 O2 2.091 . S
Co0 O4 2.004 . S
Co0 O10 2.021 . S
Co0 O12 2.137 . S
Co0 O13 2.244 . S
O1 Co0 2.216 . S
O1 C8 1.247 . S
O2 Co0 2.091 . S
O2 C8 1.261 . S
C3 O12 1.247 . S
C3 O13 1.272 . S
O4 Co0 2.004 . S
O4 C9 1.259 . S
Co5 O6 2.061 . S
Co5 O11 2.052 . S
Co5 O13 2.135 . S
O6 Co5 2.061 . S
O6 C9 1.235 . S
C7 O10 1.238 . S
C7 O11 1.241 . S
C8 O1 1.247 . S
C8 O2 1.261 . S
C9 O4 1.259 . S
C9 O6 1.235 . S
O10 Co0 2.021 . S
O10 C7 1.238 . S
O11 Co5 2.052 . S
O11 C7 1.241 . S
O12 Co0 2.137 . S
O12 C3 1.247 . S
O13 Co0 2.244 . S
O13 C3 1.272 . S
O13 Co5 2.135 . S
Co14 O15 2.216 . S
Co14 O16 2.091 . S
Co14 O18 2.004 . S
Co14 O24 2.021 . S
Co14 O26 2.137 . S
Co14 O27 2.244 . S
O15 Co14 2.216 . S
O15 C22 1.247 . S
O16 Co14 2.091 . S
O16 C22 1.261 . S
C17 O26 1.247 . S
C17 O27 1.272 . S
O18 Co14 2.004 . S
O18 C23 1.259 . S
Co19 O20 2.061 . S
Co19 O25 2.052 . S
Co19 O27 2.135 . S
O20 Co19 2.061 . S
O20 C23 1.235 . S
C21 O24 1.238 . S
C21 O25 1.241 . S
C22 O15 1.247 . S
C22 O16 1.261 . S
C23 O18 1.259 . S
C23 O20 1.235 . S
O24 Co14 2.021 . S
O24 C21 1.238 . S
O25 Co19 2.052 . S
O25 C21 1.241 . S
O26 Co14 2.137 . S
O26 C17 1.247 . S
O27 Co14 2.244 . S
O27 C17 1.272 . S
O27 Co19 2.135 . S
Co28 O29 2.216 . S
Co28 O30 2.091 . S
Co28 O32 2.004 . S
Co28 O38 2.021 . S
Co28 O40 2.137 . S
Co28 O41 2.244 . S
O29 Co28 2.216 . S
O29 C36 1.247 . S
O30 Co28 2.091 . S
O30 C36 1.261 . S
C31 O40 1.247 . S
C31 O41 1.272 . S
O32 Co28 2.004 . S
O32 C37 1.259 . S
Co33 O34 2.061 . S
Co33 O39 2.052 1_556 S
Co33 O41 2.135 . S
O34 Co33 2.061 . S
O34 C37 1.235 . S
C35 O38 1.238 . S
C35 O39 1.241 1_556 S
C36 O29 1.247 . S
C36 O30 1.261 . S
C37 O32 1.259 . S
C37 O34 1.235 . S
O38 Co28 2.021 . S
O38 C35 1.238 . S
O39 Co33 2.052 1_554 S
O39 C35 1.241 1_554 S
O40 Co28 2.137 . S
O40 C31 1.247 . S
O41 Co28 2.244 . S
O41 C31 1.272 . S
O41 Co33 2.135 . S
Co42 O43 2.216 . S
Co42 O44 2.091 . S
Co42 O46 2.004 . S
Co42 O52 2.021 . S
Co42 O54 2.137 . S
Co42 O55 2.244 . S
O43 Co42 2.216 . S
O43 C50 1.247 . S
O44 Co42 2.091 . S
O44 C50 1.261 . S
C45 O54 1.247 . S
C45 O55 1.272 . S
O46 Co42 2.004 . S
O46 C51 1.259 . S
Co47 O48 2.061 . S
Co47 O53 2.052 . S
Co47 O55 2.135 . S
O48 Co47 2.061 . S
O48 C51 1.235 . S
C49 O52 1.238 . S
C49 O53 1.241 . S
C50 O43 1.247 . S
C50 O44 1.261 . S
C51 O46 1.259 . S
C51 O48 1.235 . S
O52 Co42 2.021 . S
O52 C49 1.238 . S
O53 Co47 2.052 . S
O53 C49 1.241 . S
O54 Co42 2.137 . S
O54 C45 1.247 . S
O55 Co42 2.244 . S
O55 C45 1.272 . S
O55 Co47 2.135 . S
Co56 O57 2.216 . S
Co56 O58 2.091 . S
Co56 O60 2.004 . S
Co56 O66 2.021 . S
Co56 O68 2.137 . S
Co56 O69 2.244 . S
O57 Co56 2.216 . S
O57 C64 1.247 . S
O58 Co56 2.091 . S
O58 C64 1.261 . S
C59 O68 1.247 . S
C59 O69 1.272 . S
O60 Co56 2.004 . S
O60 C65 1.259 . S
Co61 O62 2.061 . S
Co61 O67 2.052 . S
Co61 O69 2.135 . S
O62 Co61 2.061 . S
O62 C65 1.235 . S
C63 O66 1.238 . S
C63 O67 1.241 . S
C64 O57 1.247 . S
C64 O58 1.261 . S
C65 O60 1.259 . S
C65 O62 1.235 . S
O66 Co56 2.021 . S
O66 C63 1.238 . S
O67 Co61 2.052 . S
O67 C63 1.241 . S
O68 Co56 2.137 . S
O68 C59 1.247 . S
O69 Co56 2.244 . S
O69 C59 1.272 . S
O69 Co61 2.135 . S
Co70 O71 2.216 . S
Co70 O72 2.091 . S
Co70 O74 2.004 . S
Co70 O80 2.021 . S
Co70 O82 2.137 . S
Co70 O83 2.244 . S
O71 Co70 2.216 . S
O71 C78 1.247 . S
O72 Co70 2.091 . S
O72 C78 1.261 . S
C73 O82 1.247 . S
C73 O83 1.272 . S
O74 Co70 2.004 . S
O74 C79 1.259 . S
Co75 O76 2.061 . S
Co75 O81 2.052 . S
Co75 O83 2.135 . S
O76 Co75 2.061 . S
O76 C79 1.235 . S
C77 O80 1.238 . S
C77 O81 1.241 . S
C78 O71 1.247 . S
C78 O72 1.261 . S
C79 O74 1.259 . S
C79 O76 1.235 . S
O80 Co70 2.021 . S
O80 C77 1.238 . S
O81 Co75 2.052 . S
O81 C77 1.241 . S
O82 Co70 2.137 . S
O82 C73 1.247 . S
O83 Co70 2.244 . S
O83 C73 1.272 . S
O83 Co75 2.135 . S
Co84 O85 2.216 . S
Co84 O86 2.091 . S
Co84 O88 2.004 . S
Co84 O94 2.021 . S
Co84 O96 2.137 . S
Co84 O97 2.244 . S
O85 Co84 2.216 . S
O85 C92 1.247 . S
O86 Co84 2.091 . S
O86 C92 1.261 . S
C87 O96 1.247 . S
C87 O97 1.272 . S
O88 Co84 2.004 . S
O88 C93 1.259 . S
Co89 O90 2.061 . S
Co89 O95 2.052 . S
Co89 O97 2.135 . S
O90 Co89 2.061 . S
O90 C93 1.235 . S
C91 O94 1.238 . S
C91 O95 1.241 . S
C92 O85 1.247 . S
C92 O86 1.261 . S
C93 O88 1.259 . S
C93 O90 1.235 . S
O94 Co84 2.021 . S
O94 C91 1.238 . S
O95 Co89 2.052 . S
O95 C91 1.241 . S
O96 Co84 2.137 . S
O96 C87 1.247 . S
O97 Co84 2.244 . S
O97 C87 1.272 . S
O97 Co89 2.135 . S
Co98 O99 2.216 . S
Co98 O100 2.091 . S
Co98 O102 2.004 . S
Co98 O108 2.021 . S
Co98 O110 2.137 . S
Co98 O111 2.244 . S
O99 Co98 2.216 . S
O99 C106 1.230 1_455 S
O100 Co98 2.091 . S
O100 C106 1.260 1_455 S
C101 O110 1.247 . S
C101 O111 1.272 . S
O102 Co98 2.004 . S
O102 C107 1.259 . S
Co103 O104 2.061 . S
Co103 O109 2.052 . S
Co103 O111 2.135 . S
O104 Co103 2.061 . S
O104 C107 1.235 . S
C105 O108 1.238 . S
C105 O109 1.241 . S
C106 O99 1.230 1_655 S
C106 O100 1.260 1_655 S
C107 O102 1.259 . S
C107 O104 1.235 . S
O108 Co98 2.021 . S
O108 C105 1.238 . S
O109 Co103 2.052 . S
O109 C105 1.241 . S
O110 Co98 2.137 . S
O110 C101 1.247 . S
O111 Co98 2.244 . S
O111 C101 1.272 . S
O111 Co103 2.135 . S
Co112 O113 2.216 . S
Co112 O114 2.091 . S
Co112 O116 2.004 . S
Co112 O122 2.021 . S
Co112 O124 2.137 . S
Co112 O125 2.244 . S
O113 Co112 2.216 . S
O113 C120 1.247 . S
O114 Co112 2.091 . S
O114 C120 1.261 . S
C115 O124 1.247 . S
C115 O125 1.272 . S
O116 Co112 2.004 . S
O116 C121 1.259 . S
Co117 O118 2.061 . S
Co117 O123 2.052 . S
Co117 O125 2.135 . S
O118 Co117 2.061 . S
O118 C121 1.235 . S
C119 O122 1.238 . S
C119 O123 1.241 . S
C120 O113 1.247 . S
C120 O114 1.261 . S
C121 O116 1.259 . S
C121 O118 1.235 . S
O122 Co112 2.021 . S
O122 C119 1.238 . S
O123 Co117 2.052 . S
O123 C119 1.241 . S
O124 Co112 2.137 . S
O124 C115 1.247 . S
O125 Co112 2.244 . S
O125 C115 1.272 . S
O125 Co117 2.135 . S
Co126 O127 2.216 . S
Co126 O128 2.091 . S
Co126 O130 2.004 . S
Co126 O136 2.021 . S
Co126 O138 2.137 . S
Co126 O139 2.244 . S
O127 Co126 2.216 . S
O127 C134 1.247 . S
O128 Co126 2.091 . S
O128 C134 1.261 . S
C129 O138 1.247 . S
C129 O139 1.272 . S
O130 Co126 2.004 . S
O130 C135 1.259 . S
Co131 O132 2.061 . S
Co131 O137 2.052 . S
Co131 O139 2.135 . S
O132 Co131 2.061 . S
O132 C135 1.235 . S
C133 O136 1.238 . S
C133 O137 1.241 . S
C134 O127 1.247 . S
C134 O128 1.261 . S
C135 O130 1.259 . S
C135 O132 1.235 . S
O136 Co126 2.021 . S
O136 C133 1.238 . S
O137 Co131 2.052 . S
O137 C133 1.241 . S
O138 Co126 2.137 . S
O138 C129 1.247 . S
O139 Co126 2.244 . S
O139 C129 1.272 . S
O139 Co131 2.135 . S
Co140 O141 2.216 . S
Co140 O142 2.091 . S
Co140 O144 2.004 . S
Co140 O150 2.021 . S
Co140 O152 2.137 . S
Co140 O153 2.244 . S
O141 Co140 2.216 . S
O141 C148 1.247 . S
O142 Co140 2.091 . S
O142 C148 1.261 . S
C143 O152 1.247 . S
C143 O153 1.272 . S
O144 Co140 2.004 . S
O144 C149 1.259 . S
Co145 O146 2.061 . S
Co145 O151 2.052 . S
Co145 O153 2.135 . S
O146 Co145 2.061 . S
O146 C149 1.235 . S
C147 O150 1.238 . S
C147 O151 1.241 . S
C148 O141 1.247 . S
C148 O142 1.261 . S
C149 O144 1.259 . S
C149 O146 1.235 . S
O150 Co140 2.021 . S
O150 C147 1.238 . S
O151 Co145 2.052 . S
O151 C147 1.241 . S
O152 Co140 2.137 . S
O152 C143 1.247 . S
O153 Co140 2.244 . S
O153 C143 1.272 . S
O153 Co145 2.135 . S
Co154 O155 2.216 . S
Co154 O156 2.091 . S
Co154 O158 2.004 . S
Co154 O164 2.021 . S
Co154 O166 2.137 . S
Co154 O167 2.244 . S
O155 Co154 2.216 . S
O155 C162 1.258 . S
O156 Co154 2.091 . S
O156 C162 1.263 . S
C157 O166 1.247 . S
C157 O167 1.272 . S
O158 Co154 2.004 . S
O158 C163 1.259 . S
Co159 O160 2.061 . S
Co159 O165 2.052 . S
Co159 O167 2.135 . S
O160 Co159 2.061 . S
O160 C163 1.235 . S
C161 O164 1.238 . S
C161 O165 1.241 . S
C162 O155 1.258 . S
C162 O156 1.263 . S
C163 O158 1.259 . S
C163 O160 1.235 . S
O164 Co154 2.021 . S
O164 C161 1.238 . S
O165 Co159 2.052 . S
O165 C161 1.241 . S
O166 Co154 2.137 . S
O166 C157 1.247 . S
O167 Co154 2.244 . S
O167 C157 1.272 . S
O167 Co159 2.135 . S
Co168 O169 2.216 . S
Co168 O170 2.091 . S
Co168 O172 2.004 . S
Co168 O178 2.021 . S
Co168 O180 2.137 . S
Co168 O181 2.244 . S
O169 Co168 2.216 . S
O169 C176 1.247 . S
O170 Co168 2.091 . S
O170 C176 1.261 . S
C171 O180 1.247 . S
C171 O181 1.272 . S
O172 Co168 2.004 . S
O172 C177 1.259 . S
Co173 O174 2.061 . S
Co173 O179 2.052 . S
Co173 O181 2.135 . S
O174 Co173 2.061 . S
O174 C177 1.235 . S
C175 O178 1.238 . S
C175 O179 1.241 . S
C176 O169 1.247 . S
C176 O170 1.261 . S
C177 O172 1.259 . S
C177 O174 1.235 . S
O178 Co168 2.021 . S
O178 C175 1.238 . S
O179 Co173 2.052 . S
O179 C175 1.241 . S
O180 Co168 2.137 . S
O180 C171 1.247 . S
O181 Co168 2.244 . S
O181 C171 1.272 . S
O181 Co173 2.135 . S
Co182 O183 2.216 . S
Co182 O184 2.091 . S
Co182 O186 2.004 . S
Co182 O192 2.021 . S
Co182 O194 2.137 . S
Co182 O195 2.244 . S
O183 Co182 2.216 . S
O183 C190 1.247 . S
O184 Co182 2.091 . S
O184 C190 1.261 . S
C185 O194 1.247 . S
C185 O195 1.272 . S
O186 Co182 2.004 . S
O186 C191 1.259 . S
Co187 O188 2.061 . S
Co187 O193 2.052 . S
Co187 O195 2.135 . S
O188 Co187 2.061 . S
O188 C191 1.235 . S
C189 O192 1.238 . S
C189 O193 1.241 . S
C190 O183 1.247 . S
C190 O184 1.261 . S
C191 O186 1.259 . S
C191 O188 1.235 . S
O192 Co182 2.021 . S
O192 C189 1.238 . S
O193 Co187 2.052 . S
O193 C189 1.241 . S
O194 Co182 2.137 . S
O194 C185 1.247 . S
O195 Co182 2.244 . S
O195 C185 1.272 . S
O195 Co187 2.135 . S
Co196 O197 2.216 . S
Co196 O198 2.091 . S
Co196 O200 2.004 . S
Co196 O206 2.021 . S
Co196 O208 2.137 . S
Co196 O209 2.244 . S
O197 Co196 2.216 . S
O197 C204 1.247 . S
O198 Co196 2.091 . S
O198 C204 1.261 . S
C199 O208 1.247 . S
C199 O209 1.272 . S
O200 Co196 2.004 . S
O200 C205 1.259 . S
Co201 O202 2.061 . S
Co201 O207 2.052 . S
Co201 O209 2.135 . S
O202 Co201 2.061 . S
O202 C205 1.235 . S
C203 O206 1.238 . S
C203 O207 1.241 . S
C204 O197 1.247 . S
C204 O198 1.261 . S
C205 O200 1.259 . S
C205 O202 1.235 . S
O206 Co196 2.021 . S
O206 C203 1.238 . S
O207 Co201 2.052 . S
O207 C203 1.241 . S
O208 Co196 2.137 . S
O208 C199 1.247 . S
O209 Co196 2.244 . S
O209 C199 1.272 . S
O209 Co201 2.135 . S
Co210 O211 2.216 . S
Co210 O212 2.091 . S
Co210 O214 2.004 . S
Co210 O220 2.021 . S
Co210 O222 2.137 . S
Co210 O223 2.244 . S
O211 Co210 2.216 . S
O211 C218 1.247 . S
O212 Co210 2.091 . S
O212 C218 1.261 . S
C213 O222 1.247 . S
C213 O223 1.272 . S
O214 Co210 2.004 . S
O214 C219 1.259 . S
Co215 O216 2.061 . S
Co215 O221 2.052 . S
Co215 O223 2.135 . S
O216 Co215 2.061 . S
O216 C219 1.235 . S
C217 O220 1.238 . S
C217 O221 1.241 . S
C218 O211 1.247 . S
C218 O212 1.261 . S
C219 O214 1.259 . S
C219 O216 1.235 . S
O220 Co210 2.021 . S
O220 C217 1.238 . S
O221 Co215 2.052 . S
O221 C217 1.241 . S
O222 Co210 2.137 . S
O222 C213 1.247 . S
O223 Co210 2.244 . S
O223 C213 1.272 . S
O223 Co215 2.135 . S
Co224 O225 2.216 . S
Co224 O226 2.091 . S
Co224 O228 2.004 . S
Co224 O234 2.021 . S
Co224 O236 2.137 . S
Co224 O237 2.244 . S
O225 Co224 2.216 . S
O225 C232 1.247 . S
O226 Co224 2.091 . S
O226 C232 1.261 . S
C227 O236 1.247 . S
C227 O237 1.272 . S
O228 Co224 2.004 . S
O228 C233 1.259 . S
Co229 O230 2.061 . S
Co229 O235 2.052 . S
Co229 O237 2.135 . S
O230 Co229 2.061 . S
O230 C233 1.235 . S
C231 O234 1.238 . S
C231 O235 1.241 . S
C232 O225 1.247 . S
C232 O226 1.261 . S
C233 O228 1.259 . S
C233 O230 1.235 . S
O234 Co224 2.021 . S
O234 C231 1.238 . S
O235 Co229 2.052 . S
O235 C231 1.241 . S
O236 Co224 2.137 . S
O236 C227 1.247 . S
O237 Co224 2.244 . S
O237 C227 1.272 . S
O237 Co229 2.135 . S
Co238 O239 2.216 . S
Co238 O240 2.091 . S
Co238 O242 2.004 . S
Co238 O248 2.021 . S
Co238 O250 2.137 . S
Co238 O251 2.244 . S
O239 Co238 2.216 . S
O239 C246 1.247 . S
O240 Co238 2.091 . S
O240 C246 1.261 . S
C241 O250 1.247 . S
C241 O251 1.272 . S
O242 Co238 2.004 . S
O242 C247 1.259 . S
Co243 O244 2.061 . S
Co243 O249 2.052 . S
Co243 O251 2.135 . S
O244 Co243 2.061 . S
O244 C247 1.235 . S
C245 O248 1.238 . S
C245 O249 1.241 . S
C246 O239 1.247 . S
C246 O240 1.261 . S
C247 O242 1.259 . S
C247 O244 1.235 . S
O248 Co238 2.021 . S
O248 C245 1.238 . S
O249 Co243 2.052 . S
O249 C245 1.241 . S
O250 Co238 2.137 . S
O250 C241 1.247 . S
O251 Co238 2.244 . S
O251 C241 1.272 . S
O251 Co243 2.135 . S
Co252 O253 2.216 . S
Co252 O254 2.091 . S
Co252 O256 2.004 . S
Co252 O262 2.021 . S
Co252 O264 2.137 . S
Co252 O265 2.244 . S
O253 Co252 2.216 . S
O253 C260 1.247 . S
O254 Co252 2.091 . S
O254 C260 1.261 . S
C255 O264 1.247 . S
C255 O265 1.272 . S
O256 Co252 2.004 . S
O256 C261 1.259 . S
Co257 O258 2.061 . S
Co257 O263 2.052 . S
Co257 O265 2.135 . S
O258 Co257 2.061 . S
O258 C261 1.235 . S
C259 O262 1.238 . S
C259 O263 1.241 . S
C260 O253 1.247 . S
C260 O254 1.261 . S
C261 O256 1.259 . S
C261 O258 1.235 . S
O262 Co252 2.021 . S
O262 C259 1.238 . S
O263 Co257 2.052 . S
O263 C259 1.241 . S
O264 Co252 2.137 . S
O264 C255 1.247 . S
O265 Co252 2.244 . S
O265 C255 1.272 . S
O265 Co257 2.135 . S
Co266 O267 2.216 . S
Co266 O268 2.091 . S
Co266 O270 2.004 . S
Co266 O276 2.021 . S
Co266 O278 2.137 . S
Co266 O279 2.244 . S
O267 Co266 2.216 . S
O267 C274 1.257 . S
O268 Co266 2.091 . S
O268 C274 1.263 . S
C269 O278 1.247 . S
C269 O279 1.272 . S
O270 Co266 2.004 . S
O270 C275 1.259 . S
Co271 O272 2.061 . S
Co271 O277 2.052 . S
Co271 O279 2.135 . S
O272 Co271 2.061 . S
O272 C275 1.235 . S
C273 O276 1.238 . S
C273 O277 1.241 . S
C274 O267 1.257 . S
C274 O268 1.263 . S
C275 O270 1.259 . S
C275 O272 1.235 . S
O276 Co266 2.021 . S
O276 C273 1.238 . S
O277 Co271 2.052 . S
O277 C273 1.241 . S
O278 Co266 2.137 . S
O278 C269 1.247 . S
O279 Co266 2.244 . S
O279 C269 1.272 . S
O279 Co271 2.135 . S
Co280 O281 2.216 . S
Co280 O282 2.091 . S
Co280 O284 2.004 . S
Co280 O290 2.021 . S
Co280 O292 2.137 . S
Co280 O293 2.244 . S
O281 Co280 2.216 . S
O281 C288 1.247 . S
O282 Co280 2.091 . S
O282 C288 1.261 . S
C283 O292 1.247 . S
C283 O293 1.272 . S
O284 Co280 2.004 . S
O284 C289 1.259 . S
Co285 O286 2.061 . S
Co285 O291 2.052 . S
Co285 O293 2.135 . S
O286 Co285 2.061 . S
O286 C289 1.235 . S
C287 O290 1.238 . S
C287 O291 1.241 . S
C288 O281 1.247 . S
C288 O282 1.261 . S
C289 O284 1.259 . S
C289 O286 1.235 . S
O290 Co280 2.021 . S
O290 C287 1.238 . S
O291 Co285 2.052 . S
O291 C287 1.241 . S
O292 Co280 2.137 . S
O292 C283 1.247 . S
O293 Co280 2.244 . S
O293 C283 1.272 . S
O293 Co285 2.135 . S
Co294 O295 2.216 . S
Co294 O296 2.091 . S
Co294 O298 2.004 . S
Co294 O304 2.021 . S
Co294 O306 2.137 . S
Co294 O307 2.244 . S
O295 Co294 2.216 . S
O295 C302 1.247 . S
O296 Co294 2.091 . S
O296 C302 1.261 . S
C297 O306 1.247 . S
C297 O307 1.272 . S
O298 Co294 2.004 . S
O298 C303 1.259 . S
Co299 O300 2.061 . S
Co299 O305 2.052 . S
Co299 O307 2.135 . S
O300 Co299 2.061 . S
O300 C303 1.235 . S
C301 O304 1.238 . S
C301 O305 1.241 . S
C302 O295 1.247 . S
C302 O296 1.261 . S
C303 O298 1.259 . S
C303 O300 1.235 . S
O304 Co294 2.021 . S
O304 C301 1.238 . S
O305 Co299 2.052 . S
O305 C301 1.241 . S
O306 Co294 2.137 . S
O306 C297 1.247 . S
O307 Co294 2.244 . S
O307 C297 1.272 . S
O307 Co299 2.135 . S
Co308 O309 2.216 . S
Co308 O310 2.091 . S
Co308 O312 2.004 . S
Co308 O318 2.021 . S
Co308 O320 2.137 . S
Co308 O321 2.244 . S
O309 Co308 2.216 . S
O309 C316 1.247 . S
O310 Co308 2.091 . S
O310 C316 1.261 . S
C311 O320 1.247 . S
C311 O321 1.272 . S
O312 Co308 2.004 . S
O312 C317 1.259 . S
Co313 O314 2.061 . S
Co313 O319 2.052 . S
Co313 O321 2.135 . S
O314 Co313 2.061 . S
O314 C317 1.235 . S
C315 O318 1.238 . S
C315 O319 1.241 . S
C316 O309 1.247 . S
C316 O310 1.261 . S
C317 O312 1.259 . S
C317 O314 1.235 . S
O318 Co308 2.021 . S
O318 C315 1.238 . S
O319 Co313 2.052 . S
O319 C315 1.241 . S
O320 Co308 2.137 . S
O320 C311 1.247 . S
O321 Co308 2.244 . S
O321 C311 1.272 . S
O321 Co313 2.135 . S
Co322 O323 2.216 . S
Co322 O324 2.091 . S
Co322 O326 2.004 . S
Co322 O332 2.021 . S
Co322 O334 2.137 . S
Co322 O335 2.244 . S
O323 Co322 2.216 . S
O323 C330 1.247 . S
O324 Co322 2.091 . S
O324 C330 1.261 . S
C325 O334 1.247 . S
C325 O335 1.272 . S
O326 Co322 2.004 . S
O326 C331 1.259 . S
Co327 O328 2.061 . S
Co327 O333 2.052 . S
Co327 O335 2.135 . S
O328 Co327 2.061 . S
O328 C331 1.235 . S
C329 O332 1.238 . S
C329 O333 1.241 . S
C330 O323 1.247 . S
C330 O324 1.261 . S
C331 O326 1.259 . S
C331 O328 1.235 . S
O332 Co322 2.021 . S
O332 C329 1.238 . S
O333 Co327 2.052 . S
O333 C329 1.241 . S
O334 Co322 2.137 . S
O334 C325 1.247 . S
O335 Co322 2.244 . S
O335 C325 1.272 . S
O335 Co327 2.135 . S
Co336 O337 2.216 . S
Co336 O338 2.091 . S
Co336 O340 2.004 . S
Co336 O346 2.021 . S
Co336 O348 2.137 . S
Co336 O349 2.244 . S
O337 Co336 2.216 . S
O337 C344 1.247 . S
O338 Co336 2.091 . S
O338 C344 1.261 . S
C339 O348 1.247 . S
C339 O349 1.272 . S
O340 Co336 2.004 . S
O340 C345 1.259 . S
Co341 O342 2.061 . S
Co341 O347 2.052 . S
Co341 O349 2.135 . S
O342 Co341 2.061 . S
O342 C345 1.235 . S
C343 O346 1.238 . S
C343 O347 1.241 . S
C344 O337 1.247 . S
C344 O338 1.261 . S
C345 O340 1.259 . S
C345 O342 1.235 . S
O346 Co336 2.021 . S
O346 C343 1.238 . S
O347 Co341 2.052 . S
O347 C343 1.241 . S
O348 Co336 2.137 . S
O348 C339 1.247 . S
O349 Co336 2.244 . S
O349 C339 1.272 . S
O349 Co341 2.135 . S
Co350 O351 2.216 . S
Co350 O352 2.091 . S
Co350 O354 2.004 . S
Co350 O360 2.021 . S
Co350 O362 2.137 . S
Co350 O363 2.244 . S
O351 Co350 2.216 . S
O351 C358 1.247 . S
O352 Co350 2.091 . S
O352 C358 1.261 . S
C353 O362 1.247 . S
C353 O363 1.272 . S
O354 Co350 2.004 . S
O354 C359 1.259 . S
Co355 O356 2.061 . S
Co355 O361 2.052 . S
Co355 O363 2.135 . S
O356 Co355 2.061 . S
O356 C359 1.235 . S
C357 O360 1.238 . S
C357 O361 1.241 . S
C358 O351 1.247 . S
C358 O352 1.261 . S
C359 O354 1.259 . S
C359 O356 1.235 . S
O360 Co350 2.021 . S
O360 C357 1.238 . S
O361 Co355 2.052 . S
O361 C357 1.241 . S
O362 Co350 2.137 . S
O362 C353 1.247 . S
O363 Co350 2.244 . S
O363 C353 1.272 . S
O363 Co355 2.135 . S
Co364 O365 2.216 . S
Co364 O366 2.091 . S
Co364 O368 2.004 . S
Co364 O374 2.021 . S
Co364 O376 2.137 . S
Co364 O377 2.244 . S
O365 Co364 2.216 . S
O365 C372 1.247 . S
O366 Co364 2.091 . S
O366 C372 1.261 . S
C367 O376 1.247 . S
C367 O377 1.272 . S
O368 Co364 2.004 . S
O368 C373 1.259 . S
Co369 O370 2.061 . S
Co369 O375 2.052 . S
Co369 O377 2.135 . S
O370 Co369 2.061 . S
O370 C373 1.235 . S
C371 O374 1.238 . S
C371 O375 1.241 . S
C372 O365 1.247 . S
C372 O366 1.261 . S
C373 O368 1.259 . S
C373 O370 1.235 . S
O374 Co364 2.021 . S
O374 C371 1.238 . S
O375 Co369 2.052 . S
O375 C371 1.241 . S
O376 Co364 2.137 . S
O376 C367 1.247 . S
O377 Co364 2.244 . S
O377 C367 1.272 . S
O377 Co369 2.135 . S
Co378 O379 2.216 . S
Co378 O380 2.091 . S
Co378 O382 2.004 . S
Co378 O388 2.021 . S
Co378 O390 2.137 . S
Co378 O391 2.244 . S
O379 Co378 2.216 . S
O379 C386 1.247 . S
O380 Co378 2.091 . S
O380 C386 1.261 . S
C381 O390 1.247 . S
C381 O391 1.272 . S
O382 Co378 2.004 . S
O382 C387 1.259 . S
Co383 O384 2.061 . S
Co383 O389 2.052 . S
Co383 O391 2.135 . S
O384 Co383 2.061 . S
O384 C387 1.235 . S
C385 O388 1.238 . S
C385 O389 1.241 . S
C386 O379 1.247 . S
C386 O380 1.261 . S
C387 O382 1.259 . S
C387 O384 1.235 . S
O388 Co378 2.021 . S
O388 C385 1.238 . S
O389 Co383 2.052 . S
O389 C385 1.241 . S
O390 Co378 2.137 . S
O390 C381 1.247 . S
O391 Co378 2.244 . S
O391 C381 1.272 . S
O391 Co383 2.135 . S
Co392 O393 2.216 . S
Co392 O394 2.091 . S
Co392 O396 2.004 . S
Co392 O402 2.021 . S
Co392 O404 2.137 . S
Co392 O405 2.244 . S
O393 Co392 2.216 . S
O393 C400 1.247 . S
O394 Co392 2.091 . S
O394 C400 1.261 . S
C395 O404 1.247 . S
C395 O405 1.272 . S
O396 Co392 2.004 . S
O396 C401 1.259 . S
Co397 O398 2.061 . S
Co397 O403 2.052 . S
Co397 O405 2.135 . S
O398 Co397 2.061 . S
O398 C401 1.235 . S
C399 O402 1.238 . S
C399 O403 1.241 . S
C400 O393 1.247 . S
C400 O394 1.261 . S
C401 O396 1.259 . S
C401 O398 1.235 . S
O402 Co392 2.021 . S
O402 C399 1.238 . S
O403 Co397 2.052 . S
O403 C399 1.241 . S
O404 Co392 2.137 . S
O404 C395 1.247 . S
O405 Co392 2.244 . S
O405 C395 1.272 . S
O405 Co397 2.135 . S
Co406 O407 2.216 . S
Co406 O408 2.091 . S
Co406 O410 2.004 . S
Co406 O416 2.021 . S
Co406 O418 2.137 . S
Co406 O419 2.244 . S
O407 Co406 2.216 . S
O407 C414 1.247 . S
O408 Co406 2.091 . S
O408 C414 1.261 . S
C409 O418 1.247 . S
C409 O419 1.272 . S
O410 Co406 2.004 . S
O410 C415 1.259 . S
Co411 O412 2.061 . S
Co411 O417 2.052 . S
Co411 O419 2.135 . S
O412 Co411 2.061 . S
O412 C415 1.235 . S
C413 O416 1.238 . S
C413 O417 1.241 . S
C414 O407 1.247 . S
C414 O408 1.261 . S
C415 O410 1.259 . S
C415 O412 1.235 . S
O416 Co406 2.021 . S
O416 C413 1.238 . S
O417 Co411 2.052 . S
O417 C413 1.241 . S
O418 Co406 2.137 . S
O418 C409 1.247 . S
O419 Co406 2.244 . S
O419 C409 1.272 . S
O419 Co411 2.135 . S
Co420 O421 2.216 . S
Co420 O422 2.091 . S
Co420 O424 2.004 . S
Co420 O430 2.021 . S
Co420 O432 2.137 . S
Co420 O433 2.244 . S
O421 Co420 2.216 . S
O421 C428 1.247 . S
O422 Co420 2.091 . S
O422 C428 1.261 . S
C423 O432 1.247 . S
C423 O433 1.272 . S
O424 Co420 2.004 . S
O424 C429 1.259 . S
Co425 O426 2.061 . S
Co425 O431 2.052 1_556 S
Co425 O433 2.135 . S
O426 Co425 2.061 . S
O426 C429 1.235 . S
C427 O430 1.238 . S
C427 O431 1.241 1_556 S
C428 O421 1.247 . S
C428 O422 1.261 . S
C429 O424 1.259 . S
C429 O426 1.235 . S
O430 Co420 2.021 . S
O430 C427 1.238 . S
O431 Co425 2.052 1_554 S
O431 C427 1.241 1_554 S
O432 Co420 2.137 . S
O432 C423 1.247 . S
O433 Co420 2.244 . S
O433 C423 1.272 . S
O433 Co425 2.135 . S
Co434 O435 2.216 . S
Co434 O436 2.091 . S
Co434 O438 2.004 . S
Co434 O444 2.021 . S
Co434 O446 2.137 . S
Co434 O447 2.244 . S
O435 Co434 2.216 . S
O435 C442 1.247 . S
O436 Co434 2.091 . S
O436 C442 1.261 . S
C437 O446 1.247 . S
C437 O447 1.272 . S
O438 Co434 2.004 . S
O438 C443 1.259 . S
Co439 O440 2.061 . S
Co439 O445 2.052 . S
Co439 O447 2.135 . S
O440 Co439 2.061 . S
O440 C443 1.235 . S
C441 O444 1.238 . S
C441 O445 1.241 . S
C442 O435 1.247 . S
C442 O436 1.261 . S
C443 O438 1.259 . S
C443 O440 1.235 . S
O444 Co434 2.021 . S
O444 C441 1.238 . S
O445 Co439 2.052 . S
O445 C441 1.241 . S
O446 Co434 2.137 . S
O446 C437 1.247 . S
O447 Co434 2.244 . S
O447 C437 1.272 . S
O447 Co439 2.135 . S
Co448 O449 2.216 . S
Co448 O450 2.091 . S
Co448 O452 2.004 . S
Co448 O458 2.021 . S
Co448 O460 2.137 . S
Co448 O461 2.244 . S
O449 Co448 2.216 . S
O449 C456 1.247 . S
O450 Co448 2.091 . S
O450 C456 1.261 . S
C451 O460 1.247 . S
C451 O461 1.272 . S
O452 Co448 2.004 . S
O452 C457 1.259 . S
Co453 O454 2.061 . S
Co453 O459 2.052 . S
Co453 O461 2.135 . S
O454 Co453 2.061 . S
O454 C457 1.235 . S
C455 O458 1.238 . S
C455 O459 1.241 . S
C456 O449 1.247 . S
C456 O450 1.261 . S
C457 O452 1.259 . S
C457 O454 1.235 . S
O458 Co448 2.021 . S
O458 C455 1.238 . S
O459 Co453 2.052 . S
O459 C455 1.241 . S
O460 Co448 2.137 . S
O460 C451 1.247 . S
O461 Co448 2.244 . S
O461 C451 1.272 . S
O461 Co453 2.135 . S
Co462 O463 2.216 . S
Co462 O464 2.091 . S
Co462 O466 2.004 . S
Co462 O472 2.021 . S
Co462 O474 2.137 . S
Co462 O475 2.244 . S
O463 Co462 2.216 . S
O463 C470 1.247 . S
O464 Co462 2.091 . S
O464 C470 1.261 . S
C465 O474 1.247 . S
C465 O475 1.272 . S
O466 Co462 2.004 . S
O466 C471 1.259 . S
Co467 O468 2.061 . S
Co467 O473 2.052 . S
Co467 O475 2.135 . S
O468 Co467 2.061 . S
O468 C471 1.235 . S
C469 O472 1.238 . S
C469 O473 1.241 . S
C470 O463 1.247 . S
C470 O464 1.261 . S
C471 O466 1.259 . S
C471 O468 1.235 . S
O472 Co462 2.021 . S
O472 C469 1.238 . S
O473 Co467 2.052 . S
O473 C469 1.241 . S
O474 Co462 2.137 . S
O474 C465 1.247 . S
O475 Co462 2.244 . S
O475 C465 1.272 . S
O475 Co467 2.135 . S
Co476 O477 2.216 . S
Co476 O478 2.091 . S
Co476 O480 2.004 . S
Co476 O486 2.021 . S
Co476 O488 2.137 . S
Co476 O489 2.244 . S
O477 Co476 2.216 . S
O477 C484 1.247 . S
O478 Co476 2.091 . S
O478 C484 1.261 . S
C479 O488 1.247 . S
C479 O489 1.272 . S
O480 Co476 2.004 . S
O480 C485 1.259 . S
Co481 O482 2.061 . S
Co481 O487 2.052 . S
Co481 O489 2.135 . S
O482 Co481 2.061 . S
O482 C485 1.235 . S
C483 O486 1.238 . S
C483 O487 1.241 . S
C484 O477 1.247 . S
C484 O478 1.261 . S
C485 O480 1.259 . S
C485 O482 1.235 . S
O486 Co476 2.021 . S
O486 C483 1.238 . S
O487 Co481 2.052 . S
O487 C483 1.241 . S
O488 Co476 2.137 . S
O488 C479 1.247 . S
O489 Co476 2.244 . S
O489 C479 1.272 . S
O489 Co481 2.135 . S
Co490 O491 2.216 . S
Co490 O492 2.091 . S
Co490 O494 2.004 . S
Co490 O500 2.021 . S
Co490 O502 2.137 . S
Co490 O503 2.244 . S
O491 Co490 2.216 . S
O491 C498 1.249 . S
O492 Co490 2.091 . S
O492 C498 1.262 . S
C493 O502 1.247 . S
C493 O503 1.272 . S
O494 Co490 2.004 . S
O494 C499 1.259 . S
Co495 O496 2.061 . S
Co495 O501 2.052 . S
Co495 O503 2.135 . S
O496 Co495 2.061 . S
O496 C499 1.235 . S
C497 O500 1.238 . S
C497 O501 1.241 . S
C498 O491 1.249 . S
C498 O492 1.262 . S
C499 O494 1.259 . S
C499 O496 1.235 . S
O500 Co490 2.021 . S
O500 C497 1.238 . S
O501 Co495 2.052 . S
O501 C497 1.241 . S
O502 Co490 2.137 . S
O502 C493 1.247 . S
O503 Co490 2.244 . S
O503 C493 1.272 . S
O503 Co495 2.135 . S
Co504 O505 2.216 . S
Co504 O506 2.091 . S
Co504 O508 2.004 . S
Co504 O514 2.021 . S
Co504 O516 2.137 . S
Co504 O517 2.244 . S
O505 Co504 2.216 . S
O505 C512 1.247 . S
O506 Co504 2.091 . S
O506 C512 1.261 . S
C507 O516 1.247 . S
C507 O517 1.272 . S
O508 Co504 2.004 . S
O508 C513 1.259 . S
Co509 O510 2.061 . S
Co509 O515 2.052 . S
Co509 O517 2.135 . S
O510 Co509 2.061 . S
O510 C513 1.235 . S
C511 O514 1.238 . S
C511 O515 1.241 . S
C512 O505 1.247 . S
C512 O506 1.261 . S
C513 O508 1.259 . S
C513 O510 1.235 . S
O514 Co504 2.021 . S
O514 C511 1.238 . S
O515 Co509 2.052 . S
O515 C511 1.241 . S
O516 Co504 2.137 . S
O516 C507 1.247 . S
O517 Co504 2.244 . S
O517 C507 1.272 . S
O517 Co509 2.135 . S
Co518 O519 2.216 . S
Co518 O520 2.091 . S
Co518 O522 2.004 . S
Co518 O528 2.021 . S
Co518 O530 2.137 . S
Co518 O531 2.244 . S
O519 Co518 2.216 . S
O519 C526 1.247 . S
O520 Co518 2.091 . S
O520 C526 1.261 . S
C521 O530 1.247 . S
C521 O531 1.272 . S
O522 Co518 2.004 . S
O522 C527 1.259 . S
Co523 O524 2.061 . S
Co523 O529 2.052 . S
Co523 O531 2.135 . S
O524 Co523 2.061 . S
O524 C527 1.235 . S
C525 O528 1.238 . S
C525 O529 1.241 . S
C526 O519 1.247 . S
C526 O520 1.261 . S
C527 O522 1.259 . S
C527 O524 1.235 . S
O528 Co518 2.021 . S
O528 C525 1.238 . S
O529 Co523 2.052 . S
O529 C525 1.241 . S
O530 Co518 2.137 . S
O530 C521 1.247 . S
O531 Co518 2.244 . S
O531 C521 1.272 . S
O531 Co523 2.135 . S
Co532 O533 2.216 . S
Co532 O534 2.091 . S
Co532 O536 2.004 . S
Co532 O542 2.021 . S
Co532 O544 2.137 . S
Co532 O545 2.244 . S
O533 Co532 2.216 . S
O533 C540 1.247 . S
O534 Co532 2.091 . S
O534 C540 1.261 . S
C535 O544 1.247 . S
C535 O545 1.272 . S
O536 Co532 2.004 . S
O536 C541 1.259 . S
Co537 O538 2.061 . S
Co537 O543 2.052 . S
Co537 O545 2.135 . S
O538 Co537 2.061 . S
O538 C541 1.235 . S
C539 O542 1.238 . S
C539 O543 1.241 . S
C540 O533 1.247 . S
C540 O534 1.261 . S
C541 O536 1.259 . S
C541 O538 1.235 . S
O542 Co532 2.021 . S
O542 C539 1.238 . S
O543 Co537 2.052 . S
O543 C539 1.241 . S
O544 Co532 2.137 . S
O544 C535 1.247 . S
O545 Co532 2.244 . S
O545 C535 1.272 . S
O545 Co537 2.135 . S
Co546 O547 2.216 . S
Co546 O548 2.091 . S
Co546 O550 2.004 . S
Co546 O556 2.021 . S
Co546 O558 2.137 . S
Co546 O559 2.244 . S
O547 Co546 2.216 . S
O547 C554 1.247 . S
O548 Co546 2.091 . S
O548 C554 1.261 . S
C549 O558 1.247 . S
C549 O559 1.272 . S
O550 Co546 2.004 . S
O550 C555 1.259 . S
Co551 O552 2.061 . S
Co551 O557 2.052 . S
Co551 O559 2.135 . S
O552 Co551 2.061 . S
O552 C555 1.235 . S
C553 O556 1.238 . S
C553 O557 1.241 . S
C554 O547 1.247 . S
C554 O548 1.261 . S
C555 O550 1.259 . S
C555 O552 1.235 . S
O556 Co546 2.021 . S
O556 C553 1.238 . S
O557 Co551 2.052 . S
O557 C553 1.241 . S
O558 Co546 2.137 . S
O558 C549 1.247 . S
O559 Co546 2.244 . S
O559 C549 1.272 . S
O559 Co551 2.135 . S
Co560 O561 2.216 . S
Co560 O562 2.091 . S
Co560 O564 2.004 . S
Co560 O570 2.021 . S
Co560 O572 2.137 . S
Co560 O573 2.244 . S
O561 Co560 2.216 . S
O561 C568 1.247 . S
O562 Co560 2.091 . S
O562 C568 1.261 . S
C563 O572 1.247 . S
C563 O573 1.272 . S
O564 Co560 2.004 . S
O564 C569 1.259 . S
Co565 O566 2.061 . S
Co565 O571 2.052 . S
Co565 O573 2.135 . S
O566 Co565 2.061 . S
O566 C569 1.235 . S
C567 O570 1.238 . S
C567 O571 1.241 . S
C568 O561 1.247 . S
C568 O562 1.261 . S
C569 O564 1.259 . S
C569 O566 1.235 . S
O570 Co560 2.021 . S
O570 C567 1.238 . S
O571 Co565 2.052 . S
O571 C567 1.241 . S
O572 Co560 2.137 . S
O572 C563 1.247 . S
O573 Co560 2.244 . S
O573 C563 1.272 . S
O573 Co565 2.135 . S
Co574 O575 2.216 . S
Co574 O576 2.091 . S
Co574 O578 2.004 . S
Co574 O584 2.021 . S
Co574 O586 2.137 . S
Co574 O587 2.244 . S
O575 Co574 2.216 . S
O575 C582 1.247 . S
O576 Co574 2.091 . S
O576 C582 1.261 . S
C577 O586 1.247 . S
C577 O587 1.272 . S
O578 Co574 2.004 . S
O578 C583 1.259 . S
Co579 O580 2.061 . S
Co579 O585 2.052 . S
Co579 O587 2.135 . S
O580 Co579 2.061 . S
O580 C583 1.235 . S
C581 O584 1.238 . S
C581 O585 1.241 . S
C582 O575 1.247 . S
C582 O576 1.261 . S
C583 O578 1.259 . S
C583 O580 1.235 . S
O584 Co574 2.021 . S
O584 C581 1.238 . S
O585 Co579 2.052 . S
O585 C581 1.241 . S
O586 Co574 2.137 . S
O586 C577 1.247 . S
O587 Co574 2.244 . S
O587 C577 1.272 . S
O587 Co579 2.135 . S
Co588 O589 2.216 . S
Co588 O590 2.091 . S
Co588 O592 2.004 . S
Co588 O598 2.021 . S
Co588 O600 2.137 . S
Co588 O601 2.244 . S
O589 Co588 2.216 . S
O589 C596 1.247 . S
O590 Co588 2.091 . S
O590 C596 1.261 . S
C591 O600 1.247 . S
C591 O601 1.272 . S
O592 Co588 2.004 . S
O592 C597 1.259 . S
Co593 O594 2.061 . S
Co593 O599 2.052 . S
Co593 O601 2.135 . S
O594 Co593 2.061 . S
O594 C597 1.235 . S
C595 O598 1.238 . S
C595 O599 1.241 . S
C596 O589 1.247 . S
C596 O590 1.261 . S
C597 O592 1.259 . S
C597 O594 1.235 . S
O598 Co588 2.021 . S
O598 C595 1.238 . S
O599 Co593 2.052 . S
O599 C595 1.241 . S
O600 Co588 2.137 . S
O600 C591 1.247 . S
O601 Co588 2.244 . S
O601 C591 1.272 . S
O601 Co593 2.135 . S
Co602 O603 2.216 . S
Co602 O604 2.091 . S
Co602 O606 2.004 . S
Co602 O612 2.021 . S
Co602 O614 2.137 . S
Co602 O615 2.244 . S
O603 Co602 2.216 . S
O603 C610 1.247 . S
O604 Co602 2.091 . S
O604 C610 1.261 . S
C605 O614 1.247 . S
C605 O615 1.272 . S
O606 Co602 2.004 . S
O606 C611 1.259 . S
Co607 O608 2.061 . S
Co607 O613 2.052 . S
Co607 O615 2.135 . S
O608 Co607 2.061 . S
O608 C611 1.235 . S
C609 O612 1.238 . S
C609 O613 1.241 . S
C610 O603 1.247 . S
C610 O604 1.261 . S
C611 O606 1.259 . S
C611 O608 1.235 . S
O612 Co602 2.021 . S
O612 C609 1.238 . S
O613 Co607 2.052 . S
O613 C609 1.241 . S
O614 Co602 2.137 . S
O614 C605 1.247 . S
O615 Co602 2.244 . S
O615 C605 1.272 . S
O615 Co607 2.135 . S
Co616 O617 2.216 . S
Co616 O618 2.091 . S
Co616 O620 2.004 . S
Co616 O626 2.021 . S
Co616 O628 2.137 . S
Co616 O629 2.244 . S
O617 Co616 2.216 . S
O617 C624 1.247 . S
O618 Co616 2.091 . S
O618 C624 1.261 . S
C619 O628 1.247 . S
C619 O629 1.272 . S
O620 Co616 2.004 . S
O620 C625 1.259 . S
Co621 O622 2.061 . S
Co621 O627 2.052 . S
Co621 O629 2.135 . S
O622 Co621 2.061 . S
O622 C625 1.235 . S
C623 O626 1.238 . S
C623 O627 1.241 . S
C624 O617 1.247 . S
C624 O618 1.261 . S
C625 O620 1.259 . S
C625 O622 1.235 . S
O626 Co616 2.021 . S
O626 C623 1.238 . S
O627 Co621 2.052 . S
O627 C623 1.241 . S
O628 Co616 2.137 . S
O628 C619 1.247 . S
O629 Co616 2.244 . S
O629 C619 1.272 . S
O629 Co621 2.135 . S
Co630 O631 2.216 . S
Co630 O632 2.091 . S
Co630 O634 2.004 . S
Co630 O640 2.021 . S
Co630 O642 2.137 . S
Co630 O643 2.244 . S
O631 Co630 2.216 . S
O631 C638 1.235 1_556 S
O632 Co630 2.091 . S
O632 C638 1.260 1_556 S
C633 O642 1.247 . S
C633 O643 1.272 . S
O634 Co630 2.004 . S
O634 C639 1.259 . S
Co635 O636 2.061 . S
Co635 O641 2.052 . S
Co635 O643 2.135 . S
O636 Co635 2.061 . S
O636 C639 1.235 . S
C637 O640 1.238 . S
C637 O641 1.241 . S
C638 O631 1.235 1_554 S
C638 O632 1.260 1_554 S
C639 O634 1.259 . S
C639 O636 1.235 . S
O640 Co630 2.021 . S
O640 C637 1.238 . S
O641 Co635 2.052 . S
O641 C637 1.241 . S
O642 Co630 2.137 . S
O642 C633 1.247 . S
O643 Co630 2.244 . S
O643 C633 1.272 . S
O643 Co635 2.135 . S
Co644 O645 2.216 . S
Co644 O646 2.091 . S
Co644 O648 2.004 . S
Co644 O654 2.021 . S
Co644 O656 2.137 . S
Co644 O657 2.244 . S
O645 Co644 2.216 . S
O645 C652 1.247 . S
O646 Co644 2.091 . S
O646 C652 1.261 . S
C647 O656 1.247 . S
C647 O657 1.272 . S
O648 Co644 2.004 . S
O648 C653 1.259 . S
Co649 O650 2.061 . S
Co649 O655 2.052 . S
Co649 O657 2.135 . S
O650 Co649 2.061 . S
O650 C653 1.235 . S
C651 O654 1.238 . S
C651 O655 1.241 . S
C652 O645 1.247 . S
C652 O646 1.261 . S
C653 O648 1.259 . S
C653 O650 1.235 . S
O654 Co644 2.021 . S
O654 C651 1.238 . S
O655 Co649 2.052 . S
O655 C651 1.241 . S
O656 Co644 2.137 . S
O656 C647 1.247 . S
O657 Co644 2.244 . S
O657 C647 1.272 . S
O657 Co649 2.135 . S
Co658 O659 2.216 . S
Co658 O660 2.091 . S
Co658 O662 2.004 . S
Co658 O668 2.021 . S
Co658 O670 2.137 . S
Co658 O671 2.244 . S
O659 Co658 2.216 . S
O659 C666 1.247 . S
O660 Co658 2.091 . S
O660 C666 1.261 . S
C661 O670 1.247 . S
C661 O671 1.272 . S
O662 Co658 2.004 . S
O662 C667 1.259 . S
Co663 O664 2.061 . S
Co663 O669 2.052 . S
Co663 O671 2.135 . S
O664 Co663 2.061 . S
O664 C667 1.235 . S
C665 O668 1.238 . S
C665 O669 1.241 . S
C666 O659 1.247 . S
C666 O660 1.261 . S
C667 O662 1.259 . S
C667 O664 1.235 . S
O668 Co658 2.021 . S
O668 C665 1.238 . S
O669 Co663 2.052 . S
O669 C665 1.241 . S
O670 Co658 2.137 . S
O670 C661 1.247 . S
O671 Co658 2.244 . S
O671 C661 1.272 . S
O671 Co663 2.135 . S
C591 C3 1.470 . S
C23 C217 1.620 1_455 S
C31 C563 1.462 . S
C51 C245 1.619 . S
C623 C63 1.442 . S
C78 C297 1.459 . S
C91 C651 1.439 . S
C106 C269 1.445 . S
C50 C661 1.421 . S
C7 C357 1.436 . S
C371 C22 1.555 . S
C35 C339 1.376 1_556 S
C79 C343 1.705 . S
C87 C665 1.567 . S
C107 C353 1.561 . S
C59 C367 1.470 1_554 S
C549 C120 1.441 . S
C134 C273 1.515 . S
C121 C619 1.517 . S
C301 C149 1.677 . S
C311 C162 1.423 1_565 S
C577 C177 1.536 . S
C595 C191 1.679 . S
C567 C205 1.706 . S
C465 C218 1.376 . S
C233 C9 1.424 1_655 S
C246 C437 1.386 . S
C37 C261 1.447 . S
C275 C497 1.533 . S
C92 C288 1.469 . S
C303 C525 1.527 . S
C64 C316 1.497 1_455 S
C535 C260 1.396 . S
C219 C143 1.476 . S
C161 C232 1.447 . S
C133 C247 1.585 1_556 S
C129 C289 1.537 . S
C302 C539 1.427 . S
C147 C317 1.598 . S
C274 C157 1.322 1_556 S
C330 C428 1.457 . S
C345 C65 1.474 . S
C331 C493 1.482 . S
C358 C93 1.392 . S
C372 C101 1.400 1_565 S
C456 C387 1.575 . S
C401 C469 1.580 . S
C415 C441 1.616 . S
C423 C255 1.473 . S
C443 C553 1.619 . S
C227 C451 1.456 . S
C471 C581 1.620 1_655 S
C483 C287 1.446 . S
C633 C498 1.422 1_455 S
C511 C315 1.433 . S
C605 C526 1.427 . S
C325 C470 1.427 . S
C413 C427 1.429 1_554 S
C442 C385 1.548 . S
C399 C455 1.437 . S
C499 C395 1.573 . S
C329 C507 1.565 1_556 S
C527 C409 1.554 . S
C479 C381 1.452 . S
C540 C213 1.427 . S
C190 C609 1.510 . S
C283 C541 1.518 1_545 S
C637 C204 1.532 . S
C647 C176 1.418 . S
C163 C241 1.539 . S
C135 C259 1.684 1_545 S
C231 C148 1.574 1_545 S
C554 C45 1.369 . S
C429 C569 1.432 . S
C582 C17 1.390 . S
C597 C457 1.437 1_455 S
C77 C611 1.518 . S
C624 C512 1.472 1_455 S
C639 C105 1.525 . S
C484 C652 1.466 . S
C596 C115 1.394 . S
C203 C555 1.566 1_556 S
C175 C568 1.456 . S
C583 C189 1.581 . S
C625 C185 1.530 . S
C119 C638 1.421 . S
C199 C653 1.523 . S
C610 C171 1.336 . S
C8 C666 1.459 . S
C400 C485 1.366 . S
C73 C667 1.503 1_565 S
C513 C414 1.388 . S
C521 C386 1.396 . S
C373 C36 1.555 . S
C344 C49 1.459 1_565 S
C21 C359 1.622 1_565 S
