# Generated by pormake.
# Topology sof, (5)-cn, num edge types: 1
# Building blocks:
#     Node 0, Type 0, BuildingBlock: BEQFEK_clean_sbu_0, # of connection points: 5
#     Node 1, Type 0, BuildingBlock: BEQFEK_clean_sbu_0, # of connection points: 5
#     Node 2, Type 0, BuildingBlock: BEQFEK_clean_sbu_0, # of connection points: 5
#     Node 3, Type 0, BuildingBlock: BEQFEK_clean_sbu_0, # of connection points: 5
#     Node 4, Type 0, BuildingBlock: BEQFEK_clean_sbu_0, # of connection points: 5
#     Node 5, Type 0, BuildingBlock: BEQFEK_clean_sbu_0, # of connection points: 5
#     Node 6, Type 0, BuildingBlock: BEQFEK_clean_sbu_0, # of connection points: 5
#     Node 7, Type 0, BuildingBlock: BEQFEK_clean_sbu_0, # of connection points: 5
#     Edge 8, Type (0, 0), BuildingBlock: MIFKUJ_clean_linker_0, # of connection points: 2
#     Edge 9, Type (0, 0), BuildingBlock: MIFKUJ_clean_linker_0, # of connection points: 2
#     Edge 10, Type (0, 0), BuildingBlock: MIFKUJ_clean_linker_0, # of connection points: 2
#     Edge 11, Type (0, 0), BuildingBlock: MIFKUJ_clean_linker_0, # of connection points: 2
#     Edge 12, Type (0, 0), BuildingBlock: MIFKUJ_clean_linker_0, # of connection points: 2
#     Edge 13, Type (0, 0), BuildingBlock: MIFKUJ_clean_linker_0, # of connection points: 2
#     Edge 14, Type (0, 0), BuildingBlock: MIFKUJ_clean_linker_0, # of connection points: 2
#     Edge 15, Type (0, 0), BuildingBlock: MIFKUJ_clean_linker_0, # of connection points: 2
#     Edge 16, Type (0, 0), BuildingBlock: MIFKUJ_clean_linker_0, # of connection points: 2
#     Edge 17, Type (0, 0), BuildingBlock: MIFKUJ_clean_linker_0, # of connection points: 2
#     Edge 18, Type (0, 0), BuildingBlock: MIFKUJ_clean_linker_0, # of connection points: 2
#     Edge 19, Type (0, 0), BuildingBlock: MIFKUJ_clean_linker_0, # of connection points: 2
#     Edge 20, Type (0, 0), BuildingBlock: MIFKUJ_clean_linker_0, # of connection points: 2
#     Edge 21, Type (0, 0), BuildingBlock: MIFKUJ_clean_linker_0, # of connection points: 2
#     Edge 22, Type (0, 0), BuildingBlock: MIFKUJ_clean_linker_0, # of connection points: 2
#     Edge 23, Type (0, 0), BuildingBlock: MIFKUJ_clean_linker_0, # of connection points: 2
#     Edge 24, Type (0, 0), BuildingBlock: MIFKUJ_clean_linker_0, # of connection points: 2
#     Edge 25, Type (0, 0), BuildingBlock: MIFKUJ_clean_linker_0, # of connection points: 2
#     Edge 26, Type (0, 0), BuildingBlock: MIFKUJ_clean_linker_0, # of connection points: 2
#     Edge 27, Type (0, 0), BuildingBlock: MIFKUJ_clean_linker_0, # of connection points: 2
# Relax obj value: 0.143
# Max RMSD: 0.163
# Mean RMSD: 0.163
data_MOF--net-sof--node1-BEQFEK_clean_sbu_0--edge1-MIFKUJ_clean_linker_0
_symmetry_space_group_name_H-M    P1
_symmetry_Int_Tables_number       1
_symmetry_cell_setting            triclinic
loop_
_symmetry_equiv_pos_as_xyz
'x, y, z'
_cell_length_a     75.402942
_cell_length_b     23.12386
_cell_length_c     56.862269
_cell_angle_alpha  89.998468
_cell_angle_beta   90.018136
_cell_angle_gamma 90.013066
loop_
_atom_site_label
_atom_site_type_symbol
_atom_site_fract_x
_atom_site_fract_y
_atom_site_fract_z
_atom_type_partial_charge
Co0 Co 0.12756 0.10628 0.08599 0.0
Co1 Co 0.12331 0.98682 0.11058 0.0
C2 C 0.15735 0.02426 0.08609 0.0
O3 O 0.15085 0.07171 0.07871 0.0
O4 O 0.14823 0.9897 0.0987 0.0
C5 C 0.13828 0.21694 0.06951 0.0
O6 O 0.15419 0.19798 0.07495 0.0
C7 C 0.12385 0.86208 0.10856 0.0
C8 C 0.10874 0.83574 0.14007 0.0
C9 C 0.11757 0.81421 0.12057 0.0
N10 N 0.11904 0.90968 0.1204 0.0
N11 N 0.11013 0.89383 0.13935 0.0
C12 C 0.13285 0.86339 0.0851 0.0
H13 H 0.12996 0.90471 0.07593 0.0
H14 H 0.12848 0.82653 0.07401 0.0
H15 H 0.1474 0.86024 0.08773 0.0
C16 C 0.09572 0.06528 0.06047 0.0
N17 N 0.10883 0.05774 0.07625 0.0
N18 N 0.10674 0.00763 0.08682 0.0
C19 C 0.09205 0.98183 0.07825 0.0
C20 C 0.08461 0.0174 0.06118 0.0
C21 C 0.0941 0.11719 0.04491 0.0
H22 H 0.08901 0.15408 0.05542 0.0
H23 H 0.10735 0.12926 0.03801 0.0
H24 H 0.08496 0.10901 0.02998 0.0
O25 O 0.12608 0.12243 0.12025 0.0
O26 O 0.12105 0.03869 0.13807 0.0
H27 H 0.08515 0.927 0.10721 0.0
H28 H 0.07034 0.92118 0.08246 0.0
C29 C 0.08439 0.92685 0.08776 0.0
H30 H 0.09221 0.88971 0.08108 0.0
H31 H 0.10468 0.92266 0.15147 0.0
O32 O 0.12514 0.18297 0.07139 0.0
C33 C 0.12316 0.09328 0.13885 0.0
Co34 Co 0.3773 0.86746 0.08041 0.0
Co35 Co 0.38022 0.98746 0.10489 0.0
C36 C 0.34593 0.94209 0.08331 0.0
O37 O 0.35303 0.89672 0.07486 0.0
O38 O 0.35491 0.97802 0.09542 0.0
C39 C 0.36816 0.75997 0.05784 0.0
O40 O 0.35198 0.78092 0.057 0.0
C41 C 0.37992 0.11211 0.09981 0.0
C42 C 0.39214 0.14252 0.13289 0.0
C43 C 0.38553 0.16169 0.11147 0.0
N44 N 0.38343 0.06615 0.11347 0.0
N45 N 0.39062 0.0845 0.1333 0.0
C46 C 0.37104 0.10773 0.07629 0.0
H47 H 0.3635 0.06694 0.07472 0.0
H48 H 0.38123 0.10768 0.06224 0.0
H49 H 0.36194 0.14482 0.07346 0.0
C50 C 0.40748 0.91377 0.05317 0.0
N51 N 0.39456 0.91949 0.06933 0.0
N52 N 0.39636 0.96935 0.08017 0.0
C53 C 0.4108 0.99658 0.07153 0.0
C54 C 0.4182 0.96252 0.05397 0.0
C55 C 0.40961 0.86198 0.03766 0.0
H56 H 0.41541 0.82607 0.04808 0.0
H57 H 0.39644 0.84776 0.03115 0.0
H58 H 0.41839 0.87145 0.02248 0.0
O59 O 0.38083 0.8524 0.11457 0.0
O60 O 0.38442 0.93706 0.13234 0.0
H61 H 0.41678 0.05062 0.10123 0.0
H62 H 0.43321 0.05268 0.07824 0.0
C63 C 0.41879 0.0501 0.08194 0.0
H64 H 0.41232 0.0887 0.07419 0.0
H65 H 0.39477 0.05739 0.1469 0.0
O66 O 0.38063 0.79124 0.06579 0.0
C67 C 0.3837 0.88206 0.13308 0.0
Co68 Co 0.12684 0.3782 0.41278 0.0
Co69 Co 0.12347 0.50052 0.38996 0.0
C70 C 0.15727 0.46162 0.41298 0.0
O71 O 0.15052 0.41297 0.41844 0.0
O72 O 0.14828 0.49972 0.40203 0.0
C73 C 0.1393 0.26942 0.42474 0.0
O74 O 0.15353 0.29167 0.41492 0.0
C75 C 0.12449 0.6266 0.38725 0.0
C76 C 0.10467 0.6454 0.35964 0.0
C77 C 0.11629 0.67134 0.37527 0.0
N78 N 0.1181 0.57633 0.37902 0.0
N79 N 0.10639 0.58777 0.36235 0.0
C80 C 0.1367 0.63146 0.4079 0.0
H81 H 0.13502 0.59377 0.41977 0.0
H82 H 0.13417 0.67191 0.41786 0.0
H83 H 0.15058 0.63226 0.40149 0.0
C84 C 0.09473 0.41738 0.438 0.0
N85 N 0.10835 0.42663 0.42316 0.0
N86 N 0.10689 0.47848 0.41383 0.0
C87 C 0.09235 0.50438 0.42281 0.0
C88 C 0.0841 0.46644 0.43834 0.0
C89 C 0.09118 0.36043 0.44962 0.0
H90 H 0.09251 0.32517 0.43651 0.0
H91 H 0.10126 0.35307 0.46353 0.0
H92 H 0.07774 0.3585 0.45747 0.0
O93 O 0.12377 0.36165 0.37911 0.0
O94 O 0.12189 0.44788 0.36221 0.0
H95 H 0.08188 0.56605 0.3985 0.0
H96 H 0.07598 0.58009 0.42879 0.0
C97 C 0.08665 0.56467 0.41694 0.0
H98 H 0.09811 0.59433 0.4186 0.0
H99 H 0.09924 0.55626 0.35325 0.0
O100 O 0.12581 0.30147 0.42768 0.0
C101 C 0.12207 0.39289 0.36088 0.0
Co102 Co 0.37519 0.63796 0.41081 0.0
Co103 Co 0.37909 0.51116 0.39335 0.0
C104 C 0.34477 0.55885 0.414 0.0
O105 O 0.35136 0.60824 0.4186 0.0
O106 O 0.35403 0.51959 0.40419 0.0
C107 C 0.372 0.74464 0.43904 0.0
O108 O 0.36343 0.71597 0.45543 0.0
C109 C 0.38024 0.38731 0.40325 0.0
C110 C 0.39486 0.35336 0.37254 0.0
C111 C 0.38756 0.3372 0.39394 0.0
N112 N 0.38354 0.43116 0.38835 0.0
N113 N 0.3921 0.4105 0.36991 0.0
C114 C 0.3702 0.39381 0.42584 0.0
H115 H 0.36099 0.43083 0.42502 0.0
H116 H 0.37965 0.40207 0.44041 0.0
H117 H 0.36254 0.354 0.42983 0.0
C118 C 0.40738 0.60615 0.43801 0.0
N119 N 0.39369 0.59279 0.42374 0.0
N120 N 0.39576 0.53979 0.41578 0.0
C121 C 0.411 0.51797 0.42453 0.0
C122 C 0.4188 0.5592 0.43896 0.0
C123 C 0.41039 0.66476 0.44843 0.0
H124 H 0.41029 0.69769 0.43425 0.0
H125 H 0.39943 0.67484 0.46076 0.0
H126 H 0.4232 0.6673 0.45798 0.0
O127 O 0.37785 0.64197 0.37628 0.0
O128 O 0.38185 0.55283 0.36298 0.0
H129 H 0.41842 0.45358 0.39928 0.0
H130 H 0.43184 0.45292 0.42563 0.0
C131 C 0.41828 0.45947 0.41862 0.0
H132 H 0.40967 0.42586 0.42645 0.0
H133 H 0.39646 0.43568 0.35582 0.0
O134 O 0.37744 0.71862 0.42077 0.0
C135 C 0.3806 0.60705 0.35938 0.0
Co136 Co 0.87339 0.85678 0.91571 0.0
Co137 Co 0.87956 0.98082 0.89618 0.0
C138 C 0.8447 0.94194 0.91846 0.0
O139 O 0.85046 0.89202 0.92393 0.0
O140 O 0.85447 0.978 0.90754 0.0
C141 C 0.86844 0.75078 0.94438 0.0
O142 O 0.86253 0.78157 0.96212 0.0
C143 C 0.88257 0.1034 0.90611 0.0
C144 C 0.89076 0.14031 0.87197 0.0
C145 C 0.88655 0.15505 0.89495 0.0
N146 N 0.88452 0.06016 0.89056 0.0
N147 N 0.88952 0.08235 0.8702 0.0
C148 C 0.8757 0.09532 0.93061 0.0
H149 H 0.87054 0.05092 0.93318 0.0
H150 H 0.88659 0.1022 0.94339 0.0
H151 H 0.86513 0.12745 0.93437 0.0
C152 C 0.90612 0.88614 0.94273 0.0
N153 N 0.89291 0.89935 0.92767 0.0
N154 N 0.89581 0.95103 0.91877 0.0
C155 C 0.91114 0.97191 0.92754 0.0
C156 C 0.91807 0.9319 0.94324 0.0
C157 C 0.90706 0.83098 0.95641 0.0
H158 H 0.90823 0.79401 0.94407 0.0
H159 H 0.89461 0.82552 0.96651 0.0
H160 H 0.91837 0.83058 0.96888 0.0
O161 O 0.87518 0.85053 0.88108 0.0
O162 O 0.88156 0.93683 0.86633 0.0
H163 H 0.91732 0.03258 0.90008 0.0
H164 H 0.93469 0.02322 0.92157 0.0
C165 C 0.92012 0.02577 0.91901 0.0
H166 H 0.9151 0.0634 0.92907 0.0
H167 H 0.89173 0.05809 0.85501 0.0
O168 O 0.87361 0.77538 0.92564 0.0
C169 C 0.87869 0.88297 0.86362 0.0
Co170 Co 0.62819 0.14314 0.91082 0.0
Co171 Co 0.62456 0.01611 0.89367 0.0
C172 C 0.65876 0.06448 0.91414 0.0
O173 O 0.65224 0.11429 0.91807 0.0
O174 O 0.64951 0.02446 0.90483 0.0
C175 C 0.63199 0.25012 0.9386 0.0
O176 O 0.64133 0.2219 0.95437 0.0
C177 C 0.62254 0.89354 0.9047 0.0
C178 C 0.61067 0.85684 0.87246 0.0
C179 C 0.61629 0.84235 0.89494 0.0
N180 N 0.6203 0.93613 0.88891 0.0
N181 N 0.61332 0.91394 0.86961 0.0
C182 C 0.63085 0.90235 0.92838 0.0
H183 H 0.63899 0.94207 0.92868 0.0
H184 H 0.6203 0.90746 0.9418 0.0
H185 H 0.63921 0.86467 0.93318 0.0
C186 C 0.59687 0.10925 0.93946 0.0
N187 N 0.61011 0.09709 0.92431 0.0
N188 N 0.60795 0.0444 0.9161 0.0
C189 C 0.59301 0.02176 0.92537 0.0
C190 C 0.58563 0.06177 0.9407 0.0
C191 C 0.59508 0.16537 0.95233 0.0
H192 H 0.59214 0.20037 0.93956 0.0
H193 H 0.60781 0.17571 0.9611 0.0
H194 H 0.58447 0.16369 0.96581 0.0
O195 O 0.62488 0.14708 0.87629 0.0
O196 O 0.62177 0.05724 0.8633 0.0
H197 H 0.58707 0.95962 0.89839 0.0
H198 H 0.57006 0.96691 0.9204 0.0
C199 C 0.5846 0.96644 0.91738 0.0
H200 H 0.59031 0.9298 0.9274 0.0
H201 H 0.61007 0.93796 0.85468 0.0
O202 O 0.6258 0.22376 0.92083 0.0
C203 C 0.62238 0.11148 0.85954 0.0
Co204 Co 0.87756 0.62835 0.58821 0.0
Co205 Co 0.87788 0.50113 0.60619 0.0
C206 C 0.84511 0.55566 0.58543 0.0
O207 O 0.85268 0.60417 0.58217 0.0
O208 O 0.85339 0.51303 0.59433 0.0
C209 C 0.87221 0.73072 0.55966 0.0
O210 O 0.86056 0.70043 0.54769 0.0
C211 C 0.87287 0.37663 0.60235 0.0
C212 C 0.89314 0.34226 0.62668 0.0
C213 C 0.88058 0.32581 0.61019 0.0
N214 N 0.88085 0.4212 0.61316 0.0
N215 N 0.89274 0.40042 0.62801 0.0
C216 C 0.8576 0.38329 0.58574 0.0
H217 H 0.84669 0.40578 0.59505 0.0
H218 H 0.86169 0.41039 0.57057 0.0
H219 H 0.85234 0.34129 0.57951 0.0
C220 C 0.90792 0.58587 0.56014 0.0
N221 N 0.89436 0.57718 0.57514 0.0
N222 N 0.89477 0.52352 0.58282 0.0
C223 C 0.90855 0.49601 0.5726 0.0
C224 C 0.91739 0.53464 0.558 0.0
C225 C 0.91268 0.6438 0.5502 0.0
H226 H 0.91313 0.67617 0.56458 0.0
H227 H 0.90223 0.65743 0.53762 0.0
H228 H 0.92569 0.64326 0.54114 0.0
O229 O 0.88184 0.63539 0.62216 0.0
O230 O 0.88138 0.54563 0.63598 0.0
H231 H 0.91781 0.42783 0.59479 0.0
H232 H 0.92348 0.41859 0.56415 0.0
C233 C 0.91308 0.43373 0.57648 0.0
H234 H 0.90109 0.40685 0.57387 0.0
H235 H 0.90103 0.42601 0.63838 0.0
O236 O 0.88081 0.70692 0.57622 0.0
C237 C 0.88297 0.59993 0.63916 0.0
Co238 Co 0.6276 0.37231 0.58048 0.0
Co239 Co 0.62376 0.49227 0.60511 0.0
C240 C 0.65797 0.45361 0.58188 0.0
O241 O 0.65141 0.40604 0.57468 0.0
O242 O 0.64872 0.48914 0.59381 0.0
C243 C 0.63886 0.26312 0.56328 0.0
O244 O 0.65465 0.28391 0.56815 0.0
C245 C 0.6255 0.61731 0.6047 0.0
C246 C 0.60885 0.64269 0.63495 0.0
C247 C 0.61899 0.66486 0.61673 0.0
N248 N 0.61958 0.56928 0.61535 0.0
N249 N 0.60975 0.58457 0.63356 0.0
C250 C 0.63547 0.61706 0.58192 0.0
H251 H 0.63288 0.5764 0.57214 0.0
H252 H 0.63161 0.65459 0.57087 0.0
H253 H 0.64988 0.61994 0.58562 0.0
C254 C 0.59594 0.41466 0.55488 0.0
N255 N 0.60924 0.42208 0.5704 0.0
N256 N 0.60744 0.4725 0.58084 0.0
C257 C 0.59285 0.49889 0.57228 0.0
C258 C 0.58505 0.46309 0.55558 0.0
C259 C 0.59296 0.35985 0.54145 0.0
H260 H 0.59181 0.3233 0.554 0.0
H261 H 0.60463 0.35132 0.53008 0.0
H262 H 0.5808 0.3617 0.53052 0.0
O263 O 0.62493 0.35523 0.61436 0.0
O264 O 0.62104 0.43931 0.63237 0.0
H265 H 0.58402 0.55717 0.59907 0.0
H266 H 0.57443 0.57117 0.57043 0.0
C267 C 0.58658 0.55746 0.57987 0.0
H268 H 0.59709 0.58969 0.57623 0.0
H269 H 0.60336 0.55539 0.6447 0.0
O270 O 0.62542 0.29573 0.56549 0.0
C271 C 0.62221 0.38437 0.63299 0.0
H272 H 0.17776 0.94067 0.10664 0.0
H273 H 0.20959 0.92576 0.10218 0.0
H274 H 0.21147 0.06055 0.04974 0.0
H275 H 0.1797 0.07737 0.05482 0.0
H276 H 0.23154 0.8948 0.06999 0.0
H277 H 0.2498 0.13505 0.05396 0.0
H278 H 0.23813 0.23225 0.06304 0.0
H279 H 0.21124 0.16468 0.12367 0.0
H280 H 0.22294 0.06733 0.11513 0.0
H281 H 0.32426 0.90036 0.04853 0.0
H282 H 0.29223 0.91483 0.04452 0.0
H283 H 0.29217 0.01776 0.10789 0.0
H284 H 0.32419 0.00628 0.11111 0.0
H285 H 0.27104 0.06464 0.07992 0.0
H286 H 0.27903 0.86783 0.10502 0.0
H287 H 0.29075 0.76839 0.10267 0.0
H288 H 0.26512 0.74484 0.0359 0.0
H289 H 0.25343 0.84444 0.03773 0.0
C290 C 0.1849 0.96691 0.09401 0.0
C291 C 0.17622 0.01077 0.08131 0.0
C292 C 0.20312 0.95817 0.09142 0.0
C293 C 0.21303 0.99269 0.07593 0.0
C294 C 0.20421 0.03427 0.06222 0.0
C295 C 0.18602 0.04367 0.06507 0.0
C296 C 0.23268 0.98704 0.07512 0.0
C297 C 0.24018 0.93198 0.07205 0.0
C298 C 0.24401 0.03529 0.07828 0.0
C299 C 0.23706 0.09382 0.08371 0.0
C300 C 0.24143 0.14101 0.06926 0.0
C301 C 0.23481 0.19611 0.07431 0.0
C302 C 0.22389 0.20459 0.09386 0.0
C303 C 0.21964 0.15802 0.10847 0.0
C304 C 0.22625 0.10288 0.10352 0.0
C305 C 0.31738 0.9264 0.06148 0.0
C306 C 0.32671 0.95205 0.08017 0.0
C307 C 0.29906 0.93437 0.05927 0.0
C308 C 0.28964 0.96653 0.07614 0.0
C309 C 0.29906 0.99288 0.09458 0.0
C310 C 0.31739 0.98615 0.09646 0.0
C311 C 0.26998 0.97223 0.07504 0.0
C312 C 0.26244 0.02743 0.07764 0.0
C313 C 0.25863 0.92375 0.07245 0.0
C314 C 0.26552 0.86374 0.0714 0.0
C315 C 0.27599 0.84154 0.08978 0.0
C316 C 0.28261 0.78515 0.08855 0.0
C317 C 0.27873 0.75038 0.06912 0.0
C318 C 0.26815 0.77186 0.05092 0.0
C319 C 0.26151 0.82825 0.05205 0.0
H320 H 0.28388 0.70675 0.06819 0.0
H321 H 0.21877 0.24726 0.09773 0.0
H322 H 0.31876 0.63778 0.42381 0.0
H323 H 0.287 0.61987 0.4279 0.0
H324 H 0.29601 0.43666 0.41966 0.0
H325 H 0.3277 0.4545 0.41469 0.0
H326 H 0.27006 0.46624 0.39321 0.0
H327 H 0.28395 0.50081 0.47376 0.0
H328 H 0.29643 0.5527 0.50783 0.0
H329 H 0.2625 0.69769 0.49368 0.0
H330 H 0.24997 0.64697 0.4593 0.0
H331 H 0.1827 0.38224 0.42437 0.0
H332 H 0.21456 0.39862 0.4288 0.0
H333 H 0.20683 0.58124 0.41758 0.0
H334 H 0.17491 0.56527 0.41279 0.0
H335 H 0.23175 0.5495 0.45554 0.0
H336 H 0.21928 0.51204 0.37333 0.0
H337 H 0.20658 0.45549 0.34064 0.0
H338 H 0.23828 0.30906 0.36039 0.0
H339 H 0.25096 0.36453 0.39345 0.0
C340 C 0.31401 0.59359 0.42315 0.0
C341 C 0.32577 0.54759 0.41886 0.0
C342 C 0.29583 0.58335 0.42561 0.0
C343 C 0.28906 0.5268 0.42432 0.0
C344 C 0.30087 0.48069 0.42067 0.0
C345 C 0.31901 0.49095 0.41789 0.0
C346 C 0.26961 0.51604 0.42529 0.0
C347 C 0.2618 0.48369 0.40712 0.0
C348 C 0.25865 0.5396 0.44315 0.0
C349 C 0.26614 0.57028 0.46381 0.0
C350 C 0.27924 0.54395 0.47779 0.0
C351 C 0.28631 0.57312 0.49718 0.0
C352 C 0.2803 0.62852 0.50288 0.0
C353 C 0.26717 0.6548 0.48922 0.0
C354 C 0.26006 0.62584 0.4698 0.0
C355 C 0.18771 0.42605 0.42314 0.0
C356 C 0.17626 0.47246 0.41806 0.0
C357 C 0.20592 0.43525 0.42565 0.0
C358 C 0.21301 0.49106 0.42339 0.0
C359 C 0.20157 0.53787 0.4194 0.0
C360 C 0.18336 0.52861 0.41656 0.0
C361 C 0.23246 0.49988 0.42357 0.0
C362 C 0.24017 0.5319 0.44184 0.0
C363 C 0.2434 0.4754 0.40602 0.0
C364 C 0.23592 0.44222 0.38601 0.0
C365 C 0.22343 0.46763 0.37082 0.0
C366 C 0.21625 0.4358 0.35221 0.0
C367 C 0.22158 0.37866 0.34848 0.0
C368 C 0.23414 0.3533 0.36332 0.0
C369 C 0.24133 0.38491 0.38199 0.0
H370 H 0.21601 0.35409 0.33406 0.0
H371 H 0.28579 0.65103 0.5179 0.0
H372 H 0.81829 0.87058 0.93423 0.0
H373 H 0.78678 0.89322 0.93818 0.0
H374 H 0.79704 0.06966 0.91777 0.0
H375 H 0.82864 0.04758 0.91377 0.0
H376 H 0.77202 0.05893 0.95482 0.0
H377 H 0.78325 0.98079 0.87739 0.0
H378 H 0.79468 0.90804 0.84954 0.0
H379 H 0.76074 0.7792 0.88008 0.0
H380 H 0.74929 0.85106 0.90835 0.0
H381 H 0.68567 0.14314 0.91782 0.0
H382 H 0.71727 0.12335 0.92286 0.0
H383 H 0.70604 0.94072 0.92826 0.0
H384 H 0.67455 0.96016 0.92203 0.0
H385 H 0.73194 0.95357 0.90045 0.0
H386 H 0.71939 0.03031 0.97688 0.0
H387 H 0.70808 0.10106 0.00564 0.0
H388 H 0.74405 0.22925 0.979 0.0
H389 H 0.75542 0.15948 0.94986 0.0
C390 C 0.81392 0.91443 0.93088 0.0
C391 C 0.82598 0.95711 0.92343 0.0
C392 C 0.79589 0.92723 0.93311 0.0
C393 C 0.78958 0.98292 0.928 0.0
C394 C 0.80167 0.02639 0.92175 0.0
C395 C 0.8197 0.01357 0.91937 0.0
C396 C 0.77026 0.99468 0.92756 0.0
C397 C 0.76321 0.03635 0.94284 0.0
C398 C 0.7588 0.96421 0.91226 0.0
C399 C 0.76555 0.92114 0.89513 0.0
C400 C 0.77832 0.93684 0.87828 0.0
C401 C 0.78479 0.89579 0.8624 0.0
C402 C 0.77848 0.83899 0.86309 0.0
C403 C 0.76564 0.82319 0.8796 0.0
C404 C 0.75915 0.86406 0.89554 0.0
C405 C 0.68994 0.09884 0.92035 0.0
C406 C 0.67765 0.05319 0.91948 0.0
C407 C 0.70801 0.08755 0.92338 0.0
C408 C 0.71411 0.03052 0.92625 0.0
C409 C 0.70173 0.98507 0.92602 0.0
C410 C 0.68372 0.99623 0.92251 0.0
C411 C 0.73342 0.01773 0.92794 0.0
C412 C 0.74057 0.97597 0.91271 0.0
C413 C 0.7449 0.0478 0.94346 0.0
C414 C 0.73815 0.08978 0.96105 0.0
C415 C 0.72481 0.0737 0.97704 0.0
C416 C 0.7184 0.11361 0.99343 0.0
C417 C 0.72532 0.16965 0.99411 0.0
C418 C 0.7387 0.18585 0.97844 0.0
C419 C 0.74514 0.14611 0.962 0.0
H420 H 0.72033 0.20049 0.00681 0.0
H421 H 0.78351 0.80727 0.85079 0.0
H422 H 0.67597 0.55286 0.59274 0.0
H423 H 0.70763 0.57172 0.58843 0.0
H424 H 0.7148 0.40337 0.55723 0.0
H425 H 0.68307 0.38388 0.56152 0.0
H426 H 0.73839 0.42437 0.59268 0.0
H427 H 0.71774 0.52377 0.5237 0.0
H428 H 0.69906 0.59267 0.50174 0.0
H429 H 0.71971 0.73304 0.54291 0.0
H430 H 0.73834 0.66487 0.56535 0.0
H431 H 0.82869 0.46061 0.56752 0.0
H432 H 0.79691 0.44552 0.56199 0.0
H433 H 0.78678 0.61976 0.5857 0.0
H434 H 0.81875 0.63559 0.59036 0.0
H435 H 0.76452 0.59432 0.55221 0.0
H436 H 0.78313 0.49861 0.62294 0.0
H437 H 0.80143 0.43247 0.64679 0.0
H438 H 0.78396 0.28856 0.60505 0.0
H439 H 0.76573 0.35401 0.58074 0.0
C440 C 0.6842 0.52001 0.58468 0.0
C441 C 0.67693 0.46679 0.57748 0.0
C442 C 0.70232 0.531 0.58216 0.0
C443 C 0.71356 0.48912 0.57236 0.0
C444 C 0.70634 0.43633 0.5648 0.0
C445 C 0.68819 0.42535 0.56721 0.0
C446 C 0.73299 0.49917 0.57131 0.0
C447 C 0.74414 0.46093 0.58346 0.0
C448 C 0.74041 0.54797 0.55995 0.0
C449 C 0.72934 0.58912 0.54633 0.0
C450 C 0.71821 0.56928 0.52819 0.0
C451 C 0.70764 0.60821 0.51564 0.0
C452 C 0.70817 0.66717 0.52096 0.0
C453 C 0.71931 0.68735 0.53882 0.0
C454 C 0.72989 0.64859 0.55144 0.0
C455 C 0.81968 0.49569 0.57148 0.0
C456 C 0.82612 0.54886 0.57979 0.0
C457 C 0.80151 0.48707 0.56833 0.0
C458 C 0.78937 0.53093 0.57407 0.0
C459 C 0.79586 0.5851 0.58129 0.0
C460 C 0.81411 0.59412 0.58398 0.0
C461 C 0.76996 0.51942 0.57357 0.0
C462 C 0.7588 0.55747 0.56125 0.0
C463 C 0.76245 0.47085 0.58508 0.0
C464 C 0.7732 0.43129 0.59989 0.0
C465 C 0.78327 0.45291 0.61877 0.0
C466 C 0.79363 0.41555 0.63237 0.0
C467 C 0.7939 0.35638 0.6274 0.0
C468 C 0.78376 0.33442 0.60886 0.0
C469 C 0.7734 0.37161 0.59518 0.0
H470 H 0.80194 0.32753 0.63794 0.0
H471 H 0.69998 0.69724 0.51123 0.0
H472 H 0.05658 0.09095 0.05755 0.0
H473 H 0.02837 0.07393 0.03726 0.0
H474 H 0.04673 0.90543 0.0156 0.0
H475 H 0.07509 0.92284 0.03563 0.0
H476 H 0.02971 0.96378 0.97982 0.0
H477 H 0.01895 0.91612 0.06069 0.0
H478 H 0.01887 0.93345 0.10347 0.0
H479 H 0.98418 0.07885 0.094 0.0
H480 H 0.98428 0.06294 0.0511 0.0
H481 H 0.94554 0.85501 0.94485 0.0
H482 H 0.97397 0.86671 0.96534 0.0
H483 H 0.95699 0.03339 0.99101 0.0
H484 H 0.92844 0.02102 0.97102 0.0
H485 H 0.97348 0.97281 0.02502 0.0
H486 H 0.9847 0.02305 0.94452 0.0
H487 H 0.98491 0.00791 0.9016 0.0
H488 H 0.01877 0.86011 0.91013 0.0
H489 H 0.01855 0.87387 0.95317 0.0
C490 C 0.05462 0.0506 0.04822 0.0
C491 C 0.06791 0.00811 0.04811 0.0
C492 C 0.0385 0.04074 0.0368 0.0
C493 C 0.03539 0.98814 0.02515 0.0
C494 C 0.04884 0.94622 0.02454 0.0
C495 C 0.06496 0.95603 0.03604 0.0
C496 C 0.01798 0.97658 0.01394 0.0
C497 C 0.01743 0.9649 0.98974 0.0
C498 C 0.00195 0.97926 0.02684 0.0
C499 C 0.00175 0.98865 0.05265 0.0
C500 C 0.01141 0.95206 0.06771 0.0
C501 C 0.01134 0.96159 0.09199 0.0
C502 C 1.00155 0.0073 0.10145 0.0
C503 C 0.99177 0.0435 0.08665 0.0
C504 C 0.99182 0.03422 0.06235 0.0
C505 C 0.94783 0.89364 0.9552 0.0
C506 C 0.93485 0.93701 0.95653 0.0
C507 C 0.96409 0.90057 0.96669 0.0
C508 C 0.96766 0.95121 0.97951 0.0
C509 C 0.95453 0.994 0.98122 0.0
C510 C 0.93829 0.98705 0.96974 0.0
C511 C 0.98518 0.96023 0.99084 0.0
C512 C 0.98576 0.97144 0.01508 0.0
C513 C 1.00123 0.95735 0.97796 0.0
C514 C 1.00145 0.94912 0.95209 0.0
C515 C 0.99207 0.98704 0.93726 0.0
C516 C 0.99221 0.97875 0.91291 0.0
C517 C 0.00181 0.93298 0.90315 0.0
C518 C 0.01132 0.89549 0.91772 0.0
C519 C 0.0112 0.90353 0.9421 0.0
H520 H 0.00191 0.92665 0.88429 0.0
H521 H 1.00152 0.0146 0.12025 0.0
H522 H 0.44678 0.89113 0.05046 0.0
H523 H 0.47515 0.91138 0.03107 0.0
H524 H 0.45571 0.07884 0.00976 0.0
H525 H 0.42726 0.0585 0.02912 0.0
H526 H 0.47394 0.01948 0.97387 0.0
H527 H 0.48217 0.07321 0.05459 0.0
H528 H 0.48136 0.05842 0.0975 0.0
H529 H 0.51799 0.91713 0.09107 0.0
H530 H 0.51878 0.93047 0.04802 0.0
H531 H 0.55746 0.13591 0.94091 0.0
H532 H 0.52886 0.12247 0.96072 0.0
H533 H 0.54707 0.95942 0.98866 0.0
H534 H 0.5758 0.97356 0.96934 0.0
H535 H 0.52914 0.02025 0.02144 0.0
H536 H 0.52039 0.96349 0.94112 0.0
H537 H 0.52104 0.97583 0.89806 0.0
H538 H 0.48539 0.11997 0.90352 0.0
H539 H 0.48473 0.10904 0.94669 0.0
C540 C 0.44852 0.93189 0.04136 0.0
C541 C 0.43491 0.97326 0.04114 0.0
C542 C 0.46473 0.94357 0.03045 0.0
C543 C 0.46755 0.99677 0.01914 0.0
C544 C 0.45378 0.03757 0.01841 0.0
C545 C 0.43762 0.02605 0.02949 0.0
C546 C 0.48502 0.01022 0.00856 0.0
C547 C 0.48599 0.02051 0.98429 0.0
C548 C 0.50074 0.01035 0.02215 0.0
C549 C 0.5004 0.00249 0.04805 0.0
C550 C 0.48994 0.03867 0.06229 0.0
C551 C 0.4895 0.0306 0.08665 0.0
C552 C 0.49959 0.98677 0.097 0.0
C553 C 0.51016 0.95101 0.08302 0.0
C554 C 0.51062 0.95883 0.05864 0.0
C555 C 0.55541 0.09776 0.95162 0.0
C556 C 0.56877 0.05584 0.95375 0.0
C557 C 0.53905 0.08983 0.96273 0.0
C558 C 0.53577 0.03963 0.97596 0.0
C559 C 0.54931 -0.00156 0.97854 0.0
C560 C 0.56565 0.00639 0.96744 0.0
C561 C 0.51812 0.02924 0.98668 0.0
C562 C 0.5171 0.01949 0.011 0.0
C563 C 0.50236 0.02933 0.97311 0.0
C564 C 0.50266 0.03584 0.94716 0.0
C565 C 0.5128 -0.00188 0.93316 0.0
C566 C 0.51315 0.00481 0.90873 0.0
C567 C 0.5033 0.04875 0.89807 0.0
C568 C 0.49304 0.08601 0.91181 0.0
C569 C 0.49266 0.07957 0.93626 0.0
H570 H 0.50359 0.05385 0.87915 0.0
H571 H 0.49924 0.9806 0.11586 0.0
H572 H 0.07709 0.44864 0.48478 0.0
H573 H 0.04852 0.45931 0.505 0.0
H574 H 0.02418 0.51302 0.43989 0.0
H575 H 0.05265 0.50154 0.41961 0.0
H576 H 0.01445 0.58206 0.47726 0.0
H577 H 0.01786 0.37945 0.45927 0.0
H578 H 0.03172 0.2829 0.45899 0.0
H579 H 0.0314 0.27999 0.5345 0.0
H580 H 0.0178 0.37703 0.53523 0.0
H581 H 0.92437 0.55539 0.51177 0.0
H582 H 0.9527 0.54279 0.49116 0.0
H583 H 0.97667 0.48092 0.55534 0.0
H584 H 0.94836 0.49342 0.57589 0.0
H585 H 0.98663 0.41583 0.51833 0.0
H586 H 0.9836 0.61773 0.53674 0.0
H587 H 0.96999 0.71464 0.53757 0.0
H588 H 0.97 0.71964 0.46208 0.0
H589 H 0.98334 0.62226 0.4608 0.0
C590 C 0.0656 0.46253 0.47484 0.0
C591 C 0.06701 0.47434 0.4507 0.0
C592 C 0.04933 0.46864 0.48636 0.0
C593 C 0.03421 0.4866 0.4739 0.0
C594 C 0.03569 0.49927 0.44984 0.0
C595 C 0.05193 0.49285 0.43831 0.0
C596 C 0.01681 0.49171 0.48588 0.0
C597 C 0.00824 0.54556 0.48598 0.0
C598 C 0.00894 0.44436 0.4977 0.0
C599 C 0.01698 0.38578 0.49731 0.0
C600 C 0.02088 0.35844 0.47582 0.0
C601 C 0.02867 0.30359 0.47558 0.0
C602 C 0.03248 0.27539 0.49671 0.0
C603 C 0.02846 0.30193 0.51814 0.0
C604 C 0.02071 0.35684 0.51848 0.0
C605 C 0.93573 0.53911 0.52139 0.0
C606 C 0.93428 0.52539 0.54534 0.0
C607 C 0.95187 0.53198 0.50966 0.0
C608 C 0.96685 0.51145 0.52178 0.0
C609 C 0.96529 0.49672 0.54564 0.0
C610 C 0.94915 0.50381 0.55734 0.0
C611 C 0.98423 0.50621 0.50971 0.0
C612 C 0.99282 0.45235 0.5096 0.0
C613 C 0.99216 0.55363 0.49796 0.0
C614 C 0.98431 0.61245 0.49867 0.0
C615 C 0.98057 0.6393 0.52031 0.0
C616 C 0.97292 0.69434 0.52087 0.0
C617 C 0.96909 0.72322 0.49989 0.0
C618 C 0.97295 0.69717 0.47831 0.0
C619 C 0.98056 0.64207 0.47766 0.0
H620 H 0.96316 0.76583 0.50035 0.0
H621 H 0.03851 0.23292 0.49649 0.0
H622 H 0.45085 0.54339 0.41819 0.0
H623 H 0.47965 0.53092 0.43757 0.0
H624 H 0.45481 0.55591 0.50518 0.0
H625 H 0.42595 0.56863 0.48568 0.0
H626 H 0.48703 0.61148 0.50207 0.0
H627 H 0.46339 0.42236 0.48602 0.0
H628 H 0.45063 0.34634 0.46076 0.0
H629 H 0.49766 0.34658 0.41821 0.0
H630 H 0.51058 0.42344 0.44297 0.0
H631 H 0.55282 0.48595 0.57475 0.0
H632 H 0.52495 0.50547 0.55406 0.0
H633 H 0.55128 0.47968 0.48752 0.0
H634 H 0.57928 0.46056 0.50829 0.0
H635 H 0.51877 0.42604 0.4893 0.0
H636 H 0.54283 0.61294 0.50558 0.0
H637 H 0.55573 0.68952 0.53041 0.0
H638 H 0.50825 0.6943 0.57202 0.0
H639 H 0.49518 0.61684 0.54771 0.0
C640 C 0.45162 0.54634 0.43718 0.0
C641 C 0.43628 0.55597 0.45057 0.0
C642 C 0.46802 0.53927 0.44822 0.0
C643 C 0.46931 0.54155 0.47284 0.0
C644 C 0.45408 0.55377 0.48617 0.0
C645 C 0.43765 0.56088 0.47509 0.0
C646 C 0.4864 0.52879 0.48468 0.0
C647 C 0.49387 0.5707 0.49952 0.0
C648 C 0.49551 0.47604 0.48088 0.0
C649 C 0.48789 0.42906 0.46623 0.0
C650 C 0.47097 0.4065 0.47118 0.0
C651 C 0.4637 0.36324 0.45696 0.0
C652 C 0.47331 0.34174 0.43786 0.0
C653 C 0.49023 0.36334 0.43299 0.0
C654 C 0.49753 0.40674 0.44712 0.0
C655 C 0.55262 0.48471 0.5557 0.0
C656 C 0.56813 0.47241 0.54302 0.0
C657 C 0.53674 0.49581 0.54392 0.0
C658 C 0.53611 0.49477 0.51925 0.0
C659 C 0.55151 0.48085 0.50656 0.0
C660 C 0.56744 0.46995 0.51838 0.0
C661 C 0.51938 0.50865 0.50677 0.0
C662 C 0.51195 0.4669 0.49182 0.0
C663 C 0.51035 0.56158 0.51043 0.0
C664 C 0.51808 0.60866 0.52495 0.0
C665 C 0.53518 0.62997 0.52014 0.0
C666 C 0.54252 0.6736 0.53411 0.0
C667 C 0.53283 0.69672 0.5528 0.0
C668 C 0.51575 0.67631 0.55754 0.0
C669 C 0.50837 0.63254 0.54367 0.0
H670 H 0.53853 0.73053 0.56359 0.0
H671 H 0.46766 0.30825 0.42687 0.0
H672 H 0.10819 0.28675 0.35166 0.0
H673 H 0.10714 0.23633 0.31398 0.0
H674 H 0.13281 0.38169 0.28058 0.0
H675 H 0.13288 0.43367 0.3181 0.0
H676 H 0.10923 0.34397 0.25283 0.0
H677 H 0.15463 0.24845 0.29808 0.0
H678 H 0.16727 0.19565 0.33184 0.0
H679 H 0.13032 0.05694 0.32086 0.0
H680 H 0.11725 0.10936 0.28726 0.0
H681 H 0.1362 0.2003 0.14919 0.0
H682 H 0.13539 0.25067 0.18682 0.0
H683 H 0.10726 0.10695 0.21773 0.0
H684 H 0.10873 0.0551 0.18024 0.0
H685 H 0.13155 0.1428 0.24669 0.0
H686 H 0.08627 0.24013 0.20122 0.0
H687 H 0.07477 0.29247 0.16662 0.0
H688 H 0.11311 0.42722 0.17742 0.0
H689 H 0.12487 0.3756 0.21202 0.0
C690 C 0.11351 0.30805 0.33623 0.0
C691 C 0.1207 0.364 0.33779 0.0
C692 C 0.11305 0.27898 0.31472 0.0
C693 C 0.12034 0.30441 0.29447 0.0
C694 C 0.12717 0.36092 0.29594 0.0
C695 C 0.12722 0.39065 0.31736 0.0
C696 C 0.12074 0.27242 0.27175 0.0
C697 C 0.11434 0.30023 0.25149 0.0
C698 C 0.12699 0.21469 0.26998 0.0
C699 C 0.13483 0.1832 0.29028 0.0
C700 C 0.1491 0.20693 0.30297 0.0
C701 C 0.15635 0.17703 0.32208 0.0
C702 C 0.14957 0.12305 0.32853 0.0
C703 C 0.13553 0.09881 0.31587 0.0
C704 C 0.1282 0.12861 0.2968 0.0
C705 C 0.12979 0.17942 0.16397 0.0
C706 C 0.12244 0.1238 0.1617 0.0
C707 C 0.12924 0.20847 0.18548 0.0
C708 C 0.12092 0.18323 0.20504 0.0
C709 C 0.11369 0.12746 0.20287 0.0
C710 C 0.11451 0.09789 0.18144 0.0
C711 C 0.1201 0.21447 0.22787 0.0
C712 C 0.12641 0.18648 0.24813 0.0
C713 C 0.11388 0.27211 0.22964 0.0
C714 C 0.10653 0.30378 0.20912 0.0
C715 C 0.09227 0.28085 0.19618 0.0
C716 C 0.08569 0.31044 0.17658 0.0
C717 C 0.0932 0.36313 0.16981 0.0
C718 C 0.10726 0.38649 0.1827 0.0
C719 C 0.11387 0.35715 0.20234 0.0
H720 H 0.08813 0.38585 0.15459 0.0
H721 H 0.15522 0.09994 0.3433 0.0
H722 H 0.37844 0.72013 0.34619 0.0
H723 H 0.3799 0.76026 0.30674 0.0
H724 H 0.38752 0.58943 0.27806 0.0
H725 H 0.38622 0.54835 0.31786 0.0
H726 H 0.40967 0.67083 0.2576 0.0
H727 H 0.34798 0.6498 0.27312 0.0
H728 H 0.32024 0.65849 0.29578 0.0
H729 H 0.32454 0.8436 0.29405 0.0
H730 H 0.35247 0.83602 0.27167 0.0
H731 H 0.38814 0.76608 0.14056 0.0
H732 H 0.38901 0.71525 0.17823 0.0
H733 H 0.38379 0.87763 0.21487 0.0
H734 H 0.38299 0.92905 0.17727 0.0
H735 H 0.35978 0.793 0.22977 0.0
H736 H 0.42243 0.81201 0.21521 0.0
H737 H 0.44991 0.80151 0.19213 0.0
H738 H 0.44312 0.61715 0.19108 0.0
H739 H 0.41544 0.62663 0.21389 0.0
C740 C 0.38046 0.69079 0.33159 0.0
C741 C 0.38208 0.63082 0.33523 0.0
C742 C 0.38124 0.71393 0.30899 0.0
C743 C 0.38356 0.67777 0.28945 0.0
C744 C 0.38565 0.61803 0.29294 0.0
C745 C 0.38485 0.59466 0.31566 0.0
C746 C 0.38353 0.70304 0.26549 0.0
C747 C 0.39864 0.6967 0.25131 0.0
C748 C 0.36924 0.73747 0.25747 0.0
C749 C 0.35241 0.74231 0.27088 0.0
C750 C 0.34309 0.69236 0.27773 0.0
C751 C 0.32732 0.69709 0.2905 0.0
C752 C 0.32065 0.75156 0.29639 0.0
C753 C 0.32973 0.80143 0.28949 0.0
C754 C 0.34553 0.79695 0.27674 0.0
C755 C 0.38732 0.79113 0.15662 0.0
C756 C 0.38546 0.85169 0.1559 0.0
C757 C 0.38788 0.76195 0.17813 0.0
C758 C 0.38651 0.79272 0.1993 0.0
C759 C 0.38487 0.85316 0.19868 0.0
C760 C 0.38448 0.88246 0.17719 0.0
C761 C 0.38603 0.76172 0.22209 0.0
C762 C 0.37076 0.76685 0.236 0.0
C763 C 0.40011 0.72589 0.22972 0.0
C764 C 0.41675 0.72009 0.21603 0.0
C765 C 0.4267 0.76927 0.20987 0.0
C766 C 0.44234 0.76349 0.19688 0.0
C767 C 0.44823 0.70871 0.19008 0.0
C768 C 0.43852 0.65957 0.19632 0.0
C769 C 0.42287 0.66511 0.2093 0.0
H770 H 0.46035 0.70432 0.18003 0.0
H771 H 0.30844 0.75512 0.30628 0.0
H772 H 0.86379 0.78162 0.84962 0.0
H773 H 0.86635 0.73422 0.81155 0.0
H774 H 0.89877 0.87486 0.78621 0.0
H775 H 0.89566 0.92391 0.82426 0.0
H776 H 0.8767 0.84288 0.75332 0.0
H777 H 0.91687 0.74148 0.80361 0.0
H778 H 0.92604 0.68893 0.83933 0.0
H779 H 0.88802 0.55554 0.82453 0.0
H780 H 0.87845 0.60768 0.78887 0.0
H781 H 0.90223 0.69451 0.65107 0.0
H782 H 0.90432 0.74067 0.68958 0.0
H783 H 0.87114 0.60714 0.71924 0.0
H784 H 0.86988 0.55892 0.68083 0.0
H785 H 0.89555 0.63742 0.74982 0.0
H786 H 0.85474 0.74486 0.69979 0.0
H787 H 0.84722 0.79771 0.6634 0.0
H788 H 0.88838 0.92118 0.67765 0.0
H789 H 0.89627 0.86875 0.71397 0.0
C790 C 0.87145 0.80264 0.83595 0.0
C791 C 0.87967 0.85632 0.84 0.0
C792 C 0.87299 0.77525 0.81421 0.0
C793 C 0.88315 0.80015 0.79618 0.0
C794 C 0.89098 0.85457 0.79993 0.0
C795 C 0.8892 0.88257 0.82164 0.0
C796 C 0.88543 0.76929 0.77345 0.0
C797 C 0.88108 0.79823 0.75255 0.0
C798 C 0.89092 0.7107 0.7724 0.0
C799 C 0.89685 0.67874 0.79365 0.0
C800 C 0.9104 0.70109 0.80803 0.0
C801 C 0.91568 0.67137 0.82827 0.0
C802 C 0.90759 0.619 0.83423 0.0
C803 C 0.89426 0.59613 0.8199 0.0
C804 C 0.88892 0.62571 0.79966 0.0
C805 C 0.89557 0.67462 0.6659 0.0
C806 C 0.88573 0.62354 0.66298 0.0
C807 C 0.89668 0.70123 0.68786 0.0
C808 C 0.88741 0.67848 0.70717 0.0
C809 C 0.87827 0.62582 0.70455 0.0
C810 C 0.87755 0.59829 0.68264 0.0
C811 C 0.8866 0.7108 0.72976 0.0
C812 C 0.89123 0.68212 0.75062 0.0
C813 C 0.88149 0.76978 0.73076 0.0
C814 C 0.87618 0.80262 0.70948 0.0
C815 C 0.86219 0.78326 0.69514 0.0
C816 C 0.85787 0.8131 0.67452 0.0
C817 C 0.86738 0.86259 0.66818 0.0
C818 C 0.88106 0.88276 0.68257 0.0
C819 C 0.88544 0.85307 0.70318 0.0
H820 H 0.86418 0.8853 0.65211 0.0
H821 H 0.91168 0.59609 0.84992 0.0
H822 H 0.61735 0.22372 0.84645 0.0
H823 H 0.61507 0.26274 0.80678 0.0
H824 H 0.62055 0.09114 0.77797 0.0
H825 H 0.62286 0.05133 0.81785 0.0
H826 H 0.64252 0.1711 0.75653 0.0
H827 H 0.58124 0.15426 0.77562 0.0
H828 H 0.55435 0.1658 0.79981 0.0
H829 H 0.55968 0.35048 0.79635 0.0
H830 H 0.58676 0.34006 0.77241 0.0
H831 H 0.62445 0.2678 0.64056 0.0
H832 H 0.62259 0.21637 0.67789 0.0
H833 H 0.61476 0.37805 0.71428 0.0
H834 H 0.61637 0.4301 0.67687 0.0
H835 H 0.59254 0.29522 0.73051 0.0
H836 H 0.65493 0.31165 0.71402 0.0
H837 H 0.68222 0.30035 0.69058 0.0
H838 H 0.67497 0.11617 0.68974 0.0
H839 H 0.64744 0.12646 0.71279 0.0
C840 C 0.618 0.19405 0.83173 0.0
C841 C 0.62032 0.13433 0.83534 0.0
C842 C 0.61659 0.21648 0.80905 0.0
C843 C 0.61748 0.17979 0.78945 0.0
C844 C 0.61977 0.12013 0.7929 0.0
C845 C 0.62104 0.09748 0.81568 0.0
C846 C 0.61675 0.20459 0.76543 0.0
C847 C 0.63144 0.19728 0.75062 0.0
C848 C 0.60245 0.2398 0.75801 0.0
C849 C 0.58613 0.24634 0.77237 0.0
C850 C 0.57677 0.19734 0.78018 0.0
C851 C 0.56147 0.20368 0.79381 0.0
C852 C 0.55533 0.25883 0.79966 0.0
C853 C 0.56446 0.30778 0.79182 0.0
C854 C 0.57977 0.30168 0.77819 0.0
C855 C 0.62228 0.2926 0.65646 0.0
C856 C 0.62064 0.35325 0.6557 0.0
C857 C 0.62127 0.26303 0.67782 0.0
C858 C 0.61874 0.29342 0.6989 0.0
C859 C 0.61674 0.35377 0.6982 0.0
C860 C 0.61773 0.38347 0.67681 0.0
C861 C 0.61843 0.26236 0.72173 0.0
C862 C 0.60354 0.26854 0.73632 0.0
C863 C 0.63255 0.22612 0.72896 0.0
C864 C 0.64903 0.21989 0.71492 0.0
C865 C 0.65906 0.26878 0.70863 0.0
C866 C 0.67458 0.26256 0.69544 0.0
C867 C 0.6803 0.2076 0.68863 0.0
C868 C 0.67051 0.15873 0.69499 0.0
C869 C 0.65494 0.16474 0.70811 0.0
H870 H 0.69236 0.20288 0.67848 0.0
H871 H 0.54348 0.26365 0.81021 0.0
H872 H 0.09159 0.73288 0.12149 0.0
H873 H 0.09363 0.63201 0.10862 0.0
H874 H 0.14903 0.65675 0.09219 0.0
H875 H 0.14685 0.75784 0.10445 0.0
H876 H 0.13414 0.59874 0.05844 0.0
H877 H 0.13445 0.58369 0.14273 0.0
H878 H 0.12354 0.59805 0.1832 0.0
H879 H 0.07542 0.50805 0.16609 0.0
H880 H 0.08596 0.49369 0.12544 0.0
H881 H 0.16297 0.30302 0.06523 0.0
H882 H 0.15764 0.4071 0.06831 0.0
H883 H 0.10126 0.37642 0.07073 0.0
H884 H 0.10639 0.27255 0.0674 0.0
H885 H 0.11483 0.43684 0.1096 0.0
H886 H 0.11675 0.44511 0.02551 0.0
H887 H 0.12931 0.42785 0.98611 0.0
H888 H 0.1753 0.52796 0.00421 0.0
H889 H 0.16313 0.54514 0.04386 0.0
C890 C 0.10419 0.71652 0.11519 0.0
C891 C 0.11901 0.75299 0.11369 0.0
C892 C 0.10537 0.65897 0.1079 0.0
C893 C 0.12153 0.63664 0.0996 0.0
C894 C 0.13639 0.67309 0.09836 0.0
C895 C 0.13514 0.73079 0.10533 0.0
C896 C 0.123 0.57543 0.09207 0.0
C897 C 0.13009 0.56332 0.06974 0.0
C898 C 0.11734 0.5292 0.10658 0.0
C899 C 0.1109 0.53831 0.13096 0.0
C900 C 0.12147 0.56746 0.14754 0.0
C901 C 0.11536 0.57549 0.17052 0.0
C902 C 0.09876 0.55423 0.17718 0.0
C903 C 0.08824 0.52476 0.16088 0.0
C904 C 0.09428 0.51658 0.13787 0.0
C905 C 0.14942 0.3185 0.06581 0.0
C906 C 0.13512 0.27951 0.06639 0.0
C907 C 0.14641 0.37796 0.06752 0.0
C908 C 0.12907 0.39918 0.06988 0.0
C909 C 0.11473 0.36069 0.06898 0.0
C910 C 0.11771 0.30136 0.06703 0.0
C911 C 0.12605 0.46038 0.07612 0.0
C912 C 0.11872 0.47239 0.09825 0.0
C913 C 0.13171 0.50631 0.06158 0.0
C914 C 0.13909 0.49596 0.03775 0.0
C915 C 0.12962 0.46299 0.02118 0.0
C916 C 0.13665 0.45333 0.99878 0.0
C917 C 0.15311 0.47667 0.99268 0.0
C918 C 0.16256 0.50985 0.00896 0.0
C919 C 0.15559 0.51962 0.0314 0.0
H920 H 0.15853 0.46916 0.97532 0.0
H921 H 0.09408 0.56038 0.19499 0.0
H922 H 0.38826 0.20448 0.06624 0.0
H923 H 0.38523 0.30394 0.05359 0.0
H924 H 0.38187 0.35868 0.12604 0.0
H925 H 0.38292 0.25786 0.13873 0.0
H926 H 0.35935 0.41571 0.10341 0.0
H927 H 0.4205 0.37471 0.08989 0.0
H928 H 0.44629 0.32122 0.07448 0.0
H929 H 0.42864 0.35202 0.00378 0.0
H930 H 0.40261 0.40508 0.01878 0.0
H931 H 0.39938 0.70194 0.06323 0.0
H932 H 0.40314 0.59799 0.06751 0.0
H933 H 0.34817 0.57174 0.04928 0.0
H934 H 0.34409 0.67629 0.04575 0.0
H935 H 0.40013 0.50124 0.04441 0.0
H936 H 0.3305 0.47327 0.086 0.0
H937 H 0.30809 0.53246 0.10656 0.0
H938 H 0.34886 0.64816 0.13041 0.0
H939 H 0.3715 0.58928 0.11027 0.0
C940 C 0.38617 0.23707 0.07952 0.0
C941 C 0.385 0.22266 0.10349 0.0
C942 C 0.38497 0.29449 0.07224 0.0
C943 C 0.38345 0.33911 0.08883 0.0
C944 C 0.38289 0.32504 0.11286 0.0
C945 C 0.38362 0.2674 0.12011 0.0
C946 C 0.38202 0.40028 0.08115 0.0
C947 C 0.36829 0.43422 0.0905 0.0
C948 C 0.39383 0.42505 0.06457 0.0
C949 C 0.40952 0.3934 0.05547 0.0
C950 C 0.42205 0.36974 0.07106 0.0
C951 C 0.43672 0.33955 0.0624 0.0
C952 C 0.43908 0.3331 0.03817 0.0
C953 C 0.42679 0.35699 0.02254 0.0
C954 C 0.41208 0.38718 0.03111 0.0
C955 C 0.38813 0.67411 0.05968 0.0
C956 C 0.37131 0.69742 0.05472 0.0
C957 C 0.39035 0.61456 0.06204 0.0
C958 C 0.37583 0.5773 0.0593 0.0
C959 C 0.35945 0.59998 0.052 0.0
C960 C 0.35716 0.6597 0.04988 0.0
C961 C 0.37745 0.51606 0.0666 0.0
C962 C 0.39115 0.48227 0.05717 0.0
C963 C 0.36614 0.4921 0.08391 0.0
C964 C 0.35264 0.52725 0.09639 0.0
C965 C 0.33467 0.51124 0.0957 0.0
C966 C 0.32193 0.54475 0.10727 0.0
C967 C 0.32704 0.59417 0.1197 0.0
C968 C 0.34491 0.61002 0.1207 0.0
C969 C 0.35769 0.57662 0.1092 0.0
H970 H 0.31716 0.62009 0.12861 0.0
H971 H 0.45044 0.30969 0.03149 0.0
H972 H 0.10947 0.20656 0.43466 0.0
H973 H 0.10566 0.10247 0.42951 0.0
H974 H 0.16149 0.08492 0.41451 0.0
H975 H 0.16538 0.18901 0.41926 0.0
H976 H 0.14158 0.04113 0.38006 0.0
H977 H 0.14314 0.02675 0.4642 0.0
H978 H 0.13434 0.05021 0.50485 0.0
H979 H 0.08107 0.9952 0.49022 0.0
H980 H 0.0895 0.97213 0.44937 0.0
H981 H 0.14698 0.73243 0.37871 0.0
H982 H 0.15028 0.83526 0.38834 0.0
H983 H 0.09338 0.85304 0.39143 0.0
H984 H 0.09003 0.75025 0.38138 0.0
H985 H 0.11275 0.89647 0.43187 0.0
H986 H 0.11126 0.91004 0.34813 0.0
H987 H 0.11957 0.89014 0.30702 0.0
H988 H 0.17253 0.9495 0.32066 0.0
H989 H 0.16464 0.96875 0.36201 0.0
C990 C 0.12103 0.18037 0.43087 0.0
C991 C 0.13769 0.20607 0.42705 0.0
C992 C 0.11882 0.12083 0.42797 0.0
C993 C 0.13328 0.08608 0.42151 0.0
C994 C 0.15015 0.11111 0.41935 0.0
C995 C 0.15235 0.17058 0.42214 0.0
C996 C 0.13051 0.02522 0.41439 0.0
C997 C 0.13559 0.00918 0.39156 0.0
C998 C 0.12202 0.98438 0.42908 0.0
C999 C 0.11692 -0.00175 0.45365 0.0
C1000 C 0.12951 0.02013 0.46959 0.0
C1001 C 0.1246 0.03325 0.49268 0.0
C1002 C 0.10715 0.02435 0.5001 0.0
C1003 C 0.09458 0.00215 0.48445 0.0
C1004 C 0.09943 0.98898 0.46132 0.0
C1005 C 0.13521 0.75848 0.38134 0.0
C1006 C 0.11827 0.73377 0.37952 0.0
C1007 C 0.13709 0.81703 0.38671 0.0
C1008 C 0.12206 0.85142 0.39059 0.0
C1009 C 0.10511 0.82697 0.38849 0.0
C1010 C 0.10322 0.7686 0.38267 0.0
C1011 C 0.12415 0.91237 0.39775 0.0
C1012 C 0.11885 0.92845 0.42048 0.0
C1013 C 0.13246 0.95336 0.38298 0.0
C1014 C 0.13742 0.93994 0.35831 0.0
C1015 C 0.12476 0.91796 0.34249 0.0
C1016 C 0.12937 0.90703 0.3191 0.0
C1017 C 0.14659 0.91831 0.31126 0.0
C1018 C 0.15922 0.94058 0.32678 0.0
C1019 C 0.15468 0.95147 0.35021 0.0
H1020 H 0.15012 0.90999 0.29312 0.0
H1021 H 0.10337 0.03452 0.51799 0.0
H1022 H 0.38597 0.8148 0.40573 0.0
H1023 H 0.39163 0.91752 0.40805 0.0
H1024 H 0.37217 0.92044 0.47942 0.0
H1025 H 0.36596 0.81612 0.47703 0.0
H1026 H 0.35906 0.00863 0.45491 0.0
H1027 H 0.41654 0.9394 0.46901 0.0
H1028 H 0.44305 0.87806 0.46455 0.0
H1029 H 0.45105 0.94376 0.39474 0.0
H1030 H 0.42443 0.00483 0.39859 0.0
H1031 H 0.39053 0.30613 0.44069 0.0
H1032 H 0.39 0.20854 0.45703 0.0
H1033 H 0.38839 0.13753 0.38699 0.0
H1034 H 0.38767 0.23517 0.37043 0.0
H1035 H 0.41525 0.08966 0.4235 0.0
H1036 H 0.35233 0.13864 0.40928 0.0
H1037 H 0.32623 0.201 0.41562 0.0
H1038 H 0.33032 0.17478 0.4902 0.0
H1039 H 0.35664 0.11292 0.48427 0.0
C1040 C 0.38297 0.83684 0.42206 0.0
C1041 C 0.37556 0.80716 0.44126 0.0
C1042 C 0.38637 0.89572 0.42341 0.0
C1043 C 0.38276 0.92642 0.44411 0.0
C1044 C 0.37525 0.89729 0.46337 0.0
C1045 C 0.37169 0.83787 0.46197 0.0
C1046 C 0.38594 0.98955 0.44448 0.0
C1047 C 0.37153 0.02646 0.44873 0.0
C1048 C 0.40224 0.013 0.43654 0.0
C1049 C 0.41842 0.97673 0.4341 0.0
C1050 C 0.42389 0.94059 0.45265 0.0
C1051 C 0.43895 0.90586 0.45023 0.0
C1052 C 0.44873 0.90701 0.42937 0.0
C1053 C 0.44348 0.94298 0.4109 0.0
C1054 C 0.42842 0.97778 0.41321 0.0
C1055 C 0.38944 0.27004 0.42872 0.0
C1056 C 0.38829 0.27851 0.40425 0.0
C1057 C 0.38951 0.21429 0.43813 0.0
C1058 C 0.38899 0.16631 0.42317 0.0
C1059 C 0.38873 0.17439 0.39875 0.0
C1060 C 0.3883 0.23007 0.38935 0.0
C1061 C 0.38816 0.1073 0.43277 0.0
C1062 C 0.40304 0.07165 0.43043 0.0
C1063 C 0.37245 0.08526 0.4429 0.0
C1064 C 0.35656 0.12188 0.44637 0.0
C1065 C 0.34776 0.14667 0.42704 0.0
C1066 C 0.33291 0.1818 0.43055 0.0
C1067 C 0.32666 0.19203 0.45331 0.0
C1068 C 0.33521 0.16694 0.47259 0.0
C1069 C 0.35008 0.13185 0.46916 0.0
H1070 H 0.31516 0.21923 0.45599 0.0
H1071 H 0.46038 0.88006 0.42753 0.0
H1072 H 0.87394 0.67925 0.98223 0.0
H1073 H 0.87579 0.57273 0.98144 0.0
H1074 H 0.86392 0.57406 0.90723 0.0
H1075 H 0.86255 0.67935 0.90775 0.0
H1076 H 0.84456 0.48879 0.93574 0.0
H1077 H 0.9039 0.56493 0.9192 0.0
H1078 H 0.93039 0.62227 0.9294 0.0
H1079 H 0.93738 0.52197 0.99229 0.0
H1080 H 0.91074 0.46457 0.98259 0.0
H1081 H 0.87297 0.24847 0.87254 0.0
H1082 H 0.86873 0.34585 0.8883 0.0
H1083 H 0.89219 0.29297 0.95409 0.0
H1084 H 0.89695 0.19586 0.93812 0.0
H1085 H 0.90421 0.39857 0.93987 0.0
H1086 H 0.84848 0.30846 0.95168 0.0
H1087 H 0.82208 0.25089 0.94138 0.0
H1088 H 0.80767 0.37597 0.88894 0.0
H1089 H 0.83415 0.43386 0.89864 0.0
C1090 C 0.87157 0.6565 0.96588 0.0
C1091 C 0.86823 0.68721 0.94503 0.0
C1092 C 0.87264 0.59599 0.96544 0.0
C1093 C 0.86995 0.56594 0.94427 0.0
C1094 C 0.86595 0.59661 0.92372 0.0
C1095 C 0.86528 0.65669 0.92403 0.0
C1096 C 0.87228 0.50274 0.94269 0.0
C1097 C 0.85755 0.46879 0.93675 0.0
C1098 C 0.88918 0.47685 0.94462 0.0
C1099 C 0.90521 0.51108 0.95036 0.0
C1100 C 0.91099 0.55552 0.93532 0.0
C1101 C 0.92605 0.58793 0.94098 0.0
C1102 C 0.93553 0.57592 0.96153 0.0
C1103 C 0.93 0.53133 0.97641 0.0
C1104 C 0.91492 0.49885 0.97085 0.0
C1105 C 0.87728 0.2577 0.89033 0.0
C1106 C 0.88485 0.21428 0.90433 0.0
C1107 C 0.87473 0.31313 0.89937 0.0
C1108 C 0.87976 0.32613 0.92256 0.0
C1109 C 0.88796 0.28347 0.93629 0.0
C1110 C 0.89047 0.22787 0.92725 0.0
C1111 C 0.87654 0.38469 0.93213 0.0
C1112 C 0.8911 0.41785 0.93952 0.0
C1113 C 0.85942 0.40981 0.93166 0.0
C1114 C 0.84338 0.37537 0.92582 0.0
C1115 C 0.83975 0.32351 0.93784 0.0
C1116 C 0.82476 0.29083 0.93212 0.0
C1117 C 0.81321 0.30972 0.9145 0.0
C1118 C 0.81663 0.36139 0.90259 0.0
C1119 C 0.83162 0.3942 0.90821 0.0
H1120 H 0.80161 0.28436 0.9101 0.0
H1121 H 0.94719 0.60105 0.96587 0.0
H1122 H 0.61138 0.81137 0.94155 0.0
H1123 H 0.6116 0.71395 0.95802 0.0
H1124 H 0.61705 0.64272 0.88836 0.0
H1125 H 0.61806 0.74013 0.87178 0.0
H1126 H 0.58873 0.59355 0.92139 0.0
H1127 H 0.65203 0.64795 0.91526 0.0
H1128 H 0.67713 0.71172 0.92535 0.0
H1129 H 0.66812 0.68064 0.99884 0.0
H1130 H 0.64277 0.61732 0.98915 0.0
H1131 H 0.62028 0.32189 0.90444 0.0
H1132 H 0.61431 0.42445 0.90706 0.0
H1133 H 0.62944 0.42377 0.98028 0.0
H1134 H 0.63607 0.31973 0.97756 0.0
H1135 H 0.64317 0.51468 0.95858 0.0
H1136 H 0.5855 0.44026 0.96506 0.0
H1137 H 0.55991 0.37712 0.95677 0.0
H1138 H 0.55615 0.44696 0.88699 0.0
H1139 H 0.58189 0.50987 0.89469 0.0
C1140 C 0.61325 0.77537 0.92973 0.0
C1141 C 0.61549 0.78378 0.90538 0.0
C1142 C 0.613 0.71964 0.9392 0.0
C1143 C 0.61447 0.67161 0.92437 0.0
C1144 C 0.61594 0.6796 0.90003 0.0
C1145 C 0.61653 0.73521 0.89061 0.0
C1146 C 0.61497 0.61257 0.93398 0.0
C1147 C 0.60054 0.57603 0.92962 0.0
C1148 C 0.63007 0.59108 0.94578 0.0
C1149 C 0.64539 0.62861 0.9515 0.0
C1150 C 0.6553 0.65519 0.93357 0.0
C1151 C 0.66959 0.69114 0.93921 0.0
C1152 C 0.67418 0.70041 0.96273 0.0
C1153 C 0.66452 0.67355 0.98064 0.0
C1154 C 0.6502 0.63763 0.97508 0.0
C1155 C 0.62226 0.34318 0.92121 0.0
C1156 C 0.62853 0.31261 0.94087 0.0
C1157 C 0.6187 0.40191 0.92272 0.0
C1158 C 0.62092 0.43147 0.94404 0.0
C1159 C 0.62742 0.4015 0.96374 0.0
C1160 C 0.63122 0.34228 0.96216 0.0
C1161 C 0.61726 0.49432 0.94476 0.0
C1162 C 0.63104 0.532 0.95112 0.0
C1163 C 0.60136 0.51711 0.93523 0.0
C1164 C 0.58568 0.47986 0.93049 0.0
C1165 C 0.57927 0.44201 0.94791 0.0
C1166 C 0.56473 0.40624 0.94331 0.0
C1167 C 0.55641 0.40804 0.92137 0.0
C1168 C 0.56259 0.44569 0.90399 0.0
C1169 C 0.57714 0.48153 0.90849 0.0
H1170 H 0.54516 0.38027 0.91784 0.0
H1171 H 0.68525 0.72825 0.96706 0.0
H1172 H 0.89291 0.80444 0.58479 0.0
H1173 H 0.89167 0.90947 0.58501 0.0
H1174 H 0.85369 0.90666 0.52835 0.0
H1175 H 0.85435 0.80035 0.52839 0.0
H1176 H 0.89272 0.99648 0.53761 0.0
H1177 H 0.83058 0.94421 0.55572 0.0
H1178 H 0.80845 0.88134 0.57488 0.0
H1179 H 0.83267 0.91291 0.642 0.0
H1180 H 0.8553 0.97464 0.62308 0.0
H1181 H 0.87747 0.29283 0.56432 0.0
H1182 H 0.87316 0.19516 0.5491 0.0
H1183 H 0.87606 0.12739 0.61975 0.0
H1184 H 0.87924 0.22583 0.63517 0.0
H1185 H 0.85046 0.07524 0.59637 0.0
H1186 H 0.91172 0.12428 0.58093 0.0
H1187 H 0.93596 0.18331 0.56441 0.0
H1188 H 0.91549 0.15636 0.49478 0.0
H1189 H 0.891 0.09774 0.51095 0.0
C1190 C 0.88441 0.82583 0.57213 0.0
C1191 C 0.8735 0.79399 0.55679 0.0
C1192 C 0.88377 0.88589 0.57229 0.0
C1193 C 0.87241 0.91527 0.55696 0.0
C1194 C 0.86237 0.88423 0.54049 0.0
C1195 C 0.86281 0.82372 0.5405 0.0
C1196 C 0.87038 0.97806 0.5599 0.0
C1197 C 0.88314 0.01442 0.54985 0.0
C1198 C 0.85828 0.00036 0.57651 0.0
C1199 C 0.84478 0.96318 0.58793 0.0
C1200 C 0.83136 0.93696 0.5745 0.0
C1201 C 0.81872 0.90164 0.58532 0.0
C1202 C 0.81924 0.89281 0.60962 0.0
C1203 C 0.83238 0.91946 0.62316 0.0
C1204 C 0.84512 0.95455 0.61239 0.0
C1205 C 0.87663 0.25725 0.57666 0.0
C1206 C 0.87805 0.26684 0.60099 0.0
C1207 C 0.87448 0.2014 0.5679 0.0
C1208 C 0.87434 0.154 0.58328 0.0
C1209 C 0.87599 0.16346 0.60759 0.0
C1210 C 0.87791 0.21949 0.61637 0.0
C1211 C 0.87287 0.09431 0.57411 0.0
C1212 C 0.85963 0.05829 0.58338 0.0
C1213 C 0.88465 0.07232 0.55688 0.0
C1214 C 0.89943 0.10723 0.54717 0.0
C1215 C 0.91233 0.13131 0.56212 0.0
C1216 C 0.92612 0.16463 0.55281 0.0
C1217 C 0.92723 0.17374 0.52857 0.0
C1218 C 0.91459 0.14937 0.51356 0.0
C1219 C 0.90076 0.11608 0.52278 0.0
H1220 H 0.93791 0.19956 0.5214 0.0
H1221 H 0.80942 0.86557 0.61798 0.0
H1222 H 0.59373 0.74873 0.61725 0.0
H1223 H 0.59696 0.84987 0.6049 0.0
H1224 H 0.65238 0.82041 0.59035 0.0
H1225 H 0.64926 0.71973 0.60294 0.0
H1226 H 0.64606 0.92228 0.61476 0.0
H1227 H 0.62398 0.82307 0.54608 0.0
H1228 H 0.60294 0.76066 0.52467 0.0
H1229 H 0.56068 0.87951 0.53958 0.0
H1230 H 0.58143 0.94225 0.56142 0.0
H1231 H 0.66432 0.18057 0.55686 0.0
H1232 H 0.6607 0.07616 0.56138 0.0
H1233 H 0.60427 0.09869 0.56987 0.0
H1234 H 0.60768 0.20282 0.56463 0.0
H1235 H 0.6111 -0.00085 0.54768 0.0
H1236 H 0.63136 0.09454 0.61802 0.0
H1237 H 0.65128 0.15804 0.64083 0.0
H1238 H 0.69537 0.04736 0.62474 0.0
H1239 H 0.67573 0.98349 0.60167 0.0
C1240 C 0.6066 0.76409 0.61154 0.0
C1241 C 0.62117 0.72639 0.61059 0.0
C1242 C 0.6084 0.82158 0.60437 0.0
C1243 C 0.62485 0.84218 0.59637 0.0
C1244 C 0.63955 0.80509 0.59626 0.0
C1245 C 0.63772 0.74758 0.60325 0.0
C1246 C 0.62675 0.90242 0.58805 0.0
C1247 C 0.63861 0.9389 0.5999 0.0
C1248 C 0.61666 0.92428 0.56904 0.0
C1249 C 0.60423 0.88711 0.55556 0.0
C1250 C 0.61018 0.83572 0.54493 0.0
C1251 C 0.59831 0.8003 0.5327 0.0
C1252 C 0.58048 0.81606 0.53081 0.0
C1253 C 0.57449 0.86735 0.54108 0.0
C1254 C 0.58631 0.90288 0.55337 0.0
C1255 C 0.65109 0.16318 0.55911 0.0
C1256 C 0.63634 0.20004 0.56082 0.0
C1257 C 0.64905 0.10354 0.56179 0.0
C1258 C 0.63228 0.07993 0.56664 0.0
C1259 C 0.61735 0.11607 0.56635 0.0
C1260 C 0.61934 0.17566 0.56338 0.0
C1261 C 0.63053 0.01894 0.57429 0.0
C1262 C 0.61864 0.98243 0.56244 0.0
C1263 C 0.6404 0.99711 0.59354 0.0
C1264 C 0.65212 0.0346 0.60793 0.0
C1265 C 0.64532 0.08389 0.61928 0.0
C1266 C 0.65655 0.11993 0.63225 0.0
C1267 C 0.67459 0.10688 0.6341 0.0
C1268 C 0.6814 0.05748 0.62322 0.0
C1269 C 0.67022 0.0213 0.61023 0.0
H1270 H 0.68331 0.135 0.64396 0.0
H1271 H 0.57131 0.78861 0.52132 0.0
loop_
_geom_bond_atom_site_label_1
_geom_bond_atom_site_label_2
_geom_bond_distance
_geom_bond_site_symmetry_2
_ccdc_geom_bond_type
Co0 O3 1.970 . S
Co0 N17 1.989 . S
Co0 O25 1.967 . S
Co0 O32 1.920 . S
Co1 O4 1.966 1_565 S
Co1 N10 2.022 . S
Co1 N18 1.993 1_565 S
Co1 O26 1.941 1_565 S
C2 O3 1.258 . S
C2 O4 1.263 . S
O3 Co0 1.970 . S
O3 C2 1.258 . S
O4 Co1 1.966 1_545 S
O4 C2 1.263 . S
C5 O6 1.235 . S
C5 O32 1.289 . S
O6 C5 1.235 . S
C7 C9 1.400 . S
C7 N10 1.351 . S
C7 C12 1.501 . S
C8 C9 1.387 . S
C8 N11 1.341 . S
C9 C7 1.400 . S
C9 C8 1.387 . S
N10 Co1 2.022 . S
N10 C7 1.351 . S
N10 N11 1.365 . S
N11 C8 1.341 . S
N11 N10 1.365 . S
N11 H31 0.862 . S
C12 C7 1.501 . S
C12 H13 0.961 . S
C12 H14 0.961 . S
C12 H15 0.960 . S
H13 C12 0.961 . S
H14 C12 0.961 . S
H15 C12 0.960 . S
C16 N17 1.342 . S
C16 C20 1.401 . S
C16 C21 1.499 . S
N17 Co0 1.989 . S
N17 C16 1.342 . S
N17 N18 1.388 . S
N18 Co1 1.993 1_545 S
N18 N17 1.388 . S
N18 C19 1.346 . S
C19 N18 1.346 . S
C19 C20 1.396 . S
C19 C29 1.510 1_545 S
C20 C16 1.401 . S
C20 C19 1.396 . S
C21 C16 1.499 . S
C21 H22 0.959 . S
C21 H23 0.960 . S
C21 H24 0.961 . S
H22 C21 0.959 . S
H23 C21 0.960 . S
H24 C21 0.961 . S
O25 Co0 1.967 . S
O25 C33 1.258 . S
O26 Co1 1.941 1_545 S
O26 C33 1.266 . S
H27 C29 0.959 . S
H28 C29 0.961 . S
C29 C19 1.510 1_565 S
C29 H27 0.959 . S
C29 H28 0.961 . S
C29 H30 0.960 . S
H30 C29 0.960 . S
H31 N11 0.862 . S
O32 Co0 1.920 . S
O32 C5 1.289 . S
C33 O25 1.258 . S
C33 O26 1.266 . S
Co34 O37 1.970 . S
Co34 N51 1.989 . S
Co34 O59 1.967 . S
Co34 O66 1.920 . S
Co35 O38 1.966 1_545 S
Co35 N44 2.022 . S
Co35 N52 1.993 1_545 S
Co35 O60 1.941 1_545 S
C36 O37 1.258 . S
C36 O38 1.263 . S
O37 Co34 1.970 . S
O37 C36 1.258 . S
O38 Co35 1.966 1_565 S
O38 C36 1.263 . S
C39 O40 1.235 . S
C39 O66 1.289 . S
O40 C39 1.235 . S
C41 C43 1.400 . S
C41 N44 1.351 . S
C41 C46 1.501 . S
C42 C43 1.387 . S
C42 N45 1.341 . S
C43 C41 1.400 . S
C43 C42 1.387 . S
N44 Co35 2.022 . S
N44 C41 1.351 . S
N44 N45 1.365 . S
N45 C42 1.341 . S
N45 N44 1.365 . S
N45 H65 0.862 . S
C46 C41 1.501 . S
C46 H47 0.961 . S
C46 H48 0.961 . S
C46 H49 0.960 . S
H47 C46 0.961 . S
H48 C46 0.961 . S
H49 C46 0.960 . S
C50 N51 1.342 . S
C50 C54 1.401 . S
C50 C55 1.499 . S
N51 Co34 1.989 . S
N51 C50 1.342 . S
N51 N52 1.388 . S
N52 Co35 1.993 1_565 S
N52 N51 1.388 . S
N52 C53 1.346 . S
C53 N52 1.346 . S
C53 C54 1.396 . S
C53 C63 1.510 1_565 S
C54 C50 1.401 . S
C54 C53 1.396 . S
C55 C50 1.499 . S
C55 H56 0.959 . S
C55 H57 0.960 . S
C55 H58 0.961 . S
H56 C55 0.959 . S
H57 C55 0.960 . S
H58 C55 0.961 . S
O59 Co34 1.967 . S
O59 C67 1.258 . S
O60 Co35 1.941 1_565 S
O60 C67 1.266 . S
H61 C63 0.959 . S
H62 C63 0.961 . S
C63 C53 1.510 1_545 S
C63 H61 0.959 . S
C63 H62 0.961 . S
C63 H64 0.960 . S
H64 C63 0.960 . S
H65 N45 0.862 . S
O66 Co34 1.920 . S
O66 C39 1.289 . S
C67 O59 1.258 . S
C67 O60 1.266 . S
Co68 O71 1.970 . S
Co68 N85 1.989 . S
Co68 O93 1.967 . S
Co68 O100 1.920 . S
Co69 O72 1.966 . S
Co69 N78 2.022 . S
Co69 N86 1.993 . S
Co69 O94 1.941 . S
C70 O71 1.258 . S
C70 O72 1.263 . S
O71 Co68 1.970 . S
O71 C70 1.258 . S
O72 Co69 1.966 . S
O72 C70 1.263 . S
C73 O74 1.235 . S
C73 O100 1.289 . S
O74 C73 1.235 . S
C75 C77 1.400 . S
C75 N78 1.351 . S
C75 C80 1.501 . S
C76 C77 1.387 . S
C76 N79 1.341 . S
C77 C75 1.400 . S
C77 C76 1.387 . S
N78 Co69 2.022 . S
N78 C75 1.351 . S
N78 N79 1.365 . S
N79 C76 1.341 . S
N79 N78 1.365 . S
N79 H99 0.862 . S
C80 C75 1.501 . S
C80 H81 0.961 . S
C80 H82 0.961 . S
C80 H83 0.960 . S
H81 C80 0.961 . S
H82 C80 0.961 . S
H83 C80 0.960 . S
C84 N85 1.342 . S
C84 C88 1.401 . S
C84 C89 1.499 . S
N85 Co68 1.989 . S
N85 C84 1.342 . S
N85 N86 1.388 . S
N86 Co69 1.993 . S
N86 N85 1.388 . S
N86 C87 1.346 . S
C87 N86 1.346 . S
C87 C88 1.396 . S
C87 C97 1.510 . S
C88 C84 1.401 . S
C88 C87 1.396 . S
C89 C84 1.499 . S
C89 H90 0.959 . S
C89 H91 0.960 . S
C89 H92 0.961 . S
H90 C89 0.959 . S
H91 C89 0.960 . S
H92 C89 0.961 . S
O93 Co68 1.967 . S
O93 C101 1.258 . S
O94 Co69 1.941 . S
O94 C101 1.266 . S
H95 C97 0.959 . S
H96 C97 0.961 . S
C97 C87 1.510 . S
C97 H95 0.959 . S
C97 H96 0.961 . S
C97 H98 0.960 . S
H98 C97 0.960 . S
H99 N79 0.862 . S
O100 Co68 1.920 . S
O100 C73 1.289 . S
C101 O93 1.258 . S
C101 O94 1.266 . S
Co102 O105 1.970 . S
Co102 N119 1.989 . S
Co102 O127 1.967 . S
Co102 O134 1.920 . S
Co103 O106 1.966 . S
Co103 N112 2.022 . S
Co103 N120 1.993 . S
Co103 O128 1.941 . S
C104 O105 1.258 . S
C104 O106 1.263 . S
O105 Co102 1.970 . S
O105 C104 1.258 . S
O106 Co103 1.966 . S
O106 C104 1.263 . S
C107 O108 1.235 . S
C107 O134 1.289 . S
O108 C107 1.235 . S
C109 C111 1.400 . S
C109 N112 1.351 . S
C109 C114 1.501 . S
C110 C111 1.387 . S
C110 N113 1.341 . S
C111 C109 1.400 . S
C111 C110 1.387 . S
N112 Co103 2.022 . S
N112 C109 1.351 . S
N112 N113 1.365 . S
N113 C110 1.341 . S
N113 N112 1.365 . S
N113 H133 0.862 . S
C114 C109 1.501 . S
C114 H115 0.961 . S
C114 H116 0.961 . S
C114 H117 0.960 . S
H115 C114 0.961 . S
H116 C114 0.961 . S
H117 C114 0.960 . S
C118 N119 1.342 . S
C118 C122 1.401 . S
C118 C123 1.499 . S
N119 Co102 1.989 . S
N119 C118 1.342 . S
N119 N120 1.388 . S
N120 Co103 1.993 . S
N120 N119 1.388 . S
N120 C121 1.346 . S
C121 N120 1.346 . S
C121 C122 1.396 . S
C121 C131 1.510 . S
C122 C118 1.401 . S
C122 C121 1.396 . S
C123 C118 1.499 . S
C123 H124 0.959 . S
C123 H125 0.960 . S
C123 H126 0.961 . S
H124 C123 0.959 . S
H125 C123 0.960 . S
H126 C123 0.961 . S
O127 Co102 1.967 . S
O127 C135 1.258 . S
O128 Co103 1.941 . S
O128 C135 1.266 . S
H129 C131 0.959 . S
H130 C131 0.961 . S
C131 C121 1.510 . S
C131 H129 0.959 . S
C131 H130 0.961 . S
C131 H132 0.960 . S
H132 C131 0.960 . S
H133 N113 0.862 . S
O134 Co102 1.920 . S
O134 C107 1.289 . S
C135 O127 1.258 . S
C135 O128 1.266 . S
Co136 O139 1.970 . S
Co136 N153 1.989 . S
Co136 O161 1.967 . S
Co136 O168 1.920 . S
Co137 O140 1.966 1_545 S
Co137 N146 2.022 . S
Co137 N154 1.993 1_545 S
Co137 O162 1.941 1_545 S
C138 O139 1.258 . S
C138 O140 1.263 . S
O139 Co136 1.970 . S
O139 C138 1.258 . S
O140 Co137 1.966 1_565 S
O140 C138 1.263 . S
C141 O142 1.235 . S
C141 O168 1.289 . S
O142 C141 1.235 . S
C143 C145 1.400 . S
C143 N146 1.351 . S
C143 C148 1.501 . S
C144 C145 1.387 . S
C144 N147 1.341 . S
C145 C143 1.400 . S
C145 C144 1.387 . S
N146 Co137 2.022 . S
N146 C143 1.351 . S
N146 N147 1.365 . S
N147 C144 1.341 . S
N147 N146 1.365 . S
N147 H167 0.862 . S
C148 C143 1.501 . S
C148 H149 0.961 . S
C148 H150 0.961 . S
C148 H151 0.960 . S
H149 C148 0.961 . S
H150 C148 0.961 . S
H151 C148 0.960 . S
C152 N153 1.342 . S
C152 C156 1.401 . S
C152 C157 1.499 . S
N153 Co136 1.989 . S
N153 C152 1.342 . S
N153 N154 1.388 . S
N154 Co137 1.993 1_565 S
N154 N153 1.388 . S
N154 C155 1.346 . S
C155 N154 1.346 . S
C155 C156 1.396 . S
C155 C165 1.510 1_565 S
C156 C152 1.401 . S
C156 C155 1.396 . S
C157 C152 1.499 . S
C157 H158 0.959 . S
C157 H159 0.960 . S
C157 H160 0.961 . S
H158 C157 0.959 . S
H159 C157 0.960 . S
H160 C157 0.961 . S
O161 Co136 1.967 . S
O161 C169 1.258 . S
O162 Co137 1.941 1_565 S
O162 C169 1.266 . S
H163 C165 0.959 . S
H164 C165 0.961 . S
C165 C155 1.510 1_545 S
C165 H163 0.959 . S
C165 H164 0.961 . S
C165 H166 0.960 . S
H166 C165 0.960 . S
H167 N147 0.862 . S
O168 Co136 1.920 . S
O168 C141 1.289 . S
C169 O161 1.258 . S
C169 O162 1.266 . S
Co170 O173 1.970 . S
Co170 N187 1.989 . S
Co170 O195 1.967 . S
Co170 O202 1.920 . S
Co171 O174 1.966 1_565 S
Co171 N180 2.022 . S
Co171 N188 1.993 1_565 S
Co171 O196 1.941 1_565 S
C172 O173 1.258 . S
C172 O174 1.263 . S
O173 Co170 1.970 . S
O173 C172 1.258 . S
O174 Co171 1.966 1_545 S
O174 C172 1.263 . S
C175 O176 1.235 . S
C175 O202 1.289 . S
O176 C175 1.235 . S
C177 C179 1.400 . S
C177 N180 1.351 . S
C177 C182 1.501 . S
C178 C179 1.387 . S
C178 N181 1.341 . S
C179 C177 1.400 . S
C179 C178 1.387 . S
N180 Co171 2.022 . S
N180 C177 1.351 . S
N180 N181 1.365 . S
N181 C178 1.341 . S
N181 N180 1.365 . S
N181 H201 0.862 . S
C182 C177 1.501 . S
C182 H183 0.961 . S
C182 H184 0.961 . S
C182 H185 0.960 . S
H183 C182 0.961 . S
H184 C182 0.961 . S
H185 C182 0.960 . S
C186 N187 1.342 . S
C186 C190 1.401 . S
C186 C191 1.499 . S
N187 Co170 1.989 . S
N187 C186 1.342 . S
N187 N188 1.388 . S
N188 Co171 1.993 1_545 S
N188 N187 1.388 . S
N188 C189 1.346 . S
C189 N188 1.346 . S
C189 C190 1.396 . S
C189 C199 1.510 1_545 S
C190 C186 1.401 . S
C190 C189 1.396 . S
C191 C186 1.499 . S
C191 H192 0.959 . S
C191 H193 0.960 . S
C191 H194 0.961 . S
H192 C191 0.959 . S
H193 C191 0.960 . S
H194 C191 0.961 . S
O195 Co170 1.967 . S
O195 C203 1.258 . S
O196 Co171 1.941 1_545 S
O196 C203 1.266 . S
H197 C199 0.959 . S
H198 C199 0.961 . S
C199 C189 1.510 1_565 S
C199 H197 0.959 . S
C199 H198 0.961 . S
C199 H200 0.960 . S
H200 C199 0.960 . S
H201 N181 0.862 . S
O202 Co170 1.920 . S
O202 C175 1.289 . S
C203 O195 1.258 . S
C203 O196 1.266 . S
Co204 O207 1.970 . S
Co204 N221 1.989 . S
Co204 O229 1.967 . S
Co204 O236 1.920 . S
Co205 O208 1.966 . S
Co205 N214 2.022 . S
Co205 N222 1.993 . S
Co205 O230 1.941 . S
C206 O207 1.258 . S
C206 O208 1.263 . S
O207 Co204 1.970 . S
O207 C206 1.258 . S
O208 Co205 1.966 . S
O208 C206 1.263 . S
C209 O210 1.235 . S
C209 O236 1.289 . S
O210 C209 1.235 . S
C211 C213 1.400 . S
C211 N214 1.351 . S
C211 C216 1.501 . S
C212 C213 1.387 . S
C212 N215 1.341 . S
C213 C211 1.400 . S
C213 C212 1.387 . S
N214 Co205 2.022 . S
N214 C211 1.351 . S
N214 N215 1.365 . S
N215 C212 1.341 . S
N215 N214 1.365 . S
N215 H235 0.862 . S
C216 C211 1.501 . S
C216 H217 0.961 . S
C216 H218 0.961 . S
C216 H219 0.960 . S
H217 C216 0.961 . S
H218 C216 0.961 . S
H219 C216 0.960 . S
C220 N221 1.342 . S
C220 C224 1.401 . S
C220 C225 1.499 . S
N221 Co204 1.989 . S
N221 C220 1.342 . S
N221 N222 1.388 . S
N222 Co205 1.993 . S
N222 N221 1.388 . S
N222 C223 1.346 . S
C223 N222 1.346 . S
C223 C224 1.396 . S
C223 C233 1.510 . S
C224 C220 1.401 . S
C224 C223 1.396 . S
C225 C220 1.499 . S
C225 H226 0.959 . S
C225 H227 0.960 . S
C225 H228 0.961 . S
H226 C225 0.959 . S
H227 C225 0.960 . S
H228 C225 0.961 . S
O229 Co204 1.967 . S
O229 C237 1.258 . S
O230 Co205 1.941 . S
O230 C237 1.266 . S
H231 C233 0.959 . S
H232 C233 0.961 . S
C233 C223 1.510 . S
C233 H231 0.959 . S
C233 H232 0.961 . S
C233 H234 0.960 . S
H234 C233 0.960 . S
H235 N215 0.862 . S
O236 Co204 1.920 . S
O236 C209 1.289 . S
C237 O229 1.258 . S
C237 O230 1.266 . S
Co238 O241 1.970 . S
Co238 N255 1.989 . S
Co238 O263 1.967 . S
Co238 O270 1.920 . S
Co239 O242 1.966 . S
Co239 N248 2.022 . S
Co239 N256 1.993 . S
Co239 O264 1.941 . S
C240 O241 1.258 . S
C240 O242 1.263 . S
O241 Co238 1.970 . S
O241 C240 1.258 . S
O242 Co239 1.966 . S
O242 C240 1.263 . S
C243 O244 1.235 . S
C243 O270 1.289 . S
O244 C243 1.235 . S
C245 C247 1.400 . S
C245 N248 1.351 . S
C245 C250 1.501 . S
C246 C247 1.387 . S
C246 N249 1.341 . S
C247 C245 1.400 . S
C247 C246 1.387 . S
N248 Co239 2.022 . S
N248 C245 1.351 . S
N248 N249 1.365 . S
N249 C246 1.341 . S
N249 N248 1.365 . S
N249 H269 0.862 . S
C250 C245 1.501 . S
C250 H251 0.961 . S
C250 H252 0.961 . S
C250 H253 0.960 . S
H251 C250 0.961 . S
H252 C250 0.961 . S
H253 C250 0.960 . S
C254 N255 1.342 . S
C254 C258 1.401 . S
C254 C259 1.499 . S
N255 Co238 1.989 . S
N255 C254 1.342 . S
N255 N256 1.388 . S
N256 Co239 1.993 . S
N256 N255 1.388 . S
N256 C257 1.346 . S
C257 N256 1.346 . S
C257 C258 1.396 . S
C257 C267 1.510 . S
C258 C254 1.401 . S
C258 C257 1.396 . S
C259 C254 1.499 . S
C259 H260 0.959 . S
C259 H261 0.960 . S
C259 H262 0.961 . S
H260 C259 0.959 . S
H261 C259 0.960 . S
H262 C259 0.961 . S
O263 Co238 1.967 . S
O263 C271 1.258 . S
O264 Co239 1.941 . S
O264 C271 1.266 . S
H265 C267 0.959 . S
H266 C267 0.961 . S
C267 C257 1.510 . S
C267 H265 0.959 . S
C267 H266 0.961 . S
C267 H268 0.960 . S
H268 C267 0.960 . S
H269 N249 0.862 . S
O270 Co238 1.920 . S
O270 C243 1.289 . S
C271 O263 1.258 . S
C271 O264 1.266 . S
H272 C290 0.951 . S
H273 C292 0.951 . S
H274 C294 0.950 . S
H275 C295 0.950 . S
H276 C297 0.950 . S
H277 C300 0.950 . S
H278 C301 0.950 . S
H279 C303 0.950 . S
H280 C304 0.950 . S
H281 C305 0.951 . S
H282 C307 0.951 . S
H283 C309 0.950 . S
H284 C310 0.950 . S
H285 C312 0.950 . S
H286 C315 0.950 . S
H287 C316 0.950 . S
H288 C318 0.950 1_556 S
H289 C319 0.950 . S
C290 H272 0.951 . S
C290 C291 1.366 . S
C290 C292 1.388 . S
C291 C290 1.366 . S
C291 C295 1.385 . S
C292 H273 0.951 . S
C292 C290 1.388 . S
C292 C293 1.366 . S
C293 C292 1.366 . S
C293 C294 1.414 . S
C293 C296 1.499 . S
C294 H274 0.950 . S
C294 C293 1.414 . S
C294 C295 1.374 . S
C295 H275 0.950 . S
C295 C291 1.385 . S
C295 C294 1.374 . S
C296 C293 1.499 . S
C296 C297 1.373 1_545 S
C296 C298 1.389 . S
C297 H276 0.950 . S
C297 C296 1.373 1_565 S
C297 C313 1.377 . S
C298 C296 1.389 . S
C298 C299 1.524 . S
C298 C312 1.377 . S
C299 C298 1.524 . S
C299 C300 1.397 . S
C299 C304 1.363 . S
C300 H277 0.950 . S
C300 C299 1.397 . S
C300 C301 1.334 . S
C301 H278 0.950 . S
C301 C300 1.334 . S
C301 C302 1.287 . S
C302 C301 1.287 . S
C302 C303 1.524 . S
C302 H321 0.913 . S
C303 H279 0.950 . S
C303 C302 1.524 . S
C303 C304 1.415 . S
C304 H280 0.950 . S
C304 C299 1.363 . S
C304 C303 1.415 . S
C305 H281 0.951 . S
C305 C306 1.366 . S
C305 C307 1.388 . S
C306 C305 1.366 . S
C306 C310 1.385 . S
C307 H282 0.951 . S
C307 C305 1.388 . S
C307 C308 1.366 . S
C308 C307 1.366 . S
C308 C309 1.414 . S
C308 C311 1.499 . S
C309 H283 0.950 . S
C309 C308 1.414 . S
C309 C310 1.374 . S
C310 H284 0.950 . S
C310 C306 1.385 . S
C310 C309 1.374 . S
C311 C308 1.499 . S
C311 C312 1.373 1_565 S
C311 C313 1.389 . S
C312 H285 0.950 . S
C312 C298 1.377 . S
C312 C311 1.373 1_545 S
C313 C297 1.377 . S
C313 C311 1.389 . S
C313 C314 1.524 . S
C314 C313 1.524 . S
C314 C315 1.397 . S
C314 C319 1.363 . S
C315 H286 0.950 . S
C315 C314 1.397 . S
C315 C316 1.334 . S
C316 H287 0.950 . S
C316 C315 1.334 . S
C316 C317 1.287 . S
C317 C316 1.287 . S
C317 C318 1.524 . S
C317 H320 0.999 . S
C318 H288 0.950 1_554 S
C318 C317 1.524 . S
C318 C319 1.415 . S
C319 H289 0.950 . S
C319 C314 1.363 . S
C319 C318 1.415 . S
H320 C317 0.999 . S
H321 C302 0.913 . S
H322 C340 0.951 . S
H323 C342 0.951 . S
H324 C344 0.950 . S
H325 C345 0.950 . S
H326 C347 0.950 . S
H327 C350 0.950 . S
H328 C351 0.950 . S
H329 C353 0.950 . S
H330 C354 0.950 . S
H331 C355 0.951 . S
H332 C357 0.951 . S
H333 C359 0.950 . S
H334 C360 0.950 . S
H335 C362 0.950 . S
H336 C365 0.950 . S
H337 C366 0.950 . S
H338 C368 0.950 . S
H339 C369 0.950 . S
C340 H322 0.951 . S
C340 C341 1.366 . S
C340 C342 1.388 . S
C341 C340 1.366 . S
C341 C345 1.385 . S
C342 H323 0.951 . S
C342 C340 1.388 . S
C342 C343 1.366 . S
C343 C342 1.366 . S
C343 C344 1.414 . S
C343 C346 1.499 . S
C344 H324 0.950 . S
C344 C343 1.414 . S
C344 C345 1.374 . S
C345 H325 0.950 . S
C345 C341 1.385 . S
C345 C344 1.374 . S
C346 C343 1.499 . S
C346 C347 1.373 . S
C346 C348 1.389 . S
C347 H326 0.950 . S
C347 C346 1.373 . S
C347 C363 1.377 . S
C348 C346 1.389 . S
C348 C349 1.524 . S
C348 C362 1.377 . S
C349 C348 1.524 . S
C349 C350 1.397 . S
C349 C354 1.363 . S
C350 H327 0.950 . S
C350 C349 1.397 . S
C350 C351 1.334 . S
C351 H328 0.950 . S
C351 C350 1.334 . S
C351 C352 1.287 . S
C352 C351 1.287 . S
C352 C353 1.524 . S
C352 H371 0.913 . S
C353 H329 0.950 . S
C353 C352 1.524 . S
C353 C354 1.415 . S
C354 H330 0.950 . S
C354 C349 1.363 . S
C354 C353 1.415 . S
C355 H331 0.951 . S
C355 C356 1.366 . S
C355 C357 1.388 . S
C356 C355 1.366 . S
C356 C360 1.385 . S
C357 H332 0.951 . S
C357 C355 1.388 . S
C357 C358 1.366 . S
C358 C357 1.366 . S
C358 C359 1.414 . S
C358 C361 1.499 . S
C359 H333 0.950 . S
C359 C358 1.414 . S
C359 C360 1.374 . S
C360 H334 0.950 . S
C360 C356 1.385 . S
C360 C359 1.374 . S
C361 C358 1.499 . S
C361 C362 1.373 . S
C361 C363 1.389 . S
C362 H335 0.950 . S
C362 C348 1.377 . S
C362 C361 1.373 . S
C363 C347 1.377 . S
C363 C361 1.389 . S
C363 C364 1.524 . S
C364 C363 1.524 . S
C364 C365 1.397 . S
C364 C369 1.363 . S
C365 H336 0.950 . S
C365 C364 1.397 . S
C365 C366 1.334 . S
C366 H337 0.950 . S
C366 C365 1.334 . S
C366 C367 1.287 . S
C367 C366 1.287 . S
C367 C368 1.524 . S
C367 H370 0.999 . S
C368 H338 0.950 . S
C368 C367 1.524 . S
C368 C369 1.415 . S
C369 H339 0.950 . S
C369 C364 1.363 . S
C369 C368 1.415 . S
H370 C367 0.999 . S
H371 C352 0.913 . S
H372 C390 0.951 . S
H373 C392 0.951 . S
H374 C394 0.950 . S
H375 C395 0.950 1_545 S
H376 C397 0.950 . S
H377 C400 0.950 . S
H378 C401 0.950 . S
H379 C403 0.950 . S
H380 C404 0.950 . S
H381 C405 0.951 . S
H382 C407 0.951 . S
H383 C409 0.950 . S
H384 C410 0.950 1_565 S
H385 C412 0.950 . S
H386 C415 0.950 . S
H387 C416 0.950 . S
H388 C418 0.950 . S
H389 C419 0.950 . S
C390 H372 0.951 . S
C390 C391 1.366 . S
C390 C392 1.388 . S
C391 C390 1.366 . S
C391 C395 1.385 . S
C392 H373 0.951 . S
C392 C390 1.388 . S
C392 C393 1.366 . S
C393 C392 1.366 . S
C393 C394 1.414 1_565 S
C393 C396 1.499 . S
C394 H374 0.950 . S
C394 C393 1.414 1_545 S
C394 C395 1.374 1_545 S
C395 H375 0.950 1_565 S
C395 C391 1.385 . S
C395 C394 1.374 1_565 S
C396 C393 1.499 . S
C396 C397 1.373 1_565 S
C396 C398 1.389 . S
C397 H376 0.950 . S
C397 C396 1.373 1_545 S
C397 C413 1.377 . S
C398 C396 1.389 . S
C398 C399 1.524 . S
C398 C412 1.377 . S
C399 C398 1.524 . S
C399 C400 1.397 . S
C399 C404 1.363 . S
C400 H377 0.950 . S
C400 C399 1.397 . S
C400 C401 1.334 . S
C401 H378 0.950 . S
C401 C400 1.334 . S
C401 C402 1.287 . S
C402 C401 1.287 . S
C402 C403 1.524 . S
C402 H421 0.913 . S
C403 H379 0.950 . S
C403 C402 1.524 . S
C403 C404 1.415 . S
C404 H380 0.950 . S
C404 C399 1.363 . S
C404 C403 1.415 . S
C405 H381 0.951 . S
C405 C406 1.366 . S
C405 C407 1.388 . S
C406 C405 1.366 . S
C406 C410 1.385 . S
C407 H382 0.951 . S
C407 C405 1.388 . S
C407 C408 1.366 . S
C408 C407 1.366 . S
C408 C409 1.414 1_545 S
C408 C411 1.499 . S
C409 H383 0.950 . S
C409 C408 1.414 1_565 S
C409 C410 1.374 1_565 S
C410 H384 0.950 1_545 S
C410 C406 1.385 . S
C410 C409 1.374 1_545 S
C411 C408 1.499 . S
C411 C412 1.373 1_545 S
C411 C413 1.389 . S
C412 H385 0.950 . S
C412 C398 1.377 . S
C412 C411 1.373 1_565 S
C413 C397 1.377 . S
C413 C411 1.389 . S
C413 C414 1.524 . S
C414 C413 1.524 . S
C414 C415 1.397 . S
C414 C419 1.363 . S
C415 H386 0.950 . S
C415 C414 1.397 . S
C415 C416 1.334 . S
C416 H387 0.950 . S
C416 C415 1.334 . S
C416 C417 1.287 . S
C417 C416 1.287 . S
C417 C418 1.524 . S
C417 H420 0.999 . S
C418 H388 0.950 . S
C418 C417 1.524 . S
C418 C419 1.415 . S
C419 H389 0.950 . S
C419 C414 1.363 . S
C419 C418 1.415 . S
H420 C417 0.999 . S
H421 C402 0.913 . S
H422 C440 0.951 . S
H423 C442 0.951 . S
H424 C444 0.950 . S
H425 C445 0.950 . S
H426 C447 0.950 . S
H427 C450 0.950 . S
H428 C451 0.950 . S
H429 C453 0.950 . S
H430 C454 0.950 . S
H431 C455 0.951 . S
H432 C457 0.951 . S
H433 C459 0.950 . S
H434 C460 0.950 . S
H435 C462 0.950 . S
H436 C465 0.950 . S
H437 C466 0.950 . S
H438 C468 0.950 . S
H439 C469 0.950 . S
C440 H422 0.951 . S
C440 C441 1.366 . S
C440 C442 1.388 . S
C441 C440 1.366 . S
C441 C445 1.385 . S
C442 H423 0.951 . S
C442 C440 1.388 . S
C442 C443 1.366 . S
C443 C442 1.366 . S
C443 C444 1.414 . S
C443 C446 1.499 . S
C444 H424 0.950 . S
C444 C443 1.414 . S
C444 C445 1.374 . S
C445 H425 0.950 . S
C445 C441 1.385 . S
C445 C444 1.374 . S
C446 C443 1.499 . S
C446 C447 1.373 . S
C446 C448 1.389 . S
C447 H426 0.950 . S
C447 C446 1.373 . S
C447 C463 1.377 . S
C448 C446 1.389 . S
C448 C449 1.524 . S
C448 C462 1.377 . S
C449 C448 1.524 . S
C449 C450 1.397 . S
C449 C454 1.363 . S
C450 H427 0.950 . S
C450 C449 1.397 . S
C450 C451 1.334 . S
C451 H428 0.950 . S
C451 C450 1.334 . S
C451 C452 1.287 . S
C452 C451 1.287 . S
C452 C453 1.524 . S
C452 H471 0.913 . S
C453 H429 0.950 . S
C453 C452 1.524 . S
C453 C454 1.415 . S
C454 H430 0.950 . S
C454 C449 1.363 . S
C454 C453 1.415 . S
C455 H431 0.951 . S
C455 C456 1.366 . S
C455 C457 1.388 . S
C456 C455 1.366 . S
C456 C460 1.385 . S
C457 H432 0.951 . S
C457 C455 1.388 . S
C457 C458 1.366 . S
C458 C457 1.366 . S
C458 C459 1.414 . S
C458 C461 1.499 . S
C459 H433 0.950 . S
C459 C458 1.414 . S
C459 C460 1.374 . S
C460 H434 0.950 . S
C460 C456 1.385 . S
C460 C459 1.374 . S
C461 C458 1.499 . S
C461 C462 1.373 . S
C461 C463 1.389 . S
C462 H435 0.950 . S
C462 C448 1.377 . S
C462 C461 1.373 . S
C463 C447 1.377 . S
C463 C461 1.389 . S
C463 C464 1.524 . S
C464 C463 1.524 . S
C464 C465 1.397 . S
C464 C469 1.363 . S
C465 H436 0.950 . S
C465 C464 1.397 . S
C465 C466 1.334 . S
C466 H437 0.950 . S
C466 C465 1.334 . S
C466 C467 1.287 . S
C467 C466 1.287 . S
C467 C468 1.524 . S
C467 H470 0.999 . S
C468 H438 0.950 . S
C468 C467 1.524 . S
C468 C469 1.415 . S
C469 H439 0.950 . S
C469 C464 1.363 . S
C469 C468 1.415 . S
H470 C467 0.999 . S
H471 C452 0.913 . S
H472 C490 0.951 . S
H473 C492 0.951 . S
H474 C494 0.950 . S
H475 C495 0.953 . S
H476 C497 0.950 . S
H477 C500 0.950 . S
H478 C501 0.950 . S
H479 C503 0.950 . S
H480 C504 0.950 . S
H481 C505 0.951 . S
H482 C507 0.951 . S
H483 C509 0.950 . S
H484 C510 0.953 . S
H485 C512 0.950 . S
H486 C515 0.950 . S
H487 C516 0.950 . S
H488 C518 0.950 . S
H489 C519 0.950 . S
C490 H472 0.951 . S
C490 C491 1.366 . S
C490 C492 1.388 . S
C491 C490 1.366 . S
C491 C495 1.381 1_545 S
C492 H473 0.951 . S
C492 C490 1.388 . S
C492 C493 1.366 . S
C493 C492 1.366 . S
C493 C494 1.414 1_545 S
C493 C496 1.499 . S
C494 H474 0.950 . S
C494 C493 1.414 1_565 S
C494 C495 1.375 . S
C495 H475 0.953 . S
C495 C491 1.381 1_565 S
C495 C494 1.375 . S
C496 C493 1.499 . S
C496 C497 1.373 1_554 S
C496 C498 1.384 1_545 S
C497 H476 0.950 . S
C497 C496 1.373 1_556 S
C497 C513 1.382 1_455 S
C498 C496 1.384 1_565 S
C498 C499 1.525 1_455 S
C498 C512 1.382 1_455 S
C499 C498 1.525 1_655 S
C499 C500 1.397 1_655 S
C499 C504 1.363 1_565 S
C500 H477 0.950 . S
C500 C499 1.397 1_455 S
C500 C501 1.334 . S
C501 H478 0.950 . S
C501 C500 1.334 . S
C501 C502 1.287 1_455 S
C502 C501 1.287 1_655 S
C502 C503 1.524 1_565 S
C502 H521 0.913 . S
C503 H479 0.950 . S
C503 C502 1.524 1_545 S
C503 C504 1.415 . S
C504 H480 0.950 . S
C504 C499 1.363 1_545 S
C504 C503 1.415 . S
C505 H481 0.951 . S
C505 C506 1.366 . S
C505 C507 1.388 . S
C506 C505 1.366 . S
C506 C510 1.381 1_565 S
C507 H482 0.951 . S
C507 C505 1.388 . S
C507 C508 1.366 . S
C508 C507 1.366 . S
C508 C509 1.414 1_565 S
C508 C511 1.499 . S
C509 H483 0.950 . S
C509 C508 1.414 1_545 S
C509 C510 1.375 . S
C510 H484 0.953 . S
C510 C506 1.381 1_545 S
C510 C509 1.375 . S
C511 C508 1.499 . S
C511 C512 1.373 1_556 S
C511 C513 1.384 1_565 S
C512 H485 0.950 . S
C512 C498 1.382 1_655 S
C512 C511 1.373 1_554 S
C513 C497 1.382 1_655 S
C513 C511 1.384 1_545 S
C513 C514 1.525 1_655 S
C514 C513 1.525 1_455 S
C514 C515 1.397 1_455 S
C514 C519 1.363 1_545 S
C515 H486 0.950 . S
C515 C514 1.397 1_655 S
C515 C516 1.334 . S
C516 H487 0.950 . S
C516 C515 1.334 . S
C516 C517 1.287 1_655 S
C517 C516 1.287 1_455 S
C517 C518 1.524 1_545 S
C517 H520 0.999 . S
C518 H488 0.950 . S
C518 C517 1.524 1_565 S
C518 C519 1.415 . S
C519 H489 0.950 . S
C519 C514 1.363 1_565 S
C519 C518 1.415 . S
H520 C517 0.999 . S
H521 C502 0.913 . S
H522 C540 0.951 . S
H523 C542 0.951 . S
H524 C544 0.950 . S
H525 C545 0.950 1_545 S
H526 C547 0.950 . S
H527 C550 0.950 . S
H528 C551 0.950 . S
H529 C553 0.950 1_565 S
H530 C554 0.949 1_565 S
H531 C555 0.951 . S
H532 C557 0.951 . S
H533 C559 0.950 . S
H534 C560 0.950 1_565 S
H535 C562 0.950 . S
H536 C565 0.950 . S
H537 C566 0.950 . S
H538 C568 0.950 1_545 S
H539 C569 0.949 1_545 S
C540 H522 0.951 . S
C540 C541 1.366 . S
C540 C542 1.388 . S
C541 C540 1.366 . S
C541 C545 1.385 . S
C542 H523 0.951 . S
C542 C540 1.388 . S
C542 C543 1.366 . S
C543 C542 1.366 . S
C543 C544 1.414 1_565 S
C543 C546 1.499 . S
C544 H524 0.950 . S
C544 C543 1.414 1_545 S
C544 C545 1.374 1_545 S
C545 H525 0.950 1_565 S
C545 C541 1.385 . S
C545 C544 1.374 1_565 S
C546 C543 1.499 . S
C546 C547 1.373 1_554 S
C546 C548 1.389 1_565 S
C547 H526 0.950 . S
C547 C546 1.373 1_556 S
C547 C563 1.377 . S
C548 C546 1.389 1_545 S
C548 C549 1.524 . S
C548 C562 1.377 . S
C549 C548 1.524 . S
C549 C550 1.397 . S
C549 C554 1.364 . S
C550 H527 0.950 . S
C550 C549 1.397 . S
C550 C551 1.334 . S
C551 H528 0.950 . S
C551 C550 1.334 . S
C551 C552 1.287 . S
C552 C551 1.287 . S
C552 C553 1.524 . S
C552 H571 0.913 . S
C553 H529 0.950 1_545 S
C553 C552 1.524 . S
C553 C554 1.416 . S
C554 H530 0.949 1_545 S
C554 C549 1.364 . S
C554 C553 1.416 . S
C555 H531 0.951 . S
C555 C556 1.366 . S
C555 C557 1.388 . S
C556 C555 1.366 . S
C556 C560 1.385 . S
C557 H532 0.951 . S
C557 C555 1.388 . S
C557 C558 1.366 . S
C558 C557 1.366 . S
C558 C559 1.414 1_545 S
C558 C561 1.499 . S
C559 H533 0.950 . S
C559 C558 1.414 1_565 S
C559 C560 1.374 1_565 S
C560 H534 0.950 1_545 S
C560 C556 1.385 . S
C560 C559 1.374 1_545 S
C561 C558 1.499 . S
C561 C562 1.373 1_556 S
C561 C563 1.389 1_545 S
C562 H535 0.950 . S
C562 C548 1.377 . S
C562 C561 1.373 1_554 S
C563 C547 1.377 . S
C563 C561 1.389 1_565 S
C563 C564 1.524 . S
C564 C563 1.524 . S
C564 C565 1.397 . S
C564 C569 1.364 . S
C565 H536 0.950 . S
C565 C564 1.397 . S
C565 C566 1.334 . S
C566 H537 0.950 . S
C566 C565 1.334 . S
C566 C567 1.287 . S
C567 C566 1.287 . S
C567 C568 1.524 . S
C567 H570 0.999 . S
C568 H538 0.950 1_565 S
C568 C567 1.524 . S
C568 C569 1.416 . S
C569 H539 0.949 1_565 S
C569 C564 1.364 . S
C569 C568 1.416 . S
H570 C567 0.999 . S
H571 C552 0.913 . S
H572 C590 0.951 . S
H573 C592 0.951 . S
H574 C594 0.950 . S
H575 C595 0.950 . S
H576 C597 0.950 . S
H577 C600 0.950 . S
H578 C601 0.950 . S
H579 C603 0.950 . S
H580 C604 0.950 . S
H581 C605 0.951 . S
H582 C607 0.951 . S
H583 C609 0.950 . S
H584 C610 0.950 . S
H585 C612 0.950 . S
H586 C615 0.950 . S
H587 C616 0.950 . S
H588 C618 0.950 . S
H589 C619 0.950 . S
C590 H572 0.951 . S
C590 C591 1.366 . S
C590 C592 1.388 . S
C591 C590 1.366 . S
C591 C595 1.385 . S
C592 H573 0.951 . S
C592 C590 1.388 . S
C592 C593 1.366 . S
C593 C592 1.366 . S
C593 C594 1.414 . S
C593 C596 1.499 . S
C594 H574 0.950 . S
C594 C593 1.414 . S
C594 C595 1.374 . S
C595 H575 0.950 . S
C595 C591 1.385 . S
C595 C594 1.374 . S
C596 C593 1.499 . S
C596 C597 1.373 . S
C596 C598 1.389 . S
C597 H576 0.950 . S
C597 C596 1.373 . S
C597 C613 1.377 1_455 S
C598 C596 1.389 . S
C598 C599 1.524 . S
C598 C612 1.377 1_455 S
C599 C598 1.524 . S
C599 C600 1.397 . S
C599 C604 1.363 1_455 S
C600 H577 0.950 . S
C600 C599 1.397 . S
C600 C601 1.334 . S
C601 H578 0.950 . S
C601 C600 1.334 . S
C601 C602 1.271 1_455 S
C602 C601 1.271 1_655 S
C602 C603 1.536 . S
C602 H621 0.913 . S
C603 H579 0.950 . S
C603 C602 1.536 . S
C603 C604 1.415 . S
C604 H580 0.950 . S
C604 C599 1.363 1_655 S
C604 C603 1.415 . S
C605 H581 0.951 . S
C605 C606 1.366 . S
C605 C607 1.388 . S
C606 C605 1.366 . S
C606 C610 1.385 . S
C607 H582 0.951 . S
C607 C605 1.388 . S
C607 C608 1.366 . S
C608 C607 1.366 . S
C608 C609 1.414 . S
C608 C611 1.499 . S
C609 H583 0.950 . S
C609 C608 1.414 . S
C609 C610 1.374 . S
C610 H584 0.950 . S
C610 C606 1.385 . S
C610 C609 1.374 . S
C611 C608 1.499 . S
C611 C612 1.373 . S
C611 C613 1.389 . S
C612 H585 0.950 . S
C612 C598 1.377 1_655 S
C612 C611 1.373 . S
C613 C597 1.377 1_655 S
C613 C611 1.389 . S
C613 C614 1.524 . S
C614 C613 1.524 . S
C614 C615 1.397 . S
C614 C619 1.363 1_655 S
C615 H586 0.950 . S
C615 C614 1.397 . S
C615 C616 1.334 . S
C616 H587 0.950 . S
C616 C615 1.334 . S
C616 C617 1.271 1_655 S
C617 C616 1.271 1_455 S
C617 C618 1.536 . S
C617 H620 1.003 . S
C618 H588 0.950 . S
C618 C617 1.536 . S
C618 C619 1.415 . S
C619 H589 0.950 . S
C619 C614 1.363 1_455 S
C619 C618 1.415 . S
H620 C617 1.003 . S
H621 C602 0.913 . S
H622 C640 0.951 . S
H623 C642 0.951 . S
H624 C644 0.950 . S
H625 C645 0.950 . S
H626 C647 0.950 . S
H627 C650 0.950 . S
H628 C651 0.950 . S
H629 C653 0.950 . S
H630 C654 0.950 . S
H631 C655 0.951 . S
H632 C657 0.951 . S
H633 C659 0.950 . S
H634 C660 0.950 . S
H635 C662 0.950 . S
H636 C665 0.950 . S
H637 C666 0.950 . S
H638 C668 0.950 . S
H639 C669 0.950 . S
C640 H622 0.951 . S
C640 C641 1.366 . S
C640 C642 1.388 . S
C641 C640 1.366 . S
C641 C645 1.385 . S
C642 H623 0.951 . S
C642 C640 1.388 . S
C642 C643 1.366 . S
C643 C642 1.366 . S
C643 C644 1.414 . S
C643 C646 1.499 . S
C644 H624 0.950 . S
C644 C643 1.414 . S
C644 C645 1.374 . S
C645 H625 0.950 . S
C645 C641 1.385 . S
C645 C644 1.374 . S
C646 C643 1.499 . S
C646 C647 1.373 . S
C646 C648 1.389 . S
C647 H626 0.950 . S
C647 C646 1.373 . S
C647 C663 1.377 . S
C648 C646 1.389 . S
C648 C649 1.524 . S
C648 C662 1.377 . S
C649 C648 1.524 . S
C649 C650 1.397 . S
C649 C654 1.363 . S
C650 H627 0.950 . S
C650 C649 1.397 . S
C650 C651 1.334 . S
C651 H628 0.950 . S
C651 C650 1.334 . S
C651 C652 1.287 . S
C652 C651 1.287 . S
C652 C653 1.524 . S
C652 H671 0.913 . S
C653 H629 0.950 . S
C653 C652 1.524 . S
C653 C654 1.415 . S
C654 H630 0.950 . S
C654 C649 1.363 . S
C654 C653 1.415 . S
C655 H631 0.951 . S
C655 C656 1.366 . S
C655 C657 1.388 . S
C656 C655 1.366 . S
C656 C660 1.385 . S
C657 H632 0.951 . S
C657 C655 1.388 . S
C657 C658 1.366 . S
C658 C657 1.366 . S
C658 C659 1.414 . S
C658 C661 1.499 . S
C659 H633 0.950 . S
C659 C658 1.414 . S
C659 C660 1.374 . S
C660 H634 0.950 . S
C660 C656 1.385 . S
C660 C659 1.374 . S
C661 C658 1.499 . S
C661 C662 1.373 . S
C661 C663 1.389 . S
C662 H635 0.950 . S
C662 C648 1.377 . S
C662 C661 1.373 . S
C663 C647 1.377 . S
C663 C661 1.389 . S
C663 C664 1.524 . S
C664 C663 1.524 . S
C664 C665 1.397 . S
C664 C669 1.363 . S
C665 H636 0.950 . S
C665 C664 1.397 . S
C665 C666 1.334 . S
C666 H637 0.950 . S
C666 C665 1.334 . S
C666 C667 1.287 . S
C667 C666 1.287 . S
C667 C668 1.524 . S
C667 H670 0.999 . S
C668 H638 0.950 . S
C668 C667 1.524 . S
C668 C669 1.415 . S
C669 H639 0.950 . S
C669 C664 1.363 . S
C669 C668 1.415 . S
H670 C667 0.999 . S
H671 C652 0.913 . S
H672 C690 0.951 . S
H673 C692 0.951 . S
H674 C694 0.950 . S
H675 C695 0.950 . S
H676 C697 0.950 . S
H677 C700 0.950 . S
H678 C701 0.950 . S
H679 C703 0.950 . S
H680 C704 0.950 . S
H681 C705 0.951 . S
H682 C707 0.951 . S
H683 C709 0.950 . S
H684 C710 0.950 . S
H685 C712 0.950 . S
H686 C715 0.950 . S
H687 C716 0.950 . S
H688 C718 0.950 . S
H689 C719 0.950 . S
C690 H672 0.951 . S
C690 C691 1.366 . S
C690 C692 1.388 . S
C691 C690 1.366 . S
C691 C695 1.385 . S
C692 H673 0.951 . S
C692 C690 1.388 . S
C692 C693 1.366 . S
C693 C692 1.366 . S
C693 C694 1.414 . S
C693 C696 1.499 . S
C694 H674 0.950 . S
C694 C693 1.414 . S
C694 C695 1.374 . S
C695 H675 0.950 . S
C695 C691 1.385 . S
C695 C694 1.374 . S
C696 C693 1.499 . S
C696 C697 1.373 . S
C696 C698 1.389 . S
C697 H676 0.950 . S
C697 C696 1.373 . S
C697 C713 1.377 . S
C698 C696 1.389 . S
C698 C699 1.524 . S
C698 C712 1.377 . S
C699 C698 1.524 . S
C699 C700 1.397 . S
C699 C704 1.363 . S
C700 H677 0.950 . S
C700 C699 1.397 . S
C700 C701 1.334 . S
C701 H678 0.950 . S
C701 C700 1.334 . S
C701 C702 1.287 . S
C702 C701 1.287 . S
C702 C703 1.524 . S
C702 H721 0.913 . S
C703 H679 0.950 . S
C703 C702 1.524 . S
C703 C704 1.415 . S
C704 H680 0.950 . S
C704 C699 1.363 . S
C704 C703 1.415 . S
C705 H681 0.951 . S
C705 C706 1.366 . S
C705 C707 1.388 . S
C706 C705 1.366 . S
C706 C710 1.385 . S
C707 H682 0.951 . S
C707 C705 1.388 . S
C707 C708 1.366 . S
C708 C707 1.366 . S
C708 C709 1.414 . S
C708 C711 1.499 . S
C709 H683 0.950 . S
C709 C708 1.414 . S
C709 C710 1.374 . S
C710 H684 0.950 . S
C710 C706 1.385 . S
C710 C709 1.374 . S
C711 C708 1.499 . S
C711 C712 1.373 . S
C711 C713 1.389 . S
C712 H685 0.950 . S
C712 C698 1.377 . S
C712 C711 1.373 . S
C713 C697 1.377 . S
C713 C711 1.389 . S
C713 C714 1.524 . S
C714 C713 1.524 . S
C714 C715 1.397 . S
C714 C719 1.363 . S
C715 H686 0.950 . S
C715 C714 1.397 . S
C715 C716 1.334 . S
C716 H687 0.950 . S
C716 C715 1.334 . S
C716 C717 1.287 . S
C717 C716 1.287 . S
C717 C718 1.524 . S
C717 H720 0.999 . S
C718 H688 0.950 . S
C718 C717 1.524 . S
C718 C719 1.415 . S
C719 H689 0.950 . S
C719 C714 1.363 . S
C719 C718 1.415 . S
H720 C717 0.999 . S
H721 C702 0.913 . S
H722 C740 0.951 . S
H723 C742 0.951 . S
H724 C744 0.950 . S
H725 C745 0.950 . S
H726 C747 0.950 . S
H727 C750 0.950 . S
H728 C751 0.950 . S
H729 C753 0.950 . S
H730 C754 0.950 . S
H731 C755 0.951 . S
H732 C757 0.951 . S
H733 C759 0.950 . S
H734 C760 0.950 . S
H735 C762 0.950 . S
H736 C765 0.950 . S
H737 C766 0.950 . S
H738 C768 0.950 . S
H739 C769 0.950 . S
C740 H722 0.951 . S
C740 C741 1.366 . S
C740 C742 1.388 . S
C741 C740 1.366 . S
C741 C745 1.385 . S
C742 H723 0.951 . S
C742 C740 1.388 . S
C742 C743 1.366 . S
C743 C742 1.366 . S
C743 C744 1.414 . S
C743 C746 1.499 . S
C744 H724 0.950 . S
C744 C743 1.414 . S
C744 C745 1.374 . S
C745 H725 0.950 . S
C745 C741 1.385 . S
C745 C744 1.374 . S
C746 C743 1.499 . S
C746 C747 1.373 . S
C746 C748 1.389 . S
C747 H726 0.950 . S
C747 C746 1.373 . S
C747 C763 1.377 . S
C748 C746 1.389 . S
C748 C749 1.524 . S
C748 C762 1.377 . S
C749 C748 1.524 . S
C749 C750 1.397 . S
C749 C754 1.363 . S
C750 H727 0.950 . S
C750 C749 1.397 . S
C750 C751 1.334 . S
C751 H728 0.950 . S
C751 C750 1.334 . S
C751 C752 1.287 . S
C752 C751 1.287 . S
C752 C753 1.524 . S
C752 H771 0.913 . S
C753 H729 0.950 . S
C753 C752 1.524 . S
C753 C754 1.415 . S
C754 H730 0.950 . S
C754 C749 1.363 . S
C754 C753 1.415 . S
C755 H731 0.951 . S
C755 C756 1.366 . S
C755 C757 1.388 . S
C756 C755 1.366 . S
C756 C760 1.385 . S
C757 H732 0.951 . S
C757 C755 1.388 . S
C757 C758 1.366 . S
C758 C757 1.366 . S
C758 C759 1.414 . S
C758 C761 1.499 . S
C759 H733 0.950 . S
C759 C758 1.414 . S
C759 C760 1.374 . S
C760 H734 0.950 . S
C760 C756 1.385 . S
C760 C759 1.374 . S
C761 C758 1.499 . S
C761 C762 1.373 . S
C761 C763 1.389 . S
C762 H735 0.950 . S
C762 C748 1.377 . S
C762 C761 1.373 . S
C763 C747 1.377 . S
C763 C761 1.389 . S
C763 C764 1.524 . S
C764 C763 1.524 . S
C764 C765 1.397 . S
C764 C769 1.363 . S
C765 H736 0.950 . S
C765 C764 1.397 . S
C765 C766 1.334 . S
C766 H737 0.950 . S
C766 C765 1.334 . S
C766 C767 1.287 . S
C767 C766 1.287 . S
C767 C768 1.524 . S
C767 H770 0.999 . S
C768 H738 0.950 . S
C768 C767 1.524 . S
C768 C769 1.415 . S
C769 H739 0.950 . S
C769 C764 1.363 . S
C769 C768 1.415 . S
H770 C767 0.999 . S
H771 C752 0.913 . S
H772 C790 0.951 . S
H773 C792 0.951 . S
H774 C794 0.950 . S
H775 C795 0.950 . S
H776 C797 0.950 . S
H777 C800 0.950 . S
H778 C801 0.950 . S
H779 C803 0.950 . S
H780 C804 0.950 . S
H781 C805 0.951 . S
H782 C807 0.951 . S
H783 C809 0.950 . S
H784 C810 0.950 . S
H785 C812 0.950 . S
H786 C815 0.950 . S
H787 C816 0.950 . S
H788 C818 0.950 . S
H789 C819 0.950 . S
C790 H772 0.951 . S
C790 C791 1.366 . S
C790 C792 1.388 . S
C791 C790 1.366 . S
C791 C795 1.385 . S
C792 H773 0.951 . S
C792 C790 1.388 . S
C792 C793 1.366 . S
C793 C792 1.366 . S
C793 C794 1.414 . S
C793 C796 1.499 . S
C794 H774 0.950 . S
C794 C793 1.414 . S
C794 C795 1.374 . S
C795 H775 0.950 . S
C795 C791 1.385 . S
C795 C794 1.374 . S
C796 C793 1.499 . S
C796 C797 1.373 . S
C796 C798 1.389 . S
C797 H776 0.950 . S
C797 C796 1.373 . S
C797 C813 1.377 . S
C798 C796 1.389 . S
C798 C799 1.524 . S
C798 C812 1.377 . S
C799 C798 1.524 . S
C799 C800 1.397 . S
C799 C804 1.363 . S
C800 H777 0.950 . S
C800 C799 1.397 . S
C800 C801 1.334 . S
C801 H778 0.950 . S
C801 C800 1.334 . S
C801 C802 1.287 . S
C802 C801 1.287 . S
C802 C803 1.524 . S
C802 H821 0.913 . S
C803 H779 0.950 . S
C803 C802 1.524 . S
C803 C804 1.415 . S
C804 H780 0.950 . S
C804 C799 1.363 . S
C804 C803 1.415 . S
C805 H781 0.951 . S
C805 C806 1.366 . S
C805 C807 1.388 . S
C806 C805 1.366 . S
C806 C810 1.385 . S
C807 H782 0.951 . S
C807 C805 1.388 . S
C807 C808 1.366 . S
C808 C807 1.366 . S
C808 C809 1.414 . S
C808 C811 1.499 . S
C809 H783 0.950 . S
C809 C808 1.414 . S
C809 C810 1.374 . S
C810 H784 0.950 . S
C810 C806 1.385 . S
C810 C809 1.374 . S
C811 C808 1.499 . S
C811 C812 1.373 . S
C811 C813 1.389 . S
C812 H785 0.950 . S
C812 C798 1.377 . S
C812 C811 1.373 . S
C813 C797 1.377 . S
C813 C811 1.389 . S
C813 C814 1.524 . S
C814 C813 1.524 . S
C814 C815 1.397 . S
C814 C819 1.363 . S
C815 H786 0.950 . S
C815 C814 1.397 . S
C815 C816 1.334 . S
C816 H787 0.950 . S
C816 C815 1.334 . S
C816 C817 1.287 . S
C817 C816 1.287 . S
C817 C818 1.524 . S
C817 H820 0.999 . S
C818 H788 0.950 . S
C818 C817 1.524 . S
C818 C819 1.415 . S
C819 H789 0.950 . S
C819 C814 1.363 . S
C819 C818 1.415 . S
H820 C817 0.999 . S
H821 C802 0.913 . S
H822 C840 0.951 . S
H823 C842 0.951 . S
H824 C844 0.950 . S
H825 C845 0.950 . S
H826 C847 0.950 . S
H827 C850 0.950 . S
H828 C851 0.950 . S
H829 C853 0.950 . S
H830 C854 0.950 . S
H831 C855 0.951 . S
H832 C857 0.951 . S
H833 C859 0.950 . S
H834 C860 0.950 . S
H835 C862 0.950 . S
H836 C865 0.950 . S
H837 C866 0.950 . S
H838 C868 0.950 . S
H839 C869 0.950 . S
C840 H822 0.951 . S
C840 C841 1.366 . S
C840 C842 1.388 . S
C841 C840 1.366 . S
C841 C845 1.385 . S
C842 H823 0.951 . S
C842 C840 1.388 . S
C842 C843 1.366 . S
C843 C842 1.366 . S
C843 C844 1.414 . S
C843 C846 1.499 . S
C844 H824 0.950 . S
C844 C843 1.414 . S
C844 C845 1.374 . S
C845 H825 0.950 . S
C845 C841 1.385 . S
C845 C844 1.374 . S
C846 C843 1.499 . S
C846 C847 1.373 . S
C846 C848 1.389 . S
C847 H826 0.950 . S
C847 C846 1.373 . S
C847 C863 1.377 . S
C848 C846 1.389 . S
C848 C849 1.524 . S
C848 C862 1.377 . S
C849 C848 1.524 . S
C849 C850 1.397 . S
C849 C854 1.363 . S
C850 H827 0.950 . S
C850 C849 1.397 . S
C850 C851 1.334 . S
C851 H828 0.950 . S
C851 C850 1.334 . S
C851 C852 1.287 . S
C852 C851 1.287 . S
C852 C853 1.524 . S
C852 H871 0.913 . S
C853 H829 0.950 . S
C853 C852 1.524 . S
C853 C854 1.415 . S
C854 H830 0.950 . S
C854 C849 1.363 . S
C854 C853 1.415 . S
C855 H831 0.951 . S
C855 C856 1.366 . S
C855 C857 1.388 . S
C856 C855 1.366 . S
C856 C860 1.385 . S
C857 H832 0.951 . S
C857 C855 1.388 . S
C857 C858 1.366 . S
C858 C857 1.366 . S
C858 C859 1.414 . S
C858 C861 1.499 . S
C859 H833 0.950 . S
C859 C858 1.414 . S
C859 C860 1.374 . S
C860 H834 0.950 . S
C860 C856 1.385 . S
C860 C859 1.374 . S
C861 C858 1.499 . S
C861 C862 1.373 . S
C861 C863 1.389 . S
C862 H835 0.950 . S
C862 C848 1.377 . S
C862 C861 1.373 . S
C863 C847 1.377 . S
C863 C861 1.389 . S
C863 C864 1.524 . S
C864 C863 1.524 . S
C864 C865 1.397 . S
C864 C869 1.363 . S
C865 H836 0.950 . S
C865 C864 1.397 . S
C865 C866 1.334 . S
C866 H837 0.950 . S
C866 C865 1.334 . S
C866 C867 1.287 . S
C867 C866 1.287 . S
C867 C868 1.524 . S
C867 H870 0.999 . S
C868 H838 0.950 . S
C868 C867 1.524 . S
C868 C869 1.415 . S
C869 H839 0.950 . S
C869 C864 1.363 . S
C869 C868 1.415 . S
H870 C867 0.999 . S
H871 C852 0.913 . S
H872 C890 0.951 . S
H873 C892 0.951 . S
H874 C894 0.950 . S
H875 C895 0.950 . S
H876 C897 0.950 . S
H877 C900 0.950 . S
H878 C901 0.950 . S
H879 C903 0.950 . S
H880 C904 0.950 . S
H881 C905 0.951 . S
H882 C907 0.951 . S
H883 C909 0.950 . S
H884 C910 0.950 . S
H885 C912 0.950 . S
H886 C915 0.950 . S
H887 C916 0.950 1_556 S
H888 C918 0.950 . S
H889 C919 0.950 . S
C890 H872 0.951 . S
C890 C891 1.366 . S
C890 C892 1.388 . S
C891 C890 1.366 . S
C891 C895 1.385 . S
C892 H873 0.951 . S
C892 C890 1.388 . S
C892 C893 1.366 . S
C893 C892 1.366 . S
C893 C894 1.414 . S
C893 C896 1.499 . S
C894 H874 0.950 . S
C894 C893 1.414 . S
C894 C895 1.374 . S
C895 H875 0.950 . S
C895 C891 1.385 . S
C895 C894 1.374 . S
C896 C893 1.499 . S
C896 C897 1.373 . S
C896 C898 1.389 . S
C897 H876 0.950 . S
C897 C896 1.373 . S
C897 C913 1.377 . S
C898 C896 1.389 . S
C898 C899 1.524 . S
C898 C912 1.377 . S
C899 C898 1.524 . S
C899 C900 1.397 . S
C899 C904 1.363 . S
C900 H877 0.950 . S
C900 C899 1.397 . S
C900 C901 1.334 . S
C901 H878 0.950 . S
C901 C900 1.334 . S
C901 C902 1.287 . S
C902 C901 1.287 . S
C902 C903 1.524 . S
C902 H921 0.913 . S
C903 H879 0.950 . S
C903 C902 1.524 . S
C903 C904 1.415 . S
C904 H880 0.950 . S
C904 C899 1.363 . S
C904 C903 1.415 . S
C905 H881 0.951 . S
C905 C906 1.366 . S
C905 C907 1.388 . S
C906 C905 1.366 . S
C906 C910 1.385 . S
C907 H882 0.951 . S
C907 C905 1.388 . S
C907 C908 1.366 . S
C908 C907 1.366 . S
C908 C909 1.414 . S
C908 C911 1.499 . S
C909 H883 0.950 . S
C909 C908 1.414 . S
C909 C910 1.374 . S
C910 H884 0.950 . S
C910 C906 1.385 . S
C910 C909 1.374 . S
C911 C908 1.499 . S
C911 C912 1.373 . S
C911 C913 1.389 . S
C912 H885 0.950 . S
C912 C898 1.377 . S
C912 C911 1.373 . S
C913 C897 1.377 . S
C913 C911 1.389 . S
C913 C914 1.524 . S
C914 C913 1.524 . S
C914 C915 1.397 . S
C914 C919 1.363 . S
C915 H886 0.950 . S
C915 C914 1.397 . S
C915 C916 1.334 . S
C916 H887 0.950 1_554 S
C916 C915 1.334 . S
C916 C917 1.287 1_554 S
C917 C916 1.287 1_556 S
C917 C918 1.524 . S
C917 H920 0.999 . S
C918 H888 0.950 . S
C918 C917 1.524 . S
C918 C919 1.415 1_556 S
C919 H889 0.950 . S
C919 C914 1.363 . S
C919 C918 1.415 1_554 S
H920 C917 0.999 . S
H921 C902 0.913 . S
H922 C940 0.951 . S
H923 C942 0.951 . S
H924 C944 0.950 . S
H925 C945 0.950 . S
H926 C947 0.950 . S
H927 C950 0.950 . S
H928 C951 0.950 . S
H929 C953 0.952 . S
H930 C954 0.950 . S
H931 C955 0.951 . S
H932 C957 0.951 . S
H933 C959 0.950 . S
H934 C960 0.950 . S
H935 C962 0.950 . S
H936 C965 0.950 . S
H937 C966 0.950 . S
H938 C968 0.950 . S
H939 C969 0.950 . S
C940 H922 0.951 . S
C940 C941 1.366 . S
C940 C942 1.388 . S
C941 C940 1.366 . S
C941 C945 1.385 . S
C942 H923 0.951 . S
C942 C940 1.388 . S
C942 C943 1.366 . S
C943 C942 1.366 . S
C943 C944 1.414 . S
C943 C946 1.499 . S
C944 H924 0.950 . S
C944 C943 1.414 . S
C944 C945 1.374 . S
C945 H925 0.950 . S
C945 C941 1.385 . S
C945 C944 1.374 . S
C946 C943 1.499 . S
C946 C947 1.373 . S
C946 C948 1.389 . S
C947 H926 0.950 . S
C947 C946 1.373 . S
C947 C963 1.377 . S
C948 C946 1.389 . S
C948 C949 1.524 . S
C948 C962 1.377 . S
C949 C948 1.524 . S
C949 C950 1.397 . S
C949 C954 1.363 . S
C950 H927 0.950 . S
C950 C949 1.397 . S
C950 C951 1.334 . S
C951 H928 0.950 . S
C951 C950 1.334 . S
C951 C952 1.287 . S
C952 C951 1.287 . S
C952 C953 1.523 1_554 S
C952 H971 0.913 1_554 S
C953 H929 0.952 . S
C953 C952 1.523 1_556 S
C953 C954 1.413 1_556 S
C954 H930 0.950 . S
C954 C949 1.363 . S
C954 C953 1.413 1_554 S
C955 H931 0.951 . S
C955 C956 1.366 . S
C955 C957 1.388 . S
C956 C955 1.366 . S
C956 C960 1.385 . S
C957 H932 0.951 . S
C957 C955 1.388 . S
C957 C958 1.366 . S
C958 C957 1.366 . S
C958 C959 1.414 . S
C958 C961 1.499 . S
C959 H933 0.950 . S
C959 C958 1.414 . S
C959 C960 1.374 . S
C960 H934 0.950 . S
C960 C956 1.385 . S
C960 C959 1.374 . S
C961 C958 1.499 . S
C961 C962 1.373 . S
C961 C963 1.389 . S
C962 H935 0.950 . S
C962 C948 1.377 . S
C962 C961 1.373 . S
C963 C947 1.377 . S
C963 C961 1.389 . S
C963 C964 1.524 . S
C964 C963 1.524 . S
C964 C965 1.397 . S
C964 C969 1.363 . S
C965 H936 0.950 . S
C965 C964 1.397 . S
C965 C966 1.334 . S
C966 H937 0.950 . S
C966 C965 1.334 . S
C966 C967 1.287 . S
C967 C966 1.287 . S
C967 C968 1.524 . S
C967 H970 0.999 . S
C968 H938 0.950 . S
C968 C967 1.524 . S
C968 C969 1.415 . S
C969 H939 0.950 . S
C969 C964 1.363 . S
C969 C968 1.415 . S
H970 C967 0.999 . S
H971 C952 0.913 1_556 S
H972 C990 0.951 . S
H973 C992 0.951 . S
H974 C994 0.950 . S
H975 C995 0.950 . S
H976 C997 0.950 . S
H977 C1000 0.950 . S
H978 C1001 0.950 . S
H979 C1003 0.950 . S
H980 C1004 0.950 . S
H981 C1005 0.951 . S
H982 C1007 0.951 . S
H983 C1009 0.950 . S
H984 C1010 0.950 . S
H985 C1012 0.950 . S
H986 C1015 0.950 . S
H987 C1016 0.950 . S
H988 C1018 0.950 . S
H989 C1019 0.950 . S
C990 H972 0.951 . S
C990 C991 1.366 . S
C990 C992 1.388 . S
C991 C990 1.366 . S
C991 C995 1.385 . S
C992 H973 0.951 . S
C992 C990 1.388 . S
C992 C993 1.366 . S
C993 C992 1.366 . S
C993 C994 1.414 . S
C993 C996 1.499 . S
C994 H974 0.950 . S
C994 C993 1.414 . S
C994 C995 1.374 . S
C995 H975 0.950 . S
C995 C991 1.385 . S
C995 C994 1.374 . S
C996 C993 1.499 . S
C996 C997 1.373 . S
C996 C998 1.389 1_545 S
C997 H976 0.950 . S
C997 C996 1.373 . S
C997 C1013 1.377 1_545 S
C998 C996 1.389 1_565 S
C998 C999 1.524 1_565 S
C998 C1012 1.377 . S
C999 C998 1.524 1_545 S
C999 C1000 1.397 . S
C999 C1004 1.363 1_545 S
C1000 H977 0.950 . S
C1000 C999 1.397 . S
C1000 C1001 1.334 . S
C1001 H978 0.950 . S
C1001 C1000 1.334 . S
C1001 C1002 1.287 . S
C1002 C1001 1.287 . S
C1002 C1003 1.524 . S
C1002 H1021 0.913 . S
C1003 H979 0.950 . S
C1003 C1002 1.524 . S
C1003 C1004 1.415 1_545 S
C1004 H980 0.950 . S
C1004 C999 1.363 1_565 S
C1004 C1003 1.415 1_565 S
C1005 H981 0.951 . S
C1005 C1006 1.366 . S
C1005 C1007 1.388 . S
C1006 C1005 1.366 . S
C1006 C1010 1.385 . S
C1007 H982 0.951 . S
C1007 C1005 1.388 . S
C1007 C1008 1.366 . S
C1008 C1007 1.366 . S
C1008 C1009 1.414 . S
C1008 C1011 1.499 . S
C1009 H983 0.950 . S
C1009 C1008 1.414 . S
C1009 C1010 1.374 . S
C1010 H984 0.950 . S
C1010 C1006 1.385 . S
C1010 C1009 1.374 . S
C1011 C1008 1.499 . S
C1011 C1012 1.373 . S
C1011 C1013 1.389 . S
C1012 H985 0.950 . S
C1012 C998 1.377 . S
C1012 C1011 1.373 . S
C1013 C997 1.377 1_565 S
C1013 C1011 1.389 . S
C1013 C1014 1.524 . S
C1014 C1013 1.524 . S
C1014 C1015 1.397 . S
C1014 C1019 1.363 . S
C1015 H986 0.950 . S
C1015 C1014 1.397 . S
C1015 C1016 1.334 . S
C1016 H987 0.950 . S
C1016 C1015 1.334 . S
C1016 C1017 1.287 . S
C1017 C1016 1.287 . S
C1017 C1018 1.524 . S
C1017 H1020 0.999 . S
C1018 H988 0.950 . S
C1018 C1017 1.524 . S
C1018 C1019 1.415 . S
C1019 H989 0.950 . S
C1019 C1014 1.363 . S
C1019 C1018 1.415 . S
H1020 C1017 0.999 . S
H1021 C1002 0.913 . S
H1022 C1040 0.951 . S
H1023 C1042 0.951 . S
H1024 C1044 0.950 . S
H1025 C1045 0.950 . S
H1026 C1047 0.950 1_565 S
H1027 C1050 0.950 . S
H1028 C1051 0.950 . S
H1029 C1053 0.950 . S
H1030 C1054 0.950 . S
H1031 C1055 0.951 . S
H1032 C1057 0.951 . S
H1033 C1059 0.950 . S
H1034 C1060 0.950 . S
H1035 C1062 0.950 . S
H1036 C1065 0.950 . S
H1037 C1066 0.950 . S
H1038 C1068 0.950 . S
H1039 C1069 0.950 . S
C1040 H1022 0.951 . S
C1040 C1041 1.366 . S
C1040 C1042 1.388 . S
C1041 C1040 1.366 . S
C1041 C1045 1.385 . S
C1042 H1023 0.951 . S
C1042 C1040 1.388 . S
C1042 C1043 1.366 . S
C1043 C1042 1.366 . S
C1043 C1044 1.414 . S
C1043 C1046 1.499 . S
C1044 H1024 0.950 . S
C1044 C1043 1.414 . S
C1044 C1045 1.374 . S
C1045 H1025 0.950 . S
C1045 C1041 1.385 . S
C1045 C1044 1.374 . S
C1046 C1043 1.499 . S
C1046 C1047 1.373 1_565 S
C1046 C1048 1.389 . S
C1047 H1026 0.950 1_545 S
C1047 C1046 1.373 1_545 S
C1047 C1063 1.377 . S
C1048 C1046 1.389 . S
C1048 C1049 1.524 . S
C1048 C1062 1.377 1_565 S
C1049 C1048 1.524 . S
C1049 C1050 1.397 . S
C1049 C1054 1.363 . S
C1050 H1027 0.950 . S
C1050 C1049 1.397 . S
C1050 C1051 1.334 . S
C1051 H1028 0.950 . S
C1051 C1050 1.334 . S
C1051 C1052 1.287 . S
C1052 C1051 1.287 . S
C1052 C1053 1.524 . S
C1052 H1071 0.913 . S
C1053 H1029 0.950 . S
C1053 C1052 1.524 . S
C1053 C1054 1.415 . S
C1054 H1030 0.950 . S
C1054 C1049 1.363 . S
C1054 C1053 1.415 . S
C1055 H1031 0.951 . S
C1055 C1056 1.366 . S
C1055 C1057 1.388 . S
C1056 C1055 1.366 . S
C1056 C1060 1.385 . S
C1057 H1032 0.951 . S
C1057 C1055 1.388 . S
C1057 C1058 1.366 . S
C1058 C1057 1.366 . S
C1058 C1059 1.414 . S
C1058 C1061 1.499 . S
C1059 H1033 0.950 . S
C1059 C1058 1.414 . S
C1059 C1060 1.374 . S
C1060 H1034 0.950 . S
C1060 C1056 1.385 . S
C1060 C1059 1.374 . S
C1061 C1058 1.499 . S
C1061 C1062 1.373 . S
C1061 C1063 1.389 . S
C1062 H1035 0.950 . S
C1062 C1048 1.377 1_545 S
C1062 C1061 1.373 . S
C1063 C1047 1.377 . S
C1063 C1061 1.389 . S
C1063 C1064 1.524 . S
C1064 C1063 1.524 . S
C1064 C1065 1.397 . S
C1064 C1069 1.363 . S
C1065 H1036 0.950 . S
C1065 C1064 1.397 . S
C1065 C1066 1.334 . S
C1066 H1037 0.950 . S
C1066 C1065 1.334 . S
C1066 C1067 1.287 . S
C1067 C1066 1.287 . S
C1067 C1068 1.524 . S
C1067 H1070 0.999 . S
C1068 H1038 0.950 . S
C1068 C1067 1.524 . S
C1068 C1069 1.415 . S
C1069 H1039 0.950 . S
C1069 C1064 1.363 . S
C1069 C1068 1.415 . S
H1070 C1067 0.999 . S
H1071 C1052 0.913 . S
H1072 C1090 0.951 . S
H1073 C1092 0.951 . S
H1074 C1094 0.950 . S
H1075 C1095 0.950 . S
H1076 C1097 0.950 . S
H1077 C1100 0.950 . S
H1078 C1101 0.950 . S
H1079 C1103 0.950 . S
H1080 C1104 0.950 . S
H1081 C1105 0.951 . S
H1082 C1107 0.951 . S
H1083 C1109 0.950 . S
H1084 C1110 0.950 . S
H1085 C1112 0.950 . S
H1086 C1115 0.950 . S
H1087 C1116 0.950 . S
H1088 C1118 0.950 . S
H1089 C1119 0.950 . S
C1090 H1072 0.951 . S
C1090 C1091 1.366 . S
C1090 C1092 1.388 . S
C1091 C1090 1.366 . S
C1091 C1095 1.385 . S
C1092 H1073 0.951 . S
C1092 C1090 1.388 . S
C1092 C1093 1.366 . S
C1093 C1092 1.366 . S
C1093 C1094 1.414 . S
C1093 C1096 1.499 . S
C1094 H1074 0.950 . S
C1094 C1093 1.414 . S
C1094 C1095 1.374 . S
C1095 H1075 0.950 . S
C1095 C1091 1.385 . S
C1095 C1094 1.374 . S
C1096 C1093 1.499 . S
C1096 C1097 1.373 . S
C1096 C1098 1.389 . S
C1097 H1076 0.950 . S
C1097 C1096 1.373 . S
C1097 C1113 1.377 . S
C1098 C1096 1.389 . S
C1098 C1099 1.524 . S
C1098 C1112 1.377 . S
C1099 C1098 1.524 . S
C1099 C1100 1.397 . S
C1099 C1104 1.363 . S
C1100 H1077 0.950 . S
C1100 C1099 1.397 . S
C1100 C1101 1.334 . S
C1101 H1078 0.950 . S
C1101 C1100 1.334 . S
C1101 C1102 1.287 . S
C1102 C1101 1.287 . S
C1102 C1103 1.524 . S
C1102 H1121 0.913 . S
C1103 H1079 0.950 . S
C1103 C1102 1.524 . S
C1103 C1104 1.415 . S
C1104 H1080 0.950 . S
C1104 C1099 1.363 . S
C1104 C1103 1.415 . S
C1105 H1081 0.951 . S
C1105 C1106 1.366 . S
C1105 C1107 1.388 . S
C1106 C1105 1.366 . S
C1106 C1110 1.385 . S
C1107 H1082 0.951 . S
C1107 C1105 1.388 . S
C1107 C1108 1.366 . S
C1108 C1107 1.366 . S
C1108 C1109 1.414 . S
C1108 C1111 1.499 . S
C1109 H1083 0.950 . S
C1109 C1108 1.414 . S
C1109 C1110 1.374 . S
C1110 H1084 0.950 . S
C1110 C1106 1.385 . S
C1110 C1109 1.374 . S
C1111 C1108 1.499 . S
C1111 C1112 1.373 . S
C1111 C1113 1.389 . S
C1112 H1085 0.950 . S
C1112 C1098 1.377 . S
C1112 C1111 1.373 . S
C1113 C1097 1.377 . S
C1113 C1111 1.389 . S
C1113 C1114 1.524 . S
C1114 C1113 1.524 . S
C1114 C1115 1.397 . S
C1114 C1119 1.363 . S
C1115 H1086 0.950 . S
C1115 C1114 1.397 . S
C1115 C1116 1.334 . S
C1116 H1087 0.950 . S
C1116 C1115 1.334 . S
C1116 C1117 1.287 . S
C1117 C1116 1.287 . S
C1117 C1118 1.524 . S
C1117 H1120 0.999 . S
C1118 H1088 0.950 . S
C1118 C1117 1.524 . S
C1118 C1119 1.415 . S
C1119 H1089 0.950 . S
C1119 C1114 1.363 . S
C1119 C1118 1.415 . S
H1120 C1117 0.999 . S
H1121 C1102 0.913 . S
H1122 C1140 0.951 . S
H1123 C1142 0.951 . S
H1124 C1144 0.950 . S
H1125 C1145 0.950 . S
H1126 C1147 0.950 . S
H1127 C1150 0.950 . S
H1128 C1151 0.950 . S
H1129 C1153 0.950 . S
H1130 C1154 0.950 . S
H1131 C1155 0.951 . S
H1132 C1157 0.951 . S
H1133 C1159 0.950 . S
H1134 C1160 0.950 . S
H1135 C1162 0.950 . S
H1136 C1165 0.950 . S
H1137 C1166 0.950 . S
H1138 C1168 0.950 . S
H1139 C1169 0.950 . S
C1140 H1122 0.951 . S
C1140 C1141 1.366 . S
C1140 C1142 1.388 . S
C1141 C1140 1.366 . S
C1141 C1145 1.385 . S
C1142 H1123 0.951 . S
C1142 C1140 1.388 . S
C1142 C1143 1.366 . S
C1143 C1142 1.366 . S
C1143 C1144 1.414 . S
C1143 C1146 1.499 . S
C1144 H1124 0.950 . S
C1144 C1143 1.414 . S
C1144 C1145 1.374 . S
C1145 H1125 0.950 . S
C1145 C1141 1.385 . S
C1145 C1144 1.374 . S
C1146 C1143 1.499 . S
C1146 C1147 1.373 . S
C1146 C1148 1.389 . S
C1147 H1126 0.950 . S
C1147 C1146 1.373 . S
C1147 C1163 1.377 . S
C1148 C1146 1.389 . S
C1148 C1149 1.524 . S
C1148 C1162 1.377 . S
C1149 C1148 1.524 . S
C1149 C1150 1.397 . S
C1149 C1154 1.363 . S
C1150 H1127 0.950 . S
C1150 C1149 1.397 . S
C1150 C1151 1.334 . S
C1151 H1128 0.950 . S
C1151 C1150 1.334 . S
C1151 C1152 1.287 . S
C1152 C1151 1.287 . S
C1152 C1153 1.524 . S
C1152 H1171 0.913 . S
C1153 H1129 0.950 . S
C1153 C1152 1.524 . S
C1153 C1154 1.415 . S
C1154 H1130 0.950 . S
C1154 C1149 1.363 . S
C1154 C1153 1.415 . S
C1155 H1131 0.951 . S
C1155 C1156 1.366 . S
C1155 C1157 1.388 . S
C1156 C1155 1.366 . S
C1156 C1160 1.385 . S
C1157 H1132 0.951 . S
C1157 C1155 1.388 . S
C1157 C1158 1.366 . S
C1158 C1157 1.366 . S
C1158 C1159 1.414 . S
C1158 C1161 1.499 . S
C1159 H1133 0.950 . S
C1159 C1158 1.414 . S
C1159 C1160 1.374 . S
C1160 H1134 0.950 . S
C1160 C1156 1.385 . S
C1160 C1159 1.374 . S
C1161 C1158 1.499 . S
C1161 C1162 1.373 . S
C1161 C1163 1.389 . S
C1162 H1135 0.950 . S
C1162 C1148 1.377 . S
C1162 C1161 1.373 . S
C1163 C1147 1.377 . S
C1163 C1161 1.389 . S
C1163 C1164 1.524 . S
C1164 C1163 1.524 . S
C1164 C1165 1.397 . S
C1164 C1169 1.363 . S
C1165 H1136 0.950 . S
C1165 C1164 1.397 . S
C1165 C1166 1.334 . S
C1166 H1137 0.950 . S
C1166 C1165 1.334 . S
C1166 C1167 1.287 . S
C1167 C1166 1.287 . S
C1167 C1168 1.524 . S
C1167 H1170 0.999 . S
C1168 H1138 0.950 . S
C1168 C1167 1.524 . S
C1168 C1169 1.415 . S
C1169 H1139 0.950 . S
C1169 C1164 1.363 . S
C1169 C1168 1.415 . S
H1170 C1167 0.999 . S
H1171 C1152 0.913 . S
H1172 C1190 0.951 . S
H1173 C1192 0.951 . S
H1174 C1194 0.950 . S
H1175 C1195 0.950 . S
H1176 C1197 0.950 1_565 S
H1177 C1200 0.950 . S
H1178 C1201 0.950 . S
H1179 C1203 0.950 . S
H1180 C1204 0.950 . S
H1181 C1205 0.951 . S
H1182 C1207 0.951 . S
H1183 C1209 0.950 . S
H1184 C1210 0.950 . S
H1185 C1212 0.950 . S
H1186 C1215 0.950 . S
H1187 C1216 0.950 . S
H1188 C1218 0.950 . S
H1189 C1219 0.950 . S
C1190 H1172 0.951 . S
C1190 C1191 1.366 . S
C1190 C1192 1.388 . S
C1191 C1190 1.366 . S
C1191 C1195 1.385 . S
C1192 H1173 0.951 . S
C1192 C1190 1.388 . S
C1192 C1193 1.366 . S
C1193 C1192 1.366 . S
C1193 C1194 1.414 . S
C1193 C1196 1.499 . S
C1194 H1174 0.950 . S
C1194 C1193 1.414 . S
C1194 C1195 1.374 . S
C1195 H1175 0.950 . S
C1195 C1191 1.385 . S
C1195 C1194 1.374 . S
C1196 C1193 1.499 . S
C1196 C1197 1.373 1_565 S
C1196 C1198 1.389 . S
C1197 H1176 0.950 1_545 S
C1197 C1196 1.373 1_545 S
C1197 C1213 1.377 . S
C1198 C1196 1.389 . S
C1198 C1199 1.524 . S
C1198 C1212 1.377 1_565 S
C1199 C1198 1.524 . S
C1199 C1200 1.397 . S
C1199 C1204 1.363 . S
C1200 H1177 0.950 . S
C1200 C1199 1.397 . S
C1200 C1201 1.334 . S
C1201 H1178 0.950 . S
C1201 C1200 1.334 . S
C1201 C1202 1.287 . S
C1202 C1201 1.287 . S
C1202 C1203 1.524 . S
C1202 H1221 0.913 . S
C1203 H1179 0.950 . S
C1203 C1202 1.524 . S
C1203 C1204 1.415 . S
C1204 H1180 0.950 . S
C1204 C1199 1.363 . S
C1204 C1203 1.415 . S
C1205 H1181 0.951 . S
C1205 C1206 1.366 . S
C1205 C1207 1.388 . S
C1206 C1205 1.366 . S
C1206 C1210 1.385 . S
C1207 H1182 0.951 . S
C1207 C1205 1.388 . S
C1207 C1208 1.366 . S
C1208 C1207 1.366 . S
C1208 C1209 1.414 . S
C1208 C1211 1.499 . S
C1209 H1183 0.950 . S
C1209 C1208 1.414 . S
C1209 C1210 1.374 . S
C1210 H1184 0.950 . S
C1210 C1206 1.385 . S
C1210 C1209 1.374 . S
C1211 C1208 1.499 . S
C1211 C1212 1.373 . S
C1211 C1213 1.389 . S
C1212 H1185 0.950 . S
C1212 C1198 1.377 1_545 S
C1212 C1211 1.373 . S
C1213 C1197 1.377 . S
C1213 C1211 1.389 . S
C1213 C1214 1.524 . S
C1214 C1213 1.524 . S
C1214 C1215 1.397 . S
C1214 C1219 1.363 . S
C1215 H1186 0.950 . S
C1215 C1214 1.397 . S
C1215 C1216 1.334 . S
C1216 H1187 0.950 . S
C1216 C1215 1.334 . S
C1216 C1217 1.287 . S
C1217 C1216 1.287 . S
C1217 C1218 1.524 . S
C1217 H1220 0.999 . S
C1218 H1188 0.950 . S
C1218 C1217 1.524 . S
C1218 C1219 1.415 . S
C1219 H1189 0.950 . S
C1219 C1214 1.363 . S
C1219 C1218 1.415 . S
H1220 C1217 0.999 . S
H1221 C1202 0.913 . S
H1222 C1240 0.951 . S
H1223 C1242 0.951 . S
H1224 C1244 0.950 . S
H1225 C1245 0.950 . S
H1226 C1247 0.950 . S
H1227 C1250 0.950 . S
H1228 C1251 0.950 . S
H1229 C1253 0.950 . S
H1230 C1254 0.950 . S
H1231 C1255 0.951 . S
H1232 C1257 0.951 . S
H1233 C1259 0.950 . S
H1234 C1260 0.950 . S
H1235 C1262 0.950 . S
H1236 C1265 0.950 . S
H1237 C1266 0.950 . S
H1238 C1268 0.950 . S
H1239 C1269 0.950 1_565 S
C1240 H1222 0.951 . S
C1240 C1241 1.366 . S
C1240 C1242 1.388 . S
C1241 C1240 1.366 . S
C1241 C1245 1.385 . S
C1242 H1223 0.951 . S
C1242 C1240 1.388 . S
C1242 C1243 1.366 . S
C1243 C1242 1.366 . S
C1243 C1244 1.414 . S
C1243 C1246 1.499 . S
C1244 H1224 0.950 . S
C1244 C1243 1.414 . S
C1244 C1245 1.374 . S
C1245 H1225 0.950 . S
C1245 C1241 1.385 . S
C1245 C1244 1.374 . S
C1246 C1243 1.499 . S
C1246 C1247 1.373 . S
C1246 C1248 1.389 . S
C1247 H1226 0.950 . S
C1247 C1246 1.373 . S
C1247 C1263 1.377 . S
C1248 C1246 1.389 . S
C1248 C1249 1.524 . S
C1248 C1262 1.377 1_565 S
C1249 C1248 1.524 . S
C1249 C1250 1.397 . S
C1249 C1254 1.363 . S
C1250 H1227 0.950 . S
C1250 C1249 1.397 . S
C1250 C1251 1.334 . S
C1251 H1228 0.950 . S
C1251 C1250 1.334 . S
C1251 C1252 1.287 . S
C1252 C1251 1.287 . S
C1252 C1253 1.524 . S
C1252 H1271 0.913 . S
C1253 H1229 0.950 . S
C1253 C1252 1.524 . S
C1253 C1254 1.415 . S
C1254 H1230 0.950 . S
C1254 C1249 1.363 . S
C1254 C1253 1.415 . S
C1255 H1231 0.951 . S
C1255 C1256 1.366 . S
C1255 C1257 1.388 . S
C1256 C1255 1.366 . S
C1256 C1260 1.385 . S
C1257 H1232 0.951 . S
C1257 C1255 1.388 . S
C1257 C1258 1.366 . S
C1258 C1257 1.366 . S
C1258 C1259 1.414 . S
C1258 C1261 1.499 . S
C1259 H1233 0.950 . S
C1259 C1258 1.414 . S
C1259 C1260 1.374 . S
C1260 H1234 0.950 . S
C1260 C1256 1.385 . S
C1260 C1259 1.374 . S
C1261 C1258 1.499 . S
C1261 C1262 1.373 . S
C1261 C1263 1.389 1_545 S
C1262 H1235 0.950 . S
C1262 C1248 1.377 1_545 S
C1262 C1261 1.373 . S
C1263 C1247 1.377 . S
C1263 C1261 1.389 1_565 S
C1263 C1264 1.524 1_565 S
C1264 C1263 1.524 1_545 S
C1264 C1265 1.397 . S
C1264 C1269 1.363 . S
C1265 H1236 0.950 . S
C1265 C1264 1.397 . S
C1265 C1266 1.334 . S
C1266 H1237 0.950 . S
C1266 C1265 1.334 . S
C1266 C1267 1.287 . S
C1267 C1266 1.287 . S
C1267 C1268 1.524 . S
C1267 H1270 0.999 . S
C1268 H1238 0.950 . S
C1268 C1267 1.524 . S
C1268 C1269 1.415 . S
C1269 H1239 0.950 1_545 S
C1269 C1264 1.363 . S
C1269 C1268 1.415 . S
H1270 C1267 0.999 . S
H1271 C1252 0.913 . S
C291 C2 1.542 . S
C306 C36 1.542 . S
C341 C104 1.542 . S
C356 C70 1.542 . S
C391 C138 1.542 . S
C406 C172 1.542 . S
C441 C240 1.542 . S
C456 C206 1.543 . S
C491 C20 1.521 . S
C506 C156 1.521 . S
C541 C54 1.521 . S
C556 C190 1.521 . S
C591 C88 1.521 . S
C606 C224 1.521 . S
C641 C122 1.521 . S
C656 C258 1.521 . S
C691 C101 1.591 . S
C706 C33 1.591 . S
C741 C135 1.591 . S
C756 C67 1.591 . S
C791 C169 1.591 . S
C806 C237 1.591 . S
C841 C203 1.591 . S
C856 C271 1.591 . S
C891 C9 1.047 . S
C906 C5 1.065 . S
C941 C43 1.047 . S
C956 C39 1.065 . S
C991 C73 1.065 . S
C1006 C77 1.047 . S
C1041 C107 1.065 . S
C1056 C111 1.046 . S
C1091 C141 1.065 . S
C1106 C145 1.046 . S
C1141 C179 1.046 . S
C1156 C175 1.065 . S
C1191 C209 1.065 . S
C1206 C213 1.047 . S
C1241 C247 1.047 . S
C1256 C243 1.065 . S
