# Generated by pormake.
# Topology dei, (4)-cn, num edge types: 1
# Building blocks:
#     Node 0, Type 0, BuildingBlock: CEKHIL_clean_sbu_0, # of connection points: 4
#     Node 1, Type 0, BuildingBlock: CEKHIL_clean_sbu_0, # of connection points: 4
#     Node 2, Type 0, BuildingBlock: CEKHIL_clean_sbu_0, # of connection points: 4
#     Node 3, Type 0, BuildingBlock: CEKHIL_clean_sbu_0, # of connection points: 4
#     Node 4, Type 0, BuildingBlock: CEKHIL_clean_sbu_0, # of connection points: 4
#     Node 5, Type 0, BuildingBlock: CEKHIL_clean_sbu_0, # of connection points: 4
#     Node 6, Type 0, BuildingBlock: CEKHIL_clean_sbu_0, # of connection points: 4
#     Node 7, Type 0, BuildingBlock: CEKHIL_clean_sbu_0, # of connection points: 4
#     Node 8, Type 0, BuildingBlock: CEKHIL_clean_sbu_0, # of connection points: 4
#     Node 9, Type 0, BuildingBlock: CEKHIL_clean_sbu_0, # of connection points: 4
#     Node 10, Type 0, BuildingBlock: CEKHIL_clean_sbu_0, # of connection points: 4
#     Node 11, Type 0, BuildingBlock: CEKHIL_clean_sbu_0, # of connection points: 4
#     Node 12, Type 0, BuildingBlock: CEKHIL_clean_sbu_0, # of connection points: 4
#     Node 13, Type 0, BuildingBlock: CEKHIL_clean_sbu_0, # of connection points: 4
#     Node 14, Type 0, BuildingBlock: CEKHIL_clean_sbu_0, # of connection points: 4
#     Node 15, Type 0, BuildingBlock: CEKHIL_clean_sbu_0, # of connection points: 4
#     Node 16, Type 0, BuildingBlock: CEKHIL_clean_sbu_0, # of connection points: 4
#     Node 17, Type 0, BuildingBlock: CEKHIL_clean_sbu_0, # of connection points: 4
#     Node 18, Type 0, BuildingBlock: CEKHIL_clean_sbu_0, # of connection points: 4
#     Node 19, Type 0, BuildingBlock: CEKHIL_clean_sbu_0, # of connection points: 4
#     Node 20, Type 0, BuildingBlock: CEKHIL_clean_sbu_0, # of connection points: 4
#     Node 21, Type 0, BuildingBlock: CEKHIL_clean_sbu_0, # of connection points: 4
#     Node 22, Type 0, BuildingBlock: CEKHIL_clean_sbu_0, # of connection points: 4
#     Node 23, Type 0, BuildingBlock: CEKHIL_clean_sbu_0, # of connection points: 4
#     Node 24, Type 0, BuildingBlock: CEKHIL_clean_sbu_0, # of connection points: 4
#     Node 25, Type 0, BuildingBlock: CEKHIL_clean_sbu_0, # of connection points: 4
#     Node 26, Type 0, BuildingBlock: CEKHIL_clean_sbu_0, # of connection points: 4
#     Node 27, Type 0, BuildingBlock: CEKHIL_clean_sbu_0, # of connection points: 4
#     Node 28, Type 0, BuildingBlock: CEKHIL_clean_sbu_0, # of connection points: 4
#     Node 29, Type 0, BuildingBlock: CEKHIL_clean_sbu_0, # of connection points: 4
#     Node 30, Type 0, BuildingBlock: CEKHIL_clean_sbu_0, # of connection points: 4
#     Node 31, Type 0, BuildingBlock: CEKHIL_clean_sbu_0, # of connection points: 4
#     Edge 32, Type (0, 0), BuildingBlock: OJICUG_clean_linker_0, # of connection points: 2
#     Edge 33, Type (0, 0), BuildingBlock: OJICUG_clean_linker_0, # of connection points: 2
#     Edge 34, Type (0, 0), BuildingBlock: OJICUG_clean_linker_0, # of connection points: 2
#     Edge 35, Type (0, 0), BuildingBlock: OJICUG_clean_linker_0, # of connection points: 2
#     Edge 36, Type (0, 0), BuildingBlock: OJICUG_clean_linker_0, # of connection points: 2
#     Edge 37, Type (0, 0), BuildingBlock: OJICUG_clean_linker_0, # of connection points: 2
#     Edge 38, Type (0, 0), BuildingBlock: OJICUG_clean_linker_0, # of connection points: 2
#     Edge 39, Type (0, 0), BuildingBlock: OJICUG_clean_linker_0, # of connection points: 2
#     Edge 40, Type (0, 0), BuildingBlock: OJICUG_clean_linker_0, # of connection points: 2
#     Edge 41, Type (0, 0), BuildingBlock: OJICUG_clean_linker_0, # of connection points: 2
#     Edge 42, Type (0, 0), BuildingBlock: OJICUG_clean_linker_0, # of connection points: 2
#     Edge 43, Type (0, 0), BuildingBlock: OJICUG_clean_linker_0, # of connection points: 2
#     Edge 44, Type (0, 0), BuildingBlock: OJICUG_clean_linker_0, # of connection points: 2
#     Edge 45, Type (0, 0), BuildingBlock: OJICUG_clean_linker_0, # of connection points: 2
#     Edge 46, Type (0, 0), BuildingBlock: OJICUG_clean_linker_0, # of connection points: 2
#     Edge 47, Type (0, 0), BuildingBlock: OJICUG_clean_linker_0, # of connection points: 2
#     Edge 48, Type (0, 0), BuildingBlock: OJICUG_clean_linker_0, # of connection points: 2
#     Edge 49, Type (0, 0), BuildingBlock: OJICUG_clean_linker_0, # of connection points: 2
#     Edge 50, Type (0, 0), BuildingBlock: OJICUG_clean_linker_0, # of connection points: 2
#     Edge 51, Type (0, 0), BuildingBlock: OJICUG_clean_linker_0, # of connection points: 2
#     Edge 52, Type (0, 0), BuildingBlock: OJICUG_clean_linker_0, # of connection points: 2
#     Edge 53, Type (0, 0), BuildingBlock: OJICUG_clean_linker_0, # of connection points: 2
#     Edge 54, Type (0, 0), BuildingBlock: OJICUG_clean_linker_0, # of connection points: 2
#     Edge 55, Type (0, 0), BuildingBlock: OJICUG_clean_linker_0, # of connection points: 2
#     Edge 56, Type (0, 0), BuildingBlock: OJICUG_clean_linker_0, # of connection points: 2
#     Edge 57, Type (0, 0), BuildingBlock: OJICUG_clean_linker_0, # of connection points: 2
#     Edge 58, Type (0, 0), BuildingBlock: OJICUG_clean_linker_0, # of connection points: 2
#     Edge 59, Type (0, 0), BuildingBlock: OJICUG_clean_linker_0, # of connection points: 2
#     Edge 60, Type (0, 0), BuildingBlock: OJICUG_clean_linker_0, # of connection points: 2
#     Edge 61, Type (0, 0), BuildingBlock: OJICUG_clean_linker_0, # of connection points: 2
#     Edge 62, Type (0, 0), BuildingBlock: OJICUG_clean_linker_0, # of connection points: 2
#     Edge 63, Type (0, 0), BuildingBlock: OJICUG_clean_linker_0, # of connection points: 2
#     Edge 64, Type (0, 0), BuildingBlock: OJICUG_clean_linker_0, # of connection points: 2
#     Edge 65, Type (0, 0), BuildingBlock: OJICUG_clean_linker_0, # of connection points: 2
#     Edge 66, Type (0, 0), BuildingBlock: OJICUG_clean_linker_0, # of connection points: 2
#     Edge 67, Type (0, 0), BuildingBlock: OJICUG_clean_linker_0, # of connection points: 2
#     Edge 68, Type (0, 0), BuildingBlock: OJICUG_clean_linker_0, # of connection points: 2
#     Edge 69, Type (0, 0), BuildingBlock: OJICUG_clean_linker_0, # of connection points: 2
#     Edge 70, Type (0, 0), BuildingBlock: OJICUG_clean_linker_0, # of connection points: 2
#     Edge 71, Type (0, 0), BuildingBlock: OJICUG_clean_linker_0, # of connection points: 2
#     Edge 72, Type (0, 0), BuildingBlock: OJICUG_clean_linker_0, # of connection points: 2
#     Edge 73, Type (0, 0), BuildingBlock: OJICUG_clean_linker_0, # of connection points: 2
#     Edge 74, Type (0, 0), BuildingBlock: OJICUG_clean_linker_0, # of connection points: 2
#     Edge 75, Type (0, 0), BuildingBlock: OJICUG_clean_linker_0, # of connection points: 2
#     Edge 76, Type (0, 0), BuildingBlock: OJICUG_clean_linker_0, # of connection points: 2
#     Edge 77, Type (0, 0), BuildingBlock: OJICUG_clean_linker_0, # of connection points: 2
#     Edge 78, Type (0, 0), BuildingBlock: OJICUG_clean_linker_0, # of connection points: 2
#     Edge 79, Type (0, 0), BuildingBlock: OJICUG_clean_linker_0, # of connection points: 2
#     Edge 80, Type (0, 0), BuildingBlock: OJICUG_clean_linker_0, # of connection points: 2
#     Edge 81, Type (0, 0), BuildingBlock: OJICUG_clean_linker_0, # of connection points: 2
#     Edge 82, Type (0, 0), BuildingBlock: OJICUG_clean_linker_0, # of connection points: 2
#     Edge 83, Type (0, 0), BuildingBlock: OJICUG_clean_linker_0, # of connection points: 2
#     Edge 84, Type (0, 0), BuildingBlock: OJICUG_clean_linker_0, # of connection points: 2
#     Edge 85, Type (0, 0), BuildingBlock: OJICUG_clean_linker_0, # of connection points: 2
#     Edge 86, Type (0, 0), BuildingBlock: OJICUG_clean_linker_0, # of connection points: 2
#     Edge 87, Type (0, 0), BuildingBlock: OJICUG_clean_linker_0, # of connection points: 2
#     Edge 88, Type (0, 0), BuildingBlock: OJICUG_clean_linker_0, # of connection points: 2
#     Edge 89, Type (0, 0), BuildingBlock: OJICUG_clean_linker_0, # of connection points: 2
#     Edge 90, Type (0, 0), BuildingBlock: OJICUG_clean_linker_0, # of connection points: 2
#     Edge 91, Type (0, 0), BuildingBlock: OJICUG_clean_linker_0, # of connection points: 2
#     Edge 92, Type (0, 0), BuildingBlock: OJICUG_clean_linker_0, # of connection points: 2
#     Edge 93, Type (0, 0), BuildingBlock: OJICUG_clean_linker_0, # of connection points: 2
#     Edge 94, Type (0, 0), BuildingBlock: OJICUG_clean_linker_0, # of connection points: 2
#     Edge 95, Type (0, 0), BuildingBlock: OJICUG_clean_linker_0, # of connection points: 2
# Relax obj value: 0.238
# Max RMSD: 0.067
# Mean RMSD: 0.067
data_MOF--net-dei--node1-CEKHIL_clean_sbu_0--edge1-OJICUG_clean_linker_0
_symmetry_space_group_name_H-M    P1
_symmetry_Int_Tables_number       1
_symmetry_cell_setting            triclinic
loop_
_symmetry_equiv_pos_as_xyz
'x, y, z'
_cell_length_a     42.298925
_cell_length_b     42.301539
_cell_length_c     54.409592
_cell_angle_alpha  89.999606
_cell_angle_beta   89.996785
_cell_angle_gamma 89.999026
loop_
_atom_site_label
_atom_site_type_symbol
_atom_site_fract_x
_atom_site_fract_y
_atom_site_fract_z
_atom_type_partial_charge
Co0 Co 0.13107 0.62105 0.02733 0.0
O1 O 0.12272 0.57648 0.03031 0.0
O2 O 0.15414 0.59708 0.00221 0.0
C3 C 0.1382 0.6263 0.06818 0.0
O4 O 0.14568 0.66732 0.02018 0.0
Co5 Co 0.08819 0.6695 0.0549 0.0
O6 O 0.12439 0.69796 0.04979 0.0
C7 C 0.06671 0.63982 0.0082 0.0
C8 C 0.14176 0.57187 0.01213 0.0
C9 C 0.14341 0.69396 0.03196 0.0
O10 O 0.09335 0.6258 0.00484 0.0
O11 O 0.06008 0.65639 0.02721 0.0
O12 O 0.16157 0.61732 0.05434 0.0
O13 O 0.11169 0.63075 0.05714 0.0
Co14 Co 0.64311 0.87987 0.27693 0.0
O15 O 0.68766 0.87145 0.27995 0.0
O16 O 0.66713 0.9028 0.25176 0.0
C17 C 0.63782 0.88722 0.31774 0.0
O18 O 0.59688 0.89454 0.26973 0.0
Co19 Co 0.59461 0.83714 0.30459 0.0
O20 O 0.56619 0.87335 0.29937 0.0
C21 C 0.6242 0.81548 0.25789 0.0
C22 C 0.69231 0.89043 0.26174 0.0
C23 C 0.57024 0.89233 0.28152 0.0
O24 O 0.6383 0.84207 0.25452 0.0
O25 O 0.60762 0.80893 0.27692 0.0
O26 O 0.64687 0.91049 0.30383 0.0
O27 O 0.63336 0.86065 0.3068 0.0
Co28 Co 0.38324 0.39382 0.52685 0.0
O29 O 0.39163 0.43837 0.5299 0.0
O30 O 0.36022 0.41787 0.50174 0.0
C31 C 0.37601 0.38848 0.56767 0.0
O32 O 0.3686 0.34759 0.51963 0.0
Co33 Co 0.42606 0.34531 0.55442 0.0
O34 O 0.38985 0.31689 0.54923 0.0
C35 C 0.44761 0.375 0.50773 0.0
C36 C 0.37261 0.44304 0.51173 0.0
C37 C 0.37085 0.32094 0.53139 0.0
O38 O 0.42099 0.38908 0.50438 0.0
O39 O 0.45421 0.35841 0.52673 0.0
O40 O 0.35269 0.39752 0.55382 0.0
O41 O 0.40255 0.38405 0.55668 0.0
Co42 Co 0.87092 0.13319 0.77709 0.0
O43 O 0.82634 0.14149 0.7801 0.0
O44 O 0.84695 0.11014 0.75195 0.0
C45 C 0.87624 0.12597 0.81792 0.0
O46 O 0.9172 0.11866 0.76991 0.0
Co47 Co 0.91928 0.17616 0.80467 0.0
O48 O 0.94784 0.14006 0.79948 0.0
C49 C 0.88957 0.19761 0.75797 0.0
C50 C 0.82174 0.12248 0.76191 0.0
C51 C 0.94386 0.12102 0.78166 0.0
O52 O 0.8756 0.17095 0.75462 0.0
O53 O 0.90612 0.20427 0.77699 0.0
O54 O 0.86725 0.10263 0.80406 0.0
O55 O 0.88061 0.15252 0.80693 0.0
Co56 Co 0.13107 0.39339 0.96415 0.0
O57 O 0.12276 0.43797 0.96119 0.0
O58 O 0.1541 0.41732 0.98933 0.0
C59 C 0.13831 0.38815 0.92332 0.0
O60 O 0.14562 0.3471 0.97129 0.0
Co61 Co 0.08816 0.34505 0.93648 0.0
O62 O 0.12426 0.31649 0.94168 0.0
C63 C 0.06662 0.37471 0.98318 0.0
C64 C 0.14175 0.44255 0.97939 0.0
C65 C 0.14329 0.32046 0.95951 0.0
O66 O 0.09329 0.38865 0.98659 0.0
O67 O 0.05999 0.35821 0.96413 0.0
O68 O 0.16165 0.39712 0.9372 0.0
O69 O 0.11176 0.38373 0.93431 0.0
Co70 Co 0.87101 0.88006 0.21421 0.0
O71 O 0.82646 0.87169 0.2111 0.0
O72 O 0.84692 0.90302 0.23933 0.0
C73 C 0.87646 0.88739 0.17341 0.0
O74 O 0.91723 0.89469 0.22149 0.0
Co75 Co 0.91952 0.83721 0.1867 0.0
O76 O 0.948 0.87335 0.19197 0.0
C77 C 0.88967 0.81562 0.2333 0.0
C78 C 0.82177 0.89064 0.22931 0.0
C79 C 0.94392 0.8924 0.20977 0.0
O80 O 0.87567 0.84227 0.23664 0.0
O81 O 0.9063 0.80901 0.21432 0.0
O82 O 0.86738 0.91068 0.18729 0.0
O83 O 0.88084 0.86082 0.18436 0.0
Co84 Co 0.3831 0.62169 0.46419 0.0
O85 O 0.39145 0.57713 0.46113 0.0
O86 O 0.36014 0.59766 0.48935 0.0
C87 C 0.37577 0.62699 0.42338 0.0
O88 O 0.36853 0.66793 0.47143 0.0
Co89 Co 0.42589 0.67014 0.43659 0.0
O90 O 0.38969 0.69858 0.44177 0.0
C91 C 0.44754 0.64041 0.48323 0.0
C92 C 0.37248 0.57248 0.47935 0.0
C93 C 0.37074 0.69457 0.45964 0.0
O94 O 0.42092 0.62637 0.4866 0.0
O95 O 0.45411 0.65703 0.46423 0.0
O96 O 0.35247 0.61801 0.43729 0.0
O97 O 0.40235 0.63142 0.43433 0.0
Co98 Co 0.64325 0.13324 0.71397 0.0
O99 O 0.68783 0.14151 0.71099 0.0
O100 O 0.66717 0.11021 0.73915 0.0
C101 C 0.63799 0.12596 0.67315 0.0
O102 O 0.59694 0.11875 0.72112 0.0
Co103 Co 0.59495 0.17619 0.6863 0.0
O104 O 0.56638 0.1401 0.69149 0.0
C105 C 0.62461 0.1977 0.733 0.0
C106 C 0.6924 0.12252 0.7292 0.0
C107 C 0.57032 0.12109 0.70933 0.0
O108 O 0.63856 0.17103 0.7364 0.0
O109 O 0.6081 0.20434 0.71396 0.0
O110 O 0.64694 0.10263 0.68704 0.0
O111 O 0.63361 0.15253 0.68411 0.0
Co112 Co 0.88319 0.3931 0.964 0.0
O113 O 0.89151 0.43767 0.96095 0.0
O114 O 0.86015 0.41712 0.98912 0.0
C115 C 0.87596 0.38775 0.92318 0.0
O116 O 0.86863 0.34685 0.97123 0.0
Co117 Co 0.9261 0.34467 0.93645 0.0
O118 O 0.88997 0.31616 0.94165 0.0
C119 C 0.94761 0.37444 0.98311 0.0
C120 C 0.8725 0.44231 0.97914 0.0
C121 C 0.87094 0.32018 0.95948 0.0
O122 O 0.92095 0.38844 0.98646 0.0
O123 O 0.95424 0.35785 0.96411 0.0
O124 O 0.85262 0.39675 0.93704 0.0
O125 O 0.90251 0.38336 0.93417 0.0
Co126 Co 0.37094 0.13359 0.71391 0.0
O127 O 0.32637 0.14193 0.71092 0.0
O128 O 0.34696 0.1105 0.73902 0.0
C129 C 0.37624 0.12648 0.67308 0.0
O130 O 0.41721 0.11899 0.72108 0.0
Co131 Co 0.41937 0.17655 0.68638 0.0
O132 O 0.44789 0.14041 0.69154 0.0
C133 C 0.38964 0.19796 0.73309 0.0
C134 C 0.32175 0.12288 0.72909 0.0
C135 C 0.44387 0.12133 0.70933 0.0
O136 O 0.37566 0.1713 0.73643 0.0
O137 O 0.4062 0.20463 0.71408 0.0
O138 O 0.36724 0.10311 0.6869 0.0
O139 O 0.38066 0.15299 0.68411 0.0
Co140 Co 0.63087 0.62075 0.46391 0.0
O141 O 0.62244 0.57619 0.46096 0.0
O142 O 0.65395 0.59676 0.48903 0.0
C143 C 0.63795 0.62591 0.42306 0.0
O144 O 0.64554 0.667 0.47104 0.0
Co145 Co 0.58808 0.66925 0.43632 0.0
O146 O 0.62436 0.69762 0.44137 0.0
C147 C 0.56659 0.63972 0.4831 0.0
C148 C 0.64153 0.57157 0.47911 0.0
C149 C 0.64334 0.69362 0.45923 0.0
O150 O 0.59318 0.62559 0.48643 0.0
O151 O 0.55999 0.65629 0.46408 0.0
O152 O 0.66133 0.61693 0.43689 0.0
O153 O 0.61146 0.63043 0.43411 0.0
Co154 Co 0.14313 0.88041 0.21424 0.0
O155 O 0.18769 0.87202 0.21121 0.0
O156 O 0.16715 0.90335 0.23941 0.0
C157 C 0.13787 0.88777 0.17342 0.0
O158 O 0.09689 0.89501 0.22144 0.0
Co159 Co 0.09467 0.83768 0.18656 0.0
O160 O 0.06627 0.87392 0.19173 0.0
C161 C 0.12418 0.81605 0.23329 0.0
C162 C 0.19233 0.89099 0.22942 0.0
C163 C 0.07026 0.89283 0.20963 0.0
O164 O 0.13834 0.84261 0.23664 0.0
O165 O 0.10759 0.8095 0.21427 0.0
O166 O 0.14688 0.91105 0.18734 0.0
O167 O 0.13342 0.86119 0.18436 0.0
Co168 Co 0.88313 0.62083 0.02702 0.0
O169 O 0.89143 0.57625 0.03 0.0
O170 O 0.8602 0.5969 0.00178 0.0
C171 C 0.87571 0.62602 0.06783 0.0
O172 O 0.86861 0.66711 0.01985 0.0
Co173 Co 0.92588 0.66916 0.05481 0.0
O174 O 0.88972 0.69765 0.0496 0.0
C175 C 0.94762 0.63958 0.00813 0.0
C176 C 0.8725 0.57167 0.01175 0.0
C177 C 0.87082 0.69372 0.03169 0.0
O178 O 0.921 0.62558 0.00467 0.0
O179 O 0.95416 0.6561 0.02719 0.0
O180 O 0.85243 0.61707 0.05388 0.0
O181 O 0.9023 0.63046 0.05692 0.0
Co182 Co 0.14321 0.13338 0.77699 0.0
O183 O 0.18779 0.14171 0.77998 0.0
O184 O 0.16719 0.11037 0.75183 0.0
C185 C 0.13794 0.12612 0.81782 0.0
O186 O 0.09694 0.1188 0.76983 0.0
Co187 Co 0.09482 0.17627 0.80462 0.0
O188 O 0.0663 0.14015 0.79943 0.0
C189 C 0.12452 0.19781 0.75794 0.0
C190 C 0.19239 0.12273 0.76177 0.0
C191 C 0.07029 0.12112 0.7816 0.0
O192 O 0.13849 0.17116 0.75455 0.0
O193 O 0.10798 0.20444 0.77697 0.0
O194 O 0.14693 0.1028 0.80394 0.0
O195 O 0.13352 0.15268 0.80684 0.0
Co196 Co 0.63105 0.39297 0.52675 0.0
O197 O 0.62273 0.43753 0.5298 0.0
O198 O 0.6541 0.41698 0.50163 0.0
C199 C 0.63826 0.38762 0.56757 0.0
O200 O 0.64561 0.34671 0.51954 0.0
Co201 Co 0.58809 0.34457 0.55428 0.0
O202 O 0.6242 0.31603 0.54909 0.0
C203 C 0.56661 0.37438 0.50763 0.0
C204 C 0.64174 0.44217 0.51161 0.0
C205 C 0.64327 0.32005 0.53129 0.0
O206 O 0.59329 0.38832 0.50428 0.0
O207 O 0.55995 0.3578 0.52663 0.0
O208 O 0.6616 0.39662 0.55372 0.0
O209 O 0.61171 0.38324 0.55658 0.0
Co210 Co 0.37096 0.88043 0.27704 0.0
O211 O 0.3264 0.87213 0.2801 0.0
O212 O 0.34695 0.90338 0.25186 0.0
C213 C 0.37631 0.88785 0.31783 0.0
O214 O 0.41722 0.89494 0.26979 0.0
Co215 Co 0.41934 0.83759 0.30468 0.0
O216 O 0.44784 0.87374 0.29946 0.0
C217 C 0.38968 0.81598 0.25801 0.0
C218 C 0.32176 0.89107 0.26187 0.0
C219 C 0.44386 0.89269 0.28158 0.0
O220 O 0.37563 0.8426 0.25465 0.0
O221 O 0.40628 0.80939 0.27702 0.0
O222 O 0.36731 0.91112 0.3039 0.0
O223 O 0.38068 0.86124 0.30692 0.0
Co224 Co 0.63103 0.12076 0.52685 0.0
O225 O 0.62266 0.0762 0.52986 0.0
O226 O 0.65404 0.09676 0.50171 0.0
C227 C 0.63828 0.12604 0.56768 0.0
O228 O 0.64564 0.16701 0.51967 0.0
Co229 Co 0.58821 0.16922 0.55449 0.0
O230 O 0.6244 0.19767 0.5493 0.0
C231 C 0.56665 0.1396 0.50778 0.0
C232 C 0.64167 0.07157 0.51167 0.0
C233 C 0.64339 0.19366 0.53145 0.0
O234 O 0.59326 0.12553 0.50441 0.0
O235 O 0.56006 0.15615 0.52681 0.0
O236 O 0.6616 0.11703 0.55381 0.0
O237 O 0.61174 0.13049 0.55669 0.0
Co238 Co 0.14327 0.38125 0.77703 0.0
O239 O 0.18785 0.37296 0.78002 0.0
O240 O 0.16723 0.4043 0.75188 0.0
C241 C 0.13799 0.38848 0.81786 0.0
O242 O 0.09699 0.39578 0.76985 0.0
Co243 Co 0.0949 0.33833 0.80465 0.0
O244 O 0.06636 0.37445 0.79946 0.0
C245 C 0.12459 0.31683 0.75795 0.0
C246 C 0.19244 0.39196 0.76183 0.0
C247 C 0.07034 0.39346 0.78162 0.0
O248 O 0.13858 0.34348 0.75458 0.0
O249 O 0.10804 0.31019 0.77698 0.0
O250 O 0.14695 0.41182 0.80399 0.0
O251 O 0.13359 0.36193 0.80687 0.0
Co252 Co 0.8834 0.89308 0.02712 0.0
O253 O 0.89169 0.93765 0.0302 0.0
O254 O 0.86031 0.91712 0.00204 0.0
C255 C 0.87622 0.8876 0.06794 0.0
O256 O 0.86884 0.84683 0.01986 0.0
Co257 Co 0.92644 0.84465 0.05456 0.0
O258 O 0.89038 0.81606 0.04929 0.0
C259 C 0.94783 0.87456 0.00793 0.0
C260 C 0.87266 0.9423 0.01202 0.0
C261 C 0.87126 0.82013 0.03154 0.0
O262 O 0.92113 0.88849 0.00461 0.0
O263 O 0.95453 0.85797 0.02691 0.0
O264 O 0.85287 0.89665 0.05411 0.0
O265 O 0.90277 0.88328 0.05692 0.0
Co266 Co 0.3705 0.6328 0.27708 0.0
O267 O 0.32598 0.64142 0.28017 0.0
O268 O 0.34627 0.60975 0.25209 0.0
C269 C 0.3759 0.62582 0.31792 0.0
O270 O 0.41663 0.61789 0.26982 0.0
Co271 Co 0.41938 0.67544 0.3044 0.0
O272 O 0.44752 0.63899 0.29935 0.0
C273 C 0.38962 0.69695 0.25772 0.0
C274 C 0.32118 0.62231 0.26207 0.0
C275 C 0.44332 0.61997 0.28155 0.0
O276 O 0.37535 0.67042 0.25449 0.0
O277 O 0.40636 0.70351 0.27666 0.0
O278 O 0.36672 0.60244 0.30417 0.0
O279 O 0.38046 0.65225 0.30681 0.0
Co280 Co 0.631 0.89296 0.46403 0.0
O281 O 0.62273 0.93753 0.46096 0.0
O282 O 0.65413 0.91697 0.4891 0.0
C283 C 0.63813 0.88749 0.42321 0.0
O284 O 0.64553 0.84669 0.47124 0.0
Co285 Co 0.58785 0.84461 0.4366 0.0
O286 O 0.62391 0.816 0.44179 0.0
C287 C 0.56656 0.87453 0.48325 0.0
C288 C 0.64177 0.94217 0.47913 0.0
C289 C 0.64308 0.82001 0.45953 0.0
O290 O 0.59329 0.8884 0.48656 0.0
O291 O 0.5598 0.85797 0.46427 0.0
O292 O 0.66151 0.89652 0.43702 0.0
O293 O 0.6116 0.8832 0.43424 0.0
Co294 Co 0.37097 0.38137 0.71396 0.0
O295 O 0.32639 0.37308 0.71095 0.0
O296 O 0.34701 0.40441 0.73912 0.0
C297 C 0.37627 0.38863 0.67314 0.0
O298 O 0.41726 0.39589 0.72113 0.0
Co299 Co 0.4193 0.33841 0.68633 0.0
O300 O 0.44786 0.37452 0.69151 0.0
C301 C 0.3896 0.31693 0.73302 0.0
C302 C 0.3218 0.39208 0.72916 0.0
C303 C 0.4439 0.39355 0.70934 0.0
O304 O 0.37565 0.3436 0.7364 0.0
O305 O 0.40613 0.31027 0.714 0.0
O306 O 0.3673 0.41196 0.68701 0.0
O307 O 0.38065 0.36207 0.68411 0.0
Co308 Co 0.88328 0.12087 0.96421 0.0
O309 O 0.89161 0.0763 0.96122 0.0
O310 O 0.86026 0.0969 0.98937 0.0
C311 C 0.87603 0.12616 0.92339 0.0
O312 O 0.8687 0.16714 0.97138 0.0
Co313 Co 0.9262 0.16925 0.93659 0.0
O314 O 0.89006 0.19777 0.94179 0.0
C315 C 0.94771 0.13956 0.98328 0.0
C316 C 0.87262 0.07169 0.97942 0.0
C317 C 0.87102 0.19378 0.95961 0.0
O318 O 0.92105 0.12559 0.98666 0.0
O319 O 0.95435 0.1561 0.96425 0.0
O320 O 0.85271 0.11716 0.93726 0.0
O321 O 0.90259 0.13056 0.93437 0.0
Co322 Co 0.1425 0.63267 0.21448 0.0
O323 O 0.18705 0.64112 0.21154 0.0
O324 O 0.16649 0.60965 0.23963 0.0
C325 C 0.13733 0.62554 0.17364 0.0
O326 O 0.09625 0.61796 0.22159 0.0
Co327 Co 0.094 0.67546 0.18689 0.0
O328 O 0.06563 0.63918 0.19194 0.0
C329 C 0.1236 0.697 0.23361 0.0
C330 C 0.19168 0.62209 0.22971 0.0
C331 C 0.06964 0.62016 0.20976 0.0
O332 O 0.13766 0.67039 0.23697 0.0
O333 O 0.10703 0.7036 0.21459 0.0
O334 O 0.14634 0.60218 0.18748 0.0
O335 O 0.1328 0.65204 0.18467 0.0
Co336 Co 0.38325 0.89382 0.46411 0.0
O337 O 0.39161 0.93837 0.46103 0.0
O338 O 0.3602 0.91789 0.48919 0.0
C339 C 0.37606 0.88836 0.4233 0.0
O340 O 0.36863 0.8476 0.47137 0.0
Co341 Co 0.42618 0.8453 0.43663 0.0
O342 O 0.39002 0.81682 0.44188 0.0
C343 C 0.44764 0.87513 0.48327 0.0
C344 C 0.37258 0.94305 0.4792 0.0
C345 C 0.37095 0.82091 0.45967 0.0
O346 O 0.42099 0.88915 0.48661 0.0
O347 O 0.45429 0.85854 0.46428 0.0
O348 O 0.35272 0.89744 0.43713 0.0
O349 O 0.40259 0.88399 0.43431 0.0
Co350 Co 0.87034 0.63231 0.21413 0.0
O351 O 0.82578 0.64068 0.2111 0.0
O352 O 0.84631 0.60921 0.2392 0.0
C353 C 0.87567 0.62524 0.17329 0.0
O354 O 0.91659 0.61769 0.22132 0.0
Co355 Co 0.91885 0.67522 0.18662 0.0
O356 O 0.94729 0.63901 0.19175 0.0
C357 C 0.88913 0.69663 0.23334 0.0
C358 C 0.82113 0.62161 0.22925 0.0
C359 C 0.94325 0.61997 0.20957 0.0
O360 O 0.87507 0.67 0.23666 0.0
O361 O 0.90571 0.70328 0.21434 0.0
O362 O 0.86665 0.60185 0.18709 0.0
O363 O 0.8801 0.65173 0.18435 0.0
Co364 Co 0.13112 0.12106 0.96412 0.0
O365 O 0.12284 0.07648 0.96113 0.0
O366 O 0.15421 0.09711 0.98925 0.0
C367 C 0.1383 0.12637 0.92329 0.0
O368 O 0.14565 0.16735 0.97128 0.0
Co369 Co 0.08812 0.16941 0.93654 0.0
O370 O 0.12421 0.19799 0.94172 0.0
C371 C 0.0667 0.13968 0.98325 0.0
C372 C 0.14187 0.07189 0.97931 0.0
C373 C 0.14327 0.19401 0.95953 0.0
O374 O 0.09337 0.12574 0.9866 0.0
O375 O 0.06002 0.15621 0.96423 0.0
O376 O 0.16166 0.1174 0.93714 0.0
O377 O 0.11176 0.13074 0.9343 0.0
Co378 Co 0.64324 0.38106 0.71387 0.0
O379 O 0.68781 0.3727 0.71086 0.0
O380 O 0.66725 0.40413 0.73898 0.0
C381 C 0.63791 0.3882 0.67304 0.0
O382 O 0.59698 0.39568 0.72106 0.0
Co383 Co 0.59477 0.33814 0.68635 0.0
O384 O 0.56628 0.37431 0.69151 0.0
C385 C 0.62452 0.31669 0.73303 0.0
C386 C 0.69244 0.39173 0.72903 0.0
C387 C 0.57032 0.39337 0.70931 0.0
O388 O 0.63852 0.34334 0.73637 0.0
O389 O 0.60795 0.31004 0.71403 0.0
O390 O 0.64693 0.41156 0.68687 0.0
O391 O 0.63349 0.36169 0.68407 0.0
Co392 Co 0.38317 0.12168 0.52679 0.0
O393 O 0.39149 0.07712 0.52985 0.0
O394 O 0.36015 0.09767 0.50167 0.0
C395 C 0.37592 0.12705 0.56761 0.0
O396 O 0.3686 0.16793 0.51956 0.0
Co397 Co 0.42607 0.17013 0.55432 0.0
O398 O 0.38992 0.19862 0.54913 0.0
C399 C 0.44761 0.1403 0.5077 0.0
C400 C 0.3725 0.07248 0.51165 0.0
C401 C 0.37089 0.19459 0.53131 0.0
O402 O 0.42095 0.12633 0.50434 0.0
O403 O 0.45424 0.1569 0.52669 0.0
O404 O 0.35259 0.11804 0.55374 0.0
O405 O 0.40248 0.13144 0.55662 0.0
Co406 Co 0.64245 0.63207 0.27678 0.0
O407 O 0.687 0.64048 0.27981 0.0
O408 O 0.6665 0.60903 0.25168 0.0
C409 C 0.63714 0.62493 0.31761 0.0
O410 O 0.59621 0.61741 0.26958 0.0
Co411 Co 0.5939 0.67489 0.30429 0.0
O412 O 0.56555 0.6386 0.29922 0.0
C413 C 0.62364 0.69642 0.25762 0.0
C414 C 0.69167 0.62144 0.26165 0.0
C415 C 0.56958 0.6196 0.28138 0.0
O416 O 0.63771 0.6698 0.25429 0.0
O417 O 0.60702 0.70302 0.27661 0.0
O418 O 0.64617 0.60158 0.30378 0.0
O419 O 0.63267 0.65144 0.30657 0.0
Co420 Co 0.13116 0.89334 0.02713 0.0
O421 O 0.12288 0.93793 0.03014 0.0
O422 O 0.15428 0.91732 0.00202 0.0
C423 C 0.13829 0.88799 0.06796 0.0
O424 O 0.1457 0.84706 0.01997 0.0
Co425 Co 0.08805 0.84503 0.05466 0.0
O426 O 0.12411 0.81641 0.04947 0.0
C427 C 0.06673 0.87482 0.00796 0.0
C428 C 0.14192 0.94253 0.01196 0.0
C429 C 0.14325 0.8204 0.03171 0.0
O430 O 0.09345 0.88869 0.00461 0.0
O431 O 0.05999 0.85832 0.02699 0.0
O432 O 0.16167 0.89698 0.05414 0.0
O433 O 0.11176 0.88364 0.05693 0.0
Co434 Co 0.87098 0.381 0.77688 0.0
O435 O 0.82641 0.37268 0.77987 0.0
O436 O 0.84702 0.40406 0.75174 0.0
C437 C 0.87627 0.38819 0.81771 0.0
O438 O 0.91726 0.39559 0.76973 0.0
Co439 Co 0.91937 0.33806 0.80447 0.0
O440 O 0.94791 0.37419 0.7993 0.0
C441 C 0.88965 0.31658 0.75779 0.0
C442 C 0.82181 0.3917 0.76168 0.0
C443 C 0.94391 0.39325 0.78149 0.0
O444 O 0.8757 0.34325 0.75441 0.0
O445 O 0.90617 0.30993 0.77682 0.0
O446 O 0.86727 0.41154 0.80386 0.0
O447 O 0.88068 0.36166 0.8067 0.0
C448 C 0.15762 0.60435 0.13375 0.0
C449 C 0.13668 0.62402 0.14669 0.0
H450 H 0.17546 0.59055 0.09837 0.0
C451 C 0.11736 0.64513 0.13367 0.0
H452 H 0.17314 0.58828 0.14349 0.0
C453 C 0.11859 0.64633 0.10812 0.0
C454 C 0.13971 0.627 0.09513 0.0
H455 H 0.10123 0.66074 0.14325 0.0
H456 H 0.10299 0.66245 0.09852 0.0
C457 C 0.15938 0.60608 0.10809 0.0
C458 C 0.65952 0.90727 0.38325 0.0
C459 C 0.63973 0.88653 0.39626 0.0
H460 H 0.67352 0.92468 0.34779 0.0
C461 C 0.61866 0.86709 0.38332 0.0
H462 H 0.67557 0.92287 0.39292 0.0
C463 C 0.6176 0.86801 0.35776 0.0
C464 C 0.63703 0.88895 0.34468 0.0
H465 H 0.60297 0.8511 0.39298 0.0
H466 H 0.60151 0.85232 0.34821 0.0
C467 C 0.65792 0.90873 0.35757 0.0
C468 C 0.39646 0.36923 0.63317 0.0
C469 C 0.37709 0.39028 0.64619 0.0
H470 H 0.41103 0.35211 0.598 0.0
C471 C 0.35627 0.41008 0.63326 0.0
H472 H 0.4125 0.35353 0.64276 0.0
C473 C 0.35467 0.40851 0.60758 0.0
C474 C 0.37438 0.38764 0.59462 0.0
H475 H 0.34072 0.42611 0.64299 0.0
H476 H 0.33867 0.42412 0.59786 0.0
C477 C 0.3954 0.36819 0.60761 0.0
C478 C 0.8954 0.14643 0.88344 0.0
C479 C 0.87439 0.127 0.89644 0.0
H480 H 0.91249 0.16107 0.84828 0.0
C481 C 0.85465 0.10614 0.88349 0.0
H482 H 0.91105 0.1625 0.89304 0.0
C483 C 0.85624 0.10456 0.85781 0.0
C484 C 0.87706 0.12434 0.84487 0.0
H485 H 0.83865 0.09054 0.89322 0.0
H486 H 0.84067 0.08853 0.84809 0.0
C487 C 0.89645 0.14539 0.85788 0.0
C488 C 0.15967 0.40822 0.88343 0.0
C489 C 0.13994 0.38735 0.89638 0.0
H490 H 0.17361 0.42588 0.84802 0.0
C491 C 0.1189 0.36795 0.88337 0.0
H492 H 0.17569 0.4238 0.89315 0.0
C493 C 0.11781 0.36903 0.85781 0.0
C494 C 0.13719 0.3901 0.8448 0.0
H495 H 0.10325 0.35187 0.89297 0.0
H496 H 0.10175 0.35337 0.84821 0.0
C497 C 0.15805 0.40984 0.85775 0.0
C498 C 0.85485 0.90744 0.10788 0.0
C499 C 0.87461 0.88665 0.09488 0.0
H500 H 0.84086 0.9249 0.14333 0.0
C501 C 0.89564 0.86719 0.10784 0.0
H502 H 0.83883 0.92306 0.0982 0.0
C503 C 0.89668 0.86812 0.1334 0.0
C504 C 0.87728 0.88911 0.14646 0.0
H505 H 0.91131 0.85117 0.09819 0.0
H506 H 0.91274 0.85242 0.14297 0.0
C507 C 0.85644 0.90891 0.13356 0.0
C508 C 0.35426 0.60671 0.38361 0.0
C509 C 0.37412 0.62758 0.39644 0.0
H510 H 0.34015 0.58885 0.34831 0.0
C511 C 0.39524 0.64676 0.38331 0.0
H512 H 0.33816 0.5913 0.39343 0.0
C513 C 0.39628 0.64545 0.35776 0.0
C514 C 0.37676 0.62439 0.34487 0.0
H515 H 0.41099 0.66283 0.39281 0.0
H516 H 0.41242 0.66095 0.34806 0.0
C517 C 0.35582 0.60487 0.35794 0.0
C518 C 0.65801 0.10449 0.63328 0.0
C519 C 0.63719 0.1243 0.6462 0.0
H520 H 0.67561 0.09041 0.59789 0.0
C521 C 0.61784 0.14535 0.63317 0.0
H522 H 0.67355 0.08845 0.64302 0.0
C523 C 0.61891 0.14637 0.60761 0.0
C524 C 0.63992 0.1269 0.59462 0.0
H525 H 0.6018 0.16106 0.64275 0.0
H526 H 0.60328 0.16245 0.598 0.0
C527 C 0.65962 0.10604 0.6076 0.0
C528 C 0.85621 0.40949 0.85762 0.0
C529 C 0.87707 0.38978 0.84466 0.0
H530 H 0.83856 0.4234 0.89304 0.0
C531 C 0.89648 0.36873 0.85765 0.0
H532 H 0.84063 0.42552 0.84791 0.0
C533 C 0.8954 0.36761 0.88321 0.0
C534 C 0.87434 0.38698 0.89623 0.0
H535 H 0.91256 0.35309 0.84804 0.0
H536 H 0.91107 0.35154 0.8928 0.0
C537 C 0.85459 0.40784 0.8833 0.0
C538 C 0.39643 0.14602 0.63315 0.0
C539 C 0.37704 0.12493 0.64613 0.0
H540 H 0.41101 0.16325 0.59801 0.0
C541 C 0.35617 0.10524 0.63315 0.0
H542 H 0.41251 0.16164 0.64277 0.0
C543 C 0.35456 0.10692 0.60748 0.0
C544 C 0.3743 0.1278 0.59456 0.0
H545 H 0.3406 0.08918 0.64285 0.0
H546 H 0.33852 0.09137 0.59773 0.0
C547 C 0.39535 0.14716 0.60759 0.0
C548 C 0.65915 0.60561 0.38318 0.0
C549 C 0.63944 0.62652 0.39611 0.0
H550 H 0.67297 0.58777 0.34781 0.0
C551 C 0.61827 0.64577 0.38309 0.0
H552 H 0.67527 0.59014 0.39292 0.0
C553 C 0.61705 0.64451 0.35754 0.0
C554 C 0.63643 0.62342 0.34456 0.0
H555 H 0.60263 0.66188 0.39267 0.0
H556 H 0.60089 0.66007 0.34793 0.0
C557 C 0.6574 0.60382 0.35752 0.0
C558 C 0.11772 0.86852 0.1334 0.0
C559 C 0.13711 0.8895 0.14648 0.0
H560 H 0.10316 0.85157 0.09818 0.0
C561 C 0.15799 0.90929 0.13361 0.0
H562 H 0.10163 0.85282 0.14294 0.0
C563 C 0.15962 0.90781 0.10793 0.0
C564 C 0.13988 0.88704 0.0949 0.0
H565 H 0.17356 0.92527 0.14339 0.0
H566 H 0.17567 0.92343 0.09826 0.0
C567 C 0.11881 0.86758 0.10784 0.0
C568 C 0.89499 0.64603 0.10787 0.0
C569 C 0.87398 0.62671 0.09477 0.0
H570 H 0.91204 0.66043 0.14309 0.0
C571 C 0.85419 0.60579 0.10762 0.0
H572 H 0.91068 0.66214 0.09835 0.0
C573 C 0.85572 0.60405 0.1333 0.0
C574 C 0.87655 0.62372 0.14634 0.0
H575 H 0.83819 0.59027 0.09782 0.0
H576 H 0.84012 0.58799 0.14295 0.0
C577 C 0.89599 0.64483 0.13342 0.0
C578 C 0.15803 0.10476 0.8577 0.0
C579 C 0.13714 0.12449 0.84477 0.0
H580 H 0.1757 0.09079 0.89309 0.0
C581 C 0.11773 0.1455 0.85779 0.0
H582 H 0.17361 0.08875 0.84796 0.0
C583 C 0.11882 0.14656 0.88335 0.0
C584 C 0.1399 0.12718 0.89634 0.0
H585 H 0.10164 0.16115 0.8482 0.0
H586 H 0.10316 0.16262 0.89296 0.0
C587 C 0.15965 0.10635 0.88338 0.0
C588 C 0.65962 0.40775 0.60744 0.0
C589 C 0.63986 0.38688 0.59452 0.0
H590 H 0.67359 0.42547 0.64281 0.0
C591 C 0.61878 0.36756 0.60756 0.0
H592 H 0.67568 0.42327 0.59769 0.0
C593 C 0.61769 0.36871 0.63311 0.0
C594 C 0.63711 0.38976 0.64609 0.0
H595 H 0.6031 0.35148 0.59798 0.0
H596 H 0.60159 0.3531 0.64273 0.0
C597 C 0.658 0.40944 0.63311 0.0
C598 C 0.39646 0.86863 0.35787 0.0
C599 C 0.37711 0.88963 0.34477 0.0
H600 H 0.41103 0.85174 0.3931 0.0
C601 C 0.35631 0.90953 0.35764 0.0
H602 H 0.41248 0.85286 0.34834 0.0
C603 C 0.35472 0.90813 0.38332 0.0
C604 C 0.37442 0.88734 0.39636 0.0
H605 H 0.34078 0.92553 0.34784 0.0
H606 H 0.33874 0.92383 0.39297 0.0
C607 C 0.39541 0.86778 0.38343 0.0
C608 C 0.02381 0.60539 0.99419 0.0
C609 C 0.04013 0.63408 0.99149 0.0
H610 H 0.97852 0.5844 0.0007 0.0
C611 C 0.02364 0.6607 0.98299 0.0
H612 H 0.03611 0.58453 0.0007 0.0
C613 C 0.99065 0.66062 0.98299 0.0
C614 C 0.97427 0.63393 0.99147 0.0
H615 H 0.03582 0.68304 0.98068 0.0
H616 H 0.97839 0.68292 0.98067 0.0
C617 C 0.99071 0.60532 0.99418 0.0
C618 C 0.60289 0.73964 0.23252 0.0
C619 C 0.62947 0.72304 0.24097 0.0
H620 H 0.58076 0.78494 0.23034 0.0
C621 C 0.6582 0.73928 0.2437 0.0
H622 H 0.58052 0.72751 0.23017 0.0
C623 C 0.65834 0.77238 0.24381 0.0
C624 C 0.62976 0.7889 0.24116 0.0
H625 H 0.67904 0.72691 0.25018 0.0
H626 H 0.67929 0.78449 0.25036 0.0
C627 C 0.60304 0.77262 0.23262 0.0
C628 C 0.49046 0.35391 0.48243 0.0
C629 C 0.47418 0.38063 0.49099 0.0
H630 H 0.53552 0.33133 0.48007 0.0
C631 C 0.49072 0.40918 0.49372 0.0
H632 H 0.4781 0.33167 0.48009 0.0
C633 C 0.52382 0.40899 0.4937 0.0
C634 C 0.54004 0.38025 0.49095 0.0
H635 H 0.4786 0.43012 0.50028 0.0
H636 H 0.53618 0.4298 0.50024 0.0
C637 C 0.52344 0.35372 0.48242 0.0
C638 C 0.91049 0.27353 0.73258 0.0
C639 C 0.88387 0.29 0.7411 0.0
H640 H 0.93281 0.22832 0.73033 0.0
C641 C 0.85522 0.27364 0.74386 0.0
H642 H 0.93281 0.28575 0.73021 0.0
C643 C 0.85521 0.24054 0.74393 0.0
C644 C 0.88385 0.22415 0.74123 0.0
H645 H 0.83435 0.28591 0.75038 0.0
H646 H 0.83433 0.22833 0.7505 0.0
C647 C 0.91049 0.24055 0.73265 0.0
C648 C 0.99048 0.40892 -0.00291 0.0
C649 C 0.97417 0.38023 -0.00019 0.0
H650 H 0.03577 0.42992 0.99059 0.0
C651 C 0.99067 0.35364 0.00837 0.0
H652 H 0.97819 0.42976 0.99054 0.0
C653 C 0.02365 0.35374 0.00841 0.0
C654 C 0.04004 0.38041 -0.00011 0.0
H655 H 0.9785 0.3313 0.0107 0.0
H656 H 0.03593 0.33145 0.01077 0.0
C657 C 0.02359 0.40901 -0.00286 0.0
C658 C 0.91035 0.77249 0.25854 0.0
C659 C 0.8838 0.78903 0.24997 0.0
H660 H 0.93243 0.72719 0.261 0.0
C661 C 0.85507 0.77279 0.24725 0.0
H662 H 0.93272 0.78461 0.26087 0.0
C663 C 0.85491 0.73969 0.24732 0.0
C664 C 0.88347 0.72318 0.25009 0.0
H665 H 0.83426 0.78513 0.24068 0.0
H666 H 0.83397 0.72755 0.24077 0.0
C667 C 0.91017 0.73951 0.25863 0.0
C668 C 0.49077 0.66114 0.50834 0.0
C669 C 0.47417 0.63458 0.49986 0.0
H670 H 0.5361 0.68319 0.51066 0.0
C671 C 0.49038 0.60582 0.49718 0.0
H672 H 0.47867 0.68353 0.51065 0.0
C673 C 0.52348 0.60562 0.49718 0.0
C674 C 0.54003 0.63418 0.49986 0.0
H675 H 0.478 0.585 0.49069 0.0
H676 H 0.53559 0.58465 0.49067 0.0
C677 C 0.52375 0.66093 0.50836 0.0
C678 C 0.65896 0.24067 0.74699 0.0
C679 C 0.63032 0.22427 0.74972 0.0
H680 H 0.67983 0.28601 0.74047 0.0
C681 C 0.60368 0.24069 0.75826 0.0
H682 H 0.67984 0.22843 0.74044 0.0
C683 C 0.60367 0.27367 0.75828 0.0
C684 C 0.63029 0.29013 0.74975 0.0
H685 H 0.58137 0.22845 0.7606 0.0
H686 H 0.58134 0.28588 0.76063 0.0
C687 C 0.65895 0.27377 0.74701 0.0
C688 C 0.41049 0.27396 0.7583 0.0
C689 C 0.38385 0.29037 0.74974 0.0
H690 H 0.43283 0.22878 0.7607 0.0
C691 C 0.35521 0.27397 0.74703 0.0
H692 H 0.4328 0.2862 0.76064 0.0
C693 C 0.35523 0.24087 0.74707 0.0
C694 C 0.38388 0.22451 0.74981 0.0
H695 H 0.33433 0.2862 0.74047 0.0
H696 H 0.33435 0.22862 0.74053 0.0
C697 C 0.4105 0.24098 0.75835 0.0
C698 C 0.15811 0.73983 0.24758 0.0
C699 C 0.12937 0.72362 0.25027 0.0
H700 H 0.17926 0.78502 0.24093 0.0
C701 C 0.10277 0.74024 0.25867 0.0
H702 H 0.17896 0.72744 0.24115 0.0
C703 C 0.10294 0.77322 0.25855 0.0
C704 C 0.1297 0.78947 0.25004 0.0
H705 H 0.08038 0.72814 0.26099 0.0
H706 H 0.08067 0.78556 0.26079 0.0
C707 C 0.15828 0.77293 0.24746 0.0
C708 C 0.10364 0.24085 0.73272 0.0
C709 C 0.13027 0.2244 0.74124 0.0
H710 H 0.08134 0.28605 0.73037 0.0
C711 C 0.15893 0.24076 0.74396 0.0
H712 H 0.08132 0.22863 0.73039 0.0
C713 C 0.15894 0.27386 0.74396 0.0
C714 C 0.1303 0.29026 0.74124 0.0
H715 H 0.1798 0.22851 0.7505 0.0
H716 H 0.17984 0.28609 0.7505 0.0
C717 C 0.10366 0.27383 0.73271 0.0
C718 C 0.41058 0.74001 0.23259 0.0
C719 C 0.38392 0.72355 0.24103 0.0
H720 H 0.43298 0.78519 0.23047 0.0
C721 C 0.35528 0.73995 0.24378 0.0
H722 H 0.43289 0.72777 0.23022 0.0
C723 C 0.35532 0.77305 0.24392 0.0
C724 C 0.384 0.78941 0.24129 0.0
H725 H 0.33437 0.72769 0.25024 0.0
H726 H 0.33444 0.78527 0.25048 0.0
C727 C 0.41063 0.77299 0.23274 0.0
C728 C 0.49082 0.16095 0.48252 0.0
C729 C 0.47421 0.13442 0.49104 0.0
H730 H 0.53615 0.18299 0.48017 0.0
C731 C 0.49042 0.10567 0.49377 0.0
H732 H 0.47872 0.18334 0.48018 0.0
C733 C 0.52352 0.10547 0.49377 0.0
C734 C 0.54007 0.13401 0.49105 0.0
H735 H 0.47804 0.08487 0.5003 0.0
H736 H 0.53562 0.08451 0.50032 0.0
C737 C 0.5238 0.16074 0.4825 0.0
C738 C 0.99067 0.90911 0.99401 0.0
C739 C 0.97436 0.88043 0.99121 0.0
H740 H 0.03594 0.93008 0.00061 0.0
C741 C 0.99087 0.85388 0.9826 0.0
H742 H 0.97836 0.92992 0.0006 0.0
C743 C 0.02385 0.85397 0.98259 0.0
C744 C 0.04022 0.8806 0.99121 0.0
H745 H 0.9787 0.83155 0.9802 0.0
H746 H 0.03613 0.83169 0.98019 0.0
C747 C 0.02377 0.9092 0.994 0.0
C748 C 0.49049 0.85417 0.50862 0.0
C749 C 0.47419 0.88085 0.50001 0.0
H750 H 0.53556 0.8316 0.51099 0.0
C751 C 0.49072 0.90939 0.4972 0.0
H752 H 0.47813 0.83193 0.51104 0.0
C753 C 0.52382 0.90921 0.49719 0.0
C754 C 0.54005 0.88048 0.49998 0.0
H755 H 0.47859 0.9303 0.49061 0.0
H756 H 0.53617 0.92999 0.49058 0.0
C757 C 0.52347 0.85398 0.5086 0.0
C758 C 0.0238 0.10525 -0.00275 0.0
C759 C 0.04015 0.13392 -2e-05 0.0
H760 H 0.97849 0.08432 0.99071 0.0
C761 C 0.02368 0.16053 0.00852 0.0
H762 H 0.03607 0.08439 0.9907 0.0
C763 C 0.99069 0.16049 0.00853 0.0
C764 C 0.97428 0.13384 -1e-05 0.0
H765 H 0.03588 0.18286 0.01086 0.0
H766 H 0.97845 0.18279 0.01088 0.0
C767 C 0.9907 0.10521 -0.00274 0.0
C768 C 0.1486 0.50021 0.97076 0.0
C769 C 0.14787 0.47527 0.98796 0.0
H770 H 0.14836 0.5505 0.96487 0.0
C771 C 0.14898 0.48256 0.01306 0.0
H772 H 0.14774 0.49521 0.95124 0.0
C773 C 0.14849 0.5142 0.02079 0.0
C774 C 0.14787 0.53914 0.00359 0.0
H775 H 0.14817 0.4639 0.02668 0.0
H776 H 0.14755 0.5192 0.04031 0.0
C777 C 0.14909 0.53185 0.97849 0.0
C778 C 0.76413 0.89735 0.22053 0.0
C779 C 0.789 0.89669 0.23779 0.0
H780 H 0.71385 0.89701 0.21452 0.0
C781 C 0.78161 0.89778 0.26287 0.0
H782 H 0.7692 0.8965 0.20102 0.0
C783 C 0.74994 0.89723 0.27053 0.0
C784 C 0.72507 0.89655 0.25327 0.0
H785 H 0.80021 0.89702 0.27654 0.0
H786 H 0.74487 0.89629 0.29004 0.0
C787 C 0.73245 0.89778 0.22819 0.0
C788 C 0.36519 0.4832 0.4782 0.0
C789 C 0.36646 0.4758 0.50328 0.0
H790 H 0.36647 0.51995 0.45105 0.0
C791 C 0.36584 0.50065 0.52055 0.0
H792 H 0.36591 0.4646 0.46453 0.0
C793 C 0.36531 0.53233 0.51291 0.0
C794 C 0.36638 0.53973 0.48782 0.0
H795 H 0.36682 0.49557 0.54005 0.0
H796 H 0.36613 0.55093 0.52658 0.0
C797 C 0.36564 0.51487 0.47055 0.0
C798 C 0.7817 0.11515 0.72828 0.0
C799 C 0.789 0.11636 0.75338 0.0
H800 H 0.74506 0.11651 0.70103 0.0
C801 C 0.76407 0.11574 0.77058 0.0
H802 H 0.80036 0.11587 0.71465 0.0
C803 C 0.73242 0.11526 0.76286 0.0
C804 C 0.72513 0.11638 0.73776 0.0
H805 H 0.76907 0.11668 0.7901 0.0
H806 H 0.71377 0.11607 0.77648 0.0
C807 C 0.75006 0.11564 0.72055 0.0
C808 C 0.86558 0.51404 0.02043 0.0
C809 C 0.86638 0.53895 0.00321 0.0
H810 H 0.86577 0.46375 0.02637 0.0
C811 C 0.86534 0.53162 0.97811 0.0
H812 H 0.86639 0.51907 0.03995 0.0
C813 C 0.86583 0.49997 0.97041 0.0
C814 C 0.86639 0.47506 0.98764 0.0
H815 H 0.8662 0.55026 0.96447 0.0
H816 H 0.86682 0.49494 0.9509 0.0
C817 C 0.8651 0.48239 0.01273 0.0
C818 C 0.25005 0.11591 0.77043 0.0
C819 C 0.22513 0.11664 0.75322 0.0
H820 H 0.30035 0.11617 0.77634 0.0
C821 C 0.23244 0.1156 0.72812 0.0
H822 H 0.24504 0.11673 0.78995 0.0
C823 C 0.26409 0.11613 0.7204 0.0
C824 C 0.28901 0.11674 0.73761 0.0
H825 H 0.21379 0.11642 0.71449 0.0
H826 H 0.2691 0.11712 0.70088 0.0
C827 C 0.2817 0.11546 0.76271 0.0
C828 C 0.64888 0.48228 0.47801 0.0
C829 C 0.64784 0.47492 0.5031 0.0
H830 H 0.64733 0.51899 0.45083 0.0
C831 C 0.64858 0.4998 0.52035 0.0
H832 H 0.64806 0.46366 0.46436 0.0
C833 C 0.649 0.53146 0.51267 0.0
C834 C 0.64771 0.53882 0.48758 0.0
H835 H 0.64777 0.49474 0.53986 0.0
H836 H 0.64828 0.55008 0.52633 0.0
C837 C 0.64833 0.51394 0.47034 0.0
C838 C 0.23247 0.89836 0.26297 0.0
C839 C 0.22509 0.89712 0.23789 0.0
H840 H 0.2692 0.89706 0.29015 0.0
C841 C 0.24997 0.89774 0.22063 0.0
H842 H 0.21385 0.89764 0.27664 0.0
C843 C 0.28163 0.89826 0.2283 0.0
C844 C 0.28901 0.89717 0.25338 0.0
H845 H 0.2449 0.89679 0.20113 0.0
H846 H 0.30024 0.89745 0.21463 0.0
C847 C 0.26414 0.8979 0.27064 0.0
C848 C 0.64902 0.03147 0.47808 0.0
C849 C 0.64781 0.03882 0.50317 0.0
H850 H 0.6477 0.99477 0.45088 0.0
C851 C 0.64848 0.01393 0.5204 0.0
H852 H 0.64826 0.0501 0.46443 0.0
C853 C 0.64902 0.98227 0.51272 0.0
C854 C 0.64789 0.97492 0.48763 0.0
H855 H 0.64755 0.01897 0.53992 0.0
H856 H 0.64824 0.96365 0.52637 0.0
C857 C 0.64857 0.99981 0.47039 0.0
C858 C 0.23249 0.39935 0.72821 0.0
C859 C 0.22518 0.39812 0.7533 0.0
H860 H 0.26915 0.39803 0.70097 0.0
C861 C 0.2501 0.39877 0.77052 0.0
H862 H 0.21384 0.3986 0.71457 0.0
C863 C 0.28175 0.3993 0.7628 0.0
C864 C 0.28906 0.39819 0.7377 0.0
H865 H 0.24509 0.39783 0.79003 0.0
H866 H 0.3004 0.39851 0.77643 0.0
C867 C 0.26414 0.39889 0.72049 0.0
C868 C 0.86527 0.98239 0.97844 0.0
C869 C 0.86654 0.97506 0.00353 0.0
H870 H 0.86655 0.01908 0.95122 0.0
C871 C 0.86597 0.99997 0.02076 0.0
H872 H 0.86596 0.96376 0.96479 0.0
C873 C 0.86546 0.03162 0.01306 0.0
C874 C 0.86651 0.03895 0.98796 0.0
H875 H 0.86696 0.99494 0.04027 0.0
H876 H 0.8663 0.05026 0.0267 0.0
C877 C 0.86574 0.01405 0.97074 0.0
C878 C 0.26351 0.616 0.27097 0.0
C879 C 0.28836 0.61623 0.25369 0.0
H880 H 0.21323 0.61654 0.277 0.0
C881 C 0.28095 0.61453 0.22863 0.0
H882 H 0.2686 0.61731 0.29046 0.0
C883 C 0.24927 0.61492 0.22098 0.0
C884 C 0.22442 0.61602 0.23824 0.0
H885 H 0.29954 0.61493 0.21494 0.0
H886 H 0.24417 0.61542 0.20147 0.0
C887 C 0.23183 0.61541 0.26333 0.0
C888 C 0.36535 0.03236 0.47807 0.0
C889 C 0.36639 0.03973 0.50316 0.0
H890 H 0.36686 0.99563 0.4509 0.0
C891 C 0.36563 0.01486 0.52041 0.0
H892 H 0.36619 0.05097 0.46441 0.0
C893 C 0.36517 0.98319 0.51274 0.0
C894 C 0.36646 0.97582 0.48766 0.0
H895 H 0.36644 0.01992 0.53992 0.0
H896 H 0.36586 0.96458 0.52641 0.0
C897 C 0.36587 1.00069 0.4704 0.0
C898 C 0.7493 0.61467 0.27044 0.0
C899 C 0.72444 0.61534 0.25317 0.0
H900 H 0.79957 0.61499 0.27646 0.0
C901 C 0.73184 0.61422 0.22809 0.0
H902 H 0.74421 0.61554 0.28995 0.0
C903 C 0.76351 0.61476 0.22044 0.0
C904 C 0.78837 0.61544 0.23771 0.0
H905 H 0.71323 0.615 0.21442 0.0
H906 H 0.76859 0.6157 0.20093 0.0
C907 C 0.78097 0.61422 0.26279 0.0
C908 C 0.14872 1.00018 0.02065 0.0
C909 C 0.14806 0.97527 0.00343 0.0
H910 H 0.14841 0.05048 0.02657 0.0
C911 C 0.14921 0.98259 0.97834 0.0
H912 H 0.14782 0.99517 0.04017 0.0
C913 C 0.1487 0.01424 0.97062 0.0
C914 C 0.14802 0.03915 0.98784 0.0
H915 H 0.14845 0.96394 0.9647 0.0
H916 H 0.14779 0.01925 0.95111 0.0
C917 C 0.14919 0.03184 0.01294 0.0
C918 C 0.78176 0.39895 0.72805 0.0
C919 C 0.78907 0.39783 0.75315 0.0
H920 H 0.74509 0.39753 0.70082 0.0
C921 C 0.76415 0.39854 0.77036 0.0
H922 H 0.8004 0.39814 0.71441 0.0
C923 C 0.7325 0.39905 0.76265 0.0
C924 C 0.72519 0.39784 0.73755 0.0
H925 H 0.76917 0.39767 0.78988 0.0
H926 H 0.71386 0.39832 0.77628 0.0
C927 C 0.7501 0.39846 0.72033 0.0
C928 C 0.14429 0.77377 0.00388 0.0
C929 C 0.15858 0.79077 0.02315 0.0
H930 H 0.12932 0.72815 0.99094 0.0
C931 C 0.17695 0.77384 0.04022 0.0
H932 H 0.12926 0.78596 0.99083 0.0
C933 C 0.17697 0.74066 0.04029 0.0
C934 C 0.15864 0.72359 0.02329 0.0
H935 H 0.18765 0.78611 0.0556 0.0
H936 H 0.1877 0.72852 0.05572 0.0
C937 C 0.14433 0.74044 0.00394 0.0
C938 C 0.52369 0.89333 0.2536 0.0
C939 C 0.54066 0.90767 0.27287 0.0
H940 H 0.47808 0.87839 0.24063 0.0
C941 C 0.52373 0.92616 0.28985 0.0
H942 H 0.5359 0.87823 0.24061 0.0
C943 C 0.49055 0.92626 0.28986 0.0
C944 C 0.4735 0.90787 0.27289 0.0
H945 H 0.53597 0.93691 0.30522 0.0
H946 H 0.47839 0.93708 0.30524 0.0
C947 C 0.49037 0.89343 0.25361 0.0
C948 C 0.33716 0.24115 0.53967 0.0
C949 C 0.35559 0.22419 0.52266 0.0
H950 H 0.32638 0.2865 0.55509 0.0
C951 C 0.36994 0.24114 0.50339 0.0
H952 H 0.3264 0.22892 0.55504 0.0
C953 C 0.36993 0.27446 0.50341 0.0
C954 C 0.35556 0.29135 0.52271 0.0
H955 H 0.38501 0.22891 0.49038 0.0
H956 H 0.38498 0.28673 0.49042 0.0
C957 C 0.33715 0.27433 0.53969 0.0
C958 C 0.99039 0.12013 0.75372 0.0
C959 C 0.97349 0.10577 0.77302 0.0
H960 H 0.03593 0.13521 0.74068 0.0
C961 C 0.99052 0.08741 0.79003 0.0
H962 H 0.97811 0.13515 0.74072 0.0
C963 C 0.02371 0.08743 0.79001 0.0
C964 C 0.04067 0.10583 0.77298 0.0
H965 H 0.97834 0.07665 0.80543 0.0
H966 H 0.03593 0.0767 0.80539 0.0
C967 C 0.02372 0.12016 0.7537 0.0
C968 C 0.1442 0.24057 0.98744 0.0
C969 C 0.15854 0.22364 0.96814 0.0
H970 H 0.12916 0.28613 0.00045 0.0
C971 C 0.17691 0.24064 0.95112 0.0
H972 H 0.12917 0.22832 0.00045 0.0
C973 C 0.17691 0.27382 0.95112 0.0
C974 C 0.15854 0.29082 0.96814 0.0
H975 H 0.18765 0.22844 0.93573 0.0
H976 H 0.18765 0.28602 0.93572 0.0
C977 C 0.1442 0.27389 0.98744 0.0
C978 C 0.99047 0.89344 0.23767 0.0
C979 C 0.97347 0.90779 0.21842 0.0
H980 H 0.03611 0.87852 0.25061 0.0
C981 C 0.99037 0.92629 0.20143 0.0
H982 H 0.97829 0.87832 0.25066 0.0
C983 C 0.02355 0.9264 0.20139 0.0
C984 C 0.04063 0.90801 0.21835 0.0
H985 H 0.9781 0.93704 0.18607 0.0
H986 H 0.03569 0.93723 0.18601 0.0
C987 C 0.0238 0.89356 0.23764 0.0
C988 C 0.3371 0.74121 0.45135 0.0
C989 C 0.3555 0.72418 0.46833 0.0
H990 H 0.32639 0.7866 0.43597 0.0
C991 C 0.36991 0.74108 0.48761 0.0
H992 H 0.3263 0.72902 0.43597 0.0
C993 C 0.36996 0.7744 0.48761 0.0
C994 C 0.3556 0.79135 0.46833 0.0
H995 H 0.38496 0.7288 0.50059 0.0
H996 H 0.38505 0.78662 0.5006 0.0
C997 C 0.33715 0.77439 0.45135 0.0
C998 C 0.49042 0.1203 0.73724 0.0
C999 C 0.47348 0.106 0.71794 0.0
H1000 H 0.53601 0.13525 0.75027 0.0
C1001 C 0.49044 0.08761 0.70092 0.0
H1002 H 0.47819 0.13535 0.75026 0.0
C1003 C 0.52363 0.08755 0.70093 0.0
C1004 C 0.54065 0.10588 0.71796 0.0
H1005 H 0.47823 0.07689 0.68553 0.0
H1006 H 0.53581 0.07678 0.68553 0.0
C1007 C 0.52375 0.12024 0.73725 0.0
C1008 C 0.83731 0.27354 0.95117 0.0
C1009 C 0.85569 0.29057 0.96816 0.0
H1010 H 0.82657 0.22814 0.93582 0.0
C1011 C 0.87005 0.27368 0.98746 0.0
H1012 H 0.82654 0.28572 0.93577 0.0
C1013 C 0.87007 0.24036 0.98749 0.0
C1014 C 0.85572 0.2234 0.96822 0.0
H1015 H 0.88509 0.28596 0.00046 0.0
H1016 H 0.88512 0.22814 0.00051 0.0
C1017 C 0.83732 0.24036 0.9512 0.0
C1018 C 0.64418 0.77338 0.48735 0.0
C1019 C 0.65846 0.79041 0.46808 0.0
H1020 H 0.62926 0.72774 0.50027 0.0
C1021 C 0.67684 0.77352 0.451 0.0
H1022 H 0.62915 0.78555 0.50041 0.0
C1023 C 0.67689 0.74034 0.45091 0.0
C1024 C 0.65857 0.72324 0.46791 0.0
H1025 H 0.68753 0.78581 0.43563 0.0
H1026 H 0.68762 0.72822 0.43547 0.0
C1027 C 0.64425 0.74006 0.48727 0.0
C1028 C 0.87011 0.74021 0.00371 0.0
C1029 C 0.85567 0.72338 0.02301 0.0
H1030 H 0.88534 0.78569 0.99065 0.0
C1031 C 0.83731 0.74048 0.03997 0.0
H1032 H 0.88513 0.72788 0.99073 0.0
C1033 C 0.83742 0.77366 0.03993 0.0
C1034 C 0.85589 0.79055 0.02291 0.0
H1035 H 0.82649 0.72835 0.05537 0.0
H1036 H 0.82668 0.78593 0.05529 0.0
C1037 C 0.87022 0.77354 0.00366 0.0
C1038 C 0.67699 0.2735 0.5397 0.0
C1039 C 0.65858 0.29044 0.52267 0.0
H1040 H 0.68779 0.22818 0.55516 0.0
C1041 C 0.64424 0.27346 0.50341 0.0
H1042 H 0.68774 0.28576 0.55507 0.0
C1043 C 0.64428 0.24013 0.50345 0.0
C1044 C 0.65864 0.22327 0.52277 0.0
H1045 H 0.62919 0.28566 0.49039 0.0
H1046 H 0.62924 0.22784 0.49047 0.0
C1047 C 0.67703 0.24032 0.53975 0.0
C1048 C 0.9905 0.39426 0.75362 0.0
C1049 C 0.97352 0.40857 0.77289 0.0
H1050 H 0.03611 0.37929 0.74065 0.0
C1051 C 0.99046 0.42698 0.78993 0.0
H1052 H 0.97829 0.3792 0.7406 0.0
C1053 C 0.02365 0.42703 0.78996 0.0
C1054 C 0.0407 0.40868 0.77296 0.0
H1055 H 0.97821 0.43771 0.80531 0.0
H1056 H 0.0358 0.43779 0.80537 0.0
C1057 C 0.02383 0.39431 0.75365 0.0
C1058 C 0.48972 0.61878 0.2535 0.0
C1059 C 0.47281 0.60451 0.27283 0.0
H1060 H 0.53529 0.6337 0.24043 0.0
C1061 C 0.48979 0.58605 0.28981 0.0
H1062 H 0.47748 0.63386 0.24052 0.0
C1063 C 0.52297 0.58595 0.28975 0.0
C1064 C 0.53997 0.60432 0.27273 0.0
H1065 H 0.47759 0.57534 0.30522 0.0
H1066 H 0.53518 0.57517 0.30513 0.0
C1067 C 0.52305 0.61868 0.25345 0.0
C1068 C 0.49045 0.39444 0.73725 0.0
C1069 C 0.47354 0.40879 0.71796 0.0
H1070 H 0.53599 0.37933 0.75027 0.0
C1071 C 0.49057 0.42714 0.70093 0.0
H1072 H 0.47817 0.37943 0.75027 0.0
C1073 C 0.52375 0.42708 0.70093 0.0
C1074 C 0.54072 0.40869 0.71795 0.0
H1075 H 0.47838 0.43789 0.68554 0.0
H1076 H 0.53596 0.4378 0.68553 0.0
C1077 C 0.52378 0.39439 0.73725 0.0
C1078 C 0.98992 0.58638 0.20124 0.0
C1079 C 0.97286 0.60471 0.21825 0.0
H1080 H 0.03536 0.57572 0.1859 0.0
C1081 C 0.98971 0.61903 0.23758 0.0
H1082 H 0.97777 0.57565 0.18582 0.0
C1083 C 0.02304 0.61908 0.23764 0.0
C1084 C 0.04003 0.6048 0.21835 0.0
H1085 H 0.97741 0.63402 0.25059 0.0
H1086 H 0.03523 0.63411 0.25068 0.0
C1087 C 0.02311 0.58642 0.20129 0.0
loop_
_geom_bond_atom_site_label_1
_geom_bond_atom_site_label_2
_geom_bond_distance
_geom_bond_site_symmetry_2
_ccdc_geom_bond_type
Co0 O1 2.216 . S
Co0 O2 2.091 1_554 S
Co0 O4 2.004 . S
Co0 O10 2.021 . S
Co0 O12 2.137 . S
Co0 O13 2.244 . S
O1 Co0 2.216 . S
O1 C8 1.247 . S
O2 Co0 2.091 1_556 S
O2 C8 1.261 1_556 S
C3 O12 1.247 . S
C3 O13 1.272 . S
O4 Co0 2.004 . S
O4 C9 1.259 . S
Co5 O6 2.061 . S
Co5 O11 2.052 . S
Co5 O13 2.135 . S
O6 Co5 2.061 . S
O6 C9 1.235 . S
C7 O10 1.238 . S
C7 O11 1.241 . S
C8 O1 1.247 . S
C8 O2 1.261 1_554 S
C9 O4 1.259 . S
C9 O6 1.235 . S
O10 Co0 2.021 . S
O10 C7 1.238 . S
O11 Co5 2.052 . S
O11 C7 1.241 . S
O12 Co0 2.137 . S
O12 C3 1.247 . S
O13 Co0 2.244 . S
O13 C3 1.272 . S
O13 Co5 2.135 . S
Co14 O15 2.216 . S
Co14 O16 2.091 . S
Co14 O18 2.004 . S
Co14 O24 2.021 . S
Co14 O26 2.137 . S
Co14 O27 2.244 . S
O15 Co14 2.216 . S
O15 C22 1.247 . S
O16 Co14 2.091 . S
O16 C22 1.261 . S
C17 O26 1.247 . S
C17 O27 1.272 . S
O18 Co14 2.004 . S
O18 C23 1.259 . S
Co19 O20 2.061 . S
Co19 O25 2.052 . S
Co19 O27 2.135 . S
O20 Co19 2.061 . S
O20 C23 1.235 . S
C21 O24 1.238 . S
C21 O25 1.241 . S
C22 O15 1.247 . S
C22 O16 1.261 . S
C23 O18 1.259 . S
C23 O20 1.235 . S
O24 Co14 2.021 . S
O24 C21 1.238 . S
O25 Co19 2.052 . S
O25 C21 1.241 . S
O26 Co14 2.137 . S
O26 C17 1.247 . S
O27 Co14 2.244 . S
O27 C17 1.272 . S
O27 Co19 2.135 . S
Co28 O29 2.216 . S
Co28 O30 2.091 . S
Co28 O32 2.004 . S
Co28 O38 2.021 . S
Co28 O40 2.137 . S
Co28 O41 2.244 . S
O29 Co28 2.216 . S
O29 C36 1.247 . S
O30 Co28 2.091 . S
O30 C36 1.261 . S
C31 O40 1.247 . S
C31 O41 1.272 . S
O32 Co28 2.004 . S
O32 C37 1.259 . S
Co33 O34 2.061 . S
Co33 O39 2.052 . S
Co33 O41 2.135 . S
O34 Co33 2.061 . S
O34 C37 1.235 . S
C35 O38 1.238 . S
C35 O39 1.241 . S
C36 O29 1.247 . S
C36 O30 1.261 . S
C37 O32 1.259 . S
C37 O34 1.235 . S
O38 Co28 2.021 . S
O38 C35 1.238 . S
O39 Co33 2.052 . S
O39 C35 1.241 . S
O40 Co28 2.137 . S
O40 C31 1.247 . S
O41 Co28 2.244 . S
O41 C31 1.272 . S
O41 Co33 2.135 . S
Co42 O43 2.216 . S
Co42 O44 2.091 . S
Co42 O46 2.004 . S
Co42 O52 2.021 . S
Co42 O54 2.137 . S
Co42 O55 2.244 . S
O43 Co42 2.216 . S
O43 C50 1.247 . S
O44 Co42 2.091 . S
O44 C50 1.261 . S
C45 O54 1.247 . S
C45 O55 1.272 . S
O46 Co42 2.004 . S
O46 C51 1.259 . S
Co47 O48 2.061 . S
Co47 O53 2.052 . S
Co47 O55 2.135 . S
O48 Co47 2.061 . S
O48 C51 1.235 . S
C49 O52 1.238 . S
C49 O53 1.241 . S
C50 O43 1.247 . S
C50 O44 1.261 . S
C51 O46 1.259 . S
C51 O48 1.235 . S
O52 Co42 2.021 . S
O52 C49 1.238 . S
O53 Co47 2.052 . S
O53 C49 1.241 . S
O54 Co42 2.137 . S
O54 C45 1.247 . S
O55 Co42 2.244 . S
O55 C45 1.272 . S
O55 Co47 2.135 . S
Co56 O57 2.216 . S
Co56 O58 2.091 1_556 S
Co56 O60 2.004 . S
Co56 O66 2.021 . S
Co56 O68 2.137 . S
Co56 O69 2.244 . S
O57 Co56 2.216 . S
O57 C64 1.247 . S
O58 Co56 2.091 1_554 S
O58 C64 1.261 1_554 S
C59 O68 1.247 . S
C59 O69 1.272 . S
O60 Co56 2.004 . S
O60 C65 1.259 . S
Co61 O62 2.061 . S
Co61 O67 2.052 . S
Co61 O69 2.135 . S
O62 Co61 2.061 . S
O62 C65 1.235 . S
C63 O66 1.238 . S
C63 O67 1.241 . S
C64 O57 1.247 . S
C64 O58 1.261 1_556 S
C65 O60 1.259 . S
C65 O62 1.235 . S
O66 Co56 2.021 . S
O66 C63 1.238 . S
O67 Co61 2.052 . S
O67 C63 1.241 . S
O68 Co56 2.137 . S
O68 C59 1.247 . S
O69 Co56 2.244 . S
O69 C59 1.272 . S
O69 Co61 2.135 . S
Co70 O71 2.216 . S
Co70 O72 2.091 . S
Co70 O74 2.004 . S
Co70 O80 2.021 . S
Co70 O82 2.137 . S
Co70 O83 2.244 . S
O71 Co70 2.216 . S
O71 C78 1.247 . S
O72 Co70 2.091 . S
O72 C78 1.261 . S
C73 O82 1.247 . S
C73 O83 1.272 . S
O74 Co70 2.004 . S
O74 C79 1.259 . S
Co75 O76 2.061 . S
Co75 O81 2.052 . S
Co75 O83 2.135 . S
O76 Co75 2.061 . S
O76 C79 1.235 . S
C77 O80 1.238 . S
C77 O81 1.241 . S
C78 O71 1.247 . S
C78 O72 1.261 . S
C79 O74 1.259 . S
C79 O76 1.235 . S
O80 Co70 2.021 . S
O80 C77 1.238 . S
O81 Co75 2.052 . S
O81 C77 1.241 . S
O82 Co70 2.137 . S
O82 C73 1.247 . S
O83 Co70 2.244 . S
O83 C73 1.272 . S
O83 Co75 2.135 . S
Co84 O85 2.216 . S
Co84 O86 2.091 . S
Co84 O88 2.004 . S
Co84 O94 2.021 . S
Co84 O96 2.137 . S
Co84 O97 2.244 . S
O85 Co84 2.216 . S
O85 C92 1.247 . S
O86 Co84 2.091 . S
O86 C92 1.261 . S
C87 O96 1.247 . S
C87 O97 1.272 . S
O88 Co84 2.004 . S
O88 C93 1.259 . S
Co89 O90 2.061 . S
Co89 O95 2.052 . S
Co89 O97 2.135 . S
O90 Co89 2.061 . S
O90 C93 1.235 . S
C91 O94 1.238 . S
C91 O95 1.241 . S
C92 O85 1.247 . S
C92 O86 1.261 . S
C93 O88 1.259 . S
C93 O90 1.235 . S
O94 Co84 2.021 . S
O94 C91 1.238 . S
O95 Co89 2.052 . S
O95 C91 1.241 . S
O96 Co84 2.137 . S
O96 C87 1.247 . S
O97 Co84 2.244 . S
O97 C87 1.272 . S
O97 Co89 2.135 . S
Co98 O99 2.216 . S
Co98 O100 2.091 . S
Co98 O102 2.004 . S
Co98 O108 2.021 . S
Co98 O110 2.137 . S
Co98 O111 2.244 . S
O99 Co98 2.216 . S
O99 C106 1.247 . S
O100 Co98 2.091 . S
O100 C106 1.261 . S
C101 O110 1.247 . S
C101 O111 1.272 . S
O102 Co98 2.004 . S
O102 C107 1.259 . S
Co103 O104 2.061 . S
Co103 O109 2.052 . S
Co103 O111 2.135 . S
O104 Co103 2.061 . S
O104 C107 1.235 . S
C105 O108 1.238 . S
C105 O109 1.241 . S
C106 O99 1.247 . S
C106 O100 1.261 . S
C107 O102 1.259 . S
C107 O104 1.235 . S
O108 Co98 2.021 . S
O108 C105 1.238 . S
O109 Co103 2.052 . S
O109 C105 1.241 . S
O110 Co98 2.137 . S
O110 C101 1.247 . S
O111 Co98 2.244 . S
O111 C101 1.272 . S
O111 Co103 2.135 . S
Co112 O113 2.216 . S
Co112 O114 2.091 1_556 S
Co112 O116 2.004 . S
Co112 O122 2.021 . S
Co112 O124 2.137 . S
Co112 O125 2.244 . S
O113 Co112 2.216 . S
O113 C120 1.247 . S
O114 Co112 2.091 1_554 S
O114 C120 1.261 1_554 S
C115 O124 1.247 . S
C115 O125 1.272 . S
O116 Co112 2.004 . S
O116 C121 1.259 . S
Co117 O118 2.061 . S
Co117 O123 2.052 . S
Co117 O125 2.135 . S
O118 Co117 2.061 . S
O118 C121 1.235 . S
C119 O122 1.238 . S
C119 O123 1.241 . S
C120 O113 1.247 . S
C120 O114 1.261 1_556 S
C121 O116 1.259 . S
C121 O118 1.235 . S
O122 Co112 2.021 . S
O122 C119 1.238 . S
O123 Co117 2.052 . S
O123 C119 1.241 . S
O124 Co112 2.137 . S
O124 C115 1.247 . S
O125 Co112 2.244 . S
O125 C115 1.272 . S
O125 Co117 2.135 . S
Co126 O127 2.216 . S
Co126 O128 2.091 . S
Co126 O130 2.004 . S
Co126 O136 2.021 . S
Co126 O138 2.137 . S
Co126 O139 2.244 . S
O127 Co126 2.216 . S
O127 C134 1.247 . S
O128 Co126 2.091 . S
O128 C134 1.261 . S
C129 O138 1.247 . S
C129 O139 1.272 . S
O130 Co126 2.004 . S
O130 C135 1.259 . S
Co131 O132 2.061 . S
Co131 O137 2.052 . S
Co131 O139 2.135 . S
O132 Co131 2.061 . S
O132 C135 1.235 . S
C133 O136 1.238 . S
C133 O137 1.241 . S
C134 O127 1.247 . S
C134 O128 1.261 . S
C135 O130 1.259 . S
C135 O132 1.235 . S
O136 Co126 2.021 . S
O136 C133 1.238 . S
O137 Co131 2.052 . S
O137 C133 1.241 . S
O138 Co126 2.137 . S
O138 C129 1.247 . S
O139 Co126 2.244 . S
O139 C129 1.272 . S
O139 Co131 2.135 . S
Co140 O141 2.216 . S
Co140 O142 2.091 . S
Co140 O144 2.004 . S
Co140 O150 2.021 . S
Co140 O152 2.137 . S
Co140 O153 2.244 . S
O141 Co140 2.216 . S
O141 C148 1.247 . S
O142 Co140 2.091 . S
O142 C148 1.261 . S
C143 O152 1.247 . S
C143 O153 1.272 . S
O144 Co140 2.004 . S
O144 C149 1.259 . S
Co145 O146 2.061 . S
Co145 O151 2.052 . S
Co145 O153 2.135 . S
O146 Co145 2.061 . S
O146 C149 1.235 . S
C147 O150 1.238 . S
C147 O151 1.241 . S
C148 O141 1.247 . S
C148 O142 1.261 . S
C149 O144 1.259 . S
C149 O146 1.235 . S
O150 Co140 2.021 . S
O150 C147 1.238 . S
O151 Co145 2.052 . S
O151 C147 1.241 . S
O152 Co140 2.137 . S
O152 C143 1.247 . S
O153 Co140 2.244 . S
O153 C143 1.272 . S
O153 Co145 2.135 . S
Co154 O155 2.216 . S
Co154 O156 2.091 . S
Co154 O158 2.004 . S
Co154 O164 2.021 . S
Co154 O166 2.137 . S
Co154 O167 2.244 . S
O155 Co154 2.216 . S
O155 C162 1.247 . S
O156 Co154 2.091 . S
O156 C162 1.261 . S
C157 O166 1.247 . S
C157 O167 1.272 . S
O158 Co154 2.004 . S
O158 C163 1.259 . S
Co159 O160 2.061 . S
Co159 O165 2.052 . S
Co159 O167 2.135 . S
O160 Co159 2.061 . S
O160 C163 1.235 . S
C161 O164 1.238 . S
C161 O165 1.241 . S
C162 O155 1.247 . S
C162 O156 1.261 . S
C163 O158 1.259 . S
C163 O160 1.235 . S
O164 Co154 2.021 . S
O164 C161 1.238 . S
O165 Co159 2.052 . S
O165 C161 1.241 . S
O166 Co154 2.137 . S
O166 C157 1.247 . S
O167 Co154 2.244 . S
O167 C157 1.272 . S
O167 Co159 2.135 . S
Co168 O169 2.216 . S
Co168 O170 2.091 1_554 S
Co168 O172 2.004 . S
Co168 O178 2.021 . S
Co168 O180 2.137 . S
Co168 O181 2.244 . S
O169 Co168 2.216 . S
O169 C176 1.247 . S
O170 Co168 2.091 1_556 S
O170 C176 1.261 1_556 S
C171 O180 1.247 . S
C171 O181 1.272 . S
O172 Co168 2.004 . S
O172 C177 1.259 . S
Co173 O174 2.061 . S
Co173 O179 2.052 . S
Co173 O181 2.135 . S
O174 Co173 2.061 . S
O174 C177 1.235 . S
C175 O178 1.238 . S
C175 O179 1.241 . S
C176 O169 1.247 . S
C176 O170 1.261 1_554 S
C177 O172 1.259 . S
C177 O174 1.235 . S
O178 Co168 2.021 . S
O178 C175 1.238 . S
O179 Co173 2.052 . S
O179 C175 1.241 . S
O180 Co168 2.137 . S
O180 C171 1.247 . S
O181 Co168 2.244 . S
O181 C171 1.272 . S
O181 Co173 2.135 . S
Co182 O183 2.216 . S
Co182 O184 2.091 . S
Co182 O186 2.004 . S
Co182 O192 2.021 . S
Co182 O194 2.137 . S
Co182 O195 2.244 . S
O183 Co182 2.216 . S
O183 C190 1.247 . S
O184 Co182 2.091 . S
O184 C190 1.261 . S
C185 O194 1.247 . S
C185 O195 1.272 . S
O186 Co182 2.004 . S
O186 C191 1.259 . S
Co187 O188 2.061 . S
Co187 O193 2.052 . S
Co187 O195 2.135 . S
O188 Co187 2.061 . S
O188 C191 1.235 . S
C189 O192 1.238 . S
C189 O193 1.241 . S
C190 O183 1.247 . S
C190 O184 1.261 . S
C191 O186 1.259 . S
C191 O188 1.235 . S
O192 Co182 2.021 . S
O192 C189 1.238 . S
O193 Co187 2.052 . S
O193 C189 1.241 . S
O194 Co182 2.137 . S
O194 C185 1.247 . S
O195 Co182 2.244 . S
O195 C185 1.272 . S
O195 Co187 2.135 . S
Co196 O197 2.216 . S
Co196 O198 2.091 . S
Co196 O200 2.004 . S
Co196 O206 2.021 . S
Co196 O208 2.137 . S
Co196 O209 2.244 . S
O197 Co196 2.216 . S
O197 C204 1.247 . S
O198 Co196 2.091 . S
O198 C204 1.261 . S
C199 O208 1.247 . S
C199 O209 1.272 . S
O200 Co196 2.004 . S
O200 C205 1.259 . S
Co201 O202 2.061 . S
Co201 O207 2.052 . S
Co201 O209 2.135 . S
O202 Co201 2.061 . S
O202 C205 1.235 . S
C203 O206 1.238 . S
C203 O207 1.241 . S
C204 O197 1.247 . S
C204 O198 1.261 . S
C205 O200 1.259 . S
C205 O202 1.235 . S
O206 Co196 2.021 . S
O206 C203 1.238 . S
O207 Co201 2.052 . S
O207 C203 1.241 . S
O208 Co196 2.137 . S
O208 C199 1.247 . S
O209 Co196 2.244 . S
O209 C199 1.272 . S
O209 Co201 2.135 . S
Co210 O211 2.216 . S
Co210 O212 2.091 . S
Co210 O214 2.004 . S
Co210 O220 2.021 . S
Co210 O222 2.137 . S
Co210 O223 2.244 . S
O211 Co210 2.216 . S
O211 C218 1.247 . S
O212 Co210 2.091 . S
O212 C218 1.261 . S
C213 O222 1.247 . S
C213 O223 1.272 . S
O214 Co210 2.004 . S
O214 C219 1.259 . S
Co215 O216 2.061 . S
Co215 O221 2.052 . S
Co215 O223 2.135 . S
O216 Co215 2.061 . S
O216 C219 1.235 . S
C217 O220 1.238 . S
C217 O221 1.241 . S
C218 O211 1.247 . S
C218 O212 1.261 . S
C219 O214 1.259 . S
C219 O216 1.235 . S
O220 Co210 2.021 . S
O220 C217 1.238 . S
O221 Co215 2.052 . S
O221 C217 1.241 . S
O222 Co210 2.137 . S
O222 C213 1.247 . S
O223 Co210 2.244 . S
O223 C213 1.272 . S
O223 Co215 2.135 . S
Co224 O225 2.216 . S
Co224 O226 2.091 . S
Co224 O228 2.004 . S
Co224 O234 2.021 . S
Co224 O236 2.137 . S
Co224 O237 2.244 . S
O225 Co224 2.216 . S
O225 C232 1.247 . S
O226 Co224 2.091 . S
O226 C232 1.261 . S
C227 O236 1.247 . S
C227 O237 1.272 . S
O228 Co224 2.004 . S
O228 C233 1.259 . S
Co229 O230 2.061 . S
Co229 O235 2.052 . S
Co229 O237 2.135 . S
O230 Co229 2.061 . S
O230 C233 1.235 . S
C231 O234 1.238 . S
C231 O235 1.241 . S
C232 O225 1.247 . S
C232 O226 1.261 . S
C233 O228 1.259 . S
C233 O230 1.235 . S
O234 Co224 2.021 . S
O234 C231 1.238 . S
O235 Co229 2.052 . S
O235 C231 1.241 . S
O236 Co224 2.137 . S
O236 C227 1.247 . S
O237 Co224 2.244 . S
O237 C227 1.272 . S
O237 Co229 2.135 . S
Co238 O239 2.216 . S
Co238 O240 2.091 . S
Co238 O242 2.004 . S
Co238 O248 2.021 . S
Co238 O250 2.137 . S
Co238 O251 2.244 . S
O239 Co238 2.216 . S
O239 C246 1.247 . S
O240 Co238 2.091 . S
O240 C246 1.261 . S
C241 O250 1.247 . S
C241 O251 1.272 . S
O242 Co238 2.004 . S
O242 C247 1.259 . S
Co243 O244 2.061 . S
Co243 O249 2.052 . S
Co243 O251 2.135 . S
O244 Co243 2.061 . S
O244 C247 1.235 . S
C245 O248 1.238 . S
C245 O249 1.241 . S
C246 O239 1.247 . S
C246 O240 1.261 . S
C247 O242 1.259 . S
C247 O244 1.235 . S
O248 Co238 2.021 . S
O248 C245 1.238 . S
O249 Co243 2.052 . S
O249 C245 1.241 . S
O250 Co238 2.137 . S
O250 C241 1.247 . S
O251 Co238 2.244 . S
O251 C241 1.272 . S
O251 Co243 2.135 . S
Co252 O253 2.216 . S
Co252 O254 2.091 1_554 S
Co252 O256 2.004 . S
Co252 O262 2.021 . S
Co252 O264 2.137 . S
Co252 O265 2.244 . S
O253 Co252 2.216 . S
O253 C260 1.247 . S
O254 Co252 2.091 1_556 S
O254 C260 1.261 1_556 S
C255 O264 1.247 . S
C255 O265 1.272 . S
O256 Co252 2.004 . S
O256 C261 1.259 . S
Co257 O258 2.061 . S
Co257 O263 2.052 . S
Co257 O265 2.135 . S
O258 Co257 2.061 . S
O258 C261 1.235 . S
C259 O262 1.238 . S
C259 O263 1.241 . S
C260 O253 1.247 . S
C260 O254 1.261 1_554 S
C261 O256 1.259 . S
C261 O258 1.235 . S
O262 Co252 2.021 . S
O262 C259 1.238 . S
O263 Co257 2.052 . S
O263 C259 1.241 . S
O264 Co252 2.137 . S
O264 C255 1.247 . S
O265 Co252 2.244 . S
O265 C255 1.272 . S
O265 Co257 2.135 . S
Co266 O267 2.216 . S
Co266 O268 2.091 . S
Co266 O270 2.004 . S
Co266 O276 2.021 . S
Co266 O278 2.137 . S
Co266 O279 2.244 . S
O267 Co266 2.216 . S
O267 C274 1.247 . S
O268 Co266 2.091 . S
O268 C274 1.261 . S
C269 O278 1.247 . S
C269 O279 1.272 . S
O270 Co266 2.004 . S
O270 C275 1.259 . S
Co271 O272 2.061 . S
Co271 O277 2.052 . S
Co271 O279 2.135 . S
O272 Co271 2.061 . S
O272 C275 1.235 . S
C273 O276 1.238 . S
C273 O277 1.241 . S
C274 O267 1.247 . S
C274 O268 1.261 . S
C275 O270 1.259 . S
C275 O272 1.235 . S
O276 Co266 2.021 . S
O276 C273 1.238 . S
O277 Co271 2.052 . S
O277 C273 1.241 . S
O278 Co266 2.137 . S
O278 C269 1.247 . S
O279 Co266 2.244 . S
O279 C269 1.272 . S
O279 Co271 2.135 . S
Co280 O281 2.216 . S
Co280 O282 2.091 . S
Co280 O284 2.004 . S
Co280 O290 2.021 . S
Co280 O292 2.137 . S
Co280 O293 2.244 . S
O281 Co280 2.216 . S
O281 C288 1.247 . S
O282 Co280 2.091 . S
O282 C288 1.261 . S
C283 O292 1.247 . S
C283 O293 1.272 . S
O284 Co280 2.004 . S
O284 C289 1.259 . S
Co285 O286 2.061 . S
Co285 O291 2.052 . S
Co285 O293 2.135 . S
O286 Co285 2.061 . S
O286 C289 1.235 . S
C287 O290 1.238 . S
C287 O291 1.241 . S
C288 O281 1.247 . S
C288 O282 1.261 . S
C289 O284 1.259 . S
C289 O286 1.235 . S
O290 Co280 2.021 . S
O290 C287 1.238 . S
O291 Co285 2.052 . S
O291 C287 1.241 . S
O292 Co280 2.137 . S
O292 C283 1.247 . S
O293 Co280 2.244 . S
O293 C283 1.272 . S
O293 Co285 2.135 . S
Co294 O295 2.216 . S
Co294 O296 2.091 . S
Co294 O298 2.004 . S
Co294 O304 2.021 . S
Co294 O306 2.137 . S
Co294 O307 2.244 . S
O295 Co294 2.216 . S
O295 C302 1.247 . S
O296 Co294 2.091 . S
O296 C302 1.261 . S
C297 O306 1.247 . S
C297 O307 1.272 . S
O298 Co294 2.004 . S
O298 C303 1.259 . S
Co299 O300 2.061 . S
Co299 O305 2.052 . S
Co299 O307 2.135 . S
O300 Co299 2.061 . S
O300 C303 1.235 . S
C301 O304 1.238 . S
C301 O305 1.241 . S
C302 O295 1.247 . S
C302 O296 1.261 . S
C303 O298 1.259 . S
C303 O300 1.235 . S
O304 Co294 2.021 . S
O304 C301 1.238 . S
O305 Co299 2.052 . S
O305 C301 1.241 . S
O306 Co294 2.137 . S
O306 C297 1.247 . S
O307 Co294 2.244 . S
O307 C297 1.272 . S
O307 Co299 2.135 . S
Co308 O309 2.216 . S
Co308 O310 2.091 1_556 S
Co308 O312 2.004 . S
Co308 O318 2.021 . S
Co308 O320 2.137 . S
Co308 O321 2.244 . S
O309 Co308 2.216 . S
O309 C316 1.247 . S
O310 Co308 2.091 1_554 S
O310 C316 1.261 1_554 S
C311 O320 1.247 . S
C311 O321 1.272 . S
O312 Co308 2.004 . S
O312 C317 1.259 . S
Co313 O314 2.061 . S
Co313 O319 2.052 . S
Co313 O321 2.135 . S
O314 Co313 2.061 . S
O314 C317 1.235 . S
C315 O318 1.238 . S
C315 O319 1.241 . S
C316 O309 1.247 . S
C316 O310 1.261 1_556 S
C317 O312 1.259 . S
C317 O314 1.235 . S
O318 Co308 2.021 . S
O318 C315 1.238 . S
O319 Co313 2.052 . S
O319 C315 1.241 . S
O320 Co308 2.137 . S
O320 C311 1.247 . S
O321 Co308 2.244 . S
O321 C311 1.272 . S
O321 Co313 2.135 . S
Co322 O323 2.216 . S
Co322 O324 2.091 . S
Co322 O326 2.004 . S
Co322 O332 2.021 . S
Co322 O334 2.137 . S
Co322 O335 2.244 . S
O323 Co322 2.216 . S
O323 C330 1.247 . S
O324 Co322 2.091 . S
O324 C330 1.261 . S
C325 O334 1.247 . S
C325 O335 1.272 . S
O326 Co322 2.004 . S
O326 C331 1.259 . S
Co327 O328 2.061 . S
Co327 O333 2.052 . S
Co327 O335 2.135 . S
O328 Co327 2.061 . S
O328 C331 1.235 . S
C329 O332 1.238 . S
C329 O333 1.241 . S
C330 O323 1.247 . S
C330 O324 1.261 . S
C331 O326 1.259 . S
C331 O328 1.235 . S
O332 Co322 2.021 . S
O332 C329 1.238 . S
O333 Co327 2.052 . S
O333 C329 1.241 . S
O334 Co322 2.137 . S
O334 C325 1.247 . S
O335 Co322 2.244 . S
O335 C325 1.272 . S
O335 Co327 2.135 . S
Co336 O337 2.216 . S
Co336 O338 2.091 . S
Co336 O340 2.004 . S
Co336 O346 2.021 . S
Co336 O348 2.137 . S
Co336 O349 2.244 . S
O337 Co336 2.216 . S
O337 C344 1.247 . S
O338 Co336 2.091 . S
O338 C344 1.261 . S
C339 O348 1.247 . S
C339 O349 1.272 . S
O340 Co336 2.004 . S
O340 C345 1.259 . S
Co341 O342 2.061 . S
Co341 O347 2.052 . S
Co341 O349 2.135 . S
O342 Co341 2.061 . S
O342 C345 1.235 . S
C343 O346 1.238 . S
C343 O347 1.241 . S
C344 O337 1.247 . S
C344 O338 1.261 . S
C345 O340 1.259 . S
C345 O342 1.235 . S
O346 Co336 2.021 . S
O346 C343 1.238 . S
O347 Co341 2.052 . S
O347 C343 1.241 . S
O348 Co336 2.137 . S
O348 C339 1.247 . S
O349 Co336 2.244 . S
O349 C339 1.272 . S
O349 Co341 2.135 . S
Co350 O351 2.216 . S
Co350 O352 2.091 . S
Co350 O354 2.004 . S
Co350 O360 2.021 . S
Co350 O362 2.137 . S
Co350 O363 2.244 . S
O351 Co350 2.216 . S
O351 C358 1.247 . S
O352 Co350 2.091 . S
O352 C358 1.261 . S
C353 O362 1.247 . S
C353 O363 1.272 . S
O354 Co350 2.004 . S
O354 C359 1.259 . S
Co355 O356 2.061 . S
Co355 O361 2.052 . S
Co355 O363 2.135 . S
O356 Co355 2.061 . S
O356 C359 1.235 . S
C357 O360 1.238 . S
C357 O361 1.241 . S
C358 O351 1.247 . S
C358 O352 1.261 . S
C359 O354 1.259 . S
C359 O356 1.235 . S
O360 Co350 2.021 . S
O360 C357 1.238 . S
O361 Co355 2.052 . S
O361 C357 1.241 . S
O362 Co350 2.137 . S
O362 C353 1.247 . S
O363 Co350 2.244 . S
O363 C353 1.272 . S
O363 Co355 2.135 . S
Co364 O365 2.216 . S
Co364 O366 2.091 1_556 S
Co364 O368 2.004 . S
Co364 O374 2.021 . S
Co364 O376 2.137 . S
Co364 O377 2.244 . S
O365 Co364 2.216 . S
O365 C372 1.247 . S
O366 Co364 2.091 1_554 S
O366 C372 1.261 1_554 S
C367 O376 1.247 . S
C367 O377 1.272 . S
O368 Co364 2.004 . S
O368 C373 1.259 . S
Co369 O370 2.061 . S
Co369 O375 2.052 . S
Co369 O377 2.135 . S
O370 Co369 2.061 . S
O370 C373 1.235 . S
C371 O374 1.238 . S
C371 O375 1.241 . S
C372 O365 1.247 . S
C372 O366 1.261 1_556 S
C373 O368 1.259 . S
C373 O370 1.235 . S
O374 Co364 2.021 . S
O374 C371 1.238 . S
O375 Co369 2.052 . S
O375 C371 1.241 . S
O376 Co364 2.137 . S
O376 C367 1.247 . S
O377 Co364 2.244 . S
O377 C367 1.272 . S
O377 Co369 2.135 . S
Co378 O379 2.216 . S
Co378 O380 2.091 . S
Co378 O382 2.004 . S
Co378 O388 2.021 . S
Co378 O390 2.137 . S
Co378 O391 2.244 . S
O379 Co378 2.216 . S
O379 C386 1.247 . S
O380 Co378 2.091 . S
O380 C386 1.261 . S
C381 O390 1.247 . S
C381 O391 1.272 . S
O382 Co378 2.004 . S
O382 C387 1.259 . S
Co383 O384 2.061 . S
Co383 O389 2.052 . S
Co383 O391 2.135 . S
O384 Co383 2.061 . S
O384 C387 1.235 . S
C385 O388 1.238 . S
C385 O389 1.241 . S
C386 O379 1.247 . S
C386 O380 1.261 . S
C387 O382 1.259 . S
C387 O384 1.235 . S
O388 Co378 2.021 . S
O388 C385 1.238 . S
O389 Co383 2.052 . S
O389 C385 1.241 . S
O390 Co378 2.137 . S
O390 C381 1.247 . S
O391 Co378 2.244 . S
O391 C381 1.272 . S
O391 Co383 2.135 . S
Co392 O393 2.216 . S
Co392 O394 2.091 . S
Co392 O396 2.004 . S
Co392 O402 2.021 . S
Co392 O404 2.137 . S
Co392 O405 2.244 . S
O393 Co392 2.216 . S
O393 C400 1.247 . S
O394 Co392 2.091 . S
O394 C400 1.261 . S
C395 O404 1.247 . S
C395 O405 1.272 . S
O396 Co392 2.004 . S
O396 C401 1.259 . S
Co397 O398 2.061 . S
Co397 O403 2.052 . S
Co397 O405 2.135 . S
O398 Co397 2.061 . S
O398 C401 1.235 . S
C399 O402 1.238 . S
C399 O403 1.241 . S
C400 O393 1.247 . S
C400 O394 1.261 . S
C401 O396 1.259 . S
C401 O398 1.235 . S
O402 Co392 2.021 . S
O402 C399 1.238 . S
O403 Co397 2.052 . S
O403 C399 1.241 . S
O404 Co392 2.137 . S
O404 C395 1.247 . S
O405 Co392 2.244 . S
O405 C395 1.272 . S
O405 Co397 2.135 . S
Co406 O407 2.216 . S
Co406 O408 2.091 . S
Co406 O410 2.004 . S
Co406 O416 2.021 . S
Co406 O418 2.137 . S
Co406 O419 2.244 . S
O407 Co406 2.216 . S
O407 C414 1.247 . S
O408 Co406 2.091 . S
O408 C414 1.261 . S
C409 O418 1.247 . S
C409 O419 1.272 . S
O410 Co406 2.004 . S
O410 C415 1.259 . S
Co411 O412 2.061 . S
Co411 O417 2.052 . S
Co411 O419 2.135 . S
O412 Co411 2.061 . S
O412 C415 1.235 . S
C413 O416 1.238 . S
C413 O417 1.241 . S
C414 O407 1.247 . S
C414 O408 1.261 . S
C415 O410 1.259 . S
C415 O412 1.235 . S
O416 Co406 2.021 . S
O416 C413 1.238 . S
O417 Co411 2.052 . S
O417 C413 1.241 . S
O418 Co406 2.137 . S
O418 C409 1.247 . S
O419 Co406 2.244 . S
O419 C409 1.272 . S
O419 Co411 2.135 . S
Co420 O421 2.216 . S
Co420 O422 2.091 1_554 S
Co420 O424 2.004 . S
Co420 O430 2.021 . S
Co420 O432 2.137 . S
Co420 O433 2.244 . S
O421 Co420 2.216 . S
O421 C428 1.247 . S
O422 Co420 2.091 1_556 S
O422 C428 1.261 1_556 S
C423 O432 1.247 . S
C423 O433 1.272 . S
O424 Co420 2.004 . S
O424 C429 1.259 . S
Co425 O426 2.061 . S
Co425 O431 2.052 . S
Co425 O433 2.135 . S
O426 Co425 2.061 . S
O426 C429 1.235 . S
C427 O430 1.238 . S
C427 O431 1.241 . S
C428 O421 1.247 . S
C428 O422 1.261 1_554 S
C429 O424 1.259 . S
C429 O426 1.235 . S
O430 Co420 2.021 . S
O430 C427 1.238 . S
O431 Co425 2.052 . S
O431 C427 1.241 . S
O432 Co420 2.137 . S
O432 C423 1.247 . S
O433 Co420 2.244 . S
O433 C423 1.272 . S
O433 Co425 2.135 . S
Co434 O435 2.216 . S
Co434 O436 2.091 . S
Co434 O438 2.004 . S
Co434 O444 2.021 . S
Co434 O446 2.137 . S
Co434 O447 2.244 . S
O435 Co434 2.216 . S
O435 C442 1.247 . S
O436 Co434 2.091 . S
O436 C442 1.261 . S
C437 O446 1.247 . S
C437 O447 1.272 . S
O438 Co434 2.004 . S
O438 C443 1.259 . S
Co439 O440 2.061 . S
Co439 O445 2.052 . S
Co439 O447 2.135 . S
O440 Co439 2.061 . S
O440 C443 1.235 . S
C441 O444 1.238 . S
C441 O445 1.241 . S
C442 O435 1.247 . S
C442 O436 1.261 . S
C443 O438 1.259 . S
C443 O440 1.235 . S
O444 Co434 2.021 . S
O444 C441 1.238 . S
O445 Co439 2.052 . S
O445 C441 1.241 . S
O446 Co434 2.137 . S
O446 C437 1.247 . S
O447 Co434 2.244 . S
O447 C437 1.272 . S
O447 Co439 2.135 . S
C448 C449 1.387 . S
C448 H452 0.950 . S
C448 C457 1.390 . S
C449 C448 1.387 . S
C449 C451 1.387 . S
H450 C457 0.950 . S
C451 C449 1.387 . S
C451 C453 1.390 . S
C451 H455 0.950 . S
H452 C448 0.950 . S
C453 C451 1.390 . S
C453 C454 1.387 . S
C453 H456 0.950 . S
C454 C453 1.387 . S
C454 C457 1.387 . S
H455 C451 0.950 . S
H456 C453 0.950 . S
C457 C448 1.390 . S
C457 H450 0.950 . S
C457 C454 1.387 . S
C458 C459 1.387 . S
C458 H462 0.950 . S
C458 C467 1.390 . S
C459 C458 1.387 . S
C459 C461 1.387 . S
H460 C467 0.950 . S
C461 C459 1.387 . S
C461 C463 1.390 . S
C461 H465 0.950 . S
H462 C458 0.950 . S
C463 C461 1.390 . S
C463 C464 1.387 . S
C463 H466 0.950 . S
C464 C463 1.387 . S
C464 C467 1.387 . S
H465 C461 0.950 . S
H466 C463 0.950 . S
C467 C458 1.390 . S
C467 H460 0.950 . S
C467 C464 1.387 . S
C468 C469 1.387 . S
C468 H472 0.950 . S
C468 C477 1.390 . S
C469 C468 1.387 . S
C469 C471 1.387 . S
H470 C477 0.950 . S
C471 C469 1.387 . S
C471 C473 1.390 . S
C471 H475 0.950 . S
H472 C468 0.950 . S
C473 C471 1.390 . S
C473 C474 1.387 . S
C473 H476 0.950 . S
C474 C473 1.387 . S
C474 C477 1.387 . S
H475 C471 0.950 . S
H476 C473 0.950 . S
C477 C468 1.390 . S
C477 H470 0.950 . S
C477 C474 1.387 . S
C478 C479 1.387 . S
C478 H482 0.950 . S
C478 C487 1.390 . S
C479 C478 1.387 . S
C479 C481 1.387 . S
H480 C487 0.950 . S
C481 C479 1.387 . S
C481 C483 1.390 . S
C481 H485 0.950 . S
H482 C478 0.950 . S
C483 C481 1.390 . S
C483 C484 1.387 . S
C483 H486 0.950 . S
C484 C483 1.387 . S
C484 C487 1.387 . S
H485 C481 0.950 . S
H486 C483 0.950 . S
C487 C478 1.390 . S
C487 H480 0.950 . S
C487 C484 1.387 . S
C488 C489 1.387 . S
C488 H492 0.950 . S
C488 C497 1.390 . S
C489 C488 1.387 . S
C489 C491 1.387 . S
H490 C497 0.950 . S
C491 C489 1.387 . S
C491 C493 1.390 . S
C491 H495 0.950 . S
H492 C488 0.950 . S
C493 C491 1.390 . S
C493 C494 1.387 . S
C493 H496 0.950 . S
C494 C493 1.387 . S
C494 C497 1.387 . S
H495 C491 0.950 . S
H496 C493 0.950 . S
C497 C488 1.390 . S
C497 H490 0.950 . S
C497 C494 1.387 . S
C498 C499 1.387 . S
C498 H502 0.950 . S
C498 C507 1.390 . S
C499 C498 1.387 . S
C499 C501 1.387 . S
H500 C507 0.950 . S
C501 C499 1.387 . S
C501 C503 1.390 . S
C501 H505 0.950 . S
H502 C498 0.950 . S
C503 C501 1.390 . S
C503 C504 1.387 . S
C503 H506 0.950 . S
C504 C503 1.387 . S
C504 C507 1.387 . S
H505 C501 0.950 . S
H506 C503 0.950 . S
C507 C498 1.390 . S
C507 H500 0.950 . S
C507 C504 1.387 . S
C508 C509 1.387 . S
C508 H512 0.950 . S
C508 C517 1.390 . S
C509 C508 1.387 . S
C509 C511 1.387 . S
H510 C517 0.950 . S
C511 C509 1.387 . S
C511 C513 1.390 . S
C511 H515 0.950 . S
H512 C508 0.950 . S
C513 C511 1.390 . S
C513 C514 1.387 . S
C513 H516 0.950 . S
C514 C513 1.387 . S
C514 C517 1.387 . S
H515 C511 0.950 . S
H516 C513 0.950 . S
C517 C508 1.390 . S
C517 H510 0.950 . S
C517 C514 1.387 . S
C518 C519 1.387 . S
C518 H522 0.950 . S
C518 C527 1.390 . S
C519 C518 1.387 . S
C519 C521 1.387 . S
H520 C527 0.950 . S
C521 C519 1.387 . S
C521 C523 1.390 . S
C521 H525 0.950 . S
H522 C518 0.950 . S
C523 C521 1.390 . S
C523 C524 1.387 . S
C523 H526 0.950 . S
C524 C523 1.387 . S
C524 C527 1.387 . S
H525 C521 0.950 . S
H526 C523 0.950 . S
C527 C518 1.390 . S
C527 H520 0.950 . S
C527 C524 1.387 . S
C528 C529 1.387 . S
C528 H532 0.950 . S
C528 C537 1.390 . S
C529 C528 1.387 . S
C529 C531 1.387 . S
H530 C537 0.950 . S
C531 C529 1.387 . S
C531 C533 1.390 . S
C531 H535 0.950 . S
H532 C528 0.950 . S
C533 C531 1.390 . S
C533 C534 1.387 . S
C533 H536 0.950 . S
C534 C533 1.387 . S
C534 C537 1.387 . S
H535 C531 0.950 . S
H536 C533 0.950 . S
C537 C528 1.390 . S
C537 H530 0.950 . S
C537 C534 1.387 . S
C538 C539 1.387 . S
C538 H542 0.950 . S
C538 C547 1.390 . S
C539 C538 1.387 . S
C539 C541 1.387 . S
H540 C547 0.950 . S
C541 C539 1.387 . S
C541 C543 1.390 . S
C541 H545 0.950 . S
H542 C538 0.950 . S
C543 C541 1.390 . S
C543 C544 1.387 . S
C543 H546 0.950 . S
C544 C543 1.387 . S
C544 C547 1.387 . S
H545 C541 0.950 . S
H546 C543 0.950 . S
C547 C538 1.390 . S
C547 H540 0.950 . S
C547 C544 1.387 . S
C548 C549 1.387 . S
C548 H552 0.950 . S
C548 C557 1.390 . S
C549 C548 1.387 . S
C549 C551 1.387 . S
H550 C557 0.950 . S
C551 C549 1.387 . S
C551 C553 1.390 . S
C551 H555 0.950 . S
H552 C548 0.950 . S
C553 C551 1.390 . S
C553 C554 1.387 . S
C553 H556 0.950 . S
C554 C553 1.387 . S
C554 C557 1.387 . S
H555 C551 0.950 . S
H556 C553 0.950 . S
C557 C548 1.390 . S
C557 H550 0.950 . S
C557 C554 1.387 . S
C558 C559 1.387 . S
C558 H562 0.950 . S
C558 C567 1.390 . S
C559 C558 1.387 . S
C559 C561 1.387 . S
H560 C567 0.950 . S
C561 C559 1.387 . S
C561 C563 1.390 . S
C561 H565 0.950 . S
H562 C558 0.950 . S
C563 C561 1.390 . S
C563 C564 1.387 . S
C563 H566 0.950 . S
C564 C563 1.387 . S
C564 C567 1.387 . S
H565 C561 0.950 . S
H566 C563 0.950 . S
C567 C558 1.390 . S
C567 H560 0.950 . S
C567 C564 1.387 . S
C568 C569 1.387 . S
C568 H572 0.950 . S
C568 C577 1.390 . S
C569 C568 1.387 . S
C569 C571 1.387 . S
H570 C577 0.950 . S
C571 C569 1.387 . S
C571 C573 1.390 . S
C571 H575 0.950 . S
H572 C568 0.950 . S
C573 C571 1.390 . S
C573 C574 1.387 . S
C573 H576 0.950 . S
C574 C573 1.387 . S
C574 C577 1.387 . S
H575 C571 0.950 . S
H576 C573 0.950 . S
C577 C568 1.390 . S
C577 H570 0.950 . S
C577 C574 1.387 . S
C578 C579 1.387 . S
C578 H582 0.950 . S
C578 C587 1.390 . S
C579 C578 1.387 . S
C579 C581 1.387 . S
H580 C587 0.950 . S
C581 C579 1.387 . S
C581 C583 1.390 . S
C581 H585 0.950 . S
H582 C578 0.950 . S
C583 C581 1.390 . S
C583 C584 1.387 . S
C583 H586 0.950 . S
C584 C583 1.387 . S
C584 C587 1.387 . S
H585 C581 0.950 . S
H586 C583 0.950 . S
C587 C578 1.390 . S
C587 H580 0.950 . S
C587 C584 1.387 . S
C588 C589 1.387 . S
C588 H592 0.950 . S
C588 C597 1.390 . S
C589 C588 1.387 . S
C589 C591 1.387 . S
H590 C597 0.950 . S
C591 C589 1.387 . S
C591 C593 1.390 . S
C591 H595 0.950 . S
H592 C588 0.950 . S
C593 C591 1.390 . S
C593 C594 1.387 . S
C593 H596 0.950 . S
C594 C593 1.387 . S
C594 C597 1.387 . S
H595 C591 0.950 . S
H596 C593 0.950 . S
C597 C588 1.390 . S
C597 H590 0.950 . S
C597 C594 1.387 . S
C598 C599 1.387 . S
C598 H602 0.950 . S
C598 C607 1.390 . S
C599 C598 1.387 . S
C599 C601 1.387 . S
H600 C607 0.950 . S
C601 C599 1.387 . S
C601 C603 1.390 . S
C601 H605 0.950 . S
H602 C598 0.950 . S
C603 C601 1.390 . S
C603 C604 1.387 . S
C603 H606 0.950 . S
C604 C603 1.387 . S
C604 C607 1.387 . S
H605 C601 0.950 . S
H606 C603 0.950 . S
C607 C598 1.390 . S
C607 H600 0.950 . S
C607 C604 1.387 . S
C608 C609 1.387 . S
C608 H612 0.950 . S
C608 C617 1.390 1_455 S
C609 C608 1.387 . S
C609 C611 1.387 . S
H610 C617 0.950 . S
C611 C609 1.387 . S
C611 C613 1.390 1_455 S
C611 H615 0.950 . S
H612 C608 0.950 . S
C613 C611 1.390 1_655 S
C613 C614 1.387 . S
C613 H616 0.950 . S
C614 C613 1.387 . S
C614 C617 1.387 . S
H615 C611 0.950 . S
H616 C613 0.950 . S
C617 C608 1.390 1_655 S
C617 H610 0.950 . S
C617 C614 1.387 . S
C618 C619 1.387 . S
C618 H622 0.950 . S
C618 C627 1.390 . S
C619 C618 1.387 . S
C619 C621 1.387 . S
H620 C627 0.950 . S
C621 C619 1.387 . S
C621 C623 1.390 . S
C621 H625 0.950 . S
H622 C618 0.950 . S
C623 C621 1.390 . S
C623 C624 1.387 . S
C623 H626 0.950 . S
C624 C623 1.387 . S
C624 C627 1.387 . S
H625 C621 0.950 . S
H626 C623 0.950 . S
C627 C618 1.390 . S
C627 H620 0.950 . S
C627 C624 1.387 . S
C628 C629 1.387 . S
C628 H632 0.950 . S
C628 C637 1.390 . S
C629 C628 1.387 . S
C629 C631 1.387 . S
H630 C637 0.950 . S
C631 C629 1.387 . S
C631 C633 1.390 . S
C631 H635 0.950 . S
H632 C628 0.950 . S
C633 C631 1.390 . S
C633 C634 1.387 . S
C633 H636 0.950 . S
C634 C633 1.387 . S
C634 C637 1.387 . S
H635 C631 0.950 . S
H636 C633 0.950 . S
C637 C628 1.390 . S
C637 H630 0.950 . S
C637 C634 1.387 . S
C638 C639 1.387 . S
C638 H642 0.950 . S
C638 C647 1.390 . S
C639 C638 1.387 . S
C639 C641 1.387 . S
H640 C647 0.950 . S
C641 C639 1.387 . S
C641 C643 1.390 . S
C641 H645 0.950 . S
H642 C638 0.950 . S
C643 C641 1.390 . S
C643 C644 1.387 . S
C643 H646 0.950 . S
C644 C643 1.387 . S
C644 C647 1.387 . S
H645 C641 0.950 . S
H646 C643 0.950 . S
C647 C638 1.390 . S
C647 H640 0.950 . S
C647 C644 1.387 . S
C648 C649 1.387 . S
C648 H652 0.950 . S
C648 C657 1.390 1_655 S
C649 C648 1.387 . S
C649 C651 1.387 . S
H650 C657 0.950 . S
C651 C649 1.387 . S
C651 C653 1.390 1_655 S
C651 H655 0.950 . S
H652 C648 0.950 . S
C653 C651 1.390 1_455 S
C653 C654 1.387 . S
C653 H656 0.950 . S
C654 C653 1.387 . S
C654 C657 1.387 . S
H655 C651 0.950 . S
H656 C653 0.950 . S
C657 C648 1.390 1_455 S
C657 H650 0.950 . S
C657 C654 1.387 . S
C658 C659 1.387 . S
C658 H662 0.950 . S
C658 C667 1.390 . S
C659 C658 1.387 . S
C659 C661 1.387 . S
H660 C667 0.950 . S
C661 C659 1.387 . S
C661 C663 1.390 . S
C661 H665 0.950 . S
H662 C658 0.950 . S
C663 C661 1.390 . S
C663 C664 1.387 . S
C663 H666 0.950 . S
C664 C663 1.387 . S
C664 C667 1.387 . S
H665 C661 0.950 . S
H666 C663 0.950 . S
C667 C658 1.390 . S
C667 H660 0.950 . S
C667 C664 1.387 . S
C668 C669 1.387 . S
C668 H672 0.950 . S
C668 C677 1.390 . S
C669 C668 1.387 . S
C669 C671 1.387 . S
H670 C677 0.950 . S
C671 C669 1.387 . S
C671 C673 1.390 . S
C671 H675 0.950 . S
H672 C668 0.950 . S
C673 C671 1.390 . S
C673 C674 1.387 . S
C673 H676 0.950 . S
C674 C673 1.387 . S
C674 C677 1.387 . S
H675 C671 0.950 . S
H676 C673 0.950 . S
C677 C668 1.390 . S
C677 H670 0.950 . S
C677 C674 1.387 . S
C678 C679 1.387 . S
C678 H682 0.950 . S
C678 C687 1.390 . S
C679 C678 1.387 . S
C679 C681 1.387 . S
H680 C687 0.950 . S
C681 C679 1.387 . S
C681 C683 1.390 . S
C681 H685 0.950 . S
H682 C678 0.950 . S
C683 C681 1.390 . S
C683 C684 1.387 . S
C683 H686 0.950 . S
C684 C683 1.387 . S
C684 C687 1.387 . S
H685 C681 0.950 . S
H686 C683 0.950 . S
C687 C678 1.390 . S
C687 H680 0.950 . S
C687 C684 1.387 . S
C688 C689 1.387 . S
C688 H692 0.950 . S
C688 C697 1.390 . S
C689 C688 1.387 . S
C689 C691 1.387 . S
H690 C697 0.950 . S
C691 C689 1.387 . S
C691 C693 1.390 . S
C691 H695 0.950 . S
H692 C688 0.950 . S
C693 C691 1.390 . S
C693 C694 1.387 . S
C693 H696 0.950 . S
C694 C693 1.387 . S
C694 C697 1.387 . S
H695 C691 0.950 . S
H696 C693 0.950 . S
C697 C688 1.390 . S
C697 H690 0.950 . S
C697 C694 1.387 . S
C698 C699 1.387 . S
C698 H702 0.950 . S
C698 C707 1.390 . S
C699 C698 1.387 . S
C699 C701 1.387 . S
H700 C707 0.950 . S
C701 C699 1.387 . S
C701 C703 1.390 . S
C701 H705 0.950 . S
H702 C698 0.950 . S
C703 C701 1.390 . S
C703 C704 1.387 . S
C703 H706 0.950 . S
C704 C703 1.387 . S
C704 C707 1.387 . S
H705 C701 0.950 . S
H706 C703 0.950 . S
C707 C698 1.390 . S
C707 H700 0.950 . S
C707 C704 1.387 . S
C708 C709 1.387 . S
C708 H712 0.950 . S
C708 C717 1.390 . S
C709 C708 1.387 . S
C709 C711 1.387 . S
H710 C717 0.950 . S
C711 C709 1.387 . S
C711 C713 1.390 . S
C711 H715 0.950 . S
H712 C708 0.950 . S
C713 C711 1.390 . S
C713 C714 1.387 . S
C713 H716 0.950 . S
C714 C713 1.387 . S
C714 C717 1.387 . S
H715 C711 0.950 . S
H716 C713 0.950 . S
C717 C708 1.390 . S
C717 H710 0.950 . S
C717 C714 1.387 . S
C718 C719 1.387 . S
C718 H722 0.950 . S
C718 C727 1.390 . S
C719 C718 1.387 . S
C719 C721 1.387 . S
H720 C727 0.950 . S
C721 C719 1.387 . S
C721 C723 1.390 . S
C721 H725 0.950 . S
H722 C718 0.950 . S
C723 C721 1.390 . S
C723 C724 1.387 . S
C723 H726 0.950 . S
C724 C723 1.387 . S
C724 C727 1.387 . S
H725 C721 0.950 . S
H726 C723 0.950 . S
C727 C718 1.390 . S
C727 H720 0.950 . S
C727 C724 1.387 . S
C728 C729 1.387 . S
C728 H732 0.950 . S
C728 C737 1.390 . S
C729 C728 1.387 . S
C729 C731 1.387 . S
H730 C737 0.950 . S
C731 C729 1.387 . S
C731 C733 1.390 . S
C731 H735 0.950 . S
H732 C728 0.950 . S
C733 C731 1.390 . S
C733 C734 1.387 . S
C733 H736 0.950 . S
C734 C733 1.387 . S
C734 C737 1.387 . S
H735 C731 0.950 . S
H736 C733 0.950 . S
C737 C728 1.390 . S
C737 H730 0.950 . S
C737 C734 1.387 . S
C738 C739 1.387 . S
C738 H742 0.950 . S
C738 C747 1.390 1_655 S
C739 C738 1.387 . S
C739 C741 1.387 . S
H740 C747 0.950 . S
C741 C739 1.387 . S
C741 C743 1.390 1_655 S
C741 H745 0.950 . S
H742 C738 0.950 . S
C743 C741 1.390 1_455 S
C743 C744 1.387 . S
C743 H746 0.950 . S
C744 C743 1.387 . S
C744 C747 1.387 . S
H745 C741 0.950 . S
H746 C743 0.950 . S
C747 C738 1.390 1_455 S
C747 H740 0.950 . S
C747 C744 1.387 . S
C748 C749 1.387 . S
C748 H752 0.950 . S
C748 C757 1.390 . S
C749 C748 1.387 . S
C749 C751 1.387 . S
H750 C757 0.950 . S
C751 C749 1.387 . S
C751 C753 1.390 . S
C751 H755 0.950 . S
H752 C748 0.950 . S
C753 C751 1.390 . S
C753 C754 1.387 . S
C753 H756 0.950 . S
C754 C753 1.387 . S
C754 C757 1.387 . S
H755 C751 0.950 . S
H756 C753 0.950 . S
C757 C748 1.390 . S
C757 H750 0.950 . S
C757 C754 1.387 . S
C758 C759 1.387 . S
C758 H762 0.950 . S
C758 C767 1.390 1_455 S
C759 C758 1.387 . S
C759 C761 1.387 . S
H760 C767 0.950 . S
C761 C759 1.387 . S
C761 C763 1.390 1_455 S
C761 H765 0.950 . S
H762 C758 0.950 . S
C763 C761 1.390 1_655 S
C763 C764 1.387 . S
C763 H766 0.950 . S
C764 C763 1.387 . S
C764 C767 1.387 . S
H765 C761 0.950 . S
H766 C763 0.950 . S
C767 C758 1.390 1_655 S
C767 H760 0.950 . S
C767 C764 1.387 . S
C768 C769 1.387 . S
C768 H772 0.950 . S
C768 C777 1.390 1_556 S
C769 C768 1.387 . S
C769 C771 1.387 . S
H770 C777 0.950 . S
C771 C769 1.387 . S
C771 C773 1.390 1_556 S
C771 H775 0.950 . S
H772 C768 0.950 . S
C773 C771 1.390 1_554 S
C773 C774 1.387 . S
C773 H776 0.950 . S
C774 C773 1.387 . S
C774 C777 1.387 . S
H775 C771 0.950 . S
H776 C773 0.950 . S
C777 C768 1.390 1_554 S
C777 H770 0.950 . S
C777 C774 1.387 . S
C778 C779 1.387 . S
C778 H782 0.950 . S
C778 C787 1.390 . S
C779 C778 1.387 . S
C779 C781 1.387 . S
H780 C787 0.950 . S
C781 C779 1.387 . S
C781 C783 1.390 . S
C781 H785 0.950 . S
H782 C778 0.950 . S
C783 C781 1.390 . S
C783 C784 1.387 . S
C783 H786 0.950 . S
C784 C783 1.387 . S
C784 C787 1.387 . S
H785 C781 0.950 . S
H786 C783 0.950 . S
C787 C778 1.390 . S
C787 H780 0.950 . S
C787 C784 1.387 . S
C788 C789 1.387 . S
C788 H792 0.950 . S
C788 C797 1.390 . S
C789 C788 1.387 . S
C789 C791 1.387 . S
H790 C797 0.950 . S
C791 C789 1.387 . S
C791 C793 1.390 . S
C791 H795 0.950 . S
H792 C788 0.950 . S
C793 C791 1.390 . S
C793 C794 1.387 . S
C793 H796 0.950 . S
C794 C793 1.387 . S
C794 C797 1.387 . S
H795 C791 0.950 . S
H796 C793 0.950 . S
C797 C788 1.390 . S
C797 H790 0.950 . S
C797 C794 1.387 . S
C798 C799 1.387 . S
C798 H802 0.950 . S
C798 C807 1.390 . S
C799 C798 1.387 . S
C799 C801 1.387 . S
H800 C807 0.950 . S
C801 C799 1.387 . S
C801 C803 1.390 . S
C801 H805 0.950 . S
H802 C798 0.950 . S
C803 C801 1.390 . S
C803 C804 1.387 . S
C803 H806 0.950 . S
C804 C803 1.387 . S
C804 C807 1.387 . S
H805 C801 0.950 . S
H806 C803 0.950 . S
C807 C798 1.390 . S
C807 H800 0.950 . S
C807 C804 1.387 . S
C808 C809 1.387 . S
C808 H812 0.951 . S
C808 C817 1.390 . S
C809 C808 1.387 . S
C809 C811 1.387 1_554 S
H810 C817 0.949 . S
C811 C809 1.387 1_556 S
C811 C813 1.390 . S
C811 H815 0.949 . S
H812 C808 0.951 . S
C813 C811 1.390 . S
C813 C814 1.387 . S
C813 H816 0.951 . S
C814 C813 1.387 . S
C814 C817 1.387 1_556 S
H815 C811 0.949 . S
H816 C813 0.951 . S
C817 C808 1.390 . S
C817 H810 0.949 . S
C817 C814 1.387 1_554 S
C818 C819 1.387 . S
C818 H822 0.950 . S
C818 C827 1.390 . S
C819 C818 1.387 . S
C819 C821 1.387 . S
H820 C827 0.950 . S
C821 C819 1.387 . S
C821 C823 1.390 . S
C821 H825 0.950 . S
H822 C818 0.950 . S
C823 C821 1.390 . S
C823 C824 1.387 . S
C823 H826 0.950 . S
C824 C823 1.387 . S
C824 C827 1.387 . S
H825 C821 0.950 . S
H826 C823 0.950 . S
C827 C818 1.390 . S
C827 H820 0.950 . S
C827 C824 1.387 . S
C828 C829 1.387 . S
C828 H832 0.950 . S
C828 C837 1.390 . S
C829 C828 1.387 . S
C829 C831 1.387 . S
H830 C837 0.950 . S
C831 C829 1.387 . S
C831 C833 1.390 . S
C831 H835 0.950 . S
H832 C828 0.950 . S
C833 C831 1.390 . S
C833 C834 1.387 . S
C833 H836 0.950 . S
C834 C833 1.387 . S
C834 C837 1.387 . S
H835 C831 0.950 . S
H836 C833 0.950 . S
C837 C828 1.390 . S
C837 H830 0.950 . S
C837 C834 1.387 . S
C838 C839 1.387 . S
C838 H842 0.950 . S
C838 C847 1.390 . S
C839 C838 1.387 . S
C839 C841 1.387 . S
H840 C847 0.950 . S
C841 C839 1.387 . S
C841 C843 1.390 . S
C841 H845 0.950 . S
H842 C838 0.950 . S
C843 C841 1.390 . S
C843 C844 1.387 . S
C843 H846 0.950 . S
C844 C843 1.387 . S
C844 C847 1.387 . S
H845 C841 0.950 . S
H846 C843 0.950 . S
C847 C838 1.390 . S
C847 H840 0.950 . S
C847 C844 1.387 . S
C848 C849 1.387 . S
C848 H852 0.950 . S
C848 C857 1.390 1_545 S
C849 C848 1.387 . S
C849 C851 1.387 . S
H850 C857 0.950 . S
C851 C849 1.387 . S
C851 C853 1.390 1_545 S
C851 H855 0.950 . S
H852 C848 0.950 . S
C853 C851 1.390 1_565 S
C853 C854 1.387 . S
C853 H856 0.950 . S
C854 C853 1.387 . S
C854 C857 1.387 . S
H855 C851 0.950 . S
H856 C853 0.950 . S
C857 C848 1.390 1_565 S
C857 H850 0.950 . S
C857 C854 1.387 . S
C858 C859 1.387 . S
C858 H862 0.950 . S
C858 C867 1.390 . S
C859 C858 1.387 . S
C859 C861 1.387 . S
H860 C867 0.950 . S
C861 C859 1.387 . S
C861 C863 1.390 . S
C861 H865 0.950 . S
H862 C858 0.950 . S
C863 C861 1.390 . S
C863 C864 1.387 . S
C863 H866 0.950 . S
C864 C863 1.387 . S
C864 C867 1.387 . S
H865 C861 0.950 . S
H866 C863 0.950 . S
C867 C858 1.390 . S
C867 H860 0.950 . S
C867 C864 1.387 . S
C868 C869 1.387 . S
C868 H872 0.950 . S
C868 C877 1.390 1_564 S
C869 C868 1.387 . S
C869 C871 1.387 . S
H870 C877 0.950 . S
C871 C869 1.387 . S
C871 C873 1.390 1_564 S
C871 H875 0.950 . S
H872 C868 0.950 . S
C873 C871 1.390 1_546 S
C873 C874 1.387 . S
C873 H876 0.950 . S
C874 C873 1.387 . S
C874 C877 1.387 . S
H875 C871 0.950 . S
H876 C873 0.950 . S
C877 C868 1.390 1_546 S
C877 H870 0.950 . S
C877 C874 1.387 . S
C878 C879 1.387 . S
C878 H882 0.950 . S
C878 C887 1.390 . S
C879 C878 1.387 . S
C879 C881 1.387 . S
H880 C887 0.950 . S
C881 C879 1.387 . S
C881 C883 1.390 . S
C881 H885 0.950 . S
H882 C878 0.950 . S
C883 C881 1.390 . S
C883 C884 1.387 . S
C883 H886 0.950 . S
C884 C883 1.387 . S
C884 C887 1.387 . S
H885 C881 0.950 . S
H886 C883 0.950 . S
C887 C878 1.390 . S
C887 H880 0.950 . S
C887 C884 1.387 . S
C888 C889 1.387 . S
C888 H892 0.950 . S
C888 C897 1.390 1_545 S
C889 C888 1.387 . S
C889 C891 1.387 . S
H890 C897 0.950 . S
C891 C889 1.387 . S
C891 C893 1.390 1_545 S
C891 H895 0.950 . S
H892 C888 0.950 . S
C893 C891 1.390 1_565 S
C893 C894 1.387 . S
C893 H896 0.950 . S
C894 C893 1.387 . S
C894 C897 1.387 . S
H895 C891 0.950 . S
H896 C893 0.950 . S
C897 C888 1.390 1_565 S
C897 H890 0.950 . S
C897 C894 1.387 . S
C898 C899 1.387 . S
C898 H902 0.950 . S
C898 C907 1.390 . S
C899 C898 1.387 . S
C899 C901 1.387 . S
H900 C907 0.950 . S
C901 C899 1.387 . S
C901 C903 1.390 . S
C901 H905 0.950 . S
H902 C898 0.950 . S
C903 C901 1.390 . S
C903 C904 1.387 . S
C903 H906 0.950 . S
C904 C903 1.387 . S
C904 C907 1.387 . S
H905 C901 0.950 . S
H906 C903 0.950 . S
C907 C898 1.390 . S
C907 H900 0.950 . S
C907 C904 1.387 . S
C908 C909 1.387 . S
C908 H912 0.950 . S
C908 C917 1.390 1_564 S
C909 C908 1.387 . S
C909 C911 1.387 . S
H910 C917 0.950 . S
C911 C909 1.387 . S
C911 C913 1.390 1_564 S
C911 H915 0.950 . S
H912 C908 0.950 . S
C913 C911 1.390 1_546 S
C913 C914 1.387 . S
C913 H916 0.950 . S
C914 C913 1.387 . S
C914 C917 1.387 . S
H915 C911 0.950 . S
H916 C913 0.950 . S
C917 C908 1.390 1_546 S
C917 H910 0.950 . S
C917 C914 1.387 . S
C918 C919 1.387 . S
C918 H922 0.950 . S
C918 C927 1.390 . S
C919 C918 1.387 . S
C919 C921 1.387 . S
H920 C927 0.950 . S
C921 C919 1.387 . S
C921 C923 1.390 . S
C921 H925 0.950 . S
H922 C918 0.950 . S
C923 C921 1.390 . S
C923 C924 1.387 . S
C923 H926 0.950 . S
C924 C923 1.387 . S
C924 C927 1.387 . S
H925 C921 0.950 . S
H926 C923 0.950 . S
C927 C918 1.390 . S
C927 H920 0.950 . S
C927 C924 1.387 . S
C928 C929 1.387 . S
C928 H932 0.950 . S
C928 C937 1.390 . S
C929 C928 1.387 . S
C929 C931 1.387 . S
H930 C937 0.950 . S
C931 C929 1.387 . S
C931 C933 1.390 . S
C931 H935 0.955 . S
H932 C928 0.950 . S
C933 C931 1.390 . S
C933 C934 1.387 . S
C933 H936 0.949 . S
C934 C933 1.387 . S
C934 C937 1.387 . S
H935 C931 0.955 . S
H936 C933 0.949 . S
C937 C928 1.390 . S
C937 H930 0.950 . S
C937 C934 1.387 . S
C938 C939 1.387 . S
C938 H942 0.950 . S
C938 C947 1.390 . S
C939 C938 1.387 . S
C939 C941 1.387 . S
H940 C947 0.950 . S
C941 C939 1.387 . S
C941 C943 1.390 . S
C941 H945 0.950 . S
H942 C938 0.950 . S
C943 C941 1.390 . S
C943 C944 1.387 . S
C943 H946 0.950 . S
C944 C943 1.387 . S
C944 C947 1.387 . S
H945 C941 0.950 . S
H946 C943 0.950 . S
C947 C938 1.390 . S
C947 H940 0.950 . S
C947 C944 1.387 . S
C948 C949 1.387 . S
C948 H952 0.950 . S
C948 C957 1.390 . S
C949 C948 1.387 . S
C949 C951 1.387 . S
H950 C957 0.950 . S
C951 C949 1.387 . S
C951 C953 1.390 . S
C951 H955 0.950 . S
H952 C948 0.950 . S
C953 C951 1.390 . S
C953 C954 1.387 . S
C953 H956 0.950 . S
C954 C953 1.387 . S
C954 C957 1.387 . S
H955 C951 0.950 . S
H956 C953 0.950 . S
C957 C948 1.390 . S
C957 H950 0.950 . S
C957 C954 1.387 . S
C958 C959 1.387 . S
C958 H962 0.950 . S
C958 C967 1.390 1_655 S
C959 C958 1.387 . S
C959 C961 1.387 . S
H960 C967 0.950 . S
C961 C959 1.387 . S
C961 C963 1.390 1_655 S
C961 H965 0.950 . S
H962 C958 0.950 . S
C963 C961 1.390 1_455 S
C963 C964 1.387 . S
C963 H966 0.950 . S
C964 C963 1.387 . S
C964 C967 1.387 . S
H965 C961 0.950 . S
H966 C963 0.950 . S
C967 C958 1.390 1_455 S
C967 H960 0.950 . S
C967 C964 1.387 . S
C968 C969 1.387 1_554 S
C968 H972 0.950 . S
C968 C977 1.390 . S
C969 C968 1.387 1_556 S
C969 C971 1.387 . S
H970 C977 0.950 . S
C971 C969 1.387 . S
C971 C973 1.390 . S
C971 H975 0.950 . S
H972 C968 0.950 . S
C973 C971 1.390 . S
C973 C974 1.387 . S
C973 H976 0.950 . S
C974 C973 1.387 . S
C974 C977 1.387 1_556 S
H975 C971 0.950 . S
H976 C973 0.950 . S
C977 C968 1.390 . S
C977 H970 0.950 . S
C977 C974 1.387 1_554 S
C978 C979 1.387 . S
C978 H982 0.950 . S
C978 C987 1.390 1_655 S
C979 C978 1.387 . S
C979 C981 1.387 . S
H980 C987 0.950 . S
C981 C979 1.387 . S
C981 C983 1.390 1_655 S
C981 H985 0.950 . S
H982 C978 0.950 . S
C983 C981 1.390 1_455 S
C983 C984 1.387 . S
C983 H986 0.950 . S
C984 C983 1.387 . S
C984 C987 1.387 . S
H985 C981 0.950 . S
H986 C983 0.950 . S
C987 C978 1.390 1_455 S
C987 H980 0.950 . S
C987 C984 1.387 . S
C988 C989 1.387 . S
C988 H992 0.950 . S
C988 C997 1.390 . S
C989 C988 1.387 . S
C989 C991 1.387 . S
H990 C997 0.950 . S
C991 C989 1.387 . S
C991 C993 1.390 . S
C991 H995 0.950 . S
H992 C988 0.950 . S
C993 C991 1.390 . S
C993 C994 1.387 . S
C993 H996 0.950 . S
C994 C993 1.387 . S
C994 C997 1.387 . S
H995 C991 0.950 . S
H996 C993 0.950 . S
C997 C988 1.390 . S
C997 H990 0.950 . S
C997 C994 1.387 . S
C998 C999 1.387 . S
C998 H1002 0.950 . S
C998 C1007 1.390 . S
C999 C998 1.387 . S
C999 C1001 1.387 . S
H1000 C1007 0.950 . S
C1001 C999 1.387 . S
C1001 C1003 1.390 . S
C1001 H1005 0.950 . S
H1002 C998 0.950 . S
C1003 C1001 1.390 . S
C1003 C1004 1.387 . S
C1003 H1006 0.950 . S
C1004 C1003 1.387 . S
C1004 C1007 1.387 . S
H1005 C1001 0.950 . S
H1006 C1003 0.950 . S
C1007 C998 1.390 . S
C1007 H1000 0.950 . S
C1007 C1004 1.387 . S
C1008 C1009 1.387 . S
C1008 H1012 0.950 . S
C1008 C1017 1.390 . S
C1009 C1008 1.387 . S
C1009 C1011 1.387 . S
H1010 C1017 0.950 . S
C1011 C1009 1.387 . S
C1011 C1013 1.390 . S
C1011 H1015 0.950 . S
H1012 C1008 0.950 . S
C1013 C1011 1.390 . S
C1013 C1014 1.387 . S
C1013 H1016 0.950 . S
C1014 C1013 1.387 . S
C1014 C1017 1.387 . S
H1015 C1011 0.950 . S
H1016 C1013 0.950 . S
C1017 C1008 1.390 . S
C1017 H1010 0.950 . S
C1017 C1014 1.387 . S
C1018 C1019 1.387 . S
C1018 H1022 0.950 . S
C1018 C1027 1.390 . S
C1019 C1018 1.387 . S
C1019 C1021 1.387 . S
H1020 C1027 0.950 . S
C1021 C1019 1.387 . S
C1021 C1023 1.390 . S
C1021 H1025 0.950 . S
H1022 C1018 0.950 . S
C1023 C1021 1.390 . S
C1023 C1024 1.387 . S
C1023 H1026 0.950 . S
C1024 C1023 1.387 . S
C1024 C1027 1.387 . S
H1025 C1021 0.950 . S
H1026 C1023 0.950 . S
C1027 C1018 1.390 . S
C1027 H1020 0.950 . S
C1027 C1024 1.387 . S
C1028 C1029 1.387 . S
C1028 H1032 0.950 . S
C1028 C1037 1.390 . S
C1029 C1028 1.387 . S
C1029 C1031 1.387 . S
H1030 C1037 0.950 . S
C1031 C1029 1.387 . S
C1031 C1033 1.390 . S
C1031 H1035 0.950 . S
H1032 C1028 0.950 . S
C1033 C1031 1.390 . S
C1033 C1034 1.387 . S
C1033 H1036 0.950 . S
C1034 C1033 1.387 . S
C1034 C1037 1.387 . S
H1035 C1031 0.950 . S
H1036 C1033 0.950 . S
C1037 C1028 1.390 . S
C1037 H1030 0.950 . S
C1037 C1034 1.387 . S
C1038 C1039 1.387 . S
C1038 H1042 0.950 . S
C1038 C1047 1.390 . S
C1039 C1038 1.387 . S
C1039 C1041 1.387 . S
H1040 C1047 0.950 . S
C1041 C1039 1.387 . S
C1041 C1043 1.390 . S
C1041 H1045 0.950 . S
H1042 C1038 0.950 . S
C1043 C1041 1.390 . S
C1043 C1044 1.387 . S
C1043 H1046 0.950 . S
C1044 C1043 1.387 . S
C1044 C1047 1.387 . S
H1045 C1041 0.950 . S
H1046 C1043 0.950 . S
C1047 C1038 1.390 . S
C1047 H1040 0.950 . S
C1047 C1044 1.387 . S
C1048 C1049 1.387 . S
C1048 H1052 0.950 . S
C1048 C1057 1.390 1_655 S
C1049 C1048 1.387 . S
C1049 C1051 1.387 . S
H1050 C1057 0.950 . S
C1051 C1049 1.387 . S
C1051 C1053 1.390 1_655 S
C1051 H1055 0.950 . S
H1052 C1048 0.950 . S
C1053 C1051 1.390 1_455 S
C1053 C1054 1.387 . S
C1053 H1056 0.950 . S
C1054 C1053 1.387 . S
C1054 C1057 1.387 . S
H1055 C1051 0.950 . S
H1056 C1053 0.950 . S
C1057 C1048 1.390 1_455 S
C1057 H1050 0.950 . S
C1057 C1054 1.387 . S
C1058 C1059 1.387 . S
C1058 H1062 0.950 . S
C1058 C1067 1.390 . S
C1059 C1058 1.387 . S
C1059 C1061 1.387 . S
H1060 C1067 0.950 . S
C1061 C1059 1.387 . S
C1061 C1063 1.390 . S
C1061 H1065 0.950 . S
H1062 C1058 0.950 . S
C1063 C1061 1.390 . S
C1063 C1064 1.387 . S
C1063 H1066 0.950 . S
C1064 C1063 1.387 . S
C1064 C1067 1.387 . S
H1065 C1061 0.950 . S
H1066 C1063 0.950 . S
C1067 C1058 1.390 . S
C1067 H1060 0.950 . S
C1067 C1064 1.387 . S
C1068 C1069 1.387 . S
C1068 H1072 0.950 . S
C1068 C1077 1.390 . S
C1069 C1068 1.387 . S
C1069 C1071 1.387 . S
H1070 C1077 0.950 . S
C1071 C1069 1.387 . S
C1071 C1073 1.390 . S
C1071 H1075 0.950 . S
H1072 C1068 0.950 . S
C1073 C1071 1.390 . S
C1073 C1074 1.387 . S
C1073 H1076 0.950 . S
C1074 C1073 1.387 . S
C1074 C1077 1.387 . S
H1075 C1071 0.950 . S
H1076 C1073 0.950 . S
C1077 C1068 1.390 . S
C1077 H1070 0.950 . S
C1077 C1074 1.387 . S
C1078 C1079 1.387 . S
C1078 H1082 0.950 . S
C1078 C1087 1.390 1_655 S
C1079 C1078 1.387 . S
C1079 C1081 1.387 . S
H1080 C1087 0.950 . S
C1081 C1079 1.387 . S
C1081 C1083 1.390 1_655 S
C1081 H1085 0.950 . S
H1082 C1078 0.950 . S
C1083 C1081 1.390 1_455 S
C1083 C1084 1.387 . S
C1083 H1086 0.950 . S
C1084 C1083 1.387 . S
C1084 C1087 1.387 . S
H1085 C1081 0.950 . S
H1086 C1083 0.950 . S
C1087 C1078 1.390 1_455 S
C1087 H1080 0.950 . S
C1087 C1084 1.387 . S
C449 C325 1.729 . S
C454 C3 1.728 . S
C459 C283 1.729 . S
C464 C17 1.728 . S
C469 C297 1.729 . S
C474 C31 1.730 . S
C479 C311 1.729 . S
C484 C45 1.730 . S
C489 C59 1.730 . S
C494 C241 1.729 . S
C499 C255 1.728 . S
C504 C73 1.728 . S
C509 C87 1.728 . S
C514 C269 1.729 . S
C519 C101 1.729 . S
C524 C227 1.728 . S
C529 C437 1.729 . S
C534 C115 1.730 . S
C539 C129 1.728 . S
C544 C395 1.729 . S
C549 C143 1.730 . S
C554 C409 1.730 . S
C559 C157 1.729 . S
C564 C423 1.728 . S
C569 C171 1.728 . S
C574 C353 1.728 . S
C579 C185 1.730 . S
C584 C367 1.729 . S
C589 C199 1.730 . S
C594 C381 1.730 . S
C599 C213 1.730 . S
C604 C339 1.729 . S
C609 C7 1.364 . S
C614 C175 1.360 . S
C619 C413 1.364 . S
C624 C21 1.360 . S
C629 C35 1.360 . S
C634 C203 1.364 . S
C639 C441 1.363 . S
C644 C49 1.361 . S
C649 C119 1.360 . S
C654 C63 1.364 . S
C659 C77 1.360 . S
C664 C357 1.364 . S
C669 C91 1.360 . S
C674 C147 1.364 . S
C679 C105 1.363 . S
C684 C385 1.361 . S
C689 C301 1.361 . S
C694 C133 1.363 . S
C699 C329 1.364 . S
C704 C161 1.360 . S
C709 C189 1.363 . S
C714 C245 1.361 . S
C719 C273 1.361 . S
C724 C217 1.363 . S
C729 C399 1.364 . S
C734 C231 1.360 . S
C739 C259 1.364 . S
C744 C427 1.360 . S
C749 C343 1.364 . S
C754 C287 1.360 . S
C759 C371 1.361 . S
C764 C315 1.364 . S
C769 C64 1.385 . S
C774 C8 1.385 . S
C779 C78 1.379 . S
C784 C22 1.379 . S
C789 C36 1.382 . S
C794 C92 1.382 . S
C799 C50 1.379 . S
C804 C106 1.379 . S
C809 C176 1.385 . S
C814 C120 1.385 . S
C819 C190 1.379 . S
C824 C134 1.379 . S
C829 C204 1.382 . S
C834 C148 1.382 . S
C839 C162 1.379 . S
C844 C218 1.379 . S
C849 C232 1.382 . S
C854 C288 1.382 . S
C859 C246 1.379 . S
C864 C302 1.379 . S
C869 C260 1.385 . S
C874 C316 1.385 . S
C879 C274 1.379 . S
C884 C330 1.379 . S
C889 C400 1.379 . S
C894 C344 1.379 . S
C899 C414 1.382 . S
C904 C358 1.382 . S
C909 C428 1.385 . S
C914 C372 1.385 . S
C919 C442 1.382 . S
C924 C386 1.382 . S
C929 C429 1.527 . S
C934 C9 1.528 . S
C939 C23 1.529 . S
C944 C219 1.526 . S
C949 C401 1.529 . S
C954 C37 1.526 . S
C959 C51 1.528 . S
C964 C191 1.526 . S
C969 C373 1.526 . S
C974 C65 1.529 . S
C979 C79 1.528 . S
C984 C163 1.526 . S
C989 C93 1.526 . S
C994 C345 1.529 . S
C999 C135 1.526 . S
C1004 C107 1.529 . S
C1009 C121 1.529 . S
C1014 C317 1.526 . S
C1019 C289 1.529 . S
C1024 C149 1.526 . S
C1029 C177 1.526 . S
C1034 C261 1.528 . S
C1039 C205 1.529 . S
C1044 C233 1.526 . S
C1049 C443 1.526 . S
C1054 C247 1.528 . S
C1059 C275 1.529 . S
C1064 C415 1.526 . S
C1069 C303 1.529 . S
C1074 C387 1.526 . S
C1079 C359 1.528 . S
C1084 C331 1.526 . S
