# Generated by pormake.
# Topology wiu, (6)-cn, num edge types: 1
# Building blocks:
#     Node 0, Type 0, BuildingBlock: INOVEN_clean_sbu_0, # of connection points: 6
#     Node 1, Type 0, BuildingBlock: INOVEN_clean_sbu_0, # of connection points: 6
#     Node 2, Type 0, BuildingBlock: INOVEN_clean_sbu_0, # of connection points: 6
#     Node 3, Type 0, BuildingBlock: INOVEN_clean_sbu_0, # of connection points: 6
#     Node 4, Type 0, BuildingBlock: INOVEN_clean_sbu_0, # of connection points: 6
#     Node 5, Type 0, BuildingBlock: INOVEN_clean_sbu_0, # of connection points: 6
#     Node 6, Type 0, BuildingBlock: INOVEN_clean_sbu_0, # of connection points: 6
#     Node 7, Type 0, BuildingBlock: INOVEN_clean_sbu_0, # of connection points: 6
#     Node 8, Type 0, BuildingBlock: INOVEN_clean_sbu_0, # of connection points: 6
#     Node 9, Type 0, BuildingBlock: INOVEN_clean_sbu_0, # of connection points: 6
#     Node 10, Type 0, BuildingBlock: INOVEN_clean_sbu_0, # of connection points: 6
#     Node 11, Type 0, BuildingBlock: INOVEN_clean_sbu_0, # of connection points: 6
#     Node 12, Type 0, BuildingBlock: INOVEN_clean_sbu_0, # of connection points: 6
#     Node 13, Type 0, BuildingBlock: INOVEN_clean_sbu_0, # of connection points: 6
#     Node 14, Type 0, BuildingBlock: INOVEN_clean_sbu_0, # of connection points: 6
#     Node 15, Type 0, BuildingBlock: INOVEN_clean_sbu_0, # of connection points: 6
#     Edge 16, Type (0, 0), BuildingBlock: EZIPEK_clean_linker_0, # of connection points: 2
#     Edge 17, Type (0, 0), BuildingBlock: EZIPEK_clean_linker_0, # of connection points: 2
#     Edge 18, Type (0, 0), BuildingBlock: EZIPEK_clean_linker_0, # of connection points: 2
#     Edge 19, Type (0, 0), BuildingBlock: EZIPEK_clean_linker_0, # of connection points: 2
#     Edge 20, Type (0, 0), BuildingBlock: EZIPEK_clean_linker_0, # of connection points: 2
#     Edge 21, Type (0, 0), BuildingBlock: EZIPEK_clean_linker_0, # of connection points: 2
#     Edge 22, Type (0, 0), BuildingBlock: EZIPEK_clean_linker_0, # of connection points: 2
#     Edge 23, Type (0, 0), BuildingBlock: EZIPEK_clean_linker_0, # of connection points: 2
#     Edge 24, Type (0, 0), BuildingBlock: EZIPEK_clean_linker_0, # of connection points: 2
#     Edge 25, Type (0, 0), BuildingBlock: EZIPEK_clean_linker_0, # of connection points: 2
#     Edge 26, Type (0, 0), BuildingBlock: EZIPEK_clean_linker_0, # of connection points: 2
#     Edge 27, Type (0, 0), BuildingBlock: EZIPEK_clean_linker_0, # of connection points: 2
#     Edge 28, Type (0, 0), BuildingBlock: EZIPEK_clean_linker_0, # of connection points: 2
#     Edge 29, Type (0, 0), BuildingBlock: EZIPEK_clean_linker_0, # of connection points: 2
#     Edge 30, Type (0, 0), BuildingBlock: EZIPEK_clean_linker_0, # of connection points: 2
#     Edge 31, Type (0, 0), BuildingBlock: EZIPEK_clean_linker_0, # of connection points: 2
#     Edge 32, Type (0, 0), BuildingBlock: EZIPEK_clean_linker_0, # of connection points: 2
#     Edge 33, Type (0, 0), BuildingBlock: EZIPEK_clean_linker_0, # of connection points: 2
#     Edge 34, Type (0, 0), BuildingBlock: EZIPEK_clean_linker_0, # of connection points: 2
#     Edge 35, Type (0, 0), BuildingBlock: EZIPEK_clean_linker_0, # of connection points: 2
#     Edge 36, Type (0, 0), BuildingBlock: EZIPEK_clean_linker_0, # of connection points: 2
#     Edge 37, Type (0, 0), BuildingBlock: EZIPEK_clean_linker_0, # of connection points: 2
#     Edge 38, Type (0, 0), BuildingBlock: EZIPEK_clean_linker_0, # of connection points: 2
#     Edge 39, Type (0, 0), BuildingBlock: EZIPEK_clean_linker_0, # of connection points: 2
#     Edge 40, Type (0, 0), BuildingBlock: EZIPEK_clean_linker_0, # of connection points: 2
#     Edge 41, Type (0, 0), BuildingBlock: EZIPEK_clean_linker_0, # of connection points: 2
#     Edge 42, Type (0, 0), BuildingBlock: EZIPEK_clean_linker_0, # of connection points: 2
#     Edge 43, Type (0, 0), BuildingBlock: EZIPEK_clean_linker_0, # of connection points: 2
#     Edge 44, Type (0, 0), BuildingBlock: EZIPEK_clean_linker_0, # of connection points: 2
#     Edge 45, Type (0, 0), BuildingBlock: EZIPEK_clean_linker_0, # of connection points: 2
#     Edge 46, Type (0, 0), BuildingBlock: EZIPEK_clean_linker_0, # of connection points: 2
#     Edge 47, Type (0, 0), BuildingBlock: EZIPEK_clean_linker_0, # of connection points: 2
#     Edge 48, Type (0, 0), BuildingBlock: EZIPEK_clean_linker_0, # of connection points: 2
#     Edge 49, Type (0, 0), BuildingBlock: EZIPEK_clean_linker_0, # of connection points: 2
#     Edge 50, Type (0, 0), BuildingBlock: EZIPEK_clean_linker_0, # of connection points: 2
#     Edge 51, Type (0, 0), BuildingBlock: EZIPEK_clean_linker_0, # of connection points: 2
#     Edge 52, Type (0, 0), BuildingBlock: EZIPEK_clean_linker_0, # of connection points: 2
#     Edge 53, Type (0, 0), BuildingBlock: EZIPEK_clean_linker_0, # of connection points: 2
#     Edge 54, Type (0, 0), BuildingBlock: EZIPEK_clean_linker_0, # of connection points: 2
#     Edge 55, Type (0, 0), BuildingBlock: EZIPEK_clean_linker_0, # of connection points: 2
#     Edge 56, Type (0, 0), BuildingBlock: EZIPEK_clean_linker_0, # of connection points: 2
#     Edge 57, Type (0, 0), BuildingBlock: EZIPEK_clean_linker_0, # of connection points: 2
#     Edge 58, Type (0, 0), BuildingBlock: EZIPEK_clean_linker_0, # of connection points: 2
#     Edge 59, Type (0, 0), BuildingBlock: EZIPEK_clean_linker_0, # of connection points: 2
#     Edge 60, Type (0, 0), BuildingBlock: EZIPEK_clean_linker_0, # of connection points: 2
#     Edge 61, Type (0, 0), BuildingBlock: EZIPEK_clean_linker_0, # of connection points: 2
#     Edge 62, Type (0, 0), BuildingBlock: EZIPEK_clean_linker_0, # of connection points: 2
#     Edge 63, Type (0, 0), BuildingBlock: EZIPEK_clean_linker_0, # of connection points: 2
# Relax obj value: 0.689
# Max RMSD: 0.338
# Mean RMSD: 0.338
data_MOF--net-wiu--node1-INOVEN_clean_sbu_0--edge1-EZIPEK_clean_linker_0
_symmetry_space_group_name_H-M    P1
_symmetry_Int_Tables_number       1
_symmetry_cell_setting            triclinic
loop_
_symmetry_equiv_pos_as_xyz
'x, y, z'
_cell_length_a     29.246807
_cell_length_b     29.252957
_cell_length_c     40.533601
_cell_angle_alpha  91.38405
_cell_angle_beta   90.204012
_cell_angle_gamma 89.952567
loop_
_atom_site_label
_atom_site_type_symbol
_atom_site_fract_x
_atom_site_fract_y
_atom_site_fract_z
_atom_type_partial_charge
Gd0 Gd 0.37584 0.20352 0.33935 0.0
Gd1 Gd 0.42408 0.13732 0.3045 0.0
C2 C 0.41414 0.11915 0.38415 0.0
C3 C 0.32451 0.27152 0.36034 0.0
C4 C 0.30922 0.31497 0.34608 0.0
C5 C 0.32054 0.32586 0.31352 0.0
C6 C 0.2861 0.34745 0.36589 0.0
C7 C 0.28662 0.4014 0.32106 0.0
C8 C 0.2749 0.39038 0.35349 0.0
C9 C 0.30917 0.36871 0.30106 0.0
C10 C 0.46687 0.23136 0.32947 0.0
C11 C 0.34697 0.1841 0.25888 0.0
C12 C 0.49036 0.1016 0.27091 0.0
C13 C 0.52651 0.12415 0.25251 0.0
C14 C 0.55928 0.09837 0.23534 0.0
C15 C 0.53053 0.17195 0.25451 0.0
C16 C 0.60139 0.16807 0.22397 0.0
C17 C 0.56826 0.1937 0.24104 0.0
C18 C 0.59624 0.12026 0.22082 0.0
C19 C 0.3428 0.1007 0.32303 0.0
O20 O 0.38206 0.15163 0.38229 0.0
O21 O 0.44046 0.11293 0.35763 0.0
O22 O 0.30835 0.23385 0.34728 0.0
O23 O 0.36805 0.26846 0.36584 0.0
O24 O 0.44548 0.23125 0.35729 0.0
O25 O 0.43948 0.21297 0.30836 0.0
O26 O 0.38027 0.15331 0.259 0.0
O27 O 0.34098 0.20972 0.28656 0.0
O28 O 0.44897 0.10542 0.25905 0.0
O29 O 0.49233 0.10939 0.30274 0.0
O30 O 0.38047 0.0777 0.31968 0.0
O31 O 0.35001 0.14117 0.3147 0.0
H32 H 0.33902 0.30162 0.29797 0.0
H33 H 0.27753 0.33994 0.39117 0.0
H34 H 0.25769 0.41527 0.36932 0.0
H35 H 0.31872 0.37672 0.27607 0.0
H36 H 0.55671 0.06145 0.23362 0.0
H37 H 0.50515 0.19231 0.26741 0.0
H38 H 0.57164 0.2304 0.24413 0.0
H39 H 0.62134 0.09977 0.20755 0.0
Gd40 Gd 0.64278 0.63161 0.58878 0.0
Gd41 Gd 0.70835 0.68002 0.55792 0.0
C42 C 0.72625 0.66935 0.63689 0.0
C43 C 0.57769 0.57665 0.60735 0.0
C44 C 0.53178 0.56389 0.5948 0.0
C45 C 0.50472 0.59516 0.57758 0.0
C46 C 0.51442 0.52003 0.60039 0.0
C47 C 0.44268 0.54004 0.57373 0.0
C48 C 0.47032 0.50803 0.58965 0.0
C49 C 0.46022 0.58357 0.56772 0.0
C50 C 0.61227 0.72244 0.58209 0.0
C51 C 0.66089 0.60429 0.50888 0.0
C52 C 0.74478 0.74195 0.52241 0.0
C53 C 0.72071 0.77071 0.49898 0.0
C54 C 0.7425 0.8078 0.48476 0.0
C55 C 0.67395 0.76307 0.49301 0.0
C56 C 0.67016 0.831 0.46028 0.0
C57 C 0.64851 0.79384 0.47471 0.0
C58 C 0.71747 0.83744 0.46512 0.0
C59 C 0.74498 0.59874 0.57539 0.0
O60 O 0.69486 0.6365 0.63277 0.0
O61 O 0.73262 0.69668 0.61152 0.0
O62 O 0.61222 0.56358 0.58951 0.0
O63 O 0.58282 0.61824 0.61861 0.0
O64 O 0.61378 0.69961 0.60893 0.0
O65 O 0.63207 0.69698 0.56014 0.0
O66 O 0.69368 0.63537 0.51155 0.0
O67 O 0.63324 0.59994 0.53495 0.0
O68 O 0.74617 0.69856 0.51433 0.0
O69 O 0.73319 0.74922 0.55317 0.0
O70 O 0.76713 0.63722 0.57705 0.0
O71 O 0.70518 0.60583 0.56506 0.0
H72 H 0.51776 0.62864 0.572 0.0
H73 H 0.53484 0.49518 0.6133 0.0
H74 H 0.45743 0.47412 0.59431 0.0
H75 H 0.43916 0.60854 0.55572 0.0
H76 H 0.77852 0.81417 0.48919 0.0
H77 H 0.65661 0.73448 0.50391 0.0
H78 H 0.612 0.78874 0.47194 0.0
H79 H 0.73488 0.86595 0.45415 0.0
Gd80 Gd 0.21551 0.90123 0.83453 0.0
Gd81 Gd 0.16467 0.96325 0.80407 0.0
C82 C 0.1788 0.98333 0.88324 0.0
C83 C 0.26872 0.83359 0.85044 0.0
C84 C 0.2755 0.78644 0.83666 0.0
C85 C 0.24741 0.75001 0.84623 0.0
C86 C 0.31118 0.77723 0.81424 0.0
C87 C 0.29209 0.69624 0.81271 0.0
C88 C 0.31935 0.73263 0.80242 0.0
C89 C 0.25574 0.70534 0.83442 0.0
C90 C 0.1252 0.86899 0.82724 0.0
C91 C 0.24043 0.9205 0.75463 0.0
C92 C 0.09288 0.99476 0.77583 0.0
C93 C 0.05352 0.97036 0.76117 0.0
C94 C 1.04105 0.97903 0.72865 0.0
C95 C 1.02983 0.93657 0.77862 0.0
C96 C 0.98062 0.92216 0.73139 0.0
C97 C 0.99354 0.91257 0.76378 0.0
C98 C 1.00526 0.95488 0.71383 0.0
C99 C 0.24522 1.00556 0.82067 0.0
O100 O 0.21327 0.95389 0.87885 0.0
O101 O 0.14956 0.98624 0.85824 0.0
O102 O 0.28154 0.86703 0.83219 0.0
O103 O 0.23029 0.8427 0.86514 0.0
O104 O 0.14812 0.87258 0.85442 0.0
O105 O 0.15017 0.88742 0.80541 0.0
O106 O 0.20639 0.95037 0.75671 0.0
O107 O 0.24777 0.89465 0.78106 0.0
O108 O 0.13179 0.9898 0.76035 0.0
O109 O 0.09702 0.99225 0.8078 0.0
O110 O 0.20609 1.02601 0.81838 0.0
O111 O 0.23995 0.9643 0.81209 0.0
H112 H 0.21977 0.75571 0.86355 0.0
H113 H 0.33361 0.80434 0.80646 0.0
H114 H 0.34823 0.72618 0.78629 0.0
H115 H 0.23535 0.67748 0.84354 0.0
H116 H 0.05929 1.00419 0.71457 0.0
H117 H 1.03936 0.9286 0.80366 0.0
H118 H 0.9756 0.88684 0.7775 0.0
H119 H 0.99678 0.96182 0.68845 0.0
Gd120 Gd 0.95118 0.47213 1.08583 0.0
Gd121 Gd 0.87938 0.42731 1.06091 0.0
C122 C 0.87206 0.43338 1.13864 0.0
C123 C 1.0199 0.51575 1.11346 0.0
C124 C 0.06855 0.52192 1.10391 0.0
C125 C 0.08822 0.49487 1.07853 0.0
C126 C 0.09486 0.55711 1.11861 0.0
C127 C 0.1588 0.53911 1.08184 0.0
C128 C 0.13959 0.56561 1.10772 0.0
C129 C 0.1328 0.50338 1.0676 0.0
C130 C 0.98082 0.38497 1.06359 0.0
C131 C 0.92584 0.5025 1.00991 0.0
C132 C 0.82173 0.38186 1.02511 0.0
C133 C 0.78741 0.40142 1.00255 0.0
C134 C 0.74071 0.39845 1.01 0.0
C135 C 0.80095 0.42905 0.97658 0.0
C136 C 0.72132 0.44954 0.96503 0.0
C137 C 0.76871 0.45298 0.9584 0.0
C138 C 0.70819 0.4222 0.99166 0.0
C139 C 0.8502 0.51196 1.08041 0.0
O140 O 0.90392 0.46551 1.1333 0.0
O141 O 0.86221 0.40605 1.11322 0.0
O142 O 0.98992 0.53481 1.09441 0.0
O143 O 1.00718 0.47485 1.12158 0.0
O144 O 0.99739 0.42413 1.05557 0.0
O145 O 0.94439 0.39454 1.07979 0.0
O146 O 0.89733 0.46732 1.013 0.0
O147 O 0.95166 0.51217 1.03633 0.0
O148 O 0.81475 0.39174 1.05616 0.0
O149 O 0.86489 0.38545 1.017 0.0
O150 O 0.82825 0.47468 1.08541 0.0
O151 O 0.8876 0.50261 1.06654 0.0
H152 H 0.06891 0.46773 1.06658 0.0
H153 H 0.08047 0.57866 1.13805 0.0
H154 H 0.15888 0.59351 1.11898 0.0
H155 H 0.14669 0.48269 1.04749 0.0
H156 H 0.72936 0.37822 1.03046 0.0
H157 H 0.83669 0.4328 0.97035 0.0
H158 H 0.78164 0.473 0.93842 0.0
H159 H 0.67275 0.41816 0.99831 0.0
Gd160 Gd 0.66725 0.96163 1.05929 0.0
Gd161 Gd 0.71162 0.89093 1.03487 0.0
C162 C 0.74356 0.91841 1.11105 0.0
C163 C 0.62173 1.02001 1.09391 0.0
C164 C 0.64213 0.05981 1.11158 0.0
C165 C 0.63731 0.10346 1.09848 0.0
C166 C 0.67242 0.05393 1.13808 0.0
C167 C 0.68944 0.13587 1.14013 0.0
C168 C 0.69594 0.09118 1.15198 0.0
C169 C 0.66113 0.14067 1.11208 0.0
C170 C 0.75168 0.9914 1.04078 0.0
C171 C 0.6723 0.96856 0.98189 0.0
C172 C 0.75628 0.82371 1.00681 0.0
C173 C 0.76465 0.77629 1.01692 0.0
C174 C 0.73254 0.75314 1.03611 0.0
C175 C 0.80701 0.75557 1.01026 0.0
C176 C 0.78546 0.68986 1.04245 0.0
C177 C 0.8173 0.7126 1.02284 0.0
C178 C 0.74291 0.71035 1.04888 0.0
C179 C 0.62668 0.85944 1.05823 0.0
O180 O 0.70842 0.94691 1.10765 0.0
O181 O 0.75262 0.89166 1.08477 0.0
O182 O 0.62424 1.02172 1.06191 0.0
O183 O 0.63149 0.9794 1.10482 0.0
O184 O 0.71429 1.01386 1.03658 0.0
O185 O 0.74269 0.95433 1.05422 0.0
O186 O 0.70364 0.93611 0.98734 0.0
O187 O 0.64606 0.97987 1.00713 0.0
O188 O 0.77535 0.85488 1.02561 0.0
O189 O 0.7145 0.83457 0.99883 0.0
O190 O 0.66701 0.84468 1.06564 0.0
O191 O 0.63399 0.89521 1.04125 0.0
H192 H 0.61543 0.10878 1.07728 0.0
H193 H 0.67828 1.02046 1.14813 0.0
H194 H 0.71775 0.08457 1.17291 0.0
H195 H 0.6556 0.17353 1.10112 0.0
H196 H 0.69972 0.76838 1.04161 0.0
H197 H 0.83245 0.77302 0.99584 0.0
H198 H 0.85024 0.69718 1.01752 0.0
H199 H 0.71781 0.69321 1.06376 0.0
Gd200 Gd 0.37638 0.42048 0.81079 0.0
Gd201 Gd 0.44972 0.46338 0.78458 0.0
C202 C 0.42421 0.48616 0.86542 0.0
C203 C 0.32485 0.35912 0.83648 0.0
C204 C 0.33511 0.3227 0.85999 0.0
C205 C 0.34296 0.33352 0.89342 0.0
C206 C 0.34411 0.27795 0.84816 0.0
C207 C 0.37757 0.2589 0.90086 0.0
C208 C 0.36599 0.24653 0.8683 0.0
C209 C 0.36376 0.30179 0.91365 0.0
C210 C 0.35502 0.50905 0.79189 0.0
C211 C 0.36758 0.43075 0.73271 0.0
C212 C 0.51923 0.51392 0.76813 0.0
C213 C 0.56819 0.51722 0.7762 0.0
C214 C 0.59735 0.5407 0.75511 0.0
C215 C 0.58511 0.50168 0.80646 0.0
C216 C 0.65863 0.53649 0.79551 0.0
C217 C 0.63009 0.51138 0.81609 0.0
C218 C 0.64239 0.5502 0.76467 0.0
C219 C 0.47388 0.37179 0.79287 0.0
O220 O 0.39212 0.45468 0.8609 0.0
O221 O 0.45338 0.4922 0.84017 0.0
O222 O 0.3267 0.40142 0.8477 0.0
O223 O 0.34457 0.35397 0.80777 0.0
O224 O 0.32671 0.47494 0.78986 0.0
O225 O 0.38973 0.49413 0.80552 0.0
O226 O 0.39828 0.46386 0.73911 0.0
O227 O 0.36215 0.40143 0.75654 0.0
O228 O 0.49175 0.52336 0.79229 0.0
O229 O 0.50544 0.47874 0.75065 0.0
O230 O 0.47767 0.39479 0.76636 0.0
O231 O 0.45185 0.39758 0.81349 0.0
H232 H 0.3357 0.36735 0.90354 0.0
H233 H 0.33783 0.26846 0.82254 0.0
H234 H 0.37636 0.21373 0.85782 0.0
H235 H 0.37157 0.31194 0.93886 0.0
H236 H 0.5848 0.55314 0.7318 0.0
H237 H 0.56305 0.48359 0.82314 0.0
H238 H 0.64215 0.50065 0.83997 0.0
H239 H 0.66411 0.56958 0.74854 0.0
Gd240 Gd 0.91472 0.13849 0.5646 0.0
Gd241 Gd 0.86991 0.20315 0.53678 0.0
C242 C 0.83931 0.17956 0.61476 0.0
C243 C 0.96475 0.08401 0.59787 0.0
C244 C 0.94893 1.04138 0.61296 0.0
C245 C 0.93304 1.00407 0.59347 0.0
C246 C 0.94335 1.04047 0.64717 0.0
C247 C 0.90745 0.96515 0.64254 0.0
C248 C 0.92252 1.00331 0.66169 0.0
C249 C 0.91249 0.96643 0.60811 0.0
C250 C 0.83155 0.10194 0.54529 0.0
C251 C 0.90842 0.12375 0.48661 0.0
C252 C 0.81791 0.27171 0.52018 0.0
C253 C 0.81907 0.32217 0.52266 0.0
C254 C 0.84963 0.34475 0.54444 0.0
C255 C 0.78394 0.34734 0.50798 0.0
C256 C 0.80716 0.41577 0.53908 0.0
C257 C 0.778 0.39376 0.51616 0.0
C258 C 0.84394 0.39133 0.55238 0.0
C259 C 0.96107 0.23344 0.54348 0.0
O260 O 0.87113 0.14786 0.61133 0.0
O261 O 0.834 0.20742 0.58927 0.0
O262 O 0.96564 0.08447 0.56573 0.0
O263 O 0.94774 0.1216 0.61072 0.0
O264 O 0.86995 0.08052 0.54459 0.0
O265 O 0.83887 0.14152 0.55641 0.0
O266 O 0.87205 0.15053 0.49202 0.0
O267 O 0.93832 0.12315 0.51121 0.0
O268 O 0.81678 0.25187 0.54836 0.0
O269 O 0.84483 0.2504 0.49939 0.0
O270 O 0.93723 0.23086 0.51678 0.0
O271 O 0.93693 0.21365 0.56529 0.0
H272 H 0.93559 1.00422 0.56683 0.0
H273 H 0.95445 0.06899 0.66277 0.0
H274 H 0.91984 1.00414 0.68832 0.0
H275 H 0.90039 0.93874 0.59232 0.0
H276 H 0.87632 0.3258 0.5567 0.0
H277 H 0.75955 0.33053 0.49158 0.0
H278 H 0.74955 0.41212 0.50563 0.0
H279 H 0.86675 0.40771 0.57014 0.0
Gd280 Gd 0.20584 0.67085 0.3101 0.0
Gd281 Gd 0.13452 0.6273 0.28554 0.0
C282 C 0.16023 0.59563 0.36108 0.0
C283 C 0.25841 0.718 0.34855 0.0
C284 C 0.2875 0.69895 0.37431 0.0
C285 C 0.29779 0.65189 0.37339 0.0
C286 C 0.3024 0.72627 0.40091 0.0
C287 C 0.33464 0.65908 0.42664 0.0
C288 C 0.32616 0.70646 0.42682 0.0
C289 C 0.32142 0.63202 0.39937 0.0
C290 C 0.23459 0.58601 0.28975 0.0
C291 C 0.21459 0.66587 0.23296 0.0
C292 C 0.06723 0.58311 0.25695 0.0
C293 C 1.01976 0.57486 0.2675 0.0
C294 C 1.00485 0.59111 0.29855 0.0
C295 C 0.98985 0.54859 0.24763 0.0
C296 C 0.93101 0.55471 0.28992 0.0
C297 C 0.94575 0.53841 0.25883 0.0
C298 C 0.96069 0.58157 0.30951 0.0
C299 C 0.10476 0.71391 0.30735 0.0
O300 O 0.19116 0.62838 0.35726 0.0
O301 O 0.1321 0.58832 0.33554 0.0
O302 O 0.26995 0.70603 0.31853 0.0
O303 O 0.2144 0.71459 0.35372 0.0
O304 O 0.25777 0.62312 0.28651 0.0
O305 O 0.19735 0.5955 0.30382 0.0
O306 O 0.18154 0.63489 0.23806 0.0
O307 O 0.22581 0.69216 0.25858 0.0
O308 O 0.09842 0.56387 0.27481 0.0
O309 O 0.07791 0.62511 0.25035 0.0
O310 O 0.0893 0.67502 0.31702 0.0
O311 O 0.14098 0.70463 0.29068 0.0
H312 H 0.2865 0.63033 0.35291 0.0
H313 H 0.29485 0.76254 0.40198 0.0
H314 H 0.33718 0.72805 0.44737 0.0
H315 H 0.32825 0.59561 0.39865 0.0
H316 H 1.0276 0.6106 0.31458 0.0
H317 H 1.00085 0.53537 0.22375 0.0
H318 H 0.92325 0.5176 0.24341 0.0
H319 H 0.94998 0.59425 0.3336 0.0
Gd320 Gd 0.8743 0.70704 0.83773 0.0
Gd321 Gd 0.92261 0.63767 0.81345 0.0
C322 C 0.91377 0.62872 0.89066 0.0
C323 C 0.82471 0.77186 0.86443 0.0
C324 C 0.81648 0.81908 0.85356 0.0
C325 C 0.79891 0.85263 0.87541 0.0
C326 C 0.82479 0.83046 0.8206 0.0
C327 C 0.79655 0.90756 0.83113 0.0
C328 C 0.81469 0.8742 0.80946 0.0
C329 C 0.78906 0.89667 0.86427 0.0
C330 C 0.9605 0.74031 0.81848 0.0
C331 C 0.84977 0.68248 0.75968 0.0
C332 C 0.98467 0.58957 0.7847 0.0
C333 C 1.03245 0.58511 0.79402 0.0
C334 C 0.05846 0.54945 0.78073 0.0
C335 C 0.05291 0.61804 0.81506 0.0
C336 C 0.12748 0.58825 0.80022 0.0
C337 C 0.10032 0.61942 0.81834 0.0
C338 C 0.10567 0.55034 0.78443 0.0
C339 C 0.83851 0.60564 0.82842 0.0
O340 O 0.88096 0.65964 0.8846 0.0
O341 O 0.94227 0.62011 0.86618 0.0
O342 O 0.80843 0.73982 0.84495 0.0
O343 O 0.86591 0.76233 0.87439 0.0
O344 O 0.92091 0.75618 0.81005 0.0
O345 O 0.95218 0.70408 0.8347 0.0
O346 O 0.88479 0.65388 0.76387 0.0
O347 O 0.83828 0.70798 0.78605 0.0
O348 O 0.97282 0.63014 0.77485 0.0
O349 O 0.95586 0.57231 0.80536 0.0
O350 O 0.87605 0.58385 0.83397 0.0
O351 O 0.8472 0.64331 0.81554 0.0
H352 H 0.79224 0.84459 0.90089 0.0
H353 H 0.83833 0.8052 0.80327 0.0
H354 H 0.82038 0.88183 0.7838 0.0
H355 H 0.77496 0.92202 0.88132 0.0
H356 H 1.04271 0.52269 0.76563 0.0
H357 H 1.03253 0.6446 0.82694 0.0
H358 H 0.1155 0.64723 0.83256 0.0
H359 H 0.12473 0.52386 0.77147 0.0
Gd360 Gd 0.14104 0.13338 1.08739 0.0
Gd361 Gd 0.20916 0.178 1.05875 0.0
C362 C 0.22153 0.17128 1.1375 0.0
C363 C 0.07221 0.08245 1.10515 0.0
C364 C 1.02495 0.0744 1.09324 0.0
C365 C 0.99084 0.06221 1.11564 0.0
C366 C 1.01368 0.07738 1.05957 0.0
C367 C 0.93552 0.05402 1.07084 0.0
C368 C 0.96933 0.06716 1.04846 0.0
C369 C 0.94646 1.05217 1.10455 0.0
C370 C 0.11272 0.22409 1.07773 0.0
C371 C 0.16343 0.10542 1.00764 0.0
C372 C 0.26568 0.23375 1.03175 0.0
C373 C 0.31591 0.23454 1.031 0.0
C374 C 0.34114 0.19667 1.04151 0.0
C375 C 0.33845 0.26945 1.01478 0.0
C376 C 0.40574 0.22059 1.00906 0.0
C377 C 0.38365 0.26309 1.00467 0.0
C378 C 0.386 0.18992 1.03093 0.0
C379 C 0.24062 0.09409 1.07897 0.0
O380 O 0.19195 0.13696 1.13257 0.0
O381 O 0.22523 0.19958 1.1127 0.0
O382 O 0.10488 0.06854 1.08584 0.0
O383 O 0.08114 0.1223 1.11833 0.0
O384 O 0.11306 0.20267 1.10516 0.0
O385 O 0.1336 0.1979 1.05689 0.0
O386 O 0.1955 0.13712 1.01071 0.0
O387 O 0.13557 0.10006 1.03355 0.0
O388 O 0.24638 0.24244 1.06017 0.0
O389 O 0.24716 0.19895 1.01609 0.0
O390 O 0.26374 0.1314 1.08029 0.0
O391 O 0.20278 0.10313 1.06646 0.0
H392 H 0.99871 0.05984 1.14169 0.0
H393 H 1.03931 0.08698 1.0418 0.0
H394 H 0.96149 0.06891 1.02238 0.0
H395 H 0.92078 1.04222 1.12219 0.0
H396 H 0.32513 0.16999 1.05503 0.0
H397 H 0.32006 0.29967 1.00728 0.0
H398 H 0.39862 0.28906 0.9896 0.0
H399 H 0.40277 0.158 1.0364 0.0
Gd400 Gd 0.71433 0.396 0.33507 0.0
Gd401 Gd 0.66717 0.46265 0.30885 0.0
C402 C 0.67215 0.47784 0.38608 0.0
C403 C 0.76086 0.33219 0.3638 0.0
C404 C 0.76908 0.28329 0.35534 0.0
C405 C 0.73449 0.25546 0.3414 0.0
C406 C 0.81341 0.26536 0.35825 0.0
C407 C 0.78886 0.19321 0.33265 0.0
C408 C 0.82321 0.22077 0.34705 0.0
C409 C 0.7443 0.21081 0.33009 0.0
C410 C 0.63012 0.35948 0.31214 0.0
C411 C 0.74506 0.41834 0.25838 0.0
C412 C 0.61975 0.51764 0.27452 0.0
C413 C 0.63883 0.55881 0.25921 0.0
C414 C 0.63243 0.60174 0.27466 0.0
C415 C 0.66941 0.55508 0.23267 0.0
C416 C 0.68321 0.63765 0.23514 0.0
C417 C 0.69148 0.59373 0.22094 0.0
C418 C 0.65483 0.64029 0.26326 0.0
C419 C 0.75055 0.49724 0.32807 0.0
O420 O 0.70582 0.44719 0.38127 0.0
O421 O 0.64411 0.48267 0.36091 0.0
O422 O 0.77854 0.36079 0.3434 0.0
O423 O 0.71972 0.34432 0.37281 0.0
O424 O 0.67084 0.34505 0.30526 0.0
O425 O 0.63647 0.39725 0.32816 0.0
O426 O 0.70761 0.44403 0.26068 0.0
O427 O 0.75596 0.39549 0.28543 0.0
O428 O 0.61979 0.51923 0.30664 0.0
O429 O 0.63286 0.47778 0.26261 0.0
O430 O 0.71241 0.51886 0.32986 0.0
O431 O 0.74292 0.45858 0.31518 0.0
H432 H 0.7001 0.26849 0.33878 0.0
H433 H 0.84075 0.28627 0.36855 0.0
H434 H 0.8578 0.20796 0.3492 0.0
H435 H 0.71728 0.19012 0.31914 0.0
H436 H 0.61037 0.6055 0.29599 0.0
H437 H 0.67656 0.52224 0.22088 0.0
H438 H 0.71354 0.58882 0.19981 0.0
H439 H 0.64809 0.67247 0.27597 0.0
Gd440 Gd 0.44859 0.97399 0.58528 0.0
Gd441 Gd 0.38243 0.92313 0.55559 0.0
C442 C 0.36358 0.93436 0.63291 0.0
C443 C 0.5111 1.02319 0.61472 0.0
C444 C 0.55995 1.03037 0.60637 0.0
C445 C 0.58859 0.99345 0.59724 0.0
C446 C 0.57724 0.07505 0.60467 0.0
C447 C 0.65033 1.04593 0.5845 0.0
C448 C 0.62195 0.08277 0.59378 0.0
C449 C 0.63342 1.00118 0.58652 0.0
C450 C 0.484 0.88722 0.56785 0.0
C451 C 0.42989 0.99916 0.50643 0.0
C452 C 0.3486 0.85583 0.52202 0.0
C453 C 0.35146 0.80675 0.52762 0.0
C454 C 0.31822 0.77764 0.51435 0.0
C455 C 0.38851 0.78851 0.54512 0.0
C456 C 0.36438 0.71169 0.52946 0.0
C457 C 0.39488 0.74125 0.54616 0.0
C458 C 0.32427 0.73056 0.51556 0.0
C459 C 0.3468 1.00712 0.56974 0.0
O460 O 0.39591 0.96661 0.6295 0.0
O461 O 0.35687 0.90642 0.60722 0.0
O462 O 0.48174 1.03972 0.59395 0.0
O463 O 0.49918 0.98274 0.62449 0.0
O464 O 0.50129 0.92645 0.56064 0.0
O465 O 0.44549 0.89664 0.58129 0.0
O466 O 0.40138 0.96377 0.50833 0.0
O467 O 0.4533 1.00989 0.53396 0.0
O468 O 0.38742 0.87521 0.51456 0.0
O469 O 0.32461 0.87948 0.54354 0.0
O470 O 0.32359 0.96946 0.56928 0.0
O471 O 0.38699 0.99859 0.5605 0.0
H472 H 0.5762 0.95861 0.59788 0.0
H473 H 0.5558 0.10408 0.6112 0.0
H474 H 0.6343 0.11754 0.59238 0.0
H475 H 0.65478 0.97232 0.57949 0.0
H476 H 0.28884 0.79123 0.50148 0.0
H477 H 0.41369 0.81088 0.55652 0.0
H478 H 0.42476 0.7283 0.55858 0.0
H479 H 0.29912 0.70942 0.50289 0.0
Gd480 Gd 0.16874 0.46414 0.55931 0.0
Gd481 Gd 0.21228 0.39002 0.53226 0.0
C482 C 0.24312 0.41533 0.61007 0.0
C483 C 0.11894 0.51421 0.59793 0.0
C484 C 0.13152 0.53905 0.62865 0.0
C485 C 0.16899 0.56931 0.62967 0.0
C486 C 0.10962 0.52812 0.6581 0.0
C487 C 0.16483 0.57378 0.68923 0.0
C488 C 0.12602 0.54558 0.68816 0.0
C489 C 0.18612 0.58584 0.65985 0.0
C490 C 0.25593 0.48725 0.54165 0.0
C491 C 0.1734 0.47303 0.4818 0.0
C492 C 0.25703 0.32436 0.50256 0.0
C493 C 0.26652 0.27637 0.51119 0.0
C494 C 0.23167 0.24751 0.52245 0.0
C495 C 0.31167 0.26003 0.51022 0.0
C496 C 0.28719 0.18722 0.53188 0.0
C497 C 0.32195 0.21588 0.52057 0.0
C498 C 0.24193 0.20318 0.53252 0.0
C499 C 0.12639 0.36156 0.55355 0.0
O500 O 0.21067 0.44688 0.60671 0.0
O501 O 0.25027 0.38765 0.58374 0.0
O502 O 0.13677 0.52928 0.57076 0.0
O503 O 0.12017 0.46955 0.5995 0.0
O504 O 0.22097 0.51436 0.53954 0.0
O505 O 0.2428 0.45094 0.5542 0.0
O506 O 0.20315 0.43847 0.48615 0.0
O507 O 0.14862 0.48551 0.50765 0.0
O508 O 0.27641 0.3553 0.5215 0.0
O509 O 0.21492 0.33498 0.49527 0.0
O510 O 0.16531 0.34263 0.5601 0.0
O511 O 0.13564 0.39873 0.53848 0.0
H512 H 0.18599 0.57914 0.60727 0.0
H513 H 0.0808 0.50487 0.65794 0.0
H514 H 0.10909 0.53613 0.7107 0.0
H515 H 0.21603 0.60769 0.66033 0.0
H516 H 0.1966 0.2593 0.52384 0.0
H517 H 0.33912 0.28172 0.50189 0.0
H518 H 0.35704 0.20409 0.5198 0.0
H519 H 0.21468 0.18145 0.54109 0.0
Gd520 Gd 0.88195 0.92624 0.30901 0.0
Gd521 Gd 0.95221 0.97073 0.28549 0.0
C522 C 0.92746 1.00099 0.36247 0.0
C523 C 0.82449 0.87749 0.34045 0.0
C524 C 0.77923 0.89243 0.35277 0.0
C525 C 0.74071 0.89052 0.33191 0.0
C526 C 0.77483 0.91272 0.38426 0.0
C527 C 0.69278 0.92347 0.37543 0.0
C528 C 0.73247 0.92853 0.39531 0.0
C529 C 0.69828 0.90633 0.34293 0.0
C530 C 0.85181 1.0116 0.29287 0.0
C531 C 0.87039 0.93405 0.23176 0.0
C532 C 1.01918 1.01536 0.25866 0.0
C533 C 0.06727 1.02379 0.2685 0.0
C534 C 0.08447 1.00723 0.29837 0.0
C535 C 0.09585 1.05013 0.24875 0.0
C536 C 0.15809 1.04326 0.28863 0.0
C537 C 0.14082 0.05993 0.25877 0.0
C538 C 0.1296 1.01638 0.30814 0.0
C539 C 0.9838 0.88543 0.30667 0.0
O540 O 0.89921 0.96557 0.3586 0.0
O541 O 0.95274 1.01088 0.33627 0.0
O542 O 0.82858 0.87516 0.30851 0.0
O543 O 0.86037 0.89571 0.35482 0.0
O544 O 0.82852 0.97447 0.28853 0.0
O545 O 0.88958 1.00172 0.30554 0.0
O546 O 0.90465 0.96386 0.23755 0.0
O547 O 0.85859 0.90872 0.25669 0.0
O548 O 0.98856 1.03423 0.27776 0.0
O549 O 1.00829 0.97348 0.25025 0.0
O550 O 0.99893 0.92513 0.31626 0.0
O551 O 0.9475 0.89324 0.28989 0.0
H552 H 0.74309 0.87629 0.30706 0.0
H553 H 0.80407 0.91598 0.40064 0.0
H554 H 0.73094 0.94219 0.42032 0.0
H555 H 0.66938 0.90286 0.32638 0.0
H556 H 0.06287 0.98756 0.31432 0.0
H557 H 0.08323 0.06354 0.22575 0.0
H558 H 0.16219 0.08058 0.24325 0.0
H559 H 0.14214 1.00308 0.33119 0.0
Gd560 Gd 0.42106 0.63444 1.06599 0.0
Gd561 Gd 0.3707 0.70055 1.03485 0.0
C562 C 0.34226 0.6765 1.11383 0.0
C563 C 0.48792 0.59944 1.09847 0.0
C564 C 0.52334 0.62265 1.11818 0.0
C565 C 0.55652 0.59753 1.13475 0.0
C566 C 0.52575 0.6706 1.11863 0.0
C567 C 0.59566 0.66826 1.1506 0.0
C568 C 0.56231 0.69323 1.13394 0.0
C569 C 0.59218 0.62025 1.1512 0.0
C570 C 0.34039 0.59618 1.04432 0.0
C571 C 0.4087 0.61635 0.98653 0.0
C572 C 0.31521 0.7666 1.01877 0.0
C573 C 0.31258 0.81637 1.02616 0.0
C574 C 0.33163 0.83503 1.05544 0.0
C575 C 0.28706 0.84485 1.00565 0.0
C576 C 0.29787 0.90919 1.04433 0.0
C577 C 0.2797 0.89087 1.01467 0.0
C578 C 0.32472 0.88109 1.06427 0.0
C579 C 0.46161 0.73122 1.04348 0.0
O580 O 0.37685 0.64721 1.11213 0.0
O581 O 0.33532 0.70278 1.08753 0.0
O582 O 0.44643 0.60225 1.11016 0.0
O583 O 0.48982 0.60755 1.06696 0.0
O584 O 0.37847 0.57385 1.04776 0.0
O585 O 0.34697 0.63629 1.05511 0.0
O586 O 0.3757 0.64787 0.99032 0.0
O587 O 0.43643 0.61052 1.01219 0.0
O588 O 0.30988 0.74082 1.04402 0.0
O589 O 0.34775 0.75155 0.99954 0.0
O590 O 0.43698 0.73381 1.01722 0.0
O591 O 0.43646 0.71073 1.06442 0.0
H592 H 0.55513 0.56052 1.13467 0.0
H593 H 0.50002 0.69047 1.10624 0.0
H594 H 0.56455 0.73009 1.13269 0.0
H595 H 0.61753 0.60028 1.16407 0.0
H596 H 0.35076 0.81362 1.07201 0.0
H597 H 0.27165 0.83116 0.98317 0.0
H598 H 0.259 0.91196 0.99887 0.0
H599 H 0.33908 0.89448 1.0872 0.0
Gd600 Gd 0.70382 0.17162 0.81546 0.0
Gd601 Gd 0.63499 0.12236 0.7854 0.0
C602 C 0.65937 0.09209 0.86251 0.0
C603 C 0.73831 0.23513 0.85305 0.0
C604 C 0.73014 0.28428 0.85624 0.0
C605 C 0.74977 0.30867 0.8827 0.0
C606 C 0.69715 0.30526 0.83632 0.0
C607 C 0.69945 0.37268 0.87198 0.0
C608 C 0.68183 0.3495 0.84411 0.0
C609 C 0.73459 0.35271 0.89048 0.0
C610 C 0.73862 0.08869 0.79608 0.0
C611 C 0.71917 0.1636 0.73751 0.0
C612 C 0.56978 0.07617 0.75635 0.0
C613 C 0.52037 0.07123 0.7642 0.0
C614 C 0.4926 0.1094 0.77193 0.0
C615 C 0.50151 1.02728 0.76669 0.0
C616 C 0.42855 0.05948 0.78467 0.0
C617 C 0.45617 1.02146 0.77689 0.0
C618 C 0.44703 0.10355 0.78187 0.0
C619 C 0.60165 0.20824 0.80692 0.0
O620 O 0.68759 0.12761 0.8611 0.0
O621 O 0.63452 0.08275 0.83539 0.0
O622 O 0.70324 0.21031 0.86128 0.0
O623 O 0.75821 0.22038 0.826 0.0
O624 O 0.76229 0.12576 0.80045 0.0
O625 O 0.69866 0.09653 0.80644 0.0
O626 O 0.68622 0.1318 0.74054 0.0
O627 O 0.72754 0.19014 0.76377 0.0
O628 O 0.59775 0.05873 0.77768 0.0
O629 O 0.58403 0.11568 0.74615 0.0
O630 O 0.58413 0.16872 0.81285 0.0
O631 O 0.6394 0.19927 0.79233 0.0
H632 H 0.7749 0.29276 0.89844 0.0
H633 H 0.68157 0.28636 0.81599 0.0
H634 H 0.65476 0.36454 0.82965 0.0
H635 H 0.74849 0.37029 0.91211 0.0
H636 H 0.50621 0.14374 0.77072 0.0
H637 H 0.52218 0.9973 0.76125 0.0
H638 H 0.44268 0.98718 0.77881 0.0
H639 H 0.42629 0.13336 0.78764 0.0
C640 C 0.55348 0.24813 0.32011 0.0
C641 C 0.50771 0.26451 0.32261 0.0
C642 C 0.54087 0.34402 0.31858 0.0
C643 C 0.58661 0.32705 0.31335 0.0
N644 N 0.62827 0.25853 0.29618 0.0
N645 N 0.45813 0.32971 0.31955 0.0
C646 C 0.59052 0.2779 0.31047 0.0
C647 C 0.50172 0.31301 0.32058 0.0
N648 N 0.56225 0.20362 0.32727 0.0
N649 N 0.53413 0.39013 0.32111 0.0
H650 H 0.42948 0.30866 0.32107 0.0
H651 H 0.45011 0.36351 0.31451 0.0
H652 H 0.55925 0.41386 0.31548 0.0
H653 H 0.50392 0.40498 0.32965 0.0
H654 H 0.59529 0.19067 0.32963 0.0
H655 H 0.53658 0.18082 0.33377 0.0
H656 H 0.63212 0.2234 0.29258 0.0
H657 H 0.65184 0.27677 0.28265 0.0
C658 C 0.53228 0.76343 0.59075 0.0
C659 C 0.57742 0.76299 0.57672 0.0
C660 C 0.55568 0.83772 0.55186 0.0
C661 C 0.51384 0.8422 0.57014 0.0
N662 N 0.46882 0.80786 0.61325 0.0
N663 N 0.63421 0.81116 0.55291 0.0
C664 C 0.50399 0.80458 0.59128 0.0
C665 C 0.58947 0.80333 0.55971 0.0
N666 N 0.51501 0.72399 0.6029 0.0
N667 N 0.56317 0.86503 0.52564 0.0
H668 H 0.65979 0.78893 0.56036 0.0
H669 H 0.64574 0.84192 0.54346 0.0
H670 H 0.53857 0.88729 0.51658 0.0
H671 H 0.59117 0.86043 0.51012 0.0
H672 H 0.48093 0.72044 0.60983 0.0
H673 H 0.53313 0.69343 0.60261 0.0
H674 H 0.46373 0.78416 0.63166 0.0
H675 H 0.44725 0.83591 0.61548 0.0
C676 C 1.04429 0.8418 0.84523 0.0
C677 C 0.08217 0.83699 0.82301 0.0
C678 C 1.04271 0.76606 0.8001 0.0
C679 C 1.00403 0.772 0.82145 0.0
N680 N 0.96726 0.82054 0.86204 0.0
N681 N 0.11361 0.79522 0.77645 0.0
C682 C 1.00495 0.81133 0.84328 0.0
C683 C 0.08002 0.79934 0.79963 0.0
N684 N 1.04578 0.87593 0.86886 0.0
N685 N 1.04437 0.72755 0.78045 0.0
H686 H 0.14249 0.81595 0.7764 0.0
H687 H 0.1117 0.7732 0.75595 0.0
H688 H 1.01757 0.70419 0.7792 0.0
H689 H 0.07307 0.71698 0.76722 0.0
H690 H 1.0239 0.87783 0.88903 0.0
H691 H 0.07035 0.90173 0.8692 0.0
H692 H 0.96157 0.85147 0.87458 0.0
H693 H 0.94018 0.7978 0.86373 0.0
C694 C 0.086 0.30056 1.05015 0.0
C695 C 0.07668 0.2626 1.07054 0.0
C696 C 1.00394 0.30339 1.08707 0.0
C697 C 1.01156 0.3404 1.06494 0.0
N698 N 0.05545 0.36216 1.01727 0.0
N699 N 1.01599 0.22281 1.09786 0.0
C700 C 0.05141 0.33537 1.04422 0.0
C701 C 1.0326 0.26276 1.08595 0.0
N702 N 0.12846 0.30438 1.03668 0.0
N703 N 0.97019 0.30636 1.11019 0.0
H704 H 1.03295 0.19172 1.0946 0.0
H705 H 0.98265 0.21931 1.10643 0.0
H706 H 0.94745 0.33338 1.11262 0.0
H707 H 0.96735 0.28317 1.12921 0.0
H708 H 0.13941 0.33361 1.02481 0.0
H709 H 0.15391 0.27986 1.03981 0.0
H710 H 0.08125 0.35773 0.99982 0.0
H711 H 1.02979 0.38438 1.00979 0.0
C712 C 0.53731 0.84422 1.05037 0.0
C713 C 0.58247 0.82777 1.05792 0.0
C714 C 0.54825 0.74847 1.05499 0.0
C715 C 0.50279 0.76476 1.05044 0.0
N716 N 0.45452 0.8311 1.04835 0.0
N717 N 0.62199 0.76224 1.08051 0.0
C718 C 0.49774 0.81354 1.04931 0.0
C719 C 0.58529 0.77937 1.06399 0.0
N720 N 0.53144 0.88962 1.04462 0.0
N721 N 0.55699 0.70307 1.04976 0.0
H722 H 0.64514 0.78266 1.09359 0.0
H723 H 0.62513 0.72785 1.08617 0.0
H724 H 0.53148 0.67975 1.043 0.0
H725 H 0.59001 0.68963 1.04915 0.0
H726 H 0.50193 0.90302 1.03414 0.0
H727 H 0.55658 0.91402 1.0495 0.0
H728 H 0.44702 0.86575 1.05121 0.0
H729 H 0.4256 0.81036 1.04754 0.0
C730 C 0.52899 0.25613 0.82322 0.0
C731 C 0.57187 0.25331 0.80591 0.0
C732 C 0.55492 0.33389 0.78894 0.0
C733 C 0.50873 0.33258 0.80062 0.0
N734 N 0.45114 0.28522 0.82396 0.0
N735 N 0.61954 0.292 0.76618 0.0
C736 C 0.49583 0.29167 0.81641 0.0
C737 C 0.58311 0.29292 0.78712 0.0
N738 N 0.52007 0.22619 0.84769 0.0
N739 N 0.57331 0.37497 0.78084 0.0
H740 H 0.64129 0.26427 0.76294 0.0
H741 H 0.62567 0.31784 0.74949 0.0
H742 H 0.55576 0.40575 0.78418 0.0
H743 H 0.60778 0.3791 0.77517 0.0
H744 H 0.49063 0.228 0.86207 0.0
H745 H 0.54453 0.2038 0.85675 0.0
H746 H 0.4389 0.25318 0.83017 0.0
H747 H 0.42632 0.31022 0.82041 0.0
C748 C 0.07338 0.29734 0.57638 0.0
C749 C 0.081 0.33231 0.55256 0.0
C750 C 1.00461 0.30918 0.5289 0.0
C751 C 1.00115 0.2691 0.54872 0.0
N752 N 1.0392 0.22371 0.58927 0.0
N753 N 0.05391 0.36244 0.50089 0.0
C754 C 1.03752 0.26307 0.57192 0.0
C755 C 1.04658 0.33564 0.52744 0.0
N756 N 0.09929 0.29764 0.60447 0.0
N757 N 0.96687 0.32442 0.51256 0.0
H758 H 0.08361 0.38109 0.49738 0.0
H759 H 1.03235 0.36204 0.48034 0.0
H760 H 0.93467 0.3099 0.51499 0.0
H761 H 0.96611 0.35548 0.5005 0.0
H762 H 0.09288 0.27628 0.62412 0.0
H763 H 0.1235 0.32287 0.6099 0.0
H764 H 0.06723 0.21467 0.60367 0.0
H765 H 1.01453 0.19815 0.5869 0.0
C766 C 0.09257 0.80336 0.30631 0.0
C767 C 0.07391 0.75816 0.30511 0.0
C768 C 0.99607 0.79606 0.30664 0.0
C769 C 1.01469 0.84111 0.30482 0.0
N770 N 0.08331 0.883 0.29172 0.0
N771 N 1.00494 0.71528 0.2927 0.0
C772 C 0.06373 0.84336 0.30168 0.0
C773 C 1.0248 0.75569 0.30224 0.0
N774 N 0.13813 0.80883 0.31255 0.0
N775 N 0.95066 0.79117 0.31328 0.0
H776 H 1.02383 0.68685 0.28507 0.0
H777 H 0.97014 0.71204 0.28755 0.0
H778 H 0.92868 0.81895 0.31669 0.0
H779 H 0.93593 0.75974 0.31852 0.0
H780 H 0.15298 0.84069 0.31736 0.0
H781 H 0.1602 0.78135 0.31604 0.0
H782 H 0.11799 0.88587 0.28633 0.0
H783 H 0.06419 0.91082 0.28407 0.0
C784 C 0.68612 0.17206 0.21773 0.0
C785 C 0.6422 0.18957 0.20931 0.0
C786 C 0.67503 0.21507 1.15814 0.0
C787 C 0.70473 0.1775 1.16007 0.0
N788 N 0.763 0.15404 0.19736 0.0
N789 N 0.59878 0.23901 1.17306 0.0
C790 C 0.71963 0.16924 0.19241 0.0
C791 C 0.6381 0.21648 1.18058 0.0
N792 N 0.69368 0.15518 0.24832 0.0
N793 N 0.68018 0.24563 1.13372 0.0
H794 H 0.57063 0.24049 0.18863 0.0
H795 H 0.59397 0.25487 1.15055 0.0
H796 H 0.70697 0.24213 1.11684 0.0
H797 H 0.66002 0.27491 1.13202 0.0
H798 H 0.72393 0.13918 0.25522 0.0
H799 H 0.6688 0.15743 0.26669 0.0
H800 H 0.77632 0.14676 0.22048 0.0
H801 H 0.78555 0.15037 1.17752 0.0
C802 C 0.6266 0.85079 0.40854 0.0
C803 C 0.64448 0.86405 0.44014 0.0
C804 C 0.64386 0.94354 0.423 0.0
C805 C 0.64589 0.92585 0.39051 0.0
N806 N 0.59457 0.88003 0.35768 0.0
N807 N 0.65577 0.92521 0.48067 0.0
C808 C 0.62068 0.88555 0.38528 0.0
C809 C 0.64678 0.91159 0.44889 0.0
N810 N 0.61966 0.80612 0.39955 0.0
N811 N 0.64574 0.98958 0.42813 0.0
H812 H 0.65838 0.90182 0.49961 0.0
H813 H 0.66114 0.95912 0.48803 0.0
H814 H 0.64676 1.01143 0.40811 0.0
H815 H 0.64375 1.00542 0.45135 0.0
H816 H 0.61095 0.79603 0.37549 0.0
H817 H 0.62477 0.77913 0.41536 0.0
H818 H 0.57392 0.85143 0.35341 0.0
H819 H 0.59139 0.90644 0.3409 0.0
C820 C 0.95028 0.87572 0.68499 0.0
C821 C 0.94099 0.90001 0.71478 0.0
C822 C 0.87139 0.92992 0.69033 0.0
C823 C 0.89268 0.92272 0.6595 0.0
N824 N 0.92663 0.86122 0.62803 0.0
N825 N 0.88444 0.936 0.74965 0.0
C826 C 0.92321 0.8855 0.65695 0.0
C827 C 0.8975 0.9207 0.71911 0.0
N828 N 0.98752 0.8478 0.68318 0.0
N829 N 0.83019 0.95154 0.69135 0.0
H830 H 0.90359 0.9288 0.77066 0.0
H831 H 0.85496 0.95505 0.7541 0.0
H832 H 0.81369 0.96046 0.6695 0.0
H833 H 0.81196 0.9581 0.71296 0.0
H834 H 0.99916 0.83253 0.6613 0.0
H835 H 1.00698 0.84104 0.70419 0.0
H836 H 0.94753 0.83261 0.62493 0.0
H837 H 0.90456 0.86744 0.60837 0.0
C838 C 0.7037 0.48617 0.91208 0.0
C839 C 0.68627 0.46841 0.94138 0.0
C840 C 0.64409 0.41223 0.90895 0.0
C841 C 0.67916 0.41557 0.88498 0.0
N842 N 0.73676 0.46198 0.85989 0.0
N843 N 0.61154 0.44684 0.95902 0.0
C844 C 0.70591 0.45589 0.88439 0.0
C845 C 0.6461 0.44249 0.93683 0.0
N846 N 0.72226 0.5287 0.91237 0.0
N847 N 0.61236 0.37825 0.90648 0.0
H848 H 0.61436 0.46977 0.97911 0.0
H849 H 0.58008 0.43052 0.95609 0.0
H850 H 0.61032 0.35657 0.8857 0.0
H851 H 0.58894 0.37156 0.92505 0.0
H852 H 0.73459 0.54375 0.89113 0.0
H853 H 0.72218 0.54901 0.93395 0.0
H854 H 0.76103 0.48806 0.86078 0.0
H855 H 0.73871 0.43926 0.83967 0.0
C856 C 0.44832 0.24984 0.93493 0.0
C857 C 0.4076 0.23001 0.92136 0.0
C858 C 0.41427 0.17043 0.96157 0.0
C859 C 0.43655 0.20256 0.9824 0.0
N860 N 0.49711 0.25669 0.98405 0.0
N861 N 0.35579 0.16488 0.91959 0.0
C862 C 0.46319 0.23537 0.96654 0.0
C863 C 0.39253 0.18718 0.9331 0.0
N864 N 0.47002 0.28382 0.91866 0.0
N865 N 0.4106 0.12616 0.97067 0.0
H866 H 0.33773 0.17674 0.89937 0.0
H867 H 0.34181 0.13577 0.92993 0.0
H868 H 0.42696 0.11474 0.99189 0.0
H869 H 0.39552 0.10095 0.95562 0.0
H870 H 0.49993 0.29953 0.927 0.0
H871 H 0.45883 0.2944 0.89558 0.0
H872 H 0.51658 0.28355 0.97533 0.0
H873 H 0.5052 0.2463 1.00787 0.0
C874 C 0.34127 0.63357 0.51489 0.0
C875 C 0.37803 0.66402 0.51979 0.0
C876 C 0.40189 0.65187 0.4632 0.0
C877 C 0.35624 0.63917 0.45604 0.0
N878 N 0.28631 0.60451 0.47432 0.0
N879 N 0.4575 0.67079 0.50621 0.0
C880 C 0.32777 0.62344 0.48174 0.0
C881 C 0.41381 0.66141 0.49656 0.0
N882 N 0.31527 0.62294 0.54138 0.0
N883 N 0.43166 0.65866 0.43799 0.0
H884 H 0.46569 0.6772 0.53095 0.0
H885 H 0.4855 0.66803 0.49051 0.0
H886 H 0.42265 0.6508 0.41354 0.0
H887 H 0.46423 0.67241 0.44124 0.0
H888 H 0.28614 0.60262 0.54004 0.0
H889 H 0.32491 0.63397 0.56512 0.0
H890 H 0.26283 0.59427 0.49187 0.0
H891 H 0.27555 0.59917 0.45 0.0
C892 C 0.20221 0.55633 0.74302 0.0
C893 C 0.1829 0.58918 0.72169 0.0
C894 C 0.17269 0.64083 0.76891 0.0
C895 C 0.17384 0.60208 0.78889 0.0
N896 N 0.2199 0.53731 0.80012 0.0
N897 N 0.15763 0.66696 0.71372 0.0
C898 C 0.20142 0.56573 0.77761 0.0
C899 C 0.17199 0.63354 0.73425 0.0
N900 N 0.21702 0.51531 0.73046 0.0
N901 N 0.16961 0.68332 0.78309 0.0
H902 H 0.15725 0.66267 0.68813 0.0
H903 H 0.1446 0.6982 0.72226 0.0
H904 H 0.16922 0.68799 0.80865 0.0
H905 H 0.17189 0.71318 0.76971 0.0
H906 H 0.22694 0.48837 0.74515 0.0
H907 H 0.21902 0.50862 0.70509 0.0
H908 H 0.24092 0.50973 0.79388 0.0
H909 H 0.21582 0.54411 0.82537 0.0
C910 C 0.71283 0.6741 1.18512 0.0
C911 C 0.69663 0.68058 0.21753 0.0
C912 C 0.62854 0.71652 0.19749 0.0
C913 C 0.63493 0.69077 1.16753 0.0
N914 N 0.6892 0.65964 1.12817 0.0
N915 N 0.66756 0.74646 0.24667 0.0
C916 C 0.67991 0.67566 1.15927 0.0
C917 C 0.6648 0.71637 0.22068 0.0
N918 N 0.75728 0.66217 1.18024 0.0
N919 N 0.58786 0.73673 0.20521 0.0
H920 H 0.69404 0.74397 0.26393 0.0
H921 H 0.64576 0.77452 0.24938 0.0
H922 H 0.56014 0.73718 0.1891 0.0
H923 H 0.58151 0.75161 0.22838 0.0
H924 H 0.77184 0.6577 1.15697 0.0
H925 H 0.77948 0.65912 0.20034 0.0
H926 H 0.7203 0.64486 1.12141 0.0
H927 H 0.66486 0.66111 1.10932 0.0
C928 C 0.30894 0.48364 0.31315 0.0
C929 C 0.27661 0.44788 0.30849 0.0
C930 C 0.22453 0.50158 0.28161 0.0
C931 C 0.25414 0.53852 0.2903 0.0
N932 N 0.32947 0.5627 0.30995 0.0
N933 N 0.20259 0.42252 0.28947 0.0
C934 C 0.29788 0.52898 0.30432 0.0
C935 C 0.23426 0.45671 0.29273 0.0
N936 N 0.35084 0.47576 0.32672 0.0
N937 N 0.18793 0.50933 0.26144 0.0
H938 H 0.2091 0.38895 0.29626 0.0
H939 H 0.16895 0.42786 0.28204 0.0
H940 H 0.18128 0.54132 0.25168 0.0
H941 H 0.16714 0.48357 0.25154 0.0
H942 H 0.36235 0.44378 0.33409 0.0
H943 H 0.36235 0.44378 0.33409 0.0
H944 H 0.3263 0.59594 0.30194 0.0
H945 H 0.36076 0.55668 0.32155 0.0
C946 C 0.35939 0.53608 0.58842 0.0
C947 C 0.39447 0.52878 0.56481 0.0
C948 C 0.3393 0.49224 0.52687 0.0
C949 C 0.30317 0.50398 0.54878 0.0
N950 N 0.27843 0.53813 0.60058 0.0
N951 N 0.417 0.507 0.50951 0.0
C952 C 0.31314 0.52641 0.57957 0.0
C953 C 0.38409 0.50925 0.53333 0.0
N954 N 0.37053 0.55074 0.61974 0.0
N955 N 0.33162 0.46228 0.50108 0.0
H956 H 0.45052 0.51798 0.51361 0.0
H957 H 0.41004 0.49782 0.48501 0.0
H958 H 0.30006 0.44663 0.49687 0.0
H959 H 0.35758 0.44907 0.48612 0.0
H960 H 0.34776 0.55099 0.63941 0.0
H961 H 0.4037 0.55978 0.62682 0.0
H962 H 0.28245 0.55959 0.62124 0.0
H963 H 0.24474 0.52824 0.59652 0.0
C964 C 0.33514 0.62716 0.82935 0.0
C965 C 0.30719 0.64831 0.80569 0.0
C966 C 0.31598 0.58022 0.76878 0.0
C967 C 0.34245 0.55916 0.79358 0.0
N968 N 0.40191 0.58121 0.83227 0.0
N969 N 0.27902 0.65007 0.74983 0.0
C970 C 0.35908 0.5873 0.82 0.0
C971 C 0.3002 0.62646 0.7742 0.0
N972 N 0.34182 0.64642 0.86005 0.0
N973 N 0.30903 0.55718 0.7395 0.0
H974 H 0.2665 0.68318 0.75362 0.0
H975 H 0.27466 0.63784 0.72574 0.0
H976 H 0.32184 0.52436 0.73498 0.0
H977 H 0.29163 0.57033 0.71945 0.0
H978 H 0.35953 0.62951 0.87853 0.0
H979 H 0.32751 0.67747 0.86781 0.0
H980 H 0.41623 0.60235 0.85064 0.0
H981 H 0.42601 0.56275 0.81883 0.0
C982 C 0.20993 0.59011 1.04867 0.0
C983 C 0.20483 0.55069 1.06809 0.0
C984 C 0.28554 0.53132 1.05771 0.0
C985 C 0.29306 0.57553 1.04501 0.0
N986 N 0.2607 0.64453 1.02336 0.0
N987 N 0.23887 0.48483 1.09308 0.0
C988 C 0.25455 0.60402 1.03881 0.0
C989 C 0.24289 0.52138 1.07296 0.0
N990 N 0.1719 0.61335 1.03869 0.0
N991 N 0.31795 0.49806 1.0539 0.0
H992 H 0.20836 0.47644 1.10472 0.0
H993 H 0.26676 0.46535 1.10048 0.0
H994 H 0.34668 0.50216 1.03917 0.0
H995 H 0.31291 0.46439 1.06085 0.0
H996 H 0.17254 0.63953 1.02177 0.0
H997 H 0.1388 0.60398 1.04521 0.0
H998 H 0.2361 0.67022 1.02255 0.0
H999 H 0.29114 0.65274 1.01161 0.0
C1000 C 0.84753 0.59704 1.0893 0.0
C1001 C 0.82711 0.55685 1.07544 0.0
C1002 C 0.77644 0.60433 1.04169 0.0
C1003 C 0.79675 0.6442 1.0558 0.0
N1004 N 0.84261 0.67918 1.09883 0.0
N1005 N 0.76433 0.5229 1.04359 0.0
C1006 C 0.82952 0.64071 1.08146 0.0
C1007 C 0.78868 0.56064 1.05372 0.0
N1008 N 0.88491 0.59356 1.10945 0.0
N1009 N 0.74759 0.60794 1.0152 0.0
H1010 H 0.77351 0.4894 1.04811 0.0
H1011 H 0.73265 0.52488 1.0319 0.0
H1012 H 0.73784 0.63913 1.00544 0.0
H1013 H 0.73609 0.58006 1.00103 0.0
H1014 H 0.90492 0.6214 1.11686 0.0
H1015 H 0.89752 0.56236 1.11748 0.0
H1016 H 0.86271 0.67855 1.12006 0.0
H1017 H 0.8298 0.71159 1.09379 0.0
C1018 C 0.74359 0.52537 0.79667 0.0
C1019 C 0.70481 0.55093 0.80687 0.0
C1020 C 0.75405 0.60564 0.83688 0.0
C1021 C 0.79323 0.58318 0.82368 0.0
N1022 N 0.82525 0.5236 0.78784 0.0
N1023 N 0.67205 0.61726 0.83415 0.0
C1024 C 0.78815 0.54311 0.80312 0.0
C1025 C 0.70972 0.59141 0.82649 0.0
N1026 N 0.73766 0.48379 0.78106 0.0
N1027 N 0.75925 0.64002 0.86006 0.0
H1028 H 0.63883 0.60741 0.82781 0.0
H1029 H 0.67375 0.64998 0.84475 0.0
H1030 H 0.7911 0.65179 0.86812 0.0
H1031 H 0.73227 0.65424 0.87349 0.0
H1032 H 0.76411 0.46069 0.77648 0.0
H1033 H 0.70551 0.47027 0.77537 0.0
H1034 H 0.82286 0.49794 0.7697 0.0
H1035 H 0.85849 0.53569 0.79032 0.0
C1036 C 0.81103 0.50111 0.532 0.0
C1037 C 0.79674 0.46345 0.55074 0.0
C1038 C 0.75083 0.5147 0.5863 0.0
C1039 C 0.76682 0.55314 0.5688 0.0
N1040 N 0.81393 0.5831 0.52517 0.0
N1041 N 0.75981 0.43463 0.59902 0.0
C1042 C 0.79788 0.54646 0.54195 0.0
C1043 C 0.76895 0.47045 0.579 0.0
N1044 N 0.83551 0.49317 0.50372 0.0
N1045 N 0.71633 0.51992 0.60877 0.0
H1046 H 0.77079 0.4013 0.59389 0.0
H1047 H 0.74458 0.43851 0.6221 0.0
H1048 H 0.70224 0.55148 0.61542 0.0
H1049 H 0.69899 0.49264 0.61899 0.0
H1050 H 0.84206 0.51781 0.48628 0.0
H1051 H 0.84744 0.4608 0.49659 0.0
H1052 H 0.84142 0.5813 0.50897 0.0
H1053 H 0.80116 0.61611 0.52792 0.0
C1054 C 0.83546 0.49344 0.3353 0.0
C1055 C 0.79665 0.51916 0.3255 0.0
C1056 C 0.84627 0.56901 0.29327 0.0
C1057 C 0.88483 0.54281 0.30257 0.0
N1058 N 0.91816 0.48495 0.33651 0.0
N1059 N 0.76831 0.59129 0.30514 0.0
C1060 C 0.88002 0.50659 0.32499 0.0
C1061 C 0.80289 0.56006 0.30762 0.0
N1062 N 0.82938 0.45593 0.35429 0.0
N1063 N 0.85091 0.60204 0.2702 0.0
H1064 H 0.73773 0.58926 0.31792 0.0
H1065 H 0.77217 0.6229 0.29422 0.0
H1066 H 0.88237 0.6111 0.26024 0.0
H1067 H 0.82325 0.61794 0.25899 0.0
H1068 H 0.8546 0.43171 0.35869 0.0
H1069 H 0.79819 0.44853 0.36535 0.0
H1070 H 0.91785 0.46179 0.35558 0.0
H1071 H 0.95106 0.49194 0.3282 0.0
C1072 C 0.81674 0.98906 0.8179 0.0
C1073 C 0.78388 0.95337 0.81855 0.0
C1074 C 0.72818 1.00363 0.79202 0.0
C1075 C 0.75845 1.04119 0.79641 0.0
N1076 N 0.8374 0.06522 0.80295 0.0
N1077 N 0.70742 0.92661 0.80693 0.0
C1078 C 0.80444 1.03263 0.80606 0.0
C1079 C 0.73941 0.96054 0.80553 0.0
N1080 N 0.86051 0.98261 0.82844 0.0
N1081 N 0.68991 1.00872 0.77307 0.0
H1082 H 0.71463 0.89417 0.81575 0.0
H1083 H 0.67295 0.93153 0.80153 0.0
H1084 H 0.68335 1.03881 0.76055 0.0
H1085 H 0.66806 0.98196 0.7664 0.0
H1086 H 0.87294 0.95186 0.83748 0.0
H1087 H 0.87294 0.95186 0.83748 0.0
H1088 H 0.87097 0.0605 0.81104 0.0
H1089 H 0.83268 0.09449 0.78927 0.0
C1090 C 0.80603 0.05509 1.06043 0.0
C1091 C 0.79828 1.01224 1.04367 0.0
C1092 C 0.88111 0.9974 1.04404 0.0
C1093 C 0.88879 1.04099 1.05909 0.0
N1094 N 0.86001 0.11575 1.07391 0.0
N1095 N 0.82966 0.9485 1.01234 0.0
C1096 C 0.85166 0.0713 1.06463 0.0
C1097 C 0.8363 0.98532 1.03321 0.0
N1098 N 0.77078 0.07887 1.07482 0.0
N1099 N 0.91623 0.96669 1.04129 0.0
H1100 H 0.7975 0.9391 1.00333 0.0
H1101 H 0.85633 0.93019 1.00133 0.0
H1102 H 0.94964 0.97427 1.04864 0.0
H1103 H 0.91152 0.93254 1.03422 0.0
H1104 H 0.77573 0.1072 1.09049 0.0
H1105 H 0.73697 0.06811 1.07451 0.0
H1106 H 0.83464 0.14078 1.07482 0.0
H1107 H 0.89297 0.12858 1.07755 0.0
C1108 C 0.79966 0.06261 0.32752 0.0
C1109 C 0.83029 0.05704 0.30035 0.0
C1110 C 0.82699 0.13997 0.29141 0.0
C1111 C 0.80007 0.14594 0.32025 0.0
N1112 N 0.76553 0.11414 0.36839 0.0
N1113 N 0.87942 0.09157 0.26025 0.0
C1114 C 0.78712 0.10751 0.33876 0.0
C1115 C 0.84552 0.09606 0.28326 0.0
N1116 N 0.78349 1.02524 0.34341 0.0
N1117 N 0.8344 0.17634 0.27157 0.0
H1118 H 0.89402 0.06021 0.25352 0.0
H1119 H 0.89578 0.11923 0.24975 0.0
H1120 H 0.82108 0.20884 0.27667 0.0
H1121 H 0.85006 0.17353 0.24858 0.0
H1122 H 0.75622 1.0266 0.35984 0.0
H1123 H 0.79558 0.99219 0.33931 0.0
H1124 H 0.76045 0.08845 0.38531 0.0
H1125 H 0.75562 0.14629 0.37747 0.0
C1126 C 0.78014 0.06196 0.58527 0.0
C1127 C 0.78752 0.07877 0.55302 0.0
C1128 C 0.70635 0.06532 0.5397 0.0
C1129 C 0.69806 0.05442 0.57311 0.0
N1130 N 0.72582 1.04619 0.62867 0.0
N1131 N 0.75796 0.09778 0.49961 0.0
C1132 C 0.73473 0.05326 0.59607 0.0
C1133 C 0.7507 0.08047 0.53017 0.0
N1134 N 0.81648 0.05421 0.6057 0.0
N1135 N 0.67184 0.06059 0.51703 0.0
H1136 H 0.79042 0.10648 0.49122 0.0
H1137 H 0.73188 0.10543 0.4831 0.0
H1138 H 0.63898 1.05006 0.52327 0.0
H1139 H 0.67641 0.06375 0.49175 0.0
H1140 H 0.81386 1.03726 0.6279 0.0
H1141 H 0.85013 0.06106 0.59935 0.0
H1142 H 0.74986 1.05113 0.64742 0.0
H1143 H 0.69327 1.03872 0.63747 0.0
C1144 C 0.30002 0.10395 0.51843 0.0
C1145 C 0.29825 0.14002 0.5424 0.0
C1146 C 0.32455 0.08778 0.58519 0.0
C1147 C 0.32513 1.0514 0.56141 0.0
N1148 N 0.30585 1.0226 0.50667 0.0
N1149 N 0.30184 0.1658 0.59924 0.0
C1150 C 0.3103 0.05877 0.52845 0.0
C1151 C 0.30828 0.13171 0.57604 0.0
N1152 N 0.2938 0.11328 0.48579 0.0
N1153 N 0.3408 0.08054 0.61631 0.0
H1154 H 0.29134 0.19868 0.59327 0.0
H1155 H 0.30382 0.16093 0.62455 0.0
H1156 H 0.35067 1.04834 0.62426 0.0
H1157 H 0.34666 0.10654 0.63379 0.0
H1158 H 0.30101 0.09013 0.4666 0.0
H1159 H 0.28447 0.14549 0.47755 0.0
H1160 H 0.29051 1.02498 0.48356 0.0
H1161 H 0.31407 0.9891 0.51242 0.0
C1162 C 0.21453 0.08173 0.32799 0.0
C1163 C 0.20606 0.05402 0.29932 0.0
C1164 C 0.28798 0.05528 0.28634 0.0
C1165 C 0.29703 0.07968 0.31653 0.0
N1166 N 0.26964 0.10778 0.36916 0.0
N1167 N 0.23629 1.00504 0.25595 0.0
C1168 C 0.26046 0.09014 0.33834 0.0
C1169 C 0.24332 1.03781 0.28003 0.0
N1170 N 0.1789 0.10212 0.34438 0.0
N1171 N 0.32084 1.05118 0.26256 0.0
H1172 H 0.20422 0.99086 0.25091 0.0
H1173 H 0.26293 0.98868 0.24337 0.0
H1174 H 0.35379 0.06415 0.2652 0.0
H1175 H 0.31401 1.03869 0.23876 0.0
H1176 H 0.18332 0.12658 0.36322 0.0
H1177 H 0.14488 0.09792 0.33718 0.0
H1178 H 0.24484 0.11209 0.38735 0.0
H1179 H 0.30287 0.11366 0.37759 0.0
C1180 C 0.28811 1.03942 1.04384 0.0
C1181 C 0.26191 1.04837 1.07285 0.0
C1182 C 0.25826 0.96591 1.08268 0.0
C1183 C 0.28717 0.95729 1.0551 0.0
N1184 N 0.33791 0.98671 1.014 0.0
N1185 N 0.23023 1.0211 1.12342 0.0
C1186 C 0.30474 0.99438 1.03714 0.0
C1187 C 0.2497 1.01184 1.09341 0.0
N1188 N 0.29494 0.07306 1.02155 0.0
N1189 N 0.23699 0.93037 1.09762 0.0
H1190 H 0.224 0.05435 1.13209 0.0
H1191 H 0.22458 0.99632 1.14097 0.0
H1192 H 0.2415 0.89629 1.0902 0.0
H1193 H 0.21167 0.93485 1.11542 0.0
H1194 H 0.30893 0.06693 0.99826 0.0
H1195 H 0.28314 0.1064 1.02491 0.0
H1196 H 0.35542 1.01294 1.00256 0.0
H1197 H 0.35103 0.95424 1.00853 0.0
C1198 C 0.3682 1.0494 0.82856 0.0
C1199 C 0.37978 1.05273 0.79466 0.0
C1200 C 0.29932 1.03929 0.77943 0.0
C1201 C 0.28914 1.02917 0.8128 0.0
N1202 N 0.31304 1.0252 0.86946 0.0
N1203 N 0.35734 1.0487 0.73743 0.0
C1204 C 0.32331 1.03488 0.83751 0.0
C1205 C 0.34546 1.04756 0.77002 0.0
N1206 N 0.40011 0.06048 0.85214 0.0
N1207 N 0.2648 1.0415 0.7567 0.0
H1208 H 0.39027 0.05648 0.72952 0.0
H1209 H 0.33553 1.0389 0.71818 0.0
H1210 H 0.23061 1.03621 0.76249 0.0
H1211 H 0.26924 1.05287 0.7328 0.0
H1212 H 0.39293 0.0634 0.87723 0.0
H1213 H 0.43343 0.07012 0.84639 0.0
H1214 H 0.33727 1.02316 0.88822 0.0
H1215 H 0.27992 1.01756 0.87701 0.0
C1216 C 0.26599 0.17268 0.23092 0.0
C1217 C 0.3133 0.18531 0.22856 0.0
C1218 C 0.30126 0.1876 1.16706 0.0
C1219 C 0.25313 0.17682 1.16926 0.0
N1220 N 0.18956 0.16852 0.20615 0.0
N1221 N 0.3723 0.21344 0.19365 0.0
C1222 C 0.23577 0.17178 0.20208 0.0
C1223 C 0.32958 0.19501 0.19636 0.0
N1224 N 0.24973 0.16 0.26086 0.0
N1225 N 0.32144 0.18882 1.13679 0.0
H1226 H 0.3937 0.21923 0.21397 0.0
H1227 H 0.3848 0.22722 1.17203 0.0
H1228 H 0.30366 0.18621 1.11473 0.0
H1229 H 0.35671 0.18903 1.13338 0.0
H1230 H 0.21798 0.14477 0.26412 0.0
H1231 H 0.26933 0.16195 0.28234 0.0
H1232 H 0.17359 0.16995 0.22906 0.0
H1233 H 0.16656 0.16896 1.18647 0.0
C1234 C 0.67154 0.4931 0.45068 0.0
C1235 C 0.66793 0.51023 0.41791 0.0
C1236 C 0.65584 0.58857 0.44521 0.0
C1237 C 0.65958 0.57113 0.47776 0.0
N1238 N 0.67431 0.50341 0.50964 0.0
N1239 N 0.6503 0.57697 0.38571 0.0
C1240 C 0.66798 0.52283 0.4798 0.0
C1241 C 0.65826 0.55867 0.41587 0.0
N1242 N 0.677 0.44723 0.45474 0.0
N1243 N 0.65133 0.63481 0.44207 0.0
H1244 H 0.65688 0.56016 0.36349 0.0
H1245 H 0.63504 0.60868 0.38241 0.0
H1246 H 0.64514 0.65703 0.46206 0.0
H1247 H 0.65606 0.65179 0.42008 0.0
H1248 H 0.67894 0.43266 0.47794 0.0
H1249 H 0.67766 0.4236 0.4351 0.0
H1250 H 0.67349 0.52137 0.53218 0.0
H1251 H 0.67349 0.52137 0.53218 0.0
C1252 C 0.32162 0.92842 0.72667 0.0
C1253 C 0.27322 0.92041 0.72387 0.0
C1254 C 0.28352 0.92472 0.6624 0.0
C1255 C 0.3325 0.93016 0.66475 0.0
N1256 N 0.39753 0.9286 0.70119 0.0
N1257 N 0.21133 0.90141 0.68715 0.0
C1258 C 0.35111 0.92977 0.69758 0.0
C1259 C 0.25541 0.91605 0.69115 0.0
N1260 N 0.33974 0.93651 0.75734 0.0
N1261 N 0.26256 0.9301 0.63265 0.0
H1262 H 0.19009 0.89429 0.707 0.0
H1263 H 0.19734 0.89163 0.6644 0.0
H1264 H 0.28026 0.93571 0.6111 0.0
H1265 H 0.22731 0.93327 0.62981 0.0
H1266 H 0.37306 0.94767 0.76144 0.0
H1267 H 0.3204 0.93578 0.77883 0.0
H1268 H 0.414 0.92311 0.72355 0.0
H1269 H 0.41983 0.92885 0.6812 0.0
C1270 C 0.87726 0.57558 0.93547 0.0
C1271 C 0.91627 0.5989 0.92277 0.0
C1272 C 0.96266 0.55527 0.96469 0.0
C1273 C 0.92294 0.5355 0.97942 0.0
N1274 N 0.84049 0.53865 0.98141 0.0
N1275 N 0.99619 0.61506 0.93112 0.0
C1276 C 0.87989 0.549 0.96536 0.0
C1277 C 0.9589 0.58963 0.93911 0.0
N1278 N 0.83728 0.57639 0.91811 0.0
N1279 N 1.00471 0.53978 0.97397 0.0
H1280 H 0.99486 0.64069 0.9137 0.0
H1281 H 1.02696 0.61415 0.94408 0.0
H1282 H 1.00907 0.51453 0.99142 0.0
H1283 H 1.03485 0.54843 0.96205 0.0
H1284 H 0.80975 0.55527 0.92327 0.0
H1285 H 0.83324 0.5943 0.89649 0.0
H1286 H 0.80867 0.5516 0.97476 0.0
H1287 H 0.83992 0.52125 1.00341 0.0
C1288 C 0.82033 0.96992 1.1844 0.0
C1289 C 0.84113 0.93078 0.19892 0.0
C1290 C 0.79482 0.8831 1.15789 0.0
C1291 C 0.77719 0.92241 1.14162 0.0
N1292 N 0.78459 1.00417 1.13662 0.0
N1293 N 0.8528 0.84949 0.1936 0.0
C1294 C 0.79321 0.96594 1.15425 0.0
C1295 C 0.82942 0.88731 1.18389 0.0
N1296 N 0.82415 1.01139 0.20027 0.0
N1297 N 0.77705 0.84121 1.14959 0.0
H1298 H 0.87866 0.85101 0.21137 0.0
H1299 H 0.85003 0.81766 1.1817 0.0
H1300 H 0.75179 0.83664 1.1316 0.0
H1301 H 0.78398 0.81177 1.16266 0.0
H1302 H 0.80546 1.0401 0.1936 0.0
H1303 H 0.84242 1.01598 0.22213 0.0
H1304 H 0.79952 1.0358 1.14207 0.0
H1305 H 0.76657 1.0034 1.11448 0.0
C1306 C 0.37394 0.5635 0.93895 0.0
C1307 C 0.41302 0.5843 0.9546 0.0
C1308 C 0.46059 0.53713 0.91401 0.0
C1309 C 0.42126 0.52015 0.8964 0.0
N1310 N 0.33967 0.53077 0.88916 0.0
N1311 N 0.49445 0.59553 0.95076 0.0
C1312 C 0.37787 0.53711 0.90822 0.0
C1313 C 0.45652 0.57212 0.94032 0.0
N1314 N 0.33238 0.56682 0.95404 0.0
N1315 N 0.50228 0.51866 0.90662 0.0
H1316 H 0.49311 0.62198 0.96843 0.0
H1317 H 0.52623 0.59219 0.93943 0.0
H1318 H 0.50662 0.49319 0.88847 0.0
H1319 H 0.53161 0.52526 0.92058 0.0
H1320 H 0.30397 0.54794 0.94622 0.0
H1321 H 0.3273 0.5843 0.97633 0.0
H1322 H 0.30857 0.5467 0.89442 0.0
H1323 H 0.34003 0.51496 0.86592 0.0
C1324 C 0.79843 0.1737 0.70714 0.0
C1325 C 0.74937 0.1686 0.70535 0.0
C1326 C 0.75871 0.17174 0.64335 0.0
C1327 C 0.80711 0.17952 0.6457 0.0
N1328 N 0.87015 0.19697 0.68175 0.0
N1329 N 0.68344 0.17121 0.66973 0.0
C1330 C 0.82581 0.18291 0.67818 0.0
C1331 C 0.72993 0.16977 0.67276 0.0
N1332 N 0.82018 0.16739 0.73647 0.0
N1333 N 0.73995 0.16469 0.61278 0.0
H1334 H 0.66162 0.17085 0.68999 0.0
H1335 H 0.66649 0.17704 0.64761 0.0
H1336 H 0.75884 0.16668 0.59113 0.0
H1337 H 0.70659 0.15348 0.60886 0.0
H1338 H 0.85546 0.16365 0.73872 0.0
H1339 H 0.80312 0.1616 0.75824 0.0
H1340 H 0.88479 0.20614 0.70441 0.0
H1341 H 0.89103 0.20415 0.66172 0.0
C1342 C 0.1266 0.51728 0.43665 0.0
C1343 C 0.16984 0.50145 0.44906 0.0
C1344 C 0.20517 0.54126 0.4008 0.0
C1345 C 0.16291 0.56238 0.39125 0.0
N1346 N 0.08345 0.57257 0.40443 0.0
N1347 N 0.25164 0.50755 0.44386 0.0
C1348 C 0.12374 0.55064 0.41041 0.0
C1349 C 0.20931 0.51582 0.43112 0.0
N1350 N 0.08751 0.49865 0.44878 0.0
N1351 N 0.24172 0.54365 0.38012 0.0
H1352 H 0.2563 0.49351 0.46687 0.0
H1353 H 0.28186 0.51951 0.43368 0.0
H1354 H 0.24044 0.56073 0.35798 0.0
H1355 H 0.27148 0.52457 0.38306 0.0
H1356 H 0.05521 0.50461 0.43887 0.0
H1357 H 0.0878 0.47308 0.46625 0.0
H1358 H 0.05491 0.57009 0.41957 0.0
H1359 H 0.07987 0.59655 0.38597 0.0
C1360 C 0.77954 0.634 0.68223 0.0
C1361 C 0.75762 0.67321 0.66869 0.0
C1362 C 0.8007 0.71967 0.71223 0.0
C1363 C 0.81848 0.67978 0.72779 0.0
N1364 N 0.81264 0.59762 0.7299 0.0
N1365 N 0.74334 0.75386 0.67623 0.0
C1366 C 0.80445 0.63675 0.71327 0.0
C1367 C 0.76739 0.71614 0.68525 0.0
N1368 N 0.77906 0.59372 0.66459 0.0
N1369 N 0.81692 0.76148 0.7223 0.0
H1370 H 0.71847 0.75278 0.65773 0.0
H1371 H 0.74469 0.78501 0.68919 0.0
H1372 H 0.84129 0.76551 0.74098 0.0
H1373 H 0.80973 0.79156 0.71006 0.0
H1374 H 0.79842 0.56534 0.67101 0.0
H1375 H 0.76383 0.59038 0.6415 0.0
H1376 H 0.79866 0.56608 0.72289 0.0
H1377 H 0.82881 0.5975 0.75272 0.0
C1378 C 0.17594 0.99576 0.94807 0.0
C1379 C 0.17296 1.01424 0.91562 0.0
C1380 C 0.15553 0.09035 0.94414 0.0
C1381 C 0.16297 0.07281 0.97625 0.0
N1382 N 0.18534 1.00773 1.0077 0.0
N1383 N 0.16492 0.08349 0.8847 0.0
C1384 C 0.17439 1.02515 0.97774 0.0
C1385 C 0.16373 0.06265 0.9144 0.0
N1386 N 0.17789 0.94937 0.95087 0.0
N1387 N 0.13868 0.13376 0.94187 0.0
H1388 H 0.16915 0.06581 0.86251 0.0
H1389 H 0.16544 0.11882 0.88216 0.0
H1390 H 0.13245 0.15474 0.96255 0.0
H1391 H 0.12666 0.1474 0.92 0.0
H1392 H 0.17497 0.93281 0.97321 0.0
H1393 H 0.17792 0.92696 0.93049 0.0
H1394 H 0.19981 0.97557 1.01064 0.0
H1395 H 0.18282 1.02676 1.02966 0.0
C1396 C 0.81977 0.46936 1.18582 0.0
C1397 C 0.8426 0.4304 1.17124 0.0
C1398 C 0.79885 0.38284 0.21202 0.0
C1399 C 0.77881 0.42214 0.22812 0.0
N1400 N 0.78087 0.50452 0.23308 0.0
N1401 N 0.85848 0.35016 1.17635 0.0
C1402 C 0.79232 0.46571 0.21562 0.0
C1403 C 0.83314 0.38728 1.18609 0.0
N1404 N 0.82212 0.51026 1.17042 0.0
N1405 N 0.78374 0.34057 0.22046 0.0
H1406 H 0.88417 0.35198 1.15865 0.0
H1407 H 0.85746 0.31893 0.1881 0.0
H1408 H 0.75908 0.33583 0.23858 0.0
H1409 H 0.79232 0.31062 0.20752 0.0
H1410 H 0.80162 0.53824 1.17677 0.0
H1411 H 0.84142 0.51518 1.14934 0.0
H1412 H 0.79381 0.5367 0.22785 0.0
H1413 H 0.76228 0.50426 0.25489 0.0
C1414 C 0.4341 1.01218 0.44265 0.0
C1415 C 0.42913 1.03083 0.47536 0.0
C1416 C 0.4205 0.10797 0.4487 0.0
C1417 C 0.42023 0.08856 0.4158 0.0
N1418 N 0.4212 1.01784 0.38363 0.0
N1419 N 0.41171 0.09852 0.50809 0.0
C1420 C 0.42584 1.03953 0.41359 0.0
C1421 C 0.42094 0.07933 0.47781 0.0
N1422 N 0.449 0.96807 0.43903 0.0
N1423 N 0.42271 0.15444 0.45247 0.0
H1424 H 0.41159 0.08006 0.5297 0.0
H1425 H 0.40004 0.13189 0.51156 0.0
H1426 H 0.42392 0.17626 0.43255 0.0
H1427 H 0.42828 0.17123 0.47506 0.0
H1428 H 0.45919 0.95352 0.41653 0.0
H1429 H 0.45585 0.94738 0.45906 0.0
H1430 H 0.41816 0.98251 0.38064 0.0
H1431 H 0.4164 1.03502 0.36188 0.0
C1432 C 0.28764 0.41709 0.70294 0.0
C1433 C 0.33586 0.4275 0.70077 0.0
C1434 C 0.32429 0.42487 0.63868 0.0
C1435 C 0.27582 0.41713 0.6412 0.0
N1436 N 0.21166 0.41187 0.67767 0.0
N1437 N 0.39777 0.44521 0.6643 0.0
C1438 C 0.25799 0.41501 0.67392 0.0
C1439 C 0.35316 0.43264 0.66793 0.0
N1440 N 0.26912 0.40849 0.73304 0.0
N1441 N 0.34354 0.42419 0.60802 0.0
H1442 H 0.42107 0.44653 0.68375 0.0
H1443 H 0.41131 0.45682 0.64235 0.0
H1444 H 0.32452 0.42157 0.58634 0.0
H1445 H 0.3786 0.42353 0.6038 0.0
H1446 H 0.23774 0.39234 0.73601 0.0
H1447 H 0.28505 0.41638 0.75534 0.0
H1448 H 0.195 0.41765 0.70004 0.0
H1449 H 0.18924 0.40611 0.65796 0.0
C1450 C 0.911 0.11055 0.42203 0.0
C1451 C 0.91474 0.09251 0.4545 0.0
C1452 C 0.93276 1.01616 0.42639 0.0
C1453 C 0.9251 1.03332 0.39414 0.0
N1454 N 0.90264 0.09828 0.36246 0.0
N1455 N 0.92577 1.0243 0.48609 0.0
C1456 C 0.91329 0.08098 0.39249 0.0
C1457 C 0.92499 1.04434 0.45605 0.0
N1458 N 0.90765 0.15687 0.41912 0.0
N1459 N 0.94992 0.9729 0.42887 0.0
H1460 H 0.92354 1.04259 0.50823 0.0
H1461 H 0.92565 0.98908 0.48916 0.0
H1462 H 0.956 0.95162 0.40833 0.0
H1463 H 0.96218 0.9595 0.45075 0.0
H1464 H 0.91032 0.17356 0.39683 0.0
H1465 H 0.9065 0.17933 0.43946 0.0
H1466 H 0.88778 0.1302 0.35937 0.0
H1467 H 0.9058 0.0795 0.34051 0.0
C1468 C 0.26311 0.62848 1.1845 0.0
C1469 C 0.24374 0.66833 0.20033 0.0
C1470 C 0.29069 0.71444 1.1606 0.0
C1471 C 0.30731 0.67447 1.14336 0.0
N1472 N 0.29699 0.59304 1.1355 0.0
N1473 N 0.23375 0.74981 0.19723 0.0
C1474 C 0.28993 0.63156 1.15448 0.0
C1475 C 0.25626 0.71137 1.18651 0.0
N1476 N 0.25828 0.58708 0.1989 0.0
N1477 N 0.30914 0.7558 1.15326 0.0
H1478 H 0.20788 0.74905 0.21484 0.0
H1479 H 0.23715 0.78143 1.18624 0.0
H1480 H 0.334 0.75952 1.13516 0.0
H1481 H 0.30295 0.78565 1.16705 0.0
H1482 H 0.27623 0.55796 0.19122 0.0
H1483 H 0.24001 0.58258 0.2205 0.0
H1484 H 0.28081 0.56204 1.13979 0.0
H1485 H 0.3148 0.59312 1.11335 0.0
C1486 C 0.62601 1.00868 0.93489 0.0
C1487 C 0.66928 0.99683 0.94932 0.0
C1488 C 0.70535 1.04171 0.90397 0.0
C1489 C 0.6622 0.05839 0.89219 0.0
N1490 N 0.58096 0.06024 0.90087 0.0
N1491 N 0.75043 1.01183 0.94915 0.0
C1492 C 0.62249 1.04221 0.90888 0.0
C1493 C 0.70888 1.01586 0.93406 0.0
N1494 N 0.5878 0.98634 0.94508 0.0
N1495 N 0.74366 1.04861 0.88562 0.0
H1496 H 0.75516 0.99468 0.97103 0.0
H1497 H 0.77941 1.02951 0.94176 0.0
H1498 H 0.74335 0.0664 0.86374 0.0
H1499 H 0.77474 1.03248 0.89021 0.0
H1500 H 0.55604 0.9893 0.93365 0.0
H1501 H 0.58887 0.96099 0.96273 0.0
H1502 H 0.55129 0.05447 0.91427 0.0
H1503 H 0.57692 0.08438 0.88257 0.0
loop_
_geom_bond_atom_site_label_1
_geom_bond_atom_site_label_2
_geom_bond_distance
_geom_bond_site_symmetry_2
_ccdc_geom_bond_type
Gd0 C3 2.818 . S
Gd0 O20 2.377 . S
Gd0 O22 2.448 . S
Gd0 O23 2.506 . S
Gd0 O24 2.435 . S
Gd0 O25 2.717 . S
Gd0 O27 2.395 . S
Gd0 O31 2.327 . S
Gd1 C12 2.818 . S
Gd1 O21 2.395 . S
Gd1 O25 2.327 . S
Gd1 O26 2.377 . S
Gd1 O28 2.448 . S
Gd1 O29 2.506 . S
Gd1 O30 2.435 . S
Gd1 O31 2.717 . S
C2 O20 1.240 . S
C2 O21 1.240 . S
C3 Gd0 2.818 . S
C3 C4 1.510 . S
C3 O22 1.249 . S
C3 O23 1.252 . S
C4 C3 1.510 . S
C4 C5 1.404 . S
C4 C6 1.352 . S
C5 C4 1.404 . S
C5 C9 1.389 . S
C5 H32 0.930 . S
C6 C4 1.352 . S
C6 C8 1.374 . S
C6 H33 0.931 . S
C7 C8 1.359 . S
C7 C9 1.364 . S
C8 C6 1.374 . S
C8 C7 1.359 . S
C8 H34 0.931 . S
C9 C5 1.389 . S
C9 C7 1.364 . S
C9 H35 0.931 . S
C10 O24 1.256 . S
C10 O25 1.257 . S
C11 O26 1.240 . S
C11 O27 1.240 . S
C12 Gd1 2.818 . S
C12 C13 1.510 . S
C12 O28 1.249 . S
C12 O29 1.252 . S
C13 C12 1.510 . S
C13 C14 1.404 1_545 S
C13 C15 1.352 . S
C14 C13 1.404 1_565 S
C14 C18 1.389 . S
C14 H36 0.930 . S
C15 C13 1.352 . S
C15 C17 1.374 . S
C15 H37 0.931 . S
C16 C17 1.359 1_565 S
C16 C18 1.364 . S
C17 C15 1.374 . S
C17 C16 1.359 1_545 S
C17 H38 0.931 1_554 S
C18 C14 1.389 . S
C18 C16 1.364 . S
C18 H39 0.931 . S
C19 O30 1.256 . S
C19 O31 1.257 . S
O20 Gd0 2.377 . S
O20 C2 1.240 . S
O21 Gd1 2.395 . S
O21 C2 1.240 . S
O22 Gd0 2.448 . S
O22 C3 1.249 . S
O23 Gd0 2.506 . S
O23 C3 1.252 . S
O24 Gd0 2.435 . S
O24 C10 1.256 . S
O25 Gd0 2.717 . S
O25 Gd1 2.327 . S
O25 C10 1.257 . S
O26 Gd1 2.377 . S
O26 C11 1.240 . S
O27 Gd0 2.395 . S
O27 C11 1.240 . S
O28 Gd1 2.448 . S
O28 C12 1.249 . S
O29 Gd1 2.506 . S
O29 C12 1.252 . S
O30 Gd1 2.435 . S
O30 C19 1.256 . S
O31 Gd0 2.327 . S
O31 Gd1 2.717 . S
O31 C19 1.257 . S
H32 C5 0.930 . S
H33 C6 0.931 . S
H34 C8 0.931 . S
H35 C9 0.931 . S
H36 C14 0.930 . S
H37 C15 0.931 . S
H38 C17 0.931 1_556 S
H39 C18 0.931 . S
Gd40 C43 2.818 . S
Gd40 O60 2.377 . S
Gd40 O62 2.448 . S
Gd40 O63 2.506 . S
Gd40 O64 2.435 . S
Gd40 O65 2.717 . S
Gd40 O67 2.395 . S
Gd40 O71 2.327 . S
Gd41 C52 2.818 . S
Gd41 O61 2.395 . S
Gd41 O65 2.327 . S
Gd41 O66 2.377 . S
Gd41 O68 2.448 . S
Gd41 O69 2.506 . S
Gd41 O70 2.435 . S
Gd41 O71 2.717 . S
C42 O60 1.240 . S
C42 O61 1.240 . S
C43 Gd40 2.818 . S
C43 C44 1.510 . S
C43 O62 1.249 . S
C43 O63 1.252 . S
C44 C43 1.510 . S
C44 C45 1.404 . S
C44 C46 1.352 . S
C45 C44 1.404 . S
C45 C49 1.389 . S
C45 H72 0.930 . S
C46 C44 1.352 . S
C46 C48 1.374 . S
C46 H73 0.931 . S
C47 C48 1.359 . S
C47 C49 1.364 . S
C48 C46 1.374 . S
C48 C47 1.359 . S
C48 H74 0.931 . S
C49 C45 1.389 . S
C49 C47 1.364 . S
C49 H75 0.931 . S
C50 O64 1.256 . S
C50 O65 1.257 . S
C51 O66 1.240 . S
C51 O67 1.240 . S
C52 Gd41 2.818 . S
C52 C53 1.510 . S
C52 O68 1.249 . S
C52 O69 1.252 . S
C53 C52 1.510 . S
C53 C54 1.404 . S
C53 C55 1.352 . S
C54 C53 1.404 . S
C54 C58 1.389 . S
C54 H76 0.930 . S
C55 C53 1.352 . S
C55 C57 1.374 . S
C55 H77 0.931 . S
C56 C57 1.359 . S
C56 C58 1.364 . S
C57 C55 1.374 . S
C57 C56 1.359 . S
C57 H78 0.931 . S
C58 C54 1.389 . S
C58 C56 1.364 . S
C58 H79 0.931 . S
C59 O70 1.256 . S
C59 O71 1.257 . S
O60 Gd40 2.377 . S
O60 C42 1.240 . S
O61 Gd41 2.395 . S
O61 C42 1.240 . S
O62 Gd40 2.448 . S
O62 C43 1.249 . S
O63 Gd40 2.506 . S
O63 C43 1.252 . S
O64 Gd40 2.435 . S
O64 C50 1.256 . S
O65 Gd40 2.717 . S
O65 Gd41 2.327 . S
O65 C50 1.257 . S
O66 Gd41 2.377 . S
O66 C51 1.240 . S
O67 Gd40 2.395 . S
O67 C51 1.240 . S
O68 Gd41 2.448 . S
O68 C52 1.249 . S
O69 Gd41 2.506 . S
O69 C52 1.252 . S
O70 Gd41 2.435 . S
O70 C59 1.256 . S
O71 Gd40 2.327 . S
O71 Gd41 2.717 . S
O71 C59 1.257 . S
H72 C45 0.930 . S
H73 C46 0.931 . S
H74 C48 0.931 . S
H75 C49 0.931 . S
H76 C54 0.930 . S
H77 C55 0.931 . S
H78 C57 0.931 . S
H79 C58 0.931 . S
Gd80 C83 2.818 . S
Gd80 O100 2.377 . S
Gd80 O102 2.448 . S
Gd80 O103 2.506 . S
Gd80 O104 2.435 . S
Gd80 O105 2.717 . S
Gd80 O107 2.395 . S
Gd80 O111 2.327 . S
Gd81 C92 2.818 . S
Gd81 O101 2.395 . S
Gd81 O105 2.327 . S
Gd81 O106 2.377 . S
Gd81 O108 2.448 . S
Gd81 O109 2.506 . S
Gd81 O110 2.435 . S
Gd81 O111 2.717 . S
C82 O100 1.240 . S
C82 O101 1.240 . S
C83 Gd80 2.818 . S
C83 C84 1.510 . S
C83 O102 1.249 . S
C83 O103 1.252 . S
C84 C83 1.510 . S
C84 C85 1.404 . S
C84 C86 1.352 . S
C85 C84 1.404 . S
C85 C89 1.389 . S
C85 H112 0.930 . S
C86 C84 1.352 . S
C86 C88 1.374 . S
C86 H113 0.931 . S
C87 C88 1.359 . S
C87 C89 1.364 . S
C88 C86 1.374 . S
C88 C87 1.359 . S
C88 H114 0.931 . S
C89 C85 1.389 . S
C89 C87 1.364 . S
C89 H115 0.931 . S
C90 O104 1.256 . S
C90 O105 1.257 . S
C91 O106 1.240 . S
C91 O107 1.240 . S
C92 Gd81 2.818 . S
C92 C93 1.510 . S
C92 O108 1.249 . S
C92 O109 1.252 . S
C93 C92 1.510 . S
C93 C94 1.404 1_565 S
C93 C95 1.352 . S
C94 C93 1.404 1_545 S
C94 C98 1.389 . S
C94 H116 0.930 . S
C95 C93 1.352 . S
C95 C97 1.374 . S
C95 H117 0.931 . S
C96 C97 1.359 1_545 S
C96 C98 1.364 . S
C97 C95 1.374 . S
C97 C96 1.359 1_565 S
C97 H118 0.931 . S
C98 C94 1.389 . S
C98 C96 1.364 . S
C98 H119 0.931 . S
C99 O110 1.256 . S
C99 O111 1.257 . S
O100 Gd80 2.377 . S
O100 C82 1.240 . S
O101 Gd81 2.395 . S
O101 C82 1.240 . S
O102 Gd80 2.448 . S
O102 C83 1.249 . S
O103 Gd80 2.506 . S
O103 C83 1.252 . S
O104 Gd80 2.435 . S
O104 C90 1.256 . S
O105 Gd80 2.717 . S
O105 Gd81 2.327 . S
O105 C90 1.257 . S
O106 Gd81 2.377 . S
O106 C91 1.240 . S
O107 Gd80 2.395 . S
O107 C91 1.240 . S
O108 Gd81 2.448 . S
O108 C92 1.249 . S
O109 Gd81 2.506 . S
O109 C92 1.252 . S
O110 Gd81 2.435 . S
O110 C99 1.256 . S
O111 Gd80 2.327 . S
O111 Gd81 2.717 . S
O111 C99 1.257 . S
H112 C85 0.930 . S
H113 C86 0.931 . S
H114 C88 0.931 . S
H115 C89 0.931 . S
H116 C94 0.930 . S
H117 C95 0.931 . S
H118 C97 0.931 . S
H119 C98 0.931 . S
Gd120 C123 2.818 1_655 S
Gd120 O140 2.377 . S
Gd120 O142 2.448 1_655 S
Gd120 O143 2.506 . S
Gd120 O144 2.435 . S
Gd120 O145 2.717 . S
Gd120 O147 2.395 . S
Gd120 O151 2.327 . S
Gd121 C132 2.818 . S
Gd121 O141 2.395 . S
Gd121 O145 2.327 . S
Gd121 O146 2.377 . S
Gd121 O148 2.448 . S
Gd121 O149 2.506 . S
Gd121 O150 2.435 . S
Gd121 O151 2.717 . S
C122 O140 1.240 . S
C122 O141 1.240 . S
C123 Gd120 2.818 1_455 S
C123 C124 1.510 . S
C123 O142 1.249 . S
C123 O143 1.252 1_455 S
C124 C123 1.510 . S
C124 C125 1.404 . S
C124 C126 1.352 . S
C125 C124 1.404 . S
C125 C129 1.389 . S
C125 H152 0.930 . S
C126 C124 1.352 . S
C126 C128 1.374 . S
C126 H153 0.931 1_455 S
C127 C128 1.359 . S
C127 C129 1.364 . S
C128 C126 1.374 . S
C128 C127 1.359 . S
C128 H154 0.931 . S
C129 C125 1.389 . S
C129 C127 1.364 . S
C129 H155 0.931 . S
C130 O144 1.256 . S
C130 O145 1.257 . S
C131 O146 1.240 . S
C131 O147 1.240 . S
C132 Gd121 2.818 . S
C132 C133 1.510 . S
C132 O148 1.249 . S
C132 O149 1.252 . S
C133 C132 1.510 . S
C133 C134 1.404 . S
C133 C135 1.352 . S
C134 C133 1.404 . S
C134 C138 1.389 . S
C134 H156 0.930 . S
C135 C133 1.352 . S
C135 C137 1.374 . S
C135 H157 0.931 . S
C136 C137 1.359 . S
C136 C138 1.364 . S
C137 C135 1.374 . S
C137 C136 1.359 . S
C137 H158 0.931 . S
C138 C134 1.389 . S
C138 C136 1.364 . S
C138 H159 0.931 . S
C139 O150 1.256 . S
C139 O151 1.257 . S
O140 Gd120 2.377 . S
O140 C122 1.240 . S
O141 Gd121 2.395 . S
O141 C122 1.240 . S
O142 Gd120 2.448 1_455 S
O142 C123 1.249 . S
O143 Gd120 2.506 . S
O143 C123 1.252 1_655 S
O144 Gd120 2.435 . S
O144 C130 1.256 . S
O145 Gd120 2.717 . S
O145 Gd121 2.327 . S
O145 C130 1.257 . S
O146 Gd121 2.377 . S
O146 C131 1.240 . S
O147 Gd120 2.395 . S
O147 C131 1.240 . S
O148 Gd121 2.448 . S
O148 C132 1.249 . S
O149 Gd121 2.506 . S
O149 C132 1.252 . S
O150 Gd121 2.435 . S
O150 C139 1.256 . S
O151 Gd120 2.327 . S
O151 Gd121 2.717 . S
O151 C139 1.257 . S
H152 C125 0.930 . S
H153 C126 0.931 1_655 S
H154 C128 0.931 . S
H155 C129 0.931 . S
H156 C134 0.930 . S
H157 C135 0.931 . S
H158 C137 0.931 . S
H159 C138 0.931 . S
Gd160 C163 2.818 . S
Gd160 O180 2.377 . S
Gd160 O182 2.448 . S
Gd160 O183 2.506 . S
Gd160 O184 2.435 . S
Gd160 O185 2.717 . S
Gd160 O187 2.395 . S
Gd160 O191 2.327 . S
Gd161 C172 2.818 . S
Gd161 O181 2.395 . S
Gd161 O185 2.327 . S
Gd161 O186 2.377 . S
Gd161 O188 2.448 . S
Gd161 O189 2.506 . S
Gd161 O190 2.435 . S
Gd161 O191 2.717 . S
C162 O180 1.240 . S
C162 O181 1.240 . S
C163 Gd160 2.818 . S
C163 C164 1.510 . S
C163 O182 1.249 . S
C163 O183 1.252 . S
C164 C163 1.510 . S
C164 C165 1.404 1_565 S
C164 C166 1.352 . S
C165 C164 1.404 1_545 S
C165 C169 1.389 . S
C165 H192 0.930 . S
C166 C164 1.352 . S
C166 C168 1.374 . S
C166 H193 0.931 . S
C167 C168 1.359 1_545 S
C167 C169 1.364 . S
C168 C166 1.374 . S
C168 C167 1.359 1_565 S
C168 H194 0.931 1_556 S
C169 C165 1.389 . S
C169 C167 1.364 . S
C169 H195 0.931 . S
C170 O184 1.256 . S
C170 O185 1.257 . S
C171 O186 1.240 . S
C171 O187 1.240 . S
C172 Gd161 2.818 . S
C172 C173 1.510 . S
C172 O188 1.249 . S
C172 O189 1.252 . S
C173 C172 1.510 . S
C173 C174 1.404 . S
C173 C175 1.352 . S
C174 C173 1.404 . S
C174 C178 1.389 . S
C174 H196 0.930 . S
C175 C173 1.352 . S
C175 C177 1.374 . S
C175 H197 0.931 . S
C176 C177 1.359 . S
C176 C178 1.364 . S
C177 C175 1.374 . S
C177 C176 1.359 . S
C177 H198 0.931 . S
C178 C174 1.389 . S
C178 C176 1.364 . S
C178 H199 0.931 . S
C179 O190 1.256 . S
C179 O191 1.257 . S
O180 Gd160 2.377 . S
O180 C162 1.240 . S
O181 Gd161 2.395 . S
O181 C162 1.240 . S
O182 Gd160 2.448 . S
O182 C163 1.249 . S
O183 Gd160 2.506 . S
O183 C163 1.252 . S
O184 Gd160 2.435 . S
O184 C170 1.256 . S
O185 Gd160 2.717 . S
O185 Gd161 2.327 . S
O185 C170 1.257 . S
O186 Gd161 2.377 . S
O186 C171 1.240 . S
O187 Gd160 2.395 . S
O187 C171 1.240 . S
O188 Gd161 2.448 . S
O188 C172 1.249 . S
O189 Gd161 2.506 . S
O189 C172 1.252 . S
O190 Gd161 2.435 . S
O190 C179 1.256 . S
O191 Gd160 2.327 . S
O191 Gd161 2.717 . S
O191 C179 1.257 . S
H192 C165 0.930 . S
H193 C166 0.931 . S
H194 C168 0.931 1_554 S
H195 C169 0.931 . S
H196 C174 0.930 . S
H197 C175 0.931 . S
H198 C177 0.931 . S
H199 C178 0.931 . S
Gd200 C203 2.818 . S
Gd200 O220 2.377 . S
Gd200 O222 2.448 . S
Gd200 O223 2.506 . S
Gd200 O224 2.435 . S
Gd200 O225 2.717 . S
Gd200 O227 2.395 . S
Gd200 O231 2.327 . S
Gd201 C212 2.818 . S
Gd201 O221 2.395 . S
Gd201 O225 2.327 . S
Gd201 O226 2.377 . S
Gd201 O228 2.448 . S
Gd201 O229 2.506 . S
Gd201 O230 2.435 . S
Gd201 O231 2.717 . S
C202 O220 1.240 . S
C202 O221 1.240 . S
C203 Gd200 2.818 . S
C203 C204 1.510 . S
C203 O222 1.249 . S
C203 O223 1.252 . S
C204 C203 1.510 . S
C204 C205 1.404 . S
C204 C206 1.352 . S
C205 C204 1.404 . S
C205 C209 1.389 . S
C205 H232 0.930 . S
C206 C204 1.352 . S
C206 C208 1.374 . S
C206 H233 0.931 . S
C207 C208 1.359 . S
C207 C209 1.364 . S
C208 C206 1.374 . S
C208 C207 1.359 . S
C208 H234 0.931 . S
C209 C205 1.389 . S
C209 C207 1.364 . S
C209 H235 0.931 . S
C210 O224 1.256 . S
C210 O225 1.257 . S
C211 O226 1.240 . S
C211 O227 1.240 . S
C212 Gd201 2.818 . S
C212 C213 1.510 . S
C212 O228 1.249 . S
C212 O229 1.252 . S
C213 C212 1.510 . S
C213 C214 1.404 . S
C213 C215 1.352 . S
C214 C213 1.404 . S
C214 C218 1.389 . S
C214 H236 0.930 . S
C215 C213 1.352 . S
C215 C217 1.374 . S
C215 H237 0.931 . S
C216 C217 1.359 . S
C216 C218 1.364 . S
C217 C215 1.374 . S
C217 C216 1.359 . S
C217 H238 0.931 . S
C218 C214 1.389 . S
C218 C216 1.364 . S
C218 H239 0.931 . S
C219 O230 1.256 . S
C219 O231 1.257 . S
O220 Gd200 2.377 . S
O220 C202 1.240 . S
O221 Gd201 2.395 . S
O221 C202 1.240 . S
O222 Gd200 2.448 . S
O222 C203 1.249 . S
O223 Gd200 2.506 . S
O223 C203 1.252 . S
O224 Gd200 2.435 . S
O224 C210 1.256 . S
O225 Gd200 2.717 . S
O225 Gd201 2.327 . S
O225 C210 1.257 . S
O226 Gd201 2.377 . S
O226 C211 1.240 . S
O227 Gd200 2.395 . S
O227 C211 1.240 . S
O228 Gd201 2.448 . S
O228 C212 1.249 . S
O229 Gd201 2.506 . S
O229 C212 1.252 . S
O230 Gd201 2.435 . S
O230 C219 1.256 . S
O231 Gd200 2.327 . S
O231 Gd201 2.717 . S
O231 C219 1.257 . S
H232 C205 0.930 . S
H233 C206 0.931 . S
H234 C208 0.931 . S
H235 C209 0.931 . S
H236 C214 0.930 . S
H237 C215 0.931 . S
H238 C217 0.931 . S
H239 C218 0.931 . S
Gd240 C243 2.818 . S
Gd240 O260 2.377 . S
Gd240 O262 2.448 . S
Gd240 O263 2.506 . S
Gd240 O264 2.435 . S
Gd240 O265 2.717 . S
Gd240 O267 2.395 . S
Gd240 O271 2.327 . S
Gd241 C252 2.818 . S
Gd241 O261 2.395 . S
Gd241 O265 2.327 . S
Gd241 O266 2.377 . S
Gd241 O268 2.448 . S
Gd241 O269 2.506 . S
Gd241 O270 2.435 . S
Gd241 O271 2.717 . S
C242 O260 1.240 . S
C242 O261 1.240 . S
C243 Gd240 2.818 . S
C243 C244 1.510 . S
C243 O262 1.249 . S
C243 O263 1.252 . S
C244 C243 1.510 . S
C244 C245 1.404 1_545 S
C244 C246 1.352 . S
C245 C244 1.404 1_565 S
C245 C249 1.389 . S
C245 H272 0.930 . S
C246 C244 1.352 . S
C246 C248 1.374 . S
C246 H273 0.931 . S
C247 C248 1.359 1_565 S
C247 C249 1.364 . S
C248 C246 1.374 . S
C248 C247 1.359 1_545 S
C248 H274 0.931 . S
C249 C245 1.389 . S
C249 C247 1.364 . S
C249 H275 0.931 . S
C250 O264 1.256 . S
C250 O265 1.257 . S
C251 O266 1.240 . S
C251 O267 1.240 . S
C252 Gd241 2.818 . S
C252 C253 1.510 . S
C252 O268 1.249 . S
C252 O269 1.252 . S
C253 C252 1.510 . S
C253 C254 1.404 . S
C253 C255 1.352 . S
C254 C253 1.404 . S
C254 C258 1.389 . S
C254 H276 0.930 . S
C255 C253 1.352 . S
C255 C257 1.374 . S
C255 H277 0.931 . S
C256 C257 1.359 . S
C256 C258 1.364 . S
C257 C255 1.374 . S
C257 C256 1.359 . S
C257 H278 0.931 . S
C258 C254 1.389 . S
C258 C256 1.364 . S
C258 H279 0.931 . S
C259 O270 1.256 . S
C259 O271 1.257 . S
O260 Gd240 2.377 . S
O260 C242 1.240 . S
O261 Gd241 2.395 . S
O261 C242 1.240 . S
O262 Gd240 2.448 . S
O262 C243 1.249 . S
O263 Gd240 2.506 . S
O263 C243 1.252 . S
O264 Gd240 2.435 . S
O264 C250 1.256 . S
O265 Gd240 2.717 . S
O265 Gd241 2.327 . S
O265 C250 1.257 . S
O266 Gd241 2.377 . S
O266 C251 1.240 . S
O267 Gd240 2.395 . S
O267 C251 1.240 . S
O268 Gd241 2.448 . S
O268 C252 1.249 . S
O269 Gd241 2.506 . S
O269 C252 1.252 . S
O270 Gd241 2.435 . S
O270 C259 1.256 . S
O271 Gd240 2.327 . S
O271 Gd241 2.717 . S
O271 C259 1.257 . S
H272 C245 0.930 . S
H273 C246 0.931 . S
H274 C248 0.931 . S
H275 C249 0.931 . S
H276 C254 0.930 . S
H277 C255 0.931 . S
H278 C257 0.931 . S
H279 C258 0.931 . S
Gd280 C283 2.818 . S
Gd280 O300 2.377 . S
Gd280 O302 2.448 . S
Gd280 O303 2.506 . S
Gd280 O304 2.435 . S
Gd280 O305 2.717 . S
Gd280 O307 2.395 . S
Gd280 O311 2.327 . S
Gd281 C292 2.818 1_455 S
Gd281 O301 2.395 . S
Gd281 O305 2.327 . S
Gd281 O306 2.377 . S
Gd281 O308 2.448 1_455 S
Gd281 O309 2.506 . S
Gd281 O310 2.435 . S
Gd281 O311 2.717 . S
C282 O300 1.240 . S
C282 O301 1.240 . S
C283 Gd280 2.818 . S
C283 C284 1.510 . S
C283 O302 1.249 . S
C283 O303 1.252 . S
C284 C283 1.510 . S
C284 C285 1.404 . S
C284 C286 1.352 . S
C285 C284 1.404 . S
C285 C289 1.389 . S
C285 H312 0.930 . S
C286 C284 1.352 . S
C286 C288 1.374 . S
C286 H313 0.931 . S
C287 C288 1.359 . S
C287 C289 1.364 . S
C288 C286 1.374 . S
C288 C287 1.359 . S
C288 H314 0.931 . S
C289 C285 1.389 . S
C289 C287 1.364 . S
C289 H315 0.931 . S
C290 O304 1.256 . S
C290 O305 1.257 . S
C291 O306 1.240 . S
C291 O307 1.240 . S
C292 Gd281 2.818 1_655 S
C292 C293 1.510 . S
C292 O308 1.249 . S
C292 O309 1.252 1_655 S
C293 C292 1.510 . S
C293 C294 1.404 . S
C293 C295 1.352 . S
C294 C293 1.404 . S
C294 C298 1.389 . S
C294 H316 0.930 . S
C295 C293 1.352 . S
C295 C297 1.374 . S
C295 H317 0.931 1_655 S
C296 C297 1.359 . S
C296 C298 1.364 . S
C297 C295 1.374 . S
C297 C296 1.359 . S
C297 H318 0.931 . S
C298 C294 1.389 . S
C298 C296 1.364 . S
C298 H319 0.931 . S
C299 O310 1.256 . S
C299 O311 1.257 . S
O300 Gd280 2.377 . S
O300 C282 1.240 . S
O301 Gd281 2.395 . S
O301 C282 1.240 . S
O302 Gd280 2.448 . S
O302 C283 1.249 . S
O303 Gd280 2.506 . S
O303 C283 1.252 . S
O304 Gd280 2.435 . S
O304 C290 1.256 . S
O305 Gd280 2.717 . S
O305 Gd281 2.327 . S
O305 C290 1.257 . S
O306 Gd281 2.377 . S
O306 C291 1.240 . S
O307 Gd280 2.395 . S
O307 C291 1.240 . S
O308 Gd281 2.448 1_655 S
O308 C292 1.249 . S
O309 Gd281 2.506 . S
O309 C292 1.252 1_455 S
O310 Gd281 2.435 . S
O310 C299 1.256 . S
O311 Gd280 2.327 . S
O311 Gd281 2.717 . S
O311 C299 1.257 . S
H312 C285 0.930 . S
H313 C286 0.931 . S
H314 C288 0.931 . S
H315 C289 0.931 . S
H316 C294 0.930 . S
H317 C295 0.931 1_455 S
H318 C297 0.931 . S
H319 C298 0.931 . S
Gd320 C323 2.818 . S
Gd320 O340 2.377 . S
Gd320 O342 2.448 . S
Gd320 O343 2.506 . S
Gd320 O344 2.435 . S
Gd320 O345 2.717 . S
Gd320 O347 2.395 . S
Gd320 O351 2.327 . S
Gd321 C332 2.818 . S
Gd321 O341 2.395 . S
Gd321 O345 2.327 . S
Gd321 O346 2.377 . S
Gd321 O348 2.448 . S
Gd321 O349 2.506 . S
Gd321 O350 2.435 . S
Gd321 O351 2.717 . S
C322 O340 1.240 . S
C322 O341 1.240 . S
C323 Gd320 2.818 . S
C323 C324 1.510 . S
C323 O342 1.249 . S
C323 O343 1.252 . S
C324 C323 1.510 . S
C324 C325 1.404 . S
C324 C326 1.352 . S
C325 C324 1.404 . S
C325 C329 1.389 . S
C325 H352 0.930 . S
C326 C324 1.352 . S
C326 C328 1.374 . S
C326 H353 0.931 . S
C327 C328 1.359 . S
C327 C329 1.364 . S
C328 C326 1.374 . S
C328 C327 1.359 . S
C328 H354 0.931 . S
C329 C325 1.389 . S
C329 C327 1.364 . S
C329 H355 0.931 . S
C330 O344 1.256 . S
C330 O345 1.257 . S
C331 O346 1.240 . S
C331 O347 1.240 . S
C332 Gd321 2.818 . S
C332 C333 1.510 . S
C332 O348 1.249 . S
C332 O349 1.252 . S
C333 C332 1.510 . S
C333 C334 1.404 . S
C333 C335 1.352 . S
C334 C333 1.404 . S
C334 C338 1.389 . S
C334 H356 0.930 . S
C335 C333 1.352 . S
C335 C337 1.374 . S
C335 H357 0.931 . S
C336 C337 1.359 . S
C336 C338 1.364 . S
C337 C335 1.374 . S
C337 C336 1.359 . S
C337 H358 0.931 . S
C338 C334 1.389 . S
C338 C336 1.364 . S
C338 H359 0.931 . S
C339 O350 1.256 . S
C339 O351 1.257 . S
O340 Gd320 2.377 . S
O340 C322 1.240 . S
O341 Gd321 2.395 . S
O341 C322 1.240 . S
O342 Gd320 2.448 . S
O342 C323 1.249 . S
O343 Gd320 2.506 . S
O343 C323 1.252 . S
O344 Gd320 2.435 . S
O344 C330 1.256 . S
O345 Gd320 2.717 . S
O345 Gd321 2.327 . S
O345 C330 1.257 . S
O346 Gd321 2.377 . S
O346 C331 1.240 . S
O347 Gd320 2.395 . S
O347 C331 1.240 . S
O348 Gd321 2.448 . S
O348 C332 1.249 . S
O349 Gd321 2.506 . S
O349 C332 1.252 . S
O350 Gd321 2.435 . S
O350 C339 1.256 . S
O351 Gd320 2.327 . S
O351 Gd321 2.717 . S
O351 C339 1.257 . S
H352 C325 0.930 . S
H353 C326 0.931 . S
H354 C328 0.931 . S
H355 C329 0.931 . S
H356 C334 0.930 . S
H357 C335 0.931 . S
H358 C337 0.931 . S
H359 C338 0.931 . S
Gd360 C363 2.818 1_445 S
Gd360 O380 2.377 . S
Gd360 O382 2.448 1_455 S
Gd360 O383 2.506 1_545 S
Gd360 O384 2.435 . S
Gd360 O385 2.717 . S
Gd360 O387 2.395 . S
Gd360 O391 2.327 . S
Gd361 C372 2.818 . S
Gd361 O381 2.395 . S
Gd361 O385 2.327 . S
Gd361 O386 2.377 . S
Gd361 O388 2.448 . S
Gd361 O389 2.506 . S
Gd361 O390 2.435 . S
Gd361 O391 2.717 . S
C362 O380 1.240 . S
C362 O381 1.240 . S
C363 Gd360 2.818 1_665 S
C363 C364 1.510 . S
C363 O382 1.249 1_565 S
C363 O383 1.252 1_655 S
C364 C363 1.510 . S
C364 C365 1.404 . S
C364 C366 1.352 . S
C365 C364 1.404 . S
C365 C369 1.389 . S
C365 H392 0.930 1_565 S
C366 C364 1.352 . S
C366 C368 1.374 . S
C366 H393 0.931 1_655 S
C367 C368 1.359 . S
C367 C369 1.364 . S
C368 C366 1.374 . S
C368 C367 1.359 . S
C368 H394 0.931 . S
C369 C365 1.389 . S
C369 C367 1.364 . S
C369 H395 0.931 . S
C370 O384 1.256 . S
C370 O385 1.257 . S
C371 O386 1.240 . S
C371 O387 1.240 . S
C372 Gd361 2.818 . S
C372 C373 1.510 . S
C372 O388 1.249 . S
C372 O389 1.252 . S
C373 C372 1.510 . S
C373 C374 1.404 . S
C373 C375 1.352 . S
C374 C373 1.404 . S
C374 C378 1.389 . S
C374 H396 0.930 . S
C375 C373 1.352 . S
C375 C377 1.374 . S
C375 H397 0.931 . S
C376 C377 1.359 . S
C376 C378 1.364 . S
C377 C375 1.374 . S
C377 C376 1.359 . S
C377 H398 0.931 . S
C378 C374 1.389 . S
C378 C376 1.364 . S
C378 H399 0.931 . S
C379 O390 1.256 1_565 S
C379 O391 1.257 1_565 S
O380 Gd360 2.377 . S
O380 C362 1.240 . S
O381 Gd361 2.395 . S
O381 C362 1.240 . S
O382 Gd360 2.448 1_655 S
O382 C363 1.249 1_545 S
O383 Gd360 2.506 1_565 S
O383 C363 1.252 1_455 S
O384 Gd360 2.435 . S
O384 C370 1.256 . S
O385 Gd360 2.717 . S
O385 Gd361 2.327 . S
O385 C370 1.257 . S
O386 Gd361 2.377 . S
O386 C371 1.240 . S
O387 Gd360 2.395 . S
O387 C371 1.240 . S
O388 Gd361 2.448 . S
O388 C372 1.249 . S
O389 Gd361 2.506 . S
O389 C372 1.252 . S
O390 Gd361 2.435 . S
O390 C379 1.256 1_545 S
O391 Gd360 2.327 . S
O391 Gd361 2.717 . S
O391 C379 1.257 1_545 S
H392 C365 0.930 1_545 S
H393 C366 0.931 1_455 S
H394 C368 0.931 . S
H395 C369 0.931 . S
H396 C374 0.930 . S
H397 C375 0.931 . S
H398 C377 0.931 . S
H399 C378 0.931 . S
Gd400 C403 2.818 . S
Gd400 O420 2.377 . S
Gd400 O422 2.448 . S
Gd400 O423 2.506 . S
Gd400 O424 2.435 . S
Gd400 O425 2.717 . S
Gd400 O427 2.395 . S
Gd400 O431 2.327 . S
Gd401 C412 2.818 . S
Gd401 O421 2.395 . S
Gd401 O425 2.327 . S
Gd401 O426 2.377 . S
Gd401 O428 2.448 . S
Gd401 O429 2.506 . S
Gd401 O430 2.435 . S
Gd401 O431 2.717 . S
C402 O420 1.240 . S
C402 O421 1.240 . S
C403 Gd400 2.818 . S
C403 C404 1.510 . S
C403 O422 1.249 . S
C403 O423 1.252 . S
C404 C403 1.510 . S
C404 C405 1.404 . S
C404 C406 1.352 . S
C405 C404 1.404 . S
C405 C409 1.389 . S
C405 H432 0.930 . S
C406 C404 1.352 . S
C406 C408 1.374 . S
C406 H433 0.931 . S
C407 C408 1.359 . S
C407 C409 1.364 . S
C408 C406 1.374 . S
C408 C407 1.359 . S
C408 H434 0.931 . S
C409 C405 1.389 . S
C409 C407 1.364 . S
C409 H435 0.931 . S
C410 O424 1.256 . S
C410 O425 1.257 . S
C411 O426 1.240 . S
C411 O427 1.240 . S
C412 Gd401 2.818 . S
C412 C413 1.510 . S
C412 O428 1.249 . S
C412 O429 1.252 . S
C413 C412 1.510 . S
C413 C414 1.404 . S
C413 C415 1.352 . S
C414 C413 1.404 . S
C414 C418 1.389 . S
C414 H436 0.930 . S
C415 C413 1.352 . S
C415 C417 1.374 . S
C415 H437 0.931 . S
C416 C417 1.359 . S
C416 C418 1.364 . S
C417 C415 1.374 . S
C417 C416 1.359 . S
C417 H438 0.931 1_554 S
C418 C414 1.389 . S
C418 C416 1.364 . S
C418 H439 0.931 . S
C419 O430 1.256 . S
C419 O431 1.257 . S
O420 Gd400 2.377 . S
O420 C402 1.240 . S
O421 Gd401 2.395 . S
O421 C402 1.240 . S
O422 Gd400 2.448 . S
O422 C403 1.249 . S
O423 Gd400 2.506 . S
O423 C403 1.252 . S
O424 Gd400 2.435 . S
O424 C410 1.256 . S
O425 Gd400 2.717 . S
O425 Gd401 2.327 . S
O425 C410 1.257 . S
O426 Gd401 2.377 . S
O426 C411 1.240 . S
O427 Gd400 2.395 . S
O427 C411 1.240 . S
O428 Gd401 2.448 . S
O428 C412 1.249 . S
O429 Gd401 2.506 . S
O429 C412 1.252 . S
O430 Gd401 2.435 . S
O430 C419 1.256 . S
O431 Gd400 2.327 . S
O431 Gd401 2.717 . S
O431 C419 1.257 . S
H432 C405 0.930 . S
H433 C406 0.931 . S
H434 C408 0.931 . S
H435 C409 0.931 . S
H436 C414 0.930 . S
H437 C415 0.931 . S
H438 C417 0.931 1_556 S
H439 C418 0.931 . S
Gd440 C443 2.818 1_565 S
Gd440 O460 2.377 . S
Gd440 O462 2.448 . S
Gd440 O463 2.506 1_565 S
Gd440 O464 2.435 . S
Gd440 O465 2.717 . S
Gd440 O467 2.395 . S
Gd440 O471 2.327 . S
Gd441 C452 2.818 . S
Gd441 O461 2.395 . S
Gd441 O465 2.327 . S
Gd441 O466 2.377 . S
Gd441 O468 2.448 . S
Gd441 O469 2.506 . S
Gd441 O470 2.435 . S
Gd441 O471 2.717 . S
C442 O460 1.240 . S
C442 O461 1.240 . S
C443 Gd440 2.818 1_545 S
C443 C444 1.510 . S
C443 O462 1.249 1_545 S
C443 O463 1.252 . S
C444 C443 1.510 . S
C444 C445 1.404 . S
C444 C446 1.352 . S
C445 C444 1.404 . S
C445 C449 1.389 . S
C445 H472 0.930 1_545 S
C446 C444 1.352 . S
C446 C448 1.374 . S
C446 H473 0.931 . S
C447 C448 1.359 . S
C447 C449 1.364 . S
C448 C446 1.374 . S
C448 C447 1.359 . S
C448 H474 0.931 . S
C449 C445 1.389 . S
C449 C447 1.364 . S
C449 H475 0.931 . S
C450 O464 1.256 . S
C450 O465 1.257 . S
C451 O466 1.240 . S
C451 O467 1.240 . S
C452 Gd441 2.818 . S
C452 C453 1.510 . S
C452 O468 1.249 . S
C452 O469 1.252 . S
C453 C452 1.510 . S
C453 C454 1.404 . S
C453 C455 1.352 . S
C454 C453 1.404 . S
C454 C458 1.389 . S
C454 H476 0.930 . S
C455 C453 1.352 . S
C455 C457 1.374 . S
C455 H477 0.931 . S
C456 C457 1.359 . S
C456 C458 1.364 . S
C457 C455 1.374 . S
C457 C456 1.359 . S
C457 H478 0.931 . S
C458 C454 1.389 . S
C458 C456 1.364 . S
C458 H479 0.931 . S
C459 O470 1.256 1_545 S
C459 O471 1.257 1_545 S
O460 Gd440 2.377 . S
O460 C442 1.240 . S
O461 Gd441 2.395 . S
O461 C442 1.240 . S
O462 Gd440 2.448 . S
O462 C443 1.249 1_565 S
O463 Gd440 2.506 1_545 S
O463 C443 1.252 . S
O464 Gd440 2.435 . S
O464 C450 1.256 . S
O465 Gd440 2.717 . S
O465 Gd441 2.327 . S
O465 C450 1.257 . S
O466 Gd441 2.377 . S
O466 C451 1.240 . S
O467 Gd440 2.395 . S
O467 C451 1.240 . S
O468 Gd441 2.448 . S
O468 C452 1.249 . S
O469 Gd441 2.506 . S
O469 C452 1.252 . S
O470 Gd441 2.435 . S
O470 C459 1.256 1_565 S
O471 Gd440 2.327 . S
O471 Gd441 2.717 . S
O471 C459 1.257 1_565 S
H472 C445 0.930 1_565 S
H473 C446 0.931 . S
H474 C448 0.931 . S
H475 C449 0.931 . S
H476 C454 0.930 . S
H477 C455 0.931 . S
H478 C457 0.931 . S
H479 C458 0.931 . S
Gd480 C483 2.818 . S
Gd480 O500 2.377 . S
Gd480 O502 2.448 . S
Gd480 O503 2.506 . S
Gd480 O504 2.435 . S
Gd480 O505 2.717 . S
Gd480 O507 2.395 . S
Gd480 O511 2.327 . S
Gd481 C492 2.818 . S
Gd481 O501 2.395 . S
Gd481 O505 2.327 . S
Gd481 O506 2.377 . S
Gd481 O508 2.448 . S
Gd481 O509 2.506 . S
Gd481 O510 2.435 . S
Gd481 O511 2.717 . S
C482 O500 1.240 . S
C482 O501 1.240 . S
C483 Gd480 2.818 . S
C483 C484 1.510 . S
C483 O502 1.249 . S
C483 O503 1.252 . S
C484 C483 1.510 . S
C484 C485 1.404 . S
C484 C486 1.352 . S
C485 C484 1.404 . S
C485 C489 1.389 . S
C485 H512 0.930 . S
C486 C484 1.352 . S
C486 C488 1.374 . S
C486 H513 0.931 . S
C487 C488 1.359 . S
C487 C489 1.364 . S
C488 C486 1.374 . S
C488 C487 1.359 . S
C488 H514 0.931 . S
C489 C485 1.389 . S
C489 C487 1.364 . S
C489 H515 0.931 . S
C490 O504 1.256 . S
C490 O505 1.257 . S
C491 O506 1.240 . S
C491 O507 1.240 . S
C492 Gd481 2.818 . S
C492 C493 1.510 . S
C492 O508 1.249 . S
C492 O509 1.252 . S
C493 C492 1.510 . S
C493 C494 1.404 . S
C493 C495 1.352 . S
C494 C493 1.404 . S
C494 C498 1.389 . S
C494 H516 0.930 . S
C495 C493 1.352 . S
C495 C497 1.374 . S
C495 H517 0.931 . S
C496 C497 1.359 . S
C496 C498 1.364 . S
C497 C495 1.374 . S
C497 C496 1.359 . S
C497 H518 0.931 . S
C498 C494 1.389 . S
C498 C496 1.364 . S
C498 H519 0.931 . S
C499 O510 1.256 . S
C499 O511 1.257 . S
O500 Gd480 2.377 . S
O500 C482 1.240 . S
O501 Gd481 2.395 . S
O501 C482 1.240 . S
O502 Gd480 2.448 . S
O502 C483 1.249 . S
O503 Gd480 2.506 . S
O503 C483 1.252 . S
O504 Gd480 2.435 . S
O504 C490 1.256 . S
O505 Gd480 2.717 . S
O505 Gd481 2.327 . S
O505 C490 1.257 . S
O506 Gd481 2.377 . S
O506 C491 1.240 . S
O507 Gd480 2.395 . S
O507 C491 1.240 . S
O508 Gd481 2.448 . S
O508 C492 1.249 . S
O509 Gd481 2.506 . S
O509 C492 1.252 . S
O510 Gd481 2.435 . S
O510 C499 1.256 . S
O511 Gd480 2.327 . S
O511 Gd481 2.717 . S
O511 C499 1.257 . S
H512 C485 0.930 . S
H513 C486 0.931 . S
H514 C488 0.931 . S
H515 C489 0.931 . S
H516 C494 0.930 . S
H517 C495 0.931 . S
H518 C497 0.931 . S
H519 C498 0.931 . S
Gd520 C523 2.818 . S
Gd520 O540 2.377 . S
Gd520 O542 2.448 . S
Gd520 O543 2.506 . S
Gd520 O544 2.435 . S
Gd520 O545 2.717 . S
Gd520 O547 2.395 . S
Gd520 O551 2.327 . S
Gd521 C532 2.818 1_665 S
Gd521 O541 2.395 . S
Gd521 O545 2.327 . S
Gd521 O546 2.377 . S
Gd521 O548 2.448 1_655 S
Gd521 O549 2.506 1_565 S
Gd521 O550 2.435 . S
Gd521 O551 2.717 . S
C522 O540 1.240 . S
C522 O541 1.240 . S
C523 Gd520 2.818 . S
C523 C524 1.510 . S
C523 O542 1.249 . S
C523 O543 1.252 . S
C524 C523 1.510 . S
C524 C525 1.404 . S
C524 C526 1.352 . S
C525 C524 1.404 . S
C525 C529 1.389 . S
C525 H552 0.930 . S
C526 C524 1.352 . S
C526 C528 1.374 . S
C526 H553 0.931 . S
C527 C528 1.359 . S
C527 C529 1.364 . S
C528 C526 1.374 . S
C528 C527 1.359 . S
C528 H554 0.931 . S
C529 C525 1.389 . S
C529 C527 1.364 . S
C529 H555 0.931 . S
C530 O544 1.256 1_545 S
C530 O545 1.257 1_545 S
C531 O546 1.240 . S
C531 O547 1.240 . S
C532 Gd521 2.818 1_445 S
C532 C533 1.510 . S
C532 O548 1.249 1_545 S
C532 O549 1.252 1_455 S
C533 C532 1.510 . S
C533 C534 1.404 . S
C533 C535 1.352 . S
C534 C533 1.404 . S
C534 C538 1.389 . S
C534 H556 0.930 1_545 S
C535 C533 1.352 . S
C535 C537 1.374 . S
C535 H557 0.931 1_455 S
C536 C537 1.359 . S
C536 C538 1.364 . S
C537 C535 1.374 . S
C537 C536 1.359 . S
C537 H558 0.931 . S
C538 C534 1.389 . S
C538 C536 1.364 . S
C538 H559 0.931 . S
C539 O550 1.256 . S
C539 O551 1.257 . S
O540 Gd520 2.377 . S
O540 C522 1.240 . S
O541 Gd521 2.395 . S
O541 C522 1.240 . S
O542 Gd520 2.448 . S
O542 C523 1.249 . S
O543 Gd520 2.506 . S
O543 C523 1.252 . S
O544 Gd520 2.435 . S
O544 C530 1.256 1_565 S
O545 Gd520 2.717 . S
O545 Gd521 2.327 . S
O545 C530 1.257 1_565 S
O546 Gd521 2.377 . S
O546 C531 1.240 . S
O547 Gd520 2.395 . S
O547 C531 1.240 . S
O548 Gd521 2.448 1_455 S
O548 C532 1.249 1_565 S
O549 Gd521 2.506 1_545 S
O549 C532 1.252 1_655 S
O550 Gd521 2.435 . S
O550 C539 1.256 . S
O551 Gd520 2.327 . S
O551 Gd521 2.717 . S
O551 C539 1.257 . S
H552 C525 0.930 . S
H553 C526 0.931 . S
H554 C528 0.931 . S
H555 C529 0.931 . S
H556 C534 0.930 1_565 S
H557 C535 0.931 1_655 S
H558 C537 0.931 . S
H559 C538 0.931 . S
Gd560 C563 2.818 . S
Gd560 O580 2.377 . S
Gd560 O582 2.448 . S
Gd560 O583 2.506 . S
Gd560 O584 2.435 . S
Gd560 O585 2.717 . S
Gd560 O587 2.395 . S
Gd560 O591 2.327 . S
Gd561 C572 2.818 . S
Gd561 O581 2.395 . S
Gd561 O585 2.327 . S
Gd561 O586 2.377 . S
Gd561 O588 2.448 . S
Gd561 O589 2.506 . S
Gd561 O590 2.435 . S
Gd561 O591 2.717 . S
C562 O580 1.240 . S
C562 O581 1.240 . S
C563 Gd560 2.818 . S
C563 C564 1.510 . S
C563 O582 1.249 . S
C563 O583 1.252 . S
C564 C563 1.510 . S
C564 C565 1.404 . S
C564 C566 1.352 . S
C565 C564 1.404 . S
C565 C569 1.389 . S
C565 H592 0.930 . S
C566 C564 1.352 . S
C566 C568 1.374 . S
C566 H593 0.931 . S
C567 C568 1.359 . S
C567 C569 1.364 . S
C568 C566 1.374 . S
C568 C567 1.359 . S
C568 H594 0.931 1_556 S
C569 C565 1.389 . S
C569 C567 1.364 . S
C569 H595 0.931 . S
C570 O584 1.256 . S
C570 O585 1.257 . S
C571 O586 1.240 . S
C571 O587 1.240 . S
C572 Gd561 2.818 . S
C572 C573 1.510 . S
C572 O588 1.249 . S
C572 O589 1.252 . S
C573 C572 1.510 . S
C573 C574 1.404 . S
C573 C575 1.352 . S
C574 C573 1.404 . S
C574 C578 1.389 . S
C574 H596 0.930 . S
C575 C573 1.352 . S
C575 C577 1.374 . S
C575 H597 0.931 . S
C576 C577 1.359 . S
C576 C578 1.364 . S
C577 C575 1.374 . S
C577 C576 1.359 . S
C577 H598 0.931 . S
C578 C574 1.389 . S
C578 C576 1.364 . S
C578 H599 0.931 . S
C579 O590 1.256 . S
C579 O591 1.257 . S
O580 Gd560 2.377 . S
O580 C562 1.240 . S
O581 Gd561 2.395 . S
O581 C562 1.240 . S
O582 Gd560 2.448 . S
O582 C563 1.249 . S
O583 Gd560 2.506 . S
O583 C563 1.252 . S
O584 Gd560 2.435 . S
O584 C570 1.256 . S
O585 Gd560 2.717 . S
O585 Gd561 2.327 . S
O585 C570 1.257 . S
O586 Gd561 2.377 . S
O586 C571 1.240 . S
O587 Gd560 2.395 . S
O587 C571 1.240 . S
O588 Gd561 2.448 . S
O588 C572 1.249 . S
O589 Gd561 2.506 . S
O589 C572 1.252 . S
O590 Gd561 2.435 . S
O590 C579 1.256 . S
O591 Gd560 2.327 . S
O591 Gd561 2.717 . S
O591 C579 1.257 . S
H592 C565 0.930 . S
H593 C566 0.931 . S
H594 C568 0.931 1_554 S
H595 C569 0.931 . S
H596 C574 0.930 . S
H597 C575 0.931 . S
H598 C577 0.931 . S
H599 C578 0.931 . S
Gd600 C603 2.818 . S
Gd600 O620 2.377 . S
Gd600 O622 2.448 . S
Gd600 O623 2.506 . S
Gd600 O624 2.435 . S
Gd600 O625 2.717 . S
Gd600 O627 2.395 . S
Gd600 O631 2.327 . S
Gd601 C612 2.818 1_545 S
Gd601 O621 2.395 . S
Gd601 O625 2.327 . S
Gd601 O626 2.377 . S
Gd601 O628 2.448 . S
Gd601 O629 2.506 1_545 S
Gd601 O630 2.435 . S
Gd601 O631 2.717 . S
C602 O620 1.240 . S
C602 O621 1.240 . S
C603 Gd600 2.818 . S
C603 C604 1.510 . S
C603 O622 1.249 . S
C603 O623 1.252 . S
C604 C603 1.510 . S
C604 C605 1.404 . S
C604 C606 1.352 . S
C605 C604 1.404 . S
C605 C609 1.389 . S
C605 H632 0.930 . S
C606 C604 1.352 . S
C606 C608 1.374 . S
C606 H633 0.931 . S
C607 C608 1.359 . S
C607 C609 1.364 . S
C608 C606 1.374 . S
C608 C607 1.359 . S
C608 H634 0.931 . S
C609 C605 1.389 . S
C609 C607 1.364 . S
C609 H635 0.931 . S
C610 O624 1.256 1_565 S
C610 O625 1.257 1_565 S
C611 O626 1.240 . S
C611 O627 1.240 . S
C612 Gd601 2.818 1_565 S
C612 C613 1.510 . S
C612 O628 1.249 1_565 S
C612 O629 1.252 . S
C613 C612 1.510 . S
C613 C614 1.404 . S
C613 C615 1.352 . S
C614 C613 1.404 . S
C614 C618 1.389 . S
C614 H636 0.930 1_565 S
C615 C613 1.352 . S
C615 C617 1.374 . S
C615 H637 0.931 . S
C616 C617 1.359 . S
C616 C618 1.364 . S
C617 C615 1.374 . S
C617 C616 1.359 . S
C617 H638 0.931 . S
C618 C614 1.389 . S
C618 C616 1.364 . S
C618 H639 0.931 . S
C619 O630 1.256 . S
C619 O631 1.257 . S
O620 Gd600 2.377 . S
O620 C602 1.240 . S
O621 Gd601 2.395 . S
O621 C602 1.240 . S
O622 Gd600 2.448 . S
O622 C603 1.249 . S
O623 Gd600 2.506 . S
O623 C603 1.252 . S
O624 Gd600 2.435 . S
O624 C610 1.256 1_545 S
O625 Gd600 2.717 . S
O625 Gd601 2.327 . S
O625 C610 1.257 1_545 S
O626 Gd601 2.377 . S
O626 C611 1.240 . S
O627 Gd600 2.395 . S
O627 C611 1.240 . S
O628 Gd601 2.448 . S
O628 C612 1.249 1_545 S
O629 Gd601 2.506 1_565 S
O629 C612 1.252 . S
O630 Gd601 2.435 . S
O630 C619 1.256 . S
O631 Gd600 2.327 . S
O631 Gd601 2.717 . S
O631 C619 1.257 . S
H632 C605 0.930 . S
H633 C606 0.931 . S
H634 C608 0.931 . S
H635 C609 0.931 . S
H636 C614 0.930 1_545 S
H637 C615 0.931 . S
H638 C617 0.931 . S
H639 C618 0.931 . S
C640 C641 1.363 . S
C640 C646 1.379 . S
C640 N648 1.356 . S
C641 C640 1.363 . S
C641 C647 1.363 . S
C642 C643 1.363 . S
C642 C647 1.379 . S
C642 N649 1.356 . S
C643 C642 1.363 . S
C643 C646 1.363 . S
N644 C646 1.356 . S
N644 H656 0.984 . S
N644 H657 0.985 . S
N645 C647 1.356 . S
N645 H650 0.984 . S
N645 H651 0.985 . S
C646 C640 1.379 . S
C646 C643 1.363 . S
C646 N644 1.356 . S
C647 C641 1.363 . S
C647 C642 1.379 . S
C647 N645 1.356 . S
N648 C640 1.356 . S
N648 H654 0.984 . S
N648 H655 0.984 . S
N649 C642 1.356 . S
N649 H652 0.984 . S
N649 H653 0.985 . S
H650 N645 0.984 . S
H651 N645 0.985 . S
H652 N649 0.984 . S
H653 N649 0.985 . S
H654 N648 0.984 . S
H655 N648 0.984 . S
H656 N644 0.984 . S
H657 N644 0.985 . S
C658 C659 1.363 . S
C658 C664 1.379 . S
C658 N666 1.356 . S
C659 C658 1.363 . S
C659 C665 1.363 . S
C660 C661 1.363 . S
C660 C665 1.379 . S
C660 N667 1.356 . S
C661 C660 1.363 . S
C661 C664 1.363 . S
N662 C664 1.356 . S
N662 H674 0.984 . S
N662 H675 0.985 . S
N663 C665 1.356 . S
N663 H668 0.984 . S
N663 H669 0.985 . S
C664 C658 1.379 . S
C664 C661 1.363 . S
C664 N662 1.356 . S
C665 C659 1.363 . S
C665 C660 1.379 . S
C665 N663 1.356 . S
N666 C658 1.356 . S
N666 H672 0.984 . S
N666 H673 0.984 . S
N667 C660 1.356 . S
N667 H670 0.984 . S
N667 H671 0.985 . S
H668 N663 0.984 . S
H669 N663 0.985 . S
H670 N667 0.984 . S
H671 N667 0.985 . S
H672 N666 0.984 . S
H673 N666 0.984 . S
H674 N662 0.984 . S
H675 N662 0.985 . S
C676 C677 1.363 . S
C676 C682 1.379 1_455 S
C676 N684 1.356 . S
C677 C676 1.363 . S
C677 C683 1.363 . S
C678 C679 1.363 . S
C678 C683 1.379 1_655 S
C678 N685 1.356 . S
C679 C678 1.363 . S
C679 C682 1.363 . S
N680 C682 1.356 . S
N680 H692 0.984 . S
N680 H693 0.985 . S
N681 C683 1.356 . S
N681 H686 0.984 . S
N681 H687 0.985 . S
C682 C676 1.379 1_655 S
C682 C679 1.363 . S
C682 N680 1.356 . S
C683 C677 1.363 . S
C683 C678 1.379 1_455 S
C683 N681 1.356 . S
N684 C676 1.356 . S
N684 H690 0.984 . S
N684 H691 0.984 . S
N685 C678 1.356 . S
N685 H688 0.984 . S
N685 H689 0.985 . S
H686 N681 0.984 . S
H687 N681 0.985 . S
H688 N685 0.984 . S
H689 N685 0.985 . S
H690 N684 0.984 . S
H691 N684 0.984 . S
H692 N680 0.984 . S
H693 N680 0.985 . S
C694 C695 1.363 . S
C694 C700 1.379 . S
C694 N702 1.356 . S
C695 C694 1.363 . S
C695 C701 1.363 1_455 S
C696 C697 1.363 . S
C696 C701 1.379 . S
C696 N703 1.356 . S
C697 C696 1.363 . S
C697 C700 1.363 1_655 S
N698 C700 1.356 . S
N698 H710 0.984 . S
N698 H711 0.985 1_455 S
N699 C701 1.356 . S
N699 H704 0.984 1_655 S
N699 H705 0.985 . S
C700 C694 1.379 . S
C700 C697 1.363 1_455 S
C700 N698 1.356 . S
C701 C695 1.363 1_655 S
C701 C696 1.379 . S
C701 N699 1.356 . S
N702 C694 1.356 . S
N702 H708 0.984 . S
N702 H709 0.984 . S
N703 C696 1.356 . S
N703 H706 0.984 . S
N703 H707 0.985 . S
H704 N699 0.984 1_455 S
H705 N699 0.985 . S
H706 N703 0.984 . S
H707 N703 0.985 . S
H708 N702 0.984 . S
H709 N702 0.984 . S
H710 N698 0.984 . S
H711 N698 0.985 1_655 S
C712 C713 1.363 . S
C712 C718 1.379 . S
C712 N720 1.356 . S
C713 C712 1.363 . S
C713 C719 1.363 . S
C714 C715 1.363 . S
C714 C719 1.379 . S
C714 N721 1.356 . S
C715 C714 1.363 . S
C715 C718 1.363 . S
N716 C718 1.356 . S
N716 H728 0.984 . S
N716 H729 0.985 . S
N717 C719 1.356 . S
N717 H722 0.984 . S
N717 H723 0.985 . S
C718 C712 1.379 . S
C718 C715 1.363 . S
C718 N716 1.356 . S
C719 C713 1.363 . S
C719 C714 1.379 . S
C719 N717 1.356 . S
N720 C712 1.356 . S
N720 H726 0.984 . S
N720 H727 0.984 . S
N721 C714 1.356 . S
N721 H724 0.984 . S
N721 H725 0.985 . S
H722 N717 0.984 . S
H723 N717 0.985 . S
H724 N721 0.984 . S
H725 N721 0.985 . S
H726 N720 0.984 . S
H727 N720 0.984 . S
H728 N716 0.984 . S
H729 N716 0.985 . S
C730 C731 1.363 . S
C730 C736 1.379 . S
C730 N738 1.356 . S
C731 C730 1.363 . S
C731 C737 1.363 . S
C732 C733 1.363 . S
C732 C737 1.379 . S
C732 N739 1.356 . S
C733 C732 1.363 . S
C733 C736 1.363 . S
N734 C736 1.356 . S
N734 H746 0.984 . S
N734 H747 0.985 . S
N735 C737 1.356 . S
N735 H740 0.984 . S
N735 H741 0.985 . S
C736 C730 1.379 . S
C736 C733 1.363 . S
C736 N734 1.356 . S
C737 C731 1.363 . S
C737 C732 1.379 . S
C737 N735 1.356 . S
N738 C730 1.356 . S
N738 H744 0.984 . S
N738 H745 0.984 . S
N739 C732 1.356 . S
N739 H742 0.984 . S
N739 H743 0.985 . S
H740 N735 0.984 . S
H741 N735 0.985 . S
H742 N739 0.984 . S
H743 N739 0.985 . S
H744 N738 0.984 . S
H745 N738 0.984 . S
H746 N734 0.984 . S
H747 N734 0.985 . S
C748 C749 1.363 . S
C748 C754 1.379 1_455 S
C748 N756 1.356 . S
C749 C748 1.363 . S
C749 C755 1.363 . S
C750 C751 1.363 . S
C750 C755 1.379 1_655 S
C750 N757 1.356 . S
C751 C750 1.363 . S
C751 C754 1.363 . S
N752 C754 1.356 . S
N752 H764 0.984 . S
N752 H765 0.985 . S
N753 C755 1.356 . S
N753 H758 0.984 . S
N753 H759 0.985 . S
C754 C748 1.379 1_655 S
C754 C751 1.363 . S
C754 N752 1.356 . S
C755 C749 1.363 . S
C755 C750 1.379 1_455 S
C755 N753 1.356 . S
N756 C748 1.356 . S
N756 H762 0.984 . S
N756 H763 0.984 . S
N757 C750 1.356 . S
N757 H760 0.984 . S
N757 H761 0.985 . S
H758 N753 0.984 . S
H759 N753 0.985 . S
H760 N757 0.984 . S
H761 N757 0.985 . S
H762 N756 0.984 . S
H763 N756 0.984 . S
H764 N752 0.984 . S
H765 N752 0.985 . S
C766 C767 1.363 . S
C766 C772 1.379 . S
C766 N774 1.356 . S
C767 C766 1.363 . S
C767 C773 1.363 1_455 S
C768 C769 1.363 . S
C768 C773 1.379 . S
C768 N775 1.356 . S
C769 C768 1.363 . S
C769 C772 1.363 1_655 S
N770 C772 1.356 . S
N770 H782 0.984 . S
N770 H783 0.985 1_455 S
N771 C773 1.356 . S
N771 H776 0.984 1_655 S
N771 H777 0.985 . S
C772 C766 1.379 . S
C772 C769 1.363 1_455 S
C772 N770 1.356 . S
C773 C767 1.363 1_655 S
C773 C768 1.379 . S
C773 N771 1.356 . S
N774 C766 1.356 . S
N774 H780 0.984 . S
N774 H781 0.984 . S
N775 C768 1.356 . S
N775 H778 0.984 . S
N775 H779 0.985 . S
H776 N771 0.984 1_455 S
H777 N771 0.985 . S
H778 N775 0.984 . S
H779 N775 0.985 . S
H780 N774 0.984 . S
H781 N774 0.984 . S
H782 N770 0.984 . S
H783 N770 0.985 1_655 S
C784 C785 1.363 1_544 S
C784 C790 1.379 . S
C784 N792 1.356 1_545 S
C785 C784 1.363 1_566 S
C785 C791 1.363 . S
C786 C787 1.363 1_566 S
C786 C791 1.379 . S
C786 N793 1.356 1_565 S
C787 C786 1.363 1_544 S
C787 C790 1.363 . S
N788 C790 1.356 . S
N788 H800 0.984 . S
N788 H801 0.985 . S
N789 C791 1.356 . S
N789 H794 0.984 . S
N789 H795 0.985 . S
C790 C784 1.379 . S
C790 C787 1.363 . S
C790 N788 1.356 . S
C791 C785 1.363 . S
C791 C786 1.379 . S
C791 N789 1.356 . S
N792 C784 1.356 1_565 S
N792 H798 0.984 1_565 S
N792 H799 0.984 . S
N793 C786 1.356 1_545 S
N793 H796 0.984 . S
N793 H797 0.985 1_545 S
H794 N789 0.984 . S
H795 N789 0.985 . S
H796 N793 0.984 . S
H797 N793 0.985 1_565 S
H798 N792 0.984 1_545 S
H799 N792 0.984 . S
H800 N788 0.984 . S
H801 N788 0.985 . S
C802 C803 1.363 . S
C802 C808 1.379 . S
C802 N810 1.356 . S
C803 C802 1.363 . S
C803 C809 1.363 . S
C804 C805 1.363 . S
C804 C809 1.379 . S
C804 N811 1.356 . S
C805 C804 1.363 . S
C805 C808 1.363 . S
N806 C808 1.356 . S
N806 H818 0.984 . S
N806 H819 0.985 . S
N807 C809 1.356 . S
N807 H812 0.984 . S
N807 H813 0.985 . S
C808 C802 1.379 . S
C808 C805 1.363 . S
C808 N806 1.356 . S
C809 C803 1.363 . S
C809 C804 1.379 . S
C809 N807 1.356 . S
N810 C802 1.356 . S
N810 H816 0.984 . S
N810 H817 0.984 . S
N811 C804 1.356 . S
N811 H814 0.984 . S
N811 H815 0.985 . S
H812 N807 0.984 . S
H813 N807 0.985 . S
H814 N811 0.984 . S
H815 N811 0.985 . S
H816 N810 0.984 . S
H817 N810 0.984 . S
H818 N806 0.984 . S
H819 N806 0.985 . S
C820 C821 1.363 . S
C820 C826 1.379 1_455 S
C820 N828 1.356 . S
C821 C820 1.363 . S
C821 C827 1.363 1_545 S
C822 C823 1.363 . S
C822 C827 1.379 1_655 S
C822 N829 1.356 . S
C823 C822 1.363 . S
C823 C826 1.363 1_565 S
N824 C826 1.356 1_565 S
N824 H836 0.984 1_565 S
N824 H837 0.985 . S
N825 C827 1.356 1_545 S
N825 H830 0.984 . S
N825 H831 0.985 1_545 S
C826 C820 1.379 1_655 S
C826 C823 1.363 1_545 S
C826 N824 1.356 1_545 S
C827 C821 1.363 1_565 S
C827 C822 1.379 1_455 S
C827 N825 1.356 1_565 S
N828 C820 1.356 . S
N828 H834 0.984 . S
N828 H835 0.984 . S
N829 C822 1.356 . S
N829 H832 0.984 . S
N829 H833 0.985 . S
H830 N825 0.984 . S
H831 N825 0.985 1_565 S
H832 N829 0.984 . S
H833 N829 0.985 . S
H834 N828 0.984 . S
H835 N828 0.984 . S
H836 N824 0.984 1_545 S
H837 N824 0.985 . S
C838 C839 1.363 . S
C838 C844 1.379 . S
C838 N846 1.356 . S
C839 C838 1.363 . S
C839 C845 1.363 . S
C840 C841 1.363 . S
C840 C845 1.379 . S
C840 N847 1.356 . S
C841 C840 1.363 . S
C841 C844 1.363 . S
N842 C844 1.356 . S
N842 H854 0.984 . S
N842 H855 0.985 . S
N843 C845 1.356 . S
N843 H848 0.984 . S
N843 H849 0.985 . S
C844 C838 1.379 . S
C844 C841 1.363 . S
C844 N842 1.356 . S
C845 C839 1.363 . S
C845 C840 1.379 . S
C845 N843 1.356 . S
N846 C838 1.356 . S
N846 H852 0.984 . S
N846 H853 0.984 . S
N847 C840 1.356 . S
N847 H850 0.984 . S
N847 H851 0.985 . S
H848 N843 0.984 . S
H849 N843 0.985 . S
H850 N847 0.984 . S
H851 N847 0.985 . S
H852 N846 0.984 . S
H853 N846 0.984 . S
H854 N842 0.984 . S
H855 N842 0.985 . S
C856 C857 1.363 . S
C856 C862 1.379 . S
C856 N864 1.356 . S
C857 C856 1.363 . S
C857 C863 1.363 . S
C858 C859 1.363 . S
C858 C863 1.379 . S
C858 N865 1.356 . S
C859 C858 1.363 . S
C859 C862 1.363 . S
N860 C862 1.356 . S
N860 H872 0.984 . S
N860 H873 0.985 . S
N861 C863 1.356 . S
N861 H866 0.984 . S
N861 H867 0.985 . S
C862 C856 1.379 . S
C862 C859 1.363 . S
C862 N860 1.356 . S
C863 C857 1.363 . S
C863 C858 1.379 . S
C863 N861 1.356 . S
N864 C856 1.356 . S
N864 H870 0.984 . S
N864 H871 0.984 . S
N865 C858 1.356 . S
N865 H868 0.984 . S
N865 H869 0.985 . S
H866 N861 0.984 . S
H867 N861 0.985 . S
H868 N865 0.984 . S
H869 N865 0.985 . S
H870 N864 0.984 . S
H871 N864 0.984 . S
H872 N860 0.984 . S
H873 N860 0.985 . S
C874 C875 1.363 . S
C874 C880 1.379 . S
C874 N882 1.356 . S
C875 C874 1.363 . S
C875 C881 1.363 . S
C876 C877 1.363 . S
C876 C881 1.379 . S
C876 N883 1.356 . S
C877 C876 1.363 . S
C877 C880 1.363 . S
N878 C880 1.356 . S
N878 H890 0.984 . S
N878 H891 0.985 . S
N879 C881 1.356 . S
N879 H884 0.984 . S
N879 H885 0.985 . S
C880 C874 1.379 . S
C880 C877 1.363 . S
C880 N878 1.356 . S
C881 C875 1.363 . S
C881 C876 1.379 . S
C881 N879 1.356 . S
N882 C874 1.356 . S
N882 H888 0.984 . S
N882 H889 0.984 . S
N883 C876 1.356 . S
N883 H886 0.984 . S
N883 H887 0.985 . S
H884 N879 0.984 . S
H885 N879 0.985 . S
H886 N883 0.984 . S
H887 N883 0.985 . S
H888 N882 0.984 . S
H889 N882 0.984 . S
H890 N878 0.984 . S
H891 N878 0.985 . S
C892 C893 1.363 . S
C892 C898 1.379 1_455 S
C892 N900 1.356 . S
C893 C892 1.363 . S
C893 C899 1.363 . S
C894 C895 1.363 . S
C894 C899 1.379 1_655 S
C894 N901 1.356 . S
C895 C894 1.363 . S
C895 C898 1.363 . S
N896 C898 1.356 . S
N896 H908 0.984 . S
N896 H909 0.985 . S
N897 C899 1.356 . S
N897 H902 0.984 . S
N897 H903 0.985 . S
C898 C892 1.379 1_655 S
C898 C895 1.363 . S
C898 N896 1.356 . S
C899 C893 1.363 . S
C899 C894 1.379 1_455 S
C899 N897 1.356 . S
N900 C892 1.356 . S
N900 H906 0.984 . S
N900 H907 0.984 . S
N901 C894 1.356 . S
N901 H904 0.984 . S
N901 H905 0.985 . S
H902 N897 0.984 . S
H903 N897 0.985 . S
H904 N901 0.984 . S
H905 N901 0.985 . S
H906 N900 0.984 . S
H907 N900 0.984 . S
H908 N896 0.984 . S
H909 N896 0.985 . S
C910 C911 1.363 . S
C910 C916 1.379 . S
C910 N918 1.356 . S
C911 C910 1.363 . S
C911 C917 1.363 1_556 S
C912 C913 1.363 . S
C912 C917 1.379 . S
C912 N919 1.356 . S
C913 C912 1.363 . S
C913 C916 1.363 1_554 S
N914 C916 1.356 . S
N914 H926 0.984 . S
N914 H927 0.985 . S
N915 C917 1.356 . S
N915 H920 0.984 . S
N915 H921 0.985 . S
C916 C910 1.379 . S
C916 C913 1.363 1_556 S
C916 N914 1.356 . S
C917 C911 1.363 1_554 S
C917 C912 1.379 . S
C917 N915 1.356 . S
N918 C910 1.356 . S
N918 H924 0.984 . S
N918 H925 0.984 . S
N919 C912 1.356 . S
N919 H922 0.984 . S
N919 H923 0.985 . S
H920 N915 0.984 . S
H921 N915 0.985 . S
H922 N919 0.984 . S
H923 N919 0.985 . S
H924 N918 0.984 . S
H925 N918 0.984 . S
H926 N914 0.984 . S
H927 N914 0.985 . S
C928 C929 1.363 . S
C928 C934 1.379 . S
C928 N936 1.356 . S
C929 C928 1.363 . S
C929 C935 1.363 . S
C930 C931 1.363 . S
C930 C935 1.379 . S
C930 N937 1.356 . S
C931 C930 1.363 . S
C931 C934 1.363 . S
N932 C934 1.356 . S
N932 H944 0.984 . S
N932 H945 0.985 . S
N933 C935 1.356 . S
N933 H938 0.984 . S
N933 H939 0.985 . S
C934 C928 1.379 . S
C934 C931 1.363 . S
C934 N932 1.356 . S
C935 C929 1.363 . S
C935 C930 1.379 . S
C935 N933 1.356 . S
N936 C928 1.356 . S
N936 H942 0.984 . S
N936 H943 0.984 . S
N937 C930 1.356 . S
N937 H940 0.984 . S
N937 H941 0.985 . S
H938 N933 0.984 . S
H939 N933 0.985 . S
H940 N937 0.984 . S
H941 N937 0.985 . S
H942 N936 0.984 . S
H943 N936 0.984 . S
H944 N932 0.984 . S
H945 N932 0.985 . S
C946 C947 1.363 . S
C946 C952 1.379 . S
C946 N954 1.356 . S
C947 C946 1.363 . S
C947 C953 1.363 . S
C948 C949 1.363 . S
C948 C953 1.379 . S
C948 N955 1.356 . S
C949 C948 1.363 . S
C949 C952 1.363 . S
N950 C952 1.356 . S
N950 H962 0.984 . S
N950 H963 0.985 . S
N951 C953 1.356 . S
N951 H956 0.984 . S
N951 H957 0.985 . S
C952 C946 1.379 . S
C952 C949 1.363 . S
C952 N950 1.356 . S
C953 C947 1.363 . S
C953 C948 1.379 . S
C953 N951 1.356 . S
N954 C946 1.356 . S
N954 H960 0.984 . S
N954 H961 0.984 . S
N955 C948 1.356 . S
N955 H958 0.984 . S
N955 H959 0.985 . S
H956 N951 0.984 . S
H957 N951 0.985 . S
H958 N955 0.984 . S
H959 N955 0.985 . S
H960 N954 0.984 . S
H961 N954 0.984 . S
H962 N950 0.984 . S
H963 N950 0.985 . S
C964 C965 1.363 . S
C964 C970 1.379 . S
C964 N972 1.356 . S
C965 C964 1.363 . S
C965 C971 1.363 . S
C966 C967 1.363 . S
C966 C971 1.379 . S
C966 N973 1.356 . S
C967 C966 1.363 . S
C967 C970 1.363 . S
N968 C970 1.356 . S
N968 H980 0.984 . S
N968 H981 0.985 . S
N969 C971 1.356 . S
N969 H974 0.984 . S
N969 H975 0.985 . S
C970 C964 1.379 . S
C970 C967 1.363 . S
C970 N968 1.356 . S
C971 C965 1.363 . S
C971 C966 1.379 . S
C971 N969 1.356 . S
N972 C964 1.356 . S
N972 H978 0.984 . S
N972 H979 0.984 . S
N973 C966 1.356 . S
N973 H976 0.984 . S
N973 H977 0.985 . S
H974 N969 0.984 . S
H975 N969 0.985 . S
H976 N973 0.984 . S
H977 N973 0.985 . S
H978 N972 0.984 . S
H979 N972 0.984 . S
H980 N968 0.984 . S
H981 N968 0.985 . S
C982 C983 1.363 . S
C982 C988 1.379 . S
C982 N990 1.356 . S
C983 C982 1.363 . S
C983 C989 1.363 . S
C984 C985 1.363 . S
C984 C989 1.379 . S
C984 N991 1.356 . S
C985 C984 1.363 . S
C985 C988 1.363 . S
N986 C988 1.356 . S
N986 H998 0.984 . S
N986 H999 0.985 . S
N987 C989 1.356 . S
N987 H992 0.984 . S
N987 H993 0.985 . S
C988 C982 1.379 . S
C988 C985 1.363 . S
C988 N986 1.356 . S
C989 C983 1.363 . S
C989 C984 1.379 . S
C989 N987 1.356 . S
N990 C982 1.356 . S
N990 H996 0.984 . S
N990 H997 0.984 . S
N991 C984 1.356 . S
N991 H994 0.984 . S
N991 H995 0.985 . S
H992 N987 0.984 . S
H993 N987 0.985 . S
H994 N991 0.984 . S
H995 N991 0.985 . S
H996 N990 0.984 . S
H997 N990 0.984 . S
H998 N986 0.984 . S
H999 N986 0.985 . S
C1000 C1001 1.363 . S
C1000 C1006 1.379 . S
C1000 N1008 1.356 . S
C1001 C1000 1.363 . S
C1001 C1007 1.363 . S
C1002 C1003 1.363 . S
C1002 C1007 1.379 . S
C1002 N1009 1.356 . S
C1003 C1002 1.363 . S
C1003 C1006 1.363 . S
N1004 C1006 1.356 . S
N1004 H1016 0.984 . S
N1004 H1017 0.985 . S
N1005 C1007 1.356 . S
N1005 H1010 0.984 . S
N1005 H1011 0.985 . S
C1006 C1000 1.379 . S
C1006 C1003 1.363 . S
C1006 N1004 1.356 . S
C1007 C1001 1.363 . S
C1007 C1002 1.379 . S
C1007 N1005 1.356 . S
N1008 C1000 1.356 . S
N1008 H1014 0.984 . S
N1008 H1015 0.984 . S
N1009 C1002 1.356 . S
N1009 H1012 0.984 . S
N1009 H1013 0.985 . S
H1010 N1005 0.984 . S
H1011 N1005 0.985 . S
H1012 N1009 0.984 . S
H1013 N1009 0.985 . S
H1014 N1008 0.984 . S
H1015 N1008 0.984 . S
H1016 N1004 0.984 . S
H1017 N1004 0.985 . S
C1018 C1019 1.363 . S
C1018 C1024 1.379 . S
C1018 N1026 1.356 . S
C1019 C1018 1.363 . S
C1019 C1025 1.363 . S
C1020 C1021 1.363 . S
C1020 C1025 1.379 . S
C1020 N1027 1.356 . S
C1021 C1020 1.363 . S
C1021 C1024 1.363 . S
N1022 C1024 1.356 . S
N1022 H1034 0.984 . S
N1022 H1035 0.985 . S
N1023 C1025 1.356 . S
N1023 H1028 0.984 . S
N1023 H1029 0.985 . S
C1024 C1018 1.379 . S
C1024 C1021 1.363 . S
C1024 N1022 1.356 . S
C1025 C1019 1.363 . S
C1025 C1020 1.379 . S
C1025 N1023 1.356 . S
N1026 C1018 1.356 . S
N1026 H1032 0.984 . S
N1026 H1033 0.984 . S
N1027 C1020 1.356 . S
N1027 H1030 0.984 . S
N1027 H1031 0.985 . S
H1028 N1023 0.984 . S
H1029 N1023 0.985 . S
H1030 N1027 0.984 . S
H1031 N1027 0.985 . S
H1032 N1026 0.984 . S
H1033 N1026 0.984 . S
H1034 N1022 0.984 . S
H1035 N1022 0.985 . S
C1036 C1037 1.363 . S
C1036 C1042 1.379 . S
C1036 N1044 1.356 . S
C1037 C1036 1.363 . S
C1037 C1043 1.363 . S
C1038 C1039 1.363 . S
C1038 C1043 1.379 . S
C1038 N1045 1.356 . S
C1039 C1038 1.363 . S
C1039 C1042 1.363 . S
N1040 C1042 1.356 . S
N1040 H1052 0.984 . S
N1040 H1053 0.985 . S
N1041 C1043 1.356 . S
N1041 H1046 0.984 . S
N1041 H1047 0.985 . S
C1042 C1036 1.379 . S
C1042 C1039 1.363 . S
C1042 N1040 1.356 . S
C1043 C1037 1.363 . S
C1043 C1038 1.379 . S
C1043 N1041 1.356 . S
N1044 C1036 1.356 . S
N1044 H1050 0.984 . S
N1044 H1051 0.984 . S
N1045 C1038 1.356 . S
N1045 H1048 0.984 . S
N1045 H1049 0.985 . S
H1046 N1041 0.984 . S
H1047 N1041 0.985 . S
H1048 N1045 0.984 . S
H1049 N1045 0.985 . S
H1050 N1044 0.984 . S
H1051 N1044 0.984 . S
H1052 N1040 0.984 . S
H1053 N1040 0.985 . S
C1054 C1055 1.363 . S
C1054 C1060 1.379 . S
C1054 N1062 1.356 . S
C1055 C1054 1.363 . S
C1055 C1061 1.363 . S
C1056 C1057 1.363 . S
C1056 C1061 1.379 . S
C1056 N1063 1.356 . S
C1057 C1056 1.363 . S
C1057 C1060 1.363 . S
N1058 C1060 1.356 . S
N1058 H1070 0.984 . S
N1058 H1071 0.985 . S
N1059 C1061 1.356 . S
N1059 H1064 0.984 . S
N1059 H1065 0.985 . S
C1060 C1054 1.379 . S
C1060 C1057 1.363 . S
C1060 N1058 1.356 . S
C1061 C1055 1.363 . S
C1061 C1056 1.379 . S
C1061 N1059 1.356 . S
N1062 C1054 1.356 . S
N1062 H1068 0.984 . S
N1062 H1069 0.984 . S
N1063 C1056 1.356 . S
N1063 H1066 0.984 . S
N1063 H1067 0.985 . S
H1064 N1059 0.984 . S
H1065 N1059 0.985 . S
H1066 N1063 0.984 . S
H1067 N1063 0.985 . S
H1068 N1062 0.984 . S
H1069 N1062 0.984 . S
H1070 N1058 0.984 . S
H1071 N1058 0.985 . S
C1072 C1073 1.363 . S
C1072 C1078 1.379 . S
C1072 N1080 1.356 . S
C1073 C1072 1.363 . S
C1073 C1079 1.363 . S
C1074 C1075 1.363 . S
C1074 C1079 1.379 . S
C1074 N1081 1.356 . S
C1075 C1074 1.363 . S
C1075 C1078 1.363 . S
N1076 C1078 1.356 . S
N1076 H1088 0.984 . S
N1076 H1089 0.985 . S
N1077 C1079 1.356 . S
N1077 H1082 0.984 . S
N1077 H1083 0.985 . S
C1078 C1072 1.379 . S
C1078 C1075 1.363 . S
C1078 N1076 1.356 . S
C1079 C1073 1.363 . S
C1079 C1074 1.379 . S
C1079 N1077 1.356 . S
N1080 C1072 1.356 . S
N1080 H1086 0.984 . S
N1080 H1087 0.984 . S
N1081 C1074 1.356 . S
N1081 H1084 0.984 . S
N1081 H1085 0.985 . S
H1082 N1077 0.984 . S
H1083 N1077 0.985 . S
H1084 N1081 0.984 . S
H1085 N1081 0.985 . S
H1086 N1080 0.984 . S
H1087 N1080 0.984 . S
H1088 N1076 0.984 . S
H1089 N1076 0.985 . S
C1090 C1091 1.363 . S
C1090 C1096 1.379 . S
C1090 N1098 1.356 . S
C1091 C1090 1.363 . S
C1091 C1097 1.363 . S
C1092 C1093 1.363 . S
C1092 C1097 1.379 . S
C1092 N1099 1.356 . S
C1093 C1092 1.363 . S
C1093 C1096 1.363 . S
N1094 C1096 1.356 . S
N1094 H1106 0.984 . S
N1094 H1107 0.985 . S
N1095 C1097 1.356 . S
N1095 H1100 0.984 . S
N1095 H1101 0.985 . S
C1096 C1090 1.379 . S
C1096 C1093 1.363 . S
C1096 N1094 1.356 . S
C1097 C1091 1.363 . S
C1097 C1092 1.379 . S
C1097 N1095 1.356 . S
N1098 C1090 1.356 . S
N1098 H1104 0.984 . S
N1098 H1105 0.984 . S
N1099 C1092 1.356 . S
N1099 H1102 0.984 . S
N1099 H1103 0.985 . S
H1100 N1095 0.984 . S
H1101 N1095 0.985 . S
H1102 N1099 0.984 . S
H1103 N1099 0.985 . S
H1104 N1098 0.984 . S
H1105 N1098 0.984 . S
H1106 N1094 0.984 . S
H1107 N1094 0.985 . S
C1108 C1109 1.363 . S
C1108 C1114 1.379 . S
C1108 N1116 1.356 . S
C1109 C1108 1.363 . S
C1109 C1115 1.363 . S
C1110 C1111 1.363 . S
C1110 C1115 1.379 . S
C1110 N1117 1.356 . S
C1111 C1110 1.363 . S
C1111 C1114 1.363 . S
N1112 C1114 1.356 . S
N1112 H1124 0.984 . S
N1112 H1125 0.985 . S
N1113 C1115 1.356 . S
N1113 H1118 0.984 . S
N1113 H1119 0.985 . S
C1114 C1108 1.379 . S
C1114 C1111 1.363 . S
C1114 N1112 1.356 . S
C1115 C1109 1.363 . S
C1115 C1110 1.379 . S
C1115 N1113 1.356 . S
N1116 C1108 1.356 . S
N1116 H1122 0.988 . S
N1116 H1123 0.984 1_545 S
N1117 C1110 1.356 . S
N1117 H1120 0.984 . S
N1117 H1121 0.985 . S
H1118 N1113 0.984 . S
H1119 N1113 0.985 . S
H1120 N1117 0.984 . S
H1121 N1117 0.985 . S
H1122 N1116 0.988 . S
H1123 N1116 0.984 1_565 S
H1124 N1112 0.984 . S
H1125 N1112 0.985 . S
C1126 C1127 1.363 . S
C1126 C1132 1.379 . S
C1126 N1134 1.356 . S
C1127 C1126 1.363 . S
C1127 C1133 1.363 . S
C1128 C1129 1.363 . S
C1128 C1133 1.379 . S
C1128 N1135 1.356 . S
C1129 C1128 1.363 . S
C1129 C1132 1.363 . S
N1130 C1132 1.356 . S
N1130 H1142 0.984 . S
N1130 H1143 0.985 . S
N1131 C1133 1.356 . S
N1131 H1136 0.984 . S
N1131 H1137 0.985 . S
C1132 C1126 1.379 . S
C1132 C1129 1.363 . S
C1132 N1130 1.356 . S
C1133 C1127 1.363 . S
C1133 C1128 1.379 . S
C1133 N1131 1.356 . S
N1134 C1126 1.356 . S
N1134 H1140 0.984 . S
N1134 H1141 0.984 . S
N1135 C1128 1.356 . S
N1135 H1138 0.984 . S
N1135 H1139 0.985 . S
H1136 N1131 0.984 . S
H1137 N1131 0.985 . S
H1138 N1135 0.984 . S
H1139 N1135 0.985 . S
H1140 N1134 0.984 . S
H1141 N1134 0.984 . S
H1142 N1130 0.984 . S
H1143 N1130 0.985 . S
C1144 C1145 1.363 . S
C1144 C1150 1.379 . S
C1144 N1152 1.356 . S
C1145 C1144 1.363 . S
C1145 C1151 1.363 . S
C1146 C1147 1.363 . S
C1146 C1151 1.379 . S
C1146 N1153 1.356 . S
C1147 C1146 1.363 . S
C1147 C1150 1.363 . S
N1148 C1150 1.356 . S
N1148 H1160 0.984 1_545 S
N1148 H1161 0.985 1_545 S
N1149 C1151 1.356 . S
N1149 H1154 0.984 . S
N1149 H1155 0.985 . S
C1150 C1144 1.379 . S
C1150 C1147 1.363 . S
C1150 N1148 1.356 . S
C1151 C1145 1.363 . S
C1151 C1146 1.379 . S
C1151 N1149 1.356 . S
N1152 C1144 1.356 . S
N1152 H1158 0.984 . S
N1152 H1159 0.984 . S
N1153 C1146 1.356 . S
N1153 H1156 0.984 . S
N1153 H1157 0.985 . S
H1154 N1149 0.984 . S
H1155 N1149 0.985 . S
H1156 N1153 0.984 . S
H1157 N1153 0.985 . S
H1158 N1152 0.984 . S
H1159 N1152 0.984 . S
H1160 N1148 0.984 1_565 S
H1161 N1148 0.985 1_565 S
C1162 C1163 1.363 . S
C1162 C1168 1.379 . S
C1162 N1170 1.356 . S
C1163 C1162 1.363 . S
C1163 C1169 1.363 . S
C1164 C1165 1.363 . S
C1164 C1169 1.379 . S
C1164 N1171 1.356 . S
C1165 C1164 1.363 . S
C1165 C1168 1.363 . S
N1166 C1168 1.356 . S
N1166 H1178 0.984 . S
N1166 H1179 0.985 . S
N1167 C1169 1.356 . S
N1167 H1172 0.984 . S
N1167 H1173 0.985 1_545 S
C1168 C1162 1.379 . S
C1168 C1165 1.363 . S
C1168 N1166 1.356 . S
C1169 C1163 1.363 . S
C1169 C1164 1.379 . S
C1169 N1167 1.356 . S
N1170 C1162 1.356 . S
N1170 H1176 0.984 . S
N1170 H1177 0.984 . S
N1171 C1164 1.356 . S
N1171 H1174 0.984 . S
N1171 H1175 0.985 . S
H1172 N1167 0.984 . S
H1173 N1167 0.985 1_565 S
H1174 N1171 0.984 . S
H1175 N1171 0.985 . S
H1176 N1170 0.984 . S
H1177 N1170 0.984 . S
H1178 N1166 0.984 . S
H1179 N1166 0.985 . S
C1180 C1181 1.363 . S
C1180 C1186 1.379 . S
C1180 N1188 1.356 . S
C1181 C1180 1.363 . S
C1181 C1187 1.363 . S
C1182 C1183 1.363 . S
C1182 C1187 1.379 . S
C1182 N1189 1.356 . S
C1183 C1182 1.363 . S
C1183 C1186 1.363 . S
N1184 C1186 1.356 . S
N1184 H1196 0.984 . S
N1184 H1197 0.985 . S
N1185 C1187 1.356 . S
N1185 H1190 0.984 . S
N1185 H1191 0.985 . S
C1186 C1180 1.379 . S
C1186 C1183 1.363 . S
C1186 N1184 1.356 . S
C1187 C1181 1.363 . S
C1187 C1182 1.379 . S
C1187 N1185 1.356 . S
N1188 C1180 1.356 . S
N1188 H1194 0.984 . S
N1188 H1195 0.984 1_565 S
N1189 C1182 1.356 . S
N1189 H1192 0.984 . S
N1189 H1193 0.985 . S
H1190 N1185 0.984 . S
H1191 N1185 0.985 . S
H1192 N1189 0.984 . S
H1193 N1189 0.985 . S
H1194 N1188 0.984 . S
H1195 N1188 0.984 1_545 S
H1196 N1184 0.984 . S
H1197 N1184 0.985 . S
C1198 C1199 1.363 . S
C1198 C1204 1.379 . S
C1198 N1206 1.356 . S
C1199 C1198 1.363 . S
C1199 C1205 1.363 . S
C1200 C1201 1.363 . S
C1200 C1205 1.379 . S
C1200 N1207 1.356 . S
C1201 C1200 1.363 . S
C1201 C1204 1.363 . S
N1202 C1204 1.356 . S
N1202 H1214 0.984 . S
N1202 H1215 0.985 . S
N1203 C1205 1.356 . S
N1203 H1208 0.984 . S
N1203 H1209 0.985 . S
C1204 C1198 1.379 . S
C1204 C1201 1.363 . S
C1204 N1202 1.356 . S
C1205 C1199 1.363 . S
C1205 C1200 1.379 . S
C1205 N1203 1.356 . S
N1206 C1198 1.356 . S
N1206 H1212 0.984 . S
N1206 H1213 0.984 . S
N1207 C1200 1.356 . S
N1207 H1210 0.984 . S
N1207 H1211 0.985 . S
H1208 N1203 0.984 . S
H1209 N1203 0.985 . S
H1210 N1207 0.984 . S
H1211 N1207 0.985 . S
H1212 N1206 0.984 . S
H1213 N1206 0.984 . S
H1214 N1202 0.984 . S
H1215 N1202 0.985 . S
C1216 C1217 1.363 . S
C1216 C1222 1.379 . S
C1216 N1224 1.356 1_556 S
C1217 C1216 1.363 . S
C1217 C1223 1.363 . S
C1218 C1219 1.363 . S
C1218 C1223 1.379 . S
C1218 N1225 1.356 . S
C1219 C1218 1.363 . S
C1219 C1222 1.363 . S
N1220 C1222 1.356 . S
N1220 H1232 0.984 . S
N1220 H1233 0.985 . S
N1221 C1223 1.356 . S
N1221 H1226 0.984 . S
N1221 H1227 0.985 . S
C1222 C1216 1.379 . S
C1222 C1219 1.363 . S
C1222 N1220 1.356 . S
C1223 C1217 1.363 . S
C1223 C1218 1.379 . S
C1223 N1221 1.356 . S
N1224 C1216 1.356 1_554 S
N1224 H1230 0.984 . S
N1224 H1231 0.984 . S
N1225 C1218 1.356 . S
N1225 H1228 0.984 . S
N1225 H1229 0.985 . S
H1226 N1221 0.984 . S
H1227 N1221 0.985 . S
H1228 N1225 0.984 . S
H1229 N1225 0.985 . S
H1230 N1224 0.984 . S
H1231 N1224 0.984 . S
H1232 N1220 0.984 . S
H1233 N1220 0.985 . S
C1234 C1235 1.363 . S
C1234 C1240 1.379 . S
C1234 N1242 1.356 . S
C1235 C1234 1.363 . S
C1235 C1241 1.363 . S
C1236 C1237 1.363 . S
C1236 C1241 1.379 . S
C1236 N1243 1.356 . S
C1237 C1236 1.363 . S
C1237 C1240 1.363 . S
N1238 C1240 1.356 . S
N1238 H1250 0.984 . S
N1238 H1251 0.985 . S
N1239 C1241 1.356 . S
N1239 H1244 0.984 . S
N1239 H1245 0.985 . S
C1240 C1234 1.379 . S
C1240 C1237 1.363 . S
C1240 N1238 1.356 . S
C1241 C1235 1.363 . S
C1241 C1236 1.379 . S
C1241 N1239 1.356 . S
N1242 C1234 1.356 . S
N1242 H1248 0.984 . S
N1242 H1249 0.984 . S
N1243 C1236 1.356 . S
N1243 H1246 0.984 . S
N1243 H1247 0.985 . S
H1244 N1239 0.984 . S
H1245 N1239 0.985 . S
H1246 N1243 0.984 . S
H1247 N1243 0.985 . S
H1248 N1242 0.984 . S
H1249 N1242 0.984 . S
H1250 N1238 0.984 . S
H1251 N1238 0.985 . S
C1252 C1253 1.363 . S
C1252 C1258 1.379 . S
C1252 N1260 1.356 . S
C1253 C1252 1.363 . S
C1253 C1259 1.363 . S
C1254 C1255 1.363 . S
C1254 C1259 1.379 . S
C1254 N1261 1.356 . S
C1255 C1254 1.363 . S
C1255 C1258 1.363 . S
N1256 C1258 1.356 . S
N1256 H1268 0.984 . S
N1256 H1269 0.985 . S
N1257 C1259 1.356 . S
N1257 H1262 0.984 . S
N1257 H1263 0.985 . S
C1258 C1252 1.379 . S
C1258 C1255 1.363 . S
C1258 N1256 1.356 . S
C1259 C1253 1.363 . S
C1259 C1254 1.379 . S
C1259 N1257 1.356 . S
N1260 C1252 1.356 . S
N1260 H1266 0.984 . S
N1260 H1267 0.984 . S
N1261 C1254 1.356 . S
N1261 H1264 0.984 . S
N1261 H1265 0.985 . S
H1262 N1257 0.984 . S
H1263 N1257 0.985 . S
H1264 N1261 0.984 . S
H1265 N1261 0.985 . S
H1266 N1260 0.984 . S
H1267 N1260 0.984 . S
H1268 N1256 0.984 . S
H1269 N1256 0.985 . S
C1270 C1271 1.363 . S
C1270 C1276 1.379 . S
C1270 N1278 1.356 . S
C1271 C1270 1.363 . S
C1271 C1277 1.363 . S
C1272 C1273 1.363 . S
C1272 C1277 1.379 . S
C1272 N1279 1.356 . S
C1273 C1272 1.363 . S
C1273 C1276 1.363 . S
N1274 C1276 1.356 . S
N1274 H1286 0.984 . S
N1274 H1287 0.985 . S
N1275 C1277 1.356 . S
N1275 H1280 0.984 . S
N1275 H1281 0.985 . S
C1276 C1270 1.379 . S
C1276 C1273 1.363 . S
C1276 N1274 1.356 . S
C1277 C1271 1.363 . S
C1277 C1272 1.379 . S
C1277 N1275 1.356 . S
N1278 C1270 1.356 . S
N1278 H1284 0.984 . S
N1278 H1285 0.984 . S
N1279 C1272 1.356 . S
N1279 H1282 0.984 . S
N1279 H1283 0.985 . S
H1280 N1275 0.984 . S
H1281 N1275 0.985 . S
H1282 N1279 0.984 . S
H1283 N1279 0.985 . S
H1284 N1278 0.984 . S
H1285 N1278 0.984 . S
H1286 N1274 0.984 . S
H1287 N1274 0.985 . S
C1288 C1289 1.363 . S
C1288 C1294 1.379 . S
C1288 N1296 1.356 . S
C1289 C1288 1.363 . S
C1289 C1295 1.363 . S
C1290 C1291 1.363 . S
C1290 C1295 1.379 . S
C1290 N1297 1.356 . S
C1291 C1290 1.363 . S
C1291 C1294 1.363 . S
N1292 C1294 1.356 . S
N1292 H1304 0.984 . S
N1292 H1305 0.985 1_554 S
N1293 C1295 1.356 . S
N1293 H1298 0.984 . S
N1293 H1299 0.985 . S
C1294 C1288 1.379 . S
C1294 C1291 1.363 . S
C1294 N1292 1.356 . S
C1295 C1289 1.363 . S
C1295 C1290 1.379 . S
C1295 N1293 1.356 . S
N1296 C1288 1.356 . S
N1296 H1302 0.984 . S
N1296 H1303 0.984 . S
N1297 C1290 1.356 . S
N1297 H1300 0.984 1_554 S
N1297 H1301 0.985 . S
H1298 N1293 0.984 . S
H1299 N1293 0.985 . S
H1300 N1297 0.984 1_556 S
H1301 N1297 0.985 . S
H1302 N1296 0.984 . S
H1303 N1296 0.984 . S
H1304 N1292 0.984 . S
H1305 N1292 0.985 1_556 S
C1306 C1307 1.363 . S
C1306 C1312 1.379 . S
C1306 N1314 1.356 . S
C1307 C1306 1.363 . S
C1307 C1313 1.363 . S
C1308 C1309 1.363 . S
C1308 C1313 1.379 . S
C1308 N1315 1.356 . S
C1309 C1308 1.363 . S
C1309 C1312 1.363 . S
N1310 C1312 1.356 . S
N1310 H1322 0.984 . S
N1310 H1323 0.985 . S
N1311 C1313 1.356 . S
N1311 H1316 0.984 . S
N1311 H1317 0.985 . S
C1312 C1306 1.379 . S
C1312 C1309 1.363 . S
C1312 N1310 1.356 . S
C1313 C1307 1.363 . S
C1313 C1308 1.379 . S
C1313 N1311 1.356 . S
N1314 C1306 1.356 . S
N1314 H1320 0.984 . S
N1314 H1321 0.984 . S
N1315 C1308 1.356 . S
N1315 H1318 0.984 . S
N1315 H1319 0.985 . S
H1316 N1311 0.984 . S
H1317 N1311 0.985 . S
H1318 N1315 0.984 . S
H1319 N1315 0.985 . S
H1320 N1314 0.984 . S
H1321 N1314 0.984 . S
H1322 N1310 0.984 . S
H1323 N1310 0.985 . S
C1324 C1325 1.363 . S
C1324 C1330 1.379 . S
C1324 N1332 1.356 . S
C1325 C1324 1.363 . S
C1325 C1331 1.363 . S
C1326 C1327 1.363 . S
C1326 C1331 1.379 . S
C1326 N1333 1.356 . S
C1327 C1326 1.363 . S
C1327 C1330 1.363 . S
N1328 C1330 1.356 . S
N1328 H1340 0.984 . S
N1328 H1341 0.985 . S
N1329 C1331 1.356 . S
N1329 H1334 0.984 . S
N1329 H1335 0.985 . S
C1330 C1324 1.379 . S
C1330 C1327 1.363 . S
C1330 N1328 1.356 . S
C1331 C1325 1.363 . S
C1331 C1326 1.379 . S
C1331 N1329 1.356 . S
N1332 C1324 1.356 . S
N1332 H1338 0.984 . S
N1332 H1339 0.984 . S
N1333 C1326 1.356 . S
N1333 H1336 0.984 . S
N1333 H1337 0.985 . S
H1334 N1329 0.984 . S
H1335 N1329 0.985 . S
H1336 N1333 0.984 . S
H1337 N1333 0.985 . S
H1338 N1332 0.984 . S
H1339 N1332 0.984 . S
H1340 N1328 0.984 . S
H1341 N1328 0.985 . S
C1342 C1343 1.363 . S
C1342 C1348 1.379 . S
C1342 N1350 1.356 . S
C1343 C1342 1.363 . S
C1343 C1349 1.363 . S
C1344 C1345 1.363 . S
C1344 C1349 1.379 . S
C1344 N1351 1.356 . S
C1345 C1344 1.363 . S
C1345 C1348 1.363 . S
N1346 C1348 1.356 . S
N1346 H1358 0.984 . S
N1346 H1359 0.985 . S
N1347 C1349 1.356 . S
N1347 H1352 0.984 . S
N1347 H1353 0.985 . S
C1348 C1342 1.379 . S
C1348 C1345 1.363 . S
C1348 N1346 1.356 . S
C1349 C1343 1.363 . S
C1349 C1344 1.379 . S
C1349 N1347 1.356 . S
N1350 C1342 1.356 . S
N1350 H1356 0.984 . S
N1350 H1357 0.984 . S
N1351 C1344 1.356 . S
N1351 H1354 0.984 . S
N1351 H1355 0.985 . S
H1352 N1347 0.984 . S
H1353 N1347 0.985 . S
H1354 N1351 0.984 . S
H1355 N1351 0.985 . S
H1356 N1350 0.984 . S
H1357 N1350 0.984 . S
H1358 N1346 0.984 . S
H1359 N1346 0.985 . S
C1360 C1361 1.363 . S
C1360 C1366 1.379 . S
C1360 N1368 1.356 . S
C1361 C1360 1.363 . S
C1361 C1367 1.363 . S
C1362 C1363 1.363 . S
C1362 C1367 1.379 . S
C1362 N1369 1.356 . S
C1363 C1362 1.363 . S
C1363 C1366 1.363 . S
N1364 C1366 1.356 . S
N1364 H1376 0.984 . S
N1364 H1377 0.985 . S
N1365 C1367 1.356 . S
N1365 H1370 0.984 . S
N1365 H1371 0.985 . S
C1366 C1360 1.379 . S
C1366 C1363 1.363 . S
C1366 N1364 1.356 . S
C1367 C1361 1.363 . S
C1367 C1362 1.379 . S
C1367 N1365 1.356 . S
N1368 C1360 1.356 . S
N1368 H1374 0.984 . S
N1368 H1375 0.984 . S
N1369 C1362 1.356 . S
N1369 H1372 0.984 . S
N1369 H1373 0.985 . S
H1370 N1365 0.984 . S
H1371 N1365 0.985 . S
H1372 N1369 0.984 . S
H1373 N1369 0.985 . S
H1374 N1368 0.984 . S
H1375 N1368 0.984 . S
H1376 N1364 0.984 . S
H1377 N1364 0.985 . S
C1378 C1379 1.363 . S
C1378 C1384 1.379 . S
C1378 N1386 1.356 . S
C1379 C1378 1.363 . S
C1379 C1385 1.363 . S
C1380 C1381 1.363 . S
C1380 C1385 1.379 . S
C1380 N1387 1.356 1_565 S
C1381 C1380 1.363 . S
C1381 C1384 1.363 . S
N1382 C1384 1.356 . S
N1382 H1394 0.984 . S
N1382 H1395 0.985 . S
N1383 C1385 1.356 . S
N1383 H1388 0.984 . S
N1383 H1389 0.985 . S
C1384 C1378 1.379 . S
C1384 C1381 1.363 . S
C1384 N1382 1.356 . S
C1385 C1379 1.363 . S
C1385 C1380 1.379 . S
C1385 N1383 1.356 . S
N1386 C1378 1.356 . S
N1386 H1392 0.984 . S
N1386 H1393 0.984 . S
N1387 C1380 1.356 1_545 S
N1387 H1390 0.984 . S
N1387 H1391 0.985 . S
H1388 N1383 0.984 . S
H1389 N1383 0.985 . S
H1390 N1387 0.984 . S
H1391 N1387 0.985 . S
H1392 N1386 0.984 . S
H1393 N1386 0.984 . S
H1394 N1382 0.984 . S
H1395 N1382 0.985 . S
C1396 C1397 1.363 . S
C1396 C1402 1.379 . S
C1396 N1404 1.356 . S
C1397 C1396 1.363 . S
C1397 C1403 1.363 . S
C1398 C1399 1.363 . S
C1398 C1403 1.379 . S
C1398 N1405 1.356 . S
C1399 C1398 1.363 . S
C1399 C1402 1.363 . S
N1400 C1402 1.356 1_554 S
N1400 H1412 0.984 . S
N1400 H1413 0.985 . S
N1401 C1403 1.356 . S
N1401 H1406 0.984 . S
N1401 H1407 0.985 . S
C1402 C1396 1.379 . S
C1402 C1399 1.363 . S
C1402 N1400 1.356 1_556 S
C1403 C1397 1.363 . S
C1403 C1398 1.379 . S
C1403 N1401 1.356 . S
N1404 C1396 1.356 . S
N1404 H1410 0.984 . S
N1404 H1411 0.984 . S
N1405 C1398 1.356 . S
N1405 H1408 0.984 . S
N1405 H1409 0.985 . S
H1406 N1401 0.984 . S
H1407 N1401 0.985 . S
H1408 N1405 0.984 . S
H1409 N1405 0.985 . S
H1410 N1404 0.984 . S
H1411 N1404 0.984 . S
H1412 N1400 0.984 . S
H1413 N1400 0.985 . S
C1414 C1415 1.363 . S
C1414 C1420 1.379 . S
C1414 N1422 1.356 1_545 S
C1415 C1414 1.363 . S
C1415 C1421 1.363 . S
C1416 C1417 1.363 . S
C1416 C1421 1.379 . S
C1416 N1423 1.356 . S
C1417 C1416 1.363 . S
C1417 C1420 1.363 . S
N1418 C1420 1.356 . S
N1418 H1430 0.984 . S
N1418 H1431 0.985 . S
N1419 C1421 1.356 . S
N1419 H1424 0.984 . S
N1419 H1425 0.985 . S
C1420 C1414 1.379 . S
C1420 C1417 1.363 . S
C1420 N1418 1.356 . S
C1421 C1415 1.363 . S
C1421 C1416 1.379 . S
C1421 N1419 1.356 . S
N1422 C1414 1.356 1_565 S
N1422 H1428 0.984 . S
N1422 H1429 0.984 . S
N1423 C1416 1.356 . S
N1423 H1426 0.984 . S
N1423 H1427 0.985 . S
H1424 N1419 0.984 . S
H1425 N1419 0.985 . S
H1426 N1423 0.984 . S
H1427 N1423 0.985 . S
H1428 N1422 0.984 . S
H1429 N1422 0.984 . S
H1430 N1418 0.984 . S
H1431 N1418 0.985 . S
C1432 C1433 1.363 . S
C1432 C1438 1.379 . S
C1432 N1440 1.356 . S
C1433 C1432 1.363 . S
C1433 C1439 1.363 . S
C1434 C1435 1.363 . S
C1434 C1439 1.379 . S
C1434 N1441 1.356 . S
C1435 C1434 1.363 . S
C1435 C1438 1.363 . S
N1436 C1438 1.356 . S
N1436 H1448 0.984 . S
N1436 H1449 0.985 . S
N1437 C1439 1.356 . S
N1437 H1442 0.984 . S
N1437 H1443 0.985 . S
C1438 C1432 1.379 . S
C1438 C1435 1.363 . S
C1438 N1436 1.356 . S
C1439 C1433 1.363 . S
C1439 C1434 1.379 . S
C1439 N1437 1.356 . S
N1440 C1432 1.356 . S
N1440 H1446 0.984 . S
N1440 H1447 0.984 . S
N1441 C1434 1.356 . S
N1441 H1444 0.984 . S
N1441 H1445 0.985 . S
H1442 N1437 0.984 . S
H1443 N1437 0.985 . S
H1444 N1441 0.984 . S
H1445 N1441 0.985 . S
H1446 N1440 0.984 . S
H1447 N1440 0.984 . S
H1448 N1436 0.984 . S
H1449 N1436 0.985 . S
C1450 C1451 1.363 . S
C1450 C1456 1.379 . S
C1450 N1458 1.356 . S
C1451 C1450 1.363 . S
C1451 C1457 1.363 . S
C1452 C1453 1.363 . S
C1452 C1457 1.379 . S
C1452 N1459 1.356 1_545 S
C1453 C1452 1.363 . S
C1453 C1456 1.363 . S
N1454 C1456 1.356 . S
N1454 H1466 0.984 . S
N1454 H1467 0.985 . S
N1455 C1457 1.356 . S
N1455 H1460 0.984 . S
N1455 H1461 0.985 . S
C1456 C1450 1.379 . S
C1456 C1453 1.363 . S
C1456 N1454 1.356 . S
C1457 C1451 1.363 . S
C1457 C1452 1.379 . S
C1457 N1455 1.356 . S
N1458 C1450 1.356 . S
N1458 H1464 0.984 . S
N1458 H1465 0.984 . S
N1459 C1452 1.356 1_565 S
N1459 H1462 0.984 . S
N1459 H1463 0.985 . S
H1460 N1455 0.984 . S
H1461 N1455 0.985 . S
H1462 N1459 0.984 . S
H1463 N1459 0.985 . S
H1464 N1458 0.984 . S
H1465 N1458 0.984 . S
H1466 N1454 0.984 . S
H1467 N1454 0.985 . S
C1468 C1469 1.363 . S
C1468 C1474 1.379 . S
C1468 N1476 1.356 . S
C1469 C1468 1.363 . S
C1469 C1475 1.363 . S
C1470 C1471 1.363 . S
C1470 C1475 1.379 . S
C1470 N1477 1.356 . S
C1471 C1470 1.363 . S
C1471 C1474 1.363 . S
N1472 C1474 1.356 1_556 S
N1472 H1484 0.984 . S
N1472 H1485 0.985 . S
N1473 C1475 1.356 . S
N1473 H1478 0.984 . S
N1473 H1479 0.985 . S
C1474 C1468 1.379 . S
C1474 C1471 1.363 . S
C1474 N1472 1.356 1_554 S
C1475 C1469 1.363 . S
C1475 C1470 1.379 . S
C1475 N1473 1.356 . S
N1476 C1468 1.356 . S
N1476 H1482 0.984 . S
N1476 H1483 0.984 . S
N1477 C1470 1.356 . S
N1477 H1480 0.984 . S
N1477 H1481 0.985 . S
H1478 N1473 0.984 . S
H1479 N1473 0.985 . S
H1480 N1477 0.984 . S
H1481 N1477 0.985 . S
H1482 N1476 0.984 . S
H1483 N1476 0.984 . S
H1484 N1472 0.984 . S
H1485 N1472 0.985 . S
C1486 C1487 1.363 . S
C1486 C1492 1.379 . S
C1486 N1494 1.356 . S
C1487 C1486 1.363 . S
C1487 C1493 1.363 . S
C1488 C1489 1.363 . S
C1488 C1493 1.379 . S
C1488 N1495 1.356 . S
C1489 C1488 1.363 . S
C1489 C1492 1.363 . S
N1490 C1492 1.356 1_545 S
N1490 H1502 0.984 . S
N1490 H1503 0.985 . S
N1491 C1493 1.356 . S
N1491 H1496 0.984 . S
N1491 H1497 0.985 . S
C1492 C1486 1.379 . S
C1492 C1489 1.363 . S
C1492 N1490 1.356 1_565 S
C1493 C1487 1.363 . S
C1493 C1488 1.379 . S
C1493 N1491 1.356 . S
N1494 C1486 1.356 . S
N1494 H1500 0.984 . S
N1494 H1501 0.984 . S
N1495 C1488 1.356 . S
N1495 H1498 0.984 . S
N1495 H1499 0.985 . S
H1496 N1491 0.984 . S
H1497 N1491 0.985 . S
H1498 N1495 0.984 . S
H1499 N1495 0.985 . S
H1500 N1494 0.984 . S
H1501 N1494 0.984 . S
H1502 N1490 0.984 . S
H1503 N1490 0.985 . S
C641 C10 3.072 . S
C643 C410 3.072 . S
C659 C50 3.072 . S
C661 C450 3.072 . S
C677 C90 3.072 . S
C679 C330 3.072 . S
C695 C370 3.072 . S
C697 C130 3.072 . S
C713 C179 3.072 . S
C715 C579 3.072 . S
C731 C619 3.072 . S
C733 C219 3.072 . S
C749 C499 3.072 . S
C751 C259 3.072 . S
C767 C299 3.072 . S
C769 C539 3.072 . S
C785 C16 1.355 1_556 S
C787 C167 1.355 1_554 S
C803 C56 1.355 . S
C805 C527 1.355 . S
C821 C96 1.355 . S
C823 C247 1.355 . S
C839 C136 1.355 . S
C841 C607 1.355 . S
C857 C207 1.355 . S
C859 C376 1.355 . S
C875 C456 1.355 . S
C877 C287 1.355 . S
C893 C487 1.355 . S
C895 C336 1.355 . S
C911 C416 1.355 1_556 S
C913 C567 1.355 1_554 S
C929 C7 1.556 . S
C931 C290 1.810 . S
C947 C47 1.556 . S
C949 C490 1.810 . S
C965 C87 1.556 . S
C967 C210 1.810 . S
C983 C127 1.555 . S
C985 C570 1.810 . S
C1001 C139 1.810 . S
C1003 C176 1.556 . S
C1019 C216 1.556 . S
C1021 C339 1.810 . S
C1037 C256 1.556 . S
C1039 C59 1.810 . S
C1055 C419 1.810 . S
C1057 C296 1.555 . S
C1073 C327 1.556 . S
C1075 C610 1.810 . S
C1091 C170 1.810 . S
C1093 C367 1.555 . S
C1109 C530 1.810 . S
C1111 C407 1.556 . S
C1127 C250 1.810 . S
C1129 C447 1.556 . S
C1145 C496 1.556 . S
C1147 C459 1.810 . S
C1163 C536 1.555 . S
C1165 C19 1.810 . S
C1181 C379 1.810 . S
C1183 C576 1.556 . S
C1199 C616 1.556 . S
C1201 C99 1.810 . S
C1217 C11 4.082 1_556 S
C1219 C362 4.093 . S
C1235 C402 4.093 . S
C1237 C51 4.082 . S
C1253 C91 4.082 . S
C1255 C442 4.093 . S
C1271 C322 4.093 . S
C1273 C131 4.082 . S
C1289 C531 4.093 . S
C1291 C162 4.082 1_554 S
C1307 C571 4.093 . S
C1309 C202 4.082 . S
C1325 C611 4.093 . S
C1327 C242 4.082 . S
C1343 C491 4.093 . S
C1345 C282 4.082 . S
C1361 C42 4.093 . S
C1363 C331 4.082 . S
C1379 C82 4.093 . S
C1381 C371 4.082 1_565 S
C1397 C122 4.093 . S
C1399 C411 4.082 1_556 S
C1415 C451 4.082 1_545 S
C1417 C2 4.093 . S
C1433 C211 4.093 . S
C1435 C482 4.082 . S
C1451 C251 4.093 . S
C1453 C522 4.082 1_545 S
C1469 C291 4.093 . S
C1471 C562 4.082 1_554 S
C1487 C171 4.093 . S
C1489 C602 4.082 1_565 S
