# Generated by pormake.
# Topology snp, (6)-cn, num edge types: 1
# Building blocks:
#     Node 0, Type 0, BuildingBlock: BETGAK_clean_sbu_0, # of connection points: 6
#     Node 1, Type 0, BuildingBlock: BETGAK_clean_sbu_0, # of connection points: 6
#     Node 2, Type 0, BuildingBlock: BETGAK_clean_sbu_0, # of connection points: 6
#     Node 3, Type 0, BuildingBlock: BETGAK_clean_sbu_0, # of connection points: 6
#     Edge 4, Type (0, 0), BuildingBlock: FUNLAD_clean_linker_1, # of connection points: 2
#     Edge 5, Type (0, 0), BuildingBlock: FUNLAD_clean_linker_1, # of connection points: 2
#     Edge 6, Type (0, 0), BuildingBlock: FUNLAD_clean_linker_1, # of connection points: 2
#     Edge 7, Type (0, 0), BuildingBlock: FUNLAD_clean_linker_1, # of connection points: 2
#     Edge 8, Type (0, 0), BuildingBlock: FUNLAD_clean_linker_1, # of connection points: 2
#     Edge 9, Type (0, 0), BuildingBlock: FUNLAD_clean_linker_1, # of connection points: 2
#     Edge 10, Type (0, 0), BuildingBlock: FUNLAD_clean_linker_1, # of connection points: 2
#     Edge 11, Type (0, 0), BuildingBlock: FUNLAD_clean_linker_1, # of connection points: 2
#     Edge 12, Type (0, 0), BuildingBlock: FUNLAD_clean_linker_1, # of connection points: 2
#     Edge 13, Type (0, 0), BuildingBlock: FUNLAD_clean_linker_1, # of connection points: 2
#     Edge 14, Type (0, 0), BuildingBlock: FUNLAD_clean_linker_1, # of connection points: 2
#     Edge 15, Type (0, 0), BuildingBlock: FUNLAD_clean_linker_1, # of connection points: 2
# Relax obj value: 0.708
# Max RMSD: 0.176
# Mean RMSD: 0.176
data_MOF--net-snp--node1-BETGAK_clean_sbu_0--edge1-FUNLAD_clean_linker_1
_symmetry_space_group_name_H-M    P1
_symmetry_Int_Tables_number       1
_symmetry_cell_setting            triclinic
loop_
_symmetry_equiv_pos_as_xyz
'x, y, z'
_cell_length_a     25.467114
_cell_length_b     24.947734
_cell_length_c     28.704963
_cell_angle_alpha  89.660311
_cell_angle_beta   89.045233
_cell_angle_gamma 90.142445
loop_
_atom_site_label
_atom_site_type_symbol
_atom_site_fract_x
_atom_site_fract_y
_atom_site_fract_z
_atom_type_partial_charge
La0 La 0.30013 0.19536 0.24551 0.0
La1 La 0.25453 0.09591 0.20794 0.0
C2 C 0.32022 0.28051 0.28902 0.0
C3 C 0.29051 0.32212 0.31396 0.0
C4 C 0.30763 0.37535 0.31048 0.0
C5 C 0.2799 0.41601 0.3331 0.0
C6 C 0.2346 0.40426 0.35984 0.0
C7 C 0.21697 0.35069 0.36274 0.0
C8 C 0.24486 0.30995 0.34006 0.0
C9 C 0.37223 0.13006 0.21026 0.0
C10 C 0.25316 0.10018 0.31515 0.0
C11 C 0.24639 1.0096 1.16388 0.0
C12 C 0.27735 0.9901 1.12394 0.0
C13 C 0.26583 0.94076 1.1035 0.0
C14 C 0.2985 0.92048 1.06809 0.0
C15 C 0.34319 0.94956 1.05264 0.0
C16 C 0.35453 0.99878 1.07369 0.0
C17 C 0.32195 1.01889 1.10889 0.0
C18 C 0.18686 0.1681 0.24157 0.0
C19 C 0.26967 0.19359 1.1381 0.0
O20 O 0.32111 0.23275 0.30791 0.0
O21 O 0.313 0.27853 0.24421 0.0
O22 O 0.37488 0.18161 0.21014 0.0
O23 O 0.33153 0.11646 0.23312 0.0
O24 O 0.26582 0.15207 0.30895 0.0
O25 O 0.25172 0.06764 0.27931 0.0
O26 O 0.21635 0.05126 1.15634 0.0
O27 O 0.27372 1.0149 0.20171 0.0
O28 O 0.17866 0.11657 0.24314 0.0
O29 O 0.22797 0.17547 0.21908 0.0
O30 O 0.27127 0.14075 1.14255 0.0
O31 O 0.27357 0.22399 1.17599 0.0
H32 H 0.34258 0.38551 0.29022 0.0
H33 H 0.29434 0.45681 0.3301 0.0
H34 H 0.18165 0.33986 0.382 0.0
H35 H 0.23071 0.26905 0.34284 0.0
H36 H 0.23217 0.91753 1.11546 0.0
H37 H 0.28891 0.88178 1.05375 0.0
H38 H 0.38868 1.02195 1.06277 0.0
H39 H 0.33222 0.05652 1.12503 0.0
La40 La 0.03685 0.24897 0.72654 0.0
La41 La 0.10997 0.33058 0.68856 0.0
C42 C 0.97234 0.17524 0.74668 0.0
C43 C 0.91448 0.17464 0.74539 0.0
C44 C 0.88743 0.1289 0.73053 0.0
C45 C 0.83258 0.12968 0.72703 0.0
C46 C 0.80425 0.17597 0.7389 0.0
C47 C 0.83145 0.22177 0.75319 0.0
C48 C 0.88594 0.2211 0.75654 0.0
C49 C 1.00097 0.34986 0.72498 0.0
C50 C 0.11887 0.28989 0.79723 0.0
C51 C 0.15091 0.42165 0.67398 0.0
C52 C 0.13781 0.47058 0.64796 0.0
C53 C 0.10633 0.46838 0.60842 0.0
C54 C 0.09201 0.5155 0.58557 0.0
C55 C 0.11049 0.56551 0.60081 0.0
C56 C 0.14149 0.56758 0.64066 0.0
C57 C 0.155 0.52045 0.66414 0.0
C58 C 0.15202 0.23628 0.68507 0.0
C59 C 0.04413 0.26109 0.61646 0.0
O60 O 0.99652 0.1792 0.70628 0.0
O61 O 0.99291 0.20711 0.77744 0.0
O62 O 0.99173 0.31591 0.75794 0.0
O63 O 0.02763 0.32654 0.69437 0.0
O64 O 0.09085 0.24754 0.78522 0.0
O65 O 0.12706 0.32924 0.76593 0.0
O66 O 0.1621 0.37904 0.64942 0.0
O67 O 0.12007 0.41037 0.70953 0.0
O68 O 0.16562 0.27547 0.65769 0.0
O69 O 0.1207 0.25219 0.71637 0.0
O70 O 0.06811 0.30812 0.62349 0.0
O71 O 0.03393 0.22867 0.65208 0.0
H72 H 0.90875 0.0929 0.72117 0.0
H73 H 0.81224 0.09415 0.71535 0.0
H74 H 0.81072 0.25856 0.76076 0.0
H75 H 0.90572 0.2573 0.76726 0.0
H76 H 0.09165 0.43037 0.59595 0.0
H77 H 0.06547 0.5127 0.55671 0.0
H78 H 0.15579 0.60562 0.65329 0.0
H79 H 0.17879 0.52292 0.695 0.0
La80 La 0.85614 0.97081 0.2294 0.0
La81 La 0.88246 0.08413 0.20636 0.0
C82 C 0.85259 0.8744 0.25657 0.0
C83 C 0.81956 0.83662 0.28402 0.0
C84 C 0.78751 0.79948 0.26097 0.0
C85 C 0.7606 0.75944 0.28597 0.0
C86 C 0.76615 0.75511 0.33428 0.0
C87 C 0.79638 0.79367 0.35759 0.0
C88 C 0.82308 0.83378 0.33268 0.0
C89 C 0.77286 1.02938 0.20984 0.0
C90 C 0.88319 0.05863 0.31229 0.0
C91 C 0.87644 0.17626 1.17128 0.0
C92 C 0.86093 0.19424 1.12441 0.0
C93 C 0.88282 0.1707 1.08424 0.0
C94 C 0.8617 0.1811 1.04056 0.0
C95 C 0.8182 0.21547 1.03602 0.0
C96 C 0.79774 0.24052 1.07605 0.0
C97 C 0.81904 0.23021 1.1198 0.0
C98 C 0.96115 1.02105 0.22849 0.0
C99 C 0.88549 0.99919 1.12359 0.0
O100 O 0.83309 0.89163 0.21751 0.0
O101 O 0.87778 0.91224 0.27854 0.0
O102 O 0.77725 0.97873 0.20235 0.0
O103 O 0.81245 0.04464 0.23212 0.0
O104 O 0.87217 1.00781 0.30004 0.0
O105 O 0.88506 0.09756 0.2809 0.0
O106 O 0.92062 0.14956 1.17416 0.0
O107 O 0.83854 0.15408 1.19624 0.0
O108 O 0.95914 0.07179 0.23861 0.0
O109 O 0.9227 1.00968 0.2044 0.0
O110 O 0.87708 0.0496 1.13572 0.0
O111 O 0.88704 0.96151 1.1566 0.0
H112 H 0.78437 0.80044 0.22338 0.0
H113 H 0.73711 0.7306 0.26736 0.0
H114 H 0.79997 0.79255 0.39512 0.0
H115 H 0.84735 0.86172 0.3515 0.0
H116 H 0.91476 0.14226 1.08664 0.0
H117 H 0.87803 0.15974 1.01111 0.0
H118 H 0.76413 0.26688 1.07369 0.0
H119 H 0.80126 0.24851 1.15033 0.0
La120 La 0.12315 0.85462 0.70941 0.0
La121 La 1.00439 0.84676 0.68358 0.0
C122 C 0.21492 0.88559 0.72567 0.0
C123 C 0.26656 0.8604 0.73031 0.0
C124 C 0.27077 0.80687 0.74487 0.0
C125 C 0.31889 0.78698 0.75971 0.0
C126 C 0.36346 0.82031 0.76048 0.0
C127 C 0.3602 0.87194 0.74033 0.0
C128 C 0.31191 0.89188 0.72574 0.0
C129 C 0.09406 0.75221 0.69722 0.0
C130 C 0.03482 0.86919 0.79074 0.0
C131 C 0.91522 0.80414 0.6776 0.0
C132 C 0.89279 0.76268 0.64792 0.0
C133 C 0.91105 0.75634 0.60204 0.0
C134 C 0.88984 0.71662 0.57414 0.0
C135 C 0.85032 0.68215 0.59158 0.0
C136 C 0.83336 0.68736 0.63823 0.0
C137 C 0.85449 0.72754 0.66614 0.0
C138 C 0.0443 0.94358 0.68019 0.0
C139 C 0.08939 0.8651 0.60246 0.0
O140 O 0.19476 0.8866 0.684 0.0
O141 O 0.18021 0.87306 0.7582 0.0
O142 O 0.14009 0.76743 0.71006 0.0
O143 O 0.06843 0.79457 0.69196 0.0
O144 O 0.08556 0.86733 0.77863 0.0
O145 O 0.99706 0.86415 0.75937 0.0
O146 O 0.9281 0.84963 0.65723 0.0
O147 O 0.95143 0.78723 0.70587 0.0
O148 O 1.00303 0.92902 0.65725 0.0
O149 O 0.05651 0.90586 0.70727 0.0
O150 O 0.04225 0.84391 0.61322 0.0
O151 O 0.12449 0.87526 0.63494 0.0
H152 H 0.23623 0.78164 0.74807 0.0
H153 H 0.32009 0.74695 0.77453 0.0
H154 H 0.39345 0.89886 0.73909 0.0
H155 H 0.30943 0.93308 0.7138 0.0
H156 H 0.94153 0.78224 0.58765 0.0
H157 H 0.90391 0.71342 0.53842 0.0
H158 H 0.80386 0.66096 0.6533 0.0
H159 H 0.84087 0.73129 0.70193 0.0
H160 H 0.98824 0.93849 0.24136 0.0
C161 C 0.99813 0.98044 0.24614 0.0
H162 H 0.06761 0.96006 0.27976 0.0
H163 H 0.06862 0.21691 0.20736 0.0
H164 H 0.06325 0.18157 1.12877 0.0
H165 H 0.0652 0.08352 1.11519 0.0
H166 H 0.06751 1.0211 1.18071 0.0
C167 C 0.04344 0.99237 0.2668 0.0
C168 C 0.06081 0.04832 0.2736 0.0
C169 C 0.06647 0.08296 0.23444 0.0
C170 C 0.07046 0.13862 0.24155 0.0
C171 C 0.06775 0.17383 0.20292 0.0
C172 C 0.06494 0.15397 1.15785 0.0
C173 C 0.06587 0.09893 1.15034 0.0
C174 C 0.06694 0.06357 1.18812 0.0
H175 H 0.18084 0.24989 0.27002 0.0
C176 C 0.16056 0.21166 0.26828 0.0
H177 H 0.09789 0.24102 0.30925 0.0
H178 H 0.04804 0.99409 0.35658 0.0
H179 H 0.06716 1.02886 0.4335 0.0
H180 H 0.09159 0.12391 0.44366 0.0
H181 H 0.09789 0.18422 0.37714 0.0
C182 C 0.11334 0.2075 0.28938 0.0
C183 C 0.0825 0.15771 0.28628 0.0
C184 C 0.07867 0.12351 0.32548 0.0
C185 C 0.06594 0.06873 0.3193 0.0
C186 C 0.05988 0.03558 0.35916 0.0
C187 C 0.0702 0.05519 0.40347 0.0
C188 C 0.08426 0.10857 0.40925 0.0
C189 C 0.08805 0.1427 0.37083 0.0
H190 H 0.09514 0.97177 0.62336 0.0
C191 C 0.08354 0.97907 0.65919 0.0
H192 H 0.097 1.02067 0.72059 0.0
H193 H 0.3128 0.12173 0.70696 0.0
H194 H 0.32057 0.06404 0.77634 0.0
H195 H 0.25212 0.99655 0.7952 0.0
H196 H 0.17582 0.98658 0.74595 0.0
C197 C 0.10831 1.01565 0.68416 0.0
C198 C 0.1554 0.04474 0.6661 0.0
C199 C 0.20026 0.04752 0.69499 0.0
C200 C 0.24022 0.08531 0.6843 0.0
C201 C 0.2829 0.09169 0.71422 0.0
C202 C 0.28739 0.05929 0.75368 0.0
C203 C 0.24869 1.02142 0.76437 0.0
C204 C 0.20521 1.01586 0.73574 0.0
H205 H 0.16405 0.15527 0.70973 0.0
C206 C 0.18192 0.18706 0.68878 0.0
H207 H 0.2405 0.20909 0.63906 0.0
H208 H 0.07817 0.05115 0.59723 0.0
H209 H 0.08898 0.09212 0.52141 0.0
H210 H 0.16693 0.14715 0.50211 0.0
H211 H 0.23512 0.16067 0.56048 0.0
C212 C 0.22423 0.17748 0.66121 0.0
C213 C 0.23297 0.12141 0.64748 0.0
C214 C 0.19942 0.10673 0.61161 0.0
C215 C 0.15639 0.07246 0.62225 0.0
C216 C 0.11506 0.07065 0.58985 0.0
C217 C 0.11988 0.09593 0.54645 0.0
C218 C 0.16378 0.12698 0.53554 0.0
C219 C 0.20253 0.13398 0.56852 0.0
H220 H 0.71893 0.09842 0.22083 0.0
C221 C 0.72152 0.05727 0.20887 0.0
H222 H 0.68138 0.99016 1.18256 0.0
H223 H 0.4815 0.12047 0.2804 0.0
H224 H 0.5271 0.11046 0.35331 0.0
H225 H 0.61641 0.07264 0.35513 0.0
H226 H 0.6611 0.0457 0.28404 0.0
C227 C 0.67793 0.03095 1.19536 0.0
C228 C 0.62404 0.05485 1.19509 0.0
C229 C 0.59765 0.06866 0.23734 0.0
C230 C 0.54513 0.08846 0.23653 0.0
C231 C 0.52075 0.10409 0.279 0.0
C232 C 0.5465 0.09859 0.32117 0.0
C233 C 0.59684 0.07743 0.32218 0.0
C234 C 0.62223 0.06244 0.28094 0.0
H235 H 0.41962 0.05582 0.21835 0.0
C236 C 0.42046 0.09714 0.20622 0.0
H237 H 0.46648 0.16093 1.17898 0.0
H238 H 0.66195 0.03126 1.10777 0.0
H239 H 0.61431 0.03677 1.03546 0.0
H240 H 0.52222 0.06718 1.03479 0.0
H241 H 0.47724 0.09264 1.10651 0.0
C242 C 0.46614 0.11985 1.1918 0.0
C243 C 0.51821 0.09255 1.19373 0.0
C244 C 0.54391 0.07709 1.1518 0.0
C245 C 0.5968 0.05857 1.15239 0.0
C246 C 0.62157 0.04458 1.10961 0.0
C247 C 0.59475 0.04778 1.06777 0.0
C248 C 0.54294 0.06503 1.06737 0.0
C249 C 0.51766 0.07968 1.10875 0.0
H250 H 0.97127 0.42398 0.75839 0.0
C251 C 0.991 0.40839 0.72752 0.0
H252 H 0.02647 0.4255 0.66294 0.0
H253 H 0.98046 0.66034 0.61385 0.0
H254 H 0.94175 0.61215 0.54982 0.0
H255 H 0.92868 0.51445 0.55406 0.0
H256 H 0.95635 0.4637 0.62158 0.0
C257 C 1.00927 0.44243 0.69436 0.0
C258 C 1.00733 0.50267 0.69746 0.0
C259 C 0.98736 0.53265 0.65937 0.0
C260 C 0.99276 0.58967 0.65776 0.0
C261 C 0.9759 0.61748 0.61761 0.0
C262 C 0.95364 0.59031 0.58053 0.0
C263 C 0.94656 0.5352 0.58281 0.0
C264 C 0.96292 0.50655 0.62171 0.0
H265 H 0.1081 0.66642 0.70395 0.0
C266 C 0.07731 0.6952 0.69678 0.0
H267 H 0.99706 0.70407 0.6821 0.0
H268 H 0.05792 0.46019 0.77375 0.0
H269 H 0.08912 0.50871 0.84009 0.0
H270 H 0.08215 0.60718 0.8436 0.0
H271 H 0.0463 0.65759 0.77914 0.0
C272 C 0.02814 0.67662 0.69108 0.0
C273 C 1.01624 0.6174 0.69514 0.0
C274 C 0.03136 0.58787 0.73527 0.0
C275 C 0.03009 0.53063 0.7353 0.0
C276 C 0.05331 0.50309 0.77303 0.0
C277 C 0.07215 0.53062 0.81139 0.0
C278 C 0.06859 0.58604 0.81323 0.0
C279 C 0.04847 0.6145 0.77575 0.0
H280 H 0.0861 0.65056 0.59752 0.0
C281 C 0.09659 0.6161 0.57645 0.0
H282 H 0.08631 0.66055 0.51495 0.0
H283 H 0.25845 0.46686 0.46451 0.0
H284 H 0.3182 0.51939 0.51066 0.0
H285 H 0.28837 0.60211 0.54953 0.0
H286 H 0.1982 0.63208 0.54308 0.0
C287 C 0.09859 0.62257 0.52982 0.0
C288 C 0.11914 0.58057 0.49775 0.0
C289 C 0.17273 0.56556 0.49936 0.0
C290 C 0.19046 0.51941 0.47512 0.0
C291 C 0.24326 0.50292 0.48044 0.0
C292 C 0.27797 0.5325 0.50716 0.0
C293 C 0.26114 0.57894 0.52918 0.0
C294 C 0.20921 0.59551 0.52541 0.0
H295 H 0.22 0.48971 0.37498 0.0
C296 C 0.20804 0.44912 0.38449 0.0
H297 H 0.16089 0.40362 0.43213 0.0
H298 H 1.01502 0.60111 0.48485 0.0
H299 H 0.955 0.54926 0.43802 0.0
H300 H 0.98604 0.4702 0.39431 0.0
H301 H 0.07738 0.44249 0.39724 0.0
C302 C 0.17409 0.44287 0.42049 0.0
C303 C 0.15516 0.49019 0.44707 0.0
C304 C 0.10198 0.50631 0.4442 0.0
C305 C 0.08406 0.55193 0.46923 0.0
C306 C 0.03059 0.56677 0.46645 0.0
C307 C 0.99577 0.53739 0.43967 0.0
C308 C 1.01328 0.49289 0.41505 0.0
C309 C 0.06577 0.47743 0.41703 0.0
H310 H 0.72967 0.16754 0.70116 0.0
C311 C 0.7464 0.1773 0.73461 0.0
H312 H 0.67178 0.19134 0.76432 0.0
H313 H 0.79358 0.10965 0.95094 0.0
H314 H 0.77678 1.02156 0.91884 0.0
H315 H 0.73911 1.01204 0.84063 0.0
H316 H 0.71749 0.09051 0.79447 0.0
C317 C 0.71371 0.18955 0.77033 0.0
C318 C 0.7323 0.19535 0.81897 0.0
C319 C 0.74498 0.14904 0.84522 0.0
C320 C 0.76787 0.15445 0.88969 0.0
C321 C 0.77821 0.10765 0.91608 0.0
C322 C 0.7682 0.0569 0.89828 0.0
C323 C 0.74698 0.05155 0.85429 0.0
C324 C 0.73504 0.09693 0.82805 0.0
H325 H 0.74909 0.23371 0.99278 0.0
C326 C 0.79009 0.22163 0.99128 0.0
H327 H 0.85289 0.19908 0.9463 0.0
H328 H 0.70409 0.29152 0.78111 0.0
H329 H 0.72082 0.37975 0.81349 0.0
H330 H 0.76587 0.38926 0.88846 0.0
H331 H 0.79363 0.31075 0.93199 0.0
C332 C 0.81195 0.21045 0.94955 0.0
C333 C 0.77985 0.20603 0.90702 0.0
C334 C 0.76439 0.25235 0.88205 0.0
C335 C 0.7394 0.24691 0.83836 0.0
C336 C 0.7236 0.29363 0.81427 0.0
C337 C 0.73301 0.34437 0.83243 0.0
C338 C 0.75837 0.34973 0.87467 0.0
C339 C 0.77407 0.30438 0.89931 0.0
H340 H 0.84565 0.64228 0.5244 0.0
C341 C 0.82625 0.64442 0.5584 0.0
H342 H 0.75625 0.62666 0.59595 0.0
H343 H 0.66103 0.71862 0.41736 0.0
H344 H 0.60065 0.74934 0.47788 0.0
H345 H 0.60599 0.71401 0.55821 0.0
H346 H 0.67257 0.64783 0.57839 0.0
C347 C 0.77798 0.62247 0.56345 0.0
C348 C 0.74891 0.6094 0.52032 0.0
C349 C 0.70707 0.64364 0.50853 0.0
C350 C 0.70379 0.66345 0.46218 0.0
C351 C 0.66533 0.70228 0.45195 0.0
C352 C 0.63029 0.72001 0.48638 0.0
C353 C 0.63329 0.70011 0.53165 0.0
C354 C 0.67156 0.66256 0.54288 0.0
H355 H 0.7037 0.6942 0.3486 0.0
C356 C 0.74117 0.70982 0.36005 0.0
H357 H 0.80501 0.69963 0.40452 0.0
H358 H 0.8133 0.52409 0.52979 0.0
H359 H 0.8659 0.48263 0.46724 0.0
H360 H 0.86048 0.51625 0.38625 0.0
H361 H 0.8024 0.59134 0.36718 0.0
C362 C 0.76516 0.68743 0.39651 0.0
C363 C 0.7416 0.64681 0.4285 0.0
C364 C 0.77228 0.60105 0.438 0.0
C365 C 0.77539 0.58165 0.4843 0.0
C366 C 0.80966 0.53903 0.49447 0.0
C367 C 0.83975 0.5154 0.45912 0.0
C368 C 0.83674 0.53441 0.41348 0.0
C369 C 0.80365 0.57719 0.4029 0.0
H370 H 0.39503 0.77489 0.81811 0.0
C371 C 0.40667 0.80483 0.7922 0.0
H372 H 0.46135 0.86479 0.77661 0.0
H373 H 0.35369 0.98637 0.93997 0.0
H374 H 0.36063 0.05264 0.87839 0.0
H375 H 0.40978 0.03328 0.80568 0.0
H376 H 0.4507 0.94712 0.79378 0.0
C377 C 0.44496 0.8393 0.80378 0.0
C378 C 0.44405 0.85967 0.85264 0.0
C379 C 0.42553 0.91246 0.86086 0.0
C380 C 0.40005 0.92471 0.90392 0.0
C381 C 0.37574 0.97548 0.909 0.0
C382 C 0.37909 1.01394 0.87372 0.0
C383 C 0.40643 1.00295 0.83269 0.0
C384 C 0.42927 0.95288 0.82609 0.0
H385 H 0.41581 0.95201 1.00923 0.0
C386 C 0.37854 0.93116 1.01429 0.0
H387 H 0.32772 0.87336 0.98498 0.0
H388 H 0.49209 0.7627 0.85244 0.0
H389 H 0.4943 0.69867 0.91711 0.0
H390 H 0.45232 0.72018 0.99287 0.0
H391 H 0.40818 0.80561 1.00468 0.0
C392 C 0.36464 0.89492 0.98233 0.0
C393 C 0.39752 0.88552 0.93995 0.0
C394 C 0.42357 0.83589 0.93409 0.0
C395 C 0.44729 0.82318 0.89043 0.0
C396 C 0.47283 0.77335 0.885 0.0
C397 C 0.47453 0.73667 0.92176 0.0
C398 C 0.4509 0.74881 0.96444 0.0
C399 C 0.42562 0.79782 0.97074 0.0
H400 H 0.9343 1.02008 1.06174 0.0
C401 C 0.90784 0.98944 1.0755 0.0
H402 H 0.87092 0.916 1.06305 0.0
H403 H 0.99196 0.80447 0.90204 0.0
H404 H 0.99702 0.74037 0.96539 0.0
H405 H 0.97032 0.76521 1.04529 0.0
H406 H 0.93737 0.85388 1.06233 0.0
C407 C 0.89714 0.94641 1.04852 0.0
C408 C 0.92175 0.93578 1.00034 0.0
C409 C 0.94353 0.88424 0.99062 0.0
C410 C 0.96129 0.87036 0.94446 0.0
C411 C 0.97958 0.81768 0.93627 0.0
C412 C 0.98255 0.78034 0.97235 0.0
C413 C 0.96735 0.79428 1.01731 0.0
C414 C 0.94809 0.84539 1.02653 0.0
H415 H 0.05352 0.88243 0.86524 0.0
C416 C 0.02131 0.88138 0.84091 0.0
H417 H 0.94026 0.8945 0.83282 0.0
H418 H 0.87917 0.03748 1.0013 0.0
H419 H 0.88711 0.10442 0.94061 0.0
H420 H 0.9248 0.08236 0.8638 0.0
H421 H 0.95787 0.99327 0.84781 0.0
C422 C 0.97229 0.89277 0.8573 0.0
C423 C 0.95978 0.90844 0.90749 0.0
C424 C 0.94108 0.96083 0.91756 0.0
C425 C 0.92081 0.97418 0.96312 0.0
C426 C 0.899 1.02583 0.9695 0.0
C427 C 0.90185 0.06451 0.93434 0.0
C428 C 0.92322 0.05213 0.89102 0.0
C429 C 0.94196 1.00081 0.88234 0.0
H430 H 0.22324 0.10757 0.38885 0.0
C431 C 0.23395 0.07878 0.36214 0.0
H432 H 0.23877 0.99776 0.34348 0.0
H433 H 0.10339 0.85297 0.47022 0.0
H434 H 0.07345 0.83284 0.39324 0.0
H435 H 0.10074 0.8881 0.32592 0.0
H436 H 0.15732 0.96501 0.33521 0.0
C437 C 0.22745 1.02508 0.37116 0.0
C438 C 0.2037 0.99845 0.41527 0.0
C439 C 0.16606 0.95611 0.41075 0.0
C440 C 0.14787 0.92517 0.45053 0.0
C441 C 0.11524 0.8802 0.44271 0.0
C442 C 0.09844 0.86742 0.39828 0.0
C443 C 0.11401 0.89845 0.36032 0.0
C444 C 0.14716 0.94224 0.36623 0.0
H445 H 0.06677 0.89812 0.53308 0.0
C446 C 0.10035 0.88818 0.55424 0.0
H447 H 0.18177 0.89163 0.56168 0.0
H448 H 0.28563 0.06384 0.4378 0.0
H449 H 0.32132 0.0782 0.51388 0.0
H450 H 0.28418 0.03205 0.58295 0.0
H451 H 0.20992 0.97275 0.57672 0.0
C452 C 0.14969 0.90301 0.53928 0.0
C453 C 0.16489 0.9374 0.49633 0.0
C454 C 0.2037 0.9787 0.50065 0.0
C455 C 0.2239 1.00771 0.46053 0.0
C456 C 0.26672 0.04314 0.46659 0.0
C457 C 0.2883 0.05123 0.51019 0.0
C458 C 0.26755 1.02505 0.54904 0.0
C459 C 0.22508 0.99038 0.54475 0.0
H460 H 0.16096 0.32846 0.8563 0.0
C461 C 0.14524 0.29068 0.84406 0.0
H462 H 0.13312 0.20884 0.85824 0.0
H463 H 0.31743 0.23893 1.01659 0.0
H464 H 0.37325 0.27721 0.95578 0.0
H465 H 0.33789 0.29908 0.8786 0.0
H466 H 0.24644 0.2833 0.8616 0.0
C467 C 0.14967 0.24593 0.87127 0.0
C468 C 0.17097 0.24282 0.9207 0.0
C469 C 0.22472 0.25286 0.93091 0.0
C470 C 0.24561 0.23939 0.9759 0.0
C471 C 0.29952 0.24866 0.98375 0.0
C472 C 0.33207 0.27042 0.94904 0.0
C473 C 0.31213 0.28279 0.90555 0.0
C474 C 0.25932 0.27385 0.89632 0.0
H475 H 0.25543 0.26236 1.08968 0.0
C476 C 0.25495 0.21891 1.09207 0.0
H477 H 0.23348 0.14725 1.05892 0.0
H478 H 0.06588 0.22274 0.91673 0.0
H479 H 1.01122 0.17993 0.9759 0.0
H480 H 0.04773 0.15255 1.05099 0.0
H481 H 0.13934 0.16936 1.06862 0.0
C482 C 0.23663 0.19052 1.05525 0.0
C483 C 0.21346 0.21466 1.01105 0.0
C484 C 0.15958 0.20562 1.00101 0.0
C485 C 0.13847 0.22028 0.95666 0.0
C486 C 0.08437 0.21113 0.94891 0.0
C487 C 0.05236 0.18693 0.98272 0.0
C488 C 0.07299 0.17169 1.02517 0.0
C489 C 0.1257 0.18124 1.03461 0.0
H490 H 0.87297 0.05226 0.38995 0.0
C491 C 0.89482 0.07307 0.36254 0.0
H492 H 0.9525 0.1301 0.34519 0.0
H493 H 0.96924 0.2907 0.50924 0.0
H494 H 0.94715 0.34683 0.44394 0.0
H495 H 0.92237 0.30743 0.36901 0.0
H496 H 0.91886 0.21166 0.35908 0.0
C497 C 0.93107 0.1115 0.37409 0.0
C498 C 0.94331 0.13419 0.42276 0.0
C499 C 0.94652 0.19106 0.42893 0.0
C500 C 0.96254 0.21433 0.47248 0.0
C501 C 0.96114 0.27081 0.47691 0.0
C502 C 0.94752 0.30372 0.43975 0.0
C503 C 0.93347 0.28153 0.39758 0.0
C504 C 0.93225 0.22615 0.39224 0.0
H505 H 0.0506 0.26167 0.53847 0.0
C506 C 0.0296 0.24318 0.56761 0.0
H507 H 0.97181 0.18784 0.58892 0.0
H508 H 0.94964 1.02482 0.42503 0.0
H509 H 0.96953 0.9687 0.49094 0.0
H510 H 0.99173 1.00807 0.56652 0.0
H511 H 0.99571 0.10384 0.57633 0.0
C512 C 0.99227 0.20479 0.55877 0.0
C513 C 0.97712 0.18142 0.51096 0.0
C514 C 0.97221 0.12454 0.50529 0.0
C515 C 0.95677 0.10124 0.46156 0.0
C516 C 0.95713 0.04474 0.45747 0.0
C517 C 0.96938 1.01182 0.49503 0.0
C518 C 0.98206 0.03401 0.53753 0.0
C519 C 0.98376 0.08942 0.54272 0.0
loop_
_geom_bond_atom_site_label_1
_geom_bond_atom_site_label_2
_geom_bond_distance
_geom_bond_site_symmetry_2
_ccdc_geom_bond_type
La0 C2 2.928 . S
La0 O20 2.521 . S
La0 O21 2.628 . S
La0 O22 2.554 . S
La0 O23 2.757 1_554 S
La0 O24 2.470 . S
La0 O29 2.482 . S
La0 O31 2.503 1_554 S
La1 C11 2.928 1_545 S
La1 O23 2.482 . S
La1 O25 2.503 1_556 S
La1 O26 2.521 1_545 S
La1 O27 2.628 . S
La1 O28 2.554 . S
La1 O29 2.757 1_556 S
La1 O30 2.470 . S
C2 La0 2.928 . S
C2 C3 1.503 . S
C2 O20 1.261 . S
C2 O21 1.243 . S
C3 C2 1.503 . S
C3 C4 1.394 . S
C3 C8 1.373 . S
C4 C3 1.394 . S
C4 C5 1.380 . S
C4 H32 0.930 . S
C5 C4 1.380 . S
C5 C6 1.376 . S
C5 H33 0.930 . S
C6 C5 1.376 . S
C6 C7 1.370 . S
C7 C6 1.370 . S
C7 C8 1.396 . S
C7 H34 0.929 . S
C8 C3 1.373 . S
C8 C7 1.396 . S
C8 H35 0.929 . S
C9 O22 1.240 . S
C9 O23 1.289 1_554 S
C10 O24 1.258 . S
C10 O25 1.256 . S
C11 La1 2.928 1_565 S
C11 C12 1.503 . S
C11 O26 1.261 . S
C11 O27 1.243 1_565 S
C12 C11 1.503 . S
C12 C13 1.394 . S
C12 C17 1.373 . S
C13 C12 1.394 . S
C13 C14 1.380 . S
C13 H36 0.930 . S
C14 C13 1.380 . S
C14 C15 1.376 . S
C14 H37 0.930 . S
C15 C14 1.376 . S
C15 C16 1.370 . S
C16 C15 1.370 . S
C16 C17 1.396 . S
C16 H38 0.929 . S
C17 C12 1.373 . S
C17 C16 1.396 . S
C17 H39 0.929 . S
C18 O28 1.240 . S
C18 O29 1.289 1_556 S
C19 O30 1.258 . S
C19 O31 1.256 . S
O20 La0 2.521 . S
O20 C2 1.261 . S
O21 La0 2.628 . S
O21 C2 1.243 . S
O22 La0 2.554 . S
O22 C9 1.240 . S
O23 La0 2.757 1_556 S
O23 La1 2.482 . S
O23 C9 1.289 1_556 S
O24 La0 2.470 . S
O24 C10 1.258 . S
O25 La1 2.503 1_554 S
O25 C10 1.256 . S
O26 La1 2.521 1_565 S
O26 C11 1.261 . S
O27 La1 2.628 . S
O27 C11 1.243 1_545 S
O28 La1 2.554 . S
O28 C18 1.240 . S
O29 La0 2.482 . S
O29 La1 2.757 1_554 S
O29 C18 1.289 1_554 S
O30 La1 2.470 . S
O30 C19 1.258 . S
O31 La0 2.503 1_556 S
O31 C19 1.256 . S
H32 C4 0.930 . S
H33 C5 0.930 . S
H34 C7 0.929 . S
H35 C8 0.929 . S
H36 C13 0.930 . S
H37 C14 0.930 . S
H38 C16 0.929 . S
H39 C17 0.929 . S
La40 C42 2.928 . S
La40 O60 2.521 . S
La40 O61 2.628 . S
La40 O62 2.554 . S
La40 O63 2.757 1_655 S
La40 O64 2.470 1_655 S
La40 O69 2.482 . S
La40 O71 2.503 . S
La41 C51 2.928 . S
La41 O63 2.482 . S
La41 O65 2.503 . S
La41 O66 2.521 . S
La41 O67 2.628 . S
La41 O68 2.554 . S
La41 O69 2.757 1_455 S
La41 O70 2.470 1_455 S
C42 La40 2.928 . S
C42 C43 1.503 . S
C42 O60 1.261 . S
C42 O61 1.243 . S
C43 C42 1.503 . S
C43 C44 1.394 . S
C43 C48 1.373 . S
C44 C43 1.394 . S
C44 C45 1.380 . S
C44 H72 0.930 . S
C45 C44 1.380 . S
C45 C46 1.376 . S
C45 H73 0.930 . S
C46 C45 1.376 . S
C46 C47 1.370 . S
C47 C46 1.370 . S
C47 C48 1.396 . S
C47 H74 0.929 . S
C48 C43 1.373 . S
C48 C47 1.396 . S
C48 H75 0.929 . S
C49 O62 1.240 . S
C49 O63 1.289 1_655 S
C50 O64 1.258 . S
C50 O65 1.256 . S
C51 La41 2.928 . S
C51 C52 1.503 . S
C51 O66 1.261 . S
C51 O67 1.243 . S
C52 C51 1.503 . S
C52 C53 1.394 . S
C52 C57 1.373 . S
C53 C52 1.394 . S
C53 C54 1.380 . S
C53 H76 0.930 . S
C54 C53 1.380 . S
C54 C55 1.376 . S
C54 H77 0.930 . S
C55 C54 1.376 . S
C55 C56 1.370 . S
C56 C55 1.370 . S
C56 C57 1.396 . S
C56 H78 0.929 . S
C57 C52 1.373 . S
C57 C56 1.396 . S
C57 H79 0.929 . S
C58 O68 1.240 . S
C58 O69 1.289 1_455 S
C59 O70 1.258 . S
C59 O71 1.256 . S
O60 La40 2.521 . S
O60 C42 1.261 . S
O61 La40 2.628 . S
O61 C42 1.243 . S
O62 La40 2.554 . S
O62 C49 1.240 . S
O63 La40 2.757 1_455 S
O63 La41 2.482 . S
O63 C49 1.289 1_455 S
O64 La40 2.470 1_455 S
O64 C50 1.258 . S
O65 La41 2.503 . S
O65 C50 1.256 . S
O66 La41 2.521 . S
O66 C51 1.261 . S
O67 La41 2.628 . S
O67 C51 1.243 . S
O68 La41 2.554 . S
O68 C58 1.240 . S
O69 La40 2.482 . S
O69 La41 2.757 1_655 S
O69 C58 1.289 1_655 S
O70 La41 2.470 1_655 S
O70 C59 1.258 . S
O71 La40 2.503 . S
O71 C59 1.256 . S
H72 C44 0.930 . S
H73 C45 0.930 . S
H74 C47 0.929 . S
H75 C48 0.929 . S
H76 C53 0.930 . S
H77 C54 0.930 . S
H78 C56 0.929 . S
H79 C57 0.929 . S
La80 C82 2.928 . S
La80 O100 2.521 . S
La80 O101 2.628 . S
La80 O102 2.554 . S
La80 O103 2.757 1_564 S
La80 O104 2.470 1_565 S
La80 O109 2.482 . S
La80 O111 2.503 1_554 S
La81 C91 2.928 . S
La81 O103 2.482 . S
La81 O105 2.503 1_556 S
La81 O106 2.521 . S
La81 O107 2.628 . S
La81 O108 2.554 . S
La81 O109 2.757 1_546 S
La81 O110 2.470 1_545 S
C82 La80 2.928 . S
C82 C83 1.503 . S
C82 O100 1.261 . S
C82 O101 1.243 . S
C83 C82 1.503 . S
C83 C84 1.394 . S
C83 C88 1.373 . S
C84 C83 1.394 . S
C84 C85 1.380 . S
C84 H112 0.930 . S
C85 C84 1.380 . S
C85 C86 1.376 . S
C85 H113 0.930 . S
C86 C85 1.376 . S
C86 C87 1.370 . S
C87 C86 1.370 . S
C87 C88 1.396 . S
C87 H114 0.929 . S
C88 C83 1.373 . S
C88 C87 1.396 . S
C88 H115 0.929 . S
C89 O102 1.240 . S
C89 O103 1.289 1_564 S
C90 O104 1.258 . S
C90 O105 1.256 . S
C91 La81 2.928 . S
C91 C92 1.503 . S
C91 O106 1.261 . S
C91 O107 1.243 . S
C92 C91 1.503 . S
C92 C93 1.394 . S
C92 C97 1.373 . S
C93 C92 1.394 . S
C93 C94 1.380 . S
C93 H116 0.930 . S
C94 C93 1.380 . S
C94 C95 1.376 . S
C94 H117 0.930 . S
C95 C94 1.376 . S
C95 C96 1.370 . S
C96 C95 1.370 . S
C96 C97 1.396 . S
C96 H118 0.929 . S
C97 C92 1.373 . S
C97 C96 1.396 . S
C97 H119 0.929 . S
C98 O108 1.241 . S
C98 O109 1.289 1_546 S
C99 O110 1.258 . S
C99 O111 1.256 . S
O100 La80 2.521 . S
O100 C82 1.261 . S
O101 La80 2.628 . S
O101 C82 1.243 . S
O102 La80 2.554 . S
O102 C89 1.240 . S
O103 La80 2.757 1_546 S
O103 La81 2.482 . S
O103 C89 1.289 1_546 S
O104 La80 2.470 1_545 S
O104 C90 1.258 . S
O105 La81 2.503 1_554 S
O105 C90 1.256 . S
O106 La81 2.521 . S
O106 C91 1.261 . S
O107 La81 2.628 . S
O107 C91 1.243 . S
O108 La81 2.554 . S
O108 C98 1.241 . S
O109 La80 2.482 . S
O109 La81 2.757 1_564 S
O109 C98 1.289 1_564 S
O110 La81 2.470 1_565 S
O110 C99 1.258 . S
O111 La80 2.503 1_556 S
O111 C99 1.256 . S
H112 C84 0.930 . S
H113 C85 0.930 . S
H114 C87 0.929 . S
H115 C88 0.929 . S
H116 C93 0.930 . S
H117 C94 0.930 . S
H118 C96 0.929 . S
H119 C97 0.929 . S
La120 C122 2.928 . S
La120 O140 2.521 . S
La120 O141 2.628 . S
La120 O142 2.554 . S
La120 O143 2.757 . S
La120 O144 2.470 . S
La120 O149 2.482 . S
La120 O151 2.503 . S
La121 C131 2.928 1_455 S
La121 O143 2.482 . S
La121 O145 2.503 . S
La121 O146 2.521 1_455 S
La121 O147 2.628 . S
La121 O148 2.554 . S
La121 O149 2.757 . S
La121 O150 2.470 . S
C122 La120 2.928 . S
C122 C123 1.503 . S
C122 O140 1.261 . S
C122 O141 1.243 . S
C123 C122 1.503 . S
C123 C124 1.394 . S
C123 C128 1.373 . S
C124 C123 1.394 . S
C124 C125 1.380 . S
C124 H152 0.930 . S
C125 C124 1.380 . S
C125 C126 1.376 . S
C125 H153 0.930 . S
C126 C125 1.376 . S
C126 C127 1.370 . S
C127 C126 1.370 . S
C127 C128 1.396 . S
C127 H154 0.929 . S
C128 C123 1.373 . S
C128 C127 1.396 . S
C128 H155 0.929 . S
C129 O142 1.240 . S
C129 O143 1.289 . S
C130 O144 1.258 . S
C130 O145 1.256 . S
C131 La121 2.928 1_655 S
C131 C132 1.503 . S
C131 O146 1.261 . S
C131 O147 1.243 1_655 S
C132 C131 1.503 . S
C132 C133 1.394 . S
C132 C137 1.373 . S
C133 C132 1.394 . S
C133 C134 1.380 . S
C133 H156 0.930 . S
C134 C133 1.380 . S
C134 C135 1.376 . S
C134 H157 0.930 . S
C135 C134 1.376 . S
C135 C136 1.370 . S
C136 C135 1.370 . S
C136 C137 1.396 . S
C136 H158 0.929 . S
C137 C132 1.373 . S
C137 C136 1.396 . S
C137 H159 0.929 . S
C138 O148 1.240 . S
C138 O149 1.289 . S
C139 O150 1.258 . S
C139 O151 1.256 . S
O140 La120 2.521 . S
O140 C122 1.261 . S
O141 La120 2.628 . S
O141 C122 1.243 . S
O142 La120 2.554 . S
O142 C129 1.240 . S
O143 La120 2.757 . S
O143 La121 2.482 . S
O143 C129 1.289 . S
O144 La120 2.470 . S
O144 C130 1.258 . S
O145 La121 2.503 . S
O145 C130 1.256 . S
O146 La121 2.521 1_655 S
O146 C131 1.261 . S
O147 La121 2.628 . S
O147 C131 1.243 1_455 S
O148 La121 2.554 . S
O148 C138 1.240 . S
O149 La120 2.482 . S
O149 La121 2.757 . S
O149 C138 1.289 . S
O150 La121 2.470 . S
O150 C139 1.258 . S
O151 La120 2.503 . S
O151 C139 1.256 . S
H152 C124 0.930 . S
H153 C125 0.930 . S
H154 C127 0.929 . S
H155 C128 0.929 . S
H156 C133 0.930 . S
H157 C134 0.930 . S
H158 C136 0.929 . S
H159 C137 0.929 . S
H160 C161 0.951 . S
C161 H160 0.951 . S
C161 C167 1.265 1_545 S
H162 C167 0.950 . S
H163 C171 0.949 . S
H164 C172 0.950 . S
H165 C173 0.951 . S
H166 C174 0.951 1_655 S
C167 C161 1.265 1_565 S
C167 H162 0.950 . S
C167 C168 1.478 1_565 S
C168 C167 1.478 1_545 S
C168 C169 1.397 1_654 S
C168 C185 1.394 1_655 S
C169 C168 1.397 1_456 S
C169 C170 1.438 . S
C169 C174 1.429 1_545 S
C170 C169 1.438 . S
C170 C171 1.428 . S
C170 C183 1.394 1_556 S
C171 H163 0.949 . S
C171 C170 1.428 . S
C171 C172 1.345 1_545 S
C172 H164 0.950 . S
C172 C171 1.345 1_565 S
C172 C173 1.424 . S
C173 H165 0.951 . S
C173 C172 1.424 . S
C173 C174 1.347 . S
C174 H166 0.951 1_455 S
C174 C169 1.429 1_565 S
C174 C173 1.347 . S
H175 C176 0.951 . S
C176 H175 0.951 . S
C176 C182 1.265 . S
H177 C182 0.950 . S
H178 C186 0.949 . S
H179 C187 0.950 . S
H180 C188 0.951 . S
H181 C189 0.951 . S
C182 C176 1.265 . S
C182 H177 0.950 . S
C182 C183 1.478 . S
C183 C170 1.394 1_554 S
C183 C182 1.478 . S
C183 C184 1.397 . S
C184 C183 1.397 . S
C184 C185 1.438 . S
C184 C189 1.429 . S
C185 C168 1.394 1_455 S
C185 C184 1.438 . S
C185 C186 1.428 1_455 S
C186 H178 0.949 . S
C186 C185 1.428 1_655 S
C186 C187 1.345 . S
C187 H179 0.950 . S
C187 C186 1.345 . S
C187 C188 1.424 1_655 S
C188 H180 0.951 . S
C188 C187 1.424 1_455 S
C188 C189 1.347 . S
C189 H181 0.951 . S
C189 C184 1.429 . S
C189 C188 1.347 . S
H190 C191 0.951 . S
C191 H190 0.951 . S
C191 C197 1.265 . S
H192 C197 0.950 . S
H193 C201 0.949 . S
H194 C202 0.950 . S
H195 C203 0.950 1_665 S
H196 C204 0.951 . S
C197 C191 1.265 . S
C197 H192 0.950 . S
C197 C198 1.478 . S
C198 C197 1.478 . S
C198 C199 1.397 1_565 S
C198 C215 1.394 1_565 S
C199 C198 1.397 1_545 S
C199 C200 1.438 . S
C199 C204 1.429 1_545 S
C200 C199 1.438 . S
C200 C201 1.428 . S
C200 C213 1.394 . S
C201 H193 0.949 . S
C201 C200 1.428 . S
C201 C202 1.345 1_455 S
C202 H194 0.950 . S
C202 C201 1.345 1_655 S
C202 C203 1.424 1_655 S
C203 H195 0.950 1_445 S
C203 C202 1.424 1_455 S
C203 C204 1.347 1_545 S
C204 H196 0.951 . S
C204 C199 1.429 1_565 S
C204 C203 1.347 1_565 S
H205 C206 0.951 . S
C206 H205 0.951 . S
C206 C212 1.265 1_655 S
H207 C212 0.950 . S
H208 C216 0.949 . S
H209 C217 0.950 1_565 S
H210 C218 0.951 . S
H211 C219 0.951 . S
C212 C206 1.265 1_455 S
C212 H207 0.950 . S
C212 C213 1.478 . S
C213 C200 1.394 . S
C213 C212 1.478 . S
C213 C214 1.397 . S
C214 C213 1.397 . S
C214 C215 1.438 . S
C214 C219 1.429 . S
C215 C198 1.394 1_545 S
C215 C214 1.438 . S
C215 C216 1.428 1_545 S
C216 H208 0.949 . S
C216 C215 1.428 1_565 S
C216 C217 1.345 1_565 S
C217 H209 0.950 1_545 S
C217 C216 1.345 1_545 S
C217 C218 1.424 . S
C218 H210 0.951 . S
C218 C217 1.424 . S
C218 C219 1.347 . S
C219 H211 0.951 . S
C219 C214 1.429 . S
C219 C218 1.347 . S
H220 C221 0.951 . S
C221 H220 0.951 . S
C221 C227 1.265 1_565 S
H222 C227 0.950 . S
H223 C231 0.949 . S
H224 C232 0.950 . S
H225 C233 0.951 . S
H226 C234 0.951 . S
C227 C221 1.265 1_545 S
C227 H222 0.950 . S
C227 C228 1.478 . S
C228 C227 1.478 . S
C228 C229 1.397 . S
C228 C245 1.394 1_556 S
C229 C228 1.397 . S
C229 C230 1.438 . S
C229 C234 1.429 . S
C230 C229 1.438 . S
C230 C231 1.428 . S
C230 C243 1.394 . S
C231 H223 0.949 . S
C231 C230 1.428 . S
C231 C232 1.345 . S
C232 H224 0.950 . S
C232 C231 1.345 . S
C232 C233 1.424 . S
C233 H225 0.951 . S
C233 C232 1.424 . S
C233 C234 1.347 . S
C234 H226 0.951 . S
C234 C229 1.429 . S
C234 C233 1.347 . S
H235 C236 0.951 . S
C236 H235 0.951 . S
C236 C242 1.265 . S
H237 C242 0.946 1_554 S
H238 C246 0.948 1_565 S
H239 C247 0.950 . S
H240 C248 0.951 . S
H241 C249 0.951 . S
C242 C236 1.265 . S
C242 H237 0.946 1_556 S
C242 C243 1.478 . S
C243 C230 1.394 . S
C243 C242 1.478 . S
C243 C244 1.397 1_556 S
C244 C243 1.397 1_554 S
C244 C245 1.438 . S
C244 C249 1.429 . S
C245 C228 1.394 1_554 S
C245 C244 1.438 . S
C245 C246 1.432 . S
C246 H238 0.948 1_545 S
C246 C245 1.432 . S
C246 C247 1.342 1_545 S
C247 H239 0.950 . S
C247 C246 1.342 1_565 S
C247 C248 1.424 . S
C248 H240 0.951 . S
C248 C247 1.424 . S
C248 C249 1.347 1_565 S
C249 H241 0.951 . S
C249 C244 1.429 . S
C249 C248 1.347 1_545 S
H250 C251 0.951 . S
C251 H250 0.951 . S
C251 C257 1.265 1_655 S
H252 C257 0.950 . S
H253 C261 0.949 . S
H254 C262 0.950 . S
H255 C263 0.951 . S
H256 C264 0.951 . S
C257 C251 1.265 1_455 S
C257 H252 0.950 . S
C257 C258 1.478 . S
C258 C257 1.478 . S
C258 C259 1.397 . S
C258 C275 1.394 . S
C259 C258 1.397 . S
C259 C260 1.438 . S
C259 C264 1.429 . S
C260 C259 1.438 . S
C260 C261 1.428 . S
C260 C273 1.394 . S
C261 H253 0.949 . S
C261 C260 1.428 . S
C261 C262 1.345 . S
C262 H254 0.950 . S
C262 C261 1.345 . S
C262 C263 1.424 . S
C263 H255 0.951 . S
C263 C262 1.424 . S
C263 C264 1.347 . S
C264 H256 0.951 . S
C264 C259 1.429 . S
C264 C263 1.347 . S
H265 C266 0.951 . S
C266 H265 0.951 . S
C266 C272 1.265 . S
H267 C272 0.950 . S
H268 C276 0.949 1_655 S
H269 C277 0.950 . S
H270 C278 0.951 . S
H271 C279 0.951 . S
C272 C266 1.265 . S
C272 H267 0.950 . S
C272 C273 1.478 . S
C273 C260 1.394 . S
C273 C272 1.478 . S
C273 C274 1.397 . S
C274 C273 1.397 . S
C274 C275 1.438 . S
C274 C279 1.429 . S
C275 C258 1.394 . S
C275 C274 1.438 . S
C275 C276 1.428 . S
C276 H268 0.949 1_455 S
C276 C275 1.428 . S
C276 C277 1.345 1_455 S
C277 H269 0.950 . S
C277 C276 1.345 1_655 S
C277 C278 1.424 . S
C278 H270 0.951 . S
C278 C277 1.424 . S
C278 C279 1.347 1_655 S
C279 H271 0.951 . S
C279 C274 1.429 . S
C279 C278 1.347 1_455 S
H280 C281 0.951 . S
C281 H280 0.951 . S
C281 C287 1.265 . S
H282 C287 0.950 . S
H283 C291 0.949 . S
H284 C292 0.950 . S
H285 C293 0.951 . S
H286 C294 0.951 . S
C287 C281 1.265 . S
C287 H282 0.950 . S
C287 C288 1.478 . S
C288 C287 1.478 . S
C288 C289 1.397 . S
C288 C305 1.394 . S
C289 C288 1.397 . S
C289 C290 1.438 . S
C289 C294 1.429 . S
C290 C289 1.438 . S
C290 C291 1.428 . S
C290 C303 1.394 . S
C291 H283 0.949 . S
C291 C290 1.428 . S
C291 C292 1.345 . S
C292 H284 0.950 . S
C292 C291 1.345 . S
C292 C293 1.424 . S
C293 H285 0.951 . S
C293 C292 1.424 . S
C293 C294 1.347 . S
C294 H286 0.951 . S
C294 C289 1.429 . S
C294 C293 1.347 . S
H295 C296 0.951 . S
C296 H295 0.951 . S
C296 C302 1.265 . S
H297 C302 0.950 . S
H298 C306 0.949 . S
H299 C307 0.950 . S
H300 C308 0.951 . S
H301 C309 0.951 . S
C302 C296 1.265 . S
C302 H297 0.950 . S
C302 C303 1.478 . S
C303 C290 1.394 . S
C303 C302 1.478 . S
C303 C304 1.397 . S
C304 C303 1.397 . S
C304 C305 1.438 . S
C304 C309 1.429 . S
C305 C288 1.394 . S
C305 C304 1.438 . S
C305 C306 1.428 . S
C306 H298 0.949 . S
C306 C305 1.428 . S
C306 C307 1.345 . S
C307 H299 0.950 . S
C307 C306 1.345 . S
C307 C308 1.424 . S
C308 H300 0.951 . S
C308 C307 1.424 . S
C308 C309 1.347 . S
C309 H301 0.951 . S
C309 C304 1.429 . S
C309 C308 1.347 . S
H310 C311 0.951 . S
C311 H310 0.951 . S
C311 C317 1.265 . S
H312 C317 0.950 . S
H313 C321 0.949 . S
H314 C322 0.950 . S
H315 C323 0.951 . S
H316 C324 0.951 . S
C317 C311 1.265 . S
C317 H312 0.950 . S
C317 C318 1.478 . S
C318 C317 1.478 . S
C318 C319 1.397 . S
C318 C335 1.394 . S
C319 C318 1.397 . S
C319 C320 1.438 . S
C319 C324 1.429 . S
C320 C319 1.438 . S
C320 C321 1.428 . S
C320 C333 1.394 . S
C321 H313 0.949 . S
C321 C320 1.428 . S
C321 C322 1.345 . S
C322 H314 0.950 . S
C322 C321 1.345 . S
C322 C323 1.424 . S
C323 H315 0.951 . S
C323 C322 1.424 . S
C323 C324 1.347 . S
C324 H316 0.951 . S
C324 C319 1.429 . S
C324 C323 1.347 . S
H325 C326 0.951 . S
C326 H325 0.951 . S
C326 C332 1.265 . S
H327 C332 0.950 . S
H328 C336 0.949 . S
H329 C337 0.950 . S
H330 C338 0.951 . S
H331 C339 0.951 . S
C332 C326 1.265 . S
C332 H327 0.950 . S
C332 C333 1.478 . S
C333 C320 1.394 . S
C333 C332 1.478 . S
C333 C334 1.397 . S
C334 C333 1.397 . S
C334 C335 1.438 . S
C334 C339 1.429 . S
C335 C318 1.394 . S
C335 C334 1.438 . S
C335 C336 1.428 . S
C336 H328 0.949 . S
C336 C335 1.428 . S
C336 C337 1.345 . S
C337 H329 0.950 . S
C337 C336 1.345 . S
C337 C338 1.424 . S
C338 H330 0.951 . S
C338 C337 1.424 . S
C338 C339 1.347 . S
C339 H331 0.951 . S
C339 C334 1.429 . S
C339 C338 1.347 . S
H340 C341 0.951 . S
C341 H340 0.951 . S
C341 C347 1.265 . S
H342 C347 0.950 . S
H343 C351 0.949 . S
H344 C352 0.950 . S
H345 C353 0.951 . S
H346 C354 0.951 . S
C347 C341 1.265 . S
C347 H342 0.950 . S
C347 C348 1.478 . S
C348 C347 1.478 . S
C348 C349 1.397 . S
C348 C365 1.394 . S
C349 C348 1.397 . S
C349 C350 1.438 . S
C349 C354 1.429 . S
C350 C349 1.438 . S
C350 C351 1.428 . S
C350 C363 1.394 . S
C351 H343 0.949 . S
C351 C350 1.428 . S
C351 C352 1.345 . S
C352 H344 0.950 . S
C352 C351 1.345 . S
C352 C353 1.424 . S
C353 H345 0.951 . S
C353 C352 1.424 . S
C353 C354 1.347 . S
C354 H346 0.951 . S
C354 C349 1.429 . S
C354 C353 1.347 . S
H355 C356 0.951 . S
C356 H355 0.951 . S
C356 C362 1.265 . S
H357 C362 0.950 . S
H358 C366 0.949 . S
H359 C367 0.950 . S
H360 C368 0.951 . S
H361 C369 0.951 . S
C362 C356 1.265 . S
C362 H357 0.950 . S
C362 C363 1.478 . S
C363 C350 1.394 . S
C363 C362 1.478 . S
C363 C364 1.397 . S
C364 C363 1.397 . S
C364 C365 1.438 . S
C364 C369 1.429 . S
C365 C348 1.394 . S
C365 C364 1.438 . S
C365 C366 1.428 . S
C366 H358 0.949 . S
C366 C365 1.428 . S
C366 C367 1.345 . S
C367 H359 0.950 . S
C367 C366 1.345 . S
C367 C368 1.424 . S
C368 H360 0.951 . S
C368 C367 1.424 . S
C368 C369 1.347 . S
C369 H361 0.951 . S
C369 C364 1.429 . S
C369 C368 1.347 . S
H370 C371 0.951 . S
C371 H370 0.951 . S
C371 C377 1.265 . S
H372 C377 0.950 . S
H373 C381 0.949 . S
H374 C382 0.950 . S
H375 C383 0.951 . S
H376 C384 0.951 . S
C377 C371 1.265 . S
C377 H372 0.950 . S
C377 C378 1.478 . S
C378 C377 1.478 . S
C378 C379 1.397 . S
C378 C395 1.394 . S
C379 C378 1.397 . S
C379 C380 1.438 . S
C379 C384 1.429 . S
C380 C379 1.438 . S
C380 C381 1.428 . S
C380 C393 1.394 . S
C381 H373 0.949 . S
C381 C380 1.428 . S
C381 C382 1.345 1_565 S
C382 H374 0.950 . S
C382 C381 1.345 1_545 S
C382 C383 1.424 1_545 S
C383 H375 0.951 . S
C383 C382 1.424 1_565 S
C383 C384 1.347 . S
C384 H376 0.951 . S
C384 C379 1.429 . S
C384 C383 1.347 . S
H385 C386 0.951 . S
C386 H385 0.951 . S
C386 C392 1.265 . S
H387 C392 0.950 . S
H388 C396 0.949 . S
H389 C397 0.950 . S
H390 C398 0.951 . S
H391 C399 0.951 . S
C392 C386 1.265 . S
C392 H387 0.950 . S
C392 C393 1.478 . S
C393 C380 1.394 . S
C393 C392 1.478 . S
C393 C394 1.397 . S
C394 C393 1.397 . S
C394 C395 1.438 . S
C394 C399 1.429 . S
C395 C378 1.394 . S
C395 C394 1.438 . S
C395 C396 1.428 . S
C396 H388 0.949 . S
C396 C395 1.428 . S
C396 C397 1.345 . S
C397 H389 0.950 . S
C397 C396 1.345 . S
C397 C398 1.424 . S
C398 H390 0.951 . S
C398 C397 1.424 . S
C398 C399 1.347 . S
C399 H391 0.951 . S
C399 C394 1.429 . S
C399 C398 1.347 . S
H400 C401 0.951 . S
C401 H400 0.951 . S
C401 C407 1.265 . S
H402 C407 0.950 . S
H403 C411 0.949 . S
H404 C412 0.950 . S
H405 C413 0.951 . S
H406 C414 0.951 . S
C407 C401 1.265 . S
C407 H402 0.950 . S
C407 C408 1.478 . S
C408 C407 1.478 . S
C408 C409 1.397 . S
C408 C425 1.394 . S
C409 C408 1.397 . S
C409 C410 1.438 . S
C409 C414 1.429 . S
C410 C409 1.438 . S
C410 C411 1.428 . S
C410 C423 1.394 . S
C411 H403 0.949 . S
C411 C410 1.428 . S
C411 C412 1.345 . S
C412 H404 0.950 . S
C412 C411 1.345 . S
C412 C413 1.424 . S
C413 H405 0.951 . S
C413 C412 1.424 . S
C413 C414 1.347 . S
C414 H406 0.951 . S
C414 C409 1.429 . S
C414 C413 1.347 . S
H415 C416 0.963 . S
C416 H415 0.963 . S
C416 C422 1.265 . S
H417 C422 0.950 . S
H418 C426 0.949 . S
H419 C427 0.950 . S
H420 C428 0.951 . S
H421 C429 0.951 . S
C422 C416 1.265 . S
C422 H417 0.950 . S
C422 C423 1.478 . S
C423 C410 1.394 . S
C423 C422 1.478 . S
C423 C424 1.397 . S
C424 C423 1.397 . S
C424 C425 1.438 . S
C424 C429 1.429 . S
C425 C408 1.394 . S
C425 C424 1.438 . S
C425 C426 1.428 . S
C426 H418 0.949 . S
C426 C425 1.428 . S
C426 C427 1.345 1_565 S
C427 H419 0.950 . S
C427 C426 1.345 1_545 S
C427 C428 1.424 . S
C428 H420 0.951 . S
C428 C427 1.424 . S
C428 C429 1.347 1_545 S
C429 H421 0.951 . S
C429 C424 1.429 . S
C429 C428 1.347 1_565 S
H430 C431 0.951 . S
C431 H430 0.951 . S
C431 C437 1.265 . S
H432 C437 0.950 . S
H433 C441 0.949 . S
H434 C442 0.950 . S
H435 C443 0.951 . S
H436 C444 0.951 . S
C437 C431 1.265 . S
C437 H432 0.950 . S
C437 C438 1.478 . S
C438 C437 1.478 . S
C438 C439 1.397 . S
C438 C455 1.394 . S
C439 C438 1.397 . S
C439 C440 1.438 . S
C439 C444 1.429 . S
C440 C439 1.438 . S
C440 C441 1.428 . S
C440 C453 1.394 . S
C441 H433 0.949 . S
C441 C440 1.428 . S
C441 C442 1.345 . S
C442 H434 0.950 . S
C442 C441 1.345 . S
C442 C443 1.424 . S
C443 H435 0.951 . S
C443 C442 1.424 . S
C443 C444 1.347 . S
C444 H436 0.951 . S
C444 C439 1.429 . S
C444 C443 1.347 . S
H445 C446 0.951 . S
C446 H445 0.951 . S
C446 C452 1.265 . S
H447 C452 0.950 . S
H448 C456 0.949 . S
H449 C457 0.950 . S
H450 C458 0.959 . S
H451 C459 0.951 . S
C452 C446 1.265 . S
C452 H447 0.950 . S
C452 C453 1.478 . S
C453 C440 1.394 . S
C453 C452 1.478 . S
C453 C454 1.397 . S
C454 C453 1.397 . S
C454 C455 1.438 . S
C454 C459 1.429 . S
C455 C438 1.394 . S
C455 C454 1.438 . S
C455 C456 1.428 1_565 S
C456 H448 0.949 . S
C456 C455 1.428 1_545 S
C456 C457 1.345 . S
C457 H449 0.950 . S
C457 C456 1.345 . S
C457 C458 1.433 . S
C458 H450 0.959 . S
C458 C457 1.433 . S
C458 C459 1.330 1_545 S
C459 H451 0.951 . S
C459 C454 1.429 . S
C459 C458 1.330 1_565 S
H460 C461 0.951 . S
C461 H460 0.951 . S
C461 C467 1.265 . S
H462 C467 0.950 . S
H463 C471 0.949 . S
H464 C472 0.950 . S
H465 C473 0.951 . S
H466 C474 0.951 . S
C467 C461 1.265 . S
C467 H462 0.950 . S
C467 C468 1.478 . S
C468 C467 1.478 . S
C468 C469 1.397 . S
C468 C485 1.394 . S
C469 C468 1.397 . S
C469 C470 1.438 . S
C469 C474 1.429 . S
C470 C469 1.438 . S
C470 C471 1.428 . S
C470 C483 1.394 . S
C471 H463 0.949 . S
C471 C470 1.428 . S
C471 C472 1.345 . S
C472 H464 0.950 . S
C472 C471 1.345 . S
C472 C473 1.424 . S
C473 H465 0.951 . S
C473 C472 1.424 . S
C473 C474 1.347 . S
C474 H466 0.951 . S
C474 C469 1.429 . S
C474 C473 1.347 . S
H475 C476 0.951 . S
C476 H475 0.951 . S
C476 C482 1.265 . S
H477 C482 0.950 . S
H478 C486 0.949 . S
H479 C487 0.950 . S
H480 C488 0.951 . S
H481 C489 0.951 . S
C482 C476 1.265 . S
C482 H477 0.950 . S
C482 C483 1.478 . S
C483 C470 1.394 . S
C483 C482 1.478 . S
C483 C484 1.397 . S
C484 C483 1.397 . S
C484 C485 1.438 . S
C484 C489 1.429 . S
C485 C468 1.394 . S
C485 C484 1.438 . S
C485 C486 1.428 . S
C486 H478 0.949 . S
C486 C485 1.428 . S
C486 C487 1.345 . S
C487 H479 0.950 . S
C487 C486 1.345 . S
C487 C488 1.424 . S
C488 H480 0.951 . S
C488 C487 1.424 . S
C488 C489 1.347 . S
C489 H481 0.951 . S
C489 C484 1.429 . S
C489 C488 1.347 . S
H490 C491 0.951 . S
C491 H490 0.951 . S
C491 C497 1.265 . S
H492 C497 0.950 . S
H493 C501 0.949 . S
H494 C502 0.950 . S
H495 C503 0.951 . S
H496 C504 0.951 . S
C497 C491 1.265 . S
C497 H492 0.950 . S
C497 C498 1.478 . S
C498 C497 1.478 . S
C498 C499 1.397 . S
C498 C515 1.394 . S
C499 C498 1.397 . S
C499 C500 1.438 . S
C499 C504 1.429 . S
C500 C499 1.438 . S
C500 C501 1.428 . S
C500 C513 1.394 . S
C501 H493 0.949 . S
C501 C500 1.428 . S
C501 C502 1.345 . S
C502 H494 0.950 . S
C502 C501 1.345 . S
C502 C503 1.424 . S
C503 H495 0.951 . S
C503 C502 1.424 . S
C503 C504 1.347 . S
C504 H496 0.951 . S
C504 C499 1.429 . S
C504 C503 1.347 . S
H505 C506 0.951 . S
C506 H505 0.951 . S
C506 C512 1.265 . S
H507 C512 0.950 . S
H508 C516 0.949 . S
H509 C517 0.950 1_565 S
H510 C518 0.951 . S
H511 C519 0.951 . S
C512 C506 1.265 . S
C512 H507 0.950 . S
C512 C513 1.478 . S
C513 C500 1.394 . S
C513 C512 1.478 . S
C513 C514 1.397 . S
C514 C513 1.397 . S
C514 C515 1.438 . S
C514 C519 1.429 . S
C515 C498 1.394 . S
C515 C514 1.438 . S
C515 C516 1.428 . S
C516 H508 0.949 . S
C516 C515 1.428 . S
C516 C517 1.345 . S
C517 H509 0.950 1_545 S
C517 C516 1.345 . S
C517 C518 1.424 . S
C518 H510 0.951 . S
C518 C517 1.424 . S
C518 C519 1.347 . S
C519 H511 0.951 . S
C519 C514 1.429 . S
C519 C518 1.347 . S
C161 C98 0.377 1_554 S
C176 C18 0.393 1_554 S
C191 C138 0.693 . S
C206 C58 0.706 1_655 S
C221 C89 0.832 1_556 S
C236 C9 0.836 1_556 S
C251 C49 0.832 . S
C266 C129 0.837 . S
C281 C55 1.084 . S
C296 C6 1.167 . S
C311 C46 1.077 . S
C326 C95 1.126 . S
C341 C135 1.112 . S
C356 C86 1.168 . S
C371 C126 1.117 . S
C386 C15 1.144 . S
C401 C99 4.553 . S
C416 C130 4.670 1_655 S
C431 C10 4.668 1_565 S
C446 C139 4.529 . S
C461 C50 4.670 . S
C476 C19 4.555 . S
C491 C90 4.669 . S
C506 C59 4.541 . S
