# Generated by pormake.
# Topology sxb, (6)-cn, num edge types: 1
# Building blocks:
#     Node 0, Type 0, BuildingBlock: LEVNOQ01_clean_sbu_1, # of connection points: 6
#     Node 1, Type 0, BuildingBlock: LEVNOQ01_clean_sbu_1, # of connection points: 6
#     Node 2, Type 0, BuildingBlock: LEVNOQ01_clean_sbu_1, # of connection points: 6
#     Node 3, Type 0, BuildingBlock: LEVNOQ01_clean_sbu_1, # of connection points: 6
#     Edge 4, Type (0, 0), BuildingBlock: MIFKUJ_clean_linker_0, # of connection points: 2
#     Edge 5, Type (0, 0), BuildingBlock: MIFKUJ_clean_linker_0, # of connection points: 2
#     Edge 6, Type (0, 0), BuildingBlock: MIFKUJ_clean_linker_0, # of connection points: 2
#     Edge 7, Type (0, 0), BuildingBlock: MIFKUJ_clean_linker_0, # of connection points: 2
#     Edge 8, Type (0, 0), BuildingBlock: MIFKUJ_clean_linker_0, # of connection points: 2
#     Edge 9, Type (0, 0), BuildingBlock: MIFKUJ_clean_linker_0, # of connection points: 2
#     Edge 10, Type (0, 0), BuildingBlock: MIFKUJ_clean_linker_0, # of connection points: 2
#     Edge 11, Type (0, 0), BuildingBlock: MIFKUJ_clean_linker_0, # of connection points: 2
#     Edge 12, Type (0, 0), BuildingBlock: MIFKUJ_clean_linker_0, # of connection points: 2
#     Edge 13, Type (0, 0), BuildingBlock: MIFKUJ_clean_linker_0, # of connection points: 2
#     Edge 14, Type (0, 0), BuildingBlock: MIFKUJ_clean_linker_0, # of connection points: 2
#     Edge 15, Type (0, 0), BuildingBlock: MIFKUJ_clean_linker_0, # of connection points: 2
# Relax obj value: 0.084
# Max RMSD: 0.127
# Mean RMSD: 0.127
data_MOF--net-sxb--node1-LEVNOQ01_clean_sbu_1--edge1-MIFKUJ_clean_linker_0
_symmetry_space_group_name_H-M    P1
_symmetry_Int_Tables_number       1
_symmetry_cell_setting            triclinic
loop_
_symmetry_equiv_pos_as_xyz
'x, y, z'
_cell_length_a     19.21517
_cell_length_b     36.089946
_cell_length_c     40.148713
_cell_angle_alpha  90.080233
_cell_angle_beta   103.29822
_cell_angle_gamma 89.894693
loop_
_atom_site_label
_atom_site_type_symbol
_atom_site_fract_x
_atom_site_fract_y
_atom_site_fract_z
_atom_type_partial_charge
O0 O 0.86879 0.02097 0.96034 0.0
Mg1 Mg 0.97314 0.04034 0.95786 0.0
O2 O 0.91623 0.9764 0.99563 0.0
Mg3 Mg 0.0217 0.00606 0.00564 0.0
O4 O 0.03432 0.99839 0.94717 0.0
O5 O 0.9808 0.04111 0.909 0.0
O6 O 0.12696 0.03785 0.0138 0.0
O7 O 0.0771 0.94716 0.00164 0.0
Mg8 Mg 0.08306 0.97783 0.05558 0.0
O9 O 0.00953 0.0147 0.06398 0.0
O10 O 0.18327 0.99575 0.04899 0.0
O11 O 0.0547 0.92225 0.04728 0.0
O12 O 0.09329 0.98743 0.10523 0.0
C13 C 0.9756 0.09361 0.00023 0.0
C14 C 0.8617 0.99178 0.97692 0.0
C15 C 0.01949 0.01178 0.91624 0.0
C16 C 0.18475 0.02465 0.03151 0.0
C17 C 0.07353 0.91835 0.01949 0.0
C18 C 0.04005 0.0097 0.09612 0.0
O19 O 0.01012 0.09372 0.97717 0.0
O20 O 0.96135 0.06241 0.01145 0.0
O21 O 0.84647 0.96464 0.49633 0.0
Mg22 Mg 0.88311 0.01034 0.47101 0.0
O23 O 0.95717 0.94752 0.51894 0.0
Mg24 Mg 0.00096 0.00629 0.5145 0.0
O25 O 0.97307 0.00344 0.45375 0.0
O26 O 0.86151 0.00123 0.42042 0.0
O27 O 0.04335 0.06563 0.50952 0.0
O28 O 0.10843 0.98137 0.50574 0.0
Mg29 Mg 0.14006 0.0227 0.577 0.0
O30 O 0.03714 0.00729 0.57185 0.0
O31 O 0.13735 0.07526 0.55302 0.0
O32 O 0.18971 0.97988 0.55493 0.0
O33 O 0.10877 0.01536 0.62289 0.0
C34 C 0.85368 0.05665 0.51187 0.0
C35 C 0.89031 0.94082 0.51222 0.0
C36 C 0.92989 0.00041 0.42372 0.0
C37 C 0.09388 0.08606 0.52594 0.0
C38 C 0.16982 0.97155 0.52344 0.0
C39 C 0.04689 0.00619 0.60463 0.0
O40 O 0.86203 0.06574 0.4828 0.0
O41 O 0.89539 0.03169 0.52778 0.0
O42 O 0.35718 0.44839 0.98278 0.0
Mg43 Mg 0.3974 0.49661 0.96428 0.0
O44 O 0.40567 0.48523 0.02402 0.0
Mg45 Mg 0.51061 0.50364 0.00564 0.0
O46 O 0.48597 0.49355 0.94473 0.0
O47 O 0.37234 0.49317 0.91352 0.0
O48 O 0.6167 0.52191 0.98921 0.0
O49 O 0.55313 0.44421 0.01198 0.0
Mg50 Mg 0.62785 0.51522 0.05048 0.0
O51 O 0.5342 0.51383 0.06547 0.0
O52 O 0.6492 0.56494 0.02684 0.0
O53 O 0.66309 0.46213 0.0356 0.0
O54 O 0.64165 0.52261 0.10137 0.0
C55 C 0.40919 0.57437 0.98714 0.0
C56 C 0.3593 0.46045 0.01238 0.0
C57 C 0.44006 0.49246 0.91529 0.0
C58 C 0.6568 0.54957 -0.00022 0.0
C59 C 0.61959 0.43696 0.02184 0.0
C60 C 0.57307 0.51987 0.09603 0.0
O61 O 0.36223 0.55082 0.9738 0.0
O62 O 0.47286 0.56396 -0.00023 0.0
O63 O 0.33492 0.4639 0.48452 0.0
Mg64 Mg 0.34254 0.51568 0.45818 0.0
O65 O 0.44994 0.44917 0.50512 0.0
Mg66 Mg 0.49732 0.50705 0.50472 0.0
O67 O 0.4411 0.51194 0.44925 0.0
O68 O 0.34621 0.51678 0.40644 0.0
O69 O 0.53941 0.56656 0.50317 0.0
O70 O 0.59327 0.48572 0.48176 0.0
Mg71 Mg 0.64993 0.50578 0.55099 0.0
O72 O 0.5525 0.49894 0.56074 0.0
O73 O 0.65447 0.55907 0.52781 0.0
O74 O 0.66537 0.45768 0.52425 0.0
O75 O 0.65201 0.49888 0.60203 0.0
C76 C 0.35461 0.55286 0.51629 0.0
C77 C 0.38345 0.44115 0.49905 0.0
C78 C 0.41457 0.51436 0.41695 0.0
C79 C 0.60321 0.57883 0.51129 0.0
C80 C 0.64711 0.46461 0.49268 0.0
C81 C 0.58373 0.49432 0.59254 0.0
O82 O 0.35062 0.56554 0.48668 0.0
O83 O 0.40184 0.52813 0.52704 0.0
H84 H 0.45344 0.62552 0.03746 0.0
H85 H 0.40841 0.68921 0.03858 0.0
H86 H 0.28081 0.67557 0.93588 0.0
H87 H 0.32331 0.61162 0.93517 0.0
H88 H 0.3518 0.75291 0.95826 0.0
H89 H 0.20348 0.65154 0.9866 0.0
H90 H 0.19586 0.59541 0.02029 0.0
H91 H 0.25581 0.6583 0.11329 0.0
H92 H 0.26796 0.71444 0.08016 0.0
H93 H 0.08437 0.89013 0.95731 0.0
H94 H 0.1457 0.83278 0.94741 0.0
H95 H 0.20097 0.81219 0.05633 0.0
H96 H 0.13575 0.86723 0.06584 0.0
H97 H 0.17032 0.75181 0.02855 0.0
H98 H 0.32017 0.85181 0.0069 0.0
H99 H 0.34223 0.90959 0.97828 0.0
H100 H 0.29273 0.85427 0.88096 0.0
H101 H 0.26934 0.79626 0.90895 0.0
C102 C 0.41679 0.63648 0.01499 0.0
C103 C 0.39026 0.61375 0.98654 0.0
C104 C 0.39177 0.67279 0.01552 0.0
C105 C 0.34144 0.68681 0.98729 0.0
C106 C 0.31995 0.66516 0.95776 0.0
C107 C 0.34333 0.6286 0.95759 0.0
C108 C 0.30078 0.7206 0.99086 0.0
C109 C 0.31188 0.75292 0.97348 0.0
C110 C 0.24975 0.72033 0.01117 0.0
C111 C 0.2379 0.68706 0.03089 0.0
C112 C 0.21611 0.65331 0.01425 0.0
C113 C 0.21117 0.62143 0.03328 0.0
C114 C 0.2254 0.62319 0.06897 0.0
C115 C 0.24487 0.65689 0.08568 0.0
C116 C 0.25126 0.68871 0.06678 0.0
C117 C 0.10886 0.8729 0.97893 0.0
C118 C 0.10521 0.88295 0.01228 0.0
C119 C 0.14453 0.84042 0.97336 0.0
C120 C 0.17947 0.81848 0.00121 0.0
C121 C 0.17448 0.82843 0.03437 0.0
C122 C 0.13708 0.86 0.03979 0.0
C123 C 0.22163 0.78515 0.99647 0.0
C124 C 0.21042 0.75243 0.01344 0.0
C125 C 0.27399 0.78558 0.97662 0.0
C126 C 0.29193 0.81984 0.95997 0.0
C127 C 0.31376 0.85201 0.97938 0.0
C128 C 0.32629 0.88482 0.96326 0.0
C129 C 0.31802 0.88572 0.92777 0.0
C130 C 0.29849 0.85362 0.90841 0.0
C131 C 0.28567 0.82074 0.92439 0.0
H132 H 0.32744 0.91119 0.91531 0.0
H133 H 0.22109 0.59851 0.08364 0.0
H134 H 0.75696 0.41784 0.02233 0.0
H135 H 0.80345 0.35644 0.01382 0.0
H136 H 0.59187 0.31033 0.00033 0.0
H137 H 0.54431 0.37209 0.00835 0.0
H138 H 0.70305 0.27358 0.04977 0.0
H139 H 0.65415 0.31432 0.93345 0.0
H140 H 0.65671 0.35669 0.88563 0.0
H141 H 0.88594 0.3505 0.90846 0.0
H142 H 0.88487 0.30831 0.95652 0.0
H143 H 0.84587 0.09769 0.01622 0.0
H144 H 0.7736 0.15315 0.01731 0.0
H145 H 0.94798 0.22101 0.00132 0.0
H146 H 0.01861 0.16523 -0.00199 0.0
H147 H 0.83525 0.24296 0.96081 0.0
H148 H 0.89039 0.21354 0.08082 0.0
H149 H 0.89661 0.17473 0.1318 0.0
H150 H 0.66803 0.16422 0.10687 0.0
H151 H 0.66044 0.20224 0.05506 0.0
C152 C 0.72014 0.3947 0.01748 0.0
C153 C 0.64702 0.39972 0.01629 0.0
C154 C 0.74673 0.35972 0.01232 0.0
C155 C 0.70092 0.32904 0.00617 0.0
C156 C 0.62785 0.33382 0.00486 0.0
C157 C 0.6009 0.36903 0.00949 0.0
C158 C 0.73116 0.29176 0.00356 0.0
C159 C 0.7308 0.26641 0.02996 0.0
C160 C 0.76872 0.28314 0.97812 0.0
C161 C 0.76943 0.30853 0.94904 0.0
C162 C 0.70517 0.32229 0.92854 0.0
C163 C 0.70634 0.34617 0.90127 0.0
C164 C 0.77145 0.35641 0.8941 0.0
C165 C 0.83553 0.34263 0.91408 0.0
C166 C 0.83464 0.31869 0.94132 0.0
C167 C 0.86923 0.12453 0.01361 0.0
C168 C 0.93789 0.12731 0.00714 0.0
C169 C 0.82784 0.15626 0.01427 0.0
C170 C 0.8553 0.19144 0.00962 0.0
C171 C 0.92527 0.19421 0.00471 0.0
C172 C 0.9659 0.16242 0.00311 0.0
C173 C 0.81036 0.22527 0.00803 0.0
C174 C 0.80719 0.24982 0.98056 0.0
C175 C 0.77093 0.23356 0.03294 0.0
C176 C 0.77502 0.2103 0.06378 0.0
C177 C 0.84148 0.20259 0.08596 0.0
C178 C 0.84519 0.18076 0.11504 0.0
C179 C 0.78269 0.16685 0.12249 0.0
C180 C 0.71632 0.17482 0.10089 0.0
C181 C 0.71229 0.19648 0.07165 0.0
H182 H 0.78563 0.14998 0.14505 0.0
H183 H 0.77223 0.37492 0.873 0.0
H184 H 0.03395 0.1514 0.53739 0.0
H185 H 0.07878 0.21317 0.52764 0.0
H186 H 0.23059 0.16341 0.47669 0.0
H187 H 0.18594 0.10176 0.48666 0.0
H188 H 0.29348 0.2056 0.53194 0.0
H189 H 0.10175 0.21832 0.43245 0.0
H190 H 0.97694 0.21837 0.39894 0.0
H191 H 0.92404 0.3037 0.4636 0.0
H192 H 0.04833 0.30382 0.49782 0.0
H193 H 0.44583 0.3751 0.49097 0.0
H194 H 0.3954 0.31349 0.49502 0.0
H195 H 0.22125 0.36269 0.53116 0.0
H196 H 0.26977 0.42428 0.52539 0.0
H197 H 0.1695 0.31974 0.48126 0.0
H198 H 0.35628 0.30587 0.58267 0.0
H199 H 0.47883 0.30503 0.61882 0.0
H200 H 0.5391 0.22191 0.5541 0.0
H201 H 0.41715 0.22261 0.51727 0.0
C202 C 0.07498 0.15398 0.523 0.0
C203 C 0.10648 0.12235 0.51249 0.0
C204 C 0.10059 0.1891 0.51747 0.0
C205 C 0.15806 0.19274 0.50151 0.0
C206 C 0.18622 0.16109 0.48904 0.0
C207 C 0.16059 0.12605 0.49454 0.0
C208 C 0.19518 0.22864 0.50225 0.0
C209 C 0.26691 0.23054 0.52033 0.0
C210 C 0.15941 0.2612 0.48821 0.0
C211 C 0.08428 0.26076 0.46796 0.0
C212 C 0.06336 0.2368 0.43978 0.0
C213 C -0.00728 0.23688 0.42059 0.0
C214 C 0.94254 0.26094 0.4292 0.0
C215 C 0.96293 0.28502 0.45699 0.0
C216 C 0.03349 0.28505 0.47628 0.0
C217 C 0.39762 0.37253 0.50044 0.0
C218 C 0.36103 0.40417 0.5075 0.0
C219 C 0.36895 0.33736 0.5029 0.0
C220 C 0.3044 0.33341 0.51338 0.0
C221 C 0.27073 0.36505 0.52274 0.0
C222 C 0.29848 0.40017 0.51953 0.0
C223 C 0.26806 0.29699 0.51124 0.0
C224 C 0.19642 0.29492 0.49285 0.0
C225 C 0.30371 0.26432 0.52537 0.0
C226 C 0.37771 0.26463 0.54695 0.0
C227 C 0.39587 0.28774 0.57589 0.0
C228 C 0.46519 0.28721 0.59657 0.0
C229 C 0.51678 0.26353 0.58869 0.0
C230 C 0.49915 0.24031 0.56012 0.0
C231 C 0.42992 0.24075 0.53935 0.0
H232 H 0.57037 0.26311 0.60477 0.0
H233 H 0.88791 0.26098 0.41428 0.0
H234 H 0.95992 0.87426 0.51781 0.0
H235 H 0.90535 0.81282 0.51731 0.0
H236 H 0.70403 0.8636 0.52125 0.0
H237 H 0.75787 0.92496 0.52143 0.0
H238 H 0.73737 0.79779 0.5617 0.0
H239 H 0.73012 0.84337 0.44708 0.0
H240 H 0.78607 0.86824 0.40236 0.0
H241 H 0.91543 0.77033 0.40793 0.0
H242 H 0.86118 0.74512 0.45317 0.0
H243 H 0.52257 0.64136 0.51184 0.0
H244 H 0.56218 0.70554 0.50768 0.0
H245 H 0.75967 0.66548 0.48676 0.0
H246 H 0.71912 0.60173 0.48976 0.0
H247 H 0.72333 0.72791 0.45373 0.0
H248 H 0.74434 0.68296 0.5679 0.0
H249 H 0.70045 0.6557 0.61545 0.0
H250 H 0.56076 0.74886 0.61465 0.0
H251 H 0.60285 0.7764 0.56655 0.0
C252 C 0.90456 0.87225 0.51943 0.0
C253 C 0.86279 0.90426 0.51918 0.0
C254 C 0.87341 0.83723 0.51897 0.0
C255 C 0.80045 0.83386 0.51865 0.0
C256 C 0.76027 0.86572 0.52126 0.0
C257 C 0.79105 0.90068 0.52125 0.0
C258 C 0.76429 0.79757 0.51252 0.0
C259 C 0.73338 0.78266 0.53796 0.0
C260 C 0.76066 0.77772 0.48173 0.0
C261 C 0.79197 0.79248 0.45381 0.0
C262 C 0.77082 0.82722 0.43896 0.0
C263 C 0.80222 0.84138 0.41349 0.0
C264 C 0.85439 0.82092 0.40237 0.0
C265 C 0.87506 0.78618 0.4166 0.0
C266 C 0.84396 0.77193 0.44215 0.0
C267 C 0.57355 0.64644 0.50549 0.0
C268 C 0.61913 0.61688 0.50227 0.0
C269 C 0.59628 0.683 0.50328 0.0
C270 C 0.66483 0.69024 0.49793 0.0
C271 C 0.70706 0.66061 0.49137 0.0
C272 C 0.68434 0.62424 0.49353 0.0
C273 C 0.69633 0.72789 0.50298 0.0
C274 C 0.72655 0.74312 0.47736 0.0
C275 C 0.7008 0.74768 0.53394 0.0
C276 C 0.67613 0.73155 0.5633 0.0
C277 C 0.70389 0.69755 0.57768 0.0
C278 C 0.67934 0.68203 0.60474 0.0
C279 C 0.62768 0.70049 0.618 0.0
C280 C 0.60065 0.73456 0.60428 0.0
C281 C 0.62481 0.75013 0.57709 0.0
H282 H 0.60875 0.68844 0.63895 0.0
H283 H 0.87869 0.83195 0.38268 0.0
H284 H 0.30573 0.02974 0.08111 0.0
H285 H 0.42652 0.02889 0.07119 0.0
H286 H 0.34019 0.04643 0.96335 0.0
H287 H 0.21898 0.04809 0.97322 0.0
H288 H 0.41429 0.96968 0.99481 0.0
H289 H 0.47986 0.10642 0.97653 0.0
H290 H 0.47252 0.17111 0.9958 0.0
H291 H 0.54484 0.13669 0.10044 0.0
H292 H 0.55395 0.072 0.0816 0.0
H293 H 0.73865 0.99787 0.92809 0.0
H294 H 0.61838 0.99873 0.93882 0.0
H295 H 0.70389 0.96397 0.04293 0.0
H296 H 0.82408 0.96188 0.03214 0.0
H297 H 0.63165 0.04831 0.01567 0.0
H298 H 0.59415 0.91589 0.03467 0.0
H299 H 0.59912 0.84989 0.01907 0.0
H300 H 0.47069 0.87288 0.91872 0.0
H301 H 0.46442 0.93901 0.93397 0.0
C302 C 0.31298 0.03524 0.05559 0.0
C303 C 0.25383 0.0384 0.0278 0.0
C304 C 0.38169 0.03473 0.04997 0.0
C305 C 0.39129 0.03705 0.01654 0.0
C306 C 0.33301 0.0446 0.98928 0.0
C307 C 0.26416 0.04575 0.99498 0.0
C308 C 0.45855 0.0238 0.00965 0.0
C309 C 0.46173 0.9869 -0.00104 0.0
C310 C 0.52024 0.04592 0.01638 0.0
C311 C 0.518 0.08472 0.02771 0.0
C312 C 0.49479 0.11285 0.0036 0.0
C313 C 0.49039 0.14945 0.01443 0.0
C314 C 0.50856 0.15804 0.04932 0.0
C315 C 0.53135 0.13006 0.07343 0.0
C316 C 0.53652 0.09349 0.06269 0.0
C317 C 0.73122 0.98884 0.95277 0.0
C318 C 0.79015 0.98042 0.97946 0.0
C319 C 0.66281 0.98931 0.95884 0.0
C320 C 0.65328 0.98182 0.9917 0.0
C321 C 0.71088 0.96966 0.01741 0.0
C322 C 0.77922 0.96842 0.01115 0.0
C323 C 0.5873 0.99424 0.00049 0.0
C324 C 0.58427 0.03103 0.01151 0.0
C325 C 0.5261 0.97172 0.99472 0.0
C326 C 0.5291 0.93222 0.98536 0.0
C327 C 0.56712 0.90681 0.00926 0.0
C328 C 0.56994 0.86941 0.00054 0.0
C329 C 0.53515 0.8572 0.96792 0.0
C330 C 0.49748 0.88238 0.94399 0.0
C331 C 0.494 0.91978 0.9527 0.0
H332 H 0.53741 0.82824 0.96119 0.0
H333 H 0.50483 0.18636 0.05768 0.0
H334 H 0.18963 0.99417 0.46151 0.0
H335 H 0.30842 0.00269 0.45041 0.0
H336 H 0.39914 0.93337 0.53688 0.0
H337 H 0.28087 0.92501 0.54826 0.0
H338 H 0.42372 0.01242 0.54463 0.0
H339 H 0.43886 0.91274 0.46529 0.0
H340 H 0.3969 0.87736 0.41186 0.0
H341 H 0.41239 0.97484 0.35284 0.0
H342 H 0.4538 0.01092 0.40593 0.0
H343 H 0.80114 0.02571 0.56352 0.0
H344 H 0.67541 0.01115 0.55973 0.0
H345 H 0.61437 0.07781 0.46861 0.0
H346 H 0.7394 0.09346 0.47265 0.0
H347 H 0.57028 0.00377 0.45826 0.0
H348 H 0.55857 0.10317 0.53183 0.0
H349 H 0.58617 0.14528 0.58139 0.0
H350 H 0.54616 0.05782 0.64686 0.0
H351 H 0.52203 0.01458 0.5981 0.0
C352 C 0.23415 0.97883 0.47684 0.0
C353 C 0.22666 0.9599 0.50643 0.0
C354 C 0.30222 0.98386 0.47052 0.0
C355 C 0.36261 0.96946 0.49341 0.0
C356 C 0.35316 0.94503 0.51916 0.0
C357 C 0.28545 0.94018 0.52558 0.0
C358 C 0.43284 0.98775 0.49697 0.0
C359 C 0.45677 0.00987 0.52616 0.0
C360 C 0.4728 0.98644 0.47156 0.0
C361 C 0.44863 0.96464 0.43963 0.0
C362 C 0.43272 0.92672 0.44093 0.0
C363 C 0.40923 0.90651 0.41069 0.0
C364 C 0.40172 0.92387 0.37897 0.0
C365 C 0.41813 0.96144 0.37743 0.0
C366 C 0.44174 0.98176 0.40759 0.0
C367 C 0.76088 0.03858 0.5435 0.0
C368 C 0.78063 0.05998 0.51789 0.0
C369 C 0.68898 0.02997 0.5412 0.0
C370 C 0.63596 0.04264 0.51335 0.0
C371 C 0.65472 0.06725 0.48994 0.0
C372 C 0.72632 0.0764 0.49254 0.0
C373 C 0.56281 0.02706 0.50688 0.0
C374 C 0.53775 0.00598 0.47697 0.0
C375 C 0.52061 0.03002 0.53126 0.0
C376 C 0.53969 0.05533 0.56125 0.0
C377 C 0.55749 0.09256 0.55692 0.0
C378 C 0.57249 0.1167 0.58492 0.0
C379 C 0.56882 0.10413 0.61736 0.0
C380 C 0.55009 0.0674 0.62184 0.0
C381 C 0.53604 0.043 0.59403 0.0
H382 H 0.57995 0.12291 0.63896 0.0
H383 H 0.38335 0.9082 0.3556 0.0
H384 H 0.76836 0.59438 0.02934 0.0
H385 H 0.89332 0.57927 0.03439 0.0
H386 H 0.83355 0.4953 0.95646 0.0
H387 H 0.70744 0.5091 0.95246 0.0
H388 H 0.90514 0.46557 0.01367 0.0
H389 H 0.94948 0.57305 0.94804 0.0
H390 H 0.94671 0.63952 0.93331 0.0
H391 H 0.05836 0.66572 0.03607 0.0
H392 H 0.06146 0.59943 0.05138 0.0
H393 H 0.24407 0.41571 0.98872 0.0
H394 H 0.12356 0.42855 0.9947 0.0
H395 H 0.20592 0.50875 0.07371 0.0
H396 H 0.32711 0.49682 0.06703 0.0
H397 H 0.12307 0.54141 0.0226 0.0
H398 H 0.09806 0.4335 0.08525 0.0
H399 H 0.1009 0.36768 0.10175 0.0
H400 H 0.95006 0.3417 0.00806 0.0
H401 H 0.94751 0.40713 0.99046 0.0
C402 C 0.7816 0.5736 0.01229 0.0
C403 C 0.72779 0.55199 0.9914 0.0
C404 C 0.85356 0.56505 0.01515 0.0
C405 C 0.87299 0.53561 0.99629 0.0
C406 C 0.81966 0.51768 0.97175 0.0
C407 C 0.7475 0.52584 0.96925 0.0
C408 C 0.94615 0.51966 0.00612 0.0
C409 C 0.95301 0.4819 0.01489 0.0
C410 C 0.00839 0.54151 0.00992 0.0
C411 C 0.00539 0.58137 0.00086 0.0
C412 C 0.97299 0.59304 0.96752 0.0
C413 C 0.97152 0.63066 0.95906 0.0
C414 C 0.00225 0.65683 0.98375 0.0
C415 C 0.03441 0.64545 0.01698 0.0
C416 C 0.03622 0.60786 0.02553 0.0
C417 C 0.23706 0.43504 0.00837 0.0
C418 C 0.29485 0.45634 0.02642 0.0
C419 C 0.16774 0.44224 0.01191 0.0
C420 C 0.15526 0.47026 0.03412 0.0
C421 C 0.21415 0.48744 0.05596 0.0
C422 C 0.28358 0.48046 0.05222 0.0
C423 C 0.08264 0.4868 0.029 0.0
C424 C 0.07557 0.52484 0.02138 0.0
C425 C 0.02026 0.46512 0.02638 0.0
C426 C 0.02331 0.42536 0.03635 0.0
C427 C 0.06629 0.41372 0.06788 0.0
C428 C 0.0677 0.37644 0.07746 0.0
C429 C 0.02592 0.3505 0.05588 0.0
C430 C 0.98261 0.36179 0.02466 0.0
C431 C 0.9812 0.39899 0.01486 0.0
H432 H 0.02693 0.32168 0.06339 0.0
H433 H 0.00122 0.68592 0.97714 0.0
H434 H 0.30723 0.49545 0.54992 0.0
H435 H 0.18164 0.47841 0.54197 0.0
H436 H 0.11831 0.58477 0.49606 0.0
H437 H 0.24389 0.60191 0.5033 0.0
H438 H 0.02831 0.55724 0.53654 0.0
H439 H 0.13321 0.51822 0.44425 0.0
H440 H 0.21728 0.48639 0.41578 0.0
H441 H 0.16515 0.38197 0.45472 0.0
H442 H 0.08125 0.41316 0.48386 0.0
H443 H 0.68187 0.51714 0.45065 0.0
H444 H 0.80598 0.5316 0.45081 0.0
H445 H 0.87239 0.42554 0.49662 0.0
H446 H 0.7485 0.4111 0.49699 0.0
H447 H 0.96166 0.45265 0.45503 0.0
H448 H 0.86064 0.49081 0.54866 0.0
H449 H 0.78601 0.52231 0.58246 0.0
H450 H 0.83624 0.62774 0.54466 0.0
H451 H 0.91006 0.59685 0.51003 0.0
C452 C 0.26681 0.51587 0.53936 0.0
C453 C 0.28549 0.54972 0.52634 0.0
C454 C 0.195 0.50581 0.53441 0.0
C455 C 0.14116 0.52982 0.51724 0.0
C456 C 0.15937 0.56562 0.50877 0.0
C457 C 0.23112 0.57552 0.51327 0.0
C458 C 0.06661 0.51678 0.50574 0.0
C459 C 0.01338 0.53476 0.51832 0.0
C460 C 0.04806 0.48683 0.48253 0.0
C461 C 0.10136 0.46815 0.46657 0.0
C462 C 0.14036 0.48854 0.4472 0.0
C463 C 0.18777 0.47057 0.4308 0.0
C464 C 0.19679 0.43219 0.43358 0.0
C465 C 0.15824 0.41169 0.45269 0.0
C466 C 0.11074 0.42951 0.46916 0.0
C467 C 0.72219 0.49597 0.45892 0.0
C468 C 0.70593 0.46341 0.47475 0.0
C469 C 0.79335 0.50456 0.4595 0.0
C470 C 0.84831 0.48023 0.47502 0.0
C471 C 0.83072 0.44494 0.48508 0.0
C472 C 0.75973 0.43652 0.48489 0.0
C473 C 0.923 0.49344 0.48561 0.0
C474 C 0.97637 0.47536 0.473 0.0
C475 C 0.9419 0.52325 0.509 0.0
C476 C 0.8902 0.5414 0.52631 0.0
C477 C 0.85443 0.52062 0.54685 0.0
C478 C 0.81268 0.53841 0.56639 0.0
C479 C 0.80636 0.577 0.56569 0.0
C480 C 0.8412 0.59785 0.54519 0.0
C481 C 0.88271 0.5802 0.52547 0.0
H482 H 0.77431 0.59074 0.58096 0.0
H483 H 0.23363 0.41835 0.42093 0.0
H484 H 0.86265 0.9713 0.36276 0.0
H485 H 0.89838 0.97617 0.30867 0.0
H486 H 0.09536 0.02909 0.35978 0.0
H487 H 0.05965 0.02411 0.41464 0.0
H488 H 0.01701 0.06978 0.30488 0.0
H489 H 0.10967 0.94888 0.32364 0.0
H490 H 0.11396 0.88334 0.34118 0.0
H491 H 0.9285 0.86029 0.26125 0.0
H492 H 0.92244 0.9258 0.24347 0.0
H493 H 0.11488 0.05743 0.14166 0.0
H494 H 0.10043 0.06436 0.20012 0.0
H495 H 0.89811 0.00733 0.17238 0.0
H496 H 0.91297 0.00025 0.11362 0.0
H497 H 0.00332 0.96948 0.21906 0.0
H498 H 0.90331 0.09442 0.20807 0.0
H499 H 0.9014 0.1606 0.19265 0.0
H500 H 0.11039 0.17488 0.25797 0.0
H501 H 0.11306 0.10885 0.27422 0.0
C502 C 0.9142 0.98336 0.36266 0.0
C503 C 0.95799 0.99779 0.39271 0.0
C504 C 0.93478 0.98591 0.33176 0.0
C505 C -0.00056 0.00301 0.33028 0.0
C506 C 0.04523 0.01582 0.36053 0.0
C507 C 0.02493 0.01284 0.39174 0.0
C508 C 0.01373 0.01073 0.29639 0.0
C509 C 0.01576 0.04784 0.28624 0.0
C510 C 0.01142 0.98208 0.27217 0.0
C511 C 0.01536 0.9424 0.28234 0.0
C512 C 0.06951 0.92991 0.30991 0.0
C513 C 0.07232 0.89273 0.31988 0.0
C514 C 0.02145 0.86768 0.30238 0.0
C515 C 0.96788 0.87973 0.27477 0.0
C516 C 0.96483 0.91688 0.26469 0.0
C517 C 0.06541 0.04833 0.14764 0.0
C518 C 0.01502 0.02828 0.12352 0.0
C519 C 0.05732 0.05217 0.18107 0.0
C520 C -0.00124 0.03585 0.19062 0.0
C521 C 0.94387 0.01992 0.16539 0.0
C522 C 0.95188 0.01624 0.13181 0.0
C523 C 0.00244 0.02854 0.22717 0.0
C524 C 0.00505 0.99139 0.23776 0.0
C525 C 0.01009 0.0571 0.2518 0.0
C526 C 0.00863 0.0967 0.24209 0.0
C527 C 0.949 0.11165 0.21897 0.0
C528 C 0.94773 0.14913 0.21014 0.0
C529 C 0.00597 0.17187 0.22406 0.0
C530 C 0.06537 0.15723 0.24714 0.0
C531 C 0.06664 0.11983 0.25632 0.0
H532 H 0.00493 0.20085 0.21707 0.0
H533 H 0.0236 0.83893 0.31019 0.0
H534 H 0.00379 0.93817 0.90114 0.0
H535 H -0.01052 0.91216 0.84323 0.0
H536 H 0.05896 0.01582 0.8087 0.0
H537 H 0.07223 0.04185 0.86588 0.0
H538 H 0.89365 0.97849 0.78587 0.0
H539 H 0.1566 0.97735 0.78898 0.0
H540 H 0.27814 0.95457 0.81498 0.0
H541 H 0.20344 0.84224 0.80155 0.0
H542 H 0.08117 0.86453 0.77575 0.0
H543 H 0.98326 0.04888 0.64361 0.0
H544 H 0.94235 0.02605 0.69258 0.0
H545 H 0.95153 0.9138 0.65644 0.0
H546 H -0.00697 0.93715 0.607 0.0
H547 H 0.04898 0.92628 0.71458 0.0
H548 H 0.79574 0.94848 0.68022 0.0
H549 H 0.68862 0.985 0.65366 0.0
H550 H 0.75537 0.07208 0.7269 0.0
H551 H 0.86318 0.03659 0.75353 0.0
C552 C 0.01951 0.95461 0.88154 0.0
C553 C 0.03863 0.99199 0.88765 0.0
C554 C 0.01091 0.93984 0.84853 0.0
C555 C 0.02296 0.96222 0.82189 0.0
C556 C 0.04996 0.99811 0.82909 0.0
C557 C 0.05766 0.01293 0.86173 0.0
C558 C -0.00591 0.95226 0.78575 0.0
C559 C 0.9265 0.96637 0.77002 0.0
C560 C 0.03696 0.93605 0.76562 0.0
C561 C 0.10989 0.92255 0.78101 0.0
C562 C 0.16608 0.94781 0.79189 0.0
C563 C 0.23505 0.93501 0.80649 0.0
C564 C 0.24844 0.89698 0.81004 0.0
C565 C 0.19291 0.87169 0.79888 0.0
C566 C 0.12378 0.88438 0.7843 0.0
C567 C 0.97208 0.01957 0.64501 0.0
C568 C -0.00853 0.99467 0.62196 0.0
C569 C 0.94846 0.00639 0.67305 0.0
C570 C 0.94429 0.96807 0.67845 0.0
C571 C 0.9543 0.94345 0.65278 0.0
C572 C 0.97755 0.95677 0.62445 0.0
C573 C 0.94965 0.95488 0.71393 0.0
C574 C 0.01322 0.9364 0.72991 0.0
C575 C 0.90423 0.96883 0.73426 0.0
C576 C 0.83763 0.98964 0.719 0.0
C577 C 0.7876 0.9754 0.69068 0.0
C578 C 0.72677 0.99597 0.67558 0.0
C579 C 0.71529 0.03078 0.68864 0.0
C580 C 0.76426 0.04505 0.7169 0.0
C581 C 0.82511 0.02464 0.73208 0.0
H582 H 0.66857 0.04677 0.67688 0.0
H583 H 0.30187 0.88711 0.82135 0.0
H584 H 0.42109 0.45668 0.37527 0.0
H585 H 0.46803 0.45822 0.32352 0.0
H586 H 0.54932 0.56843 0.34965 0.0
H587 H 0.50434 0.56629 0.40224 0.0
H588 H 0.43549 0.56024 0.28849 0.0
H589 H 0.66431 0.51241 0.33937 0.0
H590 H 0.75498 0.47055 0.37321 0.0
H591 H 0.67487 0.38082 0.30487 0.0
H592 H 0.58266 0.42191 0.27098 0.0
H593 H 0.58366 0.57802 0.13899 0.0
H594 H 0.55294 0.57885 0.19493 0.0
H595 H 0.46326 0.46925 0.17605 0.0
H596 H 0.49146 0.46902 0.11926 0.0
H597 H 0.58828 0.47983 0.23472 0.0
H598 H 0.35374 0.52712 0.18675 0.0
H599 H 0.26005 0.56882 0.15485 0.0
H600 H 0.35185 0.6599 0.21886 0.0
H601 H 0.44679 0.6189 0.25082 0.0
C602 C 0.45177 0.48049 0.3706 0.0
C603 C 0.45915 0.51146 0.39218 0.0
C604 C 0.4787 0.48133 0.34121 0.0
C605 C 0.51169 0.5135 0.33281 0.0
C606 C 0.52423 0.54333 0.35591 0.0
C607 C 0.49864 0.54214 0.38578 0.0
C608 C 0.518 0.51854 0.29721 0.0
C609 C 0.47013 0.54331 0.27679 0.0
C610 C 0.56136 0.49535 0.28207 0.0
C611 C 0.61579 0.47022 0.30284 0.0
C612 C 0.66526 0.48363 0.3318 0.0
C613 C 0.71717 0.46006 0.35094 0.0
C614 C 0.72056 0.42302 0.34125 0.0
C615 C 0.67209 0.4095 0.31238 0.0
C616 C 0.61997 0.43294 0.2932 0.0
C617 C 0.55511 0.55471 0.1464 0.0
C618 C 0.54004 0.5234 0.12528 0.0
C619 C 0.53751 0.55523 0.17819 0.0
C620 C 0.50634 0.52404 0.18953 0.0
C621 C 0.48715 0.49358 0.16753 0.0
C622 C 0.50306 0.49348 0.13524 0.0
C623 C 0.5051 0.52118 0.22601 0.0
C624 C 0.55402 0.49689 0.24651 0.0
C625 C 0.46278 0.54484 0.24129 0.0
C626 C 0.4081 0.57001 0.22087 0.0
C627 C 0.35476 0.55618 0.19365 0.0
C628 C 0.30117 0.57965 0.17567 0.0
C629 C 0.30008 0.61698 0.1848 0.0
C630 C 0.35282 0.63098 0.21178 0.0
C631 C 0.40654 0.60764 0.22983 0.0
H632 H 0.25812 0.63501 0.17113 0.0
H633 H 0.76085 0.40483 0.35606 0.0
H634 H 0.62731 0.44108 0.63902 0.0
H635 H 0.58361 0.42993 0.69026 0.0
H636 H 0.40936 0.50623 0.65405 0.0
H637 H 0.45355 0.51738 0.6021 0.0
H638 H 0.50562 0.5305 0.71009 0.0
H639 H 0.3763 0.41687 0.67946 0.0
H640 H 0.35809 0.35325 0.65657 0.0
H641 H 0.53946 0.31571 0.73278 0.0
H642 H 0.55922 0.37911 0.75593 0.0
H643 H 0.37738 0.52986 0.85877 0.0
H644 H 0.40235 0.52564 0.80228 0.0
H645 H 0.57935 0.45199 0.84167 0.0
H646 H 0.55447 0.45651 0.89921 0.0
H647 H 0.48171 0.424 0.78449 0.0
H648 H 0.61751 0.53363 0.81356 0.0
H649 H 0.64828 0.5967 0.83572 0.0
H650 H 0.46919 0.6408 0.76205 0.0
H651 H 0.43686 0.57795 0.73966 0.0
C652 C 0.57828 0.45452 0.64151 0.0
C653 C 0.54494 0.48096 0.61752 0.0
C654 C 0.55267 0.4477 0.67056 0.0
C655 C 0.49377 0.46757 0.67617 0.0
C656 C 0.45513 0.49071 0.65013 0.0
C657 C 0.48045 0.49722 0.62065 0.0
C658 C 0.4862 0.4718 0.71175 0.0
C659 C 0.49823 0.50733 0.72612 0.0
C660 C 0.48165 0.44114 0.73307 0.0
C661 C 0.4695 0.40287 0.71929 0.0
C662 C 0.4126 0.39511 0.6912 0.0
C663 C 0.4019 0.35905 0.67823 0.0
C664 C 0.44765 0.33048 0.69318 0.0
C665 C 0.50403 0.33786 0.72123 0.0
C666 C 0.51488 0.37384 0.73434 0.0
C667 C 0.42227 0.51313 0.85554 0.0
C668 C 0.46345 0.49303 0.88302 0.0
C669 C 0.43679 0.51097 0.82332 0.0
C670 C 0.49253 0.48849 0.81784 0.0
C671 C 0.53599 0.46946 0.84555 0.0
C672 C 0.52203 0.47212 0.87824 0.0
C673 C 0.49968 0.48278 0.7824 0.0
C674 C 0.48822 0.44711 0.76823 0.0
C675 C 0.50621 0.51316 0.76121 0.0
C676 C 0.5243 0.55097 0.77518 0.0
C677 C 0.58417 0.55671 0.80234 0.0
C678 C 0.60206 0.59245 0.81486 0.0
C679 C 0.5606 0.62273 0.80037 0.0
C680 C 0.50121 0.61733 0.77329 0.0
C681 C 0.48314 0.58165 0.76064 0.0
H682 H 0.57457 0.65038 0.81008 0.0
H683 H 0.43938 0.30261 0.68304 0.0
loop_
_geom_bond_atom_site_label_1
_geom_bond_atom_site_label_2
_geom_bond_distance
_geom_bond_site_symmetry_2
_ccdc_geom_bond_type
O0 Mg1 1.990 . S
O0 C14 1.250 1_545 S
Mg1 O0 1.990 . S
Mg1 O4 2.180 1_655 S
Mg1 O5 2.117 . S
Mg1 O19 2.030 . S
O2 Mg3 2.072 1_665 S
O2 C14 1.261 1_554 S
Mg3 O2 2.072 1_445 S
Mg3 O4 2.099 1_554 S
Mg3 O6 2.079 . S
Mg3 O7 2.072 1_545 S
Mg3 O9 2.099 . S
Mg3 O20 2.079 . S
O4 Mg1 2.180 1_455 S
O4 Mg3 2.099 1_556 S
O4 C15 1.279 1_455 S
O5 Mg1 2.117 . S
O5 C15 1.250 . S
O6 Mg3 2.079 . S
O6 C16 1.264 . S
O7 Mg3 2.072 1_565 S
O7 C17 1.260 . S
Mg8 O9 2.180 1_565 S
Mg8 O10 2.030 . S
Mg8 O11 1.990 . S
Mg8 O12 2.117 . S
O9 Mg3 2.099 . S
O9 Mg8 2.180 1_545 S
O9 C18 1.279 1_545 S
O10 Mg8 2.030 . S
O10 C16 1.248 1_565 S
O11 Mg8 1.990 . S
O11 C17 1.253 . S
O12 Mg8 2.117 . S
O12 C18 1.250 . S
C13 O19 1.248 1_554 S
C13 O20 1.264 1_655 S
C14 O0 1.250 1_565 S
C14 O2 1.261 1_556 S
C15 O4 1.279 1_655 S
C15 O5 1.250 . S
C16 O6 1.264 . S
C16 O10 1.248 1_545 S
C17 O7 1.260 . S
C17 O11 1.253 . S
C18 O9 1.279 1_565 S
C18 O12 1.250 . S
O19 Mg1 2.030 . S
O19 C13 1.248 1_556 S
O20 Mg3 2.079 . S
O20 C13 1.264 1_455 S
O21 Mg22 1.990 . S
O21 C35 1.253 . S
Mg22 O21 1.990 . S
Mg22 O25 2.180 1_565 S
Mg22 O26 2.117 . S
Mg22 O40 2.030 . S
O23 Mg24 2.072 1_565 S
O23 C35 1.260 . S
Mg24 O23 2.072 1_545 S
Mg24 O25 2.099 . S
Mg24 O27 2.079 1_655 S
Mg24 O28 2.072 1_645 S
Mg24 O30 2.099 1_655 S
Mg24 O41 2.079 . S
O25 Mg22 2.180 1_545 S
O25 Mg24 2.099 . S
O25 C36 1.279 1_545 S
O26 Mg22 2.117 . S
O26 C36 1.250 . S
O27 Mg24 2.079 1_455 S
O27 C37 1.264 . S
O28 Mg24 2.072 1_465 S
O28 C38 1.260 . S
Mg29 O30 2.180 . S
Mg29 O31 2.030 . S
Mg29 O32 1.990 . S
Mg29 O33 2.117 . S
O30 Mg24 2.099 1_455 S
O30 Mg29 2.180 . S
O30 C39 1.279 . S
O31 Mg29 2.030 . S
O31 C37 1.248 . S
O32 Mg29 1.990 . S
O32 C38 1.253 1_545 S
O33 Mg29 2.117 . S
O33 C39 1.250 . S
C34 O40 1.248 1_545 S
C34 O41 1.264 . S
C35 O21 1.253 . S
C35 O23 1.260 . S
C36 O25 1.279 1_565 S
C36 O26 1.250 . S
C37 O27 1.264 . S
C37 O31 1.248 . S
C38 O28 1.260 . S
C38 O32 1.253 1_565 S
C39 O30 1.279 . S
C39 O33 1.250 . S
O40 Mg22 2.030 . S
O40 C34 1.248 1_565 S
O41 Mg24 2.079 . S
O41 C34 1.264 . S
O42 Mg43 1.990 . S
O42 C56 1.250 . S
Mg43 O42 1.990 . S
Mg43 O46 2.180 . S
Mg43 O47 2.117 . S
Mg43 O61 2.030 . S
O44 Mg45 2.072 . S
O44 C56 1.261 1_554 S
Mg45 O44 2.072 . S
Mg45 O46 2.099 1_554 S
Mg45 O48 2.079 . S
Mg45 O49 2.072 . S
Mg45 O51 2.099 . S
Mg45 O62 2.079 . S
O46 Mg43 2.180 . S
O46 Mg45 2.099 1_556 S
O46 C57 1.279 . S
O47 Mg43 2.117 . S
O47 C57 1.250 . S
O48 Mg45 2.079 . S
O48 C58 1.264 . S
O49 Mg45 2.072 . S
O49 C59 1.260 . S
Mg50 O51 2.180 . S
Mg50 O52 2.030 . S
Mg50 O53 1.990 . S
Mg50 O54 2.117 . S
O51 Mg45 2.099 . S
O51 Mg50 2.180 . S
O51 C60 1.279 . S
O52 Mg50 2.030 . S
O52 C58 1.248 . S
O53 Mg50 1.990 . S
O53 C59 1.253 . S
O54 Mg50 2.117 . S
O54 C60 1.250 . S
C55 O61 1.248 1_554 S
C55 O62 1.264 . S
C56 O42 1.250 . S
C56 O44 1.261 1_556 S
C57 O46 1.279 . S
C57 O47 1.250 . S
C58 O48 1.264 . S
C58 O52 1.248 . S
C59 O49 1.260 . S
C59 O53 1.253 . S
C60 O51 1.279 . S
C60 O54 1.250 . S
O61 Mg43 2.030 . S
O61 C55 1.248 1_556 S
O62 Mg45 2.079 . S
O62 C55 1.264 . S
O63 Mg64 1.990 . S
O63 C77 1.253 . S
Mg64 O63 1.990 . S
Mg64 O67 2.180 . S
Mg64 O68 2.117 . S
Mg64 O82 2.030 . S
O65 Mg66 2.072 . S
O65 C77 1.260 . S
Mg66 O65 2.072 . S
Mg66 O67 2.099 . S
Mg66 O69 2.079 . S
Mg66 O70 2.072 . S
Mg66 O72 2.099 . S
Mg66 O83 2.079 . S
O67 Mg64 2.180 . S
O67 Mg66 2.099 . S
O67 C78 1.279 . S
O68 Mg64 2.117 . S
O68 C78 1.250 . S
O69 Mg66 2.079 . S
O69 C79 1.264 . S
O70 Mg66 2.072 . S
O70 C80 1.260 . S
Mg71 O72 2.180 . S
Mg71 O73 2.030 . S
Mg71 O74 1.990 . S
Mg71 O75 2.117 . S
O72 Mg66 2.099 . S
O72 Mg71 2.180 . S
O72 C81 1.279 . S
O73 Mg71 2.030 . S
O73 C79 1.248 . S
O74 Mg71 1.990 . S
O74 C80 1.253 . S
O75 Mg71 2.117 . S
O75 C81 1.250 . S
C76 O82 1.248 . S
C76 O83 1.264 . S
C77 O63 1.253 . S
C77 O65 1.260 . S
C78 O67 1.279 . S
C78 O68 1.250 . S
C79 O69 1.264 . S
C79 O73 1.248 . S
C80 O70 1.260 . S
C80 O74 1.253 . S
C81 O72 1.279 . S
C81 O75 1.250 . S
O82 Mg64 2.030 . S
O82 C76 1.248 . S
O83 Mg66 2.079 . S
O83 C76 1.264 . S
H84 C102 0.951 . S
H85 C104 0.951 . S
H86 C106 0.950 . S
H87 C107 0.950 . S
H88 C109 0.950 . S
H89 C112 0.950 . S
H90 C113 0.950 . S
H91 C115 0.950 . S
H92 C116 0.950 . S
H93 C117 0.951 . S
H94 C119 0.951 . S
H95 C121 0.950 . S
H96 C122 0.950 . S
H97 C124 0.950 . S
H98 C127 0.950 1_554 S
H99 C128 0.950 . S
H100 C130 0.950 . S
H101 C131 0.950 . S
C102 H84 0.951 . S
C102 C103 1.366 . S
C102 C104 1.388 . S
C103 C102 1.366 . S
C103 C107 1.385 1_554 S
C104 H85 0.951 . S
C104 C102 1.388 . S
C104 C105 1.366 . S
C105 C104 1.366 . S
C105 C106 1.414 1_554 S
C105 C108 1.499 . S
C106 H86 0.950 . S
C106 C105 1.414 1_556 S
C106 C107 1.374 . S
C107 H87 0.950 . S
C107 C103 1.385 1_556 S
C107 C106 1.374 . S
C108 C105 1.499 . S
C108 C109 1.373 1_554 S
C108 C110 1.389 . S
C109 H88 0.950 . S
C109 C108 1.373 1_556 S
C109 C125 1.377 . S
C110 C108 1.389 . S
C110 C111 1.524 . S
C110 C124 1.377 . S
C111 C110 1.524 . S
C111 C112 1.397 . S
C111 C116 1.363 . S
C112 H89 0.950 . S
C112 C111 1.397 . S
C112 C113 1.334 . S
C113 H90 0.950 . S
C113 C112 1.334 . S
C113 C114 1.287 . S
C114 C113 1.287 . S
C114 C115 1.524 . S
C114 H133 0.913 . S
C115 H91 0.950 . S
C115 C114 1.524 . S
C115 C116 1.415 . S
C116 H92 0.950 . S
C116 C111 1.363 . S
C116 C115 1.415 . S
C117 H93 0.951 . S
C117 C118 1.366 1_556 S
C117 C119 1.388 . S
C118 C117 1.366 1_554 S
C118 C122 1.385 . S
C119 H94 0.951 . S
C119 C117 1.388 . S
C119 C120 1.366 1_556 S
C120 C119 1.366 1_554 S
C120 C121 1.414 . S
C120 C123 1.499 . S
C121 H95 0.950 . S
C121 C120 1.414 . S
C121 C122 1.374 . S
C122 H96 0.950 . S
C122 C118 1.385 . S
C122 C121 1.374 . S
C123 C120 1.499 . S
C123 C124 1.373 . S
C123 C125 1.389 1_554 S
C124 H97 0.950 . S
C124 C110 1.377 . S
C124 C123 1.373 . S
C125 C109 1.377 . S
C125 C123 1.389 1_556 S
C125 C126 1.524 . S
C126 C125 1.524 . S
C126 C127 1.397 . S
C126 C131 1.363 . S
C127 H98 0.950 1_556 S
C127 C126 1.397 . S
C127 C128 1.334 . S
C128 H99 0.950 . S
C128 C127 1.334 . S
C128 C129 1.287 . S
C129 C128 1.287 . S
C129 C130 1.524 . S
C129 H132 0.999 . S
C130 H100 0.950 . S
C130 C129 1.524 . S
C130 C131 1.415 . S
C131 H101 0.950 . S
C131 C126 1.363 . S
C131 C130 1.415 . S
H132 C129 0.999 . S
H133 C114 0.913 . S
H134 C152 0.951 . S
H135 C154 0.951 . S
H136 C156 0.950 1_556 S
H137 C157 0.950 1_556 S
H138 C159 0.950 . S
H139 C162 0.950 . S
H140 C163 0.950 . S
H141 C165 0.950 . S
H142 C166 0.950 . S
H143 C167 0.951 . S
H144 C169 0.951 . S
H145 C171 0.950 . S
H146 C172 0.950 1_455 S
H147 C174 0.950 . S
H148 C177 0.950 . S
H149 C178 0.950 . S
H150 C180 0.950 . S
H151 C181 0.950 . S
C152 H134 0.951 . S
C152 C153 1.366 . S
C152 C154 1.388 . S
C153 C152 1.366 . S
C153 C157 1.385 . S
C154 H135 0.951 . S
C154 C152 1.388 . S
C154 C155 1.366 . S
C155 C154 1.366 . S
C155 C156 1.412 . S
C155 C158 1.499 . S
C156 H136 0.950 1_554 S
C156 C155 1.412 . S
C156 C157 1.376 . S
C157 H137 0.950 1_554 S
C157 C153 1.385 . S
C157 C156 1.376 . S
C158 C155 1.499 . S
C158 C159 1.373 . S
C158 C160 1.389 1_554 S
C159 H138 0.950 . S
C159 C158 1.373 . S
C159 C175 1.377 . S
C160 C158 1.389 1_556 S
C160 C161 1.524 . S
C160 C174 1.377 . S
C161 C160 1.524 . S
C161 C162 1.397 . S
C161 C166 1.363 . S
C162 H139 0.950 . S
C162 C161 1.397 . S
C162 C163 1.334 . S
C163 H140 0.950 . S
C163 C162 1.334 . S
C163 C164 1.287 . S
C164 C163 1.287 . S
C164 C165 1.524 . S
C164 H183 0.913 . S
C165 H141 0.950 . S
C165 C164 1.524 . S
C165 C166 1.415 . S
C166 H142 0.950 . S
C166 C161 1.363 . S
C166 C165 1.415 . S
C167 H143 0.951 . S
C167 C168 1.366 . S
C167 C169 1.388 . S
C168 C167 1.366 . S
C168 C172 1.385 . S
C169 H144 0.951 . S
C169 C167 1.388 . S
C169 C170 1.366 . S
C170 C169 1.366 . S
C170 C171 1.414 . S
C170 C173 1.499 . S
C171 H145 0.950 . S
C171 C170 1.414 . S
C171 C172 1.374 . S
C172 H146 0.950 1_655 S
C172 C168 1.385 . S
C172 C171 1.374 . S
C173 C170 1.499 . S
C173 C174 1.373 1_554 S
C173 C175 1.389 . S
C174 H147 0.950 . S
C174 C160 1.377 . S
C174 C173 1.373 1_556 S
C175 C159 1.377 . S
C175 C173 1.389 . S
C175 C176 1.524 . S
C176 C175 1.524 . S
C176 C177 1.397 . S
C176 C181 1.363 . S
C177 H148 0.950 . S
C177 C176 1.397 . S
C177 C178 1.334 . S
C178 H149 0.950 . S
C178 C177 1.334 . S
C178 C179 1.287 . S
C179 C178 1.287 . S
C179 C180 1.524 . S
C179 H182 0.999 . S
C180 H150 0.950 . S
C180 C179 1.524 . S
C180 C181 1.415 . S
C181 H151 0.950 . S
C181 C176 1.363 . S
C181 C180 1.415 . S
H182 C179 0.999 . S
H183 C164 0.913 . S
H184 C202 0.951 . S
H185 C204 0.951 . S
H186 C206 0.950 . S
H187 C207 0.950 . S
H188 C209 0.950 . S
H189 C212 0.950 . S
H190 C213 0.950 . S
H191 C215 0.950 . S
H192 C216 0.950 . S
H193 C217 0.951 . S
H194 C219 0.951 . S
H195 C221 0.950 . S
H196 C222 0.950 . S
H197 C224 0.950 . S
H198 C227 0.950 . S
H199 C228 0.950 . S
H200 C230 0.950 . S
H201 C231 0.950 . S
C202 H184 0.951 . S
C202 C203 1.366 . S
C202 C204 1.388 . S
C203 C202 1.366 . S
C203 C207 1.385 . S
C204 H185 0.951 . S
C204 C202 1.388 . S
C204 C205 1.366 . S
C205 C204 1.366 . S
C205 C206 1.414 . S
C205 C208 1.499 . S
C206 H186 0.950 . S
C206 C205 1.414 . S
C206 C207 1.374 . S
C207 H187 0.950 . S
C207 C203 1.385 . S
C207 C206 1.374 . S
C208 C205 1.499 . S
C208 C209 1.373 . S
C208 C210 1.389 . S
C209 H188 0.950 . S
C209 C208 1.373 . S
C209 C225 1.377 . S
C210 C208 1.389 . S
C210 C211 1.524 . S
C210 C224 1.377 . S
C211 C210 1.524 . S
C211 C212 1.397 . S
C211 C216 1.363 . S
C212 H189 0.950 . S
C212 C211 1.397 . S
C212 C213 1.334 . S
C213 H190 0.950 . S
C213 C212 1.334 . S
C213 C214 1.287 1_455 S
C214 C213 1.287 1_655 S
C214 C215 1.524 . S
C214 H233 0.913 . S
C215 H191 0.950 . S
C215 C214 1.524 . S
C215 C216 1.415 1_655 S
C216 H192 0.950 . S
C216 C211 1.363 . S
C216 C215 1.415 1_455 S
C217 H193 0.951 . S
C217 C218 1.366 . S
C217 C219 1.388 . S
C218 C217 1.366 . S
C218 C222 1.385 . S
C219 H194 0.951 . S
C219 C217 1.388 . S
C219 C220 1.366 . S
C220 C219 1.366 . S
C220 C221 1.414 . S
C220 C223 1.499 . S
C221 H195 0.950 . S
C221 C220 1.414 . S
C221 C222 1.374 . S
C222 H196 0.950 . S
C222 C218 1.385 . S
C222 C221 1.374 . S
C223 C220 1.499 . S
C223 C224 1.373 . S
C223 C225 1.389 . S
C224 H197 0.950 . S
C224 C210 1.377 . S
C224 C223 1.373 . S
C225 C209 1.377 . S
C225 C223 1.389 . S
C225 C226 1.524 . S
C226 C225 1.524 . S
C226 C227 1.397 . S
C226 C231 1.363 . S
C227 H198 0.950 . S
C227 C226 1.397 . S
C227 C228 1.334 . S
C228 H199 0.950 . S
C228 C227 1.334 . S
C228 C229 1.287 . S
C229 C228 1.287 . S
C229 C230 1.524 . S
C229 H232 0.999 . S
C230 H200 0.950 . S
C230 C229 1.524 . S
C230 C231 1.415 . S
C231 H201 0.950 . S
C231 C226 1.363 . S
C231 C230 1.415 . S
H232 C229 0.999 . S
H233 C214 0.913 . S
H234 C252 0.951 . S
H235 C254 0.951 . S
H236 C256 0.950 . S
H237 C257 0.950 . S
H238 C259 0.950 . S
H239 C262 0.950 . S
H240 C263 0.950 . S
H241 C265 0.950 . S
H242 C266 0.950 . S
H243 C267 0.951 . S
H244 C269 0.951 . S
H245 C271 0.950 . S
H246 C272 0.950 . S
H247 C274 0.950 . S
H248 C277 0.950 . S
H249 C278 0.950 . S
H250 C280 0.950 . S
H251 C281 0.950 . S
C252 H234 0.951 . S
C252 C253 1.366 . S
C252 C254 1.388 . S
C253 C252 1.366 . S
C253 C257 1.385 . S
C254 H235 0.951 . S
C254 C252 1.388 . S
C254 C255 1.366 . S
C255 C254 1.366 . S
C255 C256 1.414 . S
C255 C258 1.499 . S
C256 H236 0.950 . S
C256 C255 1.414 . S
C256 C257 1.374 . S
C257 H237 0.950 . S
C257 C253 1.385 . S
C257 C256 1.374 . S
C258 C255 1.499 . S
C258 C259 1.373 . S
C258 C260 1.389 . S
C259 H238 0.950 . S
C259 C258 1.373 . S
C259 C275 1.377 . S
C260 C258 1.389 . S
C260 C261 1.524 . S
C260 C274 1.377 . S
C261 C260 1.524 . S
C261 C262 1.397 . S
C261 C266 1.363 . S
C262 H239 0.950 . S
C262 C261 1.397 . S
C262 C263 1.334 . S
C263 H240 0.950 . S
C263 C262 1.334 . S
C263 C264 1.287 . S
C264 C263 1.287 . S
C264 C265 1.524 . S
C264 H283 0.913 . S
C265 H241 0.950 . S
C265 C264 1.524 . S
C265 C266 1.415 . S
C266 H242 0.950 . S
C266 C261 1.363 . S
C266 C265 1.415 . S
C267 H243 0.951 . S
C267 C268 1.366 . S
C267 C269 1.388 . S
C268 C267 1.366 . S
C268 C272 1.385 . S
C269 H244 0.951 . S
C269 C267 1.388 . S
C269 C270 1.366 . S
C270 C269 1.366 . S
C270 C271 1.414 . S
C270 C273 1.499 . S
C271 H245 0.950 . S
C271 C270 1.414 . S
C271 C272 1.374 . S
C272 H246 0.950 . S
C272 C268 1.385 . S
C272 C271 1.374 . S
C273 C270 1.499 . S
C273 C274 1.373 . S
C273 C275 1.389 . S
C274 H247 0.950 . S
C274 C260 1.377 . S
C274 C273 1.373 . S
C275 C259 1.377 . S
C275 C273 1.389 . S
C275 C276 1.524 . S
C276 C275 1.524 . S
C276 C277 1.397 . S
C276 C281 1.363 . S
C277 H248 0.950 . S
C277 C276 1.397 . S
C277 C278 1.334 . S
C278 H249 0.950 . S
C278 C277 1.334 . S
C278 C279 1.287 . S
C279 C278 1.287 . S
C279 C280 1.524 . S
C279 H282 0.999 . S
C280 H250 0.950 . S
C280 C279 1.524 . S
C280 C281 1.415 . S
C281 H251 0.950 . S
C281 C276 1.363 . S
C281 C280 1.415 . S
H282 C279 0.999 . S
H283 C264 0.913 . S
H284 C302 0.951 . S
H285 C304 0.951 . S
H286 C306 0.950 1_565 S
H287 C307 0.950 . S
H288 C309 0.948 1_556 S
H289 C312 0.950 1_556 S
H290 C313 0.950 1_556 S
H291 C315 0.950 . S
H292 C316 0.950 . S
H293 C317 0.951 . S
H294 C319 0.951 . S
H295 C321 0.950 . S
H296 C322 0.950 . S
H297 C324 0.950 . S
H298 C327 0.950 . S
H299 C328 0.950 . S
H300 C330 0.950 . S
H301 C331 0.950 . S
C302 H284 0.951 . S
C302 C303 1.366 . S
C302 C304 1.388 . S
C303 C302 1.366 . S
C303 C307 1.385 1_554 S
C304 H285 0.951 . S
C304 C302 1.388 . S
C304 C305 1.366 . S
C305 C304 1.366 . S
C305 C306 1.414 1_554 S
C305 C308 1.499 . S
C306 H286 0.950 1_545 S
C306 C305 1.414 1_556 S
C306 C307 1.374 . S
C307 H287 0.950 . S
C307 C303 1.385 1_556 S
C307 C306 1.374 . S
C308 C305 1.499 . S
C308 C309 1.377 1_545 S
C308 C310 1.389 . S
C309 H288 0.948 1_554 S
C309 C308 1.377 1_565 S
C309 C325 1.375 . S
C310 C308 1.389 . S
C310 C311 1.524 . S
C310 C324 1.377 . S
C311 C310 1.524 . S
C311 C312 1.397 . S
C311 C316 1.363 . S
C312 H289 0.950 1_554 S
C312 C311 1.397 . S
C312 C313 1.334 . S
C313 H290 0.950 1_554 S
C313 C312 1.334 . S
C313 C314 1.287 . S
C314 C313 1.287 . S
C314 C315 1.524 . S
C314 H333 0.913 . S
C315 H291 0.950 . S
C315 C314 1.524 . S
C315 C316 1.415 . S
C316 H292 0.950 . S
C316 C311 1.363 . S
C316 C315 1.415 . S
C317 H293 0.951 . S
C317 C318 1.366 1_556 S
C317 C319 1.388 . S
C318 C317 1.366 1_554 S
C318 C322 1.385 1_565 S
C319 H294 0.951 . S
C319 C317 1.388 . S
C319 C320 1.366 1_556 S
C320 C319 1.366 1_554 S
C320 C321 1.414 1_565 S
C320 C323 1.499 1_565 S
C321 H295 0.950 . S
C321 C320 1.414 1_545 S
C321 C322 1.374 . S
C322 H296 0.950 . S
C322 C318 1.385 1_545 S
C322 C321 1.374 . S
C323 C320 1.499 1_545 S
C323 C324 1.373 . S
C323 C325 1.389 1_545 S
C324 H297 0.950 . S
C324 C310 1.377 . S
C324 C323 1.373 . S
C325 C309 1.375 . S
C325 C323 1.389 1_565 S
C325 C326 1.524 1_554 S
C326 C325 1.524 1_556 S
C326 C327 1.397 1_556 S
C326 C331 1.363 . S
C327 H298 0.950 . S
C327 C326 1.397 1_554 S
C327 C328 1.334 . S
C328 H299 0.950 . S
C328 C327 1.334 . S
C328 C329 1.287 1_554 S
C329 C328 1.287 1_556 S
C329 C330 1.524 . S
C329 H332 0.999 . S
C330 H300 0.950 . S
C330 C329 1.524 . S
C330 C331 1.415 . S
C331 H301 0.950 . S
C331 C326 1.363 . S
C331 C330 1.415 . S
H332 C329 0.999 . S
H333 C314 0.913 . S
H334 C352 0.951 . S
H335 C354 0.951 . S
H336 C356 0.950 . S
H337 C357 0.950 . S
H338 C359 0.950 . S
H339 C362 0.950 . S
H340 C363 0.950 . S
H341 C365 0.950 . S
H342 C366 0.950 1_545 S
H343 C367 0.951 1_565 S
H344 C369 0.951 1_565 S
H345 C371 0.950 . S
H346 C372 0.950 . S
H347 C374 0.950 . S
H348 C377 0.950 . S
H349 C378 0.950 . S
H350 C380 0.950 . S
H351 C381 0.950 . S
C352 H334 0.951 . S
C352 C353 1.366 1_545 S
C352 C354 1.388 . S
C353 C352 1.366 1_565 S
C353 C357 1.385 . S
C354 H335 0.951 . S
C354 C352 1.388 . S
C354 C355 1.366 1_545 S
C355 C354 1.366 1_565 S
C355 C356 1.414 . S
C355 C358 1.499 1_565 S
C356 H336 0.950 . S
C356 C355 1.414 . S
C356 C357 1.374 . S
C357 H337 0.950 . S
C357 C353 1.385 . S
C357 C356 1.374 . S
C358 C355 1.499 1_545 S
C358 C359 1.373 . S
C358 C360 1.389 1_545 S
C359 H338 0.950 . S
C359 C358 1.373 . S
C359 C375 1.377 . S
C360 C358 1.389 1_565 S
C360 C361 1.524 . S
C360 C374 1.377 . S
C361 C360 1.524 . S
C361 C362 1.397 . S
C361 C366 1.363 . S
C362 H339 0.950 . S
C362 C361 1.397 . S
C362 C363 1.334 . S
C363 H340 0.950 . S
C363 C362 1.334 . S
C363 C364 1.287 . S
C364 C363 1.287 . S
C364 C365 1.524 . S
C364 H383 0.913 . S
C365 H341 0.950 . S
C365 C364 1.524 . S
C365 C366 1.415 . S
C366 H342 0.950 1_565 S
C366 C361 1.363 . S
C366 C365 1.415 . S
C367 H343 0.951 1_545 S
C367 C368 1.366 . S
C367 C369 1.388 . S
C368 C367 1.366 . S
C368 C372 1.385 . S
C369 H344 0.951 1_545 S
C369 C367 1.388 . S
C369 C370 1.366 . S
C370 C369 1.366 . S
C370 C371 1.414 . S
C370 C373 1.499 . S
C371 H345 0.950 . S
C371 C370 1.414 . S
C371 C372 1.374 . S
C372 H346 0.950 . S
C372 C368 1.385 . S
C372 C371 1.374 . S
C373 C370 1.499 . S
C373 C374 1.373 1_545 S
C373 C375 1.389 . S
C374 H347 0.950 . S
C374 C360 1.377 . S
C374 C373 1.373 1_565 S
C375 C359 1.377 . S
C375 C373 1.389 . S
C375 C376 1.524 . S
C376 C375 1.524 . S
C376 C377 1.397 . S
C376 C381 1.363 . S
C377 H348 0.950 . S
C377 C376 1.397 . S
C377 C378 1.334 . S
C378 H349 0.950 . S
C378 C377 1.334 . S
C378 C379 1.287 . S
C379 C378 1.287 . S
C379 C380 1.524 . S
C379 H382 0.999 . S
C380 H350 0.950 . S
C380 C379 1.524 . S
C380 C381 1.415 . S
C381 H351 0.950 . S
C381 C376 1.363 . S
C381 C380 1.415 . S
H382 C379 0.999 . S
H383 C364 0.913 . S
H384 C402 0.951 . S
H385 C404 0.951 . S
H386 C406 0.950 . S
H387 C407 0.950 . S
H388 C409 0.950 . S
H389 C412 0.950 . S
H390 C413 0.950 . S
H391 C415 0.951 . S
H392 C416 0.950 . S
H393 C417 0.951 . S
H394 C419 0.951 . S
H395 C421 0.950 . S
H396 C422 0.950 . S
H397 C424 0.950 . S
H398 C427 0.950 . S
H399 C428 0.950 . S
H400 C430 0.959 . S
H401 C431 0.950 1_556 S
C402 H384 0.951 . S
C402 C403 1.366 . S
C402 C404 1.388 . S
C403 C402 1.366 . S
C403 C407 1.385 1_554 S
C404 H385 0.951 . S
C404 C402 1.388 . S
C404 C405 1.366 . S
C405 C404 1.366 . S
C405 C406 1.414 1_554 S
C405 C408 1.499 . S
C406 H386 0.950 . S
C406 C405 1.414 1_556 S
C406 C407 1.374 . S
C407 H387 0.950 . S
C407 C403 1.385 1_556 S
C407 C406 1.374 . S
C408 C405 1.499 . S
C408 C409 1.373 . S
C408 C410 1.389 1_655 S
C409 H388 0.950 . S
C409 C408 1.373 . S
C409 C425 1.377 1_655 S
C410 C408 1.389 1_455 S
C410 C411 1.526 1_455 S
C410 C424 1.377 . S
C411 C410 1.526 1_655 S
C411 C412 1.389 1_554 S
C411 C416 1.368 1_655 S
C412 H389 0.950 . S
C412 C411 1.389 1_556 S
C412 C413 1.334 . S
C413 H390 0.950 . S
C413 C412 1.334 . S
C413 C414 1.287 . S
C414 C413 1.287 . S
C414 C415 1.524 1_556 S
C414 H433 0.913 . S
C415 H391 0.951 . S
C415 C414 1.524 1_554 S
C415 C416 1.415 1_655 S
C416 H392 0.950 . S
C416 C411 1.368 1_455 S
C416 C415 1.415 1_455 S
C417 H393 0.951 . S
C417 C418 1.366 1_556 S
C417 C419 1.388 . S
C418 C417 1.366 1_554 S
C418 C422 1.385 . S
C419 H394 0.951 . S
C419 C417 1.388 . S
C419 C420 1.366 1_556 S
C420 C419 1.366 1_554 S
C420 C421 1.414 . S
C420 C423 1.499 . S
C421 H395 0.950 . S
C421 C420 1.414 . S
C421 C422 1.374 . S
C422 H396 0.950 . S
C422 C418 1.385 . S
C422 C421 1.374 . S
C423 C420 1.499 . S
C423 C424 1.373 . S
C423 C425 1.389 . S
C424 H397 0.950 . S
C424 C410 1.377 . S
C424 C423 1.373 . S
C425 C409 1.377 1_455 S
C425 C423 1.389 . S
C425 C426 1.524 . S
C426 C425 1.524 . S
C426 C427 1.397 . S
C426 C431 1.363 . S
C427 H398 0.950 . S
C427 C426 1.397 . S
C427 C428 1.334 . S
C428 H399 0.950 . S
C428 C427 1.334 . S
C428 C429 1.287 . S
C429 C428 1.287 . S
C429 C430 1.524 . S
C429 H432 0.999 . S
C430 H400 0.959 . S
C430 C429 1.524 . S
C430 C431 1.415 . S
C431 H401 0.950 1_554 S
C431 C426 1.363 . S
C431 C430 1.415 . S
H432 C429 0.999 . S
H433 C414 0.913 . S
H434 C452 0.951 . S
H435 C454 0.951 . S
H436 C456 0.950 . S
H437 C457 0.950 . S
H438 C459 0.950 . S
H439 C462 0.950 . S
H440 C463 0.950 . S
H441 C465 0.950 . S
H442 C466 0.950 . S
H443 C467 0.951 . S
H444 C469 0.951 . S
H445 C471 0.950 . S
H446 C472 0.950 . S
H447 C474 0.950 . S
H448 C477 0.950 . S
H449 C478 0.950 . S
H450 C480 0.950 . S
H451 C481 0.950 . S
C452 H434 0.951 . S
C452 C453 1.366 . S
C452 C454 1.388 . S
C453 C452 1.366 . S
C453 C457 1.385 . S
C454 H435 0.951 . S
C454 C452 1.388 . S
C454 C455 1.366 . S
C455 C454 1.366 . S
C455 C456 1.414 . S
C455 C458 1.499 . S
C456 H436 0.950 . S
C456 C455 1.414 . S
C456 C457 1.374 . S
C457 H437 0.950 . S
C457 C453 1.385 . S
C457 C456 1.374 . S
C458 C455 1.499 . S
C458 C459 1.373 . S
C458 C460 1.389 . S
C459 H438 0.950 . S
C459 C458 1.373 . S
C459 C475 1.377 1_455 S
C460 C458 1.389 . S
C460 C461 1.524 . S
C460 C474 1.377 1_455 S
C461 C460 1.524 . S
C461 C462 1.397 . S
C461 C466 1.363 . S
C462 H439 0.950 . S
C462 C461 1.397 . S
C462 C463 1.334 . S
C463 H440 0.950 . S
C463 C462 1.334 . S
C463 C464 1.287 . S
C464 C463 1.287 . S
C464 C465 1.524 . S
C464 H483 0.913 . S
C465 H441 0.950 . S
C465 C464 1.524 . S
C465 C466 1.415 . S
C466 H442 0.950 . S
C466 C461 1.363 . S
C466 C465 1.415 . S
C467 H443 0.951 . S
C467 C468 1.366 . S
C467 C469 1.388 . S
C468 C467 1.366 . S
C468 C472 1.385 . S
C469 H444 0.951 . S
C469 C467 1.388 . S
C469 C470 1.366 . S
C470 C469 1.366 . S
C470 C471 1.414 . S
C470 C473 1.499 . S
C471 H445 0.950 . S
C471 C470 1.414 . S
C471 C472 1.374 . S
C472 H446 0.950 . S
C472 C468 1.385 . S
C472 C471 1.374 . S
C473 C470 1.499 . S
C473 C474 1.373 . S
C473 C475 1.389 . S
C474 H447 0.950 . S
C474 C460 1.377 1_655 S
C474 C473 1.373 . S
C475 C459 1.377 1_655 S
C475 C473 1.389 . S
C475 C476 1.524 . S
C476 C475 1.524 . S
C476 C477 1.397 . S
C476 C481 1.363 . S
C477 H448 0.950 . S
C477 C476 1.397 . S
C477 C478 1.334 . S
C478 H449 0.950 . S
C478 C477 1.334 . S
C478 C479 1.287 . S
C479 C478 1.287 . S
C479 C480 1.524 . S
C479 H482 0.999 . S
C480 H450 0.950 . S
C480 C479 1.524 . S
C480 C481 1.415 . S
C481 H451 0.950 . S
C481 C476 1.363 . S
C481 C480 1.415 . S
H482 C479 0.999 . S
H483 C464 0.913 . S
H484 C502 0.951 . S
H485 C504 0.951 . S
H486 C506 0.950 . S
H487 C507 0.950 . S
H488 C509 0.950 . S
H489 C512 0.950 . S
H490 C513 0.950 . S
H491 C515 0.950 . S
H492 C516 0.950 . S
H493 C517 0.951 . S
H494 C519 0.951 . S
H495 C521 0.950 . S
H496 C522 0.950 . S
H497 C524 0.950 1_655 S
H498 C527 0.950 . S
H499 C528 0.950 . S
H500 C530 0.950 . S
H501 C531 0.950 . S
C502 H484 0.951 . S
C502 C503 1.366 1_665 S
C502 C504 1.388 . S
C503 C502 1.366 1_445 S
C503 C507 1.385 . S
C504 H485 0.951 . S
C504 C502 1.388 . S
C504 C505 1.352 1_665 S
C505 C504 1.352 1_445 S
C505 C506 1.429 . S
C505 C508 1.499 . S
C506 H486 0.950 . S
C506 C505 1.429 . S
C506 C507 1.374 . S
C507 H487 0.950 . S
C507 C503 1.385 . S
C507 C506 1.374 . S
C508 C505 1.499 . S
C508 C509 1.373 . S
C508 C510 1.389 1_545 S
C509 H488 0.950 . S
C509 C508 1.373 . S
C509 C525 1.377 . S
C510 C508 1.389 1_565 S
C510 C511 1.524 . S
C510 C524 1.377 . S
C511 C510 1.524 . S
C511 C512 1.397 . S
C511 C516 1.363 1_455 S
C512 H489 0.950 . S
C512 C511 1.397 . S
C512 C513 1.334 . S
C513 H490 0.950 . S
C513 C512 1.334 . S
C513 C514 1.287 . S
C514 C513 1.287 . S
C514 C515 1.524 1_455 S
C514 H533 0.913 . S
C515 H491 0.950 . S
C515 C514 1.524 1_655 S
C515 C516 1.415 . S
C516 H492 0.950 . S
C516 C511 1.363 1_655 S
C516 C515 1.415 . S
C517 H493 0.951 . S
C517 C518 1.366 . S
C517 C519 1.388 . S
C518 C517 1.366 . S
C518 C522 1.385 1_445 S
C519 H494 0.951 . S
C519 C517 1.388 . S
C519 C520 1.366 . S
C520 C519 1.366 . S
C520 C521 1.414 1_445 S
C520 C523 1.499 . S
C521 H495 0.950 . S
C521 C520 1.414 1_665 S
C521 C522 1.374 . S
C522 H496 0.950 . S
C522 C518 1.385 1_665 S
C522 C521 1.374 . S
C523 C520 1.499 . S
C523 C524 1.373 1_545 S
C523 C525 1.389 . S
C524 H497 0.950 1_455 S
C524 C510 1.377 . S
C524 C523 1.373 1_565 S
C525 C509 1.377 . S
C525 C523 1.389 . S
C525 C526 1.524 . S
C526 C525 1.524 . S
C526 C527 1.397 1_455 S
C526 C531 1.363 . S
C527 H498 0.950 . S
C527 C526 1.397 1_655 S
C527 C528 1.334 . S
C528 H499 0.950 . S
C528 C527 1.334 . S
C528 C529 1.287 1_655 S
C529 C528 1.287 1_455 S
C529 C530 1.524 . S
C529 H532 0.999 . S
C530 H500 0.950 . S
C530 C529 1.524 . S
C530 C531 1.415 . S
C531 H501 0.950 . S
C531 C526 1.363 . S
C531 C530 1.415 . S
H532 C529 0.999 . S
H533 C514 0.913 . S
H534 C552 0.951 . S
H535 C554 0.951 . S
H536 C556 0.950 . S
H537 C557 0.950 . S
H538 C559 0.950 . S
H539 C562 0.950 1_545 S
H540 C563 0.950 . S
H541 C565 0.950 . S
H542 C566 0.950 . S
H543 C567 0.951 1_655 S
H544 C569 0.951 1_655 S
H545 C571 0.950 . S
H546 C572 0.950 . S
H547 C574 0.950 . S
H548 C577 0.950 1_565 S
H549 C578 0.950 . S
H550 C580 0.950 . S
H551 C581 0.950 . S
C552 H534 0.951 . S
C552 C553 1.366 . S
C552 C554 1.388 . S
C553 C552 1.366 . S
C553 C557 1.385 1_565 S
C554 H535 0.951 . S
C554 C552 1.388 . S
C554 C555 1.366 . S
C555 C554 1.366 . S
C555 C556 1.414 1_565 S
C555 C558 1.499 . S
C556 H536 0.950 . S
C556 C555 1.414 1_545 S
C556 C557 1.374 . S
C557 H537 0.950 . S
C557 C553 1.385 1_545 S
C557 C556 1.374 . S
C558 C555 1.499 . S
C558 C559 1.373 1_465 S
C558 C560 1.389 . S
C559 H538 0.950 . S
C559 C558 1.373 1_645 S
C559 C575 1.377 . S
C560 C558 1.389 . S
C560 C561 1.524 . S
C560 C574 1.377 . S
C561 C560 1.524 . S
C561 C562 1.397 . S
C561 C566 1.363 . S
C562 H539 0.950 1_565 S
C562 C561 1.397 . S
C562 C563 1.334 . S
C563 H540 0.950 . S
C563 C562 1.334 . S
C563 C564 1.287 . S
C564 C563 1.287 . S
C564 C565 1.524 . S
C564 H583 0.913 . S
C565 H541 0.950 . S
C565 C564 1.524 . S
C565 C566 1.415 . S
C566 H542 0.950 . S
C566 C561 1.363 . S
C566 C565 1.415 . S
C567 H543 0.951 1_455 S
C567 C568 1.366 1_545 S
C567 C569 1.388 . S
C568 C567 1.366 1_565 S
C568 C572 1.385 . S
C569 H544 0.951 1_455 S
C569 C567 1.388 . S
C569 C570 1.366 1_545 S
C570 C569 1.366 1_565 S
C570 C571 1.414 . S
C570 C573 1.499 . S
C571 H545 0.950 . S
C571 C570 1.414 . S
C571 C572 1.374 . S
C572 H546 0.950 . S
C572 C568 1.385 . S
C572 C571 1.374 . S
C573 C570 1.499 . S
C573 C574 1.373 . S
C573 C575 1.389 1_465 S
C574 H547 0.950 . S
C574 C560 1.377 . S
C574 C573 1.373 . S
C575 C559 1.377 . S
C575 C573 1.389 1_645 S
C575 C576 1.524 . S
C576 C575 1.524 . S
C576 C577 1.397 . S
C576 C581 1.363 . S
C577 H548 0.950 1_545 S
C577 C576 1.397 . S
C577 C578 1.334 . S
C578 H549 0.950 . S
C578 C577 1.334 . S
C578 C579 1.287 . S
C579 C578 1.287 . S
C579 C580 1.524 . S
C579 H582 0.999 . S
C580 H550 0.950 . S
C580 C579 1.524 . S
C580 C581 1.415 . S
C581 H551 0.950 . S
C581 C576 1.363 . S
C581 C580 1.415 . S
H582 C579 0.999 . S
H583 C564 0.913 . S
H584 C602 0.951 . S
H585 C604 0.951 . S
H586 C606 0.950 . S
H587 C607 0.950 . S
H588 C609 0.950 . S
H589 C612 0.950 . S
H590 C613 0.950 . S
H591 C615 0.950 . S
H592 C616 0.950 . S
H593 C617 0.951 . S
H594 C619 0.951 . S
H595 C621 0.950 . S
H596 C622 0.950 . S
H597 C624 0.950 . S
H598 C627 0.950 . S
H599 C628 0.950 . S
H600 C630 0.950 . S
H601 C631 0.950 . S
C602 H584 0.951 . S
C602 C603 1.366 . S
C602 C604 1.388 . S
C603 C602 1.366 . S
C603 C607 1.385 . S
C604 H585 0.951 . S
C604 C602 1.388 . S
C604 C605 1.366 . S
C605 C604 1.366 . S
C605 C606 1.414 . S
C605 C608 1.499 . S
C606 H586 0.950 . S
C606 C605 1.414 . S
C606 C607 1.374 . S
C607 H587 0.950 . S
C607 C603 1.385 . S
C607 C606 1.374 . S
C608 C605 1.499 . S
C608 C609 1.373 . S
C608 C610 1.389 . S
C609 H588 0.950 . S
C609 C608 1.373 . S
C609 C625 1.377 . S
C610 C608 1.389 . S
C610 C611 1.524 . S
C610 C624 1.377 . S
C611 C610 1.524 . S
C611 C612 1.397 . S
C611 C616 1.363 . S
C612 H589 0.950 . S
C612 C611 1.397 . S
C612 C613 1.334 . S
C613 H590 0.950 . S
C613 C612 1.334 . S
C613 C614 1.287 . S
C614 C613 1.287 . S
C614 C615 1.524 . S
C614 H633 0.913 . S
C615 H591 0.950 . S
C615 C614 1.524 . S
C615 C616 1.415 . S
C616 H592 0.950 . S
C616 C611 1.363 . S
C616 C615 1.415 . S
C617 H593 0.951 . S
C617 C618 1.366 . S
C617 C619 1.388 . S
C618 C617 1.366 . S
C618 C622 1.385 . S
C619 H594 0.951 . S
C619 C617 1.388 . S
C619 C620 1.366 . S
C620 C619 1.366 . S
C620 C621 1.414 . S
C620 C623 1.499 . S
C621 H595 0.950 . S
C621 C620 1.414 . S
C621 C622 1.374 . S
C622 H596 0.950 . S
C622 C618 1.385 . S
C622 C621 1.374 . S
C623 C620 1.499 . S
C623 C624 1.373 . S
C623 C625 1.389 . S
C624 H597 0.950 . S
C624 C610 1.377 . S
C624 C623 1.373 . S
C625 C609 1.377 . S
C625 C623 1.389 . S
C625 C626 1.524 . S
C626 C625 1.524 . S
C626 C627 1.397 . S
C626 C631 1.363 . S
C627 H598 0.950 . S
C627 C626 1.397 . S
C627 C628 1.334 . S
C628 H599 0.950 . S
C628 C627 1.334 . S
C628 C629 1.287 . S
C629 C628 1.287 . S
C629 C630 1.524 . S
C629 H632 0.999 . S
C630 H600 0.950 . S
C630 C629 1.524 . S
C630 C631 1.415 . S
C631 H601 0.950 . S
C631 C626 1.363 . S
C631 C630 1.415 . S
H632 C629 0.999 . S
H633 C614 0.913 . S
H634 C652 0.951 . S
H635 C654 0.951 . S
H636 C656 0.950 . S
H637 C657 0.950 . S
H638 C659 0.950 . S
H639 C662 0.950 . S
H640 C663 0.950 . S
H641 C665 0.950 . S
H642 C666 0.950 . S
H643 C667 0.951 . S
H644 C669 0.951 . S
H645 C671 0.950 . S
H646 C672 0.950 . S
H647 C674 0.950 . S
H648 C677 0.950 . S
H649 C678 0.950 . S
H650 C680 0.950 . S
H651 C681 0.950 . S
C652 H634 0.951 . S
C652 C653 1.366 . S
C652 C654 1.388 . S
C653 C652 1.366 . S
C653 C657 1.385 . S
C654 H635 0.951 . S
C654 C652 1.388 . S
C654 C655 1.366 . S
C655 C654 1.366 . S
C655 C656 1.414 . S
C655 C658 1.499 . S
C656 H636 0.950 . S
C656 C655 1.414 . S
C656 C657 1.374 . S
C657 H637 0.950 . S
C657 C653 1.385 . S
C657 C656 1.374 . S
C658 C655 1.499 . S
C658 C659 1.373 . S
C658 C660 1.389 . S
C659 H638 0.950 . S
C659 C658 1.373 . S
C659 C675 1.377 . S
C660 C658 1.389 . S
C660 C661 1.524 . S
C660 C674 1.377 . S
C661 C660 1.524 . S
C661 C662 1.397 . S
C661 C666 1.363 . S
C662 H639 0.950 . S
C662 C661 1.397 . S
C662 C663 1.334 . S
C663 H640 0.950 . S
C663 C662 1.334 . S
C663 C664 1.287 . S
C664 C663 1.287 . S
C664 C665 1.524 . S
C664 H683 0.913 . S
C665 H641 0.950 . S
C665 C664 1.524 . S
C665 C666 1.415 . S
C666 H642 0.950 . S
C666 C661 1.363 . S
C666 C665 1.415 . S
C667 H643 0.951 . S
C667 C668 1.366 . S
C667 C669 1.388 . S
C668 C667 1.366 . S
C668 C672 1.385 . S
C669 H644 0.951 . S
C669 C667 1.388 . S
C669 C670 1.366 . S
C670 C669 1.366 . S
C670 C671 1.414 . S
C670 C673 1.499 . S
C671 H645 0.950 . S
C671 C670 1.414 . S
C671 C672 1.374 . S
C672 H646 0.950 . S
C672 C668 1.385 . S
C672 C671 1.374 . S
C673 C670 1.499 . S
C673 C674 1.373 . S
C673 C675 1.389 . S
C674 H647 0.950 . S
C674 C660 1.377 . S
C674 C673 1.373 . S
C675 C659 1.377 . S
C675 C673 1.389 . S
C675 C676 1.524 . S
C676 C675 1.524 . S
C676 C677 1.397 . S
C676 C681 1.363 . S
C677 H648 0.950 . S
C677 C676 1.397 . S
C677 C678 1.334 . S
C678 H649 0.950 . S
C678 C677 1.334 . S
C678 C679 1.287 . S
C679 C678 1.287 . S
C679 C680 1.524 . S
C679 H682 0.999 . S
C680 H650 0.950 . S
C680 C679 1.524 . S
C680 C681 1.415 . S
C681 H651 0.950 . S
C681 C676 1.363 . S
C681 C680 1.415 . S
H682 C679 0.999 . S
H683 C664 0.913 . S
C103 C55 1.464 . S
C118 C17 1.470 . S
C153 C59 1.470 . S
C168 C13 1.463 . S
C203 C37 1.463 . S
C218 C77 1.469 . S
C253 C35 1.471 . S
C268 C79 1.464 . S
C303 C16 0.781 . S
C318 C14 0.784 1_554 S
C353 C38 0.782 . S
C368 C34 0.781 . S
C403 C58 0.781 . S
C418 C56 0.784 1_554 S
C453 C76 0.783 . S
C468 C80 0.784 . S
C503 C36 1.289 1_445 S
C518 C18 1.288 1_545 S
C553 C15 1.301 1_465 S
C568 C39 1.301 1_565 S
C603 C78 1.288 . S
C618 C60 1.287 . S
C653 C81 1.301 . S
C668 C57 1.302 . S
