# Generated by pormake.
# Topology wkd, (5)-cn, num edge types: 1
# Building blocks:
#     Node 0, Type 0, BuildingBlock: BEQFEK_clean_sbu_0, # of connection points: 5
#     Node 1, Type 0, BuildingBlock: BEQFEK_clean_sbu_0, # of connection points: 5
#     Node 2, Type 0, BuildingBlock: BEQFEK_clean_sbu_0, # of connection points: 5
#     Node 3, Type 0, BuildingBlock: BEQFEK_clean_sbu_0, # of connection points: 5
#     Node 4, Type 0, BuildingBlock: BEQFEK_clean_sbu_0, # of connection points: 5
#     Node 5, Type 0, BuildingBlock: BEQFEK_clean_sbu_0, # of connection points: 5
#     Node 6, Type 0, BuildingBlock: BEQFEK_clean_sbu_0, # of connection points: 5
#     Node 7, Type 0, BuildingBlock: BEQFEK_clean_sbu_0, # of connection points: 5
#     Node 8, Type 0, BuildingBlock: BEQFEK_clean_sbu_0, # of connection points: 5
#     Node 9, Type 0, BuildingBlock: BEQFEK_clean_sbu_0, # of connection points: 5
#     Node 10, Type 0, BuildingBlock: BEQFEK_clean_sbu_0, # of connection points: 5
#     Node 11, Type 0, BuildingBlock: BEQFEK_clean_sbu_0, # of connection points: 5
#     Edge 12, Type (0, 0), BuildingBlock: ZUJKAS_clean_linker_0, # of connection points: 2
#     Edge 13, Type (0, 0), BuildingBlock: ZUJKAS_clean_linker_0, # of connection points: 2
#     Edge 14, Type (0, 0), BuildingBlock: ZUJKAS_clean_linker_0, # of connection points: 2
#     Edge 15, Type (0, 0), BuildingBlock: ZUJKAS_clean_linker_0, # of connection points: 2
#     Edge 16, Type (0, 0), BuildingBlock: ZUJKAS_clean_linker_0, # of connection points: 2
#     Edge 17, Type (0, 0), BuildingBlock: ZUJKAS_clean_linker_0, # of connection points: 2
#     Edge 18, Type (0, 0), BuildingBlock: ZUJKAS_clean_linker_0, # of connection points: 2
#     Edge 19, Type (0, 0), BuildingBlock: ZUJKAS_clean_linker_0, # of connection points: 2
#     Edge 20, Type (0, 0), BuildingBlock: ZUJKAS_clean_linker_0, # of connection points: 2
#     Edge 21, Type (0, 0), BuildingBlock: ZUJKAS_clean_linker_0, # of connection points: 2
#     Edge 22, Type (0, 0), BuildingBlock: ZUJKAS_clean_linker_0, # of connection points: 2
#     Edge 23, Type (0, 0), BuildingBlock: ZUJKAS_clean_linker_0, # of connection points: 2
#     Edge 24, Type (0, 0), BuildingBlock: ZUJKAS_clean_linker_0, # of connection points: 2
#     Edge 25, Type (0, 0), BuildingBlock: ZUJKAS_clean_linker_0, # of connection points: 2
#     Edge 26, Type (0, 0), BuildingBlock: ZUJKAS_clean_linker_0, # of connection points: 2
#     Edge 27, Type (0, 0), BuildingBlock: ZUJKAS_clean_linker_0, # of connection points: 2
#     Edge 28, Type (0, 0), BuildingBlock: ZUJKAS_clean_linker_0, # of connection points: 2
#     Edge 29, Type (0, 0), BuildingBlock: ZUJKAS_clean_linker_0, # of connection points: 2
#     Edge 30, Type (0, 0), BuildingBlock: ZUJKAS_clean_linker_0, # of connection points: 2
#     Edge 31, Type (0, 0), BuildingBlock: ZUJKAS_clean_linker_0, # of connection points: 2
#     Edge 32, Type (0, 0), BuildingBlock: ZUJKAS_clean_linker_0, # of connection points: 2
#     Edge 33, Type (0, 0), BuildingBlock: ZUJKAS_clean_linker_0, # of connection points: 2
#     Edge 34, Type (0, 0), BuildingBlock: ZUJKAS_clean_linker_0, # of connection points: 2
#     Edge 35, Type (0, 0), BuildingBlock: ZUJKAS_clean_linker_0, # of connection points: 2
#     Edge 36, Type (0, 0), BuildingBlock: ZUJKAS_clean_linker_0, # of connection points: 2
#     Edge 37, Type (0, 0), BuildingBlock: ZUJKAS_clean_linker_0, # of connection points: 2
#     Edge 38, Type (0, 0), BuildingBlock: ZUJKAS_clean_linker_0, # of connection points: 2
#     Edge 39, Type (0, 0), BuildingBlock: ZUJKAS_clean_linker_0, # of connection points: 2
#     Edge 40, Type (0, 0), BuildingBlock: ZUJKAS_clean_linker_0, # of connection points: 2
#     Edge 41, Type (0, 0), BuildingBlock: ZUJKAS_clean_linker_0, # of connection points: 2
# Relax obj value: 0.038
# Max RMSD: 0.098
# Mean RMSD: 0.098
data_MOF--net-wkd--node1-BEQFEK_clean_sbu_0--edge1-ZUJKAS_clean_linker_0
_symmetry_space_group_name_H-M    P1
_symmetry_Int_Tables_number       1
_symmetry_cell_setting            triclinic
loop_
_symmetry_equiv_pos_as_xyz
'x, y, z'
_cell_length_a     30.162371
_cell_length_b     30.165469
_cell_length_c     172.28248
_cell_angle_alpha  89.997054
_cell_angle_beta   89.992768
_cell_angle_gamma 120.00988
loop_
_atom_site_label
_atom_site_type_symbol
_atom_site_fract_x
_atom_site_fract_y
_atom_site_fract_z
_atom_type_partial_charge
Co0 Co 0.98463 0.32443 0.04329 0.0
Co1 Co 0.03242 0.27076 0.05314 0.0
C2 C 0.95078 0.21346 0.04116 0.0
O3 O 0.94828 0.25315 0.03941 0.0
O4 O 0.98113 0.21479 0.04642 0.0
C5 C 0.9087 0.34094 0.03578 0.0
O6 O 0.87945 0.29111 0.03648 0.0
C7 C 0.03476 0.20036 0.06496 0.0
C8 C 0.11788 0.23647 0.06712 0.0
C9 C 0.07096 0.19575 0.06935 0.0
N10 N 0.05932 0.24228 0.06044 0.0
N11 N 0.10898 0.26348 0.06176 0.0
C12 C 0.97811 0.16449 0.0648 0.0
H13 H 0.96125 0.16868 0.05934 0.0
H14 H 0.95998 0.17342 0.06969 0.0
H15 H 0.96943 0.12431 0.06546 0.0
C16 C 0.96822 0.35355 0.05896 0.0
N17 N 0.98255 0.3273 0.05425 0.0
N18 N 0.00386 0.30635 0.05841 0.0
C19 C 0.00448 0.31941 0.06592 0.0
C20 C 0.98165 0.34947 0.06652 0.0
C21 C 0.94751 0.38649 0.0561 0.0
H22 H 0.97453 0.41444 0.05182 0.0
H23 H 0.9106 0.36216 0.05309 0.0
H24 H 0.94159 0.40753 0.0609 0.0
O25 O 0.05647 0.358 0.03974 0.0
O26 O 0.09048 0.31955 0.04647 0.0
H27 H 0.06859 0.31711 0.0708 0.0
H28 H 0.02771 0.32286 0.07795 0.0
C29 C 0.02846 0.3052 0.07234 0.0
H30 H 0.0072 0.26315 0.07309 0.0
H31 H 0.13687 0.29656 0.059 0.0
O32 O 0.95408 0.36258 0.03843 0.0
C33 C 0.09436 0.35218 0.04142 0.0
Co34 Co 0.65296 0.99299 0.20959 0.0
Co35 Co 0.75352 0.04286 0.21956 0.0
C36 C 0.72987 0.95886 0.20799 0.0
O37 O 0.68719 0.95508 0.20618 0.0
O38 O 0.75901 0.991 0.21306 0.0
C39 C 0.55813 0.91548 0.20278 0.0
O40 O 0.57412 0.88385 0.20481 0.0
C41 C 0.82224 0.04329 0.23167 0.0
C42 C 0.871 0.12594 0.23404 0.0
C43 C 0.86219 0.07811 0.23634 0.0
N44 N 0.80829 0.06948 0.2269 0.0
N45 N 0.8379 0.11886 0.2283 0.0
C46 C 0.7946 0.9861 0.23208 0.0
H47 H 0.75576 0.96975 0.22952 0.0
H48 H 0.79167 0.97314 0.23819 0.0
H49 H 0.81617 0.97176 0.2287 0.0
C50 C 0.6061 0.97773 0.22519 0.0
N51 N 0.64702 0.99262 0.22054 0.0
N52 N 0.68903 0.01454 0.22476 0.0
C53 C 0.67606 0.01495 0.23225 0.0
C54 C 0.62306 0.99139 0.23278 0.0
C55 C 0.55193 0.951 0.22237 0.0
H56 H 0.54599 0.97722 0.21855 0.0
H57 H 0.54482 0.91722 0.21888 0.0
H58 H 0.52407 0.93795 0.22722 0.0
O59 O 0.69229 0.06432 0.20574 0.0
O60 O 0.76334 0.10042 0.2128 0.0
H61 H 0.74524 0.07955 0.23642 0.0
H62 H 0.69553 0.05036 0.24362 0.0
C63 C 0.71375 0.04264 0.23861 0.0
H64 H 0.73017 0.01897 0.24062 0.0
H65 H 0.83479 0.1477 0.22544 0.0
O66 O 0.58515 0.96269 0.20446 0.0
C67 C 0.73533 0.10298 0.20748 0.0
Co68 Co 0.64993 0.65972 0.37635 0.0
Co69 Co 0.70066 0.76004 0.38643 0.0
C70 C 0.76119 0.73749 0.37481 0.0
O71 O 0.72198 0.69541 0.37286 0.0
O72 O 0.75862 0.7659 0.38006 0.0
C73 C 0.63433 0.57061 0.3678 0.0
O74 O 0.68457 0.59388 0.36769 0.0
C75 C 0.76797 0.83016 0.39856 0.0
C76 C 0.73234 0.8776 0.40072 0.0
C77 C 0.77213 0.87024 0.40311 0.0
N78 N 0.72766 0.81483 0.39377 0.0
N79 N 0.7068 0.8436 0.39506 0.0
C80 C 0.79885 0.80395 0.39906 0.0
H81 H 0.77711 0.76477 0.39659 0.0
H82 H 0.80931 0.80201 0.40518 0.0
H83 H 0.83451 0.8259 0.39564 0.0
C84 C 0.61983 0.61243 0.39193 0.0
N85 N 0.64505 0.65367 0.38731 0.0
N86 N 0.66473 0.69545 0.39157 0.0
C87 C 0.65171 0.68202 0.39906 0.0
C88 C 0.62303 0.62892 0.39954 0.0
C89 C 0.59337 0.55841 0.38904 0.0
H90 H 0.61858 0.55342 0.38488 0.0
H91 H 0.58342 0.53061 0.39386 0.0
H92 H 0.55795 0.55044 0.38592 0.0
O93 O 0.61709 0.69829 0.37259 0.0
O94 O 0.653 0.76955 0.37959 0.0
H95 H 0.63541 0.70078 0.41046 0.0
H96 H 0.70153 0.73581 0.40749 0.0
C97 C 0.66145 0.71934 0.40547 0.0
H98 H 0.6559 0.75083 0.40332 0.0
H99 H 0.67459 0.83946 0.39215 0.0
O100 O 0.61236 0.59144 0.37131 0.0
C101 C 0.62196 0.74152 0.37433 0.0
Co102 Co 0.98111 0.6563 0.54309 0.0
Co103 Co 0.93143 0.70746 0.55305 0.0
C104 C 0.01432 0.76684 0.54122 0.0
O105 O 0.01859 0.72812 0.5395 0.0
O106 O 0.98228 0.7639 0.54632 0.0
C107 C 0.05769 0.63825 0.53608 0.0
O108 O 0.08961 0.68617 0.53793 0.0
C109 C 0.93045 0.77611 0.56523 0.0
C110 C 0.84738 0.74429 0.56693 0.0
C111 C 0.89482 0.78233 0.56953 0.0
N112 N 0.90501 0.73601 0.56041 0.0
N113 N 0.8554 0.71729 0.56145 0.0
C114 C 0.98753 0.80896 0.56537 0.0
H115 H 0.00451 0.8044 0.55993 0.0
H116 H 0.00315 0.79716 0.57027 0.0
H117 H 0.99881 0.84977 0.56618 0.0
C118 C 0.99735 0.62595 0.55872 0.0
N119 N 0.9824 0.65186 0.55405 0.0
N120 N 0.96032 0.67185 0.55826 0.0
C121 C 0.95968 0.65834 0.56574 0.0
C122 C 0.98343 0.62908 0.56629 0.0
C123 C 0.02393 0.59835 0.5559 0.0
H124 H 0.99719 0.5654 0.55225 0.0
H125 H 0.05701 0.62452 0.55224 0.0
H126 H 0.03794 0.58459 0.56077 0.0
O127 O 0.90936 0.62362 0.53941 0.0
O128 O 0.87348 0.65903 0.54642 0.0
H129 H 0.89446 0.66237 0.56977 0.0
H130 H 0.92248 0.64065 0.57699 0.0
C131 C 0.931 0.66738 0.57206 0.0
H132 H 0.95436 0.7071 0.57423 0.0
H133 H 0.82695 0.686 0.55843 0.0
O134 O 0.01081 0.61821 0.53797 0.0
C135 C 0.87071 0.62796 0.54117 0.0
Co136 Co 0.31158 0.98708 0.70979 0.0
Co137 Co 0.21121 0.93594 0.71982 0.0
C138 C 0.23402 0.02024 0.70831 0.0
O139 O 0.27699 0.02483 0.70646 0.0
O140 O 0.2052 0.98758 0.71336 0.0
C141 C 0.40578 0.0642 0.7027 0.0
O142 O 0.38919 0.09578 0.70445 0.0
C143 C 0.14274 0.93528 0.73199 0.0
C144 C 0.09334 0.85257 0.73425 0.0
C145 C 0.10244 0.90038 0.73661 0.0
N146 N 0.15656 0.90914 0.72719 0.0
N147 N 0.12662 0.85972 0.72852 0.0
C148 C 0.17071 0.99246 0.73246 0.0
H149 H 0.2096 0.00867 0.72992 0.0
H150 H 0.17359 0.00518 0.73858 0.0
H151 H 0.14948 0.0072 0.72908 0.0
C152 C 0.35882 0.00239 0.72537 0.0
N153 N 0.31773 0.9872 0.72074 0.0
N154 N 0.27582 0.96462 0.72498 0.0
C155 C 0.289 0.96399 0.73245 0.0
C156 C 0.34207 0.98816 0.73295 0.0
C157 C 0.41293 0.02989 0.72252 0.0
H158 H 0.41912 0.0628 0.71888 0.0
H159 H 0.44083 0.04426 0.72737 0.0
H160 H 0.41969 0.00363 0.71884 0.0
O161 O 0.2724 0.91579 0.70591 0.0
O162 O 0.20169 0.8786 0.71305 0.0
H163 H 0.26995 0.9273 0.74373 0.0
H164 H 0.23508 0.95886 0.74095 0.0
C165 C 0.25152 0.93551 0.7388 0.0
H166 H 0.22002 0.89881 0.73655 0.0
H167 H 0.12951 0.8309 0.72562 0.0
O168 O 0.37937 0.0174 0.70464 0.0
C169 C 0.22972 0.87669 0.70767 0.0
Co170 Co 0.31608 0.31984 0.8765 0.0
Co171 Co 0.26251 0.21923 0.88645 0.0
C172 C 0.20404 0.24413 0.87483 0.0
O173 O 0.24399 0.28577 0.87293 0.0
O174 O 0.20553 0.21503 0.88006 0.0
C175 C 0.33677 0.4174 0.87022 0.0
O176 O 0.29105 0.40478 0.87285 0.0
C177 C 0.19242 0.14642 0.89814 0.0
C178 C 0.23226 0.10409 0.90115 0.0
C179 C 0.18952 0.10798 0.90296 0.0
N180 N 0.23497 0.16429 0.89377 0.0
N181 N 0.25827 0.13844 0.89555 0.0
C182 C 0.15839 0.16931 0.89809 0.0
H183 H 0.17886 0.20849 0.8956 0.0
H184 H 0.14527 0.17068 0.90406 0.0
H185 H 0.12437 0.1454 0.89443 0.0
C186 C 0.34817 0.36624 0.89215 0.0
N187 N 0.32118 0.32569 0.88745 0.0
N188 N 0.29943 0.28356 0.89166 0.0
C189 C 0.3122 0.2961 0.89917 0.0
C190 C 0.34337 0.34886 0.89973 0.0
C191 C 0.38192 0.41977 0.8893 0.0
H192 H 0.40581 0.41956 0.88442 0.0
H193 H 0.35766 0.43506 0.88709 0.0
H194 H 0.40722 0.44529 0.89395 0.0
O195 O 0.34805 0.28057 0.87279 0.0
O196 O 0.30959 0.20854 0.8796 0.0
H197 H 0.30808 0.22997 0.90447 0.0
H198 H 0.31113 0.2768 0.91135 0.0
C199 C 0.29557 0.25817 0.90567 0.0
H200 H 0.25327 0.23737 0.90605 0.0
H201 H 0.29256 0.14502 0.89305 0.0
O202 O 0.35429 0.38742 0.87136 0.0
C203 C 0.34176 0.2367 0.87446 0.0
Co204 Co 0.64834 0.98557 0.82356 0.0
Co205 Co 0.70426 0.94046 0.81368 0.0
C206 C 0.75954 0.02145 0.82585 0.0
O207 O 0.7194 0.02332 0.82752 0.0
O208 O 0.75902 0.99149 0.82059 0.0
C209 C 0.62685 0.06169 0.82972 0.0
O210 O 0.67283 0.09457 0.82716 0.0
C211 C 0.77728 0.94103 0.80207 0.0
C212 C 0.74237 0.85841 0.79958 0.0
C213 C 0.78323 0.9059 0.79761 0.0
N214 N 0.73447 0.91536 0.80638 0.0
N215 N 0.71398 0.86601 0.80486 0.0
C216 C 0.81269 0.99771 0.80248 0.0
H217 H 0.80463 0.01645 0.79758 0.0
H218 H 0.85311 0.00686 0.80201 0.0
H219 H 0.80708 0.01357 0.80794 0.0
C220 C 0.61818 0.00114 0.80787 0.0
N221 N 0.6454 0.98805 0.81259 0.0
N222 N 0.66806 0.96852 0.80842 0.0
C223 C 0.65562 0.9683 0.80089 0.0
C224 C 0.62377 0.98915 0.80029 0.0
C225 C 0.58282 0.01902 0.8107 0.0
H226 H 0.55918 0.99424 0.81554 0.0
H227 H 0.60584 0.05866 0.81293 0.0
H228 H 0.55716 0.01836 0.80603 0.0
O229 O 0.61616 0.91371 0.82699 0.0
O230 O 0.65555 0.88108 0.82017 0.0
H231 H 0.66026 0.90634 0.79568 0.0
H232 H 0.65715 0.9498 0.78873 0.0
C233 C 0.67255 0.94696 0.79443 0.0
H234 H 0.71482 0.96857 0.79408 0.0
H235 H 0.68049 0.83742 0.80743 0.0
O236 O 0.60917 0.01415 0.82861 0.0
C237 C 0.62258 0.87632 0.82523 0.0
Co238 Co 0.65101 0.65743 0.99026 0.0
Co239 Co 0.75193 0.71074 0.98031 0.0
C240 C 0.72733 0.76848 0.99222 0.0
O241 O 0.68501 0.72894 0.99398 0.0
O242 O 0.75651 0.76679 0.98702 0.0
C243 C 0.55413 0.63775 0.99655 0.0
O244 O 0.56814 0.6841 0.99406 0.0
C245 C 0.82407 0.78099 0.96841 0.0
C246 C 0.8714 0.74522 0.96626 0.0
C247 C 0.86483 0.78565 0.964 0.0
N248 N 0.80707 0.7393 0.97297 0.0
N249 N 0.83573 0.71831 0.97166 0.0
C250 C 0.80302 0.81662 0.96855 0.0
H251 H 0.78217 0.81258 0.97403 0.0
H252 H 0.77571 0.8073 0.96368 0.0
H253 H 0.83434 0.85683 0.96784 0.0
C254 C 0.60483 0.62662 0.97459 0.0
N255 N 0.64542 0.65331 0.97929 0.0
N256 N 0.6876 0.67449 0.9751 0.0
C257 C 0.67511 0.6612 0.9676 0.0
C258 C 0.62227 0.63078 0.96703 0.0
C259 C 0.55117 0.59341 0.97743 0.0
H260 H 0.55085 0.56843 0.98218 0.0
H261 H 0.53678 0.61802 0.97981 0.0
H262 H 0.52521 0.56921 0.97273 0.0
O263 O 0.69045 0.62539 0.99392 0.0
O264 O 0.76195 0.66243 0.98696 0.0
H265 H 0.74185 0.66429 0.9627 0.0
H266 H 0.69478 0.65757 0.95557 0.0
C267 C 0.7132 0.67562 0.96116 0.0
H268 H 0.7335 0.71763 0.96037 0.0
H269 H 0.83082 0.68543 0.97444 0.0
O270 O 0.58317 0.6192 0.99534 0.0
C271 C 0.73388 0.63077 0.99217 0.0
Co272 Co 0.9849 0.66137 0.15674 0.0
Co273 Co 0.03491 0.76285 0.14694 0.0
C274 C 0.95171 0.73939 0.15855 0.0
O275 O 0.94824 0.69675 0.16031 0.0
O276 O 0.98333 0.76864 0.15343 0.0
C277 C 0.90792 0.56897 0.16426 0.0
O278 O 0.87888 0.58981 0.16361 0.0
C279 C 0.03947 0.83637 0.13525 0.0
C280 C 0.1219 0.87828 0.13239 0.0
C281 C 0.07558 0.87479 0.13048 0.0
N282 N 0.06354 0.81813 0.13968 0.0
N283 N 0.11285 0.84372 0.13799 0.0
C284 C 0.98259 0.81381 0.13518 0.0
H285 H 0.96346 0.77458 0.13767 0.0
H286 H 0.96864 0.81264 0.12919 0.0
H287 H 0.97241 0.83782 0.13881 0.0
C288 C 0.96977 0.6158 0.1411 0.0
N289 N 0.98431 0.65644 0.1458 0.0
N290 N 0.00604 0.69871 0.14164 0.0
C291 C 0.00649 0.68618 0.13413 0.0
C292 C 0.98336 0.63325 0.13354 0.0
C293 C 0.9484 0.56207 0.14395 0.0
H294 H 0.9747 0.5609 0.14835 0.0
H295 H 0.9111 0.54963 0.14684 0.0
H296 H 0.943 0.53512 0.13919 0.0
O297 O 0.05631 0.69902 0.16054 0.0
O298 O 0.09176 0.77128 0.15377 0.0
H299 H 0.07056 0.75179 0.12908 0.0
H300 H 0.02788 0.70556 0.12204 0.0
C301 C 0.02999 0.72422 0.12768 0.0
H302 H 0.00935 0.74577 0.12709 0.0
H303 H 0.14018 0.83681 0.14055 0.0
O304 O 0.95327 0.59256 0.16159 0.0
C305 C 0.09471 0.74247 0.1589 0.0
Co306 Co 0.31624 0.99353 0.32336 0.0
Co307 Co 0.26093 0.03888 0.31335 0.0
C308 C 0.2053 0.95914 0.32566 0.0
O309 O 0.24528 0.95706 0.32735 0.0
O310 O 0.20588 0.98867 0.32032 0.0
C311 C 0.33346 0.9178 0.3307 0.0
O312 O 0.28404 0.88774 0.32964 0.0
C313 C 0.18857 0.03848 0.30165 0.0
C314 C 0.22431 0.12099 0.29901 0.0
C315 C 0.18321 0.07356 0.29708 0.0
N316 N 0.23129 0.06411 0.30597 0.0
N317 N 0.25227 0.1134 0.30437 0.0
C318 C 0.15279 0.9819 0.30213 0.0
H319 H 0.15763 0.96642 0.30769 0.0
H320 H 0.16126 0.96261 0.29736 0.0
H321 H 0.11251 0.97296 0.30152 0.0
C322 C 0.34575 0.97656 0.30775 0.0
N323 N 0.31877 0.99031 0.31241 0.0
N324 N 0.29657 0.01003 0.30817 0.0
C325 C 0.30926 0.00991 0.30066 0.0
C326 C 0.34068 0.98854 0.30014 0.0
C327 C 0.38044 0.95816 0.31069 0.0
H328 H 0.40671 0.98532 0.31511 0.0
H329 H 0.3571 0.92044 0.31355 0.0
H330 H 0.40341 0.9545 0.30597 0.0
O331 O 0.34895 0.06564 0.32674 0.0
O332 O 0.31006 0.09822 0.31978 0.0
H333 H 0.30588 0.07244 0.2954 0.0
H334 H 0.30904 0.02882 0.28849 0.0
C335 C 0.29326 0.03175 0.29416 0.0
H336 H 0.25101 0.01055 0.29372 0.0
H337 H 0.28583 0.14194 0.30693 0.0
O338 O 0.35482 0.96382 0.32832 0.0
C339 C 0.34276 0.10307 0.3249 0.0
Co340 Co 0.31337 0.322 0.49022 0.0
Co341 Co 0.21319 0.269 0.4801 0.0
C342 C 0.23658 0.21082 0.49207 0.0
O343 O 0.27918 0.25004 0.49381 0.0
O344 O 0.20755 0.21301 0.48689 0.0
C345 C 0.4108 0.34184 0.49631 0.0
O346 O 0.3984 0.29707 0.49331 0.0
C347 C 0.14011 0.19818 0.4683 0.0
C348 C 0.09596 0.23673 0.46567 0.0
C349 C 0.10039 0.19454 0.46373 0.0
N350 N 0.15858 0.24095 0.47265 0.0
N351 N 0.13182 0.2636 0.47105 0.0
C352 C 0.15894 0.16078 0.46876 0.0
H353 H 0.17869 0.16449 0.47433 0.0
H354 H 0.18673 0.16861 0.46401 0.0
H355 H 0.12663 0.12104 0.46807 0.0
C356 C 0.36078 0.35428 0.47465 0.0
N357 N 0.31992 0.3269 0.47927 0.0
N358 N 0.27812 0.30503 0.475 0.0
C359 C 0.29119 0.31805 0.4675 0.0
C360 C 0.34399 0.34954 0.46703 0.0
C361 C 0.41388 0.38889 0.47759 0.0
H362 H 0.41254 0.41112 0.48263 0.0
H363 H 0.43049 0.36532 0.47958 0.0
H364 H 0.43902 0.41585 0.47306 0.0
O365 O 0.27388 0.35428 0.49379 0.0
O366 O 0.20295 0.31734 0.48669 0.0
H367 H 0.22616 0.31532 0.46204 0.0
H368 H 0.27267 0.31637 0.45528 0.0
C369 C 0.25363 0.3017 0.46096 0.0
H370 H 0.23185 0.25941 0.46067 0.0
H371 H 0.13812 0.29757 0.47363 0.0
O372 O 0.38066 0.35947 0.49547 0.0
C373 C 0.23065 0.34899 0.49193 0.0
Co374 Co 0.9783 0.31902 0.65683 0.0
Co375 Co 0.9302 0.2175 0.64698 0.0
C376 C 0.0105 0.24091 0.65919 0.0
O377 O 0.01445 0.28395 0.66078 0.0
O378 O 0.97954 0.21175 0.654 0.0
C379 C 0.05526 0.41216 0.66404 0.0
O380 O 0.08483 0.3922 0.66302 0.0
C381 C 0.92881 0.14398 0.63539 0.0
C382 C 0.84651 0.10008 0.63249 0.0
C383 C 0.89337 0.10455 0.6307 0.0
N384 N 0.90395 0.1623 0.63964 0.0
N385 N 0.85475 0.13562 0.63789 0.0
C386 C 0.98501 0.16296 0.63603 0.0
H387 H 0.99994 0.18134 0.64173 0.0
H388 H 0.00571 0.19201 0.63147 0.0
H389 H 0.99286 0.13102 0.63523 0.0
C390 C 0.99537 0.36467 0.64117 0.0
N391 N 0.98099 0.32408 0.64588 0.0
N392 N 0.9603 0.28186 0.64171 0.0
C393 C 0.96053 0.29438 0.63418 0.0
C394 C 0.98287 0.34725 0.63359 0.0
C395 C 0.01486 0.41812 0.64404 0.0
H396 H 0.98819 0.41806 0.64848 0.0
H397 H 0.05262 0.43202 0.64686 0.0
H398 H 0.01881 0.44467 0.63929 0.0
O399 O 0.90608 0.28097 0.66027 0.0
O400 O 0.87157 0.209 0.65341 0.0
H401 H 0.89698 0.22926 0.62895 0.0
H402 H 0.9418 0.27484 0.62202 0.0
C403 C 0.93799 0.25625 0.62773 0.0
H404 H 0.95804 0.23403 0.62739 0.0
H405 H 0.82677 0.14195 0.64035 0.0
O406 O 0.00915 0.38774 0.66169 0.0
C407 C 0.86783 0.23773 0.65848 0.0
H408 H 0.80909 0.86393 0.98929 0.0
H409 H 0.842 0.93996 0.99753 0.0
H410 H 0.71915 0.85637 0.01381 0.0
H411 H 0.68509 0.78081 0.00551 0.0
H412 H 0.737 0.95222 0.01196 0.0
H413 H 0.92028 0.95635 0.01729 0.0
H414 H 0.90843 0.96053 0.00719 0.0
H415 H 0.86672 0.90333 0.01255 0.0
C416 C 0.78883 0.86184 0.99459 0.0
C417 C 0.74474 0.81608 0.99677 0.0
C418 C 0.80791 0.90523 0.99932 0.0
C419 C 0.7838 0.90345 0.00639 0.0
C420 C 0.73862 0.85853 0.00841 0.0
H421 H 0.9352 0.11758 0.04427 0.0
H422 H 0.89036 0.04092 0.03619 0.0
C423 C 0.7192 0.81532 0.00365 0.0
C424 C 0.80611 0.94785 0.01177 0.0
H425 H 0.91438 0.02726 0.02195 0.0
C426 C 0.77574 0.96857 0.01416 0.0
C427 C 0.85629 0.96847 0.01478 0.0
C428 C 0.88967 0.94573 0.01289 0.0
C429 C 0.79445 0.00986 0.01937 0.0
C430 C 0.8454 0.03189 0.02211 0.0
C431 C 0.87546 0.01065 0.01981 0.0
C432 C 0.86876 0.07729 0.0273 0.0
C433 C 0.75902 0.02868 0.02201 0.0
C434 C 0.87128 0.12316 0.02503 0.0
C435 C 0.89633 0.16685 0.02967 0.0
C436 C 0.92028 0.16585 0.03663 0.0
C437 C 0.91723 0.1197 0.03894 0.0
C438 C 0.89167 0.07586 0.03433 0.0
H439 H 0.71821 0.99839 0.02144 0.0
H440 H 0.76642 0.04168 0.02815 0.0
H441 H 0.76514 0.06142 0.01832 0.0
H442 H 0.85515 0.12568 0.01954 0.0
H443 H 0.89832 0.20184 0.02767 0.0
H444 H 0.87384 0.68392 0.16878 0.0
H445 H 0.82866 0.7146 0.17697 0.0
H446 H 0.9163 0.86505 0.16688 0.0
H447 H 0.96076 0.83442 0.15852 0.0
H448 H 0.86892 0.78693 0.18796 0.0
H449 H 0.77364 0.844 0.16588 0.0
H450 H 0.80208 0.80536 0.16354 0.0
H451 H 0.84138 0.87384 0.16433 0.0
C452 C 0.88301 0.72337 0.16821 0.0
C453 C 0.92094 0.7567 0.16298 0.0
C454 C 0.85718 0.74086 0.17291 0.0
C455 C 0.86866 0.79198 0.17249 0.0
C456 C 0.90591 0.82515 0.16719 0.0
H457 H 0.82528 0.9688 0.20806 0.0
H458 H 0.85644 0.92451 0.19976 0.0
C459 C 0.93151 0.8076 0.16243 0.0
C460 C 0.84402 0.81133 0.17793 0.0
H461 H 0.77778 0.87562 0.17875 0.0
C462 C 0.84857 0.80591 0.18594 0.0
C463 C 0.81686 0.83546 0.17531 0.0
C464 C 0.80769 0.83956 0.1668 0.0
C465 C 0.8279 0.82514 0.1914 0.0
C466 C 0.80306 0.85161 0.18878 0.0
C467 C 0.7973 0.8558 0.18077 0.0
C468 C 0.78336 0.87595 0.19422 0.0
C469 C 0.83243 0.81637 0.19992 0.0
C470 C 0.73203 0.86382 0.19382 0.0
C471 C 0.71423 0.88954 0.19848 0.0
C472 C 0.74745 0.92801 0.20365 0.0
C473 C 0.79854 0.93914 0.20419 0.0
C474 C 0.8164 0.91364 0.19947 0.0
H475 H 0.83744 0.78268 0.20085 0.0
H476 H 0.86653 0.8504 0.20235 0.0
H477 H 0.79815 0.81038 0.20319 0.0
H478 H 0.70586 0.83494 0.1898 0.0
H479 H 0.67463 0.87992 0.19792 0.0
H480 H 0.77557 0.6968 0.36152 0.0
H481 H 0.8527 0.73071 0.35362 0.0
H482 H 0.93388 0.85198 0.37023 0.0
H483 H 0.85612 0.81913 0.37809 0.0
H484 H 0.94843 0.88885 0.3559 0.0
H485 H 0.98133 0.72418 0.35603 0.0
H486 H 0.91812 0.70626 0.35276 0.0
H487 H 0.93688 0.72844 0.36257 0.0
C488 C 0.80997 0.73028 0.36358 0.0
C489 C 0.80961 0.75525 0.37046 0.0
C490 C 0.85423 0.74944 0.35906 0.0
C491 C 0.8994 0.79342 0.36138 0.0
C492 C 0.89951 0.81784 0.36833 0.0
H493 H 0.19558 0.90756 0.33918 0.0
H494 H 0.12133 0.86706 0.34775 0.0
C495 C 0.85506 0.79898 0.37283 0.0
C496 C 0.94525 0.81593 0.35628 0.0
H497 H 0.02605 0.78799 0.34629 0.0
C498 C 0.96567 0.8669 0.35385 0.0
C499 C 0.96812 0.78751 0.35367 0.0
C500 C 0.95031 0.73376 0.35646 0.0
C501 C 0.00765 0.88995 0.34878 0.0
C502 C 0.0289 0.86074 0.34586 0.0
C503 C 0.00919 0.8101 0.34842 0.0
C504 C 0.07269 0.88263 0.34036 0.0
C505 C 0.02937 0.94569 0.34673 0.0
C506 C 0.06962 0.90353 0.33323 0.0
C507 C 0.11225 0.92726 0.32834 0.0
C508 C 0.15853 0.92974 0.33042 0.0
C509 C 0.16062 0.90648 0.33739 0.0
C510 C 0.11818 0.88328 0.34231 0.0
H511 H 0.01876 0.96588 0.3511 0.0
H512 H 0.07176 0.96571 0.34628 0.0
H513 H 0.01373 0.94859 0.34104 0.0
H514 H 0.03444 0.90214 0.3315 0.0
H515 H 0.10914 0.94426 0.32297 0.0
H516 H 0.14125 0.12544 0.49203 0.0
H517 H 0.10955 0.0507 0.50049 0.0
H518 H 0.25975 0.11209 0.51061 0.0
H519 H 0.29151 0.18776 0.50233 0.0
H520 H 0.13488 0.97749 0.50243 0.0
H521 H 0.1727 0.08914 0.52964 0.0
H522 H 0.17675 0.1167 0.5202 0.0
H523 H 0.22862 0.10906 0.52376 0.0
C524 C 0.16769 0.12299 0.49602 0.0
C525 C 0.2188 0.16294 0.49656 0.0
C526 C 0.14947 0.0802 0.50086 0.0
C527 C 0.18196 0.07636 0.50631 0.0
C528 C 0.23361 0.11493 0.5066 0.0
H529 H 0.0942 0.79156 0.53128 0.0
H530 H 0.13829 0.86749 0.52306 0.0
C531 C 0.25178 0.15799 0.50182 0.0
C532 C 0.16136 0.0323 0.51176 0.0
H533 H 0.14439 0.00081 0.531 0.0
C534 C 0.13701 0.98256 0.50868 0.0
C535 C 0.16349 0.03899 0.51991 0.0
C536 C 0.18633 0.0913 0.52359 0.0
C537 C 0.11471 0.93932 0.51352 0.0
C538 C 0.11805 0.94601 0.52168 0.0
C539 C 0.14239 0.99575 0.52476 0.0
C540 C 0.09445 0.9019 0.52711 0.0
C541 C 0.08635 0.88695 0.50983 0.0
C542 C 0.057 0.89725 0.53241 0.0
C543 C 0.03229 0.85428 0.53722 0.0
C544 C 0.04443 0.81499 0.53679 0.0
C545 C 0.08347 0.82079 0.53169 0.0
C546 C 0.10848 0.86401 0.52694 0.0
H547 H 0.07556 0.88891 0.50373 0.0
H548 H 0.1114 0.86977 0.5098 0.0
H549 H 0.05106 0.86117 0.51313 0.0
H550 H 0.04584 0.92623 0.53268 0.0
H551 H 0.00253 0.85115 0.54108 0.0
H552 H 0.13755 0.00759 0.70833 0.0
H553 H 0.10491 0.05066 0.70005 0.0
H554 H 0.25582 0.14512 0.69044 0.0
H555 H 0.28855 0.1013 0.69853 0.0
H556 H 0.1275 0.14899 0.69841 0.0
H557 H 0.17187 0.0815 0.67111 0.0
H558 H 0.17548 0.05715 0.6805 0.0
H559 H 0.22674 0.11781 0.67717 0.0
C560 C 0.16394 0.03778 0.7045 0.0
C561 C 0.21555 0.05051 0.70402 0.0
C562 C 0.14519 0.06236 0.69976 0.0
C563 C 0.17765 0.10024 0.69448 0.0
C564 C 0.22975 0.11497 0.6943 0.0
H565 H 0.08721 0.29566 0.66965 0.0
H566 H 0.13063 0.26398 0.67805 0.0
C567 C 0.24846 0.0901 0.69898 0.0
C568 C 0.15657 0.12336 0.68907 0.0
H569 H 0.14167 0.14005 0.66983 0.0
C570 C 0.13063 0.14711 0.69216 0.0
C571 C 0.15999 0.12014 0.68091 0.0
C572 C 0.18456 0.09235 0.67721 0.0
C573 C 0.10808 0.16783 0.68732 0.0
C574 C 0.11275 0.16587 0.67916 0.0
C575 C 0.13863 0.14204 0.67608 0.0
C576 C 0.0891 0.18626 0.67372 0.0
C577 C 0.07813 0.19013 0.691 0.0
C578 C 0.05312 0.15374 0.66823 0.0
C579 C 0.02881 0.17191 0.66332 0.0
C580 C 0.03989 0.22299 0.66384 0.0
C581 C 0.07732 0.25595 0.66916 0.0
C582 C 0.10193 0.23783 0.67401 0.0
H583 H 0.06664 0.17631 0.69705 0.0
H584 H 0.10233 0.23244 0.69119 0.0
H585 H 0.04312 0.18029 0.6876 0.0
H586 H 0.0429 0.11388 0.66786 0.0
H587 H 1.0003 0.14548 0.65929 0.0
H588 H 0.85569 0.0365 0.82313 0.0
H589 H 0.93081 0.07979 0.83155 0.0
H590 H 0.84464 0.11665 0.84767 0.0
H591 H 0.76985 0.07485 0.83921 0.0
H592 H 0.94075 0.19578 0.84597 0.0
H593 H 0.94601 0.01733 0.85138 0.0
H594 H 0.95059 0.03342 0.84127 0.0
H595 H 0.89303 0.01752 0.84656 0.0
C596 C 0.8528 0.05415 0.82844 0.0
C597 C 0.80655 0.05171 0.83053 0.0
C598 C 0.8957 0.07857 0.83327 0.0
C599 C 0.89295 0.1003 0.84034 0.0
C600 C 0.84753 0.0998 0.84228 0.0
H601 H 0.10815 0.16452 0.87817 0.0
H602 H 0.03082 0.13261 0.87025 0.0
C603 C 0.80478 0.07584 0.83742 0.0
C604 C 0.93694 0.12256 0.8458 0.0
H605 H 0.01672 0.09445 0.85602 0.0
C606 C 0.95728 0.1736 0.84819 0.0
C607 C 0.95777 0.09327 0.84883 0.0
C608 C 0.93543 0.03721 0.84695 0.0
C609 C 0.99855 0.19647 0.85341 0.0
C610 C 0.02088 0.16785 0.85616 0.0
C611 C 0.99988 0.11654 0.85387 0.0
C612 C 0.06653 0.19029 0.8613 0.0
C613 C 0.01712 0.25071 0.85602 0.0
C614 C 0.11224 0.23361 0.85896 0.0
C615 C 0.15633 0.25228 0.86351 0.0
C616 C 0.15591 0.22744 0.87045 0.0
C617 C 0.10986 0.18453 0.87286 0.0
C618 C 0.06562 0.1662 0.86833 0.0
H619 H 0.98661 0.26093 0.85546 0.0
H620 H 0.03033 0.25654 0.86214 0.0
H621 H 0.04966 0.27739 0.8523 0.0
H622 H 0.11435 0.25209 0.85347 0.0
H623 H 0.19121 0.28514 0.86144 0.0
H624 H 0.13231 0.1557 0.07212 0.0
H625 H 0.12524 0.0975 0.08255 0.0
H626 H 0.98811 0.09311 0.09079 0.0
H627 H 0.99503 0.15138 0.08039 0.0
H628 H 0.12766 0.11681 0.09818 0.0
H629 H 0.9454 0.94143 0.09044 0.0
H630 H 0.97988 0.99331 0.08368 0.0
H631 H 0.94154 0.99881 0.09118 0.0
C632 C 0.10024 0.14177 0.07609 0.0
C633 C 0.06361 0.15728 0.07532 0.0
C634 C 0.09625 0.10853 0.08204 0.0
C635 C 0.05569 0.09027 0.08738 0.0
C636 C 0.0189 0.10553 0.08662 0.0
H637 H 0.00582 0.90881 0.12967 0.0
H638 H 0.99783 0.96023 0.11934 0.0
C639 C 0.02278 0.1387 0.08063 0.0
C640 C 0.05421 0.05808 0.094 0.0
H641 H 0.98385 0.94011 0.10237 0.0
C642 C 0.09619 0.07818 0.09909 0.0
C643 C 0.01291 0.00784 0.09522 0.0
C644 C 0.9675 0.98375 0.08982 0.0
C645 C 0.09829 0.04931 0.10531 0.0
C646 C 0.0576 0.99874 0.10643 0.0
C647 C 0.01497 0.97893 0.10148 0.0
C648 C 0.06018 0.96521 0.11248 0.0
C649 C 0.14406 0.07315 0.11065 0.0
C650 C 0.09726 0.95031 0.11196 0.0
C651 C 0.10151 0.92048 0.11778 0.0
C652 C 0.06847 0.90451 0.12422 0.0
C653 C 0.03088 0.91902 0.12469 0.0
C654 C 0.02655 0.94886 0.11883 0.0
H655 H 0.1654 0.11558 0.1102 0.0
H656 H 0.13222 0.06226 0.11678 0.0
H657 H 0.17056 0.05912 0.10905 0.0
H658 H 0.1232 0.96207 0.10705 0.0
H659 H 0.13078 0.90988 0.11722 0.0
H660 H 0.88794 0.00256 0.23764 0.0
H661 H 0.93397 0.98982 0.24832 0.0
H662 H 0.94689 0.12224 0.25999 0.0
H663 H 0.89949 0.13416 0.24949 0.0
H664 H 0.03219 0.05721 0.25336 0.0
H665 H 0.89409 0.01578 0.27725 0.0
H666 H 0.87674 0.01303 0.26716 0.0
H667 H 0.90957 0.07355 0.27213 0.0
C668 C 0.8992 0.02805 0.24258 0.0
C669 C 0.88889 0.06864 0.2428 0.0
C670 C 0.92602 0.02104 0.24864 0.0
C671 C 0.94287 0.05439 0.25503 0.0
C672 C 0.93307 0.09521 0.25522 0.0
H673 H 0.14255 0.13418 0.29407 0.0
H674 H 0.08167 0.12389 0.28387 0.0
C675 C 0.90638 0.10224 0.24917 0.0
C676 C 0.97338 0.04873 0.26131 0.0
H677 H 0.97989 0.04006 0.281 0.0
C678 C 0.02045 0.05264 0.25939 0.0
C679 C 0.95792 0.04273 0.26917 0.0
C680 C 0.90657 0.03551 0.27156 0.0
C681 C 0.05358 0.05317 0.26517 0.0
C682 C 0.03886 0.04897 0.27305 0.0
C683 C 0.99113 0.04347 0.27495 0.0
C684 C 0.07374 0.05321 0.27943 0.0
C685 C 0.10501 0.06044 0.26282 0.0
C686 C 0.08889 0.01648 0.28038 0.0
C687 C 0.1237 0.02227 0.28621 0.0
C688 C 0.14359 0.0647 0.29123 0.0
C689 C 0.12775 0.101 0.29031 0.0
C690 C 0.0929 0.09511 0.28451 0.0
H691 H 0.11445 0.07284 0.25668 0.0
H692 H 0.13579 0.08927 0.26659 0.0
H693 H 0.10461 0.02366 0.26351 0.0
H694 H 0.0743 0.98369 0.27654 0.0
H695 H 0.13622 0.99444 0.28659 0.0
H696 H 0.99991 0.15828 0.46064 0.0
H697 H 0.94788 0.09898 0.45039 0.0
H698 H 0.0773 0.08563 0.443 0.0
H699 H 0.12962 0.14514 0.45321 0.0
H700 H 0.96722 0.11435 0.43463 0.0
H701 H 0.96241 0.93575 0.44408 0.0
H702 H 0.98128 0.98964 0.45049 0.0
H703 H 0.02515 0.99117 0.4433 0.0
C704 C 0.01712 0.1422 0.4569 0.0
C705 C 0.06859 0.15555 0.45786 0.0
C706 C 0.98735 0.10832 0.45104 0.0
C707 C 0.00844 0.08719 0.44601 0.0
C708 C 0.05982 0.10032 0.44695 0.0
H709 H 0.87398 0.89739 0.40457 0.0
H710 H 0.93331 0.94872 0.4149 0.0
C711 C 0.08965 0.13419 0.45283 0.0
C712 C 0.97732 0.05418 0.43948 0.0
H713 H 0.92447 0.93344 0.43194 0.0
C714 C 0.9579 0.07481 0.43405 0.0
C715 C 0.96559 0.00273 0.43869 0.0
C716 C 0.98428 0.9782 0.44447 0.0
C717 C 0.92669 0.0453 0.42789 0.0
C718 C 0.91395 0.99355 0.4272 0.0
C719 C 0.93431 0.97315 0.4325 0.0
C720 C 0.87754 0.95966 0.42121 0.0
C721 C 0.90761 0.06976 0.42215 0.0
C722 C 0.82638 0.94802 0.42143 0.0
C723 C 0.7923 0.91826 0.4156 0.0
C724 C 0.80851 0.89908 0.40946 0.0
C725 C 0.85969 0.91012 0.40932 0.0
C726 C 0.89385 0.93991 0.41518 0.0
H727 H 0.93083 0.11222 0.42233 0.0
H728 H 0.90829 0.05668 0.41615 0.0
H729 H 0.86746 0.05848 0.42359 0.0
H730 H 0.81291 0.96242 0.42609 0.0
H731 H 0.75314 0.91039 0.4159 0.0
H732 H 0.97509 0.13421 0.62073 0.0
H733 H 0.98476 0.08281 0.61064 0.0
H734 H 0.83739 0.9546 0.61666 0.0
H735 H 0.82842 0.00511 0.627 0.0
H736 H 0.91069 0.92645 0.6141 0.0
H737 H 0.90766 0.04783 0.59007 0.0
H738 H 0.95658 0.08134 0.59722 0.0
H739 H 0.89034 0.05337 0.5999 0.0
C740 C 0.94539 0.0947 0.62008 0.0
C741 C 0.90141 0.07346 0.62479 0.0
C742 C 0.95058 0.06561 0.6142 0.0
C743 C 0.91155 0.01505 0.61284 0.0
C744 C 0.86799 0.99355 0.6176 0.0
H745 H 0.83454 0.82325 0.57261 0.0
H746 H 0.84297 0.88127 0.58313 0.0
C747 C 0.86285 0.02252 0.62349 0.0
C748 C 0.91522 0.98459 0.60636 0.0
H749 H 0.92014 0.97916 0.58659 0.0
C750 C 0.91305 0.93806 0.60808 0.0
C751 C 0.91771 0.9996 0.59851 0.0
C752 C 0.91776 0.04801 0.59628 0.0
C753 C 0.91277 0.90583 0.60217 0.0
C754 C 0.91566 0.92103 0.59433 0.0
C755 C 0.91838 0.96782 0.59261 0.0
C756 C 0.9124 0.88739 0.5878 0.0
C757 C 0.90745 0.85495 0.60437 0.0
C758 C 0.949 0.87203 0.58687 0.0
C759 C 0.94408 0.83852 0.58087 0.0
C760 C 0.90286 0.82038 0.57563 0.0
C761 C 0.8668 0.83658 0.57653 0.0
C762 C 0.87166 0.8699 0.58252 0.0
H763 H 0.89381 0.84402 0.61044 0.0
H764 H 0.88037 0.82415 0.60043 0.0
H765 H 0.94531 0.85745 0.60387 0.0
H766 H 0.98107 0.88549 0.59082 0.0
H767 H 0.97168 0.82572 0.58053 0.0
H768 H 0.06278 0.84293 0.74958 0.0
H769 H 0.01455 0.85446 0.76 0.0
H770 H 0.03212 0.9898 0.74867 0.0
H771 H 0.07863 0.97736 0.73806 0.0
H772 H 0.04323 0.93645 0.77015 0.0
H773 H 0.87749 0.90377 0.75189 0.0
H774 H 0.9251 0.88852 0.74859 0.0
H775 H 0.93886 0.95376 0.74861 0.0
C776 C 0.05637 0.87517 0.7493 0.0
C777 C 0.07526 0.90962 0.74303 0.0
C778 C 0.02899 0.88182 0.75528 0.0
C779 C 0.01942 0.92276 0.75509 0.0
C780 C 0.03862 0.95763 0.74889 0.0
H781 H 0.82892 0.98357 0.78688 0.0
H782 H 0.89127 0.99412 0.77691 0.0
C783 C 0.06602 0.95093 0.74289 0.0
C784 C 0.98878 0.92815 0.76137 0.0
H785 H 0.87499 0.92293 0.76508 0.0
C786 C 0.00657 0.93377 0.76904 0.0
C787 C 0.94101 0.92479 0.75991 0.0
C788 C 0.91911 0.91696 0.75182 0.0
C789 C 0.9776 0.93547 0.7753 0.0
C790 C 0.92925 0.9307 0.77385 0.0
C791 C 0.91212 0.92662 0.76617 0.0
C792 C 0.89445 0.92662 0.78024 0.0
C793 C 0.99891 0.94224 0.78341 0.0
C794 C 0.87538 0.88505 0.78539 0.0
C795 C 0.84006 0.87915 0.79112 0.0
C796 C 0.82327 0.91481 0.79184 0.0
C797 C 0.84243 0.95647 0.78668 0.0
C798 C 0.87763 0.96223 0.78091 0.0
H799 H 0.04124 0.95972 0.78336 0.0
H800 H 0.98873 0.96658 0.78696 0.0
H801 H 0.98246 0.90422 0.78624 0.0
H802 H 0.88692 0.85646 0.78486 0.0
H803 H 0.82554 0.84637 0.79496 0.0
H804 H 0.83236 0.82894 0.95291 0.0
H805 H 0.88307 0.88637 0.94236 0.0
H806 H 0.01672 0.88397 0.95066 0.0
H807 H 0.96634 0.8267 0.96122 0.0
H808 H 0.97272 0.98339 0.94219 0.0
H809 H 0.00468 0.83638 0.92817 0.0
H810 H 0.95763 0.82102 0.93571 0.0
H811 H 0.02409 0.84709 0.93816 0.0
C812 C 0.87278 0.84161 0.95262 0.0
C813 C 0.89551 0.82378 0.95797 0.0
C814 C 0.90161 0.87406 0.94653 0.0
C815 C 0.95345 0.88878 0.94566 0.0
C816 C 0.97652 0.87224 0.95113 0.0
H817 H 0.20846 0.07231 0.91626 0.0
H818 H 0.14795 0.02048 0.92638 0.0
C819 C 0.94775 0.83972 0.95718 0.0
C820 C 0.98343 0.92044 0.93895 0.0
H821 H 0.05632 0.92215 0.92366 0.0
C822 C 0.99057 0.96989 0.93808 0.0
C823 C 0.00626 0.9025 0.93356 0.0
C824 C 0.99741 0.84866 0.93388 0.0
C825 C 0.02191 0.00271 0.93216 0.0
C826 C 0.04623 0.98534 0.92696 0.0
C827 C 0.03786 0.93543 0.9277 0.0
C828 C 0.0826 0.01897 0.92095 0.0
C829 C 0.03033 0.0563 0.93165 0.0
C830 C 0.06577 0.03507 0.91451 0.0
C831 C 0.10032 0.06455 0.90866 0.0
C832 C 0.15229 0.07861 0.90919 0.0
C833 C 0.16876 0.06231 0.91567 0.0
C834 C 0.1343 0.0328 0.92147 0.0
H835 H 0.01507 0.06641 0.93681 0.0
H836 H 0.0718 0.08452 0.93107 0.0
H837 H 0.01077 0.05956 0.92641 0.0
H838 H 0.02574 0.02378 0.91392 0.0
H839 H 0.08585 0.07476 0.90364 0.0
H840 H 0.52091 0.54682 0.00409 0.0
H841 H 0.44272 0.49881 0.01174 0.0
H842 H 0.40011 0.61251 0.00669 0.0
H843 H 0.47847 0.66115 0.99904 0.0
H844 H 0.41232 0.54202 0.02511 0.0
H845 H 0.27302 0.46802 1.00067 0.0
H846 H 0.34006 0.48867 0.9994 0.0
H847 H 0.32007 0.53516 1.00056 0.0
C848 C 0.49484 0.56157 0.00456 0.0
C849 C 0.5059 0.60784 1.00094 0.0
C850 C 0.45027 0.53412 0.00895 0.0
C851 C 0.41569 0.55205 0.00973 0.0
C852 C 0.42626 0.59792 0.00609 0.0
H853 H 0.12061 0.43399 0.03188 0.0
H854 H 0.1999 0.48331 0.02458 0.0
C855 C 0.47106 0.62567 1.00174 0.0
C856 C 0.36908 0.52325 0.0145 0.0
H857 H 0.23904 0.45048 0.01336 0.0
C858 C 0.37436 0.52186 0.02257 0.0
C859 C 0.31985 0.4973 0.01112 0.0
C860 C 0.31253 0.49685 1.00246 0.0
C861 C 0.33138 0.49578 0.0274 0.0
C862 C 0.282 0.46934 0.02402 0.0
C863 C 0.27689 0.47074 0.01594 0.0
C864 C 0.23496 0.44039 0.02876 0.0
C865 C 0.33923 0.49796 0.03607 0.0
C866 C 0.22825 0.39977 0.03354 0.0
C867 C 0.18303 0.37168 0.03779 0.0
C868 C 0.14336 0.38323 0.03723 0.0
C869 C 0.15029 0.42396 0.03243 0.0
C870 C 0.19561 0.45221 0.02825 0.0
H871 H 0.37677 0.53105 0.03778 0.0
H872 H 0.30844 0.50071 0.03918 0.0
H873 H 0.33854 0.46253 0.03801 0.0
H874 H 0.25759 0.38916 0.03388 0.0
H875 H 0.17878 0.3403 0.04137 0.0
H876 H 0.81583 0.51163 0.17159 0.0
H877 H 0.7869 0.43241 0.17894 0.0
H878 H 0.92859 0.43615 0.17375 0.0
H879 H 0.95768 0.51499 0.16633 0.0
H880 H 0.8412 0.33951 0.1717 0.0
H881 H 0.84135 0.42291 0.20045 0.0
H882 H 0.80482 0.43262 0.1931 0.0
H883 H 0.87305 0.46186 0.19206 0.0
C884 C 0.84081 0.49556 0.172 0.0
C885 C 0.88921 0.51983 0.16841 0.0
C886 C 0.82434 0.45047 0.17624 0.0
C887 C 0.856 0.42897 0.177 0.0
C888 C 0.90375 0.45237 0.17328 0.0
H889 H 0.82395 0.19458 0.20964 0.0
H890 H 0.85403 0.27362 0.20218 0.0
C891 C 0.92029 0.49745 0.16904 0.0
C892 C 0.83928 0.38186 0.18163 0.0
H893 H 0.80568 0.33274 0.19993 0.0
C894 C 0.8335 0.33799 0.17787 0.0
C895 C 0.83002 0.38031 0.1897 0.0
C896 C 0.83803 0.42702 0.1941 0.0
C897 C 0.81774 0.29224 0.18196 0.0
C898 C 0.8069 0.29023 0.18998 0.0
C899 C 0.81361 0.33435 0.19377 0.0
C900 C 0.78837 0.24257 0.19454 0.0
C901 C 0.81346 0.24661 0.17768 0.0
C902 C 0.74114 0.19929 0.19278 0.0
C903 C 0.7238 0.15414 0.19702 0.0
C904 C 0.75332 0.15143 0.20313 0.0
C905 C 0.80033 0.19523 0.20496 0.0
C906 C 0.81758 0.24044 0.20071 0.0
H907 H 0.83515 0.25795 0.17213 0.0
H908 H 0.82779 0.22596 0.1813 0.0
H909 H 0.77263 0.21971 0.17631 0.0
H910 H 0.71759 0.20047 0.18813 0.0
H911 H 0.68731 0.1213 0.19547 0.0
H912 H 0.2988 0.82415 0.3375 0.0
H913 H 0.34843 0.79497 0.34496 0.0
H914 H 0.48563 0.93985 0.34103 0.0
H915 H 0.43652 0.96928 0.3335 0.0
H916 H 0.49739 0.85362 0.33859 0.0
H917 H 0.406 0.84491 0.36698 0.0
H918 H 0.36206 0.8101 0.35928 0.0
H919 H 0.40055 0.87861 0.3587 0.0
C920 C 0.33955 0.8498 0.3382 0.0
C921 C 0.36365 0.89917 0.33494 0.0
C922 C 0.36776 0.83316 0.34251 0.0
C923 C 0.42048 0.8656 0.34365 0.0
C924 C 0.44488 0.9144 0.34026 0.0
H925 H 0.61828 0.82955 0.37671 0.0
H926 H 0.57018 0.86054 0.36923 0.0
C927 C 0.41673 0.93113 0.33596 0.0
C928 C 0.45036 0.84855 0.34833 0.0
H929 H 0.46188 0.81083 0.36655 0.0
C930 C 0.48975 0.84435 0.34471 0.0
C931 C 0.44067 0.83719 0.35633 0.0
C932 C 0.40034 0.84331 0.36059 0.0
C933 C 0.51913 0.82807 0.34884 0.0
C934 C 0.50837 0.81519 0.35678 0.0
C935 C 0.46968 0.82036 0.36045 0.0
C936 C 0.5368 0.79602 0.36137 0.0
C937 C 0.5618 0.82531 0.34471 0.0
C938 C 0.53318 0.74911 0.35949 0.0
C939 C 0.56043 0.73121 0.36375 0.0
C940 C 0.59181 0.7599 0.36999 0.0
C941 C 0.59466 0.80658 0.37193 0.0
C942 C 0.5672 0.82435 0.36767 0.0
H943 H 0.57299 0.84788 0.33925 0.0
H944 H 0.59606 0.83956 0.3485 0.0
H945 H 0.54883 0.78484 0.34322 0.0
H946 H 0.5092 0.72629 0.35472 0.0
H947 H 0.55713 0.69503 0.3621 0.0
H948 H 0.84774 0.55092 0.53077 0.0
H949 H 0.76884 0.50212 0.52333 0.0
H950 H 0.70471 0.58575 0.53433 0.0
H951 H 0.78353 0.63493 0.54184 0.0
H952 H 0.66311 0.44136 0.52948 0.0
H953 H 0.69413 0.60252 0.51021 0.0
H954 H 0.74556 0.60249 0.51557 0.0
H955 H 0.7005 0.61505 0.52048 0.0
C956 C 0.8169 0.559 0.53164 0.0
C957 C 0.8221 0.59708 0.53689 0.0
C958 C 0.77184 0.53098 0.52738 0.0
C959 C 0.73135 0.5408 0.52823 0.0
C960 C 0.73591 0.57812 0.53354 0.0
H961 H 0.43978 0.42749 0.50506 0.0
H962 H 0.51709 0.47415 0.5129 0.0
C963 C 0.78088 0.606 0.53784 0.0
C964 C 0.68437 0.51195 0.52353 0.0
H965 H 0.61637 0.52478 0.50875 0.0
C966 C 0.65278 0.45943 0.52493 0.0
C967 C 0.6712 0.53588 0.51764 0.0
C968 C 0.70466 0.59202 0.51581 0.0
C969 C 0.60765 0.43018 0.52066 0.0
C970 C 0.59467 0.45396 0.51469 0.0
C971 C 0.62642 0.50658 0.51331 0.0
C972 C 0.54793 0.42524 0.50989 0.0
C973 C 0.57371 0.37448 0.52273 0.0
C974 C 0.53989 0.38264 0.50549 0.0
C975 C 0.49541 0.35552 0.50105 0.0
C976 C 0.45857 0.37104 0.50083 0.0
C977 C 0.46736 0.41446 0.5051 0.0
C978 C 0.51155 0.44121 0.50959 0.0
H979 H 0.58117 0.36618 0.52872 0.0
H980 H 0.5326 0.36289 0.52225 0.0
H981 H 0.58151 0.35059 0.51868 0.0
H982 H 0.5681 0.37044 0.50547 0.0
H983 H 0.49001 0.32254 0.49777 0.0
H984 H 0.00479 0.46485 0.66674 0.0
H985 H 0.03555 0.54452 0.67401 0.0
H986 H 0.17989 0.55101 0.67791 0.0
H987 H 0.14934 0.47101 0.67071 0.0
H988 H 0.13573 0.56625 0.6914 0.0
H989 H 0.1424 0.6903 0.66708 0.0
H990 H 0.08232 0.6319 0.66816 0.0
H991 H 0.13863 0.62928 0.66554 0.0
C992 C 0.04321 0.48334 0.6691 0.0
C993 C 0.07466 0.46159 0.66814 0.0
C994 C 0.06079 0.529 0.67322 0.0
C995 C 0.11017 0.55389 0.67642 0.0
C996 C 0.14171 0.53242 0.67546 0.0
H997 H 0.27701 0.86029 0.69537 0.0
H998 H 0.2479 0.7813 0.68802 0.0
C999 C 0.12421 0.48678 0.67133 0.0
C1000 C 0.12833 0.60147 0.68099 0.0
H1001 H 0.15464 0.72526 0.67976 0.0
C1002 C 0.14001 0.60109 0.68887 0.0
C1003 C 0.13423 0.64689 0.67763 0.0
C1004 C 0.1242 0.65001 0.66912 0.0
C1005 C 0.15685 0.64485 0.69351 0.0
C1006 C 0.16156 0.68989 0.6902 0.0
C1007 C 0.15053 0.69047 0.6823 0.0
C1008 C 0.17905 0.73727 0.69478 0.0
C1009 C 0.17025 0.64283 0.70189 0.0
C1010 C 0.14973 0.73871 0.701 0.0
C1011 C 0.16621 0.78387 0.70523 0.0
C1012 C 0.21229 0.82844 0.7033 0.0
C1013 C 0.24143 0.82672 0.69704 0.0
C1014 C 0.22484 0.78163 0.69282 0.0
H1015 H 0.17566 0.60961 0.70306 0.0
H1016 H 0.20575 0.67849 0.70355 0.0
H1017 H 0.13872 0.63919 0.70565 0.0
H1018 H 0.11384 0.70503 0.70253 0.0
H1019 H 0.14273 0.78387 0.70999 0.0
H1020 H 0.32938 0.14016 0.87453 0.0
H1021 H 0.37825 0.10965 0.86711 0.0
H1022 H 0.47104 0.26031 0.85737 0.0
H1023 H 0.42261 0.2912 0.8647 0.0
H1024 H 0.39193 0.1186 0.84979 0.0
H1025 H 0.57384 0.21706 0.86653 0.0
H1026 H 0.51316 0.204 0.87057 0.0
H1027 H 0.54608 0.25546 0.86378 0.0
C1028 C 0.36039 0.1669 0.87085 0.0
C1029 C 0.37207 0.21814 0.87022 0.0
C1030 C 0.38815 0.14936 0.86661 0.0
C1031 C 0.4284 0.18291 0.86176 0.0
C1032 C 0.44043 0.23405 0.86115 0.0
H1033 H 0.64809 0.16025 0.83201 0.0
H1034 H 0.59823 0.18894 0.83954 0.0
C1035 C 0.41253 0.25152 0.86533 0.0
C1036 C 0.45694 0.16427 0.8571 0.0
H1037 H 0.57471 0.17595 0.8549 0.0
C1038 C 0.43181 0.13079 0.85092 0.0
C1039 C 0.50899 0.1808 0.85857 0.0
C1040 C 0.53724 0.21605 0.86525 0.0
C1041 C 0.45775 0.11403 0.84604 0.0
C1042 C 0.50984 0.13023 0.84753 0.0
C1043 C 0.53484 0.16364 0.85375 0.0
C1044 C 0.53904 0.11262 0.84277 0.0
C1045 C 0.42949 0.08033 0.83921 0.0
C1046 C 0.52249 0.06026 0.84213 0.0
C1047 C 0.5506 0.04376 0.83778 0.0
C1048 C 0.59631 0.07938 0.83409 0.0
C1049 C 0.61303 0.13185 0.83478 0.0
C1050 C 0.58462 0.14831 0.83908 0.0
H1051 H 0.39595 0.08414 0.83755 0.0
H1052 H 0.45498 0.0897 0.83408 0.0
H1053 H 0.41514 0.03974 0.84079 0.0
H1054 H 0.48817 0.03211 0.84509 0.0
H1055 H 0.53687 0.00307 0.83743 0.0
H1056 H 0.63485 0.79205 0.82504 0.0
H1057 H 0.58561 0.71223 0.83237 0.0
H1058 H 0.49191 0.7693 0.84201 0.0
H1059 H 0.54062 0.84895 0.83478 0.0
H1060 H 0.57204 0.70643 0.84947 0.0
H1061 H 0.38895 0.62397 0.83309 0.0
H1062 H 0.44925 0.67222 0.82904 0.0
H1063 H 0.41624 0.68986 0.83595 0.0
C1064 C 0.6035 0.78746 0.82867 0.0
C1065 C 0.59171 0.82692 0.82932 0.0
C1066 C 0.57553 0.74192 0.83286 0.0
C1067 C 0.53493 0.73486 0.83766 0.0
C1068 C 0.52272 0.77384 0.83826 0.0
H1069 H 0.31654 0.49544 0.86793 0.0
H1070 H 0.36635 0.57327 0.86023 0.0
C1071 C 0.5508 0.81943 0.83413 0.0
C1072 C 0.50647 0.68767 0.84233 0.0
H1073 H 0.3882 0.58266 0.84482 0.0
C1074 C 0.53194 0.67908 0.84844 0.0
C1075 C 0.45412 0.65256 0.84098 0.0
C1076 C 0.42542 0.65967 0.83438 0.0
C1077 C 0.50607 0.63666 0.85338 0.0
C1078 C 0.45365 0.60128 0.85202 0.0
C1079 C 0.42832 0.60985 0.84586 0.0
C1080 C 0.42442 0.55485 0.85686 0.0
C1081 C 0.53479 0.63107 0.86013 0.0
C1082 C 0.44033 0.51853 0.85748 0.0
C1083 C 0.41228 0.47436 0.86193 0.0
C1084 C 0.36722 0.46518 0.86575 0.0
C1085 C 0.3511 0.50141 0.86507 0.0
C1086 C 0.37947 0.54585 0.86067 0.0
H1087 H 0.56886 0.66825 0.8617 0.0
H1088 H 0.50983 0.6155 0.86532 0.0
H1089 H 0.54839 0.60429 0.8585 0.0
H1090 H 0.47411 0.52397 0.85444 0.0
H1091 H 0.42553 0.44702 0.86226 0.0
H1092 H 0.95921 0.44453 0.03345 0.0
H1093 H 0.9298 0.49416 0.02606 0.0
H1094 H 0.78702 0.35642 0.02129 0.0
H1095 H 0.81624 0.30624 0.02859 0.0
H1096 H 0.83404 0.41816 0.00809 0.0
H1097 H 0.82068 0.53089 0.03256 0.0
H1098 H 0.88121 0.53326 0.03172 0.0
H1099 H 0.82468 0.47372 0.03403 0.0
C1100 C 0.9214 0.42476 0.03087 0.0
C1101 C 0.89002 0.37139 0.03162 0.0
C1102 C 0.9046 0.45326 0.02668 0.0
C1103 C 0.85606 0.42901 0.0232 0.0
C1104 C 0.82458 0.37583 0.02395 0.0
H1105 H 0.68643 0.56399 0.00413 0.0
H1106 H 0.71709 0.51508 0.01137 0.0
C1107 C 0.8413 0.34727 0.02815 0.0
C1108 C 0.83862 0.45888 0.0186 0.0
H1109 H 0.8098 0.5546 0.01989 0.0
C1110 C 0.82867 0.44798 0.01066 0.0
C1111 C 0.83134 0.49745 0.022 0.0
C1112 C 0.83957 0.50938 0.03056 0.0
C1113 C 0.81197 0.47496 0.006 0.0
C1114 C 0.80561 0.51415 0.00937 0.0
C1115 C 0.81518 0.52479 0.01732 0.0
C1116 C 0.78724 0.5434 0.00481 0.0
C1117 C 0.8003 0.4607 0.99755 0.0
C1118 C 0.81674 0.57573 0.99873 0.0
C1119 C 0.79936 0.6039 0.99456 0.0
C1120 C 0.7522 0.60026 0.99642 0.0
C1121 C 0.72285 0.5677 1.00252 0.0
C1122 C 0.74031 0.53974 0.00668 0.0
H1123 H 0.79666 0.42292 0.99627 0.0
H1124 H 0.76429 0.45958 0.99581 0.0
H1125 H 0.83181 0.49 0.99394 0.0
H1126 H 0.85345 0.57961 0.99728 0.0
H1127 H 0.82301 0.62872 0.98993 0.0
H1128 H 0.48372 0.81621 0.20011 0.0
H1129 H 0.40477 0.78596 0.19264 0.0
H1130 H 0.44509 0.94216 0.18792 0.0
H1131 H 0.52316 0.97268 0.19557 0.0
H1132 H 0.34639 0.88546 0.19191 0.0
H1133 H 0.39163 0.78274 0.16938 0.0
H1134 H 0.39254 0.76103 0.17904 0.0
H1135 H 0.43861 0.82553 0.17627 0.0
C1136 C 0.47578 0.84411 0.19748 0.0
C1137 C 0.50983 0.89683 0.1984 0.0
C1138 C 0.43082 0.82675 0.19316 0.0
C1139 C 0.41957 0.86179 0.18958 0.0
C1140 C 0.45314 0.91443 0.19059 0.0
H1141 H 0.18033 0.83784 0.15873 0.0
H1142 H 0.25939 0.8671 0.16616 0.0
C1143 C 0.49777 0.9318 0.19497 0.0
C1144 C 0.37237 0.84382 0.18488 0.0
H1145 H 0.30709 0.76997 0.16928 0.0
C1146 C 0.33798 0.86045 0.18694 0.0
C1147 C 0.36151 0.81131 0.17837 0.0
C1148 C 0.39825 0.7945 0.17558 0.0
C1149 C 0.29271 0.84484 0.18273 0.0
C1150 C 0.28165 0.81187 0.17631 0.0
C1151 C 0.31583 0.79517 0.17424 0.0
C1152 C 0.23441 0.79404 0.17171 0.0
C1153 C 0.25652 0.86303 0.18523 0.0
C1154 C 0.19473 0.74315 0.17231 0.0
C1155 C 0.14946 0.72634 0.16811 0.0
C1156 C 0.14334 0.76006 0.16317 0.0
C1157 C 0.18375 0.81089 0.16248 0.0
C1158 C 0.22886 0.82774 0.16673 0.0
H1159 H 0.26694 0.8823 0.19097 0.0
H1160 H 0.25738 0.8906 0.18088 0.0
H1161 H 0.21668 0.83034 0.18551 0.0
H1162 H 0.19855 0.71662 0.17611 0.0
H1163 H 0.11926 0.68691 0.16876 0.0
H1164 H 0.66895 0.5177 0.35923 0.0
H1165 H 0.61798 0.43914 0.35179 0.0
H1166 H 0.47944 0.43509 0.3592 0.0
H1167 H 0.52997 0.51327 0.36674 0.0
H1168 H 0.47469 0.3408 0.3603 0.0
H1169 H 0.54403 0.428 0.33128 0.0
H1170 H 0.59421 0.43898 0.33796 0.0
H1171 H 0.55387 0.46579 0.33991 0.0
C1172 C 0.62764 0.5001 0.35929 0.0
C1173 C 0.60355 0.52194 0.36354 0.0
C1174 C 0.5986 0.4554 0.35499 0.0
C1175 C 0.54502 0.43189 0.35482 0.0
C1176 C 0.52079 0.4529 0.3592 0.0
H1177 H 0.33981 0.19188 0.32289 0.0
H1178 H 0.38756 0.272 0.33016 0.0
C1179 C 0.54976 0.49758 0.36351 0.0
C1180 C 0.51416 0.38487 0.35019 0.0
H1181 H 0.49458 0.33704 0.33176 0.0
C1182 C 0.47885 0.33999 0.35406 0.0
C1183 C 0.51913 0.38418 0.34203 0.0
C1184 C 0.55448 0.4319 0.33752 0.0
C1185 C 0.44927 0.29404 0.35001 0.0
C1186 C 0.45577 0.29285 0.34189 0.0
C1187 C 0.49009 0.33801 0.33799 0.0
C1188 C 0.42775 0.24485 0.33737 0.0
C1189 C 0.41099 0.24723 0.35443 0.0
C1190 C 0.4354 0.20354 0.33893 0.0
C1191 C 0.4083 0.15782 0.3348 0.0
C1192 C 0.37311 0.15255 0.329 0.0
C1193 C 0.36643 0.19453 0.32733 0.0
C1194 C 0.39367 0.24034 0.33147 0.0
H1195 H 0.40104 0.25754 0.3601 0.0
H1196 H 0.3753 0.22474 0.35103 0.0
H1197 H 0.4277 0.22242 0.35559 0.0
H1198 H 0.46232 0.20664 0.34335 0.0
H1199 H 0.41471 0.12649 0.33621 0.0
H1200 H 0.1564 0.66296 0.53296 0.0
H1201 H 0.18524 0.61388 0.52528 0.0
H1202 H 0.02822 0.49745 0.52125 0.0
H1203 H 0.99915 0.5454 0.52912 0.0
H1204 H 0.08566 0.45576 0.52483 0.0
H1205 H 0.18393 0.60271 0.50202 0.0
H1206 H 0.20763 0.62609 0.51158 0.0
H1207 H 0.14249 0.60718 0.50914 0.0
C1208 C 0.12803 0.62691 0.53044 0.0
C1209 C 0.0755 0.60821 0.53161 0.0
C1210 C 0.14455 0.59909 0.526 0.0
C1211 C 0.10886 0.55255 0.52254 0.0
C1212 C 0.05644 0.53343 0.52382 0.0
H1213 H 0.13474 0.33806 0.49147 0.0
H1214 H 0.10391 0.38708 0.49878 0.0
C1215 C 0.0399 0.5609 0.52832 0.0
C1216 C 0.12601 0.52318 0.51771 0.0
H1217 H 0.1982 0.53175 0.50188 0.0
C1218 C 0.10994 0.47228 0.51978 0.0
C1219 C 0.15749 0.54468 0.51109 0.0
C1220 C 0.17348 0.59798 0.50827 0.0
C1221 C 0.1254 0.44274 0.51551 0.0
C1222 C 0.15767 0.46466 0.50901 0.0
C1223 C 0.17354 0.5153 0.5069 0.0
C1224 C 0.17633 0.4358 0.50445 0.0
C1225 C 0.10802 0.38857 0.51802 0.0
C1226 C 0.22733 0.44761 0.50517 0.0
C1227 C 0.24501 0.41964 0.50105 0.0
C1228 C 0.21206 0.37961 0.49607 0.0
C1229 C 0.16111 0.3686 0.49525 0.0
C1230 C 0.14337 0.3964 0.49943 0.0
H1231 H 0.08825 0.37934 0.52373 0.0
H1232 H 0.08121 0.36153 0.51363 0.0
H1233 H 0.14128 0.38236 0.5184 0.0
H1234 H 0.25328 0.47805 0.50901 0.0
H1235 H 0.28452 0.42933 0.5018 0.0
H1236 H 0.44234 0.00636 0.69615 0.0
H1237 H 0.52038 0.03593 0.68854 0.0
H1238 H 0.55714 0.19247 0.69182 0.0
H1239 H 0.47814 0.16306 0.69926 0.0
H1240 H 0.56987 0.17382 0.67692 0.0
H1241 H 0.66545 0.09984 0.69616 0.0
H1242 H 0.60306 0.05087 0.69313 0.0
H1243 H 0.60956 0.10263 0.69914 0.0
C1244 C 0.46717 0.04713 0.69531 0.0
C1245 C 0.45414 0.0824 0.69834 0.0
C1246 C 0.51198 0.06398 0.69099 0.0
C1247 C 0.54514 0.11646 0.68973 0.0
C1248 C 0.53223 0.15179 0.69275 0.0
H1249 H 0.84114 0.29402 0.66779 0.0
H1250 H 0.76143 0.26427 0.67502 0.0
C1251 C 0.48712 0.13493 0.69701 0.0
C1252 C 0.59236 0.13436 0.68505 0.0
H1253 H 0.70251 0.12883 0.68365 0.0
C1254 C 0.599 0.16424 0.67842 0.0
C1255 C 0.63042 0.12188 0.68702 0.0
C1256 C 0.6271 0.09249 0.69429 0.0
C1257 C 0.64229 0.18131 0.67366 0.0
C1258 C 0.67973 0.16813 0.67557 0.0
C1259 C 0.67329 0.13837 0.68218 0.0
C1260 C 0.72678 0.18626 0.67091 0.0
C1261 C 0.64766 0.2129 0.66656 0.0
C1262 C 0.73344 0.15206 0.66622 0.0
C1263 C 0.77883 0.16894 0.66203 0.0
C1264 C 0.81856 0.22018 0.66256 0.0
C1265 C 0.81142 0.25431 0.66726 0.0
C1266 C 0.76588 0.23748 0.67138 0.0
H1267 H 0.61192 0.21354 0.66526 0.0
H1268 H 0.67893 0.25285 0.66752 0.0
H1269 H 0.65812 0.19771 0.66144 0.0
H1270 H 0.7036 0.11229 0.66583 0.0
H1271 H 0.78314 0.14164 0.65849 0.0
H1272 H 0.89813 0.55543 0.12686 0.0
H1273 H 0.89408 0.50411 0.11549 0.0
H1274 H 0.05858 0.59162 0.11347 0.0
H1275 H 0.06263 0.64267 0.12482 0.0
H1276 H 0.93623 0.54308 0.09984 0.0
H1277 H 0.02106 0.43773 0.11419 0.0
H1278 H 0.9932 0.46915 0.11959 0.0
H1279 H 0.05587 0.50609 0.11541 0.0
C1280 C 0.93326 0.5635 0.12396 0.0
C1281 C 0.98064 0.60289 0.12664 0.0
C1282 C 0.93095 0.53437 0.11749 0.0
C1283 C 0.97607 0.54387 0.1137 0.0
C1284 C 0.02341 0.58339 0.11637 0.0
H1285 H 0.06112 0.41957 0.07517 0.0
H1286 H 0.05729 0.46613 0.08658 0.0
C1287 C 0.02568 0.61265 0.12281 0.0
C1288 C 0.97389 0.51291 0.1069 0.0
H1289 H 0.01021 0.42863 0.10055 0.0
C1290 C 0.95201 0.51771 0.09999 0.0
C1291 C 0.99467 0.48008 0.10714 0.0
C1292 C 0.01721 0.47244 0.11449 0.0
C1293 C 0.95175 0.49162 0.09322 0.0
C1294 C 0.97289 0.45898 0.09344 0.0
C1295 C 0.99409 0.45369 0.10039 0.0
C1296 C 0.97469 0.43093 0.08648 0.0
C1297 C 0.93048 0.50063 0.08584 0.0
C1298 C 0.92953 0.3954 0.08267 0.0
C1299 C 0.93177 0.36897 0.07615 0.0
C1300 C 0.9791 0.37716 0.07341 0.0
C1301 C 0.02418 0.41239 0.07724 0.0
C1302 C 0.02199 0.43897 0.08373 0.0
H1303 H 0.92841 0.53635 0.08614 0.0
H1304 H 0.95418 0.50305 0.08075 0.0
H1305 H 0.89111 0.46822 0.0849 0.0
H1306 H 0.89255 0.38777 0.08478 0.0
H1307 H 0.89658 0.34178 0.07327 0.0
H1308 H 0.55325 0.02295 0.23432 0.0
H1309 H 0.50445 0.01871 0.24596 0.0
H1310 H 0.5758 0.94733 0.25855 0.0
H1311 H 0.62461 0.95143 0.24689 0.0
H1312 H 0.43539 0.93316 0.25484 0.0
H1313 H 0.604 0.07104 0.27214 0.0
H1314 H 0.6069 0.06412 0.26177 0.0
H1315 H 0.60805 0.01795 0.26823 0.0
C1316 C 0.55804 0.00588 0.23956 0.0
C1317 C 0.59241 0.9873 0.23973 0.0
C1318 C 0.53036 0.00365 0.24619 0.0
C1319 C 0.53694 0.98322 0.25313 0.0
C1320 C 0.5708 0.96401 0.25329 0.0
H1321 H 0.33934 0.90463 0.29404 0.0
H1322 H 0.38671 0.90125 0.28265 0.0
C1323 C 0.59847 0.9662 0.24664 0.0
C1324 C 0.50841 0.98233 0.26019 0.0
H1325 H 0.524 0.03028 0.27857 0.0
C1326 C 0.45469 0.95426 0.26004 0.0
C1327 C 0.53377 0.0104 0.26693 0.0
C1328 C 0.59134 0.04299 0.26729 0.0
C1329 C 0.4256 0.95335 0.26647 0.0
C1330 C 0.45098 0.98077 0.27325 0.0
C1331 C 0.50469 0.00896 0.27339 0.0
C1332 C 0.4225 0.98232 0.28016 0.0
C1333 C 0.36795 0.92415 0.26589 0.0
C1334 C 0.42785 0.0291 0.28262 0.0
C1335 C 0.40111 0.03103 0.28911 0.0
C1336 C 0.36869 0.98624 0.29325 0.0
C1337 C 0.36389 0.93954 0.29087 0.0
C1338 C 0.39064 0.93758 0.28437 0.0
H1339 H 0.35476 0.9149 0.25977 0.0
H1340 H 0.35277 0.88763 0.26913 0.0
H1341 H 0.3514 0.94637 0.26849 0.0
H1342 H 0.45252 0.0641 0.27949 0.0
H1343 H 0.40596 0.06758 0.29093 0.0
H1344 H 0.42785 0.34905 0.46131 0.0
H1345 H 0.48004 0.39651 0.45003 0.0
H1346 H 0.38125 0.45947 0.44608 0.0
H1347 H 0.32975 0.41286 0.45741 0.0
H1348 H 0.4489 0.39136 0.43439 0.0
H1349 H 0.52564 0.58635 0.44663 0.0
H1350 H 0.49587 0.52937 0.45256 0.0
H1351 H 0.45711 0.54773 0.44703 0.0
C1352 C 0.41754 0.37317 0.45802 0.0
C1353 C 0.37481 0.37724 0.46016 0.0
C1354 C 0.44719 0.40011 0.45159 0.0
C1355 C 0.43481 0.43192 0.44728 0.0
C1356 C 0.3919 0.43573 0.4494 0.0
H1357 H 0.52276 0.55541 0.40105 0.0
H1358 H 0.47945 0.50578 0.41268 0.0
C1359 C 0.36226 0.40877 0.45581 0.0
C1360 C 0.46616 0.46051 0.44047 0.0
H1361 H 0.53872 0.58104 0.43311 0.0
C1362 C 0.46884 0.43284 0.43412 0.0
C1363 C 0.49266 0.51462 0.44019 0.0
C1364 C 0.4932 0.54638 0.44699 0.0
C1365 C 0.4961 0.45785 0.42738 0.0
C1366 C 0.52079 0.51188 0.42697 0.0
C1367 C 0.51938 0.5396 0.43341 0.0
C1368 C 0.54749 0.5404 0.41985 0.0
C1369 C 0.49847 0.42629 0.42077 0.0
C1370 C 0.5999 0.57688 0.42006 0.0
C1371 C 0.62467 0.60514 0.41342 0.0
C1372 C 0.59733 0.59761 0.40649 0.0
C1373 C 0.54489 0.56119 0.40629 0.0
C1374 C 0.52016 0.53287 0.41292 0.0
H1375 H 0.48972 0.38767 0.42274 0.0
H1376 H 0.46974 0.42124 0.41631 0.0
H1377 H 0.53684 0.44566 0.41799 0.0
H1378 H 0.6216 0.58347 0.42537 0.0
H1379 H 0.66516 0.63299 0.4137 0.0
H1380 H 0.95203 0.52767 0.56772 0.0
H1381 H 0.95553 0.4825 0.57933 0.0
H1382 H 0.02558 0.62447 0.59211 0.0
H1383 H 0.02211 0.66977 0.58049 0.0
H1384 H 0.03986 0.49806 0.58828 0.0
H1385 H 0.90172 0.52851 0.60554 0.0
H1386 H 0.90938 0.53923 0.5952 0.0
H1387 H 0.9552 0.5859 0.60177 0.0
C1388 C 0.96864 0.54923 0.57299 0.0
C1389 C 0.98703 0.60214 0.57323 0.0
C1390 C 0.97045 0.52343 0.57961 0.0
C1391 C 0.99029 0.55003 0.5866 0.0
C1392 C 0.00932 0.60307 0.58682 0.0
H1393 H 0.06726 0.42901 0.62741 0.0
H1394 H 0.0711 0.47988 0.61601 0.0
C1395 C 0.0075 0.6289 0.58019 0.0
C1396 C 0.9908 0.52201 0.59364 0.0
H1397 H 0.94235 0.48914 0.61199 0.0
C1398 C 0.01866 0.49616 0.59348 0.0
C1399 C 0.96258 0.51915 0.60037 0.0
C1400 C 0.93012 0.54426 0.60075 0.0
C1401 C 0.01923 0.46763 0.59988 0.0
C1402 C 0.99173 0.46551 0.60665 0.0
C1403 C 0.96374 0.49122 0.60681 0.0
C1404 C 0.98994 0.43527 0.61355 0.0
C1405 C 0.04817 0.43895 0.59927 0.0
C1406 C 0.94297 0.39416 0.61603 0.0
C1407 C 0.94078 0.36544 0.62253 0.0
C1408 C 0.9855 0.37743 0.62667 0.0
C1409 C 0.0324 0.41894 0.62426 0.0
C1410 C 0.03462 0.44771 0.61774 0.0
H1411 H 0.05724 0.43493 0.59315 0.0
H1412 H 0.08479 0.46018 0.6025 0.0
H1413 H 0.02586 0.4002 0.60188 0.0
H1414 H 0.90801 0.38416 0.61291 0.0
H1415 H 0.90407 0.33406 0.62437 0.0
H1416 H 0.41365 0.95872 0.73429 0.0
H1417 H 0.46264 0.96259 0.74588 0.0
H1418 H 0.38835 0.02965 0.7588 0.0
H1419 H 0.33939 0.02599 0.74719 0.0
H1420 H 0.53015 0.04756 0.75505 0.0
H1421 H 0.36197 0.90443 0.7719 0.0
H1422 H 0.35948 0.91279 0.76157 0.0
H1423 H 0.35671 0.9573 0.7682 0.0
C1424 C 0.40827 0.97481 0.73959 0.0
C1425 C 0.37299 0.99224 0.73987 0.0
C1426 C 0.43606 0.97682 0.7462 0.0
C1427 C 0.42869 0.99586 0.75322 0.0
C1428 C 0.39398 0.01403 0.75348 0.0
H1429 H 0.62386 0.07276 0.79433 0.0
H1430 H 0.57691 0.07631 0.7829 0.0
C1431 C 0.36621 0.01207 0.74686 0.0
C1432 C 0.45717 0.99632 0.76025 0.0
H1433 H 0.44153 0.94577 0.77846 0.0
C1434 C 0.51085 0.02542 0.76018 0.0
C1435 C 0.43182 0.96689 0.76689 0.0
C1436 C 0.37435 0.93319 0.76716 0.0
C1437 C 0.53991 0.0261 0.7666 0.0
C1438 C 0.51451 0.99735 0.77329 0.0
C1439 C 0.46085 0.96808 0.77334 0.0
C1440 C 0.54296 0.99571 0.78019 0.0
C1441 C 0.59756 0.05654 0.7661 0.0
C1442 C 0.5385 0.9491 0.78255 0.0
C1443 C 0.56499 0.94705 0.78906 0.0
C1444 C 0.5963 0.99157 0.79334 0.0
C1445 C 0.60023 0.03808 0.79106 0.0
C1446 C 0.57372 0.04015 0.78453 0.0
H1447 H 0.61104 0.06674 0.76001 0.0
H1448 H 0.61173 0.09259 0.76944 0.0
H1449 H 0.6148 0.03481 0.76864 0.0
H1450 H 0.51464 0.91431 0.77931 0.0
H1451 H 0.56071 0.9106 0.7908 0.0
H1452 H 0.63132 0.56065 0.95833 0.0
H1453 H 0.58079 0.51446 0.94688 0.0
H1454 H 0.49393 0.59207 0.94889 0.0
H1455 H 0.54456 0.63836 0.96037 0.0
H1456 H 0.46594 0.45072 0.94637 0.0
H1457 H 0.55051 0.61499 0.92575 0.0
H1458 H 0.58336 0.61396 0.93446 0.0
H1459 H 0.53029 0.62494 0.9351 0.0
C1460 C 0.60165 0.56799 0.95628 0.0
C1461 C 0.59197 0.60327 0.96013 0.0
C1462 C 0.5728 0.54158 0.94978 0.0
C1463 C 0.53411 0.55035 0.94701 0.0
C1464 C 0.52409 0.58532 0.9509 0.0
H1465 H 0.33913 0.42962 0.90595 0.0
H1466 H 0.38314 0.4786 0.91765 0.0
C1467 C 0.55276 0.61151 0.95744 0.0
C1468 C 0.50373 0.52207 0.94014 0.0
H1469 H 0.48516 0.53597 0.92096 0.0
C1470 C 0.46997 0.46926 0.94081 0.0
C1471 C 0.50892 0.54662 0.93294 0.0
C1472 C 0.54538 0.60321 0.93194 0.0
C1473 C 0.44114 0.44016 0.93443 0.0
C1474 C 0.44738 0.46438 0.92715 0.0
C1475 C 0.48054 0.51745 0.92653 0.0
C1476 C 0.42089 0.43507 0.92007 0.0
C1477 C 0.40376 0.38389 0.9356 0.0
C1478 C 0.42832 0.39513 0.91747 0.0
C1479 C 0.40309 0.36717 0.91085 0.0
C1480 C 0.3704 0.37898 0.90667 0.0
C1481 C 0.36397 0.41976 0.90913 0.0
C1482 C 0.38903 0.44762 0.91579 0.0
H1483 H 0.39208 0.37501 0.94178 0.0
H1484 H 0.36888 0.37103 0.932 0.0
H1485 H 0.42225 0.36151 0.93388 0.0
H1486 H 0.45388 0.38575 0.92054 0.0
H1487 H 0.40931 0.33646 0.90895 0.0
loop_
_geom_bond_atom_site_label_1
_geom_bond_atom_site_label_2
_geom_bond_distance
_geom_bond_site_symmetry_2
_ccdc_geom_bond_type
Co0 O3 1.970 . S
Co0 N17 1.989 . S
Co0 O25 1.967 1_655 S
Co0 O32 1.920 . S
Co1 O4 1.966 1_455 S
Co1 N10 2.022 . S
Co1 N18 1.993 . S
Co1 O26 1.941 . S
C2 O3 1.258 . S
C2 O4 1.263 . S
O3 Co0 1.970 . S
O3 C2 1.258 . S
O4 Co1 1.966 1_655 S
O4 C2 1.263 . S
C5 O6 1.235 . S
C5 O32 1.289 . S
O6 C5 1.235 . S
C7 C9 1.400 . S
C7 N10 1.351 . S
C7 C12 1.501 1_455 S
C8 C9 1.387 . S
C8 N11 1.341 . S
C9 C7 1.400 . S
C9 C8 1.387 . S
N10 Co1 2.022 . S
N10 C7 1.351 . S
N10 N11 1.365 . S
N11 C8 1.341 . S
N11 N10 1.365 . S
N11 H31 0.862 . S
C12 C7 1.501 1_655 S
C12 H13 0.961 . S
C12 H14 0.961 . S
C12 H15 0.960 . S
H13 C12 0.961 . S
H14 C12 0.961 . S
H15 C12 0.960 . S
C16 N17 1.342 . S
C16 C20 1.401 . S
C16 C21 1.499 . S
N17 Co0 1.989 . S
N17 C16 1.342 . S
N17 N18 1.388 1_655 S
N18 Co1 1.993 . S
N18 N17 1.388 1_455 S
N18 C19 1.346 . S
C19 N18 1.346 . S
C19 C20 1.396 1_455 S
C19 C29 1.510 . S
C20 C16 1.401 . S
C20 C19 1.396 1_655 S
C21 C16 1.499 . S
C21 H22 0.959 . S
C21 H23 0.960 . S
C21 H24 0.957 1_655 S
H22 C21 0.959 . S
H23 C21 0.960 . S
H24 C21 0.957 1_455 S
O25 Co0 1.967 1_455 S
O25 C33 1.258 . S
O26 Co1 1.941 . S
O26 C33 1.266 . S
H27 C29 0.959 . S
H28 C29 0.961 1_655 S
C29 C19 1.510 . S
C29 H27 0.959 . S
C29 H28 0.961 1_455 S
C29 H30 0.960 . S
H30 C29 0.960 . S
H31 N11 0.862 . S
O32 Co0 1.920 . S
O32 C5 1.289 . S
C33 O25 1.258 . S
C33 O26 1.266 . S
Co34 O37 1.970 1_545 S
Co34 N51 1.989 . S
Co34 O59 1.967 . S
Co34 O66 1.920 1_545 S
Co35 O38 1.966 1_545 S
Co35 N44 2.022 . S
Co35 N52 1.993 . S
Co35 O60 1.941 . S
C36 O37 1.258 . S
C36 O38 1.263 . S
O37 Co34 1.970 1_565 S
O37 C36 1.258 . S
O38 Co35 1.966 1_565 S
O38 C36 1.263 . S
C39 O40 1.235 . S
C39 O66 1.289 . S
O40 C39 1.235 . S
C41 C43 1.400 . S
C41 N44 1.351 . S
C41 C46 1.501 1_545 S
C42 C43 1.387 . S
C42 N45 1.341 . S
C43 C41 1.400 . S
C43 C42 1.387 . S
N44 Co35 2.022 . S
N44 C41 1.351 . S
N44 N45 1.365 . S
N45 C42 1.341 . S
N45 N44 1.365 . S
N45 H65 0.862 . S
C46 C41 1.501 1_565 S
C46 H47 0.961 . S
C46 H48 0.961 . S
C46 H49 0.960 . S
H47 C46 0.961 . S
H48 C46 0.961 . S
H49 C46 0.960 . S
C50 N51 1.342 1_565 S
C50 C54 1.402 1_565 S
C50 C55 1.499 . S
N51 Co34 1.989 . S
N51 C50 1.342 1_545 S
N51 N52 1.388 . S
N52 Co35 1.993 . S
N52 N51 1.388 . S
N52 C53 1.346 . S
C53 N52 1.346 . S
C53 C54 1.389 . S
C53 C63 1.510 . S
C54 C50 1.402 1_545 S
C54 C53 1.389 . S
C55 C50 1.499 . S
C55 H56 0.959 . S
C55 H57 0.960 . S
C55 H58 0.961 1_565 S
H56 C55 0.959 . S
H57 C55 0.960 . S
H58 C55 0.961 1_545 S
O59 Co34 1.967 . S
O59 C67 1.258 . S
O60 Co35 1.941 . S
O60 C67 1.266 . S
H61 C63 0.959 . S
H62 C63 0.961 1_565 S
C63 C53 1.510 . S
C63 H61 0.959 . S
C63 H62 0.961 1_545 S
C63 H64 0.960 . S
H64 C63 0.960 . S
H65 N45 0.862 . S
O66 Co34 1.920 1_565 S
O66 C39 1.289 . S
C67 O59 1.258 . S
C67 O60 1.266 . S
Co68 O71 1.970 . S
Co68 N85 1.989 . S
Co68 O93 1.967 . S
Co68 O100 1.920 . S
Co69 O72 1.966 . S
Co69 N78 2.022 . S
Co69 N86 1.993 . S
Co69 O94 1.941 . S
C70 O71 1.258 . S
C70 O72 1.263 . S
O71 Co68 1.970 . S
O71 C70 1.258 . S
O72 Co69 1.966 . S
O72 C70 1.263 . S
C73 O74 1.235 . S
C73 O100 1.289 . S
O74 C73 1.235 . S
C75 C77 1.400 . S
C75 N78 1.351 . S
C75 C80 1.501 . S
C76 C77 1.387 . S
C76 N79 1.341 . S
C77 C75 1.400 . S
C77 C76 1.387 . S
N78 Co69 2.022 . S
N78 C75 1.351 . S
N78 N79 1.365 . S
N79 C76 1.341 . S
N79 N78 1.365 . S
N79 H99 0.862 . S
C80 C75 1.501 . S
C80 H81 0.961 . S
C80 H82 0.961 . S
C80 H83 0.960 . S
H81 C80 0.961 . S
H82 C80 0.961 . S
H83 C80 0.960 . S
C84 N85 1.342 . S
C84 C88 1.401 . S
C84 C89 1.499 . S
N85 Co68 1.989 . S
N85 C84 1.342 . S
N85 N86 1.388 . S
N86 Co69 1.993 . S
N86 N85 1.388 . S
N86 C87 1.346 . S
C87 N86 1.346 . S
C87 C88 1.396 . S
C87 C97 1.510 . S
C88 C84 1.401 . S
C88 C87 1.396 . S
C89 C84 1.499 . S
C89 H90 0.959 . S
C89 H91 0.960 . S
C89 H92 0.961 . S
H90 C89 0.959 . S
H91 C89 0.960 . S
H92 C89 0.961 . S
O93 Co68 1.967 . S
O93 C101 1.258 . S
O94 Co69 1.941 . S
O94 C101 1.266 . S
H95 C97 0.959 . S
H96 C97 0.961 . S
C97 C87 1.510 . S
C97 H95 0.959 . S
C97 H96 0.961 . S
C97 H98 0.960 . S
H98 C97 0.960 . S
H99 N79 0.862 . S
O100 Co68 1.920 . S
O100 C73 1.289 . S
C101 O93 1.258 . S
C101 O94 1.266 . S
Co102 O105 1.970 1_655 S
Co102 N119 1.989 . S
Co102 O127 1.967 . S
Co102 O134 1.920 . S
Co103 O106 1.966 . S
Co103 N112 2.022 . S
Co103 N120 1.993 . S
Co103 O128 1.941 . S
C104 O105 1.258 . S
C104 O106 1.263 1_455 S
O105 Co102 1.970 1_455 S
O105 C104 1.258 . S
O106 Co103 1.966 . S
O106 C104 1.263 1_655 S
C107 O108 1.235 . S
C107 O134 1.289 1_455 S
O108 C107 1.235 . S
C109 C111 1.400 . S
C109 N112 1.351 . S
C109 C114 1.501 . S
C110 C111 1.387 . S
C110 N113 1.341 . S
C111 C109 1.400 . S
C111 C110 1.387 . S
N112 Co103 2.022 . S
N112 C109 1.351 . S
N112 N113 1.365 . S
N113 C110 1.341 . S
N113 N112 1.365 . S
N113 H133 0.862 . S
C114 C109 1.501 . S
C114 H115 0.961 . S
C114 H116 0.961 1_655 S
C114 H117 0.960 . S
H115 C114 0.961 . S
H116 C114 0.961 1_455 S
H117 C114 0.960 . S
C118 N119 1.342 . S
C118 C122 1.401 . S
C118 C123 1.499 . S
N119 Co102 1.989 . S
N119 C118 1.342 . S
N119 N120 1.388 . S
N120 Co103 1.993 . S
N120 N119 1.388 . S
N120 C121 1.346 . S
C121 N120 1.346 . S
C121 C122 1.396 . S
C121 C131 1.510 . S
C122 C118 1.401 . S
C122 C121 1.396 . S
C123 C118 1.499 . S
C123 H124 0.959 . S
C123 H125 0.960 1_655 S
C123 H126 0.961 . S
H124 C123 0.959 . S
H125 C123 0.960 1_455 S
H126 C123 0.961 . S
O127 Co102 1.967 . S
O127 C135 1.258 . S
O128 Co103 1.941 . S
O128 C135 1.266 . S
H129 C131 0.959 . S
H130 C131 0.961 . S
C131 C121 1.510 . S
C131 H129 0.959 . S
C131 H130 0.961 . S
C131 H132 0.960 . S
H132 C131 0.960 . S
H133 N113 0.862 . S
O134 Co102 1.920 . S
O134 C107 1.289 1_655 S
C135 O127 1.258 . S
C135 O128 1.266 . S
Co136 O139 1.970 1_565 S
Co136 N153 1.989 . S
Co136 O161 1.967 . S
Co136 O168 1.920 . S
Co137 O140 1.966 . S
Co137 N146 2.022 . S
Co137 N154 1.993 . S
Co137 O162 1.941 . S
C138 O139 1.258 . S
C138 O140 1.263 1_545 S
O139 Co136 1.970 1_545 S
O139 C138 1.258 . S
O140 Co137 1.966 . S
O140 C138 1.263 1_565 S
C141 O142 1.235 . S
C141 O168 1.289 1_545 S
O142 C141 1.235 . S
C143 C145 1.400 . S
C143 N146 1.351 . S
C143 C148 1.501 . S
C144 C145 1.387 . S
C144 N147 1.341 . S
C145 C143 1.400 . S
C145 C144 1.387 . S
N146 Co137 2.022 . S
N146 C143 1.351 . S
N146 N147 1.365 . S
N147 C144 1.341 . S
N147 N146 1.365 . S
N147 H167 0.862 . S
C148 C143 1.501 . S
C148 H149 0.961 . S
C148 H150 0.961 1_565 S
C148 H151 0.960 . S
H149 C148 0.961 . S
H150 C148 0.961 1_545 S
H151 C148 0.960 . S
C152 N153 1.342 . S
C152 C156 1.401 . S
C152 C157 1.499 . S
N153 Co136 1.989 . S
N153 C152 1.342 . S
N153 N154 1.388 . S
N154 Co137 1.993 . S
N154 N153 1.388 . S
N154 C155 1.346 . S
C155 N154 1.346 . S
C155 C156 1.396 . S
C155 C165 1.510 . S
C156 C152 1.401 . S
C156 C155 1.396 . S
C157 C152 1.499 . S
C157 H158 0.959 . S
C157 H159 0.960 1_565 S
C157 H160 0.961 . S
H158 C157 0.959 . S
H159 C157 0.960 1_545 S
H160 C157 0.961 . S
O161 Co136 1.967 . S
O161 C169 1.258 . S
O162 Co137 1.941 . S
O162 C169 1.266 . S
H163 C165 0.959 . S
H164 C165 0.961 . S
C165 C155 1.510 . S
C165 H163 0.959 . S
C165 H164 0.961 . S
C165 H166 0.960 . S
H166 C165 0.960 . S
H167 N147 0.862 . S
O168 Co136 1.920 . S
O168 C141 1.289 1_565 S
C169 O161 1.258 . S
C169 O162 1.266 . S
Co170 O173 1.970 . S
Co170 N187 1.989 . S
Co170 O195 1.967 . S
Co170 O202 1.920 . S
Co171 O174 1.966 . S
Co171 N180 2.022 . S
Co171 N188 1.993 . S
Co171 O196 1.941 . S
C172 O173 1.258 . S
C172 O174 1.263 . S
O173 Co170 1.970 . S
O173 C172 1.258 . S
O174 Co171 1.966 . S
O174 C172 1.263 . S
C175 O176 1.235 . S
C175 O202 1.289 . S
O176 C175 1.235 . S
C177 C179 1.400 . S
C177 N180 1.351 . S
C177 C182 1.501 . S
C178 C179 1.387 . S
C178 N181 1.341 . S
C179 C177 1.400 . S
C179 C178 1.387 . S
N180 Co171 2.022 . S
N180 C177 1.351 . S
N180 N181 1.365 . S
N181 C178 1.341 . S
N181 N180 1.365 . S
N181 H201 0.862 . S
C182 C177 1.501 . S
C182 H183 0.961 . S
C182 H184 0.961 . S
C182 H185 0.960 . S
H183 C182 0.961 . S
H184 C182 0.961 . S
H185 C182 0.960 . S
C186 N187 1.342 . S
C186 C190 1.401 . S
C186 C191 1.499 . S
N187 Co170 1.989 . S
N187 C186 1.342 . S
N187 N188 1.388 . S
N188 Co171 1.993 . S
N188 N187 1.388 . S
N188 C189 1.346 . S
C189 N188 1.346 . S
C189 C190 1.396 . S
C189 C199 1.510 . S
C190 C186 1.401 . S
C190 C189 1.396 . S
C191 C186 1.499 . S
C191 H192 0.959 . S
C191 H193 0.960 . S
C191 H194 0.961 . S
H192 C191 0.959 . S
H193 C191 0.960 . S
H194 C191 0.961 . S
O195 Co170 1.967 . S
O195 C203 1.258 . S
O196 Co171 1.941 . S
O196 C203 1.266 . S
H197 C199 0.959 . S
H198 C199 0.961 . S
C199 C189 1.510 . S
C199 H197 0.959 . S
C199 H198 0.961 . S
C199 H200 0.960 . S
H200 C199 0.960 . S
H201 N181 0.862 . S
O202 Co170 1.920 . S
O202 C175 1.289 . S
C203 O195 1.258 . S
C203 O196 1.266 . S
Co204 O207 1.970 1_565 S
Co204 N221 1.989 . S
Co204 O229 1.967 . S
Co204 O236 1.920 . S
Co205 O208 1.966 . S
Co205 N214 2.022 . S
Co205 N222 1.993 . S
Co205 O230 1.941 . S
C206 O207 1.258 . S
C206 O208 1.263 1_545 S
O207 Co204 1.970 1_545 S
O207 C206 1.258 . S
O208 Co205 1.966 . S
O208 C206 1.263 1_565 S
C209 O210 1.235 . S
C209 O236 1.289 1_545 S
O210 C209 1.235 . S
C211 C213 1.400 . S
C211 N214 1.351 . S
C211 C216 1.501 . S
C212 C213 1.387 . S
C212 N215 1.341 . S
C213 C211 1.400 . S
C213 C212 1.387 . S
N214 Co205 2.022 . S
N214 C211 1.351 . S
N214 N215 1.365 . S
N215 C212 1.341 . S
N215 N214 1.365 . S
N215 H235 0.862 . S
C216 C211 1.501 . S
C216 H217 0.961 . S
C216 H218 0.961 1_565 S
C216 H219 0.960 . S
H217 C216 0.961 . S
H218 C216 0.961 1_545 S
H219 C216 0.960 . S
C220 N221 1.342 . S
C220 C224 1.401 . S
C220 C225 1.499 . S
N221 Co204 1.989 . S
N221 C220 1.342 . S
N221 N222 1.388 . S
N222 Co205 1.993 . S
N222 N221 1.388 . S
N222 C223 1.346 . S
C223 N222 1.346 . S
C223 C224 1.396 . S
C223 C233 1.510 . S
C224 C220 1.401 . S
C224 C223 1.396 . S
C225 C220 1.499 . S
C225 H226 0.959 . S
C225 H227 0.960 1_565 S
C225 H228 0.961 . S
H226 C225 0.959 . S
H227 C225 0.960 1_545 S
H228 C225 0.961 . S
O229 Co204 1.967 . S
O229 C237 1.258 . S
O230 Co205 1.941 . S
O230 C237 1.266 . S
H231 C233 0.959 . S
H232 C233 0.961 . S
C233 C223 1.510 . S
C233 H231 0.959 . S
C233 H232 0.961 . S
C233 H234 0.960 . S
H234 C233 0.960 . S
H235 N215 0.862 . S
O236 Co204 1.920 . S
O236 C209 1.289 1_565 S
C237 O229 1.258 . S
C237 O230 1.266 . S
Co238 O241 1.970 . S
Co238 N255 1.989 . S
Co238 O263 1.967 . S
Co238 O270 1.920 . S
Co239 O242 1.966 . S
Co239 N248 2.022 . S
Co239 N256 1.993 . S
Co239 O264 1.941 . S
C240 O241 1.258 . S
C240 O242 1.263 . S
O241 Co238 1.970 . S
O241 C240 1.258 . S
O242 Co239 1.966 . S
O242 C240 1.263 . S
C243 O244 1.235 . S
C243 O270 1.289 . S
O244 C243 1.235 . S
C245 C247 1.400 . S
C245 N248 1.351 . S
C245 C250 1.501 . S
C246 C247 1.387 . S
C246 N249 1.341 . S
C247 C245 1.400 . S
C247 C246 1.387 . S
N248 Co239 2.022 . S
N248 C245 1.351 . S
N248 N249 1.365 . S
N249 C246 1.341 . S
N249 N248 1.365 . S
N249 H269 0.862 . S
C250 C245 1.501 . S
C250 H251 0.961 . S
C250 H252 0.961 . S
C250 H253 0.960 . S
H251 C250 0.961 . S
H252 C250 0.961 . S
H253 C250 0.960 . S
C254 N255 1.342 . S
C254 C258 1.401 . S
C254 C259 1.499 . S
N255 Co238 1.989 . S
N255 C254 1.342 . S
N255 N256 1.388 . S
N256 Co239 1.993 . S
N256 N255 1.388 . S
N256 C257 1.346 . S
C257 N256 1.346 . S
C257 C258 1.396 . S
C257 C267 1.510 . S
C258 C254 1.401 . S
C258 C257 1.396 . S
C259 C254 1.499 . S
C259 H260 0.959 . S
C259 H261 0.960 . S
C259 H262 0.961 . S
H260 C259 0.959 . S
H261 C259 0.960 . S
H262 C259 0.961 . S
O263 Co238 1.967 . S
O263 C271 1.258 . S
O264 Co239 1.941 . S
O264 C271 1.266 . S
H265 C267 0.959 . S
H266 C267 0.961 . S
C267 C257 1.510 . S
C267 H265 0.959 . S
C267 H266 0.961 . S
C267 H268 0.960 . S
H268 C267 0.960 . S
H269 N249 0.862 . S
O270 Co238 1.920 . S
O270 C243 1.289 . S
C271 O263 1.258 . S
C271 O264 1.266 . S
Co272 O275 1.970 . S
Co272 N289 1.989 . S
Co272 O297 1.967 1_655 S
Co272 O304 1.920 . S
Co273 O276 1.966 1_455 S
Co273 N282 2.022 . S
Co273 N290 1.993 . S
Co273 O298 1.941 . S
C274 O275 1.258 . S
C274 O276 1.263 . S
O275 Co272 1.970 . S
O275 C274 1.258 . S
O276 Co273 1.966 1_655 S
O276 C274 1.263 . S
C277 O278 1.235 . S
C277 O304 1.289 . S
O278 C277 1.235 . S
C279 C281 1.400 . S
C279 N282 1.351 . S
C279 C284 1.501 1_455 S
C280 C281 1.387 . S
C280 N283 1.341 . S
C281 C279 1.400 . S
C281 C280 1.387 . S
N282 Co273 2.022 . S
N282 C279 1.351 . S
N282 N283 1.365 . S
N283 C280 1.341 . S
N283 N282 1.365 . S
N283 H303 0.862 . S
C284 C279 1.501 1_655 S
C284 H285 0.961 . S
C284 H286 0.961 . S
C284 H287 0.960 . S
H285 C284 0.961 . S
H286 C284 0.961 . S
H287 C284 0.960 . S
C288 N289 1.342 . S
C288 C292 1.401 . S
C288 C293 1.499 . S
N289 Co272 1.989 . S
N289 C288 1.342 . S
N289 N290 1.388 1_655 S
N290 Co273 1.993 . S
N290 N289 1.388 1_455 S
N290 C291 1.346 . S
C291 N290 1.346 . S
C291 C292 1.396 1_455 S
C291 C301 1.510 . S
C292 C288 1.401 . S
C292 C291 1.396 1_655 S
C293 C288 1.499 . S
C293 H294 0.959 . S
C293 H295 0.960 . S
C293 H296 0.946 1_655 S
H294 C293 0.959 . S
H295 C293 0.960 . S
H296 C293 0.946 1_455 S
O297 Co272 1.967 1_455 S
O297 C305 1.258 . S
O298 Co273 1.941 . S
O298 C305 1.266 . S
H299 C301 0.959 . S
H300 C301 0.961 1_655 S
C301 C291 1.510 . S
C301 H299 0.959 . S
C301 H300 0.961 1_455 S
C301 H302 0.960 . S
H302 C301 0.960 . S
H303 N283 0.862 . S
O304 Co272 1.920 . S
O304 C277 1.289 . S
C305 O297 1.258 . S
C305 O298 1.266 . S
Co306 O309 1.970 1_545 S
Co306 N323 1.989 . S
Co306 O331 1.967 . S
Co306 O338 1.920 1_545 S
Co307 O310 1.966 1_545 S
Co307 N316 2.022 . S
Co307 N324 1.993 . S
Co307 O332 1.941 . S
C308 O309 1.258 . S
C308 O310 1.263 . S
O309 Co306 1.970 1_565 S
O309 C308 1.258 . S
O310 Co307 1.966 1_565 S
O310 C308 1.263 . S
C311 O312 1.235 . S
C311 O338 1.289 . S
O312 C311 1.235 . S
C313 C315 1.400 . S
C313 N316 1.351 . S
C313 C318 1.501 1_545 S
C314 C315 1.387 . S
C314 N317 1.341 . S
C315 C313 1.400 . S
C315 C314 1.387 . S
N316 Co307 2.022 . S
N316 C313 1.351 . S
N316 N317 1.365 . S
N317 C314 1.341 . S
N317 N316 1.365 . S
N317 H337 0.862 . S
C318 C313 1.501 1_565 S
C318 H319 0.961 . S
C318 H320 0.961 . S
C318 H321 0.960 . S
H319 C318 0.961 . S
H320 C318 0.961 . S
H321 C318 0.960 . S
C322 N323 1.342 1_565 S
C322 C326 1.397 1_565 S
C322 C327 1.499 . S
N323 Co306 1.989 . S
N323 C322 1.342 1_545 S
N323 N324 1.388 . S
N324 Co307 1.993 . S
N324 N323 1.388 . S
N324 C325 1.346 . S
C325 N324 1.346 . S
C325 C326 1.411 . S
C325 C335 1.510 . S
C326 C322 1.397 1_545 S
C326 C325 1.411 . S
C327 C322 1.499 . S
C327 H328 0.959 . S
C327 H329 0.960 . S
C327 H330 0.961 1_565 S
H328 C327 0.959 . S
H329 C327 0.960 . S
H330 C327 0.961 1_545 S
O331 Co306 1.967 . S
O331 C339 1.258 . S
O332 Co307 1.941 . S
O332 C339 1.266 . S
H333 C335 0.959 . S
H334 C335 0.961 1_565 S
C335 C325 1.510 . S
C335 H333 0.959 . S
C335 H334 0.961 1_545 S
C335 H336 0.960 . S
H336 C335 0.960 . S
H337 N317 0.862 . S
O338 Co306 1.920 1_565 S
O338 C311 1.289 . S
C339 O331 1.258 . S
C339 O332 1.266 . S
Co340 O343 1.970 . S
Co340 N357 1.989 . S
Co340 O365 1.967 . S
Co340 O372 1.920 . S
Co341 O344 1.966 . S
Co341 N350 2.022 . S
Co341 N358 1.993 . S
Co341 O366 1.941 . S
C342 O343 1.258 . S
C342 O344 1.263 . S
O343 Co340 1.970 . S
O343 C342 1.258 . S
O344 Co341 1.966 . S
O344 C342 1.263 . S
C345 O346 1.235 . S
C345 O372 1.289 . S
O346 C345 1.235 . S
C347 C349 1.400 . S
C347 N350 1.351 . S
C347 C352 1.501 . S
C348 C349 1.387 . S
C348 N351 1.341 . S
C349 C347 1.400 . S
C349 C348 1.387 . S
N350 Co341 2.022 . S
N350 C347 1.351 . S
N350 N351 1.365 . S
N351 C348 1.341 . S
N351 N350 1.365 . S
N351 H371 0.862 . S
C352 C347 1.501 . S
C352 H353 0.961 . S
C352 H354 0.961 . S
C352 H355 0.960 . S
H353 C352 0.961 . S
H354 C352 0.961 . S
H355 C352 0.960 . S
C356 N357 1.342 . S
C356 C360 1.401 . S
C356 C361 1.499 . S
N357 Co340 1.989 . S
N357 C356 1.342 . S
N357 N358 1.388 . S
N358 Co341 1.993 . S
N358 N357 1.388 . S
N358 C359 1.346 . S
C359 N358 1.346 . S
C359 C360 1.396 . S
C359 C369 1.510 . S
C360 C356 1.401 . S
C360 C359 1.396 . S
C361 C356 1.499 . S
C361 H362 0.959 . S
C361 H363 0.960 . S
C361 H364 0.961 . S
H362 C361 0.959 . S
H363 C361 0.960 . S
H364 C361 0.961 . S
O365 Co340 1.967 . S
O365 C373 1.258 . S
O366 Co341 1.941 . S
O366 C373 1.266 . S
H367 C369 0.959 . S
H368 C369 0.961 . S
C369 C359 1.510 . S
C369 H367 0.959 . S
C369 H368 0.961 . S
C369 H370 0.960 . S
H370 C369 0.960 . S
H371 N351 0.862 . S
O372 Co340 1.920 . S
O372 C345 1.289 . S
C373 O365 1.258 . S
C373 O366 1.266 . S
Co374 O377 1.970 1_655 S
Co374 N391 1.989 . S
Co374 O399 1.967 . S
Co374 O406 1.920 . S
Co375 O378 1.966 . S
Co375 N384 2.022 . S
Co375 N392 1.993 . S
Co375 O400 1.941 . S
C376 O377 1.258 . S
C376 O378 1.263 1_455 S
O377 Co374 1.970 1_455 S
O377 C376 1.258 . S
O378 Co375 1.966 . S
O378 C376 1.263 1_655 S
C379 O380 1.235 . S
C379 O406 1.289 1_455 S
O380 C379 1.235 . S
C381 C383 1.400 . S
C381 N384 1.351 . S
C381 C386 1.501 . S
C382 C383 1.387 . S
C382 N385 1.341 . S
C383 C381 1.400 . S
C383 C382 1.387 . S
N384 Co375 2.022 . S
N384 C381 1.351 . S
N384 N385 1.365 . S
N385 C382 1.341 . S
N385 N384 1.365 . S
N385 H405 0.862 . S
C386 C381 1.501 . S
C386 H387 0.961 . S
C386 H388 0.961 1_655 S
C386 H389 0.960 . S
H387 C386 0.961 . S
H388 C386 0.961 1_455 S
H389 C386 0.960 . S
C390 N391 1.342 . S
C390 C394 1.401 . S
C390 C395 1.499 . S
N391 Co374 1.989 . S
N391 C390 1.342 . S
N391 N392 1.388 . S
N392 Co375 1.993 . S
N392 N391 1.388 . S
N392 C393 1.346 . S
C393 N392 1.346 . S
C393 C394 1.396 . S
C393 C403 1.510 . S
C394 C390 1.401 . S
C394 C393 1.396 . S
C395 C390 1.499 . S
C395 H396 0.959 . S
C395 H397 0.960 1_655 S
C395 H398 0.961 . S
H396 C395 0.959 . S
H397 C395 0.960 1_455 S
H398 C395 0.961 . S
O399 Co374 1.967 . S
O399 C407 1.258 . S
O400 Co375 1.941 . S
O400 C407 1.266 . S
H401 C403 0.959 . S
H402 C403 0.961 . S
C403 C393 1.510 . S
C403 H401 0.959 . S
C403 H402 0.961 . S
C403 H404 0.960 . S
H404 C403 0.960 . S
H405 N385 0.862 . S
O406 Co374 1.920 . S
O406 C379 1.289 1_655 S
C407 O399 1.258 . S
C407 O400 1.266 . S
H408 C416 0.929 . S
H409 C418 0.930 . S
H410 C420 0.930 . S
H411 C423 0.929 . S
H412 C426 0.930 . S
H413 C428 0.960 . S
H414 C428 0.960 . S
H415 C428 0.960 . S
C416 H408 0.929 . S
C416 C417 1.377 . S
C416 C418 1.384 . S
C417 C416 1.377 . S
C417 C423 1.390 1_556 S
C418 H409 0.930 . S
C418 C416 1.384 . S
C418 C419 1.372 1_556 S
C419 C418 1.372 1_554 S
C419 C420 1.400 . S
C419 C424 1.490 . S
C420 H410 0.930 . S
C420 C419 1.400 . S
C420 C423 1.386 . S
H421 C437 0.930 . S
H422 C438 0.931 . S
C423 H411 0.929 . S
C423 C417 1.390 1_554 S
C423 C420 1.386 . S
C424 C419 1.490 . S
C424 C426 1.395 . S
C424 C427 1.403 . S
H425 C431 0.930 . S
C426 H412 0.930 . S
C426 C424 1.395 . S
C426 C429 1.403 1_565 S
C427 C424 1.403 . S
C427 C428 1.524 . S
C427 C431 1.400 1_565 S
C428 H413 0.960 . S
C428 H414 0.960 . S
C428 H415 0.960 . S
C428 C427 1.524 . S
C429 C426 1.403 1_545 S
C429 C430 1.392 . S
C429 C433 1.495 . S
C430 C429 1.392 . S
C430 C431 1.385 . S
C430 C432 1.478 . S
C431 H425 0.930 . S
C431 C427 1.400 1_545 S
C431 C430 1.385 . S
C432 C430 1.478 . S
C432 C434 1.381 . S
C432 C438 1.383 . S
C433 C429 1.495 . S
C433 H439 0.959 . S
C433 H440 0.961 . S
C433 H441 0.960 . S
C434 C432 1.381 . S
C434 C435 1.394 . S
C434 H442 0.930 . S
C435 C434 1.394 . S
C435 C436 1.383 . S
C435 H443 0.929 . S
C436 C435 1.383 . S
C436 C437 1.377 . S
C437 H421 0.930 . S
C437 C436 1.377 . S
C437 C438 1.379 . S
C438 H422 0.931 . S
C438 C432 1.383 . S
C438 C437 1.379 . S
H439 C433 0.959 . S
H440 C433 0.961 . S
H441 C433 0.960 . S
H442 C434 0.930 . S
H443 C435 0.929 . S
H444 C452 0.929 . S
H445 C454 0.930 . S
H446 C456 0.930 . S
H447 C459 0.929 . S
H448 C462 0.930 . S
H449 C464 0.960 . S
H450 C464 0.960 . S
H451 C464 0.960 . S
C452 H444 0.929 . S
C452 C453 1.377 . S
C452 C454 1.384 . S
C453 C452 1.377 . S
C453 C459 1.390 . S
C454 H445 0.930 . S
C454 C452 1.384 . S
C454 C455 1.372 . S
C455 C454 1.372 . S
C455 C456 1.400 . S
C455 C460 1.490 . S
C456 H446 0.930 . S
C456 C455 1.400 . S
C456 C459 1.386 . S
H457 C473 0.930 1_545 S
H458 C474 0.931 . S
C459 H447 0.929 . S
C459 C453 1.390 . S
C459 C456 1.386 . S
C460 C455 1.490 . S
C460 C462 1.395 . S
C460 C463 1.403 . S
H461 C467 0.930 . S
C462 H448 0.930 . S
C462 C460 1.395 . S
C462 C465 1.403 . S
C463 C460 1.403 . S
C463 C464 1.524 . S
C463 C467 1.400 . S
C464 H449 0.960 . S
C464 H450 0.960 . S
C464 H451 0.960 . S
C464 C463 1.524 . S
C465 C462 1.403 . S
C465 C466 1.392 . S
C465 C469 1.495 . S
C466 C465 1.392 . S
C466 C467 1.385 . S
C466 C468 1.478 . S
C467 H461 0.930 . S
C467 C463 1.400 . S
C467 C466 1.385 . S
C468 C466 1.478 . S
C468 C470 1.381 . S
C468 C474 1.383 . S
C469 C465 1.495 . S
C469 H475 0.959 . S
C469 H476 0.961 . S
C469 H477 0.960 . S
C470 C468 1.381 . S
C470 C471 1.394 . S
C470 H478 0.930 . S
C471 C470 1.394 . S
C471 C472 1.383 . S
C471 H479 0.929 . S
C472 C471 1.383 . S
C472 C473 1.377 . S
C473 H457 0.930 1_565 S
C473 C472 1.377 . S
C473 C474 1.379 . S
C474 H458 0.931 . S
C474 C468 1.383 . S
C474 C473 1.379 . S
H475 C469 0.959 . S
H476 C469 0.961 . S
H477 C469 0.960 . S
H478 C470 0.930 . S
H479 C471 0.929 . S
H480 C488 0.929 . S
H481 C490 0.930 . S
H482 C492 0.930 . S
H483 C495 0.929 . S
H484 C498 0.930 . S
H485 C500 0.960 . S
H486 C500 0.960 . S
H487 C500 0.960 . S
C488 H480 0.929 . S
C488 C489 1.377 . S
C488 C490 1.384 . S
C489 C488 1.377 . S
C489 C495 1.390 . S
C490 H481 0.930 . S
C490 C488 1.384 . S
C490 C491 1.372 . S
C491 C490 1.372 . S
C491 C492 1.400 . S
C491 C496 1.490 . S
C492 H482 0.930 . S
C492 C491 1.400 . S
C492 C495 1.386 . S
H493 C509 0.930 . S
H494 C510 0.931 . S
C495 H483 0.929 . S
C495 C489 1.390 . S
C495 C492 1.386 . S
C496 C491 1.490 . S
C496 C498 1.395 . S
C496 C499 1.403 . S
H497 C503 0.930 . S
C498 H484 0.930 . S
C498 C496 1.395 . S
C498 C501 1.403 . S
C499 C496 1.403 . S
C499 C500 1.524 . S
C499 C503 1.400 1_655 S
C500 H485 0.960 . S
C500 H486 0.960 . S
C500 H487 0.960 . S
C500 C499 1.524 . S
C501 C498 1.403 . S
C501 C502 1.392 1_655 S
C501 C505 1.495 . S
C502 C501 1.392 1_455 S
C502 C503 1.385 . S
C502 C504 1.478 . S
C503 H497 0.930 . S
C503 C499 1.400 1_455 S
C503 C502 1.385 . S
C504 C502 1.478 . S
C504 C506 1.381 . S
C504 C510 1.383 . S
C505 C501 1.495 . S
C505 H511 0.959 . S
C505 H512 0.961 1_655 S
C505 H513 0.960 . S
C506 C504 1.381 . S
C506 C507 1.394 . S
C506 H514 0.930 . S
C507 C506 1.394 . S
C507 C508 1.383 . S
C507 H515 0.929 . S
C508 C507 1.383 . S
C508 C509 1.377 . S
C509 H493 0.930 . S
C509 C508 1.377 . S
C509 C510 1.379 . S
C510 H494 0.931 . S
C510 C504 1.383 . S
C510 C509 1.379 . S
H511 C505 0.959 . S
H512 C505 0.961 1_455 S
H513 C505 0.960 . S
H514 C506 0.930 . S
H515 C507 0.929 . S
H516 C524 0.929 . S
H517 C526 0.930 . S
H518 C528 0.930 . S
H519 C531 0.929 . S
H520 C534 0.930 1_545 S
H521 C536 0.960 . S
H522 C536 0.960 . S
H523 C536 0.960 . S
C524 H516 0.929 . S
C524 C525 1.377 . S
C524 C526 1.384 . S
C525 C524 1.377 . S
C525 C531 1.390 . S
C526 H517 0.930 . S
C526 C524 1.384 . S
C526 C527 1.372 . S
C527 C526 1.372 . S
C527 C528 1.400 . S
C527 C532 1.490 . S
C528 H518 0.930 . S
C528 C527 1.400 . S
C528 C531 1.386 . S
H529 C545 0.930 . S
H530 C546 0.931 . S
C531 H519 0.929 . S
C531 C525 1.390 . S
C531 C528 1.386 . S
C532 C527 1.490 . S
C532 C534 1.395 1_545 S
C532 C535 1.403 . S
H533 C539 0.930 . S
C534 H520 0.930 1_565 S
C534 C532 1.395 1_565 S
C534 C537 1.403 . S
C535 C532 1.403 . S
C535 C536 1.524 . S
C535 C539 1.400 1_545 S
C536 H521 0.960 . S
C536 H522 0.960 . S
C536 H523 0.960 . S
C536 C535 1.524 . S
C537 C534 1.403 . S
C537 C538 1.392 . S
C537 C541 1.495 . S
C538 C537 1.392 . S
C538 C539 1.385 . S
C538 C540 1.478 . S
C539 H533 0.930 . S
C539 C535 1.400 1_565 S
C539 C538 1.385 . S
C540 C538 1.478 . S
C540 C542 1.381 . S
C540 C546 1.383 . S
C541 C537 1.495 . S
C541 H547 0.959 1_455 S
C541 H548 0.961 . S
C541 H549 0.960 1_455 S
C542 C540 1.381 . S
C542 C543 1.394 . S
C542 H550 0.930 . S
C543 C542 1.394 . S
C543 C544 1.383 . S
C543 H551 0.929 1_455 S
C544 C543 1.383 . S
C544 C545 1.377 . S
C545 H529 0.930 . S
C545 C544 1.377 . S
C545 C546 1.379 . S
C546 H530 0.931 . S
C546 C540 1.383 . S
C546 C545 1.379 . S
H547 C541 0.959 1_655 S
H548 C541 0.961 . S
H549 C541 0.960 1_655 S
H550 C542 0.930 . S
H551 C543 0.929 1_655 S
H552 C560 0.929 1_565 S
H553 C562 0.930 . S
H554 C564 0.930 . S
H555 C567 0.929 . S
H556 C570 0.930 . S
H557 C572 0.960 . S
H558 C572 0.960 . S
H559 C572 0.960 . S
C560 H552 0.929 1_545 S
C560 C561 1.377 . S
C560 C562 1.384 . S
C561 C560 1.377 . S
C561 C567 1.390 . S
C562 H553 0.930 . S
C562 C560 1.384 . S
C562 C563 1.372 . S
C563 C562 1.372 . S
C563 C564 1.400 . S
C563 C568 1.490 . S
C564 H554 0.930 . S
C564 C563 1.400 . S
C564 C567 1.386 . S
H565 C581 0.930 . S
H566 C582 0.931 . S
C567 H555 0.929 . S
C567 C561 1.390 . S
C567 C564 1.386 . S
C568 C563 1.490 . S
C568 C570 1.395 . S
C568 C571 1.403 . S
H569 C575 0.930 . S
C570 H556 0.930 . S
C570 C568 1.395 . S
C570 C573 1.403 . S
C571 C568 1.403 . S
C571 C572 1.524 . S
C571 C575 1.400 . S
C572 H557 0.960 . S
C572 H558 0.960 . S
C572 H559 0.960 . S
C572 C571 1.524 . S
C573 C570 1.403 . S
C573 C574 1.392 . S
C573 C577 1.495 . S
C574 C573 1.392 . S
C574 C575 1.385 . S
C574 C576 1.478 . S
C575 H569 0.930 . S
C575 C571 1.400 . S
C575 C574 1.385 . S
C576 C574 1.478 . S
C576 C578 1.381 . S
C576 C582 1.383 . S
C577 C573 1.495 . S
C577 H583 0.959 . S
C577 H584 0.961 . S
C577 H585 0.960 1_455 S
C578 C576 1.381 . S
C578 C579 1.394 . S
C578 H586 0.930 . S
C579 C578 1.394 . S
C579 C580 1.383 . S
C579 H587 0.929 1_455 S
C580 C579 1.383 . S
C580 C581 1.377 . S
C581 H565 0.930 . S
C581 C580 1.377 . S
C581 C582 1.379 . S
C582 H566 0.931 . S
C582 C576 1.383 . S
C582 C581 1.379 . S
H583 C577 0.959 . S
H584 C577 0.961 . S
H585 C577 0.960 1_655 S
H586 C578 0.930 . S
H587 C579 0.929 1_655 S
H588 C596 0.929 . S
H589 C598 0.930 . S
H590 C600 0.930 . S
H591 C603 0.929 . S
H592 C606 0.930 . S
H593 C608 0.960 . S
H594 C608 0.960 . S
H595 C608 0.960 . S
C596 H588 0.929 . S
C596 C597 1.377 . S
C596 C598 1.384 . S
C597 C596 1.377 . S
C597 C603 1.390 . S
C598 H589 0.930 . S
C598 C596 1.384 . S
C598 C599 1.372 . S
C599 C598 1.372 . S
C599 C600 1.400 . S
C599 C604 1.490 . S
C600 H590 0.930 . S
C600 C599 1.400 . S
C600 C603 1.386 . S
H601 C617 0.930 . S
H602 C618 0.931 . S
C603 H591 0.929 . S
C603 C597 1.390 . S
C603 C600 1.386 . S
C604 C599 1.490 . S
C604 C606 1.395 . S
C604 C607 1.403 . S
H605 C611 0.930 1_455 S
C606 H592 0.930 . S
C606 C604 1.395 . S
C606 C609 1.403 1_655 S
C607 C604 1.403 . S
C607 C608 1.524 . S
C607 C611 1.400 . S
C608 H593 0.960 . S
C608 H594 0.960 . S
C608 H595 0.960 . S
C608 C607 1.524 . S
C609 C606 1.403 1_455 S
C609 C610 1.392 . S
C609 C613 1.495 . S
C610 C609 1.392 . S
C610 C611 1.385 1_455 S
C610 C612 1.478 . S
C611 H605 0.930 1_655 S
C611 C607 1.400 . S
C611 C610 1.385 1_655 S
C612 C610 1.478 . S
C612 C614 1.381 . S
C612 C618 1.383 . S
C613 C609 1.495 . S
C613 H619 0.959 . S
C613 H620 0.961 . S
C613 H621 0.960 . S
C614 C612 1.381 . S
C614 C615 1.394 . S
C614 H622 0.930 . S
C615 C614 1.394 . S
C615 C616 1.383 . S
C615 H623 0.929 . S
C616 C615 1.383 . S
C616 C617 1.377 . S
C617 H601 0.930 . S
C617 C616 1.377 . S
C617 C618 1.379 . S
C618 H602 0.931 . S
C618 C612 1.383 . S
C618 C617 1.379 . S
H619 C613 0.959 . S
H620 C613 0.961 . S
H621 C613 0.960 . S
H622 C614 0.930 . S
H623 C615 0.929 . S
H624 C632 0.929 . S
H625 C634 0.930 . S
H626 C636 0.930 1_655 S
H627 C639 0.929 1_655 S
H628 C642 0.930 . S
H629 C644 0.960 . S
H630 C644 0.960 . S
H631 C644 0.960 1_545 S
C632 H624 0.929 . S
C632 C633 1.377 . S
C632 C634 1.384 . S
C633 C632 1.377 . S
C633 C639 1.390 . S
C634 H625 0.930 . S
C634 C632 1.384 . S
C634 C635 1.372 . S
C635 C634 1.372 . S
C635 C636 1.400 . S
C635 C640 1.490 . S
C636 H626 0.930 1_455 S
C636 C635 1.400 . S
C636 C639 1.386 . S
H637 C653 0.930 . S
H638 C654 0.931 . S
C639 H627 0.929 1_455 S
C639 C633 1.390 . S
C639 C636 1.386 . S
C640 C635 1.490 . S
C640 C642 1.395 . S
C640 C643 1.403 1_455 S
H641 C647 0.930 . S
C642 H628 0.930 . S
C642 C640 1.395 . S
C642 C645 1.403 . S
C643 C640 1.403 1_655 S
C643 C644 1.524 1_545 S
C643 C647 1.400 1_545 S
C644 H629 0.960 . S
C644 H630 0.960 . S
C644 H631 0.960 1_565 S
C644 C643 1.524 1_565 S
C645 C642 1.403 . S
C645 C646 1.392 1_545 S
C645 C649 1.495 . S
C646 C645 1.392 1_565 S
C646 C647 1.385 1_455 S
C646 C648 1.478 . S
C647 H641 0.930 . S
C647 C643 1.400 1_565 S
C647 C646 1.385 1_655 S
C648 C646 1.478 . S
C648 C650 1.381 . S
C648 C654 1.383 . S
C649 C645 1.495 . S
C649 H655 0.959 . S
C649 H656 0.961 . S
C649 H657 0.960 . S
C650 C648 1.381 . S
C650 C651 1.394 . S
C650 H658 0.930 . S
C651 C650 1.394 . S
C651 C652 1.383 . S
C651 H659 0.929 . S
C652 C651 1.383 . S
C652 C653 1.377 . S
C653 H637 0.930 . S
C653 C652 1.377 . S
C653 C654 1.379 . S
C654 H638 0.931 . S
C654 C648 1.383 . S
C654 C653 1.379 . S
H655 C649 0.959 . S
H656 C649 0.961 . S
H657 C649 0.960 . S
H658 C650 0.930 . S
H659 C651 0.929 . S
H660 C668 0.925 1_565 S
H661 C670 0.936 . S
H662 C672 0.930 . S
H663 C675 0.929 . S
H664 C678 0.930 . S
H665 C680 0.960 . S
H666 C680 0.960 1_565 S
H667 C680 0.960 . S
C668 H660 0.925 1_545 S
C668 C669 1.385 . S
C668 C670 1.379 1_545 S
C669 C668 1.385 . S
C669 C675 1.390 . S
C670 H661 0.936 . S
C670 C668 1.379 1_565 S
C670 C671 1.368 1_565 S
C671 C670 1.368 1_545 S
C671 C672 1.400 . S
C671 C676 1.490 . S
C672 H662 0.930 . S
C672 C671 1.400 . S
C672 C675 1.386 . S
H673 C689 0.930 . S
H674 C690 0.931 . S
C675 H663 0.929 . S
C675 C669 1.390 . S
C675 C672 1.386 . S
C676 C671 1.490 . S
C676 C678 1.395 1_655 S
C676 C679 1.403 . S
H677 C683 0.929 1_655 S
C678 H664 0.930 . S
C678 C676 1.395 1_455 S
C678 C681 1.403 . S
C679 C676 1.403 . S
C679 C680 1.524 . S
C679 C683 1.393 1_655 S
C680 H665 0.960 . S
C680 H666 0.960 1_545 S
C680 H667 0.960 . S
C680 C679 1.524 . S
C681 C678 1.403 . S
C681 C682 1.392 . S
C681 C685 1.495 . S
C682 C681 1.392 . S
C682 C683 1.394 . S
C682 C684 1.478 . S
C683 H677 0.929 1_455 S
C683 C679 1.393 1_455 S
C683 C682 1.394 . S
C684 C682 1.478 . S
C684 C686 1.373 1_545 S
C684 C690 1.383 . S
C685 C681 1.495 . S
C685 H691 0.959 . S
C685 H692 0.961 . S
C685 H693 0.960 . S
C686 C684 1.373 1_565 S
C686 C687 1.390 . S
C686 H694 0.936 . S
C687 C686 1.390 . S
C687 C688 1.369 1_565 S
C687 H695 0.951 . S
C688 C687 1.369 1_545 S
C688 C689 1.377 . S
C689 H673 0.930 . S
C689 C688 1.377 . S
C689 C690 1.379 . S
C690 H674 0.931 . S
C690 C684 1.383 . S
C690 C689 1.379 . S
H691 C685 0.959 . S
H692 C685 0.961 . S
H693 C685 0.960 . S
H694 C686 0.936 . S
H695 C687 0.951 . S
H696 C704 0.929 . S
H697 C706 0.930 1_655 S
H698 C708 0.930 . S
H699 C711 0.929 . S
H700 C714 0.930 . S
H701 C716 0.960 . S
H702 C716 0.960 . S
H703 C716 0.960 1_455 S
C704 H696 0.929 . S
C704 C705 1.377 . S
C704 C706 1.384 . S
C705 C704 1.377 . S
C705 C711 1.390 . S
C706 H697 0.930 1_455 S
C706 C704 1.384 . S
C706 C707 1.372 . S
C707 C706 1.372 . S
C707 C708 1.400 . S
C707 C712 1.490 1_455 S
C708 H698 0.930 . S
C708 C707 1.400 . S
C708 C711 1.386 . S
H709 C725 0.930 . S
H710 C726 0.931 . S
C711 H699 0.929 . S
C711 C705 1.390 . S
C711 C708 1.386 . S
C712 C707 1.490 1_655 S
C712 C714 1.395 . S
C712 C715 1.403 1_545 S
H713 C719 0.930 . S
C714 H700 0.930 . S
C714 C712 1.395 . S
C714 C717 1.403 . S
C715 C712 1.403 1_565 S
C715 C716 1.524 . S
C715 C719 1.400 . S
C716 H701 0.960 . S
C716 H702 0.960 . S
C716 H703 0.960 1_655 S
C716 C715 1.524 . S
C717 C714 1.403 . S
C717 C718 1.392 1_545 S
C717 C721 1.495 . S
C718 C717 1.392 1_565 S
C718 C719 1.385 . S
C718 C720 1.478 . S
C719 H713 0.930 . S
C719 C715 1.400 . S
C719 C718 1.385 . S
C720 C718 1.478 . S
C720 C722 1.381 . S
C720 C726 1.383 . S
C721 C717 1.495 . S
C721 H727 0.959 . S
C721 H728 0.961 . S
C721 H729 0.960 . S
C722 C720 1.381 . S
C722 C723 1.394 . S
C722 H730 0.930 . S
C723 C722 1.394 . S
C723 C724 1.383 . S
C723 H731 0.929 . S
C724 C723 1.383 . S
C724 C725 1.377 . S
C725 H709 0.930 . S
C725 C724 1.377 . S
C725 C726 1.379 . S
C726 H710 0.931 . S
C726 C720 1.383 . S
C726 C725 1.379 . S
H727 C721 0.959 . S
H728 C721 0.961 . S
H729 C721 0.960 . S
H730 C722 0.930 . S
H731 C723 0.929 . S
H732 C740 0.929 1_455 S
H733 C742 0.930 1_455 S
H734 C744 0.930 . S
H735 C747 0.929 . S
H736 C750 0.930 . S
H737 C752 0.960 . S
H738 C752 0.960 . S
H739 C752 0.960 . S
C740 H732 0.929 1_655 S
C740 C741 1.377 . S
C740 C742 1.384 . S
C741 C740 1.377 . S
C741 C747 1.390 . S
C742 H733 0.930 1_655 S
C742 C740 1.384 . S
C742 C743 1.372 . S
C743 C742 1.372 . S
C743 C744 1.400 . S
C743 C748 1.490 1_545 S
C744 H734 0.930 . S
C744 C743 1.400 . S
C744 C747 1.386 . S
H745 C761 0.930 . S
H746 C762 0.931 . S
C747 H735 0.929 . S
C747 C741 1.390 . S
C747 C744 1.386 . S
C748 C743 1.490 1_565 S
C748 C750 1.395 . S
C748 C751 1.403 1_565 S
H749 C755 0.930 . S
C750 H736 0.930 . S
C750 C748 1.395 . S
C750 C753 1.403 . S
C751 C748 1.403 1_545 S
C751 C752 1.524 . S
C751 C755 1.400 1_545 S
C752 H737 0.960 . S
C752 H738 0.960 . S
C752 H739 0.960 . S
C752 C751 1.524 . S
C753 C750 1.403 . S
C753 C754 1.392 . S
C753 C757 1.495 . S
C754 C753 1.392 . S
C754 C755 1.385 . S
C754 C756 1.478 . S
C755 H749 0.930 . S
C755 C751 1.400 1_565 S
C755 C754 1.385 . S
C756 C754 1.478 . S
C756 C758 1.381 . S
C756 C762 1.383 . S
C757 C753 1.495 . S
C757 H763 0.959 . S
C757 H764 0.961 . S
C757 H765 0.960 . S
C758 C756 1.381 . S
C758 C759 1.394 . S
C758 H766 0.930 1_655 S
C759 C758 1.394 . S
C759 C760 1.383 . S
C759 H767 0.929 1_655 S
C760 C759 1.383 . S
C760 C761 1.377 . S
C761 H745 0.930 . S
C761 C760 1.377 . S
C761 C762 1.379 . S
C762 H746 0.931 . S
C762 C756 1.383 . S
C762 C761 1.379 . S
H763 C757 0.959 . S
H764 C757 0.961 . S
H765 C757 0.960 . S
H766 C758 0.930 1_455 S
H767 C759 0.929 1_455 S
H768 C776 0.929 . S
H769 C778 0.930 . S
H770 C780 0.930 . S
H771 C783 0.929 . S
H772 C786 0.930 . S
H773 C788 0.960 . S
H774 C788 0.960 . S
H775 C788 0.960 . S
C776 H768 0.929 . S
C776 C777 1.377 . S
C776 C778 1.384 . S
C777 C776 1.377 . S
C777 C783 1.390 . S
C778 H769 0.930 . S
C778 C776 1.384 . S
C778 C779 1.372 . S
C779 C778 1.372 . S
C779 C780 1.400 . S
C779 C784 1.490 1_455 S
C780 H770 0.930 . S
C780 C779 1.400 . S
C780 C783 1.386 . S
H781 C797 0.946 . S
H782 C798 0.931 1_545 S
C783 H771 0.929 . S
C783 C777 1.390 . S
C783 C780 1.386 . S
C784 C779 1.490 1_655 S
C784 C786 1.395 1_655 S
C784 C787 1.403 . S
H785 C791 0.930 . S
C786 H772 0.930 . S
C786 C784 1.395 1_455 S
C786 C789 1.403 1_455 S
C787 C784 1.403 . S
C787 C788 1.524 . S
C787 C791 1.400 . S
C788 H773 0.960 . S
C788 H774 0.960 . S
C788 H775 0.960 . S
C788 C787 1.524 . S
C789 C786 1.403 1_655 S
C789 C790 1.392 . S
C789 C793 1.495 1_655 S
C790 C789 1.392 . S
C790 C791 1.385 . S
C790 C792 1.478 . S
C791 H785 0.930 . S
C791 C787 1.400 . S
C791 C790 1.385 . S
C792 C790 1.478 . S
C792 C794 1.381 . S
C792 C798 1.383 . S
C793 C789 1.495 1_455 S
C793 H799 0.959 . S
C793 H800 0.961 1_565 S
C793 H801 0.960 1_455 S
C794 C792 1.381 . S
C794 C795 1.394 . S
C794 H802 0.930 . S
C795 C794 1.394 . S
C795 C796 1.383 . S
C795 H803 0.929 . S
C796 C795 1.383 . S
C796 C797 1.377 . S
C797 H781 0.946 . S
C797 C796 1.377 . S
C797 C798 1.379 . S
C798 H782 0.931 1_565 S
C798 C792 1.383 . S
C798 C797 1.379 . S
H799 C793 0.959 . S
H800 C793 0.961 1_545 S
H801 C793 0.960 1_655 S
H802 C794 0.930 . S
H803 C795 0.929 . S
H804 C812 0.929 . S
H805 C814 0.930 . S
H806 C816 0.930 . S
H807 C819 0.929 . S
H808 C822 0.930 . S
H809 C824 0.960 . S
H810 C824 0.960 1_655 S
H811 C824 0.960 . S
C812 H804 0.929 . S
C812 C813 1.377 . S
C812 C814 1.384 . S
C813 C812 1.377 . S
C813 C819 1.390 . S
C814 H805 0.930 . S
C814 C812 1.384 . S
C814 C815 1.372 . S
C815 C814 1.372 . S
C815 C816 1.400 . S
C815 C820 1.490 . S
C816 H806 0.930 . S
C816 C815 1.400 . S
C816 C819 1.386 . S
H817 C833 0.930 . S
H818 C834 0.931 . S
C819 H807 0.929 . S
C819 C813 1.390 . S
C819 C816 1.386 . S
C820 C815 1.490 . S
C820 C822 1.395 . S
C820 C823 1.403 1_655 S
H821 C827 0.930 . S
C822 H808 0.930 . S
C822 C820 1.395 . S
C822 C825 1.403 1_565 S
C823 C820 1.403 1_455 S
C823 C824 1.524 . S
C823 C827 1.400 . S
C824 H809 0.960 . S
C824 H810 0.960 1_455 S
C824 H811 0.960 . S
C824 C823 1.524 . S
C825 C822 1.403 1_545 S
C825 C826 1.394 1_655 S
C825 C829 1.494 . S
C826 C825 1.394 1_455 S
C826 C827 1.385 1_545 S
C826 C828 1.478 . S
C827 H821 0.930 . S
C827 C823 1.400 . S
C827 C826 1.385 1_565 S
C828 C826 1.478 . S
C828 C830 1.381 . S
C828 C834 1.383 . S
C829 C825 1.494 . S
C829 H835 0.959 . S
C829 H836 0.961 1_655 S
C829 H837 0.960 . S
C830 C828 1.381 . S
C830 C831 1.394 . S
C830 H838 0.930 . S
C831 C830 1.394 . S
C831 C832 1.383 . S
C831 H839 0.929 . S
C832 C831 1.383 . S
C832 C833 1.377 . S
C833 H817 0.930 . S
C833 C832 1.377 . S
C833 C834 1.379 . S
C834 H818 0.931 . S
C834 C828 1.383 . S
C834 C833 1.379 . S
H835 C829 0.959 . S
H836 C829 0.961 1_455 S
H837 C829 0.960 . S
H838 C830 0.930 . S
H839 C831 0.929 . S
H840 C848 0.929 . S
H841 C850 0.930 . S
H842 C852 0.927 1_556 S
H843 C855 0.929 . S
H844 C858 0.930 . S
H845 C860 0.960 . S
H846 C860 0.960 . S
H847 C860 0.960 1_556 S
C848 H840 0.929 . S
C848 C849 1.377 1_554 S
C848 C850 1.384 . S
C849 C848 1.377 1_556 S
C849 C855 1.390 . S
C850 H841 0.930 . S
C850 C848 1.384 . S
C850 C851 1.372 . S
C851 C850 1.372 . S
C851 C852 1.400 . S
C851 C856 1.490 . S
C852 H842 0.927 1_554 S
C852 C851 1.400 . S
C852 C855 1.386 1_554 S
H853 C869 0.930 . S
H854 C870 0.931 . S
C855 H843 0.929 . S
C855 C849 1.390 . S
C855 C852 1.386 1_556 S
C856 C851 1.490 . S
C856 C858 1.395 . S
C856 C859 1.403 . S
H857 C863 0.930 . S
C858 H844 0.930 . S
C858 C856 1.395 . S
C858 C861 1.403 . S
C859 C856 1.403 . S
C859 C860 1.524 . S
C859 C863 1.400 . S
C860 H845 0.960 . S
C860 H846 0.960 . S
C860 H847 0.960 1_554 S
C860 C859 1.524 . S
C861 C858 1.403 . S
C861 C862 1.392 . S
C861 C865 1.495 . S
C862 C861 1.392 . S
C862 C863 1.385 . S
C862 C864 1.478 . S
C863 H857 0.930 . S
C863 C859 1.400 . S
C863 C862 1.385 . S
C864 C862 1.478 . S
C864 C866 1.381 . S
C864 C870 1.383 . S
C865 C861 1.495 . S
C865 H871 0.959 . S
C865 H872 0.961 . S
C865 H873 0.960 . S
C866 C864 1.381 . S
C866 C867 1.394 . S
C866 H874 0.930 . S
C867 C866 1.394 . S
C867 C868 1.383 . S
C867 H875 0.929 . S
C868 C867 1.383 . S
C868 C869 1.377 . S
C869 H853 0.930 . S
C869 C868 1.377 . S
C869 C870 1.379 . S
C870 H854 0.931 . S
C870 C864 1.383 . S
C870 C869 1.379 . S
H871 C865 0.959 . S
H872 C865 0.961 . S
H873 C865 0.960 . S
H874 C866 0.930 . S
H875 C867 0.929 . S
H876 C884 0.929 . S
H877 C886 0.930 . S
H878 C888 0.930 . S
H879 C891 0.929 . S
H880 C894 0.930 . S
H881 C896 0.960 . S
H882 C896 0.960 . S
H883 C896 0.960 . S
C884 H876 0.929 . S
C884 C885 1.377 . S
C884 C886 1.384 . S
C885 C884 1.377 . S
C885 C891 1.390 . S
C886 H877 0.930 . S
C886 C884 1.384 . S
C886 C887 1.372 . S
C887 C886 1.372 . S
C887 C888 1.400 . S
C887 C892 1.490 . S
C888 H878 0.930 . S
C888 C887 1.400 . S
C888 C891 1.386 . S
H889 C905 0.930 . S
H890 C906 0.931 . S
C891 H879 0.929 . S
C891 C885 1.390 . S
C891 C888 1.386 . S
C892 C887 1.490 . S
C892 C894 1.395 . S
C892 C895 1.403 . S
H893 C899 0.930 . S
C894 H880 0.930 . S
C894 C892 1.395 . S
C894 C897 1.403 . S
C895 C892 1.403 . S
C895 C896 1.524 . S
C895 C899 1.400 . S
C896 H881 0.960 . S
C896 H882 0.960 . S
C896 H883 0.960 . S
C896 C895 1.524 . S
C897 C894 1.403 . S
C897 C898 1.392 . S
C897 C901 1.495 . S
C898 C897 1.392 . S
C898 C899 1.385 . S
C898 C900 1.478 . S
C899 H893 0.930 . S
C899 C895 1.400 . S
C899 C898 1.385 . S
C900 C898 1.478 . S
C900 C902 1.381 . S
C900 C906 1.383 . S
C901 C897 1.495 . S
C901 H907 0.959 . S
C901 H908 0.961 . S
C901 H909 0.960 . S
C902 C900 1.381 . S
C902 C903 1.394 . S
C902 H910 0.930 . S
C903 C902 1.394 . S
C903 C904 1.383 . S
C903 H911 0.929 . S
C904 C903 1.383 . S
C904 C905 1.377 . S
C905 H889 0.930 . S
C905 C904 1.377 . S
C905 C906 1.379 . S
C906 H890 0.931 . S
C906 C900 1.383 . S
C906 C905 1.379 . S
H907 C901 0.959 . S
H908 C901 0.961 . S
H909 C901 0.960 . S
H910 C902 0.930 . S
H911 C903 0.929 . S
H912 C920 0.929 . S
H913 C922 0.930 . S
H914 C924 0.930 . S
H915 C927 0.929 . S
H916 C930 0.930 . S
H917 C932 0.960 . S
H918 C932 0.960 . S
H919 C932 0.960 . S
C920 H912 0.929 . S
C920 C921 1.377 . S
C920 C922 1.384 . S
C921 C920 1.377 . S
C921 C927 1.390 . S
C922 H913 0.930 . S
C922 C920 1.384 . S
C922 C923 1.372 . S
C923 C922 1.372 . S
C923 C924 1.400 . S
C923 C928 1.490 . S
C924 H914 0.930 . S
C924 C923 1.400 . S
C924 C927 1.386 . S
H925 C941 0.930 . S
H926 C942 0.931 . S
C927 H915 0.929 . S
C927 C921 1.390 . S
C927 C924 1.386 . S
C928 C923 1.490 . S
C928 C930 1.395 . S
C928 C931 1.403 . S
H929 C935 0.930 . S
C930 H916 0.930 . S
C930 C928 1.395 . S
C930 C933 1.403 . S
C931 C928 1.403 . S
C931 C932 1.524 . S
C931 C935 1.400 . S
C932 H917 0.960 . S
C932 H918 0.960 . S
C932 H919 0.960 . S
C932 C931 1.524 . S
C933 C930 1.403 . S
C933 C934 1.392 . S
C933 C937 1.495 . S
C934 C933 1.392 . S
C934 C935 1.385 . S
C934 C936 1.478 . S
C935 H929 0.930 . S
C935 C931 1.400 . S
C935 C934 1.385 . S
C936 C934 1.478 . S
C936 C938 1.381 . S
C936 C942 1.383 . S
C937 C933 1.495 . S
C937 H943 0.959 . S
C937 H944 0.961 . S
C937 H945 0.960 . S
C938 C936 1.381 . S
C938 C939 1.394 . S
C938 H946 0.930 . S
C939 C938 1.394 . S
C939 C940 1.383 . S
C939 H947 0.929 . S
C940 C939 1.383 . S
C940 C941 1.377 . S
C941 H925 0.930 . S
C941 C940 1.377 . S
C941 C942 1.379 . S
C942 H926 0.931 . S
C942 C936 1.383 . S
C942 C941 1.379 . S
H943 C937 0.959 . S
H944 C937 0.961 . S
H945 C937 0.960 . S
H946 C938 0.930 . S
H947 C939 0.929 . S
H948 C956 0.929 . S
H949 C958 0.930 . S
H950 C960 0.930 . S
H951 C963 0.929 . S
H952 C966 0.930 . S
H953 C968 0.960 . S
H954 C968 0.960 . S
H955 C968 0.960 . S
C956 H948 0.929 . S
C956 C957 1.377 . S
C956 C958 1.384 . S
C957 C956 1.377 . S
C957 C963 1.390 . S
C958 H949 0.930 . S
C958 C956 1.384 . S
C958 C959 1.372 . S
C959 C958 1.372 . S
C959 C960 1.400 . S
C959 C964 1.490 . S
C960 H950 0.930 . S
C960 C959 1.400 . S
C960 C963 1.386 . S
H961 C977 0.930 . S
H962 C978 0.931 . S
C963 H951 0.929 . S
C963 C957 1.390 . S
C963 C960 1.386 . S
C964 C959 1.490 . S
C964 C966 1.395 . S
C964 C967 1.403 . S
H965 C971 0.930 . S
C966 H952 0.930 . S
C966 C964 1.395 . S
C966 C969 1.403 . S
C967 C964 1.403 . S
C967 C968 1.524 . S
C967 C971 1.400 . S
C968 H953 0.960 . S
C968 H954 0.960 . S
C968 H955 0.960 . S
C968 C967 1.524 . S
C969 C966 1.403 . S
C969 C970 1.392 . S
C969 C973 1.495 . S
C970 C969 1.392 . S
C970 C971 1.385 . S
C970 C972 1.478 . S
C971 H965 0.930 . S
C971 C967 1.400 . S
C971 C970 1.385 . S
C972 C970 1.478 . S
C972 C974 1.381 . S
C972 C978 1.383 . S
C973 C969 1.495 . S
C973 H979 0.959 . S
C973 H980 0.961 . S
C973 H981 0.960 . S
C974 C972 1.381 . S
C974 C975 1.394 . S
C974 H982 0.930 . S
C975 C974 1.394 . S
C975 C976 1.383 . S
C975 H983 0.929 . S
C976 C975 1.383 . S
C976 C977 1.377 . S
C977 H961 0.930 . S
C977 C976 1.377 . S
C977 C978 1.379 . S
C978 H962 0.931 . S
C978 C972 1.383 . S
C978 C977 1.379 . S
H979 C973 0.959 . S
H980 C973 0.961 . S
H981 C973 0.960 . S
H982 C974 0.930 . S
H983 C975 0.929 . S
H984 C992 0.929 . S
H985 C994 0.930 . S
H986 C996 0.930 . S
H987 C999 0.929 . S
H988 C1002 0.930 . S
H989 C1004 0.960 . S
H990 C1004 0.960 . S
H991 C1004 0.960 . S
C992 H984 0.929 . S
C992 C993 1.377 . S
C992 C994 1.384 . S
C993 C992 1.377 . S
C993 C999 1.390 . S
C994 H985 0.930 . S
C994 C992 1.384 . S
C994 C995 1.372 . S
C995 C994 1.372 . S
C995 C996 1.400 . S
C995 C1000 1.490 . S
C996 H986 0.930 . S
C996 C995 1.400 . S
C996 C999 1.386 . S
H997 C1013 0.930 . S
H998 C1014 0.931 . S
C999 H987 0.929 . S
C999 C993 1.390 . S
C999 C996 1.386 . S
C1000 C995 1.490 . S
C1000 C1002 1.395 . S
C1000 C1003 1.403 . S
H1001 C1007 0.930 . S
C1002 H988 0.930 . S
C1002 C1000 1.395 . S
C1002 C1005 1.403 . S
C1003 C1000 1.403 . S
C1003 C1004 1.524 . S
C1003 C1007 1.400 . S
C1004 H989 0.960 . S
C1004 H990 0.960 . S
C1004 H991 0.960 . S
C1004 C1003 1.524 . S
C1005 C1002 1.403 . S
C1005 C1006 1.392 . S
C1005 C1009 1.495 . S
C1006 C1005 1.392 . S
C1006 C1007 1.385 . S
C1006 C1008 1.478 . S
C1007 H1001 0.930 . S
C1007 C1003 1.400 . S
C1007 C1006 1.385 . S
C1008 C1006 1.478 . S
C1008 C1010 1.381 . S
C1008 C1014 1.383 . S
C1009 C1005 1.495 . S
C1009 H1015 0.959 . S
C1009 H1016 0.961 . S
C1009 H1017 0.960 . S
C1010 C1008 1.381 . S
C1010 C1011 1.394 . S
C1010 H1018 0.930 . S
C1011 C1010 1.394 . S
C1011 C1012 1.383 . S
C1011 H1019 0.929 . S
C1012 C1011 1.383 . S
C1012 C1013 1.377 . S
C1013 H997 0.930 . S
C1013 C1012 1.377 . S
C1013 C1014 1.379 . S
C1014 H998 0.931 . S
C1014 C1008 1.383 . S
C1014 C1013 1.379 . S
H1015 C1009 0.959 . S
H1016 C1009 0.961 . S
H1017 C1009 0.960 . S
H1018 C1010 0.930 . S
H1019 C1011 0.929 . S
H1020 C1028 0.929 . S
H1021 C1030 0.930 . S
H1022 C1032 0.930 . S
H1023 C1035 0.929 . S
H1024 C1038 0.930 . S
H1025 C1040 0.960 . S
H1026 C1040 0.960 . S
H1027 C1040 0.960 . S
C1028 H1020 0.929 . S
C1028 C1029 1.377 . S
C1028 C1030 1.384 . S
C1029 C1028 1.377 . S
C1029 C1035 1.390 . S
C1030 H1021 0.930 . S
C1030 C1028 1.384 . S
C1030 C1031 1.372 . S
C1031 C1030 1.372 . S
C1031 C1032 1.400 . S
C1031 C1036 1.490 . S
C1032 H1022 0.930 . S
C1032 C1031 1.400 . S
C1032 C1035 1.386 . S
H1033 C1049 0.930 . S
H1034 C1050 0.931 . S
C1035 H1023 0.929 . S
C1035 C1029 1.390 . S
C1035 C1032 1.386 . S
C1036 C1031 1.490 . S
C1036 C1038 1.395 . S
C1036 C1039 1.403 . S
H1037 C1043 0.930 . S
C1038 H1024 0.930 . S
C1038 C1036 1.395 . S
C1038 C1041 1.403 . S
C1039 C1036 1.403 . S
C1039 C1040 1.524 . S
C1039 C1043 1.400 . S
C1040 H1025 0.960 . S
C1040 H1026 0.960 . S
C1040 H1027 0.960 . S
C1040 C1039 1.524 . S
C1041 C1038 1.403 . S
C1041 C1042 1.392 . S
C1041 C1045 1.495 . S
C1042 C1041 1.392 . S
C1042 C1043 1.385 . S
C1042 C1044 1.478 . S
C1043 H1037 0.930 . S
C1043 C1039 1.400 . S
C1043 C1042 1.385 . S
C1044 C1042 1.478 . S
C1044 C1046 1.381 . S
C1044 C1050 1.383 . S
C1045 C1041 1.495 . S
C1045 H1051 0.959 . S
C1045 H1052 0.961 . S
C1045 H1053 0.960 1_545 S
C1046 C1044 1.381 . S
C1046 C1047 1.394 . S
C1046 H1054 0.930 . S
C1047 C1046 1.394 . S
C1047 C1048 1.383 . S
C1047 H1055 0.929 1_545 S
C1048 C1047 1.383 . S
C1048 C1049 1.377 . S
C1049 H1033 0.930 . S
C1049 C1048 1.377 . S
C1049 C1050 1.379 . S
C1050 H1034 0.931 . S
C1050 C1044 1.383 . S
C1050 C1049 1.379 . S
H1051 C1045 0.959 . S
H1052 C1045 0.961 . S
H1053 C1045 0.960 1_565 S
H1054 C1046 0.930 . S
H1055 C1047 0.929 1_565 S
H1056 C1064 0.929 . S
H1057 C1066 0.930 . S
H1058 C1068 0.930 . S
H1059 C1071 0.929 . S
H1060 C1074 0.930 . S
H1061 C1076 0.960 . S
H1062 C1076 0.960 . S
H1063 C1076 0.960 . S
C1064 H1056 0.929 . S
C1064 C1065 1.377 . S
C1064 C1066 1.384 . S
C1065 C1064 1.377 . S
C1065 C1071 1.390 . S
C1066 H1057 0.930 . S
C1066 C1064 1.384 . S
C1066 C1067 1.372 . S
C1067 C1066 1.372 . S
C1067 C1068 1.400 . S
C1067 C1072 1.490 . S
C1068 H1058 0.930 . S
C1068 C1067 1.400 . S
C1068 C1071 1.386 . S
H1069 C1085 0.930 . S
H1070 C1086 0.931 . S
C1071 H1059 0.929 . S
C1071 C1065 1.390 . S
C1071 C1068 1.386 . S
C1072 C1067 1.490 . S
C1072 C1074 1.395 . S
C1072 C1075 1.403 . S
H1073 C1079 0.930 . S
C1074 H1060 0.930 . S
C1074 C1072 1.395 . S
C1074 C1077 1.403 . S
C1075 C1072 1.403 . S
C1075 C1076 1.524 . S
C1075 C1079 1.400 . S
C1076 H1061 0.960 . S
C1076 H1062 0.960 . S
C1076 H1063 0.960 . S
C1076 C1075 1.524 . S
C1077 C1074 1.403 . S
C1077 C1078 1.392 . S
C1077 C1081 1.495 . S
C1078 C1077 1.392 . S
C1078 C1079 1.385 . S
C1078 C1080 1.478 . S
C1079 H1073 0.930 . S
C1079 C1075 1.400 . S
C1079 C1078 1.385 . S
C1080 C1078 1.478 . S
C1080 C1082 1.381 . S
C1080 C1086 1.383 . S
C1081 C1077 1.495 . S
C1081 H1087 0.959 . S
C1081 H1088 0.961 . S
C1081 H1089 0.960 . S
C1082 C1080 1.381 . S
C1082 C1083 1.394 . S
C1082 H1090 0.930 . S
C1083 C1082 1.394 . S
C1083 C1084 1.383 . S
C1083 H1091 0.929 . S
C1084 C1083 1.383 . S
C1084 C1085 1.377 . S
C1085 H1069 0.930 . S
C1085 C1084 1.377 . S
C1085 C1086 1.379 . S
C1086 H1070 0.931 . S
C1086 C1080 1.383 . S
C1086 C1085 1.379 . S
H1087 C1081 0.959 . S
H1088 C1081 0.961 . S
H1089 C1081 0.960 . S
H1090 C1082 0.930 . S
H1091 C1083 0.929 . S
H1092 C1100 0.929 . S
H1093 C1102 0.930 . S
H1094 C1104 0.930 . S
H1095 C1107 0.929 . S
H1096 C1110 0.930 . S
H1097 C1112 0.960 . S
H1098 C1112 0.960 . S
H1099 C1112 0.960 . S
C1100 H1092 0.929 . S
C1100 C1101 1.377 . S
C1100 C1102 1.384 . S
C1101 C1100 1.377 . S
C1101 C1107 1.390 . S
C1102 H1093 0.930 . S
C1102 C1100 1.384 . S
C1102 C1103 1.372 . S
C1103 C1102 1.372 . S
C1103 C1104 1.400 . S
C1103 C1108 1.490 . S
C1104 H1094 0.930 . S
C1104 C1103 1.400 . S
C1104 C1107 1.386 . S
H1105 C1121 0.930 . S
H1106 C1122 0.931 . S
C1107 H1095 0.929 . S
C1107 C1101 1.390 . S
C1107 C1104 1.386 . S
C1108 C1103 1.490 . S
C1108 C1110 1.395 . S
C1108 C1111 1.403 . S
H1109 C1115 0.930 . S
C1110 H1096 0.930 . S
C1110 C1108 1.395 . S
C1110 C1113 1.403 . S
C1111 C1108 1.403 . S
C1111 C1112 1.524 . S
C1111 C1115 1.400 . S
C1112 H1097 0.960 . S
C1112 H1098 0.960 . S
C1112 H1099 0.960 . S
C1112 C1111 1.524 . S
C1113 C1110 1.403 . S
C1113 C1114 1.392 . S
C1113 C1117 1.495 1_554 S
C1114 C1113 1.392 . S
C1114 C1115 1.385 . S
C1114 C1116 1.541 . S
C1115 H1109 0.930 . S
C1115 C1111 1.400 . S
C1115 C1114 1.385 . S
C1116 C1114 1.541 . S
C1116 C1118 1.274 1_554 S
C1116 C1122 1.434 . S
C1117 C1113 1.495 1_556 S
C1117 H1123 0.959 . S
C1117 H1124 0.961 . S
C1117 H1125 0.960 . S
C1118 C1116 1.274 1_556 S
C1118 C1119 1.394 . S
C1118 H1126 0.930 . S
C1119 C1118 1.394 . S
C1119 C1120 1.383 . S
C1119 H1127 0.929 . S
C1120 C1119 1.383 . S
C1120 C1121 1.375 1_556 S
C1121 H1105 0.930 . S
C1121 C1120 1.375 1_554 S
C1121 C1122 1.380 . S
C1122 H1106 0.931 . S
C1122 C1116 1.434 . S
C1122 C1121 1.380 . S
H1123 C1117 0.959 . S
H1124 C1117 0.961 . S
H1125 C1117 0.960 . S
H1126 C1118 0.930 . S
H1127 C1119 0.929 . S
H1128 C1136 0.929 . S
H1129 C1138 0.930 . S
H1130 C1140 0.930 . S
H1131 C1143 0.929 . S
H1132 C1146 0.930 . S
H1133 C1148 0.960 . S
H1134 C1148 0.960 . S
H1135 C1148 0.960 . S
C1136 H1128 0.929 . S
C1136 C1137 1.377 . S
C1136 C1138 1.384 . S
C1137 C1136 1.377 . S
C1137 C1143 1.390 . S
C1138 H1129 0.930 . S
C1138 C1136 1.384 . S
C1138 C1139 1.372 . S
C1139 C1138 1.372 . S
C1139 C1140 1.400 . S
C1139 C1144 1.490 . S
C1140 H1130 0.930 . S
C1140 C1139 1.400 . S
C1140 C1143 1.386 . S
H1141 C1157 0.930 . S
H1142 C1158 0.931 . S
C1143 H1131 0.929 . S
C1143 C1137 1.390 . S
C1143 C1140 1.386 . S
C1144 C1139 1.490 . S
C1144 C1146 1.395 . S
C1144 C1147 1.403 . S
H1145 C1151 0.930 . S
C1146 H1132 0.930 . S
C1146 C1144 1.395 . S
C1146 C1149 1.403 . S
C1147 C1144 1.403 . S
C1147 C1148 1.524 . S
C1147 C1151 1.400 . S
C1148 H1133 0.960 . S
C1148 H1134 0.960 . S
C1148 H1135 0.960 . S
C1148 C1147 1.524 . S
C1149 C1146 1.403 . S
C1149 C1150 1.392 . S
C1149 C1153 1.495 . S
C1150 C1149 1.392 . S
C1150 C1151 1.385 . S
C1150 C1152 1.478 . S
C1151 H1145 0.930 . S
C1151 C1147 1.400 . S
C1151 C1150 1.385 . S
C1152 C1150 1.478 . S
C1152 C1154 1.381 . S
C1152 C1158 1.383 . S
C1153 C1149 1.495 . S
C1153 H1159 0.959 . S
C1153 H1160 0.961 . S
C1153 H1161 0.960 . S
C1154 C1152 1.381 . S
C1154 C1155 1.394 . S
C1154 H1162 0.930 . S
C1155 C1154 1.394 . S
C1155 C1156 1.383 . S
C1155 H1163 0.929 . S
C1156 C1155 1.383 . S
C1156 C1157 1.377 . S
C1157 H1141 0.930 . S
C1157 C1156 1.377 . S
C1157 C1158 1.379 . S
C1158 H1142 0.931 . S
C1158 C1152 1.383 . S
C1158 C1157 1.379 . S
H1159 C1153 0.959 . S
H1160 C1153 0.961 . S
H1161 C1153 0.960 . S
H1162 C1154 0.930 . S
H1163 C1155 0.929 . S
H1164 C1172 0.929 . S
H1165 C1174 0.930 . S
H1166 C1176 0.930 . S
H1167 C1179 0.929 . S
H1168 C1182 0.930 . S
H1169 C1184 0.960 . S
H1170 C1184 0.960 . S
H1171 C1184 0.960 . S
C1172 H1164 0.929 . S
C1172 C1173 1.377 . S
C1172 C1174 1.384 . S
C1173 C1172 1.377 . S
C1173 C1179 1.390 . S
C1174 H1165 0.930 . S
C1174 C1172 1.384 . S
C1174 C1175 1.372 . S
C1175 C1174 1.372 . S
C1175 C1176 1.400 . S
C1175 C1180 1.490 . S
C1176 H1166 0.930 . S
C1176 C1175 1.400 . S
C1176 C1179 1.386 . S
H1177 C1193 0.930 . S
H1178 C1194 0.931 . S
C1179 H1167 0.929 . S
C1179 C1173 1.390 . S
C1179 C1176 1.386 . S
C1180 C1175 1.490 . S
C1180 C1182 1.395 . S
C1180 C1183 1.403 . S
H1181 C1187 0.930 . S
C1182 H1168 0.930 . S
C1182 C1180 1.395 . S
C1182 C1185 1.403 . S
C1183 C1180 1.403 . S
C1183 C1184 1.524 . S
C1183 C1187 1.400 . S
C1184 H1169 0.960 . S
C1184 H1170 0.960 . S
C1184 H1171 0.960 . S
C1184 C1183 1.524 . S
C1185 C1182 1.403 . S
C1185 C1186 1.392 . S
C1185 C1189 1.495 . S
C1186 C1185 1.392 . S
C1186 C1187 1.385 . S
C1186 C1188 1.478 . S
C1187 H1181 0.930 . S
C1187 C1183 1.400 . S
C1187 C1186 1.385 . S
C1188 C1186 1.478 . S
C1188 C1190 1.381 . S
C1188 C1194 1.383 . S
C1189 C1185 1.495 . S
C1189 H1195 0.959 . S
C1189 H1196 0.961 . S
C1189 H1197 0.960 . S
C1190 C1188 1.381 . S
C1190 C1191 1.394 . S
C1190 H1198 0.930 . S
C1191 C1190 1.394 . S
C1191 C1192 1.383 . S
C1191 H1199 0.929 . S
C1192 C1191 1.383 . S
C1192 C1193 1.377 . S
C1193 H1177 0.930 . S
C1193 C1192 1.377 . S
C1193 C1194 1.379 . S
C1194 H1178 0.931 . S
C1194 C1188 1.383 . S
C1194 C1193 1.379 . S
H1195 C1189 0.959 . S
H1196 C1189 0.961 . S
H1197 C1189 0.960 . S
H1198 C1190 0.930 . S
H1199 C1191 0.929 . S
H1200 C1208 0.929 . S
H1201 C1210 0.930 . S
H1202 C1212 0.930 . S
H1203 C1215 0.929 . S
H1204 C1218 0.930 . S
H1205 C1220 0.960 . S
H1206 C1220 0.960 . S
H1207 C1220 0.960 . S
C1208 H1200 0.929 . S
C1208 C1209 1.377 . S
C1208 C1210 1.384 . S
C1209 C1208 1.377 . S
C1209 C1215 1.390 . S
C1210 H1201 0.930 . S
C1210 C1208 1.384 . S
C1210 C1211 1.372 . S
C1211 C1210 1.372 . S
C1211 C1212 1.400 . S
C1211 C1216 1.490 . S
C1212 H1202 0.930 . S
C1212 C1211 1.400 . S
C1212 C1215 1.386 . S
H1213 C1229 0.930 . S
H1214 C1230 0.931 . S
C1215 H1203 0.929 . S
C1215 C1209 1.390 . S
C1215 C1212 1.386 . S
C1216 C1211 1.490 . S
C1216 C1218 1.395 . S
C1216 C1219 1.403 . S
H1217 C1223 0.930 . S
C1218 H1204 0.930 . S
C1218 C1216 1.395 . S
C1218 C1221 1.403 . S
C1219 C1216 1.403 . S
C1219 C1220 1.524 . S
C1219 C1223 1.400 . S
C1220 H1205 0.960 . S
C1220 H1206 0.960 . S
C1220 H1207 0.960 . S
C1220 C1219 1.524 . S
C1221 C1218 1.403 . S
C1221 C1222 1.392 . S
C1221 C1225 1.495 . S
C1222 C1221 1.392 . S
C1222 C1223 1.385 . S
C1222 C1224 1.478 . S
C1223 H1217 0.930 . S
C1223 C1219 1.400 . S
C1223 C1222 1.385 . S
C1224 C1222 1.478 . S
C1224 C1226 1.381 . S
C1224 C1230 1.383 . S
C1225 C1221 1.495 . S
C1225 H1231 0.959 . S
C1225 H1232 0.961 . S
C1225 H1233 0.960 . S
C1226 C1224 1.381 . S
C1226 C1227 1.394 . S
C1226 H1234 0.930 . S
C1227 C1226 1.394 . S
C1227 C1228 1.383 . S
C1227 H1235 0.929 . S
C1228 C1227 1.383 . S
C1228 C1229 1.377 . S
C1229 H1213 0.930 . S
C1229 C1228 1.377 . S
C1229 C1230 1.379 . S
C1230 H1214 0.931 . S
C1230 C1224 1.383 . S
C1230 C1229 1.379 . S
H1231 C1225 0.959 . S
H1232 C1225 0.961 . S
H1233 C1225 0.960 . S
H1234 C1226 0.930 . S
H1235 C1227 0.929 . S
H1236 C1244 0.929 . S
H1237 C1246 0.930 . S
H1238 C1248 0.930 . S
H1239 C1251 0.929 . S
H1240 C1254 0.930 . S
H1241 C1256 0.960 . S
H1242 C1256 0.960 . S
H1243 C1256 0.960 . S
C1244 H1236 0.929 . S
C1244 C1245 1.377 . S
C1244 C1246 1.384 . S
C1245 C1244 1.377 . S
C1245 C1251 1.390 . S
C1246 H1237 0.930 . S
C1246 C1244 1.384 . S
C1246 C1247 1.372 . S
C1247 C1246 1.372 . S
C1247 C1248 1.400 . S
C1247 C1252 1.490 . S
C1248 H1238 0.930 . S
C1248 C1247 1.400 . S
C1248 C1251 1.386 . S
H1249 C1265 0.930 . S
H1250 C1266 0.931 . S
C1251 H1239 0.929 . S
C1251 C1245 1.390 . S
C1251 C1248 1.386 . S
C1252 C1247 1.490 . S
C1252 C1254 1.395 . S
C1252 C1255 1.403 . S
H1253 C1259 0.930 . S
C1254 H1240 0.930 . S
C1254 C1252 1.395 . S
C1254 C1257 1.403 . S
C1255 C1252 1.403 . S
C1255 C1256 1.524 . S
C1255 C1259 1.400 . S
C1256 H1241 0.960 . S
C1256 H1242 0.960 . S
C1256 H1243 0.960 . S
C1256 C1255 1.524 . S
C1257 C1254 1.403 . S
C1257 C1258 1.392 . S
C1257 C1261 1.495 . S
C1258 C1257 1.392 . S
C1258 C1259 1.385 . S
C1258 C1260 1.478 . S
C1259 H1253 0.930 . S
C1259 C1255 1.400 . S
C1259 C1258 1.385 . S
C1260 C1258 1.478 . S
C1260 C1262 1.381 . S
C1260 C1266 1.383 . S
C1261 C1257 1.495 . S
C1261 H1267 0.959 . S
C1261 H1268 0.961 . S
C1261 H1269 0.960 . S
C1262 C1260 1.381 . S
C1262 C1263 1.394 . S
C1262 H1270 0.930 . S
C1263 C1262 1.394 . S
C1263 C1264 1.383 . S
C1263 H1271 0.929 . S
C1264 C1263 1.383 . S
C1264 C1265 1.377 . S
C1265 H1249 0.930 . S
C1265 C1264 1.377 . S
C1265 C1266 1.379 . S
C1266 H1250 0.931 . S
C1266 C1260 1.383 . S
C1266 C1265 1.379 . S
H1267 C1261 0.959 . S
H1268 C1261 0.961 . S
H1269 C1261 0.960 . S
H1270 C1262 0.930 . S
H1271 C1263 0.929 . S
H1272 C1280 0.929 . S
H1273 C1282 0.930 . S
H1274 C1284 0.930 . S
H1275 C1287 0.929 . S
H1276 C1290 0.930 . S
H1277 C1292 0.960 . S
H1278 C1292 0.960 1_655 S
H1279 C1292 0.960 . S
C1280 H1272 0.929 . S
C1280 C1281 1.377 . S
C1280 C1282 1.384 . S
C1281 C1280 1.377 . S
C1281 C1287 1.390 1_655 S
C1282 H1273 0.930 . S
C1282 C1280 1.384 . S
C1282 C1283 1.372 . S
C1283 C1282 1.372 . S
C1283 C1284 1.400 1_655 S
C1283 C1288 1.490 . S
C1284 H1274 0.930 . S
C1284 C1283 1.400 1_455 S
C1284 C1287 1.386 . S
H1285 C1301 0.930 . S
H1286 C1302 0.931 . S
C1287 H1275 0.929 . S
C1287 C1281 1.390 1_455 S
C1287 C1284 1.386 . S
C1288 C1283 1.490 . S
C1288 C1290 1.395 . S
C1288 C1291 1.413 . S
H1289 C1295 0.919 1_455 S
C1290 H1276 0.930 . S
C1290 C1288 1.395 . S
C1290 C1293 1.403 . S
C1291 C1288 1.413 . S
C1291 C1292 1.518 1_655 S
C1291 C1295 1.400 . S
C1292 H1277 0.960 . S
C1292 H1278 0.960 1_455 S
C1292 H1279 0.960 . S
C1292 C1291 1.518 1_455 S
C1293 C1290 1.403 . S
C1293 C1294 1.392 . S
C1293 C1297 1.495 . S
C1294 C1293 1.392 . S
C1294 C1295 1.392 . S
C1294 C1296 1.478 . S
C1295 H1289 0.919 1_655 S
C1295 C1291 1.400 . S
C1295 C1294 1.392 . S
C1296 C1294 1.478 . S
C1296 C1298 1.381 . S
C1296 C1302 1.383 1_655 S
C1297 C1293 1.495 . S
C1297 H1303 0.959 . S
C1297 H1304 0.961 . S
C1297 H1305 0.960 . S
C1298 C1296 1.381 . S
C1298 C1299 1.394 . S
C1298 H1306 0.930 . S
C1299 C1298 1.394 . S
C1299 C1300 1.383 . S
C1299 H1307 0.929 . S
C1300 C1299 1.383 . S
C1300 C1301 1.377 1_655 S
C1301 H1285 0.930 . S
C1301 C1300 1.377 1_455 S
C1301 C1302 1.379 . S
C1302 H1286 0.931 . S
C1302 C1296 1.383 1_455 S
C1302 C1301 1.379 . S
H1303 C1297 0.959 . S
H1304 C1297 0.961 . S
H1305 C1297 0.960 . S
H1306 C1298 0.930 . S
H1307 C1299 0.929 . S
H1308 C1316 0.929 . S
H1309 C1318 0.930 . S
H1310 C1320 0.930 . S
H1311 C1323 0.929 . S
H1312 C1326 0.930 . S
H1313 C1328 0.960 . S
H1314 C1328 0.960 . S
H1315 C1328 0.960 1_565 S
C1316 H1308 0.929 . S
C1316 C1317 1.377 . S
C1316 C1318 1.384 . S
C1317 C1316 1.377 . S
C1317 C1323 1.390 1_545 S
C1318 H1309 0.930 . S
C1318 C1316 1.384 . S
C1318 C1319 1.372 . S
C1319 C1318 1.372 . S
C1319 C1320 1.400 1_545 S
C1319 C1324 1.490 . S
C1320 H1310 0.930 . S
C1320 C1319 1.400 1_565 S
C1320 C1323 1.386 . S
H1321 C1337 0.930 . S
H1322 C1338 0.931 . S
C1323 H1311 0.929 . S
C1323 C1317 1.390 1_565 S
C1323 C1320 1.386 . S
C1324 C1319 1.490 . S
C1324 C1326 1.395 1_545 S
C1324 C1327 1.403 . S
H1325 C1331 0.930 . S
C1326 H1312 0.930 . S
C1326 C1324 1.395 1_565 S
C1326 C1329 1.403 . S
C1327 C1324 1.403 . S
C1327 C1328 1.524 . S
C1327 C1331 1.400 . S
C1328 H1313 0.960 . S
C1328 H1314 0.960 . S
C1328 H1315 0.960 1_545 S
C1328 C1327 1.524 . S
C1329 C1326 1.403 . S
C1329 C1330 1.392 1_565 S
C1329 C1333 1.495 . S
C1330 C1329 1.392 1_545 S
C1330 C1331 1.386 . S
C1330 C1332 1.477 1_545 S
C1331 H1325 0.930 . S
C1331 C1327 1.400 . S
C1331 C1330 1.386 . S
C1332 C1330 1.477 1_565 S
C1332 C1334 1.381 1_565 S
C1332 C1338 1.383 . S
C1333 C1329 1.495 . S
C1333 H1339 0.959 . S
C1333 H1340 0.961 . S
C1333 H1341 0.960 1_565 S
C1334 C1332 1.381 1_545 S
C1334 C1335 1.394 . S
C1334 H1342 0.930 . S
C1335 C1334 1.394 . S
C1335 C1336 1.374 1_545 S
C1335 H1343 0.929 . S
C1336 C1335 1.374 1_565 S
C1336 C1337 1.389 . S
C1337 H1321 0.930 . S
C1337 C1336 1.389 . S
C1337 C1338 1.379 . S
C1338 H1322 0.931 . S
C1338 C1332 1.383 . S
C1338 C1337 1.379 . S
H1339 C1333 0.959 . S
H1340 C1333 0.961 . S
H1341 C1333 0.960 1_545 S
H1342 C1334 0.930 . S
H1343 C1335 0.929 . S
H1344 C1352 0.929 . S
H1345 C1354 0.930 . S
H1346 C1356 0.930 . S
H1347 C1359 0.929 . S
H1348 C1362 0.930 . S
H1349 C1364 0.960 . S
H1350 C1364 0.960 . S
H1351 C1364 0.960 . S
C1352 H1344 0.929 . S
C1352 C1353 1.377 . S
C1352 C1354 1.384 . S
C1353 C1352 1.377 . S
C1353 C1359 1.390 . S
C1354 H1345 0.930 . S
C1354 C1352 1.384 . S
C1354 C1355 1.372 . S
C1355 C1354 1.372 . S
C1355 C1356 1.400 . S
C1355 C1360 1.490 . S
C1356 H1346 0.930 . S
C1356 C1355 1.400 . S
C1356 C1359 1.386 . S
H1357 C1373 0.930 . S
H1358 C1374 0.931 . S
C1359 H1347 0.929 . S
C1359 C1353 1.390 . S
C1359 C1356 1.386 . S
C1360 C1355 1.490 . S
C1360 C1362 1.395 . S
C1360 C1363 1.403 . S
H1361 C1367 0.930 . S
C1362 H1348 0.930 . S
C1362 C1360 1.395 . S
C1362 C1365 1.403 . S
C1363 C1360 1.403 . S
C1363 C1364 1.524 . S
C1363 C1367 1.400 . S
C1364 H1349 0.960 . S
C1364 H1350 0.960 . S
C1364 H1351 0.960 . S
C1364 C1363 1.524 . S
C1365 C1362 1.403 . S
C1365 C1366 1.392 . S
C1365 C1369 1.495 . S
C1366 C1365 1.392 . S
C1366 C1367 1.385 . S
C1366 C1368 1.478 . S
C1367 H1361 0.930 . S
C1367 C1363 1.400 . S
C1367 C1366 1.385 . S
C1368 C1366 1.478 . S
C1368 C1370 1.381 . S
C1368 C1374 1.383 . S
C1369 C1365 1.495 . S
C1369 H1375 0.959 . S
C1369 H1376 0.961 . S
C1369 H1377 0.960 . S
C1370 C1368 1.381 . S
C1370 C1371 1.394 . S
C1370 H1378 0.930 . S
C1371 C1370 1.394 . S
C1371 C1372 1.383 . S
C1371 H1379 0.929 . S
C1372 C1371 1.383 . S
C1372 C1373 1.377 . S
C1373 H1357 0.930 . S
C1373 C1372 1.377 . S
C1373 C1374 1.379 . S
C1374 H1358 0.931 . S
C1374 C1368 1.383 . S
C1374 C1373 1.379 . S
H1375 C1369 0.959 . S
H1376 C1369 0.961 . S
H1377 C1369 0.960 . S
H1378 C1370 0.930 . S
H1379 C1371 0.929 . S
H1380 C1388 0.929 . S
H1381 C1390 0.930 . S
H1382 C1392 0.930 . S
H1383 C1395 0.929 . S
H1384 C1398 0.930 . S
H1385 C1400 0.960 . S
H1386 C1400 0.960 . S
H1387 C1400 0.960 1_455 S
C1388 H1380 0.929 . S
C1388 C1389 1.377 . S
C1388 C1390 1.384 . S
C1389 C1388 1.377 . S
C1389 C1395 1.390 1_655 S
C1390 H1381 0.930 . S
C1390 C1388 1.384 . S
C1390 C1391 1.372 . S
C1391 C1390 1.372 . S
C1391 C1392 1.400 1_655 S
C1391 C1396 1.490 . S
C1392 H1382 0.930 . S
C1392 C1391 1.400 1_455 S
C1392 C1395 1.386 . S
H1393 C1409 0.930 . S
H1394 C1410 0.931 . S
C1395 H1383 0.929 . S
C1395 C1389 1.390 1_455 S
C1395 C1392 1.386 . S
C1396 C1391 1.490 . S
C1396 C1398 1.395 . S
C1396 C1399 1.403 . S
H1397 C1403 0.930 . S
C1398 H1384 0.930 . S
C1398 C1396 1.395 . S
C1398 C1401 1.403 . S
C1399 C1396 1.403 . S
C1399 C1400 1.524 . S
C1399 C1403 1.400 . S
C1400 H1385 0.960 . S
C1400 H1386 0.960 . S
C1400 H1387 0.960 1_655 S
C1400 C1399 1.524 . S
C1401 C1398 1.403 . S
C1401 C1402 1.392 . S
C1401 C1405 1.495 . S
C1402 C1401 1.392 . S
C1402 C1403 1.385 . S
C1402 C1404 1.478 . S
C1403 H1397 0.930 . S
C1403 C1399 1.400 . S
C1403 C1402 1.385 . S
C1404 C1402 1.478 . S
C1404 C1406 1.381 . S
C1404 C1410 1.383 1_655 S
C1405 C1401 1.495 . S
C1405 H1411 0.959 . S
C1405 H1412 0.961 . S
C1405 H1413 0.960 . S
C1406 C1404 1.381 . S
C1406 C1407 1.394 . S
C1406 H1414 0.930 . S
C1407 C1406 1.394 . S
C1407 C1408 1.383 . S
C1407 H1415 0.929 . S
C1408 C1407 1.383 . S
C1408 C1409 1.377 1_655 S
C1409 H1393 0.930 . S
C1409 C1408 1.377 1_455 S
C1409 C1410 1.379 . S
C1410 H1394 0.931 . S
C1410 C1404 1.383 1_455 S
C1410 C1409 1.379 . S
H1411 C1405 0.959 . S
H1412 C1405 0.961 . S
H1413 C1405 0.960 . S
H1414 C1406 0.930 . S
H1415 C1407 0.929 . S
H1416 C1424 0.929 . S
H1417 C1426 0.930 . S
H1418 C1428 0.930 . S
H1419 C1431 0.929 . S
H1420 C1434 0.930 . S
H1421 C1436 0.960 . S
H1422 C1436 0.960 . S
H1423 C1436 0.960 . S
C1424 H1416 0.929 . S
C1424 C1425 1.377 . S
C1424 C1426 1.384 . S
C1425 C1424 1.377 . S
C1425 C1431 1.390 . S
C1426 H1417 0.930 . S
C1426 C1424 1.384 . S
C1426 C1427 1.372 . S
C1427 C1426 1.372 . S
C1427 C1428 1.400 . S
C1427 C1432 1.490 . S
C1428 H1418 0.930 . S
C1428 C1427 1.400 . S
C1428 C1431 1.386 . S
H1429 C1445 0.930 1_545 S
H1430 C1446 0.945 . S
C1431 H1419 0.929 . S
C1431 C1425 1.390 . S
C1431 C1428 1.386 . S
C1432 C1427 1.490 . S
C1432 C1434 1.395 1_565 S
C1432 C1435 1.403 . S
H1433 C1439 0.930 . S
C1434 H1420 0.930 . S
C1434 C1432 1.395 1_545 S
C1434 C1437 1.403 . S
C1435 C1432 1.403 . S
C1435 C1436 1.524 . S
C1435 C1439 1.400 . S
C1436 H1421 0.960 . S
C1436 H1422 0.960 . S
C1436 H1423 0.960 . S
C1436 C1435 1.524 . S
C1437 C1434 1.403 . S
C1437 C1438 1.392 1_545 S
C1437 C1441 1.495 . S
C1438 C1437 1.392 1_565 S
C1438 C1439 1.385 . S
C1438 C1440 1.478 . S
C1439 H1433 0.930 . S
C1439 C1435 1.400 . S
C1439 C1438 1.385 . S
C1440 C1438 1.478 . S
C1440 C1442 1.381 . S
C1440 C1446 1.375 1_565 S
C1441 C1437 1.495 . S
C1441 H1447 0.959 . S
C1441 H1448 0.961 . S
C1441 H1449 0.960 . S
C1442 C1440 1.381 . S
C1442 C1443 1.394 . S
C1442 H1450 0.930 . S
C1443 C1442 1.394 . S
C1443 C1444 1.383 . S
C1443 H1451 0.929 . S
C1444 C1443 1.383 . S
C1444 C1445 1.377 . S
C1445 H1429 0.930 1_565 S
C1445 C1444 1.377 . S
C1445 C1446 1.374 1_565 S
C1446 H1430 0.945 . S
C1446 C1440 1.375 1_545 S
C1446 C1445 1.374 1_545 S
H1447 C1441 0.959 . S
H1448 C1441 0.961 . S
H1449 C1441 0.960 . S
H1450 C1442 0.930 . S
H1451 C1443 0.929 . S
H1452 C1460 0.929 . S
H1453 C1462 0.930 . S
H1454 C1464 0.930 . S
H1455 C1467 0.929 . S
H1456 C1470 0.930 . S
H1457 C1472 0.960 . S
H1458 C1472 0.960 . S
H1459 C1472 0.960 . S
C1460 H1452 0.929 . S
C1460 C1461 1.377 . S
C1460 C1462 1.384 . S
C1461 C1460 1.377 . S
C1461 C1467 1.390 . S
C1462 H1453 0.930 . S
C1462 C1460 1.384 . S
C1462 C1463 1.372 . S
C1463 C1462 1.372 . S
C1463 C1464 1.400 . S
C1463 C1468 1.490 . S
C1464 H1454 0.930 . S
C1464 C1463 1.400 . S
C1464 C1467 1.386 . S
H1465 C1481 0.930 . S
H1466 C1482 0.931 . S
C1467 H1455 0.929 . S
C1467 C1461 1.390 . S
C1467 C1464 1.386 . S
C1468 C1463 1.490 . S
C1468 C1470 1.395 . S
C1468 C1471 1.403 . S
H1469 C1475 0.930 . S
C1470 H1456 0.930 . S
C1470 C1468 1.395 . S
C1470 C1473 1.403 . S
C1471 C1468 1.403 . S
C1471 C1472 1.524 . S
C1471 C1475 1.400 . S
C1472 H1457 0.960 . S
C1472 H1458 0.960 . S
C1472 H1459 0.960 . S
C1472 C1471 1.524 . S
C1473 C1470 1.403 . S
C1473 C1474 1.392 . S
C1473 C1477 1.495 . S
C1474 C1473 1.392 . S
C1474 C1475 1.385 . S
C1474 C1476 1.478 . S
C1475 H1469 0.930 . S
C1475 C1471 1.400 . S
C1475 C1474 1.385 . S
C1476 C1474 1.478 . S
C1476 C1478 1.381 . S
C1476 C1482 1.383 . S
C1477 C1473 1.495 . S
C1477 H1483 0.959 . S
C1477 H1484 0.961 . S
C1477 H1485 0.960 . S
C1478 C1476 1.381 . S
C1478 C1479 1.394 . S
C1478 H1486 0.930 . S
C1479 C1478 1.394 . S
C1479 C1480 1.383 . S
C1479 H1487 0.929 . S
C1480 C1479 1.383 . S
C1480 C1481 1.377 . S
C1481 H1465 0.930 . S
C1481 C1480 1.377 . S
C1481 C1482 1.379 . S
C1482 H1466 0.931 . S
C1482 C1476 1.383 . S
C1482 C1481 1.379 . S
H1483 C1477 0.959 . S
H1484 C1477 0.961 . S
H1485 C1477 0.960 . S
H1486 C1478 0.930 . S
H1487 C1479 0.929 . S
C417 C240 1.807 . S
C436 C2 1.807 . S
C453 C274 1.807 . S
C472 C36 1.805 . S
C489 C70 1.808 . S
C508 C308 1.801 . S
C525 C342 1.806 . S
C544 C104 1.799 . S
C561 C138 1.806 . S
C580 C376 1.799 . S
C597 C206 1.807 . S
C616 C172 1.806 . S
C633 C9 1.239 . S
C652 C281 1.208 . S
C669 C43 1.240 . S
C688 C315 1.222 . S
C705 C349 1.234 . S
C724 C77 1.222 . S
C741 C383 1.240 . S
C760 C111 1.227 . S
C777 C145 1.230 . S
C796 C213 1.249 . S
C813 C247 1.233 . S
C832 C179 1.255 . S
C849 C243 1.549 . S
C868 C33 1.559 . S
C885 C277 1.545 . S
C904 C67 1.557 . S
C921 C311 1.545 . S
C940 C101 1.557 . S
C957 C135 1.561 . S
C976 C345 1.531 . S
C993 C379 1.551 . S
C1012 C169 1.559 . S
C1029 C203 1.562 . S
C1048 C209 1.554 . S
C1065 C237 1.561 . S
C1084 C175 1.556 . S
C1101 C5 1.550 . S
C1120 C271 1.559 . S
C1137 C39 1.545 . S
C1156 C305 1.558 . S
C1173 C73 1.544 . S
C1192 C339 1.556 . S
C1209 C107 1.546 . S
C1228 C373 1.559 . S
C1245 C141 1.550 . S
C1264 C407 1.558 . S
C1281 C292 1.281 . S
C1300 C20 1.279 . S
C1317 C54 1.288 . S
C1336 C326 1.268 1_565 S
C1353 C360 1.281 . S
C1372 C88 1.279 . S
C1389 C122 1.280 . S
C1408 C394 1.276 . S
C1425 C156 1.281 . S
C1444 C224 1.278 . S
C1461 C258 1.282 . S
C1480 C190 1.278 . S
