# Generated by pormake.
# Topology vbn, (6)-cn, num edge types: 1
# Building blocks:
#     Node 0, Type 0, BuildingBlock: IZENUY_clean_sbu_0, # of connection points: 6
#     Node 1, Type 0, BuildingBlock: IZENUY_clean_sbu_0, # of connection points: 6
#     Node 2, Type 0, BuildingBlock: IZENUY_clean_sbu_0, # of connection points: 6
#     Node 3, Type 0, BuildingBlock: IZENUY_clean_sbu_0, # of connection points: 6
#     Node 4, Type 0, BuildingBlock: IZENUY_clean_sbu_0, # of connection points: 6
#     Node 5, Type 0, BuildingBlock: IZENUY_clean_sbu_0, # of connection points: 6
#     Node 6, Type 0, BuildingBlock: IZENUY_clean_sbu_0, # of connection points: 6
#     Node 7, Type 0, BuildingBlock: IZENUY_clean_sbu_0, # of connection points: 6
#     Edge 8, Type (0, 0), BuildingBlock: AJUNOK_clean_linker_0, # of connection points: 2
#     Edge 9, Type (0, 0), BuildingBlock: AJUNOK_clean_linker_0, # of connection points: 2
#     Edge 10, Type (0, 0), BuildingBlock: AJUNOK_clean_linker_0, # of connection points: 2
#     Edge 11, Type (0, 0), BuildingBlock: AJUNOK_clean_linker_0, # of connection points: 2
#     Edge 12, Type (0, 0), BuildingBlock: AJUNOK_clean_linker_0, # of connection points: 2
#     Edge 13, Type (0, 0), BuildingBlock: AJUNOK_clean_linker_0, # of connection points: 2
#     Edge 14, Type (0, 0), BuildingBlock: AJUNOK_clean_linker_0, # of connection points: 2
#     Edge 15, Type (0, 0), BuildingBlock: AJUNOK_clean_linker_0, # of connection points: 2
#     Edge 16, Type (0, 0), BuildingBlock: AJUNOK_clean_linker_0, # of connection points: 2
#     Edge 17, Type (0, 0), BuildingBlock: AJUNOK_clean_linker_0, # of connection points: 2
#     Edge 18, Type (0, 0), BuildingBlock: AJUNOK_clean_linker_0, # of connection points: 2
#     Edge 19, Type (0, 0), BuildingBlock: AJUNOK_clean_linker_0, # of connection points: 2
#     Edge 20, Type (0, 0), BuildingBlock: AJUNOK_clean_linker_0, # of connection points: 2
#     Edge 21, Type (0, 0), BuildingBlock: AJUNOK_clean_linker_0, # of connection points: 2
#     Edge 22, Type (0, 0), BuildingBlock: AJUNOK_clean_linker_0, # of connection points: 2
#     Edge 23, Type (0, 0), BuildingBlock: AJUNOK_clean_linker_0, # of connection points: 2
#     Edge 24, Type (0, 0), BuildingBlock: AJUNOK_clean_linker_0, # of connection points: 2
#     Edge 25, Type (0, 0), BuildingBlock: AJUNOK_clean_linker_0, # of connection points: 2
#     Edge 26, Type (0, 0), BuildingBlock: AJUNOK_clean_linker_0, # of connection points: 2
#     Edge 27, Type (0, 0), BuildingBlock: AJUNOK_clean_linker_0, # of connection points: 2
#     Edge 28, Type (0, 0), BuildingBlock: AJUNOK_clean_linker_0, # of connection points: 2
#     Edge 29, Type (0, 0), BuildingBlock: AJUNOK_clean_linker_0, # of connection points: 2
#     Edge 30, Type (0, 0), BuildingBlock: AJUNOK_clean_linker_0, # of connection points: 2
#     Edge 31, Type (0, 0), BuildingBlock: AJUNOK_clean_linker_0, # of connection points: 2
# Relax obj value: 0.241
# Max RMSD: 0.242
# Mean RMSD: 0.242
data_MOF--net-vbn--node1-IZENUY_clean_sbu_0--edge1-AJUNOK_clean_linker_0
_symmetry_space_group_name_H-M    P1
_symmetry_Int_Tables_number       1
_symmetry_cell_setting            triclinic
loop_
_symmetry_equiv_pos_as_xyz
'x, y, z'
_cell_length_a     18.862528
_cell_length_b     20.666431
_cell_length_c     34.141519
_cell_angle_alpha  90.049541
_cell_angle_beta   89.982107
_cell_angle_gamma 89.875884
loop_
_atom_site_label
_atom_site_type_symbol
_atom_site_fract_x
_atom_site_fract_y
_atom_site_fract_z
_atom_type_partial_charge
Fe0 Fe 0.45435 0.38642 0.41901 0.0
Fe1 Fe 0.40054 0.28882 0.47776 0.0
O2 O 0.39275 0.32691 0.4321 0.0
Fe3 Fe 0.32326 0.30745 0.39997 0.0
O4 O 0.28938 0.38857 0.40263 0.0
O5 O 0.39087 0.43348 0.38887 0.0
O6 O 0.42463 0.43573 0.45836 0.0
C7 C 0.43636 0.4214 0.49318 0.0
C8 C 0.44576 0.32133 0.35087 0.0
O9 O 0.44045 0.36169 0.50293 0.0
C10 C 0.35101 0.18806 0.42591 0.0
O11 O 0.52863 0.35078 0.44833 0.0
O12 O 0.48555 0.25668 0.46413 0.0
O13 O 0.37805 0.3225 0.35477 0.0
O14 O 0.48486 0.33884 0.37867 0.0
C15 C 0.25959 0.30431 0.47648 0.0
O16 O 0.36097 0.21058 0.46038 0.0
O17 O 0.35272 0.2252 0.39684 0.0
C18 C 0.53775 0.294 0.46213 0.0
O19 O 0.31643 0.31929 0.49312 0.0
O20 O 0.25871 0.28863 0.44024 0.0
C21 C 0.32495 0.43843 0.39597 0.0
Fe22 Fe 0.2185 0.24192 0.90028 0.0
Fe23 Fe 0.08757 0.16251 0.91829 0.0
O24 O 0.14844 0.22225 0.93188 0.0
Fe25 Fe 0.13918 0.26016 0.9776 0.0
O26 O 0.22286 0.23019 0.99371 0.0
O27 O 0.28205 0.26009 0.9411 0.0
O28 O 0.25261 0.16076 0.90281 0.0
C29 C 0.2174 0.11083 0.89577 0.0
C30 C 0.18998 0.36115 0.92644 0.0
O31 O 0.15167 0.1158 0.88827 0.0
C32 C 1.00267 0.25429 0.96117 0.0
O33 O 0.16448 0.22733 0.85469 0.0
O34 O 0.05739 0.20993 0.878 0.0
O35 O 0.17923 0.33862 0.96081 0.0
O36 O 0.18905 0.32422 0.89726 0.0
C37 C 0.1031 0.12714 0.99217 0.0
O38 O 1.01238 0.19758 0.94732 0.0
O39 O 0.05456 0.29195 0.9631 0.0
C40 C 0.09681 0.22733 0.85031 0.0
O41 O 0.11762 0.1137 0.95759 0.0
O42 O 0.09874 0.18678 1.00225 0.0
C43 C 0.28016 0.24478 0.9774 0.0
Fe44 Fe 0.95376 0.16223 0.63217 0.0
Fe45 Fe 0.89444 0.25835 0.57401 0.0
O46 O 0.89053 0.22107 0.62012 0.0
Fe47 Fe 0.82275 0.24021 0.65359 0.0
O48 O 0.78989 0.15835 0.6522 0.0
O49 O 0.89314 0.11514 0.66366 0.0
O50 O 0.92234 0.11212 0.59344 0.0
C51 C 0.93331 0.12627 0.55852 0.0
C52 C 0.94853 0.22788 0.70027 0.0
O53 O 0.93439 0.18589 0.54848 0.0
C54 C 0.84733 0.35943 0.6264 0.0
O55 O 0.02567 0.19854 0.60163 0.0
O56 O 0.97986 0.29178 0.58516 0.0
O57 O 0.88064 0.22633 0.69766 0.0
O58 O 0.98603 0.21033 0.67179 0.0
C59 C 0.75372 0.24129 0.57862 0.0
O60 O 0.85503 0.33637 0.5919 0.0
O61 O 0.85087 0.32296 0.65574 0.0
C62 C 0.03293 0.25528 0.5875 0.0
O63 O 0.80956 0.22648 0.5608 0.0
O64 O 0.75553 0.2583 0.61459 0.0
C65 C 0.82691 0.10882 0.65819 0.0
Fe66 Fe 0.58735 0.38861 0.13143 0.0
Fe67 Fe 0.64545 0.28985 0.0743 0.0
O68 O 0.65023 0.32898 0.11976 0.0
Fe69 Fe 0.71815 0.31027 0.15305 0.0
O70 O 0.7516 0.3915 0.15009 0.0
O71 O 0.64905 0.43683 0.16196 0.0
O72 O 0.61835 0.4372 0.09193 0.0
C73 C 0.60722 0.42177 0.05721 0.0
C74 C 0.5936 0.32627 0.20056 0.0
O75 O 0.60565 0.36173 0.04796 0.0
C76 C 0.69138 0.19026 0.12775 0.0
O77 O 0.5146 0.35134 0.10148 0.0
O78 O 0.56051 0.25741 0.08693 0.0
O79 O 0.66139 0.32661 0.19727 0.0
O80 O 0.55549 0.34223 0.17197 0.0
C81 C 0.78624 0.30555 0.07784 0.0
O82 O 0.68426 0.21228 0.09299 0.0
O83 O 0.68886 0.22806 0.15655 0.0
C84 C 0.50769 0.29407 0.08797 0.0
O85 O 0.73036 0.3203 0.06004 0.0
O86 O 0.78465 0.28986 0.11402 0.0
C87 C 0.71542 0.44142 0.15624 0.0
Fe88 Fe 0.58683 0.66417 0.63274 0.0
Fe89 Fe 0.64549 0.75918 0.57389 0.0
O90 O 0.65043 0.72212 0.61995 0.0
Fe91 Fe 0.71941 0.74087 0.65262 0.0
O92 O 0.75136 0.65886 0.65081 0.0
O93 O 0.6484 0.61598 0.66336 0.0
O94 O 0.61605 0.6135 0.59375 0.0
C95 C 0.60408 0.62763 0.55895 0.0
C96 C 0.59541 0.72837 0.70117 0.0
O97 O 0.60349 0.68723 0.54882 0.0
C98 C 0.69371 0.86046 0.62541 0.0
O99 O 0.51415 0.70167 0.60283 0.0
O100 O 0.56148 0.79401 0.58653 0.0
O101 O 0.66316 0.72751 0.69745 0.0
O102 O 0.55668 0.71262 0.67282 0.0
C103 C 0.78583 0.74022 0.57684 0.0
O104 O 0.68658 0.83656 0.59112 0.0
O105 O 0.69241 0.82435 0.655 0.0
C106 C 0.50802 0.75839 0.58839 0.0
O107 O 0.72932 0.72597 0.55959 0.0
O108 O 0.78517 0.75762 0.61276 0.0
C109 C 0.71447 0.60955 0.65702 0.0
Fe110 Fe 0.95216 0.8895 0.13239 0.0
Fe111 Fe 0.89658 0.79045 0.07487 0.0
O112 O 0.89093 0.82887 0.12056 0.0
Fe113 Fe 0.82344 0.80897 0.15385 0.0
O114 O 0.78824 0.88988 0.15132 0.0
O115 O 0.88977 0.93607 0.16341 0.0
O116 O 0.91937 0.93777 0.09316 0.0
C117 C 0.93156 0.92306 0.05842 0.0
C118 C 0.94808 0.82595 0.20109 0.0
O119 O 0.93436 0.8632 0.04889 0.0
C120 C 0.85192 0.6896 0.12789 0.0
O121 O 0.02557 0.85413 0.10223 0.0
O122 O 0.98287 0.75944 0.08687 0.0
O123 O 0.88024 0.82529 0.19802 0.0
O124 O 0.98557 0.84321 0.17255 0.0
C125 C 0.75533 0.80412 0.07868 0.0
O126 O 0.8594 0.71209 0.09325 0.0
O127 O 0.85433 0.72705 0.15686 0.0
C128 C 0.03477 0.79721 0.08857 0.0
O129 O 0.81091 0.81965 0.0609 0.0
O130 O 0.75712 0.78841 0.11485 0.0
C131 C 0.82347 0.94017 0.15757 0.0
Fe132 Fe 0.08657 0.88646 0.41897 0.0
Fe133 Fe 0.13881 0.78762 0.47747 0.0
O134 O 0.14802 0.82667 0.43216 0.0
Fe135 Fe 0.21842 0.80789 0.40048 0.0
O136 O 0.2517 0.88905 0.40374 0.0
O137 O 0.15039 0.93404 0.38945 0.0
O138 O 0.11555 0.93477 0.45878 0.0
C139 C 0.10244 0.92006 0.49337 0.0
C140 C 0.09682 0.82175 0.35079 0.0
O141 O 0.09793 0.86021 0.50275 0.0
C142 C 0.19061 0.68797 0.42548 0.0
O143 O 1.01166 0.85051 0.44754 0.0
O144 O 0.05443 0.75592 0.46265 0.0
O145 O 0.16446 0.82318 0.35499 0.0
O146 O 0.05708 0.83959 0.37826 0.0
C147 C 0.27976 0.80361 0.47758 0.0
O148 O 0.17929 0.70975 0.46 0.0
O149 O 0.18986 0.72563 0.39668 0.0
C150 C 1.00222 0.79339 0.46066 0.0
O151 O 0.22221 0.81731 0.49398 0.0
O152 O 0.28203 0.78907 0.44116 0.0
C153 C 0.21612 0.93895 0.39695 0.0
Fe154 Fe 0.39876 0.75988 0.9781 0.0
Fe155 Fe 0.32335 0.74111 0.89969 0.0
O156 O 0.39207 0.72168 0.93235 0.0
Fe157 Fe 0.45388 0.66187 0.91976 0.0
O158 O 0.42285 0.61307 0.95897 0.0
O159 O 0.4386 0.68701 1.00356 0.0
O160 O 0.31411 0.72982 0.99295 0.0
C161 C 0.25769 0.74441 0.97566 0.0
C162 C 0.53624 0.75412 0.96347 0.0
O163 O 0.25799 0.76039 0.93949 0.0
C164 C 0.4472 0.72691 0.85156 0.0
O165 O 0.35963 0.83817 0.96034 0.0
O166 O 0.35264 0.82333 0.89675 0.0
O167 O 0.52751 0.69739 0.94952 0.0
O168 O 0.48403 0.79169 0.96507 0.0
C169 C 0.3252 0.60976 0.89574 0.0
O170 O 0.37937 0.72593 0.85491 0.0
O171 O 0.48551 0.70898 0.8796 0.0
C172 C 0.35043 0.86059 0.92579 0.0
O173 O 0.28937 0.65984 0.90206 0.0
O174 O 0.39126 0.61503 0.88918 0.0
C175 C 0.43539 0.62729 0.99371 0.0
C176 C 0.24058 0.05442 0.37924 0.0
C177 C 0.24953 1.00235 0.4049 0.0
C178 C 0.27502 0.11346 0.38611 0.0
C179 C 0.31844 0.12336 0.41945 0.0
H180 H 0.2079 0.04915 0.35335 0.0
H181 H 0.26643 0.15207 0.3652 0.0
S182 S 0.35327 1.00306 0.49748 0.0
N183 N 0.30193 0.96467 0.46596 0.0
N184 N 0.36478 0.07636 0.47933 0.0
C185 C 0.32586 0.07207 0.44596 0.0
C186 C 0.29199 1.01144 0.43854 0.0
C187 C 0.19488 0.4824 0.93266 0.0
C188 C 0.22587 0.42412 0.92051 0.0
C189 C 0.22664 0.54205 0.92349 0.0
C190 C 0.29121 0.54563 0.90237 0.0
H191 H 0.14514 0.48198 0.94853 0.0
H192 H 0.2006 0.58577 0.93358 0.0
S193 S 0.39588 0.40565 0.86647 0.0
N194 N 0.32585 0.37298 0.8876 0.0
N195 N 0.38597 0.48464 0.87131 0.0
C196 C 0.32338 0.48734 0.89098 0.0
C197 C 0.29061 0.42681 0.89979 0.0
C198 C 0.81087 0.54036 0.62818 0.0
C199 C 0.74755 0.54495 0.65037 0.0
C200 C 0.84212 0.48031 0.6192 0.0
C201 C 0.81197 0.42265 0.63268 0.0
H202 H 0.83629 0.58358 0.61709 0.0
H203 H 0.89083 0.47913 0.60239 0.0
S204 S 0.64521 0.40679 0.68988 0.0
N205 N 0.65467 0.48556 0.68383 0.0
N206 N 0.71398 0.37304 0.66792 0.0
C207 C 0.74837 0.42627 0.65439 0.0
C208 C 0.71601 0.48724 0.66299 0.0
C209 C 0.76096 0.11349 0.16969 0.0
C210 C 0.7216 0.1248 0.13501 0.0
C211 C 0.79486 0.05415 0.17675 0.0
C212 C 0.78936 1.00329 0.14989 0.0
H213 H 0.76712 0.15129 0.19141 0.0
H214 H 0.82479 0.04782 0.20356 0.0
S215 S 0.69544 1.00738 0.0543 0.0
N216 N 0.68135 0.07986 0.0732 0.0
N217 N 0.74381 0.96784 0.08677 0.0
C218 C 0.75041 1.01355 0.11517 0.0
C219 C 0.71687 0.07436 0.10765 0.0
C220 C 0.71964 0.03903 0.64694 0.0
C221 C 0.79387 0.04402 0.65218 0.0
C222 C 0.6873 0.98008 0.63677 0.0
C223 C 0.72797 0.92408 0.63093 0.0
H224 H 0.686 0.08117 0.65049 0.0
H225 H 0.63014 0.97816 0.6339 0.0
S226 S 0.92337 0.90973 0.6408 0.0
N227 N 0.90649 0.98641 0.65074 0.0
N228 N 0.84575 0.87644 0.63148 0.0
C229 C 0.80185 0.92806 0.6361 0.0
C230 C 0.83479 0.98774 0.64677 0.0
C231 C 0.78462 0.61193 0.1704 0.0
C232 C 0.82069 0.62441 0.13476 0.0
C233 C 0.74893 0.55343 0.17704 0.0
C234 C 0.74908 0.50462 0.14867 0.0
H235 H 0.78253 0.64816 0.19331 0.0
H236 H 0.72206 0.54602 0.20472 0.0
S237 S 0.83308 0.51199 0.05042 0.0
N238 N 0.85241 0.58238 0.07065 0.0
N239 N 0.78639 0.47207 0.08338 0.0
C240 C 0.78472 0.51595 0.11304 0.0
C241 C 0.82025 0.57584 0.10602 0.0
C242 C 0.30122 0.55423 0.37867 0.0
C243 C 0.29139 0.50183 0.40396 0.0
C244 C 0.267 0.61344 0.38568 0.0
C245 C 0.22291 0.62314 0.41881 0.0
H246 H 0.33451 0.54912 0.35298 0.0
H247 H 0.27631 0.65234 0.36508 0.0
S248 S 0.18568 0.50194 0.49589 0.0
N249 N 0.23749 0.46362 0.46447 0.0
N250 N 0.17491 0.57559 0.47808 0.0
C251 C 0.21453 0.57148 0.44493 0.0
C252 C 0.24824 0.51072 0.43737 0.0
C253 C 0.24044 0.99459 0.87883 0.0
C254 C 0.25081 0.04729 0.9039 0.0
C255 C 0.27417 0.93517 0.88601 0.0
C256 C 0.31828 0.92552 0.9191 0.0
H257 H 0.20709 0.99958 0.85318 0.0
H258 H 0.26449 0.89607 0.86556 0.0
S259 S 0.35696 0.04745 0.99566 0.0
N260 N 0.30529 0.08575 0.96423 0.0
N261 N 0.36693 0.97347 0.97811 0.0
C262 C 0.32712 0.97744 0.94504 0.0
C263 C 0.29393 0.03841 0.93731 0.0
C264 C 0.53238 0.46104 0.53723 0.0
C265 C 0.47144 0.47403 0.51517 0.0
C266 C 0.5783 0.51114 0.54818 0.0
C267 C 0.56521 0.57635 0.53765 0.0
H268 H 0.54632 0.41172 0.54475 0.0
H269 H 0.62405 0.49883 0.56591 0.0
S270 S 0.41079 0.63583 0.48102 0.0
N271 N 0.39846 0.55704 0.48437 0.0
N272 N 0.48569 0.6506 0.50436 0.0
C273 C 0.50411 0.58994 0.51584 0.0
C274 C 0.45673 0.53914 0.50521 0.0
C275 C 0.96121 0.03938 0.04908 0.0
C276 C 0.9695 0.97437 0.0366 0.0
C277 C 1.00821 0.08818 0.03748 0.0
C278 C 0.06534 0.07421 1.01267 0.0
H279 H 0.91865 0.05251 0.06892 0.0
H280 H 0.99814 0.1374 0.04695 0.0
S281 S 0.10787 0.91333 0.96896 0.0
N282 N 0.03702 0.89995 0.99611 0.0
N283 N 0.12683 0.99053 0.97503 0.0
C284 C 0.07407 1.00934 0.99976 0.0
C285 C 0.02543 0.96001 1.01109 0.0
C286 C 0.95847 1.00976 0.54722 0.0
C287 C 0.97166 0.07495 0.5369 0.0
C288 C 1.00491 0.95964 0.53665 0.0
C289 C 0.06636 0.97265 0.51504 0.0
H290 H 0.9122 0.99755 0.56448 0.0
H291 H 0.991 0.91033 0.54407 0.0
S292 S 0.12534 0.1341 0.47977 0.0
N293 N 0.05043 0.14901 0.50315 0.0
N294 N 0.13875 0.05555 0.48391 0.0
C295 C 0.08068 0.03774 0.5049 0.0
C296 C 0.03277 0.08848 0.51515 0.0
C297 C 0.53732 0.58835 0.03399 0.0
C298 C 0.47327 0.57516 1.01478 0.0
C299 C 0.58422 0.53815 0.04389 0.0
C300 C 0.56902 0.47265 0.0351 0.0
H301 H 0.55254 0.63781 0.04021 0.0
H302 H 0.63213 0.5505 0.05975 0.0
S303 S 0.40903 0.41317 0.98369 0.0
N304 N 0.39713 0.49207 0.98689 0.0
N305 N 0.4861 0.39838 1.00477 0.0
C306 C 0.50578 0.45912 1.01526 0.0
C307 C 0.45749 0.50999 1.00577 0.0
C308 C 0.48227 0.32685 0.24132 0.0
C309 C 0.55659 0.31705 0.23894 0.0
C310 C 0.44564 0.32443 0.27714 0.0
C311 C 0.48155 0.31197 0.31227 0.0
H312 H 0.45183 0.33861 0.21539 0.0
H313 H 0.38944 0.33533 0.27743 0.0
S314 S 0.67369 0.2731 0.32196 0.0
N315 N 0.66296 0.28773 0.2748 0.0
N316 N 0.59462 0.28222 0.34198 0.0
C317 C 0.55503 0.29798 0.31009 0.0
C318 C 0.59236 0.30079 0.27359 0.0
C319 C 0.98605 0.2339 0.80964 0.0
C320 C 0.06107 0.23695 0.81164 0.0
C321 C 0.94956 0.23437 0.77383 0.0
C322 C 0.98624 0.23823 0.73823 0.0
H323 H 0.95465 0.2289 0.83603 0.0
H324 H 0.89246 0.22895 0.77412 0.0
S325 S 0.18165 0.25782 0.72692 0.0
N326 N 0.16976 0.25104 0.77465 0.0
N327 N 0.10184 0.25334 0.70729 0.0
C328 C 0.06093 0.24596 0.73978 0.0
C329 C 0.09811 0.24502 0.77639 0.0
C330 C 0.44759 0.7308 0.77779 0.0
C331 C 0.48402 0.73751 0.81332 0.0
C332 C 0.48411 0.73059 0.74191 0.0
C333 C 0.5589 0.73686 0.7398 0.0
H334 H 0.39084 0.7229 0.77766 0.0
H335 H 0.45308 0.72327 0.7156 0.0
S336 S 0.67817 0.76557 0.82425 0.0
N337 N 0.59867 0.75837 0.84397 0.0
N338 N 0.66668 0.75669 0.77662 0.0
C339 C 0.59543 0.74751 0.77498 0.0
C340 C 0.55823 0.74814 0.81159 0.0
C341 C 0.05973 0.8281 0.24146 0.0
C342 C 0.98573 0.81655 0.23923 0.0
C343 C 0.09675 0.82577 0.27714 0.0
C344 C 0.06153 0.8116 0.31222 0.0
H345 H 0.08951 0.84131 0.21556 0.0
H346 H 0.1525 0.83822 0.27741 0.0
S347 S 0.87103 0.76742 0.32212 0.0
N348 N 0.88078 0.78351 0.27508 0.0
N349 N 0.94992 0.77809 0.34199 0.0
C350 C 0.98861 0.79566 0.31013 0.0
C351 C 0.95087 0.79843 0.27378 0.0
C352 C 0.59793 0.22138 0.51081 0.0
C353 C 0.59715 0.28039 0.48975 0.0
C354 C 0.6456 0.21046 0.54166 0.0
C355 C 0.69372 0.25832 0.55311 0.0
H356 H 0.56086 0.18317 0.50371 0.0
H357 H 0.64587 0.16375 0.55606 0.0
S358 S 0.71924 0.41845 0.50614 0.0
N359 N 0.65327 0.38543 0.48147 0.0
N360 N 0.74165 0.36501 0.53985 0.0
C361 C 0.6948 0.31686 0.53209 0.0
C362 C 0.64704 0.32779 0.5003 0.0
C363 C 0.94417 0.32493 1.01157 0.0
C364 C 0.94369 0.26712 0.98926 0.0
C365 C 0.89653 0.33512 0.04252 0.0
C366 C 0.84638 0.28818 0.05245 0.0
H367 H 0.98232 0.36271 1.00549 0.0
H368 H 0.89802 0.38059 0.05823 0.0
S369 S 0.81922 0.13016 1.0031 0.0
N370 N 0.88633 0.16302 0.97933 0.0
N371 N 0.79656 0.18292 0.03724 0.0
C372 C 0.84444 0.23061 0.03045 0.0
C373 C 0.89289 0.22001 0.99888 0.0
C374 C 0.08331 0.31257 0.52906 0.0
C375 C 0.09325 0.26959 0.56092 0.0
C376 C 0.13579 0.3215 0.50043 0.0
C377 C 0.20049 0.28867 0.50297 0.0
H378 H 0.03386 0.33864 0.52554 0.0
H379 H 0.12628 0.35526 0.47673 0.0
S380 S 0.25364 0.17048 0.57946 0.0
N381 N 0.17293 0.19318 0.59233 0.0
N382 N 0.27232 0.21137 0.53924 0.0
C383 C 0.21159 0.24607 0.53463 0.0
C384 C 0.15784 0.23617 0.5634 0.0
C385 C 0.38059 0.30089 0.06726 0.0
C386 C 0.44976 0.27925 0.06006 0.0
C387 C 0.32645 0.28957 0.04001 0.0
C388 C 0.33992 0.25804 1.00401 0.0
H389 H 0.36818 0.32633 0.09417 0.0
H390 H 0.2735 0.30646 0.04699 0.0
S391 S 0.51263 0.19525 0.96976 0.0
N392 N 0.5293 0.22588 1.01348 0.0
N393 N 0.42717 0.20706 0.96213 0.0
C394 C 0.40887 0.23744 0.99598 0.0
C395 C 0.46384 0.2473 1.02407 0.0
C396 C 0.38145 0.74884 0.56725 0.0
C397 C 0.44983 0.77262 0.56046 0.0
C398 C 0.32725 0.75874 0.53984 0.0
C399 C 0.33987 0.79111 0.50409 0.0
H400 H 0.36971 0.72266 0.59395 0.0
H401 H 0.27492 0.74024 0.54652 0.0
S402 S 0.51022 0.85964 0.47084 0.0
N403 N 0.52767 0.82892 0.51442 0.0
N404 N 0.42539 0.84532 0.46285 0.0
C405 C 0.40802 0.81388 0.49643 0.0
C406 C 0.46304 0.80532 0.52467 0.0
C407 C 0.09198 0.72837 0.03674 0.0
C408 C 0.09526 0.78302 0.06178 0.0
C409 C 0.14241 0.71782 1.00718 0.0
C410 C 0.19818 0.76128 1.00157 0.0
H411 H 0.04937 0.69361 0.03943 0.0
H412 H 0.1386 0.67472 0.98921 0.0
S413 S 0.23401 0.90998 0.05919 0.0
N414 N 0.16093 0.88028 0.07877 0.0
N415 N 0.25648 0.85927 1.02389 0.0
C416 C 0.20349 0.81506 0.02672 0.0
C417 C 0.1519 0.82626 0.0566 0.0
C418 C 0.94187 0.72035 0.50893 0.0
C419 C 0.94243 0.7794 0.4879 0.0
C420 C 0.89391 0.70927 0.53961 0.0
C421 C 0.84514 0.75694 0.5508 0.0
H422 H 0.97948 0.68233 0.50205 0.0
H423 H 0.89408 0.66268 0.55416 0.0
S424 S 0.81872 0.91692 0.50365 0.0
N425 N 0.88546 0.8842 0.47934 0.0
N426 N 0.79616 0.86332 0.53719 0.0
C427 C 0.84363 0.81537 0.52968 0.0
C428 C 0.89186 0.82655 0.49816 0.0
C429 C 0.63911 0.8297 0.04787 0.0
C430 C 0.69536 0.78647 0.05331 0.0
C431 C 0.59001 0.82036 1.01754 0.0
C432 C 0.59503 0.76705 0.99154 0.0
H433 H 0.634 0.87184 0.06653 0.0
H434 H 0.5472 0.8551 1.0149 0.0
S435 S 0.73456 0.64042 0.99377 0.0
N436 N 0.75484 0.68926 0.03036 0.0
N437 N 0.66211 0.67081 0.9738 0.0
C438 C 0.65145 0.72348 0.99693 0.0
C439 C 0.7015 0.73331 0.02772 0.0
loop_
_geom_bond_atom_site_label_1
_geom_bond_atom_site_label_2
_geom_bond_distance
_geom_bond_site_symmetry_2
_ccdc_geom_bond_type
Fe0 O2 1.918 . S
Fe0 O5 1.997 . S
Fe0 O6 2.002 . S
Fe0 O11 1.976 . S
Fe0 O14 1.996 . S
Fe1 O2 1.918 . S
Fe1 O9 1.997 . S
Fe1 O12 1.996 . S
Fe1 O16 1.976 . S
Fe1 O19 2.002 . S
O2 Fe0 1.918 . S
O2 Fe1 1.918 . S
O2 Fe3 1.918 . S
Fe3 O2 1.918 . S
Fe3 O4 2.002 . S
Fe3 O13 1.976 . S
Fe3 O17 1.996 . S
Fe3 O20 1.997 . S
O4 Fe3 2.002 . S
O4 C21 1.295 . S
O5 Fe0 1.997 . S
O5 C21 1.235 . S
O6 Fe0 2.002 . S
O6 C7 1.295 . S
C7 O6 1.295 . S
C7 O9 1.235 . S
C8 O13 1.287 . S
C8 O14 1.255 . S
O9 Fe1 1.997 . S
O9 C7 1.235 . S
C10 O16 1.287 . S
C10 O17 1.255 . S
O11 Fe0 1.976 . S
O11 C18 1.287 . S
O12 Fe1 1.996 . S
O12 C18 1.255 . S
O13 Fe3 1.976 . S
O13 C8 1.287 . S
O14 Fe0 1.996 . S
O14 C8 1.255 . S
C15 O19 1.295 . S
C15 O20 1.235 . S
O16 Fe1 1.976 . S
O16 C10 1.287 . S
O17 Fe3 1.996 . S
O17 C10 1.255 . S
C18 O11 1.287 . S
C18 O12 1.255 . S
O19 Fe1 2.002 . S
O19 C15 1.295 . S
O20 Fe3 1.997 . S
O20 C15 1.235 . S
C21 O4 1.295 . S
C21 O5 1.235 . S
Fe22 O24 1.918 . S
Fe22 O27 1.997 . S
Fe22 O28 2.002 . S
Fe22 O33 1.976 . S
Fe22 O36 1.996 . S
Fe23 O24 1.918 . S
Fe23 O31 1.997 . S
Fe23 O34 1.996 . S
Fe23 O38 1.976 1_455 S
Fe23 O41 2.002 . S
O24 Fe22 1.918 . S
O24 Fe23 1.918 . S
O24 Fe25 1.918 . S
Fe25 O24 1.918 . S
Fe25 O26 2.002 . S
Fe25 O35 1.976 . S
Fe25 O39 1.996 . S
Fe25 O42 1.997 . S
O26 Fe25 2.002 . S
O26 C43 1.295 . S
O27 Fe22 1.997 . S
O27 C43 1.235 . S
O28 Fe22 2.002 . S
O28 C29 1.295 . S
C29 O28 1.295 . S
C29 O31 1.235 . S
C30 O35 1.287 . S
C30 O36 1.255 . S
O31 Fe23 1.997 . S
O31 C29 1.235 . S
C32 O38 1.287 . S
C32 O39 1.255 1_655 S
O33 Fe22 1.976 . S
O33 C40 1.287 . S
O34 Fe23 1.996 . S
O34 C40 1.255 . S
O35 Fe25 1.976 . S
O35 C30 1.287 . S
O36 Fe22 1.996 . S
O36 C30 1.255 . S
C37 O41 1.295 . S
C37 O42 1.235 . S
O38 Fe23 1.976 1_655 S
O38 C32 1.287 . S
O39 Fe25 1.996 . S
O39 C32 1.255 1_455 S
C40 O33 1.287 . S
C40 O34 1.255 . S
O41 Fe23 2.002 . S
O41 C37 1.295 . S
O42 Fe25 1.997 . S
O42 C37 1.235 . S
C43 O26 1.295 . S
C43 O27 1.235 . S
Fe44 O46 1.918 . S
Fe44 O49 1.997 . S
Fe44 O50 2.002 . S
Fe44 O55 1.976 1_655 S
Fe44 O58 1.996 . S
Fe45 O46 1.918 . S
Fe45 O53 1.997 . S
Fe45 O56 1.996 . S
Fe45 O60 1.976 . S
Fe45 O63 2.002 . S
O46 Fe44 1.918 . S
O46 Fe45 1.918 . S
O46 Fe47 1.918 . S
Fe47 O46 1.918 . S
Fe47 O48 2.002 . S
Fe47 O57 1.976 . S
Fe47 O61 1.996 . S
Fe47 O64 1.997 . S
O48 Fe47 2.002 . S
O48 C65 1.295 . S
O49 Fe44 1.997 . S
O49 C65 1.235 . S
O50 Fe44 2.002 . S
O50 C51 1.295 . S
C51 O50 1.295 . S
C51 O53 1.235 . S
C52 O57 1.287 . S
C52 O58 1.255 . S
O53 Fe45 1.997 . S
O53 C51 1.235 . S
C54 O60 1.287 . S
C54 O61 1.255 . S
O55 Fe44 1.976 1_455 S
O55 C62 1.287 . S
O56 Fe45 1.996 . S
O56 C62 1.255 1_655 S
O57 Fe47 1.976 . S
O57 C52 1.287 . S
O58 Fe44 1.996 . S
O58 C52 1.255 . S
C59 O63 1.295 . S
C59 O64 1.235 . S
O60 Fe45 1.976 . S
O60 C54 1.287 . S
O61 Fe47 1.996 . S
O61 C54 1.255 . S
C62 O55 1.287 . S
C62 O56 1.255 1_455 S
O63 Fe45 2.002 . S
O63 C59 1.295 . S
O64 Fe47 1.997 . S
O64 C59 1.235 . S
C65 O48 1.295 . S
C65 O49 1.235 . S
Fe66 O68 1.918 . S
Fe66 O71 1.997 . S
Fe66 O72 2.002 . S
Fe66 O77 1.976 . S
Fe66 O80 1.996 . S
Fe67 O68 1.918 . S
Fe67 O75 1.997 . S
Fe67 O78 1.996 . S
Fe67 O82 1.976 . S
Fe67 O85 2.002 . S
O68 Fe66 1.918 . S
O68 Fe67 1.918 . S
O68 Fe69 1.918 . S
Fe69 O68 1.918 . S
Fe69 O70 2.002 . S
Fe69 O79 1.976 . S
Fe69 O83 1.996 . S
Fe69 O86 1.997 . S
O70 Fe69 2.002 . S
O70 C87 1.295 . S
O71 Fe66 1.997 . S
O71 C87 1.235 . S
O72 Fe66 2.002 . S
O72 C73 1.295 . S
C73 O72 1.295 . S
C73 O75 1.235 . S
C74 O79 1.287 . S
C74 O80 1.255 . S
O75 Fe67 1.997 . S
O75 C73 1.235 . S
C76 O82 1.287 . S
C76 O83 1.255 . S
O77 Fe66 1.976 . S
O77 C84 1.287 . S
O78 Fe67 1.996 . S
O78 C84 1.255 . S
O79 Fe69 1.976 . S
O79 C74 1.287 . S
O80 Fe66 1.996 . S
O80 C74 1.255 . S
C81 O85 1.295 . S
C81 O86 1.235 . S
O82 Fe67 1.976 . S
O82 C76 1.287 . S
O83 Fe69 1.996 . S
O83 C76 1.255 . S
C84 O77 1.287 . S
C84 O78 1.255 . S
O85 Fe67 2.002 . S
O85 C81 1.295 . S
O86 Fe69 1.997 . S
O86 C81 1.235 . S
C87 O70 1.295 . S
C87 O71 1.235 . S
Fe88 O90 1.918 . S
Fe88 O93 1.997 . S
Fe88 O94 2.002 . S
Fe88 O99 1.976 . S
Fe88 O102 1.996 . S
Fe89 O90 1.918 . S
Fe89 O97 1.997 . S
Fe89 O100 1.996 . S
Fe89 O104 1.976 . S
Fe89 O107 2.002 . S
O90 Fe88 1.918 . S
O90 Fe89 1.918 . S
O90 Fe91 1.918 . S
Fe91 O90 1.918 . S
Fe91 O92 2.002 . S
Fe91 O101 1.976 . S
Fe91 O105 1.996 . S
Fe91 O108 1.997 . S
O92 Fe91 2.002 . S
O92 C109 1.295 . S
O93 Fe88 1.997 . S
O93 C109 1.235 . S
O94 Fe88 2.002 . S
O94 C95 1.295 . S
C95 O94 1.295 . S
C95 O97 1.235 . S
C96 O101 1.287 . S
C96 O102 1.255 . S
O97 Fe89 1.997 . S
O97 C95 1.235 . S
C98 O104 1.287 . S
C98 O105 1.255 . S
O99 Fe88 1.976 . S
O99 C106 1.287 . S
O100 Fe89 1.996 . S
O100 C106 1.255 . S
O101 Fe91 1.976 . S
O101 C96 1.287 . S
O102 Fe88 1.996 . S
O102 C96 1.255 . S
C103 O107 1.295 . S
C103 O108 1.235 . S
O104 Fe89 1.976 . S
O104 C98 1.287 . S
O105 Fe91 1.996 . S
O105 C98 1.255 . S
C106 O99 1.287 . S
C106 O100 1.255 . S
O107 Fe89 2.002 . S
O107 C103 1.295 . S
O108 Fe91 1.997 . S
O108 C103 1.235 . S
C109 O92 1.295 . S
C109 O93 1.235 . S
Fe110 O112 1.918 . S
Fe110 O115 1.997 . S
Fe110 O116 2.002 . S
Fe110 O121 1.976 1_655 S
Fe110 O124 1.996 . S
Fe111 O112 1.918 . S
Fe111 O119 1.997 . S
Fe111 O122 1.996 . S
Fe111 O126 1.976 . S
Fe111 O129 2.002 . S
O112 Fe110 1.918 . S
O112 Fe111 1.918 . S
O112 Fe113 1.918 . S
Fe113 O112 1.918 . S
Fe113 O114 2.002 . S
Fe113 O123 1.976 . S
Fe113 O127 1.996 . S
Fe113 O130 1.997 . S
O114 Fe113 2.002 . S
O114 C131 1.295 . S
O115 Fe110 1.997 . S
O115 C131 1.235 . S
O116 Fe110 2.002 . S
O116 C117 1.295 . S
C117 O116 1.295 . S
C117 O119 1.235 . S
C118 O123 1.287 . S
C118 O124 1.255 . S
O119 Fe111 1.997 . S
O119 C117 1.235 . S
C120 O126 1.287 . S
C120 O127 1.255 . S
O121 Fe110 1.976 1_455 S
O121 C128 1.287 . S
O122 Fe111 1.996 . S
O122 C128 1.255 1_655 S
O123 Fe113 1.976 . S
O123 C118 1.287 . S
O124 Fe110 1.996 . S
O124 C118 1.255 . S
C125 O129 1.295 . S
C125 O130 1.235 . S
O126 Fe111 1.976 . S
O126 C120 1.287 . S
O127 Fe113 1.996 . S
O127 C120 1.255 . S
C128 O121 1.287 . S
C128 O122 1.255 1_455 S
O129 Fe111 2.002 . S
O129 C125 1.295 . S
O130 Fe113 1.997 . S
O130 C125 1.235 . S
C131 O114 1.295 . S
C131 O115 1.235 . S
Fe132 O134 1.918 . S
Fe132 O137 1.997 . S
Fe132 O138 2.002 . S
Fe132 O143 1.976 1_455 S
Fe132 O146 1.996 . S
Fe133 O134 1.918 . S
Fe133 O141 1.997 . S
Fe133 O144 1.996 . S
Fe133 O148 1.976 . S
Fe133 O151 2.002 . S
O134 Fe132 1.918 . S
O134 Fe133 1.918 . S
O134 Fe135 1.918 . S
Fe135 O134 1.918 . S
Fe135 O136 2.002 . S
Fe135 O145 1.976 . S
Fe135 O149 1.996 . S
Fe135 O152 1.997 . S
O136 Fe135 2.002 . S
O136 C153 1.295 . S
O137 Fe132 1.997 . S
O137 C153 1.235 . S
O138 Fe132 2.002 . S
O138 C139 1.295 . S
C139 O138 1.295 . S
C139 O141 1.235 . S
C140 O145 1.287 . S
C140 O146 1.255 . S
O141 Fe133 1.997 . S
O141 C139 1.235 . S
C142 O148 1.287 . S
C142 O149 1.255 . S
O143 Fe132 1.976 1_655 S
O143 C150 1.287 . S
O144 Fe133 1.996 . S
O144 C150 1.255 1_455 S
O145 Fe135 1.976 . S
O145 C140 1.287 . S
O146 Fe132 1.996 . S
O146 C140 1.255 . S
C147 O151 1.295 . S
C147 O152 1.235 . S
O148 Fe133 1.976 . S
O148 C142 1.287 . S
O149 Fe135 1.996 . S
O149 C142 1.255 . S
C150 O143 1.287 . S
C150 O144 1.255 1_655 S
O151 Fe133 2.002 . S
O151 C147 1.295 . S
O152 Fe135 1.997 . S
O152 C147 1.235 . S
C153 O136 1.295 . S
C153 O137 1.235 . S
Fe154 O156 1.918 . S
Fe154 O159 1.997 . S
Fe154 O160 2.002 . S
Fe154 O165 1.976 . S
Fe154 O168 1.996 . S
Fe155 O156 1.918 . S
Fe155 O163 1.997 . S
Fe155 O166 1.996 . S
Fe155 O170 1.976 . S
Fe155 O173 2.002 . S
O156 Fe154 1.918 . S
O156 Fe155 1.918 . S
O156 Fe157 1.918 . S
Fe157 O156 1.918 . S
Fe157 O158 2.002 . S
Fe157 O167 1.976 . S
Fe157 O171 1.996 . S
Fe157 O174 1.997 . S
O158 Fe157 2.002 . S
O158 C175 1.295 . S
O159 Fe154 1.997 . S
O159 C175 1.235 . S
O160 Fe154 2.002 . S
O160 C161 1.295 . S
C161 O160 1.295 . S
C161 O163 1.235 . S
C162 O167 1.287 . S
C162 O168 1.255 . S
O163 Fe155 1.997 . S
O163 C161 1.235 . S
C164 O170 1.287 . S
C164 O171 1.255 . S
O165 Fe154 1.976 . S
O165 C172 1.287 . S
O166 Fe155 1.996 . S
O166 C172 1.255 . S
O167 Fe157 1.976 . S
O167 C162 1.287 . S
O168 Fe154 1.996 . S
O168 C162 1.255 . S
C169 O173 1.295 . S
C169 O174 1.235 . S
O170 Fe155 1.976 . S
O170 C164 1.287 . S
O171 Fe157 1.996 . S
O171 C164 1.255 . S
C172 O165 1.287 . S
C172 O166 1.255 . S
O173 Fe155 2.002 . S
O173 C169 1.295 . S
O174 Fe157 1.997 . S
O174 C169 1.235 . S
C175 O158 1.295 . S
C175 O159 1.235 . S
C176 C177 1.369 . S
C176 C178 1.419 . S
C176 H180 0.930 . S
C177 C176 1.369 . S
C177 C186 1.429 1_545 S
C178 C176 1.419 . S
C178 C179 1.363 . S
C178 H181 0.929 . S
C179 C178 1.363 . S
C179 C185 1.428 . S
H180 C176 0.930 . S
H181 C178 0.929 . S
S182 N183 1.613 . S
S182 N184 1.610 1_565 S
N183 S182 1.613 . S
N183 C186 1.350 . S
N184 S182 1.610 1_545 S
N184 C185 1.351 . S
C185 C179 1.428 . S
C185 N184 1.351 . S
C185 C186 1.434 1_545 S
C186 C177 1.429 1_565 S
C186 N183 1.350 . S
C186 C185 1.434 1_565 S
C187 C188 1.369 . S
C187 C189 1.419 . S
C187 H191 0.930 . S
C188 C187 1.369 . S
C188 C197 1.429 . S
C189 C187 1.419 . S
C189 C190 1.363 . S
C189 H192 0.929 . S
C190 C189 1.363 . S
C190 C196 1.428 . S
H191 C187 0.930 . S
H192 C189 0.929 . S
S193 N194 1.613 . S
S193 N195 1.610 . S
N194 S193 1.613 . S
N194 C197 1.350 . S
N195 S193 1.610 . S
N195 C196 1.351 . S
C196 C190 1.428 . S
C196 N195 1.351 . S
C196 C197 1.434 . S
C197 C188 1.429 . S
C197 N194 1.350 . S
C197 C196 1.434 . S
C198 C199 1.369 . S
C198 C200 1.419 . S
C198 H202 0.930 . S
C199 C198 1.369 . S
C199 C208 1.429 . S
C200 C198 1.419 . S
C200 C201 1.363 . S
C200 H203 0.929 . S
C201 C200 1.363 . S
C201 C207 1.428 . S
H202 C198 0.930 . S
H203 C200 0.929 . S
S204 N205 1.613 . S
S204 N206 1.610 . S
N205 S204 1.613 . S
N205 C208 1.350 . S
N206 S204 1.610 . S
N206 C207 1.351 . S
C207 C201 1.428 . S
C207 N206 1.351 . S
C207 C208 1.434 . S
C208 C199 1.429 . S
C208 N205 1.350 . S
C208 C207 1.434 . S
C209 C210 1.369 . S
C209 C211 1.419 . S
C209 H213 0.930 . S
C210 C209 1.369 . S
C210 C219 1.429 . S
C211 C209 1.419 . S
C211 C212 1.363 . S
C211 H214 0.929 . S
C212 C211 1.363 . S
C212 C218 1.428 1_545 S
H213 C209 0.930 . S
H214 C211 0.929 . S
S215 N216 1.613 1_565 S
S215 N217 1.610 . S
N216 S215 1.613 1_545 S
N216 C219 1.350 . S
N217 S215 1.610 . S
N217 C218 1.351 . S
C218 C212 1.428 1_565 S
C218 N217 1.351 . S
C218 C219 1.434 1_565 S
C219 C210 1.429 . S
C219 N216 1.350 . S
C219 C218 1.434 1_545 S
C220 C221 1.369 . S
C220 C222 1.419 . S
C220 H224 0.930 1_565 S
C221 C220 1.369 . S
C221 C230 1.429 . S
C222 C220 1.419 . S
C222 C223 1.363 . S
C222 H225 0.929 . S
C223 C222 1.363 . S
C223 C229 1.428 . S
H224 C220 0.930 1_545 S
H225 C222 0.929 . S
S226 N227 1.613 . S
S226 N228 1.610 . S
N227 S226 1.613 . S
N227 C230 1.350 . S
N228 S226 1.610 . S
N228 C229 1.351 . S
C229 C223 1.428 . S
C229 N228 1.351 . S
C229 C230 1.434 . S
C230 C221 1.429 . S
C230 N227 1.350 . S
C230 C229 1.434 . S
C231 C232 1.369 . S
C231 C233 1.419 . S
C231 H235 0.930 . S
C232 C231 1.369 . S
C232 C241 1.429 . S
C233 C231 1.419 . S
C233 C234 1.363 . S
C233 H236 0.929 . S
C234 C233 1.363 . S
C234 C240 1.428 . S
H235 C231 0.930 . S
H236 C233 0.929 . S
S237 N238 1.613 . S
S237 N239 1.610 . S
N238 S237 1.613 . S
N238 C241 1.350 . S
N239 S237 1.610 . S
N239 C240 1.351 . S
C240 C234 1.428 . S
C240 N239 1.351 . S
C240 C241 1.434 . S
C241 C232 1.429 . S
C241 N238 1.350 . S
C241 C240 1.434 . S
C242 C243 1.369 . S
C242 C244 1.419 . S
C242 H246 0.930 . S
C243 C242 1.369 . S
C243 C252 1.429 . S
C244 C242 1.419 . S
C244 C245 1.363 . S
C244 H247 0.929 . S
C245 C244 1.363 . S
C245 C251 1.428 . S
H246 C242 0.930 . S
H247 C244 0.929 . S
S248 N249 1.613 . S
S248 N250 1.610 . S
N249 S248 1.613 . S
N249 C252 1.350 . S
N250 S248 1.610 . S
N250 C251 1.351 . S
C251 C245 1.428 . S
C251 N250 1.351 . S
C251 C252 1.434 . S
C252 C243 1.429 . S
C252 N249 1.350 . S
C252 C251 1.434 . S
C253 C254 1.369 . S
C253 C255 1.419 . S
C253 H257 0.930 . S
C254 C253 1.369 . S
C254 C263 1.429 1_565 S
C255 C253 1.419 . S
C255 C256 1.363 . S
C255 H258 0.929 . S
C256 C255 1.363 . S
C256 C262 1.428 . S
H257 C253 0.930 . S
H258 C255 0.929 . S
S259 N260 1.613 . S
S259 N261 1.610 1_545 S
N260 S259 1.613 . S
N260 C263 1.350 . S
N261 S259 1.610 1_565 S
N261 C262 1.351 . S
C262 C256 1.428 . S
C262 N261 1.351 . S
C262 C263 1.434 1_565 S
C263 C254 1.429 1_545 S
C263 N260 1.350 . S
C263 C262 1.434 1_545 S
C264 C265 1.369 . S
C264 C266 1.419 . S
C264 H268 0.930 . S
C265 C264 1.369 . S
C265 C274 1.429 . S
C266 C264 1.419 . S
C266 C267 1.363 . S
C266 H269 0.929 . S
C267 C266 1.363 . S
C267 C273 1.428 . S
H268 C264 0.930 . S
H269 C266 0.929 . S
S270 N271 1.613 . S
S270 N272 1.610 . S
N271 S270 1.613 . S
N271 C274 1.350 . S
N272 S270 1.610 . S
N272 C273 1.351 . S
C273 C267 1.428 . S
C273 N272 1.351 . S
C273 C274 1.434 . S
C274 C265 1.429 . S
C274 N271 1.350 . S
C274 C273 1.434 . S
C275 C276 1.369 1_455 S
C275 C277 1.419 1_565 S
C275 H279 0.930 . S
C276 C275 1.369 1_655 S
C276 C285 1.429 1_554 S
C277 C275 1.419 1_545 S
C277 C278 1.363 1_554 S
C277 H280 0.929 . S
C278 C277 1.363 1_556 S
C278 C284 1.428 1_455 S
H279 C275 0.930 . S
H280 C277 0.929 . S
S281 N282 1.613 1_545 S
S281 N283 1.610 . S
N282 S281 1.613 1_565 S
N282 C285 1.350 . S
N283 S281 1.610 . S
N283 C284 1.351 . S
C284 C278 1.428 1_655 S
C284 N283 1.351 . S
C284 C285 1.434 1_545 S
C285 C276 1.429 1_556 S
C285 N282 1.350 . S
C285 C284 1.434 1_565 S
C286 C287 1.356 1_565 S
C286 C288 1.431 . S
C286 H290 0.931 . S
C287 C286 1.356 1_545 S
C287 C296 1.429 1_655 S
C288 C286 1.431 . S
C288 C289 1.363 1_655 S
C288 H291 0.929 . S
C289 C288 1.363 1_455 S
C289 C295 1.428 1_565 S
H290 C286 0.931 . S
H291 C288 0.929 . S
S292 N293 1.613 . S
S292 N294 1.610 . S
N293 S292 1.613 . S
N293 C296 1.350 . S
N294 S292 1.610 . S
N294 C295 1.351 . S
C295 C289 1.428 1_545 S
C295 N294 1.351 . S
C295 C296 1.434 . S
C296 C287 1.429 1_455 S
C296 N293 1.350 . S
C296 C295 1.434 . S
C297 C298 1.369 . S
C297 C299 1.419 . S
C297 H301 0.930 . S
C298 C297 1.369 . S
C298 C307 1.429 1_556 S
C299 C297 1.419 . S
C299 C300 1.363 1_556 S
C299 H302 0.929 . S
C300 C299 1.363 1_554 S
C300 C306 1.428 . S
H301 C297 0.930 . S
H302 C299 0.929 . S
S303 N304 1.613 . S
S303 N305 1.610 . S
N304 S303 1.613 . S
N304 C307 1.350 . S
N305 S303 1.610 . S
N305 C306 1.351 . S
C306 C300 1.428 . S
C306 N305 1.351 . S
C306 C307 1.434 . S
C307 C298 1.429 1_554 S
C307 N304 1.350 . S
C307 C306 1.434 . S
C308 C309 1.369 . S
C308 C310 1.419 . S
C308 H312 0.930 . S
C309 C308 1.369 . S
C309 C318 1.429 . S
C310 C308 1.419 . S
C310 C311 1.363 . S
C310 H313 0.929 . S
C311 C310 1.363 . S
C311 C317 1.428 . S
H312 C308 0.930 . S
H313 C310 0.929 . S
S314 N315 1.613 . S
S314 N316 1.610 . S
N315 S314 1.613 . S
N315 C318 1.350 . S
N316 S314 1.610 . S
N316 C317 1.351 . S
C317 C311 1.428 . S
C317 N316 1.351 . S
C317 C318 1.434 . S
C318 C309 1.429 . S
C318 N315 1.350 . S
C318 C317 1.434 . S
C319 C320 1.369 1_655 S
C319 C321 1.419 . S
C319 H323 0.930 . S
C320 C319 1.369 1_455 S
C320 C329 1.429 . S
C321 C319 1.419 . S
C321 C322 1.363 . S
C321 H324 0.929 . S
C322 C321 1.363 . S
C322 C328 1.428 1_655 S
H323 C319 0.930 . S
H324 C321 0.929 . S
S325 N326 1.613 . S
S325 N327 1.610 . S
N326 S325 1.613 . S
N326 C329 1.350 . S
N327 S325 1.610 . S
N327 C328 1.351 . S
C328 C322 1.428 1_455 S
C328 N327 1.351 . S
C328 C329 1.434 . S
C329 C320 1.429 . S
C329 N326 1.350 . S
C329 C328 1.434 . S
C330 C331 1.369 . S
C330 C332 1.419 . S
C330 H334 0.930 . S
C331 C330 1.369 . S
C331 C340 1.429 . S
C332 C330 1.419 . S
C332 C333 1.363 . S
C332 H335 0.929 . S
C333 C332 1.363 . S
C333 C339 1.428 . S
H334 C330 0.930 . S
H335 C332 0.929 . S
S336 N337 1.613 . S
S336 N338 1.610 . S
N337 S336 1.613 . S
N337 C340 1.350 . S
N338 S336 1.610 . S
N338 C339 1.351 . S
C339 C333 1.428 . S
C339 N338 1.351 . S
C339 C340 1.434 . S
C340 C331 1.429 . S
C340 N337 1.350 . S
C340 C339 1.434 . S
C341 C342 1.369 1_455 S
C341 C343 1.419 . S
C341 H345 0.930 . S
C342 C341 1.369 1_655 S
C342 C351 1.429 . S
C343 C341 1.419 . S
C343 C344 1.363 . S
C343 H346 0.929 . S
C344 C343 1.363 . S
C344 C350 1.428 1_455 S
H345 C341 0.930 . S
H346 C343 0.929 . S
S347 N348 1.613 . S
S347 N349 1.610 . S
N348 S347 1.613 . S
N348 C351 1.350 . S
N349 S347 1.610 . S
N349 C350 1.351 . S
C350 C344 1.428 1_655 S
C350 N349 1.351 . S
C350 C351 1.434 . S
C351 C342 1.429 . S
C351 N348 1.350 . S
C351 C350 1.434 . S
C352 C353 1.369 . S
C352 C354 1.419 . S
C352 H356 0.930 . S
C353 C352 1.369 . S
C353 C362 1.429 . S
C354 C352 1.419 . S
C354 C355 1.363 . S
C354 H357 0.929 . S
C355 C354 1.363 . S
C355 C361 1.428 . S
H356 C352 0.930 . S
H357 C354 0.929 . S
S358 N359 1.613 . S
S358 N360 1.610 . S
N359 S358 1.613 . S
N359 C362 1.350 . S
N360 S358 1.610 . S
N360 C361 1.351 . S
C361 C355 1.428 . S
C361 N360 1.351 . S
C361 C362 1.434 . S
C362 C353 1.429 . S
C362 N359 1.350 . S
C362 C361 1.434 . S
C363 C364 1.369 . S
C363 C365 1.419 1_556 S
C363 H367 0.930 . S
C364 C363 1.369 . S
C364 C373 1.429 . S
C365 C363 1.419 1_554 S
C365 C366 1.363 . S
C365 H368 0.929 . S
C366 C365 1.363 . S
C366 C372 1.428 1_554 S
H367 C363 0.930 . S
H368 C365 0.929 . S
S369 N370 1.613 . S
S369 N371 1.610 . S
N370 S369 1.613 . S
N370 C373 1.350 . S
N371 S369 1.610 . S
N371 C372 1.351 . S
C372 C366 1.428 1_556 S
C372 N371 1.351 . S
C372 C373 1.434 . S
C373 C364 1.429 . S
C373 N370 1.350 . S
C373 C372 1.434 . S
C374 C375 1.369 . S
C374 C376 1.419 . S
C374 H378 0.930 . S
C375 C374 1.369 . S
C375 C384 1.429 . S
C376 C374 1.419 . S
C376 C377 1.363 . S
C376 H379 0.929 . S
C377 C376 1.363 . S
C377 C383 1.428 . S
H378 C374 0.930 . S
H379 C376 0.929 . S
S380 N381 1.613 . S
S380 N382 1.610 . S
N381 S380 1.613 . S
N381 C384 1.350 . S
N382 S380 1.610 . S
N382 C383 1.351 . S
C383 C377 1.428 . S
C383 N382 1.351 . S
C383 C384 1.434 . S
C384 C375 1.429 . S
C384 N381 1.350 . S
C384 C383 1.434 . S
C385 C386 1.369 . S
C385 C387 1.419 . S
C385 H389 0.930 . S
C386 C385 1.369 . S
C386 C395 1.429 . S
C387 C385 1.419 . S
C387 C388 1.363 1_554 S
C387 H390 0.929 . S
C388 C387 1.363 1_556 S
C388 C394 1.428 . S
H389 C385 0.930 . S
H390 C387 0.929 . S
S391 N392 1.613 1_556 S
S391 N393 1.610 . S
N392 S391 1.613 1_554 S
N392 C395 1.350 . S
N393 S391 1.610 . S
N393 C394 1.351 . S
C394 C388 1.428 . S
C394 N393 1.351 . S
C394 C395 1.434 1_556 S
C395 C386 1.429 . S
C395 N392 1.350 . S
C395 C394 1.434 1_554 S
C396 C397 1.369 . S
C396 C398 1.419 . S
C396 H400 0.930 . S
C397 C396 1.369 . S
C397 C406 1.429 . S
C398 C396 1.419 . S
C398 C399 1.363 . S
C398 H401 0.929 . S
C399 C398 1.363 . S
C399 C405 1.428 . S
H400 C396 0.930 . S
H401 C398 0.929 . S
S402 N403 1.613 . S
S402 N404 1.610 . S
N403 S402 1.613 . S
N403 C406 1.350 . S
N404 S402 1.610 . S
N404 C405 1.351 . S
C405 C399 1.428 . S
C405 N404 1.351 . S
C405 C406 1.434 . S
C406 C397 1.429 . S
C406 N403 1.350 . S
C406 C405 1.434 . S
C407 C408 1.369 . S
C407 C409 1.419 . S
C407 H411 0.930 . S
C408 C407 1.369 . S
C408 C417 1.429 . S
C409 C407 1.419 . S
C409 C410 1.363 1_554 S
C409 H412 0.929 . S
C410 C409 1.363 1_556 S
C410 C416 1.428 . S
H411 C407 0.930 . S
H412 C409 0.929 . S
S413 N414 1.583 1_556 S
S413 N415 1.610 . S
N414 S413 1.583 1_554 S
N414 C417 1.358 . S
N415 S413 1.610 . S
N415 C416 1.351 . S
C416 C410 1.428 . S
C416 N415 1.351 . S
C416 C417 1.434 1_556 S
C417 C408 1.429 . S
C417 N414 1.358 . S
C417 C416 1.434 1_554 S
C418 C419 1.369 . S
C418 C420 1.419 . S
C418 H422 0.930 . S
C419 C418 1.369 . S
C419 C428 1.429 . S
C420 C418 1.419 . S
C420 C421 1.363 . S
C420 H423 0.929 . S
C421 C420 1.363 . S
C421 C427 1.428 . S
H422 C418 0.930 . S
H423 C420 0.929 . S
S424 N425 1.613 . S
S424 N426 1.610 . S
N425 S424 1.613 . S
N425 C428 1.350 . S
N426 S424 1.610 . S
N426 C427 1.351 . S
C427 C421 1.428 . S
C427 N426 1.351 . S
C427 C428 1.434 . S
C428 C419 1.429 . S
C428 N425 1.350 . S
C428 C427 1.434 . S
C429 C430 1.369 . S
C429 C431 1.419 1_554 S
C429 H433 0.930 . S
C430 C429 1.369 . S
C430 C439 1.429 1_554 S
C431 C429 1.419 1_556 S
C431 C432 1.363 . S
C431 H434 0.929 . S
C432 C431 1.363 . S
C432 C438 1.428 . S
H433 C429 0.930 . S
H434 C431 0.929 . S
S435 N436 1.613 . S
S435 N437 1.610 . S
N436 S435 1.613 . S
N436 C439 1.350 . S
N437 S435 1.610 . S
N437 C438 1.351 . S
C438 C432 1.428 . S
C438 N437 1.351 . S
C438 C439 1.434 . S
C439 C430 1.429 1_556 S
C439 N436 1.350 . S
C439 C438 1.434 . S
C177 C153 1.628 1_545 S
C179 C10 1.617 . S
C188 C30 1.613 . S
C190 C169 1.630 . S
C199 C109 1.633 . S
C201 C54 1.615 . S
C210 C76 1.619 . S
C212 C131 1.630 1_545 S
C221 C65 1.628 1_565 S
C223 C98 1.615 . S
C232 C120 1.619 . S
C234 C87 1.629 . S
C243 C21 1.630 . S
C245 C142 1.618 . S
C254 C29 1.629 1_565 S
C256 C172 1.618 . S
C265 C7 1.225 . S
C267 C95 1.235 . S
C276 C117 1.239 . S
C278 C37 1.225 . S
C287 C51 1.232 . S
C289 C139 1.231 . S
C298 C175 1.236 . S
C300 C73 1.227 . S
C309 C74 1.563 . S
C311 C8 1.561 . S
C320 C40 1.564 . S
C322 C52 1.559 . S
C331 C164 1.558 . S
C333 C96 1.563 . S
C342 C118 1.563 . S
C344 C140 1.559 . S
C353 C18 1.540 . S
C355 C59 1.582 . S
C364 C32 1.541 . S
C366 C81 1.584 . S
C375 C62 1.538 . S
C377 C15 1.586 . S
C386 C84 1.532 . S
C388 C43 1.583 . S
C397 C106 1.536 . S
C399 C147 1.588 . S
C408 C128 1.529 . S
C410 C161 1.586 . S
C419 C150 1.539 . S
C421 C103 1.582 . S
C430 C125 1.582 . S
C432 C162 1.539 . S
