# Generated by pormake.
# Topology crs, (6)-cn, num edge types: 1
# Building blocks:
#     Node 0, Type 0, BuildingBlock: PAMTUU_clean_sbu_0, # of connection points: 6
#     Node 1, Type 0, BuildingBlock: PAMTUU_clean_sbu_0, # of connection points: 6
#     Node 2, Type 0, BuildingBlock: PAMTUU_clean_sbu_0, # of connection points: 6
#     Node 3, Type 0, BuildingBlock: PAMTUU_clean_sbu_0, # of connection points: 6
#     Node 4, Type 0, BuildingBlock: PAMTUU_clean_sbu_0, # of connection points: 6
#     Node 5, Type 0, BuildingBlock: PAMTUU_clean_sbu_0, # of connection points: 6
#     Node 6, Type 0, BuildingBlock: PAMTUU_clean_sbu_0, # of connection points: 6
#     Node 7, Type 0, BuildingBlock: PAMTUU_clean_sbu_0, # of connection points: 6
#     Node 8, Type 0, BuildingBlock: PAMTUU_clean_sbu_0, # of connection points: 6
#     Node 9, Type 0, BuildingBlock: PAMTUU_clean_sbu_0, # of connection points: 6
#     Node 10, Type 0, BuildingBlock: PAMTUU_clean_sbu_0, # of connection points: 6
#     Node 11, Type 0, BuildingBlock: PAMTUU_clean_sbu_0, # of connection points: 6
#     Node 12, Type 0, BuildingBlock: PAMTUU_clean_sbu_0, # of connection points: 6
#     Node 13, Type 0, BuildingBlock: PAMTUU_clean_sbu_0, # of connection points: 6
#     Node 14, Type 0, BuildingBlock: PAMTUU_clean_sbu_0, # of connection points: 6
#     Node 15, Type 0, BuildingBlock: PAMTUU_clean_sbu_0, # of connection points: 6
#     Edge 16, Type (0, 0), BuildingBlock: ZUJKAS_clean_linker_0, # of connection points: 2
#     Edge 17, Type (0, 0), BuildingBlock: ZUJKAS_clean_linker_0, # of connection points: 2
#     Edge 18, Type (0, 0), BuildingBlock: ZUJKAS_clean_linker_0, # of connection points: 2
#     Edge 19, Type (0, 0), BuildingBlock: ZUJKAS_clean_linker_0, # of connection points: 2
#     Edge 20, Type (0, 0), BuildingBlock: ZUJKAS_clean_linker_0, # of connection points: 2
#     Edge 21, Type (0, 0), BuildingBlock: ZUJKAS_clean_linker_0, # of connection points: 2
#     Edge 22, Type (0, 0), BuildingBlock: ZUJKAS_clean_linker_0, # of connection points: 2
#     Edge 23, Type (0, 0), BuildingBlock: ZUJKAS_clean_linker_0, # of connection points: 2
#     Edge 24, Type (0, 0), BuildingBlock: ZUJKAS_clean_linker_0, # of connection points: 2
#     Edge 25, Type (0, 0), BuildingBlock: ZUJKAS_clean_linker_0, # of connection points: 2
#     Edge 26, Type (0, 0), BuildingBlock: ZUJKAS_clean_linker_0, # of connection points: 2
#     Edge 27, Type (0, 0), BuildingBlock: ZUJKAS_clean_linker_0, # of connection points: 2
#     Edge 28, Type (0, 0), BuildingBlock: ZUJKAS_clean_linker_0, # of connection points: 2
#     Edge 29, Type (0, 0), BuildingBlock: ZUJKAS_clean_linker_0, # of connection points: 2
#     Edge 30, Type (0, 0), BuildingBlock: ZUJKAS_clean_linker_0, # of connection points: 2
#     Edge 31, Type (0, 0), BuildingBlock: ZUJKAS_clean_linker_0, # of connection points: 2
#     Edge 32, Type (0, 0), BuildingBlock: ZUJKAS_clean_linker_0, # of connection points: 2
#     Edge 33, Type (0, 0), BuildingBlock: ZUJKAS_clean_linker_0, # of connection points: 2
#     Edge 34, Type (0, 0), BuildingBlock: ZUJKAS_clean_linker_0, # of connection points: 2
#     Edge 35, Type (0, 0), BuildingBlock: ZUJKAS_clean_linker_0, # of connection points: 2
#     Edge 36, Type (0, 0), BuildingBlock: ZUJKAS_clean_linker_0, # of connection points: 2
#     Edge 37, Type (0, 0), BuildingBlock: ZUJKAS_clean_linker_0, # of connection points: 2
#     Edge 38, Type (0, 0), BuildingBlock: ZUJKAS_clean_linker_0, # of connection points: 2
#     Edge 39, Type (0, 0), BuildingBlock: ZUJKAS_clean_linker_0, # of connection points: 2
#     Edge 40, Type (0, 0), BuildingBlock: ZUJKAS_clean_linker_0, # of connection points: 2
#     Edge 41, Type (0, 0), BuildingBlock: ZUJKAS_clean_linker_0, # of connection points: 2
#     Edge 42, Type (0, 0), BuildingBlock: ZUJKAS_clean_linker_0, # of connection points: 2
#     Edge 43, Type (0, 0), BuildingBlock: ZUJKAS_clean_linker_0, # of connection points: 2
#     Edge 44, Type (0, 0), BuildingBlock: ZUJKAS_clean_linker_0, # of connection points: 2
#     Edge 45, Type (0, 0), BuildingBlock: ZUJKAS_clean_linker_0, # of connection points: 2
#     Edge 46, Type (0, 0), BuildingBlock: ZUJKAS_clean_linker_0, # of connection points: 2
#     Edge 47, Type (0, 0), BuildingBlock: ZUJKAS_clean_linker_0, # of connection points: 2
#     Edge 48, Type (0, 0), BuildingBlock: ZUJKAS_clean_linker_0, # of connection points: 2
#     Edge 49, Type (0, 0), BuildingBlock: ZUJKAS_clean_linker_0, # of connection points: 2
#     Edge 50, Type (0, 0), BuildingBlock: ZUJKAS_clean_linker_0, # of connection points: 2
#     Edge 51, Type (0, 0), BuildingBlock: ZUJKAS_clean_linker_0, # of connection points: 2
#     Edge 52, Type (0, 0), BuildingBlock: ZUJKAS_clean_linker_0, # of connection points: 2
#     Edge 53, Type (0, 0), BuildingBlock: ZUJKAS_clean_linker_0, # of connection points: 2
#     Edge 54, Type (0, 0), BuildingBlock: ZUJKAS_clean_linker_0, # of connection points: 2
#     Edge 55, Type (0, 0), BuildingBlock: ZUJKAS_clean_linker_0, # of connection points: 2
#     Edge 56, Type (0, 0), BuildingBlock: ZUJKAS_clean_linker_0, # of connection points: 2
#     Edge 57, Type (0, 0), BuildingBlock: ZUJKAS_clean_linker_0, # of connection points: 2
#     Edge 58, Type (0, 0), BuildingBlock: ZUJKAS_clean_linker_0, # of connection points: 2
#     Edge 59, Type (0, 0), BuildingBlock: ZUJKAS_clean_linker_0, # of connection points: 2
#     Edge 60, Type (0, 0), BuildingBlock: ZUJKAS_clean_linker_0, # of connection points: 2
#     Edge 61, Type (0, 0), BuildingBlock: ZUJKAS_clean_linker_0, # of connection points: 2
#     Edge 62, Type (0, 0), BuildingBlock: ZUJKAS_clean_linker_0, # of connection points: 2
#     Edge 63, Type (0, 0), BuildingBlock: ZUJKAS_clean_linker_0, # of connection points: 2
# Relax obj value: 0.314
# Max RMSD: 0.319
# Mean RMSD: 0.245
data_MOF--net-crs--node1-PAMTUU_clean_sbu_0--edge1-ZUJKAS_clean_linker_0
_symmetry_space_group_name_H-M    P1
_symmetry_Int_Tables_number       1
_symmetry_cell_setting            triclinic
loop_
_symmetry_equiv_pos_as_xyz
'x, y, z'
_cell_length_a     66.931802
_cell_length_b     68.103614
_cell_length_c     57.159802
_cell_angle_alpha  77.257268
_cell_angle_beta   77.996748
_cell_angle_gamma 69.627673
loop_
_atom_site_label
_atom_site_type_symbol
_atom_site_fract_x
_atom_site_fract_y
_atom_site_fract_z
_atom_type_partial_charge
Tb0 Tb 0.00383 0.00318 0.99247 0.0
Tb1 Tb 0.97759 0.9847 0.04308 0.0
C2 C 0.95578 0.00489 0.99628 0.0
C3 C 0.04151 0.02842 0.95458 0.0
C4 C 0.06998 0.0507 0.95388 0.0
C5 C 0.06331 0.05028 0.93226 0.0
C6 C 0.04905 0.03926 0.93265 0.0
C7 C 0.0487 0.02822 0.97603 0.0
C8 C 0.06282 0.03926 0.97568 0.0
C9 C 0.025 0.01858 0.95577 0.0
O10 O 0.00016 0.02343 0.01851 0.0
O11 O 0.96975 0.01863 0.0425 0.0
O12 O 0.0069 0.98545 0.05268 0.0
O13 O 0.02778 0.98307 0.01553 0.0
O14 O 0.94888 0.98802 0.06739 0.0
O15 O 0.97769 0.96192 0.0745 0.0
O16 O -0.0057 0.95786 0.02371 0.0
O17 O -0.00063 0.97544 0.98474 0.0
O18 O 0.96992 0.01507 0.98799 0.0
O19 O 0.95816 0.98975 0.01514 0.0
C20 C 0.98334 0.02948 0.03484 0.0
O21 O 0.03015 -0.00161 0.96461 0.0
O22 O 0.00582 0.02906 0.96537 0.0
C23 C 0.02579 0.98157 0.03914 0.0
C24 C 0.94498 0.95479 0.08365 0.0
C25 C 0.92126 0.92694 0.08827 0.0
C26 C 0.92083 0.9362 0.10815 0.0
C27 C 0.9327 0.95003 0.10585 0.0
C28 C 0.94542 0.9456 0.06382 0.0
C29 C 0.93373 0.93174 0.06612 0.0
C30 C 0.95693 0.96974 0.08063 0.0
C31 C -0.00144 0.95819 1.0001 0.0
H32 H 0.06849 0.0591 0.91526 0.0
H33 H 0.04352 0.03964 0.91599 0.0
H34 H 0.04299 0.01991 0.99315 0.0
H35 H 0.06792 0.03908 0.99254 0.0
H36 H 0.91141 0.93269 0.12544 0.0
H37 H 0.93217 0.95711 0.12128 0.0
H38 H 0.95463 0.94935 0.04646 0.0
H39 H 0.93406 0.92516 0.05037 0.0
Tb40 Tb 0.98288 0.23985 0.24616 0.0
Tb41 Tb 0.00975 0.25036 0.28147 0.0
C42 C 0.97113 0.28526 0.25956 0.0
C43 C 0.96501 0.21703 0.20309 0.0
C44 C 0.97025 0.18824 0.17187 0.0
C45 C 0.9496 0.19937 0.18253 0.0
C46 C 0.94703 0.21364 0.19794 0.0
C47 C 0.9857 0.20593 0.1927 0.0
C48 C 0.9883 0.19167 0.17716 0.0
C49 C 0.96169 0.23201 0.21956 0.0
O50 O 0.01424 0.23798 0.22504 0.0
O51 O 0.02238 0.26006 0.24392 0.0
O52 O 0.02941 0.21984 0.27127 0.0
O53 O 0.00333 0.20917 0.26211 0.0
O54 O 0.02516 0.27054 0.28715 0.0
O55 O 0.02513 0.24189 0.3125 0.0
O56 O 0.98637 0.23681 0.30567 0.0
O57 O 0.96144 0.24523 0.27997 0.0
O58 O 0.97445 0.27428 0.24209 0.0
O59 O 0.98025 0.27696 0.27923 0.0
C60 C 0.02554 0.25024 0.22543 0.0
O61 O 0.96222 0.22391 0.24239 0.0
O62 O 0.97206 0.24583 0.21256 0.0
C63 C 0.02275 0.20497 0.26741 0.0
C64 C 0.02565 0.27116 0.32789 0.0
C65 C 0.01845 0.29715 0.3629 0.0
C66 C 0.03898 0.28272 0.35703 0.0
C67 C 0.04253 0.26988 0.33965 0.0
C68 C 0.00492 0.28489 0.33427 0.0
C69 C 0.00134 0.29779 0.35169 0.0
C70 C 0.03036 0.25924 0.30785 0.0
C71 C 0.96678 0.23961 0.30189 0.0
H72 H 0.93538 0.19683 0.17929 0.0
H73 H 0.93096 0.22197 0.20597 0.0
H74 H -0.00021 0.20832 0.19658 0.0
H75 H 0.00441 0.18351 0.16912 0.0
H76 H 0.0524 0.2816 0.36562 0.0
H77 H 0.05861 0.25931 0.33495 0.0
H78 H 0.9917 0.28609 0.32528 0.0
H79 H 0.98538 0.30883 0.35567 0.0
Tb80 Tb 0.75576 0.24786 0.53262 0.0
Tb81 Tb 0.73716 0.2335 0.49264 0.0
C82 C 0.75111 0.20228 0.54015 0.0
C83 C 0.78736 0.26589 0.56549 0.0
C84 C 0.82081 0.2806 0.56913 0.0
C85 C 0.80689 0.27558 0.58992 0.0
C86 C 0.79032 0.26829 0.58808 0.0
C87 C 0.80122 0.2707 0.54464 0.0
C88 C 0.81782 0.27806 0.54644 0.0
C89 C 0.7699 0.2581 0.5642 0.0
O90 O 0.78418 0.23256 0.50844 0.0
O91 O 0.76831 0.23609 0.47511 0.0
O92 O 0.72915 0.26796 0.48495 0.0
O93 O 0.75579 0.27225 0.50079 0.0
O94 O 0.73994 0.21206 0.46977 0.0
O95 O 0.71371 0.24152 0.47001 0.0
O96 O 0.71256 0.23562 0.52422 0.0
O97 O 0.72066 0.25928 0.54058 0.0
O98 O 0.74903 0.21864 0.55008 0.0
O99 O 0.75103 0.20418 0.51677 0.0
C100 C 0.78543 0.23264 0.48514 0.0
O101 O 0.75474 0.27113 0.55197 0.0
O102 O 0.77582 0.23888 0.5594 0.0
C103 C 0.74139 0.27915 0.48589 0.0
C104 C 0.70616 0.21233 0.46367 0.0
C105 C 0.67372 0.19448 0.46562 0.0
C106 C 0.6867 0.19849 0.44355 0.0
C107 C 0.70277 0.20743 0.44259 0.0
C108 C 0.69369 0.2078 0.48586 0.0
C109 C 0.67751 0.19901 0.48682 0.0
C110 C 0.72169 0.22343 0.4621 0.0
C111 C 0.70736 0.24938 0.53907 0.0
H112 H 0.80853 0.27771 0.60758 0.0
H113 H 0.77973 0.26462 0.60432 0.0
H114 H 0.79916 0.26877 0.52706 0.0
H115 H 0.82838 0.28166 0.53015 0.0
H116 H 0.68399 0.19532 0.42692 0.0
H117 H 0.71223 0.21096 0.42532 0.0
H118 H 0.69618 0.21148 0.50232 0.0
H119 H 0.6679 0.19583 0.50409 0.0
Tb120 Tb 0.74424 0.00626 0.77948 0.0
Tb121 Tb 0.73213 0.9793 0.7463 0.0
C122 C 0.69748 0.01789 0.76699 0.0
C123 C 0.76833 0.02463 0.82081 0.0
C124 C 0.79825 0.02009 0.85126 0.0
C125 C 0.77985 0.03813 0.84976 0.0
C126 C 0.76504 0.04036 0.83464 0.0
C127 C 0.78652 0.00648 0.82234 0.0
C128 C 0.80142 0.00424 0.83743 0.0
C129 C 0.75281 0.02772 0.80461 0.0
O130 O 0.74669 0.97556 0.802 0.0
O131 O 0.72423 0.96621 0.78432 0.0
O132 O 0.76352 0.9604 0.75597 0.0
O133 O 0.77509 0.98607 0.76365 0.0
O134 O 0.71064 0.96525 0.74055 0.0
O135 O 0.7412 0.96208 0.71739 0.0
O136 O 0.7449 0.0025 0.72053 0.0
O137 O 0.73801 0.02711 0.74528 0.0
O138 O 0.70926 0.01488 0.78399 0.0
O139 O 0.70512 0.0082 0.74805 0.0
C140 C 0.73467 0.96377 0.80247 0.0
O141 O 0.76066 0.02676 0.78187 0.0
O142 O 0.73884 0.01752 0.81237 0.0
C143 C 0.77899 0.96706 0.75853 0.0
C144 C 0.71224 0.96229 0.6999 0.0
C145 C 0.69015 0.96833 0.6607 0.0
C146 C 0.705 0.94849 0.66804 0.0
C147 C 0.71591 0.94551 0.6875 0.0
C148 C 0.69799 0.98233 0.69224 0.0
C149 C 0.68699 0.98533 0.67278 0.0
C150 C 0.7229 0.9583 0.72121 0.0
C151 C 0.74275 0.02177 0.72361 0.0
H152 H 0.77711 0.05074 0.85991 0.0
H153 H 0.75108 0.0545 0.83357 0.0
H154 H 0.78923 0.99415 0.81178 0.0
H155 H 0.81533 0.99007 0.83841 0.0
H156 H 0.70807 0.93519 0.65886 0.0
H157 H 0.72699 0.92999 0.69311 0.0
H158 H 0.69504 -0.00451 0.70161 0.0
H159 H 0.67553 0.00075 0.66772 0.0
Tb160 Tb 0.47809 0.73914 0.24556 0.0
Tb161 Tb 0.50692 0.75283 0.27549 0.0
C162 C 0.46593 0.78574 0.25517 0.0
C163 C 0.45692 0.71661 0.20496 0.0
C164 C 0.45935 0.69004 0.17239 0.0
C165 C 0.43943 0.70409 0.18089 0.0
C166 C 0.43825 0.71724 0.19704 0.0
C167 C 0.47697 0.70316 0.19599 0.0
C168 C 0.47818 0.68999 0.17974 0.0
C169 C 0.45479 0.72901 0.22381 0.0
O170 O 0.50109 0.75087 0.21792 0.0
O171 O 0.527 0.74598 0.24134 0.0
O172 O 0.51736 0.71817 0.2809 0.0
O173 O 0.50762 0.71272 0.2472 0.0
O174 O 0.52719 0.77029 0.27581 0.0
O175 O 0.51925 0.74908 0.3077 0.0
O176 O 0.47645 0.75474 0.29896 0.0
O177 O 0.4684 0.73021 0.28425 0.0
O178 O 0.45895 0.77007 0.25483 0.0
O179 O 0.48591 0.7824 0.25797 0.0
C180 C 0.52085 0.74925 0.22005 0.0
O181 O 0.46204 0.71816 0.24382 0.0
O182 O 0.46001 0.74637 0.21697 0.0
C183 C 0.51902 0.70598 0.26517 0.0
C184 C 0.52528 0.77957 0.31365 0.0
C185 C 0.5196 0.81075 0.34183 0.0
C186 C 0.53902 0.79387 0.33987 0.0
C187 C 0.54181 0.77844 0.32589 0.0
C188 C 0.5058 0.79626 0.31558 0.0
C189 C 0.50299 0.81178 0.32954 0.0
C190 C 0.52882 0.76338 0.2987 0.0
C191 C 0.46563 0.74147 0.30128 0.0
H192 H 0.42469 0.70473 0.17526 0.0
H193 H 0.42265 0.72756 0.2038 0.0
H194 H 0.49154 0.70247 0.20204 0.0
H195 H 0.49374 0.67924 0.17363 0.0
H196 H 0.55223 0.79278 0.3488 0.0
H197 H 0.55697 0.76568 0.32449 0.0
H198 H 0.49284 0.79731 0.30625 0.0
H199 H 0.48777 0.82445 0.3309 0.0
Tb200 Tb 0.25109 0.75392 0.52999 0.0
Tb201 Tb 0.23315 0.73987 0.48914 0.0
C202 C 0.248 0.70791 0.53594 0.0
C203 C 0.28073 0.77356 0.56327 0.0
C204 C 0.3113 0.79234 0.56597 0.0
C205 C 0.29734 0.78748 0.58678 0.0
C206 C 0.28217 0.77815 0.58541 0.0
C207 C 0.29472 0.77812 0.54246 0.0
C208 C 0.30993 0.78746 0.5438 0.0
C209 C 0.26434 0.7643 0.56218 0.0
O210 O 0.27983 0.73958 0.50558 0.0
O211 O 0.26405 0.74353 0.47208 0.0
O212 O 0.22509 0.77442 0.4814 0.0
O213 O 0.25094 0.77873 0.49874 0.0
O214 O 0.23882 0.72137 0.46217 0.0
O215 O 0.2079 0.74503 0.46968 0.0
O216 O 0.20886 0.74063 0.52104 0.0
O217 O 0.21602 0.76465 0.53769 0.0
O218 O 0.24544 0.7241 0.54641 0.0
O219 O 0.24759 0.71022 0.51255 0.0
C220 C 0.28114 0.74001 0.48219 0.0
O221 O 0.24839 0.77677 0.55078 0.0
O222 O 0.27151 0.74534 0.55635 0.0
C223 C 0.23695 0.78571 0.48337 0.0
C224 C 0.20809 0.71461 0.45653 0.0
C225 C 0.18709 0.68622 0.45328 0.0
C226 C 0.18423 0.70553 0.43721 0.0
C227 C 0.1947 0.71957 0.4388 0.0
C228 C 0.21086 0.69545 0.47281 0.0
C229 C 0.20052 0.68129 0.47111 0.0
C230 C 0.21903 0.7296 0.45758 0.0
C231 C 0.20326 0.75416 0.53624 0.0
H232 H 0.29775 0.79136 0.60402 0.0
H233 H 0.27139 0.77474 0.6016 0.0
H234 H 0.29377 0.77458 0.52522 0.0
H235 H 0.32061 0.79085 0.52752 0.0
H236 H 0.17414 0.70963 0.42317 0.0
H237 H 0.19241 0.73431 0.42612 0.0
H238 H 0.22103 0.69144 0.48677 0.0
H239 H 0.20279 0.66662 0.48389 0.0
Tb240 Tb 0.24567 0.50879 0.77362 0.0
Tb241 Tb 0.23515 0.48258 0.73834 0.0
C242 C 0.19958 0.51946 0.76047 0.0
C243 C 0.26729 0.52481 0.81891 0.0
C244 C 0.29541 0.51735 0.85257 0.0
C245 C 0.27609 0.53443 0.85297 0.0
C246 C 0.26217 0.53813 0.83623 0.0
C247 C 0.28635 0.50752 0.81865 0.0
C248 C 0.30037 0.50387 0.8353 0.0
C249 C 0.25256 0.5292 0.80132 0.0
O250 O 0.24971 0.47718 0.79417 0.0
O251 O 0.2273 0.46838 0.7759 0.0
O252 O 0.26714 0.46419 0.74676 0.0
O253 O 0.27716 0.48933 0.75837 0.0
O254 O 0.21433 0.46808 0.73187 0.0
O255 O 0.2443 0.46687 0.70814 0.0
O256 O 0.24761 0.50646 0.71391 0.0
O257 O 0.2401 0.53044 0.73965 0.0
O258 O 0.21093 0.51538 0.77812 0.0
O259 O 0.20795 0.5114 0.74049 0.0
C260 C 0.23789 0.46535 0.79407 0.0
O261 O 0.26129 0.52908 0.7787 0.0
O262 O 0.23834 0.51922 0.80726 0.0
C263 C 0.28189 0.47095 0.7512 0.0
C264 C 0.21504 0.4678 0.69021 0.0
C265 C 0.19387 0.47372 0.6501 0.0
C266 C 0.21639 0.46472 0.64828 0.0
C267 C 0.22684 0.4617 0.66818 0.0
C268 C 0.19261 0.47737 0.69186 0.0
C269 C 0.18216 0.48026 0.67205 0.0
C270 C 0.22614 0.46284 0.71158 0.0
C271 C 0.24507 0.52559 0.7177 0.0
H272 H 0.27197 0.54521 0.86588 0.0
H273 H 0.24748 0.55151 0.83668 0.0
H274 H 0.29041 0.49695 0.8055 0.0
H275 H 0.31504 0.49048 0.83474 0.0
H276 H 0.22592 0.45973 0.63158 0.0
H277 H 0.24414 0.45422 0.66647 0.0
H278 H 0.18301 0.48217 0.70861 0.0
H279 H 0.16477 0.4869 0.67428 0.0
Tb280 Tb -0.00321 0.50663 0.49299 0.0
Tb281 Tb 0.9794 0.48119 0.54488 0.0
C282 C 0.94959 0.50442 0.50481 0.0
C283 C 0.02892 0.53667 0.45249 0.0
C284 C 0.05957 0.55723 0.44873 0.0
C285 C 0.04991 0.55875 0.42847 0.0
C286 C 0.03459 0.54856 0.43038 0.0
C287 C 0.0389 0.53472 0.47254 0.0
C288 C 0.05407 0.54491 0.47069 0.0
C289 C 0.01219 0.52672 0.45529 0.0
O290 O -0.00448 0.52428 0.52086 0.0
O291 O 0.96955 0.51437 0.54905 0.0
O292 O 0.0097 0.48374 0.54932 0.0
O293 O 0.02485 0.48575 0.50947 0.0
O294 O 0.95517 0.47968 0.57444 0.0
O295 O 0.98573 0.45462 0.5724 0.0
O296 O -0.00509 0.45793 0.52049 0.0
O297 O 0.9919 0.47971 0.48358 0.0
O298 O 0.96195 0.51636 0.49523 0.0
O299 O 0.95538 0.48778 0.52157 0.0
C300 C 0.98088 0.52736 0.54006 0.0
O301 O 0.01867 0.50609 0.46079 0.0
O302 O -0.00558 0.53527 0.46903 0.0
C303 C 0.02661 0.4822 0.53257 0.0
C304 C 0.95483 0.44447 0.58742 0.0
C305 C 0.93606 0.41234 0.59283 0.0
C306 C 0.95091 0.4105 0.60797 0.0
C307 C 0.96018 0.42651 0.60532 0.0
C308 C 0.93997 0.44633 0.57233 0.0
C309 C 0.93057 0.43048 0.57511 0.0
C310 C 0.96594 0.46038 0.58332 0.0
C311 C -0.00515 0.46088 0.49696 0.0
H312 H 0.05378 0.56826 0.41137 0.0
H313 H 0.02698 0.55021 0.41477 0.0
H314 H 0.03474 0.5255 0.48975 0.0
H315 H 0.06148 0.54319 0.48648 0.0
H316 H 0.95535 0.39668 0.6218 0.0
H317 H 0.9718 0.42472 0.61695 0.0
H318 H 0.93588 0.45985 0.55809 0.0
H319 H 0.91945 0.43214 0.56293 0.0
Tb320 Tb 0.25425 0.25726 0.03313 0.0
Tb321 Tb 0.23685 0.24147 0.99318 0.0
C322 C 0.25247 0.21054 0.0403 0.0
C323 C 0.2848 0.27651 0.06596 0.0
C324 C 0.31891 0.29018 0.06979 0.0
C325 C 0.30562 0.2842 0.09067 0.0
C326 C 0.2887 0.27745 0.08874 0.0
C327 C 0.29803 0.28228 0.04502 0.0
C328 C 0.31497 0.28912 0.04692 0.0
C329 C 0.26742 0.26865 0.0646 0.0
O330 O 0.28313 0.24268 1.00908 0.0
O331 O 0.26737 0.24584 0.97582 0.0
O332 O 0.22724 0.27603 0.98552 0.0
O333 O 0.25327 0.28161 1.00116 0.0
O334 O 0.2428 0.22217 0.96695 0.0
O335 O 0.21187 0.24603 0.97363 0.0
O336 O 0.21288 0.24191 0.02524 0.0
O337 O 0.2192 0.2666 0.04172 0.0
O338 O 0.2499 0.22701 0.05029 0.0
O339 O 0.25151 0.21237 0.01712 0.0
C340 C 0.28443 0.24273 0.98578 0.0
O341 O 0.25256 0.2813 0.05172 0.0
O342 O 0.27351 0.2492 0.06052 0.0
C343 C 0.23887 0.28788 0.98633 0.0
C344 C 0.21209 0.21497 0.96217 0.0
C345 C 0.19026 0.18654 0.96172 0.0
C346 C 0.1887 0.20453 0.94367 0.0
C347 C 0.19959 0.21861 0.94389 0.0
C348 C 0.21363 0.1971 0.98033 0.0
C349 C 0.20288 0.18289 0.98002 0.0
C350 C 0.22305 0.23018 0.96219 0.0
C351 C 0.20691 0.25557 0.04033 0.0
H352 H 0.30843 0.28451 0.10855 0.0
H353 H 0.27873 0.27279 0.10507 0.0
H354 H 0.29527 0.28146 0.02729 0.0
H355 H 0.32479 0.29382 0.03049 0.0
H356 H 0.17925 0.2076 0.92924 0.0
H357 H 0.19821 0.23238 0.92979 0.0
H358 H 0.22307 0.19419 0.99473 0.0
H359 H 0.20415 0.16926 0.99427 0.0
Tb360 Tb 0.2506 0.01084 0.28021 0.0
Tb361 Tb 0.24217 0.98499 0.2428 0.0
C362 C 0.20463 0.02177 0.26554 0.0
C363 C 0.26737 0.02587 0.33071 0.0
C364 C 0.28808 0.01877 0.37137 0.0
C365 C 0.27213 0.03818 0.36524 0.0
C366 C 0.26191 0.04169 0.34506 0.0
C367 C 0.28262 0.00614 0.33723 0.0
C368 C 0.29292 0.00262 0.35741 0.0
C369 C 0.25755 0.03063 0.30859 0.0
O370 O 0.23841 0.9861 0.30315 0.0
O371 O 0.24809 0.96277 0.27626 0.0
O372 O 0.27671 0.97916 0.23936 0.0
O373 O 0.27858 0.98269 0.27761 0.0
O374 O 0.22846 0.96343 0.237 0.0
O375 O 0.2496 0.97592 0.20837 0.0
O376 O 0.23812 0.01681 0.22296 0.0
O377 O 0.25863 0.02632 0.24328 0.0
O378 O 0.21884 0.02877 0.27083 0.0
O379 O 0.21007 0.00354 0.25775 0.0
C380 C 0.24207 0.967 0.29846 0.0
O381 O 0.27057 0.02514 0.28904 0.0
O382 O 0.23978 0.02615 0.3108 0.0
C383 C 0.28758 0.97507 0.25745 0.0
C384 C 0.2218 0.96796 0.19709 0.0
C385 C 0.19259 0.97266 0.16571 0.0
C386 C 0.21256 0.95646 0.1647 0.0
C387 C 0.22703 0.95412 0.18031 0.0
C388 C 0.20216 0.98451 0.19779 0.0
C389 C 0.18762 0.98681 0.18225 0.0
C390 C 0.23673 0.96446 0.21417 0.0
C391 C 0.24913 0.02904 0.22427 0.0
H392 H 0.26777 0.05081 0.37584 0.0
H393 H 0.25003 0.05695 0.34037 0.0
H394 H 0.28694 0.99369 0.32637 0.0
H395 H 0.30526 0.98756 0.36151 0.0
H396 H 0.21674 0.94518 0.15236 0.0
H397 H 0.24215 0.94126 0.17959 0.0
H398 H 0.19797 -0.00458 0.21057 0.0
H399 H 0.17245 -0.00042 0.18324 0.0
Tb400 Tb 0.48067 0.24317 0.74449 0.0
Tb401 Tb 0.50811 0.25528 0.77792 0.0
C402 C 0.46823 0.28933 0.75699 0.0
C403 C 0.46432 0.2187 0.70201 0.0
C404 C 0.47123 0.18924 0.67105 0.0
C405 C 0.45276 0.20727 0.67125 0.0
C406 C 0.44935 0.22184 0.68661 0.0
C407 C 0.48294 0.20092 0.70174 0.0
C408 C 0.48634 0.18626 0.68641 0.0
C409 C 0.46003 0.234 0.71839 0.0
O410 O 0.51184 0.24144 0.72279 0.0
O411 O 0.51971 0.26471 0.73998 0.0
O412 O 0.52744 0.2245 0.76838 0.0
O413 O 0.50103 0.21304 0.7616 0.0
O414 O 0.52352 0.27583 0.78266 0.0
O415 O 0.52488 0.24678 0.80783 0.0
O416 O 0.48455 0.24282 0.80341 0.0
O417 O 0.45952 0.24892 0.77836 0.0
O418 O 0.47053 0.2777 0.74042 0.0
O419 O 0.47879 0.28196 0.77568 0.0
C420 C 0.52286 0.2542 0.72213 0.0
O421 O 0.46087 0.22614 0.74126 0.0
O422 O 0.46957 0.24847 0.71112 0.0
C423 C 0.52057 0.20922 0.76629 0.0
C424 C 0.52623 0.27578 0.82299 0.0
C425 C 0.52122 0.30054 0.85856 0.0
C426 C 0.54131 0.28581 0.85184 0.0
C427 C 0.54377 0.27357 0.83418 0.0
C428 C 0.50593 0.28982 0.83022 0.0
C429 C 0.50343 0.30211 0.84792 0.0
C430 C 0.52984 0.26428 0.80283 0.0
C431 C 0.46502 0.24479 0.80012 0.0
H432 H 0.44067 0.20989 0.65991 0.0
H433 H 0.43488 0.23548 0.68663 0.0
H434 H 0.49474 0.19833 0.71346 0.0
H435 H 0.50083 0.17266 0.6865 0.0
H436 H 0.55523 0.28398 0.85997 0.0
H437 H 0.55954 0.26272 0.82884 0.0
H438 H 0.4922 0.2917 0.8217 0.0
H439 H 0.48779 0.31342 0.85258 0.0
Tb440 Tb 0.98087 0.74217 0.74623 0.0
Tb441 Tb 0.00755 0.75368 0.78102 0.0
C442 C 0.96852 0.78814 0.75899 0.0
C443 C 0.96404 0.71761 0.70402 0.0
C444 C 0.9685 0.68726 0.67515 0.0
C445 C 0.95348 0.70771 0.67132 0.0
C446 C 0.95126 0.7227 0.68567 0.0
C447 C 0.97951 0.69747 0.70754 0.0
C448 C 0.9817 0.6824 0.69323 0.0
C449 C 0.96035 0.73327 0.71979 0.0
O450 O 0.01216 0.74048 0.72507 0.0
O451 O 0.02031 0.76296 0.74331 0.0
O452 O 0.02733 0.72325 0.7709 0.0
O453 O 0.00112 0.71187 0.7634 0.0
O454 O 0.02253 0.77436 0.78657 0.0
O455 O 0.0234 0.7453 0.8116 0.0
O456 O 0.98376 0.74064 0.80554 0.0
O457 O 0.95917 0.74828 0.77958 0.0
O458 O 0.97124 0.77674 0.74205 0.0
O459 O 0.97834 0.78034 0.77821 0.0
C460 C 0.02338 0.7529 0.72503 0.0
O461 O 0.96033 0.72603 0.7429 0.0
O462 O 0.97079 0.747 0.71233 0.0
C463 C 0.02067 0.70805 0.76809 0.0
C464 C 0.02412 0.7746 0.8272 0.0
C465 C 0.01714 0.79816 0.86473 0.0
C466 C 0.03446 0.79768 0.84582 0.0
C467 C 0.03793 0.78598 0.82735 0.0
C468 C 0.00671 0.77501 0.84589 0.0
C469 C 0.00328 0.78667 0.86455 0.0
C470 C 0.0282 0.7629 0.80702 0.0
C471 C 0.96426 0.74317 0.80158 0.0
H472 H 0.94336 0.71214 0.65727 0.0
H473 H 0.93932 0.73822 0.68263 0.0
H474 H 0.98959 0.69327 0.72161 0.0
H475 H -0.00669 0.66677 0.69679 0.0
H476 H 0.04516 0.80671 0.84496 0.0
H477 H 0.05134 0.78599 0.81297 0.0
H478 H -0.00423 0.76641 0.84602 0.0
H479 H 0.98988 0.78657 0.87888 0.0
Tb480 Tb 0.74797 0.50454 0.27861 0.0
Tb481 Tb 0.73515 0.47877 0.24476 0.0
C482 C 0.70105 0.5173 0.26611 0.0
C483 C 0.7707 0.52143 0.32278 0.0
C484 C 0.79705 0.51529 0.35791 0.0
C485 C 0.77904 0.53358 0.35524 0.0
C486 C 0.766 0.53661 0.3378 0.0
C487 C 0.78854 0.50303 0.32541 0.0
C488 C 0.80169 0.50002 0.34282 0.0
C489 C 0.75663 0.52514 0.3047 0.0
O490 O 0.74977 0.47377 0.30061 0.0
O491 O 0.72664 0.46565 0.28263 0.0
O492 O 0.76606 0.45887 0.25521 0.0
O493 O 0.7785 0.48414 0.26229 0.0
O494 O 0.71336 0.46546 0.23817 0.0
O495 O 0.74413 0.46208 0.2154 0.0
O496 O 0.74844 0.50194 0.21963 0.0
O497 O 0.74169 0.52608 0.24489 0.0
O498 O 0.71298 0.51359 0.28315 0.0
O499 O 0.70837 0.50789 0.24694 0.0
C500 C 0.73726 0.46252 0.30082 0.0
O501 O 0.76599 0.5231 0.28256 0.0
O502 O 0.74139 0.51644 0.31122 0.0
C503 C 0.78186 0.46502 0.25786 0.0
C504 C 0.71509 0.46341 0.19721 0.0
C505 C 0.69276 0.4709 0.15782 0.0
C506 C 0.70667 0.45054 0.16535 0.0
C507 C 0.7177 0.44685 0.18491 0.0
C508 C 0.70188 0.48393 0.18929 0.0
C509 C 0.69077 0.48766 0.16972 0.0
C510 C 0.72565 0.45871 0.21876 0.0
C511 C 0.74621 0.52113 0.22306 0.0
H512 H 0.77523 0.54576 0.36635 0.0
H513 H 0.75226 0.55088 0.33597 0.0
H514 H 0.79226 0.49108 0.31401 0.0
H515 H 0.81537 0.4857 0.34463 0.0
H516 H 0.70882 0.43739 0.15632 0.0
H517 H 0.72798 0.43094 0.19072 0.0
H518 H 0.69977 0.49693 0.19859 0.0
H519 H 0.68005 0.50346 0.1645 0.0
Tb520 Tb 0.75099 0.74731 0.03175 0.0
Tb521 Tb 0.73509 0.73317 0.9893 0.0
C522 C 0.74877 0.70118 0.03582 0.0
C523 C 0.77446 0.77127 0.06766 0.0
C524 C 0.79651 0.79798 0.07304 0.0
C525 C 0.79214 0.7827 0.09255 0.0
C526 C 0.78118 0.76946 0.08985 0.0
C527 C 0.77867 0.78649 0.04811 0.0
C528 C 0.7896 0.79982 0.0508 0.0
C529 C 0.76336 0.75692 0.06522 0.0
O530 O 0.77596 0.74763 1.00084 0.0
O531 O 0.77027 0.72403 0.98198 0.0
O532 O 0.73942 0.76367 0.97379 0.0
O533 O 0.73771 0.77716 1.0079 0.0
O534 O 0.73861 0.71005 0.96852 0.0
O535 O 0.71604 0.74164 0.96158 0.0
O536 O 0.70544 0.74697 0.01293 0.0
O537 O 0.72001 0.74319 0.04725 0.0
O538 O 0.76027 0.71266 0.03816 0.0
O539 O 0.73494 0.70816 0.02029 0.0
C540 C 0.78239 0.7347 0.98487 0.0
O541 O 0.74416 0.76587 0.05895 0.0
O542 O 0.77486 0.74143 0.05336 0.0
C543 C 0.73699 0.77965 0.98454 0.0
C544 C 0.70662 0.71369 0.95451 0.0
C545 C 0.67417 0.69785 0.95044 0.0
C546 C 0.68328 0.7094 0.93014 0.0
C547 C 0.69942 0.71722 0.93218 0.0
C548 C 0.69747 0.70234 0.97492 0.0
C549 C 0.68141 0.69437 0.97286 0.0
C550 C 0.72318 0.72251 0.95629 0.0
C551 C 0.70338 0.74655 0.03643 0.0
H552 H 0.79705 0.7811 0.10996 0.0
H553 H 0.77799 0.75776 0.1051 0.0
H554 H 0.77364 0.78796 0.03079 0.0
H555 H 0.79295 0.81131 0.0354 0.0
H556 H 0.67813 0.71212 0.91262 0.0
H557 H 0.70629 0.72606 0.91631 0.0
H558 H 0.70269 0.69971 0.99239 0.0
H559 H 0.67449 0.6857 0.98883 0.0
Tb560 Tb 0.49575 0.01593 0.4846 0.0
Tb561 Tb 0.48596 0.98372 0.53441 0.0
C562 C 0.45176 0.00691 0.49861 0.0
C563 C 0.51025 0.061 0.44965 0.0
C564 C 0.52426 0.09496 0.45167 0.0
C565 C 0.51842 0.09326 0.43006 0.0
C566 C 0.51146 0.07634 0.42907 0.0
C567 C 0.51558 0.06291 0.47131 0.0
C568 C 0.52261 0.07962 0.4723 0.0
C569 C 0.50321 0.04302 0.44921 0.0
O570 O 0.4788 0.03512 0.51286 0.0
O571 O 0.48926 0.01054 0.54597 0.0
O572 O 0.52068 0.9771 0.52718 0.0
O573 O 0.52165 0.00935 0.50535 0.0
O574 O 0.46839 0.97965 0.56906 0.0
O575 O 0.49335 0.95316 0.55504 0.0
O576 O 0.48782 0.96776 0.50479 0.0
O577 O 0.50796 0.98431 0.47462 0.0
O578 O 0.46706 0.00986 0.48109 0.0
O579 O 0.45505 0.0009 0.52138 0.0
C580 C 0.48249 0.03033 0.53542 0.0
O581 O 0.51713 0.02438 0.45481 0.0
O582 O 0.484 0.04418 0.46082 0.0
C583 C 0.53066 0.99129 0.51867 0.0
C584 C 0.46224 0.94655 0.57746 0.0
C585 C 0.43617 0.92081 0.58207 0.0
C586 C 0.42873 0.94256 0.57271 0.0
C587 C 0.44168 0.95528 0.57032 0.0
C588 C 0.46936 0.92508 0.5878 0.0
C589 C 0.45643 0.91228 0.5901 0.0
C590 C 0.47712 0.95905 0.57188 0.0
C591 C 0.50003 0.96857 0.48362 0.0
H592 H 0.51932 0.10493 0.41393 0.0
H593 H 0.50716 0.07517 0.41229 0.0
H594 H 0.51457 0.05127 0.48746 0.0
H595 H 0.52737 0.08011 0.4891 0.0
H596 H 0.41306 0.94968 0.56676 0.0
H597 H 0.43583 0.9718 0.56222 0.0
H598 H 0.48525 0.91804 0.59323 0.0
H599 H 0.46268 0.89555 0.59718 0.0
Tb600 Tb 0.498 0.51242 0.98381 0.0
Tb601 Tb 0.48233 0.48558 0.03562 0.0
C602 C 0.45333 0.50462 0.99484 0.0
C603 C 0.52023 0.5507 0.94095 0.0
C604 C 0.53895 0.58304 0.93334 0.0
C605 C 0.53801 0.57428 0.91365 0.0
C606 C 0.52855 0.55826 0.91745 0.0
C607 C 0.52158 0.55913 0.96062 0.0
C608 C 0.53073 0.57525 0.95684 0.0
C609 C 0.50973 0.53438 0.94519 0.0
O610 O 0.49257 0.53204 1.01106 0.0
O611 O 0.46848 0.51903 0.0393 0.0
O612 O 0.50988 0.49263 0.04128 0.0
O613 O 0.52643 0.49654 1.00193 0.0
O614 O 0.45761 0.48055 0.06317 0.0
O615 O 0.4907 0.461 0.06476 0.0
O616 O 0.50215 0.46241 0.01238 0.0
O617 O 0.49813 0.48307 0.975 0.0
O618 O 0.46353 0.51863 0.98657 0.0
O619 O 0.46055 0.48806 1.01112 0.0
C620 C 0.47768 0.53381 0.03016 0.0
O621 O 0.52128 0.5152 0.95334 0.0
O622 O 0.49037 0.53944 0.95729 0.0
C623 C 0.52695 0.49324 0.02537 0.0
C624 C 0.46439 0.44418 0.07679 0.0
C625 C 0.45175 0.40805 0.08168 0.0
C626 C 0.45124 0.41645 0.10228 0.0
C627 C 0.45759 0.43441 0.09983 0.0
C628 C 0.46511 0.43574 0.05626 0.0
C629 C 0.45891 0.4178 0.05867 0.0
C630 C 0.47061 0.46327 0.07379 0.0
C631 C 0.50277 0.46442 0.98886 0.0
H632 H 0.54433 0.58002 0.89538 0.0
H633 H 0.52764 0.55185 0.9021 0.0
H634 H 0.51547 0.5533 0.97891 0.0
H635 H 0.53165 0.58144 0.97236 0.0
H636 H 0.44588 0.40919 0.12023 0.0
H637 H 0.45702 0.44076 0.11584 0.0
H638 H 0.4702 0.44323 0.03831 0.0
H639 H 0.4591 0.41197 0.04243 0.0
H640 H 0.01139 0.052 0.02818 0.0
H641 H 0.0093 0.07968 0.05021 0.0
H642 H 0.948 0.07618 0.08983 0.0
H643 H 0.95015 0.04805 0.06825 0.0
H644 H 0.98043 0.11888 0.05419 0.0
H645 H 0.98266 0.06706 0.14396 0.0
H646 H 0.9884 0.05676 0.11595 0.0
H647 H 0.96099 0.06855 0.129 0.0
C648 C -0.00263 0.05715 0.04148 0.0
C649 C 0.98101 0.04764 0.0466 0.0
C650 C -0.00377 0.073 0.05407 0.0
C651 C 0.97872 0.07969 0.07201 0.0
C652 C 0.96192 0.07087 0.07649 0.0
H653 H 0.9451 0.19237 0.13774 0.0
H654 H 0.94781 0.16629 0.11306 0.0
C655 C 0.96311 0.0549 0.06401 0.0
C656 C 0.97825 0.09569 0.0862 0.0
H657 H 0.97562 0.10375 0.14378 0.0
C658 C 0.97942 0.11558 0.07378 0.0
C659 C 0.97738 0.09119 0.11171 0.0
C660 C 0.97751 0.06967 0.12595 0.0
C661 C 0.97935 0.13124 0.08622 0.0
C662 C 0.97759 0.12703 0.11182 0.0
C663 C 0.97679 0.10702 0.12418 0.0
C664 C 0.97639 0.14317 0.12622 0.0
C665 C 0.98157 0.15196 0.07178 0.0
C666 C 0.99128 0.1387 0.14225 0.0
C667 C 0.98954 0.15344 0.15677 0.0
C668 C 0.9728 0.17294 0.15561 0.0
C669 C 0.95805 0.17743 0.13932 0.0
C670 C 0.95974 0.16265 0.12492 0.0
H671 H 0.98918 0.15028 0.05279 0.0
H672 H 0.96534 0.16392 0.07121 0.0
H673 H 0.99132 0.15807 0.08014 0.0
H674 H 0.00417 0.12369 0.14368 0.0
H675 H 0.001 0.14931 0.16934 0.0
H676 H 0.79377 0.23168 0.43651 0.0
H677 H 0.82693 0.23162 0.40911 0.0
H678 H 0.85778 0.22946 0.46915 0.0
H679 H 0.82444 0.22954 0.49699 0.0
H680 H 0.84772 0.26379 0.40371 0.0
H681 H 0.90119 0.1817 0.43089 0.0
H682 H 0.87219 0.18889 0.43747 0.0
H683 H 0.88665 0.19716 0.4545 0.0
C684 C 0.8076 0.23096 0.44407 0.0
C685 C 0.80636 0.23062 0.46905 0.0
C686 C 0.82658 0.23095 0.42831 0.0
C687 C 0.84484 0.23043 0.43708 0.0
C688 C 0.84393 0.2296 0.46204 0.0
H689 H 0.9697 0.2325 0.35057 0.0
H690 H 0.94096 0.23074 0.38472 0.0
C691 C 0.82484 0.22968 0.47792 0.0
C692 C 0.86428 0.23198 0.41966 0.0
H693 H 0.91573 0.20352 0.39899 0.0
C694 C 0.86264 0.25067 0.40277 0.0
C695 C 0.88377 0.21491 0.41863 0.0
C696 C 0.8862 0.19443 0.43621 0.0
C697 C 0.87982 0.25263 0.38458 0.0
C698 C 0.89903 0.23523 0.38283 0.0
C699 C 0.90096 0.21679 0.40026 0.0
C700 C 0.91674 0.23561 0.36231 0.0
C701 C 0.87723 0.27337 0.36739 0.0
C702 C 0.91282 0.23845 0.33842 0.0
C703 C 0.92912 0.23952 0.31892 0.0
C704 C 0.94985 0.23757 0.32284 0.0
C705 C 0.95393 0.23413 0.34686 0.0
C706 C 0.93753 0.23311 0.36641 0.0
H707 H 0.86479 0.28676 0.37546 0.0
H708 H 0.89264 0.27702 0.36224 0.0
H709 H 0.87199 0.27225 0.35067 0.0
H710 H 0.89706 0.23991 0.33482 0.0
H711 H 0.92539 0.24197 0.30073 0.0
H712 H 0.74729 0.01965 0.67501 0.0
H713 H 0.75092 0.04748 0.64033 0.0
H714 H 0.74684 0.08911 0.68923 0.0
H715 H 0.7433 0.06165 0.72376 0.0
H716 H 0.72184 0.09038 0.63013 0.0
H717 H 0.80238 0.08953 0.64147 0.0
H718 H 0.79177 0.06799 0.65537 0.0
H719 H 0.78332 0.09166 0.66876 0.0
C720 C 0.74727 0.03469 0.67837 0.0
C721 C 0.7451 0.03831 0.70225 0.0
C722 C 0.7493 0.0506 0.65852 0.0
C723 C 0.74948 0.07028 0.66216 0.0
C724 C 0.74714 0.07394 0.68594 0.0
H725 H 0.75216 0.19288 0.58897 0.0
H726 H 0.75242 0.15972 0.61601 0.0
C727 C 0.745 0.05819 0.70571 0.0
C728 C 0.75167 0.08732 0.64136 0.0
H729 H 0.78234 0.11972 0.61611 0.0
C730 C 0.73522 0.09661 0.62677 0.0
C731 C 0.76914 0.09543 0.63699 0.0
C732 C 0.78778 0.08553 0.65131 0.0
C733 C 0.73521 0.11449 0.60878 0.0
C734 C 0.75234 0.12306 0.605 0.0
C735 C 0.76917 0.11324 0.61903 0.0
C736 C 0.75242 0.14305 0.58789 0.0
C737 C 0.71636 0.12468 0.59481 0.0
C738 C 0.75261 0.14476 0.56287 0.0
C739 C 0.75244 0.16386 0.54721 0.0
C740 C 0.75217 0.1816 0.55625 0.0
C741 C 0.75233 0.17964 0.58126 0.0
C742 C 0.75249 0.16063 0.59683 0.0
H743 H 0.70249 0.11892 0.60335 0.0
H744 H 0.71097 0.14222 0.59341 0.0
H745 H 0.72134 0.12079 0.57618 0.0
H746 H 0.75297 0.13131 0.55544 0.0
H747 H 0.75238 0.16475 0.52807 0.0
H748 H 0.94815 0.03074 0.95274 0.0
H749 H 0.92028 0.03454 0.92882 0.0
H750 H 0.89486 0.99227 0.98518 0.0
H751 H 0.92273 0.98812 1.00907 0.0
H752 H 0.9023 0.98113 0.93973 0.0
H753 H 0.85555 0.06654 0.93793 0.0
H754 H 0.88398 0.06124 0.92835 0.0
H755 H 0.8743 0.05209 0.95914 0.0
C756 C 0.93644 0.0225 0.96022 0.0
C757 C 0.9377 0.00911 0.98281 0.0
C758 C 0.92048 0.02475 0.94655 0.0
C759 C 0.90542 0.01382 0.95534 0.0
C760 C 0.90633 0.00086 0.97811 0.0
H761 H 0.79028 0.02926 0.89719 0.0
H762 H 0.81653 0.02731 0.92239 0.0
C763 C 0.92227 -0.00145 0.99174 0.0
C764 C 0.88952 0.01478 0.94025 0.0
H765 H 0.84719 0.04849 0.912 0.0
C766 C 0.8902 -0.00416 0.93371 0.0
C767 C 0.87367 0.03397 0.93264 0.0
C768 C 0.87163 0.0546 0.94002 0.0
C769 C 0.87555 -0.00441 0.91954 0.0
C770 C 0.86006 0.01486 0.91139 0.0
C771 C 0.85922 0.03377 0.91814 0.0
C772 C 0.84434 0.01568 0.89614 0.0
C773 C 0.87654 0.97465 0.91378 0.0
C774 C 0.85133 0.00986 0.87301 0.0
C775 C 0.83638 0.01097 0.85856 0.0
C776 C 0.81418 0.01809 0.86694 0.0
C777 C 0.80727 0.02391 0.89014 0.0
C778 C 0.82222 0.02276 0.90457 0.0
H779 H 0.88553 0.96099 0.92629 0.0
H780 H 0.86012 0.97375 0.91485 0.0
H781 H 0.88494 0.97309 0.89505 0.0
H782 H 0.86833 0.00475 0.866 0.0
H783 H 0.84219 0.00672 0.84062 0.0
H784 H 0.06722 0.97726 0.01687 0.0
H785 H 0.09831 0.97316 0.0359 0.0
H786 H 0.05887 0.97328 0.10594 0.0
H787 H 0.02791 0.97696 0.08729 0.0
H788 H 0.10195 0.00101 0.06198 0.0
H789 H 0.11138 0.92217 0.11907 0.0
H790 H 0.0954 0.93169 0.09459 0.0
H791 H 0.08441 0.93998 0.12368 0.0
C792 C 0.06525 0.97603 0.03638 0.0
C793 C 0.04509 0.97732 0.05058 0.0
C794 C 0.08301 0.97377 0.04719 0.0
C795 C 0.08095 0.97259 0.07235 0.0
C796 C 0.06093 0.97365 0.08656 0.0
H797 H 0.14956 0.97896 0.17928 0.0
H798 H 0.12358 0.97924 0.15468 0.0
C799 C 0.04321 0.97588 0.07582 0.0
C800 C 0.09927 0.97164 0.08376 0.0
H801 H 0.12857 0.94398 0.12958 0.0
C802 C 0.10802 0.98839 0.07651 0.0
C803 C 0.10715 0.95513 0.10267 0.0
C804 C 0.09925 0.93612 0.1103 0.0
C805 C 0.12382 0.98953 0.08845 0.0
C806 C 0.13106 0.97343 0.10795 0.0
C807 C 0.12279 0.95638 0.11472 0.0
C808 C 0.1467 0.97432 0.12217 0.0
C809 C 0.13209 0.00829 0.08078 0.0
C810 C 0.16824 0.97154 0.11192 0.0
C811 C 0.18312 0.97142 0.12591 0.0
C812 C 0.17665 0.97409 0.15036 0.0
C813 C 0.15496 0.97716 0.16042 0.0
C814 C 0.14015 0.97718 0.14647 0.0
H815 H 0.12239 0.02102 0.06798 0.0
H816 H 0.13198 0.01501 0.09685 0.0
H817 H 0.14898 0.00301 0.07172 0.0
H818 H 0.1736 0.96912 0.09323 0.0
H819 H 0.1997 0.96914 0.11764 0.0
H820 H -0.00461 0.42061 0.51891 0.0
H821 H -0.00189 0.39104 0.49938 0.0
H822 H 0.00246 0.43023 0.42929 0.0
H823 H -0.00058 0.45993 0.44857 0.0
H824 H 0.97349 0.40832 0.43493 0.0
H825 H 0.05201 0.35445 0.4619 0.0
H826 H 0.03163 0.3637 0.48649 0.0
H827 H 0.0422 0.38226 0.46451 0.0
C828 C -0.0029 0.4229 0.49933 0.0
C829 C -0.00269 0.44263 0.4853 0.0
C830 C -0.0013 0.40595 0.4882 0.0
C831 C 0.00075 0.40837 0.46287 0.0
C832 C 0.00093 0.42802 0.44886 0.0
H833 H 0.04499 0.3194 0.36419 0.0
H834 H 0.03952 0.34525 0.39034 0.0
C835 C -0.00076 0.44498 0.45994 0.0
C836 C 0.00238 0.39062 0.45077 0.0
H837 H 0.03442 0.34106 0.4404 0.0
C838 C 0.98674 0.39355 0.4362 0.0
C839 C 0.01977 0.37145 0.45237 0.0
C840 C 0.03749 0.36775 0.46698 0.0
C841 C 0.98821 0.37797 0.42286 0.0
C842 C 0.00558 0.35879 0.42449 0.0
C843 C 0.02103 0.35572 0.43935 0.0
C844 C 0.00893 0.3424 0.40951 0.0
C845 C 0.97161 0.38253 0.40642 0.0
C846 C -0.00634 0.33198 0.41184 0.0
C847 C -0.00325 0.31713 0.39687 0.0
C848 C 0.01529 0.3123 0.37951 0.0
C849 C 0.0307 0.32251 0.3776 0.0
C850 C 0.02756 0.33736 0.39247 0.0
H851 H 0.96216 0.39966 0.40325 0.0
H852 H 0.97937 0.37746 0.38863 0.0
H853 H 0.96024 0.37353 0.4149 0.0
H854 H 0.97936 0.33535 0.4252 0.0
H855 H 0.98473 0.30934 0.39897 0.0
H856 H 0.6913 0.27547 0.57355 0.0
H857 H 0.65859 0.27854 0.60306 0.0
H858 H 0.64408 0.23347 0.57243 0.0
H859 H 0.67655 0.23048 0.54262 0.0
H860 H 0.60797 0.26845 0.58301 0.0
H861 H 0.65309 0.23247 0.66142 0.0
H862 H 0.65948 0.25508 0.64294 0.0
H863 H 0.66592 0.23121 0.63048 0.0
C864 C 0.6811 0.2663 0.57294 0.0
C865 C 0.68669 0.2526 0.55578 0.0
C866 C 0.66246 0.26799 0.58995 0.0
C867 C 0.64911 0.25593 0.59024 0.0
C868 C 0.65422 0.24282 0.57262 0.0
H869 H 0.53545 0.23387 0.68252 0.0
H870 H 0.56524 0.2353 0.64982 0.0
C871 C 0.67283 0.24113 0.5556 0.0
C872 C 0.63006 0.25662 0.60919 0.0
H873 H 0.61517 0.24603 0.67035 0.0
C874 C 0.60952 0.26352 0.60211 0.0
C875 C 0.63213 0.25013 0.6341 0.0
C876 C 0.65384 0.24162 0.64276 0.0
C877 C 0.59096 0.26443 0.6193 0.0
C878 C 0.59305 0.25793 0.6442 0.0
C879 C 0.61358 0.25108 0.65126 0.0
C880 C 0.57422 0.25789 0.6633 0.0
C881 C 0.56925 0.2727 0.6107 0.0
C882 C 0.56951 0.2699 0.68195 0.0
C883 C 0.55257 0.26904 0.70075 0.0
C884 C 0.54003 0.25603 0.7014 0.0
C885 C 0.54467 0.24416 0.68255 0.0
C886 C 0.56163 0.24504 0.66374 0.0
H887 H 0.56985 0.28215 0.5922 0.0
H888 H 0.56397 0.25908 0.61014 0.0
H889 H 0.55699 0.28272 0.62323 0.0
H890 H 0.57908 0.27984 0.68205 0.0
H891 H 0.54952 0.27837 0.71496 0.0
H892 H 0.71745 0.93177 0.80689 0.0
H893 H 0.71755 0.9025 0.84062 0.0
H894 H 0.74966 0.92731 0.87943 0.0
H895 H 0.74979 0.95664 0.84573 0.0
H896 H 0.75783 0.87278 0.86003 0.0
H897 H 0.6962 0.916 0.92875 0.0
H898 H 0.69701 0.9259 0.89662 0.0
H899 H 0.71668 0.92746 0.91255 0.0
C900 C 0.72437 0.93118 0.82266 0.0
C901 C 0.7336 0.94664 0.82353 0.0
C902 C 0.72443 0.91439 0.84193 0.0
C903 C 0.73345 0.91282 0.86261 0.0
C904 C 0.7424 0.92835 0.86376 0.0
H905 H 0.74474 0.81444 0.99354 0.0
H906 H 0.74459 0.8474 0.96506 0.0
C907 C 0.74252 0.94506 0.8444 0.0
C908 C 0.73445 0.8943 0.88236 0.0
H909 H 0.71282 0.87932 0.94047 0.0
C910 C 0.74804 0.87421 0.87763 0.0
C911 C 0.72191 0.89625 0.90544 0.0
C912 C 0.707 0.91751 0.9113 0.0
C913 C 0.74925 0.85597 0.89524 0.0
C914 C 0.73601 0.85772 0.91803 0.0
C915 C 0.72287 0.87793 0.92301 0.0
C916 C 0.73479 0.83857 0.93615 0.0
C917 C 0.76485 0.83497 0.88927 0.0
C918 C 0.72861 0.82302 0.92973 0.0
C919 C 0.72878 0.80429 0.9458 0.0
C920 C 0.73483 0.80068 0.96892 0.0
C921 C 0.73999 0.81671 0.97589 0.0
C922 C 0.73997 0.83552 0.95961 0.0
H923 H 0.77827 0.83721 0.87495 0.0
H924 H 0.77175 0.8247 0.90553 0.0
H925 H 0.75628 0.8266 0.88238 0.0
H926 H 0.72394 0.82523 0.91206 0.0
H927 H 0.72438 0.79247 0.93991 0.0
H928 H 0.19065 0.27907 0.07735 0.0
H929 H 0.15871 0.27937 0.10752 0.0
H930 H 0.14512 0.23657 0.07226 0.0
H931 H 0.17708 0.23592 0.04224 0.0
H932 H 0.11494 0.29046 0.10284 0.0
H933 H 0.14756 0.20546 0.14207 0.0
H934 H 0.16417 0.21988 0.12191 0.0
H935 H 0.14721 0.21019 0.10997 0.0
C936 C 0.18081 0.26981 0.0759 0.0
C937 C 0.18658 0.25733 0.05744 0.0
C938 C 0.16256 0.27 0.09318 0.0
C939 C 0.14977 0.25767 0.09242 0.0
C940 C 0.15503 0.24583 0.07352 0.0
H941 H 0.03829 0.23109 0.18492 0.0
H942 H 0.06759 0.23394 0.15204 0.0
C943 C 0.17326 0.24559 0.05627 0.0
C944 C 0.13112 0.25694 0.11155 0.0
H945 H 0.11113 0.22326 0.15608 0.0
C946 C 0.11412 0.27579 0.11454 0.0
C947 C 0.13009 0.23778 0.12682 0.0
C948 C 0.1483 0.2172 0.12525 0.0
C949 C 0.09593 0.27593 0.13211 0.0
C950 C 0.0949 0.25676 0.14733 0.0
C951 C 0.1119 0.23792 0.14433 0.0
C952 C 0.0765 0.25587 0.16678 0.0
C953 C 0.0778 0.29652 0.13391 0.0
C954 C 0.07183 0.26717 0.18607 0.0
C955 C 0.0551 0.26559 0.20492 0.0
C956 C 0.04273 0.25257 0.20493 0.0
C957 C 0.04741 0.24133 0.1855 0.0
C958 C 0.06418 0.24291 0.16668 0.0
H959 H 0.07843 0.30829 0.1171 0.0
H960 H 0.06191 0.29387 0.13748 0.0
H961 H 0.07911 0.30344 0.14916 0.0
H962 H 0.08141 0.27692 0.18681 0.0
H963 H 0.05206 0.27438 0.21962 0.0
H964 H 0.7131 0.43574 0.30828 0.0
H965 H 0.71259 0.40607 0.34131 0.0
H966 H 0.7587 0.41955 0.37268 0.0
H967 H 0.75907 0.44943 0.34003 0.0
H968 H 0.74613 0.37048 0.35324 0.0
H969 H 0.71357 0.41427 0.43111 0.0
H970 H 0.71244 0.4274 0.40009 0.0
H971 H 0.73695 0.41969 0.41293 0.0
C972 C 0.72297 0.43258 0.32234 0.0
C973 C 0.73604 0.44511 0.32148 0.0
C974 C 0.72268 0.41555 0.34121 0.0
C975 C 0.73536 0.41072 0.35973 0.0
C976 C 0.74838 0.42323 0.35897 0.0
H977 H 0.7645 0.30664 0.4809 0.0
H978 H 0.7629 0.33868 0.45064 0.0
C979 C 0.74865 0.44028 0.34014 0.0
C980 C 0.73576 0.39198 0.37912 0.0
H981 H 0.72743 0.37663 0.44057 0.0
C982 C 0.7419 0.37186 0.37232 0.0
C983 C 0.73037 0.39373 0.40406 0.0
C984 C 0.72277 0.41495 0.41254 0.0
C985 C 0.74308 0.35348 0.38971 0.0
C986 C 0.73766 0.35523 0.41462 0.0
C987 C 0.73161 0.3753 0.42147 0.0
C988 C 0.73791 0.33638 0.43374 0.0
C989 C 0.75054 0.33224 0.38127 0.0
C990 C 0.72404 0.32472 0.43467 0.0
C991 C 0.72486 0.30645 0.45194 0.0
C992 C 0.73954 0.29944 0.46877 0.0
C993 C 0.75301 0.31151 0.46823 0.0
C994 C 0.75213 0.32985 0.45094 0.0
H995 H 0.75915 0.33297 0.36241 0.0
H996 H 0.76137 0.31993 0.39333 0.0
H997 H 0.73634 0.32724 0.38174 0.0
H998 H 0.71265 0.32966 0.42188 0.0
H999 H 0.71416 0.29767 0.45182 0.0
H1000 H 0.55294 0.95745 0.5492 0.0
H1001 H 0.58406 0.95471 0.5672 0.0
H1002 H 0.58617 0.01503 0.52508 0.0
H1003 H 0.5549 0.0181 0.50713 0.0
H1004 H 0.62654 0.95651 0.54673 0.0
H1005 H 0.57794 0.02364 0.59626 0.0
H1006 H 0.56578 0.01037 0.58199 0.0
H1007 H 0.57861 0.029 0.56393 0.0
C1008 C 0.56016 0.97003 0.5435 0.0
C1009 C 0.55125 0.98812 0.52694 0.0
C1010 C 0.57796 0.96841 0.55379 0.0
C1011 C 0.58712 0.98484 0.54776 0.0
C1012 C 0.57906 0.00236 0.53026 0.0
H1013 H 0.6793 0.00201 0.624 0.0
H1014 H 0.6564 0.00665 0.59352 0.0
C1015 C 0.56124 0.00402 0.51996 0.0
C1016 C 0.60424 0.98411 0.56092 0.0
H1017 H 0.61394 0.00715 0.60286 0.0
C1018 C 0.6239 0.96767 0.55886 0.0
C1019 C 0.60069 -0.00124 0.57665 0.0
C1020 C 0.57959 0.01637 0.58008 0.0
C1021 C 0.64004 0.96527 0.57245 0.0
C1022 C 0.6362 0.97946 0.58882 0.0
C1023 C 0.61683 -0.00367 0.59026 0.0
C1024 C 0.65125 0.97616 0.60602 0.0
C1025 C 0.66102 0.9475 0.56927 0.0
C1026 C 0.65574 0.95759 0.62322 0.0
C1027 C 0.66864 0.95496 0.64066 0.0
C1028 C 0.67724 0.97092 0.64137 0.0
C1029 C 0.67279 0.9895 0.62403 0.0
C1030 C 0.65984 0.99212 0.60654 0.0
H1031 H 0.66407 0.94254 0.55125 0.0
H1032 H 0.67479 0.95223 0.57127 0.0
H1033 H 0.66025 0.93354 0.58332 0.0
H1034 H 0.64876 0.94535 0.62358 0.0
H1035 H 0.67135 0.94067 0.65407 0.0
H1036 H 0.98533 0.92387 0.02254 0.0
H1037 H 0.98635 0.89419 1.00418 0.0
H1038 H 0.0188 0.91942 0.93705 0.0
H1039 H 0.01718 0.94937 0.95494 0.0
H1040 H 0.98554 0.90984 0.92955 0.0
H1041 H 0.03512 0.84183 0.98837 0.0
H1042 H 0.01151 0.85846 1.00435 0.0
H1043 H 0.03276 0.86898 0.98873 0.0
C1044 C 0.99292 0.92293 1.00397 0.0
C1045 C 0.00112 0.939 0.99017 0.0
C1046 C -0.00642 0.90589 0.99352 0.0
C1047 C 0.00283 0.90445 0.96928 0.0
C1048 C 0.01153 0.92021 0.95576 0.0
H1049 H 0.04729 0.80354 0.88647 0.0
H1050 H 0.04159 0.82847 0.9138 0.0
C1051 C 0.01062 0.93732 0.96604 0.0
C1052 C 0.00258 0.88729 0.9573 0.0
H1053 H 0.02067 0.8336 0.95876 0.0
C1054 C 0.99316 0.89315 0.93598 0.0
C1055 C 0.01258 0.86554 0.96569 0.0
C1056 C 0.02375 0.85826 0.98791 0.0
C1057 C -0.006 0.87799 0.92241 0.0
C1058 C 0.00392 0.85621 0.93081 0.0
C1059 C 0.01289 0.85028 0.95247 0.0
C1060 C 0.00686 0.8396 0.91624 0.0
C1061 C 0.98514 0.8856 0.8986 0.0
C1062 C 0.98919 0.83703 0.90907 0.0
C1063 C 0.99243 0.82308 0.89294 0.0
C1064 C 0.0134 0.81121 0.88395 0.0
C1065 C 0.03095 0.81285 0.89246 0.0
C1066 C 0.02771 0.82694 0.90833 0.0
H1067 H 0.98297 0.90273 0.89206 0.0
H1068 H -0.00405 0.87649 0.8844 0.0
H1069 H 0.96917 0.88332 0.90101 0.0
H1070 H 0.97291 0.84624 0.91542 0.0
H1071 H 0.97852 0.82226 0.88681 0.0
H1072 H 0.06389 0.07756 0.98541 0.0
H1073 H 0.08579 0.09957 0.9859 0.0
H1074 H 0.12843 0.07549 0.92356 0.0
H1075 H 0.10633 0.05354 0.9228 0.0
H1076 H 0.12802 0.08797 0.99136 0.0
H1077 H 0.11327 0.13935 0.90251 0.0
H1078 H 0.09771 0.12196 0.91738 0.0
H1079 H 0.12412 0.11147 0.90108 0.0
C1080 C 0.07799 0.07688 0.97187 0.0
C1081 C 0.08345 0.06385 0.95406 0.0
C1082 C 0.09044 0.08949 0.97213 0.0
C1083 C 0.10856 0.08933 0.9546 0.0
C1084 C 0.11423 0.07617 0.93694 0.0
H1085 H 0.20582 0.14327 0.96764 0.0
H1086 H 0.18672 0.11888 0.96598 0.0
C1087 C 0.10166 0.06363 0.93655 0.0
C1088 C 0.12154 0.10286 0.95516 0.0
H1089 H 0.13853 0.14396 0.92255 0.0
C1090 C 0.13036 0.1002 0.97631 0.0
C1091 C 0.12429 0.11896 0.93561 0.0
C1092 C 0.1142 0.1233 0.91294 0.0
C1093 C 0.14183 0.11329 0.97851 0.0
C1094 C 0.14497 0.12909 0.95877 0.0
C1095 C 0.13621 0.1317 0.93758 0.0
C1096 C 0.15662 0.14364 0.95998 0.0
C1097 C 0.14988 0.11049 1.0022 0.0
C1098 C 0.14615 0.16562 0.95663 0.0
C1099 C 0.15707 0.17954 0.95733 0.0
C1100 C 0.17864 0.17171 0.96142 0.0
C1101 C 0.1891 0.14968 0.96481 0.0
C1102 C 0.17822 0.13576 0.96391 0.0
H1103 H 0.14133 0.10172 0.01731 0.0
H1104 H 0.16728 0.10124 1.00048 0.0
H1105 H 0.14787 0.12607 1.007 0.0
H1106 H 0.12948 0.17201 0.95358 0.0
H1107 H 0.14858 0.19644 0.95487 0.0
H1108 H 0.68152 0.54148 0.3019 0.0
H1109 H 0.64788 0.57091 0.3026 0.0
H1110 H 0.63813 0.55995 0.23495 0.0
H1111 H 0.67205 0.53061 0.23384 0.0
H1112 H 0.63417 0.60141 0.23444 0.0
H1113 H 0.58532 0.57281 0.31692 0.0
H1114 H 0.61123 0.57162 0.32228 0.0
H1115 H 0.6095 0.55537 0.30234 0.0
C1116 C 0.67211 0.54507 0.28732 0.0
C1117 C 0.67953 0.53365 0.2678 0.0
C1118 C 0.65276 0.56185 0.28785 0.0
C1119 C 0.64032 0.56745 0.26902 0.0
C1120 C 0.64742 0.5558 0.24976 0.0
H1121 H 0.52811 0.6768 0.23513 0.0
H1122 H 0.55643 0.64244 0.23615 0.0
C1123 C 0.66681 0.53902 0.24918 0.0
C1124 C 0.6209 0.58652 0.26846 0.0
H1125 H 0.57278 0.60996 0.30133 0.0
C1126 C 0.62062 0.60318 0.24891 0.0
C1127 C 0.60329 0.58883 0.28741 0.0
C1128 C 0.6022 0.57112 0.30831 0.0
C1129 C 0.60353 0.62233 0.24815 0.0
C1130 C 0.58611 0.62478 0.26731 0.0
C1131 C 0.5862 0.60803 0.2867 0.0
C1132 C 0.56793 0.64485 0.26774 0.0
C1133 C 0.60458 0.64007 0.22726 0.0
C1134 C 0.56457 0.65727 0.28566 0.0
C1135 C 0.54835 0.67692 0.2852 0.0
C1136 C 0.53511 0.68446 0.26686 0.0
C1137 C 0.53807 0.67159 0.24944 0.0
C1138 C 0.55431 0.65196 0.24991 0.0
H1139 H 0.62104 0.63733 0.21687 0.0
H1140 H 0.59347 0.64122 0.21469 0.0
H1141 H 0.59946 0.65552 0.2338 0.0
H1142 H 0.57489 0.65199 0.29964 0.0
H1143 H 0.54649 0.68636 0.29895 0.0
H1144 H 0.32044 0.82529 0.53385 0.0
H1145 H 0.34352 0.8451 0.53764 0.0
H1146 H 0.35877 0.80478 0.60545 0.0
H1147 H 0.33628 0.78441 0.60141 0.0
H1148 H 0.33695 0.86705 0.57602 0.0
H1149 H 0.41796 0.80626 0.56873 0.0
H1150 H 0.39512 0.8035 0.55919 0.0
H1151 H 0.39775 0.79818 0.59081 0.0
C1152 C 0.3291 0.82032 0.54928 0.0
C1153 C 0.32656 0.80328 0.56733 0.0
C1154 C 0.34215 0.83174 0.5515 0.0
C1155 C 0.35295 0.82626 0.57171 0.0
C1156 C 0.35081 0.80903 0.58953 0.0
H1157 H 0.42951 0.88818 0.6173 0.0
H1158 H 0.40895 0.86487 0.6162 0.0
C1159 C 0.33778 0.79757 0.58732 0.0
C1160 C 0.36526 0.83952 0.57487 0.0
H1161 H 0.41556 0.83885 0.57928 0.0
C1162 C 0.35414 0.86091 0.5767 0.0
C1163 C 0.38763 0.83134 0.57595 0.0
C1164 C 0.40041 0.80861 0.57337 0.0
C1165 C 0.36484 0.87444 0.5795 0.0
C1166 C 0.38725 0.86637 0.58017 0.0
C1167 C 0.39834 0.84489 0.5788 0.0
C1168 C 0.39962 0.88031 0.58099 0.0
C1169 C 0.35209 0.89724 0.58181 0.0
C1170 C 0.40132 0.89643 0.56142 0.0
C1171 C 0.41307 0.90962 0.56191 0.0
C1172 C 0.42339 0.90692 0.58201 0.0
C1173 C 0.42182 0.89059 0.60154 0.0
C1174 C 0.41006 0.87733 0.60098 0.0
H1175 H 0.33459 0.89949 0.58714 0.0
H1176 H 0.35778 0.90269 0.59539 0.0
H1177 H 0.35428 0.90745 0.56408 0.0
H1178 H 0.39371 0.89866 0.54563 0.0
H1179 H 0.41441 0.9217 0.54632 0.0
H1180 H 0.01258 0.67007 0.77483 0.0
H1181 H 0.03918 0.63434 0.77697 0.0
H1182 H 0.09047 0.66181 0.76337 0.0
H1183 H 0.06425 0.69711 0.76215 0.0
H1184 H 0.07151 0.61497 0.74539 0.0
H1185 H 0.10579 0.61982 0.82285 0.0
H1186 H 0.08116 0.6391 0.81388 0.0
H1187 H 0.10691 0.64168 0.79912 0.0
C1188 C 0.02954 0.66841 0.77247 0.0
C1189 C 0.03629 0.68638 0.76878 0.0
C1190 C 0.04471 0.64802 0.77367 0.0
C1191 C 0.06681 0.64534 0.77103 0.0
C1192 C 0.07351 0.66337 0.76639 0.0
H1193 H 0.17842 0.54628 0.72406 0.0
H1194 H 0.14399 0.57458 0.72804 0.0
C1195 C 0.05845 0.6836 0.76557 0.0
C1196 C 0.08316 0.6239 0.77258 0.0
H1197 H 0.12866 0.59425 0.79742 0.0
C1198 C 0.08382 0.61024 0.75706 0.0
C1199 C 0.0989 0.61739 0.78827 0.0
C1200 C 0.098 0.63019 0.80715 0.0
C1201 C 0.10051 0.59085 0.75582 0.0
C1202 C 0.1174 0.58534 0.76984 0.0
C1203 C 0.116 0.59849 0.78632 0.0
C1204 C 0.13718 0.5667 0.76711 0.0
C1205 C 0.09974 0.57654 0.73953 0.0
C1206 C 0.14522 0.55298 0.78771 0.0
C1207 C 0.16529 0.53726 0.78551 0.0
C1208 C 0.17754 0.53465 0.76261 0.0
C1209 C 0.16916 0.54775 0.74191 0.0
C1210 C 0.14934 0.56384 0.74417 0.0
H1211 H 0.08284 0.5786 0.73791 0.0
H1212 H 0.10791 0.58081 0.72108 0.0
H1213 H 0.1078 0.55957 0.74633 0.0
H1214 H 0.13624 0.55482 0.80562 0.0
H1215 H 0.17135 0.52732 0.80176 0.0
H1216 H 0.83181 0.31384 0.53975 0.0
H1217 H 0.85691 0.33049 0.54579 0.0
H1218 H 0.87277 0.28398 0.60951 0.0
H1219 H 0.84775 0.26712 0.60351 0.0
H1220 H 0.86045 0.32521 0.61771 0.0
H1221 H 0.92259 0.31337 0.53676 0.0
H1222 H 0.89571 0.32431 0.52927 0.0
H1223 H 0.90421 0.29806 0.5465 0.0
C1224 C 0.84104 0.30683 0.55469 0.0
C1225 C 0.83775 0.28923 0.57121 0.0
C1226 C 0.85541 0.31634 0.5581 0.0
C1227 C 0.86686 0.30831 0.57795 0.0
C1228 C 0.86412 0.29035 0.59405 0.0
H1229 H 0.95711 0.36973 0.59612 0.0
H1230 H 0.94191 0.34181 0.59569 0.0
C1231 C 0.84975 0.28083 0.59066 0.0
C1232 C 0.87995 0.31996 0.58316 0.0
H1233 H 0.92023 0.34124 0.55783 0.0
C1234 C 0.87376 0.32843 0.60481 0.0
C1235 C 0.89746 0.32391 0.56645 0.0
C1236 C 0.90555 0.31425 0.54356 0.0
C1237 C 0.88387 0.34172 0.60957 0.0
C1238 C 0.90038 0.34682 0.59211 0.0
C1239 C 0.9074 0.33742 0.57109 0.0
C1240 C 0.90937 0.36316 0.59437 0.0
C1241 C 0.8765 0.35055 0.63302 0.0
C1242 C 0.89604 0.38429 0.59385 0.0
C1243 C 0.90463 0.40018 0.59406 0.0
C1244 C 0.92672 0.3952 0.59477 0.0
C1245 C 0.93998 0.37394 0.59585 0.0
C1246 C 0.93138 0.35804 0.59547 0.0
H1247 H 0.86844 0.34059 0.64713 0.0
H1248 H 0.89026 0.35175 0.64002 0.0
H1249 H 0.86476 0.36671 0.6298 0.0
H1250 H 0.87906 0.38858 0.59262 0.0
H1251 H 0.89404 0.41642 0.59334 0.0
H1252 H 0.30863 0.94915 0.29445 0.0
H1253 H 0.34302 0.92073 0.29123 0.0
H1254 H 0.35116 0.93873 0.21341 0.0
H1255 H 0.31615 0.96645 0.21652 0.0
H1256 H 0.35804 0.89909 0.22327 0.0
H1257 H 0.40445 0.9165 0.28072 0.0
H1258 H 0.37923 0.91492 0.29776 0.0
H1259 H 0.37963 0.93545 0.27178 0.0
C1260 C 0.31797 0.94731 0.27669 0.0
C1261 C 0.30971 0.95998 0.25572 0.0
C1262 C 0.33776 0.93114 0.27487 0.0
C1263 C 0.34999 0.92772 0.25209 0.0
C1264 C 0.3421 0.94102 0.2312 0.0
H1265 H 0.47414 0.82385 0.24571 0.0
H1266 H 0.44762 0.8596 0.24263 0.0
C1267 C 0.3221 0.95687 0.23298 0.0
C1268 C 0.36963 0.90888 0.24987 0.0
H1269 H 0.41557 0.87982 0.27448 0.0
C1270 C 0.37078 0.89515 0.23419 0.0
C1271 C 0.38658 0.90375 0.26369 0.0
C1272 C 0.38752 0.9186 0.2792 0.0
C1273 C 0.38773 0.87607 0.23283 0.0
C1274 C 0.4036 0.87003 0.24827 0.0
C1275 C 0.40317 0.88422 0.263 0.0
C1276 C 0.41989 0.84857 0.25039 0.0
C1277 C 0.38834 0.86254 0.21485 0.0
C1278 C 0.41312 0.83054 0.25633 0.0
C1279 C 0.42813 0.81026 0.25775 0.0
C1280 C 0.45032 0.80747 0.25379 0.0
C1281 C 0.45715 0.8255 0.24869 0.0
C1282 C 0.44203 0.84591 0.24696 0.0
H1283 H 0.38032 0.87239 0.19908 0.0
H1284 H 0.40512 0.85349 0.2081 0.0
H1285 H 0.37953 0.85112 0.22374 0.0
H1286 H 0.39613 0.83214 0.2599 0.0
H1287 H 0.42226 0.79674 0.2622 0.0
H1288 H 0.3145 0.47011 0.7741 0.0
H1289 H 0.35037 0.44333 0.77436 0.0
H1290 H 0.33547 0.41224 0.72532 0.0
H1291 H 0.29978 0.43862 0.72509 0.0
H1292 H 0.35623 0.39723 0.78867 0.0
H1293 H 0.39657 0.41774 0.69587 0.0
H1294 H 0.37397 0.43668 0.71078 0.0
H1295 H 0.36965 0.41723 0.69741 0.0
C1296 C 0.31904 0.45777 0.76306 0.0
C1297 C 0.30431 0.45643 0.74961 0.0
C1298 C 0.33948 0.44249 0.76328 0.0
C1299 C 0.34559 0.42597 0.74966 0.0
C1300 C 0.33116 0.42503 0.73568 0.0
H1301 H 0.43865 0.3078 0.72554 0.0
H1302 H 0.41072 0.34234 0.72469 0.0
C1303 C 0.31072 0.44006 0.73569 0.0
C1304 C 0.36625 0.40857 0.75141 0.0
H1305 H 0.4122 0.38292 0.71697 0.0
C1306 C 0.36872 0.39425 0.77319 0.0
C1307 C 0.38234 0.40474 0.73108 0.0
C1308 C 0.38067 0.41999 0.70748 0.0
C1309 C 0.38633 0.37551 0.77481 0.0
C1310 C 0.40215 0.37131 0.75422 0.0
C1311 C 0.40007 0.38613 0.73272 0.0
C1312 C 0.42008 0.35096 0.75406 0.0
C1313 C 0.38715 0.35983 0.79811 0.0
C1314 C 0.43496 0.3445 0.77051 0.0
C1315 C 0.45087 0.32462 0.7712 0.0
C1316 C 0.45238 0.31097 0.75521 0.0
C1317 C 0.43797 0.31787 0.73814 0.0
C1318 C 0.42198 0.33764 0.7376 0.0
H1319 H 0.37135 0.36313 0.81003 0.0
H1320 H 0.39206 0.34334 0.7944 0.0
H1321 H 0.39916 0.36085 0.80817 0.0
H1322 H 0.43413 0.35472 0.78299 0.0
H1323 H 0.46185 0.31991 0.78442 0.0
H1324 H 0.18762 0.77842 0.5725 0.0
H1325 H 0.15596 0.77942 0.60321 0.0
H1326 H 0.14115 0.7361 0.56999 0.0
H1327 H 0.17293 0.73473 0.5394 0.0
H1328 H 0.11217 0.7908 0.59979 0.0
H1329 H 0.14414 0.70598 0.64002 0.0
H1330 H 0.16076 0.7199 0.619 0.0
H1331 H 0.14306 0.71037 0.6081 0.0
C1332 C 0.17759 0.76919 0.57159 0.0
C1333 C 0.18297 0.75635 0.55354 0.0
C1334 C 0.15947 0.76978 0.5892 0.0
C1335 C 0.14641 0.75752 0.5892 0.0
C1336 C 0.15127 0.74532 0.57068 0.0
H1337 H 0.03537 0.73343 0.68488 0.0
H1338 H 0.06443 0.73566 0.65155 0.0
C1339 C 0.16939 0.74468 0.55309 0.0
C1340 C 0.12795 0.75723 0.60878 0.0
H1341 H 0.10814 0.72442 0.65475 0.0
C1342 C 0.1113 0.77631 0.61186 0.0
C1343 C 0.12687 0.73831 0.62457 0.0
C1344 C 0.14474 0.7175 0.62298 0.0
C1345 C 0.0934 0.77691 0.63 0.0
C1346 C 0.0923 0.75797 0.64572 0.0
C1347 C 0.10896 0.73891 0.64264 0.0
C1348 C 0.07406 0.75751 0.66555 0.0
C1349 C 0.07562 0.79772 0.63186 0.0
C1350 C 0.06984 0.76899 0.68461 0.0
C1351 C 0.0532 0.76777 0.70376 0.0
C1352 C 0.0405 0.75493 0.70429 0.0
C1353 C 0.04475 0.74352 0.68509 0.0
C1354 C 0.06139 0.74475 0.66599 0.0
H1355 H 0.07619 0.80936 0.61492 0.0
H1356 H 0.05958 0.79536 0.63589 0.0
H1357 H 0.07742 0.80464 0.64685 0.0
H1358 H 0.07968 0.77861 0.68492 0.0
H1359 H 0.0505 0.77668 0.71827 0.0
H1360 H 0.24855 0.92563 0.29548 0.0
H1361 H 0.24632 0.89654 0.32851 0.0
H1362 H 0.23002 0.93893 0.38046 0.0
H1363 H 0.23198 0.96833 0.34742 0.0
H1364 H 0.27009 0.87993 0.3665 0.0
H1365 H 0.18285 0.91053 0.40076 0.0
H1366 H 0.19475 0.92136 0.37168 0.0
H1367 H 0.19764 0.92847 0.39897 0.0
C1368 C 0.24437 0.92889 0.31389 0.0
C1369 C 0.24036 0.94943 0.31871 0.0
C1370 C 0.24313 0.91217 0.33279 0.0
C1371 C 0.23774 0.91556 0.35697 0.0
C1372 C 0.2338 0.936 0.36193 0.0
H1373 H 0.25979 0.81281 0.48084 0.0
H1374 H 0.25957 0.84487 0.45131 0.0
C1375 C 0.23504 0.95278 0.34299 0.0
C1376 C 0.23689 0.89747 0.37687 0.0
H1377 H 0.20335 0.87913 0.42349 0.0
C1378 C 0.25551 0.87978 0.379 0.0
C1379 C 0.21779 0.89717 0.393 0.0
C1380 C 0.19704 0.91529 0.39095 0.0
C1381 C 0.25559 0.86185 0.3968 0.0
C1382 C 0.2366 0.8617 0.41323 0.0
C1383 C 0.21794 0.87934 0.41105 0.0
C1384 C 0.23568 0.84306 0.43225 0.0
C1385 C 0.27586 0.84299 0.39746 0.0
C1386 C 0.22175 0.83177 0.43194 0.0
C1387 C 0.22173 0.81346 0.44891 0.0
C1388 C 0.23558 0.80611 0.46665 0.0
C1389 C 0.24899 0.8179 0.4674 0.0
C1390 C 0.24898 0.83619 0.45042 0.0
H1391 H 0.28714 0.84359 0.38024 0.0
H1392 H 0.28423 0.84288 0.41235 0.0
H1393 H 0.27204 0.8279 0.40091 0.0
H1394 H 0.21127 0.83683 0.41816 0.0
H1395 H 0.21116 0.80485 0.44778 0.0
H1396 H 0.93534 0.67974 0.66147 0.0
H1397 H 0.93749 0.653 0.63792 0.0
H1398 H 0.00668 0.63085 0.63304 0.0
H1399 H 0.00476 0.65783 0.65629 0.0
H1400 H 0.96011 0.64706 0.59043 0.0
H1401 H 0.98858 0.57678 0.66041 0.0
H1402 H 0.97669 0.60342 0.66735 0.0
H1403 H 0.00408 0.59479 0.65288 0.0
C1404 C 0.95106 0.66935 0.65519 0.0
C1405 C 0.9699 0.67096 0.66077 0.0
C1406 C 0.95223 0.654 0.64185 0.0
C1407 C 0.9722 0.63984 0.63398 0.0
C1408 C 0.99107 0.64142 0.63932 0.0
H1409 H 0.00115 0.5576 0.52667 0.0
H1410 H -0.00153 0.58536 0.54901 0.0
C1411 C 0.98993 0.65682 0.65264 0.0
C1412 C 0.97321 0.62354 0.61999 0.0
H1413 H 0.98697 0.57004 0.62206 0.0
C1414 C 0.96598 0.63021 0.59731 0.0
C1415 C 0.98064 0.60161 0.62919 0.0
C1416 C 0.98779 0.59362 0.65388 0.0
C1417 C 0.96623 0.61549 0.58341 0.0
C1418 C 0.97407 0.59355 0.59239 0.0
C1419 C 0.98107 0.58688 0.6152 0.0
C1420 C 0.97511 0.57722 0.57844 0.0
C1421 C 0.95779 0.62351 0.5594 0.0
C1422 C 0.96301 0.56331 0.58771 0.0
C1423 C 0.9645 0.54738 0.57501 0.0
C1424 C 0.97828 0.54497 0.55288 0.0
C1425 C 0.9903 0.55904 0.5436 0.0
C1426 C 0.98874 0.57499 0.55628 0.0
H1427 H 0.9478 0.6405 0.55777 0.0
H1428 H 0.97157 0.62189 0.54452 0.0
H1429 H 0.94801 0.61408 0.55692 0.0
H1430 H 0.95245 0.56474 0.60484 0.0
H1431 H 0.95508 0.53679 0.58274 0.0
H1432 H 0.28978 0.73849 0.43368 0.0
H1433 H 0.32316 0.73779 0.40645 0.0
H1434 H 0.35343 0.73713 0.46634 0.0
H1435 H 0.3199 0.73774 0.49402 0.0
H1436 H 0.34438 0.76844 0.39785 0.0
H1437 H 0.39697 0.68803 0.43224 0.0
H1438 H 0.36797 0.69597 0.43932 0.0
H1439 H 0.38318 0.70518 0.4544 0.0
C1440 C 0.30352 0.73802 0.44124 0.0
C1441 C 0.30208 0.73813 0.46615 0.0
C1442 C 0.32263 0.73765 0.42556 0.0
C1443 C 0.34085 0.73727 0.43433 0.0
C1444 C 0.33967 0.7371 0.45922 0.0
H1445 H 0.45083 0.76626 0.33709 0.0
H1446 H 0.42168 0.76529 0.37085 0.0
C1447 C 0.32046 0.7375 0.47501 0.0
C1448 C 0.36067 0.73788 0.41703 0.0
H1449 H 0.41288 0.70873 0.40015 0.0
C1450 C 0.35941 0.75546 0.39846 0.0
C1451 C 0.38021 0.72085 0.41773 0.0
C1452 C 0.38227 0.70132 0.43685 0.0
C1453 C 0.37705 0.75638 0.38046 0.0
C1454 C 0.39658 0.73935 0.38113 0.0
C1455 C 0.39793 0.72183 0.39979 0.0
C1456 C 0.41532 0.73903 0.3618 0.0
C1457 C 0.37445 0.77526 0.36037 0.0
C1458 C 0.42179 0.72424 0.34586 0.0
C1459 C 0.43841 0.72476 0.32651 0.0
C1460 C 0.44905 0.73999 0.32282 0.0
C1461 C 0.44299 0.75434 0.33933 0.0
C1462 C 0.42627 0.75387 0.35861 0.0
H1463 H 0.3573 0.78508 0.35998 0.0
H1464 H 0.38339 0.78539 0.36306 0.0
H1465 H 0.38122 0.77002 0.34248 0.0
H1466 H 0.41359 0.71262 0.34802 0.0
H1467 H 0.44268 0.71341 0.31425 0.0
H1468 H 0.26568 0.06118 0.22208 0.0
H1469 H 0.26721 0.0903 0.1886 0.0
H1470 H 0.23824 0.06519 0.14635 0.0
H1471 H 0.23616 0.03638 0.17986 0.0
H1472 H 0.28762 0.09026 0.14219 0.0
H1473 H 0.19945 0.12595 0.1417 0.0
H1474 H 0.21083 0.10592 0.16601 0.0
H1475 H 0.20958 0.09852 0.13814 0.0
C1476 C 0.25958 0.06186 0.2057 0.0
C1477 C 0.25064 0.04649 0.2038 0.0
C1478 C 0.26048 0.07853 0.18654 0.0
C1479 C 0.25247 0.08021 0.16507 0.0
C1480 C 0.244 0.06461 0.16292 0.0
H1481 H 0.24566 0.17516 0.03205 0.0
H1482 H 0.24692 0.14213 0.06069 0.0
C1483 C 0.24295 0.04803 0.18211 0.0
C1484 C 0.25323 0.09813 0.14489 0.0
H1485 H 0.22179 0.14023 0.10972 0.0
C1486 C 0.27321 0.10117 0.13511 0.0
C1487 C 0.23443 0.11239 0.13556 0.0
C1488 C 0.21233 0.1107 0.14602 0.0
C1489 C 0.2749 0.11803 0.11636 0.0
C1490 C 0.25611 0.13233 0.10721 0.0
C1491 C 0.23619 0.12912 0.11664 0.0
C1492 C 0.25657 0.15163 0.08919 0.0
C1493 C 0.29678 0.12045 0.10644 0.0
C1494 C 0.26155 0.16787 0.09572 0.0
C1495 C 0.2607 0.18671 0.07956 0.0
C1496 C 0.25491 0.18975 0.0564 0.0
C1497 C 0.25033 0.17327 0.04966 0.0
C1498 C 0.25097 0.15444 0.06602 0.0
H1499 H 0.30997 0.10552 0.11098 0.0
H1500 H 0.29845 0.12527 0.08644 0.0
H1501 H 0.29872 0.13302 0.11442 0.0
H1502 H 0.26562 0.16618 0.1136 0.0
H1503 H 0.26434 0.19903 0.08538 0.0
H1504 H 0.8107 0.75582 0.9842 0.0
H1505 H 0.84329 0.75584 0.95549 0.0
H1506 H 0.83386 0.71088 0.91981 0.0
H1507 H 0.8012 0.7106 0.94858 0.0
H1508 H 0.87778 0.70219 0.92709 0.0
H1509 H 0.84086 0.78541 0.88409 0.0
H1510 H 0.83978 0.78144 0.91641 0.0
H1511 H 0.82509 0.7698 0.90362 0.0
C1512 C 0.81558 0.74577 0.97039 0.0
C1513 C 0.80317 0.7333 0.96865 0.0
C1514 C 0.83421 0.7459 0.95391 0.0
C1515 C 0.84084 0.73361 0.93529 0.0
C1516 C 0.82898 0.72055 0.93399 0.0
H1517 H 0.9224 0.74802 0.79947 0.0
H1518 H 0.89383 0.74502 0.83287 0.0
C1519 C 0.81029 0.72044 0.95045 0.0
C1520 C 0.85969 0.73495 0.91668 0.0
H1521 H 0.87758 0.76894 0.8705 0.0
C1522 C 0.8778 0.71678 0.91475 0.0
C1523 C 0.85959 0.75397 0.90045 0.0
C1524 C 0.84025 0.77375 0.90101 0.0
C1525 C 0.89584 0.71715 0.89705 0.0
C1526 C 0.8958 0.73623 0.881 0.0
C1527 C 0.87768 0.75438 0.88296 0.0
C1528 C 0.91375 0.73746 0.86099 0.0
C1529 C 0.91452 0.69698 0.89519 0.0
C1530 C 0.93456 0.7343 0.86564 0.0
C1531 C 0.9511 0.73603 0.84644 0.0
C1532 C 0.94709 0.74099 0.82226 0.0
C1533 C 0.92619 0.74415 0.8178 0.0
C1534 C 0.90975 0.74246 0.83691 0.0
H1535 H 0.91027 0.68279 0.90555 0.0
H1536 H 0.92014 0.69476 0.87597 0.0
H1537 H 0.92811 0.69803 0.90261 0.0
H1538 H 0.93794 0.73077 0.88411 0.0
H1539 H 0.96695 0.7336 0.85057 0.0
H1540 H 0.24465 0.56581 0.71835 0.0
H1541 H 0.24713 0.59378 0.68386 0.0
H1542 H 0.25225 0.55191 0.63476 0.0
H1543 H 0.24973 0.52372 0.66921 0.0
H1544 H 0.2816 0.59188 0.64309 0.0
H1545 H 0.20207 0.60672 0.61509 0.0
H1546 H 0.20841 0.59309 0.64483 0.0
H1547 H 0.21954 0.57968 0.61909 0.0
C1548 C 0.24627 0.56248 0.70025 0.0
C1549 C 0.24693 0.54246 0.69662 0.0
C1550 C 0.24771 0.57852 0.68053 0.0
C1551 C 0.24965 0.57502 0.65676 0.0
C1552 C 0.25047 0.55505 0.65298 0.0
H1553 H 0.24891 0.67051 0.52367 0.0
H1554 H 0.25115 0.63654 0.55078 0.0
C1555 C 0.24915 0.53892 0.67271 0.0
C1556 C 0.25109 0.5923 0.63606 0.0
H1557 H 0.22312 0.62775 0.59241 0.0
C1558 C 0.26889 0.59962 0.63189 0.0
C1559 C 0.2346 0.60225 0.6213 0.0
C1560 C 0.21496 0.59521 0.62526 0.0
C1561 C 0.27047 0.61688 0.61371 0.0
C1562 C 0.25353 0.62747 0.59964 0.0
C1563 C 0.23608 0.61966 0.60319 0.0
C1564 C 0.25277 0.6477 0.58275 0.0
C1565 C 0.29027 0.62365 0.60981 0.0
C1566 C 0.25268 0.66531 0.59173 0.0
C1567 C 0.25145 0.6846 0.57639 0.0
C1568 C 0.2501 0.68691 0.55162 0.0
C1569 C 0.25009 0.66927 0.54259 0.0
C1570 C 0.25131 0.64986 0.55807 0.0
H1571 H 0.30432 0.61025 0.61585 0.0
H1572 H 0.29452 0.62991 0.59044 0.0
H1573 H 0.28715 0.63635 0.62063 0.0
H1574 H 0.25325 0.66424 0.61078 0.0
H1575 H 0.25138 0.69778 0.58413 0.0
H1576 H 0.30364 0.04762 0.38131 0.0
H1577 H 0.32681 0.04243 0.41136 0.0
H1578 H 0.32465 0.97852 0.43597 0.0
H1579 H 0.30123 0.98362 0.40584 0.0
H1580 H 0.3225 0.03047 0.46255 0.0
H1581 H 0.38913 0.97117 0.41426 0.0
H1582 H 0.36553 0.98791 0.40078 0.0
H1583 H 0.36402 0.96567 0.42394 0.0
C1584 C 0.3077 0.03258 0.39341 0.0
C1585 C 0.30066 0.01599 0.39111 0.0
C1586 C 0.32099 0.02963 0.41056 0.0
C1587 C 0.32759 0.01004 0.42571 0.0
C1588 C 0.31996 0.99367 0.42419 0.0
H1589 H 0.4185 0.99389 0.52685 0.0
H1590 H 0.38629 0.99314 0.51329 0.0
C1591 C 0.30665 -0.00341 0.40694 0.0
C1592 C 0.34375 0.00658 0.44164 0.0
H1593 H 0.39703 0.98199 0.4464 0.0
C1594 C 0.33871 0.01958 0.4594 0.0
C1595 C 0.36489 0.99245 0.43729 0.0
C1596 C 0.37139 0.97857 0.41796 0.0
C1597 C 0.35454 0.01946 0.47222 0.0
C1598 C 0.37582 0.00597 0.46712 0.0
C1599 C 0.38061 0.99224 0.45025 0.0
C1600 C 0.39397 0.00782 0.47644 0.0
C1601 C 0.34883 0.03458 0.49005 0.0
C1602 C 0.40865 0.01656 0.46027 0.0
C1603 C 0.42693 0.01699 0.46787 0.0
C1604 C 0.43098 0.00861 0.49183 0.0
C1605 C 0.41583 0.00051 0.5083 0.0
C1606 C 0.39744 6e-05 0.50061 0.0
H1607 H 0.33174 0.04485 0.49104 0.0
H1608 H 0.3517 0.02545 0.50836 0.0
H1609 H 0.35934 0.04483 0.48487 0.0
H1610 H 0.40616 0.02268 0.44156 0.0
H1611 H 0.43814 0.02348 0.45471 0.0
H1612 H 0.83242 0.78635 0.09483 0.0
H1613 H 0.85208 0.8091 0.09972 0.0
H1614 H 0.80737 0.86338 0.06258 0.0
H1615 H 0.78759 0.84068 0.05758 0.0
H1616 H 0.8498 0.86032 0.04567 0.0
H1617 H 0.83443 0.85212 0.14595 0.0
H1618 H 0.84561 0.82716 0.13507 0.0
H1619 H 0.8193 0.84435 0.12894 0.0
C1620 C 0.82663 0.80318 0.08797 0.0
C1621 C 0.80841 0.81178 0.07593 0.0
C1622 C 0.83783 0.81615 0.09083 0.0
C1623 C 0.83091 0.83796 0.08192 0.0
C1624 C 0.81285 0.84658 0.06972 0.0
H1625 H 0.87942 0.93278 0.10915 0.0
H1626 H 0.85699 0.91117 0.10847 0.0
C1627 C 0.80166 0.83361 0.06676 0.0
C1628 C 0.84313 0.85158 0.08436 0.0
H1629 H 0.8616 0.86774 0.12575 0.0
C1630 C 0.85226 0.86207 0.06317 0.0
C1631 C 0.84607 0.854 0.10724 0.0
C1632 C 0.83566 0.84399 0.13061 0.0
C1633 C 0.86476 0.87454 0.06421 0.0
C1634 C 0.8685 0.87619 0.08705 0.0
C1635 C 0.85889 0.86618 0.10828 0.0
C1636 C 0.88241 0.88825 0.08915 0.0
C1637 C 0.87373 0.88595 0.04087 0.0
C1638 C 0.90423 0.88205 0.0792 0.0
C1639 C 0.91703 0.89429 0.07959 0.0
C1640 C 0.90825 0.91285 0.09011 0.0
C1641 C 0.88663 0.91849 0.10106 0.0
C1642 C 0.8738 0.90624 0.10059 0.0
H1643 H 0.86487 0.88757 0.02576 0.0
H1644 H 0.87301 0.90201 0.043 0.0
H1645 H 0.89084 0.87677 0.03574 0.0
H1646 H 0.91126 0.86792 0.07079 0.0
H1647 H 0.93375 0.88938 0.07141 0.0
H1648 H 0.63239 0.20858 0.48816 0.0
H1649 H 0.60258 0.19542 0.4883 0.0
H1650 H 0.64488 0.14897 0.44454 0.0
H1651 H 0.67478 0.16191 0.4444 0.0
H1652 H 0.58819 0.1913 0.44238 0.0
H1653 H 0.61493 0.11664 0.50743 0.0
H1654 H 0.62313 0.13951 0.50634 0.0
H1655 H 0.63529 0.12267 0.4837 0.0
C1656 C 0.63536 0.19542 0.47879 0.0
C1657 C 0.65588 0.18619 0.46632 0.0
C1658 C 0.61833 0.18805 0.47876 0.0
C1659 C 0.62168 0.17123 0.46652 0.0
C1660 C 0.64212 0.16192 0.45417 0.0
H1661 H 0.55229 0.11031 0.41671 0.0
H1662 H 0.57215 0.13306 0.42096 0.0
C1663 C 0.65911 0.16937 0.45402 0.0
C1664 C 0.60381 0.16341 0.46632 0.0
H1665 H 0.58697 0.11997 0.48575 0.0
C1666 C 0.58771 0.17583 0.45205 0.0
C1667 C 0.60327 0.14333 0.47916 0.0
C1668 C 0.61996 0.12975 0.4952 0.0
C1669 C 0.5715 0.16815 0.44946 0.0
C1670 C 0.57154 0.14769 0.46147 0.0
C1671 C 0.5871 0.13568 0.47655 0.0
C1672 C 0.5566 0.13764 0.45738 0.0
C1673 C 0.55465 0.18171 0.43365 0.0
C1674 C 0.54093 0.13325 0.47627 0.0
C1675 C 0.52931 0.12052 0.47379 0.0
C1676 C 0.53352 0.11162 0.45256 0.0
C1677 C 0.54845 0.11705 0.43318 0.0
C1678 C 0.55988 0.12999 0.43559 0.0
H1679 H 0.55448 0.19848 0.42923 0.0
H1680 H 0.55803 0.17535 0.41645 0.0
H1681 H 0.53842 0.1812 0.44273 0.0
H1682 H 0.53827 0.13903 0.49323 0.0
H1683 H 0.5176 0.117 0.48887 0.0
H1684 H 0.82116 0.47196 0.24814 0.0
H1685 H 0.85698 0.44495 0.245 0.0
H1686 H 0.82717 0.3956 0.26452 0.0
H1687 H 0.79174 0.4222 0.26679 0.0
H1688 H 0.87834 0.41252 0.27626 0.0
H1689 H 0.86492 0.37977 0.203 0.0
H1690 H 0.84695 0.4044 0.21212 0.0
H1691 H 0.84409 0.37939 0.22831 0.0
C1692 C 0.82233 0.45533 0.25168 0.0
C1693 C 0.80365 0.44922 0.25723 0.0
C1694 C 0.84277 0.43993 0.24989 0.0
C1695 C 0.84475 0.41825 0.2538 0.0
C1696 C 0.82608 0.41221 0.26051 0.0
H1697 H 0.94657 0.30616 0.29645 0.0
H1698 H 0.91817 0.34041 0.29334 0.0
C1699 C 0.80579 0.42749 0.26192 0.0
C1700 C 0.86615 0.40166 0.25118 0.0
H1701 H 0.89264 0.35657 0.22659 0.0
C1702 C 0.88166 0.40045 0.2651 0.0
C1703 C 0.87081 0.38623 0.2361 0.0
C1704 C 0.85589 0.38766 0.21884 0.0
C1705 C 0.90112 0.38354 0.26541 0.0
C1706 C 0.90482 0.36703 0.2521 0.0
C1707 C 0.8898 0.36895 0.23716 0.0
C1708 C 0.9235 0.34715 0.25408 0.0
C1709 C 0.91745 0.38369 0.27996 0.0
C1710 C 0.93573 0.33908 0.23311 0.0
C1711 C 0.9515 0.31913 0.23487 0.0
C1712 C 0.95563 0.30698 0.25765 0.0
C1713 C 0.94393 0.3153 0.27864 0.0
C1714 C 0.9278 0.33503 0.27687 0.0
H1715 H 0.91627 0.40019 0.28089 0.0
H1716 H 0.91417 0.37567 0.2988 0.0
H1717 H 0.93414 0.37537 0.27214 0.0
H1718 H 0.93273 0.34803 0.2153 0.0
H1719 H 0.96033 0.31313 0.21839 0.0
H1720 H 0.0933 0.5603 0.41316 0.0
H1721 H 0.11878 0.57929 0.41183 0.0
H1722 H 0.08523 0.59984 0.47965 0.0
H1723 H 0.05998 0.58083 0.48119 0.0
H1724 H 0.11154 0.62127 0.41074 0.0
H1725 H 0.14689 0.5751 0.49312 0.0
H1726 H 0.13062 0.56625 0.47885 0.0
H1727 H 0.11809 0.58533 0.49917 0.0
C1728 C 0.09141 0.56889 0.42775 0.0
C1729 C 0.07483 0.56892 0.4474 0.0
C1730 C 0.10599 0.57963 0.42702 0.0
C1731 C 0.10418 0.59053 0.44593 0.0
C1732 C 0.08734 0.59096 0.46526 0.0
H1733 H 0.14507 0.69559 0.44804 0.0
H1734 H 0.1268 0.67117 0.44448 0.0
C1735 C 0.07288 0.58016 0.46608 0.0
C1736 C 0.11927 0.60228 0.44513 0.0
H1737 H 0.15196 0.60926 0.47893 0.0
C1738 C 0.12062 0.61847 0.42548 0.0
C1739 C 0.13142 0.59833 0.46415 0.0
C1740 C 0.13188 0.58015 0.48487 0.0
C1741 C 0.133 0.63153 0.42491 0.0
C1742 C 0.14385 0.62859 0.4448 0.0
C1743 C 0.14336 0.61171 0.46387 0.0
C1744 C 0.15508 0.64332 0.44667 0.0
C1745 C 0.13426 0.64837 0.40302 0.0
C1746 C 0.17684 0.63565 0.44995 0.0
C1747 C 0.18724 0.64954 0.4523 0.0
C1748 C 0.17604 0.67134 0.45138 0.0
C1749 C 0.15419 0.67893 0.44838 0.0
C1750 C 0.14377 0.66502 0.44623 0.0
H1751 H 0.13129 0.6441 0.38667 0.0
H1752 H 0.1217 0.66356 0.40647 0.0
H1753 H 0.15022 0.65089 0.39915 0.0
H1754 H 0.1858 0.61892 0.45054 0.0
H1755 H 0.20413 0.64331 0.45446 0.0
H1756 H 0.66921 0.03031 0.73404 0.0
H1757 H 0.63538 0.05974 0.73385 0.0
H1758 H 0.64294 0.07154 0.80205 0.0
H1759 H 0.67665 0.04207 0.80259 0.0
H1760 H 0.59948 0.07491 0.79771 0.0
H1761 H 0.6376 0.12145 0.71995 0.0
H1762 H 0.63872 0.09568 0.71573 0.0
H1763 H 0.65314 0.09785 0.73774 0.0
C1764 C 0.66356 0.03897 0.74918 0.0
C1765 C 0.67579 0.03397 0.7682 0.0
C1766 C 0.64425 0.05581 0.74899 0.0
C1767 C 0.63686 0.06796 0.76776 0.0
C1768 C 0.64842 0.06235 0.78736 0.0
H1769 H 0.5617 0.19576 0.77642 0.0
H1770 H 0.58793 0.16044 0.77654 0.0
C1771 C 0.66773 0.04553 0.78759 0.0
C1772 C 0.618 0.08746 0.76625 0.0
H1773 H 0.60166 0.13804 0.73553 0.0
C1774 C 0.5998 0.08866 0.78398 0.0
C1775 C 0.61863 0.1054 0.74842 0.0
C1776 C 0.63809 0.10522 0.72945 0.0
C1777 C 0.58231 0.10752 0.78457 0.0
C1778 C 0.58311 0.12549 0.76693 0.0
C1779 C 0.6011 0.12414 0.74893 0.0
C1780 C 0.56641 0.14646 0.76799 0.0
C1781 C 0.56349 0.10841 0.80455 0.0
C1782 C 0.54553 0.15026 0.76323 0.0
C1783 C 0.53037 0.17057 0.76309 0.0
C1784 C 0.53593 0.18735 0.76767 0.0
C1785 C 0.55682 0.18328 0.77277 0.0
C1786 C 0.57188 0.16308 0.77285 0.0
H1787 H 0.56664 0.09399 0.81864 0.0
H1788 H 0.55967 0.12257 0.8133 0.0
H1789 H 0.54909 0.10986 0.79675 0.0
H1790 H 0.54111 0.13765 0.75915 0.0
H1791 H 0.51447 0.17318 0.75899 0.0
H1792 H 0.75399 0.51854 0.17431 0.0
H1793 H 0.75543 0.54721 0.14001 0.0
H1794 H 0.74332 0.59069 0.18972 0.0
H1795 H 0.7417 0.56242 0.22389 0.0
H1796 H 0.71723 0.60667 0.15314 0.0
H1797 H 0.80353 0.5748 0.11525 0.0
H1798 H 0.78796 0.55712 0.1195 0.0
H1799 H 0.79263 0.56492 0.14539 0.0
C1800 C 0.75177 0.53417 0.17794 0.0
C1801 C 0.74779 0.53808 0.20194 0.0
C1802 C 0.75268 0.55053 0.1583 0.0
C1803 C 0.7497 0.57108 0.16228 0.0
C1804 C 0.74572 0.57498 0.18617 0.0
H1805 H 0.77516 0.6815 0.07074 0.0
H1806 H 0.77544 0.6492 0.09994 0.0
C1807 C 0.74484 0.55871 0.20574 0.0
C1808 C 0.75009 0.58882 0.14176 0.0
H1809 H 0.78284 0.60674 0.09378 0.0
C1810 C 0.73153 0.60664 0.14007 0.0
C1811 C 0.76884 0.58886 0.12488 0.0
C1812 C 0.78947 0.57051 0.12633 0.0
C1813 C 0.73123 0.6245 0.12209 0.0
C1814 C 0.74992 0.62449 0.10508 0.0
C1815 C 0.76848 0.60666 0.1067 0.0
C1816 C 0.75071 0.64324 0.08615 0.0
C1817 C 0.71109 0.64352 0.12193 0.0
C1818 C 0.73708 0.65038 0.06828 0.0
C1819 C 0.73687 0.66886 0.05153 0.0
C1820 C 0.75036 0.68058 0.05223 0.0
C1821 C 0.76452 0.67295 0.06966 0.0
C1822 C 0.76472 0.65445 0.08638 0.0
H1823 H 0.69998 0.64285 0.13927 0.0
H1824 H 0.71513 0.65848 0.11858 0.0
H1825 H 0.70242 0.64399 0.10713 0.0
H1826 H 0.72638 0.6418 0.06749 0.0
H1827 H 0.72581 0.67416 0.03833 0.0
H1828 H 0.93573 0.53266 0.46479 0.0
H1829 H 0.90632 0.53497 0.44421 0.0
H1830 H 0.88961 0.48694 0.50008 0.0
H1831 H 0.91923 0.48421 0.52062 0.0
H1832 H 0.8948 0.47763 0.455 0.0
H1833 H 0.84139 0.56029 0.45796 0.0
H1834 H 0.8688 0.55876 0.44604 0.0
H1835 H 0.86223 0.54736 0.47702 0.0
C1836 C 0.92555 0.52288 0.473 0.0
C1837 C 0.92991 0.50819 0.49432 0.0
C1838 C 0.90866 0.5243 0.46125 0.0
C1839 C 0.89566 0.51127 0.47075 0.0
C1840 C 0.89943 0.49717 0.4925 0.0
H1841 H 0.78484 0.52262 0.40471 0.0
H1842 H 0.80808 0.52027 0.43379 0.0
C1843 C 0.91637 0.49567 0.50422 0.0
C1844 C 0.87949 0.51093 0.45681 0.0
H1845 H 0.83625 0.54256 0.42886 0.0
C1846 C 0.88183 0.49177 0.44952 0.0
C1847 C 0.86246 0.52932 0.44991 0.0
C1848 C 0.85841 0.55004 0.45834 0.0
C1849 C 0.86802 0.49067 0.43481 0.0
C1850 C 0.85175 0.50933 0.42681 0.0
C1851 C 0.84891 0.52832 0.4348 0.0
C1852 C 0.83781 0.50964 0.40966 0.0
C1853 C 0.871 0.46953 0.42801 0.0
C1854 C 0.84686 0.50445 0.38649 0.0
C1855 C 0.83364 0.50576 0.36987 0.0
C1856 C 0.81113 0.51253 0.37606 0.0
C1857 C 0.80213 0.51755 0.39937 0.0
C1858 C 0.81536 0.51616 0.416 0.0
H1859 H 0.87951 0.4561 0.44112 0.0
H1860 H 0.85528 0.4678 0.42717 0.0
H1861 H 0.88088 0.46838 0.40989 0.0
H1862 H 0.86413 0.49987 0.38105 0.0
H1863 H 0.84101 0.50213 0.35193 0.0
H1864 H 0.20283 0.4445 0.62012 0.0
H1865 H 0.18119 0.44448 0.59063 0.0
H1866 H 0.1364 0.50482 0.60636 0.0
H1867 H 0.15858 0.50557 0.63475 0.0
H1868 H 0.14216 0.44227 0.6023 0.0
H1869 H 0.13894 0.51435 0.53451 0.0
H1870 H 0.15853 0.50393 0.55528 0.0
H1871 H 0.13183 0.52102 0.56441 0.0
C1872 C 0.1888 0.45814 0.61668 0.0
C1873 C 0.18238 0.475 0.62993 0.0
C1874 C 0.17637 0.45803 0.59991 0.0
C1875 C 0.15728 0.47474 0.59607 0.0
C1876 C 0.15131 0.49197 0.60854 0.0
H1877 H 0.03633 0.47429 0.57846 0.0
H1878 H 0.07059 0.47008 0.5905 0.0
C1879 C 0.16383 0.4922 0.62512 0.0
C1880 C 0.14213 0.47291 0.5817 0.0
H1881 H 0.10822 0.50143 0.54039 0.0
C1882 C 0.1351 0.45501 0.58836 0.0
C1883 C 0.13315 0.48931 0.56321 0.0
C1884 C 0.14122 0.5081 0.55377 0.0
C1885 C 0.11831 0.45376 0.57827 0.0
C1886 C 0.10792 0.4711 0.56156 0.0
C1887 C 0.11595 0.4883 0.55356 0.0
C1888 C 0.0876 0.47253 0.5539 0.0
C1889 C 0.11156 0.43406 0.58605 0.0
C1890 C 0.08566 0.47576 0.52927 0.0
C1891 C 0.06596 0.47838 0.52227 0.0
C1892 C 0.04786 0.47795 0.53982 0.0
C1893 C 0.04996 0.47455 0.56447 0.0
C1894 C 0.0696 0.47199 0.57141 0.0
H1895 H 0.12523 0.41997 0.59162 0.0
H1896 H 0.0987 0.43626 0.60193 0.0
H1897 H 0.10526 0.4308 0.57131 0.0
H1898 H 0.09933 0.47643 0.51548 0.0
H1899 H 0.06484 0.48114 0.50311 0.0
H1900 H 0.56284 0.74646 0.21814 0.0
H1901 H 0.5903 0.74641 0.18276 0.0
H1902 H 0.54418 0.75323 0.13653 0.0
H1903 H 0.51626 0.75345 0.17209 0.0
H1904 H 0.60498 0.71732 0.14993 0.0
H1905 H 0.57153 0.80019 0.10336 0.0
H1906 H 0.5626 0.7917 0.13483 0.0
H1907 H 0.55388 0.78423 0.11144 0.0
C1908 C 0.55836 0.74809 0.2005 0.0
C1909 C 0.53722 0.75 0.19807 0.0
C1910 C 0.57417 0.74803 0.18023 0.0
C1911 C 0.56932 0.74999 0.15694 0.0
C1912 C 0.54823 0.75202 0.15429 0.0
H1913 H 0.66473 0.74979 0.02315 0.0
H1914 H 0.63075 0.75021 0.05008 0.0
C1915 C 0.53231 0.75206 0.17466 0.0
C1916 C 0.58675 0.74915 0.13583 0.0
H1917 H 0.60486 0.77934 0.08523 0.0
C1918 C 0.60482 0.73081 0.13565 0.0
C1919 C 0.58652 0.7667 0.11708 0.0
C1920 C 0.5677 0.78692 0.1166 0.0
C1921 C 0.62289 0.72977 0.11775 0.0
C1922 C 0.6231 0.74765 0.09967 0.0
C1923 C 0.60467 0.76566 0.09912 0.0
C1924 C 0.64308 0.74851 0.08283 0.0
C1925 C 0.64185 0.70963 0.11859 0.0
C1926 C 0.66106 0.74795 0.09221 0.0
C1927 C 0.68033 0.7478 0.077 0.0
C1928 C 0.68217 0.74824 0.0519 0.0
C1929 C 0.66392 0.74941 0.04236 0.0
C1930 C 0.6445 0.74963 0.05771 0.0
H1931 H 0.63704 0.69574 0.12896 0.0
H1932 H 0.64945 0.70636 0.10004 0.0
H1933 H 0.65409 0.71141 0.1277 0.0
H1934 H 0.66024 0.74743 0.11146 0.0
H1935 H 0.69389 0.74705 0.08509 0.0
H1936 H 0.68341 0.50444 0.12057 0.0
H1937 H 0.65918 0.51067 0.09096 0.0
H1938 H 0.64755 0.4513 0.12253 0.0
H1939 H 0.67152 0.44501 0.15208 0.0
H1940 H 0.65375 0.45865 0.0713 0.0
H1941 H 0.59343 0.52754 0.11058 0.0
H1942 H 0.62026 0.529 0.10073 0.0
H1943 H 0.61538 0.50944 0.12599 0.0
C1944 C 0.67569 0.49272 0.12115 0.0
C1945 C 0.67934 0.47426 0.13872 0.0
C1946 C 0.66191 0.49628 0.10422 0.0
C1947 C 0.65144 0.48153 0.10473 0.0
C1948 C 0.65555 0.46284 0.12177 0.0
H1949 H 0.53413 0.48424 0.07232 0.0
H1950 H 0.56597 0.48275 0.08773 0.0
C1951 C 0.66932 0.45924 0.13861 0.0
C1952 C 0.63524 0.48581 0.08859 0.0
H1953 H 0.58403 0.51642 0.0796 0.0
C1954 C 0.63862 0.47147 0.07278 0.0
C1955 C 0.61549 0.50248 0.09076 0.0
C1956 C 0.61073 0.51795 0.10802 0.0
C1957 C 0.62241 0.47287 0.05975 0.0
C1958 C 0.60246 0.48916 0.06251 0.0
C1959 C 0.59942 0.50402 0.07751 0.0
C1960 C 0.58366 0.48963 0.05238 0.0
C1961 C 0.62627 0.4563 0.04419 0.0
C1962 C 0.58312 0.4939 0.02731 0.0
C1963 C 0.56484 0.49473 0.01834 0.0
C1964 C 0.54685 0.49138 0.03435 0.0
C1965 C 0.54764 0.48693 0.05943 0.0
C1966 C 0.56582 0.48611 0.06831 0.0
H1967 H 0.64155 0.44313 0.04657 0.0
H1968 H 0.61276 0.44958 0.04858 0.0
H1969 H 0.62706 0.46377 0.02484 0.0
H1970 H 0.59667 0.4969 0.01475 0.0
H1971 H 0.5647 0.49832 0.99893 0.0
H1972 H 0.46939 0.37364 0.0582 0.0
H1973 H 0.45293 0.34685 0.05736 0.0
H1974 H 0.39906 0.3753 0.10868 0.0
H1975 H 0.41533 0.4021 0.10959 0.0
H1976 H 0.41361 0.32982 0.1169 0.0
H1977 H 0.4003 0.36474 0.02141 0.0
H1978 H 0.42757 0.3563 0.02752 0.0
H1979 H 0.40778 0.3782 0.0404 0.0
C1980 C 0.45412 0.37404 0.06945 0.0
C1981 C 0.44351 0.39009 0.08377 0.0
C1982 C 0.44478 0.35875 0.06896 0.0
C1983 C 0.42465 0.35937 0.08264 0.0
C1984 C 0.41462 0.37461 0.09797 0.0
H1985 H 0.31778 0.31677 0.09977 0.0
H1986 H 0.34651 0.32977 0.10323 0.0
C1987 C 0.42396 0.38986 0.09854 0.0
C1988 C 0.41312 0.3453 0.07976 0.0
H1989 H 0.38615 0.3372 0.04013 0.0
C1990 C 0.40782 0.33121 0.10005 0.0
C1991 C 0.40568 0.34715 0.0577 0.0
C1992 C 0.41044 0.36249 0.03551 0.0
C1993 C 0.39468 0.31934 0.09906 0.0
C1994 C 0.38641 0.32196 0.07734 0.0
C1995 C 0.39255 0.33527 0.05674 0.0
C1996 C 0.36974 0.31273 0.07622 0.0
C1997 C 0.38948 0.30436 0.12136 0.0
C1998 C 0.37315 0.2992 0.05948 0.0
C1999 C 0.35671 0.29172 0.05744 0.0
C2000 C 0.33655 0.29781 0.07199 0.0
C2001 C 0.33324 0.31143 0.08866 0.0
C2002 C 0.34966 0.31884 0.09071 0.0
H2003 H 0.40203 0.29917 0.13345 0.0
H2004 H 0.37394 0.31262 0.1317 0.0
H2005 H 0.38794 0.2901 0.11645 0.0
H2006 H 0.3885 0.2945 0.04797 0.0
H2007 H 0.35981 0.28109 0.04459 0.0
H2008 H 0.06578 0.19217 0.26994 0.0
H2009 H 0.09181 0.15687 0.26816 0.0
H2010 H 0.04144 0.13296 0.2629 0.0
H2011 H 0.01502 0.16851 0.26443 0.0
H2012 H 0.07399 0.10876 0.30054 0.0
H2013 H 0.10968 0.12621 0.2045 0.0
H2014 H 0.10464 0.14631 0.22277 0.0
H2015 H 0.0824 0.14046 0.21627 0.0
C2016 C 0.0601 0.17947 0.26849 0.0
C2017 C 0.03825 0.18322 0.26733 0.0
C2018 C 0.07506 0.15931 0.26738 0.0
C2019 C 0.06854 0.14243 0.26521 0.0
C2020 C 0.04674 0.14588 0.26446 0.0
H2021 H 0.17307 0.02347 0.24036 0.0
H2022 H 0.13694 0.04988 0.24023 0.0
C2023 C 0.03171 0.16617 0.26535 0.0
C2024 C 0.08477 0.12125 0.26395 0.0
H2025 H 0.13023 0.09561 0.2288 0.0
C2026 C 0.08605 0.10565 0.28471 0.0
C2027 C 0.10033 0.11723 0.24321 0.0
C2028 C 0.09922 0.13334 0.22029 0.0
C2029 C 0.10336 0.08662 0.28575 0.0
C2030 C 0.11974 0.08324 0.26557 0.0
C2031 C 0.11766 0.09824 0.24427 0.0
C2032 C 0.14041 0.0658 0.26726 0.0
C2033 C 0.10442 0.07058 0.30872 0.0
C2034 C 0.15422 0.06604 0.28249 0.0
C2035 C 0.1748 0.05126 0.28239 0.0
C2036 C 0.182 0.03581 0.26713 0.0
C2037 C 0.1679 0.03509 0.25244 0.0
C2038 C 0.14731 0.05016 0.2523 0.0
H2039 H 0.08822 0.07245 0.31955 0.0
H2040 H 0.11147 0.05414 0.30463 0.0
H2041 H 0.11482 0.07293 0.31996 0.0
H2042 H 0.14935 0.07817 0.29387 0.0
H2043 H 0.18524 0.0522 0.29398 0.0
H2044 H 0.26106 0.31615 0.98086 0.0
H2045 H 0.25963 0.34742 0.94956 0.0
H2046 H 0.21085 0.33615 0.92047 0.0
H2047 H 0.21223 0.30483 0.95151 0.0
H2048 H 0.24554 0.34221 0.88558 0.0
H2049 H 0.21323 0.40607 0.94227 0.0
H2050 H 0.23633 0.38472 0.95166 0.0
H2051 H 0.21142 0.37968 0.95327 0.0
C2052 C 0.24981 0.32046 0.96802 0.0
C2053 C 0.23673 0.30794 0.96879 0.0
C2054 C 0.24896 0.33841 0.95018 0.0
C2055 C 0.23498 0.34426 0.93281 0.0
C2056 C 0.2217 0.33198 0.93374 0.0
H2057 H 0.21366 0.43864 0.80188 0.0
H2058 H 0.21262 0.40958 0.83553 0.0
C2059 C 0.22249 0.31408 0.95158 0.0
C2060 C 0.23501 0.36243 0.91283 0.0
H2061 H 0.22538 0.4161 0.90077 0.0
C2062 C 0.24103 0.35839 0.88888 0.0
C2063 C 0.22925 0.3835 0.91718 0.0
C2064 C 0.22201 0.38888 0.94245 0.0
C2065 C 0.24177 0.37477 0.86919 0.0
C2066 C 0.23584 0.39589 0.87349 0.0
C2067 C 0.22987 0.39993 0.89746 0.0
C2068 C 0.23594 0.41397 0.85336 0.0
C2069 C 0.24944 0.36919 0.844 0.0
C2070 C 0.24886 0.42658 0.85254 0.0
C2071 C 0.24935 0.44335 0.83342 0.0
C2072 C 0.23685 0.44793 0.81472 0.0
C2073 C 0.22362 0.43549 0.81583 0.0
C2074 C 0.2231 0.41877 0.83501 0.0
H2075 H 0.25886 0.35211 0.84443 0.0
H2076 H 0.23528 0.37251 0.8348 0.0
H2077 H 0.25958 0.37879 0.83304 0.0
H2078 H 0.25883 0.42326 0.86654 0.0
H2079 H 0.2597 0.45259 0.83322 0.0
H2080 H 0.2927 0.24145 0.93727 0.0
H2081 H 0.32585 0.24107 0.90976 0.0
H2082 H 0.35671 0.23996 0.96935 0.0
H2083 H 0.32335 0.24035 0.99734 0.0
H2084 H 0.34694 0.27294 0.90297 0.0
H2085 H 0.39983 0.19116 0.93269 0.0
H2086 H 0.37082 0.19865 0.93942 0.0
H2087 H 0.38552 0.20742 0.95562 0.0
C2088 C 0.30652 0.24095 0.94472 0.0
C2089 C 0.30528 0.24094 0.96961 0.0
C2090 C 0.32549 0.24075 0.92888 0.0
C2091 C 0.34377 0.24037 0.93749 0.0
C2092 C 0.34284 0.23998 0.96237 0.0
H2093 H 0.46847 0.23972 0.84842 0.0
H2094 H 0.44001 0.23921 0.88318 0.0
C2095 C 0.32375 0.24024 0.97833 0.0
C2096 C 0.36328 0.24143 0.91995 0.0
H2097 H 0.41445 0.212 0.89969 0.0
C2098 C 0.36177 0.25968 0.90237 0.0
C2099 C 0.38265 0.22419 0.91933 0.0
C2100 C 0.38494 0.20414 0.93764 0.0
C2101 C 0.37891 0.261 0.88384 0.0
C2102 C 0.39794 0.24339 0.88252 0.0
C2103 C 0.3998 0.22543 0.90065 0.0
C2104 C 0.41549 0.24298 0.86167 0.0
C2105 C 0.37642 0.28124 0.86578 0.0
C2106 C 0.41129 0.24479 0.83811 0.0
C2107 C 0.42743 0.2451 0.81825 0.0
C2108 C 0.44827 0.24346 0.82149 0.0
C2109 C 0.45262 0.24108 0.84522 0.0
C2110 C 0.43638 0.24078 0.86513 0.0
H2111 H 0.36413 0.29501 0.87331 0.0
H2112 H 0.39192 0.28471 0.86013 0.0
H2113 H 0.37107 0.27953 0.84943 0.0
H2114 H 0.39543 0.24603 0.83504 0.0
H2115 H 0.42348 0.24677 0.80033 0.0
H2116 H 0.42723 0.47953 1.00782 0.0
H2117 H 0.3981 0.48088 0.98719 0.0
H2118 H 0.40798 0.53483 0.93618 0.0
H2119 H 0.43674 0.53395 0.95692 0.0
H2120 H 0.36517 0.53929 0.9514 0.0
H2121 H 0.40902 0.4609 0.92218 0.0
H2122 H 0.4049 0.46044 0.95434 0.0
H2123 H 0.42183 0.47468 0.93482 0.0
C2124 C 0.42308 0.49181 0.99234 0.0
C2125 C 0.43442 0.50654 0.9839 0.0
C2126 C 0.40653 0.49245 0.98049 0.0
C2127 C 0.40121 0.50768 0.95988 0.0
C2128 C 0.41193 0.52288 0.95199 0.0
H2129 H 0.33901 0.50865 0.84244 0.0
H2130 H 0.3638 0.50555 0.87002 0.0
C2131 C 0.42838 0.52234 0.96388 0.0
C2132 C 0.38485 0.50759 0.94604 0.0
H2133 H 0.3739 0.47813 0.91212 0.0
C2134 C 0.36699 0.5259 0.94289 0.0
C2135 C 0.38748 0.49017 0.93472 0.0
C2136 C 0.40692 0.47049 0.93645 0.0
C2137 C 0.35174 0.52735 0.92853 0.0
C2138 C 0.35421 0.50983 0.91748 0.0
C2139 C 0.37197 0.49145 0.9208 0.0
C2140 C 0.33919 0.51068 0.90132 0.0
C2141 C 0.33357 0.54792 0.92463 0.0
C2142 C 0.31722 0.51412 0.90992 0.0
C2143 C 0.30302 0.51597 0.89418 0.0
C2144 C 0.3106 0.51413 0.86964 0.0
C2145 C 0.33273 0.50997 0.86129 0.0
C2146 C 0.34688 0.50827 0.87699 0.0
H2147 H 0.33696 0.5613 0.92937 0.0
H2148 H 0.33056 0.55205 0.90548 0.0
H2149 H 0.31864 0.54615 0.93633 0.0
H2150 H 0.31104 0.51552 0.92876 0.0
H2151 H 0.2861 0.51883 0.90119 0.0
H2152 H 0.63881 0.71812 0.92741 0.0
H2153 H 0.61155 0.70335 0.92277 0.0
H2154 H 0.64487 0.64326 0.96291 0.0
H2155 H 0.67194 0.65798 0.96784 0.0
H2156 H 0.61641 0.67016 0.90063 0.0
H2157 H 0.58377 0.65399 0.99751 0.0
H2158 H 0.60089 0.67051 0.98663 0.0
H2159 H 0.61243 0.64204 0.9921 0.0
C2160 C 0.64024 0.70178 0.93528 0.0
C2161 C 0.65738 0.6892 0.94811 0.0
C2162 C 0.62467 0.6934 0.93267 0.0
C2163 C 0.62601 0.67235 0.94286 0.0
C2164 C 0.64322 0.65972 0.95548 0.0
H2165 H 0.57824 0.58322 0.90827 0.0
H2166 H 0.5971 0.60829 0.90794 0.0
C2167 C 0.65869 0.66812 0.95825 0.0
C2168 C 0.60992 0.66321 0.93958 0.0
H2169 H 0.57617 0.63567 0.97075 0.0
C2170 C 0.60735 0.66286 0.91594 0.0
C2171 C 0.59783 0.65412 0.95957 0.0
C2172 C 0.59868 0.65537 0.98537 0.0
C2173 C 0.59376 0.65269 0.91176 0.0
C2174 C 0.58289 0.64224 0.93177 0.0
C2175 C 0.58469 0.6435 0.9554 0.0
C2176 C 0.57047 0.62893 0.92888 0.0
C2177 C 0.59124 0.65319 0.88599 0.0
C2178 C 0.54928 0.6322 0.94075 0.0
C2179 C 0.53866 0.61773 0.94126 0.0
C2180 C 0.54903 0.5998 0.92983 0.0
C2181 C 0.56984 0.59707 0.91696 0.0
C2182 C 0.58056 0.61143 0.91667 0.0
H2183 H 0.59427 0.66736 0.87388 0.0
H2184 H 0.60319 0.6389 0.87924 0.0
H2185 H 0.57488 0.65327 0.88475 0.0
H2186 H 0.54124 0.64556 0.95033 0.0
H2187 H 0.52254 0.62023 0.95116 0.0
H2188 H 0.95827 0.81609 0.79075 0.0
H2189 H 0.92964 0.85022 0.79037 0.0
H2190 H 0.91421 0.84346 0.72363 0.0
H2191 H 0.94291 0.80931 0.72368 0.0
H2192 H 0.91375 0.88619 0.72678 0.0
H2193 H 0.86579 0.85065 0.80556 0.0
H2194 H 0.89275 0.84782 0.80917 0.0
H2195 H 0.88855 0.83465 0.78753 0.0
C2196 C 0.94897 0.82192 0.77581 0.0
C2197 C 0.95274 0.8098 0.75737 0.0
C2198 C 0.93261 0.84144 0.77566 0.0
C2199 C 0.91969 0.84919 0.75714 0.0
C2200 C 0.92403 0.83769 0.7381 0.0
H2201 H 0.79249 0.92797 0.74535 0.0
H2202 H 0.82805 0.90165 0.74528 0.0
C2203 C 0.9404 0.81814 0.73822 0.0
C2204 C 0.90062 0.86843 0.75851 0.0
H2205 H 0.85018 0.88648 0.78962 0.0
C2206 C 0.89992 0.88641 0.74066 0.0
C2207 C 0.8826 0.86851 0.77658 0.0
C2208 C 0.88225 0.84937 0.79574 0.0
C2209 C 0.88143 0.9044 0.7402 0.0
C2210 C 0.86333 0.90428 0.75801 0.0
C2211 C 0.86423 0.88651 0.77615 0.0
C2212 C 0.84241 0.92129 0.75663 0.0
C2213 C 0.88092 0.92308 0.72019 0.0
C2214 C 0.83878 0.94119 0.76287 0.0
C2215 C 0.81827 0.95643 0.76304 0.0
C2216 C 0.80117 0.95189 0.757 0.0
C2217 C 0.80517 0.93205 0.75025 0.0
C2218 C 0.82553 0.91693 0.75014 0.0
H2219 H 0.8959 0.92018 0.70688 0.0
H2220 H 0.86697 0.92671 0.71051 0.0
H2221 H 0.87882 0.93729 0.7281 0.0
H2222 H 0.85165 0.94473 0.76812 0.0
H2223 H 0.81571 0.97152 0.76837 0.0
H2224 H 0.46408 0.19676 0.62393 0.0
H2225 H 0.46686 0.17071 0.599 0.0
H2226 H 0.48804 0.11996 0.65748 0.0
H2227 H 0.48527 0.1459 0.68257 0.0
H2228 H 0.51193 0.11225 0.61197 0.0
H2229 H 0.42394 0.13798 0.60897 0.0
H2230 H 0.436 0.15874 0.59878 0.0
H2231 H 0.43517 0.14607 0.62992 0.0
C2232 C 0.46925 0.18005 0.63153 0.0
C2233 C 0.47428 0.17341 0.65532 0.0
C2234 C 0.47082 0.1652 0.61726 0.0
C2235 C 0.47727 0.14343 0.62656 0.0
C2236 C 0.48294 0.1367 0.65 0.0
H2237 H 0.48972 0.0263 0.58183 0.0
H2238 H 0.48898 0.05423 0.60274 0.0
C2239 C 0.48144 0.15154 0.66427 0.0
C2240 C 0.47786 0.12766 0.612 0.0
H2241 H 0.44612 0.11181 0.58532 0.0
C2242 C 0.49756 0.11213 0.60615 0.0
C2243 C 0.45906 0.12759 0.60439 0.0
C2244 C 0.43729 0.14335 0.61098 0.0
C2245 C 0.49898 0.09657 0.59279 0.0
C2246 C 0.48014 0.09638 0.58544 0.0
C2247 C 0.46051 0.11206 0.59098 0.0
C2248 C 0.48035 0.07958 0.57268 0.0
C2249 C 0.52065 0.08056 0.58644 0.0
C2250 C 0.47516 0.0847 0.54906 0.0
C2251 C 0.47546 0.06877 0.53704 0.0
C2252 C 0.48078 0.04746 0.54855 0.0
C2253 C 0.48556 0.04252 0.5724 0.0
C2254 C 0.48531 0.05843 0.58435 0.0
H2255 H 0.53409 0.086 0.58802 0.0
H2256 H 0.52188 0.0654 0.59907 0.0
H2257 H 0.52262 0.07739 0.56771 0.0
H2258 H 0.47117 0.10098 0.53981 0.0
H2259 H 0.4718 0.07313 0.51863 0.0
H2260 H 0.48887 0.31254 0.89598 0.0
H2261 H 0.48528 0.33784 0.92242 0.0
H2262 H 0.54535 0.34674 0.88539 0.0
H2263 H 0.54907 0.32158 0.85906 0.0
H2264 H 0.54165 0.34241 0.93545 0.0
H2265 H 0.46891 0.40205 0.90025 0.0
H2266 H 0.46667 0.3761 0.91237 0.0
H2267 H 0.4853 0.37969 0.88547 0.0
C2268 C 0.50127 0.31994 0.89348 0.0
C2269 C 0.51924 0.31508 0.87542 0.0
C2270 C 0.4992 0.33436 0.90858 0.0
C2271 C 0.51494 0.34433 0.90566 0.0
C2272 C 0.53306 0.33918 0.88799 0.0
H2273 H 0.50879 0.46185 0.9408 0.0
H2274 H 0.51203 0.43141 0.92276 0.0
C2275 C 0.53518 0.32474 0.873 0.0
C2276 C 0.51246 0.3606 0.92042 0.0
H2277 H 0.48183 0.41054 0.93074 0.0
C2278 C 0.5285 0.35726 0.9346 0.0
C2279 C 0.49538 0.38002 0.91904 0.0
C2280 C 0.47815 0.38486 0.90333 0.0
C2281 C 0.52815 0.37299 0.94709 0.0
C2282 C 0.51112 0.39243 0.94562 0.0
C2283 C 0.49484 0.39558 0.93186 0.0
C2284 C 0.51046 0.41026 0.95693 0.0
C2285 C 0.54642 0.36901 0.96098 0.0
C2286 C 0.50873 0.40839 0.98217 0.0
C2287 C 0.50705 0.42576 0.99259 0.0
C2288 C 0.50682 0.44536 0.97793 0.0
C2289 C 0.5089 0.44702 0.95264 0.0
C2290 C 0.5107 0.42965 0.94228 0.0
H2291 H 0.56049 0.35531 0.95595 0.0
H2292 H 0.55173 0.38325 0.95773 0.0
H2293 H 0.54086 0.3655 0.98066 0.0
H2294 H 0.50814 0.39367 0.99384 0.0
H2295 H 0.50532 0.42398 1.01213 0.0
H2296 H 0.53195 0.80509 0.38621 0.0
H2297 H 0.5287 0.83236 0.40961 0.0
H2298 H 0.49806 0.88099 0.35407 0.0
H2299 H 0.50135 0.85381 0.33045 0.0
H2300 H 0.54581 0.86592 0.39587 0.0
H2301 H 0.45656 0.89512 0.41629 0.0
H2302 H 0.47104 0.87037 0.40524 0.0
H2303 H 0.46696 0.89508 0.38468 0.0
C2304 C 0.52457 0.8216 0.37893 0.0
C2305 C 0.51689 0.82728 0.35646 0.0
C2306 C 0.52266 0.83714 0.39236 0.0
C2307 C 0.51295 0.85867 0.38369 0.0
C2308 C 0.50524 0.86444 0.3613 0.0
H2309 H 0.52148 0.96576 0.43733 0.0
H2310 H 0.5253 0.93919 0.41259 0.0
C2311 C 0.50711 0.84888 0.34785 0.0
C2312 C 0.51138 0.87505 0.39789 0.0
H2313 H 0.47549 0.91442 0.4275 0.0
C2314 C 0.53045 0.87655 0.40279 0.0
C2315 C 0.4913 0.88872 0.40708 0.0
C2316 C 0.47027 0.88719 0.40328 0.0
C2317 C 0.52999 0.89145 0.41657 0.0
C2318 C 0.50993 0.90538 0.42537 0.0
C2319 C 0.49085 0.90382 0.42055 0.0
C2320 C 0.50827 0.92121 0.44039 0.0
C2321 C 0.55094 0.89181 0.42209 0.0
C2322 C 0.49724 0.92003 0.46409 0.0
C2323 C 0.49495 0.93519 0.47822 0.0
C2324 C 0.50357 0.95195 0.46889 0.0
C2325 C 0.51476 0.95301 0.44514 0.0
C2326 C 0.51703 0.9378 0.431 0.0
H2327 H 0.56432 0.87702 0.41891 0.0
H2328 H 0.55531 0.90537 0.41013 0.0
H2329 H 0.54937 0.89391 0.44118 0.0
H2330 H 0.49033 0.90737 0.47166 0.0
H2331 H 0.48621 0.93384 0.49641 0.0
H2332 H 0.44823 0.54345 0.0706 0.0
H2333 H 0.44259 0.5719 0.09339 0.0
H2334 H 0.49099 0.59307 0.04212 0.0
H2335 H 0.49641 0.56514 0.01903 0.0
H2336 H 0.4727 0.57686 0.11527 0.0
H2337 H 0.44299 0.64847 0.04793 0.0
H2338 H 0.44396 0.62241 0.04452 0.0
H2339 H 0.46789 0.63022 0.03642 0.0
C2340 C 0.45742 0.55437 0.06395 0.0
C2341 C 0.47274 0.55201 0.04294 0.0
C2342 C 0.4542 0.5706 0.07702 0.0
C2343 C 0.46616 0.58478 0.06927 0.0
C2344 C 0.4812 0.58265 0.04812 0.0
H2345 H 0.48805 0.67932 0.1318 0.0
H2346 H 0.48951 0.65367 0.10679 0.0
C2347 C 0.48437 0.56653 0.03501 0.0
C2348 C 0.46412 0.60081 0.08419 0.0
H2349 H 0.45452 0.65376 0.0823 0.0
C2350 C 0.46851 0.59369 0.10814 0.0
C2351 C 0.45877 0.62275 0.07479 0.0
C2352 C 0.45293 0.63146 0.04958 0.0
C2353 C 0.46813 0.60788 0.12279 0.0
C2354 C 0.46304 0.62975 0.1133 0.0
C2355 C 0.45854 0.63693 0.08942 0.0
C2356 C 0.46198 0.64544 0.1281 0.0
C2357 C 0.47363 0.59934 0.14817 0.0
C2358 C 0.44589 0.64937 0.14813 0.0
C2359 C 0.44503 0.66393 0.16239 0.0
C2360 C 0.46023 0.67486 0.15685 0.0
C2361 C 0.47625 0.671 0.13663 0.0
C2362 C 0.47704 0.65647 0.12228 0.0
H2363 H 0.48156 0.58187 0.15093 0.0
H2364 H 0.48441 0.60701 0.15223 0.0
H2365 H 0.45862 0.60294 0.16134 0.0
H2366 H 0.43403 0.64113 0.15276 0.0
H2367 H 0.43264 0.66637 0.17799 0.0
loop_
_geom_bond_atom_site_label_1
_geom_bond_atom_site_label_2
_geom_bond_distance
_geom_bond_site_symmetry_2
_ccdc_geom_bond_type
Tb0 C9 2.764 . S
Tb0 O10 2.325 1_456 S
Tb0 O13 2.303 1_546 S
Tb0 O17 2.322 1_545 S
Tb0 O18 2.349 1_455 S
Tb0 O21 2.415 . S
Tb0 O22 2.399 . S
Tb1 O11 2.322 1_565 S
Tb1 O12 2.349 1_655 S
Tb1 O14 2.415 . S
Tb1 O15 2.399 . S
Tb1 O16 2.325 1_654 S
Tb1 O19 2.303 1_564 S
Tb1 C30 2.764 . S
C2 O18 1.261 . S
C2 O19 1.257 . S
C3 C6 1.358 . S
C3 C7 1.332 . S
C3 C9 1.504 . S
C4 C5 1.373 . S
C4 C8 1.308 . S
C5 C4 1.373 . S
C5 C6 1.429 . S
C5 H32 0.932 . S
C6 C3 1.358 . S
C6 C5 1.429 . S
C6 H33 0.930 . S
C7 C3 1.332 . S
C7 C8 1.394 . S
C7 H34 0.893 1_556 S
C8 C4 1.308 . S
C8 C7 1.394 . S
C8 H35 0.929 . S
C9 Tb0 2.764 . S
C9 C3 1.504 . S
C9 O21 1.239 . S
C9 O22 1.263 . S
O10 Tb0 2.325 1_654 S
O10 C20 1.236 . S
O11 Tb1 2.322 1_545 S
O11 C20 1.257 . S
O12 Tb1 2.349 1_455 S
O12 C23 1.261 . S
O13 Tb0 2.303 1_564 S
O13 C23 1.257 . S
O14 Tb1 2.415 . S
O14 C30 1.239 . S
O15 Tb1 2.399 . S
O15 C30 1.263 . S
O16 Tb1 2.325 1_456 S
O16 C31 1.236 . S
O17 Tb0 2.322 1_565 S
O17 C31 1.257 . S
O18 Tb0 2.349 1_655 S
O18 C2 1.261 . S
O19 Tb1 2.303 1_546 S
O19 C2 1.257 . S
C20 O10 1.236 . S
C20 O11 1.257 . S
O21 Tb0 2.415 . S
O21 C9 1.239 . S
O22 Tb0 2.399 . S
O22 C9 1.263 . S
C23 O12 1.261 . S
C23 O13 1.257 . S
C24 C27 1.358 . S
C24 C28 1.332 . S
C24 C30 1.504 . S
C25 C26 1.373 . S
C25 C29 1.308 . S
C26 C25 1.373 . S
C26 C27 1.429 . S
C26 H36 0.932 . S
C27 C24 1.358 . S
C27 C26 1.429 . S
C27 H37 0.930 . S
C28 C24 1.332 . S
C28 C29 1.394 . S
C28 H38 0.916 1_554 S
C29 C25 1.308 . S
C29 C28 1.394 . S
C29 H39 0.929 . S
C30 Tb1 2.764 . S
C30 O14 1.239 . S
C30 O15 1.263 . S
C30 C24 1.504 . S
C31 O16 1.236 . S
C31 O17 1.257 . S
H32 C5 0.932 . S
H33 C6 0.930 . S
H34 C7 0.893 1_554 S
H35 C8 0.929 . S
H36 C26 0.932 . S
H37 C27 0.930 . S
H38 C28 0.916 1_556 S
H39 C29 0.929 . S
Tb40 C49 2.764 . S
Tb40 O50 2.325 1_655 S
Tb40 O53 2.303 1_655 S
Tb40 O57 2.322 . S
Tb40 O58 2.349 . S
Tb40 O61 2.415 1_655 S
Tb40 O62 2.399 . S
Tb41 O51 2.322 . S
Tb41 O52 2.349 . S
Tb41 O54 2.415 1_455 S
Tb41 O55 2.399 . S
Tb41 O56 2.325 1_455 S
Tb41 O59 2.303 1_455 S
Tb41 C70 2.764 . S
C42 O58 1.261 . S
C42 O59 1.257 . S
C43 C46 1.358 . S
C43 C47 1.332 1_655 S
C43 C49 1.504 . S
C44 C45 1.373 1_455 S
C44 C48 1.308 . S
C45 C44 1.373 1_655 S
C45 C46 1.429 . S
C45 H72 0.932 . S
C46 C43 1.358 . S
C46 C45 1.429 . S
C46 H73 0.930 . S
C47 C43 1.332 1_455 S
C47 C48 1.394 . S
C47 H74 0.932 . S
C48 C44 1.308 . S
C48 C47 1.394 . S
C48 H75 0.929 . S
C49 Tb40 2.764 . S
C49 C43 1.504 . S
C49 O61 1.239 1_655 S
C49 O62 1.263 . S
O50 Tb40 2.325 1_455 S
O50 C60 1.236 . S
O51 Tb41 2.322 . S
O51 C60 1.257 . S
O52 Tb41 2.349 . S
O52 C63 1.261 . S
O53 Tb40 2.303 1_455 S
O53 C63 1.257 . S
O54 Tb41 2.415 1_655 S
O54 C70 1.239 1_655 S
O55 Tb41 2.399 . S
O55 C70 1.263 . S
O56 Tb41 2.325 1_655 S
O56 C71 1.236 . S
O57 Tb40 2.322 . S
O57 C71 1.257 . S
O58 Tb40 2.349 . S
O58 C42 1.261 . S
O59 Tb41 2.303 1_655 S
O59 C42 1.257 . S
C60 O50 1.236 . S
C60 O51 1.257 . S
O61 Tb40 2.415 1_455 S
O61 C49 1.239 1_455 S
O62 Tb40 2.399 . S
O62 C49 1.263 . S
C63 O52 1.261 . S
C63 O53 1.257 . S
C64 C67 1.358 . S
C64 C68 1.332 1_455 S
C64 C70 1.504 . S
C65 C66 1.373 1_655 S
C65 C69 1.308 . S
C66 C65 1.373 1_455 S
C66 C67 1.429 . S
C66 H76 0.932 . S
C67 C64 1.358 . S
C67 C66 1.429 . S
C67 H77 0.930 . S
C68 C64 1.332 1_655 S
C68 C69 1.394 . S
C68 H78 0.932 . S
C69 C65 1.308 . S
C69 C68 1.394 . S
C69 H79 0.929 . S
C70 Tb41 2.764 . S
C70 O54 1.239 1_455 S
C70 O55 1.263 . S
C70 C64 1.504 . S
C71 O56 1.236 . S
C71 O57 1.257 . S
H72 C45 0.932 . S
H73 C46 0.930 . S
H74 C47 0.932 . S
H75 C48 0.929 . S
H76 C66 0.932 . S
H77 C67 0.930 . S
H78 C68 0.932 . S
H79 C69 0.929 . S
Tb80 C89 2.764 . S
Tb80 O90 2.325 . S
Tb80 O93 2.303 . S
Tb80 O97 2.322 . S
Tb80 O98 2.349 . S
Tb80 O101 2.415 . S
Tb80 O102 2.399 . S
Tb81 O91 2.322 . S
Tb81 O92 2.349 . S
Tb81 O94 2.415 . S
Tb81 O95 2.399 . S
Tb81 O96 2.325 . S
Tb81 O99 2.303 . S
Tb81 C110 2.764 . S
C82 O98 1.261 . S
C82 O99 1.257 . S
C83 C86 1.358 . S
C83 C87 1.332 . S
C83 C89 1.504 . S
C84 C85 1.373 . S
C84 C88 1.308 . S
C85 C84 1.373 . S
C85 C86 1.429 . S
C85 H112 0.932 . S
C86 C83 1.358 . S
C86 C85 1.429 . S
C86 H113 0.930 . S
C87 C83 1.332 . S
C87 C88 1.394 . S
C87 H114 0.932 . S
C88 C84 1.308 . S
C88 C87 1.394 . S
C88 H115 0.929 . S
C89 Tb80 2.764 . S
C89 C83 1.504 . S
C89 O101 1.239 . S
C89 O102 1.263 . S
O90 Tb80 2.325 . S
O90 C100 1.236 . S
O91 Tb81 2.322 . S
O91 C100 1.257 . S
O92 Tb81 2.349 . S
O92 C103 1.261 . S
O93 Tb80 2.303 . S
O93 C103 1.257 . S
O94 Tb81 2.415 . S
O94 C110 1.239 . S
O95 Tb81 2.399 . S
O95 C110 1.263 . S
O96 Tb81 2.325 . S
O96 C111 1.236 . S
O97 Tb80 2.322 . S
O97 C111 1.257 . S
O98 Tb80 2.349 . S
O98 C82 1.261 . S
O99 Tb81 2.303 . S
O99 C82 1.257 . S
C100 O90 1.236 . S
C100 O91 1.257 . S
O101 Tb80 2.415 . S
O101 C89 1.239 . S
O102 Tb80 2.399 . S
O102 C89 1.263 . S
C103 O92 1.261 . S
C103 O93 1.257 . S
C104 C107 1.358 . S
C104 C108 1.332 . S
C104 C110 1.504 . S
C105 C106 1.373 . S
C105 C109 1.308 . S
C106 C105 1.373 . S
C106 C107 1.429 . S
C106 H116 0.932 . S
C107 C104 1.358 . S
C107 C106 1.429 . S
C107 H117 0.930 . S
C108 C104 1.332 . S
C108 C109 1.394 . S
C108 H118 0.932 . S
C109 C105 1.308 . S
C109 C108 1.394 . S
C109 H119 0.929 . S
C110 Tb81 2.764 . S
C110 O94 1.239 . S
C110 O95 1.263 . S
C110 C104 1.504 . S
C111 O96 1.236 . S
C111 O97 1.257 . S
H112 C85 0.932 . S
H113 C86 0.930 . S
H114 C87 0.932 . S
H115 C88 0.929 . S
H116 C106 0.932 . S
H117 C107 0.930 . S
H118 C108 0.932 . S
H119 C109 0.929 . S
Tb120 C129 2.764 . S
Tb120 O130 2.325 1_545 S
Tb120 O133 2.303 1_545 S
Tb120 O137 2.322 . S
Tb120 O138 2.349 . S
Tb120 O141 2.415 1_545 S
Tb120 O142 2.399 . S
Tb121 O131 2.322 . S
Tb121 O132 2.349 . S
Tb121 O134 2.415 1_565 S
Tb121 O135 2.399 . S
Tb121 O136 2.325 1_565 S
Tb121 O139 2.303 1_565 S
Tb121 C150 2.764 . S
C122 O138 1.261 . S
C122 O139 1.257 . S
C123 C126 1.358 . S
C123 C127 1.332 1_545 S
C123 C129 1.504 . S
C124 C125 1.373 1_565 S
C124 C128 1.308 . S
C125 C124 1.373 1_545 S
C125 C126 1.429 . S
C125 H152 0.932 . S
C126 C123 1.358 . S
C126 C125 1.429 . S
C126 H153 0.930 . S
C127 C123 1.332 1_565 S
C127 C128 1.394 . S
C127 H154 0.932 . S
C128 C124 1.308 . S
C128 C127 1.394 . S
C128 H155 0.929 . S
C129 Tb120 2.764 . S
C129 C123 1.504 . S
C129 O141 1.239 1_545 S
C129 O142 1.263 . S
O130 Tb120 2.325 1_565 S
O130 C140 1.236 . S
O131 Tb121 2.322 . S
O131 C140 1.257 . S
O132 Tb121 2.349 . S
O132 C143 1.261 . S
O133 Tb120 2.303 1_565 S
O133 C143 1.257 . S
O134 Tb121 2.415 1_545 S
O134 C150 1.239 1_545 S
O135 Tb121 2.399 . S
O135 C150 1.263 . S
O136 Tb121 2.325 1_545 S
O136 C151 1.236 . S
O137 Tb120 2.322 . S
O137 C151 1.257 . S
O138 Tb120 2.349 . S
O138 C122 1.261 . S
O139 Tb121 2.303 1_545 S
O139 C122 1.257 . S
C140 O130 1.236 . S
C140 O131 1.257 . S
O141 Tb120 2.415 1_565 S
O141 C129 1.239 1_565 S
O142 Tb120 2.399 . S
O142 C129 1.263 . S
C143 O132 1.261 . S
C143 O133 1.257 . S
C144 C147 1.358 . S
C144 C148 1.332 1_565 S
C144 C150 1.504 . S
C145 C146 1.373 1_545 S
C145 C149 1.308 . S
C146 C145 1.373 1_565 S
C146 C147 1.429 . S
C146 H156 0.932 . S
C147 C144 1.358 . S
C147 C146 1.429 . S
C147 H157 0.930 . S
C148 C144 1.332 1_545 S
C148 C149 1.394 . S
C148 H158 0.932 . S
C149 C145 1.308 . S
C149 C148 1.394 . S
C149 H159 0.929 . S
C150 Tb121 2.764 . S
C150 O134 1.239 1_565 S
C150 O135 1.263 . S
C150 C144 1.504 . S
C151 O136 1.236 . S
C151 O137 1.257 . S
H152 C125 0.932 . S
H153 C126 0.930 . S
H154 C127 0.932 . S
H155 C128 0.929 . S
H156 C146 0.932 . S
H157 C147 0.930 . S
H158 C148 0.932 . S
H159 C149 0.929 . S
Tb160 C169 2.764 . S
Tb160 O170 2.325 . S
Tb160 O173 2.303 . S
Tb160 O177 2.322 . S
Tb160 O178 2.349 . S
Tb160 O181 2.415 . S
Tb160 O182 2.399 . S
Tb161 O171 2.322 . S
Tb161 O172 2.349 . S
Tb161 O174 2.415 . S
Tb161 O175 2.399 . S
Tb161 O176 2.325 . S
Tb161 O179 2.303 . S
Tb161 C190 2.764 . S
C162 O178 1.261 . S
C162 O179 1.257 . S
C163 C166 1.358 . S
C163 C167 1.332 . S
C163 C169 1.504 . S
C164 C165 1.373 . S
C164 C168 1.308 . S
C165 C164 1.373 . S
C165 C166 1.429 . S
C165 H192 0.932 . S
C166 C163 1.358 . S
C166 C165 1.429 . S
C166 H193 0.930 . S
C167 C163 1.332 . S
C167 C168 1.394 . S
C167 H194 0.932 . S
C168 C164 1.308 . S
C168 C167 1.394 . S
C168 H195 0.929 . S
C169 Tb160 2.764 . S
C169 C163 1.504 . S
C169 O181 1.239 . S
C169 O182 1.263 . S
O170 Tb160 2.325 . S
O170 C180 1.236 . S
O171 Tb161 2.322 . S
O171 C180 1.257 . S
O172 Tb161 2.349 . S
O172 C183 1.261 . S
O173 Tb160 2.303 . S
O173 C183 1.257 . S
O174 Tb161 2.415 . S
O174 C190 1.239 . S
O175 Tb161 2.399 . S
O175 C190 1.263 . S
O176 Tb161 2.325 . S
O176 C191 1.236 . S
O177 Tb160 2.322 . S
O177 C191 1.257 . S
O178 Tb160 2.349 . S
O178 C162 1.261 . S
O179 Tb161 2.303 . S
O179 C162 1.257 . S
C180 O170 1.236 . S
C180 O171 1.257 . S
O181 Tb160 2.415 . S
O181 C169 1.239 . S
O182 Tb160 2.399 . S
O182 C169 1.263 . S
C183 O172 1.261 . S
C183 O173 1.257 . S
C184 C187 1.358 . S
C184 C188 1.332 . S
C184 C190 1.504 . S
C185 C186 1.373 . S
C185 C189 1.308 . S
C186 C185 1.373 . S
C186 C187 1.429 . S
C186 H196 0.932 . S
C187 C184 1.358 . S
C187 C186 1.429 . S
C187 H197 0.930 . S
C188 C184 1.332 . S
C188 C189 1.394 . S
C188 H198 0.932 . S
C189 C185 1.308 . S
C189 C188 1.394 . S
C189 H199 0.929 . S
C190 Tb161 2.764 . S
C190 O174 1.239 . S
C190 O175 1.263 . S
C190 C184 1.504 . S
C191 O176 1.236 . S
C191 O177 1.257 . S
H192 C165 0.932 . S
H193 C166 0.930 . S
H194 C167 0.932 . S
H195 C168 0.929 . S
H196 C186 0.932 . S
H197 C187 0.930 . S
H198 C188 0.932 . S
H199 C189 0.929 . S
Tb200 C209 2.764 . S
Tb200 O210 2.325 . S
Tb200 O213 2.303 . S
Tb200 O217 2.322 . S
Tb200 O218 2.349 . S
Tb200 O221 2.415 . S
Tb200 O222 2.399 . S
Tb201 O211 2.322 . S
Tb201 O212 2.349 . S
Tb201 O214 2.415 . S
Tb201 O215 2.399 . S
Tb201 O216 2.325 . S
Tb201 O219 2.303 . S
Tb201 C230 2.764 . S
C202 O218 1.261 . S
C202 O219 1.257 . S
C203 C206 1.358 . S
C203 C207 1.332 . S
C203 C209 1.504 . S
C204 C205 1.373 . S
C204 C208 1.308 . S
C205 C204 1.373 . S
C205 C206 1.429 . S
C205 H232 0.932 . S
C206 C203 1.358 . S
C206 C205 1.429 . S
C206 H233 0.930 . S
C207 C203 1.332 . S
C207 C208 1.394 . S
C207 H234 0.932 . S
C208 C204 1.308 . S
C208 C207 1.394 . S
C208 H235 0.929 . S
C209 Tb200 2.764 . S
C209 C203 1.504 . S
C209 O221 1.239 . S
C209 O222 1.263 . S
O210 Tb200 2.325 . S
O210 C220 1.236 . S
O211 Tb201 2.322 . S
O211 C220 1.257 . S
O212 Tb201 2.349 . S
O212 C223 1.261 . S
O213 Tb200 2.303 . S
O213 C223 1.257 . S
O214 Tb201 2.415 . S
O214 C230 1.239 . S
O215 Tb201 2.399 . S
O215 C230 1.263 . S
O216 Tb201 2.325 . S
O216 C231 1.236 . S
O217 Tb200 2.322 . S
O217 C231 1.257 . S
O218 Tb200 2.349 . S
O218 C202 1.261 . S
O219 Tb201 2.303 . S
O219 C202 1.257 . S
C220 O210 1.236 . S
C220 O211 1.257 . S
O221 Tb200 2.415 . S
O221 C209 1.239 . S
O222 Tb200 2.399 . S
O222 C209 1.263 . S
C223 O212 1.261 . S
C223 O213 1.257 . S
C224 C227 1.358 . S
C224 C228 1.332 . S
C224 C230 1.504 . S
C225 C226 1.373 . S
C225 C229 1.308 . S
C226 C225 1.373 . S
C226 C227 1.429 . S
C226 H236 0.932 . S
C227 C224 1.358 . S
C227 C226 1.429 . S
C227 H237 0.930 . S
C228 C224 1.332 . S
C228 C229 1.394 . S
C228 H238 0.932 . S
C229 C225 1.308 . S
C229 C228 1.394 . S
C229 H239 0.929 . S
C230 Tb201 2.764 . S
C230 O214 1.239 . S
C230 O215 1.263 . S
C230 C224 1.504 . S
C231 O216 1.236 . S
C231 O217 1.257 . S
H232 C205 0.932 . S
H233 C206 0.930 . S
H234 C207 0.932 . S
H235 C208 0.929 . S
H236 C226 0.932 . S
H237 C227 0.930 . S
H238 C228 0.932 . S
H239 C229 0.929 . S
Tb240 C249 2.764 . S
Tb240 O250 2.325 . S
Tb240 O253 2.303 . S
Tb240 O257 2.322 . S
Tb240 O258 2.349 . S
Tb240 O261 2.415 . S
Tb240 O262 2.399 . S
Tb241 O251 2.322 . S
Tb241 O252 2.349 . S
Tb241 O254 2.415 . S
Tb241 O255 2.399 . S
Tb241 O256 2.325 . S
Tb241 O259 2.303 . S
Tb241 C270 2.764 . S
C242 O258 1.261 . S
C242 O259 1.257 . S
C243 C246 1.358 . S
C243 C247 1.332 . S
C243 C249 1.504 . S
C244 C245 1.373 . S
C244 C248 1.308 . S
C245 C244 1.373 . S
C245 C246 1.429 . S
C245 H272 0.932 . S
C246 C243 1.358 . S
C246 C245 1.429 . S
C246 H273 0.930 . S
C247 C243 1.332 . S
C247 C248 1.394 . S
C247 H274 0.932 . S
C248 C244 1.308 . S
C248 C247 1.394 . S
C248 H275 0.929 . S
C249 Tb240 2.764 . S
C249 C243 1.504 . S
C249 O261 1.239 . S
C249 O262 1.263 . S
O250 Tb240 2.325 . S
O250 C260 1.236 . S
O251 Tb241 2.322 . S
O251 C260 1.257 . S
O252 Tb241 2.349 . S
O252 C263 1.261 . S
O253 Tb240 2.303 . S
O253 C263 1.257 . S
O254 Tb241 2.415 . S
O254 C270 1.239 . S
O255 Tb241 2.399 . S
O255 C270 1.263 . S
O256 Tb241 2.325 . S
O256 C271 1.236 . S
O257 Tb240 2.322 . S
O257 C271 1.257 . S
O258 Tb240 2.349 . S
O258 C242 1.261 . S
O259 Tb241 2.303 . S
O259 C242 1.257 . S
C260 O250 1.236 . S
C260 O251 1.257 . S
O261 Tb240 2.415 . S
O261 C249 1.239 . S
O262 Tb240 2.399 . S
O262 C249 1.263 . S
C263 O252 1.261 . S
C263 O253 1.257 . S
C264 C267 1.358 . S
C264 C268 1.332 . S
C264 C270 1.504 . S
C265 C266 1.373 . S
C265 C269 1.308 . S
C266 C265 1.373 . S
C266 C267 1.429 . S
C266 H276 0.932 . S
C267 C264 1.358 . S
C267 C266 1.429 . S
C267 H277 0.930 . S
C268 C264 1.332 . S
C268 C269 1.394 . S
C268 H278 0.932 . S
C269 C265 1.308 . S
C269 C268 1.394 . S
C269 H279 0.929 . S
C270 Tb241 2.764 . S
C270 O254 1.239 . S
C270 O255 1.263 . S
C270 C264 1.504 . S
C271 O256 1.236 . S
C271 O257 1.257 . S
H272 C245 0.932 . S
H273 C246 0.930 . S
H274 C247 0.932 . S
H275 C248 0.929 . S
H276 C266 0.932 . S
H277 C267 0.930 . S
H278 C268 0.932 . S
H279 C269 0.929 . S
Tb280 C289 2.764 . S
Tb280 O290 2.325 1_455 S
Tb280 O293 2.303 . S
Tb280 O297 2.322 . S
Tb280 O298 2.349 1_455 S
Tb280 O301 2.415 . S
Tb280 O302 2.399 . S
Tb281 O291 2.322 . S
Tb281 O292 2.349 1_655 S
Tb281 O294 2.415 . S
Tb281 O295 2.399 . S
Tb281 O296 2.325 1_655 S
Tb281 O299 2.303 . S
Tb281 C310 2.764 . S
C282 O298 1.261 . S
C282 O299 1.257 . S
C283 C286 1.358 . S
C283 C287 1.332 . S
C283 C289 1.504 . S
C284 C285 1.373 . S
C284 C288 1.308 . S
C285 C284 1.373 . S
C285 C286 1.429 . S
C285 H312 0.932 . S
C286 C283 1.358 . S
C286 C285 1.429 . S
C286 H313 0.930 . S
C287 C283 1.332 . S
C287 C288 1.394 . S
C287 H314 0.932 . S
C288 C284 1.308 . S
C288 C287 1.394 . S
C288 H315 0.929 . S
C289 Tb280 2.764 . S
C289 C283 1.504 . S
C289 O301 1.239 . S
C289 O302 1.263 . S
O290 Tb280 2.325 1_655 S
O290 C300 1.236 . S
O291 Tb281 2.322 . S
O291 C300 1.257 . S
O292 Tb281 2.349 1_455 S
O292 C303 1.261 . S
O293 Tb280 2.303 . S
O293 C303 1.257 . S
O294 Tb281 2.415 . S
O294 C310 1.239 . S
O295 Tb281 2.399 . S
O295 C310 1.263 . S
O296 Tb281 2.325 1_455 S
O296 C311 1.236 . S
O297 Tb280 2.322 . S
O297 C311 1.257 . S
O298 Tb280 2.349 1_655 S
O298 C282 1.261 . S
O299 Tb281 2.303 . S
O299 C282 1.257 . S
C300 O290 1.236 . S
C300 O291 1.257 . S
O301 Tb280 2.415 . S
O301 C289 1.239 . S
O302 Tb280 2.399 . S
O302 C289 1.263 . S
C303 O292 1.261 . S
C303 O293 1.257 . S
C304 C307 1.358 . S
C304 C308 1.332 . S
C304 C310 1.504 . S
C305 C306 1.373 . S
C305 C309 1.308 . S
C306 C305 1.373 . S
C306 C307 1.429 . S
C306 H316 0.932 . S
C307 C304 1.358 . S
C307 C306 1.429 . S
C307 H317 0.930 . S
C308 C304 1.332 . S
C308 C309 1.394 . S
C308 H318 0.932 . S
C309 C305 1.308 . S
C309 C308 1.394 . S
C309 H319 0.929 . S
C310 Tb281 2.764 . S
C310 O294 1.239 . S
C310 O295 1.263 . S
C310 C304 1.504 . S
C311 O296 1.236 . S
C311 O297 1.257 . S
H312 C285 0.932 . S
H313 C286 0.930 . S
H314 C287 0.932 . S
H315 C288 0.929 . S
H316 C306 0.932 . S
H317 C307 0.930 . S
H318 C308 0.932 . S
H319 C309 0.929 . S
Tb320 C329 2.764 . S
Tb320 O330 2.325 1_554 S
Tb320 O333 2.303 1_554 S
Tb320 O337 2.322 . S
Tb320 O338 2.349 . S
Tb320 O341 2.415 . S
Tb320 O342 2.399 . S
Tb321 O331 2.322 . S
Tb321 O332 2.349 . S
Tb321 O334 2.415 . S
Tb321 O335 2.399 . S
Tb321 O336 2.325 1_556 S
Tb321 O339 2.303 1_556 S
Tb321 C350 2.764 . S
C322 O338 1.261 . S
C322 O339 1.257 . S
C323 C326 1.358 . S
C323 C327 1.332 1_554 S
C323 C329 1.504 . S
C324 C325 1.373 . S
C324 C328 1.308 1_554 S
C325 C324 1.373 . S
C325 C326 1.429 . S
C325 H352 0.932 . S
C326 C323 1.358 . S
C326 C325 1.429 . S
C326 H353 0.930 . S
C327 C323 1.332 1_556 S
C327 C328 1.394 . S
C327 H354 0.932 . S
C328 C324 1.308 1_556 S
C328 C327 1.394 . S
C328 H355 0.929 . S
C329 Tb320 2.764 . S
C329 C323 1.504 . S
C329 O341 1.239 . S
C329 O342 1.263 . S
O330 Tb320 2.325 1_556 S
O330 C340 1.236 . S
O331 Tb321 2.322 . S
O331 C340 1.257 . S
O332 Tb321 2.349 . S
O332 C343 1.261 . S
O333 Tb320 2.303 1_556 S
O333 C343 1.257 . S
O334 Tb321 2.415 . S
O334 C350 1.239 . S
O335 Tb321 2.399 . S
O335 C350 1.263 . S
O336 Tb321 2.325 1_554 S
O336 C351 1.236 . S
O337 Tb320 2.322 . S
O337 C351 1.257 . S
O338 Tb320 2.349 . S
O338 C322 1.261 . S
O339 Tb321 2.303 1_554 S
O339 C322 1.257 . S
C340 O330 1.236 . S
C340 O331 1.257 . S
O341 Tb320 2.415 . S
O341 C329 1.239 . S
O342 Tb320 2.399 . S
O342 C329 1.263 . S
C343 O332 1.261 . S
C343 O333 1.257 . S
C344 C347 1.358 . S
C344 C348 1.332 1_556 S
C344 C350 1.504 . S
C345 C346 1.373 . S
C345 C349 1.308 1_556 S
C346 C345 1.373 . S
C346 C347 1.429 . S
C346 H356 0.932 . S
C347 C344 1.358 . S
C347 C346 1.429 . S
C347 H357 0.930 . S
C348 C344 1.332 1_554 S
C348 C349 1.394 . S
C348 H358 0.932 . S
C349 C345 1.308 1_554 S
C349 C348 1.394 . S
C349 H359 0.929 . S
C350 Tb321 2.764 . S
C350 O334 1.239 . S
C350 O335 1.263 . S
C350 C344 1.504 . S
C351 O336 1.236 . S
C351 O337 1.257 . S
H352 C325 0.932 . S
H353 C326 0.930 . S
H354 C327 0.932 . S
H355 C328 0.929 . S
H356 C346 0.932 . S
H357 C347 0.930 . S
H358 C348 0.932 . S
H359 C349 0.929 . S
Tb360 C369 2.764 . S
Tb360 O370 2.325 1_545 S
Tb360 O373 2.303 1_545 S
Tb360 O377 2.322 . S
Tb360 O378 2.349 . S
Tb360 O381 2.415 1_545 S
Tb360 O382 2.399 . S
Tb361 O371 2.322 . S
Tb361 O372 2.349 . S
Tb361 O374 2.415 1_565 S
Tb361 O375 2.399 . S
Tb361 O376 2.325 1_565 S
Tb361 O379 2.303 1_565 S
Tb361 C390 2.764 . S
C362 O378 1.261 . S
C362 O379 1.257 . S
C363 C366 1.358 . S
C363 C367 1.332 1_545 S
C363 C369 1.504 . S
C364 C365 1.373 1_565 S
C364 C368 1.308 . S
C365 C364 1.373 1_545 S
C365 C366 1.429 . S
C365 H392 0.932 . S
C366 C363 1.358 . S
C366 C365 1.429 . S
C366 H393 0.930 . S
C367 C363 1.332 1_565 S
C367 C368 1.394 . S
C367 H394 0.932 . S
C368 C364 1.308 . S
C368 C367 1.394 . S
C368 H395 0.929 . S
C369 Tb360 2.764 . S
C369 C363 1.504 . S
C369 O381 1.239 1_545 S
C369 O382 1.263 . S
O370 Tb360 2.325 1_565 S
O370 C380 1.236 . S
O371 Tb361 2.322 . S
O371 C380 1.257 . S
O372 Tb361 2.349 . S
O372 C383 1.261 . S
O373 Tb360 2.303 1_565 S
O373 C383 1.257 . S
O374 Tb361 2.415 1_545 S
O374 C390 1.239 1_545 S
O375 Tb361 2.399 . S
O375 C390 1.263 . S
O376 Tb361 2.325 1_545 S
O376 C391 1.236 . S
O377 Tb360 2.322 . S
O377 C391 1.257 . S
O378 Tb360 2.349 . S
O378 C362 1.261 . S
O379 Tb361 2.303 1_545 S
O379 C362 1.257 . S
C380 O370 1.236 . S
C380 O371 1.257 . S
O381 Tb360 2.415 1_565 S
O381 C369 1.239 1_565 S
O382 Tb360 2.399 . S
O382 C369 1.263 . S
C383 O372 1.261 . S
C383 O373 1.257 . S
C384 C387 1.358 . S
C384 C388 1.332 1_565 S
C384 C390 1.504 . S
C385 C386 1.373 1_545 S
C385 C389 1.308 . S
C386 C385 1.373 1_565 S
C386 C387 1.429 . S
C386 H396 0.932 . S
C387 C384 1.358 . S
C387 C386 1.429 . S
C387 H397 0.930 . S
C388 C384 1.332 1_545 S
C388 C389 1.394 . S
C388 H398 0.932 . S
C389 C385 1.308 . S
C389 C388 1.394 . S
C389 H399 0.929 . S
C390 Tb361 2.764 . S
C390 O374 1.239 1_565 S
C390 O375 1.263 . S
C390 C384 1.504 . S
C391 O376 1.236 . S
C391 O377 1.257 . S
H392 C365 0.932 . S
H393 C366 0.930 . S
H394 C367 0.932 . S
H395 C368 0.929 . S
H396 C386 0.932 . S
H397 C387 0.930 . S
H398 C388 0.932 . S
H399 C389 0.929 . S
Tb400 C409 2.764 . S
Tb400 O410 2.325 . S
Tb400 O413 2.303 . S
Tb400 O417 2.322 . S
Tb400 O418 2.349 . S
Tb400 O421 2.415 . S
Tb400 O422 2.399 . S
Tb401 O411 2.322 . S
Tb401 O412 2.349 . S
Tb401 O414 2.415 . S
Tb401 O415 2.399 . S
Tb401 O416 2.325 . S
Tb401 O419 2.303 . S
Tb401 C430 2.764 . S
C402 O418 1.261 . S
C402 O419 1.257 . S
C403 C406 1.358 . S
C403 C407 1.332 . S
C403 C409 1.504 . S
C404 C405 1.373 . S
C404 C408 1.308 . S
C405 C404 1.373 . S
C405 C406 1.429 . S
C405 H432 0.932 . S
C406 C403 1.358 . S
C406 C405 1.429 . S
C406 H433 0.930 . S
C407 C403 1.332 . S
C407 C408 1.394 . S
C407 H434 0.932 . S
C408 C404 1.308 . S
C408 C407 1.394 . S
C408 H435 0.929 . S
C409 Tb400 2.764 . S
C409 C403 1.504 . S
C409 O421 1.239 . S
C409 O422 1.263 . S
O410 Tb400 2.325 . S
O410 C420 1.236 . S
O411 Tb401 2.322 . S
O411 C420 1.257 . S
O412 Tb401 2.349 . S
O412 C423 1.261 . S
O413 Tb400 2.303 . S
O413 C423 1.257 . S
O414 Tb401 2.415 . S
O414 C430 1.239 . S
O415 Tb401 2.399 . S
O415 C430 1.263 . S
O416 Tb401 2.325 . S
O416 C431 1.236 . S
O417 Tb400 2.322 . S
O417 C431 1.257 . S
O418 Tb400 2.349 . S
O418 C402 1.261 . S
O419 Tb401 2.303 . S
O419 C402 1.257 . S
C420 O410 1.236 . S
C420 O411 1.257 . S
O421 Tb400 2.415 . S
O421 C409 1.239 . S
O422 Tb400 2.399 . S
O422 C409 1.263 . S
C423 O412 1.261 . S
C423 O413 1.257 . S
C424 C427 1.358 . S
C424 C428 1.332 . S
C424 C430 1.504 . S
C425 C426 1.373 . S
C425 C429 1.308 . S
C426 C425 1.373 . S
C426 C427 1.429 . S
C426 H436 0.932 . S
C427 C424 1.358 . S
C427 C426 1.429 . S
C427 H437 0.930 . S
C428 C424 1.332 . S
C428 C429 1.394 . S
C428 H438 0.932 . S
C429 C425 1.308 . S
C429 C428 1.394 . S
C429 H439 0.929 . S
C430 Tb401 2.764 . S
C430 O414 1.239 . S
C430 O415 1.263 . S
C430 C424 1.504 . S
C431 O416 1.236 . S
C431 O417 1.257 . S
H432 C405 0.932 . S
H433 C406 0.930 . S
H434 C407 0.932 . S
H435 C408 0.929 . S
H436 C426 0.932 . S
H437 C427 0.930 . S
H438 C428 0.932 . S
H439 C429 0.929 . S
Tb440 C449 2.764 . S
Tb440 O450 2.325 1_655 S
Tb440 O453 2.303 1_655 S
Tb440 O457 2.322 . S
Tb440 O458 2.349 . S
Tb440 O461 2.415 1_655 S
Tb440 O462 2.399 . S
Tb441 O451 2.322 . S
Tb441 O452 2.349 . S
Tb441 O454 2.415 1_455 S
Tb441 O455 2.399 . S
Tb441 O456 2.325 1_455 S
Tb441 O459 2.303 1_455 S
Tb441 C470 2.764 . S
C442 O458 1.261 . S
C442 O459 1.257 . S
C443 C446 1.358 . S
C443 C447 1.332 1_655 S
C443 C449 1.504 . S
C444 C445 1.373 1_455 S
C444 C448 1.308 . S
C445 C444 1.373 1_655 S
C445 C446 1.429 . S
C445 H472 0.932 . S
C446 C443 1.358 . S
C446 C445 1.429 . S
C446 H473 0.930 . S
C447 C443 1.332 1_455 S
C447 C448 1.394 . S
C447 H474 0.932 . S
C448 C444 1.308 . S
C448 C447 1.394 . S
C448 H475 0.929 . S
C449 Tb440 2.764 . S
C449 C443 1.504 . S
C449 O461 1.239 1_655 S
C449 O462 1.263 . S
O450 Tb440 2.325 1_455 S
O450 C460 1.236 . S
O451 Tb441 2.322 . S
O451 C460 1.257 . S
O452 Tb441 2.349 . S
O452 C463 1.261 . S
O453 Tb440 2.303 1_455 S
O453 C463 1.257 . S
O454 Tb441 2.415 1_655 S
O454 C470 1.239 1_655 S
O455 Tb441 2.399 . S
O455 C470 1.263 . S
O456 Tb441 2.325 1_655 S
O456 C471 1.236 . S
O457 Tb440 2.322 . S
O457 C471 1.257 . S
O458 Tb440 2.349 . S
O458 C442 1.261 . S
O459 Tb441 2.303 1_655 S
O459 C442 1.257 . S
C460 O450 1.236 . S
C460 O451 1.257 . S
O461 Tb440 2.415 1_455 S
O461 C449 1.239 1_455 S
O462 Tb440 2.399 . S
O462 C449 1.263 . S
C463 O452 1.261 . S
C463 O453 1.257 . S
C464 C467 1.358 . S
C464 C468 1.332 1_455 S
C464 C470 1.504 . S
C465 C466 1.373 1_655 S
C465 C469 1.308 . S
C466 C465 1.373 1_455 S
C466 C467 1.429 . S
C466 H476 0.932 . S
C467 C464 1.358 . S
C467 C466 1.429 . S
C467 H477 0.930 . S
C468 C464 1.332 1_655 S
C468 C469 1.394 . S
C468 H478 0.932 . S
C469 C465 1.308 . S
C469 C468 1.394 . S
C469 H479 0.929 . S
C470 Tb441 2.764 . S
C470 O454 1.239 1_455 S
C470 O455 1.263 . S
C470 C464 1.504 . S
C471 O456 1.236 . S
C471 O457 1.257 . S
H472 C445 0.932 . S
H473 C446 0.930 . S
H474 C447 0.932 . S
H475 C448 0.929 . S
H476 C466 0.932 . S
H477 C467 0.930 . S
H478 C468 0.932 . S
H479 C469 0.929 . S
Tb480 C489 2.764 . S
Tb480 O490 2.325 . S
Tb480 O493 2.303 . S
Tb480 O497 2.322 . S
Tb480 O498 2.349 . S
Tb480 O501 2.415 . S
Tb480 O502 2.399 . S
Tb481 O491 2.322 . S
Tb481 O492 2.349 . S
Tb481 O494 2.415 . S
Tb481 O495 2.399 . S
Tb481 O496 2.325 . S
Tb481 O499 2.303 . S
Tb481 C510 2.764 . S
C482 O498 1.261 . S
C482 O499 1.257 . S
C483 C486 1.358 . S
C483 C487 1.332 . S
C483 C489 1.504 . S
C484 C485 1.373 . S
C484 C488 1.308 . S
C485 C484 1.373 . S
C485 C486 1.429 . S
C485 H512 0.932 . S
C486 C483 1.358 . S
C486 C485 1.429 . S
C486 H513 0.930 . S
C487 C483 1.332 . S
C487 C488 1.394 . S
C487 H514 0.932 . S
C488 C484 1.308 . S
C488 C487 1.394 . S
C488 H515 0.929 . S
C489 Tb480 2.764 . S
C489 C483 1.504 . S
C489 O501 1.239 . S
C489 O502 1.263 . S
O490 Tb480 2.325 . S
O490 C500 1.236 . S
O491 Tb481 2.322 . S
O491 C500 1.257 . S
O492 Tb481 2.349 . S
O492 C503 1.261 . S
O493 Tb480 2.303 . S
O493 C503 1.257 . S
O494 Tb481 2.415 . S
O494 C510 1.239 . S
O495 Tb481 2.399 . S
O495 C510 1.263 . S
O496 Tb481 2.325 . S
O496 C511 1.236 . S
O497 Tb480 2.322 . S
O497 C511 1.257 . S
O498 Tb480 2.349 . S
O498 C482 1.261 . S
O499 Tb481 2.303 . S
O499 C482 1.257 . S
C500 O490 1.236 . S
C500 O491 1.257 . S
O501 Tb480 2.415 . S
O501 C489 1.239 . S
O502 Tb480 2.399 . S
O502 C489 1.263 . S
C503 O492 1.261 . S
C503 O493 1.257 . S
C504 C507 1.358 . S
C504 C508 1.332 . S
C504 C510 1.504 . S
C505 C506 1.373 . S
C505 C509 1.308 . S
C506 C505 1.373 . S
C506 C507 1.429 . S
C506 H516 0.932 . S
C507 C504 1.358 . S
C507 C506 1.429 . S
C507 H517 0.930 . S
C508 C504 1.332 . S
C508 C509 1.394 . S
C508 H518 0.932 . S
C509 C505 1.308 . S
C509 C508 1.394 . S
C509 H519 0.929 . S
C510 Tb481 2.764 . S
C510 O494 1.239 . S
C510 O495 1.263 . S
C510 C504 1.504 . S
C511 O496 1.236 . S
C511 O497 1.257 . S
H512 C485 0.932 . S
H513 C486 0.930 . S
H514 C487 0.932 . S
H515 C488 0.929 . S
H516 C506 0.932 . S
H517 C507 0.930 . S
H518 C508 0.932 . S
H519 C509 0.929 . S
Tb520 C529 2.764 . S
Tb520 O530 2.325 1_554 S
Tb520 O533 2.303 1_554 S
Tb520 O537 2.322 . S
Tb520 O538 2.349 . S
Tb520 O541 2.415 . S
Tb520 O542 2.399 . S
Tb521 O531 2.322 . S
Tb521 O532 2.349 . S
Tb521 O534 2.415 . S
Tb521 O535 2.399 . S
Tb521 O536 2.325 1_556 S
Tb521 O539 2.303 1_556 S
Tb521 C550 2.764 . S
C522 O538 1.261 . S
C522 O539 1.257 . S
C523 C526 1.358 . S
C523 C527 1.332 1_554 S
C523 C529 1.504 . S
C524 C525 1.373 . S
C524 C528 1.308 1_554 S
C525 C524 1.373 . S
C525 C526 1.429 . S
C525 H552 0.932 . S
C526 C523 1.358 . S
C526 C525 1.429 . S
C526 H553 0.930 . S
C527 C523 1.332 1_556 S
C527 C528 1.394 . S
C527 H554 0.932 . S
C528 C524 1.308 1_556 S
C528 C527 1.394 . S
C528 H555 0.929 . S
C529 Tb520 2.764 . S
C529 C523 1.504 . S
C529 O541 1.239 . S
C529 O542 1.263 . S
O530 Tb520 2.325 1_556 S
O530 C540 1.236 . S
O531 Tb521 2.322 . S
O531 C540 1.257 . S
O532 Tb521 2.349 . S
O532 C543 1.261 . S
O533 Tb520 2.303 1_556 S
O533 C543 1.257 . S
O534 Tb521 2.415 . S
O534 C550 1.239 . S
O535 Tb521 2.399 . S
O535 C550 1.263 . S
O536 Tb521 2.325 1_554 S
O536 C551 1.236 . S
O537 Tb520 2.322 . S
O537 C551 1.257 . S
O538 Tb520 2.349 . S
O538 C522 1.261 . S
O539 Tb521 2.303 1_554 S
O539 C522 1.257 . S
C540 O530 1.236 . S
C540 O531 1.257 . S
O541 Tb520 2.415 . S
O541 C529 1.239 . S
O542 Tb520 2.399 . S
O542 C529 1.263 . S
C543 O532 1.261 . S
C543 O533 1.257 . S
C544 C547 1.358 . S
C544 C548 1.332 1_556 S
C544 C550 1.504 . S
C545 C546 1.373 . S
C545 C549 1.308 1_556 S
C546 C545 1.373 . S
C546 C547 1.429 . S
C546 H556 0.932 . S
C547 C544 1.358 . S
C547 C546 1.429 . S
C547 H557 0.930 . S
C548 C544 1.332 1_554 S
C548 C549 1.394 . S
C548 H558 0.932 . S
C549 C545 1.308 1_554 S
C549 C548 1.394 . S
C549 H559 0.929 . S
C550 Tb521 2.764 . S
C550 O534 1.239 . S
C550 O535 1.263 . S
C550 C544 1.504 . S
C551 O536 1.236 . S
C551 O537 1.257 . S
H552 C525 0.932 . S
H553 C526 0.930 . S
H554 C527 0.932 . S
H555 C528 0.929 . S
H556 C546 0.932 . S
H557 C547 0.930 . S
H558 C548 0.932 . S
H559 C549 0.929 . S
Tb560 C569 2.764 . S
Tb560 O570 2.325 . S
Tb560 O573 2.303 1_545 S
Tb560 O577 2.322 1_545 S
Tb560 O578 2.349 . S
Tb560 O581 2.415 . S
Tb560 O582 2.399 . S
Tb561 O571 2.322 1_565 S
Tb561 O572 2.349 . S
Tb561 O574 2.415 . S
Tb561 O575 2.399 . S
Tb561 O576 2.325 . S
Tb561 O579 2.303 1_565 S
Tb561 C590 2.764 . S
C562 O578 1.261 . S
C562 O579 1.257 . S
C563 C566 1.358 . S
C563 C567 1.332 . S
C563 C569 1.504 . S
C564 C565 1.373 . S
C564 C568 1.308 . S
C565 C564 1.373 . S
C565 C566 1.429 . S
C565 H592 0.932 . S
C566 C563 1.358 . S
C566 C565 1.429 . S
C566 H593 0.930 . S
C567 C563 1.332 . S
C567 C568 1.394 . S
C567 H594 0.932 . S
C568 C564 1.308 . S
C568 C567 1.394 . S
C568 H595 0.929 . S
C569 Tb560 2.764 . S
C569 C563 1.504 . S
C569 O581 1.239 . S
C569 O582 1.263 . S
O570 Tb560 2.325 . S
O570 C580 1.236 . S
O571 Tb561 2.322 1_545 S
O571 C580 1.257 . S
O572 Tb561 2.349 . S
O572 C583 1.261 . S
O573 Tb560 2.303 1_565 S
O573 C583 1.257 . S
O574 Tb561 2.415 . S
O574 C590 1.239 . S
O575 Tb561 2.399 . S
O575 C590 1.263 . S
O576 Tb561 2.325 . S
O576 C591 1.236 . S
O577 Tb560 2.322 1_565 S
O577 C591 1.257 . S
O578 Tb560 2.349 . S
O578 C562 1.261 . S
O579 Tb561 2.303 1_545 S
O579 C562 1.257 . S
C580 O570 1.236 . S
C580 O571 1.257 . S
O581 Tb560 2.415 . S
O581 C569 1.239 . S
O582 Tb560 2.399 . S
O582 C569 1.263 . S
C583 O572 1.261 . S
C583 O573 1.257 . S
C584 C587 1.358 . S
C584 C588 1.332 . S
C584 C590 1.504 . S
C585 C586 1.373 . S
C585 C589 1.308 . S
C586 C585 1.373 . S
C586 C587 1.429 . S
C586 H596 0.932 . S
C587 C584 1.358 . S
C587 C586 1.429 . S
C587 H597 0.930 . S
C588 C584 1.332 . S
C588 C589 1.394 . S
C588 H598 0.932 . S
C589 C585 1.308 . S
C589 C588 1.394 . S
C589 H599 0.929 . S
C590 Tb561 2.764 . S
C590 O574 1.239 . S
C590 O575 1.263 . S
C590 C584 1.504 . S
C591 O576 1.236 . S
C591 O577 1.257 . S
H592 C565 0.932 . S
H593 C566 0.930 . S
H594 C567 0.932 . S
H595 C568 0.929 . S
H596 C586 0.932 . S
H597 C587 0.930 . S
H598 C588 0.932 . S
H599 C589 0.929 . S
Tb600 C609 2.764 . S
Tb600 O610 2.325 1_556 S
Tb600 O613 2.303 1_556 S
Tb600 O617 2.322 . S
Tb600 O618 2.349 . S
Tb600 O621 2.415 . S
Tb600 O622 2.399 . S
Tb601 O611 2.322 . S
Tb601 O612 2.349 . S
Tb601 O614 2.415 . S
Tb601 O615 2.399 . S
Tb601 O616 2.325 1_554 S
Tb601 O619 2.303 1_554 S
Tb601 C630 2.764 . S
C602 O618 1.261 . S
C602 O619 1.257 . S
C603 C606 1.358 . S
C603 C607 1.332 . S
C603 C609 1.504 . S
C604 C605 1.373 . S
C604 C608 1.308 . S
C605 C604 1.373 . S
C605 C606 1.429 . S
C605 H632 0.932 . S
C606 C603 1.358 . S
C606 C605 1.429 . S
C606 H633 0.930 . S
C607 C603 1.332 . S
C607 C608 1.394 . S
C607 H634 0.893 1_556 S
C608 C604 1.308 . S
C608 C607 1.394 . S
C608 H635 0.929 . S
C609 Tb600 2.764 . S
C609 C603 1.504 . S
C609 O621 1.239 . S
C609 O622 1.263 . S
O610 Tb600 2.325 1_554 S
O610 C620 1.236 . S
O611 Tb601 2.322 . S
O611 C620 1.257 . S
O612 Tb601 2.349 . S
O612 C623 1.261 . S
O613 Tb600 2.303 1_554 S
O613 C623 1.257 . S
O614 Tb601 2.415 . S
O614 C630 1.239 . S
O615 Tb601 2.399 . S
O615 C630 1.263 . S
O616 Tb601 2.325 1_556 S
O616 C631 1.236 . S
O617 Tb600 2.322 . S
O617 C631 1.257 . S
O618 Tb600 2.349 . S
O618 C602 1.261 . S
O619 Tb601 2.303 1_556 S
O619 C602 1.257 . S
C620 O610 1.236 . S
C620 O611 1.257 . S
O621 Tb600 2.415 . S
O621 C609 1.239 . S
O622 Tb600 2.399 . S
O622 C609 1.263 . S
C623 O612 1.261 . S
C623 O613 1.257 . S
C624 C627 1.358 . S
C624 C628 1.332 . S
C624 C630 1.504 . S
C625 C626 1.373 . S
C625 C629 1.308 . S
C626 C625 1.373 . S
C626 C627 1.429 . S
C626 H636 0.932 . S
C627 C624 1.358 . S
C627 C626 1.429 . S
C627 H637 0.930 . S
C628 C624 1.332 . S
C628 C629 1.394 . S
C628 H638 0.917 1_554 S
C629 C625 1.308 . S
C629 C628 1.394 . S
C629 H639 0.929 . S
C630 Tb601 2.764 . S
C630 O614 1.239 . S
C630 O615 1.263 . S
C630 C624 1.504 . S
C631 O616 1.236 . S
C631 O617 1.257 . S
H632 C605 0.932 . S
H633 C606 0.930 . S
H634 C607 0.893 1_554 S
H635 C608 0.929 . S
H636 C626 0.932 . S
H637 C627 0.930 . S
H638 C628 0.917 1_556 S
H639 C629 0.929 . S
H640 C648 0.929 . S
H641 C650 0.930 . S
H642 C652 0.930 . S
H643 C655 0.929 . S
H644 C658 0.930 . S
H645 C660 0.960 . S
H646 C660 0.960 . S
H647 C660 0.960 . S
C648 H640 0.929 . S
C648 C649 1.377 1_455 S
C648 C650 1.384 . S
C649 C648 1.377 1_655 S
C649 C655 1.390 . S
C650 H641 0.930 . S
C650 C648 1.384 . S
C650 C651 1.372 1_455 S
C651 C650 1.372 1_655 S
C651 C652 1.400 . S
C651 C656 1.490 . S
C652 H642 0.930 . S
C652 C651 1.400 . S
C652 C655 1.386 . S
H653 C669 0.930 . S
H654 C670 0.931 . S
C655 H643 0.929 . S
C655 C649 1.390 . S
C655 C652 1.386 . S
C656 C651 1.490 . S
C656 C658 1.395 1_655 S
C656 C659 1.403 . S
H657 C663 0.930 . S
C658 H644 0.930 . S
C658 C656 1.395 1_455 S
C658 C661 1.403 . S
C659 C656 1.403 . S
C659 C660 1.524 . S
C659 C663 1.400 . S
C660 H645 0.960 . S
C660 H646 0.960 . S
C660 H647 0.960 . S
C660 C659 1.524 . S
C661 C658 1.403 . S
C661 C662 1.392 . S
C661 C665 1.495 . S
C662 C661 1.392 . S
C662 C663 1.385 1_455 S
C662 C664 1.478 . S
C663 H657 0.930 . S
C663 C659 1.400 . S
C663 C662 1.385 1_655 S
C664 C662 1.478 . S
C664 C666 1.381 . S
C664 C670 1.383 1_455 S
C665 C661 1.495 . S
C665 H671 0.959 . S
C665 H672 0.961 . S
C665 H673 0.960 . S
C666 C664 1.381 . S
C666 C667 1.394 . S
C666 H674 0.930 . S
C667 C666 1.394 . S
C667 C668 1.383 . S
C667 H675 0.929 . S
C668 C667 1.383 . S
C668 C669 1.377 1_455 S
C669 H653 0.930 . S
C669 C668 1.377 1_655 S
C669 C670 1.379 . S
C670 H654 0.931 . S
C670 C664 1.383 1_655 S
C670 C669 1.379 . S
H671 C665 0.959 . S
H672 C665 0.961 . S
H673 C665 0.960 . S
H674 C666 0.930 . S
H675 C667 0.929 . S
H676 C684 0.929 . S
H677 C686 0.930 . S
H678 C688 0.930 . S
H679 C691 0.929 . S
H680 C694 0.930 . S
H681 C696 0.960 . S
H682 C696 0.960 . S
H683 C696 0.960 . S
C684 H676 0.929 . S
C684 C685 1.377 . S
C684 C686 1.384 . S
C685 C684 1.377 . S
C685 C691 1.390 . S
C686 H677 0.930 . S
C686 C684 1.384 . S
C686 C687 1.372 . S
C687 C686 1.372 . S
C687 C688 1.400 . S
C687 C692 1.490 . S
C688 H678 0.930 . S
C688 C687 1.400 . S
C688 C691 1.386 . S
H689 C705 0.930 . S
H690 C706 0.931 . S
C691 H679 0.929 . S
C691 C685 1.390 . S
C691 C688 1.386 . S
C692 C687 1.490 . S
C692 C694 1.395 . S
C692 C695 1.403 . S
H693 C699 0.930 . S
C694 H680 0.930 . S
C694 C692 1.395 . S
C694 C697 1.403 . S
C695 C692 1.403 . S
C695 C696 1.524 . S
C695 C699 1.400 . S
C696 H681 0.960 . S
C696 H682 0.960 . S
C696 H683 0.960 . S
C696 C695 1.524 . S
C697 C694 1.403 . S
C697 C698 1.392 . S
C697 C701 1.495 . S
C698 C697 1.392 . S
C698 C699 1.385 . S
C698 C700 1.478 . S
C699 H693 0.930 . S
C699 C695 1.400 . S
C699 C698 1.385 . S
C700 C698 1.478 . S
C700 C702 1.381 . S
C700 C706 1.383 . S
C701 C697 1.495 . S
C701 H707 0.959 . S
C701 H708 0.961 . S
C701 H709 0.960 . S
C702 C700 1.381 . S
C702 C703 1.394 . S
C702 H710 0.930 . S
C703 C702 1.394 . S
C703 C704 1.383 . S
C703 H711 0.929 . S
C704 C703 1.383 . S
C704 C705 1.377 . S
C705 H689 0.930 . S
C705 C704 1.377 . S
C705 C706 1.379 . S
C706 H690 0.931 . S
C706 C700 1.383 . S
C706 C705 1.379 . S
H707 C701 0.959 . S
H708 C701 0.961 . S
H709 C701 0.960 . S
H710 C702 0.930 . S
H711 C703 0.929 . S
H712 C720 0.929 . S
H713 C722 0.930 . S
H714 C724 0.930 . S
H715 C727 0.929 . S
H716 C730 0.930 . S
H717 C732 0.960 . S
H718 C732 0.960 . S
H719 C732 0.960 . S
C720 H712 0.929 . S
C720 C721 1.377 . S
C720 C722 1.384 . S
C721 C720 1.377 . S
C721 C727 1.390 . S
C722 H713 0.930 . S
C722 C720 1.384 . S
C722 C723 1.372 . S
C723 C722 1.372 . S
C723 C724 1.400 . S
C723 C728 1.490 . S
C724 H714 0.930 . S
C724 C723 1.400 . S
C724 C727 1.386 . S
H725 C741 0.930 . S
H726 C742 0.931 . S
C727 H715 0.929 . S
C727 C721 1.390 . S
C727 C724 1.386 . S
C728 C723 1.490 . S
C728 C730 1.395 . S
C728 C731 1.403 . S
H729 C735 0.930 . S
C730 H716 0.930 . S
C730 C728 1.395 . S
C730 C733 1.403 . S
C731 C728 1.403 . S
C731 C732 1.524 . S
C731 C735 1.400 . S
C732 H717 0.960 . S
C732 H718 0.960 . S
C732 H719 0.960 . S
C732 C731 1.524 . S
C733 C730 1.403 . S
C733 C734 1.392 . S
C733 C737 1.495 . S
C734 C733 1.392 . S
C734 C735 1.385 . S
C734 C736 1.478 . S
C735 H729 0.930 . S
C735 C731 1.400 . S
C735 C734 1.385 . S
C736 C734 1.478 . S
C736 C738 1.381 . S
C736 C742 1.383 . S
C737 C733 1.495 . S
C737 H743 0.959 . S
C737 H744 0.961 . S
C737 H745 0.960 . S
C738 C736 1.381 . S
C738 C739 1.394 . S
C738 H746 0.930 . S
C739 C738 1.394 . S
C739 C740 1.383 . S
C739 H747 0.929 . S
C740 C739 1.383 . S
C740 C741 1.377 . S
C741 H725 0.930 . S
C741 C740 1.377 . S
C741 C742 1.379 . S
C742 H726 0.931 . S
C742 C736 1.383 . S
C742 C741 1.379 . S
H743 C737 0.959 . S
H744 C737 0.961 . S
H745 C737 0.960 . S
H746 C738 0.930 . S
H747 C739 0.929 . S
H748 C756 0.929 1_565 S
H749 C758 0.930 . S
H750 C760 0.930 . S
H751 C763 0.929 . S
H752 C766 0.930 . S
H753 C768 0.960 . S
H754 C768 0.960 . S
H755 C768 0.960 . S
C756 H748 0.929 1_545 S
C756 C757 1.377 . S
C756 C758 1.384 1_545 S
C757 C756 1.377 . S
C757 C763 1.390 . S
C758 H749 0.930 . S
C758 C756 1.384 1_565 S
C758 C759 1.372 1_565 S
C759 C758 1.372 1_545 S
C759 C760 1.400 . S
C759 C764 1.490 . S
C760 H750 0.930 . S
C760 C759 1.400 . S
C760 C763 1.386 . S
H761 C777 0.930 . S
H762 C778 0.931 . S
C763 H751 0.929 . S
C763 C757 1.390 . S
C763 C760 1.386 . S
C764 C759 1.490 . S
C764 C766 1.395 1_545 S
C764 C767 1.403 . S
H765 C771 0.930 . S
C766 H752 0.930 . S
C766 C764 1.395 1_565 S
C766 C769 1.403 . S
C767 C764 1.403 . S
C767 C768 1.524 . S
C767 C771 1.400 . S
C768 H753 0.960 . S
C768 H754 0.960 . S
C768 H755 0.960 . S
C768 C767 1.524 . S
C769 C766 1.403 . S
C769 C770 1.392 1_565 S
C769 C773 1.495 . S
C770 C769 1.392 1_545 S
C770 C771 1.385 . S
C770 C772 1.478 1_545 S
C771 H765 0.930 . S
C771 C767 1.400 . S
C771 C770 1.385 . S
C772 C770 1.478 1_565 S
C772 C774 1.381 . S
C772 C778 1.383 1_565 S
C773 C769 1.495 . S
C773 H779 0.959 . S
C773 H780 0.961 . S
C773 H781 0.960 . S
C774 C772 1.381 . S
C774 C775 1.394 . S
C774 H782 0.930 . S
C775 C774 1.394 . S
C775 C776 1.383 . S
C775 H783 0.929 . S
C776 C775 1.383 . S
C776 C777 1.377 1_565 S
C777 H761 0.930 . S
C777 C776 1.377 1_545 S
C777 C778 1.379 . S
C778 H762 0.931 . S
C778 C772 1.383 1_545 S
C778 C777 1.379 . S
H779 C773 0.959 . S
H780 C773 0.961 . S
H781 C773 0.960 . S
H782 C774 0.930 . S
H783 C775 0.929 . S
H784 C792 0.929 . S
H785 C794 0.930 . S
H786 C796 0.930 1_545 S
H787 C799 0.921 1_545 S
H788 C802 0.931 . S
H789 C804 0.960 . S
H790 C804 0.960 . S
H791 C804 0.960 . S
C792 H784 0.929 . S
C792 C793 1.377 . S
C792 C794 1.384 . S
C793 C792 1.377 . S
C793 C799 1.390 . S
C794 H785 0.930 . S
C794 C792 1.384 . S
C794 C795 1.372 . S
C795 C794 1.372 . S
C795 C796 1.400 . S
C795 C800 1.490 . S
C796 H786 0.930 1_565 S
C796 C795 1.400 . S
C796 C799 1.386 . S
H797 C813 0.930 . S
H798 C814 0.931 . S
C799 H787 0.921 1_565 S
C799 C793 1.390 . S
C799 C796 1.386 . S
C800 C795 1.490 . S
C800 C802 1.395 . S
C800 C803 1.403 . S
H801 C807 0.930 . S
C802 H788 0.931 . S
C802 C800 1.395 . S
C802 C805 1.383 1_565 S
C803 C800 1.403 . S
C803 C804 1.524 . S
C803 C807 1.400 . S
C804 H789 0.960 . S
C804 H790 0.960 . S
C804 H791 0.960 . S
C804 C803 1.524 . S
C805 C802 1.383 1_545 S
C805 C806 1.392 1_545 S
C805 C809 1.517 . S
C806 C805 1.392 1_565 S
C806 C807 1.385 . S
C806 C808 1.472 1_565 S
C807 H801 0.930 . S
C807 C803 1.400 . S
C807 C806 1.385 . S
C808 C806 1.472 1_545 S
C808 C810 1.378 1_545 S
C808 C814 1.391 . S
C809 C805 1.517 . S
C809 H815 0.959 . S
C809 H816 0.961 . S
C809 H817 0.960 . S
C810 C808 1.378 1_565 S
C810 C811 1.394 . S
C810 H818 0.930 . S
C811 C810 1.394 . S
C811 C812 1.383 1_565 S
C811 H819 0.929 . S
C812 C811 1.383 1_545 S
C812 C813 1.377 . S
C813 H797 0.930 . S
C813 C812 1.377 . S
C813 C814 1.379 . S
C814 H798 0.931 . S
C814 C808 1.391 . S
C814 C813 1.379 . S
H815 C809 0.959 . S
H816 C809 0.961 . S
H817 C809 0.960 . S
H818 C810 0.930 . S
H819 C811 0.929 . S
H820 C828 0.929 . S
H821 C830 0.930 . S
H822 C832 0.930 . S
H823 C835 0.929 . S
H824 C838 0.930 . S
H825 C840 0.960 . S
H826 C840 0.960 . S
H827 C840 0.960 . S
C828 H820 0.929 . S
C828 C829 1.377 1_655 S
C828 C830 1.384 . S
C829 C828 1.377 1_455 S
C829 C835 1.390 . S
C830 H821 0.930 . S
C830 C828 1.384 . S
C830 C831 1.372 1_655 S
C831 C830 1.372 1_455 S
C831 C832 1.400 . S
C831 C836 1.490 . S
C832 H822 0.930 . S
C832 C831 1.400 . S
C832 C835 1.386 . S
H833 C849 0.930 . S
H834 C850 0.931 . S
C835 H823 0.929 . S
C835 C829 1.390 . S
C835 C832 1.386 . S
C836 C831 1.490 . S
C836 C838 1.395 1_455 S
C836 C839 1.403 . S
H837 C843 0.930 . S
C838 H824 0.930 . S
C838 C836 1.395 1_655 S
C838 C841 1.403 . S
C839 C836 1.403 . S
C839 C840 1.524 . S
C839 C843 1.400 . S
C840 H825 0.960 . S
C840 H826 0.960 . S
C840 H827 0.960 . S
C840 C839 1.524 . S
C841 C838 1.403 . S
C841 C842 1.392 1_655 S
C841 C845 1.495 . S
C842 C841 1.392 1_455 S
C842 C843 1.385 . S
C842 C844 1.477 1_455 S
C843 H837 0.930 . S
C843 C839 1.400 . S
C843 C842 1.385 . S
C844 C842 1.477 1_655 S
C844 C846 1.381 . S
C844 C850 1.383 1_655 S
C845 C841 1.495 . S
C845 H851 0.959 . S
C845 H852 0.961 . S
C845 H853 0.960 . S
C846 C844 1.381 . S
C846 C847 1.394 . S
C846 H854 0.930 . S
C847 C846 1.394 . S
C847 C848 1.383 . S
C847 H855 0.929 . S
C848 C847 1.383 . S
C848 C849 1.377 1_655 S
C849 H833 0.930 . S
C849 C848 1.377 1_455 S
C849 C850 1.379 . S
C850 H834 0.931 . S
C850 C844 1.383 1_455 S
C850 C849 1.379 . S
H851 C845 0.959 . S
H852 C845 0.961 . S
H853 C845 0.960 . S
H854 C846 0.930 . S
H855 C847 0.929 . S
H856 C864 0.929 . S
H857 C866 0.930 . S
H858 C868 0.930 . S
H859 C871 0.929 . S
H860 C874 0.930 . S
H861 C876 0.960 . S
H862 C876 0.960 . S
H863 C876 0.960 . S
C864 H856 0.929 . S
C864 C865 1.377 . S
C864 C866 1.384 . S
C865 C864 1.377 . S
C865 C871 1.390 . S
C866 H857 0.930 . S
C866 C864 1.384 . S
C866 C867 1.372 . S
C867 C866 1.372 . S
C867 C868 1.400 . S
C867 C872 1.490 . S
C868 H858 0.930 . S
C868 C867 1.400 . S
C868 C871 1.386 . S
H869 C885 0.930 . S
H870 C886 0.931 . S
C871 H859 0.929 . S
C871 C865 1.390 . S
C871 C868 1.386 . S
C872 C867 1.490 . S
C872 C874 1.395 . S
C872 C875 1.403 . S
H873 C879 0.930 . S
C874 H860 0.930 . S
C874 C872 1.395 . S
C874 C877 1.403 . S
C875 C872 1.403 . S
C875 C876 1.524 . S
C875 C879 1.400 . S
C876 H861 0.960 . S
C876 H862 0.960 . S
C876 H863 0.960 . S
C876 C875 1.524 . S
C877 C874 1.403 . S
C877 C878 1.392 . S
C877 C881 1.495 . S
C878 C877 1.392 . S
C878 C879 1.385 . S
C878 C880 1.478 . S
C879 H873 0.930 . S
C879 C875 1.400 . S
C879 C878 1.385 . S
C880 C878 1.478 . S
C880 C882 1.381 . S
C880 C886 1.383 . S
C881 C877 1.495 . S
C881 H887 0.959 . S
C881 H888 0.961 . S
C881 H889 0.960 . S
C882 C880 1.381 . S
C882 C883 1.394 . S
C882 H890 0.930 . S
C883 C882 1.394 . S
C883 C884 1.383 . S
C883 H891 0.929 . S
C884 C883 1.383 . S
C884 C885 1.377 . S
C885 H869 0.930 . S
C885 C884 1.377 . S
C885 C886 1.379 . S
C886 H870 0.931 . S
C886 C880 1.383 . S
C886 C885 1.379 . S
H887 C881 0.959 . S
H888 C881 0.961 . S
H889 C881 0.960 . S
H890 C882 0.930 . S
H891 C883 0.929 . S
H892 C900 0.929 . S
H893 C902 0.930 . S
H894 C904 0.930 . S
H895 C907 0.929 . S
H896 C910 0.930 . S
H897 C912 0.960 . S
H898 C912 0.960 . S
H899 C912 0.960 . S
C900 H892 0.929 . S
C900 C901 1.377 . S
C900 C902 1.384 . S
C901 C900 1.377 . S
C901 C907 1.390 . S
C902 H893 0.930 . S
C902 C900 1.384 . S
C902 C903 1.372 . S
C903 C902 1.372 . S
C903 C904 1.400 . S
C903 C908 1.490 . S
C904 H894 0.930 . S
C904 C903 1.400 . S
C904 C907 1.386 . S
H905 C921 0.930 . S
H906 C922 0.931 . S
C907 H895 0.929 . S
C907 C901 1.390 . S
C907 C904 1.386 . S
C908 C903 1.490 . S
C908 C910 1.395 . S
C908 C911 1.403 . S
H909 C915 0.930 . S
C910 H896 0.930 . S
C910 C908 1.395 . S
C910 C913 1.403 . S
C911 C908 1.403 . S
C911 C912 1.524 . S
C911 C915 1.400 . S
C912 H897 0.960 . S
C912 H898 0.960 . S
C912 H899 0.960 . S
C912 C911 1.524 . S
C913 C910 1.403 . S
C913 C914 1.392 . S
C913 C917 1.495 . S
C914 C913 1.392 . S
C914 C915 1.385 . S
C914 C916 1.478 . S
C915 H909 0.930 . S
C915 C911 1.400 . S
C915 C914 1.385 . S
C916 C914 1.478 . S
C916 C918 1.381 . S
C916 C922 1.383 . S
C917 C913 1.495 . S
C917 H923 0.959 . S
C917 H924 0.961 . S
C917 H925 0.960 . S
C918 C916 1.381 . S
C918 C919 1.394 . S
C918 H926 0.930 . S
C919 C918 1.394 . S
C919 C920 1.383 . S
C919 H927 0.929 . S
C920 C919 1.383 . S
C920 C921 1.377 . S
C921 H905 0.930 . S
C921 C920 1.377 . S
C921 C922 1.379 . S
C922 H906 0.931 . S
C922 C916 1.383 . S
C922 C921 1.379 . S
H923 C917 0.959 . S
H924 C917 0.961 . S
H925 C917 0.960 . S
H926 C918 0.930 . S
H927 C919 0.929 . S
H928 C936 0.929 . S
H929 C938 0.930 . S
H930 C940 0.930 . S
H931 C943 0.929 . S
H932 C946 0.930 . S
H933 C948 0.960 . S
H934 C948 0.960 . S
H935 C948 0.960 . S
C936 H928 0.929 . S
C936 C937 1.377 . S
C936 C938 1.384 . S
C937 C936 1.377 . S
C937 C943 1.390 . S
C938 H929 0.930 . S
C938 C936 1.384 . S
C938 C939 1.372 . S
C939 C938 1.372 . S
C939 C940 1.400 . S
C939 C944 1.490 . S
C940 H930 0.930 . S
C940 C939 1.400 . S
C940 C943 1.386 . S
H941 C957 0.930 . S
H942 C958 0.931 . S
C943 H931 0.929 . S
C943 C937 1.390 . S
C943 C940 1.386 . S
C944 C939 1.490 . S
C944 C946 1.395 . S
C944 C947 1.403 . S
H945 C951 0.930 . S
C946 H932 0.930 . S
C946 C944 1.395 . S
C946 C949 1.403 . S
C947 C944 1.403 . S
C947 C948 1.524 . S
C947 C951 1.400 . S
C948 H933 0.960 . S
C948 H934 0.960 . S
C948 H935 0.960 . S
C948 C947 1.524 . S
C949 C946 1.403 . S
C949 C950 1.392 . S
C949 C953 1.495 . S
C950 C949 1.392 . S
C950 C951 1.385 . S
C950 C952 1.478 . S
C951 H945 0.930 . S
C951 C947 1.400 . S
C951 C950 1.385 . S
C952 C950 1.478 . S
C952 C954 1.381 . S
C952 C958 1.383 . S
C953 C949 1.495 . S
C953 H959 0.959 . S
C953 H960 0.961 . S
C953 H961 0.960 . S
C954 C952 1.381 . S
C954 C955 1.394 . S
C954 H962 0.930 . S
C955 C954 1.394 . S
C955 C956 1.383 . S
C955 H963 0.929 . S
C956 C955 1.383 . S
C956 C957 1.377 . S
C957 H941 0.930 . S
C957 C956 1.377 . S
C957 C958 1.379 . S
C958 H942 0.931 . S
C958 C952 1.383 . S
C958 C957 1.379 . S
H959 C953 0.959 . S
H960 C953 0.961 . S
H961 C953 0.960 . S
H962 C954 0.930 . S
H963 C955 0.929 . S
H964 C972 0.929 . S
H965 C974 0.930 . S
H966 C976 0.930 . S
H967 C979 0.929 . S
H968 C982 0.930 . S
H969 C984 0.960 . S
H970 C984 0.960 . S
H971 C984 0.960 . S
C972 H964 0.929 . S
C972 C973 1.377 . S
C972 C974 1.384 . S
C973 C972 1.377 . S
C973 C979 1.390 . S
C974 H965 0.930 . S
C974 C972 1.384 . S
C974 C975 1.372 . S
C975 C974 1.372 . S
C975 C976 1.400 . S
C975 C980 1.490 . S
C976 H966 0.930 . S
C976 C975 1.400 . S
C976 C979 1.386 . S
H977 C993 0.930 . S
H978 C994 0.931 . S
C979 H967 0.929 . S
C979 C973 1.390 . S
C979 C976 1.386 . S
C980 C975 1.490 . S
C980 C982 1.395 . S
C980 C983 1.403 . S
H981 C987 0.930 . S
C982 H968 0.930 . S
C982 C980 1.395 . S
C982 C985 1.403 . S
C983 C980 1.403 . S
C983 C984 1.524 . S
C983 C987 1.400 . S
C984 H969 0.960 . S
C984 H970 0.960 . S
C984 H971 0.960 . S
C984 C983 1.524 . S
C985 C982 1.403 . S
C985 C986 1.392 . S
C985 C989 1.495 . S
C986 C985 1.392 . S
C986 C987 1.385 . S
C986 C988 1.478 . S
C987 H981 0.930 . S
C987 C983 1.400 . S
C987 C986 1.385 . S
C988 C986 1.478 . S
C988 C990 1.381 . S
C988 C994 1.383 . S
C989 C985 1.495 . S
C989 H995 0.959 . S
C989 H996 0.961 . S
C989 H997 0.960 . S
C990 C988 1.381 . S
C990 C991 1.394 . S
C990 H998 0.930 . S
C991 C990 1.394 . S
C991 C992 1.383 . S
C991 H999 0.929 . S
C992 C991 1.383 . S
C992 C993 1.377 . S
C993 H977 0.930 . S
C993 C992 1.377 . S
C993 C994 1.379 . S
C994 H978 0.931 . S
C994 C988 1.383 . S
C994 C993 1.379 . S
H995 C989 0.959 . S
H996 C989 0.961 . S
H997 C989 0.960 . S
H998 C990 0.930 . S
H999 C991 0.929 . S
H1000 C1008 0.929 . S
H1001 C1010 0.930 . S
H1002 C1012 0.930 . S
H1003 C1015 0.901 1_545 S
H1004 C1018 0.930 . S
H1005 C1020 0.960 . S
H1006 C1020 0.960 . S
H1007 C1020 0.960 1_545 S
C1008 H1000 0.929 . S
C1008 C1009 1.377 . S
C1008 C1010 1.384 . S
C1009 C1008 1.377 . S
C1009 C1015 1.447 . S
C1010 H1001 0.930 . S
C1010 C1008 1.384 . S
C1010 C1011 1.372 . S
C1011 C1010 1.372 . S
C1011 C1012 1.400 1_565 S
C1011 C1016 1.490 . S
C1012 H1002 0.930 . S
C1012 C1011 1.400 1_545 S
C1012 C1015 1.359 1_545 S
H1013 C1029 0.930 . S
H1014 C1030 0.931 . S
C1015 H1003 0.901 1_565 S
C1015 C1009 1.447 . S
C1015 C1012 1.359 1_565 S
C1016 C1011 1.490 . S
C1016 C1018 1.395 . S
C1016 C1019 1.403 . S
H1017 C1023 0.915 1_545 S
C1018 H1004 0.930 . S
C1018 C1016 1.395 . S
C1018 C1021 1.403 . S
C1019 C1016 1.403 . S
C1019 C1020 1.524 . S
C1019 C1023 1.400 . S
C1020 H1005 0.960 . S
C1020 H1006 0.960 . S
C1020 H1007 0.960 1_565 S
C1020 C1019 1.524 . S
C1021 C1018 1.403 . S
C1021 C1022 1.392 . S
C1021 C1025 1.495 . S
C1022 C1021 1.392 . S
C1022 C1023 1.385 . S
C1022 C1024 1.478 . S
C1023 H1017 0.915 1_565 S
C1023 C1019 1.400 . S
C1023 C1022 1.385 . S
C1024 C1022 1.478 . S
C1024 C1026 1.381 . S
C1024 C1030 1.383 1_565 S
C1025 C1021 1.495 . S
C1025 H1031 0.959 . S
C1025 H1032 0.961 . S
C1025 H1033 0.960 . S
C1026 C1024 1.381 . S
C1026 C1027 1.394 . S
C1026 H1034 0.930 . S
C1027 C1026 1.394 . S
C1027 C1028 1.383 1_565 S
C1027 H1035 0.929 . S
C1028 C1027 1.383 1_545 S
C1028 C1029 1.377 . S
C1029 H1013 0.930 . S
C1029 C1028 1.377 . S
C1029 C1030 1.379 . S
C1030 H1014 0.931 . S
C1030 C1024 1.383 1_545 S
C1030 C1029 1.379 . S
H1031 C1025 0.959 . S
H1032 C1025 0.961 . S
H1033 C1025 0.960 . S
H1034 C1026 0.930 . S
H1035 C1027 0.929 . S
H1036 C1044 0.929 . S
H1037 C1046 0.930 . S
H1038 C1048 0.930 . S
H1039 C1051 0.929 . S
H1040 C1054 0.930 . S
H1041 C1056 0.960 . S
H1042 C1056 0.960 1_655 S
H1043 C1056 0.960 . S
C1044 H1036 0.929 . S
C1044 C1045 1.377 1_655 S
C1044 C1046 1.384 . S
C1045 C1044 1.377 1_455 S
C1045 C1051 1.390 . S
C1046 H1037 0.930 . S
C1046 C1044 1.384 . S
C1046 C1047 1.372 1_655 S
C1047 C1046 1.372 1_455 S
C1047 C1048 1.400 . S
C1047 C1052 1.490 . S
C1048 H1038 0.930 . S
C1048 C1047 1.400 . S
C1048 C1051 1.386 . S
H1049 C1065 0.930 . S
H1050 C1066 0.931 . S
C1051 H1039 0.929 . S
C1051 C1045 1.390 . S
C1051 C1048 1.386 . S
C1052 C1047 1.490 . S
C1052 C1054 1.395 . S
C1052 C1055 1.403 . S
H1053 C1059 0.930 . S
C1054 H1040 0.930 . S
C1054 C1052 1.395 . S
C1054 C1057 1.403 . S
C1055 C1052 1.403 . S
C1055 C1056 1.524 . S
C1055 C1059 1.400 . S
C1056 H1041 0.960 . S
C1056 H1042 0.960 1_455 S
C1056 H1043 0.960 . S
C1056 C1055 1.524 . S
C1057 C1054 1.403 . S
C1057 C1058 1.392 . S
C1057 C1061 1.495 . S
C1058 C1057 1.392 . S
C1058 C1059 1.385 . S
C1058 C1060 1.478 . S
C1059 H1053 0.930 . S
C1059 C1055 1.400 . S
C1059 C1058 1.385 . S
C1060 C1058 1.478 . S
C1060 C1062 1.381 1_455 S
C1060 C1066 1.383 . S
C1061 C1057 1.495 . S
C1061 H1067 0.959 . S
C1061 H1068 0.961 . S
C1061 H1069 0.960 1_455 S
C1062 C1060 1.381 1_655 S
C1062 C1063 1.394 . S
C1062 H1070 0.930 . S
C1063 C1062 1.394 . S
C1063 C1064 1.383 . S
C1063 H1071 0.929 . S
C1064 C1063 1.383 . S
C1064 C1065 1.377 1_655 S
C1065 H1049 0.930 . S
C1065 C1064 1.377 1_455 S
C1065 C1066 1.379 . S
C1066 H1050 0.931 . S
C1066 C1060 1.383 . S
C1066 C1065 1.379 . S
H1067 C1061 0.959 . S
H1068 C1061 0.961 . S
H1069 C1061 0.960 1_655 S
H1070 C1062 0.930 . S
H1071 C1063 0.929 . S
H1072 C1080 0.929 . S
H1073 C1082 0.964 . S
H1074 C1084 0.930 . S
H1075 C1087 0.929 . S
H1076 C1090 0.930 . S
H1077 C1092 0.960 . S
H1078 C1092 0.960 . S
H1079 C1092 0.960 . S
C1080 H1072 0.929 . S
C1080 C1081 1.377 . S
C1080 C1082 1.384 . S
C1081 C1080 1.377 . S
C1081 C1087 1.390 . S
C1082 H1073 0.964 . S
C1082 C1080 1.384 . S
C1082 C1083 1.372 . S
C1083 C1082 1.372 . S
C1083 C1084 1.400 . S
C1083 C1088 1.490 . S
C1084 H1074 0.930 . S
C1084 C1083 1.400 . S
C1084 C1087 1.386 . S
H1085 C1101 0.930 . S
H1086 C1102 0.931 . S
C1087 H1075 0.929 . S
C1087 C1081 1.390 . S
C1087 C1084 1.386 . S
C1088 C1083 1.490 . S
C1088 C1090 1.395 . S
C1088 C1091 1.403 . S
H1089 C1095 0.930 . S
C1090 H1076 0.930 . S
C1090 C1088 1.395 . S
C1090 C1093 1.403 . S
C1091 C1088 1.403 . S
C1091 C1092 1.524 . S
C1091 C1095 1.400 . S
C1092 H1077 0.960 . S
C1092 H1078 0.960 . S
C1092 H1079 0.960 . S
C1092 C1091 1.524 . S
C1093 C1090 1.403 . S
C1093 C1094 1.392 . S
C1093 C1097 1.495 1_556 S
C1094 C1093 1.392 . S
C1094 C1095 1.385 . S
C1094 C1096 1.478 . S
C1095 H1089 0.930 . S
C1095 C1091 1.400 . S
C1095 C1094 1.385 . S
C1096 C1094 1.478 . S
C1096 C1098 1.381 1_556 S
C1096 C1102 1.383 . S
C1097 C1093 1.495 1_554 S
C1097 H1103 0.959 . S
C1097 H1104 0.954 1_554 S
C1097 H1105 0.960 . S
C1098 C1096 1.381 1_554 S
C1098 C1099 1.394 . S
C1098 H1106 0.930 . S
C1099 C1098 1.394 . S
C1099 C1100 1.383 1_554 S
C1099 H1107 0.929 . S
C1100 C1099 1.383 1_556 S
C1100 C1101 1.377 . S
C1101 H1085 0.930 . S
C1101 C1100 1.377 . S
C1101 C1102 1.379 . S
C1102 H1086 0.931 . S
C1102 C1096 1.383 . S
C1102 C1101 1.379 . S
H1103 C1097 0.959 . S
H1104 C1097 0.954 1_556 S
H1105 C1097 0.960 . S
H1106 C1098 0.930 . S
H1107 C1099 0.929 . S
H1108 C1116 0.929 . S
H1109 C1118 0.930 . S
H1110 C1120 0.930 . S
H1111 C1123 0.929 . S
H1112 C1126 0.930 . S
H1113 C1128 0.960 . S
H1114 C1128 0.960 . S
H1115 C1128 0.960 . S
C1116 H1108 0.929 . S
C1116 C1117 1.377 . S
C1116 C1118 1.384 . S
C1117 C1116 1.377 . S
C1117 C1123 1.390 . S
C1118 H1109 0.930 . S
C1118 C1116 1.384 . S
C1118 C1119 1.372 . S
C1119 C1118 1.372 . S
C1119 C1120 1.400 . S
C1119 C1124 1.490 . S
C1120 H1110 0.930 . S
C1120 C1119 1.400 . S
C1120 C1123 1.386 . S
H1121 C1137 0.930 . S
H1122 C1138 0.931 . S
C1123 H1111 0.929 . S
C1123 C1117 1.390 . S
C1123 C1120 1.386 . S
C1124 C1119 1.490 . S
C1124 C1126 1.395 . S
C1124 C1127 1.403 . S
H1125 C1131 0.930 . S
C1126 H1112 0.930 . S
C1126 C1124 1.395 . S
C1126 C1129 1.403 . S
C1127 C1124 1.403 . S
C1127 C1128 1.524 . S
C1127 C1131 1.400 . S
C1128 H1113 0.960 . S
C1128 H1114 0.960 . S
C1128 H1115 0.960 . S
C1128 C1127 1.524 . S
C1129 C1126 1.403 . S
C1129 C1130 1.392 . S
C1129 C1133 1.495 . S
C1130 C1129 1.392 . S
C1130 C1131 1.385 . S
C1130 C1132 1.478 . S
C1131 H1125 0.930 . S
C1131 C1127 1.400 . S
C1131 C1130 1.385 . S
C1132 C1130 1.478 . S
C1132 C1134 1.381 . S
C1132 C1138 1.383 . S
C1133 C1129 1.495 . S
C1133 H1139 0.959 . S
C1133 H1140 0.961 . S
C1133 H1141 0.960 . S
C1134 C1132 1.381 . S
C1134 C1135 1.394 . S
C1134 H1142 0.930 . S
C1135 C1134 1.394 . S
C1135 C1136 1.383 . S
C1135 H1143 0.929 . S
C1136 C1135 1.383 . S
C1136 C1137 1.377 . S
C1137 H1121 0.930 . S
C1137 C1136 1.377 . S
C1137 C1138 1.379 . S
C1138 H1122 0.931 . S
C1138 C1132 1.383 . S
C1138 C1137 1.379 . S
H1139 C1133 0.959 . S
H1140 C1133 0.961 . S
H1141 C1133 0.960 . S
H1142 C1134 0.930 . S
H1143 C1135 0.929 . S
H1144 C1152 0.929 . S
H1145 C1154 0.930 . S
H1146 C1156 0.930 . S
H1147 C1159 0.929 . S
H1148 C1162 0.930 . S
H1149 C1164 0.960 . S
H1150 C1164 0.960 . S
H1151 C1164 0.960 . S
C1152 H1144 0.929 . S
C1152 C1153 1.377 . S
C1152 C1154 1.384 . S
C1153 C1152 1.377 . S
C1153 C1159 1.390 . S
C1154 H1145 0.930 . S
C1154 C1152 1.384 . S
C1154 C1155 1.372 . S
C1155 C1154 1.372 . S
C1155 C1156 1.400 . S
C1155 C1160 1.490 . S
C1156 H1146 0.930 . S
C1156 C1155 1.400 . S
C1156 C1159 1.386 . S
H1157 C1173 0.930 . S
H1158 C1174 0.931 . S
C1159 H1147 0.929 . S
C1159 C1153 1.390 . S
C1159 C1156 1.386 . S
C1160 C1155 1.490 . S
C1160 C1162 1.395 . S
C1160 C1163 1.403 . S
H1161 C1167 0.930 . S
C1162 H1148 0.930 . S
C1162 C1160 1.395 . S
C1162 C1165 1.403 . S
C1163 C1160 1.403 . S
C1163 C1164 1.524 . S
C1163 C1167 1.400 . S
C1164 H1149 0.960 . S
C1164 H1150 0.960 . S
C1164 H1151 0.960 . S
C1164 C1163 1.524 . S
C1165 C1162 1.403 . S
C1165 C1166 1.392 . S
C1165 C1169 1.495 . S
C1166 C1165 1.392 . S
C1166 C1167 1.385 . S
C1166 C1168 1.478 . S
C1167 H1161 0.930 . S
C1167 C1163 1.400 . S
C1167 C1166 1.385 . S
C1168 C1166 1.478 . S
C1168 C1170 1.381 . S
C1168 C1174 1.383 . S
C1169 C1165 1.495 . S
C1169 H1175 0.959 . S
C1169 H1176 0.961 . S
C1169 H1177 0.960 . S
C1170 C1168 1.381 . S
C1170 C1171 1.394 . S
C1170 H1178 0.930 . S
C1171 C1170 1.394 . S
C1171 C1172 1.383 . S
C1171 H1179 0.929 . S
C1172 C1171 1.383 . S
C1172 C1173 1.377 . S
C1173 H1157 0.930 . S
C1173 C1172 1.377 . S
C1173 C1174 1.379 . S
C1174 H1158 0.931 . S
C1174 C1168 1.383 . S
C1174 C1173 1.379 . S
H1175 C1169 0.959 . S
H1176 C1169 0.961 . S
H1177 C1169 0.960 . S
H1178 C1170 0.930 . S
H1179 C1171 0.929 . S
H1180 C1188 0.929 . S
H1181 C1190 0.930 . S
H1182 C1192 0.930 . S
H1183 C1195 0.929 . S
H1184 C1198 0.930 . S
H1185 C1200 0.960 . S
H1186 C1200 0.960 . S
H1187 C1200 0.960 . S
C1188 H1180 0.929 . S
C1188 C1189 1.377 . S
C1188 C1190 1.384 . S
C1189 C1188 1.377 . S
C1189 C1195 1.390 . S
C1190 H1181 0.930 . S
C1190 C1188 1.384 . S
C1190 C1191 1.372 . S
C1191 C1190 1.372 . S
C1191 C1192 1.400 . S
C1191 C1196 1.490 . S
C1192 H1182 0.930 . S
C1192 C1191 1.400 . S
C1192 C1195 1.386 . S
H1193 C1209 0.930 . S
H1194 C1210 0.931 . S
C1195 H1183 0.929 . S
C1195 C1189 1.390 . S
C1195 C1192 1.386 . S
C1196 C1191 1.490 . S
C1196 C1198 1.395 . S
C1196 C1199 1.403 . S
H1197 C1203 0.930 . S
C1198 H1184 0.930 . S
C1198 C1196 1.395 . S
C1198 C1201 1.403 . S
C1199 C1196 1.403 . S
C1199 C1200 1.524 . S
C1199 C1203 1.400 . S
C1200 H1185 0.960 . S
C1200 H1186 0.960 . S
C1200 H1187 0.960 . S
C1200 C1199 1.524 . S
C1201 C1198 1.403 . S
C1201 C1202 1.392 . S
C1201 C1205 1.495 . S
C1202 C1201 1.392 . S
C1202 C1203 1.385 . S
C1202 C1204 1.478 . S
C1203 H1197 0.930 . S
C1203 C1199 1.400 . S
C1203 C1202 1.385 . S
C1204 C1202 1.478 . S
C1204 C1206 1.381 . S
C1204 C1210 1.383 . S
C1205 C1201 1.495 . S
C1205 H1211 0.959 . S
C1205 H1212 0.961 . S
C1205 H1213 0.960 . S
C1206 C1204 1.381 . S
C1206 C1207 1.394 . S
C1206 H1214 0.930 . S
C1207 C1206 1.394 . S
C1207 C1208 1.383 . S
C1207 H1215 0.929 . S
C1208 C1207 1.383 . S
C1208 C1209 1.377 . S
C1209 H1193 0.930 . S
C1209 C1208 1.377 . S
C1209 C1210 1.379 . S
C1210 H1194 0.931 . S
C1210 C1204 1.383 . S
C1210 C1209 1.379 . S
H1211 C1205 0.959 . S
H1212 C1205 0.961 . S
H1213 C1205 0.960 . S
H1214 C1206 0.930 . S
H1215 C1207 0.929 . S
H1216 C1224 0.929 . S
H1217 C1226 0.930 . S
H1218 C1228 0.930 . S
H1219 C1231 0.929 . S
H1220 C1234 0.930 . S
H1221 C1236 0.960 . S
H1222 C1236 0.960 . S
H1223 C1236 0.960 . S
C1224 H1216 0.929 . S
C1224 C1225 1.377 . S
C1224 C1226 1.384 . S
C1225 C1224 1.377 . S
C1225 C1231 1.390 . S
C1226 H1217 0.930 . S
C1226 C1224 1.384 . S
C1226 C1227 1.372 . S
C1227 C1226 1.372 . S
C1227 C1228 1.400 . S
C1227 C1232 1.490 . S
C1228 H1218 0.930 . S
C1228 C1227 1.400 . S
C1228 C1231 1.386 . S
H1229 C1245 0.930 . S
H1230 C1246 0.931 . S
C1231 H1219 0.929 . S
C1231 C1225 1.390 . S
C1231 C1228 1.386 . S
C1232 C1227 1.490 . S
C1232 C1234 1.395 . S
C1232 C1235 1.403 . S
H1233 C1239 0.930 . S
C1234 H1220 0.930 . S
C1234 C1232 1.395 . S
C1234 C1237 1.403 . S
C1235 C1232 1.403 . S
C1235 C1236 1.524 . S
C1235 C1239 1.400 . S
C1236 H1221 0.960 . S
C1236 H1222 0.960 . S
C1236 H1223 0.960 . S
C1236 C1235 1.524 . S
C1237 C1234 1.403 . S
C1237 C1238 1.392 . S
C1237 C1241 1.495 . S
C1238 C1237 1.392 . S
C1238 C1239 1.385 . S
C1238 C1240 1.478 . S
C1239 H1233 0.930 . S
C1239 C1235 1.400 . S
C1239 C1238 1.385 . S
C1240 C1238 1.478 . S
C1240 C1242 1.381 . S
C1240 C1246 1.383 . S
C1241 C1237 1.495 . S
C1241 H1247 0.959 . S
C1241 H1248 0.961 . S
C1241 H1249 0.960 . S
C1242 C1240 1.381 . S
C1242 C1243 1.394 . S
C1242 H1250 0.930 . S
C1243 C1242 1.394 . S
C1243 C1244 1.383 . S
C1243 H1251 0.929 . S
C1244 C1243 1.383 . S
C1244 C1245 1.377 . S
C1245 H1229 0.930 . S
C1245 C1244 1.377 . S
C1245 C1246 1.379 . S
C1246 H1230 0.931 . S
C1246 C1240 1.383 . S
C1246 C1245 1.379 . S
H1247 C1241 0.959 . S
H1248 C1241 0.961 . S
H1249 C1241 0.960 . S
H1250 C1242 0.930 . S
H1251 C1243 0.929 . S
H1252 C1260 0.929 . S
H1253 C1262 0.930 . S
H1254 C1264 0.930 . S
H1255 C1267 0.929 . S
H1256 C1270 0.930 . S
H1257 C1272 0.960 . S
H1258 C1272 0.960 . S
H1259 C1272 0.960 . S
C1260 H1252 0.929 . S
C1260 C1261 1.377 . S
C1260 C1262 1.384 . S
C1261 C1260 1.377 . S
C1261 C1267 1.390 . S
C1262 H1253 0.930 . S
C1262 C1260 1.384 . S
C1262 C1263 1.372 . S
C1263 C1262 1.372 . S
C1263 C1264 1.400 . S
C1263 C1268 1.490 . S
C1264 H1254 0.930 . S
C1264 C1263 1.400 . S
C1264 C1267 1.386 . S
H1265 C1281 0.930 . S
H1266 C1282 0.931 . S
C1267 H1255 0.929 . S
C1267 C1261 1.390 . S
C1267 C1264 1.386 . S
C1268 C1263 1.490 . S
C1268 C1270 1.395 . S
C1268 C1271 1.403 . S
H1269 C1275 0.930 . S
C1270 H1256 0.930 . S
C1270 C1268 1.395 . S
C1270 C1273 1.403 . S
C1271 C1268 1.403 . S
C1271 C1272 1.524 . S
C1271 C1275 1.400 . S
C1272 H1257 0.960 . S
C1272 H1258 0.960 . S
C1272 H1259 0.960 . S
C1272 C1271 1.524 . S
C1273 C1270 1.403 . S
C1273 C1274 1.392 . S
C1273 C1277 1.495 . S
C1274 C1273 1.392 . S
C1274 C1275 1.385 . S
C1274 C1276 1.478 . S
C1275 H1269 0.930 . S
C1275 C1271 1.400 . S
C1275 C1274 1.385 . S
C1276 C1274 1.478 . S
C1276 C1278 1.381 . S
C1276 C1282 1.383 . S
C1277 C1273 1.495 . S
C1277 H1283 0.959 . S
C1277 H1284 0.961 . S
C1277 H1285 0.960 . S
C1278 C1276 1.381 . S
C1278 C1279 1.394 . S
C1278 H1286 0.930 . S
C1279 C1278 1.394 . S
C1279 C1280 1.383 . S
C1279 H1287 0.929 . S
C1280 C1279 1.383 . S
C1280 C1281 1.377 . S
C1281 H1265 0.930 . S
C1281 C1280 1.377 . S
C1281 C1282 1.379 . S
C1282 H1266 0.931 . S
C1282 C1276 1.383 . S
C1282 C1281 1.379 . S
H1283 C1277 0.959 . S
H1284 C1277 0.961 . S
H1285 C1277 0.960 . S
H1286 C1278 0.930 . S
H1287 C1279 0.929 . S
H1288 C1296 0.929 . S
H1289 C1298 0.930 . S
H1290 C1300 0.930 . S
H1291 C1303 0.929 . S
H1292 C1306 0.930 . S
H1293 C1308 0.960 . S
H1294 C1308 0.960 . S
H1295 C1308 0.960 . S
C1296 H1288 0.929 . S
C1296 C1297 1.377 . S
C1296 C1298 1.384 . S
C1297 C1296 1.377 . S
C1297 C1303 1.390 . S
C1298 H1289 0.930 . S
C1298 C1296 1.384 . S
C1298 C1299 1.372 . S
C1299 C1298 1.372 . S
C1299 C1300 1.400 . S
C1299 C1304 1.490 . S
C1300 H1290 0.930 . S
C1300 C1299 1.400 . S
C1300 C1303 1.386 . S
H1301 C1317 0.930 . S
H1302 C1318 0.931 . S
C1303 H1291 0.929 . S
C1303 C1297 1.390 . S
C1303 C1300 1.386 . S
C1304 C1299 1.490 . S
C1304 C1306 1.395 . S
C1304 C1307 1.403 . S
H1305 C1311 0.930 . S
C1306 H1292 0.930 . S
C1306 C1304 1.395 . S
C1306 C1309 1.403 . S
C1307 C1304 1.403 . S
C1307 C1308 1.524 . S
C1307 C1311 1.400 . S
C1308 H1293 0.960 . S
C1308 H1294 0.960 . S
C1308 H1295 0.960 . S
C1308 C1307 1.524 . S
C1309 C1306 1.403 . S
C1309 C1310 1.392 . S
C1309 C1313 1.495 . S
C1310 C1309 1.392 . S
C1310 C1311 1.385 . S
C1310 C1312 1.478 . S
C1311 H1305 0.930 . S
C1311 C1307 1.400 . S
C1311 C1310 1.385 . S
C1312 C1310 1.478 . S
C1312 C1314 1.381 . S
C1312 C1318 1.383 . S
C1313 C1309 1.495 . S
C1313 H1319 0.959 . S
C1313 H1320 0.961 . S
C1313 H1321 0.960 . S
C1314 C1312 1.381 . S
C1314 C1315 1.394 . S
C1314 H1322 0.930 . S
C1315 C1314 1.394 . S
C1315 C1316 1.383 . S
C1315 H1323 0.929 . S
C1316 C1315 1.383 . S
C1316 C1317 1.377 . S
C1317 H1301 0.930 . S
C1317 C1316 1.377 . S
C1317 C1318 1.379 . S
C1318 H1302 0.931 . S
C1318 C1312 1.383 . S
C1318 C1317 1.379 . S
H1319 C1313 0.959 . S
H1320 C1313 0.961 . S
H1321 C1313 0.960 . S
H1322 C1314 0.930 . S
H1323 C1315 0.929 . S
H1324 C1332 0.929 . S
H1325 C1334 0.930 . S
H1326 C1336 0.930 . S
H1327 C1339 0.929 . S
H1328 C1342 0.930 . S
H1329 C1344 0.960 . S
H1330 C1344 0.960 . S
H1331 C1344 0.960 . S
C1332 H1324 0.929 . S
C1332 C1333 1.377 . S
C1332 C1334 1.384 . S
C1333 C1332 1.377 . S
C1333 C1339 1.390 . S
C1334 H1325 0.930 . S
C1334 C1332 1.384 . S
C1334 C1335 1.372 . S
C1335 C1334 1.372 . S
C1335 C1336 1.400 . S
C1335 C1340 1.490 . S
C1336 H1326 0.930 . S
C1336 C1335 1.400 . S
C1336 C1339 1.386 . S
H1337 C1353 0.930 . S
H1338 C1354 0.931 . S
C1339 H1327 0.929 . S
C1339 C1333 1.390 . S
C1339 C1336 1.386 . S
C1340 C1335 1.490 . S
C1340 C1342 1.395 . S
C1340 C1343 1.403 . S
H1341 C1347 0.930 . S
C1342 H1328 0.930 . S
C1342 C1340 1.395 . S
C1342 C1345 1.403 . S
C1343 C1340 1.403 . S
C1343 C1344 1.524 . S
C1343 C1347 1.400 . S
C1344 H1329 0.960 . S
C1344 H1330 0.960 . S
C1344 H1331 0.960 . S
C1344 C1343 1.524 . S
C1345 C1342 1.403 . S
C1345 C1346 1.392 . S
C1345 C1349 1.495 . S
C1346 C1345 1.392 . S
C1346 C1347 1.385 . S
C1346 C1348 1.478 . S
C1347 H1341 0.930 . S
C1347 C1343 1.400 . S
C1347 C1346 1.385 . S
C1348 C1346 1.478 . S
C1348 C1350 1.381 . S
C1348 C1354 1.383 . S
C1349 C1345 1.495 . S
C1349 H1355 0.959 . S
C1349 H1356 0.961 . S
C1349 H1357 0.960 . S
C1350 C1348 1.381 . S
C1350 C1351 1.394 . S
C1350 H1358 0.930 . S
C1351 C1350 1.394 . S
C1351 C1352 1.383 . S
C1351 H1359 0.929 . S
C1352 C1351 1.383 . S
C1352 C1353 1.377 . S
C1353 H1337 0.930 . S
C1353 C1352 1.377 . S
C1353 C1354 1.379 . S
C1354 H1338 0.931 . S
C1354 C1348 1.383 . S
C1354 C1353 1.379 . S
H1355 C1349 0.959 . S
H1356 C1349 0.961 . S
H1357 C1349 0.960 . S
H1358 C1350 0.930 . S
H1359 C1351 0.929 . S
H1360 C1368 0.929 . S
H1361 C1370 0.930 . S
H1362 C1372 0.930 . S
H1363 C1375 0.929 . S
H1364 C1378 0.930 . S
H1365 C1380 0.960 . S
H1366 C1380 0.960 . S
H1367 C1380 0.960 . S
C1368 H1360 0.929 . S
C1368 C1369 1.377 . S
C1368 C1370 1.384 . S
C1369 C1368 1.377 . S
C1369 C1375 1.390 . S
C1370 H1361 0.930 . S
C1370 C1368 1.384 . S
C1370 C1371 1.372 . S
C1371 C1370 1.372 . S
C1371 C1372 1.400 . S
C1371 C1376 1.490 . S
C1372 H1362 0.930 . S
C1372 C1371 1.400 . S
C1372 C1375 1.386 . S
H1373 C1389 0.930 . S
H1374 C1390 0.931 . S
C1375 H1363 0.929 . S
C1375 C1369 1.390 . S
C1375 C1372 1.386 . S
C1376 C1371 1.490 . S
C1376 C1378 1.395 . S
C1376 C1379 1.403 . S
H1377 C1383 0.930 . S
C1378 H1364 0.930 . S
C1378 C1376 1.395 . S
C1378 C1381 1.403 . S
C1379 C1376 1.403 . S
C1379 C1380 1.524 . S
C1379 C1383 1.400 . S
C1380 H1365 0.960 . S
C1380 H1366 0.960 . S
C1380 H1367 0.960 . S
C1380 C1379 1.524 . S
C1381 C1378 1.403 . S
C1381 C1382 1.392 . S
C1381 C1385 1.495 . S
C1382 C1381 1.392 . S
C1382 C1383 1.385 . S
C1382 C1384 1.478 . S
C1383 H1377 0.930 . S
C1383 C1379 1.400 . S
C1383 C1382 1.385 . S
C1384 C1382 1.478 . S
C1384 C1386 1.381 . S
C1384 C1390 1.383 . S
C1385 C1381 1.495 . S
C1385 H1391 0.959 . S
C1385 H1392 0.961 . S
C1385 H1393 0.960 . S
C1386 C1384 1.381 . S
C1386 C1387 1.394 . S
C1386 H1394 0.930 . S
C1387 C1386 1.394 . S
C1387 C1388 1.383 . S
C1387 H1395 0.929 . S
C1388 C1387 1.383 . S
C1388 C1389 1.377 . S
C1389 H1373 0.930 . S
C1389 C1388 1.377 . S
C1389 C1390 1.379 . S
C1390 H1374 0.931 . S
C1390 C1384 1.383 . S
C1390 C1389 1.379 . S
H1391 C1385 0.959 . S
H1392 C1385 0.961 . S
H1393 C1385 0.960 . S
H1394 C1386 0.930 . S
H1395 C1387 0.929 . S
H1396 C1404 0.929 . S
H1397 C1406 0.930 . S
H1398 C1408 0.930 . S
H1399 C1411 0.929 . S
H1400 C1414 0.930 . S
H1401 C1416 0.960 . S
H1402 C1416 0.935 1_655 S
H1403 C1416 0.960 . S
C1404 H1396 0.929 . S
C1404 C1405 1.377 1_655 S
C1404 C1406 1.384 . S
C1405 C1404 1.377 1_455 S
C1405 C1411 1.390 . S
C1406 H1397 0.930 . S
C1406 C1404 1.384 . S
C1406 C1407 1.372 . S
C1407 C1406 1.372 . S
C1407 C1408 1.400 1_655 S
C1407 C1412 1.490 . S
C1408 H1398 0.930 . S
C1408 C1407 1.400 1_455 S
C1408 C1411 1.386 . S
H1409 C1425 0.930 . S
H1410 C1426 0.931 . S
C1411 H1399 0.929 . S
C1411 C1405 1.390 . S
C1411 C1408 1.386 . S
C1412 C1407 1.490 . S
C1412 C1414 1.395 . S
C1412 C1415 1.403 1_655 S
H1413 C1419 0.932 1_455 S
C1414 H1400 0.930 . S
C1414 C1412 1.395 . S
C1414 C1417 1.403 . S
C1415 C1412 1.403 1_455 S
C1415 C1416 1.524 . S
C1415 C1419 1.377 1_455 S
C1416 H1401 0.960 . S
C1416 H1402 0.935 1_455 S
C1416 H1403 0.960 . S
C1416 C1415 1.524 . S
C1417 C1414 1.403 . S
C1417 C1418 1.392 . S
C1417 C1421 1.495 . S
C1418 C1417 1.392 . S
C1418 C1419 1.410 . S
C1418 C1420 1.478 . S
C1419 H1413 0.932 1_655 S
C1419 C1415 1.377 1_655 S
C1419 C1418 1.410 . S
C1420 C1418 1.478 . S
C1420 C1422 1.381 . S
C1420 C1426 1.383 1_655 S
C1421 C1417 1.495 . S
C1421 H1427 0.959 . S
C1421 H1428 0.961 . S
C1421 H1429 0.960 . S
C1422 C1420 1.381 . S
C1422 C1423 1.394 . S
C1422 H1430 0.930 . S
C1423 C1422 1.394 . S
C1423 C1424 1.383 . S
C1423 H1431 0.929 . S
C1424 C1423 1.383 . S
C1424 C1425 1.377 1_655 S
C1425 H1409 0.930 . S
C1425 C1424 1.377 1_455 S
C1425 C1426 1.379 . S
C1426 H1410 0.931 . S
C1426 C1420 1.383 1_455 S
C1426 C1425 1.379 . S
H1427 C1421 0.959 . S
H1428 C1421 0.961 . S
H1429 C1421 0.960 . S
H1430 C1422 0.930 . S
H1431 C1423 0.929 . S
H1432 C1440 0.929 . S
H1433 C1442 0.930 . S
H1434 C1444 0.930 . S
H1435 C1447 0.929 . S
H1436 C1450 0.930 . S
H1437 C1452 0.960 . S
H1438 C1452 0.960 . S
H1439 C1452 0.960 . S
C1440 H1432 0.929 . S
C1440 C1441 1.377 . S
C1440 C1442 1.384 . S
C1441 C1440 1.377 . S
C1441 C1447 1.390 . S
C1442 H1433 0.930 . S
C1442 C1440 1.384 . S
C1442 C1443 1.372 . S
C1443 C1442 1.372 . S
C1443 C1444 1.400 . S
C1443 C1448 1.490 . S
C1444 H1434 0.930 . S
C1444 C1443 1.400 . S
C1444 C1447 1.386 . S
H1445 C1461 0.930 . S
H1446 C1462 0.931 . S
C1447 H1435 0.929 . S
C1447 C1441 1.390 . S
C1447 C1444 1.386 . S
C1448 C1443 1.490 . S
C1448 C1450 1.395 . S
C1448 C1451 1.403 . S
H1449 C1455 0.930 . S
C1450 H1436 0.930 . S
C1450 C1448 1.395 . S
C1450 C1453 1.403 . S
C1451 C1448 1.403 . S
C1451 C1452 1.524 . S
C1451 C1455 1.400 . S
C1452 H1437 0.960 . S
C1452 H1438 0.960 . S
C1452 H1439 0.960 . S
C1452 C1451 1.524 . S
C1453 C1450 1.403 . S
C1453 C1454 1.392 . S
C1453 C1457 1.495 . S
C1454 C1453 1.392 . S
C1454 C1455 1.385 . S
C1454 C1456 1.478 . S
C1455 H1449 0.930 . S
C1455 C1451 1.400 . S
C1455 C1454 1.385 . S
C1456 C1454 1.478 . S
C1456 C1458 1.381 . S
C1456 C1462 1.383 . S
C1457 C1453 1.495 . S
C1457 H1463 0.959 . S
C1457 H1464 0.961 . S
C1457 H1465 0.960 . S
C1458 C1456 1.381 . S
C1458 C1459 1.394 . S
C1458 H1466 0.930 . S
C1459 C1458 1.394 . S
C1459 C1460 1.383 . S
C1459 H1467 0.929 . S
C1460 C1459 1.383 . S
C1460 C1461 1.377 . S
C1461 H1445 0.930 . S
C1461 C1460 1.377 . S
C1461 C1462 1.379 . S
C1462 H1446 0.931 . S
C1462 C1456 1.383 . S
C1462 C1461 1.379 . S
H1463 C1457 0.959 . S
H1464 C1457 0.961 . S
H1465 C1457 0.960 . S
H1466 C1458 0.930 . S
H1467 C1459 0.929 . S
H1468 C1476 0.929 . S
H1469 C1478 0.930 . S
H1470 C1480 0.930 . S
H1471 C1483 0.929 . S
H1472 C1486 0.930 . S
H1473 C1488 0.960 . S
H1474 C1488 0.960 . S
H1475 C1488 0.960 . S
C1476 H1468 0.929 . S
C1476 C1477 1.377 . S
C1476 C1478 1.384 . S
C1477 C1476 1.377 . S
C1477 C1483 1.390 . S
C1478 H1469 0.930 . S
C1478 C1476 1.384 . S
C1478 C1479 1.372 . S
C1479 C1478 1.372 . S
C1479 C1480 1.400 . S
C1479 C1484 1.490 . S
C1480 H1470 0.930 . S
C1480 C1479 1.400 . S
C1480 C1483 1.386 . S
H1481 C1497 0.930 . S
H1482 C1498 0.931 . S
C1483 H1471 0.929 . S
C1483 C1477 1.390 . S
C1483 C1480 1.386 . S
C1484 C1479 1.490 . S
C1484 C1486 1.395 . S
C1484 C1487 1.403 . S
H1485 C1491 0.930 . S
C1486 H1472 0.930 . S
C1486 C1484 1.395 . S
C1486 C1489 1.403 . S
C1487 C1484 1.403 . S
C1487 C1488 1.524 . S
C1487 C1491 1.400 . S
C1488 H1473 0.960 . S
C1488 H1474 0.960 . S
C1488 H1475 0.960 . S
C1488 C1487 1.524 . S
C1489 C1486 1.403 . S
C1489 C1490 1.392 . S
C1489 C1493 1.495 . S
C1490 C1489 1.392 . S
C1490 C1491 1.385 . S
C1490 C1492 1.478 . S
C1491 H1485 0.930 . S
C1491 C1487 1.400 . S
C1491 C1490 1.385 . S
C1492 C1490 1.478 . S
C1492 C1494 1.381 . S
C1492 C1498 1.383 . S
C1493 C1489 1.495 . S
C1493 H1499 0.959 . S
C1493 H1500 0.961 . S
C1493 H1501 0.960 . S
C1494 C1492 1.381 . S
C1494 C1495 1.394 . S
C1494 H1502 0.930 . S
C1495 C1494 1.394 . S
C1495 C1496 1.383 . S
C1495 H1503 0.929 . S
C1496 C1495 1.383 . S
C1496 C1497 1.377 . S
C1497 H1481 0.930 . S
C1497 C1496 1.377 . S
C1497 C1498 1.379 . S
C1498 H1482 0.931 . S
C1498 C1492 1.383 . S
C1498 C1497 1.379 . S
H1499 C1493 0.959 . S
H1500 C1493 0.961 . S
H1501 C1493 0.960 . S
H1502 C1494 0.930 . S
H1503 C1495 0.929 . S
H1504 C1512 0.929 . S
H1505 C1514 0.930 . S
H1506 C1516 0.930 . S
H1507 C1519 0.929 . S
H1508 C1522 0.930 . S
H1509 C1524 0.960 . S
H1510 C1524 0.960 . S
H1511 C1524 0.960 . S
C1512 H1504 0.929 . S
C1512 C1513 1.377 . S
C1512 C1514 1.384 . S
C1513 C1512 1.377 . S
C1513 C1519 1.390 . S
C1514 H1505 0.930 . S
C1514 C1512 1.384 . S
C1514 C1515 1.372 . S
C1515 C1514 1.372 . S
C1515 C1516 1.400 . S
C1515 C1520 1.490 . S
C1516 H1506 0.930 . S
C1516 C1515 1.400 . S
C1516 C1519 1.386 . S
H1517 C1533 0.930 . S
H1518 C1534 0.931 . S
C1519 H1507 0.929 . S
C1519 C1513 1.390 . S
C1519 C1516 1.386 . S
C1520 C1515 1.490 . S
C1520 C1522 1.395 . S
C1520 C1523 1.403 . S
H1521 C1527 0.930 . S
C1522 H1508 0.930 . S
C1522 C1520 1.395 . S
C1522 C1525 1.403 . S
C1523 C1520 1.403 . S
C1523 C1524 1.524 . S
C1523 C1527 1.400 . S
C1524 H1509 0.960 . S
C1524 H1510 0.960 . S
C1524 H1511 0.960 . S
C1524 C1523 1.524 . S
C1525 C1522 1.403 . S
C1525 C1526 1.392 . S
C1525 C1529 1.495 . S
C1526 C1525 1.392 . S
C1526 C1527 1.385 . S
C1526 C1528 1.478 . S
C1527 H1521 0.930 . S
C1527 C1523 1.400 . S
C1527 C1526 1.385 . S
C1528 C1526 1.478 . S
C1528 C1530 1.381 . S
C1528 C1534 1.383 . S
C1529 C1525 1.495 . S
C1529 H1535 0.959 . S
C1529 H1536 0.961 . S
C1529 H1537 0.960 . S
C1530 C1528 1.381 . S
C1530 C1531 1.394 . S
C1530 H1538 0.930 . S
C1531 C1530 1.394 . S
C1531 C1532 1.383 . S
C1531 H1539 0.929 . S
C1532 C1531 1.383 . S
C1532 C1533 1.377 . S
C1533 H1517 0.930 . S
C1533 C1532 1.377 . S
C1533 C1534 1.379 . S
C1534 H1518 0.931 . S
C1534 C1528 1.383 . S
C1534 C1533 1.379 . S
H1535 C1529 0.959 . S
H1536 C1529 0.961 . S
H1537 C1529 0.960 . S
H1538 C1530 0.930 . S
H1539 C1531 0.929 . S
H1540 C1548 0.929 . S
H1541 C1550 0.930 . S
H1542 C1552 0.930 . S
H1543 C1555 0.929 . S
H1544 C1558 0.930 . S
H1545 C1560 0.960 . S
H1546 C1560 0.960 . S
H1547 C1560 0.960 . S
C1548 H1540 0.929 . S
C1548 C1549 1.377 . S
C1548 C1550 1.384 . S
C1549 C1548 1.377 . S
C1549 C1555 1.390 . S
C1550 H1541 0.930 . S
C1550 C1548 1.384 . S
C1550 C1551 1.372 . S
C1551 C1550 1.372 . S
C1551 C1552 1.400 . S
C1551 C1556 1.490 . S
C1552 H1542 0.930 . S
C1552 C1551 1.400 . S
C1552 C1555 1.386 . S
H1553 C1569 0.930 . S
H1554 C1570 0.931 . S
C1555 H1543 0.929 . S
C1555 C1549 1.390 . S
C1555 C1552 1.386 . S
C1556 C1551 1.490 . S
C1556 C1558 1.395 . S
C1556 C1559 1.403 . S
H1557 C1563 0.930 . S
C1558 H1544 0.930 . S
C1558 C1556 1.395 . S
C1558 C1561 1.403 . S
C1559 C1556 1.403 . S
C1559 C1560 1.524 . S
C1559 C1563 1.400 . S
C1560 H1545 0.960 . S
C1560 H1546 0.960 . S
C1560 H1547 0.960 . S
C1560 C1559 1.524 . S
C1561 C1558 1.403 . S
C1561 C1562 1.392 . S
C1561 C1565 1.495 . S
C1562 C1561 1.392 . S
C1562 C1563 1.385 . S
C1562 C1564 1.478 . S
C1563 H1557 0.930 . S
C1563 C1559 1.400 . S
C1563 C1562 1.385 . S
C1564 C1562 1.478 . S
C1564 C1566 1.381 . S
C1564 C1570 1.383 . S
C1565 C1561 1.495 . S
C1565 H1571 0.959 . S
C1565 H1572 0.961 . S
C1565 H1573 0.960 . S
C1566 C1564 1.381 . S
C1566 C1567 1.394 . S
C1566 H1574 0.930 . S
C1567 C1566 1.394 . S
C1567 C1568 1.383 . S
C1567 H1575 0.929 . S
C1568 C1567 1.383 . S
C1568 C1569 1.377 . S
C1569 H1553 0.930 . S
C1569 C1568 1.377 . S
C1569 C1570 1.379 . S
C1570 H1554 0.931 . S
C1570 C1564 1.383 . S
C1570 C1569 1.379 . S
H1571 C1565 0.959 . S
H1572 C1565 0.961 . S
H1573 C1565 0.960 . S
H1574 C1566 0.930 . S
H1575 C1567 0.929 . S
H1576 C1584 0.929 . S
H1577 C1586 0.930 . S
H1578 C1588 0.930 . S
H1579 C1591 0.929 . S
H1580 C1594 0.930 . S
H1581 C1596 0.960 . S
H1582 C1596 0.960 1_545 S
H1583 C1596 0.960 . S
C1584 H1576 0.929 . S
C1584 C1585 1.377 1_545 S
C1584 C1586 1.384 . S
C1585 C1584 1.377 1_565 S
C1585 C1591 1.390 . S
C1586 H1577 0.930 . S
C1586 C1584 1.384 . S
C1586 C1587 1.372 . S
C1587 C1586 1.372 . S
C1587 C1588 1.400 1_545 S
C1587 C1592 1.490 . S
C1588 H1578 0.930 . S
C1588 C1587 1.400 1_565 S
C1588 C1591 1.386 . S
H1589 C1605 0.930 1_565 S
H1590 C1606 0.931 . S
C1591 H1579 0.929 . S
C1591 C1585 1.390 . S
C1591 C1588 1.386 . S
C1592 C1587 1.490 . S
C1592 C1594 1.395 . S
C1592 C1595 1.403 . S
H1593 C1599 0.930 . S
C1594 H1580 0.930 . S
C1594 C1592 1.395 . S
C1594 C1597 1.403 . S
C1595 C1592 1.403 . S
C1595 C1596 1.524 1_545 S
C1595 C1599 1.400 . S
C1596 H1581 0.960 . S
C1596 H1582 0.960 1_565 S
C1596 H1583 0.960 . S
C1596 C1595 1.524 1_565 S
C1597 C1594 1.403 . S
C1597 C1598 1.392 . S
C1597 C1601 1.495 . S
C1598 C1597 1.392 . S
C1598 C1599 1.385 . S
C1598 C1600 1.478 . S
C1599 H1593 0.930 . S
C1599 C1595 1.400 . S
C1599 C1598 1.385 . S
C1600 C1598 1.478 . S
C1600 C1602 1.381 . S
C1600 C1606 1.383 1_545 S
C1601 C1597 1.495 . S
C1601 H1607 0.959 . S
C1601 H1608 0.961 . S
C1601 H1609 0.960 . S
C1602 C1600 1.381 . S
C1602 C1603 1.394 . S
C1602 H1610 0.930 . S
C1603 C1602 1.394 . S
C1603 C1604 1.383 . S
C1603 H1611 0.929 . S
C1604 C1603 1.383 . S
C1604 C1605 1.377 . S
C1605 H1589 0.930 1_545 S
C1605 C1604 1.377 . S
C1605 C1606 1.379 1_545 S
C1606 H1590 0.931 . S
C1606 C1600 1.383 1_565 S
C1606 C1605 1.379 1_565 S
H1607 C1601 0.959 . S
H1608 C1601 0.961 . S
H1609 C1601 0.960 . S
H1610 C1602 0.930 . S
H1611 C1603 0.929 . S
H1612 C1620 0.929 . S
H1613 C1622 0.913 1_556 S
H1614 C1624 0.930 . S
H1615 C1627 0.929 . S
H1616 C1630 0.930 1_556 S
H1617 C1632 0.960 . S
H1618 C1632 0.960 . S
H1619 C1632 0.960 . S
C1620 H1612 0.929 . S
C1620 C1621 1.377 1_556 S
C1620 C1622 1.375 1_556 S
C1621 C1620 1.377 1_554 S
C1621 C1627 1.390 . S
C1622 H1613 0.913 1_554 S
C1622 C1620 1.375 1_554 S
C1622 C1623 1.398 . S
C1623 C1622 1.398 . S
C1623 C1624 1.400 . S
C1623 C1628 1.490 . S
C1624 H1614 0.930 . S
C1624 C1623 1.400 . S
C1624 C1627 1.386 . S
H1625 C1641 0.930 . S
H1626 C1642 0.931 . S
C1627 H1615 0.929 . S
C1627 C1621 1.390 . S
C1627 C1624 1.386 . S
C1628 C1623 1.490 . S
C1628 C1630 1.395 . S
C1628 C1631 1.403 . S
H1629 C1635 0.930 . S
C1630 H1616 0.930 1_554 S
C1630 C1628 1.395 . S
C1630 C1633 1.403 . S
C1631 C1628 1.403 . S
C1631 C1632 1.524 . S
C1631 C1635 1.400 . S
C1632 H1617 0.960 . S
C1632 H1618 0.960 . S
C1632 H1619 0.960 . S
C1632 C1631 1.524 . S
C1633 C1630 1.403 . S
C1633 C1634 1.392 . S
C1633 C1637 1.495 1_554 S
C1634 C1633 1.392 . S
C1634 C1635 1.385 . S
C1634 C1636 1.478 . S
C1635 H1629 0.930 . S
C1635 C1631 1.400 . S
C1635 C1634 1.385 . S
C1636 C1634 1.478 . S
C1636 C1638 1.381 . S
C1636 C1642 1.383 . S
C1637 C1633 1.495 1_556 S
C1637 H1643 0.959 . S
C1637 H1644 0.984 . S
C1637 H1645 0.960 . S
C1638 C1636 1.381 . S
C1638 C1639 1.394 . S
C1638 H1646 0.930 . S
C1639 C1638 1.394 . S
C1639 C1640 1.383 . S
C1639 H1647 0.929 . S
C1640 C1639 1.383 . S
C1640 C1641 1.377 . S
C1641 H1625 0.930 . S
C1641 C1640 1.377 . S
C1641 C1642 1.379 . S
C1642 H1626 0.931 . S
C1642 C1636 1.383 . S
C1642 C1641 1.379 . S
H1643 C1637 0.959 . S
H1644 C1637 0.984 . S
H1645 C1637 0.960 . S
H1646 C1638 0.930 . S
H1647 C1639 0.929 . S
H1648 C1656 0.929 . S
H1649 C1658 0.930 . S
H1650 C1660 0.930 . S
H1651 C1663 0.929 . S
H1652 C1666 0.930 . S
H1653 C1668 0.960 . S
H1654 C1668 0.960 . S
H1655 C1668 0.960 . S
C1656 H1648 0.929 . S
C1656 C1657 1.377 . S
C1656 C1658 1.384 . S
C1657 C1656 1.377 . S
C1657 C1663 1.390 . S
C1658 H1649 0.930 . S
C1658 C1656 1.384 . S
C1658 C1659 1.372 . S
C1659 C1658 1.372 . S
C1659 C1660 1.400 . S
C1659 C1664 1.490 . S
C1660 H1650 0.930 . S
C1660 C1659 1.400 . S
C1660 C1663 1.386 . S
H1661 C1677 0.930 . S
H1662 C1678 0.931 . S
C1663 H1651 0.929 . S
C1663 C1657 1.390 . S
C1663 C1660 1.386 . S
C1664 C1659 1.490 . S
C1664 C1666 1.395 . S
C1664 C1667 1.403 . S
H1665 C1671 0.930 . S
C1666 H1652 0.930 . S
C1666 C1664 1.395 . S
C1666 C1669 1.403 . S
C1667 C1664 1.403 . S
C1667 C1668 1.524 . S
C1667 C1671 1.400 . S
C1668 H1653 0.960 . S
C1668 H1654 0.960 . S
C1668 H1655 0.960 . S
C1668 C1667 1.524 . S
C1669 C1666 1.403 . S
C1669 C1670 1.392 . S
C1669 C1673 1.495 . S
C1670 C1669 1.392 . S
C1670 C1671 1.385 . S
C1670 C1672 1.478 . S
C1671 H1665 0.930 . S
C1671 C1667 1.400 . S
C1671 C1670 1.385 . S
C1672 C1670 1.478 . S
C1672 C1674 1.381 . S
C1672 C1678 1.383 . S
C1673 C1669 1.495 . S
C1673 H1679 0.959 . S
C1673 H1680 0.961 . S
C1673 H1681 0.960 . S
C1674 C1672 1.381 . S
C1674 C1675 1.394 . S
C1674 H1682 0.930 . S
C1675 C1674 1.394 . S
C1675 C1676 1.383 . S
C1675 H1683 0.929 . S
C1676 C1675 1.383 . S
C1676 C1677 1.377 . S
C1677 H1661 0.930 . S
C1677 C1676 1.377 . S
C1677 C1678 1.379 . S
C1678 H1662 0.931 . S
C1678 C1672 1.383 . S
C1678 C1677 1.379 . S
H1679 C1673 0.959 . S
H1680 C1673 0.961 . S
H1681 C1673 0.960 . S
H1682 C1674 0.930 . S
H1683 C1675 0.929 . S
H1684 C1692 0.929 . S
H1685 C1694 0.930 . S
H1686 C1696 0.930 . S
H1687 C1699 0.929 . S
H1688 C1702 0.930 . S
H1689 C1704 0.960 . S
H1690 C1704 0.960 . S
H1691 C1704 0.960 . S
C1692 H1684 0.929 . S
C1692 C1693 1.377 . S
C1692 C1694 1.384 . S
C1693 C1692 1.377 . S
C1693 C1699 1.390 . S
C1694 H1685 0.930 . S
C1694 C1692 1.384 . S
C1694 C1695 1.372 . S
C1695 C1694 1.372 . S
C1695 C1696 1.400 . S
C1695 C1700 1.490 . S
C1696 H1686 0.930 . S
C1696 C1695 1.400 . S
C1696 C1699 1.386 . S
H1697 C1713 0.930 . S
H1698 C1714 0.931 . S
C1699 H1687 0.929 . S
C1699 C1693 1.390 . S
C1699 C1696 1.386 . S
C1700 C1695 1.490 . S
C1700 C1702 1.395 . S
C1700 C1703 1.403 . S
H1701 C1707 0.930 . S
C1702 H1688 0.930 . S
C1702 C1700 1.395 . S
C1702 C1705 1.403 . S
C1703 C1700 1.403 . S
C1703 C1704 1.524 . S
C1703 C1707 1.400 . S
C1704 H1689 0.960 . S
C1704 H1690 0.960 . S
C1704 H1691 0.960 . S
C1704 C1703 1.524 . S
C1705 C1702 1.403 . S
C1705 C1706 1.392 . S
C1705 C1709 1.495 . S
C1706 C1705 1.392 . S
C1706 C1707 1.385 . S
C1706 C1708 1.478 . S
C1707 H1701 0.930 . S
C1707 C1703 1.400 . S
C1707 C1706 1.385 . S
C1708 C1706 1.478 . S
C1708 C1710 1.381 . S
C1708 C1714 1.383 . S
C1709 C1705 1.495 . S
C1709 H1715 0.959 . S
C1709 H1716 0.961 . S
C1709 H1717 0.960 . S
C1710 C1708 1.381 . S
C1710 C1711 1.394 . S
C1710 H1718 0.930 . S
C1711 C1710 1.394 . S
C1711 C1712 1.383 . S
C1711 H1719 0.929 . S
C1712 C1711 1.383 . S
C1712 C1713 1.377 . S
C1713 H1697 0.930 . S
C1713 C1712 1.377 . S
C1713 C1714 1.379 . S
C1714 H1698 0.931 . S
C1714 C1708 1.383 . S
C1714 C1713 1.379 . S
H1715 C1709 0.959 . S
H1716 C1709 0.961 . S
H1717 C1709 0.960 . S
H1718 C1710 0.930 . S
H1719 C1711 0.929 . S
H1720 C1728 0.929 . S
H1721 C1730 0.930 . S
H1722 C1732 0.930 . S
H1723 C1735 0.929 . S
H1724 C1738 0.930 . S
H1725 C1740 0.960 . S
H1726 C1740 0.960 . S
H1727 C1740 0.960 . S
C1728 H1720 0.929 . S
C1728 C1729 1.377 . S
C1728 C1730 1.384 . S
C1729 C1728 1.377 . S
C1729 C1735 1.390 . S
C1730 H1721 0.930 . S
C1730 C1728 1.384 . S
C1730 C1731 1.372 . S
C1731 C1730 1.372 . S
C1731 C1732 1.400 . S
C1731 C1736 1.490 . S
C1732 H1722 0.930 . S
C1732 C1731 1.400 . S
C1732 C1735 1.386 . S
H1733 C1749 0.930 . S
H1734 C1750 0.931 . S
C1735 H1723 0.929 . S
C1735 C1729 1.390 . S
C1735 C1732 1.386 . S
C1736 C1731 1.490 . S
C1736 C1738 1.395 . S
C1736 C1739 1.403 . S
H1737 C1743 0.930 . S
C1738 H1724 0.930 . S
C1738 C1736 1.395 . S
C1738 C1741 1.403 . S
C1739 C1736 1.403 . S
C1739 C1740 1.524 . S
C1739 C1743 1.400 . S
C1740 H1725 0.960 . S
C1740 H1726 0.960 . S
C1740 H1727 0.960 . S
C1740 C1739 1.524 . S
C1741 C1738 1.403 . S
C1741 C1742 1.392 . S
C1741 C1745 1.495 . S
C1742 C1741 1.392 . S
C1742 C1743 1.385 . S
C1742 C1744 1.478 . S
C1743 H1737 0.930 . S
C1743 C1739 1.400 . S
C1743 C1742 1.385 . S
C1744 C1742 1.478 . S
C1744 C1746 1.381 . S
C1744 C1750 1.383 . S
C1745 C1741 1.495 . S
C1745 H1751 0.959 . S
C1745 H1752 0.961 . S
C1745 H1753 0.960 . S
C1746 C1744 1.381 . S
C1746 C1747 1.394 . S
C1746 H1754 0.930 . S
C1747 C1746 1.394 . S
C1747 C1748 1.383 . S
C1747 H1755 0.929 . S
C1748 C1747 1.383 . S
C1748 C1749 1.377 . S
C1749 H1733 0.930 . S
C1749 C1748 1.377 . S
C1749 C1750 1.379 . S
C1750 H1734 0.931 . S
C1750 C1744 1.383 . S
C1750 C1749 1.379 . S
H1751 C1745 0.959 . S
H1752 C1745 0.961 . S
H1753 C1745 0.960 . S
H1754 C1746 0.930 . S
H1755 C1747 0.929 . S
H1756 C1764 0.929 . S
H1757 C1766 0.930 . S
H1758 C1768 0.930 . S
H1759 C1771 0.929 . S
H1760 C1774 0.930 . S
H1761 C1776 0.960 . S
H1762 C1776 0.960 . S
H1763 C1776 0.960 . S
C1764 H1756 0.929 . S
C1764 C1765 1.377 . S
C1764 C1766 1.384 . S
C1765 C1764 1.377 . S
C1765 C1771 1.390 . S
C1766 H1757 0.930 . S
C1766 C1764 1.384 . S
C1766 C1767 1.372 . S
C1767 C1766 1.372 . S
C1767 C1768 1.400 . S
C1767 C1772 1.490 . S
C1768 H1758 0.930 . S
C1768 C1767 1.400 . S
C1768 C1771 1.386 . S
H1769 C1785 0.930 . S
H1770 C1786 0.931 . S
C1771 H1759 0.929 . S
C1771 C1765 1.390 . S
C1771 C1768 1.386 . S
C1772 C1767 1.490 . S
C1772 C1774 1.395 . S
C1772 C1775 1.403 . S
H1773 C1779 0.930 . S
C1774 H1760 0.930 . S
C1774 C1772 1.395 . S
C1774 C1777 1.403 . S
C1775 C1772 1.403 . S
C1775 C1776 1.524 . S
C1775 C1779 1.400 . S
C1776 H1761 0.960 . S
C1776 H1762 0.960 . S
C1776 H1763 0.960 . S
C1776 C1775 1.524 . S
C1777 C1774 1.403 . S
C1777 C1778 1.392 . S
C1777 C1781 1.495 . S
C1778 C1777 1.392 . S
C1778 C1779 1.385 . S
C1778 C1780 1.478 . S
C1779 H1773 0.930 . S
C1779 C1775 1.400 . S
C1779 C1778 1.385 . S
C1780 C1778 1.478 . S
C1780 C1782 1.381 . S
C1780 C1786 1.383 . S
C1781 C1777 1.495 . S
C1781 H1787 0.959 . S
C1781 H1788 0.961 . S
C1781 H1789 0.960 . S
C1782 C1780 1.381 . S
C1782 C1783 1.394 . S
C1782 H1790 0.930 . S
C1783 C1782 1.394 . S
C1783 C1784 1.383 . S
C1783 H1791 0.929 . S
C1784 C1783 1.383 . S
C1784 C1785 1.377 . S
C1785 H1769 0.930 . S
C1785 C1784 1.377 . S
C1785 C1786 1.379 . S
C1786 H1770 0.931 . S
C1786 C1780 1.383 . S
C1786 C1785 1.379 . S
H1787 C1781 0.959 . S
H1788 C1781 0.961 . S
H1789 C1781 0.960 . S
H1790 C1782 0.930 . S
H1791 C1783 0.929 . S
H1792 C1800 0.929 . S
H1793 C1802 0.930 . S
H1794 C1804 0.930 . S
H1795 C1807 0.929 . S
H1796 C1810 0.930 . S
H1797 C1812 0.960 . S
H1798 C1812 0.960 . S
H1799 C1812 0.960 . S
C1800 H1792 0.929 . S
C1800 C1801 1.377 . S
C1800 C1802 1.384 . S
C1801 C1800 1.377 . S
C1801 C1807 1.390 . S
C1802 H1793 0.930 . S
C1802 C1800 1.384 . S
C1802 C1803 1.372 . S
C1803 C1802 1.372 . S
C1803 C1804 1.400 . S
C1803 C1808 1.490 . S
C1804 H1794 0.930 . S
C1804 C1803 1.400 . S
C1804 C1807 1.386 . S
H1805 C1821 0.930 . S
H1806 C1822 0.931 . S
C1807 H1795 0.929 . S
C1807 C1801 1.390 . S
C1807 C1804 1.386 . S
C1808 C1803 1.490 . S
C1808 C1810 1.395 . S
C1808 C1811 1.403 . S
H1809 C1815 0.930 . S
C1810 H1796 0.930 . S
C1810 C1808 1.395 . S
C1810 C1813 1.403 . S
C1811 C1808 1.403 . S
C1811 C1812 1.524 . S
C1811 C1815 1.400 . S
C1812 H1797 0.960 . S
C1812 H1798 0.960 . S
C1812 H1799 0.960 . S
C1812 C1811 1.524 . S
C1813 C1810 1.403 . S
C1813 C1814 1.392 . S
C1813 C1817 1.495 . S
C1814 C1813 1.392 . S
C1814 C1815 1.385 . S
C1814 C1816 1.478 . S
C1815 H1809 0.930 . S
C1815 C1811 1.400 . S
C1815 C1814 1.385 . S
C1816 C1814 1.478 . S
C1816 C1818 1.381 . S
C1816 C1822 1.383 . S
C1817 C1813 1.495 . S
C1817 H1823 0.959 . S
C1817 H1824 0.961 . S
C1817 H1825 0.960 . S
C1818 C1816 1.381 . S
C1818 C1819 1.394 . S
C1818 H1826 0.930 . S
C1819 C1818 1.394 . S
C1819 C1820 1.383 . S
C1819 H1827 0.929 . S
C1820 C1819 1.383 . S
C1820 C1821 1.377 . S
C1821 H1805 0.930 . S
C1821 C1820 1.377 . S
C1821 C1822 1.379 . S
C1822 H1806 0.931 . S
C1822 C1816 1.383 . S
C1822 C1821 1.379 . S
H1823 C1817 0.959 . S
H1824 C1817 0.961 . S
H1825 C1817 0.960 . S
H1826 C1818 0.930 . S
H1827 C1819 0.929 . S
H1828 C1836 0.929 . S
H1829 C1838 0.930 . S
H1830 C1840 0.930 . S
H1831 C1843 0.929 . S
H1832 C1846 0.930 . S
H1833 C1848 0.960 . S
H1834 C1848 0.960 . S
H1835 C1848 0.960 . S
C1836 H1828 0.929 . S
C1836 C1837 1.377 . S
C1836 C1838 1.384 . S
C1837 C1836 1.377 . S
C1837 C1843 1.390 . S
C1838 H1829 0.930 . S
C1838 C1836 1.384 . S
C1838 C1839 1.372 . S
C1839 C1838 1.372 . S
C1839 C1840 1.400 . S
C1839 C1844 1.490 . S
C1840 H1830 0.930 . S
C1840 C1839 1.400 . S
C1840 C1843 1.386 . S
H1841 C1857 0.930 . S
H1842 C1858 0.931 . S
C1843 H1831 0.929 . S
C1843 C1837 1.390 . S
C1843 C1840 1.386 . S
C1844 C1839 1.490 . S
C1844 C1846 1.395 . S
C1844 C1847 1.403 . S
H1845 C1851 0.930 . S
C1846 H1832 0.930 . S
C1846 C1844 1.395 . S
C1846 C1849 1.403 . S
C1847 C1844 1.403 . S
C1847 C1848 1.524 . S
C1847 C1851 1.400 . S
C1848 H1833 0.960 . S
C1848 H1834 0.960 . S
C1848 H1835 0.960 . S
C1848 C1847 1.524 . S
C1849 C1846 1.403 . S
C1849 C1850 1.392 . S
C1849 C1853 1.495 . S
C1850 C1849 1.392 . S
C1850 C1851 1.385 . S
C1850 C1852 1.478 . S
C1851 H1845 0.930 . S
C1851 C1847 1.400 . S
C1851 C1850 1.385 . S
C1852 C1850 1.478 . S
C1852 C1854 1.381 . S
C1852 C1858 1.383 . S
C1853 C1849 1.495 . S
C1853 H1859 0.959 . S
C1853 H1860 0.961 . S
C1853 H1861 0.960 . S
C1854 C1852 1.381 . S
C1854 C1855 1.394 . S
C1854 H1862 0.930 . S
C1855 C1854 1.394 . S
C1855 C1856 1.383 . S
C1855 H1863 0.929 . S
C1856 C1855 1.383 . S
C1856 C1857 1.377 . S
C1857 H1841 0.930 . S
C1857 C1856 1.377 . S
C1857 C1858 1.379 . S
C1858 H1842 0.931 . S
C1858 C1852 1.383 . S
C1858 C1857 1.379 . S
H1859 C1853 0.959 . S
H1860 C1853 0.961 . S
H1861 C1853 0.960 . S
H1862 C1854 0.930 . S
H1863 C1855 0.929 . S
H1864 C1872 0.929 . S
H1865 C1874 0.930 . S
H1866 C1876 0.930 . S
H1867 C1879 0.929 . S
H1868 C1882 0.930 . S
H1869 C1884 0.960 . S
H1870 C1884 0.960 . S
H1871 C1884 0.960 . S
C1872 H1864 0.929 . S
C1872 C1873 1.377 . S
C1872 C1874 1.384 . S
C1873 C1872 1.377 . S
C1873 C1879 1.390 . S
C1874 H1865 0.930 . S
C1874 C1872 1.384 . S
C1874 C1875 1.372 . S
C1875 C1874 1.372 . S
C1875 C1876 1.400 . S
C1875 C1880 1.490 . S
C1876 H1866 0.930 . S
C1876 C1875 1.400 . S
C1876 C1879 1.386 . S
H1877 C1893 0.930 . S
H1878 C1894 0.931 . S
C1879 H1867 0.929 . S
C1879 C1873 1.390 . S
C1879 C1876 1.386 . S
C1880 C1875 1.490 . S
C1880 C1882 1.395 . S
C1880 C1883 1.403 . S
H1881 C1887 0.930 . S
C1882 H1868 0.930 . S
C1882 C1880 1.395 . S
C1882 C1885 1.403 . S
C1883 C1880 1.403 . S
C1883 C1884 1.524 . S
C1883 C1887 1.400 . S
C1884 H1869 0.960 . S
C1884 H1870 0.960 . S
C1884 H1871 0.960 . S
C1884 C1883 1.524 . S
C1885 C1882 1.403 . S
C1885 C1886 1.392 . S
C1885 C1889 1.495 . S
C1886 C1885 1.392 . S
C1886 C1887 1.385 . S
C1886 C1888 1.478 . S
C1887 H1881 0.930 . S
C1887 C1883 1.400 . S
C1887 C1886 1.385 . S
C1888 C1886 1.478 . S
C1888 C1890 1.381 . S
C1888 C1894 1.383 . S
C1889 C1885 1.495 . S
C1889 H1895 0.959 . S
C1889 H1896 0.961 . S
C1889 H1897 0.960 . S
C1890 C1888 1.381 . S
C1890 C1891 1.394 . S
C1890 H1898 0.930 . S
C1891 C1890 1.394 . S
C1891 C1892 1.383 . S
C1891 H1899 0.929 . S
C1892 C1891 1.383 . S
C1892 C1893 1.377 . S
C1893 H1877 0.930 . S
C1893 C1892 1.377 . S
C1893 C1894 1.379 . S
C1894 H1878 0.931 . S
C1894 C1888 1.383 . S
C1894 C1893 1.379 . S
H1895 C1889 0.959 . S
H1896 C1889 0.961 . S
H1897 C1889 0.960 . S
H1898 C1890 0.930 . S
H1899 C1891 0.929 . S
H1900 C1908 0.929 . S
H1901 C1910 0.930 . S
H1902 C1912 0.930 . S
H1903 C1915 0.929 . S
H1904 C1918 0.930 . S
H1905 C1920 0.960 . S
H1906 C1920 0.960 . S
H1907 C1920 0.960 . S
C1908 H1900 0.929 . S
C1908 C1909 1.377 . S
C1908 C1910 1.384 . S
C1909 C1908 1.377 . S
C1909 C1915 1.390 . S
C1910 H1901 0.930 . S
C1910 C1908 1.384 . S
C1910 C1911 1.372 . S
C1911 C1910 1.372 . S
C1911 C1912 1.400 . S
C1911 C1916 1.490 . S
C1912 H1902 0.930 . S
C1912 C1911 1.400 . S
C1912 C1915 1.386 . S
H1913 C1929 0.930 . S
H1914 C1930 0.931 . S
C1915 H1903 0.929 . S
C1915 C1909 1.390 . S
C1915 C1912 1.386 . S
C1916 C1911 1.490 . S
C1916 C1918 1.395 . S
C1916 C1919 1.403 . S
H1917 C1923 0.930 . S
C1918 H1904 0.930 . S
C1918 C1916 1.395 . S
C1918 C1921 1.403 . S
C1919 C1916 1.403 . S
C1919 C1920 1.524 . S
C1919 C1923 1.400 . S
C1920 H1905 0.960 . S
C1920 H1906 0.960 . S
C1920 H1907 0.960 . S
C1920 C1919 1.524 . S
C1921 C1918 1.403 . S
C1921 C1922 1.392 . S
C1921 C1925 1.495 . S
C1922 C1921 1.392 . S
C1922 C1923 1.385 . S
C1922 C1924 1.478 . S
C1923 H1917 0.930 . S
C1923 C1919 1.400 . S
C1923 C1922 1.385 . S
C1924 C1922 1.478 . S
C1924 C1926 1.381 . S
C1924 C1930 1.383 . S
C1925 C1921 1.495 . S
C1925 H1931 0.959 . S
C1925 H1932 0.961 . S
C1925 H1933 0.960 . S
C1926 C1924 1.381 . S
C1926 C1927 1.394 . S
C1926 H1934 0.930 . S
C1927 C1926 1.394 . S
C1927 C1928 1.383 . S
C1927 H1935 0.929 . S
C1928 C1927 1.383 . S
C1928 C1929 1.377 . S
C1929 H1913 0.930 . S
C1929 C1928 1.377 . S
C1929 C1930 1.379 . S
C1930 H1914 0.931 . S
C1930 C1924 1.383 . S
C1930 C1929 1.379 . S
H1931 C1925 0.959 . S
H1932 C1925 0.961 . S
H1933 C1925 0.960 . S
H1934 C1926 0.930 . S
H1935 C1927 0.929 . S
H1936 C1944 0.929 . S
H1937 C1946 0.930 . S
H1938 C1948 0.930 . S
H1939 C1951 0.929 . S
H1940 C1954 0.930 . S
H1941 C1956 0.960 . S
H1942 C1956 0.960 . S
H1943 C1956 0.960 . S
C1944 H1936 0.929 . S
C1944 C1945 1.377 . S
C1944 C1946 1.384 . S
C1945 C1944 1.377 . S
C1945 C1951 1.390 . S
C1946 H1937 0.930 . S
C1946 C1944 1.384 . S
C1946 C1947 1.372 . S
C1947 C1946 1.372 . S
C1947 C1948 1.400 . S
C1947 C1952 1.490 . S
C1948 H1938 0.930 . S
C1948 C1947 1.400 . S
C1948 C1951 1.386 . S
H1949 C1965 0.930 . S
H1950 C1966 0.931 . S
C1951 H1939 0.929 . S
C1951 C1945 1.390 . S
C1951 C1948 1.386 . S
C1952 C1947 1.490 . S
C1952 C1954 1.395 . S
C1952 C1955 1.403 . S
H1953 C1959 0.930 . S
C1954 H1940 0.930 . S
C1954 C1952 1.395 . S
C1954 C1957 1.403 . S
C1955 C1952 1.403 . S
C1955 C1956 1.524 . S
C1955 C1959 1.400 . S
C1956 H1941 0.960 . S
C1956 H1942 0.960 . S
C1956 H1943 0.960 . S
C1956 C1955 1.524 . S
C1957 C1954 1.403 . S
C1957 C1958 1.392 . S
C1957 C1961 1.495 . S
C1958 C1957 1.392 . S
C1958 C1959 1.385 . S
C1958 C1960 1.478 . S
C1959 H1953 0.930 . S
C1959 C1955 1.400 . S
C1959 C1958 1.385 . S
C1960 C1958 1.478 . S
C1960 C1962 1.381 . S
C1960 C1966 1.383 . S
C1961 C1957 1.495 . S
C1961 H1967 0.959 . S
C1961 H1968 0.961 . S
C1961 H1969 0.960 . S
C1962 C1960 1.381 . S
C1962 C1963 1.394 . S
C1962 H1970 0.930 . S
C1963 C1962 1.394 . S
C1963 C1964 1.383 . S
C1963 H1971 0.929 . S
C1964 C1963 1.383 . S
C1964 C1965 1.377 . S
C1965 H1949 0.930 . S
C1965 C1964 1.377 . S
C1965 C1966 1.379 . S
C1966 H1950 0.931 . S
C1966 C1960 1.383 . S
C1966 C1965 1.379 . S
H1967 C1961 0.959 . S
H1968 C1961 0.961 . S
H1969 C1961 0.960 . S
H1970 C1962 0.930 . S
H1971 C1963 0.929 . S
H1972 C1980 0.929 . S
H1973 C1982 0.930 . S
H1974 C1984 0.930 . S
H1975 C1987 0.929 . S
H1976 C1990 0.930 . S
H1977 C1992 0.960 . S
H1978 C1992 0.960 . S
H1979 C1992 0.960 . S
C1980 H1972 0.929 . S
C1980 C1981 1.377 . S
C1980 C1982 1.384 . S
C1981 C1980 1.377 . S
C1981 C1987 1.390 . S
C1982 H1973 0.930 . S
C1982 C1980 1.384 . S
C1982 C1983 1.372 . S
C1983 C1982 1.372 . S
C1983 C1984 1.400 . S
C1983 C1988 1.490 . S
C1984 H1974 0.930 . S
C1984 C1983 1.400 . S
C1984 C1987 1.386 . S
H1985 C2001 0.930 . S
H1986 C2002 0.931 . S
C1987 H1975 0.929 . S
C1987 C1981 1.390 . S
C1987 C1984 1.386 . S
C1988 C1983 1.490 . S
C1988 C1990 1.395 . S
C1988 C1991 1.403 . S
H1989 C1995 0.930 . S
C1990 H1976 0.930 . S
C1990 C1988 1.395 . S
C1990 C1993 1.403 . S
C1991 C1988 1.403 . S
C1991 C1992 1.524 . S
C1991 C1995 1.400 . S
C1992 H1977 0.960 . S
C1992 H1978 0.960 . S
C1992 H1979 0.960 . S
C1992 C1991 1.524 . S
C1993 C1990 1.403 . S
C1993 C1994 1.392 . S
C1993 C1997 1.495 . S
C1994 C1993 1.392 . S
C1994 C1995 1.385 . S
C1994 C1996 1.478 . S
C1995 H1989 0.930 . S
C1995 C1991 1.400 . S
C1995 C1994 1.385 . S
C1996 C1994 1.478 . S
C1996 C1998 1.384 1_554 S
C1996 C2002 1.383 . S
C1997 C1993 1.495 . S
C1997 H2003 0.959 . S
C1997 H2004 0.961 . S
C1997 H2005 0.960 . S
C1998 C1996 1.384 1_556 S
C1998 C1999 1.393 . S
C1998 H2006 0.928 . S
C1999 C1998 1.393 . S
C1999 C2000 1.383 1_556 S
C1999 H2007 0.929 . S
C2000 C1999 1.383 1_554 S
C2000 C2001 1.377 . S
C2001 H1985 0.930 . S
C2001 C2000 1.377 . S
C2001 C2002 1.379 . S
C2002 H1986 0.931 . S
C2002 C1996 1.383 . S
C2002 C2001 1.379 . S
H2003 C1997 0.959 . S
H2004 C1997 0.961 . S
H2005 C1997 0.960 . S
H2006 C1998 0.928 . S
H2007 C1999 0.929 . S
H2008 C2016 0.929 . S
H2009 C2018 0.930 . S
H2010 C2020 0.930 . S
H2011 C2023 0.929 . S
H2012 C2026 0.930 . S
H2013 C2028 0.960 . S
H2014 C2028 0.960 . S
H2015 C2028 0.960 . S
C2016 H2008 0.929 . S
C2016 C2017 1.377 . S
C2016 C2018 1.384 . S
C2017 C2016 1.377 . S
C2017 C2023 1.390 . S
C2018 H2009 0.930 . S
C2018 C2016 1.384 . S
C2018 C2019 1.372 . S
C2019 C2018 1.372 . S
C2019 C2020 1.400 . S
C2019 C2024 1.490 . S
C2020 H2010 0.930 . S
C2020 C2019 1.400 . S
C2020 C2023 1.386 . S
H2021 C2037 0.930 . S
H2022 C2038 0.931 . S
C2023 H2011 0.929 . S
C2023 C2017 1.390 . S
C2023 C2020 1.386 . S
C2024 C2019 1.490 . S
C2024 C2026 1.395 . S
C2024 C2027 1.403 . S
H2025 C2031 0.930 . S
C2026 H2012 0.930 . S
C2026 C2024 1.395 . S
C2026 C2029 1.403 . S
C2027 C2024 1.403 . S
C2027 C2028 1.524 . S
C2027 C2031 1.400 . S
C2028 H2013 0.960 . S
C2028 H2014 0.960 . S
C2028 H2015 0.960 . S
C2028 C2027 1.524 . S
C2029 C2026 1.403 . S
C2029 C2030 1.392 . S
C2029 C2033 1.495 . S
C2030 C2029 1.392 . S
C2030 C2031 1.385 . S
C2030 C2032 1.478 . S
C2031 H2025 0.930 . S
C2031 C2027 1.400 . S
C2031 C2030 1.385 . S
C2032 C2030 1.478 . S
C2032 C2034 1.381 . S
C2032 C2038 1.383 . S
C2033 C2029 1.495 . S
C2033 H2039 0.959 . S
C2033 H2040 0.961 . S
C2033 H2041 0.960 . S
C2034 C2032 1.381 . S
C2034 C2035 1.394 . S
C2034 H2042 0.930 . S
C2035 C2034 1.394 . S
C2035 C2036 1.383 . S
C2035 H2043 0.929 . S
C2036 C2035 1.383 . S
C2036 C2037 1.377 . S
C2037 H2021 0.930 . S
C2037 C2036 1.377 . S
C2037 C2038 1.379 . S
C2038 H2022 0.931 . S
C2038 C2032 1.383 . S
C2038 C2037 1.379 . S
H2039 C2033 0.959 . S
H2040 C2033 0.961 . S
H2041 C2033 0.960 . S
H2042 C2034 0.930 . S
H2043 C2035 0.929 . S
H2044 C2052 0.929 . S
H2045 C2054 0.930 . S
H2046 C2056 0.930 . S
H2047 C2059 0.929 . S
H2048 C2062 0.930 . S
H2049 C2064 0.960 . S
H2050 C2064 0.960 . S
H2051 C2064 0.960 . S
C2052 H2044 0.929 . S
C2052 C2053 1.377 . S
C2052 C2054 1.384 . S
C2053 C2052 1.377 . S
C2053 C2059 1.390 . S
C2054 H2045 0.930 . S
C2054 C2052 1.384 . S
C2054 C2055 1.372 . S
C2055 C2054 1.372 . S
C2055 C2056 1.400 . S
C2055 C2060 1.490 . S
C2056 H2046 0.930 . S
C2056 C2055 1.400 . S
C2056 C2059 1.386 . S
H2057 C2073 0.930 . S
H2058 C2074 0.931 . S
C2059 H2047 0.929 . S
C2059 C2053 1.390 . S
C2059 C2056 1.386 . S
C2060 C2055 1.490 . S
C2060 C2062 1.395 . S
C2060 C2063 1.403 . S
H2061 C2067 0.930 . S
C2062 H2048 0.930 . S
C2062 C2060 1.395 . S
C2062 C2065 1.403 . S
C2063 C2060 1.403 . S
C2063 C2064 1.524 . S
C2063 C2067 1.400 . S
C2064 H2049 0.960 . S
C2064 H2050 0.960 . S
C2064 H2051 0.960 . S
C2064 C2063 1.524 . S
C2065 C2062 1.403 . S
C2065 C2066 1.392 . S
C2065 C2069 1.495 . S
C2066 C2065 1.392 . S
C2066 C2067 1.385 . S
C2066 C2068 1.478 . S
C2067 H2061 0.930 . S
C2067 C2063 1.400 . S
C2067 C2066 1.385 . S
C2068 C2066 1.478 . S
C2068 C2070 1.381 . S
C2068 C2074 1.383 . S
C2069 C2065 1.495 . S
C2069 H2075 0.959 . S
C2069 H2076 0.961 . S
C2069 H2077 0.960 . S
C2070 C2068 1.381 . S
C2070 C2071 1.394 . S
C2070 H2078 0.930 . S
C2071 C2070 1.394 . S
C2071 C2072 1.383 . S
C2071 H2079 0.929 . S
C2072 C2071 1.383 . S
C2072 C2073 1.377 . S
C2073 H2057 0.930 . S
C2073 C2072 1.377 . S
C2073 C2074 1.379 . S
C2074 H2058 0.931 . S
C2074 C2068 1.383 . S
C2074 C2073 1.379 . S
H2075 C2069 0.959 . S
H2076 C2069 0.961 . S
H2077 C2069 0.960 . S
H2078 C2070 0.930 . S
H2079 C2071 0.929 . S
H2080 C2088 0.929 . S
H2081 C2090 0.930 . S
H2082 C2092 0.930 . S
H2083 C2095 0.929 . S
H2084 C2098 0.930 . S
H2085 C2100 0.960 . S
H2086 C2100 0.960 . S
H2087 C2100 0.960 . S
C2088 H2080 0.929 . S
C2088 C2089 1.377 . S
C2088 C2090 1.384 . S
C2089 C2088 1.377 . S
C2089 C2095 1.390 . S
C2090 H2081 0.930 . S
C2090 C2088 1.384 . S
C2090 C2091 1.372 . S
C2091 C2090 1.372 . S
C2091 C2092 1.400 . S
C2091 C2096 1.490 . S
C2092 H2082 0.930 . S
C2092 C2091 1.400 . S
C2092 C2095 1.386 . S
H2093 C2109 0.930 . S
H2094 C2110 0.931 . S
C2095 H2083 0.929 . S
C2095 C2089 1.390 . S
C2095 C2092 1.386 . S
C2096 C2091 1.490 . S
C2096 C2098 1.395 . S
C2096 C2099 1.403 . S
H2097 C2103 0.930 . S
C2098 H2084 0.930 . S
C2098 C2096 1.395 . S
C2098 C2101 1.403 . S
C2099 C2096 1.403 . S
C2099 C2100 1.524 . S
C2099 C2103 1.400 . S
C2100 H2085 0.960 . S
C2100 H2086 0.960 . S
C2100 H2087 0.960 . S
C2100 C2099 1.524 . S
C2101 C2098 1.403 . S
C2101 C2102 1.392 . S
C2101 C2105 1.495 . S
C2102 C2101 1.392 . S
C2102 C2103 1.385 . S
C2102 C2104 1.478 . S
C2103 H2097 0.930 . S
C2103 C2099 1.400 . S
C2103 C2102 1.385 . S
C2104 C2102 1.478 . S
C2104 C2106 1.381 . S
C2104 C2110 1.383 . S
C2105 C2101 1.495 . S
C2105 H2111 0.959 . S
C2105 H2112 0.961 . S
C2105 H2113 0.960 . S
C2106 C2104 1.381 . S
C2106 C2107 1.394 . S
C2106 H2114 0.930 . S
C2107 C2106 1.394 . S
C2107 C2108 1.383 . S
C2107 H2115 0.929 . S
C2108 C2107 1.383 . S
C2108 C2109 1.377 . S
C2109 H2093 0.930 . S
C2109 C2108 1.377 . S
C2109 C2110 1.379 . S
C2110 H2094 0.931 . S
C2110 C2104 1.383 . S
C2110 C2109 1.379 . S
H2111 C2105 0.959 . S
H2112 C2105 0.961 . S
H2113 C2105 0.960 . S
H2114 C2106 0.930 . S
H2115 C2107 0.929 . S
H2116 C2124 0.929 . S
H2117 C2126 0.930 . S
H2118 C2128 0.930 . S
H2119 C2131 0.929 . S
H2120 C2134 0.930 . S
H2121 C2136 0.960 . S
H2122 C2136 0.960 . S
H2123 C2136 0.960 . S
C2124 H2116 0.929 . S
C2124 C2125 1.377 . S
C2124 C2126 1.384 . S
C2125 C2124 1.377 . S
C2125 C2131 1.390 . S
C2126 H2117 0.930 . S
C2126 C2124 1.384 . S
C2126 C2127 1.372 . S
C2127 C2126 1.372 . S
C2127 C2128 1.400 . S
C2127 C2132 1.490 . S
C2128 H2118 0.930 . S
C2128 C2127 1.400 . S
C2128 C2131 1.386 . S
H2129 C2145 0.930 . S
H2130 C2146 0.931 . S
C2131 H2119 0.929 . S
C2131 C2125 1.390 . S
C2131 C2128 1.386 . S
C2132 C2127 1.490 . S
C2132 C2134 1.395 . S
C2132 C2135 1.403 . S
H2133 C2139 0.930 . S
C2134 H2120 0.930 . S
C2134 C2132 1.395 . S
C2134 C2137 1.403 . S
C2135 C2132 1.403 . S
C2135 C2136 1.524 . S
C2135 C2139 1.400 . S
C2136 H2121 0.960 . S
C2136 H2122 0.960 . S
C2136 H2123 0.960 . S
C2136 C2135 1.524 . S
C2137 C2134 1.403 . S
C2137 C2138 1.392 . S
C2137 C2141 1.495 . S
C2138 C2137 1.392 . S
C2138 C2139 1.385 . S
C2138 C2140 1.478 . S
C2139 H2133 0.930 . S
C2139 C2135 1.400 . S
C2139 C2138 1.385 . S
C2140 C2138 1.478 . S
C2140 C2142 1.381 . S
C2140 C2146 1.383 . S
C2141 C2137 1.495 . S
C2141 H2147 0.959 . S
C2141 H2148 0.961 . S
C2141 H2149 0.960 . S
C2142 C2140 1.381 . S
C2142 C2143 1.394 . S
C2142 H2150 0.930 . S
C2143 C2142 1.394 . S
C2143 C2144 1.383 . S
C2143 H2151 0.929 . S
C2144 C2143 1.383 . S
C2144 C2145 1.377 . S
C2145 H2129 0.930 . S
C2145 C2144 1.377 . S
C2145 C2146 1.379 . S
C2146 H2130 0.931 . S
C2146 C2140 1.383 . S
C2146 C2145 1.379 . S
H2147 C2141 0.959 . S
H2148 C2141 0.961 . S
H2149 C2141 0.960 . S
H2150 C2142 0.930 . S
H2151 C2143 0.929 . S
H2152 C2160 0.929 . S
H2153 C2162 0.930 . S
H2154 C2164 0.930 . S
H2155 C2167 0.929 1_554 S
H2156 C2170 0.930 . S
H2157 C2172 0.960 . S
H2158 C2172 0.960 . S
H2159 C2172 0.960 . S
C2160 H2152 0.929 . S
C2160 C2161 1.377 . S
C2160 C2162 1.384 . S
C2161 C2160 1.377 . S
C2161 C2167 1.390 . S
C2162 H2153 0.930 . S
C2162 C2160 1.384 . S
C2162 C2163 1.372 . S
C2163 C2162 1.372 . S
C2163 C2164 1.400 . S
C2163 C2168 1.490 . S
C2164 H2154 0.930 . S
C2164 C2163 1.400 . S
C2164 C2167 1.386 . S
H2165 C2181 0.930 . S
H2166 C2182 0.931 . S
C2167 H2155 0.929 1_556 S
C2167 C2161 1.390 . S
C2167 C2164 1.386 . S
C2168 C2163 1.490 . S
C2168 C2170 1.395 . S
C2168 C2171 1.403 . S
H2169 C2175 0.930 . S
C2170 H2156 0.930 . S
C2170 C2168 1.395 . S
C2170 C2173 1.403 . S
C2171 C2168 1.403 . S
C2171 C2172 1.524 1_556 S
C2171 C2175 1.400 . S
C2172 H2157 0.960 . S
C2172 H2158 0.960 . S
C2172 H2159 0.960 . S
C2172 C2171 1.524 1_554 S
C2173 C2170 1.403 . S
C2173 C2174 1.392 . S
C2173 C2177 1.495 . S
C2174 C2173 1.392 . S
C2174 C2175 1.385 . S
C2174 C2176 1.478 . S
C2175 H2169 0.930 . S
C2175 C2171 1.400 . S
C2175 C2174 1.385 . S
C2176 C2174 1.478 . S
C2176 C2178 1.381 . S
C2176 C2182 1.383 . S
C2177 C2173 1.495 . S
C2177 H2183 0.959 . S
C2177 H2184 0.961 . S
C2177 H2185 0.960 . S
C2178 C2176 1.381 . S
C2178 C2179 1.394 . S
C2178 H2186 0.930 . S
C2179 C2178 1.394 . S
C2179 C2180 1.383 . S
C2179 H2187 0.929 . S
C2180 C2179 1.383 . S
C2180 C2181 1.377 . S
C2181 H2165 0.930 . S
C2181 C2180 1.377 . S
C2181 C2182 1.379 . S
C2182 H2166 0.931 . S
C2182 C2176 1.383 . S
C2182 C2181 1.379 . S
H2183 C2177 0.959 . S
H2184 C2177 0.961 . S
H2185 C2177 0.960 . S
H2186 C2178 0.930 . S
H2187 C2179 0.929 . S
H2188 C2196 0.929 . S
H2189 C2198 0.930 . S
H2190 C2200 0.930 . S
H2191 C2203 0.929 . S
H2192 C2206 0.930 . S
H2193 C2208 0.960 . S
H2194 C2208 0.960 . S
H2195 C2208 0.960 . S
C2196 H2188 0.929 . S
C2196 C2197 1.377 . S
C2196 C2198 1.384 . S
C2197 C2196 1.377 . S
C2197 C2203 1.390 . S
C2198 H2189 0.930 . S
C2198 C2196 1.384 . S
C2198 C2199 1.372 . S
C2199 C2198 1.372 . S
C2199 C2200 1.400 . S
C2199 C2204 1.490 . S
C2200 H2190 0.930 . S
C2200 C2199 1.400 . S
C2200 C2203 1.386 . S
H2201 C2217 0.930 . S
H2202 C2218 0.931 . S
C2203 H2191 0.929 . S
C2203 C2197 1.390 . S
C2203 C2200 1.386 . S
C2204 C2199 1.490 . S
C2204 C2206 1.395 . S
C2204 C2207 1.403 . S
H2205 C2211 0.930 . S
C2206 H2192 0.930 . S
C2206 C2204 1.395 . S
C2206 C2209 1.403 . S
C2207 C2204 1.403 . S
C2207 C2208 1.524 . S
C2207 C2211 1.400 . S
C2208 H2193 0.960 . S
C2208 H2194 0.960 . S
C2208 H2195 0.960 . S
C2208 C2207 1.524 . S
C2209 C2206 1.403 . S
C2209 C2210 1.392 . S
C2209 C2213 1.495 . S
C2210 C2209 1.392 . S
C2210 C2211 1.385 . S
C2210 C2212 1.478 . S
C2211 H2205 0.930 . S
C2211 C2207 1.400 . S
C2211 C2210 1.385 . S
C2212 C2210 1.478 . S
C2212 C2214 1.381 . S
C2212 C2218 1.383 . S
C2213 C2209 1.495 . S
C2213 H2219 0.959 . S
C2213 H2220 0.961 . S
C2213 H2221 0.960 . S
C2214 C2212 1.381 . S
C2214 C2215 1.394 . S
C2214 H2222 0.930 . S
C2215 C2214 1.394 . S
C2215 C2216 1.383 . S
C2215 H2223 0.929 . S
C2216 C2215 1.383 . S
C2216 C2217 1.377 . S
C2217 H2201 0.930 . S
C2217 C2216 1.377 . S
C2217 C2218 1.379 . S
C2218 H2202 0.931 . S
C2218 C2212 1.383 . S
C2218 C2217 1.379 . S
H2219 C2213 0.959 . S
H2220 C2213 0.961 . S
H2221 C2213 0.960 . S
H2222 C2214 0.930 . S
H2223 C2215 0.929 . S
H2224 C2232 0.929 . S
H2225 C2234 0.930 . S
H2226 C2236 0.930 . S
H2227 C2239 0.929 . S
H2228 C2242 0.930 . S
H2229 C2244 0.960 . S
H2230 C2244 0.960 . S
H2231 C2244 0.960 . S
C2232 H2224 0.929 . S
C2232 C2233 1.377 . S
C2232 C2234 1.384 . S
C2233 C2232 1.377 . S
C2233 C2239 1.390 . S
C2234 H2225 0.930 . S
C2234 C2232 1.384 . S
C2234 C2235 1.372 . S
C2235 C2234 1.372 . S
C2235 C2236 1.400 . S
C2235 C2240 1.490 . S
C2236 H2226 0.930 . S
C2236 C2235 1.400 . S
C2236 C2239 1.386 . S
H2237 C2253 0.930 . S
H2238 C2254 0.931 . S
C2239 H2227 0.929 . S
C2239 C2233 1.390 . S
C2239 C2236 1.386 . S
C2240 C2235 1.490 . S
C2240 C2242 1.395 . S
C2240 C2243 1.403 . S
H2241 C2247 0.930 . S
C2242 H2228 0.930 . S
C2242 C2240 1.395 . S
C2242 C2245 1.403 . S
C2243 C2240 1.403 . S
C2243 C2244 1.524 . S
C2243 C2247 1.400 . S
C2244 H2229 0.960 . S
C2244 H2230 0.960 . S
C2244 H2231 0.960 . S
C2244 C2243 1.524 . S
C2245 C2242 1.403 . S
C2245 C2246 1.392 . S
C2245 C2249 1.495 . S
C2246 C2245 1.392 . S
C2246 C2247 1.385 . S
C2246 C2248 1.478 . S
C2247 H2241 0.930 . S
C2247 C2243 1.400 . S
C2247 C2246 1.385 . S
C2248 C2246 1.478 . S
C2248 C2250 1.381 . S
C2248 C2254 1.383 . S
C2249 C2245 1.495 . S
C2249 H2255 0.959 . S
C2249 H2256 0.961 . S
C2249 H2257 0.960 . S
C2250 C2248 1.381 . S
C2250 C2251 1.394 . S
C2250 H2258 0.930 . S
C2251 C2250 1.394 . S
C2251 C2252 1.383 . S
C2251 H2259 0.929 . S
C2252 C2251 1.383 . S
C2252 C2253 1.377 . S
C2253 H2237 0.930 . S
C2253 C2252 1.377 . S
C2253 C2254 1.379 . S
C2254 H2238 0.931 . S
C2254 C2248 1.383 . S
C2254 C2253 1.379 . S
H2255 C2249 0.959 . S
H2256 C2249 0.961 . S
H2257 C2249 0.960 . S
H2258 C2250 0.930 . S
H2259 C2251 0.929 . S
H2260 C2268 0.929 . S
H2261 C2270 0.930 . S
H2262 C2272 0.930 . S
H2263 C2275 0.929 . S
H2264 C2278 0.930 . S
H2265 C2280 0.960 . S
H2266 C2280 0.960 . S
H2267 C2280 0.960 . S
C2268 H2260 0.929 . S
C2268 C2269 1.377 . S
C2268 C2270 1.384 . S
C2269 C2268 1.377 . S
C2269 C2275 1.390 . S
C2270 H2261 0.930 . S
C2270 C2268 1.384 . S
C2270 C2271 1.372 . S
C2271 C2270 1.372 . S
C2271 C2272 1.400 . S
C2271 C2276 1.490 . S
C2272 H2262 0.930 . S
C2272 C2271 1.400 . S
C2272 C2275 1.386 . S
H2273 C2289 0.930 . S
H2274 C2290 0.931 . S
C2275 H2263 0.929 . S
C2275 C2269 1.390 . S
C2275 C2272 1.386 . S
C2276 C2271 1.490 . S
C2276 C2278 1.395 . S
C2276 C2279 1.403 . S
H2277 C2283 0.930 . S
C2278 H2264 0.930 . S
C2278 C2276 1.395 . S
C2278 C2281 1.403 . S
C2279 C2276 1.403 . S
C2279 C2280 1.524 . S
C2279 C2283 1.400 . S
C2280 H2265 0.960 . S
C2280 H2266 0.960 . S
C2280 H2267 0.960 . S
C2280 C2279 1.524 . S
C2281 C2278 1.403 . S
C2281 C2282 1.392 . S
C2281 C2285 1.495 . S
C2282 C2281 1.392 . S
C2282 C2283 1.385 . S
C2282 C2284 1.478 . S
C2283 H2277 0.930 . S
C2283 C2279 1.400 . S
C2283 C2282 1.385 . S
C2284 C2282 1.478 . S
C2284 C2286 1.381 . S
C2284 C2290 1.383 . S
C2285 C2281 1.495 . S
C2285 H2291 0.959 . S
C2285 H2292 0.961 . S
C2285 H2293 0.960 . S
C2286 C2284 1.381 . S
C2286 C2287 1.394 . S
C2286 H2294 0.930 . S
C2287 C2286 1.394 . S
C2287 C2288 1.383 . S
C2287 H2295 0.929 . S
C2288 C2287 1.383 . S
C2288 C2289 1.377 . S
C2289 H2273 0.930 . S
C2289 C2288 1.377 . S
C2289 C2290 1.379 . S
C2290 H2274 0.931 . S
C2290 C2284 1.383 . S
C2290 C2289 1.379 . S
H2291 C2285 0.959 . S
H2292 C2285 0.961 . S
H2293 C2285 0.960 . S
H2294 C2286 0.930 . S
H2295 C2287 0.929 . S
H2296 C2304 0.929 . S
H2297 C2306 0.930 . S
H2298 C2308 0.930 . S
H2299 C2311 0.929 . S
H2300 C2314 0.930 . S
H2301 C2316 0.960 . S
H2302 C2316 0.960 . S
H2303 C2316 0.960 . S
C2304 H2296 0.929 . S
C2304 C2305 1.377 . S
C2304 C2306 1.384 . S
C2305 C2304 1.377 . S
C2305 C2311 1.390 . S
C2306 H2297 0.930 . S
C2306 C2304 1.384 . S
C2306 C2307 1.372 . S
C2307 C2306 1.372 . S
C2307 C2308 1.400 . S
C2307 C2312 1.490 . S
C2308 H2298 0.930 . S
C2308 C2307 1.400 . S
C2308 C2311 1.386 . S
H2309 C2325 0.930 . S
H2310 C2326 0.931 . S
C2311 H2299 0.929 . S
C2311 C2305 1.390 . S
C2311 C2308 1.386 . S
C2312 C2307 1.490 . S
C2312 C2314 1.395 . S
C2312 C2315 1.403 . S
H2313 C2319 0.930 . S
C2314 H2300 0.930 . S
C2314 C2312 1.395 . S
C2314 C2317 1.403 . S
C2315 C2312 1.403 . S
C2315 C2316 1.524 . S
C2315 C2319 1.400 . S
C2316 H2301 0.960 . S
C2316 H2302 0.960 . S
C2316 H2303 0.960 . S
C2316 C2315 1.524 . S
C2317 C2314 1.403 . S
C2317 C2318 1.392 . S
C2317 C2321 1.495 . S
C2318 C2317 1.392 . S
C2318 C2319 1.385 . S
C2318 C2320 1.478 . S
C2319 H2313 0.930 . S
C2319 C2315 1.400 . S
C2319 C2318 1.385 . S
C2320 C2318 1.478 . S
C2320 C2322 1.381 . S
C2320 C2326 1.383 . S
C2321 C2317 1.495 . S
C2321 H2327 0.959 . S
C2321 H2328 0.961 . S
C2321 H2329 0.960 . S
C2322 C2320 1.381 . S
C2322 C2323 1.394 . S
C2322 H2330 0.930 . S
C2323 C2322 1.394 . S
C2323 C2324 1.383 . S
C2323 H2331 0.929 . S
C2324 C2323 1.383 . S
C2324 C2325 1.377 . S
C2325 H2309 0.930 . S
C2325 C2324 1.377 . S
C2325 C2326 1.379 . S
C2326 H2310 0.931 . S
C2326 C2320 1.383 . S
C2326 C2325 1.379 . S
H2327 C2321 0.959 . S
H2328 C2321 0.961 . S
H2329 C2321 0.960 . S
H2330 C2322 0.930 . S
H2331 C2323 0.929 . S
H2332 C2340 0.929 . S
H2333 C2342 0.930 . S
H2334 C2344 0.930 . S
H2335 C2347 0.929 . S
H2336 C2350 0.930 . S
H2337 C2352 0.960 . S
H2338 C2352 0.960 . S
H2339 C2352 0.960 . S
C2340 H2332 0.929 . S
C2340 C2341 1.377 . S
C2340 C2342 1.384 . S
C2341 C2340 1.377 . S
C2341 C2347 1.390 . S
C2342 H2333 0.930 . S
C2342 C2340 1.384 . S
C2342 C2343 1.372 . S
C2343 C2342 1.372 . S
C2343 C2344 1.400 . S
C2343 C2348 1.490 . S
C2344 H2334 0.930 . S
C2344 C2343 1.400 . S
C2344 C2347 1.386 . S
H2345 C2361 0.930 . S
H2346 C2362 0.931 . S
C2347 H2335 0.929 . S
C2347 C2341 1.390 . S
C2347 C2344 1.386 . S
C2348 C2343 1.490 . S
C2348 C2350 1.395 . S
C2348 C2351 1.403 . S
H2349 C2355 0.930 . S
C2350 H2336 0.930 . S
C2350 C2348 1.395 . S
C2350 C2353 1.403 . S
C2351 C2348 1.403 . S
C2351 C2352 1.524 . S
C2351 C2355 1.400 . S
C2352 H2337 0.960 . S
C2352 H2338 0.960 . S
C2352 H2339 0.960 . S
C2352 C2351 1.524 . S
C2353 C2350 1.403 . S
C2353 C2354 1.392 . S
C2353 C2357 1.495 . S
C2354 C2353 1.392 . S
C2354 C2355 1.385 . S
C2354 C2356 1.478 . S
C2355 H2349 0.930 . S
C2355 C2351 1.400 . S
C2355 C2354 1.385 . S
C2356 C2354 1.478 . S
C2356 C2358 1.381 . S
C2356 C2362 1.383 . S
C2357 C2353 1.495 . S
C2357 H2363 0.959 . S
C2357 H2364 0.961 . S
C2357 H2365 0.960 . S
C2358 C2356 1.381 . S
C2358 C2359 1.394 . S
C2358 H2366 0.930 . S
C2359 C2358 1.394 . S
C2359 C2360 1.383 . S
C2359 H2367 0.929 . S
C2360 C2359 1.383 . S
C2360 C2361 1.377 . S
C2361 H2345 0.930 . S
C2361 C2360 1.377 . S
C2361 C2362 1.379 . S
C2362 H2346 0.931 . S
C2362 C2356 1.383 . S
C2362 C2361 1.379 . S
H2363 C2357 0.959 . S
H2364 C2357 0.961 . S
H2365 C2357 0.960 . S
H2366 C2358 0.930 . S
H2367 C2359 0.929 . S
C649 C20 0.837 . S
C668 C44 0.852 . S
C685 C100 1.758 . S
C704 C71 1.743 . S
C721 C151 1.957 . S
C740 C82 1.947 . S
C757 C2 0.891 . S
C776 C124 0.917 . S
C793 C23 0.899 . S
C812 C385 0.920 . S
C829 C311 0.832 . S
C848 C65 0.815 . S
C865 C111 1.758 . S
C884 C420 1.754 . S
C901 C140 1.955 . S
C920 C543 1.941 . S
C937 C351 1.758 . S
C956 C60 1.750 . S
C973 C500 1.956 . S
C992 C103 1.941 . S
C1009 C583 0.897 . S
C1028 C145 0.917 . S
C1045 C31 0.830 . S
C1064 C465 0.806 . S
C1081 C4 0.662 . S
C1100 C345 0.528 . S
C1117 C482 1.511 . S
C1136 C183 1.504 . S
C1153 C204 0.528 . S
C1172 C585 0.695 . S
C1189 C463 1.515 . S
C1208 C242 1.526 . S
C1225 C84 0.527 . S
C1244 C305 0.700 . S
C1261 C383 1.514 . S
C1280 C162 1.496 . S
C1297 C263 1.516 . S
C1316 C402 1.506 . S
C1333 C231 1.758 . S
C1352 C460 1.749 . S
C1369 C380 1.954 . S
C1388 C223 1.946 . S
C1405 C444 0.829 . S
C1424 C300 0.832 . S
C1441 C220 1.759 . S
C1460 C191 1.740 . S
C1477 C391 1.956 . S
C1496 C322 1.949 . S
C1513 C540 1.757 . S
C1532 C471 1.753 . S
C1549 C271 1.957 . S
C1568 C202 1.943 . S
C1585 C364 0.888 . S
C1604 C562 0.910 . S
C1621 C524 0.533 . S
C1640 C25 0.635 . S
C1657 C105 0.525 . S
C1676 C564 0.655 . S
C1693 C503 1.510 . S
C1712 C42 1.528 . S
C1729 C284 0.655 . S
C1748 C225 0.537 . S
C1765 C122 1.512 . S
C1784 C423 1.528 . S
C1801 C511 1.957 . S
C1820 C522 1.950 . S
C1837 C282 0.896 . S
C1856 C484 0.898 . S
C1873 C265 0.896 . S
C1892 C303 0.891 . S
C1909 C180 1.748 . S
C1928 C551 1.751 . S
C1945 C505 0.894 . S
C1964 C623 0.911 . S
C1981 C625 0.656 . S
C2000 C324 0.562 . S
C2017 C63 1.514 . S
C2036 C362 1.527 . S
C2053 C343 1.956 . S
C2072 C260 1.943 . S
C2089 C340 1.758 . S
C2108 C431 1.742 . S
C2125 C602 0.896 . S
C2144 C244 0.876 . S
C2161 C545 0.532 . S
C2180 C604 0.721 . S
C2197 C442 1.514 . S
C2216 C143 1.526 . S
C2233 C404 0.840 . S
C2252 C580 0.817 . S
C2269 C425 0.831 . S
C2288 C631 0.819 . S
C2305 C185 0.839 . S
C2324 C591 0.858 . S
C2341 C620 0.836 . S
C2360 C164 0.807 . S
