# Generated by pormake.
# Topology rob, (6)-cn, num edge types: 1
# Building blocks:
#     Node 0, Type 0, BuildingBlock: FUNLAD_clean_sbu_0, # of connection points: 6
#     Node 1, Type 0, BuildingBlock: FUNLAD_clean_sbu_0, # of connection points: 6
#     Node 2, Type 0, BuildingBlock: FUNLAD_clean_sbu_0, # of connection points: 6
#     Node 3, Type 0, BuildingBlock: FUNLAD_clean_sbu_0, # of connection points: 6
#     Edge 4, Type (0, 0), BuildingBlock: XIVTED_clean_linker_0, # of connection points: 2
#     Edge 5, Type (0, 0), BuildingBlock: XIVTED_clean_linker_0, # of connection points: 2
#     Edge 6, Type (0, 0), BuildingBlock: XIVTED_clean_linker_0, # of connection points: 2
#     Edge 7, Type (0, 0), BuildingBlock: XIVTED_clean_linker_0, # of connection points: 2
#     Edge 8, Type (0, 0), BuildingBlock: XIVTED_clean_linker_0, # of connection points: 2
#     Edge 9, Type (0, 0), BuildingBlock: XIVTED_clean_linker_0, # of connection points: 2
#     Edge 10, Type (0, 0), BuildingBlock: XIVTED_clean_linker_0, # of connection points: 2
#     Edge 11, Type (0, 0), BuildingBlock: XIVTED_clean_linker_0, # of connection points: 2
#     Edge 12, Type (0, 0), BuildingBlock: XIVTED_clean_linker_0, # of connection points: 2
#     Edge 13, Type (0, 0), BuildingBlock: XIVTED_clean_linker_0, # of connection points: 2
#     Edge 14, Type (0, 0), BuildingBlock: XIVTED_clean_linker_0, # of connection points: 2
#     Edge 15, Type (0, 0), BuildingBlock: XIVTED_clean_linker_0, # of connection points: 2
# Relax obj value: 0.137
# Max RMSD: 0.158
# Mean RMSD: 0.158
data_MOF--net-rob--node1-FUNLAD_clean_sbu_0--edge1-XIVTED_clean_linker_0
_symmetry_space_group_name_H-M    P1
_symmetry_Int_Tables_number       1
_symmetry_cell_setting            triclinic
loop_
_symmetry_equiv_pos_as_xyz
'x, y, z'
_cell_length_a     16.078224
_cell_length_b     40.741773
_cell_length_c     23.248871
_cell_angle_alpha  92.36631
_cell_angle_beta   90.066138
_cell_angle_gamma 90.008624
loop_
_atom_site_label
_atom_site_type_symbol
_atom_site_fract_x
_atom_site_fract_y
_atom_site_fract_z
_atom_type_partial_charge
C0 C 0.27767 0.25162 0.87921 0.0
N1 N 0.30137 0.33631 0.98645 0.0
C2 C 0.3753 0.34124 0.95971 0.0
C3 C 0.40985 0.37263 0.95892 0.0
C4 C 0.36812 0.39931 0.986 0.0
C5 C 0.291 0.39362 0.01224 0.0
C6 C 0.25864 0.36177 0.01199 0.0
Zn7 Zn 0.25851 0.28925 0.9913 0.0
C8 C 0.08425 0.28109 0.9602 0.0
N9 N 0.181 0.18938 0.00089 0.0
C10 C 0.22461 0.16406 0.97566 0.0
C11 C 0.10693 0.18419 0.02727 0.0
C12 C 0.07328 0.15263 0.02815 0.0
C13 C 0.11609 0.12608 0.00152 0.0
C14 C 0.19314 0.13208 0.97544 0.0
Zn15 Zn 0.22351 0.23652 -0.00385 0.0
O16 O 0.28644 0.27986 0.90373 0.0
C17 C 0.39783 0.24477 0.0273 0.0
O18 O 0.25366 0.2277 0.90835 0.0
H19 H 0.07301 0.20468 0.04678 0.0
H20 H 0.40829 0.32067 0.93967 0.0
H21 H 0.28341 0.16873 0.95497 0.0
O22 O 0.37857 0.27409 0.01618 0.0
O23 O 0.34345 0.22226 0.02128 0.0
H24 H 0.20013 0.35728 0.03319 0.0
O25 O 0.19509 0.24597 0.08376 0.0
O26 O 0.22872 0.29805 0.07905 0.0
O27 O 0.10342 0.2517 0.97101 0.0
O28 O 0.13865 0.30356 0.9665 0.0
C29 C 0.20419 0.27422 0.1082 0.0
H30 H 0.46876 0.37592 0.93737 0.0
H31 H 0.25706 0.41338 0.03414 0.0
H32 H 0.01325 0.14925 0.04813 0.0
H33 H 0.22878 0.11228 0.95506 0.0
C34 C 0.77902 0.75103 0.87802 0.0
N35 N 0.80079 0.83634 0.98413 0.0
C36 C 0.87452 0.84182 0.95751 0.0
C37 C 0.90706 0.87355 0.95616 0.0
C38 C 0.86346 0.89996 0.98258 0.0
C39 C 0.78677 0.89365 0.0089 0.0
C40 C 0.75643 0.86152 0.00914 0.0
Zn41 Zn 0.75956 0.78907 0.98953 0.0
C42 C 0.58482 0.78027 0.95895 0.0
N43 N 0.68269 0.68923 0.00087 0.0
C44 C 0.72583 0.66383 0.97548 0.0
C45 C 0.60893 0.68416 0.02772 0.0
C46 C 0.57491 0.65269 0.02871 0.0
C47 C 0.61696 0.62607 0.00167 0.0
C48 C 0.69399 0.6319 0.97541 0.0
Zn49 Zn 0.72451 0.7364 -0.00455 0.0
O50 O 0.78767 0.7794 0.90207 0.0
C51 C 0.89917 0.74502 0.02589 0.0
O52 O 0.75482 0.72731 0.9076 0.0
H53 H 0.5756 0.70468 0.04764 0.0
H54 H 0.90903 0.82144 0.93816 0.0
H55 H 0.78421 0.66843 0.95419 0.0
O56 O 0.88018 0.77431 0.0143 0.0
O57 O 0.84451 0.72258 0.02066 0.0
H58 H 0.6979 0.85663 0.03001 0.0
O59 O 0.69588 0.7462 0.08301 0.0
O60 O 0.72983 0.79815 0.07727 0.0
O61 O 0.60435 0.75101 0.97025 0.0
O62 O 0.63906 0.80285 0.96467 0.0
C63 C 0.70501 0.77458 0.10692 0.0
H64 H 0.96686 0.87717 0.936 0.0
H65 H 0.75056 0.91333 0.02914 0.0
H66 H 0.51607 0.64929 0.05029 0.0
H67 H 0.72819 0.61219 0.95355 0.0
C68 C 0.27968 0.77516 0.60677 0.0
N69 N 0.29865 0.69035 0.49857 0.0
C70 C 0.37249 0.68449 0.52488 0.0
C71 C 0.40458 0.65267 0.52539 0.0
C72 C 0.36041 0.62653 0.49848 0.0
C73 C 0.28363 0.63323 0.47246 0.0
C74 C 0.25376 0.66545 0.47304 0.0
Zn75 Zn 0.25839 0.73785 0.49441 0.0
C76 C 0.08423 0.74701 0.52603 0.0
N77 N 0.18425 0.8382 0.48585 0.0
C78 C 0.22879 0.86326 0.51121 0.0
C79 C 0.11045 0.84384 0.45932 0.0
C80 C 0.07809 0.87558 0.45831 0.0
C81 C 0.12191 0.90189 0.48497 0.0
C82 C 0.19858 0.89543 0.51133 0.0
Zn83 Zn 0.2247 0.79076 0.49018 0.0
O84 O 0.28764 0.74686 0.58224 0.0
C85 C 0.39892 0.78151 0.45862 0.0
O86 O 0.25565 0.7991 0.57768 0.0
H87 H 0.07576 0.82356 0.43973 0.0
H88 H 0.40745 0.70465 0.54463 0.0
H89 H 0.28735 0.85823 0.53202 0.0
O90 O 0.37888 0.75223 0.4695 0.0
O91 O 0.34525 0.80425 0.46492 0.0
H92 H 0.19518 0.67065 0.4524 0.0
O93 O 0.19537 0.78186 0.40284 0.0
O94 O 0.22773 0.72963 0.40633 0.0
O95 O 0.10416 0.77635 0.51543 0.0
O96 O 0.13794 0.72431 0.51936 0.0
C97 C 0.20367 0.75378 0.37771 0.0
H98 H 0.46449 0.64878 0.54532 0.0
H99 H 0.24697 0.61378 0.45186 0.0
H100 H 0.01827 0.87931 0.43816 0.0
H101 H 0.23491 0.91502 0.5318 0.0
C102 C 0.77894 0.27613 0.60819 0.0
N103 N 0.8018 0.19075 0.5024 0.0
C104 C 0.87597 0.18575 0.52887 0.0
C105 C 0.90983 0.15425 0.53016 0.0
C106 C 0.86712 0.12755 0.50382 0.0
C107 C 0.78991 0.13336 0.4777 0.0
C108 C 0.75823 0.16529 0.47752 0.0
Zn109 Zn 0.75911 0.23782 0.4969 0.0
C110 C 0.58461 0.24593 0.52809 0.0
N111 N 0.68039 0.33751 0.48564 0.0
C112 C 0.72461 0.36283 0.51041 0.0
C113 C 0.60595 0.34275 0.45966 0.0
C114 C 0.57248 0.37435 0.45886 0.0
C115 C 0.61586 0.40088 0.48518 0.0
C116 C 0.69336 0.39483 0.5107 0.0
Zn117 Zn 0.72284 0.29037 0.49095 0.0
O118 O 0.78808 0.24775 0.58429 0.0
C119 C 0.89738 0.28218 0.45971 0.0
O120 O 0.7538 0.29968 0.57856 0.0
H121 H 0.57158 0.32226 0.44049 0.0
H122 H 0.90985 0.20635 0.54811 0.0
H123 H 0.78369 0.35813 0.53078 0.0
O124 O 0.87881 0.25288 0.47143 0.0
O125 O 0.84256 0.30453 0.46533 0.0
H126 H 0.69934 0.16981 0.45676 0.0
O127 O 0.69344 0.28038 0.40351 0.0
O128 O 0.72847 0.22852 0.40938 0.0
O129 O 0.60311 0.2753 0.51666 0.0
O130 O 0.63946 0.22361 0.52223 0.0
C131 C 0.70289 0.25198 0.3797 0.0
H132 H 0.96997 0.15102 0.55017 0.0
H133 H 0.75435 0.11344 0.45754 0.0
H134 H 0.51212 0.37777 0.43928 0.0
H135 H 0.72948 0.41461 0.53078 0.0
H136 H 0.45348 0.60928 0.98428 0.0
H137 H 0.53182 0.41597 0.0032 0.0
H138 H 0.69484 0.56668 0.01381 0.0
H139 H 0.29062 0.45873 0.97373 0.0
H140 H 0.59279 0.47088 0.00652 0.0
H141 H 0.39276 0.55436 0.98085 0.0
C142 C 0.49371 0.5884 0.99048 0.0
C143 C 0.57947 0.59268 -0.0004 0.0
C144 C 0.52653 0.46827 -0.0007 0.0
C145 C 0.51027 0.52953 -0.00512 0.0
C146 C 0.49168 0.43688 -0.00299 0.0
C147 C 0.40587 0.43265 0.98798 0.0
C148 C 0.47534 0.49576 0.99253 0.0
C149 C 0.35686 0.46078 0.9814 0.0
C150 C 0.459 0.55699 0.98812 0.0
C151 C 0.62862 0.56458 0.00612 0.0
N152 N 0.39229 0.4911 0.98374 0.0
N153 N 0.5933 0.53423 0.00371 0.0
H154 H 0.35795 0.5809 0.40827 0.0
H155 H 0.61746 0.44651 0.57526 0.0
H156 H 0.44339 0.59509 0.58363 0.0
H157 H 0.5302 0.43171 0.40045 0.0
H158 H 0.5549 0.50115 0.5788 0.0
H159 H 0.41923 0.526 0.40484 0.0
C160 C 0.38896 0.57239 0.44625 0.0
C161 C 0.39543 0.59271 0.49635 0.0
C162 C 0.54947 0.48598 0.53962 0.0
C163 C 0.46688 0.52993 0.49241 0.0
C164 C 0.58574 0.45484 0.53742 0.0
C165 C 0.57933 0.43445 0.48741 0.0
C166 C 0.50639 0.49696 0.49147 0.0
C167 C 0.53598 0.44639 0.44012 0.0
C168 C 0.42448 0.54109 0.44411 0.0
C169 C 0.43772 0.5805 0.54385 0.0
N170 N 0.50128 0.47684 0.4433 0.0
N171 N 0.4718 0.54995 0.5407 0.0
H172 H 0.03245 0.09552 0.08722 0.0
H173 H 0.94566 0.93074 0.89646 0.0
H174 H 0.11564 0.08022 0.91169 0.0
H175 H 0.86291 0.946 0.07209 0.0
H176 H 0.00794 0.98549 0.90109 0.0
H177 H 0.96916 0.04096 0.08229 0.0
C178 C 0.03722 0.08074 0.04756 0.0
C179 C 0.07949 0.09253 -0.00021 0.0
C180 C 0.97604 0.97689 0.9386 0.0
C181 C 0.00753 0.02985 -0.00603 0.0
C182 C 0.94075 0.94556 0.93607 0.0
C183 C 0.89901 0.93368 0.98399 0.0
C184 C 0.96982 0.99657 0.98947 0.0
C185 C 0.89353 0.95424 0.03385 0.0
C186 C 0.00134 0.04951 0.04486 0.0
C187 C 0.08468 0.07203 0.94984 0.0
N188 N 0.92868 0.98461 0.03532 0.0
N189 N 0.04903 0.04175 0.94822 0.0
H190 H 0.95155 0.09727 0.58965 0.0
H191 H 0.04015 0.93278 0.39876 0.0
H192 H 0.86778 0.08162 0.41419 0.0
H193 H 0.12251 0.94787 0.57465 0.0
H194 H 0.97749 0.98741 0.40347 0.0
H195 H 0.0157 0.04286 0.58481 0.0
C196 C 0.94681 0.08244 0.55003 0.0
C197 C 0.90413 0.09409 0.50225 0.0
C198 C 0.00938 0.97882 0.44103 0.0
C199 C 0.9771 0.0316 0.49652 0.0
C200 C 0.04491 0.94754 0.43844 0.0
C201 C 0.08657 0.93563 0.48643 0.0
C202 C 0.0153 0.99841 0.49201 0.0
C203 C 0.09189 0.95614 0.53638 0.0
C204 C 0.98319 0.0513 0.54738 0.0
C205 C 0.89903 0.07354 0.45235 0.0
N206 N 0.05649 0.98646 0.53791 0.0
N207 N 0.93518 0.04337 0.45077 0.0
H208 H 0.67304 0.19353 0.32055 0.0
H209 H 0.52969 0.28643 0.04307 0.0
H210 H 0.69119 0.29796 0.29846 0.0
H211 H 0.44314 0.18981 0.08394 0.0
H212 H 0.63265 0.2838 0.11979 0.0
H213 H 0.62837 0.1862 0.21986 0.0
C214 C 0.66866 0.21483 0.29432 0.0
C215 C 0.68387 0.24649 0.31807 0.0
C216 C 0.59237 0.26287 0.11109 0.0
C217 C 0.63454 0.23822 0.20329 0.0
C218 C 0.53384 0.26425 0.06709 0.0
C219 C 0.476 0.23874 0.0584 0.0
C220 C 0.59257 0.23589 0.14672 0.0
C221 C 0.48543 0.21035 0.09002 0.0
C222 C 0.64346 0.21061 0.23697 0.0
C223 C 0.67821 0.27321 0.28218 0.0
N224 N 0.54128 0.20999 0.13389 0.0
N225 N 0.65334 0.26849 0.22672 0.0
H226 H 0.67552 0.83291 0.16652 0.0
H227 H 0.52948 0.73929 0.44235 0.0
H228 H 0.69329 0.72839 0.1878 0.0
H229 H 0.44579 0.83649 0.40269 0.0
H230 H 0.63277 0.74185 0.36599 0.0
H231 H 0.63058 0.83998 0.2671 0.0
C232 C 0.67101 0.81153 0.19256 0.0
C233 C 0.68618 0.77993 0.16859 0.0
C234 C 0.59303 0.76292 0.37486 0.0
C235 C 0.63644 0.7879 0.28326 0.0
C236 C 0.53432 0.76157 0.41866 0.0
C237 C 0.4772 0.7873 0.42759 0.0
C238 C 0.59415 0.79009 0.33967 0.0
C239 C 0.4875 0.8158 0.3964 0.0
C240 C 0.64565 0.8156 0.24985 0.0
C241 C 0.68036 0.75311 0.20425 0.0
N242 N 0.54352 0.81613 0.35272 0.0
N243 N 0.65526 0.75768 0.25964 0.0
H244 H 0.45441 0.738 0.94198 0.0
H245 H 0.3081 0.83309 0.66778 0.0
H246 H 0.53737 0.83557 0.90413 0.0
H247 H 0.29253 0.72828 0.68649 0.0
H248 H 0.35227 0.83956 0.76861 0.0
H249 H 0.35116 0.74084 0.86549 0.0
C250 C 0.44942 0.76041 0.91868 0.0
C251 C 0.5064 0.78617 0.92808 0.0
C252 C 0.33788 0.81525 0.75074 0.0
C253 C 0.38945 0.78928 0.84009 0.0
C254 C 0.31299 0.81151 0.69328 0.0
C255 C 0.29863 0.78002 0.66853 0.0
C256 C 0.34748 0.78732 0.78352 0.0
C257 C 0.30486 0.75294 0.70355 0.0
C258 C 0.39071 0.76192 0.87481 0.0
C259 C 0.49584 0.81485 0.89742 0.0
N260 N 0.32952 0.75719 0.75914 0.0
N261 N 0.43983 0.81534 0.85368 0.0
H262 H 0.53793 0.18972 0.58046 0.0
H263 H 0.27821 0.29828 0.79908 0.0
H264 H 0.45439 0.28793 0.54776 0.0
H265 H 0.31594 0.19447 0.81856 0.0
H266 H 0.32126 0.29183 0.69896 0.0
H267 H 0.43427 0.18674 0.65665 0.0
C268 C 0.49614 0.21029 0.58807 0.0
C269 C 0.50665 0.23956 0.55909 0.0
C270 C 0.31915 0.27029 0.7247 0.0
C271 C 0.38924 0.23652 0.64677 0.0
C272 C 0.2952 0.27405 0.78205 0.0
C273 C 0.29551 0.247 0.81735 0.0
C274 C 0.34552 0.23939 0.70275 0.0
C275 C 0.31611 0.21603 0.79285 0.0
C276 C 0.43713 0.20863 0.63183 0.0
C277 C 0.44999 0.26521 0.57016 0.0
N278 N 0.34204 0.21316 0.73723 0.0
N279 N 0.39506 0.2634 0.61411 0.0
H280 H 0.03827 0.78361 0.03123 0.0
H281 H 0.19077 0.80182 0.30058 0.0
H282 H 0.93799 0.69301 0.0916 0.0
H283 H 0.17655 0.6966 0.31368 0.0
H284 H 0.148 0.79598 0.20081 0.0
H285 H 0.14468 0.78255 0.10597 0.0
C286 C 0.03961 0.76318 0.05961 0.0
C287 C 0.97751 0.73899 0.05663 0.0
C288 C 0.15663 0.77393 0.22449 0.0
C289 C 0.09571 0.73863 0.14414 0.0
C290 C 0.17975 0.77736 0.28205 0.0
C291 C 0.18578 0.7497 0.31567 0.0
C292 C 0.13858 0.74256 0.20026 0.0
C293 C 0.17179 0.7186 0.28928 0.0
C294 C 0.09959 0.76284 0.10287 0.0
C295 C 0.98358 0.71259 0.09329 0.0
N296 N 0.14707 0.71591 0.23332 0.0
N297 N 0.04031 0.71355 0.13664 0.0
H298 H 0.94386 0.33795 0.40586 0.0
H299 H 0.20087 0.22769 0.18865 0.0
H300 H 0.02772 0.24013 0.44109 0.0
H301 H 0.16783 0.33169 0.16839 0.0
H302 H 0.15764 0.23469 0.28869 0.0
H303 H 0.04724 0.34027 0.32936 0.0
C304 C 0.98568 0.31734 0.39875 0.0
C305 C 0.97533 0.28836 0.42855 0.0
C306 C 0.16086 0.25614 0.26278 0.0
C307 C 0.09235 0.29062 0.3405 0.0
C308 C 0.18488 0.25208 0.20548 0.0
C309 C 0.18599 0.27904 0.17 0.0
C310 C 0.13586 0.28728 0.28449 0.0
C311 C 0.16659 0.3102 0.19425 0.0
C312 C 0.04453 0.31863 0.35481 0.0
C313 C 0.03199 0.26263 0.41806 0.0
N314 N 0.14059 0.31338 0.24982 0.0
N315 N 0.08672 0.26405 0.37391 0.0
H316 H 0.81023 0.33431 0.66791 0.0
H317 H 0.95229 0.23954 0.94359 0.0
H318 H 0.78851 0.2299 0.68902 0.0
H319 H 0.03898 0.33646 0.90481 0.0
H320 H 0.84896 0.24282 0.86723 0.0
H321 H 0.85486 0.3411 0.76871 0.0
C322 C 0.81381 0.31292 0.69395 0.0
C323 C 0.79768 0.2814 0.6699 0.0
C324 C 0.88937 0.26368 0.8763 0.0
C325 C 0.84698 0.28904 0.78477 0.0
C326 C 0.94812 0.26191 0.92009 0.0
C327 C 0.00607 0.28734 0.92925 0.0
C328 C 0.88913 0.29094 0.8413 0.0
C329 C -0.00338 0.31598 0.89832 0.0
C330 C 0.83898 0.31682 0.75137 0.0
C331 C 0.80227 0.25454 0.70554 0.0
N332 N 0.94059 0.31671 0.8546 0.0
N333 N 0.82718 0.25895 0.76103 0.0
H334 H 0.95383 0.78916 0.54389 0.0
H335 H 0.81049 0.69307 0.8176 0.0
H336 H 0.03751 0.69149 0.58041 0.0
H337 H 0.78792 0.79757 0.79772 0.0
H338 H 0.85519 0.68676 0.71683 0.0
H339 H 0.85059 0.78581 0.62013 0.0
C340 C 0.94903 0.76664 0.56687 0.0
C341 C 0.0061 0.74098 0.55709 0.0
C342 C 0.83912 0.71095 0.73443 0.0
C343 C 0.88927 0.73727 0.64494 0.0
C344 C 0.81388 0.71459 0.79183 0.0
C345 C 0.7975 0.74599 0.81624 0.0
C346 C 0.84701 0.73889 0.7014 0.0
C347 C 0.80187 0.773 0.78093 0.0
C348 C 0.89033 0.76482 0.61061 0.0
C349 C -0.00415 0.71214 0.58738 0.0
N350 N 0.82691 0.76886 0.72546 0.0
N351 N 0.93992 0.71136 0.63106 0.0
loop_
_geom_bond_atom_site_label_1
_geom_bond_atom_site_label_2
_geom_bond_distance
_geom_bond_site_symmetry_2
_ccdc_geom_bond_type
C0 O16 1.251 . S
C0 O18 1.254 . S
N1 C2 1.333 1_554 S
N1 C6 1.307 . S
N1 Zn7 2.020 . S
C2 N1 1.333 1_556 S
C2 C3 1.379 . S
C2 H20 0.952 . S
C3 C2 1.379 . S
C3 C4 1.390 1_556 S
C3 H30 0.949 . S
C4 C3 1.390 1_554 S
C4 C5 1.357 . S
C5 C4 1.357 . S
C5 C6 1.370 . S
C5 H31 0.950 . S
C6 N1 1.307 . S
C6 C5 1.370 . S
C6 H24 0.948 . S
Zn7 N1 2.020 . S
Zn7 O16 2.039 1_554 S
Zn7 O22 2.034 . S
Zn7 O26 2.025 . S
Zn7 O28 2.024 1_554 S
C8 O27 1.246 . S
C8 O28 1.249 . S
N9 C10 1.307 . S
N9 C11 1.333 1_556 S
N9 Zn15 2.020 . S
C10 N9 1.307 . S
C10 C14 1.370 . S
C10 H21 0.948 . S
C11 N9 1.333 1_554 S
C11 C12 1.379 . S
C11 H19 0.952 . S
C12 C11 1.379 . S
C12 C13 1.390 1_554 S
C12 H32 0.949 . S
C13 C12 1.390 1_556 S
C13 C14 1.357 . S
C14 C10 1.370 . S
C14 C13 1.357 . S
C14 H33 0.950 . S
Zn15 N9 2.020 . S
Zn15 O18 2.025 . S
Zn15 O23 2.024 1_556 S
Zn15 O25 2.039 1_556 S
Zn15 O27 2.034 . S
O16 C0 1.251 . S
O16 Zn7 2.039 1_556 S
C17 O22 1.246 . S
C17 O23 1.249 . S
O18 C0 1.254 . S
O18 Zn15 2.025 . S
H19 C11 0.952 . S
H20 C2 0.952 . S
H21 C10 0.948 . S
O22 Zn7 2.034 . S
O22 C17 1.246 . S
O23 Zn15 2.024 1_554 S
O23 C17 1.249 . S
H24 C6 0.948 . S
O25 Zn15 2.039 1_554 S
O25 C29 1.251 . S
O26 Zn7 2.025 . S
O26 C29 1.254 . S
O27 C8 1.246 . S
O27 Zn15 2.034 . S
O28 Zn7 2.024 1_556 S
O28 C8 1.249 . S
C29 O25 1.251 . S
C29 O26 1.254 . S
H30 C3 0.949 . S
H31 C5 0.950 . S
H32 C12 0.949 . S
H33 C14 0.950 . S
C34 O50 1.251 . S
C34 O52 1.254 . S
N35 C36 1.333 1_554 S
N35 C40 1.307 . S
N35 Zn41 2.020 . S
C36 N35 1.333 1_556 S
C36 C37 1.379 . S
C36 H54 0.952 . S
C37 C36 1.379 . S
C37 C38 1.390 1_556 S
C37 H64 0.949 . S
C38 C37 1.390 1_554 S
C38 C39 1.357 . S
C39 C38 1.357 . S
C39 C40 1.370 . S
C39 H65 0.950 . S
C40 N35 1.307 . S
C40 C39 1.370 . S
C40 H58 0.948 . S
Zn41 N35 2.020 . S
Zn41 O50 2.039 1_554 S
Zn41 O56 2.034 . S
Zn41 O60 2.025 . S
Zn41 O62 2.024 1_554 S
C42 O61 1.246 . S
C42 O62 1.249 . S
N43 C44 1.307 . S
N43 C45 1.333 1_556 S
N43 Zn49 2.020 . S
C44 N43 1.307 . S
C44 C48 1.370 . S
C44 H55 0.948 . S
C45 N43 1.333 1_554 S
C45 C46 1.379 . S
C45 H53 0.952 . S
C46 C45 1.379 . S
C46 C47 1.390 1_554 S
C46 H66 0.949 . S
C47 C46 1.390 1_556 S
C47 C48 1.357 . S
C48 C44 1.370 . S
C48 C47 1.357 . S
C48 H67 0.950 . S
Zn49 N43 2.020 . S
Zn49 O52 2.025 . S
Zn49 O57 2.024 1_556 S
Zn49 O59 2.039 1_556 S
Zn49 O61 2.034 . S
O50 C34 1.251 . S
O50 Zn41 2.039 1_556 S
C51 O56 1.246 . S
C51 O57 1.249 . S
O52 C34 1.254 . S
O52 Zn49 2.025 . S
H53 C45 0.952 . S
H54 C36 0.952 . S
H55 C44 0.948 . S
O56 Zn41 2.034 . S
O56 C51 1.246 . S
O57 Zn49 2.024 1_554 S
O57 C51 1.249 . S
H58 C40 0.948 . S
O59 Zn49 2.039 1_554 S
O59 C63 1.251 . S
O60 Zn41 2.025 . S
O60 C63 1.254 . S
O61 C42 1.246 . S
O61 Zn49 2.034 . S
O62 Zn41 2.024 1_556 S
O62 C42 1.249 . S
C63 O59 1.251 . S
C63 O60 1.254 . S
H64 C37 0.949 . S
H65 C39 0.950 . S
H66 C46 0.949 . S
H67 C48 0.950 . S
C68 O84 1.251 . S
C68 O86 1.254 . S
N69 C70 1.333 . S
N69 C74 1.307 . S
N69 Zn75 2.020 . S
C70 N69 1.333 . S
C70 C71 1.379 . S
C70 H88 0.952 . S
C71 C70 1.379 . S
C71 C72 1.390 . S
C71 H98 0.949 . S
C72 C71 1.390 . S
C72 C73 1.357 . S
C73 C72 1.357 . S
C73 C74 1.370 . S
C73 H99 0.950 . S
C74 N69 1.307 . S
C74 C73 1.370 . S
C74 H92 0.948 . S
Zn75 N69 2.020 . S
Zn75 O84 2.039 . S
Zn75 O90 2.034 . S
Zn75 O94 2.025 . S
Zn75 O96 2.024 . S
C76 O95 1.246 . S
C76 O96 1.249 . S
N77 C78 1.307 . S
N77 C79 1.333 . S
N77 Zn83 2.020 . S
C78 N77 1.307 . S
C78 C82 1.370 . S
C78 H89 0.948 . S
C79 N77 1.333 . S
C79 C80 1.379 . S
C79 H87 0.952 . S
C80 C79 1.379 . S
C80 C81 1.390 . S
C80 H100 0.949 . S
C81 C80 1.390 . S
C81 C82 1.357 . S
C82 C78 1.370 . S
C82 C81 1.357 . S
C82 H101 0.950 . S
Zn83 N77 2.020 . S
Zn83 O86 2.025 . S
Zn83 O91 2.024 . S
Zn83 O93 2.039 . S
Zn83 O95 2.034 . S
O84 C68 1.251 . S
O84 Zn75 2.039 . S
C85 O90 1.246 . S
C85 O91 1.249 . S
O86 C68 1.254 . S
O86 Zn83 2.025 . S
H87 C79 0.952 . S
H88 C70 0.952 . S
H89 C78 0.948 . S
O90 Zn75 2.034 . S
O90 C85 1.246 . S
O91 Zn83 2.024 . S
O91 C85 1.249 . S
H92 C74 0.948 . S
O93 Zn83 2.039 . S
O93 C97 1.251 . S
O94 Zn75 2.025 . S
O94 C97 1.254 . S
O95 C76 1.246 . S
O95 Zn83 2.034 . S
O96 Zn75 2.024 . S
O96 C76 1.249 . S
C97 O93 1.251 . S
C97 O94 1.254 . S
H98 C71 0.949 . S
H99 C73 0.950 . S
H100 C80 0.949 . S
H101 C82 0.950 . S
C102 O118 1.251 . S
C102 O120 1.254 . S
N103 C104 1.333 . S
N103 C108 1.307 . S
N103 Zn109 2.020 . S
C104 N103 1.333 . S
C104 C105 1.379 . S
C104 H122 0.952 . S
C105 C104 1.379 . S
C105 C106 1.390 . S
C105 H132 0.949 . S
C106 C105 1.390 . S
C106 C107 1.357 . S
C107 C106 1.357 . S
C107 C108 1.370 . S
C107 H133 0.950 . S
C108 N103 1.307 . S
C108 C107 1.370 . S
C108 H126 0.948 . S
Zn109 N103 2.020 . S
Zn109 O118 2.039 . S
Zn109 O124 2.034 . S
Zn109 O128 2.025 . S
Zn109 O130 2.024 . S
C110 O129 1.246 . S
C110 O130 1.249 . S
N111 C112 1.307 . S
N111 C113 1.333 . S
N111 Zn117 2.020 . S
C112 N111 1.307 . S
C112 C116 1.370 . S
C112 H123 0.948 . S
C113 N111 1.333 . S
C113 C114 1.379 . S
C113 H121 0.952 . S
C114 C113 1.379 . S
C114 C115 1.390 . S
C114 H134 0.949 . S
C115 C114 1.390 . S
C115 C116 1.357 . S
C116 C112 1.370 . S
C116 C115 1.357 . S
C116 H135 0.950 . S
Zn117 N111 2.020 . S
Zn117 O120 2.025 . S
Zn117 O125 2.024 . S
Zn117 O127 2.039 . S
Zn117 O129 2.034 . S
O118 C102 1.251 . S
O118 Zn109 2.039 . S
C119 O124 1.246 . S
C119 O125 1.249 . S
O120 C102 1.254 . S
O120 Zn117 2.025 . S
H121 C113 0.952 . S
H122 C104 0.952 . S
H123 C112 0.948 . S
O124 Zn109 2.034 . S
O124 C119 1.246 . S
O125 Zn117 2.024 . S
O125 C119 1.249 . S
H126 C108 0.948 . S
O127 Zn117 2.039 . S
O127 C131 1.251 . S
O128 Zn109 2.025 . S
O128 C131 1.254 . S
O129 C110 1.246 . S
O129 Zn117 2.034 . S
O130 Zn109 2.024 . S
O130 C110 1.249 . S
C131 O127 1.251 . S
C131 O128 1.254 . S
H132 C105 0.949 . S
H133 C107 0.950 . S
H134 C114 0.949 . S
H135 C116 0.950 . S
H136 C142 0.930 . S
H137 C146 0.930 . S
H138 C151 0.929 . S
H139 C149 0.929 . S
H140 C144 0.929 . S
H141 C150 0.929 . S
C142 H136 0.930 . S
C142 C143 1.367 . S
C142 C150 1.378 . S
C143 C142 1.367 . S
C143 C151 1.433 1_556 S
C144 H140 0.929 . S
C144 C146 1.378 . S
C144 C148 1.351 . S
C145 C148 1.462 1_556 S
C145 C150 1.350 . S
C145 N153 1.427 1_556 S
C146 H137 0.930 . S
C146 C144 1.378 . S
C146 C147 1.368 . S
C147 C146 1.368 . S
C147 C149 1.432 1_554 S
C148 C144 1.351 . S
C148 C145 1.462 1_554 S
C148 N152 1.426 1_554 S
C149 H139 0.929 . S
C149 C147 1.432 1_556 S
C149 N152 1.384 . S
C150 H141 0.929 . S
C150 C142 1.378 . S
C150 C145 1.350 . S
C151 H138 0.929 . S
C151 C143 1.433 1_554 S
C151 N153 1.384 . S
N152 C148 1.426 1_556 S
N152 C149 1.384 . S
N153 C145 1.427 1_554 S
N153 C151 1.384 . S
H154 C160 0.930 . S
H155 C164 0.930 . S
H156 C169 0.929 . S
H157 C167 0.929 . S
H158 C162 0.929 . S
H159 C168 0.929 . S
C160 H154 0.930 . S
C160 C161 1.367 . S
C160 C168 1.378 . S
C161 C160 1.367 . S
C161 C169 1.433 . S
C162 H158 0.929 . S
C162 C164 1.378 . S
C162 C166 1.350 . S
C163 C166 1.463 . S
C163 C168 1.350 . S
C163 N171 1.427 . S
C164 H155 0.930 . S
C164 C162 1.378 . S
C164 C165 1.367 . S
C165 C164 1.367 . S
C165 C167 1.433 . S
C166 C162 1.350 . S
C166 C163 1.463 . S
C166 N170 1.427 . S
C167 H157 0.929 . S
C167 C165 1.433 . S
C167 N170 1.384 . S
C168 H159 0.929 . S
C168 C160 1.378 . S
C168 C163 1.350 . S
C169 H156 0.929 . S
C169 C161 1.433 . S
C169 N171 1.384 . S
N170 C166 1.427 . S
N170 C167 1.384 . S
N171 C163 1.427 . S
N171 C169 1.384 . S
H172 C178 0.930 . S
H173 C182 0.930 . S
H174 C187 0.929 . S
H175 C185 0.929 . S
H176 C180 0.929 1_455 S
H177 C186 0.929 1_655 S
C178 H172 0.930 . S
C178 C179 1.381 . S
C178 C186 1.378 . S
C179 C178 1.381 . S
C179 C187 1.420 1_554 S
C180 H176 0.929 1_655 S
C180 C182 1.378 . S
C180 C184 1.350 . S
C181 C184 1.463 1_444 S
C181 C186 1.350 . S
C181 N189 1.427 1_554 S
C182 H173 0.930 . S
C182 C180 1.378 . S
C182 C183 1.378 . S
C183 C182 1.378 . S
C183 C185 1.423 1_556 S
C184 C180 1.350 . S
C184 C181 1.463 1_666 S
C184 N188 1.427 1_556 S
C185 H175 0.929 . S
C185 C183 1.423 1_554 S
C185 N188 1.384 . S
C186 H177 0.929 1_455 S
C186 C178 1.378 . S
C186 C181 1.350 . S
C187 H174 0.929 . S
C187 C179 1.420 1_556 S
C187 N189 1.384 . S
N188 C184 1.427 1_554 S
N188 C185 1.384 . S
N189 C181 1.427 1_556 S
N189 C187 1.384 . S
H190 C196 0.930 . S
H191 C200 0.930 . S
H192 C205 0.929 . S
H193 C203 0.929 . S
H194 C198 0.929 . S
H195 C204 0.929 . S
C196 H190 0.930 . S
C196 C197 1.367 . S
C196 C204 1.378 . S
C197 C196 1.367 . S
C197 C205 1.433 . S
C198 H194 0.929 . S
C198 C200 1.378 . S
C198 C202 1.350 . S
C199 C202 1.463 1_645 S
C199 C204 1.350 . S
C199 N207 1.427 . S
C200 H191 0.930 . S
C200 C198 1.378 . S
C200 C201 1.367 . S
C201 C200 1.367 . S
C201 C203 1.433 . S
C202 C198 1.350 . S
C202 C199 1.463 1_465 S
C202 N206 1.427 . S
C203 H193 0.929 . S
C203 C201 1.433 . S
C203 N206 1.384 . S
C204 H195 0.929 . S
C204 C196 1.378 . S
C204 C199 1.350 . S
C205 H192 0.929 . S
C205 C197 1.433 . S
C205 N207 1.384 . S
N206 C202 1.427 . S
N206 C203 1.384 . S
N207 C199 1.427 . S
N207 C205 1.384 . S
H208 C214 0.930 . S
H209 C218 0.930 . S
H210 C223 0.929 . S
H211 C221 0.929 . S
H212 C216 0.929 . S
H213 C222 0.929 . S
C214 H208 0.930 . S
C214 C215 1.367 . S
C214 C222 1.378 . S
C215 C214 1.367 . S
C215 C223 1.433 . S
C216 H212 0.929 . S
C216 C218 1.378 . S
C216 C220 1.350 . S
C217 C220 1.463 . S
C217 C222 1.350 . S
C217 N225 1.427 . S
C218 H209 0.930 . S
C218 C216 1.378 . S
C218 C219 1.367 . S
C219 C218 1.367 . S
C219 C221 1.433 . S
C220 C216 1.350 . S
C220 C217 1.463 . S
C220 N224 1.427 . S
C221 H211 0.929 . S
C221 C219 1.433 . S
C221 N224 1.384 . S
C222 H213 0.929 . S
C222 C214 1.378 . S
C222 C217 1.350 . S
C223 H210 0.929 . S
C223 C215 1.433 . S
C223 N225 1.384 . S
N224 C220 1.427 . S
N224 C221 1.384 . S
N225 C217 1.427 . S
N225 C223 1.384 . S
H226 C232 0.930 . S
H227 C236 0.930 . S
H228 C241 0.929 . S
H229 C239 0.929 . S
H230 C234 0.929 . S
H231 C240 0.929 . S
C232 H226 0.930 . S
C232 C233 1.367 . S
C232 C240 1.378 . S
C233 C232 1.367 . S
C233 C241 1.433 . S
C234 H230 0.929 . S
C234 C236 1.378 . S
C234 C238 1.350 . S
C235 C238 1.463 . S
C235 C240 1.350 . S
C235 N243 1.427 . S
C236 H227 0.930 . S
C236 C234 1.378 . S
C236 C237 1.367 . S
C237 C236 1.367 . S
C237 C239 1.433 . S
C238 C234 1.350 . S
C238 C235 1.463 . S
C238 N242 1.427 . S
C239 H229 0.929 . S
C239 C237 1.433 . S
C239 N242 1.384 . S
C240 H231 0.929 . S
C240 C232 1.378 . S
C240 C235 1.350 . S
C241 H228 0.929 . S
C241 C233 1.433 . S
C241 N243 1.384 . S
N242 C238 1.427 . S
N242 C239 1.384 . S
N243 C235 1.427 . S
N243 C241 1.384 . S
H244 C250 0.930 . S
H245 C254 0.930 . S
H246 C259 0.929 . S
H247 C257 0.929 . S
H248 C252 0.929 . S
H249 C258 0.929 . S
C250 H244 0.930 . S
C250 C251 1.367 . S
C250 C258 1.378 . S
C251 C250 1.367 . S
C251 C259 1.433 . S
C252 H248 0.929 . S
C252 C254 1.378 . S
C252 C256 1.350 . S
C253 C256 1.463 . S
C253 C258 1.350 . S
C253 N261 1.427 . S
C254 H245 0.930 . S
C254 C252 1.378 . S
C254 C255 1.367 . S
C255 C254 1.367 . S
C255 C257 1.433 . S
C256 C252 1.350 . S
C256 C253 1.463 . S
C256 N260 1.427 . S
C257 H247 0.929 . S
C257 C255 1.433 . S
C257 N260 1.384 . S
C258 H249 0.929 . S
C258 C250 1.378 . S
C258 C253 1.350 . S
C259 H246 0.929 . S
C259 C251 1.433 . S
C259 N261 1.384 . S
N260 C256 1.427 . S
N260 C257 1.384 . S
N261 C253 1.427 . S
N261 C259 1.384 . S
H262 C268 0.930 . S
H263 C272 0.930 . S
H264 C277 0.929 . S
H265 C275 0.929 . S
H266 C270 0.929 . S
H267 C276 0.929 . S
C268 H262 0.930 . S
C268 C269 1.367 . S
C268 C276 1.378 . S
C269 C268 1.367 . S
C269 C277 1.433 . S
C270 H266 0.929 . S
C270 C272 1.378 . S
C270 C274 1.350 . S
C271 C274 1.463 . S
C271 C276 1.350 . S
C271 N279 1.427 . S
C272 H263 0.930 . S
C272 C270 1.378 . S
C272 C273 1.367 . S
C273 C272 1.367 . S
C273 C275 1.433 . S
C274 C270 1.350 . S
C274 C271 1.463 . S
C274 N278 1.427 . S
C275 H265 0.929 . S
C275 C273 1.433 . S
C275 N278 1.384 . S
C276 H267 0.929 . S
C276 C268 1.378 . S
C276 C271 1.350 . S
C277 H264 0.929 . S
C277 C269 1.433 . S
C277 N279 1.384 . S
N278 C274 1.427 . S
N278 C275 1.384 . S
N279 C271 1.427 . S
N279 C277 1.384 . S
H280 C286 0.930 1_455 S
H281 C290 0.930 1_655 S
H282 C295 0.929 . S
H283 C293 0.929 . S
H284 C288 0.929 . S
H285 C294 0.929 . S
C286 H280 0.930 1_655 S
C286 C287 1.367 . S
C286 C294 1.378 1_655 S
C287 C286 1.367 . S
C287 C295 1.433 . S
C288 H284 0.929 . S
C288 C290 1.378 1_655 S
C288 C292 1.350 1_655 S
C289 C292 1.463 1_655 S
C289 C294 1.350 1_655 S
C289 N297 1.427 . S
C290 H281 0.930 1_455 S
C290 C288 1.378 1_455 S
C290 C291 1.367 . S
C291 C290 1.367 . S
C291 C293 1.433 . S
C292 C288 1.350 1_455 S
C292 C289 1.463 1_455 S
C292 N296 1.427 . S
C293 H283 0.929 . S
C293 C291 1.433 . S
C293 N296 1.384 . S
C294 H285 0.929 . S
C294 C286 1.378 1_455 S
C294 C289 1.350 1_455 S
C295 H282 0.929 . S
C295 C287 1.433 . S
C295 N297 1.384 . S
N296 C292 1.427 . S
N296 C293 1.384 . S
N297 C289 1.427 . S
N297 C295 1.384 . S
H298 C304 0.930 . S
H299 C308 0.930 . S
H300 C313 0.929 . S
H301 C311 0.929 . S
H302 C306 0.929 . S
H303 C312 0.929 . S
C304 H298 0.930 . S
C304 C305 1.367 . S
C304 C312 1.378 . S
C305 C304 1.367 . S
C305 C313 1.433 . S
C306 H302 0.929 . S
C306 C308 1.378 . S
C306 C310 1.350 . S
C307 C310 1.463 1_655 S
C307 C312 1.350 . S
C307 N315 1.427 1_655 S
C308 H299 0.930 . S
C308 C306 1.378 . S
C308 C309 1.367 . S
C309 C308 1.367 . S
C309 C311 1.433 . S
C310 C306 1.350 . S
C310 C307 1.463 1_455 S
C310 N314 1.427 1_455 S
C311 H301 0.929 . S
C311 C309 1.433 . S
C311 N314 1.384 1_455 S
C312 H303 0.929 . S
C312 C304 1.378 . S
C312 C307 1.350 . S
C313 H300 0.929 . S
C313 C305 1.433 . S
C313 N315 1.384 1_655 S
N314 C310 1.427 1_655 S
N314 C311 1.384 1_655 S
N315 C307 1.427 1_455 S
N315 C313 1.384 1_455 S
H316 C322 0.930 1_455 S
H317 C326 0.930 1_655 S
H318 C331 0.929 . S
H319 C329 0.929 . S
H320 C324 0.929 . S
H321 C330 0.929 . S
C322 H316 0.930 1_655 S
C322 C323 1.367 . S
C322 C330 1.378 1_655 S
C323 C322 1.367 . S
C323 C331 1.433 . S
C324 H320 0.929 . S
C324 C326 1.378 1_655 S
C324 C328 1.350 1_655 S
C325 C328 1.463 1_655 S
C325 C330 1.350 1_655 S
C325 N333 1.427 . S
C326 H317 0.930 1_455 S
C326 C324 1.378 1_455 S
C326 C327 1.367 . S
C327 C326 1.367 . S
C327 C329 1.433 . S
C328 C324 1.350 1_455 S
C328 C325 1.463 1_455 S
C328 N332 1.427 . S
C329 H319 0.929 . S
C329 C327 1.433 . S
C329 N332 1.384 . S
C330 H321 0.929 . S
C330 C322 1.378 1_455 S
C330 C325 1.350 1_455 S
C331 H318 0.929 . S
C331 C323 1.433 . S
C331 N333 1.384 . S
N332 C328 1.427 . S
N332 C329 1.384 . S
N333 C325 1.427 . S
N333 C331 1.384 . S
H334 C340 0.930 . S
H335 C344 0.930 . S
H336 C349 0.929 . S
H337 C347 0.929 . S
H338 C342 0.929 . S
H339 C348 0.929 . S
C340 H334 0.930 . S
C340 C341 1.367 . S
C340 C348 1.378 1_455 S
C341 C340 1.367 . S
C341 C349 1.433 . S
C342 H338 0.929 . S
C342 C344 1.378 1_455 S
C342 C346 1.350 1_455 S
C343 C346 1.463 1_455 S
C343 C348 1.350 1_455 S
C343 N351 1.427 . S
C344 H335 0.930 . S
C344 C342 1.378 1_655 S
C344 C345 1.367 . S
C345 C344 1.367 . S
C345 C347 1.433 . S
C346 C342 1.350 1_655 S
C346 C343 1.463 1_655 S
C346 N350 1.427 . S
C347 H337 0.929 . S
C347 C345 1.433 . S
C347 N350 1.384 . S
C348 H339 0.929 . S
C348 C340 1.378 1_655 S
C348 C343 1.350 1_655 S
C349 H336 0.929 . S
C349 C341 1.433 . S
C349 N351 1.384 . S
N350 C346 1.427 . S
N350 C347 1.384 . S
N351 C343 1.427 . S
N351 C349 1.384 . S
C143 C47 1.631 . S
C147 C4 1.631 . S
C161 C72 1.633 . S
C165 C115 1.633 . S
C179 C13 1.632 1_554 S
C183 C38 1.632 1_556 S
C197 C106 1.635 . S
C201 C81 1.635 . S
C215 C131 1.016 . S
C219 C17 1.019 . S
C233 C63 1.018 . S
C237 C85 1.017 . S
C251 C42 1.019 . S
C255 C68 1.019 . S
C269 C110 1.019 . S
C273 C0 1.013 . S
C287 C51 1.021 . S
C291 C97 1.017 . S
C305 C119 1.016 . S
C309 C29 1.008 . S
C323 C102 1.018 . S
C327 C8 1.022 . S
C341 C76 1.019 . S
C345 C34 1.020 . S
