# Generated by pormake.
# Topology vch, (7)-cn, num edge types: 1
# Building blocks:
#     Node 0, Type 0, BuildingBlock: NUHQUE_clean_sbu_2, # of connection points: 7
#     Node 1, Type 0, BuildingBlock: NUHQUE_clean_sbu_2, # of connection points: 7
#     Node 2, Type 0, BuildingBlock: NUHQUE_clean_sbu_2, # of connection points: 7
#     Node 3, Type 0, BuildingBlock: NUHQUE_clean_sbu_2, # of connection points: 7
#     Node 4, Type 0, BuildingBlock: NUHQUE_clean_sbu_2, # of connection points: 7
#     Node 5, Type 0, BuildingBlock: NUHQUE_clean_sbu_2, # of connection points: 7
#     Node 6, Type 0, BuildingBlock: NUHQUE_clean_sbu_2, # of connection points: 7
#     Node 7, Type 0, BuildingBlock: NUHQUE_clean_sbu_2, # of connection points: 7
#     Node 8, Type 0, BuildingBlock: NUHQUE_clean_sbu_2, # of connection points: 7
#     Node 9, Type 0, BuildingBlock: NUHQUE_clean_sbu_2, # of connection points: 7
#     Node 10, Type 0, BuildingBlock: NUHQUE_clean_sbu_2, # of connection points: 7
#     Node 11, Type 0, BuildingBlock: NUHQUE_clean_sbu_2, # of connection points: 7
#     Node 12, Type 0, BuildingBlock: NUHQUE_clean_sbu_2, # of connection points: 7
#     Node 13, Type 0, BuildingBlock: NUHQUE_clean_sbu_2, # of connection points: 7
#     Node 14, Type 0, BuildingBlock: NUHQUE_clean_sbu_2, # of connection points: 7
#     Node 15, Type 0, BuildingBlock: NUHQUE_clean_sbu_2, # of connection points: 7
#     Edge 16, Type (0, 0), BuildingBlock: UVAHIK_clean_linker_0, # of connection points: 2
#     Edge 17, Type (0, 0), BuildingBlock: UVAHIK_clean_linker_0, # of connection points: 2
#     Edge 18, Type (0, 0), BuildingBlock: UVAHIK_clean_linker_0, # of connection points: 2
#     Edge 19, Type (0, 0), BuildingBlock: UVAHIK_clean_linker_0, # of connection points: 2
#     Edge 20, Type (0, 0), BuildingBlock: UVAHIK_clean_linker_0, # of connection points: 2
#     Edge 21, Type (0, 0), BuildingBlock: UVAHIK_clean_linker_0, # of connection points: 2
#     Edge 22, Type (0, 0), BuildingBlock: UVAHIK_clean_linker_0, # of connection points: 2
#     Edge 23, Type (0, 0), BuildingBlock: UVAHIK_clean_linker_0, # of connection points: 2
#     Edge 24, Type (0, 0), BuildingBlock: UVAHIK_clean_linker_0, # of connection points: 2
#     Edge 25, Type (0, 0), BuildingBlock: UVAHIK_clean_linker_0, # of connection points: 2
#     Edge 26, Type (0, 0), BuildingBlock: UVAHIK_clean_linker_0, # of connection points: 2
#     Edge 27, Type (0, 0), BuildingBlock: UVAHIK_clean_linker_0, # of connection points: 2
#     Edge 28, Type (0, 0), BuildingBlock: UVAHIK_clean_linker_0, # of connection points: 2
#     Edge 29, Type (0, 0), BuildingBlock: UVAHIK_clean_linker_0, # of connection points: 2
#     Edge 30, Type (0, 0), BuildingBlock: UVAHIK_clean_linker_0, # of connection points: 2
#     Edge 31, Type (0, 0), BuildingBlock: UVAHIK_clean_linker_0, # of connection points: 2
#     Edge 32, Type (0, 0), BuildingBlock: UVAHIK_clean_linker_0, # of connection points: 2
#     Edge 33, Type (0, 0), BuildingBlock: UVAHIK_clean_linker_0, # of connection points: 2
#     Edge 34, Type (0, 0), BuildingBlock: UVAHIK_clean_linker_0, # of connection points: 2
#     Edge 35, Type (0, 0), BuildingBlock: UVAHIK_clean_linker_0, # of connection points: 2
#     Edge 36, Type (0, 0), BuildingBlock: UVAHIK_clean_linker_0, # of connection points: 2
#     Edge 37, Type (0, 0), BuildingBlock: UVAHIK_clean_linker_0, # of connection points: 2
#     Edge 38, Type (0, 0), BuildingBlock: UVAHIK_clean_linker_0, # of connection points: 2
#     Edge 39, Type (0, 0), BuildingBlock: UVAHIK_clean_linker_0, # of connection points: 2
#     Edge 40, Type (0, 0), BuildingBlock: UVAHIK_clean_linker_0, # of connection points: 2
#     Edge 41, Type (0, 0), BuildingBlock: UVAHIK_clean_linker_0, # of connection points: 2
#     Edge 42, Type (0, 0), BuildingBlock: UVAHIK_clean_linker_0, # of connection points: 2
#     Edge 43, Type (0, 0), BuildingBlock: UVAHIK_clean_linker_0, # of connection points: 2
#     Edge 44, Type (0, 0), BuildingBlock: UVAHIK_clean_linker_0, # of connection points: 2
#     Edge 45, Type (0, 0), BuildingBlock: UVAHIK_clean_linker_0, # of connection points: 2
#     Edge 46, Type (0, 0), BuildingBlock: UVAHIK_clean_linker_0, # of connection points: 2
#     Edge 47, Type (0, 0), BuildingBlock: UVAHIK_clean_linker_0, # of connection points: 2
#     Edge 48, Type (0, 0), BuildingBlock: UVAHIK_clean_linker_0, # of connection points: 2
#     Edge 49, Type (0, 0), BuildingBlock: UVAHIK_clean_linker_0, # of connection points: 2
#     Edge 50, Type (0, 0), BuildingBlock: UVAHIK_clean_linker_0, # of connection points: 2
#     Edge 51, Type (0, 0), BuildingBlock: UVAHIK_clean_linker_0, # of connection points: 2
#     Edge 52, Type (0, 0), BuildingBlock: UVAHIK_clean_linker_0, # of connection points: 2
#     Edge 53, Type (0, 0), BuildingBlock: UVAHIK_clean_linker_0, # of connection points: 2
#     Edge 54, Type (0, 0), BuildingBlock: UVAHIK_clean_linker_0, # of connection points: 2
#     Edge 55, Type (0, 0), BuildingBlock: UVAHIK_clean_linker_0, # of connection points: 2
#     Edge 56, Type (0, 0), BuildingBlock: UVAHIK_clean_linker_0, # of connection points: 2
#     Edge 57, Type (0, 0), BuildingBlock: UVAHIK_clean_linker_0, # of connection points: 2
#     Edge 58, Type (0, 0), BuildingBlock: UVAHIK_clean_linker_0, # of connection points: 2
#     Edge 59, Type (0, 0), BuildingBlock: UVAHIK_clean_linker_0, # of connection points: 2
#     Edge 60, Type (0, 0), BuildingBlock: UVAHIK_clean_linker_0, # of connection points: 2
#     Edge 61, Type (0, 0), BuildingBlock: UVAHIK_clean_linker_0, # of connection points: 2
#     Edge 62, Type (0, 0), BuildingBlock: UVAHIK_clean_linker_0, # of connection points: 2
#     Edge 63, Type (0, 0), BuildingBlock: UVAHIK_clean_linker_0, # of connection points: 2
#     Edge 64, Type (0, 0), BuildingBlock: UVAHIK_clean_linker_0, # of connection points: 2
#     Edge 65, Type (0, 0), BuildingBlock: UVAHIK_clean_linker_0, # of connection points: 2
#     Edge 66, Type (0, 0), BuildingBlock: UVAHIK_clean_linker_0, # of connection points: 2
#     Edge 67, Type (0, 0), BuildingBlock: UVAHIK_clean_linker_0, # of connection points: 2
#     Edge 68, Type (0, 0), BuildingBlock: UVAHIK_clean_linker_0, # of connection points: 2
#     Edge 69, Type (0, 0), BuildingBlock: UVAHIK_clean_linker_0, # of connection points: 2
#     Edge 70, Type (0, 0), BuildingBlock: UVAHIK_clean_linker_0, # of connection points: 2
#     Edge 71, Type (0, 0), BuildingBlock: UVAHIK_clean_linker_0, # of connection points: 2
# Relax obj value: 0.152
# Max RMSD: 0.216
# Mean RMSD: 0.216
data_MOF--net-vch--node1-NUHQUE_clean_sbu_2--edge1-UVAHIK_clean_linker_0
_symmetry_space_group_name_H-M    P1
_symmetry_Int_Tables_number       1
_symmetry_cell_setting            triclinic
loop_
_symmetry_equiv_pos_as_xyz
'x, y, z'
_cell_length_a     26.043105
_cell_length_b     67.496065
_cell_length_c     82.433076
_cell_angle_alpha  90.011909
_cell_angle_beta   89.96135
_cell_angle_gamma 89.945121
loop_
_atom_site_label
_atom_site_type_symbol
_atom_site_fract_x
_atom_site_fract_y
_atom_site_fract_z
_atom_type_partial_charge
O0 O 0.18474 0.12911 0.08202 0.0
Tb1 Tb 0.16763 0.1212 0.10692 0.0
Eu2 Eu 0.01468 0.11827 0.13446 0.0
C3 C 0.16809 0.11806 0.07002 0.0
O4 O 0.13739 0.10314 0.07324 0.0
C5 C 0.09672 0.08921 0.12156 0.0
O6 O 0.02673 0.12153 0.16139 0.0
C7 C 0.91827 0.11317 0.12801 0.0
C8 C 0.01976 0.13824 0.16929 0.0
O9 O 0.00774 0.15436 0.16122 0.0
C10 C 0.09195 0.15139 0.12142 0.0
C11 C 0.87436 0.11392 0.11682 0.0
C12 C 0.88026 0.11458 0.09983 0.0
C13 C 0.83683 0.11274 0.08977 0.0
C14 C 0.78815 0.11046 0.09679 0.0
C15 C 0.78193 0.10986 0.11366 0.0
C16 C 0.8252 0.11184 0.1236 0.0
O17 O 0.09907 0.10394 0.11125 0.0
O18 O 0.05992 0.08979 0.13242 0.0
O19 O 0.23208 0.10067 0.10933 0.0
O20 O 0.22466 0.12428 0.12619 0.0
C21 C 0.25236 0.10909 0.12197 0.0
O22 O 0.05774 0.1381 0.11693 0.0
O23 O 0.14004 0.14912 0.11671 0.0
O24 O 0.93631 0.12984 0.13402 0.0
O25 O 0.95346 0.09956 0.12543 0.0
H26 H 0.9182 0.11582 0.09451 0.0
H27 H 0.75474 0.10915 0.08901 0.0
H28 H 0.82089 0.11089 0.13667 0.0
O29 O 0.35762 0.87524 0.09728 0.0
Tb30 Tb 0.35039 0.87013 0.12316 0.0
Eu31 Eu 0.48287 0.87998 0.11713 0.0
C32 C 0.32741 0.88848 0.09049 0.0
O33 O 0.29843 0.89957 0.09988 0.0
C34 C 0.39578 0.91171 0.12288 0.0
O35 O 0.48098 0.88173 0.14442 0.0
C36 C 0.57388 0.88754 0.10532 0.0
C37 C 0.50515 0.86836 0.15316 0.0
O38 O 0.53039 0.85414 0.14572 0.0
C39 C 0.43368 0.83743 0.12331 0.0
C40 C 0.62226 0.87948 0.09816 0.0
C41 C 0.62723 0.87811 0.08113 0.0
C42 C 0.67402 0.8725 0.07395 0.0
C43 C 0.71599 0.86814 0.08394 0.0
C44 C 0.71269 0.86965 0.10087 0.0
C45 C 0.66573 0.87551 0.10796 0.0
O46 O 0.37404 0.8987 0.13249 0.0
O47 O 0.43046 0.90603 0.11224 0.0
O48 O 0.28001 0.87618 0.1371 0.0
O49 O 0.27655 0.85615 0.11742 0.0
C50 C 0.24977 0.86481 0.12868 0.0
O51 O 0.46174 0.8479 0.11309 0.0
O52 O 0.39631 0.84552 0.13184 0.0
O53 O 0.56505 0.88496 0.12088 0.0
O54 O 0.53182 0.88687 0.09649 0.0
H55 H 0.59501 0.88181 0.07338 0.0
H56 H 0.75269 0.8646 0.07843 0.0
H57 H 0.66337 0.87721 0.12101 0.0
O58 O 0.62608 0.89036 0.41781 0.0
Tb59 Tb 0.61598 0.89403 0.39184 0.0
Eu60 Eu 0.48017 0.89847 0.36238 0.0
C61 C 0.66343 0.87875 0.42284 0.0
O62 O 0.69003 0.86883 0.41199 0.0
C63 C 0.56442 0.92603 0.37272 0.0
O64 O 0.47745 0.89372 0.33535 0.0
C65 C 0.39027 0.90939 0.37293 0.0
C66 C 0.50882 0.88138 0.32798 0.0
O67 O 0.54212 0.87126 0.33662 0.0
C68 C 0.54161 0.85795 0.37964 0.0
C69 C 0.34296 0.90298 0.3815 0.0
C70 C 0.34445 0.89642 0.39774 0.0
C71 C 0.29868 0.89226 0.40616 0.0
C72 C 0.25151 0.89484 0.39823 0.0
C73 C 0.24914 0.90142 0.38217 0.0
C74 C 0.29494 0.9053 0.37374 0.0
O75 O 0.55625 0.91385 0.38472 0.0
O76 O 0.53466 0.92395 0.3602 0.0
O77 O 0.68771 0.91082 0.39155 0.0
O78 O 0.67735 0.88797 0.37418 0.0
C79 C 0.70897 0.90145 0.37952 0.0
O80 O 0.50477 0.86825 0.37218 0.0
O81 O 0.58448 0.86494 0.38633 0.0
O82 O 0.39807 0.90231 0.35829 0.0
O83 O 0.43285 0.91148 0.3814 0.0
H84 H 0.38092 0.89485 0.40392 0.0
H85 H 0.21592 0.89243 0.40478 0.0
H86 H 0.29313 0.91087 0.36142 0.0
O87 O 0.87086 0.11537 0.40049 0.0
Tb88 Tb 0.8658 0.12176 0.37473 0.0
Eu89 Eu 1.00049 0.11296 0.37903 0.0
C90 C 0.84025 0.10186 0.40671 0.0
O91 O 0.81258 0.09097 0.39681 0.0
C92 C 0.91631 0.08177 0.37016 0.0
O93 O 0.99985 0.11511 0.35172 0.0
C94 C 0.09217 0.10541 0.39008 0.0
C95 C 0.01718 0.13102 0.34432 0.0
O96 O 0.03523 0.14575 0.35303 0.0
C97 C 0.94578 0.15488 0.3767 0.0
C98 C 0.14006 0.1135 0.39736 0.0
C99 C 0.14454 0.11551 0.41435 0.0
C100 C 0.19169 0.12071 0.42154 0.0
C101 C 0.23416 0.12422 0.41146 0.0
C102 C 0.23074 0.12243 0.39457 0.0
C103 C 0.18375 0.11682 0.38756 0.0
O104 O 0.89593 0.09637 0.36191 0.0
O105 O 0.95142 0.08555 0.38115 0.0
O106 O 0.79517 0.1116 0.36287 0.0
O107 O 0.7932 0.13821 0.37637 0.0
C108 C 0.7659 0.12599 0.36778 0.0
O109 O 0.97453 0.14371 0.38619 0.0
O110 O 0.91077 0.14705 0.36716 0.0
O111 O 0.0826 0.10926 0.37474 0.0
O112 O 0.05046 0.10477 0.3991 0.0
H113 H 0.11164 0.11258 0.42203 0.0
H114 H 0.27131 0.12731 0.4168 0.0
H115 H 0.18156 0.11474 0.37454 0.0
O116 O 0.86956 0.87328 0.90137 0.0
Tb117 Tb 0.86448 0.86746 0.87551 0.0
Eu118 Eu 0.99739 0.87715 0.87979 0.0
C119 C 0.83854 0.88664 0.90766 0.0
O120 O 0.81071 0.89753 0.89779 0.0
C121 C 0.91067 0.90899 0.87478 0.0
O122 O 0.99141 0.87863 0.8525 0.0
C123 C 0.08997 0.88493 0.88998 0.0
C124 C 0.00765 0.8637 0.84359 0.0
O125 O 0.02763 0.84817 0.85083 0.0
C126 C 0.94705 0.83481 0.87634 0.0
C127 C 0.13671 0.87665 0.89786 0.0
C128 C 0.13996 0.87569 0.91495 0.0
C129 C 0.18556 0.86968 0.92262 0.0
C130 C 0.22789 0.86439 0.91306 0.0
C131 C 0.22609 0.86551 0.8961 0.0
C132 C 0.18052 0.87183 0.88852 0.0
O133 O 0.88692 0.89595 0.86567 0.0
O134 O 0.9462 0.90331 0.88508 0.0
O135 O 0.7936 0.87286 0.86169 0.0
O136 O 0.79233 0.85228 0.88104 0.0
C137 C 0.76473 0.86077 0.86992 0.0
O138 O 0.97549 0.8458 0.88602 0.0
O139 O 0.91063 0.84265 0.86732 0.0
O140 O 0.07971 0.8797 0.87496 0.0
O141 O 0.04851 0.88702 0.89895 0.0
H142 H 0.1074 0.88001 0.92234 0.0
H143 H 0.2638 0.86046 0.9189 0.0
H144 H 0.1795 0.87324 0.87543 0.0
O145 O 0.6716 0.12471 0.9154 0.0
Tb146 Tb 0.6595 0.11779 0.8899 0.0
Eu147 Eu 0.52173 0.10906 0.86241 0.0
C148 C 0.66105 0.11152 0.92665 0.0
O149 O 0.63711 0.0952 0.92245 0.0
C150 C 0.60758 0.0826 0.87436 0.0
O151 O 0.51833 0.11069 0.83513 0.0
C152 C 0.43223 0.0992 0.8739 0.0
C153 C 0.5429 0.12439 0.82686 0.0
O154 O 0.57033 0.13762 0.83468 0.0
C155 C 0.58193 0.15181 0.87592 0.0
C156 C 0.38517 0.10644 0.8822 0.0
C157 C 0.38667 0.11303 0.89843 0.0
C158 C 0.34106 0.11781 0.9067 0.0
C159 C 0.29393 0.11588 0.89864 0.0
C160 C 0.29147 0.10917 0.88262 0.0
C161 C 0.33719 0.10466 0.87433 0.0
O162 O 0.60124 0.09607 0.88558 0.0
O163 O 0.57606 0.08335 0.86214 0.0
O164 O 0.73277 0.10209 0.89083 0.0
O165 O 0.71887 0.12154 0.87113 0.0
C166 C 0.75215 0.1095 0.87765 0.0
O167 O 0.5449 0.14033 0.8699 0.0
O168 O 0.62633 0.14599 0.88236 0.0
O169 O 0.43955 0.10482 0.85881 0.0
O170 O 0.47509 0.09791 0.88233 0.0
H171 H 0.42301 0.11406 0.90476 0.0
H172 H 0.25843 0.11879 0.90512 0.0
H173 H 0.33522 0.09893 0.86206 0.0
O174 O 0.36954 0.11168 0.59654 0.0
Tb175 Tb 0.36265 0.11052 0.62274 0.0
Eu176 Eu 0.49715 0.10237 0.61746 0.0
C177 C 0.35774 0.09646 0.58732 0.0
O178 O 0.34923 0.07911 0.59402 0.0
C179 C 0.41541 0.07139 0.62801 0.0
O180 O 0.49827 0.10503 0.64471 0.0
C181 C 0.58807 0.09525 0.60557 0.0
C182 C 0.5204 0.12015 0.65193 0.0
O183 O 0.54234 0.13391 0.64305 0.0
C184 C 0.44118 0.14422 0.62022 0.0
C185 C 0.63533 0.10393 0.59829 0.0
C186 C 0.63921 0.10658 0.58134 0.0
C187 C 0.68561 0.11278 0.57418 0.0
C188 C 0.72798 0.11666 0.58418 0.0
C189 C 0.72543 0.11368 0.60096 0.0
C190 C 0.67922 0.1072 0.60799 0.0
O191 O 0.39659 0.08639 0.63615 0.0
O192 O 0.44868 0.07476 0.61636 0.0
O193 O 0.29467 0.12623 0.63197 0.0
O194 O 0.28633 0.09701 0.62293 0.0
C195 C 0.26206 0.11202 0.62915 0.0
O196 O 0.46978 0.13305 0.61065 0.0
O197 O 0.40564 0.13654 0.62967 0.0
O198 O 0.57941 0.09835 0.62108 0.0
O199 O 0.54579 0.09498 0.59681 0.0
H200 H 0.60658 0.10333 0.57364 0.0
H201 H 0.76448 0.12076 0.5788 0.0
H202 H 0.67795 0.1043 0.62091 0.0
O203 O 0.11866 0.8837 0.57907 0.0
Tb204 Tb 0.10722 0.89123 0.60434 0.0
Eu205 Eu 0.95954 0.89351 0.63504 0.0
C206 C 0.11715 0.89776 0.56807 0.0
O207 O 0.10326 0.91569 0.57248 0.0
C208 C 0.04266 0.92214 0.62246 0.0
O209 O 0.97432 0.88876 0.6617 0.0
C210 C 0.86292 0.89963 0.62954 0.0
C211 C 0.97204 0.87138 0.66887 0.0
O212 O 0.96239 0.85549 0.6602 0.0
C213 C 0.03418 0.86125 0.61967 0.0
C214 C 0.82028 0.89835 0.61794 0.0
C215 C 0.82776 0.8934 0.60151 0.0
C216 C 0.78525 0.8923 0.59101 0.0
C217 C 0.73603 0.89664 0.59696 0.0
C218 C 0.72841 0.90192 0.61322 0.0
C219 C 0.77071 0.9025 0.6237 0.0
O220 O 0.04086 0.90884 0.6109 0.0
O221 O 0.00804 0.92114 0.634 0.0
O222 O 0.17297 0.91126 0.60447 0.0
O223 O 0.16852 0.88859 0.62232 0.0
C224 C 0.19588 0.90327 0.61686 0.0
O225 O 1.00035 0.87506 0.61611 0.0
O226 O 0.08144 0.8631 0.61415 0.0
O227 O 0.88073 0.8829 0.63555 0.0
O228 O 0.89854 0.91301 0.62677 0.0
H229 H 0.86602 0.89024 0.59701 0.0
H230 H 0.70335 0.89592 0.58883 0.0
H231 H 0.7652 0.90657 0.63631 0.0
O232 O 0.64933 0.60639 0.08178 0.0
Tb233 Tb 0.63341 0.59984 0.10708 0.0
Eu234 Eu 0.48597 0.59982 0.13751 0.0
C235 C 0.65102 0.59199 0.07107 0.0
O236 O 0.63856 0.57399 0.07563 0.0
C237 C 0.56457 0.56945 0.12444 0.0
O238 O 0.50569 0.60452 0.16386 0.0
C239 C 0.38792 0.59501 0.13369 0.0
C240 C 0.49812 0.62128 0.17164 0.0
O241 O 0.48079 0.63677 0.1637 0.0
C242 C 0.55996 0.63159 0.12072 0.0
C243 C 0.34347 0.59637 0.12276 0.0
C244 C 0.34869 0.6007 0.10612 0.0
C245 C 0.30489 0.60122 0.0961 0.0
C246 C 0.25667 0.59678 0.10281 0.0
C247 C 0.25122 0.59221 0.11928 0.0
C248 C 0.2947 0.59234 0.12926 0.0
O249 O 0.56515 0.58319 0.1132 0.0
O250 O 0.53015 0.57108 0.13599 0.0
O251 O 0.69767 0.5792 0.10951 0.0
O252 O 0.69203 0.60347 0.12581 0.0
C253 C 0.71915 0.58804 0.12177 0.0
O254 O 0.5252 0.61784 0.11788 0.0
O255 O 0.60735 0.6287 0.1155 0.0
O256 O 0.40819 0.61164 0.13901 0.0
O257 O 0.42189 0.58107 0.13063 0.0
H258 H 0.38631 0.60373 0.10106 0.0
H259 H 0.22296 0.59672 0.09509 0.0
H260 H 0.29081 0.58874 0.14203 0.0
O261 O 0.85805 0.38254 0.08413 0.0
Tb262 Tb 0.87456 0.38555 0.1098 0.0
Eu263 Eu 0.02368 0.38458 0.13904 0.0
C264 C 0.82972 0.39581 0.07662 0.0
O265 O 0.81409 0.41155 0.08459 0.0
C266 C 0.94614 0.41544 0.1271 0.0
O267 O 0.99816 0.37708 0.16431 0.0
C268 C 0.12255 0.38864 0.13725 0.0
C269 C 0.00973 0.36025 0.17144 0.0
O270 O 0.03562 0.34671 0.16342 0.0
C271 C 0.9519 0.35345 0.12108 0.0
C272 C 0.16801 0.38737 0.12677 0.0
C273 C 0.16412 0.38368 0.11001 0.0
C274 C 0.20872 0.38329 0.10035 0.0
C275 C 0.2565 0.3872 0.10757 0.0
C276 C 0.2606 0.39097 0.12421 0.0
C277 C 0.21627 0.39075 0.13382 0.0
O278 O 0.94384 0.4012 0.11636 0.0
O279 O 0.98179 0.4139 0.13824 0.0
O280 O 0.81472 0.40631 0.11754 0.0
O281 O 0.81424 0.37703 0.12688 0.0
C282 C 0.79072 0.39403 0.12701 0.0
O283 O 0.98632 0.36742 0.11859 0.0
O284 O 0.9039 0.35645 0.11652 0.0
O285 O 0.1003 0.37194 0.1415 0.0
O286 O 0.09005 0.40309 0.13425 0.0
H287 H 0.12684 0.38105 0.10459 0.0
H288 H 0.29093 0.38741 0.10016 0.0
H289 H 0.21918 0.39376 0.14671 0.0
O290 O 0.13447 0.38703 0.42486 0.0
Tb291 Tb 0.11731 0.39384 0.39978 0.0
Eu292 Eu 0.96376 0.39746 0.3748 0.0
C293 C 0.15584 0.40056 0.43411 0.0
O294 O 0.16315 0.41842 0.42823 0.0
C295 C 0.0485 0.42576 0.38452 0.0
O296 O 0.97619 0.38951 0.34865 0.0
C297 C 0.86778 0.40511 0.38024 0.0
C298 C 0.96937 0.37132 0.34338 0.0
O299 O 0.95682 0.35732 0.35369 0.0
C300 C 0.03617 0.36342 0.3882 0.0
C301 C 0.82313 0.4028 0.39095 0.0
C302 C 0.82808 0.40024 0.40781 0.0
C303 C 0.78392 0.39914 0.41763 0.0
C304 C 0.73528 0.40108 0.41043 0.0
C305 C 0.73012 0.40376 0.39367 0.0
C306 C 0.77419 0.40431 0.38396 0.0
O307 O 0.04957 0.41132 0.3951 0.0
O308 O 0.01154 0.42524 0.3738 0.0
O309 O 0.18108 0.41403 0.39508 0.0
O310 O 0.17488 0.38783 0.38102 0.0
C311 C 0.20189 0.40375 0.3835 0.0
O312 O 1.00231 0.37684 0.39283 0.0
O313 O 0.08553 0.36612 0.39109 0.0
O314 O 0.88323 0.38945 0.37208 0.0
O315 O 0.90539 0.41658 0.38523 0.0
H316 H 0.86589 0.39908 0.41322 0.0
H317 H 0.7011 0.40071 0.41795 0.0
H318 H 0.77048 0.40661 0.37099 0.0
O319 O 0.39131 0.60967 0.4042 0.0
Tb320 Tb 0.38884 0.61396 0.37811 0.0
Eu321 Eu 0.52544 0.60405 0.38188 0.0
C322 C 0.36095 0.59641 0.41089 0.0
O323 O 0.33474 0.58448 0.40141 0.0
C324 C 0.43783 0.57396 0.3747 0.0
O325 O 0.52179 0.60468 0.35451 0.0
C326 C 0.61763 0.59631 0.3924 0.0
C327 C 0.53607 0.62054 0.34639 0.0
O328 O 0.55318 0.63599 0.35442 0.0
C329 C 0.47188 0.64623 0.38018 0.0
C330 C 0.66398 0.60514 0.40008 0.0
C331 C 0.66671 0.6075 0.41708 0.0
C332 C 0.71197 0.61431 0.42453 0.0
C333 C 0.7544 0.61901 0.41479 0.0
C334 C 0.75306 0.61638 0.39795 0.0
C335 C 0.70792 0.6093 0.39063 0.0
O336 O 0.4204 0.58847 0.3657 0.0
O337 O 0.47353 0.57774 0.38549 0.0
O338 O 0.31578 0.60249 0.36877 0.0
O339 O 0.32009 0.63257 0.37578 0.0
C340 C 0.28989 0.61885 0.3702 0.0
O341 O 0.50107 0.63481 0.38932 0.0
O342 O 0.4363 0.63871 0.37064 0.0
O343 O 0.60761 0.60105 0.37726 0.0
O344 O 0.57602 0.59444 0.40133 0.0
H345 H 0.63403 0.60369 0.4246 0.0
H346 H 0.79005 0.62361 0.42045 0.0
H347 H 0.70737 0.60677 0.37764 0.0
O348 O 0.3695 0.3838 0.92572 0.0
Tb349 Tb 0.38573 0.39006 0.90042 0.0
Eu350 Eu 0.53124 0.3889 0.87029 0.0
C351 C 0.36583 0.39826 0.93632 0.0
O352 O 0.37689 0.41641 0.93177 0.0
C353 C 0.45397 0.42016 0.88242 0.0
O354 O 0.50569 0.38027 0.84528 0.0
C355 C 0.63022 0.3928 0.87159 0.0
C356 C 0.51392 0.36251 0.83929 0.0
O357 O 0.53559 0.34891 0.84841 0.0
C358 C 0.46101 0.35814 0.88867 0.0
C359 C 0.67459 0.39121 0.88245 0.0
C360 C 0.66847 0.38657 0.89895 0.0
C361 C 0.71171 0.38526 0.90903 0.0
C362 C 0.7606 0.38906 0.90263 0.0
C363 C 0.76701 0.39409 0.88627 0.0
C364 C 0.72382 0.39483 0.87613 0.0
O365 O 0.45352 0.40697 0.89409 0.0
O366 O 0.48803 0.41789 0.87082 0.0
O367 O 0.31967 0.40978 0.89792 0.0
O368 O 0.32819 0.38581 0.88142 0.0
C369 C 0.29943 0.40078 0.88553 0.0
O370 O 0.49475 0.37233 0.89112 0.0
O371 O 0.41283 0.36097 0.89306 0.0
O372 O 0.60745 0.37614 0.86753 0.0
O373 O 0.59807 0.40743 0.87446 0.0
H374 H 0.63046 0.38392 0.90386 0.0
H375 H 0.79389 0.38836 0.91052 0.0
H376 H 0.72835 0.39872 0.86345 0.0
O377 O 0.13974 0.60126 0.92185 0.0
Tb378 Tb 0.12351 0.59459 0.89659 0.0
Eu379 Eu 0.97735 0.59723 0.86478 0.0
C380 C 0.144 0.5869 0.93254 0.0
O381 O 0.13348 0.56867 0.92806 0.0
C382 C 0.05177 0.56566 0.87888 0.0
O383 O 0.99857 0.60272 0.83865 0.0
C384 C 0.87851 0.59424 0.86815 0.0
C385 C 0.99242 0.6199 0.83138 0.0
O386 O 0.97582 0.63516 0.83977 0.0
C387 C 0.0544 0.62723 0.88229 0.0
C388 C 0.8347 0.59495 0.8794 0.0
C389 C 0.84067 0.60001 0.89587 0.0
C390 C 0.79763 0.60028 0.90621 0.0
C391 C 0.74938 0.5949 0.90003 0.0
C392 C 0.7431 0.58964 0.88372 0.0
C393 C 0.78588 0.58996 0.87339 0.0
O394 O 0.05326 0.57936 0.89013 0.0
O395 O 0.0186 0.56785 0.86701 0.0
O396 O 0.18668 0.57336 0.89423 0.0
O397 O 0.18251 0.5976 0.87788 0.0
C398 C 0.20884 0.58199 0.88197 0.0
O399 O 0.01808 0.614 0.88481 0.0
O400 O 0.10084 0.62378 0.88807 0.0
O401 O 0.90169 0.61103 0.86468 0.0
O402 O 0.91005 0.57912 0.86955 0.0
H403 H 0.87829 0.60385 0.90052 0.0
H404 H 0.71628 0.59474 0.90802 0.0
H405 H 0.7814 0.5859 0.86074 0.0
O406 O 0.88091 0.61771 0.59986 0.0
Tb407 Tb 0.87421 0.62225 0.62583 0.0
Eu408 Eu 0.0089 0.61316 0.62085 0.0
C409 C 0.85277 0.6038 0.5931 0.0
O410 O 0.82634 0.59188 0.60254 0.0
C411 C 0.92284 0.58182 0.62798 0.0
O412 O 0.00929 0.61215 0.64823 0.0
C413 C 0.09933 0.60592 0.60859 0.0
C414 C 0.02643 0.62726 0.65673 0.0
O415 O 0.04447 0.64284 0.64908 0.0
C416 C 0.95582 0.65472 0.62666 0.0
C417 C 0.14678 0.61413 0.60106 0.0
C418 C 0.15126 0.61497 0.58399 0.0
C419 C 0.19757 0.62073 0.57658 0.0
C420 C 0.23937 0.6259 0.5864 0.0
C421 C 0.23643 0.62474 0.60334 0.0
C422 C 0.19018 0.61871 0.61065 0.0
O423 O 0.90264 0.59562 0.63717 0.0
O424 O 0.95772 0.58657 0.61714 0.0
O425 O 0.80088 0.61199 0.63596 0.0
O426 O 0.80406 0.64023 0.62491 0.0
C427 C 0.77411 0.62752 0.63203 0.0
O428 O 0.98394 0.64473 0.61614 0.0
O429 O 0.9209 0.64585 0.6356 0.0
O430 O 0.09135 0.60895 0.62415 0.0
O431 O 0.05675 0.60602 0.59999 0.0
H432 H 0.11912 0.61067 0.57643 0.0
H433 H 0.27579 0.62967 0.58081 0.0
H434 H 0.18845 0.61726 0.62374 0.0
O435 O 0.68158 0.38125 0.59616 0.0
Tb436 Tb 0.67541 0.37513 0.62189 0.0
Eu437 Eu 0.51253 0.38694 0.63465 0.0
C438 C 0.71631 0.39361 0.59055 0.0
O439 O 0.74591 0.40313 0.60083 0.0
C440 C 0.60611 0.41044 0.63298 0.0
O441 O 0.52491 0.37988 0.66096 0.0
C442 C 0.41601 0.39163 0.62832 0.0
C443 C 0.51383 0.3623 0.66685 0.0
O444 O 0.49811 0.34828 0.657 0.0
C445 C 0.57801 0.34873 0.62518 0.0
C446 C 0.37226 0.38187 0.62036 0.0
C447 C 0.3709 0.37862 0.60353 0.0
C448 C 0.32666 0.37076 0.5962 0.0
C449 C 0.28416 0.36592 0.60592 0.0
C450 C 0.28496 0.36927 0.62272 0.0
C451 C 0.32934 0.37708 0.62983 0.0
O452 O 0.61566 0.39145 0.6339 0.0
O453 O 0.55781 0.41518 0.63422 0.0
O454 O 0.73941 0.38757 0.63549 0.0
O455 O 0.73982 0.3568 0.62957 0.0
C456 C 0.76472 0.37102 0.63677 0.0
O457 O 0.55248 0.36385 0.61902 0.0
O458 O 0.62872 0.34902 0.62587 0.0
O459 O 0.43294 0.38315 0.64162 0.0
O460 O 0.45265 0.39906 0.61916 0.0
H461 H 0.40362 0.38259 0.59609 0.0
H462 H 0.24903 0.36084 0.60023 0.0
H463 H 0.33005 0.37994 0.64278 0.0
C464 C 0.71185 0.1183 0.13346 0.0
C465 C 0.73025 0.10648 0.12069 0.0
C466 C 0.66132 0.11617 0.13898 0.0
C467 C 0.54691 0.08321 0.13711 0.0
H468 H 0.47062 0.13251 0.13828 0.0
C469 C 0.3329 0.08918 0.12159 0.0
C470 C 0.30351 0.10441 0.12853 0.0
C471 C 0.38472 0.08708 0.12561 0.0
C472 C 0.4913 0.11859 0.13843 0.0
H473 H 0.71152 0.08234 0.10439 0.0
H474 H 0.62345 0.07879 0.11381 0.0
H475 H 0.56361 0.13331 0.13633 0.0
H476 H 0.30352 0.1283 0.14608 0.0
H477 H 0.39394 0.12448 0.15331 0.0
H478 H 0.4742 0.0685 0.13856 0.0
C479 C 0.64783 0.08966 0.11965 0.0
C480 C 0.54476 0.11906 0.13729 0.0
C481 C 0.69808 0.09186 0.11409 0.0
C482 C 0.32558 0.11654 0.14046 0.0
C483 C 0.37739 0.11442 0.14451 0.0
C484 C 0.49336 0.08273 0.13829 0.0
C485 C 0.62849 0.10205 0.13192 0.0
C486 C 0.57304 0.10139 0.13608 0.0
C487 C 0.40804 0.10016 0.13668 0.0
C488 C 0.46484 0.10043 0.13843 0.0
H489 H 0.73587 0.12968 0.13876 0.0
H490 H 0.64759 0.12583 0.14854 0.0
H491 H 0.56776 0.06934 0.13648 0.0
H492 H 0.31663 0.07956 0.11242 0.0
H493 H 0.40716 0.07602 0.11925 0.0
C494 C 0.16613 0.8772 0.14005 0.0
C495 C 0.19314 0.86361 0.13033 0.0
C496 C 0.11224 0.87709 0.14042 0.0
C497 C 0.9984 0.846 0.13155 0.0
H498 H 0.92829 0.89592 0.12442 0.0
C499 C 0.79186 0.84997 0.10699 0.0
C500 C 0.76047 0.86638 0.11048 0.0
C501 C 0.84204 0.84886 0.11292 0.0
C502 C 0.94689 0.88187 0.12679 0.0
H503 H 0.18505 0.83896 0.11371 0.0
H504 H 0.09126 0.83853 0.11456 0.0
H505 H 0.02117 0.89549 0.12806 0.0
H506 H 0.75616 0.89391 0.12388 0.0
H507 H 0.84359 0.89175 0.13473 0.0
H508 H 0.92447 0.8323 0.13023 0.0
C509 C 0.11154 0.84928 0.1219 0.0
C510 C 1.00036 0.88164 0.12881 0.0
C511 C 0.1653 0.84957 0.12136 0.0
C512 C 0.77928 0.88102 0.12105 0.0
C513 C 0.82972 0.8799 0.12705 0.0
C514 C 0.94492 0.84624 0.1297 0.0
C515 C 0.08426 0.8632 0.13126 0.0
C516 C 0.02692 0.86365 0.13084 0.0
C517 C 0.86241 0.8641 0.12263 0.0
C518 C 0.91842 0.86412 0.12688 0.0
H519 H 0.18658 0.88825 0.14704 0.0
H520 H 0.09244 0.88793 0.14783 0.0
H521 H 0.01756 0.83192 0.13337 0.0
H522 H 0.77842 0.83842 0.09891 0.0
H523 H 0.86572 0.83654 0.10905 0.0
C524 C 0.79257 0.91942 0.38112 0.0
C525 C 0.76281 0.90425 0.37424 0.0
C526 C 0.84506 0.92087 0.37769 0.0
C527 C 0.95447 0.88958 0.36513 0.0
H528 H 0.02664 0.93977 0.36406 0.0
C529 C 0.17647 0.89261 0.36353 0.0
C530 C 0.19784 0.90542 0.37511 0.0
C531 C 0.12408 0.89389 0.35963 0.0
C532 C 0.0071 0.92562 0.36434 0.0
H533 H 0.76401 0.87924 0.35781 0.0
H534 H 0.8558 0.88177 0.35171 0.0
H535 H 0.93293 0.93938 0.36418 0.0
H536 H 0.18235 0.93002 0.3912 0.0
H537 H 0.09152 0.93248 0.38434 0.0
H538 H 0.02858 0.87584 0.36573 0.0
C539 C 0.83876 0.89242 0.35994 0.0
C540 C 0.95331 0.92539 0.36444 0.0
C541 C 0.7861 0.89104 0.36333 0.0
C542 C 0.16679 0.92016 0.38206 0.0
C543 C 0.11474 0.92155 0.3781 0.0
C544 C 0.00826 0.88981 0.36499 0.0
C545 C 0.86919 0.90712 0.36733 0.0
C546 C 0.92623 0.90738 0.36522 0.0
C547 C 0.09227 0.90808 0.36719 0.0
C548 C 0.03532 0.90784 0.36498 0.0
H549 H 0.77563 0.92984 0.38957 0.0
H550 H 0.8671 0.93227 0.38375 0.0
H551 H 0.93512 0.87542 0.36594 0.0
H552 H 0.19957 0.88096 0.35819 0.0
H553 H 0.10815 0.8834 0.35107 0.0
C554 C 0.68141 0.14295 0.37197 0.0
C555 C 0.70958 0.127 0.3656 0.0
C556 C 0.62772 0.14309 0.37113 0.0
C557 C 0.51765 0.10903 0.36817 0.0
H558 H 0.44013 0.15745 0.36174 0.0
C559 C 0.29699 0.1098 0.37491 0.0
C560 C 0.27834 0.1251 0.38485 0.0
C561 C 0.34721 0.11057 0.36876 0.0
C562 C 0.46116 0.14379 0.36359 0.0
H563 H 0.70388 0.09893 0.35298 0.0
H564 H 0.61009 0.09918 0.35145 0.0
H565 H 0.53328 0.15773 0.35847 0.0
H566 H 0.29602 0.15377 0.39522 0.0
H567 H 0.38309 0.15517 0.38457 0.0
H568 H 0.4459 0.09521 0.3738 0.0
C569 C 0.62939 0.11151 0.35722 0.0
C570 C 0.51461 0.14396 0.36174 0.0
C571 C 0.68312 0.11142 0.358 0.0
C572 C 0.30947 0.14177 0.38758 0.0
C573 C 0.35937 0.14258 0.3814 0.0
C574 C 0.46422 0.10886 0.37006 0.0
C575 C 0.60094 0.12724 0.36396 0.0
C576 C 0.54367 0.12667 0.36432 0.0
C577 C 0.37957 0.12671 0.37236 0.0
C578 C 0.43534 0.12634 0.36813 0.0
H579 H 0.70081 0.15512 0.37795 0.0
H580 H 0.60712 0.15532 0.37663 0.0
H581 H 0.53877 0.09548 0.37044 0.0
H582 H 0.27395 0.09672 0.37272 0.0
H583 H 0.36127 0.09821 0.36164 0.0
C584 C 0.29667 0.8762 0.87721 0.0
C585 C 0.27414 0.86147 0.88694 0.0
C586 C 0.34793 0.87436 0.87212 0.0
C587 C 0.4663 0.85155 0.88702 0.0
H588 H 0.52629 0.86707 0.84591 0.0
C589 C 0.68296 0.84348 0.87673 0.0
C590 C 0.70841 0.85869 0.8684 0.0
C591 C 0.62935 0.8425 0.87679 0.0
C592 C 0.51021 0.86285 0.85752 0.0
H593 H 0.28573 0.83257 0.89773 0.0
H594 H 0.37449 0.8292 0.88867 0.0
H595 H 0.43279 0.86763 0.84932 0.0
H596 H 0.69797 0.88452 0.85318 0.0
H597 H 0.60409 0.88323 0.85365 0.0
H598 H 0.54283 0.84743 0.89555 0.0
C599 C 0.35323 0.84236 0.88525 0.0
C600 C 0.4566 0.86311 0.85943 0.0
C601 C 0.30229 0.8442 0.89032 0.0
C602 C 0.67926 0.87257 0.85966 0.0
C603 C 0.62542 0.87176 0.85989 0.0
C604 C 0.51957 0.85146 0.88518 0.0
C605 C 0.37738 0.85777 0.8767 0.0
C606 C 0.43406 0.85732 0.87419 0.0
C607 C 0.59968 0.85692 0.86874 0.0
C608 C 0.54245 0.85698 0.87039 0.0
H609 H 0.27598 0.88975 0.87457 0.0
H610 H 0.36544 0.8865 0.86555 0.0
H611 H 0.45034 0.8475 0.8987 0.0
H612 H 0.7045 0.83247 0.88346 0.0
H613 H 0.61118 0.83052 0.88338 0.0
C614 C 0.20823 0.09112 0.8827 0.0
C615 C 0.24015 0.10538 0.87551 0.0
C616 C 0.15649 0.08975 0.87839 0.0
C617 C 0.05132 0.12091 0.86334 0.0
H618 H 0.97639 0.07129 0.86368 0.0
C619 C 0.82884 0.11897 0.86085 0.0
C620 C 0.80595 0.1065 0.87241 0.0
C621 C 0.88163 0.11758 0.85759 0.0
C622 C 0.99667 0.08529 0.86358 0.0
H623 H 0.24374 0.12901 0.85784 0.0
H624 H 0.15275 0.12661 0.85014 0.0
H625 H 0.07005 0.07094 0.86409 0.0
H626 H 0.81954 0.08219 0.88902 0.0
H627 H 0.91112 0.07974 0.88339 0.0
H628 H 0.97794 0.13527 0.86337 0.0
C629 C 0.1678 0.11649 0.85915 0.0
C630 C 0.05043 0.08509 0.86379 0.0
C631 C 0.21993 0.11774 0.8634 0.0
C632 C 0.83619 0.09203 0.88007 0.0
C633 C 0.88871 0.09056 0.87675 0.0
C634 C 0.99751 0.12111 0.86313 0.0
C635 C 0.13517 0.10274 0.86687 0.0
C636 C 0.07847 0.1029 0.86411 0.0
C637 C 0.91243 0.10358 0.86572 0.0
C638 C 0.96945 0.10331 0.86367 0.0
H639 H 0.2229 0.08159 0.8922 0.0
H640 H 0.13259 0.07918 0.88477 0.0
H641 H 0.07152 0.13491 0.86377 0.0
H642 H 0.80639 0.13025 0.85477 0.0
H643 H 0.89848 0.12769 0.84888 0.0
C644 C 0.79887 0.1337 0.61145 0.0
C645 C 0.77344 0.11543 0.61047 0.0
C646 C 0.84928 0.13474 0.61726 0.0
C647 C 0.95487 0.10462 0.63649 0.0
H648 H 0.04167 0.14127 0.61284 0.0
C649 C 0.17545 0.09612 0.62955 0.0
C650 C 0.20566 0.11326 0.63104 0.0
C651 C 0.12181 0.09736 0.62992 0.0
C652 C 0.01788 0.13114 0.61972 0.0
H653 H 0.77984 0.08401 0.61509 0.0
H654 H 0.86826 0.08555 0.62474 0.0
H655 H 0.94945 0.14175 0.60847 0.0
H656 H 0.20364 0.14506 0.63444 0.0
H657 H 0.10964 0.14731 0.63475 0.0
H658 H 0.02442 0.09336 0.64701 0.0
C659 C 0.84922 0.09927 0.62156 0.0
C660 C 0.96473 0.13145 0.6173 0.0
C661 C 0.79842 0.09832 0.61603 0.0
C662 C 0.18126 0.13162 0.63329 0.0
C663 C 0.12753 0.13291 0.6334 0.0
C664 C 0.00822 0.10411 0.63871 0.0
C665 C 0.87598 0.11743 0.62182 0.0
C666 C 0.93232 0.11807 0.62552 0.0
C667 C 0.09722 0.11581 0.63154 0.0
C668 C 0.04033 0.11725 0.63023 0.0
H669 H 0.78037 0.14707 0.60712 0.0
H670 H 0.86779 0.14908 0.61767 0.0
H671 H 0.93142 0.09432 0.6433 0.0
H672 H 0.19328 0.08177 0.62779 0.0
H673 H 0.09954 0.08396 0.62831 0.0
C674 C 0.26935 0.89887 0.63596 0.0
C675 C 0.24769 0.90851 0.62253 0.0
C676 C 0.32096 0.90186 0.63992 0.0
C677 C 0.4364 0.93256 0.63019 0.0
H678 H 0.50869 0.88289 0.6365 0.0
C679 C 0.64421 0.91928 0.60988 0.0
C680 C 0.67604 0.90678 0.61907 0.0
C681 C 0.59325 0.92244 0.61443 0.0
C682 C 0.48919 0.89698 0.63511 0.0
H683 H 0.26157 0.92964 0.60328 0.0
H684 H 0.35157 0.93474 0.60999 0.0
H685 H 0.41551 0.88343 0.63736 0.0
H686 H 0.68025 0.88844 0.64059 0.0
H687 H 0.59075 0.89394 0.64857 0.0
H688 H 0.51048 0.94583 0.62711 0.0
C689 C 0.32899 0.92504 0.61764 0.0
C690 C 0.43562 0.89731 0.63563 0.0
C691 C 0.27744 0.92204 0.61371 0.0
C692 C 0.65653 0.89817 0.63331 0.0
C693 C 0.60531 0.90122 0.63781 0.0
C694 C 0.49005 0.9322 0.6296 0.0
C695 C 0.35184 0.91449 0.63047 0.0
C696 C 0.4085 0.91498 0.6327 0.0
C697 C 0.57287 0.9131 0.62824 0.0
C698 C 0.51694 0.91428 0.63159 0.0
H699 H 0.24696 0.88849 0.64305 0.0
H700 H 0.3371 0.89379 0.65007 0.0
H701 H 0.41672 0.94649 0.62819 0.0
H702 H 0.65846 0.9263 0.59895 0.0
H703 H 0.56918 0.9315 0.60669 0.0
C704 C 0.79214 0.595 0.1405 0.0
C705 C 0.77057 0.58336 0.12817 0.0
C706 C 0.84383 0.59278 0.1447 0.0
C707 C 0.96051 0.56139 0.13785 0.0
H708 H 0.0309 0.6119 0.14036 0.0
C709 C 0.16889 0.57339 0.11748 0.0
C710 C 0.19972 0.58717 0.12572 0.0
C711 C 0.11797 0.57036 0.12212 0.0
C712 C 0.01192 0.59763 0.14005 0.0
H713 H 0.78469 0.55935 0.11132 0.0
H714 H 0.87505 0.5557 0.1183 0.0
H715 H 0.93773 0.61105 0.14078 0.0
H716 H 0.20242 0.60787 0.14576 0.0
H717 H 0.11281 0.60266 0.15389 0.0
H718 H 0.0352 0.54815 0.13624 0.0
C719 C 0.85229 0.56641 0.12494 0.0
C720 C 0.95832 0.59711 0.14031 0.0
C721 C 0.80051 0.56857 0.12084 0.0
C722 C 0.17942 0.59715 0.13923 0.0
C723 C 0.12816 0.59426 0.1438 0.0
C724 C 0.0142 0.56193 0.13749 0.0
C725 C 0.87506 0.57896 0.13654 0.0
C726 C 0.93185 0.57904 0.13878 0.0
C727 C 0.09658 0.58114 0.13505 0.0
C728 C 0.04044 0.58011 0.13816 0.0
H729 H 0.76966 0.60639 0.14646 0.0
H730 H 0.85975 0.60237 0.15394 0.0
H731 H 0.94145 0.54718 0.13696 0.0
H732 H 0.1838 0.56537 0.1071 0.0
H733 H 0.09463 0.56031 0.11502 0.0
C734 C 0.33096 0.38357 0.14402 0.0
C735 C 0.31165 0.39516 0.13128 0.0
C736 C 0.38205 0.38569 0.149 0.0
C737 C 0.49684 0.41792 0.14639 0.0
H738 H 0.57189 0.36846 0.14339 0.0
C739 C 0.71086 0.41416 0.12963 0.0
C740 C 0.73985 0.39758 0.13426 0.0
C741 C 0.65917 0.41565 0.13404 0.0
C742 C 0.5518 0.38241 0.14474 0.0
H743 H 0.32891 0.41889 0.11446 0.0
H744 H 0.41784 0.42277 0.12324 0.0
H745 H 0.47881 0.36808 0.14293 0.0
H746 H 0.73947 0.37051 0.14835 0.0
H747 H 0.64991 0.37348 0.15668 0.0
H748 H 0.56988 0.43231 0.14791 0.0
C749 C 0.39383 0.41203 0.12938 0.0
C750 C 0.49822 0.38215 0.14443 0.0
C751 C 0.34313 0.40971 0.12427 0.0
C752 C 0.71764 0.38333 0.14446 0.0
C753 C 0.66619 0.38497 0.1491 0.0
C754 C 0.55054 0.41817 0.14691 0.0
C755 C 0.41427 0.39966 0.14147 0.0
C756 C 0.47024 0.39993 0.14476 0.0
C757 C 0.63565 0.40071 0.14338 0.0
C758 C 0.5788 0.40045 0.14558 0.0
H759 H 0.30738 0.37222 0.14956 0.0
H760 H 0.39683 0.37602 0.15839 0.0
H761 H 0.47612 0.43183 0.14682 0.0
H762 H 0.72722 0.42539 0.12179 0.0
H763 H 0.63707 0.42793 0.12927 0.0
C764 C 0.66221 0.39492 0.37335 0.0
C765 C 0.67854 0.40656 0.38649 0.0
C766 C 0.6119 0.39657 0.36753 0.0
C767 C 0.49632 0.42848 0.36797 0.0
H768 H 0.42099 0.379 0.36828 0.0
C769 C 0.28158 0.42395 0.38207 0.0
C770 C 0.25291 0.40772 0.37654 0.0
C771 C 0.33342 0.42573 0.378 0.0
C772 C 0.44134 0.39296 0.36765 0.0
H773 H 0.65645 0.42973 0.40329 0.0
H774 H 0.56883 0.43271 0.39311 0.0
H775 H 0.51387 0.37854 0.37079 0.0
H776 H 0.25409 0.38167 0.36121 0.0
H777 H 0.34443 0.385 0.35372 0.0
H778 H 0.42372 0.44296 0.36522 0.0
C779 C 0.59466 0.42231 0.38729 0.0
C780 C 0.49474 0.39266 0.36916 0.0
C781 C 0.64457 0.42046 0.39324 0.0
C782 C 0.27563 0.39421 0.36578 0.0
C783 C 0.32746 0.39605 0.3616 0.0
C784 C 0.44291 0.42878 0.36628 0.0
C785 C 0.57748 0.41013 0.37459 0.0
C786 C 0.52255 0.41044 0.36991 0.0
C787 C 0.35755 0.41137 0.36822 0.0
C788 C 0.41455 0.41105 0.36671 0.0
H789 H 0.68776 0.38408 0.36796 0.0
H790 H 0.59962 0.38703 0.3577 0.0
H791 H 0.51699 0.44239 0.36828 0.0
H792 H 0.26481 0.43467 0.39031 0.0
H793 H 0.35517 0.43767 0.38343 0.0
C794 C 0.20381 0.60418 0.36402 0.0
C795 C 0.23367 0.62075 0.36817 0.0
C796 C 0.15011 0.6054 0.36393 0.0
C797 C 0.04586 0.63401 0.38293 0.0
H798 H 0.95842 0.60639 0.35233 0.0
C799 C 0.8276 0.63757 0.39013 0.0
C800 C 0.80112 0.61956 0.38864 0.0
C801 C 0.87808 0.63935 0.38457 0.0
C802 C 0.98228 0.6141 0.36103 0.0
H803 H 0.23103 0.65178 0.37477 0.0
H804 H 0.13741 0.65402 0.37446 0.0
H805 H 0.05155 0.60637 0.34839 0.0
H806 H 0.80555 0.58958 0.37947 0.0
H807 H 0.89423 0.59248 0.36996 0.0
H808 H 0.97743 0.64127 0.39589 0.0
C809 C 0.15531 0.63998 0.37151 0.0
C810 C 0.03568 0.6141 0.35876 0.0
C811 C 0.20896 0.63876 0.37159 0.0
C812 C 0.82497 0.6037 0.38058 0.0
C813 C 0.87584 0.60539 0.37516 0.0
C814 C 0.99272 0.63395 0.38523 0.0
C815 C 0.12515 0.62322 0.36803 0.0
C816 C 0.06815 0.62398 0.36975 0.0
C817 C 0.90367 0.62304 0.37762 0.0
C818 C 0.9601 0.62394 0.37438 0.0
H819 H 0.22189 0.59008 0.36138 0.0
H820 H 0.12817 0.59215 0.36133 0.0
H821 H 0.06964 0.64142 0.39184 0.0
H822 H 0.80994 0.65003 0.39628 0.0
H823 H 0.8977 0.65333 0.38628 0.0
C824 C 0.21629 0.41898 0.88659 0.0
C825 C 0.24776 0.40485 0.87904 0.0
C826 C 0.16468 0.42077 0.88224 0.0
C827 C 0.06106 0.38992 0.8657 0.0
H828 H 0.98244 0.43842 0.87022 0.0
C829 C 0.83942 0.3893 0.86649 0.0
C830 C 0.81898 0.39896 0.88014 0.0
C831 C 0.89079 0.39226 0.86206 0.0
C832 C 1.00392 0.42477 0.86883 0.0
H833 H 0.25125 0.3824 0.8603 0.0
H834 H 0.16111 0.38568 0.85246 0.0
H835 H 0.07612 0.43987 0.86975 0.0
H836 H 0.83481 0.42016 0.89922 0.0
H837 H 0.92409 0.42538 0.89151 0.0
H838 H 0.98892 0.37479 0.86528 0.0
C839 C 0.17595 0.39515 0.86198 0.0
C840 C 0.05757 0.42558 0.86861 0.0
C841 C 0.22762 0.39334 0.86638 0.0
C842 C 0.84983 0.4124 0.88872 0.0
C843 C 0.9008 0.41553 0.8842 0.0
C844 C 0.00744 0.38913 0.86582 0.0
C845 C 0.14343 0.40846 0.8702 0.0
C846 C 0.08684 0.4081 0.86758 0.0
C847 C 0.92226 0.40515 0.87106 0.0
C848 C 0.97833 0.40647 0.86793 0.0
H849 H 0.23084 0.42793 0.89647 0.0
H850 H 0.14084 0.43103 0.88899 0.0
H851 H 0.08219 0.37612 0.86509 0.0
H852 H 0.81637 0.37884 0.8597 0.0
H853 H 0.90625 0.38415 0.85182 0.0
C854 C 0.29047 0.56262 0.88344 0.0
C855 C 0.26053 0.57717 0.87579 0.0
C856 C 0.34263 0.56066 0.87967 0.0
C857 C 0.44844 0.59173 0.86419 0.0
H858 H 0.52765 0.54353 0.86956 0.0
C859 C 0.66966 0.59324 0.86418 0.0
C860 C 0.69138 0.58394 0.87779 0.0
C861 C 0.61818 0.58987 0.8601 0.0
C862 C 0.506 0.5571 0.86796 0.0
H863 H 0.26006 0.59981 0.85718 0.0
H864 H 0.35057 0.59603 0.85021 0.0
H865 H 0.43395 0.54185 0.86886 0.0
H866 H 0.67763 0.56284 0.89711 0.0
H867 H 0.58809 0.55693 0.89001 0.0
H868 H 0.52031 0.60702 0.86367 0.0
C869 C 0.33449 0.58656 0.85952 0.0
C870 C 0.4523 0.55616 0.86762 0.0
C871 C 0.28249 0.58863 0.8634 0.0
C872 C 0.66167 0.57034 0.88664 0.0
C873 C 0.61051 0.56683 0.88248 0.0
C874 C 0.50202 0.59264 0.86441 0.0
C875 C 0.36576 0.57312 0.86806 0.0
C876 C 0.42275 0.57353 0.86614 0.0
C877 C 0.58773 0.57695 0.86944 0.0
C878 C 0.53142 0.57541 0.86672 0.0
H879 H 0.27434 0.5535 0.89297 0.0
H880 H 0.36532 0.55019 0.88657 0.0
H881 H 0.42724 0.60549 0.86332 0.0
H882 H 0.69171 0.60383 0.85719 0.0
H883 H 0.6018 0.59776 0.8499 0.0
C884 C 0.6928 0.64671 0.62824 0.0
C885 C 0.71762 0.62937 0.63343 0.0
C886 C 0.63914 0.64782 0.62799 0.0
C887 C 0.5191 0.6234 0.64258 0.0
H888 H 0.46131 0.64734 0.60396 0.0
C889 C 0.30717 0.61274 0.62149 0.0
C890 C 0.28411 0.62825 0.61277 0.0
C891 C 0.35822 0.61437 0.62678 0.0
C892 C 0.47651 0.64093 0.61499 0.0
H893 H 0.70588 0.59979 0.64291 0.0
H894 H 0.61209 0.60159 0.6423 0.0
H895 H 0.55356 0.64732 0.60782 0.0
H896 H 0.29464 0.65808 0.60379 0.0
H897 H 0.38271 0.66127 0.6135 0.0
H898 H 0.44157 0.61669 0.64953 0.0
C899 C 0.63397 0.61446 0.6386 0.0
C900 C 0.52969 0.6409 0.61721 0.0
C901 C 0.68774 0.61338 0.6389 0.0
C902 C 0.31159 0.64592 0.6105 0.0
C903 C 0.36226 0.64762 0.61589 0.0
C904 C 0.46564 0.62344 0.64036 0.0
C905 C 0.60893 0.63156 0.63284 0.0
C906 C 0.55185 0.63211 0.63099 0.0
C907 C 0.38705 0.63157 0.62348 0.0
C908 C 0.44364 0.63219 0.6265 0.0
H909 H 0.71485 0.6593 0.62403 0.0
H910 H 0.62129 0.66137 0.62377 0.0
H911 H 0.53474 0.61665 0.65342 0.0
H912 H 0.28703 0.59886 0.62319 0.0
H913 H 0.37599 0.60167 0.63253 0.0
C914 C 0.22165 0.38185 0.64311 0.0
C915 C 0.23744 0.36681 0.6324 0.0
C916 C 0.17322 0.38116 0.65031 0.0
C917 C 0.05807 0.34992 0.65707 0.0
H918 H 0.98464 0.3983 0.6468 0.0
C919 C 0.84462 0.35168 0.64135 0.0
C920 C 0.81637 0.36912 0.64371 0.0
C921 C 0.89621 0.35081 0.64583 0.0
C922 C 1.00444 0.38483 0.65024 0.0
H923 H 0.21663 0.33853 0.62184 0.0
H924 H 0.13152 0.33748 0.63421 0.0
H925 H 0.07719 0.39746 0.64441 0.0
H926 H 0.81792 0.39877 0.65377 0.0
H927 H 0.90783 0.39712 0.66205 0.0
H928 H 0.98479 0.33711 0.66236 0.0
C929 C 0.15674 0.34972 0.63713 0.0
C930 C 0.05771 0.38435 0.64882 0.0
C931 C 0.20518 0.35043 0.62989 0.0
C932 C 0.83926 0.38522 0.65165 0.0
C933 C 0.89073 0.38428 0.65632 0.0
C934 C 0.00464 0.35044 0.65864 0.0
C935 C 0.13964 0.36543 0.64696 0.0
C936 C 0.08488 0.36671 0.65166 0.0
C937 C 0.92033 0.36732 0.65291 0.0
C938 C 0.97707 0.36771 0.65463 0.0
H939 H 0.24546 0.39474 0.6452 0.0
H940 H 0.16113 0.39338 0.65794 0.0
H941 H 0.07822 0.3362 0.65952 0.0
H942 H 0.82767 0.33904 0.63527 0.0
H943 H 0.91781 0.33759 0.64281 0.0
C944 C 0.22577 0.13551 0.05029 0.0
C945 C 0.18838 0.12098 0.05341 0.0
C946 C 0.24836 0.13704 0.03494 0.0
C947 C 0.27281 0.10734 0.99813 0.0
H948 H 0.29988 0.15809 0.97784 0.0
C949 C 0.36702 0.11074 0.9354 0.0
C950 C 0.34081 0.12278 0.92424 0.0
C951 C 0.35758 0.11263 0.95204 0.0
C952 C 0.29267 0.1438 0.98336 0.0
H953 H 0.14408 0.09713 0.0427 0.0
H954 H 0.18285 0.1 0.01591 0.0
H955 H 0.26105 0.15699 0.00481 0.0
H956 H 0.28787 0.14738 0.92177 0.0
H957 H 0.27086 0.15052 0.95069 0.0
H958 H 0.30242 0.09409 0.97653 0.0
C959 C 0.19552 0.10995 0.02541 0.0
C960 C 0.27074 0.14318 0.99886 0.0
C961 C 0.17296 0.10842 0.04073 0.0
C962 C 0.30821 0.13777 0.93011 0.0
C963 C 0.29876 0.13965 0.94671 0.0
C964 C 0.2947 0.10796 0.98268 0.0
C965 C 0.23407 0.12407 0.02239 0.0
C966 C 0.25976 0.12491 0.0063 0.0
C967 C 0.3218 0.12659 0.95782 0.0
C968 C 0.30424 0.12619 0.97499 0.0
H969 H 0.23858 0.14541 0.0598 0.0
H970 H 0.27811 0.148 0.03304 0.0
H971 H 0.2657 0.09303 0.00363 0.0
H972 H 0.39222 0.09902 0.93123 0.0
H973 H 0.37668 0.10259 0.96032 0.0
C974 C 0.3383 0.87321 0.06297 0.0
C975 C 0.31921 0.88863 0.07271 0.0
C976 C 0.32426 0.87183 0.04662 0.0
C977 C 0.22159 0.88805 0.01843 0.0
H978 H 0.3145 0.868 0.98554 0.0
C979 C 0.17521 0.88711 0.94941 0.0
C980 C 0.19158 0.87044 0.94057 0.0
C981 C 0.18834 0.88923 0.9658 0.0
C982 C 0.28792 0.87343 0.99463 0.0
H983 H 0.27282 0.91533 0.07272 0.0
H984 H 0.24947 0.91322 0.04416 0.0
H985 H 0.34552 0.87299 0.01312 0.0
H986 H 0.23144 0.8423 0.94229 0.0
H987 H 0.25432 0.84601 0.97081 0.0
H988 H 0.16416 0.88866 0.99981 0.0
C989 C 0.27407 0.90185 0.04922 0.0
C990 C 0.30572 0.8763 0.01045 0.0
C991 C 0.28785 0.90316 0.06557 0.0
C992 C 0.21898 0.85547 0.9487 0.0
C993 C 0.23227 0.85763 0.96501 0.0
C994 C 0.20388 0.88529 0.00257 0.0
C995 C 0.29109 0.88591 0.03962 0.0
C996 C 0.27274 0.88355 0.0226 0.0
C997 C 0.21823 0.87475 0.97364 0.0
C998 C 0.23675 0.87782 0.99052 0.0
H999 H 0.36236 0.86172 0.0681 0.0
H1000 H 0.33781 0.85925 0.03967 0.0
H1001 H 0.1948 0.89333 0.02751 0.0
H1002 H 0.15455 0.89901 0.94348 0.0
H1003 H 0.17709 0.90263 0.97211 0.0
C1004 C 0.65639 0.89106 0.45154 0.0
C1005 C 0.67908 0.87828 0.44013 0.0
C1006 C 0.6741 0.89155 0.46757 0.0
C1007 C 0.74662 0.86252 0.49794 0.0
H1008 H 0.76027 0.91332 0.51949 0.0
C1009 C 0.76063 0.8716 0.56726 0.0
C1010 C 0.79047 0.88705 0.57365 0.0
C1011 C 0.75582 0.86916 0.55052 0.0
C1012 C 0.75743 0.89902 0.51358 0.0
H1013 H 0.73758 0.85573 0.43673 0.0
H1014 H 0.76828 0.8566 0.46462 0.0
H1015 H 0.73214 0.91207 0.49129 0.0
H1016 H 0.84085 0.91145 0.56768 0.0
H1017 H 0.83278 0.90715 0.53821 0.0
H1018 H 0.77165 0.84948 0.52027 0.0
C1019 C 0.73667 0.86618 0.46122 0.0
C1020 C 0.74054 0.89829 0.49748 0.0
C1021 C 0.71912 0.86573 0.4452 0.0
C1022 C 0.81798 0.89932 0.56301 0.0
C1023 C 0.81283 0.89699 0.54619 0.0
C1024 C 0.76329 0.86325 0.51406 0.0
C1025 C 0.71474 0.87922 0.47257 0.0
C1026 C 0.73433 0.88002 0.48953 0.0
C1027 C 0.78044 0.88224 0.53977 0.0
C1028 C 0.76832 0.8815 0.52214 0.0
H1029 H 0.62549 0.90092 0.44804 0.0
H1030 H 0.65582 0.90156 0.47607 0.0
H1031 H 0.74206 0.84819 0.4922 0.0
H1032 H 0.73885 0.86202 0.57526 0.0
H1033 H 0.73028 0.85775 0.54603 0.0
C1034 C 0.84885 0.11625 0.43466 0.0
C1035 C 0.82997 0.1013 0.4244 0.0
C1036 C 0.83309 0.11729 0.45088 0.0
C1037 C 0.77293 0.08858 0.48411 0.0
H1038 H 0.73237 0.14032 0.50009 0.0
C1039 C 0.67484 0.09766 0.54649 0.0
C1040 C 0.69244 0.11334 0.55624 0.0
C1041 C 0.68844 0.09658 0.53008 0.0
C1042 C 0.74397 0.12578 0.4959 0.0
H1043 H 0.78164 0.07517 0.42336 0.0
H1044 H 0.75451 0.07692 0.45163 0.0
H1045 H 0.76652 0.13704 0.47268 0.0
H1046 H 0.73554 0.1408 0.55611 0.0
H1047 H 0.75997 0.13878 0.52766 0.0
H1048 H 0.75099 0.07732 0.50736 0.0
C1049 C 0.78141 0.08786 0.44716 0.0
C1050 C 0.76367 0.12391 0.48018 0.0
C1051 C 0.79689 0.08689 0.43093 0.0
C1052 C 0.72176 0.12842 0.54898 0.0
C1053 C 0.73545 0.12733 0.5326 0.0
C1054 C 0.75346 0.09045 0.49987 0.0
C1055 C 0.79842 0.10332 0.45724 0.0
C1056 C 0.77847 0.1053 0.4741 0.0
C1057 C 0.71998 0.11116 0.52301 0.0
C1058 C 0.73876 0.10909 0.50599 0.0
H1059 H 0.87439 0.12758 0.43004 0.0
H1060 H 0.84756 0.1292 0.4584 0.0
H1061 H 0.78444 0.07405 0.47986 0.0
H1062 H 0.65255 0.08571 0.55171 0.0
H1063 H 0.67503 0.08411 0.52299 0.0
C1064 C 0.79517 0.9016 0.93187 0.0
C1065 C 0.82772 0.887 0.92532 0.0
C1066 C 0.77869 0.90046 0.94799 0.0
C1067 C 0.75631 0.8638 0.9802 0.0
H1068 H 0.74436 0.90974 0.00819 0.0
C1069 C 0.71032 0.85753 0.04853 0.0
C1070 C 0.68152 0.87261 0.05603 0.0
C1071 C 0.72482 0.85908 0.03226 0.0
C1072 C 0.74661 0.8968 1.00045 0.0
H1073 H 0.87029 0.86021 0.93082 0.0
H1074 H 0.84168 0.85827 0.95901 0.0
H1075 H 0.78004 0.91344 0.98099 0.0
H1076 H 0.64332 0.90072 0.05204 0.0
H1077 H 0.66736 0.90318 0.02345 0.0
H1078 H 0.72255 0.84716 0.99954 0.0
C1079 C 0.82841 0.87047 0.95158 0.0
C1080 C 0.76736 0.89891 0.98488 0.0
C1081 C 0.8452 0.8717 0.93547 0.0
C1082 C 0.66523 0.88879 0.04661 0.0
C1083 C 0.6797 0.89033 0.03028 0.0
C1084 C 0.73531 0.86169 0.99573 0.0
C1085 C 0.79412 0.88462 0.95793 0.0
C1086 C 0.77274 0.88242 0.9746 0.0
C1087 C 0.71071 0.87571 0.023 0.0
C1088 C 0.73043 0.87814 0.00611 0.0
H1089 H 0.78104 0.91362 0.92439 0.0
H1090 H 0.75215 0.91155 0.95246 0.0
H1091 H 0.75893 0.85085 0.97247 0.0
H1092 H 0.72311 0.84479 0.05542 0.0
H1093 H 0.74896 0.84758 0.02717 0.0
C1094 C 0.67838 0.09786 0.95436 0.0
C1095 C 0.68227 0.11361 0.94328 0.0
C1096 C 0.70289 0.09879 0.96942 0.0
C1097 C 0.75717 0.13275 0.99975 0.0
H1098 H 0.82915 0.08562 0.0142 0.0
C1099 C 0.85277 0.12937 0.06303 0.0
C1100 C 0.84038 0.11225 0.07186 0.0
C1101 C 0.84362 0.13017 0.04626 0.0
C1102 C 0.80912 0.0989 0.01039 0.0
H1103 H 0.71373 0.14302 0.93961 0.0
H1104 H 0.75605 0.14473 0.96608 0.0
H1105 H 0.78976 0.08621 0.9874 0.0
H1106 H 0.81148 0.08229 0.07017 0.0
H1107 H 0.7958 0.08352 0.04111 0.0
H1108 H 0.77499 0.1452 0.02297 0.0
C1109 C 0.73414 0.13162 0.96302 0.0
C1110 C 0.78646 0.09922 0.99503 0.0
C1111 C 0.70989 0.13063 0.94786 0.0
C1112 C 0.82184 0.09558 0.06356 0.0
C1113 C 0.81293 0.09632 0.04688 0.0
C1114 C 0.7796 0.13239 0.01519 0.0
C1115 C 0.73167 0.11554 0.97385 0.0
C1116 C 0.75926 0.11597 0.98966 0.0
C1117 C 0.82213 0.11381 0.03808 0.0
C1118 C 0.80489 0.11529 0.02086 0.0
H1119 H 0.65738 0.08453 0.95128 0.0
H1120 H 0.69942 0.0863 0.9776 0.0
H1121 H 0.73634 0.14586 0.99598 0.0
H1122 H 0.86652 0.14248 0.06924 0.0
H1123 H 0.85174 0.14379 0.03982 0.0
C1124 C 0.23368 0.13432 0.44664 0.0
C1125 C 0.19888 0.12098 0.43953 0.0
C1126 C 0.24772 0.13251 0.46291 0.0
C1127 C 0.24565 0.09575 0.49692 0.0
H1128 H 0.30101 0.14048 0.52052 0.0
C1129 C 0.3468 0.08456 0.5587 0.0
C1130 C 0.34398 0.09987 0.57016 0.0
C1131 C 0.32932 0.08757 0.54281 0.0
C1132 C 0.28494 0.12778 0.51434 0.0
H1133 H 0.14852 0.09612 0.44452 0.0
H1134 H 0.16966 0.09398 0.47317 0.0
H1135 H 0.26322 0.14568 0.4942 0.0
H1136 H 0.32002 0.13024 0.57414 0.0
H1137 H 0.28687 0.13516 0.54704 0.0
H1138 H 0.26386 0.07811 0.51761 0.0
C1139 C 0.18847 0.10522 0.46595 0.0
C1140 C 0.26401 0.13074 0.49892 0.0
C1141 C 0.1754 0.10672 0.44951 0.0
C1142 C 0.32357 0.11825 0.56547 0.0
C1143 C 0.30471 0.12108 0.54979 0.0
C1144 C 0.2652 0.09289 0.51255 0.0
C1145 C 0.22613 0.11768 0.47279 0.0
C1146 C 0.24472 0.11474 0.48982 0.0
C1147 C 0.3071 0.1058 0.53817 0.0
C1148 C 0.28574 0.10882 0.52147 0.0
H1149 H 0.25166 0.14585 0.43949 0.0
H1150 H 0.27716 0.14234 0.46744 0.0
H1151 H 0.23213 0.08291 0.49034 0.0
H1152 H 0.36245 0.07025 0.56201 0.0
H1153 H 0.33325 0.07553 0.53423 0.0
C1154 C 0.2634 0.87293 0.42953 0.0
C1155 C 0.29836 0.88707 0.42367 0.0
C1156 C 0.25359 0.87128 0.44612 0.0
C1157 C 0.25756 0.90295 0.48243 0.0
H1158 H 0.20404 0.85579 0.50324 0.0
C1159 C 0.13191 0.90855 0.53942 0.0
C1160 C 0.13789 0.89421 0.55161 0.0
C1161 C 0.1558 0.90617 0.52437 0.0
C1162 C 0.21943 0.86908 0.49773 0.0
H1163 H 0.35418 0.90924 0.43072 0.0
H1164 H 0.33868 0.90582 0.4598 0.0
H1165 H 0.2454 0.85312 0.47683 0.0
H1166 H 0.17289 0.86593 0.55747 0.0
H1167 H 0.21547 0.86197 0.53134 0.0
H1168 H 0.23264 0.91885 0.5034 0.0
C1169 C 0.31745 0.89645 0.45151 0.0
C1170 C 0.24274 0.86758 0.48248 0.0
C1171 C 0.32696 0.89822 0.43486 0.0
C1172 C 0.16724 0.8772 0.54829 0.0
C1173 C 0.19162 0.87491 0.53328 0.0
C1174 C 0.23476 0.90441 0.49771 0.0
C1175 C 0.27897 0.8836 0.45729 0.0
C1176 C 0.26107 0.88457 0.47446 0.0
C1177 C 0.1868 0.88951 0.52119 0.0
C1178 C 0.21427 0.88759 0.50541 0.0
H1179 H 0.24135 0.8639 0.4212 0.0
H1180 H 0.22359 0.86125 0.45001 0.0
H1181 H 0.27056 0.91643 0.47662 0.0
H1182 H 0.10926 0.92176 0.54157 0.0
H1183 H 0.15004 0.91747 0.51523 0.0
C1184 C 0.69752 0.61319 0.05082 0.0
C1185 C 0.67159 0.59551 0.05456 0.0
C1186 C 0.72032 0.61582 0.03559 0.0
C1187 C 0.76413 0.58727 0.99939 0.0
H1188 H 0.75797 0.63833 0.978 0.0
C1189 C 0.83616 0.59554 0.93387 0.0
C1190 C 0.8015 0.60544 0.92366 0.0
C1191 C 0.8314 0.59713 0.95077 0.0
C1192 C 0.76006 0.62395 0.98379 0.0
H1193 H 0.64803 0.56697 0.0451 0.0
H1194 H 0.68604 0.57178 0.01844 0.0
H1195 H 0.72404 0.63481 0.00536 0.0
H1196 H 0.73802 0.62618 0.92296 0.0
H1197 H 0.72895 0.62867 0.95217 0.0
H1198 H 0.79713 0.57609 0.97749 0.0
C1199 C 0.69032 0.58341 0.02739 0.0
C1200 C 0.74104 0.62198 0.99958 0.0
C1201 C 0.66799 0.58072 0.04264 0.0
C1202 C 0.76492 0.61821 0.93058 0.0
C1203 C 0.76004 0.61975 0.94738 0.0
C1204 C 0.78269 0.58919 0.98355 0.0
C1205 C 0.71736 0.60089 0.0237 0.0
C1206 C 0.7417 0.60349 0.00745 0.0
C1207 C 0.7919 0.60865 0.95772 0.0
C1208 C 0.77981 0.60745 0.97539 0.0
H1209 H 0.70132 0.62483 0.05978 0.0
H1210 H 0.74118 0.6294 0.03327 0.0
H1211 H 0.76648 0.5729 0.00518 0.0
H1212 H 0.86472 0.5856 0.92885 0.0
H1213 H 0.85731 0.58868 0.95837 0.0
C1214 C 0.73598 0.36543 0.93326 0.0
C1215 C 0.70712 0.38091 0.92651 0.0
C1216 C 0.74129 0.36382 0.95004 0.0
C1217 C 0.69621 0.38375 0.98976 0.0
H1218 H 0.83818 0.37475 0.00197 0.0
C1219 C 0.77895 0.40583 0.05219 0.0
C1220 C 0.81307 0.39254 0.05969 0.0
C1221 C 0.76195 0.40247 0.03636 0.0
C1222 C 0.79822 0.377 0.99882 0.0
H1223 H 0.65864 0.40614 0.93178 0.0
H1224 H 0.66862 0.40367 0.9612 0.0
H1225 H 0.81283 0.37142 0.97377 0.0
H1226 H 0.85598 0.36525 0.05647 0.0
H1227 H 0.82644 0.35944 0.0288 0.0
H1228 H 0.68229 0.38994 0.01489 0.0
C1229 C 0.68651 0.39253 0.95361 0.0
C1230 C 0.78356 0.37502 0.98263 0.0
C1231 C 0.68072 0.39398 0.93678 0.0
C1232 C 0.82989 0.37582 0.05101 0.0
C1233 C 0.81305 0.37251 0.03515 0.0
C1234 C 0.71099 0.38582 0.00599 0.0
C1235 C 0.7185 0.37788 0.96039 0.0
C1236 C 0.73247 0.3785 0.97787 0.0
C1237 C 0.77888 0.38579 0.02766 0.0
C1238 C 0.76228 0.38263 0.01065 0.0
H1239 H 0.75643 0.35512 0.92551 0.0
H1240 H 0.76509 0.35206 0.95488 0.0
H1241 H 0.65647 0.38634 0.98653 0.0
H1242 H 0.76518 0.41884 0.05855 0.0
H1243 H 0.73622 0.41312 0.03083 0.0
C1244 C 0.2047 0.40912 0.45921 0.0
C1245 C 0.17553 0.39536 0.45036 0.0
C1246 C 0.22581 0.40396 0.47418 0.0
C1247 C 0.21038 0.36988 0.50833 0.0
H1248 H 0.3494 0.38612 0.5187 0.0
C1249 C 0.29787 0.35349 0.57085 0.0
C1250 C 0.32197 0.36973 0.5783 0.0
C1251 C 0.28629 0.35393 0.55431 0.0
C1252 C 0.31048 0.38154 0.51601 0.0
H1253 H 0.14511 0.36544 0.45036 0.0
H1254 H 0.18176 0.35649 0.47664 0.0
H1255 H 0.31499 0.39243 0.49166 0.0
H1256 H 0.3546 0.39884 0.57415 0.0
H1257 H 0.33431 0.39966 0.54538 0.0
H1258 H 0.20513 0.35956 0.53278 0.0
C1259 C 0.18821 0.37127 0.47195 0.0
C1260 C 0.29079 0.38516 0.50054 0.0
C1261 C 0.16731 0.37639 0.4569 0.0
C1262 C 0.33665 0.38598 0.56872 0.0
C1263 C 0.32496 0.38644 0.55221 0.0
C1264 C 0.22998 0.36633 0.52382 0.0
C1265 C 0.218 0.38496 0.48067 0.0
C1266 C 0.24024 0.37968 0.49664 0.0
C1267 C 0.29845 0.37065 0.5449 0.0
C1268 C 0.27996 0.37242 0.52793 0.0
H1269 H 0.21177 0.42386 0.45452 0.0
H1270 H 0.24788 0.41493 0.48075 0.0
H1271 H 0.17113 0.36566 0.50571 0.0
H1272 H 0.28668 0.34067 0.57792 0.0
H1273 H 0.2667 0.34137 0.54897 0.0
C1274 C 0.23342 0.63439 0.55061 0.0
C1275 C 0.20502 0.61966 0.55868 0.0
C1276 C 0.24836 0.63186 0.53446 0.0
C1277 C 0.22431 0.60311 0.49704 0.0
H1278 H 0.36697 0.61526 0.48788 0.0
C1279 C 0.31703 0.5829 0.43558 0.0
C1280 C 0.34951 0.59711 0.42851 0.0
C1281 C 0.30064 0.58492 0.45166 0.0
C1282 C 0.3269 0.61199 0.49014 0.0
H1283 H 0.16794 0.59114 0.5558 0.0
H1284 H 0.19342 0.58684 0.52747 0.0
H1285 H 0.33258 0.62113 0.51494 0.0
H1286 H 0.39167 0.62425 0.433 0.0
H1287 H 0.36266 0.62794 0.46092 0.0
H1288 H 0.2184 0.59418 0.47221 0.0
C1289 C 0.20414 0.60036 0.53369 0.0
C1290 C 0.30715 0.61537 0.50568 0.0
C1291 C 0.18932 0.60286 0.5499 0.0
C1292 C 0.36683 0.61298 0.43808 0.0
C1293 C 0.35022 0.61507 0.45414 0.0
C1294 C 0.24399 0.59983 0.48146 0.0
C1295 C 0.23507 0.61458 0.52593 0.0
C1296 C 0.25559 0.61104 0.50931 0.0
C1297 C 0.31613 0.60126 0.46106 0.0
C1298 C 0.29556 0.60426 0.47779 0.0
H1299 H 0.24546 0.64765 0.55696 0.0
H1300 H 0.27116 0.6433 0.52873 0.0
H1301 H 0.18433 0.59978 0.49941 0.0
H1302 H 0.30322 0.57041 0.42858 0.0
H1303 H 0.27534 0.57377 0.45668 0.0
C1304 C 0.17366 0.39035 0.07254 0.0
C1305 C 0.20692 0.37957 0.08263 0.0
C1306 C 0.17978 0.38975 0.05565 0.0
C1307 C 0.252 0.36406 0.02227 0.0
H1308 H 0.24814 0.41599 0.00228 0.0
C1309 C 0.31813 0.37678 0.95599 0.0
C1310 C 0.34431 0.39451 0.95265 0.0
C1311 C 0.29447 0.37384 0.97104 0.0
C1312 C 0.24985 0.40139 0.00769 0.0
H1313 H 0.26935 0.35834 0.08299 0.0
H1314 H 0.28095 0.35763 0.05383 0.0
H1315 H 0.21626 0.41181 0.02975 0.0
H1316 H 0.36733 0.42286 0.9626 0.0
H1317 H 0.32806 0.41746 0.98902 0.0
H1318 H 0.28874 0.35391 1.00062 0.0
C1319 C 0.24989 0.36648 0.05871 0.0
C1320 C 0.23056 0.3989 0.02339 0.0
C1321 C 0.2436 0.36702 0.0755 0.0
C1322 C 0.34722 0.40907 0.96477 0.0
C1323 C 0.32416 0.40604 0.97988 0.0
C1324 C 0.27186 0.36659 0.00665 0.0
C1325 C 0.21928 0.37836 0.04857 0.0
C1326 C 0.23243 0.38029 0.03104 0.0
C1327 C 0.29696 0.38847 0.98317 0.0
C1328 C 0.27208 0.38539 0.99928 0.0
H1329 H 0.14502 0.40014 0.07772 0.0
H1330 H 0.15481 0.39878 0.04819 0.0
H1331 H 0.25329 0.34943 0.02764 0.0
H1332 H 0.31475 0.36533 0.94684 0.0
H1333 H 0.27341 0.36023 0.97301 0.0
C1334 C 0.19162 0.60858 0.95214 0.0
C1335 C 0.16558 0.5908 0.94885 0.0
C1336 C 0.21556 0.61157 0.96714 0.0
C1337 C 0.26133 0.58394 0.00368 0.0
H1338 H 0.25995 0.63594 0.02358 0.0
C1339 C 0.34015 0.59451 0.06824 0.0
C1340 C 0.30772 0.6055 0.07846 0.0
C1341 C 0.3336 0.59524 0.05136 0.0
C1342 C 0.26065 0.62129 0.01823 0.0
H1343 H 0.14297 0.56245 0.9589 0.0
H1344 H 0.18266 0.56793 0.98522 0.0
H1345 H 0.22317 0.63152 0.99674 0.0
H1346 H 0.24647 0.62721 0.07909 0.0
H1347 H 0.23421 0.6282 0.04996 0.0
H1348 H 0.29568 0.57344 0.02557 0.0
C1349 C 0.18631 0.57935 0.97607 0.0
C1350 C 0.24002 0.61879 0.0027 0.0
C1351 C 0.16298 0.57627 0.96101 0.0
C1352 C 0.2717 0.61844 0.07148 0.0
C1353 C 0.26497 0.6191 0.0547 0.0
C1354 C 0.28138 0.58639 0.01928 0.0
C1355 C 0.21353 0.59694 0.9793 0.0
C1356 C 0.23906 0.59998 0.99533 0.0
C1357 C 0.29446 0.60694 0.04442 0.0
C1358 C 0.28032 0.60502 0.02693 0.0
H1359 H 0.19475 0.62001 0.94297 0.0
H1360 H 0.23658 0.62521 0.96905 0.0
H1361 H 0.26255 0.56932 0.99828 0.0
H1362 H 0.36821 0.58441 0.07331 0.0
H1363 H 0.35782 0.58601 0.04381 0.0
C1364 C 0.86128 0.61918 0.56551 0.0
C1365 C 0.84404 0.60353 0.57534 0.0
C1366 C 0.84703 0.6202 0.54915 0.0
C1367 C 0.74645 0.6021 0.52102 0.0
H1368 H 0.83852 0.6219 0.48784 0.0
C1369 C 0.70166 0.5988 0.45207 0.0
C1370 C 0.71759 0.61489 0.44249 0.0
C1371 C 0.71441 0.59792 0.46855 0.0
C1372 C 0.81211 0.61657 0.497 0.0
H1373 H 0.80054 0.57614 0.5755 0.0
H1374 H 0.77673 0.57768 0.54696 0.0
H1375 H 0.8691 0.61849 0.51563 0.0
H1376 H 0.75634 0.6433 0.44296 0.0
H1377 H 0.77837 0.64181 0.47169 0.0
H1378 H 0.68961 0.60002 0.50231 0.0
C1379 C 0.80011 0.58946 0.55195 0.0
C1380 C 0.82968 0.61459 0.51294 0.0
C1381 C 0.81416 0.58849 0.56829 0.0
C1382 C 0.74419 0.63056 0.44996 0.0
C1383 C 0.75702 0.62966 0.46639 0.0
C1384 C 0.72894 0.604 0.50506 0.0
C1385 C 0.81541 0.60555 0.54225 0.0
C1386 C 0.79709 0.60734 0.52518 0.0
C1387 C 0.74342 0.61311 0.4758 0.0
C1388 C 0.76152 0.61131 0.49286 0.0
H1389 H 0.88418 0.63105 0.57057 0.0
H1390 H 0.85926 0.63288 0.5421 0.0
H1391 H 0.71994 0.59681 0.53017 0.0
H1392 H 0.68167 0.58638 0.44666 0.0
H1393 H 0.70357 0.58491 0.47544 0.0
C1394 C 0.76241 0.40823 0.5666 0.0
C1395 C 0.72435 0.39557 0.57283 0.0
C1396 C 0.77157 0.4092 0.54988 0.0
C1397 C 0.71176 0.39744 0.51024 0.0
H1398 H 0.85163 0.3985 0.49405 0.0
C1399 C 0.75425 0.38322 0.44332 0.0
C1400 C 0.78723 0.39662 0.43548 0.0
C1401 C 0.7507 0.3829 0.46019 0.0
C1402 C 0.81239 0.39837 0.4984 0.0
H1403 H 0.66577 0.37415 0.56636 0.0
H1404 H 0.68204 0.37566 0.53737 0.0
H1405 H 0.83587 0.39918 0.52331 0.0
H1406 H 0.84453 0.41941 0.43918 0.0
H1407 H 0.83848 0.41882 0.46887 0.0
H1408 H 0.68819 0.39645 0.48544 0.0
C1409 C 0.70442 0.38507 0.54532 0.0
C1410 C 0.80331 0.39883 0.51515 0.0
C1411 C 0.69523 0.38412 0.56199 0.0
C1412 C 0.81897 0.40888 0.44492 0.0
C1413 C 0.81539 0.40856 0.46189 0.0
C1414 C 0.72082 0.39691 0.49357 0.0
C1415 C 0.74282 0.39755 0.53904 0.0
C1416 C 0.75284 0.39814 0.52127 0.0
C1417 C 0.78002 0.39598 0.46966 0.0
C1418 C 0.77121 0.39713 0.48745 0.0
H1419 H 0.78546 0.41728 0.57463 0.0
H1420 H 0.80099 0.41915 0.54543 0.0
H1421 H 0.6724 0.39735 0.5145 0.0
H1422 H 0.72999 0.37336 0.43634 0.0
H1423 H 0.72405 0.37269 0.46582 0.0
C1424 C 0.16156 0.06805 0.10745 0.0
C1425 C 0.13563 0.07328 0.12175 0.0
C1426 C 0.19703 0.0525 0.10739 0.0
C1427 C 0.27313 0.01969 0.13475 0.0
H1428 H 0.27238 0.98442 0.0976 0.0
C1429 C 0.34846 0.93936 0.1364 0.0
C1430 C 0.37656 0.93234 0.12302 0.0
C1431 C 0.32631 0.95821 0.13614 0.0
C1432 C 0.27365 0.9943 0.10796 0.0
H1433 H 0.12524 0.066 0.14713 0.0
H1434 H 0.18585 0.03843 0.14698 0.0
H1435 H 0.2191 0.01408 0.09734 0.0
H1436 H 0.40439 0.93972 0.09898 0.0
H1437 H 0.36494 0.97267 0.09843 0.0
H1438 H 0.3262 -0.00068 0.14558 0.0
C1439 C 0.18033 0.04677 0.13589 0.0
C1440 C 0.24315 0.01135 0.10782 0.0
C1441 C 0.14519 0.06245 0.13596 0.0
C1442 C 0.38313 0.94476 0.1095 0.0
C1443 C 0.36032 0.96355 0.10914 0.0
C1444 C 0.30324 0.00253 0.13495 0.0
C1445 C 0.20659 0.04152 0.12158 0.0
C1446 C 0.24193 0.02414 0.1213 0.0
C1447 C 0.33122 0.97037 0.1224 0.0
C1448 C 0.30329 0.98953 0.12163 0.0
H1449 H 0.15427 0.07594 0.09626 0.0
H1450 H 0.21686 0.04907 0.09618 0.0
H1451 H 0.27403 0.0294 0.14521 0.0
H1452 H 0.34281 0.93016 0.14702 0.0
H1453 H 0.3037 0.96297 0.14646 0.0
C1454 C 0.9158 0.0453 0.37648 0.0
C1455 C 0.89506 0.06162 0.36816 0.0
C1456 C 0.8926 0.02663 0.37533 0.0
C1457 C 0.81369 0.99391 0.38029 0.0
H1458 H 0.73397 0.98025 0.34222 0.0
C1459 C 0.62984 0.94815 0.38483 0.0
C1460 C 0.61265 0.93716 0.37149 0.0
C1461 C 0.67458 0.95942 0.3837 0.0
C1462 C 0.75671 0.98342 0.35289 0.0
H1463 H 0.83441 0.07102 0.35181 0.0
H1464 H 0.79341 0.03905 0.35025 0.0
H1465 H 0.79677 0.00656 0.34061 0.0
H1466 H 0.62905 0.92851 0.34674 0.0
H1467 H 0.70858 0.94755 0.34489 0.0
H1468 H 0.77434 0.97043 0.39246 0.0
C1469 C 0.82829 0.04029 0.35732 0.0
C1470 C 0.79229 -0.00118 0.35203 0.0
C1471 C 0.85163 0.05878 0.35835 0.0
C1472 C 0.64143 0.93712 0.35712 0.0
C1473 C 0.68687 0.94806 0.35608 0.0
C1474 C 0.77877 0.97822 0.38107 0.0
C1475 C 0.84804 0.02398 0.3659 0.0
C1476 C 0.8193 0.00492 0.36592 0.0
C1477 C 0.70354 0.95969 0.36926 0.0
C1478 C 0.74799 0.97342 0.36759 0.0
H1479 H 0.94942 0.04701 0.38408 0.0
H1480 H 0.90918 0.01436 0.38197 0.0
H1481 H 0.8339 -0.00192 0.39124 0.0
H1482 H 0.60796 0.94839 0.39601 0.0
H1483 H 0.6853 0.96845 0.394 0.0
C1484 C 0.86539 0.93701 0.86112 0.0
C1485 C 0.89363 0.92985 0.8744 0.0
C1486 C 0.84569 0.95625 0.86124 0.0
C1487 C 0.79716 0.99291 0.88918 0.0
H1488 H 0.79947 0.02795 0.85191 0.0
C1489 C 0.67766 0.06447 0.88881 0.0
C1490 C 0.65148 0.06874 0.87437 0.0
C1491 C 0.7166 0.05023 0.8891 0.0
C1492 C 0.79817 0.01829 0.86239 0.0
H1493 H 0.92445 0.93733 0.89806 0.0
H1494 H 0.88892 0.97091 0.89839 0.0
H1495 H 0.85108 -0.00229 0.85171 0.0
H1496 H 0.64537 0.0614 0.84884 0.0
H1497 H 0.71156 0.03598 0.84943 0.0
H1498 H 0.74221 0.01265 0.89956 0.0
C1499 C 0.8825 0.96163 0.88786 0.0
C1500 C 0.82794 0.00105 0.86229 0.0
C1501 C 0.90294 0.94247 0.88763 0.0
C1502 C 0.66517 0.05856 0.86016 0.0
C1503 C 0.70358 0.04411 0.86047 0.0
C1504 C 0.76688 0.00998 0.88921 0.0
C1505 C 0.85321 0.9686 0.87474 0.0
C1506 C 0.82696 0.98803 0.87556 0.0
C1507 C 0.72933 0.03955 0.87501 0.0
C1508 C 0.76618 0.0227 0.87568 0.0
H1509 H 0.85778 0.92764 0.85073 0.0
H1510 H 0.82279 0.96118 0.85105 0.0
H1511 H 0.79524 0.98299 0.8995 0.0
H1512 H 0.66744 0.07186 0.89998 0.0
H1513 H 0.73605 0.04736 0.90047 0.0
C1514 C 0.10567 0.94625 0.6118 0.0
C1515 C 0.08868 0.9343 0.62458 0.0
C1516 C 0.15037 0.95743 0.61344 0.0
C1517 C 0.2393 0.97739 0.64465 0.0
H1518 H 0.31596 0.99207 0.60617 0.0
C1519 C 0.40882 0.03516 0.62128 0.0
C1520 C 0.39228 0.05162 0.63032 0.0
C1521 C 0.38262 0.0171 0.6224 0.0
C1522 C 0.29596 0.98782 0.61715 0.0
H1523 H 0.10449 0.92417 0.64897 0.0
H1524 H 0.18419 0.94294 0.65167 0.0
H1525 H 0.24966 0.96706 0.60428 0.0
H1526 H 0.33682 0.0618 0.64816 0.0
H1527 H 0.29052 0.03096 0.64964 0.0
H1528 H 0.28647 -0.00213 0.65757 0.0
C1529 C 0.16237 0.94436 0.64056 0.0
C1530 C 0.25703 0.97369 0.616 0.0
C1531 C 0.11685 0.93356 0.63904 0.0
C1532 C 0.35064 0.04944 0.64099 0.0
C1533 C 0.32428 0.03157 0.64199 0.0
C1534 C 0.27883 0.99125 0.64585 0.0
C1535 C 0.1797 0.95652 0.62779 0.0
C1536 C 0.22661 0.96895 0.62958 0.0
C1537 C 0.33919 0.01526 0.63248 0.0
C1538 C 0.30596 0.99735 0.63197 0.0
H1539 H 0.08416 0.94702 0.60057 0.0
H1540 H 0.16138 0.96699 0.6035 0.0
H1541 H 0.21703 0.97419 0.65542 0.0
H1542 H 0.44109 0.03635 0.61305 0.0
H1543 H 0.39564 0.00475 0.61509 0.0
C1544 C 0.88706 0.43869 0.11293 0.0
C1545 C 0.908 0.43156 0.12748 0.0
C1546 C 0.85122 0.4541 0.1131 0.0
C1547 C 0.75714 0.47914 0.13932 0.0
H1548 H 0.76748 0.52129 0.10751 0.0
C1549 C 0.62406 0.54788 0.14044 0.0
C1550 C 0.60531 0.55435 0.12539 0.0
C1551 C 0.66259 0.53345 0.14118 0.0
C1552 C 0.76381 0.50955 0.11639 0.0
H1553 H 0.90919 0.43513 0.15359 0.0
H1554 H 0.84629 0.46213 0.15394 0.0
H1555 H 0.83167 0.49496 0.10786 0.0
H1556 H 0.60992 0.5503 0.09942 0.0
H1557 H 0.6771 0.52508 0.1006 0.0
H1558 H 0.68894 0.49361 0.14773 0.0
C1559 C 0.85706 0.45563 0.14241 0.0
C1560 C 0.80058 0.49447 0.11659 0.0
C1561 C 0.89321 0.44029 0.14221 0.0
C1562 C 0.62483 0.5459 0.11112 0.0
C1563 C 0.66326 0.53148 0.11184 0.0
C1564 C 0.72028 0.49422 0.13911 0.0
C1565 C 0.83574 0.46272 0.12785 0.0
C1566 C 0.79747 0.47903 0.12798 0.0
C1567 C 0.68268 0.5251 0.12687 0.0
C1568 C 0.72299 0.50952 0.12756 0.0
H1569 H 0.89835 0.43232 0.1014 0.0
H1570 H 0.83514 0.4591 0.1017 0.0
H1571 H 0.75338 0.46731 0.14811 0.0
H1572 H 0.60939 0.55414 0.15162 0.0
H1573 H 0.67698 0.52897 0.15294 0.0
C1574 C 0.11377 0.44711 0.39765 0.0
C1575 C 0.09075 0.44011 0.3834 0.0
C1576 C 0.15565 0.45995 0.39689 0.0
C1577 C 0.25602 0.4786 0.36857 0.0
H1578 H 0.26876 0.52023 0.40077 0.0
C1579 C 0.37903 0.5495 0.36178 0.0
C1580 C 0.40866 0.55526 0.37521 0.0
C1581 C 0.3462 0.53321 0.36282 0.0
C1582 C 0.26604 0.5085 0.39183 0.0
H1583 H 0.09095 0.4418 0.35719 0.0
H1584 H 0.16323 0.46485 0.35575 0.0
H1585 H 0.19726 0.49713 0.40237 0.0
H1586 H 0.42844 0.54818 0.4001 0.0
H1587 H 0.36985 0.51991 0.40201 0.0
H1588 H 0.32378 0.49083 0.35765 0.0
C1589 C 0.15038 0.45984 0.36755 0.0
C1590 C 0.22512 0.49521 0.39274 0.0
C1591 C 0.10863 0.44684 0.36834 0.0
C1592 C 0.40627 0.544 0.38953 0.0
C1593 C 0.37263 0.52792 0.39066 0.0
C1594 C 0.29653 0.49213 0.36753 0.0
C1595 C 0.17475 0.46641 0.38182 0.0
C1596 C 0.21931 0.48017 0.38106 0.0
C1597 C 0.34173 0.52261 0.37739 0.0
C1598 C 0.30167 0.50725 0.37911 0.0
H1599 H 0.09998 0.44231 0.40941 0.0
H1600 H 0.17362 0.46448 0.40813 0.0
H1601 H 0.25347 0.46695 0.35958 0.0
H1602 H 0.38023 0.55792 0.3506 0.0
H1603 H 0.32247 0.52949 0.35246 0.0
C1604 C 0.3962 0.44196 0.86595 0.0
C1605 C 0.41328 0.43523 0.88113 0.0
C1606 C 0.35675 0.45599 0.86495 0.0
C1607 C 0.24823 0.4759 0.88838 0.0
H1608 H 0.25672 0.52071 0.85907 0.0
C1609 C 0.10916 0.5417 0.8927 0.0
C1610 C 0.09134 0.55014 0.87823 0.0
C1611 C 0.14787 0.52741 0.89241 0.0
C1612 C 0.25344 0.5081 0.86712 0.0
H1613 H 0.40522 0.43865 0.90708 0.0
H1614 H 0.33608 0.46301 0.90542 0.0
H1615 H 0.32614 0.4963 0.85963 0.0
H1616 H 0.09837 0.55 0.85206 0.0
H1617 H 0.16603 0.52475 0.85147 0.0
H1618 H 0.17562 0.48752 0.89584 0.0
C1619 C 0.35214 0.45715 0.89429 0.0
C1620 C 0.29321 0.49417 0.86747 0.0
C1621 C 0.3916 0.44321 0.89526 0.0
C1622 C 0.11181 0.54373 0.86338 0.0
C1623 C 0.15076 0.52944 0.86307 0.0
C1624 C 0.20839 0.4897 0.88795 0.0
C1625 C 0.33398 0.46357 0.87912 0.0
C1626 C 0.29117 0.47802 0.87822 0.0
C1627 C 0.16928 0.52117 0.8776 0.0
C1628 C 0.21073 0.50607 0.87744 0.0
H1629 H 0.41264 0.4361 0.85486 0.0
H1630 H 0.34339 0.46062 0.8531 0.0
H1631 H 0.24532 0.46352 0.89667 0.0
H1632 H 0.09329 0.54624 0.90426 0.0
H1633 H 0.16161 0.52151 0.90383 0.0
C1634 C 0.86283 0.55724 0.64008 0.0
C1635 C 0.90042 0.56175 0.62844 0.0
C1636 C 0.83824 0.53895 0.63996 0.0
C1637 C 0.80923 0.49609 0.64242 0.0
H1638 H 0.75925 0.47529 0.60152 0.0
C1639 C 0.68902 0.4253 0.64081 0.0
C1640 C 0.64636 0.42527 0.63052 0.0
C1641 C 0.72655 0.43988 0.63936 0.0
C1642 C 0.77284 0.48096 0.61304 0.0
H1643 H 0.94251 0.55042 0.60769 0.0
H1644 H 0.89967 0.51814 0.60761 0.0
H1645 H 0.81361 0.50478 0.60169 0.0
H1646 H 0.60749 0.44071 0.61109 0.0
H1647 H 0.67223 0.4669 0.60886 0.0
H1648 H 0.7665 0.47313 0.6539 0.0
C1649 C 0.88899 0.52895 0.61672 0.0
C1650 C 0.80453 0.49768 0.61311 0.0
C1651 C 0.91374 0.54735 0.61685 0.0
C1652 C 0.64085 0.4403 0.61893 0.0
C1653 C 0.67812 0.45513 0.61758 0.0
C1654 C 0.77741 0.47952 0.64235 0.0
C1655 C 0.85072 0.52463 0.62823 0.0
C1656 C 0.8222 0.50563 0.62785 0.0
C1657 C 0.72118 0.45518 0.62792 0.0
C1658 C 0.7582 0.4719 0.62769 0.0
H1659 H 0.85149 0.56799 0.64917 0.0
H1660 H 0.80832 0.53625 0.64882 0.0
H1661 H 0.82282 0.50169 0.65396 0.0
H1662 H 0.69247 0.41439 0.65039 0.0
H1663 H 0.75925 0.43936 0.64746 0.0
C1664 C 0.1136 0.18431 0.13326 0.0
C1665 C 0.07598 0.17085 0.12799 0.0
C1666 C 0.10073 0.20393 0.13672 0.0
C1667 C 0.99457 0.23904 0.14424 0.0
H1668 H 0.08087 0.2756 0.12029 0.0
C1669 C 0.93048 0.31847 0.12839 0.0
C1670 C 0.96757 0.33342 0.12653 0.0
C1671 C 0.94507 0.29901 0.13181 0.0
C1672 C 0.05694 0.26576 0.12739 0.0
H1673 H 0.9946 0.16703 0.12343 0.0
H1674 H 0.97199 0.20145 0.12954 0.0
H1675 H 0.10284 0.24068 0.12103 0.0
H1676 H 0.04904 0.33979 0.12758 0.0
H1677 H 0.07453 0.30596 0.13413 0.0
H1678 H 0.94846 0.26416 0.15056 0.0
C1679 C 0.01152 0.19676 0.13095 0.0
C1680 C 0.0695 0.24566 0.12775 0.0
C1681 C 0.02448 0.17706 0.12741 0.0
C1682 C 0.01951 0.32863 0.12889 0.0
C1683 C 0.03412 0.30916 0.1325 0.0
C1684 C 0.98226 0.25924 0.14404 0.0
C1685 C 0.04989 0.21054 0.13505 0.0
C1686 C 0.03811 0.23204 0.13598 0.0
C1687 C 0.99716 0.29399 0.13361 0.0
C1688 C 0.01284 0.27283 0.13537 0.0
H1689 H 0.15355 0.17992 0.13406 0.0
H1690 H 0.13093 0.21412 0.14015 0.0
H1691 H 0.96994 0.22889 0.15079 0.0
H1692 H 0.89006 0.32163 0.12669 0.0
H1693 H 0.91547 0.28777 0.13234 0.0
C1694 C 0.4928 0.80824 0.12132 0.0
C1695 C 0.44442 0.81606 0.12535 0.0
C1696 C 0.50302 0.78806 0.12341 0.0
C1697 C 0.44204 0.73978 0.12404 0.0
H1698 H 0.5655 0.72239 0.14611 0.0
C1699 C 0.49256 0.65664 0.12841 0.0
C1700 C 0.54438 0.65179 0.12579 0.0
C1701 C 0.47788 0.67633 0.13118 0.0
C1702 C 0.53108 0.72694 0.13976 0.0
H1703 H 0.36871 0.80886 0.13461 0.0
H1704 H 0.38629 0.77346 0.13783 0.0
H1705 H 0.5454 0.75765 0.14468 0.0
H1706 H 0.62165 0.66373 0.12472 0.0
H1707 H 0.59621 0.69782 0.1289 0.0
H1708 H 0.42876 0.70933 0.11834 0.0
C1709 C 0.41633 0.78302 0.13323 0.0
C1710 C 0.51955 0.74715 0.13902 0.0
C1711 C 0.4064 0.80327 0.13143 0.0
C1712 C 0.58134 0.66691 0.12665 0.0
C1713 C 0.56669 0.68655 0.12921 0.0
C1714 C 0.45397 0.71958 0.12453 0.0
C1715 C 0.46478 0.77525 0.1293 0.0
C1716 C 0.47528 0.75377 0.13098 0.0
C1717 C 0.51467 0.69163 0.13121 0.0
C1718 C 0.49911 0.71289 0.13219 0.0
H1719 H 0.52295 0.81774 0.1167 0.0
H1720 H 0.54058 0.78238 0.12017 0.0
H1721 H 0.40779 0.74453 0.11767 0.0
H1722 H 0.46313 0.64534 0.12789 0.0
H1723 H 0.43757 0.67958 0.133 0.0
C1724 C 0.44724 0.68048 0.37149 0.0
C1725 C 0.47972 0.66793 0.38043 0.0
C1726 C 0.45418 0.70098 0.37185 0.0
C1727 C 0.55033 0.73949 0.38044 0.0
H1728 H 0.43127 0.77378 0.38402 0.0
C1729 C 0.56817 0.8241 0.38928 0.0
C1730 C 0.53431 0.83614 0.38033 0.0
C1731 C 0.56154 0.80357 0.38975 0.0
C1732 C 0.46486 0.76441 0.38284 0.0
H1733 H 0.54522 0.66711 0.3967 0.0
H1734 H 0.55713 0.70293 0.39734 0.0
H1735 H 0.41987 0.73793 0.38387 0.0
H1736 H 0.46683 0.83578 0.36482 0.0
H1737 H 0.45582 0.80007 0.36554 0.0
H1738 H 0.5953 0.76597 0.37928 0.0
C1739 C 0.52653 0.69687 0.38997 0.0
C1740 C 0.45833 0.74389 0.38277 0.0
C1741 C 0.5195 0.67635 0.38966 0.0
C1742 C 0.49358 0.82709 0.37193 0.0
C1743 C 0.48704 0.80657 0.37239 0.0
C1744 C 0.55687 0.76003 0.38048 0.0
C1745 C 0.49383 0.7094 0.38111 0.0
C1746 C 0.50096 0.7312 0.38149 0.0
C1747 C 0.52096 0.79457 0.38129 0.0
C1748 C 0.51418 0.77273 0.38161 0.0
H1749 H 0.41628 0.6745 0.36422 0.0
H1750 H 0.42879 0.71024 0.36471 0.0
H1751 H 0.58387 0.7301 0.37923 0.0
H1752 H 0.59983 0.83048 0.39599 0.0
H1753 H 0.58795 0.79476 0.39689 0.0
C1754 C 0.97258 0.33557 0.38846 0.0
C1755 C 0.01954 0.34348 0.38318 0.0
C1756 C 0.96126 0.31556 0.38579 0.0
C1757 C 0.02992 0.26847 0.37916 0.0
H1758 H 0.89357 0.24722 0.3721 0.0
C1759 C 0.92634 0.18853 0.36546 0.0
C1760 C 0.95291 0.17662 0.37666 0.0
C1761 C 0.93291 0.20906 0.36541 0.0
C1762 C 0.93198 0.25293 0.37393 0.0
H1763 H 0.08937 0.33734 0.36979 0.0
H1764 H 0.06901 0.30272 0.36466 0.0
H1765 H 0.90653 0.28305 0.37209 0.0
H1766 H 0.0069 0.17697 0.39669 0.0
H1767 H 0.01771 0.21279 0.39678 0.0
H1768 H 0.05569 0.23849 0.3807 0.0
C1769 C 0.04173 0.31164 0.37139 0.0
C1770 C 0.93929 0.27346 0.37408 0.0
C1771 C 0.05328 0.33149 0.37423 0.0
C1772 C 0.98608 0.18569 0.38784 0.0
C1773 C 0.99246 0.20624 0.38783 0.0
C1774 C 0.02267 0.24802 0.37895 0.0
C1775 C 0.99651 0.30323 0.37765 0.0
C1776 C 0.98836 0.28147 0.37675 0.0
C1777 C 0.96607 0.21816 0.37659 0.0
C1778 C 0.9736 0.23998 0.37645 0.0
H1779 H 0.94588 0.34452 0.39539 0.0
H1780 H 0.92614 0.30956 0.39082 0.0
H1781 H 0.06813 0.27409 0.38154 0.0
H1782 H 0.90065 0.18201 0.35662 0.0
H1783 H 0.91256 0.21778 0.35644 0.0
C1784 C 0.91905 0.80031 0.86969 0.0
C1785 C 0.95727 0.81334 0.87519 0.0
C1786 C 0.92848 0.77994 0.86887 0.0
C1787 C 0.01838 0.74162 0.88463 0.0
H1788 H 0.95693 0.70882 0.85122 0.0
C1789 C 0.08107 0.66153 0.87503 0.0
C1790 C 0.04158 0.64751 0.87684 0.0
C1791 C 0.06955 0.6815 0.87276 0.0
C1792 C 0.97412 0.71786 0.86061 0.0
H1793 H 0.0359 0.81543 0.88359 0.0
H1794 H 0.0532 0.78011 0.88155 0.0
H1795 H 0.94033 0.74452 0.85147 0.0
H1796 H 0.95903 0.64329 0.8765 0.0
H1797 H 0.93895 0.67839 0.87216 0.0
H1798 H 0.05326 0.71502 0.89344 0.0
C1799 C 0.0152 0.7854 0.87844 0.0
C1800 C 0.96448 0.73827 0.86085 0.0
C1801 C 0.00544 0.80569 0.87953 0.0
C1802 C 0.99029 0.65372 0.87516 0.0
C1803 C 0.97877 0.67377 0.87267 0.0
C1804 C 0.02866 0.72136 0.8842 0.0
C1805 C 0.97667 0.77218 0.87329 0.0
C1806 C 0.9866 0.75044 0.87287 0.0
C1807 C 0.01835 0.68787 0.87204 0.0
C1808 C 0.00676 0.70931 0.87219 0.0
H1809 H 0.88143 0.8058 0.86632 0.0
H1810 H 0.89759 0.77026 0.86509 0.0
H1811 H 0.03498 0.7503 0.89434 0.0
H1812 H 0.12102 0.65724 0.87608 0.0
H1813 H 0.10071 0.6921 0.87209 0.0
C1814 C 0.6103 0.18718 0.87997 0.0
C1815 C 0.57235 0.17351 0.8752 0.0
C1816 C 0.60052 0.20756 0.87952 0.0
C1817 C 0.49348 0.24284 0.88093 0.0
H1818 H 0.59273 0.28101 0.86503 0.0
C1819 C 0.44089 0.32486 0.87729 0.0
C1820 C 0.47747 0.33835 0.8831 0.0
C1821 C 0.45454 0.30525 0.87413 0.0
C1822 C 0.56478 0.27054 0.86962 0.0
H1823 H 0.49448 0.17086 0.86592 0.0
H1824 H 0.47781 0.20622 0.86519 0.0
H1825 H 0.61301 0.2456 0.86421 0.0
H1826 H 0.55768 0.34224 0.88936 0.0
H1827 H 0.58139 0.30779 0.88421 0.0
H1828 H 0.44567 0.26753 0.88671 0.0
C1829 C 0.51494 0.20113 0.8694 0.0
C1830 C 0.57641 0.25029 0.86915 0.0
C1831 C 0.5247 0.18081 0.86977 0.0
C1832 C 0.52865 0.33213 0.88489 0.0
C1833 C 0.54225 0.31241 0.88188 0.0
C1834 C 0.48199 0.263 0.88148 0.0
C1835 C 0.55253 0.21472 0.8744 0.0
C1836 C 0.54077 0.23624 0.87477 0.0
C1837 C 0.50496 0.2986 0.87692 0.0
C1838 C 0.51737 0.27713 0.8758 0.0
H1839 H 0.64752 0.18218 0.88416 0.0
H1840 H 0.6301 0.21769 0.88356 0.0
H1841 H 0.46562 0.23241 0.88564 0.0
H1842 H 0.40129 0.32932 0.87558 0.0
H1843 H 0.42517 0.29515 0.86989 0.0
C1844 C 0.42049 0.178 0.63095 0.0
C1845 C 0.44902 0.16589 0.62037 0.0
C1846 C 0.42904 0.19841 0.63148 0.0
C1847 C 0.43872 0.24268 0.62451 0.0
H1848 H 0.58116 0.25928 0.62406 0.0
C1849 C 0.50787 0.32447 0.61879 0.0
C1850 C 0.55273 0.32941 0.62734 0.0
C1851 C 0.48957 0.30497 0.61899 0.0
C1852 C 0.54117 0.2549 0.62437 0.0
H1853 H 0.5079 0.16581 0.60172 0.0
H1854 H 0.52245 0.20141 0.60256 0.0
H1855 H 0.5606 0.22436 0.62167 0.0
H1856 H 0.61045 0.31858 0.64408 0.0
H1857 H 0.57798 0.28484 0.64473 0.0
H1858 H 0.41964 0.2734 0.62752 0.0
C1859 C 0.49399 0.19508 0.61061 0.0
C1860 C 0.52937 0.23489 0.62275 0.0
C1861 C 0.48552 0.17468 0.6101 0.0
C1862 C 0.57648 0.31504 0.63707 0.0
C1863 C 0.558 0.29571 0.6374 0.0
C1864 C 0.45059 0.2628 0.62612 0.0
C1865 C 0.46629 0.20712 0.62145 0.0
C1866 C 0.47809 0.22853 0.62281 0.0
C1867 C 0.51567 0.29027 0.62786 0.0
C1868 C 0.50201 0.26907 0.62618 0.0
H1869 H 0.39202 0.17171 0.63902 0.0
H1870 H 0.4075 0.20727 0.64007 0.0
H1871 H 0.3988 0.23821 0.62448 0.0
H1872 H 0.48864 0.33534 0.61127 0.0
H1873 H 0.45675 0.30121 0.61155 0.0
C1874 C 0.98565 0.68744 0.61604 0.0
C1875 C 0.96269 0.67629 0.62844 0.0
C1876 C 0.98913 0.70802 0.6174 0.0
C1877 C 0.9931 0.74878 0.64631 0.0
H1878 H 0.94693 0.78052 0.60989 0.0
C1879 C 0.9669 0.83564 0.62465 0.0
C1880 C 0.01777 0.84213 0.62651 0.0
C1881 C 0.95406 0.81596 0.62798 0.0
C1882 C 0.95926 0.77187 0.62025 0.0
H1883 H 0.92717 0.67775 0.65225 0.0
H1884 H 0.93419 0.71371 0.65469 0.0
H1885 H 0.93896 0.74451 0.6088 0.0
H1886 H 0.09392 0.83385 0.63467 0.0
H1887 H 0.0713 0.79957 0.64069 0.0
H1888 H 0.01496 0.77619 0.65753 0.0
C1889 C 0.94891 0.70654 0.64389 0.0
C1890 C 0.95529 0.75129 0.61953 0.0
C1891 C 0.9447 0.686 0.64243 0.0
C1892 C 0.0545 0.82915 0.63303 0.0
C1893 C 0.0415 0.80958 0.63656 0.0
C1894 C 0.99776 0.7694 0.64694 0.0
C1895 C 0.97047 0.71774 0.63129 0.0
C1896 C 0.97275 0.73956 0.63246 0.0
C1897 C 0.99171 0.80261 0.63343 0.0
C1898 C 0.98132 0.78109 0.63384 0.0
H1899 H 0.99984 0.68035 0.60514 0.0
H1900 H 0.00644 0.71637 0.60759 0.0
H1901 H 0.00686 0.74001 0.65642 0.0
H1902 H 0.93779 0.84537 0.61967 0.0
H1903 H 0.91527 0.81095 0.62562 0.0
C1904 C 0.00816 0.11537 0.31688 0.0
C1905 C 0.01676 0.13233 0.32638 0.0
C1906 C 0.0086 0.11656 0.29994 0.0
C1907 C 0.05116 0.14896 0.26581 0.0
H1908 H 0.95955 0.11551 0.24087 0.0
C1909 C 0.02104 0.15623 0.19603 0.0
C1910 C 0.02202 0.13836 0.18727 0.0
C1911 C 0.02109 0.15608 0.21304 0.0
C1912 C 0.98557 0.12486 0.24768 0.0
H1913 H 0.03164 0.16391 0.32553 0.0
H1914 H 0.03081 0.16613 0.29605 0.0
H1915 H 0.95699 0.1143 0.27039 0.0
H1916 H 0.02424 0.10632 0.18952 0.0
H1917 H 0.02374 0.10612 0.21907 0.0
H1918 H 0.07882 0.15976 0.24294 0.0
C1919 C 0.02514 0.15177 0.30162 0.0
C1920 C 0.98432 0.12411 0.26462 0.0
C1921 C 0.0253 0.15053 0.31856 0.0
C1922 C 0.02348 0.12037 0.19587 0.0
C1923 C 0.02287 0.12022 0.21281 0.0
C1924 C 0.05194 0.14987 0.24885 0.0
C1925 C 0.017 0.13478 0.29205 0.0
C1926 C 0.01742 0.13602 0.27395 0.0
C1927 C 0.02138 0.13805 0.22159 0.0
C1928 C 0.01948 0.13769 0.2396 0.0
H1929 H 1.00178 0.1011 0.32253 0.0
H1930 H 1.00313 0.10307 0.29304 0.0
H1931 H 0.07782 0.15813 0.27252 0.0
H1932 H 0.01995 0.17033 0.18977 0.0
H1933 H 0.01974 0.17005 0.2195 0.0
C1934 C 0.47511 0.88378 0.17922 0.0
C1935 C 0.50452 0.86936 0.17112 0.0
C1936 C 0.47485 0.88473 0.19618 0.0
C1937 C 0.55053 0.87038 0.23215 0.0
H1938 H 0.42277 0.87882 0.25532 0.0
C1939 C 0.53852 0.86543 0.30208 0.0
C1940 C 0.50731 0.87936 0.31007 0.0
C1941 C 0.53756 0.86382 0.28516 0.0
C1942 C 0.4589 0.87669 0.24904 0.0
H1943 H 0.55656 0.84458 0.17452 0.0
H1944 H 0.55602 0.84625 0.20406 0.0
H1945 H 0.42235 0.87702 0.22577 0.0
H1946 H 0.45058 0.90251 0.30651 0.0
H1947 H 0.44957 0.89994 0.27707 0.0
H1948 H 0.58724 0.87026 0.25536 0.0
C1949 C 0.53351 0.85693 0.1973 0.0
C1950 C 0.45862 0.87564 0.2321 0.0
C1951 C 0.53357 0.85591 0.18036 0.0
C1952 C 0.47498 0.89156 0.30076 0.0
C1953 C 0.47416 0.89 0.28385 0.0
C1954 C 0.55086 0.87151 0.24909 0.0
C1955 C 0.50419 0.87135 0.20542 0.0
C1956 C 0.50443 0.87247 0.22345 0.0
C1957 C 0.5055 0.87614 0.27581 0.0
C1958 C 0.50505 0.87469 0.25777 0.0
H1959 H 0.4523 0.89437 0.17247 0.0
H1960 H 0.45225 0.89614 0.20206 0.0
H1961 H 0.5866 0.86821 0.22584 0.0
H1962 H 0.56371 0.85574 0.30889 0.0
H1963 H 0.56166 0.85277 0.27941 0.0
C1964 C 0.97834 0.88743 0.69617 0.0
C1965 C 0.97807 0.87009 0.68673 0.0
C1966 C 0.98239 0.88641 0.71305 0.0
C1967 C 0.96657 0.85173 0.74778 0.0
H1968 H 0.04076 0.89265 0.77103 0.0
C1969 C 0.01269 0.8471 0.81644 0.0
C1970 C 1.00382 0.86431 0.82566 0.0
C1971 C 0.0095 0.84759 0.79951 0.0
C1972 C 0.01956 0.88121 0.76471 0.0
H1973 H 0.98277 0.83805 0.68763 0.0
H1974 H 0.99136 0.83625 0.71709 0.0
H1975 H 0.03732 0.89354 0.7415 0.0
H1976 H 0.98458 0.89553 0.82431 0.0
H1977 H 0.97963 0.89642 0.79469 0.0
H1978 H 0.9498 0.83924 0.7711 0.0
C1979 C 0.98717 0.85067 0.71148 0.0
C1980 C 0.01743 0.88172 0.74776 0.0
C1981 C 0.98259 0.85168 0.69456 0.0
C1982 C 0.99166 0.88202 0.81756 0.0
C1983 C 0.98908 0.88256 0.8006 0.0
C1984 C 0.9692 0.85111 0.76473 0.0
C1985 C 0.98688 0.86803 0.72097 0.0
C1986 C 0.99059 0.86707 0.73904 0.0
C1987 C 0.99794 0.86535 0.7914 0.0
C1988 C 0.99545 0.86591 0.77338 0.0
H1989 H 0.97454 0.90187 0.69056 0.0
H1990 H 0.98101 0.9001 0.7199 0.0
H1991 H 0.94481 0.84038 0.74156 0.0
H1992 H 0.02202 0.8332 0.8223 0.0
H1993 H 0.01691 0.83413 0.79275 0.0
C1994 C 0.51219 0.11002 0.80056 0.0
C1995 C 0.53975 0.12474 0.8089 0.0
C1996 C 0.50935 0.11021 0.78362 0.0
C1997 C 0.57439 0.13005 0.74714 0.0
H1998 H 0.4469 0.11586 0.72584 0.0
C1999 C 0.54663 0.13712 0.67772 0.0
C2000 C 0.52127 0.12144 0.66988 0.0
C2001 C 0.54813 0.13813 0.69467 0.0
C2002 C 0.48293 0.11968 0.7316 0.0
H2003 H 0.58567 0.15129 0.80596 0.0
H2004 H 0.58019 0.15175 0.77641 0.0
H2005 H 0.45091 0.11661 0.75538 0.0
H2006 H 0.47722 0.09457 0.67374 0.0
H2007 H 0.48013 0.09627 0.70325 0.0
H2008 H 0.60638 0.1331 0.72334 0.0
C2009 C 0.56136 0.13989 0.78296 0.0
C2010 C 0.48526 0.1201 0.74854 0.0
C2011 C 0.56428 0.13968 0.79991 0.0
C2012 C 0.49707 0.10687 0.67937 0.0
C2013 C 0.49847 0.1079 0.69631 0.0
C2014 C 0.57203 0.12966 0.73019 0.0
C2015 C 0.53389 0.12514 0.77459 0.0
C2016 C 0.53109 0.12518 0.75654 0.0
C2017 C 0.52416 0.1235 0.70418 0.0
C2018 C 0.52634 0.12438 0.72221 0.0
H2019 H 0.49299 0.09824 0.80708 0.0
H2020 H 0.48851 0.09845 0.77759 0.0
H2021 H 0.61053 0.13374 0.75288 0.0
H2022 H 0.56551 0.14863 0.67078 0.0
H2023 H 0.5677 0.15047 0.70034 0.0
C2024 C 0.50454 0.64017 0.19789 0.0
C2025 C 0.50591 0.62208 0.18946 0.0
C2026 C 0.51004 0.64062 0.2148 0.0
C2027 C 0.55225 0.60949 0.24993 0.0
H2028 H 0.4721 0.64712 0.27492 0.0
C2029 C 0.52562 0.60354 0.31951 0.0
C2030 C 0.53295 0.62105 0.32844 0.0
C2031 C 0.52354 0.60406 0.30254 0.0
C2032 C 0.495 0.63663 0.26809 0.0
H2033 H 0.514 0.59026 0.19222 0.0
H2034 H 0.52192 0.59096 0.22153 0.0
H2035 H 0.46679 0.64741 0.24538 0.0
H2036 H 0.54297 0.65288 0.32658 0.0
H2037 H 0.53851 0.65377 0.29698 0.0
H2038 H 0.57919 0.59838 0.27276 0.0
C2039 C 0.51806 0.60491 0.21517 0.0
C2040 C 0.49221 0.63684 0.25113 0.0
C2041 C 0.51317 0.60449 0.19829 0.0
C2042 C 0.53748 0.63911 0.32005 0.0
C2043 C 0.53466 0.63965 0.30311 0.0
C2044 C 0.55449 0.60913 0.26688 0.0
C2045 C 0.5165 0.62296 0.2237 0.0
C2046 C 0.52067 0.62322 0.24179 0.0
C2047 C 0.52797 0.62212 0.29416 0.0
C2048 C 0.52581 0.62265 0.27615 0.0
H2049 H 0.49924 0.654 0.19144 0.0
H2050 H 0.50947 0.65484 0.22087 0.0
H2051 H 0.57564 0.59905 0.24323 0.0
H2052 H 0.52197 0.5894 0.3256 0.0
H2053 H 0.5179 0.59033 0.29597 0.0
C2054 C 0.97558 0.37319 0.19765 0.0
C2055 C 0.9973 0.3575 0.18879 0.0
C2056 C 0.96733 0.37143 0.21428 0.0
C2057 C 0.01239 0.34371 0.25008 0.0
H2058 H 0.90002 0.3719 0.27067 0.0
C2059 C 0.97608 0.34756 0.32007 0.0
C2060 C 0.97184 0.3671 0.32583 0.0
C2061 C 0.97652 0.34373 0.30337 0.0
C2062 C 0.93145 0.3639 0.26506 0.0
H2063 H 0.02569 0.32734 0.19037 0.0
H2064 H 0.01022 0.32411 0.21951 0.0
H2065 H 0.90256 0.36912 0.2412 0.0
H2066 H 0.96483 0.39793 0.31868 0.0
H2067 H 0.96457 0.39117 0.28964 0.0
H2068 H 0.04097 0.33856 0.27414 0.0
C2069 C 1.00053 0.33793 0.21359 0.0
C2070 C 0.93312 0.36238 0.2482 0.0
C2071 C 0.00913 0.33974 0.19688 0.0
C2072 C 0.96827 0.38272 0.31463 0.0
C2073 C 0.96776 0.37886 0.29801 0.0
C2074 C 0.01028 0.345 0.26701 0.0
C2075 C 0.98009 0.35387 0.22252 0.0
C2076 C 0.97447 0.35283 0.24046 0.0
C2077 C 0.97164 0.35936 0.29224 0.0
C2078 C 0.97058 0.35562 0.27458 0.0
H2079 H 0.96615 0.38711 0.19183 0.0
H2080 H 0.95249 0.38417 0.22076 0.0
H2081 H 0.04501 0.33639 0.24455 0.0
H2082 H 0.97906 0.33524 0.32845 0.0
H2083 H 0.97963 0.32857 0.29916 0.0
C2084 C 0.51068 0.33999 0.69117 0.0
C2085 C 0.51319 0.35918 0.68457 0.0
C2086 C 0.50669 0.3373 0.70796 0.0
C2087 C 0.45814 0.36155 0.74407 0.0
H2088 H 0.55887 0.3318 0.76869 0.0
C2089 C 0.48734 0.3743 0.81189 0.0
C2090 C 0.50371 0.35872 0.82193 0.0
C2091 C 0.48231 0.37152 0.79522 0.0
C2092 C 0.52967 0.33978 0.76201 0.0
H2093 H 0.514 0.39055 0.69036 0.0
H2094 H 0.50602 0.38581 0.71955 0.0
H2095 H 0.56312 0.33199 0.73906 0.0
H2096 H 0.52542 0.3277 0.82243 0.0
H2097 H 0.51548 0.32268 0.79322 0.0
H2098 H 0.42439 0.36939 0.7668 0.0
C2099 C 0.50735 0.3729 0.71175 0.0
C2100 C 0.53234 0.33995 0.74505 0.0
C2101 C 0.51229 0.37558 0.69506 0.0
C2102 C 0.51303 0.34004 0.81499 0.0
C2103 C 0.50763 0.3372 0.79825 0.0
C2104 C 0.45495 0.36116 0.76096 0.0
C2105 C 0.50409 0.35378 0.71833 0.0
C2106 C 0.49752 0.35132 0.73601 0.0
C2107 C 0.49298 0.35301 0.78813 0.0
C2108 C 0.49168 0.35082 0.77017 0.0
H2109 H 0.51141 0.32708 0.68336 0.0
H2110 H 0.50434 0.32242 0.71282 0.0
H2111 H 0.43037 0.37018 0.7373 0.0
H2112 H 0.47993 0.38891 0.81681 0.0
H2113 H 0.47188 0.38416 0.78784 0.0
C2114 C 0.01665 0.60907 0.6831 0.0
C2115 C 0.02482 0.62691 0.6747 0.0
C2116 C 0.0155 0.60879 0.70008 0.0
C2117 C 0.99046 0.63998 0.73561 0.0
H2118 H 0.06878 0.60038 0.75901 0.0
C2119 C 1.00076 0.63997 0.8058 0.0
C2120 C 1.0007 0.62147 0.81362 0.0
C2121 C 0.00642 0.64119 0.78893 0.0
C2122 C 0.04606 0.61139 0.75271 0.0
H2123 H 0.03743 0.65849 0.67752 0.0
H2124 H 0.03461 0.658 0.70715 0.0
H2125 H 0.07176 0.60112 0.72947 0.0
H2126 H 0.00656 0.58974 0.80981 0.0
H2127 H 0.01475 0.5918 0.78054 0.0
H2128 H 0.96341 0.64994 0.75872 0.0
C2129 C 0.02939 0.64424 0.70059 0.0
C2130 C 0.04797 0.61183 0.73576 0.0
C2131 C 0.03129 0.64448 0.68363 0.0
C2132 C 0.00683 0.60426 0.80422 0.0
C2133 C 0.01187 0.60546 0.78737 0.0
C2134 C 0.98798 0.6394 0.75257 0.0
C2135 C 0.02171 0.62638 0.709 0.0
C2136 C 0.0201 0.62609 0.72702 0.0
C2137 C 0.01159 0.62393 0.77944 0.0
C2138 C 0.0156 0.62504 0.76137 0.0
H2139 H 0.0115 0.59528 0.67657 0.0
H2140 H 0.00907 0.59483 0.70623 0.0
H2141 H 0.96818 0.65104 0.72918 0.0
H2142 H 0.99639 0.65352 0.81271 0.0
H2143 H 0.0069 0.6557 0.78334 0.0
loop_
_geom_bond_atom_site_label_1
_geom_bond_atom_site_label_2
_geom_bond_distance
_geom_bond_site_symmetry_2
_ccdc_geom_bond_type
O0 Tb1 2.292 . S
O0 C3 1.255 . S
Tb1 O0 2.292 . S
Tb1 O17 2.326 . S
Tb1 O19 2.500 . S
Tb1 O20 2.473 . S
Tb1 O23 2.324 . S
Eu2 O6 2.292 1_455 S
Eu2 C7 2.852 1_455 S
Eu2 O18 2.324 . S
Eu2 O22 2.326 . S
Eu2 O24 2.500 1_455 S
Eu2 O25 2.473 1_455 S
C3 O0 1.255 . S
C3 O4 1.247 . S
O4 C3 1.247 . S
C5 O17 1.242 . S
C5 O18 1.258 . S
O6 Eu2 2.292 1_655 S
O6 C8 1.255 . S
C7 Eu2 2.852 1_655 S
C7 C11 1.503 . S
C7 O24 1.273 . S
C7 O25 1.257 . S
C8 O6 1.255 . S
C8 O9 1.247 1_655 S
O9 C8 1.247 1_455 S
C10 O22 1.242 . S
C10 O23 1.258 . S
C11 C7 1.503 . S
C11 C12 1.379 . S
C11 C16 1.392 . S
C12 C11 1.379 . S
C12 C13 1.404 . S
C12 H26 0.929 . S
C13 C12 1.404 . S
C13 C14 1.389 . S
C14 C13 1.389 . S
C14 C15 1.399 . S
C14 H27 0.931 . S
C15 C14 1.399 . S
C15 C16 1.390 . S
C16 C11 1.392 . S
C16 C15 1.390 . S
C16 H28 0.929 . S
O17 Tb1 2.326 . S
O17 C5 1.242 . S
O18 Eu2 2.324 . S
O18 C5 1.258 . S
O19 Tb1 2.500 . S
O19 C21 1.273 . S
O20 Tb1 2.473 . S
O20 C21 1.257 . S
C21 O19 1.273 . S
C21 O20 1.257 . S
O22 Eu2 2.326 . S
O22 C10 1.242 . S
O23 Tb1 2.324 . S
O23 C10 1.258 . S
O24 Eu2 2.500 1_655 S
O24 C7 1.273 . S
O25 Eu2 2.473 1_655 S
O25 C7 1.257 . S
H26 C12 0.929 . S
H27 C14 0.931 . S
H28 C16 0.929 . S
O29 Tb30 2.292 . S
O29 C32 1.255 . S
Tb30 O29 2.292 . S
Tb30 O46 2.326 . S
Tb30 O48 2.500 . S
Tb30 O49 2.473 . S
Tb30 O52 2.324 . S
Eu31 O35 2.292 . S
Eu31 C36 2.852 . S
Eu31 O47 2.324 . S
Eu31 O51 2.326 . S
Eu31 O53 2.500 . S
Eu31 O54 2.473 . S
C32 O29 1.255 . S
C32 O33 1.247 . S
O33 C32 1.247 . S
C34 O46 1.242 . S
C34 O47 1.258 . S
O35 Eu31 2.292 . S
O35 C37 1.255 . S
C36 Eu31 2.852 . S
C36 C40 1.503 . S
C36 O53 1.273 . S
C36 O54 1.257 . S
C37 O35 1.255 . S
C37 O38 1.247 . S
O38 C37 1.247 . S
C39 O51 1.242 . S
C39 O52 1.258 . S
C40 C36 1.503 . S
C40 C41 1.379 . S
C40 C45 1.392 . S
C41 C40 1.379 . S
C41 C42 1.404 . S
C41 H55 0.929 . S
C42 C41 1.404 . S
C42 C43 1.389 . S
C43 C42 1.389 . S
C43 C44 1.399 . S
C43 H56 0.931 . S
C44 C43 1.399 . S
C44 C45 1.390 . S
C45 C40 1.392 . S
C45 C44 1.390 . S
C45 H57 0.929 . S
O46 Tb30 2.326 . S
O46 C34 1.242 . S
O47 Eu31 2.324 . S
O47 C34 1.258 . S
O48 Tb30 2.500 . S
O48 C50 1.273 . S
O49 Tb30 2.473 . S
O49 C50 1.257 . S
C50 O48 1.273 . S
C50 O49 1.257 . S
O51 Eu31 2.326 . S
O51 C39 1.242 . S
O52 Tb30 2.324 . S
O52 C39 1.258 . S
O53 Eu31 2.500 . S
O53 C36 1.273 . S
O54 Eu31 2.473 . S
O54 C36 1.257 . S
H55 C41 0.929 . S
H56 C43 0.931 . S
H57 C45 0.929 . S
O58 Tb59 2.292 . S
O58 C61 1.255 . S
Tb59 O58 2.292 . S
Tb59 O75 2.326 . S
Tb59 O77 2.500 . S
Tb59 O78 2.473 . S
Tb59 O81 2.324 . S
Eu60 O64 2.292 . S
Eu60 C65 2.852 . S
Eu60 O76 2.324 . S
Eu60 O80 2.326 . S
Eu60 O82 2.500 . S
Eu60 O83 2.473 . S
C61 O58 1.255 . S
C61 O62 1.247 . S
O62 C61 1.247 . S
C63 O75 1.242 . S
C63 O76 1.258 . S
O64 Eu60 2.292 . S
O64 C66 1.255 . S
C65 Eu60 2.852 . S
C65 C69 1.503 . S
C65 O82 1.273 . S
C65 O83 1.257 . S
C66 O64 1.255 . S
C66 O67 1.247 . S
O67 C66 1.247 . S
C68 O80 1.242 . S
C68 O81 1.258 . S
C69 C65 1.503 . S
C69 C70 1.379 . S
C69 C74 1.392 . S
C70 C69 1.379 . S
C70 C71 1.404 . S
C70 H84 0.929 . S
C71 C70 1.404 . S
C71 C72 1.389 . S
C72 C71 1.389 . S
C72 C73 1.399 . S
C72 H85 0.931 . S
C73 C72 1.399 . S
C73 C74 1.390 . S
C74 C69 1.392 . S
C74 C73 1.390 . S
C74 H86 0.929 . S
O75 Tb59 2.326 . S
O75 C63 1.242 . S
O76 Eu60 2.324 . S
O76 C63 1.258 . S
O77 Tb59 2.500 . S
O77 C79 1.273 . S
O78 Tb59 2.473 . S
O78 C79 1.257 . S
C79 O77 1.273 . S
C79 O78 1.257 . S
O80 Eu60 2.326 . S
O80 C68 1.242 . S
O81 Tb59 2.324 . S
O81 C68 1.258 . S
O82 Eu60 2.500 . S
O82 C65 1.273 . S
O83 Eu60 2.473 . S
O83 C65 1.257 . S
H84 C70 0.929 . S
H85 C72 0.931 . S
H86 C74 0.929 . S
O87 Tb88 2.292 . S
O87 C90 1.255 . S
Tb88 O87 2.292 . S
Tb88 O104 2.326 . S
Tb88 O106 2.500 . S
Tb88 O107 2.473 . S
Tb88 O110 2.324 . S
Eu89 O93 2.292 1_655 S
Eu89 C94 2.852 1_655 S
Eu89 O105 2.324 . S
Eu89 O109 2.326 . S
Eu89 O111 2.500 1_655 S
Eu89 O112 2.473 1_655 S
C90 O87 1.255 . S
C90 O91 1.247 . S
O91 C90 1.247 . S
C92 O104 1.242 . S
C92 O105 1.258 . S
O93 Eu89 2.292 1_455 S
O93 C95 1.255 . S
C94 Eu89 2.852 1_455 S
C94 C98 1.503 . S
C94 O111 1.273 . S
C94 O112 1.257 . S
C95 O93 1.255 . S
C95 O96 1.247 1_455 S
O96 C95 1.247 1_655 S
C97 O109 1.242 . S
C97 O110 1.258 . S
C98 C94 1.503 . S
C98 C99 1.379 . S
C98 C103 1.392 . S
C99 C98 1.379 . S
C99 C100 1.404 . S
C99 H113 0.929 . S
C100 C99 1.404 . S
C100 C101 1.389 . S
C101 C100 1.389 . S
C101 C102 1.399 . S
C101 H114 0.931 . S
C102 C101 1.399 . S
C102 C103 1.390 . S
C103 C98 1.392 . S
C103 C102 1.390 . S
C103 H115 0.929 . S
O104 Tb88 2.326 . S
O104 C92 1.242 . S
O105 Eu89 2.324 . S
O105 C92 1.258 . S
O106 Tb88 2.500 . S
O106 C108 1.273 . S
O107 Tb88 2.473 . S
O107 C108 1.257 . S
C108 O106 1.273 . S
C108 O107 1.257 . S
O109 Eu89 2.326 . S
O109 C97 1.242 . S
O110 Tb88 2.324 . S
O110 C97 1.258 . S
O111 Eu89 2.500 1_455 S
O111 C94 1.273 . S
O112 Eu89 2.473 1_455 S
O112 C94 1.257 . S
H113 C99 0.929 . S
H114 C101 0.931 . S
H115 C103 0.929 . S
O116 Tb117 2.292 . S
O116 C119 1.255 . S
Tb117 O116 2.292 . S
Tb117 O133 2.326 . S
Tb117 O135 2.500 . S
Tb117 O136 2.473 . S
Tb117 O139 2.324 . S
Eu118 O122 2.292 1_655 S
Eu118 C123 2.852 1_655 S
Eu118 O134 2.324 . S
Eu118 O138 2.326 . S
Eu118 O140 2.500 1_655 S
Eu118 O141 2.473 1_655 S
C119 O116 1.255 . S
C119 O120 1.247 . S
O120 C119 1.247 . S
C121 O133 1.242 . S
C121 O134 1.258 . S
O122 Eu118 2.292 1_455 S
O122 C124 1.255 . S
C123 Eu118 2.852 1_455 S
C123 C127 1.503 . S
C123 O140 1.273 . S
C123 O141 1.257 . S
C124 O122 1.255 . S
C124 O125 1.247 1_455 S
O125 C124 1.247 1_655 S
C126 O138 1.242 . S
C126 O139 1.258 . S
C127 C123 1.503 . S
C127 C128 1.379 . S
C127 C132 1.392 . S
C128 C127 1.379 . S
C128 C129 1.404 . S
C128 H142 0.929 . S
C129 C128 1.404 . S
C129 C130 1.389 . S
C130 C129 1.389 . S
C130 C131 1.399 . S
C130 H143 0.931 . S
C131 C130 1.399 . S
C131 C132 1.390 . S
C132 C127 1.392 . S
C132 C131 1.390 . S
C132 H144 0.929 . S
O133 Tb117 2.326 . S
O133 C121 1.242 . S
O134 Eu118 2.324 . S
O134 C121 1.258 . S
O135 Tb117 2.500 . S
O135 C137 1.273 . S
O136 Tb117 2.473 . S
O136 C137 1.257 . S
C137 O135 1.273 . S
C137 O136 1.257 . S
O138 Eu118 2.326 . S
O138 C126 1.242 . S
O139 Tb117 2.324 . S
O139 C126 1.258 . S
O140 Eu118 2.500 1_455 S
O140 C123 1.273 . S
O141 Eu118 2.473 1_455 S
O141 C123 1.257 . S
H142 C128 0.929 . S
H143 C130 0.931 . S
H144 C132 0.929 . S
O145 Tb146 2.292 . S
O145 C148 1.255 . S
Tb146 O145 2.292 . S
Tb146 O162 2.326 . S
Tb146 O164 2.500 . S
Tb146 O165 2.473 . S
Tb146 O168 2.324 . S
Eu147 O151 2.292 . S
Eu147 C152 2.852 . S
Eu147 O163 2.324 . S
Eu147 O167 2.326 . S
Eu147 O169 2.500 . S
Eu147 O170 2.473 . S
C148 O145 1.255 . S
C148 O149 1.247 . S
O149 C148 1.247 . S
C150 O162 1.242 . S
C150 O163 1.258 . S
O151 Eu147 2.292 . S
O151 C153 1.255 . S
C152 Eu147 2.852 . S
C152 C156 1.503 . S
C152 O169 1.273 . S
C152 O170 1.257 . S
C153 O151 1.255 . S
C153 O154 1.247 . S
O154 C153 1.247 . S
C155 O167 1.242 . S
C155 O168 1.258 . S
C156 C152 1.503 . S
C156 C157 1.379 . S
C156 C161 1.392 . S
C157 C156 1.379 . S
C157 C158 1.404 . S
C157 H171 0.929 . S
C158 C157 1.404 . S
C158 C159 1.389 . S
C159 C158 1.389 . S
C159 C160 1.399 . S
C159 H172 0.931 . S
C160 C159 1.399 . S
C160 C161 1.390 . S
C161 C156 1.392 . S
C161 C160 1.390 . S
C161 H173 0.929 . S
O162 Tb146 2.326 . S
O162 C150 1.242 . S
O163 Eu147 2.324 . S
O163 C150 1.258 . S
O164 Tb146 2.500 . S
O164 C166 1.273 . S
O165 Tb146 2.473 . S
O165 C166 1.257 . S
C166 O164 1.273 . S
C166 O165 1.257 . S
O167 Eu147 2.326 . S
O167 C155 1.242 . S
O168 Tb146 2.324 . S
O168 C155 1.258 . S
O169 Eu147 2.500 . S
O169 C152 1.273 . S
O170 Eu147 2.473 . S
O170 C152 1.257 . S
H171 C157 0.929 . S
H172 C159 0.931 . S
H173 C161 0.929 . S
O174 Tb175 2.292 . S
O174 C177 1.255 . S
Tb175 O174 2.292 . S
Tb175 O191 2.326 . S
Tb175 O193 2.500 . S
Tb175 O194 2.473 . S
Tb175 O197 2.324 . S
Eu176 O180 2.292 . S
Eu176 C181 2.852 . S
Eu176 O192 2.324 . S
Eu176 O196 2.326 . S
Eu176 O198 2.500 . S
Eu176 O199 2.473 . S
C177 O174 1.255 . S
C177 O178 1.247 . S
O178 C177 1.247 . S
C179 O191 1.242 . S
C179 O192 1.258 . S
O180 Eu176 2.292 . S
O180 C182 1.255 . S
C181 Eu176 2.852 . S
C181 C185 1.503 . S
C181 O198 1.273 . S
C181 O199 1.257 . S
C182 O180 1.255 . S
C182 O183 1.247 . S
O183 C182 1.247 . S
C184 O196 1.242 . S
C184 O197 1.258 . S
C185 C181 1.503 . S
C185 C186 1.379 . S
C185 C190 1.392 . S
C186 C185 1.379 . S
C186 C187 1.404 . S
C186 H200 0.929 . S
C187 C186 1.404 . S
C187 C188 1.389 . S
C188 C187 1.389 . S
C188 C189 1.399 . S
C188 H201 0.931 . S
C189 C188 1.399 . S
C189 C190 1.390 . S
C190 C185 1.392 . S
C190 C189 1.390 . S
C190 H202 0.929 . S
O191 Tb175 2.326 . S
O191 C179 1.242 . S
O192 Eu176 2.324 . S
O192 C179 1.258 . S
O193 Tb175 2.500 . S
O193 C195 1.273 . S
O194 Tb175 2.473 . S
O194 C195 1.257 . S
C195 O193 1.273 . S
C195 O194 1.257 . S
O196 Eu176 2.326 . S
O196 C184 1.242 . S
O197 Tb175 2.324 . S
O197 C184 1.258 . S
O198 Eu176 2.500 . S
O198 C181 1.273 . S
O199 Eu176 2.473 . S
O199 C181 1.257 . S
H200 C186 0.929 . S
H201 C188 0.931 . S
H202 C190 0.929 . S
O203 Tb204 2.292 . S
O203 C206 1.255 . S
Tb204 O203 2.292 . S
Tb204 O220 2.326 . S
Tb204 O222 2.500 . S
Tb204 O223 2.473 . S
Tb204 O226 2.324 . S
Eu205 O209 2.292 1_455 S
Eu205 C210 2.852 1_455 S
Eu205 O221 2.324 . S
Eu205 O225 2.326 . S
Eu205 O227 2.500 1_455 S
Eu205 O228 2.473 1_455 S
C206 O203 1.255 . S
C206 O207 1.247 . S
O207 C206 1.247 . S
C208 O220 1.242 . S
C208 O221 1.258 . S
O209 Eu205 2.292 1_655 S
O209 C211 1.255 . S
C210 Eu205 2.852 1_655 S
C210 C214 1.503 . S
C210 O227 1.273 . S
C210 O228 1.257 . S
C211 O209 1.255 . S
C211 O212 1.247 1_655 S
O212 C211 1.247 1_455 S
C213 O225 1.242 . S
C213 O226 1.258 . S
C214 C210 1.503 . S
C214 C215 1.379 . S
C214 C219 1.392 . S
C215 C214 1.379 . S
C215 C216 1.404 . S
C215 H229 0.929 . S
C216 C215 1.404 . S
C216 C217 1.389 . S
C217 C216 1.389 . S
C217 C218 1.399 . S
C217 H230 0.931 . S
C218 C217 1.399 . S
C218 C219 1.390 . S
C219 C214 1.392 . S
C219 C218 1.390 . S
C219 H231 0.929 . S
O220 Tb204 2.326 . S
O220 C208 1.242 . S
O221 Eu205 2.324 . S
O221 C208 1.258 . S
O222 Tb204 2.500 . S
O222 C224 1.273 . S
O223 Tb204 2.473 . S
O223 C224 1.257 . S
C224 O222 1.273 . S
C224 O223 1.257 . S
O225 Eu205 2.326 . S
O225 C213 1.242 . S
O226 Tb204 2.324 . S
O226 C213 1.258 . S
O227 Eu205 2.500 1_655 S
O227 C210 1.273 . S
O228 Eu205 2.473 1_655 S
O228 C210 1.257 . S
H229 C215 0.929 . S
H230 C217 0.931 . S
H231 C219 0.929 . S
O232 Tb233 2.292 . S
O232 C235 1.255 . S
Tb233 O232 2.292 . S
Tb233 O249 2.326 . S
Tb233 O251 2.500 . S
Tb233 O252 2.473 . S
Tb233 O255 2.324 . S
Eu234 O238 2.292 . S
Eu234 C239 2.852 . S
Eu234 O250 2.324 . S
Eu234 O254 2.326 . S
Eu234 O256 2.500 . S
Eu234 O257 2.473 . S
C235 O232 1.255 . S
C235 O236 1.247 . S
O236 C235 1.247 . S
C237 O249 1.242 . S
C237 O250 1.258 . S
O238 Eu234 2.292 . S
O238 C240 1.255 . S
C239 Eu234 2.852 . S
C239 C243 1.503 . S
C239 O256 1.273 . S
C239 O257 1.257 . S
C240 O238 1.255 . S
C240 O241 1.247 . S
O241 C240 1.247 . S
C242 O254 1.242 . S
C242 O255 1.258 . S
C243 C239 1.503 . S
C243 C244 1.379 . S
C243 C248 1.392 . S
C244 C243 1.379 . S
C244 C245 1.404 . S
C244 H258 0.929 . S
C245 C244 1.404 . S
C245 C246 1.389 . S
C246 C245 1.389 . S
C246 C247 1.399 . S
C246 H259 0.931 . S
C247 C246 1.399 . S
C247 C248 1.390 . S
C248 C243 1.392 . S
C248 C247 1.390 . S
C248 H260 0.929 . S
O249 Tb233 2.326 . S
O249 C237 1.242 . S
O250 Eu234 2.324 . S
O250 C237 1.258 . S
O251 Tb233 2.500 . S
O251 C253 1.273 . S
O252 Tb233 2.473 . S
O252 C253 1.257 . S
C253 O251 1.273 . S
C253 O252 1.257 . S
O254 Eu234 2.326 . S
O254 C242 1.242 . S
O255 Tb233 2.324 . S
O255 C242 1.258 . S
O256 Eu234 2.500 . S
O256 C239 1.273 . S
O257 Eu234 2.473 . S
O257 C239 1.257 . S
H258 C244 0.929 . S
H259 C246 0.931 . S
H260 C248 0.929 . S
O261 Tb262 2.292 . S
O261 C264 1.255 . S
Tb262 O261 2.292 . S
Tb262 O278 2.326 . S
Tb262 O280 2.500 . S
Tb262 O281 2.473 . S
Tb262 O284 2.324 . S
Eu263 O267 2.292 1_655 S
Eu263 C268 2.852 1_655 S
Eu263 O279 2.324 . S
Eu263 O283 2.326 . S
Eu263 O285 2.500 1_655 S
Eu263 O286 2.473 1_655 S
C264 O261 1.255 . S
C264 O265 1.247 . S
O265 C264 1.247 . S
C266 O278 1.242 . S
C266 O279 1.258 . S
O267 Eu263 2.292 1_455 S
O267 C269 1.255 . S
C268 Eu263 2.852 1_455 S
C268 C272 1.503 . S
C268 O285 1.273 . S
C268 O286 1.257 . S
C269 O267 1.255 . S
C269 O270 1.247 1_455 S
O270 C269 1.247 1_655 S
C271 O283 1.242 . S
C271 O284 1.258 . S
C272 C268 1.503 . S
C272 C273 1.379 . S
C272 C277 1.392 . S
C273 C272 1.379 . S
C273 C274 1.404 . S
C273 H287 0.929 . S
C274 C273 1.404 . S
C274 C275 1.389 . S
C275 C274 1.389 . S
C275 C276 1.399 . S
C275 H288 0.931 . S
C276 C275 1.399 . S
C276 C277 1.390 . S
C277 C272 1.392 . S
C277 C276 1.390 . S
C277 H289 0.929 . S
O278 Tb262 2.326 . S
O278 C266 1.242 . S
O279 Eu263 2.324 . S
O279 C266 1.258 . S
O280 Tb262 2.500 . S
O280 C282 1.273 . S
O281 Tb262 2.473 . S
O281 C282 1.257 . S
C282 O280 1.273 . S
C282 O281 1.257 . S
O283 Eu263 2.326 . S
O283 C271 1.242 . S
O284 Tb262 2.324 . S
O284 C271 1.258 . S
O285 Eu263 2.500 1_455 S
O285 C268 1.273 . S
O286 Eu263 2.473 1_455 S
O286 C268 1.257 . S
H287 C273 0.929 . S
H288 C275 0.931 . S
H289 C277 0.929 . S
O290 Tb291 2.292 . S
O290 C293 1.255 . S
Tb291 O290 2.292 . S
Tb291 O307 2.326 . S
Tb291 O309 2.500 . S
Tb291 O310 2.473 . S
Tb291 O313 2.324 . S
Eu292 O296 2.292 1_455 S
Eu292 C297 2.852 1_455 S
Eu292 O308 2.324 . S
Eu292 O312 2.326 . S
Eu292 O314 2.500 1_455 S
Eu292 O315 2.473 1_455 S
C293 O290 1.255 . S
C293 O294 1.247 . S
O294 C293 1.247 . S
C295 O307 1.242 . S
C295 O308 1.258 . S
O296 Eu292 2.292 1_655 S
O296 C298 1.255 . S
C297 Eu292 2.852 1_655 S
C297 C301 1.503 . S
C297 O314 1.273 . S
C297 O315 1.257 . S
C298 O296 1.255 . S
C298 O299 1.247 1_655 S
O299 C298 1.247 1_455 S
C300 O312 1.242 . S
C300 O313 1.258 . S
C301 C297 1.503 . S
C301 C302 1.379 . S
C301 C306 1.392 . S
C302 C301 1.379 . S
C302 C303 1.404 . S
C302 H316 0.929 . S
C303 C302 1.404 . S
C303 C304 1.389 . S
C304 C303 1.389 . S
C304 C305 1.399 . S
C304 H317 0.931 . S
C305 C304 1.399 . S
C305 C306 1.390 . S
C306 C301 1.392 . S
C306 C305 1.390 . S
C306 H318 0.929 . S
O307 Tb291 2.326 . S
O307 C295 1.242 . S
O308 Eu292 2.324 . S
O308 C295 1.258 . S
O309 Tb291 2.500 . S
O309 C311 1.273 . S
O310 Tb291 2.473 . S
O310 C311 1.257 . S
C311 O309 1.273 . S
C311 O310 1.257 . S
O312 Eu292 2.326 . S
O312 C300 1.242 . S
O313 Tb291 2.324 . S
O313 C300 1.258 . S
O314 Eu292 2.500 1_655 S
O314 C297 1.273 . S
O315 Eu292 2.473 1_655 S
O315 C297 1.257 . S
H316 C302 0.929 . S
H317 C304 0.931 . S
H318 C306 0.929 . S
O319 Tb320 2.292 . S
O319 C322 1.255 . S
Tb320 O319 2.292 . S
Tb320 O336 2.326 . S
Tb320 O338 2.500 . S
Tb320 O339 2.473 . S
Tb320 O342 2.324 . S
Eu321 O325 2.292 . S
Eu321 C326 2.852 . S
Eu321 O337 2.324 . S
Eu321 O341 2.326 . S
Eu321 O343 2.500 . S
Eu321 O344 2.473 . S
C322 O319 1.255 . S
C322 O323 1.247 . S
O323 C322 1.247 . S
C324 O336 1.242 . S
C324 O337 1.258 . S
O325 Eu321 2.292 . S
O325 C327 1.255 . S
C326 Eu321 2.852 . S
C326 C330 1.503 . S
C326 O343 1.273 . S
C326 O344 1.257 . S
C327 O325 1.255 . S
C327 O328 1.247 . S
O328 C327 1.247 . S
C329 O341 1.242 . S
C329 O342 1.258 . S
C330 C326 1.503 . S
C330 C331 1.379 . S
C330 C335 1.392 . S
C331 C330 1.379 . S
C331 C332 1.404 . S
C331 H345 0.929 . S
C332 C331 1.404 . S
C332 C333 1.389 . S
C333 C332 1.389 . S
C333 C334 1.399 . S
C333 H346 0.931 . S
C334 C333 1.399 . S
C334 C335 1.390 . S
C335 C330 1.392 . S
C335 C334 1.390 . S
C335 H347 0.929 . S
O336 Tb320 2.326 . S
O336 C324 1.242 . S
O337 Eu321 2.324 . S
O337 C324 1.258 . S
O338 Tb320 2.500 . S
O338 C340 1.273 . S
O339 Tb320 2.473 . S
O339 C340 1.257 . S
C340 O338 1.273 . S
C340 O339 1.257 . S
O341 Eu321 2.326 . S
O341 C329 1.242 . S
O342 Tb320 2.324 . S
O342 C329 1.258 . S
O343 Eu321 2.500 . S
O343 C326 1.273 . S
O344 Eu321 2.473 . S
O344 C326 1.257 . S
H345 C331 0.929 . S
H346 C333 0.931 . S
H347 C335 0.929 . S
O348 Tb349 2.292 . S
O348 C351 1.255 . S
Tb349 O348 2.292 . S
Tb349 O365 2.326 . S
Tb349 O367 2.500 . S
Tb349 O368 2.473 . S
Tb349 O371 2.324 . S
Eu350 O354 2.292 . S
Eu350 C355 2.852 . S
Eu350 O366 2.324 . S
Eu350 O370 2.326 . S
Eu350 O372 2.500 . S
Eu350 O373 2.473 . S
C351 O348 1.255 . S
C351 O352 1.247 . S
O352 C351 1.247 . S
C353 O365 1.242 . S
C353 O366 1.258 . S
O354 Eu350 2.292 . S
O354 C356 1.255 . S
C355 Eu350 2.852 . S
C355 C359 1.503 . S
C355 O372 1.273 . S
C355 O373 1.257 . S
C356 O354 1.255 . S
C356 O357 1.247 . S
O357 C356 1.247 . S
C358 O370 1.242 . S
C358 O371 1.258 . S
C359 C355 1.503 . S
C359 C360 1.379 . S
C359 C364 1.392 . S
C360 C359 1.379 . S
C360 C361 1.404 . S
C360 H374 0.929 . S
C361 C360 1.404 . S
C361 C362 1.389 . S
C362 C361 1.389 . S
C362 C363 1.399 . S
C362 H375 0.931 . S
C363 C362 1.399 . S
C363 C364 1.390 . S
C364 C359 1.392 . S
C364 C363 1.390 . S
C364 H376 0.929 . S
O365 Tb349 2.326 . S
O365 C353 1.242 . S
O366 Eu350 2.324 . S
O366 C353 1.258 . S
O367 Tb349 2.500 . S
O367 C369 1.273 . S
O368 Tb349 2.473 . S
O368 C369 1.257 . S
C369 O367 1.273 . S
C369 O368 1.257 . S
O370 Eu350 2.326 . S
O370 C358 1.242 . S
O371 Tb349 2.324 . S
O371 C358 1.258 . S
O372 Eu350 2.500 . S
O372 C355 1.273 . S
O373 Eu350 2.473 . S
O373 C355 1.257 . S
H374 C360 0.929 . S
H375 C362 0.931 . S
H376 C364 0.929 . S
O377 Tb378 2.292 . S
O377 C380 1.255 . S
Tb378 O377 2.292 . S
Tb378 O394 2.326 . S
Tb378 O396 2.500 . S
Tb378 O397 2.473 . S
Tb378 O400 2.324 . S
Eu379 O383 2.292 1_455 S
Eu379 C384 2.852 1_455 S
Eu379 O395 2.324 . S
Eu379 O399 2.326 . S
Eu379 O401 2.500 1_455 S
Eu379 O402 2.473 1_455 S
C380 O377 1.255 . S
C380 O381 1.247 . S
O381 C380 1.247 . S
C382 O394 1.242 . S
C382 O395 1.258 . S
O383 Eu379 2.292 1_655 S
O383 C385 1.255 . S
C384 Eu379 2.852 1_655 S
C384 C388 1.503 . S
C384 O401 1.273 . S
C384 O402 1.257 . S
C385 O383 1.255 . S
C385 O386 1.247 1_655 S
O386 C385 1.247 1_455 S
C387 O399 1.242 . S
C387 O400 1.258 . S
C388 C384 1.503 . S
C388 C389 1.379 . S
C388 C393 1.392 . S
C389 C388 1.379 . S
C389 C390 1.404 . S
C389 H403 0.929 . S
C390 C389 1.404 . S
C390 C391 1.389 . S
C391 C390 1.389 . S
C391 C392 1.399 . S
C391 H404 0.931 . S
C392 C391 1.399 . S
C392 C393 1.390 . S
C393 C388 1.392 . S
C393 C392 1.390 . S
C393 H405 0.929 . S
O394 Tb378 2.326 . S
O394 C382 1.242 . S
O395 Eu379 2.324 . S
O395 C382 1.258 . S
O396 Tb378 2.500 . S
O396 C398 1.273 . S
O397 Tb378 2.473 . S
O397 C398 1.257 . S
C398 O396 1.273 . S
C398 O397 1.257 . S
O399 Eu379 2.326 . S
O399 C387 1.242 . S
O400 Tb378 2.324 . S
O400 C387 1.258 . S
O401 Eu379 2.500 1_655 S
O401 C384 1.273 . S
O402 Eu379 2.473 1_655 S
O402 C384 1.257 . S
H403 C389 0.929 . S
H404 C391 0.931 . S
H405 C393 0.929 . S
O406 Tb407 2.292 . S
O406 C409 1.255 . S
Tb407 O406 2.292 . S
Tb407 O423 2.326 . S
Tb407 O425 2.500 . S
Tb407 O426 2.473 . S
Tb407 O429 2.324 . S
Eu408 O412 2.292 1_655 S
Eu408 C413 2.852 1_655 S
Eu408 O424 2.324 . S
Eu408 O428 2.326 . S
Eu408 O430 2.500 1_655 S
Eu408 O431 2.473 1_655 S
C409 O406 1.255 . S
C409 O410 1.247 . S
O410 C409 1.247 . S
C411 O423 1.242 . S
C411 O424 1.258 . S
O412 Eu408 2.292 1_455 S
O412 C414 1.255 . S
C413 Eu408 2.852 1_455 S
C413 C417 1.503 . S
C413 O430 1.273 . S
C413 O431 1.257 . S
C414 O412 1.255 . S
C414 O415 1.247 1_455 S
O415 C414 1.247 1_655 S
C416 O428 1.242 . S
C416 O429 1.258 . S
C417 C413 1.503 . S
C417 C418 1.379 . S
C417 C422 1.392 . S
C418 C417 1.379 . S
C418 C419 1.404 . S
C418 H432 0.929 . S
C419 C418 1.404 . S
C419 C420 1.389 . S
C420 C419 1.389 . S
C420 C421 1.399 . S
C420 H433 0.931 . S
C421 C420 1.399 . S
C421 C422 1.390 . S
C422 C417 1.392 . S
C422 C421 1.390 . S
C422 H434 0.929 . S
O423 Tb407 2.326 . S
O423 C411 1.242 . S
O424 Eu408 2.324 . S
O424 C411 1.258 . S
O425 Tb407 2.500 . S
O425 C427 1.273 . S
O426 Tb407 2.473 . S
O426 C427 1.257 . S
C427 O425 1.273 . S
C427 O426 1.257 . S
O428 Eu408 2.326 . S
O428 C416 1.242 . S
O429 Tb407 2.324 . S
O429 C416 1.258 . S
O430 Eu408 2.500 1_455 S
O430 C413 1.273 . S
O431 Eu408 2.473 1_455 S
O431 C413 1.257 . S
H432 C418 0.929 . S
H433 C420 0.931 . S
H434 C422 0.929 . S
O435 Tb436 2.292 . S
O435 C438 1.255 . S
Tb436 O435 2.292 . S
Tb436 O452 2.326 . S
Tb436 O454 2.500 . S
Tb436 O455 2.473 . S
Tb436 O458 2.324 . S
Eu437 O441 2.292 . S
Eu437 C442 2.852 . S
Eu437 O453 2.324 . S
Eu437 O457 2.326 . S
Eu437 O459 2.500 . S
Eu437 O460 2.473 . S
C438 O435 1.255 . S
C438 O439 1.247 . S
O439 C438 1.247 . S
C440 O452 1.242 . S
C440 O453 1.258 . S
O441 Eu437 2.292 . S
O441 C443 1.255 . S
C442 Eu437 2.852 . S
C442 C446 1.503 . S
C442 O459 1.273 . S
C442 O460 1.257 . S
C443 O441 1.255 . S
C443 O444 1.247 . S
O444 C443 1.247 . S
C445 O457 1.242 . S
C445 O458 1.258 . S
C446 C442 1.503 . S
C446 C447 1.379 . S
C446 C451 1.392 . S
C447 C446 1.379 . S
C447 C448 1.404 . S
C447 H461 0.929 . S
C448 C447 1.404 . S
C448 C449 1.389 . S
C449 C448 1.389 . S
C449 C450 1.399 . S
C449 H462 0.931 . S
C450 C449 1.399 . S
C450 C451 1.390 . S
C451 C446 1.392 . S
C451 C450 1.390 . S
C451 H463 0.929 . S
O452 Tb436 2.326 . S
O452 C440 1.242 . S
O453 Eu437 2.324 . S
O453 C440 1.258 . S
O454 Tb436 2.500 . S
O454 C456 1.273 . S
O455 Tb436 2.473 . S
O455 C456 1.257 . S
C456 O454 1.273 . S
C456 O455 1.257 . S
O457 Eu437 2.326 . S
O457 C445 1.242 . S
O458 Tb436 2.324 . S
O458 C445 1.258 . S
O459 Eu437 2.500 . S
O459 C442 1.273 . S
O460 Eu437 2.473 . S
O460 C442 1.257 . S
H461 C447 0.929 . S
H462 C449 0.931 . S
H463 C451 0.929 . S
C464 C465 1.349 . S
C464 C466 1.327 . S
C464 H489 0.950 . S
C465 C464 1.349 . S
C465 C481 1.349 . S
C466 C464 1.327 . S
C466 C485 1.429 . S
C466 H490 0.950 . S
C467 C484 1.574 . S
C467 C486 1.368 . S
C467 H491 0.949 . S
H468 C472 0.949 . S
C469 C470 1.349 . S
C469 C471 1.327 . S
C469 H492 0.950 . S
C470 C469 1.349 . S
C470 C482 1.349 . S
C471 C469 1.327 . S
C471 C487 1.429 . S
C471 H493 0.950 . S
C472 H468 0.949 . S
C472 C480 1.574 . S
C472 C488 1.368 . S
H473 C481 0.950 . S
H474 C479 0.950 . S
H475 C480 0.949 . S
H476 C482 0.950 . S
H477 C483 0.950 . S
H478 C484 0.949 . S
C479 H474 0.950 . S
C479 C481 1.327 . S
C479 C485 1.429 . S
C480 C472 1.574 . S
C480 H475 0.949 . S
C480 C486 1.368 . S
C481 C465 1.349 . S
C481 H473 0.950 . S
C481 C479 1.327 . S
C482 C470 1.349 . S
C482 H476 0.950 . S
C482 C483 1.327 . S
C483 H477 0.950 . S
C483 C482 1.327 . S
C483 C487 1.429 . S
C484 C467 1.574 . S
C484 H478 0.949 . S
C484 C488 1.368 . S
C485 C466 1.429 . S
C485 C479 1.429 . S
C485 C486 1.523 . S
C486 C467 1.368 . S
C486 C480 1.368 . S
C486 C485 1.523 . S
C487 C471 1.429 . S
C487 C483 1.429 . S
C487 C488 1.523 . S
C488 C472 1.368 . S
C488 C484 1.368 . S
C488 C487 1.523 . S
H489 C464 0.950 . S
H490 C466 0.950 . S
H491 C467 0.949 . S
H492 C469 0.950 . S
H493 C471 0.950 . S
C494 C495 1.349 . S
C494 C496 1.327 . S
C494 H519 0.950 . S
C495 C494 1.349 . S
C495 C511 1.349 . S
C496 C494 1.327 . S
C496 C515 1.429 . S
C496 H520 0.950 . S
C497 C514 1.574 1_455 S
C497 C516 1.368 . S
C497 H521 0.949 . S
H498 C502 0.949 . S
C499 C500 1.349 . S
C499 C501 1.327 . S
C499 H522 0.950 . S
C500 C499 1.349 . S
C500 C512 1.349 . S
C501 C499 1.327 . S
C501 C517 1.429 . S
C501 H523 0.950 . S
C502 H498 0.949 . S
C502 C510 1.574 1_655 S
C502 C518 1.368 . S
H503 C511 0.950 . S
H504 C509 0.950 . S
H505 C510 0.949 . S
H506 C512 0.950 . S
H507 C513 0.950 . S
H508 C514 0.949 . S
C509 H504 0.950 . S
C509 C511 1.327 . S
C509 C515 1.429 . S
C510 C502 1.574 1_455 S
C510 H505 0.949 . S
C510 C516 1.368 . S
C511 C495 1.349 . S
C511 H503 0.950 . S
C511 C509 1.327 . S
C512 C500 1.349 . S
C512 H506 0.950 . S
C512 C513 1.327 . S
C513 H507 0.950 . S
C513 C512 1.327 . S
C513 C517 1.429 . S
C514 C497 1.574 1_655 S
C514 H508 0.949 . S
C514 C518 1.368 . S
C515 C496 1.429 . S
C515 C509 1.429 . S
C515 C516 1.523 . S
C516 C497 1.368 . S
C516 C510 1.368 . S
C516 C515 1.523 . S
C517 C501 1.429 . S
C517 C513 1.429 . S
C517 C518 1.523 . S
C518 C502 1.368 . S
C518 C514 1.368 . S
C518 C517 1.523 . S
H519 C494 0.950 . S
H520 C496 0.950 . S
H521 C497 0.949 . S
H522 C499 0.950 . S
H523 C501 0.950 . S
C524 C525 1.349 . S
C524 C526 1.327 . S
C524 H549 0.950 . S
C525 C524 1.349 . S
C525 C541 1.349 . S
C526 C524 1.327 . S
C526 C545 1.429 . S
C526 H550 0.950 . S
C527 C544 1.574 1_655 S
C527 C546 1.368 . S
C527 H551 0.949 . S
H528 C532 0.949 . S
C529 C530 1.349 . S
C529 C531 1.327 . S
C529 H552 0.950 . S
C530 C529 1.349 . S
C530 C542 1.349 . S
C531 C529 1.327 . S
C531 C547 1.429 . S
C531 H553 0.950 . S
C532 H528 0.949 . S
C532 C540 1.574 1_455 S
C532 C548 1.368 . S
H533 C541 0.950 . S
H534 C539 0.950 . S
H535 C540 0.949 . S
H536 C542 0.950 . S
H537 C543 0.950 . S
H538 C544 0.949 . S
C539 H534 0.950 . S
C539 C541 1.327 . S
C539 C545 1.429 . S
C540 C532 1.574 1_655 S
C540 H535 0.949 . S
C540 C546 1.368 . S
C541 C525 1.349 . S
C541 H533 0.950 . S
C541 C539 1.327 . S
C542 C530 1.349 . S
C542 H536 0.950 . S
C542 C543 1.327 . S
C543 H537 0.950 . S
C543 C542 1.327 . S
C543 C547 1.429 . S
C544 C527 1.574 1_455 S
C544 H538 0.949 . S
C544 C548 1.368 . S
C545 C526 1.429 . S
C545 C539 1.429 . S
C545 C546 1.523 . S
C546 C527 1.368 . S
C546 C540 1.368 . S
C546 C545 1.523 . S
C547 C531 1.429 . S
C547 C543 1.429 . S
C547 C548 1.523 . S
C548 C532 1.368 . S
C548 C544 1.368 . S
C548 C547 1.523 . S
H549 C524 0.950 . S
H550 C526 0.950 . S
H551 C527 0.949 . S
H552 C529 0.950 . S
H553 C531 0.950 . S
C554 C555 1.349 . S
C554 C556 1.327 . S
C554 H579 0.950 . S
C555 C554 1.349 . S
C555 C571 1.349 . S
C556 C554 1.327 . S
C556 C575 1.429 . S
C556 H580 0.950 . S
C557 C574 1.574 . S
C557 C576 1.368 . S
C557 H581 0.949 . S
H558 C562 0.949 . S
C559 C560 1.349 . S
C559 C561 1.327 . S
C559 H582 0.950 . S
C560 C559 1.349 . S
C560 C572 1.349 . S
C561 C559 1.327 . S
C561 C577 1.429 . S
C561 H583 0.950 . S
C562 H558 0.949 . S
C562 C570 1.574 . S
C562 C578 1.368 . S
H563 C571 0.950 . S
H564 C569 0.950 . S
H565 C570 0.949 . S
H566 C572 0.950 . S
H567 C573 0.950 . S
H568 C574 0.949 . S
C569 H564 0.950 . S
C569 C571 1.327 . S
C569 C575 1.429 . S
C570 C562 1.574 . S
C570 H565 0.949 . S
C570 C576 1.368 . S
C571 C555 1.349 . S
C571 H563 0.950 . S
C571 C569 1.327 . S
C572 C560 1.349 . S
C572 H566 0.950 . S
C572 C573 1.327 . S
C573 H567 0.950 . S
C573 C572 1.327 . S
C573 C577 1.429 . S
C574 C557 1.574 . S
C574 H568 0.949 . S
C574 C578 1.368 . S
C575 C556 1.429 . S
C575 C569 1.429 . S
C575 C576 1.523 . S
C576 C557 1.368 . S
C576 C570 1.368 . S
C576 C575 1.523 . S
C577 C561 1.429 . S
C577 C573 1.429 . S
C577 C578 1.523 . S
C578 C562 1.368 . S
C578 C574 1.368 . S
C578 C577 1.523 . S
H579 C554 0.950 . S
H580 C556 0.950 . S
H581 C557 0.949 . S
H582 C559 0.950 . S
H583 C561 0.950 . S
C584 C585 1.349 . S
C584 C586 1.327 . S
C584 H609 0.950 . S
C585 C584 1.349 . S
C585 C601 1.349 . S
C586 C584 1.327 . S
C586 C605 1.429 . S
C586 H610 0.950 . S
C587 C604 1.574 . S
C587 C606 1.368 . S
C587 H611 0.949 . S
H588 C592 0.949 . S
C589 C590 1.349 . S
C589 C591 1.327 . S
C589 H612 0.950 . S
C590 C589 1.349 . S
C590 C602 1.349 . S
C591 C589 1.327 . S
C591 C607 1.429 . S
C591 H613 0.950 . S
C592 H588 0.949 . S
C592 C600 1.574 . S
C592 C608 1.368 . S
H593 C601 0.950 . S
H594 C599 0.950 . S
H595 C600 0.949 . S
H596 C602 0.950 . S
H597 C603 0.950 . S
H598 C604 0.949 . S
C599 H594 0.950 . S
C599 C601 1.327 . S
C599 C605 1.429 . S
C600 C592 1.574 . S
C600 H595 0.949 . S
C600 C606 1.368 . S
C601 C585 1.349 . S
C601 H593 0.950 . S
C601 C599 1.327 . S
C602 C590 1.349 . S
C602 H596 0.950 . S
C602 C603 1.327 . S
C603 H597 0.950 . S
C603 C602 1.327 . S
C603 C607 1.429 . S
C604 C587 1.574 . S
C604 H598 0.949 . S
C604 C608 1.368 . S
C605 C586 1.429 . S
C605 C599 1.429 . S
C605 C606 1.523 . S
C606 C587 1.368 . S
C606 C600 1.368 . S
C606 C605 1.523 . S
C607 C591 1.429 . S
C607 C603 1.429 . S
C607 C608 1.523 . S
C608 C592 1.368 . S
C608 C604 1.368 . S
C608 C607 1.523 . S
H609 C584 0.950 . S
H610 C586 0.950 . S
H611 C587 0.949 . S
H612 C589 0.950 . S
H613 C591 0.950 . S
C614 C615 1.349 . S
C614 C616 1.327 . S
C614 H639 0.950 . S
C615 C614 1.349 . S
C615 C631 1.349 . S
C616 C614 1.327 . S
C616 C635 1.429 . S
C616 H640 0.950 . S
C617 C634 1.574 1_455 S
C617 C636 1.368 . S
C617 H641 0.949 . S
H618 C622 0.949 . S
C619 C620 1.349 . S
C619 C621 1.327 . S
C619 H642 0.950 . S
C620 C619 1.349 . S
C620 C632 1.349 . S
C621 C619 1.327 . S
C621 C637 1.429 . S
C621 H643 0.950 . S
C622 H618 0.949 . S
C622 C630 1.574 1_655 S
C622 C638 1.368 . S
H623 C631 0.950 . S
H624 C629 0.950 . S
H625 C630 0.949 . S
H626 C632 0.950 . S
H627 C633 0.950 . S
H628 C634 0.949 . S
C629 H624 0.950 . S
C629 C631 1.327 . S
C629 C635 1.429 . S
C630 C622 1.574 1_455 S
C630 H625 0.949 . S
C630 C636 1.368 . S
C631 C615 1.349 . S
C631 H623 0.950 . S
C631 C629 1.327 . S
C632 C620 1.349 . S
C632 H626 0.950 . S
C632 C633 1.327 . S
C633 H627 0.950 . S
C633 C632 1.327 . S
C633 C637 1.429 . S
C634 C617 1.574 1_655 S
C634 H628 0.949 . S
C634 C638 1.368 . S
C635 C616 1.429 . S
C635 C629 1.429 . S
C635 C636 1.523 . S
C636 C617 1.368 . S
C636 C630 1.368 . S
C636 C635 1.523 . S
C637 C621 1.429 . S
C637 C633 1.429 . S
C637 C638 1.523 . S
C638 C622 1.368 . S
C638 C634 1.368 . S
C638 C637 1.523 . S
H639 C614 0.950 . S
H640 C616 0.950 . S
H641 C617 0.949 . S
H642 C619 0.950 . S
H643 C621 0.950 . S
C644 C645 1.349 . S
C644 C646 1.327 . S
C644 H669 0.950 . S
C645 C644 1.349 . S
C645 C661 1.349 . S
C646 C644 1.327 . S
C646 C665 1.429 . S
C646 H670 0.950 . S
C647 C664 1.574 1_655 S
C647 C666 1.368 . S
C647 H671 0.949 . S
H648 C652 0.949 . S
C649 C650 1.349 . S
C649 C651 1.327 . S
C649 H672 0.950 . S
C650 C649 1.349 . S
C650 C662 1.349 . S
C651 C649 1.327 . S
C651 C667 1.429 . S
C651 H673 0.950 . S
C652 H648 0.949 . S
C652 C660 1.574 1_455 S
C652 C668 1.368 . S
H653 C661 0.950 . S
H654 C659 0.950 . S
H655 C660 0.949 . S
H656 C662 0.950 . S
H657 C663 0.950 . S
H658 C664 0.949 . S
C659 H654 0.950 . S
C659 C661 1.327 . S
C659 C665 1.429 . S
C660 C652 1.574 1_655 S
C660 H655 0.949 . S
C660 C666 1.368 . S
C661 C645 1.349 . S
C661 H653 0.950 . S
C661 C659 1.327 . S
C662 C650 1.349 . S
C662 H656 0.950 . S
C662 C663 1.327 . S
C663 H657 0.950 . S
C663 C662 1.327 . S
C663 C667 1.429 . S
C664 C647 1.574 1_455 S
C664 H658 0.949 . S
C664 C668 1.368 . S
C665 C646 1.429 . S
C665 C659 1.429 . S
C665 C666 1.523 . S
C666 C647 1.368 . S
C666 C660 1.368 . S
C666 C665 1.523 . S
C667 C651 1.429 . S
C667 C663 1.429 . S
C667 C668 1.523 . S
C668 C652 1.368 . S
C668 C664 1.368 . S
C668 C667 1.523 . S
H669 C644 0.950 . S
H670 C646 0.950 . S
H671 C647 0.949 . S
H672 C649 0.950 . S
H673 C651 0.950 . S
C674 C675 1.349 . S
C674 C676 1.327 . S
C674 H699 0.950 . S
C675 C674 1.349 . S
C675 C691 1.349 . S
C676 C674 1.327 . S
C676 C695 1.429 . S
C676 H700 0.950 . S
C677 C694 1.574 . S
C677 C696 1.368 . S
C677 H701 0.949 . S
H678 C682 0.949 . S
C679 C680 1.349 . S
C679 C681 1.327 . S
C679 H702 0.950 . S
C680 C679 1.349 . S
C680 C692 1.349 . S
C681 C679 1.327 . S
C681 C697 1.429 . S
C681 H703 0.950 . S
C682 H678 0.949 . S
C682 C690 1.574 . S
C682 C698 1.368 . S
H683 C691 0.950 . S
H684 C689 0.950 . S
H685 C690 0.949 . S
H686 C692 0.950 . S
H687 C693 0.950 . S
H688 C694 0.949 . S
C689 H684 0.950 . S
C689 C691 1.327 . S
C689 C695 1.429 . S
C690 C682 1.574 . S
C690 H685 0.949 . S
C690 C696 1.368 . S
C691 C675 1.349 . S
C691 H683 0.950 . S
C691 C689 1.327 . S
C692 C680 1.349 . S
C692 H686 0.950 . S
C692 C693 1.327 . S
C693 H687 0.950 . S
C693 C692 1.327 . S
C693 C697 1.429 . S
C694 C677 1.574 . S
C694 H688 0.949 . S
C694 C698 1.368 . S
C695 C676 1.429 . S
C695 C689 1.429 . S
C695 C696 1.523 . S
C696 C677 1.368 . S
C696 C690 1.368 . S
C696 C695 1.523 . S
C697 C681 1.429 . S
C697 C693 1.429 . S
C697 C698 1.523 . S
C698 C682 1.368 . S
C698 C694 1.368 . S
C698 C697 1.523 . S
H699 C674 0.950 . S
H700 C676 0.950 . S
H701 C677 0.949 . S
H702 C679 0.950 . S
H703 C681 0.950 . S
C704 C705 1.349 . S
C704 C706 1.327 . S
C704 H729 0.950 . S
C705 C704 1.349 . S
C705 C721 1.349 . S
C706 C704 1.327 . S
C706 C725 1.429 . S
C706 H730 0.950 . S
C707 C724 1.574 1_655 S
C707 C726 1.368 . S
C707 H731 0.949 . S
H708 C712 0.949 . S
C709 C710 1.349 . S
C709 C711 1.327 . S
C709 H732 0.950 . S
C710 C709 1.349 . S
C710 C722 1.349 . S
C711 C709 1.327 . S
C711 C727 1.429 . S
C711 H733 0.950 . S
C712 H708 0.949 . S
C712 C720 1.574 1_455 S
C712 C728 1.368 . S
H713 C721 0.950 . S
H714 C719 0.950 . S
H715 C720 0.949 . S
H716 C722 0.950 . S
H717 C723 0.950 . S
H718 C724 0.949 . S
C719 H714 0.950 . S
C719 C721 1.327 . S
C719 C725 1.429 . S
C720 C712 1.574 1_655 S
C720 H715 0.949 . S
C720 C726 1.368 . S
C721 C705 1.349 . S
C721 H713 0.950 . S
C721 C719 1.327 . S
C722 C710 1.349 . S
C722 H716 0.950 . S
C722 C723 1.327 . S
C723 H717 0.950 . S
C723 C722 1.327 . S
C723 C727 1.429 . S
C724 C707 1.574 1_455 S
C724 H718 0.949 . S
C724 C728 1.368 . S
C725 C706 1.429 . S
C725 C719 1.429 . S
C725 C726 1.523 . S
C726 C707 1.368 . S
C726 C720 1.368 . S
C726 C725 1.523 . S
C727 C711 1.429 . S
C727 C723 1.429 . S
C727 C728 1.523 . S
C728 C712 1.368 . S
C728 C724 1.368 . S
C728 C727 1.523 . S
H729 C704 0.950 . S
H730 C706 0.950 . S
H731 C707 0.949 . S
H732 C709 0.950 . S
H733 C711 0.950 . S
C734 C735 1.349 . S
C734 C736 1.327 . S
C734 H759 0.950 . S
C735 C734 1.349 . S
C735 C751 1.349 . S
C736 C734 1.327 . S
C736 C755 1.429 . S
C736 H760 0.950 . S
C737 C754 1.574 . S
C737 C756 1.368 . S
C737 H761 0.949 . S
H738 C742 0.949 . S
C739 C740 1.349 . S
C739 C741 1.327 . S
C739 H762 0.950 . S
C740 C739 1.349 . S
C740 C752 1.349 . S
C741 C739 1.327 . S
C741 C757 1.429 . S
C741 H763 0.950 . S
C742 H738 0.949 . S
C742 C750 1.574 . S
C742 C758 1.368 . S
H743 C751 0.950 . S
H744 C749 0.950 . S
H745 C750 0.949 . S
H746 C752 0.950 . S
H747 C753 0.950 . S
H748 C754 0.949 . S
C749 H744 0.950 . S
C749 C751 1.327 . S
C749 C755 1.429 . S
C750 C742 1.574 . S
C750 H745 0.949 . S
C750 C756 1.368 . S
C751 C735 1.349 . S
C751 H743 0.950 . S
C751 C749 1.327 . S
C752 C740 1.349 . S
C752 H746 0.950 . S
C752 C753 1.327 . S
C753 H747 0.950 . S
C753 C752 1.327 . S
C753 C757 1.429 . S
C754 C737 1.574 . S
C754 H748 0.949 . S
C754 C758 1.368 . S
C755 C736 1.429 . S
C755 C749 1.429 . S
C755 C756 1.523 . S
C756 C737 1.368 . S
C756 C750 1.368 . S
C756 C755 1.523 . S
C757 C741 1.429 . S
C757 C753 1.429 . S
C757 C758 1.523 . S
C758 C742 1.368 . S
C758 C754 1.368 . S
C758 C757 1.523 . S
H759 C734 0.950 . S
H760 C736 0.950 . S
H761 C737 0.949 . S
H762 C739 0.950 . S
H763 C741 0.950 . S
C764 C765 1.349 . S
C764 C766 1.327 . S
C764 H789 0.950 . S
C765 C764 1.349 . S
C765 C781 1.349 . S
C766 C764 1.327 . S
C766 C785 1.429 . S
C766 H790 0.950 . S
C767 C784 1.574 . S
C767 C786 1.368 . S
C767 H791 0.949 . S
H768 C772 0.949 . S
C769 C770 1.349 . S
C769 C771 1.327 . S
C769 H792 0.950 . S
C770 C769 1.349 . S
C770 C782 1.349 . S
C771 C769 1.327 . S
C771 C787 1.429 . S
C771 H793 0.950 . S
C772 H768 0.949 . S
C772 C780 1.574 . S
C772 C788 1.368 . S
H773 C781 0.950 . S
H774 C779 0.950 . S
H775 C780 0.949 . S
H776 C782 0.950 . S
H777 C783 0.950 . S
H778 C784 0.949 . S
C779 H774 0.950 . S
C779 C781 1.327 . S
C779 C785 1.429 . S
C780 C772 1.574 . S
C780 H775 0.949 . S
C780 C786 1.368 . S
C781 C765 1.349 . S
C781 H773 0.950 . S
C781 C779 1.327 . S
C782 C770 1.349 . S
C782 H776 0.950 . S
C782 C783 1.327 . S
C783 H777 0.950 . S
C783 C782 1.327 . S
C783 C787 1.429 . S
C784 C767 1.574 . S
C784 H778 0.949 . S
C784 C788 1.368 . S
C785 C766 1.429 . S
C785 C779 1.429 . S
C785 C786 1.523 . S
C786 C767 1.368 . S
C786 C780 1.368 . S
C786 C785 1.523 . S
C787 C771 1.429 . S
C787 C783 1.429 . S
C787 C788 1.523 . S
C788 C772 1.368 . S
C788 C784 1.368 . S
C788 C787 1.523 . S
H789 C764 0.950 . S
H790 C766 0.950 . S
H791 C767 0.949 . S
H792 C769 0.950 . S
H793 C771 0.950 . S
C794 C795 1.349 . S
C794 C796 1.327 . S
C794 H819 0.950 . S
C795 C794 1.349 . S
C795 C811 1.349 . S
C796 C794 1.327 . S
C796 C815 1.429 . S
C796 H820 0.950 . S
C797 C814 1.574 1_455 S
C797 C816 1.368 . S
C797 H821 0.949 . S
H798 C802 0.949 . S
C799 C800 1.349 . S
C799 C801 1.327 . S
C799 H822 0.950 . S
C800 C799 1.349 . S
C800 C812 1.349 . S
C801 C799 1.327 . S
C801 C817 1.429 . S
C801 H823 0.950 . S
C802 H798 0.949 . S
C802 C810 1.574 1_655 S
C802 C818 1.368 . S
H803 C811 0.950 . S
H804 C809 0.950 . S
H805 C810 0.949 . S
H806 C812 0.950 . S
H807 C813 0.950 . S
H808 C814 0.949 . S
C809 H804 0.950 . S
C809 C811 1.327 . S
C809 C815 1.429 . S
C810 C802 1.574 1_455 S
C810 H805 0.949 . S
C810 C816 1.368 . S
C811 C795 1.349 . S
C811 H803 0.950 . S
C811 C809 1.327 . S
C812 C800 1.349 . S
C812 H806 0.950 . S
C812 C813 1.327 . S
C813 H807 0.950 . S
C813 C812 1.327 . S
C813 C817 1.429 . S
C814 C797 1.574 1_655 S
C814 H808 0.949 . S
C814 C818 1.368 . S
C815 C796 1.429 . S
C815 C809 1.429 . S
C815 C816 1.523 . S
C816 C797 1.368 . S
C816 C810 1.368 . S
C816 C815 1.523 . S
C817 C801 1.429 . S
C817 C813 1.429 . S
C817 C818 1.523 . S
C818 C802 1.368 . S
C818 C814 1.368 . S
C818 C817 1.523 . S
H819 C794 0.950 . S
H820 C796 0.950 . S
H821 C797 0.949 . S
H822 C799 0.950 . S
H823 C801 0.950 . S
C824 C825 1.349 . S
C824 C826 1.327 . S
C824 H849 0.950 . S
C825 C824 1.349 . S
C825 C841 1.349 . S
C826 C824 1.327 . S
C826 C845 1.429 . S
C826 H850 0.950 . S
C827 C844 1.574 1_455 S
C827 C846 1.368 . S
C827 H851 0.949 . S
H828 C832 0.949 . S
C829 C830 1.349 . S
C829 C831 1.327 . S
C829 H852 0.950 . S
C830 C829 1.349 . S
C830 C842 1.349 . S
C831 C829 1.327 . S
C831 C847 1.429 . S
C831 H853 0.950 . S
C832 H828 0.949 . S
C832 C840 1.574 1_655 S
C832 C848 1.368 . S
H833 C841 0.950 . S
H834 C839 0.950 . S
H835 C840 0.949 . S
H836 C842 0.950 . S
H837 C843 0.950 . S
H838 C844 0.949 . S
C839 H834 0.950 . S
C839 C841 1.327 . S
C839 C845 1.429 . S
C840 C832 1.574 1_455 S
C840 H835 0.949 . S
C840 C846 1.368 . S
C841 C825 1.349 . S
C841 H833 0.950 . S
C841 C839 1.327 . S
C842 C830 1.349 . S
C842 H836 0.950 . S
C842 C843 1.327 . S
C843 H837 0.950 . S
C843 C842 1.327 . S
C843 C847 1.429 . S
C844 C827 1.574 1_655 S
C844 H838 0.949 . S
C844 C848 1.368 . S
C845 C826 1.429 . S
C845 C839 1.429 . S
C845 C846 1.523 . S
C846 C827 1.368 . S
C846 C840 1.368 . S
C846 C845 1.523 . S
C847 C831 1.429 . S
C847 C843 1.429 . S
C847 C848 1.523 . S
C848 C832 1.368 . S
C848 C844 1.368 . S
C848 C847 1.523 . S
H849 C824 0.950 . S
H850 C826 0.950 . S
H851 C827 0.949 . S
H852 C829 0.950 . S
H853 C831 0.950 . S
C854 C855 1.349 . S
C854 C856 1.327 . S
C854 H879 0.950 . S
C855 C854 1.349 . S
C855 C871 1.349 . S
C856 C854 1.327 . S
C856 C875 1.429 . S
C856 H880 0.950 . S
C857 C874 1.574 . S
C857 C876 1.368 . S
C857 H881 0.949 . S
H858 C862 0.949 . S
C859 C860 1.349 . S
C859 C861 1.327 . S
C859 H882 0.950 . S
C860 C859 1.349 . S
C860 C872 1.349 . S
C861 C859 1.327 . S
C861 C877 1.429 . S
C861 H883 0.950 . S
C862 H858 0.949 . S
C862 C870 1.574 . S
C862 C878 1.368 . S
H863 C871 0.950 . S
H864 C869 0.950 . S
H865 C870 0.949 . S
H866 C872 0.950 . S
H867 C873 0.950 . S
H868 C874 0.949 . S
C869 H864 0.950 . S
C869 C871 1.327 . S
C869 C875 1.429 . S
C870 C862 1.574 . S
C870 H865 0.949 . S
C870 C876 1.368 . S
C871 C855 1.349 . S
C871 H863 0.950 . S
C871 C869 1.327 . S
C872 C860 1.349 . S
C872 H866 0.950 . S
C872 C873 1.327 . S
C873 H867 0.950 . S
C873 C872 1.327 . S
C873 C877 1.429 . S
C874 C857 1.574 . S
C874 H868 0.949 . S
C874 C878 1.368 . S
C875 C856 1.429 . S
C875 C869 1.429 . S
C875 C876 1.523 . S
C876 C857 1.368 . S
C876 C870 1.368 . S
C876 C875 1.523 . S
C877 C861 1.429 . S
C877 C873 1.429 . S
C877 C878 1.523 . S
C878 C862 1.368 . S
C878 C874 1.368 . S
C878 C877 1.523 . S
H879 C854 0.950 . S
H880 C856 0.950 . S
H881 C857 0.949 . S
H882 C859 0.950 . S
H883 C861 0.950 . S
C884 C885 1.349 . S
C884 C886 1.327 . S
C884 H909 0.950 . S
C885 C884 1.349 . S
C885 C901 1.349 . S
C886 C884 1.327 . S
C886 C905 1.429 . S
C886 H910 0.950 . S
C887 C904 1.574 . S
C887 C906 1.368 . S
C887 H911 0.949 . S
H888 C892 0.949 . S
C889 C890 1.349 . S
C889 C891 1.327 . S
C889 H912 0.950 . S
C890 C889 1.349 . S
C890 C902 1.349 . S
C891 C889 1.327 . S
C891 C907 1.429 . S
C891 H913 0.950 . S
C892 H888 0.949 . S
C892 C900 1.574 . S
C892 C908 1.368 . S
H893 C901 0.950 . S
H894 C899 0.950 . S
H895 C900 0.949 . S
H896 C902 0.950 . S
H897 C903 0.950 . S
H898 C904 0.949 . S
C899 H894 0.950 . S
C899 C901 1.327 . S
C899 C905 1.429 . S
C900 C892 1.574 . S
C900 H895 0.949 . S
C900 C906 1.368 . S
C901 C885 1.349 . S
C901 H893 0.950 . S
C901 C899 1.327 . S
C902 C890 1.349 . S
C902 H896 0.950 . S
C902 C903 1.327 . S
C903 H897 0.950 . S
C903 C902 1.327 . S
C903 C907 1.429 . S
C904 C887 1.574 . S
C904 H898 0.949 . S
C904 C908 1.368 . S
C905 C886 1.429 . S
C905 C899 1.429 . S
C905 C906 1.523 . S
C906 C887 1.368 . S
C906 C900 1.368 . S
C906 C905 1.523 . S
C907 C891 1.429 . S
C907 C903 1.429 . S
C907 C908 1.523 . S
C908 C892 1.368 . S
C908 C904 1.368 . S
C908 C907 1.523 . S
H909 C884 0.950 . S
H910 C886 0.950 . S
H911 C887 0.949 . S
H912 C889 0.950 . S
H913 C891 0.950 . S
C914 C915 1.349 . S
C914 C916 1.327 . S
C914 H939 0.950 . S
C915 C914 1.349 . S
C915 C931 1.349 . S
C916 C914 1.327 . S
C916 C935 1.429 . S
C916 H940 0.950 . S
C917 C934 1.574 1_455 S
C917 C936 1.368 . S
C917 H941 0.949 . S
H918 C922 0.949 . S
C919 C920 1.349 . S
C919 C921 1.327 . S
C919 H942 0.950 . S
C920 C919 1.349 . S
C920 C932 1.349 . S
C921 C919 1.327 . S
C921 C937 1.429 . S
C921 H943 0.950 . S
C922 H918 0.949 . S
C922 C930 1.574 1_655 S
C922 C938 1.368 . S
H923 C931 0.950 . S
H924 C929 0.950 . S
H925 C930 0.949 . S
H926 C932 0.950 . S
H927 C933 0.950 . S
H928 C934 0.949 . S
C929 H924 0.950 . S
C929 C931 1.327 . S
C929 C935 1.429 . S
C930 C922 1.574 1_455 S
C930 H925 0.949 . S
C930 C936 1.368 . S
C931 C915 1.349 . S
C931 H923 0.950 . S
C931 C929 1.327 . S
C932 C920 1.349 . S
C932 H926 0.950 . S
C932 C933 1.327 . S
C933 H927 0.950 . S
C933 C932 1.327 . S
C933 C937 1.429 . S
C934 C917 1.574 1_655 S
C934 H928 0.949 . S
C934 C938 1.368 . S
C935 C916 1.429 . S
C935 C929 1.429 . S
C935 C936 1.523 . S
C936 C917 1.368 . S
C936 C930 1.368 . S
C936 C935 1.523 . S
C937 C921 1.429 . S
C937 C933 1.429 . S
C937 C938 1.523 . S
C938 C922 1.368 . S
C938 C934 1.368 . S
C938 C937 1.523 . S
H939 C914 0.950 . S
H940 C916 0.950 . S
H941 C917 0.949 . S
H942 C919 0.950 . S
H943 C921 0.950 . S
C944 C945 1.349 . S
C944 C946 1.327 . S
C944 H969 0.950 . S
C945 C944 1.349 . S
C945 C961 1.349 . S
C946 C944 1.327 . S
C946 C965 1.429 . S
C946 H970 0.950 . S
C947 C964 1.574 . S
C947 C966 1.368 1_556 S
C947 H971 0.948 1_556 S
H948 C952 0.949 . S
C949 C950 1.349 . S
C949 C951 1.327 . S
C949 H972 0.950 . S
C950 C949 1.349 . S
C950 C962 1.349 . S
C951 C949 1.327 . S
C951 C967 1.429 . S
C951 H973 0.950 . S
C952 H948 0.949 . S
C952 C960 1.574 1_556 S
C952 C968 1.368 . S
H953 C961 0.950 . S
H954 C959 0.950 . S
H955 C960 0.949 . S
H956 C962 0.950 . S
H957 C963 0.950 . S
H958 C964 0.949 . S
C959 H954 0.950 . S
C959 C961 1.327 . S
C959 C965 1.429 . S
C960 C952 1.574 1_554 S
C960 H955 0.949 . S
C960 C966 1.368 . S
C961 C945 1.349 . S
C961 H953 0.950 . S
C961 C959 1.327 . S
C962 C950 1.349 . S
C962 H956 0.950 . S
C962 C963 1.327 . S
C963 H957 0.950 . S
C963 C962 1.327 . S
C963 C967 1.429 . S
C964 C947 1.574 . S
C964 H958 0.949 . S
C964 C968 1.368 . S
C965 C946 1.429 . S
C965 C959 1.429 . S
C965 C966 1.523 . S
C966 C947 1.368 1_554 S
C966 C960 1.368 . S
C966 C965 1.523 . S
C967 C951 1.429 . S
C967 C963 1.429 . S
C967 C968 1.523 . S
C968 C952 1.368 . S
C968 C964 1.368 . S
C968 C967 1.523 . S
H969 C944 0.950 . S
H970 C946 0.950 . S
H971 C947 0.948 1_554 S
H972 C949 0.950 . S
H973 C951 0.950 . S
C974 C975 1.349 . S
C974 C976 1.327 . S
C974 H999 0.950 . S
C975 C974 1.349 . S
C975 C991 1.349 . S
C976 C974 1.327 . S
C976 C995 1.429 . S
C976 H1000 0.950 . S
C977 C994 1.574 1_554 S
C977 C996 1.368 . S
C977 H1001 0.949 . S
H978 C982 0.949 . S
C979 C980 1.349 . S
C979 C981 1.327 . S
C979 H1002 0.950 . S
C980 C979 1.349 . S
C980 C992 1.349 . S
C981 C979 1.327 . S
C981 C997 1.429 . S
C981 H1003 0.950 . S
C982 H978 0.949 . S
C982 C990 1.574 . S
C982 C998 1.368 . S
H983 C991 0.950 . S
H984 C989 0.950 . S
H985 C990 0.949 . S
H986 C992 0.950 . S
H987 C993 0.950 . S
H988 C994 0.949 . S
C989 H984 0.950 . S
C989 C991 1.327 . S
C989 C995 1.429 . S
C990 C982 1.574 . S
C990 H985 0.949 . S
C990 C996 1.368 1_556 S
C991 C975 1.349 . S
C991 H983 0.950 . S
C991 C989 1.327 . S
C992 C980 1.349 . S
C992 H986 0.950 . S
C992 C993 1.327 . S
C993 H987 0.950 . S
C993 C992 1.327 . S
C993 C997 1.429 . S
C994 C977 1.574 1_556 S
C994 H988 0.949 . S
C994 C998 1.368 . S
C995 C976 1.429 . S
C995 C989 1.429 . S
C995 C996 1.523 . S
C996 C977 1.368 . S
C996 C990 1.368 1_554 S
C996 C995 1.523 . S
C997 C981 1.429 . S
C997 C993 1.429 . S
C997 C998 1.523 . S
C998 C982 1.368 . S
C998 C994 1.368 . S
C998 C997 1.523 . S
H999 C974 0.950 . S
H1000 C976 0.950 . S
H1001 C977 0.949 . S
H1002 C979 0.950 . S
H1003 C981 0.950 . S
C1004 C1005 1.349 . S
C1004 C1006 1.327 . S
C1004 H1029 0.950 . S
C1005 C1004 1.349 . S
C1005 C1021 1.349 . S
C1006 C1004 1.327 . S
C1006 C1025 1.429 . S
C1006 H1030 0.950 . S
C1007 C1024 1.574 . S
C1007 C1026 1.368 . S
C1007 H1031 0.949 . S
H1008 C1012 0.949 . S
C1009 C1010 1.349 . S
C1009 C1011 1.327 . S
C1009 H1032 0.950 . S
C1010 C1009 1.349 . S
C1010 C1022 1.349 . S
C1011 C1009 1.327 . S
C1011 C1027 1.429 . S
C1011 H1033 0.950 . S
C1012 H1008 0.949 . S
C1012 C1020 1.574 . S
C1012 C1028 1.368 . S
H1013 C1021 0.950 . S
H1014 C1019 0.950 . S
H1015 C1020 0.949 . S
H1016 C1022 0.950 . S
H1017 C1023 0.950 . S
H1018 C1024 0.949 . S
C1019 H1014 0.950 . S
C1019 C1021 1.327 . S
C1019 C1025 1.429 . S
C1020 C1012 1.574 . S
C1020 H1015 0.949 . S
C1020 C1026 1.368 . S
C1021 C1005 1.349 . S
C1021 H1013 0.950 . S
C1021 C1019 1.327 . S
C1022 C1010 1.349 . S
C1022 H1016 0.950 . S
C1022 C1023 1.327 . S
C1023 H1017 0.950 . S
C1023 C1022 1.327 . S
C1023 C1027 1.429 . S
C1024 C1007 1.574 . S
C1024 H1018 0.949 . S
C1024 C1028 1.368 . S
C1025 C1006 1.429 . S
C1025 C1019 1.429 . S
C1025 C1026 1.523 . S
C1026 C1007 1.368 . S
C1026 C1020 1.368 . S
C1026 C1025 1.523 . S
C1027 C1011 1.429 . S
C1027 C1023 1.429 . S
C1027 C1028 1.523 . S
C1028 C1012 1.368 . S
C1028 C1024 1.368 . S
C1028 C1027 1.523 . S
H1029 C1004 0.950 . S
H1030 C1006 0.950 . S
H1031 C1007 0.949 . S
H1032 C1009 0.950 . S
H1033 C1011 0.950 . S
C1034 C1035 1.349 . S
C1034 C1036 1.327 . S
C1034 H1059 0.950 . S
C1035 C1034 1.349 . S
C1035 C1051 1.349 . S
C1036 C1034 1.327 . S
C1036 C1055 1.429 . S
C1036 H1060 0.950 . S
C1037 C1054 1.574 . S
C1037 C1056 1.368 . S
C1037 H1061 0.949 . S
H1038 C1042 0.949 . S
C1039 C1040 1.349 . S
C1039 C1041 1.327 . S
C1039 H1062 0.950 . S
C1040 C1039 1.349 . S
C1040 C1052 1.349 . S
C1041 C1039 1.327 . S
C1041 C1057 1.429 . S
C1041 H1063 0.950 . S
C1042 H1038 0.949 . S
C1042 C1050 1.574 . S
C1042 C1058 1.368 . S
H1043 C1051 0.950 . S
H1044 C1049 0.950 . S
H1045 C1050 0.949 . S
H1046 C1052 0.950 . S
H1047 C1053 0.950 . S
H1048 C1054 0.949 . S
C1049 H1044 0.950 . S
C1049 C1051 1.327 . S
C1049 C1055 1.429 . S
C1050 C1042 1.574 . S
C1050 H1045 0.949 . S
C1050 C1056 1.368 . S
C1051 C1035 1.349 . S
C1051 H1043 0.950 . S
C1051 C1049 1.327 . S
C1052 C1040 1.349 . S
C1052 H1046 0.950 . S
C1052 C1053 1.327 . S
C1053 H1047 0.950 . S
C1053 C1052 1.327 . S
C1053 C1057 1.429 . S
C1054 C1037 1.574 . S
C1054 H1048 0.949 . S
C1054 C1058 1.368 . S
C1055 C1036 1.429 . S
C1055 C1049 1.429 . S
C1055 C1056 1.523 . S
C1056 C1037 1.368 . S
C1056 C1050 1.368 . S
C1056 C1055 1.523 . S
C1057 C1041 1.429 . S
C1057 C1053 1.429 . S
C1057 C1058 1.523 . S
C1058 C1042 1.368 . S
C1058 C1054 1.368 . S
C1058 C1057 1.523 . S
H1059 C1034 0.950 . S
H1060 C1036 0.950 . S
H1061 C1037 0.949 . S
H1062 C1039 0.950 . S
H1063 C1041 0.950 . S
C1064 C1065 1.349 . S
C1064 C1066 1.327 . S
C1064 H1089 0.950 . S
C1065 C1064 1.349 . S
C1065 C1081 1.349 . S
C1066 C1064 1.327 . S
C1066 C1085 1.429 . S
C1066 H1090 0.950 . S
C1067 C1084 1.574 1_556 S
C1067 C1086 1.368 . S
C1067 H1091 0.949 . S
H1068 C1072 0.949 . S
C1069 C1070 1.349 . S
C1069 C1071 1.327 . S
C1069 H1092 0.950 . S
C1070 C1069 1.349 . S
C1070 C1082 1.349 . S
C1071 C1069 1.327 . S
C1071 C1087 1.429 . S
C1071 H1093 0.950 . S
C1072 H1068 0.949 . S
C1072 C1080 1.574 . S
C1072 C1088 1.368 . S
H1073 C1081 0.950 . S
H1074 C1079 0.950 . S
H1075 C1080 0.949 . S
H1076 C1082 0.950 . S
H1077 C1083 0.950 . S
H1078 C1084 0.949 . S
C1079 H1074 0.950 . S
C1079 C1081 1.327 . S
C1079 C1085 1.429 . S
C1080 C1072 1.574 . S
C1080 H1075 0.949 . S
C1080 C1086 1.368 1_554 S
C1081 C1065 1.349 . S
C1081 H1073 0.950 . S
C1081 C1079 1.327 . S
C1082 C1070 1.349 . S
C1082 H1076 0.950 . S
C1082 C1083 1.327 . S
C1083 H1077 0.950 . S
C1083 C1082 1.327 . S
C1083 C1087 1.429 . S
C1084 C1067 1.574 1_554 S
C1084 H1078 0.949 . S
C1084 C1088 1.368 . S
C1085 C1066 1.429 . S
C1085 C1079 1.429 . S
C1085 C1086 1.523 . S
C1086 C1067 1.368 . S
C1086 C1080 1.368 1_556 S
C1086 C1085 1.523 . S
C1087 C1071 1.429 . S
C1087 C1083 1.429 . S
C1087 C1088 1.523 . S
C1088 C1072 1.368 . S
C1088 C1084 1.368 . S
C1088 C1087 1.523 . S
H1089 C1064 0.950 . S
H1090 C1066 0.950 . S
H1091 C1067 0.949 . S
H1092 C1069 0.950 . S
H1093 C1071 0.950 . S
C1094 C1095 1.349 . S
C1094 C1096 1.327 . S
C1094 H1119 0.950 . S
C1095 C1094 1.349 . S
C1095 C1111 1.349 . S
C1096 C1094 1.327 . S
C1096 C1115 1.429 . S
C1096 H1120 0.950 . S
C1097 C1114 1.574 . S
C1097 C1116 1.368 1_554 S
C1097 H1121 0.949 1_554 S
H1098 C1102 0.949 . S
C1099 C1100 1.349 . S
C1099 C1101 1.327 . S
C1099 H1122 0.950 . S
C1100 C1099 1.349 . S
C1100 C1112 1.349 . S
C1101 C1099 1.327 . S
C1101 C1117 1.429 . S
C1101 H1123 0.950 . S
C1102 H1098 0.949 . S
C1102 C1110 1.574 1_554 S
C1102 C1118 1.368 . S
H1103 C1111 0.950 . S
H1104 C1109 0.950 . S
H1105 C1110 0.949 . S
H1106 C1112 0.950 . S
H1107 C1113 0.950 . S
H1108 C1114 0.949 . S
C1109 H1104 0.950 . S
C1109 C1111 1.327 . S
C1109 C1115 1.429 . S
C1110 C1102 1.574 1_556 S
C1110 H1105 0.949 . S
C1110 C1116 1.368 . S
C1111 C1095 1.349 . S
C1111 H1103 0.950 . S
C1111 C1109 1.327 . S
C1112 C1100 1.349 . S
C1112 H1106 0.950 . S
C1112 C1113 1.327 . S
C1113 H1107 0.950 . S
C1113 C1112 1.327 . S
C1113 C1117 1.429 . S
C1114 C1097 1.574 . S
C1114 H1108 0.949 . S
C1114 C1118 1.368 . S
C1115 C1096 1.429 . S
C1115 C1109 1.429 . S
C1115 C1116 1.523 . S
C1116 C1097 1.368 1_556 S
C1116 C1110 1.368 . S
C1116 C1115 1.523 . S
C1117 C1101 1.429 . S
C1117 C1113 1.429 . S
C1117 C1118 1.523 . S
C1118 C1102 1.368 . S
C1118 C1114 1.368 . S
C1118 C1117 1.523 . S
H1119 C1094 0.950 . S
H1120 C1096 0.950 . S
H1121 C1097 0.949 1_556 S
H1122 C1099 0.950 . S
H1123 C1101 0.950 . S
C1124 C1125 1.349 . S
C1124 C1126 1.327 . S
C1124 H1149 0.950 . S
C1125 C1124 1.349 . S
C1125 C1141 1.349 . S
C1126 C1124 1.327 . S
C1126 C1145 1.429 . S
C1126 H1150 0.950 . S
C1127 C1144 1.574 . S
C1127 C1146 1.368 . S
C1127 H1151 0.949 . S
H1128 C1132 0.949 . S
C1129 C1130 1.349 . S
C1129 C1131 1.327 . S
C1129 H1152 0.950 . S
C1130 C1129 1.349 . S
C1130 C1142 1.349 . S
C1131 C1129 1.327 . S
C1131 C1147 1.429 . S
C1131 H1153 0.950 . S
C1132 H1128 0.949 . S
C1132 C1140 1.574 . S
C1132 C1148 1.368 . S
H1133 C1141 0.950 . S
H1134 C1139 0.950 . S
H1135 C1140 0.949 . S
H1136 C1142 0.950 . S
H1137 C1143 0.950 . S
H1138 C1144 0.949 . S
C1139 H1134 0.950 . S
C1139 C1141 1.327 . S
C1139 C1145 1.429 . S
C1140 C1132 1.574 . S
C1140 H1135 0.949 . S
C1140 C1146 1.368 . S
C1141 C1125 1.349 . S
C1141 H1133 0.950 . S
C1141 C1139 1.327 . S
C1142 C1130 1.349 . S
C1142 H1136 0.950 . S
C1142 C1143 1.327 . S
C1143 H1137 0.950 . S
C1143 C1142 1.327 . S
C1143 C1147 1.429 . S
C1144 C1127 1.574 . S
C1144 H1138 0.949 . S
C1144 C1148 1.368 . S
C1145 C1126 1.429 . S
C1145 C1139 1.429 . S
C1145 C1146 1.523 . S
C1146 C1127 1.368 . S
C1146 C1140 1.368 . S
C1146 C1145 1.523 . S
C1147 C1131 1.429 . S
C1147 C1143 1.429 . S
C1147 C1148 1.523 . S
C1148 C1132 1.368 . S
C1148 C1144 1.368 . S
C1148 C1147 1.523 . S
H1149 C1124 0.950 . S
H1150 C1126 0.950 . S
H1151 C1127 0.949 . S
H1152 C1129 0.950 . S
H1153 C1131 0.950 . S
C1154 C1155 1.349 . S
C1154 C1156 1.327 . S
C1154 H1179 0.950 . S
C1155 C1154 1.349 . S
C1155 C1171 1.349 . S
C1156 C1154 1.327 . S
C1156 C1175 1.429 . S
C1156 H1180 0.950 . S
C1157 C1174 1.574 . S
C1157 C1176 1.368 . S
C1157 H1181 0.949 . S
H1158 C1162 0.949 . S
C1159 C1160 1.349 . S
C1159 C1161 1.327 . S
C1159 H1182 0.950 . S
C1160 C1159 1.349 . S
C1160 C1172 1.349 . S
C1161 C1159 1.327 . S
C1161 C1177 1.429 . S
C1161 H1183 0.950 . S
C1162 H1158 0.949 . S
C1162 C1170 1.574 . S
C1162 C1178 1.368 . S
H1163 C1171 0.950 . S
H1164 C1169 0.950 . S
H1165 C1170 0.949 . S
H1166 C1172 0.950 . S
H1167 C1173 0.950 . S
H1168 C1174 0.949 . S
C1169 H1164 0.950 . S
C1169 C1171 1.327 . S
C1169 C1175 1.429 . S
C1170 C1162 1.574 . S
C1170 H1165 0.949 . S
C1170 C1176 1.368 . S
C1171 C1155 1.349 . S
C1171 H1163 0.950 . S
C1171 C1169 1.327 . S
C1172 C1160 1.349 . S
C1172 H1166 0.950 . S
C1172 C1173 1.327 . S
C1173 H1167 0.950 . S
C1173 C1172 1.327 . S
C1173 C1177 1.429 . S
C1174 C1157 1.574 . S
C1174 H1168 0.949 . S
C1174 C1178 1.368 . S
C1175 C1156 1.429 . S
C1175 C1169 1.429 . S
C1175 C1176 1.523 . S
C1176 C1157 1.368 . S
C1176 C1170 1.368 . S
C1176 C1175 1.523 . S
C1177 C1161 1.429 . S
C1177 C1173 1.429 . S
C1177 C1178 1.523 . S
C1178 C1162 1.368 . S
C1178 C1174 1.368 . S
C1178 C1177 1.523 . S
H1179 C1154 0.950 . S
H1180 C1156 0.950 . S
H1181 C1157 0.949 . S
H1182 C1159 0.950 . S
H1183 C1161 0.950 . S
C1184 C1185 1.349 . S
C1184 C1186 1.327 . S
C1184 H1209 0.950 . S
C1185 C1184 1.349 . S
C1185 C1201 1.349 . S
C1186 C1184 1.327 . S
C1186 C1205 1.429 . S
C1186 H1210 0.950 . S
C1187 C1204 1.574 . S
C1187 C1206 1.368 1_556 S
C1187 H1211 0.949 . S
H1188 C1192 0.949 . S
C1189 C1190 1.349 . S
C1189 C1191 1.327 . S
C1189 H1212 0.950 . S
C1190 C1189 1.349 . S
C1190 C1202 1.349 . S
C1191 C1189 1.327 . S
C1191 C1207 1.429 . S
C1191 H1213 0.950 . S
C1192 H1188 0.949 . S
C1192 C1200 1.574 1_556 S
C1192 C1208 1.368 . S
H1193 C1201 0.950 . S
H1194 C1199 0.950 . S
H1195 C1200 0.949 . S
H1196 C1202 0.950 . S
H1197 C1203 0.950 . S
H1198 C1204 0.949 . S
C1199 H1194 0.950 . S
C1199 C1201 1.327 . S
C1199 C1205 1.429 . S
C1200 C1192 1.574 1_554 S
C1200 H1195 0.949 . S
C1200 C1206 1.368 . S
C1201 C1185 1.349 . S
C1201 H1193 0.950 . S
C1201 C1199 1.327 . S
C1202 C1190 1.349 . S
C1202 H1196 0.950 . S
C1202 C1203 1.327 . S
C1203 H1197 0.950 . S
C1203 C1202 1.327 . S
C1203 C1207 1.429 . S
C1204 C1187 1.574 . S
C1204 H1198 0.949 . S
C1204 C1208 1.368 . S
C1205 C1186 1.429 . S
C1205 C1199 1.429 . S
C1205 C1206 1.523 . S
C1206 C1187 1.368 1_554 S
C1206 C1200 1.368 . S
C1206 C1205 1.523 . S
C1207 C1191 1.429 . S
C1207 C1203 1.429 . S
C1207 C1208 1.523 . S
C1208 C1192 1.368 . S
C1208 C1204 1.368 . S
C1208 C1207 1.523 . S
H1209 C1184 0.950 . S
H1210 C1186 0.950 . S
H1211 C1187 0.949 . S
H1212 C1189 0.950 . S
H1213 C1191 0.950 . S
C1214 C1215 1.349 . S
C1214 C1216 1.327 . S
C1214 H1239 0.950 . S
C1215 C1214 1.349 . S
C1215 C1231 1.349 . S
C1216 C1214 1.327 . S
C1216 C1235 1.429 . S
C1216 H1240 0.950 . S
C1217 C1234 1.574 1_556 S
C1217 C1236 1.368 . S
C1217 H1241 0.949 . S
H1218 C1222 0.949 1_554 S
C1219 C1220 1.349 . S
C1219 C1221 1.327 . S
C1219 H1242 0.950 . S
C1220 C1219 1.349 . S
C1220 C1232 1.349 . S
C1221 C1219 1.327 . S
C1221 C1237 1.429 . S
C1221 H1243 0.950 . S
C1222 H1218 0.949 1_556 S
C1222 C1230 1.574 . S
C1222 C1238 1.368 1_556 S
H1223 C1231 0.950 . S
H1224 C1229 0.950 . S
H1225 C1230 0.949 . S
H1226 C1232 0.950 . S
H1227 C1233 0.950 . S
H1228 C1234 0.949 . S
C1229 H1224 0.950 . S
C1229 C1231 1.327 . S
C1229 C1235 1.429 . S
C1230 C1222 1.574 . S
C1230 H1225 0.949 . S
C1230 C1236 1.368 . S
C1231 C1215 1.349 . S
C1231 H1223 0.950 . S
C1231 C1229 1.327 . S
C1232 C1220 1.349 . S
C1232 H1226 0.950 . S
C1232 C1233 1.327 . S
C1233 H1227 0.950 . S
C1233 C1232 1.327 . S
C1233 C1237 1.429 . S
C1234 C1217 1.574 1_554 S
C1234 H1228 0.949 . S
C1234 C1238 1.368 . S
C1235 C1216 1.429 . S
C1235 C1229 1.429 . S
C1235 C1236 1.523 . S
C1236 C1217 1.368 . S
C1236 C1230 1.368 . S
C1236 C1235 1.523 . S
C1237 C1221 1.429 . S
C1237 C1233 1.429 . S
C1237 C1238 1.523 . S
C1238 C1222 1.368 1_554 S
C1238 C1234 1.368 . S
C1238 C1237 1.523 . S
H1239 C1214 0.950 . S
H1240 C1216 0.950 . S
H1241 C1217 0.949 . S
H1242 C1219 0.950 . S
H1243 C1221 0.950 . S
C1244 C1245 1.349 . S
C1244 C1246 1.327 . S
C1244 H1269 0.950 . S
C1245 C1244 1.349 . S
C1245 C1261 1.349 . S
C1246 C1244 1.327 . S
C1246 C1265 1.429 . S
C1246 H1270 0.950 . S
C1247 C1264 1.574 . S
C1247 C1266 1.368 . S
C1247 H1271 0.949 . S
H1248 C1252 0.949 . S
C1249 C1250 1.349 . S
C1249 C1251 1.327 . S
C1249 H1272 0.950 . S
C1250 C1249 1.349 . S
C1250 C1262 1.349 . S
C1251 C1249 1.327 . S
C1251 C1267 1.429 . S
C1251 H1273 0.950 . S
C1252 H1248 0.949 . S
C1252 C1260 1.574 . S
C1252 C1268 1.368 . S
H1253 C1261 0.950 . S
H1254 C1259 0.950 . S
H1255 C1260 0.949 . S
H1256 C1262 0.950 . S
H1257 C1263 0.950 . S
H1258 C1264 0.949 . S
C1259 H1254 0.950 . S
C1259 C1261 1.327 . S
C1259 C1265 1.429 . S
C1260 C1252 1.574 . S
C1260 H1255 0.949 . S
C1260 C1266 1.368 . S
C1261 C1245 1.349 . S
C1261 H1253 0.950 . S
C1261 C1259 1.327 . S
C1262 C1250 1.349 . S
C1262 H1256 0.950 . S
C1262 C1263 1.327 . S
C1263 H1257 0.950 . S
C1263 C1262 1.327 . S
C1263 C1267 1.429 . S
C1264 C1247 1.574 . S
C1264 H1258 0.949 . S
C1264 C1268 1.368 . S
C1265 C1246 1.429 . S
C1265 C1259 1.429 . S
C1265 C1266 1.523 . S
C1266 C1247 1.368 . S
C1266 C1260 1.368 . S
C1266 C1265 1.523 . S
C1267 C1251 1.429 . S
C1267 C1263 1.429 . S
C1267 C1268 1.523 . S
C1268 C1252 1.368 . S
C1268 C1264 1.368 . S
C1268 C1267 1.523 . S
H1269 C1244 0.950 . S
H1270 C1246 0.950 . S
H1271 C1247 0.949 . S
H1272 C1249 0.950 . S
H1273 C1251 0.950 . S
C1274 C1275 1.349 . S
C1274 C1276 1.327 . S
C1274 H1299 0.950 . S
C1275 C1274 1.349 . S
C1275 C1291 1.349 . S
C1276 C1274 1.327 . S
C1276 C1295 1.429 . S
C1276 H1300 0.950 . S
C1277 C1294 1.574 . S
C1277 C1296 1.368 . S
C1277 H1301 0.949 . S
H1278 C1282 0.949 . S
C1279 C1280 1.349 . S
C1279 C1281 1.327 . S
C1279 H1302 0.950 . S
C1280 C1279 1.349 . S
C1280 C1292 1.349 . S
C1281 C1279 1.327 . S
C1281 C1297 1.429 . S
C1281 H1303 0.950 . S
C1282 H1278 0.949 . S
C1282 C1290 1.574 . S
C1282 C1298 1.368 . S
H1283 C1291 0.950 . S
H1284 C1289 0.950 . S
H1285 C1290 0.949 . S
H1286 C1292 0.950 . S
H1287 C1293 0.950 . S
H1288 C1294 0.949 . S
C1289 H1284 0.950 . S
C1289 C1291 1.327 . S
C1289 C1295 1.429 . S
C1290 C1282 1.574 . S
C1290 H1285 0.949 . S
C1290 C1296 1.368 . S
C1291 C1275 1.349 . S
C1291 H1283 0.950 . S
C1291 C1289 1.327 . S
C1292 C1280 1.349 . S
C1292 H1286 0.950 . S
C1292 C1293 1.327 . S
C1293 H1287 0.950 . S
C1293 C1292 1.327 . S
C1293 C1297 1.429 . S
C1294 C1277 1.574 . S
C1294 H1288 0.949 . S
C1294 C1298 1.368 . S
C1295 C1276 1.429 . S
C1295 C1289 1.429 . S
C1295 C1296 1.523 . S
C1296 C1277 1.368 . S
C1296 C1290 1.368 . S
C1296 C1295 1.523 . S
C1297 C1281 1.429 . S
C1297 C1293 1.429 . S
C1297 C1298 1.523 . S
C1298 C1282 1.368 . S
C1298 C1294 1.368 . S
C1298 C1297 1.523 . S
H1299 C1274 0.950 . S
H1300 C1276 0.950 . S
H1301 C1277 0.949 . S
H1302 C1279 0.950 . S
H1303 C1281 0.950 . S
C1304 C1305 1.349 . S
C1304 C1306 1.327 . S
C1304 H1329 0.950 . S
C1305 C1304 1.349 . S
C1305 C1321 1.349 . S
C1306 C1304 1.327 . S
C1306 C1325 1.429 . S
C1306 H1330 0.950 . S
C1307 C1324 1.574 1_554 S
C1307 C1326 1.368 . S
C1307 H1331 0.949 . S
H1308 C1312 0.949 . S
C1309 C1310 1.349 . S
C1309 C1311 1.327 . S
C1309 H1332 0.950 . S
C1310 C1309 1.349 . S
C1310 C1322 1.349 . S
C1311 C1309 1.327 . S
C1311 C1327 1.429 . S
C1311 H1333 0.950 . S
C1312 H1308 0.949 . S
C1312 C1320 1.574 . S
C1312 C1328 1.368 1_554 S
H1313 C1321 0.950 . S
H1314 C1319 0.950 . S
H1315 C1320 0.949 . S
H1316 C1322 0.950 . S
H1317 C1323 0.950 . S
H1318 C1324 0.949 . S
C1319 H1314 0.950 . S
C1319 C1321 1.327 . S
C1319 C1325 1.429 . S
C1320 C1312 1.574 . S
C1320 H1315 0.949 . S
C1320 C1326 1.368 . S
C1321 C1305 1.349 . S
C1321 H1313 0.950 . S
C1321 C1319 1.327 . S
C1322 C1310 1.349 . S
C1322 H1316 0.950 . S
C1322 C1323 1.327 . S
C1323 H1317 0.950 . S
C1323 C1322 1.327 . S
C1323 C1327 1.429 . S
C1324 C1307 1.574 1_556 S
C1324 H1318 0.949 . S
C1324 C1328 1.368 . S
C1325 C1306 1.429 . S
C1325 C1319 1.429 . S
C1325 C1326 1.523 . S
C1326 C1307 1.368 . S
C1326 C1320 1.368 . S
C1326 C1325 1.523 . S
C1327 C1311 1.429 . S
C1327 C1323 1.429 . S
C1327 C1328 1.523 . S
C1328 C1312 1.368 1_556 S
C1328 C1324 1.368 . S
C1328 C1327 1.523 . S
H1329 C1304 0.950 . S
H1330 C1306 0.950 . S
H1331 C1307 0.949 . S
H1332 C1309 0.950 . S
H1333 C1311 0.950 . S
C1334 C1335 1.349 . S
C1334 C1336 1.327 . S
C1334 H1359 0.950 . S
C1335 C1334 1.349 . S
C1335 C1351 1.349 . S
C1336 C1334 1.327 . S
C1336 C1355 1.429 . S
C1336 H1360 0.950 . S
C1337 C1354 1.574 . S
C1337 C1356 1.368 1_554 S
C1337 H1361 0.949 . S
H1338 C1342 0.949 . S
C1339 C1340 1.349 . S
C1339 C1341 1.327 . S
C1339 H1362 0.950 . S
C1340 C1339 1.349 . S
C1340 C1352 1.349 . S
C1341 C1339 1.327 . S
C1341 C1357 1.429 . S
C1341 H1363 0.950 . S
C1342 H1338 0.949 . S
C1342 C1350 1.574 1_554 S
C1342 C1358 1.368 . S
H1343 C1351 0.950 . S
H1344 C1349 0.950 . S
H1345 C1350 0.949 . S
H1346 C1352 0.950 . S
H1347 C1353 0.950 . S
H1348 C1354 0.949 . S
C1349 H1344 0.950 . S
C1349 C1351 1.327 . S
C1349 C1355 1.429 . S
C1350 C1342 1.574 1_556 S
C1350 H1345 0.949 . S
C1350 C1356 1.368 . S
C1351 C1335 1.349 . S
C1351 H1343 0.950 . S
C1351 C1349 1.327 . S
C1352 C1340 1.349 . S
C1352 H1346 0.950 . S
C1352 C1353 1.327 . S
C1353 H1347 0.950 . S
C1353 C1352 1.327 . S
C1353 C1357 1.429 . S
C1354 C1337 1.574 . S
C1354 H1348 0.949 . S
C1354 C1358 1.368 . S
C1355 C1336 1.429 . S
C1355 C1349 1.429 . S
C1355 C1356 1.523 . S
C1356 C1337 1.368 1_556 S
C1356 C1350 1.368 . S
C1356 C1355 1.523 . S
C1357 C1341 1.429 . S
C1357 C1353 1.429 . S
C1357 C1358 1.523 . S
C1358 C1342 1.368 . S
C1358 C1354 1.368 . S
C1358 C1357 1.523 . S
H1359 C1334 0.950 . S
H1360 C1336 0.950 . S
H1361 C1337 0.949 . S
H1362 C1339 0.950 . S
H1363 C1341 0.950 . S
C1364 C1365 1.349 . S
C1364 C1366 1.327 . S
C1364 H1389 0.950 . S
C1365 C1364 1.349 . S
C1365 C1381 1.349 . S
C1366 C1364 1.327 . S
C1366 C1385 1.429 . S
C1366 H1390 0.950 . S
C1367 C1384 1.574 . S
C1367 C1386 1.368 . S
C1367 H1391 0.949 . S
H1368 C1372 0.949 . S
C1369 C1370 1.349 . S
C1369 C1371 1.327 . S
C1369 H1392 0.950 . S
C1370 C1369 1.349 . S
C1370 C1382 1.349 . S
C1371 C1369 1.327 . S
C1371 C1387 1.429 . S
C1371 H1393 0.950 . S
C1372 H1368 0.949 . S
C1372 C1380 1.574 . S
C1372 C1388 1.368 . S
H1373 C1381 0.950 . S
H1374 C1379 0.950 . S
H1375 C1380 0.949 . S
H1376 C1382 0.950 . S
H1377 C1383 0.950 . S
H1378 C1384 0.949 . S
C1379 H1374 0.950 . S
C1379 C1381 1.327 . S
C1379 C1385 1.429 . S
C1380 C1372 1.574 . S
C1380 H1375 0.949 . S
C1380 C1386 1.368 . S
C1381 C1365 1.349 . S
C1381 H1373 0.950 . S
C1381 C1379 1.327 . S
C1382 C1370 1.349 . S
C1382 H1376 0.950 . S
C1382 C1383 1.327 . S
C1383 H1377 0.950 . S
C1383 C1382 1.327 . S
C1383 C1387 1.429 . S
C1384 C1367 1.574 . S
C1384 H1378 0.949 . S
C1384 C1388 1.368 . S
C1385 C1366 1.429 . S
C1385 C1379 1.429 . S
C1385 C1386 1.523 . S
C1386 C1367 1.368 . S
C1386 C1380 1.368 . S
C1386 C1385 1.523 . S
C1387 C1371 1.429 . S
C1387 C1383 1.429 . S
C1387 C1388 1.523 . S
C1388 C1372 1.368 . S
C1388 C1384 1.368 . S
C1388 C1387 1.523 . S
H1389 C1364 0.950 . S
H1390 C1366 0.950 . S
H1391 C1367 0.949 . S
H1392 C1369 0.950 . S
H1393 C1371 0.950 . S
C1394 C1395 1.349 . S
C1394 C1396 1.327 . S
C1394 H1419 0.950 . S
C1395 C1394 1.349 . S
C1395 C1411 1.349 . S
C1396 C1394 1.327 . S
C1396 C1415 1.429 . S
C1396 H1420 0.950 . S
C1397 C1414 1.574 . S
C1397 C1416 1.368 . S
C1397 H1421 0.949 . S
H1398 C1402 0.949 . S
C1399 C1400 1.349 . S
C1399 C1401 1.327 . S
C1399 H1422 0.950 . S
C1400 C1399 1.349 . S
C1400 C1412 1.349 . S
C1401 C1399 1.327 . S
C1401 C1417 1.429 . S
C1401 H1423 0.950 . S
C1402 H1398 0.949 . S
C1402 C1410 1.574 . S
C1402 C1418 1.368 . S
H1403 C1411 0.950 . S
H1404 C1409 0.950 . S
H1405 C1410 0.949 . S
H1406 C1412 0.950 . S
H1407 C1413 0.950 . S
H1408 C1414 0.949 . S
C1409 H1404 0.950 . S
C1409 C1411 1.327 . S
C1409 C1415 1.429 . S
C1410 C1402 1.574 . S
C1410 H1405 0.949 . S
C1410 C1416 1.368 . S
C1411 C1395 1.349 . S
C1411 H1403 0.950 . S
C1411 C1409 1.327 . S
C1412 C1400 1.349 . S
C1412 H1406 0.950 . S
C1412 C1413 1.327 . S
C1413 H1407 0.950 . S
C1413 C1412 1.327 . S
C1413 C1417 1.429 . S
C1414 C1397 1.574 . S
C1414 H1408 0.949 . S
C1414 C1418 1.368 . S
C1415 C1396 1.429 . S
C1415 C1409 1.429 . S
C1415 C1416 1.523 . S
C1416 C1397 1.368 . S
C1416 C1410 1.368 . S
C1416 C1415 1.523 . S
C1417 C1401 1.429 . S
C1417 C1413 1.429 . S
C1417 C1418 1.523 . S
C1418 C1402 1.368 . S
C1418 C1414 1.368 . S
C1418 C1417 1.523 . S
H1419 C1394 0.950 . S
H1420 C1396 0.950 . S
H1421 C1397 0.949 . S
H1422 C1399 0.950 . S
H1423 C1401 0.950 . S
C1424 C1425 1.349 . S
C1424 C1426 1.327 . S
C1424 H1449 0.950 . S
C1425 C1424 1.349 . S
C1425 C1441 1.349 . S
C1426 C1424 1.327 . S
C1426 C1445 1.429 . S
C1426 H1450 0.950 . S
C1427 C1444 1.574 1_545 S
C1427 C1446 1.368 . S
C1427 H1451 0.949 . S
H1428 C1432 0.949 . S
C1429 C1430 1.349 . S
C1429 C1431 1.327 . S
C1429 H1452 0.950 . S
C1430 C1429 1.349 . S
C1430 C1442 1.349 . S
C1431 C1429 1.327 . S
C1431 C1447 1.429 . S
C1431 H1453 0.950 . S
C1432 H1428 0.949 . S
C1432 C1440 1.574 1_565 S
C1432 C1448 1.368 . S
H1433 C1441 0.950 . S
H1434 C1439 0.950 . S
H1435 C1440 0.949 . S
H1436 C1442 0.950 . S
H1437 C1443 0.950 . S
H1438 C1444 0.949 . S
C1439 H1434 0.950 . S
C1439 C1441 1.327 . S
C1439 C1445 1.429 . S
C1440 C1432 1.574 1_545 S
C1440 H1435 0.949 . S
C1440 C1446 1.368 . S
C1441 C1425 1.349 . S
C1441 H1433 0.950 . S
C1441 C1439 1.327 . S
C1442 C1430 1.349 . S
C1442 H1436 0.950 . S
C1442 C1443 1.327 . S
C1443 H1437 0.950 . S
C1443 C1442 1.327 . S
C1443 C1447 1.429 . S
C1444 C1427 1.574 1_565 S
C1444 H1438 0.949 . S
C1444 C1448 1.368 . S
C1445 C1426 1.429 . S
C1445 C1439 1.429 . S
C1445 C1446 1.523 . S
C1446 C1427 1.368 . S
C1446 C1440 1.368 . S
C1446 C1445 1.523 . S
C1447 C1431 1.429 . S
C1447 C1443 1.429 . S
C1447 C1448 1.523 . S
C1448 C1432 1.368 . S
C1448 C1444 1.368 . S
C1448 C1447 1.523 . S
H1449 C1424 0.950 . S
H1450 C1426 0.950 . S
H1451 C1427 0.949 . S
H1452 C1429 0.950 . S
H1453 C1431 0.950 . S
C1454 C1455 1.349 . S
C1454 C1456 1.327 . S
C1454 H1479 0.950 . S
C1455 C1454 1.349 . S
C1455 C1471 1.349 . S
C1456 C1454 1.327 . S
C1456 C1475 1.429 . S
C1456 H1480 0.950 . S
C1457 C1474 1.574 1_545 S
C1457 C1476 1.368 . S
C1457 H1481 0.949 . S
H1458 C1462 0.949 . S
C1459 C1460 1.349 . S
C1459 C1461 1.327 . S
C1459 H1482 0.950 . S
C1460 C1459 1.349 . S
C1460 C1472 1.349 . S
C1461 C1459 1.327 . S
C1461 C1477 1.429 . S
C1461 H1483 0.950 . S
C1462 H1458 0.949 . S
C1462 C1470 1.574 1_565 S
C1462 C1478 1.368 . S
H1463 C1471 0.950 . S
H1464 C1469 0.950 . S
H1465 C1470 0.949 . S
H1466 C1472 0.950 . S
H1467 C1473 0.950 . S
H1468 C1474 0.949 . S
C1469 H1464 0.950 . S
C1469 C1471 1.327 . S
C1469 C1475 1.429 . S
C1470 C1462 1.574 1_545 S
C1470 H1465 0.949 . S
C1470 C1476 1.368 . S
C1471 C1455 1.349 . S
C1471 H1463 0.950 . S
C1471 C1469 1.327 . S
C1472 C1460 1.349 . S
C1472 H1466 0.950 . S
C1472 C1473 1.327 . S
C1473 H1467 0.950 . S
C1473 C1472 1.327 . S
C1473 C1477 1.429 . S
C1474 C1457 1.574 1_565 S
C1474 H1468 0.949 . S
C1474 C1478 1.368 . S
C1475 C1456 1.429 . S
C1475 C1469 1.429 . S
C1475 C1476 1.523 . S
C1476 C1457 1.368 . S
C1476 C1470 1.368 . S
C1476 C1475 1.523 . S
C1477 C1461 1.429 . S
C1477 C1473 1.429 . S
C1477 C1478 1.523 . S
C1478 C1462 1.368 . S
C1478 C1474 1.368 . S
C1478 C1477 1.523 . S
H1479 C1454 0.950 . S
H1480 C1456 0.950 . S
H1481 C1457 0.949 . S
H1482 C1459 0.950 . S
H1483 C1461 0.950 . S
C1484 C1485 1.349 . S
C1484 C1486 1.327 . S
C1484 H1509 0.950 . S
C1485 C1484 1.349 . S
C1485 C1501 1.349 . S
C1486 C1484 1.327 . S
C1486 C1505 1.429 . S
C1486 H1510 0.950 . S
C1487 C1504 1.574 1_565 S
C1487 C1506 1.368 . S
C1487 H1511 0.949 . S
H1488 C1492 0.949 . S
C1489 C1490 1.349 . S
C1489 C1491 1.327 . S
C1489 H1512 0.950 . S
C1490 C1489 1.349 . S
C1490 C1502 1.349 . S
C1491 C1489 1.327 . S
C1491 C1507 1.429 . S
C1491 H1513 0.950 . S
C1492 H1488 0.949 . S
C1492 C1500 1.574 1_545 S
C1492 C1508 1.368 . S
H1493 C1501 0.950 . S
H1494 C1499 0.950 . S
H1495 C1500 0.949 . S
H1496 C1502 0.950 . S
H1497 C1503 0.950 . S
H1498 C1504 0.949 . S
C1499 H1494 0.950 . S
C1499 C1501 1.327 . S
C1499 C1505 1.429 . S
C1500 C1492 1.574 1_565 S
C1500 H1495 0.949 . S
C1500 C1506 1.368 . S
C1501 C1485 1.349 . S
C1501 H1493 0.950 . S
C1501 C1499 1.327 . S
C1502 C1490 1.349 . S
C1502 H1496 0.950 . S
C1502 C1503 1.327 . S
C1503 H1497 0.950 . S
C1503 C1502 1.327 . S
C1503 C1507 1.429 . S
C1504 C1487 1.574 1_545 S
C1504 H1498 0.949 . S
C1504 C1508 1.368 . S
C1505 C1486 1.429 . S
C1505 C1499 1.429 . S
C1505 C1506 1.523 . S
C1506 C1487 1.368 . S
C1506 C1500 1.368 . S
C1506 C1505 1.523 . S
C1507 C1491 1.429 . S
C1507 C1503 1.429 . S
C1507 C1508 1.523 . S
C1508 C1492 1.368 . S
C1508 C1504 1.368 . S
C1508 C1507 1.523 . S
H1509 C1484 0.950 . S
H1510 C1486 0.950 . S
H1511 C1487 0.949 . S
H1512 C1489 0.950 . S
H1513 C1491 0.950 . S
C1514 C1515 1.349 . S
C1514 C1516 1.327 . S
C1514 H1539 0.950 . S
C1515 C1514 1.349 . S
C1515 C1531 1.349 . S
C1516 C1514 1.327 . S
C1516 C1535 1.429 . S
C1516 H1540 0.950 . S
C1517 C1534 1.574 1_565 S
C1517 C1536 1.368 . S
C1517 H1541 0.949 . S
H1518 C1522 0.949 . S
C1519 C1520 1.349 . S
C1519 C1521 1.327 . S
C1519 H1542 0.950 . S
C1520 C1519 1.349 . S
C1520 C1532 1.349 . S
C1521 C1519 1.327 . S
C1521 C1537 1.429 . S
C1521 H1543 0.950 . S
C1522 H1518 0.949 . S
C1522 C1530 1.574 1_545 S
C1522 C1538 1.368 . S
H1523 C1531 0.950 . S
H1524 C1529 0.950 . S
H1525 C1530 0.949 . S
H1526 C1532 0.950 . S
H1527 C1533 0.950 . S
H1528 C1534 0.949 . S
C1529 H1524 0.950 . S
C1529 C1531 1.327 . S
C1529 C1535 1.429 . S
C1530 C1522 1.574 1_565 S
C1530 H1525 0.949 . S
C1530 C1536 1.368 . S
C1531 C1515 1.349 . S
C1531 H1523 0.950 . S
C1531 C1529 1.327 . S
C1532 C1520 1.349 . S
C1532 H1526 0.950 . S
C1532 C1533 1.327 . S
C1533 H1527 0.950 . S
C1533 C1532 1.327 . S
C1533 C1537 1.429 . S
C1534 C1517 1.574 1_545 S
C1534 H1528 0.949 . S
C1534 C1538 1.368 . S
C1535 C1516 1.429 . S
C1535 C1529 1.429 . S
C1535 C1536 1.523 . S
C1536 C1517 1.368 . S
C1536 C1530 1.368 . S
C1536 C1535 1.523 . S
C1537 C1521 1.429 . S
C1537 C1533 1.429 . S
C1537 C1538 1.523 . S
C1538 C1522 1.368 . S
C1538 C1534 1.368 . S
C1538 C1537 1.523 . S
H1539 C1514 0.950 . S
H1540 C1516 0.950 . S
H1541 C1517 0.949 . S
H1542 C1519 0.950 . S
H1543 C1521 0.950 . S
C1544 C1545 1.349 . S
C1544 C1546 1.327 . S
C1544 H1569 0.950 . S
C1545 C1544 1.349 . S
C1545 C1561 1.349 . S
C1546 C1544 1.327 . S
C1546 C1565 1.429 . S
C1546 H1570 0.950 . S
C1547 C1564 1.574 . S
C1547 C1566 1.368 . S
C1547 H1571 0.949 . S
H1548 C1552 0.949 . S
C1549 C1550 1.349 . S
C1549 C1551 1.327 . S
C1549 H1572 0.950 . S
C1550 C1549 1.349 . S
C1550 C1562 1.349 . S
C1551 C1549 1.327 . S
C1551 C1567 1.429 . S
C1551 H1573 0.950 . S
C1552 H1548 0.949 . S
C1552 C1560 1.574 . S
C1552 C1568 1.368 . S
H1553 C1561 0.950 . S
H1554 C1559 0.950 . S
H1555 C1560 0.949 . S
H1556 C1562 0.950 . S
H1557 C1563 0.950 . S
H1558 C1564 0.949 . S
C1559 H1554 0.950 . S
C1559 C1561 1.327 . S
C1559 C1565 1.429 . S
C1560 C1552 1.574 . S
C1560 H1555 0.949 . S
C1560 C1566 1.368 . S
C1561 C1545 1.349 . S
C1561 H1553 0.950 . S
C1561 C1559 1.327 . S
C1562 C1550 1.349 . S
C1562 H1556 0.950 . S
C1562 C1563 1.327 . S
C1563 H1557 0.950 . S
C1563 C1562 1.327 . S
C1563 C1567 1.429 . S
C1564 C1547 1.574 . S
C1564 H1558 0.949 . S
C1564 C1568 1.368 . S
C1565 C1546 1.429 . S
C1565 C1559 1.429 . S
C1565 C1566 1.523 . S
C1566 C1547 1.368 . S
C1566 C1560 1.368 . S
C1566 C1565 1.523 . S
C1567 C1551 1.429 . S
C1567 C1563 1.429 . S
C1567 C1568 1.523 . S
C1568 C1552 1.368 . S
C1568 C1564 1.368 . S
C1568 C1567 1.523 . S
H1569 C1544 0.950 . S
H1570 C1546 0.950 . S
H1571 C1547 0.949 . S
H1572 C1549 0.950 . S
H1573 C1551 0.950 . S
C1574 C1575 1.349 . S
C1574 C1576 1.327 . S
C1574 H1599 0.950 . S
C1575 C1574 1.349 . S
C1575 C1591 1.349 . S
C1576 C1574 1.327 . S
C1576 C1595 1.429 . S
C1576 H1600 0.950 . S
C1577 C1594 1.574 . S
C1577 C1596 1.368 . S
C1577 H1601 0.949 . S
H1578 C1582 0.949 . S
C1579 C1580 1.349 . S
C1579 C1581 1.327 . S
C1579 H1602 0.950 . S
C1580 C1579 1.349 . S
C1580 C1592 1.349 . S
C1581 C1579 1.327 . S
C1581 C1597 1.429 . S
C1581 H1603 0.950 . S
C1582 H1578 0.949 . S
C1582 C1590 1.574 . S
C1582 C1598 1.368 . S
H1583 C1591 0.950 . S
H1584 C1589 0.950 . S
H1585 C1590 0.949 . S
H1586 C1592 0.950 . S
H1587 C1593 0.950 . S
H1588 C1594 0.949 . S
C1589 H1584 0.950 . S
C1589 C1591 1.327 . S
C1589 C1595 1.429 . S
C1590 C1582 1.574 . S
C1590 H1585 0.949 . S
C1590 C1596 1.368 . S
C1591 C1575 1.349 . S
C1591 H1583 0.950 . S
C1591 C1589 1.327 . S
C1592 C1580 1.349 . S
C1592 H1586 0.950 . S
C1592 C1593 1.327 . S
C1593 H1587 0.950 . S
C1593 C1592 1.327 . S
C1593 C1597 1.429 . S
C1594 C1577 1.574 . S
C1594 H1588 0.949 . S
C1594 C1598 1.368 . S
C1595 C1576 1.429 . S
C1595 C1589 1.429 . S
C1595 C1596 1.523 . S
C1596 C1577 1.368 . S
C1596 C1590 1.368 . S
C1596 C1595 1.523 . S
C1597 C1581 1.429 . S
C1597 C1593 1.429 . S
C1597 C1598 1.523 . S
C1598 C1582 1.368 . S
C1598 C1594 1.368 . S
C1598 C1597 1.523 . S
H1599 C1574 0.950 . S
H1600 C1576 0.950 . S
H1601 C1577 0.949 . S
H1602 C1579 0.950 . S
H1603 C1581 0.950 . S
C1604 C1605 1.349 . S
C1604 C1606 1.327 . S
C1604 H1629 0.950 . S
C1605 C1604 1.349 . S
C1605 C1621 1.349 . S
C1606 C1604 1.327 . S
C1606 C1625 1.429 . S
C1606 H1630 0.950 . S
C1607 C1624 1.574 . S
C1607 C1626 1.368 . S
C1607 H1631 0.949 . S
H1608 C1612 0.949 . S
C1609 C1610 1.349 . S
C1609 C1611 1.327 . S
C1609 H1632 0.950 . S
C1610 C1609 1.349 . S
C1610 C1622 1.349 . S
C1611 C1609 1.327 . S
C1611 C1627 1.429 . S
C1611 H1633 0.950 . S
C1612 H1608 0.949 . S
C1612 C1620 1.574 . S
C1612 C1628 1.368 . S
H1613 C1621 0.950 . S
H1614 C1619 0.950 . S
H1615 C1620 0.949 . S
H1616 C1622 0.950 . S
H1617 C1623 0.950 . S
H1618 C1624 0.949 . S
C1619 H1614 0.950 . S
C1619 C1621 1.327 . S
C1619 C1625 1.429 . S
C1620 C1612 1.574 . S
C1620 H1615 0.949 . S
C1620 C1626 1.368 . S
C1621 C1605 1.349 . S
C1621 H1613 0.950 . S
C1621 C1619 1.327 . S
C1622 C1610 1.349 . S
C1622 H1616 0.950 . S
C1622 C1623 1.327 . S
C1623 H1617 0.950 . S
C1623 C1622 1.327 . S
C1623 C1627 1.429 . S
C1624 C1607 1.574 . S
C1624 H1618 0.949 . S
C1624 C1628 1.368 . S
C1625 C1606 1.429 . S
C1625 C1619 1.429 . S
C1625 C1626 1.523 . S
C1626 C1607 1.368 . S
C1626 C1620 1.368 . S
C1626 C1625 1.523 . S
C1627 C1611 1.429 . S
C1627 C1623 1.429 . S
C1627 C1628 1.523 . S
C1628 C1612 1.368 . S
C1628 C1624 1.368 . S
C1628 C1627 1.523 . S
H1629 C1604 0.950 . S
H1630 C1606 0.950 . S
H1631 C1607 0.949 . S
H1632 C1609 0.950 . S
H1633 C1611 0.950 . S
C1634 C1635 1.349 . S
C1634 C1636 1.327 . S
C1634 H1659 0.950 . S
C1635 C1634 1.349 . S
C1635 C1651 1.349 . S
C1636 C1634 1.327 . S
C1636 C1655 1.429 . S
C1636 H1660 0.950 . S
C1637 C1654 1.574 . S
C1637 C1656 1.368 . S
C1637 H1661 0.949 . S
H1638 C1642 0.949 . S
C1639 C1640 1.349 . S
C1639 C1641 1.327 . S
C1639 H1662 0.950 . S
C1640 C1639 1.349 . S
C1640 C1652 1.349 . S
C1641 C1639 1.327 . S
C1641 C1657 1.429 . S
C1641 H1663 0.950 . S
C1642 H1638 0.949 . S
C1642 C1650 1.574 . S
C1642 C1658 1.368 . S
H1643 C1651 0.950 . S
H1644 C1649 0.950 . S
H1645 C1650 0.949 . S
H1646 C1652 0.950 . S
H1647 C1653 0.950 . S
H1648 C1654 0.949 . S
C1649 H1644 0.950 . S
C1649 C1651 1.327 . S
C1649 C1655 1.429 . S
C1650 C1642 1.574 . S
C1650 H1645 0.949 . S
C1650 C1656 1.368 . S
C1651 C1635 1.349 . S
C1651 H1643 0.950 . S
C1651 C1649 1.327 . S
C1652 C1640 1.349 . S
C1652 H1646 0.950 . S
C1652 C1653 1.327 . S
C1653 H1647 0.950 . S
C1653 C1652 1.327 . S
C1653 C1657 1.429 . S
C1654 C1637 1.574 . S
C1654 H1648 0.949 . S
C1654 C1658 1.368 . S
C1655 C1636 1.429 . S
C1655 C1649 1.429 . S
C1655 C1656 1.523 . S
C1656 C1637 1.368 . S
C1656 C1650 1.368 . S
C1656 C1655 1.523 . S
C1657 C1641 1.429 . S
C1657 C1653 1.429 . S
C1657 C1658 1.523 . S
C1658 C1642 1.368 . S
C1658 C1654 1.368 . S
C1658 C1657 1.523 . S
H1659 C1634 0.950 . S
H1660 C1636 0.950 . S
H1661 C1637 0.949 . S
H1662 C1639 0.950 . S
H1663 C1641 0.950 . S
C1664 C1665 1.349 . S
C1664 C1666 1.327 . S
C1664 H1689 0.950 . S
C1665 C1664 1.349 . S
C1665 C1681 1.349 1_455 S
C1666 C1664 1.327 . S
C1666 C1685 1.429 . S
C1666 H1690 0.950 . S
C1667 C1684 1.574 . S
C1667 C1686 1.368 1_655 S
C1667 H1691 0.949 . S
H1668 C1672 0.949 . S
C1669 C1670 1.349 . S
C1669 C1671 1.327 . S
C1669 H1692 0.950 . S
C1670 C1669 1.349 . S
C1670 C1682 1.349 1_655 S
C1671 C1669 1.327 . S
C1671 C1687 1.429 . S
C1671 H1693 0.950 . S
C1672 H1668 0.949 . S
C1672 C1680 1.574 . S
C1672 C1688 1.368 1_455 S
H1673 C1681 0.950 . S
H1674 C1679 0.950 . S
H1675 C1680 0.949 . S
H1676 C1682 0.950 . S
H1677 C1683 0.950 . S
H1678 C1684 0.949 . S
C1679 H1674 0.950 . S
C1679 C1681 1.327 . S
C1679 C1685 1.429 1_655 S
C1680 C1672 1.574 . S
C1680 H1675 0.949 . S
C1680 C1686 1.368 . S
C1681 C1665 1.349 1_655 S
C1681 H1673 0.950 . S
C1681 C1679 1.327 . S
C1682 C1670 1.349 1_455 S
C1682 H1676 0.950 . S
C1682 C1683 1.327 . S
C1683 H1677 0.950 . S
C1683 C1682 1.327 . S
C1683 C1687 1.429 1_455 S
C1684 C1667 1.574 . S
C1684 H1678 0.949 . S
C1684 C1688 1.368 . S
C1685 C1666 1.429 . S
C1685 C1679 1.429 1_455 S
C1685 C1686 1.523 . S
C1686 C1667 1.368 1_455 S
C1686 C1680 1.368 . S
C1686 C1685 1.523 . S
C1687 C1671 1.429 . S
C1687 C1683 1.429 1_655 S
C1687 C1688 1.523 . S
C1688 C1672 1.368 1_655 S
C1688 C1684 1.368 . S
C1688 C1687 1.523 . S
H1689 C1664 0.950 . S
H1690 C1666 0.950 . S
H1691 C1667 0.949 . S
H1692 C1669 0.950 . S
H1693 C1671 0.950 . S
C1694 C1695 1.349 . S
C1694 C1696 1.327 . S
C1694 H1719 0.950 . S
C1695 C1694 1.349 . S
C1695 C1711 1.349 . S
C1696 C1694 1.327 . S
C1696 C1715 1.429 . S
C1696 H1720 0.950 . S
C1697 C1714 1.574 . S
C1697 C1716 1.368 . S
C1697 H1721 0.949 . S
H1698 C1702 0.949 . S
C1699 C1700 1.349 . S
C1699 C1701 1.327 . S
C1699 H1722 0.950 . S
C1700 C1699 1.349 . S
C1700 C1712 1.349 . S
C1701 C1699 1.327 . S
C1701 C1717 1.429 . S
C1701 H1723 0.950 . S
C1702 H1698 0.949 . S
C1702 C1710 1.574 . S
C1702 C1718 1.368 . S
H1703 C1711 0.950 . S
H1704 C1709 0.950 . S
H1705 C1710 0.949 . S
H1706 C1712 0.950 . S
H1707 C1713 0.950 . S
H1708 C1714 0.949 . S
C1709 H1704 0.950 . S
C1709 C1711 1.327 . S
C1709 C1715 1.429 . S
C1710 C1702 1.574 . S
C1710 H1705 0.949 . S
C1710 C1716 1.368 . S
C1711 C1695 1.349 . S
C1711 H1703 0.950 . S
C1711 C1709 1.327 . S
C1712 C1700 1.349 . S
C1712 H1706 0.950 . S
C1712 C1713 1.327 . S
C1713 H1707 0.950 . S
C1713 C1712 1.327 . S
C1713 C1717 1.429 . S
C1714 C1697 1.574 . S
C1714 H1708 0.949 . S
C1714 C1718 1.368 . S
C1715 C1696 1.429 . S
C1715 C1709 1.429 . S
C1715 C1716 1.523 . S
C1716 C1697 1.368 . S
C1716 C1710 1.368 . S
C1716 C1715 1.523 . S
C1717 C1701 1.429 . S
C1717 C1713 1.429 . S
C1717 C1718 1.523 . S
C1718 C1702 1.368 . S
C1718 C1714 1.368 . S
C1718 C1717 1.523 . S
H1719 C1694 0.950 . S
H1720 C1696 0.950 . S
H1721 C1697 0.949 . S
H1722 C1699 0.950 . S
H1723 C1701 0.950 . S
C1724 C1725 1.349 . S
C1724 C1726 1.327 . S
C1724 H1749 0.950 . S
C1725 C1724 1.349 . S
C1725 C1741 1.349 . S
C1726 C1724 1.327 . S
C1726 C1745 1.429 . S
C1726 H1750 0.950 . S
C1727 C1744 1.574 . S
C1727 C1746 1.368 . S
C1727 H1751 0.949 . S
H1728 C1732 0.949 . S
C1729 C1730 1.349 . S
C1729 C1731 1.327 . S
C1729 H1752 0.950 . S
C1730 C1729 1.349 . S
C1730 C1742 1.349 . S
C1731 C1729 1.327 . S
C1731 C1747 1.429 . S
C1731 H1753 0.950 . S
C1732 H1728 0.949 . S
C1732 C1740 1.574 . S
C1732 C1748 1.368 . S
H1733 C1741 0.950 . S
H1734 C1739 0.950 . S
H1735 C1740 0.949 . S
H1736 C1742 0.950 . S
H1737 C1743 0.950 . S
H1738 C1744 0.949 . S
C1739 H1734 0.950 . S
C1739 C1741 1.327 . S
C1739 C1745 1.429 . S
C1740 C1732 1.574 . S
C1740 H1735 0.949 . S
C1740 C1746 1.368 . S
C1741 C1725 1.349 . S
C1741 H1733 0.950 . S
C1741 C1739 1.327 . S
C1742 C1730 1.349 . S
C1742 H1736 0.950 . S
C1742 C1743 1.327 . S
C1743 H1737 0.950 . S
C1743 C1742 1.327 . S
C1743 C1747 1.429 . S
C1744 C1727 1.574 . S
C1744 H1738 0.949 . S
C1744 C1748 1.368 . S
C1745 C1726 1.429 . S
C1745 C1739 1.429 . S
C1745 C1746 1.523 . S
C1746 C1727 1.368 . S
C1746 C1740 1.368 . S
C1746 C1745 1.523 . S
C1747 C1731 1.429 . S
C1747 C1743 1.429 . S
C1747 C1748 1.523 . S
C1748 C1732 1.368 . S
C1748 C1744 1.368 . S
C1748 C1747 1.523 . S
H1749 C1724 0.950 . S
H1750 C1726 0.950 . S
H1751 C1727 0.949 . S
H1752 C1729 0.950 . S
H1753 C1731 0.950 . S
C1754 C1755 1.349 1_655 S
C1754 C1756 1.327 . S
C1754 H1779 0.950 . S
C1755 C1754 1.349 1_455 S
C1755 C1771 1.349 . S
C1756 C1754 1.327 . S
C1756 C1775 1.429 1_655 S
C1756 H1780 0.950 . S
C1757 C1774 1.574 . S
C1757 C1776 1.368 . S
C1757 H1781 0.949 . S
H1758 C1762 0.949 . S
C1759 C1760 1.349 1_455 S
C1759 C1761 1.327 . S
C1759 H1782 0.950 . S
C1760 C1759 1.349 1_655 S
C1760 C1772 1.349 . S
C1761 C1759 1.327 . S
C1761 C1777 1.429 1_455 S
C1761 H1783 0.950 . S
C1762 H1758 0.949 . S
C1762 C1770 1.574 . S
C1762 C1778 1.368 . S
H1763 C1771 0.950 . S
H1764 C1769 0.950 . S
H1765 C1770 0.949 . S
H1766 C1772 0.950 . S
H1767 C1773 0.950 . S
H1768 C1774 0.949 . S
C1769 H1764 0.950 . S
C1769 C1771 1.327 . S
C1769 C1775 1.429 . S
C1770 C1762 1.574 . S
C1770 H1765 0.949 . S
C1770 C1776 1.368 1_655 S
C1771 C1755 1.349 . S
C1771 H1763 0.950 . S
C1771 C1769 1.327 . S
C1772 C1760 1.349 . S
C1772 H1766 0.950 . S
C1772 C1773 1.327 . S
C1773 H1767 0.950 . S
C1773 C1772 1.327 . S
C1773 C1777 1.429 . S
C1774 C1757 1.574 . S
C1774 H1768 0.949 . S
C1774 C1778 1.368 1_455 S
C1775 C1756 1.429 1_455 S
C1775 C1769 1.429 . S
C1775 C1776 1.523 . S
C1776 C1757 1.368 . S
C1776 C1770 1.368 1_455 S
C1776 C1775 1.523 . S
C1777 C1761 1.429 1_655 S
C1777 C1773 1.429 . S
C1777 C1778 1.523 . S
C1778 C1762 1.368 . S
C1778 C1774 1.368 1_655 S
C1778 C1777 1.523 . S
H1779 C1754 0.950 . S
H1780 C1756 0.950 . S
H1781 C1757 0.949 . S
H1782 C1759 0.950 . S
H1783 C1761 0.950 . S
C1784 C1785 1.349 . S
C1784 C1786 1.327 . S
C1784 H1809 0.950 . S
C1785 C1784 1.349 . S
C1785 C1801 1.349 1_655 S
C1786 C1784 1.327 . S
C1786 C1805 1.429 . S
C1786 H1810 0.950 . S
C1787 C1804 1.574 . S
C1787 C1806 1.368 1_455 S
C1787 H1811 0.949 . S
H1788 C1792 0.949 . S
C1789 C1790 1.349 . S
C1789 C1791 1.327 . S
C1789 H1812 0.950 . S
C1790 C1789 1.349 . S
C1790 C1802 1.349 1_455 S
C1791 C1789 1.327 . S
C1791 C1807 1.429 . S
C1791 H1813 0.950 . S
C1792 H1788 0.949 . S
C1792 C1800 1.574 . S
C1792 C1808 1.368 1_655 S
H1793 C1801 0.950 . S
H1794 C1799 0.950 . S
H1795 C1800 0.949 . S
H1796 C1802 0.950 . S
H1797 C1803 0.950 . S
H1798 C1804 0.949 . S
C1799 H1794 0.950 . S
C1799 C1801 1.327 . S
C1799 C1805 1.429 1_455 S
C1800 C1792 1.574 . S
C1800 H1795 0.949 . S
C1800 C1806 1.368 . S
C1801 C1785 1.349 1_455 S
C1801 H1793 0.950 . S
C1801 C1799 1.327 . S
C1802 C1790 1.349 1_655 S
C1802 H1796 0.950 . S
C1802 C1803 1.327 . S
C1803 H1797 0.950 . S
C1803 C1802 1.327 . S
C1803 C1807 1.429 1_655 S
C1804 C1787 1.574 . S
C1804 H1798 0.949 . S
C1804 C1808 1.368 . S
C1805 C1786 1.429 . S
C1805 C1799 1.429 1_655 S
C1805 C1806 1.523 . S
C1806 C1787 1.368 1_655 S
C1806 C1800 1.368 . S
C1806 C1805 1.523 . S
C1807 C1791 1.429 . S
C1807 C1803 1.429 1_455 S
C1807 C1808 1.523 . S
C1808 C1792 1.368 1_455 S
C1808 C1804 1.368 . S
C1808 C1807 1.523 . S
H1809 C1784 0.950 . S
H1810 C1786 0.950 . S
H1811 C1787 0.949 . S
H1812 C1789 0.950 . S
H1813 C1791 0.950 . S
C1814 C1815 1.349 . S
C1814 C1816 1.327 . S
C1814 H1839 0.950 . S
C1815 C1814 1.349 . S
C1815 C1831 1.349 . S
C1816 C1814 1.327 . S
C1816 C1835 1.429 . S
C1816 H1840 0.950 . S
C1817 C1834 1.574 . S
C1817 C1836 1.368 . S
C1817 H1841 0.949 . S
H1818 C1822 0.949 . S
C1819 C1820 1.349 . S
C1819 C1821 1.327 . S
C1819 H1842 0.950 . S
C1820 C1819 1.349 . S
C1820 C1832 1.349 . S
C1821 C1819 1.327 . S
C1821 C1837 1.429 . S
C1821 H1843 0.950 . S
C1822 H1818 0.949 . S
C1822 C1830 1.574 . S
C1822 C1838 1.368 . S
H1823 C1831 0.950 . S
H1824 C1829 0.950 . S
H1825 C1830 0.949 . S
H1826 C1832 0.950 . S
H1827 C1833 0.950 . S
H1828 C1834 0.949 . S
C1829 H1824 0.950 . S
C1829 C1831 1.327 . S
C1829 C1835 1.429 . S
C1830 C1822 1.574 . S
C1830 H1825 0.949 . S
C1830 C1836 1.368 . S
C1831 C1815 1.349 . S
C1831 H1823 0.950 . S
C1831 C1829 1.327 . S
C1832 C1820 1.349 . S
C1832 H1826 0.950 . S
C1832 C1833 1.327 . S
C1833 H1827 0.950 . S
C1833 C1832 1.327 . S
C1833 C1837 1.429 . S
C1834 C1817 1.574 . S
C1834 H1828 0.949 . S
C1834 C1838 1.368 . S
C1835 C1816 1.429 . S
C1835 C1829 1.429 . S
C1835 C1836 1.523 . S
C1836 C1817 1.368 . S
C1836 C1830 1.368 . S
C1836 C1835 1.523 . S
C1837 C1821 1.429 . S
C1837 C1833 1.429 . S
C1837 C1838 1.523 . S
C1838 C1822 1.368 . S
C1838 C1834 1.368 . S
C1838 C1837 1.523 . S
H1839 C1814 0.950 . S
H1840 C1816 0.950 . S
H1841 C1817 0.949 . S
H1842 C1819 0.950 . S
H1843 C1821 0.950 . S
C1844 C1845 1.349 . S
C1844 C1846 1.327 . S
C1844 H1869 0.950 . S
C1845 C1844 1.349 . S
C1845 C1861 1.349 . S
C1846 C1844 1.327 . S
C1846 C1865 1.429 . S
C1846 H1870 0.950 . S
C1847 C1864 1.574 . S
C1847 C1866 1.368 . S
C1847 H1871 0.949 . S
H1848 C1852 0.949 . S
C1849 C1850 1.349 . S
C1849 C1851 1.327 . S
C1849 H1872 0.950 . S
C1850 C1849 1.349 . S
C1850 C1862 1.349 . S
C1851 C1849 1.327 . S
C1851 C1867 1.429 . S
C1851 H1873 0.950 . S
C1852 H1848 0.949 . S
C1852 C1860 1.574 . S
C1852 C1868 1.368 . S
H1853 C1861 0.950 . S
H1854 C1859 0.950 . S
H1855 C1860 0.949 . S
H1856 C1862 0.950 . S
H1857 C1863 0.950 . S
H1858 C1864 0.949 . S
C1859 H1854 0.950 . S
C1859 C1861 1.327 . S
C1859 C1865 1.429 . S
C1860 C1852 1.574 . S
C1860 H1855 0.949 . S
C1860 C1866 1.368 . S
C1861 C1845 1.349 . S
C1861 H1853 0.950 . S
C1861 C1859 1.327 . S
C1862 C1850 1.349 . S
C1862 H1856 0.950 . S
C1862 C1863 1.327 . S
C1863 H1857 0.950 . S
C1863 C1862 1.327 . S
C1863 C1867 1.429 . S
C1864 C1847 1.574 . S
C1864 H1858 0.949 . S
C1864 C1868 1.368 . S
C1865 C1846 1.429 . S
C1865 C1859 1.429 . S
C1865 C1866 1.523 . S
C1866 C1847 1.368 . S
C1866 C1860 1.368 . S
C1866 C1865 1.523 . S
C1867 C1851 1.429 . S
C1867 C1863 1.429 . S
C1867 C1868 1.523 . S
C1868 C1852 1.368 . S
C1868 C1864 1.368 . S
C1868 C1867 1.523 . S
H1869 C1844 0.950 . S
H1870 C1846 0.950 . S
H1871 C1847 0.949 . S
H1872 C1849 0.950 . S
H1873 C1851 0.950 . S
C1874 C1875 1.349 1_455 S
C1874 C1876 1.327 . S
C1874 H1899 0.950 . S
C1875 C1874 1.349 1_655 S
C1875 C1891 1.349 . S
C1876 C1874 1.327 . S
C1876 C1895 1.429 1_455 S
C1876 H1900 0.950 . S
C1877 C1894 1.574 . S
C1877 C1896 1.368 . S
C1877 H1901 0.949 . S
H1878 C1882 0.949 . S
C1879 C1880 1.349 1_655 S
C1879 C1881 1.327 . S
C1879 H1902 0.950 . S
C1880 C1879 1.349 1_455 S
C1880 C1892 1.349 . S
C1881 C1879 1.327 . S
C1881 C1897 1.429 1_655 S
C1881 H1903 0.950 . S
C1882 H1878 0.949 . S
C1882 C1890 1.574 . S
C1882 C1898 1.368 . S
H1883 C1891 0.950 . S
H1884 C1889 0.950 . S
H1885 C1890 0.949 . S
H1886 C1892 0.950 . S
H1887 C1893 0.950 . S
H1888 C1894 0.949 . S
C1889 H1884 0.950 . S
C1889 C1891 1.327 . S
C1889 C1895 1.429 . S
C1890 C1882 1.574 . S
C1890 H1885 0.949 . S
C1890 C1896 1.368 1_455 S
C1891 C1875 1.349 . S
C1891 H1883 0.950 . S
C1891 C1889 1.327 . S
C1892 C1880 1.349 . S
C1892 H1886 0.950 . S
C1892 C1893 1.327 . S
C1893 H1887 0.950 . S
C1893 C1892 1.327 . S
C1893 C1897 1.429 . S
C1894 C1877 1.574 . S
C1894 H1888 0.949 . S
C1894 C1898 1.368 1_655 S
C1895 C1876 1.429 1_655 S
C1895 C1889 1.429 . S
C1895 C1896 1.523 . S
C1896 C1877 1.368 . S
C1896 C1890 1.368 1_655 S
C1896 C1895 1.523 . S
C1897 C1881 1.429 1_455 S
C1897 C1893 1.429 . S
C1897 C1898 1.523 . S
C1898 C1882 1.368 . S
C1898 C1894 1.368 1_455 S
C1898 C1897 1.523 . S
H1899 C1874 0.950 . S
H1900 C1876 0.950 . S
H1901 C1877 0.949 . S
H1902 C1879 0.950 . S
H1903 C1881 0.950 . S
C1904 C1905 1.349 1_655 S
C1904 C1906 1.327 . S
C1904 H1929 0.950 . S
C1905 C1904 1.349 1_455 S
C1905 C1921 1.349 . S
C1906 C1904 1.327 . S
C1906 C1925 1.429 1_655 S
C1906 H1930 0.950 . S
C1907 C1924 1.574 . S
C1907 C1926 1.368 . S
C1907 H1931 0.949 . S
H1908 C1912 0.949 . S
C1909 C1910 1.349 1_455 S
C1909 C1911 1.327 . S
C1909 H1932 0.950 . S
C1910 C1909 1.349 1_655 S
C1910 C1922 1.349 . S
C1911 C1909 1.327 . S
C1911 C1927 1.429 1_455 S
C1911 H1933 0.950 . S
C1912 H1908 0.949 . S
C1912 C1920 1.574 . S
C1912 C1928 1.368 . S
H1913 C1921 0.950 . S
H1914 C1919 0.950 . S
H1915 C1920 0.949 . S
H1916 C1922 0.950 . S
H1917 C1923 0.950 . S
H1918 C1924 0.949 . S
C1919 H1914 0.950 . S
C1919 C1921 1.327 . S
C1919 C1925 1.429 . S
C1920 C1912 1.574 . S
C1920 H1915 0.949 . S
C1920 C1926 1.368 1_655 S
C1921 C1905 1.349 . S
C1921 H1913 0.950 . S
C1921 C1919 1.327 . S
C1922 C1910 1.349 . S
C1922 H1916 0.950 . S
C1922 C1923 1.327 . S
C1923 H1917 0.950 . S
C1923 C1922 1.327 . S
C1923 C1927 1.429 . S
C1924 C1907 1.574 . S
C1924 H1918 0.949 . S
C1924 C1928 1.368 1_455 S
C1925 C1906 1.429 1_455 S
C1925 C1919 1.429 . S
C1925 C1926 1.523 . S
C1926 C1907 1.368 . S
C1926 C1920 1.368 1_455 S
C1926 C1925 1.523 . S
C1927 C1911 1.429 1_655 S
C1927 C1923 1.429 . S
C1927 C1928 1.523 . S
C1928 C1912 1.368 . S
C1928 C1924 1.368 1_655 S
C1928 C1927 1.523 . S
H1929 C1904 0.950 . S
H1930 C1906 0.950 . S
H1931 C1907 0.949 . S
H1932 C1909 0.950 . S
H1933 C1911 0.950 . S
C1934 C1935 1.349 . S
C1934 C1936 1.327 . S
C1934 H1959 0.950 . S
C1935 C1934 1.349 . S
C1935 C1951 1.349 . S
C1936 C1934 1.327 . S
C1936 C1955 1.429 . S
C1936 H1960 0.950 . S
C1937 C1954 1.574 . S
C1937 C1956 1.368 . S
C1937 H1961 0.949 . S
H1938 C1942 0.949 . S
C1939 C1940 1.349 . S
C1939 C1941 1.327 . S
C1939 H1962 0.950 . S
C1940 C1939 1.349 . S
C1940 C1952 1.349 . S
C1941 C1939 1.327 . S
C1941 C1957 1.429 . S
C1941 H1963 0.950 . S
C1942 H1938 0.949 . S
C1942 C1950 1.574 . S
C1942 C1958 1.368 . S
H1943 C1951 0.950 . S
H1944 C1949 0.950 . S
H1945 C1950 0.949 . S
H1946 C1952 0.950 . S
H1947 C1953 0.950 . S
H1948 C1954 0.949 . S
C1949 H1944 0.950 . S
C1949 C1951 1.327 . S
C1949 C1955 1.429 . S
C1950 C1942 1.574 . S
C1950 H1945 0.949 . S
C1950 C1956 1.368 . S
C1951 C1935 1.349 . S
C1951 H1943 0.950 . S
C1951 C1949 1.327 . S
C1952 C1940 1.349 . S
C1952 H1946 0.950 . S
C1952 C1953 1.327 . S
C1953 H1947 0.950 . S
C1953 C1952 1.327 . S
C1953 C1957 1.429 . S
C1954 C1937 1.574 . S
C1954 H1948 0.949 . S
C1954 C1958 1.368 . S
C1955 C1936 1.429 . S
C1955 C1949 1.429 . S
C1955 C1956 1.523 . S
C1956 C1937 1.368 . S
C1956 C1950 1.368 . S
C1956 C1955 1.523 . S
C1957 C1941 1.429 . S
C1957 C1953 1.429 . S
C1957 C1958 1.523 . S
C1958 C1942 1.368 . S
C1958 C1954 1.368 . S
C1958 C1957 1.523 . S
H1959 C1934 0.950 . S
H1960 C1936 0.950 . S
H1961 C1937 0.949 . S
H1962 C1939 0.950 . S
H1963 C1941 0.950 . S
C1964 C1965 1.349 1_455 S
C1964 C1966 1.327 . S
C1964 H1989 0.950 . S
C1965 C1964 1.349 1_655 S
C1965 C1981 1.349 . S
C1966 C1964 1.327 . S
C1966 C1985 1.429 1_455 S
C1966 H1990 0.950 . S
C1967 C1984 1.574 . S
C1967 C1986 1.368 . S
C1967 H1991 0.949 . S
H1968 C1972 0.949 . S
C1969 C1970 1.349 1_655 S
C1969 C1971 1.327 . S
C1969 H1992 0.950 . S
C1970 C1969 1.349 1_455 S
C1970 C1982 1.349 . S
C1971 C1969 1.327 . S
C1971 C1987 1.429 1_655 S
C1971 H1993 0.950 . S
C1972 H1968 0.949 . S
C1972 C1980 1.574 . S
C1972 C1988 1.368 . S
H1973 C1981 0.950 . S
H1974 C1979 0.950 . S
H1975 C1980 0.949 . S
H1976 C1982 0.950 . S
H1977 C1983 0.950 . S
H1978 C1984 0.949 . S
C1979 H1974 0.950 . S
C1979 C1981 1.327 . S
C1979 C1985 1.429 . S
C1980 C1972 1.574 . S
C1980 H1975 0.949 . S
C1980 C1986 1.368 1_455 S
C1981 C1965 1.349 . S
C1981 H1973 0.950 . S
C1981 C1979 1.327 . S
C1982 C1970 1.349 . S
C1982 H1976 0.950 . S
C1982 C1983 1.327 . S
C1983 H1977 0.950 . S
C1983 C1982 1.327 . S
C1983 C1987 1.429 . S
C1984 C1967 1.574 . S
C1984 H1978 0.949 . S
C1984 C1988 1.368 1_655 S
C1985 C1966 1.429 1_655 S
C1985 C1979 1.429 . S
C1985 C1986 1.523 . S
C1986 C1967 1.368 . S
C1986 C1980 1.368 1_655 S
C1986 C1985 1.523 . S
C1987 C1971 1.429 1_455 S
C1987 C1983 1.429 . S
C1987 C1988 1.523 . S
C1988 C1972 1.368 . S
C1988 C1984 1.368 1_455 S
C1988 C1987 1.523 . S
H1989 C1964 0.950 . S
H1990 C1966 0.950 . S
H1991 C1967 0.949 . S
H1992 C1969 0.950 . S
H1993 C1971 0.950 . S
C1994 C1995 1.349 . S
C1994 C1996 1.327 . S
C1994 H2019 0.950 . S
C1995 C1994 1.349 . S
C1995 C2011 1.349 . S
C1996 C1994 1.327 . S
C1996 C2015 1.429 . S
C1996 H2020 0.950 . S
C1997 C2014 1.574 . S
C1997 C2016 1.368 . S
C1997 H2021 0.949 . S
H1998 C2002 0.949 . S
C1999 C2000 1.349 . S
C1999 C2001 1.327 . S
C1999 H2022 0.950 . S
C2000 C1999 1.349 . S
C2000 C2012 1.349 . S
C2001 C1999 1.327 . S
C2001 C2017 1.429 . S
C2001 H2023 0.950 . S
C2002 H1998 0.949 . S
C2002 C2010 1.574 . S
C2002 C2018 1.368 . S
H2003 C2011 0.950 . S
H2004 C2009 0.950 . S
H2005 C2010 0.949 . S
H2006 C2012 0.950 . S
H2007 C2013 0.950 . S
H2008 C2014 0.949 . S
C2009 H2004 0.950 . S
C2009 C2011 1.327 . S
C2009 C2015 1.429 . S
C2010 C2002 1.574 . S
C2010 H2005 0.949 . S
C2010 C2016 1.368 . S
C2011 C1995 1.349 . S
C2011 H2003 0.950 . S
C2011 C2009 1.327 . S
C2012 C2000 1.349 . S
C2012 H2006 0.950 . S
C2012 C2013 1.327 . S
C2013 H2007 0.950 . S
C2013 C2012 1.327 . S
C2013 C2017 1.429 . S
C2014 C1997 1.574 . S
C2014 H2008 0.949 . S
C2014 C2018 1.368 . S
C2015 C1996 1.429 . S
C2015 C2009 1.429 . S
C2015 C2016 1.523 . S
C2016 C1997 1.368 . S
C2016 C2010 1.368 . S
C2016 C2015 1.523 . S
C2017 C2001 1.429 . S
C2017 C2013 1.429 . S
C2017 C2018 1.523 . S
C2018 C2002 1.368 . S
C2018 C2014 1.368 . S
C2018 C2017 1.523 . S
H2019 C1994 0.950 . S
H2020 C1996 0.950 . S
H2021 C1997 0.949 . S
H2022 C1999 0.950 . S
H2023 C2001 0.950 . S
C2024 C2025 1.349 . S
C2024 C2026 1.327 . S
C2024 H2049 0.950 . S
C2025 C2024 1.349 . S
C2025 C2041 1.349 . S
C2026 C2024 1.327 . S
C2026 C2045 1.429 . S
C2026 H2050 0.950 . S
C2027 C2044 1.574 . S
C2027 C2046 1.368 . S
C2027 H2051 0.949 . S
H2028 C2032 0.949 . S
C2029 C2030 1.349 . S
C2029 C2031 1.327 . S
C2029 H2052 0.950 . S
C2030 C2029 1.349 . S
C2030 C2042 1.349 . S
C2031 C2029 1.327 . S
C2031 C2047 1.429 . S
C2031 H2053 0.950 . S
C2032 H2028 0.949 . S
C2032 C2040 1.574 . S
C2032 C2048 1.368 . S
H2033 C2041 0.950 . S
H2034 C2039 0.950 . S
H2035 C2040 0.949 . S
H2036 C2042 0.950 . S
H2037 C2043 0.950 . S
H2038 C2044 0.949 . S
C2039 H2034 0.950 . S
C2039 C2041 1.327 . S
C2039 C2045 1.429 . S
C2040 C2032 1.574 . S
C2040 H2035 0.949 . S
C2040 C2046 1.368 . S
C2041 C2025 1.349 . S
C2041 H2033 0.950 . S
C2041 C2039 1.327 . S
C2042 C2030 1.349 . S
C2042 H2036 0.950 . S
C2042 C2043 1.327 . S
C2043 H2037 0.950 . S
C2043 C2042 1.327 . S
C2043 C2047 1.429 . S
C2044 C2027 1.574 . S
C2044 H2038 0.949 . S
C2044 C2048 1.368 . S
C2045 C2026 1.429 . S
C2045 C2039 1.429 . S
C2045 C2046 1.523 . S
C2046 C2027 1.368 . S
C2046 C2040 1.368 . S
C2046 C2045 1.523 . S
C2047 C2031 1.429 . S
C2047 C2043 1.429 . S
C2047 C2048 1.523 . S
C2048 C2032 1.368 . S
C2048 C2044 1.368 . S
C2048 C2047 1.523 . S
H2049 C2024 0.950 . S
H2050 C2026 0.950 . S
H2051 C2027 0.949 . S
H2052 C2029 0.950 . S
H2053 C2031 0.950 . S
C2054 C2055 1.349 1_655 S
C2054 C2056 1.327 . S
C2054 H2079 0.950 . S
C2055 C2054 1.349 1_455 S
C2055 C2071 1.349 . S
C2056 C2054 1.327 . S
C2056 C2075 1.429 1_655 S
C2056 H2080 0.950 . S
C2057 C2074 1.574 . S
C2057 C2076 1.368 . S
C2057 H2081 0.949 . S
H2058 C2062 0.949 . S
C2059 C2060 1.349 1_455 S
C2059 C2061 1.327 . S
C2059 H2082 0.950 . S
C2060 C2059 1.349 1_655 S
C2060 C2072 1.349 . S
C2061 C2059 1.327 . S
C2061 C2077 1.429 1_455 S
C2061 H2083 0.950 . S
C2062 H2058 0.949 . S
C2062 C2070 1.574 . S
C2062 C2078 1.368 . S
H2063 C2071 0.950 . S
H2064 C2069 0.950 . S
H2065 C2070 0.949 . S
H2066 C2072 0.950 . S
H2067 C2073 0.950 . S
H2068 C2074 0.949 . S
C2069 H2064 0.950 . S
C2069 C2071 1.327 . S
C2069 C2075 1.429 . S
C2070 C2062 1.574 . S
C2070 H2065 0.949 . S
C2070 C2076 1.368 1_655 S
C2071 C2055 1.349 . S
C2071 H2063 0.950 . S
C2071 C2069 1.327 . S
C2072 C2060 1.349 . S
C2072 H2066 0.950 . S
C2072 C2073 1.327 . S
C2073 H2067 0.950 . S
C2073 C2072 1.327 . S
C2073 C2077 1.429 . S
C2074 C2057 1.574 . S
C2074 H2068 0.949 . S
C2074 C2078 1.368 1_455 S
C2075 C2056 1.429 1_455 S
C2075 C2069 1.429 . S
C2075 C2076 1.523 . S
C2076 C2057 1.368 . S
C2076 C2070 1.368 1_455 S
C2076 C2075 1.523 . S
C2077 C2061 1.429 1_655 S
C2077 C2073 1.429 . S
C2077 C2078 1.523 . S
C2078 C2062 1.368 . S
C2078 C2074 1.368 1_655 S
C2078 C2077 1.523 . S
H2079 C2054 0.950 . S
H2080 C2056 0.950 . S
H2081 C2057 0.949 . S
H2082 C2059 0.950 . S
H2083 C2061 0.950 . S
C2084 C2085 1.349 . S
C2084 C2086 1.327 . S
C2084 H2109 0.950 . S
C2085 C2084 1.349 . S
C2085 C2101 1.349 . S
C2086 C2084 1.327 . S
C2086 C2105 1.429 . S
C2086 H2110 0.950 . S
C2087 C2104 1.574 . S
C2087 C2106 1.368 . S
C2087 H2111 0.949 . S
H2088 C2092 0.949 . S
C2089 C2090 1.349 . S
C2089 C2091 1.327 . S
C2089 H2112 0.950 . S
C2090 C2089 1.349 . S
C2090 C2102 1.349 . S
C2091 C2089 1.327 . S
C2091 C2107 1.429 . S
C2091 H2113 0.950 . S
C2092 H2088 0.949 . S
C2092 C2100 1.574 . S
C2092 C2108 1.368 . S
H2093 C2101 0.950 . S
H2094 C2099 0.950 . S
H2095 C2100 0.949 . S
H2096 C2102 0.950 . S
H2097 C2103 0.950 . S
H2098 C2104 0.949 . S
C2099 H2094 0.950 . S
C2099 C2101 1.327 . S
C2099 C2105 1.429 . S
C2100 C2092 1.574 . S
C2100 H2095 0.949 . S
C2100 C2106 1.368 . S
C2101 C2085 1.349 . S
C2101 H2093 0.950 . S
C2101 C2099 1.327 . S
C2102 C2090 1.349 . S
C2102 H2096 0.950 . S
C2102 C2103 1.327 . S
C2103 H2097 0.950 . S
C2103 C2102 1.327 . S
C2103 C2107 1.429 . S
C2104 C2087 1.574 . S
C2104 H2098 0.949 . S
C2104 C2108 1.368 . S
C2105 C2086 1.429 . S
C2105 C2099 1.429 . S
C2105 C2106 1.523 . S
C2106 C2087 1.368 . S
C2106 C2100 1.368 . S
C2106 C2105 1.523 . S
C2107 C2091 1.429 . S
C2107 C2103 1.429 . S
C2107 C2108 1.523 . S
C2108 C2092 1.368 . S
C2108 C2104 1.368 . S
C2108 C2107 1.523 . S
H2109 C2084 0.950 . S
H2110 C2086 0.950 . S
H2111 C2087 0.949 . S
H2112 C2089 0.950 . S
H2113 C2091 0.950 . S
C2114 C2115 1.349 . S
C2114 C2116 1.327 . S
C2114 H2139 0.950 . S
C2115 C2114 1.349 . S
C2115 C2131 1.349 1_455 S
C2116 C2114 1.327 . S
C2116 C2135 1.429 . S
C2116 H2140 0.950 . S
C2117 C2134 1.574 . S
C2117 C2136 1.368 1_655 S
C2117 H2141 0.949 . S
H2118 C2122 0.949 . S
C2119 C2120 1.349 . S
C2119 C2121 1.327 . S
C2119 H2142 0.950 . S
C2120 C2119 1.349 . S
C2120 C2132 1.349 1_655 S
C2121 C2119 1.327 . S
C2121 C2137 1.429 . S
C2121 H2143 0.950 . S
C2122 H2118 0.949 . S
C2122 C2130 1.574 . S
C2122 C2138 1.368 1_455 S
H2123 C2131 0.950 . S
H2124 C2129 0.950 . S
H2125 C2130 0.949 . S
H2126 C2132 0.950 . S
H2127 C2133 0.950 . S
H2128 C2134 0.949 . S
C2129 H2124 0.950 . S
C2129 C2131 1.327 . S
C2129 C2135 1.429 1_655 S
C2130 C2122 1.574 . S
C2130 H2125 0.949 . S
C2130 C2136 1.368 . S
C2131 C2115 1.349 1_655 S
C2131 H2123 0.950 . S
C2131 C2129 1.327 . S
C2132 C2120 1.349 1_455 S
C2132 H2126 0.950 . S
C2132 C2133 1.327 . S
C2133 H2127 0.950 . S
C2133 C2132 1.327 . S
C2133 C2137 1.429 1_455 S
C2134 C2117 1.574 . S
C2134 H2128 0.949 . S
C2134 C2138 1.368 . S
C2135 C2116 1.429 . S
C2135 C2129 1.429 1_455 S
C2135 C2136 1.523 . S
C2136 C2117 1.368 1_455 S
C2136 C2130 1.368 . S
C2136 C2135 1.523 . S
C2137 C2121 1.429 . S
C2137 C2133 1.429 1_655 S
C2137 C2138 1.523 . S
C2138 C2122 1.368 1_655 S
C2138 C2134 1.368 . S
C2138 C2137 1.523 . S
H2139 C2114 0.950 . S
H2140 C2116 0.950 . S
H2141 C2117 0.949 . S
H2142 C2119 0.950 . S
H2143 C2121 0.950 . S
C465 C15 2.240 . S
C470 C21 2.148 . S
C495 C50 2.148 . S
C500 C44 2.240 . S
C525 C79 2.148 . S
C530 C73 2.240 . S
C555 C108 2.148 . S
C560 C102 2.240 . S
C585 C131 2.240 . S
C590 C137 2.148 . S
C615 C160 2.240 . S
C620 C166 2.148 . S
C645 C189 2.240 . S
C650 C195 2.148 . S
C675 C224 2.148 . S
C680 C218 2.240 . S
C705 C253 2.148 . S
C710 C247 2.240 . S
C735 C276 2.240 . S
C740 C282 2.148 . S
C765 C305 2.240 . S
C770 C311 2.148 . S
C795 C340 2.148 . S
C800 C334 2.240 . S
C825 C369 2.148 . S
C830 C363 2.240 . S
C855 C398 2.148 . S
C860 C392 2.240 . S
C885 C427 2.148 . S
C890 C421 2.240 . S
C915 C450 2.240 . S
C920 C456 2.148 . S
C945 C3 0.843 . S
C950 C158 0.835 . S
C975 C32 0.843 . S
C980 C129 0.835 . S
C1005 C61 0.842 . S
C1010 C216 0.834 . S
C1035 C90 0.842 . S
C1040 C187 0.834 . S
C1065 C119 0.843 . S
C1070 C42 0.835 . S
C1095 C148 0.843 . S
C1100 C13 0.835 . S
C1125 C100 0.834 . S
C1130 C177 0.842 . S
C1155 C71 0.834 . S
C1160 C206 0.842 . S
C1185 C235 0.842 . S
C1190 C390 0.835 . S
C1215 C361 0.835 . S
C1220 C264 0.843 . S
C1245 C293 0.844 . S
C1250 C448 0.836 . S
C1275 C419 0.836 . S
C1280 C322 0.843 . S
C1305 C274 0.835 . S
C1310 C351 0.842 . S
C1335 C380 0.843 . S
C1340 C245 0.835 . S
C1365 C409 0.844 . S
C1370 C332 0.836 . S
C1395 C438 0.843 . S
C1400 C303 0.836 . S
C1425 C5 1.260 . S
C1430 C34 1.260 . S
C1455 C92 1.260 . S
C1460 C63 1.260 . S
C1485 C121 1.260 . S
C1490 C150 1.260 . S
C1515 C208 1.260 . S
C1520 C179 1.260 . S
C1545 C266 1.260 . S
C1550 C237 1.260 . S
C1575 C295 1.260 . S
C1580 C324 1.260 . S
C1605 C353 1.260 . S
C1610 C382 1.260 . S
C1635 C411 1.260 . S
C1640 C440 1.260 . S
C1665 C10 1.522 . S
C1670 C271 1.522 . S
C1695 C39 1.522 . S
C1700 C242 1.522 . S
C1725 C329 1.522 . S
C1730 C68 1.522 . S
C1755 C300 1.522 . S
C1760 C97 1.522 . S
C1785 C126 1.522 . S
C1790 C387 1.522 . S
C1815 C155 1.522 . S
C1820 C358 1.522 . S
C1845 C184 1.522 . S
C1850 C445 1.522 . S
C1875 C416 1.522 . S
C1880 C213 1.522 . S
C1905 C95 1.325 . S
C1910 C8 1.325 . S
C1935 C37 1.325 . S
C1940 C66 1.325 . S
C1965 C211 1.325 . S
C1970 C124 1.325 . S
C1995 C153 1.325 . S
C2000 C182 1.325 . S
C2025 C240 1.325 . S
C2030 C327 1.325 . S
C2055 C269 1.325 . S
C2060 C298 1.325 . S
C2085 C443 1.325 . S
C2090 C356 1.325 . S
C2115 C414 1.325 . S
C2120 C385 1.325 . S
