# Generated by pormake.
# Topology gis, (4)-cn, num edge types: 1
# Building blocks:
#     Node 0, Type 0, BuildingBlock: KUFVIS_clean_sbu_0, # of connection points: 4
#     Node 1, Type 0, BuildingBlock: KUFVIS_clean_sbu_0, # of connection points: 4
#     Node 2, Type 0, BuildingBlock: KUFVIS_clean_sbu_0, # of connection points: 4
#     Node 3, Type 0, BuildingBlock: KUFVIS_clean_sbu_0, # of connection points: 4
#     Node 4, Type 0, BuildingBlock: KUFVIS_clean_sbu_0, # of connection points: 4
#     Node 5, Type 0, BuildingBlock: KUFVIS_clean_sbu_0, # of connection points: 4
#     Node 6, Type 0, BuildingBlock: KUFVIS_clean_sbu_0, # of connection points: 4
#     Node 7, Type 0, BuildingBlock: KUFVIS_clean_sbu_0, # of connection points: 4
#     Node 8, Type 0, BuildingBlock: KUFVIS_clean_sbu_0, # of connection points: 4
#     Node 9, Type 0, BuildingBlock: KUFVIS_clean_sbu_0, # of connection points: 4
#     Node 10, Type 0, BuildingBlock: KUFVIS_clean_sbu_0, # of connection points: 4
#     Node 11, Type 0, BuildingBlock: KUFVIS_clean_sbu_0, # of connection points: 4
#     Node 12, Type 0, BuildingBlock: KUFVIS_clean_sbu_0, # of connection points: 4
#     Node 13, Type 0, BuildingBlock: KUFVIS_clean_sbu_0, # of connection points: 4
#     Node 14, Type 0, BuildingBlock: KUFVIS_clean_sbu_0, # of connection points: 4
#     Node 15, Type 0, BuildingBlock: KUFVIS_clean_sbu_0, # of connection points: 4
#     Edge 16, Type (0, 0), BuildingBlock: ZUJKAS_clean_linker_0, # of connection points: 2
#     Edge 17, Type (0, 0), BuildingBlock: ZUJKAS_clean_linker_0, # of connection points: 2
#     Edge 18, Type (0, 0), BuildingBlock: ZUJKAS_clean_linker_0, # of connection points: 2
#     Edge 19, Type (0, 0), BuildingBlock: ZUJKAS_clean_linker_0, # of connection points: 2
#     Edge 20, Type (0, 0), BuildingBlock: ZUJKAS_clean_linker_0, # of connection points: 2
#     Edge 21, Type (0, 0), BuildingBlock: ZUJKAS_clean_linker_0, # of connection points: 2
#     Edge 22, Type (0, 0), BuildingBlock: ZUJKAS_clean_linker_0, # of connection points: 2
#     Edge 23, Type (0, 0), BuildingBlock: ZUJKAS_clean_linker_0, # of connection points: 2
#     Edge 24, Type (0, 0), BuildingBlock: ZUJKAS_clean_linker_0, # of connection points: 2
#     Edge 25, Type (0, 0), BuildingBlock: ZUJKAS_clean_linker_0, # of connection points: 2
#     Edge 26, Type (0, 0), BuildingBlock: ZUJKAS_clean_linker_0, # of connection points: 2
#     Edge 27, Type (0, 0), BuildingBlock: ZUJKAS_clean_linker_0, # of connection points: 2
#     Edge 28, Type (0, 0), BuildingBlock: ZUJKAS_clean_linker_0, # of connection points: 2
#     Edge 29, Type (0, 0), BuildingBlock: ZUJKAS_clean_linker_0, # of connection points: 2
#     Edge 30, Type (0, 0), BuildingBlock: ZUJKAS_clean_linker_0, # of connection points: 2
#     Edge 31, Type (0, 0), BuildingBlock: ZUJKAS_clean_linker_0, # of connection points: 2
#     Edge 32, Type (0, 0), BuildingBlock: ZUJKAS_clean_linker_0, # of connection points: 2
#     Edge 33, Type (0, 0), BuildingBlock: ZUJKAS_clean_linker_0, # of connection points: 2
#     Edge 34, Type (0, 0), BuildingBlock: ZUJKAS_clean_linker_0, # of connection points: 2
#     Edge 35, Type (0, 0), BuildingBlock: ZUJKAS_clean_linker_0, # of connection points: 2
#     Edge 36, Type (0, 0), BuildingBlock: ZUJKAS_clean_linker_0, # of connection points: 2
#     Edge 37, Type (0, 0), BuildingBlock: ZUJKAS_clean_linker_0, # of connection points: 2
#     Edge 38, Type (0, 0), BuildingBlock: ZUJKAS_clean_linker_0, # of connection points: 2
#     Edge 39, Type (0, 0), BuildingBlock: ZUJKAS_clean_linker_0, # of connection points: 2
#     Edge 40, Type (0, 0), BuildingBlock: ZUJKAS_clean_linker_0, # of connection points: 2
#     Edge 41, Type (0, 0), BuildingBlock: ZUJKAS_clean_linker_0, # of connection points: 2
#     Edge 42, Type (0, 0), BuildingBlock: ZUJKAS_clean_linker_0, # of connection points: 2
#     Edge 43, Type (0, 0), BuildingBlock: ZUJKAS_clean_linker_0, # of connection points: 2
#     Edge 44, Type (0, 0), BuildingBlock: ZUJKAS_clean_linker_0, # of connection points: 2
#     Edge 45, Type (0, 0), BuildingBlock: ZUJKAS_clean_linker_0, # of connection points: 2
#     Edge 46, Type (0, 0), BuildingBlock: ZUJKAS_clean_linker_0, # of connection points: 2
#     Edge 47, Type (0, 0), BuildingBlock: ZUJKAS_clean_linker_0, # of connection points: 2
# Relax obj value: 0.088
# Max RMSD: 0.145
# Mean RMSD: 0.139
data_MOF--net-gis--node1-KUFVIS_clean_sbu_0--edge1-ZUJKAS_clean_linker_0
_symmetry_space_group_name_H-M    P1
_symmetry_Int_Tables_number       1
_symmetry_cell_setting            triclinic
loop_
_symmetry_equiv_pos_as_xyz
'x, y, z'
_cell_length_a     64.60202
_cell_length_b     69.862197
_cell_length_c     49.419706
_cell_angle_alpha  90.424581
_cell_angle_beta   90.1632
_cell_angle_gamma 90.111517
loop_
_atom_site_label
_atom_site_type_symbol
_atom_site_fract_x
_atom_site_fract_y
_atom_site_fract_z
_atom_type_partial_charge
Mn0 Mn 0.13937 0.61299 0.09874 0.0
Mn1 Mn 0.11518 0.62764 0.1555 0.0
C2 C 0.10394 0.6167 0.0985 0.0
C3 C 0.1531 0.58753 0.07407 0.0
C4 C 0.1394 0.65433 0.11879 0.0
O5 O 0.1611 0.60966 0.12804 0.0
O6 O 0.14242 0.61629 0.16531 0.0
C7 C 0.10778 0.58976 0.18013 0.0
N8 N 0.10029 0.60664 0.17062 0.0
C9 C 0.06532 0.59756 0.1813 0.0
C10 C 0.07267 0.58013 0.19138 0.0
C11 C 0.09398 0.57619 0.19071 0.0
C12 C 0.0798 0.6105 0.17093 0.0
H13 H 0.12415 0.58667 0.17958 0.0
C14 C 0.15909 0.61076 0.15366 0.0
O15 O 0.15952 0.60495 0.07017 0.0
O16 O 0.13889 0.58507 0.09215 0.0
N17 N 0.08858 0.63883 0.14929 0.0
C18 C 0.084 0.65623 0.13854 0.0
C19 C 0.0633 0.66232 0.13756 0.0
C20 C 0.04758 0.65058 0.14793 0.0
C21 C 0.05272 0.6329 0.15937 0.0
C22 C 0.07362 0.62764 0.15992 0.0
H23 H 0.09602 0.66538 0.13069 0.0
O24 O 0.11407 0.61607 0.07589 0.0
O25 O 0.11481 0.61456 0.12043 0.0
O26 O 0.14357 0.64209 0.10026 0.0
O27 O 0.12968 0.65014 0.14052 0.0
C28 C 0.03792 0.62027 0.17017 0.0
C29 C 0.0442 0.60256 0.18095 0.0
H30 H 0.06208 0.56963 0.19955 0.0
H31 H 0.09976 0.56274 0.19834 0.0
H32 H 0.05948 0.67602 0.12881 0.0
H33 H 0.03163 0.65526 0.14698 0.0
H34 H 0.02165 0.62397 0.17006 0.0
H35 H 0.03264 0.59286 0.18887 0.0
Mn36 Mn 0.65468 0.88309 0.39188 0.0
Mn37 Mn 0.65108 0.87205 0.4581 0.0
C38 C 0.65321 0.85144 0.4048 0.0
C39 C 0.67484 0.8906 0.35439 0.0
C40 C 0.61424 0.88426 0.42431 0.0
O41 O 0.66197 0.90826 0.41041 0.0
O42 O 0.6598 0.89917 0.45381 0.0
C43 C 0.69578 0.87517 0.47076 0.0
N44 N 0.67797 0.86471 0.47038 0.0
C45 C 0.695 0.83788 0.49092 0.0
C46 C 0.71351 0.8484 0.49167 0.0
C47 C 0.71391 0.8671 0.48142 0.0
C48 C 0.67749 0.8466 0.47976 0.0
H49 H 0.69615 0.88957 0.46299 0.0
C50 C 0.66335 0.91174 0.43568 0.0
O51 O 0.65551 0.8956 0.3557 0.0
O52 O 0.68245 0.88165 0.37504 0.0
N53 N 0.64298 0.84635 0.46606 0.0
C54 C 0.62379 0.83828 0.46433 0.0
C55 C 0.62073 0.81959 0.47378 0.0
C56 C 0.63727 0.80958 0.48552 0.0
C57 C 0.65674 0.81837 0.48774 0.0
C58 C 0.65889 0.83697 0.47781 0.0
H59 H 0.61095 0.84601 0.45568 0.0
O60 O 0.6489 0.85631 0.38016 0.0
O61 O 0.6591 0.86516 0.42107 0.0
O62 O 0.6242 0.88663 0.40228 0.0
O63 O 0.62277 0.87894 0.44642 0.0
C64 C 0.67405 0.80947 0.49963 0.0
C65 C 0.69321 0.81913 0.50096 0.0
H66 H 0.72749 0.84226 0.50004 0.0
H67 H 0.72814 0.87529 0.48186 0.0
H68 H 0.60562 0.81295 0.47218 0.0
H69 H 0.6348 0.7952 0.49291 0.0
H70 H 0.67281 0.79518 0.50782 0.0
H71 H 0.70645 0.81206 0.50991 0.0
Mn72 Mn 0.34706 0.39556 0.60548 0.0
Mn73 Mn 0.36941 0.37516 0.65995 0.0
C74 C 0.3825 0.39107 0.60646 0.0
C75 C 0.33475 0.42256 0.58349 0.0
C76 C 0.3471 0.35246 0.61619 0.0
O77 O 0.32433 0.39724 0.63381 0.0
O78 O 0.34133 0.38453 0.66904 0.0
C79 C 0.3733 0.41012 0.69381 0.0
N80 N 0.38214 0.39457 0.68176 0.0
C81 C 0.41507 0.40155 0.70238 0.0
C82 C 0.40633 0.4176 0.71512 0.0
C83 C 0.38538 0.42197 0.71066 0.0
C84 C 0.40235 0.39044 0.68548 0.0
H85 H 0.35715 0.4134 0.69066 0.0
C86 C 0.32534 0.39232 0.65855 0.0
O87 O 0.32809 0.40556 0.57709 0.0
O88 O 0.34816 0.42384 0.60301 0.0
N89 N 0.39679 0.36544 0.65491 0.0
C90 C 0.40299 0.34982 0.64041 0.0
C91 C 0.42367 0.34376 0.64215 0.0
C92 C 0.43758 0.35348 0.65931 0.0
C93 C 0.43074 0.36932 0.6744 0.0
C94 C 0.41005 0.37487 0.67153 0.0
H95 H 0.39225 0.34206 0.62762 0.0
O96 O 0.3729 0.39357 0.5837 0.0
O97 O 0.37121 0.39182 0.62823 0.0
O98 O 0.34226 0.36668 0.60139 0.0
O99 O 0.35705 0.35412 0.63848 0.0
C100 C 0.44362 0.37983 0.69218 0.0
C101 C 0.43588 0.39608 0.70587 0.0
H102 H 0.41556 0.42668 0.72832 0.0
H103 H 0.37853 0.43435 0.72037 0.0
H104 H 0.42882 0.33149 0.6305 0.0
H105 H 0.45348 0.34869 0.66072 0.0
H106 H 0.45958 0.37567 0.69529 0.0
H107 H 0.44604 0.40424 0.71908 0.0
Mn108 Mn 0.86007 0.10395 0.88365 0.0
Mn109 Mn 0.88412 0.12366 0.83002 0.0
C110 C 0.89458 0.1123 0.88689 0.0
C111 C 0.84951 0.0768 0.90703 0.0
C112 C 0.85564 0.14596 0.86729 0.0
O113 O 0.84037 0.09805 0.85258 0.0
O114 O 0.85818 0.11079 0.818 0.0
C115 C 0.89533 0.08769 0.80166 0.0
N116 N 0.90104 0.10477 0.81287 0.0
C117 C 0.93661 0.09987 0.80029 0.0
C118 C 0.93109 0.08227 0.78846 0.0
C119 C 0.91037 0.07613 0.78924 0.0
C120 C 0.92095 0.11074 0.81243 0.0
H121 H 0.87942 0.08294 0.80222 0.0
C122 C 0.84254 0.10186 0.82757 0.0
O123 O 0.84012 0.09308 0.91028 0.0
O124 O 0.86463 0.07628 0.88986 0.0
N125 N 0.90949 0.1367 0.83805 0.0
C126 C 0.91235 0.15367 0.8513 0.0
C127 C 0.93218 0.16192 0.85219 0.0
C128 C 0.94879 0.1527 0.8393 0.0
C129 C 0.94553 0.13515 0.82607 0.0
C130 C 0.92537 0.12779 0.82545 0.0
H131 H 0.89956 0.16095 0.8609 0.0
O132 O 0.88349 0.11013 0.9085 0.0
O133 O 0.88522 0.10915 0.86389 0.0
O134 O 0.85141 0.13226 0.88335 0.0
O135 O 0.86746 0.14414 0.84675 0.0
C136 C 0.96149 0.12463 0.81355 0.0
C137 C 0.95705 0.10694 0.80082 0.0
H138 H 0.94265 0.07331 0.77888 0.0
H139 H 0.90601 0.06253 0.78025 0.0
H140 H 0.93462 0.17542 0.8626 0.0
H141 H 0.96402 0.1592 0.83977 0.0
H142 H 0.97727 0.12992 0.81386 0.0
H143 H 0.9695 0.09886 0.79158 0.0
Mn144 Mn 0.15559 0.38074 0.90241 0.0
Mn145 Mn 0.14938 0.36855 0.96786 0.0
C146 C 0.15398 0.34887 0.91415 0.0
C147 C 0.17655 0.38942 0.86636 0.0
C148 C 0.11417 0.38211 0.93232 0.0
O149 O 0.16236 0.40538 0.92243 0.0
O150 O 0.1592 0.39556 0.96546 0.0
C151 C 0.19352 0.3699 0.98407 0.0
N152 N 0.17536 0.36007 0.98185 0.0
C153 C 0.19042 0.33215 0.00218 0.0
C154 C 0.20926 0.34201 0.00482 0.0
C155 C 0.21082 0.36094 0.99563 0.0
C156 C 0.17375 0.34178 0.99035 0.0
H157 H 0.19477 0.38446 0.97705 0.0
C158 C 0.16334 0.40839 0.94785 0.0
O159 O 0.15711 0.39404 0.86708 0.0
O160 O 0.18385 0.37991 0.88675 0.0
N161 N 0.14008 0.3429 0.97363 0.0
C162 C 0.12094 0.33527 0.96908 0.0
C163 C 0.11667 0.31654 0.97748 0.0
C164 C 0.13206 0.30589 0.99062 0.0
C165 C 0.15171 0.31395 0.99485 0.0
C166 C 0.15497 0.33279 0.98636 0.0
H167 H 0.109 0.34342 0.95915 0.0
O168 O 0.1503 0.35413 0.88948 0.0
O169 O 0.15907 0.36239 0.9312 0.0
O170 O 0.12495 0.38422 0.91099 0.0
O171 O 0.12172 0.37652 0.95485 0.0
C172 C 0.16817 0.30408 0.00722 0.0
C173 C 0.18756 0.31312 0.0107 0.0
H174 H 0.22263 0.33517 0.01377 0.0
H175 H 0.22533 0.36863 0.99751 0.0
H176 H 0.10151 0.31037 0.97402 0.0
H177 H 0.12856 0.29158 0.9975 0.0
H178 H 0.16613 0.28948 0.01397 0.0
H179 H 0.20015 0.30532 0.01999 0.0
Mn180 Mn 0.85551 0.88937 0.10721 0.0
Mn181 Mn 0.87241 0.87162 0.16655 0.0
C182 C 0.89052 0.88351 0.11348 0.0
C183 C 0.84629 0.91563 0.08105 0.0
C184 C 0.85174 0.84731 0.12294 0.0
O185 O 0.83085 0.8935 0.13218 0.0
O186 O 0.84473 0.88342 0.17133 0.0
C187 C 0.87733 0.90818 0.19655 0.0
N188 N 0.88543 0.89136 0.18742 0.0
C189 C 0.91735 0.89705 0.21129 0.0
C190 C 0.90935 0.91439 0.22111 0.0
C191 C 0.8893 0.92005 0.21353 0.0
C192 C 0.90485 0.886 0.19405 0.0
H193 H 0.86185 0.91246 0.19101 0.0
C194 C 0.82996 0.89078 0.15762 0.0
O195 O 0.83911 0.89864 0.07566 0.0
O196 O 0.85849 0.91735 0.1018 0.0
N197 N 0.89906 0.85982 0.16562 0.0
C198 C 0.90477 0.8431 0.15343 0.0
C199 C 0.92453 0.83558 0.15849 0.0
C200 C 0.93799 0.84507 0.17651 0.0
C201 C 0.93171 0.86222 0.18891 0.0
C202 C 0.91198 0.86917 0.18277 0.0
H203 H 0.89429 0.8355 0.14009 0.0
O204 O 0.88279 0.88507 0.08934 0.0
O205 O 0.87763 0.88602 0.13338 0.0
O206 O 0.84936 0.86059 0.10561 0.0
O207 O 0.85966 0.85012 0.14636 0.0
C208 C 0.94422 0.87266 0.20721 0.0
C209 C 0.93719 0.89021 0.21806 0.0
H210 H 0.91846 0.92349 0.23443 0.0
H211 H 0.88303 0.93344 0.22096 0.0
H212 H 0.92927 0.82235 0.14883 0.0
H213 H 0.95312 0.83909 0.18062 0.0
H214 H 0.95941 0.86746 0.21281 0.0
H215 H 0.94713 0.8983 0.23164 0.0
Mn216 Mn 0.35644 0.60523 0.38017 0.0
Mn217 Mn 0.37966 0.62194 0.32398 0.0
C218 C 0.39162 0.61077 0.38081 0.0
C219 C 0.34367 0.57945 0.4045 0.0
C220 C 0.35488 0.64682 0.3626 0.0
O221 O 0.33462 0.60154 0.35089 0.0
O222 O 0.35287 0.60977 0.31407 0.0
C223 C 0.38823 0.58478 0.29716 0.0
N224 N 0.3951 0.6019 0.30704 0.0
C225 C 0.42991 0.59522 0.29269 0.0
C226 C 0.4232 0.57756 0.28219 0.0
C227 C 0.40228 0.57229 0.28454 0.0
C228 C 0.41521 0.60703 0.30514 0.0
H229 H 0.37215 0.58071 0.2989 0.0
C230 C 0.33649 0.60334 0.32537 0.0
O231 O 0.33663 0.59665 0.4084 0.0
O232 O 0.35781 0.57724 0.38616 0.0
N233 N 0.40584 0.63413 0.32985 0.0
C234 C 0.40992 0.65138 0.3418 0.0
C235 C 0.43009 0.65885 0.34096 0.0
C236 C 0.4458 0.6486 0.32767 0.0
C237 C 0.44129 0.63082 0.31576 0.0
C238 C 0.42084 0.62424 0.31686 0.0
H239 H 0.39783 0.65946 0.35166 0.0
O240 O 0.38138 0.6091 0.40319 0.0
O241 O 0.38112 0.60821 0.3585 0.0
O242 O 0.35133 0.63408 0.38033 0.0
O243 O 0.36446 0.64365 0.34042 0.0
C244 C 0.4563 0.61934 0.3029 0.0
C245 C 0.45064 0.60149 0.29153 0.0
H246 H 0.43398 0.56788 0.27244 0.0
H247 H 0.39699 0.55865 0.27659 0.0
H248 H 0.43351 0.67254 0.35034 0.0
H249 H 0.4613 0.65449 0.32681 0.0
H250 H 0.47227 0.62401 0.30188 0.0
H251 H 0.46235 0.59268 0.28199 0.0
Mn252 Mn 0.64158 0.10912 0.6097 0.0
Mn253 Mn 0.62146 0.12334 0.66945 0.0
C254 C 0.60665 0.11552 0.61308 0.0
C255 C 0.65155 0.08458 0.58035 0.0
C256 C 0.64384 0.15032 0.63187 0.0
O257 O 0.6645 0.10243 0.6362 0.0
O258 O 0.64974 0.11291 0.67465 0.0
C259 C 0.61797 0.08471 0.69322 0.0
N260 N 0.60899 0.10152 0.68586 0.0
C261 C 0.57614 0.09165 0.70381 0.0
C262 C 0.58504 0.07426 0.7117 0.0
C263 C 0.60602 0.07073 0.70623 0.0
C264 C 0.58873 0.10489 0.6905 0.0
H265 H 0.63413 0.082 0.68925 0.0
C266 C 0.66479 0.10539 0.66164 0.0
O267 O 0.65947 0.10163 0.57844 0.0
O268 O 0.63821 0.08184 0.59949 0.0
N269 N 0.59413 0.13378 0.66841 0.0
C270 C 0.588 0.15137 0.65979 0.0
C271 C 0.5674 0.15712 0.66367 0.0
C272 C 0.5535 0.14497 0.67706 0.0
C273 C 0.56031 0.12714 0.68637 0.0
C274 C 0.58093 0.12207 0.68157 0.0
H275 H 0.59875 0.16091 0.64998 0.0
O276 O 0.61574 0.11546 0.58973 0.0
O277 O 0.61811 0.11118 0.63386 0.0
O278 O 0.64839 0.13781 0.6138 0.0
O279 O 0.63363 0.14646 0.65329 0.0
C280 C 0.54752 0.11428 0.7005 0.0
C281 C 0.55534 0.09644 0.70887 0.0
H282 H 0.57591 0.06352 0.72198 0.0
H283 H 0.61299 0.05734 0.71221 0.0
H284 H 0.5623 0.17096 0.6566 0.0
H285 H 0.53767 0.14953 0.6802 0.0
H286 H 0.53158 0.11791 0.70491 0.0
H287 H 0.54527 0.08658 0.71939 0.0
Mn288 Mn 0.86036 0.3849 0.8927 0.0
Mn289 Mn 0.88095 0.36768 0.83489 0.0
C290 C 0.89526 0.37784 0.89099 0.0
C291 C 0.85043 0.4112 0.91885 0.0
C292 C 0.85558 0.3435 0.87352 0.0
O293 O 0.83822 0.39056 0.86466 0.0
O294 O 0.85447 0.3809 0.82677 0.0
C295 C 0.89039 0.40432 0.80785 0.0
N296 N 0.89677 0.38706 0.81738 0.0
C297 C 0.93107 0.39184 0.79986 0.0
C298 C 0.92488 0.40965 0.78975 0.0
C299 C 0.90448 0.41596 0.79391 0.0
C300 C 0.91642 0.38098 0.81385 0.0
H301 H 0.87467 0.40911 0.81079 0.0
C302 C 0.83908 0.38853 0.83903 0.0
O303 O 0.84209 0.39446 0.9224 0.0
O304 O 0.86423 0.4126 0.89997 0.0
N305 N 0.90668 0.35459 0.83932 0.0
C306 C 0.91043 0.33754 0.85159 0.0
C307 C 0.93023 0.32938 0.84984 0.0
C308 C 0.94582 0.33865 0.83512 0.0
C309 C 0.94158 0.35619 0.82265 0.0
C310 C 0.92162 0.3637 0.82528 0.0
H311 H 0.89838 0.33017 0.86249 0.0
O312 O 0.88576 0.37916 0.91402 0.0
O313 O 0.88413 0.38118 0.86955 0.0
O314 O 0.85275 0.35636 0.89162 0.0
O315 O 0.86538 0.34653 0.85154 0.0
C316 C 0.95634 0.36651 0.8077 0.0
C317 C 0.95118 0.38443 0.7966 0.0
H318 H 0.93566 0.41861 0.77885 0.0
H319 H 0.89959 0.4297 0.78622 0.0
H320 H 0.93339 0.31586 0.85956 0.0
H321 H 0.96101 0.3322 0.83358 0.0
H322 H 0.97181 0.3609 0.80488 0.0
H323 H 0.9628 0.3924 0.78561 0.0
Mn324 Mn 0.34336 0.12392 0.59128 0.0
Mn325 Mn 0.35542 0.13389 0.52654 0.0
C326 C 0.34483 0.15534 0.57764 0.0
C327 C 0.31885 0.11545 0.62346 0.0
C328 C 0.38715 0.12254 0.56876 0.0
O329 O 0.34038 0.09828 0.572 0.0
O330 O 0.34484 0.10721 0.52874 0.0
C331 C 0.3132 0.13276 0.50316 0.0
N332 N 0.33119 0.14241 0.50797 0.0
C333 C 0.31866 0.17016 0.48454 0.0
C334 C 0.30003 0.16049 0.47919 0.0
C335 C 0.29728 0.14173 0.48862 0.0
C336 C 0.33394 0.16052 0.49922 0.0
H337 H 0.31103 0.11835 0.51042 0.0
C338 C 0.34054 0.09467 0.54668 0.0
O339 O 0.33837 0.11176 0.62695 0.0
O340 O 0.31358 0.12375 0.60107 0.0
N341 N 0.36579 0.15925 0.52123 0.0
C342 C 0.38455 0.16666 0.52845 0.0
C343 C 0.38984 0.18527 0.52044 0.0
C344 C 0.37588 0.19597 0.50487 0.0
C345 C 0.35668 0.18804 0.49761 0.0
C346 C 0.35237 0.16934 0.50594 0.0
H347 H 0.39545 0.15844 0.54017 0.0
O348 O 0.34565 0.15111 0.60313 0.0
O349 O 0.3423 0.14105 0.56088 0.0
O350 O 0.37481 0.12216 0.58882 0.0
O351 O 0.38142 0.12573 0.54442 0.0
C352 C 0.34167 0.19791 0.48244 0.0
C353 C 0.32262 0.18903 0.47606 0.0
H354 H 0.28772 0.16735 0.46797 0.0
H355 H 0.28292 0.1342 0.48466 0.0
H356 H 0.40468 0.19131 0.52611 0.0
H357 H 0.38015 0.21023 0.49848 0.0
H358 H 0.34455 0.21239 0.4757 0.0
H359 H 0.31111 0.19683 0.46462 0.0
Mn360 Mn 0.64762 0.60666 0.40102 0.0
Mn361 Mn 0.62405 0.62651 0.34716 0.0
C362 C 0.61249 0.6124 0.40233 0.0
C363 C 0.65926 0.57918 0.42266 0.0
C364 C 0.65087 0.6488 0.38695 0.0
O365 O 0.66872 0.60368 0.3707 0.0
O366 O 0.64979 0.61358 0.33509 0.0
C367 C 0.61235 0.59151 0.31663 0.0
N368 N 0.60683 0.60821 0.329 0.0
C369 C 0.57109 0.60368 0.31661 0.0
C370 C 0.5764 0.58647 0.30361 0.0
C371 C 0.59711 0.58034 0.30369 0.0
C372 C 0.58695 0.61422 0.32911 0.0
H373 H 0.62825 0.58676 0.31668 0.0
C374 C 0.6662 0.60628 0.34535 0.0
O375 O 0.66734 0.59583 0.42811 0.0
O376 O 0.64501 0.57854 0.40418 0.0
N377 N 0.59883 0.63943 0.35601 0.0
C378 C 0.59611 0.65578 0.37079 0.0
C379 C 0.57621 0.66363 0.37322 0.0
C380 C 0.55934 0.65469 0.36032 0.0
C381 C 0.56251 0.63789 0.34522 0.0
C382 C 0.58273 0.63083 0.34328 0.0
H383 H 0.60902 0.6628 0.38063 0.0
O384 O 0.62279 0.60994 0.4246 0.0
O385 O 0.62301 0.61107 0.38003 0.0
O386 O 0.65384 0.63539 0.4039 0.0
O387 O 0.64099 0.64665 0.36471 0.0
C388 C 0.54636 0.62771 0.33233 0.0
C389 C 0.55064 0.61059 0.31811 0.0
H390 H 0.56469 0.57777 0.29371 0.0
H391 H 0.60131 0.56704 0.29381 0.0
H392 H 0.57388 0.67658 0.38497 0.0
H393 H 0.54403 0.66081 0.36222 0.0
H394 H 0.53054 0.63277 0.3336 0.0
H395 H 0.53805 0.60274 0.30865 0.0
Mn396 Mn 0.14783 0.89681 0.10882 0.0
Mn397 Mn 0.12607 0.88171 0.16691 0.0
C398 C 0.11233 0.89292 0.11101 0.0
C399 C 0.16058 0.92198 0.08309 0.0
C400 C 0.14769 0.85511 0.12715 0.0
O401 O 0.17101 0.90028 0.13635 0.0
O402 O 0.15419 0.8921 0.17428 0.0
C403 C 0.12196 0.91937 0.19416 0.0
N404 N 0.11322 0.90279 0.18499 0.0
C405 C 0.08013 0.91148 0.20348 0.0
C406 C 0.08878 0.92862 0.21325 0.0
C407 C 0.10976 0.93263 0.20843 0.0
C408 C 0.09299 0.89892 0.18915 0.0
H409 H 0.13813 0.92243 0.19066 0.0
C410 C 0.17023 0.89826 0.16193 0.0
O411 O 0.1667 0.90451 0.07885 0.0
O412 O 0.14728 0.92474 0.10232 0.0
N413 N 0.09875 0.87133 0.16359 0.0
C414 C 0.09262 0.85451 0.15192 0.0
C415 C 0.07193 0.84859 0.15435 0.0
C416 C 0.05789 0.85977 0.16924 0.0
C417 C 0.06463 0.87689 0.18141 0.0
C418 C 0.08538 0.88215 0.17809 0.0
H419 H 0.10344 0.84571 0.14083 0.0
O420 O 0.12166 0.89357 0.08784 0.0
O421 O 0.12397 0.89524 0.13237 0.0
O422 O 0.15196 0.86766 0.10933 0.0
O423 O 0.13854 0.85904 0.14942 0.0
C424 C 0.05157 0.88899 0.19661 0.0
C425 C 0.05925 0.90637 0.20737 0.0
H426 H 0.07944 0.93883 0.22439 0.0
H427 H 0.11655 0.94585 0.21584 0.0
H428 H 0.06685 0.83535 0.14493 0.0
H429 H 0.04196 0.85511 0.17114 0.0
H430 H 0.03553 0.88517 0.19995 0.0
H431 H 0.04896 0.91569 0.21861 0.0
Mn432 Mn 0.84001 0.61457 0.10699 0.0
Mn433 Mn 0.84826 0.62841 0.04261 0.0
C434 C 0.84006 0.64669 0.09704 0.0
C435 C 0.81754 0.60371 0.14022 0.0
C436 C 0.88242 0.61532 0.08035 0.0
O437 O 0.83654 0.59004 0.08511 0.0
O438 O 0.83834 0.60141 0.04268 0.0
C439 C 0.80495 0.62769 0.02296 0.0
N440 N 0.82296 0.63743 0.02722 0.0
C441 C 0.80865 0.66615 0.00827 0.0
C442 C 0.78998 0.6564 0.00351 0.0
C443 C 0.78812 0.6371 0.01094 0.0
C444 C 0.8249 0.65602 0.02025 0.0
H445 H 0.80345 0.61288 0.02874 0.0
C446 C 0.83537 0.58781 0.05952 0.0
O447 O 0.83727 0.60029 0.14147 0.0
O448 O 0.81087 0.61312 0.1194 0.0
N449 N 0.85784 0.65422 0.03921 0.0
C450 C 0.87671 0.6617 0.04583 0.0
C451 C 0.88101 0.68095 0.04005 0.0
C452 C 0.86596 0.69225 0.0273 0.0
C453 C 0.84679 0.68417 0.02028 0.0
C454 C 0.84345 0.66485 0.02633 0.0
H455 H 0.88837 0.65308 0.05557 0.0
O456 O 0.84236 0.64101 0.12179 0.0
O457 O 0.83695 0.63338 0.07886 0.0
O458 O 0.87131 0.61365 0.10147 0.0
O459 O 0.87527 0.61978 0.0571 0.0
C460 C 0.83075 0.69458 0.00788 0.0
C461 C 0.81167 0.6856 0.00195 0.0
H462 H 0.77694 0.66362 0.99432 0.0
H463 H 0.77373 0.6295 0.00744 0.0
H464 H 0.89586 0.68708 0.04548 0.0
H465 H 0.86929 0.70713 0.02303 0.0
H466 H 0.83284 0.70957 0.0031 0.0
H467 H 0.79938 0.69381 0.99268 0.0
Mn468 Mn 0.15023 0.10734 0.88807 0.0
Mn469 Mn 0.12167 0.12733 0.83848 0.0
C470 C 0.11512 0.11147 0.89412 0.0
C471 C 0.16489 0.08014 0.90712 0.0
C472 C 0.14953 0.15017 0.87648 0.0
O473 O 0.16924 0.10597 0.8554 0.0
O474 O 0.14774 0.11688 0.82307 0.0
C475 C 0.1115 0.09227 0.80714 0.0
N476 N 0.10521 0.10822 0.82079 0.0
C477 C 0.06943 0.10135 0.81104 0.0
C478 C 0.07552 0.0849 0.79673 0.0
C479 C 0.09665 0.08031 0.79485 0.0
C480 C 0.08492 0.1127 0.82286 0.0
H481 H 0.12772 0.08871 0.80566 0.0
C482 C 0.16506 0.10982 0.83079 0.0
O483 O 0.17228 0.09709 0.91233 0.0
O484 O 0.14949 0.07905 0.8903 0.0
N485 N 0.09593 0.13803 0.85018 0.0
C486 C 0.09259 0.15391 0.86574 0.0
C487 C 0.07226 0.16035 0.86987 0.0
C488 C 0.05561 0.15054 0.85776 0.0
C489 C 0.05942 0.13426 0.84181 0.0
C490 C 0.08003 0.12863 0.83818 0.0
H491 H 0.10533 0.16162 0.87489 0.0
O492 O 0.12721 0.10904 0.91479 0.0
O493 O 0.12386 0.11098 0.87043 0.0
O494 O 0.15526 0.13625 0.89131 0.0
O495 O 0.13765 0.14816 0.85592 0.0
C496 C 0.04358 0.12325 0.82966 0.0
C497 C 0.04857 0.10676 0.81438 0.0
H498 H 0.06412 0.07561 0.78728 0.0
H499 H 0.10146 0.0676 0.78394 0.0
H500 H 0.06943 0.17291 0.88226 0.0
H501 H 0.03996 0.15561 0.86087 0.0
H502 H 0.02749 0.12719 0.83227 0.0
H503 H 0.03624 0.09826 0.80547 0.0
Mn504 Mn 0.6391 0.39126 0.6187 0.0
Mn505 Mn 0.61896 0.37478 0.67693 0.0
C506 C 0.60402 0.3845 0.62111 0.0
C507 C 0.64957 0.41709 0.59252 0.0
C508 C 0.6435 0.35003 0.63767 0.0
O509 O 0.66181 0.3968 0.6463 0.0
O510 O 0.64551 0.38808 0.68443 0.0
C511 C 0.61004 0.41179 0.70396 0.0
N512 N 0.60353 0.39433 0.69489 0.0
C513 C 0.57013 0.39854 0.71537 0.0
C514 C 0.57645 0.41657 0.72501 0.0
C515 C 0.59644 0.42328 0.71908 0.0
C516 C 0.58419 0.38794 0.69989 0.0
H517 H 0.62552 0.41682 0.69981 0.0
C518 C 0.66096 0.39529 0.67196 0.0
O519 O 0.65742 0.40017 0.58888 0.0
O520 O 0.6358 0.41897 0.61141 0.0
N521 N 0.59316 0.36158 0.67339 0.0
C522 C 0.58918 0.34434 0.66139 0.0
C523 C 0.56973 0.33572 0.66492 0.0
C524 C 0.55481 0.34468 0.68128 0.0
C525 C 0.5593 0.36242 0.69344 0.0
C526 C 0.57878 0.37048 0.68878 0.0
H527 H 0.60082 0.33714 0.64947 0.0
O528 O 0.61325 0.38566 0.59789 0.0
O529 O 0.61547 0.38793 0.64231 0.0
O530 O 0.64613 0.36266 0.61948 0.0
O531 O 0.63419 0.35338 0.65998 0.0
C532 C 0.54525 0.37241 0.71011 0.0
C533 C 0.55051 0.3906 0.72067 0.0
H534 H 0.56609 0.42536 0.73698 0.0
H535 H 0.60143 0.43718 0.72643 0.0
H536 H 0.56637 0.32204 0.65545 0.0
H537 H 0.53994 0.33785 0.68427 0.0
H538 H 0.53019 0.36637 0.71455 0.0
H539 H 0.53938 0.39832 0.73292 0.0
Mn540 Mn 0.35112 0.88178 0.38811 0.0
Mn541 Mn 0.35595 0.86317 0.45065 0.0
C542 C 0.35233 0.84917 0.3932 0.0
C543 C 0.32966 0.89379 0.35434 0.0
C544 C 0.39206 0.87985 0.41937 0.0
O545 O 0.34473 0.9042 0.41273 0.0
O546 O 0.34634 0.89024 0.45355 0.0
C547 C 0.31149 0.86298 0.46491 0.0
N548 N 0.3296 0.85336 0.46134 0.0
C549 C 0.31349 0.8234 0.47271 0.0
C550 C 0.2947 0.83301 0.47671 0.0
C551 C 0.29369 0.85288 0.47274 0.0
C552 C 0.33071 0.83423 0.46495 0.0
H553 H 0.31062 0.87823 0.46173 0.0
C554 C 0.34309 0.90475 0.4384 0.0
O555 O 0.34915 0.8984 0.35546 0.0
O556 O 0.32276 0.8825 0.37296 0.0
N557 N 0.36503 0.83711 0.45139 0.0
C558 C 0.38436 0.83001 0.44684 0.0
C559 C 0.38799 0.81033 0.4499 0.0
C560 C 0.3718 0.79819 0.4579 0.0
C561 C 0.35218 0.8059 0.46315 0.0
C562 C 0.34954 0.82566 0.46 0.0
H563 H 0.39688 0.83926 0.44072 0.0
O564 O 0.35607 0.8568 0.36987 0.0
O565 O 0.34726 0.86085 0.41273 0.0
O566 O 0.38192 0.88395 0.39792 0.0
O567 O 0.38375 0.87245 0.44035 0.0
C568 C 0.33511 0.79475 0.4712 0.0
C569 C 0.31576 0.80348 0.47588 0.0
H570 H 0.28092 0.82527 0.48268 0.0
H571 H 0.27922 0.86039 0.47566 0.0
H572 H 0.40321 0.80451 0.44598 0.0
H573 H 0.3746 0.78299 0.45997 0.0
H574 H 0.33667 0.77943 0.4737 0.0
H575 H 0.30271 0.79473 0.48185 0.0
H576 H 0.14699 0.82566 0.16301 0.0
H577 H 0.15283 0.79185 0.15405 0.0
H578 H 0.16571 0.8041 0.07039 0.0
H579 H 0.15973 0.8383 0.07912 0.0
H580 H 0.13642 0.77466 0.07825 0.0
H581 H 0.20632 0.76209 0.14025 0.0
H582 H 0.18676 0.77473 0.15883 0.0
H583 H 0.19847 0.78573 0.12979 0.0
C584 C 0.15129 0.8213 0.14272 0.0
C585 C 0.15288 0.83476 0.12178 0.0
C586 C 0.1548 0.80193 0.13769 0.0
C587 C 0.16005 0.7955 0.11167 0.0
C588 C 0.16189 0.80883 0.09069 0.0
H589 H 0.15535 0.67131 0.07319 0.0
H590 H 0.16361 0.7053 0.06696 0.0
C591 C 0.15849 0.82834 0.09574 0.0
C592 C 0.16188 0.77466 0.10644 0.0
H593 H 0.18444 0.73445 0.1318 0.0
C594 C 0.14727 0.76584 0.08935 0.0
C595 C 0.17612 0.76323 0.12087 0.0
C596 C 0.19294 0.77196 0.13825 0.0
C597 C 0.14543 0.74581 0.08804 0.0
C598 C 0.1587 0.73443 0.10404 0.0
C599 C 0.17421 0.74324 0.11968 0.0
C600 C 0.15497 0.71369 0.10759 0.0
C601 C 0.12841 0.73698 0.07108 0.0
C602 C 0.14779 0.70717 0.13262 0.0
C603 C 0.14307 0.68789 0.13626 0.0
C604 C 0.14553 0.67461 0.11496 0.0
C605 C 0.15324 0.68112 0.09002 0.0
C606 C 0.15789 0.70053 0.08636 0.0
H607 H 0.11806 0.74793 0.0621 0.0
H608 H 0.13534 0.72846 0.05439 0.0
H609 H 0.11894 0.72712 0.08352 0.0
H610 H 0.14545 0.71712 0.14925 0.0
H611 H 0.13727 0.68346 0.15579 0.0
H612 H 0.4189 0.87398 0.46144 0.0
H613 H 0.45643 0.87756 0.46154 0.0
H614 H 0.45457 0.89613 0.37857 0.0
H615 H 0.41687 0.89287 0.37828 0.0
H616 H 0.48354 0.8579 0.42816 0.0
H617 H 0.49183 0.93643 0.4147 0.0
H618 H 0.46776 0.92541 0.42472 0.0
H619 H 0.47577 0.92463 0.38994 0.0
C620 C 0.42636 0.87904 0.44324 0.0
C621 C 0.41477 0.88314 0.41983 0.0
C622 C 0.44786 0.88107 0.44337 0.0
C623 C 0.45827 0.88731 0.42018 0.0
C624 C 0.4468 0.89166 0.39686 0.0
H625 H 0.58949 0.89479 0.38165 0.0
H626 H 0.55165 0.89623 0.38048 0.0
C627 C 0.42524 0.88967 0.39671 0.0
C628 C 0.4812 0.88806 0.42006 0.0
H629 H 0.52265 0.91802 0.41276 0.0
C630 C 0.49209 0.87106 0.42489 0.0
C631 C 0.49229 0.90523 0.4156 0.0
C632 C 0.48137 0.92402 0.41117 0.0
C633 C 0.51378 0.87072 0.42529 0.0
C634 C 0.52489 0.88791 0.42117 0.0
C635 C 0.51405 0.90489 0.41599 0.0
C636 C 0.54778 0.88844 0.42243 0.0
C637 C 0.52466 0.8519 0.42974 0.0
C638 C 0.5581 0.88408 0.4466 0.0
C639 C 0.57969 0.88323 0.44739 0.0
C640 C 0.59142 0.88679 0.42399 0.0
C641 C 0.581 0.89187 0.40003 0.0
C642 C 0.55937 0.89273 0.3993 0.0
H643 H 0.51423 0.8395 0.42591 0.0
H644 H 0.5384 0.85055 0.4164 0.0
H645 H 0.53005 0.85118 0.45105 0.0
H646 H 0.54941 0.88104 0.4648 0.0
H647 H 0.58712 0.87939 0.46625 0.0
H648 H 0.33287 0.34119 0.56607 0.0
H649 H 0.32645 0.3084 0.55009 0.0
H650 H 0.34296 0.28682 0.62875 0.0
H651 H 0.34933 0.3193 0.64492 0.0
H652 H 0.35638 0.27904 0.54926 0.0
H653 H 0.28875 0.25834 0.61095 0.0
H654 H 0.29606 0.28301 0.60564 0.0
H655 H 0.30902 0.26899 0.63094 0.0
C656 C 0.33483 0.32949 0.58009 0.0
C657 C 0.34163 0.3329 0.60679 0.0
C658 C 0.33117 0.31078 0.5709 0.0
C659 C 0.33393 0.29525 0.58837 0.0
C660 C 0.34031 0.29865 0.61511 0.0
H661 H 0.37281 0.18284 0.58934 0.0
H662 H 0.36849 0.21743 0.5841 0.0
C663 C 0.34411 0.31725 0.62425 0.0
C664 C 0.33199 0.27532 0.57838 0.0
H665 H 0.30996 0.23242 0.59406 0.0
C666 C 0.34594 0.26889 0.55861 0.0
C667 C 0.31811 0.26219 0.59026 0.0
C668 C 0.30199 0.26851 0.61043 0.0
C669 C 0.34747 0.24938 0.552 0.0
C670 C 0.33482 0.23606 0.56559 0.0
C671 C 0.31977 0.24266 0.58381 0.0
C672 C 0.33873 0.21524 0.56406 0.0
C673 C 0.36279 0.24302 0.5309 0.0
C674 C 0.32345 0.20257 0.55443 0.0
C675 C 0.32601 0.18279 0.55727 0.0
C676 C 0.34384 0.17552 0.5698 0.0
C677 C 0.3592 0.18818 0.57902 0.0
C678 C 0.35677 0.20788 0.57592 0.0
H679 H 0.36916 0.25525 0.51932 0.0
H680 H 0.37584 0.23543 0.54072 0.0
H681 H 0.35515 0.23293 0.51659 0.0
H682 H 0.30927 0.20802 0.54565 0.0
H683 H 0.31368 0.17324 0.55084 0.0
H684 H 0.09263 0.13314 0.929 0.0
H685 H 0.05497 0.13249 0.93541 0.0
H686 H 0.04985 0.08809 0.87445 0.0
H687 H 0.08747 0.08808 0.86931 0.0
H688 H 0.02657 0.14168 0.90213 0.0
H689 H 0.01213 0.06658 0.92892 0.0
H690 H 0.03789 0.07658 0.92836 0.0
H691 H 0.02613 0.06738 0.89774 0.0
C692 C 0.08335 0.12317 0.91724 0.0
C693 C 0.09262 0.11118 0.89791 0.0
C694 C 0.06191 0.12276 0.9209 0.0
C695 C 0.04951 0.11012 0.90561 0.0
C696 C 0.05902 0.09764 0.88701 0.0
H697 H 0.92348 0.09086 0.8613 0.0
H698 H 0.96103 0.09203 0.86748 0.0
C699 C 0.08044 0.09794 0.88358 0.0
C700 C 0.0266 0.1111 0.90725 0.0
H701 H 0.98304 0.08351 0.90969 0.0
C702 C 0.01706 0.12896 0.90384 0.0
C703 C 0.01411 0.09462 0.91043 0.0
C704 C 0.02315 0.07528 0.91689 0.0
C705 C 0.99551 0.13065 0.90147 0.0
C706 C 0.98305 0.11396 0.90289 0.0
C707 C 0.99256 0.09625 0.90785 0.0
C708 C 0.9603 0.11425 0.89833 0.0
C709 C 0.98664 0.1503 0.8968 0.0
C710 C 0.94731 0.12628 0.91357 0.0
C711 C 0.92592 0.12617 0.90909 0.0
C712 C 0.91718 0.11388 0.88957 0.0
C713 C 0.93002 0.10126 0.87527 0.0
C714 C 0.95141 0.10168 0.87922 0.0
H715 H 0.99783 0.15967 0.88612 0.0
H716 H 0.97216 0.14973 0.88492 0.0
H717 H 0.98322 0.15706 0.91668 0.0
H718 H 0.95365 0.13559 0.92912 0.0
H719 H 0.91616 0.13551 0.9211 0.0
H720 H 0.12541 0.32145 0.90399 0.0
H721 H 0.13014 0.28671 0.90674 0.0
H722 H 0.19192 0.29528 0.93786 0.0
H723 H 0.18715 0.33016 0.93517 0.0
H724 H 0.18656 0.2713 0.88785 0.0
H725 H 0.13471 0.24838 0.97154 0.0
H726 H 0.12775 0.26939 0.95263 0.0
H727 H 0.15051 0.26968 0.97358 0.0
C728 C 0.13976 0.31587 0.9121 0.0
C729 C 0.15571 0.32834 0.92008 0.0
C730 C 0.14244 0.29609 0.91375 0.0
C731 C 0.16125 0.28846 0.92291 0.0
C732 C 0.17718 0.30091 0.93115 0.0
H733 H 0.16815 0.16266 0.92355 0.0
H734 H 0.17565 0.19584 0.93687 0.0
C735 C 0.17441 0.32076 0.92976 0.0
C736 C 0.1649 0.26762 0.92045 0.0
H737 H 0.14609 0.22451 0.94125 0.0
C738 C 0.17802 0.26103 0.89984 0.0
C739 C 0.15395 0.25427 0.9363 0.0
C740 C 0.14093 0.26064 0.95988 0.0
C741 C 0.17945 0.24145 0.89356 0.0
C742 C 0.16724 0.22823 0.90809 0.0
C743 C 0.15523 0.23471 0.9299 0.0
C744 C 0.16495 0.20803 0.89924 0.0
C745 C 0.19361 0.23514 0.87099 0.0
C746 C 0.15648 0.20393 0.8737 0.0
C747 C 0.15211 0.18509 0.86608 0.0
C748 C 0.15603 0.1699 0.8839 0.0
C749 C 0.16502 0.17399 0.90928 0.0
C750 C 0.1693 0.19293 0.91695 0.0
H751 H 0.20652 0.24547 0.86818 0.0
H752 H 0.20018 0.22076 0.87496 0.0
H753 H 0.18468 0.23444 0.85179 0.0
H754 H 0.15256 0.21538 0.85995 0.0
H755 H 0.1452 0.18252 0.84639 0.0
H756 H 0.91731 0.85978 0.08784 0.0
H757 H 0.95526 0.86146 0.08835 0.0
H758 H 0.95248 0.9087 0.14496 0.0
H759 H 0.9146 0.9068 0.14468 0.0
H760 H 0.97926 0.89169 0.07255 0.0
H761 H 0.99584 0.87553 0.18038 0.0
H762 H 0.97211 0.86875 0.16363 0.0
H763 H 0.97598 0.89307 0.17495 0.0
C764 C 0.9249 0.87018 0.10086 0.0
C765 C 0.91316 0.88274 0.11691 0.0
C766 C 0.94653 0.87122 0.10104 0.0
C767 C 0.95678 0.88501 0.117 0.0
C768 C 0.945 0.89757 0.13309 0.0
H769 H 0.08632 0.91727 0.13723 0.0
H770 H 0.04829 0.91658 0.1369 0.0
C771 C 0.92337 0.89644 0.13302 0.0
C772 C 0.97969 0.88694 0.11559 0.0
H773 H 0.02352 0.88627 0.15408 0.0
C774 C 0.98897 0.89042 0.09039 0.0
C775 C 0.9924 0.88536 0.13881 0.0
C776 C 0.98368 0.88035 0.16602 0.0
C777 C 0.01055 0.89248 0.08794 0.0
C778 C 0.02314 0.89088 0.11126 0.0
C779 C 0.01385 0.8876 0.13635 0.0
C780 C 0.04604 0.89192 0.11023 0.0
C781 C 0.01966 0.89666 0.06054 0.0
C782 C 0.05733 0.87819 0.0956 0.0
C783 C 0.07896 0.87847 0.09608 0.0
C784 C 0.0896 0.89216 0.11173 0.0
C785 C 0.07836 0.90615 0.12586 0.0
C786 C 0.05672 0.9059 0.12539 0.0
H787 H 0.00787 0.90249 0.04642 0.0
H788 H 0.03266 0.90701 0.06225 0.0
H789 H 0.02575 0.88318 0.05162 0.0
H790 H 0.04943 0.86707 0.08419 0.0
H791 H 0.08741 0.86777 0.08462 0.0
H792 H 0.36246 0.66667 0.40886 0.0
H793 H 0.35762 0.70097 0.41651 0.0
H794 H 0.32858 0.70572 0.338 0.0
H795 H 0.33497 0.67167 0.3296 0.0
H796 H 0.3549 0.73148 0.34177 0.0
H797 H 0.31205 0.73461 0.43797 0.0
H798 H 0.33547 0.72137 0.44256 0.0
H799 H 0.31576 0.71242 0.41977 0.0
C800 C 0.35467 0.67504 0.39353 0.0
C801 C 0.349 0.66667 0.36871 0.0
C802 C 0.35173 0.69462 0.39799 0.0
C803 C 0.34235 0.706 0.37808 0.0
C804 C 0.33583 0.69732 0.35372 0.0
H805 H 0.31839 0.82816 0.40569 0.0
H806 H 0.31473 0.79322 0.40215 0.0
C807 C 0.33941 0.67788 0.34892 0.0
C808 C 0.34154 0.72718 0.38124 0.0
H809 H 0.33077 0.76335 0.42587 0.0
C810 C 0.34927 0.73839 0.36004 0.0
C811 C 0.33397 0.73639 0.40486 0.0
C812 C 0.32363 0.72553 0.42739 0.0
C813 C 0.35015 0.75837 0.36201 0.0
C814 C 0.3442 0.76744 0.38648 0.0
C815 C 0.33582 0.75637 0.40738 0.0
C816 C 0.34665 0.78837 0.39062 0.0
C817 C 0.35715 0.76947 0.33757 0.0
C818 C 0.36588 0.79718 0.38607 0.0
C819 C 0.36781 0.81704 0.38751 0.0
C820 C 0.35085 0.82831 0.395 0.0
C821 C 0.33178 0.81957 0.40054 0.0
C822 C 0.3297 0.79969 0.39844 0.0
H823 H 0.35402 0.7614 0.31853 0.0
H824 H 0.34929 0.78356 0.3363 0.0
H825 H 0.3741 0.77188 0.33883 0.0
H826 H 0.37933 0.78872 0.38086 0.0
H827 H 0.38256 0.82362 0.38283 0.0
H828 H 0.5833 0.14465 0.59438 0.0
H829 H 0.54557 0.14554 0.59002 0.0
H830 H 0.54179 0.08924 0.62525 0.0
H831 H 0.57936 0.08922 0.63169 0.0
H832 H 0.52238 0.12588 0.56051 0.0
H833 H 0.49567 0.11201 0.66478 0.0
H834 H 0.52192 0.11838 0.65686 0.0
H835 H 0.51328 0.09391 0.65332 0.0
C836 C 0.57424 0.13279 0.60197 0.0
C837 C 0.584 0.11713 0.61408 0.0
C838 C 0.55272 0.13319 0.59928 0.0
C839 C 0.54059 0.11757 0.60763 0.0
C840 C 0.55051 0.10182 0.61959 0.0
H841 H 0.41587 0.10378 0.53809 0.0
H842 H 0.45308 0.10109 0.54709 0.0
C843 C 0.57201 0.10172 0.62313 0.0
C844 C 0.5179 0.11733 0.60193 0.0
H845 H 0.47063 0.10853 0.63 0.0
C846 C 0.51108 0.12228 0.57585 0.0
C847 C 0.50298 0.11272 0.62181 0.0
C848 C 0.50878 0.10911 0.65085 0.0
C849 C 0.48994 0.12307 0.56929 0.0
C850 C 0.47512 0.1177 0.58891 0.0
C851 C 0.48193 0.11246 0.61482 0.0
C852 C 0.45244 0.1184 0.58368 0.0
C853 C 0.48383 0.1304 0.54173 0.0
C854 C 0.43945 0.12811 0.60193 0.0
C855 C 0.41815 0.12894 0.59739 0.0
C856 C 0.40944 0.12043 0.5742 0.0
C857 C 0.42231 0.11061 0.55598 0.0
C858 C 0.44359 0.10926 0.56098 0.0
H859 H 0.49621 0.13944 0.53286 0.0
H860 H 0.48128 0.11808 0.52783 0.0
H861 H 0.4694 0.13897 0.5427 0.0
H862 H 0.44583 0.13527 0.61961 0.0
H863 H 0.40856 0.13674 0.61163 0.0
H864 H 0.84145 0.16053 0.91565 0.0
H865 H 0.83176 0.19386 0.92548 0.0
H866 H 0.84195 0.20832 0.84189 0.0
H867 H 0.85154 0.17537 0.83194 0.0
H868 H 0.8588 0.22507 0.91746 0.0
H869 H 0.78685 0.23479 0.85863 0.0
H870 H 0.79632 0.21146 0.86824 0.0
H871 H 0.80658 0.2233 0.83891 0.0
C872 C 0.84118 0.17075 0.89928 0.0
C873 C 0.84732 0.16531 0.87303 0.0
C874 C 0.83567 0.18976 0.90494 0.0
C875 C 0.83584 0.20349 0.88432 0.0
C876 C 0.84127 0.1979 0.85798 0.0
H877 H 0.85384 0.31402 0.83715 0.0
H878 H 0.84487 0.28078 0.84547 0.0
C879 C 0.84694 0.17905 0.85239 0.0
C880 C 0.8327 0.22409 0.89034 0.0
H881 H 0.8078 0.26337 0.86587 0.0
C882 C 0.84726 0.23347 0.9069 0.0
C883 C 0.81758 0.23495 0.8766 0.0
C884 C 0.80082 0.22557 0.85982 0.0
C885 C 0.84832 0.25355 0.90803 0.0
C886 C 0.83425 0.26442 0.89246 0.0
C887 C 0.81864 0.255 0.87767 0.0
C888 C 0.8376 0.28511 0.88776 0.0
C889 C 0.86552 0.26295 0.92407 0.0
C890 C 0.83605 0.29871 0.90871 0.0
C891 C 0.84124 0.3179 0.90404 0.0
C892 C 0.84808 0.32372 0.87834 0.0
C893 C 0.84881 0.3101 0.85725 0.0
C894 C 0.84359 0.29105 0.86192 0.0
H895 H 0.87649 0.25236 0.93262 0.0
H896 H 0.87429 0.27301 0.9111 0.0
H897 H 0.85878 0.27133 0.94104 0.0
H898 H 0.83122 0.29442 0.92874 0.0
H899 H 0.84044 0.32802 0.92071 0.0
H900 H 0.64354 0.66798 0.43394 0.0
H901 H 0.6468 0.70259 0.44142 0.0
H902 H 0.67626 0.70823 0.36359 0.0
H903 H 0.67171 0.67387 0.3554 0.0
H904 H 0.67525 0.72929 0.44434 0.0
H905 H 0.62786 0.7422 0.35282 0.0
H906 H 0.63199 0.71855 0.36598 0.0
H907 H 0.65126 0.72966 0.34492 0.0
C908 C 0.65108 0.67661 0.41873 0.0
C909 C 0.65726 0.66842 0.39405 0.0
C910 C 0.65288 0.69638 0.42294 0.0
C911 C 0.66117 0.70813 0.40268 0.0
C912 C 0.6691 0.69959 0.37907 0.0
H913 H 0.68639 0.83079 0.42167 0.0
H914 H 0.68882 0.79582 0.42374 0.0
C915 C 0.66675 0.67995 0.37453 0.0
C916 C 0.66018 0.72931 0.40542 0.0
H917 H 0.64321 0.76943 0.37338 0.0
C918 C 0.66818 0.73809 0.42888 0.0
C919 C 0.65047 0.74079 0.38558 0.0
C920 C 0.63971 0.7323 0.36108 0.0
C921 C 0.66687 0.758 0.43294 0.0
C922 C 0.65802 0.76956 0.41252 0.0
C923 C 0.65008 0.7607 0.38907 0.0
C924 C 0.65636 0.79079 0.41482 0.0
C925 C 0.67409 0.76626 0.45957 0.0
C926 C 0.63745 0.79977 0.40879 0.0
C927 C 0.63629 0.81964 0.40666 0.0
C928 C 0.65379 0.83101 0.41161 0.0
C929 C 0.67255 0.82225 0.41864 0.0
C930 C 0.67388 0.80227 0.42 0.0
H931 H 0.67458 0.75525 0.47566 0.0
H932 H 0.68994 0.77216 0.45732 0.0
H933 H 0.66363 0.77791 0.46616 0.0
H934 H 0.62369 0.79133 0.4047 0.0
H935 H 0.62177 0.82615 0.40072 0.0
H936 H 0.8687 0.67322 0.11026 0.0
H937 H 0.8658 0.70803 0.10618 0.0
H938 H 0.80552 0.70136 0.0694 0.0
H939 H 0.80835 0.6664 0.07394 0.0
H940 H 0.85909 0.73164 0.0601 0.0
H941 H 0.79547 0.73641 0.13575 0.0
H942 H 0.81094 0.71511 0.13162 0.0
H943 H 0.79144 0.72083 0.10707 0.0
C944 C 0.85499 0.67924 0.10098 0.0
C945 C 0.83902 0.66728 0.09163 0.0
C946 C 0.85334 0.69905 0.09861 0.0
C947 C 0.83545 0.70726 0.0875 0.0
C948 C 0.81941 0.69531 0.07813 0.0
H949 H 0.83785 0.83363 0.07368 0.0
H950 H 0.83078 0.80022 0.0611 0.0
C951 C 0.82112 0.67541 0.08044 0.0
C952 C 0.83345 0.72836 0.08736 0.0
H953 H 0.80951 0.76526 0.12027 0.0
C954 C 0.84801 0.73906 0.07282 0.0
C955 C 0.81903 0.73791 0.10416 0.0
C956 C 0.80338 0.72707 0.12072 0.0
C957 C 0.84918 0.75905 0.07561 0.0
C958 C 0.83527 0.76853 0.0932 0.0
C959 C 0.82007 0.75791 0.10672 0.0
C960 C 0.83801 0.78895 0.10066 0.0
C961 C 0.86608 0.76974 0.06103 0.0
C962 C 0.84384 0.79369 0.12722 0.0
C963 C 0.84781 0.81266 0.1345 0.0
C964 C 0.84596 0.8274 0.11538 0.0
C965 C 0.83949 0.82267 0.08891 0.0
C966 C 0.83554 0.80358 0.08162 0.0
H967 H 0.87733 0.75992 0.05118 0.0
H968 H 0.85908 0.77885 0.04517 0.0
H969 H 0.8746 0.77926 0.07533 0.0
H970 H 0.84582 0.7826 0.14222 0.0
H971 H 0.85269 0.81569 0.15508 0.0
H972 H 0.64636 0.32101 0.67407 0.0
H973 H 0.65466 0.28763 0.66529 0.0
H974 H 0.66485 0.30014 0.58106 0.0
H975 H 0.65634 0.33387 0.58961 0.0
H976 H 0.63787 0.26963 0.58958 0.0
H977 H 0.70896 0.26002 0.65021 0.0
H978 H 0.68907 0.27165 0.66947 0.0
H979 H 0.6997 0.28333 0.64024 0.0
C980 C 0.65064 0.31682 0.6537 0.0
C981 C 0.65064 0.33018 0.63253 0.0
C982 C 0.65557 0.2977 0.64877 0.0
C983 C 0.66072 0.29145 0.62262 0.0
C984 C 0.66114 0.30474 0.60145 0.0
H985 H 0.6597 0.16691 0.58593 0.0
H986 H 0.66753 0.20093 0.57897 0.0
C987 C 0.65629 0.324 0.6064 0.0
C988 C 0.66356 0.27071 0.6174 0.0
H989 H 0.68804 0.23148 0.6428 0.0
C990 C 0.64921 0.26127 0.60057 0.0
C991 C 0.67843 0.25988 0.63167 0.0
C992 C 0.69505 0.26929 0.64868 0.0
C993 C 0.64821 0.24119 0.59949 0.0
C994 C 0.66206 0.23039 0.61543 0.0
C995 C 0.67736 0.23983 0.63072 0.0
C996 C 0.65901 0.20961 0.61954 0.0
C997 C 0.6314 0.23169 0.58289 0.0
C998 C 0.65212 0.20325 0.64478 0.0
C999 C 0.64763 0.18397 0.64883 0.0
C1000 C 0.65005 0.17054 0.62771 0.0
C1001 C 0.65762 0.17686 0.60261 0.0
C1002 C 0.66203 0.19628 0.59854 0.0
H1003 H 0.62061 0.24222 0.5738 0.0
H1004 H 0.63852 0.22321 0.5663 0.0
H1005 H 0.62236 0.22168 0.59564 0.0
H1006 H 0.6497 0.21334 0.66123 0.0
H1007 H 0.64197 0.17967 0.66848 0.0
H1008 H 0.09315 0.40147 0.89308 0.0
H1009 H 0.05574 0.40341 0.88682 0.0
H1010 H 0.04657 0.37068 0.95953 0.0
H1011 H 0.08391 0.36946 0.96664 0.0
H1012 H 0.03133 0.37446 0.87706 0.0
H1013 H 0.00324 0.41052 0.96989 0.0
H1014 H 0.03027 0.41008 0.96084 0.0
H1015 H 0.01865 0.38996 0.97763 0.0
C1016 C 0.08317 0.39499 0.90804 0.0
C1017 C 0.09155 0.38517 0.93025 0.0
C1018 C 0.06178 0.39611 0.90442 0.0
C1019 C 0.04829 0.38733 0.9228 0.0
C1020 C 0.05659 0.37799 0.94542 0.0
H1021 H 0.91951 0.35406 0.92013 0.0
H1022 H 0.95718 0.35616 0.92628 0.0
C1023 C 0.078 0.37714 0.94932 0.0
C1024 C 0.0258 0.38631 0.91677 0.0
H1025 H 0.97772 0.39357 0.94354 0.0
C1026 C 0.01965 0.37886 0.89152 0.0
C1027 C 0.0105 0.39204 0.93562 0.0
C1028 C 0.016 0.40128 0.96238 0.0
C1029 C 0.99869 0.37661 0.88484 0.0
C1030 C 0.98346 0.38181 0.9039 0.0
C1031 C 0.98951 0.38942 0.92906 0.0
C1032 C 0.96113 0.37943 0.89813 0.0
C1033 C 0.99293 0.36848 0.85758 0.0
C1034 C 0.95102 0.39167 0.88002 0.0
C1035 C 0.92956 0.39054 0.87662 0.0
C1036 C 0.918 0.37688 0.89082 0.0
C1037 C 0.92821 0.3644 0.90851 0.0
C1038 C 0.94963 0.36565 0.91211 0.0
H1039 H 0.00646 0.36236 0.84675 0.0
H1040 H 0.98103 0.35716 0.85987 0.0
H1041 H 0.98631 0.38008 0.84507 0.0
H1042 H 0.95963 0.40258 0.86935 0.0
H1043 H 0.92189 0.40088 0.86384 0.0
H1044 H 0.58726 0.63534 0.43214 0.0
H1045 H 0.54924 0.63478 0.43303 0.0
H1046 H 0.54921 0.58828 0.37495 0.0
H1047 H 0.58704 0.58829 0.37521 0.0
H1048 H 0.52345 0.64219 0.39434 0.0
H1049 H 0.50813 0.56822 0.42682 0.0
H1050 H 0.5336 0.57877 0.4287 0.0
H1051 H 0.52438 0.56819 0.39751 0.0
C1052 C 0.579 0.62495 0.4198 0.0
C1053 C 0.58981 0.61231 0.40286 0.0
C1054 C 0.55736 0.6246 0.42031 0.0
C1055 C 0.54632 0.61135 0.40427 0.0
C1056 C 0.5573 0.59832 0.38801 0.0
H1057 H 0.42051 0.58889 0.35552 0.0
H1058 H 0.45819 0.59074 0.36097 0.0
C1059 C 0.57888 0.59859 0.38769 0.0
C1060 C 0.5234 0.61203 0.40292 0.0
H1061 H 0.48002 0.58415 0.4044 0.0
C1062 C 0.51395 0.62951 0.39664 0.0
C1063 C 0.51093 0.59558 0.40648 0.0
C1064 C 0.5198 0.57671 0.41555 0.0
C1065 C 0.49254 0.63085 0.39245 0.0
C1066 C 0.48013 0.6142 0.39475 0.0
C1067 C 0.48953 0.59684 0.40197 0.0
C1068 C 0.45743 0.61425 0.38985 0.0
C1069 C 0.48379 0.65015 0.38521 0.0
C1070 C 0.44442 0.62679 0.40417 0.0
C1071 C 0.42301 0.62618 0.4002 0.0
C1072 C 0.41423 0.6129 0.38207 0.0
C1073 C 0.42708 0.59993 0.36845 0.0
C1074 C 0.44854 0.60079 0.37195 0.0
H1075 H 0.49512 0.6587 0.37347 0.0
H1076 H 0.46935 0.64892 0.37333 0.0
H1077 H 0.48036 0.65818 0.40413 0.0
H1078 H 0.45077 0.63682 0.41881 0.0
H1079 H 0.41326 0.63587 0.41167 0.0
H1080 H 0.57778 0.40736 0.64939 0.0
H1081 H 0.53997 0.40832 0.64596 0.0
H1082 H 0.54132 0.36134 0.58885 0.0
H1083 H 0.57924 0.36036 0.5924 0.0
H1084 H 0.51667 0.39221 0.57179 0.0
H1085 H 0.49719 0.37153 0.67694 0.0
H1086 H 0.51617 0.39025 0.67425 0.0
H1087 H 0.52185 0.36658 0.66155 0.0
C1088 C 0.56992 0.39683 0.63686 0.0
C1089 C 0.58127 0.38333 0.62192 0.0
C1090 C 0.54835 0.39748 0.6347 0.0
C1091 C 0.53778 0.38474 0.61738 0.0
C1092 C 0.54914 0.37124 0.60241 0.0
H1093 H 0.40754 0.36857 0.57593 0.0
H1094 H 0.44553 0.36804 0.57599 0.0
C1095 C 0.57073 0.3706 0.60458 0.0
C1096 C 0.51495 0.3859 0.61434 0.0
H1097 H 0.47013 0.38316 0.65004 0.0
C1098 C 0.50643 0.3901 0.58886 0.0
C1099 C 0.50159 0.38317 0.63654 0.0
C1100 C 0.50957 0.37748 0.66389 0.0
C1101 C 0.4849 0.39202 0.58528 0.0
C1102 C 0.47165 0.38942 0.60772 0.0
C1103 C 0.48025 0.3852 0.63298 0.0
C1104 C 0.44878 0.3907 0.60584 0.0
C1105 C 0.4766 0.39726 0.55777 0.0
C1106 C 0.43799 0.40333 0.62297 0.0
C1107 C 0.41637 0.40335 0.62331 0.0
C1108 C 0.40523 0.39054 0.60686 0.0
C1109 C 0.41593 0.37834 0.58911 0.0
C1110 C 0.43757 0.37821 0.58889 0.0
H1111 H 0.48869 0.404 0.54504 0.0
H1112 H 0.47119 0.38408 0.54723 0.0
H1113 H 0.46329 0.40722 0.55953 0.0
H1114 H 0.44631 0.41304 0.63631 0.0
H1115 H 0.40835 0.41333 0.63646 0.0
H1116 H 0.0799 0.58769 0.11607 0.0
H1117 H 0.04227 0.58461 0.11159 0.0
H1118 H 0.03966 0.64093 0.07618 0.0
H1119 H 0.07745 0.64313 0.07853 0.0
H1120 H 0.01188 0.60073 0.1315 0.0
H1121 H 0.00595 0.61446 0.02221 0.0
H1122 H 0.03059 0.61149 0.03876 0.0
H1123 H 0.01803 0.63457 0.03841 0.0
C1124 C 0.07116 0.59933 0.10727 0.0
C1125 C 0.08129 0.61577 0.09801 0.0
C1126 C 0.0497 0.59759 0.10467 0.0
C1127 C 0.03802 0.61235 0.09294 0.0
C1128 C 0.04827 0.62899 0.08426 0.0
H1129 H 0.90699 0.6282 0.12122 0.0
H1130 H 0.94468 0.62628 0.1243 0.0
C1131 C 0.0698 0.63042 0.08601 0.0
C1132 C 0.01512 0.61055 0.09047 0.0
H1133 H 0.97455 0.6184 0.04764 0.0
C1134 C 0.00378 0.60449 0.11308 0.0
C1135 C 0.0044 0.61467 0.06615 0.0
C1136 C 0.01544 0.61892 0.03997 0.0
C1137 C 0.98211 0.60315 0.1124 0.0
C1138 C 0.97132 0.60889 0.08883 0.0
C1139 C 0.98269 0.61432 0.06594 0.0
C1140 C 0.94833 0.60963 0.08743 0.0
C1141 C 0.9712 0.59517 0.13683 0.0
C1142 C 0.93775 0.60165 0.06511 0.0
C1143 C 0.91627 0.60343 0.06281 0.0
C1144 C 0.90494 0.61282 0.08311 0.0
C1145 C 0.9154 0.62057 0.10558 0.0
C1146 C 0.93693 0.61931 0.10746 0.0
H1147 H 0.98134 0.58509 0.14801 0.0
H1148 H 0.96731 0.60707 0.15091 0.0
H1149 H 0.95674 0.58753 0.13112 0.0
H1150 H 0.94613 0.59417 0.04931 0.0
H1151 H 0.9085 0.59738 0.04527 0.0
H1152 H 0.17566 0.58767 0.02695 0.0
H1153 H 0.18585 0.55959 0.99969 0.0
H1154 H 0.15862 0.52233 0.05899 0.0
H1155 H 0.14833 0.55001 0.08604 0.0
H1156 H 0.20168 0.51237 0.03632 0.0
H1157 H 0.13876 0.52506 0.96099 0.0
H1158 H 0.1556 0.54446 0.9711 0.0
H1159 H 0.13734 0.535 0.99476 0.0
C1160 C 0.17208 0.57346 0.03426 0.0
C1161 C 0.16106 0.57101 0.05849 0.0
C1162 C 0.17788 0.5575 0.01869 0.0
C1163 C 0.17288 0.53898 0.02737 0.0
C1164 C 0.16261 0.53654 0.05202 0.0
H1165 H 0.16479 0.42138 0.00019 0.0
H1166 H 0.17148 0.45385 0.01608 0.0
C1167 C 0.15667 0.55238 0.06737 0.0
C1168 C 0.17699 0.52192 0.01041 0.0
H1169 H 0.15506 0.49514 0.95996 0.0
C1170 C 0.19184 0.50872 0.01921 0.0
C1171 C 0.1642 0.51733 0.98807 0.0
C1172 C 0.148 0.53111 0.97802 0.0
C1173 C 0.19351 0.49058 0.00705 0.0
C1174 C 0.17956 0.48539 0.9861 0.0
C1175 C 0.16566 0.49909 0.97613 0.0
C1176 C 0.17749 0.46536 0.9763 0.0
C1177 C 0.20987 0.47702 0.01721 0.0
C1178 C 0.17824 0.46103 0.94855 0.0
C1179 C 0.17411 0.44244 0.93929 0.0
C1180 C 0.16904 0.42783 0.95763 0.0
C1181 C 0.1687 0.43219 0.98546 0.0
C1182 C 0.17274 0.45076 0.99465 0.0
H1183 H 0.2235 0.48497 0.02524 0.0
H1184 H 0.2034 0.46844 0.03402 0.0
H1185 H 0.21512 0.46708 0.001 0.0
H1186 H 0.18168 0.47212 0.93402 0.0
H1187 H 0.17455 0.43962 0.91771 0.0
H1188 H 0.66467 0.91126 0.30917 0.0
H1189 H 0.68588 0.91581 0.26843 0.0
H1190 H 0.73461 0.88221 0.30403 0.0
H1191 H 0.71383 0.87776 0.34466 0.0
H1192 H 0.73324 0.93026 0.26938 0.0
H1193 H 0.71676 0.85852 0.2248 0.0
H1194 H 0.69893 0.87069 0.24721 0.0
H1195 H 0.72154 0.85928 0.26071 0.0
C1196 C 0.67994 0.90492 0.30832 0.0
C1197 C 0.68758 0.89414 0.33011 0.0
C1198 C 0.69198 0.90753 0.28508 0.0
C1199 C 0.71167 0.8992 0.28328 0.0
C1200 C 0.71937 0.88863 0.30507 0.0
H1201 H 0.82645 0.89874 0.21133 0.0
H1202 H 0.79493 0.90425 0.23712 0.0
C1203 C 0.70748 0.88616 0.32828 0.0
C1204 C 0.72456 0.90138 0.25887 0.0
H1205 H 0.74647 0.87497 0.20825 0.0
C1206 C 0.73582 0.91837 0.25556 0.0
C1207 C 0.7277 0.88589 0.24083 0.0
C1208 C 0.71551 0.86756 0.24331 0.0
C1209 C 0.75126 0.91976 0.23573 0.0
C1210 C 0.75554 0.90371 0.21907 0.0
C1211 C 0.74319 0.88724 0.22109 0.0
C1212 C 0.7745 0.90264 0.20242 0.0
C1213 C 0.76348 0.93808 0.23347 0.0
C1214 C 0.77346 0.89987 0.17428 0.0
C1215 C 0.79157 0.89679 0.15933 0.0
C1216 C 0.8109 0.896 0.17247 0.0
C1217 C 0.81182 0.89917 0.20058 0.0
C1218 C 0.79383 0.90249 0.21536 0.0
H1219 H 0.7546 0.95051 0.2414 0.0
H1220 H 0.7779 0.93684 0.2456 0.0
H1221 H 0.76786 0.94087 0.21214 0.0
H1222 H 0.75862 0.89974 0.16401 0.0
H1223 H 0.79037 0.8943 0.13772 0.0
H1224 H 0.34192 0.45989 0.59664 0.0
H1225 H 0.3369 0.48778 0.56789 0.0
H1226 H 0.31007 0.45167 0.50582 0.0
H1227 H 0.31458 0.42373 0.5348 0.0
H1228 H 0.35661 0.49102 0.52047 0.0
H1229 H 0.27213 0.4979 0.50339 0.0
H1230 H 0.28287 0.48368 0.53036 0.0
H1231 H 0.28178 0.47431 0.49639 0.0
C1232 C 0.33451 0.45794 0.57712 0.0
C1233 C 0.32877 0.43962 0.56787 0.0
C1234 C 0.33163 0.4739 0.56073 0.0
C1235 C 0.323 0.47184 0.53477 0.0
C1236 C 0.31636 0.45367 0.52598 0.0
H1237 H 0.35415 0.54192 0.39852 0.0
H1238 H 0.3469 0.51576 0.42964 0.0
C1239 C 0.31908 0.4377 0.5425 0.0
C1240 C 0.32358 0.48814 0.51579 0.0
H1241 H 0.29418 0.51534 0.4733 0.0
C1242 C 0.34291 0.49644 0.51037 0.0
C1243 C 0.30569 0.49524 0.50271 0.0
C1244 C 0.28441 0.48745 0.50868 0.0
C1245 C 0.34494 0.51139 0.49187 0.0
C1246 C 0.32721 0.51797 0.47796 0.0
C1247 C 0.30776 0.51005 0.48378 0.0
C1248 C 0.32889 0.53308 0.45732 0.0
C1249 C 0.36607 0.52008 0.48746 0.0
C1250 C 0.32036 0.55124 0.46204 0.0
C1251 C 0.32441 0.56624 0.4442 0.0
C1252 C 0.33703 0.56323 0.42143 0.0
C1253 C 0.34455 0.54474 0.41603 0.0
C1254 C 0.34045 0.52978 0.43378 0.0
H1255 H 0.3769 0.51671 0.50426 0.0
H1256 H 0.37273 0.51422 0.46846 0.0
H1257 H 0.36504 0.53587 0.4855 0.0
H1258 H 0.31135 0.55401 0.4801 0.0
H1259 H 0.31833 0.58033 0.44882 0.0
H1260 H 0.6935 0.0775 0.65042 0.0
H1261 H 0.7239 0.06899 0.67775 0.0
H1262 H 0.70914 0.11432 0.73426 0.0
H1263 H 0.67847 0.12215 0.708 0.0
H1264 H 0.75738 0.08703 0.6903 0.0
H1265 H 0.71784 0.07245 0.78625 0.0
H1266 H 0.70374 0.0753 0.75499 0.0
H1267 H 0.71071 0.0959 0.77535 0.0
C1268 C 0.69672 0.0855 0.66882 0.0
C1269 C 0.68349 0.10032 0.67728 0.0
C1270 C 0.71404 0.08062 0.68443 0.0
C1271 C 0.71849 0.09062 0.70857 0.0
C1272 C 0.7056 0.10581 0.71643 0.0
H1273 H 0.8322 0.11974 0.78088 0.0
H1274 H 0.80309 0.11288 0.75107 0.0
C1275 C 0.68815 0.11041 0.70122 0.0
C1276 C 0.73718 0.08614 0.72492 0.0
H1277 H 0.75372 0.08323 0.79033 0.0
C1278 C 0.75655 0.08578 0.71213 0.0
C1279 C 0.73621 0.08378 0.75333 0.0
C1280 C 0.71595 0.08164 0.76815 0.0
C1281 C 0.77497 0.08469 0.72717 0.0
C1282 C 0.77401 0.08484 0.75582 0.0
C1283 C 0.75461 0.08362 0.76843 0.0
C1284 C 0.79264 0.08795 0.77308 0.0
C1285 C 0.79521 0.08356 0.71207 0.0
C1286 C 0.79616 0.07672 0.79614 0.0
C1287 C 0.81248 0.08107 0.81385 0.0
C1288 C 0.82575 0.09655 0.80858 0.0
C1289 C 0.82244 0.10753 0.78526 0.0
C1290 C 0.80589 0.10346 0.76798 0.0
H1291 H 0.79325 0.0756 0.69269 0.0
H1292 H 0.80045 0.09824 0.70702 0.0
H1293 H 0.80742 0.07642 0.72418 0.0
H1294 H 0.78608 0.06476 0.80068 0.0
H1295 H 0.8147 0.07236 0.83166 0.0
H1296 H 0.86802 0.44655 0.91764 0.0
H1297 H 0.86059 0.474 0.94674 0.0
H1298 H 0.81352 0.44156 0.98783 0.0
H1299 H 0.82093 0.41374 0.95866 0.0
H1300 H 0.8028 0.48164 0.97052 0.0
H1301 H 0.87552 0.476 0.02997 0.0
H1302 H 0.87893 0.47453 0.99392 0.0
H1303 H 0.86471 0.45611 0.01104 0.0
C1304 C 0.85604 0.44519 0.93279 0.0
C1305 C 0.84512 0.42793 0.93594 0.0
C1306 C 0.85187 0.46089 0.94946 0.0
C1307 C 0.8367 0.45969 0.96958 0.0
C1308 C 0.82537 0.44267 0.97246 0.0
H1309 H 0.83326 0.55398 0.08731 0.0
H1310 H 0.82986 0.52167 0.06839 0.0
C1311 C 0.82963 0.42683 0.95583 0.0
C1312 C 0.83298 0.47638 0.98746 0.0
H1313 H 0.85766 0.50585 0.03245 0.0
C1314 C 0.8146 0.48681 0.98443 0.0
C1315 C 0.8483 0.48289 0.00581 0.0
C1316 C 0.86792 0.47173 0.01064 0.0
C1317 C 0.81169 0.50427 0.99819 0.0
C1318 C 0.82766 0.51145 0.0151 0.0
C1319 C 0.84549 0.50041 0.01932 0.0
C1320 C 0.82708 0.531 0.0269 0.0
C1321 C 0.79172 0.51502 0.99414 0.0
C1322 C 0.82652 0.54696 0.00985 0.0
C1323 C 0.82853 0.56543 0.02054 0.0
C1324 C 0.83127 0.56833 0.04854 0.0
C1325 C 0.83118 0.55231 0.06566 0.0
C1326 C 0.82923 0.53382 0.05491 0.0
H1327 H 0.77894 0.50523 0.98798 0.0
H1328 H 0.78712 0.52278 0.01286 0.0
H1329 H 0.79382 0.52566 0.9778 0.0
H1330 H 0.82532 0.5451 0.98813 0.0
H1331 H 0.82848 0.57739 0.00672 0.0
H1332 H 0.16158 0.11487 0.77617 0.0
H1333 H 0.18876 0.1124 0.74226 0.0
H1334 H 0.2324 0.09556 0.80374 0.0
H1335 H 0.20524 0.0979 0.83807 0.0
H1336 H 0.22609 0.13459 0.74522 0.0
H1337 H 0.24132 0.05623 0.74086 0.0
H1338 H 0.21757 0.06603 0.75428 0.0
H1339 H 0.24095 0.06723 0.7739 0.0
C1340 C 0.17688 0.11044 0.78258 0.0
C1341 C 0.18122 0.1067 0.80996 0.0
C1342 C 0.19238 0.10901 0.7631 0.0
C1343 C 0.21251 0.10369 0.77049 0.0
C1344 C 0.21686 0.09943 0.7976 0.0
H1345 H 0.32566 0.10124 0.67418 0.0
H1346 H 0.30025 0.09753 0.71053 0.0
C1347 C 0.20133 0.10087 0.8172 0.0
C1348 C 0.22915 0.10413 0.75001 0.0
H1349 H 0.26258 0.07605 0.71402 0.0
C1350 C 0.23408 0.1218 0.73839 0.0
C1351 C 0.23963 0.08743 0.74142 0.0
C1352 C 0.23459 0.06809 0.75306 0.0
C1353 C 0.24916 0.12324 0.7182 0.0
C1354 C 0.25925 0.10648 0.70899 0.0
C1355 C 0.25468 0.08884 0.72104 0.0
C1356 C 0.27428 0.1071 0.68649 0.0
C1357 C 0.2543 0.14275 0.70708 0.0
C1358 C 0.26794 0.11316 0.66078 0.0
C1359 C 0.28237 0.11537 0.64007 0.0
C1360 C 0.3034 0.1114 0.64465 0.0
C1361 C 0.30958 0.10449 0.67008 0.0
C1362 C 0.2951 0.10234 0.69084 0.0
H1363 H 0.24945 0.15441 0.72109 0.0
H1364 H 0.27115 0.14417 0.70323 0.0
H1365 H 0.24598 0.14473 0.68762 0.0
H1366 H 0.25185 0.11655 0.65689 0.0
H1367 H 0.27708 0.12055 0.62063 0.0
H1368 H 0.63927 0.545 0.42158 0.0
H1369 H 0.64511 0.51751 0.45046 0.0
H1370 H 0.69753 0.54605 0.48718 0.0
H1371 H 0.69114 0.5742 0.45892 0.0
H1372 H 0.67557 0.49306 0.45753 0.0
H1373 H 0.66387 0.53439 0.55286 0.0
H1374 H 0.65896 0.54452 0.52006 0.0
H1375 H 0.68506 0.54237 0.53242 0.0
C1376 C 0.65215 0.54544 0.43566 0.0
C1377 C 0.66461 0.56187 0.43819 0.0
C1378 C 0.6555 0.52965 0.45216 0.0
C1379 C 0.67151 0.52981 0.4714 0.0
C1380 C 0.68472 0.5458 0.47301 0.0
H1381 H 0.68381 0.42074 0.56035 0.0
H1382 H 0.69313 0.4481 0.53202 0.0
C1383 C 0.68116 0.56181 0.45672 0.0
C1384 C 0.67343 0.51344 0.49027 0.0
H1385 H 0.66911 0.50136 0.55684 0.0
C1386 C 0.67435 0.49485 0.47929 0.0
C1387 C 0.67173 0.51582 0.51866 0.0
C1388 C 0.66967 0.53531 0.53177 0.0
C1389 C 0.67251 0.4786 0.49566 0.0
C1390 C 0.67048 0.48099 0.52401 0.0
C1391 C 0.67068 0.49956 0.53512 0.0
C1392 C 0.66591 0.46469 0.54221 0.0
C1393 C 0.67147 0.45915 0.48219 0.0
C1394 C 0.64799 0.4652 0.55822 0.0
C1395 C 0.64293 0.44984 0.57484 0.0
C1396 C 0.65556 0.43352 0.57559 0.0
C1397 C 0.67367 0.43306 0.55989 0.0
C1398 C 0.67894 0.44863 0.54359 0.0
H1399 H 0.66821 0.46021 0.46017 0.0
H1400 H 0.68657 0.45182 0.48465 0.0
H1401 H 0.65929 0.45012 0.4915 0.0
H1402 H 0.63768 0.4774 0.55754 0.0
H1403 H 0.62887 0.45062 0.58668 0.0
H1404 H 0.28781 0.8907 0.35225 0.0
H1405 H 0.26492 0.89853 0.31464 0.0
H1406 H 0.31703 0.91918 0.26892 0.0
H1407 H 0.34026 0.91135 0.30677 0.0
H1408 H 0.25943 0.93546 0.28567 0.0
H1409 H 0.28899 0.87518 0.22204 0.0
H1410 H 0.29301 0.87585 0.25821 0.0
H1411 H 0.30722 0.89178 0.23686 0.0
C1412 C 0.29444 0.89706 0.33432 0.0
C1413 C 0.31586 0.90029 0.33238 0.0
C1414 C 0.28132 0.90158 0.31289 0.0
C1415 C 0.28933 0.90927 0.289 0.0
C1416 C 0.31061 0.91311 0.28719 0.0
H1417 H 0.20905 0.90879 0.14447 0.0
H1418 H 0.2397 0.91542 0.17242 0.0
C1419 C 0.32382 0.9087 0.30881 0.0
C1420 C 0.27521 0.91219 0.2658 0.0
H1421 H 0.25875 0.89048 0.20751 0.0
C1422 C 0.2595 0.9259 0.26826 0.0
C1423 C 0.27546 0.89978 0.24308 0.0
C1424 C 0.29198 0.88473 0.23971 0.0
C1425 C 0.24338 0.92689 0.24925 0.0
C1426 C 0.24275 0.91351 0.22763 0.0
C1427 C 0.25922 0.90066 0.22417 0.0
C1428 C 0.22405 0.91101 0.21051 0.0
C1429 C 0.22686 0.94191 0.25294 0.0
C1430 C 0.20517 0.90618 0.22266 0.0
C1431 C 0.18772 0.90235 0.20687 0.0
C1432 C 0.18875 0.90311 0.17846 0.0
C1433 C 0.20767 0.90811 0.16628 0.0
C1434 C 0.2252 0.91192 0.18219 0.0
H1435 H 0.23307 0.95472 0.2637 0.0
H1436 H 0.2203 0.94644 0.2332 0.0
H1437 H 0.21416 0.93595 0.26541 0.0
H1438 H 0.20404 0.90489 0.24444 0.0
H1439 H 0.17348 0.89855 0.21702 0.0
H1440 H 0.6802 0.08479 0.53928 0.0
H1441 H 0.68744 0.05878 0.50684 0.0
H1442 H 0.64179 0.0234 0.54578 0.0
H1443 H 0.63453 0.04902 0.57807 0.0
H1444 H 0.69963 0.01875 0.51902 0.0
H1445 H 0.62519 0.02428 0.46368 0.0
H1446 H 0.6356 0.04361 0.48411 0.0
H1447 H 0.6223 0.024 0.49982 0.0
C1448 C 0.67175 0.07144 0.54091 0.0
C1449 C 0.65674 0.06898 0.56116 0.0
C1450 C 0.6759 0.05665 0.52239 0.0
C1451 C 0.66491 0.03934 0.52373 0.0
C1452 C 0.6502 0.03679 0.54418 0.0
H1453 H 0.6738 0.92349 0.48674 0.0
H1454 H 0.67811 0.95615 0.50326 0.0
C1455 C 0.64615 0.05143 0.5627 0.0
C1456 C 0.66871 0.02358 0.50423 0.0
H1457 H 0.64315 0.99432 0.45982 0.0
C1458 C 0.68749 0.01359 0.5056 0.0
C1459 C 0.65299 0.01711 0.48644 0.0
C1460 C 0.63294 0.02791 0.48316 0.0
C1461 C 0.69033 0.99643 0.49109 0.0
C1462 C 0.67386 0.98906 0.47517 0.0
C1463 C 0.65571 -0.00013 0.47222 0.0
C1464 C 0.67403 0.96929 0.46408 0.0
C1465 C 0.7107 0.98608 0.49357 0.0
C1466 C 0.67019 0.96576 0.43651 0.0
C1467 C 0.66755 0.94699 0.42695 0.0
C1468 C 0.66842 0.93146 0.4449 0.0
C1469 C 0.67293 0.93508 0.47234 0.0
C1470 C 0.67564 0.95377 0.48181 0.0
H1471 H 0.72354 0.99623 0.49807 0.0
H1472 H 0.70979 0.9758 0.51054 0.0
H1473 H 0.71441 0.97801 0.47477 0.0
H1474 H 0.66869 0.97755 0.42254 0.0
H1475 H 0.66407 0.94473 0.40571 0.0
H1476 H 0.32325 0.38598 0.7128 0.0
H1477 H 0.29416 0.39124 0.74288 0.0
H1478 H 0.25771 0.41236 0.67629 0.0
H1479 H 0.28694 0.40691 0.64551 0.0
H1480 H 0.27276 0.42619 0.75369 0.0
H1481 H 0.22169 0.36929 0.71006 0.0
H1482 H 0.2491 0.37011 0.7031 0.0
H1483 H 0.23202 0.38701 0.68753 0.0
C1484 C 0.3091 0.3917 0.70433 0.0
C1485 C 0.30744 0.39588 0.67659 0.0
C1486 C 0.29248 0.39477 0.72166 0.0
C1487 C 0.27378 0.40206 0.71178 0.0
C1488 C 0.27199 0.40651 0.68422 0.0
H1489 H 0.16457 0.40505 0.81821 0.0
H1490 H 0.18639 0.41166 0.77881 0.0
C1491 C 0.28871 0.40344 0.66671 0.0
C1492 C 0.25636 0.4046 0.7308 0.0
H1493 H 0.21111 0.38378 0.75067 0.0
C1494 C 0.25907 0.41718 0.75279 0.0
C1495 C 0.23851 0.39289 0.72945 0.0
C1496 C 0.23505 0.37896 0.70639 0.0
C1497 C 0.24493 0.41764 0.77423 0.0
C1498 C 0.22782 0.40502 0.77375 0.0
C1499 C 0.22434 0.39336 0.75095 0.0
C1500 C 0.21471 0.40221 0.79787 0.0
C1501 C 0.24874 0.43119 0.79763 0.0
C1502 C 0.22345 0.3946 0.82147 0.0
C1503 C 0.21108 0.39071 0.84386 0.0
C1504 C 0.18972 0.39434 0.84304 0.0
C1505 C 0.18101 0.40217 0.81946 0.0
C1506 C 0.19341 0.40594 0.79696 0.0
H1507 H 0.25848 0.44354 0.7915 0.0
H1508 H 0.23394 0.43667 0.80601 0.0
H1509 H 0.25704 0.42348 0.81393 0.0
H1510 H 0.23982 0.39129 0.82236 0.0
H1511 H 0.21823 0.38465 0.8617 0.0
H1512 H 0.81506 0.07081 0.93828 0.0
H1513 H 0.80764 0.04293 0.96661 0.0
H1514 H 0.86508 0.01704 0.94131 0.0
H1515 H 0.87207 0.04428 0.91226 0.0
H1516 H 0.83549 0.9911 0.9427 0.0
H1517 H 0.83403 0.03323 0.03852 0.0
H1518 H 0.81499 0.04022 0.01404 0.0
H1519 H 0.84206 0.04348 0.00688 0.0
C1520 C 0.826 0.05909 0.93868 0.0
C1521 C 0.84419 0.05977 0.92318 0.0
C1522 C 0.82182 0.04324 0.95501 0.0
C1523 C 0.836 0.02804 0.95655 0.0
C1524 C 0.8539 0.02857 0.94053 0.0
H1525 H 0.86616 0.94994 0.08059 0.0
H1526 H 0.86037 0.97669 0.05015 0.0
C1527 C 0.8579 0.0442 0.92394 0.0
C1528 C 0.83279 0.01168 0.97513 0.0
H1529 H 0.82901 3e-05 0.04192 0.0
C1530 C 0.83391 0.99304 0.9644 0.0
C1531 C 0.83086 0.01424 0.00346 0.0
C1532 C 0.83059 0.03385 0.01651 0.0
C1533 C 0.83411 0.97692 0.98121 0.0
C1534 C 0.83235 0.97949 0.00956 0.0
C1535 C 0.83028 0.99809 0.02019 0.0
C1536 C 0.83478 0.96335 0.02874 0.0
C1537 C 0.83743 0.95746 0.96847 0.0
C1538 C 0.8221 0.947 0.02722 0.0
C1539 C 0.82566 0.93146 0.04435 0.0
C1540 C 0.84164 0.93223 0.0637 0.0
C1541 C 0.85373 0.9489 0.06589 0.0
C1542 C 0.8504 0.96425 0.04852 0.0
H1543 H 0.84351 0.95853 0.94753 0.0
H1544 H 0.84842 0.94882 0.98061 0.0
H1545 H 0.82243 0.94972 0.96747 0.0
H1546 H 0.80958 0.94617 0.01264 0.0
H1547 H 0.81595 0.91887 0.04242 0.0
H1548 H 0.16092 0.60945 0.20906 0.0
H1549 H 0.19141 0.60395 0.23733 0.0
H1550 H 0.22856 0.59549 0.16594 0.0
H1551 H 0.19827 0.60108 0.13738 0.0
H1552 H 0.22064 0.57168 0.23883 0.0
H1553 H 0.25616 0.64084 0.2083 0.0
H1554 H 0.22909 0.63553 0.20299 0.0
H1555 H 0.24826 0.62518 0.18114 0.0
C1556 C 0.17553 0.60632 0.19929 0.0
C1557 C 0.17716 0.60596 0.17088 0.0
C1558 C 0.1929 0.6031 0.21552 0.0
C1559 C 0.21221 0.59955 0.20367 0.0
C1560 C 0.21379 0.59845 0.17541 0.0
H1561 H 0.33624 0.59858 0.27045 0.0
H1562 H 0.3062 0.59487 0.24085 0.0
C1563 C 0.19644 0.60162 0.15915 0.0
C1564 C 0.23089 0.59801 0.22085 0.0
H1565 H 0.27572 0.62124 0.23717 0.0
C1566 C 0.23275 0.58245 0.23849 0.0
C1567 C 0.24656 0.61213 0.2203 0.0
C1568 C 0.24496 0.62947 0.20235 0.0
C1569 C 0.25009 0.58055 0.25548 0.0
C1570 C 0.26568 0.5948 0.25511 0.0
C1571 C 0.2638 0.61028 0.23732 0.0
C1572 C 0.28388 0.59441 0.2734 0.0
C1573 C 0.25171 0.56319 0.27333 0.0
C1574 C 0.28134 0.59506 0.30159 0.0
C1575 C 0.29852 0.59709 0.31865 0.0
C1576 C 0.31853 0.59879 0.30776 0.0
C1577 C 0.32105 0.59748 0.27953 0.0
C1578 C 0.3039 0.59532 0.26256 0.0
H1579 H 0.24202 0.55119 0.26556 0.0
H1580 H 0.26798 0.55824 0.27498 0.0
H1581 H 0.24616 0.56695 0.29392 0.0
H1582 H 0.266 0.5948 0.31039 0.0
H1583 H 0.29602 0.59815 0.34027 0.0
H1584 H 0.33479 0.08201 0.49472 0.0
H1585 H 0.33105 0.04903 0.47897 0.0
H1586 H 0.33352 0.02923 0.56134 0.0
H1587 H 0.33702 0.06227 0.57746 0.0
H1588 H 0.36076 0.02115 0.48793 0.0
H1589 H 0.28461 0.99887 0.52944 0.0
H1590 H 0.29224 0.02368 0.5268 0.0
H1591 H 0.30231 0.00917 0.55363 0.0
C1592 C 0.33429 0.07071 0.50959 0.0
C1593 C 0.33635 0.07482 0.53738 0.0
C1594 C 0.3321 0.05185 0.50052 0.0
C1595 C 0.33184 0.03672 0.51899 0.0
C1596 C 0.3333 0.04074 0.54678 0.0
H1597 H 0.34195 0.91356 0.49267 0.0
H1598 H 0.33788 0.9453 0.51331 0.0
C1599 C 0.33542 0.05964 0.55593 0.0
C1600 C 0.33196 0.01674 0.50884 0.0
H1601 H 0.30492 0.97465 0.50852 0.0
C1602 C 0.34851 0.01101 0.49237 0.0
C1603 C 0.31606 0.00351 0.51491 0.0
C1604 C 0.29769 0.00909 0.53199 0.0
C1605 C 0.34959 0.99242 0.4817 0.0
C1606 C 0.33353 0.97929 0.48733 0.0
C1607 C 0.31714 0.98484 0.5042 0.0
C1608 C 0.33352 0.95987 0.47528 0.0
C1609 C 0.36804 0.98691 0.46466 0.0
C1610 C 0.33175 0.95757 0.44718 0.0
C1611 C 0.33412 0.93954 0.4353 0.0
C1612 C 0.33825 0.92342 0.45134 0.0
C1613 C 0.33893 0.92566 0.47968 0.0
C1614 C 0.33656 0.94376 0.49154 0.0
H1615 H 0.38118 0.99701 0.46753 0.0
H1616 H 0.37337 0.97224 0.46958 0.0
H1617 H 0.36353 0.98709 0.44297 0.0
H1618 H 0.32911 0.96985 0.43435 0.0
H1619 H 0.33325 0.93837 0.41346 0.0
H1620 H 0.82762 0.58854 0.18941 0.0
H1621 H 0.80421 0.5822 0.22729 0.0
H1622 H 0.75232 0.60028 0.17877 0.0
H1623 H 0.77549 0.6066 0.14092 0.0
H1624 H 0.77912 0.61043 0.25167 0.0
H1625 H 0.73169 0.55016 0.21262 0.0
H1626 H 0.75653 0.5564 0.19843 0.0
H1627 H 0.73371 0.56955 0.18913 0.0
C1628 C 0.81118 0.59086 0.18669 0.0
C1629 C 0.80338 0.59809 0.16221 0.0
C1630 C 0.79785 0.58724 0.20833 0.0
C1631 C 0.77653 0.59053 0.20568 0.0
C1632 C 0.76868 0.59727 0.18104 0.0
H1633 H 0.6662 0.60885 0.29023 0.0
H1634 H 0.69456 0.60226 0.25931 0.0
C1635 C 0.78197 0.601 0.15949 0.0
C1636 C 0.7626 0.58872 0.22924 0.0
H1637 H 0.71696 0.56866 0.24902 0.0
C1638 C 0.76574 0.60102 0.25145 0.0
C1639 C 0.74523 0.57639 0.22881 0.0
C1640 C 0.74166 0.56223 0.20608 0.0
C1641 C 0.75118 0.60229 0.27241 0.0
C1642 C 0.73325 0.59064 0.27128 0.0
C1643 C 0.7307 0.5776 0.24978 0.0
C1644 C 0.71593 0.59331 0.2905 0.0
C1645 C 0.75447 0.6169 0.29467 0.0
C1646 C 0.71843 0.59013 0.31833 0.0
C1647 C 0.7022 0.59401 0.33625 0.0
C1648 C 0.68318 0.60106 0.32656 0.0
C1649 C 0.68062 0.60359 0.29852 0.0
C1650 C 0.69682 0.59975 0.28073 0.0
H1651 H 0.76723 0.62702 0.28997 0.0
H1652 H 0.74011 0.62525 0.29824 0.0
H1653 H 0.75846 0.60943 0.31372 0.0
H1654 H 0.73298 0.58484 0.3262 0.0
H1655 H 0.70466 0.59175 0.35767 0.0
H1656 H 0.18142 0.92041 0.03486 0.0
H1657 H 0.18862 0.94716 0.00441 0.0
H1658 H 0.16267 0.98652 0.06275 0.0
H1659 H 0.15506 0.95994 0.09288 0.0
H1660 H 0.14479 0.98922 0.01318 0.0
H1661 H 0.23038 0.99138 0.00354 0.0
H1662 H 0.21896 0.96829 0.99727 0.0
H1663 H 0.21742 0.97882 0.03048 0.0
C1664 C 0.17762 0.93482 0.04136 0.0
C1665 C 0.16751 0.93808 0.06612 0.0
C1666 C 0.18187 0.9501 0.02404 0.0
C1667 C 0.17633 0.96885 0.03141 0.0
C1668 C 0.16711 0.97216 0.05668 0.0
H1669 H 0.18952 0.07852 0.95226 0.0
H1670 H 0.19508 0.05055 0.98112 0.0
C1671 C 0.16272 0.95695 0.07385 0.0
C1672 C 0.17775 0.98473 0.01178 0.0
H1673 H 0.21109 0.01083 0.97304 0.0
C1674 C 0.15932 0.99397 0.0045 0.0
C1675 C 0.19672 0.99095 0.00058 0.0
C1676 C 0.21704 0.98198 0.0085 0.0
C1677 C 0.15927 0.00919 0.98626 0.0
C1678 C 0.17812 0.01511 0.97449 0.0
C1679 C 0.19665 0.00607 0.98191 0.0
C1680 C 0.17854 0.03092 0.95477 0.0
C1681 C 0.13901 0.019 0.98001 0.0
C1682 C 0.1682 0.02888 0.92994 0.0
C1683 C 0.16486 0.04478 0.91359 0.0
C1684 C 0.17198 0.06297 0.92171 0.0
C1685 C 0.18382 0.06469 0.94553 0.0
C1686 C 0.18703 0.04874 0.962 0.0
H1687 H 0.12692 0.01563 0.9952 0.0
H1688 H 0.14107 0.03478 0.97933 0.0
H1689 H 0.13334 0.01412 0.95989 0.0
H1690 H 0.16175 0.01517 0.9239 0.0
H1691 H 0.15589 0.04296 0.8952 0.0
H1692 H 0.66146 0.40417 0.7257 0.0
H1693 H 0.69165 0.40952 0.75451 0.0
H1694 H 0.73154 0.40438 0.68499 0.0
H1695 H 0.70129 0.39944 0.65582 0.0
H1696 H 0.72082 0.38259 0.76112 0.0
H1697 H 0.75765 0.44931 0.72482 0.0
H1698 H 0.73139 0.44275 0.7161 0.0
H1699 H 0.75282 0.43218 0.6983 0.0
C1700 C 0.67662 0.40453 0.71642 0.0
C1701 C 0.67901 0.4012 0.6885 0.0
C1702 C 0.69385 0.40765 0.73292 0.0
C1703 C 0.71383 0.40747 0.72191 0.0
C1704 C 0.71624 0.40499 0.69386 0.0
H1705 H 0.83597 0.38902 0.7838 0.0
H1706 H 0.80533 0.39596 0.75662 0.0
C1707 C 0.69895 0.40205 0.67723 0.0
C1708 C 0.73204 0.40746 0.74019 0.0
H1709 H 0.77833 0.42936 0.75343 0.0
C1710 C 0.73325 0.39299 0.75968 0.0
C1711 C 0.7483 0.42097 0.73815 0.0
C1712 C 0.74743 0.43729 0.71838 0.0
C1713 C 0.7505 0.3913 0.7767 0.0
C1714 C 0.76689 0.40461 0.7744 0.0
C1715 C 0.76566 0.41924 0.75515 0.0
C1716 C 0.78589 0.40275 0.79089 0.0
C1717 C 0.75139 0.37488 0.79637 0.0
C1718 C 0.78519 0.40479 0.81913 0.0
C1719 C 0.80266 0.40075 0.83482 0.0
C1720 C 0.82113 0.39462 0.82248 0.0
C1721 C 0.82197 0.3935 0.79404 0.0
C1722 C 0.80452 0.39756 0.77842 0.0
H1723 H 0.73942 0.36385 0.79193 0.0
H1724 H 0.76685 0.36796 0.79592 0.0
H1725 H 0.74875 0.38041 0.81718 0.0
H1726 H 0.77097 0.40901 0.82906 0.0
H1727 H 0.80149 0.40192 0.85663 0.0
loop_
_geom_bond_atom_site_label_1
_geom_bond_atom_site_label_2
_geom_bond_distance
_geom_bond_site_symmetry_2
_ccdc_geom_bond_type
Mn0 O5 2.095 . S
Mn0 O15 2.162 . S
Mn0 O16 2.297 . S
Mn0 O24 2.385 . S
Mn0 O25 2.209 . S
Mn0 O26 2.094 . S
Mn1 O6 2.121 . S
Mn1 N8 2.257 . S
Mn1 N17 2.282 . S
Mn1 O25 2.215 . S
Mn1 O27 2.117 . S
C2 O24 1.234 . S
C2 O25 1.283 . S
C3 O15 1.281 . S
C3 O16 1.236 . S
C4 O26 1.240 . S
C4 O27 1.264 . S
O5 Mn0 2.095 . S
O5 C14 1.250 . S
O6 Mn1 2.121 . S
O6 C14 1.258 . S
C7 N8 1.326 . S
C7 C11 1.460 . S
C7 H13 0.929 . S
N8 Mn1 2.257 . S
N8 C7 1.326 . S
N8 C12 1.362 . S
C9 C10 1.258 . S
C9 C12 1.431 . S
C9 C29 1.449 . S
C10 C9 1.258 . S
C10 C11 1.477 . S
C10 H30 0.931 . S
C11 C7 1.460 . S
C11 C10 1.477 . S
C11 H31 0.930 . S
C12 N8 1.362 . S
C12 C9 1.431 . S
C12 C22 1.476 . S
H13 C7 0.929 . S
C14 O5 1.250 . S
C14 O6 1.258 . S
O15 Mn0 2.162 . S
O15 C3 1.281 . S
O16 Mn0 2.297 . S
O16 C3 1.236 . S
N17 Mn1 2.282 . S
N17 C18 1.328 . S
N17 C22 1.318 . S
C18 N17 1.328 . S
C18 C19 1.457 . S
C18 H23 0.929 . S
C19 C18 1.457 . S
C19 C20 1.291 . S
C19 H32 0.931 . S
C20 C19 1.291 . S
C20 C21 1.373 . S
C20 H33 0.929 . S
C21 C20 1.373 . S
C21 C22 1.396 . S
C21 C28 1.403 . S
C22 C12 1.476 . S
C22 N17 1.318 . S
C22 C21 1.396 . S
H23 C18 0.929 . S
O24 Mn0 2.385 . S
O24 C2 1.234 . S
O25 Mn0 2.209 . S
O25 Mn1 2.215 . S
O25 C2 1.283 . S
O26 Mn0 2.094 . S
O26 C4 1.240 . S
O27 Mn1 2.117 . S
O27 C4 1.264 . S
C28 C21 1.403 . S
C28 C29 1.399 . S
C28 H34 0.929 . S
C29 C9 1.449 . S
C29 C28 1.399 . S
C29 H35 0.930 . S
H30 C10 0.931 . S
H31 C11 0.930 . S
H32 C19 0.931 . S
H33 C20 0.929 . S
H34 C28 0.929 . S
H35 C29 0.930 . S
Mn36 O41 2.095 . S
Mn36 O51 2.162 . S
Mn36 O52 2.297 . S
Mn36 O60 2.385 . S
Mn36 O61 2.209 . S
Mn36 O62 2.094 . S
Mn37 O42 2.121 . S
Mn37 N44 2.257 . S
Mn37 N53 2.282 . S
Mn37 O61 2.215 . S
Mn37 O63 2.117 . S
C38 O60 1.234 . S
C38 O61 1.283 . S
C39 O51 1.281 . S
C39 O52 1.236 . S
C40 O62 1.240 . S
C40 O63 1.264 . S
O41 Mn36 2.095 . S
O41 C50 1.250 . S
O42 Mn37 2.121 . S
O42 C50 1.258 . S
C43 N44 1.326 . S
C43 C47 1.460 . S
C43 H49 0.929 . S
N44 Mn37 2.257 . S
N44 C43 1.326 . S
N44 C48 1.362 . S
C45 C46 1.258 . S
C45 C48 1.431 . S
C45 C65 1.449 . S
C46 C45 1.258 . S
C46 C47 1.477 . S
C46 H66 0.931 . S
C47 C43 1.460 . S
C47 C46 1.477 . S
C47 H67 0.930 . S
C48 N44 1.362 . S
C48 C45 1.431 . S
C48 C58 1.476 . S
H49 C43 0.929 . S
C50 O41 1.250 . S
C50 O42 1.258 . S
O51 Mn36 2.162 . S
O51 C39 1.281 . S
O52 Mn36 2.297 . S
O52 C39 1.236 . S
N53 Mn37 2.282 . S
N53 C54 1.328 . S
N53 C58 1.318 . S
C54 N53 1.328 . S
C54 C55 1.457 . S
C54 H59 0.929 . S
C55 C54 1.457 . S
C55 C56 1.291 . S
C55 H68 0.931 . S
C56 C55 1.291 . S
C56 C57 1.373 . S
C56 H69 0.929 . S
C57 C56 1.373 . S
C57 C58 1.396 . S
C57 C64 1.403 . S
C58 C48 1.476 . S
C58 N53 1.318 . S
C58 C57 1.396 . S
H59 C54 0.929 . S
O60 Mn36 2.385 . S
O60 C38 1.234 . S
O61 Mn36 2.209 . S
O61 Mn37 2.215 . S
O61 C38 1.283 . S
O62 Mn36 2.094 . S
O62 C40 1.240 . S
O63 Mn37 2.117 . S
O63 C40 1.264 . S
C64 C57 1.403 . S
C64 C65 1.399 . S
C64 H70 0.929 . S
C65 C45 1.449 . S
C65 C64 1.399 . S
C65 H71 0.930 . S
H66 C46 0.931 . S
H67 C47 0.930 . S
H68 C55 0.931 . S
H69 C56 0.929 . S
H70 C64 0.929 . S
H71 C65 0.930 . S
Mn72 O77 2.095 . S
Mn72 O87 2.162 . S
Mn72 O88 2.297 . S
Mn72 O96 2.385 . S
Mn72 O97 2.209 . S
Mn72 O98 2.094 . S
Mn73 O78 2.121 . S
Mn73 N80 2.257 . S
Mn73 N89 2.282 . S
Mn73 O97 2.215 . S
Mn73 O99 2.117 . S
C74 O96 1.234 . S
C74 O97 1.283 . S
C75 O87 1.281 . S
C75 O88 1.236 . S
C76 O98 1.240 . S
C76 O99 1.264 . S
O77 Mn72 2.095 . S
O77 C86 1.250 . S
O78 Mn73 2.121 . S
O78 C86 1.258 . S
C79 N80 1.326 . S
C79 C83 1.460 . S
C79 H85 0.929 . S
N80 Mn73 2.257 . S
N80 C79 1.326 . S
N80 C84 1.362 . S
C81 C82 1.258 . S
C81 C84 1.431 . S
C81 C101 1.449 . S
C82 C81 1.258 . S
C82 C83 1.477 . S
C82 H102 0.931 . S
C83 C79 1.460 . S
C83 C82 1.477 . S
C83 H103 0.930 . S
C84 N80 1.362 . S
C84 C81 1.431 . S
C84 C94 1.476 . S
H85 C79 0.929 . S
C86 O77 1.250 . S
C86 O78 1.258 . S
O87 Mn72 2.162 . S
O87 C75 1.281 . S
O88 Mn72 2.297 . S
O88 C75 1.236 . S
N89 Mn73 2.282 . S
N89 C90 1.328 . S
N89 C94 1.318 . S
C90 N89 1.328 . S
C90 C91 1.457 . S
C90 H95 0.929 . S
C91 C90 1.457 . S
C91 C92 1.291 . S
C91 H104 0.931 . S
C92 C91 1.291 . S
C92 C93 1.373 . S
C92 H105 0.929 . S
C93 C92 1.373 . S
C93 C94 1.396 . S
C93 C100 1.403 . S
C94 C84 1.476 . S
C94 N89 1.318 . S
C94 C93 1.396 . S
H95 C90 0.929 . S
O96 Mn72 2.385 . S
O96 C74 1.234 . S
O97 Mn72 2.209 . S
O97 Mn73 2.215 . S
O97 C74 1.283 . S
O98 Mn72 2.094 . S
O98 C76 1.240 . S
O99 Mn73 2.117 . S
O99 C76 1.264 . S
C100 C93 1.403 . S
C100 C101 1.399 . S
C100 H106 0.929 . S
C101 C81 1.449 . S
C101 C100 1.399 . S
C101 H107 0.930 . S
H102 C82 0.931 . S
H103 C83 0.930 . S
H104 C91 0.931 . S
H105 C92 0.929 . S
H106 C100 0.929 . S
H107 C101 0.930 . S
Mn108 O113 2.095 . S
Mn108 O123 2.162 . S
Mn108 O124 2.297 . S
Mn108 O132 2.385 . S
Mn108 O133 2.209 . S
Mn108 O134 2.094 . S
Mn109 O114 2.121 . S
Mn109 N116 2.257 . S
Mn109 N125 2.282 . S
Mn109 O133 2.215 . S
Mn109 O135 2.117 . S
C110 O132 1.234 . S
C110 O133 1.283 . S
C111 O123 1.281 . S
C111 O124 1.236 . S
C112 O134 1.240 . S
C112 O135 1.264 . S
O113 Mn108 2.095 . S
O113 C122 1.250 . S
O114 Mn109 2.121 . S
O114 C122 1.258 . S
C115 N116 1.326 . S
C115 C119 1.460 . S
C115 H121 0.929 . S
N116 Mn109 2.257 . S
N116 C115 1.326 . S
N116 C120 1.362 . S
C117 C118 1.258 . S
C117 C120 1.431 . S
C117 C137 1.449 . S
C118 C117 1.258 . S
C118 C119 1.477 . S
C118 H138 0.931 . S
C119 C115 1.460 . S
C119 C118 1.477 . S
C119 H139 0.930 . S
C120 N116 1.362 . S
C120 C117 1.431 . S
C120 C130 1.476 . S
H121 C115 0.929 . S
C122 O113 1.250 . S
C122 O114 1.258 . S
O123 Mn108 2.162 . S
O123 C111 1.281 . S
O124 Mn108 2.297 . S
O124 C111 1.236 . S
N125 Mn109 2.282 . S
N125 C126 1.328 . S
N125 C130 1.318 . S
C126 N125 1.328 . S
C126 C127 1.457 . S
C126 H131 0.929 . S
C127 C126 1.457 . S
C127 C128 1.291 . S
C127 H140 0.931 . S
C128 C127 1.291 . S
C128 C129 1.373 . S
C128 H141 0.929 . S
C129 C128 1.373 . S
C129 C130 1.396 . S
C129 C136 1.403 . S
C130 C120 1.476 . S
C130 N125 1.318 . S
C130 C129 1.396 . S
H131 C126 0.929 . S
O132 Mn108 2.385 . S
O132 C110 1.234 . S
O133 Mn108 2.209 . S
O133 Mn109 2.215 . S
O133 C110 1.283 . S
O134 Mn108 2.094 . S
O134 C112 1.240 . S
O135 Mn109 2.117 . S
O135 C112 1.264 . S
C136 C129 1.403 . S
C136 C137 1.399 . S
C136 H142 0.929 . S
C137 C117 1.449 . S
C137 C136 1.399 . S
C137 H143 0.930 . S
H138 C118 0.931 . S
H139 C119 0.930 . S
H140 C127 0.931 . S
H141 C128 0.929 . S
H142 C136 0.929 . S
H143 C137 0.930 . S
Mn144 O149 2.095 . S
Mn144 O159 2.162 . S
Mn144 O160 2.297 . S
Mn144 O168 2.385 . S
Mn144 O169 2.209 . S
Mn144 O170 2.094 . S
Mn145 O150 2.121 . S
Mn145 N152 2.257 . S
Mn145 N161 2.282 . S
Mn145 O169 2.215 . S
Mn145 O171 2.117 . S
C146 O168 1.234 . S
C146 O169 1.283 . S
C147 O159 1.281 . S
C147 O160 1.236 . S
C148 O170 1.240 . S
C148 O171 1.264 . S
O149 Mn144 2.095 . S
O149 C158 1.250 . S
O150 Mn145 2.121 . S
O150 C158 1.258 . S
C151 N152 1.326 . S
C151 C155 1.460 1_556 S
C151 H157 0.929 . S
N152 Mn145 2.257 . S
N152 C151 1.326 . S
N152 C156 1.362 . S
C153 C154 1.258 1_556 S
C153 C156 1.431 . S
C153 C173 1.449 1_556 S
C154 C153 1.258 1_554 S
C154 C155 1.477 . S
C154 H174 0.931 . S
C155 C151 1.460 1_554 S
C155 C154 1.477 . S
C155 H175 0.930 . S
C156 N152 1.362 . S
C156 C153 1.431 . S
C156 C166 1.476 . S
H157 C151 0.929 . S
C158 O149 1.250 . S
C158 O150 1.258 . S
O159 Mn144 2.162 . S
O159 C147 1.281 . S
O160 Mn144 2.297 . S
O160 C147 1.236 . S
N161 Mn145 2.282 . S
N161 C162 1.328 . S
N161 C166 1.318 . S
C162 N161 1.328 . S
C162 C163 1.457 . S
C162 H167 0.929 . S
C163 C162 1.457 . S
C163 C164 1.291 . S
C163 H176 0.931 . S
C164 C163 1.291 . S
C164 C165 1.373 . S
C164 H177 0.929 . S
C165 C164 1.373 . S
C165 C166 1.396 . S
C165 C172 1.403 . S
C166 C156 1.476 . S
C166 N161 1.318 . S
C166 C165 1.396 . S
H167 C162 0.929 . S
O168 Mn144 2.385 . S
O168 C146 1.234 . S
O169 Mn144 2.209 . S
O169 Mn145 2.215 . S
O169 C146 1.283 . S
O170 Mn144 2.094 . S
O170 C148 1.240 . S
O171 Mn145 2.117 . S
O171 C148 1.264 . S
C172 C165 1.403 . S
C172 C173 1.399 1_556 S
C172 H178 0.929 . S
C173 C153 1.449 1_554 S
C173 C172 1.399 1_554 S
C173 H179 0.930 . S
H174 C154 0.931 . S
H175 C155 0.930 . S
H176 C163 0.931 . S
H177 C164 0.929 . S
H178 C172 0.929 . S
H179 C173 0.930 . S
Mn180 O185 2.095 . S
Mn180 O195 2.162 . S
Mn180 O196 2.297 . S
Mn180 O204 2.385 . S
Mn180 O205 2.209 . S
Mn180 O206 2.094 . S
Mn181 O186 2.121 . S
Mn181 N188 2.257 . S
Mn181 N197 2.282 . S
Mn181 O205 2.215 . S
Mn181 O207 2.117 . S
C182 O204 1.234 . S
C182 O205 1.283 . S
C183 O195 1.281 . S
C183 O196 1.236 . S
C184 O206 1.240 . S
C184 O207 1.264 . S
O185 Mn180 2.095 . S
O185 C194 1.250 . S
O186 Mn181 2.121 . S
O186 C194 1.258 . S
C187 N188 1.326 . S
C187 C191 1.460 . S
C187 H193 0.929 . S
N188 Mn181 2.257 . S
N188 C187 1.326 . S
N188 C192 1.362 . S
C189 C190 1.258 . S
C189 C192 1.431 . S
C189 C209 1.449 . S
C190 C189 1.258 . S
C190 C191 1.477 . S
C190 H210 0.931 . S
C191 C187 1.460 . S
C191 C190 1.477 . S
C191 H211 0.930 . S
C192 N188 1.362 . S
C192 C189 1.431 . S
C192 C202 1.476 . S
H193 C187 0.929 . S
C194 O185 1.250 . S
C194 O186 1.258 . S
O195 Mn180 2.162 . S
O195 C183 1.281 . S
O196 Mn180 2.297 . S
O196 C183 1.236 . S
N197 Mn181 2.282 . S
N197 C198 1.328 . S
N197 C202 1.318 . S
C198 N197 1.328 . S
C198 C199 1.457 . S
C198 H203 0.929 . S
C199 C198 1.457 . S
C199 C200 1.291 . S
C199 H212 0.931 . S
C200 C199 1.291 . S
C200 C201 1.373 . S
C200 H213 0.929 . S
C201 C200 1.373 . S
C201 C202 1.396 . S
C201 C208 1.403 . S
C202 C192 1.476 . S
C202 N197 1.318 . S
C202 C201 1.396 . S
H203 C198 0.929 . S
O204 Mn180 2.385 . S
O204 C182 1.234 . S
O205 Mn180 2.209 . S
O205 Mn181 2.215 . S
O205 C182 1.283 . S
O206 Mn180 2.094 . S
O206 C184 1.240 . S
O207 Mn181 2.117 . S
O207 C184 1.264 . S
C208 C201 1.403 . S
C208 C209 1.399 . S
C208 H214 0.929 . S
C209 C189 1.449 . S
C209 C208 1.399 . S
C209 H215 0.930 . S
H210 C190 0.931 . S
H211 C191 0.930 . S
H212 C199 0.931 . S
H213 C200 0.929 . S
H214 C208 0.929 . S
H215 C209 0.930 . S
Mn216 O221 2.095 . S
Mn216 O231 2.162 . S
Mn216 O232 2.297 . S
Mn216 O240 2.385 . S
Mn216 O241 2.209 . S
Mn216 O242 2.094 . S
Mn217 O222 2.121 . S
Mn217 N224 2.257 . S
Mn217 N233 2.282 . S
Mn217 O241 2.215 . S
Mn217 O243 2.117 . S
C218 O240 1.234 . S
C218 O241 1.283 . S
C219 O231 1.281 . S
C219 O232 1.236 . S
C220 O242 1.240 . S
C220 O243 1.264 . S
O221 Mn216 2.095 . S
O221 C230 1.250 . S
O222 Mn217 2.121 . S
O222 C230 1.258 . S
C223 N224 1.326 . S
C223 C227 1.460 . S
C223 H229 0.929 . S
N224 Mn217 2.257 . S
N224 C223 1.326 . S
N224 C228 1.362 . S
C225 C226 1.258 . S
C225 C228 1.431 . S
C225 C245 1.449 . S
C226 C225 1.258 . S
C226 C227 1.477 . S
C226 H246 0.931 . S
C227 C223 1.460 . S
C227 C226 1.477 . S
C227 H247 0.930 . S
C228 N224 1.362 . S
C228 C225 1.431 . S
C228 C238 1.476 . S
H229 C223 0.929 . S
C230 O221 1.250 . S
C230 O222 1.258 . S
O231 Mn216 2.162 . S
O231 C219 1.281 . S
O232 Mn216 2.297 . S
O232 C219 1.236 . S
N233 Mn217 2.282 . S
N233 C234 1.328 . S
N233 C238 1.318 . S
C234 N233 1.328 . S
C234 C235 1.457 . S
C234 H239 0.929 . S
C235 C234 1.457 . S
C235 C236 1.291 . S
C235 H248 0.931 . S
C236 C235 1.291 . S
C236 C237 1.373 . S
C236 H249 0.929 . S
C237 C236 1.373 . S
C237 C238 1.396 . S
C237 C244 1.403 . S
C238 C228 1.476 . S
C238 N233 1.318 . S
C238 C237 1.396 . S
H239 C234 0.929 . S
O240 Mn216 2.385 . S
O240 C218 1.234 . S
O241 Mn216 2.209 . S
O241 Mn217 2.215 . S
O241 C218 1.283 . S
O242 Mn216 2.094 . S
O242 C220 1.240 . S
O243 Mn217 2.117 . S
O243 C220 1.264 . S
C244 C237 1.403 . S
C244 C245 1.399 . S
C244 H250 0.929 . S
C245 C225 1.449 . S
C245 C244 1.399 . S
C245 H251 0.930 . S
H246 C226 0.931 . S
H247 C227 0.930 . S
H248 C235 0.931 . S
H249 C236 0.929 . S
H250 C244 0.929 . S
H251 C245 0.930 . S
Mn252 O257 2.095 . S
Mn252 O267 2.162 . S
Mn252 O268 2.297 . S
Mn252 O276 2.385 . S
Mn252 O277 2.209 . S
Mn252 O278 2.094 . S
Mn253 O258 2.121 . S
Mn253 N260 2.257 . S
Mn253 N269 2.282 . S
Mn253 O277 2.215 . S
Mn253 O279 2.117 . S
C254 O276 1.234 . S
C254 O277 1.283 . S
C255 O267 1.281 . S
C255 O268 1.236 . S
C256 O278 1.240 . S
C256 O279 1.264 . S
O257 Mn252 2.095 . S
O257 C266 1.250 . S
O258 Mn253 2.121 . S
O258 C266 1.258 . S
C259 N260 1.326 . S
C259 C263 1.460 . S
C259 H265 0.929 . S
N260 Mn253 2.257 . S
N260 C259 1.326 . S
N260 C264 1.362 . S
C261 C262 1.258 . S
C261 C264 1.431 . S
C261 C281 1.449 . S
C262 C261 1.258 . S
C262 C263 1.477 . S
C262 H282 0.931 . S
C263 C259 1.460 . S
C263 C262 1.477 . S
C263 H283 0.930 . S
C264 N260 1.362 . S
C264 C261 1.431 . S
C264 C274 1.476 . S
H265 C259 0.929 . S
C266 O257 1.250 . S
C266 O258 1.258 . S
O267 Mn252 2.162 . S
O267 C255 1.281 . S
O268 Mn252 2.297 . S
O268 C255 1.236 . S
N269 Mn253 2.282 . S
N269 C270 1.328 . S
N269 C274 1.318 . S
C270 N269 1.328 . S
C270 C271 1.457 . S
C270 H275 0.929 . S
C271 C270 1.457 . S
C271 C272 1.291 . S
C271 H284 0.931 . S
C272 C271 1.291 . S
C272 C273 1.373 . S
C272 H285 0.929 . S
C273 C272 1.373 . S
C273 C274 1.396 . S
C273 C280 1.403 . S
C274 C264 1.476 . S
C274 N269 1.318 . S
C274 C273 1.396 . S
H275 C270 0.929 . S
O276 Mn252 2.385 . S
O276 C254 1.234 . S
O277 Mn252 2.209 . S
O277 Mn253 2.215 . S
O277 C254 1.283 . S
O278 Mn252 2.094 . S
O278 C256 1.240 . S
O279 Mn253 2.117 . S
O279 C256 1.264 . S
C280 C273 1.403 . S
C280 C281 1.399 . S
C280 H286 0.929 . S
C281 C261 1.449 . S
C281 C280 1.399 . S
C281 H287 0.930 . S
H282 C262 0.931 . S
H283 C263 0.930 . S
H284 C271 0.931 . S
H285 C272 0.929 . S
H286 C280 0.929 . S
H287 C281 0.930 . S
Mn288 O293 2.095 . S
Mn288 O303 2.162 . S
Mn288 O304 2.297 . S
Mn288 O312 2.385 . S
Mn288 O313 2.209 . S
Mn288 O314 2.094 . S
Mn289 O294 2.121 . S
Mn289 N296 2.257 . S
Mn289 N305 2.282 . S
Mn289 O313 2.215 . S
Mn289 O315 2.117 . S
C290 O312 1.234 . S
C290 O313 1.283 . S
C291 O303 1.281 . S
C291 O304 1.236 . S
C292 O314 1.240 . S
C292 O315 1.264 . S
O293 Mn288 2.095 . S
O293 C302 1.250 . S
O294 Mn289 2.121 . S
O294 C302 1.258 . S
C295 N296 1.326 . S
C295 C299 1.460 . S
C295 H301 0.929 . S
N296 Mn289 2.257 . S
N296 C295 1.326 . S
N296 C300 1.362 . S
C297 C298 1.258 . S
C297 C300 1.431 . S
C297 C317 1.449 . S
C298 C297 1.258 . S
C298 C299 1.477 . S
C298 H318 0.931 . S
C299 C295 1.460 . S
C299 C298 1.477 . S
C299 H319 0.930 . S
C300 N296 1.362 . S
C300 C297 1.431 . S
C300 C310 1.476 . S
H301 C295 0.929 . S
C302 O293 1.250 . S
C302 O294 1.258 . S
O303 Mn288 2.162 . S
O303 C291 1.281 . S
O304 Mn288 2.297 . S
O304 C291 1.236 . S
N305 Mn289 2.282 . S
N305 C306 1.328 . S
N305 C310 1.318 . S
C306 N305 1.328 . S
C306 C307 1.457 . S
C306 H311 0.929 . S
C307 C306 1.457 . S
C307 C308 1.291 . S
C307 H320 0.931 . S
C308 C307 1.291 . S
C308 C309 1.373 . S
C308 H321 0.929 . S
C309 C308 1.373 . S
C309 C310 1.396 . S
C309 C316 1.403 . S
C310 C300 1.476 . S
C310 N305 1.318 . S
C310 C309 1.396 . S
H311 C306 0.929 . S
O312 Mn288 2.385 . S
O312 C290 1.234 . S
O313 Mn288 2.209 . S
O313 Mn289 2.215 . S
O313 C290 1.283 . S
O314 Mn288 2.094 . S
O314 C292 1.240 . S
O315 Mn289 2.117 . S
O315 C292 1.264 . S
C316 C309 1.403 . S
C316 C317 1.399 . S
C316 H322 0.929 . S
C317 C297 1.449 . S
C317 C316 1.399 . S
C317 H323 0.930 . S
H318 C298 0.931 . S
H319 C299 0.930 . S
H320 C307 0.931 . S
H321 C308 0.929 . S
H322 C316 0.929 . S
H323 C317 0.930 . S
Mn324 O329 2.095 . S
Mn324 O339 2.162 . S
Mn324 O340 2.297 . S
Mn324 O348 2.385 . S
Mn324 O349 2.209 . S
Mn324 O350 2.094 . S
Mn325 O330 2.121 . S
Mn325 N332 2.257 . S
Mn325 N341 2.282 . S
Mn325 O349 2.215 . S
Mn325 O351 2.117 . S
C326 O348 1.234 . S
C326 O349 1.283 . S
C327 O339 1.281 . S
C327 O340 1.236 . S
C328 O350 1.240 . S
C328 O351 1.264 . S
O329 Mn324 2.095 . S
O329 C338 1.250 . S
O330 Mn325 2.121 . S
O330 C338 1.258 . S
C331 N332 1.326 . S
C331 C335 1.460 . S
C331 H337 0.929 . S
N332 Mn325 2.257 . S
N332 C331 1.326 . S
N332 C336 1.362 . S
C333 C334 1.258 . S
C333 C336 1.431 . S
C333 C353 1.449 . S
C334 C333 1.258 . S
C334 C335 1.477 . S
C334 H354 0.931 . S
C335 C331 1.460 . S
C335 C334 1.477 . S
C335 H355 0.930 . S
C336 N332 1.362 . S
C336 C333 1.431 . S
C336 C346 1.476 . S
H337 C331 0.929 . S
C338 O329 1.250 . S
C338 O330 1.258 . S
O339 Mn324 2.162 . S
O339 C327 1.281 . S
O340 Mn324 2.297 . S
O340 C327 1.236 . S
N341 Mn325 2.282 . S
N341 C342 1.328 . S
N341 C346 1.318 . S
C342 N341 1.328 . S
C342 C343 1.457 . S
C342 H347 0.929 . S
C343 C342 1.457 . S
C343 C344 1.291 . S
C343 H356 0.931 . S
C344 C343 1.291 . S
C344 C345 1.373 . S
C344 H357 0.929 . S
C345 C344 1.373 . S
C345 C346 1.396 . S
C345 C352 1.403 . S
C346 C336 1.476 . S
C346 N341 1.318 . S
C346 C345 1.396 . S
H347 C342 0.929 . S
O348 Mn324 2.385 . S
O348 C326 1.234 . S
O349 Mn324 2.209 . S
O349 Mn325 2.215 . S
O349 C326 1.283 . S
O350 Mn324 2.094 . S
O350 C328 1.240 . S
O351 Mn325 2.117 . S
O351 C328 1.264 . S
C352 C345 1.403 . S
C352 C353 1.399 . S
C352 H358 0.929 . S
C353 C333 1.449 . S
C353 C352 1.399 . S
C353 H359 0.930 . S
H354 C334 0.931 . S
H355 C335 0.930 . S
H356 C343 0.931 . S
H357 C344 0.929 . S
H358 C352 0.929 . S
H359 C353 0.930 . S
Mn360 O365 2.095 . S
Mn360 O375 2.162 . S
Mn360 O376 2.297 . S
Mn360 O384 2.385 . S
Mn360 O385 2.209 . S
Mn360 O386 2.094 . S
Mn361 O366 2.121 . S
Mn361 N368 2.257 . S
Mn361 N377 2.282 . S
Mn361 O385 2.215 . S
Mn361 O387 2.117 . S
C362 O384 1.234 . S
C362 O385 1.283 . S
C363 O375 1.281 . S
C363 O376 1.236 . S
C364 O386 1.240 . S
C364 O387 1.264 . S
O365 Mn360 2.095 . S
O365 C374 1.250 . S
O366 Mn361 2.121 . S
O366 C374 1.258 . S
C367 N368 1.326 . S
C367 C371 1.460 . S
C367 H373 0.929 . S
N368 Mn361 2.257 . S
N368 C367 1.326 . S
N368 C372 1.362 . S
C369 C370 1.258 . S
C369 C372 1.431 . S
C369 C389 1.449 . S
C370 C369 1.258 . S
C370 C371 1.477 . S
C370 H390 0.931 . S
C371 C367 1.460 . S
C371 C370 1.477 . S
C371 H391 0.930 . S
C372 N368 1.362 . S
C372 C369 1.431 . S
C372 C382 1.476 . S
H373 C367 0.929 . S
C374 O365 1.250 . S
C374 O366 1.258 . S
O375 Mn360 2.162 . S
O375 C363 1.281 . S
O376 Mn360 2.297 . S
O376 C363 1.236 . S
N377 Mn361 2.282 . S
N377 C378 1.328 . S
N377 C382 1.318 . S
C378 N377 1.328 . S
C378 C379 1.457 . S
C378 H383 0.929 . S
C379 C378 1.457 . S
C379 C380 1.291 . S
C379 H392 0.931 . S
C380 C379 1.291 . S
C380 C381 1.373 . S
C380 H393 0.929 . S
C381 C380 1.373 . S
C381 C382 1.396 . S
C381 C388 1.403 . S
C382 C372 1.476 . S
C382 N377 1.318 . S
C382 C381 1.396 . S
H383 C378 0.929 . S
O384 Mn360 2.385 . S
O384 C362 1.234 . S
O385 Mn360 2.209 . S
O385 Mn361 2.215 . S
O385 C362 1.283 . S
O386 Mn360 2.094 . S
O386 C364 1.240 . S
O387 Mn361 2.117 . S
O387 C364 1.264 . S
C388 C381 1.403 . S
C388 C389 1.399 . S
C388 H394 0.929 . S
C389 C369 1.449 . S
C389 C388 1.399 . S
C389 H395 0.930 . S
H390 C370 0.931 . S
H391 C371 0.930 . S
H392 C379 0.931 . S
H393 C380 0.929 . S
H394 C388 0.929 . S
H395 C389 0.930 . S
Mn396 O401 2.095 . S
Mn396 O411 2.162 . S
Mn396 O412 2.297 . S
Mn396 O420 2.385 . S
Mn396 O421 2.209 . S
Mn396 O422 2.094 . S
Mn397 O402 2.121 . S
Mn397 N404 2.257 . S
Mn397 N413 2.282 . S
Mn397 O421 2.215 . S
Mn397 O423 2.117 . S
C398 O420 1.234 . S
C398 O421 1.283 . S
C399 O411 1.281 . S
C399 O412 1.236 . S
C400 O422 1.240 . S
C400 O423 1.264 . S
O401 Mn396 2.095 . S
O401 C410 1.250 . S
O402 Mn397 2.121 . S
O402 C410 1.258 . S
C403 N404 1.326 . S
C403 C407 1.460 . S
C403 H409 0.929 . S
N404 Mn397 2.257 . S
N404 C403 1.326 . S
N404 C408 1.362 . S
C405 C406 1.258 . S
C405 C408 1.431 . S
C405 C425 1.449 . S
C406 C405 1.258 . S
C406 C407 1.477 . S
C406 H426 0.931 . S
C407 C403 1.460 . S
C407 C406 1.477 . S
C407 H427 0.930 . S
C408 N404 1.362 . S
C408 C405 1.431 . S
C408 C418 1.476 . S
H409 C403 0.929 . S
C410 O401 1.250 . S
C410 O402 1.258 . S
O411 Mn396 2.162 . S
O411 C399 1.281 . S
O412 Mn396 2.297 . S
O412 C399 1.236 . S
N413 Mn397 2.282 . S
N413 C414 1.328 . S
N413 C418 1.318 . S
C414 N413 1.328 . S
C414 C415 1.457 . S
C414 H419 0.929 . S
C415 C414 1.457 . S
C415 C416 1.291 . S
C415 H428 0.931 . S
C416 C415 1.291 . S
C416 C417 1.373 . S
C416 H429 0.929 . S
C417 C416 1.373 . S
C417 C418 1.396 . S
C417 C424 1.403 . S
C418 C408 1.476 . S
C418 N413 1.318 . S
C418 C417 1.396 . S
H419 C414 0.929 . S
O420 Mn396 2.385 . S
O420 C398 1.234 . S
O421 Mn396 2.209 . S
O421 Mn397 2.215 . S
O421 C398 1.283 . S
O422 Mn396 2.094 . S
O422 C400 1.240 . S
O423 Mn397 2.117 . S
O423 C400 1.264 . S
C424 C417 1.403 . S
C424 C425 1.399 . S
C424 H430 0.929 . S
C425 C405 1.449 . S
C425 C424 1.399 . S
C425 H431 0.930 . S
H426 C406 0.931 . S
H427 C407 0.930 . S
H428 C415 0.931 . S
H429 C416 0.929 . S
H430 C424 0.929 . S
H431 C425 0.930 . S
Mn432 O437 2.095 . S
Mn432 O447 2.162 . S
Mn432 O448 2.297 . S
Mn432 O456 2.385 . S
Mn432 O457 2.209 . S
Mn432 O458 2.094 . S
Mn433 O438 2.121 . S
Mn433 N440 2.257 . S
Mn433 N449 2.282 . S
Mn433 O457 2.215 . S
Mn433 O459 2.117 . S
C434 O456 1.234 . S
C434 O457 1.283 . S
C435 O447 1.281 . S
C435 O448 1.236 . S
C436 O458 1.240 . S
C436 O459 1.264 . S
O437 Mn432 2.095 . S
O437 C446 1.250 . S
O438 Mn433 2.121 . S
O438 C446 1.258 . S
C439 N440 1.326 . S
C439 C443 1.460 1_554 S
C439 H445 0.929 . S
N440 Mn433 2.257 . S
N440 C439 1.326 . S
N440 C444 1.362 . S
C441 C442 1.258 1_554 S
C441 C444 1.431 . S
C441 C461 1.444 1_554 S
C442 C441 1.258 1_556 S
C442 C443 1.477 . S
C442 H462 0.931 . S
C443 C439 1.460 1_556 S
C443 C442 1.477 . S
C443 H463 0.930 . S
C444 N440 1.362 . S
C444 C441 1.431 . S
C444 C454 1.476 . S
H445 C439 0.929 . S
C446 O437 1.250 . S
C446 O438 1.258 . S
O447 Mn432 2.162 . S
O447 C435 1.281 . S
O448 Mn432 2.297 . S
O448 C435 1.236 . S
N449 Mn433 2.282 . S
N449 C450 1.328 . S
N449 C454 1.318 . S
C450 N449 1.328 . S
C450 C451 1.457 . S
C450 H455 0.929 . S
C451 C450 1.457 . S
C451 C452 1.291 . S
C451 H464 0.931 . S
C452 C451 1.291 . S
C452 C453 1.373 . S
C452 H465 0.929 . S
C453 C452 1.373 . S
C453 C454 1.396 . S
C453 C460 1.403 . S
C454 C444 1.476 . S
C454 N449 1.318 . S
C454 C453 1.396 . S
H455 C450 0.929 . S
O456 Mn432 2.385 . S
O456 C434 1.234 . S
O457 Mn432 2.209 . S
O457 Mn433 2.215 . S
O457 C434 1.283 . S
O458 Mn432 2.094 . S
O458 C436 1.240 . S
O459 Mn433 2.117 . S
O459 C436 1.264 . S
C460 C453 1.403 . S
C460 C461 1.378 1_554 S
C460 H466 0.929 . S
C461 C441 1.444 1_556 S
C461 C460 1.378 1_556 S
C461 H467 0.957 . S
H462 C442 0.931 . S
H463 C443 0.930 . S
H464 C451 0.931 . S
H465 C452 0.929 . S
H466 C460 0.929 . S
H467 C461 0.957 . S
Mn468 O473 2.095 . S
Mn468 O483 2.162 . S
Mn468 O484 2.297 . S
Mn468 O492 2.385 . S
Mn468 O493 2.209 . S
Mn468 O494 2.094 . S
Mn469 O474 2.121 . S
Mn469 N476 2.257 . S
Mn469 N485 2.282 . S
Mn469 O493 2.215 . S
Mn469 O495 2.117 . S
C470 O492 1.234 . S
C470 O493 1.283 . S
C471 O483 1.281 . S
C471 O484 1.236 . S
C472 O494 1.240 . S
C472 O495 1.264 . S
O473 Mn468 2.095 . S
O473 C482 1.250 . S
O474 Mn469 2.121 . S
O474 C482 1.258 . S
C475 N476 1.326 . S
C475 C479 1.460 . S
C475 H481 0.929 . S
N476 Mn469 2.257 . S
N476 C475 1.326 . S
N476 C480 1.362 . S
C477 C478 1.258 . S
C477 C480 1.431 . S
C477 C497 1.449 . S
C478 C477 1.258 . S
C478 C479 1.477 . S
C478 H498 0.931 . S
C479 C475 1.460 . S
C479 C478 1.477 . S
C479 H499 0.930 . S
C480 N476 1.362 . S
C480 C477 1.431 . S
C480 C490 1.476 . S
H481 C475 0.929 . S
C482 O473 1.250 . S
C482 O474 1.258 . S
O483 Mn468 2.162 . S
O483 C471 1.281 . S
O484 Mn468 2.297 . S
O484 C471 1.236 . S
N485 Mn469 2.282 . S
N485 C486 1.328 . S
N485 C490 1.318 . S
C486 N485 1.328 . S
C486 C487 1.457 . S
C486 H491 0.929 . S
C487 C486 1.457 . S
C487 C488 1.291 . S
C487 H500 0.931 . S
C488 C487 1.291 . S
C488 C489 1.373 . S
C488 H501 0.929 . S
C489 C488 1.373 . S
C489 C490 1.396 . S
C489 C496 1.403 . S
C490 C480 1.476 . S
C490 N485 1.318 . S
C490 C489 1.396 . S
H491 C486 0.929 . S
O492 Mn468 2.385 . S
O492 C470 1.234 . S
O493 Mn468 2.209 . S
O493 Mn469 2.215 . S
O493 C470 1.283 . S
O494 Mn468 2.094 . S
O494 C472 1.240 . S
O495 Mn469 2.117 . S
O495 C472 1.264 . S
C496 C489 1.403 . S
C496 C497 1.399 . S
C496 H502 0.929 . S
C497 C477 1.449 . S
C497 C496 1.399 . S
C497 H503 0.930 . S
H498 C478 0.931 . S
H499 C479 0.930 . S
H500 C487 0.931 . S
H501 C488 0.929 . S
H502 C496 0.929 . S
H503 C497 0.930 . S
Mn504 O509 2.095 . S
Mn504 O519 2.162 . S
Mn504 O520 2.297 . S
Mn504 O528 2.385 . S
Mn504 O529 2.209 . S
Mn504 O530 2.094 . S
Mn505 O510 2.121 . S
Mn505 N512 2.257 . S
Mn505 N521 2.282 . S
Mn505 O529 2.215 . S
Mn505 O531 2.117 . S
C506 O528 1.234 . S
C506 O529 1.283 . S
C507 O519 1.281 . S
C507 O520 1.236 . S
C508 O530 1.240 . S
C508 O531 1.264 . S
O509 Mn504 2.095 . S
O509 C518 1.250 . S
O510 Mn505 2.121 . S
O510 C518 1.258 . S
C511 N512 1.326 . S
C511 C515 1.460 . S
C511 H517 0.929 . S
N512 Mn505 2.257 . S
N512 C511 1.326 . S
N512 C516 1.362 . S
C513 C514 1.258 . S
C513 C516 1.431 . S
C513 C533 1.449 . S
C514 C513 1.258 . S
C514 C515 1.477 . S
C514 H534 0.931 . S
C515 C511 1.460 . S
C515 C514 1.477 . S
C515 H535 0.930 . S
C516 N512 1.362 . S
C516 C513 1.431 . S
C516 C526 1.476 . S
H517 C511 0.929 . S
C518 O509 1.250 . S
C518 O510 1.258 . S
O519 Mn504 2.162 . S
O519 C507 1.281 . S
O520 Mn504 2.297 . S
O520 C507 1.236 . S
N521 Mn505 2.282 . S
N521 C522 1.328 . S
N521 C526 1.318 . S
C522 N521 1.328 . S
C522 C523 1.457 . S
C522 H527 0.929 . S
C523 C522 1.457 . S
C523 C524 1.291 . S
C523 H536 0.931 . S
C524 C523 1.291 . S
C524 C525 1.373 . S
C524 H537 0.929 . S
C525 C524 1.373 . S
C525 C526 1.396 . S
C525 C532 1.403 . S
C526 C516 1.476 . S
C526 N521 1.318 . S
C526 C525 1.396 . S
H527 C522 0.929 . S
O528 Mn504 2.385 . S
O528 C506 1.234 . S
O529 Mn504 2.209 . S
O529 Mn505 2.215 . S
O529 C506 1.283 . S
O530 Mn504 2.094 . S
O530 C508 1.240 . S
O531 Mn505 2.117 . S
O531 C508 1.264 . S
C532 C525 1.403 . S
C532 C533 1.399 . S
C532 H538 0.929 . S
C533 C513 1.449 . S
C533 C532 1.399 . S
C533 H539 0.930 . S
H534 C514 0.931 . S
H535 C515 0.930 . S
H536 C523 0.931 . S
H537 C524 0.929 . S
H538 C532 0.929 . S
H539 C533 0.930 . S
Mn540 O545 2.095 . S
Mn540 O555 2.162 . S
Mn540 O556 2.297 . S
Mn540 O564 2.385 . S
Mn540 O565 2.209 . S
Mn540 O566 2.094 . S
Mn541 O546 2.121 . S
Mn541 N548 2.257 . S
Mn541 N557 2.282 . S
Mn541 O565 2.215 . S
Mn541 O567 2.117 . S
C542 O564 1.234 . S
C542 O565 1.283 . S
C543 O555 1.281 . S
C543 O556 1.236 . S
C544 O566 1.240 . S
C544 O567 1.264 . S
O545 Mn540 2.095 . S
O545 C554 1.250 . S
O546 Mn541 2.121 . S
O546 C554 1.258 . S
C547 N548 1.326 . S
C547 C551 1.460 . S
C547 H553 0.929 . S
N548 Mn541 2.257 . S
N548 C547 1.326 . S
N548 C552 1.362 . S
C549 C550 1.258 . S
C549 C552 1.431 . S
C549 C569 1.449 . S
C550 C549 1.258 . S
C550 C551 1.477 . S
C550 H570 0.931 . S
C551 C547 1.460 . S
C551 C550 1.477 . S
C551 H571 0.930 . S
C552 N548 1.362 . S
C552 C549 1.431 . S
C552 C562 1.476 . S
H553 C547 0.929 . S
C554 O545 1.250 . S
C554 O546 1.258 . S
O555 Mn540 2.162 . S
O555 C543 1.281 . S
O556 Mn540 2.297 . S
O556 C543 1.236 . S
N557 Mn541 2.282 . S
N557 C558 1.328 . S
N557 C562 1.318 . S
C558 N557 1.328 . S
C558 C559 1.457 . S
C558 H563 0.929 . S
C559 C558 1.457 . S
C559 C560 1.291 . S
C559 H572 0.931 . S
C560 C559 1.291 . S
C560 C561 1.373 . S
C560 H573 0.929 . S
C561 C560 1.373 . S
C561 C562 1.396 . S
C561 C568 1.403 . S
C562 C552 1.476 . S
C562 N557 1.318 . S
C562 C561 1.396 . S
H563 C558 0.929 . S
O564 Mn540 2.385 . S
O564 C542 1.234 . S
O565 Mn540 2.209 . S
O565 Mn541 2.215 . S
O565 C542 1.283 . S
O566 Mn540 2.094 . S
O566 C544 1.240 . S
O567 Mn541 2.117 . S
O567 C544 1.264 . S
C568 C561 1.403 . S
C568 C569 1.399 . S
C568 H574 0.929 . S
C569 C549 1.449 . S
C569 C568 1.399 . S
C569 H575 0.930 . S
H570 C550 0.931 . S
H571 C551 0.930 . S
H572 C559 0.931 . S
H573 C560 0.929 . S
H574 C568 0.929 . S
H575 C569 0.930 . S
H576 C584 0.929 . S
H577 C586 0.930 . S
H578 C588 0.930 . S
H579 C591 0.929 . S
H580 C594 0.930 . S
H581 C596 0.960 . S
H582 C596 0.960 . S
H583 C596 0.960 . S
C584 H576 0.929 . S
C584 C585 1.377 . S
C584 C586 1.384 . S
C585 C584 1.377 . S
C585 C591 1.390 . S
C586 H577 0.930 . S
C586 C584 1.384 . S
C586 C587 1.372 . S
C587 C586 1.372 . S
C587 C588 1.400 . S
C587 C592 1.490 . S
C588 H578 0.930 . S
C588 C587 1.400 . S
C588 C591 1.386 . S
H589 C605 0.930 . S
H590 C606 0.931 . S
C591 H579 0.929 . S
C591 C585 1.390 . S
C591 C588 1.386 . S
C592 C587 1.490 . S
C592 C594 1.395 . S
C592 C595 1.403 . S
H593 C599 0.930 . S
C594 H580 0.930 . S
C594 C592 1.395 . S
C594 C597 1.403 . S
C595 C592 1.403 . S
C595 C596 1.524 . S
C595 C599 1.400 . S
C596 H581 0.960 . S
C596 H582 0.960 . S
C596 H583 0.960 . S
C596 C595 1.524 . S
C597 C594 1.403 . S
C597 C598 1.392 . S
C597 C601 1.495 . S
C598 C597 1.392 . S
C598 C599 1.385 . S
C598 C600 1.478 . S
C599 H593 0.930 . S
C599 C595 1.400 . S
C599 C598 1.385 . S
C600 C598 1.478 . S
C600 C602 1.381 . S
C600 C606 1.383 . S
C601 C597 1.495 . S
C601 H607 0.959 . S
C601 H608 0.961 . S
C601 H609 0.960 . S
C602 C600 1.381 . S
C602 C603 1.394 . S
C602 H610 0.930 . S
C603 C602 1.394 . S
C603 C604 1.383 . S
C603 H611 0.929 . S
C604 C603 1.383 . S
C604 C605 1.377 . S
C605 H589 0.930 . S
C605 C604 1.377 . S
C605 C606 1.379 . S
C606 H590 0.931 . S
C606 C600 1.383 . S
C606 C605 1.379 . S
H607 C601 0.959 . S
H608 C601 0.961 . S
H609 C601 0.960 . S
H610 C602 0.930 . S
H611 C603 0.929 . S
H612 C620 0.929 . S
H613 C622 0.930 . S
H614 C624 0.930 . S
H615 C627 0.929 . S
H616 C630 0.930 . S
H617 C632 0.960 . S
H618 C632 0.960 . S
H619 C632 0.960 . S
C620 H612 0.929 . S
C620 C621 1.377 . S
C620 C622 1.384 . S
C621 C620 1.377 . S
C621 C627 1.390 . S
C622 H613 0.930 . S
C622 C620 1.384 . S
C622 C623 1.372 . S
C623 C622 1.372 . S
C623 C624 1.400 . S
C623 C628 1.490 . S
C624 H614 0.930 . S
C624 C623 1.400 . S
C624 C627 1.386 . S
H625 C641 0.930 . S
H626 C642 0.931 . S
C627 H615 0.929 . S
C627 C621 1.390 . S
C627 C624 1.386 . S
C628 C623 1.490 . S
C628 C630 1.395 . S
C628 C631 1.403 . S
H629 C635 0.930 . S
C630 H616 0.930 . S
C630 C628 1.395 . S
C630 C633 1.403 . S
C631 C628 1.403 . S
C631 C632 1.524 . S
C631 C635 1.400 . S
C632 H617 0.960 . S
C632 H618 0.960 . S
C632 H619 0.960 . S
C632 C631 1.524 . S
C633 C630 1.403 . S
C633 C634 1.392 . S
C633 C637 1.495 . S
C634 C633 1.392 . S
C634 C635 1.385 . S
C634 C636 1.478 . S
C635 H629 0.930 . S
C635 C631 1.400 . S
C635 C634 1.385 . S
C636 C634 1.478 . S
C636 C638 1.381 . S
C636 C642 1.383 . S
C637 C633 1.495 . S
C637 H643 0.959 . S
C637 H644 0.961 . S
C637 H645 0.960 . S
C638 C636 1.381 . S
C638 C639 1.394 . S
C638 H646 0.930 . S
C639 C638 1.394 . S
C639 C640 1.383 . S
C639 H647 0.929 . S
C640 C639 1.383 . S
C640 C641 1.377 . S
C641 H625 0.930 . S
C641 C640 1.377 . S
C641 C642 1.379 . S
C642 H626 0.931 . S
C642 C636 1.383 . S
C642 C641 1.379 . S
H643 C637 0.959 . S
H644 C637 0.961 . S
H645 C637 0.960 . S
H646 C638 0.930 . S
H647 C639 0.929 . S
H648 C656 0.929 . S
H649 C658 0.930 . S
H650 C660 0.930 . S
H651 C663 0.929 . S
H652 C666 0.930 . S
H653 C668 0.960 . S
H654 C668 0.960 . S
H655 C668 0.960 . S
C656 H648 0.929 . S
C656 C657 1.377 . S
C656 C658 1.384 . S
C657 C656 1.377 . S
C657 C663 1.390 . S
C658 H649 0.930 . S
C658 C656 1.384 . S
C658 C659 1.372 . S
C659 C658 1.372 . S
C659 C660 1.400 . S
C659 C664 1.490 . S
C660 H650 0.930 . S
C660 C659 1.400 . S
C660 C663 1.386 . S
H661 C677 0.930 . S
H662 C678 0.931 . S
C663 H651 0.929 . S
C663 C657 1.390 . S
C663 C660 1.386 . S
C664 C659 1.490 . S
C664 C666 1.395 . S
C664 C667 1.403 . S
H665 C671 0.930 . S
C666 H652 0.930 . S
C666 C664 1.395 . S
C666 C669 1.403 . S
C667 C664 1.403 . S
C667 C668 1.524 . S
C667 C671 1.400 . S
C668 H653 0.960 . S
C668 H654 0.960 . S
C668 H655 0.960 . S
C668 C667 1.524 . S
C669 C666 1.403 . S
C669 C670 1.392 . S
C669 C673 1.495 . S
C670 C669 1.392 . S
C670 C671 1.385 . S
C670 C672 1.478 . S
C671 H665 0.930 . S
C671 C667 1.400 . S
C671 C670 1.385 . S
C672 C670 1.478 . S
C672 C674 1.381 . S
C672 C678 1.383 . S
C673 C669 1.495 . S
C673 H679 0.959 . S
C673 H680 0.961 . S
C673 H681 0.960 . S
C674 C672 1.381 . S
C674 C675 1.394 . S
C674 H682 0.930 . S
C675 C674 1.394 . S
C675 C676 1.383 . S
C675 H683 0.929 . S
C676 C675 1.383 . S
C676 C677 1.377 . S
C677 H661 0.930 . S
C677 C676 1.377 . S
C677 C678 1.379 . S
C678 H662 0.931 . S
C678 C672 1.383 . S
C678 C677 1.379 . S
H679 C673 0.959 . S
H680 C673 0.961 . S
H681 C673 0.960 . S
H682 C674 0.930 . S
H683 C675 0.929 . S
H684 C692 0.929 . S
H685 C694 0.930 . S
H686 C696 0.930 . S
H687 C699 0.929 . S
H688 C702 0.930 . S
H689 C704 0.960 . S
H690 C704 0.960 . S
H691 C704 0.960 . S
C692 H684 0.929 . S
C692 C693 1.377 . S
C692 C694 1.384 . S
C693 C692 1.377 . S
C693 C699 1.390 . S
C694 H685 0.930 . S
C694 C692 1.384 . S
C694 C695 1.372 . S
C695 C694 1.372 . S
C695 C696 1.400 . S
C695 C700 1.490 . S
C696 H686 0.930 . S
C696 C695 1.400 . S
C696 C699 1.386 . S
H697 C713 0.930 . S
H698 C714 0.931 . S
C699 H687 0.929 . S
C699 C693 1.390 . S
C699 C696 1.386 . S
C700 C695 1.490 . S
C700 C702 1.395 . S
C700 C703 1.403 . S
H701 C707 0.930 . S
C702 H688 0.930 . S
C702 C700 1.395 . S
C702 C705 1.403 1_455 S
C703 C700 1.403 . S
C703 C704 1.524 . S
C703 C707 1.400 1_455 S
C704 H689 0.960 . S
C704 H690 0.960 . S
C704 H691 0.960 . S
C704 C703 1.524 . S
C705 C702 1.403 1_655 S
C705 C706 1.392 . S
C705 C709 1.495 . S
C706 C705 1.392 . S
C706 C707 1.385 . S
C706 C708 1.478 . S
C707 H701 0.930 . S
C707 C703 1.400 1_655 S
C707 C706 1.385 . S
C708 C706 1.478 . S
C708 C710 1.381 . S
C708 C714 1.383 . S
C709 C705 1.495 . S
C709 H715 0.959 . S
C709 H716 0.961 . S
C709 H717 0.960 . S
C710 C708 1.381 . S
C710 C711 1.394 . S
C710 H718 0.930 . S
C711 C710 1.394 . S
C711 C712 1.383 . S
C711 H719 0.929 . S
C712 C711 1.383 . S
C712 C713 1.377 . S
C713 H697 0.930 . S
C713 C712 1.377 . S
C713 C714 1.379 . S
C714 H698 0.931 . S
C714 C708 1.383 . S
C714 C713 1.379 . S
H715 C709 0.959 . S
H716 C709 0.961 . S
H717 C709 0.960 . S
H718 C710 0.930 . S
H719 C711 0.929 . S
H720 C728 0.929 . S
H721 C730 0.930 . S
H722 C732 0.930 . S
H723 C735 0.929 . S
H724 C738 0.930 . S
H725 C740 0.960 . S
H726 C740 0.960 . S
H727 C740 0.960 . S
C728 H720 0.929 . S
C728 C729 1.377 . S
C728 C730 1.384 . S
C729 C728 1.377 . S
C729 C735 1.390 . S
C730 H721 0.930 . S
C730 C728 1.384 . S
C730 C731 1.372 . S
C731 C730 1.372 . S
C731 C732 1.400 . S
C731 C736 1.490 . S
C732 H722 0.930 . S
C732 C731 1.400 . S
C732 C735 1.386 . S
H733 C749 0.930 . S
H734 C750 0.931 . S
C735 H723 0.929 . S
C735 C729 1.390 . S
C735 C732 1.386 . S
C736 C731 1.490 . S
C736 C738 1.395 . S
C736 C739 1.403 . S
H737 C743 0.930 . S
C738 H724 0.930 . S
C738 C736 1.395 . S
C738 C741 1.403 . S
C739 C736 1.403 . S
C739 C740 1.524 . S
C739 C743 1.400 . S
C740 H725 0.960 . S
C740 H726 0.960 . S
C740 H727 0.960 . S
C740 C739 1.524 . S
C741 C738 1.403 . S
C741 C742 1.392 . S
C741 C745 1.495 . S
C742 C741 1.392 . S
C742 C743 1.385 . S
C742 C744 1.478 . S
C743 H737 0.930 . S
C743 C739 1.400 . S
C743 C742 1.385 . S
C744 C742 1.478 . S
C744 C746 1.381 . S
C744 C750 1.383 . S
C745 C741 1.495 . S
C745 H751 0.959 . S
C745 H752 0.961 . S
C745 H753 0.960 . S
C746 C744 1.381 . S
C746 C747 1.394 . S
C746 H754 0.930 . S
C747 C746 1.394 . S
C747 C748 1.383 . S
C747 H755 0.929 . S
C748 C747 1.383 . S
C748 C749 1.377 . S
C749 H733 0.930 . S
C749 C748 1.377 . S
C749 C750 1.379 . S
C750 H734 0.931 . S
C750 C744 1.383 . S
C750 C749 1.379 . S
H751 C745 0.959 . S
H752 C745 0.961 . S
H753 C745 0.960 . S
H754 C746 0.930 . S
H755 C747 0.929 . S
H756 C764 0.929 . S
H757 C766 0.930 . S
H758 C768 0.930 . S
H759 C771 0.929 . S
H760 C774 0.930 . S
H761 C776 0.960 . S
H762 C776 0.960 . S
H763 C776 0.960 . S
C764 H756 0.929 . S
C764 C765 1.377 . S
C764 C766 1.384 . S
C765 C764 1.377 . S
C765 C771 1.390 . S
C766 H757 0.930 . S
C766 C764 1.384 . S
C766 C767 1.372 . S
C767 C766 1.372 . S
C767 C768 1.400 . S
C767 C772 1.490 . S
C768 H758 0.930 . S
C768 C767 1.400 . S
C768 C771 1.386 . S
H769 C785 0.930 . S
H770 C786 0.931 . S
C771 H759 0.929 . S
C771 C765 1.390 . S
C771 C768 1.386 . S
C772 C767 1.490 . S
C772 C774 1.395 . S
C772 C775 1.403 . S
H773 C779 0.930 . S
C774 H760 0.930 . S
C774 C772 1.395 . S
C774 C777 1.403 1_655 S
C775 C772 1.403 . S
C775 C776 1.524 . S
C775 C779 1.400 1_655 S
C776 H761 0.960 . S
C776 H762 0.960 . S
C776 H763 0.960 . S
C776 C775 1.524 . S
C777 C774 1.403 1_455 S
C777 C778 1.392 . S
C777 C781 1.495 . S
C778 C777 1.392 . S
C778 C779 1.385 . S
C778 C780 1.478 . S
C779 H773 0.930 . S
C779 C775 1.400 1_455 S
C779 C778 1.385 . S
C780 C778 1.478 . S
C780 C782 1.381 . S
C780 C786 1.383 . S
C781 C777 1.495 . S
C781 H787 0.959 . S
C781 H788 0.961 . S
C781 H789 0.960 . S
C782 C780 1.381 . S
C782 C783 1.394 . S
C782 H790 0.930 . S
C783 C782 1.394 . S
C783 C784 1.383 . S
C783 H791 0.929 . S
C784 C783 1.383 . S
C784 C785 1.377 . S
C785 H769 0.930 . S
C785 C784 1.377 . S
C785 C786 1.379 . S
C786 H770 0.931 . S
C786 C780 1.383 . S
C786 C785 1.379 . S
H787 C781 0.959 . S
H788 C781 0.961 . S
H789 C781 0.960 . S
H790 C782 0.930 . S
H791 C783 0.929 . S
H792 C800 0.929 . S
H793 C802 0.930 . S
H794 C804 0.930 . S
H795 C807 0.929 . S
H796 C810 0.930 . S
H797 C812 0.960 . S
H798 C812 0.960 . S
H799 C812 0.960 . S
C800 H792 0.929 . S
C800 C801 1.377 . S
C800 C802 1.384 . S
C801 C800 1.377 . S
C801 C807 1.390 . S
C802 H793 0.930 . S
C802 C800 1.384 . S
C802 C803 1.372 . S
C803 C802 1.372 . S
C803 C804 1.400 . S
C803 C808 1.490 . S
C804 H794 0.930 . S
C804 C803 1.400 . S
C804 C807 1.386 . S
H805 C821 0.930 . S
H806 C822 0.931 . S
C807 H795 0.929 . S
C807 C801 1.390 . S
C807 C804 1.386 . S
C808 C803 1.490 . S
C808 C810 1.395 . S
C808 C811 1.403 . S
H809 C815 0.930 . S
C810 H796 0.930 . S
C810 C808 1.395 . S
C810 C813 1.403 . S
C811 C808 1.403 . S
C811 C812 1.524 . S
C811 C815 1.400 . S
C812 H797 0.960 . S
C812 H798 0.960 . S
C812 H799 0.960 . S
C812 C811 1.524 . S
C813 C810 1.403 . S
C813 C814 1.392 . S
C813 C817 1.495 . S
C814 C813 1.392 . S
C814 C815 1.385 . S
C814 C816 1.478 . S
C815 H809 0.930 . S
C815 C811 1.400 . S
C815 C814 1.385 . S
C816 C814 1.478 . S
C816 C818 1.381 . S
C816 C822 1.383 . S
C817 C813 1.495 . S
C817 H823 0.959 . S
C817 H824 0.961 . S
C817 H825 0.960 . S
C818 C816 1.381 . S
C818 C819 1.394 . S
C818 H826 0.930 . S
C819 C818 1.394 . S
C819 C820 1.383 . S
C819 H827 0.929 . S
C820 C819 1.383 . S
C820 C821 1.377 . S
C821 H805 0.930 . S
C821 C820 1.377 . S
C821 C822 1.379 . S
C822 H806 0.931 . S
C822 C816 1.383 . S
C822 C821 1.379 . S
H823 C817 0.959 . S
H824 C817 0.961 . S
H825 C817 0.960 . S
H826 C818 0.930 . S
H827 C819 0.929 . S
H828 C836 0.929 . S
H829 C838 0.930 . S
H830 C840 0.930 . S
H831 C843 0.929 . S
H832 C846 0.930 . S
H833 C848 0.960 . S
H834 C848 0.960 . S
H835 C848 0.960 . S
C836 H828 0.929 . S
C836 C837 1.377 . S
C836 C838 1.384 . S
C837 C836 1.377 . S
C837 C843 1.390 . S
C838 H829 0.930 . S
C838 C836 1.384 . S
C838 C839 1.372 . S
C839 C838 1.372 . S
C839 C840 1.400 . S
C839 C844 1.490 . S
C840 H830 0.930 . S
C840 C839 1.400 . S
C840 C843 1.386 . S
H841 C857 0.930 . S
H842 C858 0.931 . S
C843 H831 0.929 . S
C843 C837 1.390 . S
C843 C840 1.386 . S
C844 C839 1.490 . S
C844 C846 1.395 . S
C844 C847 1.403 . S
H845 C851 0.930 . S
C846 H832 0.930 . S
C846 C844 1.395 . S
C846 C849 1.403 . S
C847 C844 1.403 . S
C847 C848 1.524 . S
C847 C851 1.400 . S
C848 H833 0.960 . S
C848 H834 0.960 . S
C848 H835 0.960 . S
C848 C847 1.524 . S
C849 C846 1.403 . S
C849 C850 1.392 . S
C849 C853 1.495 . S
C850 C849 1.392 . S
C850 C851 1.385 . S
C850 C852 1.478 . S
C851 H845 0.930 . S
C851 C847 1.400 . S
C851 C850 1.385 . S
C852 C850 1.478 . S
C852 C854 1.381 . S
C852 C858 1.383 . S
C853 C849 1.495 . S
C853 H859 0.959 . S
C853 H860 0.961 . S
C853 H861 0.960 . S
C854 C852 1.381 . S
C854 C855 1.394 . S
C854 H862 0.930 . S
C855 C854 1.394 . S
C855 C856 1.383 . S
C855 H863 0.929 . S
C856 C855 1.383 . S
C856 C857 1.377 . S
C857 H841 0.930 . S
C857 C856 1.377 . S
C857 C858 1.379 . S
C858 H842 0.931 . S
C858 C852 1.383 . S
C858 C857 1.379 . S
H859 C853 0.959 . S
H860 C853 0.961 . S
H861 C853 0.960 . S
H862 C854 0.930 . S
H863 C855 0.929 . S
H864 C872 0.929 . S
H865 C874 0.930 . S
H866 C876 0.930 . S
H867 C879 0.929 . S
H868 C882 0.930 . S
H869 C884 0.960 . S
H870 C884 0.960 . S
H871 C884 0.960 . S
C872 H864 0.929 . S
C872 C873 1.377 . S
C872 C874 1.384 . S
C873 C872 1.377 . S
C873 C879 1.390 . S
C874 H865 0.930 . S
C874 C872 1.384 . S
C874 C875 1.372 . S
C875 C874 1.372 . S
C875 C876 1.400 . S
C875 C880 1.490 . S
C876 H866 0.930 . S
C876 C875 1.400 . S
C876 C879 1.386 . S
H877 C893 0.930 . S
H878 C894 0.931 . S
C879 H867 0.929 . S
C879 C873 1.390 . S
C879 C876 1.386 . S
C880 C875 1.490 . S
C880 C882 1.395 . S
C880 C883 1.403 . S
H881 C887 0.930 . S
C882 H868 0.930 . S
C882 C880 1.395 . S
C882 C885 1.403 . S
C883 C880 1.403 . S
C883 C884 1.524 . S
C883 C887 1.400 . S
C884 H869 0.960 . S
C884 H870 0.960 . S
C884 H871 0.960 . S
C884 C883 1.524 . S
C885 C882 1.403 . S
C885 C886 1.392 . S
C885 C889 1.495 . S
C886 C885 1.392 . S
C886 C887 1.385 . S
C886 C888 1.478 . S
C887 H881 0.930 . S
C887 C883 1.400 . S
C887 C886 1.385 . S
C888 C886 1.478 . S
C888 C890 1.381 . S
C888 C894 1.383 . S
C889 C885 1.495 . S
C889 H895 0.959 . S
C889 H896 0.961 . S
C889 H897 0.960 . S
C890 C888 1.381 . S
C890 C891 1.394 . S
C890 H898 0.930 . S
C891 C890 1.394 . S
C891 C892 1.383 . S
C891 H899 0.929 . S
C892 C891 1.383 . S
C892 C893 1.377 . S
C893 H877 0.930 . S
C893 C892 1.377 . S
C893 C894 1.379 . S
C894 H878 0.931 . S
C894 C888 1.383 . S
C894 C893 1.379 . S
H895 C889 0.959 . S
H896 C889 0.961 . S
H897 C889 0.960 . S
H898 C890 0.930 . S
H899 C891 0.929 . S
H900 C908 0.929 . S
H901 C910 0.930 . S
H902 C912 0.930 . S
H903 C915 0.929 . S
H904 C918 0.930 . S
H905 C920 0.960 . S
H906 C920 0.960 . S
H907 C920 0.960 . S
C908 H900 0.929 . S
C908 C909 1.377 . S
C908 C910 1.384 . S
C909 C908 1.377 . S
C909 C915 1.390 . S
C910 H901 0.930 . S
C910 C908 1.384 . S
C910 C911 1.372 . S
C911 C910 1.372 . S
C911 C912 1.400 . S
C911 C916 1.490 . S
C912 H902 0.930 . S
C912 C911 1.400 . S
C912 C915 1.386 . S
H913 C929 0.930 . S
H914 C930 0.931 . S
C915 H903 0.929 . S
C915 C909 1.390 . S
C915 C912 1.386 . S
C916 C911 1.490 . S
C916 C918 1.395 . S
C916 C919 1.403 . S
H917 C923 0.930 . S
C918 H904 0.930 . S
C918 C916 1.395 . S
C918 C921 1.403 . S
C919 C916 1.403 . S
C919 C920 1.524 . S
C919 C923 1.400 . S
C920 H905 0.960 . S
C920 H906 0.960 . S
C920 H907 0.960 . S
C920 C919 1.524 . S
C921 C918 1.403 . S
C921 C922 1.392 . S
C921 C925 1.495 . S
C922 C921 1.392 . S
C922 C923 1.385 . S
C922 C924 1.478 . S
C923 H917 0.930 . S
C923 C919 1.400 . S
C923 C922 1.385 . S
C924 C922 1.478 . S
C924 C926 1.381 . S
C924 C930 1.383 . S
C925 C921 1.495 . S
C925 H931 0.959 . S
C925 H932 0.961 . S
C925 H933 0.960 . S
C926 C924 1.381 . S
C926 C927 1.394 . S
C926 H934 0.930 . S
C927 C926 1.394 . S
C927 C928 1.383 . S
C927 H935 0.929 . S
C928 C927 1.383 . S
C928 C929 1.377 . S
C929 H913 0.930 . S
C929 C928 1.377 . S
C929 C930 1.379 . S
C930 H914 0.931 . S
C930 C924 1.383 . S
C930 C929 1.379 . S
H931 C925 0.959 . S
H932 C925 0.961 . S
H933 C925 0.960 . S
H934 C926 0.930 . S
H935 C927 0.929 . S
H936 C944 0.929 . S
H937 C946 0.930 . S
H938 C948 0.930 . S
H939 C951 0.929 . S
H940 C954 0.930 . S
H941 C956 0.960 . S
H942 C956 0.960 . S
H943 C956 0.960 . S
C944 H936 0.929 . S
C944 C945 1.377 . S
C944 C946 1.384 . S
C945 C944 1.377 . S
C945 C951 1.390 . S
C946 H937 0.930 . S
C946 C944 1.384 . S
C946 C947 1.372 . S
C947 C946 1.372 . S
C947 C948 1.400 . S
C947 C952 1.490 . S
C948 H938 0.930 . S
C948 C947 1.400 . S
C948 C951 1.386 . S
H949 C965 0.930 . S
H950 C966 0.931 . S
C951 H939 0.929 . S
C951 C945 1.390 . S
C951 C948 1.386 . S
C952 C947 1.490 . S
C952 C954 1.395 . S
C952 C955 1.403 . S
H953 C959 0.930 . S
C954 H940 0.930 . S
C954 C952 1.395 . S
C954 C957 1.403 . S
C955 C952 1.403 . S
C955 C956 1.524 . S
C955 C959 1.400 . S
C956 H941 0.960 . S
C956 H942 0.960 . S
C956 H943 0.960 . S
C956 C955 1.524 . S
C957 C954 1.403 . S
C957 C958 1.392 . S
C957 C961 1.495 . S
C958 C957 1.392 . S
C958 C959 1.385 . S
C958 C960 1.478 . S
C959 H953 0.930 . S
C959 C955 1.400 . S
C959 C958 1.385 . S
C960 C958 1.478 . S
C960 C962 1.381 . S
C960 C966 1.383 . S
C961 C957 1.495 . S
C961 H967 0.959 . S
C961 H968 0.961 . S
C961 H969 0.960 . S
C962 C960 1.381 . S
C962 C963 1.394 . S
C962 H970 0.930 . S
C963 C962 1.394 . S
C963 C964 1.383 . S
C963 H971 0.929 . S
C964 C963 1.383 . S
C964 C965 1.377 . S
C965 H949 0.930 . S
C965 C964 1.377 . S
C965 C966 1.379 . S
C966 H950 0.931 . S
C966 C960 1.383 . S
C966 C965 1.379 . S
H967 C961 0.959 . S
H968 C961 0.961 . S
H969 C961 0.960 . S
H970 C962 0.930 . S
H971 C963 0.929 . S
H972 C980 0.929 . S
H973 C982 0.930 . S
H974 C984 0.930 . S
H975 C987 0.929 . S
H976 C990 0.930 . S
H977 C992 0.960 . S
H978 C992 0.960 . S
H979 C992 0.960 . S
C980 H972 0.929 . S
C980 C981 1.377 . S
C980 C982 1.384 . S
C981 C980 1.377 . S
C981 C987 1.390 . S
C982 H973 0.930 . S
C982 C980 1.384 . S
C982 C983 1.372 . S
C983 C982 1.372 . S
C983 C984 1.400 . S
C983 C988 1.490 . S
C984 H974 0.930 . S
C984 C983 1.400 . S
C984 C987 1.386 . S
H985 C1001 0.930 . S
H986 C1002 0.931 . S
C987 H975 0.929 . S
C987 C981 1.390 . S
C987 C984 1.386 . S
C988 C983 1.490 . S
C988 C990 1.395 . S
C988 C991 1.403 . S
H989 C995 0.930 . S
C990 H976 0.930 . S
C990 C988 1.395 . S
C990 C993 1.403 . S
C991 C988 1.403 . S
C991 C992 1.524 . S
C991 C995 1.400 . S
C992 H977 0.960 . S
C992 H978 0.960 . S
C992 H979 0.960 . S
C992 C991 1.524 . S
C993 C990 1.403 . S
C993 C994 1.392 . S
C993 C997 1.495 . S
C994 C993 1.392 . S
C994 C995 1.385 . S
C994 C996 1.478 . S
C995 H989 0.930 . S
C995 C991 1.400 . S
C995 C994 1.385 . S
C996 C994 1.478 . S
C996 C998 1.381 . S
C996 C1002 1.383 . S
C997 C993 1.495 . S
C997 H1003 0.959 . S
C997 H1004 0.961 . S
C997 H1005 0.960 . S
C998 C996 1.381 . S
C998 C999 1.394 . S
C998 H1006 0.930 . S
C999 C998 1.394 . S
C999 C1000 1.383 . S
C999 H1007 0.929 . S
C1000 C999 1.383 . S
C1000 C1001 1.377 . S
C1001 H985 0.930 . S
C1001 C1000 1.377 . S
C1001 C1002 1.379 . S
C1002 H986 0.931 . S
C1002 C996 1.383 . S
C1002 C1001 1.379 . S
H1003 C997 0.959 . S
H1004 C997 0.961 . S
H1005 C997 0.960 . S
H1006 C998 0.930 . S
H1007 C999 0.929 . S
H1008 C1016 0.929 . S
H1009 C1018 0.930 . S
H1010 C1020 0.930 . S
H1011 C1023 0.929 . S
H1012 C1026 0.941 . S
H1013 C1028 0.959 1_655 S
H1014 C1028 0.960 . S
H1015 C1028 0.960 . S
C1016 H1008 0.929 . S
C1016 C1017 1.377 . S
C1016 C1018 1.384 . S
C1017 C1016 1.377 . S
C1017 C1023 1.390 . S
C1018 H1009 0.930 . S
C1018 C1016 1.384 . S
C1018 C1019 1.372 . S
C1019 C1018 1.372 . S
C1019 C1020 1.400 . S
C1019 C1024 1.490 . S
C1020 H1010 0.930 . S
C1020 C1019 1.400 . S
C1020 C1023 1.386 . S
H1021 C1037 0.930 . S
H1022 C1038 0.931 . S
C1023 H1011 0.929 . S
C1023 C1017 1.390 . S
C1023 C1020 1.386 . S
C1024 C1019 1.490 . S
C1024 C1026 1.405 . S
C1024 C1027 1.405 1_455 S
H1025 C1031 0.930 . S
C1026 H1012 0.941 . S
C1026 C1024 1.405 . S
C1026 C1029 1.383 1_455 S
C1027 C1024 1.405 1_655 S
C1027 C1028 1.526 1_655 S
C1027 C1031 1.396 . S
C1028 H1013 0.959 1_455 S
C1028 H1014 0.960 . S
C1028 H1015 0.960 . S
C1028 C1027 1.526 1_455 S
C1029 C1026 1.383 1_655 S
C1029 C1030 1.392 . S
C1029 C1033 1.495 . S
C1030 C1029 1.392 . S
C1030 C1031 1.385 . S
C1030 C1032 1.478 . S
C1031 H1025 0.930 . S
C1031 C1027 1.396 . S
C1031 C1030 1.385 . S
C1032 C1030 1.478 . S
C1032 C1034 1.381 . S
C1032 C1038 1.383 . S
C1033 C1029 1.495 . S
C1033 H1039 0.959 . S
C1033 H1040 0.961 . S
C1033 H1041 0.960 . S
C1034 C1032 1.381 . S
C1034 C1035 1.394 . S
C1034 H1042 0.930 . S
C1035 C1034 1.394 . S
C1035 C1036 1.383 . S
C1035 H1043 0.929 . S
C1036 C1035 1.383 . S
C1036 C1037 1.377 . S
C1037 H1021 0.930 . S
C1037 C1036 1.377 . S
C1037 C1038 1.379 . S
C1038 H1022 0.931 . S
C1038 C1032 1.383 . S
C1038 C1037 1.379 . S
H1039 C1033 0.959 . S
H1040 C1033 0.961 . S
H1041 C1033 0.960 . S
H1042 C1034 0.930 . S
H1043 C1035 0.929 . S
H1044 C1052 0.929 . S
H1045 C1054 0.930 . S
H1046 C1056 0.930 . S
H1047 C1059 0.929 . S
H1048 C1062 0.930 . S
H1049 C1064 0.960 . S
H1050 C1064 0.960 . S
H1051 C1064 0.960 . S
C1052 H1044 0.929 . S
C1052 C1053 1.377 . S
C1052 C1054 1.384 . S
C1053 C1052 1.377 . S
C1053 C1059 1.390 . S
C1054 H1045 0.930 . S
C1054 C1052 1.384 . S
C1054 C1055 1.372 . S
C1055 C1054 1.372 . S
C1055 C1056 1.400 . S
C1055 C1060 1.490 . S
C1056 H1046 0.930 . S
C1056 C1055 1.400 . S
C1056 C1059 1.386 . S
H1057 C1073 0.930 . S
H1058 C1074 0.931 . S
C1059 H1047 0.929 . S
C1059 C1053 1.390 . S
C1059 C1056 1.386 . S
C1060 C1055 1.490 . S
C1060 C1062 1.395 . S
C1060 C1063 1.403 . S
H1061 C1067 0.930 . S
C1062 H1048 0.930 . S
C1062 C1060 1.395 . S
C1062 C1065 1.403 . S
C1063 C1060 1.403 . S
C1063 C1064 1.524 . S
C1063 C1067 1.400 . S
C1064 H1049 0.960 . S
C1064 H1050 0.960 . S
C1064 H1051 0.960 . S
C1064 C1063 1.524 . S
C1065 C1062 1.403 . S
C1065 C1066 1.392 . S
C1065 C1069 1.495 . S
C1066 C1065 1.392 . S
C1066 C1067 1.385 . S
C1066 C1068 1.478 . S
C1067 H1061 0.930 . S
C1067 C1063 1.400 . S
C1067 C1066 1.385 . S
C1068 C1066 1.478 . S
C1068 C1070 1.381 . S
C1068 C1074 1.383 . S
C1069 C1065 1.495 . S
C1069 H1075 0.959 . S
C1069 H1076 0.961 . S
C1069 H1077 0.960 . S
C1070 C1068 1.381 . S
C1070 C1071 1.394 . S
C1070 H1078 0.930 . S
C1071 C1070 1.394 . S
C1071 C1072 1.383 . S
C1071 H1079 0.929 . S
C1072 C1071 1.383 . S
C1072 C1073 1.377 . S
C1073 H1057 0.930 . S
C1073 C1072 1.377 . S
C1073 C1074 1.379 . S
C1074 H1058 0.931 . S
C1074 C1068 1.383 . S
C1074 C1073 1.379 . S
H1075 C1069 0.959 . S
H1076 C1069 0.961 . S
H1077 C1069 0.960 . S
H1078 C1070 0.930 . S
H1079 C1071 0.929 . S
H1080 C1088 0.929 . S
H1081 C1090 0.930 . S
H1082 C1092 0.930 . S
H1083 C1095 0.929 . S
H1084 C1098 0.930 . S
H1085 C1100 0.960 . S
H1086 C1100 0.960 . S
H1087 C1100 0.960 . S
C1088 H1080 0.929 . S
C1088 C1089 1.377 . S
C1088 C1090 1.384 . S
C1089 C1088 1.377 . S
C1089 C1095 1.390 . S
C1090 H1081 0.930 . S
C1090 C1088 1.384 . S
C1090 C1091 1.372 . S
C1091 C1090 1.372 . S
C1091 C1092 1.400 . S
C1091 C1096 1.490 . S
C1092 H1082 0.930 . S
C1092 C1091 1.400 . S
C1092 C1095 1.386 . S
H1093 C1109 0.930 . S
H1094 C1110 0.931 . S
C1095 H1083 0.929 . S
C1095 C1089 1.390 . S
C1095 C1092 1.386 . S
C1096 C1091 1.490 . S
C1096 C1098 1.395 . S
C1096 C1099 1.403 . S
H1097 C1103 0.930 . S
C1098 H1084 0.930 . S
C1098 C1096 1.395 . S
C1098 C1101 1.403 . S
C1099 C1096 1.403 . S
C1099 C1100 1.524 . S
C1099 C1103 1.400 . S
C1100 H1085 0.960 . S
C1100 H1086 0.960 . S
C1100 H1087 0.960 . S
C1100 C1099 1.524 . S
C1101 C1098 1.403 . S
C1101 C1102 1.392 . S
C1101 C1105 1.495 . S
C1102 C1101 1.392 . S
C1102 C1103 1.385 . S
C1102 C1104 1.478 . S
C1103 H1097 0.930 . S
C1103 C1099 1.400 . S
C1103 C1102 1.385 . S
C1104 C1102 1.478 . S
C1104 C1106 1.381 . S
C1104 C1110 1.383 . S
C1105 C1101 1.495 . S
C1105 H1111 0.959 . S
C1105 H1112 0.961 . S
C1105 H1113 0.960 . S
C1106 C1104 1.381 . S
C1106 C1107 1.394 . S
C1106 H1114 0.930 . S
C1107 C1106 1.394 . S
C1107 C1108 1.383 . S
C1107 H1115 0.929 . S
C1108 C1107 1.383 . S
C1108 C1109 1.377 . S
C1109 H1093 0.930 . S
C1109 C1108 1.377 . S
C1109 C1110 1.379 . S
C1110 H1094 0.931 . S
C1110 C1104 1.383 . S
C1110 C1109 1.379 . S
H1111 C1105 0.959 . S
H1112 C1105 0.961 . S
H1113 C1105 0.960 . S
H1114 C1106 0.930 . S
H1115 C1107 0.929 . S
H1116 C1124 0.929 . S
H1117 C1126 0.930 . S
H1118 C1128 0.930 . S
H1119 C1131 0.929 . S
H1120 C1134 0.930 . S
H1121 C1136 0.960 . S
H1122 C1136 0.960 . S
H1123 C1136 0.960 . S
C1124 H1116 0.929 . S
C1124 C1125 1.377 . S
C1124 C1126 1.384 . S
C1125 C1124 1.377 . S
C1125 C1131 1.390 . S
C1126 H1117 0.930 . S
C1126 C1124 1.384 . S
C1126 C1127 1.372 . S
C1127 C1126 1.372 . S
C1127 C1128 1.400 . S
C1127 C1132 1.490 . S
C1128 H1118 0.930 . S
C1128 C1127 1.400 . S
C1128 C1131 1.386 . S
H1129 C1145 0.930 . S
H1130 C1146 0.931 . S
C1131 H1119 0.929 . S
C1131 C1125 1.390 . S
C1131 C1128 1.386 . S
C1132 C1127 1.490 . S
C1132 C1134 1.395 . S
C1132 C1135 1.403 . S
H1133 C1139 0.930 . S
C1134 H1120 0.930 . S
C1134 C1132 1.395 . S
C1134 C1137 1.432 . S
C1135 C1132 1.403 . S
C1135 C1136 1.524 . S
C1135 C1139 1.400 1_455 S
C1136 H1121 0.960 . S
C1136 H1122 0.960 . S
C1136 H1123 0.960 . S
C1136 C1135 1.524 . S
C1137 C1134 1.432 . S
C1137 C1138 1.375 1_455 S
C1137 C1141 1.484 1_455 S
C1138 C1137 1.375 1_655 S
C1138 C1139 1.385 . S
C1138 C1140 1.478 . S
C1139 H1133 0.930 . S
C1139 C1135 1.400 1_655 S
C1139 C1138 1.385 . S
C1140 C1138 1.478 . S
C1140 C1142 1.381 . S
C1140 C1146 1.383 . S
C1141 C1137 1.484 1_655 S
C1141 H1147 0.959 1_655 S
C1141 H1148 0.961 . S
C1141 H1149 0.960 . S
C1142 C1140 1.381 . S
C1142 C1143 1.394 . S
C1142 H1150 0.930 . S
C1143 C1142 1.394 . S
C1143 C1144 1.383 . S
C1143 H1151 0.929 . S
C1144 C1143 1.383 . S
C1144 C1145 1.377 . S
C1145 H1129 0.930 . S
C1145 C1144 1.377 . S
C1145 C1146 1.379 . S
C1146 H1130 0.931 . S
C1146 C1140 1.383 . S
C1146 C1145 1.379 . S
H1147 C1141 0.959 1_455 S
H1148 C1141 0.961 . S
H1149 C1141 0.960 . S
H1150 C1142 0.930 . S
H1151 C1143 0.929 . S
H1152 C1160 0.929 . S
H1153 C1162 0.930 . S
H1154 C1164 0.930 . S
H1155 C1167 0.929 . S
H1156 C1170 0.930 . S
H1157 C1172 0.960 . S
H1158 C1172 0.960 . S
H1159 C1172 0.960 . S
C1160 H1152 0.929 . S
C1160 C1161 1.377 . S
C1160 C1162 1.384 . S
C1161 C1160 1.377 . S
C1161 C1167 1.390 . S
C1162 H1153 0.930 . S
C1162 C1160 1.384 . S
C1162 C1163 1.372 . S
C1163 C1162 1.372 . S
C1163 C1164 1.400 . S
C1163 C1168 1.490 . S
C1164 H1154 0.930 . S
C1164 C1163 1.400 . S
C1164 C1167 1.386 . S
H1165 C1181 0.930 . S
H1166 C1182 0.931 . S
C1167 H1155 0.929 . S
C1167 C1161 1.390 . S
C1167 C1164 1.386 . S
C1168 C1163 1.490 . S
C1168 C1170 1.395 . S
C1168 C1171 1.403 1_554 S
H1169 C1175 0.930 . S
C1170 H1156 0.930 . S
C1170 C1168 1.395 . S
C1170 C1173 1.403 . S
C1171 C1168 1.403 1_556 S
C1171 C1172 1.524 . S
C1171 C1175 1.400 . S
C1172 H1157 0.960 . S
C1172 H1158 0.960 . S
C1172 H1159 0.960 . S
C1172 C1171 1.524 . S
C1173 C1170 1.403 . S
C1173 C1174 1.392 1_554 S
C1173 C1177 1.495 . S
C1174 C1173 1.392 1_556 S
C1174 C1175 1.385 . S
C1174 C1176 1.478 . S
C1175 H1169 0.930 . S
C1175 C1171 1.400 . S
C1175 C1174 1.385 . S
C1176 C1174 1.478 . S
C1176 C1178 1.381 . S
C1176 C1182 1.383 . S
C1177 C1173 1.495 . S
C1177 H1183 0.959 . S
C1177 H1184 0.961 . S
C1177 H1185 0.960 . S
C1178 C1176 1.381 . S
C1178 C1179 1.394 . S
C1178 H1186 0.930 . S
C1179 C1178 1.394 . S
C1179 C1180 1.383 . S
C1179 H1187 0.929 . S
C1180 C1179 1.383 . S
C1180 C1181 1.377 . S
C1181 H1165 0.930 . S
C1181 C1180 1.377 . S
C1181 C1182 1.379 . S
C1182 H1166 0.931 . S
C1182 C1176 1.383 . S
C1182 C1181 1.379 . S
H1183 C1177 0.959 . S
H1184 C1177 0.961 . S
H1185 C1177 0.960 . S
H1186 C1178 0.930 . S
H1187 C1179 0.929 . S
H1188 C1196 0.929 . S
H1189 C1198 0.930 . S
H1190 C1200 0.930 . S
H1191 C1203 0.929 . S
H1192 C1206 0.930 . S
H1193 C1208 0.960 . S
H1194 C1208 0.960 . S
H1195 C1208 0.960 . S
C1196 H1188 0.929 . S
C1196 C1197 1.377 . S
C1196 C1198 1.384 . S
C1197 C1196 1.377 . S
C1197 C1203 1.390 . S
C1198 H1189 0.930 . S
C1198 C1196 1.384 . S
C1198 C1199 1.372 . S
C1199 C1198 1.372 . S
C1199 C1200 1.400 . S
C1199 C1204 1.490 . S
C1200 H1190 0.930 . S
C1200 C1199 1.400 . S
C1200 C1203 1.386 . S
H1201 C1217 0.930 . S
H1202 C1218 0.931 . S
C1203 H1191 0.929 . S
C1203 C1197 1.390 . S
C1203 C1200 1.386 . S
C1204 C1199 1.490 . S
C1204 C1206 1.395 . S
C1204 C1207 1.403 . S
H1205 C1211 0.930 . S
C1206 H1192 0.930 . S
C1206 C1204 1.395 . S
C1206 C1209 1.403 . S
C1207 C1204 1.403 . S
C1207 C1208 1.524 . S
C1207 C1211 1.400 . S
C1208 H1193 0.960 . S
C1208 H1194 0.960 . S
C1208 H1195 0.960 . S
C1208 C1207 1.524 . S
C1209 C1206 1.403 . S
C1209 C1210 1.392 . S
C1209 C1213 1.495 . S
C1210 C1209 1.392 . S
C1210 C1211 1.385 . S
C1210 C1212 1.478 . S
C1211 H1205 0.930 . S
C1211 C1207 1.400 . S
C1211 C1210 1.385 . S
C1212 C1210 1.478 . S
C1212 C1214 1.381 . S
C1212 C1218 1.383 . S
C1213 C1209 1.495 . S
C1213 H1219 0.959 . S
C1213 H1220 0.961 . S
C1213 H1221 0.960 . S
C1214 C1212 1.381 . S
C1214 C1215 1.394 . S
C1214 H1222 0.930 . S
C1215 C1214 1.394 . S
C1215 C1216 1.383 . S
C1215 H1223 0.929 . S
C1216 C1215 1.383 . S
C1216 C1217 1.377 . S
C1217 H1201 0.930 . S
C1217 C1216 1.377 . S
C1217 C1218 1.379 . S
C1218 H1202 0.931 . S
C1218 C1212 1.383 . S
C1218 C1217 1.379 . S
H1219 C1213 0.959 . S
H1220 C1213 0.961 . S
H1221 C1213 0.960 . S
H1222 C1214 0.930 . S
H1223 C1215 0.929 . S
H1224 C1232 0.929 . S
H1225 C1234 0.930 . S
H1226 C1236 0.930 . S
H1227 C1239 0.929 . S
H1228 C1242 0.930 . S
H1229 C1244 0.960 . S
H1230 C1244 0.960 . S
H1231 C1244 0.960 . S
C1232 H1224 0.929 . S
C1232 C1233 1.377 . S
C1232 C1234 1.384 . S
C1233 C1232 1.377 . S
C1233 C1239 1.390 . S
C1234 H1225 0.930 . S
C1234 C1232 1.384 . S
C1234 C1235 1.372 . S
C1235 C1234 1.372 . S
C1235 C1236 1.400 . S
C1235 C1240 1.490 . S
C1236 H1226 0.930 . S
C1236 C1235 1.400 . S
C1236 C1239 1.386 . S
H1237 C1253 0.930 . S
H1238 C1254 0.931 . S
C1239 H1227 0.929 . S
C1239 C1233 1.390 . S
C1239 C1236 1.386 . S
C1240 C1235 1.490 . S
C1240 C1242 1.395 . S
C1240 C1243 1.403 . S
H1241 C1247 0.930 . S
C1242 H1228 0.930 . S
C1242 C1240 1.395 . S
C1242 C1245 1.403 . S
C1243 C1240 1.403 . S
C1243 C1244 1.524 . S
C1243 C1247 1.400 . S
C1244 H1229 0.960 . S
C1244 H1230 0.960 . S
C1244 H1231 0.960 . S
C1244 C1243 1.524 . S
C1245 C1242 1.403 . S
C1245 C1246 1.392 . S
C1245 C1249 1.495 . S
C1246 C1245 1.392 . S
C1246 C1247 1.385 . S
C1246 C1248 1.478 . S
C1247 H1241 0.930 . S
C1247 C1243 1.400 . S
C1247 C1246 1.385 . S
C1248 C1246 1.478 . S
C1248 C1250 1.381 . S
C1248 C1254 1.383 . S
C1249 C1245 1.495 . S
C1249 H1255 0.959 . S
C1249 H1256 0.961 . S
C1249 H1257 0.960 . S
C1250 C1248 1.381 . S
C1250 C1251 1.394 . S
C1250 H1258 0.930 . S
C1251 C1250 1.394 . S
C1251 C1252 1.383 . S
C1251 H1259 0.929 . S
C1252 C1251 1.383 . S
C1252 C1253 1.377 . S
C1253 H1237 0.930 . S
C1253 C1252 1.377 . S
C1253 C1254 1.379 . S
C1254 H1238 0.931 . S
C1254 C1248 1.383 . S
C1254 C1253 1.379 . S
H1255 C1249 0.959 . S
H1256 C1249 0.961 . S
H1257 C1249 0.960 . S
H1258 C1250 0.930 . S
H1259 C1251 0.929 . S
H1260 C1268 0.929 . S
H1261 C1270 0.930 . S
H1262 C1272 0.930 . S
H1263 C1275 0.929 . S
H1264 C1278 0.930 . S
H1265 C1280 0.960 . S
H1266 C1280 0.960 . S
H1267 C1280 0.960 . S
C1268 H1260 0.929 . S
C1268 C1269 1.377 . S
C1268 C1270 1.384 . S
C1269 C1268 1.377 . S
C1269 C1275 1.390 . S
C1270 H1261 0.930 . S
C1270 C1268 1.384 . S
C1270 C1271 1.372 . S
C1271 C1270 1.372 . S
C1271 C1272 1.400 . S
C1271 C1276 1.490 . S
C1272 H1262 0.930 . S
C1272 C1271 1.400 . S
C1272 C1275 1.386 . S
H1273 C1289 0.930 . S
H1274 C1290 0.931 . S
C1275 H1263 0.929 . S
C1275 C1269 1.390 . S
C1275 C1272 1.386 . S
C1276 C1271 1.490 . S
C1276 C1278 1.395 . S
C1276 C1279 1.403 . S
H1277 C1283 0.930 . S
C1278 H1264 0.930 . S
C1278 C1276 1.395 . S
C1278 C1281 1.403 . S
C1279 C1276 1.403 . S
C1279 C1280 1.524 . S
C1279 C1283 1.400 . S
C1280 H1265 0.960 . S
C1280 H1266 0.960 . S
C1280 H1267 0.960 . S
C1280 C1279 1.524 . S
C1281 C1278 1.403 . S
C1281 C1282 1.392 . S
C1281 C1285 1.495 . S
C1282 C1281 1.392 . S
C1282 C1283 1.385 . S
C1282 C1284 1.478 . S
C1283 H1277 0.930 . S
C1283 C1279 1.400 . S
C1283 C1282 1.385 . S
C1284 C1282 1.478 . S
C1284 C1286 1.381 . S
C1284 C1290 1.383 . S
C1285 C1281 1.495 . S
C1285 H1291 0.959 . S
C1285 H1292 0.961 . S
C1285 H1293 0.960 . S
C1286 C1284 1.381 . S
C1286 C1287 1.394 . S
C1286 H1294 0.930 . S
C1287 C1286 1.394 . S
C1287 C1288 1.383 . S
C1287 H1295 0.929 . S
C1288 C1287 1.383 . S
C1288 C1289 1.377 . S
C1289 H1273 0.930 . S
C1289 C1288 1.377 . S
C1289 C1290 1.379 . S
C1290 H1274 0.931 . S
C1290 C1284 1.383 . S
C1290 C1289 1.379 . S
H1291 C1285 0.959 . S
H1292 C1285 0.961 . S
H1293 C1285 0.960 . S
H1294 C1286 0.930 . S
H1295 C1287 0.929 . S
H1296 C1304 0.929 . S
H1297 C1306 0.930 . S
H1298 C1308 0.930 . S
H1299 C1311 0.929 . S
H1300 C1314 0.930 . S
H1301 C1316 0.960 . S
H1302 C1316 0.960 . S
H1303 C1316 0.960 . S
C1304 H1296 0.929 . S
C1304 C1305 1.377 . S
C1304 C1306 1.384 . S
C1305 C1304 1.377 . S
C1305 C1311 1.390 . S
C1306 H1297 0.930 . S
C1306 C1304 1.384 . S
C1306 C1307 1.372 . S
C1307 C1306 1.372 . S
C1307 C1308 1.400 . S
C1307 C1312 1.490 . S
C1308 H1298 0.930 . S
C1308 C1307 1.400 . S
C1308 C1311 1.386 . S
H1309 C1325 0.930 . S
H1310 C1326 0.931 . S
C1311 H1299 0.929 . S
C1311 C1305 1.390 . S
C1311 C1308 1.386 . S
C1312 C1307 1.490 . S
C1312 C1314 1.395 1_556 S
C1312 C1315 1.403 . S
H1313 C1319 0.930 . S
C1314 H1300 0.930 . S
C1314 C1312 1.395 1_554 S
C1314 C1317 1.403 . S
C1315 C1312 1.403 . S
C1315 C1316 1.524 . S
C1315 C1319 1.400 1_556 S
C1316 H1301 0.960 . S
C1316 H1302 0.960 . S
C1316 H1303 0.960 . S
C1316 C1315 1.524 . S
C1317 C1314 1.403 . S
C1317 C1318 1.392 . S
C1317 C1321 1.495 . S
C1318 C1317 1.392 . S
C1318 C1319 1.385 . S
C1318 C1320 1.478 . S
C1319 H1313 0.930 . S
C1319 C1315 1.400 1_554 S
C1319 C1318 1.385 . S
C1320 C1318 1.478 . S
C1320 C1322 1.381 . S
C1320 C1326 1.383 . S
C1321 C1317 1.495 . S
C1321 H1327 0.959 . S
C1321 H1328 0.961 . S
C1321 H1329 0.960 . S
C1322 C1320 1.381 . S
C1322 C1323 1.394 . S
C1322 H1330 0.930 . S
C1323 C1322 1.394 . S
C1323 C1324 1.383 . S
C1323 H1331 0.929 . S
C1324 C1323 1.383 . S
C1324 C1325 1.377 . S
C1325 H1309 0.930 . S
C1325 C1324 1.377 . S
C1325 C1326 1.379 . S
C1326 H1310 0.931 . S
C1326 C1320 1.383 . S
C1326 C1325 1.379 . S
H1327 C1321 0.959 . S
H1328 C1321 0.961 . S
H1329 C1321 0.960 . S
H1330 C1322 0.930 . S
H1331 C1323 0.929 . S
H1332 C1340 0.929 . S
H1333 C1342 0.930 . S
H1334 C1344 0.930 . S
H1335 C1347 0.929 . S
H1336 C1350 0.930 . S
H1337 C1352 0.960 . S
H1338 C1352 0.960 . S
H1339 C1352 0.960 . S
C1340 H1332 0.929 . S
C1340 C1341 1.377 . S
C1340 C1342 1.384 . S
C1341 C1340 1.377 . S
C1341 C1347 1.390 . S
C1342 H1333 0.930 . S
C1342 C1340 1.384 . S
C1342 C1343 1.372 . S
C1343 C1342 1.372 . S
C1343 C1344 1.400 . S
C1343 C1348 1.490 . S
C1344 H1334 0.930 . S
C1344 C1343 1.400 . S
C1344 C1347 1.386 . S
H1345 C1361 0.930 . S
H1346 C1362 0.931 . S
C1347 H1335 0.929 . S
C1347 C1341 1.390 . S
C1347 C1344 1.386 . S
C1348 C1343 1.490 . S
C1348 C1350 1.395 . S
C1348 C1351 1.403 . S
H1349 C1355 0.930 . S
C1350 H1336 0.930 . S
C1350 C1348 1.395 . S
C1350 C1353 1.403 . S
C1351 C1348 1.403 . S
C1351 C1352 1.524 . S
C1351 C1355 1.400 . S
C1352 H1337 0.960 . S
C1352 H1338 0.960 . S
C1352 H1339 0.960 . S
C1352 C1351 1.524 . S
C1353 C1350 1.403 . S
C1353 C1354 1.392 . S
C1353 C1357 1.495 . S
C1354 C1353 1.392 . S
C1354 C1355 1.385 . S
C1354 C1356 1.478 . S
C1355 H1349 0.930 . S
C1355 C1351 1.400 . S
C1355 C1354 1.385 . S
C1356 C1354 1.478 . S
C1356 C1358 1.381 . S
C1356 C1362 1.383 . S
C1357 C1353 1.495 . S
C1357 H1363 0.959 . S
C1357 H1364 0.961 . S
C1357 H1365 0.960 . S
C1358 C1356 1.381 . S
C1358 C1359 1.394 . S
C1358 H1366 0.930 . S
C1359 C1358 1.394 . S
C1359 C1360 1.383 . S
C1359 H1367 0.929 . S
C1360 C1359 1.383 . S
C1360 C1361 1.377 . S
C1361 H1345 0.930 . S
C1361 C1360 1.377 . S
C1361 C1362 1.379 . S
C1362 H1346 0.931 . S
C1362 C1356 1.383 . S
C1362 C1361 1.379 . S
H1363 C1357 0.959 . S
H1364 C1357 0.961 . S
H1365 C1357 0.960 . S
H1366 C1358 0.930 . S
H1367 C1359 0.929 . S
H1368 C1376 0.929 . S
H1369 C1378 0.930 . S
H1370 C1380 0.930 . S
H1371 C1383 0.929 . S
H1372 C1386 0.930 . S
H1373 C1388 0.960 . S
H1374 C1388 0.960 . S
H1375 C1388 0.960 . S
C1376 H1368 0.929 . S
C1376 C1377 1.377 . S
C1376 C1378 1.384 . S
C1377 C1376 1.377 . S
C1377 C1383 1.390 . S
C1378 H1369 0.930 . S
C1378 C1376 1.384 . S
C1378 C1379 1.372 . S
C1379 C1378 1.372 . S
C1379 C1380 1.400 . S
C1379 C1384 1.490 . S
C1380 H1370 0.930 . S
C1380 C1379 1.400 . S
C1380 C1383 1.386 . S
H1381 C1397 0.930 . S
H1382 C1398 0.931 . S
C1383 H1371 0.929 . S
C1383 C1377 1.390 . S
C1383 C1380 1.386 . S
C1384 C1379 1.490 . S
C1384 C1386 1.395 . S
C1384 C1387 1.403 . S
H1385 C1391 0.930 . S
C1386 H1372 0.930 . S
C1386 C1384 1.395 . S
C1386 C1389 1.403 . S
C1387 C1384 1.403 . S
C1387 C1388 1.524 . S
C1387 C1391 1.400 . S
C1388 H1373 0.960 . S
C1388 H1374 0.960 . S
C1388 H1375 0.960 . S
C1388 C1387 1.524 . S
C1389 C1386 1.403 . S
C1389 C1390 1.392 . S
C1389 C1393 1.495 . S
C1390 C1389 1.392 . S
C1390 C1391 1.385 . S
C1390 C1392 1.478 . S
C1391 H1385 0.930 . S
C1391 C1387 1.400 . S
C1391 C1390 1.385 . S
C1392 C1390 1.478 . S
C1392 C1394 1.381 . S
C1392 C1398 1.383 . S
C1393 C1389 1.495 . S
C1393 H1399 0.959 . S
C1393 H1400 0.961 . S
C1393 H1401 0.960 . S
C1394 C1392 1.381 . S
C1394 C1395 1.394 . S
C1394 H1402 0.930 . S
C1395 C1394 1.394 . S
C1395 C1396 1.383 . S
C1395 H1403 0.929 . S
C1396 C1395 1.383 . S
C1396 C1397 1.377 . S
C1397 H1381 0.930 . S
C1397 C1396 1.377 . S
C1397 C1398 1.379 . S
C1398 H1382 0.931 . S
C1398 C1392 1.383 . S
C1398 C1397 1.379 . S
H1399 C1393 0.959 . S
H1400 C1393 0.961 . S
H1401 C1393 0.960 . S
H1402 C1394 0.930 . S
H1403 C1395 0.929 . S
H1404 C1412 0.929 . S
H1405 C1414 0.930 . S
H1406 C1416 0.930 . S
H1407 C1419 0.929 . S
H1408 C1422 0.930 . S
H1409 C1424 0.960 . S
H1410 C1424 0.960 . S
H1411 C1424 0.960 . S
C1412 H1404 0.929 . S
C1412 C1413 1.377 . S
C1412 C1414 1.384 . S
C1413 C1412 1.377 . S
C1413 C1419 1.390 . S
C1414 H1405 0.930 . S
C1414 C1412 1.384 . S
C1414 C1415 1.372 . S
C1415 C1414 1.372 . S
C1415 C1416 1.400 . S
C1415 C1420 1.490 . S
C1416 H1406 0.930 . S
C1416 C1415 1.400 . S
C1416 C1419 1.386 . S
H1417 C1433 0.930 . S
H1418 C1434 0.931 . S
C1419 H1407 0.929 . S
C1419 C1413 1.390 . S
C1419 C1416 1.386 . S
C1420 C1415 1.490 . S
C1420 C1422 1.395 . S
C1420 C1423 1.403 . S
H1421 C1427 0.930 . S
C1422 H1408 0.930 . S
C1422 C1420 1.395 . S
C1422 C1425 1.403 . S
C1423 C1420 1.403 . S
C1423 C1424 1.524 . S
C1423 C1427 1.400 . S
C1424 H1409 0.960 . S
C1424 H1410 0.960 . S
C1424 H1411 0.960 . S
C1424 C1423 1.524 . S
C1425 C1422 1.403 . S
C1425 C1426 1.392 . S
C1425 C1429 1.495 . S
C1426 C1425 1.392 . S
C1426 C1427 1.385 . S
C1426 C1428 1.478 . S
C1427 H1421 0.930 . S
C1427 C1423 1.400 . S
C1427 C1426 1.385 . S
C1428 C1426 1.478 . S
C1428 C1430 1.381 . S
C1428 C1434 1.383 . S
C1429 C1425 1.495 . S
C1429 H1435 0.959 . S
C1429 H1436 0.961 . S
C1429 H1437 0.960 . S
C1430 C1428 1.381 . S
C1430 C1431 1.394 . S
C1430 H1438 0.930 . S
C1431 C1430 1.394 . S
C1431 C1432 1.383 . S
C1431 H1439 0.929 . S
C1432 C1431 1.383 . S
C1432 C1433 1.377 . S
C1433 H1417 0.930 . S
C1433 C1432 1.377 . S
C1433 C1434 1.379 . S
C1434 H1418 0.931 . S
C1434 C1428 1.383 . S
C1434 C1433 1.379 . S
H1435 C1429 0.959 . S
H1436 C1429 0.961 . S
H1437 C1429 0.960 . S
H1438 C1430 0.930 . S
H1439 C1431 0.929 . S
H1440 C1448 0.929 . S
H1441 C1450 0.930 . S
H1442 C1452 0.930 . S
H1443 C1455 0.929 . S
H1444 C1458 0.930 . S
H1445 C1460 0.960 . S
H1446 C1460 0.960 1_545 S
H1447 C1460 0.960 1_545 S
C1448 H1440 0.929 . S
C1448 C1449 1.377 . S
C1448 C1450 1.384 . S
C1449 C1448 1.377 . S
C1449 C1455 1.390 . S
C1450 H1441 0.930 . S
C1450 C1448 1.384 . S
C1450 C1451 1.372 . S
C1451 C1450 1.372 . S
C1451 C1452 1.400 . S
C1451 C1456 1.490 . S
C1452 H1442 0.930 . S
C1452 C1451 1.400 . S
C1452 C1455 1.386 . S
H1453 C1469 0.930 . S
H1454 C1470 0.931 . S
C1455 H1443 0.929 . S
C1455 C1449 1.390 . S
C1455 C1452 1.386 . S
C1456 C1451 1.490 . S
C1456 C1458 1.395 . S
C1456 C1459 1.353 1_545 S
H1457 C1463 0.930 . S
C1458 H1444 0.930 . S
C1458 C1456 1.395 . S
C1458 C1461 1.377 1_545 S
C1459 C1456 1.353 1_565 S
C1459 C1460 1.528 . S
C1459 C1463 1.448 . S
C1460 H1445 0.960 . S
C1460 H1446 0.960 1_565 S
C1460 H1447 0.960 1_565 S
C1460 C1459 1.528 . S
C1461 C1458 1.377 1_565 S
C1461 C1462 1.419 . S
C1461 C1465 1.494 1_565 S
C1462 C1461 1.419 . S
C1462 C1463 1.385 . S
C1462 C1464 1.478 . S
C1463 H1457 0.930 . S
C1463 C1459 1.448 . S
C1463 C1462 1.385 . S
C1464 C1462 1.478 . S
C1464 C1466 1.381 . S
C1464 C1470 1.383 . S
C1465 C1461 1.494 1_545 S
C1465 H1471 0.973 . S
C1465 H1472 0.951 1_545 S
C1465 H1473 0.956 1_545 S
C1466 C1464 1.381 . S
C1466 C1467 1.394 . S
C1466 H1474 0.930 . S
C1467 C1466 1.394 . S
C1467 C1468 1.383 . S
C1467 H1475 0.929 . S
C1468 C1467 1.383 . S
C1468 C1469 1.377 . S
C1469 H1453 0.930 . S
C1469 C1468 1.377 . S
C1469 C1470 1.379 . S
C1470 H1454 0.931 . S
C1470 C1464 1.383 . S
C1470 C1469 1.379 . S
H1471 C1465 0.973 . S
H1472 C1465 0.951 1_565 S
H1473 C1465 0.956 1_565 S
H1474 C1466 0.930 . S
H1475 C1467 0.929 . S
H1476 C1484 0.929 . S
H1477 C1486 0.930 . S
H1478 C1488 0.930 . S
H1479 C1491 0.929 . S
H1480 C1494 0.930 . S
H1481 C1496 0.960 . S
H1482 C1496 0.960 . S
H1483 C1496 0.960 . S
C1484 H1476 0.929 . S
C1484 C1485 1.377 . S
C1484 C1486 1.384 . S
C1485 C1484 1.377 . S
C1485 C1491 1.390 . S
C1486 H1477 0.930 . S
C1486 C1484 1.384 . S
C1486 C1487 1.372 . S
C1487 C1486 1.372 . S
C1487 C1488 1.400 . S
C1487 C1492 1.490 . S
C1488 H1478 0.930 . S
C1488 C1487 1.400 . S
C1488 C1491 1.386 . S
H1489 C1505 0.930 . S
H1490 C1506 0.931 . S
C1491 H1479 0.929 . S
C1491 C1485 1.390 . S
C1491 C1488 1.386 . S
C1492 C1487 1.490 . S
C1492 C1494 1.395 . S
C1492 C1495 1.403 . S
H1493 C1499 0.930 . S
C1494 H1480 0.930 . S
C1494 C1492 1.395 . S
C1494 C1497 1.403 . S
C1495 C1492 1.403 . S
C1495 C1496 1.524 . S
C1495 C1499 1.400 . S
C1496 H1481 0.960 . S
C1496 H1482 0.960 . S
C1496 H1483 0.960 . S
C1496 C1495 1.524 . S
C1497 C1494 1.403 . S
C1497 C1498 1.392 . S
C1497 C1501 1.495 . S
C1498 C1497 1.392 . S
C1498 C1499 1.385 . S
C1498 C1500 1.478 . S
C1499 H1493 0.930 . S
C1499 C1495 1.400 . S
C1499 C1498 1.385 . S
C1500 C1498 1.478 . S
C1500 C1502 1.381 . S
C1500 C1506 1.383 . S
C1501 C1497 1.495 . S
C1501 H1507 0.959 . S
C1501 H1508 0.961 . S
C1501 H1509 0.960 . S
C1502 C1500 1.381 . S
C1502 C1503 1.394 . S
C1502 H1510 0.930 . S
C1503 C1502 1.394 . S
C1503 C1504 1.383 . S
C1503 H1511 0.929 . S
C1504 C1503 1.383 . S
C1504 C1505 1.377 . S
C1505 H1489 0.930 . S
C1505 C1504 1.377 . S
C1505 C1506 1.379 . S
C1506 H1490 0.931 . S
C1506 C1500 1.383 . S
C1506 C1505 1.379 . S
H1507 C1501 0.959 . S
H1508 C1501 0.961 . S
H1509 C1501 0.960 . S
H1510 C1502 0.930 . S
H1511 C1503 0.929 . S
H1512 C1520 0.929 . S
H1513 C1522 0.930 . S
H1514 C1524 0.930 . S
H1515 C1527 0.929 . S
H1516 C1530 0.930 . S
H1517 C1532 0.960 . S
H1518 C1532 0.960 . S
H1519 C1532 0.960 . S
C1520 H1512 0.929 . S
C1520 C1521 1.377 . S
C1520 C1522 1.384 . S
C1521 C1520 1.377 . S
C1521 C1527 1.390 . S
C1522 H1513 0.930 . S
C1522 C1520 1.384 . S
C1522 C1523 1.372 . S
C1523 C1522 1.372 . S
C1523 C1524 1.400 . S
C1523 C1528 1.490 . S
C1524 H1514 0.930 . S
C1524 C1523 1.400 . S
C1524 C1527 1.386 . S
H1525 C1541 0.930 . S
H1526 C1542 0.931 . S
C1527 H1515 0.929 . S
C1527 C1521 1.390 . S
C1527 C1524 1.386 . S
C1528 C1523 1.490 . S
C1528 C1530 1.395 1_545 S
C1528 C1531 1.403 1_556 S
H1529 C1535 0.930 . S
C1530 H1516 0.930 . S
C1530 C1528 1.395 1_565 S
C1530 C1533 1.403 . S
C1531 C1528 1.403 1_554 S
C1531 C1532 1.524 . S
C1531 C1535 1.400 1_545 S
C1532 H1517 0.960 . S
C1532 H1518 0.960 . S
C1532 H1519 0.960 . S
C1532 C1531 1.524 . S
C1533 C1530 1.403 . S
C1533 C1534 1.392 1_556 S
C1533 C1537 1.495 . S
C1534 C1533 1.392 1_554 S
C1534 C1535 1.385 . S
C1534 C1536 1.478 . S
C1535 H1529 0.930 . S
C1535 C1531 1.400 1_565 S
C1535 C1534 1.385 . S
C1536 C1534 1.478 . S
C1536 C1538 1.381 . S
C1536 C1542 1.383 . S
C1537 C1533 1.495 . S
C1537 H1543 0.959 . S
C1537 H1544 0.961 . S
C1537 H1545 0.960 . S
C1538 C1536 1.381 . S
C1538 C1539 1.394 . S
C1538 H1546 0.930 . S
C1539 C1538 1.394 . S
C1539 C1540 1.383 . S
C1539 H1547 0.929 . S
C1540 C1539 1.383 . S
C1540 C1541 1.377 . S
C1541 H1525 0.930 . S
C1541 C1540 1.377 . S
C1541 C1542 1.379 . S
C1542 H1526 0.931 . S
C1542 C1536 1.383 . S
C1542 C1541 1.379 . S
H1543 C1537 0.959 . S
H1544 C1537 0.961 . S
H1545 C1537 0.960 . S
H1546 C1538 0.930 . S
H1547 C1539 0.929 . S
H1548 C1556 0.929 . S
H1549 C1558 0.930 . S
H1550 C1560 0.930 . S
H1551 C1563 0.929 . S
H1552 C1566 0.930 . S
H1553 C1568 0.960 . S
H1554 C1568 0.960 . S
H1555 C1568 0.960 . S
C1556 H1548 0.929 . S
C1556 C1557 1.377 . S
C1556 C1558 1.384 . S
C1557 C1556 1.377 . S
C1557 C1563 1.390 . S
C1558 H1549 0.930 . S
C1558 C1556 1.384 . S
C1558 C1559 1.372 . S
C1559 C1558 1.372 . S
C1559 C1560 1.400 . S
C1559 C1564 1.490 . S
C1560 H1550 0.930 . S
C1560 C1559 1.400 . S
C1560 C1563 1.386 . S
H1561 C1577 0.930 . S
H1562 C1578 0.931 . S
C1563 H1551 0.929 . S
C1563 C1557 1.390 . S
C1563 C1560 1.386 . S
C1564 C1559 1.490 . S
C1564 C1566 1.395 . S
C1564 C1567 1.403 . S
H1565 C1571 0.930 . S
C1566 H1552 0.930 . S
C1566 C1564 1.395 . S
C1566 C1569 1.403 . S
C1567 C1564 1.403 . S
C1567 C1568 1.524 . S
C1567 C1571 1.400 . S
C1568 H1553 0.960 . S
C1568 H1554 0.960 . S
C1568 H1555 0.960 . S
C1568 C1567 1.524 . S
C1569 C1566 1.403 . S
C1569 C1570 1.392 . S
C1569 C1573 1.495 . S
C1570 C1569 1.392 . S
C1570 C1571 1.385 . S
C1570 C1572 1.478 . S
C1571 H1565 0.930 . S
C1571 C1567 1.400 . S
C1571 C1570 1.385 . S
C1572 C1570 1.478 . S
C1572 C1574 1.381 . S
C1572 C1578 1.383 . S
C1573 C1569 1.495 . S
C1573 H1579 0.959 . S
C1573 H1580 0.961 . S
C1573 H1581 0.960 . S
C1574 C1572 1.381 . S
C1574 C1575 1.394 . S
C1574 H1582 0.930 . S
C1575 C1574 1.394 . S
C1575 C1576 1.383 . S
C1575 H1583 0.929 . S
C1576 C1575 1.383 . S
C1576 C1577 1.377 . S
C1577 H1561 0.930 . S
C1577 C1576 1.377 . S
C1577 C1578 1.379 . S
C1578 H1562 0.931 . S
C1578 C1572 1.383 . S
C1578 C1577 1.379 . S
H1579 C1573 0.959 . S
H1580 C1573 0.961 . S
H1581 C1573 0.960 . S
H1582 C1574 0.930 . S
H1583 C1575 0.929 . S
H1584 C1592 0.929 . S
H1585 C1594 0.930 . S
H1586 C1596 0.930 . S
H1587 C1599 0.929 . S
H1588 C1602 0.930 . S
H1589 C1604 0.960 . S
H1590 C1604 0.960 1_545 S
H1591 C1604 0.960 1_545 S
C1592 H1584 0.929 . S
C1592 C1593 1.377 . S
C1592 C1594 1.384 . S
C1593 C1592 1.377 . S
C1593 C1599 1.390 . S
C1594 H1585 0.930 . S
C1594 C1592 1.384 . S
C1594 C1595 1.372 . S
C1595 C1594 1.372 . S
C1595 C1596 1.400 . S
C1595 C1600 1.490 . S
C1596 H1586 0.930 . S
C1596 C1595 1.400 . S
C1596 C1599 1.386 . S
H1597 C1613 0.930 . S
H1598 C1614 0.931 . S
C1599 H1587 0.929 . S
C1599 C1593 1.390 . S
C1599 C1596 1.386 . S
C1600 C1595 1.490 . S
C1600 C1602 1.395 . S
C1600 C1603 1.360 1_545 S
H1601 C1607 0.930 . S
C1602 H1588 0.930 . S
C1602 C1600 1.395 . S
C1602 C1605 1.423 . S
C1603 C1600 1.360 1_565 S
C1603 C1604 1.528 . S
C1603 C1607 1.440 . S
C1604 H1589 0.960 . S
C1604 H1590 0.960 1_565 S
C1604 H1591 0.960 1_565 S
C1604 C1603 1.528 . S
C1605 C1602 1.423 . S
C1605 C1606 1.371 1_545 S
C1605 C1609 1.497 . S
C1606 C1605 1.371 1_565 S
C1606 C1607 1.385 . S
C1606 C1608 1.478 . S
C1607 H1601 0.930 . S
C1607 C1603 1.440 . S
C1607 C1606 1.385 . S
C1608 C1606 1.478 . S
C1608 C1610 1.381 . S
C1608 C1614 1.383 . S
C1609 C1605 1.497 . S
C1609 H1615 0.959 . S
C1609 H1616 0.961 1_545 S
C1609 H1617 0.960 1_545 S
C1610 C1608 1.381 . S
C1610 C1611 1.394 . S
C1610 H1618 0.930 . S
C1611 C1610 1.394 . S
C1611 C1612 1.383 . S
C1611 H1619 0.929 . S
C1612 C1611 1.383 . S
C1612 C1613 1.377 . S
C1613 H1597 0.930 . S
C1613 C1612 1.377 . S
C1613 C1614 1.379 . S
C1614 H1598 0.931 . S
C1614 C1608 1.383 . S
C1614 C1613 1.379 . S
H1615 C1609 0.959 . S
H1616 C1609 0.961 1_565 S
H1617 C1609 0.960 1_565 S
H1618 C1610 0.930 . S
H1619 C1611 0.929 . S
H1620 C1628 0.929 . S
H1621 C1630 0.930 . S
H1622 C1632 0.930 . S
H1623 C1635 0.929 . S
H1624 C1638 0.930 . S
H1625 C1640 0.960 . S
H1626 C1640 0.960 . S
H1627 C1640 0.960 . S
C1628 H1620 0.929 . S
C1628 C1629 1.377 . S
C1628 C1630 1.384 . S
C1629 C1628 1.377 . S
C1629 C1635 1.390 . S
C1630 H1621 0.930 . S
C1630 C1628 1.384 . S
C1630 C1631 1.372 . S
C1631 C1630 1.372 . S
C1631 C1632 1.400 . S
C1631 C1636 1.490 . S
C1632 H1622 0.930 . S
C1632 C1631 1.400 . S
C1632 C1635 1.386 . S
H1633 C1649 0.930 . S
H1634 C1650 0.931 . S
C1635 H1623 0.929 . S
C1635 C1629 1.390 . S
C1635 C1632 1.386 . S
C1636 C1631 1.490 . S
C1636 C1638 1.395 . S
C1636 C1639 1.403 . S
H1637 C1643 0.930 . S
C1638 H1624 0.930 . S
C1638 C1636 1.395 . S
C1638 C1641 1.403 . S
C1639 C1636 1.403 . S
C1639 C1640 1.524 . S
C1639 C1643 1.400 . S
C1640 H1625 0.960 . S
C1640 H1626 0.960 . S
C1640 H1627 0.960 . S
C1640 C1639 1.524 . S
C1641 C1638 1.403 . S
C1641 C1642 1.392 . S
C1641 C1645 1.495 . S
C1642 C1641 1.392 . S
C1642 C1643 1.385 . S
C1642 C1644 1.478 . S
C1643 H1637 0.930 . S
C1643 C1639 1.400 . S
C1643 C1642 1.385 . S
C1644 C1642 1.478 . S
C1644 C1646 1.381 . S
C1644 C1650 1.383 . S
C1645 C1641 1.495 . S
C1645 H1651 0.959 . S
C1645 H1652 0.961 . S
C1645 H1653 0.960 . S
C1646 C1644 1.381 . S
C1646 C1647 1.394 . S
C1646 H1654 0.930 . S
C1647 C1646 1.394 . S
C1647 C1648 1.383 . S
C1647 H1655 0.929 . S
C1648 C1647 1.383 . S
C1648 C1649 1.377 . S
C1649 H1633 0.930 . S
C1649 C1648 1.377 . S
C1649 C1650 1.379 . S
C1650 H1634 0.931 . S
C1650 C1644 1.383 . S
C1650 C1649 1.379 . S
H1651 C1645 0.959 . S
H1652 C1645 0.961 . S
H1653 C1645 0.960 . S
H1654 C1646 0.930 . S
H1655 C1647 0.929 . S
H1656 C1664 0.929 . S
H1657 C1666 0.930 . S
H1658 C1668 0.930 . S
H1659 C1671 0.929 . S
H1660 C1674 0.930 . S
H1661 C1676 0.960 . S
H1662 C1676 0.960 1_565 S
H1663 C1676 0.960 1_565 S
C1664 H1656 0.929 . S
C1664 C1665 1.377 . S
C1664 C1666 1.384 . S
C1665 C1664 1.377 . S
C1665 C1671 1.390 . S
C1666 H1657 0.930 . S
C1666 C1664 1.384 . S
C1666 C1667 1.372 . S
C1667 C1666 1.372 . S
C1667 C1668 1.400 . S
C1667 C1672 1.490 . S
C1668 H1658 0.930 . S
C1668 C1667 1.400 . S
C1668 C1671 1.386 . S
H1669 C1685 0.930 . S
H1670 C1686 0.931 . S
C1671 H1659 0.929 . S
C1671 C1665 1.390 . S
C1671 C1668 1.386 . S
C1672 C1667 1.490 . S
C1672 C1674 1.395 1_554 S
C1672 C1675 1.403 1_565 S
H1673 C1679 0.930 . S
C1674 H1660 0.930 . S
C1674 C1672 1.395 1_556 S
C1674 C1677 1.403 1_565 S
C1675 C1672 1.403 1_545 S
C1675 C1676 1.524 . S
C1675 C1679 1.400 . S
C1676 H1661 0.960 . S
C1676 H1662 0.960 1_545 S
C1676 H1663 0.960 1_545 S
C1676 C1675 1.524 . S
C1677 C1674 1.403 1_545 S
C1677 C1678 1.392 . S
C1677 C1681 1.495 . S
C1678 C1677 1.392 . S
C1678 C1679 1.385 1_556 S
C1678 C1680 1.478 . S
C1679 H1673 0.930 . S
C1679 C1675 1.400 . S
C1679 C1678 1.385 1_554 S
C1680 C1678 1.478 . S
C1680 C1682 1.381 . S
C1680 C1686 1.383 . S
C1681 C1677 1.495 . S
C1681 H1687 0.959 1_545 S
C1681 H1688 0.961 . S
C1681 H1689 0.960 . S
C1682 C1680 1.381 . S
C1682 C1683 1.394 . S
C1682 H1690 0.930 . S
C1683 C1682 1.394 . S
C1683 C1684 1.383 . S
C1683 H1691 0.929 . S
C1684 C1683 1.383 . S
C1684 C1685 1.377 . S
C1685 H1669 0.930 . S
C1685 C1684 1.377 . S
C1685 C1686 1.379 . S
C1686 H1670 0.931 . S
C1686 C1680 1.383 . S
C1686 C1685 1.379 . S
H1687 C1681 0.959 1_565 S
H1688 C1681 0.961 . S
H1689 C1681 0.960 . S
H1690 C1682 0.930 . S
H1691 C1683 0.929 . S
H1692 C1700 0.929 . S
H1693 C1702 0.930 . S
H1694 C1704 0.930 . S
H1695 C1707 0.929 . S
H1696 C1710 0.930 . S
H1697 C1712 0.960 . S
H1698 C1712 0.960 . S
H1699 C1712 0.960 . S
C1700 H1692 0.929 . S
C1700 C1701 1.377 . S
C1700 C1702 1.384 . S
C1701 C1700 1.377 . S
C1701 C1707 1.390 . S
C1702 H1693 0.930 . S
C1702 C1700 1.384 . S
C1702 C1703 1.372 . S
C1703 C1702 1.372 . S
C1703 C1704 1.400 . S
C1703 C1708 1.490 . S
C1704 H1694 0.930 . S
C1704 C1703 1.400 . S
C1704 C1707 1.386 . S
H1705 C1721 0.930 . S
H1706 C1722 0.931 . S
C1707 H1695 0.929 . S
C1707 C1701 1.390 . S
C1707 C1704 1.386 . S
C1708 C1703 1.490 . S
C1708 C1710 1.395 . S
C1708 C1711 1.403 . S
H1709 C1715 0.930 . S
C1710 H1696 0.930 . S
C1710 C1708 1.395 . S
C1710 C1713 1.403 . S
C1711 C1708 1.403 . S
C1711 C1712 1.524 . S
C1711 C1715 1.400 . S
C1712 H1697 0.960 . S
C1712 H1698 0.960 . S
C1712 H1699 0.960 . S
C1712 C1711 1.524 . S
C1713 C1710 1.403 . S
C1713 C1714 1.392 . S
C1713 C1717 1.495 . S
C1714 C1713 1.392 . S
C1714 C1715 1.385 . S
C1714 C1716 1.478 . S
C1715 H1709 0.930 . S
C1715 C1711 1.400 . S
C1715 C1714 1.385 . S
C1716 C1714 1.478 . S
C1716 C1718 1.381 . S
C1716 C1722 1.383 . S
C1717 C1713 1.495 . S
C1717 H1723 0.959 . S
C1717 H1724 0.961 . S
C1717 H1725 0.960 . S
C1718 C1716 1.381 . S
C1718 C1719 1.394 . S
C1718 H1726 0.930 . S
C1719 C1718 1.394 . S
C1719 C1720 1.383 . S
C1719 H1727 0.929 . S
C1720 C1719 1.383 . S
C1720 C1721 1.377 . S
C1721 H1705 0.930 . S
C1721 C1720 1.377 . S
C1721 C1722 1.379 . S
C1722 H1706 0.931 . S
C1722 C1716 1.383 . S
C1722 C1721 1.379 . S
H1723 C1717 0.959 . S
H1724 C1717 0.961 . S
H1725 C1717 0.960 . S
H1726 C1718 0.930 . S
H1727 C1719 0.929 . S
C585 C400 1.188 . S
C604 C4 1.182 . S
C621 C544 1.283 . S
C640 C40 1.261 . S
C657 C76 1.318 . S
C676 C326 1.334 . S
C693 C470 1.393 . S
C712 C110 1.368 . S
C729 C146 1.240 . S
C748 C472 1.262 . S
C765 C182 1.331 . S
C784 C398 1.321 . S
C801 C220 1.339 . S
C820 C542 1.295 . S
C837 C254 1.416 . S
C856 C328 1.400 . S
C873 C112 1.225 . S
C892 C292 1.191 . S
C909 C364 1.190 . S
C928 C38 1.210 . S
C945 C434 1.224 . S
C964 C184 1.239 . S
C981 C508 1.230 . S
C1000 C256 1.240 . S
C1017 C148 1.386 . S
C1036 C290 1.390 . S
C1053 C362 1.445 . S
C1072 C218 1.422 . S
C1089 C506 1.409 . S
C1108 C74 1.391 . S
C1125 C2 1.367 . S
C1144 C436 1.385 . S
C1161 C3 1.083 . S
C1180 C158 1.050 . S
C1197 C39 1.247 . S
C1216 C194 1.214 . S
C1233 C75 1.207 . S
C1252 C219 1.201 . S
C1269 C266 1.174 . S
C1288 C122 1.140 . S
C1305 C291 1.056 . S
C1324 C446 1.063 . S
C1341 C482 1.249 . S
C1360 C327 1.291 . S
C1377 C363 1.131 . S
C1396 C507 1.137 . S
C1413 C543 1.208 . S
C1432 C410 1.136 . S
C1449 C255 1.009 . S
C1468 C50 1.014 . S
C1485 C86 1.233 . S
C1504 C147 1.292 . S
C1521 C111 1.136 . S
C1540 C183 1.141 . S
C1557 C14 1.215 . S
C1576 C230 1.257 . S
C1593 C338 1.072 . S
C1612 C554 1.047 . S
C1629 C435 1.281 . S
C1648 C374 1.242 . S
C1665 C399 1.123 . S
C1684 C471 1.107 . S
C1701 C518 1.188 . S
C1720 C302 1.188 . S
