# Generated by pormake.
# Topology sxf, (6)-cn, num edge types: 1
# Building blocks:
#     Node 0, Type 0, BuildingBlock: IZENUY_clean_sbu_0, # of connection points: 6
#     Node 1, Type 0, BuildingBlock: IZENUY_clean_sbu_0, # of connection points: 6
#     Node 2, Type 0, BuildingBlock: IZENUY_clean_sbu_0, # of connection points: 6
#     Node 3, Type 0, BuildingBlock: IZENUY_clean_sbu_0, # of connection points: 6
#     Node 4, Type 0, BuildingBlock: IZENUY_clean_sbu_0, # of connection points: 6
#     Node 5, Type 0, BuildingBlock: IZENUY_clean_sbu_0, # of connection points: 6
#     Node 6, Type 0, BuildingBlock: IZENUY_clean_sbu_0, # of connection points: 6
#     Node 7, Type 0, BuildingBlock: IZENUY_clean_sbu_0, # of connection points: 6
#     Node 8, Type 0, BuildingBlock: IZENUY_clean_sbu_0, # of connection points: 6
#     Node 9, Type 0, BuildingBlock: IZENUY_clean_sbu_0, # of connection points: 6
#     Node 10, Type 0, BuildingBlock: IZENUY_clean_sbu_0, # of connection points: 6
#     Node 11, Type 0, BuildingBlock: IZENUY_clean_sbu_0, # of connection points: 6
#     Node 12, Type 0, BuildingBlock: IZENUY_clean_sbu_0, # of connection points: 6
#     Node 13, Type 0, BuildingBlock: IZENUY_clean_sbu_0, # of connection points: 6
#     Node 14, Type 0, BuildingBlock: IZENUY_clean_sbu_0, # of connection points: 6
#     Node 15, Type 0, BuildingBlock: IZENUY_clean_sbu_0, # of connection points: 6
#     Node 16, Type 0, BuildingBlock: IZENUY_clean_sbu_0, # of connection points: 6
#     Node 17, Type 0, BuildingBlock: IZENUY_clean_sbu_0, # of connection points: 6
#     Node 18, Type 0, BuildingBlock: IZENUY_clean_sbu_0, # of connection points: 6
#     Node 19, Type 0, BuildingBlock: IZENUY_clean_sbu_0, # of connection points: 6
#     Node 20, Type 0, BuildingBlock: IZENUY_clean_sbu_0, # of connection points: 6
#     Node 21, Type 0, BuildingBlock: IZENUY_clean_sbu_0, # of connection points: 6
#     Node 22, Type 0, BuildingBlock: IZENUY_clean_sbu_0, # of connection points: 6
#     Node 23, Type 0, BuildingBlock: IZENUY_clean_sbu_0, # of connection points: 6
#     Edge 24, Type (0, 0), BuildingBlock: AJUNOK_clean_linker_0, # of connection points: 2
#     Edge 25, Type (0, 0), BuildingBlock: AJUNOK_clean_linker_0, # of connection points: 2
#     Edge 26, Type (0, 0), BuildingBlock: AJUNOK_clean_linker_0, # of connection points: 2
#     Edge 27, Type (0, 0), BuildingBlock: AJUNOK_clean_linker_0, # of connection points: 2
#     Edge 28, Type (0, 0), BuildingBlock: AJUNOK_clean_linker_0, # of connection points: 2
#     Edge 29, Type (0, 0), BuildingBlock: AJUNOK_clean_linker_0, # of connection points: 2
#     Edge 30, Type (0, 0), BuildingBlock: AJUNOK_clean_linker_0, # of connection points: 2
#     Edge 31, Type (0, 0), BuildingBlock: AJUNOK_clean_linker_0, # of connection points: 2
#     Edge 32, Type (0, 0), BuildingBlock: AJUNOK_clean_linker_0, # of connection points: 2
#     Edge 33, Type (0, 0), BuildingBlock: AJUNOK_clean_linker_0, # of connection points: 2
#     Edge 34, Type (0, 0), BuildingBlock: AJUNOK_clean_linker_0, # of connection points: 2
#     Edge 35, Type (0, 0), BuildingBlock: AJUNOK_clean_linker_0, # of connection points: 2
#     Edge 36, Type (0, 0), BuildingBlock: AJUNOK_clean_linker_0, # of connection points: 2
#     Edge 37, Type (0, 0), BuildingBlock: AJUNOK_clean_linker_0, # of connection points: 2
#     Edge 38, Type (0, 0), BuildingBlock: AJUNOK_clean_linker_0, # of connection points: 2
#     Edge 39, Type (0, 0), BuildingBlock: AJUNOK_clean_linker_0, # of connection points: 2
#     Edge 40, Type (0, 0), BuildingBlock: AJUNOK_clean_linker_0, # of connection points: 2
#     Edge 41, Type (0, 0), BuildingBlock: AJUNOK_clean_linker_0, # of connection points: 2
#     Edge 42, Type (0, 0), BuildingBlock: AJUNOK_clean_linker_0, # of connection points: 2
#     Edge 43, Type (0, 0), BuildingBlock: AJUNOK_clean_linker_0, # of connection points: 2
#     Edge 44, Type (0, 0), BuildingBlock: AJUNOK_clean_linker_0, # of connection points: 2
#     Edge 45, Type (0, 0), BuildingBlock: AJUNOK_clean_linker_0, # of connection points: 2
#     Edge 46, Type (0, 0), BuildingBlock: AJUNOK_clean_linker_0, # of connection points: 2
#     Edge 47, Type (0, 0), BuildingBlock: AJUNOK_clean_linker_0, # of connection points: 2
#     Edge 48, Type (0, 0), BuildingBlock: AJUNOK_clean_linker_0, # of connection points: 2
#     Edge 49, Type (0, 0), BuildingBlock: AJUNOK_clean_linker_0, # of connection points: 2
#     Edge 50, Type (0, 0), BuildingBlock: AJUNOK_clean_linker_0, # of connection points: 2
#     Edge 51, Type (0, 0), BuildingBlock: AJUNOK_clean_linker_0, # of connection points: 2
#     Edge 52, Type (0, 0), BuildingBlock: AJUNOK_clean_linker_0, # of connection points: 2
#     Edge 53, Type (0, 0), BuildingBlock: AJUNOK_clean_linker_0, # of connection points: 2
#     Edge 54, Type (0, 0), BuildingBlock: AJUNOK_clean_linker_0, # of connection points: 2
#     Edge 55, Type (0, 0), BuildingBlock: AJUNOK_clean_linker_0, # of connection points: 2
#     Edge 56, Type (0, 0), BuildingBlock: AJUNOK_clean_linker_0, # of connection points: 2
#     Edge 57, Type (0, 0), BuildingBlock: AJUNOK_clean_linker_0, # of connection points: 2
#     Edge 58, Type (0, 0), BuildingBlock: AJUNOK_clean_linker_0, # of connection points: 2
#     Edge 59, Type (0, 0), BuildingBlock: AJUNOK_clean_linker_0, # of connection points: 2
#     Edge 60, Type (0, 0), BuildingBlock: AJUNOK_clean_linker_0, # of connection points: 2
#     Edge 61, Type (0, 0), BuildingBlock: AJUNOK_clean_linker_0, # of connection points: 2
#     Edge 62, Type (0, 0), BuildingBlock: AJUNOK_clean_linker_0, # of connection points: 2
#     Edge 63, Type (0, 0), BuildingBlock: AJUNOK_clean_linker_0, # of connection points: 2
#     Edge 64, Type (0, 0), BuildingBlock: AJUNOK_clean_linker_0, # of connection points: 2
#     Edge 65, Type (0, 0), BuildingBlock: AJUNOK_clean_linker_0, # of connection points: 2
#     Edge 66, Type (0, 0), BuildingBlock: AJUNOK_clean_linker_0, # of connection points: 2
#     Edge 67, Type (0, 0), BuildingBlock: AJUNOK_clean_linker_0, # of connection points: 2
#     Edge 68, Type (0, 0), BuildingBlock: AJUNOK_clean_linker_0, # of connection points: 2
#     Edge 69, Type (0, 0), BuildingBlock: AJUNOK_clean_linker_0, # of connection points: 2
#     Edge 70, Type (0, 0), BuildingBlock: AJUNOK_clean_linker_0, # of connection points: 2
#     Edge 71, Type (0, 0), BuildingBlock: AJUNOK_clean_linker_0, # of connection points: 2
#     Edge 72, Type (0, 0), BuildingBlock: AJUNOK_clean_linker_0, # of connection points: 2
#     Edge 73, Type (0, 0), BuildingBlock: AJUNOK_clean_linker_0, # of connection points: 2
#     Edge 74, Type (0, 0), BuildingBlock: AJUNOK_clean_linker_0, # of connection points: 2
#     Edge 75, Type (0, 0), BuildingBlock: AJUNOK_clean_linker_0, # of connection points: 2
#     Edge 76, Type (0, 0), BuildingBlock: AJUNOK_clean_linker_0, # of connection points: 2
#     Edge 77, Type (0, 0), BuildingBlock: AJUNOK_clean_linker_0, # of connection points: 2
#     Edge 78, Type (0, 0), BuildingBlock: AJUNOK_clean_linker_0, # of connection points: 2
#     Edge 79, Type (0, 0), BuildingBlock: AJUNOK_clean_linker_0, # of connection points: 2
#     Edge 80, Type (0, 0), BuildingBlock: AJUNOK_clean_linker_0, # of connection points: 2
#     Edge 81, Type (0, 0), BuildingBlock: AJUNOK_clean_linker_0, # of connection points: 2
#     Edge 82, Type (0, 0), BuildingBlock: AJUNOK_clean_linker_0, # of connection points: 2
#     Edge 83, Type (0, 0), BuildingBlock: AJUNOK_clean_linker_0, # of connection points: 2
#     Edge 84, Type (0, 0), BuildingBlock: AJUNOK_clean_linker_0, # of connection points: 2
#     Edge 85, Type (0, 0), BuildingBlock: AJUNOK_clean_linker_0, # of connection points: 2
#     Edge 86, Type (0, 0), BuildingBlock: AJUNOK_clean_linker_0, # of connection points: 2
#     Edge 87, Type (0, 0), BuildingBlock: AJUNOK_clean_linker_0, # of connection points: 2
#     Edge 88, Type (0, 0), BuildingBlock: AJUNOK_clean_linker_0, # of connection points: 2
#     Edge 89, Type (0, 0), BuildingBlock: AJUNOK_clean_linker_0, # of connection points: 2
#     Edge 90, Type (0, 0), BuildingBlock: AJUNOK_clean_linker_0, # of connection points: 2
#     Edge 91, Type (0, 0), BuildingBlock: AJUNOK_clean_linker_0, # of connection points: 2
#     Edge 92, Type (0, 0), BuildingBlock: AJUNOK_clean_linker_0, # of connection points: 2
#     Edge 93, Type (0, 0), BuildingBlock: AJUNOK_clean_linker_0, # of connection points: 2
#     Edge 94, Type (0, 0), BuildingBlock: AJUNOK_clean_linker_0, # of connection points: 2
#     Edge 95, Type (0, 0), BuildingBlock: AJUNOK_clean_linker_0, # of connection points: 2
# Relax obj value: 0.435
# Max RMSD: 0.175
# Mean RMSD: 0.175
data_MOF--net-sxf--node1-IZENUY_clean_sbu_0--edge1-AJUNOK_clean_linker_0
_symmetry_space_group_name_H-M    P1
_symmetry_Int_Tables_number       1
_symmetry_cell_setting            triclinic
loop_
_symmetry_equiv_pos_as_xyz
'x, y, z'
_cell_length_a     34.151825
_cell_length_b     34.086534
_cell_length_c     34.232762
_cell_angle_alpha  90.024994
_cell_angle_beta   89.929225
_cell_angle_gamma 89.930027
loop_
_atom_site_label
_atom_site_type_symbol
_atom_site_fract_x
_atom_site_fract_y
_atom_site_fract_z
_atom_type_partial_charge
Fe0 Fe 0.02801 0.4804 0.26769 0.0
Fe1 Fe 0.07593 0.41007 0.23558 0.0
O2 O 0.04693 0.45275 0.22787 0.0
Fe3 Fe 0.03652 0.46773 0.17967 0.0
O4 O 0.03293 0.51975 0.19054 0.0
O5 O 0.05238 0.52548 0.25121 0.0
O6 O 0.07021 0.47154 0.29907 0.0
C7 C 0.10472 0.46042 0.2915 0.0
C8 C 0.96524 0.47843 0.214 0.0
O9 O 0.11225 0.43797 0.26303 0.0
C10 C 0.03019 0.38627 0.1743 0.0
O11 O 1.00231 0.43781 0.28714 0.0
O12 O 0.05063 0.39541 0.28021 0.0
O13 O 0.98456 0.46093 0.18778 0.0
O14 O 0.98228 0.49407 0.24288 0.0
C15 C 0.11317 0.44777 0.17166 0.0
O16 O 0.04127 0.37898 0.20874 0.0
O17 O 0.03756 0.41883 0.15873 0.0
C18 C 0.01727 0.40447 0.29348 0.0
O19 O 0.10626 0.41734 0.19178 0.0
O20 O 0.08822 0.47505 0.16942 0.0
C21 C 0.04745 0.53995 0.21761 0.0
Fe22 Fe 0.47981 0.53661 0.75826 0.0
Fe23 Fe 0.4237 0.60295 0.73358 0.0
O24 O 0.45619 0.56423 0.72131 0.0
Fe25 Fe 0.46526 0.55352 0.67179 0.0
O26 O 0.47312 0.50129 0.67921 0.0
O27 O 0.45818 0.49061 0.7408 0.0
O28 O 0.43882 0.54042 0.79301 0.0
C29 C 0.40285 0.54834 0.78809 0.0
C30 C 0.53911 0.54471 0.70022 0.0
O31 O 0.39169 0.56944 0.75981 0.0
C32 C 0.46462 0.63552 0.67328 0.0
O33 O 0.50314 0.58059 0.77779 0.0
O34 O 0.44939 0.61623 0.77847 0.0
O35 O 0.51704 0.5636 0.67736 0.0
O36 O 0.52492 0.52777 0.72999 0.0
C37 C 0.38657 0.56663 0.66918 0.0
O38 O 0.45445 0.63884 0.70853 0.0
O39 O 0.45932 0.60393 0.65489 0.0
C40 C 0.4845 0.61069 0.78875 0.0
O41 O 0.39173 0.59654 0.69057 0.0
O42 O 0.41403 0.54246 0.66368 0.0
C43 C 0.46236 0.4785 0.7061 0.0
Fe44 Fe 0.57849 0.09772 0.77393 0.0
Fe45 Fe 0.53459 0.04219 0.82841 0.0
O46 O 0.54659 0.05731 0.78066 0.0
Fe47 Fe 0.52666 0.03184 0.74014 0.0
O48 O 0.56963 0.03934 0.70852 0.0
O49 O 0.61319 0.0675 0.74668 0.0
O50 O 0.6079 0.0877 0.81769 0.0
C51 C 0.61269 0.0563 0.8369 0.0
C52 C 0.52138 0.10816 0.71495 0.0
O53 O 0.5855 0.03129 0.839 0.0
C54 C 0.46327 0.03485 0.79424 0.0
O55 O 0.5455 0.13087 0.80077 0.0
O56 O 0.53849 0.09061 0.85012 0.0
O57 O 0.50319 0.07656 0.72194 0.0
O58 O 0.55501 0.1144 0.72905 0.0
C59 C 0.5431 0.97063 0.78925 0.0
O60 O 0.48313 0.05225 0.82003 0.0
O61 O 0.48002 0.01958 0.76479 0.0
C62 C 0.53326 0.1238 0.83493 0.0
O63 O 0.52822 0.99076 0.81625 0.0
O64 O 0.54919 0.98539 0.75588 0.0
C65 C 0.60491 0.04756 0.71662 0.0
Fe66 Fe 0.971 0.96727 0.32977 0.0
Fe67 Fe 0.97868 0.98308 0.24245 0.0
O68 O 0.96102 0.95367 0.28138 0.0
Fe69 Fe 0.93313 0.91074 0.27238 0.0
O70 O 0.89085 0.92967 0.29912 0.0
O71 O 0.92572 0.94706 0.35003 0.0
O72 O 0.94448 0.01228 0.32372 0.0
C73 C 0.95296 0.03839 0.29922 0.0
C74 C 0.9827 0.88897 0.33534 0.0
O75 O 0.97392 0.03026 0.26953 0.0
C76 C 0.99001 0.90441 0.21654 0.0
O77 O 0.01794 0.99061 0.31891 0.0
O78 O 0.02949 0.97717 0.25721 0.0
O79 O 0.95137 0.88423 0.31595 0.0
O80 O 0.99797 0.92243 0.33799 0.0
C81 C 0.90551 0.96492 0.21623 0.0
O82 O 0.98626 0.94082 0.20904 0.0
O83 O 0.97326 0.88925 0.24565 0.0
C84 C 0.04149 0.98612 0.29078 0.0
O85 O 0.92949 0.99133 0.22538 0.0
O86 O 0.91022 0.92974 0.2273 0.0
C87 C 0.89292 0.94087 0.33417 0.0
Fe88 Fe 0.23332 0.08244 0.40436 0.0
Fe89 Fe 0.17219 0.0425 0.456 0.0
O90 O 0.22165 0.05164 0.44466 0.0
Fe91 Fe 0.25873 0.03001 0.47389 0.0
O92 O 0.27832 0.07739 0.48589 0.0
O93 O 0.27766 0.10376 0.42723 0.0
O94 O 0.20586 0.12389 0.42469 0.0
C95 C 0.1701 0.122 0.43372 0.0
C96 C 0.28852 0.02418 0.39651 0.0
O97 O 0.15343 0.08919 0.43727 0.0
C98 C 0.20747 0.9691 0.47241 0.0
O99 O 0.19119 0.06577 0.37435 0.0
O100 O 0.16543 0.01848 0.40974 0.0
O101 O 0.29329 0.02356 0.43322 0.0
O102 O 0.26122 0.04376 0.3812 0.0
C103 C 0.20138 0.05486 0.52857 0.0
O104 O 0.18033 0.99383 0.4771 0.0
O105 O 0.24177 0.98017 0.46461 0.0
C106 C 0.17135 0.03427 0.37697 0.0
O107 O 0.17742 0.06613 0.50292 0.0
O108 O 0.23031 0.0332 0.51965 0.0
C109 C 0.28899 0.10382 0.46258 0.0
Fe110 Fe 0.33224 0.97102 0.96238 0.0
Fe111 Fe 0.24417 0.9799 0.97593 0.0
O112 O 0.28381 0.96015 0.94852 0.0
Fe113 Fe 0.27511 0.92956 0.90748 0.0
O114 O 0.31896 0.89863 0.91454 0.0
O115 O 0.34312 0.91962 0.97017 0.0
O116 O 0.32144 0.97414 0.01448 0.0
C117 C 0.29406 0.95951 0.03449 0.0
C118 C 0.33558 0.97447 0.88023 0.0
O119 O 0.26021 0.95508 0.0204 0.0
C120 C 0.21802 0.98949 0.90111 0.0
O121 O 0.3241 0.02311 0.95566 0.0
O122 O 0.26992 0.02562 0.99001 0.0
O123 O 0.3011 0.96263 0.87463 0.0
O124 O 0.35221 0.96997 0.91282 0.0
C125 C 0.21871 0.90287 0.95784 0.0
O126 O 0.22585 1.00566 0.93338 0.0
O127 O 0.23019 0.95527 0.8931 0.0
C128 C 0.29953 0.04258 0.97528 0.0
O129 O 0.2112 0.93809 0.96705 0.0
O130 O 0.2484 0.89449 0.93743 0.0
C131 C 0.33999 0.89322 0.94456 0.0
Fe132 Fe 0.73182 0.43545 0.59643 0.0
Fe133 Fe 0.67833 0.47573 0.53714 0.0
O134 O 0.72591 0.46467 0.55388 0.0
Fe135 Fe 0.76705 0.48311 0.52789 0.0
O136 O 0.79871 0.44113 0.53904 0.0
O137 O 0.76037 0.39916 0.5696 0.0
O138 O 0.68826 0.40457 0.58722 0.0
C139 C 0.66895 0.39839 0.55612 0.0
C140 C 0.78984 0.49456 0.60435 0.0
O141 O 0.6676 0.42413 0.52957 0.0
C142 C 0.71346 0.54669 0.52687 0.0
O143 O 0.70403 0.47004 0.62649 0.0
O144 O 0.65558 0.47524 0.58505 0.0
O145 O 0.7846 0.50948 0.57087 0.0
O146 O 0.77596 0.46118 0.61295 0.0
C147 C 0.71898 0.46236 0.46723 0.0
O148 O 0.6867 0.52782 0.54398 0.0
O149 O 0.74266 0.52892 0.51227 0.0
C150 C 0.6703 0.48232 0.61796 0.0
O151 O 0.69153 0.47858 0.48575 0.0
O152 O 0.75221 0.45754 0.48288 0.0
C153 C 0.79102 0.40662 0.55027 0.0
Fe154 Fe 0.77577 0.58312 0.10279 0.0
Fe155 Fe 0.83711 0.54426 0.05106 0.0
O156 O 0.7876 0.55348 0.06181 0.0
Fe157 Fe 0.7509 0.53308 0.03153 0.0
O158 O 0.73131 0.58095 0.02096 0.0
O159 O 0.73163 0.60504 0.08063 0.0
O160 O 0.80337 0.62486 0.0835 0.0
C161 C 0.8394 0.62278 0.07572 0.0
C162 C 0.72045 0.52506 0.10887 0.0
O163 O 0.85589 0.58982 0.0724 0.0
C164 C 0.80203 0.47204 0.03062 0.0
O165 O 0.81764 0.56542 0.13233 0.0
O166 O 0.84254 0.51808 0.09628 0.0
O167 O 0.7159 0.52515 0.072 0.0
O168 O 0.7478 0.54401 0.12472 0.0
C169 C 0.80978 0.55959 0.97842 0.0
O170 O 0.829 0.49704 0.02722 0.0
O171 O 0.76787 0.48284 0.0394 0.0
C172 C 0.83623 0.5332 0.12929 0.0
O173 O 0.83277 0.56997 0.00535 0.0
O174 O 0.7801 0.53823 0.98593 0.0
C175 C 0.72032 0.6063 0.0454 0.0
Fe176 Fe 0.41145 0.23293 0.08222 0.0
Fe177 Fe 0.46492 0.17343 0.04205 0.0
O178 O 0.45187 0.22268 0.05112 0.0
Fe179 Fe 0.47894 0.26136 0.02915 0.0
O180 O 0.47278 0.29509 0.07083 0.0
O181 O 0.44265 0.25988 0.11583 0.0
O182 O 0.41814 0.18951 0.11358 0.0
C183 C 0.44837 0.16896 0.12 0.0
C184 C 0.40401 0.29026 0.02271 0.0
O185 O 0.47397 0.16466 0.0937 0.0
C186 C 0.47462 0.20384 0.96868 0.0
O187 O 0.37763 0.20669 0.05004 0.0
O188 O 0.41505 0.15445 0.04533 0.0
O189 O 0.43512 0.28056 0.00505 0.0
O190 O 0.39732 0.27807 0.05697 0.0
C191 C 0.53858 0.21057 0.04778 0.0
O192 O 0.45688 0.17939 0.99005 0.0
O193 O 0.4899 0.2343 0.98356 0.0
C194 C 0.38274 0.1715 0.03964 0.0
O195 O 0.51704 0.18279 0.03657 0.0
O196 O 0.52506 0.24495 0.05153 0.0
C197 C 0.46361 0.2889 0.10624 0.0
Fe198 Fe 0.97518 0.24998 0.97997 0.0
Fe199 Fe 0.90801 0.27891 0.92686 0.0
O200 O 0.94874 0.28885 0.9576 0.0
Fe201 Fe 0.96285 0.338 0.96552 0.0
O202 O 0.01512 0.32789 0.97044 0.0
O203 O 0.02123 0.26517 0.95715 0.0
O204 O 0.96895 0.21654 0.9387 0.0
C205 C 0.96051 0.22296 0.90327 0.0
C206 C 0.97234 0.30852 0.03937 0.0
O207 O 0.93855 0.25109 0.89325 0.0
C208 C 0.88044 0.34134 0.96832 0.0
O209 O 0.93119 0.2311 0.00423 0.0
O210 O 0.89371 0.23447 0.9523 0.0
O211 O 0.9554 0.33339 0.0178 0.0
O212 O 0.98641 0.27725 0.02502 0.0
C213 C 0.94521 0.34152 0.88771 0.0
O214 O 0.87486 0.30594 0.95908 0.0
O215 O 0.91315 0.35758 0.96239 0.0
C216 C 0.90071 0.22096 0.98586 0.0
O217 O 0.91477 0.32172 0.8949 0.0
O218 O 0.97135 0.34552 0.9135 0.0
C219 C 0.03559 0.29916 0.95943 0.0
Fe220 Fe 0.52984 0.7662 0.48246 0.0
Fe221 Fe 0.59691 0.73538 0.43018 0.0
O222 O 0.55791 0.7266 0.46359 0.0
Fe223 Fe 0.54682 0.67834 0.47859 0.0
O224 O 0.49452 0.68713 0.48376 0.0
O225 O 0.48461 0.7467 0.46103 0.0
O226 O 0.53516 0.79717 0.4392 0.0
C227 C 0.54302 0.78897 0.40406 0.0
C228 C 0.53538 0.71554 0.54808 0.0
O229 O 0.5645 0.75999 0.39563 0.0
C230 C 0.62933 0.67794 0.47617 0.0
O231 O 0.5732 0.78737 0.50501 0.0
O232 O 0.61079 0.78189 0.45288 0.0
O233 O 0.55551 0.69026 0.52991 0.0
O234 O 0.51881 0.74292 0.52948 0.0
C235 C 0.56025 0.66716 0.39999 0.0
O236 O 0.63289 0.71183 0.46191 0.0
O237 O 0.59692 0.66036 0.476 0.0
C238 C 0.60453 0.79523 0.48689 0.0
O239 O 0.58947 0.68997 0.40191 0.0
O240 O 0.53708 0.66351 0.42858 0.0
C241 C 0.47222 0.7126 0.46889 0.0
Fe242 Fe 0.04629 0.83748 0.54528 0.0
Fe243 Fe 0.03577 0.74947 0.53104 0.0
O244 O 0.06153 0.78879 0.55326 0.0
Fe245 Fe 0.10269 0.77951 0.58363 0.0
O246 O 0.09509 0.82234 0.61614 0.0
O247 O 0.03835 0.84498 0.59682 0.0
O248 O 0.99418 0.82583 0.54213 0.0
C249 C 0.97453 0.79669 0.5537 0.0
C250 C 0.1285 0.84182 0.5404 0.0
O251 O 0.98972 0.76284 0.5555 0.0
C252 C 0.11143 0.72427 0.52226 0.0
O253 O 0.05278 0.83301 0.49311 0.0
O254 O 0.02167 0.77715 0.48696 0.0
O255 O 0.13505 0.8071 0.55132 0.0
O256 O 0.09581 0.85808 0.54686 0.0
C257 C 0.05354 0.72108 0.6068 0.0
O258 O 0.07991 0.73353 0.50516 0.0
O259 O 0.11788 0.73522 0.55704 0.0
C260 C 0.03557 0.80816 0.4721 0.0
O261 O 0.04496 0.71503 0.57129 0.0
O262 O 0.07269 0.75105 0.61713 0.0
C263 C 0.06412 0.84175 0.62285 0.0
Fe264 Fe 0.93513 0.59964 0.77291 0.0
Fe265 Fe 0.97445 0.54023 0.82682 0.0
O266 O 0.9635 0.55645 0.77921 0.0
Fe267 Fe 0.98121 0.52935 0.73841 0.0
O268 O 0.93906 0.54049 0.70713 0.0
O269 O 0.89807 0.57268 0.74532 0.0
O270 O 0.90516 0.59184 0.81672 0.0
C271 C 0.8981 0.56121 0.8364 0.0
C272 C 0.99343 0.60539 0.71449 0.0
O273 O 0.92278 0.5336 0.838 0.0
C274 C 0.04499 0.52862 0.79114 0.0
O275 O 0.97037 0.62985 0.80026 0.0
O276 O 0.97463 0.58859 0.84909 0.0
O277 O 0.00788 0.57171 0.72013 0.0
O278 O 0.9604 0.61488 0.7284 0.0
C279 C 0.96115 0.4693 0.78733 0.0
O280 O 0.02647 0.54623 0.81784 0.0
O281 O 0.02691 0.51364 0.76249 0.0
C282 C 0.98168 0.62168 0.83448 0.0
O283 O 0.9768 0.48857 0.81445 0.0
O284 O 0.95561 0.48457 0.75411 0.0
C285 C 0.90481 0.55215 0.71524 0.0
Fe286 Fe 0.52959 0.47734 0.2482 0.0
Fe287 Fe 0.58299 0.40824 0.27308 0.0
O288 O 0.55205 0.44848 0.28519 0.0
Fe289 Fe 0.5434 0.45948 0.33482 0.0
O290 O 0.53737 0.51177 0.32779 0.0
O291 O 0.55225 0.52278 0.26634 0.0
O292 O 0.57066 0.47252 0.21395 0.0
C293 C 0.60606 0.46226 0.2184 0.0
C294 C 0.46966 0.47055 0.30591 0.0
O295 O 0.61629 0.44017 0.24633 0.0
C296 C 0.54031 0.37787 0.3334 0.0
O297 O 0.50515 0.4345 0.22746 0.0
O298 O 0.55652 0.39532 0.22853 0.0
O299 O 0.49121 0.45144 0.32914 0.0
O300 O 0.48438 0.48711 0.27615 0.0
C301 C 0.62167 0.44332 0.33746 0.0
O302 O 0.55098 0.3737 0.29842 0.0
O303 O 0.5474 0.40907 0.3517 0.0
C304 C 0.52187 0.40278 0.21792 0.0
O305 O 0.61535 0.41366 0.31602 0.0
O306 O 0.59514 0.46852 0.34311 0.0
C307 C 0.54843 0.53465 0.30118 0.0
Fe308 Fe 0.42491 0.90655 0.23133 0.0
Fe309 Fe 0.46137 0.96325 0.17308 0.0
O310 O 0.45497 0.94794 0.22174 0.0
Fe311 Fe 0.47833 0.97339 0.26052 0.0
O312 O 0.43773 0.96523 0.29484 0.0
O313 O 0.39145 0.93679 0.25972 0.0
O314 O 0.39233 0.91334 0.18895 0.0
C315 C 0.3843 0.94422 0.17011 0.0
C316 C 0.48585 0.89779 0.28637 0.0
O317 O 0.40932 0.97113 0.16728 0.0
C318 C 0.53547 0.97459 0.19973 0.0
O319 O 0.45775 0.87454 0.20359 0.0
O320 O 0.45916 0.91388 0.15278 0.0
O321 O 0.50365 0.92875 0.27647 0.0
O322 O 0.45113 0.89169 0.27534 0.0
C323 C 0.45618 0.03514 0.21389 0.0
O324 O 0.51371 0.95686 0.17591 0.0
O325 O 0.52234 0.98657 0.23223 0.0
C326 C 0.46805 0.88179 0.16886 0.0
O327 O 0.46513 0.015 0.18443 0.0
O328 O 0.45506 0.02022 0.24769 0.0
C329 C 0.40195 0.95707 0.2889 0.0
Fe330 Fe 0.0806 0.10119 0.73472 0.0
Fe331 Fe 0.03718 0.04721 0.6787 0.0
O332 O 0.04857 0.06117 0.72669 0.0
Fe333 Fe 0.02772 0.03525 0.76646 0.0
O334 O 0.07001 0.04265 0.79864 0.0
O335 O 0.11474 0.0697 0.76074 0.0
O336 O 0.10993 0.09302 0.69041 0.0
C337 C 0.11463 0.06235 0.67008 0.0
C338 C 0.02248 0.11075 0.79256 0.0
O339 O 0.08803 0.03685 0.6681 0.0
C340 C 0.96549 0.03886 0.71173 0.0
O341 O 0.04802 0.13514 0.70923 0.0
O342 O 0.04052 0.09648 0.65846 0.0
O343 O 1.00401 0.07974 0.78425 0.0
O344 O 0.05689 0.11642 0.7801 0.0
C345 C 0.04524 0.97472 0.7172 0.0
O346 O 0.98589 0.05693 0.68691 0.0
O347 O 0.98158 0.02309 0.74115 0.0
C348 C 0.03586 0.12924 0.67493 0.0
O349 O 0.03141 0.99536 0.68992 0.0
O350 O 0.05037 0.98898 0.75089 0.0
C351 C 0.10546 0.0502 0.79073 0.0
Fe352 Fe 0.77808 0.9294 0.59867 0.0
Fe353 Fe 0.83672 0.96637 0.54199 0.0
O354 O 0.78792 0.95844 0.55671 0.0
Fe355 Fe 0.74961 0.97991 0.52909 0.0
O356 O 0.7291 0.93249 0.51905 0.0
O357 O 0.73279 0.90775 0.5785 0.0
O358 O 0.8043 0.88688 0.57904 0.0
C359 C 0.83958 0.88786 0.56822 0.0
C360 C 0.72302 0.9877 0.60786 0.0
O361 O 0.85615 0.92021 0.56145 0.0
C362 C 0.8017 0.03991 0.52703 0.0
O363 O 0.82156 0.947 0.62578 0.0
O364 O 0.84663 0.99193 0.58681 0.0
O365 O 0.7166 0.9875 0.57133 0.0
O366 O 0.75148 0.96898 0.62198 0.0
C367 C 0.80334 0.95224 0.47163 0.0
O368 O 0.82766 0.01451 0.51963 0.0
O369 O 0.76786 0.02949 0.53729 0.0
C370 C 0.84159 0.97801 0.62057 0.0
O371 O 0.82825 0.94099 0.49639 0.0
O372 O 0.77584 0.97545 0.4816 0.0
C373 C 0.71961 0.90688 0.54382 0.0
Fe374 Fe 0.76449 0.02489 0.02831 0.0
Fe375 Fe 0.73452 0.07903 0.09494 0.0
O376 O 0.7256 0.04753 0.05443 0.0
Fe377 Fe 0.67715 0.03863 0.03964 0.0
O378 O 0.68631 0.06109 0.99295 0.0
O379 O 0.73925 0.02662 0.98043 0.0
O380 O 0.78504 0.07202 0.01664 0.0
C381 C 0.79379 0.09911 0.04012 0.0
C382 C 0.71268 0.9646 0.02828 0.0
O383 O 0.78041 0.09947 0.07475 0.0
C384 C 0.66905 0.03303 0.11812 0.0
O385 O 0.79613 0.0193 0.07137 0.0
O386 O 0.76035 0.04072 0.12062 0.0
O387 O 0.68637 0.98939 0.0205 0.0
O388 O 0.74651 0.97554 0.03795 0.0
C389 C 0.674 0.11866 0.06098 0.0
O390 O 0.68996 0.06363 0.12186 0.0
O391 O 0.66631 0.01585 0.0857 0.0
C392 C 0.78864 0.02084 0.10761 0.0
O393 O 0.70898 0.12043 0.0725 0.0
O394 O 0.65763 0.08597 0.05559 0.0
C395 C 0.71126 0.04832 0.96906 0.0
Fe396 Fe 0.24242 0.52931 0.47742 0.0
Fe397 Fe 0.27681 0.58024 0.41084 0.0
O398 O 0.28317 0.54906 0.45199 0.0
Fe399 Fe 0.33087 0.5373 0.46768 0.0
O400 O 0.3183 0.53176 0.51894 0.0
O401 O 0.25759 0.55226 0.52348 0.0
O402 O 0.21116 0.57232 0.46946 0.0
C403 C 0.21909 0.60738 0.46011 0.0
C404 C 0.29642 0.46575 0.47547 0.0
O405 O 0.24874 0.61562 0.4395 0.0
C406 C 0.33807 0.53407 0.38675 0.0
O407 O 0.22449 0.50526 0.43324 0.0
O408 O 0.2322 0.55613 0.39432 0.0
O409 O 0.32278 0.48547 0.45862 0.0
O410 O 0.26682 0.48268 0.49028 0.0
C411 C 0.33943 0.61544 0.45216 0.0
O412 O 0.30409 0.54646 0.379 0.0
O413 O 0.35309 0.54043 0.41965 0.0
C414 C 0.21785 0.52269 0.4013 0.0
O415 O 0.3206 0.61028 0.42066 0.0
O416 O 0.34108 0.58852 0.47753 0.0
C417 C 0.29078 0.54636 0.5386 0.0
Fe418 Fe 0.23491 0.42585 0.90539 0.0
Fe419 Fe 0.17274 0.46526 0.95581 0.0
O420 O 0.22254 0.4563 0.94571 0.0
Fe421 Fe 0.25891 0.47771 0.97582 0.0
O422 O 0.27981 0.43024 0.987 0.0
O423 O 0.27933 0.40489 0.92791 0.0
O424 O 0.20765 0.38423 0.92555 0.0
C425 C 0.17159 0.3862 0.93331 0.0
C426 C 0.28943 0.4847 0.89828 0.0
O427 O 0.15471 0.41904 0.93546 0.0
C428 C 0.20651 0.53821 0.97593 0.0
O429 O 0.1929 0.44222 0.87533 0.0
O430 O 0.16732 0.49041 0.90971 0.0
O431 O 0.29365 0.48589 0.93518 0.0
O432 O 0.26256 0.46478 0.88273 0.0
C433 C 0.20009 0.45116 0.02901 0.0
O434 O 0.17983 0.51293 0.97882 0.0
O435 O 0.24098 0.52776 0.96768 0.0
C436 C 0.17389 0.47427 0.8772 0.0
O437 O 0.17688 0.44068 1.00225 0.0
O438 O 0.22979 0.47242 0.02136 0.0
C439 C 0.29126 0.40466 0.96294 0.0
Fe440 Fe 0.60098 0.77635 0.92452 0.0
Fe441 Fe 0.54851 0.83589 0.96673 0.0
O442 O 0.56101 0.78679 0.95626 0.0
Fe443 Fe 0.53366 0.74814 0.97767 0.0
O444 O 0.53998 0.71485 0.93631 0.0
O445 O 0.56927 0.74981 0.89079 0.0
O446 O 0.5944 0.82014 0.89354 0.0
C447 C 0.56454 0.84161 0.88849 0.0
C448 C 0.60838 0.71964 0.9843 0.0
O449 O 0.53969 0.84604 0.91545 0.0
C450 C 0.53699 0.80432 0.03895 0.0
O451 O 0.63543 0.8018 0.95646 0.0
O452 O 0.59857 0.85418 0.96406 0.0
O453 O 0.57721 0.72911 1.00194 0.0
O454 O 0.61465 0.73105 0.94967 0.0
C455 C 0.47489 0.79931 0.95904 0.0
O456 O 0.55613 0.82872 0.01879 0.0
O457 O 0.52197 0.77451 0.02293 0.0
C458 C 0.63072 0.83648 0.96851 0.0
O459 O 0.49623 0.82673 0.97151 0.0
O460 O 0.48816 0.76494 0.95481 0.0
C461 C 0.54735 0.72165 0.90075 0.0
Fe462 Fe 0.03309 0.76196 0.0281 0.0
Fe463 Fe 0.10175 0.73377 0.08014 0.0
O464 O 0.06004 0.72362 0.05098 0.0
Fe465 Fe 0.04529 0.67446 0.04489 0.0
O466 O 0.99325 0.68506 0.0397 0.0
O467 O 0.98763 0.74776 0.05289 0.0
O468 O 0.04096 0.79723 0.06801 0.0
C469 C 0.0514 0.79247 0.10326 0.0
C470 C 0.03602 0.70164 0.97045 0.0
O471 O 0.07274 0.76379 0.11313 0.0
C472 C 0.12726 0.66899 0.04064 0.0
O473 O 0.07623 0.77947 1.00196 0.0
O474 O 0.11701 0.7766 0.05174 0.0
O475 O 0.05288 0.67768 0.99295 0.0
O476 O 0.02071 0.73288 0.98393 0.0
C477 C 0.06324 0.67293 0.12226 0.0
O478 O 0.13363 0.70457 0.04838 0.0
O479 O 0.09456 0.65372 0.04853 0.0
C480 C 0.10879 0.78768 0.01746 0.0
O481 O 0.09401 0.69231 0.11438 0.0
O482 O 0.03682 0.66897 0.09684 0.0
C483 C 0.97321 0.71371 0.05153 0.0
Fe484 Fe 0.46216 0.33475 0.53133 0.0
Fe485 Fe 0.47797 0.24661 0.52525 0.0
O486 O 0.45037 0.28617 0.54489 0.0
Fe487 Fe 0.411 0.27736 0.57781 0.0
O488 O 0.41853 0.3224 0.60659 0.0
O489 O 0.47213 0.34796 0.58172 0.0
O490 O 0.51436 0.32584 0.52556 0.0
C491 C 0.53635 0.29984 0.53975 0.0
C492 C 0.3799 0.33573 0.53221 0.0
O493 O 0.52366 0.26561 0.54647 0.0
C494 C 0.40328 0.21674 0.52153 0.0
O495 O 0.45323 0.32434 0.48002 0.0
O496 O 0.48837 0.27051 0.47837 0.0
O497 O 0.37575 0.30154 0.54564 0.0
O498 O 0.41225 0.35329 0.53439 0.0
C499 C 0.46456 0.22321 0.60352 0.0
O500 O 0.43421 0.2252 0.50288 0.0
O501 O 0.3968 0.2312 0.55497 0.0
C502 C 0.47255 0.29913 0.46095 0.0
O503 O 0.47305 0.21551 0.5684 0.0
O504 O 0.44287 0.25198 0.6123 0.0
C505 C 0.44806 0.34467 0.60957 0.0
Fe506 Fe 0.90781 0.23693 0.43393 0.0
Fe507 Fe 0.96387 0.17814 0.47138 0.0
O508 O 0.95003 0.22719 0.46252 0.0
Fe509 Fe 0.97858 0.26608 0.48209 0.0
O510 O 0.96944 0.2997 0.44123 0.0
O511 O 0.93662 0.26427 0.39853 0.0
O512 O 0.9136 0.19383 0.40225 0.0
C513 C 0.94369 0.17361 0.39441 0.0
C514 C 0.90347 0.29284 0.49454 0.0
O515 O 0.97044 0.16909 0.41943 0.0
C516 C 0.97731 0.20967 0.54324 0.0
O517 O 0.87591 0.21014 0.46746 0.0
O518 O 0.91412 0.1585 0.47061 0.0
O519 O 0.93668 0.2854 0.50911 0.0
O520 O 0.89444 0.28136 0.46061 0.0
C521 C 0.03687 0.21511 0.46019 0.0
O522 O 0.95818 0.18483 0.52362 0.0
O523 O 0.99252 0.23929 0.52674 0.0
C524 C 0.88166 0.17493 0.47715 0.0
O525 O 0.01625 0.18787 0.47419 0.0
O526 O 0.02293 0.24932 0.45629 0.0
C527 C 0.95815 0.29323 0.40663 0.0
C528 C 0.16 0.45048 0.33885 0.0
C529 C 0.13613 0.47566 0.31671 0.0
C530 C 0.18618 0.46565 0.36681 0.0
C531 C 0.1896 0.50641 0.37283 0.0
H532 H 0.15753 0.41898 0.33541 0.0
H533 H 0.20397 0.44546 0.38361 0.0
S534 S 0.13365 0.58429 0.32129 0.0
N535 N 0.11769 0.54284 0.30223 0.0
N536 N 0.16678 0.57142 0.35392 0.0
C537 C 0.16618 0.53168 0.3502 0.0
C538 C 0.13946 0.51627 0.32235 0.0
C539 C 0.30775 0.51251 0.83313 0.0
C540 C 0.31827 0.50399 0.87205 0.0
C541 C 0.33496 0.52785 0.80651 0.0
C542 C 0.37397 0.53473 0.81751 0.0
H543 H 0.27826 0.50693 0.82294 0.0
H544 H 0.32559 0.53327 0.77676 0.0
S545 S 0.41606 0.51992 0.91644 0.0
N546 N 0.37009 0.50558 0.92069 0.0
N547 N 0.42131 0.53404 0.87061 0.0
C548 C 0.3847 0.52737 0.85658 0.0
C549 C 0.35683 0.51219 0.88385 0.0
C550 C 0.62681 0.02579 0.64992 0.0
C551 C 0.63632 0.03512 0.68892 0.0
C552 C 0.65521 0.01189 0.62357 0.0
C553 C 0.69431 0.00612 0.63519 0.0
H554 H 0.597 0.02896 0.6396 0.0
H555 H 0.6461 1.0045 0.59419 0.0
S556 S 0.73506 0.02762 0.73354 0.0
N557 N 0.68818 0.0389 0.73736 0.0
N558 N 0.74142 0.01252 0.68814 0.0
C559 C 0.70446 0.01616 0.67388 0.0
C560 C 0.67558 0.03074 0.7006 0.0
C561 C 0.8522 0.01026 0.19728 0.0
C562 C 0.87328 0.97565 0.18987 0.0
C563 C 0.82395 0.02384 0.17102 0.0
C564 C 0.81654 1.00386 0.13585 0.0
H565 H 0.85795 0.02725 0.22342 0.0
H566 H 0.80881 0.05097 0.17773 0.0
S567 S 0.86341 0.91123 0.10327 0.0
N568 N 0.88417 0.92084 0.1458 0.0
N569 N 0.83172 0.94707 0.09552 0.0
C570 C 0.83706 0.96886 0.12832 0.0
C571 C 0.86524 0.95451 0.15562 0.0
C572 C 0.37131 0.17981 0.46598 0.0
C573 C 0.37489 0.18736 0.5063 0.0
C574 C 0.34287 0.15353 0.45163 0.0
C575 C 0.31733 0.13356 0.47715 0.0
H576 H 0.39023 0.19467 0.44534 0.0
H577 H 0.34132 0.14838 0.42044 0.0
S578 S 0.31469 0.14284 0.58535 0.0
N579 N 0.35043 0.17217 0.57146 0.0
N580 N 0.29722 0.1238 0.5447 0.0
C581 C 0.32066 0.141 0.51748 0.0
C582 C 0.34936 0.16756 0.53198 0.0
C583 C 0.15027 0.87923 0.97 0.0
C584 C 0.19085 0.87162 0.96943 0.0
C585 C 0.12346 0.85099 0.98341 0.0
C586 C 0.13642 0.81459 0.99772 0.0
H587 H 0.13919 0.9074 0.96036 0.0
H588 H 0.0926 0.85837 0.98424 0.0
S589 S 0.23927 0.77977 1.00167 0.0
N590 N 0.24237 0.82433 0.98295 0.0
N591 N 0.19218 0.77193 0.0095 0.0
C592 C 0.17676 0.80636 0.99668 0.0
C593 C 0.20394 0.83467 0.98214 0.0
C594 C 0.88763 0.35634 0.52742 0.0
C595 C 0.87569 0.31905 0.51482 0.0
C596 C 0.86002 0.38414 0.54009 0.0
C597 C 0.81971 0.37525 0.54144 0.0
H598 H 0.91814 0.36478 0.52547 0.0
H599 H 0.87022 0.41315 0.54806 0.0
S600 S 0.77426 0.28029 0.51476 0.0
N601 N 0.82147 0.27377 0.50639 0.0
N602 N 0.76976 0.32558 0.53139 0.0
C603 C 0.80779 0.33728 0.53101 0.0
C604 C 0.83576 0.30931 0.51732 0.0
C605 C 0.69084 0.64576 0.99203 0.0
C606 C 0.69225 0.63662 0.03203 0.0
C607 C 0.66376 0.6726 0.97732 0.0
C608 C 0.63646 0.69143 1.00186 0.0
H609 H 0.71094 0.632 0.97163 0.0
H610 H 0.6641 0.67821 0.9462 0.0
S611 S 0.62808 0.67833 0.10919 0.0
N612 N 0.66434 0.64889 0.09631 0.0
N613 N 0.61296 0.69956 0.06852 0.0
C614 C 0.63759 0.68289 0.04208 0.0
C615 C 0.66564 0.65557 0.05723 0.0
C616 C 0.47734 0.3582 0.12674 0.0
C617 C 0.47534 0.31799 0.13624 0.0
C618 C 0.49031 0.3861 0.15409 0.0
C619 C 0.50258 0.37455 0.19149 0.0
H620 H 0.46909 0.36816 0.09785 0.0
H621 H 0.49231 0.41659 0.14537 0.0
S622 S 0.50242 0.27334 0.2312 0.0
N623 N 0.48552 0.26847 0.18626 0.0
N624 N 0.51114 0.32063 0.23704 0.0
C625 C 0.50017 0.33464 0.20154 0.0
C626 C 0.48617 0.30642 0.17409 0.0
C627 C 0.95171 0.17784 0.8462 0.0
C628 C 0.97623 0.19572 0.87394 0.0
C629 C 0.96652 0.14935 0.82039 0.0
C630 C 0.00637 0.13881 0.8211 0.0
H631 H 0.92087 0.18524 0.84511 0.0
H632 H 0.94692 0.13602 0.79938 0.0
S633 S 0.08237 0.17791 0.88801 0.0
N634 N 0.04183 0.20105 0.90067 0.0
N635 N 0.06989 0.1486 0.85173 0.0
C636 C 0.03107 0.15695 0.84849 0.0
C637 C 0.01591 0.18517 0.87504 0.0
C638 C 0.53911 0.85466 0.3138 0.0
C639 C 0.50174 0.87177 0.31708 0.0
C640 C 0.55218 0.8268 0.34135 0.0
C641 C 0.52855 0.81597 0.37336 0.0
H642 H 0.55788 0.86212 0.28939 0.0
H643 H 0.58112 0.81422 0.33797 0.0
S644 S 0.42863 0.85298 0.39512 0.0
N645 N 0.4415 0.87599 0.3547 0.0
N646 N 0.46617 0.8247 0.40653 0.0
C647 C 0.49137 0.83333 0.37697 0.0
C648 C 0.47795 0.86096 0.34883 0.0
C649 C 0.02549 0.70236 0.67129 0.0
C650 C 0.04287 0.6911 0.63586 0.0
C651 C 0.01048 0.67417 0.69704 0.0
C652 C 0.01329 0.63379 0.68869 0.0
H653 H 0.02186 0.73316 0.6783 0.0
H654 H 0.99599 0.68409 0.72345 0.0
S655 S 0.05963 0.58931 0.60127 0.0
N656 N 0.06417 0.63708 0.59456 0.0
N657 N 0.03701 0.584 0.64363 0.0
C658 C 0.03248 0.62214 0.6543 0.0
C659 C 0.04695 0.65087 0.62766 0.0
C660 C 0.87961 0.54438 0.64707 0.0
C661 C 0.87289 0.54227 0.68765 0.0
C662 C 0.85167 0.53091 0.62012 0.0
C663 C 0.81648 0.5137 0.6328 0.0
H664 H 0.90704 0.55594 0.63609 0.0
H665 H 0.85849 0.53227 0.58923 0.0
S666 S 0.78429 0.50237 0.73583 0.0
N667 N 0.82775 0.52336 0.73909 0.0
N668 N 0.77579 0.49673 0.68865 0.0
C669 C 0.80904 0.51225 0.67328 0.0
C670 C 0.83707 0.5269 0.70065 0.0
C671 C 0.6747 0.48011 0.1997 0.0
C672 C 0.63531 0.47515 0.18901 0.0
C673 C 0.70212 0.49538 0.17322 0.0
C674 C 0.6914 0.50572 0.13479 0.0
H675 H 0.68421 0.47336 0.22914 0.0
H676 H 0.73193 0.49956 0.18317 0.0
S677 S 0.59252 0.49523 0.09127 0.0
N678 N 0.58736 0.47959 0.13661 0.0
N679 N 0.63895 0.5079 0.08688 0.0
C680 C 0.65244 0.49937 0.12324 0.0
C681 C 0.62439 0.48427 0.15034 0.0
C682 C 0.33444 0.98003 0.30535 0.0
C683 C 0.37252 0.97057 0.31764 0.0
C684 C 0.30735 0.99682 0.33124 0.0
C685 C 0.31713 1.00425 0.37055 0.0
H686 H 0.3259 0.97572 0.27519 0.0
H687 H 0.2786 1.00439 0.32017 0.0
S688 S 0.41221 0.98133 0.41799 0.0
N689 N 0.41806 0.96754 0.37213 0.0
N690 N 0.36711 0.99856 0.42092 0.0
C691 C 0.35469 0.99335 0.38356 0.0
C692 C 0.38239 0.97671 0.35707 0.0
C693 C 0.19677 1.00438 0.83312 0.0
C694 C 0.19086 0.00863 0.87362 0.0
C695 C 0.16987 0.01966 0.8062 0.0
C696 C 0.13571 0.03865 0.81903 0.0
H697 H 0.22219 0.98879 0.82219 0.0
H698 H 0.17499 0.01516 0.77528 0.0
S699 S 0.10723 0.05861 0.92171 0.0
N700 N 0.14927 0.03484 0.9251 0.0
N701 N 0.09796 0.06226 0.87451 0.0
C702 C 0.12982 0.04376 0.85935 0.0
C703 C 0.15765 0.02911 0.88669 0.0
C704 C 0.68742 0.86838 0.49149 0.0
C705 C 0.69085 0.87689 0.53153 0.0
C706 C 0.65939 0.84213 0.47771 0.0
C707 C 0.6332 0.8233 0.50328 0.0
H708 H 0.70661 0.88219 0.47034 0.0
H709 H 0.6581 0.83693 0.44652 0.0
S710 S 0.63044 0.83444 0.61111 0.0
N711 N 0.66619 0.86381 0.59695 0.0
N712 N 0.61305 0.81413 0.57088 0.0
C713 C 0.63639 0.83113 0.54354 0.0
C714 C 0.6654 0.85785 0.55772 0.0
C715 C 0.86904 0.18219 0.04033 0.0
C716 C 0.87489 0.18901 1.0002 0.0
C717 C 0.84249 0.15335 0.05333 0.0
C718 C 0.82135 0.13002 0.02662 0.0
H719 H 0.88445 0.19973 0.06175 0.0
H720 H 0.8387 0.14916 0.08446 0.0
S721 S 0.82712 0.13555 0.91829 0.0
N722 N 0.85813 0.16906 0.9339 0.0
N723 N 0.80838 0.11591 0.95811 0.0
C724 C 0.82739 0.13641 0.98645 0.0
C725 C 0.85412 0.16556 0.97332 0.0
C726 C 0.15561 0.6665 0.52897 0.0
C727 C 0.13844 0.69505 0.5047 0.0
C728 C 0.18172 0.63856 0.51405 0.0
C729 C 0.19264 0.63863 0.47446 0.0
H730 H 0.14835 0.66532 0.55978 0.0
H731 H 0.19374 0.61681 0.53379 0.0
S732 S 0.15649 0.70716 0.39856 0.0
N733 N 0.13398 0.72147 0.43892 0.0
N734 N 0.18433 0.66949 0.41106 0.0
C735 C 0.17617 0.66719 0.44983 0.0
C736 C 0.14867 0.6952 0.46488 0.0
C737 C 0.35053 0.33966 0.03079 0.0
C738 C 0.37629 0.31938 0.00567 0.0
C739 C 0.32339 0.36686 0.01651 0.0
C740 C 0.32025 0.3749 0.97635 0.0
H741 H 0.35139 0.33477 0.06202 0.0
H742 H 0.30444 0.38153 0.03735 0.0
S743 S 0.38067 0.32993 0.89786 0.0
N744 N 0.39699 0.30939 0.93841 0.0
N745 N 0.34554 0.36042 0.9114 0.0
C746 C 0.34565 0.3548 0.95068 0.0
C747 C 0.37379 0.32722 0.96538 0.0
C748 C 0.53931 0.65298 0.81334 0.0
C749 C 0.50137 0.63758 0.81795 0.0
C750 C 0.55396 0.68127 0.8395 0.0
C751 C 0.53135 0.69419 0.87144 0.0
H752 H 0.55735 0.64378 0.78894 0.0
H753 H 0.58329 0.69252 0.83516 0.0
S754 S 0.4305 0.66225 0.89639 0.0
N755 N 0.44171 0.63717 0.85667 0.0
N756 N 0.46928 0.68941 0.90602 0.0
C757 C 0.49356 0.67862 0.87637 0.0
C758 C 0.47855 0.65053 0.84957 0.0
C759 C 0.00939 0.88584 0.14824 0.0
C760 C 0.00963 0.87764 0.18846 0.0
C761 C 0.02359 0.85844 0.12101 0.0
C762 C 0.03907 0.82195 0.13296 0.0
H763 H 0.99679 0.91298 0.13755 0.0
H764 H 0.02188 0.86578 0.09029 0.0
S765 S 0.04924 0.78782 0.23551 0.0
N766 N 0.02873 0.83153 0.23921 0.0
N767 N 0.05551 0.78023 0.18828 0.0
C768 C 0.04088 0.81414 0.1733 0.0
C769 C 0.02613 0.84189 0.20095 0.0
C770 C 0.46692 0.14919 0.68675 0.0
C771 C 0.50625 0.13676 0.68616 0.0
C772 C 0.45359 0.17869 0.66112 0.0
C773 C 0.47909 0.19594 0.63373 0.0
H774 H 0.44658 0.13654 0.70752 0.0
H775 H 0.42305 0.18728 0.662 0.0
S776 S 0.5844 0.17323 0.62005 0.0
N777 N 0.57029 0.14403 0.65584 0.0
N778 N 0.54511 0.19848 0.60753 0.0
C779 C 0.51827 0.18354 0.63283 0.0
C780 C 0.53189 0.1542 0.65909 0.0
C781 C 0.96878 0.36192 0.38357 0.0
C782 C 0.96922 0.32135 0.37579 0.0
C783 C 0.98234 0.38908 0.35586 0.0
C784 C 0.99785 0.3764 0.31998 0.0
H785 H 0.95831 0.3727 0.41148 0.0
H786 H 0.98234 0.41999 0.36328 0.0
S787 S 1.00459 0.27346 0.28519 0.0
N788 N 0.98484 0.26999 0.32912 0.0
N789 N 0.01165 0.32079 0.27758 0.0
C790 C 0.99771 0.33597 0.31159 0.0
C791 C 0.98301 0.30848 0.33936 0.0
C792 C 0.15916 0.41565 0.07748 0.0
C793 C 0.18655 0.44551 0.06977 0.0
C794 C 0.13764 0.41513 0.11219 0.0
C795 C 0.14222 0.44484 0.14017 0.0
H796 H 0.15263 0.39371 0.05559 0.0
H797 H 0.11532 0.39283 0.11591 0.0
S798 S 0.21524 0.52489 0.13823 0.0
N799 N 0.22199 0.50139 0.09653 0.0
N800 N 0.17924 0.50181 0.16087 0.0
C801 C 0.17146 0.47307 0.13452 0.0
C802 C 0.19443 0.47289 0.0996 0.0
C803 C 0.31191 0.52114 0.60229 0.0
C804 C 0.2991 0.55339 0.5801 0.0
C805 C 0.3378 0.52607 0.63357 0.0
C806 C 0.35154 0.56348 0.64397 0.0
H807 H 0.3052 0.49158 0.59284 0.0
H808 H 0.34939 0.50017 0.64783 0.0
S809 S 0.32259 0.65777 0.59824 0.0
N810 N 0.29873 0.62413 0.57296 0.0
N811 N 0.34685 0.63377 0.63247 0.0
C812 C 0.33567 0.59633 0.6247 0.0
C813 C 0.30947 0.59118 0.59254 0.0
C814 C 0.65339 0.01662 0.88289 0.0
C815 C 0.64652 0.05256 0.86377 0.0
C816 C 0.67914 0.01425 0.91458 0.0
C817 C 0.69872 0.04772 0.92824 0.0
H818 H 0.63685 0.99069 0.87506 0.0
H819 H 0.68079 0.98697 0.93074 0.0
S820 S 0.69703 0.14686 0.88452 0.0
N821 N 0.66649 0.12102 0.85742 0.0
N822 N 0.71392 0.11629 0.91791 0.0
C823 C 0.69511 0.08281 0.90739 0.0
C824 C 0.66931 0.08527 0.87477 0.0
C825 C 0.82178 0.98065 0.40729 0.0
C826 C 0.81404 0.94727 0.43012 0.0
C827 C 0.84405 0.97779 0.3729 0.0
C828 C 0.85826 0.94139 0.35975 0.0
H829 H 0.81396 0.00949 0.41796 0.0
H830 H 0.85286 1.00453 0.35827 0.0
S831 S 0.83988 0.84464 0.4053 0.0
N832 N 0.81827 0.87634 0.43487 0.0
N833 N 0.85861 0.87085 0.36922 0.0
C834 C 0.84712 0.90745 0.38005 0.0
C835 C 0.82534 0.91042 0.41556 0.0
C836 C 0.13252 0.1651 0.47814 0.0
C837 C 0.14594 0.15747 0.44009 0.0
C838 C 0.09962 0.18885 0.48477 0.0
C839 C 0.07872 0.2058 0.45361 0.0
H840 H 0.14548 0.14988 0.50273 0.0
H841 H 0.08825 0.19089 0.51427 0.0
S842 S 0.10482 0.19863 0.34881 0.0
N843 N 0.13833 0.17171 0.37108 0.0
N844 N 0.0762 0.21644 0.38357 0.0
C845 C 0.09389 0.20127 0.41569 0.0
C846 C 0.12756 0.17696 0.40891 0.0
C847 C 0.38028 0.84681 0.98381 0.0
C848 C 0.36703 0.85922 0.94692 0.0
C849 C 0.41276 0.822 0.98743 0.0
C850 C 0.43316 0.80862 0.95432 0.0
H851 H 0.36722 0.8586 0.01017 0.0
H852 H 0.42421 0.81628 0.01639 0.0
S853 S 0.40787 0.82848 0.85114 0.0
N854 N 0.37444 0.85269 0.87646 0.0
N855 N 0.43596 0.8063 0.88363 0.0
C856 C 0.41818 0.81771 0.9173 0.0
C857 C 0.38491 0.84296 0.91349 0.0
C858 C 0.59768 0.32584 0.51206 0.0
C859 C 0.57772 0.31104 0.54485 0.0
C860 C 0.62921 0.35179 0.51611 0.0
C861 C 0.64201 0.36418 0.55318 0.0
H862 H 0.5866 0.32007 0.48297 0.0
H863 H 0.642 0.36419 0.4899 0.0
S864 S 0.60185 0.33071 0.64839 0.0
N865 N 0.57478 0.30792 0.6155 0.0
N866 N 0.6344 0.35645 0.62353 0.0
C867 C 0.62447 0.34687 0.58631 0.0
C868 C 0.59219 0.32038 0.58203 0.0
C869 C 0.89232 0.66325 0.10443 0.0
C870 C 0.86453 0.65795 0.07463 0.0
C871 C 0.92556 0.68675 0.09854 0.0
C872 C 0.93232 0.70538 0.06253 0.0
H873 H 0.89012 0.64641 0.1312 0.0
H874 H 0.94797 0.68716 0.1209 0.0
S875 S 0.86684 0.70337 0.97642 0.0
N876 N 0.84419 0.67585 0.00914 0.0
N877 N 0.9072 0.71929 0.99776 0.0
C878 C 0.90328 0.70277 0.03365 0.0
C879 C 0.8692 0.67917 0.03979 0.0
C880 C 0.41622 0.09096 0.19173 0.0
C881 C 0.45205 0.07747 0.20678 0.0
C882 C 0.41476 0.12323 0.16623 0.0
C883 C 0.44927 0.1424 0.15425 0.0
H884 H 0.38976 0.07405 0.19639 0.0
H885 H 0.38692 0.13074 0.15302 0.0
S886 S 0.54937 0.12282 0.1911 0.0
N887 N 0.52184 0.08934 0.21264 0.0
N888 N 0.51935 0.14933 0.16398 0.0
C889 C 0.48467 0.13157 0.17207 0.0
C890 C 0.48597 0.0993 0.19863 0.0
C891 C 0.98695 0.40546 0.80782 0.0
C892 C 0.95428 0.42756 0.79585 0.0
C893 C 0.9835 0.37579 0.8359 0.0
C894 C 0.94698 0.36623 0.8521 0.0
H895 H 0.01598 0.41402 0.79868 0.0
H896 H 0.00988 0.36195 0.84673 0.0
S897 S 0.85127 0.4094 0.82393 0.0
N898 N 0.88368 0.43416 0.79793 0.0
N899 N 0.87649 0.37669 0.84912 0.0
C900 C 0.91339 0.38451 0.8365 0.0
C901 C 0.91718 0.4155 0.80855 0.0
C902 C 0.58658 0.59362 0.32049 0.0
C903 C 0.55016 0.57639 0.31222 0.0
C904 C 0.58947 0.62531 0.34678 0.0
C905 C 0.55609 0.64006 0.36623 0.0
H906 H 0.61324 0.5803 0.30951 0.0
H907 H 0.61833 0.63606 0.35431 0.0
S908 S 0.45359 0.6079 0.35061 0.0
N909 N 0.47988 0.57904 0.32206 0.0
N910 N 0.48516 0.63783 0.37168 0.0
C911 C 0.5193 0.62506 0.35563 0.0
C912 C 0.5164 0.59345 0.32851 0.0
C913 C 0.01749 0.91342 0.6923 0.0
C914 C 0.04982 0.93265 0.70876 0.0
C915 C 0.02247 0.88137 0.66741 0.0
C916 C 0.05999 0.86714 0.65792 0.0
H917 H 0.98842 0.92582 0.69531 0.0
H918 H 0.99686 0.86986 0.65285 0.0
S919 S 0.15346 0.9017 0.70101 0.0
N920 N 0.12 0.93149 0.71949 0.0
N921 N 0.12963 0.87039 0.67285 0.0
C922 C 0.09225 0.88295 0.67816 0.0
C923 C 0.08707 0.91598 0.70358 0.0
C924 C 0.87485 0.59341 0.89648 0.0
C925 C 0.86935 0.56424 0.86812 0.0
C926 C 0.8528 0.59356 0.93082 0.0
C927 C 0.82403 0.56486 0.93788 0.0
H928 H 0.89809 0.61483 0.89325 0.0
H929 H 0.86001 0.61498 0.95301 0.0
S930 S 0.79269 0.48768 0.86811 0.0
N931 N 0.82994 0.5094 0.84615 0.0
N932 N 0.78663 0.51077 0.91014 0.0
C933 C 0.81546 0.53805 0.90773 0.0
C934 C 0.83881 0.5373 0.87304 0.0
C935 C 0.66584 0.41235 0.38696 0.0
C936 C 0.65666 0.44454 0.36289 0.0
C937 C 0.69206 0.41642 0.41841 0.0
C938 C 0.71053 0.45249 0.42616 0.0
H939 H 0.64995 0.38503 0.38383 0.0
H940 H 0.69472 0.39249 0.43907 0.0
S941 S 0.7022 0.54296 0.36679 0.0
N942 N 0.67191 0.5118 0.34559 0.0
N943 N 0.72236 0.51879 0.40347 0.0
C944 C 0.70495 0.48325 0.39944 0.0
C945 C 0.6776 0.4795 0.36815 0.0
C946 C 0.31187 0.98592 0.09875 0.0
C947 C 0.30219 0.95306 0.07601 0.0
C948 C 0.33554 0.98222 0.13186 0.0
C949 C 0.35045 0.9455 0.14324 0.0
H950 H 0.30429 0.01508 0.08877 0.0
H951 H 0.34475 0.00869 0.1468 0.0
S952 S 0.32931 0.84988 0.09589 0.0
N953 N 0.30564 0.88239 0.06898 0.0
N954 N 0.35005 0.875 0.13158 0.0
C955 C 0.33767 0.9119 0.12297 0.0
C956 C 0.31355 0.91581 0.08911 0.0
C957 C 0.17427 0.09401 0.58339 0.0
C958 C 0.18885 0.05811 0.56944 0.0
C959 C 0.15324 0.09583 0.61848 0.0
C960 C 0.14526 0.06155 0.63994 0.0
H961 H 0.17733 0.12041 0.56604 0.0
H962 H 0.14049 0.12366 0.62708 0.0
S963 S 0.17992 0.96113 0.61736 0.0
N964 N 0.19704 0.98837 0.58134 0.0
N965 N 0.15616 0.9915 0.6466 0.0
C966 C 0.16176 0.02599 0.62752 0.0
C967 C 0.18398 0.02434 0.59237 0.0
C968 C 0.90738 0.81 0.5294 0.0
C969 C 0.93246 0.80379 0.56141 0.0
C970 C 0.87411 0.83422 0.5327 0.0
C971 C 0.86435 0.85221 0.56837 0.0
H972 H 0.91563 0.79931 0.50076 0.0
H973 H 0.85791 0.84154 0.5065 0.0
S974 S 0.91585 0.83869 0.66252 0.0
N975 N 0.94202 0.81289 0.63098 0.0
N976 N 0.87905 0.85755 0.63744 0.0
C977 C 0.88658 0.84251 0.60147 0.0
C978 C 0.92068 0.8183 0.59797 0.0
C979 C 0.63218 0.17138 0.09009 0.0
C980 C 0.64938 0.15404 0.05687 0.0
C981 C 0.59832 0.19492 0.0868 0.0
C982 C 0.58088 0.2018 0.05019 0.0
H983 H 0.64262 0.16365 0.11895 0.0
H984 H 0.5836 0.20441 0.11323 0.0
S985 S 0.61646 0.16534 0.95452 0.0
N986 N 0.64809 0.14757 0.9864 0.0
N987 N 0.58502 0.19168 0.98019 0.0
C988 C 0.59982 0.18718 0.01674 0.0
C989 C 0.63392 0.16326 0.02009 0.0
C990 C 0.41373 0.68259 0.49806 0.0
C991 C 0.43069 0.70154 0.46574 0.0
C992 C 0.38192 0.65734 0.4937 0.0
C993 C 0.36586 0.6497 0.45671 0.0
H994 H 0.42742 0.68431 0.52646 0.0
H995 H 0.37177 0.64151 0.51921 0.0
S996 S 0.39483 0.69825 0.36387 0.0
N997 N 0.42578 0.7158 0.39656 0.0
N998 N 0.36539 0.66826 0.38788 0.0
C999 C 0.37971 0.6719 0.42471 0.0
C1000 C 0.41233 0.69787 0.42935 0.0
C1001 C 0.10189 0.3177 0.9822 0.0
C1002 C 0.07727 0.30683 0.95114 0.0
C1003 C 0.1363 0.33921 0.97548 0.0
C1004 C 0.14693 0.35098 0.93759 0.0
H1005 H 0.09273 0.31256 0.01209 0.0
H1006 H 0.15267 0.34986 1.00037 0.0
S1007 S 0.09432 0.32681 0.8462 0.0
N1008 N 0.06769 0.30626 0.88095 0.0
N1009 N 0.13194 0.3475 0.86844 0.0
C1010 C 0.12426 0.3376 0.90611 0.0
C1011 C 0.08946 0.31529 0.91289 0.0
C1012 C 0.52392 0.87642 0.83901 0.0
C1013 C 0.56126 0.86689 0.85341 0.0
C1014 C 0.5188 0.90687 0.81202 0.0
C1015 C 0.55074 0.92924 0.79874 0.0
H1016 H 0.49818 0.86199 0.85065 0.0
H1017 H 0.48921 0.91562 0.80469 0.0
S1018 S 0.65492 0.91348 0.82412 0.0
N1019 N 0.63124 0.87948 0.84914 0.0
N1020 N 0.62122 0.93757 0.79914 0.0
C1021 C 0.58852 0.91773 0.81009 0.0
C1022 C 0.59389 0.88635 0.83735 0.0
C1023 C 0.02432 0.63548 0.17132 0.0
C1024 C 0.06123 0.64733 0.15738 0.0
C1025 C 0.02048 0.60342 0.19662 0.0
C1026 C 0.05335 0.58188 0.20894 0.0
H1027 H 0.99793 0.64915 0.16026 0.0
H1028 H 0.9913 0.59299 0.20338 0.0
S1029 S 0.15686 0.60442 0.18617 0.0
N1030 N 0.13176 0.63819 0.16226 0.0
N1031 N 0.12416 0.57729 0.2093 0.0
C1032 C 0.09059 0.5958 0.19864 0.0
C1033 C 0.09465 0.62875 0.17297 0.0
C1034 C 0.49214 0.41867 0.67903 0.0
C1035 C 0.45897 0.43691 0.69534 0.0
C1036 C 0.48846 0.38688 0.65336 0.0
C1037 C 0.45143 0.37211 0.64307 0.0
H1038 H 0.52093 0.43131 0.6834 0.0
H1039 H 0.51467 0.37537 0.63962 0.0
S1040 S 0.35575 0.40747 0.68096 0.0
N1041 N 0.38834 0.43635 0.70198 0.0
N1042 N 0.38107 0.37604 0.6542 0.0
C1043 C 0.41822 0.38795 0.66191 0.0
C1044 C 0.42209 0.42054 0.68796 0.0
C1045 C 0.91264 0.08616 0.33583 0.0
C1046 C 0.94552 0.07912 0.31195 0.0
C1047 C 0.91082 0.11899 0.36021 0.0
C1048 C 0.94195 0.14572 0.36175 0.0
H1049 H 0.88955 0.06451 0.338 0.0
H1050 H 0.88638 0.1217 0.38022 0.0
S1051 S 0.0291 0.14673 0.29773 0.0
N1052 N 0.00599 0.10593 0.28565 0.0
N1053 N 1.00272 0.16761 0.33245 0.0
C1054 C 0.97283 0.14154 0.33509 0.0
C1055 C 0.97445 0.10831 0.30968 0.0
C1056 C 0.97522 0.36946 0.13129 0.0
C1057 C 0.0101 0.35738 0.14942 0.0
C1058 C 0.9613 0.35105 0.09759 0.0
C1059 C 0.98222 0.32016 0.08005 0.0
H1060 H 0.96034 0.39559 0.14132 0.0
H1061 H 0.93541 0.363 0.08367 0.0
S1062 S 0.07381 0.27533 0.11818 0.0
N1063 N 0.06376 0.31084 0.1495 0.0
N1064 N 0.03811 0.2759 0.08565 0.0
C1065 C 0.01566 0.30569 0.09966 0.0
C1066 C 0.02959 0.32448 0.13441 0.0
C1067 C 0.47869 0.70808 0.59319 0.0
C1068 C 0.51943 0.70522 0.58698 0.0
C1069 C 0.46063 0.68878 0.62453 0.0
C1070 C 0.48298 0.6678 0.65177 0.0
H1071 H 0.46021 0.72248 0.5719 0.0
H1072 H 0.42894 0.68774 0.62575 0.0
S1073 S 0.591 0.66158 0.65548 0.0
N1074 N 0.58191 0.68599 0.61475 0.0
N1075 N 0.54798 0.65169 0.67517 0.0
C1076 C 0.52392 0.66917 0.64884 0.0
C1077 C 0.54224 0.68752 0.6161 0.0
C1078 C 0.46431 0.15969 0.91155 0.0
C1079 C 0.48419 0.19188 0.92783 0.0
C1080 C 0.47841 0.14065 0.87827 0.0
C1081 C 0.51284 0.15301 0.85946 0.0
H1082 H 0.43918 0.14711 0.92615 0.0
H1083 H 0.46396 0.11396 0.86908 0.0
S1084 S 0.57198 0.24013 0.88521 0.0
N1085 N 0.53701 0.23913 0.91862 0.0
N1086 N 0.5638 0.20234 0.85609 0.0
C1087 C 0.53088 0.18746 0.87268 0.0
C1088 C 0.5164 0.20721 0.90682 0.0
C1089 C 0.03965 0.81905 0.39972 0.0
C1090 C 0.01919 0.82266 0.43521 0.0
C1091 C 0.0264 0.83862 0.36597 0.0
C1092 C 0.99214 0.86158 0.36699 0.0
H1093 H 0.06679 0.80261 0.39854 0.0
H1094 H 0.04378 0.83714 0.33951 0.0
S1095 S 0.93014 0.88214 0.45343 0.0
N1096 N 0.96452 0.85226 0.46958 0.0
N1097 N 0.93912 0.8876 0.40641 0.0
C1098 C 0.97124 0.86444 0.40209 0.0
C1099 C 0.98493 0.84529 0.43622 0.0
C1100 C 0.13443 0.98021 0.34567 0.0
C1101 C 0.14777 0.01922 0.34392 0.0
C1102 C 0.10226 0.96779 0.32384 0.0
C1103 C 0.08297 0.99369 0.29864 0.0
H1104 H 0.14683 0.96004 0.36653 0.0
H1105 H 0.09026 0.93889 0.32943 0.0
S1106 S 0.11359 0.09494 0.27427 0.0
N1107 N 0.14446 0.08109 0.30873 0.0
N1108 N 0.08404 0.05729 0.26676 0.0
C1109 C 0.09932 0.03094 0.29227 0.0
C1110 C 0.13199 0.04381 0.315 0.0
C1111 C 0.41502 0.98117 0.80479 0.0
C1112 C 0.42373 0.02155 0.80556 0.0
C1113 C 0.38339 0.966 0.82623 0.0
C1114 C 0.35906 0.99089 0.84819 0.0
H1115 H 0.43474 0.96081 0.7905 0.0
H1116 H 0.37981 0.93446 0.82805 0.0
S1117 S 0.36483 0.09925 0.85324 0.0
N1118 N 0.40238 0.08642 0.82556 0.0
N1119 N 0.34239 0.05799 0.86513 0.0
C1120 C 0.36513 0.03152 0.84596 0.0
C1121 C 0.3976 0.04688 0.82469 0.0
C1122 C 0.62615 0.53739 0.63271 0.0
C1123 C 0.64549 0.50356 0.64601 0.0
C1124 C 0.59369 0.55248 0.65246 0.0
C1125 C 0.57909 0.53429 0.68636 0.0
H1126 H 0.63449 0.55073 0.60519 0.0
H1127 H 0.57828 0.57687 0.6393 0.0
S1128 S 0.62284 0.44747 0.73565 0.0
N1129 N 0.65071 0.45435 0.69678 0.0
N1130 N 0.58963 0.48274 0.73473 0.0
C1131 C 0.60045 0.50235 0.7019 0.0
C1132 C 0.63371 0.48695 0.68151 0.0
C1133 C 0.91466 0.53006 0.20551 0.0
C1134 C 0.925 0.4901 0.20442 0.0
C1135 C 0.88236 0.54392 0.18436 0.0
C1136 C 0.85975 0.51803 0.1618 0.0
H1137 H 0.93369 0.55118 0.21953 0.0
H1138 H 0.87756 0.5753 0.18255 0.0
S1139 S 0.86858 0.40974 0.15879 0.0
N1140 N 0.90553 0.42418 0.18633 0.0
N1141 N 0.84502 0.4501 0.14605 0.0
C1142 C 0.8669 0.47757 0.16477 0.0
C1143 C 0.8996 0.46358 0.18628 0.0
C1144 C 0.3588 0.13575 0.98203 0.0
C1145 C 0.35185 0.14841 0.02041 0.0
C1146 C 0.33905 0.1034 0.96644 0.0
C1147 C 0.31131 0.08247 0.98853 0.0
H1148 H 0.38188 0.14912 0.96495 0.0
H1149 H 0.34761 0.09307 0.93784 0.0
S1150 S 0.27903 0.10733 0.08922 0.0
N1151 N 0.31311 0.1402 0.07918 0.0
N1152 N 0.27469 0.07993 0.04962 0.0
C1153 C 0.30139 0.09723 0.02579 0.0
C1154 C 0.32206 0.13006 0.04185 0.0
C1155 C 0.84046 0.40028 0.95759 0.0
C1156 C 0.84799 0.36697 0.98044 0.0
C1157 C 0.82149 0.43292 0.97343 0.0
C1158 C 0.80911 0.43344 0.01257 0.0
H1159 H 0.8525 0.40252 0.92836 0.0
H1160 H 0.81965 0.45922 0.95593 0.0
S1161 S 0.81778 0.35175 0.08321 0.0
N1162 N 0.83858 0.33476 0.04298 0.0
N1163 N 0.80224 0.39651 0.07279 0.0
C1164 C 0.81326 0.39909 0.03477 0.0
C1165 C 0.83286 0.36564 0.0186 0.0
C1166 C 0.68043 0.6288 0.4616 0.0
C1167 C 0.66352 0.65496 0.48849 0.0
C1168 C 0.70096 0.59556 0.47447 0.0
C1169 C 0.70426 0.58705 0.51448 0.0
H1170 H 0.67468 0.63206 0.43064 0.0
H1171 H 0.71097 0.57459 0.45306 0.0
S1172 S 0.67279 0.65069 0.59608 0.0
N1173 N 0.65717 0.67374 0.55658 0.0
N1174 N 0.69499 0.61052 0.58064 0.0
C1175 C 0.69094 0.61494 0.54145 0.0
C1176 C 0.67067 0.64912 0.52842 0.0
C1177 C 0.18872 0.88366 0.53888 0.0
C1178 C 0.15819 0.86463 0.51894 0.0
C1179 C 0.20919 0.91488 0.52125 0.0
C1180 C 0.19903 0.92824 0.48368 0.0
H1181 H 0.1946 0.87657 0.56915 0.0
H1182 H 0.23049 0.93088 0.53838 0.0
S1183 S 0.12636 0.88338 0.41724 0.0
N1184 N 0.12336 0.85716 0.45767 0.0
N1185 N 0.16053 0.91658 0.42553 0.0
C1186 C 0.17129 0.9069 0.46243 0.0
C1187 C 0.15108 0.8749 0.47991 0.0
C1188 C 0.98299 0.6839 0.87397 0.0
C1189 C 1.00198 0.64993 0.86022 0.0
C1190 C 0.99598 0.70299 0.90822 0.0
C1191 C 0.02821 0.68851 0.92968 0.0
H1192 H 0.95614 0.6937 0.86026 0.0
H1193 H 0.97888 0.72728 0.91948 0.0
S1194 S 0.08982 0.60276 0.90335 0.0
N1195 N 0.0561 0.60466 0.86895 0.0
N1196 N 0.08109 0.64072 0.93182 0.0
C1197 C 0.04925 0.65668 0.91399 0.0
C1198 C 0.03592 0.63731 0.8797 0.0
C1199 C 0.48081 0.35514 0.36641 0.0
C1200 C 0.51943 0.34712 0.3548 0.0
C1201 C 0.46436 0.33674 0.39904 0.0
C1202 C 0.48583 0.30933 0.42094 0.0
H1203 H 0.46444 0.37833 0.35227 0.0
H1204 H 0.43579 0.34622 0.40882 0.0
S1205 S 0.58642 0.27404 0.39834 0.0
N1206 N 0.57739 0.30739 0.36454 0.0
N1207 N 0.5463 0.2713 0.4252 0.0
C1208 C 0.52309 0.29796 0.40688 0.0
C1209 C 0.53999 0.3173 0.37391 0.0
C1210 C 0.54358 0.84622 0.09838 0.0
C1211 C 0.5238 0.816 0.07864 0.0
C1212 C 0.52683 0.86464 0.1309 0.0
C1213 C 0.48984 0.85343 0.14501 0.0
H1214 H 0.57104 0.85749 0.08718 0.0
H1215 H 0.54172 0.88974 0.14337 0.0
S1216 S 0.42768 0.77335 0.10712 0.0
N1217 N 0.46661 0.77305 0.07844 0.0
N1218 N 0.43528 0.80854 0.13939 0.0
C1219 C 0.47114 0.82131 0.12784 0.0
C1220 C 0.48817 0.80228 0.0947 0.0
C1221 C 0.96522 0.17345 0.60518 0.0
C1222 C 0.98922 0.19879 0.58338 0.0
C1223 C 0.97939 0.15461 0.63859 0.0
C1224 C 0.01799 0.16037 0.65137 0.0
H1225 H 0.93617 0.16605 0.59489 0.0
H1226 H 0.96108 0.13288 0.65264 0.0
S1227 S 0.09147 0.22671 0.60747 0.0
N1228 N 0.05241 0.23172 0.57947 0.0
N1229 N 0.07903 0.1953 0.64205 0.0
C1230 C 0.04126 0.18801 0.63199 0.0
C1231 C 0.02681 0.20757 0.59801 0.0
C1232 C 0.87667 0.0349 0.6485 0.0
C1233 C 0.86473 0.99565 0.65248 0.0
C1234 C 0.9065 0.05035 0.67155 0.0
C1235 C 0.92581 0.02706 0.69933 0.0
H1236 H 0.86482 0.05308 0.62548 0.0
H1237 H 0.91664 0.07976 0.66527 0.0
S1238 S 0.89904 0.92551 0.72777 0.0
N1239 N 0.86926 0.93605 0.69125 0.0
N1240 N 0.92593 0.96513 0.73478 0.0
C1241 C 0.91081 0.98938 0.70715 0.0
C1242 C 0.88011 0.97359 0.68356 0.0
C1243 C 0.64132 1.0 0.1772 0.0
C1244 C 0.63681 0.02553 0.14525 0.0
C1245 C 0.60829 0.98459 0.19652 0.0
C1246 C 0.57035 0.99358 0.18336 0.0
H1247 H 0.67027 0.99039 0.18591 0.0
H1248 H 0.61241 0.96409 0.22033 0.0
S1249 S 0.5437 0.0606 0.10217 0.0
N1250 N 0.59198 0.06116 0.10328 0.0
N1251 N 0.53038 0.03083 0.13776 0.0
C1252 C 0.56583 0.02017 0.15238 0.0
C1253 C 0.59904 0.03655 0.13375 0.0
C1254 C 0.41427 0.46312 0.35283 0.0
C1255 C 0.42933 0.48103 0.31901 0.0
C1256 C 0.3818 0.47862 0.37225 0.0
C1257 C 0.36253 0.51235 0.35855 0.0
H1258 H 0.42927 0.4386 0.36624 0.0
H1259 H 0.37355 0.46576 0.39996 0.0
S1260 S 0.38531 0.56658 0.26778 0.0
N1261 N 0.41864 0.53143 0.2695 0.0
N1262 N 0.35744 0.56057 0.3068 0.0
C1263 C 0.37448 0.52836 0.3228 0.0
C1264 C 0.40788 0.5126 0.30278 0.0
C1265 C 0.12255 0.46055 0.82802 0.0
C1266 C 0.14945 0.48699 0.84432 0.0
C1267 C 0.09059 0.47429 0.80635 0.0
C1268 C 0.08458 0.51468 0.80074 0.0
H1269 H 0.12414 0.42959 0.83501 0.0
H1270 H 0.06873 0.45349 0.79698 0.0
S1271 S 0.15407 0.59396 0.82607 0.0
N1272 N 0.17329 0.55407 0.84576 0.0
N1273 N 0.11305 0.5798 0.80467 0.0
C1274 C 0.114 0.54075 0.8125 0.0
C1275 C 0.14655 0.52685 0.83451 0.0
C1276 C 0.6575 0.87048 0.02603 0.0
C1277 C 0.66259 0.85863 0.987 0.0
C1278 C 0.67809 0.90254 0.04125 0.0
C1279 C 0.70459 0.92358 0.01797 0.0
H1280 H 0.63488 0.85711 0.04381 0.0
H1281 H 0.67061 0.91309 0.07019 0.0
S1282 S 0.73055 0.90243 0.91501 0.0
N1283 N 0.69781 0.86859 0.92626 0.0
N1284 N 0.73705 0.92873 0.95506 0.0
C1285 C 0.71239 0.90999 0.97999 0.0
C1286 C 0.69121 0.87743 0.9644 0.0
C1287 C 0.1859 0.57671 0.03327 0.0
C1288 C 0.19844 0.57668 0.99415 0.0
C1289 C 0.16653 0.60896 0.04953 0.0
C1290 C 0.15874 0.64256 0.0272 0.0
H1291 H 0.18803 0.55027 0.05048 0.0
H1292 H 0.15481 0.60635 0.07886 0.0
S1293 S 0.18751 0.65863 0.92404 0.0
N1294 N 0.20373 0.61401 0.93402 0.0
N1295 N 0.16715 0.6752 0.96469 0.0
C1296 C 0.17348 0.64425 0.98884 0.0
C1297 C 0.19332 0.61109 0.97219 0.0
C1298 C 0.32543 0.38275 0.54202 0.0
C1299 C 0.34676 0.35834 0.51665 0.0
C1300 C 0.30516 0.41564 0.52773 0.0
C1301 C 0.30648 0.42548 0.48779 0.0
H1302 H 0.32734 0.37848 0.57333 0.0
H1303 H 0.29158 0.43539 0.5485 0.0
S1304 S 0.35223 0.36694 0.40893 0.0
N1305 N 0.3633 0.34296 0.44941 0.0
N1306 N 0.32572 0.40509 0.42267 0.0
C1307 C 0.3246 0.39926 0.4619 0.0
C1308 C 0.3447 0.36558 0.47634 0.0
C1309 C 0.83255 0.12369 0.46315 0.0
C1310 C 0.84932 0.14967 0.49021 0.0
C1311 C 0.81308 0.08972 0.47565 0.0
C1312 C 0.80969 0.08077 0.51557 0.0
H1313 H 0.83735 0.12791 0.43217 0.0
H1314 H 0.80322 0.0689 0.45391 0.0
S1315 S 0.84452 0.14173 0.59797 0.0
N1316 N 0.85829 0.16613 0.55857 0.0
N1317 N 0.82103 0.10247 0.58208 0.0
C1318 C 0.82329 0.10821 0.5429 0.0
C1319 C 0.84334 0.14271 0.53018 0.0
loop_
_geom_bond_atom_site_label_1
_geom_bond_atom_site_label_2
_geom_bond_distance
_geom_bond_site_symmetry_2
_ccdc_geom_bond_type
Fe0 O2 1.918 . S
Fe0 O5 1.997 . S
Fe0 O6 2.002 . S
Fe0 O11 1.976 . S
Fe0 O14 1.996 1_455 S
Fe1 O2 1.918 . S
Fe1 O9 1.997 . S
Fe1 O12 1.996 . S
Fe1 O16 1.976 . S
Fe1 O19 2.002 . S
O2 Fe0 1.918 . S
O2 Fe1 1.918 . S
O2 Fe3 1.918 . S
Fe3 O2 1.918 . S
Fe3 O4 2.002 . S
Fe3 O13 1.976 1_455 S
Fe3 O17 1.996 . S
Fe3 O20 1.997 . S
O4 Fe3 2.002 . S
O4 C21 1.295 . S
O5 Fe0 1.997 . S
O5 C21 1.235 . S
O6 Fe0 2.002 . S
O6 C7 1.295 . S
C7 O6 1.295 . S
C7 O9 1.235 . S
C8 O13 1.287 . S
C8 O14 1.255 . S
O9 Fe1 1.997 . S
O9 C7 1.235 . S
C10 O16 1.287 . S
C10 O17 1.255 . S
O11 Fe0 1.976 . S
O11 C18 1.287 . S
O12 Fe1 1.996 . S
O12 C18 1.255 . S
O13 Fe3 1.976 1_655 S
O13 C8 1.287 . S
O14 Fe0 1.996 1_655 S
O14 C8 1.255 . S
C15 O19 1.295 . S
C15 O20 1.235 . S
O16 Fe1 1.976 . S
O16 C10 1.287 . S
O17 Fe3 1.996 . S
O17 C10 1.255 . S
C18 O11 1.287 . S
C18 O12 1.255 . S
O19 Fe1 2.002 . S
O19 C15 1.295 . S
O20 Fe3 1.997 . S
O20 C15 1.235 . S
C21 O4 1.295 . S
C21 O5 1.235 . S
Fe22 O24 1.918 . S
Fe22 O27 1.997 . S
Fe22 O28 2.002 . S
Fe22 O33 1.976 . S
Fe22 O36 1.996 . S
Fe23 O24 1.918 . S
Fe23 O31 1.997 . S
Fe23 O34 1.996 . S
Fe23 O38 1.976 . S
Fe23 O41 2.002 . S
O24 Fe22 1.918 . S
O24 Fe23 1.918 . S
O24 Fe25 1.918 . S
Fe25 O24 1.918 . S
Fe25 O26 2.002 . S
Fe25 O35 1.976 . S
Fe25 O39 1.996 . S
Fe25 O42 1.997 . S
O26 Fe25 2.002 . S
O26 C43 1.295 . S
O27 Fe22 1.997 . S
O27 C43 1.235 . S
O28 Fe22 2.002 . S
O28 C29 1.295 . S
C29 O28 1.295 . S
C29 O31 1.235 . S
C30 O35 1.287 . S
C30 O36 1.255 . S
O31 Fe23 1.997 . S
O31 C29 1.235 . S
C32 O38 1.287 . S
C32 O39 1.255 . S
O33 Fe22 1.976 . S
O33 C40 1.287 . S
O34 Fe23 1.996 . S
O34 C40 1.255 . S
O35 Fe25 1.976 . S
O35 C30 1.287 . S
O36 Fe22 1.996 . S
O36 C30 1.255 . S
C37 O41 1.295 . S
C37 O42 1.235 . S
O38 Fe23 1.976 . S
O38 C32 1.287 . S
O39 Fe25 1.996 . S
O39 C32 1.255 . S
C40 O33 1.287 . S
C40 O34 1.255 . S
O41 Fe23 2.002 . S
O41 C37 1.295 . S
O42 Fe25 1.997 . S
O42 C37 1.235 . S
C43 O26 1.295 . S
C43 O27 1.235 . S
Fe44 O46 1.918 . S
Fe44 O49 1.997 . S
Fe44 O50 2.002 . S
Fe44 O55 1.976 . S
Fe44 O58 1.996 . S
Fe45 O46 1.918 . S
Fe45 O53 1.997 . S
Fe45 O56 1.996 . S
Fe45 O60 1.976 . S
Fe45 O63 2.002 1_545 S
O46 Fe44 1.918 . S
O46 Fe45 1.918 . S
O46 Fe47 1.918 . S
Fe47 O46 1.918 . S
Fe47 O48 2.002 . S
Fe47 O57 1.976 . S
Fe47 O61 1.996 . S
Fe47 O64 1.997 1_545 S
O48 Fe47 2.002 . S
O48 C65 1.295 . S
O49 Fe44 1.997 . S
O49 C65 1.235 . S
O50 Fe44 2.002 . S
O50 C51 1.295 . S
C51 O50 1.295 . S
C51 O53 1.235 . S
C52 O57 1.287 . S
C52 O58 1.255 . S
O53 Fe45 1.997 . S
O53 C51 1.235 . S
C54 O60 1.287 . S
C54 O61 1.255 . S
O55 Fe44 1.976 . S
O55 C62 1.287 . S
O56 Fe45 1.996 . S
O56 C62 1.255 . S
O57 Fe47 1.976 . S
O57 C52 1.287 . S
O58 Fe44 1.996 . S
O58 C52 1.255 . S
C59 O63 1.295 . S
C59 O64 1.235 . S
O60 Fe45 1.976 . S
O60 C54 1.287 . S
O61 Fe47 1.996 . S
O61 C54 1.255 . S
C62 O55 1.287 . S
C62 O56 1.255 . S
O63 Fe45 2.002 1_565 S
O63 C59 1.295 . S
O64 Fe47 1.997 1_565 S
O64 C59 1.235 . S
C65 O48 1.295 . S
C65 O49 1.235 . S
Fe66 O68 1.918 . S
Fe66 O71 1.997 . S
Fe66 O72 2.002 1_565 S
Fe66 O77 1.976 1_655 S
Fe66 O80 1.996 . S
Fe67 O68 1.918 . S
Fe67 O75 1.997 1_565 S
Fe67 O78 1.996 1_655 S
Fe67 O82 1.976 . S
Fe67 O85 2.002 . S
O68 Fe66 1.918 . S
O68 Fe67 1.918 . S
O68 Fe69 1.918 . S
Fe69 O68 1.918 . S
Fe69 O70 2.002 . S
Fe69 O79 1.976 . S
Fe69 O83 1.996 . S
Fe69 O86 1.997 . S
O70 Fe69 2.002 . S
O70 C87 1.295 . S
O71 Fe66 1.997 . S
O71 C87 1.235 . S
O72 Fe66 2.002 1_545 S
O72 C73 1.295 . S
C73 O72 1.295 . S
C73 O75 1.235 . S
C74 O79 1.287 . S
C74 O80 1.255 . S
O75 Fe67 1.997 1_545 S
O75 C73 1.235 . S
C76 O82 1.287 . S
C76 O83 1.255 . S
O77 Fe66 1.976 1_455 S
O77 C84 1.287 . S
O78 Fe67 1.996 1_455 S
O78 C84 1.255 . S
O79 Fe69 1.976 . S
O79 C74 1.287 . S
O80 Fe66 1.996 . S
O80 C74 1.255 . S
C81 O85 1.295 . S
C81 O86 1.235 . S
O82 Fe67 1.976 . S
O82 C76 1.287 . S
O83 Fe69 1.996 . S
O83 C76 1.255 . S
C84 O77 1.287 . S
C84 O78 1.255 . S
O85 Fe67 2.002 . S
O85 C81 1.295 . S
O86 Fe69 1.997 . S
O86 C81 1.235 . S
C87 O70 1.295 . S
C87 O71 1.235 . S
Fe88 O90 1.918 . S
Fe88 O93 1.997 . S
Fe88 O94 2.002 . S
Fe88 O99 1.976 . S
Fe88 O102 1.996 . S
Fe89 O90 1.918 . S
Fe89 O97 1.997 . S
Fe89 O100 1.996 . S
Fe89 O104 1.976 1_545 S
Fe89 O107 2.002 . S
O90 Fe88 1.918 . S
O90 Fe89 1.918 . S
O90 Fe91 1.918 . S
Fe91 O90 1.918 . S
Fe91 O92 2.002 . S
Fe91 O101 1.976 . S
Fe91 O105 1.996 1_545 S
Fe91 O108 1.997 . S
O92 Fe91 2.002 . S
O92 C109 1.295 . S
O93 Fe88 1.997 . S
O93 C109 1.235 . S
O94 Fe88 2.002 . S
O94 C95 1.295 . S
C95 O94 1.295 . S
C95 O97 1.235 . S
C96 O101 1.287 . S
C96 O102 1.255 . S
O97 Fe89 1.997 . S
O97 C95 1.235 . S
C98 O104 1.287 . S
C98 O105 1.255 . S
O99 Fe88 1.976 . S
O99 C106 1.287 . S
O100 Fe89 1.996 . S
O100 C106 1.255 . S
O101 Fe91 1.976 . S
O101 C96 1.287 . S
O102 Fe88 1.996 . S
O102 C96 1.255 . S
C103 O107 1.295 . S
C103 O108 1.235 . S
O104 Fe89 1.976 1_565 S
O104 C98 1.287 . S
O105 Fe91 1.996 1_565 S
O105 C98 1.255 . S
C106 O99 1.287 . S
C106 O100 1.255 . S
O107 Fe89 2.002 . S
O107 C103 1.295 . S
O108 Fe91 1.997 . S
O108 C103 1.235 . S
C109 O92 1.295 . S
C109 O93 1.235 . S
Fe110 O112 1.918 . S
Fe110 O115 1.997 . S
Fe110 O116 2.002 1_556 S
Fe110 O121 1.976 1_565 S
Fe110 O124 1.996 . S
Fe111 O112 1.918 . S
Fe111 O119 1.997 1_556 S
Fe111 O122 1.996 1_565 S
Fe111 O126 1.976 . S
Fe111 O129 2.002 . S
O112 Fe110 1.918 . S
O112 Fe111 1.918 . S
O112 Fe113 1.918 . S
Fe113 O112 1.918 . S
Fe113 O114 2.002 . S
Fe113 O123 1.976 . S
Fe113 O127 1.996 . S
Fe113 O130 1.997 . S
O114 Fe113 2.002 . S
O114 C131 1.295 . S
O115 Fe110 1.997 . S
O115 C131 1.235 . S
O116 Fe110 2.002 1_554 S
O116 C117 1.295 . S
C117 O116 1.295 . S
C117 O119 1.235 . S
C118 O123 1.287 . S
C118 O124 1.255 . S
O119 Fe111 1.997 1_554 S
O119 C117 1.235 . S
C120 O126 1.287 . S
C120 O127 1.255 . S
O121 Fe110 1.976 1_545 S
O121 C128 1.287 . S
O122 Fe111 1.996 1_545 S
O122 C128 1.255 . S
O123 Fe113 1.976 . S
O123 C118 1.287 . S
O124 Fe110 1.996 . S
O124 C118 1.255 . S
C125 O129 1.295 . S
C125 O130 1.235 . S
O126 Fe111 1.976 . S
O126 C120 1.287 . S
O127 Fe113 1.996 . S
O127 C120 1.255 . S
C128 O121 1.287 . S
C128 O122 1.255 . S
O129 Fe111 2.002 . S
O129 C125 1.295 . S
O130 Fe113 1.997 . S
O130 C125 1.235 . S
C131 O114 1.295 . S
C131 O115 1.235 . S
Fe132 O134 1.918 . S
Fe132 O137 1.997 . S
Fe132 O138 2.002 . S
Fe132 O143 1.976 . S
Fe132 O146 1.996 . S
Fe133 O134 1.918 . S
Fe133 O141 1.997 . S
Fe133 O144 1.996 . S
Fe133 O148 1.976 . S
Fe133 O151 2.002 . S
O134 Fe132 1.918 . S
O134 Fe133 1.918 . S
O134 Fe135 1.918 . S
Fe135 O134 1.918 . S
Fe135 O136 2.002 . S
Fe135 O145 1.976 . S
Fe135 O149 1.996 . S
Fe135 O152 1.997 . S
O136 Fe135 2.002 . S
O136 C153 1.295 . S
O137 Fe132 1.997 . S
O137 C153 1.235 . S
O138 Fe132 2.002 . S
O138 C139 1.295 . S
C139 O138 1.295 . S
C139 O141 1.235 . S
C140 O145 1.287 . S
C140 O146 1.255 . S
O141 Fe133 1.997 . S
O141 C139 1.235 . S
C142 O148 1.287 . S
C142 O149 1.255 . S
O143 Fe132 1.976 . S
O143 C150 1.287 . S
O144 Fe133 1.996 . S
O144 C150 1.255 . S
O145 Fe135 1.976 . S
O145 C140 1.287 . S
O146 Fe132 1.996 . S
O146 C140 1.255 . S
C147 O151 1.295 . S
C147 O152 1.235 . S
O148 Fe133 1.976 . S
O148 C142 1.287 . S
O149 Fe135 1.996 . S
O149 C142 1.255 . S
C150 O143 1.287 . S
C150 O144 1.255 . S
O151 Fe133 2.002 . S
O151 C147 1.295 . S
O152 Fe135 1.997 . S
O152 C147 1.235 . S
C153 O136 1.295 . S
C153 O137 1.235 . S
Fe154 O156 1.918 . S
Fe154 O159 1.997 . S
Fe154 O160 2.002 . S
Fe154 O165 1.976 . S
Fe154 O168 1.996 . S
Fe155 O156 1.918 . S
Fe155 O163 1.997 . S
Fe155 O166 1.996 . S
Fe155 O170 1.976 . S
Fe155 O173 2.002 1_554 S
O156 Fe154 1.918 . S
O156 Fe155 1.918 . S
O156 Fe157 1.918 . S
Fe157 O156 1.918 . S
Fe157 O158 2.002 . S
Fe157 O167 1.976 . S
Fe157 O171 1.996 . S
Fe157 O174 1.997 1_554 S
O158 Fe157 2.002 . S
O158 C175 1.295 . S
O159 Fe154 1.997 . S
O159 C175 1.235 . S
O160 Fe154 2.002 . S
O160 C161 1.295 . S
C161 O160 1.295 . S
C161 O163 1.235 . S
C162 O167 1.287 . S
C162 O168 1.255 . S
O163 Fe155 1.997 . S
O163 C161 1.235 . S
C164 O170 1.287 . S
C164 O171 1.255 . S
O165 Fe154 1.976 . S
O165 C172 1.287 . S
O166 Fe155 1.996 . S
O166 C172 1.255 . S
O167 Fe157 1.976 . S
O167 C162 1.287 . S
O168 Fe154 1.996 . S
O168 C162 1.255 . S
C169 O173 1.295 . S
C169 O174 1.235 . S
O170 Fe155 1.976 . S
O170 C164 1.287 . S
O171 Fe157 1.996 . S
O171 C164 1.255 . S
C172 O165 1.287 . S
C172 O166 1.255 . S
O173 Fe155 2.002 1_556 S
O173 C169 1.295 . S
O174 Fe157 1.997 1_556 S
O174 C169 1.235 . S
C175 O158 1.295 . S
C175 O159 1.235 . S
Fe176 O178 1.918 . S
Fe176 O181 1.997 . S
Fe176 O182 2.002 . S
Fe176 O187 1.976 . S
Fe176 O190 1.996 . S
Fe177 O178 1.918 . S
Fe177 O185 1.997 . S
Fe177 O188 1.996 . S
Fe177 O192 1.976 1_554 S
Fe177 O195 2.002 . S
O178 Fe176 1.918 . S
O178 Fe177 1.918 . S
O178 Fe179 1.918 . S
Fe179 O178 1.918 . S
Fe179 O180 2.002 . S
Fe179 O189 1.976 . S
Fe179 O193 1.996 1_554 S
Fe179 O196 1.997 . S
O180 Fe179 2.002 . S
O180 C197 1.295 . S
O181 Fe176 1.997 . S
O181 C197 1.235 . S
O182 Fe176 2.002 . S
O182 C183 1.295 . S
C183 O182 1.295 . S
C183 O185 1.235 . S
C184 O189 1.287 . S
C184 O190 1.255 . S
O185 Fe177 1.997 . S
O185 C183 1.235 . S
C186 O192 1.287 . S
C186 O193 1.255 . S
O187 Fe176 1.976 . S
O187 C194 1.287 . S
O188 Fe177 1.996 . S
O188 C194 1.255 . S
O189 Fe179 1.976 . S
O189 C184 1.287 . S
O190 Fe176 1.996 . S
O190 C184 1.255 . S
C191 O195 1.295 . S
C191 O196 1.235 . S
O192 Fe177 1.976 1_556 S
O192 C186 1.287 . S
O193 Fe179 1.996 1_556 S
O193 C186 1.255 . S
C194 O187 1.287 . S
C194 O188 1.255 . S
O195 Fe177 2.002 . S
O195 C191 1.295 . S
O196 Fe179 1.997 . S
O196 C191 1.235 . S
C197 O180 1.295 . S
C197 O181 1.235 . S
Fe198 O200 1.918 . S
Fe198 O203 1.997 1_655 S
Fe198 O204 2.002 . S
Fe198 O209 1.976 . S
Fe198 O212 1.996 1_556 S
Fe199 O200 1.918 . S
Fe199 O207 1.997 . S
Fe199 O210 1.996 . S
Fe199 O214 1.976 . S
Fe199 O217 2.002 . S
O200 Fe198 1.918 . S
O200 Fe199 1.918 . S
O200 Fe201 1.918 . S
Fe201 O200 1.918 . S
Fe201 O202 2.002 1_655 S
Fe201 O211 1.976 1_556 S
Fe201 O215 1.996 . S
Fe201 O218 1.997 . S
O202 Fe201 2.002 1_455 S
O202 C219 1.295 . S
O203 Fe198 1.997 1_455 S
O203 C219 1.235 . S
O204 Fe198 2.002 . S
O204 C205 1.295 . S
C205 O204 1.295 . S
C205 O207 1.235 . S
C206 O211 1.287 . S
C206 O212 1.255 . S
O207 Fe199 1.997 . S
O207 C205 1.235 . S
C208 O214 1.287 . S
C208 O215 1.255 . S
O209 Fe198 1.976 . S
O209 C216 1.287 . S
O210 Fe199 1.996 . S
O210 C216 1.255 . S
O211 Fe201 1.976 1_554 S
O211 C206 1.287 . S
O212 Fe198 1.996 1_554 S
O212 C206 1.255 . S
C213 O217 1.295 . S
C213 O218 1.235 . S
O214 Fe199 1.976 . S
O214 C208 1.287 . S
O215 Fe201 1.996 . S
O215 C208 1.255 . S
C216 O209 1.287 . S
C216 O210 1.255 . S
O217 Fe199 2.002 . S
O217 C213 1.295 . S
O218 Fe201 1.997 . S
O218 C213 1.235 . S
C219 O202 1.295 . S
C219 O203 1.235 . S
Fe220 O222 1.918 . S
Fe220 O225 1.997 . S
Fe220 O226 2.002 . S
Fe220 O231 1.976 . S
Fe220 O234 1.996 . S
Fe221 O222 1.918 . S
Fe221 O229 1.997 . S
Fe221 O232 1.996 . S
Fe221 O236 1.976 . S
Fe221 O239 2.002 . S
O222 Fe220 1.918 . S
O222 Fe221 1.918 . S
O222 Fe223 1.918 . S
Fe223 O222 1.918 . S
Fe223 O224 2.002 . S
Fe223 O233 1.976 . S
Fe223 O237 1.996 . S
Fe223 O240 1.997 . S
O224 Fe223 2.002 . S
O224 C241 1.295 . S
O225 Fe220 1.997 . S
O225 C241 1.235 . S
O226 Fe220 2.002 . S
O226 C227 1.295 . S
C227 O226 1.295 . S
C227 O229 1.235 . S
C228 O233 1.287 . S
C228 O234 1.255 . S
O229 Fe221 1.997 . S
O229 C227 1.235 . S
C230 O236 1.287 . S
C230 O237 1.255 . S
O231 Fe220 1.976 . S
O231 C238 1.287 . S
O232 Fe221 1.996 . S
O232 C238 1.255 . S
O233 Fe223 1.976 . S
O233 C228 1.287 . S
O234 Fe220 1.996 . S
O234 C228 1.255 . S
C235 O239 1.295 . S
C235 O240 1.235 . S
O236 Fe221 1.976 . S
O236 C230 1.287 . S
O237 Fe223 1.996 . S
O237 C230 1.255 . S
C238 O231 1.287 . S
C238 O232 1.255 . S
O239 Fe221 2.002 . S
O239 C235 1.295 . S
O240 Fe223 1.997 . S
O240 C235 1.235 . S
C241 O224 1.295 . S
C241 O225 1.235 . S
Fe242 O244 1.918 . S
Fe242 O247 1.997 . S
Fe242 O248 2.002 1_455 S
Fe242 O253 1.976 . S
Fe242 O256 1.996 . S
Fe243 O244 1.918 . S
Fe243 O251 1.997 1_455 S
Fe243 O254 1.996 . S
Fe243 O258 1.976 . S
Fe243 O261 2.002 . S
O244 Fe242 1.918 . S
O244 Fe243 1.918 . S
O244 Fe245 1.918 . S
Fe245 O244 1.918 . S
Fe245 O246 2.002 . S
Fe245 O255 1.976 . S
Fe245 O259 1.996 . S
Fe245 O262 1.997 . S
O246 Fe245 2.002 . S
O246 C263 1.295 . S
O247 Fe242 1.997 . S
O247 C263 1.235 . S
O248 Fe242 2.002 1_655 S
O248 C249 1.295 . S
C249 O248 1.295 . S
C249 O251 1.235 . S
C250 O255 1.287 . S
C250 O256 1.255 . S
O251 Fe243 1.997 1_655 S
O251 C249 1.235 . S
C252 O258 1.287 . S
C252 O259 1.255 . S
O253 Fe242 1.976 . S
O253 C260 1.287 . S
O254 Fe243 1.996 . S
O254 C260 1.255 . S
O255 Fe245 1.976 . S
O255 C250 1.287 . S
O256 Fe242 1.996 . S
O256 C250 1.255 . S
C257 O261 1.295 . S
C257 O262 1.235 . S
O258 Fe243 1.976 . S
O258 C252 1.287 . S
O259 Fe245 1.996 . S
O259 C252 1.255 . S
C260 O253 1.287 . S
C260 O254 1.255 . S
O261 Fe243 2.002 . S
O261 C257 1.295 . S
O262 Fe245 1.997 . S
O262 C257 1.235 . S
C263 O246 1.295 . S
C263 O247 1.235 . S
Fe264 O266 1.918 . S
Fe264 O269 1.997 . S
Fe264 O270 2.002 . S
Fe264 O275 1.976 . S
Fe264 O278 1.996 . S
Fe265 O266 1.918 . S
Fe265 O273 1.997 . S
Fe265 O276 1.996 . S
Fe265 O280 1.976 1_655 S
Fe265 O283 2.002 . S
O266 Fe264 1.918 . S
O266 Fe265 1.918 . S
O266 Fe267 1.918 . S
Fe267 O266 1.918 . S
Fe267 O268 2.002 . S
Fe267 O277 1.976 . S
Fe267 O281 1.996 1_655 S
Fe267 O284 1.997 . S
O268 Fe267 2.002 . S
O268 C285 1.295 . S
O269 Fe264 1.997 . S
O269 C285 1.235 . S
O270 Fe264 2.002 . S
O270 C271 1.295 . S
C271 O270 1.295 . S
C271 O273 1.235 . S
C272 O277 1.287 . S
C272 O278 1.255 . S
O273 Fe265 1.997 . S
O273 C271 1.235 . S
C274 O280 1.287 . S
C274 O281 1.255 . S
O275 Fe264 1.976 . S
O275 C282 1.287 . S
O276 Fe265 1.996 . S
O276 C282 1.255 . S
O277 Fe267 1.976 . S
O277 C272 1.287 . S
O278 Fe264 1.996 . S
O278 C272 1.255 . S
C279 O283 1.295 . S
C279 O284 1.235 . S
O280 Fe265 1.976 1_455 S
O280 C274 1.287 . S
O281 Fe267 1.996 1_455 S
O281 C274 1.255 . S
C282 O275 1.287 . S
C282 O276 1.255 . S
O283 Fe265 2.002 . S
O283 C279 1.295 . S
O284 Fe267 1.997 . S
O284 C279 1.235 . S
C285 O268 1.295 . S
C285 O269 1.235 . S
Fe286 O288 1.918 . S
Fe286 O291 1.997 . S
Fe286 O292 2.002 . S
Fe286 O297 1.976 . S
Fe286 O300 1.996 . S
Fe287 O288 1.918 . S
Fe287 O295 1.997 . S
Fe287 O298 1.996 . S
Fe287 O302 1.976 . S
Fe287 O305 2.002 . S
O288 Fe286 1.918 . S
O288 Fe287 1.918 . S
O288 Fe289 1.918 . S
Fe289 O288 1.918 . S
Fe289 O290 2.002 . S
Fe289 O299 1.976 . S
Fe289 O303 1.996 . S
Fe289 O306 1.997 . S
O290 Fe289 2.002 . S
O290 C307 1.295 . S
O291 Fe286 1.997 . S
O291 C307 1.235 . S
O292 Fe286 2.002 . S
O292 C293 1.295 . S
C293 O292 1.295 . S
C293 O295 1.235 . S
C294 O299 1.287 . S
C294 O300 1.255 . S
O295 Fe287 1.997 . S
O295 C293 1.235 . S
C296 O302 1.287 . S
C296 O303 1.255 . S
O297 Fe286 1.976 . S
O297 C304 1.287 . S
O298 Fe287 1.996 . S
O298 C304 1.255 . S
O299 Fe289 1.976 . S
O299 C294 1.287 . S
O300 Fe286 1.996 . S
O300 C294 1.255 . S
C301 O305 1.295 . S
C301 O306 1.235 . S
O302 Fe287 1.976 . S
O302 C296 1.287 . S
O303 Fe289 1.996 . S
O303 C296 1.255 . S
C304 O297 1.287 . S
C304 O298 1.255 . S
O305 Fe287 2.002 . S
O305 C301 1.295 . S
O306 Fe289 1.997 . S
O306 C301 1.235 . S
C307 O290 1.295 . S
C307 O291 1.235 . S
Fe308 O310 1.918 . S
Fe308 O313 1.997 . S
Fe308 O314 2.002 . S
Fe308 O319 1.976 . S
Fe308 O322 1.996 . S
Fe309 O310 1.918 . S
Fe309 O317 1.997 . S
Fe309 O320 1.996 . S
Fe309 O324 1.976 . S
Fe309 O327 2.002 1_565 S
O310 Fe308 1.918 . S
O310 Fe309 1.918 . S
O310 Fe311 1.918 . S
Fe311 O310 1.918 . S
Fe311 O312 2.002 . S
Fe311 O321 1.976 . S
Fe311 O325 1.996 . S
Fe311 O328 1.997 1_565 S
O312 Fe311 2.002 . S
O312 C329 1.295 . S
O313 Fe308 1.997 . S
O313 C329 1.235 . S
O314 Fe308 2.002 . S
O314 C315 1.295 . S
C315 O314 1.295 . S
C315 O317 1.235 . S
C316 O321 1.287 . S
C316 O322 1.255 . S
O317 Fe309 1.997 . S
O317 C315 1.235 . S
C318 O324 1.287 . S
C318 O325 1.255 . S
O319 Fe308 1.976 . S
O319 C326 1.287 . S
O320 Fe309 1.996 . S
O320 C326 1.255 . S
O321 Fe311 1.976 . S
O321 C316 1.287 . S
O322 Fe308 1.996 . S
O322 C316 1.255 . S
C323 O327 1.295 . S
C323 O328 1.235 . S
O324 Fe309 1.976 . S
O324 C318 1.287 . S
O325 Fe311 1.996 . S
O325 C318 1.255 . S
C326 O319 1.287 . S
C326 O320 1.255 . S
O327 Fe309 2.002 1_545 S
O327 C323 1.295 . S
O328 Fe311 1.997 1_545 S
O328 C323 1.235 . S
C329 O312 1.295 . S
C329 O313 1.235 . S
Fe330 O332 1.918 . S
Fe330 O335 1.997 . S
Fe330 O336 2.002 . S
Fe330 O341 1.976 . S
Fe330 O344 1.996 . S
Fe331 O332 1.918 . S
Fe331 O339 1.997 . S
Fe331 O342 1.996 . S
Fe331 O346 1.976 1_455 S
Fe331 O349 2.002 1_545 S
O332 Fe330 1.918 . S
O332 Fe331 1.918 . S
O332 Fe333 1.918 . S
Fe333 O332 1.918 . S
Fe333 O334 2.002 . S
Fe333 O343 1.976 . S
Fe333 O347 1.996 1_455 S
Fe333 O350 1.997 1_545 S
O334 Fe333 2.002 . S
O334 C351 1.295 . S
O335 Fe330 1.997 . S
O335 C351 1.235 . S
O336 Fe330 2.002 . S
O336 C337 1.295 . S
C337 O336 1.295 . S
C337 O339 1.235 . S
C338 O343 1.287 . S
C338 O344 1.255 . S
O339 Fe331 1.997 . S
O339 C337 1.235 . S
C340 O346 1.287 . S
C340 O347 1.255 . S
O341 Fe330 1.976 . S
O341 C348 1.287 . S
O342 Fe331 1.996 . S
O342 C348 1.255 . S
O343 Fe333 1.976 . S
O343 C338 1.287 . S
O344 Fe330 1.996 . S
O344 C338 1.255 . S
C345 O349 1.295 . S
C345 O350 1.235 . S
O346 Fe331 1.976 1_655 S
O346 C340 1.287 . S
O347 Fe333 1.996 1_655 S
O347 C340 1.255 . S
C348 O341 1.287 . S
C348 O342 1.255 . S
O349 Fe331 2.002 1_565 S
O349 C345 1.295 . S
O350 Fe333 1.997 1_565 S
O350 C345 1.235 . S
C351 O334 1.295 . S
C351 O335 1.235 . S
Fe352 O354 1.918 . S
Fe352 O357 1.997 . S
Fe352 O358 2.002 . S
Fe352 O363 1.976 . S
Fe352 O366 1.996 . S
Fe353 O354 1.918 . S
Fe353 O361 1.997 . S
Fe353 O364 1.996 . S
Fe353 O368 1.976 1_565 S
Fe353 O371 2.002 . S
O354 Fe352 1.918 . S
O354 Fe353 1.918 . S
O354 Fe355 1.918 . S
Fe355 O354 1.918 . S
Fe355 O356 2.002 . S
Fe355 O365 1.976 . S
Fe355 O369 1.996 1_565 S
Fe355 O372 1.997 . S
O356 Fe355 2.002 . S
O356 C373 1.295 . S
O357 Fe352 1.997 . S
O357 C373 1.235 . S
O358 Fe352 2.002 . S
O358 C359 1.295 . S
C359 O358 1.295 . S
C359 O361 1.235 . S
C360 O365 1.287 . S
C360 O366 1.255 . S
O361 Fe353 1.997 . S
O361 C359 1.235 . S
C362 O368 1.287 . S
C362 O369 1.255 . S
O363 Fe352 1.976 . S
O363 C370 1.287 . S
O364 Fe353 1.996 . S
O364 C370 1.255 . S
O365 Fe355 1.976 . S
O365 C360 1.287 . S
O366 Fe352 1.996 . S
O366 C360 1.255 . S
C367 O371 1.295 . S
C367 O372 1.235 . S
O368 Fe353 1.976 1_545 S
O368 C362 1.287 . S
O369 Fe355 1.996 1_545 S
O369 C362 1.255 . S
C370 O363 1.287 . S
C370 O364 1.255 . S
O371 Fe353 2.002 . S
O371 C367 1.295 . S
O372 Fe355 1.997 . S
O372 C367 1.235 . S
C373 O356 1.295 . S
C373 O357 1.235 . S
Fe374 O376 1.918 . S
Fe374 O379 1.997 1_554 S
Fe374 O380 2.002 . S
Fe374 O385 1.976 . S
Fe374 O388 1.996 1_545 S
Fe375 O376 1.918 . S
Fe375 O383 1.997 . S
Fe375 O386 1.996 . S
Fe375 O390 1.976 . S
Fe375 O393 2.002 . S
O376 Fe374 1.918 . S
O376 Fe375 1.918 . S
O376 Fe377 1.918 . S
Fe377 O376 1.918 . S
Fe377 O378 2.002 1_554 S
Fe377 O387 1.976 1_545 S
Fe377 O391 1.996 . S
Fe377 O394 1.997 . S
O378 Fe377 2.002 1_556 S
O378 C395 1.295 . S
O379 Fe374 1.997 1_556 S
O379 C395 1.235 . S
O380 Fe374 2.002 . S
O380 C381 1.295 . S
C381 O380 1.295 . S
C381 O383 1.235 . S
C382 O387 1.287 . S
C382 O388 1.255 . S
O383 Fe375 1.997 . S
O383 C381 1.235 . S
C384 O390 1.287 . S
C384 O391 1.255 . S
O385 Fe374 1.976 . S
O385 C392 1.287 . S
O386 Fe375 1.996 . S
O386 C392 1.255 . S
O387 Fe377 1.976 1_565 S
O387 C382 1.287 . S
O388 Fe374 1.996 1_565 S
O388 C382 1.255 . S
C389 O393 1.295 . S
C389 O394 1.235 . S
O390 Fe375 1.976 . S
O390 C384 1.287 . S
O391 Fe377 1.996 . S
O391 C384 1.255 . S
C392 O385 1.287 . S
C392 O386 1.255 . S
O393 Fe375 2.002 . S
O393 C389 1.295 . S
O394 Fe377 1.997 . S
O394 C389 1.235 . S
C395 O378 1.295 . S
C395 O379 1.235 . S
Fe396 O398 1.918 . S
Fe396 O401 1.997 . S
Fe396 O402 2.002 . S
Fe396 O407 1.976 . S
Fe396 O410 1.996 . S
Fe397 O398 1.918 . S
Fe397 O405 1.997 . S
Fe397 O408 1.996 . S
Fe397 O412 1.976 . S
Fe397 O415 2.002 . S
O398 Fe396 1.918 . S
O398 Fe397 1.918 . S
O398 Fe399 1.918 . S
Fe399 O398 1.918 . S
Fe399 O400 2.002 . S
Fe399 O409 1.976 . S
Fe399 O413 1.996 . S
Fe399 O416 1.997 . S
O400 Fe399 2.002 . S
O400 C417 1.295 . S
O401 Fe396 1.997 . S
O401 C417 1.235 . S
O402 Fe396 2.002 . S
O402 C403 1.295 . S
C403 O402 1.295 . S
C403 O405 1.235 . S
C404 O409 1.287 . S
C404 O410 1.255 . S
O405 Fe397 1.997 . S
O405 C403 1.235 . S
C406 O412 1.287 . S
C406 O413 1.255 . S
O407 Fe396 1.976 . S
O407 C414 1.287 . S
O408 Fe397 1.996 . S
O408 C414 1.255 . S
O409 Fe399 1.976 . S
O409 C404 1.287 . S
O410 Fe396 1.996 . S
O410 C404 1.255 . S
C411 O415 1.295 . S
C411 O416 1.235 . S
O412 Fe397 1.976 . S
O412 C406 1.287 . S
O413 Fe399 1.996 . S
O413 C406 1.255 . S
C414 O407 1.287 . S
C414 O408 1.255 . S
O415 Fe397 2.002 . S
O415 C411 1.295 . S
O416 Fe399 1.997 . S
O416 C411 1.235 . S
C417 O400 1.295 . S
C417 O401 1.235 . S
Fe418 O420 1.918 . S
Fe418 O423 1.997 . S
Fe418 O424 2.002 . S
Fe418 O429 1.976 . S
Fe418 O432 1.996 . S
Fe419 O420 1.918 . S
Fe419 O427 1.997 . S
Fe419 O430 1.996 . S
Fe419 O434 1.976 . S
Fe419 O437 2.002 1_556 S
O420 Fe418 1.918 . S
O420 Fe419 1.918 . S
O420 Fe421 1.918 . S
Fe421 O420 1.918 . S
Fe421 O422 2.002 . S
Fe421 O431 1.976 . S
Fe421 O435 1.996 . S
Fe421 O438 1.997 1_556 S
O422 Fe421 2.002 . S
O422 C439 1.295 . S
O423 Fe418 1.997 . S
O423 C439 1.235 . S
O424 Fe418 2.002 . S
O424 C425 1.295 . S
C425 O424 1.295 . S
C425 O427 1.235 . S
C426 O431 1.287 . S
C426 O432 1.255 . S
O427 Fe419 1.997 . S
O427 C425 1.235 . S
C428 O434 1.287 . S
C428 O435 1.255 . S
O429 Fe418 1.976 . S
O429 C436 1.287 . S
O430 Fe419 1.996 . S
O430 C436 1.255 . S
O431 Fe421 1.976 . S
O431 C426 1.287 . S
O432 Fe418 1.996 . S
O432 C426 1.255 . S
C433 O437 1.295 . S
C433 O438 1.235 . S
O434 Fe419 1.976 . S
O434 C428 1.287 . S
O435 Fe421 1.996 . S
O435 C428 1.255 . S
C436 O429 1.287 . S
C436 O430 1.255 . S
O437 Fe419 2.002 1_554 S
O437 C433 1.295 . S
O438 Fe421 1.997 1_554 S
O438 C433 1.235 . S
C439 O422 1.295 . S
C439 O423 1.235 . S
Fe440 O442 1.918 . S
Fe440 O445 1.997 . S
Fe440 O446 2.002 . S
Fe440 O451 1.976 . S
Fe440 O454 1.996 . S
Fe441 O442 1.918 . S
Fe441 O449 1.997 . S
Fe441 O452 1.996 . S
Fe441 O456 1.976 1_556 S
Fe441 O459 2.002 . S
O442 Fe440 1.918 . S
O442 Fe441 1.918 . S
O442 Fe443 1.918 . S
Fe443 O442 1.918 . S
Fe443 O444 2.002 . S
Fe443 O453 1.976 . S
Fe443 O457 1.996 1_556 S
Fe443 O460 1.997 . S
O444 Fe443 2.002 . S
O444 C461 1.295 . S
O445 Fe440 1.997 . S
O445 C461 1.235 . S
O446 Fe440 2.002 . S
O446 C447 1.295 . S
C447 O446 1.295 . S
C447 O449 1.235 . S
C448 O453 1.287 . S
C448 O454 1.255 . S
O449 Fe441 1.997 . S
O449 C447 1.235 . S
C450 O456 1.287 . S
C450 O457 1.255 . S
O451 Fe440 1.976 . S
O451 C458 1.287 . S
O452 Fe441 1.996 . S
O452 C458 1.255 . S
O453 Fe443 1.976 . S
O453 C448 1.287 . S
O454 Fe440 1.996 . S
O454 C448 1.255 . S
C455 O459 1.295 . S
C455 O460 1.235 . S
O456 Fe441 1.976 1_554 S
O456 C450 1.287 . S
O457 Fe443 1.996 1_554 S
O457 C450 1.255 . S
C458 O451 1.287 . S
C458 O452 1.255 . S
O459 Fe441 2.002 . S
O459 C455 1.295 . S
O460 Fe443 1.997 . S
O460 C455 1.235 . S
C461 O444 1.295 . S
C461 O445 1.235 . S
Fe462 O464 1.918 . S
Fe462 O467 1.997 1_455 S
Fe462 O468 2.002 . S
Fe462 O473 1.976 . S
Fe462 O476 1.996 1_554 S
Fe463 O464 1.918 . S
Fe463 O471 1.997 . S
Fe463 O474 1.996 . S
Fe463 O478 1.976 . S
Fe463 O481 2.002 . S
O464 Fe462 1.918 . S
O464 Fe463 1.918 . S
O464 Fe465 1.918 . S
Fe465 O464 1.918 . S
Fe465 O466 2.002 1_455 S
Fe465 O475 1.976 1_554 S
Fe465 O479 1.996 . S
Fe465 O482 1.997 . S
O466 Fe465 2.002 1_655 S
O466 C483 1.295 . S
O467 Fe462 1.997 1_655 S
O467 C483 1.235 . S
O468 Fe462 2.002 . S
O468 C469 1.295 . S
C469 O468 1.295 . S
C469 O471 1.235 . S
C470 O475 1.287 . S
C470 O476 1.255 . S
O471 Fe463 1.997 . S
O471 C469 1.235 . S
C472 O478 1.287 . S
C472 O479 1.255 . S
O473 Fe462 1.976 . S
O473 C480 1.287 . S
O474 Fe463 1.996 . S
O474 C480 1.255 . S
O475 Fe465 1.976 1_556 S
O475 C470 1.287 . S
O476 Fe462 1.996 1_556 S
O476 C470 1.255 . S
C477 O481 1.295 . S
C477 O482 1.235 . S
O478 Fe463 1.976 . S
O478 C472 1.287 . S
O479 Fe465 1.996 . S
O479 C472 1.255 . S
C480 O473 1.287 . S
C480 O474 1.255 . S
O481 Fe463 2.002 . S
O481 C477 1.295 . S
O482 Fe465 1.997 . S
O482 C477 1.235 . S
C483 O466 1.295 . S
C483 O467 1.235 . S
Fe484 O486 1.918 . S
Fe484 O489 1.997 . S
Fe484 O490 2.002 . S
Fe484 O495 1.976 . S
Fe484 O498 1.996 . S
Fe485 O486 1.918 . S
Fe485 O493 1.997 . S
Fe485 O496 1.996 . S
Fe485 O500 1.976 . S
Fe485 O503 2.002 . S
O486 Fe484 1.918 . S
O486 Fe485 1.918 . S
O486 Fe487 1.918 . S
Fe487 O486 1.918 . S
Fe487 O488 2.002 . S
Fe487 O497 1.976 . S
Fe487 O501 1.996 . S
Fe487 O504 1.997 . S
O488 Fe487 2.002 . S
O488 C505 1.295 . S
O489 Fe484 1.997 . S
O489 C505 1.235 . S
O490 Fe484 2.002 . S
O490 C491 1.295 . S
C491 O490 1.295 . S
C491 O493 1.235 . S
C492 O497 1.287 . S
C492 O498 1.255 . S
O493 Fe485 1.997 . S
O493 C491 1.235 . S
C494 O500 1.287 . S
C494 O501 1.255 . S
O495 Fe484 1.976 . S
O495 C502 1.287 . S
O496 Fe485 1.996 . S
O496 C502 1.255 . S
O497 Fe487 1.976 . S
O497 C492 1.287 . S
O498 Fe484 1.996 . S
O498 C492 1.255 . S
C499 O503 1.295 . S
C499 O504 1.235 . S
O500 Fe485 1.976 . S
O500 C494 1.287 . S
O501 Fe487 1.996 . S
O501 C494 1.255 . S
C502 O495 1.287 . S
C502 O496 1.255 . S
O503 Fe485 2.002 . S
O503 C499 1.295 . S
O504 Fe487 1.997 . S
O504 C499 1.235 . S
C505 O488 1.295 . S
C505 O489 1.235 . S
Fe506 O508 1.918 . S
Fe506 O511 1.997 . S
Fe506 O512 2.002 . S
Fe506 O517 1.976 . S
Fe506 O520 1.996 . S
Fe507 O508 1.918 . S
Fe507 O515 1.997 . S
Fe507 O518 1.996 . S
Fe507 O522 1.976 . S
Fe507 O525 2.002 1_655 S
O508 Fe506 1.918 . S
O508 Fe507 1.918 . S
O508 Fe509 1.918 . S
Fe509 O508 1.918 . S
Fe509 O510 2.002 . S
Fe509 O519 1.976 . S
Fe509 O523 1.996 . S
Fe509 O526 1.997 1_655 S
O510 Fe509 2.002 . S
O510 C527 1.295 . S
O511 Fe506 1.997 . S
O511 C527 1.235 . S
O512 Fe506 2.002 . S
O512 C513 1.295 . S
C513 O512 1.295 . S
C513 O515 1.235 . S
C514 O519 1.287 . S
C514 O520 1.255 . S
O515 Fe507 1.997 . S
O515 C513 1.235 . S
C516 O522 1.287 . S
C516 O523 1.255 . S
O517 Fe506 1.976 . S
O517 C524 1.287 . S
O518 Fe507 1.996 . S
O518 C524 1.255 . S
O519 Fe509 1.976 . S
O519 C514 1.287 . S
O520 Fe506 1.996 . S
O520 C514 1.255 . S
C521 O525 1.295 . S
C521 O526 1.235 . S
O522 Fe507 1.976 . S
O522 C516 1.287 . S
O523 Fe509 1.996 . S
O523 C516 1.255 . S
C524 O517 1.287 . S
C524 O518 1.255 . S
O525 Fe507 2.002 1_455 S
O525 C521 1.295 . S
O526 Fe509 1.997 1_455 S
O526 C521 1.235 . S
C527 O510 1.295 . S
C527 O511 1.235 . S
C528 C529 1.369 . S
C528 C530 1.419 . S
C528 H532 0.930 . S
C529 C528 1.369 . S
C529 C538 1.429 . S
C530 C528 1.419 . S
C530 C531 1.363 . S
C530 H533 0.929 . S
C531 C530 1.363 . S
C531 C537 1.428 . S
H532 C528 0.930 . S
H533 C530 0.929 . S
S534 N535 1.613 . S
S534 N536 1.610 . S
N535 S534 1.613 . S
N535 C538 1.350 . S
N536 S534 1.610 . S
N536 C537 1.351 . S
C537 C531 1.428 . S
C537 N536 1.351 . S
C537 C538 1.434 . S
C538 C529 1.429 . S
C538 N535 1.350 . S
C538 C537 1.434 . S
C539 C540 1.369 . S
C539 C541 1.419 . S
C539 H543 0.930 . S
C540 C539 1.369 . S
C540 C549 1.429 . S
C541 C539 1.419 . S
C541 C542 1.363 . S
C541 H544 0.929 . S
C542 C541 1.363 . S
C542 C548 1.428 . S
H543 C539 0.930 . S
H544 C541 0.929 . S
S545 N546 1.613 . S
S545 N547 1.610 . S
N546 S545 1.613 . S
N546 C549 1.350 . S
N547 S545 1.610 . S
N547 C548 1.351 . S
C548 C542 1.428 . S
C548 N547 1.351 . S
C548 C549 1.434 . S
C549 C540 1.429 . S
C549 N546 1.350 . S
C549 C548 1.434 . S
C550 C551 1.369 . S
C550 C552 1.419 . S
C550 H554 0.930 . S
C551 C550 1.369 . S
C551 C560 1.429 . S
C552 C550 1.419 . S
C552 C553 1.363 1_545 S
C552 H555 0.929 . S
C553 C552 1.363 1_565 S
C553 C559 1.428 . S
H554 C550 0.930 . S
H555 C552 0.929 . S
S556 N557 1.613 1_565 S
S556 N558 1.610 . S
N557 S556 1.613 1_545 S
N557 C560 1.350 . S
N558 S556 1.610 . S
N558 C559 1.351 . S
C559 C553 1.428 . S
C559 N558 1.351 . S
C559 C560 1.434 1_565 S
C560 C551 1.429 . S
C560 N557 1.350 . S
C560 C559 1.434 1_545 S
C561 C562 1.369 . S
C561 C563 1.419 1_565 S
C561 H565 0.930 1_565 S
C562 C561 1.369 . S
C562 C571 1.429 . S
C563 C561 1.419 1_545 S
C563 C564 1.363 . S
C563 H566 0.929 . S
C564 C563 1.363 . S
C564 C570 1.428 1_545 S
H565 C561 0.930 1_545 S
H566 C563 0.929 . S
S567 N568 1.613 . S
S567 N569 1.610 . S
N568 S567 1.613 . S
N568 C571 1.350 . S
N569 S567 1.610 . S
N569 C570 1.351 . S
C570 C564 1.428 1_565 S
C570 N569 1.351 . S
C570 C571 1.434 . S
C571 C562 1.429 . S
C571 N568 1.350 . S
C571 C570 1.434 . S
C572 C573 1.369 . S
C572 C574 1.419 . S
C572 H576 0.930 . S
C573 C572 1.369 . S
C573 C582 1.429 . S
C574 C572 1.419 . S
C574 C575 1.363 . S
C574 H577 0.929 . S
C575 C574 1.363 . S
C575 C581 1.428 . S
H576 C572 0.930 . S
H577 C574 0.929 . S
S578 N579 1.613 . S
S578 N580 1.610 . S
N579 S578 1.613 . S
N579 C582 1.350 . S
N580 S578 1.610 . S
N580 C581 1.351 . S
C581 C575 1.428 . S
C581 N580 1.351 . S
C581 C582 1.434 . S
C582 C573 1.429 . S
C582 N579 1.350 . S
C582 C581 1.434 . S
C583 C584 1.369 . S
C583 C585 1.419 . S
C583 H587 0.930 . S
C584 C583 1.369 . S
C584 C593 1.429 . S
C585 C583 1.419 . S
C585 C586 1.363 1_556 S
C585 H588 0.929 . S
C586 C585 1.363 1_554 S
C586 C592 1.428 . S
H587 C583 0.930 . S
H588 C585 0.929 . S
S589 N590 1.613 1_554 S
S589 N591 1.610 . S
N590 S589 1.613 1_556 S
N590 C593 1.350 . S
N591 S589 1.610 . S
N591 C592 1.351 . S
C592 C586 1.428 . S
C592 N591 1.351 . S
C592 C593 1.434 1_554 S
C593 C584 1.429 . S
C593 N590 1.350 . S
C593 C592 1.434 1_556 S
C594 C595 1.369 . S
C594 C596 1.419 . S
C594 H598 0.930 . S
C595 C594 1.369 . S
C595 C604 1.429 . S
C596 C594 1.419 . S
C596 C597 1.363 . S
C596 H599 0.929 . S
C597 C596 1.363 . S
C597 C603 1.428 . S
H598 C594 0.930 . S
H599 C596 0.929 . S
S600 N601 1.613 . S
S600 N602 1.610 . S
N601 S600 1.613 . S
N601 C604 1.350 . S
N602 S600 1.610 . S
N602 C603 1.351 . S
C603 C597 1.428 . S
C603 N602 1.351 . S
C603 C604 1.434 . S
C604 C595 1.429 . S
C604 N601 1.350 . S
C604 C603 1.434 . S
C605 C606 1.369 . S
C605 C607 1.419 1_554 S
C605 H609 0.930 1_554 S
C606 C605 1.369 . S
C606 C615 1.429 . S
C607 C605 1.419 1_556 S
C607 C608 1.363 . S
C607 H610 0.929 . S
C608 C607 1.363 . S
C608 C614 1.428 1_556 S
H609 C605 0.930 1_556 S
H610 C607 0.929 . S
S611 N612 1.613 . S
S611 N613 1.610 . S
N612 S611 1.613 . S
N612 C615 1.350 . S
N613 S611 1.610 . S
N613 C614 1.351 . S
C614 C608 1.428 1_554 S
C614 N613 1.351 . S
C614 C615 1.434 . S
C615 C606 1.429 . S
C615 N612 1.350 . S
C615 C614 1.434 . S
C616 C617 1.369 . S
C616 C618 1.419 . S
C616 H620 0.930 . S
C617 C616 1.369 . S
C617 C626 1.429 . S
C618 C616 1.419 . S
C618 C619 1.363 . S
C618 H621 0.929 . S
C619 C618 1.363 . S
C619 C625 1.428 . S
H620 C616 0.930 . S
H621 C618 0.929 . S
S622 N623 1.613 . S
S622 N624 1.610 . S
N623 S622 1.613 . S
N623 C626 1.350 . S
N624 S622 1.610 . S
N624 C625 1.351 . S
C625 C619 1.428 . S
C625 N624 1.351 . S
C625 C626 1.434 . S
C626 C617 1.429 . S
C626 N623 1.350 . S
C626 C625 1.434 . S
C627 C628 1.369 . S
C627 C629 1.419 . S
C627 H631 0.930 . S
C628 C627 1.369 . S
C628 C637 1.429 . S
C629 C627 1.419 . S
C629 C630 1.363 1_655 S
C629 H632 0.929 . S
C630 C629 1.363 1_455 S
C630 C636 1.428 . S
H631 C627 0.930 . S
H632 C629 0.929 . S
S633 N634 1.613 . S
S633 N635 1.610 . S
N634 S633 1.613 . S
N634 C637 1.350 1_455 S
N635 S633 1.610 . S
N635 C636 1.351 . S
C636 C630 1.428 . S
C636 N635 1.351 . S
C636 C637 1.434 1_455 S
C637 C628 1.429 . S
C637 N634 1.350 1_655 S
C637 C636 1.434 1_655 S
C638 C639 1.369 . S
C638 C640 1.419 . S
C638 H642 0.930 . S
C639 C638 1.369 . S
C639 C648 1.429 . S
C640 C638 1.419 . S
C640 C641 1.363 . S
C640 H643 0.929 . S
C641 C640 1.363 . S
C641 C647 1.428 . S
H642 C638 0.930 . S
H643 C640 0.929 . S
S644 N645 1.613 . S
S644 N646 1.610 . S
N645 S644 1.613 . S
N645 C648 1.350 . S
N646 S644 1.610 . S
N646 C647 1.351 . S
C647 C641 1.428 . S
C647 N646 1.351 . S
C647 C648 1.434 . S
C648 C639 1.429 . S
C648 N645 1.350 . S
C648 C647 1.434 . S
C649 C650 1.369 . S
C649 C651 1.419 1_455 S
C649 H653 0.930 1_455 S
C650 C649 1.369 . S
C650 C659 1.429 . S
C651 C649 1.419 1_655 S
C651 C652 1.363 . S
C651 H654 0.929 . S
C652 C651 1.363 . S
C652 C658 1.428 1_655 S
H653 C649 0.930 1_655 S
H654 C651 0.929 . S
S655 N656 1.613 . S
S655 N657 1.610 . S
N656 S655 1.613 . S
N656 C659 1.350 . S
N657 S655 1.610 . S
N657 C658 1.351 . S
C658 C652 1.428 1_455 S
C658 N657 1.351 . S
C658 C659 1.434 . S
C659 C650 1.429 . S
C659 N656 1.350 . S
C659 C658 1.434 . S
C660 C661 1.369 . S
C660 C662 1.419 . S
C660 H664 0.930 . S
C661 C660 1.369 . S
C661 C670 1.429 . S
C662 C660 1.419 . S
C662 C663 1.363 . S
C662 H665 0.929 . S
C663 C662 1.363 . S
C663 C669 1.428 . S
H664 C660 0.930 . S
H665 C662 0.929 . S
S666 N667 1.613 . S
S666 N668 1.610 . S
N667 S666 1.613 . S
N667 C670 1.350 . S
N668 S666 1.610 . S
N668 C669 1.351 . S
C669 C663 1.428 . S
C669 N668 1.351 . S
C669 C670 1.434 . S
C670 C661 1.429 . S
C670 N667 1.350 . S
C670 C669 1.434 . S
C671 C672 1.369 . S
C671 C673 1.419 . S
C671 H675 0.930 . S
C672 C671 1.369 . S
C672 C681 1.429 . S
C673 C671 1.419 . S
C673 C674 1.363 . S
C673 H676 0.929 . S
C674 C673 1.363 . S
C674 C680 1.428 . S
H675 C671 0.930 . S
H676 C673 0.929 . S
S677 N678 1.613 . S
S677 N679 1.610 . S
N678 S677 1.613 . S
N678 C681 1.350 . S
N679 S677 1.610 . S
N679 C680 1.351 . S
C680 C674 1.428 . S
C680 N679 1.351 . S
C680 C681 1.434 . S
C681 C672 1.429 . S
C681 N678 1.350 . S
C681 C680 1.434 . S
C682 C683 1.369 . S
C682 C684 1.433 . S
C682 H686 0.930 . S
C683 C682 1.369 . S
C683 C692 1.429 . S
C684 C682 1.433 . S
C684 C685 1.359 1_565 S
C684 H687 0.919 1_565 S
C685 C684 1.359 1_545 S
C685 C691 1.428 1_545 S
H686 C682 0.930 . S
H687 C684 0.919 1_545 S
S688 N689 1.613 . S
S688 N690 1.610 . S
N689 S688 1.613 . S
N689 C692 1.350 . S
N690 S688 1.610 . S
N690 C691 1.351 . S
C691 C685 1.428 1_565 S
C691 N690 1.351 . S
C691 C692 1.434 . S
C692 C683 1.429 . S
C692 N689 1.350 . S
C692 C691 1.434 . S
C693 C694 1.369 1_545 S
C693 C695 1.419 . S
C693 H697 0.930 . S
C694 C693 1.369 1_565 S
C694 C703 1.429 . S
C695 C693 1.419 . S
C695 C696 1.363 . S
C695 H698 0.929 . S
C696 C695 1.363 . S
C696 C702 1.428 . S
H697 C693 0.930 . S
H698 C695 0.929 . S
S699 N700 1.613 . S
S699 N701 1.610 1_565 S
N700 S699 1.613 . S
N700 C703 1.350 . S
N701 S699 1.610 1_545 S
N701 C702 1.351 . S
C702 C696 1.428 . S
C702 N701 1.351 . S
C702 C703 1.434 1_545 S
C703 C694 1.429 . S
C703 N700 1.350 . S
C703 C702 1.434 1_565 S
C704 C705 1.369 . S
C704 C706 1.419 . S
C704 H708 0.930 . S
C705 C704 1.369 . S
C705 C714 1.429 . S
C706 C704 1.419 . S
C706 C707 1.363 . S
C706 H709 0.929 . S
C707 C706 1.363 . S
C707 C713 1.428 . S
H708 C704 0.930 . S
H709 C706 0.929 . S
S710 N711 1.613 . S
S710 N712 1.610 . S
N711 S710 1.613 . S
N711 C714 1.350 . S
N712 S710 1.610 . S
N712 C713 1.351 . S
C713 C707 1.428 . S
C713 N712 1.351 . S
C713 C714 1.434 . S
C714 C705 1.429 . S
C714 N711 1.350 . S
C714 C713 1.434 . S
C715 C716 1.369 1_554 S
C715 C717 1.419 . S
C715 H719 0.930 . S
C716 C715 1.369 1_556 S
C716 C725 1.429 . S
C717 C715 1.419 . S
C717 C718 1.363 . S
C717 H720 0.929 . S
C718 C717 1.363 . S
C718 C724 1.428 . S
H719 C715 0.930 . S
H720 C717 0.929 . S
S721 N722 1.613 . S
S721 N723 1.610 . S
N722 S721 1.613 . S
N722 C725 1.350 . S
N723 S721 1.610 . S
N723 C724 1.351 1_556 S
C724 C718 1.428 . S
C724 N723 1.351 1_554 S
C724 C725 1.434 1_554 S
C725 C716 1.429 . S
C725 N722 1.350 . S
C725 C724 1.434 1_556 S
C726 C727 1.369 . S
C726 C728 1.419 . S
C726 H730 0.930 . S
C727 C726 1.369 . S
C727 C736 1.429 . S
C728 C726 1.419 . S
C728 C729 1.363 . S
C728 H731 0.929 . S
C729 C728 1.363 . S
C729 C735 1.428 . S
H730 C726 0.930 . S
H731 C728 0.929 . S
S732 N733 1.613 . S
S732 N734 1.610 . S
N733 S732 1.613 . S
N733 C736 1.350 . S
N734 S732 1.610 . S
N734 C735 1.351 . S
C735 C729 1.428 . S
C735 N734 1.351 . S
C735 C736 1.434 . S
C736 C727 1.429 . S
C736 N733 1.350 . S
C736 C735 1.434 . S
C737 C738 1.369 . S
C737 C739 1.419 1_554 S
C737 H741 0.930 . S
C738 C737 1.369 . S
C738 C747 1.429 1_554 S
C739 C737 1.419 1_556 S
C739 C740 1.363 . S
C739 H742 0.934 . S
C740 C739 1.363 . S
C740 C746 1.428 . S
H741 C737 0.930 . S
H742 C739 0.934 . S
S743 N744 1.613 . S
S743 N745 1.610 . S
N744 S743 1.613 . S
N744 C747 1.350 . S
N745 S743 1.610 . S
N745 C746 1.351 . S
C746 C740 1.428 . S
C746 N745 1.351 . S
C746 C747 1.434 . S
C747 C738 1.429 1_556 S
C747 N744 1.350 . S
C747 C746 1.434 . S
C748 C749 1.369 . S
C748 C750 1.419 . S
C748 H752 0.930 . S
C749 C748 1.369 . S
C749 C758 1.429 . S
C750 C748 1.419 . S
C750 C751 1.363 . S
C750 H753 0.929 . S
C751 C750 1.363 . S
C751 C757 1.428 . S
H752 C748 0.930 . S
H753 C750 0.929 . S
S754 N755 1.613 . S
S754 N756 1.610 . S
N755 S754 1.613 . S
N755 C758 1.350 . S
N756 S754 1.610 . S
N756 C757 1.351 . S
C757 C751 1.428 . S
C757 N756 1.351 . S
C757 C758 1.434 . S
C758 C749 1.429 . S
C758 N755 1.350 . S
C758 C757 1.434 . S
C759 C760 1.369 . S
C759 C761 1.419 1_655 S
C759 H763 0.930 . S
C760 C759 1.369 . S
C760 C769 1.429 1_655 S
C761 C759 1.419 1_455 S
C761 C762 1.363 . S
C761 H764 0.929 . S
C762 C761 1.363 . S
C762 C768 1.428 . S
H763 C759 0.930 . S
H764 C761 0.929 . S
S765 N766 1.613 . S
S765 N767 1.610 . S
N766 S765 1.613 . S
N766 C769 1.350 . S
N767 S765 1.610 . S
N767 C768 1.351 . S
C768 C762 1.428 . S
C768 N767 1.351 . S
C768 C769 1.434 . S
C769 C760 1.429 1_455 S
C769 N766 1.350 . S
C769 C768 1.434 . S
C770 C771 1.369 . S
C770 C772 1.419 . S
C770 H774 0.930 . S
C771 C770 1.369 . S
C771 C780 1.429 . S
C772 C770 1.419 . S
C772 C773 1.363 . S
C772 H775 0.929 . S
C773 C772 1.363 . S
C773 C779 1.428 . S
H774 C770 0.930 . S
H775 C772 0.929 . S
S776 N777 1.613 . S
S776 N778 1.610 . S
N777 S776 1.613 . S
N777 C780 1.350 . S
N778 S776 1.610 . S
N778 C779 1.351 . S
C779 C773 1.428 . S
C779 N778 1.351 . S
C779 C780 1.434 . S
C780 C771 1.429 . S
C780 N777 1.350 . S
C780 C779 1.434 . S
C781 C782 1.369 . S
C781 C783 1.419 1_655 S
C781 H785 0.930 1_655 S
C782 C781 1.369 . S
C782 C791 1.429 . S
C783 C781 1.419 1_455 S
C783 C784 1.363 . S
C783 H786 0.929 . S
C784 C783 1.363 . S
C784 C790 1.428 1_455 S
H785 C781 0.930 1_455 S
H786 C783 0.929 . S
S787 N788 1.613 . S
S787 N789 1.610 . S
N788 S787 1.613 . S
N788 C791 1.350 . S
N789 S787 1.610 . S
N789 C790 1.351 . S
C790 C784 1.428 1_655 S
C790 N789 1.351 . S
C790 C791 1.434 . S
C791 C782 1.429 . S
C791 N788 1.350 . S
C791 C790 1.434 . S
C792 C793 1.369 . S
C792 C794 1.419 . S
C792 H796 0.930 . S
C793 C792 1.369 . S
C793 C802 1.429 . S
C794 C792 1.419 . S
C794 C795 1.363 . S
C794 H797 0.929 . S
C795 C794 1.363 . S
C795 C801 1.428 . S
H796 C792 0.930 . S
H797 C794 0.929 . S
S798 N799 1.613 . S
S798 N800 1.610 . S
N799 S798 1.613 . S
N799 C802 1.350 . S
N800 S798 1.610 . S
N800 C801 1.351 . S
C801 C795 1.428 . S
C801 N800 1.351 . S
C801 C802 1.434 . S
C802 C793 1.429 . S
C802 N799 1.350 . S
C802 C801 1.434 . S
C803 C804 1.369 . S
C803 C805 1.419 . S
C803 H807 0.930 . S
C804 C803 1.369 . S
C804 C813 1.429 . S
C805 C803 1.419 . S
C805 C806 1.363 . S
C805 H808 0.929 . S
C806 C805 1.363 . S
C806 C812 1.428 . S
H807 C803 0.930 . S
H808 C805 0.929 . S
S809 N810 1.613 . S
S809 N811 1.610 . S
N810 S809 1.613 . S
N810 C813 1.350 . S
N811 S809 1.610 . S
N811 C812 1.351 . S
C812 C806 1.428 . S
C812 N811 1.351 . S
C812 C813 1.434 . S
C813 C804 1.429 . S
C813 N810 1.350 . S
C813 C812 1.434 . S
C814 C815 1.369 . S
C814 C816 1.419 . S
C814 H818 0.930 . S
C815 C814 1.369 . S
C815 C824 1.429 . S
C816 C814 1.419 . S
C816 C817 1.363 . S
C816 H819 0.929 . S
C817 C816 1.363 . S
C817 C823 1.428 . S
H818 C814 0.930 . S
H819 C816 0.929 . S
S820 N821 1.613 . S
S820 N822 1.610 . S
N821 S820 1.613 . S
N821 C824 1.350 . S
N822 S820 1.610 . S
N822 C823 1.351 . S
C823 C817 1.428 . S
C823 N822 1.351 . S
C823 C824 1.434 . S
C824 C815 1.429 . S
C824 N821 1.350 . S
C824 C823 1.434 . S
C825 C826 1.369 . S
C825 C827 1.419 . S
C825 H829 0.930 . S
C826 C825 1.369 . S
C826 C835 1.429 . S
C827 C825 1.419 . S
C827 C828 1.363 . S
C827 H830 0.929 . S
C828 C827 1.363 . S
C828 C834 1.428 . S
H829 C825 0.930 . S
H830 C827 0.929 . S
S831 N832 1.613 . S
S831 N833 1.610 . S
N832 S831 1.613 . S
N832 C835 1.350 . S
N833 S831 1.610 . S
N833 C834 1.351 . S
C834 C828 1.428 . S
C834 N833 1.351 . S
C834 C835 1.434 . S
C835 C826 1.429 . S
C835 N832 1.350 . S
C835 C834 1.434 . S
C836 C837 1.369 . S
C836 C838 1.419 . S
C836 H840 0.930 . S
C837 C836 1.369 . S
C837 C846 1.429 . S
C838 C836 1.419 . S
C838 C839 1.363 . S
C838 H841 0.929 . S
C839 C838 1.363 . S
C839 C845 1.428 . S
H840 C836 0.930 . S
H841 C838 0.929 . S
S842 N843 1.613 . S
S842 N844 1.610 . S
N843 S842 1.613 . S
N843 C846 1.350 . S
N844 S842 1.610 . S
N844 C845 1.351 . S
C845 C839 1.428 . S
C845 N844 1.351 . S
C845 C846 1.434 . S
C846 C837 1.429 . S
C846 N843 1.350 . S
C846 C845 1.434 . S
C847 C848 1.369 . S
C847 C849 1.419 . S
C847 H851 0.930 . S
C848 C847 1.369 . S
C848 C857 1.429 . S
C849 C847 1.419 . S
C849 C850 1.363 . S
C849 H852 0.929 . S
C850 C849 1.363 . S
C850 C856 1.428 . S
H851 C847 0.930 . S
H852 C849 0.929 . S
S853 N854 1.613 . S
S853 N855 1.610 . S
N854 S853 1.613 . S
N854 C857 1.350 . S
N855 S853 1.610 . S
N855 C856 1.351 . S
C856 C850 1.428 . S
C856 N855 1.351 . S
C856 C857 1.434 . S
C857 C848 1.429 . S
C857 N854 1.350 . S
C857 C856 1.434 . S
C858 C859 1.369 . S
C858 C860 1.419 . S
C858 H862 0.930 . S
C859 C858 1.369 . S
C859 C868 1.429 . S
C860 C858 1.419 . S
C860 C861 1.363 . S
C860 H863 0.929 . S
C861 C860 1.363 . S
C861 C867 1.428 . S
H862 C858 0.930 . S
H863 C860 0.929 . S
S864 N865 1.613 . S
S864 N866 1.610 . S
N865 S864 1.613 . S
N865 C868 1.350 . S
N866 S864 1.610 . S
N866 C867 1.351 . S
C867 C861 1.428 . S
C867 N866 1.351 . S
C867 C868 1.434 . S
C868 C859 1.429 . S
C868 N865 1.350 . S
C868 C867 1.434 . S
C869 C870 1.369 . S
C869 C871 1.419 . S
C869 H873 0.930 . S
C870 C869 1.369 . S
C870 C879 1.429 . S
C871 C869 1.419 . S
C871 C872 1.363 . S
C871 H874 0.929 . S
C872 C871 1.363 . S
C872 C878 1.428 . S
H873 C869 0.930 . S
H874 C871 0.929 . S
S875 N876 1.613 1_556 S
S875 N877 1.610 1_556 S
N876 S875 1.613 1_554 S
N876 C879 1.350 . S
N877 S875 1.610 1_554 S
N877 C878 1.351 . S
C878 C872 1.428 . S
C878 N877 1.351 . S
C878 C879 1.434 . S
C879 C870 1.429 . S
C879 N876 1.350 . S
C879 C878 1.434 . S
C880 C881 1.369 . S
C880 C882 1.419 . S
C880 H884 0.930 . S
C881 C880 1.369 . S
C881 C890 1.429 . S
C882 C880 1.419 . S
C882 C883 1.363 . S
C882 H885 0.929 . S
C883 C882 1.363 . S
C883 C889 1.428 . S
H884 C880 0.930 . S
H885 C882 0.929 . S
S886 N887 1.613 . S
S886 N888 1.610 . S
N887 S886 1.613 . S
N887 C890 1.350 . S
N888 S886 1.610 . S
N888 C889 1.351 . S
C889 C883 1.428 . S
C889 N888 1.351 . S
C889 C890 1.434 . S
C890 C881 1.429 . S
C890 N887 1.350 . S
C890 C889 1.434 . S
C891 C892 1.369 . S
C891 C893 1.419 . S
C891 H895 0.930 . S
C892 C891 1.369 . S
C892 C901 1.429 . S
C893 C891 1.419 . S
C893 C894 1.363 . S
C893 H896 0.929 . S
C894 C893 1.363 . S
C894 C900 1.428 . S
H895 C891 0.930 . S
H896 C893 0.929 . S
S897 N898 1.613 . S
S897 N899 1.610 . S
N898 S897 1.613 . S
N898 C901 1.350 . S
N899 S897 1.610 . S
N899 C900 1.351 . S
C900 C894 1.428 . S
C900 N899 1.351 . S
C900 C901 1.434 . S
C901 C892 1.429 . S
C901 N898 1.350 . S
C901 C900 1.434 . S
C902 C903 1.369 . S
C902 C904 1.419 . S
C902 H906 0.930 . S
C903 C902 1.369 . S
C903 C912 1.429 . S
C904 C902 1.419 . S
C904 C905 1.363 . S
C904 H907 0.929 . S
C905 C904 1.363 . S
C905 C911 1.428 . S
H906 C902 0.930 . S
H907 C904 0.929 . S
S908 N909 1.613 . S
S908 N910 1.610 . S
N909 S908 1.613 . S
N909 C912 1.350 . S
N910 S908 1.610 . S
N910 C911 1.351 . S
C911 C905 1.428 . S
C911 N910 1.351 . S
C911 C912 1.434 . S
C912 C903 1.429 . S
C912 N909 1.350 . S
C912 C911 1.434 . S
C913 C914 1.369 . S
C913 C915 1.419 . S
C913 H917 0.930 . S
C914 C913 1.369 . S
C914 C923 1.429 . S
C915 C913 1.419 . S
C915 C916 1.363 . S
C915 H918 0.929 . S
C916 C915 1.363 . S
C916 C922 1.428 . S
H917 C913 0.930 . S
H918 C915 0.929 . S
S919 N920 1.613 . S
S919 N921 1.610 . S
N920 S919 1.613 . S
N920 C923 1.350 . S
N921 S919 1.610 . S
N921 C922 1.351 . S
C922 C916 1.428 . S
C922 N921 1.351 . S
C922 C923 1.434 . S
C923 C914 1.429 . S
C923 N920 1.350 . S
C923 C922 1.434 . S
C924 C925 1.369 . S
C924 C926 1.419 . S
C924 H928 0.930 . S
C925 C924 1.369 . S
C925 C934 1.429 . S
C926 C924 1.419 . S
C926 C927 1.363 . S
C926 H929 0.929 . S
C927 C926 1.363 . S
C927 C933 1.428 . S
H928 C924 0.930 . S
H929 C926 0.929 . S
S930 N931 1.613 . S
S930 N932 1.610 . S
N931 S930 1.613 . S
N931 C934 1.350 . S
N932 S930 1.610 . S
N932 C933 1.351 . S
C933 C927 1.428 . S
C933 N932 1.351 . S
C933 C934 1.434 . S
C934 C925 1.429 . S
C934 N931 1.350 . S
C934 C933 1.434 . S
C935 C936 1.369 . S
C935 C937 1.419 . S
C935 H939 0.930 . S
C936 C935 1.369 . S
C936 C945 1.429 . S
C937 C935 1.419 . S
C937 C938 1.363 . S
C937 H940 0.929 . S
C938 C937 1.363 . S
C938 C944 1.428 . S
H939 C935 0.930 . S
H940 C937 0.929 . S
S941 N942 1.613 . S
S941 N943 1.610 . S
N942 S941 1.613 . S
N942 C945 1.350 . S
N943 S941 1.610 . S
N943 C944 1.351 . S
C944 C938 1.428 . S
C944 N943 1.351 . S
C944 C945 1.434 . S
C945 C936 1.429 . S
C945 N942 1.350 . S
C945 C944 1.434 . S
C946 C947 1.369 . S
C946 C948 1.419 . S
C946 H950 0.930 . S
C947 C946 1.369 . S
C947 C956 1.429 . S
C948 C946 1.419 . S
C948 C949 1.363 . S
C948 H951 0.929 . S
C949 C948 1.363 . S
C949 C955 1.428 . S
H950 C946 0.930 . S
H951 C948 0.929 . S
S952 N953 1.613 . S
S952 N954 1.610 . S
N953 S952 1.613 . S
N953 C956 1.350 . S
N954 S952 1.610 . S
N954 C955 1.351 . S
C955 C949 1.428 . S
C955 N954 1.351 . S
C955 C956 1.434 . S
C956 C947 1.429 . S
C956 N953 1.350 . S
C956 C955 1.434 . S
C957 C958 1.369 . S
C957 C959 1.419 . S
C957 H961 0.930 . S
C958 C957 1.369 . S
C958 C967 1.429 . S
C959 C957 1.419 . S
C959 C960 1.363 . S
C959 H962 0.929 . S
C960 C959 1.363 . S
C960 C966 1.428 . S
H961 C957 0.930 . S
H962 C959 0.929 . S
S963 N964 1.613 . S
S963 N965 1.610 . S
N964 S963 1.613 . S
N964 C967 1.350 . S
N965 S963 1.610 . S
N965 C966 1.351 . S
C966 C960 1.428 . S
C966 N965 1.351 . S
C966 C967 1.434 . S
C967 C958 1.429 . S
C967 N964 1.350 . S
C967 C966 1.434 . S
C968 C969 1.369 . S
C968 C970 1.419 . S
C968 H972 0.930 . S
C969 C968 1.369 . S
C969 C978 1.429 . S
C970 C968 1.419 . S
C970 C971 1.363 . S
C970 H973 0.929 . S
C971 C970 1.363 . S
C971 C977 1.428 . S
H972 C968 0.930 . S
H973 C970 0.929 . S
S974 N975 1.613 . S
S974 N976 1.610 . S
N975 S974 1.613 . S
N975 C978 1.350 . S
N976 S974 1.610 . S
N976 C977 1.351 . S
C977 C971 1.428 . S
C977 N976 1.351 . S
C977 C978 1.434 . S
C978 C969 1.429 . S
C978 N975 1.350 . S
C978 C977 1.434 . S
C979 C980 1.369 . S
C979 C981 1.419 . S
C979 H983 0.930 . S
C980 C979 1.369 . S
C980 C989 1.429 . S
C981 C979 1.419 . S
C981 C982 1.363 . S
C981 H984 0.929 . S
C982 C981 1.363 . S
C982 C988 1.428 . S
H983 C979 0.930 . S
H984 C981 0.929 . S
S985 N986 1.613 . S
S985 N987 1.610 . S
N986 S985 1.613 . S
N986 C989 1.350 . S
N987 S985 1.610 . S
N987 C988 1.351 . S
C988 C982 1.428 . S
C988 N987 1.351 . S
C988 C989 1.434 . S
C989 C980 1.429 . S
C989 N986 1.350 . S
C989 C988 1.434 . S
C990 C991 1.369 . S
C990 C992 1.419 . S
C990 H994 0.930 . S
C991 C990 1.369 . S
C991 C1000 1.429 . S
C992 C990 1.419 . S
C992 C993 1.363 . S
C992 H995 0.929 . S
C993 C992 1.363 . S
C993 C999 1.428 . S
H994 C990 0.930 . S
H995 C992 0.929 . S
S996 N997 1.613 . S
S996 N998 1.610 . S
N997 S996 1.613 . S
N997 C1000 1.350 . S
N998 S996 1.610 . S
N998 C999 1.351 . S
C999 C993 1.428 . S
C999 N998 1.351 . S
C999 C1000 1.434 . S
C1000 C991 1.429 . S
C1000 N997 1.350 . S
C1000 C999 1.434 . S
C1001 C1002 1.369 . S
C1001 C1003 1.419 . S
C1001 H1005 0.930 . S
C1002 C1001 1.369 . S
C1002 C1011 1.429 . S
C1003 C1001 1.419 . S
C1003 C1004 1.363 . S
C1003 H1006 0.929 . S
C1004 C1003 1.363 . S
C1004 C1010 1.428 . S
H1005 C1001 0.930 . S
H1006 C1003 0.929 . S
S1007 N1008 1.613 . S
S1007 N1009 1.610 . S
N1008 S1007 1.613 . S
N1008 C1011 1.350 . S
N1009 S1007 1.610 . S
N1009 C1010 1.351 . S
C1010 C1004 1.428 . S
C1010 N1009 1.351 . S
C1010 C1011 1.434 . S
C1011 C1002 1.429 . S
C1011 N1008 1.350 . S
C1011 C1010 1.434 . S
C1012 C1013 1.369 . S
C1012 C1014 1.419 . S
C1012 H1016 0.930 . S
C1013 C1012 1.369 . S
C1013 C1022 1.429 . S
C1014 C1012 1.419 . S
C1014 C1015 1.363 . S
C1014 H1017 0.929 . S
C1015 C1014 1.363 . S
C1015 C1021 1.428 . S
H1016 C1012 0.930 . S
H1017 C1014 0.929 . S
S1018 N1019 1.613 . S
S1018 N1020 1.610 . S
N1019 S1018 1.613 . S
N1019 C1022 1.350 . S
N1020 S1018 1.610 . S
N1020 C1021 1.351 . S
C1021 C1015 1.428 . S
C1021 N1020 1.351 . S
C1021 C1022 1.434 . S
C1022 C1013 1.429 . S
C1022 N1019 1.350 . S
C1022 C1021 1.434 . S
C1023 C1024 1.369 . S
C1023 C1025 1.419 . S
C1023 H1027 0.930 . S
C1024 C1023 1.369 . S
C1024 C1033 1.429 . S
C1025 C1023 1.419 . S
C1025 C1026 1.363 . S
C1025 H1028 0.929 . S
C1026 C1025 1.363 . S
C1026 C1032 1.428 . S
H1027 C1023 0.930 . S
H1028 C1025 0.929 . S
S1029 N1030 1.613 . S
S1029 N1031 1.610 . S
N1030 S1029 1.613 . S
N1030 C1033 1.350 . S
N1031 S1029 1.610 . S
N1031 C1032 1.351 . S
C1032 C1026 1.428 . S
C1032 N1031 1.351 . S
C1032 C1033 1.434 . S
C1033 C1024 1.429 . S
C1033 N1030 1.350 . S
C1033 C1032 1.434 . S
C1034 C1035 1.369 . S
C1034 C1036 1.419 . S
C1034 H1038 0.930 . S
C1035 C1034 1.369 . S
C1035 C1044 1.429 . S
C1036 C1034 1.419 . S
C1036 C1037 1.363 . S
C1036 H1039 0.929 . S
C1037 C1036 1.363 . S
C1037 C1043 1.428 . S
H1038 C1034 0.930 . S
H1039 C1036 0.929 . S
S1040 N1041 1.613 . S
S1040 N1042 1.610 . S
N1041 S1040 1.613 . S
N1041 C1044 1.350 . S
N1042 S1040 1.610 . S
N1042 C1043 1.351 . S
C1043 C1037 1.428 . S
C1043 N1042 1.351 . S
C1043 C1044 1.434 . S
C1044 C1035 1.429 . S
C1044 N1041 1.350 . S
C1044 C1043 1.434 . S
C1045 C1046 1.369 . S
C1045 C1047 1.419 . S
C1045 H1049 0.930 . S
C1046 C1045 1.369 . S
C1046 C1055 1.429 . S
C1047 C1045 1.419 . S
C1047 C1048 1.363 . S
C1047 H1050 0.929 . S
C1048 C1047 1.363 . S
C1048 C1054 1.428 . S
H1049 C1045 0.930 . S
H1050 C1047 0.929 . S
S1051 N1052 1.613 . S
S1051 N1053 1.610 . S
N1052 S1051 1.613 . S
N1052 C1055 1.350 . S
N1053 S1051 1.610 . S
N1053 C1054 1.351 . S
C1054 C1048 1.428 . S
C1054 N1053 1.351 . S
C1054 C1055 1.434 . S
C1055 C1046 1.429 . S
C1055 N1052 1.350 . S
C1055 C1054 1.434 . S
C1056 C1057 1.369 1_655 S
C1056 C1058 1.419 . S
C1056 H1060 0.930 . S
C1057 C1056 1.369 1_455 S
C1057 C1066 1.429 . S
C1058 C1056 1.419 . S
C1058 C1059 1.363 . S
C1058 H1061 0.929 . S
C1059 C1058 1.363 . S
C1059 C1065 1.428 1_655 S
H1060 C1056 0.930 . S
H1061 C1058 0.929 . S
S1062 N1063 1.613 . S
S1062 N1064 1.610 . S
N1063 S1062 1.613 . S
N1063 C1066 1.350 . S
N1064 S1062 1.610 . S
N1064 C1065 1.351 . S
C1065 C1059 1.428 1_455 S
C1065 N1064 1.351 . S
C1065 C1066 1.434 . S
C1066 C1057 1.429 . S
C1066 N1063 1.350 . S
C1066 C1065 1.434 . S
C1067 C1068 1.369 . S
C1067 C1069 1.419 . S
C1067 H1071 0.930 . S
C1068 C1067 1.369 . S
C1068 C1077 1.429 . S
C1069 C1067 1.419 . S
C1069 C1070 1.363 . S
C1069 H1072 0.929 . S
C1070 C1069 1.363 . S
C1070 C1076 1.428 . S
H1071 C1067 0.930 . S
H1072 C1069 0.929 . S
S1073 N1074 1.613 . S
S1073 N1075 1.610 . S
N1074 S1073 1.613 . S
N1074 C1077 1.350 . S
N1075 S1073 1.610 . S
N1075 C1076 1.351 . S
C1076 C1070 1.428 . S
C1076 N1075 1.351 . S
C1076 C1077 1.434 . S
C1077 C1068 1.429 . S
C1077 N1074 1.350 . S
C1077 C1076 1.434 . S
C1078 C1079 1.369 . S
C1078 C1080 1.419 . S
C1078 H1082 0.930 . S
C1079 C1078 1.369 . S
C1079 C1088 1.429 . S
C1080 C1078 1.419 . S
C1080 C1081 1.363 . S
C1080 H1083 0.929 . S
C1081 C1080 1.363 . S
C1081 C1087 1.428 . S
H1082 C1078 0.930 . S
H1083 C1080 0.929 . S
S1084 N1085 1.613 . S
S1084 N1086 1.610 . S
N1085 S1084 1.613 . S
N1085 C1088 1.350 . S
N1086 S1084 1.610 . S
N1086 C1087 1.351 . S
C1087 C1081 1.428 . S
C1087 N1086 1.351 . S
C1087 C1088 1.434 . S
C1088 C1079 1.429 . S
C1088 N1085 1.350 . S
C1088 C1087 1.434 . S
C1089 C1090 1.369 . S
C1089 C1091 1.419 1_455 S
C1089 H1093 0.930 . S
C1090 C1089 1.369 . S
C1090 C1099 1.429 . S
C1091 C1089 1.419 1_655 S
C1091 C1092 1.363 . S
C1091 H1094 0.929 . S
C1092 C1091 1.363 . S
C1092 C1098 1.428 . S
H1093 C1089 0.930 . S
H1094 C1091 0.929 . S
S1095 N1096 1.613 . S
S1095 N1097 1.610 1_455 S
N1096 S1095 1.613 . S
N1096 C1099 1.350 . S
N1097 S1095 1.610 1_655 S
N1097 C1098 1.351 . S
C1098 C1092 1.428 . S
C1098 N1097 1.351 . S
C1098 C1099 1.434 1_655 S
C1099 C1090 1.429 . S
C1099 N1096 1.350 . S
C1099 C1098 1.434 1_455 S
C1100 C1101 1.369 1_565 S
C1100 C1102 1.419 . S
C1100 H1104 0.930 . S
C1101 C1100 1.369 1_545 S
C1101 C1110 1.429 . S
C1102 C1100 1.419 . S
C1102 C1103 1.363 . S
C1102 H1105 0.929 . S
C1103 C1102 1.363 . S
C1103 C1109 1.428 1_565 S
H1104 C1100 0.930 . S
H1105 C1102 0.929 . S
S1106 N1107 1.613 . S
S1106 N1108 1.610 . S
N1107 S1106 1.613 . S
N1107 C1110 1.350 . S
N1108 S1106 1.610 . S
N1108 C1109 1.351 . S
C1109 C1103 1.428 1_545 S
C1109 N1108 1.351 . S
C1109 C1110 1.434 . S
C1110 C1101 1.429 . S
C1110 N1107 1.350 . S
C1110 C1109 1.434 . S
C1111 C1112 1.369 1_565 S
C1111 C1113 1.419 . S
C1111 H1115 0.930 . S
C1112 C1111 1.369 1_545 S
C1112 C1121 1.429 . S
C1113 C1111 1.419 . S
C1113 C1114 1.363 . S
C1113 H1116 0.929 . S
C1114 C1113 1.363 . S
C1114 C1120 1.428 1_565 S
H1115 C1111 0.930 . S
H1116 C1113 0.929 . S
S1117 N1118 1.613 . S
S1117 N1119 1.610 . S
N1118 S1117 1.613 . S
N1118 C1121 1.350 . S
N1119 S1117 1.610 . S
N1119 C1120 1.351 . S
C1120 C1114 1.428 1_545 S
C1120 N1119 1.351 . S
C1120 C1121 1.434 . S
C1121 C1112 1.429 . S
C1121 N1118 1.350 . S
C1121 C1120 1.434 . S
C1122 C1123 1.369 . S
C1122 C1124 1.419 . S
C1122 H1126 0.930 . S
C1123 C1122 1.369 . S
C1123 C1132 1.429 . S
C1124 C1122 1.419 . S
C1124 C1125 1.363 . S
C1124 H1127 0.929 . S
C1125 C1124 1.363 . S
C1125 C1131 1.428 . S
H1126 C1122 0.930 . S
H1127 C1124 0.929 . S
S1128 N1129 1.613 . S
S1128 N1130 1.610 . S
N1129 S1128 1.613 . S
N1129 C1132 1.350 . S
N1130 S1128 1.610 . S
N1130 C1131 1.351 . S
C1131 C1125 1.428 . S
C1131 N1130 1.351 . S
C1131 C1132 1.434 . S
C1132 C1123 1.429 . S
C1132 N1129 1.350 . S
C1132 C1131 1.434 . S
C1133 C1134 1.369 . S
C1133 C1135 1.419 . S
C1133 H1137 0.930 . S
C1134 C1133 1.369 . S
C1134 C1143 1.429 . S
C1135 C1133 1.419 . S
C1135 C1136 1.363 . S
C1135 H1138 0.929 . S
C1136 C1135 1.363 . S
C1136 C1142 1.428 . S
H1137 C1133 0.930 . S
H1138 C1135 0.929 . S
S1139 N1140 1.613 . S
S1139 N1141 1.610 . S
N1140 S1139 1.613 . S
N1140 C1143 1.350 . S
N1141 S1139 1.610 . S
N1141 C1142 1.351 . S
C1142 C1136 1.428 . S
C1142 N1141 1.351 . S
C1142 C1143 1.434 . S
C1143 C1134 1.429 . S
C1143 N1140 1.350 . S
C1143 C1142 1.434 . S
C1144 C1145 1.369 1_556 S
C1144 C1146 1.419 . S
C1144 H1148 0.930 . S
C1145 C1144 1.369 1_554 S
C1145 C1154 1.429 . S
C1146 C1144 1.419 . S
C1146 C1147 1.363 . S
C1146 H1149 0.929 . S
C1147 C1146 1.363 . S
C1147 C1153 1.428 1_556 S
H1148 C1144 0.930 . S
H1149 C1146 0.929 . S
S1150 N1151 1.613 . S
S1150 N1152 1.610 . S
N1151 S1150 1.613 . S
N1151 C1154 1.350 . S
N1152 S1150 1.610 . S
N1152 C1153 1.351 . S
C1153 C1147 1.428 1_554 S
C1153 N1152 1.351 . S
C1153 C1154 1.434 . S
C1154 C1145 1.429 . S
C1154 N1151 1.350 . S
C1154 C1153 1.434 . S
C1155 C1156 1.369 . S
C1155 C1157 1.419 . S
C1155 H1159 0.930 . S
C1156 C1155 1.369 . S
C1156 C1165 1.429 1_556 S
C1157 C1155 1.419 . S
C1157 C1158 1.363 1_556 S
C1157 H1160 0.929 . S
C1158 C1157 1.363 1_554 S
C1158 C1164 1.428 . S
H1159 C1155 0.930 . S
H1160 C1157 0.929 . S
S1161 N1162 1.613 . S
S1161 N1163 1.610 . S
N1162 S1161 1.613 . S
N1162 C1165 1.350 . S
N1163 S1161 1.610 . S
N1163 C1164 1.351 . S
C1164 C1158 1.428 . S
C1164 N1163 1.351 . S
C1164 C1165 1.434 . S
C1165 C1156 1.429 1_554 S
C1165 N1162 1.350 . S
C1165 C1164 1.434 . S
C1166 C1167 1.369 . S
C1166 C1168 1.419 . S
C1166 H1170 0.930 . S
C1167 C1166 1.369 . S
C1167 C1176 1.429 . S
C1168 C1166 1.419 . S
C1168 C1169 1.363 . S
C1168 H1171 0.929 . S
C1169 C1168 1.363 . S
C1169 C1175 1.428 . S
H1170 C1166 0.930 . S
H1171 C1168 0.929 . S
S1172 N1173 1.613 . S
S1172 N1174 1.610 . S
N1173 S1172 1.613 . S
N1173 C1176 1.350 . S
N1174 S1172 1.610 . S
N1174 C1175 1.351 . S
C1175 C1169 1.428 . S
C1175 N1174 1.351 . S
C1175 C1176 1.434 . S
C1176 C1167 1.429 . S
C1176 N1173 1.350 . S
C1176 C1175 1.434 . S
C1177 C1178 1.369 . S
C1177 C1179 1.419 . S
C1177 H1181 0.930 . S
C1178 C1177 1.369 . S
C1178 C1187 1.429 . S
C1179 C1177 1.419 . S
C1179 C1180 1.363 . S
C1179 H1182 0.929 . S
C1180 C1179 1.363 . S
C1180 C1186 1.428 . S
H1181 C1177 0.930 . S
H1182 C1179 0.929 . S
S1183 N1184 1.613 . S
S1183 N1185 1.610 . S
N1184 S1183 1.613 . S
N1184 C1187 1.350 . S
N1185 S1183 1.610 . S
N1185 C1186 1.351 . S
C1186 C1180 1.428 . S
C1186 N1185 1.351 . S
C1186 C1187 1.434 . S
C1187 C1178 1.429 . S
C1187 N1184 1.350 . S
C1187 C1186 1.434 . S
C1188 C1189 1.369 . S
C1188 C1190 1.419 . S
C1188 H1192 0.930 . S
C1189 C1188 1.369 . S
C1189 C1198 1.429 1_655 S
C1190 C1188 1.419 . S
C1190 C1191 1.363 1_655 S
C1190 H1193 0.929 . S
C1191 C1190 1.363 1_455 S
C1191 C1197 1.428 . S
H1192 C1188 0.930 . S
H1193 C1190 0.929 . S
S1194 N1195 1.613 . S
S1194 N1196 1.610 . S
N1195 S1194 1.613 . S
N1195 C1198 1.350 . S
N1196 S1194 1.610 . S
N1196 C1197 1.351 . S
C1197 C1191 1.428 . S
C1197 N1196 1.351 . S
C1197 C1198 1.434 . S
C1198 C1189 1.429 1_455 S
C1198 N1195 1.350 . S
C1198 C1197 1.434 . S
C1199 C1200 1.369 . S
C1199 C1201 1.419 . S
C1199 H1203 0.930 . S
C1200 C1199 1.369 . S
C1200 C1209 1.429 . S
C1201 C1199 1.419 . S
C1201 C1202 1.363 . S
C1201 H1204 0.929 . S
C1202 C1201 1.363 . S
C1202 C1208 1.428 . S
H1203 C1199 0.930 . S
H1204 C1201 0.929 . S
S1205 N1206 1.613 . S
S1205 N1207 1.610 . S
N1206 S1205 1.613 . S
N1206 C1209 1.350 . S
N1207 S1205 1.610 . S
N1207 C1208 1.351 . S
C1208 C1202 1.428 . S
C1208 N1207 1.351 . S
C1208 C1209 1.434 . S
C1209 C1200 1.429 . S
C1209 N1206 1.350 . S
C1209 C1208 1.434 . S
C1210 C1211 1.369 . S
C1210 C1212 1.419 . S
C1210 H1214 0.930 . S
C1211 C1210 1.369 . S
C1211 C1220 1.429 . S
C1212 C1210 1.419 . S
C1212 C1213 1.363 . S
C1212 H1215 0.929 . S
C1213 C1212 1.363 . S
C1213 C1219 1.428 . S
H1214 C1210 0.930 . S
H1215 C1212 0.929 . S
S1216 N1217 1.613 . S
S1216 N1218 1.610 . S
N1217 S1216 1.613 . S
N1217 C1220 1.350 . S
N1218 S1216 1.610 . S
N1218 C1219 1.351 . S
C1219 C1213 1.428 . S
C1219 N1218 1.351 . S
C1219 C1220 1.434 . S
C1220 C1211 1.429 . S
C1220 N1217 1.350 . S
C1220 C1219 1.434 . S
C1221 C1222 1.369 . S
C1221 C1223 1.419 . S
C1221 H1225 0.930 . S
C1222 C1221 1.369 . S
C1222 C1231 1.429 1_655 S
C1223 C1221 1.419 . S
C1223 C1224 1.363 1_655 S
C1223 H1226 0.929 . S
C1224 C1223 1.363 1_455 S
C1224 C1230 1.428 . S
H1225 C1221 0.930 . S
H1226 C1223 0.929 . S
S1227 N1228 1.613 . S
S1227 N1229 1.610 . S
N1228 S1227 1.613 . S
N1228 C1231 1.350 . S
N1229 S1227 1.610 . S
N1229 C1230 1.351 . S
C1230 C1224 1.428 . S
C1230 N1229 1.351 . S
C1230 C1231 1.434 . S
C1231 C1222 1.429 1_455 S
C1231 N1228 1.350 . S
C1231 C1230 1.434 . S
C1232 C1233 1.369 . S
C1232 C1234 1.419 1_565 S
C1232 H1236 0.930 . S
C1233 C1232 1.369 . S
C1233 C1242 1.429 . S
C1234 C1232 1.419 1_545 S
C1234 C1235 1.363 . S
C1234 H1237 0.929 . S
C1235 C1234 1.363 . S
C1235 C1241 1.428 . S
H1236 C1232 0.930 . S
H1237 C1234 0.929 . S
S1238 N1239 1.613 1_545 S
S1238 N1240 1.610 . S
N1239 S1238 1.613 1_565 S
N1239 C1242 1.350 . S
N1240 S1238 1.610 . S
N1240 C1241 1.351 . S
C1241 C1235 1.428 . S
C1241 N1240 1.351 . S
C1241 C1242 1.434 1_545 S
C1242 C1233 1.429 . S
C1242 N1239 1.350 . S
C1242 C1241 1.434 1_565 S
C1243 C1244 1.369 1_565 S
C1243 C1245 1.419 . S
C1243 H1247 0.930 . S
C1244 C1243 1.369 1_545 S
C1244 C1253 1.429 . S
C1245 C1243 1.419 . S
C1245 C1246 1.363 . S
C1245 H1248 0.929 . S
C1246 C1245 1.363 . S
C1246 C1252 1.428 1_565 S
H1247 C1243 0.930 . S
H1248 C1245 0.929 . S
S1249 N1250 1.613 . S
S1249 N1251 1.610 . S
N1250 S1249 1.613 . S
N1250 C1253 1.350 . S
N1251 S1249 1.610 . S
N1251 C1252 1.351 . S
C1252 C1246 1.428 1_545 S
C1252 N1251 1.351 . S
C1252 C1253 1.434 . S
C1253 C1244 1.429 . S
C1253 N1250 1.350 . S
C1253 C1252 1.434 . S
C1254 C1255 1.369 . S
C1254 C1256 1.419 . S
C1254 H1258 0.930 . S
C1255 C1254 1.369 . S
C1255 C1264 1.429 . S
C1256 C1254 1.419 . S
C1256 C1257 1.363 . S
C1256 H1259 0.929 . S
C1257 C1256 1.363 . S
C1257 C1263 1.428 . S
H1258 C1254 0.930 . S
H1259 C1256 0.929 . S
S1260 N1261 1.613 . S
S1260 N1262 1.610 . S
N1261 S1260 1.613 . S
N1261 C1264 1.350 . S
N1262 S1260 1.610 . S
N1262 C1263 1.351 . S
C1263 C1257 1.428 . S
C1263 N1262 1.351 . S
C1263 C1264 1.434 . S
C1264 C1255 1.429 . S
C1264 N1261 1.350 . S
C1264 C1263 1.434 . S
C1265 C1266 1.369 . S
C1265 C1267 1.419 . S
C1265 H1269 0.930 . S
C1266 C1265 1.369 . S
C1266 C1275 1.429 . S
C1267 C1265 1.419 . S
C1267 C1268 1.363 . S
C1267 H1270 0.929 . S
C1268 C1267 1.363 . S
C1268 C1274 1.428 . S
H1269 C1265 0.930 . S
H1270 C1267 0.929 . S
S1271 N1272 1.613 . S
S1271 N1273 1.610 . S
N1272 S1271 1.613 . S
N1272 C1275 1.350 . S
N1273 S1271 1.610 . S
N1273 C1274 1.351 . S
C1274 C1268 1.428 . S
C1274 N1273 1.351 . S
C1274 C1275 1.434 . S
C1275 C1266 1.429 . S
C1275 N1272 1.350 . S
C1275 C1274 1.434 . S
C1276 C1277 1.369 1_554 S
C1276 C1278 1.419 . S
C1276 H1280 0.930 . S
C1277 C1276 1.369 1_556 S
C1277 C1286 1.429 . S
C1278 C1276 1.419 . S
C1278 C1279 1.363 . S
C1278 H1281 0.929 . S
C1279 C1278 1.363 . S
C1279 C1285 1.428 1_554 S
H1280 C1276 0.930 . S
H1281 C1278 0.929 . S
S1282 N1283 1.613 . S
S1282 N1284 1.610 . S
N1283 S1282 1.613 . S
N1283 C1286 1.350 . S
N1284 S1282 1.610 . S
N1284 C1285 1.351 . S
C1285 C1279 1.428 1_556 S
C1285 N1284 1.351 . S
C1285 C1286 1.434 . S
C1286 C1277 1.429 . S
C1286 N1283 1.350 . S
C1286 C1285 1.434 . S
C1287 C1288 1.369 . S
C1287 C1289 1.419 1_556 S
C1287 H1291 0.930 . S
C1288 C1287 1.369 . S
C1288 C1297 1.429 . S
C1289 C1287 1.419 1_554 S
C1289 C1290 1.363 . S
C1289 H1292 0.929 . S
C1290 C1289 1.363 . S
C1290 C1296 1.428 . S
H1291 C1287 0.930 . S
H1292 C1289 0.929 . S
S1293 N1294 1.613 . S
S1293 N1295 1.610 1_556 S
N1294 S1293 1.613 . S
N1294 C1297 1.350 . S
N1295 S1293 1.610 1_554 S
N1295 C1296 1.351 . S
C1296 C1290 1.428 . S
C1296 N1295 1.351 . S
C1296 C1297 1.434 1_554 S
C1297 C1288 1.429 . S
C1297 N1294 1.350 . S
C1297 C1296 1.434 1_556 S
C1298 C1299 1.369 . S
C1298 C1300 1.419 . S
C1298 H1302 0.930 . S
C1299 C1298 1.369 . S
C1299 C1308 1.429 . S
C1300 C1298 1.419 . S
C1300 C1301 1.363 . S
C1300 H1303 0.929 . S
C1301 C1300 1.363 . S
C1301 C1307 1.428 . S
H1302 C1298 0.930 . S
H1303 C1300 0.929 . S
S1304 N1305 1.613 . S
S1304 N1306 1.610 . S
N1305 S1304 1.613 . S
N1305 C1308 1.350 . S
N1306 S1304 1.610 . S
N1306 C1307 1.351 . S
C1307 C1301 1.428 . S
C1307 N1306 1.351 . S
C1307 C1308 1.434 . S
C1308 C1299 1.429 . S
C1308 N1305 1.350 . S
C1308 C1307 1.434 . S
C1309 C1310 1.369 . S
C1309 C1311 1.419 . S
C1309 H1313 0.930 . S
C1310 C1309 1.369 . S
C1310 C1319 1.429 . S
C1311 C1309 1.419 . S
C1311 C1312 1.363 . S
C1311 H1314 0.929 . S
C1312 C1311 1.363 . S
C1312 C1318 1.428 . S
H1313 C1309 0.930 . S
H1314 C1311 0.929 . S
S1315 N1316 1.613 . S
S1315 N1317 1.610 . S
N1316 S1315 1.613 . S
N1316 C1319 1.350 . S
N1317 S1315 1.610 . S
N1317 C1318 1.351 . S
C1318 C1312 1.428 . S
C1318 N1317 1.351 . S
C1318 C1319 1.434 . S
C1319 C1310 1.429 . S
C1319 N1316 1.350 . S
C1319 C1318 1.434 . S
C529 C7 1.284 . S
C531 C414 1.294 . S
C540 C426 1.296 . S
C542 C29 1.281 . S
C551 C65 1.287 . S
C553 C360 1.293 . S
C562 C81 1.282 . S
C564 C392 1.296 . S
C573 C494 1.297 . S
C575 C109 1.281 . S
C584 C125 1.286 . S
C586 C480 1.293 . S
C595 C514 1.292 . S
C597 C153 1.286 . S
C606 C175 1.281 . S
C608 C448 1.296 . S
C617 C197 1.287 . S
C619 C304 1.293 . S
C628 C205 1.280 . S
C630 C338 1.296 . S
C639 C316 1.297 . S
C641 C227 1.281 . S
C650 C257 1.281 . S
C652 C272 1.296 . S
C661 C285 1.287 . S
C663 C140 1.293 . S
C672 C293 1.284 . S
C674 C162 1.295 . S
C683 C329 1.282 . S
C685 C96 1.296 . S
C694 C120 1.296 . S
C696 C351 1.280 . S
C705 C373 1.282 . S
C707 C238 1.296 . S
C716 C216 1.296 . S
C718 C381 1.281 . S
C727 C252 1.295 . S
C729 C403 1.284 . S
C738 C184 1.297 . S
C740 C439 1.282 . S
C749 C40 1.294 . S
C751 C461 1.283 . S
C760 C76 1.293 . S
C762 C469 1.286 . S
C771 C52 1.295 . S
C773 C499 1.282 . S
C782 C527 1.287 . S
C784 C18 1.293 . S
C793 C433 1.232 . S
C795 C15 1.235 . S
C804 C417 1.224 . S
C806 C37 1.229 . S
C815 C51 1.237 . S
C817 C395 1.231 . S
C826 C367 1.230 . S
C828 C87 1.233 . S
C837 C95 1.229 . S
C839 C521 1.226 . S
C848 C131 1.230 . S
C850 C455 1.226 . S
C859 C491 1.223 . S
C861 C139 1.229 . S
C870 C161 1.234 . S
C872 C483 1.227 . S
C881 C323 1.225 . S
C883 C183 1.232 . S
C892 C279 1.222 . S
C894 C213 1.229 . S
C903 C307 1.226 . S
C905 C235 1.233 . S
C914 C345 1.222 . S
C916 C263 1.229 . S
C925 C271 1.235 . S
C927 C169 1.231 . S
C936 C301 1.234 . S
C938 C147 1.226 . S
C947 C117 1.231 . S
C949 C315 1.234 . S
C958 C103 1.228 . S
C960 C337 1.235 . S
C969 C249 1.232 . S
C971 C359 1.235 . S
C980 C389 1.228 . S
C982 C191 1.224 . S
C991 C241 1.226 . S
C993 C411 1.230 . S
C1002 C219 1.232 . S
C1004 C425 1.235 . S
C1013 C447 1.228 . S
C1015 C59 1.225 . S
C1024 C477 1.229 . S
C1026 C21 1.223 . S
C1035 C43 1.227 . S
C1037 C505 1.230 . S
C1046 C73 1.232 . S
C1048 C513 1.236 . S
C1057 C10 1.219 . S
C1059 C206 1.217 . S
C1068 C228 1.220 . S
C1070 C32 1.218 . S
C1079 C186 1.218 . S
C1081 C62 1.218 . S
C1090 C260 1.211 . S
C1092 C74 1.212 . S
C1101 C106 1.211 . S
C1103 C84 1.212 . S
C1112 C54 1.213 . S
C1114 C118 1.212 . S
C1123 C150 1.217 . S
C1125 C30 1.215 . S
C1134 C8 1.215 . S
C1136 C172 1.213 . S
C1145 C194 1.217 . S
C1147 C128 1.215 . S
C1156 C208 1.218 . S
C1158 C164 1.219 . S
C1167 C230 1.215 . S
C1169 C142 1.217 . S
C1178 C250 1.212 . S
C1180 C98 1.215 . S
C1189 C282 1.212 . S
C1191 C470 1.215 . S
C1200 C296 1.220 . S
C1202 C502 1.218 . S
C1211 C450 1.211 . S
C1213 C326 1.212 . S
C1222 C516 1.211 . S
C1224 C348 1.212 . S
C1233 C370 1.219 . S
C1235 C340 1.219 . S
C1244 C384 1.212 . S
C1246 C318 1.212 . S
C1255 C294 1.212 . S
C1257 C406 1.213 . S
C1266 C436 1.218 . S
C1268 C274 1.219 . S
C1277 C458 1.217 . S
C1279 C382 1.215 . S
C1288 C428 1.219 . S
C1290 C472 1.219 . S
C1299 C492 1.218 . S
C1301 C404 1.219 . S
C1310 C524 1.211 . S
C1312 C362 1.214 . S
