# Generated by pormake.
# Topology yfw, (5)-cn, num edge types: 1
# Building blocks:
#     Node 0, Type 0, BuildingBlock: XOMCOT_clean_sbu_0, # of connection points: 5
#     Node 1, Type 0, BuildingBlock: XOMCOT_clean_sbu_0, # of connection points: 5
#     Node 2, Type 0, BuildingBlock: XOMCOT_clean_sbu_0, # of connection points: 5
#     Node 3, Type 0, BuildingBlock: XOMCOT_clean_sbu_0, # of connection points: 5
#     Node 4, Type 0, BuildingBlock: XOMCOT_clean_sbu_0, # of connection points: 5
#     Node 5, Type 0, BuildingBlock: XOMCOT_clean_sbu_0, # of connection points: 5
#     Node 6, Type 0, BuildingBlock: XOMCOT_clean_sbu_0, # of connection points: 5
#     Node 7, Type 0, BuildingBlock: XOMCOT_clean_sbu_0, # of connection points: 5
#     Node 8, Type 0, BuildingBlock: XOMCOT_clean_sbu_0, # of connection points: 5
#     Node 9, Type 0, BuildingBlock: XOMCOT_clean_sbu_0, # of connection points: 5
#     Node 10, Type 0, BuildingBlock: XOMCOT_clean_sbu_0, # of connection points: 5
#     Node 11, Type 0, BuildingBlock: XOMCOT_clean_sbu_0, # of connection points: 5
#     Node 12, Type 0, BuildingBlock: XOMCOT_clean_sbu_0, # of connection points: 5
#     Node 13, Type 0, BuildingBlock: XOMCOT_clean_sbu_0, # of connection points: 5
#     Node 14, Type 0, BuildingBlock: XOMCOT_clean_sbu_0, # of connection points: 5
#     Node 15, Type 0, BuildingBlock: XOMCOT_clean_sbu_0, # of connection points: 5
#     Edge 16, Type (0, 0), BuildingBlock: CIFDUS_clean_linker_0, # of connection points: 2
#     Edge 17, Type (0, 0), BuildingBlock: CIFDUS_clean_linker_0, # of connection points: 2
#     Edge 18, Type (0, 0), BuildingBlock: CIFDUS_clean_linker_0, # of connection points: 2
#     Edge 19, Type (0, 0), BuildingBlock: CIFDUS_clean_linker_0, # of connection points: 2
#     Edge 20, Type (0, 0), BuildingBlock: CIFDUS_clean_linker_0, # of connection points: 2
#     Edge 21, Type (0, 0), BuildingBlock: CIFDUS_clean_linker_0, # of connection points: 2
#     Edge 22, Type (0, 0), BuildingBlock: CIFDUS_clean_linker_0, # of connection points: 2
#     Edge 23, Type (0, 0), BuildingBlock: CIFDUS_clean_linker_0, # of connection points: 2
#     Edge 24, Type (0, 0), BuildingBlock: CIFDUS_clean_linker_0, # of connection points: 2
#     Edge 25, Type (0, 0), BuildingBlock: CIFDUS_clean_linker_0, # of connection points: 2
#     Edge 26, Type (0, 0), BuildingBlock: CIFDUS_clean_linker_0, # of connection points: 2
#     Edge 27, Type (0, 0), BuildingBlock: CIFDUS_clean_linker_0, # of connection points: 2
#     Edge 28, Type (0, 0), BuildingBlock: CIFDUS_clean_linker_0, # of connection points: 2
#     Edge 29, Type (0, 0), BuildingBlock: CIFDUS_clean_linker_0, # of connection points: 2
#     Edge 30, Type (0, 0), BuildingBlock: CIFDUS_clean_linker_0, # of connection points: 2
#     Edge 31, Type (0, 0), BuildingBlock: CIFDUS_clean_linker_0, # of connection points: 2
#     Edge 32, Type (0, 0), BuildingBlock: CIFDUS_clean_linker_0, # of connection points: 2
#     Edge 33, Type (0, 0), BuildingBlock: CIFDUS_clean_linker_0, # of connection points: 2
#     Edge 34, Type (0, 0), BuildingBlock: CIFDUS_clean_linker_0, # of connection points: 2
#     Edge 35, Type (0, 0), BuildingBlock: CIFDUS_clean_linker_0, # of connection points: 2
#     Edge 36, Type (0, 0), BuildingBlock: CIFDUS_clean_linker_0, # of connection points: 2
#     Edge 37, Type (0, 0), BuildingBlock: CIFDUS_clean_linker_0, # of connection points: 2
#     Edge 38, Type (0, 0), BuildingBlock: CIFDUS_clean_linker_0, # of connection points: 2
#     Edge 39, Type (0, 0), BuildingBlock: CIFDUS_clean_linker_0, # of connection points: 2
#     Edge 40, Type (0, 0), BuildingBlock: CIFDUS_clean_linker_0, # of connection points: 2
#     Edge 41, Type (0, 0), BuildingBlock: CIFDUS_clean_linker_0, # of connection points: 2
#     Edge 42, Type (0, 0), BuildingBlock: CIFDUS_clean_linker_0, # of connection points: 2
#     Edge 43, Type (0, 0), BuildingBlock: CIFDUS_clean_linker_0, # of connection points: 2
#     Edge 44, Type (0, 0), BuildingBlock: CIFDUS_clean_linker_0, # of connection points: 2
#     Edge 45, Type (0, 0), BuildingBlock: CIFDUS_clean_linker_0, # of connection points: 2
#     Edge 46, Type (0, 0), BuildingBlock: CIFDUS_clean_linker_0, # of connection points: 2
#     Edge 47, Type (0, 0), BuildingBlock: CIFDUS_clean_linker_0, # of connection points: 2
#     Edge 48, Type (0, 0), BuildingBlock: CIFDUS_clean_linker_0, # of connection points: 2
#     Edge 49, Type (0, 0), BuildingBlock: CIFDUS_clean_linker_0, # of connection points: 2
#     Edge 50, Type (0, 0), BuildingBlock: CIFDUS_clean_linker_0, # of connection points: 2
#     Edge 51, Type (0, 0), BuildingBlock: CIFDUS_clean_linker_0, # of connection points: 2
#     Edge 52, Type (0, 0), BuildingBlock: CIFDUS_clean_linker_0, # of connection points: 2
#     Edge 53, Type (0, 0), BuildingBlock: CIFDUS_clean_linker_0, # of connection points: 2
#     Edge 54, Type (0, 0), BuildingBlock: CIFDUS_clean_linker_0, # of connection points: 2
#     Edge 55, Type (0, 0), BuildingBlock: CIFDUS_clean_linker_0, # of connection points: 2
# Relax obj value: 0.106
# Max RMSD: 0.159
# Mean RMSD: 0.159
data_MOF--net-yfw--node1-XOMCOT_clean_sbu_0--edge1-CIFDUS_clean_linker_0
_symmetry_space_group_name_H-M    P1
_symmetry_Int_Tables_number       1
_symmetry_cell_setting            triclinic
loop_
_symmetry_equiv_pos_as_xyz
'x, y, z'
_cell_length_a     51.347751
_cell_length_b     51.340632
_cell_length_c     21.650277
_cell_angle_alpha  89.994391
_cell_angle_beta   89.930902
_cell_angle_gamma 90.12133
loop_
_atom_site_label
_atom_site_type_symbol
_atom_site_fract_x
_atom_site_fract_y
_atom_site_fract_z
_atom_type_partial_charge
Co0 Co 0.1473 0.07878 0.95903 0.0
C1 C 0.20014 0.09869 0.93785 0.0
C2 C 0.20041 0.06816 0.00555 0.0
C3 C 0.22581 0.07506 0.99222 0.0
N4 N 0.18439 0.08304 0.97136 0.0
N5 N 0.2256 0.0941 0.94913 0.0
H6 H 0.19303 0.11243 0.90397 0.0
H7 H 0.19418 0.05243 0.03538 0.0
C8 C 0.12701 0.06733 0.08652 0.0
O9 O 0.10895 0.08521 0.07995 0.0
N10 N 0.10994 0.07429 0.9435 0.0
C11 C 0.09652 0.086 0.89761 0.0
C12 C 0.07156 0.07662 0.89635 0.0
C13 C 0.09294 0.05658 0.96706 0.0
N14 N 0.06916 0.05821 0.94014 0.0
C15 C 0.13108 0.13293 0.9524 0.0
C16 C 0.1448 0.14544 0.07221 0.0
C17 C 0.1301 0.16329 0.03804 0.0
C18 C 0.12407 0.15719 0.9766 0.0
C19 C 0.15098 0.12122 0.04644 0.0
N20 N 0.14229 0.11443 0.9889 0.0
H21 H 0.12742 0.12917 0.90442 0.0
H22 H 0.16204 0.10757 0.07378 0.0
H23 H 0.10451 0.09913 0.8637 0.0
H24 H 0.09788 0.0424 0.00203 0.0
O25 O 0.15253 0.08457 0.87101 0.0
O26 O 0.15369 0.0463 0.91931 0.0
O27 O 0.14384 0.06355 0.04418 0.0
C28 C 0.15591 0.05939 0.86847 0.0
H29 H 0.24308 0.06564 0.01006 0.0
H30 H 0.05666 0.082 0.86342 0.0
H31 H 0.15045 0.14965 0.11935 0.0
H32 H 0.11381 0.17099 0.94769 0.0
Co33 Co 0.9461 0.64744 0.24755 0.0
C34 C 0.92826 0.7029 0.2308 0.0
C35 C 0.96417 0.69961 0.28048 0.0
C36 C 0.95849 0.72556 0.27376 0.0
N37 N 0.94486 0.68522 0.25542 0.0
N38 N 0.93596 0.72764 0.24245 0.0
H39 H 0.9114 0.69811 0.20342 0.0
H40 H 0.98169 0.69174 0.30082 0.0
C41 C 0.95749 0.65695 0.38216 0.0
O42 O 0.9388 0.67435 0.38552 0.0
N43 N 0.94855 0.61018 0.23922 0.0
C44 C 0.93195 0.59376 0.21089 0.0
C45 C 0.94295 0.56925 0.21029 0.0
C46 C 0.96929 0.5957 0.25514 0.0
N47 N 0.96652 0.57057 0.23788 0.0
C48 C 0.88962 0.65073 0.24184 0.0
C49 C 0.88069 0.62331 0.34971 0.0
C50 C 0.85919 0.63173 0.31541 0.0
C51 C 0.86389 0.64575 0.2608 0.0
C52 C 0.9059 0.62882 0.32944 0.0
N53 N 0.91029 0.64312 0.27715 0.0
H54 H 0.89285 0.65968 0.19742 0.0
H55 H 0.92184 0.62043 0.35486 0.0
H56 H 0.91362 0.59939 0.19034 0.0
H57 H 0.98632 0.60369 0.27765 0.0
O58 O 0.94094 0.65039 0.15844 0.0
O59 O 0.97894 0.65073 0.20709 0.0
O60 O 0.96125 0.64416 0.33257 0.0
C61 C 0.96637 0.65116 0.15532 0.0
H62 H 0.97059 0.74172 0.28837 0.0
H63 H 0.93471 0.5521 0.18874 0.0
H64 H 0.87812 0.61214 0.39174 0.0
H65 H 0.84788 0.65187 0.23173 0.0
Co66 Co 0.37668 0.44567 0.48559 0.0
C67 C 0.32296 0.42824 0.46093 0.0
C68 C 0.32365 0.46321 0.51536 0.0
C69 C 0.29807 0.45642 0.50443 0.0
N70 N 0.33914 0.44551 0.48808 0.0
N71 N 0.29767 0.43442 0.47021 0.0
H72 H 0.32959 0.41187 0.43369 0.0
H73 H 0.33047 0.48 0.54089 0.0
C74 C 0.39333 0.45451 0.61761 0.0
O75 O 0.41184 0.43704 0.61181 0.0
N76 N 0.4146 0.44606 0.48203 0.0
C77 C 0.43035 0.4287 0.45383 0.0
C78 C 0.45564 0.437 0.45846 0.0
C79 C 0.43072 0.46532 0.50125 0.0
N80 N 0.45595 0.45996 0.4884 0.0
C81 C 0.38218 0.39054 0.46582 0.0
C82 C 0.37578 0.37527 0.58718 0.0
C83 C 0.38626 0.35751 0.5448 0.0
C84 C 0.38808 0.36498 0.48275 0.0
C85 C 0.37048 0.40083 0.56815 0.0
N86 N 0.3764 0.40881 0.50948 0.0
H87 H 0.38397 0.39602 0.41787 0.0
H88 H 0.36248 0.41423 0.60141 0.0
H89 H 0.42432 0.41178 0.42837 0.0
H90 H 0.42408 0.48291 0.5238 0.0
O91 O 0.37552 0.44264 0.39596 0.0
O92 O 0.37644 0.47969 0.44832 0.0
O93 O 0.37731 0.45857 0.57361 0.0
C94 C 0.37596 0.46804 0.39516 0.0
H95 H 0.2811 0.46684 0.52071 0.0
H96 H 0.47244 0.42745 0.43849 0.0
H97 H 0.37312 0.36993 0.63518 0.0
H98 H 0.39505 0.35147 0.44806 0.0
Co99 Co 0.57873 0.86665 0.74187 0.0
C100 C 0.59655 0.81276 0.71837 0.0
C101 C 0.56652 0.81406 0.78758 0.0
C102 C 0.57404 0.78857 0.77955 0.0
N103 N 0.58076 0.82921 0.74957 0.0
N104 N 0.59285 0.78777 0.73601 0.0
H105 H 0.61064 0.81896 0.68414 0.0
H106 H 0.5516 0.82095 0.81877 0.0
C107 C 0.56582 0.88686 0.86756 0.0
O108 O 0.584 0.90464 0.86005 0.0
N109 N 0.57596 0.90425 0.73327 0.0
C110 C 0.593 0.92168 0.7098 0.0
C111 C 0.58127 0.94577 0.70775 0.0
C112 C 0.55397 0.91796 0.74373 0.0
N113 N 0.55669 0.94341 0.7291 0.0
C114 C 0.6344 0.87518 0.73642 0.0
C115 C 0.64438 0.86402 0.85879 0.0
C116 C 0.6651 0.87284 0.82171 0.0
C117 C 0.65985 0.87765 0.75903 0.0
C118 C 0.61945 0.86131 0.8339 0.0
N119 N 0.6142 0.86886 0.77472 0.0
H120 H 0.63099 0.87832 0.68781 0.0
H121 H 0.60439 0.85315 0.86281 0.0
H122 H 0.61222 0.9175 0.69273 0.0
H123 H 0.53626 0.90926 0.76139 0.0
O124 O 0.58625 0.86401 0.65448 0.0
O125 O 0.54677 0.86318 0.69592 0.0
O126 O 0.56218 0.86934 0.82648 0.0
C127 C 0.56112 0.8627 0.64648 0.0
H128 H 0.56596 0.7718 0.80317 0.0
H129 H 0.58989 0.9634 0.68941 0.0
H130 H 0.64707 0.85954 0.90718 0.0
H131 H 0.67524 0.88308 0.72731 0.0
Co132 Co 0.868 0.08287 0.49989 0.0
C133 C 0.81222 0.09297 0.46679 0.0
C134 C 0.81898 0.09357 0.56459 0.0
C135 C 0.79314 0.09887 0.55406 0.0
N136 N 0.83098 0.08955 0.51005 0.0
N137 N 0.78885 0.09849 0.49262 0.0
H138 H 0.81543 0.09147 0.41757 0.0
H139 H 0.82842 0.0933 0.60919 0.0
C140 C 0.88601 0.055 0.61648 0.0
O141 O 0.91052 0.05717 0.60048 0.0
N142 N 0.90512 0.07679 0.48806 0.0
C143 C 0.92429 0.09478 0.48619 0.0
C144 C 0.94759 0.08247 0.47545 0.0
C145 C 0.91704 0.05388 0.47566 0.0
N146 N 0.94312 0.05668 0.46921 0.0
C147 C 0.87004 0.13853 0.49523 0.0
C148 C 0.89107 0.14662 0.61109 0.0
C149 C 0.88681 0.16817 0.57272 0.0
C150 C 0.87608 0.16391 0.51412 0.0
C151 C 0.88516 0.12155 0.59014 0.0
N152 N 0.875 0.11765 0.53254 0.0
H153 H 0.86156 0.13564 0.45014 0.0
H154 H 0.88942 0.10552 0.62024 0.0
H155 H 0.92183 0.1155 0.49226 0.0
H156 H 0.90684 0.03547 0.47329 0.0
O157 O 0.86619 0.09064 0.41245 0.0
O158 O 0.86041 0.0516 0.45396 0.0
O159 O 0.86794 0.06594 0.58507 0.0
C160 C 0.86209 0.0658 0.40444 0.0
H161 H 0.77874 0.10335 0.58903 0.0
H162 H 0.96644 0.0919 0.47415 0.0
H163 H 0.89951 0.14904 0.65658 0.0
H164 H 0.87216 0.18008 0.48337 0.0
Co165 Co 0.94252 0.37804 0.74825 0.0
C166 C 0.92826 0.32237 0.72061 0.0
C167 C 0.92984 0.33084 0.81753 0.0
C168 C 0.92162 0.30565 0.81028 0.0
N169 N 0.9344 0.3414 0.76157 0.0
N170 N 0.92028 0.30025 0.74939 0.0
H171 H 0.92839 0.32498 0.67105 0.0
H172 H 0.93124 0.341 0.8611 0.0
C173 C 0.97863 0.36783 0.84816 0.0
O174 O 0.9894 0.35188 0.80828 0.0
N175 N 0.94993 0.4146 0.73586 0.0
C176 C 0.93432 0.43162 0.70656 0.0
C177 C 0.94612 0.45568 0.70657 0.0
C178 C 0.97115 0.42839 0.75285 0.0
N179 N 0.96927 0.45369 0.7357 0.0
C180 C 0.88637 0.37778 0.75127 0.0
C181 C 0.88207 0.41218 0.84918 0.0
C182 C 0.85925 0.4032 0.82066 0.0
C183 C 0.86156 0.38543 0.77161 0.0
C184 C 0.9063 0.40402 0.82775 0.0
N185 N 0.90826 0.38718 0.77924 0.0
H186 H 0.88809 0.36464 0.71248 0.0
H187 H 0.92357 0.41194 0.84919 0.0
H188 H 0.91569 0.42677 0.68628 0.0
H189 H 0.98751 0.42008 0.77731 0.0
O190 O 0.93599 0.37494 0.65915 0.0
O191 O 0.97393 0.36965 0.70556 0.0
O192 O 0.95792 0.38013 0.83356 0.0
C193 C 0.96104 0.37093 0.65449 0.0
H194 H 0.91657 0.29252 0.8475 0.0
H195 H 0.93849 0.47315 0.68532 0.0
H196 H 0.88125 0.42567 0.8876 0.0
H197 H 0.84444 0.37815 0.74804 0.0
Co198 Co 0.64075 0.44232 0.99103 0.0
C199 C 0.69462 0.42855 0.95428 0.0
C200 C 0.69349 0.46113 0.01652 0.0
C201 C 0.71891 0.45693 0.99929 0.0
N202 N 0.67831 0.44335 0.98838 0.0
N203 N 0.71964 0.43654 0.95996 0.0
H204 H 0.68819 0.41293 0.92433 0.0
H205 H 0.68649 0.47653 0.04628 0.0
C206 C 0.6271 0.45122 0.12473 0.0
O207 O 0.60912 0.43306 0.12227 0.0
N208 N 0.60256 0.44181 0.99361 0.0
C209 C 0.5863 0.42149 0.00406 0.0
C210 C 0.56101 0.43002 0.00247 0.0
C211 C 0.58651 0.46252 0.98661 0.0
N212 N 0.56109 0.4558 0.99137 0.0
C213 C 0.63505 0.38699 0.97342 0.0
C214 C 0.65028 0.37243 0.09081 0.0
C215 C 0.63923 0.35348 0.05201 0.0
C216 C 0.63267 0.36088 0.99151 0.0
C217 C 0.65223 0.39829 0.07088 0.0
N218 N 0.64266 0.40563 0.01471 0.0
H219 H 0.62868 0.39256 0.92776 0.0
H220 H 0.66099 0.41241 0.10137 0.0
H221 H 0.59184 0.4019 0.01559 0.0
H222 H 0.59323 0.48216 0.97812 0.0
O223 O 0.63981 0.43913 0.90135 0.0
O224 O 0.64017 0.4762 0.95368 0.0
O225 O 0.64193 0.4555 0.07857 0.0
C226 C 0.64005 0.46455 0.90054 0.0
H227 H 0.73558 0.46818 0.01438 0.0
H228 H 0.54389 0.41822 0.01106 0.0
H229 H 0.65697 0.36745 0.13672 0.0
H230 H 0.62439 0.34702 0.95936 0.0
Co231 Co 0.57706 0.14572 0.22201 0.0
C232 C 0.59215 0.20104 0.20319 0.0
C233 C 0.55952 0.19696 0.26475 0.0
C234 C 0.565 0.22303 0.25787 0.0
N235 N 0.57662 0.18318 0.23087 0.0
N236 N 0.5855 0.22565 0.2192 0.0
H237 H 0.60794 0.19609 0.17223 0.0
H238 H 0.54384 0.18868 0.29179 0.0
C239 C 0.56562 0.1246 0.34865 0.0
O240 O 0.58356 0.10664 0.34127 0.0
N241 N 0.57675 0.10793 0.21188 0.0
C242 C 0.59404 0.09286 0.18142 0.0
C243 C 0.58398 0.06817 0.17534 0.0
C244 C 0.55612 0.09207 0.22266 0.0
N245 N 0.5601 0.06767 0.20104 0.0
C246 C 0.63312 0.14038 0.21192 0.0
C247 C 0.64364 0.14891 0.33529 0.0
C248 C 0.66382 0.13994 0.29716 0.0
C249 C 0.65854 0.13681 0.23395 0.0
C250 C 0.61862 0.15216 0.3113 0.0
N251 N 0.6131 0.14562 0.25154 0.0
H252 H 0.62945 0.13834 0.16308 0.0
H253 H 0.6037 0.15973 0.34137 0.0
H254 H 0.61209 0.09921 0.16123 0.0
H255 H 0.53803 0.09866 0.24301 0.0
O256 O 0.5821 0.14949 0.13314 0.0
O257 O 0.54412 0.14699 0.18173 0.0
O258 O 0.56213 0.14204 0.30758 0.0
C259 C 0.5567 0.14875 0.12999 0.0
H260 H 0.55423 0.23889 0.27858 0.0
H261 H 0.59332 0.05199 0.15222 0.0
H262 H 0.64707 0.15325 0.38356 0.0
H263 H 0.67365 0.13087 0.20204 0.0
Co264 Co 0.64959 0.57373 0.4899 0.0
C265 C 0.70563 0.58399 0.45897 0.0
C266 C 0.701 0.55486 0.52894 0.0
C267 C 0.72692 0.55656 0.51396 0.0
N268 N 0.68752 0.57255 0.49591 0.0
N269 N 0.72991 0.57476 0.46963 0.0
H270 H 0.70106 0.59709 0.42154 0.0
H271 H 0.69252 0.54043 0.55923 0.0
C272 C 0.65752 0.56705 0.62626 0.0
O273 O 0.67354 0.58705 0.62562 0.0
N274 N 0.61214 0.57428 0.48201 0.0
C275 C 0.59828 0.59219 0.45084 0.0
C276 C 0.57241 0.58529 0.45296 0.0
C277 C 0.59468 0.55658 0.50225 0.0
N278 N 0.57011 0.56289 0.48523 0.0
C279 C 0.66037 0.62989 0.48881 0.0
C280 C 0.62783 0.64066 0.58743 0.0
C281 C 0.64131 0.66134 0.55988 0.0
C282 C 0.65753 0.65577 0.50919 0.0
C283 C 0.63118 0.61539 0.56581 0.0
N284 N 0.64796 0.60991 0.51849 0.0
H285 H 0.67187 0.62618 0.44822 0.0
H286 H 0.61961 0.60015 0.58664 0.0
H287 H 0.60652 0.60885 0.42722 0.0
H288 H 0.59996 0.53938 0.52819 0.0
O289 O 0.65225 0.57802 0.40047 0.0
O290 O 0.6502 0.54043 0.45082 0.0
O291 O 0.64604 0.55989 0.5768 0.0
C292 C 0.65119 0.55257 0.3984 0.0
H293 H 0.74226 0.54457 0.53294 0.0
H294 H 0.55667 0.5955 0.43033 0.0
H295 H 0.6141 0.64396 0.62462 0.0
H296 H 0.66784 0.67121 0.48535 0.0
Co297 Co 0.44648 0.14611 0.72037 0.0
C298 C 0.42771 0.19937 0.69287 0.0
C299 C 0.46583 0.19946 0.7338 0.0
C300 C 0.45937 0.22467 0.71846 0.0
N301 N 0.44604 0.18367 0.71756 0.0
N302 N 0.43543 0.22455 0.69291 0.0
H303 H 0.40964 0.19242 0.67302 0.0
H304 H 0.48403 0.19296 0.75356 0.0
C305 C 0.4568 0.13247 0.85155 0.0
O306 O 0.43828 0.11484 0.84754 0.0
N307 N 0.44805 0.10819 0.72198 0.0
C308 C 0.43248 0.09064 0.69376 0.0
C309 C 0.44393 0.06648 0.69661 0.0
C310 C 0.46916 0.09438 0.7397 0.0
N311 N 0.46709 0.06883 0.72531 0.0
C312 C 0.39064 0.13603 0.71955 0.0
C313 C 0.38174 0.15467 0.83731 0.0
C314 C 0.36213 0.13999 0.80863 0.0
C315 C 0.3663 0.13187 0.74743 0.0
C316 C 0.40566 0.15826 0.80772 0.0
N317 N 0.41075 0.1466 0.75227 0.0
H318 H 0.39341 0.13035 0.67208 0.0
H319 H 0.42045 0.16961 0.83081 0.0
H320 H 0.41514 0.09486 0.66795 0.0
H321 H 0.48619 0.1032 0.76037 0.0
O322 O 0.44055 0.14495 0.63145 0.0
O323 O 0.4791 0.14595 0.67774 0.0
O324 O 0.46173 0.14745 0.80596 0.0
C325 C 0.46594 0.1446 0.6268 0.0
H326 H 0.47146 0.24176 0.72484 0.0
H327 H 0.43658 0.04895 0.67497 0.0
H328 H 0.3789 0.1628 0.88298 0.0
H329 H 0.35136 0.1215 0.72211 0.0
Co330 Co 0.87531 0.94178 0.00243 0.0
C331 C 0.82415 0.92774 0.94542 0.0
C332 C 0.81983 0.94197 0.0381 0.0
C333 C 0.79574 0.93452 0.01679 0.0
N334 N 0.83779 0.93761 0.99365 0.0
N335 N 0.79851 0.92571 0.9587 0.0
H336 H 0.83274 0.9215 0.90225 0.0
H337 H 0.82375 0.9495 0.08372 0.0
C338 C 0.87758 0.97937 0.10148 0.0
O339 O 0.88988 0.99341 0.05996 0.0
N340 N 0.91287 0.9455 0.01372 0.0
C341 C 0.92632 0.93392 0.05964 0.0
C342 C 0.95181 0.94187 0.05739 0.0
C343 C 0.93053 0.96096 0.98481 0.0
N344 N 0.95451 0.95891 0.01056 0.0
C345 C 0.89077 0.88847 0.99683 0.0
C346 C 0.87001 0.87318 0.1091 0.0
C347 C 0.88428 0.85503 0.07437 0.0
C348 C 0.89436 0.86289 0.01709 0.0
C349 C 0.86663 0.89856 0.08684 0.0
N350 N 0.87748 0.90606 0.03198 0.0
H351 H 0.89946 0.89444 0.95362 0.0
H352 H 0.85565 0.9122 0.11436 0.0
H353 H 0.91805 0.92119 0.09426 0.0
H354 H 0.92601 0.97383 0.9468 0.0
O355 O 0.88025 0.93588 0.91436 0.0
O356 O 0.8732 0.97425 0.95756 0.0
O357 O 0.87055 0.95615 0.08822 0.0
C358 C 0.87714 0.96087 0.90767 0.0
H359 H 0.77753 0.93549 0.04194 0.0
H360 H 0.96695 0.93645 0.08964 0.0
H361 H 0.86161 0.86783 0.15324 0.0
H362 H 0.90575 0.84966 0.98905 0.0
Co363 Co 0.07873 0.36816 0.25383 0.0
C364 C 0.09841 0.31544 0.2266 0.0
C365 C 0.06276 0.31444 0.27864 0.0
C366 C 0.06883 0.28942 0.26079 0.0
N367 N 0.08124 0.3307 0.257 0.0
N368 N 0.09119 0.29013 0.22807 0.0
H369 H 0.11471 0.3229 0.20016 0.0
H370 H 0.04524 0.32053 0.30231 0.0
C371 C 0.06396 0.38536 0.38071 0.0
O372 O 0.08103 0.40436 0.3756 0.0
N373 N 0.0753 0.40587 0.24906 0.0
C374 C 0.092 0.42365 0.22564 0.0
C375 C 0.07994 0.4475 0.22399 0.0
C376 C 0.05305 0.4192 0.25961 0.0
N377 N 0.05542 0.44473 0.24532 0.0
C378 C 0.13371 0.37869 0.24909 0.0
C379 C 0.14389 0.37097 0.37295 0.0
C380 C 0.16279 0.383 0.33599 0.0
C381 C 0.158 0.38573 0.27281 0.0
C382 C 0.11975 0.36432 0.34713 0.0
N383 N 0.11407 0.37072 0.2873 0.0
H384 H 0.1303 0.38107 0.20026 0.0
H385 H 0.10543 0.35493 0.37608 0.0
H386 H 0.11108 0.41987 0.20737 0.0
H387 H 0.03535 0.41017 0.27641 0.0
O388 O 0.08666 0.36726 0.16648 0.0
O389 O 0.04701 0.36519 0.20714 0.0
O390 O 0.06177 0.36834 0.33805 0.0
C391 C 0.06159 0.36574 0.15809 0.0
H392 H 0.05719 0.27216 0.26903 0.0
H393 H 0.08824 0.46522 0.2053 0.0
H394 H 0.14732 0.36781 0.42174 0.0
H395 H 0.17253 0.39423 0.24253 0.0
Co396 Co 0.3718 0.57739 0.98507 0.0
C397 C 0.31674 0.59192 0.96015 0.0
C398 C 0.32004 0.55803 0.0179 0.0
C399 C 0.29407 0.56325 0.00886 0.0
N400 N 0.33422 0.57607 0.9878 0.0
N401 N 0.29193 0.58457 0.97267 0.0
H402 H 0.32206 0.60856 0.93215 0.0
H403 H 0.32804 0.54203 0.0442 0.0
C404 C 0.38956 0.56908 0.11614 0.0
O405 O 0.40779 0.58682 0.10888 0.0
N406 N 0.40978 0.578 0.98188 0.0
C407 C 0.42606 0.59724 0.96359 0.0
C408 C 0.45129 0.58848 0.9666 0.0
C409 C 0.42555 0.55757 0.99425 0.0
N410 N 0.45095 0.56355 0.98576 0.0
C411 C 0.37531 0.63259 0.96398 0.0
C412 C 0.36967 0.64808 0.08543 0.0
C413 C 0.37926 0.66604 0.04221 0.0
C414 C 0.3806 0.65841 0.98016 0.0
C415 C 0.36488 0.62229 0.06714 0.0
N416 N 0.37042 0.6143 0.00829 0.0
H417 H 0.3776 0.62686 0.91631 0.0
H418 H 0.35771 0.60872 0.10116 0.0
H419 H 0.42063 0.6162 0.94718 0.0
H420 H 0.41853 0.53873 0.00942 0.0
O421 O 0.37064 0.58018 0.89545 0.0
O422 O 0.3725 0.54329 0.94826 0.0
O423 O 0.37302 0.56474 0.07335 0.0
C424 C 0.3719 0.55482 0.89497 0.0
H425 H 0.27797 0.55189 0.0268 0.0
H426 H 0.46852 0.59936 0.95355 0.0
H427 H 0.36745 0.65343 0.13353 0.0
H428 H 0.38703 0.67196 0.9449 0.0
Co429 Co 0.44196 0.87532 0.23578 0.0
C430 C 0.42255 0.82299 0.19875 0.0
C431 C 0.46116 0.82171 0.23689 0.0
C432 C 0.4544 0.79703 0.21778 0.0
N433 N 0.44127 0.83796 0.22471 0.0
N434 N 0.43016 0.79787 0.19401 0.0
H435 H 0.40419 0.83042 0.1818 0.0
H436 H 0.47956 0.82757 0.25688 0.0
C437 C 0.47714 0.87827 0.33979 0.0
O438 O 0.4916 0.89141 0.30067 0.0
N439 N 0.44277 0.91305 0.2485 0.0
C440 C 0.42734 0.92629 0.28798 0.0
C441 C 0.43594 0.95152 0.29242 0.0
C442 C 0.46092 0.93068 0.23014 0.0
N443 N 0.45729 0.95432 0.25672 0.0
C444 C 0.3878 0.88626 0.2225 0.0
C445 C 0.37169 0.86624 0.33488 0.0
C446 C 0.35354 0.87938 0.2978 0.0
C447 C 0.36177 0.88885 0.24026 0.0
C448 C 0.39754 0.86371 0.31494 0.0
N449 N 0.40547 0.87453 0.26039 0.0
H450 H 0.39406 0.89482 0.17938 0.0
H451 H 0.41122 0.85359 0.34414 0.0
H452 H 0.41159 0.91807 0.31477 0.0
H453 H 0.47744 0.92595 0.20131 0.0
O454 O 0.43797 0.87974 0.14666 0.0
O455 O 0.4755 0.8763 0.19563 0.0
O456 O 0.45451 0.87047 0.32333 0.0
C457 C 0.46328 0.87893 0.14375 0.0
H458 H 0.46642 0.77978 0.22082 0.0
H459 H 0.42746 0.96638 0.32152 0.0
H460 H 0.36601 0.85827 0.37923 0.0
H461 H 0.3485 0.8993 0.21036 0.0
Co462 Co 0.14458 0.94705 0.454 0.0
C463 C 0.20003 0.92854 0.4391 0.0
C464 C 0.19696 0.96699 0.47702 0.0
C465 C 0.22288 0.96093 0.47156 0.0
N466 N 0.18247 0.94648 0.45849 0.0
N467 N 0.22481 0.93681 0.44767 0.0
H468 H 0.19513 0.91011 0.41829 0.0
H469 H 0.18913 0.98537 0.49284 0.0
C470 C 0.15639 0.96246 0.58517 0.0
O471 O 0.17492 0.94491 0.58897 0.0
N472 N 0.10711 0.94879 0.44875 0.0
C473 C 0.09027 0.93014 0.43056 0.0
C474 C 0.06563 0.94082 0.42792 0.0
C475 C 0.09272 0.97045 0.45627 0.0
N476 N 0.06735 0.9662 0.44361 0.0
C477 C 0.14806 0.89043 0.45565 0.0
C478 C 0.12477 0.88442 0.56995 0.0
C479 C 0.13217 0.86199 0.5376 0.0
C480 C 0.14404 0.86523 0.47952 0.0
C481 C 0.12894 0.90896 0.54444 0.0
N482 N 0.14137 0.912 0.48903 0.0
H483 H 0.15565 0.89252 0.4094 0.0
H484 H 0.12099 0.92542 0.56879 0.0
H485 H 0.09559 0.91046 0.41819 0.0
H486 H 0.10083 0.98912 0.46943 0.0
O487 O 0.14608 0.93997 0.36523 0.0
O488 O 0.14672 0.97893 0.40954 0.0
O489 O 0.14238 0.96423 0.53691 0.0
C490 C 0.14623 0.96534 0.35929 0.0
H491 H 0.23912 0.97359 0.48245 0.0
H492 H 0.04806 0.931 0.41303 0.0
H493 H 0.11542 0.88314 0.61471 0.0
H494 H 0.14936 0.8485 0.45186 0.0
Co495 Co 0.07829 0.65888 0.75263 0.0
C496 C 0.0913 0.71332 0.71751 0.0
C497 C 0.07048 0.7115 0.8035 0.0
C498 C 0.07362 0.73721 0.7873 0.0
N499 N 0.08145 0.69646 0.75967 0.0
N500 N 0.08651 0.73837 0.73302 0.0
H501 H 0.10035 0.70741 0.67459 0.0
H502 H 0.05979 0.70446 0.84315 0.0
C503 C 0.06907 0.63887 0.88087 0.0
O504 O 0.08579 0.61995 0.8713 0.0
N505 N 0.07443 0.6212 0.74445 0.0
C506 C 0.09051 0.604 0.7168 0.0
C507 C 0.07898 0.57983 0.7167 0.0
C508 C 0.05295 0.60716 0.75916 0.0
N509 N 0.05535 0.58176 0.74336 0.0
C510 C 0.13328 0.64917 0.73246 0.0
C511 C 0.14851 0.65731 0.85318 0.0
C512 C 0.16668 0.64676 0.81174 0.0
C513 C 0.15904 0.64379 0.74982 0.0
C514 C 0.12303 0.66219 0.83387 0.0
N515 N 0.11506 0.65589 0.77555 0.0
H516 H 0.12779 0.64706 0.68458 0.0
H517 H 0.10972 0.67085 0.86645 0.0
H518 H 0.10884 0.60834 0.69513 0.0
H519 H 0.03583 0.61552 0.78046 0.0
O520 O 0.08067 0.66151 0.66297 0.0
O521 O 0.0443 0.66329 0.71862 0.0
O522 O 0.06577 0.65664 0.84052 0.0
C523 C 0.05539 0.66415 0.66496 0.0
H524 H 0.06619 0.7538 0.81261 0.0
H525 H 0.08693 0.56245 0.69571 0.0
H526 H 0.15383 0.66159 0.9005 0.0
H527 H 0.17248 0.63653 0.71536 0.0
H528 H 0.95787 1.00854 0.97046 0.0
H529 H 1.00395 0.94169 0.01987 0.0
H530 H 0.04396 0.96675 0.00468 0.0
H531 H 0.06601 1.00804 0.97794 0.0
H532 H 0.01965 0.07488 0.92954 0.0
H533 H 0.97982 0.04963 0.9435 0.0
C534 C 0.97668 0.9994 0.977 0.0
C535 C 0.97791 0.9733 0.99621 0.0
C536 C 0.99964 0.01403 0.96878 0.0
C537 C 1.00247 0.96183 0.00554 0.0
C538 C 0.02537 0.97615 0.99687 0.0
C539 C 0.04719 0.01708 0.97108 0.0
C540 C 0.04587 0.04328 0.95244 0.0
C541 C 0.02422 1.00236 0.97902 0.0
C542 C 0.02126 0.05466 0.94308 0.0
C543 C 0.99843 0.04024 0.95117 0.0
H544 H 0.95789 0.51855 0.2391 0.0
H545 H 0.01886 0.57651 0.24734 0.0
H546 H 0.05151 0.54249 0.25411 0.0
H547 H 0.06311 0.49643 0.25479 0.0
H548 H 1.00287 0.43802 0.24096 0.0
H549 H 0.96968 0.47201 0.23981 0.0
C550 C 0.97831 0.52375 0.24202 0.0
C551 C 0.98573 0.55018 0.24291 0.0
C552 C 0.99719 0.50398 0.24502 0.0
C553 C 0.01236 0.55647 0.24762 0.0
C554 C 0.03116 0.53697 0.25103 0.0
C555 C 0.04276 0.49107 0.25102 0.0
C556 C 0.03562 0.46464 0.24757 0.0
C557 C 0.02382 0.51069 0.24935 0.0
C558 C 1.00902 0.45813 0.24425 0.0
C559 C 0.99 0.4776 0.24312 0.0
H560 H 0.56628 0.51103 0.50432 0.0
H561 H 0.52051 0.58099 0.48611 0.0
H562 H 0.48053 0.55531 0.4899 0.0
H563 H 0.45861 0.51252 0.49051 0.0
H564 H 0.50467 0.4429 0.51004 0.0
H565 H 0.54439 0.46892 0.51465 0.0
C566 C 0.54762 0.52078 0.50237 0.0
C567 C 0.54655 0.54792 0.4941 0.0
C568 C 0.52466 0.5059 0.50452 0.0
C569 C 0.52202 0.56008 0.4911 0.0
C570 C 0.49908 0.54542 0.4936 0.0
C571 C 0.47729 0.50313 0.49696 0.0
C572 C 0.4787 0.4758 0.49908 0.0
C573 C 0.50016 0.51824 0.49908 0.0
C574 C 0.50311 0.46388 0.50705 0.0
C575 C 0.52584 0.47874 0.50987 0.0
H576 H 0.5646 0.99534 0.7374 0.0
H577 H 0.50418 0.9369 0.72729 0.0
H578 H 0.47105 0.97074 0.72917 0.0
H579 H 0.45912 0.01694 0.72988 0.0
H580 H 0.51953 0.0755 0.73437 0.0
H581 H 0.55263 0.04163 0.73892 0.0
C582 C 0.54422 0.98996 0.73517 0.0
C583 C 0.53705 0.96349 0.73201 0.0
C584 C 0.52517 1.00958 0.73539 0.0
C585 C 0.51042 0.95699 0.73045 0.0
C586 C 0.49138 0.97638 0.73112 0.0
C587 C 0.47952 0.02234 0.7315 0.0
C588 C 0.48668 0.04884 0.73151 0.0
C589 C 0.49854 1.00274 0.733 0.0
C590 C 0.51327 0.05537 0.73499 0.0
C591 C 0.5323 0.03596 0.73709 0.0
H592 H 0.0168 0.9588 0.47222 0.0
H593 H 0.07201 0.01672 0.41108 0.0
H594 H 0.03786 0.04971 0.41046 0.0
H595 H 0.99269 0.06223 0.42883 0.0
H596 H 0.93762 1.00501 0.49538 0.0
H597 H 0.97107 0.97153 0.49034 0.0
C598 C 0.02123 0.97861 0.45838 0.0
C599 C 0.04691 0.98536 0.44221 0.0
C600 C 1.0015 0.99758 0.45864 0.0
C601 C 0.0525 0.01115 0.42479 0.0
C602 C 0.03294 0.02998 0.42403 0.0
C603 C 0.98791 0.04255 0.44276 0.0
C604 C 0.9625 0.03643 0.46272 0.0
C605 C 1.00743 0.02346 0.44139 0.0
C606 C 0.95679 1.01048 0.47912 0.0
C607 C 0.97603 0.99125 0.47678 0.0
H608 H 0.95977 0.50525 0.74421 0.0
H609 H 0.02166 0.44856 0.74525 0.0
H610 H 0.05391 0.48349 0.75172 0.0
H611 H 0.0646 0.53016 0.75167 0.0
H612 H 1.00274 0.58687 0.74675 0.0
H613 H 0.97042 0.55192 0.74766 0.0
C614 C 0.98031 0.50051 0.74558 0.0
C615 C 0.98823 0.47424 0.74368 0.0
C616 C 0.99876 0.52072 0.74861 0.0
C617 C 0.01495 0.46851 0.74705 0.0
C618 C 0.03343 0.48852 0.75035 0.0
C619 C 0.04406 0.53492 0.75055 0.0
C620 C 0.0362 0.5612 0.74856 0.0
C621 C 0.02557 0.51469 0.75027 0.0
C622 C 1.00943 0.56692 0.74869 0.0
C623 C 0.9909 0.5469 0.74877 0.0
H624 H 0.55846 0.50719 0.01778 0.0
H625 H 0.5126 0.44185 0.95518 0.0
H626 H 0.47394 0.46923 0.95072 0.0
H627 H 0.45311 0.51204 0.96292 0.0
H628 H 0.49908 0.5776 0.02304 0.0
H629 H 0.5377 0.55001 0.02957 0.0
C630 C 0.54009 0.499 0.00259 0.0
C631 C 0.53852 0.47243 0.98708 0.0
C632 C 0.51788 0.51493 0.99975 0.0
C633 C 0.51437 0.4621 0.96831 0.0
C634 C 0.49222 0.47779 0.96545 0.0
C635 C 0.47152 0.52016 0.97812 0.0
C636 C 0.47324 0.5468 0.9925 0.0
C637 C 0.49371 0.50422 0.98121 0.0
C638 C 0.49734 0.55719 0.01117 0.0
C639 C 0.51941 0.54142 0.01504 0.0
H640 H 0.49206 0.9667 0.1669 0.0
H641 H 0.46118 0.99326 0.34148 0.0
H642 H 0.48936 0.03121 0.33804 0.0
H643 H 0.52388 0.05667 0.28736 0.0
H644 H 0.55589 0.02972 0.11475 0.0
H645 H 0.52668 0.99216 0.11621 0.0
C646 C 0.49156 0.98066 0.20439 0.0
C647 C 0.47418 0.97694 0.25403 0.0
C648 C 0.50824 1.00248 0.20279 0.0
C649 C 0.4738 0.99558 0.30187 0.0
C650 C 0.49014 0.01735 0.30031 0.0
C651 C 0.52427 0.0427 0.24985 0.0
C652 C 0.54214 0.04599 0.20124 0.0
C653 C 0.50748 0.021 0.25111 0.0
C654 C 0.54262 0.0275 0.15325 0.0
C655 C 0.52581 1.00604 0.15387 0.0
H656 H 0.12081 1.00998 0.34281 0.0
H657 H 0.16448 0.95174 0.24375 0.0
H658 H 0.16227 0.97853 0.14953 0.0
H659 H 0.14954 0.01962 0.09788 0.0
H660 H 0.1047 0.07672 0.19846 0.0
H661 H 0.10585 0.04915 0.29037 0.0
C662 C 0.12985 1.00309 0.30052 0.0
C663 C 0.14314 0.97915 0.30009 0.0
C664 C 0.1284 0.01845 0.24734 0.0
C665 C 0.1542 0.97013 0.24492 0.0
C666 C 0.15304 0.98552 0.1914 0.0
C667 C 0.14007 0.02605 0.14 0.0
C668 C 0.12731 0.05037 0.14168 0.0
C669 C 0.14053 1.00991 0.19244 0.0
C670 C 0.11471 0.05819 0.1961 0.0
C671 C 0.11538 0.04245 0.2486 0.0
H672 H 0.04981 0.63253 0.56591 0.0
H673 H 0.02351 0.70465 0.64571 0.0
H674 H 0.99003 0.70871 0.56597 0.0
H675 H 0.96693 0.69062 0.47654 0.0
H676 H 0.9922 0.61753 0.39861 0.0
H677 H 0.02698 0.61468 0.47493 0.0
C678 C 0.03712 0.64939 0.56454 0.0
C679 C 0.03925 0.66855 0.6103 0.0
C680 C 0.01733 0.65108 0.5199 0.0
C681 C 0.02229 0.68994 0.60991 0.0
C682 C 1.00303 0.69212 0.56484 0.0
C683 C 0.97987 0.67395 0.47667 0.0
C684 C 0.97684 0.65427 0.43225 0.0
C685 C 1.00003 0.67254 0.52033 0.0
C686 C 0.99404 0.63295 0.43249 0.0
C687 C 0.01405 0.63135 0.4759 0.0
H688 H 0.37143 0.50225 0.63104 0.0
H689 H 0.41034 0.44152 0.73296 0.0
H690 H 0.40657 0.46711 0.82787 0.0
H691 H 0.39234 0.50672 0.88168 0.0
H692 H 0.35604 0.56878 0.77903 0.0
H693 H 0.3587 0.54272 0.68431 0.0
C694 C 0.37896 0.49457 0.67413 0.0
C695 C 0.39095 0.46991 0.67513 0.0
C696 C 0.37724 0.50965 0.72818 0.0
C697 C 0.40102 0.46041 0.73101 0.0
C698 C 0.39884 0.47503 0.78526 0.0
C699 C 0.38491 0.5145 0.83858 0.0
C700 C 0.37377 0.53952 0.83731 0.0
C701 C 0.38699 0.49965 0.78436 0.0
C702 C 0.36466 0.54956 0.78106 0.0
C703 C 0.36614 0.53465 0.72703 0.0
H704 H 0.51279 0.89511 0.12932 0.0
H705 H 0.44674 0.86614 0.02737 0.0
H706 H 0.47298 0.86524 0.93255 0.0
H707 H 0.51532 0.87164 0.87963 0.0
H708 H 0.58021 0.90319 0.98172 0.0
H709 H 0.55388 0.90399 0.0758 0.0
C710 C 0.50411 0.88869 0.08625 0.0
C711 C 0.47796 0.88052 0.08522 0.0
C712 C 0.51918 0.88851 0.03221 0.0
C713 C 0.46682 0.87259 0.0291 0.0
C714 C 0.48186 0.87193 0.97508 0.0
C715 C 0.52365 0.87856 0.92264 0.0
C716 C 0.54973 0.88706 0.9241 0.0
C717 C 0.50816 0.8796 0.97625 0.0
C718 C 0.5602 0.8965 0.97963 0.0
C719 C 0.54517 0.89696 0.03336 0.0
H720 H 0.90745 1.00949 0.6504 0.0
H721 H 0.85001 0.06596 0.7058 0.0
H722 H 0.84173 0.04133 0.80106 0.0
H723 H 0.85246 1.00464 0.87034 0.0
H724 H 0.90737 0.94644 0.8104 0.0
H725 H 0.91494 0.97067 0.71458 0.0
C726 C 0.89308 0.01631 0.6834 0.0
C727 C 0.8796 0.03962 0.67194 0.0
C728 C 0.888 1.00173 0.73691 0.0
C729 C 0.86063 0.04809 0.71404 0.0
C730 C 0.85597 0.03405 0.7684 0.0
C731 C 0.86591 0.99721 0.83594 0.0
C732 C 0.87952 0.97395 0.84731 0.0
C733 C 0.86976 1.011 0.78059 0.0
C734 C 0.89664 0.96427 0.80236 0.0
C735 C 0.90107 0.97818 0.74783 0.0
H736 H 0.02811 0.3569 0.87969 0.0
H737 H 0.95545 0.38472 0.95488 0.0
H738 H 0.97487 0.38633 0.05821 0.0
H739 H 0.01226 0.37865 0.12701 0.0
H740 H 0.08525 0.35252 0.05013 0.0
H741 H 0.06586 0.35134 0.94706 0.0
C742 C 0.01649 0.36331 0.91869 0.0
C743 C 0.99033 0.37043 0.90997 0.0
C744 C 0.02781 0.36438 0.97741 0.0
C745 C 0.97564 0.37914 0.96061 0.0
C746 C 0.9867 0.37996 0.01959 0.0
C747 C 0.02386 0.37263 0.08764 0.0
C748 C 0.05003 0.3654 0.09596 0.0
C749 C 0.0127 0.3724 0.02854 0.0
C750 C 0.06504 0.35809 0.04467 0.0
C751 C 0.05397 0.3574 0.98587 0.0
H752 H 0.63139 0.50444 0.38644 0.0
H753 H 0.66552 0.56697 0.28052 0.0
H754 H 0.66187 0.54054 0.18618 0.0
H755 H 0.64878 0.49949 0.1346 0.0
H756 H 0.61238 0.4385 0.24174 0.0
H757 H 0.61722 0.46458 0.33535 0.0
C758 C 0.6382 0.51231 0.34279 0.0
C759 C 0.649 0.53751 0.34043 0.0
C760 C 0.63561 0.49726 0.2892 0.0
C761 C 0.65721 0.5476 0.2834 0.0
C762 C 0.65515 0.53247 0.22964 0.0
C763 C 0.64205 0.49188 0.17856 0.0
C764 C 0.63041 0.46698 0.18137 0.0
C765 C 0.64441 0.50724 0.23208 0.0
C766 C 0.6214 0.45755 0.23837 0.0
C767 C 0.62418 0.47244 0.29188 0.0
H768 H 0.51726 0.14517 0.36168 0.0
H769 H 0.57761 0.10494 0.462 0.0
H770 H 0.55152 0.10721 0.55641 0.0
H771 H 0.51238 0.12178 0.61082 0.0
H772 H 0.45076 0.15998 0.51082 0.0
H773 H 0.47646 0.15716 0.41521 0.0
C774 C 0.52469 0.13692 0.40428 0.0
C775 C 0.54947 0.12516 0.40517 0.0
C776 C 0.50937 0.13791 0.45808 0.0
C777 C 0.55866 0.11413 0.46025 0.0
C778 C 0.54377 0.11546 0.51419 0.0
C779 C 0.50455 0.12948 0.56803 0.0
C780 C 0.4799 0.14139 0.56773 0.0
C781 C 0.51924 0.12748 0.51367 0.0
C782 C 0.46972 0.15078 0.51196 0.0
C783 C 0.48445 0.14925 0.45754 0.0
H784 H 0.65258 0.51537 0.88994 0.0
H785 H 0.63035 0.44834 0.78189 0.0
H786 H 0.63259 0.47461 0.68735 0.0
H787 H 0.64167 0.51658 0.63574 0.0
H788 H 0.66626 0.5826 0.74463 0.0
H789 H 0.66217 0.55673 0.83887 0.0
C790 C 0.64809 0.50648 0.84576 0.0
C791 C 0.64117 0.47997 0.84289 0.0
C792 C 0.64986 0.52154 0.7919 0.0
C793 C 0.63573 0.4687 0.78524 0.0
C794 C 0.63698 0.48373 0.73128 0.0
C795 C 0.64595 0.52534 0.68018 0.0
C796 C 0.65415 0.55153 0.68328 0.0
C797 C 0.6441 0.51016 0.73409 0.0
C798 C 0.65996 0.5625 0.74103 0.0
C799 C 0.65762 0.54773 0.7949 0.0
H800 H 0.50782 0.13166 0.1149 0.0
H801 H 0.57289 0.16366 0.01384 0.0
H802 H 0.54713 0.16236 0.9182 0.0
H803 H 0.50591 0.1518 0.86411 0.0
H804 H 0.44229 0.11771 0.96687 0.0
H805 H 0.46777 0.1203 0.0617 0.0
C806 C 0.51641 0.13852 0.07205 0.0
C807 C 0.54211 0.14801 0.07136 0.0
C808 C 0.50172 0.13734 0.01782 0.0
C809 C 0.5531 0.15634 0.01536 0.0
C810 C 0.53836 0.15563 0.96088 0.0
C811 C 0.49762 0.14511 0.90742 0.0
C812 C 0.47221 0.13472 0.90872 0.0
C813 C 0.51262 0.14618 0.96165 0.0
C814 C 0.4618 0.12574 0.96477 0.0
C815 C 0.47634 0.12724 0.01895 0.0
H816 H 0.85532 0.01461 0.37599 0.0
H817 H 0.86922 0.09 0.29375 0.0
H818 H 0.87447 0.06968 0.19263 0.0
H819 H 0.87769 0.03058 0.12904 0.0
H820 H 0.86354 0.95494 0.20944 0.0
H821 H 0.85574 0.97535 0.31021 0.0
C822 C 0.8592 0.02662 0.3358 0.0
C823 C 0.86201 0.05379 0.34242 0.0
C824 C 0.86239 0.01477 0.27778 0.0
C825 C 0.86698 0.06908 0.28994 0.0
C826 C 0.8701 0.05746 0.23215 0.0
C827 C 0.8729 0.01848 0.16855 0.0
C828 C 0.87155 0.99124 0.16203 0.0
C829 C 0.86832 0.03032 0.22582 0.0
C830 C 0.86483 0.97594 0.21341 0.0
C831 C 0.86039 0.9876 0.27094 0.0
H832 H 0.01452 0.36603 0.3906 0.0
H833 H 0.07669 0.40119 0.49587 0.0
H834 H 0.05002 0.39938 0.58904 0.0
H835 H 1.00954 0.38825 0.64029 0.0
H836 H 0.94543 0.35574 0.5374 0.0
H837 H 0.97227 0.35628 0.44286 0.0
C838 C 0.02219 0.37311 0.43414 0.0
C839 C 0.04762 0.38353 0.43666 0.0
C840 C 1.00642 0.37262 0.48746 0.0
C841 C 0.05722 0.3931 0.49288 0.0
C842 C 0.042 0.39206 0.54611 0.0
C843 C 1.00139 0.38109 0.59726 0.0
C844 C 0.9757 0.37158 0.59578 0.0
C845 C 0.01665 0.38192 0.54383 0.0
C846 C 0.96521 0.36305 0.53951 0.0
C847 C 0.98058 0.36331 0.48572 0.0
H848 H 0.37018 0.52021 0.13088 0.0
H849 H 0.4065 0.58328 0.23063 0.0
H850 H 0.40495 0.55765 0.32584 0.0
H851 H 0.39355 0.51729 0.3805 0.0
H852 H 0.36005 0.45296 0.27995 0.0
H853 H 0.36029 0.47904 0.18504 0.0
C854 C 0.3776 0.52838 0.1736 0.0
C855 C 0.38822 0.55371 0.17391 0.0
C856 C 0.37724 0.51327 0.2278 0.0
C857 C 0.39821 0.56387 0.22926 0.0
C858 C 0.39731 0.54923 0.28367 0.0
C859 C 0.38623 0.509 0.33781 0.0
C860 C 0.37659 0.48331 0.33722 0.0
C861 C 0.38692 0.52391 0.28344 0.0
C862 C 0.36756 0.47268 0.28148 0.0
C863 C 0.36764 0.48761 0.22732 0.0
H864 H 0.52793 0.87647 0.36921 0.0
H865 H 0.45135 0.86574 0.44737 0.0
H866 H 0.47081 0.85857 0.54959 0.0
H867 H 0.50971 0.85789 0.61705 0.0
H868 H 0.58598 0.8681 0.5362 0.0
H869 H 0.56643 0.8728 0.43422 0.0
C870 C 0.51542 0.87254 0.40855 0.0
C871 C 0.48821 0.87201 0.40102 0.0
C872 C 0.52671 0.86836 0.46651 0.0
C873 C 0.47234 0.86635 0.45215 0.0
C874 C 0.48347 0.86233 0.51049 0.0
C875 C 0.52205 0.86091 0.577 0.0
C876 C 0.54928 0.86282 0.58427 0.0
C877 C 0.51065 0.86364 0.51831 0.0
C878 C 0.56501 0.86658 0.53194 0.0
C879 C 0.55384 0.86936 0.47362 0.0
H880 H 0.19085 0.97681 0.67415 0.0
H881 H 0.11371 0.99261 0.60473 0.0
H882 H 0.10807 0.02695 0.68133 0.0
H883 H 0.12427 0.05126 0.77154 0.0
H884 H 0.20059 0.03454 0.84311 0.0
H885 H 0.20773 1.00234 0.76139 0.0
C886 C 0.17276 0.98765 0.67614 0.0
C887 C 0.15267 0.98199 0.63433 0.0
C888 C 0.16972 1.00759 0.7199 0.0
C889 C 0.12947 0.9965 0.63671 0.0
C890 C 0.12624 0.01625 0.68026 0.0
C891 C 0.14271 0.04108 0.76769 0.0
C892 C 0.16217 0.04545 0.81168 0.0
C893 C 0.14621 0.02195 0.72213 0.0
C894 C 0.18567 0.03166 0.80839 0.0
C895 C 0.18959 0.01308 0.76232 0.0
H896 H 0.01368 0.63048 0.13948 0.0
H897 H 0.95223 0.66954 0.04069 0.0
H898 H 0.97921 0.66978 0.9467 0.0
H899 H 0.02077 0.6595 0.89413 0.0
H900 H 0.08074 0.61814 0.99316 0.0
H901 H 0.05377 0.61829 0.08634 0.0
C902 C 1.00617 0.63913 0.09738 0.0
C903 C 0.98118 0.65031 0.09695 0.0
C904 C 0.02156 0.63884 0.04401 0.0
C905 C 0.97144 0.66088 0.04193 0.0
C906 C 0.9869 0.66109 0.98847 0.0
C907 C 0.02796 0.65066 0.93629 0.0
C908 C 0.05285 0.63911 0.9372 0.0
C909 C 0.01209 0.65031 0.98921 0.0
C910 C 0.06172 0.62722 0.99153 0.0
C911 C 0.04632 0.62731 0.0447 0.0
H912 H 0.06595 0.25474 0.15972 0.0
H913 H 0.14225 0.27817 0.22031 0.0
H914 H 0.16164 0.24079 0.16634 0.0
H915 H 0.15637 0.20057 0.10382 0.0
H916 H 0.07991 0.17926 0.03868 0.0
H917 H 0.06101 0.21663 0.0921 0.0
C918 C 0.0868 0.25154 0.16112 0.0
C919 C 0.10268 0.26884 0.1945 0.0
C920 C 0.09771 0.23043 0.12902 0.0
C921 C 0.12974 0.26497 0.19495 0.0
C922 C 0.14075 0.24361 0.16426 0.0
C923 C 0.13561 0.20425 0.10125 0.0
C924 C 0.11952 0.18718 0.06747 0.0
C925 C 0.12489 0.22609 0.13144 0.0
C926 C 0.09269 0.19225 0.06397 0.0
C927 C 0.08185 0.21352 0.09477 0.0
H928 H 0.84213 0.58483 0.35689 0.0
H929 H 0.8157 0.66288 0.31957 0.0
H930 H 0.77258 0.65192 0.36128 0.0
H931 H 0.7432 0.62056 0.41483 0.0
H932 H 0.77081 0.54265 0.45051 0.0
H933 H 0.81256 0.55327 0.40399 0.0
C934 C 0.82698 0.59951 0.358 0.0
C935 C 0.83229 0.62475 0.33588 0.0
C936 C 0.80241 0.59313 0.38239 0.0
C937 C 0.81216 0.64329 0.33624 0.0
C938 C 0.78754 0.63706 0.36043 0.0
C939 C 0.75826 0.60586 0.41176 0.0
C940 C 0.75386 0.58095 0.43735 0.0
C941 C 0.78252 0.6121 0.38451 0.0
C942 C 0.77371 0.56216 0.43289 0.0
C943 C 0.79764 0.56816 0.40581 0.0
H944 H 0.36384 0.31802 0.61206 0.0
H945 H 0.43562 0.34181 0.52502 0.0
H946 H 0.45725 0.30269 0.56302 0.0
H947 H 0.45623 0.26222 0.62315 0.0
H948 H 0.38439 0.23626 0.70531 0.0
H949 H 0.36215 0.27541 0.66693 0.0
C950 C 0.38416 0.31446 0.60133 0.0
C951 C 0.39815 0.33272 0.56582 0.0
C952 C 0.39642 0.29156 0.6225 0.0
C953 C 0.42443 0.3279 0.55182 0.0
C954 C 0.43683 0.30561 0.57374 0.0
C955 C 0.43571 0.26522 0.63255 0.0
C956 C 0.42197 0.24666 0.66745 0.0
C957 C 0.4231 0.28741 0.60942 0.0
C958 C 0.39527 0.25037 0.67844 0.0
C959 C 0.38264 0.27276 0.65671 0.0
H960 H 0.7023 0.90878 0.78699 0.0
H961 H 0.68864 0.84632 0.91721 0.0
H962 H 0.72905 0.85683 0.96978 0.0
H963 H 0.7671 0.88561 0.98357 0.0
H964 H 0.78327 0.94511 0.84913 0.0
H965 H 0.74353 0.93339 0.79213 0.0
C966 C 0.70829 0.89698 0.82593 0.0
C967 C 0.69168 0.87718 0.84869 0.0
C968 C 0.73216 0.90257 0.85521 0.0
C969 C 0.70017 0.86236 0.89966 0.0
C970 C 0.72355 0.86815 0.92961 0.0
C971 C 0.76202 0.8956 0.94113 0.0
C972 C 0.7778 0.91615 0.92029 0.0
C973 C 0.73941 0.88854 0.90862 0.0
C974 C 0.77134 0.92909 0.86539 0.0
C975 C 0.74858 0.9225 0.83327 0.0
H976 H 0.93001 0.28098 0.6345 0.0
H977 H 0.8878 0.26526 0.80322 0.0
H978 H 0.8739 0.22346 0.76327 0.0
H979 H 0.87442 0.19039 0.68217 0.0
H980 H 0.91449 0.20574 0.51103 0.0
H981 H 0.92796 0.24865 0.54944 0.0
C982 C 0.91756 0.26856 0.66225 0.0
C983 C 0.91058 0.27628 0.72256 0.0
C984 C 0.90913 0.24436 0.6385 0.0
C985 C 0.89431 0.25976 0.75757 0.0
C986 C 0.88608 0.23579 0.73455 0.0
C987 C 0.88611 0.20315 0.65331 0.0
C988 C 0.89364 0.19484 0.59415 0.0
C989 C 0.89363 0.22772 0.67552 0.0
C990 C 0.90839 0.21175 0.55676 0.0
C991 C 0.91618 0.23623 0.57882 0.0
H992 H 0.81387 0.37606 0.84101 0.0
H993 H 0.84679 0.45346 0.84598 0.0
H994 H 0.80625 0.47059 0.88769 0.0
H995 H 0.76217 0.46363 0.92641 0.0
H996 H 0.72838 0.38675 0.92302 0.0
H997 H 0.76821 0.36948 0.87583 0.0
C998 C 0.81201 0.3967 0.85058 0.0
C999 C 0.83351 0.41337 0.84119 0.0
C1000 C 0.7885 0.40653 0.8749 0.0
C1001 C 0.83078 0.44009 0.85395 0.0
C1002 C 0.80755 0.44996 0.87758 0.0
C1003 C 0.76353 0.44306 0.91576 0.0
C1004 C 0.74243 0.42646 0.92901 0.0
C1005 C 0.78646 0.43332 0.88915 0.0
C1006 C 0.7443 0.39996 0.9132 0.0
C1007 C 0.76713 0.39007 0.8865 0.0
H1008 H 0.60895 0.23579 0.10927 0.0
H1009 H 0.58788 0.27056 0.28363 0.0
H1010 H 0.6036 0.31275 0.24804 0.0
H1011 H 0.62099 0.34041 0.16597 0.0
H1012 H 0.64285 0.30637 0.99126 0.0
H1013 H 0.62914 0.26345 0.02829 0.0
C1014 C 0.60815 0.25253 0.1397 0.0
C1015 C 0.59696 0.24996 0.19892 0.0
C1016 C 0.61719 0.27698 0.11872 0.0
C1017 C 0.59591 0.27198 0.23751 0.0
C1018 C 0.60502 0.29616 0.21728 0.0
C1019 C 0.62331 0.32358 0.13622 0.0
C1020 C 0.633 0.32681 0.07578 0.0
C1021 C 0.61536 0.29897 0.15773 0.0
C1022 C 0.6352 0.30467 0.03771 0.0
C1023 C 0.62745 0.28004 0.05897 0.0
H1024 H 0.67361 0.11549 0.40583 0.0
H1025 H 0.71261 0.14922 0.2483 0.0
H1026 H 0.75491 0.13827 0.29338 0.0
H1027 H 0.78095 0.12027 0.37991 0.0
H1028 H 0.74107 0.08729 0.53709 0.0
H1029 H 0.69914 0.09715 0.49028 0.0
C1030 C 0.69133 0.12075 0.38151 0.0
C1031 C 0.68981 0.1334 0.32391 0.0
C1032 C 0.71554 0.11457 0.40784 0.0
C1033 C 0.71309 0.13938 0.29252 0.0
C1034 C 0.73733 0.13322 0.31844 0.0
C1035 C 0.76308 0.11503 0.40353 0.0
C1036 C 0.76424 0.10322 0.46228 0.0
C1037 C 0.73882 0.12089 0.37628 0.0
C1038 C 0.74082 0.09676 0.49244 0.0
C1039 C 0.71678 0.1023 0.46555 0.0
H1040 H 0.60747 0.77745 0.6184 0.0
H1041 H 0.60691 0.74609 0.80306 0.0
H1042 H 0.62467 0.70502 0.76517 0.0
H1043 H 0.63733 0.677 0.67929 0.0
H1044 H 0.63546 0.70661 0.4929 0.0
H1045 H 0.62258 0.74953 0.53166 0.0
C1046 C 0.61165 0.76171 0.65025 0.0
C1047 C 0.6057 0.7647 0.71342 0.0
C1048 C 0.62143 0.73785 0.6278 0.0
C1049 C 0.61098 0.7441 0.75421 0.0
C1050 C 0.6212 0.72066 0.73258 0.0
C1051 C 0.63412 0.69282 0.64698 0.0
C1052 C 0.63705 0.68839 0.58314 0.0
C1053 C 0.62595 0.71712 0.66938 0.0
C1054 C 0.63348 0.70939 0.54226 0.0
C1055 C 0.62586 0.73391 0.56439 0.0
H1056 H 0.31142 0.13774 0.76823 0.0
H1057 H 0.35941 0.12401 0.92848 0.0
H1058 H 0.32142 0.10952 0.98663 0.0
H1059 H 0.27466 0.09952 0.99176 0.0
H1060 H 0.22666 0.11222 0.83128 0.0
H1061 H 0.26433 0.12832 0.77401 0.0
C1062 C 0.31358 0.13152 0.8158 0.0
C1063 C 0.33833 0.13213 0.84379 0.0
C1064 C 0.29157 0.12299 0.8492 0.0
C1065 C 0.34061 0.12422 0.90584 0.0
C1066 C 0.31888 0.11571 0.93916 0.0
C1067 C 0.27245 0.10575 0.94423 0.0
C1068 C 0.24776 0.10465 0.91617 0.0
C1069 C 0.29429 0.11486 0.91127 0.0
C1070 C 0.24526 0.11316 0.85462 0.0
C1071 C 0.26689 0.12221 0.82153 0.0
H1072 H 0.89988 0.84203 0.1902 0.0
H1073 H 0.88168 0.80846 0.01285 0.0
H1074 H 0.89427 0.76536 0.0506 0.0
H1075 H 0.91307 0.73756 0.13267 0.0
H1076 H 0.93274 0.7719 0.30808 0.0
H1077 H 0.91671 0.81417 0.27299 0.0
C1078 C 0.89824 0.82521 0.16013 0.0
C1079 C 0.88985 0.82849 0.0988 0.0
C1080 C 0.9059 0.80058 0.18184 0.0
C1081 C 0.88829 0.80652 0.06011 0.0
C1082 C 0.89543 0.78185 0.08172 0.0
C1083 C 0.9134 0.75424 0.16335 0.0
C1084 C 0.92409 0.75167 0.22285 0.0
C1085 C 0.90463 0.77868 0.14228 0.0
C1086 C 0.92479 0.77351 0.26194 0.0
C1087 C 0.91562 0.79765 0.24191 0.0
H1088 H 0.25116 0.45541 0.44196 0.0
H1089 H 0.29309 0.38278 0.44585 0.0
H1090 H 0.25479 0.3599 0.40589 0.0
H1091 H 0.20902 0.36069 0.3687 0.0
H1092 H 0.16793 0.4337 0.3638 0.0
H1093 H 0.20598 0.45626 0.40603 0.0
C1094 C 0.25186 0.43454 0.43474 0.0
C1095 C 0.275 0.42087 0.44706 0.0
C1096 C 0.22981 0.42157 0.41163 0.0
C1097 C 0.27565 0.39385 0.43618 0.0
C1098 C 0.25369 0.38073 0.41363 0.0
C1099 C 0.20852 0.38149 0.37737 0.0
C1100 C 0.18585 0.39563 0.36371 0.0
C1101 C 0.23065 0.39438 0.40101 0.0
C1102 C 0.18527 0.42256 0.37438 0.0
C1103 C 0.20699 0.43543 0.39836 0.0
H1104 H 0.44944 0.76206 0.11694 0.0
H1105 H 0.37945 0.78541 0.21104 0.0
H1106 H 0.35674 0.74653 0.1721 0.0
H1107 H 0.35773 0.70458 0.11423 0.0
H1108 H 0.42764 0.68338 0.01592 0.0
H1109 H 0.44945 0.72257 0.0532 0.0
C1110 C 0.42919 0.7586 0.12864 0.0
C1111 C 0.41615 0.77631 0.16718 0.0
C1112 C 0.4163 0.73654 0.10533 0.0
C1113 C 0.38979 0.77199 0.1813 0.0
C1114 C 0.3769 0.74972 0.15928 0.0
C1115 C 0.37766 0.70873 0.10079 0.0
C1116 C 0.39105 0.69112 0.06232 0.0
C1117 C 0.39006 0.73166 0.12174 0.0
C1118 C 0.41684 0.69675 0.04494 0.0
C1119 C 0.42939 0.71909 0.06649 0.0
H1120 H 0.23547 0.90928 0.34447 0.0
H1121 H 0.26819 0.9356 0.51659 0.0
H1122 H 0.31064 0.91785 0.48773 0.0
H1123 H 0.33931 0.89806 0.41014 0.0
H1124 H 0.30755 0.8738 0.23509 0.0
H1125 H 0.26402 0.88736 0.26817 0.0
C1126 C 0.25184 0.91066 0.37588 0.0
C1127 C 0.24879 0.92372 0.43254 0.0
C1128 C 0.27643 0.90098 0.35815 0.0
C1129 C 0.2702 0.92577 0.4726 0.0
C1130 C 0.29444 0.91563 0.4561 0.0
C1131 C 0.32277 0.89528 0.3797 0.0
C1132 C 0.32668 0.8849 0.32029 0.0
C1133 C 0.29793 0.90366 0.39851 0.0
C1134 C 0.30509 0.88188 0.28094 0.0
C1135 C 0.28019 0.88962 0.29985 0.0
H1136 H 0.08876 0.84672 0.60006 0.0
H1137 H 0.16271 0.81786 0.53504 0.0
H1138 H 0.15456 0.77618 0.58696 0.0
H1139 H 0.12736 0.74888 0.65728 0.0
H1140 H 0.05466 0.77978 0.72475 0.0
H1141 H 0.06169 0.81982 0.66683 0.0
C1142 C 0.1033 0.83146 0.59755 0.0
C1143 C 0.12653 0.83571 0.56434 0.0
C1144 C 0.09879 0.8079 0.6287 0.0
C1145 C 0.14462 0.81522 0.56006 0.0
C1146 C 0.14005 0.79142 0.5902 0.0
C1147 C 0.11305 0.76435 0.6588 0.0
C1148 C 0.09067 0.76145 0.69605 0.0
C1149 C 0.11736 0.78766 0.62555 0.0
C1150 C 0.07229 0.78169 0.69764 0.0
C1151 C 0.0762 0.80456 0.66416 0.0
H1152 H 0.28308 0.61113 0.86621 0.0
H1153 H 0.24634 0.58508 0.03461 0.0
H1154 H 0.20476 0.60234 0.99991 0.0
H1155 H 0.17828 0.62316 0.92071 0.0
H1156 H 0.21419 0.65034 0.75227 0.0
H1157 H 0.25642 0.63418 0.78773 0.0
C1158 C 0.26603 0.60953 0.89552 0.0
C1159 C 0.26788 0.59655 0.95278 0.0
C1160 C 0.24192 0.61952 0.8751 0.0
C1161 C 0.24547 0.59448 0.98993 0.0
C1162 C 0.22164 0.60448 0.97024 0.0
C1163 C 0.19536 0.62603 0.892 0.0
C1164 C 0.19288 0.63809 0.83385 0.0
C1165 C 0.21956 0.61679 0.91272 0.0
C1166 C 0.21531 0.64092 0.79693 0.0
C1167 C 0.23956 0.63179 0.81736 0.0
loop_
_geom_bond_atom_site_label_1
_geom_bond_atom_site_label_2
_geom_bond_distance
_geom_bond_site_symmetry_2
_ccdc_geom_bond_type
Co0 N4 2.148 . S
Co0 N10 2.128 . S
Co0 N20 2.194 1_556 S
Co0 O25 2.351 . S
Co0 O26 2.155 . S
Co0 O27 2.096 1_556 S
C1 N4 1.301 . S
C1 N5 1.328 . S
C1 H6 0.930 . S
C2 C3 1.333 . S
C2 N4 1.317 1_554 S
C2 H7 0.930 . S
C3 C2 1.333 . S
C3 N5 1.350 1_554 S
C3 H29 0.931 . S
N4 Co0 2.148 . S
N4 C1 1.301 . S
N4 C2 1.317 1_556 S
N5 C1 1.328 . S
N5 C3 1.350 1_556 S
H6 C1 0.930 . S
H7 C2 0.930 . S
C8 O9 1.224 . S
C8 O27 1.247 . S
O9 C8 1.224 . S
N10 Co0 2.128 . S
N10 C11 1.355 . S
N10 C13 1.311 1_556 S
C11 N10 1.355 . S
C11 C12 1.363 . S
C11 H23 0.929 . S
C12 C11 1.363 . S
C12 N14 1.375 1_556 S
C12 H30 0.931 . S
C13 N10 1.311 1_554 S
C13 N14 1.347 . S
C13 H24 0.929 . S
N14 C12 1.375 1_554 S
N14 C13 1.347 . S
C15 C18 1.365 . S
C15 N20 1.328 1_556 S
C15 H21 0.929 . S
C16 C17 1.362 . S
C16 C19 1.378 . S
C16 H31 0.929 . S
C17 C16 1.362 . S
C17 C18 1.366 1_554 S
C18 C15 1.365 . S
C18 C17 1.366 1_556 S
C18 H32 0.930 . S
C19 C16 1.378 . S
C19 N20 1.315 . S
C19 H22 0.930 . S
N20 Co0 2.194 1_554 S
N20 C15 1.328 1_554 S
N20 C19 1.315 . S
H21 C15 0.929 . S
H22 C19 0.930 . S
H23 C11 0.929 . S
H24 C13 0.929 . S
O25 Co0 2.351 . S
O25 C28 1.244 . S
O26 Co0 2.155 . S
O26 C28 1.240 . S
O27 Co0 2.096 1_554 S
O27 C8 1.247 . S
C28 O25 1.244 . S
C28 O26 1.240 . S
H29 C3 0.931 . S
H30 C12 0.931 . S
H31 C16 0.929 . S
H32 C18 0.930 . S
Co33 N37 2.148 . S
Co33 N43 2.128 . S
Co33 N53 2.194 . S
Co33 O58 2.351 . S
Co33 O59 2.155 . S
Co33 O60 2.096 . S
C34 N37 1.301 . S
C34 N38 1.328 . S
C34 H39 0.930 . S
C35 C36 1.333 . S
C35 N37 1.317 . S
C35 H40 0.930 . S
C36 C35 1.333 . S
C36 N38 1.350 . S
C36 H62 0.931 . S
N37 Co33 2.148 . S
N37 C34 1.301 . S
N37 C35 1.317 . S
N38 C34 1.328 . S
N38 C36 1.350 . S
H39 C34 0.930 . S
H40 C35 0.930 . S
C41 O42 1.224 . S
C41 O60 1.247 . S
O42 C41 1.224 . S
N43 Co33 2.128 . S
N43 C44 1.355 . S
N43 C46 1.311 . S
C44 N43 1.355 . S
C44 C45 1.363 . S
C44 H56 0.929 . S
C45 C44 1.363 . S
C45 N47 1.375 . S
C45 H63 0.931 . S
C46 N43 1.311 . S
C46 N47 1.347 . S
C46 H57 0.929 . S
N47 C45 1.375 . S
N47 C46 1.347 . S
C48 C51 1.365 . S
C48 N53 1.328 . S
C48 H54 0.929 . S
C49 C50 1.362 . S
C49 C52 1.378 . S
C49 H64 0.929 . S
C50 C49 1.362 . S
C50 C51 1.366 . S
C51 C48 1.365 . S
C51 C50 1.366 . S
C51 H65 0.930 . S
C52 C49 1.378 . S
C52 N53 1.315 . S
C52 H55 0.930 . S
N53 Co33 2.194 . S
N53 C48 1.328 . S
N53 C52 1.315 . S
H54 C48 0.929 . S
H55 C52 0.930 . S
H56 C44 0.929 . S
H57 C46 0.929 . S
O58 Co33 2.351 . S
O58 C61 1.244 . S
O59 Co33 2.155 . S
O59 C61 1.240 . S
O60 Co33 2.096 . S
O60 C41 1.247 . S
C61 O58 1.244 . S
C61 O59 1.240 . S
H62 C36 0.931 . S
H63 C45 0.931 . S
H64 C49 0.929 . S
H65 C51 0.930 . S
Co66 N70 2.148 . S
Co66 N76 2.128 . S
Co66 N86 2.194 . S
Co66 O91 2.351 . S
Co66 O92 2.155 . S
Co66 O93 2.096 . S
C67 N70 1.301 . S
C67 N71 1.328 . S
C67 H72 0.930 . S
C68 C69 1.333 . S
C68 N70 1.317 . S
C68 H73 0.930 . S
C69 C68 1.333 . S
C69 N71 1.350 . S
C69 H95 0.931 . S
N70 Co66 2.148 . S
N70 C67 1.301 . S
N70 C68 1.317 . S
N71 C67 1.328 . S
N71 C69 1.350 . S
H72 C67 0.930 . S
H73 C68 0.930 . S
C74 O75 1.224 . S
C74 O93 1.247 . S
O75 C74 1.224 . S
N76 Co66 2.128 . S
N76 C77 1.355 . S
N76 C79 1.311 . S
C77 N76 1.355 . S
C77 C78 1.363 . S
C77 H89 0.929 . S
C78 C77 1.363 . S
C78 N80 1.375 . S
C78 H96 0.931 . S
C79 N76 1.311 . S
C79 N80 1.347 . S
C79 H90 0.929 . S
N80 C78 1.375 . S
N80 C79 1.347 . S
C81 C84 1.365 . S
C81 N86 1.328 . S
C81 H87 0.929 . S
C82 C83 1.362 . S
C82 C85 1.378 . S
C82 H97 0.929 . S
C83 C82 1.362 . S
C83 C84 1.366 . S
C84 C81 1.365 . S
C84 C83 1.366 . S
C84 H98 0.930 . S
C85 C82 1.378 . S
C85 N86 1.315 . S
C85 H88 0.930 . S
N86 Co66 2.194 . S
N86 C81 1.328 . S
N86 C85 1.315 . S
H87 C81 0.929 . S
H88 C85 0.930 . S
H89 C77 0.929 . S
H90 C79 0.929 . S
O91 Co66 2.351 . S
O91 C94 1.244 . S
O92 Co66 2.155 . S
O92 C94 1.240 . S
O93 Co66 2.096 . S
O93 C74 1.247 . S
C94 O91 1.244 . S
C94 O92 1.240 . S
H95 C69 0.931 . S
H96 C78 0.931 . S
H97 C82 0.929 . S
H98 C84 0.930 . S
Co99 N103 2.148 . S
Co99 N109 2.128 . S
Co99 N119 2.194 . S
Co99 O124 2.351 . S
Co99 O125 2.155 . S
Co99 O126 2.096 . S
C100 N103 1.301 . S
C100 N104 1.328 . S
C100 H105 0.930 . S
C101 C102 1.333 . S
C101 N103 1.317 . S
C101 H106 0.930 . S
C102 C101 1.333 . S
C102 N104 1.350 . S
C102 H128 0.931 . S
N103 Co99 2.148 . S
N103 C100 1.301 . S
N103 C101 1.317 . S
N104 C100 1.328 . S
N104 C102 1.350 . S
H105 C100 0.930 . S
H106 C101 0.930 . S
C107 O108 1.224 . S
C107 O126 1.247 . S
O108 C107 1.224 . S
N109 Co99 2.128 . S
N109 C110 1.355 . S
N109 C112 1.311 . S
C110 N109 1.355 . S
C110 C111 1.363 . S
C110 H122 0.929 . S
C111 C110 1.363 . S
C111 N113 1.375 . S
C111 H129 0.931 . S
C112 N109 1.311 . S
C112 N113 1.347 . S
C112 H123 0.929 . S
N113 C111 1.375 . S
N113 C112 1.347 . S
C114 C117 1.365 . S
C114 N119 1.328 . S
C114 H120 0.929 . S
C115 C116 1.362 . S
C115 C118 1.378 . S
C115 H130 0.929 . S
C116 C115 1.362 . S
C116 C117 1.366 . S
C117 C114 1.365 . S
C117 C116 1.366 . S
C117 H131 0.930 . S
C118 C115 1.378 . S
C118 N119 1.315 . S
C118 H121 0.930 . S
N119 Co99 2.194 . S
N119 C114 1.328 . S
N119 C118 1.315 . S
H120 C114 0.929 . S
H121 C118 0.930 . S
H122 C110 0.929 . S
H123 C112 0.929 . S
O124 Co99 2.351 . S
O124 C127 1.244 . S
O125 Co99 2.155 . S
O125 C127 1.240 . S
O126 Co99 2.096 . S
O126 C107 1.247 . S
C127 O124 1.244 . S
C127 O125 1.240 . S
H128 C102 0.931 . S
H129 C111 0.931 . S
H130 C115 0.929 . S
H131 C117 0.930 . S
Co132 N136 2.148 . S
Co132 N142 2.128 . S
Co132 N152 2.194 . S
Co132 O157 2.351 . S
Co132 O158 2.155 . S
Co132 O159 2.096 . S
C133 N136 1.301 . S
C133 N137 1.328 . S
C133 H138 0.930 . S
C134 C135 1.333 . S
C134 N136 1.317 . S
C134 H139 0.930 . S
C135 C134 1.333 . S
C135 N137 1.350 . S
C135 H161 0.931 . S
N136 Co132 2.148 . S
N136 C133 1.301 . S
N136 C134 1.317 . S
N137 C133 1.328 . S
N137 C135 1.350 . S
H138 C133 0.930 . S
H139 C134 0.930 . S
C140 O141 1.224 . S
C140 O159 1.247 . S
O141 C140 1.224 . S
N142 Co132 2.128 . S
N142 C143 1.355 . S
N142 C145 1.311 . S
C143 N142 1.355 . S
C143 C144 1.363 . S
C143 H155 0.929 . S
C144 C143 1.363 . S
C144 N146 1.375 . S
C144 H162 0.931 . S
C145 N142 1.311 . S
C145 N146 1.347 . S
C145 H156 0.929 . S
N146 C144 1.375 . S
N146 C145 1.347 . S
C147 C150 1.365 . S
C147 N152 1.328 . S
C147 H153 0.929 . S
C148 C149 1.362 . S
C148 C151 1.378 . S
C148 H163 0.929 . S
C149 C148 1.362 . S
C149 C150 1.366 . S
C150 C147 1.365 . S
C150 C149 1.366 . S
C150 H164 0.930 . S
C151 C148 1.378 . S
C151 N152 1.315 . S
C151 H154 0.930 . S
N152 Co132 2.194 . S
N152 C147 1.328 . S
N152 C151 1.315 . S
H153 C147 0.929 . S
H154 C151 0.930 . S
H155 C143 0.929 . S
H156 C145 0.929 . S
O157 Co132 2.351 . S
O157 C160 1.244 . S
O158 Co132 2.155 . S
O158 C160 1.240 . S
O159 Co132 2.096 . S
O159 C140 1.247 . S
C160 O157 1.244 . S
C160 O158 1.240 . S
H161 C135 0.931 . S
H162 C144 0.931 . S
H163 C148 0.929 . S
H164 C150 0.930 . S
Co165 N169 2.148 . S
Co165 N175 2.128 . S
Co165 N185 2.194 . S
Co165 O190 2.351 . S
Co165 O191 2.155 . S
Co165 O192 2.096 . S
C166 N169 1.301 . S
C166 N170 1.328 . S
C166 H171 0.930 . S
C167 C168 1.333 . S
C167 N169 1.317 . S
C167 H172 0.930 . S
C168 C167 1.333 . S
C168 N170 1.350 . S
C168 H194 0.931 . S
N169 Co165 2.148 . S
N169 C166 1.301 . S
N169 C167 1.317 . S
N170 C166 1.328 . S
N170 C168 1.350 . S
H171 C166 0.930 . S
H172 C167 0.930 . S
C173 O174 1.224 . S
C173 O192 1.247 . S
O174 C173 1.224 . S
N175 Co165 2.128 . S
N175 C176 1.355 . S
N175 C178 1.311 . S
C176 N175 1.355 . S
C176 C177 1.363 . S
C176 H188 0.929 . S
C177 C176 1.363 . S
C177 N179 1.375 . S
C177 H195 0.931 . S
C178 N175 1.311 . S
C178 N179 1.347 . S
C178 H189 0.929 . S
N179 C177 1.375 . S
N179 C178 1.347 . S
C180 C183 1.365 . S
C180 N185 1.328 . S
C180 H186 0.929 . S
C181 C182 1.362 . S
C181 C184 1.378 . S
C181 H196 0.929 . S
C182 C181 1.362 . S
C182 C183 1.366 . S
C183 C180 1.365 . S
C183 C182 1.366 . S
C183 H197 0.930 . S
C184 C181 1.378 . S
C184 N185 1.315 . S
C184 H187 0.930 . S
N185 Co165 2.194 . S
N185 C180 1.328 . S
N185 C184 1.315 . S
H186 C180 0.929 . S
H187 C184 0.930 . S
H188 C176 0.929 . S
H189 C178 0.929 . S
O190 Co165 2.351 . S
O190 C193 1.244 . S
O191 Co165 2.155 . S
O191 C193 1.240 . S
O192 Co165 2.096 . S
O192 C173 1.247 . S
C193 O190 1.244 . S
C193 O191 1.240 . S
H194 C168 0.931 . S
H195 C177 0.931 . S
H196 C181 0.929 . S
H197 C183 0.930 . S
Co198 N202 2.148 . S
Co198 N208 2.128 . S
Co198 N218 2.194 1_556 S
Co198 O223 2.351 . S
Co198 O224 2.155 . S
Co198 O225 2.096 1_556 S
C199 N202 1.301 . S
C199 N203 1.328 . S
C199 H204 0.930 . S
C200 C201 1.333 . S
C200 N202 1.317 1_554 S
C200 H205 0.930 . S
C201 C200 1.333 . S
C201 N203 1.350 1_554 S
C201 H227 0.931 . S
N202 Co198 2.148 . S
N202 C199 1.301 . S
N202 C200 1.317 1_556 S
N203 C199 1.328 . S
N203 C201 1.350 1_556 S
H204 C199 0.930 . S
H205 C200 0.930 . S
C206 O207 1.224 . S
C206 O225 1.247 . S
O207 C206 1.224 . S
N208 Co198 2.128 . S
N208 C209 1.355 . S
N208 C211 1.311 1_556 S
C209 N208 1.355 . S
C209 C210 1.363 . S
C209 H221 0.929 . S
C210 C209 1.363 . S
C210 N212 1.375 1_556 S
C210 H228 0.931 . S
C211 N208 1.311 1_554 S
C211 N212 1.347 . S
C211 H222 0.929 . S
N212 C210 1.375 1_554 S
N212 C211 1.347 . S
C213 C216 1.365 . S
C213 N218 1.328 1_556 S
C213 H219 0.929 . S
C214 C215 1.362 . S
C214 C217 1.378 . S
C214 H229 0.929 . S
C215 C214 1.362 . S
C215 C216 1.366 1_554 S
C216 C213 1.365 . S
C216 C215 1.366 1_556 S
C216 H230 0.930 . S
C217 C214 1.378 . S
C217 N218 1.315 . S
C217 H220 0.930 . S
N218 Co198 2.194 1_554 S
N218 C213 1.328 1_554 S
N218 C217 1.315 . S
H219 C213 0.929 . S
H220 C217 0.930 . S
H221 C209 0.929 . S
H222 C211 0.929 . S
O223 Co198 2.351 . S
O223 C226 1.244 . S
O224 Co198 2.155 . S
O224 C226 1.240 . S
O225 Co198 2.096 1_554 S
O225 C206 1.247 . S
C226 O223 1.244 . S
C226 O224 1.240 . S
H227 C201 0.931 . S
H228 C210 0.931 . S
H229 C214 0.929 . S
H230 C216 0.930 . S
Co231 N235 2.148 . S
Co231 N241 2.128 . S
Co231 N251 2.194 . S
Co231 O256 2.351 . S
Co231 O257 2.155 . S
Co231 O258 2.096 . S
C232 N235 1.301 . S
C232 N236 1.328 . S
C232 H237 0.930 . S
C233 C234 1.333 . S
C233 N235 1.317 . S
C233 H238 0.930 . S
C234 C233 1.333 . S
C234 N236 1.350 . S
C234 H260 0.931 . S
N235 Co231 2.148 . S
N235 C232 1.301 . S
N235 C233 1.317 . S
N236 C232 1.328 . S
N236 C234 1.350 . S
H237 C232 0.930 . S
H238 C233 0.930 . S
C239 O240 1.224 . S
C239 O258 1.247 . S
O240 C239 1.224 . S
N241 Co231 2.128 . S
N241 C242 1.355 . S
N241 C244 1.311 . S
C242 N241 1.355 . S
C242 C243 1.363 . S
C242 H254 0.929 . S
C243 C242 1.363 . S
C243 N245 1.375 . S
C243 H261 0.931 . S
C244 N241 1.311 . S
C244 N245 1.347 . S
C244 H255 0.929 . S
N245 C243 1.375 . S
N245 C244 1.347 . S
C246 C249 1.365 . S
C246 N251 1.328 . S
C246 H252 0.929 . S
C247 C248 1.362 . S
C247 C250 1.378 . S
C247 H262 0.929 . S
C248 C247 1.362 . S
C248 C249 1.366 . S
C249 C246 1.365 . S
C249 C248 1.366 . S
C249 H263 0.930 . S
C250 C247 1.378 . S
C250 N251 1.315 . S
C250 H253 0.930 . S
N251 Co231 2.194 . S
N251 C246 1.328 . S
N251 C250 1.315 . S
H252 C246 0.929 . S
H253 C250 0.930 . S
H254 C242 0.929 . S
H255 C244 0.929 . S
O256 Co231 2.351 . S
O256 C259 1.244 . S
O257 Co231 2.155 . S
O257 C259 1.240 . S
O258 Co231 2.096 . S
O258 C239 1.247 . S
C259 O256 1.244 . S
C259 O257 1.240 . S
H260 C234 0.931 . S
H261 C243 0.931 . S
H262 C247 0.929 . S
H263 C249 0.930 . S
Co264 N268 2.148 . S
Co264 N274 2.128 . S
Co264 N284 2.194 . S
Co264 O289 2.351 . S
Co264 O290 2.155 . S
Co264 O291 2.096 . S
C265 N268 1.301 . S
C265 N269 1.328 . S
C265 H270 0.930 . S
C266 C267 1.333 . S
C266 N268 1.317 . S
C266 H271 0.930 . S
C267 C266 1.333 . S
C267 N269 1.350 . S
C267 H293 0.931 . S
N268 Co264 2.148 . S
N268 C265 1.301 . S
N268 C266 1.317 . S
N269 C265 1.328 . S
N269 C267 1.350 . S
H270 C265 0.930 . S
H271 C266 0.930 . S
C272 O273 1.224 . S
C272 O291 1.247 . S
O273 C272 1.224 . S
N274 Co264 2.128 . S
N274 C275 1.355 . S
N274 C277 1.311 . S
C275 N274 1.355 . S
C275 C276 1.363 . S
C275 H287 0.929 . S
C276 C275 1.363 . S
C276 N278 1.375 . S
C276 H294 0.931 . S
C277 N274 1.311 . S
C277 N278 1.347 . S
C277 H288 0.929 . S
N278 C276 1.375 . S
N278 C277 1.347 . S
C279 C282 1.365 . S
C279 N284 1.328 . S
C279 H285 0.929 . S
C280 C281 1.362 . S
C280 C283 1.378 . S
C280 H295 0.929 . S
C281 C280 1.362 . S
C281 C282 1.366 . S
C282 C279 1.365 . S
C282 C281 1.366 . S
C282 H296 0.930 . S
C283 C280 1.378 . S
C283 N284 1.315 . S
C283 H286 0.930 . S
N284 Co264 2.194 . S
N284 C279 1.328 . S
N284 C283 1.315 . S
H285 C279 0.929 . S
H286 C283 0.930 . S
H287 C275 0.929 . S
H288 C277 0.929 . S
O289 Co264 2.351 . S
O289 C292 1.244 . S
O290 Co264 2.155 . S
O290 C292 1.240 . S
O291 Co264 2.096 . S
O291 C272 1.247 . S
C292 O289 1.244 . S
C292 O290 1.240 . S
H293 C267 0.931 . S
H294 C276 0.931 . S
H295 C280 0.929 . S
H296 C282 0.930 . S
Co297 N301 2.148 . S
Co297 N307 2.128 . S
Co297 N317 2.194 . S
Co297 O322 2.351 . S
Co297 O323 2.155 . S
Co297 O324 2.096 . S
C298 N301 1.301 . S
C298 N302 1.328 . S
C298 H303 0.930 . S
C299 C300 1.333 . S
C299 N301 1.317 . S
C299 H304 0.930 . S
C300 C299 1.333 . S
C300 N302 1.350 . S
C300 H326 0.931 . S
N301 Co297 2.148 . S
N301 C298 1.301 . S
N301 C299 1.317 . S
N302 C298 1.328 . S
N302 C300 1.350 . S
H303 C298 0.930 . S
H304 C299 0.930 . S
C305 O306 1.224 . S
C305 O324 1.247 . S
O306 C305 1.224 . S
N307 Co297 2.128 . S
N307 C308 1.355 . S
N307 C310 1.311 . S
C308 N307 1.355 . S
C308 C309 1.363 . S
C308 H320 0.929 . S
C309 C308 1.363 . S
C309 N311 1.375 . S
C309 H327 0.931 . S
C310 N307 1.311 . S
C310 N311 1.347 . S
C310 H321 0.929 . S
N311 C309 1.375 . S
N311 C310 1.347 . S
C312 C315 1.365 . S
C312 N317 1.328 . S
C312 H318 0.929 . S
C313 C314 1.362 . S
C313 C316 1.378 . S
C313 H328 0.929 . S
C314 C313 1.362 . S
C314 C315 1.366 . S
C315 C312 1.365 . S
C315 C314 1.366 . S
C315 H329 0.930 . S
C316 C313 1.378 . S
C316 N317 1.315 . S
C316 H319 0.930 . S
N317 Co297 2.194 . S
N317 C312 1.328 . S
N317 C316 1.315 . S
H318 C312 0.929 . S
H319 C316 0.930 . S
H320 C308 0.929 . S
H321 C310 0.929 . S
O322 Co297 2.351 . S
O322 C325 1.244 . S
O323 Co297 2.155 . S
O323 C325 1.240 . S
O324 Co297 2.096 . S
O324 C305 1.247 . S
C325 O322 1.244 . S
C325 O323 1.240 . S
H326 C300 0.931 . S
H327 C309 0.931 . S
H328 C313 0.929 . S
H329 C315 0.930 . S
Co330 N334 2.148 . S
Co330 N340 2.128 . S
Co330 N350 2.194 1_556 S
Co330 O355 2.351 . S
Co330 O356 2.155 . S
Co330 O357 2.096 1_556 S
C331 N334 1.301 . S
C331 N335 1.328 . S
C331 H336 0.930 . S
C332 C333 1.333 . S
C332 N334 1.317 1_554 S
C332 H337 0.930 . S
C333 C332 1.333 . S
C333 N335 1.350 1_554 S
C333 H359 0.931 . S
N334 Co330 2.148 . S
N334 C331 1.301 . S
N334 C332 1.317 1_556 S
N335 C331 1.328 . S
N335 C333 1.350 1_556 S
H336 C331 0.930 . S
H337 C332 0.930 . S
C338 O339 1.224 . S
C338 O357 1.247 . S
O339 C338 1.224 . S
N340 Co330 2.128 . S
N340 C341 1.355 . S
N340 C343 1.311 1_556 S
C341 N340 1.355 . S
C341 C342 1.363 . S
C341 H353 0.929 . S
C342 C341 1.363 . S
C342 N344 1.375 1_556 S
C342 H360 0.931 . S
C343 N340 1.311 1_554 S
C343 N344 1.347 . S
C343 H354 0.929 . S
N344 C342 1.375 1_554 S
N344 C343 1.347 . S
C345 C348 1.365 . S
C345 N350 1.328 1_556 S
C345 H351 0.929 . S
C346 C347 1.362 . S
C346 C349 1.378 . S
C346 H361 0.929 . S
C347 C346 1.362 . S
C347 C348 1.366 1_554 S
C348 C345 1.365 . S
C348 C347 1.366 1_556 S
C348 H362 0.930 . S
C349 C346 1.378 . S
C349 N350 1.315 . S
C349 H352 0.930 . S
N350 Co330 2.194 1_554 S
N350 C345 1.328 1_554 S
N350 C349 1.315 . S
H351 C345 0.929 . S
H352 C349 0.930 . S
H353 C341 0.929 . S
H354 C343 0.929 . S
O355 Co330 2.351 . S
O355 C358 1.244 . S
O356 Co330 2.155 . S
O356 C358 1.240 . S
O357 Co330 2.096 1_554 S
O357 C338 1.247 . S
C358 O355 1.244 . S
C358 O356 1.240 . S
H359 C333 0.931 . S
H360 C342 0.931 . S
H361 C346 0.929 . S
H362 C348 0.930 . S
Co363 N367 2.148 . S
Co363 N373 2.128 . S
Co363 N383 2.194 . S
Co363 O388 2.351 . S
Co363 O389 2.155 . S
Co363 O390 2.096 . S
C364 N367 1.301 . S
C364 N368 1.328 . S
C364 H369 0.930 . S
C365 C366 1.333 . S
C365 N367 1.317 . S
C365 H370 0.930 . S
C366 C365 1.333 . S
C366 N368 1.350 . S
C366 H392 0.931 . S
N367 Co363 2.148 . S
N367 C364 1.301 . S
N367 C365 1.317 . S
N368 C364 1.328 . S
N368 C366 1.350 . S
H369 C364 0.930 . S
H370 C365 0.930 . S
C371 O372 1.224 . S
C371 O390 1.247 . S
O372 C371 1.224 . S
N373 Co363 2.128 . S
N373 C374 1.355 . S
N373 C376 1.311 . S
C374 N373 1.355 . S
C374 C375 1.363 . S
C374 H386 0.929 . S
C375 C374 1.363 . S
C375 N377 1.375 . S
C375 H393 0.931 . S
C376 N373 1.311 . S
C376 N377 1.347 . S
C376 H387 0.929 . S
N377 C375 1.375 . S
N377 C376 1.347 . S
C378 C381 1.365 . S
C378 N383 1.328 . S
C378 H384 0.929 . S
C379 C380 1.362 . S
C379 C382 1.378 . S
C379 H394 0.929 . S
C380 C379 1.362 . S
C380 C381 1.366 . S
C381 C378 1.365 . S
C381 C380 1.366 . S
C381 H395 0.930 . S
C382 C379 1.378 . S
C382 N383 1.315 . S
C382 H385 0.930 . S
N383 Co363 2.194 . S
N383 C378 1.328 . S
N383 C382 1.315 . S
H384 C378 0.929 . S
H385 C382 0.930 . S
H386 C374 0.929 . S
H387 C376 0.929 . S
O388 Co363 2.351 . S
O388 C391 1.244 . S
O389 Co363 2.155 . S
O389 C391 1.240 . S
O390 Co363 2.096 . S
O390 C371 1.247 . S
C391 O388 1.244 . S
C391 O389 1.240 . S
H392 C366 0.931 . S
H393 C375 0.931 . S
H394 C379 0.929 . S
H395 C381 0.930 . S
Co396 N400 2.148 . S
Co396 N406 2.128 . S
Co396 N416 2.194 1_556 S
Co396 O421 2.351 . S
Co396 O422 2.155 . S
Co396 O423 2.096 1_556 S
C397 N400 1.301 . S
C397 N401 1.328 . S
C397 H402 0.930 . S
C398 C399 1.333 . S
C398 N400 1.317 1_554 S
C398 H403 0.930 . S
C399 C398 1.333 . S
C399 N401 1.350 1_554 S
C399 H425 0.931 . S
N400 Co396 2.148 . S
N400 C397 1.301 . S
N400 C398 1.317 1_556 S
N401 C397 1.328 . S
N401 C399 1.350 1_556 S
H402 C397 0.930 . S
H403 C398 0.930 . S
C404 O405 1.224 . S
C404 O423 1.247 . S
O405 C404 1.224 . S
N406 Co396 2.128 . S
N406 C407 1.355 . S
N406 C409 1.311 1_556 S
C407 N406 1.355 . S
C407 C408 1.363 . S
C407 H419 0.929 . S
C408 C407 1.363 . S
C408 N410 1.375 1_556 S
C408 H426 0.931 . S
C409 N406 1.311 1_554 S
C409 N410 1.347 . S
C409 H420 0.929 . S
N410 C408 1.375 1_554 S
N410 C409 1.347 . S
C411 C414 1.365 . S
C411 N416 1.328 1_556 S
C411 H417 0.929 . S
C412 C413 1.362 . S
C412 C415 1.378 . S
C412 H427 0.929 . S
C413 C412 1.362 . S
C413 C414 1.366 1_554 S
C414 C411 1.365 . S
C414 C413 1.366 1_556 S
C414 H428 0.930 . S
C415 C412 1.378 . S
C415 N416 1.315 . S
C415 H418 0.930 . S
N416 Co396 2.194 1_554 S
N416 C411 1.328 1_554 S
N416 C415 1.315 . S
H417 C411 0.929 . S
H418 C415 0.930 . S
H419 C407 0.929 . S
H420 C409 0.929 . S
O421 Co396 2.351 . S
O421 C424 1.244 . S
O422 Co396 2.155 . S
O422 C424 1.240 . S
O423 Co396 2.096 1_554 S
O423 C404 1.247 . S
C424 O421 1.244 . S
C424 O422 1.240 . S
H425 C399 0.931 . S
H426 C408 0.931 . S
H427 C412 0.929 . S
H428 C414 0.930 . S
Co429 N433 2.148 . S
Co429 N439 2.128 . S
Co429 N449 2.194 . S
Co429 O454 2.351 . S
Co429 O455 2.155 . S
Co429 O456 2.096 . S
C430 N433 1.301 . S
C430 N434 1.328 . S
C430 H435 0.930 . S
C431 C432 1.333 . S
C431 N433 1.317 . S
C431 H436 0.930 . S
C432 C431 1.333 . S
C432 N434 1.350 . S
C432 H458 0.931 . S
N433 Co429 2.148 . S
N433 C430 1.301 . S
N433 C431 1.317 . S
N434 C430 1.328 . S
N434 C432 1.350 . S
H435 C430 0.930 . S
H436 C431 0.930 . S
C437 O438 1.224 . S
C437 O456 1.247 . S
O438 C437 1.224 . S
N439 Co429 2.128 . S
N439 C440 1.355 . S
N439 C442 1.311 . S
C440 N439 1.355 . S
C440 C441 1.363 . S
C440 H452 0.929 . S
C441 C440 1.363 . S
C441 N443 1.375 . S
C441 H459 0.931 . S
C442 N439 1.311 . S
C442 N443 1.347 . S
C442 H453 0.929 . S
N443 C441 1.375 . S
N443 C442 1.347 . S
C444 C447 1.365 . S
C444 N449 1.328 . S
C444 H450 0.929 . S
C445 C446 1.362 . S
C445 C448 1.378 . S
C445 H460 0.929 . S
C446 C445 1.362 . S
C446 C447 1.366 . S
C447 C444 1.365 . S
C447 C446 1.366 . S
C447 H461 0.930 . S
C448 C445 1.378 . S
C448 N449 1.315 . S
C448 H451 0.930 . S
N449 Co429 2.194 . S
N449 C444 1.328 . S
N449 C448 1.315 . S
H450 C444 0.929 . S
H451 C448 0.930 . S
H452 C440 0.929 . S
H453 C442 0.929 . S
O454 Co429 2.351 . S
O454 C457 1.244 . S
O455 Co429 2.155 . S
O455 C457 1.240 . S
O456 Co429 2.096 . S
O456 C437 1.247 . S
C457 O454 1.244 . S
C457 O455 1.240 . S
H458 C432 0.931 . S
H459 C441 0.931 . S
H460 C445 0.929 . S
H461 C447 0.930 . S
Co462 N466 2.148 . S
Co462 N472 2.128 . S
Co462 N482 2.194 . S
Co462 O487 2.351 . S
Co462 O488 2.155 . S
Co462 O489 2.096 . S
C463 N466 1.301 . S
C463 N467 1.328 . S
C463 H468 0.930 . S
C464 C465 1.333 . S
C464 N466 1.317 . S
C464 H469 0.930 . S
C465 C464 1.333 . S
C465 N467 1.350 . S
C465 H491 0.931 . S
N466 Co462 2.148 . S
N466 C463 1.301 . S
N466 C464 1.317 . S
N467 C463 1.328 . S
N467 C465 1.350 . S
H468 C463 0.930 . S
H469 C464 0.930 . S
C470 O471 1.224 . S
C470 O489 1.247 . S
O471 C470 1.224 . S
N472 Co462 2.128 . S
N472 C473 1.355 . S
N472 C475 1.311 . S
C473 N472 1.355 . S
C473 C474 1.363 . S
C473 H485 0.929 . S
C474 C473 1.363 . S
C474 N476 1.375 . S
C474 H492 0.931 . S
C475 N472 1.311 . S
C475 N476 1.347 . S
C475 H486 0.929 . S
N476 C474 1.375 . S
N476 C475 1.347 . S
C477 C480 1.365 . S
C477 N482 1.328 . S
C477 H483 0.929 . S
C478 C479 1.362 . S
C478 C481 1.378 . S
C478 H493 0.929 . S
C479 C478 1.362 . S
C479 C480 1.366 . S
C480 C477 1.365 . S
C480 C479 1.366 . S
C480 H494 0.930 . S
C481 C478 1.378 . S
C481 N482 1.315 . S
C481 H484 0.930 . S
N482 Co462 2.194 . S
N482 C477 1.328 . S
N482 C481 1.315 . S
H483 C477 0.929 . S
H484 C481 0.930 . S
H485 C473 0.929 . S
H486 C475 0.929 . S
O487 Co462 2.351 . S
O487 C490 1.244 . S
O488 Co462 2.155 . S
O488 C490 1.240 . S
O489 Co462 2.096 . S
O489 C470 1.247 . S
C490 O487 1.244 . S
C490 O488 1.240 . S
H491 C465 0.931 . S
H492 C474 0.931 . S
H493 C478 0.929 . S
H494 C480 0.930 . S
Co495 N499 2.148 . S
Co495 N505 2.128 . S
Co495 N515 2.194 . S
Co495 O520 2.351 . S
Co495 O521 2.155 . S
Co495 O522 2.096 . S
C496 N499 1.301 . S
C496 N500 1.328 . S
C496 H501 0.930 . S
C497 C498 1.333 . S
C497 N499 1.317 . S
C497 H502 0.930 . S
C498 C497 1.333 . S
C498 N500 1.350 . S
C498 H524 0.931 . S
N499 Co495 2.148 . S
N499 C496 1.301 . S
N499 C497 1.317 . S
N500 C496 1.328 . S
N500 C498 1.350 . S
H501 C496 0.930 . S
H502 C497 0.930 . S
C503 O504 1.224 . S
C503 O522 1.247 . S
O504 C503 1.224 . S
N505 Co495 2.128 . S
N505 C506 1.355 . S
N505 C508 1.311 . S
C506 N505 1.355 . S
C506 C507 1.363 . S
C506 H518 0.929 . S
C507 C506 1.363 . S
C507 N509 1.375 . S
C507 H525 0.931 . S
C508 N505 1.311 . S
C508 N509 1.347 . S
C508 H519 0.929 . S
N509 C507 1.375 . S
N509 C508 1.347 . S
C510 C513 1.365 . S
C510 N515 1.328 . S
C510 H516 0.929 . S
C511 C512 1.362 . S
C511 C514 1.378 . S
C511 H526 0.929 . S
C512 C511 1.362 . S
C512 C513 1.366 . S
C513 C510 1.365 . S
C513 C512 1.366 . S
C513 H527 0.930 . S
C514 C511 1.378 . S
C514 N515 1.315 . S
C514 H517 0.930 . S
N515 Co495 2.194 . S
N515 C510 1.328 . S
N515 C514 1.315 . S
H516 C510 0.929 . S
H517 C514 0.930 . S
H518 C506 0.929 . S
H519 C508 0.929 . S
O520 Co495 2.351 . S
O520 C523 1.244 . S
O521 Co495 2.155 . S
O521 C523 1.240 . S
O522 Co495 2.096 . S
O522 C503 1.247 . S
C523 O520 1.244 . S
C523 O521 1.240 . S
H524 C498 0.931 . S
H525 C507 0.931 . S
H526 C511 0.929 . S
H527 C513 0.930 . S
H528 C534 0.930 1_545 S
H529 C537 0.930 . S
H530 C538 0.913 1_455 S
H531 C539 0.930 1_566 S
H532 C542 0.930 . S
H533 C543 0.913 1_655 S
C534 H528 0.930 1_565 S
C534 C535 1.355 . S
C534 C536 1.415 1_565 S
C535 C534 1.355 . S
C535 C537 1.419 1_554 S
C536 C534 1.415 1_545 S
C536 C541 1.425 1_645 S
C536 C543 1.400 1_655 S
C537 H529 0.930 . S
C537 C535 1.419 1_556 S
C537 C538 1.389 . S
C538 H530 0.913 1_655 S
C538 C537 1.389 . S
C538 C541 1.400 1_656 S
C539 H531 0.930 1_544 S
C539 C540 1.355 . S
C539 C541 1.415 1_545 S
C540 C539 1.355 . S
C540 C542 1.419 . S
C541 C536 1.425 1_465 S
C541 C538 1.400 1_454 S
C541 C539 1.415 1_565 S
C542 H532 0.930 . S
C542 C540 1.419 . S
C542 C543 1.389 . S
C543 H533 0.913 1_455 S
C543 C536 1.400 1_455 S
C543 C542 1.389 . S
H544 C550 0.930 . S
H545 C553 0.930 . S
H546 C554 0.930 . S
H547 C555 0.930 . S
H548 C558 0.930 . S
H549 C559 0.930 . S
C550 H544 0.930 . S
C550 C551 1.355 . S
C550 C552 1.415 . S
C551 C550 1.355 . S
C551 C553 1.419 1_655 S
C552 C550 1.415 . S
C552 C557 1.425 1_655 S
C552 C559 1.409 . S
C553 H545 0.930 . S
C553 C551 1.419 1_455 S
C553 C554 1.362 . S
C554 H546 0.930 . S
C554 C553 1.362 . S
C554 C557 1.409 . S
C555 H547 0.930 . S
C555 C556 1.355 . S
C555 C557 1.415 . S
C556 C555 1.355 . S
C556 C558 1.419 1_455 S
C557 C552 1.425 1_455 S
C557 C554 1.409 . S
C557 C555 1.415 . S
C558 H548 0.930 . S
C558 C556 1.419 1_655 S
C558 C559 1.362 . S
C559 H549 0.930 . S
C559 C552 1.409 . S
C559 C558 1.362 . S
H560 C566 0.930 . S
H561 C569 0.930 . S
H562 C570 0.930 . S
H563 C571 0.930 . S
H564 C574 0.930 . S
H565 C575 0.930 . S
C566 H560 0.930 . S
C566 C567 1.355 . S
C566 C568 1.415 . S
C567 C566 1.355 . S
C567 C569 1.419 . S
C568 C566 1.415 . S
C568 C573 1.425 . S
C568 C575 1.409 . S
C569 H561 0.930 . S
C569 C567 1.419 . S
C569 C570 1.362 . S
C570 H562 0.930 . S
C570 C569 1.362 . S
C570 C573 1.409 . S
C571 H563 0.930 . S
C571 C572 1.355 . S
C571 C573 1.415 . S
C572 C571 1.355 . S
C572 C574 1.419 . S
C573 C568 1.425 . S
C573 C570 1.409 . S
C573 C571 1.415 . S
C574 H564 0.930 . S
C574 C572 1.419 . S
C574 C575 1.362 . S
C575 H565 0.930 . S
C575 C568 1.409 . S
C575 C574 1.362 . S
H576 C582 0.930 . S
H577 C585 0.930 . S
H578 C586 0.930 . S
H579 C587 0.930 . S
H580 C590 0.930 . S
H581 C591 0.930 . S
C582 H576 0.930 . S
C582 C583 1.355 . S
C582 C584 1.415 . S
C583 C582 1.355 . S
C583 C585 1.419 . S
C584 C582 1.415 . S
C584 C589 1.425 1_565 S
C584 C591 1.409 1_565 S
C585 H577 0.930 . S
C585 C583 1.419 . S
C585 C586 1.362 . S
C586 H578 0.930 . S
C586 C585 1.362 . S
C586 C589 1.409 1_565 S
C587 H579 0.930 . S
C587 C588 1.355 . S
C587 C589 1.415 . S
C588 C587 1.355 . S
C588 C590 1.419 . S
C589 C584 1.425 1_545 S
C589 C586 1.409 1_545 S
C589 C587 1.415 . S
C590 H580 0.930 . S
C590 C588 1.419 . S
C590 C591 1.362 . S
C591 H581 0.930 . S
C591 C584 1.409 1_545 S
C591 C590 1.362 . S
H592 C598 0.930 . S
H593 C601 0.930 . S
H594 C602 0.935 . S
H595 C603 0.930 . S
H596 C606 0.930 . S
H597 C607 0.935 . S
C598 H592 0.930 . S
C598 C599 1.355 . S
C598 C600 1.415 . S
C599 C598 1.355 . S
C599 C601 1.419 . S
C600 C598 1.415 . S
C600 C605 1.425 1_465 S
C600 C607 1.409 1_465 S
C601 H593 0.930 . S
C601 C599 1.419 . S
C601 C602 1.362 . S
C602 H594 0.935 . S
C602 C601 1.362 . S
C602 C605 1.409 1_465 S
C603 H595 0.930 . S
C603 C604 1.355 . S
C603 C605 1.415 . S
C604 C603 1.355 . S
C604 C606 1.419 . S
C605 C600 1.425 1_645 S
C605 C602 1.409 1_645 S
C605 C603 1.415 . S
C606 H596 0.930 . S
C606 C604 1.419 . S
C606 C607 1.362 . S
C607 H597 0.935 . S
C607 C600 1.409 1_645 S
C607 C606 1.362 . S
H608 C614 0.930 . S
H609 C617 0.930 . S
H610 C618 0.930 . S
H611 C619 0.930 . S
H612 C622 0.930 . S
H613 C623 0.930 . S
C614 H608 0.930 . S
C614 C615 1.355 . S
C614 C616 1.415 . S
C615 C614 1.355 . S
C615 C617 1.419 1_655 S
C616 C614 1.415 . S
C616 C621 1.425 1_655 S
C616 C623 1.409 . S
C617 H609 0.930 . S
C617 C615 1.419 1_455 S
C617 C618 1.362 . S
C618 H610 0.930 . S
C618 C617 1.362 . S
C618 C621 1.409 . S
C619 H611 0.930 . S
C619 C620 1.355 . S
C619 C621 1.415 . S
C620 C619 1.355 . S
C620 C622 1.419 1_455 S
C621 C616 1.425 1_455 S
C621 C618 1.409 . S
C621 C619 1.415 . S
C622 H612 0.930 . S
C622 C620 1.419 1_655 S
C622 C623 1.362 . S
C623 H613 0.930 . S
C623 C616 1.409 . S
C623 C622 1.362 . S
H624 C630 0.930 . S
H625 C633 0.930 . S
H626 C634 0.930 . S
H627 C635 0.930 1_556 S
H628 C638 0.930 . S
H629 C639 0.930 . S
C630 H624 0.930 . S
C630 C631 1.355 . S
C630 C632 1.415 . S
C631 C630 1.355 . S
C631 C633 1.419 1_554 S
C632 C630 1.415 . S
C632 C637 1.425 . S
C632 C639 1.409 . S
C633 H625 0.930 . S
C633 C631 1.419 1_556 S
C633 C634 1.362 . S
C634 H626 0.930 . S
C634 C633 1.362 . S
C634 C637 1.409 1_556 S
C635 H627 0.930 1_554 S
C635 C636 1.355 . S
C635 C637 1.415 . S
C636 C635 1.355 . S
C636 C638 1.419 . S
C637 C632 1.425 . S
C637 C634 1.409 1_554 S
C637 C635 1.415 . S
C638 H628 0.930 . S
C638 C636 1.419 . S
C638 C639 1.362 . S
C639 H629 0.930 . S
C639 C632 1.409 . S
C639 C638 1.362 . S
H640 C646 0.930 . S
H641 C649 0.930 . S
H642 C650 0.908 1_545 S
H643 C651 0.930 . S
H644 C654 0.930 . S
H645 C655 0.908 1_565 S
C646 H640 0.930 . S
C646 C647 1.355 . S
C646 C648 1.415 . S
C647 C646 1.355 . S
C647 C649 1.419 . S
C648 C646 1.415 . S
C648 C653 1.425 1_565 S
C648 C655 1.397 1_565 S
C649 H641 0.930 . S
C649 C647 1.419 . S
C649 C650 1.397 . S
C650 H642 0.908 1_565 S
C650 C649 1.397 . S
C650 C653 1.397 1_565 S
C651 H643 0.930 . S
C651 C652 1.355 . S
C651 C653 1.415 . S
C652 C651 1.355 . S
C652 C654 1.419 . S
C653 C648 1.425 1_545 S
C653 C650 1.397 1_545 S
C653 C651 1.415 . S
C654 H644 0.930 . S
C654 C652 1.419 . S
C654 C655 1.397 . S
C655 H645 0.908 1_545 S
C655 C648 1.397 1_545 S
C655 C654 1.397 . S
H656 C662 0.930 . S
H657 C665 0.930 . S
H658 C666 0.930 . S
H659 C667 0.930 . S
H660 C670 0.930 . S
H661 C671 0.930 . S
C662 H656 0.930 . S
C662 C663 1.355 . S
C662 C664 1.405 1_565 S
C663 C662 1.355 . S
C663 C665 1.419 . S
C664 C662 1.405 1_545 S
C664 C669 1.413 1_545 S
C664 C671 1.431 . S
C665 H657 0.930 . S
C665 C663 1.419 . S
C665 C666 1.362 . S
C666 H658 0.930 . S
C666 C665 1.362 . S
C666 C669 1.409 . S
C667 H659 0.930 . S
C667 C668 1.355 1_565 S
C667 C669 1.415 . S
C668 C667 1.355 1_545 S
C668 C670 1.419 . S
C669 C664 1.413 1_565 S
C669 C666 1.409 . S
C669 C667 1.415 . S
C670 H660 0.930 . S
C670 C668 1.419 . S
C670 C671 1.362 . S
C671 H661 0.930 . S
C671 C664 1.431 . S
C671 C670 1.362 . S
H672 C678 0.930 . S
H673 C681 0.930 . S
H674 C682 0.930 . S
H675 C683 0.930 . S
H676 C686 0.930 . S
H677 C687 0.930 . S
C678 H672 0.930 . S
C678 C679 1.355 . S
C678 C680 1.415 . S
C679 C678 1.355 . S
C679 C681 1.419 . S
C680 C678 1.415 . S
C680 C685 1.425 . S
C680 C687 1.409 . S
C681 H673 0.930 . S
C681 C679 1.419 . S
C681 C682 1.362 . S
C682 H674 0.930 . S
C682 C681 1.362 . S
C682 C685 1.409 . S
C683 H675 0.930 . S
C683 C684 1.355 . S
C683 C685 1.415 1_655 S
C684 C683 1.355 . S
C684 C686 1.419 . S
C685 C680 1.425 . S
C685 C682 1.409 . S
C685 C683 1.415 1_455 S
C686 H676 0.930 . S
C686 C684 1.419 . S
C686 C687 1.362 1_655 S
C687 H677 0.930 . S
C687 C680 1.409 . S
C687 C686 1.362 1_455 S
H688 C694 0.930 . S
H689 C697 0.930 . S
H690 C698 0.930 . S
H691 C699 0.930 . S
H692 C702 0.930 . S
H693 C703 0.930 . S
C694 H688 0.930 . S
C694 C695 1.355 . S
C694 C696 1.415 . S
C695 C694 1.355 . S
C695 C697 1.419 . S
C696 C694 1.415 . S
C696 C701 1.425 . S
C696 C703 1.409 . S
C697 H689 0.930 . S
C697 C695 1.419 . S
C697 C698 1.362 . S
C698 H690 0.930 . S
C698 C697 1.362 . S
C698 C701 1.409 . S
C699 H691 0.930 . S
C699 C700 1.355 . S
C699 C701 1.415 . S
C700 C699 1.355 . S
C700 C702 1.419 . S
C701 C696 1.425 . S
C701 C698 1.409 . S
C701 C699 1.415 . S
C702 H692 0.930 . S
C702 C700 1.419 . S
C702 C703 1.362 . S
C703 H693 0.930 . S
C703 C696 1.409 . S
C703 C702 1.362 . S
H704 C710 0.930 . S
H705 C713 0.930 . S
H706 C714 0.930 . S
H707 C715 0.930 . S
H708 C718 0.930 . S
H709 C719 0.930 . S
C710 H704 0.930 . S
C710 C711 1.355 . S
C710 C712 1.415 1_554 S
C711 C710 1.355 . S
C711 C713 1.419 . S
C712 C710 1.415 1_556 S
C712 C717 1.425 . S
C712 C719 1.409 . S
C713 H705 0.930 . S
C713 C711 1.419 . S
C713 C714 1.362 . S
C714 H706 0.930 . S
C714 C713 1.362 . S
C714 C717 1.409 1_554 S
C715 H707 0.930 . S
C715 C716 1.355 . S
C715 C717 1.415 . S
C716 C715 1.355 . S
C716 C718 1.419 . S
C717 C712 1.425 . S
C717 C714 1.409 1_556 S
C717 C715 1.415 . S
C718 H708 0.930 . S
C718 C716 1.419 . S
C718 C719 1.362 . S
C719 H709 0.930 . S
C719 C712 1.409 . S
C719 C718 1.362 . S
H720 C726 0.930 . S
H721 C729 0.930 . S
H722 C730 0.930 . S
H723 C731 0.930 . S
H724 C734 0.930 . S
H725 C735 0.930 . S
C726 H720 0.930 . S
C726 C727 1.355 . S
C726 C728 1.415 . S
C727 C726 1.355 . S
C727 C729 1.419 1_545 S
C728 C726 1.415 . S
C728 C733 1.425 1_545 S
C728 C735 1.409 . S
C729 H721 0.930 . S
C729 C727 1.419 1_565 S
C729 C730 1.362 . S
C730 H722 0.930 . S
C730 C729 1.362 . S
C730 C733 1.409 . S
C731 H723 0.930 . S
C731 C732 1.355 . S
C731 C733 1.415 . S
C732 C731 1.355 . S
C732 C734 1.419 . S
C733 C728 1.425 1_565 S
C733 C730 1.409 . S
C733 C731 1.415 . S
C734 H724 0.930 . S
C734 C732 1.419 . S
C734 C735 1.362 1_565 S
C735 H725 0.930 . S
C735 C728 1.409 . S
C735 C734 1.362 1_545 S
H736 C742 0.929 . S
H737 C745 0.930 . S
H738 C746 0.930 1_554 S
H739 C747 0.930 . S
H740 C750 0.930 . S
H741 C751 0.930 . S
C742 H736 0.929 . S
C742 C743 1.355 1_455 S
C742 C744 1.414 . S
C743 C742 1.355 1_655 S
C743 C745 1.419 . S
C744 C742 1.414 . S
C744 C749 1.425 1_556 S
C744 C751 1.409 . S
C745 H737 0.930 . S
C745 C743 1.419 . S
C745 C746 1.362 . S
C746 H738 0.930 1_556 S
C746 C745 1.362 . S
C746 C749 1.409 1_656 S
C747 H739 0.930 . S
C747 C748 1.355 . S
C747 C749 1.415 . S
C748 C747 1.355 . S
C748 C750 1.419 . S
C749 C744 1.425 1_554 S
C749 C746 1.409 1_454 S
C749 C747 1.415 . S
C750 H740 0.930 . S
C750 C748 1.419 . S
C750 C751 1.362 1_554 S
C751 H741 0.930 . S
C751 C744 1.409 . S
C751 C750 1.362 1_556 S
H752 C758 0.930 . S
H753 C761 0.930 . S
H754 C762 0.930 . S
H755 C763 0.930 . S
H756 C766 0.930 . S
H757 C767 0.930 . S
C758 H752 0.930 . S
C758 C759 1.355 . S
C758 C760 1.415 . S
C759 C758 1.355 . S
C759 C761 1.419 . S
C760 C758 1.415 . S
C760 C765 1.425 . S
C760 C767 1.409 . S
C761 H753 0.930 . S
C761 C759 1.419 . S
C761 C762 1.362 . S
C762 H754 0.930 . S
C762 C761 1.362 . S
C762 C765 1.409 . S
C763 H755 0.930 . S
C763 C764 1.355 . S
C763 C765 1.415 . S
C764 C763 1.355 . S
C764 C766 1.419 . S
C765 C760 1.425 . S
C765 C762 1.409 . S
C765 C763 1.415 . S
C766 H756 0.930 . S
C766 C764 1.419 . S
C766 C767 1.362 . S
C767 H757 0.930 . S
C767 C760 1.409 . S
C767 C766 1.362 . S
H768 C774 0.930 . S
H769 C777 0.930 . S
H770 C778 0.930 . S
H771 C779 0.930 . S
H772 C782 0.930 . S
H773 C783 0.930 . S
C774 H768 0.930 . S
C774 C775 1.355 . S
C774 C776 1.415 . S
C775 C774 1.355 . S
C775 C777 1.419 . S
C776 C774 1.415 . S
C776 C781 1.425 . S
C776 C783 1.409 . S
C777 H769 0.930 . S
C777 C775 1.419 . S
C777 C778 1.362 . S
C778 H770 0.930 . S
C778 C777 1.362 . S
C778 C781 1.409 . S
C779 H771 0.930 . S
C779 C780 1.355 . S
C779 C781 1.415 . S
C780 C779 1.355 . S
C780 C782 1.419 . S
C781 C776 1.425 . S
C781 C778 1.409 . S
C781 C779 1.415 . S
C782 H772 0.930 . S
C782 C780 1.419 . S
C782 C783 1.362 . S
C783 H773 0.930 . S
C783 C776 1.409 . S
C783 C782 1.362 . S
H784 C790 0.930 . S
H785 C793 0.930 . S
H786 C794 0.930 . S
H787 C795 0.930 . S
H788 C798 0.930 . S
H789 C799 0.930 . S
C790 H784 0.930 . S
C790 C791 1.355 . S
C790 C792 1.415 . S
C791 C790 1.355 . S
C791 C793 1.419 . S
C792 C790 1.415 . S
C792 C797 1.425 . S
C792 C799 1.409 . S
C793 H785 0.930 . S
C793 C791 1.419 . S
C793 C794 1.362 . S
C794 H786 0.930 . S
C794 C793 1.362 . S
C794 C797 1.409 . S
C795 H787 0.930 . S
C795 C796 1.355 . S
C795 C797 1.415 . S
C796 C795 1.355 . S
C796 C798 1.419 . S
C797 C792 1.425 . S
C797 C794 1.409 . S
C797 C795 1.415 . S
C798 H788 0.930 . S
C798 C796 1.419 . S
C798 C799 1.362 . S
C799 H789 0.930 . S
C799 C792 1.409 . S
C799 C798 1.362 . S
H800 C806 0.930 . S
H801 C809 0.930 . S
H802 C810 0.930 . S
H803 C811 0.930 . S
H804 C814 0.930 . S
H805 C815 0.930 . S
C806 H800 0.930 . S
C806 C807 1.355 . S
C806 C808 1.415 . S
C807 C806 1.355 . S
C807 C809 1.419 . S
C808 C806 1.415 . S
C808 C813 1.425 1_554 S
C808 C815 1.409 . S
C809 H801 0.930 . S
C809 C807 1.419 . S
C809 C810 1.362 1_554 S
C810 H802 0.930 . S
C810 C809 1.362 1_556 S
C810 C813 1.409 . S
C811 H803 0.930 . S
C811 C812 1.355 . S
C811 C813 1.415 . S
C812 C811 1.355 . S
C812 C814 1.419 . S
C813 C808 1.425 1_556 S
C813 C810 1.409 . S
C813 C811 1.415 . S
C814 H804 0.930 . S
C814 C812 1.419 . S
C814 C815 1.362 1_556 S
C815 H805 0.930 . S
C815 C808 1.409 . S
C815 C814 1.362 1_554 S
H816 C822 0.930 . S
H817 C825 0.930 . S
H818 C826 0.921 1_565 S
H819 C827 0.930 . S
H820 C830 0.930 . S
H821 C831 0.930 . S
C822 H816 0.930 . S
C822 C823 1.355 . S
C822 C824 1.415 . S
C823 C822 1.355 . S
C823 C825 1.419 . S
C824 C822 1.415 . S
C824 C829 1.406 1_545 S
C824 C831 1.409 . S
C825 H817 0.930 . S
C825 C823 1.419 . S
C825 C826 1.373 . S
C826 H818 0.921 1_545 S
C826 C825 1.373 . S
C826 C829 1.408 1_545 S
C827 H819 0.930 . S
C827 C828 1.355 . S
C827 C829 1.435 . S
C828 C827 1.355 . S
C828 C830 1.419 . S
C829 C824 1.406 1_565 S
C829 C826 1.408 1_565 S
C829 C827 1.435 . S
C830 H820 0.930 . S
C830 C828 1.419 . S
C830 C831 1.362 1_565 S
C831 H821 0.930 . S
C831 C824 1.409 . S
C831 C830 1.362 1_545 S
H832 C838 0.930 . S
H833 C841 0.930 . S
H834 C842 0.930 . S
H835 C843 0.930 . S
H836 C846 0.930 . S
H837 C847 0.930 . S
C838 H832 0.930 . S
C838 C839 1.355 . S
C838 C840 1.415 . S
C839 C838 1.355 . S
C839 C841 1.419 1_455 S
C840 C838 1.415 . S
C840 C845 1.425 1_455 S
C840 C847 1.409 . S
C841 H833 0.930 . S
C841 C839 1.419 1_655 S
C841 C842 1.362 . S
C842 H834 0.930 . S
C842 C841 1.362 . S
C842 C845 1.409 . S
C843 H835 0.930 . S
C843 C844 1.355 . S
C843 C845 1.415 . S
C844 C843 1.355 . S
C844 C846 1.419 . S
C845 C840 1.425 1_655 S
C845 C842 1.409 . S
C845 C843 1.415 . S
C846 H836 0.930 . S
C846 C844 1.419 . S
C846 C847 1.362 1_655 S
C847 H837 0.930 . S
C847 C840 1.409 . S
C847 C846 1.362 1_455 S
H848 C854 0.930 . S
H849 C857 0.930 . S
H850 C858 0.930 . S
H851 C859 0.930 . S
H852 C862 0.930 . S
H853 C863 0.930 . S
C854 H848 0.930 . S
C854 C855 1.355 . S
C854 C856 1.415 . S
C855 C854 1.355 . S
C855 C857 1.419 . S
C856 C854 1.415 . S
C856 C861 1.425 . S
C856 C863 1.409 . S
C857 H849 0.930 . S
C857 C855 1.419 . S
C857 C858 1.362 . S
C858 H850 0.930 . S
C858 C857 1.362 . S
C858 C861 1.409 . S
C859 H851 0.930 . S
C859 C860 1.355 . S
C859 C861 1.415 . S
C860 C859 1.355 . S
C860 C862 1.419 . S
C861 C856 1.425 . S
C861 C858 1.409 . S
C861 C859 1.415 . S
C862 H852 0.930 . S
C862 C860 1.419 . S
C862 C863 1.362 . S
C863 H853 0.930 . S
C863 C856 1.409 . S
C863 C862 1.362 . S
H864 C870 0.930 . S
H865 C873 0.930 . S
H866 C874 0.930 . S
H867 C875 0.930 . S
H868 C878 0.930 . S
H869 C879 0.930 . S
C870 H864 0.930 . S
C870 C871 1.355 . S
C870 C872 1.415 . S
C871 C870 1.355 . S
C871 C873 1.419 . S
C872 C870 1.415 . S
C872 C877 1.425 . S
C872 C879 1.409 . S
C873 H865 0.930 . S
C873 C871 1.419 . S
C873 C874 1.362 . S
C874 H866 0.930 . S
C874 C873 1.362 . S
C874 C877 1.409 . S
C875 H867 0.930 . S
C875 C876 1.355 . S
C875 C877 1.415 . S
C876 C875 1.355 . S
C876 C878 1.419 . S
C877 C872 1.425 . S
C877 C874 1.409 . S
C877 C875 1.415 . S
C878 H868 0.930 . S
C878 C876 1.419 . S
C878 C879 1.362 . S
C879 H869 0.930 . S
C879 C872 1.409 . S
C879 C878 1.362 . S
H880 C886 0.930 . S
H881 C889 0.930 . S
H882 C890 0.930 . S
H883 C891 0.930 . S
H884 C894 0.930 . S
H885 C895 0.930 1_565 S
C886 H880 0.930 . S
C886 C887 1.355 . S
C886 C888 1.392 1_565 S
C887 C886 1.355 . S
C887 C889 1.419 . S
C888 C886 1.392 1_545 S
C888 C893 1.443 . S
C888 C895 1.416 . S
C889 H881 0.930 . S
C889 C887 1.419 . S
C889 C890 1.362 1_565 S
C890 H882 0.930 . S
C890 C889 1.362 1_545 S
C890 C893 1.409 . S
C891 H883 0.930 . S
C891 C892 1.355 . S
C891 C893 1.415 . S
C892 C891 1.355 . S
C892 C894 1.419 . S
C893 C888 1.443 . S
C893 C890 1.409 . S
C893 C891 1.415 . S
C894 H884 0.930 . S
C894 C892 1.419 . S
C894 C895 1.362 . S
C895 H885 0.930 1_545 S
C895 C888 1.416 . S
C895 C894 1.362 . S
H896 C902 0.930 . S
H897 C905 0.930 . S
H898 C906 0.930 . S
H899 C907 0.930 . S
H900 C910 0.930 . S
H901 C911 0.930 . S
C902 H896 0.930 . S
C902 C903 1.355 . S
C902 C904 1.409 1_655 S
C903 C902 1.355 . S
C903 C905 1.419 . S
C904 C902 1.409 1_455 S
C904 C909 1.418 1_454 S
C904 C911 1.422 . S
C905 H897 0.930 . S
C905 C903 1.419 . S
C905 C906 1.362 1_554 S
C906 H898 0.930 . S
C906 C905 1.362 1_556 S
C906 C909 1.409 . S
C907 H899 0.930 . S
C907 C908 1.355 1_655 S
C907 C909 1.415 . S
C908 C907 1.355 1_455 S
C908 C910 1.419 . S
C909 C904 1.418 1_656 S
C909 C906 1.409 . S
C909 C907 1.415 . S
C910 H900 0.930 . S
C910 C908 1.419 . S
C910 C911 1.362 1_556 S
C911 H901 0.930 . S
C911 C904 1.422 . S
C911 C910 1.362 1_554 S
H912 C918 0.930 . S
H913 C921 0.930 . S
H914 C922 0.930 . S
H915 C923 0.930 . S
H916 C926 0.930 . S
H917 C927 0.930 . S
C918 H912 0.930 . S
C918 C919 1.355 . S
C918 C920 1.415 . S
C919 C918 1.355 . S
C919 C921 1.419 . S
C920 C918 1.415 . S
C920 C925 1.425 . S
C920 C927 1.409 . S
C921 H913 0.930 . S
C921 C919 1.419 . S
C921 C922 1.362 . S
C922 H914 0.930 . S
C922 C921 1.362 . S
C922 C925 1.409 . S
C923 H915 0.930 . S
C923 C924 1.355 . S
C923 C925 1.415 . S
C924 C923 1.355 . S
C924 C926 1.419 . S
C925 C920 1.425 . S
C925 C922 1.409 . S
C925 C923 1.415 . S
C926 H916 0.930 . S
C926 C924 1.419 . S
C926 C927 1.362 . S
C927 H917 0.930 . S
C927 C920 1.409 . S
C927 C926 1.362 . S
H928 C934 0.930 . S
H929 C937 0.930 . S
H930 C938 0.930 . S
H931 C939 0.930 . S
H932 C942 0.930 . S
H933 C943 0.930 . S
C934 H928 0.930 . S
C934 C935 1.355 . S
C934 C936 1.415 . S
C935 C934 1.355 . S
C935 C937 1.419 . S
C936 C934 1.415 . S
C936 C941 1.425 . S
C936 C943 1.409 . S
C937 H929 0.930 . S
C937 C935 1.419 . S
C937 C938 1.362 . S
C938 H930 0.930 . S
C938 C937 1.362 . S
C938 C941 1.409 . S
C939 H931 0.930 . S
C939 C940 1.355 . S
C939 C941 1.415 . S
C940 C939 1.355 . S
C940 C942 1.419 . S
C941 C936 1.425 . S
C941 C938 1.409 . S
C941 C939 1.415 . S
C942 H932 0.930 . S
C942 C940 1.419 . S
C942 C943 1.362 . S
C943 H933 0.930 . S
C943 C936 1.409 . S
C943 C942 1.362 . S
H944 C950 0.930 . S
H945 C953 0.930 . S
H946 C954 0.930 . S
H947 C955 0.930 . S
H948 C958 0.930 . S
H949 C959 0.930 . S
C950 H944 0.930 . S
C950 C951 1.355 . S
C950 C952 1.415 . S
C951 C950 1.355 . S
C951 C953 1.419 . S
C952 C950 1.415 . S
C952 C957 1.425 . S
C952 C959 1.409 . S
C953 H945 0.930 . S
C953 C951 1.419 . S
C953 C954 1.362 . S
C954 H946 0.930 . S
C954 C953 1.362 . S
C954 C957 1.409 . S
C955 H947 0.930 . S
C955 C956 1.355 . S
C955 C957 1.415 . S
C956 C955 1.355 . S
C956 C958 1.419 . S
C957 C952 1.425 . S
C957 C954 1.409 . S
C957 C955 1.415 . S
C958 H948 0.930 . S
C958 C956 1.419 . S
C958 C959 1.362 . S
C959 H949 0.930 . S
C959 C952 1.409 . S
C959 C958 1.362 . S
H960 C966 0.930 . S
H961 C969 0.930 . S
H962 C970 0.930 . S
H963 C971 0.930 . S
H964 C974 0.930 . S
H965 C975 0.930 . S
C966 H960 0.930 . S
C966 C967 1.355 . S
C966 C968 1.415 . S
C967 C966 1.355 . S
C967 C969 1.419 . S
C968 C966 1.415 . S
C968 C973 1.425 . S
C968 C975 1.409 . S
C969 H961 0.930 . S
C969 C967 1.419 . S
C969 C970 1.362 . S
C970 H962 0.930 . S
C970 C969 1.362 . S
C970 C973 1.409 . S
C971 H963 0.930 . S
C971 C972 1.355 . S
C971 C973 1.415 . S
C972 C971 1.355 . S
C972 C974 1.419 . S
C973 C968 1.425 . S
C973 C970 1.409 . S
C973 C971 1.415 . S
C974 H964 0.930 . S
C974 C972 1.419 . S
C974 C975 1.362 . S
C975 H965 0.930 . S
C975 C968 1.409 . S
C975 C974 1.362 . S
H976 C982 0.930 . S
H977 C985 0.930 . S
H978 C986 0.930 . S
H979 C987 0.930 . S
H980 C990 0.930 . S
H981 C991 0.930 . S
C982 H976 0.930 . S
C982 C983 1.355 . S
C982 C984 1.415 . S
C983 C982 1.355 . S
C983 C985 1.419 . S
C984 C982 1.415 . S
C984 C989 1.425 . S
C984 C991 1.409 . S
C985 H977 0.930 . S
C985 C983 1.419 . S
C985 C986 1.362 . S
C986 H978 0.930 . S
C986 C985 1.362 . S
C986 C989 1.409 . S
C987 H979 0.930 . S
C987 C988 1.355 . S
C987 C989 1.415 . S
C988 C987 1.355 . S
C988 C990 1.419 . S
C989 C984 1.425 . S
C989 C986 1.409 . S
C989 C987 1.415 . S
C990 H980 0.930 . S
C990 C988 1.419 . S
C990 C991 1.362 . S
C991 H981 0.930 . S
C991 C984 1.409 . S
C991 C990 1.362 . S
H992 C998 0.930 . S
H993 C1001 0.930 . S
H994 C1002 0.930 . S
H995 C1003 0.930 . S
H996 C1006 0.930 . S
H997 C1007 0.930 . S
C998 H992 0.930 . S
C998 C999 1.355 . S
C998 C1000 1.415 . S
C999 C998 1.355 . S
C999 C1001 1.419 . S
C1000 C998 1.415 . S
C1000 C1005 1.425 . S
C1000 C1007 1.409 . S
C1001 H993 0.930 . S
C1001 C999 1.419 . S
C1001 C1002 1.362 . S
C1002 H994 0.930 . S
C1002 C1001 1.362 . S
C1002 C1005 1.409 . S
C1003 H995 0.930 . S
C1003 C1004 1.355 . S
C1003 C1005 1.415 . S
C1004 C1003 1.355 . S
C1004 C1006 1.419 . S
C1005 C1000 1.425 . S
C1005 C1002 1.409 . S
C1005 C1003 1.415 . S
C1006 H996 0.930 . S
C1006 C1004 1.419 . S
C1006 C1007 1.362 . S
C1007 H997 0.930 . S
C1007 C1000 1.409 . S
C1007 C1006 1.362 . S
H1008 C1014 0.930 . S
H1009 C1017 0.930 . S
H1010 C1018 0.930 . S
H1011 C1019 0.930 . S
H1012 C1022 0.930 1_556 S
H1013 C1023 0.930 . S
C1014 H1008 0.930 . S
C1014 C1015 1.355 . S
C1014 C1016 1.415 . S
C1015 C1014 1.355 . S
C1015 C1017 1.419 . S
C1016 C1014 1.415 . S
C1016 C1021 1.425 . S
C1016 C1023 1.409 . S
C1017 H1009 0.930 . S
C1017 C1015 1.419 . S
C1017 C1018 1.362 . S
C1018 H1010 0.930 . S
C1018 C1017 1.362 . S
C1018 C1021 1.409 . S
C1019 H1011 0.930 . S
C1019 C1020 1.355 . S
C1019 C1021 1.415 . S
C1020 C1019 1.355 . S
C1020 C1022 1.419 . S
C1021 C1016 1.425 . S
C1021 C1018 1.409 . S
C1021 C1019 1.415 . S
C1022 H1012 0.930 1_554 S
C1022 C1020 1.419 . S
C1022 C1023 1.362 . S
C1023 H1013 0.930 . S
C1023 C1016 1.409 . S
C1023 C1022 1.362 . S
H1024 C1030 0.930 . S
H1025 C1033 0.930 . S
H1026 C1034 0.930 . S
H1027 C1035 0.930 . S
H1028 C1038 0.930 . S
H1029 C1039 0.930 . S
C1030 H1024 0.930 . S
C1030 C1031 1.355 . S
C1030 C1032 1.415 . S
C1031 C1030 1.355 . S
C1031 C1033 1.419 . S
C1032 C1030 1.415 . S
C1032 C1037 1.425 . S
C1032 C1039 1.409 . S
C1033 H1025 0.930 . S
C1033 C1031 1.419 . S
C1033 C1034 1.362 . S
C1034 H1026 0.930 . S
C1034 C1033 1.362 . S
C1034 C1037 1.409 . S
C1035 H1027 0.930 . S
C1035 C1036 1.355 . S
C1035 C1037 1.415 . S
C1036 C1035 1.355 . S
C1036 C1038 1.419 . S
C1037 C1032 1.425 . S
C1037 C1034 1.409 . S
C1037 C1035 1.415 . S
C1038 H1028 0.930 . S
C1038 C1036 1.419 . S
C1038 C1039 1.362 . S
C1039 H1029 0.930 . S
C1039 C1032 1.409 . S
C1039 C1038 1.362 . S
H1040 C1046 0.930 . S
H1041 C1049 0.930 . S
H1042 C1050 0.930 . S
H1043 C1051 0.930 . S
H1044 C1054 0.930 . S
H1045 C1055 0.930 . S
C1046 H1040 0.930 . S
C1046 C1047 1.355 . S
C1046 C1048 1.415 . S
C1047 C1046 1.355 . S
C1047 C1049 1.419 . S
C1048 C1046 1.415 . S
C1048 C1053 1.425 . S
C1048 C1055 1.409 . S
C1049 H1041 0.930 . S
C1049 C1047 1.419 . S
C1049 C1050 1.362 . S
C1050 H1042 0.930 . S
C1050 C1049 1.362 . S
C1050 C1053 1.409 . S
C1051 H1043 0.930 . S
C1051 C1052 1.355 . S
C1051 C1053 1.415 . S
C1052 C1051 1.355 . S
C1052 C1054 1.419 . S
C1053 C1048 1.425 . S
C1053 C1050 1.409 . S
C1053 C1051 1.415 . S
C1054 H1044 0.930 . S
C1054 C1052 1.419 . S
C1054 C1055 1.362 . S
C1055 H1045 0.930 . S
C1055 C1048 1.409 . S
C1055 C1054 1.362 . S
H1056 C1062 0.930 . S
H1057 C1065 0.930 . S
H1058 C1066 0.930 . S
H1059 C1067 0.930 . S
H1060 C1070 0.930 . S
H1061 C1071 0.930 . S
C1062 H1056 0.930 . S
C1062 C1063 1.355 . S
C1062 C1064 1.415 . S
C1063 C1062 1.355 . S
C1063 C1065 1.419 . S
C1064 C1062 1.415 . S
C1064 C1069 1.425 . S
C1064 C1071 1.409 . S
C1065 H1057 0.930 . S
C1065 C1063 1.419 . S
C1065 C1066 1.362 . S
C1066 H1058 0.930 . S
C1066 C1065 1.362 . S
C1066 C1069 1.409 . S
C1067 H1059 0.930 . S
C1067 C1068 1.355 . S
C1067 C1069 1.415 . S
C1068 C1067 1.355 . S
C1068 C1070 1.419 . S
C1069 C1064 1.425 . S
C1069 C1066 1.409 . S
C1069 C1067 1.415 . S
C1070 H1060 0.930 . S
C1070 C1068 1.419 . S
C1070 C1071 1.362 . S
C1071 H1061 0.930 . S
C1071 C1064 1.409 . S
C1071 C1070 1.362 . S
H1072 C1078 0.930 . S
H1073 C1081 0.930 1_556 S
H1074 C1082 0.930 . S
H1075 C1083 0.930 . S
H1076 C1086 0.930 . S
H1077 C1087 0.930 . S
C1078 H1072 0.930 . S
C1078 C1079 1.355 . S
C1078 C1080 1.415 . S
C1079 C1078 1.355 . S
C1079 C1081 1.419 . S
C1080 C1078 1.415 . S
C1080 C1085 1.425 . S
C1080 C1087 1.409 . S
C1081 H1073 0.930 1_554 S
C1081 C1079 1.419 . S
C1081 C1082 1.362 . S
C1082 H1074 0.930 . S
C1082 C1081 1.362 . S
C1082 C1085 1.409 . S
C1083 H1075 0.930 . S
C1083 C1084 1.355 . S
C1083 C1085 1.415 . S
C1084 C1083 1.355 . S
C1084 C1086 1.419 . S
C1085 C1080 1.425 . S
C1085 C1082 1.409 . S
C1085 C1083 1.415 . S
C1086 H1076 0.930 . S
C1086 C1084 1.419 . S
C1086 C1087 1.362 . S
C1087 H1077 0.930 . S
C1087 C1080 1.409 . S
C1087 C1086 1.362 . S
H1088 C1094 0.930 . S
H1089 C1097 0.930 . S
H1090 C1098 0.930 . S
H1091 C1099 0.930 . S
H1092 C1102 0.930 . S
H1093 C1103 0.930 . S
C1094 H1088 0.930 . S
C1094 C1095 1.355 . S
C1094 C1096 1.415 . S
C1095 C1094 1.355 . S
C1095 C1097 1.419 . S
C1096 C1094 1.415 . S
C1096 C1101 1.425 . S
C1096 C1103 1.409 . S
C1097 H1089 0.930 . S
C1097 C1095 1.419 . S
C1097 C1098 1.362 . S
C1098 H1090 0.930 . S
C1098 C1097 1.362 . S
C1098 C1101 1.409 . S
C1099 H1091 0.930 . S
C1099 C1100 1.355 . S
C1099 C1101 1.415 . S
C1100 C1099 1.355 . S
C1100 C1102 1.419 . S
C1101 C1096 1.425 . S
C1101 C1098 1.409 . S
C1101 C1099 1.415 . S
C1102 H1092 0.930 . S
C1102 C1100 1.419 . S
C1102 C1103 1.362 . S
C1103 H1093 0.930 . S
C1103 C1096 1.409 . S
C1103 C1102 1.362 . S
H1104 C1110 0.930 . S
H1105 C1113 0.930 . S
H1106 C1114 0.930 . S
H1107 C1115 0.930 . S
H1108 C1118 0.930 . S
H1109 C1119 0.930 . S
C1110 H1104 0.930 . S
C1110 C1111 1.355 . S
C1110 C1112 1.415 . S
C1111 C1110 1.355 . S
C1111 C1113 1.419 . S
C1112 C1110 1.415 . S
C1112 C1117 1.425 . S
C1112 C1119 1.409 . S
C1113 H1105 0.930 . S
C1113 C1111 1.419 . S
C1113 C1114 1.362 . S
C1114 H1106 0.930 . S
C1114 C1113 1.362 . S
C1114 C1117 1.409 . S
C1115 H1107 0.930 . S
C1115 C1116 1.355 . S
C1115 C1117 1.415 . S
C1116 C1115 1.355 . S
C1116 C1118 1.419 . S
C1117 C1112 1.425 . S
C1117 C1114 1.409 . S
C1117 C1115 1.415 . S
C1118 H1108 0.930 . S
C1118 C1116 1.419 . S
C1118 C1119 1.362 . S
C1119 H1109 0.930 . S
C1119 C1112 1.409 . S
C1119 C1118 1.362 . S
H1120 C1126 0.930 . S
H1121 C1129 0.930 . S
H1122 C1130 0.930 . S
H1123 C1131 0.930 . S
H1124 C1134 0.930 . S
H1125 C1135 0.930 . S
C1126 H1120 0.930 . S
C1126 C1127 1.355 . S
C1126 C1128 1.415 . S
C1127 C1126 1.355 . S
C1127 C1129 1.419 . S
C1128 C1126 1.415 . S
C1128 C1133 1.425 . S
C1128 C1135 1.409 . S
C1129 H1121 0.930 . S
C1129 C1127 1.419 . S
C1129 C1130 1.362 . S
C1130 H1122 0.930 . S
C1130 C1129 1.362 . S
C1130 C1133 1.409 . S
C1131 H1123 0.930 . S
C1131 C1132 1.355 . S
C1131 C1133 1.415 . S
C1132 C1131 1.355 . S
C1132 C1134 1.419 . S
C1133 C1128 1.425 . S
C1133 C1130 1.409 . S
C1133 C1131 1.415 . S
C1134 H1124 0.930 . S
C1134 C1132 1.419 . S
C1134 C1135 1.362 . S
C1135 H1125 0.930 . S
C1135 C1128 1.409 . S
C1135 C1134 1.362 . S
H1136 C1142 0.930 . S
H1137 C1145 0.930 . S
H1138 C1146 0.930 . S
H1139 C1147 0.930 . S
H1140 C1150 0.930 . S
H1141 C1151 0.930 . S
C1142 H1136 0.930 . S
C1142 C1143 1.355 . S
C1142 C1144 1.415 . S
C1143 C1142 1.355 . S
C1143 C1145 1.419 . S
C1144 C1142 1.415 . S
C1144 C1149 1.425 . S
C1144 C1151 1.409 . S
C1145 H1137 0.930 . S
C1145 C1143 1.419 . S
C1145 C1146 1.362 . S
C1146 H1138 0.930 . S
C1146 C1145 1.362 . S
C1146 C1149 1.409 . S
C1147 H1139 0.930 . S
C1147 C1148 1.355 . S
C1147 C1149 1.415 . S
C1148 C1147 1.355 . S
C1148 C1150 1.419 . S
C1149 C1144 1.425 . S
C1149 C1146 1.409 . S
C1149 C1147 1.415 . S
C1150 H1140 0.930 . S
C1150 C1148 1.419 . S
C1150 C1151 1.362 . S
C1151 H1141 0.930 . S
C1151 C1144 1.409 . S
C1151 C1150 1.362 . S
H1152 C1158 0.930 . S
H1153 C1161 0.930 1_554 S
H1154 C1162 0.930 . S
H1155 C1163 0.930 . S
H1156 C1166 0.930 . S
H1157 C1167 0.930 . S
C1158 H1152 0.930 . S
C1158 C1159 1.355 . S
C1158 C1160 1.415 . S
C1159 C1158 1.355 . S
C1159 C1161 1.419 . S
C1160 C1158 1.415 . S
C1160 C1165 1.425 . S
C1160 C1167 1.409 . S
C1161 H1153 0.930 1_556 S
C1161 C1159 1.419 . S
C1161 C1162 1.362 . S
C1162 H1154 0.930 . S
C1162 C1161 1.362 . S
C1162 C1165 1.409 . S
C1163 H1155 0.930 . S
C1163 C1164 1.355 . S
C1163 C1165 1.415 . S
C1164 C1163 1.355 . S
C1164 C1166 1.419 . S
C1165 C1160 1.425 . S
C1165 C1162 1.409 . S
C1165 C1163 1.415 . S
C1166 H1156 0.930 . S
C1166 C1164 1.419 . S
C1166 C1167 1.362 . S
C1167 H1157 0.930 . S
C1167 C1160 1.409 . S
C1167 C1166 1.362 . S
C535 N344 1.496 . S
C540 N14 1.551 . S
C551 N47 1.545 . S
C556 N377 1.524 . S
C567 N278 1.504 . S
C572 N80 1.538 . S
C583 N113 1.505 . S
C588 N311 1.558 . S
C599 N476 1.494 . S
C604 N146 1.556 . S
C615 N179 1.524 . S
C620 N509 1.544 . S
C631 N212 1.509 . S
C636 N410 1.532 . S
C647 N443 1.552 . S
C652 N245 1.496 . S
C663 C490 1.036 . S
C668 C8 1.015 . S
C679 C523 1.032 . S
C684 C41 1.002 . S
C695 C74 1.012 . S
C700 C424 1.039 . S
C711 C457 0.987 . S
C716 C107 1.034 . S
C727 C140 1.021 . S
C732 C358 0.985 . S
C743 C173 1.029 . S
C748 C391 1.010 . S
C759 C292 0.989 . S
C764 C206 1.019 . S
C775 C239 1.011 . S
C780 C325 1.003 . S
C791 C226 0.977 . S
C796 C272 1.030 . S
C807 C259 1.031 . S
C812 C305 1.018 . S
C823 C160 0.977 . S
C828 C338 1.033 . S
C839 C371 1.027 . S
C844 C193 0.978 . S
C855 C404 1.010 . S
C860 C94 1.006 . S
C871 C437 1.023 . S
C876 C127 0.983 . S
C887 C470 1.004 . S
C892 C28 1.024 . S
C903 C61 1.043 . S
C908 C503 1.005 . S
C919 N368 1.740 . S
C924 C17 1.717 . S
C935 C50 1.710 . S
C940 N269 1.720 . S
C951 C83 1.713 . S
C956 N302 1.741 . S
C967 C116 1.694 . S
C972 N335 1.718 . S
C983 N170 1.739 . S
C988 C149 1.722 . S
C999 C182 1.692 . S
C1004 N203 1.737 . S
C1015 N236 1.727 . S
C1020 C215 1.724 . S
C1031 C248 1.693 . S
C1036 N137 1.718 . S
C1047 N104 1.733 . S
C1052 C281 1.727 . S
C1063 C314 1.682 . S
C1068 N5 1.729 . S
C1079 C347 1.724 . S
C1084 N38 1.728 . S
C1095 N71 1.729 . S
C1100 C380 1.725 . S
C1111 N434 1.740 . S
C1116 C413 1.702 . S
C1127 N467 1.732 . S
C1132 C446 1.727 . S
C1143 C479 1.702 . S
C1148 N500 1.718 . S
C1159 N401 1.731 . S
C1164 C512 1.726 . S
