# Generated by pormake.
# Topology fcd, (5)-cn, num edge types: 1
# Building blocks:
#     Node 0, Type 0, BuildingBlock: XOMCOT_clean_sbu_0, # of connection points: 5
#     Node 1, Type 0, BuildingBlock: XOMCOT_clean_sbu_0, # of connection points: 5
#     Node 2, Type 0, BuildingBlock: XOMCOT_clean_sbu_0, # of connection points: 5
#     Node 3, Type 0, BuildingBlock: XOMCOT_clean_sbu_0, # of connection points: 5
#     Node 4, Type 0, BuildingBlock: XOMCOT_clean_sbu_0, # of connection points: 5
#     Node 5, Type 0, BuildingBlock: XOMCOT_clean_sbu_0, # of connection points: 5
#     Node 6, Type 0, BuildingBlock: XOMCOT_clean_sbu_0, # of connection points: 5
#     Node 7, Type 0, BuildingBlock: XOMCOT_clean_sbu_0, # of connection points: 5
#     Node 8, Type 0, BuildingBlock: XOMCOT_clean_sbu_0, # of connection points: 5
#     Node 9, Type 0, BuildingBlock: XOMCOT_clean_sbu_0, # of connection points: 5
#     Node 10, Type 0, BuildingBlock: XOMCOT_clean_sbu_0, # of connection points: 5
#     Node 11, Type 0, BuildingBlock: XOMCOT_clean_sbu_0, # of connection points: 5
#     Node 12, Type 0, BuildingBlock: XOMCOT_clean_sbu_0, # of connection points: 5
#     Node 13, Type 0, BuildingBlock: XOMCOT_clean_sbu_0, # of connection points: 5
#     Node 14, Type 0, BuildingBlock: XOMCOT_clean_sbu_0, # of connection points: 5
#     Node 15, Type 0, BuildingBlock: XOMCOT_clean_sbu_0, # of connection points: 5
#     Node 16, Type 0, BuildingBlock: XOMCOT_clean_sbu_0, # of connection points: 5
#     Node 17, Type 0, BuildingBlock: XOMCOT_clean_sbu_0, # of connection points: 5
#     Node 18, Type 0, BuildingBlock: XOMCOT_clean_sbu_0, # of connection points: 5
#     Node 19, Type 0, BuildingBlock: XOMCOT_clean_sbu_0, # of connection points: 5
#     Node 20, Type 0, BuildingBlock: XOMCOT_clean_sbu_0, # of connection points: 5
#     Node 21, Type 0, BuildingBlock: XOMCOT_clean_sbu_0, # of connection points: 5
#     Node 22, Type 0, BuildingBlock: XOMCOT_clean_sbu_0, # of connection points: 5
#     Node 23, Type 0, BuildingBlock: XOMCOT_clean_sbu_0, # of connection points: 5
#     Node 24, Type 0, BuildingBlock: XOMCOT_clean_sbu_0, # of connection points: 5
#     Node 25, Type 0, BuildingBlock: XOMCOT_clean_sbu_0, # of connection points: 5
#     Node 26, Type 0, BuildingBlock: XOMCOT_clean_sbu_0, # of connection points: 5
#     Node 27, Type 0, BuildingBlock: XOMCOT_clean_sbu_0, # of connection points: 5
#     Node 28, Type 0, BuildingBlock: XOMCOT_clean_sbu_0, # of connection points: 5
#     Node 29, Type 0, BuildingBlock: XOMCOT_clean_sbu_0, # of connection points: 5
#     Node 30, Type 0, BuildingBlock: XOMCOT_clean_sbu_0, # of connection points: 5
#     Node 31, Type 0, BuildingBlock: XOMCOT_clean_sbu_0, # of connection points: 5
#     Node 32, Type 0, BuildingBlock: XOMCOT_clean_sbu_0, # of connection points: 5
#     Node 33, Type 0, BuildingBlock: XOMCOT_clean_sbu_0, # of connection points: 5
#     Node 34, Type 0, BuildingBlock: XOMCOT_clean_sbu_0, # of connection points: 5
#     Node 35, Type 0, BuildingBlock: XOMCOT_clean_sbu_0, # of connection points: 5
#     Node 36, Type 0, BuildingBlock: XOMCOT_clean_sbu_0, # of connection points: 5
#     Node 37, Type 0, BuildingBlock: XOMCOT_clean_sbu_0, # of connection points: 5
#     Node 38, Type 0, BuildingBlock: XOMCOT_clean_sbu_0, # of connection points: 5
#     Node 39, Type 0, BuildingBlock: XOMCOT_clean_sbu_0, # of connection points: 5
#     Node 40, Type 0, BuildingBlock: XOMCOT_clean_sbu_0, # of connection points: 5
#     Node 41, Type 0, BuildingBlock: XOMCOT_clean_sbu_0, # of connection points: 5
#     Node 42, Type 0, BuildingBlock: XOMCOT_clean_sbu_0, # of connection points: 5
#     Node 43, Type 0, BuildingBlock: XOMCOT_clean_sbu_0, # of connection points: 5
#     Node 44, Type 0, BuildingBlock: XOMCOT_clean_sbu_0, # of connection points: 5
#     Node 45, Type 0, BuildingBlock: XOMCOT_clean_sbu_0, # of connection points: 5
#     Node 46, Type 0, BuildingBlock: XOMCOT_clean_sbu_0, # of connection points: 5
#     Node 47, Type 0, BuildingBlock: XOMCOT_clean_sbu_0, # of connection points: 5
#     Edge 48, Type (0, 0), BuildingBlock: AJUNOK_clean_linker_0, # of connection points: 2
#     Edge 49, Type (0, 0), BuildingBlock: AJUNOK_clean_linker_0, # of connection points: 2
#     Edge 50, Type (0, 0), BuildingBlock: AJUNOK_clean_linker_0, # of connection points: 2
#     Edge 51, Type (0, 0), BuildingBlock: AJUNOK_clean_linker_0, # of connection points: 2
#     Edge 52, Type (0, 0), BuildingBlock: AJUNOK_clean_linker_0, # of connection points: 2
#     Edge 53, Type (0, 0), BuildingBlock: AJUNOK_clean_linker_0, # of connection points: 2
#     Edge 54, Type (0, 0), BuildingBlock: AJUNOK_clean_linker_0, # of connection points: 2
#     Edge 55, Type (0, 0), BuildingBlock: AJUNOK_clean_linker_0, # of connection points: 2
#     Edge 56, Type (0, 0), BuildingBlock: AJUNOK_clean_linker_0, # of connection points: 2
#     Edge 57, Type (0, 0), BuildingBlock: AJUNOK_clean_linker_0, # of connection points: 2
#     Edge 58, Type (0, 0), BuildingBlock: AJUNOK_clean_linker_0, # of connection points: 2
#     Edge 59, Type (0, 0), BuildingBlock: AJUNOK_clean_linker_0, # of connection points: 2
#     Edge 60, Type (0, 0), BuildingBlock: AJUNOK_clean_linker_0, # of connection points: 2
#     Edge 61, Type (0, 0), BuildingBlock: AJUNOK_clean_linker_0, # of connection points: 2
#     Edge 62, Type (0, 0), BuildingBlock: AJUNOK_clean_linker_0, # of connection points: 2
#     Edge 63, Type (0, 0), BuildingBlock: AJUNOK_clean_linker_0, # of connection points: 2
#     Edge 64, Type (0, 0), BuildingBlock: AJUNOK_clean_linker_0, # of connection points: 2
#     Edge 65, Type (0, 0), BuildingBlock: AJUNOK_clean_linker_0, # of connection points: 2
#     Edge 66, Type (0, 0), BuildingBlock: AJUNOK_clean_linker_0, # of connection points: 2
#     Edge 67, Type (0, 0), BuildingBlock: AJUNOK_clean_linker_0, # of connection points: 2
#     Edge 68, Type (0, 0), BuildingBlock: AJUNOK_clean_linker_0, # of connection points: 2
#     Edge 69, Type (0, 0), BuildingBlock: AJUNOK_clean_linker_0, # of connection points: 2
#     Edge 70, Type (0, 0), BuildingBlock: AJUNOK_clean_linker_0, # of connection points: 2
#     Edge 71, Type (0, 0), BuildingBlock: AJUNOK_clean_linker_0, # of connection points: 2
#     Edge 72, Type (0, 0), BuildingBlock: AJUNOK_clean_linker_0, # of connection points: 2
#     Edge 73, Type (0, 0), BuildingBlock: AJUNOK_clean_linker_0, # of connection points: 2
#     Edge 74, Type (0, 0), BuildingBlock: AJUNOK_clean_linker_0, # of connection points: 2
#     Edge 75, Type (0, 0), BuildingBlock: AJUNOK_clean_linker_0, # of connection points: 2
#     Edge 76, Type (0, 0), BuildingBlock: AJUNOK_clean_linker_0, # of connection points: 2
#     Edge 77, Type (0, 0), BuildingBlock: AJUNOK_clean_linker_0, # of connection points: 2
#     Edge 78, Type (0, 0), BuildingBlock: AJUNOK_clean_linker_0, # of connection points: 2
#     Edge 79, Type (0, 0), BuildingBlock: AJUNOK_clean_linker_0, # of connection points: 2
#     Edge 80, Type (0, 0), BuildingBlock: AJUNOK_clean_linker_0, # of connection points: 2
#     Edge 81, Type (0, 0), BuildingBlock: AJUNOK_clean_linker_0, # of connection points: 2
#     Edge 82, Type (0, 0), BuildingBlock: AJUNOK_clean_linker_0, # of connection points: 2
#     Edge 83, Type (0, 0), BuildingBlock: AJUNOK_clean_linker_0, # of connection points: 2
#     Edge 84, Type (0, 0), BuildingBlock: AJUNOK_clean_linker_0, # of connection points: 2
#     Edge 85, Type (0, 0), BuildingBlock: AJUNOK_clean_linker_0, # of connection points: 2
#     Edge 86, Type (0, 0), BuildingBlock: AJUNOK_clean_linker_0, # of connection points: 2
#     Edge 87, Type (0, 0), BuildingBlock: AJUNOK_clean_linker_0, # of connection points: 2
#     Edge 88, Type (0, 0), BuildingBlock: AJUNOK_clean_linker_0, # of connection points: 2
#     Edge 89, Type (0, 0), BuildingBlock: AJUNOK_clean_linker_0, # of connection points: 2
#     Edge 90, Type (0, 0), BuildingBlock: AJUNOK_clean_linker_0, # of connection points: 2
#     Edge 91, Type (0, 0), BuildingBlock: AJUNOK_clean_linker_0, # of connection points: 2
#     Edge 92, Type (0, 0), BuildingBlock: AJUNOK_clean_linker_0, # of connection points: 2
#     Edge 93, Type (0, 0), BuildingBlock: AJUNOK_clean_linker_0, # of connection points: 2
#     Edge 94, Type (0, 0), BuildingBlock: AJUNOK_clean_linker_0, # of connection points: 2
#     Edge 95, Type (0, 0), BuildingBlock: AJUNOK_clean_linker_0, # of connection points: 2
#     Edge 96, Type (0, 0), BuildingBlock: AJUNOK_clean_linker_0, # of connection points: 2
#     Edge 97, Type (0, 0), BuildingBlock: AJUNOK_clean_linker_0, # of connection points: 2
#     Edge 98, Type (0, 0), BuildingBlock: AJUNOK_clean_linker_0, # of connection points: 2
#     Edge 99, Type (0, 0), BuildingBlock: AJUNOK_clean_linker_0, # of connection points: 2
#     Edge 100, Type (0, 0), BuildingBlock: AJUNOK_clean_linker_0, # of connection points: 2
#     Edge 101, Type (0, 0), BuildingBlock: AJUNOK_clean_linker_0, # of connection points: 2
#     Edge 102, Type (0, 0), BuildingBlock: AJUNOK_clean_linker_0, # of connection points: 2
#     Edge 103, Type (0, 0), BuildingBlock: AJUNOK_clean_linker_0, # of connection points: 2
#     Edge 104, Type (0, 0), BuildingBlock: AJUNOK_clean_linker_0, # of connection points: 2
#     Edge 105, Type (0, 0), BuildingBlock: AJUNOK_clean_linker_0, # of connection points: 2
#     Edge 106, Type (0, 0), BuildingBlock: AJUNOK_clean_linker_0, # of connection points: 2
#     Edge 107, Type (0, 0), BuildingBlock: AJUNOK_clean_linker_0, # of connection points: 2
#     Edge 108, Type (0, 0), BuildingBlock: AJUNOK_clean_linker_0, # of connection points: 2
#     Edge 109, Type (0, 0), BuildingBlock: AJUNOK_clean_linker_0, # of connection points: 2
#     Edge 110, Type (0, 0), BuildingBlock: AJUNOK_clean_linker_0, # of connection points: 2
#     Edge 111, Type (0, 0), BuildingBlock: AJUNOK_clean_linker_0, # of connection points: 2
#     Edge 112, Type (0, 0), BuildingBlock: AJUNOK_clean_linker_0, # of connection points: 2
#     Edge 113, Type (0, 0), BuildingBlock: AJUNOK_clean_linker_0, # of connection points: 2
#     Edge 114, Type (0, 0), BuildingBlock: AJUNOK_clean_linker_0, # of connection points: 2
#     Edge 115, Type (0, 0), BuildingBlock: AJUNOK_clean_linker_0, # of connection points: 2
#     Edge 116, Type (0, 0), BuildingBlock: AJUNOK_clean_linker_0, # of connection points: 2
#     Edge 117, Type (0, 0), BuildingBlock: AJUNOK_clean_linker_0, # of connection points: 2
#     Edge 118, Type (0, 0), BuildingBlock: AJUNOK_clean_linker_0, # of connection points: 2
#     Edge 119, Type (0, 0), BuildingBlock: AJUNOK_clean_linker_0, # of connection points: 2
#     Edge 120, Type (0, 0), BuildingBlock: AJUNOK_clean_linker_0, # of connection points: 2
#     Edge 121, Type (0, 0), BuildingBlock: AJUNOK_clean_linker_0, # of connection points: 2
#     Edge 122, Type (0, 0), BuildingBlock: AJUNOK_clean_linker_0, # of connection points: 2
#     Edge 123, Type (0, 0), BuildingBlock: AJUNOK_clean_linker_0, # of connection points: 2
#     Edge 124, Type (0, 0), BuildingBlock: AJUNOK_clean_linker_0, # of connection points: 2
#     Edge 125, Type (0, 0), BuildingBlock: AJUNOK_clean_linker_0, # of connection points: 2
#     Edge 126, Type (0, 0), BuildingBlock: AJUNOK_clean_linker_0, # of connection points: 2
#     Edge 127, Type (0, 0), BuildingBlock: AJUNOK_clean_linker_0, # of connection points: 2
#     Edge 128, Type (0, 0), BuildingBlock: AJUNOK_clean_linker_0, # of connection points: 2
#     Edge 129, Type (0, 0), BuildingBlock: AJUNOK_clean_linker_0, # of connection points: 2
#     Edge 130, Type (0, 0), BuildingBlock: AJUNOK_clean_linker_0, # of connection points: 2
#     Edge 131, Type (0, 0), BuildingBlock: AJUNOK_clean_linker_0, # of connection points: 2
#     Edge 132, Type (0, 0), BuildingBlock: AJUNOK_clean_linker_0, # of connection points: 2
#     Edge 133, Type (0, 0), BuildingBlock: AJUNOK_clean_linker_0, # of connection points: 2
#     Edge 134, Type (0, 0), BuildingBlock: AJUNOK_clean_linker_0, # of connection points: 2
#     Edge 135, Type (0, 0), BuildingBlock: AJUNOK_clean_linker_0, # of connection points: 2
#     Edge 136, Type (0, 0), BuildingBlock: AJUNOK_clean_linker_0, # of connection points: 2
#     Edge 137, Type (0, 0), BuildingBlock: AJUNOK_clean_linker_0, # of connection points: 2
#     Edge 138, Type (0, 0), BuildingBlock: AJUNOK_clean_linker_0, # of connection points: 2
#     Edge 139, Type (0, 0), BuildingBlock: AJUNOK_clean_linker_0, # of connection points: 2
#     Edge 140, Type (0, 0), BuildingBlock: AJUNOK_clean_linker_0, # of connection points: 2
#     Edge 141, Type (0, 0), BuildingBlock: AJUNOK_clean_linker_0, # of connection points: 2
#     Edge 142, Type (0, 0), BuildingBlock: AJUNOK_clean_linker_0, # of connection points: 2
#     Edge 143, Type (0, 0), BuildingBlock: AJUNOK_clean_linker_0, # of connection points: 2
#     Edge 144, Type (0, 0), BuildingBlock: AJUNOK_clean_linker_0, # of connection points: 2
#     Edge 145, Type (0, 0), BuildingBlock: AJUNOK_clean_linker_0, # of connection points: 2
#     Edge 146, Type (0, 0), BuildingBlock: AJUNOK_clean_linker_0, # of connection points: 2
#     Edge 147, Type (0, 0), BuildingBlock: AJUNOK_clean_linker_0, # of connection points: 2
#     Edge 148, Type (0, 0), BuildingBlock: AJUNOK_clean_linker_0, # of connection points: 2
#     Edge 149, Type (0, 0), BuildingBlock: AJUNOK_clean_linker_0, # of connection points: 2
#     Edge 150, Type (0, 0), BuildingBlock: AJUNOK_clean_linker_0, # of connection points: 2
#     Edge 151, Type (0, 0), BuildingBlock: AJUNOK_clean_linker_0, # of connection points: 2
#     Edge 152, Type (0, 0), BuildingBlock: AJUNOK_clean_linker_0, # of connection points: 2
#     Edge 153, Type (0, 0), BuildingBlock: AJUNOK_clean_linker_0, # of connection points: 2
#     Edge 154, Type (0, 0), BuildingBlock: AJUNOK_clean_linker_0, # of connection points: 2
#     Edge 155, Type (0, 0), BuildingBlock: AJUNOK_clean_linker_0, # of connection points: 2
#     Edge 156, Type (0, 0), BuildingBlock: AJUNOK_clean_linker_0, # of connection points: 2
#     Edge 157, Type (0, 0), BuildingBlock: AJUNOK_clean_linker_0, # of connection points: 2
#     Edge 158, Type (0, 0), BuildingBlock: AJUNOK_clean_linker_0, # of connection points: 2
#     Edge 159, Type (0, 0), BuildingBlock: AJUNOK_clean_linker_0, # of connection points: 2
#     Edge 160, Type (0, 0), BuildingBlock: AJUNOK_clean_linker_0, # of connection points: 2
#     Edge 161, Type (0, 0), BuildingBlock: AJUNOK_clean_linker_0, # of connection points: 2
#     Edge 162, Type (0, 0), BuildingBlock: AJUNOK_clean_linker_0, # of connection points: 2
#     Edge 163, Type (0, 0), BuildingBlock: AJUNOK_clean_linker_0, # of connection points: 2
#     Edge 164, Type (0, 0), BuildingBlock: AJUNOK_clean_linker_0, # of connection points: 2
#     Edge 165, Type (0, 0), BuildingBlock: AJUNOK_clean_linker_0, # of connection points: 2
#     Edge 166, Type (0, 0), BuildingBlock: AJUNOK_clean_linker_0, # of connection points: 2
#     Edge 167, Type (0, 0), BuildingBlock: AJUNOK_clean_linker_0, # of connection points: 2
# Relax obj value: 0.308
# Max RMSD: 0.255
# Mean RMSD: 0.255
data_MOF--net-fcd--node1-XOMCOT_clean_sbu_0--edge1-AJUNOK_clean_linker_0
_symmetry_space_group_name_H-M    P1
_symmetry_Int_Tables_number       1
_symmetry_cell_setting            triclinic
loop_
_symmetry_equiv_pos_as_xyz
'x, y, z'
_cell_length_a     53.350305
_cell_length_b     53.345866
_cell_length_c     53.361512
_cell_angle_alpha  90.035957
_cell_angle_beta   90.023447
_cell_angle_gamma 90.018493
loop_
_atom_site_label
_atom_site_type_symbol
_atom_site_fract_x
_atom_site_fract_y
_atom_site_fract_z
_atom_type_partial_charge
Co0 Co 0.11121 0.19317 0.39792 0.0
C1 C 0.06492 0.22045 0.40969 0.0
C2 C 0.08924 0.21877 0.44174 0.0
C3 C 0.06737 0.23072 0.44856 0.0
N4 N 0.08744 0.21213 0.41747 0.0
N5 N 0.05204 0.23149 0.42844 0.0
H6 H 0.05815 0.21818 0.39072 0.0
H7 H 0.10506 0.21479 0.45376 0.0
C8 C 0.12161 0.15198 0.43497 0.0
O9 O 0.11524 0.1352 0.41809 0.0
N10 N 0.13608 0.1749 0.37818 0.0
C11 C 0.13985 0.17685 0.35317 0.0
C12 C 0.16244 0.16607 0.34702 0.0
C13 C 0.15704 0.1635 0.38683 0.0
N14 N 0.17309 0.15759 0.36819 0.0
C15 C 0.07952 0.16281 0.36659 0.0
C16 C 0.0451 0.15138 0.40356 0.0
C17 C 0.03866 0.147 0.37846 0.0
C18 C 0.05688 0.15144 0.36007 0.0
C19 C 0.06835 0.16199 0.40939 0.0
N20 N 0.08486 0.16865 0.3909 0.0
H21 H 0.09177 0.16851 0.35171 0.0
H22 H 0.07212 0.16684 0.4287 0.0
H23 H 0.12799 0.18697 0.34027 0.0
H24 H 0.16165 0.16141 0.40643 0.0
O25 O 0.10487 0.21547 0.37029 0.0
O26 O 0.13403 0.22134 0.39942 0.0
O27 O 0.12193 0.17528 0.42947 0.0
C28 C 0.12245 0.2296 0.37953 0.0
H29 H 0.06282 0.23765 0.46707 0.0
H30 H 0.17092 0.16548 0.32859 0.0
H31 H 0.03171 0.14821 0.41847 0.0
H32 H 0.0532 0.14745 0.34051 0.0
Co33 Co 0.89383 0.30752 0.3945 0.0
C34 C 0.93951 0.27981 0.40791 0.0
C35 C 0.91565 0.28508 0.43992 0.0
C36 C 0.93753 0.27387 0.44778 0.0
N37 N 0.91711 0.28902 0.415 0.0
N38 N 0.95228 0.27056 0.42759 0.0
H39 H 0.94679 0.28088 0.389 0.0
H40 H 0.90012 0.29058 0.45171 0.0
C41 C 0.87965 0.34996 0.42884 0.0
O42 O 0.88291 0.36616 0.41062 0.0
N43 N 0.8695 0.32581 0.37423 0.0
C44 C 0.86985 0.33152 0.34956 0.0
C45 C 0.84715 0.342 0.34294 0.0
C46 C 0.84621 0.33216 0.38189 0.0
N47 N 0.83228 0.34231 0.36331 0.0
C48 C 0.93079 0.33085 0.36345 0.0
C49 C 0.95785 0.3527 0.40183 0.0
C50 C 0.96811 0.35226 0.37768 0.0
C51 C 0.95396 0.34178 0.35827 0.0
C52 C 0.93439 0.34177 0.40619 0.0
N53 N 0.92099 0.33099 0.3871 0.0
H54 H 0.9221 0.32016 0.34877 0.0
H55 H 0.9282 0.34012 0.42534 0.0
H56 H 0.8848 0.32758 0.33665 0.0
H57 H 0.83923 0.32859 0.40058 0.0
O58 O 0.89952 0.28417 0.36753 0.0
O59 O 0.87038 0.27983 0.39676 0.0
O60 O 0.88304 0.32657 0.42531 0.0
C61 C 0.88174 0.27064 0.37718 0.0
H62 H 0.94241 0.26879 0.4668 0.0
H63 H 0.84209 0.34881 0.32453 0.0
H64 H 0.96835 0.36038 0.41742 0.0
H65 H 0.96156 0.34035 0.33949 0.0
Co66 Co 0.10961 0.80955 0.1057 0.0
C67 C 0.06373 0.78132 0.09303 0.0
C68 C 0.09231 0.77701 0.06504 0.0
C69 C 0.0715 0.76367 0.0576 0.0
N70 N 0.08726 0.78818 0.0871 0.0
N71 N 0.05363 0.76648 0.07524 0.0
H72 H 0.05408 0.78723 0.10987 0.0
H73 H 0.1098 0.77874 0.05494 0.0
C74 C 0.12191 0.85044 0.06907 0.0
O75 O 0.12135 0.86685 0.08743 0.0
N76 N 0.13338 0.83056 0.12382 0.0
C77 C 0.13096 0.84454 0.14481 0.0
C78 C 0.1539 0.85481 0.15077 0.0
C79 C 0.15782 0.83256 0.11753 0.0
N80 N 0.17082 0.8471 0.13371 0.0
C81 C 0.07197 0.83191 0.13638 0.0
C82 C 0.04296 0.85071 0.09787 0.0
C83 C 0.03316 0.85073 0.12229 0.0
C84 C 0.04845 0.84189 0.14171 0.0
C85 C 0.06706 0.84123 0.09342 0.0
N86 N 0.08132 0.8318 0.11257 0.0
H87 H 0.08184 0.82261 0.15135 0.0
H88 H 0.07305 0.83928 0.07421 0.0
H89 H 0.11413 0.84742 0.15546 0.0
H90 H 0.16573 0.82384 0.10102 0.0
O91 O 0.1061 0.78773 0.13421 0.0
O92 O 0.1346 0.78306 0.10445 0.0
O93 O 0.11807 0.82723 0.07346 0.0
C94 C 0.12418 0.77446 0.1248 0.0
H95 H 0.06937 0.75344 0.0402 0.0
H96 H 0.15788 0.86681 0.16665 0.0
H97 H 0.03157 0.85634 0.08206 0.0
H98 H 0.0418 0.84143 0.16088 0.0
Co99 Co 0.89426 0.69338 0.10318 0.0
C100 C 0.9412 0.71928 0.09038 0.0
C101 C 0.91389 0.72284 0.06098 0.0
C102 C 0.93549 0.73504 0.05367 0.0
N103 N 0.91768 0.71285 0.08387 0.0
N104 N 0.95239 0.73263 0.07223 0.0
H105 H 0.95008 0.71414 0.10788 0.0
H106 H 0.89669 0.72126 0.05037 0.0
C107 C 0.88177 0.65064 0.06831 0.0
O108 O 0.88208 0.63493 0.08726 0.0
N109 N 0.86983 0.67427 0.12243 0.0
C110 C 0.87034 0.66796 0.14693 0.0
C111 C 0.84756 0.65782 0.15351 0.0
C112 C 0.84634 0.66851 0.11478 0.0
N113 N 0.83251 0.65803 0.13325 0.0
C114 C 0.9312 0.67167 0.13566 0.0
C115 C 0.95876 0.64813 0.0987 0.0
C116 C 0.96832 0.64885 0.12313 0.0
C117 C 0.95405 0.66051 0.14177 0.0
C118 C 0.93557 0.65924 0.09342 0.0
N119 N 0.92182 0.6707 0.11185 0.0
H120 H 0.92235 0.68303 0.14976 0.0
H121 H 0.92994 0.66041 0.07406 0.0
H122 H 0.88531 0.67171 0.15987 0.0
H123 H 0.83934 0.67243 0.09615 0.0
O124 O 0.89775 0.7171 0.13033 0.0
O125 O 0.86987 0.72011 0.09962 0.0
O126 O 0.8858 0.67398 0.07185 0.0
C127 C 0.87981 0.72969 0.11974 0.0
H128 H 0.93868 0.74464 0.03609 0.0
H129 H 0.8421 0.65209 0.17218 0.0
H130 H 0.96958 0.63994 0.0836 0.0
H131 H 0.96129 0.66253 0.16064 0.0
Co132 Co 0.39587 0.10809 0.19365 0.0
C133 C 0.40612 0.06166 0.22209 0.0
C134 C 0.43279 0.09077 0.23015 0.0
C135 C 0.43954 0.06969 0.24338 0.0
N136 N 0.41216 0.08551 0.21654 0.0
N137 N 0.42267 0.05168 0.23823 0.0
H138 H 0.3905 0.05156 0.21399 0.0
H139 H 0.44236 0.10863 0.23024 0.0
C140 C 0.43712 0.1191 0.15685 0.0
O141 O 0.42099 0.11721 0.13835 0.0
N142 N 0.38011 0.13205 0.17093 0.0
C143 C 0.36708 0.12827 0.14953 0.0
C144 C 0.36205 0.15108 0.13858 0.0
C145 C 0.38287 0.15722 0.17241 0.0
N146 N 0.37188 0.16933 0.15304 0.0
C147 C 0.3667 0.0714 0.1681 0.0
C148 C 0.40599 0.04152 0.15246 0.0
C149 C 0.3814 0.03243 0.15018 0.0
C150 C 0.36165 0.04801 0.15761 0.0
C151 C 0.41026 0.06523 0.163 0.0
N152 N 0.3907 0.07995 0.17072 0.0
H153 H 0.35116 0.08237 0.17502 0.0
H154 H 0.42937 0.0707 0.16674 0.0
H155 H 0.36278 0.11045 0.14111 0.0
H156 H 0.39348 0.16648 0.187 0.0
O157 O 0.3654 0.10455 0.21255 0.0
O158 O 0.39482 0.13262 0.22068 0.0
O159 O 0.4298 0.11641 0.17945 0.0
C160 C 0.37395 0.12183 0.22739 0.0
H161 H 0.45574 0.06753 0.2554 0.0
H162 H 0.3533 0.15378 0.12049 0.0
H163 H 0.42183 0.03008 0.14699 0.0
H164 H 0.34239 0.04164 0.15657 0.0
Co165 Co 0.60814 0.39391 0.19246 0.0
C166 C 0.59644 0.43969 0.2212 0.0
C167 C 0.56767 0.41178 0.22487 0.0
C168 C 0.56033 0.43289 0.23774 0.0
N169 N 0.59009 0.41628 0.21425 0.0
N170 N 0.57833 0.45048 0.23518 0.0
H171 H 0.61393 0.44855 0.21607 0.0
H172 H 0.55726 0.39448 0.22306 0.0
C173 C 0.57033 0.38243 0.15204 0.0
O174 O 0.58824 0.38292 0.13515 0.0
N175 N 0.62591 0.3703 0.17095 0.0
C176 C 0.64829 0.37241 0.15929 0.0
C177 C 0.65446 0.34976 0.14864 0.0
C178 C 0.6191 0.34614 0.16742 0.0
N179 N 0.63605 0.33325 0.15367 0.0
C180 C 0.63888 0.43168 0.17001 0.0
C181 C 0.60043 0.46047 0.15087 0.0
C182 C 0.62497 0.46999 0.15 0.0
C183 C 0.64434 0.45477 0.15912 0.0
C184 C 0.59589 0.43665 0.16099 0.0
N185 N 0.61504 0.42238 0.17041 0.0
H186 H 0.65378 0.42225 0.17983 0.0
H187 H 0.57665 0.43091 0.16336 0.0
H188 H 0.66024 0.38859 0.15902 0.0
H189 H 0.60214 0.33807 0.17511 0.0
O190 O 0.63703 0.39661 0.21406 0.0
O191 O 0.60671 0.36866 0.21857 0.0
O192 O 0.57546 0.386 0.17515 0.0
C193 C 0.62743 0.37842 0.22708 0.0
H194 H 0.54281 0.43534 0.24767 0.0
H195 H 0.67177 0.34552 0.13897 0.0
H196 H 0.58458 0.47187 0.14538 0.0
H197 H 0.6636 0.46116 0.15914 0.0
Co198 Co 0.39822 0.8902 0.30696 0.0
C199 C 0.40965 0.93666 0.28026 0.0
C200 C 0.44179 0.91248 0.28144 0.0
C201 C 0.44848 0.93451 0.26974 0.0
N202 N 0.41758 0.91415 0.28827 0.0
N203 N 0.42819 0.94962 0.26905 0.0
H204 H 0.39082 0.94362 0.2832 0.0
H205 H 0.45388 0.89668 0.28524 0.0
C206 C 0.43366 0.87955 0.34952 0.0
O207 O 0.41525 0.88295 0.36551 0.0
N208 N 0.37862 0.86507 0.32492 0.0
C209 C 0.35355 0.86144 0.32319 0.0
C210 C 0.34745 0.83859 0.33344 0.0
C211 C 0.38734 0.84376 0.33555 0.0
N212 N 0.3687 0.82769 0.34133 0.0
C213 C 0.36554 0.92249 0.33546 0.0
C214 C 0.40249 0.95621 0.34906 0.0
C215 C 0.37732 0.96313 0.35215 0.0
C216 C 0.35885 0.94522 0.3466 0.0
C217 C 0.40844 0.93285 0.33873 0.0
N218 N 0.39004 0.91667 0.33101 0.0
H219 H 0.35078 0.91054 0.32884 0.0
H220 H 0.42789 0.92885 0.33477 0.0
H221 H 0.34058 0.87345 0.31335 0.0
H222 H 0.40697 0.83902 0.3372 0.0
O223 O 0.37098 0.89517 0.2837 0.0
O224 O 0.40129 0.86715 0.27914 0.0
O225 O 0.42961 0.88095 0.32595 0.0
C226 C 0.38129 0.87783 0.27 0.0
H227 H 0.46708 0.93936 0.26331 0.0
H228 H 0.32901 0.83012 0.33404 0.0
H229 H 0.41749 0.9693 0.35304 0.0
H230 H 0.33918 0.94917 0.34962 0.0
Co231 Co 0.60545 0.60845 0.312 0.0
C232 C 0.59317 0.56337 0.28309 0.0
C233 C 0.56037 0.58583 0.2896 0.0
C234 C 0.55312 0.56394 0.27795 0.0
N235 N 0.58542 0.58523 0.29301 0.0
N236 N 0.57382 0.55012 0.27388 0.0
H237 H 0.61234 0.55674 0.28368 0.0
H238 H 0.5481 0.6007 0.29586 0.0
C239 C 0.57132 0.62163 0.35484 0.0
O240 O 0.5892 0.61677 0.37104 0.0
N241 N 0.62499 0.63272 0.33094 0.0
C242 C 0.64746 0.63091 0.34248 0.0
C243 C 0.65389 0.65409 0.35196 0.0
C244 C 0.61831 0.65698 0.3335 0.0
N245 N 0.63563 0.6705 0.34609 0.0
C246 C 0.63738 0.57106 0.333 0.0
C247 C 0.60016 0.54316 0.35569 0.0
C248 C 0.62433 0.53302 0.3539 0.0
C249 C 0.64315 0.54759 0.34294 0.0
C250 C 0.59517 0.56691 0.34562 0.0
N251 N 0.61372 0.58076 0.33453 0.0
H252 H 0.65167 0.58043 0.32226 0.0
H253 H 0.57593 0.57307 0.34499 0.0
H254 H 0.65887 0.61438 0.34396 0.0
H255 H 0.60085 0.66444 0.32642 0.0
O256 O 0.63246 0.60421 0.28838 0.0
O257 O 0.60244 0.63255 0.28492 0.0
O258 O 0.57478 0.61858 0.33139 0.0
C259 C 0.62234 0.62212 0.27538 0.0
H260 H 0.53419 0.55835 0.27323 0.0
H261 H 0.67092 0.65862 0.36203 0.0
H262 H 0.58499 0.53243 0.36385 0.0
H263 H 0.66191 0.54021 0.34049 0.0
Co264 Co 0.1939 0.39447 0.10866 0.0
C265 C 0.21964 0.40762 0.06157 0.0
C266 C 0.22593 0.43506 0.09037 0.0
C267 C 0.23824 0.44265 0.06901 0.0
N268 N 0.2142 0.41322 0.08555 0.0
N269 N 0.23417 0.42535 0.05103 0.0
H270 H 0.21311 0.39097 0.05197 0.0
H271 H 0.22534 0.44485 0.10811 0.0
C272 C 0.15338 0.43161 0.12221 0.0
O273 O 0.13658 0.41361 0.12179 0.0
N274 N 0.17397 0.37594 0.13295 0.0
C275 C 0.16623 0.35185 0.13225 0.0
C276 C 0.15552 0.34577 0.15491 0.0
C277 C 0.16854 0.3838 0.15642 0.0
N278 N 0.15685 0.36593 0.17006 0.0
C279 C 0.17039 0.36356 0.0716 0.0
C280 C 0.14751 0.40158 0.045 0.0
C281 C 0.14718 0.37723 0.03512 0.0
C282 C 0.15861 0.35809 0.04892 0.0
C283 C 0.15943 0.40626 0.06795 0.0
N284 N 0.17052 0.3873 0.08125 0.0
H285 H 0.18127 0.34892 0.08015 0.0
H286 H 0.16138 0.42551 0.0738 0.0
H287 H 0.16921 0.33882 0.11716 0.0
H288 H 0.17342 0.40218 0.1635 0.0
O289 O 0.21596 0.36607 0.10458 0.0
O290 O 0.22114 0.39603 0.13276 0.0
O291 O 0.17641 0.42678 0.11777 0.0
C292 C 0.22954 0.37554 0.12243 0.0
H293 H 0.24882 0.45981 0.06667 0.0
H294 H 0.14851 0.32749 0.1602 0.0
H295 H 0.13951 0.41706 0.03459 0.0
H296 H 0.15996 0.33925 0.04145 0.0
Co297 Co 0.19312 0.60569 0.39258 0.0
C298 C 0.22025 0.59525 0.43924 0.0
C299 C 0.22121 0.56372 0.41427 0.0
C300 C 0.23293 0.55717 0.43627 0.0
N301 N 0.21286 0.58738 0.41647 0.0
N302 N 0.23217 0.57697 0.45207 0.0
H303 H 0.21711 0.61409 0.44593 0.0
H304 H 0.21881 0.55205 0.39789 0.0
C305 C 0.15205 0.56943 0.37866 0.0
O306 O 0.13593 0.58802 0.3778 0.0
N307 N 0.17366 0.62386 0.36765 0.0
C308 C 0.16175 0.64614 0.36923 0.0
C309 C 0.15216 0.65218 0.34605 0.0
C310 C 0.17135 0.61694 0.3434 0.0
N311 N 0.15834 0.63389 0.32977 0.0
C312 C 0.1706 0.6375 0.42936 0.0
C313 C 0.14664 0.60023 0.4561 0.0
C314 C 0.14718 0.62457 0.46596 0.0
C315 C 0.15919 0.64333 0.45213 0.0
C316 C 0.15824 0.59517 0.43309 0.0
N317 N 0.16982 0.61378 0.41971 0.0
H318 H 0.18162 0.65188 0.42043 0.0
H319 H 0.15951 0.57587 0.42726 0.0
H320 H 0.16021 0.65774 0.38564 0.0
H321 H 0.17881 0.59957 0.33606 0.0
O322 O 0.21562 0.63378 0.39612 0.0
O323 O 0.22051 0.60295 0.36887 0.0
O324 O 0.17503 0.5736 0.38398 0.0
C325 C 0.22932 0.62342 0.37888 0.0
H326 H 0.24092 0.539 0.44042 0.0
H327 H 0.14182 0.66901 0.34142 0.0
H328 H 0.13816 0.58502 0.46653 0.0
H329 H 0.16114 0.66213 0.45956 0.0
Co330 Co 0.81163 0.89455 0.39333 0.0
C331 C 0.78278 0.90796 0.43833 0.0
C332 C 0.78694 0.93931 0.41338 0.0
C333 C 0.77468 0.94736 0.43458 0.0
N334 N 0.79225 0.91475 0.41598 0.0
N335 N 0.77207 0.92758 0.45001 0.0
H336 H 0.78456 0.88939 0.44629 0.0
H337 H 0.79204 0.9507 0.39742 0.0
C338 C 0.85442 0.92833 0.3789 0.0
O339 O 0.8699 0.90923 0.37957 0.0
N340 N 0.83099 0.87484 0.3694 0.0
C341 C 0.84953 0.85793 0.37286 0.0
C342 C 0.85981 0.85191 0.34995 0.0
C343 C 0.83039 0.87868 0.34439 0.0
N344 N 0.84771 0.86496 0.33202 0.0
C345 C 0.83299 0.86265 0.4304 0.0
C346 C 0.8534 0.90032 0.45954 0.0
C347 C 0.85178 0.87603 0.46949 0.0
C348 C 0.84252 0.85689 0.45403 0.0
C349 C 0.84431 0.90518 0.43538 0.0
N350 N 0.83385 0.88651 0.42121 0.0
H351 H 0.82391 0.84796 0.41981 0.0
H352 H 0.84362 0.92442 0.42915 0.0
H353 H 0.85679 0.85157 0.39055 0.0
H354 H 0.81817 0.8922 0.33553 0.0
O355 O 0.788 0.86743 0.39744 0.0
O356 O 0.78461 0.89749 0.36916 0.0
O357 O 0.83124 0.9254 0.38401 0.0
C358 C 0.77491 0.87769 0.37967 0.0
H359 H 0.76835 0.96623 0.43853 0.0
H360 H 0.87616 0.84028 0.3471 0.0
H361 H 0.86018 0.91575 0.47086 0.0
H362 H 0.84163 0.83768 0.46049 0.0
Co363 Co 0.30979 0.60792 0.61001 0.0
C364 C 0.28197 0.5959 0.56409 0.0
C365 C 0.28183 0.565 0.58992 0.0
C366 C 0.26988 0.55758 0.56826 0.0
N367 N 0.28973 0.58882 0.58699 0.0
N368 N 0.26999 0.57711 0.55231 0.0
H369 H 0.28566 0.61408 0.55589 0.0
H370 H 0.28481 0.55376 0.6065 0.0
C371 C 0.35079 0.57187 0.62492 0.0
O372 O 0.36698 0.59039 0.62563 0.0
N373 N 0.32978 0.62678 0.63409 0.0
C374 C 0.34852 0.64345 0.63057 0.0
C375 C 0.35906 0.64922 0.65342 0.0
C376 C 0.32924 0.62289 0.65909 0.0
N377 N 0.34688 0.63632 0.67141 0.0
C378 C 0.33245 0.63851 0.57257 0.0
C379 C 0.35417 0.60005 0.54553 0.0
C380 C 0.35337 0.62413 0.53504 0.0
C381 C 0.34292 0.64359 0.54919 0.0
C382 C 0.34354 0.59576 0.56913 0.0
N383 N 0.33278 0.61489 0.58243 0.0
H384 H 0.32306 0.65354 0.58236 0.0
H385 H 0.34227 0.57666 0.57559 0.0
H386 H 0.35555 0.64995 0.61284 0.0
H387 H 0.31676 0.6096 0.66796 0.0
O388 O 0.28748 0.63604 0.60544 0.0
O389 O 0.2823 0.60643 0.63394 0.0
O390 O 0.32782 0.57599 0.61951 0.0
C391 C 0.27368 0.62653 0.62305 0.0
H392 H 0.26177 0.53937 0.56445 0.0
H393 H 0.37558 0.66064 0.65618 0.0
H394 H 0.36207 0.58447 0.5352 0.0
H395 H 0.34159 0.6624 0.54166 0.0
Co396 Co 0.89147 0.81035 0.60885 0.0
C397 C 0.93749 0.78291 0.59617 0.0
C398 C 0.91171 0.78324 0.56523 0.0
C399 C 0.93327 0.77106 0.55788 0.0
N400 N 0.9146 0.79085 0.58912 0.0
N401 N 0.9495 0.77117 0.57729 0.0
H402 H 0.9452 0.78599 0.61467 0.0
H403 H 0.89531 0.7867 0.55383 0.0
C404 C 0.88055 0.85174 0.57193 0.0
O405 O 0.88791 0.86867 0.58822 0.0
N406 N 0.86713 0.82925 0.6286 0.0
C407 C 0.86497 0.83038 0.6538 0.0
C408 C 0.84276 0.84188 0.65997 0.0
C409 C 0.8453 0.83886 0.62001 0.0
N410 N 0.83013 0.84692 0.63868 0.0
C411 C 0.92529 0.83893 0.63985 0.0
C412 C 0.95821 0.85116 0.60186 0.0
C413 C 0.96581 0.85461 0.6268 0.0
C414 C 0.94827 0.84988 0.64575 0.0
C415 C 0.93449 0.84115 0.59668 0.0
N416 N 0.91862 0.83418 0.61563 0.0
H417 H 0.91403 0.83246 0.65509 0.0
H418 H 0.92991 0.83683 0.57743 0.0
H419 H 0.87748 0.82176 0.66714 0.0
H420 H 0.83976 0.8383 0.60057 0.0
O421 O 0.89699 0.78764 0.63648 0.0
O422 O 0.86794 0.78297 0.60714 0.0
O423 O 0.88079 0.82845 0.57743 0.0
C424 C 0.87909 0.77404 0.62693 0.0
H425 H 0.93702 0.76337 0.53948 0.0
H426 H 0.83635 0.84554 0.67883 0.0
H427 H 0.97105 0.85448 0.5865 0.0
H428 H 0.95279 0.85315 0.66526 0.0
Co429 Co 0.1075 0.69262 0.60531 0.0
C430 C 0.06076 0.71974 0.59387 0.0
C431 C 0.08756 0.72283 0.56398 0.0
C432 C 0.06592 0.73494 0.55682 0.0
N433 N 0.08408 0.71302 0.58699 0.0
N434 N 0.04932 0.73284 0.57566 0.0
H435 H 0.05217 0.71483 0.61157 0.0
H436 H 0.10463 0.72123 0.55319 0.0
C437 C 0.12085 0.65213 0.56822 0.0
O438 O 0.12098 0.63551 0.58635 0.0
N439 N 0.13208 0.67226 0.62329 0.0
C440 C 0.12877 0.6527 0.63902 0.0
C441 C 0.15179 0.64271 0.64504 0.0
C442 C 0.1572 0.67369 0.62006 0.0
N443 N 0.16975 0.65599 0.63323 0.0
C444 C 0.07104 0.66948 0.63673 0.0
C445 C 0.04255 0.64829 0.599 0.0
C446 C 0.03319 0.64818 0.62355 0.0
C447 C 0.04795 0.6587 0.64255 0.0
C448 C 0.06592 0.65921 0.59395 0.0
N449 N 0.07999 0.6696 0.61274 0.0
H450 H 0.0814 0.67862 0.65153 0.0
H451 H 0.07162 0.66097 0.57464 0.0
H452 H 0.11111 0.64481 0.64472 0.0
H453 H 0.1661 0.687 0.60764 0.0
O454 O 0.10372 0.71461 0.6338 0.0
O455 O 0.1315 0.72001 0.60353 0.0
O456 O 0.11616 0.67513 0.57294 0.0
C457 C 0.1212 0.72841 0.62402 0.0
H458 H 0.0626 0.74461 0.53929 0.0
H459 H 0.15477 0.62591 0.65597 0.0
H460 H 0.03152 0.6408 0.58368 0.0
H461 H 0.04116 0.65982 0.66164 0.0
Co462 Co 0.89147 0.19173 0.89731 0.0
C463 C 0.93696 0.22051 0.90845 0.0
C464 C 0.91032 0.22336 0.93849 0.0
C465 C 0.93129 0.23719 0.94472 0.0
N466 N 0.91413 0.21282 0.91587 0.0
N467 N 0.94791 0.2352 0.92578 0.0
H468 H 0.94556 0.21518 0.89085 0.0
H469 H 0.89362 0.22094 0.94972 0.0
C470 C 0.88293 0.15036 0.93447 0.0
O471 O 0.8891 0.13382 0.9173 0.0
N472 N 0.86766 0.17121 0.8786 0.0
C473 C 0.86513 0.16949 0.85344 0.0
C474 C 0.84274 0.15796 0.84784 0.0
C475 C 0.84605 0.1616 0.88776 0.0
N476 N 0.83076 0.15301 0.86946 0.0
C477 C 0.92664 0.16546 0.86603 0.0
C478 C 0.95957 0.15317 0.90408 0.0
C479 C 0.96749 0.1507 0.87917 0.0
C480 C 0.95015 0.15571 0.8601 0.0
C481 C 0.93556 0.1624 0.90926 0.0
N482 N 0.91956 0.16915 0.89032 0.0
H483 H 0.9152 0.172 0.85089 0.0
H484 H 0.93083 0.16636 0.92854 0.0
H485 H 0.8771 0.17833 0.83978 0.0
H486 H 0.84077 0.16244 0.9073 0.0
O487 O 0.89511 0.21405 0.8691 0.0
O488 O 0.86668 0.21804 0.89908 0.0
O489 O 0.88269 0.17374 0.92936 0.0
C490 C 0.87696 0.22709 0.87888 0.0
H491 H 0.93442 0.24722 0.96208 0.0
H492 H 0.83489 0.15559 0.82929 0.0
H493 H 0.97237 0.14966 0.91945 0.0
H494 H 0.95519 0.1535 0.84056 0.0
Co495 Co 0.10656 0.31158 0.89471 0.0
C496 C 0.0594 0.285 0.90628 0.0
C497 C 0.0878 0.27827 0.93406 0.0
C498 C 0.06647 0.2654 0.94088 0.0
N499 N 0.08322 0.2906 0.91249 0.0
N500 N 0.04885 0.26985 0.92341 0.0
H501 H 0.04987 0.29198 0.88979 0.0
H502 H 0.10538 0.27874 0.94415 0.0
C503 C 0.11919 0.35167 0.93264 0.0
O504 O 0.11936 0.36868 0.91489 0.0
N505 N 0.13093 0.33256 0.87711 0.0
C506 C 0.12739 0.35359 0.86342 0.0
C507 C 0.15027 0.36344 0.85691 0.0
C508 C 0.15611 0.33015 0.87862 0.0
N509 N 0.1684 0.34865 0.86637 0.0
C510 C 0.07139 0.33509 0.86242 0.0
C511 C 0.04184 0.35656 0.89919 0.0
C512 C 0.03418 0.35776 0.87413 0.0
C513 C 0.04932 0.34719 0.85563 0.0
C514 C 0.06449 0.34467 0.9052 0.0
N515 N 0.07909 0.33428 0.88683 0.0
H516 H 0.08235 0.32617 0.84794 0.0
H517 H 0.06935 0.34243 0.9247 0.0
H518 H 0.10977 0.36276 0.8599 0.0
H519 H 0.16533 0.31563 0.88934 0.0
O520 O 0.10369 0.28986 0.86595 0.0
O521 O 0.13082 0.28451 0.89678 0.0
O522 O 0.11447 0.32878 0.92745 0.0
C523 C 0.12117 0.27621 0.87594 0.0
H524 H 0.0639 0.25406 0.95749 0.0
H525 H 0.15317 0.38124 0.84764 0.0
H526 H 0.03015 0.36412 0.91396 0.0
H527 H 0.04368 0.34754 0.83612 0.0
Co528 Co 0.60421 0.89562 0.80809 0.0
C529 C 0.59291 0.94142 0.77974 0.0
C530 C 0.56196 0.9156 0.77892 0.0
C531 C 0.55502 0.93711 0.76642 0.0
N532 N 0.58557 0.91855 0.78744 0.0
N533 N 0.57458 0.95304 0.76698 0.0
H534 H 0.61083 0.9498 0.78431 0.0
H535 H 0.55038 0.89928 0.78217 0.0
C536 C 0.56605 0.88423 0.84795 0.0
O537 O 0.58232 0.89049 0.86535 0.0
N538 N 0.62273 0.87139 0.82827 0.0
C539 C 0.64779 0.86944 0.83152 0.0
C540 C 0.65325 0.84649 0.84204 0.0
C541 C 0.61359 0.84906 0.83605 0.0
N542 N 0.63173 0.8336 0.84461 0.0
C543 C 0.63383 0.93097 0.83587 0.0
C544 C 0.59439 0.96137 0.85022 0.0
C545 C 0.61895 0.96974 0.85419 0.0
C546 C 0.63878 0.954 0.84729 0.0
C547 C 0.59024 0.93799 0.83902 0.0
N548 N 0.60985 0.92303 0.83182 0.0
H549 H 0.64941 0.92071 0.82841 0.0
H550 H 0.57121 0.93286 0.8344 0.0
H551 H 0.66163 0.88246 0.82464 0.0
H552 H 0.59416 0.84369 0.83427 0.0
O553 O 0.63307 0.90078 0.78692 0.0
O554 O 0.60391 0.87184 0.78073 0.0
O555 O 0.57192 0.8853 0.82478 0.0
C556 C 0.62429 0.88283 0.77293 0.0
H557 H 0.5369 0.94109 0.7582 0.0
H558 H 0.67179 0.8391 0.84573 0.0
H559 H 0.57855 0.97319 0.85485 0.0
H560 H 0.65804 0.96015 0.84913 0.0
Co561 Co 0.39688 0.60876 0.81019 0.0
C562 C 0.40949 0.56247 0.78322 0.0
C563 C 0.43985 0.58891 0.78214 0.0
C564 C 0.44698 0.56764 0.76933 0.0
N565 N 0.41643 0.58548 0.79088 0.0
N566 N 0.42782 0.55114 0.77007 0.0
H567 H 0.39142 0.55416 0.78722 0.0
H568 H 0.451 0.6056 0.78507 0.0
C569 C 0.43152 0.62307 0.85239 0.0
O570 O 0.41258 0.62187 0.86807 0.0
N571 N 0.37743 0.6331 0.82914 0.0
C572 C 0.35333 0.63216 0.83682 0.0
C573 C 0.34685 0.65495 0.84703 0.0
C574 C 0.38489 0.65679 0.83414 0.0
N575 N 0.36678 0.67037 0.84547 0.0
C576 C 0.36519 0.57182 0.83241 0.0
C577 C 0.40243 0.54481 0.85609 0.0
C578 C 0.37805 0.53506 0.85545 0.0
C579 C 0.3593 0.54906 0.8437 0.0
C580 C 0.40751 0.56799 0.84479 0.0
N581 N 0.38892 0.58143 0.83325 0.0
H582 H 0.35095 0.58043 0.82106 0.0
H583 H 0.42679 0.57396 0.84364 0.0
H584 H 0.34058 0.61677 0.8343 0.0
H585 H 0.40323 0.66402 0.82933 0.0
O586 O 0.36951 0.6042 0.7871 0.0
O587 O 0.39933 0.63276 0.7829 0.0
O588 O 0.42826 0.61828 0.82914 0.0
C589 C 0.37933 0.62204 0.77381 0.0
H590 H 0.46507 0.56431 0.76078 0.0
H591 H 0.3285 0.66008 0.85398 0.0
H592 H 0.4176 0.53417 0.86438 0.0
H593 H 0.34049 0.54165 0.84167 0.0
Co594 Co 0.60682 0.11194 0.69379 0.0
C595 C 0.59406 0.06584 0.72103 0.0
C596 C 0.56441 0.09298 0.72326 0.0
C597 C 0.55706 0.0717 0.73592 0.0
N598 N 0.5875 0.0891 0.71386 0.0
N599 N 0.57577 0.05475 0.73441 0.0
H600 H 0.61173 0.05709 0.71628 0.0
H601 H 0.55354 0.1099 0.72071 0.0
C602 C 0.57148 0.12508 0.65226 0.0
O603 O 0.58926 0.12015 0.63599 0.0
N604 N 0.62581 0.13606 0.67405 0.0
C605 C 0.64884 0.13468 0.66363 0.0
C606 C 0.65508 0.1578 0.65393 0.0
C607 C 0.6187 0.16015 0.67082 0.0
N608 N 0.63619 0.17386 0.65868 0.0
C609 C 0.63708 0.0745 0.67016 0.0
C610 C 0.59818 0.04707 0.64971 0.0
C611 C 0.62252 0.03732 0.64871 0.0
C612 C 0.64211 0.05149 0.65884 0.0
C613 C 0.594 0.07051 0.66084 0.0
N614 N 0.61341 0.08423 0.67065 0.0
H615 H 0.65205 0.08332 0.68043 0.0
H616 H 0.57486 0.07655 0.6633 0.0
H617 H 0.66099 0.11862 0.6635 0.0
H618 H 0.60097 0.16742 0.67739 0.0
O619 O 0.63497 0.10711 0.71599 0.0
O620 O 0.60561 0.13592 0.72114 0.0
O621 O 0.57523 0.12235 0.67575 0.0
C622 C 0.62577 0.12504 0.72963 0.0
H623 H 0.53906 0.06861 0.74474 0.0
H624 H 0.67253 0.16262 0.64478 0.0
H625 H 0.58243 0.0363 0.64276 0.0
H626 H 0.66101 0.04408 0.65949 0.0
Co627 Co 0.39593 0.39405 0.6923 0.0
C628 C 0.40798 0.43919 0.72157 0.0
C629 C 0.43909 0.4136 0.72029 0.0
C630 C 0.44648 0.43485 0.73298 0.0
N631 N 0.41508 0.41656 0.71296 0.0
N632 N 0.42683 0.45064 0.73376 0.0
H633 H 0.38983 0.44755 0.71806 0.0
H634 H 0.45062 0.39747 0.71607 0.0
C635 C 0.43244 0.38183 0.65114 0.0
O636 O 0.41541 0.38758 0.63432 0.0
N637 N 0.37734 0.37024 0.67178 0.0
C638 C 0.35476 0.37156 0.66038 0.0
C639 C 0.34983 0.34892 0.64882 0.0
C640 C 0.38539 0.34666 0.66739 0.0
N641 N 0.36927 0.33338 0.65307 0.0
C642 C 0.36558 0.43148 0.6691 0.0
C643 C 0.40422 0.46005 0.64988 0.0
C644 C 0.37972 0.46945 0.64884 0.0
C645 C 0.36028 0.45469 0.65838 0.0
C646 C 0.40869 0.4364 0.66046 0.0
N647 N 0.38941 0.42214 0.66968 0.0
H648 H 0.35062 0.42212 0.67886 0.0
H649 H 0.42789 0.43052 0.66294 0.0
H650 H 0.34222 0.38732 0.66044 0.0
H651 H 0.40258 0.33924 0.67514 0.0
O652 O 0.36765 0.39858 0.71428 0.0
O653 O 0.39684 0.36952 0.71919 0.0
O654 O 0.42774 0.38396 0.67452 0.0
C655 C 0.37676 0.38048 0.72774 0.0
H656 H 0.46494 0.43876 0.74045 0.0
H657 H 0.33329 0.34432 0.63801 0.0
H658 H 0.41987 0.47124 0.64339 0.0
H659 H 0.34125 0.46174 0.65907 0.0
Co660 Co 0.80692 0.60377 0.89453 0.0
C661 C 0.78027 0.59462 0.94184 0.0
C662 C 0.77545 0.56429 0.9159 0.0
C663 C 0.76391 0.55805 0.93801 0.0
N664 N 0.78611 0.58693 0.91858 0.0
N665 N 0.76705 0.57709 0.95445 0.0
H666 H 0.78544 0.61284 0.94896 0.0
H667 H 0.77602 0.55312 0.89908 0.0
C668 C 0.84446 0.56393 0.88032 0.0
O669 O 0.8625 0.58068 0.88093 0.0
N670 N 0.82766 0.62017 0.86941 0.0
C671 C 0.84585 0.63765 0.87171 0.0
C672 C 0.85647 0.64178 0.84857 0.0
C673 C 0.82752 0.61411 0.84483 0.0
N674 N 0.84509 0.62682 0.8317 0.0
C675 C 0.83237 0.63395 0.93044 0.0
C676 C 0.85341 0.5955 0.95794 0.0
C677 C 0.85494 0.62007 0.96721 0.0
C678 C 0.84431 0.63937 0.953 0.0
C679 C 0.84123 0.59084 0.93508 0.0
N680 N 0.8311 0.61003 0.92138 0.0
H681 H 0.82311 0.6491 0.92076 0.0
H682 H 0.83843 0.57161 0.9295 0.0
H683 H 0.85197 0.64646 0.88877 0.0
H684 H 0.81489 0.6004 0.83687 0.0
O685 O 0.78684 0.63349 0.89871 0.0
O686 O 0.77888 0.60343 0.87121 0.0
O687 O 0.822 0.57036 0.88545 0.0
C688 C 0.77191 0.62427 0.88187 0.0
H689 H 0.75438 0.54055 0.94173 0.0
H690 H 0.87206 0.65416 0.84467 0.0
H691 H 0.86077 0.57992 0.96866 0.0
H692 H 0.84398 0.65847 0.95988 0.0
Co693 Co 0.812 0.39249 0.60691 0.0
C694 C 0.78718 0.40748 0.55917 0.0
C695 C 0.77299 0.42795 0.59073 0.0
C696 C 0.7601 0.43547 0.56968 0.0
N697 N 0.79001 0.41039 0.58414 0.0
N698 N 0.76934 0.42273 0.54999 0.0
H699 H 0.79751 0.39444 0.54774 0.0
H700 H 0.77013 0.43487 0.60956 0.0
C701 C 0.83357 0.44444 0.60085 0.0
O702 O 0.82501 0.44462 0.57778 0.0
N703 N 0.83317 0.37451 0.63007 0.0
C704 C 0.84327 0.35152 0.62722 0.0
C705 C 0.8543 0.34449 0.64949 0.0
C706 C 0.83795 0.38105 0.65398 0.0
N707 N 0.85087 0.36307 0.66627 0.0
C708 C 0.82712 0.36097 0.56643 0.0
C709 C 0.86362 0.39171 0.5465 0.0
C710 C 0.85409 0.37201 0.53195 0.0
C711 C 0.83702 0.35551 0.54298 0.0
C712 C 0.85357 0.39618 0.5704 0.0
N713 N 0.83378 0.38231 0.57902 0.0
H714 H 0.81278 0.34868 0.57349 0.0
H715 H 0.86142 0.41119 0.5813 0.0
H716 H 0.84177 0.34005 0.61062 0.0
H717 H 0.8314 0.3983 0.66243 0.0
O718 O 0.78888 0.36463 0.60607 0.0
O719 O 0.7865 0.39607 0.63282 0.0
O720 O 0.83151 0.42457 0.61424 0.0
C721 C 0.77676 0.37545 0.62409 0.0
H722 H 0.74528 0.44929 0.56882 0.0
H723 H 0.86292 0.32655 0.65341 0.0
H724 H 0.87784 0.40416 0.53911 0.0
H725 H 0.83029 0.33915 0.53297 0.0
Co726 Co 0.19321 0.10701 0.6111 0.0
C727 C 0.22011 0.09428 0.56483 0.0
C728 C 0.21946 0.06325 0.59046 0.0
C729 C 0.23132 0.05578 0.56882 0.0
N730 N 0.21217 0.08723 0.58767 0.0
N731 N 0.23148 0.07525 0.55266 0.0
H732 H 0.21746 0.11294 0.55739 0.0
H733 H 0.21612 0.05193 0.60691 0.0
C734 C 0.15131 0.0711 0.62275 0.0
O735 O 0.13503 0.08915 0.61882 0.0
N736 N 0.17492 0.12689 0.63579 0.0
C737 C 0.17584 0.15207 0.63879 0.0
C738 C 0.16541 0.15841 0.66152 0.0
C739 C 0.16465 0.11836 0.65736 0.0
N740 N 0.15824 0.13718 0.67299 0.0
C741 C 0.16458 0.13839 0.57789 0.0
C742 C 0.15088 0.10037 0.54546 0.0
C743 C 0.14726 0.1253 0.53793 0.0
C744 C 0.15335 0.14435 0.55501 0.0
C745 C 0.16142 0.09518 0.5689 0.0
N746 N 0.16899 0.1141 0.58452 0.0
H747 H 0.17143 0.15353 0.58923 0.0
H748 H 0.1657 0.0759 0.57337 0.0
H749 H 0.18525 0.16505 0.62645 0.0
H750 H 0.16371 0.09882 0.66258 0.0
O751 O 0.21575 0.1346 0.6052 0.0
O752 O 0.22129 0.10525 0.63406 0.0
O753 O 0.17481 0.07552 0.62129 0.0
C754 C 0.22975 0.12524 0.62279 0.0
H755 H 0.23871 0.03726 0.56504 0.0
H756 H 0.16419 0.17703 0.6695 0.0
H757 H 0.14733 0.08493 0.53277 0.0
H758 H 0.15077 0.1639 0.5502 0.0
Co759 Co 0.69508 0.39505 0.39128 0.0
C760 C 0.72104 0.40807 0.43815 0.0
C761 C 0.72708 0.43586 0.40967 0.0
C762 C 0.74021 0.44282 0.43083 0.0
N763 N 0.71509 0.41414 0.41442 0.0
N764 N 0.73619 0.42532 0.44855 0.0
H765 H 0.71465 0.39132 0.44762 0.0
H766 H 0.72636 0.44584 0.39204 0.0
C767 C 0.65347 0.43026 0.37704 0.0
O768 O 0.63769 0.41136 0.37713 0.0
N769 N 0.67547 0.37621 0.36697 0.0
C770 C 0.663 0.35427 0.36909 0.0
C771 C 0.65334 0.34785 0.346 0.0
C772 C 0.67339 0.38254 0.34256 0.0
N773 N 0.66006 0.36555 0.32931 0.0
C774 C 0.67343 0.36338 0.42873 0.0
C775 C 0.64922 0.40055 0.45542 0.0
C776 C 0.65026 0.37632 0.46553 0.0
C777 C 0.66234 0.3576 0.45169 0.0
C778 C 0.66046 0.40555 0.4322 0.0
N779 N 0.67228 0.38702 0.41892 0.0
H780 H 0.68443 0.34904 0.4197 0.0
H781 H 0.66126 0.42479 0.42606 0.0
H782 H 0.66096 0.34325 0.38582 0.0
H783 H 0.68115 0.3996 0.33483 0.0
O784 O 0.71813 0.36743 0.39501 0.0
O785 O 0.72192 0.39769 0.36681 0.0
O786 O 0.67652 0.42675 0.38248 0.0
C787 C 0.73103 0.37751 0.37703 0.0
H788 H 0.75143 0.45957 0.43321 0.0
H789 H 0.64247 0.33124 0.34174 0.0
H790 H 0.64059 0.41573 0.46579 0.0
H791 H 0.66457 0.33888 0.45922 0.0
Co792 Co 0.6076 0.69515 0.89838 0.0
C793 C 0.56201 0.72361 0.90989 0.0
C794 C 0.58544 0.71964 0.94243 0.0
C795 C 0.56353 0.73129 0.94952 0.0
N796 N 0.58423 0.71462 0.91768 0.0
N797 N 0.54911 0.73377 0.92899 0.0
H798 H 0.55495 0.72176 0.89095 0.0
H799 H 0.60079 0.71456 0.95465 0.0
C800 C 0.62204 0.65457 0.93476 0.0
O801 O 0.61739 0.63744 0.91769 0.0
N802 N 0.63212 0.67562 0.87973 0.0
C803 C 0.62967 0.65945 0.86038 0.0
C804 C 0.65267 0.6488 0.85539 0.0
C805 C 0.65661 0.67456 0.886 0.0
N806 N 0.66954 0.65813 0.87171 0.0
C807 C 0.57074 0.67144 0.86788 0.0
C808 C 0.5432 0.65028 0.90622 0.0
C809 C 0.53316 0.65034 0.88191 0.0
C810 C 0.54757 0.6606 0.86258 0.0
C811 C 0.56669 0.66122 0.91073 0.0
N812 N 0.58037 0.67153 0.89162 0.0
H813 H 0.58022 0.68118 0.85292 0.0
H814 H 0.57285 0.66306 0.92991 0.0
H815 H 0.61261 0.65472 0.85075 0.0
H816 H 0.66463 0.68548 0.90109 0.0
O817 O 0.60227 0.717 0.87015 0.0
O818 O 0.63084 0.72332 0.8994 0.0
O819 O 0.61852 0.67775 0.93005 0.0
C820 C 0.61964 0.73138 0.87924 0.0
H821 H 0.5584 0.73719 0.96824 0.0
H822 H 0.65646 0.63452 0.84149 0.0
H823 H 0.53259 0.64271 0.92177 0.0
H824 H 0.54032 0.66166 0.84364 0.0
Co825 Co 0.39071 0.81012 0.89448 0.0
C826 C 0.43722 0.7835 0.90715 0.0
C827 C 0.41159 0.78411 0.93818 0.0
C828 C 0.43324 0.77225 0.94564 0.0
N829 N 0.41435 0.79138 0.91419 0.0
N830 N 0.44938 0.77213 0.92617 0.0
H831 H 0.4447 0.78618 0.8885 0.0
H832 H 0.39514 0.78747 0.94952 0.0
C833 C 0.37921 0.85266 0.92985 0.0
O834 O 0.38215 0.86882 0.91151 0.0
N835 N 0.36582 0.82827 0.87481 0.0
C836 C 0.36311 0.82853 0.8496 0.0
C837 C 0.34049 0.83931 0.84353 0.0
C838 C 0.34401 0.83773 0.88357 0.0
N839 N 0.32854 0.84512 0.86494 0.0
C840 C 0.42393 0.83721 0.8618 0.0
C841 C 0.4565 0.85273 0.89895 0.0
C842 C 0.46395 0.85494 0.87384 0.0
C843 C 0.44662 0.84838 0.85521 0.0
C844 C 0.4331 0.84235 0.90477 0.0
N845 N 0.41741 0.83388 0.88629 0.0
H846 H 0.41275 0.82951 0.84702 0.0
H847 H 0.42872 0.83895 0.92424 0.0
H848 H 0.37532 0.81938 0.83634 0.0
H849 H 0.33881 0.83788 0.90314 0.0
O850 O 0.39557 0.78671 0.86734 0.0
O851 O 0.36742 0.78257 0.89759 0.0
O852 O 0.38139 0.82917 0.92577 0.0
C853 C 0.37811 0.77321 0.87771 0.0
H854 H 0.43706 0.76484 0.96413 0.0
H855 H 0.33257 0.84081 0.82491 0.0
H856 H 0.46922 0.85741 0.91406 0.0
H857 H 0.45106 0.85054 0.83554 0.0
Co858 Co 0.61055 0.31152 0.60671 0.0
C859 C 0.5637 0.28427 0.59512 0.0
C860 C 0.59281 0.27641 0.56844 0.0
C861 C 0.57178 0.26299 0.56176 0.0
N862 N 0.58761 0.28979 0.58924 0.0
N863 N 0.55364 0.26823 0.57847 0.0
H864 H 0.55376 0.29184 0.6111 0.0
H865 H 0.61063 0.27652 0.55879 0.0
C866 C 0.62323 0.35088 0.5684 0.0
O867 O 0.62352 0.36793 0.58616 0.0
N868 N 0.63485 0.33292 0.62384 0.0
C869 C 0.632 0.34983 0.64251 0.0
C870 C 0.65508 0.35945 0.64883 0.0
C871 C 0.65975 0.33284 0.61907 0.0
N872 N 0.67258 0.34866 0.6342 0.0
C873 C 0.57399 0.33489 0.63778 0.0
C874 C 0.54354 0.35226 0.59975 0.0
C875 C 0.53429 0.35227 0.62441 0.0
C876 C 0.55059 0.34482 0.6436 0.0
C877 C 0.56777 0.34324 0.59479 0.0
N878 N 0.58258 0.33416 0.6137 0.0
H879 H 0.58471 0.32651 0.65275 0.0
H880 H 0.57342 0.34123 0.57548 0.0
H881 H 0.61471 0.35555 0.65107 0.0
H882 H 0.66812 0.32184 0.60424 0.0
O883 O 0.60765 0.29044 0.63594 0.0
O884 O 0.63517 0.28469 0.60554 0.0
O885 O 0.61847 0.32803 0.5737 0.0
C886 C 0.6253 0.27668 0.62639 0.0
H887 H 0.56972 0.25083 0.54564 0.0
H888 H 0.65867 0.37336 0.66316 0.0
H889 H 0.53166 0.35766 0.58421 0.0
H890 H 0.54494 0.34547 0.66307 0.0
Co891 Co 0.39455 0.19377 0.60456 0.0
C892 C 0.442 0.21872 0.59172 0.0
C893 C 0.4139 0.225 0.56357 0.0
C894 C 0.43526 0.23796 0.55691 0.0
N895 N 0.41827 0.21299 0.58536 0.0
N896 N 0.45274 0.23379 0.57465 0.0
H897 H 0.45113 0.21251 0.60872 0.0
H898 H 0.39633 0.22458 0.55345 0.0
C899 C 0.37976 0.15182 0.56999 0.0
O900 O 0.38001 0.13634 0.58912 0.0
N901 N 0.36973 0.1749 0.62353 0.0
C902 C 0.37152 0.16274 0.64567 0.0
C903 C 0.34844 0.15296 0.65176 0.0
C904 C 0.34545 0.17247 0.61675 0.0
N905 N 0.33203 0.15917 0.63363 0.0
C906 C 0.43114 0.17233 0.63699 0.0
C907 C 0.45962 0.14964 0.60023 0.0
C908 C 0.46976 0.15236 0.62434 0.0
C909 C 0.45463 0.16274 0.64305 0.0
C910 C 0.43559 0.15905 0.59501 0.0
N911 N 0.42173 0.1707 0.61323 0.0
H912 H 0.42156 0.18305 0.65118 0.0
H913 H 0.42944 0.15916 0.57575 0.0
H914 H 0.38801 0.1608 0.65704 0.0
H915 H 0.33801 0.17979 0.59937 0.0
O916 O 0.39872 0.21712 0.63181 0.0
O917 O 0.37071 0.22125 0.60145 0.0
O918 O 0.38553 0.17486 0.57307 0.0
C919 C 0.38135 0.23054 0.62137 0.0
H920 H 0.43788 0.24933 0.54032 0.0
H921 H 0.34403 0.14224 0.66841 0.0
H922 H 0.47079 0.14193 0.58514 0.0
H923 H 0.46147 0.16483 0.66205 0.0
Co924 Co 0.89399 0.60709 0.69113 0.0
C925 C 0.90633 0.55796 0.71237 0.0
C926 C 0.93466 0.58521 0.72098 0.0
C927 C 0.94107 0.56284 0.73215 0.0
N928 N 0.913 0.58193 0.70849 0.0
N929 N 0.92316 0.54578 0.72675 0.0
H930 H 0.88968 0.54967 0.70436 0.0
H931 H 0.94477 0.60274 0.72225 0.0
C932 C 0.93077 0.62143 0.65067 0.0
O933 O 0.91279 0.62048 0.63386 0.0
N934 N 0.87491 0.63344 0.67449 0.0
C935 C 0.84972 0.63608 0.67378 0.0
C936 C 0.84383 0.65941 0.66459 0.0
C937 C 0.88384 0.65591 0.66684 0.0
N938 N 0.86532 0.67182 0.66012 0.0
C939 C 0.86148 0.57567 0.66214 0.0
C940 C 0.89852 0.54536 0.64235 0.0
C941 C 0.87341 0.53821 0.6398 0.0
C942 C 0.85479 0.55398 0.64918 0.0
C943 C 0.90444 0.56765 0.65499 0.0
N944 N 0.886 0.58237 0.66518 0.0
H945 H 0.84684 0.58569 0.67154 0.0
H946 H 0.92395 0.57175 0.65855 0.0
H947 H 0.83626 0.62315 0.68152 0.0
H948 H 0.90344 0.66106 0.6673 0.0
O949 O 0.86631 0.60036 0.71332 0.0
O950 O 0.89626 0.62828 0.72061 0.0
O951 O 0.92592 0.61757 0.67379 0.0
C952 C 0.87625 0.61665 0.72846 0.0
H953 H 0.95736 0.55956 0.74379 0.0
H954 H 0.82519 0.66726 0.66308 0.0
H955 H 0.91341 0.53334 0.63557 0.0
H956 H 0.8352 0.54873 0.64792 0.0
Co957 Co 0.10599 0.89343 0.69229 0.0
C958 C 0.09531 0.93901 0.72131 0.0
C959 C 0.06282 0.91542 0.71832 0.0
C960 C 0.05611 0.93723 0.73032 0.0
N961 N 0.0873 0.91676 0.71248 0.0
N962 N 0.0765 0.95217 0.73202 0.0
H963 H 0.11448 0.94532 0.71965 0.0
H964 H 0.0505 0.90005 0.71354 0.0
C965 C 0.06916 0.88024 0.65162 0.0
O966 O 0.08607 0.88474 0.63433 0.0
N967 N 0.12421 0.86914 0.67194 0.0
C968 C 0.13967 0.87268 0.65223 0.0
C969 C 0.14535 0.84976 0.64177 0.0
C970 C 0.12074 0.84405 0.67298 0.0
N971 N 0.13353 0.83169 0.6549 0.0
C972 C 0.13694 0.9306 0.66983 0.0
C973 C 0.09904 0.95821 0.64792 0.0
C974 C 0.1232 0.9686 0.64907 0.0
C975 C 0.14233 0.95413 0.65981 0.0
C976 C 0.09429 0.93481 0.65882 0.0
N977 N 0.11318 0.92108 0.66942 0.0
H978 H 0.15185 0.92044 0.67898 0.0
H979 H 0.07507 0.92869 0.66017 0.0
H980 H 0.14536 0.89047 0.64459 0.0
H981 H 0.10828 0.83509 0.68622 0.0
O982 O 0.13445 0.89741 0.7143 0.0
O983 O 0.10426 0.86952 0.71962 0.0
O984 O 0.07411 0.88359 0.67477 0.0
C985 C 0.12478 0.87979 0.72799 0.0
H986 H 0.0374 0.94206 0.73648 0.0
H987 H 0.15598 0.84695 0.62475 0.0
H988 H 0.08365 0.96835 0.63947 0.0
H989 H 0.16121 0.96136 0.66162 0.0
Co990 Co 0.89267 0.3888 0.80645 0.0
C991 C 0.9062 0.43549 0.77915 0.0
C992 C 0.93148 0.40536 0.77119 0.0
C993 C 0.93822 0.42568 0.75677 0.0
N994 N 0.91143 0.4116 0.78531 0.0
N995 N 0.92207 0.44443 0.76169 0.0
H996 H 0.8914 0.44645 0.78725 0.0
H997 H 0.94041 0.38716 0.77117 0.0
C998 C 0.94221 0.39675 0.83178 0.0
O999 O 0.94153 0.42023 0.82441 0.0
N1000 N 0.8743 0.3653 0.82668 0.0
C1001 C 0.85032 0.36684 0.83439 0.0
C1002 C 0.84388 0.34447 0.84565 0.0
C1003 C 0.88207 0.34217 0.83309 0.0
N1004 N 0.8639 0.32901 0.8448 0.0
C1005 C 0.86134 0.43026 0.8194 0.0
C1006 C 0.88574 0.44521 0.86248 0.0
C1007 C 0.86735 0.46086 0.85213 0.0
C1008 C 0.85457 0.45268 0.8308 0.0
C1009 C 0.89181 0.42257 0.85047 0.0
N1010 N 0.88112 0.4164 0.82796 0.0
H1011 H 0.85166 0.42528 0.80241 0.0
H1012 H 0.90525 0.41041 0.85932 0.0
H1013 H 0.83806 0.38264 0.83113 0.0
H1014 H 0.90049 0.33491 0.82865 0.0
O1015 O 0.86581 0.38938 0.78239 0.0
O1016 O 0.89768 0.36307 0.78099 0.0
O1017 O 0.92369 0.38216 0.82728 0.0
C1018 C 0.8774 0.3717 0.77047 0.0
H1019 H 0.95346 0.42649 0.74341 0.0
H1020 H 0.82552 0.33959 0.85277 0.0
H1021 H 0.89533 0.45045 0.8796 0.0
H1022 H 0.84013 0.46409 0.82221 0.0
Co1023 Co 0.10464 0.11099 0.80972 0.0
C1024 C 0.09343 0.06529 0.78126 0.0
C1025 C 0.06064 0.08834 0.78535 0.0
C1026 C 0.05387 0.06644 0.77343 0.0
N1027 N 0.08537 0.08737 0.79043 0.0
N1028 N 0.07455 0.0522 0.77084 0.0
H1029 H 0.11244 0.05846 0.78316 0.0
H1030 H 0.04827 0.10353 0.79054 0.0
C1031 C 0.06968 0.12436 0.85175 0.0
O1032 O 0.0875 0.11997 0.86816 0.0
N1033 N 0.12357 0.13558 0.82887 0.0
C1034 C 0.14647 0.13431 0.83959 0.0
C1035 C 0.15256 0.15756 0.84914 0.0
C1036 C 0.11632 0.15964 0.83184 0.0
N1037 N 0.13367 0.1735 0.84404 0.0
C1038 C 0.13618 0.07383 0.83198 0.0
C1039 C 0.09817 0.04626 0.85379 0.0
C1040 C 0.12232 0.03606 0.85284 0.0
C1041 C 0.14157 0.05044 0.84235 0.0
C1042 C 0.0936 0.06989 0.84339 0.0
N1043 N 0.11252 0.08359 0.83272 0.0
H1044 H 0.15075 0.08296 0.82141 0.0
H1045 H 0.07438 0.07601 0.84204 0.0
H1046 H 0.15849 0.11817 0.84023 0.0
H1047 H 0.09853 0.16675 0.82523 0.0
O1048 O 0.13227 0.1069 0.78668 0.0
O1049 O 0.10171 0.1348 0.78252 0.0
O1050 O 0.07341 0.12092 0.82839 0.0
C1051 C 0.12197 0.12461 0.77356 0.0
H1052 H 0.0352 0.06118 0.76744 0.0
H1053 H 0.16984 0.16249 0.85858 0.0
H1054 H 0.08271 0.0356 0.8615 0.0
H1055 H 0.16035 0.04292 0.84057 0.0
Co1056 Co 0.69345 0.90065 0.60864 0.0
C1057 C 0.72051 0.91159 0.56226 0.0
C1058 C 0.71928 0.94382 0.58631 0.0
C1059 C 0.73086 0.95044 0.56425 0.0
N1060 N 0.71244 0.91962 0.58471 0.0
N1061 N 0.73143 0.93018 0.54905 0.0
H1062 H 0.71857 0.89242 0.55603 0.0
H1063 H 0.71591 0.95582 0.60228 0.0
C1064 C 0.651 0.9355 0.62258 0.0
O1065 O 0.6355 0.91644 0.62419 0.0
N1066 N 0.6747 0.88177 0.63351 0.0
C1067 C 0.66381 0.85897 0.63195 0.0
C1068 C 0.65425 0.85266 0.65506 0.0
C1069 C 0.67189 0.88872 0.6577 0.0
N1070 N 0.65947 0.87131 0.67127 0.0
C1071 C 0.67276 0.86761 0.5719 0.0
C1072 C 0.64672 0.90332 0.54499 0.0
C1073 C 0.64871 0.87901 0.5352 0.0
C1074 C 0.66179 0.86105 0.54912 0.0
C1075 C 0.65801 0.90914 0.568 0.0
N1076 N 0.67066 0.89129 0.58144 0.0
H1077 H 0.68448 0.85387 0.58094 0.0
H1078 H 0.65809 0.92848 0.57383 0.0
H1079 H 0.66291 0.84723 0.61559 0.0
H1080 H 0.67847 0.90647 0.665 0.0
O1081 O 0.71717 0.87359 0.60527 0.0
O1082 O 0.72051 0.90473 0.63265 0.0
O1083 O 0.674 0.93202 0.61689 0.0
C1084 C 0.73 0.88452 0.62279 0.0
H1085 H 0.73784 0.96891 0.55961 0.0
H1086 H 0.6445 0.83547 0.65968 0.0
H1087 H 0.63735 0.91795 0.53451 0.0
H1088 H 0.66487 0.84237 0.54177 0.0
Co1089 Co 0.69041 0.10579 0.89572 0.0
C1090 C 0.71691 0.09356 0.94254 0.0
C1091 C 0.7149 0.06188 0.91771 0.0
C1092 C 0.72675 0.0545 0.9394 0.0
N1093 N 0.70842 0.08619 0.91996 0.0
N1094 N 0.72802 0.07449 0.95473 0.0
H1095 H 0.71472 0.11228 0.95006 0.0
H1096 H 0.71133 0.05036 0.90142 0.0
C1097 C 0.64782 0.07163 0.88014 0.0
O1098 O 0.63271 0.09088 0.87755 0.0
N1099 N 0.67263 0.1251 0.87043 0.0
C1100 C 0.66137 0.1477 0.87202 0.0
C1101 C 0.65236 0.15422 0.84873 0.0
C1102 C 0.67055 0.11845 0.84608 0.0
N1103 N 0.65825 0.13588 0.8324 0.0
C1104 C 0.67013 0.13922 0.93216 0.0
C1105 C 0.64142 0.10462 0.9578 0.0
C1106 C 0.64484 0.12853 0.96806 0.0
C1107 C 0.659 0.14603 0.95476 0.0
C1108 C 0.6532 0.0984 0.93513 0.0
N1109 N 0.66724 0.1157 0.92237 0.0
H1110 H 0.68234 0.15268 0.92333 0.0
H1111 H 0.65239 0.07916 0.92905 0.0
H1112 H 0.65972 0.15909 0.88858 0.0
H1113 H 0.67742 0.10083 0.83876 0.0
O1114 O 0.71452 0.13237 0.89964 0.0
O1115 O 0.71815 0.10129 0.87251 0.0
O1116 O 0.67055 0.07481 0.88694 0.0
C1117 C 0.7279 0.12128 0.88265 0.0
H1118 H 0.73413 0.03606 0.94354 0.0
H1119 H 0.64245 0.17131 0.84411 0.0
H1120 H 0.63097 0.09046 0.96791 0.0
H1121 H 0.66219 0.16465 0.96225 0.0
Co1122 Co 0.3075 0.39647 0.892 0.0
C1123 C 0.28093 0.40897 0.93879 0.0
C1124 C 0.27521 0.43695 0.91042 0.0
C1125 C 0.26234 0.4441 0.93166 0.0
N1126 N 0.28692 0.41504 0.91506 0.0
N1127 N 0.26613 0.42644 0.94924 0.0
H1128 H 0.28733 0.39229 0.94836 0.0
H1129 H 0.27613 0.44706 0.89288 0.0
C1130 C 0.34864 0.43276 0.8787 0.0
O1131 O 0.36479 0.41423 0.87766 0.0
N1132 N 0.3279 0.37817 0.86788 0.0
C1133 C 0.34635 0.36123 0.8715 0.0
C1134 C 0.35686 0.35528 0.84867 0.0
C1135 C 0.32747 0.38205 0.84287 0.0
N1136 N 0.34489 0.36829 0.8306 0.0
C1137 C 0.32776 0.36464 0.92924 0.0
C1138 C 0.35261 0.40065 0.95689 0.0
C1139 C 0.34982 0.37652 0.9671 0.0
C1140 C 0.33685 0.35862 0.95286 0.0
C1141 C 0.34199 0.40633 0.93349 0.0
N1142 N 0.32989 0.3883 0.91979 0.0
H1143 H 0.31769 0.35035 0.91908 0.0
H1144 H 0.34216 0.4256 0.92743 0.0
H1145 H 0.353 0.3545 0.88932 0.0
H1146 H 0.31506 0.39533 0.83391 0.0
O1147 O 0.28512 0.36838 0.89517 0.0
O1148 O 0.28055 0.39877 0.86744 0.0
O1149 O 0.32566 0.42855 0.88391 0.0
C1150 C 0.27178 0.37831 0.87749 0.0
H1151 H 0.25152 0.46107 0.93422 0.0
H1152 H 0.3731 0.34347 0.84597 0.0
H1153 H 0.36205 0.41533 0.96726 0.0
H1154 H 0.33247 0.34025 0.96019 0.0
Co1155 Co 0.81174 0.10382 0.11082 0.0
C1156 C 0.78348 0.09262 0.06493 0.0
C1157 C 0.78528 0.0606 0.08925 0.0
C1158 C 0.7727 0.0539 0.06775 0.0
N1159 N 0.79224 0.08475 0.08722 0.0
N1160 N 0.77175 0.07401 0.05242 0.0
H1161 H 0.78563 0.11162 0.05823 0.0
H1162 H 0.78929 0.04864 0.10509 0.0
C1163 C 0.85352 0.068 0.12275 0.0
O1164 O 0.86975 0.08638 0.12039 0.0
N1165 N 0.8307 0.12275 0.13567 0.0
C1166 C 0.83373 0.14785 0.13765 0.0
C1167 C 0.84359 0.15347 0.16084 0.0
C1168 C 0.8377 0.11375 0.15828 0.0
N1169 N 0.84581 0.13201 0.17383 0.0
C1170 C 0.83776 0.13575 0.07621 0.0
C1171 C 0.85427 0.09784 0.04508 0.0
C1172 C 0.85648 0.12275 0.03692 0.0
C1173 C 0.84889 0.1418 0.05336 0.0
C1174 C 0.84385 0.09262 0.0686 0.0
N1175 N 0.83526 0.11146 0.08378 0.0
H1176 H 0.82917 0.15067 0.08653 0.0
H1177 H 0.84052 0.07325 0.07344 0.0
H1178 H 0.82709 0.16167 0.12454 0.0
H1179 H 0.83578 0.09432 0.16371 0.0
O1180 O 0.78912 0.13154 0.10627 0.0
O1181 O 0.78443 0.10142 0.13458 0.0
O1182 O 0.83012 0.07211 0.11991 0.0
C1183 C 0.77567 0.12159 0.12397 0.0
H1184 H 0.76526 0.03549 0.06353 0.0
H1185 H 0.84708 0.17204 0.16826 0.0
H1186 H 0.85886 0.08234 0.03282 0.0
H1187 H 0.85012 0.16134 0.04802 0.0
Co1188 Co 0.39556 0.31032 0.10642 0.0
C1189 C 0.43885 0.27732 0.09473 0.0
C1190 C 0.42685 0.29809 0.06259 0.0
C1191 C 0.44775 0.28476 0.05616 0.0
N1192 N 0.42093 0.29329 0.0867 0.0
N1193 N 0.45524 0.27163 0.07631 0.0
H1194 H 0.44066 0.27094 0.11388 0.0
H1195 H 0.41845 0.31214 0.05093 0.0
C1196 C 0.37635 0.3504 0.07048 0.0
O1197 O 0.37496 0.36726 0.08838 0.0
N1198 N 0.36973 0.32738 0.12567 0.0
C1199 C 0.37111 0.33886 0.14818 0.0
C1200 C 0.34773 0.34785 0.15443 0.0
C1201 C 0.34541 0.32923 0.11885 0.0
N1202 N 0.33156 0.34171 0.13601 0.0
C1203 C 0.43178 0.33297 0.13839 0.0
C1204 C 0.45602 0.36079 0.10212 0.0
C1205 C 0.46718 0.35827 0.12577 0.0
C1206 C 0.45444 0.34462 0.14414 0.0
C1207 C 0.43296 0.34911 0.09721 0.0
N1208 N 0.42116 0.33507 0.11517 0.0
H1209 H 0.42373 0.32081 0.15235 0.0
H1210 H 0.42583 0.34987 0.07834 0.0
H1211 H 0.38763 0.34075 0.15959 0.0
H1212 H 0.33825 0.3222 0.10122 0.0
O1213 O 0.40081 0.28701 0.1337 0.0
O1214 O 0.37354 0.28155 0.10299 0.0
O1215 O 0.38443 0.32843 0.07526 0.0
C1216 C 0.38399 0.27285 0.12323 0.0
H1217 H 0.45791 0.2864 0.03868 0.0
H1218 H 0.34296 0.35805 0.17131 0.0
H1219 H 0.46548 0.3709 0.08729 0.0
H1220 H 0.46273 0.34155 0.16242 0.0
Co1221 Co 0.61193 0.19153 0.11249 0.0
C1222 C 0.56411 0.21709 0.09927 0.0
C1223 C 0.593 0.22308 0.07195 0.0
C1224 C 0.57165 0.23509 0.06396 0.0
N1225 N 0.58806 0.2113 0.09379 0.0
N1226 N 0.55368 0.23115 0.08119 0.0
H1227 H 0.55419 0.21126 0.11584 0.0
H1228 H 0.61084 0.22259 0.06232 0.0
C1229 C 0.60546 0.16539 0.06277 0.0
O1230 O 0.58137 0.17043 0.06369 0.0
N1231 N 0.63662 0.17236 0.13062 0.0
C1232 C 0.63375 0.15748 0.15079 0.0
C1233 C 0.65647 0.14631 0.15605 0.0
C1234 C 0.66089 0.17029 0.1241 0.0
N1235 N 0.67362 0.15452 0.13931 0.0
C1236 C 0.57115 0.17675 0.14387 0.0
C1237 C 0.55729 0.13385 0.11848 0.0
C1238 C 0.54123 0.14368 0.13677 0.0
C1239 C 0.54897 0.16468 0.15031 0.0
C1240 C 0.57984 0.14629 0.11304 0.0
N1241 N 0.58532 0.16883 0.12403 0.0
H1242 H 0.57576 0.19362 0.15393 0.0
H1243 H 0.5924 0.13785 0.09971 0.0
H1244 H 0.61636 0.15436 0.16068 0.0
H1245 H 0.66892 0.18005 0.10826 0.0
O1246 O 0.61037 0.21576 0.13935 0.0
O1247 O 0.6362 0.21826 0.10719 0.0
O1248 O 0.61965 0.17109 0.08131 0.0
C1249 C 0.62727 0.22851 0.12746 0.0
H1250 H 0.56948 0.24595 0.04697 0.0
H1251 H 0.65961 0.13239 0.17042 0.0
H1252 H 0.55235 0.11694 0.10838 0.0
H1253 H 0.53727 0.17257 0.16492 0.0
Co1254 Co 0.39412 0.69159 0.39686 0.0
C1255 C 0.44132 0.71719 0.40923 0.0
C1256 C 0.41391 0.72203 0.43833 0.0
C1257 C 0.43537 0.7348 0.44505 0.0
N1258 N 0.41781 0.71101 0.41594 0.0
N1259 N 0.45248 0.73142 0.4268 0.0
H1260 H 0.45009 0.71146 0.39186 0.0
H1261 H 0.39664 0.72097 0.44889 0.0
C1262 C 0.38069 0.65032 0.43272 0.0
O1263 O 0.38264 0.63395 0.41442 0.0
N1264 N 0.36934 0.67273 0.37766 0.0
C1265 C 0.36832 0.6693 0.35258 0.0
C1266 C 0.34554 0.659 0.34627 0.0
C1267 C 0.3465 0.66549 0.38595 0.0
N1268 N 0.33187 0.65652 0.3673 0.0
C1269 C 0.42965 0.66628 0.36551 0.0
C1270 C 0.45918 0.64834 0.40408 0.0
C1271 C 0.46877 0.64823 0.37965 0.0
C1272 C 0.45307 0.65604 0.36013 0.0
C1273 C 0.43529 0.65823 0.40864 0.0
N1274 N 0.42099 0.66773 0.38953 0.0
H1275 H 0.4199 0.67534 0.35048 0.0
H1276 H 0.42966 0.66072 0.42791 0.0
H1277 H 0.38188 0.67585 0.33917 0.0
H1278 H 0.34026 0.66772 0.40511 0.0
O1279 O 0.39886 0.71415 0.36895 0.0
O1280 O 0.37071 0.71914 0.39923 0.0
O1281 O 0.38457 0.67358 0.42863 0.0
C1282 C 0.38125 0.72767 0.37896 0.0
H1283 H 0.43837 0.7454 0.4621 0.0
H1284 H 0.33889 0.65541 0.32744 0.0
H1285 H 0.47076 0.64271 0.41978 0.0
H1286 H 0.45951 0.65586 0.34088 0.0
Co1287 Co 0.61019 0.80916 0.39607 0.0
C1288 C 0.56286 0.78359 0.40914 0.0
C1289 C 0.59221 0.77555 0.43553 0.0
C1290 C 0.57111 0.76238 0.44248 0.0
N1291 N 0.58693 0.78882 0.41469 0.0
N1292 N 0.55286 0.76767 0.4259 0.0
H1293 H 0.55294 0.79084 0.39301 0.0
H1294 H 0.61024 0.77526 0.44481 0.0
C1295 C 0.62345 0.84991 0.43296 0.0
O1296 O 0.62303 0.86652 0.41479 0.0
N1297 N 0.63456 0.8291 0.37766 0.0
C1298 C 0.63373 0.83732 0.35376 0.0
C1299 C 0.65649 0.84784 0.34767 0.0
C1300 C 0.65815 0.83416 0.38543 0.0
N1301 N 0.67181 0.84598 0.36766 0.0
C1302 C 0.573 0.83174 0.36484 0.0
C1303 C 0.54631 0.85523 0.40243 0.0
C1304 C 0.5359 0.85407 0.37832 0.0
C1305 C 0.54992 0.84265 0.35932 0.0
C1306 C 0.56949 0.84387 0.40724 0.0
N1307 N 0.58275 0.83233 0.38852 0.0
H1308 H 0.58175 0.8208 0.35034 0.0
H1309 H 0.57549 0.84265 0.42648 0.0
H1310 H 0.61842 0.83488 0.34087 0.0
H1311 H 0.66529 0.82893 0.40368 0.0
O1312 O 0.60644 0.78692 0.36781 0.0
O1313 O 0.63439 0.78205 0.39802 0.0
O1314 O 0.61901 0.82684 0.4283 0.0
C1315 C 0.62418 0.77343 0.37756 0.0
H1316 H 0.56923 0.74999 0.45843 0.0
H1317 H 0.6617 0.8551 0.32947 0.0
H1318 H 0.53618 0.86389 0.41773 0.0
H1319 H 0.54237 0.84062 0.34058 0.0
Co1320 Co 0.10555 0.39283 0.30854 0.0
C1321 C 0.09476 0.43811 0.2798 0.0
C1322 C 0.06177 0.41543 0.28385 0.0
C1323 C 0.0552 0.43755 0.27236 0.0
N1324 N 0.08649 0.41609 0.28878 0.0
N1325 N 0.07594 0.45191 0.27007 0.0
H1326 H 0.11416 0.4438 0.28075 0.0
H1327 H 0.04925 0.40034 0.28895 0.0
C1328 C 0.07048 0.37806 0.3502 0.0
O1329 O 0.08928 0.37812 0.36607 0.0
N1330 N 0.12449 0.36872 0.32832 0.0
C1331 C 0.14208 0.37233 0.34618 0.0
C1332 C 0.1481 0.34958 0.35672 0.0
C1333 C 0.12027 0.34376 0.3283 0.0
N1334 N 0.13445 0.33157 0.3454 0.0
C1335 C 0.13703 0.43028 0.33013 0.0
C1336 C 0.09947 0.45745 0.35322 0.0
C1337 C 0.12374 0.46741 0.35247 0.0
C1338 C 0.14268 0.45339 0.34096 0.0
C1339 C 0.09463 0.43402 0.34237 0.0
N1340 N 0.11337 0.42055 0.33114 0.0
H1341 H 0.15167 0.42053 0.32012 0.0
H1342 H 0.07543 0.42775 0.34146 0.0
H1343 H 0.14925 0.39006 0.35254 0.0
H1344 H 0.10638 0.33482 0.31653 0.0
O1345 O 0.13335 0.39646 0.28562 0.0
O1346 O 0.10288 0.36869 0.28147 0.0
O1347 O 0.07399 0.38375 0.32722 0.0
C1348 C 0.12311 0.37882 0.2723 0.0
H1349 H 0.03641 0.443 0.267 0.0
H1350 H 0.16037 0.3469 0.37263 0.0
H1351 H 0.08421 0.46802 0.36144 0.0
H1352 H 0.16152 0.46076 0.33923 0.0
Co1353 Co 0.89976 0.10566 0.31099 0.0
C1354 C 0.9112 0.06083 0.28117 0.0
C1355 C 0.94307 0.08535 0.28374 0.0
C1356 C 0.95013 0.06402 0.27103 0.0
N1357 N 0.91878 0.0831 0.29028 0.0
N1358 N 0.93002 0.04883 0.26942 0.0
H1359 H 0.89268 0.05306 0.28411 0.0
H1360 H 0.955 0.10106 0.28844 0.0
C1361 C 0.93672 0.11835 0.35145 0.0
O1362 O 0.9202 0.11223 0.36862 0.0
N1363 N 0.88123 0.12936 0.33179 0.0
C1364 C 0.86758 0.12564 0.3528 0.0
C1365 C 0.86136 0.14852 0.363 0.0
C1366 C 0.88321 0.15454 0.32984 0.0
N1367 N 0.87116 0.16672 0.3485 0.0
C1368 C 0.86964 0.06878 0.33483 0.0
C1369 C 0.90854 0.03948 0.35246 0.0
C1370 C 0.88403 0.03004 0.35334 0.0
C1371 C 0.86442 0.04528 0.34494 0.0
C1372 C 0.91297 0.06328 0.34233 0.0
N1373 N 0.8936 0.07772 0.33368 0.0
H1374 H 0.85437 0.07951 0.32698 0.0
H1375 H 0.93214 0.06922 0.33976 0.0
H1376 H 0.86384 0.10789 0.36162 0.0
H1377 H 0.89429 0.16382 0.31564 0.0
O1378 O 0.87113 0.10088 0.28953 0.0
O1379 O 0.90029 0.12971 0.28368 0.0
O1380 O 0.93157 0.11614 0.32821 0.0
C1381 C 0.87999 0.11875 0.27563 0.0
H1382 H 0.96862 0.0598 0.26381 0.0
H1383 H 0.85203 0.15136 0.38077 0.0
H1384 H 0.92424 0.02823 0.35868 0.0
H1385 H 0.84525 0.03856 0.3449 0.0
Co1386 Co 0.10785 0.60919 0.19105 0.0
C1387 C 0.0962 0.56314 0.21909 0.0
C1388 C 0.06602 0.58977 0.22063 0.0
C1389 C 0.05862 0.56838 0.23297 0.0
N1390 N 0.08933 0.58619 0.21159 0.0
N1391 N 0.07769 0.55191 0.23198 0.0
H1392 H 0.114 0.55448 0.21462 0.0
H1393 H 0.05514 0.60669 0.21824 0.0
C1394 C 0.07078 0.6228 0.15051 0.0
O1395 O 0.0889 0.62322 0.13389 0.0
N1396 N 0.12603 0.63344 0.1706 0.0
C1397 C 0.14146 0.63001 0.15081 0.0
C1398 C 0.14764 0.65302 0.14088 0.0
C1399 C 0.1232 0.65855 0.17226 0.0
N1400 N 0.13623 0.67103 0.15446 0.0
C1401 C 0.13926 0.57252 0.16826 0.0
C1402 C 0.10153 0.54387 0.14728 0.0
C1403 C 0.12609 0.53447 0.14731 0.0
C1404 C 0.14508 0.54932 0.15771 0.0
C1405 C 0.09648 0.56736 0.15797 0.0
N1406 N 0.11527 0.58147 0.16829 0.0
H1407 H 0.15406 0.58298 0.17729 0.0
H1408 H 0.07718 0.57316 0.15957 0.0
H1409 H 0.14674 0.6123 0.14272 0.0
H1410 H 0.11105 0.6675 0.18579 0.0
O1411 O 0.13636 0.60559 0.21303 0.0
O1412 O 0.10602 0.63328 0.21834 0.0
O1413 O 0.0755 0.61783 0.17344 0.0
C1414 C 0.12659 0.62313 0.22675 0.0
H1415 H 0.04073 0.5651 0.24197 0.0
H1416 H 0.15829 0.65599 0.1239 0.0
H1417 H 0.08622 0.53279 0.13985 0.0
H1418 H 0.16418 0.54253 0.15892 0.0
Co1419 Co 0.89681 0.89044 0.19261 0.0
C1420 C 0.9098 0.93538 0.22105 0.0
C1421 C 0.94244 0.91279 0.21452 0.0
C1422 C 0.94975 0.93484 0.2258 0.0
N1423 N 0.91743 0.91341 0.21133 0.0
N1424 N 0.92921 0.94915 0.22966 0.0
H1425 H 0.8904 0.94112 0.22133 0.0
H1426 H 0.95465 0.89788 0.20823 0.0
C1427 C 0.93114 0.87791 0.14963 0.0
O1428 O 0.91342 0.88397 0.13364 0.0
N1429 N 0.87618 0.86661 0.17422 0.0
C1430 C 0.85092 0.86526 0.1726 0.0
C1431 C 0.84432 0.84284 0.16144 0.0
C1432 C 0.88435 0.84454 0.16492 0.0
N1433 N 0.86546 0.83005 0.15642 0.0
C1434 C 0.86589 0.92702 0.16836 0.0
C1435 C 0.90466 0.9552 0.14871 0.0
C1436 C 0.88041 0.96528 0.14859 0.0
C1437 C 0.86082 0.95052 0.15802 0.0
C1438 C 0.909 0.93179 0.15966 0.0
N1439 N 0.88974 0.91784 0.16935 0.0
H1440 H 0.85081 0.91734 0.17753 0.0
H1441 H 0.92819 0.92584 0.16189 0.0
H1442 H 0.83791 0.8786 0.18042 0.0
H1443 H 0.90362 0.83836 0.16582 0.0
O1444 O 0.86994 0.89636 0.21598 0.0
O1445 O 0.89876 0.8667 0.22004 0.0
O1446 O 0.92736 0.87927 0.17323 0.0
C1447 C 0.87932 0.87826 0.22929 0.0
H1448 H 0.96886 0.9403 0.22988 0.0
H1449 H 0.82548 0.83617 0.15793 0.0
H1450 H 0.92039 0.9657 0.14136 0.0
H1451 H 0.84184 0.95768 0.15886 0.0
Co1452 Co 0.30912 0.10144 0.39416 0.0
C1453 C 0.28046 0.09076 0.43988 0.0
C1454 C 0.28444 0.05784 0.41696 0.0
C1455 C 0.27248 0.05118 0.43882 0.0
N1456 N 0.28965 0.08256 0.41788 0.0
N1457 N 0.26998 0.07194 0.45294 0.0
H1458 H 0.28237 0.1098 0.44667 0.0
H1459 H 0.28956 0.04538 0.40182 0.0
C1460 C 0.3504 0.06508 0.38149 0.0
O1461 O 0.36748 0.08209 0.38649 0.0
N1462 N 0.32872 0.11978 0.36934 0.0
C1463 C 0.34889 0.13487 0.37213 0.0
C1464 C 0.35838 0.14066 0.34882 0.0
C1465 C 0.32651 0.11658 0.34431 0.0
N1466 N 0.34443 0.12893 0.33134 0.0
C1467 C 0.33233 0.13374 0.42984 0.0
C1468 C 0.35253 0.09647 0.45957 0.0
C1469 C 0.35228 0.12117 0.4686 0.0
C1470 C 0.3426 0.13999 0.45309 0.0
C1471 C 0.34214 0.09101 0.43607 0.0
N1472 N 0.33218 0.10955 0.42142 0.0
H1473 H 0.32348 0.14835 0.41897 0.0
H1474 H 0.34043 0.07159 0.43062 0.0
H1475 H 0.35748 0.14025 0.38958 0.0
H1476 H 0.31241 0.10477 0.33579 0.0
O1477 O 0.28651 0.12949 0.3981 0.0
O1478 O 0.28147 0.09858 0.37074 0.0
O1479 O 0.32717 0.06982 0.38444 0.0
C1480 C 0.27293 0.11909 0.38079 0.0
H1481 H 0.26641 0.03257 0.44416 0.0
H1482 H 0.37519 0.15141 0.34512 0.0
H1483 H 0.35982 0.08133 0.47095 0.0
H1484 H 0.34169 0.15926 0.45944 0.0
Co1485 Co 0.30956 0.89675 0.10756 0.0
C1486 C 0.28108 0.90969 0.06227 0.0
C1487 C 0.28249 0.94047 0.08821 0.0
C1488 C 0.26953 0.948 0.06721 0.0
N1489 N 0.2898 0.91655 0.08491 0.0
N1490 N 0.26862 0.92857 0.05102 0.0
H1491 H 0.28398 0.89133 0.05413 0.0
H1492 H 0.28669 0.95177 0.10451 0.0
C1493 C 0.35186 0.93111 0.12205 0.0
O1494 O 0.36752 0.91215 0.12079 0.0
N1495 N 0.32906 0.87714 0.1313 0.0
C1496 C 0.33824 0.85363 0.12938 0.0
C1497 C 0.3491 0.84701 0.15184 0.0
C1498 C 0.33393 0.8841 0.15516 0.0
N1499 N 0.34654 0.86628 0.16797 0.0
C1500 C 0.33075 0.86583 0.06924 0.0
C1501 C 0.35431 0.90371 0.04301 0.0
C1502 C 0.35275 0.87982 0.03218 0.0
C1503 C 0.34128 0.86066 0.0459 0.0
C1504 C 0.34361 0.90809 0.06659 0.0
N1505 N 0.33208 0.88921 0.07963 0.0
H1506 H 0.31969 0.85133 0.07787 0.0
H1507 H 0.34296 0.92717 0.07323 0.0
H1508 H 0.33665 0.84148 0.11338 0.0
H1509 H 0.32838 0.90199 0.16296 0.0
O1510 O 0.28646 0.86925 0.1034 0.0
O1511 O 0.28268 0.89907 0.13198 0.0
O1512 O 0.32864 0.92802 0.11709 0.0
C1513 C 0.27349 0.87898 0.12152 0.0
H1514 H 0.26218 0.96659 0.06381 0.0
H1515 H 0.35743 0.82903 0.15617 0.0
H1516 H 0.36286 0.91913 0.03295 0.0
H1517 H 0.33899 0.84211 0.03794 0.0
Co1518 Co 0.69217 0.60917 0.11238 0.0
C1519 C 0.72124 0.59619 0.06765 0.0
C1520 C 0.71649 0.56424 0.09173 0.0
C1521 C 0.72868 0.55659 0.07032 0.0
N1522 N 0.71153 0.58895 0.08972 0.0
N1523 N 0.73167 0.57676 0.05549 0.0
H1524 H 0.71947 0.61492 0.06004 0.0
H1525 H 0.71096 0.55245 0.10725 0.0
C1526 C 0.65005 0.5727 0.12189 0.0
O1527 O 0.63353 0.58936 0.11447 0.0
N1528 N 0.67333 0.62911 0.13652 0.0
C1529 C 0.67369 0.65426 0.1397 0.0
C1530 C 0.66288 0.66015 0.1624 0.0
C1531 C 0.66321 0.62019 0.15796 0.0
N1532 N 0.65636 0.63865 0.17386 0.0
C1533 C 0.66412 0.64066 0.07861 0.0
C1534 C 0.65276 0.60315 0.04472 0.0
C1535 C 0.64943 0.62818 0.03741 0.0
C1536 C 0.65386 0.64691 0.05535 0.0
C1537 C 0.66225 0.59763 0.06856 0.0
N1538 N 0.6688 0.61632 0.08493 0.0
H1539 H 0.66997 0.6557 0.09059 0.0
H1540 H 0.66632 0.57829 0.07297 0.0
H1541 H 0.68326 0.66746 0.12771 0.0
H1542 H 0.66251 0.60054 0.16279 0.0
O1543 O 0.71529 0.63647 0.10692 0.0
O1544 O 0.71958 0.60722 0.13603 0.0
O1545 O 0.67335 0.57807 0.12271 0.0
C1546 C 0.7289 0.62674 0.12466 0.0
H1547 H 0.73444 0.53768 0.06571 0.0
H1548 H 0.66196 0.67863 0.17075 0.0
H1549 H 0.64958 0.58794 0.03164 0.0
H1550 H 0.65062 0.66647 0.05109 0.0
Co1551 Co 0.19116 0.89846 0.89307 0.0
C1552 C 0.2192 0.91034 0.93903 0.0
C1553 C 0.21701 0.9421 0.91434 0.0
C1554 C 0.2291 0.94938 0.93595 0.0
N1555 N 0.21057 0.91776 0.91653 0.0
N1556 N 0.23045 0.92934 0.95118 0.0
H1557 H 0.21649 0.89177 0.94674 0.0
H1558 H 0.21277 0.95386 0.8984 0.0
C1559 C 0.14953 0.93344 0.87811 0.0
O1560 O 0.13369 0.91459 0.87801 0.0
N1561 N 0.17203 0.87946 0.8685 0.0
C1562 C 0.15989 0.85733 0.87042 0.0
C1563 C 0.15044 0.85089 0.84727 0.0
C1564 C 0.16995 0.88591 0.84411 0.0
N1565 N 0.15692 0.8688 0.83071 0.0
C1566 C 0.16938 0.8667 0.93008 0.0
C1567 C 0.14523 0.90374 0.95699 0.0
C1568 C 0.14627 0.87943 0.96688 0.0
C1569 C 0.1583 0.86078 0.95294 0.0
C1570 C 0.15639 0.90886 0.93374 0.0
N1571 N 0.16815 0.89036 0.92038 0.0
H1572 H 0.18045 0.8524 0.92107 0.0
H1573 H 0.15716 0.9281 0.92763 0.0
H1574 H 0.15793 0.84615 0.88706 0.0
H1575 H 0.17748 0.90314 0.83654 0.0
O1576 O 0.21404 0.87089 0.89713 0.0
O1577 O 0.21849 0.90117 0.86921 0.0
O1578 O 0.17248 0.92993 0.88386 0.0
C1579 C 0.22745 0.88093 0.87952 0.0
H1580 H 0.23602 0.96795 0.94036 0.0
H1581 H 0.13987 0.83412 0.84289 0.0
H1582 H 0.13668 0.91884 0.96752 0.0
H1583 H 0.16052 0.84201 0.96036 0.0
C1584 C 0.10962 0.29274 0.35005 0.0
C1585 C 0.13258 0.3055 0.35254 0.0
C1586 C 0.10687 0.26794 0.35815 0.0
C1587 C 0.12685 0.25498 0.36942 0.0
H1588 H 0.09334 0.30217 0.34248 0.0
H1589 H 0.08864 0.25916 0.35635 0.0
S1590 S 0.19153 0.27869 0.37816 0.0
N1591 N 0.17635 0.30231 0.36513 0.0
N1592 N 0.17074 0.25597 0.38134 0.0
C1593 C 0.15005 0.26717 0.37159 0.0
C1594 C 0.15302 0.29235 0.36292 0.0
C1595 C 0.89385 0.20711 0.34791 0.0
C1596 C 0.87231 0.19321 0.35411 0.0
C1597 C 0.8962 0.23236 0.35468 0.0
C1598 C 0.87722 0.24476 0.36815 0.0
H1599 H 0.90947 0.19823 0.3385 0.0
H1600 H 0.91351 0.24194 0.35008 0.0
S1601 S 0.81597 0.21774 0.38677 0.0
N1602 N 0.83067 0.19444 0.37265 0.0
N1603 N 0.83546 0.24179 0.38605 0.0
C1604 C 0.85527 0.23139 0.37388 0.0
C1605 C 0.85274 0.20567 0.36672 0.0
C1606 C 0.11301 0.71112 0.15459 0.0
C1607 C 0.13487 0.69753 0.14881 0.0
C1608 C 0.11037 0.7363 0.14772 0.0
C1609 C 0.12933 0.74896 0.13447 0.0
H1610 H 0.09732 0.70207 0.16368 0.0
H1611 H 0.0928 0.74555 0.15193 0.0
S1612 S 0.19147 0.72316 0.1173 0.0
N1613 N 0.17696 0.69962 0.13124 0.0
N1614 N 0.17145 0.74677 0.11744 0.0
C1615 C 0.15163 0.73601 0.12926 0.0
C1616 C 0.15452 0.71037 0.13661 0.0
C1617 C 0.85484 0.76128 0.14391 0.0
C1618 C 0.87462 0.75561 0.12751 0.0
C1619 C 0.85138 0.78588 0.15284 0.0
C1620 C 0.86777 0.80535 0.14575 0.0
H1621 H 0.84238 0.74656 0.15028 0.0
H1622 H 0.83635 0.78954 0.16598 0.0
S1623 S 0.92089 0.80025 0.10136 0.0
N1624 N 0.90974 0.77144 0.10336 0.0
N1625 N 0.90317 0.81752 0.11992 0.0
C1626 C 0.88706 0.79988 0.12873 0.0
C1627 C 0.89051 0.77501 0.11967 0.0
C1628 C 0.36722 0.14678 0.26681 0.0
C1629 C 0.36371 0.12457 0.25307 0.0
C1630 C 0.36019 0.1483 0.29217 0.0
C1631 C 0.34974 0.12757 0.30481 0.0
H1632 H 0.37577 0.16295 0.25801 0.0
H1633 H 0.36325 0.16574 0.30209 0.0
S1634 S 0.3392 0.06428 0.2778 0.0
N1635 N 0.35012 0.08104 0.25426 0.0
N1636 N 0.33788 0.08366 0.30185 0.0
C1637 C 0.34632 0.10522 0.29124 0.0
C1638 C 0.35308 0.10379 0.26541 0.0
C1639 C 0.62184 0.36082 0.27016 0.0
C1640 C 0.63753 0.37201 0.25216 0.0
C1641 C 0.62957 0.3582 0.29517 0.0
C1642 C 0.65328 0.36663 0.30313 0.0
H1643 H 0.60302 0.35504 0.2652 0.0
H1644 H 0.61649 0.35041 0.30857 0.0
S1645 S 0.70284 0.39367 0.26256 0.0
N1646 N 0.67882 0.3893 0.24352 0.0
N1647 N 0.69345 0.3839 0.29037 0.0
C1648 C 0.66965 0.37657 0.28503 0.0
C1649 C 0.66176 0.37934 0.2596 0.0
C1650 C 0.34892 0.88284 0.23649 0.0
C1651 C 0.37191 0.87252 0.24435 0.0
C1652 C 0.34063 0.88042 0.21167 0.0
C1653 C 0.35496 0.86758 0.19366 0.0
H1654 H 0.33732 0.89323 0.24952 0.0
H1655 H 0.32285 0.88873 0.20651 0.0
S1656 S 0.41684 0.83762 0.20431 0.0
N1657 N 0.40895 0.849 0.23198 0.0
N1658 N 0.39351 0.84478 0.18529 0.0
C1659 C 0.37784 0.8569 0.20129 0.0
C1660 C 0.38627 0.85929 0.22663 0.0
C1661 C 0.65014 0.61271 0.239 0.0
C1662 C 0.63174 0.62818 0.24992 0.0
C1663 C 0.65808 0.61632 0.21427 0.0
C1664 C 0.64814 0.63566 0.19942 0.0
H1665 H 0.65822 0.5973 0.24945 0.0
H1666 H 0.67226 0.6039 0.20676 0.0
S1667 S 0.59996 0.68177 0.219 0.0
N1668 N 0.6041 0.66397 0.24397 0.0
N1669 N 0.61917 0.67071 0.19738 0.0
C1670 C 0.63012 0.65161 0.21016 0.0
C1671 C 0.62186 0.64786 0.23539 0.0
C1672 C 0.27252 0.38018 0.14077 0.0
C1673 C 0.2547 0.36522 0.12833 0.0
C1674 C 0.29741 0.37214 0.14367 0.0
C1675 C 0.30548 0.34882 0.13428 0.0
H1676 H 0.26749 0.39866 0.14752 0.0
H1677 H 0.31064 0.3847 0.15257 0.0
S1678 S 0.26543 0.30116 0.10324 0.0
N1679 N 0.24639 0.32499 0.10846 0.0
N1680 N 0.293 0.30982 0.11432 0.0
C1681 C 0.28758 0.33319 0.12285 0.0
C1682 C 0.26225 0.34139 0.11981 0.0
C1683 C 0.2645 0.65307 0.38772 0.0
C1684 C 0.255 0.63281 0.37366 0.0
C1685 C 0.28954 0.66072 0.38551 0.0
C1686 C 0.30608 0.64857 0.36902 0.0
H1687 H 0.25269 0.66285 0.40102 0.0
H1688 H 0.29598 0.67633 0.39677 0.0
S1689 S 0.29076 0.59468 0.32776 0.0
N1690 N 0.26421 0.60094 0.34235 0.0
N1691 N 0.31129 0.61532 0.33832 0.0
C1692 C 0.29678 0.6286 0.35448 0.0
C1693 C 0.27126 0.62073 0.35677 0.0
C1694 C 0.74007 0.84687 0.38567 0.0
C1695 C 0.74905 0.86888 0.37417 0.0
C1696 C 0.71496 0.83943 0.38328 0.0
C1697 C 0.69775 0.85364 0.36927 0.0
H1698 H 0.75241 0.83544 0.39703 0.0
H1699 H 0.70898 0.82238 0.3925 0.0
S1700 S 0.71147 0.91307 0.33578 0.0
N1701 N 0.7386 0.90483 0.34818 0.0
N1702 N 0.69139 0.89102 0.34401 0.0
C1703 C 0.70651 0.87553 0.35739 0.0
C1704 C 0.73214 0.88309 0.35976 0.0
C1705 C 0.21004 0.65545 0.6102 0.0
C1706 C 0.19629 0.65032 0.63212 0.0
C1707 C 0.23529 0.64854 0.60796 0.0
C1708 C 0.24789 0.63595 0.62743 0.0
H1709 H 0.20104 0.66411 0.59422 0.0
H1710 H 0.24472 0.65227 0.59037 0.0
S1711 S 0.22157 0.62051 0.68979 0.0
N1712 N 0.19813 0.63396 0.67469 0.0
N1713 N 0.24534 0.62012 0.66997 0.0
C1714 C 0.23472 0.63132 0.64972 0.0
C1715 C 0.20903 0.6387 0.65219 0.0
C1716 C 0.88927 0.73798 0.65512 0.0
C1717 C 0.87379 0.74845 0.63647 0.0
C1718 C 0.8864 0.71299 0.66277 0.0
C1719 C 0.86782 0.69754 0.65223 0.0
H1720 H 0.90411 0.74897 0.66357 0.0
H1721 H 0.89877 0.70574 0.67713 0.0
S1722 S 0.82236 0.71566 0.60286 0.0
N1723 N 0.83897 0.7413 0.60783 0.0
N1724 N 0.83378 0.69437 0.62217 0.0
C1725 C 0.85198 0.70783 0.63387 0.0
C1726 C 0.85491 0.73325 0.626 0.0
C1727 C 0.10703 0.7667 0.64677 0.0
C1728 C 0.1261 0.754 0.63369 0.0
C1729 C 0.10978 0.79181 0.65399 0.0
C1730 C 0.13186 0.80529 0.64872 0.0
H1731 H 0.08935 0.75747 0.65064 0.0
H1732 H 0.09407 0.80092 0.66302 0.0
S1733 S 0.18862 0.7796 0.61757 0.0
N1734 N 0.16842 0.75613 0.61718 0.0
N1735 N 0.17411 0.80307 0.63161 0.0
C1736 C 0.15152 0.79244 0.63657 0.0
C1737 C 0.14853 0.7669 0.62887 0.0
C1738 C 0.8795 0.28583 0.83899 0.0
C1739 C 0.86528 0.30322 0.85281 0.0
C1740 C 0.8822 0.26098 0.84702 0.0
C1741 C 0.87083 0.25245 0.86923 0.0
H1742 H 0.88874 0.29152 0.82186 0.0
H1743 H 0.89379 0.24851 0.83594 0.0
S1744 S 0.83153 0.29055 0.91223 0.0
N1745 N 0.8396 0.31019 0.88974 0.0
N1746 N 0.84439 0.26341 0.90475 0.0
C1747 C 0.85602 0.26948 0.88293 0.0
C1748 C 0.85331 0.29486 0.87474 0.0
C1749 C 0.14229 0.20827 0.8735 0.0
C1750 C 0.13225 0.19972 0.85064 0.0
C1751 C 0.13971 0.23336 0.88103 0.0
C1752 C 0.12701 0.25089 0.86596 0.0
H1753 H 0.15144 0.19526 0.88609 0.0
H1754 H 0.1469 0.23878 0.89923 0.0
S1755 S 0.10029 0.23878 0.80282 0.0
N1756 N 0.11144 0.21138 0.81185 0.0
N1757 N 0.10623 0.25836 0.82605 0.0
C1758 C 0.11792 0.24283 0.84252 0.0
C1759 C 0.12058 0.21731 0.83487 0.0
C1760 C 0.62057 0.86502 0.72975 0.0
C1761 C 0.63507 0.87756 0.74787 0.0
C1762 C 0.62889 0.86267 0.70493 0.0
C1763 C 0.65204 0.8727 0.69724 0.0
H1764 H 0.60221 0.85775 0.73448 0.0
H1765 H 0.61669 0.85364 0.69145 0.0
S1766 S 0.69862 0.90421 0.73819 0.0
N1767 N 0.67472 0.89822 0.75691 0.0
N1768 N 0.69048 0.89334 0.71037 0.0
C1769 C 0.66725 0.88425 0.71543 0.0
C1770 C 0.65874 0.88675 0.7407 0.0
C1771 C 0.34962 0.61136 0.71033 0.0
C1772 C 0.35378 0.63406 0.69755 0.0
C1773 C 0.35732 0.6081 0.73518 0.0
C1774 C 0.36985 0.62725 0.74828 0.0
H1775 H 0.34101 0.5956 0.70089 0.0
H1776 H 0.35413 0.59003 0.74389 0.0
S1777 S 0.3834 0.69107 0.72456 0.0
N1778 N 0.36949 0.67682 0.70084 0.0
N1779 N 0.3849 0.67017 0.74733 0.0
C1780 C 0.37376 0.65021 0.73608 0.0
C1781 C 0.36552 0.65374 0.71079 0.0
C1782 C 0.6285 0.14478 0.79795 0.0
C1783 C 0.65148 0.13473 0.8062 0.0
C1784 C 0.62084 0.14263 0.77287 0.0
C1785 C 0.63584 0.1303 0.75503 0.0
H1786 H 0.61592 0.15364 0.81117 0.0
H1787 H 0.60259 0.14986 0.76769 0.0
S1788 S 0.69917 0.10367 0.76624 0.0
N1789 N 0.69028 0.11428 0.79391 0.0
N1790 N 0.67577 0.10981 0.74694 0.0
C1791 C 0.65935 0.12112 0.76279 0.0
C1792 C 0.66717 0.1234 0.78831 0.0
C1793 C 0.34724 0.39241 0.7911 0.0
C1794 C 0.35144 0.36996 0.80432 0.0
C1795 C 0.35464 0.39512 0.76608 0.0
C1796 C 0.36691 0.37564 0.75322 0.0
H1797 H 0.33887 0.40842 0.80032 0.0
H1798 H 0.35155 0.41305 0.75708 0.0
S1799 S 0.38022 0.31219 0.77806 0.0
N1800 N 0.36671 0.32701 0.80164 0.0
N1801 N 0.38161 0.33263 0.75487 0.0
C1802 C 0.37074 0.35288 0.76584 0.0
C1803 C 0.36279 0.34992 0.79129 0.0
C1804 C 0.73448 0.63516 0.85548 0.0
C1805 C 0.74624 0.63421 0.879 0.0
C1806 C 0.70955 0.64344 0.85317 0.0
C1807 C 0.69541 0.65055 0.87436 0.0
H1808 H 0.74463 0.62959 0.8388 0.0
H1809 H 0.70126 0.64425 0.83467 0.0
S1810 S 0.7168 0.6477 0.94053 0.0
N1811 N 0.74154 0.63929 0.92401 0.0
N1812 N 0.69457 0.65357 0.91984 0.0
C1813 C 0.70689 0.64895 0.89804 0.0
C1814 C 0.73233 0.64106 0.90031 0.0
C1815 C 0.73317 0.38484 0.63836 0.0
C1816 C 0.75109 0.36716 0.63059 0.0
C1817 C 0.70768 0.37851 0.63995 0.0
C1818 C 0.69912 0.35422 0.63401 0.0
H1819 H 0.73864 0.40407 0.64196 0.0
H1820 H 0.69448 0.39308 0.64493 0.0
S1821 S 0.73917 0.3001 0.61646 0.0
N1822 N 0.75895 0.32376 0.6192 0.0
N1823 N 0.71122 0.31167 0.62296 0.0
C1824 C 0.7171 0.336 0.62763 0.0
C1825 C 0.74302 0.34252 0.62579 0.0
C1826 C 0.29832 0.12833 0.64145 0.0
C1827 C 0.30601 0.15182 0.63217 0.0
C1828 C 0.27337 0.12028 0.63929 0.0
C1829 C 0.25515 0.13538 0.62769 0.0
H1830 H 0.31184 0.11572 0.64979 0.0
H1831 H 0.26856 0.10173 0.64599 0.0
S1832 S 0.2649 0.19972 0.60303 0.0
N1833 N 0.29284 0.19101 0.61309 0.0
N1834 N 0.2461 0.17576 0.60856 0.0
C1835 C 0.26238 0.15928 0.61915 0.0
C1836 C 0.28776 0.16751 0.62146 0.0
C1837 C 0.77472 0.37173 0.39121 0.0
C1838 C 0.75682 0.36918 0.37211 0.0
C1839 C 0.79938 0.36351 0.38777 0.0
C1840 C 0.80699 0.35179 0.36544 0.0
H1841 H 0.76965 0.38037 0.40889 0.0
H1842 H 0.81275 0.36661 0.40258 0.0
S1843 S 0.76673 0.34066 0.3097 0.0
N1844 N 0.74805 0.35491 0.32988 0.0
N1845 N 0.79425 0.33817 0.32374 0.0
C1846 C 0.78919 0.34937 0.34602 0.0
C1847 C 0.76411 0.35831 0.34935 0.0
C1848 C 0.6411 0.77337 0.88039 0.0
C1849 C 0.62406 0.75687 0.86879 0.0
C1850 C 0.64371 0.79829 0.8722 0.0
C1851 C 0.62923 0.80775 0.85228 0.0
H1852 H 0.65217 0.76719 0.89624 0.0
H1853 H 0.65674 0.81047 0.88191 0.0
S1854 S 0.58344 0.77183 0.81414 0.0
N1855 N 0.59345 0.7516 0.83527 0.0
N1856 N 0.59861 0.79815 0.81996 0.0
C1857 C 0.61266 0.79129 0.84006 0.0
C1858 C 0.61005 0.76594 0.84827 0.0
C1859 C 0.38197 0.71362 0.83899 0.0
C1860 C 0.36818 0.69625 0.8532 0.0
C1861 C 0.38426 0.73867 0.84661 0.0
C1862 C 0.37289 0.74737 0.86879 0.0
H1863 H 0.3911 0.70779 0.82184 0.0
H1864 H 0.39542 0.7512 0.83518 0.0
S1865 S 0.33511 0.70917 0.91299 0.0
N1866 N 0.34326 0.68934 0.89068 0.0
N1867 N 0.34726 0.73645 0.90489 0.0
C1868 C 0.35869 0.73026 0.88298 0.0
C1869 C 0.35642 0.70471 0.87523 0.0
C1870 C 0.64569 0.20851 0.62937 0.0
C1871 C 0.63508 0.20009 0.65201 0.0
C1872 C 0.64359 0.23364 0.62179 0.0
C1873 C 0.6308 0.25136 0.63658 0.0
H1874 H 0.65495 0.19539 0.61697 0.0
H1875 H 0.6512 0.23894 0.60374 0.0
S1876 S 0.60258 0.23963 0.69911 0.0
N1877 N 0.61359 0.21208 0.69033 0.0
N1878 N 0.60926 0.2591 0.67603 0.0
C1879 C 0.62112 0.24342 0.65982 0.0
C1880 C 0.6233 0.21786 0.66752 0.0
C1881 C 0.35404 0.26683 0.63401 0.0
C1882 C 0.37788 0.25691 0.62892 0.0
C1883 C 0.35127 0.29191 0.6418 0.0
C1884 C 0.37221 0.30791 0.64431 0.0
H1885 H 0.33759 0.25502 0.63251 0.0
H1886 H 0.33269 0.29869 0.6463 0.0
S1887 S 0.43807 0.29162 0.62893 0.0
N1888 N 0.42238 0.2653 0.62469 0.0
N1889 N 0.41711 0.31249 0.63796 0.0
C1890 C 0.39595 0.29833 0.63804 0.0
C1891 C 0.39878 0.27281 0.63067 0.0
C1892 C 0.86875 0.64244 0.76698 0.0
C1893 C 0.86696 0.61939 0.75441 0.0
C1894 C 0.86105 0.64483 0.79204 0.0
C1895 C 0.85168 0.62415 0.80557 0.0
H1896 H 0.87608 0.65876 0.75737 0.0
H1897 H 0.8625 0.66302 0.80092 0.0
S1898 S 0.84598 0.55896 0.78174 0.0
N1899 N 0.85637 0.57518 0.75754 0.0
N1900 N 0.8429 0.57939 0.80477 0.0
C1901 C 0.85022 0.60087 0.79322 0.0
C1902 C 0.85765 0.59856 0.76762 0.0
C1903 C 0.12684 0.8606 0.7964 0.0
C1904 C 0.15021 0.86984 0.80451 0.0
C1905 C 0.11925 0.86277 0.77132 0.0
C1906 C 0.13471 0.87433 0.75337 0.0
H1907 H 0.11394 0.8524 0.80973 0.0
H1908 H 0.10071 0.85623 0.76623 0.0
S1909 S 0.19907 0.89852 0.76422 0.0
N1910 N 0.18981 0.88856 0.79199 0.0
N1911 N 0.17541 0.89313 0.745 0.0
C1912 C 0.15857 0.88265 0.76099 0.0
C1913 C 0.16634 0.88032 0.78651 0.0
C1914 C 0.84657 0.37413 0.73558 0.0
C1915 C 0.86982 0.36539 0.74451 0.0
C1916 C 0.8404 0.3729 0.71013 0.0
C1917 C 0.85715 0.36277 0.69254 0.0
H1918 H 0.83326 0.38278 0.74824 0.0
H1919 H 0.82244 0.38018 0.70411 0.0
S1920 S 0.92012 0.33663 0.70608 0.0
N1921 N 0.90942 0.34556 0.73372 0.0
N1922 N 0.89772 0.34324 0.68576 0.0
C1923 C 0.88007 0.35308 0.70124 0.0
C1924 C 0.88642 0.35437 0.72726 0.0
C1925 C 0.15102 0.14461 0.74276 0.0
C1926 C 0.13019 0.12934 0.74776 0.0
C1927 C 0.15984 0.14758 0.71811 0.0
C1928 C 0.14845 0.13483 0.69798 0.0
H1929 H 0.1606 0.1541 0.75795 0.0
H1930 H 0.17605 0.15934 0.71482 0.0
S1931 S 0.093 0.09326 0.7016 0.0
N1932 N 0.09798 0.10205 0.73085 0.0
N1933 N 0.11499 0.10702 0.68469 0.0
C1934 C 0.12757 0.11965 0.70288 0.0
C1935 C 0.11833 0.11705 0.72778 0.0
C1936 C 0.77413 0.87876 0.60982 0.0
C1937 C 0.75564 0.87623 0.62832 0.0
C1938 C 0.79845 0.86964 0.61364 0.0
C1939 C 0.80511 0.85714 0.63594 0.0
H1940 H 0.76972 0.88784 0.59219 0.0
H1941 H 0.81211 0.87236 0.5989 0.0
S1942 S 0.76224 0.84464 0.68958 0.0
N1943 N 0.74487 0.86042 0.66941 0.0
N1944 N 0.79016 0.84199 0.67648 0.0
C1945 C 0.78646 0.85444 0.6546 0.0
C1946 C 0.7618 0.86426 0.65079 0.0
C1947 C 0.78944 0.15614 0.88996 0.0
C1948 C 0.80512 0.14482 0.8721 0.0
C1949 C 0.76438 0.14882 0.89259 0.0
C1950 C 0.75393 0.12972 0.8776 0.0
H1951 H 0.79651 0.171 0.90184 0.0
H1952 H 0.75324 0.15806 0.90683 0.0
S1953 S 0.78728 0.09392 0.82817 0.0
N1954 N 0.8086 0.11349 0.83922 0.0
N1955 N 0.76139 0.09964 0.84415 0.0
C1956 C 0.76938 0.1183 0.85954 0.0
C1957 C 0.79496 0.12589 0.85679 0.0
C1958 C 0.23428 0.35403 0.89067 0.0
C1959 C 0.24626 0.36874 0.87234 0.0
C1960 C 0.20916 0.34696 0.88821 0.0
C1961 C 0.19495 0.35403 0.86718 0.0
H1962 H 0.24403 0.34876 0.90768 0.0
H1963 H 0.20061 0.33673 0.90349 0.0
S1964 S 0.21861 0.38954 0.81215 0.0
N1965 N 0.24276 0.38844 0.8315 0.0
N1966 N 0.19566 0.37431 0.8263 0.0
C1967 C 0.2071 0.36763 0.84803 0.0
C1968 C 0.2327 0.37517 0.85075 0.0
C1969 C 0.73588 0.14051 0.10923 0.0
C1970 C 0.75017 0.13092 0.12912 0.0
C1971 C 0.71104 0.14804 0.11277 0.0
C1972 C 0.6995 0.1468 0.13649 0.0
H1973 H 0.7437 0.14149 0.09051 0.0
H1974 H 0.70072 0.1544 0.09654 0.0
S1975 S 0.73011 0.12519 0.19528 0.0
N1976 N 0.75177 0.12135 0.17351 0.0
N1977 N 0.70537 0.13677 0.1807 0.0
C1978 C 0.71396 0.13785 0.15678 0.0
C1979 C 0.73921 0.12963 0.15296 0.0
C1980 C 0.39756 0.23483 0.14689 0.0
C1981 C 0.3792 0.24708 0.13245 0.0
C1982 C 0.39479 0.20967 0.154 0.0
C1983 C 0.37343 0.19576 0.14715 0.0
H1984 H 0.41469 0.24445 0.15204 0.0
H1985 H 0.40994 0.20086 0.16421 0.0
S1986 S 0.31837 0.22019 0.11222 0.0
N1987 N 0.33804 0.24408 0.1132 0.0
N1988 N 0.33243 0.19702 0.12718 0.0
C1989 C 0.3544 0.20816 0.13365 0.0
C1990 C 0.35737 0.23374 0.12617 0.0
C1991 C 0.62392 0.2639 0.15795 0.0
C1992 C 0.63269 0.25481 0.13476 0.0
C1993 C 0.62529 0.28943 0.16406 0.0
C1994 C 0.63549 0.30696 0.14725 0.0
H1995 H 0.61538 0.25127 0.17135 0.0
H1996 H 0.61822 0.29551 0.18208 0.0
S1997 S 0.66077 0.29307 0.08394 0.0
N1998 N 0.65206 0.26548 0.09492 0.0
N1999 N 0.65434 0.31348 0.1063 0.0
C2000 C 0.64475 0.29811 0.12418 0.0
C2001 C 0.64345 0.27205 0.11797 0.0
C2002 C 0.36392 0.75767 0.34753 0.0
C2003 C 0.37664 0.7533 0.37013 0.0
C2004 C 0.36092 0.78218 0.33837 0.0
C2005 C 0.37127 0.8028 0.35119 0.0
H2006 H 0.35633 0.7421 0.3369 0.0
H2007 H 0.35101 0.78504 0.32089 0.0
S2008 S 0.40628 0.80093 0.41103 0.0
N2009 N 0.39929 0.77133 0.40523 0.0
N2010 N 0.39445 0.81726 0.38753 0.0
C2011 C 0.3841 0.79855 0.3737 0.0
C2012 C 0.38659 0.77377 0.3833 0.0
C2013 C 0.64193 0.73033 0.3831 0.0
C2014 C 0.6298 0.74802 0.36776 0.0
C2015 C 0.64426 0.70519 0.37566 0.0
C2016 C 0.63456 0.69676 0.3526 0.0
H2017 H 0.64882 0.73567 0.40144 0.0
H2018 H 0.65292 0.69206 0.38847 0.0
S2019 S 0.60421 0.73628 0.30409 0.0
N2020 N 0.60996 0.75578 0.32744 0.0
N2021 N 0.61476 0.70872 0.31336 0.0
C2022 C 0.6235 0.71452 0.33657 0.0
C2023 C 0.62105 0.74008 0.34416 0.0
C2024 C 0.16261 0.38188 0.21318 0.0
C2025 C 0.14875 0.36767 0.19583 0.0
C2026 C 0.15466 0.38449 0.2381 0.0
C2027 C 0.13248 0.37305 0.24672 0.0
H2028 H 0.17975 0.3911 0.20745 0.0
H2029 H 0.16582 0.39601 0.25057 0.0
S2030 S 0.08918 0.33407 0.20862 0.0
N2031 N 0.11161 0.34217 0.18893 0.0
N2032 N 0.09682 0.34679 0.23577 0.0
C2033 C 0.11866 0.3584 0.22966 0.0
C2034 C 0.12674 0.35578 0.20424 0.0
C2035 C 0.88173 0.14033 0.23393 0.0
C2036 C 0.86933 0.12393 0.25046 0.0
C2037 C 0.87367 0.1432 0.20904 0.0
C2038 C 0.85309 0.12962 0.19972 0.0
H2039 H 0.89819 0.15055 0.24001 0.0
H2040 H 0.88404 0.15558 0.19675 0.0
S2041 S 0.81239 0.08646 0.23587 0.0
N2042 N 0.83408 0.0954 0.25606 0.0
N2043 N 0.81909 0.10098 0.20941 0.0
C2044 C 0.83994 0.11392 0.21623 0.0
C2045 C 0.84801 0.11107 0.24157 0.0
C2046 C 0.121 0.64017 0.27013 0.0
C2047 C 0.13641 0.62845 0.25224 0.0
C2048 C 0.12847 0.64222 0.29528 0.0
C2049 C 0.15165 0.63265 0.30355 0.0
H2050 H 0.1026 0.64699 0.26493 0.0
H2051 H 0.11561 0.65063 0.30852 0.0
S2052 S 0.20029 0.6032 0.26353 0.0
N2053 N 0.17686 0.609 0.24416 0.0
N2054 N 0.19099 0.61329 0.29126 0.0
C2055 C 0.16771 0.6219 0.28563 0.0
C2056 C 0.16008 0.61974 0.26003 0.0
C2057 C 0.8509 0.88995 0.29316 0.0
C2058 C 0.85445 0.86709 0.30585 0.0
C2059 C 0.85834 0.89297 0.2682 0.0
C2060 C 0.86999 0.87341 0.25493 0.0
H2061 H 0.84296 0.90596 0.30274 0.0
H2062 H 0.85566 0.91114 0.25953 0.0
S2063 S 0.88179 0.80917 0.2785 0.0
N2064 N 0.86871 0.82387 0.30241 0.0
N2065 N 0.88362 0.83 0.25569 0.0
C2066 C 0.87331 0.85032 0.26708 0.0
C2067 C 0.86535 0.84706 0.29248 0.0
C2068 C 0.21846 0.15904 0.35907 0.0
C2069 C 0.19787 0.14732 0.37071 0.0
C2070 C 0.24288 0.14963 0.36201 0.0
C2071 C 0.24726 0.12786 0.37608 0.0
H2072 H 0.21568 0.17593 0.34817 0.0
H2073 H 0.25841 0.15949 0.3534 0.0
S2074 S 0.19973 0.08975 0.40939 0.0
N2075 N 0.18349 0.11274 0.39648 0.0
N2076 N 0.22925 0.09458 0.40135 0.0
C2077 C 0.22683 0.11571 0.38735 0.0
C2078 C 0.20213 0.12558 0.38484 0.0
C2079 C 0.22998 0.88552 0.13776 0.0
C2080 C 0.24812 0.86939 0.1275 0.0
C2081 C 0.20489 0.87794 0.14018 0.0
C2082 C 0.19701 0.85391 0.13254 0.0
H2083 H 0.23493 0.90451 0.14298 0.0
H2084 H 0.1914 0.89132 0.14728 0.0
S2085 S 0.23801 0.80334 0.10803 0.0
N2086 N 0.25699 0.82751 0.11183 0.0
N2087 N 0.21005 0.81311 0.11698 0.0
C2088 C 0.21526 0.83718 0.12348 0.0
C2089 C 0.24075 0.84494 0.12085 0.0
C2090 C 0.76404 0.65663 0.11596 0.0
C2091 C 0.75497 0.63558 0.12908 0.0
C2092 C 0.7893 0.66388 0.11745 0.0
C2093 C 0.80653 0.65043 0.13216 0.0
H2094 H 0.75165 0.66744 0.10406 0.0
H2095 H 0.79535 0.68021 0.10704 0.0
S2096 S 0.79269 0.59353 0.1697 0.0
N2097 N 0.76546 0.60127 0.15721 0.0
N2098 N 0.81288 0.61473 0.15971 0.0
C2099 C 0.79771 0.62948 0.14556 0.0
C2100 C 0.77197 0.62211 0.1441 0.0
C2101 C 0.28746 0.84354 0.88595 0.0
C2102 C 0.30311 0.85381 0.86746 0.0
C2103 C 0.2628 0.85191 0.889 0.0
C2104 C 0.2528 0.87107 0.87384 0.0
H2105 H 0.2943 0.82881 0.8981 0.0
H2106 H 0.25168 0.84354 0.90378 0.0
S2107 S 0.28617 0.90402 0.8225 0.0
N2108 N 0.30697 0.88394 0.83356 0.0
N2109 N 0.26051 0.89981 0.8393 0.0
C2110 C 0.26816 0.88129 0.855 0.0
C2111 C 0.29331 0.87261 0.8518 0.0
C2112 C 0.02028 0.26197 0.44259 0.0
C2113 C 0.02687 0.24125 0.42762 0.0
C2114 C 0.9958 0.27147 0.44257 0.0
C2115 C 0.97723 0.26075 0.42735 0.0
H2116 H 0.03419 0.27102 0.45428 0.0
H2117 H 0.99136 0.28746 0.45427 0.0
S2118 S 0.98379 0.20539 0.38624 0.0
N2119 N 0.01199 0.20939 0.39839 0.0
N2120 N 0.96628 0.22814 0.39778 0.0
C2121 C 0.98337 0.24015 0.41234 0.0
C2122 C 0.00815 0.23017 0.4126 0.0
C2123 C 0.98358 0.7653 0.08054 0.0
C2124 C 0.97776 0.74108 0.07223 0.0
C2125 C 0.0085 0.77345 0.08166 0.0
C2126 C 0.02826 0.7576 0.07428 0.0
H2127 H 0.96879 0.77786 0.08634 0.0
H2128 H 0.01235 0.79234 0.08804 0.0
S2129 S 0.02229 0.69206 0.05195 0.0
N2130 N 0.99313 0.70112 0.05718 0.0
N2131 N 0.04021 0.71634 0.05902 0.0
C2132 C 0.02252 0.73327 0.06597 0.0
C2133 C 0.99716 0.725 0.06505 0.0
C2134 C 0.40983 0.01748 0.26586 0.0
C2135 C 0.42406 0.02609 0.24562 0.0
C2136 C 0.41127 0.99241 0.2734 0.0
C2137 C 0.4269 0.97523 0.26075 0.0
H2138 H 0.39776 0.0303 0.27597 0.0
H2139 H 0.4004 0.98657 0.2895 0.0
S2140 S 0.46684 0.9892 0.20558 0.0
N2141 N 0.45356 0.01627 0.21261 0.0
N2142 N 0.45609 0.96881 0.22625 0.0
C2143 C 0.44096 0.98381 0.24018 0.0
C2144 C 0.43954 0.00937 0.2327 0.0
C2145 C 0.56419 0.5053 0.27705 0.0
C2146 C 0.57493 0.52533 0.2639 0.0
C2147 C 0.5656 0.48083 0.26764 0.0
C2148 C 0.57763 0.47572 0.2447 0.0
H2149 H 0.55497 0.50863 0.29482 0.0
H2150 H 0.55742 0.46577 0.27849 0.0
S2151 S 0.60666 0.52283 0.2025 0.0
N2152 N 0.59698 0.53924 0.22688 0.0
N2153 N 0.59898 0.49342 0.2084 0.0
C2154 C 0.58806 0.49591 0.23125 0.0
C2155 C 0.58685 0.52071 0.24107 0.0
C2156 C 0.23337 0.42058 0.98091 0.0
C2157 C 0.25806 0.42706 0.97472 0.0
C2158 C 0.22567 0.41994 0.00601 0.0
C2159 C 0.24239 0.42616 0.02546 0.0
H2160 H 0.22018 0.41567 0.96628 0.0
H2161 H 0.2065 0.41478 0.01027 0.0
S2162 S 0.30907 0.4442 0.01838 0.0
N2163 N 0.29919 0.43946 0.9894 0.0
N2164 N 0.28471 0.43874 0.0367 0.0
C2165 C 0.26708 0.43286 0.01931 0.0
C2166 C 0.27494 0.43314 0.99384 0.0
C2167 C 0.26128 0.56158 0.48462 0.0
C2168 C 0.2417 0.57781 0.4774 0.0
C2169 C 0.27031 0.56126 0.50923 0.0
C2170 C 0.26048 0.57752 0.52732 0.0
H2171 H 0.26985 0.54907 0.47116 0.0
H2172 H 0.28532 0.54851 0.51416 0.0
S2173 S 0.20926 0.62335 0.51916 0.0
N2174 N 0.21226 0.61002 0.49139 0.0
N2175 N 0.23066 0.61016 0.53718 0.0
C2176 C 0.24135 0.59407 0.52059 0.0
C2177 C 0.23161 0.59407 0.49572 0.0
C2178 C 0.77057 0.94504 0.49247 0.0
C2179 C 0.76174 0.92783 0.4747 0.0
C2180 C 0.76076 0.94546 0.51676 0.0
C2181 C 0.74143 0.92898 0.52397 0.0
H2182 H 0.78545 0.95796 0.48758 0.0
H2183 H 0.76859 0.95866 0.53003 0.0
S2184 S 0.71079 0.8816 0.48291 0.0
N2185 N 0.73257 0.89444 0.46509 0.0
N2186 N 0.71285 0.89589 0.51029 0.0
C2187 C 0.73214 0.91193 0.50596 0.0
C2188 C 0.74262 0.91121 0.48141 0.0
C2189 C 0.98059 0.73969 0.56387 0.0
C2190 C 0.97475 0.76166 0.57729 0.0
C2191 C 0.00511 0.73028 0.56334 0.0
C2192 C 0.02442 0.74255 0.57626 0.0
H2193 H 0.96605 0.72961 0.55391 0.0
H2194 H 0.00906 0.71328 0.55296 0.0
S2195 S 0.01991 0.80132 0.61244 0.0
N2196 N 0.99102 0.7961 0.60256 0.0
N2197 N 0.03693 0.77775 0.60187 0.0
C2198 C 0.01907 0.76445 0.58953 0.0
C2199 C 0.99423 0.77419 0.59 0.0
C2200 C 0.99274 0.22835 0.91763 0.0
C2201 C 0.97316 0.24437 0.92513 0.0
C2202 C 0.01761 0.23676 0.91722 0.0
C2203 C 0.02345 0.2615 0.92383 0.0
H2204 H 0.98879 0.20911 0.91246 0.0
H2205 H 0.03237 0.22399 0.91163 0.0
S2206 S 0.97924 0.31099 0.94378 0.0
N2207 N 0.96134 0.28616 0.93885 0.0
N2208 N 0.00822 0.30205 0.93749 0.0
C2209 C 0.00415 0.27778 0.93095 0.0
C2210 C 0.97891 0.26916 0.93179 0.0
C2211 C 0.58556 0.01008 0.72794 0.0
C2212 C 0.5755 0.02926 0.74306 0.0
C2213 C 0.58514 0.98504 0.73582 0.0
C2214 C 0.57467 0.97854 0.75898 0.0
H2215 H 0.59347 0.01446 0.70977 0.0
H2216 H 0.59291 0.97065 0.72379 0.0
S2217 S 0.54778 0.02144 0.80627 0.0
N2218 N 0.55604 0.03996 0.78286 0.0
N2219 N 0.55521 0.99269 0.79745 0.0
C2220 C 0.56495 0.99737 0.77442 0.0
C2221 C 0.56533 0.02284 0.76647 0.0
C2222 C 0.41616 0.50665 0.77444 0.0
C2223 C 0.42743 0.52599 0.76043 0.0
C2224 C 0.41594 0.48192 0.76559 0.0
C2225 C 0.427 0.47589 0.74256 0.0
H2226 H 0.40784 0.51063 0.79252 0.0
H2227 H 0.40732 0.46737 0.77681 0.0
S2228 S 0.45666 0.51955 0.69773 0.0
N2229 N 0.44835 0.53747 0.7216 0.0
N2230 N 0.44808 0.49076 0.70525 0.0
C2231 C 0.43784 0.49493 0.72817 0.0
C2232 C 0.43805 0.52008 0.73707 0.0
C2233 C 0.73825 0.56224 0.98746 0.0
C2234 C 0.75832 0.5778 0.98006 0.0
C2235 C 0.72993 0.56165 0.01226 0.0
C2236 C 0.74093 0.57703 0.03043 0.0
H2237 H 0.72866 0.55049 0.97401 0.0
H2238 H 0.71446 0.54949 0.01724 0.0
S2239 S 0.79363 0.6211 0.02197 0.0
N2240 N 0.78941 0.60851 0.994 0.0
N2241 N 0.77225 0.60828 0.04024 0.0
C2242 C 0.76053 0.59296 0.02359 0.0
C2243 C 0.7696 0.59318 0.99848 0.0
C2244 C 0.7276 0.42282 0.49363 0.0
C2245 C 0.74484 0.42549 0.47392 0.0
C2246 C 0.73568 0.42256 0.51859 0.0
C2247 C 0.76128 0.42429 0.52444 0.0
H2248 H 0.70777 0.42107 0.48963 0.0
H2249 H 0.72197 0.42039 0.53338 0.0
S2250 S 0.81375 0.43124 0.47951 0.0
N2251 N 0.78841 0.43 0.46171 0.0
N2252 N 0.80378 0.42884 0.50873 0.0
C2253 C 0.77869 0.42683 0.50488 0.0
C2254 C 0.77041 0.42763 0.47954 0.0
C2255 C 0.27117 0.05889 0.49694 0.0
C2256 C 0.26033 0.0733 0.47785 0.0
C2257 C 0.26186 0.05995 0.52142 0.0
C2258 C 0.24117 0.07517 0.52749 0.0
H2259 H 0.2871 0.04699 0.49287 0.0
H2260 H 0.27102 0.04887 0.53573 0.0
S2261 S 0.20531 0.11503 0.48303 0.0
N2262 N 0.22794 0.1027 0.46591 0.0
N2263 N 0.20933 0.1039 0.51163 0.0
C2264 C 0.23002 0.08945 0.50826 0.0
C2265 C 0.23989 0.08869 0.48348 0.0
C2266 C 0.48054 0.7414 0.94087 0.0
C2267 C 0.47457 0.76252 0.92623 0.0
C2268 C 0.50505 0.73211 0.94183 0.0
C2269 C 0.52422 0.74347 0.92795 0.0
H2270 H 0.46613 0.7319 0.95153 0.0
H2271 H 0.50906 0.71579 0.95321 0.0
S2272 S 0.5193 0.79985 0.88815 0.0
N2273 N 0.49056 0.79532 0.89872 0.0
N2274 N 0.53641 0.77692 0.89992 0.0
C2275 C 0.5187 0.76442 0.91325 0.0
C2276 C 0.49388 0.77419 0.91252 0.0
C2277 C 0.49788 0.22575 0.57813 0.0
C2278 C 0.47799 0.24277 0.57522 0.0
C2279 C 0.52274 0.23416 0.57892 0.0
C2280 C 0.52822 0.25985 0.57763 0.0
H2281 H 0.49411 0.20584 0.57951 0.0
H2282 H 0.53776 0.22066 0.58089 0.0
S2283 S 0.4828 0.31187 0.57119 0.0
N2284 N 0.46531 0.28629 0.57132 0.0
N2285 N 0.5121 0.3022 0.57394 0.0
C2286 C 0.5085 0.27704 0.57522 0.0
C2287 C 0.4833 0.26845 0.5737 0.0
C2288 C 0.94464 0.48176 0.74668 0.0
C2289 C 0.92195 0.46921 0.7512 0.0
C2290 C 0.94485 0.5067 0.73854 0.0
C2291 C 0.92238 0.51998 0.73463 0.0
H2292 H 0.96233 0.47245 0.7501 0.0
H2293 H 0.96276 0.51566 0.7353 0.0
S2294 S 0.8579 0.49481 0.74249 0.0
N2295 N 0.87647 0.4711 0.74947 0.0
N2296 N 0.87674 0.51836 0.73569 0.0
C2297 C 0.89953 0.50739 0.73865 0.0
C2298 C 0.89936 0.48192 0.74658 0.0
C2299 C 0.05908 0.00889 0.77002 0.0
C2300 C 0.07577 0.02716 0.76123 0.0
C2301 C 0.05991 0.98435 0.7608 0.0
C2302 C 0.07716 0.97729 0.74208 0.0
H2303 H 0.0455 0.0136 0.78435 0.0
H2304 H 0.04693 0.97079 0.76847 0.0
S2305 S 0.12435 0.01922 0.71244 0.0
N2306 N 0.10999 0.03715 0.73316 0.0
N2307 N 0.11095 0.99139 0.71463 0.0
C2308 C 0.09398 0.99566 0.73311 0.0
C2309 C 0.0934 0.02052 0.74297 0.0
C2310 C 0.74002 0.05957 0.02206 0.0
C2311 C 0.7607 0.07497 0.0278 0.0
C2312 C 0.72937 0.05952 0.99809 0.0
C2313 C 0.73877 0.07516 0.97923 0.0
H2314 H 0.73192 0.04752 0.03621 0.0
H2315 H 0.71358 0.04735 0.99424 0.0
S2316 S 0.79323 0.11776 0.98352 0.0
N2317 N 0.791 0.1052 0.01172 0.0
N2318 N 0.76995 0.10575 0.96703 0.0
C2319 C 0.75921 0.0907 0.98452 0.0
C2320 C 0.77044 0.09048 0.00875 0.0
C2321 C 0.51786 0.25199 0.10118 0.0
C2322 C 0.52832 0.23971 0.0804 0.0
C2323 C 0.49343 0.26151 0.10022 0.0
C2324 C 0.47872 0.25871 0.07852 0.0
H2325 H 0.52899 0.25497 0.1179 0.0
H2326 H 0.48644 0.27202 0.11611 0.0
S2327 S 0.49643 0.22429 0.02078 0.0
N2328 N 0.52164 0.22293 0.0387 0.0
N2329 N 0.47539 0.2402 0.03699 0.0
C2330 C 0.48859 0.24515 0.0582 0.0
C2331 C 0.51351 0.23581 0.0591 0.0
C2332 C 0.50755 0.77492 0.42917 0.0
C2333 C 0.52775 0.75835 0.42602 0.0
C2334 C 0.48285 0.76597 0.42975 0.0
C2335 C 0.47778 0.74033 0.42649 0.0
H2336 H 0.51101 0.79478 0.43153 0.0
H2337 H 0.46759 0.77908 0.4324 0.0
S2338 S 0.52431 0.6897 0.41705 0.0
N2339 N 0.54132 0.71547 0.41958 0.0
N2340 N 0.49478 0.69863 0.41985 0.0
C2341 C 0.49785 0.72371 0.42295 0.0
C2342 C 0.52293 0.73275 0.42294 0.0
C2343 C 0.05961 0.50975 0.23345 0.0
C2344 C 0.07775 0.52693 0.24152 0.0
C2345 C 0.05944 0.48519 0.24258 0.0
C2346 C 0.07712 0.47715 0.26047 0.0
H2347 H 0.04571 0.51534 0.21975 0.0
H2348 H 0.04542 0.47238 0.23544 0.0
S2349 S 0.12747 0.51648 0.28858 0.0
N2350 N 0.11341 0.53514 0.2683 0.0
N2351 N 0.11251 0.48943 0.28687 0.0
C2352 C 0.09518 0.49458 0.26895 0.0
C2353 C 0.09561 0.51939 0.25911 0.0
C2354 C 0.94749 0.98215 0.25644 0.0
C2355 C 0.92866 0.97429 0.23967 0.0
C2356 C 0.94795 0.0066 0.26592 0.0
C2357 C 0.92937 0.02396 0.25932 0.0
H2358 H 0.96193 0.96926 0.26248 0.0
H2359 H 0.96269 0.0119 0.27884 0.0
S2360 S 0.87638 0.01383 0.21574 0.0
N2361 N 0.89143 0.98679 0.2161 0.0
N2362 N 0.89192 0.03234 0.23507 0.0
C2363 C 0.91034 0.01656 0.24284 0.0
C2364 C 0.91006 0.99181 0.23273 0.0
C2365 C 0.26109 0.91512 0.98233 0.0
C2366 C 0.23961 0.92897 0.97631 0.0
C2367 C 0.27043 0.91496 0.00687 0.0
C2368 C 0.25836 0.92846 0.0261 0.0
H2369 H 0.27086 0.90475 0.96787 0.0
H2370 H 0.28742 0.90457 0.01072 0.0
S2371 S 0.19966 0.9652 0.01977 0.0
N2372 N 0.20559 0.95506 0.99113 0.0
N2373 N 0.22257 0.95434 0.03755 0.0
C2374 C 0.23637 0.94177 0.02024 0.0
C2375 C 0.22711 0.9421 0.99523 0.0
C2376 C 0.146 0.15789 0.47441 0.0
C2377 C 0.12811 0.14419 0.46078 0.0
C2378 C 0.15192 0.15163 0.4992 0.0
C2379 C 0.13987 0.13166 0.51165 0.0
H2380 H 0.15577 0.17344 0.46573 0.0
H2381 H 0.16644 0.16235 0.50851 0.0
S2382 S 0.08999 0.09122 0.48465 0.0
N2383 N 0.09771 0.11032 0.46156 0.0
N2384 N 0.10805 0.09908 0.50854 0.0
C2385 C 0.12161 0.11803 0.49826 0.0
C2386 C 0.11592 0.12416 0.47278 0.0
C2387 C 0.89185 0.36321 0.472 0.0
C2388 C 0.87301 0.35857 0.45416 0.0
C2389 C 0.88574 0.36848 0.4971 0.0
C2390 C 0.8606 0.36901 0.50506 0.0
H2391 H 0.91141 0.36205 0.46667 0.0
H2392 H 0.90075 0.37123 0.5105 0.0
S2393 S 0.80448 0.35974 0.4649 0.0
N2394 N 0.82849 0.35562 0.44583 0.0
N2395 N 0.81679 0.36632 0.49252 0.0
C2396 C 0.84166 0.36531 0.48703 0.0
C2397 C 0.84793 0.35982 0.46169 0.0
C2398 C 0.14514 0.88816 0.01314 0.0
C2399 C 0.13717 0.87364 0.99257 0.0
C2400 C 0.1396 0.88093 0.03786 0.0
C2401 C 0.12605 0.85884 0.04288 0.0
H2402 H 0.1566 0.90466 0.01016 0.0
H2403 H 0.14673 0.89225 0.05313 0.0
S2404 S 0.09799 0.81627 0.99542 0.0
N2405 N 0.11292 0.83765 0.97877 0.0
N2406 N 0.10264 0.82397 0.02502 0.0
C2407 C 0.117 0.84485 0.02239 0.0
C2408 C 0.12253 0.85227 0.99731 0.0
C2409 C 0.85752 0.61171 0.01355 0.0
C2410 C 0.86524 0.62571 0.99256 0.0
C2411 C 0.86354 0.61941 0.03805 0.0
C2412 C 0.87755 0.64135 0.0424 0.0
H2413 H 0.84567 0.59539 0.01114 0.0
H2414 H 0.8563 0.60865 0.05366 0.0
S2415 S 0.9065 0.68171 0.99366 0.0
N2416 N 0.89066 0.66046 0.97768 0.0
N2417 N 0.90192 0.67492 0.02347 0.0
C2418 C 0.88683 0.65448 0.02149 0.0
C2419 C 0.88074 0.64664 0.99665 0.0
C2420 C 0.47232 0.1294 0.1272 0.0
C2421 C 0.46426 0.12302 0.15154 0.0
C2422 C 0.49766 0.13452 0.12212 0.0
C2423 C 0.51582 0.13345 0.14119 0.0
H2424 H 0.4589 0.13118 0.11208 0.0
H2425 H 0.50289 0.14049 0.10344 0.0
S2426 S 0.50546 0.11488 0.20722 0.0
N2427 N 0.47736 0.11376 0.19433 0.0
N2428 N 0.52467 0.12371 0.18464 0.0
C2429 C 0.50833 0.12603 0.16522 0.0
C2430 C 0.48264 0.12073 0.17043 0.0
C2431 C 0.51306 0.36035 0.11538 0.0
C2432 C 0.49298 0.3675 0.13094 0.0
C2433 C 0.53802 0.3658 0.12195 0.0
C2434 C 0.5438 0.37851 0.14437 0.0
H2435 H 0.50954 0.34955 0.09854 0.0
H2436 H 0.5529 0.35924 0.1098 0.0
S2437 S 0.49766 0.40438 0.18967 0.0
N2438 N 0.48035 0.39007 0.16837 0.0
N2439 N 0.52699 0.40042 0.18069 0.0
C2440 C 0.52374 0.38683 0.15939 0.0
C2441 C 0.49842 0.3813 0.15269 0.0
C2442 C 0.50467 0.87562 0.3506 0.0
C2443 C 0.50983 0.86263 0.37296 0.0
C2444 C 0.48004 0.88127 0.34346 0.0
C2445 C 0.45948 0.8744 0.35847 0.0
H2446 H 0.51981 0.88114 0.33825 0.0
H2447 H 0.47712 0.89105 0.32592 0.0
S2448 S 0.46262 0.84027 0.41893 0.0
N2449 N 0.49215 0.84294 0.41008 0.0
N2450 N 0.44589 0.85434 0.39702 0.0
C2451 C 0.46432 0.8621 0.38127 0.0
C2452 C 0.48946 0.85604 0.38842 0.0
C2453 C 0.5322 0.61504 0.37988 0.0
C2454 C 0.54639 0.62983 0.36334 0.0
C2455 C 0.50715 0.62119 0.38541 0.0
C2456 C 0.49562 0.6424 0.37467 0.0
H2457 H 0.54018 0.59813 0.38779 0.0
H2458 H 0.49655 0.60891 0.3976 0.0
S2459 S 0.52664 0.6893 0.33358 0.0
N2460 N 0.54822 0.66763 0.33825 0.0
N2461 N 0.50174 0.6799 0.34936 0.0
C2462 C 0.51029 0.65802 0.35922 0.0
C2463 C 0.53552 0.65154 0.35337 0.0
C2464 C 0.11741 0.48811 0.14705 0.0
C2465 C 0.13182 0.50855 0.13858 0.0
C2466 C 0.12413 0.46328 0.14123 0.0
C2467 C 0.14563 0.45797 0.12689 0.0
H2468 H 0.10129 0.49125 0.15899 0.0
H2469 H 0.11284 0.44814 0.14869 0.0
S2470 S 0.18776 0.50491 0.09745 0.0
N2471 N 0.16712 0.52185 0.11307 0.0
N2472 N 0.17991 0.4754 0.10241 0.0
C2473 C 0.1596 0.4783 0.11749 0.0
C2474 C 0.15267 0.50351 0.12327 0.0
C2475 C 0.11512 0.5137 0.35349 0.0
C2476 C 0.12927 0.49306 0.36184 0.0
C2477 C 0.1222 0.53839 0.35949 0.0
C2478 C 0.14359 0.54326 0.37417 0.0
H2479 H 0.09909 0.51082 0.34135 0.0
H2480 H 0.11131 0.55373 0.35187 0.0
S2481 S 0.18421 0.49539 0.40429 0.0
N2482 N 0.1638 0.47893 0.38784 0.0
N2483 N 0.17682 0.52505 0.39957 0.0
C2484 C 0.15692 0.52264 0.38387 0.0
C2485 C 0.14982 0.49762 0.37762 0.0
C2486 C 0.85158 0.97472 0.38402 0.0
C2487 C 0.86376 0.95388 0.3734 0.0
C2488 C 0.85891 0.99924 0.37817 0.0
C2489 C 0.87865 0.00392 0.36135 0.0
H2490 H 0.83611 0.9721 0.39691 0.0
H2491 H 0.84879 0.01469 0.38659 0.0
S2492 S 0.91599 0.9559 0.32758 0.0
N2493 N 0.89639 0.93949 0.34505 0.0
N2494 N 0.90991 0.98565 0.33365 0.0
C2495 C 0.89123 0.98326 0.35079 0.0
C2496 C 0.88385 0.95822 0.35691 0.0
C2497 C 0.38696 0.51598 0.65077 0.0
C2498 C 0.37426 0.49538 0.64019 0.0
C2499 C 0.37968 0.54073 0.6453 0.0
C2500 C 0.35937 0.54572 0.62919 0.0
H2501 H 0.40197 0.51295 0.66411 0.0
H2502 H 0.38949 0.55601 0.65441 0.0
S2503 S 0.3225 0.49834 0.59391 0.0
N2504 N 0.34218 0.48164 0.61097 0.0
N2505 N 0.32859 0.52793 0.60063 0.0
C2506 C 0.34738 0.52526 0.6176 0.0
C2507 C 0.3548 0.50016 0.62312 0.0
C2508 C 0.87997 0.88119 0.50716 0.0
C2509 C 0.85824 0.87083 0.49622 0.0
C2510 C 0.8867 0.87567 0.53204 0.0
C2511 C 0.87214 0.85933 0.5467 0.0
H2512 H 0.89218 0.89318 0.49625 0.0
H2513 H 0.90385 0.88353 0.53957 0.0
S2514 S 0.8118 0.83013 0.52851 0.0
N2515 N 0.82063 0.84592 0.50341 0.0
N2516 N 0.83416 0.83451 0.54945 0.0
C2517 C 0.85006 0.84949 0.53636 0.0
C2518 C 0.84288 0.85551 0.51132 0.0
C2519 C 0.14473 0.6151 0.51204 0.0
C2520 C 0.13763 0.63015 0.49156 0.0
C2521 C 0.13879 0.62201 0.53676 0.0
C2522 C 0.12541 0.64417 0.5419 0.0
H2523 H 0.15591 0.59842 0.50904 0.0
H2524 H 0.14544 0.61031 0.55195 0.0
S2525 S 0.09866 0.68763 0.49453 0.0
N2526 N 0.11396 0.66652 0.47786 0.0
N2527 N 0.10254 0.67938 0.52408 0.0
C2528 C 0.11693 0.65854 0.52145 0.0
C2529 C 0.12307 0.65156 0.49636 0.0
C2530 C 0.85724 0.15481 0.97313 0.0
C2531 C 0.87628 0.1422 0.96009 0.0
C2532 C 0.85098 0.14821 0.99773 0.0
C2533 C 0.86387 0.12905 0.01062 0.0
H2534 H 0.84684 0.16975 0.96413 0.0
H2535 H 0.83563 0.1581 0.00656 0.0
S2536 S 0.91661 0.09146 0.98505 0.0
N2537 N 0.90845 0.11008 0.96172 0.0
N2538 N 0.89752 0.0983 0.00845 0.0
C2539 C 0.8832 0.11643 0.99776 0.0
C2540 C 0.88922 0.12287 0.97242 0.0
C2541 C 0.13864 0.38057 0.96434 0.0
C2542 C 0.12435 0.35901 0.95902 0.0
C2543 C 0.14516 0.38689 0.98907 0.0
C2544 C 0.13749 0.37198 0.00945 0.0
H2545 H 0.14555 0.39223 0.94923 0.0
H2546 H 0.15707 0.40305 0.99215 0.0
S2547 S 0.097 0.31552 0.00597 0.0
N2548 N 0.10087 0.32403 0.97649 0.0
N2549 N 0.1129 0.33606 0.02283 0.0
C2550 C 0.12226 0.35104 0.00448 0.0
C2551 C 0.11575 0.34452 0.97933 0.0
C2552 C 0.50269 0.88134 0.88032 0.0
C2553 C 0.49018 0.86214 0.86713 0.0
C2554 C 0.52747 0.88808 0.87443 0.0
C2555 C 0.54052 0.87608 0.85495 0.0
H2556 H 0.49317 0.89149 0.89509 0.0
H2557 H 0.53626 0.90318 0.8848 0.0
S2558 S 0.51784 0.82267 0.81672 0.0
N2559 N 0.49408 0.82956 0.83529 0.0
N2560 N 0.54006 0.84304 0.82369 0.0
C2561 C 0.52854 0.8566 0.84194 0.0
C2562 C 0.50353 0.84945 0.84814 0.0
C2563 C 0.50259 0.6263 0.85553 0.0
C2564 C 0.50717 0.64163 0.87651 0.0
C2565 C 0.47811 0.62014 0.84817 0.0
C2566 C 0.45715 0.62895 0.86156 0.0
H2567 H 0.51809 0.61929 0.84444 0.0
H2568 H 0.47562 0.60848 0.83173 0.0
S2569 S 0.45882 0.67043 0.9174 0.0
N2570 N 0.48861 0.66601 0.91025 0.0
N2571 N 0.4426 0.65402 0.89673 0.0
C2572 C 0.46142 0.64393 0.88286 0.0
C2573 C 0.48641 0.65036 0.89026 0.0
C2574 C 0.53159 0.11664 0.62906 0.0
C2575 C 0.54649 0.13291 0.6435 0.0
C2576 C 0.50691 0.12317 0.62241 0.0
C2577 C 0.49648 0.14627 0.62983 0.0
H2578 H 0.53879 0.09846 0.62358 0.0
H2579 H 0.49571 0.10979 0.61201 0.0
S2580 S 0.52965 0.19688 0.66443 0.0
N2581 N 0.55014 0.17373 0.66311 0.0
N2582 N 0.50437 0.18661 0.64978 0.0
C2583 C 0.51187 0.16317 0.64313 0.0
C2584 C 0.53672 0.15632 0.65021 0.0
C2585 C 0.47075 0.38563 0.62413 0.0
C2586 C 0.45757 0.37321 0.64326 0.0
C2587 C 0.49542 0.37865 0.61787 0.0
C2588 C 0.50756 0.35864 0.63016 0.0
H2589 H 0.46228 0.4014 0.61456 0.0
H2590 H 0.50522 0.38943 0.60375 0.0
S2591 S 0.47908 0.31765 0.67887 0.0
N2592 N 0.45747 0.33902 0.67317 0.0
N2593 N 0.5027 0.32443 0.6601 0.0
C2594 C 0.49376 0.34517 0.6483 0.0
C2595 C 0.46909 0.35284 0.65519 0.0
C2596 C 0.88077 0.50408 0.86511 0.0
C2597 C 0.86169 0.48605 0.86255 0.0
C2598 C 0.87512 0.52915 0.87108 0.0
C2599 C 0.85017 0.5371 0.87474 0.0
H2600 H 0.9001 0.499 0.86152 0.0
H2601 H 0.89042 0.54243 0.87241 0.0
S2602 S 0.79363 0.49631 0.87176 0.0
N2603 N 0.81721 0.47728 0.86565 0.0
N2604 N 0.80638 0.52414 0.87616 0.0
C2605 C 0.83106 0.51889 0.8729 0.0
C2606 C 0.83687 0.49346 0.86701 0.0
C2607 C 0.84406 0.48999 0.59687 0.0
C2608 C 0.84586 0.46752 0.61072 0.0
C2609 C 0.85384 0.51261 0.606 0.0
C2610 C 0.86622 0.51363 0.62915 0.0
H2611 H 0.83437 0.49039 0.57903 0.0
H2612 H 0.85126 0.52955 0.59511 0.0
S2613 S 0.87678 0.46064 0.67276 0.0
N2614 N 0.86156 0.44799 0.6489 0.0
N2615 N 0.88017 0.49062 0.6658 0.0
C2616 C 0.8688 0.49141 0.64302 0.0
C2617 C 0.85858 0.46833 0.63388 0.0
C2618 C 0.15155 1.00018 0.62869 0.0
C2619 C 0.12861 0.99477 0.64058 0.0
C2620 C 0.15851 0.02482 0.62289 0.0
C2621 C 0.14272 0.04521 0.62836 0.0
H2622 H 0.16446 0.98523 0.624 0.0
H2623 H 0.17648 0.02786 0.61398 0.0
S2624 S 0.08025 0.04154 0.65867 0.0
N2625 N 0.08992 0.01219 0.65743 0.0
N2626 N 0.10268 0.05838 0.6456 0.0
C2627 C 0.11934 0.04014 0.63943 0.0
C2628 C 0.11235 0.01499 0.64571 0.0
C2629 C 0.65152 0.50146 0.37556 0.0
C2630 C 0.6299 0.50673 0.36143 0.0
C2631 C 0.65872 0.47673 0.38074 0.0
C2632 C 0.64457 0.45618 0.37207 0.0
H2633 H 0.66318 0.51662 0.38242 0.0
H2634 H 0.67564 0.47374 0.39157 0.0
S2635 S 0.5868 0.45978 0.33345 0.0
N2636 N 0.59469 0.48933 0.33826 0.0
N2637 N 0.60797 0.44283 0.34836 0.0
C2638 C 0.62267 0.46116 0.35821 0.0
C2639 C 0.6154 0.48641 0.35281 0.0
C2640 C 0.61909 0.62654 0.9724 0.0
C2641 C 0.63001 0.64723 0.96029 0.0
C2642 C 0.62531 0.62055 0.99732 0.0
C2643 C 0.64301 0.63478 0.0109 0.0
H2644 H 0.6051 0.61535 0.96282 0.0
H2645 H 0.61586 0.60489 0.00611 0.0
S2646 S 0.67933 0.68885 0.98604 0.0
N2647 N 0.66034 0.68101 0.96291 0.0
N2648 N 0.67327 0.66898 0.00894 0.0
C2649 C 0.6548 0.6549 0.99842 0.0
C2650 C 0.648 0.66131 0.97334 0.0
C2651 C 0.37549 0.85333 1.00084 0.0
C2652 C 0.36125 0.87488 0.00607 0.0
C2653 C 0.38153 0.84664 0.97617 0.0
C2654 C 0.37367 0.86128 0.95568 0.0
H2655 H 0.38174 0.8413 0.01596 0.0
H2656 H 0.39237 0.82974 0.97315 0.0
S2657 S 0.33526 0.91912 0.9591 0.0
N2658 N 0.33896 0.91061 0.98863 0.0
N2659 N 0.35071 0.89824 0.94224 0.0
C2660 C 0.35982 0.88316 0.96061 0.0
C2661 C 0.35351 0.8899 0.9858 0.0
C2662 C 0.6418 0.38003 0.53638 0.0
C2663 C 0.62827 0.35805 0.54192 0.0
C2664 C 0.64811 0.38629 0.51157 0.0
C2665 C 0.64101 0.37087 0.49133 0.0
H2666 H 0.64825 0.39214 0.55135 0.0
H2667 H 0.65938 0.40286 0.50831 0.0
S2668 S 0.60267 0.31298 0.49537 0.0
N2669 N 0.60616 0.32199 0.52476 0.0
N2670 N 0.61781 0.33389 0.47833 0.0
C2671 C 0.62659 0.34943 0.49653 0.0
C2672 C 0.62027 0.343 0.52174 0.0
C2673 C 0.38239 0.15573 0.5233 0.0
C2674 C 0.3735 0.14265 0.54443 0.0
C2675 C 0.37604 0.14822 0.49891 0.0
C2676 C 0.36045 0.12738 0.49459 0.0
H2677 H 0.39435 0.17199 0.52559 0.0
H2678 H 0.38325 0.15896 0.48327 0.0
S2679 S 0.33089 0.08763 0.54344 0.0
N2680 N 0.34771 0.10817 0.55939 0.0
N2681 N 0.33541 0.09436 0.51358 0.0
C2682 C 0.35143 0.11408 0.51553 0.0
C2683 C 0.35804 0.12164 0.54041 0.0
C2684 C 0.9621 0.64115 0.62155 0.0
C2685 C 0.95701 0.62663 0.64297 0.0
C2686 C 0.98683 0.64737 0.61488 0.0
C2687 C 0.00739 0.63914 0.62927 0.0
H2688 H 0.94685 0.6484 0.61028 0.0
H2689 H 0.98981 0.65942 0.59882 0.0
S2690 S 0.00434 0.59768 0.68499 0.0
N2691 N 0.97477 0.60225 0.67714 0.0
N2692 N 0.02106 0.61367 0.66445 0.0
C2693 C 0.00257 0.62367 0.65004 0.0
C2694 C 0.97746 0.61748 0.65692 0.0
C2695 C 0.00594 0.87847 0.61877 0.0
C2696 C 0.99238 0.8609 0.63313 0.0
C2697 C 0.03108 0.88421 0.62431 0.0
C2698 C 0.04343 0.87281 0.64459 0.0
H2699 H 0.99699 0.88814 0.60334 0.0
H2700 H 0.04067 0.89815 0.6131 0.0
S2701 S 0.01794 0.82327 0.68598 0.0
N2702 N 0.99457 0.83023 0.66694 0.0
N2703 N 0.04121 0.84192 0.67783 0.0
C2704 C 0.03042 0.85489 0.65873 0.0
C2705 C 0.00505 0.84875 0.65293 0.0
C2706 C 0.98725 0.40116 0.84387 0.0
C2707 C 0.96474 0.38736 0.84513 0.0
C2708 C 0.00949 0.39194 0.85433 0.0
C2709 C 0.00995 0.36883 0.86683 0.0
H2710 H 0.98798 0.41883 0.83393 0.0
H2711 H 0.02662 0.40261 0.85204 0.0
S2712 S 0.95631 0.3259 0.87676 0.0
N2713 N 0.94433 0.34967 0.86095 0.0
N2714 N 0.9863 0.33259 0.88072 0.0
C2715 C 0.98759 0.3552 0.86908 0.0
C2716 C 0.96492 0.36441 0.85821 0.0
C2717 C 0.03197 0.11957 0.87933 0.0
C2718 C 0.04456 0.13235 0.86005 0.0
C2719 C 0.00709 0.12566 0.88561 0.0
C2720 C 0.99413 0.14491 0.87299 0.0
H2721 H 0.0411 0.10424 0.88901 0.0
H2722 H 0.99778 0.11484 0.90004 0.0
S2723 S 0.02064 0.1865 0.82382 0.0
N2724 N 0.0433 0.16634 0.82993 0.0
N2725 N 0.99719 0.17867 0.84241 0.0
C2726 C 0.00717 0.15862 0.85456 0.0
C2727 C 0.03221 0.15211 0.84791 0.0
C2728 C 0.61515 0.99082 0.64997 0.0
C2729 C 0.62756 0.01158 0.63939 0.0
C2730 C 0.62221 0.96616 0.64382 0.0
C2731 C 0.64195 0.96146 0.62696 0.0
H2732 H 0.60062 0.99365 0.66386 0.0
H2733 H 0.61281 0.95073 0.65308 0.0
S2734 S 0.6776 0.00944 0.59131 0.0
N2735 N 0.65862 0.02585 0.60942 0.0
N2736 N 0.67163 0.97974 0.59758 0.0
C2737 C 0.65347 0.98212 0.61526 0.0
C2738 C 0.64635 0.00711 0.62155 0.0
C2739 C 0.62019 0.04105 0.85733 0.0
C2740 C 0.63861 0.04576 0.87562 0.0
C2741 C 0.61314 0.01639 0.85117 0.0
C2742 C 0.62418 0.99562 0.86317 0.0
H2743 H 0.61187 0.05643 0.84702 0.0
H2744 H 0.59972 0.01355 0.83619 0.0
S2745 S 0.67031 0.99801 0.91509 0.0
N2746 N 0.66556 0.02766 0.90762 0.0
N2747 N 0.65241 0.98152 0.89595 0.0
C2748 C 0.64161 1.00017 0.88237 0.0
C2749 C 0.64878 0.02518 0.88862 0.0
C2750 C 0.37893 0.46402 0.86082 0.0
C2751 C 0.35718 0.45897 0.87488 0.0
C2752 C 0.38631 0.48876 0.85558 0.0
C2753 C 0.37229 0.50932 0.86436 0.0
H2754 H 0.38986 0.44878 0.85304 0.0
H2755 H 0.4025 0.49179 0.8437 0.0
S2756 S 0.31594 0.50636 0.90492 0.0
N2757 N 0.32316 0.47676 0.89955 0.0
N2758 N 0.33712 0.52306 0.88976 0.0
C2759 C 0.35127 0.50453 0.87947 0.0
C2760 C 0.3437 0.47943 0.88472 0.0
C2761 C 0.84719 0.02169 0.12041 0.0
C2762 C 0.862 0.0421 0.1282 0.0
C2763 C 0.85381 0.99698 0.12629 0.0
C2764 C 0.87545 0.99156 0.14038 0.0
H2765 H 0.83023 0.02479 0.1097 0.0
H2766 H 0.84169 0.98197 0.11993 0.0
S2767 S 0.92051 0.03842 0.16557 0.0
N2768 N 0.8994 0.05535 0.15056 0.0
N2769 N 0.91172 0.00894 0.16205 0.0
C2770 C 0.89072 0.01182 0.14791 0.0
C2771 C 0.88402 0.03705 0.14174 0.0
C2772 C 0.35653 0.3878 0.01268 0.0
C2773 C 0.3586 0.37022 0.99302 0.0
C2774 C 0.36229 0.38136 0.0376 0.0
C2775 C 0.36987 0.35691 0.04403 0.0
H2776 H 0.34989 0.40657 0.00896 0.0
H2777 H 0.36047 0.39563 0.05193 0.0
S2778 S 0.37899 0.30392 0.99949 0.0
N2779 N 0.37119 0.32787 0.98164 0.0
N2780 N 0.3782 0.31477 0.02838 0.0
C2781 C 0.37177 0.33911 0.02453 0.0
C2782 C 0.36719 0.34601 0.99911 0.0
C2783 C 0.59985 0.14594 0.02026 0.0
C2784 C 0.61603 0.15351 0.03981 0.0
C2785 C 0.60922 0.13681 0.99743 0.0
C2786 C 0.63511 0.13512 0.9932 0.0
H2787 H 0.57972 0.14758 0.02233 0.0
H2788 H 0.59616 0.13191 0.98266 0.0
S2789 S 0.6856 0.15011 0.03854 0.0
N2790 N 0.65945 0.15682 0.05367 0.0
N2791 N 0.67684 0.13994 0.01065 0.0
C2792 C 0.65151 0.14165 0.01275 0.0
C2793 C 0.64203 0.15074 0.03608 0.0
C2794 C 0.38311 0.65645 0.47904 0.0
C2795 C 0.37471 0.64207 0.45856 0.0
C2796 C 0.37683 0.65 0.5037 0.0
C2797 C 0.36178 0.62899 0.50891 0.0
H2798 H 0.39457 0.67294 0.47602 0.0
H2799 H 0.38359 0.66175 0.51884 0.0
S2800 S 0.33389 0.58586 0.46192 0.0
N2801 N 0.3502 0.60607 0.44508 0.0
N2802 N 0.33795 0.59423 0.49145 0.0
C2803 C 0.35338 0.61432 0.48863 0.0
C2804 C 0.35994 0.62079 0.46346 0.0
C2805 C 0.63978 0.881 0.46441 0.0
C2806 C 0.62795 0.85796 0.45927 0.0
C2807 C 0.64542 0.88825 0.48911 0.0
C2808 C 0.63948 0.87272 0.5096 0.0
H2809 H 0.64543 0.89321 0.44922 0.0
H2810 H 0.65544 0.90567 0.49207 0.0
S2811 S 0.60504 0.81236 0.50667 0.0
N2812 N 0.60812 0.82092 0.47712 0.0
N2813 N 0.61868 0.83461 0.52331 0.0
C2814 C 0.62652 0.85028 0.50481 0.0
C2815 C 0.6208 0.84288 0.47974 0.0
C2816 C 0.02404 0.38232 0.34563 0.0
C2817 C 0.04465 0.37251 0.35889 0.0
C2818 C 0.99937 0.37641 0.35242 0.0
C2819 C 0.99427 0.36047 0.37275 0.0
H2820 H 0.02695 0.3946 0.32975 0.0
H2821 H 0.98412 0.38411 0.34143 0.0
S2822 S 0.04143 0.32901 0.41304 0.0
N2823 N 0.05827 0.34576 0.39318 0.0
N2824 N 0.01184 0.33445 0.40577 0.0
C2825 C 0.01465 0.35075 0.38641 0.0
C2826 C 0.03983 0.35683 0.37953 0.0
C2827 C 0.99913 0.12206 0.38558 0.0
C2828 C 0.01255 0.13984 0.37138 0.0
C2829 C 0.97434 0.11556 0.37944 0.0
C2830 C 0.9622 0.12641 0.35874 0.0
H2831 H 0.00793 0.11284 0.40137 0.0
H2832 H 0.96485 0.10152 0.39062 0.0
S2833 S 0.9876 0.17599 0.31728 0.0
N2834 N 0.01061 0.16989 0.33704 0.0
N2835 N 0.96455 0.15693 0.32512 0.0
C2836 C 0.97512 0.1445 0.3447 0.0
C2837 C 1.00015 0.15138 0.35109 0.0
C2838 C 0.01463 0.6485 0.11471 0.0
C2839 C 0.99409 0.63992 0.12888 0.0
C2840 C 0.03937 0.64243 0.12145 0.0
C2841 C 0.04448 0.62762 0.14267 0.0
H2842 H 0.01158 0.66073 0.09883 0.0
H2843 H 0.05459 0.65005 0.11039 0.0
S2844 S 0.99706 0.59775 0.18398 0.0
N2845 N 0.98036 0.61407 0.16368 0.0
N2846 N 0.02665 0.60246 0.17626 0.0
C2847 C 0.024 0.61805 0.15632 0.0
C2848 C 0.99888 0.62426 0.14947 0.0
C2849 C 0.99249 0.84297 0.14459 0.0
C2850 C 0.00652 0.85756 0.12756 0.0
C2851 C 0.96796 0.84948 0.15124 0.0
C2852 C 0.95614 0.8704 0.1406 0.0
H2853 H 1.00056 0.82638 0.15305 0.0
H2854 H 0.95814 0.83804 0.16484 0.0
S2855 S 0.98392 0.9148 0.09506 0.0
N2856 N 0.00643 0.89422 0.1004 0.0
N2857 N 0.95976 0.90563 0.1121 0.0
C2858 C 0.9694 0.88473 0.12298 0.0
C2859 C 0.99469 0.87847 0.1166 0.0
C2860 C 0.3782 0.02725 0.38433 0.0
C2861 C 0.35778 0.03966 0.37325 0.0
C2862 C 0.38427 0.00247 0.37765 0.0
C2863 C 0.37041 0.98935 0.35932 0.0
H2864 H 0.38913 0.0365 0.39875 0.0
H2865 H 0.39974 0.99344 0.38718 0.0
S2866 S 0.31705 0.0151 0.32259 0.0
N2867 N 0.32459 0.03781 0.34222 0.0
N2868 N 0.33678 0.99203 0.3285 0.0
C2869 C 0.35051 0.00211 0.34746 0.0
C2870 C 0.34403 0.02704 0.3547 0.0
C2871 C 0.35646 0.00206 0.12437 0.0
C2872 C 0.37598 0.00639 0.14161 0.0
C2873 C 0.34908 0.97767 0.11793 0.0
C2874 C 0.36107 0.95658 0.12826 0.0
H2875 H 0.34654 0.01769 0.11604 0.0
H2876 H 0.33376 0.97533 0.10479 0.0
S2877 S 0.41246 0.95747 0.17502 0.0
N2878 N 0.40661 0.98737 0.16952 0.0
N2879 N 0.39314 0.94152 0.15683 0.0
C2880 C 0.38089 0.96055 0.14516 0.0
C2881 C 0.38826 0.98544 0.15196 0.0
C2882 C 0.64853 0.51041 0.15562 0.0
C2883 C 0.63037 0.49645 0.14235 0.0
C2884 C 0.65442 0.5351 0.14905 0.0
C2885 C 0.64208 0.5472 0.12923 0.0
H2886 H 0.65816 0.50238 0.17157 0.0
H2887 H 0.66867 0.54488 0.15973 0.0
S2888 S 0.59388 0.51938 0.08764 0.0
N2889 N 0.60084 0.4967 0.10752 0.0
N2890 N 0.61128 0.54361 0.09594 0.0
C2891 C 0.62369 0.53385 0.11592 0.0
C2892 C 0.61798 0.50841 0.12229 0.0
C2893 C 0.15455 0.97984 0.88218 0.0
C2894 C 0.14094 0.95932 0.87261 0.0
C2895 C 0.14791 0.00457 0.87633 0.0
C2896 C 0.12738 0.00981 0.86069 0.0
H2897 H 0.17061 0.97683 0.89422 0.0
H2898 H 0.15913 0.01973 0.88389 0.0
S2899 S 0.08618 0.96295 0.82986 0.0
N2900 N 0.10613 0.94597 0.84636 0.0
N2901 N 0.09383 0.99249 0.83514 0.0
C2902 C 0.11341 0.98954 0.85117 0.0
C2903 C 0.12013 0.96429 0.8572 0.0
loop_
_geom_bond_atom_site_label_1
_geom_bond_atom_site_label_2
_geom_bond_distance
_geom_bond_site_symmetry_2
_ccdc_geom_bond_type
Co0 N4 2.148 . S
Co0 N10 2.128 . S
Co0 N20 2.194 . S
Co0 O25 2.351 . S
Co0 O26 2.155 . S
Co0 O27 2.096 . S
C1 N4 1.301 . S
C1 N5 1.328 . S
C1 H6 0.930 . S
C2 C3 1.333 . S
C2 N4 1.317 . S
C2 H7 0.930 . S
C3 C2 1.333 . S
C3 N5 1.350 . S
C3 H29 0.931 . S
N4 Co0 2.148 . S
N4 C1 1.301 . S
N4 C2 1.317 . S
N5 C1 1.328 . S
N5 C3 1.350 . S
H6 C1 0.930 . S
H7 C2 0.930 . S
C8 O9 1.224 . S
C8 O27 1.247 . S
O9 C8 1.224 . S
N10 Co0 2.128 . S
N10 C11 1.355 . S
N10 C13 1.311 . S
C11 N10 1.355 . S
C11 C12 1.363 . S
C11 H23 0.929 . S
C12 C11 1.363 . S
C12 N14 1.375 . S
C12 H30 0.931 . S
C13 N10 1.311 . S
C13 N14 1.347 . S
C13 H24 0.929 . S
N14 C12 1.375 . S
N14 C13 1.347 . S
C15 C18 1.365 . S
C15 N20 1.328 . S
C15 H21 0.929 . S
C16 C17 1.362 . S
C16 C19 1.378 . S
C16 H31 0.929 . S
C17 C16 1.362 . S
C17 C18 1.366 . S
C18 C15 1.365 . S
C18 C17 1.366 . S
C18 H32 0.930 . S
C19 C16 1.378 . S
C19 N20 1.315 . S
C19 H22 0.930 . S
N20 Co0 2.194 . S
N20 C15 1.328 . S
N20 C19 1.315 . S
H21 C15 0.929 . S
H22 C19 0.930 . S
H23 C11 0.929 . S
H24 C13 0.929 . S
O25 Co0 2.351 . S
O25 C28 1.244 . S
O26 Co0 2.155 . S
O26 C28 1.240 . S
O27 Co0 2.096 . S
O27 C8 1.247 . S
C28 O25 1.244 . S
C28 O26 1.240 . S
H29 C3 0.931 . S
H30 C12 0.931 . S
H31 C16 0.929 . S
H32 C18 0.930 . S
Co33 N37 2.148 . S
Co33 N43 2.128 . S
Co33 N53 2.194 . S
Co33 O58 2.351 . S
Co33 O59 2.155 . S
Co33 O60 2.096 . S
C34 N37 1.301 . S
C34 N38 1.328 . S
C34 H39 0.930 . S
C35 C36 1.333 . S
C35 N37 1.317 . S
C35 H40 0.930 . S
C36 C35 1.333 . S
C36 N38 1.350 . S
C36 H62 0.931 . S
N37 Co33 2.148 . S
N37 C34 1.301 . S
N37 C35 1.317 . S
N38 C34 1.328 . S
N38 C36 1.350 . S
H39 C34 0.930 . S
H40 C35 0.930 . S
C41 O42 1.224 . S
C41 O60 1.247 . S
O42 C41 1.224 . S
N43 Co33 2.128 . S
N43 C44 1.355 . S
N43 C46 1.311 . S
C44 N43 1.355 . S
C44 C45 1.363 . S
C44 H56 0.929 . S
C45 C44 1.363 . S
C45 N47 1.375 . S
C45 H63 0.931 . S
C46 N43 1.311 . S
C46 N47 1.347 . S
C46 H57 0.929 . S
N47 C45 1.375 . S
N47 C46 1.347 . S
C48 C51 1.365 . S
C48 N53 1.328 . S
C48 H54 0.929 . S
C49 C50 1.362 . S
C49 C52 1.378 . S
C49 H64 0.929 . S
C50 C49 1.362 . S
C50 C51 1.366 . S
C51 C48 1.365 . S
C51 C50 1.366 . S
C51 H65 0.930 . S
C52 C49 1.378 . S
C52 N53 1.315 . S
C52 H55 0.930 . S
N53 Co33 2.194 . S
N53 C48 1.328 . S
N53 C52 1.315 . S
H54 C48 0.929 . S
H55 C52 0.930 . S
H56 C44 0.929 . S
H57 C46 0.929 . S
O58 Co33 2.351 . S
O58 C61 1.244 . S
O59 Co33 2.155 . S
O59 C61 1.240 . S
O60 Co33 2.096 . S
O60 C41 1.247 . S
C61 O58 1.244 . S
C61 O59 1.240 . S
H62 C36 0.931 . S
H63 C45 0.931 . S
H64 C49 0.929 . S
H65 C51 0.930 . S
Co66 N70 2.148 . S
Co66 N76 2.128 . S
Co66 N86 2.194 . S
Co66 O91 2.351 . S
Co66 O92 2.155 . S
Co66 O93 2.096 . S
C67 N70 1.301 . S
C67 N71 1.328 . S
C67 H72 0.930 . S
C68 C69 1.333 . S
C68 N70 1.317 . S
C68 H73 0.930 . S
C69 C68 1.333 . S
C69 N71 1.350 . S
C69 H95 0.931 . S
N70 Co66 2.148 . S
N70 C67 1.301 . S
N70 C68 1.317 . S
N71 C67 1.328 . S
N71 C69 1.350 . S
H72 C67 0.930 . S
H73 C68 0.930 . S
C74 O75 1.224 . S
C74 O93 1.247 . S
O75 C74 1.224 . S
N76 Co66 2.128 . S
N76 C77 1.355 . S
N76 C79 1.311 . S
C77 N76 1.355 . S
C77 C78 1.363 . S
C77 H89 0.929 . S
C78 C77 1.363 . S
C78 N80 1.375 . S
C78 H96 0.931 . S
C79 N76 1.311 . S
C79 N80 1.347 . S
C79 H90 0.929 . S
N80 C78 1.375 . S
N80 C79 1.347 . S
C81 C84 1.365 . S
C81 N86 1.328 . S
C81 H87 0.929 . S
C82 C83 1.362 . S
C82 C85 1.378 . S
C82 H97 0.929 . S
C83 C82 1.362 . S
C83 C84 1.366 . S
C84 C81 1.365 . S
C84 C83 1.366 . S
C84 H98 0.930 . S
C85 C82 1.378 . S
C85 N86 1.315 . S
C85 H88 0.930 . S
N86 Co66 2.194 . S
N86 C81 1.328 . S
N86 C85 1.315 . S
H87 C81 0.929 . S
H88 C85 0.930 . S
H89 C77 0.929 . S
H90 C79 0.929 . S
O91 Co66 2.351 . S
O91 C94 1.244 . S
O92 Co66 2.155 . S
O92 C94 1.240 . S
O93 Co66 2.096 . S
O93 C74 1.247 . S
C94 O91 1.244 . S
C94 O92 1.240 . S
H95 C69 0.931 . S
H96 C78 0.931 . S
H97 C82 0.929 . S
H98 C84 0.930 . S
Co99 N103 2.148 . S
Co99 N109 2.128 . S
Co99 N119 2.194 . S
Co99 O124 2.351 . S
Co99 O125 2.155 . S
Co99 O126 2.096 . S
C100 N103 1.301 . S
C100 N104 1.328 . S
C100 H105 0.930 . S
C101 C102 1.333 . S
C101 N103 1.317 . S
C101 H106 0.930 . S
C102 C101 1.333 . S
C102 N104 1.350 . S
C102 H128 0.931 . S
N103 Co99 2.148 . S
N103 C100 1.301 . S
N103 C101 1.317 . S
N104 C100 1.328 . S
N104 C102 1.350 . S
H105 C100 0.930 . S
H106 C101 0.930 . S
C107 O108 1.224 . S
C107 O126 1.247 . S
O108 C107 1.224 . S
N109 Co99 2.128 . S
N109 C110 1.355 . S
N109 C112 1.311 . S
C110 N109 1.355 . S
C110 C111 1.363 . S
C110 H122 0.929 . S
C111 C110 1.363 . S
C111 N113 1.375 . S
C111 H129 0.931 . S
C112 N109 1.311 . S
C112 N113 1.347 . S
C112 H123 0.929 . S
N113 C111 1.375 . S
N113 C112 1.347 . S
C114 C117 1.365 . S
C114 N119 1.328 . S
C114 H120 0.929 . S
C115 C116 1.362 . S
C115 C118 1.378 . S
C115 H130 0.929 . S
C116 C115 1.362 . S
C116 C117 1.366 . S
C117 C114 1.365 . S
C117 C116 1.366 . S
C117 H131 0.930 . S
C118 C115 1.378 . S
C118 N119 1.315 . S
C118 H121 0.930 . S
N119 Co99 2.194 . S
N119 C114 1.328 . S
N119 C118 1.315 . S
H120 C114 0.929 . S
H121 C118 0.930 . S
H122 C110 0.929 . S
H123 C112 0.929 . S
O124 Co99 2.351 . S
O124 C127 1.244 . S
O125 Co99 2.155 . S
O125 C127 1.240 . S
O126 Co99 2.096 . S
O126 C107 1.247 . S
C127 O124 1.244 . S
C127 O125 1.240 . S
H128 C102 0.931 . S
H129 C111 0.931 . S
H130 C115 0.929 . S
H131 C117 0.930 . S
Co132 N136 2.148 . S
Co132 N142 2.128 . S
Co132 N152 2.194 . S
Co132 O157 2.351 . S
Co132 O158 2.155 . S
Co132 O159 2.096 . S
C133 N136 1.301 . S
C133 N137 1.328 . S
C133 H138 0.930 . S
C134 C135 1.333 . S
C134 N136 1.317 . S
C134 H139 0.930 . S
C135 C134 1.333 . S
C135 N137 1.350 . S
C135 H161 0.931 . S
N136 Co132 2.148 . S
N136 C133 1.301 . S
N136 C134 1.317 . S
N137 C133 1.328 . S
N137 C135 1.350 . S
H138 C133 0.930 . S
H139 C134 0.930 . S
C140 O141 1.224 . S
C140 O159 1.247 . S
O141 C140 1.224 . S
N142 Co132 2.128 . S
N142 C143 1.355 . S
N142 C145 1.311 . S
C143 N142 1.355 . S
C143 C144 1.363 . S
C143 H155 0.929 . S
C144 C143 1.363 . S
C144 N146 1.375 . S
C144 H162 0.931 . S
C145 N142 1.311 . S
C145 N146 1.347 . S
C145 H156 0.929 . S
N146 C144 1.375 . S
N146 C145 1.347 . S
C147 C150 1.365 . S
C147 N152 1.328 . S
C147 H153 0.929 . S
C148 C149 1.362 . S
C148 C151 1.378 . S
C148 H163 0.929 . S
C149 C148 1.362 . S
C149 C150 1.366 . S
C150 C147 1.365 . S
C150 C149 1.366 . S
C150 H164 0.930 . S
C151 C148 1.378 . S
C151 N152 1.315 . S
C151 H154 0.930 . S
N152 Co132 2.194 . S
N152 C147 1.328 . S
N152 C151 1.315 . S
H153 C147 0.929 . S
H154 C151 0.930 . S
H155 C143 0.929 . S
H156 C145 0.929 . S
O157 Co132 2.351 . S
O157 C160 1.244 . S
O158 Co132 2.155 . S
O158 C160 1.240 . S
O159 Co132 2.096 . S
O159 C140 1.247 . S
C160 O157 1.244 . S
C160 O158 1.240 . S
H161 C135 0.931 . S
H162 C144 0.931 . S
H163 C148 0.929 . S
H164 C150 0.930 . S
Co165 N169 2.148 . S
Co165 N175 2.128 . S
Co165 N185 2.194 . S
Co165 O190 2.351 . S
Co165 O191 2.155 . S
Co165 O192 2.096 . S
C166 N169 1.301 . S
C166 N170 1.328 . S
C166 H171 0.930 . S
C167 C168 1.333 . S
C167 N169 1.317 . S
C167 H172 0.930 . S
C168 C167 1.333 . S
C168 N170 1.350 . S
C168 H194 0.931 . S
N169 Co165 2.148 . S
N169 C166 1.301 . S
N169 C167 1.317 . S
N170 C166 1.328 . S
N170 C168 1.350 . S
H171 C166 0.930 . S
H172 C167 0.930 . S
C173 O174 1.224 . S
C173 O192 1.247 . S
O174 C173 1.224 . S
N175 Co165 2.128 . S
N175 C176 1.355 . S
N175 C178 1.311 . S
C176 N175 1.355 . S
C176 C177 1.363 . S
C176 H188 0.929 . S
C177 C176 1.363 . S
C177 N179 1.375 . S
C177 H195 0.931 . S
C178 N175 1.311 . S
C178 N179 1.347 . S
C178 H189 0.929 . S
N179 C177 1.375 . S
N179 C178 1.347 . S
C180 C183 1.365 . S
C180 N185 1.328 . S
C180 H186 0.929 . S
C181 C182 1.362 . S
C181 C184 1.378 . S
C181 H196 0.929 . S
C182 C181 1.362 . S
C182 C183 1.366 . S
C183 C180 1.365 . S
C183 C182 1.366 . S
C183 H197 0.930 . S
C184 C181 1.378 . S
C184 N185 1.315 . S
C184 H187 0.930 . S
N185 Co165 2.194 . S
N185 C180 1.328 . S
N185 C184 1.315 . S
H186 C180 0.929 . S
H187 C184 0.930 . S
H188 C176 0.929 . S
H189 C178 0.929 . S
O190 Co165 2.351 . S
O190 C193 1.244 . S
O191 Co165 2.155 . S
O191 C193 1.240 . S
O192 Co165 2.096 . S
O192 C173 1.247 . S
C193 O190 1.244 . S
C193 O191 1.240 . S
H194 C168 0.931 . S
H195 C177 0.931 . S
H196 C181 0.929 . S
H197 C183 0.930 . S
Co198 N202 2.148 . S
Co198 N208 2.128 . S
Co198 N218 2.194 . S
Co198 O223 2.351 . S
Co198 O224 2.155 . S
Co198 O225 2.096 . S
C199 N202 1.301 . S
C199 N203 1.328 . S
C199 H204 0.930 . S
C200 C201 1.333 . S
C200 N202 1.317 . S
C200 H205 0.930 . S
C201 C200 1.333 . S
C201 N203 1.350 . S
C201 H227 0.931 . S
N202 Co198 2.148 . S
N202 C199 1.301 . S
N202 C200 1.317 . S
N203 C199 1.328 . S
N203 C201 1.350 . S
H204 C199 0.930 . S
H205 C200 0.930 . S
C206 O207 1.224 . S
C206 O225 1.247 . S
O207 C206 1.224 . S
N208 Co198 2.128 . S
N208 C209 1.355 . S
N208 C211 1.311 . S
C209 N208 1.355 . S
C209 C210 1.363 . S
C209 H221 0.929 . S
C210 C209 1.363 . S
C210 N212 1.375 . S
C210 H228 0.931 . S
C211 N208 1.311 . S
C211 N212 1.347 . S
C211 H222 0.929 . S
N212 C210 1.375 . S
N212 C211 1.347 . S
C213 C216 1.365 . S
C213 N218 1.328 . S
C213 H219 0.929 . S
C214 C215 1.362 . S
C214 C217 1.378 . S
C214 H229 0.929 . S
C215 C214 1.362 . S
C215 C216 1.366 . S
C216 C213 1.365 . S
C216 C215 1.366 . S
C216 H230 0.930 . S
C217 C214 1.378 . S
C217 N218 1.315 . S
C217 H220 0.930 . S
N218 Co198 2.194 . S
N218 C213 1.328 . S
N218 C217 1.315 . S
H219 C213 0.929 . S
H220 C217 0.930 . S
H221 C209 0.929 . S
H222 C211 0.929 . S
O223 Co198 2.351 . S
O223 C226 1.244 . S
O224 Co198 2.155 . S
O224 C226 1.240 . S
O225 Co198 2.096 . S
O225 C206 1.247 . S
C226 O223 1.244 . S
C226 O224 1.240 . S
H227 C201 0.931 . S
H228 C210 0.931 . S
H229 C214 0.929 . S
H230 C216 0.930 . S
Co231 N235 2.148 . S
Co231 N241 2.128 . S
Co231 N251 2.194 . S
Co231 O256 2.351 . S
Co231 O257 2.155 . S
Co231 O258 2.096 . S
C232 N235 1.301 . S
C232 N236 1.328 . S
C232 H237 0.930 . S
C233 C234 1.333 . S
C233 N235 1.317 . S
C233 H238 0.930 . S
C234 C233 1.333 . S
C234 N236 1.350 . S
C234 H260 0.931 . S
N235 Co231 2.148 . S
N235 C232 1.301 . S
N235 C233 1.317 . S
N236 C232 1.328 . S
N236 C234 1.350 . S
H237 C232 0.930 . S
H238 C233 0.930 . S
C239 O240 1.224 . S
C239 O258 1.247 . S
O240 C239 1.224 . S
N241 Co231 2.128 . S
N241 C242 1.355 . S
N241 C244 1.311 . S
C242 N241 1.355 . S
C242 C243 1.363 . S
C242 H254 0.929 . S
C243 C242 1.363 . S
C243 N245 1.375 . S
C243 H261 0.931 . S
C244 N241 1.311 . S
C244 N245 1.347 . S
C244 H255 0.929 . S
N245 C243 1.375 . S
N245 C244 1.347 . S
C246 C249 1.365 . S
C246 N251 1.328 . S
C246 H252 0.929 . S
C247 C248 1.362 . S
C247 C250 1.378 . S
C247 H262 0.929 . S
C248 C247 1.362 . S
C248 C249 1.366 . S
C249 C246 1.365 . S
C249 C248 1.366 . S
C249 H263 0.930 . S
C250 C247 1.378 . S
C250 N251 1.315 . S
C250 H253 0.930 . S
N251 Co231 2.194 . S
N251 C246 1.328 . S
N251 C250 1.315 . S
H252 C246 0.929 . S
H253 C250 0.930 . S
H254 C242 0.929 . S
H255 C244 0.929 . S
O256 Co231 2.351 . S
O256 C259 1.244 . S
O257 Co231 2.155 . S
O257 C259 1.240 . S
O258 Co231 2.096 . S
O258 C239 1.247 . S
C259 O256 1.244 . S
C259 O257 1.240 . S
H260 C234 0.931 . S
H261 C243 0.931 . S
H262 C247 0.929 . S
H263 C249 0.930 . S
Co264 N268 2.148 . S
Co264 N274 2.128 . S
Co264 N284 2.194 . S
Co264 O289 2.351 . S
Co264 O290 2.155 . S
Co264 O291 2.096 . S
C265 N268 1.301 . S
C265 N269 1.328 . S
C265 H270 0.930 . S
C266 C267 1.333 . S
C266 N268 1.317 . S
C266 H271 0.930 . S
C267 C266 1.333 . S
C267 N269 1.350 . S
C267 H293 0.931 . S
N268 Co264 2.148 . S
N268 C265 1.301 . S
N268 C266 1.317 . S
N269 C265 1.328 . S
N269 C267 1.350 . S
H270 C265 0.930 . S
H271 C266 0.930 . S
C272 O273 1.224 . S
C272 O291 1.247 . S
O273 C272 1.224 . S
N274 Co264 2.128 . S
N274 C275 1.355 . S
N274 C277 1.311 . S
C275 N274 1.355 . S
C275 C276 1.363 . S
C275 H287 0.929 . S
C276 C275 1.363 . S
C276 N278 1.375 . S
C276 H294 0.931 . S
C277 N274 1.311 . S
C277 N278 1.347 . S
C277 H288 0.929 . S
N278 C276 1.375 . S
N278 C277 1.347 . S
C279 C282 1.365 . S
C279 N284 1.328 . S
C279 H285 0.929 . S
C280 C281 1.362 . S
C280 C283 1.378 . S
C280 H295 0.929 . S
C281 C280 1.362 . S
C281 C282 1.366 . S
C282 C279 1.365 . S
C282 C281 1.366 . S
C282 H296 0.930 . S
C283 C280 1.378 . S
C283 N284 1.315 . S
C283 H286 0.930 . S
N284 Co264 2.194 . S
N284 C279 1.328 . S
N284 C283 1.315 . S
H285 C279 0.929 . S
H286 C283 0.930 . S
H287 C275 0.929 . S
H288 C277 0.929 . S
O289 Co264 2.351 . S
O289 C292 1.244 . S
O290 Co264 2.155 . S
O290 C292 1.240 . S
O291 Co264 2.096 . S
O291 C272 1.247 . S
C292 O289 1.244 . S
C292 O290 1.240 . S
H293 C267 0.931 . S
H294 C276 0.931 . S
H295 C280 0.929 . S
H296 C282 0.930 . S
Co297 N301 2.148 . S
Co297 N307 2.128 . S
Co297 N317 2.194 . S
Co297 O322 2.351 . S
Co297 O323 2.155 . S
Co297 O324 2.096 . S
C298 N301 1.301 . S
C298 N302 1.328 . S
C298 H303 0.930 . S
C299 C300 1.333 . S
C299 N301 1.317 . S
C299 H304 0.930 . S
C300 C299 1.333 . S
C300 N302 1.350 . S
C300 H326 0.931 . S
N301 Co297 2.148 . S
N301 C298 1.301 . S
N301 C299 1.317 . S
N302 C298 1.328 . S
N302 C300 1.350 . S
H303 C298 0.930 . S
H304 C299 0.930 . S
C305 O306 1.224 . S
C305 O324 1.247 . S
O306 C305 1.224 . S
N307 Co297 2.128 . S
N307 C308 1.355 . S
N307 C310 1.311 . S
C308 N307 1.355 . S
C308 C309 1.363 . S
C308 H320 0.929 . S
C309 C308 1.363 . S
C309 N311 1.375 . S
C309 H327 0.931 . S
C310 N307 1.311 . S
C310 N311 1.347 . S
C310 H321 0.929 . S
N311 C309 1.375 . S
N311 C310 1.347 . S
C312 C315 1.365 . S
C312 N317 1.328 . S
C312 H318 0.929 . S
C313 C314 1.362 . S
C313 C316 1.378 . S
C313 H328 0.929 . S
C314 C313 1.362 . S
C314 C315 1.366 . S
C315 C312 1.365 . S
C315 C314 1.366 . S
C315 H329 0.930 . S
C316 C313 1.378 . S
C316 N317 1.315 . S
C316 H319 0.930 . S
N317 Co297 2.194 . S
N317 C312 1.328 . S
N317 C316 1.315 . S
H318 C312 0.929 . S
H319 C316 0.930 . S
H320 C308 0.929 . S
H321 C310 0.929 . S
O322 Co297 2.351 . S
O322 C325 1.244 . S
O323 Co297 2.155 . S
O323 C325 1.240 . S
O324 Co297 2.096 . S
O324 C305 1.247 . S
C325 O322 1.244 . S
C325 O323 1.240 . S
H326 C300 0.931 . S
H327 C309 0.931 . S
H328 C313 0.929 . S
H329 C315 0.930 . S
Co330 N334 2.148 . S
Co330 N340 2.128 . S
Co330 N350 2.194 . S
Co330 O355 2.351 . S
Co330 O356 2.155 . S
Co330 O357 2.096 . S
C331 N334 1.301 . S
C331 N335 1.328 . S
C331 H336 0.930 . S
C332 C333 1.333 . S
C332 N334 1.317 . S
C332 H337 0.930 . S
C333 C332 1.333 . S
C333 N335 1.350 . S
C333 H359 0.931 . S
N334 Co330 2.148 . S
N334 C331 1.301 . S
N334 C332 1.317 . S
N335 C331 1.328 . S
N335 C333 1.350 . S
H336 C331 0.930 . S
H337 C332 0.930 . S
C338 O339 1.224 . S
C338 O357 1.247 . S
O339 C338 1.224 . S
N340 Co330 2.128 . S
N340 C341 1.355 . S
N340 C343 1.311 . S
C341 N340 1.355 . S
C341 C342 1.363 . S
C341 H353 0.929 . S
C342 C341 1.363 . S
C342 N344 1.375 . S
C342 H360 0.931 . S
C343 N340 1.311 . S
C343 N344 1.347 . S
C343 H354 0.929 . S
N344 C342 1.375 . S
N344 C343 1.347 . S
C345 C348 1.365 . S
C345 N350 1.328 . S
C345 H351 0.929 . S
C346 C347 1.362 . S
C346 C349 1.378 . S
C346 H361 0.929 . S
C347 C346 1.362 . S
C347 C348 1.366 . S
C348 C345 1.365 . S
C348 C347 1.366 . S
C348 H362 0.930 . S
C349 C346 1.378 . S
C349 N350 1.315 . S
C349 H352 0.930 . S
N350 Co330 2.194 . S
N350 C345 1.328 . S
N350 C349 1.315 . S
H351 C345 0.929 . S
H352 C349 0.930 . S
H353 C341 0.929 . S
H354 C343 0.929 . S
O355 Co330 2.351 . S
O355 C358 1.244 . S
O356 Co330 2.155 . S
O356 C358 1.240 . S
O357 Co330 2.096 . S
O357 C338 1.247 . S
C358 O355 1.244 . S
C358 O356 1.240 . S
H359 C333 0.931 . S
H360 C342 0.931 . S
H361 C346 0.929 . S
H362 C348 0.930 . S
Co363 N367 2.148 . S
Co363 N373 2.128 . S
Co363 N383 2.194 . S
Co363 O388 2.351 . S
Co363 O389 2.155 . S
Co363 O390 2.096 . S
C364 N367 1.301 . S
C364 N368 1.328 . S
C364 H369 0.930 . S
C365 C366 1.333 . S
C365 N367 1.317 . S
C365 H370 0.930 . S
C366 C365 1.333 . S
C366 N368 1.350 . S
C366 H392 0.931 . S
N367 Co363 2.148 . S
N367 C364 1.301 . S
N367 C365 1.317 . S
N368 C364 1.328 . S
N368 C366 1.350 . S
H369 C364 0.930 . S
H370 C365 0.930 . S
C371 O372 1.224 . S
C371 O390 1.247 . S
O372 C371 1.224 . S
N373 Co363 2.128 . S
N373 C374 1.355 . S
N373 C376 1.311 . S
C374 N373 1.355 . S
C374 C375 1.363 . S
C374 H386 0.929 . S
C375 C374 1.363 . S
C375 N377 1.375 . S
C375 H393 0.931 . S
C376 N373 1.311 . S
C376 N377 1.347 . S
C376 H387 0.929 . S
N377 C375 1.375 . S
N377 C376 1.347 . S
C378 C381 1.365 . S
C378 N383 1.328 . S
C378 H384 0.929 . S
C379 C380 1.362 . S
C379 C382 1.378 . S
C379 H394 0.929 . S
C380 C379 1.362 . S
C380 C381 1.366 . S
C381 C378 1.365 . S
C381 C380 1.366 . S
C381 H395 0.930 . S
C382 C379 1.378 . S
C382 N383 1.315 . S
C382 H385 0.930 . S
N383 Co363 2.194 . S
N383 C378 1.328 . S
N383 C382 1.315 . S
H384 C378 0.929 . S
H385 C382 0.930 . S
H386 C374 0.929 . S
H387 C376 0.929 . S
O388 Co363 2.351 . S
O388 C391 1.244 . S
O389 Co363 2.155 . S
O389 C391 1.240 . S
O390 Co363 2.096 . S
O390 C371 1.247 . S
C391 O388 1.244 . S
C391 O389 1.240 . S
H392 C366 0.931 . S
H393 C375 0.931 . S
H394 C379 0.929 . S
H395 C381 0.930 . S
Co396 N400 2.148 . S
Co396 N406 2.128 . S
Co396 N416 2.194 . S
Co396 O421 2.351 . S
Co396 O422 2.155 . S
Co396 O423 2.096 . S
C397 N400 1.301 . S
C397 N401 1.328 . S
C397 H402 0.930 . S
C398 C399 1.333 . S
C398 N400 1.317 . S
C398 H403 0.930 . S
C399 C398 1.333 . S
C399 N401 1.350 . S
C399 H425 0.931 . S
N400 Co396 2.148 . S
N400 C397 1.301 . S
N400 C398 1.317 . S
N401 C397 1.328 . S
N401 C399 1.350 . S
H402 C397 0.930 . S
H403 C398 0.930 . S
C404 O405 1.224 . S
C404 O423 1.247 . S
O405 C404 1.224 . S
N406 Co396 2.128 . S
N406 C407 1.355 . S
N406 C409 1.311 . S
C407 N406 1.355 . S
C407 C408 1.363 . S
C407 H419 0.929 . S
C408 C407 1.363 . S
C408 N410 1.375 . S
C408 H426 0.931 . S
C409 N406 1.311 . S
C409 N410 1.347 . S
C409 H420 0.929 . S
N410 C408 1.375 . S
N410 C409 1.347 . S
C411 C414 1.365 . S
C411 N416 1.328 . S
C411 H417 0.929 . S
C412 C413 1.362 . S
C412 C415 1.378 . S
C412 H427 0.929 . S
C413 C412 1.362 . S
C413 C414 1.366 . S
C414 C411 1.365 . S
C414 C413 1.366 . S
C414 H428 0.930 . S
C415 C412 1.378 . S
C415 N416 1.315 . S
C415 H418 0.930 . S
N416 Co396 2.194 . S
N416 C411 1.328 . S
N416 C415 1.315 . S
H417 C411 0.929 . S
H418 C415 0.930 . S
H419 C407 0.929 . S
H420 C409 0.929 . S
O421 Co396 2.351 . S
O421 C424 1.244 . S
O422 Co396 2.155 . S
O422 C424 1.240 . S
O423 Co396 2.096 . S
O423 C404 1.247 . S
C424 O421 1.244 . S
C424 O422 1.240 . S
H425 C399 0.931 . S
H426 C408 0.931 . S
H427 C412 0.929 . S
H428 C414 0.930 . S
Co429 N433 2.148 . S
Co429 N439 2.128 . S
Co429 N449 2.194 . S
Co429 O454 2.351 . S
Co429 O455 2.155 . S
Co429 O456 2.096 . S
C430 N433 1.301 . S
C430 N434 1.328 . S
C430 H435 0.930 . S
C431 C432 1.333 . S
C431 N433 1.317 . S
C431 H436 0.930 . S
C432 C431 1.333 . S
C432 N434 1.350 . S
C432 H458 0.931 . S
N433 Co429 2.148 . S
N433 C430 1.301 . S
N433 C431 1.317 . S
N434 C430 1.328 . S
N434 C432 1.350 . S
H435 C430 0.930 . S
H436 C431 0.930 . S
C437 O438 1.224 . S
C437 O456 1.247 . S
O438 C437 1.224 . S
N439 Co429 2.128 . S
N439 C440 1.355 . S
N439 C442 1.311 . S
C440 N439 1.355 . S
C440 C441 1.363 . S
C440 H452 0.929 . S
C441 C440 1.363 . S
C441 N443 1.375 . S
C441 H459 0.931 . S
C442 N439 1.311 . S
C442 N443 1.347 . S
C442 H453 0.929 . S
N443 C441 1.375 . S
N443 C442 1.347 . S
C444 C447 1.365 . S
C444 N449 1.328 . S
C444 H450 0.929 . S
C445 C446 1.362 . S
C445 C448 1.378 . S
C445 H460 0.929 . S
C446 C445 1.362 . S
C446 C447 1.366 . S
C447 C444 1.365 . S
C447 C446 1.366 . S
C447 H461 0.930 . S
C448 C445 1.378 . S
C448 N449 1.315 . S
C448 H451 0.930 . S
N449 Co429 2.194 . S
N449 C444 1.328 . S
N449 C448 1.315 . S
H450 C444 0.929 . S
H451 C448 0.930 . S
H452 C440 0.929 . S
H453 C442 0.929 . S
O454 Co429 2.351 . S
O454 C457 1.244 . S
O455 Co429 2.155 . S
O455 C457 1.240 . S
O456 Co429 2.096 . S
O456 C437 1.247 . S
C457 O454 1.244 . S
C457 O455 1.240 . S
H458 C432 0.931 . S
H459 C441 0.931 . S
H460 C445 0.929 . S
H461 C447 0.930 . S
Co462 N466 2.148 . S
Co462 N472 2.128 . S
Co462 N482 2.194 . S
Co462 O487 2.351 . S
Co462 O488 2.155 . S
Co462 O489 2.096 . S
C463 N466 1.301 . S
C463 N467 1.328 . S
C463 H468 0.930 . S
C464 C465 1.333 . S
C464 N466 1.317 . S
C464 H469 0.930 . S
C465 C464 1.333 . S
C465 N467 1.350 . S
C465 H491 0.931 . S
N466 Co462 2.148 . S
N466 C463 1.301 . S
N466 C464 1.317 . S
N467 C463 1.328 . S
N467 C465 1.350 . S
H468 C463 0.930 . S
H469 C464 0.930 . S
C470 O471 1.224 . S
C470 O489 1.247 . S
O471 C470 1.224 . S
N472 Co462 2.128 . S
N472 C473 1.355 . S
N472 C475 1.311 . S
C473 N472 1.355 . S
C473 C474 1.363 . S
C473 H485 0.929 . S
C474 C473 1.363 . S
C474 N476 1.375 . S
C474 H492 0.931 . S
C475 N472 1.311 . S
C475 N476 1.347 . S
C475 H486 0.929 . S
N476 C474 1.375 . S
N476 C475 1.347 . S
C477 C480 1.365 . S
C477 N482 1.328 . S
C477 H483 0.929 . S
C478 C479 1.362 . S
C478 C481 1.378 . S
C478 H493 0.929 . S
C479 C478 1.362 . S
C479 C480 1.366 . S
C480 C477 1.365 . S
C480 C479 1.366 . S
C480 H494 0.930 . S
C481 C478 1.378 . S
C481 N482 1.315 . S
C481 H484 0.930 . S
N482 Co462 2.194 . S
N482 C477 1.328 . S
N482 C481 1.315 . S
H483 C477 0.929 . S
H484 C481 0.930 . S
H485 C473 0.929 . S
H486 C475 0.929 . S
O487 Co462 2.351 . S
O487 C490 1.244 . S
O488 Co462 2.155 . S
O488 C490 1.240 . S
O489 Co462 2.096 . S
O489 C470 1.247 . S
C490 O487 1.244 . S
C490 O488 1.240 . S
H491 C465 0.931 . S
H492 C474 0.931 . S
H493 C478 0.929 . S
H494 C480 0.930 . S
Co495 N499 2.148 . S
Co495 N505 2.128 . S
Co495 N515 2.194 . S
Co495 O520 2.351 . S
Co495 O521 2.155 . S
Co495 O522 2.096 . S
C496 N499 1.301 . S
C496 N500 1.328 . S
C496 H501 0.930 . S
C497 C498 1.333 . S
C497 N499 1.317 . S
C497 H502 0.930 . S
C498 C497 1.333 . S
C498 N500 1.350 . S
C498 H524 0.931 . S
N499 Co495 2.148 . S
N499 C496 1.301 . S
N499 C497 1.317 . S
N500 C496 1.328 . S
N500 C498 1.350 . S
H501 C496 0.930 . S
H502 C497 0.930 . S
C503 O504 1.224 . S
C503 O522 1.247 . S
O504 C503 1.224 . S
N505 Co495 2.128 . S
N505 C506 1.355 . S
N505 C508 1.311 . S
C506 N505 1.355 . S
C506 C507 1.363 . S
C506 H518 0.929 . S
C507 C506 1.363 . S
C507 N509 1.375 . S
C507 H525 0.931 . S
C508 N505 1.311 . S
C508 N509 1.347 . S
C508 H519 0.929 . S
N509 C507 1.375 . S
N509 C508 1.347 . S
C510 C513 1.365 . S
C510 N515 1.328 . S
C510 H516 0.929 . S
C511 C512 1.362 . S
C511 C514 1.378 . S
C511 H526 0.929 . S
C512 C511 1.362 . S
C512 C513 1.366 . S
C513 C510 1.365 . S
C513 C512 1.366 . S
C513 H527 0.930 . S
C514 C511 1.378 . S
C514 N515 1.315 . S
C514 H517 0.930 . S
N515 Co495 2.194 . S
N515 C510 1.328 . S
N515 C514 1.315 . S
H516 C510 0.929 . S
H517 C514 0.930 . S
H518 C506 0.929 . S
H519 C508 0.929 . S
O520 Co495 2.351 . S
O520 C523 1.244 . S
O521 Co495 2.155 . S
O521 C523 1.240 . S
O522 Co495 2.096 . S
O522 C503 1.247 . S
C523 O520 1.244 . S
C523 O521 1.240 . S
H524 C498 0.931 . S
H525 C507 0.931 . S
H526 C511 0.929 . S
H527 C513 0.930 . S
Co528 N532 2.148 . S
Co528 N538 2.128 . S
Co528 N548 2.194 . S
Co528 O553 2.351 . S
Co528 O554 2.155 . S
Co528 O555 2.096 . S
C529 N532 1.301 . S
C529 N533 1.328 . S
C529 H534 0.930 . S
C530 C531 1.333 . S
C530 N532 1.317 . S
C530 H535 0.930 . S
C531 C530 1.333 . S
C531 N533 1.350 . S
C531 H557 0.931 . S
N532 Co528 2.148 . S
N532 C529 1.301 . S
N532 C530 1.317 . S
N533 C529 1.328 . S
N533 C531 1.350 . S
H534 C529 0.930 . S
H535 C530 0.930 . S
C536 O537 1.224 . S
C536 O555 1.247 . S
O537 C536 1.224 . S
N538 Co528 2.128 . S
N538 C539 1.355 . S
N538 C541 1.311 . S
C539 N538 1.355 . S
C539 C540 1.363 . S
C539 H551 0.929 . S
C540 C539 1.363 . S
C540 N542 1.375 . S
C540 H558 0.931 . S
C541 N538 1.311 . S
C541 N542 1.347 . S
C541 H552 0.929 . S
N542 C540 1.375 . S
N542 C541 1.347 . S
C543 C546 1.365 . S
C543 N548 1.328 . S
C543 H549 0.929 . S
C544 C545 1.362 . S
C544 C547 1.378 . S
C544 H559 0.929 . S
C545 C544 1.362 . S
C545 C546 1.366 . S
C546 C543 1.365 . S
C546 C545 1.366 . S
C546 H560 0.930 . S
C547 C544 1.378 . S
C547 N548 1.315 . S
C547 H550 0.930 . S
N548 Co528 2.194 . S
N548 C543 1.328 . S
N548 C547 1.315 . S
H549 C543 0.929 . S
H550 C547 0.930 . S
H551 C539 0.929 . S
H552 C541 0.929 . S
O553 Co528 2.351 . S
O553 C556 1.244 . S
O554 Co528 2.155 . S
O554 C556 1.240 . S
O555 Co528 2.096 . S
O555 C536 1.247 . S
C556 O553 1.244 . S
C556 O554 1.240 . S
H557 C531 0.931 . S
H558 C540 0.931 . S
H559 C544 0.929 . S
H560 C546 0.930 . S
Co561 N565 2.148 . S
Co561 N571 2.128 . S
Co561 N581 2.194 . S
Co561 O586 2.351 . S
Co561 O587 2.155 . S
Co561 O588 2.096 . S
C562 N565 1.301 . S
C562 N566 1.328 . S
C562 H567 0.930 . S
C563 C564 1.333 . S
C563 N565 1.317 . S
C563 H568 0.930 . S
C564 C563 1.333 . S
C564 N566 1.350 . S
C564 H590 0.931 . S
N565 Co561 2.148 . S
N565 C562 1.301 . S
N565 C563 1.317 . S
N566 C562 1.328 . S
N566 C564 1.350 . S
H567 C562 0.930 . S
H568 C563 0.930 . S
C569 O570 1.224 . S
C569 O588 1.247 . S
O570 C569 1.224 . S
N571 Co561 2.128 . S
N571 C572 1.355 . S
N571 C574 1.311 . S
C572 N571 1.355 . S
C572 C573 1.363 . S
C572 H584 0.929 . S
C573 C572 1.363 . S
C573 N575 1.375 . S
C573 H591 0.931 . S
C574 N571 1.311 . S
C574 N575 1.347 . S
C574 H585 0.929 . S
N575 C573 1.375 . S
N575 C574 1.347 . S
C576 C579 1.365 . S
C576 N581 1.328 . S
C576 H582 0.929 . S
C577 C578 1.362 . S
C577 C580 1.378 . S
C577 H592 0.929 . S
C578 C577 1.362 . S
C578 C579 1.366 . S
C579 C576 1.365 . S
C579 C578 1.366 . S
C579 H593 0.930 . S
C580 C577 1.378 . S
C580 N581 1.315 . S
C580 H583 0.930 . S
N581 Co561 2.194 . S
N581 C576 1.328 . S
N581 C580 1.315 . S
H582 C576 0.929 . S
H583 C580 0.930 . S
H584 C572 0.929 . S
H585 C574 0.929 . S
O586 Co561 2.351 . S
O586 C589 1.244 . S
O587 Co561 2.155 . S
O587 C589 1.240 . S
O588 Co561 2.096 . S
O588 C569 1.247 . S
C589 O586 1.244 . S
C589 O587 1.240 . S
H590 C564 0.931 . S
H591 C573 0.931 . S
H592 C577 0.929 . S
H593 C579 0.930 . S
Co594 N598 2.148 . S
Co594 N604 2.128 . S
Co594 N614 2.194 . S
Co594 O619 2.351 . S
Co594 O620 2.155 . S
Co594 O621 2.096 . S
C595 N598 1.301 . S
C595 N599 1.328 . S
C595 H600 0.930 . S
C596 C597 1.333 . S
C596 N598 1.317 . S
C596 H601 0.930 . S
C597 C596 1.333 . S
C597 N599 1.350 . S
C597 H623 0.931 . S
N598 Co594 2.148 . S
N598 C595 1.301 . S
N598 C596 1.317 . S
N599 C595 1.328 . S
N599 C597 1.350 . S
H600 C595 0.930 . S
H601 C596 0.930 . S
C602 O603 1.224 . S
C602 O621 1.247 . S
O603 C602 1.224 . S
N604 Co594 2.128 . S
N604 C605 1.355 . S
N604 C607 1.311 . S
C605 N604 1.355 . S
C605 C606 1.363 . S
C605 H617 0.929 . S
C606 C605 1.363 . S
C606 N608 1.375 . S
C606 H624 0.931 . S
C607 N604 1.311 . S
C607 N608 1.347 . S
C607 H618 0.929 . S
N608 C606 1.375 . S
N608 C607 1.347 . S
C609 C612 1.365 . S
C609 N614 1.328 . S
C609 H615 0.929 . S
C610 C611 1.362 . S
C610 C613 1.378 . S
C610 H625 0.929 . S
C611 C610 1.362 . S
C611 C612 1.366 . S
C612 C609 1.365 . S
C612 C611 1.366 . S
C612 H626 0.930 . S
C613 C610 1.378 . S
C613 N614 1.315 . S
C613 H616 0.930 . S
N614 Co594 2.194 . S
N614 C609 1.328 . S
N614 C613 1.315 . S
H615 C609 0.929 . S
H616 C613 0.930 . S
H617 C605 0.929 . S
H618 C607 0.929 . S
O619 Co594 2.351 . S
O619 C622 1.244 . S
O620 Co594 2.155 . S
O620 C622 1.240 . S
O621 Co594 2.096 . S
O621 C602 1.247 . S
C622 O619 1.244 . S
C622 O620 1.240 . S
H623 C597 0.931 . S
H624 C606 0.931 . S
H625 C610 0.929 . S
H626 C612 0.930 . S
Co627 N631 2.148 . S
Co627 N637 2.128 . S
Co627 N647 2.194 . S
Co627 O652 2.351 . S
Co627 O653 2.155 . S
Co627 O654 2.096 . S
C628 N631 1.301 . S
C628 N632 1.328 . S
C628 H633 0.930 . S
C629 C630 1.333 . S
C629 N631 1.317 . S
C629 H634 0.930 . S
C630 C629 1.333 . S
C630 N632 1.350 . S
C630 H656 0.931 . S
N631 Co627 2.148 . S
N631 C628 1.301 . S
N631 C629 1.317 . S
N632 C628 1.328 . S
N632 C630 1.350 . S
H633 C628 0.930 . S
H634 C629 0.930 . S
C635 O636 1.224 . S
C635 O654 1.247 . S
O636 C635 1.224 . S
N637 Co627 2.128 . S
N637 C638 1.355 . S
N637 C640 1.311 . S
C638 N637 1.355 . S
C638 C639 1.363 . S
C638 H650 0.929 . S
C639 C638 1.363 . S
C639 N641 1.375 . S
C639 H657 0.931 . S
C640 N637 1.311 . S
C640 N641 1.347 . S
C640 H651 0.929 . S
N641 C639 1.375 . S
N641 C640 1.347 . S
C642 C645 1.365 . S
C642 N647 1.328 . S
C642 H648 0.929 . S
C643 C644 1.362 . S
C643 C646 1.378 . S
C643 H658 0.929 . S
C644 C643 1.362 . S
C644 C645 1.366 . S
C645 C642 1.365 . S
C645 C644 1.366 . S
C645 H659 0.930 . S
C646 C643 1.378 . S
C646 N647 1.315 . S
C646 H649 0.930 . S
N647 Co627 2.194 . S
N647 C642 1.328 . S
N647 C646 1.315 . S
H648 C642 0.929 . S
H649 C646 0.930 . S
H650 C638 0.929 . S
H651 C640 0.929 . S
O652 Co627 2.351 . S
O652 C655 1.244 . S
O653 Co627 2.155 . S
O653 C655 1.240 . S
O654 Co627 2.096 . S
O654 C635 1.247 . S
C655 O652 1.244 . S
C655 O653 1.240 . S
H656 C630 0.931 . S
H657 C639 0.931 . S
H658 C643 0.929 . S
H659 C645 0.930 . S
Co660 N664 2.148 . S
Co660 N670 2.128 . S
Co660 N680 2.194 . S
Co660 O685 2.351 . S
Co660 O686 2.155 . S
Co660 O687 2.096 . S
C661 N664 1.301 . S
C661 N665 1.328 . S
C661 H666 0.930 . S
C662 C663 1.333 . S
C662 N664 1.317 . S
C662 H667 0.930 . S
C663 C662 1.333 . S
C663 N665 1.350 . S
C663 H689 0.931 . S
N664 Co660 2.148 . S
N664 C661 1.301 . S
N664 C662 1.317 . S
N665 C661 1.328 . S
N665 C663 1.350 . S
H666 C661 0.930 . S
H667 C662 0.930 . S
C668 O669 1.224 . S
C668 O687 1.247 . S
O669 C668 1.224 . S
N670 Co660 2.128 . S
N670 C671 1.355 . S
N670 C673 1.311 . S
C671 N670 1.355 . S
C671 C672 1.363 . S
C671 H683 0.929 . S
C672 C671 1.363 . S
C672 N674 1.375 . S
C672 H690 0.931 . S
C673 N670 1.311 . S
C673 N674 1.347 . S
C673 H684 0.929 . S
N674 C672 1.375 . S
N674 C673 1.347 . S
C675 C678 1.365 . S
C675 N680 1.328 . S
C675 H681 0.929 . S
C676 C677 1.362 . S
C676 C679 1.378 . S
C676 H691 0.929 . S
C677 C676 1.362 . S
C677 C678 1.366 . S
C678 C675 1.365 . S
C678 C677 1.366 . S
C678 H692 0.930 . S
C679 C676 1.378 . S
C679 N680 1.315 . S
C679 H682 0.930 . S
N680 Co660 2.194 . S
N680 C675 1.328 . S
N680 C679 1.315 . S
H681 C675 0.929 . S
H682 C679 0.930 . S
H683 C671 0.929 . S
H684 C673 0.929 . S
O685 Co660 2.351 . S
O685 C688 1.244 . S
O686 Co660 2.155 . S
O686 C688 1.240 . S
O687 Co660 2.096 . S
O687 C668 1.247 . S
C688 O685 1.244 . S
C688 O686 1.240 . S
H689 C663 0.931 . S
H690 C672 0.931 . S
H691 C676 0.929 . S
H692 C678 0.930 . S
Co693 N697 2.148 . S
Co693 N703 2.128 . S
Co693 N713 2.194 . S
Co693 O718 2.351 . S
Co693 O719 2.155 . S
Co693 O720 2.096 . S
C694 N697 1.301 . S
C694 N698 1.328 . S
C694 H699 0.930 . S
C695 C696 1.333 . S
C695 N697 1.317 . S
C695 H700 0.930 . S
C696 C695 1.333 . S
C696 N698 1.350 . S
C696 H722 0.931 . S
N697 Co693 2.148 . S
N697 C694 1.301 . S
N697 C695 1.317 . S
N698 C694 1.328 . S
N698 C696 1.350 . S
H699 C694 0.930 . S
H700 C695 0.930 . S
C701 O702 1.224 . S
C701 O720 1.247 . S
O702 C701 1.224 . S
N703 Co693 2.128 . S
N703 C704 1.355 . S
N703 C706 1.311 . S
C704 N703 1.355 . S
C704 C705 1.363 . S
C704 H716 0.929 . S
C705 C704 1.363 . S
C705 N707 1.375 . S
C705 H723 0.931 . S
C706 N703 1.311 . S
C706 N707 1.347 . S
C706 H717 0.929 . S
N707 C705 1.375 . S
N707 C706 1.347 . S
C708 C711 1.365 . S
C708 N713 1.328 . S
C708 H714 0.929 . S
C709 C710 1.362 . S
C709 C712 1.378 . S
C709 H724 0.929 . S
C710 C709 1.362 . S
C710 C711 1.366 . S
C711 C708 1.365 . S
C711 C710 1.366 . S
C711 H725 0.930 . S
C712 C709 1.378 . S
C712 N713 1.315 . S
C712 H715 0.930 . S
N713 Co693 2.194 . S
N713 C708 1.328 . S
N713 C712 1.315 . S
H714 C708 0.929 . S
H715 C712 0.930 . S
H716 C704 0.929 . S
H717 C706 0.929 . S
O718 Co693 2.351 . S
O718 C721 1.244 . S
O719 Co693 2.155 . S
O719 C721 1.240 . S
O720 Co693 2.096 . S
O720 C701 1.247 . S
C721 O718 1.244 . S
C721 O719 1.240 . S
H722 C696 0.931 . S
H723 C705 0.931 . S
H724 C709 0.929 . S
H725 C711 0.930 . S
Co726 N730 2.148 . S
Co726 N736 2.128 . S
Co726 N746 2.194 . S
Co726 O751 2.351 . S
Co726 O752 2.155 . S
Co726 O753 2.096 . S
C727 N730 1.301 . S
C727 N731 1.328 . S
C727 H732 0.930 . S
C728 C729 1.333 . S
C728 N730 1.317 . S
C728 H733 0.930 . S
C729 C728 1.333 . S
C729 N731 1.350 . S
C729 H755 0.931 . S
N730 Co726 2.148 . S
N730 C727 1.301 . S
N730 C728 1.317 . S
N731 C727 1.328 . S
N731 C729 1.350 . S
H732 C727 0.930 . S
H733 C728 0.930 . S
C734 O735 1.224 . S
C734 O753 1.247 . S
O735 C734 1.224 . S
N736 Co726 2.128 . S
N736 C737 1.355 . S
N736 C739 1.311 . S
C737 N736 1.355 . S
C737 C738 1.363 . S
C737 H749 0.929 . S
C738 C737 1.363 . S
C738 N740 1.375 . S
C738 H756 0.931 . S
C739 N736 1.311 . S
C739 N740 1.347 . S
C739 H750 0.929 . S
N740 C738 1.375 . S
N740 C739 1.347 . S
C741 C744 1.365 . S
C741 N746 1.328 . S
C741 H747 0.929 . S
C742 C743 1.362 . S
C742 C745 1.378 . S
C742 H757 0.929 . S
C743 C742 1.362 . S
C743 C744 1.366 . S
C744 C741 1.365 . S
C744 C743 1.366 . S
C744 H758 0.930 . S
C745 C742 1.378 . S
C745 N746 1.315 . S
C745 H748 0.930 . S
N746 Co726 2.194 . S
N746 C741 1.328 . S
N746 C745 1.315 . S
H747 C741 0.929 . S
H748 C745 0.930 . S
H749 C737 0.929 . S
H750 C739 0.929 . S
O751 Co726 2.351 . S
O751 C754 1.244 . S
O752 Co726 2.155 . S
O752 C754 1.240 . S
O753 Co726 2.096 . S
O753 C734 1.247 . S
C754 O751 1.244 . S
C754 O752 1.240 . S
H755 C729 0.931 . S
H756 C738 0.931 . S
H757 C742 0.929 . S
H758 C744 0.930 . S
Co759 N763 2.148 . S
Co759 N769 2.128 . S
Co759 N779 2.194 . S
Co759 O784 2.351 . S
Co759 O785 2.155 . S
Co759 O786 2.096 . S
C760 N763 1.301 . S
C760 N764 1.328 . S
C760 H765 0.930 . S
C761 C762 1.333 . S
C761 N763 1.317 . S
C761 H766 0.930 . S
C762 C761 1.333 . S
C762 N764 1.350 . S
C762 H788 0.931 . S
N763 Co759 2.148 . S
N763 C760 1.301 . S
N763 C761 1.317 . S
N764 C760 1.328 . S
N764 C762 1.350 . S
H765 C760 0.930 . S
H766 C761 0.930 . S
C767 O768 1.224 . S
C767 O786 1.247 . S
O768 C767 1.224 . S
N769 Co759 2.128 . S
N769 C770 1.355 . S
N769 C772 1.311 . S
C770 N769 1.355 . S
C770 C771 1.363 . S
C770 H782 0.929 . S
C771 C770 1.363 . S
C771 N773 1.375 . S
C771 H789 0.931 . S
C772 N769 1.311 . S
C772 N773 1.347 . S
C772 H783 0.929 . S
N773 C771 1.375 . S
N773 C772 1.347 . S
C774 C777 1.365 . S
C774 N779 1.328 . S
C774 H780 0.929 . S
C775 C776 1.362 . S
C775 C778 1.378 . S
C775 H790 0.929 . S
C776 C775 1.362 . S
C776 C777 1.366 . S
C777 C774 1.365 . S
C777 C776 1.366 . S
C777 H791 0.930 . S
C778 C775 1.378 . S
C778 N779 1.315 . S
C778 H781 0.930 . S
N779 Co759 2.194 . S
N779 C774 1.328 . S
N779 C778 1.315 . S
H780 C774 0.929 . S
H781 C778 0.930 . S
H782 C770 0.929 . S
H783 C772 0.929 . S
O784 Co759 2.351 . S
O784 C787 1.244 . S
O785 Co759 2.155 . S
O785 C787 1.240 . S
O786 Co759 2.096 . S
O786 C767 1.247 . S
C787 O784 1.244 . S
C787 O785 1.240 . S
H788 C762 0.931 . S
H789 C771 0.931 . S
H790 C775 0.929 . S
H791 C777 0.930 . S
Co792 N796 2.148 . S
Co792 N802 2.128 . S
Co792 N812 2.194 . S
Co792 O817 2.351 . S
Co792 O818 2.155 . S
Co792 O819 2.096 . S
C793 N796 1.301 . S
C793 N797 1.328 . S
C793 H798 0.930 . S
C794 C795 1.333 . S
C794 N796 1.317 . S
C794 H799 0.930 . S
C795 C794 1.333 . S
C795 N797 1.350 . S
C795 H821 0.931 . S
N796 Co792 2.148 . S
N796 C793 1.301 . S
N796 C794 1.317 . S
N797 C793 1.328 . S
N797 C795 1.350 . S
H798 C793 0.930 . S
H799 C794 0.930 . S
C800 O801 1.224 . S
C800 O819 1.247 . S
O801 C800 1.224 . S
N802 Co792 2.128 . S
N802 C803 1.355 . S
N802 C805 1.311 . S
C803 N802 1.355 . S
C803 C804 1.363 . S
C803 H815 0.929 . S
C804 C803 1.363 . S
C804 N806 1.375 . S
C804 H822 0.931 . S
C805 N802 1.311 . S
C805 N806 1.347 . S
C805 H816 0.929 . S
N806 C804 1.375 . S
N806 C805 1.347 . S
C807 C810 1.365 . S
C807 N812 1.328 . S
C807 H813 0.929 . S
C808 C809 1.362 . S
C808 C811 1.378 . S
C808 H823 0.929 . S
C809 C808 1.362 . S
C809 C810 1.366 . S
C810 C807 1.365 . S
C810 C809 1.366 . S
C810 H824 0.930 . S
C811 C808 1.378 . S
C811 N812 1.315 . S
C811 H814 0.930 . S
N812 Co792 2.194 . S
N812 C807 1.328 . S
N812 C811 1.315 . S
H813 C807 0.929 . S
H814 C811 0.930 . S
H815 C803 0.929 . S
H816 C805 0.929 . S
O817 Co792 2.351 . S
O817 C820 1.244 . S
O818 Co792 2.155 . S
O818 C820 1.240 . S
O819 Co792 2.096 . S
O819 C800 1.247 . S
C820 O817 1.244 . S
C820 O818 1.240 . S
H821 C795 0.931 . S
H822 C804 0.931 . S
H823 C808 0.929 . S
H824 C810 0.930 . S
Co825 N829 2.148 . S
Co825 N835 2.128 . S
Co825 N845 2.194 . S
Co825 O850 2.351 . S
Co825 O851 2.155 . S
Co825 O852 2.096 . S
C826 N829 1.301 . S
C826 N830 1.328 . S
C826 H831 0.930 . S
C827 C828 1.333 . S
C827 N829 1.317 . S
C827 H832 0.930 . S
C828 C827 1.333 . S
C828 N830 1.350 . S
C828 H854 0.931 . S
N829 Co825 2.148 . S
N829 C826 1.301 . S
N829 C827 1.317 . S
N830 C826 1.328 . S
N830 C828 1.350 . S
H831 C826 0.930 . S
H832 C827 0.930 . S
C833 O834 1.224 . S
C833 O852 1.247 . S
O834 C833 1.224 . S
N835 Co825 2.128 . S
N835 C836 1.355 . S
N835 C838 1.311 . S
C836 N835 1.355 . S
C836 C837 1.363 . S
C836 H848 0.929 . S
C837 C836 1.363 . S
C837 N839 1.375 . S
C837 H855 0.931 . S
C838 N835 1.311 . S
C838 N839 1.347 . S
C838 H849 0.929 . S
N839 C837 1.375 . S
N839 C838 1.347 . S
C840 C843 1.365 . S
C840 N845 1.328 . S
C840 H846 0.929 . S
C841 C842 1.362 . S
C841 C844 1.378 . S
C841 H856 0.929 . S
C842 C841 1.362 . S
C842 C843 1.366 . S
C843 C840 1.365 . S
C843 C842 1.366 . S
C843 H857 0.930 . S
C844 C841 1.378 . S
C844 N845 1.315 . S
C844 H847 0.930 . S
N845 Co825 2.194 . S
N845 C840 1.328 . S
N845 C844 1.315 . S
H846 C840 0.929 . S
H847 C844 0.930 . S
H848 C836 0.929 . S
H849 C838 0.929 . S
O850 Co825 2.351 . S
O850 C853 1.244 . S
O851 Co825 2.155 . S
O851 C853 1.240 . S
O852 Co825 2.096 . S
O852 C833 1.247 . S
C853 O850 1.244 . S
C853 O851 1.240 . S
H854 C828 0.931 . S
H855 C837 0.931 . S
H856 C841 0.929 . S
H857 C843 0.930 . S
Co858 N862 2.148 . S
Co858 N868 2.128 . S
Co858 N878 2.194 . S
Co858 O883 2.351 . S
Co858 O884 2.155 . S
Co858 O885 2.096 . S
C859 N862 1.301 . S
C859 N863 1.328 . S
C859 H864 0.930 . S
C860 C861 1.333 . S
C860 N862 1.317 . S
C860 H865 0.930 . S
C861 C860 1.333 . S
C861 N863 1.350 . S
C861 H887 0.931 . S
N862 Co858 2.148 . S
N862 C859 1.301 . S
N862 C860 1.317 . S
N863 C859 1.328 . S
N863 C861 1.350 . S
H864 C859 0.930 . S
H865 C860 0.930 . S
C866 O867 1.224 . S
C866 O885 1.247 . S
O867 C866 1.224 . S
N868 Co858 2.128 . S
N868 C869 1.355 . S
N868 C871 1.311 . S
C869 N868 1.355 . S
C869 C870 1.363 . S
C869 H881 0.929 . S
C870 C869 1.363 . S
C870 N872 1.375 . S
C870 H888 0.931 . S
C871 N868 1.311 . S
C871 N872 1.347 . S
C871 H882 0.929 . S
N872 C870 1.375 . S
N872 C871 1.347 . S
C873 C876 1.365 . S
C873 N878 1.328 . S
C873 H879 0.929 . S
C874 C875 1.362 . S
C874 C877 1.378 . S
C874 H889 0.929 . S
C875 C874 1.362 . S
C875 C876 1.366 . S
C876 C873 1.365 . S
C876 C875 1.366 . S
C876 H890 0.930 . S
C877 C874 1.378 . S
C877 N878 1.315 . S
C877 H880 0.930 . S
N878 Co858 2.194 . S
N878 C873 1.328 . S
N878 C877 1.315 . S
H879 C873 0.929 . S
H880 C877 0.930 . S
H881 C869 0.929 . S
H882 C871 0.929 . S
O883 Co858 2.351 . S
O883 C886 1.244 . S
O884 Co858 2.155 . S
O884 C886 1.240 . S
O885 Co858 2.096 . S
O885 C866 1.247 . S
C886 O883 1.244 . S
C886 O884 1.240 . S
H887 C861 0.931 . S
H888 C870 0.931 . S
H889 C874 0.929 . S
H890 C876 0.930 . S
Co891 N895 2.148 . S
Co891 N901 2.128 . S
Co891 N911 2.194 . S
Co891 O916 2.351 . S
Co891 O917 2.155 . S
Co891 O918 2.096 . S
C892 N895 1.301 . S
C892 N896 1.328 . S
C892 H897 0.930 . S
C893 C894 1.333 . S
C893 N895 1.317 . S
C893 H898 0.930 . S
C894 C893 1.333 . S
C894 N896 1.350 . S
C894 H920 0.931 . S
N895 Co891 2.148 . S
N895 C892 1.301 . S
N895 C893 1.317 . S
N896 C892 1.328 . S
N896 C894 1.350 . S
H897 C892 0.930 . S
H898 C893 0.930 . S
C899 O900 1.224 . S
C899 O918 1.247 . S
O900 C899 1.224 . S
N901 Co891 2.128 . S
N901 C902 1.355 . S
N901 C904 1.311 . S
C902 N901 1.355 . S
C902 C903 1.363 . S
C902 H914 0.929 . S
C903 C902 1.363 . S
C903 N905 1.375 . S
C903 H921 0.931 . S
C904 N901 1.311 . S
C904 N905 1.347 . S
C904 H915 0.929 . S
N905 C903 1.375 . S
N905 C904 1.347 . S
C906 C909 1.365 . S
C906 N911 1.328 . S
C906 H912 0.929 . S
C907 C908 1.362 . S
C907 C910 1.378 . S
C907 H922 0.929 . S
C908 C907 1.362 . S
C908 C909 1.366 . S
C909 C906 1.365 . S
C909 C908 1.366 . S
C909 H923 0.930 . S
C910 C907 1.378 . S
C910 N911 1.315 . S
C910 H913 0.930 . S
N911 Co891 2.194 . S
N911 C906 1.328 . S
N911 C910 1.315 . S
H912 C906 0.929 . S
H913 C910 0.930 . S
H914 C902 0.929 . S
H915 C904 0.929 . S
O916 Co891 2.351 . S
O916 C919 1.244 . S
O917 Co891 2.155 . S
O917 C919 1.240 . S
O918 Co891 2.096 . S
O918 C899 1.247 . S
C919 O916 1.244 . S
C919 O917 1.240 . S
H920 C894 0.931 . S
H921 C903 0.931 . S
H922 C907 0.929 . S
H923 C909 0.930 . S
Co924 N928 2.148 . S
Co924 N934 2.128 . S
Co924 N944 2.194 . S
Co924 O949 2.351 . S
Co924 O950 2.155 . S
Co924 O951 2.096 . S
C925 N928 1.301 . S
C925 N929 1.328 . S
C925 H930 0.930 . S
C926 C927 1.333 . S
C926 N928 1.317 . S
C926 H931 0.930 . S
C927 C926 1.333 . S
C927 N929 1.350 . S
C927 H953 0.931 . S
N928 Co924 2.148 . S
N928 C925 1.301 . S
N928 C926 1.317 . S
N929 C925 1.328 . S
N929 C927 1.350 . S
H930 C925 0.930 . S
H931 C926 0.930 . S
C932 O933 1.224 . S
C932 O951 1.247 . S
O933 C932 1.224 . S
N934 Co924 2.128 . S
N934 C935 1.355 . S
N934 C937 1.311 . S
C935 N934 1.355 . S
C935 C936 1.363 . S
C935 H947 0.929 . S
C936 C935 1.363 . S
C936 N938 1.375 . S
C936 H954 0.931 . S
C937 N934 1.311 . S
C937 N938 1.347 . S
C937 H948 0.929 . S
N938 C936 1.375 . S
N938 C937 1.347 . S
C939 C942 1.365 . S
C939 N944 1.328 . S
C939 H945 0.929 . S
C940 C941 1.362 . S
C940 C943 1.378 . S
C940 H955 0.929 . S
C941 C940 1.362 . S
C941 C942 1.366 . S
C942 C939 1.365 . S
C942 C941 1.366 . S
C942 H956 0.930 . S
C943 C940 1.378 . S
C943 N944 1.315 . S
C943 H946 0.930 . S
N944 Co924 2.194 . S
N944 C939 1.328 . S
N944 C943 1.315 . S
H945 C939 0.929 . S
H946 C943 0.930 . S
H947 C935 0.929 . S
H948 C937 0.929 . S
O949 Co924 2.351 . S
O949 C952 1.244 . S
O950 Co924 2.155 . S
O950 C952 1.240 . S
O951 Co924 2.096 . S
O951 C932 1.247 . S
C952 O949 1.244 . S
C952 O950 1.240 . S
H953 C927 0.931 . S
H954 C936 0.931 . S
H955 C940 0.929 . S
H956 C942 0.930 . S
Co957 N961 2.148 . S
Co957 N967 2.128 . S
Co957 N977 2.194 . S
Co957 O982 2.351 . S
Co957 O983 2.155 . S
Co957 O984 2.096 . S
C958 N961 1.301 . S
C958 N962 1.328 . S
C958 H963 0.930 . S
C959 C960 1.333 . S
C959 N961 1.317 . S
C959 H964 0.930 . S
C960 C959 1.333 . S
C960 N962 1.350 . S
C960 H986 0.931 . S
N961 Co957 2.148 . S
N961 C958 1.301 . S
N961 C959 1.317 . S
N962 C958 1.328 . S
N962 C960 1.350 . S
H963 C958 0.930 . S
H964 C959 0.930 . S
C965 O966 1.224 . S
C965 O984 1.247 . S
O966 C965 1.224 . S
N967 Co957 2.128 . S
N967 C968 1.355 . S
N967 C970 1.311 . S
C968 N967 1.355 . S
C968 C969 1.363 . S
C968 H980 0.929 . S
C969 C968 1.363 . S
C969 N971 1.375 . S
C969 H987 0.931 . S
C970 N967 1.311 . S
C970 N971 1.347 . S
C970 H981 0.929 . S
N971 C969 1.375 . S
N971 C970 1.347 . S
C972 C975 1.365 . S
C972 N977 1.328 . S
C972 H978 0.929 . S
C973 C974 1.362 . S
C973 C976 1.378 . S
C973 H988 0.929 . S
C974 C973 1.362 . S
C974 C975 1.366 . S
C975 C972 1.365 . S
C975 C974 1.366 . S
C975 H989 0.930 . S
C976 C973 1.378 . S
C976 N977 1.315 . S
C976 H979 0.930 . S
N977 Co957 2.194 . S
N977 C972 1.328 . S
N977 C976 1.315 . S
H978 C972 0.929 . S
H979 C976 0.930 . S
H980 C968 0.929 . S
H981 C970 0.929 . S
O982 Co957 2.351 . S
O982 C985 1.244 . S
O983 Co957 2.155 . S
O983 C985 1.240 . S
O984 Co957 2.096 . S
O984 C965 1.247 . S
C985 O982 1.244 . S
C985 O983 1.240 . S
H986 C960 0.931 . S
H987 C969 0.931 . S
H988 C973 0.929 . S
H989 C975 0.930 . S
Co990 N994 2.148 . S
Co990 N1000 2.128 . S
Co990 N1010 2.194 . S
Co990 O1015 2.351 . S
Co990 O1016 2.155 . S
Co990 O1017 2.096 . S
C991 N994 1.301 . S
C991 N995 1.328 . S
C991 H996 0.930 . S
C992 C993 1.333 . S
C992 N994 1.317 . S
C992 H997 0.930 . S
C993 C992 1.333 . S
C993 N995 1.350 . S
C993 H1019 0.931 . S
N994 Co990 2.148 . S
N994 C991 1.301 . S
N994 C992 1.317 . S
N995 C991 1.328 . S
N995 C993 1.350 . S
H996 C991 0.930 . S
H997 C992 0.930 . S
C998 O999 1.224 . S
C998 O1017 1.247 . S
O999 C998 1.224 . S
N1000 Co990 2.128 . S
N1000 C1001 1.355 . S
N1000 C1003 1.311 . S
C1001 N1000 1.355 . S
C1001 C1002 1.363 . S
C1001 H1013 0.929 . S
C1002 C1001 1.363 . S
C1002 N1004 1.375 . S
C1002 H1020 0.931 . S
C1003 N1000 1.311 . S
C1003 N1004 1.347 . S
C1003 H1014 0.929 . S
N1004 C1002 1.375 . S
N1004 C1003 1.347 . S
C1005 C1008 1.365 . S
C1005 N1010 1.328 . S
C1005 H1011 0.929 . S
C1006 C1007 1.362 . S
C1006 C1009 1.378 . S
C1006 H1021 0.929 . S
C1007 C1006 1.362 . S
C1007 C1008 1.366 . S
C1008 C1005 1.365 . S
C1008 C1007 1.366 . S
C1008 H1022 0.930 . S
C1009 C1006 1.378 . S
C1009 N1010 1.315 . S
C1009 H1012 0.930 . S
N1010 Co990 2.194 . S
N1010 C1005 1.328 . S
N1010 C1009 1.315 . S
H1011 C1005 0.929 . S
H1012 C1009 0.930 . S
H1013 C1001 0.929 . S
H1014 C1003 0.929 . S
O1015 Co990 2.351 . S
O1015 C1018 1.244 . S
O1016 Co990 2.155 . S
O1016 C1018 1.240 . S
O1017 Co990 2.096 . S
O1017 C998 1.247 . S
C1018 O1015 1.244 . S
C1018 O1016 1.240 . S
H1019 C993 0.931 . S
H1020 C1002 0.931 . S
H1021 C1006 0.929 . S
H1022 C1008 0.930 . S
Co1023 N1027 2.148 . S
Co1023 N1033 2.128 . S
Co1023 N1043 2.194 . S
Co1023 O1048 2.351 . S
Co1023 O1049 2.155 . S
Co1023 O1050 2.096 . S
C1024 N1027 1.301 . S
C1024 N1028 1.328 . S
C1024 H1029 0.930 . S
C1025 C1026 1.333 . S
C1025 N1027 1.317 . S
C1025 H1030 0.930 . S
C1026 C1025 1.333 . S
C1026 N1028 1.350 . S
C1026 H1052 0.931 . S
N1027 Co1023 2.148 . S
N1027 C1024 1.301 . S
N1027 C1025 1.317 . S
N1028 C1024 1.328 . S
N1028 C1026 1.350 . S
H1029 C1024 0.930 . S
H1030 C1025 0.930 . S
C1031 O1032 1.224 . S
C1031 O1050 1.247 . S
O1032 C1031 1.224 . S
N1033 Co1023 2.128 . S
N1033 C1034 1.355 . S
N1033 C1036 1.311 . S
C1034 N1033 1.355 . S
C1034 C1035 1.363 . S
C1034 H1046 0.929 . S
C1035 C1034 1.363 . S
C1035 N1037 1.375 . S
C1035 H1053 0.931 . S
C1036 N1033 1.311 . S
C1036 N1037 1.347 . S
C1036 H1047 0.929 . S
N1037 C1035 1.375 . S
N1037 C1036 1.347 . S
C1038 C1041 1.365 . S
C1038 N1043 1.328 . S
C1038 H1044 0.929 . S
C1039 C1040 1.362 . S
C1039 C1042 1.378 . S
C1039 H1054 0.929 . S
C1040 C1039 1.362 . S
C1040 C1041 1.366 . S
C1041 C1038 1.365 . S
C1041 C1040 1.366 . S
C1041 H1055 0.930 . S
C1042 C1039 1.378 . S
C1042 N1043 1.315 . S
C1042 H1045 0.930 . S
N1043 Co1023 2.194 . S
N1043 C1038 1.328 . S
N1043 C1042 1.315 . S
H1044 C1038 0.929 . S
H1045 C1042 0.930 . S
H1046 C1034 0.929 . S
H1047 C1036 0.929 . S
O1048 Co1023 2.351 . S
O1048 C1051 1.244 . S
O1049 Co1023 2.155 . S
O1049 C1051 1.240 . S
O1050 Co1023 2.096 . S
O1050 C1031 1.247 . S
C1051 O1048 1.244 . S
C1051 O1049 1.240 . S
H1052 C1026 0.931 . S
H1053 C1035 0.931 . S
H1054 C1039 0.929 . S
H1055 C1041 0.930 . S
Co1056 N1060 2.148 . S
Co1056 N1066 2.128 . S
Co1056 N1076 2.194 . S
Co1056 O1081 2.351 . S
Co1056 O1082 2.155 . S
Co1056 O1083 2.096 . S
C1057 N1060 1.301 . S
C1057 N1061 1.328 . S
C1057 H1062 0.930 . S
C1058 C1059 1.333 . S
C1058 N1060 1.317 . S
C1058 H1063 0.930 . S
C1059 C1058 1.333 . S
C1059 N1061 1.350 . S
C1059 H1085 0.931 . S
N1060 Co1056 2.148 . S
N1060 C1057 1.301 . S
N1060 C1058 1.317 . S
N1061 C1057 1.328 . S
N1061 C1059 1.350 . S
H1062 C1057 0.930 . S
H1063 C1058 0.930 . S
C1064 O1065 1.224 . S
C1064 O1083 1.247 . S
O1065 C1064 1.224 . S
N1066 Co1056 2.128 . S
N1066 C1067 1.355 . S
N1066 C1069 1.311 . S
C1067 N1066 1.355 . S
C1067 C1068 1.363 . S
C1067 H1079 0.929 . S
C1068 C1067 1.363 . S
C1068 N1070 1.375 . S
C1068 H1086 0.931 . S
C1069 N1066 1.311 . S
C1069 N1070 1.347 . S
C1069 H1080 0.929 . S
N1070 C1068 1.375 . S
N1070 C1069 1.347 . S
C1071 C1074 1.365 . S
C1071 N1076 1.328 . S
C1071 H1077 0.929 . S
C1072 C1073 1.362 . S
C1072 C1075 1.378 . S
C1072 H1087 0.929 . S
C1073 C1072 1.362 . S
C1073 C1074 1.366 . S
C1074 C1071 1.365 . S
C1074 C1073 1.366 . S
C1074 H1088 0.930 . S
C1075 C1072 1.378 . S
C1075 N1076 1.315 . S
C1075 H1078 0.930 . S
N1076 Co1056 2.194 . S
N1076 C1071 1.328 . S
N1076 C1075 1.315 . S
H1077 C1071 0.929 . S
H1078 C1075 0.930 . S
H1079 C1067 0.929 . S
H1080 C1069 0.929 . S
O1081 Co1056 2.351 . S
O1081 C1084 1.244 . S
O1082 Co1056 2.155 . S
O1082 C1084 1.240 . S
O1083 Co1056 2.096 . S
O1083 C1064 1.247 . S
C1084 O1081 1.244 . S
C1084 O1082 1.240 . S
H1085 C1059 0.931 . S
H1086 C1068 0.931 . S
H1087 C1072 0.929 . S
H1088 C1074 0.930 . S
Co1089 N1093 2.148 . S
Co1089 N1099 2.128 . S
Co1089 N1109 2.194 . S
Co1089 O1114 2.351 . S
Co1089 O1115 2.155 . S
Co1089 O1116 2.096 . S
C1090 N1093 1.301 . S
C1090 N1094 1.328 . S
C1090 H1095 0.930 . S
C1091 C1092 1.333 . S
C1091 N1093 1.317 . S
C1091 H1096 0.930 . S
C1092 C1091 1.333 . S
C1092 N1094 1.350 . S
C1092 H1118 0.931 . S
N1093 Co1089 2.148 . S
N1093 C1090 1.301 . S
N1093 C1091 1.317 . S
N1094 C1090 1.328 . S
N1094 C1092 1.350 . S
H1095 C1090 0.930 . S
H1096 C1091 0.930 . S
C1097 O1098 1.224 . S
C1097 O1116 1.247 . S
O1098 C1097 1.224 . S
N1099 Co1089 2.128 . S
N1099 C1100 1.355 . S
N1099 C1102 1.311 . S
C1100 N1099 1.355 . S
C1100 C1101 1.363 . S
C1100 H1112 0.929 . S
C1101 C1100 1.363 . S
C1101 N1103 1.375 . S
C1101 H1119 0.931 . S
C1102 N1099 1.311 . S
C1102 N1103 1.347 . S
C1102 H1113 0.929 . S
N1103 C1101 1.375 . S
N1103 C1102 1.347 . S
C1104 C1107 1.365 . S
C1104 N1109 1.328 . S
C1104 H1110 0.929 . S
C1105 C1106 1.362 . S
C1105 C1108 1.378 . S
C1105 H1120 0.929 . S
C1106 C1105 1.362 . S
C1106 C1107 1.366 . S
C1107 C1104 1.365 . S
C1107 C1106 1.366 . S
C1107 H1121 0.930 . S
C1108 C1105 1.378 . S
C1108 N1109 1.315 . S
C1108 H1111 0.930 . S
N1109 Co1089 2.194 . S
N1109 C1104 1.328 . S
N1109 C1108 1.315 . S
H1110 C1104 0.929 . S
H1111 C1108 0.930 . S
H1112 C1100 0.929 . S
H1113 C1102 0.929 . S
O1114 Co1089 2.351 . S
O1114 C1117 1.244 . S
O1115 Co1089 2.155 . S
O1115 C1117 1.240 . S
O1116 Co1089 2.096 . S
O1116 C1097 1.247 . S
C1117 O1114 1.244 . S
C1117 O1115 1.240 . S
H1118 C1092 0.931 . S
H1119 C1101 0.931 . S
H1120 C1105 0.929 . S
H1121 C1107 0.930 . S
Co1122 N1126 2.148 . S
Co1122 N1132 2.128 . S
Co1122 N1142 2.194 . S
Co1122 O1147 2.351 . S
Co1122 O1148 2.155 . S
Co1122 O1149 2.096 . S
C1123 N1126 1.301 . S
C1123 N1127 1.328 . S
C1123 H1128 0.930 . S
C1124 C1125 1.333 . S
C1124 N1126 1.317 . S
C1124 H1129 0.930 . S
C1125 C1124 1.333 . S
C1125 N1127 1.350 . S
C1125 H1151 0.931 . S
N1126 Co1122 2.148 . S
N1126 C1123 1.301 . S
N1126 C1124 1.317 . S
N1127 C1123 1.328 . S
N1127 C1125 1.350 . S
H1128 C1123 0.930 . S
H1129 C1124 0.930 . S
C1130 O1131 1.224 . S
C1130 O1149 1.247 . S
O1131 C1130 1.224 . S
N1132 Co1122 2.128 . S
N1132 C1133 1.355 . S
N1132 C1135 1.311 . S
C1133 N1132 1.355 . S
C1133 C1134 1.363 . S
C1133 H1145 0.929 . S
C1134 C1133 1.363 . S
C1134 N1136 1.375 . S
C1134 H1152 0.931 . S
C1135 N1132 1.311 . S
C1135 N1136 1.347 . S
C1135 H1146 0.929 . S
N1136 C1134 1.375 . S
N1136 C1135 1.347 . S
C1137 C1140 1.365 . S
C1137 N1142 1.328 . S
C1137 H1143 0.929 . S
C1138 C1139 1.362 . S
C1138 C1141 1.378 . S
C1138 H1153 0.929 . S
C1139 C1138 1.362 . S
C1139 C1140 1.366 . S
C1140 C1137 1.365 . S
C1140 C1139 1.366 . S
C1140 H1154 0.930 . S
C1141 C1138 1.378 . S
C1141 N1142 1.315 . S
C1141 H1144 0.930 . S
N1142 Co1122 2.194 . S
N1142 C1137 1.328 . S
N1142 C1141 1.315 . S
H1143 C1137 0.929 . S
H1144 C1141 0.930 . S
H1145 C1133 0.929 . S
H1146 C1135 0.929 . S
O1147 Co1122 2.351 . S
O1147 C1150 1.244 . S
O1148 Co1122 2.155 . S
O1148 C1150 1.240 . S
O1149 Co1122 2.096 . S
O1149 C1130 1.247 . S
C1150 O1147 1.244 . S
C1150 O1148 1.240 . S
H1151 C1125 0.931 . S
H1152 C1134 0.931 . S
H1153 C1138 0.929 . S
H1154 C1140 0.930 . S
Co1155 N1159 2.148 . S
Co1155 N1165 2.128 . S
Co1155 N1175 2.194 . S
Co1155 O1180 2.351 . S
Co1155 O1181 2.155 . S
Co1155 O1182 2.096 . S
C1156 N1159 1.301 . S
C1156 N1160 1.328 . S
C1156 H1161 0.930 . S
C1157 C1158 1.333 . S
C1157 N1159 1.317 . S
C1157 H1162 0.930 . S
C1158 C1157 1.333 . S
C1158 N1160 1.350 . S
C1158 H1184 0.931 . S
N1159 Co1155 2.148 . S
N1159 C1156 1.301 . S
N1159 C1157 1.317 . S
N1160 C1156 1.328 . S
N1160 C1158 1.350 . S
H1161 C1156 0.930 . S
H1162 C1157 0.930 . S
C1163 O1164 1.224 . S
C1163 O1182 1.247 . S
O1164 C1163 1.224 . S
N1165 Co1155 2.128 . S
N1165 C1166 1.355 . S
N1165 C1168 1.311 . S
C1166 N1165 1.355 . S
C1166 C1167 1.363 . S
C1166 H1178 0.929 . S
C1167 C1166 1.363 . S
C1167 N1169 1.375 . S
C1167 H1185 0.931 . S
C1168 N1165 1.311 . S
C1168 N1169 1.347 . S
C1168 H1179 0.929 . S
N1169 C1167 1.375 . S
N1169 C1168 1.347 . S
C1170 C1173 1.365 . S
C1170 N1175 1.328 . S
C1170 H1176 0.929 . S
C1171 C1172 1.362 . S
C1171 C1174 1.378 . S
C1171 H1186 0.929 . S
C1172 C1171 1.362 . S
C1172 C1173 1.366 . S
C1173 C1170 1.365 . S
C1173 C1172 1.366 . S
C1173 H1187 0.930 . S
C1174 C1171 1.378 . S
C1174 N1175 1.315 . S
C1174 H1177 0.930 . S
N1175 Co1155 2.194 . S
N1175 C1170 1.328 . S
N1175 C1174 1.315 . S
H1176 C1170 0.929 . S
H1177 C1174 0.930 . S
H1178 C1166 0.929 . S
H1179 C1168 0.929 . S
O1180 Co1155 2.351 . S
O1180 C1183 1.244 . S
O1181 Co1155 2.155 . S
O1181 C1183 1.240 . S
O1182 Co1155 2.096 . S
O1182 C1163 1.247 . S
C1183 O1180 1.244 . S
C1183 O1181 1.240 . S
H1184 C1158 0.931 . S
H1185 C1167 0.931 . S
H1186 C1171 0.929 . S
H1187 C1173 0.930 . S
Co1188 N1192 2.148 . S
Co1188 N1198 2.128 . S
Co1188 N1208 2.194 . S
Co1188 O1213 2.351 . S
Co1188 O1214 2.155 . S
Co1188 O1215 2.096 . S
C1189 N1192 1.301 . S
C1189 N1193 1.328 . S
C1189 H1194 0.930 . S
C1190 C1191 1.333 . S
C1190 N1192 1.317 . S
C1190 H1195 0.930 . S
C1191 C1190 1.333 . S
C1191 N1193 1.350 . S
C1191 H1217 0.931 . S
N1192 Co1188 2.148 . S
N1192 C1189 1.301 . S
N1192 C1190 1.317 . S
N1193 C1189 1.328 . S
N1193 C1191 1.350 . S
H1194 C1189 0.930 . S
H1195 C1190 0.930 . S
C1196 O1197 1.224 . S
C1196 O1215 1.247 . S
O1197 C1196 1.224 . S
N1198 Co1188 2.128 . S
N1198 C1199 1.355 . S
N1198 C1201 1.311 . S
C1199 N1198 1.355 . S
C1199 C1200 1.363 . S
C1199 H1211 0.929 . S
C1200 C1199 1.363 . S
C1200 N1202 1.375 . S
C1200 H1218 0.931 . S
C1201 N1198 1.311 . S
C1201 N1202 1.347 . S
C1201 H1212 0.929 . S
N1202 C1200 1.375 . S
N1202 C1201 1.347 . S
C1203 C1206 1.365 . S
C1203 N1208 1.328 . S
C1203 H1209 0.929 . S
C1204 C1205 1.362 . S
C1204 C1207 1.378 . S
C1204 H1219 0.929 . S
C1205 C1204 1.362 . S
C1205 C1206 1.366 . S
C1206 C1203 1.365 . S
C1206 C1205 1.366 . S
C1206 H1220 0.930 . S
C1207 C1204 1.378 . S
C1207 N1208 1.315 . S
C1207 H1210 0.930 . S
N1208 Co1188 2.194 . S
N1208 C1203 1.328 . S
N1208 C1207 1.315 . S
H1209 C1203 0.929 . S
H1210 C1207 0.930 . S
H1211 C1199 0.929 . S
H1212 C1201 0.929 . S
O1213 Co1188 2.351 . S
O1213 C1216 1.244 . S
O1214 Co1188 2.155 . S
O1214 C1216 1.240 . S
O1215 Co1188 2.096 . S
O1215 C1196 1.247 . S
C1216 O1213 1.244 . S
C1216 O1214 1.240 . S
H1217 C1191 0.931 . S
H1218 C1200 0.931 . S
H1219 C1204 0.929 . S
H1220 C1206 0.930 . S
Co1221 N1225 2.148 . S
Co1221 N1231 2.128 . S
Co1221 N1241 2.194 . S
Co1221 O1246 2.351 . S
Co1221 O1247 2.155 . S
Co1221 O1248 2.096 . S
C1222 N1225 1.301 . S
C1222 N1226 1.328 . S
C1222 H1227 0.930 . S
C1223 C1224 1.333 . S
C1223 N1225 1.317 . S
C1223 H1228 0.930 . S
C1224 C1223 1.333 . S
C1224 N1226 1.350 . S
C1224 H1250 0.931 . S
N1225 Co1221 2.148 . S
N1225 C1222 1.301 . S
N1225 C1223 1.317 . S
N1226 C1222 1.328 . S
N1226 C1224 1.350 . S
H1227 C1222 0.930 . S
H1228 C1223 0.930 . S
C1229 O1230 1.224 . S
C1229 O1248 1.247 . S
O1230 C1229 1.224 . S
N1231 Co1221 2.128 . S
N1231 C1232 1.355 . S
N1231 C1234 1.311 . S
C1232 N1231 1.355 . S
C1232 C1233 1.363 . S
C1232 H1244 0.929 . S
C1233 C1232 1.363 . S
C1233 N1235 1.375 . S
C1233 H1251 0.931 . S
C1234 N1231 1.311 . S
C1234 N1235 1.347 . S
C1234 H1245 0.929 . S
N1235 C1233 1.375 . S
N1235 C1234 1.347 . S
C1236 C1239 1.365 . S
C1236 N1241 1.328 . S
C1236 H1242 0.929 . S
C1237 C1238 1.362 . S
C1237 C1240 1.378 . S
C1237 H1252 0.929 . S
C1238 C1237 1.362 . S
C1238 C1239 1.366 . S
C1239 C1236 1.365 . S
C1239 C1238 1.366 . S
C1239 H1253 0.930 . S
C1240 C1237 1.378 . S
C1240 N1241 1.315 . S
C1240 H1243 0.930 . S
N1241 Co1221 2.194 . S
N1241 C1236 1.328 . S
N1241 C1240 1.315 . S
H1242 C1236 0.929 . S
H1243 C1240 0.930 . S
H1244 C1232 0.929 . S
H1245 C1234 0.929 . S
O1246 Co1221 2.351 . S
O1246 C1249 1.244 . S
O1247 Co1221 2.155 . S
O1247 C1249 1.240 . S
O1248 Co1221 2.096 . S
O1248 C1229 1.247 . S
C1249 O1246 1.244 . S
C1249 O1247 1.240 . S
H1250 C1224 0.931 . S
H1251 C1233 0.931 . S
H1252 C1237 0.929 . S
H1253 C1239 0.930 . S
Co1254 N1258 2.148 . S
Co1254 N1264 2.128 . S
Co1254 N1274 2.194 . S
Co1254 O1279 2.351 . S
Co1254 O1280 2.155 . S
Co1254 O1281 2.096 . S
C1255 N1258 1.301 . S
C1255 N1259 1.328 . S
C1255 H1260 0.930 . S
C1256 C1257 1.333 . S
C1256 N1258 1.317 . S
C1256 H1261 0.930 . S
C1257 C1256 1.333 . S
C1257 N1259 1.350 . S
C1257 H1283 0.931 . S
N1258 Co1254 2.148 . S
N1258 C1255 1.301 . S
N1258 C1256 1.317 . S
N1259 C1255 1.328 . S
N1259 C1257 1.350 . S
H1260 C1255 0.930 . S
H1261 C1256 0.930 . S
C1262 O1263 1.224 . S
C1262 O1281 1.247 . S
O1263 C1262 1.224 . S
N1264 Co1254 2.128 . S
N1264 C1265 1.355 . S
N1264 C1267 1.311 . S
C1265 N1264 1.355 . S
C1265 C1266 1.363 . S
C1265 H1277 0.929 . S
C1266 C1265 1.363 . S
C1266 N1268 1.375 . S
C1266 H1284 0.931 . S
C1267 N1264 1.311 . S
C1267 N1268 1.347 . S
C1267 H1278 0.929 . S
N1268 C1266 1.375 . S
N1268 C1267 1.347 . S
C1269 C1272 1.365 . S
C1269 N1274 1.328 . S
C1269 H1275 0.929 . S
C1270 C1271 1.362 . S
C1270 C1273 1.378 . S
C1270 H1285 0.929 . S
C1271 C1270 1.362 . S
C1271 C1272 1.366 . S
C1272 C1269 1.365 . S
C1272 C1271 1.366 . S
C1272 H1286 0.930 . S
C1273 C1270 1.378 . S
C1273 N1274 1.315 . S
C1273 H1276 0.930 . S
N1274 Co1254 2.194 . S
N1274 C1269 1.328 . S
N1274 C1273 1.315 . S
H1275 C1269 0.929 . S
H1276 C1273 0.930 . S
H1277 C1265 0.929 . S
H1278 C1267 0.929 . S
O1279 Co1254 2.351 . S
O1279 C1282 1.244 . S
O1280 Co1254 2.155 . S
O1280 C1282 1.240 . S
O1281 Co1254 2.096 . S
O1281 C1262 1.247 . S
C1282 O1279 1.244 . S
C1282 O1280 1.240 . S
H1283 C1257 0.931 . S
H1284 C1266 0.931 . S
H1285 C1270 0.929 . S
H1286 C1272 0.930 . S
Co1287 N1291 2.148 . S
Co1287 N1297 2.128 . S
Co1287 N1307 2.194 . S
Co1287 O1312 2.351 . S
Co1287 O1313 2.155 . S
Co1287 O1314 2.096 . S
C1288 N1291 1.301 . S
C1288 N1292 1.328 . S
C1288 H1293 0.930 . S
C1289 C1290 1.333 . S
C1289 N1291 1.317 . S
C1289 H1294 0.930 . S
C1290 C1289 1.333 . S
C1290 N1292 1.350 . S
C1290 H1316 0.931 . S
N1291 Co1287 2.148 . S
N1291 C1288 1.301 . S
N1291 C1289 1.317 . S
N1292 C1288 1.328 . S
N1292 C1290 1.350 . S
H1293 C1288 0.930 . S
H1294 C1289 0.930 . S
C1295 O1296 1.224 . S
C1295 O1314 1.247 . S
O1296 C1295 1.224 . S
N1297 Co1287 2.128 . S
N1297 C1298 1.355 . S
N1297 C1300 1.311 . S
C1298 N1297 1.355 . S
C1298 C1299 1.363 . S
C1298 H1310 0.929 . S
C1299 C1298 1.363 . S
C1299 N1301 1.375 . S
C1299 H1317 0.931 . S
C1300 N1297 1.311 . S
C1300 N1301 1.347 . S
C1300 H1311 0.929 . S
N1301 C1299 1.375 . S
N1301 C1300 1.347 . S
C1302 C1305 1.365 . S
C1302 N1307 1.328 . S
C1302 H1308 0.929 . S
C1303 C1304 1.362 . S
C1303 C1306 1.378 . S
C1303 H1318 0.929 . S
C1304 C1303 1.362 . S
C1304 C1305 1.366 . S
C1305 C1302 1.365 . S
C1305 C1304 1.366 . S
C1305 H1319 0.930 . S
C1306 C1303 1.378 . S
C1306 N1307 1.315 . S
C1306 H1309 0.930 . S
N1307 Co1287 2.194 . S
N1307 C1302 1.328 . S
N1307 C1306 1.315 . S
H1308 C1302 0.929 . S
H1309 C1306 0.930 . S
H1310 C1298 0.929 . S
H1311 C1300 0.929 . S
O1312 Co1287 2.351 . S
O1312 C1315 1.244 . S
O1313 Co1287 2.155 . S
O1313 C1315 1.240 . S
O1314 Co1287 2.096 . S
O1314 C1295 1.247 . S
C1315 O1312 1.244 . S
C1315 O1313 1.240 . S
H1316 C1290 0.931 . S
H1317 C1299 0.931 . S
H1318 C1303 0.929 . S
H1319 C1305 0.930 . S
Co1320 N1324 2.148 . S
Co1320 N1330 2.128 . S
Co1320 N1340 2.194 . S
Co1320 O1345 2.351 . S
Co1320 O1346 2.155 . S
Co1320 O1347 2.096 . S
C1321 N1324 1.301 . S
C1321 N1325 1.328 . S
C1321 H1326 0.930 . S
C1322 C1323 1.333 . S
C1322 N1324 1.317 . S
C1322 H1327 0.930 . S
C1323 C1322 1.333 . S
C1323 N1325 1.350 . S
C1323 H1349 0.931 . S
N1324 Co1320 2.148 . S
N1324 C1321 1.301 . S
N1324 C1322 1.317 . S
N1325 C1321 1.328 . S
N1325 C1323 1.350 . S
H1326 C1321 0.930 . S
H1327 C1322 0.930 . S
C1328 O1329 1.224 . S
C1328 O1347 1.247 . S
O1329 C1328 1.224 . S
N1330 Co1320 2.128 . S
N1330 C1331 1.355 . S
N1330 C1333 1.311 . S
C1331 N1330 1.355 . S
C1331 C1332 1.363 . S
C1331 H1343 0.929 . S
C1332 C1331 1.363 . S
C1332 N1334 1.375 . S
C1332 H1350 0.931 . S
C1333 N1330 1.311 . S
C1333 N1334 1.347 . S
C1333 H1344 0.929 . S
N1334 C1332 1.375 . S
N1334 C1333 1.347 . S
C1335 C1338 1.365 . S
C1335 N1340 1.328 . S
C1335 H1341 0.929 . S
C1336 C1337 1.362 . S
C1336 C1339 1.378 . S
C1336 H1351 0.929 . S
C1337 C1336 1.362 . S
C1337 C1338 1.366 . S
C1338 C1335 1.365 . S
C1338 C1337 1.366 . S
C1338 H1352 0.930 . S
C1339 C1336 1.378 . S
C1339 N1340 1.315 . S
C1339 H1342 0.930 . S
N1340 Co1320 2.194 . S
N1340 C1335 1.328 . S
N1340 C1339 1.315 . S
H1341 C1335 0.929 . S
H1342 C1339 0.930 . S
H1343 C1331 0.929 . S
H1344 C1333 0.929 . S
O1345 Co1320 2.351 . S
O1345 C1348 1.244 . S
O1346 Co1320 2.155 . S
O1346 C1348 1.240 . S
O1347 Co1320 2.096 . S
O1347 C1328 1.247 . S
C1348 O1345 1.244 . S
C1348 O1346 1.240 . S
H1349 C1323 0.931 . S
H1350 C1332 0.931 . S
H1351 C1336 0.929 . S
H1352 C1338 0.930 . S
Co1353 N1357 2.148 . S
Co1353 N1363 2.128 . S
Co1353 N1373 2.194 . S
Co1353 O1378 2.351 . S
Co1353 O1379 2.155 . S
Co1353 O1380 2.096 . S
C1354 N1357 1.301 . S
C1354 N1358 1.328 . S
C1354 H1359 0.930 . S
C1355 C1356 1.333 . S
C1355 N1357 1.317 . S
C1355 H1360 0.930 . S
C1356 C1355 1.333 . S
C1356 N1358 1.350 . S
C1356 H1382 0.931 . S
N1357 Co1353 2.148 . S
N1357 C1354 1.301 . S
N1357 C1355 1.317 . S
N1358 C1354 1.328 . S
N1358 C1356 1.350 . S
H1359 C1354 0.930 . S
H1360 C1355 0.930 . S
C1361 O1362 1.224 . S
C1361 O1380 1.247 . S
O1362 C1361 1.224 . S
N1363 Co1353 2.128 . S
N1363 C1364 1.355 . S
N1363 C1366 1.311 . S
C1364 N1363 1.355 . S
C1364 C1365 1.363 . S
C1364 H1376 0.929 . S
C1365 C1364 1.363 . S
C1365 N1367 1.375 . S
C1365 H1383 0.931 . S
C1366 N1363 1.311 . S
C1366 N1367 1.347 . S
C1366 H1377 0.929 . S
N1367 C1365 1.375 . S
N1367 C1366 1.347 . S
C1368 C1371 1.365 . S
C1368 N1373 1.328 . S
C1368 H1374 0.929 . S
C1369 C1370 1.362 . S
C1369 C1372 1.378 . S
C1369 H1384 0.929 . S
C1370 C1369 1.362 . S
C1370 C1371 1.366 . S
C1371 C1368 1.365 . S
C1371 C1370 1.366 . S
C1371 H1385 0.930 . S
C1372 C1369 1.378 . S
C1372 N1373 1.315 . S
C1372 H1375 0.930 . S
N1373 Co1353 2.194 . S
N1373 C1368 1.328 . S
N1373 C1372 1.315 . S
H1374 C1368 0.929 . S
H1375 C1372 0.930 . S
H1376 C1364 0.929 . S
H1377 C1366 0.929 . S
O1378 Co1353 2.351 . S
O1378 C1381 1.244 . S
O1379 Co1353 2.155 . S
O1379 C1381 1.240 . S
O1380 Co1353 2.096 . S
O1380 C1361 1.247 . S
C1381 O1378 1.244 . S
C1381 O1379 1.240 . S
H1382 C1356 0.931 . S
H1383 C1365 0.931 . S
H1384 C1369 0.929 . S
H1385 C1371 0.930 . S
Co1386 N1390 2.148 . S
Co1386 N1396 2.128 . S
Co1386 N1406 2.194 . S
Co1386 O1411 2.351 . S
Co1386 O1412 2.155 . S
Co1386 O1413 2.096 . S
C1387 N1390 1.301 . S
C1387 N1391 1.328 . S
C1387 H1392 0.930 . S
C1388 C1389 1.333 . S
C1388 N1390 1.317 . S
C1388 H1393 0.930 . S
C1389 C1388 1.333 . S
C1389 N1391 1.350 . S
C1389 H1415 0.931 . S
N1390 Co1386 2.148 . S
N1390 C1387 1.301 . S
N1390 C1388 1.317 . S
N1391 C1387 1.328 . S
N1391 C1389 1.350 . S
H1392 C1387 0.930 . S
H1393 C1388 0.930 . S
C1394 O1395 1.224 . S
C1394 O1413 1.247 . S
O1395 C1394 1.224 . S
N1396 Co1386 2.128 . S
N1396 C1397 1.355 . S
N1396 C1399 1.311 . S
C1397 N1396 1.355 . S
C1397 C1398 1.363 . S
C1397 H1409 0.929 . S
C1398 C1397 1.363 . S
C1398 N1400 1.375 . S
C1398 H1416 0.931 . S
C1399 N1396 1.311 . S
C1399 N1400 1.347 . S
C1399 H1410 0.929 . S
N1400 C1398 1.375 . S
N1400 C1399 1.347 . S
C1401 C1404 1.365 . S
C1401 N1406 1.328 . S
C1401 H1407 0.929 . S
C1402 C1403 1.362 . S
C1402 C1405 1.378 . S
C1402 H1417 0.929 . S
C1403 C1402 1.362 . S
C1403 C1404 1.366 . S
C1404 C1401 1.365 . S
C1404 C1403 1.366 . S
C1404 H1418 0.930 . S
C1405 C1402 1.378 . S
C1405 N1406 1.315 . S
C1405 H1408 0.930 . S
N1406 Co1386 2.194 . S
N1406 C1401 1.328 . S
N1406 C1405 1.315 . S
H1407 C1401 0.929 . S
H1408 C1405 0.930 . S
H1409 C1397 0.929 . S
H1410 C1399 0.929 . S
O1411 Co1386 2.351 . S
O1411 C1414 1.244 . S
O1412 Co1386 2.155 . S
O1412 C1414 1.240 . S
O1413 Co1386 2.096 . S
O1413 C1394 1.247 . S
C1414 O1411 1.244 . S
C1414 O1412 1.240 . S
H1415 C1389 0.931 . S
H1416 C1398 0.931 . S
H1417 C1402 0.929 . S
H1418 C1404 0.930 . S
Co1419 N1423 2.148 . S
Co1419 N1429 2.128 . S
Co1419 N1439 2.194 . S
Co1419 O1444 2.351 . S
Co1419 O1445 2.155 . S
Co1419 O1446 2.096 . S
C1420 N1423 1.301 . S
C1420 N1424 1.328 . S
C1420 H1425 0.930 . S
C1421 C1422 1.333 . S
C1421 N1423 1.317 . S
C1421 H1426 0.930 . S
C1422 C1421 1.333 . S
C1422 N1424 1.350 . S
C1422 H1448 0.931 . S
N1423 Co1419 2.148 . S
N1423 C1420 1.301 . S
N1423 C1421 1.317 . S
N1424 C1420 1.328 . S
N1424 C1422 1.350 . S
H1425 C1420 0.930 . S
H1426 C1421 0.930 . S
C1427 O1428 1.224 . S
C1427 O1446 1.247 . S
O1428 C1427 1.224 . S
N1429 Co1419 2.128 . S
N1429 C1430 1.355 . S
N1429 C1432 1.311 . S
C1430 N1429 1.355 . S
C1430 C1431 1.363 . S
C1430 H1442 0.929 . S
C1431 C1430 1.363 . S
C1431 N1433 1.375 . S
C1431 H1449 0.931 . S
C1432 N1429 1.311 . S
C1432 N1433 1.347 . S
C1432 H1443 0.929 . S
N1433 C1431 1.375 . S
N1433 C1432 1.347 . S
C1434 C1437 1.365 . S
C1434 N1439 1.328 . S
C1434 H1440 0.929 . S
C1435 C1436 1.362 . S
C1435 C1438 1.378 . S
C1435 H1450 0.929 . S
C1436 C1435 1.362 . S
C1436 C1437 1.366 . S
C1437 C1434 1.365 . S
C1437 C1436 1.366 . S
C1437 H1451 0.930 . S
C1438 C1435 1.378 . S
C1438 N1439 1.315 . S
C1438 H1441 0.930 . S
N1439 Co1419 2.194 . S
N1439 C1434 1.328 . S
N1439 C1438 1.315 . S
H1440 C1434 0.929 . S
H1441 C1438 0.930 . S
H1442 C1430 0.929 . S
H1443 C1432 0.929 . S
O1444 Co1419 2.351 . S
O1444 C1447 1.244 . S
O1445 Co1419 2.155 . S
O1445 C1447 1.240 . S
O1446 Co1419 2.096 . S
O1446 C1427 1.247 . S
C1447 O1444 1.244 . S
C1447 O1445 1.240 . S
H1448 C1422 0.931 . S
H1449 C1431 0.931 . S
H1450 C1435 0.929 . S
H1451 C1437 0.930 . S
Co1452 N1456 2.148 . S
Co1452 N1462 2.128 . S
Co1452 N1472 2.194 . S
Co1452 O1477 2.351 . S
Co1452 O1478 2.155 . S
Co1452 O1479 2.096 . S
C1453 N1456 1.301 . S
C1453 N1457 1.328 . S
C1453 H1458 0.930 . S
C1454 C1455 1.333 . S
C1454 N1456 1.317 . S
C1454 H1459 0.930 . S
C1455 C1454 1.333 . S
C1455 N1457 1.350 . S
C1455 H1481 0.931 . S
N1456 Co1452 2.148 . S
N1456 C1453 1.301 . S
N1456 C1454 1.317 . S
N1457 C1453 1.328 . S
N1457 C1455 1.350 . S
H1458 C1453 0.930 . S
H1459 C1454 0.930 . S
C1460 O1461 1.224 . S
C1460 O1479 1.247 . S
O1461 C1460 1.224 . S
N1462 Co1452 2.128 . S
N1462 C1463 1.355 . S
N1462 C1465 1.311 . S
C1463 N1462 1.355 . S
C1463 C1464 1.363 . S
C1463 H1475 0.929 . S
C1464 C1463 1.363 . S
C1464 N1466 1.375 . S
C1464 H1482 0.931 . S
C1465 N1462 1.311 . S
C1465 N1466 1.347 . S
C1465 H1476 0.929 . S
N1466 C1464 1.375 . S
N1466 C1465 1.347 . S
C1467 C1470 1.365 . S
C1467 N1472 1.328 . S
C1467 H1473 0.929 . S
C1468 C1469 1.362 . S
C1468 C1471 1.378 . S
C1468 H1483 0.929 . S
C1469 C1468 1.362 . S
C1469 C1470 1.366 . S
C1470 C1467 1.365 . S
C1470 C1469 1.366 . S
C1470 H1484 0.930 . S
C1471 C1468 1.378 . S
C1471 N1472 1.315 . S
C1471 H1474 0.930 . S
N1472 Co1452 2.194 . S
N1472 C1467 1.328 . S
N1472 C1471 1.315 . S
H1473 C1467 0.929 . S
H1474 C1471 0.930 . S
H1475 C1463 0.929 . S
H1476 C1465 0.929 . S
O1477 Co1452 2.351 . S
O1477 C1480 1.244 . S
O1478 Co1452 2.155 . S
O1478 C1480 1.240 . S
O1479 Co1452 2.096 . S
O1479 C1460 1.247 . S
C1480 O1477 1.244 . S
C1480 O1478 1.240 . S
H1481 C1455 0.931 . S
H1482 C1464 0.931 . S
H1483 C1468 0.929 . S
H1484 C1470 0.930 . S
Co1485 N1489 2.148 . S
Co1485 N1495 2.128 . S
Co1485 N1505 2.194 . S
Co1485 O1510 2.351 . S
Co1485 O1511 2.155 . S
Co1485 O1512 2.096 . S
C1486 N1489 1.301 . S
C1486 N1490 1.328 . S
C1486 H1491 0.930 . S
C1487 C1488 1.333 . S
C1487 N1489 1.317 . S
C1487 H1492 0.930 . S
C1488 C1487 1.333 . S
C1488 N1490 1.350 . S
C1488 H1514 0.931 . S
N1489 Co1485 2.148 . S
N1489 C1486 1.301 . S
N1489 C1487 1.317 . S
N1490 C1486 1.328 . S
N1490 C1488 1.350 . S
H1491 C1486 0.930 . S
H1492 C1487 0.930 . S
C1493 O1494 1.224 . S
C1493 O1512 1.247 . S
O1494 C1493 1.224 . S
N1495 Co1485 2.128 . S
N1495 C1496 1.355 . S
N1495 C1498 1.311 . S
C1496 N1495 1.355 . S
C1496 C1497 1.363 . S
C1496 H1508 0.929 . S
C1497 C1496 1.363 . S
C1497 N1499 1.375 . S
C1497 H1515 0.931 . S
C1498 N1495 1.311 . S
C1498 N1499 1.347 . S
C1498 H1509 0.929 . S
N1499 C1497 1.375 . S
N1499 C1498 1.347 . S
C1500 C1503 1.365 . S
C1500 N1505 1.328 . S
C1500 H1506 0.929 . S
C1501 C1502 1.362 . S
C1501 C1504 1.378 . S
C1501 H1516 0.929 . S
C1502 C1501 1.362 . S
C1502 C1503 1.366 . S
C1503 C1500 1.365 . S
C1503 C1502 1.366 . S
C1503 H1517 0.930 . S
C1504 C1501 1.378 . S
C1504 N1505 1.315 . S
C1504 H1507 0.930 . S
N1505 Co1485 2.194 . S
N1505 C1500 1.328 . S
N1505 C1504 1.315 . S
H1506 C1500 0.929 . S
H1507 C1504 0.930 . S
H1508 C1496 0.929 . S
H1509 C1498 0.929 . S
O1510 Co1485 2.351 . S
O1510 C1513 1.244 . S
O1511 Co1485 2.155 . S
O1511 C1513 1.240 . S
O1512 Co1485 2.096 . S
O1512 C1493 1.247 . S
C1513 O1510 1.244 . S
C1513 O1511 1.240 . S
H1514 C1488 0.931 . S
H1515 C1497 0.931 . S
H1516 C1501 0.929 . S
H1517 C1503 0.930 . S
Co1518 N1522 2.148 . S
Co1518 N1528 2.128 . S
Co1518 N1538 2.194 . S
Co1518 O1543 2.351 . S
Co1518 O1544 2.155 . S
Co1518 O1545 2.096 . S
C1519 N1522 1.301 . S
C1519 N1523 1.328 . S
C1519 H1524 0.930 . S
C1520 C1521 1.333 . S
C1520 N1522 1.317 . S
C1520 H1525 0.930 . S
C1521 C1520 1.333 . S
C1521 N1523 1.350 . S
C1521 H1547 0.931 . S
N1522 Co1518 2.148 . S
N1522 C1519 1.301 . S
N1522 C1520 1.317 . S
N1523 C1519 1.328 . S
N1523 C1521 1.350 . S
H1524 C1519 0.930 . S
H1525 C1520 0.930 . S
C1526 O1527 1.224 . S
C1526 O1545 1.247 . S
O1527 C1526 1.224 . S
N1528 Co1518 2.128 . S
N1528 C1529 1.355 . S
N1528 C1531 1.311 . S
C1529 N1528 1.355 . S
C1529 C1530 1.363 . S
C1529 H1541 0.929 . S
C1530 C1529 1.363 . S
C1530 N1532 1.375 . S
C1530 H1548 0.931 . S
C1531 N1528 1.311 . S
C1531 N1532 1.347 . S
C1531 H1542 0.929 . S
N1532 C1530 1.375 . S
N1532 C1531 1.347 . S
C1533 C1536 1.365 . S
C1533 N1538 1.328 . S
C1533 H1539 0.929 . S
C1534 C1535 1.362 . S
C1534 C1537 1.378 . S
C1534 H1549 0.929 . S
C1535 C1534 1.362 . S
C1535 C1536 1.366 . S
C1536 C1533 1.365 . S
C1536 C1535 1.366 . S
C1536 H1550 0.930 . S
C1537 C1534 1.378 . S
C1537 N1538 1.315 . S
C1537 H1540 0.930 . S
N1538 Co1518 2.194 . S
N1538 C1533 1.328 . S
N1538 C1537 1.315 . S
H1539 C1533 0.929 . S
H1540 C1537 0.930 . S
H1541 C1529 0.929 . S
H1542 C1531 0.929 . S
O1543 Co1518 2.351 . S
O1543 C1546 1.244 . S
O1544 Co1518 2.155 . S
O1544 C1546 1.240 . S
O1545 Co1518 2.096 . S
O1545 C1526 1.247 . S
C1546 O1543 1.244 . S
C1546 O1544 1.240 . S
H1547 C1521 0.931 . S
H1548 C1530 0.931 . S
H1549 C1534 0.929 . S
H1550 C1536 0.930 . S
Co1551 N1555 2.148 . S
Co1551 N1561 2.128 . S
Co1551 N1571 2.194 . S
Co1551 O1576 2.351 . S
Co1551 O1577 2.155 . S
Co1551 O1578 2.096 . S
C1552 N1555 1.301 . S
C1552 N1556 1.328 . S
C1552 H1557 0.930 . S
C1553 C1554 1.333 . S
C1553 N1555 1.317 . S
C1553 H1558 0.930 . S
C1554 C1553 1.333 . S
C1554 N1556 1.350 . S
C1554 H1580 0.931 . S
N1555 Co1551 2.148 . S
N1555 C1552 1.301 . S
N1555 C1553 1.317 . S
N1556 C1552 1.328 . S
N1556 C1554 1.350 . S
H1557 C1552 0.930 . S
H1558 C1553 0.930 . S
C1559 O1560 1.224 . S
C1559 O1578 1.247 . S
O1560 C1559 1.224 . S
N1561 Co1551 2.128 . S
N1561 C1562 1.355 . S
N1561 C1564 1.311 . S
C1562 N1561 1.355 . S
C1562 C1563 1.363 . S
C1562 H1574 0.929 . S
C1563 C1562 1.363 . S
C1563 N1565 1.375 . S
C1563 H1581 0.931 . S
C1564 N1561 1.311 . S
C1564 N1565 1.347 . S
C1564 H1575 0.929 . S
N1565 C1563 1.375 . S
N1565 C1564 1.347 . S
C1566 C1569 1.365 . S
C1566 N1571 1.328 . S
C1566 H1572 0.929 . S
C1567 C1568 1.362 . S
C1567 C1570 1.378 . S
C1567 H1582 0.929 . S
C1568 C1567 1.362 . S
C1568 C1569 1.366 . S
C1569 C1566 1.365 . S
C1569 C1568 1.366 . S
C1569 H1583 0.930 . S
C1570 C1567 1.378 . S
C1570 N1571 1.315 . S
C1570 H1573 0.930 . S
N1571 Co1551 2.194 . S
N1571 C1566 1.328 . S
N1571 C1570 1.315 . S
H1572 C1566 0.929 . S
H1573 C1570 0.930 . S
H1574 C1562 0.929 . S
H1575 C1564 0.929 . S
O1576 Co1551 2.351 . S
O1576 C1579 1.244 . S
O1577 Co1551 2.155 . S
O1577 C1579 1.240 . S
O1578 Co1551 2.096 . S
O1578 C1559 1.247 . S
C1579 O1576 1.244 . S
C1579 O1577 1.240 . S
H1580 C1554 0.931 . S
H1581 C1563 0.931 . S
H1582 C1567 0.929 . S
H1583 C1569 0.930 . S
C1584 C1585 1.369 . S
C1584 C1586 1.419 . S
C1584 H1588 0.930 . S
C1585 C1584 1.369 . S
C1585 C1594 1.429 . S
C1586 C1584 1.419 . S
C1586 C1587 1.363 . S
C1586 H1589 0.929 . S
C1587 C1586 1.363 . S
C1587 C1593 1.428 . S
H1588 C1584 0.930 . S
H1589 C1586 0.929 . S
S1590 N1591 1.613 . S
S1590 N1592 1.610 . S
N1591 S1590 1.613 . S
N1591 C1594 1.350 . S
N1592 S1590 1.610 . S
N1592 C1593 1.351 . S
C1593 C1587 1.428 . S
C1593 N1592 1.351 . S
C1593 C1594 1.434 . S
C1594 C1585 1.429 . S
C1594 N1591 1.350 . S
C1594 C1593 1.434 . S
C1595 C1596 1.369 . S
C1595 C1597 1.419 . S
C1595 H1599 0.930 . S
C1596 C1595 1.369 . S
C1596 C1605 1.429 . S
C1597 C1595 1.419 . S
C1597 C1598 1.363 . S
C1597 H1600 0.929 . S
C1598 C1597 1.363 . S
C1598 C1604 1.428 . S
H1599 C1595 0.930 . S
H1600 C1597 0.929 . S
S1601 N1602 1.613 . S
S1601 N1603 1.610 . S
N1602 S1601 1.613 . S
N1602 C1605 1.350 . S
N1603 S1601 1.610 . S
N1603 C1604 1.351 . S
C1604 C1598 1.428 . S
C1604 N1603 1.351 . S
C1604 C1605 1.434 . S
C1605 C1596 1.429 . S
C1605 N1602 1.350 . S
C1605 C1604 1.434 . S
C1606 C1607 1.369 . S
C1606 C1608 1.419 . S
C1606 H1610 0.930 . S
C1607 C1606 1.369 . S
C1607 C1616 1.429 . S
C1608 C1606 1.419 . S
C1608 C1609 1.363 . S
C1608 H1611 0.929 . S
C1609 C1608 1.363 . S
C1609 C1615 1.428 . S
H1610 C1606 0.930 . S
H1611 C1608 0.929 . S
S1612 N1613 1.613 . S
S1612 N1614 1.610 . S
N1613 S1612 1.613 . S
N1613 C1616 1.350 . S
N1614 S1612 1.610 . S
N1614 C1615 1.351 . S
C1615 C1609 1.428 . S
C1615 N1614 1.351 . S
C1615 C1616 1.434 . S
C1616 C1607 1.429 . S
C1616 N1613 1.350 . S
C1616 C1615 1.434 . S
C1617 C1618 1.369 . S
C1617 C1619 1.419 . S
C1617 H1621 0.930 . S
C1618 C1617 1.369 . S
C1618 C1627 1.429 . S
C1619 C1617 1.419 . S
C1619 C1620 1.363 . S
C1619 H1622 0.929 . S
C1620 C1619 1.363 . S
C1620 C1626 1.428 . S
H1621 C1617 0.930 . S
H1622 C1619 0.929 . S
S1623 N1624 1.613 . S
S1623 N1625 1.610 . S
N1624 S1623 1.613 . S
N1624 C1627 1.350 . S
N1625 S1623 1.610 . S
N1625 C1626 1.351 . S
C1626 C1620 1.428 . S
C1626 N1625 1.351 . S
C1626 C1627 1.434 . S
C1627 C1618 1.429 . S
C1627 N1624 1.350 . S
C1627 C1626 1.434 . S
C1628 C1629 1.369 . S
C1628 C1630 1.419 . S
C1628 H1632 0.930 . S
C1629 C1628 1.369 . S
C1629 C1638 1.429 . S
C1630 C1628 1.419 . S
C1630 C1631 1.363 . S
C1630 H1633 0.929 . S
C1631 C1630 1.363 . S
C1631 C1637 1.428 . S
H1632 C1628 0.930 . S
H1633 C1630 0.929 . S
S1634 N1635 1.613 . S
S1634 N1636 1.610 . S
N1635 S1634 1.613 . S
N1635 C1638 1.350 . S
N1636 S1634 1.610 . S
N1636 C1637 1.351 . S
C1637 C1631 1.428 . S
C1637 N1636 1.351 . S
C1637 C1638 1.434 . S
C1638 C1629 1.429 . S
C1638 N1635 1.350 . S
C1638 C1637 1.434 . S
C1639 C1640 1.369 . S
C1639 C1641 1.419 . S
C1639 H1643 0.930 . S
C1640 C1639 1.369 . S
C1640 C1649 1.429 . S
C1641 C1639 1.419 . S
C1641 C1642 1.363 . S
C1641 H1644 0.929 . S
C1642 C1641 1.363 . S
C1642 C1648 1.428 . S
H1643 C1639 0.930 . S
H1644 C1641 0.929 . S
S1645 N1646 1.613 . S
S1645 N1647 1.610 . S
N1646 S1645 1.613 . S
N1646 C1649 1.350 . S
N1647 S1645 1.610 . S
N1647 C1648 1.351 . S
C1648 C1642 1.428 . S
C1648 N1647 1.351 . S
C1648 C1649 1.434 . S
C1649 C1640 1.429 . S
C1649 N1646 1.350 . S
C1649 C1648 1.434 . S
C1650 C1651 1.369 . S
C1650 C1652 1.419 . S
C1650 H1654 0.930 . S
C1651 C1650 1.369 . S
C1651 C1660 1.429 . S
C1652 C1650 1.419 . S
C1652 C1653 1.363 . S
C1652 H1655 0.929 . S
C1653 C1652 1.363 . S
C1653 C1659 1.428 . S
H1654 C1650 0.930 . S
H1655 C1652 0.929 . S
S1656 N1657 1.613 . S
S1656 N1658 1.610 . S
N1657 S1656 1.613 . S
N1657 C1660 1.350 . S
N1658 S1656 1.610 . S
N1658 C1659 1.351 . S
C1659 C1653 1.428 . S
C1659 N1658 1.351 . S
C1659 C1660 1.434 . S
C1660 C1651 1.429 . S
C1660 N1657 1.350 . S
C1660 C1659 1.434 . S
C1661 C1662 1.369 . S
C1661 C1663 1.419 . S
C1661 H1665 0.930 . S
C1662 C1661 1.369 . S
C1662 C1671 1.429 . S
C1663 C1661 1.419 . S
C1663 C1664 1.363 . S
C1663 H1666 0.929 . S
C1664 C1663 1.363 . S
C1664 C1670 1.428 . S
H1665 C1661 0.930 . S
H1666 C1663 0.929 . S
S1667 N1668 1.613 . S
S1667 N1669 1.610 . S
N1668 S1667 1.613 . S
N1668 C1671 1.350 . S
N1669 S1667 1.610 . S
N1669 C1670 1.351 . S
C1670 C1664 1.428 . S
C1670 N1669 1.351 . S
C1670 C1671 1.434 . S
C1671 C1662 1.429 . S
C1671 N1668 1.350 . S
C1671 C1670 1.434 . S
C1672 C1673 1.369 . S
C1672 C1674 1.419 . S
C1672 H1676 0.930 . S
C1673 C1672 1.369 . S
C1673 C1682 1.429 . S
C1674 C1672 1.419 . S
C1674 C1675 1.363 . S
C1674 H1677 0.929 . S
C1675 C1674 1.363 . S
C1675 C1681 1.428 . S
H1676 C1672 0.930 . S
H1677 C1674 0.929 . S
S1678 N1679 1.613 . S
S1678 N1680 1.610 . S
N1679 S1678 1.613 . S
N1679 C1682 1.350 . S
N1680 S1678 1.610 . S
N1680 C1681 1.351 . S
C1681 C1675 1.428 . S
C1681 N1680 1.351 . S
C1681 C1682 1.434 . S
C1682 C1673 1.429 . S
C1682 N1679 1.350 . S
C1682 C1681 1.434 . S
C1683 C1684 1.369 . S
C1683 C1685 1.419 . S
C1683 H1687 0.930 . S
C1684 C1683 1.369 . S
C1684 C1693 1.429 . S
C1685 C1683 1.419 . S
C1685 C1686 1.363 . S
C1685 H1688 0.929 . S
C1686 C1685 1.363 . S
C1686 C1692 1.428 . S
H1687 C1683 0.930 . S
H1688 C1685 0.929 . S
S1689 N1690 1.613 . S
S1689 N1691 1.610 . S
N1690 S1689 1.613 . S
N1690 C1693 1.350 . S
N1691 S1689 1.610 . S
N1691 C1692 1.351 . S
C1692 C1686 1.428 . S
C1692 N1691 1.351 . S
C1692 C1693 1.434 . S
C1693 C1684 1.429 . S
C1693 N1690 1.350 . S
C1693 C1692 1.434 . S
C1694 C1695 1.369 . S
C1694 C1696 1.419 . S
C1694 H1698 0.930 . S
C1695 C1694 1.369 . S
C1695 C1704 1.429 . S
C1696 C1694 1.419 . S
C1696 C1697 1.363 . S
C1696 H1699 0.929 . S
C1697 C1696 1.363 . S
C1697 C1703 1.428 . S
H1698 C1694 0.930 . S
H1699 C1696 0.929 . S
S1700 N1701 1.613 . S
S1700 N1702 1.610 . S
N1701 S1700 1.613 . S
N1701 C1704 1.350 . S
N1702 S1700 1.610 . S
N1702 C1703 1.351 . S
C1703 C1697 1.428 . S
C1703 N1702 1.351 . S
C1703 C1704 1.434 . S
C1704 C1695 1.429 . S
C1704 N1701 1.350 . S
C1704 C1703 1.434 . S
C1705 C1706 1.369 . S
C1705 C1707 1.419 . S
C1705 H1709 0.930 . S
C1706 C1705 1.369 . S
C1706 C1715 1.429 . S
C1707 C1705 1.419 . S
C1707 C1708 1.363 . S
C1707 H1710 0.929 . S
C1708 C1707 1.363 . S
C1708 C1714 1.428 . S
H1709 C1705 0.930 . S
H1710 C1707 0.929 . S
S1711 N1712 1.613 . S
S1711 N1713 1.610 . S
N1712 S1711 1.613 . S
N1712 C1715 1.350 . S
N1713 S1711 1.610 . S
N1713 C1714 1.351 . S
C1714 C1708 1.428 . S
C1714 N1713 1.351 . S
C1714 C1715 1.434 . S
C1715 C1706 1.429 . S
C1715 N1712 1.350 . S
C1715 C1714 1.434 . S
C1716 C1717 1.369 . S
C1716 C1718 1.419 . S
C1716 H1720 0.930 . S
C1717 C1716 1.369 . S
C1717 C1726 1.429 . S
C1718 C1716 1.419 . S
C1718 C1719 1.363 . S
C1718 H1721 0.929 . S
C1719 C1718 1.363 . S
C1719 C1725 1.428 . S
H1720 C1716 0.930 . S
H1721 C1718 0.929 . S
S1722 N1723 1.613 . S
S1722 N1724 1.610 . S
N1723 S1722 1.613 . S
N1723 C1726 1.350 . S
N1724 S1722 1.610 . S
N1724 C1725 1.351 . S
C1725 C1719 1.428 . S
C1725 N1724 1.351 . S
C1725 C1726 1.434 . S
C1726 C1717 1.429 . S
C1726 N1723 1.350 . S
C1726 C1725 1.434 . S
C1727 C1728 1.369 . S
C1727 C1729 1.419 . S
C1727 H1731 0.930 . S
C1728 C1727 1.369 . S
C1728 C1737 1.429 . S
C1729 C1727 1.419 . S
C1729 C1730 1.363 . S
C1729 H1732 0.929 . S
C1730 C1729 1.363 . S
C1730 C1736 1.428 . S
H1731 C1727 0.930 . S
H1732 C1729 0.929 . S
S1733 N1734 1.613 . S
S1733 N1735 1.610 . S
N1734 S1733 1.613 . S
N1734 C1737 1.350 . S
N1735 S1733 1.610 . S
N1735 C1736 1.351 . S
C1736 C1730 1.428 . S
C1736 N1735 1.351 . S
C1736 C1737 1.434 . S
C1737 C1728 1.429 . S
C1737 N1734 1.350 . S
C1737 C1736 1.434 . S
C1738 C1739 1.369 . S
C1738 C1740 1.419 . S
C1738 H1742 0.930 . S
C1739 C1738 1.369 . S
C1739 C1748 1.429 . S
C1740 C1738 1.419 . S
C1740 C1741 1.363 . S
C1740 H1743 0.929 . S
C1741 C1740 1.363 . S
C1741 C1747 1.428 . S
H1742 C1738 0.930 . S
H1743 C1740 0.929 . S
S1744 N1745 1.613 . S
S1744 N1746 1.610 . S
N1745 S1744 1.613 . S
N1745 C1748 1.350 . S
N1746 S1744 1.610 . S
N1746 C1747 1.351 . S
C1747 C1741 1.428 . S
C1747 N1746 1.351 . S
C1747 C1748 1.434 . S
C1748 C1739 1.429 . S
C1748 N1745 1.350 . S
C1748 C1747 1.434 . S
C1749 C1750 1.369 . S
C1749 C1751 1.419 . S
C1749 H1753 0.930 . S
C1750 C1749 1.369 . S
C1750 C1759 1.429 . S
C1751 C1749 1.419 . S
C1751 C1752 1.363 . S
C1751 H1754 0.929 . S
C1752 C1751 1.363 . S
C1752 C1758 1.428 . S
H1753 C1749 0.930 . S
H1754 C1751 0.929 . S
S1755 N1756 1.613 . S
S1755 N1757 1.610 . S
N1756 S1755 1.613 . S
N1756 C1759 1.350 . S
N1757 S1755 1.610 . S
N1757 C1758 1.351 . S
C1758 C1752 1.428 . S
C1758 N1757 1.351 . S
C1758 C1759 1.434 . S
C1759 C1750 1.429 . S
C1759 N1756 1.350 . S
C1759 C1758 1.434 . S
C1760 C1761 1.369 . S
C1760 C1762 1.419 . S
C1760 H1764 0.930 . S
C1761 C1760 1.369 . S
C1761 C1770 1.429 . S
C1762 C1760 1.419 . S
C1762 C1763 1.363 . S
C1762 H1765 0.929 . S
C1763 C1762 1.363 . S
C1763 C1769 1.428 . S
H1764 C1760 0.930 . S
H1765 C1762 0.929 . S
S1766 N1767 1.613 . S
S1766 N1768 1.610 . S
N1767 S1766 1.613 . S
N1767 C1770 1.350 . S
N1768 S1766 1.610 . S
N1768 C1769 1.351 . S
C1769 C1763 1.428 . S
C1769 N1768 1.351 . S
C1769 C1770 1.434 . S
C1770 C1761 1.429 . S
C1770 N1767 1.350 . S
C1770 C1769 1.434 . S
C1771 C1772 1.369 . S
C1771 C1773 1.419 . S
C1771 H1775 0.930 . S
C1772 C1771 1.369 . S
C1772 C1781 1.429 . S
C1773 C1771 1.419 . S
C1773 C1774 1.363 . S
C1773 H1776 0.929 . S
C1774 C1773 1.363 . S
C1774 C1780 1.428 . S
H1775 C1771 0.930 . S
H1776 C1773 0.929 . S
S1777 N1778 1.613 . S
S1777 N1779 1.610 . S
N1778 S1777 1.613 . S
N1778 C1781 1.350 . S
N1779 S1777 1.610 . S
N1779 C1780 1.351 . S
C1780 C1774 1.428 . S
C1780 N1779 1.351 . S
C1780 C1781 1.434 . S
C1781 C1772 1.429 . S
C1781 N1778 1.350 . S
C1781 C1780 1.434 . S
C1782 C1783 1.369 . S
C1782 C1784 1.419 . S
C1782 H1786 0.930 . S
C1783 C1782 1.369 . S
C1783 C1792 1.429 . S
C1784 C1782 1.419 . S
C1784 C1785 1.363 . S
C1784 H1787 0.929 . S
C1785 C1784 1.363 . S
C1785 C1791 1.428 . S
H1786 C1782 0.930 . S
H1787 C1784 0.929 . S
S1788 N1789 1.613 . S
S1788 N1790 1.610 . S
N1789 S1788 1.613 . S
N1789 C1792 1.350 . S
N1790 S1788 1.610 . S
N1790 C1791 1.351 . S
C1791 C1785 1.428 . S
C1791 N1790 1.351 . S
C1791 C1792 1.434 . S
C1792 C1783 1.429 . S
C1792 N1789 1.350 . S
C1792 C1791 1.434 . S
C1793 C1794 1.369 . S
C1793 C1795 1.419 . S
C1793 H1797 0.930 . S
C1794 C1793 1.369 . S
C1794 C1803 1.429 . S
C1795 C1793 1.419 . S
C1795 C1796 1.363 . S
C1795 H1798 0.929 . S
C1796 C1795 1.363 . S
C1796 C1802 1.428 . S
H1797 C1793 0.930 . S
H1798 C1795 0.929 . S
S1799 N1800 1.613 . S
S1799 N1801 1.610 . S
N1800 S1799 1.613 . S
N1800 C1803 1.350 . S
N1801 S1799 1.610 . S
N1801 C1802 1.351 . S
C1802 C1796 1.428 . S
C1802 N1801 1.351 . S
C1802 C1803 1.434 . S
C1803 C1794 1.429 . S
C1803 N1800 1.350 . S
C1803 C1802 1.434 . S
C1804 C1805 1.369 . S
C1804 C1806 1.419 . S
C1804 H1808 0.930 . S
C1805 C1804 1.369 . S
C1805 C1814 1.429 . S
C1806 C1804 1.419 . S
C1806 C1807 1.363 . S
C1806 H1809 0.929 . S
C1807 C1806 1.363 . S
C1807 C1813 1.428 . S
H1808 C1804 0.930 . S
H1809 C1806 0.929 . S
S1810 N1811 1.613 . S
S1810 N1812 1.610 . S
N1811 S1810 1.613 . S
N1811 C1814 1.350 . S
N1812 S1810 1.610 . S
N1812 C1813 1.351 . S
C1813 C1807 1.428 . S
C1813 N1812 1.351 . S
C1813 C1814 1.434 . S
C1814 C1805 1.429 . S
C1814 N1811 1.350 . S
C1814 C1813 1.434 . S
C1815 C1816 1.369 . S
C1815 C1817 1.419 . S
C1815 H1819 0.930 . S
C1816 C1815 1.369 . S
C1816 C1825 1.429 . S
C1817 C1815 1.419 . S
C1817 C1818 1.363 . S
C1817 H1820 0.929 . S
C1818 C1817 1.363 . S
C1818 C1824 1.428 . S
H1819 C1815 0.930 . S
H1820 C1817 0.929 . S
S1821 N1822 1.613 . S
S1821 N1823 1.610 . S
N1822 S1821 1.613 . S
N1822 C1825 1.350 . S
N1823 S1821 1.610 . S
N1823 C1824 1.351 . S
C1824 C1818 1.428 . S
C1824 N1823 1.351 . S
C1824 C1825 1.434 . S
C1825 C1816 1.429 . S
C1825 N1822 1.350 . S
C1825 C1824 1.434 . S
C1826 C1827 1.369 . S
C1826 C1828 1.419 . S
C1826 H1830 0.930 . S
C1827 C1826 1.369 . S
C1827 C1836 1.429 . S
C1828 C1826 1.419 . S
C1828 C1829 1.363 . S
C1828 H1831 0.929 . S
C1829 C1828 1.363 . S
C1829 C1835 1.428 . S
H1830 C1826 0.930 . S
H1831 C1828 0.929 . S
S1832 N1833 1.613 . S
S1832 N1834 1.610 . S
N1833 S1832 1.613 . S
N1833 C1836 1.350 . S
N1834 S1832 1.610 . S
N1834 C1835 1.351 . S
C1835 C1829 1.428 . S
C1835 N1834 1.351 . S
C1835 C1836 1.434 . S
C1836 C1827 1.429 . S
C1836 N1833 1.350 . S
C1836 C1835 1.434 . S
C1837 C1838 1.369 . S
C1837 C1839 1.419 . S
C1837 H1841 0.930 . S
C1838 C1837 1.369 . S
C1838 C1847 1.429 . S
C1839 C1837 1.419 . S
C1839 C1840 1.363 . S
C1839 H1842 0.929 . S
C1840 C1839 1.363 . S
C1840 C1846 1.428 . S
H1841 C1837 0.930 . S
H1842 C1839 0.929 . S
S1843 N1844 1.613 . S
S1843 N1845 1.610 . S
N1844 S1843 1.613 . S
N1844 C1847 1.350 . S
N1845 S1843 1.610 . S
N1845 C1846 1.351 . S
C1846 C1840 1.428 . S
C1846 N1845 1.351 . S
C1846 C1847 1.434 . S
C1847 C1838 1.429 . S
C1847 N1844 1.350 . S
C1847 C1846 1.434 . S
C1848 C1849 1.369 . S
C1848 C1850 1.419 . S
C1848 H1852 0.930 . S
C1849 C1848 1.369 . S
C1849 C1858 1.429 . S
C1850 C1848 1.419 . S
C1850 C1851 1.363 . S
C1850 H1853 0.929 . S
C1851 C1850 1.363 . S
C1851 C1857 1.428 . S
H1852 C1848 0.930 . S
H1853 C1850 0.929 . S
S1854 N1855 1.613 . S
S1854 N1856 1.610 . S
N1855 S1854 1.613 . S
N1855 C1858 1.350 . S
N1856 S1854 1.610 . S
N1856 C1857 1.351 . S
C1857 C1851 1.428 . S
C1857 N1856 1.351 . S
C1857 C1858 1.434 . S
C1858 C1849 1.429 . S
C1858 N1855 1.350 . S
C1858 C1857 1.434 . S
C1859 C1860 1.369 . S
C1859 C1861 1.419 . S
C1859 H1863 0.930 . S
C1860 C1859 1.369 . S
C1860 C1869 1.429 . S
C1861 C1859 1.419 . S
C1861 C1862 1.363 . S
C1861 H1864 0.929 . S
C1862 C1861 1.363 . S
C1862 C1868 1.428 . S
H1863 C1859 0.930 . S
H1864 C1861 0.929 . S
S1865 N1866 1.613 . S
S1865 N1867 1.610 . S
N1866 S1865 1.613 . S
N1866 C1869 1.350 . S
N1867 S1865 1.610 . S
N1867 C1868 1.351 . S
C1868 C1862 1.428 . S
C1868 N1867 1.351 . S
C1868 C1869 1.434 . S
C1869 C1860 1.429 . S
C1869 N1866 1.350 . S
C1869 C1868 1.434 . S
C1870 C1871 1.369 . S
C1870 C1872 1.419 . S
C1870 H1874 0.930 . S
C1871 C1870 1.369 . S
C1871 C1880 1.429 . S
C1872 C1870 1.419 . S
C1872 C1873 1.363 . S
C1872 H1875 0.929 . S
C1873 C1872 1.363 . S
C1873 C1879 1.428 . S
H1874 C1870 0.930 . S
H1875 C1872 0.929 . S
S1876 N1877 1.613 . S
S1876 N1878 1.610 . S
N1877 S1876 1.613 . S
N1877 C1880 1.350 . S
N1878 S1876 1.610 . S
N1878 C1879 1.351 . S
C1879 C1873 1.428 . S
C1879 N1878 1.351 . S
C1879 C1880 1.434 . S
C1880 C1871 1.429 . S
C1880 N1877 1.350 . S
C1880 C1879 1.434 . S
C1881 C1882 1.369 . S
C1881 C1883 1.419 . S
C1881 H1885 0.930 . S
C1882 C1881 1.369 . S
C1882 C1891 1.429 . S
C1883 C1881 1.419 . S
C1883 C1884 1.363 . S
C1883 H1886 0.929 . S
C1884 C1883 1.363 . S
C1884 C1890 1.428 . S
H1885 C1881 0.930 . S
H1886 C1883 0.929 . S
S1887 N1888 1.613 . S
S1887 N1889 1.610 . S
N1888 S1887 1.613 . S
N1888 C1891 1.350 . S
N1889 S1887 1.610 . S
N1889 C1890 1.351 . S
C1890 C1884 1.428 . S
C1890 N1889 1.351 . S
C1890 C1891 1.434 . S
C1891 C1882 1.429 . S
C1891 N1888 1.350 . S
C1891 C1890 1.434 . S
C1892 C1893 1.369 . S
C1892 C1894 1.419 . S
C1892 H1896 0.930 . S
C1893 C1892 1.369 . S
C1893 C1902 1.429 . S
C1894 C1892 1.419 . S
C1894 C1895 1.363 . S
C1894 H1897 0.929 . S
C1895 C1894 1.363 . S
C1895 C1901 1.428 . S
H1896 C1892 0.930 . S
H1897 C1894 0.929 . S
S1898 N1899 1.613 . S
S1898 N1900 1.610 . S
N1899 S1898 1.613 . S
N1899 C1902 1.350 . S
N1900 S1898 1.610 . S
N1900 C1901 1.351 . S
C1901 C1895 1.428 . S
C1901 N1900 1.351 . S
C1901 C1902 1.434 . S
C1902 C1893 1.429 . S
C1902 N1899 1.350 . S
C1902 C1901 1.434 . S
C1903 C1904 1.369 . S
C1903 C1905 1.419 . S
C1903 H1907 0.930 . S
C1904 C1903 1.369 . S
C1904 C1913 1.429 . S
C1905 C1903 1.419 . S
C1905 C1906 1.363 . S
C1905 H1908 0.929 . S
C1906 C1905 1.363 . S
C1906 C1912 1.428 . S
H1907 C1903 0.930 . S
H1908 C1905 0.929 . S
S1909 N1910 1.613 . S
S1909 N1911 1.610 . S
N1910 S1909 1.613 . S
N1910 C1913 1.350 . S
N1911 S1909 1.610 . S
N1911 C1912 1.351 . S
C1912 C1906 1.428 . S
C1912 N1911 1.351 . S
C1912 C1913 1.434 . S
C1913 C1904 1.429 . S
C1913 N1910 1.350 . S
C1913 C1912 1.434 . S
C1914 C1915 1.369 . S
C1914 C1916 1.419 . S
C1914 H1918 0.930 . S
C1915 C1914 1.369 . S
C1915 C1924 1.429 . S
C1916 C1914 1.419 . S
C1916 C1917 1.363 . S
C1916 H1919 0.929 . S
C1917 C1916 1.363 . S
C1917 C1923 1.428 . S
H1918 C1914 0.930 . S
H1919 C1916 0.929 . S
S1920 N1921 1.613 . S
S1920 N1922 1.610 . S
N1921 S1920 1.613 . S
N1921 C1924 1.350 . S
N1922 S1920 1.610 . S
N1922 C1923 1.351 . S
C1923 C1917 1.428 . S
C1923 N1922 1.351 . S
C1923 C1924 1.434 . S
C1924 C1915 1.429 . S
C1924 N1921 1.350 . S
C1924 C1923 1.434 . S
C1925 C1926 1.369 . S
C1925 C1927 1.419 . S
C1925 H1929 0.930 . S
C1926 C1925 1.369 . S
C1926 C1935 1.429 . S
C1927 C1925 1.419 . S
C1927 C1928 1.363 . S
C1927 H1930 0.929 . S
C1928 C1927 1.363 . S
C1928 C1934 1.428 . S
H1929 C1925 0.930 . S
H1930 C1927 0.929 . S
S1931 N1932 1.613 . S
S1931 N1933 1.610 . S
N1932 S1931 1.613 . S
N1932 C1935 1.350 . S
N1933 S1931 1.610 . S
N1933 C1934 1.351 . S
C1934 C1928 1.428 . S
C1934 N1933 1.351 . S
C1934 C1935 1.434 . S
C1935 C1926 1.429 . S
C1935 N1932 1.350 . S
C1935 C1934 1.434 . S
C1936 C1937 1.369 . S
C1936 C1938 1.419 . S
C1936 H1940 0.930 . S
C1937 C1936 1.369 . S
C1937 C1946 1.429 . S
C1938 C1936 1.419 . S
C1938 C1939 1.363 . S
C1938 H1941 0.929 . S
C1939 C1938 1.363 . S
C1939 C1945 1.428 . S
H1940 C1936 0.930 . S
H1941 C1938 0.929 . S
S1942 N1943 1.613 . S
S1942 N1944 1.610 . S
N1943 S1942 1.613 . S
N1943 C1946 1.350 . S
N1944 S1942 1.610 . S
N1944 C1945 1.351 . S
C1945 C1939 1.428 . S
C1945 N1944 1.351 . S
C1945 C1946 1.434 . S
C1946 C1937 1.429 . S
C1946 N1943 1.350 . S
C1946 C1945 1.434 . S
C1947 C1948 1.369 . S
C1947 C1949 1.419 . S
C1947 H1951 0.930 . S
C1948 C1947 1.369 . S
C1948 C1957 1.429 . S
C1949 C1947 1.419 . S
C1949 C1950 1.363 . S
C1949 H1952 0.929 . S
C1950 C1949 1.363 . S
C1950 C1956 1.428 . S
H1951 C1947 0.930 . S
H1952 C1949 0.929 . S
S1953 N1954 1.613 . S
S1953 N1955 1.610 . S
N1954 S1953 1.613 . S
N1954 C1957 1.350 . S
N1955 S1953 1.610 . S
N1955 C1956 1.351 . S
C1956 C1950 1.428 . S
C1956 N1955 1.351 . S
C1956 C1957 1.434 . S
C1957 C1948 1.429 . S
C1957 N1954 1.350 . S
C1957 C1956 1.434 . S
C1958 C1959 1.369 . S
C1958 C1960 1.419 . S
C1958 H1962 0.930 . S
C1959 C1958 1.369 . S
C1959 C1968 1.429 . S
C1960 C1958 1.419 . S
C1960 C1961 1.363 . S
C1960 H1963 0.929 . S
C1961 C1960 1.363 . S
C1961 C1967 1.428 . S
H1962 C1958 0.930 . S
H1963 C1960 0.929 . S
S1964 N1965 1.613 . S
S1964 N1966 1.610 . S
N1965 S1964 1.613 . S
N1965 C1968 1.350 . S
N1966 S1964 1.610 . S
N1966 C1967 1.351 . S
C1967 C1961 1.428 . S
C1967 N1966 1.351 . S
C1967 C1968 1.434 . S
C1968 C1959 1.429 . S
C1968 N1965 1.350 . S
C1968 C1967 1.434 . S
C1969 C1970 1.369 . S
C1969 C1971 1.419 . S
C1969 H1973 0.930 . S
C1970 C1969 1.369 . S
C1970 C1979 1.429 . S
C1971 C1969 1.419 . S
C1971 C1972 1.363 . S
C1971 H1974 0.929 . S
C1972 C1971 1.363 . S
C1972 C1978 1.428 . S
H1973 C1969 0.930 . S
H1974 C1971 0.929 . S
S1975 N1976 1.613 . S
S1975 N1977 1.610 . S
N1976 S1975 1.613 . S
N1976 C1979 1.350 . S
N1977 S1975 1.610 . S
N1977 C1978 1.351 . S
C1978 C1972 1.428 . S
C1978 N1977 1.351 . S
C1978 C1979 1.434 . S
C1979 C1970 1.429 . S
C1979 N1976 1.350 . S
C1979 C1978 1.434 . S
C1980 C1981 1.369 . S
C1980 C1982 1.419 . S
C1980 H1984 0.930 . S
C1981 C1980 1.369 . S
C1981 C1990 1.429 . S
C1982 C1980 1.419 . S
C1982 C1983 1.363 . S
C1982 H1985 0.929 . S
C1983 C1982 1.363 . S
C1983 C1989 1.428 . S
H1984 C1980 0.930 . S
H1985 C1982 0.929 . S
S1986 N1987 1.613 . S
S1986 N1988 1.610 . S
N1987 S1986 1.613 . S
N1987 C1990 1.350 . S
N1988 S1986 1.610 . S
N1988 C1989 1.351 . S
C1989 C1983 1.428 . S
C1989 N1988 1.351 . S
C1989 C1990 1.434 . S
C1990 C1981 1.429 . S
C1990 N1987 1.350 . S
C1990 C1989 1.434 . S
C1991 C1992 1.369 . S
C1991 C1993 1.419 . S
C1991 H1995 0.930 . S
C1992 C1991 1.369 . S
C1992 C2001 1.429 . S
C1993 C1991 1.419 . S
C1993 C1994 1.363 . S
C1993 H1996 0.929 . S
C1994 C1993 1.363 . S
C1994 C2000 1.428 . S
H1995 C1991 0.930 . S
H1996 C1993 0.929 . S
S1997 N1998 1.613 . S
S1997 N1999 1.610 . S
N1998 S1997 1.613 . S
N1998 C2001 1.350 . S
N1999 S1997 1.610 . S
N1999 C2000 1.351 . S
C2000 C1994 1.428 . S
C2000 N1999 1.351 . S
C2000 C2001 1.434 . S
C2001 C1992 1.429 . S
C2001 N1998 1.350 . S
C2001 C2000 1.434 . S
C2002 C2003 1.369 . S
C2002 C2004 1.419 . S
C2002 H2006 0.930 . S
C2003 C2002 1.369 . S
C2003 C2012 1.429 . S
C2004 C2002 1.419 . S
C2004 C2005 1.363 . S
C2004 H2007 0.929 . S
C2005 C2004 1.363 . S
C2005 C2011 1.428 . S
H2006 C2002 0.930 . S
H2007 C2004 0.929 . S
S2008 N2009 1.613 . S
S2008 N2010 1.610 . S
N2009 S2008 1.613 . S
N2009 C2012 1.350 . S
N2010 S2008 1.610 . S
N2010 C2011 1.351 . S
C2011 C2005 1.428 . S
C2011 N2010 1.351 . S
C2011 C2012 1.434 . S
C2012 C2003 1.429 . S
C2012 N2009 1.350 . S
C2012 C2011 1.434 . S
C2013 C2014 1.369 . S
C2013 C2015 1.419 . S
C2013 H2017 0.930 . S
C2014 C2013 1.369 . S
C2014 C2023 1.429 . S
C2015 C2013 1.419 . S
C2015 C2016 1.363 . S
C2015 H2018 0.929 . S
C2016 C2015 1.363 . S
C2016 C2022 1.428 . S
H2017 C2013 0.930 . S
H2018 C2015 0.929 . S
S2019 N2020 1.613 . S
S2019 N2021 1.610 . S
N2020 S2019 1.613 . S
N2020 C2023 1.350 . S
N2021 S2019 1.610 . S
N2021 C2022 1.351 . S
C2022 C2016 1.428 . S
C2022 N2021 1.351 . S
C2022 C2023 1.434 . S
C2023 C2014 1.429 . S
C2023 N2020 1.350 . S
C2023 C2022 1.434 . S
C2024 C2025 1.369 . S
C2024 C2026 1.419 . S
C2024 H2028 0.930 . S
C2025 C2024 1.369 . S
C2025 C2034 1.429 . S
C2026 C2024 1.419 . S
C2026 C2027 1.363 . S
C2026 H2029 0.929 . S
C2027 C2026 1.363 . S
C2027 C2033 1.428 . S
H2028 C2024 0.930 . S
H2029 C2026 0.929 . S
S2030 N2031 1.613 . S
S2030 N2032 1.610 . S
N2031 S2030 1.613 . S
N2031 C2034 1.350 . S
N2032 S2030 1.610 . S
N2032 C2033 1.351 . S
C2033 C2027 1.428 . S
C2033 N2032 1.351 . S
C2033 C2034 1.434 . S
C2034 C2025 1.429 . S
C2034 N2031 1.350 . S
C2034 C2033 1.434 . S
C2035 C2036 1.369 . S
C2035 C2037 1.419 . S
C2035 H2039 0.930 . S
C2036 C2035 1.369 . S
C2036 C2045 1.429 . S
C2037 C2035 1.419 . S
C2037 C2038 1.363 . S
C2037 H2040 0.929 . S
C2038 C2037 1.363 . S
C2038 C2044 1.428 . S
H2039 C2035 0.930 . S
H2040 C2037 0.929 . S
S2041 N2042 1.613 . S
S2041 N2043 1.610 . S
N2042 S2041 1.613 . S
N2042 C2045 1.350 . S
N2043 S2041 1.610 . S
N2043 C2044 1.351 . S
C2044 C2038 1.428 . S
C2044 N2043 1.351 . S
C2044 C2045 1.434 . S
C2045 C2036 1.429 . S
C2045 N2042 1.350 . S
C2045 C2044 1.434 . S
C2046 C2047 1.369 . S
C2046 C2048 1.419 . S
C2046 H2050 0.930 . S
C2047 C2046 1.369 . S
C2047 C2056 1.429 . S
C2048 C2046 1.419 . S
C2048 C2049 1.363 . S
C2048 H2051 0.929 . S
C2049 C2048 1.363 . S
C2049 C2055 1.428 . S
H2050 C2046 0.930 . S
H2051 C2048 0.929 . S
S2052 N2053 1.613 . S
S2052 N2054 1.610 . S
N2053 S2052 1.613 . S
N2053 C2056 1.350 . S
N2054 S2052 1.610 . S
N2054 C2055 1.351 . S
C2055 C2049 1.428 . S
C2055 N2054 1.351 . S
C2055 C2056 1.434 . S
C2056 C2047 1.429 . S
C2056 N2053 1.350 . S
C2056 C2055 1.434 . S
C2057 C2058 1.369 . S
C2057 C2059 1.419 . S
C2057 H2061 0.930 . S
C2058 C2057 1.369 . S
C2058 C2067 1.429 . S
C2059 C2057 1.419 . S
C2059 C2060 1.363 . S
C2059 H2062 0.929 . S
C2060 C2059 1.363 . S
C2060 C2066 1.428 . S
H2061 C2057 0.930 . S
H2062 C2059 0.929 . S
S2063 N2064 1.613 . S
S2063 N2065 1.610 . S
N2064 S2063 1.613 . S
N2064 C2067 1.350 . S
N2065 S2063 1.610 . S
N2065 C2066 1.351 . S
C2066 C2060 1.428 . S
C2066 N2065 1.351 . S
C2066 C2067 1.434 . S
C2067 C2058 1.429 . S
C2067 N2064 1.350 . S
C2067 C2066 1.434 . S
C2068 C2069 1.369 . S
C2068 C2070 1.419 . S
C2068 H2072 0.930 . S
C2069 C2068 1.369 . S
C2069 C2078 1.429 . S
C2070 C2068 1.419 . S
C2070 C2071 1.363 . S
C2070 H2073 0.929 . S
C2071 C2070 1.363 . S
C2071 C2077 1.428 . S
H2072 C2068 0.930 . S
H2073 C2070 0.929 . S
S2074 N2075 1.613 . S
S2074 N2076 1.610 . S
N2075 S2074 1.613 . S
N2075 C2078 1.350 . S
N2076 S2074 1.610 . S
N2076 C2077 1.351 . S
C2077 C2071 1.428 . S
C2077 N2076 1.351 . S
C2077 C2078 1.434 . S
C2078 C2069 1.429 . S
C2078 N2075 1.350 . S
C2078 C2077 1.434 . S
C2079 C2080 1.369 . S
C2079 C2081 1.419 . S
C2079 H2083 0.930 . S
C2080 C2079 1.369 . S
C2080 C2089 1.429 . S
C2081 C2079 1.419 . S
C2081 C2082 1.363 . S
C2081 H2084 0.929 . S
C2082 C2081 1.363 . S
C2082 C2088 1.428 . S
H2083 C2079 0.930 . S
H2084 C2081 0.929 . S
S2085 N2086 1.613 . S
S2085 N2087 1.610 . S
N2086 S2085 1.613 . S
N2086 C2089 1.350 . S
N2087 S2085 1.610 . S
N2087 C2088 1.351 . S
C2088 C2082 1.428 . S
C2088 N2087 1.351 . S
C2088 C2089 1.434 . S
C2089 C2080 1.429 . S
C2089 N2086 1.350 . S
C2089 C2088 1.434 . S
C2090 C2091 1.369 . S
C2090 C2092 1.419 . S
C2090 H2094 0.930 . S
C2091 C2090 1.369 . S
C2091 C2100 1.429 . S
C2092 C2090 1.419 . S
C2092 C2093 1.363 . S
C2092 H2095 0.929 . S
C2093 C2092 1.363 . S
C2093 C2099 1.428 . S
H2094 C2090 0.930 . S
H2095 C2092 0.929 . S
S2096 N2097 1.613 . S
S2096 N2098 1.610 . S
N2097 S2096 1.613 . S
N2097 C2100 1.350 . S
N2098 S2096 1.610 . S
N2098 C2099 1.351 . S
C2099 C2093 1.428 . S
C2099 N2098 1.351 . S
C2099 C2100 1.434 . S
C2100 C2091 1.429 . S
C2100 N2097 1.350 . S
C2100 C2099 1.434 . S
C2101 C2102 1.369 . S
C2101 C2103 1.419 . S
C2101 H2105 0.930 . S
C2102 C2101 1.369 . S
C2102 C2111 1.429 . S
C2103 C2101 1.419 . S
C2103 C2104 1.363 . S
C2103 H2106 0.929 . S
C2104 C2103 1.363 . S
C2104 C2110 1.428 . S
H2105 C2101 0.930 . S
H2106 C2103 0.929 . S
S2107 N2108 1.613 . S
S2107 N2109 1.610 . S
N2108 S2107 1.613 . S
N2108 C2111 1.350 . S
N2109 S2107 1.610 . S
N2109 C2110 1.351 . S
C2110 C2104 1.428 . S
C2110 N2109 1.351 . S
C2110 C2111 1.434 . S
C2111 C2102 1.429 . S
C2111 N2108 1.350 . S
C2111 C2110 1.434 . S
C2112 C2113 1.369 . S
C2112 C2114 1.419 1_455 S
C2112 H2116 0.930 . S
C2113 C2112 1.369 . S
C2113 C2122 1.429 . S
C2114 C2112 1.419 1_655 S
C2114 C2115 1.363 . S
C2114 H2117 0.929 . S
C2115 C2114 1.363 . S
C2115 C2121 1.428 . S
H2116 C2112 0.930 . S
H2117 C2114 0.929 . S
S2118 N2119 1.596 1_655 S
S2118 N2120 1.610 . S
N2119 S2118 1.596 1_455 S
N2119 C2122 1.351 . S
N2120 S2118 1.610 . S
N2120 C2121 1.351 . S
C2121 C2115 1.428 . S
C2121 N2120 1.351 . S
C2121 C2122 1.434 1_655 S
C2122 C2113 1.429 . S
C2122 N2119 1.351 . S
C2122 C2121 1.434 1_455 S
C2123 C2124 1.369 . S
C2123 C2125 1.419 . S
C2123 H2127 0.930 . S
C2124 C2123 1.369 . S
C2124 C2133 1.429 1_655 S
C2125 C2123 1.419 . S
C2125 C2126 1.363 1_655 S
C2125 H2128 0.929 . S
C2126 C2125 1.363 1_455 S
C2126 C2132 1.428 . S
H2127 C2123 0.930 . S
H2128 C2125 0.929 . S
S2129 N2130 1.613 . S
S2129 N2131 1.610 . S
N2130 S2129 1.613 . S
N2130 C2133 1.350 . S
N2131 S2129 1.610 . S
N2131 C2132 1.351 . S
C2132 C2126 1.428 . S
C2132 N2131 1.351 . S
C2132 C2133 1.434 . S
C2133 C2124 1.429 1_455 S
C2133 N2130 1.350 . S
C2133 C2132 1.434 . S
C2134 C2135 1.369 . S
C2134 C2136 1.419 . S
C2134 H2138 0.930 . S
C2135 C2134 1.369 . S
C2135 C2144 1.429 1_545 S
C2136 C2134 1.419 . S
C2136 C2137 1.363 1_545 S
C2136 H2139 0.929 . S
C2137 C2136 1.363 1_565 S
C2137 C2143 1.428 . S
H2138 C2134 0.930 . S
H2139 C2136 0.929 . S
S2140 N2141 1.613 . S
S2140 N2142 1.610 . S
N2141 S2140 1.613 . S
N2141 C2144 1.350 . S
N2142 S2140 1.610 . S
N2142 C2143 1.351 . S
C2143 C2137 1.428 . S
C2143 N2142 1.351 . S
C2143 C2144 1.434 . S
C2144 C2135 1.429 1_565 S
C2144 N2141 1.350 . S
C2144 C2143 1.434 . S
C2145 C2146 1.369 . S
C2145 C2147 1.419 . S
C2145 H2149 0.930 . S
C2146 C2145 1.369 . S
C2146 C2155 1.429 . S
C2147 C2145 1.419 . S
C2147 C2148 1.363 . S
C2147 H2150 0.929 . S
C2148 C2147 1.363 . S
C2148 C2154 1.428 . S
H2149 C2145 0.930 . S
H2150 C2147 0.929 . S
S2151 N2152 1.613 . S
S2151 N2153 1.610 . S
N2152 S2151 1.613 . S
N2152 C2155 1.350 . S
N2153 S2151 1.610 . S
N2153 C2154 1.351 . S
C2154 C2148 1.428 . S
C2154 N2153 1.351 . S
C2154 C2155 1.434 . S
C2155 C2146 1.429 . S
C2155 N2152 1.350 . S
C2155 C2154 1.434 . S
C2156 C2157 1.369 . S
C2156 C2158 1.419 . S
C2156 H2160 0.930 . S
C2157 C2156 1.369 . S
C2157 C2166 1.429 1_556 S
C2158 C2156 1.419 . S
C2158 C2159 1.363 1_556 S
C2158 H2161 0.929 . S
C2159 C2158 1.363 1_554 S
C2159 C2165 1.428 . S
H2160 C2156 0.930 . S
H2161 C2158 0.929 . S
S2162 N2163 1.613 . S
S2162 N2164 1.610 . S
N2163 S2162 1.613 . S
N2163 C2166 1.350 . S
N2164 S2162 1.610 . S
N2164 C2165 1.351 . S
C2165 C2159 1.428 . S
C2165 N2164 1.351 . S
C2165 C2166 1.434 . S
C2166 C2157 1.429 1_554 S
C2166 N2163 1.350 . S
C2166 C2165 1.434 . S
C2167 C2168 1.369 . S
C2167 C2169 1.419 . S
C2167 H2171 0.930 . S
C2168 C2167 1.369 . S
C2168 C2177 1.429 . S
C2169 C2167 1.419 . S
C2169 C2170 1.363 . S
C2169 H2172 0.929 . S
C2170 C2169 1.363 . S
C2170 C2176 1.428 . S
H2171 C2167 0.930 . S
H2172 C2169 0.929 . S
S2173 N2174 1.613 . S
S2173 N2175 1.610 . S
N2174 S2173 1.613 . S
N2174 C2177 1.350 . S
N2175 S2173 1.610 . S
N2175 C2176 1.351 . S
C2176 C2170 1.428 . S
C2176 N2175 1.351 . S
C2176 C2177 1.434 . S
C2177 C2168 1.429 . S
C2177 N2174 1.350 . S
C2177 C2176 1.434 . S
C2178 C2179 1.369 . S
C2178 C2180 1.419 . S
C2178 H2182 0.930 . S
C2179 C2178 1.369 . S
C2179 C2188 1.429 . S
C2180 C2178 1.419 . S
C2180 C2181 1.363 . S
C2180 H2183 0.929 . S
C2181 C2180 1.363 . S
C2181 C2187 1.428 . S
H2182 C2178 0.930 . S
H2183 C2180 0.929 . S
S2184 N2185 1.613 . S
S2184 N2186 1.610 . S
N2185 S2184 1.613 . S
N2185 C2188 1.350 . S
N2186 S2184 1.610 . S
N2186 C2187 1.351 . S
C2187 C2181 1.428 . S
C2187 N2186 1.351 . S
C2187 C2188 1.434 . S
C2188 C2179 1.429 . S
C2188 N2185 1.350 . S
C2188 C2187 1.434 . S
C2189 C2190 1.369 . S
C2189 C2191 1.419 . S
C2189 H2193 0.930 . S
C2190 C2189 1.369 . S
C2190 C2199 1.429 1_655 S
C2191 C2189 1.419 . S
C2191 C2192 1.363 1_655 S
C2191 H2194 0.929 . S
C2192 C2191 1.363 1_455 S
C2192 C2198 1.428 . S
H2193 C2189 0.930 . S
H2194 C2191 0.929 . S
S2195 N2196 1.613 . S
S2195 N2197 1.610 . S
N2196 S2195 1.613 . S
N2196 C2199 1.350 . S
N2197 S2195 1.610 . S
N2197 C2198 1.351 . S
C2198 C2192 1.428 . S
C2198 N2197 1.351 . S
C2198 C2199 1.434 . S
C2199 C2190 1.429 1_455 S
C2199 N2196 1.350 . S
C2199 C2198 1.434 . S
C2200 C2201 1.369 . S
C2200 C2202 1.419 1_655 S
C2200 H2204 0.930 . S
C2201 C2200 1.369 . S
C2201 C2210 1.429 . S
C2202 C2200 1.419 1_455 S
C2202 C2203 1.363 . S
C2202 H2205 0.929 . S
C2203 C2202 1.363 . S
C2203 C2209 1.428 . S
H2204 C2200 0.930 . S
H2205 C2202 0.929 . S
S2206 N2207 1.613 . S
S2206 N2208 1.610 1_655 S
N2207 S2206 1.613 . S
N2207 C2210 1.350 . S
N2208 S2206 1.610 1_455 S
N2208 C2209 1.351 . S
C2209 C2203 1.428 . S
C2209 N2208 1.351 . S
C2209 C2210 1.434 1_455 S
C2210 C2201 1.429 . S
C2210 N2207 1.350 . S
C2210 C2209 1.434 1_655 S
C2211 C2212 1.369 . S
C2211 C2213 1.419 1_545 S
C2211 H2215 0.931 . S
C2212 C2211 1.369 . S
C2212 C2221 1.429 . S
C2213 C2211 1.419 1_565 S
C2213 C2214 1.363 . S
C2213 H2216 0.929 . S
C2214 C2213 1.363 . S
C2214 C2220 1.430 . S
H2215 C2211 0.931 . S
H2216 C2213 0.929 . S
S2217 N2218 1.613 . S
S2217 N2219 1.610 . S
N2218 S2217 1.613 . S
N2218 C2221 1.350 . S
N2219 S2217 1.610 . S
N2219 C2220 1.351 1_545 S
C2220 C2214 1.430 . S
C2220 N2219 1.351 1_565 S
C2220 C2221 1.432 1_565 S
C2221 C2212 1.429 . S
C2221 N2218 1.350 . S
C2221 C2220 1.432 1_545 S
C2222 C2223 1.369 . S
C2222 C2224 1.419 . S
C2222 H2226 0.930 . S
C2223 C2222 1.369 . S
C2223 C2232 1.429 . S
C2224 C2222 1.419 . S
C2224 C2225 1.363 . S
C2224 H2227 0.929 . S
C2225 C2224 1.363 . S
C2225 C2231 1.428 . S
H2226 C2222 0.930 . S
H2227 C2224 0.929 . S
S2228 N2229 1.613 . S
S2228 N2230 1.610 . S
N2229 S2228 1.613 . S
N2229 C2232 1.350 . S
N2230 S2228 1.610 . S
N2230 C2231 1.351 . S
C2231 C2225 1.428 . S
C2231 N2230 1.351 . S
C2231 C2232 1.434 . S
C2232 C2223 1.429 . S
C2232 N2229 1.350 . S
C2232 C2231 1.434 . S
C2233 C2234 1.369 . S
C2233 C2235 1.419 1_556 S
C2233 H2237 0.930 . S
C2234 C2233 1.369 . S
C2234 C2243 1.429 . S
C2235 C2233 1.419 1_554 S
C2235 C2236 1.363 . S
C2235 H2238 0.929 . S
C2236 C2235 1.363 . S
C2236 C2242 1.428 . S
H2237 C2233 0.930 . S
H2238 C2235 0.929 . S
S2239 N2240 1.613 1_554 S
S2239 N2241 1.610 . S
N2240 S2239 1.613 1_556 S
N2240 C2243 1.350 . S
N2241 S2239 1.610 . S
N2241 C2242 1.351 . S
C2242 C2236 1.428 . S
C2242 N2241 1.351 . S
C2242 C2243 1.434 1_554 S
C2243 C2234 1.429 . S
C2243 N2240 1.350 . S
C2243 C2242 1.434 1_556 S
C2244 C2245 1.369 . S
C2244 C2246 1.419 . S
C2244 H2248 0.930 . S
C2245 C2244 1.369 . S
C2245 C2254 1.429 . S
C2246 C2244 1.419 . S
C2246 C2247 1.363 . S
C2246 H2249 0.929 . S
C2247 C2246 1.363 . S
C2247 C2253 1.428 . S
H2248 C2244 0.930 . S
H2249 C2246 0.929 . S
S2250 N2251 1.613 . S
S2250 N2252 1.610 . S
N2251 S2250 1.613 . S
N2251 C2254 1.350 . S
N2252 S2250 1.610 . S
N2252 C2253 1.351 . S
C2253 C2247 1.428 . S
C2253 N2252 1.351 . S
C2253 C2254 1.434 . S
C2254 C2245 1.429 . S
C2254 N2251 1.350 . S
C2254 C2253 1.434 . S
C2255 C2256 1.369 . S
C2255 C2257 1.419 . S
C2255 H2259 0.930 . S
C2256 C2255 1.369 . S
C2256 C2265 1.429 . S
C2257 C2255 1.419 . S
C2257 C2258 1.363 . S
C2257 H2260 0.929 . S
C2258 C2257 1.363 . S
C2258 C2264 1.428 . S
H2259 C2255 0.930 . S
H2260 C2257 0.929 . S
S2261 N2262 1.613 . S
S2261 N2263 1.610 . S
N2262 S2261 1.613 . S
N2262 C2265 1.350 . S
N2263 S2261 1.610 . S
N2263 C2264 1.351 . S
C2264 C2258 1.428 . S
C2264 N2263 1.351 . S
C2264 C2265 1.434 . S
C2265 C2256 1.429 . S
C2265 N2262 1.350 . S
C2265 C2264 1.434 . S
C2266 C2267 1.369 . S
C2266 C2268 1.419 . S
C2266 H2270 0.930 . S
C2267 C2266 1.369 . S
C2267 C2276 1.429 . S
C2268 C2266 1.419 . S
C2268 C2269 1.363 . S
C2268 H2271 0.929 . S
C2269 C2268 1.363 . S
C2269 C2275 1.428 . S
H2270 C2266 0.930 . S
H2271 C2268 0.929 . S
S2272 N2273 1.613 . S
S2272 N2274 1.610 . S
N2273 S2272 1.613 . S
N2273 C2276 1.350 . S
N2274 S2272 1.610 . S
N2274 C2275 1.351 . S
C2275 C2269 1.428 . S
C2275 N2274 1.351 . S
C2275 C2276 1.434 . S
C2276 C2267 1.429 . S
C2276 N2273 1.350 . S
C2276 C2275 1.434 . S
C2277 C2278 1.369 . S
C2277 C2279 1.419 . S
C2277 H2281 0.930 . S
C2278 C2277 1.369 . S
C2278 C2287 1.429 . S
C2279 C2277 1.419 . S
C2279 C2280 1.363 . S
C2279 H2282 0.929 . S
C2280 C2279 1.363 . S
C2280 C2286 1.428 . S
H2281 C2277 0.930 . S
H2282 C2279 0.929 . S
S2283 N2284 1.613 . S
S2283 N2285 1.610 . S
N2284 S2283 1.613 . S
N2284 C2287 1.350 . S
N2285 S2283 1.610 . S
N2285 C2286 1.351 . S
C2286 C2280 1.428 . S
C2286 N2285 1.351 . S
C2286 C2287 1.434 . S
C2287 C2278 1.429 . S
C2287 N2284 1.350 . S
C2287 C2286 1.434 . S
C2288 C2289 1.369 . S
C2288 C2290 1.419 . S
C2288 H2292 0.930 . S
C2289 C2288 1.369 . S
C2289 C2298 1.429 . S
C2290 C2288 1.419 . S
C2290 C2291 1.363 . S
C2290 H2293 0.929 . S
C2291 C2290 1.363 . S
C2291 C2297 1.428 . S
H2292 C2288 0.930 . S
H2293 C2290 0.929 . S
S2294 N2295 1.613 . S
S2294 N2296 1.610 . S
N2295 S2294 1.613 . S
N2295 C2298 1.350 . S
N2296 S2294 1.610 . S
N2296 C2297 1.351 . S
C2297 C2291 1.428 . S
C2297 N2296 1.351 . S
C2297 C2298 1.434 . S
C2298 C2289 1.429 . S
C2298 N2295 1.350 . S
C2298 C2297 1.434 . S
C2299 C2300 1.333 1_565 S
C2299 C2301 1.451 . S
C2299 H2303 0.935 . S
C2300 C2299 1.333 1_545 S
C2300 C2309 1.429 . S
C2301 C2299 1.451 . S
C2301 C2302 1.363 . S
C2301 H2304 0.929 . S
C2302 C2301 1.363 . S
C2302 C2308 1.428 1_565 S
H2303 C2299 0.935 . S
H2304 C2301 0.929 . S
S2305 N2306 1.613 . S
S2305 N2307 1.610 . S
N2306 S2305 1.613 . S
N2306 C2309 1.350 . S
N2307 S2305 1.610 . S
N2307 C2308 1.351 . S
C2308 C2302 1.428 1_545 S
C2308 N2307 1.351 . S
C2308 C2309 1.434 . S
C2309 C2300 1.429 . S
C2309 N2306 1.350 . S
C2309 C2308 1.434 . S
C2310 C2311 1.369 . S
C2310 C2312 1.419 1_554 S
C2310 H2314 0.930 . S
C2311 C2310 1.369 . S
C2311 C2320 1.429 . S
C2312 C2310 1.419 1_556 S
C2312 C2313 1.363 . S
C2312 H2315 0.929 . S
C2313 C2312 1.363 . S
C2313 C2319 1.428 . S
H2314 C2310 0.930 . S
H2315 C2312 0.929 . S
S2316 N2317 1.613 1_556 S
S2316 N2318 1.610 . S
N2317 S2316 1.613 1_554 S
N2317 C2320 1.350 . S
N2318 S2316 1.610 . S
N2318 C2319 1.351 . S
C2319 C2313 1.428 . S
C2319 N2318 1.351 . S
C2319 C2320 1.434 1_556 S
C2320 C2311 1.429 . S
C2320 N2317 1.350 . S
C2320 C2319 1.434 1_554 S
C2321 C2322 1.369 . S
C2321 C2323 1.419 . S
C2321 H2325 0.930 . S
C2322 C2321 1.369 . S
C2322 C2331 1.429 . S
C2323 C2321 1.419 . S
C2323 C2324 1.363 . S
C2323 H2326 0.929 . S
C2324 C2323 1.363 . S
C2324 C2330 1.428 . S
H2325 C2321 0.930 . S
H2326 C2323 0.929 . S
S2327 N2328 1.613 . S
S2327 N2329 1.610 . S
N2328 S2327 1.613 . S
N2328 C2331 1.350 . S
N2329 S2327 1.610 . S
N2329 C2330 1.351 . S
C2330 C2324 1.428 . S
C2330 N2329 1.351 . S
C2330 C2331 1.434 . S
C2331 C2322 1.429 . S
C2331 N2328 1.350 . S
C2331 C2330 1.434 . S
C2332 C2333 1.369 . S
C2332 C2334 1.419 . S
C2332 H2336 0.930 . S
C2333 C2332 1.369 . S
C2333 C2342 1.429 . S
C2334 C2332 1.419 . S
C2334 C2335 1.363 . S
C2334 H2337 0.929 . S
C2335 C2334 1.363 . S
C2335 C2341 1.428 . S
H2336 C2332 0.930 . S
H2337 C2334 0.929 . S
S2338 N2339 1.613 . S
S2338 N2340 1.610 . S
N2339 S2338 1.613 . S
N2339 C2342 1.350 . S
N2340 S2338 1.610 . S
N2340 C2341 1.351 . S
C2341 C2335 1.428 . S
C2341 N2340 1.351 . S
C2341 C2342 1.434 . S
C2342 C2333 1.429 . S
C2342 N2339 1.350 . S
C2342 C2341 1.434 . S
C2343 C2344 1.369 . S
C2343 C2345 1.419 . S
C2343 H2347 0.930 . S
C2344 C2343 1.369 . S
C2344 C2353 1.429 . S
C2345 C2343 1.419 . S
C2345 C2346 1.363 . S
C2345 H2348 0.929 . S
C2346 C2345 1.363 . S
C2346 C2352 1.428 . S
H2347 C2343 0.930 . S
H2348 C2345 0.929 . S
S2349 N2350 1.613 . S
S2349 N2351 1.610 . S
N2350 S2349 1.613 . S
N2350 C2353 1.350 . S
N2351 S2349 1.610 . S
N2351 C2352 1.351 . S
C2352 C2346 1.428 . S
C2352 N2351 1.351 . S
C2352 C2353 1.434 . S
C2353 C2344 1.429 . S
C2353 N2350 1.350 . S
C2353 C2352 1.434 . S
C2354 C2355 1.369 . S
C2354 C2356 1.419 . S
C2354 H2358 0.930 . S
C2355 C2354 1.369 . S
C2355 C2364 1.429 1_565 S
C2356 C2354 1.419 . S
C2356 C2357 1.363 1_565 S
C2356 H2359 0.929 . S
C2357 C2356 1.363 1_545 S
C2357 C2363 1.428 . S
H2358 C2354 0.930 . S
H2359 C2356 0.929 . S
S2360 N2361 1.613 . S
S2360 N2362 1.610 . S
N2361 S2360 1.613 . S
N2361 C2364 1.350 . S
N2362 S2360 1.610 . S
N2362 C2363 1.351 . S
C2363 C2357 1.428 . S
C2363 N2362 1.351 . S
C2363 C2364 1.434 . S
C2364 C2355 1.429 1_545 S
C2364 N2361 1.350 . S
C2364 C2363 1.434 . S
C2365 C2366 1.369 . S
C2365 C2367 1.386 1_556 S
C2365 H2369 0.930 . S
C2366 C2365 1.369 . S
C2366 C2375 1.440 . S
C2367 C2365 1.386 1_554 S
C2367 C2368 1.397 . S
C2367 H2370 0.929 . S
C2368 C2367 1.397 . S
C2368 C2374 1.428 . S
H2369 C2365 0.930 . S
H2370 C2367 0.929 . S
S2371 N2372 1.613 . S
S2371 N2373 1.610 . S
N2372 S2371 1.613 . S
N2372 C2375 1.349 1_554 S
N2373 S2371 1.610 . S
N2373 C2374 1.351 . S
C2374 C2368 1.428 . S
C2374 N2373 1.351 . S
C2374 C2375 1.422 1_554 S
C2375 C2366 1.440 . S
C2375 N2372 1.349 1_556 S
C2375 C2374 1.422 1_556 S
C2376 C2377 1.369 . S
C2376 C2378 1.419 . S
C2376 H2380 0.930 . S
C2377 C2376 1.369 . S
C2377 C2386 1.429 . S
C2378 C2376 1.419 . S
C2378 C2379 1.363 . S
C2378 H2381 0.929 . S
C2379 C2378 1.363 . S
C2379 C2385 1.428 . S
H2380 C2376 0.930 . S
H2381 C2378 0.929 . S
S2382 N2383 1.613 . S
S2382 N2384 1.610 . S
N2383 S2382 1.613 . S
N2383 C2386 1.350 . S
N2384 S2382 1.610 . S
N2384 C2385 1.351 . S
C2385 C2379 1.428 . S
C2385 N2384 1.351 . S
C2385 C2386 1.434 . S
C2386 C2377 1.429 . S
C2386 N2383 1.350 . S
C2386 C2385 1.434 . S
C2387 C2388 1.369 . S
C2387 C2389 1.419 . S
C2387 H2391 0.930 . S
C2388 C2387 1.369 . S
C2388 C2397 1.429 . S
C2389 C2387 1.419 . S
C2389 C2390 1.363 . S
C2389 H2392 0.929 . S
C2390 C2389 1.363 . S
C2390 C2396 1.428 . S
H2391 C2387 0.930 . S
H2392 C2389 0.929 . S
S2393 N2394 1.613 . S
S2393 N2395 1.610 . S
N2394 S2393 1.613 . S
N2394 C2397 1.350 . S
N2395 S2393 1.610 . S
N2395 C2396 1.351 . S
C2396 C2390 1.428 . S
C2396 N2395 1.351 . S
C2396 C2397 1.434 . S
C2397 C2388 1.429 . S
C2397 N2394 1.350 . S
C2397 C2396 1.434 . S
C2398 C2399 1.369 . S
C2398 C2400 1.419 1_556 S
C2398 H2402 0.930 . S
C2399 C2398 1.369 . S
C2399 C2408 1.429 . S
C2400 C2398 1.419 1_554 S
C2400 C2401 1.363 . S
C2400 H2403 0.929 . S
C2401 C2400 1.363 . S
C2401 C2407 1.428 . S
H2402 C2398 0.930 . S
H2403 C2400 0.929 . S
S2404 N2405 1.613 . S
S2404 N2406 1.610 1_556 S
N2405 S2404 1.613 . S
N2405 C2408 1.350 . S
N2406 S2404 1.610 1_554 S
N2406 C2407 1.351 . S
C2407 C2401 1.428 . S
C2407 N2406 1.351 . S
C2407 C2408 1.434 1_554 S
C2408 C2399 1.429 . S
C2408 N2405 1.350 . S
C2408 C2407 1.434 1_556 S
C2409 C2410 1.369 . S
C2409 C2411 1.419 1_556 S
C2409 H2413 0.930 . S
C2410 C2409 1.369 . S
C2410 C2419 1.429 . S
C2411 C2409 1.419 1_554 S
C2411 C2412 1.363 . S
C2411 H2414 0.929 . S
C2412 C2411 1.363 . S
C2412 C2418 1.428 . S
H2413 C2409 0.930 . S
H2414 C2411 0.929 . S
S2415 N2416 1.613 . S
S2415 N2417 1.610 1_556 S
N2416 S2415 1.613 . S
N2416 C2419 1.350 . S
N2417 S2415 1.610 1_554 S
N2417 C2418 1.351 . S
C2418 C2412 1.428 . S
C2418 N2417 1.351 . S
C2418 C2419 1.434 1_554 S
C2419 C2410 1.429 . S
C2419 N2416 1.350 . S
C2419 C2418 1.434 1_556 S
C2420 C2421 1.369 . S
C2420 C2422 1.419 . S
C2420 H2424 0.930 . S
C2421 C2420 1.369 . S
C2421 C2430 1.429 . S
C2422 C2420 1.419 . S
C2422 C2423 1.363 . S
C2422 H2425 0.929 . S
C2423 C2422 1.363 . S
C2423 C2429 1.428 . S
H2424 C2420 0.930 . S
H2425 C2422 0.929 . S
S2426 N2427 1.613 . S
S2426 N2428 1.610 . S
N2427 S2426 1.613 . S
N2427 C2430 1.350 . S
N2428 S2426 1.610 . S
N2428 C2429 1.351 . S
C2429 C2423 1.428 . S
C2429 N2428 1.351 . S
C2429 C2430 1.434 . S
C2430 C2421 1.429 . S
C2430 N2427 1.350 . S
C2430 C2429 1.434 . S
C2431 C2432 1.369 . S
C2431 C2433 1.419 . S
C2431 H2435 0.930 . S
C2432 C2431 1.369 . S
C2432 C2441 1.429 . S
C2433 C2431 1.419 . S
C2433 C2434 1.363 . S
C2433 H2436 0.929 . S
C2434 C2433 1.363 . S
C2434 C2440 1.428 . S
H2435 C2431 0.930 . S
H2436 C2433 0.929 . S
S2437 N2438 1.613 . S
S2437 N2439 1.610 . S
N2438 S2437 1.613 . S
N2438 C2441 1.350 . S
N2439 S2437 1.610 . S
N2439 C2440 1.351 . S
C2440 C2434 1.428 . S
C2440 N2439 1.351 . S
C2440 C2441 1.434 . S
C2441 C2432 1.429 . S
C2441 N2438 1.350 . S
C2441 C2440 1.434 . S
C2442 C2443 1.369 . S
C2442 C2444 1.419 . S
C2442 H2446 0.930 . S
C2443 C2442 1.369 . S
C2443 C2452 1.429 . S
C2444 C2442 1.419 . S
C2444 C2445 1.363 . S
C2444 H2447 0.929 . S
C2445 C2444 1.363 . S
C2445 C2451 1.428 . S
H2446 C2442 0.930 . S
H2447 C2444 0.929 . S
S2448 N2449 1.613 . S
S2448 N2450 1.610 . S
N2449 S2448 1.613 . S
N2449 C2452 1.350 . S
N2450 S2448 1.610 . S
N2450 C2451 1.351 . S
C2451 C2445 1.428 . S
C2451 N2450 1.351 . S
C2451 C2452 1.434 . S
C2452 C2443 1.429 . S
C2452 N2449 1.350 . S
C2452 C2451 1.434 . S
C2453 C2454 1.369 . S
C2453 C2455 1.419 . S
C2453 H2457 0.930 . S
C2454 C2453 1.369 . S
C2454 C2463 1.429 . S
C2455 C2453 1.419 . S
C2455 C2456 1.363 . S
C2455 H2458 0.929 . S
C2456 C2455 1.363 . S
C2456 C2462 1.428 . S
H2457 C2453 0.930 . S
H2458 C2455 0.929 . S
S2459 N2460 1.613 . S
S2459 N2461 1.610 . S
N2460 S2459 1.613 . S
N2460 C2463 1.350 . S
N2461 S2459 1.610 . S
N2461 C2462 1.351 . S
C2462 C2456 1.428 . S
C2462 N2461 1.351 . S
C2462 C2463 1.434 . S
C2463 C2454 1.429 . S
C2463 N2460 1.350 . S
C2463 C2462 1.434 . S
C2464 C2465 1.369 . S
C2464 C2466 1.419 . S
C2464 H2468 0.930 . S
C2465 C2464 1.369 . S
C2465 C2474 1.429 . S
C2466 C2464 1.419 . S
C2466 C2467 1.363 . S
C2466 H2469 0.929 . S
C2467 C2466 1.363 . S
C2467 C2473 1.428 . S
H2468 C2464 0.930 . S
H2469 C2466 0.929 . S
S2470 N2471 1.613 . S
S2470 N2472 1.610 . S
N2471 S2470 1.613 . S
N2471 C2474 1.350 . S
N2472 S2470 1.610 . S
N2472 C2473 1.351 . S
C2473 C2467 1.428 . S
C2473 N2472 1.351 . S
C2473 C2474 1.434 . S
C2474 C2465 1.429 . S
C2474 N2471 1.350 . S
C2474 C2473 1.434 . S
C2475 C2476 1.369 . S
C2475 C2477 1.419 . S
C2475 H2479 0.930 . S
C2476 C2475 1.369 . S
C2476 C2485 1.429 . S
C2477 C2475 1.419 . S
C2477 C2478 1.363 . S
C2477 H2480 0.929 . S
C2478 C2477 1.363 . S
C2478 C2484 1.428 . S
H2479 C2475 0.930 . S
H2480 C2477 0.929 . S
S2481 N2482 1.613 . S
S2481 N2483 1.610 . S
N2482 S2481 1.613 . S
N2482 C2485 1.350 . S
N2483 S2481 1.610 . S
N2483 C2484 1.351 . S
C2484 C2478 1.428 . S
C2484 N2483 1.351 . S
C2484 C2485 1.434 . S
C2485 C2476 1.429 . S
C2485 N2482 1.350 . S
C2485 C2484 1.434 . S
C2486 C2487 1.369 . S
C2486 C2488 1.419 1_565 S
C2486 H2490 0.930 . S
C2487 C2486 1.369 . S
C2487 C2496 1.429 . S
C2488 C2486 1.419 1_545 S
C2488 C2489 1.363 . S
C2488 H2491 0.929 . S
C2489 C2488 1.363 . S
C2489 C2495 1.428 . S
H2490 C2486 0.930 . S
H2491 C2488 0.929 . S
S2492 N2493 1.613 . S
S2492 N2494 1.610 1_565 S
N2493 S2492 1.613 . S
N2493 C2496 1.350 . S
N2494 S2492 1.610 1_545 S
N2494 C2495 1.351 . S
C2495 C2489 1.428 . S
C2495 N2494 1.351 . S
C2495 C2496 1.434 1_545 S
C2496 C2487 1.429 . S
C2496 N2493 1.350 . S
C2496 C2495 1.434 1_565 S
C2497 C2498 1.369 . S
C2497 C2499 1.419 . S
C2497 H2501 0.930 . S
C2498 C2497 1.369 . S
C2498 C2507 1.429 . S
C2499 C2497 1.419 . S
C2499 C2500 1.363 . S
C2499 H2502 0.929 . S
C2500 C2499 1.363 . S
C2500 C2506 1.428 . S
H2501 C2497 0.930 . S
H2502 C2499 0.929 . S
S2503 N2504 1.613 . S
S2503 N2505 1.610 . S
N2504 S2503 1.613 . S
N2504 C2507 1.350 . S
N2505 S2503 1.610 . S
N2505 C2506 1.351 . S
C2506 C2500 1.428 . S
C2506 N2505 1.351 . S
C2506 C2507 1.434 . S
C2507 C2498 1.429 . S
C2507 N2504 1.350 . S
C2507 C2506 1.434 . S
C2508 C2509 1.369 . S
C2508 C2510 1.419 . S
C2508 H2512 0.930 . S
C2509 C2508 1.369 . S
C2509 C2518 1.429 . S
C2510 C2508 1.419 . S
C2510 C2511 1.363 . S
C2510 H2513 0.929 . S
C2511 C2510 1.363 . S
C2511 C2517 1.428 . S
H2512 C2508 0.930 . S
H2513 C2510 0.929 . S
S2514 N2515 1.613 . S
S2514 N2516 1.610 . S
N2515 S2514 1.613 . S
N2515 C2518 1.350 . S
N2516 S2514 1.610 . S
N2516 C2517 1.351 . S
C2517 C2511 1.428 . S
C2517 N2516 1.351 . S
C2517 C2518 1.434 . S
C2518 C2509 1.429 . S
C2518 N2515 1.350 . S
C2518 C2517 1.434 . S
C2519 C2520 1.369 . S
C2519 C2521 1.419 . S
C2519 H2523 0.930 . S
C2520 C2519 1.369 . S
C2520 C2529 1.429 . S
C2521 C2519 1.419 . S
C2521 C2522 1.363 . S
C2521 H2524 0.929 . S
C2522 C2521 1.363 . S
C2522 C2528 1.428 . S
H2523 C2519 0.930 . S
H2524 C2521 0.929 . S
S2525 N2526 1.613 . S
S2525 N2527 1.610 . S
N2526 S2525 1.613 . S
N2526 C2529 1.350 . S
N2527 S2525 1.610 . S
N2527 C2528 1.351 . S
C2528 C2522 1.428 . S
C2528 N2527 1.351 . S
C2528 C2529 1.434 . S
C2529 C2520 1.429 . S
C2529 N2526 1.350 . S
C2529 C2528 1.434 . S
C2530 C2531 1.369 . S
C2530 C2532 1.419 1_556 S
C2530 H2534 0.930 . S
C2531 C2530 1.369 . S
C2531 C2540 1.429 . S
C2532 C2530 1.419 1_554 S
C2532 C2533 1.363 . S
C2532 H2535 0.929 . S
C2533 C2532 1.363 . S
C2533 C2539 1.428 . S
H2534 C2530 0.930 . S
H2535 C2532 0.929 . S
S2536 N2537 1.613 . S
S2536 N2538 1.610 1_556 S
N2537 S2536 1.613 . S
N2537 C2540 1.350 . S
N2538 S2536 1.610 1_554 S
N2538 C2539 1.351 . S
C2539 C2533 1.428 . S
C2539 N2538 1.351 . S
C2539 C2540 1.434 1_554 S
C2540 C2531 1.429 . S
C2540 N2537 1.350 . S
C2540 C2539 1.434 1_556 S
C2541 C2542 1.369 . S
C2541 C2543 1.419 1_556 S
C2541 H2545 0.930 . S
C2542 C2541 1.369 . S
C2542 C2551 1.429 . S
C2543 C2541 1.419 1_554 S
C2543 C2544 1.363 . S
C2543 H2546 0.929 . S
C2544 C2543 1.363 . S
C2544 C2550 1.428 . S
H2545 C2541 0.930 . S
H2546 C2543 0.929 . S
S2547 N2548 1.613 1_554 S
S2547 N2549 1.610 . S
N2548 S2547 1.613 1_556 S
N2548 C2551 1.350 . S
N2549 S2547 1.610 . S
N2549 C2550 1.351 . S
C2550 C2544 1.428 . S
C2550 N2549 1.351 . S
C2550 C2551 1.434 1_554 S
C2551 C2542 1.429 . S
C2551 N2548 1.350 . S
C2551 C2550 1.434 1_556 S
C2552 C2553 1.369 . S
C2552 C2554 1.419 . S
C2552 H2556 0.930 . S
C2553 C2552 1.369 . S
C2553 C2562 1.429 . S
C2554 C2552 1.419 . S
C2554 C2555 1.363 . S
C2554 H2557 0.929 . S
C2555 C2554 1.363 . S
C2555 C2561 1.428 . S
H2556 C2552 0.930 . S
H2557 C2554 0.929 . S
S2558 N2559 1.613 . S
S2558 N2560 1.610 . S
N2559 S2558 1.613 . S
N2559 C2562 1.350 . S
N2560 S2558 1.610 . S
N2560 C2561 1.351 . S
C2561 C2555 1.428 . S
C2561 N2560 1.351 . S
C2561 C2562 1.434 . S
C2562 C2553 1.429 . S
C2562 N2559 1.350 . S
C2562 C2561 1.434 . S
C2563 C2564 1.369 . S
C2563 C2565 1.419 . S
C2563 H2567 0.930 . S
C2564 C2563 1.369 . S
C2564 C2573 1.429 . S
C2565 C2563 1.419 . S
C2565 C2566 1.363 . S
C2565 H2568 0.929 . S
C2566 C2565 1.363 . S
C2566 C2572 1.428 . S
H2567 C2563 0.930 . S
H2568 C2565 0.929 . S
S2569 N2570 1.613 . S
S2569 N2571 1.610 . S
N2570 S2569 1.613 . S
N2570 C2573 1.350 . S
N2571 S2569 1.610 . S
N2571 C2572 1.351 . S
C2572 C2566 1.428 . S
C2572 N2571 1.351 . S
C2572 C2573 1.434 . S
C2573 C2564 1.429 . S
C2573 N2570 1.350 . S
C2573 C2572 1.434 . S
C2574 C2575 1.369 . S
C2574 C2576 1.419 . S
C2574 H2578 0.930 . S
C2575 C2574 1.369 . S
C2575 C2584 1.429 . S
C2576 C2574 1.419 . S
C2576 C2577 1.363 . S
C2576 H2579 0.929 . S
C2577 C2576 1.363 . S
C2577 C2583 1.428 . S
H2578 C2574 0.930 . S
H2579 C2576 0.929 . S
S2580 N2581 1.613 . S
S2580 N2582 1.610 . S
N2581 S2580 1.613 . S
N2581 C2584 1.350 . S
N2582 S2580 1.610 . S
N2582 C2583 1.351 . S
C2583 C2577 1.428 . S
C2583 N2582 1.351 . S
C2583 C2584 1.434 . S
C2584 C2575 1.429 . S
C2584 N2581 1.350 . S
C2584 C2583 1.434 . S
C2585 C2586 1.369 . S
C2585 C2587 1.419 . S
C2585 H2589 0.930 . S
C2586 C2585 1.369 . S
C2586 C2595 1.429 . S
C2587 C2585 1.419 . S
C2587 C2588 1.363 . S
C2587 H2590 0.929 . S
C2588 C2587 1.363 . S
C2588 C2594 1.428 . S
H2589 C2585 0.930 . S
H2590 C2587 0.929 . S
S2591 N2592 1.613 . S
S2591 N2593 1.610 . S
N2592 S2591 1.613 . S
N2592 C2595 1.350 . S
N2593 S2591 1.610 . S
N2593 C2594 1.351 . S
C2594 C2588 1.428 . S
C2594 N2593 1.351 . S
C2594 C2595 1.434 . S
C2595 C2586 1.429 . S
C2595 N2592 1.350 . S
C2595 C2594 1.434 . S
C2596 C2597 1.369 . S
C2596 C2598 1.419 . S
C2596 H2600 0.930 . S
C2597 C2596 1.369 . S
C2597 C2606 1.429 . S
C2598 C2596 1.419 . S
C2598 C2599 1.363 . S
C2598 H2601 0.929 . S
C2599 C2598 1.363 . S
C2599 C2605 1.428 . S
H2600 C2596 0.930 . S
H2601 C2598 0.929 . S
S2602 N2603 1.613 . S
S2602 N2604 1.610 . S
N2603 S2602 1.613 . S
N2603 C2606 1.350 . S
N2604 S2602 1.610 . S
N2604 C2605 1.351 . S
C2605 C2599 1.428 . S
C2605 N2604 1.351 . S
C2605 C2606 1.434 . S
C2606 C2597 1.429 . S
C2606 N2603 1.350 . S
C2606 C2605 1.434 . S
C2607 C2608 1.369 . S
C2607 C2609 1.419 . S
C2607 H2611 0.930 . S
C2608 C2607 1.369 . S
C2608 C2617 1.429 . S
C2609 C2607 1.419 . S
C2609 C2610 1.363 . S
C2609 H2612 0.929 . S
C2610 C2609 1.363 . S
C2610 C2616 1.428 . S
H2611 C2607 0.930 . S
H2612 C2609 0.929 . S
S2613 N2614 1.613 . S
S2613 N2615 1.610 . S
N2614 S2613 1.613 . S
N2614 C2617 1.350 . S
N2615 S2613 1.610 . S
N2615 C2616 1.351 . S
C2616 C2610 1.428 . S
C2616 N2615 1.351 . S
C2616 C2617 1.434 . S
C2617 C2608 1.429 . S
C2617 N2614 1.350 . S
C2617 C2616 1.434 . S
C2618 C2619 1.369 . S
C2618 C2620 1.419 1_565 S
C2618 H2622 0.930 . S
C2619 C2618 1.369 . S
C2619 C2628 1.429 . S
C2620 C2618 1.419 1_545 S
C2620 C2621 1.363 . S
C2620 H2623 0.929 . S
C2621 C2620 1.363 . S
C2621 C2627 1.428 . S
H2622 C2618 0.930 . S
H2623 C2620 0.929 . S
S2624 N2625 1.613 1_545 S
S2624 N2626 1.610 . S
N2625 S2624 1.613 1_565 S
N2625 C2628 1.350 . S
N2626 S2624 1.610 . S
N2626 C2627 1.351 . S
C2627 C2621 1.428 . S
C2627 N2626 1.351 . S
C2627 C2628 1.434 1_545 S
C2628 C2619 1.429 . S
C2628 N2625 1.350 . S
C2628 C2627 1.434 1_565 S
C2629 C2630 1.369 . S
C2629 C2631 1.419 . S
C2629 H2633 0.930 . S
C2630 C2629 1.369 . S
C2630 C2639 1.429 . S
C2631 C2629 1.419 . S
C2631 C2632 1.363 . S
C2631 H2634 0.929 . S
C2632 C2631 1.363 . S
C2632 C2638 1.428 . S
H2633 C2629 0.930 . S
H2634 C2631 0.929 . S
S2635 N2636 1.613 . S
S2635 N2637 1.610 . S
N2636 S2635 1.613 . S
N2636 C2639 1.350 . S
N2637 S2635 1.610 . S
N2637 C2638 1.351 . S
C2638 C2632 1.428 . S
C2638 N2637 1.351 . S
C2638 C2639 1.434 . S
C2639 C2630 1.429 . S
C2639 N2636 1.350 . S
C2639 C2638 1.434 . S
C2640 C2641 1.369 . S
C2640 C2642 1.419 1_556 S
C2640 H2644 0.930 . S
C2641 C2640 1.369 . S
C2641 C2650 1.429 . S
C2642 C2640 1.419 1_554 S
C2642 C2643 1.363 . S
C2642 H2645 0.929 . S
C2643 C2642 1.363 . S
C2643 C2649 1.428 . S
H2644 C2640 0.930 . S
H2645 C2642 0.929 . S
S2646 N2647 1.613 . S
S2646 N2648 1.610 1_556 S
N2647 S2646 1.613 . S
N2647 C2650 1.350 . S
N2648 S2646 1.610 1_554 S
N2648 C2649 1.351 . S
C2649 C2643 1.428 . S
C2649 N2648 1.351 . S
C2649 C2650 1.434 1_554 S
C2650 C2641 1.429 . S
C2650 N2647 1.350 . S
C2650 C2649 1.434 1_556 S
C2651 C2652 1.369 . S
C2651 C2653 1.419 1_554 S
C2651 H2655 0.930 . S
C2652 C2651 1.369 . S
C2652 C2661 1.429 . S
C2653 C2651 1.419 1_556 S
C2653 C2654 1.363 . S
C2653 H2656 0.929 . S
C2654 C2653 1.363 . S
C2654 C2660 1.428 . S
H2655 C2651 0.930 . S
H2656 C2653 0.929 . S
S2657 N2658 1.613 1_556 S
S2657 N2659 1.610 . S
N2658 S2657 1.613 1_554 S
N2658 C2661 1.350 . S
N2659 S2657 1.610 . S
N2659 C2660 1.351 . S
C2660 C2654 1.428 . S
C2660 N2659 1.351 . S
C2660 C2661 1.434 1_556 S
C2661 C2652 1.429 . S
C2661 N2658 1.350 . S
C2661 C2660 1.434 1_554 S
C2662 C2663 1.369 . S
C2662 C2664 1.419 . S
C2662 H2666 0.930 . S
C2663 C2662 1.369 . S
C2663 C2672 1.429 . S
C2664 C2662 1.419 . S
C2664 C2665 1.363 . S
C2664 H2667 0.929 . S
C2665 C2664 1.363 . S
C2665 C2671 1.428 . S
H2666 C2662 0.930 . S
H2667 C2664 0.929 . S
S2668 N2669 1.613 . S
S2668 N2670 1.610 . S
N2669 S2668 1.613 . S
N2669 C2672 1.350 . S
N2670 S2668 1.610 . S
N2670 C2671 1.351 . S
C2671 C2665 1.428 . S
C2671 N2670 1.351 . S
C2671 C2672 1.434 . S
C2672 C2663 1.429 . S
C2672 N2669 1.350 . S
C2672 C2671 1.434 . S
C2673 C2674 1.369 . S
C2673 C2675 1.419 . S
C2673 H2677 0.930 . S
C2674 C2673 1.369 . S
C2674 C2683 1.429 . S
C2675 C2673 1.419 . S
C2675 C2676 1.363 . S
C2675 H2678 0.929 . S
C2676 C2675 1.363 . S
C2676 C2682 1.428 . S
H2677 C2673 0.930 . S
H2678 C2675 0.929 . S
S2679 N2680 1.613 . S
S2679 N2681 1.610 . S
N2680 S2679 1.613 . S
N2680 C2683 1.350 . S
N2681 S2679 1.610 . S
N2681 C2682 1.351 . S
C2682 C2676 1.428 . S
C2682 N2681 1.351 . S
C2682 C2683 1.434 . S
C2683 C2674 1.429 . S
C2683 N2680 1.350 . S
C2683 C2682 1.434 . S
C2684 C2685 1.369 . S
C2684 C2686 1.419 1_655 S
C2684 H2688 0.930 . S
C2685 C2684 1.369 . S
C2685 C2694 1.429 . S
C2686 C2684 1.419 1_455 S
C2686 C2687 1.363 . S
C2686 H2689 0.929 . S
C2687 C2686 1.363 . S
C2687 C2693 1.428 . S
H2688 C2684 0.930 . S
H2689 C2686 0.929 . S
S2690 N2691 1.613 1_455 S
S2690 N2692 1.610 . S
N2691 S2690 1.613 1_655 S
N2691 C2694 1.350 . S
N2692 S2690 1.610 . S
N2692 C2693 1.351 . S
C2693 C2687 1.428 . S
C2693 N2692 1.351 . S
C2693 C2694 1.434 1_455 S
C2694 C2685 1.429 . S
C2694 N2691 1.350 . S
C2694 C2693 1.434 1_655 S
C2695 C2696 1.369 . S
C2695 C2697 1.419 1_655 S
C2695 H2699 0.930 . S
C2696 C2695 1.369 . S
C2696 C2705 1.429 . S
C2697 C2695 1.419 1_455 S
C2697 C2698 1.363 . S
C2697 H2700 0.929 . S
C2698 C2697 1.363 . S
C2698 C2704 1.428 . S
H2699 C2695 0.930 . S
H2700 C2697 0.929 . S
S2701 N2702 1.581 1_455 S
S2701 N2703 1.645 . S
N2702 S2701 1.581 1_655 S
N2702 C2705 1.350 . S
N2703 S2701 1.645 . S
N2703 C2704 1.351 . S
C2704 C2698 1.428 . S
C2704 N2703 1.351 . S
C2704 C2705 1.434 1_455 S
C2705 C2696 1.429 . S
C2705 N2702 1.350 . S
C2705 C2704 1.434 1_655 S
C2706 C2707 1.369 . S
C2706 C2708 1.419 1_655 S
C2706 H2710 0.930 . S
C2707 C2706 1.369 . S
C2707 C2716 1.429 . S
C2708 C2706 1.419 1_455 S
C2708 C2709 1.363 . S
C2708 H2711 0.929 . S
C2709 C2708 1.363 . S
C2709 C2715 1.428 . S
H2710 C2706 0.930 . S
H2711 C2708 0.929 . S
S2712 N2713 1.613 . S
S2712 N2714 1.610 1_655 S
N2713 S2712 1.613 . S
N2713 C2716 1.350 . S
N2714 S2712 1.610 1_455 S
N2714 C2715 1.351 . S
C2715 C2709 1.428 . S
C2715 N2714 1.351 . S
C2715 C2716 1.434 1_455 S
C2716 C2707 1.429 . S
C2716 N2713 1.350 . S
C2716 C2715 1.434 1_655 S
C2717 C2718 1.369 . S
C2717 C2719 1.419 1_455 S
C2717 H2721 0.930 . S
C2718 C2717 1.369 . S
C2718 C2727 1.429 . S
C2719 C2717 1.419 1_655 S
C2719 C2720 1.363 . S
C2719 H2722 0.929 . S
C2720 C2719 1.363 . S
C2720 C2726 1.428 . S
H2721 C2717 0.930 . S
H2722 C2719 0.929 . S
S2723 N2724 1.613 . S
S2723 N2725 1.610 1_455 S
N2724 S2723 1.613 . S
N2724 C2727 1.350 . S
N2725 S2723 1.610 1_655 S
N2725 C2726 1.351 . S
C2726 C2720 1.428 . S
C2726 N2725 1.351 . S
C2726 C2727 1.434 1_655 S
C2727 C2718 1.429 . S
C2727 N2724 1.350 . S
C2727 C2726 1.434 1_455 S
C2728 C2729 1.369 . S
C2728 C2730 1.419 1_545 S
C2728 H2732 0.930 . S
C2729 C2728 1.369 . S
C2729 C2738 1.429 . S
C2730 C2728 1.419 1_565 S
C2730 C2731 1.363 . S
C2730 H2733 0.929 . S
C2731 C2730 1.363 . S
C2731 C2737 1.428 . S
H2732 C2728 0.930 . S
H2733 C2730 0.929 . S
S2734 N2735 1.613 . S
S2734 N2736 1.610 1_545 S
N2735 S2734 1.613 . S
N2735 C2738 1.350 . S
N2736 S2734 1.610 1_565 S
N2736 C2737 1.351 . S
C2737 C2731 1.428 . S
C2737 N2736 1.351 . S
C2737 C2738 1.434 1_565 S
C2738 C2729 1.429 . S
C2738 N2735 1.350 . S
C2738 C2737 1.434 1_545 S
C2739 C2740 1.369 . S
C2739 C2741 1.419 1_545 S
C2739 H2743 0.930 . S
C2740 C2739 1.369 . S
C2740 C2749 1.429 . S
C2741 C2739 1.419 1_565 S
C2741 C2742 1.363 . S
C2741 H2744 0.929 . S
C2742 C2741 1.363 . S
C2742 C2748 1.428 . S
H2743 C2739 0.930 . S
H2744 C2741 0.929 . S
S2745 N2746 1.613 1_565 S
S2745 N2747 1.610 . S
N2746 S2745 1.613 1_545 S
N2746 C2749 1.350 . S
N2747 S2745 1.610 . S
N2747 C2748 1.351 . S
C2748 C2742 1.428 . S
C2748 N2747 1.351 . S
C2748 C2749 1.434 1_565 S
C2749 C2740 1.429 . S
C2749 N2746 1.350 . S
C2749 C2748 1.434 1_545 S
C2750 C2751 1.369 . S
C2750 C2752 1.419 . S
C2750 H2754 0.930 . S
C2751 C2750 1.369 . S
C2751 C2760 1.429 . S
C2752 C2750 1.419 . S
C2752 C2753 1.363 . S
C2752 H2755 0.929 . S
C2753 C2752 1.363 . S
C2753 C2759 1.428 . S
H2754 C2750 0.930 . S
H2755 C2752 0.929 . S
S2756 N2757 1.613 . S
S2756 N2758 1.610 . S
N2757 S2756 1.613 . S
N2757 C2760 1.350 . S
N2758 S2756 1.610 . S
N2758 C2759 1.351 . S
C2759 C2753 1.428 . S
C2759 N2758 1.351 . S
C2759 C2760 1.434 . S
C2760 C2751 1.429 . S
C2760 N2757 1.350 . S
C2760 C2759 1.434 . S
C2761 C2762 1.369 . S
C2761 C2763 1.419 1_545 S
C2761 H2765 0.930 . S
C2762 C2761 1.369 . S
C2762 C2771 1.429 . S
C2763 C2761 1.419 1_565 S
C2763 C2764 1.363 . S
C2763 H2766 0.929 . S
C2764 C2763 1.363 . S
C2764 C2770 1.428 . S
H2765 C2761 0.930 . S
H2766 C2763 0.929 . S
S2767 N2768 1.613 . S
S2767 N2769 1.610 1_545 S
N2768 S2767 1.613 . S
N2768 C2771 1.350 . S
N2769 S2767 1.610 1_565 S
N2769 C2770 1.351 . S
C2770 C2764 1.428 . S
C2770 N2769 1.351 . S
C2770 C2771 1.434 1_565 S
C2771 C2762 1.429 . S
C2771 N2768 1.350 . S
C2771 C2770 1.434 1_545 S
C2772 C2773 1.369 . S
C2772 C2774 1.419 1_556 S
C2772 H2776 0.930 . S
C2773 C2772 1.369 . S
C2773 C2782 1.429 . S
C2774 C2772 1.419 1_554 S
C2774 C2775 1.363 . S
C2774 H2777 0.929 . S
C2775 C2774 1.363 . S
C2775 C2781 1.428 . S
H2776 C2772 0.930 . S
H2777 C2774 0.929 . S
S2778 N2779 1.613 . S
S2778 N2780 1.610 1_556 S
N2779 S2778 1.613 . S
N2779 C2782 1.350 . S
N2780 S2778 1.610 1_554 S
N2780 C2781 1.351 . S
C2781 C2775 1.428 . S
C2781 N2780 1.351 . S
C2781 C2782 1.434 1_554 S
C2782 C2773 1.429 . S
C2782 N2779 1.350 . S
C2782 C2781 1.434 1_556 S
C2783 C2784 1.369 . S
C2783 C2785 1.419 1_554 S
C2783 H2787 0.930 . S
C2784 C2783 1.369 . S
C2784 C2793 1.429 . S
C2785 C2783 1.419 1_556 S
C2785 C2786 1.363 . S
C2785 H2788 0.929 . S
C2786 C2785 1.363 . S
C2786 C2792 1.428 . S
H2787 C2783 0.930 . S
H2788 C2785 0.929 . S
S2789 N2790 1.613 . S
S2789 N2791 1.610 1_554 S
N2790 S2789 1.613 . S
N2790 C2793 1.350 . S
N2791 S2789 1.610 1_556 S
N2791 C2792 1.351 . S
C2792 C2786 1.428 . S
C2792 N2791 1.351 . S
C2792 C2793 1.434 1_556 S
C2793 C2784 1.429 . S
C2793 N2790 1.350 . S
C2793 C2792 1.434 1_554 S
C2794 C2795 1.369 . S
C2794 C2796 1.419 . S
C2794 H2798 0.930 . S
C2795 C2794 1.369 . S
C2795 C2804 1.429 . S
C2796 C2794 1.419 . S
C2796 C2797 1.363 . S
C2796 H2799 0.929 . S
C2797 C2796 1.363 . S
C2797 C2803 1.428 . S
H2798 C2794 0.930 . S
H2799 C2796 0.929 . S
S2800 N2801 1.613 . S
S2800 N2802 1.610 . S
N2801 S2800 1.613 . S
N2801 C2804 1.350 . S
N2802 S2800 1.610 . S
N2802 C2803 1.351 . S
C2803 C2797 1.428 . S
C2803 N2802 1.351 . S
C2803 C2804 1.434 . S
C2804 C2795 1.429 . S
C2804 N2801 1.350 . S
C2804 C2803 1.434 . S
C2805 C2806 1.369 . S
C2805 C2807 1.419 . S
C2805 H2809 0.930 . S
C2806 C2805 1.369 . S
C2806 C2815 1.429 . S
C2807 C2805 1.419 . S
C2807 C2808 1.363 . S
C2807 H2810 0.929 . S
C2808 C2807 1.363 . S
C2808 C2814 1.428 . S
H2809 C2805 0.930 . S
H2810 C2807 0.929 . S
S2811 N2812 1.613 . S
S2811 N2813 1.610 . S
N2812 S2811 1.613 . S
N2812 C2815 1.350 . S
N2813 S2811 1.610 . S
N2813 C2814 1.351 . S
C2814 C2808 1.428 . S
C2814 N2813 1.351 . S
C2814 C2815 1.434 . S
C2815 C2806 1.429 . S
C2815 N2812 1.350 . S
C2815 C2814 1.434 . S
C2816 C2817 1.369 . S
C2816 C2818 1.419 1_455 S
C2816 H2820 0.930 . S
C2817 C2816 1.369 . S
C2817 C2826 1.429 . S
C2818 C2816 1.419 1_655 S
C2818 C2819 1.363 . S
C2818 H2821 0.929 . S
C2819 C2818 1.363 . S
C2819 C2825 1.428 . S
H2820 C2816 0.930 . S
H2821 C2818 0.929 . S
S2822 N2823 1.613 . S
S2822 N2824 1.610 1_455 S
N2823 S2822 1.613 . S
N2823 C2826 1.350 . S
N2824 S2822 1.610 1_655 S
N2824 C2825 1.351 . S
C2825 C2819 1.428 . S
C2825 N2824 1.351 . S
C2825 C2826 1.434 1_655 S
C2826 C2817 1.429 . S
C2826 N2823 1.350 . S
C2826 C2825 1.434 1_455 S
C2827 C2828 1.369 . S
C2827 C2829 1.419 1_455 S
C2827 H2831 0.930 . S
C2828 C2827 1.369 . S
C2828 C2837 1.429 . S
C2829 C2827 1.419 1_655 S
C2829 C2830 1.363 . S
C2829 H2832 0.929 . S
C2830 C2829 1.363 . S
C2830 C2836 1.428 . S
H2831 C2827 0.930 . S
H2832 C2829 0.929 . S
S2833 N2834 1.613 1_655 S
S2833 N2835 1.610 . S
N2834 S2833 1.613 1_455 S
N2834 C2837 1.350 . S
N2835 S2833 1.610 . S
N2835 C2836 1.351 . S
C2836 C2830 1.428 . S
C2836 N2835 1.351 . S
C2836 C2837 1.434 1_655 S
C2837 C2828 1.429 . S
C2837 N2834 1.350 . S
C2837 C2836 1.434 1_455 S
C2838 C2839 1.369 . S
C2838 C2840 1.419 1_655 S
C2838 H2842 0.930 . S
C2839 C2838 1.369 . S
C2839 C2848 1.429 . S
C2840 C2838 1.419 1_455 S
C2840 C2841 1.363 . S
C2840 H2843 0.929 . S
C2841 C2840 1.363 . S
C2841 C2847 1.428 . S
H2842 C2838 0.930 . S
H2843 C2840 0.929 . S
S2844 N2845 1.613 . S
S2844 N2846 1.610 1_655 S
N2845 S2844 1.613 . S
N2845 C2848 1.350 . S
N2846 S2844 1.610 1_455 S
N2846 C2847 1.351 . S
C2847 C2841 1.428 . S
C2847 N2846 1.351 . S
C2847 C2848 1.434 1_455 S
C2848 C2839 1.429 . S
C2848 N2845 1.350 . S
C2848 C2847 1.434 1_655 S
C2849 C2850 1.369 . S
C2849 C2851 1.419 1_455 S
C2849 H2853 0.930 . S
C2850 C2849 1.369 . S
C2850 C2859 1.429 . S
C2851 C2849 1.419 1_655 S
C2851 C2852 1.363 . S
C2851 H2854 0.929 . S
C2852 C2851 1.363 . S
C2852 C2858 1.428 . S
H2853 C2849 0.930 . S
H2854 C2851 0.929 . S
S2855 N2856 1.613 1_655 S
S2855 N2857 1.610 . S
N2856 S2855 1.613 1_455 S
N2856 C2859 1.350 . S
N2857 S2855 1.610 . S
N2857 C2858 1.351 . S
C2858 C2852 1.428 . S
C2858 N2857 1.351 . S
C2858 C2859 1.434 1_655 S
C2859 C2850 1.429 . S
C2859 N2856 1.350 . S
C2859 C2858 1.434 1_455 S
C2860 C2861 1.369 . S
C2860 C2862 1.419 1_545 S
C2860 H2864 0.930 . S
C2861 C2860 1.369 . S
C2861 C2870 1.429 . S
C2862 C2860 1.419 1_565 S
C2862 C2863 1.363 . S
C2862 H2865 0.929 . S
C2863 C2862 1.363 . S
C2863 C2869 1.428 . S
H2864 C2860 0.930 . S
H2865 C2862 0.929 . S
S2866 N2867 1.613 . S
S2866 N2868 1.610 1_545 S
N2867 S2866 1.613 . S
N2867 C2870 1.350 . S
N2868 S2866 1.610 1_565 S
N2868 C2869 1.351 . S
C2869 C2863 1.428 . S
C2869 N2868 1.351 . S
C2869 C2870 1.434 1_565 S
C2870 C2861 1.429 . S
C2870 N2867 1.350 . S
C2870 C2869 1.434 1_545 S
C2871 C2872 1.369 . S
C2871 C2873 1.419 1_545 S
C2871 H2875 0.930 . S
C2872 C2871 1.369 . S
C2872 C2881 1.429 . S
C2873 C2871 1.419 1_565 S
C2873 C2874 1.363 . S
C2873 H2876 0.929 . S
C2874 C2873 1.363 . S
C2874 C2880 1.428 . S
H2875 C2871 0.930 . S
H2876 C2873 0.929 . S
S2877 N2878 1.613 1_565 S
S2877 N2879 1.610 . S
N2878 S2877 1.613 1_545 S
N2878 C2881 1.350 . S
N2879 S2877 1.610 . S
N2879 C2880 1.351 . S
C2880 C2874 1.428 . S
C2880 N2879 1.351 . S
C2880 C2881 1.434 1_565 S
C2881 C2872 1.429 . S
C2881 N2878 1.350 . S
C2881 C2880 1.434 1_545 S
C2882 C2883 1.369 . S
C2882 C2884 1.419 . S
C2882 H2886 0.930 . S
C2883 C2882 1.369 . S
C2883 C2892 1.429 . S
C2884 C2882 1.419 . S
C2884 C2885 1.363 . S
C2884 H2887 0.929 . S
C2885 C2884 1.363 . S
C2885 C2891 1.428 . S
H2886 C2882 0.930 . S
H2887 C2884 0.929 . S
S2888 N2889 1.613 . S
S2888 N2890 1.610 . S
N2889 S2888 1.613 . S
N2889 C2892 1.350 . S
N2890 S2888 1.610 . S
N2890 C2891 1.351 . S
C2891 C2885 1.428 . S
C2891 N2890 1.351 . S
C2891 C2892 1.434 . S
C2892 C2883 1.429 . S
C2892 N2889 1.350 . S
C2892 C2891 1.434 . S
C2893 C2894 1.369 . S
C2893 C2895 1.419 1_565 S
C2893 H2897 0.930 . S
C2894 C2893 1.369 . S
C2894 C2903 1.429 . S
C2895 C2893 1.419 1_545 S
C2895 C2896 1.363 . S
C2895 H2898 0.929 . S
C2896 C2895 1.363 . S
C2896 C2902 1.428 . S
H2897 C2893 0.930 . S
H2898 C2895 0.929 . S
S2899 N2900 1.613 . S
S2899 N2901 1.610 1_565 S
N2900 S2899 1.613 . S
N2900 C2903 1.350 . S
N2901 S2899 1.610 1_545 S
N2901 C2902 1.351 . S
C2902 C2896 1.428 . S
C2902 N2901 1.351 . S
C2902 C2903 1.434 1_545 S
C2903 C2894 1.429 . S
C2903 N2900 1.350 . S
C2903 C2902 1.434 1_565 S
C1585 N1334 1.568 . S
C1587 C28 1.590 . S
C1596 N1367 1.567 . S
C1598 C61 1.591 . S
C1607 N1400 1.567 . S
C1609 C94 1.591 . S
C1618 C127 1.587 . S
C1620 N1433 1.572 . S
C1629 C160 1.589 . S
C1631 N1466 1.571 . S
C1640 C193 1.591 . S
C1642 N773 1.568 . S
C1651 C226 1.586 . S
C1653 N1499 1.574 . S
C1662 C259 1.587 . S
C1664 N1532 1.572 . S
C1673 C292 1.592 . S
C1675 N1202 1.568 . S
C1684 C325 1.586 . S
C1686 N1268 1.574 . S
C1695 C358 1.586 . S
C1697 N1301 1.573 . S
C1706 N443 1.569 . S
C1708 C391 1.590 . S
C1717 C424 1.588 . S
C1719 N938 1.571 . S
C1728 C457 1.591 . S
C1730 N971 1.569 . S
C1739 N1004 1.574 . S
C1741 C490 1.587 . S
C1750 N1037 1.569 . S
C1752 C523 1.590 . S
C1761 C556 1.592 . S
C1763 N1070 1.568 . S
C1772 N377 1.572 . S
C1774 C589 1.588 . S
C1783 N1103 1.567 . S
C1785 C622 1.591 . S
C1794 N1136 1.570 . S
C1796 C655 1.589 . S
C1805 C688 1.586 . S
C1807 N806 1.573 . S
C1816 C721 1.592 . S
C1818 N872 1.568 . S
C1827 N905 1.567 . S
C1829 C754 1.591 . S
C1838 C787 1.592 . S
C1840 N47 1.568 . S
C1849 C820 1.591 . S
C1851 N542 1.569 . S
C1860 N575 1.574 . S
C1862 C853 1.587 . S
C1871 N608 1.567 . S
C1873 C886 1.591 . S
C1882 C919 1.586 . S
C1884 N641 1.573 . S
C1893 C952 1.590 . S
C1895 N674 1.570 . S
C1904 N1565 1.570 . S
C1906 C985 1.590 . S
C1915 C1018 1.586 . S
C1917 N707 1.573 . S
C1926 C1051 1.587 . S
C1928 N740 1.573 . S
C1937 C1084 1.590 . S
C1939 N410 1.569 . S
C1948 N476 1.573 . S
C1950 C1117 1.587 . S
C1959 C1150 1.588 . S
C1961 N509 1.571 . S
C1970 C1183 1.588 . S
C1972 N1235 1.571 . S
C1981 C1216 1.590 . S
C1983 N146 1.569 . S
C1992 C1249 1.587 . S
C1994 N179 1.572 . S
C2003 C1282 1.586 . S
C2005 N212 1.574 . S
C2014 C1315 1.588 . S
C2016 N245 1.572 . S
C2025 N278 1.574 . S
C2027 C1348 1.587 . S
C2036 C1381 1.592 . S
C2038 N1169 1.568 . S
C2047 C1414 1.592 . S
C2049 N311 1.568 . S
C2058 N344 1.569 . S
C2060 C1447 1.590 . S
C2069 N14 1.574 . S
C2071 C1480 1.587 . S
C2080 C1513 1.590 . S
C2082 N80 1.570 . S
C2091 C1546 1.586 . S
C2093 N113 1.574 . S
C2102 N839 1.575 . S
C2104 C1579 1.586 . S
C2113 N5 0.481 . S
C2115 N38 0.478 . S
C2124 N104 0.477 . S
C2126 N71 0.473 . S
C2135 N137 0.477 . S
C2137 N203 0.474 . S
C2146 N236 0.474 . S
C2148 N170 0.477 . S
C2157 N1127 0.477 . S
C2159 N269 0.474 . S
C2168 N302 0.480 . S
C2170 N368 0.477 . S
C2179 N335 0.477 . S
C2181 N1061 0.479 . S
C2190 N401 0.476 . S
C2192 N434 0.473 . S
C2201 N467 0.470 . S
C2203 N500 0.473 . S
C2212 N599 0.472 . S
C2214 N533 0.475 . S
C2223 N566 0.476 . S
C2225 N632 0.478 . S
C2234 N665 0.480 . S
C2236 N1523 0.477 . S
C2245 N764 0.474 . S
C2247 N698 0.477 . S
C2256 N1457 0.479 . S
C2258 N731 0.479 . S
C2267 N830 0.481 . S
C2269 N797 0.478 . S
C2278 N896 0.470 . S
C2280 N863 0.471 . S
C2289 N995 0.474 . S
C2291 N929 0.478 . S
C2300 N1028 0.474 . S
C2302 N962 0.478 . S
C2311 N1160 0.481 . S
C2313 N1094 0.479 . S
C2322 N1226 0.470 . S
C2324 N1193 0.471 . S
C2333 N1292 0.477 . S
C2335 N1259 0.479 . S
C2344 N1391 0.478 . S
C2346 N1325 0.479 . S
C2355 N1424 0.477 . S
C2357 N1358 0.474 . S
C2366 N1556 0.471 . S
C2368 N1490 0.471 . S
C2377 C8 1.386 . S
C2379 C743 1.258 . S
C2388 C41 1.390 . S
C2390 C710 1.251 . S
C2399 C1568 1.262 . S
C2401 C74 1.387 . S
C2410 C677 1.261 . S
C2412 C107 1.388 . S
C2421 C140 1.389 . S
C2423 C1238 1.257 . S
C2432 C1205 1.260 . S
C2434 C173 1.388 . S
C2443 C1304 1.246 . S
C2445 C206 1.390 . S
C2454 C239 1.391 . S
C2456 C1271 1.249 . S
C2465 C1403 1.260 . S
C2467 C272 1.388 . S
C2476 C1337 1.262 . S
C2478 C305 1.387 . S
C2487 C338 1.390 . S
C2489 C1370 1.249 . S
C2498 C644 1.261 . S
C2500 C371 1.387 . S
C2509 C347 1.247 . S
C2511 C404 1.390 . S
C2520 C314 1.260 . S
C2522 C437 1.388 . S
C2531 C470 1.387 . S
C2533 C1172 1.256 . S
C2542 C503 1.387 . S
C2544 C281 1.260 . S
C2553 C842 1.249 . S
C2555 C536 1.390 . S
C2564 C809 1.249 . S
C2566 C569 1.389 . S
C2575 C602 1.390 . S
C2577 C908 1.251 . S
C2586 C635 1.390 . S
C2588 C875 1.252 . S
C2597 C1007 1.252 . S
C2599 C668 1.389 . S
C2608 C701 1.391 . S
C2610 C941 1.248 . S
C2619 C974 1.248 . S
C2621 C734 1.389 . S
C2630 C248 1.253 . S
C2632 C767 1.388 . S
C2641 C800 1.390 . S
C2643 C1535 1.248 . S
C2652 C1502 1.247 . S
C2654 C833 1.390 . S
C2663 C866 1.388 . S
C2665 C776 1.259 . S
C2674 C899 1.388 . S
C2676 C1469 1.251 . S
C2685 C932 1.388 . S
C2687 C446 1.259 . S
C2696 C413 1.254 . S
C2698 C965 1.389 . S
C2707 C998 1.388 . S
C2709 C512 1.253 . S
C2718 C1031 1.390 . S
C2720 C479 1.250 . S
C2729 C611 1.260 . S
C2731 C1064 1.387 . S
C2740 C1097 1.387 . S
C2742 C545 1.261 . S
C2751 C1130 1.387 . S
C2753 C578 1.261 . S
C2762 C1163 1.389 . S
C2764 C1436 1.250 . S
C2773 C1139 1.259 . S
C2775 C1196 1.388 . S
C2784 C1229 1.390 . S
C2786 C1106 1.248 . S
C2795 C1262 1.389 . S
C2797 C380 1.252 . S
C2806 C1295 1.386 . S
C2808 C1073 1.260 . S
C2817 C1328 1.390 . S
C2819 C50 1.250 . S
C2828 C17 1.246 . S
C2830 C1361 1.390 . S
C2839 C116 1.262 . S
C2841 C1394 1.387 . S
C2850 C83 1.260 . S
C2852 C1427 1.387 . S
C2861 C1460 1.390 . S
C2863 C215 1.250 . S
C2872 C149 1.251 . S
C2874 C1493 1.388 . S
C2883 C182 1.263 . S
C2885 C1526 1.387 . S
C2894 C1559 1.390 . S
C2896 C1040 1.248 . S
