# Generated by pormake.
# Topology dft, (4)-cn, num edge types: 1
# Building blocks:
#     Node 0, Type 0, BuildingBlock: NAHDIM_clean_sbu_0, # of connection points: 4
#     Node 1, Type 0, BuildingBlock: NAHDIM_clean_sbu_0, # of connection points: 4
#     Node 2, Type 0, BuildingBlock: NAHDIM_clean_sbu_0, # of connection points: 4
#     Node 3, Type 0, BuildingBlock: NAHDIM_clean_sbu_0, # of connection points: 4
#     Node 4, Type 0, BuildingBlock: NAHDIM_clean_sbu_0, # of connection points: 4
#     Node 5, Type 0, BuildingBlock: NAHDIM_clean_sbu_0, # of connection points: 4
#     Node 6, Type 0, BuildingBlock: NAHDIM_clean_sbu_0, # of connection points: 4
#     Node 7, Type 0, BuildingBlock: NAHDIM_clean_sbu_0, # of connection points: 4
#     Edge 8, Type (0, 0), BuildingBlock: FUNLAD_clean_linker_1, # of connection points: 2
#     Edge 9, Type (0, 0), BuildingBlock: FUNLAD_clean_linker_1, # of connection points: 2
#     Edge 10, Type (0, 0), BuildingBlock: FUNLAD_clean_linker_1, # of connection points: 2
#     Edge 11, Type (0, 0), BuildingBlock: FUNLAD_clean_linker_1, # of connection points: 2
#     Edge 12, Type (0, 0), BuildingBlock: FUNLAD_clean_linker_1, # of connection points: 2
#     Edge 13, Type (0, 0), BuildingBlock: FUNLAD_clean_linker_1, # of connection points: 2
#     Edge 14, Type (0, 0), BuildingBlock: FUNLAD_clean_linker_1, # of connection points: 2
#     Edge 15, Type (0, 0), BuildingBlock: FUNLAD_clean_linker_1, # of connection points: 2
#     Edge 16, Type (0, 0), BuildingBlock: FUNLAD_clean_linker_1, # of connection points: 2
#     Edge 17, Type (0, 0), BuildingBlock: FUNLAD_clean_linker_1, # of connection points: 2
#     Edge 18, Type (0, 0), BuildingBlock: FUNLAD_clean_linker_1, # of connection points: 2
#     Edge 19, Type (0, 0), BuildingBlock: FUNLAD_clean_linker_1, # of connection points: 2
#     Edge 20, Type (0, 0), BuildingBlock: FUNLAD_clean_linker_1, # of connection points: 2
#     Edge 21, Type (0, 0), BuildingBlock: FUNLAD_clean_linker_1, # of connection points: 2
#     Edge 22, Type (0, 0), BuildingBlock: FUNLAD_clean_linker_1, # of connection points: 2
#     Edge 23, Type (0, 0), BuildingBlock: FUNLAD_clean_linker_1, # of connection points: 2
# Relax obj value: 0.139
# Max RMSD: 0.138
# Mean RMSD: 0.138
data_MOF--net-dft--node1-NAHDIM_clean_sbu_0--edge1-FUNLAD_clean_linker_1
_symmetry_space_group_name_H-M    P1
_symmetry_Int_Tables_number       1
_symmetry_cell_setting            triclinic
loop_
_symmetry_equiv_pos_as_xyz
'x, y, z'
_cell_length_a     36.445299
_cell_length_b     36.412705
_cell_length_c     40.251053
_cell_angle_alpha  90.029312
_cell_angle_beta   90.130378
_cell_angle_gamma 89.886266
loop_
_atom_site_label
_atom_site_type_symbol
_atom_site_fract_x
_atom_site_fract_y
_atom_site_fract_z
_atom_type_partial_charge
C0 C 0.38024 0.03302 0.22103 0.0
O1 O 0.368 0.06474 0.21014 0.0
O2 O 0.28736 0.06081 0.22283 0.0
Zn3 Zn 0.30752 0.01338 0.20446 0.0
O4 O 0.31031 0.01581 0.15439 0.0
C5 C 0.23993 0.97996 0.22297 0.0
O6 O 0.22828 0.01353 0.2175 0.0
O7 O 0.3587 0.00563 0.22182 0.0
C8 C 0.28346 0.00838 0.1354 0.0
O9 O 0.25202 -0.00189 0.14823 0.0
C10 C 0.27761 0.0877 0.20476 0.0
O11 O 0.28259 0.08626 0.17248 0.0
O12 O 0.27371 0.97232 0.21884 0.0
C13 C 0.97653 0.37484 0.70275 0.0
O14 O 0.9451 0.35773 0.69921 0.0
O15 O 0.96417 0.28043 0.71985 0.0
Zn16 Zn 0.00467 0.30266 0.69279 0.0
O17 O 0.99518 0.29438 0.64414 0.0
C18 C 0.0592 0.24666 0.69749 0.0
O19 O 0.03578 0.2293 0.67824 0.0
O20 O 0.00632 0.35674 0.70126 0.0
C21 C 0.01556 0.30891 0.62232 0.0
O22 O 0.04356 0.32917 0.63164 0.0
C23 C 0.94485 0.25455 0.70809 0.0
O24 O 0.95128 0.24242 0.67791 0.0
O25 O 0.05222 0.27927 0.70665 0.0
C26 C 0.65771 0.98589 0.23641 0.0
O27 O 0.68212 0.96736 0.25362 0.0
O28 O 0.74368 0.95535 0.20161 0.0
Zn29 Zn 0.71867 0.00357 0.19229 0.0
O30 O 0.71501 0.00954 0.14272 0.0
C31 C 0.76662 0.03782 0.23926 0.0
O32 O 0.76417 0.00548 0.25344 0.0
O33 O 0.66752 0.00333 0.21057 0.0
C34 C 0.73739 0.02799 0.12533 0.0
O35 O 0.76442 0.04569 0.13983 0.0
C36 C 0.77368 0.94837 0.18684 0.0
O37 O 0.78694 0.97216 0.16558 0.0
O38 O 0.74872 0.04417 0.21272 0.0
C39 C 0.04411 0.65076 0.70596 0.0
O40 O 0.07609 0.66578 0.69988 0.0
O41 O 0.05876 0.74777 0.72439 0.0
Zn42 Zn 0.02104 0.72392 0.6951 0.0
O43 O 0.03618 0.72705 0.64726 0.0
C44 C 0.97224 0.78364 0.68996 0.0
O45 O 0.00079 0.79698 0.67426 0.0
O46 O 0.01551 0.67074 0.70639 0.0
C47 C 0.01414 0.71527 0.6253 0.0
O48 O 0.98218 0.70205 0.6344 0.0
C49 C 0.09109 0.75446 0.71449 0.0
O50 O 0.10115 0.74444 0.6845 0.0
O51 O 0.97361 0.75113 0.70135 0.0
C52 C 0.36616 0.02191 0.77812 0.0
O53 O 0.34433 0.01034 0.75437 0.0
O54 O 0.28572 0.97186 0.80006 0.0
Zn55 Zn 0.29979 0.022 0.81646 0.0
O56 O 0.29253 0.0244 0.86599 0.0
C57 C 0.25395 0.0526 0.76519 0.0
O58 O 0.26013 0.02069 0.75111 0.0
O59 O 0.35297 0.0296 0.80649 0.0
C60 C 0.26425 0.03851 0.87936 0.0
O61 O 0.23843 0.05279 0.86058 0.0
C62 C 0.2579 0.95533 0.8115 0.0
O63 O 0.23856 0.97063 0.83529 0.0
O64 O 0.26857 0.05988 0.79315 0.0
C65 C 0.03035 0.37538 0.28535 0.0
O66 O 0.06189 0.35975 0.29244 0.0
O67 O 0.04777 0.28107 0.26828 0.0
Zn68 Zn 0.00611 0.30246 0.29481 0.0
O69 O 0.01673 0.29786 0.34371 0.0
C70 C 0.95595 0.24258 0.29111 0.0
O71 O 0.98224 0.22629 0.308 0.0
O72 O 0.00144 0.35597 0.28429 0.0
C73 C 0.99219 0.30373 0.36538 0.0
O74 O 0.95875 0.31234 0.35586 0.0
C75 C 0.0712 0.26 0.28181 0.0
O76 O 0.0682 0.25196 0.3135 0.0
O77 O 0.95961 0.27598 0.28279 0.0
C78 C 0.64743 0.03436 0.80993 0.0
O79 O 0.66548 0.06035 0.82552 0.0
O80 O 0.74317 0.04548 0.78562 0.0
Zn81 Zn 0.71855 0.00325 0.80876 0.0
O82 O 0.72725 0.00726 0.85794 0.0
C83 C 0.76972 0.95524 0.77644 0.0
O84 O 0.78633 0.98656 0.77063 0.0
O85 O 0.6645 0.00598 0.79994 0.0
C86 C 0.75915 0.00307 0.8702 0.0
O87 O 0.78679 0.99526 0.85057 0.0
C88 C 0.75265 0.07469 0.80052 0.0
O89 O 0.74532 0.07881 0.83225 0.0
O90 O 0.7396 0.95519 0.79226 0.0
C91 C 0.98585 0.65524 0.26464 0.0
O92 O 0.96706 0.67665 0.24463 0.0
O93 O 0.96044 0.74832 0.28023 0.0
Zn94 Zn 0.00417 0.72272 0.29978 0.0
O95 O 0.00123 0.728 0.3493 0.0
C96 C 0.05842 0.77811 0.29284 0.0
O97 O 0.03643 0.79493 0.31376 0.0
O98 O 0.00356 0.66906 0.28882 0.0
C99 C 0.02464 0.71306 0.36836 0.0
O100 O 0.05198 0.69425 0.35557 0.0
C101 C 0.92856 0.74132 0.29126 0.0
O102 O 0.92455 0.71649 0.3146 0.0
O103 O 0.05045 0.74601 0.28293 0.0
H104 H 0.31406 0.02208 0.08989 0.0
C105 C 0.28772 0.01273 0.09925 0.0
H106 H 0.23403 0.99571 0.08657 0.0
H107 H 0.28845 0.09069 0.95426 0.0
H108 H 0.28299 0.14402 0.98999 0.0
H109 H 0.26824 0.13711 0.04945 0.0
H110 H 0.25947 0.07677 0.07361 0.0
C111 C 0.26022 0.0061 0.07784 0.0
C112 C 0.26556 0.01067 0.04148 0.0
C113 C 0.26924 0.04624 0.02754 0.0
C114 C 0.27621 0.05029 0.99299 0.0
C115 C 0.28172 0.08603 0.98006 0.0
C116 C 0.2789 0.1169 0.00035 0.0
C117 C 0.27072 0.11301 0.03385 0.0
C118 C 0.26594 0.07818 0.04742 0.0
H119 H 0.23408 0.04842 0.92601 0.0
C120 C 0.25935 0.03742 0.91568 0.0
H121 H 0.30946 0.01037 0.92585 0.0
H122 H 0.25923 0.93875 0.06034 0.0
H123 H 0.26264 0.88541 0.02432 0.0
H124 H 0.27267 0.89245 0.96407 0.0
H125 H 0.27955 0.95281 0.93948 0.0
C126 C 0.28465 0.02257 0.93598 0.0
C127 C 0.27802 0.0188 0.97226 0.0
C128 C 0.27376 0.98329 0.98616 0.0
C129 C 0.26753 0.97923 0.02082 0.0
C130 C 0.26373 0.94343 0.03412 0.0
C131 C 0.26565 0.91256 0.01373 0.0
C132 C 0.27133 0.91652 0.97982 0.0
C133 C 0.27532 0.95137 0.96604 0.0
H134 H 0.9827 0.28737 0.58064 0.0
C135 C 0.00659 0.30383 0.58693 0.0
H136 H 0.0493 0.33717 0.56845 0.0
H137 H 0.99245 0.24041 0.43686 0.0
H138 H 0.01782 0.18743 0.46532 0.0
H139 H 0.04314 0.19311 0.52199 0.0
H140 H 0.04265 0.25167 0.55071 0.0
C141 C 0.02616 0.31953 0.56257 0.0
C142 C 0.01436 0.3165 0.52728 0.0
C143 C 0.01614 0.28232 0.51042 0.0
C144 C 0.00305 0.2794 0.4772 0.0
C145 C 0.00336 0.24453 0.46158 0.0
C146 C 0.01762 0.21382 0.47773 0.0
C147 C 0.03175 0.21698 0.50967 0.0
C148 C 0.0311 0.25074 0.52595 0.0
H149 H 0.03071 0.29702 0.40722 0.0
C150 C 0.00221 0.30249 0.40083 0.0
H151 H 0.94952 0.3156 0.41909 0.0
H152 H 0.0071 0.38603 0.5525 0.0
H153 H 0.98381 0.4395 0.52336 0.0
H154 H 0.96332 0.43499 0.46504 0.0
H155 H 0.96576 0.37696 0.4356 0.0
C156 C 0.97783 0.30887 0.42511 0.0
C157 C 0.98969 0.31103 0.46046 0.0
C158 C 0.98828 0.34526 0.47723 0.0
C159 C 0.00058 0.34798 0.51069 0.0
C160 C -0.00151 0.38244 0.52696 0.0
C161 C 0.98513 0.41338 0.51054 0.0
C162 C 0.97356 0.41083 0.47773 0.0
C163 C 0.97507 0.37729 0.46114 0.0
H164 H 0.79298 0.0024 0.91573 0.0
C165 C 0.76556 0.00758 0.9061 0.0
H166 H 0.71161 0.0248 0.91746 0.0
H167 H 0.77546 0.97043 0.06433 0.0
H168 H 0.77611 0.90919 0.04069 0.0
H169 H 0.76153 0.89929 0.98148 0.0
H170 H 0.74695 0.95062 0.94548 0.0
C171 C 0.73876 0.01809 0.92691 0.0
C172 C 0.74588 0.0235 0.96294 0.0
C173 C 0.75302 0.99294 0.98383 0.0
C174 C 0.75964 -0.00155 0.01829 0.0
C175 C 0.76863 0.96769 0.03828 0.0
C176 C 0.76938 0.93239 0.02498 0.0
C177 C 0.76131 0.92683 0.99163 0.0
C178 C 0.75319 0.95662 0.97118 0.0
H179 H 0.71105 0.01167 0.07839 0.0
C180 C 0.73434 0.02629 0.08892 0.0
H181 H 0.78348 0.05482 0.07842 0.0
H182 H 0.73445 0.08801 0.92951 0.0
H183 H 0.73257 0.14914 0.95349 0.0
H184 H 0.74178 0.15841 0.01366 0.0
H185 H 0.75314 0.1066 0.05021 0.0
C186 C 0.76021 0.03966 0.06859 0.0
C187 C 0.7573 0.03428 0.03205 0.0
C188 C 0.75072 0.06484 0.01109 0.0
C189 C 0.74501 0.05945 0.97648 0.0
C190 C 0.7386 0.09048 0.95605 0.0
C191 C 0.73751 0.12574 0.96947 0.0
C192 C 0.74272 0.13096 0.00335 0.0
C193 C 0.74922 0.10098 0.02404 0.0
H194 H -0.00434 0.73057 0.41357 0.0
C195 C 0.01971 0.71596 0.40453 0.0
H196 H 0.06663 0.68507 0.4178 0.0
H197 H 0.00857 0.77521 0.55392 0.0
H198 H 0.026 0.83067 0.52479 0.0
H199 H 0.04969 0.82785 0.46747 0.0
H200 H 0.05524 0.76955 0.43874 0.0
C201 C 0.0431 0.70077 0.42638 0.0
C202 C 0.03528 0.70203 0.46264 0.0
C203 C 0.03416 0.73614 0.47969 0.0
C204 C 0.02246 0.73753 0.51334 0.0
C205 C 0.01896 0.77226 0.52892 0.0
C206 C 0.0286 0.80441 0.51239 0.0
C207 C 0.04179 0.80284 0.48008 0.0
C208 C 0.04458 0.7692 0.46379 0.0
H209 H 0.05244 0.72537 0.58396 0.0
C210 C 0.02498 0.71599 0.59011 0.0
H211 H 0.97496 0.69501 0.57164 0.0
H212 H 0.03588 0.632 0.43763 0.0
H213 H 0.02205 0.5761 0.46775 0.0
H214 H 0.00514 0.57815 0.52704 0.0
H215 H 0.00152 0.63616 0.55643 0.0
C216 C 0.0021 0.70544 0.56575 0.0
C217 C 0.01403 0.70455 0.53045 0.0
C218 C 0.01663 0.67032 0.51379 0.0
C219 C 0.02708 0.66907 0.47979 0.0
C220 C 0.02856 0.63456 0.46355 0.0
C221 C 0.02066 0.60222 0.48054 0.0
C222 C 0.01109 0.60338 0.5139 0.0
C223 C 0.00904 0.63691 0.53045 0.0
H224 H 0.43688 0.05301 0.22545 0.0
C225 C 0.41949 0.02909 0.22893 0.0
H226 H 0.41805 0.9724 0.23999 0.0
H227 H 0.57917 0.95299 0.18268 0.0
H228 H 0.54297 0.91703 0.14389 0.0
H229 H 0.47547 0.91544 0.14801 0.0
H230 H 0.44378 0.94961 0.19098 0.0
C231 C 0.4348 -0.0031 0.23759 0.0
C232 C 0.47543 0.99317 0.23868 0.0
C233 C 0.49344 0.97255 0.21367 0.0
C234 C 0.53228 0.9738 0.21104 0.0
C235 C 0.54966 0.95335 0.18556 0.0
C236 C 0.52923 0.93251 0.16318 0.0
C237 C 0.49123 0.93158 0.16553 0.0
C238 C 0.47339 0.95136 0.19036 0.0
H239 H 0.61073 0.968 0.26715 0.0
C240 C 0.61862 0.98427 0.2457 0.0
H241 H 0.60027 0.01602 0.20502 0.0
H242 H 0.44977 0.02986 0.29316 0.0
H243 H 0.48602 0.06525 0.3325 0.0
H244 H 0.55324 0.06966 0.32655 0.0
H245 H 0.58468 0.0384 0.28155 0.0
C246 C 0.59273 0.0009 0.22725 0.0
C247 C 0.55297 0.99558 0.23343 0.0
C248 C 0.53516 0.01436 0.25972 0.0
C249 C 0.49631 0.01274 0.26258 0.0
C250 C 0.47912 0.03112 0.28936 0.0
C251 C 0.49961 0.05132 0.31218 0.0
C252 C 0.53748 0.05373 0.30887 0.0
C253 C 0.55519 0.03559 0.28296 0.0
H254 H 0.95076 0.42936 0.70809 0.0
C255 C 0.97689 0.41495 0.70705 0.0
H256 H 0.03465 0.42025 0.70613 0.0
H257 H 0.02163 0.58222 0.64868 0.0
H258 H 0.03643 0.54879 0.59836 0.0
H259 H 0.03873 0.48105 0.59816 0.0
H260 H 0.02594 0.4464 0.64826 0.0
C261 C 0.0083 0.43403 0.70842 0.0
C262 C 0.0079 0.47473 0.70917 0.0
C263 C 0.01638 0.49449 0.67988 0.0
C264 C 0.01573 0.53348 0.68016 0.0
C265 C 0.0228 0.55258 0.65018 0.0
C266 C 0.03108 0.53372 0.62102 0.0
C267 C 0.03232 0.4956 0.62089 0.0
C268 C 0.02498 0.47606 0.64986 0.0
H269 H 0.06671 0.5947 0.70726 0.0
C270 C 0.04151 0.61062 0.70888 0.0
H271 H 0.98365 0.60849 0.71303 0.0
H272 H 0.99106 0.44492 0.76971 0.0
H273 H 0.97546 0.47838 0.81992 0.0
H274 H 0.97425 0.54614 0.82037 0.0
H275 H 0.98872 0.58085 0.77061 0.0
C276 C 0.00918 0.59321 0.71093 0.0
C277 C 0.00752 0.55253 0.71 0.0
C278 C -0.00159 0.53276 0.73912 0.0
C279 C -0.0012 0.49374 0.73877 0.0
C280 C 0.99059 0.47459 0.76844 0.0
C281 C 0.98174 0.49346 0.79747 0.0
C282 C 0.98109 0.53161 0.79774 0.0
C283 C 0.98942 0.55119 0.76901 0.0
H284 H 0.59416 0.06205 0.81596 0.0
C285 C 0.60755 0.038 0.80545 0.0
H286 H 0.60007 0.98766 0.78017 0.0
H287 H 0.43683 0.97358 0.83302 0.0
H288 H 0.46726 0.92463 0.86327 0.0
H289 H 0.5344 0.91668 0.86014 0.0
H290 H 0.57148 0.95752 0.82659 0.0
C291 C 0.58736 0.01244 0.78991 0.0
C292 C 0.54673 0.01546 0.78923 0.0
C293 C 0.52554 0.99121 0.80886 0.0
C294 C 0.48694 -0.00392 0.81098 0.0
C295 C 0.46634 0.97145 0.83079 0.0
C296 C 0.48344 0.94316 0.84825 0.0
C297 C 0.52123 0.93866 0.84646 0.0
C298 C 0.54218 0.96232 0.82708 0.0
H299 H 0.41653 0.01381 0.74863 0.0
C300 C 0.40608 0.02244 0.77268 0.0
H301 H 0.41947 0.03797 0.82179 0.0
H302 H 0.57886 0.06331 0.74571 0.0
H303 H 0.54857 0.11266 0.7157 0.0
H304 H 0.482 0.12314 0.72161 0.0
H305 H 0.44525 0.08408 0.75718 0.0
C306 C 0.4296 0.0308 0.79724 0.0
C307 C 0.46969 0.02514 0.79344 0.0
C308 C 0.49076 0.04882 0.77309 0.0
C309 C 0.52931 0.04359 0.77059 0.0
C310 C 0.54965 0.06681 0.74931 0.0
C311 C 0.53258 0.0951 0.7318 0.0
C312 C 0.49508 0.10093 0.73505 0.0
C313 C 0.47428 0.07819 0.75545 0.0
H314 H 0.05425 0.43073 0.28225 0.0
C315 C 0.02876 0.41538 0.28052 0.0
H316 H 0.97111 0.41869 0.27523 0.0
H317 H 0.96822 0.58069 0.33319 0.0
H318 H 0.94016 0.5465 0.3781 0.0
H319 H 0.93748 0.47883 0.37653 0.0
H320 H 0.96264 0.44497 0.32993 0.0
C321 C -0.00297 0.43339 0.2757 0.0
C322 C -0.00375 0.47415 0.27514 0.0
C323 C 0.9812 0.49346 0.30248 0.0
C324 C 0.9832 0.5324 0.3036 0.0
C325 C 0.96791 0.55106 0.33123 0.0
C326 C 0.95162 0.53178 0.35716 0.0
C327 C 0.95008 0.49369 0.35626 0.0
C328 C 0.96463 0.4746 0.32933 0.0
H329 H 0.96789 0.60398 0.24017 0.0
C330 C 0.98496 0.61515 0.2599 0.0
H331 H 0.02007 0.60326 0.30033 0.0
H332 H 0.02336 0.44563 0.21723 0.0
H333 H 0.05281 0.47957 0.17281 0.0
H334 H 0.05968 0.54686 0.17622 0.0
H335 H 0.03668 0.58064 0.22374 0.0
C336 C 0.00388 0.59239 0.27987 0.0
C337 C 0.00027 0.55189 0.27737 0.0
C338 C 0.01481 0.5326 0.24973 0.0
C339 C 0.01217 0.49368 0.24835 0.0
C340 C 0.02571 0.47509 0.22 0.0
C341 C 0.0425 0.49424 0.19425 0.0
C342 C 0.04626 0.53214 0.19613 0.0
C343 C 0.03271 0.55123 0.2235 0.0
H344 H 0.10172 0.25062 0.23525 0.0
C345 C 0.10062 0.24379 0.26153 0.0
H346 H 0.12492 0.21374 0.30074 0.0
H347 H 0.18204 0.11757 0.17138 0.0
H348 H 0.11796 0.10321 0.16204 0.0
H349 H 0.06949 0.13328 0.19501 0.0
H350 H 0.08477 0.17801 0.23726 0.0
C351 C 0.12502 0.22003 0.27435 0.0
C352 C 0.15381 0.20264 0.2535 0.0
C353 C 0.14421 0.17627 0.229 0.0
C354 C 0.17218 0.15835 0.21048 0.0
C355 C 0.16195 0.13199 0.18626 0.0
C356 C 0.12525 0.12341 0.18065 0.0
C357 C 0.09796 0.14038 0.19917 0.0
C358 C 0.10716 0.16632 0.22321 0.0
H359 H 0.25144 0.11635 0.24657 0.0
C360 C 0.25599 0.11743 0.21988 0.0
H361 H 0.24119 0.14323 0.17478 0.0
H362 H 0.18132 0.25311 0.29739 0.0
H363 H 0.24557 0.26753 0.30648 0.0
H364 H 0.294 0.23618 0.27438 0.0
H365 H 0.27843 0.19014 0.233 0.0
C366 C 0.23841 0.14283 0.20165 0.0
C367 C 0.20959 0.16598 0.21723 0.0
C368 C 0.21911 0.19312 0.24094 0.0
C369 C 0.19118 0.21136 0.25922 0.0
C370 C 0.20145 0.23825 0.28291 0.0
C371 C 0.23822 0.24687 0.2883 0.0
C372 C 0.26549 0.2292 0.27025 0.0
C373 C 0.25621 0.20268 0.24674 0.0
H374 H 0.91284 0.24776 0.75411 0.0
C375 C 0.91659 0.23748 0.72897 0.0
H376 H 0.89911 0.19904 0.69292 0.0
H377 H 0.84726 0.11571 0.8308 0.0
H378 H 0.91223 0.10949 0.84262 0.0
H379 H 0.95831 0.13977 0.80723 0.0
H380 H 0.9397 0.17659 0.76002 0.0
C381 C 0.89647 0.20903 0.71825 0.0
C382 C 0.869 0.19119 0.74005 0.0
C383 C 0.88055 0.16956 0.76749 0.0
C384 C 0.85406 0.15154 0.78752 0.0
C385 C 0.86622 0.12994 0.81469 0.0
C386 C 0.90345 0.12609 0.82175 0.0
C387 C 0.92938 0.14318 0.80186 0.0
C388 C 0.91826 0.16451 0.77493 0.0
H389 H 0.78036 0.09684 0.75643 0.0
C390 C 0.7745 0.10203 0.7825 0.0
H391 H 0.78523 0.13611 0.82393 0.0
H392 H 0.83783 0.23177 0.69012 0.0
H393 H 0.77272 0.23825 0.67864 0.0
H394 H 0.7268 0.20707 0.71359 0.0
H395 H 0.74574 0.16913 0.7602 0.0
C396 C 0.78941 0.1313 0.79756 0.0
C397 C 0.81628 0.1544 0.7795 0.0
C398 C 0.8047 0.17685 0.7527 0.0
C399 C 0.83114 0.19509 0.7328 0.0
C400 C 0.81889 0.21718 0.706 0.0
C401 C 0.7816 0.22122 0.69919 0.0
C402 C 0.75575 0.20363 0.71884 0.0
C403 C 0.76699 0.18176 0.74537 0.0
H404 H 0.87023 0.75767 0.29187 0.0
C405 C 0.89655 0.76276 0.2801 0.0
H406 H 0.92544 0.79462 0.24492 0.0
H407 H 0.78082 0.84561 0.16982 0.0
H408 H 0.79964 0.79619 0.13302 0.0
H409 H 0.84993 0.75417 0.14884 0.0
H410 H 0.88159 0.76121 0.20164 0.0
C411 C 0.89955 0.78957 0.25743 0.0
C412 C 0.86792 0.8135 0.24885 0.0
C413 C 0.85 0.80916 0.21785 0.0
C414 C 0.82138 0.83366 0.20854 0.0
C415 C 0.80334 0.82828 0.17773 0.0
C416 C 0.81372 0.79989 0.15649 0.0
C417 C 0.84201 0.77621 0.16542 0.0
C418 C 0.85999 0.7806 0.19574 0.0
H419 H 0.82172 0.91208 0.18285 0.0
C420 C 0.79543 0.91559 0.19518 0.0
H421 H 0.75973 0.89548 0.23223 0.0
H422 H 0.8968 0.82954 0.3102 0.0
H423 H 0.87723 0.8782 0.34723 0.0
H424 H 0.82704 0.92025 0.3313 0.0
H425 H 0.79625 0.91391 0.27818 0.0
C426 C 0.78523 0.89162 0.21871 0.0
C427 C 0.81124 0.86277 0.23006 0.0
C428 C 0.82812 0.86618 0.26166 0.0
C429 C 0.85677 0.84171 0.27098 0.0
C430 C 0.87436 0.84681 0.30207 0.0
C431 C 0.86352 0.8748 0.32354 0.0
C432 C 0.8353 0.89848 0.31456 0.0
C433 C 0.81782 0.89448 0.28398 0.0
H434 H 0.10479 0.78609 0.7594 0.0
C435 C 0.11531 0.77686 0.73554 0.0
H436 H 0.15838 0.78115 0.70072 0.0
H437 H 0.19153 0.94251 0.75283 0.0
H438 H 0.16549 0.95485 0.6986 0.0
H439 H 0.14042 0.90465 0.66426 0.0
H440 H 0.14111 0.84184 0.68412 0.0
C441 C 0.14811 0.78878 0.7251 0.0
C442 C 0.16775 0.8177 0.74404 0.0
C443 C 0.16817 0.85408 0.73155 0.0
C444 C 0.18315 0.88289 0.7511 0.0
C445 C 0.18152 0.91931 0.73872 0.0
C446 C 0.16638 0.92687 0.70767 0.0
C447 C 0.15223 0.89863 0.68836 0.0
C448 C 0.15287 0.86265 0.70008 0.0
H449 H 0.26069 0.91161 0.77376 0.0
C450 C 0.24523 0.92163 0.795 0.0
H451 H 0.19797 0.91437 0.8247 0.0
H452 H 0.17454 0.75038 0.7736 0.0
H453 H 0.2014 0.73775 0.82771 0.0
H454 H 0.22721 0.78782 0.8618 0.0
H455 H 0.2264 0.85083 0.84197 0.0
C456 C 0.2137 0.90517 0.80336 0.0
C457 C 0.19851 0.87501 0.78274 0.0
C458 C 0.19889 0.83852 0.79487 0.0
C459 C 0.18367 0.80974 0.77539 0.0
C460 C 0.18506 0.77336 0.78773 0.0
C461 C 0.20058 0.76572 0.81864 0.0
C462 C 0.21514 0.79391 0.83782 0.0
C463 C 0.21446 0.82994 0.82618 0.0
H464 H 0.77387 0.89466 0.77375 0.0
C465 C 0.78694 0.92026 0.76657 0.0
H466 H 0.83188 0.94493 0.74219 0.0
H467 H 0.9181 0.79346 0.77758 0.0
H468 H 0.9146 0.81393 0.83481 0.0
H469 H 0.87633 0.86718 0.85027 0.0
H470 H 0.84128 0.90018 0.80865 0.0
C471 C 0.81899 0.91957 0.75022 0.0
C472 C 0.83803 0.88469 0.74198 0.0
C473 C 0.858 0.86549 0.7668 0.0
C474 C 0.88032 0.83499 0.75784 0.0
C475 C 0.90065 0.81676 0.78296 0.0
C476 C 0.89893 0.82824 0.81594 0.0
C477 C 0.87737 0.8582 0.82464 0.0
C478 C 0.85724 0.87683 0.80047 0.0
H479 H 0.94198 0.83581 0.68741 0.0
C480 C 0.94051 0.80765 0.6963 0.0
H481 H 0.90996 0.76929 0.72422 0.0
H482 H 0.80041 0.91341 0.68916 0.0
H483 H 0.80213 0.89146 0.63217 0.0
H484 H 0.83997 0.8378 0.61686 0.0
H485 H 0.87652 0.80593 0.6584 0.0
C486 C 0.91133 0.79692 0.71412 0.0
C487 C 0.88299 0.82422 0.72408 0.0
C488 C 0.86107 0.84186 0.69969 0.0
C489 C 0.83885 0.87239 0.70861 0.0
C490 C 0.81783 0.89008 0.68367 0.0
C491 C 0.81847 0.8777 0.65091 0.0
C492 C 0.8398 0.84751 0.64228 0.0
C493 C 0.86085 0.82964 0.6663 0.0
H494 H 0.18472 0.96054 0.23549 0.0
C495 C 0.21321 0.95196 0.23317 0.0
H496 H 0.25067 0.90791 0.23871 0.0
H497 H 0.14088 0.83044 0.34035 0.0
H498 H 0.19181 0.84605 0.37663 0.0
H499 H 0.24406 0.88228 0.3558 0.0
H500 H 0.24581 0.90295 0.2985 0.0
C501 C 0.22227 0.91697 0.23972 0.0
C502 C 0.19353 0.89078 0.25088 0.0
C503 C 0.19315 0.87863 0.28429 0.0
C504 C 0.16285 0.85809 0.29638 0.0
C505 C 0.16304 0.84646 0.32996 0.0
C506 C 0.19213 0.85516 0.35103 0.0
C507 C 0.22156 0.87553 0.3393 0.0
C508 C 0.22221 0.88725 0.30636 0.0
H509 H 0.10851 0.78177 0.26223 0.0
C510 C 0.09142 0.79648 0.27991 0.0
H511 H 0.08397 0.84559 0.30704 0.0
H512 H 0.18911 0.90405 0.18409 0.0
H513 H 0.13798 0.88923 0.14777 0.0
H514 H 0.08338 0.85737 0.16949 0.0
H515 H 0.07985 0.83959 0.22735 0.0
C516 C 0.10017 0.83096 0.28865 0.0
C517 C 0.13304 0.84974 0.275 0.0
C518 C 0.13403 0.86079 0.2412 0.0
C519 C 0.16474 0.88061 0.22898 0.0
C520 C 0.1658 0.89014 0.19489 0.0
C521 C 0.13676 0.88161 0.17373 0.0
C522 C 0.10609 0.86356 0.18594 0.0
C523 C 0.10454 0.85329 0.21924 0.0
H524 H 0.10945 0.24266 0.72796 0.0
C525 C 0.09197 0.22788 0.7106 0.0
H526 H 0.08302 0.1777 0.68535 0.0
H527 H 0.25083 0.13172 0.70682 0.0
H528 H 0.25465 0.15483 0.65041 0.0
H529 H 0.20198 0.18653 0.6245 0.0
H530 H 0.14527 0.19562 0.65501 0.0
C531 C 0.09973 0.19284 0.70303 0.0
C532 C 0.13129 0.17359 0.71866 0.0
C533 C 0.16388 0.16786 0.70028 0.0
C534 C 0.19392 0.14884 0.71496 0.0
C535 C 0.22672 0.14484 0.6965 0.0
C536 C 0.22939 0.15825 0.66418 0.0
C537 C 0.19976 0.17616 0.64962 0.0
C538 C 0.16736 0.18112 0.66737 0.0
H539 H 0.21409 0.06934 0.72693 0.0
C540 C 0.22817 0.07838 0.74933 0.0
H541 H 0.23353 0.12052 0.78506 0.0
H542 H 0.07233 0.17952 0.7605 0.0
H543 H 0.06844 0.15655 0.81688 0.0
H544 H 0.12041 0.12331 0.84233 0.0
H545 H 0.17651 0.11281 0.81156 0.0
C546 C 0.2205 0.11156 0.76215 0.0
C547 C 0.19082 0.1347 0.74768 0.0
C548 C 0.15846 0.14117 0.76632 0.0
C549 C 0.12857 0.16048 0.75172 0.0
C550 C 0.09612 0.16555 0.77051 0.0
C551 C 0.09343 0.15236 0.80288 0.0
C552 C 0.12268 0.13363 0.8172 0.0
C553 C 0.1548 0.12787 0.79924 0.0
H554 H 0.90301 0.2363 0.26499 0.0
C555 C 0.92326 0.22211 0.28019 0.0
H556 H 0.93794 0.17201 0.30326 0.0
H557 H 0.77305 0.11465 0.29985 0.0
H558 H 0.77672 0.13451 0.35729 0.0
H559 H 0.8306 0.1687 0.37778 0.0
H560 H 0.88096 0.18356 0.34081 0.0
C561 C 0.91849 0.18647 0.28747 0.0
C562 C 0.88613 0.16589 0.27494 0.0
C563 C 0.85736 0.15673 0.29701 0.0
C564 C 0.82674 0.13622 0.2854 0.0
C565 C 0.7976 0.12892 0.30764 0.0
C566 C 0.7992 0.14047 0.34062 0.0
C567 C 0.8295 0.15977 0.35214 0.0
C568 C 0.85825 0.16804 0.33068 0.0
H569 H 0.81001 0.05651 0.27334 0.0
C570 C 0.79237 0.06506 0.25293 0.0
H571 H 0.77896 0.10757 0.21938 0.0
H572 H 0.93701 0.17848 0.22621 0.0
H573 H 0.93327 0.15893 0.16876 0.0
H574 H 0.88035 0.12309 0.1486 0.0
H575 H 0.83091 0.10656 0.18577 0.0
C576 C 0.79578 0.09903 0.24033 0.0
C577 C 0.82557 0.12391 0.25194 0.0
C578 C 0.85393 0.13392 0.22964 0.0
C579 C 0.88435 0.15478 0.2412 0.0
C580 C 0.91292 0.16329 0.21867 0.0
C581 C 0.91123 0.15207 0.18563 0.0
C582 C 0.88145 0.13188 0.17429 0.0
C583 C 0.85317 0.12266 0.19593 0.0
loop_
_geom_bond_atom_site_label_1
_geom_bond_atom_site_label_2
_geom_bond_distance
_geom_bond_site_symmetry_2
_ccdc_geom_bond_type
C0 O1 1.160 . S
C0 O7 1.185 . S
O1 C0 1.160 . S
O2 Zn3 1.899 . S
O2 C10 1.284 . S
Zn3 O2 1.899 . S
Zn3 O4 2.032 . S
Zn3 O7 2.086 . S
Zn3 O12 1.977 1_545 S
O4 Zn3 2.032 . S
O4 C8 1.278 . S
C5 O6 1.203 . S
C5 O12 1.267 . S
O6 C5 1.203 . S
O7 C0 1.185 . S
O7 Zn3 2.086 . S
C8 O4 1.278 . S
C8 O9 1.211 1_545 S
O9 C8 1.211 1_565 S
C10 O2 1.284 . S
C10 O11 1.273 . S
O11 C10 1.273 . S
O12 Zn3 1.977 1_565 S
O12 C5 1.267 . S
C13 O14 1.160 1_455 S
C13 O20 1.185 . S
O14 C13 1.160 1_655 S
O15 Zn16 1.899 1_655 S
O15 C23 1.284 . S
Zn16 O15 1.899 1_455 S
Zn16 O17 2.032 . S
Zn16 O20 2.086 . S
Zn16 O25 1.977 . S
O17 Zn16 2.032 . S
O17 C21 1.278 . S
C18 O19 1.203 . S
C18 O25 1.267 . S
O19 C18 1.203 . S
O20 C13 1.185 . S
O20 Zn16 2.086 . S
C21 O17 1.278 . S
C21 O22 1.211 . S
O22 C21 1.211 . S
C23 O15 1.284 . S
C23 O24 1.273 . S
O24 C23 1.273 . S
O25 Zn16 1.977 . S
O25 C18 1.267 . S
C26 O27 1.160 1_545 S
C26 O33 1.185 . S
O27 C26 1.160 1_565 S
O28 Zn29 1.899 1_565 S
O28 C36 1.284 . S
Zn29 O28 1.899 1_545 S
Zn29 O30 2.032 . S
Zn29 O33 2.086 . S
Zn29 O38 1.977 . S
O30 Zn29 2.032 . S
O30 C34 1.278 . S
C31 O32 1.203 . S
C31 O38 1.267 . S
O32 C31 1.203 . S
O33 C26 1.185 . S
O33 Zn29 2.086 . S
C34 O30 1.278 . S
C34 O35 1.211 . S
O35 C34 1.211 . S
C36 O28 1.284 . S
C36 O37 1.273 . S
O37 C36 1.273 . S
O38 Zn29 1.977 . S
O38 C31 1.267 . S
C39 O40 1.160 . S
C39 O46 1.185 . S
O40 C39 1.160 . S
O41 Zn42 1.899 . S
O41 C49 1.284 . S
Zn42 O41 1.899 . S
Zn42 O43 2.032 . S
Zn42 O46 2.086 . S
Zn42 O51 1.977 1_455 S
O43 Zn42 2.032 . S
O43 C47 1.278 . S
C44 O45 1.203 . S
C44 O51 1.267 . S
O45 C44 1.203 . S
O46 C39 1.185 . S
O46 Zn42 2.086 . S
C47 O43 1.278 . S
C47 O48 1.211 1_455 S
O48 C47 1.211 1_655 S
C49 O41 1.284 . S
C49 O50 1.273 . S
O50 C49 1.273 . S
O51 Zn42 1.977 1_655 S
O51 C44 1.267 . S
C52 O53 1.160 1_545 S
C52 O59 1.185 . S
O53 C52 1.160 1_565 S
O54 Zn55 1.899 1_565 S
O54 C62 1.284 . S
Zn55 O54 1.899 1_545 S
Zn55 O56 2.032 . S
Zn55 O59 2.086 . S
Zn55 O64 1.977 . S
O56 Zn55 2.032 . S
O56 C60 1.278 . S
C57 O58 1.203 . S
C57 O64 1.267 . S
O58 C57 1.203 . S
O59 C52 1.185 . S
O59 Zn55 2.086 . S
C60 O56 1.278 . S
C60 O61 1.211 . S
O61 C60 1.211 . S
C62 O54 1.284 . S
C62 O63 1.273 . S
O63 C62 1.273 . S
O64 Zn55 1.977 . S
O64 C57 1.267 . S
C65 O66 1.160 . S
C65 O72 1.185 . S
O66 C65 1.160 . S
O67 Zn68 1.899 . S
O67 C75 1.284 . S
Zn68 O67 1.899 . S
Zn68 O69 2.032 . S
Zn68 O72 2.086 . S
Zn68 O77 1.977 1_455 S
O69 Zn68 2.032 . S
O69 C73 1.278 . S
C70 O71 1.203 . S
C70 O77 1.267 . S
O71 C70 1.203 . S
O72 C65 1.185 . S
O72 Zn68 2.086 . S
C73 O69 1.278 . S
C73 O74 1.211 1_455 S
O74 C73 1.211 1_655 S
C75 O67 1.284 . S
C75 O76 1.273 . S
O76 C75 1.273 . S
O77 Zn68 1.977 1_655 S
O77 C70 1.267 . S
C78 O79 1.160 . S
C78 O85 1.185 . S
O79 C78 1.160 . S
O80 Zn81 1.899 . S
O80 C88 1.284 . S
Zn81 O80 1.899 . S
Zn81 O82 2.032 . S
Zn81 O85 2.086 . S
Zn81 O90 1.977 1_545 S
O82 Zn81 2.032 . S
O82 C86 1.278 . S
C83 O84 1.203 . S
C83 O90 1.267 . S
O84 C83 1.203 . S
O85 C78 1.185 . S
O85 Zn81 2.086 . S
C86 O82 1.278 . S
C86 O87 1.211 1_545 S
O87 C86 1.211 1_565 S
C88 O80 1.284 . S
C88 O89 1.273 . S
O89 C88 1.273 . S
O90 Zn81 1.977 1_565 S
O90 C83 1.267 . S
C91 O92 1.160 1_455 S
C91 O98 1.185 . S
O92 C91 1.160 1_655 S
O93 Zn94 1.899 1_655 S
O93 C101 1.284 . S
Zn94 O93 1.899 1_455 S
Zn94 O95 2.032 . S
Zn94 O98 2.086 . S
Zn94 O103 1.977 . S
O95 Zn94 2.032 . S
O95 C99 1.278 . S
C96 O97 1.203 . S
C96 O103 1.267 . S
O97 C96 1.203 . S
O98 C91 1.185 . S
O98 Zn94 2.086 . S
C99 O95 1.278 . S
C99 O100 1.211 . S
O100 C99 1.211 . S
C101 O93 1.284 . S
C101 O102 1.273 . S
O102 C101 1.273 . S
O103 Zn94 1.977 . S
O103 C96 1.267 . S
H104 C105 0.951 . S
C105 H104 0.951 . S
C105 C111 1.265 . S
H106 C111 0.950 . S
H107 C115 0.949 . S
H108 C116 0.950 . S
H109 C117 0.951 . S
H110 C118 0.951 . S
C111 C105 1.265 . S
C111 H106 0.950 . S
C111 C112 1.478 . S
C112 C111 1.478 . S
C112 C113 1.397 . S
C112 C129 1.394 1_545 S
C113 C112 1.397 . S
C113 C114 1.438 1_554 S
C113 C118 1.429 . S
C114 C113 1.438 1_556 S
C114 C115 1.428 . S
C114 C127 1.394 . S
C115 H107 0.949 . S
C115 C114 1.428 . S
C115 C116 1.345 . S
C116 H108 0.950 . S
C116 C115 1.345 . S
C116 C117 1.424 1_556 S
C117 H109 0.951 . S
C117 C116 1.424 1_554 S
C117 C118 1.347 . S
C118 H110 0.951 . S
C118 C113 1.429 . S
C118 C117 1.347 . S
H119 C120 0.951 . S
C120 H119 0.951 . S
C120 C126 1.265 . S
H121 C126 0.950 . S
H122 C130 0.949 . S
H123 C131 0.950 . S
H124 C132 0.951 . S
H125 C133 0.951 . S
C126 C120 1.265 . S
C126 H121 0.950 . S
C126 C127 1.478 . S
C127 C114 1.394 . S
C127 C126 1.478 . S
C127 C128 1.397 1_545 S
C128 C127 1.397 1_565 S
C128 C129 1.438 1_556 S
C128 C133 1.429 . S
C129 C112 1.394 1_565 S
C129 C128 1.438 1_554 S
C129 C130 1.428 . S
C130 H122 0.949 . S
C130 C129 1.428 . S
C130 C131 1.345 . S
C131 H123 0.950 . S
C131 C130 1.345 . S
C131 C132 1.424 1_554 S
C132 H124 0.951 . S
C132 C131 1.424 1_556 S
C132 C133 1.347 . S
C133 H125 0.951 . S
C133 C128 1.429 . S
C133 C132 1.347 . S
H134 C135 0.951 1_655 S
C135 H134 0.951 1_455 S
C135 C141 1.265 . S
H136 C141 0.950 . S
H137 C145 0.949 . S
H138 C146 0.950 . S
H139 C147 0.951 . S
H140 C148 0.951 . S
C141 C135 1.265 . S
C141 H136 0.950 . S
C141 C142 1.478 . S
C142 C141 1.478 . S
C142 C143 1.397 . S
C142 C159 1.394 . S
C143 C142 1.397 . S
C143 C144 1.438 . S
C143 C148 1.429 . S
C144 C143 1.438 . S
C144 C145 1.428 . S
C144 C157 1.394 . S
C145 H137 0.949 . S
C145 C144 1.428 . S
C145 C146 1.345 . S
C146 H138 0.950 . S
C146 C145 1.345 . S
C146 C147 1.424 . S
C147 H139 0.951 . S
C147 C146 1.424 . S
C147 C148 1.347 . S
C148 H140 0.951 . S
C148 C143 1.429 . S
C148 C147 1.347 . S
H149 C150 0.951 . S
C150 H149 0.951 . S
C150 C156 1.249 1_455 S
H151 C156 0.972 . S
H152 C160 0.949 1_455 S
H153 C161 0.950 . S
H154 C162 0.951 . S
H155 C163 0.951 . S
C156 C150 1.249 1_655 S
C156 H151 0.972 . S
C156 C157 1.473 1_655 S
C157 C144 1.394 . S
C157 C156 1.473 1_455 S
C157 C158 1.391 1_455 S
C158 C157 1.391 1_655 S
C158 C159 1.434 1_655 S
C158 C163 1.439 . S
C159 C142 1.394 . S
C159 C158 1.434 1_455 S
C159 C160 1.428 1_455 S
C160 H152 0.949 1_655 S
C160 C159 1.428 1_655 S
C160 C161 1.345 . S
C161 H153 0.950 . S
C161 C160 1.345 . S
C161 C162 1.424 . S
C162 H154 0.951 . S
C162 C161 1.424 . S
C162 C163 1.347 . S
C163 H155 0.951 . S
C163 C158 1.439 . S
C163 C162 1.347 . S
H164 C165 0.951 . S
C165 H164 0.951 . S
C165 C171 1.265 . S
H166 C171 0.950 . S
H167 C175 0.949 . S
H168 C176 0.950 . S
H169 C177 0.951 . S
H170 C178 0.951 . S
C171 C165 1.265 . S
C171 H166 0.950 . S
C171 C172 1.478 . S
C172 C171 1.478 . S
C172 C173 1.397 1_545 S
C172 C189 1.394 . S
C173 C172 1.397 1_565 S
C173 C174 1.438 1_556 S
C173 C178 1.429 . S
C174 C173 1.438 1_554 S
C174 C175 1.428 . S
C174 C187 1.394 1_565 S
C175 H167 0.949 . S
C175 C174 1.428 . S
C175 C176 1.345 . S
C176 H168 0.950 . S
C176 C175 1.345 . S
C176 C177 1.424 1_554 S
C177 H169 0.951 . S
C177 C176 1.424 1_556 S
C177 C178 1.347 . S
C178 H170 0.951 . S
C178 C173 1.429 . S
C178 C177 1.347 . S
H179 C180 0.951 . S
C180 H179 0.951 . S
C180 C186 1.265 . S
H181 C186 0.950 . S
H182 C190 0.949 . S
H183 C191 0.950 . S
H184 C192 0.951 . S
H185 C193 0.951 . S
C186 C180 1.265 . S
C186 H181 0.950 . S
C186 C187 1.478 . S
C187 C174 1.394 1_545 S
C187 C186 1.478 . S
C187 C188 1.397 . S
C188 C187 1.397 . S
C188 C189 1.438 1_554 S
C188 C193 1.429 . S
C189 C172 1.394 . S
C189 C188 1.438 1_556 S
C189 C190 1.428 . S
C190 H182 0.949 . S
C190 C189 1.428 . S
C190 C191 1.345 . S
C191 H183 0.950 . S
C191 C190 1.345 . S
C191 C192 1.424 1_556 S
C192 H184 0.951 . S
C192 C191 1.424 1_554 S
C192 C193 1.347 . S
C193 H185 0.951 . S
C193 C188 1.429 . S
C193 C192 1.347 . S
H194 C195 0.951 1_655 S
C195 H194 0.951 1_455 S
C195 C201 1.265 . S
H196 C201 0.950 . S
H197 C205 0.949 . S
H198 C206 0.950 . S
H199 C207 0.951 . S
H200 C208 0.951 . S
C201 C195 1.265 . S
C201 H196 0.950 . S
C201 C202 1.478 . S
C202 C201 1.478 . S
C202 C203 1.397 . S
C202 C219 1.394 . S
C203 C202 1.397 . S
C203 C204 1.438 . S
C203 C208 1.429 . S
C204 C203 1.438 . S
C204 C205 1.428 . S
C204 C217 1.394 . S
C205 H197 0.949 . S
C205 C204 1.428 . S
C205 C206 1.345 . S
C206 H198 0.950 . S
C206 C205 1.345 . S
C206 C207 1.424 . S
C207 H199 0.951 . S
C207 C206 1.424 . S
C207 C208 1.347 . S
C208 H200 0.951 . S
C208 C203 1.429 . S
C208 C207 1.347 . S
H209 C210 0.951 . S
C210 H209 0.951 . S
C210 C216 1.250 1_455 S
H211 C216 0.971 . S
H212 C220 0.949 1_455 S
H213 C221 0.950 . S
H214 C222 0.951 . S
H215 C223 0.951 . S
C216 C210 1.250 1_655 S
C216 H211 0.971 . S
C216 C217 1.474 1_655 S
C217 C204 1.394 . S
C217 C216 1.474 1_455 S
C217 C218 1.391 1_455 S
C218 C217 1.391 1_655 S
C218 C219 1.434 1_655 S
C218 C223 1.439 . S
C219 C202 1.394 . S
C219 C218 1.434 1_455 S
C219 C220 1.428 1_455 S
C220 H212 0.949 1_655 S
C220 C219 1.428 1_655 S
C220 C221 1.345 . S
C221 H213 0.950 . S
C221 C220 1.345 . S
C221 C222 1.424 . S
C222 H214 0.951 . S
C222 C221 1.424 . S
C222 C223 1.347 . S
C223 H215 0.951 . S
C223 C218 1.439 . S
C223 C222 1.347 . S
H224 C225 0.951 . S
C225 H224 0.951 . S
C225 C231 1.265 . S
H226 C231 0.950 1_565 S
H227 C235 0.949 . S
H228 C236 0.950 . S
H229 C237 0.951 . S
H230 C238 0.951 . S
C231 C225 1.265 . S
C231 H226 0.950 1_545 S
C231 C232 1.478 . S
C232 C231 1.478 . S
C232 C233 1.397 1_545 S
C232 C249 1.394 . S
C233 C232 1.397 1_565 S
C233 C234 1.438 1_565 S
C233 C238 1.429 . S
C234 C233 1.438 1_545 S
C234 C235 1.428 1_545 S
C234 C247 1.394 . S
C235 H227 0.949 . S
C235 C234 1.428 1_565 S
C235 C236 1.345 . S
C236 H228 0.950 . S
C236 C235 1.345 . S
C236 C237 1.424 . S
C237 H229 0.951 . S
C237 C236 1.424 . S
C237 C238 1.347 . S
C238 H230 0.951 . S
C238 C233 1.429 . S
C238 C237 1.347 . S
H239 C240 0.951 1_565 S
C240 H239 0.951 1_545 S
C240 C246 1.265 . S
H241 C246 0.950 . S
H242 C250 0.949 . S
H243 C251 0.950 . S
H244 C252 0.951 . S
H245 C253 0.951 . S
C246 C240 1.265 . S
C246 H241 0.950 . S
C246 C247 1.478 . S
C247 C234 1.394 . S
C247 C246 1.478 . S
C247 C248 1.397 . S
C248 C247 1.397 . S
C248 C249 1.438 . S
C248 C253 1.429 . S
C249 C232 1.394 . S
C249 C248 1.438 . S
C249 C250 1.428 . S
C250 H242 0.949 . S
C250 C249 1.428 . S
C250 C251 1.345 . S
C251 H243 0.950 . S
C251 C250 1.345 . S
C251 C252 1.424 . S
C252 H244 0.951 . S
C252 C251 1.424 . S
C252 C253 1.347 . S
C253 H245 0.951 . S
C253 C248 1.429 . S
C253 C252 1.347 . S
H254 C255 0.951 1_655 S
C255 H254 0.951 1_455 S
C255 C261 1.265 . S
H256 C261 0.950 . S
H257 C265 0.949 . S
H258 C266 0.950 . S
H259 C267 0.951 . S
H260 C268 0.951 . S
C261 C255 1.265 . S
C261 H256 0.950 . S
C261 C262 1.478 . S
C262 C261 1.478 . S
C262 C263 1.397 . S
C262 C279 1.394 . S
C263 C262 1.397 . S
C263 C264 1.438 . S
C263 C268 1.429 . S
C264 C263 1.438 . S
C264 C265 1.428 . S
C264 C277 1.394 . S
C265 H257 0.949 . S
C265 C264 1.428 . S
C265 C266 1.345 . S
C266 H258 0.950 . S
C266 C265 1.345 . S
C266 C267 1.424 . S
C267 H259 0.951 . S
C267 C266 1.424 . S
C267 C268 1.347 . S
C268 H260 0.951 . S
C268 C263 1.429 . S
C268 C267 1.347 . S
H269 C270 0.951 . S
C270 H269 0.951 . S
C270 C276 1.265 . S
H271 C276 0.950 1_655 S
H272 C280 0.951 . S
H273 C281 0.950 . S
H274 C282 0.951 . S
H275 C283 0.951 . S
C276 C270 1.265 . S
C276 H271 0.950 1_455 S
C276 C277 1.478 . S
C277 C264 1.394 . S
C277 C276 1.478 . S
C277 C278 1.397 1_455 S
C278 C277 1.397 1_655 S
C278 C279 1.438 1_655 S
C278 C283 1.428 . S
C279 C262 1.394 . S
C279 C278 1.438 1_455 S
C279 C280 1.428 1_455 S
C280 H272 0.951 . S
C280 C279 1.428 1_655 S
C280 C281 1.345 . S
C281 H273 0.950 . S
C281 C280 1.345 . S
C281 C282 1.424 . S
C282 H274 0.951 . S
C282 C281 1.424 . S
C282 C283 1.347 . S
C283 H275 0.951 . S
C283 C278 1.428 . S
C283 C282 1.347 . S
H284 C285 0.951 . S
C285 H284 0.951 . S
C285 C291 1.265 . S
H286 C291 0.950 1_565 S
H287 C295 0.949 . S
H288 C296 0.950 . S
H289 C297 0.951 . S
H290 C298 0.951 . S
C291 C285 1.265 . S
C291 H286 0.950 1_545 S
C291 C292 1.478 . S
C292 C291 1.478 . S
C292 C293 1.397 1_545 S
C292 C309 1.394 . S
C293 C292 1.397 1_565 S
C293 C294 1.438 . S
C293 C298 1.429 . S
C294 C293 1.438 . S
C294 C295 1.428 . S
C294 C307 1.394 1_565 S
C295 H287 0.949 . S
C295 C294 1.428 . S
C295 C296 1.345 . S
C296 H288 0.950 . S
C296 C295 1.345 . S
C296 C297 1.424 . S
C297 H289 0.951 . S
C297 C296 1.424 . S
C297 C298 1.347 . S
C298 H290 0.951 . S
C298 C293 1.429 . S
C298 C297 1.347 . S
H299 C300 0.951 1_565 S
C300 H299 0.951 1_545 S
C300 C306 1.265 . S
H301 C306 0.950 . S
H302 C310 0.949 . S
H303 C311 0.950 . S
H304 C312 0.951 . S
H305 C313 0.951 . S
C306 C300 1.265 . S
C306 H301 0.950 . S
C306 C307 1.478 . S
C307 C294 1.394 1_545 S
C307 C306 1.478 . S
C307 C308 1.397 . S
C308 C307 1.397 . S
C308 C309 1.438 . S
C308 C313 1.429 . S
C309 C292 1.394 . S
C309 C308 1.438 . S
C309 C310 1.428 . S
C310 H302 0.949 . S
C310 C309 1.428 . S
C310 C311 1.345 . S
C311 H303 0.950 . S
C311 C310 1.345 . S
C311 C312 1.424 . S
C312 H304 0.951 . S
C312 C311 1.424 . S
C312 C313 1.347 . S
C313 H305 0.951 . S
C313 C308 1.429 . S
C313 C312 1.347 . S
H314 C315 0.951 . S
C315 H314 0.951 . S
C315 C321 1.265 . S
H316 C321 0.950 1_655 S
H317 C325 0.949 . S
H318 C326 0.950 . S
H319 C327 0.951 . S
H320 C328 0.951 . S
C321 C315 1.265 . S
C321 H316 0.950 1_455 S
C321 C322 1.478 . S
C322 C321 1.478 . S
C322 C323 1.397 . S
C322 C339 1.394 . S
C323 C322 1.397 . S
C323 C324 1.438 . S
C323 C328 1.429 1_455 S
C324 C323 1.438 . S
C324 C325 1.428 . S
C324 C337 1.394 . S
C325 H317 0.949 . S
C325 C324 1.428 . S
C325 C326 1.345 1_455 S
C326 H318 0.950 . S
C326 C325 1.345 1_655 S
C326 C327 1.424 . S
C327 H319 0.951 . S
C327 C326 1.424 . S
C327 C328 1.347 . S
C328 H320 0.951 . S
C328 C323 1.429 1_655 S
C328 C327 1.347 . S
H329 C330 0.951 1_655 S
C330 H329 0.951 1_455 S
C330 C336 1.265 . S
H331 C336 0.950 . S
H332 C340 0.949 . S
H333 C341 0.950 . S
H334 C342 0.951 . S
H335 C343 0.951 . S
C336 C330 1.265 . S
C336 H331 0.950 . S
C336 C337 1.478 . S
C337 C324 1.394 . S
C337 C336 1.478 . S
C337 C338 1.397 . S
C338 C337 1.397 . S
C338 C339 1.438 . S
C338 C343 1.429 . S
C339 C322 1.394 . S
C339 C338 1.438 . S
C339 C340 1.428 . S
C340 H332 0.949 . S
C340 C339 1.428 . S
C340 C341 1.345 . S
C341 H333 0.950 . S
C341 C340 1.345 . S
C341 C342 1.424 . S
C342 H334 0.951 . S
C342 C341 1.424 . S
C342 C343 1.347 . S
C343 H335 0.951 . S
C343 C338 1.429 . S
C343 C342 1.347 . S
H344 C345 0.951 . S
C345 H344 0.951 . S
C345 C351 1.265 . S
H346 C351 0.950 . S
H347 C355 0.949 . S
H348 C356 0.950 . S
H349 C357 0.951 . S
H350 C358 0.951 . S
C351 C345 1.265 . S
C351 H346 0.950 . S
C351 C352 1.478 . S
C352 C351 1.478 . S
C352 C353 1.397 . S
C352 C369 1.394 . S
C353 C352 1.397 . S
C353 C354 1.438 . S
C353 C358 1.429 . S
C354 C353 1.438 . S
C354 C355 1.428 . S
C354 C367 1.394 . S
C355 H347 0.949 . S
C355 C354 1.428 . S
C355 C356 1.345 . S
C356 H348 0.950 . S
C356 C355 1.345 . S
C356 C357 1.424 . S
C357 H349 0.951 . S
C357 C356 1.424 . S
C357 C358 1.347 . S
C358 H350 0.951 . S
C358 C353 1.429 . S
C358 C357 1.347 . S
H359 C360 0.951 . S
C360 H359 0.951 . S
C360 C366 1.265 . S
H361 C366 0.950 . S
H362 C370 0.949 . S
H363 C371 0.950 . S
H364 C372 0.951 . S
H365 C373 0.951 . S
C366 C360 1.265 . S
C366 H361 0.950 . S
C366 C367 1.478 . S
C367 C354 1.394 . S
C367 C366 1.478 . S
C367 C368 1.397 . S
C368 C367 1.397 . S
C368 C369 1.438 . S
C368 C373 1.429 . S
C369 C352 1.394 . S
C369 C368 1.438 . S
C369 C370 1.428 . S
C370 H362 0.949 . S
C370 C369 1.428 . S
C370 C371 1.345 . S
C371 H363 0.950 . S
C371 C370 1.345 . S
C371 C372 1.424 . S
C372 H364 0.951 . S
C372 C371 1.424 . S
C372 C373 1.347 . S
C373 H365 0.951 . S
C373 C368 1.429 . S
C373 C372 1.347 . S
H374 C375 0.951 . S
C375 H374 0.951 . S
C375 C381 1.265 . S
H376 C381 0.950 . S
H377 C385 0.949 . S
H378 C386 0.950 . S
H379 C387 0.951 . S
H380 C388 0.951 . S
C381 C375 1.265 . S
C381 H376 0.950 . S
C381 C382 1.478 . S
C382 C381 1.478 . S
C382 C383 1.397 . S
C382 C399 1.394 . S
C383 C382 1.397 . S
C383 C384 1.438 . S
C383 C388 1.429 . S
C384 C383 1.438 . S
C384 C385 1.428 . S
C384 C397 1.394 . S
C385 H377 0.949 . S
C385 C384 1.428 . S
C385 C386 1.345 . S
C386 H378 0.950 . S
C386 C385 1.345 . S
C386 C387 1.424 . S
C387 H379 0.951 . S
C387 C386 1.424 . S
C387 C388 1.347 . S
C388 H380 0.951 . S
C388 C383 1.429 . S
C388 C387 1.347 . S
H389 C390 0.951 . S
C390 H389 0.951 . S
C390 C396 1.265 . S
H391 C396 0.950 . S
H392 C400 0.949 . S
H393 C401 0.950 . S
H394 C402 0.951 . S
H395 C403 0.951 . S
C396 C390 1.265 . S
C396 H391 0.950 . S
C396 C397 1.478 . S
C397 C384 1.394 . S
C397 C396 1.478 . S
C397 C398 1.397 . S
C398 C397 1.397 . S
C398 C399 1.438 . S
C398 C403 1.429 . S
C399 C382 1.394 . S
C399 C398 1.438 . S
C399 C400 1.428 . S
C400 H392 0.949 . S
C400 C399 1.428 . S
C400 C401 1.345 . S
C401 H393 0.950 . S
C401 C400 1.345 . S
C401 C402 1.424 . S
C402 H394 0.951 . S
C402 C401 1.424 . S
C402 C403 1.347 . S
C403 H395 0.951 . S
C403 C398 1.429 . S
C403 C402 1.347 . S
H404 C405 0.951 . S
C405 H404 0.951 . S
C405 C411 1.265 . S
H406 C411 0.950 . S
H407 C415 0.949 . S
H408 C416 0.950 . S
H409 C417 0.951 . S
H410 C418 0.951 . S
C411 C405 1.265 . S
C411 H406 0.950 . S
C411 C412 1.478 . S
C412 C411 1.478 . S
C412 C413 1.397 . S
C412 C429 1.394 . S
C413 C412 1.397 . S
C413 C414 1.438 . S
C413 C418 1.429 . S
C414 C413 1.438 . S
C414 C415 1.428 . S
C414 C427 1.394 . S
C415 H407 0.949 . S
C415 C414 1.428 . S
C415 C416 1.345 . S
C416 H408 0.950 . S
C416 C415 1.345 . S
C416 C417 1.424 . S
C417 H409 0.951 . S
C417 C416 1.424 . S
C417 C418 1.347 . S
C418 H410 0.951 . S
C418 C413 1.429 . S
C418 C417 1.347 . S
H419 C420 0.951 . S
C420 H419 0.951 . S
C420 C426 1.265 . S
H421 C426 0.950 . S
H422 C430 0.949 . S
H423 C431 0.950 . S
H424 C432 0.951 . S
H425 C433 0.951 . S
C426 C420 1.265 . S
C426 H421 0.950 . S
C426 C427 1.478 . S
C427 C414 1.394 . S
C427 C426 1.478 . S
C427 C428 1.397 . S
C428 C427 1.397 . S
C428 C429 1.438 . S
C428 C433 1.429 . S
C429 C412 1.394 . S
C429 C428 1.438 . S
C429 C430 1.428 . S
C430 H422 0.949 . S
C430 C429 1.428 . S
C430 C431 1.345 . S
C431 H423 0.950 . S
C431 C430 1.345 . S
C431 C432 1.424 . S
C432 H424 0.951 . S
C432 C431 1.424 . S
C432 C433 1.347 . S
C433 H425 0.951 . S
C433 C428 1.429 . S
C433 C432 1.347 . S
H434 C435 0.951 . S
C435 H434 0.951 . S
C435 C441 1.265 . S
H436 C441 0.950 . S
H437 C445 0.949 . S
H438 C446 0.950 . S
H439 C447 0.951 . S
H440 C448 0.951 . S
C441 C435 1.265 . S
C441 H436 0.950 . S
C441 C442 1.478 . S
C442 C441 1.478 . S
C442 C443 1.397 . S
C442 C459 1.394 . S
C443 C442 1.397 . S
C443 C444 1.438 . S
C443 C448 1.429 . S
C444 C443 1.438 . S
C444 C445 1.428 . S
C444 C457 1.394 . S
C445 H437 0.949 . S
C445 C444 1.428 . S
C445 C446 1.345 . S
C446 H438 0.950 . S
C446 C445 1.345 . S
C446 C447 1.424 . S
C447 H439 0.951 . S
C447 C446 1.424 . S
C447 C448 1.347 . S
C448 H440 0.951 . S
C448 C443 1.429 . S
C448 C447 1.347 . S
H449 C450 0.951 . S
C450 H449 0.951 . S
C450 C456 1.265 . S
H451 C456 0.950 . S
H452 C460 0.949 . S
H453 C461 0.950 . S
H454 C462 0.951 . S
H455 C463 0.951 . S
C456 C450 1.265 . S
C456 H451 0.950 . S
C456 C457 1.478 . S
C457 C444 1.394 . S
C457 C456 1.478 . S
C457 C458 1.397 . S
C458 C457 1.397 . S
C458 C459 1.438 . S
C458 C463 1.429 . S
C459 C442 1.394 . S
C459 C458 1.438 . S
C459 C460 1.428 . S
C460 H452 0.949 . S
C460 C459 1.428 . S
C460 C461 1.345 . S
C461 H453 0.950 . S
C461 C460 1.345 . S
C461 C462 1.424 . S
C462 H454 0.951 . S
C462 C461 1.424 . S
C462 C463 1.347 . S
C463 H455 0.951 . S
C463 C458 1.429 . S
C463 C462 1.347 . S
H464 C465 0.951 . S
C465 H464 0.951 . S
C465 C471 1.265 . S
H466 C471 0.950 . S
H467 C475 0.949 . S
H468 C476 0.950 . S
H469 C477 0.951 . S
H470 C478 0.951 . S
C471 C465 1.265 . S
C471 H466 0.950 . S
C471 C472 1.478 . S
C472 C471 1.478 . S
C472 C473 1.397 . S
C472 C489 1.394 . S
C473 C472 1.397 . S
C473 C474 1.438 . S
C473 C478 1.429 . S
C474 C473 1.438 . S
C474 C475 1.428 . S
C474 C487 1.394 . S
C475 H467 0.949 . S
C475 C474 1.428 . S
C475 C476 1.345 . S
C476 H468 0.950 . S
C476 C475 1.345 . S
C476 C477 1.424 . S
C477 H469 0.951 . S
C477 C476 1.424 . S
C477 C478 1.347 . S
C478 H470 0.951 . S
C478 C473 1.429 . S
C478 C477 1.347 . S
H479 C480 0.951 . S
C480 H479 0.951 . S
C480 C486 1.265 . S
H481 C486 0.950 . S
H482 C490 0.949 . S
H483 C491 0.950 . S
H484 C492 0.951 . S
H485 C493 0.951 . S
C486 C480 1.265 . S
C486 H481 0.950 . S
C486 C487 1.478 . S
C487 C474 1.394 . S
C487 C486 1.478 . S
C487 C488 1.397 . S
C488 C487 1.397 . S
C488 C489 1.438 . S
C488 C493 1.429 . S
C489 C472 1.394 . S
C489 C488 1.438 . S
C489 C490 1.428 . S
C490 H482 0.949 . S
C490 C489 1.428 . S
C490 C491 1.345 . S
C491 H483 0.950 . S
C491 C490 1.345 . S
C491 C492 1.424 . S
C492 H484 0.951 . S
C492 C491 1.424 . S
C492 C493 1.347 . S
C493 H485 0.951 . S
C493 C488 1.429 . S
C493 C492 1.347 . S
H494 C495 0.951 . S
C495 H494 0.951 . S
C495 C501 1.265 . S
H496 C501 0.950 . S
H497 C505 0.949 . S
H498 C506 0.950 . S
H499 C507 0.951 . S
H500 C508 0.951 . S
C501 C495 1.265 . S
C501 H496 0.950 . S
C501 C502 1.478 . S
C502 C501 1.478 . S
C502 C503 1.397 . S
C502 C519 1.394 . S
C503 C502 1.397 . S
C503 C504 1.438 . S
C503 C508 1.429 . S
C504 C503 1.438 . S
C504 C505 1.428 . S
C504 C517 1.394 . S
C505 H497 0.949 . S
C505 C504 1.428 . S
C505 C506 1.345 . S
C506 H498 0.950 . S
C506 C505 1.345 . S
C506 C507 1.424 . S
C507 H499 0.951 . S
C507 C506 1.424 . S
C507 C508 1.347 . S
C508 H500 0.951 . S
C508 C503 1.429 . S
C508 C507 1.347 . S
H509 C510 0.951 . S
C510 H509 0.951 . S
C510 C516 1.265 . S
H511 C516 0.950 . S
H512 C520 0.949 . S
H513 C521 0.950 . S
H514 C522 0.951 . S
H515 C523 0.951 . S
C516 C510 1.265 . S
C516 H511 0.950 . S
C516 C517 1.478 . S
C517 C504 1.394 . S
C517 C516 1.478 . S
C517 C518 1.397 . S
C518 C517 1.397 . S
C518 C519 1.438 . S
C518 C523 1.429 . S
C519 C502 1.394 . S
C519 C518 1.438 . S
C519 C520 1.428 . S
C520 H512 0.949 . S
C520 C519 1.428 . S
C520 C521 1.345 . S
C521 H513 0.950 . S
C521 C520 1.345 . S
C521 C522 1.424 . S
C522 H514 0.951 . S
C522 C521 1.424 . S
C522 C523 1.347 . S
C523 H515 0.951 . S
C523 C518 1.429 . S
C523 C522 1.347 . S
H524 C525 0.951 . S
C525 H524 0.951 . S
C525 C531 1.265 . S
H526 C531 0.950 . S
H527 C535 0.949 . S
H528 C536 0.950 . S
H529 C537 0.951 . S
H530 C538 0.951 . S
C531 C525 1.265 . S
C531 H526 0.950 . S
C531 C532 1.478 . S
C532 C531 1.478 . S
C532 C533 1.397 . S
C532 C549 1.394 . S
C533 C532 1.397 . S
C533 C534 1.438 . S
C533 C538 1.429 . S
C534 C533 1.438 . S
C534 C535 1.428 . S
C534 C547 1.394 . S
C535 H527 0.949 . S
C535 C534 1.428 . S
C535 C536 1.345 . S
C536 H528 0.950 . S
C536 C535 1.345 . S
C536 C537 1.424 . S
C537 H529 0.951 . S
C537 C536 1.424 . S
C537 C538 1.347 . S
C538 H530 0.951 . S
C538 C533 1.429 . S
C538 C537 1.347 . S
H539 C540 0.951 . S
C540 H539 0.951 . S
C540 C546 1.265 . S
H541 C546 0.950 . S
H542 C550 0.949 . S
H543 C551 0.950 . S
H544 C552 0.951 . S
H545 C553 0.951 . S
C546 C540 1.265 . S
C546 H541 0.950 . S
C546 C547 1.478 . S
C547 C534 1.394 . S
C547 C546 1.478 . S
C547 C548 1.397 . S
C548 C547 1.397 . S
C548 C549 1.438 . S
C548 C553 1.429 . S
C549 C532 1.394 . S
C549 C548 1.438 . S
C549 C550 1.428 . S
C550 H542 0.949 . S
C550 C549 1.428 . S
C550 C551 1.345 . S
C551 H543 0.950 . S
C551 C550 1.345 . S
C551 C552 1.424 . S
C552 H544 0.951 . S
C552 C551 1.424 . S
C552 C553 1.347 . S
C553 H545 0.951 . S
C553 C548 1.429 . S
C553 C552 1.347 . S
H554 C555 0.951 . S
C555 H554 0.951 . S
C555 C561 1.265 . S
H556 C561 0.950 . S
H557 C565 0.949 . S
H558 C566 0.950 . S
H559 C567 0.951 . S
H560 C568 0.951 . S
C561 C555 1.265 . S
C561 H556 0.950 . S
C561 C562 1.478 . S
C562 C561 1.478 . S
C562 C563 1.397 . S
C562 C579 1.394 . S
C563 C562 1.397 . S
C563 C564 1.438 . S
C563 C568 1.429 . S
C564 C563 1.438 . S
C564 C565 1.428 . S
C564 C577 1.394 . S
C565 H557 0.949 . S
C565 C564 1.428 . S
C565 C566 1.345 . S
C566 H558 0.950 . S
C566 C565 1.345 . S
C566 C567 1.424 . S
C567 H559 0.951 . S
C567 C566 1.424 . S
C567 C568 1.347 . S
C568 H560 0.951 . S
C568 C563 1.429 . S
C568 C567 1.347 . S
H569 C570 0.951 . S
C570 H569 0.951 . S
C570 C576 1.265 . S
H571 C576 0.950 . S
H572 C580 0.949 . S
H573 C581 0.950 . S
H574 C582 0.951 . S
H575 C583 0.951 . S
C576 C570 1.265 . S
C576 H571 0.950 . S
C576 C577 1.478 . S
C577 C564 1.394 . S
C577 C576 1.478 . S
C577 C578 1.397 . S
C578 C577 1.397 . S
C578 C579 1.438 . S
C578 C583 1.429 . S
C579 C562 1.394 . S
C579 C578 1.438 . S
C579 C580 1.428 . S
C580 H572 0.949 . S
C580 C579 1.428 . S
C580 C581 1.345 . S
C581 H573 0.950 . S
C581 C580 1.345 . S
C581 C582 1.424 . S
C582 H574 0.951 . S
C582 C581 1.424 . S
C582 C583 1.347 . S
C583 H575 0.951 . S
C583 C578 1.429 . S
C583 C582 1.347 . S
C105 C8 1.536 . S
C120 C60 1.496 . S
C135 C21 1.543 . S
C150 C73 1.542 . S
C165 C86 1.500 . S
C180 C34 1.540 . S
C195 C99 1.543 . S
C210 C47 1.542 . S
C225 C0 1.056 . S
C240 C26 1.056 . S
C255 C13 1.057 . S
C270 C39 1.056 . S
C285 C78 1.057 . S
C300 C52 1.058 . S
C315 C65 1.057 . S
C330 C91 1.056 . S
C345 C75 1.292 . S
C360 C10 1.246 . S
C375 C23 1.294 . S
C390 C88 1.248 . S
C405 C101 1.273 . S
C420 C36 1.232 . S
C435 C49 1.305 . S
C450 C62 1.316 . S
C465 C83 1.250 . S
C480 C44 1.140 . S
C495 C5 1.135 . S
C510 C96 1.246 . S
C525 C18 1.248 . S
C540 C57 1.149 . S
C555 C70 1.248 . S
C570 C31 1.136 . S
