# Generated by pormake.
# Topology snk, (6)-cn, num edge types: 1
# Building blocks:
#     Node 0, Type 0, BuildingBlock: MIDCAF_clean_sbu_0, # of connection points: 6
#     Node 1, Type 0, BuildingBlock: MIDCAF_clean_sbu_0, # of connection points: 6
#     Node 2, Type 0, BuildingBlock: MIDCAF_clean_sbu_0, # of connection points: 6
#     Node 3, Type 0, BuildingBlock: MIDCAF_clean_sbu_0, # of connection points: 6
#     Node 4, Type 0, BuildingBlock: MIDCAF_clean_sbu_0, # of connection points: 6
#     Node 5, Type 0, BuildingBlock: MIDCAF_clean_sbu_0, # of connection points: 6
#     Node 6, Type 0, BuildingBlock: MIDCAF_clean_sbu_0, # of connection points: 6
#     Node 7, Type 0, BuildingBlock: MIDCAF_clean_sbu_0, # of connection points: 6
#     Edge 8, Type (0, 0), BuildingBlock: OJICUG_clean_linker_0, # of connection points: 2
#     Edge 9, Type (0, 0), BuildingBlock: OJICUG_clean_linker_0, # of connection points: 2
#     Edge 10, Type (0, 0), BuildingBlock: OJICUG_clean_linker_0, # of connection points: 2
#     Edge 11, Type (0, 0), BuildingBlock: OJICUG_clean_linker_0, # of connection points: 2
#     Edge 12, Type (0, 0), BuildingBlock: OJICUG_clean_linker_0, # of connection points: 2
#     Edge 13, Type (0, 0), BuildingBlock: OJICUG_clean_linker_0, # of connection points: 2
#     Edge 14, Type (0, 0), BuildingBlock: OJICUG_clean_linker_0, # of connection points: 2
#     Edge 15, Type (0, 0), BuildingBlock: OJICUG_clean_linker_0, # of connection points: 2
#     Edge 16, Type (0, 0), BuildingBlock: OJICUG_clean_linker_0, # of connection points: 2
#     Edge 17, Type (0, 0), BuildingBlock: OJICUG_clean_linker_0, # of connection points: 2
#     Edge 18, Type (0, 0), BuildingBlock: OJICUG_clean_linker_0, # of connection points: 2
#     Edge 19, Type (0, 0), BuildingBlock: OJICUG_clean_linker_0, # of connection points: 2
#     Edge 20, Type (0, 0), BuildingBlock: OJICUG_clean_linker_0, # of connection points: 2
#     Edge 21, Type (0, 0), BuildingBlock: OJICUG_clean_linker_0, # of connection points: 2
#     Edge 22, Type (0, 0), BuildingBlock: OJICUG_clean_linker_0, # of connection points: 2
#     Edge 23, Type (0, 0), BuildingBlock: OJICUG_clean_linker_0, # of connection points: 2
#     Edge 24, Type (0, 0), BuildingBlock: OJICUG_clean_linker_0, # of connection points: 2
#     Edge 25, Type (0, 0), BuildingBlock: OJICUG_clean_linker_0, # of connection points: 2
#     Edge 26, Type (0, 0), BuildingBlock: OJICUG_clean_linker_0, # of connection points: 2
#     Edge 27, Type (0, 0), BuildingBlock: OJICUG_clean_linker_0, # of connection points: 2
#     Edge 28, Type (0, 0), BuildingBlock: OJICUG_clean_linker_0, # of connection points: 2
#     Edge 29, Type (0, 0), BuildingBlock: OJICUG_clean_linker_0, # of connection points: 2
#     Edge 30, Type (0, 0), BuildingBlock: OJICUG_clean_linker_0, # of connection points: 2
#     Edge 31, Type (0, 0), BuildingBlock: OJICUG_clean_linker_0, # of connection points: 2
# Relax obj value: 0.251
# Max RMSD: 0.236
# Mean RMSD: 0.234
data_MOF--net-snk--node1-MIDCAF_clean_sbu_0--edge1-OJICUG_clean_linker_0
_symmetry_space_group_name_H-M    P1
_symmetry_Int_Tables_number       1
_symmetry_cell_setting            triclinic
loop_
_symmetry_equiv_pos_as_xyz
'x, y, z'
_cell_length_a     30.957096
_cell_length_b     30.916637
_cell_length_c     10.917705
_cell_angle_alpha  89.659115
_cell_angle_beta   89.893601
_cell_angle_gamma 89.788809
loop_
_atom_site_label
_atom_site_type_symbol
_atom_site_fract_x
_atom_site_fract_y
_atom_site_fract_z
_atom_type_partial_charge
Zn0 Zn 0.02642 0.92429 0.32403 0.0
Zn1 Zn 0.01807 0.06786 0.39334 0.0
Zn2 Zn 0.01745 0.99525 0.40623 0.0
C3 C 0.0057 0.03607 0.6362 0.0
C4 C 0.93327 0.04874 0.40989 0.0
O5 O 0.0061 0.00851 0.22305 0.0
O6 O 0.03071 0.94701 0.15028 0.0
C7 C 0.09715 0.93972 0.48389 0.0
O8 O 0.98359 0.00967 0.57067 0.0
O9 O 0.0292 0.06387 0.58261 0.0
O10 O 0.9555 0.07174 0.33719 0.0
O11 O 0.9525 0.01858 0.47087 0.0
O12 O 0.08062 0.91002 0.42015 0.0
O13 O 0.0793 0.97716 0.48719 0.0
O14 O 0.96412 0.9678 0.50946 0.0
O15 O 0.96752 0.90886 0.39574 0.0
C16 C 0.94849 0.93106 0.47715 0.0
O17 O 0.08301 0.02149 0.43284 0.0
O18 O 0.07054 0.06716 0.28263 0.0
C19 C 0.01667 0.98502 0.13337 0.0
C20 C 0.09746 0.0477 0.35066 0.0
Zn21 Zn 0.32463 0.74072 0.63011 0.0
Zn22 Zn 0.12668 0.78747 0.80734 0.0
Zn23 Zn 0.25029 0.74749 0.75368 0.0
C24 C 0.18367 0.77336 -0.012 0.0
C25 C 0.15051 0.70281 0.78348 0.0
O26 O 0.23749 0.74051 0.55906 0.0
O27 O 0.30044 0.74218 0.46373 0.0
C28 C 0.32327 0.81976 0.76744 0.0
O29 O 0.20145 0.76486 0.88476 0.0
O30 O 0.14621 0.79013 -0.01471 0.0
O31 O 0.115 0.72296 0.79689 0.0
O32 O 0.18521 0.72518 0.77708 0.0
O33 O 0.3477 0.79579 0.70383 0.0
O34 O 0.28406 0.80849 0.79025 0.0
O35 O 0.29106 0.6993 0.84336 0.0
O36 O 0.33881 0.68324 0.70106 0.0
C37 C 0.32113 0.67488 0.80263 0.0
O38 O 0.24068 0.81741 0.7498 0.0
O39 O 0.17512 0.80341 0.68088 0.0
C40 C 0.25975 0.74096 0.45997 0.0
C41 C 0.20362 0.8307 0.71127 0.0
Zn42 Zn 0.50115 0.08256 0.86303 0.0
Zn43 Zn 0.51994 0.9359 0.98036 0.0
Zn44 Zn 0.51227 0.01124 0.93273 0.0
C45 C 0.58559 0.95278 0.82464 0.0
C46 C 0.43805 0.9448 0.9037 0.0
O47 O 0.44266 0.02786 0.96773 0.0
O48 O 0.45404 0.09828 0.97315 0.0
C49 C 0.57579 0.0818 -0.00355 0.0
O50 O 0.55853 0.98298 0.79618 0.0
O51 O 0.57809 0.9285 0.91513 0.0
O52 O 0.46835 0.91779 0.8908 0.0
O53 O 0.44624 0.98358 0.93934 0.0
O54 O 0.56149 0.09914 0.89973 0.0
O55 O 0.55494 0.05016 0.04567 0.0
O56 O 0.53381 0.01626 0.75032 0.0
O57 O 0.48669 0.06662 0.69519 0.0
C58 C 0.51411 0.03811 0.66748 0.0
O59 O 0.5443 0.01035 0.10204 0.0
O60 O 0.51424 0.94833 0.15446 0.0
C61 C 0.42981 0.06646 -0.00534 0.0
C62 C 0.53376 0.98244 0.18342 0.0
Zn63 Zn 0.19537 0.25206 0.31566 0.0
Zn64 Zn 0.34031 0.25802 0.39149 0.0
Zn65 Zn 0.26814 0.25699 0.30551 0.0
C66 C 0.32796 0.33008 0.21712 0.0
C67 C 0.32969 0.17938 0.25311 0.0
O68 O 0.24545 0.18988 0.279 0.0
O69 O 0.19891 0.20011 0.42769 0.0
C70 C 0.21038 0.33808 0.30212 0.0
O71 O 0.29148 0.31176 0.19488 0.0
O72 O 0.35278 0.31437 0.29857 0.0
O73 O 0.35683 0.19948 0.31814 0.0
O74 O 0.292 0.1956 0.23583 0.0
O75 O 0.18804 0.31402 0.37167 0.0
O76 O 0.24158 0.32097 0.24071 0.0
O77 O 0.2509 0.28981 0.14103 0.0
O78 O 0.19904 0.24164 0.12654 0.0
C79 C 0.22526 0.26725 0.07441 0.0
O80 O 0.25262 0.26728 0.48717 0.0
O81 O 0.31769 0.2607 0.56558 0.0
C82 C 0.21981 0.17415 0.36069 0.0
C83 C 0.27744 0.26608 0.57887 0.0
Zn84 Zn 0.83406 0.25976 0.31561 0.0
Zn85 Zn 0.68615 0.24644 0.41828 0.0
Zn86 Zn 0.75773 0.2498 0.33712 0.0
C87 C 0.73816 0.23977 0.60696 0.0
C88 C 0.69798 0.18064 0.25247 0.0
O89 O 0.76829 0.22242 0.16631 0.0
O90 O 0.82241 0.2675 0.13613 0.0
C91 C 0.80705 0.33556 0.39446 0.0
O92 O 0.76072 0.22486 0.51842 0.0
O93 O 0.70348 0.25993 0.58709 0.0
O94 O 0.68293 0.18544 0.35925 0.0
O95 O 0.72446 0.20869 0.20911 0.0
O96 O 0.83727 0.31053 0.42687 0.0
O97 O 0.7743 0.31982 0.3376 0.0
O98 O 0.79133 0.20221 0.45932 0.0
O99 O 0.85443 0.20208 0.36565 0.0
C100 C 0.82801 0.18401 0.43711 0.0
O101 O 0.72995 0.31513 0.31714 0.0
O102 O 0.66183 0.29434 0.32024 0.0
C103 C 0.795 0.24114 0.09463 0.0
C104 C 0.68967 0.3231 0.29868 0.0
Zn105 Zn 0.68734 0.76082 0.80159 0.0
Zn106 Zn 0.82998 0.75051 0.88778 0.0
Zn107 Zn 0.75978 0.75572 0.79186 0.0
C108 C 0.82791 0.82326 0.71802 0.0
C109 C 0.81676 0.67547 0.73835 0.0
O110 O 0.72954 0.69301 0.74845 0.0
O111 O 0.68534 0.70613 0.90132 0.0
C112 C 0.71184 0.84397 0.79391 0.0
O113 O 0.78996 0.80923 0.69077 0.0
O114 O 0.84996 0.80457 0.8005 0.0
O115 O 0.84295 0.69188 0.81385 0.0
O116 O 0.7809 0.69464 0.71511 0.0
O117 O 0.68751 0.82246 0.86488 0.0
O118 O 0.7411 0.82348 0.73288 0.0
O119 O 0.74653 0.79231 0.63102 0.0
O120 O 0.68769 0.75322 0.6127 0.0
C121 C 0.71767 0.77478 0.56258 0.0
O122 O 0.74453 0.76466 0.97537 0.0
O123 O 0.80859 0.75663 0.05954 0.0
C124 C 0.70108 0.6795 0.8256 0.0
C125 C 0.76849 0.76351 0.06906 0.0
Zn126 Zn 0.51656 0.42007 0.84387 0.0
Zn127 Zn 0.54298 0.61463 0.04577 0.0
Zn128 Zn 0.51827 0.4957 0.92314 0.0
C129 C 0.56294 0.53999 0.17976 0.0
C130 C 0.4487 0.56702 -0.01253 0.0
O131 O 0.54137 0.49092 0.73329 0.0
O132 O 0.52059 0.42705 0.66467 0.0
C133 C 0.58287 0.43145 0.02573 0.0
O134 O 0.54626 0.52352 0.0837 0.0
O135 O 0.57014 0.58041 0.18498 0.0
O136 O 0.47842 0.59432 0.01306 0.0
O137 O 0.4573 0.52769 0.95613 0.0
O138 O 0.57175 0.40829 0.93607 0.0
O139 O 0.56161 0.46579 0.05084 0.0
O140 O 0.45005 0.47832 0.95289 0.0
O141 O 0.4588 0.40862 0.9165 0.0
C142 C 0.43516 0.43953 0.95201 0.0
O143 O 0.55325 0.52917 0.77843 0.0
O144 O 0.53313 0.57909 0.89923 0.0
C145 C 0.53756 0.46347 0.64578 0.0
C146 C 0.55941 0.56711 0.81822 0.0
Zn147 Zn 0.01259 0.58647 0.36474 0.0
Zn148 Zn 0.00386 0.43214 0.47114 0.0
Zn149 Zn 0.00981 0.51044 0.43923 0.0
C150 C 0.07597 0.44273 0.33264 0.0
C151 C 0.92617 0.45691 0.39061 0.0
O152 O 0.94338 0.53613 0.45906 0.0
O153 O 0.95933 0.60568 0.45162 0.0
C154 C 0.07775 0.57215 0.53896 0.0
O155 O 0.05501 0.47791 0.31005 0.0
O156 O 0.06212 0.41667 0.41259 0.0
O157 O 0.95197 0.42664 0.36434 0.0
O158 O 0.94079 0.49129 0.44169 0.0
O159 O 0.07167 0.59244 0.43951 0.0
O160 O 0.05142 0.54218 0.57115 0.0
O161 O 0.03467 0.51118 0.25624 0.0
O162 O 0.00612 0.57258 0.18976 0.0
C163 C 0.02405 0.53679 0.16852 0.0
O164 O 0.03842 0.49997 0.6111 0.0
O165 O 0.99719 0.44352 0.65061 0.0
C166 C 0.93235 0.576 0.47292 0.0
C167 C 0.02244 0.47277 0.68697 0.0
C168 C 0.15962 0.07701 0.46551 0.0
C169 C 0.14194 0.06428 0.35327 0.0
H170 H 0.19985 0.12311 0.55571 0.0
C171 C 0.16097 0.07902 0.24375 0.0
H172 H 0.14542 0.06619 0.55113 0.0
C173 C 0.19291 0.11086 0.24634 0.0
C174 C 0.20513 0.12895 0.35846 0.0
H175 H 0.14785 0.06942 0.15609 0.0
H176 H 0.20344 0.12527 0.16067 0.0
C177 C 0.19075 0.10964 0.46808 0.0
C178 C 0.13087 0.92259 0.68339 0.0
C179 C 0.13561 0.92964 0.55713 0.0
H180 H 0.1522 0.88509 0.83748 0.0
C181 C 0.17322 0.91529 0.49796 0.0
H182 H 0.10179 0.93305 0.73029 0.0
C183 C 0.20286 0.8891 0.56051 0.0
C184 C 0.19418 0.8759 0.68121 0.0
H185 H 0.17725 0.92031 0.4003 0.0
H186 H 0.2285 0.87369 0.50872 0.0
C187 C 0.16004 0.89559 0.74519 0.0
C188 C 0.34591 0.87051 0.93122 0.0
C189 C 0.33962 0.86199 0.80656 0.0
H190 H 0.38259 0.90653 0.062 0.0
C191 C 0.35659 0.89043 0.71842 0.0
H192 H 0.33332 0.84863 0.00038 0.0
C193 C 0.38355 0.92421 0.75371 0.0
C194 C 0.39447 0.92936 0.87726 0.0
H195 H 0.35196 0.8843 0.62171 0.0
H196 H 0.40011 0.9427 0.68336 0.0
C197 C 0.37357 0.90395 0.96645 0.0
C198 C 0.35784 0.10054 0.00441 0.0
C199 C 0.39005 0.07589 0.06327 0.0
H200 H 0.31234 0.15288 0.02031 0.0
C201 C 0.39385 0.07855 0.191 0.0
H202 H 0.35498 0.09985 0.90553 0.0
C203 C 0.37083 0.10998 0.25582 0.0
C204 C 0.34279 0.13845 0.1942 0.0
H205 H 0.41907 0.06085 0.23816 0.0
H206 H 0.37782 0.11448 0.35212 0.0
C207 C 0.33392 0.13137 0.06985 0.0
C208 C 0.90196 0.91715 0.66067 0.0
C209 C 0.90933 0.9128 0.53466 0.0
H210 H 0.86937 0.89152 0.8185 0.0
C211 C 0.8828 0.88492 0.46663 0.0
H212 H 0.92199 0.93829 0.71512 0.0
C213 C 0.85223 0.85878 0.52519 0.0
C214 C 0.84814 0.85979 0.65279 0.0
H215 H 0.88767 0.88123 0.36894 0.0
H216 H 0.83509 0.83488 0.47222 0.0
C217 C 0.8719 0.89041 0.71955 0.0
C218 C 0.89308 0.09348 0.55647 0.0
C219 C 0.8922 0.06733 0.45158 0.0
H220 H 0.87148 0.15313 0.63593 0.0
C221 C 0.85894 0.07304 0.36625 0.0
H222 H 0.919 0.09 0.62244 0.0
C223 C 0.83084 0.10829 0.37645 0.0
C224 C 0.83678 0.13882 0.46972 0.0
H225 H 0.85814 0.05369 0.28384 0.0
H226 H 0.80903 0.11522 0.30117 0.0
C227 C 0.86585 0.12961 0.56457 0.0
C228 C 0.65878 0.11148 0.2322 0.0
C229 C 0.67805 0.14757 0.17562 0.0
H230 H 0.61086 0.06215 0.21939 0.0
C231 C 0.66936 0.15658 0.05236 0.0
H232 H 0.66557 0.10361 0.32712 0.0
C233 C 0.63774 0.13307 -0.00861 0.0
C234 C 0.61471 0.10018 0.05286 0.0
H235 H 0.68382 0.18421 0.00681 0.0
H236 H 0.62951 0.14257 0.89863 0.0
C237 C 0.6273 0.08789 0.1711 0.0
C238 C 0.66286 0.88604 0.66244 0.0
C239 C 0.69517 0.88617 0.75297 0.0
H240 H 0.60056 0.91056 0.61091 0.0
C241 C 0.69749 0.92123 0.83309 0.0
H242 H 0.66022 0.85894 0.60042 0.0
C243 C 0.66402 0.95172 0.83589 0.0
C244 C 0.62714 0.94613 0.76254 0.0
H245 H 0.72176 0.92175 0.90445 0.0
H246 H 0.6634 0.97474 0.91041 0.0
C247 C 0.62871 0.91584 0.66768 0.0
C248 C 0.61718 0.60601 0.69977 0.0
C249 C 0.60263 0.58685 0.80914 0.0
H250 H 0.66255 0.6501 0.61792 0.0
C251 C 0.62822 0.5899 0.91448 0.0
H252 H 0.59816 0.60358 0.61692 0.0
C253 C 0.66489 0.61594 0.91511 0.0
C254 C 0.677 0.639 0.80961 0.0
H255 H 0.61862 0.57398 -0.00169 0.0
H256 H 0.68157 0.62109 0.00098 0.0
C257 C 0.65435 0.63198 0.69992 0.0
C258 C 0.64202 0.38699 0.29853 0.0
C259 C 0.67477 0.3632 0.24065 0.0
H260 H 0.58684 0.42728 0.27472 0.0
C261 C 0.68239 0.36937 0.11524 0.0
H262 H 0.63507 0.38182 0.39483 0.0
C263 C 0.65438 0.39536 0.04628 0.0
C264 C 0.61889 0.41585 0.10238 0.0
H265 H 0.70682 0.35045 0.06836 0.0
H266 H 0.6584 0.39664 0.94769 0.0
C267 C 0.6144 0.41331 0.22981 0.0
C268 C 0.86122 0.43377 0.50139 0.0
C269 C 0.88001 0.44638 0.38978 0.0
H270 H 0.82102 0.3869 0.5907 0.0
C271 C 0.86154 0.43222 0.27983 0.0
H272 H 0.87537 0.44387 0.5873 0.0
C273 C 0.82937 0.40058 0.28182 0.0
C274 C 0.81665 0.38198 0.39371 0.0
H275 H 0.87596 0.44117 0.1928 0.0
H276 H 0.81986 0.38593 0.19606 0.0
C277 C 0.83006 0.40113 0.50343 0.0
C278 C 0.83528 0.6443 0.53638 0.0
C279 C 0.83221 0.63892 0.66383 0.0
H280 H 0.87062 0.6278 0.37391 0.0
C281 C 0.85481 0.6047 0.72024 0.0
H282 H 0.81876 0.67091 0.49117 0.0
C283 C 0.88344 0.57911 0.65229 0.0
C284 C 0.89075 0.5884 0.52808 0.0
H285 H 0.85326 0.60029 0.81868 0.0
H286 H 0.90349 0.55564 0.69987 0.0
C287 C 0.86498 0.61969 0.46929 0.0
C288 C 0.36729 0.4004 0.20798 0.0
C289 C 0.34293 0.36858 0.14777 0.0
H290 H 0.41435 0.45079 0.19015 0.0
C291 C 0.34044 0.36984 0.01957 0.0
H292 H 0.36965 0.40022 0.307 0.0
C293 C 0.36635 0.3987 0.95267 0.0
C294 C 0.39441 0.42727 0.01304 0.0
H295 H 0.32242 0.34546 0.9709 0.0
H296 H 0.36794 0.39546 0.85399 0.0
C297 C 0.39241 0.42987 0.14113 0.0
C298 C 0.38122 0.57252 0.86554 0.0
C299 C 0.40479 0.58476 0.96926 0.0
H300 H 0.33522 0.59259 0.73024 0.0
C301 C 0.39143 0.62148 0.03532 0.0
H302 H 0.39082 0.54453 0.81264 0.0
C303 C 0.35878 0.64851 -0.0105 0.0
C304 C 0.33988 0.63948 0.87602 0.0
H305 H 0.40898 0.63148 0.11605 0.0
H306 H 0.35208 0.67883 0.0352 0.0
C307 C 0.34942 0.60008 0.81823 0.0
C308 C 0.11707 0.63117 0.80918 0.0
C309 C 0.14866 0.65687 0.75179 0.0
H310 H 0.0697 0.58177 0.78493 0.0
C311 C 0.16645 0.64347 0.64025 0.0
H312 H 0.10325 0.64088 0.8961 0.0
C313 C 0.14679 0.61002 0.57582 0.0
C314 C 0.10991 0.58956 0.62397 0.0
H315 H 0.19093 0.66268 0.59467 0.0
H316 H 0.15697 0.60395 0.48244 0.0
C317 C 0.09788 0.59727 0.74564 0.0
C318 C 0.18969 0.41209 0.35814 0.0
C319 C 0.19128 0.37989 0.26861 0.0
H320 H 0.1506 0.46034 0.44414 0.0
C321 C 0.16035 0.38019 0.17444 0.0
H322 H 0.21279 0.41195 0.4326 0.0
C323 C 0.12405 0.40719 0.18265 0.0
C324 C 0.11927 0.43464 0.2834 0.0
H325 H 0.16071 0.35509 0.10553 0.0
H326 H 0.09739 0.40237 0.12007 0.0
C327 C 0.15397 0.4397 0.36472 0.0
C328 C 0.96974 0.01862 0.83255 0.0
C329 C 0.00722 0.03018 0.76823 0.0
H330 H 0.94366 0.99572 0.00301 0.0
C331 C 0.04747 0.02936 0.82691 0.0
H332 H 0.93855 0.01882 0.78768 0.0
C333 C 0.05049 0.01493 0.94752 0.0
C334 C 0.01317 1.00229 0.01035 0.0
H335 H 0.07678 0.03735 0.77738 0.0
H336 H 0.0819 0.01279 -0.00908 0.0
C337 C 0.97266 0.00528 0.95426 0.0
C338 C 0.25597 0.72674 0.23534 0.0
C339 C 0.23886 0.74671 0.34028 0.0
H340 H 0.2515 0.71922 0.04064 0.0
C341 C 0.20537 0.77694 0.32755 0.0
H342 H 0.28238 0.70378 0.24312 0.0
C343 C 0.18884 0.78673 0.21195 0.0
C344 C 0.20515 0.76614 0.10687 0.0
H345 H 0.19285 0.79398 0.40655 0.0
H346 H 0.16306 0.81041 0.20505 0.0
C347 C 0.23893 0.7361 0.11949 0.0
C348 C 0.48376 0.02076 0.46891 0.0
C349 C 0.52017 0.02636 0.54212 0.0
H350 H 0.4605 0.99981 0.2958 0.0
C351 C 0.56175 0.01724 0.4981 0.0
H352 H 0.4515 0.02697 0.5036 0.0
C353 C 0.56688 1.00278 0.37898 0.0
C354 C 0.53027 0.99655 0.30713 0.0
H355 H 0.58992 0.02127 0.55566 0.0
H356 H 0.59891 0.99586 0.34385 0.0
C357 C 0.48883 0.00516 0.35183 0.0
C358 C 0.24237 0.30724 0.88418 0.0
C359 C 0.23003 0.26856 0.9419 0.0
H360 H 0.2675 0.33656 0.7205 0.0
C361 C 0.22977 0.22978 0.87608 0.0
H362 H 0.24252 0.33743 0.93415 0.0
C363 C 0.24436 0.22929 0.75546 0.0
C364 C 0.2589 0.26758 0.70049 0.0
H365 H 0.22107 0.19952 0.92015 0.0
H366 H 0.24585 0.19888 0.70667 0.0
C367 C 0.25676 0.30676 0.76337 0.0
C368 C 0.77705 0.19999 0.90934 0.0
C369 C 0.78714 0.23943 0.96472 0.0
H370 H 0.75391 0.16932 0.7466 0.0
C371 C 0.7834 0.27842 0.89977 0.0
H372 H 0.77958 0.1698 0.95982 0.0
C373 C 0.76726 0.27823 0.78175 0.0
C374 C 0.75601 0.239 0.72793 0.0
H375 H 0.79049 0.30912 0.94264 0.0
H376 H 0.76302 0.30862 0.73304 0.0
C377 C 0.76219 0.19972 0.78941 0.0
C378 C 0.70794 0.74228 0.35835 0.0
C379 C 0.72232 0.77684 0.43015 0.0
H380 H 0.71213 0.71105 0.18393 0.0
C381 C 0.74771 0.80953 0.37772 0.0
H382 H 0.68879 0.71645 0.39788 0.0
C383 C 0.7618 0.80582 0.25748 0.0
C384 C 0.74964 0.76994 0.18862 0.0
H385 H 0.75836 0.8368 0.43154 0.0
H386 H 0.78312 0.83019 0.21941 0.0
C387 C 0.7215 0.73895 0.23722 0.0
C388 C 0.5217 0.46633 0.42522 0.0
C389 C 0.54886 0.47715 0.52236 0.0
H390 H 0.50457 0.47895 0.23969 0.0
C391 C 0.58336 0.50579 0.50373 0.0
H392 H 0.49447 0.44489 0.43878 0.0
C393 C 0.58965 0.52486 0.38948 0.0
C394 C 0.56144 0.51533 0.29349 0.0
H395 H 0.60458 0.51445 0.5784 0.0
H396 H 0.61548 0.54806 0.37725 0.0
C397 C 0.52752 0.48585 0.31176 0.0
C398 C 0.98473 0.49642 0.87029 0.0
C399 C 0.02348 0.4838 0.81484 0.0
H400 H 0.95532 0.52524 0.027 0.0
C401 C 0.06295 0.48864 0.87551 0.0
H402 H 0.95419 0.49357 0.82258 0.0
C403 C 0.0635 0.50599 -0.00719 0.0
C404 C 0.02481 0.52022 0.04568 0.0
H405 H 0.09306 0.47963 0.83162 0.0
H406 H 0.0939 0.50922 0.04089 0.0
C407 C 0.98546 0.51514 -0.01498 0.0
loop_
_geom_bond_atom_site_label_1
_geom_bond_atom_site_label_2
_geom_bond_distance
_geom_bond_site_symmetry_2
_ccdc_geom_bond_type
Zn0 O6 1.920 . S
Zn0 O12 1.898 . S
Zn0 O15 1.905 1_455 S
Zn1 O9 1.905 . S
Zn1 O10 1.898 1_455 S
Zn1 O18 1.920 . S
Zn2 O5 2.080 1_545 S
Zn2 O8 2.114 . S
Zn2 O11 2.120 1_455 S
Zn2 O13 2.120 1_545 S
Zn2 O14 2.114 1_445 S
Zn2 O17 2.080 . S
C3 O8 1.166 . S
C3 O9 1.182 . S
C4 O10 1.167 . S
C4 O11 1.299 . S
O5 Zn2 2.080 1_565 S
O5 C19 1.305 . S
O6 Zn0 1.920 . S
O6 C19 1.234 . S
C7 O12 1.167 . S
C7 O13 1.299 . S
O8 Zn2 2.114 . S
O8 C3 1.166 . S
O9 Zn1 1.905 . S
O9 C3 1.182 . S
O10 Zn1 1.898 1_655 S
O10 C4 1.167 . S
O11 Zn2 2.120 1_655 S
O11 C4 1.299 . S
O12 Zn0 1.898 . S
O12 C7 1.167 . S
O13 Zn2 2.120 1_565 S
O13 C7 1.299 . S
O14 Zn2 2.114 1_665 S
O14 C16 1.166 . S
O15 Zn0 1.905 1_655 S
O15 C16 1.182 . S
C16 O14 1.166 . S
C16 O15 1.182 . S
O17 Zn2 2.080 . S
O17 C20 1.305 . S
O18 Zn1 1.920 . S
O18 C20 1.234 . S
C19 O5 1.305 . S
C19 O6 1.234 . S
C20 O17 1.305 . S
C20 O18 1.234 . S
Zn21 O27 1.920 . S
Zn21 O33 1.898 . S
Zn21 O36 1.905 . S
Zn22 O30 1.905 1_556 S
Zn22 O31 1.898 . S
Zn22 O39 1.920 . S
Zn23 O26 2.080 . S
Zn23 O29 2.114 . S
Zn23 O32 2.120 . S
Zn23 O34 2.120 . S
Zn23 O35 2.114 . S
Zn23 O38 2.080 . S
C24 O29 1.166 1_554 S
C24 O30 1.182 . S
C25 O31 1.167 . S
C25 O32 1.299 . S
O26 Zn23 2.080 . S
O26 C40 1.305 . S
O27 Zn21 1.920 . S
O27 C40 1.234 . S
C28 O33 1.167 . S
C28 O34 1.299 . S
O29 Zn23 2.114 . S
O29 C24 1.166 1_556 S
O30 Zn22 1.905 1_554 S
O30 C24 1.182 . S
O31 Zn22 1.898 . S
O31 C25 1.167 . S
O32 Zn23 2.120 . S
O32 C25 1.299 . S
O33 Zn21 1.898 . S
O33 C28 1.167 . S
O34 Zn23 2.120 . S
O34 C28 1.299 . S
O35 Zn23 2.114 . S
O35 C37 1.166 . S
O36 Zn21 1.905 . S
O36 C37 1.182 . S
C37 O35 1.166 . S
C37 O36 1.182 . S
O38 Zn23 2.080 . S
O38 C41 1.305 . S
O39 Zn22 1.920 . S
O39 C41 1.234 . S
C40 O26 1.305 . S
C40 O27 1.234 . S
C41 O38 1.305 . S
C41 O39 1.234 . S
Zn42 O48 1.920 . S
Zn42 O54 1.898 . S
Zn42 O57 1.905 . S
Zn43 O51 1.905 . S
Zn43 O52 1.898 . S
Zn43 O60 1.920 . S
Zn44 O47 2.080 . S
Zn44 O50 2.114 1_544 S
Zn44 O53 2.120 1_544 S
Zn44 O55 2.120 . S
Zn44 O56 2.114 1_554 S
Zn44 O59 2.080 1_545 S
C45 O50 1.166 1_554 S
C45 O51 1.182 . S
C46 O52 1.167 1_556 S
C46 O53 1.299 . S
O47 Zn44 2.080 . S
O47 C61 1.305 . S
O48 Zn42 1.920 . S
O48 C61 1.234 1_556 S
C49 O54 1.167 . S
C49 O55 1.299 1_556 S
O50 Zn44 2.114 1_566 S
O50 C45 1.166 1_556 S
O51 Zn43 1.905 . S
O51 C45 1.182 . S
O52 Zn43 1.898 . S
O52 C46 1.167 1_554 S
O53 Zn44 2.120 1_566 S
O53 C46 1.299 . S
O54 Zn42 1.898 . S
O54 C49 1.167 . S
O55 Zn44 2.120 . S
O55 C49 1.299 1_554 S
O56 Zn44 2.114 1_556 S
O56 C58 1.166 . S
O57 Zn42 1.905 . S
O57 C58 1.182 . S
C58 O56 1.166 . S
C58 O57 1.182 . S
O59 Zn44 2.080 1_565 S
O59 C62 1.305 . S
O60 Zn43 1.920 . S
O60 C62 1.234 . S
C61 O47 1.305 . S
C61 O48 1.234 1_554 S
C62 O59 1.305 . S
C62 O60 1.234 . S
Zn63 O69 1.920 . S
Zn63 O75 1.898 . S
Zn63 O78 1.905 1_554 S
Zn64 O72 1.905 . S
Zn64 O73 1.898 . S
Zn64 O81 1.920 . S
Zn65 O68 2.080 . S
Zn65 O71 2.114 . S
Zn65 O74 2.120 . S
Zn65 O76 2.120 . S
Zn65 O77 2.114 . S
Zn65 O80 2.080 . S
C66 O71 1.166 . S
C66 O72 1.182 . S
C67 O73 1.167 . S
C67 O74 1.299 . S
O68 Zn65 2.080 . S
O68 C82 1.305 . S
O69 Zn63 1.920 . S
O69 C82 1.234 . S
C70 O75 1.167 . S
C70 O76 1.299 . S
O71 Zn65 2.114 . S
O71 C66 1.166 . S
O72 Zn64 1.905 . S
O72 C66 1.182 . S
O73 Zn64 1.898 . S
O73 C67 1.167 . S
O74 Zn65 2.120 . S
O74 C67 1.299 . S
O75 Zn63 1.898 . S
O75 C70 1.167 . S
O76 Zn65 2.120 . S
O76 C70 1.299 . S
O77 Zn65 2.114 . S
O77 C79 1.166 1_554 S
O78 Zn63 1.905 1_556 S
O78 C79 1.182 . S
C79 O77 1.166 1_556 S
C79 O78 1.182 . S
O80 Zn65 2.080 . S
O80 C83 1.305 . S
O81 Zn64 1.920 . S
O81 C83 1.234 . S
C82 O68 1.305 . S
C82 O69 1.234 . S
C83 O80 1.305 . S
C83 O81 1.234 . S
Zn84 O90 1.920 1_554 S
Zn84 O96 1.898 . S
Zn84 O99 1.905 . S
Zn85 O93 1.905 . S
Zn85 O94 1.898 . S
Zn85 O102 1.920 . S
Zn86 O89 2.080 . S
Zn86 O92 2.114 . S
Zn86 O95 2.120 . S
Zn86 O97 2.120 . S
Zn86 O98 2.114 . S
Zn86 O101 2.080 . S
C87 O92 1.166 . S
C87 O93 1.182 . S
C88 O94 1.167 . S
C88 O95 1.299 . S
O89 Zn86 2.080 . S
O89 C103 1.305 1_554 S
O90 Zn84 1.920 1_556 S
O90 C103 1.234 . S
C91 O96 1.167 . S
C91 O97 1.299 . S
O92 Zn86 2.114 . S
O92 C87 1.166 . S
O93 Zn85 1.905 . S
O93 C87 1.182 . S
O94 Zn85 1.898 . S
O94 C88 1.167 . S
O95 Zn86 2.120 . S
O95 C88 1.299 . S
O96 Zn84 1.898 . S
O96 C91 1.167 . S
O97 Zn86 2.120 . S
O97 C91 1.299 . S
O98 Zn86 2.114 . S
O98 C100 1.166 . S
O99 Zn84 1.905 . S
O99 C100 1.182 . S
C100 O98 1.166 . S
C100 O99 1.182 . S
O101 Zn86 2.080 . S
O101 C104 1.305 . S
O102 Zn85 1.920 . S
O102 C104 1.234 . S
C103 O89 1.305 1_556 S
C103 O90 1.234 . S
C104 O101 1.305 . S
C104 O102 1.234 . S
Zn105 O111 1.920 . S
Zn105 O117 1.898 . S
Zn105 O120 1.905 . S
Zn106 O114 1.905 . S
Zn106 O115 1.898 . S
Zn106 O123 1.920 1_556 S
Zn107 O110 2.080 . S
Zn107 O113 2.114 . S
Zn107 O116 2.120 . S
Zn107 O118 2.120 . S
Zn107 O119 2.114 . S
Zn107 O122 2.080 . S
C108 O113 1.166 . S
C108 O114 1.182 . S
C109 O115 1.167 . S
C109 O116 1.299 . S
O110 Zn107 2.080 . S
O110 C124 1.305 . S
O111 Zn105 1.920 . S
O111 C124 1.234 . S
C112 O117 1.167 . S
C112 O118 1.299 . S
O113 Zn107 2.114 . S
O113 C108 1.166 . S
O114 Zn106 1.905 . S
O114 C108 1.182 . S
O115 Zn106 1.898 . S
O115 C109 1.167 . S
O116 Zn107 2.120 . S
O116 C109 1.299 . S
O117 Zn105 1.898 . S
O117 C112 1.167 . S
O118 Zn107 2.120 . S
O118 C112 1.299 . S
O119 Zn107 2.114 . S
O119 C121 1.166 . S
O120 Zn105 1.905 . S
O120 C121 1.182 . S
C121 O119 1.166 . S
C121 O120 1.182 . S
O122 Zn107 2.080 . S
O122 C125 1.305 1_556 S
O123 Zn106 1.920 1_554 S
O123 C125 1.234 . S
C124 O110 1.305 . S
C124 O111 1.234 . S
C125 O122 1.305 1_554 S
C125 O123 1.234 . S
Zn126 O132 1.920 . S
Zn126 O138 1.898 . S
Zn126 O141 1.905 . S
Zn127 O135 1.905 . S
Zn127 O136 1.898 . S
Zn127 O144 1.920 . S
Zn128 O131 2.074 1_554 S
Zn128 O134 2.120 . S
Zn128 O137 2.119 1_554 S
Zn128 O139 2.120 . S
Zn128 O140 2.115 . S
Zn128 O143 2.080 1_554 S
C129 O134 1.166 . S
C129 O135 1.182 . S
C130 O136 1.167 . S
C130 O137 1.299 1_554 S
O131 Zn128 2.074 1_556 S
O131 C145 1.305 . S
O132 Zn126 1.920 . S
O132 C145 1.234 . S
C133 O138 1.167 1_554 S
C133 O139 1.299 . S
O134 Zn128 2.120 . S
O134 C129 1.166 . S
O135 Zn127 1.905 . S
O135 C129 1.182 . S
O136 Zn127 1.898 . S
O136 C130 1.167 . S
O137 Zn128 2.119 1_556 S
O137 C130 1.299 1_556 S
O138 Zn126 1.898 . S
O138 C133 1.167 1_556 S
O139 Zn128 2.120 . S
O139 C133 1.299 . S
O140 Zn128 2.115 . S
O140 C142 1.166 1_554 S
O141 Zn126 1.905 . S
O141 C142 1.182 . S
C142 O140 1.166 1_556 S
C142 O141 1.182 . S
O143 Zn128 2.080 1_556 S
O143 C146 1.305 . S
O144 Zn127 1.920 . S
O144 C146 1.234 1_554 S
C145 O131 1.305 . S
C145 O132 1.234 . S
C146 O143 1.305 . S
C146 O144 1.234 1_556 S
Zn147 O153 1.920 1_455 S
Zn147 O159 1.898 . S
Zn147 O162 1.905 1_455 S
Zn148 O156 1.905 . S
Zn148 O157 1.898 1_455 S
Zn148 O165 1.920 1_455 S
Zn149 O152 2.080 1_455 S
Zn149 O155 2.114 . S
Zn149 O158 2.120 1_455 S
Zn149 O160 2.120 . S
Zn149 O161 2.114 . S
Zn149 O164 2.080 . S
C150 O155 1.166 . S
C150 O156 1.182 . S
C151 O157 1.167 . S
C151 O158 1.299 . S
O152 Zn149 2.080 1_655 S
O152 C166 1.305 . S
O153 Zn147 1.920 1_655 S
O153 C166 1.234 . S
C154 O159 1.167 . S
C154 O160 1.299 . S
O155 Zn149 2.114 . S
O155 C150 1.166 . S
O156 Zn148 1.905 . S
O156 C150 1.182 . S
O157 Zn148 1.898 1_655 S
O157 C151 1.167 . S
O158 Zn149 2.120 1_655 S
O158 C151 1.299 . S
O159 Zn147 1.898 . S
O159 C154 1.167 . S
O160 Zn149 2.120 . S
O160 C154 1.299 . S
O161 Zn149 2.114 . S
O161 C163 1.166 1_455 S
O162 Zn147 1.905 1_655 S
O162 C163 1.182 . S
C163 O161 1.166 1_655 S
C163 O162 1.182 . S
O164 Zn149 2.080 . S
O164 C167 1.305 1_455 S
O165 Zn148 1.920 1_655 S
O165 C167 1.234 . S
C166 O152 1.305 . S
C166 O153 1.234 . S
C167 O164 1.305 1_655 S
C167 O165 1.234 . S
C168 C169 1.387 . S
C168 H172 0.950 . S
C168 C177 1.390 . S
C169 C168 1.387 . S
C169 C171 1.387 . S
H170 C177 0.950 . S
C171 C169 1.387 . S
C171 C173 1.390 . S
C171 H175 0.950 . S
H172 C168 0.950 . S
C173 C171 1.390 . S
C173 C174 1.387 . S
C173 H176 0.950 . S
C174 C173 1.387 . S
C174 C177 1.387 . S
H175 C171 0.950 . S
H176 C173 0.950 . S
C177 C168 1.390 . S
C177 H170 0.950 . S
C177 C174 1.387 . S
C178 C179 1.387 . S
C178 H182 0.950 . S
C178 C187 1.390 . S
C179 C178 1.387 . S
C179 C181 1.387 . S
H180 C187 0.950 . S
C181 C179 1.387 . S
C181 C183 1.390 . S
C181 H185 0.950 . S
H182 C178 0.950 . S
C183 C181 1.390 . S
C183 C184 1.387 . S
C183 H186 0.950 . S
C184 C183 1.387 . S
C184 C187 1.387 . S
H185 C181 0.950 . S
H186 C183 0.950 . S
C187 C178 1.390 . S
C187 H180 0.950 . S
C187 C184 1.387 . S
C188 C189 1.387 . S
C188 H192 0.950 1_556 S
C188 C197 1.390 . S
C189 C188 1.387 . S
C189 C191 1.387 . S
H190 C197 0.950 1_554 S
C191 C189 1.387 . S
C191 C193 1.390 . S
C191 H195 0.950 . S
H192 C188 0.950 1_554 S
C193 C191 1.390 . S
C193 C194 1.387 . S
C193 H196 0.950 . S
C194 C193 1.387 . S
C194 C197 1.387 . S
H195 C191 0.950 . S
H196 C193 0.950 . S
C197 C188 1.390 . S
C197 H190 0.950 1_556 S
C197 C194 1.387 . S
C198 C199 1.387 . S
C198 H202 0.950 1_554 S
C198 C207 1.390 . S
C199 C198 1.387 . S
C199 C201 1.387 . S
H200 C207 0.950 1_556 S
C201 C199 1.387 . S
C201 C203 1.390 . S
C201 H205 0.950 . S
H202 C198 0.950 1_556 S
C203 C201 1.390 . S
C203 C204 1.387 . S
C203 H206 0.950 . S
C204 C203 1.387 . S
C204 C207 1.387 . S
H205 C201 0.950 . S
H206 C203 0.950 . S
C207 C198 1.390 . S
C207 H200 0.950 1_554 S
C207 C204 1.387 . S
C208 C209 1.387 . S
C208 H212 0.950 . S
C208 C217 1.390 . S
C209 C208 1.387 . S
C209 C211 1.387 . S
H210 C217 0.950 . S
C211 C209 1.387 . S
C211 C213 1.390 . S
C211 H215 0.950 . S
H212 C208 0.950 . S
C213 C211 1.390 . S
C213 C214 1.387 . S
C213 H216 0.950 . S
C214 C213 1.387 . S
C214 C217 1.387 . S
H215 C211 0.950 . S
H216 C213 0.950 . S
C217 C208 1.390 . S
C217 H210 0.950 . S
C217 C214 1.387 . S
C218 C219 1.387 . S
C218 H222 0.950 . S
C218 C227 1.390 . S
C219 C218 1.387 . S
C219 C221 1.387 . S
H220 C227 0.950 . S
C221 C219 1.387 . S
C221 C223 1.390 . S
C221 H225 0.950 . S
H222 C218 0.950 . S
C223 C221 1.390 . S
C223 C224 1.387 . S
C223 H226 0.950 . S
C224 C223 1.387 . S
C224 C227 1.387 . S
H225 C221 0.950 . S
H226 C223 0.950 . S
C227 C218 1.390 . S
C227 H220 0.950 . S
C227 C224 1.387 . S
C228 C229 1.387 . S
C228 H232 0.950 . S
C228 C237 1.390 . S
C229 C228 1.387 . S
C229 C231 1.387 . S
H230 C237 0.950 . S
C231 C229 1.387 . S
C231 C233 1.390 . S
C231 H235 0.950 . S
H232 C228 0.950 . S
C233 C231 1.390 . S
C233 C234 1.387 . S
C233 H236 0.950 . S
C234 C233 1.387 . S
C234 C237 1.387 . S
H235 C231 0.950 . S
H236 C233 0.950 . S
C237 C228 1.390 . S
C237 H230 0.950 . S
C237 C234 1.387 . S
C238 C239 1.387 . S
C238 H242 0.950 . S
C238 C247 1.390 . S
C239 C238 1.387 . S
C239 C241 1.387 . S
H240 C247 0.950 . S
C241 C239 1.387 . S
C241 C243 1.390 1_556 S
C241 H245 0.950 . S
H242 C238 0.950 . S
C243 C241 1.390 1_554 S
C243 C244 1.387 1_554 S
C243 H246 0.950 . S
C244 C243 1.387 1_556 S
C244 C247 1.387 . S
H245 C241 0.950 . S
H246 C243 0.950 . S
C247 C238 1.390 . S
C247 H240 0.950 . S
C247 C244 1.387 . S
C248 C249 1.387 . S
C248 H252 0.950 . S
C248 C257 1.390 . S
C249 C248 1.387 . S
C249 C251 1.387 1_556 S
H250 C257 0.950 . S
C251 C249 1.387 1_554 S
C251 C253 1.390 1_554 S
C251 H255 0.950 . S
H252 C248 0.950 . S
C253 C251 1.390 1_556 S
C253 C254 1.387 . S
C253 H256 0.950 1_556 S
C254 C253 1.387 . S
C254 C257 1.387 . S
H255 C251 0.950 . S
H256 C253 0.950 1_554 S
C257 C248 1.390 . S
C257 H250 0.950 . S
C257 C254 1.387 . S
C258 C259 1.387 . S
C258 H262 0.950 . S
C258 C267 1.390 . S
C259 C258 1.387 . S
C259 C261 1.387 . S
H260 C267 0.950 . S
C261 C259 1.387 . S
C261 C263 1.390 . S
C261 H265 0.950 1_554 S
H262 C258 0.950 . S
C263 C261 1.390 . S
C263 C264 1.387 . S
C263 H266 0.950 1_554 S
C264 C263 1.387 . S
C264 C267 1.387 . S
H265 C261 0.950 1_556 S
H266 C263 0.950 1_556 S
C267 C258 1.390 . S
C267 H260 0.950 . S
C267 C264 1.387 . S
C268 C269 1.387 . S
C268 H272 0.950 . S
C268 C277 1.390 . S
C269 C268 1.387 . S
C269 C271 1.387 . S
H270 C277 0.950 . S
C271 C269 1.387 . S
C271 C273 1.390 . S
C271 H275 0.950 . S
H272 C268 0.950 . S
C273 C271 1.390 . S
C273 C274 1.387 . S
C273 H276 0.950 . S
C274 C273 1.387 . S
C274 C277 1.387 . S
H275 C271 0.950 . S
H276 C273 0.950 . S
C277 C268 1.390 . S
C277 H270 0.950 . S
C277 C274 1.387 . S
C278 C279 1.387 . S
C278 H282 0.950 . S
C278 C287 1.390 . S
C279 C278 1.387 . S
C279 C281 1.387 . S
H280 C287 0.950 . S
C281 C279 1.387 . S
C281 C283 1.390 . S
C281 H285 0.950 . S
H282 C278 0.950 . S
C283 C281 1.390 . S
C283 C284 1.387 . S
C283 H286 0.950 . S
C284 C283 1.387 . S
C284 C287 1.387 . S
H285 C281 0.950 . S
H286 C283 0.950 . S
C287 C278 1.390 . S
C287 H280 0.950 . S
C287 C284 1.387 . S
C288 C289 1.387 . S
C288 H292 0.950 . S
C288 C297 1.390 . S
C289 C288 1.387 . S
C289 C291 1.387 . S
H290 C297 0.950 . S
C291 C289 1.387 . S
C291 C293 1.390 1_554 S
C291 H295 0.950 . S
H292 C288 0.950 . S
C293 C291 1.390 1_556 S
C293 C294 1.387 1_556 S
C293 H296 0.950 . S
C294 C293 1.387 1_554 S
C294 C297 1.387 . S
H295 C291 0.950 . S
H296 C293 0.950 . S
C297 C288 1.390 . S
C297 H290 0.950 . S
C297 C294 1.387 . S
C298 C299 1.387 . S
C298 H302 0.950 . S
C298 C307 1.390 . S
C299 C298 1.387 . S
C299 C301 1.387 1_556 S
H300 C307 0.950 . S
C301 C299 1.387 1_554 S
C301 C303 1.390 1_554 S
C301 H305 0.950 . S
H302 C298 0.950 . S
C303 C301 1.390 1_556 S
C303 C304 1.387 . S
C303 H306 0.950 . S
C304 C303 1.387 . S
C304 C307 1.387 . S
H305 C301 0.950 . S
H306 C303 0.950 . S
C307 C298 1.390 . S
C307 H300 0.950 . S
C307 C304 1.387 . S
C308 C309 1.387 . S
C308 H312 0.950 . S
C308 C317 1.390 . S
C309 C308 1.387 . S
C309 C311 1.387 . S
H310 C317 0.950 . S
C311 C309 1.387 . S
C311 C313 1.390 . S
C311 H315 0.950 . S
H312 C308 0.950 . S
C313 C311 1.390 . S
C313 C314 1.387 . S
C313 H316 0.950 . S
C314 C313 1.387 . S
C314 C317 1.387 . S
H315 C311 0.950 . S
H316 C313 0.950 . S
C317 C308 1.390 . S
C317 H310 0.950 . S
C317 C314 1.387 . S
C318 C319 1.387 . S
C318 H322 0.950 . S
C318 C327 1.390 . S
C319 C318 1.387 . S
C319 C321 1.387 . S
H320 C327 0.950 . S
C321 C319 1.387 . S
C321 C323 1.390 . S
C321 H325 0.950 . S
H322 C318 0.950 . S
C323 C321 1.390 . S
C323 C324 1.387 . S
C323 H326 0.950 . S
C324 C323 1.387 . S
C324 C327 1.387 . S
H325 C321 0.950 . S
H326 C323 0.950 . S
C327 C318 1.390 . S
C327 H320 0.950 . S
C327 C324 1.387 . S
C328 C329 1.387 1_655 S
C328 H332 0.950 . S
C328 C337 1.394 1_556 S
C329 C328 1.387 1_455 S
C329 C331 1.387 . S
H330 C337 0.949 1_565 S
C331 C329 1.387 . S
C331 C333 1.390 1_546 S
C331 H335 0.950 . S
H332 C328 0.950 . S
C333 C331 1.390 1_564 S
C333 C334 1.387 . S
C333 H336 0.950 . S
C334 C333 1.387 . S
C334 C337 1.384 1_465 S
H335 C331 0.950 . S
H336 C333 0.950 . S
C337 C328 1.394 1_554 S
C337 H330 0.949 1_545 S
C337 C334 1.384 1_645 S
C338 C339 1.387 . S
C338 H342 0.950 . S
C338 C347 1.390 . S
C339 C338 1.387 . S
C339 C341 1.387 . S
H340 C347 0.950 . S
C341 C339 1.387 . S
C341 C343 1.390 . S
C341 H345 0.950 . S
H342 C338 0.950 . S
C343 C341 1.390 . S
C343 C344 1.387 . S
C343 H346 0.950 . S
C344 C343 1.387 . S
C344 C347 1.387 . S
H345 C341 0.950 . S
H346 C343 0.950 . S
C347 C338 1.390 . S
C347 H340 0.950 . S
C347 C344 1.387 . S
C348 C349 1.387 . S
C348 H352 0.950 . S
C348 C357 1.390 1_545 S
C349 C348 1.387 . S
C349 C351 1.387 . S
H350 C357 0.950 . S
C351 C349 1.387 . S
C351 C353 1.390 1_545 S
C351 H355 0.950 . S
H352 C348 0.950 . S
C353 C351 1.390 1_565 S
C353 C354 1.387 . S
C353 H356 0.950 . S
C354 C353 1.387 . S
C354 C357 1.387 . S
H355 C351 0.950 . S
H356 C353 0.950 . S
C357 C348 1.390 1_565 S
C357 H350 0.950 . S
C357 C354 1.387 . S
C358 C359 1.387 . S
C358 H362 0.950 . S
C358 C367 1.390 . S
C359 C358 1.387 . S
C359 C361 1.387 . S
H360 C367 0.950 . S
C361 C359 1.387 . S
C361 C363 1.390 . S
C361 H365 0.950 . S
H362 C358 0.950 . S
C363 C361 1.390 . S
C363 C364 1.387 . S
C363 H366 0.950 . S
C364 C363 1.387 . S
C364 C367 1.387 . S
H365 C361 0.950 . S
H366 C363 0.950 . S
C367 C358 1.390 . S
C367 H360 0.950 . S
C367 C364 1.387 . S
C368 C369 1.387 . S
C368 H372 0.950 . S
C368 C377 1.390 . S
C369 C368 1.387 . S
C369 C371 1.387 . S
H370 C377 0.950 . S
C371 C369 1.387 . S
C371 C373 1.390 . S
C371 H375 0.950 . S
H372 C368 0.950 . S
C373 C371 1.390 . S
C373 C374 1.387 . S
C373 H376 0.950 . S
C374 C373 1.387 . S
C374 C377 1.387 . S
H375 C371 0.950 . S
H376 C373 0.950 . S
C377 C368 1.390 . S
C377 H370 0.950 . S
C377 C374 1.387 . S
C378 C379 1.387 . S
C378 H382 0.950 . S
C378 C387 1.390 . S
C379 C378 1.387 . S
C379 C381 1.387 . S
H380 C387 0.950 . S
C381 C379 1.387 . S
C381 C383 1.390 . S
C381 H385 0.950 . S
H382 C378 0.950 . S
C383 C381 1.390 . S
C383 C384 1.387 . S
C383 H386 0.950 . S
C384 C383 1.387 . S
C384 C387 1.387 . S
H385 C381 0.950 . S
H386 C383 0.950 . S
C387 C378 1.390 . S
C387 H380 0.950 . S
C387 C384 1.387 . S
C388 C389 1.387 . S
C388 H392 0.950 . S
C388 C397 1.390 . S
C389 C388 1.387 . S
C389 C391 1.387 . S
H390 C397 0.950 . S
C391 C389 1.387 . S
C391 C393 1.390 . S
C391 H395 0.950 . S
H392 C388 0.950 . S
C393 C391 1.390 . S
C393 C394 1.387 . S
C393 H396 0.950 . S
C394 C393 1.387 . S
C394 C397 1.387 . S
H395 C391 0.950 . S
H396 C393 0.950 . S
C397 C388 1.390 . S
C397 H390 0.950 . S
C397 C394 1.387 . S
C398 C399 1.387 . S
C398 H402 0.950 . S
C398 C407 1.390 1_556 S
C399 C398 1.387 . S
C399 C401 1.387 1_655 S
H400 C407 0.950 . S
C401 C399 1.387 1_455 S
C401 C403 1.390 1_556 S
C401 H405 0.950 . S
H402 C398 0.950 . S
C403 C401 1.390 1_554 S
C403 C404 1.387 1_455 S
C403 H406 0.950 . S
C404 C403 1.387 1_655 S
C404 C407 1.387 . S
H405 C401 0.950 . S
H406 C403 0.950 . S
C407 C398 1.390 1_554 S
C407 H400 0.950 . S
C407 C404 1.387 . S
C169 C20 1.307 . S
C174 C82 1.310 . S
C179 C7 1.312 . S
C184 C41 1.311 . S
C189 C28 1.317 . S
C194 C46 1.315 . S
C199 C61 1.312 . S
C204 C67 1.313 . S
C209 C16 1.652 . S
C214 C108 1.652 . S
C219 C4 1.608 . S
C224 C100 1.625 . S
C229 C88 1.580 . S
C234 C49 1.580 1_554 S
C239 C112 1.608 . S
C244 C45 1.625 1_556 S
C249 C146 1.310 . S
C254 C124 1.307 . S
C259 C104 1.311 . S
C264 C133 1.311 . S
C269 C151 1.315 . S
C274 C91 1.318 . S
C279 C109 1.313 . S
C284 C166 1.312 . S
C289 C66 1.654 . S
C294 C142 1.650 1_554 S
C299 C130 1.604 1_556 S
C304 C37 1.629 . S
C309 C25 1.583 . S
C314 C154 1.578 . S
C319 C70 1.604 . S
C324 C150 1.629 . S
C329 C3 1.179 . S
C334 C19 1.177 . S
C339 C40 1.175 . S
C344 C24 1.177 . S
C349 C58 1.179 . S
C354 C62 1.178 . S
C359 C79 1.179 . S
C364 C83 1.177 . S
C369 C103 1.175 . S
C374 C87 1.176 . S
C379 C121 1.182 . S
C384 C125 1.180 . S
C389 C145 1.177 . S
C394 C129 1.179 . S
C399 C167 1.178 . S
C404 C163 1.180 . S
