# Generated by pormake.
# Topology unf, (4)-cn, num edge types: 1
# Building blocks:
#     Node 0, Type 0, BuildingBlock: GALJAG_clean_sbu_0, # of connection points: 4
#     Node 1, Type 0, BuildingBlock: GALJAG_clean_sbu_0, # of connection points: 4
#     Node 2, Type 0, BuildingBlock: GALJAG_clean_sbu_0, # of connection points: 4
#     Node 3, Type 0, BuildingBlock: GALJAG_clean_sbu_0, # of connection points: 4
#     Node 4, Type 0, BuildingBlock: GALJAG_clean_sbu_0, # of connection points: 4
#     Node 5, Type 0, BuildingBlock: GALJAG_clean_sbu_0, # of connection points: 4
#     Node 6, Type 0, BuildingBlock: GALJAG_clean_sbu_0, # of connection points: 4
#     Node 7, Type 0, BuildingBlock: GALJAG_clean_sbu_0, # of connection points: 4
#     Node 8, Type 0, BuildingBlock: GALJAG_clean_sbu_0, # of connection points: 4
#     Node 9, Type 0, BuildingBlock: GALJAG_clean_sbu_0, # of connection points: 4
#     Node 10, Type 0, BuildingBlock: GALJAG_clean_sbu_0, # of connection points: 4
#     Node 11, Type 0, BuildingBlock: GALJAG_clean_sbu_0, # of connection points: 4
#     Edge 12, Type (0, 0), BuildingBlock: XUDNAN_clean_linker_2, # of connection points: 2
#     Edge 13, Type (0, 0), BuildingBlock: XUDNAN_clean_linker_2, # of connection points: 2
#     Edge 14, Type (0, 0), BuildingBlock: XUDNAN_clean_linker_2, # of connection points: 2
#     Edge 15, Type (0, 0), BuildingBlock: XUDNAN_clean_linker_2, # of connection points: 2
#     Edge 16, Type (0, 0), BuildingBlock: XUDNAN_clean_linker_2, # of connection points: 2
#     Edge 17, Type (0, 0), BuildingBlock: XUDNAN_clean_linker_2, # of connection points: 2
#     Edge 18, Type (0, 0), BuildingBlock: XUDNAN_clean_linker_2, # of connection points: 2
#     Edge 19, Type (0, 0), BuildingBlock: XUDNAN_clean_linker_2, # of connection points: 2
#     Edge 20, Type (0, 0), BuildingBlock: XUDNAN_clean_linker_2, # of connection points: 2
#     Edge 21, Type (0, 0), BuildingBlock: XUDNAN_clean_linker_2, # of connection points: 2
#     Edge 22, Type (0, 0), BuildingBlock: XUDNAN_clean_linker_2, # of connection points: 2
#     Edge 23, Type (0, 0), BuildingBlock: XUDNAN_clean_linker_2, # of connection points: 2
#     Edge 24, Type (0, 0), BuildingBlock: XUDNAN_clean_linker_2, # of connection points: 2
#     Edge 25, Type (0, 0), BuildingBlock: XUDNAN_clean_linker_2, # of connection points: 2
#     Edge 26, Type (0, 0), BuildingBlock: XUDNAN_clean_linker_2, # of connection points: 2
#     Edge 27, Type (0, 0), BuildingBlock: XUDNAN_clean_linker_2, # of connection points: 2
#     Edge 28, Type (0, 0), BuildingBlock: XUDNAN_clean_linker_2, # of connection points: 2
#     Edge 29, Type (0, 0), BuildingBlock: XUDNAN_clean_linker_2, # of connection points: 2
#     Edge 30, Type (0, 0), BuildingBlock: XUDNAN_clean_linker_2, # of connection points: 2
#     Edge 31, Type (0, 0), BuildingBlock: XUDNAN_clean_linker_2, # of connection points: 2
#     Edge 32, Type (0, 0), BuildingBlock: XUDNAN_clean_linker_2, # of connection points: 2
#     Edge 33, Type (0, 0), BuildingBlock: XUDNAN_clean_linker_2, # of connection points: 2
#     Edge 34, Type (0, 0), BuildingBlock: XUDNAN_clean_linker_2, # of connection points: 2
#     Edge 35, Type (0, 0), BuildingBlock: XUDNAN_clean_linker_2, # of connection points: 2
# Relax obj value: 0.104
# Max RMSD: 0.121
# Mean RMSD: 0.121
data_MOF--net-unf--node1-GALJAG_clean_sbu_0--edge1-XUDNAN_clean_linker_2
_symmetry_space_group_name_H-M    P1
_symmetry_Int_Tables_number       1
_symmetry_cell_setting            triclinic
loop_
_symmetry_equiv_pos_as_xyz
'x, y, z'
_cell_length_a     39.599342
_cell_length_b     39.640881
_cell_length_c     34.915077
_cell_angle_alpha  89.935325
_cell_angle_beta   90.152074
_cell_angle_gamma 119.93794
loop_
_atom_site_label
_atom_site_type_symbol
_atom_site_fract_x
_atom_site_fract_y
_atom_site_fract_z
_atom_type_partial_charge
In0 In 0.08436 0.37662 0.07246 0.0
O1 O 0.10773 0.36011 0.12482 0.0
O2 O 0.12975 0.42023 0.11476 0.0
C3 C 0.01351 0.31188 0.07218 0.0
C4 C 0.13134 0.37064 0.02071 0.0
C5 C 0.05429 0.42229 0.05297 0.0
O6 O 0.02681 0.33361 0.10122 0.0
O7 O 0.03668 0.32181 0.04427 0.0
O8 O 0.07503 0.41562 0.03029 0.0
O9 O 0.05112 0.40825 0.08606 0.0
C10 C 0.13084 0.39456 0.13526 0.0
O11 O 0.13237 0.40251 0.02725 0.0
O12 O 0.10656 0.3421 0.04008 0.0
In13 In 0.62689 0.70208 0.06837 0.0
O14 O 0.63649 0.71773 0.13177 0.0
O15 O 0.58134 0.70265 0.10803 0.0
C16 C 0.69614 0.70462 0.06582 0.0
C17 C 0.63007 0.76117 0.02743 0.0
C18 C 0.58439 0.63273 0.03374 0.0
O19 O 0.66632 0.67629 0.08032 0.0
O20 O 0.69135 0.7321 0.05444 0.0
O21 O 0.60744 0.66341 0.01597 0.0
O22 O 0.5813 0.6372 0.06917 0.0
C23 C 0.60351 0.71452 0.13688 0.0
O24 O 0.60466 0.72618 0.02089 0.0
O25 O 0.65326 0.76595 0.05439 0.0
In26 In 0.29577 0.92874 0.09545 0.0
O27 O 0.25838 0.88212 0.05089 0.0
O28 O 0.23063 0.89044 0.09919 0.0
C29 C 0.35923 0.94908 0.05215 0.0
C30 C 0.29226 0.89256 0.162 0.0
C31 C 0.29547 0.9968 0.09708 0.0
O32 O 0.32593 0.93776 0.03792 0.0
O33 O 0.36022 0.94868 0.08831 0.0
O34 O 0.32317 0.99348 0.11065 0.0
O35 O 0.26797 0.96595 0.08327 0.0
C36 C 0.22705 0.87158 0.06897 0.0
O37 O 0.28999 0.92316 0.1601 0.0
O38 O 0.29968 0.88197 0.13057 0.0
In39 In 0.6215 0.91309 0.42035 0.0
O40 O 0.58363 0.85556 0.45138 0.0
O41 O 0.64179 0.89124 0.47084 0.0
C42 C 0.58014 0.94789 0.43887 0.0
C43 C 0.60721 0.87118 0.355 0.0
C44 C 0.69248 0.97775 0.41951 0.0
O45 O 0.59145 0.93255 0.46376 0.0
O46 O 0.58831 0.94418 0.4048 0.0
O47 O 0.66285 0.97654 0.40469 0.0
O48 O 0.68677 0.94582 0.43306 0.0
C49 C 0.61018 0.85953 0.47415 0.0
O50 O 0.64076 0.89032 0.36948 0.0
O51 O 0.58121 0.87431 0.37262 0.0
In52 In 0.06985 0.70231 0.42068 0.0
O53 O 0.09072 0.73204 0.36334 0.0
O54 O 0.11677 0.6999 0.38354 0.0
C55 C 0.00096 0.69858 0.40777 0.0
C56 C 0.1198 0.75854 0.4684 0.0
C57 C 0.03933 0.63379 0.4574 0.0
O58 O 0.00798 0.67257 0.39622 0.0
O59 O 0.02886 0.72678 0.42476 0.0
O60 O 0.04611 0.66504 0.47358 0.0
O61 O 0.04929 0.63721 0.42254 0.0
C62 C 0.11627 0.72248 0.35835 0.0
O63 O 0.11539 0.72475 0.46879 0.0
O64 O 0.09859 0.76349 0.44474 0.0
In65 In 0.29736 0.37561 0.4261 0.0
O66 O 0.27952 0.36377 0.36325 0.0
O67 O 0.30109 0.42141 0.38321 0.0
C68 C 0.29096 0.30487 0.43376 0.0
C69 C 0.2385 0.37622 0.46362 0.0
C70 C 0.36619 0.41648 0.46294 0.0
O71 O 0.31864 0.3322 0.41567 0.0
O72 O 0.2661 0.31285 0.44657 0.0
O73 O 0.33375 0.40027 0.47981 0.0
O74 O 0.36409 0.41372 0.42682 0.0
C75 C 0.28617 0.39765 0.35584 0.0
O76 O 0.27363 0.40153 0.46991 0.0
O77 O 0.23345 0.35129 0.4385 0.0
In78 In 0.92272 0.61551 0.9126 0.0
O79 O 0.8692 0.60626 0.94648 0.0
O80 O 0.90954 0.66324 0.92657 0.0
C81 C 0.92648 0.55131 0.93025 0.0
C82 C 0.902 0.61571 0.83881 0.0
C83 C 0.98749 0.66446 0.95161 0.0
O84 O 0.89935 0.55673 0.94179 0.0
O85 O 0.9498 0.57668 0.90706 0.0
O86 O 0.98756 0.66298 0.91535 0.0
O87 O 0.95543 0.64129 0.96711 0.0
C88 C 0.87891 0.64188 0.9452 0.0
O89 O 0.93519 0.63998 0.85186 0.0
O90 O 0.88016 0.58982 0.86237 0.0
In91 In 0.37539 0.29095 0.93099 0.0
O92 O 0.37257 0.2714 0.86829 0.0
O93 O 0.40022 0.25375 0.90912 0.0
C94 C 0.31993 0.31011 0.91648 0.0
C95 C 0.35045 0.24099 0.9905 0.0
C96 C 0.43611 0.36086 0.95028 0.0
O97 O 0.31196 0.27632 0.92637 0.0
O98 O 0.35574 0.33364 0.9119 0.0
O99 O 0.40902 0.34049 0.97341 0.0
O100 O 0.43329 0.3452 0.9181 0.0
C101 C 0.39007 0.25275 0.87484 0.0
O102 O 0.38624 0.26359 0.98399 0.0
O103 O 0.32765 0.24454 0.96773 0.0
In104 In 0.6945 0.08711 0.92503 0.0
O105 O 0.72614 0.1015 0.868 0.0
O106 O 0.70144 0.13599 0.88529 0.0
C107 C 0.68196 0.01387 0.93048 0.0
C108 C 0.75554 0.13323 0.97024 0.0
C109 C 0.62096 0.06963 0.94096 0.0
O110 O 0.67561 0.02678 0.89991 0.0
O111 O 0.69523 0.03803 0.95756 0.0
O112 O 0.64733 0.08175 0.96622 0.0
O113 O 0.63216 0.068 0.90758 0.0
C114 C 0.72078 0.12962 0.86053 0.0
O115 O 0.72256 0.13048 0.97453 0.0
O116 O 0.75741 0.11303 0.94335 0.0
In117 In 0.38531 0.07945 0.579 0.0
O118 O 0.38822 0.12688 0.54018 0.0
O119 O 0.33426 0.08911 0.56785 0.0
C120 C 0.44611 0.07613 0.54759 0.0
C121 C 0.40359 0.11557 0.64788 0.0
C122 C 0.32714 0.00551 0.56943 0.0
O123 O 0.42968 0.09251 0.53143 0.0
O124 O 0.43335 0.06326 0.58053 0.0
O125 O 0.34169 0.0188 0.60192 0.0
O126 O 0.34179 0.0294 0.54226 0.0
C127 C 0.35295 0.11737 0.54525 0.0
O128 O 0.38995 0.07943 0.64433 0.0
O129 O 0.40926 0.13369 0.61678 0.0
In130 In 0.90802 0.29586 0.56728 0.0
O131 O 0.86457 0.25585 0.52162 0.0
O132 O 0.89906 0.23685 0.55147 0.0
C133 C 0.916 0.36574 0.55073 0.0
C134 C 0.86398 0.26906 0.63061 0.0
C135 C 0.98406 0.31914 0.56021 0.0
O136 O 0.90632 0.33963 0.52551 0.0
O137 O 0.92005 0.35592 0.58402 0.0
O138 O 0.96916 0.31781 0.59257 0.0
O139 O 0.96069 0.30873 0.53237 0.0
C140 C 0.87352 0.22958 0.52622 0.0
O141 O 0.89676 0.27107 0.62779 0.0
O142 O 0.85367 0.28085 0.60167 0.0
In143 In 0.70166 0.62079 0.56361 0.0
O144 O 0.75151 0.65602 0.605 0.0
O145 O 0.71994 0.59484 0.61322 0.0
C146 C 0.66833 0.6659 0.56232 0.0
C147 C 0.75186 0.63776 0.50478 0.0
C148 C 0.6334 0.55374 0.55956 0.0
O149 O 0.69363 0.67076 0.58714 0.0
O150 O 0.66086 0.63943 0.53835 0.0
O151 O 0.6575 0.56623 0.53225 0.0
O152 O 0.64525 0.57351 0.59007 0.0
C153 C 0.74806 0.62724 0.62367 0.0
O154 O 0.73713 0.60572 0.52238 0.0
O155 O 0.74034 0.66046 0.51612 0.0
H156 H 0.13565 0.30549 0.00544 0.0
H157 H 0.18858 0.42801 0.97686 0.0
H158 H 0.23762 0.42292 0.93736 0.0
H159 H 0.22086 0.30458 0.01917 0.0
H160 H 0.20408 0.25679 0.99943 0.0
H161 H 0.16972 0.26867 0.01983 0.0
H162 H 0.13064 0.2496 0.95618 0.0
H163 H 0.16508 0.23772 0.93549 0.0
H164 H 0.15499 0.2723 0.91207 0.0
H165 H 0.28584 0.40658 0.90876 0.0
H166 H 0.33006 0.38098 0.89507 0.0
H167 H 0.24494 0.26894 0.9417 0.0
C168 C 0.15697 0.33104 0.99011 0.0
C169 C 0.15827 0.36711 0.99401 0.0
C170 C 0.18698 0.40004 0.97406 0.0
C171 C 0.21482 0.39737 0.95144 0.0
C172 C 0.21323 0.36148 0.94883 0.0
C173 C 0.18487 0.32885 0.9675 0.0
C174 C 0.19172 0.29474 0.96336 0.0
C175 C 0.19693 0.28039 0.00278 0.0
C176 C 0.15864 0.26164 0.9404 0.0
C177 C 0.22934 0.3137 0.94087 0.0
C178 C 0.24095 0.35201 0.93215 0.0
C179 C 0.27665 0.37641 0.9147 0.0
C180 C 0.30157 0.36162 0.90701 0.0
C181 C 0.29072 0.32289 0.91698 0.0
C182 C 0.25364 0.2984 0.93299 0.0
H183 H 0.67261 0.83757 0.04633 0.0
H184 H 0.5944 0.75948 0.95926 0.0
H185 H 0.60161 0.81625 0.92242 0.0
H186 H 0.63666 0.90391 0.04441 0.0
H187 H 0.68385 0.94606 0.05265 0.0
H188 H 0.67339 0.8993 0.07071 0.0
H189 H 0.73356 0.90578 0.03471 0.0
H190 H 0.74406 0.95248 0.01631 0.0
H191 H 0.73777 0.91448 0.98379 0.0
H192 H 0.61814 0.88256 0.89538 0.0
H193 H 0.63836 0.95172 0.8831 0.0
H194 H 0.7038 0.98437 0.98956 0.0
C195 C 0.65711 0.83235 0.01941 0.0
C196 C 0.63314 0.79429 0.00543 0.0
C197 C 0.61293 0.78856 0.97038 0.0
C198 C 0.61699 0.82057 0.94925 0.0
C199 C 0.64112 0.85786 0.96384 0.0
C200 C 0.66052 0.86375 0.99832 0.0
C201 C 0.68341 0.90636 0.00875 0.0
C202 C 0.66841 0.91436 0.04634 0.0
C203 C 0.7273 0.9206 0.011 0.0
C204 C 0.67389 0.92372 0.97478 0.0
C205 C 0.64978 0.89547 0.94892 0.0
C206 C 0.63701 0.90489 0.91544 0.0
C207 C 0.64873 0.94417 0.90864 0.0
C208 C 0.67256 0.97321 0.93543 0.0
C209 C 0.68554 0.96275 0.96859 0.0
H210 H 0.20429 0.83726 0.99769 0.0
H211 H 0.16421 0.83162 0.11443 0.0
H212 H 0.10017 0.77644 0.09696 0.0
H213 H 0.11435 0.8171 0.95297 0.0
H214 H 0.11732 0.78817 0.91475 0.0
H215 H 0.16123 0.82603 0.9365 0.0
H216 H 0.18325 0.77594 0.95186 0.0
H217 H 0.13935 0.73791 0.93018 0.0
H218 H 0.15146 0.7328 0.97883 0.0
H219 H 0.04127 0.72313 0.06813 0.0
H220 H 0.9876 0.67566 0.02801 0.0
H221 H 0.0629 0.71593 0.92816 0.0
C222 C 0.18202 0.82414 0.0195 0.0
C223 C 0.18912 0.83855 0.05742 0.0
C224 C 0.15928 0.82108 0.08519 0.0
C225 C 0.12288 0.78962 0.07561 0.0
C226 C 0.11665 0.77617 0.03806 0.0
C227 C 0.14509 0.79288 0.01026 0.0
C228 C 0.12966 0.77357 0.97166 0.0
C229 C 0.1307 0.80298 0.94224 0.0
C230 C 0.15228 0.75388 0.9573 0.0
C231 C 0.08813 0.74366 0.98226 0.0
C232 C 0.08165 0.74558 0.02086 0.0
C233 C 0.04586 0.72126 0.03785 0.0
C234 C 0.01558 0.69436 0.01475 0.0
C235 C 0.02106 0.69215 0.97494 0.0
C236 C 0.05792 0.71702 0.9585 0.0
H237 H 0.70079 0.74433 0.57326 0.0
H238 H 0.59298 0.63987 0.54403 0.0
H239 H 0.56192 0.67929 0.53056 0.0
H240 H 0.65628 0.80321 0.61189 0.0
H241 H 0.69382 0.8471 0.58988 0.0
H242 H 0.70475 0.81051 0.60655 0.0
H243 H 0.72992 0.80725 0.53898 0.0
H244 H 0.71907 0.84363 0.52219 0.0
H245 H 0.69839 0.7973 0.49811 0.0
H246 H 0.54575 0.72939 0.51054 0.0
H247 H 0.54705 0.78657 0.48103 0.0
H248 H 0.66613 0.85943 0.5201 0.0
C249 C 0.67021 0.72986 0.56557 0.0
C250 C 0.6489 0.6892 0.56034 0.0
C251 C 0.60948 0.67106 0.54858 0.0
C252 C 0.59158 0.69317 0.54111 0.0
C253 C 0.61362 0.73344 0.54526 0.0
C254 C 0.65214 0.75172 0.55715 0.0
C255 C 0.67107 0.79553 0.55327 0.0
C256 C 0.68213 0.81525 0.59276 0.0
C257 C 0.70669 0.81185 0.52654 0.0
C258 C 0.63786 0.79882 0.53552 0.0
C259 C 0.60464 0.76275 0.53223 0.0
C260 C 0.5713 0.7579 0.51364 0.0
C261 C 0.57231 0.79055 0.49693 0.0
C262 C 0.60661 0.82741 0.49845 0.0
C263 C 0.6393 0.8317 0.51905 0.0
H264 H 0.1554 0.83533 0.45139 0.0
H265 H 0.15135 0.75403 0.53691 0.0
H266 H 0.20234 0.80908 0.57458 0.0
H267 H 0.25833 0.89577 0.45326 0.0
H268 H 0.2572 0.94012 0.44523 0.0
H269 H 0.21845 0.89465 0.42713 0.0
H270 H 0.16783 0.90584 0.46346 0.0
H271 H 0.20644 0.95137 0.48169 0.0
H272 H 0.17312 0.91464 0.51436 0.0
H273 H 0.25379 0.87401 0.60271 0.0
H274 H 0.30527 0.94209 0.61584 0.0
H275 H 0.27772 0.97862 0.50876 0.0
C276 C 0.16486 0.82917 0.47833 0.0
C277 C 0.14924 0.79071 0.49171 0.0
C278 C 0.16297 0.7835 0.52647 0.0
C279 C 0.19174 0.81452 0.54801 0.0
C280 C 0.20671 0.85226 0.53389 0.0
C281 C 0.194 0.85954 0.49959 0.0
C282 C 0.21644 0.90218 0.48916 0.0
C283 C 0.23893 0.90853 0.45148 0.0
C284 C 0.18933 0.91952 0.48706 0.0
C285 C 0.24373 0.91795 0.52305 0.0
C286 C 0.23745 0.88892 0.54886 0.0
C287 C 0.25905 0.89692 0.58262 0.0
C288 C 0.28808 0.93557 0.58989 0.0
C289 C 0.29546 0.96533 0.56317 0.0
C290 C 0.27285 0.95631 0.52952 0.0
H291 H 0.01529 0.30382 0.49859 0.0
H292 H 0.04591 0.36256 0.60853 0.0
H293 H 0.1158 0.38582 0.59551 0.0
H294 H 0.08501 0.27124 0.50159 0.0
H295 H 0.09414 0.27751 0.45081 0.0
H296 H 0.04732 0.2665 0.46924 0.0
H297 H 0.05411 0.32803 0.43575 0.0
H298 H 0.1011 0.33942 0.41747 0.0
H299 H 0.09619 0.37484 0.44558 0.0
H300 H 0.18296 0.40439 0.56809 0.0
H301 H 0.23998 0.41132 0.53193 0.0
H302 H 0.16266 0.33741 0.44213 0.0
C303 C 0.03667 0.32159 0.51999 0.0
C304 C 0.02547 0.33168 0.55443 0.0
C305 C 0.05412 0.35454 0.58196 0.0
C306 C 0.09376 0.36797 0.57471 0.0
C307 C 0.10386 0.35778 0.54008 0.0
C308 C 0.07594 0.33466 0.51347 0.0
C309 C 0.09372 0.32669 0.47894 0.0
C310 C 0.07919 0.28289 0.47494 0.0
C311 C 0.08581 0.34325 0.44228 0.0
C312 C 0.13618 0.34908 0.49002 0.0
C313 C 0.14172 0.3672 0.52515 0.0
C314 C 0.17888 0.39011 0.54069 0.0
C315 C 0.21103 0.39403 0.51995 0.0
C316 C 0.20553 0.37471 0.48445 0.0
C317 C 0.16766 0.35226 0.46936 0.0
H318 H 0.70421 0.64031 0.05976 0.0
H319 H 0.76744 0.76613 0.04927 0.0
H320 H 0.82347 0.76355 0.02187 0.0
H321 H 0.79074 0.62805 0.07998 0.0
H322 H 0.77098 0.58432 0.05154 0.0
H323 H 0.73871 0.59652 0.07648 0.0
H324 H 0.70352 0.59226 0.01251 0.0
H325 H 0.73604 0.58079 0.98723 0.0
H326 H 0.73134 0.62187 0.97255 0.0
H327 H 0.86817 0.74723 0.98793 0.0
H328 H 0.90147 0.71845 0.95281 0.0
H329 H 0.80938 0.60269 0.98409 0.0
C330 C 0.73045 0.66736 0.05305 0.0
C331 C 0.73185 0.70348 0.057 0.0
C332 C 0.76607 0.73824 0.04674 0.0
C333 C 0.79797 0.73704 0.03115 0.0
C334 C 0.79509 0.70085 0.02607 0.0
C335 C 0.76245 0.66662 0.03708 0.0
C336 C 0.76545 0.63145 0.02514 0.0
C337 C 0.76655 0.60875 0.06039 0.0
C338 C 0.73211 0.60506 0.99773 0.0
C339 C 0.80434 0.65127 0.00472 0.0
C340 C 0.821 0.69131 0.00593 0.0
C341 C 0.85578 0.71595 0.9873 0.0
C342 C 0.87431 0.69929 0.9672 0.0
C343 C 0.85801 0.65835 0.9658 0.0
C344 C 0.8226 0.63408 0.98491 0.0
H345 H 0.39265 0.21439 0.0293 0.0
H346 H 0.27548 0.19472 0.01379 0.0
H347 H 0.24935 0.13386 0.05083 0.0
H348 H 0.3712 0.12244 0.01233 0.0
H349 H 0.40366 0.11997 0.04706 0.0
H350 H 0.41433 0.1662 0.02764 0.0
H351 H 0.41695 0.19272 0.09603 0.0
H352 H 0.40661 0.14649 0.11581 0.0
H353 H 0.37612 0.16675 0.1278 0.0
H354 H 0.23488 0.06989 0.07644 0.0
H355 H 0.23344 0.00835 0.09173 0.0
H356 H 0.35972 0.06913 0.09288 0.0
C357 C 0.36168 0.19806 0.03512 0.0
C358 C 0.33608 0.20931 0.01896 0.0
C359 C 0.2956 0.18669 0.02613 0.0
C360 C 0.2805 0.15213 0.04726 0.0
C361 C 0.30631 0.14083 0.06135 0.0
C362 C 0.34613 0.16337 0.05609 0.0
C363 C 0.367 0.1423 0.06988 0.0
C364 C 0.39039 0.13744 0.03728 0.0
C365 C 0.39322 0.16332 0.10444 0.0
C366 C 0.33254 0.1036 0.08155 0.0
C367 C 0.29783 0.10361 0.077 0.0
C368 C 0.26184 0.06982 0.08128 0.0
C369 C 0.26129 0.035 0.08977 0.0
C370 C 0.29646 0.03432 0.09404 0.0
C371 C 0.33246 0.06922 0.09089 0.0
H372 H 0.98154 0.25698 0.01615 0.0
H373 H 0.95276 0.29792 0.1194 0.0
H374 H 0.88262 0.25327 0.10695 0.0
H375 H 0.90797 0.25212 0.95936 0.0
H376 H 0.89806 0.20856 0.93393 0.0
H377 H 0.94581 0.23987 0.95346 0.0
H378 H 0.94221 0.18215 0.99182 0.0
H379 H 0.89459 0.15041 0.97193 0.0
H380 H 0.90142 0.15426 0.02313 0.0
H381 H 0.81547 0.21045 0.0781 0.0
H382 H 0.75727 0.16842 0.03855 0.0
H383 H 0.83104 0.15469 0.95579 0.0
C384 C 0.96052 0.25582 0.03668 0.0
C385 C 0.97247 0.28073 0.06879 0.0
C386 C 0.94416 0.27873 0.09481 0.0
C387 C 0.90428 0.2536 0.08788 0.0
C388 C 0.89339 0.23034 0.05515 0.0
C389 C 0.92079 0.23074 0.03038 0.0
C390 C 0.90172 0.20448 0.99628 0.0
C391 C 0.91413 0.22766 0.95855 0.0
C392 C 0.91051 0.17082 0.99578 0.0
C393 C 0.85934 0.19007 0.00508 0.0
C394 C 0.85498 0.2052 0.03914 0.0
C395 C 0.81851 0.19787 0.05175 0.0
C396 C 0.78569 0.1742 0.02905 0.0
C397 C 0.78971 0.15814 0.99435 0.0
C398 C 0.82702 0.16614 0.98247 0.0
H399 H 0.38844 0.18174 0.49922 0.0
H400 H 0.27683 0.09918 0.54885 0.0
H401 H 0.2469 0.13437 0.51873 0.0
H402 H 0.38049 0.26482 0.51426 0.0
H403 H 0.40409 0.2886 0.47025 0.0
H404 H 0.41567 0.25464 0.49245 0.0
H405 H 0.39765 0.21456 0.42956 0.0
H406 H 0.38576 0.24835 0.40723 0.0
H407 H 0.35017 0.19718 0.40853 0.0
H408 H 0.23053 0.18143 0.48836 0.0
H409 H 0.22934 0.23848 0.46153 0.0
H410 H 0.35124 0.28995 0.43064 0.0
C411 C 0.35759 0.17077 0.5033 0.0
C412 C 0.33488 0.13771 0.52625 0.0
C413 C 0.29472 0.12446 0.53132 0.0
C414 C 0.27743 0.14412 0.51417 0.0
C415 C 0.30067 0.17679 0.49191 0.0
C416 C 0.33988 0.19005 0.48641 0.0
C417 C 0.35892 0.2274 0.46339 0.0
C418 C 0.39171 0.26083 0.48648 0.0
C419 C 0.37401 0.2215 0.42489 0.0
C420 C 0.32453 0.23366 0.45772 0.0
C421 C 0.29111 0.20388 0.47402 0.0
C422 C 0.25632 0.20461 0.47495 0.0
C423 C 0.25592 0.23709 0.45967 0.0
C424 C 0.29008 0.26832 0.4437 0.0
C425 C 0.3245 0.26607 0.44191 0.0
H426 H 0.80848 0.19915 0.48006 0.0
H427 H 0.89765 0.17636 0.52439 0.0
H428 H 0.86556 0.11224 0.49286 0.0
H429 H 0.7307 0.10676 0.49605 0.0
H430 H 0.70381 0.10438 0.45343 0.0
H431 H 0.73689 0.15081 0.4744 0.0
H432 H 0.77349 0.17396 0.40976 0.0
H433 H 0.7405 0.12738 0.38861 0.0
H434 H 0.7923 0.14583 0.38725 0.0
H435 H 0.81998 0.04793 0.46434 0.0
H436 H 0.7628 0.98716 0.44179 0.0
H437 H 0.70345 0.05122 0.4146 0.0
C438 C 0.82168 0.18099 0.4823 0.0
C439 C 0.85559 0.19273 0.5045 0.0
C440 C 0.87167 0.16793 0.50748 0.0
C441 C 0.85381 0.13154 0.48946 0.0
C442 C 0.82 0.12042 0.46837 0.0
C443 C 0.80409 0.1444 0.46455 0.0
C444 C 0.76553 0.12387 0.4434 0.0
C445 C 0.73229 0.1213 0.46831 0.0
C446 C 0.76813 0.14396 0.40497 0.0
C447 C 0.76156 0.08419 0.43737 0.0
C448 C 0.7936 0.08303 0.45145 0.0
C449 C 0.79507 0.04862 0.45245 0.0
C450 C 0.7625 0.01426 0.43962 0.0
C451 C 0.72902 0.01466 0.42604 0.0
C452 C 0.72906 0.05027 0.42394 0.0
H453 H 0.93241 0.63191 0.41861 0.0
H454 H 0.98237 0.75552 0.39841 0.0
H455 H 0.9179 0.7496 0.40892 0.0
H456 H 0.82997 0.59869 0.38206 0.0
H457 H 0.80889 0.56395 0.4205 0.0
H458 H 0.85568 0.57558 0.40121 0.0
H459 H 0.88581 0.59379 0.46922 0.0
H460 H 0.8394 0.58254 0.48864 0.0
H461 H 0.88131 0.63002 0.49636 0.0
H462 H 0.85203 0.73279 0.43141 0.0
H463 H 0.7915 0.70794 0.46875 0.0
H464 H 0.78516 0.59584 0.47903 0.0
C465 C 0.92918 0.65726 0.41465 0.0
C466 C 0.9618 0.69397 0.40675 0.0
C467 C 0.95734 0.72707 0.40375 0.0
C468 C 0.92086 0.7239 0.40952 0.0
C469 C 0.88936 0.6875 0.41871 0.0
C470 C 0.89317 0.65471 0.42138 0.0
C471 C 0.85691 0.62069 0.43824 0.0
C472 C 0.83666 0.58778 0.40873 0.0
C473 C 0.86645 0.60594 0.4753 0.0
C474 C 0.83288 0.63993 0.44631 0.0
C475 C 0.85163 0.67811 0.43374 0.0
C476 C 0.83672 0.70275 0.44075 0.0
C477 C 0.80235 0.68838 0.46206 0.0
C478 C 0.78364 0.64994 0.47667 0.0
C479 C 0.79857 0.62517 0.46775 0.0
H480 H 0.23878 0.34653 0.30134 0.0
H481 H 0.29962 0.46911 0.33114 0.0
H482 H 0.26823 0.48249 0.27629 0.0
H483 H 0.24055 0.35829 0.19688 0.0
H484 H 0.19229 0.31696 0.19117 0.0
H485 H 0.22282 0.31822 0.23013 0.0
H486 H 0.16859 0.3073 0.2783 0.0
H487 H 0.13811 0.30654 0.2396 0.0
H488 H 0.14985 0.34045 0.27855 0.0
H489 H 0.22667 0.48142 0.22003 0.0
H490 H 0.17959 0.46618 0.16694 0.0
H491 H 0.14459 0.3439 0.1764 0.0
C492 C 0.24627 0.37636 0.29582 0.0
C493 C 0.27201 0.40688 0.32024 0.0
C494 C 0.28029 0.44536 0.31255 0.0
C495 C 0.26252 0.45319 0.28154 0.0
C496 C 0.23644 0.42219 0.25862 0.0
C497 C 0.22851 0.38456 0.26535 0.0
C498 C 0.19773 0.35602 0.23808 0.0
C499 C 0.21435 0.33622 0.21255 0.0
C500 C 0.16143 0.32581 0.25995 0.0
C501 C 0.18918 0.38333 0.21516 0.0
C502 C 0.21196 0.42143 0.22717 0.0
C503 C 0.20882 0.45169 0.21033 0.0
C504 C 0.18194 0.44277 0.18029 0.0
C505 C 0.15833 0.40387 0.16766 0.0
C506 C 0.16208 0.3739 0.18552 0.0
H507 H 0.65296 0.75664 0.19489 0.0
H508 H 0.53338 0.70773 0.15609 0.0
H509 H 0.52056 0.74112 0.20912 0.0
H510 H 0.63368 0.75386 0.29835 0.0
H511 H 0.67761 0.79959 0.30676 0.0
H512 H 0.67574 0.76833 0.26841 0.0
H513 H 0.69625 0.82516 0.2204 0.0
H514 H 0.69757 0.8564 0.25843 0.0
H515 H 0.66759 0.84887 0.2168 0.0
H516 H 0.52231 0.78368 0.2637 0.0
H517 H 0.53775 0.83009 0.31711 0.0
H518 H 0.65682 0.85256 0.31849 0.0
C519 C 0.62379 0.75212 0.19812 0.0
C520 C 0.59402 0.72929 0.17165 0.0
C521 C 0.55649 0.72482 0.1763 0.0
C522 C 0.54899 0.74376 0.20625 0.0
C523 C 0.57936 0.76706 0.23116 0.0
C524 C 0.61594 0.77106 0.22757 0.0
C525 C 0.64416 0.79951 0.25667 0.0
C526 C 0.65864 0.77909 0.28418 0.0
C527 C 0.6784 0.83455 0.23687 0.0
C528 C 0.61792 0.81132 0.27691 0.0
C529 C 0.5806 0.79213 0.26196 0.0
C530 C 0.55138 0.7987 0.27577 0.0
C531 C 0.56046 0.82521 0.30597 0.0
C532 C 0.59849 0.84499 0.32181 0.0
C533 C 0.62753 0.83801 0.30685 0.0
H534 H 0.25053 0.89697 0.22111 0.0
H535 H 0.29874 0.82784 0.17686 0.0
H536 H 0.26214 0.7774 0.22594 0.0
H537 H 0.24318 0.86848 0.32355 0.0
H538 H 0.19737 0.8674 0.32852 0.0
H539 H 0.23333 0.90069 0.29527 0.0
H540 H 0.182 0.8723 0.24075 0.0
H541 H 0.14615 0.83834 0.27348 0.0
H542 H 0.15788 0.82084 0.23076 0.0
H543 H 0.21502 0.73187 0.27744 0.0
H544 H 0.16174 0.6961 0.32454 0.0
H545 H 0.14119 0.79369 0.32823 0.0
C546 C 0.25464 0.87196 0.22262 0.0
C547 C 0.278 0.8666 0.19567 0.0
C548 C 0.28144 0.83275 0.19771 0.0
C549 C 0.26067 0.80393 0.2254 0.0
C550 C 0.23641 0.80936 0.25049 0.0
C551 C 0.23351 0.84272 0.2493 0.0
C552 C 0.2023 0.84 0.276 0.0
C553 C 0.22012 0.87098 0.30772 0.0
C554 C 0.1702 0.84303 0.25391 0.0
C555 C 0.18739 0.7996 0.29186 0.0
C556 C 0.20779 0.7825 0.27761 0.0
C557 C 0.1989 0.74507 0.28872 0.0
C558 C 0.16857 0.7249 0.31524 0.0
C559 C 0.14702 0.74191 0.32931 0.0
C560 C 0.15667 0.77963 0.31732 0.0
H561 H 0.83206 0.56666 0.80367 0.0
H562 H 0.93911 0.67702 0.78976 0.0
H563 H 0.91167 0.69088 0.73232 0.0
H564 H 0.81304 0.54547 0.69972 0.0
H565 H 0.76107 0.52362 0.70557 0.0
H566 H 0.79035 0.52099 0.7438 0.0
H567 H 0.76273 0.55229 0.79002 0.0
H568 H 0.73383 0.55556 0.75187 0.0
H569 H 0.76738 0.59867 0.77801 0.0
H570 H 0.87031 0.69628 0.68131 0.0
H571 H 0.82042 0.6895 0.63468 0.0
H572 H 0.74082 0.57423 0.67893 0.0
C573 C 0.85004 0.59333 0.78801 0.0
C574 C 0.88779 0.62075 0.80115 0.0
C575 C 0.91025 0.65548 0.78011 0.0
C576 C 0.89485 0.66369 0.74753 0.0
C577 C 0.85713 0.63664 0.73603 0.0
C578 C 0.83525 0.6018 0.75511 0.0
C579 C 0.79515 0.57817 0.73711 0.0
C580 C 0.78959 0.53979 0.72056 0.0
C581 C 0.76288 0.57075 0.76598 0.0
C582 C 0.7976 0.60563 0.70555 0.0
C583 C 0.83359 0.63924 0.70562 0.0
C584 C 0.84225 0.66985 0.68058 0.0
C585 C 0.8136 0.66582 0.65437 0.0
C586 C 0.77682 0.63129 0.65309 0.0
C587 C 0.7688 0.60082 0.67907 0.0
H588 H 0.3869 0.25841 0.79663 0.0
H589 H 0.40928 0.19658 0.88675 0.0
H590 H 0.41906 0.15707 0.83819 0.0
H591 H 0.3345 0.1782 0.73451 0.0
H592 H 0.35515 0.2053 0.69107 0.0
H593 H 0.35125 0.22964 0.73288 0.0
H594 H 0.4254 0.27877 0.73 0.0
H595 H 0.42953 0.25448 0.68818 0.0
H596 H 0.45932 0.26095 0.72969 0.0
H597 H 0.42055 0.12043 0.78036 0.0
H598 H 0.41755 0.09185 0.71656 0.0
H599 H 0.39925 0.18056 0.66382 0.0
C600 C 0.39409 0.23671 0.80605 0.0
C601 C 0.39723 0.23041 0.84537 0.0
C602 C 0.40684 0.2019 0.8567 0.0
C603 C 0.41245 0.17932 0.82937 0.0
C604 C 0.40898 0.18608 0.79081 0.0
C605 C 0.40047 0.21435 0.77908 0.0
C606 C 0.39811 0.21548 0.73584 0.0
C607 C 0.35733 0.20661 0.72282 0.0
C608 C 0.43 0.25475 0.72 0.0
C609 C 0.40571 0.18283 0.72518 0.0
C610 C 0.41178 0.16616 0.75732 0.0
C611 C 0.41656 0.13367 0.75491 0.0
C612 C 0.41477 0.11762 0.71866 0.0
C613 C 0.40884 0.13445 0.68543 0.0
C614 C 0.4048 0.16775 0.68876 0.0
H615 H 0.78132 0.13736 0.81716 0.0
H616 H 0.69758 0.1771 0.82687 0.0
H617 H 0.7255 0.21792 0.76903 0.0
H618 H 0.86186 0.22996 0.78804 0.0
H619 H 0.88174 0.20865 0.75608 0.0
H620 H 0.85448 0.18204 0.79757 0.0
H621 H 0.80771 0.12432 0.75421 0.0
H622 H 0.83484 0.15071 0.7126 0.0
H623 H 0.78317 0.13282 0.715 0.0
H624 H 0.76102 0.25203 0.70849 0.0
H625 H 0.80405 0.28019 0.65221 0.0
H626 H 0.86716 0.22132 0.6852 0.0
C627 C 0.76874 0.15452 0.80698 0.0
C628 C 0.7371 0.15391 0.8261 0.0
C629 C 0.72179 0.17718 0.81243 0.0
C630 C 0.73742 0.20036 0.77966 0.0
C631 C 0.76869 0.20032 0.76143 0.0
C632 C 0.78443 0.17831 0.77484 0.0
C633 C 0.81864 0.18416 0.75073 0.0
C634 C 0.85641 0.20229 0.77453 0.0
C635 C 0.81059 0.14571 0.73202 0.0
C636 C 0.81942 0.21254 0.72128 0.0
C637 C 0.79022 0.22131 0.72776 0.0
C638 C 0.78422 0.24569 0.70336 0.0
C639 C 0.80871 0.26146 0.67149 0.0
C640 C 0.83904 0.25315 0.66469 0.0
C641 C 0.84453 0.22858 0.69007 0.0
H642 H 0.06344 0.46509 0.98782 0.0
H643 H 0.99155 0.41812 0.08914 0.0
H644 H 0.94747 0.44062 0.06518 0.0
H645 H 0.05516 0.55184 0.98265 0.0
H646 H 0.0546 0.5525 0.93104 0.0
H647 H 0.07966 0.53155 0.95584 0.0
H648 H 0.03869 0.46719 0.91834 0.0
H649 H 0.01296 0.48774 0.89399 0.0
H650 H 0.98625 0.44294 0.92041 0.0
H651 H 0.91024 0.46645 0.0297 0.0
H652 H 0.88804 0.50334 0.99024 0.0
H653 H 0.98547 0.53641 0.91317 0.0
C654 C 0.03855 0.45981 0.00502 0.0
C655 C 0.03086 0.43985 0.04032 0.0
C656 C 0.99813 0.43359 0.06214 0.0
C657 C 0.9727 0.44591 0.0486 0.0
C658 C 0.98063 0.46481 0.01336 0.0
C659 C 0.01315 0.47247 0.9922 0.0
C660 C 0.01601 0.49523 0.95625 0.0
C661 C 0.05358 0.53515 0.95648 0.0
C662 C 0.01331 0.47187 0.92011 0.0
C663 C 0.98012 0.49929 0.96063 0.0
C664 C 0.95977 0.4809 0.99343 0.0
C665 C 0.92594 0.48103 0.00397 0.0
C666 C 0.91341 0.50186 0.98121 0.0
C667 C 0.93496 0.52269 0.94859 0.0
C668 C 0.96818 0.52049 0.93773 0.0
H669 H 0.52945 0.56228 0.06362 0.0
H670 H 0.59759 0.61639 0.96151 0.0
H671 H 0.57023 0.55197 0.93091 0.0
H672 H 0.53737 0.47555 0.06133 0.0
H673 H 0.48801 0.44376 0.0769 0.0
H674 H 0.5134 0.49408 0.09147 0.0
H675 H 0.45798 0.50338 0.06322 0.0
H676 H 0.43223 0.453 0.04903 0.0
H677 H 0.44362 0.49054 0.01393 0.0
H678 H 0.53625 0.48217 0.91147 0.0
H679 H 0.4927 0.41165 0.90193 0.0
H680 H 0.44533 0.40257 0.01592 0.0
C681 C 0.53846 0.56052 0.03479 0.0
C682 C 0.56564 0.59428 0.01492 0.0
C683 C 0.57669 0.59089 0.9772 0.0
C684 C 0.56151 0.55442 0.95965 0.0
C685 C 0.53518 0.52166 0.98014 0.0
C686 C 0.52335 0.52431 0.01668 0.0
C687 C 0.49357 0.4846 0.03177 0.0
C688 C 0.50903 0.47388 0.06749 0.0
C689 C 0.45454 0.48278 0.03995 0.0
C690 C 0.49039 0.45931 0.9979 0.0
C691 C 0.515 0.48127 0.96862 0.0
C692 C 0.51686 0.46461 0.93417 0.0
C693 C 0.49212 0.42453 0.92908 0.0
C694 C 0.46573 0.40168 0.9582 0.0
C695 C 0.46541 0.41927 0.99327 0.0
H696 H 0.43492 0.98342 0.07679 0.0
H697 H 0.36356 0.95056 0.97402 0.0
H698 H 0.42306 0.98047 0.93428 0.0
H699 H 0.50984 0.07621 0.04264 0.0
H700 H 0.54892 0.07297 0.06567 0.0
H701 H 0.50078 0.04845 0.08613 0.0
H702 H 0.50037 0.98287 0.08444 0.0
H703 H 0.54867 0.00726 0.06441 0.0
H704 H 0.50981 0.96614 0.0399 0.0
H705 H 0.49023 0.01386 0.90586 0.0
H706 H 0.56041 0.04587 0.89062 0.0
H707 H 0.58784 0.05802 0.01203 0.0
C708 C 0.43181 0.98225 0.04591 0.0
C709 C 0.39467 0.96456 0.02843 0.0
C710 C 0.39178 0.96387 0.98797 0.0
C711 C 0.42537 0.98089 0.96518 0.0
C712 C 0.46157 -0.00141 0.98335 0.0
C713 C 0.46501 -0.00075 0.02277 0.0
C714 C 0.50733 0.02006 0.03513 0.0
C715 C 0.51729 0.05659 0.05879 0.0
C716 C 0.51711 0.99243 0.05727 0.0
C717 C 0.52718 0.03074 0.99648 0.0
C718 C 0.50026 0.01823 0.96698 0.0
C719 C 0.51159 0.02392 0.9287 0.0
C720 C 0.55149 0.0422 0.92034 0.0
C721 C 0.57951 0.05459 0.95014 0.0
C722 C 0.5671 0.04925 0.98866 0.0
H723 H 0.55299 0.95475 0.509 0.0
H724 H 0.56676 0.99445 0.39117 0.0
H725 H 0.5397 0.03668 0.40797 0.0
H726 H 0.46157 0.94987 0.52437 0.0
H727 H 0.47198 0.96599 0.57344 0.0
H728 H 0.49438 0.94059 0.5524 0.0
H729 H 0.5625 0.99808 0.57036 0.0
H730 H 0.54027 0.0239 0.59101 0.0
H731 H 0.5765 0.04648 0.55406 0.0
H732 H 0.51012 0.07351 0.437 0.0
H733 H 0.47391 0.09754 0.47491 0.0
H734 H 0.47832 0.03324 0.57368 0.0
C735 C 0.55034 0.97238 0.48679 0.0
C736 C 0.56198 0.9714 0.44881 0.0
C737 C 0.55787 0.99468 0.42044 0.0
C738 C 0.54282 0.01897 0.42975 0.0
C739 C 0.53193 0.01955 0.46752 0.0
C740 C 0.53509 0.9966 0.49552 0.0
C741 C 0.51929 0.00113 0.53344 0.0
C742 C 0.48475 0.96208 0.54667 0.0
C743 C 0.55157 0.01843 0.56402 0.0
C744 C 0.50624 0.02977 0.52222 0.0
C745 C 0.51433 0.04045 0.4842 0.0
C746 C 0.50379 0.06553 0.46686 0.0
C747 C 0.48336 0.07913 0.48865 0.0
C748 C 0.47345 0.06736 0.52724 0.0
C749 C 0.48588 0.04309 0.54438 0.0
H750 H 0.938 0.40294 0.48143 0.0
H751 H 0.91959 0.41996 0.60063 0.0
H752 H 0.94659 0.49015 0.58866 0.0
H753 H 0.02873 0.48708 0.47311 0.0
H754 H 0.02209 0.49866 0.42474 0.0
H755 H 0.99657 0.44891 0.44088 0.0
H756 H 0.9305 0.44303 0.42204 0.0
H757 H 0.95587 0.49263 0.40524 0.0
H758 H 0.91793 0.47777 0.44056 0.0
H759 H 0.98042 0.55854 0.56561 0.0
H760 H 0.01691 0.62139 0.53209 0.0
H761 H 0.01532 0.56091 0.42789 0.0
C762 C 0.93862 0.42131 0.50467 0.0
C763 C 0.92636 0.40611 0.54186 0.0
C764 C 0.92862 0.43111 0.57189 0.0
C765 C 0.94392 0.47096 0.56537 0.0
C766 C 0.95695 0.48532 0.5287 0.0
C767 C 0.95425 0.46133 0.49874 0.0
C768 C 0.9729 0.4847 0.46278 0.0
C769 C 0.0071 0.47952 0.44963 0.0
C770 C 0.94248 0.47389 0.43076 0.0
C771 C 0.98706 0.52557 0.47746 0.0
C772 C 0.97728 0.52516 0.51549 0.0
C773 C 0.98797 0.55927 0.53573 0.0
C774 C 0.00885 0.59482 0.51648 0.0
C775 C 0.019 0.596 0.47744 0.0
C776 C 0.00802 0.56087 0.45777 0.0
H777 H 0.44054 0.44823 0.43418 0.0
H778 H 0.37575 0.42448 0.54035 0.0
H779 H 0.43703 0.4508 0.57709 0.0
H780 H 0.51275 0.42434 0.46895 0.0
H781 H 0.55223 0.46294 0.44259 0.0
H782 H 0.50314 0.44096 0.42433 0.0
H783 H 0.50806 0.50864 0.42127 0.0
H784 H 0.55731 0.53081 0.43888 0.0
H785 H 0.52191 0.53861 0.46365 0.0
H786 H 0.50534 0.48203 0.60233 0.0
H787 H 0.57634 0.52039 0.61384 0.0
H788 H 0.59675 0.52255 0.49159 0.0
C789 C 0.43929 0.44863 0.46515 0.0
C790 C 0.40338 0.43436 0.48441 0.0
C791 C 0.40294 0.43533 0.52497 0.0
C792 C 0.43757 0.44999 0.54612 0.0
C793 C 0.47243 0.46342 0.52633 0.0
C794 C 0.47363 0.46311 0.48676 0.0
C795 C 0.51514 0.48074 0.47253 0.0
C796 C 0.52115 0.45043 0.45082 0.0
C797 C 0.52625 0.51684 0.44763 0.0
C798 C 0.5371 0.49166 0.51025 0.0
C799 C 0.51189 0.48106 0.54096 0.0
C800 C 0.52539 0.49012 0.57855 0.0
C801 C 0.56575 0.51175 0.58484 0.0
C802 C 0.59205 0.52406 0.55368 0.0
C803 C 0.57742 0.51286 0.51606 0.0
loop_
_geom_bond_atom_site_label_1
_geom_bond_atom_site_label_2
_geom_bond_distance
_geom_bond_site_symmetry_2
_ccdc_geom_bond_type
In0 O1 2.294 . S
In0 O2 2.326 . S
In0 O6 2.266 . S
In0 O7 2.326 . S
In0 O8 2.266 . S
In0 O9 2.326 . S
In0 O11 2.294 . S
In0 O12 2.326 . S
O1 In0 2.294 . S
O1 C10 1.240 . S
O2 In0 2.326 . S
O2 C10 1.252 . S
C3 O6 1.252 . S
C3 O7 1.260 . S
C4 O11 1.240 . S
C4 O12 1.252 . S
C5 O8 1.252 . S
C5 O9 1.260 . S
O6 In0 2.266 . S
O6 C3 1.252 . S
O7 In0 2.326 . S
O7 C3 1.260 . S
O8 In0 2.266 . S
O8 C5 1.252 . S
O9 In0 2.326 . S
O9 C5 1.260 . S
C10 O1 1.240 . S
C10 O2 1.252 . S
O11 In0 2.294 . S
O11 C4 1.240 . S
O12 In0 2.326 . S
O12 C4 1.252 . S
In13 O14 2.294 . S
In13 O15 2.326 . S
In13 O19 2.266 . S
In13 O20 2.326 . S
In13 O21 2.266 . S
In13 O22 2.326 . S
In13 O24 2.294 . S
In13 O25 2.326 . S
O14 In13 2.294 . S
O14 C23 1.240 . S
O15 In13 2.326 . S
O15 C23 1.252 . S
C16 O19 1.252 . S
C16 O20 1.260 . S
C17 O24 1.240 . S
C17 O25 1.252 . S
C18 O21 1.252 . S
C18 O22 1.260 . S
O19 In13 2.266 . S
O19 C16 1.252 . S
O20 In13 2.326 . S
O20 C16 1.260 . S
O21 In13 2.266 . S
O21 C18 1.252 . S
O22 In13 2.326 . S
O22 C18 1.260 . S
C23 O14 1.240 . S
C23 O15 1.252 . S
O24 In13 2.294 . S
O24 C17 1.240 . S
O25 In13 2.326 . S
O25 C17 1.252 . S
In26 O27 2.294 . S
In26 O28 2.326 . S
In26 O32 2.266 . S
In26 O33 2.326 . S
In26 O34 2.266 . S
In26 O35 2.326 . S
In26 O37 2.294 . S
In26 O38 2.326 . S
O27 In26 2.294 . S
O27 C36 1.240 . S
O28 In26 2.326 . S
O28 C36 1.252 . S
C29 O32 1.252 . S
C29 O33 1.260 . S
C30 O37 1.240 . S
C30 O38 1.252 . S
C31 O34 1.252 . S
C31 O35 1.260 . S
O32 In26 2.266 . S
O32 C29 1.252 . S
O33 In26 2.326 . S
O33 C29 1.260 . S
O34 In26 2.266 . S
O34 C31 1.252 . S
O35 In26 2.326 . S
O35 C31 1.260 . S
C36 O27 1.240 . S
C36 O28 1.252 . S
O37 In26 2.294 . S
O37 C30 1.240 . S
O38 In26 2.326 . S
O38 C30 1.252 . S
In39 O40 2.294 . S
In39 O41 2.326 . S
In39 O45 2.266 . S
In39 O46 2.326 . S
In39 O47 2.266 . S
In39 O48 2.326 . S
In39 O50 2.294 . S
In39 O51 2.326 . S
O40 In39 2.294 . S
O40 C49 1.240 . S
O41 In39 2.326 . S
O41 C49 1.252 . S
C42 O45 1.252 . S
C42 O46 1.260 . S
C43 O50 1.240 . S
C43 O51 1.252 . S
C44 O47 1.252 . S
C44 O48 1.260 . S
O45 In39 2.266 . S
O45 C42 1.252 . S
O46 In39 2.326 . S
O46 C42 1.260 . S
O47 In39 2.266 . S
O47 C44 1.252 . S
O48 In39 2.326 . S
O48 C44 1.260 . S
C49 O40 1.240 . S
C49 O41 1.252 . S
O50 In39 2.294 . S
O50 C43 1.240 . S
O51 In39 2.326 . S
O51 C43 1.252 . S
In52 O53 2.294 . S
In52 O54 2.326 . S
In52 O58 2.266 . S
In52 O59 2.326 . S
In52 O60 2.266 . S
In52 O61 2.326 . S
In52 O63 2.294 . S
In52 O64 2.326 . S
O53 In52 2.294 . S
O53 C62 1.240 . S
O54 In52 2.326 . S
O54 C62 1.252 . S
C55 O58 1.252 . S
C55 O59 1.260 . S
C56 O63 1.240 . S
C56 O64 1.252 . S
C57 O60 1.252 . S
C57 O61 1.260 . S
O58 In52 2.266 . S
O58 C55 1.252 . S
O59 In52 2.326 . S
O59 C55 1.260 . S
O60 In52 2.266 . S
O60 C57 1.252 . S
O61 In52 2.326 . S
O61 C57 1.260 . S
C62 O53 1.240 . S
C62 O54 1.252 . S
O63 In52 2.294 . S
O63 C56 1.240 . S
O64 In52 2.326 . S
O64 C56 1.252 . S
In65 O66 2.294 . S
In65 O67 2.326 . S
In65 O71 2.266 . S
In65 O72 2.326 . S
In65 O73 2.266 . S
In65 O74 2.326 . S
In65 O76 2.294 . S
In65 O77 2.326 . S
O66 In65 2.294 . S
O66 C75 1.240 . S
O67 In65 2.326 . S
O67 C75 1.252 . S
C68 O71 1.252 . S
C68 O72 1.260 . S
C69 O76 1.240 . S
C69 O77 1.252 . S
C70 O73 1.252 . S
C70 O74 1.260 . S
O71 In65 2.266 . S
O71 C68 1.252 . S
O72 In65 2.326 . S
O72 C68 1.260 . S
O73 In65 2.266 . S
O73 C70 1.252 . S
O74 In65 2.326 . S
O74 C70 1.260 . S
C75 O66 1.240 . S
C75 O67 1.252 . S
O76 In65 2.294 . S
O76 C69 1.240 . S
O77 In65 2.326 . S
O77 C69 1.252 . S
In78 O79 2.294 . S
In78 O80 2.326 . S
In78 O84 2.266 . S
In78 O85 2.326 . S
In78 O86 2.266 . S
In78 O87 2.326 . S
In78 O89 2.294 . S
In78 O90 2.326 . S
O79 In78 2.294 . S
O79 C88 1.240 . S
O80 In78 2.326 . S
O80 C88 1.252 . S
C81 O84 1.252 . S
C81 O85 1.260 . S
C82 O89 1.240 . S
C82 O90 1.252 . S
C83 O86 1.252 . S
C83 O87 1.260 . S
O84 In78 2.266 . S
O84 C81 1.252 . S
O85 In78 2.326 . S
O85 C81 1.260 . S
O86 In78 2.266 . S
O86 C83 1.252 . S
O87 In78 2.326 . S
O87 C83 1.260 . S
C88 O79 1.240 . S
C88 O80 1.252 . S
O89 In78 2.294 . S
O89 C82 1.240 . S
O90 In78 2.326 . S
O90 C82 1.252 . S
In91 O92 2.294 . S
In91 O93 2.326 . S
In91 O97 2.266 . S
In91 O98 2.326 . S
In91 O99 2.266 . S
In91 O100 2.326 . S
In91 O102 2.294 . S
In91 O103 2.326 . S
O92 In91 2.294 . S
O92 C101 1.240 . S
O93 In91 2.326 . S
O93 C101 1.252 . S
C94 O97 1.252 . S
C94 O98 1.260 . S
C95 O102 1.240 . S
C95 O103 1.252 . S
C96 O99 1.252 . S
C96 O100 1.260 . S
O97 In91 2.266 . S
O97 C94 1.252 . S
O98 In91 2.326 . S
O98 C94 1.260 . S
O99 In91 2.266 . S
O99 C96 1.252 . S
O100 In91 2.326 . S
O100 C96 1.260 . S
C101 O92 1.240 . S
C101 O93 1.252 . S
O102 In91 2.294 . S
O102 C95 1.240 . S
O103 In91 2.326 . S
O103 C95 1.252 . S
In104 O105 2.294 . S
In104 O106 2.326 . S
In104 O110 2.266 . S
In104 O111 2.326 . S
In104 O112 2.266 . S
In104 O113 2.326 . S
In104 O115 2.294 . S
In104 O116 2.326 . S
O105 In104 2.294 . S
O105 C114 1.240 . S
O106 In104 2.326 . S
O106 C114 1.252 . S
C107 O110 1.252 . S
C107 O111 1.260 . S
C108 O115 1.240 . S
C108 O116 1.252 . S
C109 O112 1.252 . S
C109 O113 1.260 . S
O110 In104 2.266 . S
O110 C107 1.252 . S
O111 In104 2.326 . S
O111 C107 1.260 . S
O112 In104 2.266 . S
O112 C109 1.252 . S
O113 In104 2.326 . S
O113 C109 1.260 . S
C114 O105 1.240 . S
C114 O106 1.252 . S
O115 In104 2.294 . S
O115 C108 1.240 . S
O116 In104 2.326 . S
O116 C108 1.252 . S
In117 O118 2.294 . S
In117 O119 2.326 . S
In117 O123 2.266 . S
In117 O124 2.326 . S
In117 O125 2.266 . S
In117 O126 2.326 . S
In117 O128 2.294 . S
In117 O129 2.326 . S
O118 In117 2.294 . S
O118 C127 1.240 . S
O119 In117 2.326 . S
O119 C127 1.252 . S
C120 O123 1.252 . S
C120 O124 1.260 . S
C121 O128 1.240 . S
C121 O129 1.252 . S
C122 O125 1.252 . S
C122 O126 1.260 . S
O123 In117 2.266 . S
O123 C120 1.252 . S
O124 In117 2.326 . S
O124 C120 1.260 . S
O125 In117 2.266 . S
O125 C122 1.252 . S
O126 In117 2.326 . S
O126 C122 1.260 . S
C127 O118 1.240 . S
C127 O119 1.252 . S
O128 In117 2.294 . S
O128 C121 1.240 . S
O129 In117 2.326 . S
O129 C121 1.252 . S
In130 O131 2.294 . S
In130 O132 2.326 . S
In130 O136 2.266 . S
In130 O137 2.326 . S
In130 O138 2.266 . S
In130 O139 2.326 . S
In130 O141 2.294 . S
In130 O142 2.326 . S
O131 In130 2.294 . S
O131 C140 1.240 . S
O132 In130 2.326 . S
O132 C140 1.252 . S
C133 O136 1.252 . S
C133 O137 1.260 . S
C134 O141 1.240 . S
C134 O142 1.252 . S
C135 O138 1.252 . S
C135 O139 1.260 . S
O136 In130 2.266 . S
O136 C133 1.252 . S
O137 In130 2.326 . S
O137 C133 1.260 . S
O138 In130 2.266 . S
O138 C135 1.252 . S
O139 In130 2.326 . S
O139 C135 1.260 . S
C140 O131 1.240 . S
C140 O132 1.252 . S
O141 In130 2.294 . S
O141 C134 1.240 . S
O142 In130 2.326 . S
O142 C134 1.252 . S
In143 O144 2.294 . S
In143 O145 2.326 . S
In143 O149 2.266 . S
In143 O150 2.326 . S
In143 O151 2.266 . S
In143 O152 2.326 . S
In143 O154 2.294 . S
In143 O155 2.326 . S
O144 In143 2.294 . S
O144 C153 1.240 . S
O145 In143 2.326 . S
O145 C153 1.252 . S
C146 O149 1.252 . S
C146 O150 1.260 . S
C147 O154 1.240 . S
C147 O155 1.252 . S
C148 O151 1.252 . S
C148 O152 1.260 . S
O149 In143 2.266 . S
O149 C146 1.252 . S
O150 In143 2.326 . S
O150 C146 1.260 . S
O151 In143 2.266 . S
O151 C148 1.252 . S
O152 In143 2.326 . S
O152 C148 1.260 . S
C153 O144 1.240 . S
C153 O145 1.252 . S
O154 In143 2.294 . S
O154 C147 1.240 . S
O155 In143 2.326 . S
O155 C147 1.252 . S
H156 C168 0.930 . S
H157 C170 0.930 . S
H158 C171 0.930 . S
H159 C175 0.959 . S
H160 C175 0.959 1_556 S
H161 C175 0.961 . S
H162 C176 0.960 . S
H163 C176 0.961 . S
H164 C176 0.959 . S
H165 C179 0.929 . S
H166 C180 0.931 . S
H167 C182 0.930 . S
C168 H156 0.930 . S
C168 C169 1.399 . S
C168 C173 1.399 . S
C169 C168 1.399 . S
C169 C170 1.376 . S
C170 H157 0.930 . S
C170 C169 1.376 . S
C170 C171 1.388 . S
C171 H158 0.930 . S
C171 C170 1.388 . S
C171 C172 1.390 . S
C172 C171 1.390 . S
C172 C173 1.394 . S
C172 C178 1.465 1_554 S
C173 C168 1.399 . S
C173 C172 1.394 . S
C173 C174 1.516 1_554 S
C174 C173 1.516 1_556 S
C174 C175 1.502 1_556 S
C174 C176 1.561 . S
C174 C177 1.526 . S
C175 H159 0.959 . S
C175 H160 0.959 1_554 S
C175 H161 0.961 . S
C175 C174 1.502 1_554 S
C176 H162 0.960 . S
C176 H163 0.961 . S
C176 H164 0.959 . S
C176 C174 1.561 . S
C177 C174 1.526 . S
C177 C178 1.396 . S
C177 C182 1.390 . S
C178 C172 1.465 1_556 S
C178 C177 1.396 . S
C178 C179 1.399 . S
C179 H165 0.929 . S
C179 C178 1.399 . S
C179 C180 1.385 . S
C180 H166 0.931 . S
C180 C179 1.385 . S
C180 C181 1.389 . S
C181 C180 1.389 . S
C181 C182 1.387 . S
C182 H167 0.930 . S
C182 C177 1.390 . S
C182 C181 1.387 . S
H183 C195 0.930 . S
H184 C197 0.930 . S
H185 C198 0.930 . S
H186 C202 0.959 . S
H187 C202 0.959 . S
H188 C202 0.961 . S
H189 C203 0.960 . S
H190 C203 0.961 . S
H191 C203 0.959 . S
H192 C206 0.929 . S
H193 C207 0.931 . S
H194 C209 0.930 . S
C195 H183 0.930 . S
C195 C196 1.399 . S
C195 C200 1.399 . S
C196 C195 1.399 . S
C196 C197 1.376 1_554 S
C197 H184 0.930 . S
C197 C196 1.376 1_556 S
C197 C198 1.388 . S
C198 H185 0.930 . S
C198 C197 1.388 . S
C198 C199 1.390 . S
C199 C198 1.390 . S
C199 C200 1.394 1_556 S
C199 C205 1.465 . S
C200 C195 1.399 . S
C200 C199 1.394 1_554 S
C200 C201 1.516 . S
C201 C200 1.516 . S
C201 C202 1.502 . S
C201 C203 1.561 . S
C201 C204 1.526 . S
C202 H186 0.959 . S
C202 H187 0.959 . S
C202 H188 0.961 . S
C202 C201 1.502 . S
C203 H189 0.960 . S
C203 H190 0.961 . S
C203 H191 0.959 . S
C203 C201 1.561 . S
C204 C201 1.526 . S
C204 C205 1.396 1_554 S
C204 C209 1.390 . S
C205 C199 1.465 . S
C205 C204 1.396 1_556 S
C205 C206 1.399 . S
C206 H192 0.929 . S
C206 C205 1.399 . S
C206 C207 1.385 . S
C207 H193 0.931 . S
C207 C206 1.385 . S
C207 C208 1.389 . S
C208 C207 1.389 . S
C208 C209 1.387 1_556 S
C209 H194 0.930 . S
C209 C204 1.390 . S
C209 C208 1.387 1_554 S
H210 C222 0.930 . S
H211 C224 0.930 . S
H212 C225 0.930 . S
H213 C229 0.959 . S
H214 C229 0.959 . S
H215 C229 0.961 . S
H216 C230 0.960 . S
H217 C230 0.961 . S
H218 C230 0.959 . S
H219 C233 0.929 . S
H220 C234 0.931 1_655 S
H221 C236 0.930 . S
C222 H210 0.930 . S
C222 C223 1.399 1_556 S
C222 C227 1.399 . S
C223 C222 1.399 1_554 S
C223 C224 1.376 . S
C224 H211 0.930 . S
C224 C223 1.376 . S
C224 C225 1.388 . S
C225 H212 0.930 . S
C225 C224 1.388 . S
C225 C226 1.390 . S
C226 C225 1.390 . S
C226 C227 1.394 1_554 S
C226 C232 1.465 . S
C227 C222 1.399 . S
C227 C226 1.394 1_556 S
C227 C228 1.516 . S
C228 C227 1.516 . S
C228 C229 1.502 . S
C228 C230 1.561 . S
C228 C231 1.526 . S
C229 H213 0.959 . S
C229 H214 0.959 . S
C229 H215 0.961 . S
C229 C228 1.502 . S
C230 H216 0.960 . S
C230 H217 0.961 . S
C230 H218 0.959 . S
C230 C228 1.561 . S
C231 C228 1.526 . S
C231 C232 1.396 1_556 S
C231 C236 1.390 . S
C232 C226 1.465 . S
C232 C231 1.396 1_554 S
C232 C233 1.399 . S
C233 H219 0.929 . S
C233 C232 1.399 . S
C233 C234 1.385 . S
C234 H220 0.931 1_455 S
C234 C233 1.385 . S
C234 C235 1.389 1_554 S
C235 C234 1.389 1_556 S
C235 C236 1.387 . S
C236 H221 0.930 . S
C236 C231 1.390 . S
C236 C235 1.387 . S
H237 C249 0.930 . S
H238 C251 0.930 . S
H239 C252 0.930 . S
H240 C256 0.959 . S
H241 C256 0.959 . S
H242 C256 0.961 . S
H243 C257 0.960 . S
H244 C257 0.961 . S
H245 C257 0.959 . S
H246 C260 0.929 . S
H247 C261 0.931 . S
H248 C263 0.930 . S
C249 H237 0.930 . S
C249 C250 1.399 . S
C249 C254 1.399 . S
C250 C249 1.399 . S
C250 C251 1.376 . S
C251 H238 0.930 . S
C251 C250 1.376 . S
C251 C252 1.388 . S
C252 H239 0.930 . S
C252 C251 1.388 . S
C252 C253 1.390 . S
C253 C252 1.390 . S
C253 C254 1.394 . S
C253 C259 1.465 . S
C254 C249 1.399 . S
C254 C253 1.394 . S
C254 C255 1.516 . S
C255 C254 1.516 . S
C255 C256 1.502 . S
C255 C257 1.561 . S
C255 C258 1.526 . S
C256 H240 0.959 . S
C256 H241 0.959 . S
C256 H242 0.961 . S
C256 C255 1.502 . S
C257 H243 0.960 . S
C257 H244 0.961 . S
C257 H245 0.959 . S
C257 C255 1.561 . S
C258 C255 1.526 . S
C258 C259 1.396 . S
C258 C263 1.390 . S
C259 C253 1.465 . S
C259 C258 1.396 . S
C259 C260 1.399 . S
C260 H246 0.929 . S
C260 C259 1.399 . S
C260 C261 1.385 . S
C261 H247 0.931 . S
C261 C260 1.385 . S
C261 C262 1.389 . S
C262 C261 1.389 . S
C262 C263 1.387 . S
C263 H248 0.930 . S
C263 C258 1.390 . S
C263 C262 1.387 . S
H264 C276 0.930 . S
H265 C278 0.930 . S
H266 C279 0.930 . S
H267 C283 0.959 . S
H268 C283 0.959 . S
H269 C283 0.961 . S
H270 C284 0.960 . S
H271 C284 0.961 . S
H272 C284 0.959 . S
H273 C287 0.929 . S
H274 C288 0.931 . S
H275 C290 0.930 . S
C276 H264 0.930 . S
C276 C277 1.399 . S
C276 C281 1.399 . S
C277 C276 1.399 . S
C277 C278 1.376 . S
C278 H265 0.930 . S
C278 C277 1.376 . S
C278 C279 1.388 . S
C279 H266 0.930 . S
C279 C278 1.388 . S
C279 C280 1.390 . S
C280 C279 1.390 . S
C280 C281 1.394 . S
C280 C286 1.465 . S
C281 C276 1.399 . S
C281 C280 1.394 . S
C281 C282 1.516 . S
C282 C281 1.516 . S
C282 C283 1.502 . S
C282 C284 1.561 . S
C282 C285 1.526 . S
C283 H267 0.959 . S
C283 H268 0.959 . S
C283 H269 0.961 . S
C283 C282 1.502 . S
C284 H270 0.960 . S
C284 H271 0.961 . S
C284 H272 0.959 . S
C284 C282 1.561 . S
C285 C282 1.526 . S
C285 C286 1.396 . S
C285 C290 1.390 . S
C286 C280 1.465 . S
C286 C285 1.396 . S
C286 C287 1.399 . S
C287 H273 0.929 . S
C287 C286 1.399 . S
C287 C288 1.385 . S
C288 H274 0.931 . S
C288 C287 1.385 . S
C288 C289 1.389 . S
C289 C288 1.389 . S
C289 C290 1.387 . S
C290 H275 0.930 . S
C290 C285 1.390 . S
C290 C289 1.387 . S
H291 C303 0.930 . S
H292 C305 0.930 . S
H293 C306 0.930 . S
H294 C310 0.959 . S
H295 C310 0.959 . S
H296 C310 0.961 . S
H297 C311 0.960 . S
H298 C311 0.961 . S
H299 C311 0.959 . S
H300 C314 0.929 . S
H301 C315 0.931 . S
H302 C317 0.930 . S
C303 H291 0.930 . S
C303 C304 1.399 . S
C303 C308 1.399 . S
C304 C303 1.399 . S
C304 C305 1.376 . S
C305 H292 0.930 . S
C305 C304 1.376 . S
C305 C306 1.388 . S
C306 H293 0.930 . S
C306 C305 1.388 . S
C306 C307 1.390 . S
C307 C306 1.390 . S
C307 C308 1.394 . S
C307 C313 1.465 . S
C308 C303 1.399 . S
C308 C307 1.394 . S
C308 C309 1.516 . S
C309 C308 1.516 . S
C309 C310 1.502 . S
C309 C311 1.561 . S
C309 C312 1.526 . S
C310 H294 0.959 . S
C310 H295 0.959 . S
C310 H296 0.961 . S
C310 C309 1.502 . S
C311 H297 0.960 . S
C311 H298 0.961 . S
C311 H299 0.959 . S
C311 C309 1.561 . S
C312 C309 1.526 . S
C312 C313 1.396 . S
C312 C317 1.390 . S
C313 C307 1.465 . S
C313 C312 1.396 . S
C313 C314 1.399 . S
C314 H300 0.929 . S
C314 C313 1.399 . S
C314 C315 1.385 . S
C315 H301 0.931 . S
C315 C314 1.385 . S
C315 C316 1.389 . S
C316 C315 1.389 . S
C316 C317 1.387 . S
C317 H302 0.930 . S
C317 C312 1.390 . S
C317 C316 1.387 . S
H318 C330 0.930 . S
H319 C332 0.930 . S
H320 C333 0.930 . S
H321 C337 0.959 . S
H322 C337 0.959 . S
H323 C337 0.961 . S
H324 C338 0.960 . S
H325 C338 0.961 . S
H326 C338 0.959 . S
H327 C341 0.929 . S
H328 C342 0.931 . S
H329 C344 0.930 . S
C330 H318 0.930 . S
C330 C331 1.399 . S
C330 C335 1.399 . S
C331 C330 1.399 . S
C331 C332 1.376 1_554 S
C332 H319 0.930 . S
C332 C331 1.376 1_556 S
C332 C333 1.388 . S
C333 H320 0.930 . S
C333 C332 1.388 . S
C333 C334 1.390 . S
C334 C333 1.390 . S
C334 C335 1.394 1_556 S
C334 C340 1.465 . S
C335 C330 1.399 . S
C335 C334 1.394 1_554 S
C335 C336 1.516 . S
C336 C335 1.516 . S
C336 C337 1.502 . S
C336 C338 1.561 . S
C336 C339 1.526 . S
C337 H321 0.959 . S
C337 H322 0.959 . S
C337 H323 0.961 . S
C337 C336 1.502 . S
C338 H324 0.960 . S
C338 H325 0.961 . S
C338 H326 0.959 . S
C338 C336 1.561 . S
C339 C336 1.526 . S
C339 C340 1.396 1_554 S
C339 C344 1.390 . S
C340 C334 1.465 . S
C340 C339 1.396 1_556 S
C340 C341 1.399 . S
C341 H327 0.929 . S
C341 C340 1.399 . S
C341 C342 1.385 . S
C342 H328 0.931 . S
C342 C341 1.385 . S
C342 C343 1.389 . S
C343 C342 1.389 . S
C343 C344 1.387 1_556 S
C344 H329 0.930 . S
C344 C339 1.390 . S
C344 C343 1.387 1_554 S
H345 C357 0.930 . S
H346 C359 0.930 . S
H347 C360 0.930 . S
H348 C364 0.959 . S
H349 C364 0.959 . S
H350 C364 0.961 . S
H351 C365 0.960 . S
H352 C365 0.961 . S
H353 C365 0.959 . S
H354 C368 0.929 . S
H355 C369 0.931 1_565 S
H356 C371 0.930 . S
C357 H345 0.930 . S
C357 C358 1.399 1_554 S
C357 C362 1.399 . S
C358 C357 1.399 1_556 S
C358 C359 1.376 . S
C359 H346 0.930 . S
C359 C358 1.376 . S
C359 C360 1.388 . S
C360 H347 0.930 . S
C360 C359 1.388 . S
C360 C361 1.390 . S
C361 C360 1.390 . S
C361 C362 1.394 1_556 S
C361 C367 1.465 . S
C362 C357 1.399 . S
C362 C361 1.394 1_554 S
C362 C363 1.516 . S
C363 C362 1.516 . S
C363 C364 1.502 . S
C363 C365 1.561 . S
C363 C366 1.526 . S
C364 H348 0.959 . S
C364 H349 0.959 . S
C364 H350 0.961 . S
C364 C363 1.502 . S
C365 H351 0.960 . S
C365 H352 0.961 . S
C365 H353 0.959 . S
C365 C363 1.561 . S
C366 C363 1.526 . S
C366 C367 1.396 1_554 S
C366 C371 1.390 . S
C367 C361 1.465 . S
C367 C366 1.396 1_556 S
C367 C368 1.399 . S
C368 H354 0.929 . S
C368 C367 1.399 . S
C368 C369 1.385 . S
C369 H355 0.931 1_545 S
C369 C368 1.385 . S
C369 C370 1.389 1_556 S
C370 C369 1.389 1_554 S
C370 C371 1.387 . S
C371 H356 0.930 . S
C371 C366 1.390 . S
C371 C370 1.387 . S
H372 C384 0.930 1_556 S
H373 C386 0.952 . S
H374 C387 0.930 . S
H375 C391 0.959 . S
H376 C391 0.959 . S
H377 C391 0.961 . S
H378 C392 0.960 . S
H379 C392 0.961 . S
H380 C392 0.959 . S
H381 C395 0.929 . S
H382 C396 0.931 . S
H383 C398 0.930 . S
C384 H372 0.930 1_554 S
C384 C385 1.399 . S
C384 C389 1.399 1_554 S
C385 C384 1.399 . S
C385 C386 1.376 . S
C386 H373 0.952 . S
C386 C385 1.376 . S
C386 C387 1.388 . S
C387 H374 0.930 . S
C387 C386 1.388 . S
C387 C388 1.390 . S
C388 C387 1.390 . S
C388 C389 1.394 1_554 S
C388 C394 1.465 . S
C389 C384 1.399 1_556 S
C389 C388 1.394 1_556 S
C389 C390 1.516 . S
C390 C389 1.516 . S
C390 C391 1.502 . S
C390 C392 1.561 . S
C390 C393 1.526 . S
C391 H375 0.959 . S
C391 H376 0.959 . S
C391 H377 0.961 . S
C391 C390 1.502 . S
C392 H378 0.960 . S
C392 H379 0.961 . S
C392 H380 0.959 . S
C392 C390 1.561 . S
C393 C390 1.526 . S
C393 C394 1.396 1_556 S
C393 C398 1.390 . S
C394 C388 1.465 . S
C394 C393 1.396 1_554 S
C394 C395 1.399 . S
C395 H381 0.929 . S
C395 C394 1.399 . S
C395 C396 1.385 . S
C396 H382 0.931 . S
C396 C395 1.385 . S
C396 C397 1.389 1_554 S
C397 C396 1.389 1_556 S
C397 C398 1.387 . S
C398 H383 0.930 . S
C398 C393 1.390 . S
C398 C397 1.387 . S
H399 C411 0.930 . S
H400 C413 0.930 . S
H401 C414 0.930 . S
H402 C418 0.959 . S
H403 C418 0.959 . S
H404 C418 0.961 . S
H405 C419 0.960 . S
H406 C419 0.961 . S
H407 C419 0.959 . S
H408 C422 0.929 . S
H409 C423 0.931 . S
H410 C425 0.930 . S
C411 H399 0.930 . S
C411 C412 1.399 . S
C411 C416 1.399 . S
C412 C411 1.399 . S
C412 C413 1.376 . S
C413 H400 0.930 . S
C413 C412 1.376 . S
C413 C414 1.388 . S
C414 H401 0.930 . S
C414 C413 1.388 . S
C414 C415 1.390 . S
C415 C414 1.390 . S
C415 C416 1.394 . S
C415 C421 1.465 . S
C416 C411 1.399 . S
C416 C415 1.394 . S
C416 C417 1.516 . S
C417 C416 1.516 . S
C417 C418 1.502 . S
C417 C419 1.561 . S
C417 C420 1.526 . S
C418 H402 0.959 . S
C418 H403 0.959 . S
C418 H404 0.961 . S
C418 C417 1.502 . S
C419 H405 0.960 . S
C419 H406 0.961 . S
C419 H407 0.959 . S
C419 C417 1.561 . S
C420 C417 1.526 . S
C420 C421 1.396 . S
C420 C425 1.390 . S
C421 C415 1.465 . S
C421 C420 1.396 . S
C421 C422 1.399 . S
C422 H408 0.929 . S
C422 C421 1.399 . S
C422 C423 1.385 . S
C423 H409 0.931 . S
C423 C422 1.385 . S
C423 C424 1.389 . S
C424 C423 1.389 . S
C424 C425 1.387 . S
C425 H410 0.930 . S
C425 C420 1.390 . S
C425 C424 1.387 . S
H426 C438 0.930 . S
H427 C440 0.930 . S
H428 C441 0.930 . S
H429 C445 0.959 . S
H430 C445 0.959 . S
H431 C445 0.961 . S
H432 C446 0.960 . S
H433 C446 0.961 . S
H434 C446 0.959 . S
H435 C449 0.929 . S
H436 C450 0.931 1_565 S
H437 C452 0.930 . S
C438 H426 0.930 . S
C438 C439 1.399 . S
C438 C443 1.399 . S
C439 C438 1.399 . S
C439 C440 1.376 . S
C440 H427 0.930 . S
C440 C439 1.376 . S
C440 C441 1.388 . S
C441 H428 0.930 . S
C441 C440 1.388 . S
C441 C442 1.390 . S
C442 C441 1.390 . S
C442 C443 1.394 . S
C442 C448 1.465 . S
C443 C438 1.399 . S
C443 C442 1.394 . S
C443 C444 1.516 . S
C444 C443 1.516 . S
C444 C445 1.502 . S
C444 C446 1.561 . S
C444 C447 1.526 . S
C445 H429 0.959 . S
C445 H430 0.959 . S
C445 H431 0.961 . S
C445 C444 1.502 . S
C446 H432 0.960 . S
C446 H433 0.961 . S
C446 H434 0.959 . S
C446 C444 1.561 . S
C447 C444 1.526 . S
C447 C448 1.396 . S
C447 C452 1.390 . S
C448 C442 1.465 . S
C448 C447 1.396 . S
C448 C449 1.399 . S
C449 H435 0.929 . S
C449 C448 1.399 . S
C449 C450 1.385 . S
C450 H436 0.931 1_545 S
C450 C449 1.385 . S
C450 C451 1.389 . S
C451 C450 1.389 . S
C451 C452 1.387 . S
C452 H437 0.930 . S
C452 C447 1.390 . S
C452 C451 1.387 . S
H453 C465 0.930 . S
H454 C467 0.930 1_455 S
H455 C468 0.930 . S
H456 C472 0.959 . S
H457 C472 0.959 . S
H458 C472 0.961 . S
H459 C473 0.960 . S
H460 C473 0.961 . S
H461 C473 0.959 . S
H462 C476 0.929 . S
H463 C477 0.931 . S
H464 C479 0.930 . S
C465 H453 0.930 . S
C465 C466 1.399 . S
C465 C470 1.399 . S
C466 C465 1.399 . S
C466 C467 1.376 . S
C467 H454 0.930 1_655 S
C467 C466 1.376 . S
C467 C468 1.388 . S
C468 H455 0.930 . S
C468 C467 1.388 . S
C468 C469 1.390 . S
C469 C468 1.390 . S
C469 C470 1.394 . S
C469 C475 1.465 . S
C470 C465 1.399 . S
C470 C469 1.394 . S
C470 C471 1.516 . S
C471 C470 1.516 . S
C471 C472 1.502 . S
C471 C473 1.561 . S
C471 C474 1.526 . S
C472 H456 0.959 . S
C472 H457 0.959 . S
C472 H458 0.961 . S
C472 C471 1.502 . S
C473 H459 0.960 . S
C473 H460 0.961 . S
C473 H461 0.959 . S
C473 C471 1.561 . S
C474 C471 1.526 . S
C474 C475 1.396 . S
C474 C479 1.390 . S
C475 C469 1.465 . S
C475 C474 1.396 . S
C475 C476 1.399 . S
C476 H462 0.929 . S
C476 C475 1.399 . S
C476 C477 1.385 . S
C477 H463 0.931 . S
C477 C476 1.385 . S
C477 C478 1.389 . S
C478 C477 1.389 . S
C478 C479 1.387 . S
C479 H464 0.930 . S
C479 C474 1.390 . S
C479 C478 1.387 . S
H480 C492 0.930 . S
H481 C494 0.930 . S
H482 C495 0.930 . S
H483 C499 0.959 . S
H484 C499 0.959 . S
H485 C499 0.961 . S
H486 C500 0.960 . S
H487 C500 0.961 . S
H488 C500 0.959 . S
H489 C503 0.929 . S
H490 C504 0.931 . S
H491 C506 0.930 . S
C492 H480 0.930 . S
C492 C493 1.399 . S
C492 C497 1.399 . S
C493 C492 1.399 . S
C493 C494 1.376 . S
C494 H481 0.930 . S
C494 C493 1.376 . S
C494 C495 1.388 . S
C495 H482 0.930 . S
C495 C494 1.388 . S
C495 C496 1.390 . S
C496 C495 1.390 . S
C496 C497 1.394 . S
C496 C502 1.465 . S
C497 C492 1.399 . S
C497 C496 1.394 . S
C497 C498 1.516 . S
C498 C497 1.516 . S
C498 C499 1.502 . S
C498 C500 1.561 . S
C498 C501 1.526 . S
C499 H483 0.959 . S
C499 H484 0.959 . S
C499 H485 0.961 . S
C499 C498 1.502 . S
C500 H486 0.960 . S
C500 H487 0.961 . S
C500 H488 0.959 . S
C500 C498 1.561 . S
C501 C498 1.526 . S
C501 C502 1.396 . S
C501 C506 1.390 . S
C502 C496 1.465 . S
C502 C501 1.396 . S
C502 C503 1.399 . S
C503 H489 0.929 . S
C503 C502 1.399 . S
C503 C504 1.385 . S
C504 H490 0.931 . S
C504 C503 1.385 . S
C504 C505 1.389 . S
C505 C504 1.389 . S
C505 C506 1.387 . S
C506 H491 0.930 . S
C506 C501 1.390 . S
C506 C505 1.387 . S
H507 C519 0.930 . S
H508 C521 0.930 . S
H509 C522 0.930 . S
H510 C526 0.959 . S
H511 C526 0.959 . S
H512 C526 0.961 . S
H513 C527 0.960 . S
H514 C527 0.961 . S
H515 C527 0.959 . S
H516 C530 0.929 . S
H517 C531 0.931 . S
H518 C533 0.930 . S
C519 H507 0.930 . S
C519 C520 1.399 . S
C519 C524 1.399 . S
C520 C519 1.399 . S
C520 C521 1.376 . S
C521 H508 0.930 . S
C521 C520 1.376 . S
C521 C522 1.388 . S
C522 H509 0.930 . S
C522 C521 1.388 . S
C522 C523 1.390 . S
C523 C522 1.390 . S
C523 C524 1.394 . S
C523 C529 1.465 . S
C524 C519 1.399 . S
C524 C523 1.394 . S
C524 C525 1.516 . S
C525 C524 1.516 . S
C525 C526 1.502 . S
C525 C527 1.561 . S
C525 C528 1.526 . S
C526 H510 0.959 . S
C526 H511 0.959 . S
C526 H512 0.961 . S
C526 C525 1.502 . S
C527 H513 0.960 . S
C527 H514 0.961 . S
C527 H515 0.959 . S
C527 C525 1.561 . S
C528 C525 1.526 . S
C528 C529 1.396 . S
C528 C533 1.390 . S
C529 C523 1.465 . S
C529 C528 1.396 . S
C529 C530 1.399 . S
C530 H516 0.929 . S
C530 C529 1.399 . S
C530 C531 1.385 . S
C531 H517 0.931 . S
C531 C530 1.385 . S
C531 C532 1.389 . S
C532 C531 1.389 . S
C532 C533 1.387 . S
C533 H518 0.930 . S
C533 C528 1.390 . S
C533 C532 1.387 . S
H534 C546 0.930 . S
H535 C548 0.930 . S
H536 C549 0.930 . S
H537 C553 0.959 . S
H538 C553 0.959 . S
H539 C553 0.961 . S
H540 C554 0.960 . S
H541 C554 0.961 . S
H542 C554 0.959 . S
H543 C557 0.929 . S
H544 C558 0.931 . S
H545 C560 0.930 . S
C546 H534 0.930 . S
C546 C547 1.399 . S
C546 C551 1.399 . S
C547 C546 1.399 . S
C547 C548 1.376 . S
C548 H535 0.930 . S
C548 C547 1.376 . S
C548 C549 1.388 . S
C549 H536 0.930 . S
C549 C548 1.388 . S
C549 C550 1.390 . S
C550 C549 1.390 . S
C550 C551 1.394 . S
C550 C556 1.465 . S
C551 C546 1.399 . S
C551 C550 1.394 . S
C551 C552 1.516 . S
C552 C551 1.516 . S
C552 C553 1.502 . S
C552 C554 1.561 . S
C552 C555 1.526 . S
C553 H537 0.959 . S
C553 H538 0.959 . S
C553 H539 0.961 . S
C553 C552 1.502 . S
C554 H540 0.960 . S
C554 H541 0.961 . S
C554 H542 0.959 . S
C554 C552 1.561 . S
C555 C552 1.526 . S
C555 C556 1.396 . S
C555 C560 1.390 . S
C556 C550 1.465 . S
C556 C555 1.396 . S
C556 C557 1.399 . S
C557 H543 0.929 . S
C557 C556 1.399 . S
C557 C558 1.385 . S
C558 H544 0.931 . S
C558 C557 1.385 . S
C558 C559 1.389 . S
C559 C558 1.389 . S
C559 C560 1.387 . S
C560 H545 0.930 . S
C560 C555 1.390 . S
C560 C559 1.387 . S
H561 C573 0.930 . S
H562 C575 0.930 . S
H563 C576 0.930 . S
H564 C580 0.959 . S
H565 C580 0.959 . S
H566 C580 0.961 . S
H567 C581 0.960 . S
H568 C581 0.961 . S
H569 C581 0.959 . S
H570 C584 0.929 . S
H571 C585 0.931 . S
H572 C587 0.930 . S
C573 H561 0.930 . S
C573 C574 1.399 . S
C573 C578 1.399 . S
C574 C573 1.399 . S
C574 C575 1.376 . S
C575 H562 0.930 . S
C575 C574 1.376 . S
C575 C576 1.388 . S
C576 H563 0.930 . S
C576 C575 1.388 . S
C576 C577 1.390 . S
C577 C576 1.390 . S
C577 C578 1.394 . S
C577 C583 1.465 . S
C578 C573 1.399 . S
C578 C577 1.394 . S
C578 C579 1.516 . S
C579 C578 1.516 . S
C579 C580 1.502 . S
C579 C581 1.561 . S
C579 C582 1.526 . S
C580 H564 0.959 . S
C580 H565 0.959 . S
C580 H566 0.961 . S
C580 C579 1.502 . S
C581 H567 0.960 . S
C581 H568 0.961 . S
C581 H569 0.959 . S
C581 C579 1.561 . S
C582 C579 1.526 . S
C582 C583 1.396 . S
C582 C587 1.390 . S
C583 C577 1.465 . S
C583 C582 1.396 . S
C583 C584 1.399 . S
C584 H570 0.929 . S
C584 C583 1.399 . S
C584 C585 1.385 . S
C585 H571 0.931 . S
C585 C584 1.385 . S
C585 C586 1.389 . S
C586 C585 1.389 . S
C586 C587 1.387 . S
C587 H572 0.930 . S
C587 C582 1.390 . S
C587 C586 1.387 . S
H588 C600 0.930 . S
H589 C602 0.930 . S
H590 C603 0.930 . S
H591 C607 0.959 . S
H592 C607 0.959 . S
H593 C607 0.961 . S
H594 C608 0.960 . S
H595 C608 0.961 . S
H596 C608 0.959 . S
H597 C611 0.929 . S
H598 C612 0.931 . S
H599 C614 0.930 . S
C600 H588 0.930 . S
C600 C601 1.399 . S
C600 C605 1.399 . S
C601 C600 1.399 . S
C601 C602 1.376 . S
C602 H589 0.930 . S
C602 C601 1.376 . S
C602 C603 1.388 . S
C603 H590 0.930 . S
C603 C602 1.388 . S
C603 C604 1.390 . S
C604 C603 1.390 . S
C604 C605 1.394 . S
C604 C610 1.465 . S
C605 C600 1.399 . S
C605 C604 1.394 . S
C605 C606 1.516 . S
C606 C605 1.516 . S
C606 C607 1.502 . S
C606 C608 1.561 . S
C606 C609 1.526 . S
C607 H591 0.959 . S
C607 H592 0.959 . S
C607 H593 0.961 . S
C607 C606 1.502 . S
C608 H594 0.960 . S
C608 H595 0.961 . S
C608 H596 0.959 . S
C608 C606 1.561 . S
C609 C606 1.526 . S
C609 C610 1.396 . S
C609 C614 1.390 . S
C610 C604 1.465 . S
C610 C609 1.396 . S
C610 C611 1.399 . S
C611 H597 0.929 . S
C611 C610 1.399 . S
C611 C612 1.385 . S
C612 H598 0.931 . S
C612 C611 1.385 . S
C612 C613 1.389 . S
C613 C612 1.389 . S
C613 C614 1.387 . S
C614 H599 0.930 . S
C614 C609 1.390 . S
C614 C613 1.387 . S
H615 C627 0.930 . S
H616 C629 0.930 . S
H617 C630 0.930 . S
H618 C634 0.959 . S
H619 C634 0.959 . S
H620 C634 0.961 . S
H621 C635 0.960 . S
H622 C635 0.961 . S
H623 C635 0.959 . S
H624 C638 0.929 . S
H625 C639 0.931 . S
H626 C641 0.930 . S
C627 H615 0.930 . S
C627 C628 1.399 . S
C627 C632 1.399 . S
C628 C627 1.399 . S
C628 C629 1.376 . S
C629 H616 0.930 . S
C629 C628 1.376 . S
C629 C630 1.388 . S
C630 H617 0.930 . S
C630 C629 1.388 . S
C630 C631 1.390 . S
C631 C630 1.390 . S
C631 C632 1.394 . S
C631 C637 1.465 . S
C632 C627 1.399 . S
C632 C631 1.394 . S
C632 C633 1.516 . S
C633 C632 1.516 . S
C633 C634 1.502 . S
C633 C635 1.561 . S
C633 C636 1.526 . S
C634 H618 0.959 . S
C634 H619 0.959 . S
C634 H620 0.961 . S
C634 C633 1.502 . S
C635 H621 0.960 . S
C635 H622 0.961 . S
C635 H623 0.959 . S
C635 C633 1.561 . S
C636 C633 1.526 . S
C636 C637 1.396 . S
C636 C641 1.390 . S
C637 C631 1.465 . S
C637 C636 1.396 . S
C637 C638 1.399 . S
C638 H624 0.929 . S
C638 C637 1.399 . S
C638 C639 1.385 . S
C639 H625 0.931 . S
C639 C638 1.385 . S
C639 C640 1.389 . S
C640 C639 1.389 . S
C640 C641 1.387 . S
C641 H626 0.930 . S
C641 C636 1.390 . S
C641 C640 1.387 . S
H642 C654 0.930 1_556 S
H643 C656 0.930 . S
H644 C657 0.930 . S
H645 C661 0.959 . S
H646 C661 0.959 1_655 S
H647 C661 0.961 . S
H648 C662 0.960 . S
H649 C662 0.961 . S
H650 C662 0.959 . S
H651 C665 0.929 . S
H652 C666 0.931 . S
H653 C668 0.930 . S
C654 H642 0.930 1_554 S
C654 C655 1.399 . S
C654 C659 1.393 1_554 S
C655 C654 1.399 . S
C655 C656 1.376 . S
C656 H643 0.930 . S
C656 C655 1.376 . S
C656 C657 1.388 . S
C657 H644 0.930 . S
C657 C656 1.388 . S
C657 C658 1.390 . S
C658 C657 1.390 . S
C658 C659 1.373 1_554 S
C658 C664 1.465 1_455 S
C659 C654 1.393 1_556 S
C659 C658 1.373 1_556 S
C659 C660 1.541 1_455 S
C660 C659 1.541 1_655 S
C660 C661 1.502 1_655 S
C660 C662 1.561 . S
C660 C663 1.526 . S
C661 H645 0.959 . S
C661 H646 0.959 1_455 S
C661 H647 0.961 . S
C661 C660 1.502 1_455 S
C662 H648 0.960 . S
C662 H649 0.961 . S
C662 H650 0.959 . S
C662 C660 1.561 . S
C663 C660 1.526 . S
C663 C664 1.396 1_556 S
C663 C668 1.390 . S
C664 C658 1.465 1_655 S
C664 C663 1.396 1_554 S
C664 C665 1.399 . S
C665 H651 0.929 . S
C665 C664 1.399 . S
C665 C666 1.385 . S
C666 H652 0.931 . S
C666 C665 1.385 . S
C666 C667 1.389 1_554 S
C667 C666 1.389 1_556 S
C667 C668 1.387 . S
C668 H653 0.930 . S
C668 C663 1.390 . S
C668 C667 1.387 . S
H669 C681 0.930 . S
H670 C683 0.930 . S
H671 C684 0.930 . S
H672 C688 0.959 . S
H673 C688 0.959 . S
H674 C688 0.961 1_554 S
H675 C689 0.960 . S
H676 C689 0.961 . S
H677 C689 0.959 . S
H678 C692 0.929 . S
H679 C693 0.931 . S
H680 C695 0.930 . S
C681 H669 0.930 . S
C681 C682 1.399 . S
C681 C686 1.399 . S
C682 C681 1.399 . S
C682 C683 1.376 . S
C683 H670 0.930 . S
C683 C682 1.376 . S
C683 C684 1.388 . S
C684 H671 0.930 . S
C684 C683 1.388 . S
C684 C685 1.390 . S
C685 C684 1.390 . S
C685 C686 1.394 . S
C685 C691 1.465 1_554 S
C686 C681 1.399 . S
C686 C685 1.394 . S
C686 C687 1.516 . S
C687 C686 1.516 . S
C687 C688 1.502 1_554 S
C687 C689 1.561 . S
C687 C690 1.526 1_554 S
C688 H672 0.959 . S
C688 H673 0.959 . S
C688 H674 0.961 1_556 S
C688 C687 1.502 1_556 S
C689 H675 0.960 . S
C689 H676 0.961 . S
C689 H677 0.959 . S
C689 C687 1.561 . S
C690 C687 1.526 1_556 S
C690 C691 1.396 . S
C690 C695 1.390 . S
C691 C685 1.465 1_556 S
C691 C690 1.396 . S
C691 C692 1.399 . S
C692 H678 0.929 . S
C692 C691 1.399 . S
C692 C693 1.385 . S
C693 H679 0.931 . S
C693 C692 1.385 . S
C693 C694 1.389 . S
C694 C693 1.389 . S
C694 C695 1.387 . S
C695 H680 0.930 . S
C695 C690 1.390 . S
C695 C694 1.387 . S
H696 C708 0.941 . S
H697 C710 0.930 . S
H698 C711 0.930 . S
H699 C715 0.978 . S
H700 C715 0.959 . S
H701 C715 0.961 . S
H702 C716 0.960 . S
H703 C716 0.961 . S
H704 C716 0.959 . S
H705 C719 0.929 . S
H706 C720 0.931 . S
H707 C722 0.930 . S
C708 H696 0.941 . S
C708 C709 1.399 . S
C708 C713 1.399 . S
C709 C708 1.399 . S
C709 C710 1.376 . S
C710 H697 0.930 . S
C710 C709 1.376 . S
C710 C711 1.388 1_554 S
C711 H698 0.930 . S
C711 C710 1.388 1_556 S
C711 C712 1.390 1_556 S
C712 C711 1.390 1_554 S
C712 C713 1.394 . S
C712 C718 1.465 1_554 S
C713 C708 1.399 . S
C713 C712 1.394 . S
C713 C714 1.516 1_565 S
C714 C713 1.516 1_545 S
C714 C715 1.502 . S
C714 C716 1.561 . S
C714 C717 1.509 1_554 S
C715 H699 0.978 . S
C715 H700 0.959 . S
C715 H701 0.961 . S
C715 C714 1.502 . S
C716 H702 0.960 . S
C716 H703 0.961 . S
C716 H704 0.959 . S
C716 C714 1.561 . S
C717 C714 1.509 1_556 S
C717 C718 1.406 1_545 S
C717 C722 1.397 . S
C718 C712 1.465 1_556 S
C718 C717 1.406 1_565 S
C718 C719 1.399 . S
C719 H705 0.929 . S
C719 C718 1.399 . S
C719 C720 1.385 1_565 S
C720 H706 0.931 . S
C720 C719 1.385 1_545 S
C720 C721 1.389 . S
C721 C720 1.389 . S
C721 C722 1.387 . S
C722 H707 0.930 . S
C722 C717 1.397 . S
C722 C721 1.387 . S
H723 C735 0.930 . S
H724 C737 0.930 . S
H725 C738 0.930 . S
H726 C742 0.959 1_565 S
H727 C742 0.959 . S
H728 C742 0.961 . S
H729 C743 0.960 . S
H730 C743 0.961 . S
H731 C743 0.959 . S
H732 C746 0.929 1_565 S
H733 C747 0.931 . S
H734 C749 0.930 . S
C735 H723 0.930 . S
C735 C736 1.399 . S
C735 C740 1.399 . S
C736 C735 1.399 . S
C736 C737 1.376 . S
C737 H724 0.930 . S
C737 C736 1.376 . S
C737 C738 1.388 . S
C738 H725 0.930 . S
C738 C737 1.388 . S
C738 C739 1.390 . S
C739 C738 1.390 . S
C739 C740 1.394 . S
C739 C745 1.465 1_565 S
C740 C735 1.399 . S
C740 C739 1.394 . S
C740 C741 1.516 1_565 S
C741 C740 1.516 1_545 S
C741 C742 1.502 . S
C741 C743 1.561 . S
C741 C744 1.526 . S
C742 H726 0.959 1_545 S
C742 H727 0.959 . S
C742 H728 0.961 . S
C742 C741 1.502 . S
C743 H729 0.960 . S
C743 H730 0.961 . S
C743 H731 0.959 . S
C743 C741 1.561 . S
C744 C741 1.526 . S
C744 C745 1.396 . S
C744 C749 1.390 . S
C745 C739 1.465 1_545 S
C745 C744 1.396 . S
C745 C746 1.399 . S
C746 H732 0.929 1_545 S
C746 C745 1.399 . S
C746 C747 1.385 . S
C747 H733 0.931 . S
C747 C746 1.385 . S
C747 C748 1.389 . S
C748 C747 1.389 . S
C748 C749 1.387 . S
C749 H734 0.930 . S
C749 C744 1.390 . S
C749 C748 1.387 . S
H750 C762 0.930 . S
H751 C764 0.930 . S
H752 C765 0.930 . S
H753 C769 0.959 . S
H754 C769 0.959 . S
H755 C769 0.961 . S
H756 C770 0.960 . S
H757 C770 0.961 1_455 S
H758 C770 0.959 . S
H759 C773 0.925 1_655 S
H760 C774 0.931 . S
H761 C776 0.930 . S
C762 H750 0.930 . S
C762 C763 1.399 . S
C762 C767 1.399 . S
C763 C762 1.399 . S
C763 C764 1.376 . S
C764 H751 0.930 . S
C764 C763 1.376 . S
C764 C765 1.388 . S
C765 H752 0.930 . S
C765 C764 1.388 . S
C765 C766 1.390 . S
C766 C765 1.390 . S
C766 C767 1.394 . S
C766 C772 1.466 . S
C767 C762 1.399 . S
C767 C766 1.394 . S
C767 C768 1.516 1_655 S
C768 C767 1.516 1_455 S
C768 C769 1.502 . S
C768 C770 1.561 1_455 S
C768 C771 1.526 . S
C769 H753 0.959 . S
C769 H754 0.959 . S
C769 H755 0.961 . S
C769 C768 1.502 . S
C770 H756 0.960 . S
C770 H757 0.961 1_655 S
C770 H758 0.959 . S
C770 C768 1.561 1_655 S
C771 C768 1.526 . S
C771 C772 1.387 1_455 S
C771 C776 1.390 . S
C772 C766 1.466 . S
C772 C771 1.387 1_655 S
C772 C773 1.408 1_655 S
C773 H759 0.925 1_455 S
C773 C772 1.408 1_455 S
C773 C774 1.387 . S
C774 H760 0.931 . S
C774 C773 1.387 . S
C774 C775 1.389 . S
C775 C774 1.389 . S
C775 C776 1.387 . S
C776 H761 0.930 . S
C776 C771 1.390 . S
C776 C775 1.387 . S
H777 C789 0.930 . S
H778 C791 0.930 . S
H779 C792 0.930 . S
H780 C796 0.959 . S
H781 C796 0.959 . S
H782 C796 0.961 . S
H783 C797 0.960 . S
H784 C797 0.961 . S
H785 C797 0.959 . S
H786 C800 0.929 . S
H787 C801 0.931 . S
H788 C803 0.930 . S
C789 H777 0.930 . S
C789 C790 1.399 . S
C789 C794 1.399 . S
C790 C789 1.399 . S
C790 C791 1.376 . S
C791 H778 0.930 . S
C791 C790 1.376 . S
C791 C792 1.388 . S
C792 H779 0.930 . S
C792 C791 1.388 . S
C792 C793 1.390 . S
C793 C792 1.390 . S
C793 C794 1.394 . S
C793 C799 1.465 . S
C794 C789 1.399 . S
C794 C793 1.394 . S
C794 C795 1.516 . S
C795 C794 1.516 . S
C795 C796 1.502 . S
C795 C797 1.561 . S
C795 C798 1.526 . S
C796 H780 0.959 . S
C796 H781 0.959 . S
C796 H782 0.961 . S
C796 C795 1.502 . S
C797 H783 0.960 . S
C797 H784 0.961 . S
C797 H785 0.959 . S
C797 C795 1.561 . S
C798 C795 1.526 . S
C798 C799 1.396 . S
C798 C803 1.390 . S
C799 C793 1.465 . S
C799 C798 1.396 . S
C799 C800 1.399 . S
C800 H786 0.929 . S
C800 C799 1.399 . S
C800 C801 1.385 . S
C801 H787 0.931 . S
C801 C800 1.385 . S
C801 C802 1.389 . S
C802 C801 1.389 . S
C802 C803 1.387 . S
C803 H788 0.930 . S
C803 C798 1.390 . S
C803 C802 1.387 . S
C169 C4 1.113 . S
C181 C94 1.104 . S
C196 C17 1.121 . S
C208 C107 1.103 1_565 S
C223 C36 1.091 . S
C235 C83 1.116 1_455 S
C250 C146 1.117 . S
C262 C49 1.092 . S
C277 C56 1.116 . S
C289 C122 1.106 1_565 S
C304 C135 1.104 1_455 S
C316 C69 1.112 . S
C331 C16 1.111 . S
C343 C88 1.093 . S
C358 C95 1.098 . S
C370 C31 1.118 1_545 S
C385 C3 1.112 1_655 S
C397 C108 1.115 . S
C412 C127 1.095 . S
C424 C68 1.117 . S
C439 C140 1.094 . S
C451 C44 1.117 1_545 S
C466 C55 1.116 1_655 S
C478 C147 1.092 . S
C493 C75 1.557 . S
C505 C10 1.573 . S
C520 C23 1.572 . S
C532 C43 1.560 . S
C547 C30 1.535 . S
C559 C62 1.571 . S
C574 C82 1.533 . S
C586 C153 1.545 . S
C601 C101 1.550 . S
C613 C121 1.574 . S
C628 C114 1.568 . S
C640 C134 1.574 . S
C655 C5 1.534 . S
C667 C81 1.500 . S
C682 C18 1.545 . S
C694 C96 1.499 . S
C709 C29 1.538 . S
C721 C109 1.509 . S
C736 C42 1.542 . S
C748 C120 1.495 . S
C763 C133 1.547 . S
C775 C57 1.493 . S
C790 C70 1.495 . S
C802 C148 1.547 . S
