# Generated by pormake.
# Topology gme, (4)-cn, num edge types: 1
# Building blocks:
#     Node 0, Type 0, BuildingBlock: TATPOV_clean_sbu_0, # of connection points: 4
#     Node 1, Type 0, BuildingBlock: TATPOV_clean_sbu_0, # of connection points: 4
#     Node 2, Type 0, BuildingBlock: TATPOV_clean_sbu_0, # of connection points: 4
#     Node 3, Type 0, BuildingBlock: TATPOV_clean_sbu_0, # of connection points: 4
#     Node 4, Type 0, BuildingBlock: TATPOV_clean_sbu_0, # of connection points: 4
#     Node 5, Type 0, BuildingBlock: TATPOV_clean_sbu_0, # of connection points: 4
#     Node 6, Type 0, BuildingBlock: TATPOV_clean_sbu_0, # of connection points: 4
#     Node 7, Type 0, BuildingBlock: TATPOV_clean_sbu_0, # of connection points: 4
#     Node 8, Type 0, BuildingBlock: TATPOV_clean_sbu_0, # of connection points: 4
#     Node 9, Type 0, BuildingBlock: TATPOV_clean_sbu_0, # of connection points: 4
#     Node 10, Type 0, BuildingBlock: TATPOV_clean_sbu_0, # of connection points: 4
#     Node 11, Type 0, BuildingBlock: TATPOV_clean_sbu_0, # of connection points: 4
#     Node 12, Type 0, BuildingBlock: TATPOV_clean_sbu_0, # of connection points: 4
#     Node 13, Type 0, BuildingBlock: TATPOV_clean_sbu_0, # of connection points: 4
#     Node 14, Type 0, BuildingBlock: TATPOV_clean_sbu_0, # of connection points: 4
#     Node 15, Type 0, BuildingBlock: TATPOV_clean_sbu_0, # of connection points: 4
#     Node 16, Type 0, BuildingBlock: TATPOV_clean_sbu_0, # of connection points: 4
#     Node 17, Type 0, BuildingBlock: TATPOV_clean_sbu_0, # of connection points: 4
#     Node 18, Type 0, BuildingBlock: TATPOV_clean_sbu_0, # of connection points: 4
#     Node 19, Type 0, BuildingBlock: TATPOV_clean_sbu_0, # of connection points: 4
#     Node 20, Type 0, BuildingBlock: TATPOV_clean_sbu_0, # of connection points: 4
#     Node 21, Type 0, BuildingBlock: TATPOV_clean_sbu_0, # of connection points: 4
#     Node 22, Type 0, BuildingBlock: TATPOV_clean_sbu_0, # of connection points: 4
#     Node 23, Type 0, BuildingBlock: TATPOV_clean_sbu_0, # of connection points: 4
#     Edge 24, Type (0, 0), BuildingBlock: AJUNOK_clean_linker_0, # of connection points: 2
#     Edge 25, Type (0, 0), BuildingBlock: AJUNOK_clean_linker_0, # of connection points: 2
#     Edge 26, Type (0, 0), BuildingBlock: AJUNOK_clean_linker_0, # of connection points: 2
#     Edge 27, Type (0, 0), BuildingBlock: AJUNOK_clean_linker_0, # of connection points: 2
#     Edge 28, Type (0, 0), BuildingBlock: AJUNOK_clean_linker_0, # of connection points: 2
#     Edge 29, Type (0, 0), BuildingBlock: AJUNOK_clean_linker_0, # of connection points: 2
#     Edge 30, Type (0, 0), BuildingBlock: AJUNOK_clean_linker_0, # of connection points: 2
#     Edge 31, Type (0, 0), BuildingBlock: AJUNOK_clean_linker_0, # of connection points: 2
#     Edge 32, Type (0, 0), BuildingBlock: AJUNOK_clean_linker_0, # of connection points: 2
#     Edge 33, Type (0, 0), BuildingBlock: AJUNOK_clean_linker_0, # of connection points: 2
#     Edge 34, Type (0, 0), BuildingBlock: AJUNOK_clean_linker_0, # of connection points: 2
#     Edge 35, Type (0, 0), BuildingBlock: AJUNOK_clean_linker_0, # of connection points: 2
#     Edge 36, Type (0, 0), BuildingBlock: AJUNOK_clean_linker_0, # of connection points: 2
#     Edge 37, Type (0, 0), BuildingBlock: AJUNOK_clean_linker_0, # of connection points: 2
#     Edge 38, Type (0, 0), BuildingBlock: AJUNOK_clean_linker_0, # of connection points: 2
#     Edge 39, Type (0, 0), BuildingBlock: AJUNOK_clean_linker_0, # of connection points: 2
#     Edge 40, Type (0, 0), BuildingBlock: AJUNOK_clean_linker_0, # of connection points: 2
#     Edge 41, Type (0, 0), BuildingBlock: AJUNOK_clean_linker_0, # of connection points: 2
#     Edge 42, Type (0, 0), BuildingBlock: AJUNOK_clean_linker_0, # of connection points: 2
#     Edge 43, Type (0, 0), BuildingBlock: AJUNOK_clean_linker_0, # of connection points: 2
#     Edge 44, Type (0, 0), BuildingBlock: AJUNOK_clean_linker_0, # of connection points: 2
#     Edge 45, Type (0, 0), BuildingBlock: AJUNOK_clean_linker_0, # of connection points: 2
#     Edge 46, Type (0, 0), BuildingBlock: AJUNOK_clean_linker_0, # of connection points: 2
#     Edge 47, Type (0, 0), BuildingBlock: AJUNOK_clean_linker_0, # of connection points: 2
#     Edge 48, Type (0, 0), BuildingBlock: AJUNOK_clean_linker_0, # of connection points: 2
#     Edge 49, Type (0, 0), BuildingBlock: AJUNOK_clean_linker_0, # of connection points: 2
#     Edge 50, Type (0, 0), BuildingBlock: AJUNOK_clean_linker_0, # of connection points: 2
#     Edge 51, Type (0, 0), BuildingBlock: AJUNOK_clean_linker_0, # of connection points: 2
#     Edge 52, Type (0, 0), BuildingBlock: AJUNOK_clean_linker_0, # of connection points: 2
#     Edge 53, Type (0, 0), BuildingBlock: AJUNOK_clean_linker_0, # of connection points: 2
#     Edge 54, Type (0, 0), BuildingBlock: AJUNOK_clean_linker_0, # of connection points: 2
#     Edge 55, Type (0, 0), BuildingBlock: AJUNOK_clean_linker_0, # of connection points: 2
#     Edge 56, Type (0, 0), BuildingBlock: AJUNOK_clean_linker_0, # of connection points: 2
#     Edge 57, Type (0, 0), BuildingBlock: AJUNOK_clean_linker_0, # of connection points: 2
#     Edge 58, Type (0, 0), BuildingBlock: AJUNOK_clean_linker_0, # of connection points: 2
#     Edge 59, Type (0, 0), BuildingBlock: AJUNOK_clean_linker_0, # of connection points: 2
#     Edge 60, Type (0, 0), BuildingBlock: AJUNOK_clean_linker_0, # of connection points: 2
#     Edge 61, Type (0, 0), BuildingBlock: AJUNOK_clean_linker_0, # of connection points: 2
#     Edge 62, Type (0, 0), BuildingBlock: AJUNOK_clean_linker_0, # of connection points: 2
#     Edge 63, Type (0, 0), BuildingBlock: AJUNOK_clean_linker_0, # of connection points: 2
#     Edge 64, Type (0, 0), BuildingBlock: AJUNOK_clean_linker_0, # of connection points: 2
#     Edge 65, Type (0, 0), BuildingBlock: AJUNOK_clean_linker_0, # of connection points: 2
#     Edge 66, Type (0, 0), BuildingBlock: AJUNOK_clean_linker_0, # of connection points: 2
#     Edge 67, Type (0, 0), BuildingBlock: AJUNOK_clean_linker_0, # of connection points: 2
#     Edge 68, Type (0, 0), BuildingBlock: AJUNOK_clean_linker_0, # of connection points: 2
#     Edge 69, Type (0, 0), BuildingBlock: AJUNOK_clean_linker_0, # of connection points: 2
#     Edge 70, Type (0, 0), BuildingBlock: AJUNOK_clean_linker_0, # of connection points: 2
#     Edge 71, Type (0, 0), BuildingBlock: AJUNOK_clean_linker_0, # of connection points: 2
# Relax obj value: 0.147
# Max RMSD: 0.133
# Mean RMSD: 0.133
data_MOF--net-gme--node1-TATPOV_clean_sbu_0--edge1-AJUNOK_clean_linker_0
_symmetry_space_group_name_H-M    P1
_symmetry_Int_Tables_number       1
_symmetry_cell_setting            triclinic
loop_
_symmetry_equiv_pos_as_xyz
'x, y, z'
_cell_length_a     46.298558
_cell_length_b     46.276219
_cell_length_c     37.864636
_cell_angle_alpha  90.084886
_cell_angle_beta   90.001493
_cell_angle_gamma 119.9612
loop_
_atom_site_label
_atom_site_type_symbol
_atom_site_fract_x
_atom_site_fract_y
_atom_site_fract_z
_atom_type_partial_charge
Zn0 Zn 0.40604 0.04067 0.1142 0.0
Zn1 Zn 0.43157 0.10032 0.0878 0.0
O2 O 0.39478 0.06844 0.05214 0.0
O3 O 0.37312 0.01871 0.07618 0.0
O4 O 0.44664 0.14725 0.07114 0.0
O5 O 0.39147 0.05245 0.15821 0.0
O6 O 0.41719 0.10398 0.13858 0.0
C7 C 0.37389 0.03712 0.05121 0.0
C8 C 0.47638 0.07057 0.09701 0.0
O9 O 0.47347 0.09524 0.08674 0.0
O10 O 0.4515 0.04516 0.11011 0.0
C11 C 0.44151 0.15629 0.04121 0.0
O12 O 0.42669 0.13384 0.01633 0.0
C13 C 0.40081 0.08292 0.16265 0.0
Zn14 Zn 0.37242 0.40759 0.60794 0.0
Zn15 Zn 0.33792 0.43323 0.58352 0.0
O16 O 0.33549 0.39994 0.54454 0.0
O17 O 0.36478 0.37875 0.56665 0.0
O18 O 0.30567 0.4485 0.56876 0.0
O19 O 0.34431 0.38796 0.65016 0.0
O20 O 0.31884 0.41488 0.63324 0.0
C21 C 0.34751 0.38043 0.54179 0.0
C22 C 0.41141 0.47929 0.59777 0.0
O23 O 0.38412 0.47591 0.58589 0.0
O24 O 0.41231 0.45402 0.60922 0.0
C25 C 0.29134 0.44459 0.53907 0.0
O26 O 0.29883 0.43079 0.51299 0.0
C27 C 0.32279 0.39661 0.6556 0.0
Zn28 Zn 0.96358 0.36757 0.10177 0.0
Zn29 Zn 0.90302 0.33318 0.0797 0.0
O30 O 0.93263 0.32909 0.04039 0.0
O31 O 0.98346 0.35656 0.0619 0.0
O32 O 0.85538 0.3002 0.06627 0.0
O33 O 0.95612 0.34263 0.14605 0.0
O34 O 0.90349 0.31552 0.13001 0.0
C35 C 0.96384 0.33952 0.03737 0.0
C36 C 0.93247 0.40758 0.08835 0.0
O37 O 0.90704 0.3798 0.07989 0.0
O38 O 0.95879 0.40837 0.09902 0.0
C39 C 0.84422 0.2869 0.03626 0.0
O40 O 0.86447 0.29669 0.00906 0.0
C41 C 0.92624 0.32091 0.15231 0.0
Zn42 Zn 0.60418 0.96674 0.60381 0.0
Zn43 Zn 0.58255 0.90622 0.58075 0.0
O44 O 0.61929 0.93811 0.54523 0.0
O45 O 0.63902 0.98832 0.56772 0.0
O46 O 0.57035 0.85945 0.5659 0.0
O47 O 0.61726 0.95751 0.6501 0.0
O48 O 0.59713 0.90568 0.63232 0.0
C49 C 0.63971 0.96953 0.54397 0.0
C50 C 0.53449 0.9328 0.58353 0.0
O51 O 0.53887 0.90817 0.57717 0.0
O52 O 0.55839 0.96002 0.59494 0.0
C53 C 0.57887 0.85074 0.53767 0.0
O54 O 0.59554 0.87334 0.51348 0.0
C55 C 0.61105 0.9281 0.65592 0.0
Zn56 Zn 0.63937 0.60451 0.11444 0.0
Zn57 Zn 0.67725 0.58364 0.08555 0.0
O58 O 0.67862 0.61965 0.05153 0.0
O59 O 0.64837 0.638 0.07747 0.0
O60 O 0.71112 0.57263 0.06576 0.0
O61 O 0.66673 0.61936 0.15794 0.0
O62 O 0.69679 0.59906 0.13563 0.0
C63 C 0.66635 0.63902 0.05189 0.0
C64 C 0.60338 0.53444 0.09438 0.0
O65 O 0.63185 0.53958 0.08429 0.0
O66 O 0.60062 0.55783 0.1084 0.0
C67 C 0.71449 0.55015 0.0813 0.0
O68 O 0.69353 0.53311 0.10672 0.0
C69 C 0.69056 0.61356 0.16059 0.0
Zn70 Zn 0.04555 0.6438 0.61065 0.0
Zn71 Zn 0.10549 0.67861 0.58377 0.0
O72 O 0.07251 0.68065 0.54761 0.0
O73 O 0.02274 0.65227 0.57142 0.0
O74 O 0.15191 0.71114 0.5658 0.0
O75 O 0.05709 0.67223 0.65327 0.0
O76 O 0.10867 0.69834 0.63373 0.0
C77 C 0.04107 0.66943 0.5462 0.0
C78 C 0.07764 0.6046 0.59539 0.0
O79 O 0.10189 0.63215 0.58449 0.0
O80 O 0.05199 0.6038 0.60829 0.0
C81 C 0.15857 0.73049 0.53943 0.0
O82 O 0.13401 0.72776 0.5197 0.0
C83 C 0.08731 0.69424 0.65725 0.0
Zn84 Zn 0.97261 0.60634 0.34842 0.0
Zn85 Zn 0.91275 0.5807 0.37453 0.0
O86 O 0.94479 0.61564 0.4113 0.0
O87 O 0.99468 0.63796 0.38761 0.0
O88 O 0.86671 0.5671 0.39274 0.0
O89 O 0.96127 0.62262 0.30529 0.0
O90 O 0.90958 0.59708 0.32452 0.0
C91 C 0.97612 0.63623 0.4129 0.0
C92 C 0.94143 0.53525 0.36379 0.0
O93 O 0.91673 0.53809 0.37407 0.0
O94 O 0.9671 0.56031 0.35129 0.0
C95 C 0.84156 0.5444 0.37643 0.0
O96 O 0.84663 0.52843 0.35064 0.0
C97 C 0.93103 0.61425 0.30106 0.0
Zn98 Zn 0.3677 0.97295 0.85445 0.0
Zn99 Zn 0.3343 0.91229 0.87846 0.0
O100 O 0.32922 0.94278 0.91557 0.0
O101 O 0.35583 0.99338 0.89341 0.0
O102 O 0.30226 0.86542 0.89484 0.0
O103 O 0.34205 0.96213 0.80996 0.0
O104 O 0.31689 0.91 0.82764 0.0
C105 C 0.33871 0.97385 0.9179 0.0
C106 C 0.40877 0.94299 0.87008 0.0
O107 O 0.38132 0.91756 0.87923 0.0
O108 O 0.40894 0.96872 0.85842 0.0
C109 C 0.30107 0.84111 0.87787 0.0
O110 O 0.32292 0.84759 0.85261 0.0
C111 C 0.32157 0.93169 0.80431 0.0
Zn112 Zn 0.4122 0.37425 0.34347 0.0
Zn113 Zn 0.43573 0.3384 0.37145 0.0
O114 O 0.40082 0.33692 0.40707 0.0
O115 O 0.38169 0.36734 0.3832 0.0
O116 O 0.44832 0.3057 0.3912 0.0
O117 O 0.39437 0.34454 0.30171 0.0
O118 O 0.41942 0.31813 0.32178 0.0
C119 C 0.38166 0.34941 0.4083 0.0
C120 C 0.48362 0.41169 0.35777 0.0
O121 O 0.47902 0.38414 0.37032 0.0
O122 O 0.45932 0.41322 0.34439 0.0
C123 C 0.47069 0.30223 0.37555 0.0
O124 O 0.48696 0.32243 0.34931 0.0
C125 C 0.40227 0.32223 0.29812 0.0
Zn126 Zn 0.0407 0.40572 0.84058 0.0
Zn127 Zn 0.09842 0.42649 0.87107 0.0
O128 O 0.06231 0.39196 0.9051 0.0
O129 O 0.01405 0.37561 0.87933 0.0
O130 O 0.1423 0.43563 0.89226 0.0
O131 O 0.05229 0.38643 0.79991 0.0
O132 O 0.10312 0.41061 0.82149 0.0
C133 C 0.03052 0.37412 0.90512 0.0
C134 C 0.07765 0.47746 0.85504 0.0
O135 O 0.09897 0.47144 0.86954 0.0
O136 O 0.05191 0.45392 0.84057 0.0
C137 C 0.14463 0.40987 0.89852 0.0
O138 O 0.11801 0.3804 0.89412 0.0
C139 C 0.08239 0.39379 0.7973 0.0
Zn140 Zn 0.64401 0.04359 0.35388 0.0
Zn141 Zn 0.68273 0.10291 0.38011 0.0
O142 O 0.68577 0.06936 0.41464 0.0
O143 O 0.65546 0.02023 0.38977 0.0
O144 O 0.71743 0.14853 0.39751 0.0
O145 O 0.66819 0.05446 0.30854 0.0
O146 O 0.69965 0.10533 0.32905 0.0
C147 C 0.67409 0.0378 0.41471 0.0
C148 C 0.60851 0.0777 0.3752 0.0
O149 O 0.6374 0.10165 0.38317 0.0
O150 O 0.6052 0.05095 0.36226 0.0
C151 C 0.72029 0.17362 0.38075 0.0
O152 O 0.69845 0.16854 0.35585 0.0
C153 C 0.69189 0.08394 0.30446 0.0
Zn154 Zn 0.60065 0.6431 0.85972 0.0
Zn155 Zn 0.57782 0.68129 0.88213 0.0
O156 O 0.61274 0.68487 0.91951 0.0
O157 O 0.63382 0.65537 0.89759 0.0
O158 O 0.56486 0.71548 0.89659 0.0
O159 O 0.6159 0.66673 0.81433 0.0
O160 O 0.59515 0.69806 0.83154 0.0
C161 C 0.6332 0.67397 0.92162 0.0
C162 C 0.53017 0.60673 0.87677 0.0
O163 O 0.53409 0.6355 0.88343 0.0
O164 O 0.55459 0.60383 0.86632 0.0
C165 C 0.57608 0.73484 0.92317 0.0
O166 O 0.59591 0.73138 0.94541 0.0
C167 C 0.61019 0.69028 0.80856 0.0
Zn168 Zn 0.60586 0.97591 0.84976 0.0
Zn169 Zn 0.58067 0.91523 0.87595 0.0
O170 O 0.61729 0.94751 0.91111 0.0
O171 O 0.63884 0.9976 0.88798 0.0
O172 O 0.56625 0.86849 0.89312 0.0
O173 O 0.62019 0.96349 0.80583 0.0
O174 O 0.59559 0.91193 0.82546 0.0
C175 C 0.63815 0.9788 0.91248 0.0
C176 C 0.53527 0.94452 0.86753 0.0
O177 O 0.53847 0.91984 0.87709 0.0
O178 O 0.55996 0.97032 0.85473 0.0
C179 C 0.57798 0.86118 0.91983 0.0
O180 O 0.59922 0.88529 0.94048 0.0
C181 C 0.6117 0.9332 0.80149 0.0
Zn182 Zn 0.64898 0.60938 0.35256 0.0
Zn183 Zn 0.68338 0.58351 0.37732 0.0
O184 O 0.68594 0.61738 0.41531 0.0
O185 O 0.65692 0.63895 0.3934 0.0
O186 O 0.71573 0.56933 0.3944 0.0
O187 O 0.67749 0.62796 0.31031 0.0
O188 O 0.70259 0.60078 0.32754 0.0
C189 C 0.67445 0.63733 0.41799 0.0
C190 C 0.60997 0.53745 0.36306 0.0
O191 O 0.63723 0.54078 0.37499 0.0
O192 O 0.60911 0.56278 0.35173 0.0
C193 C 0.71733 0.54629 0.37775 0.0
O194 O 0.69571 0.53061 0.35234 0.0
C195 C 0.6986 0.61876 0.30485 0.0
Zn196 Zn 0.04748 0.64345 0.84664 0.0
Zn197 Zn 0.10675 0.67815 0.87371 0.0
O198 O 0.07411 0.67986 0.91058 0.0
O199 O 0.02429 0.64938 0.88732 0.0
O200 O 0.15261 0.71087 0.89229 0.0
O201 O 0.05785 0.67355 0.80566 0.0
O202 O 0.10974 0.69852 0.82422 0.0
C203 C 0.04249 0.66732 0.9123 0.0
C204 C 0.08115 0.60522 0.85749 0.0
O205 O 0.10409 0.63217 0.8712 0.0
O206 O 0.05544 0.60438 0.84468 0.0
C207 C 0.17786 0.71404 0.87556 0.0
O208 O 0.17296 0.6935 0.84929 0.0
C209 C 0.08813 0.69523 0.80137 0.0
Zn210 Zn 0.41436 0.04607 0.3575 0.0
Zn211 Zn 0.43693 0.10629 0.38242 0.0
O212 O 0.4006 0.0742 0.41799 0.0
O213 O 0.3803 0.02431 0.39447 0.0
O214 O 0.44921 0.15247 0.39914 0.0
O215 O 0.40048 0.0567 0.31232 0.0
O216 O 0.4215 0.10818 0.33164 0.0
C217 C 0.38008 0.04279 0.41887 0.0
C218 C 0.48439 0.07914 0.37694 0.0
O219 O 0.48035 0.10373 0.38469 0.0
O220 O 0.46026 0.05243 0.36484 0.0
C221 C 0.47119 0.17721 0.38178 0.0
O222 O 0.48717 0.17157 0.35646 0.0
C223 C 0.40685 0.08632 0.30768 0.0
Zn224 Zn 0.37612 0.41092 0.84911 0.0
Zn225 Zn 0.33461 0.42824 0.87611 0.0
O226 O 0.3348 0.39279 0.91001 0.0
O227 O 0.367 0.37642 0.88484 0.0
O228 O 0.29805 0.43594 0.89477 0.0
O229 O 0.35119 0.39668 0.80405 0.0
O230 O 0.31755 0.41328 0.82509 0.0
C231 C 0.34808 0.3743 0.90992 0.0
C232 C 0.40773 0.48044 0.87136 0.0
O233 O 0.37827 0.47381 0.87929 0.0
O234 O 0.41272 0.45813 0.8582 0.0
C235 C 0.27005 0.41013 0.90101 0.0
O236 O 0.26767 0.38072 0.89795 0.0
C237 C 0.3262 0.40052 0.80039 0.0
Zn238 Zn 0.97563 0.37212 0.34451 0.0
Zn239 Zn 0.91638 0.33659 0.37238 0.0
O240 O 0.95008 0.33441 0.4072 0.0
O241 O 0.99933 0.36298 0.3823 0.0
O242 O 0.87125 0.30323 0.39193 0.0
O243 O 0.96316 0.34474 0.30098 0.0
O244 O 0.91214 0.31766 0.32197 0.0
C245 C 0.98154 0.34566 0.40776 0.0
C246 C 0.94313 0.41043 0.36263 0.0
O247 O 0.91908 0.38257 0.37312 0.0
O248 O 0.96885 0.41179 0.34918 0.0
C249 C 0.84539 0.29916 0.37582 0.0
O250 O 0.84916 0.31928 0.34955 0.0
C251 C 0.9329 0.32267 0.29743 0.0
Zn252 Zn 0.04821 0.408 0.60576 0.0
Zn253 Zn 0.10846 0.43442 0.58175 0.0
O254 O 0.07824 0.40016 0.54306 0.0
O255 O 0.02775 0.37792 0.56527 0.0
O256 O 0.15618 0.45033 0.56727 0.0
O257 O 0.05718 0.38952 0.64852 0.0
O258 O 0.10948 0.4159 0.63134 0.0
C259 C 0.0469 0.37974 0.54057 0.0
C260 C 0.07865 0.47911 0.59344 0.0
O261 O 0.10357 0.47663 0.58313 0.0
O262 O 0.05289 0.45363 0.60509 0.0
C263 C 0.16654 0.44539 0.53804 0.0
O264 O 0.14515 0.43054 0.51228 0.0
C265 C 0.08724 0.39767 0.65367 0.0
Zn266 Zn 0.64435 0.04237 0.11063 0.0
Zn267 Zn 0.67731 0.10272 0.08612 0.0
O268 O 0.68209 0.07242 0.04839 0.0
O269 O 0.65549 0.02204 0.07109 0.0
O270 O 0.70879 0.15002 0.07066 0.0
O271 O 0.67097 0.05291 0.15431 0.0
O272 O 0.69612 0.10494 0.13628 0.0
C273 C 0.67226 0.04127 0.04623 0.0
C274 C 0.60287 0.07185 0.09615 0.0
O275 O 0.63015 0.09714 0.08635 0.0
O276 O 0.60295 0.04631 0.10802 0.0
C277 C 0.72001 0.16049 0.03984 0.0
O278 O 0.70883 0.1395 0.01321 0.0
C279 C 0.69199 0.08328 0.15942 0.0
Zn280 Zn 0.60941 0.6422 0.61581 0.0
Zn281 Zn 0.58596 0.67804 0.58888 0.0
O282 O 0.62106 0.68023 0.55271 0.0
O283 O 0.64046 0.65004 0.57654 0.0
O284 O 0.57315 0.71154 0.57203 0.0
O285 O 0.62659 0.66985 0.65893 0.0
O286 O 0.60153 0.69634 0.63934 0.0
C287 C 0.64037 0.6679 0.55142 0.0
C288 C 0.53812 0.60467 0.601 0.0
O289 O 0.54262 0.63237 0.58902 0.0
O290 O 0.56248 0.60305 0.61406 0.0
C291 C 0.57703 0.72428 0.54146 0.0
O292 O 0.58839 0.71356 0.51585 0.0
C293 C 0.618 0.69158 0.66328 0.0
Zn294 Zn 0.96988 0.60555 0.10855 0.0
Zn295 Zn 0.91058 0.58305 0.08217 0.0
O296 O 0.94406 0.61738 0.0459 0.0
O297 O 0.99354 0.63746 0.07019 0.0
O298 O 0.86522 0.57207 0.06391 0.0
O299 O 0.95971 0.62207 0.15227 0.0
O300 O 0.90818 0.59901 0.13275 0.0
C301 C 0.97565 0.63678 0.04468 0.0
C302 C 0.93562 0.53461 0.09143 0.0
O303 O 0.91178 0.53903 0.08153 0.0
O304 O 0.96194 0.55868 0.1043 0.0
C305 C 0.83962 0.54968 0.0798 0.0
O306 O 0.84384 0.5325 0.10485 0.0
C307 C 0.92983 0.61494 0.15655 0.0
Zn308 Zn 0.37557 0.96796 0.60874 0.0
Zn309 Zn 0.33597 0.90865 0.58336 0.0
O310 O 0.33306 0.94202 0.5482 0.0
O311 O 0.3639 0.99114 0.57289 0.0
O312 O 0.30083 0.86245 0.56769 0.0
O313 O 0.35239 0.95829 0.65458 0.0
O314 O 0.31951 0.90751 0.63451 0.0
C315 C 0.3451 0.97365 0.54802 0.0
C316 C 0.41021 0.93332 0.58706 0.0
O317 O 0.38106 0.9094 0.57989 0.0
O318 O 0.41406 0.96037 0.59973 0.0
C319 C 0.28597 0.85382 0.53805 0.0
O320 O 0.29513 0.87603 0.51274 0.0
C321 C 0.32807 0.92921 0.65891 0.0
Zn322 Zn 0.40924 0.36674 0.10435 0.0
Zn323 Zn 0.43584 0.33244 0.0803 0.0
O324 O 0.40077 0.32823 0.0428 0.0
O325 O 0.37722 0.3552 0.06532 0.0
O326 O 0.45101 0.30019 0.06479 0.0
O327 O 0.39344 0.34073 0.14841 0.0
O328 O 0.41913 0.31419 0.13067 0.0
C329 C 0.37942 0.33801 0.04069 0.0
C330 C 0.48026 0.40705 0.08923 0.0
O331 O 0.47801 0.37938 0.08039 0.0
O332 O 0.45481 0.40766 0.10053 0.0
C333 C 0.44038 0.28092 0.0381 0.0
O334 O 0.41986 0.28348 0.01606 0.0
C335 C 0.40192 0.31906 0.15364 0.0
C336 C 0.37108 0.07165 0.25511 0.0
C337 C 0.40011 0.09515 0.27267 0.0
C338 C 0.36946 0.07092 0.21833 0.0
C339 C 0.39694 0.09352 0.19809 0.0
H340 H 0.35091 0.05158 0.2697 0.0
H341 H 0.34807 0.05027 0.20571 0.0
S342 S 0.47524 0.16495 0.23195 0.0
N343 N 0.45412 0.14555 0.26779 0.0
N344 N 0.45121 0.1441 0.19815 0.0
C345 C 0.424 0.12021 0.21538 0.0
C346 C 0.42559 0.12102 0.25303 0.0
C347 C 0.30876 0.41785 0.70931 0.0
C348 C 0.30802 0.39097 0.69106 0.0
C349 C 0.30982 0.41896 0.74637 0.0
C350 C 0.31007 0.39318 0.76567 0.0
H351 H 0.31276 0.43985 0.69511 0.0
H352 H 0.31456 0.44173 0.75954 0.0
S353 S 0.29815 0.31332 0.73039 0.0
N354 N 0.29967 0.33491 0.69503 0.0
N355 N 0.30189 0.33715 0.76459 0.0
C356 C 0.30405 0.36413 0.74785 0.0
C357 C 0.30289 0.36295 0.71039 0.0
C358 C 0.94269 0.3018 0.20528 0.0
C359 C 0.91838 0.30621 0.18785 0.0
C360 C 0.94444 0.30231 0.24206 0.0
C361 C 0.92189 0.30717 0.26246 0.0
H362 H 0.96264 0.30164 0.19045 0.0
H363 H 0.96568 0.30255 0.25441 0.0
S364 S 0.84843 0.31082 0.22957 0.0
N365 N 0.86727 0.30853 0.19349 0.0
N366 N 0.87051 0.30937 0.26309 0.0
C367 C 0.89441 0.30622 0.24557 0.0
C368 C 0.89265 0.30576 0.20792 0.0
C369 C 0.64471 0.94455 0.71018 0.0
C370 C 0.61674 0.92017 0.69184 0.0
C371 C 0.64483 0.94591 0.74696 0.0
C372 C 0.61695 0.92295 0.76644 0.0
H373 H 0.66512 0.96475 0.69597 0.0
H374 H 0.66538 0.96708 0.75998 0.0
S375 S 0.54116 0.8496 0.73099 0.0
N376 N 0.56335 0.86888 0.69565 0.0
N377 N 0.56353 0.8714 0.7653 0.0
C378 C 0.59102 0.89558 0.74871 0.0
C379 C 0.59092 0.89419 0.71105 0.0
C380 C 0.71642 0.65105 0.24963 0.0
C381 C 0.71275 0.6236 0.26912 0.0
C382 C 0.71388 0.6495 0.21289 0.0
C383 C 0.70797 0.62063 0.19462 0.0
H384 H 0.71722 0.67217 0.26298 0.0
H385 H 0.71287 0.66949 0.19909 0.0
S386 S 0.7062 0.54614 0.23273 0.0
N387 N 0.71036 0.56988 0.26718 0.0
N388 N 0.70584 0.56716 0.19766 0.0
C389 C 0.70989 0.59543 0.21322 0.0
C390 C 0.71234 0.59693 0.25082 0.0
C391 C 0.1229 0.70879 0.71065 0.0
C392 C 0.09753 0.71046 0.69195 0.0
C393 C 0.12319 0.70919 0.74772 0.0
C394 C 0.09808 0.71121 0.76658 0.0
H395 H 0.13985 0.70288 0.69695 0.0
H396 H 0.14033 0.70351 0.76136 0.0
S397 S 0.03324 0.72689 0.72937 0.0
N398 N 0.05214 0.72242 0.69453 0.0
N399 N 0.05267 0.72315 0.76414 0.0
C400 C 0.07629 0.71852 0.74803 0.0
C401 C 0.076 0.71811 0.71054 0.0
C402 C 0.8952 0.5934 0.21043 0.0
C403 C 0.92019 0.62062 0.19166 0.0
C404 C 0.89558 0.59317 0.24751 0.0
C405 C 0.92095 0.62017 0.26629 0.0
H406 H 0.87802 0.57067 0.19664 0.0
H407 H 0.87864 0.57029 0.26112 0.0
S408 S 0.98528 0.70089 0.22915 0.0
N409 N 0.96575 0.67784 0.19431 0.0
N410 N 0.96642 0.67746 0.26391 0.0
C411 C 0.9425 0.64937 0.24781 0.0
C412 C 0.94213 0.64958 0.21033 0.0
C413 C 0.30518 0.94541 0.74761 0.0
C414 C 0.30839 0.92195 0.76823 0.0
C415 C 0.30718 0.94496 0.71089 0.0
C416 C 0.31209 0.92086 0.69372 0.0
H417 H 0.3048 0.96634 0.76001 0.0
H418 H 0.30826 0.96554 0.69613 0.0
S419 S 0.31328 0.84907 0.73517 0.0
N420 N 0.30997 0.87016 0.76867 0.0
N421 N 0.31351 0.8693 0.69914 0.0
C422 C 0.31017 0.89437 0.71355 0.0
C423 C 0.30827 0.89487 0.75115 0.0
C424 C 0.42334 0.30717 0.24511 0.0
C425 C 0.39631 0.30577 0.26357 0.0
C426 C 0.42328 0.30638 0.20804 0.0
C427 C 0.39617 0.30415 0.18897 0.0
H428 H 0.44615 0.31314 0.25894 0.0
H429 H 0.44605 0.31177 0.1945 0.0
S430 S 0.31578 0.28928 0.22567 0.0
N431 N 0.33909 0.29409 0.26065 0.0
N432 N 0.33892 0.2925 0.19106 0.0
C433 C 0.36713 0.29724 0.20736 0.0
C434 C 0.36721 0.29809 0.24484 0.0
C435 C 0.12096 0.41676 0.70846 0.0
C436 C 0.0961 0.39045 0.68848 0.0
C437 C 0.11975 0.41568 0.74549 0.0
C438 C 0.09363 0.38831 0.763 0.0
H439 H 0.13865 0.43988 0.69573 0.0
H440 H 0.13654 0.43803 0.76007 0.0
S441 S 0.02963 0.30923 0.72235 0.0
N442 N 0.05017 0.33332 0.68856 0.0
N443 N 0.04782 0.33138 0.75813 0.0
C444 C 0.07235 0.35983 0.74329 0.0
C445 C 0.07361 0.3609 0.70583 0.0
C446 C 0.71181 0.06981 0.25059 0.0
C447 C 0.70712 0.09333 0.26935 0.0
C448 C 0.71192 0.06972 0.21377 0.0
C449 C 0.70711 0.093 0.19471 0.0
H450 H 0.71175 0.04925 0.26433 0.0
H451 H 0.71202 0.04909 0.20028 0.0
S452 S 0.70256 0.16476 0.23183 0.0
N453 N 0.70456 0.14445 0.26674 0.0
N454 N 0.70456 0.14422 0.19704 0.0
C455 C 0.70767 0.11968 0.21311 0.0
C456 C 0.70768 0.11983 0.2508 0.0
C457 C 0.64873 0.70951 0.71959 0.0
C458 C 0.62219 0.70626 0.69871 0.0
C459 C 0.64665 0.70901 0.75635 0.0
C460 C 0.61805 0.70541 0.77328 0.0
H461 H 0.66959 0.70877 0.70754 0.0
H462 H 0.66597 0.70791 0.77146 0.0
S463 S 0.54584 0.70491 0.73065 0.0
N464 N 0.56965 0.70627 0.69745 0.0
N465 N 0.56583 0.70541 0.767 0.0
C466 C 0.59378 0.70741 0.75294 0.0
C467 C 0.59586 0.70787 0.71532 0.0
C468 C 0.42905 0.19685 0.01072 0.0
C469 C 0.44668 0.19047 0.03694 0.0
C470 C 0.42874 0.22701 0.01004 0.0
C471 C 0.44614 0.25208 0.03548 0.0
H472 H 0.4139 0.17777 -0.00836 0.0
H473 H 0.41343 0.22995 -0.00964 0.0
S474 S 0.50106 0.25003 0.10584 0.0
N475 N 0.48549 0.2134 0.08616 0.0
N476 N 0.48511 0.27006 0.08483 0.0
C477 C 0.466 0.24703 0.06013 0.0
C478 C 0.4662 0.21625 0.06089 0.0
C479 C 0.20922 0.4356 0.50809 0.0
C480 C 0.20095 0.45078 0.53549 0.0
C481 C 0.23943 0.43538 0.50834 0.0
C482 C 0.26257 0.45031 0.53603 0.0
H483 H 0.19159 0.42231 0.4871 0.0
H484 H 0.24382 0.42193 0.48756 0.0
S485 S 0.25559 0.49859 0.61073 0.0
N486 N 0.22042 0.48496 0.58861 0.0
N487 N 0.27702 0.48451 0.5891 0.0
C488 C 0.25572 0.46774 0.56216 0.0
C489 C 0.22499 0.46799 0.56189 0.0
C490 C 0.78948 0.24718 0.06388 0.0
C491 C 0.81018 0.25722 0.03388 0.0
C492 C 0.75955 0.21671 0.06474 0.0
C493 C 0.74887 0.19481 0.03564 0.0
H494 H 0.79697 0.26239 0.08756 0.0
H495 H 0.74532 0.2098 0.08904 0.0
S496 S 0.7917 0.21101 0.94892 0.0
N497 N 0.81621 0.24415 0.97296 0.0
N498 N 0.75989 0.1868 0.9746 0.0
C499 C 0.76816 0.20544 0.00458 0.0
C500 C 0.7988 0.23662 0.0037 0.0
C501 C 0.55952 0.76388 0.56438 0.0
C502 C 0.57322 0.75413 0.53679 0.0
C503 C 0.55995 0.79433 0.56346 0.0
C504 C 0.57424 0.81657 0.53498 0.0
H505 H 0.5493 0.74839 0.58759 0.0
H506 H 0.55009 0.80095 0.58606 0.0
S507 S 0.60982 0.80119 0.45391 0.0
N508 N 0.59871 0.76784 0.47849 0.0
N509 N 0.5996 0.82516 0.47678 0.0
C510 C 0.58621 0.80627 0.50615 0.0
C511 C 0.58567 0.77507 0.50705 0.0
C512 C 0.74913 0.52417 0.09593 0.0
C513 C 0.74456 0.54694 0.07544 0.0
C514 C 0.77932 0.52406 0.09557 0.0
C515 C 0.80635 0.54671 0.07471 0.0
H516 H 0.72972 0.50709 0.11363 0.0
H517 H 0.78181 0.50689 0.113 0.0
S518 S 0.80578 0.60824 0.0122 0.0
N519 N 0.76852 0.59037 0.03065 0.0
N520 N 0.82528 0.59015 0.02997 0.0
C521 C 0.8014 0.56807 0.05217 0.0
C522 C 0.77053 0.56818 0.05254 0.0
C523 C 0.24731 0.79674 0.56163 0.0
C524 C 0.25567 0.82034 0.53444 0.0
C525 C 0.21667 0.76693 0.5619 0.0
C526 C 0.19285 0.75941 0.5351 0.0
H527 H 0.26409 0.80178 0.58368 0.0
H528 H 0.21113 0.75038 0.58424 0.0
S529 S 0.20411 0.81061 0.4553 0.0
N530 N 0.23888 0.8325 0.47801 0.0
N531 N 0.18122 0.7765 0.47859 0.0
C532 C 0.20169 0.78175 0.50655 0.0
C533 C 0.23307 0.81216 0.50619 0.0
C534 C 0.80465 0.56472 0.40125 0.0
C535 C 0.80799 0.5406 0.38177 0.0
C536 C 0.7746 0.56519 0.40155 0.0
C537 C 0.74661 0.54156 0.38238 0.0
H538 H 0.82587 0.58448 0.41499 0.0
H539 H 0.77392 0.58529 0.41551 0.0
S540 S 0.74042 0.46953 0.33245 0.0
N541 N 0.7793 0.48981 0.34672 0.0
N542 N 0.7229 0.4907 0.34728 0.0
C543 C 0.74883 0.51579 0.36507 0.0
C544 C 0.77946 0.5153 0.36476 0.0
C545 C 0.21423 0.77111 0.90105 0.0
C546 C 0.21122 0.74405 0.88104 0.0
C547 C 0.24403 0.80187 0.90156 0.0
C548 C 0.27208 0.80687 0.88209 0.0
H549 H 0.19293 0.76915 0.91508 0.0
H550 H 0.24444 0.8223 0.91599 0.0
S551 S 0.2791 0.74231 0.83052 0.0
N552 N 0.2403 0.72306 0.84501 0.0
N553 N 0.2962 0.78076 0.84596 0.0
C554 C 0.2702 0.77929 0.86416 0.0
C555 C 0.23983 0.74795 0.86364 0.0
C556 C 0.49574 0.23646 0.36218 0.0
C557 C 0.47465 0.21083 0.38544 0.0
C558 C 0.49562 0.26665 0.36067 0.0
C559 C 0.4744 0.27258 0.38233 0.0
H560 H 0.51153 0.23278 0.3438 0.0
H561 H 0.51133 0.28486 0.34119 0.0
S562 S 0.41809 0.21569 0.45176 0.0
N563 N 0.43474 0.19496 0.43359 0.0
N564 N 0.43451 0.25168 0.43075 0.0
C565 C 0.45492 0.24814 0.40752 0.0
C566 C 0.45505 0.21731 0.40908 0.0
C567 C 0.20879 0.38287 0.91187 0.0
C568 C 0.23936 0.41233 0.90626 0.0
C569 C 0.17854 0.38282 0.9113 0.0
C570 C 0.17742 0.41223 0.90512 0.0
H571 H 0.20794 0.35923 0.91538 0.0
H572 H 0.15575 0.35915 0.9144 0.0
S573 S 0.25071 0.497 0.89381 0.0
N574 N 0.2669 0.47248 0.89802 0.0
N575 N 0.20995 0.47237 0.89696 0.0
C576 C 0.20792 0.44234 0.90193 0.0
C577 C 0.23888 0.44239 0.9025 0.0
C578 C 0.75473 0.23325 0.36237 0.0
C579 C 0.75051 0.20712 0.38469 0.0
C580 C 0.7849 0.26353 0.36117 0.0
C581 C 0.81226 0.26911 0.38226 0.0
H582 H 0.73504 0.22995 0.34449 0.0
H583 H 0.7871 0.28219 0.34243 0.0
S584 S 0.81278 0.21056 0.44898 0.0
N585 N 0.77524 0.19017 0.43119 0.0
N586 N 0.83195 0.2471 0.42898 0.0
C587 C 0.80771 0.24407 0.40647 0.0
C588 C 0.77688 0.21311 0.40768 0.0
C589 C 0.59069 0.79006 0.9499 0.0
C590 C 0.57153 0.76442 0.92566 0.0
C591 C 0.59114 0.82058 0.9491 0.0
C592 C 0.57243 0.82679 0.92404 0.0
H593 H 0.60673 0.78724 0.96871 0.0
H594 H 0.6075 0.83993 0.96733 0.0
S595 S 0.51381 0.76592 0.85845 0.0
N596 N 0.53019 0.74587 0.87862 0.0
N597 N 0.531 0.80312 0.87712 0.0
C598 C 0.55127 0.8005 0.90132 0.0
C599 C 0.55083 0.76939 0.90212 0.0
C600 C 0.33002 0.96986 -0.01704 0.0
C601 C 0.33628 0.98846 0.9518 0.0
C602 C 0.33905 0.98573 0.01583 0.0
C603 C 0.35483 0.02078 0.01868 0.0
H604 H 0.32101 0.9433 -0.01812 0.0
H605 H 0.33625 0.97051 0.0387 0.0
S606 S 0.36594 0.0792 0.94619 0.0
N607 N 0.35108 0.04256 0.92663 0.0
N608 N 0.36834 0.07237 -0.01142 0.0
C609 C 0.3565 0.03896 -0.01164 0.0
C610 C 0.34712 0.02277 0.95483 0.0
C611 C 0.37224 0.33815 0.47282 0.0
C612 C 0.36382 0.34806 0.44127 0.0
C613 C 0.36372 0.34581 0.50552 0.0
C614 C 0.34663 0.36385 0.50793 0.0
H615 H 0.38779 0.32678 0.47249 0.0
H616 H 0.37296 0.33974 0.52901 0.0
S617 S 0.31018 0.38639 0.433 0.0
N618 N 0.33083 0.36991 0.41429 0.0
N619 N 0.3152 0.38464 0.47595 0.0
C620 C 0.3342 0.36984 0.47664 0.0
C621 C 0.34274 0.36189 0.44323 0.0
C622 C 0.03021 0.36074 0.9689 0.0
C623 C 0.0125 0.35576 0.93727 0.0
C624 C 0.01363 0.35177 0.00132 0.0
C625 C 0.97873 0.33771 0.00337 0.0
H626 H 0.05722 0.37397 0.96901 0.0
H627 H 0.02869 0.35845 0.02507 0.0
S628 S 0.92025 0.31027 0.9275 0.0
N629 N 0.95767 0.32875 0.90936 0.0
N630 N 0.92662 0.3124 0.97054 0.0
C631 C 0.96046 0.3284 0.97173 0.0
C632 C 0.97734 0.33738 0.93858 0.0
C633 C 0.65776 0.98516 0.44744 0.0
C634 C 0.6763 0.02035 0.44649 0.0
C635 C 0.64924 0.96793 0.47952 0.0
C636 C 0.65919 0.98532 0.51167 0.0
H637 H 0.64699 0.97086 0.42355 0.0
H638 H 0.63203 0.9413 0.47905 0.0
S639 S 0.71808 0.07604 0.52285 0.0
N640 N 0.71151 0.07095 0.47985 0.0
N641 N 0.69604 0.03851 0.54026 0.0
C642 C 0.68235 0.01981 0.51075 0.0
C643 C 0.6908 0.0374 0.47806 0.0
C644 C 0.64734 0.6731 0.01887 0.0
C645 C 0.66757 0.65827 0.02014 0.0
C646 C 0.63926 0.68215 -0.01329 0.0
C647 C 0.6513 0.67683 0.95478 0.0
H648 H 0.63517 0.67508 0.04244 0.0
H649 H 0.621 0.69027 -0.01324 0.0
S650 S 0.71398 0.64963 0.94492 0.0
N651 N 0.70579 0.64641 -0.01237 0.0
N652 N 0.69102 0.66391 0.9271 0.0
C653 C 0.67558 0.66697 0.95623 0.0
C654 C 0.68363 0.65753 -0.01102 0.0
C655 C 0.04339 0.67942 0.48135 0.0
C656 C 0.02504 0.67083 0.5129 0.0
C657 C 0.02724 0.67114 0.44862 0.0
C658 C 0.99214 0.65377 0.44623 0.0
H659 H 0.07021 0.69007 0.4818 0.0
H660 H 0.04247 0.67605 0.42523 0.0
S661 S 0.93337 0.63488 0.52071 0.0
N662 N 0.97042 0.65117 0.53953 0.0
N663 N 0.94008 0.6351 0.47787 0.0
C664 C 0.97381 0.64919 0.47732 0.0
C665 C 0.99029 0.65785 0.51072 0.0
C666 C 0.64822 0.97532 -0.02348 0.0
C667 C 0.65691 0.99423 0.94536 0.0
C668 C 0.65683 0.99092 0.00952 0.0
C669 C 0.67422 0.026 0.01255 0.0
H670 H 0.63216 0.9485 0.9757 0.0
H671 H 0.64712 0.97528 0.0327 0.0
S672 S 0.71244 0.08605 0.93888 0.0
N673 N 0.69122 0.04931 0.91943 0.0
N674 N 0.707 0.07859 -0.01831 0.0
C675 C 0.68736 0.04486 -0.01832 0.0
C676 C 0.67876 0.02895 0.94797 0.0
C677 C 0.68201 0.64163 0.48324 0.0
C678 C 0.67603 0.65395 0.45191 0.0
C679 C 0.67341 0.64913 0.516 0.0
C680 C 0.65839 0.66913 0.51859 0.0
H681 H 0.69069 0.6238 0.48242 0.0
H682 H 0.67615 0.6369 0.53907 0.0
S683 S 0.64738 0.71579 0.44525 0.0
N684 N 0.66159 0.69329 0.42607 0.0
N685 N 0.64526 0.70722 0.48779 0.0
C686 C 0.65663 0.68525 0.48795 0.0
C687 C 0.66549 0.67768 0.45454 0.0
C688 C 0.02763 0.66985 0.00966 0.0
C689 C 0.99252 0.65373 0.01146 0.0
C690 C 0.0442 0.67726 -0.02281 0.0
C691 C 0.02629 0.669 0.94535 0.0
H692 H 0.04242 0.67445 0.03336 0.0
H693 H 0.07089 0.68702 -0.02279 0.0
S694 S 0.93522 0.63605 0.93574 0.0
N695 N 0.94122 0.63649 -0.02124 0.0
N696 N 0.97239 0.65087 0.91761 0.0
C697 C 0.99171 0.65714 0.94683 0.0
C698 C 0.9748 0.64942 -0.02005 0.0
C699 C 0.36195 0.02647 0.51544 0.0
C700 C 0.34319 0.99129 0.51622 0.0
C701 C 0.37073 0.04385 0.48346 0.0
C702 C 0.36081 0.02666 0.4512 0.0
H703 H 0.37265 0.04065 0.53941 0.0
H704 H 0.38799 0.07048 0.4841 0.0
S705 S 0.30145 0.93609 0.43951 0.0
N706 N 0.30782 0.94098 0.48254 0.0
N707 N 0.32387 0.97366 0.42229 0.0
C708 C 0.33754 0.99219 0.45191 0.0
C709 C 0.32879 0.97445 0.48452 0.0
C710 C 0.37523 0.33138 0.97535 0.0
C711 C 0.3621 0.33565 0.00707 0.0
C712 C 0.3676 0.34073 0.94312 0.0
C713 C 0.34672 0.35481 0.94152 0.0
H714 H 0.3939 0.3238 0.9756 0.0
H715 H 0.38053 0.33953 0.91981 0.0
S716 S 0.29767 0.36069 0.01576 0.0
N717 N 0.32088 0.34686 0.03396 0.0
N718 N 0.30693 0.36489 0.97328 0.0
C719 C 0.32971 0.35454 0.97232 0.0
C720 C 0.33732 0.34482 0.00517 0.0
C721 C 0.99633 0.34318 0.50489 0.0
C722 C 0.03142 0.36208 0.50711 0.0
C723 C 0.98004 0.3346 0.47226 0.0
C724 C 0.99823 0.34441 0.44062 0.0
H725 H 0.98107 0.33721 0.5284 0.0
H726 H 0.9531 0.32272 0.47201 0.0
S727 S 0.09029 0.38431 0.43217 0.0
N728 N 0.08361 0.38325 0.47509 0.0
N729 N 0.05307 0.36672 0.41356 0.0
C730 C 0.03319 0.35884 0.44252 0.0
C731 C 0.0498 0.36778 0.47586 0.0
C732 C 0.53908 0.10111 0.09227 0.0
C733 C 0.50853 0.07091 0.09403 0.0
C734 C 0.56965 0.10142 0.09216 0.0
C735 C 0.57068 0.07153 0.09379 0.0
H736 H 0.53944 0.1247 0.09197 0.0
H737 H 0.59258 0.12523 0.09172 0.0
S738 S 0.49751 0.98566 0.09375 0.0
N739 N 0.48129 0.0103 0.09396 0.0
N740 N 0.53824 0.01084 0.09372 0.0
C741 C 0.54021 0.04118 0.09396 0.0
C742 C 0.50929 0.04088 0.09408 0.0
C743 C 0.50181 0.54417 0.61372 0.0
C744 C 0.5049 0.5738 0.59987 0.0
C745 C 0.47155 0.51424 0.61298 0.0
C746 C 0.44266 0.51223 0.59836 0.0
H747 H 0.52304 0.54384 0.62526 0.0
H748 H 0.47105 0.4924 0.624 0.0
S749 S 0.43677 0.58257 0.55895 0.0
N750 N 0.47613 0.59941 0.57133 0.0
N751 N 0.41888 0.54277 0.56994 0.0
C752 C 0.44507 0.54165 0.58459 0.0
C753 C 0.47621 0.57244 0.58535 0.0
C754 C 0.90283 0.44088 0.08951 0.0
C755 C 0.93237 0.43948 0.0855 0.0
C756 C 0.90359 0.4717 0.09027 0.0
C757 C 0.93391 0.50197 0.08711 0.0
H758 H 0.87922 0.41816 0.09331 0.0
H759 H 0.88055 0.47188 0.09462 0.0
S760 S 0.01716 0.51146 0.06987 0.0
N761 N 0.99201 0.4709 0.07392 0.0
N762 N 0.99339 0.52831 0.07549 0.0
C763 C 0.96319 0.50066 0.08107 0.0
C764 C 0.96243 0.46956 0.08023 0.0
C765 C 0.44141 0.90167 0.58832 0.0
C766 C 0.44032 0.9308 0.58024 0.0
C767 C 0.47179 0.90154 0.58737 0.0
C768 C 0.50175 0.93052 0.57828 0.0
H769 H 0.41914 0.87954 0.59726 0.0
H770 H 0.47212 0.87931 0.59566 0.0
S771 S 0.51062 0.01076 0.54795 0.0
N772 N 0.47076 0.98755 0.55794 0.0
N773 N 0.52741 0.98729 0.5561 0.0
C774 C 0.50028 0.95879 0.56749 0.0
C775 C 0.46966 0.95894 0.56849 0.0
C776 C 0.57305 0.47154 0.09207 0.0
C777 C 0.57278 0.50174 0.08906 0.0
C778 C 0.54314 0.44061 0.09079 0.0
C779 C 0.51216 0.43904 0.0864 0.0
H780 H 0.59627 0.47185 0.09682 0.0
H781 H 0.54417 0.41796 0.09462 0.0
S782 S 0.49894 0.51081 0.07068 0.0
N783 N 0.53948 0.52785 0.07696 0.0
N784 N 0.48375 0.47024 0.07442 0.0
C785 C 0.512 0.46905 0.08113 0.0
C786 C 0.54218 0.50026 0.0825 0.0
C787 C 0.10868 0.5421 0.5915 0.0
C788 C 0.07871 0.51123 0.59147 0.0
C789 C 0.10844 0.57244 0.59196 0.0
C790 C 0.07823 0.57287 0.59245 0.0
H791 H 0.13243 0.54284 0.59208 0.0
H792 H 0.13201 0.59562 0.59289 0.0
S793 S 0.99308 0.49895 0.58724 0.0
N794 N 0.01815 0.48326 0.58824 0.0
N795 N 0.01773 0.53974 0.58916 0.0
C796 C 0.04822 0.54216 0.59081 0.0
C797 C 0.04846 0.51151 0.59031 0.0
C798 C 0.91142 0.47232 0.36538 0.0
C799 C 0.9413 0.50322 0.3668 0.0
C800 C 0.91182 0.44206 0.36516 0.0
C801 C 0.94212 0.44183 0.36635 0.0
H802 H 0.88771 0.47153 0.36326 0.0
H803 H 0.88841 0.41884 0.36284 0.0
S804 S 0.02669 0.51577 0.37636 0.0
N805 N 1.00158 0.53136 0.37368 0.0
N806 N 1.00232 0.47499 0.37324 0.0
C807 C 0.97191 0.47252 0.36974 0.0
C808 C 0.97151 0.50307 0.36998 0.0
C809 C 0.4725 0.91361 0.87156 0.0
C810 C 0.50304 0.9439 0.87128 0.0
C811 C 0.4419 0.91324 0.87219 0.0
C812 C 0.44087 0.94316 0.87261 0.0
H813 H 0.4722 0.89008 0.87017 0.0
H814 H 0.41898 0.88944 0.87126 0.0
S815 S 0.5139 0.02891 0.87757 0.0
N816 N 0.5302 1.00439 0.87527 0.0
N817 N 0.47318 1.00372 0.87651 0.0
C818 C 0.47129 0.97348 0.87413 0.0
C819 C 0.50223 0.97385 0.87345 0.0
C820 C 0.5196 0.47257 0.34667 0.0
C821 C 0.51679 0.44265 0.3592 0.0
C822 C 0.54974 0.50262 0.34806 0.0
C823 C 0.57878 0.50445 0.36202 0.0
H824 H 0.49824 0.47306 0.33576 0.0
H825 H 0.55002 0.52469 0.33808 0.0
S826 S 0.58547 0.43327 0.39764 0.0
N827 N 0.54603 0.41655 0.38562 0.0
N828 N 0.60304 0.47338 0.38817 0.0
C829 C 0.57665 0.47473 0.3744 0.0
C830 C 0.54564 0.44383 0.37301 0.0
C831 C 0.05968 0.51709 0.83439 0.0
C832 C 0.08167 0.51144 0.85502 0.0
C833 C 0.06051 0.54763 0.83499 0.0
C834 C 0.08338 0.57426 0.85622 0.0
H835 H 0.04115 0.49757 0.81775 0.0
H836 H 0.04259 0.55011 0.81877 0.0
S837 S 0.14775 0.57342 0.91401 0.0
N838 N 0.12812 0.53569 0.89641 0.0
N839 N 0.1297 0.5935 0.89749 0.0
C840 C 0.10636 0.56954 0.87623 0.0
C841 C 0.10549 0.53811 0.87565 0.0
C842 C 0.57749 0.10958 0.37433 0.0
C843 C 0.57812 0.07998 0.38112 0.0
C844 C 0.54721 0.10992 0.37475 0.0
C845 C 0.51684 0.08068 0.38199 0.0
H846 H 0.60017 0.13206 0.36691 0.0
H847 H 0.54737 0.13267 0.36765 0.0
S848 S 0.50634 0.99878 0.4084 0.0
N849 N 0.54655 0.0222 0.40019 0.0
N850 N 0.49009 0.02285 0.40102 0.0
C851 C 0.5177 0.05175 0.39137 0.0
C852 C 0.54824 0.0514 0.39092 0.0
C853 C 0.4676 0.57415 0.87062 0.0
C854 C 0.4976 0.57596 0.88134 0.0
C855 C 0.43763 0.54325 0.86927 0.0
C856 C 0.43704 0.51352 0.87858 0.0
H857 H 0.46765 0.59632 0.8614 0.0
H858 H 0.41536 0.54241 0.85907 0.0
S859 S 0.50736 0.5061 0.91513 0.0
N860 N 0.52362 0.54616 0.90627 0.0
N861 N 0.46776 0.48855 0.90362 0.0
C862 C 0.46631 0.51557 0.89189 0.0
C863 C 0.4965 0.5467 0.89331 0.0
loop_
_geom_bond_atom_site_label_1
_geom_bond_atom_site_label_2
_geom_bond_distance
_geom_bond_site_symmetry_2
_ccdc_geom_bond_type
Zn0 O3 2.031 . S
Zn0 O5 2.049 . S
Zn0 O10 2.067 . S
Zn1 O2 1.962 . S
Zn1 O4 1.986 . S
Zn1 O6 1.996 . S
Zn1 O9 1.943 . S
O2 Zn1 1.962 . S
O2 C7 1.254 . S
O3 Zn0 2.031 . S
O3 C7 1.269 . S
O4 Zn1 1.986 . S
O4 C11 1.262 . S
O5 Zn0 2.049 . S
O5 C13 1.260 . S
O6 Zn1 1.996 . S
O6 C13 1.257 . S
C7 O2 1.254 . S
C7 O3 1.269 . S
C8 O9 1.249 . S
C8 O10 1.270 . S
O9 Zn1 1.943 . S
O9 C8 1.249 . S
O10 Zn0 2.067 . S
O10 C8 1.270 . S
C11 O4 1.262 . S
C11 O12 1.232 . S
O12 C11 1.232 . S
C13 O5 1.260 . S
C13 O6 1.257 . S
Zn14 O17 2.031 . S
Zn14 O19 2.049 . S
Zn14 O24 2.067 . S
Zn15 O16 1.962 . S
Zn15 O18 1.986 . S
Zn15 O20 1.996 . S
Zn15 O23 1.943 . S
O16 Zn15 1.962 . S
O16 C21 1.254 . S
O17 Zn14 2.031 . S
O17 C21 1.269 . S
O18 Zn15 1.986 . S
O18 C25 1.262 . S
O19 Zn14 2.049 . S
O19 C27 1.260 . S
O20 Zn15 1.996 . S
O20 C27 1.257 . S
C21 O16 1.254 . S
C21 O17 1.269 . S
C22 O23 1.249 . S
C22 O24 1.270 . S
O23 Zn15 1.943 . S
O23 C22 1.249 . S
O24 Zn14 2.067 . S
O24 C22 1.270 . S
C25 O18 1.262 . S
C25 O26 1.232 . S
O26 C25 1.232 . S
C27 O19 1.260 . S
C27 O20 1.257 . S
Zn28 O31 2.031 . S
Zn28 O33 2.049 . S
Zn28 O38 2.067 . S
Zn29 O30 1.962 . S
Zn29 O32 1.986 . S
Zn29 O34 1.996 . S
Zn29 O37 1.943 . S
O30 Zn29 1.962 . S
O30 C35 1.254 . S
O31 Zn28 2.031 . S
O31 C35 1.269 . S
O32 Zn29 1.986 . S
O32 C39 1.262 . S
O33 Zn28 2.049 . S
O33 C41 1.260 . S
O34 Zn29 1.996 . S
O34 C41 1.257 . S
C35 O30 1.254 . S
C35 O31 1.269 . S
C36 O37 1.249 . S
C36 O38 1.270 . S
O37 Zn29 1.943 . S
O37 C36 1.249 . S
O38 Zn28 2.067 . S
O38 C36 1.270 . S
C39 O32 1.262 . S
C39 O40 1.232 . S
O40 C39 1.232 . S
C41 O33 1.260 . S
C41 O34 1.257 . S
Zn42 O45 2.031 . S
Zn42 O47 2.049 . S
Zn42 O52 2.067 . S
Zn43 O44 1.962 . S
Zn43 O46 1.986 . S
Zn43 O48 1.996 . S
Zn43 O51 1.943 . S
O44 Zn43 1.962 . S
O44 C49 1.254 . S
O45 Zn42 2.031 . S
O45 C49 1.269 . S
O46 Zn43 1.986 . S
O46 C53 1.262 . S
O47 Zn42 2.049 . S
O47 C55 1.260 . S
O48 Zn43 1.996 . S
O48 C55 1.257 . S
C49 O44 1.254 . S
C49 O45 1.269 . S
C50 O51 1.249 . S
C50 O52 1.270 . S
O51 Zn43 1.943 . S
O51 C50 1.249 . S
O52 Zn42 2.067 . S
O52 C50 1.270 . S
C53 O46 1.262 . S
C53 O54 1.232 . S
O54 C53 1.232 . S
C55 O47 1.260 . S
C55 O48 1.257 . S
Zn56 O59 2.031 . S
Zn56 O61 2.049 . S
Zn56 O66 2.067 . S
Zn57 O58 1.962 . S
Zn57 O60 1.986 . S
Zn57 O62 1.996 . S
Zn57 O65 1.943 . S
O58 Zn57 1.962 . S
O58 C63 1.254 . S
O59 Zn56 2.031 . S
O59 C63 1.269 . S
O60 Zn57 1.986 . S
O60 C67 1.262 . S
O61 Zn56 2.049 . S
O61 C69 1.260 . S
O62 Zn57 1.996 . S
O62 C69 1.257 . S
C63 O58 1.254 . S
C63 O59 1.269 . S
C64 O65 1.249 . S
C64 O66 1.270 . S
O65 Zn57 1.943 . S
O65 C64 1.249 . S
O66 Zn56 2.067 . S
O66 C64 1.270 . S
C67 O60 1.262 . S
C67 O68 1.232 . S
O68 C67 1.232 . S
C69 O61 1.260 . S
C69 O62 1.257 . S
Zn70 O73 2.031 . S
Zn70 O75 2.049 . S
Zn70 O80 2.067 . S
Zn71 O72 1.962 . S
Zn71 O74 1.986 . S
Zn71 O76 1.996 . S
Zn71 O79 1.943 . S
O72 Zn71 1.962 . S
O72 C77 1.254 . S
O73 Zn70 2.031 . S
O73 C77 1.269 . S
O74 Zn71 1.986 . S
O74 C81 1.262 . S
O75 Zn70 2.049 . S
O75 C83 1.260 . S
O76 Zn71 1.996 . S
O76 C83 1.257 . S
C77 O72 1.254 . S
C77 O73 1.269 . S
C78 O79 1.249 . S
C78 O80 1.270 . S
O79 Zn71 1.943 . S
O79 C78 1.249 . S
O80 Zn70 2.067 . S
O80 C78 1.270 . S
C81 O74 1.262 . S
C81 O82 1.232 . S
O82 C81 1.232 . S
C83 O75 1.260 . S
C83 O76 1.257 . S
Zn84 O87 2.031 . S
Zn84 O89 2.049 . S
Zn84 O94 2.067 . S
Zn85 O86 1.962 . S
Zn85 O88 1.986 . S
Zn85 O90 1.996 . S
Zn85 O93 1.943 . S
O86 Zn85 1.962 . S
O86 C91 1.254 . S
O87 Zn84 2.031 . S
O87 C91 1.269 . S
O88 Zn85 1.986 . S
O88 C95 1.262 . S
O89 Zn84 2.049 . S
O89 C97 1.260 . S
O90 Zn85 1.996 . S
O90 C97 1.257 . S
C91 O86 1.254 . S
C91 O87 1.269 . S
C92 O93 1.249 . S
C92 O94 1.270 . S
O93 Zn85 1.943 . S
O93 C92 1.249 . S
O94 Zn84 2.067 . S
O94 C92 1.270 . S
C95 O88 1.262 . S
C95 O96 1.232 . S
O96 C95 1.232 . S
C97 O89 1.260 . S
C97 O90 1.257 . S
Zn98 O101 2.031 . S
Zn98 O103 2.049 . S
Zn98 O108 2.067 . S
Zn99 O100 1.962 . S
Zn99 O102 1.986 . S
Zn99 O104 1.996 . S
Zn99 O107 1.943 . S
O100 Zn99 1.962 . S
O100 C105 1.254 . S
O101 Zn98 2.031 . S
O101 C105 1.269 . S
O102 Zn99 1.986 . S
O102 C109 1.262 . S
O103 Zn98 2.049 . S
O103 C111 1.260 . S
O104 Zn99 1.996 . S
O104 C111 1.257 . S
C105 O100 1.254 . S
C105 O101 1.269 . S
C106 O107 1.249 . S
C106 O108 1.270 . S
O107 Zn99 1.943 . S
O107 C106 1.249 . S
O108 Zn98 2.067 . S
O108 C106 1.270 . S
C109 O102 1.262 . S
C109 O110 1.232 . S
O110 C109 1.232 . S
C111 O103 1.260 . S
C111 O104 1.257 . S
Zn112 O115 2.031 . S
Zn112 O117 2.049 . S
Zn112 O122 2.067 . S
Zn113 O114 1.962 . S
Zn113 O116 1.986 . S
Zn113 O118 1.996 . S
Zn113 O121 1.943 . S
O114 Zn113 1.962 . S
O114 C119 1.254 . S
O115 Zn112 2.031 . S
O115 C119 1.269 . S
O116 Zn113 1.986 . S
O116 C123 1.262 . S
O117 Zn112 2.049 . S
O117 C125 1.260 . S
O118 Zn113 1.996 . S
O118 C125 1.257 . S
C119 O114 1.254 . S
C119 O115 1.269 . S
C120 O121 1.249 . S
C120 O122 1.270 . S
O121 Zn113 1.943 . S
O121 C120 1.249 . S
O122 Zn112 2.067 . S
O122 C120 1.270 . S
C123 O116 1.262 . S
C123 O124 1.232 . S
O124 C123 1.232 . S
C125 O117 1.260 . S
C125 O118 1.257 . S
Zn126 O129 2.031 . S
Zn126 O131 2.049 . S
Zn126 O136 2.067 . S
Zn127 O128 1.962 . S
Zn127 O130 1.986 . S
Zn127 O132 1.996 . S
Zn127 O135 1.943 . S
O128 Zn127 1.962 . S
O128 C133 1.254 . S
O129 Zn126 2.031 . S
O129 C133 1.269 . S
O130 Zn127 1.986 . S
O130 C137 1.262 . S
O131 Zn126 2.049 . S
O131 C139 1.260 . S
O132 Zn127 1.996 . S
O132 C139 1.257 . S
C133 O128 1.254 . S
C133 O129 1.269 . S
C134 O135 1.249 . S
C134 O136 1.270 . S
O135 Zn127 1.943 . S
O135 C134 1.249 . S
O136 Zn126 2.067 . S
O136 C134 1.270 . S
C137 O130 1.262 . S
C137 O138 1.232 . S
O138 C137 1.232 . S
C139 O131 1.260 . S
C139 O132 1.257 . S
Zn140 O143 2.031 . S
Zn140 O145 2.049 . S
Zn140 O150 2.067 . S
Zn141 O142 1.962 . S
Zn141 O144 1.986 . S
Zn141 O146 1.996 . S
Zn141 O149 1.943 . S
O142 Zn141 1.962 . S
O142 C147 1.254 . S
O143 Zn140 2.031 . S
O143 C147 1.269 . S
O144 Zn141 1.986 . S
O144 C151 1.262 . S
O145 Zn140 2.049 . S
O145 C153 1.260 . S
O146 Zn141 1.996 . S
O146 C153 1.257 . S
C147 O142 1.254 . S
C147 O143 1.269 . S
C148 O149 1.249 . S
C148 O150 1.270 . S
O149 Zn141 1.943 . S
O149 C148 1.249 . S
O150 Zn140 2.067 . S
O150 C148 1.270 . S
C151 O144 1.262 . S
C151 O152 1.232 . S
O152 C151 1.232 . S
C153 O145 1.260 . S
C153 O146 1.257 . S
Zn154 O157 2.031 . S
Zn154 O159 2.049 . S
Zn154 O164 2.067 . S
Zn155 O156 1.962 . S
Zn155 O158 1.986 . S
Zn155 O160 1.996 . S
Zn155 O163 1.943 . S
O156 Zn155 1.962 . S
O156 C161 1.254 . S
O157 Zn154 2.031 . S
O157 C161 1.269 . S
O158 Zn155 1.986 . S
O158 C165 1.262 . S
O159 Zn154 2.049 . S
O159 C167 1.260 . S
O160 Zn155 1.996 . S
O160 C167 1.257 . S
C161 O156 1.254 . S
C161 O157 1.269 . S
C162 O163 1.249 . S
C162 O164 1.270 . S
O163 Zn155 1.943 . S
O163 C162 1.249 . S
O164 Zn154 2.067 . S
O164 C162 1.270 . S
C165 O158 1.262 . S
C165 O166 1.232 . S
O166 C165 1.232 . S
C167 O159 1.260 . S
C167 O160 1.257 . S
Zn168 O171 2.031 . S
Zn168 O173 2.049 . S
Zn168 O178 2.067 . S
Zn169 O170 1.962 . S
Zn169 O172 1.986 . S
Zn169 O174 1.996 . S
Zn169 O177 1.943 . S
O170 Zn169 1.962 . S
O170 C175 1.254 . S
O171 Zn168 2.031 . S
O171 C175 1.269 . S
O172 Zn169 1.986 . S
O172 C179 1.262 . S
O173 Zn168 2.049 . S
O173 C181 1.260 . S
O174 Zn169 1.996 . S
O174 C181 1.257 . S
C175 O170 1.254 . S
C175 O171 1.269 . S
C176 O177 1.249 . S
C176 O178 1.270 . S
O177 Zn169 1.943 . S
O177 C176 1.249 . S
O178 Zn168 2.067 . S
O178 C176 1.270 . S
C179 O172 1.262 . S
C179 O180 1.232 . S
O180 C179 1.232 . S
C181 O173 1.260 . S
C181 O174 1.257 . S
Zn182 O185 2.031 . S
Zn182 O187 2.049 . S
Zn182 O192 2.067 . S
Zn183 O184 1.962 . S
Zn183 O186 1.986 . S
Zn183 O188 1.996 . S
Zn183 O191 1.943 . S
O184 Zn183 1.962 . S
O184 C189 1.254 . S
O185 Zn182 2.031 . S
O185 C189 1.269 . S
O186 Zn183 1.986 . S
O186 C193 1.262 . S
O187 Zn182 2.049 . S
O187 C195 1.260 . S
O188 Zn183 1.996 . S
O188 C195 1.257 . S
C189 O184 1.254 . S
C189 O185 1.269 . S
C190 O191 1.249 . S
C190 O192 1.270 . S
O191 Zn183 1.943 . S
O191 C190 1.249 . S
O192 Zn182 2.067 . S
O192 C190 1.270 . S
C193 O186 1.262 . S
C193 O194 1.232 . S
O194 C193 1.232 . S
C195 O187 1.260 . S
C195 O188 1.257 . S
Zn196 O199 2.031 . S
Zn196 O201 2.049 . S
Zn196 O206 2.067 . S
Zn197 O198 1.962 . S
Zn197 O200 1.986 . S
Zn197 O202 1.996 . S
Zn197 O205 1.943 . S
O198 Zn197 1.962 . S
O198 C203 1.254 . S
O199 Zn196 2.031 . S
O199 C203 1.269 . S
O200 Zn197 1.986 . S
O200 C207 1.262 . S
O201 Zn196 2.049 . S
O201 C209 1.260 . S
O202 Zn197 1.996 . S
O202 C209 1.257 . S
C203 O198 1.254 . S
C203 O199 1.269 . S
C204 O205 1.249 . S
C204 O206 1.270 . S
O205 Zn197 1.943 . S
O205 C204 1.249 . S
O206 Zn196 2.067 . S
O206 C204 1.270 . S
C207 O200 1.262 . S
C207 O208 1.232 . S
O208 C207 1.232 . S
C209 O201 1.260 . S
C209 O202 1.257 . S
Zn210 O213 2.031 . S
Zn210 O215 2.049 . S
Zn210 O220 2.067 . S
Zn211 O212 1.962 . S
Zn211 O214 1.986 . S
Zn211 O216 1.996 . S
Zn211 O219 1.943 . S
O212 Zn211 1.962 . S
O212 C217 1.254 . S
O213 Zn210 2.031 . S
O213 C217 1.269 . S
O214 Zn211 1.986 . S
O214 C221 1.262 . S
O215 Zn210 2.049 . S
O215 C223 1.260 . S
O216 Zn211 1.996 . S
O216 C223 1.257 . S
C217 O212 1.254 . S
C217 O213 1.269 . S
C218 O219 1.249 . S
C218 O220 1.270 . S
O219 Zn211 1.943 . S
O219 C218 1.249 . S
O220 Zn210 2.067 . S
O220 C218 1.270 . S
C221 O214 1.262 . S
C221 O222 1.232 . S
O222 C221 1.232 . S
C223 O215 1.260 . S
C223 O216 1.257 . S
Zn224 O227 2.031 . S
Zn224 O229 2.049 . S
Zn224 O234 2.067 . S
Zn225 O226 1.962 . S
Zn225 O228 1.986 . S
Zn225 O230 1.996 . S
Zn225 O233 1.943 . S
O226 Zn225 1.962 . S
O226 C231 1.254 . S
O227 Zn224 2.031 . S
O227 C231 1.269 . S
O228 Zn225 1.986 . S
O228 C235 1.262 . S
O229 Zn224 2.049 . S
O229 C237 1.260 . S
O230 Zn225 1.996 . S
O230 C237 1.257 . S
C231 O226 1.254 . S
C231 O227 1.269 . S
C232 O233 1.249 . S
C232 O234 1.270 . S
O233 Zn225 1.943 . S
O233 C232 1.249 . S
O234 Zn224 2.067 . S
O234 C232 1.270 . S
C235 O228 1.262 . S
C235 O236 1.232 . S
O236 C235 1.232 . S
C237 O229 1.260 . S
C237 O230 1.257 . S
Zn238 O241 2.031 . S
Zn238 O243 2.049 . S
Zn238 O248 2.067 . S
Zn239 O240 1.962 . S
Zn239 O242 1.986 . S
Zn239 O244 1.996 . S
Zn239 O247 1.943 . S
O240 Zn239 1.962 . S
O240 C245 1.254 . S
O241 Zn238 2.031 . S
O241 C245 1.269 . S
O242 Zn239 1.986 . S
O242 C249 1.262 . S
O243 Zn238 2.049 . S
O243 C251 1.260 . S
O244 Zn239 1.996 . S
O244 C251 1.257 . S
C245 O240 1.254 . S
C245 O241 1.269 . S
C246 O247 1.249 . S
C246 O248 1.270 . S
O247 Zn239 1.943 . S
O247 C246 1.249 . S
O248 Zn238 2.067 . S
O248 C246 1.270 . S
C249 O242 1.262 . S
C249 O250 1.232 . S
O250 C249 1.232 . S
C251 O243 1.260 . S
C251 O244 1.257 . S
Zn252 O255 2.031 . S
Zn252 O257 2.049 . S
Zn252 O262 2.067 . S
Zn253 O254 1.962 . S
Zn253 O256 1.986 . S
Zn253 O258 1.996 . S
Zn253 O261 1.943 . S
O254 Zn253 1.962 . S
O254 C259 1.254 . S
O255 Zn252 2.031 . S
O255 C259 1.269 . S
O256 Zn253 1.986 . S
O256 C263 1.262 . S
O257 Zn252 2.049 . S
O257 C265 1.260 . S
O258 Zn253 1.996 . S
O258 C265 1.257 . S
C259 O254 1.254 . S
C259 O255 1.269 . S
C260 O261 1.249 . S
C260 O262 1.270 . S
O261 Zn253 1.943 . S
O261 C260 1.249 . S
O262 Zn252 2.067 . S
O262 C260 1.270 . S
C263 O256 1.262 . S
C263 O264 1.232 . S
O264 C263 1.232 . S
C265 O257 1.260 . S
C265 O258 1.257 . S
Zn266 O269 2.031 . S
Zn266 O271 2.049 . S
Zn266 O276 2.067 . S
Zn267 O268 1.962 . S
Zn267 O270 1.986 . S
Zn267 O272 1.996 . S
Zn267 O275 1.943 . S
O268 Zn267 1.962 . S
O268 C273 1.254 . S
O269 Zn266 2.031 . S
O269 C273 1.269 . S
O270 Zn267 1.986 . S
O270 C277 1.262 . S
O271 Zn266 2.049 . S
O271 C279 1.260 . S
O272 Zn267 1.996 . S
O272 C279 1.257 . S
C273 O268 1.254 . S
C273 O269 1.269 . S
C274 O275 1.249 . S
C274 O276 1.270 . S
O275 Zn267 1.943 . S
O275 C274 1.249 . S
O276 Zn266 2.067 . S
O276 C274 1.270 . S
C277 O270 1.262 . S
C277 O278 1.232 . S
O278 C277 1.232 . S
C279 O271 1.260 . S
C279 O272 1.257 . S
Zn280 O283 2.031 . S
Zn280 O285 2.049 . S
Zn280 O290 2.067 . S
Zn281 O282 1.962 . S
Zn281 O284 1.986 . S
Zn281 O286 1.996 . S
Zn281 O289 1.943 . S
O282 Zn281 1.962 . S
O282 C287 1.254 . S
O283 Zn280 2.031 . S
O283 C287 1.269 . S
O284 Zn281 1.986 . S
O284 C291 1.262 . S
O285 Zn280 2.049 . S
O285 C293 1.260 . S
O286 Zn281 1.996 . S
O286 C293 1.257 . S
C287 O282 1.254 . S
C287 O283 1.269 . S
C288 O289 1.249 . S
C288 O290 1.270 . S
O289 Zn281 1.943 . S
O289 C288 1.249 . S
O290 Zn280 2.067 . S
O290 C288 1.270 . S
C291 O284 1.262 . S
C291 O292 1.232 . S
O292 C291 1.232 . S
C293 O285 1.260 . S
C293 O286 1.257 . S
Zn294 O297 2.031 . S
Zn294 O299 2.049 . S
Zn294 O304 2.067 . S
Zn295 O296 1.962 . S
Zn295 O298 1.986 . S
Zn295 O300 1.996 . S
Zn295 O303 1.943 . S
O296 Zn295 1.962 . S
O296 C301 1.254 . S
O297 Zn294 2.031 . S
O297 C301 1.269 . S
O298 Zn295 1.986 . S
O298 C305 1.262 . S
O299 Zn294 2.049 . S
O299 C307 1.260 . S
O300 Zn295 1.996 . S
O300 C307 1.257 . S
C301 O296 1.254 . S
C301 O297 1.269 . S
C302 O303 1.249 . S
C302 O304 1.270 . S
O303 Zn295 1.943 . S
O303 C302 1.249 . S
O304 Zn294 2.067 . S
O304 C302 1.270 . S
C305 O298 1.262 . S
C305 O306 1.232 . S
O306 C305 1.232 . S
C307 O299 1.260 . S
C307 O300 1.257 . S
Zn308 O311 2.031 . S
Zn308 O313 2.049 . S
Zn308 O318 2.067 . S
Zn309 O310 1.962 . S
Zn309 O312 1.986 . S
Zn309 O314 1.996 . S
Zn309 O317 1.943 . S
O310 Zn309 1.962 . S
O310 C315 1.254 . S
O311 Zn308 2.031 . S
O311 C315 1.269 . S
O312 Zn309 1.986 . S
O312 C319 1.262 . S
O313 Zn308 2.049 . S
O313 C321 1.260 . S
O314 Zn309 1.996 . S
O314 C321 1.257 . S
C315 O310 1.254 . S
C315 O311 1.269 . S
C316 O317 1.249 . S
C316 O318 1.270 . S
O317 Zn309 1.943 . S
O317 C316 1.249 . S
O318 Zn308 2.067 . S
O318 C316 1.270 . S
C319 O312 1.262 . S
C319 O320 1.232 . S
O320 C319 1.232 . S
C321 O313 1.260 . S
C321 O314 1.257 . S
Zn322 O325 2.031 . S
Zn322 O327 2.049 . S
Zn322 O332 2.067 . S
Zn323 O324 1.962 . S
Zn323 O326 1.986 . S
Zn323 O328 1.996 . S
Zn323 O331 1.943 . S
O324 Zn323 1.962 . S
O324 C329 1.254 . S
O325 Zn322 2.031 . S
O325 C329 1.269 . S
O326 Zn323 1.986 . S
O326 C333 1.262 . S
O327 Zn322 2.049 . S
O327 C335 1.260 . S
O328 Zn323 1.996 . S
O328 C335 1.257 . S
C329 O324 1.254 . S
C329 O325 1.269 . S
C330 O331 1.249 . S
C330 O332 1.270 . S
O331 Zn323 1.943 . S
O331 C330 1.249 . S
O332 Zn322 2.067 . S
O332 C330 1.270 . S
C333 O326 1.262 . S
C333 O334 1.232 . S
O334 C333 1.232 . S
C335 O327 1.260 . S
C335 O328 1.257 . S
C336 C337 1.369 . S
C336 C338 1.419 . S
C336 H340 0.930 . S
C337 C336 1.369 . S
C337 C346 1.429 . S
C338 C336 1.419 . S
C338 C339 1.363 . S
C338 H341 0.929 . S
C339 C338 1.363 . S
C339 C345 1.428 . S
H340 C336 0.930 . S
H341 C338 0.929 . S
S342 N343 1.613 . S
S342 N344 1.610 . S
N343 S342 1.613 . S
N343 C346 1.350 . S
N344 S342 1.610 . S
N344 C345 1.351 . S
C345 C339 1.428 . S
C345 N344 1.351 . S
C345 C346 1.434 . S
C346 C337 1.429 . S
C346 N343 1.350 . S
C346 C345 1.434 . S
C347 C348 1.369 . S
C347 C349 1.419 . S
C347 H351 0.930 . S
C348 C347 1.369 . S
C348 C357 1.429 . S
C349 C347 1.419 . S
C349 C350 1.363 . S
C349 H352 0.929 . S
C350 C349 1.363 . S
C350 C356 1.428 . S
H351 C347 0.930 . S
H352 C349 0.929 . S
S353 N354 1.613 . S
S353 N355 1.610 . S
N354 S353 1.613 . S
N354 C357 1.350 . S
N355 S353 1.610 . S
N355 C356 1.351 . S
C356 C350 1.428 . S
C356 N355 1.351 . S
C356 C357 1.434 . S
C357 C348 1.429 . S
C357 N354 1.350 . S
C357 C356 1.434 . S
C358 C359 1.369 . S
C358 C360 1.419 . S
C358 H362 0.930 . S
C359 C358 1.369 . S
C359 C368 1.429 . S
C360 C358 1.419 . S
C360 C361 1.363 . S
C360 H363 0.929 . S
C361 C360 1.363 . S
C361 C367 1.428 . S
H362 C358 0.930 . S
H363 C360 0.929 . S
S364 N365 1.613 . S
S364 N366 1.610 . S
N365 S364 1.613 . S
N365 C368 1.350 . S
N366 S364 1.610 . S
N366 C367 1.351 . S
C367 C361 1.428 . S
C367 N366 1.351 . S
C367 C368 1.434 . S
C368 C359 1.429 . S
C368 N365 1.350 . S
C368 C367 1.434 . S
C369 C370 1.369 . S
C369 C371 1.419 . S
C369 H373 0.930 . S
C370 C369 1.369 . S
C370 C379 1.429 . S
C371 C369 1.419 . S
C371 C372 1.363 . S
C371 H374 0.929 . S
C372 C371 1.363 . S
C372 C378 1.428 . S
H373 C369 0.930 . S
H374 C371 0.929 . S
S375 N376 1.613 . S
S375 N377 1.610 . S
N376 S375 1.613 . S
N376 C379 1.350 . S
N377 S375 1.610 . S
N377 C378 1.351 . S
C378 C372 1.428 . S
C378 N377 1.351 . S
C378 C379 1.434 . S
C379 C370 1.429 . S
C379 N376 1.350 . S
C379 C378 1.434 . S
C380 C381 1.369 . S
C380 C382 1.419 . S
C380 H384 0.930 . S
C381 C380 1.369 . S
C381 C390 1.429 . S
C382 C380 1.419 . S
C382 C383 1.363 . S
C382 H385 0.929 . S
C383 C382 1.363 . S
C383 C389 1.428 . S
H384 C380 0.930 . S
H385 C382 0.929 . S
S386 N387 1.613 . S
S386 N388 1.610 . S
N387 S386 1.613 . S
N387 C390 1.350 . S
N388 S386 1.610 . S
N388 C389 1.351 . S
C389 C383 1.428 . S
C389 N388 1.351 . S
C389 C390 1.434 . S
C390 C381 1.429 . S
C390 N387 1.350 . S
C390 C389 1.434 . S
C391 C392 1.369 . S
C391 C393 1.419 . S
C391 H395 0.930 . S
C392 C391 1.369 . S
C392 C401 1.429 . S
C393 C391 1.419 . S
C393 C394 1.363 . S
C393 H396 0.929 . S
C394 C393 1.363 . S
C394 C400 1.428 . S
H395 C391 0.930 . S
H396 C393 0.929 . S
S397 N398 1.613 . S
S397 N399 1.610 . S
N398 S397 1.613 . S
N398 C401 1.350 . S
N399 S397 1.610 . S
N399 C400 1.351 . S
C400 C394 1.428 . S
C400 N399 1.351 . S
C400 C401 1.434 . S
C401 C392 1.429 . S
C401 N398 1.350 . S
C401 C400 1.434 . S
C402 C403 1.369 . S
C402 C404 1.419 . S
C402 H406 0.930 . S
C403 C402 1.369 . S
C403 C412 1.429 . S
C404 C402 1.419 . S
C404 C405 1.363 . S
C404 H407 0.929 . S
C405 C404 1.363 . S
C405 C411 1.428 . S
H406 C402 0.930 . S
H407 C404 0.929 . S
S408 N409 1.613 . S
S408 N410 1.610 . S
N409 S408 1.613 . S
N409 C412 1.350 . S
N410 S408 1.610 . S
N410 C411 1.351 . S
C411 C405 1.428 . S
C411 N410 1.351 . S
C411 C412 1.434 . S
C412 C403 1.429 . S
C412 N409 1.350 . S
C412 C411 1.434 . S
C413 C414 1.369 . S
C413 C415 1.419 . S
C413 H417 0.930 . S
C414 C413 1.369 . S
C414 C423 1.429 . S
C415 C413 1.419 . S
C415 C416 1.363 . S
C415 H418 0.929 . S
C416 C415 1.363 . S
C416 C422 1.428 . S
H417 C413 0.930 . S
H418 C415 0.929 . S
S419 N420 1.613 . S
S419 N421 1.610 . S
N420 S419 1.613 . S
N420 C423 1.350 . S
N421 S419 1.610 . S
N421 C422 1.351 . S
C422 C416 1.428 . S
C422 N421 1.351 . S
C422 C423 1.434 . S
C423 C414 1.429 . S
C423 N420 1.350 . S
C423 C422 1.434 . S
C424 C425 1.369 . S
C424 C426 1.419 . S
C424 H428 0.930 . S
C425 C424 1.369 . S
C425 C434 1.429 . S
C426 C424 1.419 . S
C426 C427 1.363 . S
C426 H429 0.929 . S
C427 C426 1.363 . S
C427 C433 1.428 . S
H428 C424 0.930 . S
H429 C426 0.929 . S
S430 N431 1.613 . S
S430 N432 1.610 . S
N431 S430 1.613 . S
N431 C434 1.350 . S
N432 S430 1.610 . S
N432 C433 1.351 . S
C433 C427 1.428 . S
C433 N432 1.351 . S
C433 C434 1.434 . S
C434 C425 1.429 . S
C434 N431 1.350 . S
C434 C433 1.434 . S
C435 C436 1.369 . S
C435 C437 1.419 . S
C435 H439 0.930 . S
C436 C435 1.369 . S
C436 C445 1.429 . S
C437 C435 1.419 . S
C437 C438 1.363 . S
C437 H440 0.929 . S
C438 C437 1.363 . S
C438 C444 1.428 . S
H439 C435 0.930 . S
H440 C437 0.929 . S
S441 N442 1.613 . S
S441 N443 1.610 . S
N442 S441 1.613 . S
N442 C445 1.350 . S
N443 S441 1.610 . S
N443 C444 1.351 . S
C444 C438 1.428 . S
C444 N443 1.351 . S
C444 C445 1.434 . S
C445 C436 1.429 . S
C445 N442 1.350 . S
C445 C444 1.434 . S
C446 C447 1.369 . S
C446 C448 1.419 . S
C446 H450 0.930 . S
C447 C446 1.369 . S
C447 C456 1.429 . S
C448 C446 1.419 . S
C448 C449 1.363 . S
C448 H451 0.929 . S
C449 C448 1.363 . S
C449 C455 1.428 . S
H450 C446 0.930 . S
H451 C448 0.929 . S
S452 N453 1.613 . S
S452 N454 1.610 . S
N453 S452 1.613 . S
N453 C456 1.350 . S
N454 S452 1.610 . S
N454 C455 1.351 . S
C455 C449 1.428 . S
C455 N454 1.351 . S
C455 C456 1.434 . S
C456 C447 1.429 . S
C456 N453 1.350 . S
C456 C455 1.434 . S
C457 C458 1.369 . S
C457 C459 1.419 . S
C457 H461 0.930 . S
C458 C457 1.369 . S
C458 C467 1.429 . S
C459 C457 1.419 . S
C459 C460 1.363 . S
C459 H462 0.929 . S
C460 C459 1.363 . S
C460 C466 1.428 . S
H461 C457 0.930 . S
H462 C459 0.929 . S
S463 N464 1.613 . S
S463 N465 1.610 . S
N464 S463 1.613 . S
N464 C467 1.350 . S
N465 S463 1.610 . S
N465 C466 1.351 . S
C466 C460 1.428 . S
C466 N465 1.351 . S
C466 C467 1.434 . S
C467 C458 1.429 . S
C467 N464 1.350 . S
C467 C466 1.434 . S
C468 C469 1.369 . S
C468 C470 1.419 . S
C468 H472 0.930 . S
C469 C468 1.369 . S
C469 C478 1.429 . S
C470 C468 1.419 . S
C470 C471 1.363 . S
C470 H473 0.929 . S
C471 C470 1.363 . S
C471 C477 1.428 . S
H472 C468 0.930 . S
H473 C470 0.929 . S
S474 N475 1.613 . S
S474 N476 1.610 . S
N475 S474 1.613 . S
N475 C478 1.350 . S
N476 S474 1.610 . S
N476 C477 1.351 . S
C477 C471 1.428 . S
C477 N476 1.351 . S
C477 C478 1.434 . S
C478 C469 1.429 . S
C478 N475 1.350 . S
C478 C477 1.434 . S
C479 C480 1.369 . S
C479 C481 1.419 . S
C479 H483 0.930 . S
C480 C479 1.369 . S
C480 C489 1.429 . S
C481 C479 1.419 . S
C481 C482 1.363 . S
C481 H484 0.929 . S
C482 C481 1.363 . S
C482 C488 1.428 . S
H483 C479 0.930 . S
H484 C481 0.929 . S
S485 N486 1.613 . S
S485 N487 1.610 . S
N486 S485 1.613 . S
N486 C489 1.350 . S
N487 S485 1.610 . S
N487 C488 1.351 . S
C488 C482 1.428 . S
C488 N487 1.351 . S
C488 C489 1.434 . S
C489 C480 1.429 . S
C489 N486 1.350 . S
C489 C488 1.434 . S
C490 C491 1.369 . S
C490 C492 1.419 . S
C490 H494 0.930 . S
C491 C490 1.369 . S
C491 C500 1.429 . S
C492 C490 1.419 . S
C492 C493 1.363 . S
C492 H495 0.929 . S
C493 C492 1.363 . S
C493 C499 1.428 . S
H494 C490 0.930 . S
H495 C492 0.929 . S
S496 N497 1.613 1_556 S
S496 N498 1.610 1_556 S
N497 S496 1.613 1_554 S
N497 C500 1.350 . S
N498 S496 1.610 1_554 S
N498 C499 1.351 . S
C499 C493 1.428 . S
C499 N498 1.351 . S
C499 C500 1.434 . S
C500 C491 1.429 . S
C500 N497 1.350 . S
C500 C499 1.434 . S
C501 C502 1.369 . S
C501 C503 1.419 . S
C501 H505 0.930 . S
C502 C501 1.369 . S
C502 C511 1.429 . S
C503 C501 1.419 . S
C503 C504 1.363 . S
C503 H506 0.929 . S
C504 C503 1.363 . S
C504 C510 1.428 . S
H505 C501 0.930 . S
H506 C503 0.929 . S
S507 N508 1.613 . S
S507 N509 1.610 . S
N508 S507 1.613 . S
N508 C511 1.350 . S
N509 S507 1.610 . S
N509 C510 1.351 . S
C510 C504 1.428 . S
C510 N509 1.351 . S
C510 C511 1.434 . S
C511 C502 1.429 . S
C511 N508 1.350 . S
C511 C510 1.434 . S
C512 C513 1.369 . S
C512 C514 1.419 . S
C512 H516 0.930 . S
C513 C512 1.369 . S
C513 C522 1.429 . S
C514 C512 1.419 . S
C514 C515 1.363 . S
C514 H517 0.929 . S
C515 C514 1.363 . S
C515 C521 1.428 . S
H516 C512 0.930 . S
H517 C514 0.929 . S
S518 N519 1.613 . S
S518 N520 1.610 . S
N519 S518 1.613 . S
N519 C522 1.350 . S
N520 S518 1.610 . S
N520 C521 1.351 . S
C521 C515 1.428 . S
C521 N520 1.351 . S
C521 C522 1.434 . S
C522 C513 1.429 . S
C522 N519 1.350 . S
C522 C521 1.434 . S
C523 C524 1.369 . S
C523 C525 1.419 . S
C523 H527 0.930 . S
C524 C523 1.369 . S
C524 C533 1.429 . S
C525 C523 1.419 . S
C525 C526 1.363 . S
C525 H528 0.929 . S
C526 C525 1.363 . S
C526 C532 1.428 . S
H527 C523 0.930 . S
H528 C525 0.929 . S
S529 N530 1.613 . S
S529 N531 1.610 . S
N530 S529 1.613 . S
N530 C533 1.350 . S
N531 S529 1.610 . S
N531 C532 1.351 . S
C532 C526 1.428 . S
C532 N531 1.351 . S
C532 C533 1.434 . S
C533 C524 1.429 . S
C533 N530 1.350 . S
C533 C532 1.434 . S
C534 C535 1.369 . S
C534 C536 1.419 . S
C534 H538 0.930 . S
C535 C534 1.369 . S
C535 C544 1.429 . S
C536 C534 1.419 . S
C536 C537 1.363 . S
C536 H539 0.929 . S
C537 C536 1.363 . S
C537 C543 1.428 . S
H538 C534 0.930 . S
H539 C536 0.929 . S
S540 N541 1.613 . S
S540 N542 1.610 . S
N541 S540 1.613 . S
N541 C544 1.350 . S
N542 S540 1.610 . S
N542 C543 1.351 . S
C543 C537 1.428 . S
C543 N542 1.351 . S
C543 C544 1.434 . S
C544 C535 1.429 . S
C544 N541 1.350 . S
C544 C543 1.434 . S
C545 C546 1.369 . S
C545 C547 1.419 . S
C545 H549 0.930 . S
C546 C545 1.369 . S
C546 C555 1.429 . S
C547 C545 1.419 . S
C547 C548 1.363 . S
C547 H550 0.929 . S
C548 C547 1.363 . S
C548 C554 1.428 . S
H549 C545 0.930 . S
H550 C547 0.929 . S
S551 N552 1.613 1_554 S
S551 N553 1.610 1_554 S
N552 S551 1.613 1_556 S
N552 C555 1.350 . S
N553 S551 1.610 1_556 S
N553 C554 1.351 . S
C554 C548 1.428 . S
C554 N553 1.351 . S
C554 C555 1.434 . S
C555 C546 1.429 . S
C555 N552 1.350 . S
C555 C554 1.434 . S
C556 C557 1.369 . S
C556 C558 1.419 . S
C556 H560 0.930 . S
C557 C556 1.369 . S
C557 C566 1.429 . S
C558 C556 1.419 . S
C558 C559 1.363 . S
C558 H561 0.929 . S
C559 C558 1.363 . S
C559 C565 1.428 . S
H560 C556 0.930 . S
H561 C558 0.929 . S
S562 N563 1.613 . S
S562 N564 1.610 . S
N563 S562 1.613 . S
N563 C566 1.350 . S
N564 S562 1.610 . S
N564 C565 1.351 . S
C565 C559 1.428 . S
C565 N564 1.351 . S
C565 C566 1.434 . S
C566 C557 1.429 . S
C566 N563 1.350 . S
C566 C565 1.434 . S
C567 C568 1.369 . S
C567 C569 1.419 . S
C567 H571 0.930 . S
C568 C567 1.369 . S
C568 C577 1.429 . S
C569 C567 1.419 . S
C569 C570 1.363 . S
C569 H572 0.929 . S
C570 C569 1.363 . S
C570 C576 1.428 . S
H571 C567 0.930 . S
H572 C569 0.929 . S
S573 N574 1.613 . S
S573 N575 1.610 . S
N574 S573 1.613 . S
N574 C577 1.350 . S
N575 S573 1.610 . S
N575 C576 1.351 . S
C576 C570 1.428 . S
C576 N575 1.351 . S
C576 C577 1.434 . S
C577 C568 1.429 . S
C577 N574 1.350 . S
C577 C576 1.434 . S
C578 C579 1.369 . S
C578 C580 1.419 . S
C578 H582 0.930 . S
C579 C578 1.369 . S
C579 C588 1.429 . S
C580 C578 1.419 . S
C580 C581 1.363 . S
C580 H583 0.929 . S
C581 C580 1.363 . S
C581 C587 1.428 . S
H582 C578 0.930 . S
H583 C580 0.929 . S
S584 N585 1.613 . S
S584 N586 1.610 . S
N585 S584 1.613 . S
N585 C588 1.350 . S
N586 S584 1.610 . S
N586 C587 1.351 . S
C587 C581 1.428 . S
C587 N586 1.351 . S
C587 C588 1.434 . S
C588 C579 1.429 . S
C588 N585 1.350 . S
C588 C587 1.434 . S
C589 C590 1.369 . S
C589 C591 1.419 . S
C589 H593 0.930 . S
C590 C589 1.369 . S
C590 C599 1.429 . S
C591 C589 1.419 . S
C591 C592 1.363 . S
C591 H594 0.929 . S
C592 C591 1.363 . S
C592 C598 1.428 . S
H593 C589 0.930 . S
H594 C591 0.929 . S
S595 N596 1.613 . S
S595 N597 1.610 . S
N596 S595 1.613 . S
N596 C599 1.350 . S
N597 S595 1.610 . S
N597 C598 1.351 . S
C598 C592 1.428 . S
C598 N597 1.351 . S
C598 C599 1.434 . S
C599 C590 1.429 . S
C599 N596 1.350 . S
C599 C598 1.434 . S
C600 C601 1.369 1_554 S
C600 C602 1.419 . S
C600 H604 0.930 . S
C601 C600 1.369 1_556 S
C601 C610 1.429 1_565 S
C602 C600 1.419 . S
C602 C603 1.363 1_565 S
C602 H605 0.929 . S
C603 C602 1.363 1_545 S
C603 C609 1.428 1_554 S
H604 C600 0.930 . S
H605 C602 0.929 . S
S606 N607 1.613 . S
S606 N608 1.610 . S
N607 S606 1.613 . S
N607 C610 1.350 . S
N608 S606 1.610 . S
N608 C609 1.351 . S
C609 C603 1.428 1_556 S
C609 N608 1.351 . S
C609 C610 1.434 . S
C610 C601 1.429 1_545 S
C610 N607 1.350 . S
C610 C609 1.434 . S
C611 C612 1.369 . S
C611 C613 1.419 . S
C611 H615 0.930 . S
C612 C611 1.369 . S
C612 C621 1.429 . S
C613 C611 1.419 . S
C613 C614 1.363 . S
C613 H616 0.929 . S
C614 C613 1.363 . S
C614 C620 1.428 . S
H615 C611 0.930 . S
H616 C613 0.929 . S
S617 N618 1.613 . S
S617 N619 1.610 . S
N618 S617 1.613 . S
N618 C621 1.350 . S
N619 S617 1.610 . S
N619 C620 1.351 . S
C620 C614 1.428 . S
C620 N619 1.351 . S
C620 C621 1.434 . S
C621 C612 1.429 . S
C621 N618 1.350 . S
C621 C620 1.434 . S
C622 C623 1.369 1_554 S
C622 C624 1.419 . S
C622 H626 0.930 . S
C623 C622 1.369 1_556 S
C623 C632 1.429 1_455 S
C624 C622 1.419 . S
C624 C625 1.363 1_455 S
C624 H627 0.929 . S
C625 C624 1.363 1_655 S
C625 C631 1.428 1_554 S
H626 C622 0.930 . S
H627 C624 0.929 . S
S628 N629 1.613 . S
S628 N630 1.610 . S
N629 S628 1.613 . S
N629 C632 1.350 . S
N630 S628 1.610 . S
N630 C631 1.351 . S
C631 C625 1.428 1_556 S
C631 N630 1.351 . S
C631 C632 1.434 . S
C632 C623 1.429 1_655 S
C632 N629 1.350 . S
C632 C631 1.434 . S
C633 C634 1.369 1_565 S
C633 C635 1.419 . S
C633 H637 0.930 . S
C634 C633 1.369 1_545 S
C634 C643 1.429 . S
C635 C633 1.419 . S
C635 C636 1.363 . S
C635 H638 0.929 . S
C636 C635 1.363 . S
C636 C642 1.428 1_565 S
H637 C633 0.930 . S
H638 C635 0.929 . S
S639 N640 1.613 . S
S639 N641 1.610 . S
N640 S639 1.613 . S
N640 C643 1.350 . S
N641 S639 1.610 . S
N641 C642 1.351 . S
C642 C636 1.428 1_545 S
C642 N641 1.351 . S
C642 C643 1.434 . S
C643 C634 1.429 . S
C643 N640 1.350 . S
C643 C642 1.434 . S
C644 C645 1.369 . S
C644 C646 1.419 . S
C644 H648 0.930 . S
C645 C644 1.369 . S
C645 C654 1.429 1_554 S
C646 C644 1.419 . S
C646 C647 1.363 1_554 S
C646 H649 0.929 . S
C647 C646 1.363 1_556 S
C647 C653 1.428 . S
H648 C644 0.930 . S
H649 C646 0.929 . S
S650 N651 1.613 . S
S650 N652 1.610 . S
N651 S650 1.613 . S
N651 C654 1.350 . S
N652 S650 1.610 . S
N652 C653 1.351 . S
C653 C647 1.428 . S
C653 N652 1.351 . S
C653 C654 1.434 . S
C654 C645 1.429 1_556 S
C654 N651 1.350 . S
C654 C653 1.434 . S
C655 C656 1.369 . S
C655 C657 1.419 1_455 S
C655 H659 0.930 . S
C656 C655 1.369 . S
C656 C665 1.429 . S
C657 C655 1.419 1_655 S
C657 C658 1.363 . S
C657 H660 0.929 . S
C658 C657 1.363 . S
C658 C664 1.428 . S
H659 C655 0.930 . S
H660 C657 0.929 . S
S661 N662 1.613 1_655 S
S661 N663 1.610 . S
N662 S661 1.613 1_455 S
N662 C665 1.350 . S
N663 S661 1.610 . S
N663 C664 1.351 . S
C664 C658 1.428 . S
C664 N663 1.351 . S
C664 C665 1.434 1_655 S
C665 C656 1.429 . S
C665 N662 1.350 . S
C665 C664 1.434 1_455 S
C666 C667 1.369 1_554 S
C666 C668 1.419 . S
C666 H670 0.930 . S
C667 C666 1.369 1_556 S
C667 C676 1.429 1_565 S
C668 C666 1.419 . S
C668 C669 1.363 1_565 S
C668 H671 0.929 . S
C669 C668 1.363 1_545 S
C669 C675 1.428 1_554 S
H670 C666 0.930 . S
H671 C668 0.929 . S
S672 N673 1.613 . S
S672 N674 1.610 . S
N673 S672 1.613 . S
N673 C676 1.350 . S
N674 S672 1.610 . S
N674 C675 1.351 . S
C675 C669 1.428 1_556 S
C675 N674 1.351 . S
C675 C676 1.434 . S
C676 C667 1.429 1_545 S
C676 N673 1.350 . S
C676 C675 1.434 . S
C677 C678 1.369 . S
C677 C679 1.419 . S
C677 H681 0.930 . S
C678 C677 1.369 . S
C678 C687 1.429 . S
C679 C677 1.419 . S
C679 C680 1.363 . S
C679 H682 0.929 . S
C680 C679 1.363 . S
C680 C686 1.428 . S
H681 C677 0.930 . S
H682 C679 0.929 . S
S683 N684 1.613 . S
S683 N685 1.610 . S
N684 S683 1.613 . S
N684 C687 1.350 . S
N685 S683 1.610 . S
N685 C686 1.351 . S
C686 C680 1.428 . S
C686 N685 1.351 . S
C686 C687 1.434 . S
C687 C678 1.429 . S
C687 N684 1.350 . S
C687 C686 1.434 . S
C688 C689 1.369 1_455 S
C688 C690 1.419 . S
C688 H692 0.930 . S
C689 C688 1.369 1_655 S
C689 C698 1.429 1_554 S
C690 C688 1.419 . S
C690 C691 1.363 1_554 S
C690 H693 0.929 . S
C691 C690 1.363 1_556 S
C691 C697 1.428 1_455 S
H692 C688 0.930 . S
H693 C690 0.929 . S
S694 N695 1.613 . S
S694 N696 1.610 . S
N695 S694 1.613 . S
N695 C698 1.350 . S
N696 S694 1.610 . S
N696 C697 1.351 . S
C697 C691 1.428 1_655 S
C697 N696 1.351 . S
C697 C698 1.434 . S
C698 C689 1.429 1_556 S
C698 N695 1.350 . S
C698 C697 1.434 . S
C699 C700 1.369 1_545 S
C699 C701 1.419 . S
C699 H703 0.930 . S
C700 C699 1.369 1_565 S
C700 C709 1.429 . S
C701 C699 1.419 . S
C701 C702 1.363 . S
C701 H704 0.929 . S
C702 C701 1.363 . S
C702 C708 1.428 1_545 S
H703 C699 0.930 . S
H704 C701 0.929 . S
S705 N706 1.613 . S
S705 N707 1.610 . S
N706 S705 1.613 . S
N706 C709 1.350 . S
N707 S705 1.610 . S
N707 C708 1.351 . S
C708 C702 1.428 1_565 S
C708 N707 1.351 . S
C708 C709 1.434 . S
C709 C700 1.429 . S
C709 N706 1.350 . S
C709 C708 1.434 . S
C710 C711 1.369 . S
C710 C712 1.419 1_554 S
C710 H714 0.930 . S
C711 C710 1.369 . S
C711 C720 1.429 . S
C712 C710 1.419 1_556 S
C712 C713 1.363 . S
C712 H715 0.929 . S
C713 C712 1.363 . S
C713 C719 1.428 . S
H714 C710 0.930 . S
H715 C712 0.929 . S
S716 N717 1.613 . S
S716 N718 1.610 1_554 S
N717 S716 1.613 . S
N717 C720 1.350 . S
N718 S716 1.610 1_556 S
N718 C719 1.351 . S
C719 C713 1.428 . S
C719 N718 1.351 . S
C719 C720 1.434 1_556 S
C720 C711 1.429 . S
C720 N717 1.350 . S
C720 C719 1.434 1_554 S
C721 C722 1.369 1_655 S
C721 C723 1.419 . S
C721 H725 0.930 . S
C722 C721 1.369 1_455 S
C722 C731 1.429 . S
C723 C721 1.419 . S
C723 C724 1.363 . S
C723 H726 0.929 . S
C724 C723 1.363 . S
C724 C730 1.428 1_655 S
H725 C721 0.930 . S
H726 C723 0.929 . S
S727 N728 1.613 . S
S727 N729 1.610 . S
N728 S727 1.613 . S
N728 C731 1.350 . S
N729 S727 1.610 . S
N729 C730 1.351 . S
C730 C724 1.428 1_455 S
C730 N729 1.351 . S
C730 C731 1.434 . S
C731 C722 1.429 . S
C731 N728 1.350 . S
C731 C730 1.434 . S
C732 C733 1.369 . S
C732 C734 1.419 . S
C732 H736 0.930 . S
C733 C732 1.369 . S
C733 C742 1.429 . S
C734 C732 1.419 . S
C734 C735 1.363 . S
C734 H737 0.929 . S
C735 C734 1.363 . S
C735 C741 1.428 . S
H736 C732 0.930 . S
H737 C734 0.929 . S
S738 N739 1.613 . S
S738 N740 1.610 . S
N739 S738 1.613 . S
N739 C742 1.350 . S
N740 S738 1.610 . S
N740 C741 1.351 . S
C741 C735 1.428 . S
C741 N740 1.351 . S
C741 C742 1.434 . S
C742 C733 1.429 . S
C742 N739 1.350 . S
C742 C741 1.434 . S
C743 C744 1.369 . S
C743 C745 1.419 . S
C743 H747 0.930 . S
C744 C743 1.369 . S
C744 C753 1.429 . S
C745 C743 1.419 . S
C745 C746 1.363 . S
C745 H748 0.929 . S
C746 C745 1.363 . S
C746 C752 1.428 . S
H747 C743 0.930 . S
H748 C745 0.929 . S
S749 N750 1.613 . S
S749 N751 1.610 . S
N750 S749 1.613 . S
N750 C753 1.350 . S
N751 S749 1.610 . S
N751 C752 1.351 . S
C752 C746 1.428 . S
C752 N751 1.351 . S
C752 C753 1.434 . S
C753 C744 1.429 . S
C753 N750 1.350 . S
C753 C752 1.434 . S
C754 C755 1.369 . S
C754 C756 1.419 . S
C754 H758 0.930 . S
C755 C754 1.369 . S
C755 C764 1.429 . S
C756 C754 1.419 . S
C756 C757 1.363 . S
C756 H759 0.929 . S
C757 C756 1.363 . S
C757 C763 1.428 . S
H758 C754 0.930 . S
H759 C756 0.929 . S
S760 N761 1.613 . S
S760 N762 1.610 . S
N761 S760 1.613 . S
N761 C764 1.350 . S
N762 S760 1.610 . S
N762 C763 1.351 . S
C763 C757 1.428 . S
C763 N762 1.351 . S
C763 C764 1.434 . S
C764 C755 1.429 . S
C764 N761 1.350 . S
C764 C763 1.434 . S
C765 C766 1.369 . S
C765 C767 1.419 . S
C765 H769 0.930 . S
C766 C765 1.369 . S
C766 C775 1.429 . S
C767 C765 1.419 . S
C767 C768 1.363 . S
C767 H770 0.929 . S
C768 C767 1.363 . S
C768 C774 1.428 . S
H769 C765 0.930 . S
H770 C767 0.929 . S
S771 N772 1.613 . S
S771 N773 1.610 . S
N772 S771 1.613 . S
N772 C775 1.350 . S
N773 S771 1.610 . S
N773 C774 1.351 . S
C774 C768 1.428 . S
C774 N773 1.351 . S
C774 C775 1.434 . S
C775 C766 1.429 . S
C775 N772 1.350 . S
C775 C774 1.434 . S
C776 C777 1.369 . S
C776 C778 1.419 . S
C776 H780 0.930 . S
C777 C776 1.369 . S
C777 C786 1.429 . S
C778 C776 1.419 . S
C778 C779 1.363 . S
C778 H781 0.929 . S
C779 C778 1.363 . S
C779 C785 1.428 . S
H780 C776 0.930 . S
H781 C778 0.929 . S
S782 N783 1.613 . S
S782 N784 1.610 . S
N783 S782 1.613 . S
N783 C786 1.350 . S
N784 S782 1.610 . S
N784 C785 1.351 . S
C785 C779 1.428 . S
C785 N784 1.351 . S
C785 C786 1.434 . S
C786 C777 1.429 . S
C786 N783 1.350 . S
C786 C785 1.434 . S
C787 C788 1.369 . S
C787 C789 1.419 . S
C787 H791 0.930 . S
C788 C787 1.369 . S
C788 C797 1.429 . S
C789 C787 1.419 . S
C789 C790 1.363 . S
C789 H792 0.929 . S
C790 C789 1.363 . S
C790 C796 1.428 . S
H791 C787 0.930 . S
H792 C789 0.929 . S
S793 N794 1.613 . S
S793 N795 1.610 . S
N794 S793 1.613 . S
N794 C797 1.350 . S
N795 S793 1.610 . S
N795 C796 1.351 . S
C796 C790 1.428 . S
C796 N795 1.351 . S
C796 C797 1.434 . S
C797 C788 1.429 . S
C797 N794 1.350 . S
C797 C796 1.434 . S
C798 C799 1.369 . S
C798 C800 1.419 . S
C798 H802 0.930 . S
C799 C798 1.369 . S
C799 C808 1.429 . S
C800 C798 1.419 . S
C800 C801 1.363 . S
C800 H803 0.929 . S
C801 C800 1.363 . S
C801 C807 1.428 . S
H802 C798 0.930 . S
H803 C800 0.929 . S
S804 N805 1.613 . S
S804 N806 1.610 . S
N805 S804 1.613 . S
N805 C808 1.350 . S
N806 S804 1.610 . S
N806 C807 1.351 . S
C807 C801 1.428 . S
C807 N806 1.351 . S
C807 C808 1.434 . S
C808 C799 1.429 . S
C808 N805 1.350 . S
C808 C807 1.434 . S
C809 C810 1.369 . S
C809 C811 1.419 . S
C809 H813 0.930 . S
C810 C809 1.369 . S
C810 C819 1.429 . S
C811 C809 1.419 . S
C811 C812 1.363 . S
C811 H814 0.929 . S
C812 C811 1.363 . S
C812 C818 1.428 . S
H813 C809 0.930 . S
H814 C811 0.929 . S
S815 N816 1.613 . S
S815 N817 1.610 . S
N816 S815 1.613 . S
N816 C819 1.350 . S
N817 S815 1.610 . S
N817 C818 1.351 . S
C818 C812 1.428 . S
C818 N817 1.351 . S
C818 C819 1.434 . S
C819 C810 1.429 . S
C819 N816 1.350 . S
C819 C818 1.434 . S
C820 C821 1.369 . S
C820 C822 1.419 . S
C820 H824 0.930 . S
C821 C820 1.369 . S
C821 C830 1.429 . S
C822 C820 1.419 . S
C822 C823 1.363 . S
C822 H825 0.929 . S
C823 C822 1.363 . S
C823 C829 1.428 . S
H824 C820 0.930 . S
H825 C822 0.929 . S
S826 N827 1.613 . S
S826 N828 1.610 . S
N827 S826 1.613 . S
N827 C830 1.350 . S
N828 S826 1.610 . S
N828 C829 1.351 . S
C829 C823 1.428 . S
C829 N828 1.351 . S
C829 C830 1.434 . S
C830 C821 1.429 . S
C830 N827 1.350 . S
C830 C829 1.434 . S
C831 C832 1.369 . S
C831 C833 1.419 . S
C831 H835 0.930 . S
C832 C831 1.369 . S
C832 C841 1.429 . S
C833 C831 1.419 . S
C833 C834 1.363 . S
C833 H836 0.929 . S
C834 C833 1.363 . S
C834 C840 1.428 . S
H835 C831 0.930 . S
H836 C833 0.929 . S
S837 N838 1.613 . S
S837 N839 1.610 . S
N838 S837 1.613 . S
N838 C841 1.350 . S
N839 S837 1.610 . S
N839 C840 1.351 . S
C840 C834 1.428 . S
C840 N839 1.351 . S
C840 C841 1.434 . S
C841 C832 1.429 . S
C841 N838 1.350 . S
C841 C840 1.434 . S
C842 C843 1.369 . S
C842 C844 1.419 . S
C842 H846 0.930 . S
C843 C842 1.369 . S
C843 C852 1.429 . S
C844 C842 1.419 . S
C844 C845 1.363 . S
C844 H847 0.929 . S
C845 C844 1.363 . S
C845 C851 1.428 . S
H846 C842 0.930 . S
H847 C844 0.929 . S
S848 N849 1.613 . S
S848 N850 1.610 . S
N849 S848 1.613 . S
N849 C852 1.350 . S
N850 S848 1.610 . S
N850 C851 1.351 . S
C851 C845 1.428 . S
C851 N850 1.351 . S
C851 C852 1.434 . S
C852 C843 1.429 . S
C852 N849 1.350 . S
C852 C851 1.434 . S
C853 C854 1.369 . S
C853 C855 1.419 . S
C853 H857 0.930 . S
C854 C853 1.369 . S
C854 C863 1.429 . S
C855 C853 1.419 . S
C855 C856 1.363 . S
C855 H858 0.929 . S
C856 C855 1.363 . S
C856 C862 1.428 . S
H857 C853 0.930 . S
H858 C855 0.929 . S
S859 N860 1.613 . S
S859 N861 1.610 . S
N860 S859 1.613 . S
N860 C863 1.350 . S
N861 S859 1.610 . S
N861 C862 1.351 . S
C862 C856 1.428 . S
C862 N861 1.351 . S
C862 C863 1.434 . S
C863 C854 1.429 . S
C863 N860 1.350 . S
C863 C862 1.434 . S
C337 C223 1.391 . S
C339 C13 1.390 . S
C348 C27 1.382 . S
C350 C237 1.383 . S
C359 C41 1.382 . S
C361 C251 1.383 . S
C370 C55 1.383 . S
C372 C181 1.384 . S
C381 C195 1.384 . S
C383 C69 1.384 . S
C392 C83 1.390 . S
C394 C209 1.389 . S
C403 C307 1.386 . S
C405 C97 1.386 . S
C414 C111 1.392 . S
C416 C321 1.391 . S
C425 C125 1.391 . S
C427 C335 1.390 . S
C436 C265 1.387 . S
C438 C139 1.387 . S
C447 C153 1.392 . S
C449 C279 1.391 . S
C458 C293 1.391 . S
C460 C167 1.390 . S
C469 C11 1.397 . S
C471 C333 1.397 . S
C480 C263 1.397 . S
C482 C25 1.397 . S
C491 C39 1.398 . S
C493 C277 1.398 . S
C502 C291 1.398 . S
C504 C53 1.398 . S
C513 C67 1.397 . S
C515 C305 1.397 . S
C524 C319 1.397 . S
C526 C81 1.398 . S
C535 C95 1.398 . S
C537 C193 1.398 . S
C546 C207 1.398 . S
C548 C109 1.398 . S
C557 C221 1.397 . S
C559 C123 1.397 . S
C568 C235 1.398 . S
C570 C137 1.398 . S
C579 C151 1.397 . S
C581 C249 1.397 . S
C590 C165 1.397 . S
C592 C179 1.398 . S
C601 C105 1.163 . S
C603 C7 1.165 . S
C612 C119 1.163 . S
C614 C21 1.166 . S
C623 C133 1.161 . S
C625 C35 1.163 . S
C634 C147 1.167 . S
C636 C49 1.164 . S
C645 C63 1.167 . S
C647 C161 1.165 . S
C656 C77 1.165 . S
C658 C91 1.167 . S
C667 C175 1.163 . S
C669 C273 1.166 . S
C678 C189 1.167 . S
C680 C287 1.166 . S
C689 C301 1.165 . S
C691 C203 1.163 . S
C700 C315 1.165 . S
C702 C217 1.163 . S
C711 C329 1.167 . S
C713 C231 1.167 . S
C722 C259 1.165 . S
C724 C245 1.163 . S
C733 C8 1.430 . S
C735 C274 1.431 . S
C744 C288 1.433 . S
C746 C22 1.433 . S
C755 C36 1.431 . S
C757 C302 1.432 . S
C766 C316 1.431 . S
C768 C50 1.432 . S
C777 C64 1.431 . S
C779 C330 1.433 . S
C788 C260 1.435 . S
C790 C78 1.435 . S
C799 C92 1.431 . S
C801 C246 1.432 . S
C810 C176 1.438 . S
C812 C106 1.437 . S
C821 C120 1.440 . S
C823 C190 1.439 . S
C832 C134 1.433 . S
C834 C204 1.434 . S
C843 C148 1.437 . S
C845 C218 1.437 . S
C854 C162 1.431 . S
C856 C232 1.432 . S
