# Generated by pormake.
# Topology afi, (4)-cn, num edge types: 1
# Building blocks:
#     Node 0, Type 0, BuildingBlock: TATPOV_clean_sbu_0, # of connection points: 4
#     Node 1, Type 0, BuildingBlock: TATPOV_clean_sbu_0, # of connection points: 4
#     Node 2, Type 0, BuildingBlock: TATPOV_clean_sbu_0, # of connection points: 4
#     Node 3, Type 0, BuildingBlock: TATPOV_clean_sbu_0, # of connection points: 4
#     Node 4, Type 0, BuildingBlock: TATPOV_clean_sbu_0, # of connection points: 4
#     Node 5, Type 0, BuildingBlock: TATPOV_clean_sbu_0, # of connection points: 4
#     Node 6, Type 0, BuildingBlock: TATPOV_clean_sbu_0, # of connection points: 4
#     Node 7, Type 0, BuildingBlock: TATPOV_clean_sbu_0, # of connection points: 4
#     Node 8, Type 0, BuildingBlock: TATPOV_clean_sbu_0, # of connection points: 4
#     Node 9, Type 0, BuildingBlock: TATPOV_clean_sbu_0, # of connection points: 4
#     Node 10, Type 0, BuildingBlock: TATPOV_clean_sbu_0, # of connection points: 4
#     Node 11, Type 0, BuildingBlock: TATPOV_clean_sbu_0, # of connection points: 4
#     Node 12, Type 0, BuildingBlock: TATPOV_clean_sbu_0, # of connection points: 4
#     Node 13, Type 0, BuildingBlock: TATPOV_clean_sbu_0, # of connection points: 4
#     Node 14, Type 0, BuildingBlock: TATPOV_clean_sbu_0, # of connection points: 4
#     Node 15, Type 0, BuildingBlock: TATPOV_clean_sbu_0, # of connection points: 4
#     Node 16, Type 0, BuildingBlock: TATPOV_clean_sbu_0, # of connection points: 4
#     Node 17, Type 0, BuildingBlock: TATPOV_clean_sbu_0, # of connection points: 4
#     Node 18, Type 0, BuildingBlock: TATPOV_clean_sbu_0, # of connection points: 4
#     Node 19, Type 0, BuildingBlock: TATPOV_clean_sbu_0, # of connection points: 4
#     Node 20, Type 0, BuildingBlock: TATPOV_clean_sbu_0, # of connection points: 4
#     Node 21, Type 0, BuildingBlock: TATPOV_clean_sbu_0, # of connection points: 4
#     Node 22, Type 0, BuildingBlock: TATPOV_clean_sbu_0, # of connection points: 4
#     Node 23, Type 0, BuildingBlock: TATPOV_clean_sbu_0, # of connection points: 4
#     Edge 24, Type (0, 0), BuildingBlock: KIFKEQ_clean_linker_1, # of connection points: 2
#     Edge 25, Type (0, 0), BuildingBlock: KIFKEQ_clean_linker_1, # of connection points: 2
#     Edge 26, Type (0, 0), BuildingBlock: KIFKEQ_clean_linker_1, # of connection points: 2
#     Edge 27, Type (0, 0), BuildingBlock: KIFKEQ_clean_linker_1, # of connection points: 2
#     Edge 28, Type (0, 0), BuildingBlock: KIFKEQ_clean_linker_1, # of connection points: 2
#     Edge 29, Type (0, 0), BuildingBlock: KIFKEQ_clean_linker_1, # of connection points: 2
#     Edge 30, Type (0, 0), BuildingBlock: KIFKEQ_clean_linker_1, # of connection points: 2
#     Edge 31, Type (0, 0), BuildingBlock: KIFKEQ_clean_linker_1, # of connection points: 2
#     Edge 32, Type (0, 0), BuildingBlock: KIFKEQ_clean_linker_1, # of connection points: 2
#     Edge 33, Type (0, 0), BuildingBlock: KIFKEQ_clean_linker_1, # of connection points: 2
#     Edge 34, Type (0, 0), BuildingBlock: KIFKEQ_clean_linker_1, # of connection points: 2
#     Edge 35, Type (0, 0), BuildingBlock: KIFKEQ_clean_linker_1, # of connection points: 2
#     Edge 36, Type (0, 0), BuildingBlock: KIFKEQ_clean_linker_1, # of connection points: 2
#     Edge 37, Type (0, 0), BuildingBlock: KIFKEQ_clean_linker_1, # of connection points: 2
#     Edge 38, Type (0, 0), BuildingBlock: KIFKEQ_clean_linker_1, # of connection points: 2
#     Edge 39, Type (0, 0), BuildingBlock: KIFKEQ_clean_linker_1, # of connection points: 2
#     Edge 40, Type (0, 0), BuildingBlock: KIFKEQ_clean_linker_1, # of connection points: 2
#     Edge 41, Type (0, 0), BuildingBlock: KIFKEQ_clean_linker_1, # of connection points: 2
#     Edge 42, Type (0, 0), BuildingBlock: KIFKEQ_clean_linker_1, # of connection points: 2
#     Edge 43, Type (0, 0), BuildingBlock: KIFKEQ_clean_linker_1, # of connection points: 2
#     Edge 44, Type (0, 0), BuildingBlock: KIFKEQ_clean_linker_1, # of connection points: 2
#     Edge 45, Type (0, 0), BuildingBlock: KIFKEQ_clean_linker_1, # of connection points: 2
#     Edge 46, Type (0, 0), BuildingBlock: KIFKEQ_clean_linker_1, # of connection points: 2
#     Edge 47, Type (0, 0), BuildingBlock: KIFKEQ_clean_linker_1, # of connection points: 2
#     Edge 48, Type (0, 0), BuildingBlock: KIFKEQ_clean_linker_1, # of connection points: 2
#     Edge 49, Type (0, 0), BuildingBlock: KIFKEQ_clean_linker_1, # of connection points: 2
#     Edge 50, Type (0, 0), BuildingBlock: KIFKEQ_clean_linker_1, # of connection points: 2
#     Edge 51, Type (0, 0), BuildingBlock: KIFKEQ_clean_linker_1, # of connection points: 2
#     Edge 52, Type (0, 0), BuildingBlock: KIFKEQ_clean_linker_1, # of connection points: 2
#     Edge 53, Type (0, 0), BuildingBlock: KIFKEQ_clean_linker_1, # of connection points: 2
#     Edge 54, Type (0, 0), BuildingBlock: KIFKEQ_clean_linker_1, # of connection points: 2
#     Edge 55, Type (0, 0), BuildingBlock: KIFKEQ_clean_linker_1, # of connection points: 2
#     Edge 56, Type (0, 0), BuildingBlock: KIFKEQ_clean_linker_1, # of connection points: 2
#     Edge 57, Type (0, 0), BuildingBlock: KIFKEQ_clean_linker_1, # of connection points: 2
#     Edge 58, Type (0, 0), BuildingBlock: KIFKEQ_clean_linker_1, # of connection points: 2
#     Edge 59, Type (0, 0), BuildingBlock: KIFKEQ_clean_linker_1, # of connection points: 2
#     Edge 60, Type (0, 0), BuildingBlock: KIFKEQ_clean_linker_1, # of connection points: 2
#     Edge 61, Type (0, 0), BuildingBlock: KIFKEQ_clean_linker_1, # of connection points: 2
#     Edge 62, Type (0, 0), BuildingBlock: KIFKEQ_clean_linker_1, # of connection points: 2
#     Edge 63, Type (0, 0), BuildingBlock: KIFKEQ_clean_linker_1, # of connection points: 2
#     Edge 64, Type (0, 0), BuildingBlock: KIFKEQ_clean_linker_1, # of connection points: 2
#     Edge 65, Type (0, 0), BuildingBlock: KIFKEQ_clean_linker_1, # of connection points: 2
#     Edge 66, Type (0, 0), BuildingBlock: KIFKEQ_clean_linker_1, # of connection points: 2
#     Edge 67, Type (0, 0), BuildingBlock: KIFKEQ_clean_linker_1, # of connection points: 2
#     Edge 68, Type (0, 0), BuildingBlock: KIFKEQ_clean_linker_1, # of connection points: 2
#     Edge 69, Type (0, 0), BuildingBlock: KIFKEQ_clean_linker_1, # of connection points: 2
#     Edge 70, Type (0, 0), BuildingBlock: KIFKEQ_clean_linker_1, # of connection points: 2
#     Edge 71, Type (0, 0), BuildingBlock: KIFKEQ_clean_linker_1, # of connection points: 2
# Relax obj value: 0.050
# Max RMSD: 0.066
# Mean RMSD: 0.066
data_MOF--net-afi--node1-TATPOV_clean_sbu_0--edge1-KIFKEQ_clean_linker_1
_symmetry_space_group_name_H-M    P1
_symmetry_Int_Tables_number       1
_symmetry_cell_setting            triclinic
loop_
_symmetry_equiv_pos_as_xyz
'x, y, z'
_cell_length_a     68.027454
_cell_length_b     67.837263
_cell_length_c     40.279907
_cell_angle_alpha  89.923695
_cell_angle_beta   89.787262
_cell_angle_gamma 120.2111
loop_
_atom_site_label
_atom_site_type_symbol
_atom_site_fract_x
_atom_site_fract_y
_atom_site_fract_z
_atom_type_partial_charge
Zn0 Zn 0.48052 0.11726 0.30784 0.0
Zn1 Zn 0.47862 0.1188 0.24222 0.0
O2 O 0.4549 0.08544 0.25424 0.0
O3 O 0.46027 0.08345 0.30779 0.0
O4 O 0.47835 0.12031 0.19137 0.0
O5 O 0.46655 0.13666 0.31258 0.0
O6 O 0.46812 0.14105 0.25823 0.0
C7 C 0.45015 0.07396 0.28117 0.0
C8 C 0.52374 0.13358 0.2798 0.0
O9 O 0.51219 0.12841 0.25304 0.0
O10 O 0.51411 0.13146 0.30753 0.0
C11 C 0.4601 0.11079 0.17443 0.0
O12 O 0.4405 0.09956 0.19011 0.0
C13 C 0.46335 0.14545 0.28699 0.0
Zn14 Zn 0.28095 0.40669 0.29343 0.0
Zn15 Zn 0.28324 0.40883 0.22812 0.0
O16 O 0.29493 0.38684 0.24171 0.0
O17 O 0.29192 0.38484 0.29625 0.0
O18 O 0.28282 0.40798 0.17699 0.0
O19 O 0.24815 0.3955 0.29534 0.0
O20 O 0.24983 0.39942 0.24099 0.0
C21 C 0.29728 0.37907 0.26944 0.0
C22 C 0.31163 0.45183 0.26962 0.0
O23 O 0.30618 0.44227 0.24119 0.0
O24 O 0.30288 0.44023 0.29572 0.0
C25 C 0.30021 0.42042 0.15895 0.0
O26 O 0.31947 0.43465 0.17349 0.0
C27 C 0.23855 0.39464 0.26819 0.0
Zn28 Zn 0.84996 0.31307 0.30213 0.0
Zn29 Zn 0.85077 0.31287 0.23719 0.0
O30 O 0.88437 0.33527 0.24956 0.0
O31 O 0.88207 0.33839 0.30368 0.0
O32 O 0.85047 0.31212 0.18623 0.0
O33 O 0.84348 0.28124 0.30553 0.0
O34 O 0.83928 0.27917 0.25124 0.0
C35 C 0.89369 0.34431 0.27719 0.0
C36 C 0.82055 0.32692 0.2768 0.0
O37 O 0.82977 0.32584 0.24967 0.0
O38 O 0.82497 0.3203 0.30364 0.0
C39 C 0.86039 0.3304 0.16905 0.0
O40 O 0.87098 0.35005 0.18458 0.0
C41 C 0.83848 0.26974 0.2791 0.0
Zn42 Zn 0.48425 0.84818 0.30523 0.0
Zn43 Zn 0.48561 0.85095 0.24068 0.0
O44 O 0.5101 0.88362 0.25612 0.0
O45 O 0.50541 0.88123 0.3104 0.0
O46 O 0.48505 0.85208 0.18961 0.0
O47 O 0.49725 0.82798 0.30563 0.0
O48 O 0.49529 0.82696 0.25102 0.0
C49 C 0.5155 0.89279 0.28484 0.0
C50 C 0.44093 0.83452 0.28146 0.0
O51 O 0.45212 0.8409 0.25418 0.0
O52 O 0.45092 0.83508 0.3081 0.0
C53 C 0.50196 0.86568 0.17157 0.0
O54 O 0.52118 0.8801 0.18602 0.0
C55 C 0.49998 0.82059 0.27827 0.0
Zn56 Zn 0.65321 0.53952 0.28719 0.0
Zn57 Zn 0.65173 0.54036 0.22284 0.0
O58 O 0.63813 0.56052 0.23754 0.0
O59 O 0.63714 0.55672 0.29192 0.0
O60 O 0.65255 0.54159 0.1718 0.0
O61 O 0.68658 0.55601 0.28982 0.0
O62 O 0.68574 0.55259 0.23544 0.0
C63 C 0.63285 0.56454 0.26622 0.0
C64 C 0.62583 0.49516 0.26198 0.0
O65 O 0.6298 0.50622 0.23472 0.0
O66 O 0.63536 0.50555 0.28843 0.0
C67 C 0.63605 0.53949 0.15427 0.0
O68 O 0.61752 0.53633 0.16936 0.0
C69 C 0.69689 0.5587 0.2626 0.0
Zn70 Zn 0.09763 0.67048 0.29717 0.0
Zn71 Zn 0.09821 0.66852 0.23308 0.0
O72 O 0.06414 0.64617 0.24557 0.0
O73 O 0.06565 0.64593 0.30016 0.0
O74 O 0.09949 0.66854 0.18192 0.0
O75 O 0.10506 0.70254 0.29874 0.0
O76 O 0.11048 0.70279 0.24482 0.0
C77 C 0.05445 0.63847 0.27368 0.0
C78 C 0.1268 0.65486 0.27695 0.0
O79 O 0.11896 0.65581 0.24854 0.0
O80 O 0.12145 0.66199 0.30244 0.0
C81 C 0.08612 0.65136 0.16435 0.0
O82 O 0.07097 0.63258 0.17941 0.0
C83 C 0.11117 0.71327 0.27154 0.0
Zn84 Zn 0.84208 0.50867 0.28006 0.0
Zn85 Zn 0.84298 0.51127 0.34468 0.0
O86 O 0.87696 0.52801 0.33036 0.0
O87 O 0.87536 0.52082 0.27683 0.0
O88 O 0.84382 0.51311 0.39564 0.0
O89 O 0.83067 0.53022 0.27574 0.0
O90 O 0.82636 0.52856 0.33009 0.0
C91 C 0.88693 0.52953 0.30273 0.0
C92 C 0.81719 0.46499 0.30788 0.0
O93 O 0.82561 0.47641 0.33444 0.0
O94 O 0.8205 0.47523 0.2804 0.0
C95 C 0.85027 0.50162 0.41282 0.0
O96 O 0.85636 0.48849 0.39728 0.0
C97 C 0.82403 0.5356 0.30172 0.0
Zn98 Zn 0.28527 0.87091 0.28551 0.0
Zn99 Zn 0.28664 0.87287 0.34996 0.0
O100 O 0.30807 0.90667 0.33568 0.0
O101 O 0.3083 0.90357 0.2813 0.0
O102 O 0.28577 0.87318 0.40092 0.0
O103 O 0.25278 0.86126 0.28222 0.0
O104 O 0.25237 0.85784 0.33658 0.0
C105 C 0.31544 0.91567 0.30711 0.0
C106 C 0.3033 0.84474 0.31153 0.0
O107 O 0.30159 0.8536 0.33857 0.0
O108 O 0.29572 0.84814 0.28482 0.0
C109 C 0.30364 0.88426 0.41836 0.0
O110 O 0.32336 0.89602 0.40315 0.0
C111 C 0.24185 0.85532 0.30926 0.0
Zn112 Zn 0.43847 0.31179 0.27916 0.0
Zn113 Zn 0.44038 0.31685 0.34442 0.0
O114 O 0.41372 0.32172 0.32954 0.0
O115 O 0.41355 0.31843 0.27509 0.0
O116 O 0.44044 0.31863 0.39546 0.0
O117 O 0.43063 0.27966 0.28195 0.0
O118 O 0.43516 0.2843 0.33606 0.0
C119 C 0.40535 0.32182 0.30119 0.0
C120 C 0.48173 0.34761 0.29986 0.0
O121 O 0.47229 0.34256 0.32853 0.0
O122 O 0.4708 0.33647 0.27462 0.0
C123 C 0.45234 0.33679 0.41211 0.0
O124 O 0.46544 0.35594 0.39611 0.0
C125 C 0.43099 0.27188 0.31029 0.0
Zn126 Zn 0.10717 0.47068 0.26862 0.0
Zn127 Zn 0.10784 0.46918 0.33389 0.0
O128 O 0.07343 0.45248 0.32258 0.0
O129 O 0.07349 0.45532 0.26807 0.0
O130 O 0.10843 0.46772 0.3849 0.0
O131 O 0.12249 0.45277 0.26339 0.0
O132 O 0.1235 0.45113 0.31801 0.0
C133 C 0.0627 0.44873 0.29522 0.0
C134 C 0.13055 0.515 0.29447 0.0
O135 O 0.12499 0.50411 0.32207 0.0
O136 O 0.12525 0.50418 0.26741 0.0
C137 C 0.10414 0.4805 0.40305 0.0
O138 O 0.09952 0.49505 0.38854 0.0
C139 C 0.12785 0.44615 0.28934 0.0
Zn140 Zn 0.67981 0.09256 0.28937 0.0
Zn141 Zn 0.67688 0.09435 0.35513 0.0
O142 O 0.65702 0.06015 0.34274 0.0
O143 O 0.66075 0.05883 0.28855 0.0
O144 O 0.67693 0.09451 0.40608 0.0
O145 O 0.71336 0.10739 0.2889 0.0
O146 O 0.7113 0.11217 0.34256 0.0
C147 C 0.65222 0.04881 0.31576 0.0
C148 C 0.6576 0.11718 0.31167 0.0
O149 O 0.66074 0.1116 0.34059 0.0
O150 O 0.66469 0.11162 0.28623 0.0
C151 C 0.66032 0.09239 0.42356 0.0
O152 O 0.64222 0.09013 0.40845 0.0
C153 C 0.72313 0.11557 0.3162 0.0
Zn154 Zn 0.4936 0.63595 0.27428 0.0
Zn155 Zn 0.49486 0.63511 0.33944 0.0
O156 O 0.51967 0.62759 0.32456 0.0
O157 O 0.51499 0.62437 0.27031 0.0
O158 O 0.49498 0.63416 0.39058 0.0
O159 O 0.50565 0.66914 0.27291 0.0
O160 O 0.50271 0.66817 0.32745 0.0
C161 C 0.52485 0.62315 0.2961 0.0
C162 C 0.45079 0.60424 0.29974 0.0
O163 O 0.46202 0.60975 0.32683 0.0
O164 O 0.46034 0.61432 0.27298 0.0
C165 C 0.5091 0.65108 0.40794 0.0
O166 O 0.52426 0.66973 0.39261 0.0
C167 C 0.5073 0.67916 0.30004 0.0
Zn168 Zn 0.47833 0.85144 0.78646 0.0
Zn169 Zn 0.48189 0.85172 0.85123 0.0
O170 O 0.50977 0.88269 0.83593 0.0
O171 O 0.50439 0.88286 0.78205 0.0
O172 O 0.48418 0.85122 0.90214 0.0
O173 O 0.48426 0.82609 0.78114 0.0
O174 O 0.48445 0.82374 0.8357 0.0
C175 C 0.51606 0.89243 0.80756 0.0
C176 C 0.43826 0.8449 0.81675 0.0
O177 O 0.45001 0.84836 0.84303 0.0
O178 O 0.44652 0.84479 0.78867 0.0
C179 C 0.49112 0.86901 0.91996 0.0
O180 O 0.49719 0.88858 0.90527 0.0
C181 C 0.48581 0.81645 0.80701 0.0
Zn182 Zn 0.66511 0.56152 0.76766 0.0
Zn183 Zn 0.66119 0.55846 0.83429 0.0
O184 O 0.65061 0.58126 0.82096 0.0
O185 O 0.65441 0.58377 0.76648 0.0
O186 O 0.65979 0.55725 0.88538 0.0
O187 O 0.69811 0.57277 0.76924 0.0
O188 O 0.69479 0.56818 0.82354 0.0
C189 C 0.64891 0.58947 0.79325 0.0
C190 C 0.63319 0.51637 0.79029 0.0
O191 O 0.63842 0.52573 0.81884 0.0
O192 O 0.64264 0.52799 0.76443 0.0
C193 C 0.64168 0.54419 0.90164 0.0
O194 O 0.62292 0.53102 0.88518 0.0
C195 C 0.7069 0.57356 0.79713 0.0
Zn196 Zn 0.10065 0.66906 0.77745 0.0
Zn197 Zn 0.10053 0.66531 0.8428 0.0
O198 O 0.0668 0.64335 0.8295 0.0
O199 O 0.06789 0.6461 0.7749 0.0
O200 O 0.10136 0.66364 0.8939 0.0
O201 O 0.10964 0.70152 0.77875 0.0
O202 O 0.11283 0.69989 0.83295 0.0
C203 C 0.05683 0.63755 0.80141 0.0
C204 C 0.12915 0.6522 0.79774 0.0
O205 O 0.12125 0.65294 0.82625 0.0
O206 O 0.12379 0.65944 0.77238 0.0
C207 C 0.08415 0.6587 0.91223 0.0
O208 O 0.06503 0.65437 0.89805 0.0
C209 C 0.11464 0.71127 0.80663 0.0
Zn210 Zn 0.48511 0.12577 0.79023 0.0
Zn211 Zn 0.47978 0.12246 0.85427 0.0
O212 O 0.45408 0.09116 0.83698 0.0
O213 O 0.46197 0.09324 0.78357 0.0
O214 O 0.47767 0.11996 0.90506 0.0
O215 O 0.47456 0.14794 0.78747 0.0
O216 O 0.47306 0.14837 0.84212 0.0
C217 C 0.44965 0.08222 0.80808 0.0
C218 C 0.5257 0.1352 0.81927 0.0
O219 O 0.51287 0.12927 0.84494 0.0
O220 O 0.51799 0.13633 0.7913 0.0
C221 C 0.46234 0.12073 0.92233 0.0
O222 O 0.44658 0.12304 0.90706 0.0
C223 C 0.47066 0.15545 0.81385 0.0
Zn224 Zn 0.28108 0.39925 0.77362 0.0
Zn225 Zn 0.28173 0.40285 0.83843 0.0
O226 O 0.2913 0.3786 0.82844 0.0
O227 O 0.28765 0.37411 0.77428 0.0
O228 O 0.2809 0.40434 0.8894 0.0
O229 O 0.24959 0.3927 0.76926 0.0
O230 O 0.24938 0.39583 0.82363 0.0
C231 C 0.29261 0.36897 0.80192 0.0
C232 C 0.31506 0.44347 0.7953 0.0
O233 O 0.30703 0.43513 0.82395 0.0
O234 O 0.30687 0.43137 0.76962 0.0
C235 C 0.29804 0.40822 0.90694 0.0
O236 O 0.31648 0.41116 0.89181 0.0
C237 C 0.23939 0.39248 0.79562 0.0
Zn238 Zn 0.85405 0.31291 0.78359 0.0
Zn239 Zn 0.85704 0.31496 0.84819 0.0
O240 O 0.8903 0.33732 0.83285 0.0
O241 O 0.88598 0.33818 0.77879 0.0
O242 O 0.85811 0.3152 0.89919 0.0
O243 O 0.84745 0.28102 0.78171 0.0
O244 O 0.84502 0.28084 0.83623 0.0
C245 C 0.89855 0.34529 0.80412 0.0
C246 C 0.82535 0.32748 0.80978 0.0
O247 O 0.83545 0.32731 0.83637 0.0
O248 O 0.82899 0.32007 0.78305 0.0
C249 C 0.85763 0.33066 0.91653 0.0
O250 O 0.85676 0.34732 0.90122 0.0
C251 C 0.84321 0.27042 0.80899 0.0
Zn252 Zn 0.11169 0.47342 0.78865 0.0
Zn253 Zn 0.10965 0.46902 0.72395 0.0
O254 O 0.07563 0.45257 0.73809 0.0
O255 O 0.07807 0.45967 0.79175 0.0
O256 O 0.10966 0.46711 0.67297 0.0
O257 O 0.12533 0.45402 0.79435 0.0
O258 O 0.1258 0.4514 0.73984 0.0
C259 C 0.06609 0.45101 0.76614 0.0
C260 C 0.13516 0.5163 0.75904 0.0
O261 O 0.12694 0.50417 0.73298 0.0
O262 O 0.13191 0.50684 0.78712 0.0
C263 C 0.09714 0.47203 0.65543 0.0
O264 O 0.08374 0.4779 0.67062 0.0
C265 C 0.13029 0.44676 0.76864 0.0
Zn266 Zn 0.68154 0.08893 0.8094 0.0
Zn267 Zn 0.67865 0.09252 0.74346 0.0
O268 O 0.66049 0.05783 0.75369 0.0
O269 O 0.66437 0.05503 0.8075 0.0
O270 O 0.67853 0.09485 0.6927 0.0
O271 O 0.71528 0.10607 0.80902 0.0
O272 O 0.71295 0.11134 0.75558 0.0
C273 C 0.6563 0.04568 0.77987 0.0
C274 C 0.65689 0.11163 0.7899 0.0
O275 O 0.66095 0.10763 0.76048 0.0
O276 O 0.66421 0.10575 0.81468 0.0
C277 C 0.6605 0.08362 0.67564 0.0
O278 O 0.64127 0.07014 0.69118 0.0
C279 C 0.72487 0.11499 0.78172 0.0
Zn280 Zn 0.49647 0.63611 0.79489 0.0
Zn281 Zn 0.49491 0.63668 0.7295 0.0
O282 O 0.52491 0.6366 0.74039 0.0
O283 O 0.52646 0.63837 0.79501 0.0
O284 O 0.49373 0.6369 0.67836 0.0
O285 O 0.4955 0.66448 0.79881 0.0
O286 O 0.49521 0.66635 0.74417 0.0
C287 C 0.53521 0.63796 0.76752 0.0
C288 C 0.45748 0.59694 0.77122 0.0
O289 O 0.46532 0.60677 0.74325 0.0
O290 O 0.46818 0.606 0.79764 0.0
C291 C 0.51163 0.64772 0.66059 0.0
O292 O 0.53138 0.65927 0.67549 0.0
C293 C 0.49546 0.67475 0.77266 0.0
Zn294 Zn 0.84361 0.50834 0.79923 0.0
Zn295 Zn 0.84543 0.50943 0.73418 0.0
O296 O 0.87951 0.52595 0.74784 0.0
O297 O 0.87702 0.5216 0.80221 0.0
O298 O 0.84509 0.50981 0.68311 0.0
O299 O 0.83151 0.5293 0.80182 0.0
O300 O 0.82946 0.5277 0.74725 0.0
C301 C 0.88901 0.52884 0.77614 0.0
C302 C 0.81963 0.464 0.77382 0.0
O303 O 0.82795 0.47487 0.74666 0.0
O304 O 0.8228 0.47479 0.80066 0.0
C305 C 0.85958 0.50812 0.66502 0.0
O306 O 0.87577 0.50612 0.67948 0.0
C307 C 0.82613 0.53484 0.77487 0.0
Zn308 Zn 0.28167 0.88986 0.80383 0.0
Zn309 Zn 0.28388 0.88502 0.73835 0.0
O310 O 0.30305 0.91975 0.74727 0.0
O311 O 0.29892 0.92363 0.80072 0.0
O312 O 0.28367 0.88257 0.68748 0.0
O313 O 0.24809 0.87319 0.80514 0.0
O314 O 0.24956 0.86718 0.75173 0.0
C315 C 0.30733 0.93239 0.7728 0.0
C316 C 0.30567 0.86633 0.78534 0.0
O317 O 0.30118 0.86956 0.75577 0.0
O318 O 0.29885 0.87301 0.80986 0.0
C319 C 0.30041 0.88414 0.67093 0.0
O320 O 0.31848 0.88717 0.68702 0.0
C321 C 0.23804 0.86415 0.77833 0.0
Zn322 Zn 0.45272 0.32913 0.79816 0.0
Zn323 Zn 0.45001 0.32611 0.73355 0.0
O324 O 0.42204 0.32894 0.74798 0.0
O325 O 0.42838 0.33689 0.80128 0.0
O326 O 0.44826 0.32367 0.68265 0.0
O327 O 0.44503 0.29705 0.80358 0.0
O328 O 0.44791 0.2959 0.74921 0.0
C329 C 0.4166 0.3341 0.77568 0.0
C330 C 0.49341 0.36269 0.76886 0.0
O331 O 0.48165 0.35493 0.74245 0.0
O332 O 0.48507 0.35355 0.79662 0.0
C333 C 0.44936 0.3397 0.6647 0.0
O334 O 0.45134 0.35788 0.6794 0.0
C335 C 0.44515 0.28657 0.77775 0.0
H336 H 0.41505 0.05213 0.23758 0.0
H337 H 0.44217 0.0424 0.329 0.0
H338 H 0.38119 0.01471 0.24455 0.0
H339 H 0.4088 0.00468 0.33537 0.0
H340 H 0.33674 0.94794 0.3558 0.0
H341 H 0.36916 -0.01348 0.34865 0.0
H342 H 0.36849 0.97537 0.2429 0.0
H343 H 0.33587 0.93764 0.24975 0.0
C344 C 0.41398 0.0418 0.25877 0.0
C345 C 0.43122 0.05018 0.28272 0.0
C346 C 0.39457 0.02036 0.26286 0.0
C347 C 0.39216 0.00676 0.29075 0.0
C348 C 0.40982 0.01491 0.31407 0.0
C349 C 0.42907 0.03642 0.31018 0.0
C350 C 0.34336 0.95392 0.33101 0.0
C351 C 0.33372 0.9397 0.3034 0.0
C352 C 0.36206 0.97591 0.32694 0.0
C353 C 0.37154 0.98399 0.29519 0.0
C354 C 0.3615 0.96989 0.26762 0.0
C355 C 0.34278 0.94811 0.27163 0.0
H356 H 0.37842 0.31326 0.24734 0.0
H357 H 0.3892 0.34025 0.34698 0.0
H358 H 0.34911 0.32311 0.23882 0.0
H359 H 0.36004 0.35067 0.33809 0.0
H360 H 0.29604 0.35279 0.32126 0.0
H361 H 0.31964 0.33566 0.32931 0.0
H362 H 0.34826 0.358 0.23114 0.0
H363 H 0.32423 0.37477 0.2228 0.0
C364 C 0.3745 0.32129 0.2675 0.0
C365 C 0.38629 0.32621 0.29778 0.0
C366 C 0.35774 0.327 0.26251 0.0
C367 C 0.35241 0.33786 0.2876 0.0
C368 C 0.36362 0.34209 0.31835 0.0
C369 C 0.38038 0.33623 0.32344 0.0
C370 C 0.3071 0.35371 0.30115 0.0
C371 C 0.30845 0.36529 0.27146 0.0
C372 C 0.32074 0.34405 0.30591 0.0
C373 C 0.33607 0.34579 0.28112 0.0
C374 C 0.3365 0.35625 0.25068 0.0
C375 C 0.32274 0.36585 0.24584 0.0
H376 H 0.91629 0.37105 0.32995 0.0
H377 H 0.92641 0.3561 0.22911 0.0
H378 H 0.95675 0.39789 0.3349 0.0
H379 H 0.96718 0.3826 0.23444 0.0
H380 H 0.03576 0.4463 0.24394 0.0
H381 H -0.00527 0.42254 0.23959 0.0
H382 H -0.00819 0.39742 0.33923 0.0
H383 H 0.033 0.4218 0.34394 0.0
C384 C 0.92717 0.37346 0.30881 0.0
C385 C 0.91816 0.36136 0.27913 0.0
C386 C 0.9504 0.38876 0.31177 0.0
C387 C 0.96521 0.39227 0.2852 0.0
C388 C 0.95617 0.38047 0.25528 0.0
C389 C 0.93284 0.36522 0.25223 0.0
C390 C 0.02636 0.43584 0.26506 0.0
C391 C 0.03762 0.4358 0.29425 0.0
C392 C 0.00285 0.4221 0.26244 0.0
C393 C -0.00996 0.40788 0.28886 0.0
C394 C 0.00119 0.40834 0.31849 0.0
C395 C 0.02478 0.42225 0.32121 0.0
H396 H 0.53484 0.91303 0.34327 0.0
H397 H 0.54062 0.92509 0.23731 0.0
H398 H 0.56878 0.94945 0.35203 0.0
H399 H 0.57433 0.96248 0.2463 0.0
H400 H 0.64626 0.01735 0.2691 0.0
H401 H 0.61311 0.97958 0.26186 0.0
H402 H 0.5834 -0.01117 0.35139 0.0
H403 H 0.61704 0.02613 0.3593 0.0
C404 C 0.54314 0.92365 0.32177 0.0
C405 C 0.53497 0.91611 0.2895 0.0
C406 C 0.56264 0.94468 0.32689 0.0
C407 C 0.57439 0.95896 0.29994 0.0
C408 C 0.56595 0.95171 0.26763 0.0
C409 C 0.54649 0.93041 0.26244 0.0
C410 C 0.63281 0.01106 0.28757 0.0
C411 C 0.63423 0.02462 0.31482 0.0
C412 C 0.61366 -0.01044 0.28317 0.0
C413 C 0.59537 0.98126 0.30569 0.0
C414 C 0.59723 -0.00547 0.33367 0.0
C415 C 0.61655 0.01591 0.33833 0.0
H416 H 0.53078 0.60179 0.24347 0.0
H417 H 0.55859 0.62997 0.33965 0.0
H418 H 0.55937 0.59092 0.2359 0.0
H419 H 0.58809 0.61992 0.33147 0.0
H420 H 0.61539 0.57063 0.32342 0.0
H421 H 0.59135 0.58702 0.33046 0.0
H422 H 0.59828 0.6039 0.22589 0.0
H423 H 0.62176 0.58631 0.21847 0.0
C424 C 0.54321 0.6059 0.26291 0.0
C425 C 0.54238 0.61662 0.29229 0.0
C426 C 0.5598 0.59988 0.25837 0.0
C427 C 0.57618 0.60467 0.28292 0.0
C428 C 0.57555 0.61571 0.3122 0.0
C429 C 0.55869 0.62148 0.31695 0.0
C430 C 0.61202 0.57799 0.30186 0.0
C431 C 0.62032 0.57695 0.27025 0.0
C432 C 0.59833 0.58762 0.30602 0.0
C433 C 0.59277 0.59673 0.27877 0.0
C434 C 0.6019 0.59664 0.24733 0.0
C435 C 0.61546 0.5867 0.24307 0.0
H436 H 0.02103 0.62426 0.22627 0.0
H437 H 0.03325 0.61226 0.32754 0.0
H438 H -0.01948 0.59644 0.23365 0.0
H439 H -0.00666 0.58431 0.33452 0.0
H440 H 0.91748 0.55877 0.34813 0.0
H441 H 0.95819 0.58424 0.33993 0.0
H442 H 0.95359 0.55612 0.24212 0.0
H443 H 0.91286 0.5311 0.24997 0.0
C444 C 0.01512 0.61554 0.24989 0.0
C445 C 0.03025 0.62067 0.2764 0.0
C446 C -0.00801 0.59956 0.25413 0.0
C447 C -0.0163 0.58836 0.28484 0.0
C448 C -0.00095 0.59301 0.31085 0.0
C449 C 0.02199 0.609 0.30673 0.0
C450 C 0.92521 0.55784 0.32507 0.0
C451 C 0.91195 0.543 0.29969 0.0
C452 C 0.94854 0.57241 0.32033 0.0
C453 C 0.95909 0.5723 0.29024 0.0
C454 C 0.94591 0.55693 0.26531 0.0
C455 C 0.9226 0.54246 0.26997 0.0
H456 H 0.53872 0.91037 0.74976 0.0
H457 H 0.5426 0.92332 0.85525 0.0
H458 H 0.5745 0.94536 0.74127 0.0
H459 H 0.57827 0.9592 0.84653 0.0
H460 H 0.65033 0.01358 0.82578 0.0
H461 H 0.61744 0.97544 0.83191 0.0
H462 H 0.58949 0.98504 0.74112 0.0
H463 H 0.62278 0.02277 0.73443 0.0
C464 C 0.54711 0.92085 0.77119 0.0
C465 C 0.53771 0.91415 0.80322 0.0
C466 C 0.56766 0.94101 0.76624 0.0
C467 C 0.57927 0.95521 0.79312 0.0
C468 C 0.56995 0.94849 0.82528 0.0
C469 C 0.54942 0.92806 0.83031 0.0
C470 C 0.63738 0.00729 0.80674 0.0
C471 C 0.63908 0.02117 0.77966 0.0
C472 C 0.61839 0.98555 0.81048 0.0
C473 C 0.60059 0.97729 0.78738 0.0
C474 C 0.60294 -0.00927 0.75931 0.0
C475 C 0.62207 0.01238 0.75537 0.0
H476 H 0.6492 0.61466 0.74039 0.0
H477 H 0.62391 0.59593 0.84087 0.0
H478 H 0.62569 0.63195 0.73261 0.0
H479 H 0.60011 0.61293 0.83287 0.0
H480 H 0.56644 0.65345 0.81674 0.0
H481 H 0.59859 0.64747 0.82298 0.0
H482 H 0.5846 0.61548 0.72653 0.0
H483 H 0.55257 0.62195 0.71996 0.0
C484 C 0.63887 0.61454 0.76102 0.0
C485 C 0.63816 0.60367 0.79116 0.0
C486 C 0.62533 0.62434 0.75644 0.0
C487 C 0.61083 0.62352 0.7819 0.0
C488 C 0.61125 0.61399 0.8128 0.0
C489 C 0.62485 0.60421 0.81742 0.0
C490 C 0.57044 0.64546 0.7966 0.0
C491 C 0.55679 0.6378 0.76805 0.0
C492 C 0.58881 0.64198 0.80027 0.0
C493 C 0.59388 0.63067 0.77556 0.0
C494 C 0.58118 0.62437 0.74598 0.0
C495 C 0.5628 0.628 0.7422 0.0
H496 H 0.92168 0.5421 0.72741 0.0
H497 H 0.91281 0.54595 0.83306 0.0
H498 H 0.96278 0.56635 0.73399 0.0
H499 H 0.95332 0.57089 0.83938 0.0
H500 H 0.02966 0.60419 0.84603 0.0
H501 H -0.01034 0.57517 0.83915 0.0
H502 H -0.01102 0.60486 0.74433 0.0
H503 H 0.02891 0.63288 0.75056 0.0
C504 C 0.9285 0.54809 0.75197 0.0
C505 C 0.914 0.54218 0.77963 0.0
C506 C 0.95201 0.56211 0.75578 0.0
C507 C 0.96141 0.57078 0.78723 0.0
C508 C 0.94685 0.56431 0.81489 0.0
C509 C 0.92349 0.55008 0.81118 0.0
C510 C 0.02086 0.60444 0.82381 0.0
C511 C 0.03236 0.62074 0.79886 0.0
C512 C -0.00205 0.58785 0.81981 0.0
C513 C -0.01395 0.58754 0.79103 0.0
C514 C -0.00235 0.60412 0.76638 0.0
C515 C 0.02053 0.62039 0.77014 0.0
H516 H 0.43205 0.06343 0.74809 0.0
H517 H 0.41982 0.05132 0.85357 0.0
H518 H 0.3962 0.02927 0.73665 0.0
H519 H 0.38416 0.01627 0.84202 0.0
H520 H 0.31256 0.96609 0.81466 0.0
H521 H 0.34676 0.00311 0.82192 0.0
H522 H 0.37787 -0.01071 0.73811 0.0
H523 H 0.34331 0.95276 0.73011 0.0
C524 C 0.42188 0.05325 0.76893 0.0
C525 C 0.42884 0.0601 0.80183 0.0
C526 C 0.40127 0.03358 0.76228 0.0
C527 C 0.38718 0.02004 0.78834 0.0
C528 C 0.39436 0.02659 0.82131 0.0
C529 C 0.41493 0.04651 0.82799 0.0
C530 C 0.32652 0.97129 0.79726 0.0
C531 C 0.32534 0.95656 0.77188 0.0
C532 C 0.34623 -0.00766 0.80172 0.0
C533 C 0.36529 -0.00104 0.78114 0.0
C534 C 0.36351 0.98482 0.75438 0.0
C535 C 0.34365 0.96389 0.74965 0.0
H536 H 0.3128 0.35959 0.85382 0.0
H537 H 0.29839 0.34748 0.74902 0.0
H538 H 0.33975 0.346 0.84905 0.0
H539 H 0.32617 0.33553 0.74378 0.0
H540 H 0.37652 0.3112 0.7416 0.0
H541 H 0.34171 0.31244 0.75194 0.0
H542 H 0.37655 0.36349 0.82768 0.0
H543 H 0.41051 0.36114 0.81856 0.0
C544 C 0.31503 0.35362 0.82995 0.0
C545 C 0.30388 0.35516 0.80169 0.0
C546 C 0.33072 0.34613 0.82705 0.0
C547 C 0.3358 0.34042 0.79576 0.0
C548 C 0.32288 0.33979 0.76827 0.0
C549 C 0.30696 0.34686 0.77128 0.0
C550 C 0.3766 0.3227 0.76032 0.0
C551 C 0.39615 0.33615 0.77917 0.0
C552 C 0.35668 0.32338 0.76639 0.0
C553 C 0.35613 0.33789 0.79097 0.0
C554 C 0.37595 0.35155 0.80934 0.0
C555 C 0.3956 0.35051 0.80373 0.0
H556 H 0.04126 0.4507 0.81946 0.0
H557 H 0.03441 0.42147 0.72193 0.0
H558 H 0.00063 0.42653 0.82882 0.0
H559 H -0.00634 0.39679 0.73168 0.0
H560 H 0.9186 0.36991 0.74825 0.0
H561 H 0.95856 0.39696 0.73856 0.0
H562 H 0.97376 0.38663 0.839 0.0
H563 H 0.9334 0.35979 0.84906 0.0
C564 C 0.03105 0.43915 0.79993 0.0
C565 C 0.04108 0.43791 0.76997 0.0
C566 C 0.00777 0.42517 0.80545 0.0
C567 C -0.00606 0.40955 0.7812 0.0
C568 C 0.00383 0.40879 0.75079 0.0
C569 C 0.02717 0.42289 0.74518 0.0
C570 C 0.93041 0.37342 0.76839 0.0
C571 C 0.92283 0.36258 0.79943 0.0
C572 C 0.95337 0.38887 0.76271 0.0
C573 C 0.96938 0.39382 0.78786 0.0
C574 C 0.96179 0.38334 0.81917 0.0
C575 C 0.93871 0.36791 0.82493 0.0
H576 H 0.45918 0.1723 0.23994 0.0
H577 H 0.44681 0.15357 0.34379 0.0
H578 H 0.44656 0.19979 0.2486 0.0
H579 H 0.43376 0.1806 0.35219 0.0
H580 H 0.44764 0.25558 0.358 0.0
H581 H 0.45176 0.22195 0.35344 0.0
H582 H 0.41373 0.2036 0.26189 0.0
H583 H 0.4101 0.2374 0.26607 0.0
C584 C 0.45351 0.17384 0.26447 0.0
C585 C 0.45425 0.16098 0.29121 0.0
C586 C 0.44611 0.18945 0.26942 0.0
C587 C 0.43921 0.19237 0.30115 0.0
C588 C 0.43927 0.17895 0.3276 0.0
C589 C 0.44672 0.16344 0.3227 0.0
C590 C 0.43968 0.24402 0.33741 0.0
C591 C 0.42891 0.24925 0.31212 0.0
C592 C 0.44202 0.22477 0.33475 0.0
C593 C 0.43345 0.21041 0.3069 0.0
C594 C 0.42101 0.21468 0.28314 0.0
C595 C 0.41882 0.23394 0.28568 0.0
H596 H 0.1555 0.44961 0.23877 0.0
H597 H 0.12675 0.41343 0.33063 0.0
H598 H 0.17644 0.42987 0.23177 0.0
H599 H 0.1466 0.39212 0.32263 0.0
H600 H 0.21378 0.39089 0.32336 0.0
H601 H 0.18259 0.39795 0.32716 0.0
H602 H 0.17867 0.39801 0.21993 0.0
H603 H 0.2115 0.3927 0.21622 0.0
C604 C 0.15337 0.43704 0.25722 0.0
C605 C 0.13979 0.43325 0.28549 0.0
C606 C 0.16513 0.42537 0.25296 0.0
C607 C 0.16325 0.40918 0.2765 0.0
C608 C 0.14886 0.40475 0.30424 0.0
C609 C 0.13748 0.41692 0.30892 0.0
C610 C 0.20608 0.392 0.30046 0.0
C611 C 0.21565 0.39203 0.26943 0.0
C612 C 0.18788 0.39586 0.30268 0.0
C613 C 0.17842 0.39932 0.27387 0.0
C614 C 0.18615 0.3964 0.24271 0.0
C615 C 0.20481 0.39309 0.2405 0.0
H616 H 0.75368 0.12327 0.26668 0.0
H617 H 0.74773 0.14744 0.36331 0.0
H618 H 0.78909 0.15888 0.25679 0.0
H619 H 0.78287 0.18305 0.35326 0.0
H620 H 0.81289 0.23638 0.23418 0.0
H621 H 0.79156 0.19547 0.24494 0.0
H622 H 0.82328 0.20631 0.34111 0.0
H623 H 0.84426 0.24722 0.3306 0.0
C624 C 0.7603 0.13588 0.28626 0.0
C625 C 0.74761 0.13283 0.31543 0.0
C626 C 0.78053 0.15631 0.28048 0.0
C627 C 0.78844 0.174 0.30381 0.0
C628 C 0.77725 0.16978 0.3347 0.0
C629 C 0.75702 0.14932 0.34051 0.0
C630 C 0.81578 0.22997 0.25718 0.0
C631 C 0.82979 0.24501 0.28183 0.0
C632 C 0.80366 0.20649 0.26334 0.0
C633 C 0.80549 0.19769 0.29416 0.0
C634 C 0.8212 0.21262 0.31743 0.0
C635 C 0.8332 0.23604 0.31135 0.0
H636 H 0.52177 0.81302 0.32856 0.0
H637 H 0.49515 0.79002 0.23007 0.0
H638 H 0.52915 0.78165 0.33428 0.0
H639 H 0.50211 0.75821 0.23609 0.0
H640 H 0.52648 0.70884 0.24859 0.0
H641 H 0.53016 0.74622 0.24242 0.0
H642 H 0.50394 0.74088 0.34196 0.0
H643 H 0.50068 0.70358 0.3484 0.0
C644 C 0.51768 0.80134 0.30797 0.0
C645 C 0.50754 0.80371 0.27902 0.0
C646 C 0.52186 0.78336 0.31135 0.0
C647 C 0.5159 0.76729 0.2859 0.0
C648 C 0.50703 0.77043 0.25609 0.0
C649 C 0.50296 0.78858 0.25263 0.0
C650 C 0.52182 0.71579 0.26937 0.0
C651 C 0.51294 0.70316 0.29884 0.0
C652 C 0.52386 0.73716 0.26573 0.0
C653 C 0.51702 0.74632 0.29146 0.0
C654 C 0.50949 0.73432 0.32172 0.0
C655 C 0.50754 0.71293 0.32543 0.0
H656 H 0.72185 0.55084 0.21671 0.0
H657 H 0.72671 0.58235 0.31179 0.0
H658 H 0.75824 0.5531 0.22665 0.0
H659 H 0.76324 0.58495 0.32152 0.0
H660 H 0.79563 0.53937 0.34632 0.0
H661 H 0.76968 0.55343 0.33472 0.0
H662 H 0.79916 0.57478 0.2368 0.0
H663 H 0.8248 0.56041 0.24818 0.0
C664 C 0.73109 0.55902 0.23914 0.0
C665 C 0.72125 0.56594 0.26377 0.0
C666 C 0.75197 0.56036 0.24488 0.0
C667 C 0.76335 0.56879 0.27523 0.0
C668 C 0.7546 0.57791 0.29826 0.0
C669 C 0.73374 0.57649 0.29259 0.0
C670 C 0.79695 0.5476 0.32268 0.0
C671 C 0.81187 0.54834 0.29794 0.0
C672 C 0.78217 0.55577 0.31602 0.0
C673 C 0.78219 0.56493 0.2846 0.0
C674 C 0.79847 0.56743 0.26096 0.0
C675 C 0.81315 0.55921 0.26756 0.0
H676 H 0.14017 0.74423 0.22586 0.0
H677 H 0.10724 0.73897 0.32005 0.0
H678 H 0.16646 0.78447 0.23616 0.0
H679 H 0.13338 0.77932 0.33019 0.0
H680 H 0.21216 0.82564 0.3555 0.0
H681 H 0.17361 0.79512 0.34437 0.0
H682 H 0.17632 0.82398 0.2476 0.0
H683 H 0.21502 0.85441 0.25863 0.0
C684 C 0.13797 0.75186 0.24813 0.0
C685 C 0.12209 0.73836 0.27252 0.0
C686 C 0.153 0.77499 0.25405 0.0
C687 C 0.15227 0.78494 0.28438 0.0
C688 C 0.13463 0.772 0.30694 0.0
C689 C 0.11966 0.74891 0.30106 0.0
C690 C 0.20422 0.826 0.33242 0.0
C691 C 0.21679 0.842 0.3076 0.0
C692 C 0.18206 0.80851 0.326 0.0
C693 C 0.17215 0.80687 0.29472 0.0
C694 C 0.18372 0.82455 0.2716 0.0
C695 C 0.20586 0.84198 0.278 0.0
H696 H 0.5091 0.70229 0.82647 0.0
H697 H 0.48272 0.69642 0.72728 0.0
H698 H 0.50803 0.7371 0.8349 0.0
H699 H 0.48088 0.73113 0.73616 0.0
H700 H 0.5006 0.8049 0.75181 0.0
H701 H 0.50413 0.77146 0.74298 0.0
H702 H 0.48099 0.74919 0.8435 0.0
H703 H 0.47819 0.78329 0.85272 0.0
C704 C 0.50295 0.70842 0.80645 0.0
C705 C 0.49583 0.69656 0.77623 0.0
C706 C 0.50221 0.72831 0.81142 0.0
C707 C 0.49412 0.73676 0.78641 0.0
C708 C 0.4874 0.72516 0.75586 0.0
C709 C 0.48838 0.70528 0.75074 0.0
C710 C 0.49633 0.79291 0.77213 0.0
C711 C 0.48901 0.79664 0.80298 0.0
C712 C 0.49821 0.77365 0.76693 0.0
C713 C 0.49264 0.75754 0.79237 0.0
C714 C 0.48565 0.76143 0.82346 0.0
C715 C 0.48398 0.7809 0.82878 0.0
H716 H 0.73914 0.59328 0.74878 0.0
H717 H 0.72732 0.56251 0.84623 0.0
H718 H 0.77362 0.59105 0.74314 0.0
H719 H 0.76158 0.55992 0.84035 0.0
H720 H 0.82605 0.56041 0.82665 0.0
H721 H 0.80256 0.5778 0.83348 0.0
H722 H 0.77681 0.55718 0.73401 0.0
H723 H 0.80071 0.54015 0.72692 0.0
C724 C 0.74419 0.5865 0.76932 0.0
C725 C 0.73032 0.57763 0.79771 0.0
C726 C 0.76387 0.58514 0.76598 0.0
C727 C 0.77004 0.57489 0.79095 0.0
C728 C 0.75733 0.568 0.82067 0.0
C729 C 0.73765 0.56944 0.82407 0.0
C730 C 0.81565 0.55992 0.80601 0.0
C731 C 0.81485 0.54853 0.77643 0.0
C732 C 0.8022 0.56988 0.80999 0.0
C733 C 0.78762 0.56859 0.78452 0.0
C734 C 0.78802 0.55862 0.75405 0.0
C735 C 0.80161 0.54874 0.74999 0.0
H736 H 0.20873 0.85588 0.82989 0.0
H737 H 0.21206 0.83322 0.73084 0.0
H738 H 0.17233 0.82122 0.83905 0.0
H739 H 0.17573 0.79858 0.74011 0.0
H740 H 0.11044 0.73775 0.75985 0.0
H741 H 0.13466 0.77878 0.75281 0.0
H742 H 0.1667 0.78238 0.84677 0.0
H743 H 0.14226 0.74128 0.854 0.0
C744 C 0.20141 0.84381 0.80971 0.0
C745 C 0.21354 0.84701 0.77988 0.0
C746 C 0.18058 0.82394 0.81507 0.0
C747 C 0.17142 0.80702 0.7906 0.0
C748 C 0.18233 0.81136 0.75947 0.0
C749 C 0.20322 0.83121 0.75413 0.0
C750 C 0.12225 0.74739 0.77944 0.0
C751 C 0.12487 0.73628 0.80716 0.0
C752 C 0.13611 0.77088 0.77534 0.0
C753 C 0.15284 0.7837 0.79887 0.0
C754 C 0.15388 0.77295 0.82822 0.0
C755 C 0.13993 0.74939 0.83238 0.0
H756 H 0.4311 0.25909 0.83232 0.0
H757 H 0.45698 0.26424 0.73258 0.0
H758 H 0.43397 0.22524 0.84213 0.0
H759 H 0.46043 0.23069 0.7427 0.0
H760 H 0.44977 0.16121 0.76091 0.0
H761 H 0.43968 0.19039 0.75227 0.0
H762 H 0.46433 0.21697 0.85035 0.0
H763 H 0.47382 0.18702 0.85943 0.0
C764 C 0.43725 0.25288 0.81238 0.0
C765 C 0.44398 0.2644 0.78171 0.0
C766 C 0.43904 0.23358 0.81813 0.0
C767 C 0.44767 0.22544 0.79339 0.0
C768 C 0.45349 0.2364 0.76221 0.0
C769 C 0.45156 0.25565 0.75637 0.0
C770 C 0.45293 0.1732 0.78077 0.0
C771 C 0.46291 0.1721 0.81071 0.0
C772 C 0.44721 0.18996 0.77572 0.0
C773 C 0.45153 0.20621 0.80036 0.0
C774 C 0.46065 0.20458 0.83092 0.0
C775 C 0.46619 0.18754 0.83614 0.0
H776 H 0.15582 0.44864 0.821 0.0
H777 H 0.1312 0.4154 0.7265 0.0
H778 H 0.17683 0.42908 0.82863 0.0
H779 H 0.15128 0.39437 0.73498 0.0
H780 H 0.21844 0.39319 0.73872 0.0
H781 H 0.18797 0.40123 0.73303 0.0
H782 H 0.17852 0.39666 0.83966 0.0
H783 H 0.21053 0.3902 0.84546 0.0
C784 C 0.15457 0.43674 0.80206 0.0
C785 C 0.14209 0.43374 0.77294 0.0
C786 C 0.16642 0.4252 0.80667 0.0
C787 C 0.16579 0.40994 0.78256 0.0
C788 C 0.15253 0.40627 0.75388 0.0
C789 C 0.141 0.41828 0.74894 0.0
C790 C 0.2097 0.39353 0.76105 0.0
C791 C 0.21736 0.39169 0.79267 0.0
C792 C 0.19192 0.39795 0.75771 0.0
C793 C 0.181 0.40018 0.78589 0.0
C794 C 0.18708 0.39589 0.81741 0.0
C795 C 0.20529 0.39196 0.8208 0.0
H796 H 0.84727 0.24584 0.75894 0.0
H797 H 0.81789 0.23879 0.85658 0.0
H798 H 0.82492 0.20471 0.75136 0.0
H799 H 0.79516 0.19766 0.84875 0.0
H800 H 0.75546 0.12448 0.83153 0.0
H801 H 0.79103 0.1602 0.83928 0.0
H802 H 0.78433 0.18218 0.74135 0.0
H803 H 0.74903 0.14644 0.73341 0.0
C804 C 0.83636 0.23543 0.77908 0.0
C805 C 0.83392 0.24553 0.8081 0.0
C806 C 0.82355 0.21188 0.77468 0.0
C807 C 0.80797 0.19797 0.79914 0.0
C808 C 0.80711 0.20787 0.82944 0.0
C809 C 0.82006 0.23147 0.83394 0.0
C810 C 0.76195 0.13666 0.81124 0.0
C811 C 0.74915 0.13289 0.78213 0.0
C812 C 0.78228 0.15715 0.81579 0.0
C813 C 0.79022 0.17422 0.7913 0.0
C814 C 0.77873 0.16938 0.76075 0.0
C815 C 0.7584 0.14886 0.75618 0.0
H816 H 0.49748 0.13303 0.13345 0.0
H817 H 0.42421 0.09171 0.13145 0.0
H818 H 0.49825 0.13555 0.0729 0.0
H819 H 0.425 0.09382 0.07109 0.0
H820 H 0.43224 0.12218 0.96616 0.0
H821 H 0.43214 0.12011 1.02652 0.0
H822 H 0.49199 0.11341 1.02292 0.0
H823 H 0.49235 0.11596 0.96241 0.0
C824 C 0.48154 0.12441 0.12014 0.0
C825 C 0.46078 0.11223 0.13746 0.0
C826 C 0.48198 0.12573 0.08534 0.0
C827 C 0.46168 0.11493 0.06692 0.0
C828 C 0.44096 0.10267 0.08433 0.0
C829 C 0.44052 0.10135 0.11906 0.0
C830 C 0.4454 0.12027 0.97817 0.0
C831 C 0.46229 0.11923 0.95927 0.0
C832 C 0.44527 0.11893 1.01289 0.0
C833 C 0.46202 0.11652 1.0298 0.0
C834 C 0.47896 0.11554 1.01088 0.0
C835 C 0.47909 0.11686 0.9761 0.0
H836 H 0.26329 0.40409 0.94727 0.0
H837 H 0.33171 0.41554 0.95058 0.0
H838 H 0.26323 0.4072 1.00778 0.0
H839 H 0.33147 0.41815 1.01074 0.0
H840 H 0.33398 0.44563 0.11405 0.0
H841 H 0.33273 0.44283 0.05383 0.0
H842 H 0.26274 0.38836 0.05929 0.0
H843 H 0.26386 0.39153 0.11982 0.0
C844 C 0.27828 0.40717 0.96085 0.0
C845 C 0.29753 0.40964 0.94389 0.0
C846 C 0.2782 0.40883 0.99564 0.0
C847 C 0.29739 0.41305 1.01437 0.0
C848 C 0.31652 0.41532 0.99729 0.0
C849 C 0.3166 0.41366 0.96265 0.0
C850 C 0.31827 0.43305 0.10251 0.0
C851 C 0.29904 0.41875 0.12198 0.0
C852 C 0.31759 0.43134 0.06783 0.0
C853 C 0.29768 0.41524 0.05145 0.0
C854 C 0.27832 0.40112 0.07089 0.0
C855 C 0.279 0.40284 0.10569 0.0
H856 H 0.85549 0.36046 0.95998 0.0
H857 H 0.86018 0.29932 0.95715 0.0
H858 H 0.85572 0.35967 1.02032 0.0
H859 H 0.86093 0.29881 1.01783 0.0
H860 H 0.83897 0.29306 0.12797 0.0
H861 H 0.83806 0.29261 0.06727 0.0
H862 H 0.88065 0.36598 0.0657 0.0
H863 H 0.88113 0.36646 0.12605 0.0
C864 C 0.85669 0.34687 0.9722 0.0
C865 C 0.85788 0.32999 0.95354 0.0
C866 C 0.85696 0.3465 1.00695 0.0
C867 C 0.85849 0.32925 1.02418 0.0
C868 C 0.85951 0.31224 1.00552 0.0
C869 C 0.85923 0.31261 0.97066 0.0
C870 C 0.84813 0.30909 0.11465 0.0
C871 C 0.86004 0.3298 0.13203 0.0
C872 C 0.84773 0.30883 0.07978 0.0
C873 C 0.8592 0.32927 0.06138 0.0
C874 C 0.87126 0.34992 0.07887 0.0
C875 C 0.87165 0.35018 0.11362 0.0
H876 H 0.5337 0.89489 0.12687 0.0
H877 H 0.46608 0.83605 0.13237 0.0
H878 H 0.53094 0.89503 0.06662 0.0
H879 H 0.46326 0.83633 0.07184 0.0
H880 H 0.47671 0.83111 0.95985 0.0
H881 H 0.47909 0.82978 1.02037 0.0
H882 H 0.51059 0.90311 1.02407 0.0
H883 H 0.50841 0.90448 0.96387 0.0
C884 C 0.5182 0.88197 0.11528 0.0
C885 C 0.5001 0.86549 0.13465 0.0
C886 C 0.51658 0.88213 0.08062 0.0
C887 C 0.49684 0.86575 0.06423 0.0
C888 C 0.4788 0.84909 0.08355 0.0
C889 C 0.48036 0.84902 0.11831 0.0
C890 C 0.48416 0.84695 0.97358 0.0
C891 C 0.49241 0.8679 0.95684 0.0
C892 C 0.4854 0.84617 1.00833 0.0
C893 C 0.4951 0.86634 1.02722 0.0
C894 C 0.5033 0.88725 1.01041 0.0
C895 C 0.50193 0.88802 0.97578 0.0
H896 H 0.60406 0.53642 0.11035 0.0
H897 H 0.67136 0.54499 0.11412 0.0
H898 H 0.60605 0.53803 0.05003 0.0
H899 H 0.67318 0.54611 0.05346 0.0
H900 H 0.67692 0.5697 0.94458 0.0
H901 H 0.67605 0.56889 1.00529 0.0
H902 H 0.60529 0.51611 1.00322 0.0
H903 H 0.60603 0.51729 0.94287 0.0
C904 C 0.61928 0.53855 0.09834 0.0
C905 C 0.63752 0.54053 0.11727 0.0
C906 C 0.62038 0.53934 0.06359 0.0
C907 C 0.63974 0.54208 0.04661 0.0
C908 C 0.65808 0.54422 0.06556 0.0
C909 C 0.65698 0.54344 0.10041 0.0
C910 C 0.66117 0.55794 0.9571 0.0
C911 C 0.64152 0.54365 0.93869 0.0
C912 C 0.6607 0.55737 0.99198 0.0
C913 C 0.64056 0.5425 1.00939 0.0
C914 C 0.62101 0.52809 0.99086 0.0
C915 C 0.62148 0.52867 0.9561 0.0
H916 H 0.12182 0.67163 0.95154 0.0
H917 H 0.04913 0.64373 0.95681 0.0
H918 H 0.12319 0.67004 1.01225 0.0
H919 H 0.05054 0.64226 1.01706 0.0
H920 H 0.05701 0.61922 0.12061 0.0
H921 H 0.05747 0.62103 0.06023 0.0
H922 H 0.11757 0.68785 0.06316 0.0
H923 H 0.1172 0.68602 0.12394 0.0
C924 C 0.10615 0.66515 0.96557 0.0
C925 C 0.08536 0.65777 0.94915 0.0
C926 C 0.10695 0.66437 1.0004 0.0
C927 C 0.08696 0.65594 1.01964 0.0
C928 C 0.06624 0.64856 1.00312 0.0
C929 C 0.06545 0.64953 0.96846 0.0
C930 C 0.0704 0.63432 0.10851 0.0
C931 C 0.08701 0.65252 0.12732 0.0
C932 C 0.07058 0.6354 0.07378 0.0
C933 C 0.08748 0.65464 0.05671 0.0
C934 C 0.10439 0.6727 0.07544 0.0
C935 C 0.1041 0.6717 0.11032 0.0
H936 H 0.82751 0.51031 0.62607 0.0
H937 H 0.88855 0.50586 0.61996 0.0
H938 H 0.82494 0.50905 0.56548 0.0
H939 H 0.88627 0.5051 0.5597 0.0
H940 H 0.86234 0.47831 0.45567 0.0
H941 H 0.86413 0.48021 0.5159 0.0
H942 H 0.8424 0.53005 0.51464 0.0
H943 H 0.84013 0.52778 0.45402 0.0
C944 C 0.84045 0.50919 0.61185 0.0
C945 C 0.85817 0.50805 0.62805 0.0
C946 C 0.83905 0.5086 0.57704 0.0
C947 C 0.85531 0.50683 0.55749 0.0
C948 C 0.87318 0.50603 0.57379 0.0
C949 C 0.87457 0.50661 0.60849 0.0
C950 C 0.85792 0.4897 0.46812 0.0
C951 C 0.85114 0.50293 0.44981 0.0
C952 C 0.85909 0.4909 0.50281 0.0
C953 C 0.85358 0.50541 0.52037 0.0
C954 C 0.84659 0.51853 0.50209 0.0
C955 C 0.8454 0.51732 0.46726 0.0
H956 H 0.33241 0.8846 0.62917 0.0
H957 H 0.26739 0.88139 0.62865 0.0
H958 H 0.33244 0.88382 0.56882 0.0
H959 H 0.26766 0.8812 0.56797 0.0
H960 H 0.26619 0.86001 0.45876 0.0
H961 H 0.26478 0.85916 0.51943 0.0
H962 H 0.33695 0.90738 0.52232 0.0
H963 H 0.33843 0.90776 0.462 0.0
C964 C 0.31812 0.8838 0.6162 0.0
C965 C 0.29994 0.88314 0.63393 0.0
C966 C 0.3182 0.88351 0.58143 0.0
C967 C 0.30014 0.88264 0.56325 0.0
C968 C 0.28178 0.88166 0.581 0.0
C969 C 0.28167 0.88189 0.61587 0.0
C970 C 0.28176 0.87041 0.47236 0.0
C971 C 0.30244 0.88389 0.45536 0.0
C972 C 0.28093 0.87003 0.50722 0.0
C973 C 0.30076 0.88312 0.52602 0.0
C974 C 0.32138 0.89672 0.50888 0.0
C975 C 0.32221 0.89706 0.47413 0.0
H976 H 0.4468 0.30537 0.62506 0.0
H977 H 0.45099 0.37098 0.62027 0.0
H978 H 0.44732 0.30413 0.56437 0.0
H979 H 0.45106 0.36955 0.55997 0.0
H980 H 0.47622 0.3725 0.45442 0.0
H981 H 0.47528 0.37245 0.51478 0.0
H982 H 0.42556 0.30049 0.51469 0.0
H983 H 0.42686 0.30045 0.454 0.0
C984 C 0.44771 0.31947 0.61112 0.0
C985 C 0.44896 0.33833 0.6277 0.0
C986 C 0.44788 0.31871 0.57625 0.0
C987 C 0.44937 0.3368 0.55705 0.0
C988 C 0.45033 0.35548 0.57375 0.0
C989 C 0.45014 0.35623 0.60849 0.0
C990 C 0.46506 0.35663 0.46717 0.0
C991 C 0.45157 0.33649 0.44916 0.0
C992 C 0.46441 0.35662 0.50193 0.0
C993 C 0.45023 0.33649 0.51985 0.0
C994 C 0.43686 0.31628 0.50186 0.0
C995 C 0.4375 0.31628 0.46698 0.0
H996 H 0.12528 0.46428 0.61477 0.0
H997 H 0.0709 0.47958 0.61196 0.0
H998 H 0.12745 0.466 0.55408 0.0
H999 H 0.07267 0.48076 0.55169 0.0
H1000 H 0.0977 0.50697 0.44778 0.0
H1001 H 0.09647 0.50441 0.50798 0.0
H1002 H 0.10823 0.44756 0.50299 0.0
H1003 H 0.11 0.45051 0.44234 0.0
C1004 C 0.11368 0.46784 0.60126 0.0
C1005 C 0.09801 0.47194 0.6184 0.0
C1006 C 0.11484 0.46872 0.56638 0.0
C1007 C 0.10038 0.47373 0.54775 0.0
C1008 C 0.08444 0.47735 0.56502 0.0
C1009 C 0.08331 0.47652 0.59974 0.0
C1010 C 0.10006 0.49391 0.4594 0.0
C1011 C 0.10387 0.4789 0.44003 0.0
C1012 C 0.0992 0.49233 0.49409 0.0
C1013 C 0.10202 0.47562 0.51061 0.0
C1014 C 0.10615 0.46076 0.49126 0.0
C1015 C 0.10705 0.46238 0.45642 0.0
H1016 H 0.69407 0.09452 0.46349 0.0
H1017 H 0.62825 0.08949 0.46762 0.0
H1018 H 0.6945 0.09277 0.52405 0.0
H1019 H 0.6289 0.08828 0.52797 0.0
H1020 H 0.62517 0.06088 0.63252 0.0
H1021 H 0.6257 0.06338 0.57225 0.0
H1022 H 0.69741 0.11338 0.57439 0.0
H1023 H 0.69697 0.11047 0.63491 0.0
C1024 C 0.67974 0.09318 0.47728 0.0
C1025 C 0.66107 0.09204 0.46054 0.0
C1026 C 0.68005 0.09231 0.51209 0.0
C1027 C 0.66168 0.09028 0.53111 0.0
C1028 C 0.64317 0.08944 0.51428 0.0
C1029 C 0.64286 0.09027 0.47955 0.0
C1030 C 0.64109 0.07243 0.62022 0.0
C1031 C 0.66102 0.08547 0.63872 0.0
C1032 C 0.64136 0.07399 0.58554 0.0
C1033 C 0.66158 0.08867 0.56823 0.0
C1034 C 0.68157 0.1017 0.58673 0.0
C1035 C 0.68129 0.10013 0.62151 0.0
H1036 H 0.53608 0.68489 0.45124 0.0
H1037 H 0.48107 0.61498 0.44882 0.0
H1038 H 0.53582 0.68366 0.51155 0.0
H1039 H 0.48114 0.61357 0.50953 0.0
H1040 H 0.47377 0.62712 0.62044 0.0
H1041 H 0.47252 0.62754 0.55973 0.0
H1042 H 0.54588 0.66761 0.55632 0.0
H1043 H 0.54708 0.66763 0.61659 0.0
C1044 C 0.52396 0.66917 0.46354 0.0
C1045 C 0.50864 0.65001 0.44498 0.0
C1046 C 0.5239 0.66842 0.49829 0.0
C1047 C 0.50857 0.64846 0.51568 0.0
C1048 C 0.49307 0.62932 0.49713 0.0
C1049 C 0.49311 0.63008 0.46225 0.0
C1050 C 0.48962 0.63603 0.60671 0.0
C1051 C 0.51052 0.64745 0.62357 0.0
C1052 C 0.48892 0.63616 0.57182 0.0
C1053 C 0.50909 0.64772 0.55289 0.0
C1054 C 0.52994 0.65889 0.56988 0.0
C1055 C 0.53064 0.65878 0.60461 0.0
H1056 H 0.54632 0.12306 0.23322 0.0
H1057 H 0.55546 0.15785 0.32653 0.0
H1058 H 0.58315 0.12566 0.24005 0.0
H1059 H 0.59258 0.16117 0.33292 0.0
H1060 H 0.63085 0.12226 0.35767 0.0
H1061 H 0.60225 0.13289 0.34714 0.0
H1062 H 0.62389 0.1472 0.24456 0.0
H1063 H 0.65214 0.13595 0.25492 0.0
C1064 C 0.55654 0.13193 0.25461 0.0
C1065 C 0.54788 0.13986 0.27962 0.0
C1066 C 0.5777 0.1335 0.25855 0.0
C1067 C 0.59064 0.14326 0.2874 0.0
C1068 C 0.58279 0.15304 0.31086 0.0
C1069 C 0.56159 0.15124 0.3071 0.0
C1070 C 0.62986 0.12814 0.33305 0.0
C1071 C 0.64351 0.1279 0.30704 0.0
C1072 C 0.6135 0.13437 0.32699 0.0
C1073 C 0.61059 0.14066 0.29485 0.0
C1074 C 0.62539 0.14201 0.26941 0.0
C1075 C 0.64165 0.13565 0.27543 0.0
H1076 H 0.42049 0.59361 0.24947 0.0
H1077 H 0.42823 0.57038 0.34589 0.0
H1078 H 0.38442 0.55844 0.24218 0.0
H1079 H 0.39229 0.5349 0.33827 0.0
H1080 H 0.32049 0.47829 0.32448 0.0
H1081 H 0.35154 0.51704 0.33289 0.0
H1082 H 0.37366 0.51917 0.23156 0.0
H1083 H 0.34214 0.48044 0.22287 0.0
C1084 C 0.41436 0.58108 0.2693 0.0
C1085 C 0.42732 0.58466 0.29815 0.0
C1086 C 0.39375 0.56086 0.26499 0.0
C1087 C 0.38564 0.54372 0.28938 0.0
C1088 C 0.39798 0.54783 0.31906 0.0
C1089 C 0.4186 0.56815 0.32345 0.0
C1090 C 0.33183 0.48709 0.30384 0.0
C1091 C 0.32901 0.47621 0.27306 0.0
C1092 C 0.3497 0.50928 0.30876 0.0
C1093 C 0.36523 0.52111 0.28307 0.0
C1094 C 0.36186 0.5106 0.25182 0.0
C1095 C 0.34386 0.48838 0.24682 0.0
H1096 H 0.81991 0.43736 0.35496 0.0
H1097 H 0.79049 0.43595 0.25949 0.0
H1098 H 0.81118 0.39822 0.34682 0.0
H1099 H 0.78138 0.39666 0.25161 0.0
H1100 H 0.81818 0.35463 0.22952 0.0
H1101 H 0.8081 0.38381 0.23911 0.0
H1102 H 0.78512 0.35759 0.33819 0.0
H1103 H 0.79553 0.32854 0.32876 0.0
C1104 C 0.81083 0.42842 0.3328 0.0
C1105 C 0.80637 0.43988 0.30756 0.0
C1106 C 0.80574 0.40592 0.32813 0.0
C1107 C 0.79597 0.39447 0.29821 0.0
C1108 C 0.78935 0.40519 0.27457 0.0
C1109 C 0.79452 0.42767 0.27917 0.0
C1110 C 0.81026 0.35457 0.25293 0.0
C1111 C 0.80818 0.33963 0.27862 0.0
C1112 C 0.8044 0.3713 0.25846 0.0
C1113 C 0.79624 0.37331 0.28972 0.0
C1114 C 0.79183 0.35678 0.31412 0.0
C1115 C 0.79772 0.34008 0.30861 0.0
H1116 H 0.41118 0.81234 0.33199 0.0
H1117 H 0.41596 0.84214 0.23528 0.0
H1118 H 0.37342 0.80725 0.33971 0.0
H1119 H 0.37826 0.83745 0.24331 0.0
H1120 H 0.30747 0.82146 0.25932 0.0
H1121 H 0.33735 0.81216 0.25088 0.0
H1122 H 0.36157 0.83494 0.35039 0.0
H1123 H 0.33152 0.84391 0.35903 0.0
C1124 C 0.40404 0.81755 0.31216 0.0
C1125 C 0.4167 0.82802 0.28321 0.0
C1126 C 0.38241 0.81466 0.31667 0.0
C1127 C 0.37297 0.82223 0.29239 0.0
C1128 C 0.38498 0.83127 0.26244 0.0
C1129 C 0.40664 0.83407 0.25785 0.0
C1130 C 0.31882 0.82395 0.27972 0.0
C1131 C 0.31738 0.83381 0.30968 0.0
C1132 C 0.33602 0.81873 0.27476 0.0
C1133 C 0.35208 0.82322 0.29968 0.0
C1134 C 0.34941 0.83118 0.33068 0.0
C1135 C 0.33218 0.83638 0.33566 0.0
H1136 H 0.59263 0.46954 0.21689 0.0
H1137 H 0.61863 0.46588 0.31303 0.0
H1138 H 0.55932 0.43199 0.2263 0.0
H1139 H 0.5856 0.42825 0.32214 0.0
H1140 H 0.50859 0.38085 0.3445 0.0
H1141 H 0.54564 0.41463 0.33377 0.0
H1142 H 0.54487 0.3915 0.23363 0.0
H1143 H 0.50782 0.35813 0.24404 0.0
C1144 C 0.59153 0.46049 0.23962 0.0
C1145 C 0.60812 0.4708 0.26434 0.0
C1146 C 0.57244 0.43895 0.24506 0.0
C1147 C 0.56965 0.42729 0.27524 0.0
C1148 C 0.58699 0.43701 0.29899 0.0
C1149 C 0.606 0.45851 0.29361 0.0
C1150 C 0.51646 0.38288 0.32035 0.0
C1151 C 0.50514 0.36694 0.29506 0.0
C1152 C 0.53774 0.40217 0.31421 0.0
C1153 C 0.54812 0.40582 0.28271 0.0
C1154 C 0.53716 0.3894 0.25792 0.0
C1155 C 0.51594 0.37022 0.264 0.0
H1156 H 0.12897 0.63461 0.33365 0.0
H1157 H 0.15078 0.64509 0.23116 0.0
H1158 H 0.13874 0.60535 0.3392 0.0
H1159 H 0.16295 0.61708 0.23742 0.0
H1160 H 0.13643 0.54052 0.23955 0.0
H1161 H 0.1445 0.57907 0.23677 0.0
H1162 H 0.15771 0.58632 0.34251 0.0
H1163 H 0.1474 0.5463 0.34553 0.0
C1164 C 0.13674 0.63125 0.31255 0.0
C1165 C 0.1385 0.6417 0.28166 0.0
C1166 C 0.14264 0.61444 0.31581 0.0
C1167 C 0.15107 0.60802 0.28848 0.0
C1168 C 0.15549 0.62063 0.25867 0.0
C1169 C 0.14878 0.63693 0.25508 0.0
C1170 C 0.1413 0.55032 0.26229 0.0
C1171 C 0.14058 0.54006 0.29297 0.0
C1172 C 0.14632 0.57285 0.26063 0.0
C1173 C 0.15136 0.58612 0.28952 0.0
C1174 C 0.15304 0.57653 0.31981 0.0
C1175 C 0.14735 0.5536 0.3216 0.0
H1176 H 0.40386 0.82019 0.77427 0.0
H1177 H 0.42085 0.86282 0.86114 0.0
H1178 H 0.36818 0.82 0.76914 0.0
H1179 H 0.38534 0.86339 0.85538 0.0
H1180 H 0.31535 0.85377 0.84481 0.0
H1181 H 0.34427 0.84354 0.85595 0.0
H1182 H 0.35979 0.84842 0.75106 0.0
H1183 H 0.33053 0.85804 0.73986 0.0
C1184 C 0.3998 0.82935 0.7925 0.0
C1185 C 0.41521 0.8418 0.81784 0.0
C1186 C 0.37942 0.82934 0.78944 0.0
C1187 C 0.37411 0.84207 0.81138 0.0
C1188 C 0.38885 0.85331 0.83812 0.0
C1189 C 0.40921 0.85306 0.84144 0.0
C1190 C 0.32468 0.85228 0.82406 0.0
C1191 C 0.32076 0.85689 0.79143 0.0
C1192 C 0.34136 0.84655 0.83051 0.0
C1193 C 0.3545 0.84535 0.80449 0.0
C1194 C 0.3498 0.84891 0.7717 0.0
C1195 C 0.33306 0.85452 0.76524 0.0
H1196 H 0.62101 0.49059 0.73398 0.0
H1197 H 0.60432 0.48767 0.83821 0.0
H1198 H 0.58929 0.45195 0.72671 0.0
H1199 H 0.57226 0.44924 0.83073 0.0
H1200 H 0.52632 0.37485 0.81514 0.0
H1201 H 0.56215 0.41057 0.8191 0.0
H1202 H 0.54809 0.43277 0.72607 0.0
H1203 H 0.51231 0.39651 0.72167 0.0
C1204 C 0.61063 0.48167 0.75541 0.0
C1205 C 0.61513 0.49225 0.78669 0.0
C1206 C 0.59237 0.45957 0.75114 0.0
C1207 C 0.57817 0.44755 0.77805 0.0
C1208 C 0.58305 0.45791 0.80954 0.0
C1209 C 0.60137 0.47999 0.81384 0.0
C1210 C 0.53099 0.38724 0.7953 0.0
C1211 C 0.51639 0.38303 0.76827 0.0
C1212 C 0.55147 0.40777 0.79768 0.0
C1213 C 0.55779 0.42469 0.77325 0.0
C1214 C 0.54376 0.42002 0.74527 0.0
C1215 C 0.52325 0.3993 0.74273 0.0
H1216 H 0.15085 0.6505 0.74157 0.0
H1217 H 0.13485 0.62498 0.84225 0.0
H1218 H 0.16187 0.62232 0.72858 0.0
H1219 H 0.14557 0.59668 0.82914 0.0
H1220 H 0.16468 0.54665 0.80364 0.0
H1221 H 0.17296 0.58565 0.8118 0.0
H1222 H 0.13678 0.58125 0.7216 0.0
H1223 H 0.1289 0.54237 0.71315 0.0
C1224 C 0.15022 0.63925 0.76119 0.0
C1225 C 0.14149 0.63963 0.79279 0.0
C1226 C 0.15647 0.62307 0.75365 0.0
C1227 C 0.15419 0.60699 0.77758 0.0
C1228 C 0.14765 0.60888 0.81011 0.0
C1229 C 0.14139 0.62508 0.81766 0.0
C1230 C 0.15912 0.55429 0.785 0.0
C1231 C 0.14573 0.54135 0.75811 0.0
C1232 C 0.16379 0.57659 0.78977 0.0
C1233 C 0.15507 0.58635 0.76783 0.0
C1234 C 0.14381 0.57427 0.73898 0.0
C1235 C 0.13924 0.55194 0.73409 0.0
H1236 H 0.64768 0.12533 0.84883 0.0
H1237 H 0.63225 0.11976 0.74407 0.0
H1238 H 0.61952 0.13674 0.85941 0.0
H1239 H 0.60376 0.13059 0.75475 0.0
H1240 H 0.56057 0.16006 0.77658 0.0
H1241 H 0.59618 0.15995 0.77181 0.0
H1242 H 0.57846 0.11729 0.85934 0.0
H1243 H 0.54309 0.11805 0.86466 0.0
C1244 C 0.63844 0.12676 0.82799 0.0
C1245 C 0.64205 0.12142 0.79561 0.0
C1246 C 0.62224 0.1332 0.83412 0.0
C1247 C 0.60926 0.13441 0.80802 0.0
C1248 C 0.61365 0.13012 0.77543 0.0
C1249 C 0.62991 0.12377 0.76928 0.0
C1250 C 0.56452 0.15105 0.79521 0.0
C1251 C 0.54893 0.13877 0.82073 0.0
C1252 C 0.58486 0.15089 0.79236 0.0
C1253 C 0.58995 0.13822 0.81475 0.0
C1254 C 0.57512 0.12731 0.84173 0.0
C1255 C 0.55481 0.12769 0.84479 0.0
H1256 H 0.33405 0.47717 0.84229 0.0
H1257 H 0.34015 0.46284 0.73945 0.0
H1258 H 0.36712 0.5153 0.83563 0.0
H1259 H 0.37353 0.50033 0.73318 0.0
H1260 H 0.44219 0.56805 0.82401 0.0
H1261 H 0.40694 0.53208 0.82945 0.0
H1262 H 0.38795 0.54021 0.73022 0.0
H1263 H 0.42397 0.57612 0.72432 0.0
C1264 C 0.34245 0.48214 0.81833 0.0
C1265 C 0.33452 0.46694 0.79149 0.0
C1266 C 0.36147 0.50394 0.8145 0.0
C1267 C 0.37312 0.51088 0.78387 0.0
C1268 C 0.36485 0.49577 0.75695 0.0
C1269 C 0.34575 0.47414 0.76067 0.0
C1270 C 0.43052 0.56222 0.80329 0.0
C1271 C 0.43591 0.57493 0.77366 0.0
C1272 C 0.41015 0.54164 0.80656 0.0
C1273 C 0.39445 0.53327 0.78042 0.0
C1274 C 0.39977 0.54603 0.75075 0.0
C1275 C 0.42037 0.56661 0.74734 0.0
H1276 H 0.82387 0.35617 0.85611 0.0
H1277 H 0.79892 0.32762 0.75904 0.0
H1278 H 0.81317 0.38486 0.84596 0.0
H1279 H 0.78793 0.35618 0.74908 0.0
H1280 H 0.82184 0.4355 0.72782 0.0
H1281 H 0.81372 0.39671 0.73782 0.0
H1282 H 0.78569 0.39696 0.83416 0.0
H1283 H 0.79414 0.43589 0.82436 0.0
C1284 C 0.81533 0.35547 0.83311 0.0
C1285 C 0.81276 0.33999 0.80809 0.0
C1286 C 0.80912 0.37191 0.82727 0.0
C1287 C 0.80013 0.37308 0.79637 0.0
C1288 C 0.79527 0.35601 0.77282 0.0
C1289 C 0.8015 0.3396 0.77864 0.0
C1290 C 0.81328 0.42703 0.75066 0.0
C1291 C 0.80913 0.43893 0.77558 0.0
C1292 C 0.80853 0.40472 0.7564 0.0
C1293 C 0.79944 0.39391 0.78711 0.0
C1294 C 0.79313 0.40501 0.81057 0.0
C1295 C 0.79793 0.42729 0.80487 0.0
loop_
_geom_bond_atom_site_label_1
_geom_bond_atom_site_label_2
_geom_bond_distance
_geom_bond_site_symmetry_2
_ccdc_geom_bond_type
Zn0 O3 2.031 . S
Zn0 O5 2.049 . S
Zn0 O10 2.067 . S
Zn1 O2 1.962 . S
Zn1 O4 1.986 . S
Zn1 O6 1.996 . S
Zn1 O9 1.943 . S
O2 Zn1 1.962 . S
O2 C7 1.254 . S
O3 Zn0 2.031 . S
O3 C7 1.269 . S
O4 Zn1 1.986 . S
O4 C11 1.262 . S
O5 Zn0 2.049 . S
O5 C13 1.260 . S
O6 Zn1 1.996 . S
O6 C13 1.257 . S
C7 O2 1.254 . S
C7 O3 1.269 . S
C8 O9 1.249 . S
C8 O10 1.270 . S
O9 Zn1 1.943 . S
O9 C8 1.249 . S
O10 Zn0 2.067 . S
O10 C8 1.270 . S
C11 O4 1.262 . S
C11 O12 1.232 . S
O12 C11 1.232 . S
C13 O5 1.260 . S
C13 O6 1.257 . S
Zn14 O17 2.031 . S
Zn14 O19 2.049 . S
Zn14 O24 2.067 . S
Zn15 O16 1.962 . S
Zn15 O18 1.986 . S
Zn15 O20 1.996 . S
Zn15 O23 1.943 . S
O16 Zn15 1.962 . S
O16 C21 1.254 . S
O17 Zn14 2.031 . S
O17 C21 1.269 . S
O18 Zn15 1.986 . S
O18 C25 1.262 . S
O19 Zn14 2.049 . S
O19 C27 1.260 . S
O20 Zn15 1.996 . S
O20 C27 1.257 . S
C21 O16 1.254 . S
C21 O17 1.269 . S
C22 O23 1.249 . S
C22 O24 1.270 . S
O23 Zn15 1.943 . S
O23 C22 1.249 . S
O24 Zn14 2.067 . S
O24 C22 1.270 . S
C25 O18 1.262 . S
C25 O26 1.232 . S
O26 C25 1.232 . S
C27 O19 1.260 . S
C27 O20 1.257 . S
Zn28 O31 2.031 . S
Zn28 O33 2.049 . S
Zn28 O38 2.067 . S
Zn29 O30 1.962 . S
Zn29 O32 1.986 . S
Zn29 O34 1.996 . S
Zn29 O37 1.943 . S
O30 Zn29 1.962 . S
O30 C35 1.254 . S
O31 Zn28 2.031 . S
O31 C35 1.269 . S
O32 Zn29 1.986 . S
O32 C39 1.262 . S
O33 Zn28 2.049 . S
O33 C41 1.260 . S
O34 Zn29 1.996 . S
O34 C41 1.257 . S
C35 O30 1.254 . S
C35 O31 1.269 . S
C36 O37 1.249 . S
C36 O38 1.270 . S
O37 Zn29 1.943 . S
O37 C36 1.249 . S
O38 Zn28 2.067 . S
O38 C36 1.270 . S
C39 O32 1.262 . S
C39 O40 1.232 . S
O40 C39 1.232 . S
C41 O33 1.260 . S
C41 O34 1.257 . S
Zn42 O45 2.031 . S
Zn42 O47 2.049 . S
Zn42 O52 2.067 . S
Zn43 O44 1.962 . S
Zn43 O46 1.986 . S
Zn43 O48 1.996 . S
Zn43 O51 1.943 . S
O44 Zn43 1.962 . S
O44 C49 1.254 . S
O45 Zn42 2.031 . S
O45 C49 1.269 . S
O46 Zn43 1.986 . S
O46 C53 1.262 . S
O47 Zn42 2.049 . S
O47 C55 1.260 . S
O48 Zn43 1.996 . S
O48 C55 1.257 . S
C49 O44 1.254 . S
C49 O45 1.269 . S
C50 O51 1.249 . S
C50 O52 1.270 . S
O51 Zn43 1.943 . S
O51 C50 1.249 . S
O52 Zn42 2.067 . S
O52 C50 1.270 . S
C53 O46 1.262 . S
C53 O54 1.232 . S
O54 C53 1.232 . S
C55 O47 1.260 . S
C55 O48 1.257 . S
Zn56 O59 2.031 . S
Zn56 O61 2.049 . S
Zn56 O66 2.067 . S
Zn57 O58 1.962 . S
Zn57 O60 1.986 . S
Zn57 O62 1.996 . S
Zn57 O65 1.943 . S
O58 Zn57 1.962 . S
O58 C63 1.254 . S
O59 Zn56 2.031 . S
O59 C63 1.269 . S
O60 Zn57 1.986 . S
O60 C67 1.262 . S
O61 Zn56 2.049 . S
O61 C69 1.260 . S
O62 Zn57 1.996 . S
O62 C69 1.257 . S
C63 O58 1.254 . S
C63 O59 1.269 . S
C64 O65 1.249 . S
C64 O66 1.270 . S
O65 Zn57 1.943 . S
O65 C64 1.249 . S
O66 Zn56 2.067 . S
O66 C64 1.270 . S
C67 O60 1.262 . S
C67 O68 1.232 . S
O68 C67 1.232 . S
C69 O61 1.260 . S
C69 O62 1.257 . S
Zn70 O73 2.031 . S
Zn70 O75 2.049 . S
Zn70 O80 2.067 . S
Zn71 O72 1.962 . S
Zn71 O74 1.986 . S
Zn71 O76 1.996 . S
Zn71 O79 1.943 . S
O72 Zn71 1.962 . S
O72 C77 1.254 . S
O73 Zn70 2.031 . S
O73 C77 1.269 . S
O74 Zn71 1.986 . S
O74 C81 1.262 . S
O75 Zn70 2.049 . S
O75 C83 1.260 . S
O76 Zn71 1.996 . S
O76 C83 1.257 . S
C77 O72 1.254 . S
C77 O73 1.269 . S
C78 O79 1.249 . S
C78 O80 1.270 . S
O79 Zn71 1.943 . S
O79 C78 1.249 . S
O80 Zn70 2.067 . S
O80 C78 1.270 . S
C81 O74 1.262 . S
C81 O82 1.232 . S
O82 C81 1.232 . S
C83 O75 1.260 . S
C83 O76 1.257 . S
Zn84 O87 2.031 . S
Zn84 O89 2.049 . S
Zn84 O94 2.067 . S
Zn85 O86 1.962 . S
Zn85 O88 1.986 . S
Zn85 O90 1.996 . S
Zn85 O93 1.943 . S
O86 Zn85 1.962 . S
O86 C91 1.254 . S
O87 Zn84 2.031 . S
O87 C91 1.269 . S
O88 Zn85 1.986 . S
O88 C95 1.262 . S
O89 Zn84 2.049 . S
O89 C97 1.260 . S
O90 Zn85 1.996 . S
O90 C97 1.257 . S
C91 O86 1.254 . S
C91 O87 1.269 . S
C92 O93 1.249 . S
C92 O94 1.270 . S
O93 Zn85 1.943 . S
O93 C92 1.249 . S
O94 Zn84 2.067 . S
O94 C92 1.270 . S
C95 O88 1.262 . S
C95 O96 1.232 . S
O96 C95 1.232 . S
C97 O89 1.260 . S
C97 O90 1.257 . S
Zn98 O101 2.031 . S
Zn98 O103 2.049 . S
Zn98 O108 2.067 . S
Zn99 O100 1.962 . S
Zn99 O102 1.986 . S
Zn99 O104 1.996 . S
Zn99 O107 1.943 . S
O100 Zn99 1.962 . S
O100 C105 1.254 . S
O101 Zn98 2.031 . S
O101 C105 1.269 . S
O102 Zn99 1.986 . S
O102 C109 1.262 . S
O103 Zn98 2.049 . S
O103 C111 1.260 . S
O104 Zn99 1.996 . S
O104 C111 1.257 . S
C105 O100 1.254 . S
C105 O101 1.269 . S
C106 O107 1.249 . S
C106 O108 1.270 . S
O107 Zn99 1.943 . S
O107 C106 1.249 . S
O108 Zn98 2.067 . S
O108 C106 1.270 . S
C109 O102 1.262 . S
C109 O110 1.232 . S
O110 C109 1.232 . S
C111 O103 1.260 . S
C111 O104 1.257 . S
Zn112 O115 2.031 . S
Zn112 O117 2.049 . S
Zn112 O122 2.067 . S
Zn113 O114 1.962 . S
Zn113 O116 1.986 . S
Zn113 O118 1.996 . S
Zn113 O121 1.943 . S
O114 Zn113 1.962 . S
O114 C119 1.254 . S
O115 Zn112 2.031 . S
O115 C119 1.269 . S
O116 Zn113 1.986 . S
O116 C123 1.262 . S
O117 Zn112 2.049 . S
O117 C125 1.260 . S
O118 Zn113 1.996 . S
O118 C125 1.257 . S
C119 O114 1.254 . S
C119 O115 1.269 . S
C120 O121 1.249 . S
C120 O122 1.270 . S
O121 Zn113 1.943 . S
O121 C120 1.249 . S
O122 Zn112 2.067 . S
O122 C120 1.270 . S
C123 O116 1.262 . S
C123 O124 1.232 . S
O124 C123 1.232 . S
C125 O117 1.260 . S
C125 O118 1.257 . S
Zn126 O129 2.031 . S
Zn126 O131 2.049 . S
Zn126 O136 2.067 . S
Zn127 O128 1.962 . S
Zn127 O130 1.986 . S
Zn127 O132 1.996 . S
Zn127 O135 1.943 . S
O128 Zn127 1.962 . S
O128 C133 1.254 . S
O129 Zn126 2.031 . S
O129 C133 1.269 . S
O130 Zn127 1.986 . S
O130 C137 1.262 . S
O131 Zn126 2.049 . S
O131 C139 1.260 . S
O132 Zn127 1.996 . S
O132 C139 1.257 . S
C133 O128 1.254 . S
C133 O129 1.269 . S
C134 O135 1.249 . S
C134 O136 1.270 . S
O135 Zn127 1.943 . S
O135 C134 1.249 . S
O136 Zn126 2.067 . S
O136 C134 1.270 . S
C137 O130 1.262 . S
C137 O138 1.232 . S
O138 C137 1.232 . S
C139 O131 1.260 . S
C139 O132 1.257 . S
Zn140 O143 2.031 . S
Zn140 O145 2.049 . S
Zn140 O150 2.067 . S
Zn141 O142 1.962 . S
Zn141 O144 1.986 . S
Zn141 O146 1.996 . S
Zn141 O149 1.943 . S
O142 Zn141 1.962 . S
O142 C147 1.254 . S
O143 Zn140 2.031 . S
O143 C147 1.269 . S
O144 Zn141 1.986 . S
O144 C151 1.262 . S
O145 Zn140 2.049 . S
O145 C153 1.260 . S
O146 Zn141 1.996 . S
O146 C153 1.257 . S
C147 O142 1.254 . S
C147 O143 1.269 . S
C148 O149 1.249 . S
C148 O150 1.270 . S
O149 Zn141 1.943 . S
O149 C148 1.249 . S
O150 Zn140 2.067 . S
O150 C148 1.270 . S
C151 O144 1.262 . S
C151 O152 1.232 . S
O152 C151 1.232 . S
C153 O145 1.260 . S
C153 O146 1.257 . S
Zn154 O157 2.031 . S
Zn154 O159 2.049 . S
Zn154 O164 2.067 . S
Zn155 O156 1.962 . S
Zn155 O158 1.986 . S
Zn155 O160 1.996 . S
Zn155 O163 1.943 . S
O156 Zn155 1.962 . S
O156 C161 1.254 . S
O157 Zn154 2.031 . S
O157 C161 1.269 . S
O158 Zn155 1.986 . S
O158 C165 1.262 . S
O159 Zn154 2.049 . S
O159 C167 1.260 . S
O160 Zn155 1.996 . S
O160 C167 1.257 . S
C161 O156 1.254 . S
C161 O157 1.269 . S
C162 O163 1.249 . S
C162 O164 1.270 . S
O163 Zn155 1.943 . S
O163 C162 1.249 . S
O164 Zn154 2.067 . S
O164 C162 1.270 . S
C165 O158 1.262 . S
C165 O166 1.232 . S
O166 C165 1.232 . S
C167 O159 1.260 . S
C167 O160 1.257 . S
Zn168 O171 2.031 . S
Zn168 O173 2.049 . S
Zn168 O178 2.067 . S
Zn169 O170 1.962 . S
Zn169 O172 1.986 . S
Zn169 O174 1.996 . S
Zn169 O177 1.943 . S
O170 Zn169 1.962 . S
O170 C175 1.254 . S
O171 Zn168 2.031 . S
O171 C175 1.269 . S
O172 Zn169 1.986 . S
O172 C179 1.262 . S
O173 Zn168 2.049 . S
O173 C181 1.260 . S
O174 Zn169 1.996 . S
O174 C181 1.257 . S
C175 O170 1.254 . S
C175 O171 1.269 . S
C176 O177 1.249 . S
C176 O178 1.270 . S
O177 Zn169 1.943 . S
O177 C176 1.249 . S
O178 Zn168 2.067 . S
O178 C176 1.270 . S
C179 O172 1.262 . S
C179 O180 1.232 . S
O180 C179 1.232 . S
C181 O173 1.260 . S
C181 O174 1.257 . S
Zn182 O185 2.031 . S
Zn182 O187 2.049 . S
Zn182 O192 2.067 . S
Zn183 O184 1.962 . S
Zn183 O186 1.986 . S
Zn183 O188 1.996 . S
Zn183 O191 1.943 . S
O184 Zn183 1.962 . S
O184 C189 1.254 . S
O185 Zn182 2.031 . S
O185 C189 1.269 . S
O186 Zn183 1.986 . S
O186 C193 1.262 . S
O187 Zn182 2.049 . S
O187 C195 1.260 . S
O188 Zn183 1.996 . S
O188 C195 1.257 . S
C189 O184 1.254 . S
C189 O185 1.269 . S
C190 O191 1.249 . S
C190 O192 1.270 . S
O191 Zn183 1.943 . S
O191 C190 1.249 . S
O192 Zn182 2.067 . S
O192 C190 1.270 . S
C193 O186 1.262 . S
C193 O194 1.232 . S
O194 C193 1.232 . S
C195 O187 1.260 . S
C195 O188 1.257 . S
Zn196 O199 2.031 . S
Zn196 O201 2.049 . S
Zn196 O206 2.067 . S
Zn197 O198 1.962 . S
Zn197 O200 1.986 . S
Zn197 O202 1.996 . S
Zn197 O205 1.943 . S
O198 Zn197 1.962 . S
O198 C203 1.254 . S
O199 Zn196 2.031 . S
O199 C203 1.269 . S
O200 Zn197 1.986 . S
O200 C207 1.262 . S
O201 Zn196 2.049 . S
O201 C209 1.260 . S
O202 Zn197 1.996 . S
O202 C209 1.257 . S
C203 O198 1.254 . S
C203 O199 1.269 . S
C204 O205 1.249 . S
C204 O206 1.270 . S
O205 Zn197 1.943 . S
O205 C204 1.249 . S
O206 Zn196 2.067 . S
O206 C204 1.270 . S
C207 O200 1.262 . S
C207 O208 1.232 . S
O208 C207 1.232 . S
C209 O201 1.260 . S
C209 O202 1.257 . S
Zn210 O213 2.031 . S
Zn210 O215 2.049 . S
Zn210 O220 2.067 . S
Zn211 O212 1.962 . S
Zn211 O214 1.986 . S
Zn211 O216 1.996 . S
Zn211 O219 1.943 . S
O212 Zn211 1.962 . S
O212 C217 1.254 . S
O213 Zn210 2.031 . S
O213 C217 1.269 . S
O214 Zn211 1.986 . S
O214 C221 1.262 . S
O215 Zn210 2.049 . S
O215 C223 1.260 . S
O216 Zn211 1.996 . S
O216 C223 1.257 . S
C217 O212 1.254 . S
C217 O213 1.269 . S
C218 O219 1.249 . S
C218 O220 1.270 . S
O219 Zn211 1.943 . S
O219 C218 1.249 . S
O220 Zn210 2.067 . S
O220 C218 1.270 . S
C221 O214 1.262 . S
C221 O222 1.232 . S
O222 C221 1.232 . S
C223 O215 1.260 . S
C223 O216 1.257 . S
Zn224 O227 2.031 . S
Zn224 O229 2.049 . S
Zn224 O234 2.067 . S
Zn225 O226 1.962 . S
Zn225 O228 1.986 . S
Zn225 O230 1.996 . S
Zn225 O233 1.943 . S
O226 Zn225 1.962 . S
O226 C231 1.254 . S
O227 Zn224 2.031 . S
O227 C231 1.269 . S
O228 Zn225 1.986 . S
O228 C235 1.262 . S
O229 Zn224 2.049 . S
O229 C237 1.260 . S
O230 Zn225 1.996 . S
O230 C237 1.257 . S
C231 O226 1.254 . S
C231 O227 1.269 . S
C232 O233 1.249 . S
C232 O234 1.270 . S
O233 Zn225 1.943 . S
O233 C232 1.249 . S
O234 Zn224 2.067 . S
O234 C232 1.270 . S
C235 O228 1.262 . S
C235 O236 1.232 . S
O236 C235 1.232 . S
C237 O229 1.260 . S
C237 O230 1.257 . S
Zn238 O241 2.031 . S
Zn238 O243 2.049 . S
Zn238 O248 2.067 . S
Zn239 O240 1.962 . S
Zn239 O242 1.986 . S
Zn239 O244 1.996 . S
Zn239 O247 1.943 . S
O240 Zn239 1.962 . S
O240 C245 1.254 . S
O241 Zn238 2.031 . S
O241 C245 1.269 . S
O242 Zn239 1.986 . S
O242 C249 1.262 . S
O243 Zn238 2.049 . S
O243 C251 1.260 . S
O244 Zn239 1.996 . S
O244 C251 1.257 . S
C245 O240 1.254 . S
C245 O241 1.269 . S
C246 O247 1.249 . S
C246 O248 1.270 . S
O247 Zn239 1.943 . S
O247 C246 1.249 . S
O248 Zn238 2.067 . S
O248 C246 1.270 . S
C249 O242 1.262 . S
C249 O250 1.232 . S
O250 C249 1.232 . S
C251 O243 1.260 . S
C251 O244 1.257 . S
Zn252 O255 2.031 . S
Zn252 O257 2.049 . S
Zn252 O262 2.067 . S
Zn253 O254 1.962 . S
Zn253 O256 1.986 . S
Zn253 O258 1.996 . S
Zn253 O261 1.943 . S
O254 Zn253 1.962 . S
O254 C259 1.254 . S
O255 Zn252 2.031 . S
O255 C259 1.269 . S
O256 Zn253 1.986 . S
O256 C263 1.262 . S
O257 Zn252 2.049 . S
O257 C265 1.260 . S
O258 Zn253 1.996 . S
O258 C265 1.257 . S
C259 O254 1.254 . S
C259 O255 1.269 . S
C260 O261 1.249 . S
C260 O262 1.270 . S
O261 Zn253 1.943 . S
O261 C260 1.249 . S
O262 Zn252 2.067 . S
O262 C260 1.270 . S
C263 O256 1.262 . S
C263 O264 1.232 . S
O264 C263 1.232 . S
C265 O257 1.260 . S
C265 O258 1.257 . S
Zn266 O269 2.031 . S
Zn266 O271 2.049 . S
Zn266 O276 2.067 . S
Zn267 O268 1.962 . S
Zn267 O270 1.986 . S
Zn267 O272 1.996 . S
Zn267 O275 1.943 . S
O268 Zn267 1.962 . S
O268 C273 1.254 . S
O269 Zn266 2.031 . S
O269 C273 1.269 . S
O270 Zn267 1.986 . S
O270 C277 1.262 . S
O271 Zn266 2.049 . S
O271 C279 1.260 . S
O272 Zn267 1.996 . S
O272 C279 1.257 . S
C273 O268 1.254 . S
C273 O269 1.269 . S
C274 O275 1.249 . S
C274 O276 1.270 . S
O275 Zn267 1.943 . S
O275 C274 1.249 . S
O276 Zn266 2.067 . S
O276 C274 1.270 . S
C277 O270 1.262 . S
C277 O278 1.232 . S
O278 C277 1.232 . S
C279 O271 1.260 . S
C279 O272 1.257 . S
Zn280 O283 2.031 . S
Zn280 O285 2.049 . S
Zn280 O290 2.067 . S
Zn281 O282 1.962 . S
Zn281 O284 1.986 . S
Zn281 O286 1.996 . S
Zn281 O289 1.943 . S
O282 Zn281 1.962 . S
O282 C287 1.254 . S
O283 Zn280 2.031 . S
O283 C287 1.269 . S
O284 Zn281 1.986 . S
O284 C291 1.262 . S
O285 Zn280 2.049 . S
O285 C293 1.260 . S
O286 Zn281 1.996 . S
O286 C293 1.257 . S
C287 O282 1.254 . S
C287 O283 1.269 . S
C288 O289 1.249 . S
C288 O290 1.270 . S
O289 Zn281 1.943 . S
O289 C288 1.249 . S
O290 Zn280 2.067 . S
O290 C288 1.270 . S
C291 O284 1.262 . S
C291 O292 1.232 . S
O292 C291 1.232 . S
C293 O285 1.260 . S
C293 O286 1.257 . S
Zn294 O297 2.031 . S
Zn294 O299 2.049 . S
Zn294 O304 2.067 . S
Zn295 O296 1.962 . S
Zn295 O298 1.986 . S
Zn295 O300 1.996 . S
Zn295 O303 1.943 . S
O296 Zn295 1.962 . S
O296 C301 1.254 . S
O297 Zn294 2.031 . S
O297 C301 1.269 . S
O298 Zn295 1.986 . S
O298 C305 1.262 . S
O299 Zn294 2.049 . S
O299 C307 1.260 . S
O300 Zn295 1.996 . S
O300 C307 1.257 . S
C301 O296 1.254 . S
C301 O297 1.269 . S
C302 O303 1.249 . S
C302 O304 1.270 . S
O303 Zn295 1.943 . S
O303 C302 1.249 . S
O304 Zn294 2.067 . S
O304 C302 1.270 . S
C305 O298 1.262 . S
C305 O306 1.232 . S
O306 C305 1.232 . S
C307 O299 1.260 . S
C307 O300 1.257 . S
Zn308 O311 2.031 . S
Zn308 O313 2.049 . S
Zn308 O318 2.067 . S
Zn309 O310 1.962 . S
Zn309 O312 1.986 . S
Zn309 O314 1.996 . S
Zn309 O317 1.943 . S
O310 Zn309 1.962 . S
O310 C315 1.254 . S
O311 Zn308 2.031 . S
O311 C315 1.269 . S
O312 Zn309 1.986 . S
O312 C319 1.262 . S
O313 Zn308 2.049 . S
O313 C321 1.260 . S
O314 Zn309 1.996 . S
O314 C321 1.257 . S
C315 O310 1.254 . S
C315 O311 1.269 . S
C316 O317 1.249 . S
C316 O318 1.270 . S
O317 Zn309 1.943 . S
O317 C316 1.249 . S
O318 Zn308 2.067 . S
O318 C316 1.270 . S
C319 O312 1.262 . S
C319 O320 1.232 . S
O320 C319 1.232 . S
C321 O313 1.260 . S
C321 O314 1.257 . S
Zn322 O325 2.031 . S
Zn322 O327 2.049 . S
Zn322 O332 2.067 . S
Zn323 O324 1.962 . S
Zn323 O326 1.986 . S
Zn323 O328 1.996 . S
Zn323 O331 1.943 . S
O324 Zn323 1.962 . S
O324 C329 1.254 . S
O325 Zn322 2.031 . S
O325 C329 1.269 . S
O326 Zn323 1.986 . S
O326 C333 1.262 . S
O327 Zn322 2.049 . S
O327 C335 1.260 . S
O328 Zn323 1.996 . S
O328 C335 1.257 . S
C329 O324 1.254 . S
C329 O325 1.269 . S
C330 O331 1.249 . S
C330 O332 1.270 . S
O331 Zn323 1.943 . S
O331 C330 1.249 . S
O332 Zn322 2.067 . S
O332 C330 1.270 . S
C333 O326 1.262 . S
C333 O334 1.232 . S
O334 C333 1.232 . S
C335 O327 1.260 . S
C335 O328 1.257 . S
H336 C344 0.950 . S
H337 C349 0.950 . S
H338 C346 0.950 . S
H339 C348 0.950 . S
H340 C350 0.950 . S
H341 C352 0.950 . S
H342 C354 0.950 . S
H343 C355 0.950 . S
C344 H336 0.950 . S
C344 C345 1.386 . S
C344 C346 1.391 . S
C345 C344 1.386 . S
C345 C349 1.393 . S
C346 H338 0.950 . S
C346 C344 1.391 . S
C346 C347 1.400 . S
C347 C346 1.400 . S
C347 C348 1.398 . S
C347 C353 1.491 1_545 S
C348 H339 0.950 . S
C348 C347 1.398 . S
C348 C349 1.391 . S
C349 H337 0.950 . S
C349 C345 1.393 . S
C349 C348 1.391 . S
C350 H340 0.950 . S
C350 C351 1.386 . S
C350 C352 1.391 . S
C351 C350 1.386 . S
C351 C355 1.393 . S
C352 H341 0.950 . S
C352 C350 1.391 . S
C352 C353 1.400 . S
C353 C347 1.491 1_565 S
C353 C352 1.400 . S
C353 C354 1.398 . S
C354 H342 0.950 . S
C354 C353 1.398 . S
C354 C355 1.391 . S
C355 H343 0.950 . S
C355 C351 1.393 . S
C355 C354 1.391 . S
H356 C364 0.950 . S
H357 C369 0.950 . S
H358 C366 0.950 . S
H359 C368 0.950 . S
H360 C370 0.950 . S
H361 C372 0.950 . S
H362 C374 0.950 . S
H363 C375 0.950 . S
C364 H356 0.950 . S
C364 C365 1.386 . S
C364 C366 1.391 . S
C365 C364 1.386 . S
C365 C369 1.393 . S
C366 H358 0.950 . S
C366 C364 1.391 . S
C366 C367 1.400 . S
C367 C366 1.400 . S
C367 C368 1.398 . S
C367 C373 1.491 . S
C368 H359 0.950 . S
C368 C367 1.398 . S
C368 C369 1.391 . S
C369 H357 0.950 . S
C369 C365 1.393 . S
C369 C368 1.391 . S
C370 H360 0.950 . S
C370 C371 1.386 . S
C370 C372 1.391 . S
C371 C370 1.386 . S
C371 C375 1.393 . S
C372 H361 0.950 . S
C372 C370 1.391 . S
C372 C373 1.400 . S
C373 C367 1.491 . S
C373 C372 1.400 . S
C373 C374 1.398 . S
C374 H362 0.950 . S
C374 C373 1.398 . S
C374 C375 1.391 . S
C375 H363 0.950 . S
C375 C371 1.393 . S
C375 C374 1.391 . S
H376 C384 0.950 . S
H377 C389 0.950 . S
H378 C386 0.950 . S
H379 C388 0.950 . S
H380 C390 0.950 . S
H381 C392 0.950 . S
H382 C394 0.950 . S
H383 C395 0.950 . S
C384 H376 0.950 . S
C384 C385 1.386 . S
C384 C386 1.391 . S
C385 C384 1.386 . S
C385 C389 1.393 . S
C386 H378 0.950 . S
C386 C384 1.391 . S
C386 C387 1.400 . S
C387 C386 1.400 . S
C387 C388 1.398 . S
C387 C393 1.491 1_655 S
C388 H379 0.950 . S
C388 C387 1.398 . S
C388 C389 1.391 . S
C389 H377 0.950 . S
C389 C385 1.393 . S
C389 C388 1.391 . S
C390 H380 0.950 . S
C390 C391 1.386 . S
C390 C392 1.391 . S
C391 C390 1.386 . S
C391 C395 1.393 . S
C392 H381 0.950 . S
C392 C390 1.391 . S
C392 C393 1.400 . S
C393 C387 1.491 1_455 S
C393 C392 1.400 . S
C393 C394 1.398 . S
C394 H382 0.950 . S
C394 C393 1.398 . S
C394 C395 1.391 . S
C395 H383 0.950 . S
C395 C391 1.393 . S
C395 C394 1.391 . S
H396 C404 0.950 . S
H397 C409 0.950 . S
H398 C406 0.950 . S
H399 C408 0.950 . S
H400 C410 0.950 . S
H401 C412 0.950 . S
H402 C414 0.950 . S
H403 C415 0.950 . S
C404 H396 0.950 . S
C404 C405 1.386 . S
C404 C406 1.391 . S
C405 C404 1.386 . S
C405 C409 1.393 . S
C406 H398 0.950 . S
C406 C404 1.391 . S
C406 C407 1.400 . S
C407 C406 1.400 . S
C407 C408 1.398 . S
C407 C413 1.491 1_565 S
C408 H399 0.950 . S
C408 C407 1.398 . S
C408 C409 1.391 . S
C409 H397 0.950 . S
C409 C405 1.393 . S
C409 C408 1.391 . S
C410 H400 0.950 . S
C410 C411 1.386 . S
C410 C412 1.391 . S
C411 C410 1.386 . S
C411 C415 1.393 . S
C412 H401 0.950 . S
C412 C410 1.391 . S
C412 C413 1.400 . S
C413 C407 1.491 1_545 S
C413 C412 1.400 . S
C413 C414 1.398 . S
C414 H402 0.950 . S
C414 C413 1.398 . S
C414 C415 1.391 . S
C415 H403 0.950 . S
C415 C411 1.393 . S
C415 C414 1.391 . S
H416 C424 0.950 . S
H417 C429 0.950 . S
H418 C426 0.950 . S
H419 C428 0.950 . S
H420 C430 0.950 . S
H421 C432 0.950 . S
H422 C434 0.950 . S
H423 C435 0.950 . S
C424 H416 0.950 . S
C424 C425 1.386 . S
C424 C426 1.391 . S
C425 C424 1.386 . S
C425 C429 1.393 . S
C426 H418 0.950 . S
C426 C424 1.391 . S
C426 C427 1.400 . S
C427 C426 1.400 . S
C427 C428 1.398 . S
C427 C433 1.491 . S
C428 H419 0.950 . S
C428 C427 1.398 . S
C428 C429 1.391 . S
C429 H417 0.950 . S
C429 C425 1.393 . S
C429 C428 1.391 . S
C430 H420 0.950 . S
C430 C431 1.386 . S
C430 C432 1.391 . S
C431 C430 1.386 . S
C431 C435 1.393 . S
C432 H421 0.950 . S
C432 C430 1.391 . S
C432 C433 1.400 . S
C433 C427 1.491 . S
C433 C432 1.400 . S
C433 C434 1.398 . S
C434 H422 0.950 . S
C434 C433 1.398 . S
C434 C435 1.391 . S
C435 H423 0.950 . S
C435 C431 1.393 . S
C435 C434 1.391 . S
H436 C444 0.950 . S
H437 C449 0.950 . S
H438 C446 0.950 . S
H439 C448 0.950 . S
H440 C450 0.950 . S
H441 C452 0.950 . S
H442 C454 0.950 . S
H443 C455 0.950 . S
C444 H436 0.950 . S
C444 C445 1.386 . S
C444 C446 1.391 . S
C445 C444 1.386 . S
C445 C449 1.393 . S
C446 H438 0.950 . S
C446 C444 1.391 . S
C446 C447 1.400 . S
C447 C446 1.400 . S
C447 C448 1.398 . S
C447 C453 1.491 1_455 S
C448 H439 0.950 . S
C448 C447 1.398 . S
C448 C449 1.391 . S
C449 H437 0.950 . S
C449 C445 1.393 . S
C449 C448 1.391 . S
C450 H440 0.950 . S
C450 C451 1.386 . S
C450 C452 1.391 . S
C451 C450 1.386 . S
C451 C455 1.393 . S
C452 H441 0.950 . S
C452 C450 1.391 . S
C452 C453 1.400 . S
C453 C447 1.491 1_655 S
C453 C452 1.400 . S
C453 C454 1.398 . S
C454 H442 0.950 . S
C454 C453 1.398 . S
C454 C455 1.391 . S
C455 H443 0.950 . S
C455 C451 1.393 . S
C455 C454 1.391 . S
H456 C464 0.950 . S
H457 C469 0.950 . S
H458 C466 0.950 . S
H459 C468 0.950 . S
H460 C470 0.950 . S
H461 C472 0.950 . S
H462 C474 0.950 . S
H463 C475 0.950 . S
C464 H456 0.950 . S
C464 C465 1.386 . S
C464 C466 1.391 . S
C465 C464 1.386 . S
C465 C469 1.393 . S
C466 H458 0.950 . S
C466 C464 1.391 . S
C466 C467 1.400 . S
C467 C466 1.400 . S
C467 C468 1.398 . S
C467 C473 1.491 1_565 S
C468 H459 0.950 . S
C468 C467 1.398 . S
C468 C469 1.391 . S
C469 H457 0.950 . S
C469 C465 1.393 . S
C469 C468 1.391 . S
C470 H460 0.950 . S
C470 C471 1.386 . S
C470 C472 1.391 . S
C471 C470 1.386 . S
C471 C475 1.393 . S
C472 H461 0.950 . S
C472 C470 1.391 . S
C472 C473 1.400 . S
C473 C467 1.491 1_545 S
C473 C472 1.400 . S
C473 C474 1.398 . S
C474 H462 0.950 . S
C474 C473 1.398 . S
C474 C475 1.391 . S
C475 H463 0.950 . S
C475 C471 1.393 . S
C475 C474 1.391 . S
H476 C484 0.950 . S
H477 C489 0.950 . S
H478 C486 0.950 . S
H479 C488 0.950 . S
H480 C490 0.950 . S
H481 C492 0.950 . S
H482 C494 0.950 . S
H483 C495 0.950 . S
C484 H476 0.950 . S
C484 C485 1.386 . S
C484 C486 1.391 . S
C485 C484 1.386 . S
C485 C489 1.393 . S
C486 H478 0.950 . S
C486 C484 1.391 . S
C486 C487 1.400 . S
C487 C486 1.400 . S
C487 C488 1.398 . S
C487 C493 1.491 . S
C488 H479 0.950 . S
C488 C487 1.398 . S
C488 C489 1.391 . S
C489 H477 0.950 . S
C489 C485 1.393 . S
C489 C488 1.391 . S
C490 H480 0.950 . S
C490 C491 1.386 . S
C490 C492 1.391 . S
C491 C490 1.386 . S
C491 C495 1.393 . S
C492 H481 0.950 . S
C492 C490 1.391 . S
C492 C493 1.400 . S
C493 C487 1.491 . S
C493 C492 1.400 . S
C493 C494 1.398 . S
C494 H482 0.950 . S
C494 C493 1.398 . S
C494 C495 1.391 . S
C495 H483 0.950 . S
C495 C491 1.393 . S
C495 C494 1.391 . S
H496 C504 0.950 . S
H497 C509 0.950 . S
H498 C506 0.950 . S
H499 C508 0.950 . S
H500 C510 0.950 . S
H501 C512 0.950 . S
H502 C514 0.950 . S
H503 C515 0.950 . S
C504 H496 0.950 . S
C504 C505 1.386 . S
C504 C506 1.391 . S
C505 C504 1.386 . S
C505 C509 1.393 . S
C506 H498 0.950 . S
C506 C504 1.391 . S
C506 C507 1.400 . S
C507 C506 1.400 . S
C507 C508 1.398 . S
C507 C513 1.491 1_655 S
C508 H499 0.950 . S
C508 C507 1.398 . S
C508 C509 1.391 . S
C509 H497 0.950 . S
C509 C505 1.393 . S
C509 C508 1.391 . S
C510 H500 0.950 . S
C510 C511 1.386 . S
C510 C512 1.391 . S
C511 C510 1.386 . S
C511 C515 1.393 . S
C512 H501 0.950 . S
C512 C510 1.391 . S
C512 C513 1.400 . S
C513 C507 1.491 1_455 S
C513 C512 1.400 . S
C513 C514 1.398 . S
C514 H502 0.950 . S
C514 C513 1.398 . S
C514 C515 1.391 . S
C515 H503 0.950 . S
C515 C511 1.393 . S
C515 C514 1.391 . S
H516 C524 0.950 . S
H517 C529 0.950 . S
H518 C526 0.950 . S
H519 C528 0.950 . S
H520 C530 0.950 . S
H521 C532 0.950 . S
H522 C534 0.950 . S
H523 C535 0.950 . S
C524 H516 0.950 . S
C524 C525 1.386 . S
C524 C526 1.391 . S
C525 C524 1.386 . S
C525 C529 1.393 . S
C526 H518 0.950 . S
C526 C524 1.391 . S
C526 C527 1.400 . S
C527 C526 1.400 . S
C527 C528 1.398 . S
C527 C533 1.491 1_545 S
C528 H519 0.950 . S
C528 C527 1.398 . S
C528 C529 1.391 . S
C529 H517 0.950 . S
C529 C525 1.393 . S
C529 C528 1.391 . S
C530 H520 0.950 . S
C530 C531 1.386 . S
C530 C532 1.391 . S
C531 C530 1.386 . S
C531 C535 1.393 . S
C532 H521 0.950 . S
C532 C530 1.391 . S
C532 C533 1.400 . S
C533 C527 1.491 1_565 S
C533 C532 1.400 . S
C533 C534 1.398 . S
C534 H522 0.950 . S
C534 C533 1.398 . S
C534 C535 1.391 . S
C535 H523 0.950 . S
C535 C531 1.393 . S
C535 C534 1.391 . S
H536 C544 0.950 . S
H537 C549 0.950 . S
H538 C546 0.950 . S
H539 C548 0.950 . S
H540 C550 0.950 . S
H541 C552 0.950 . S
H542 C554 0.950 . S
H543 C555 0.950 . S
C544 H536 0.950 . S
C544 C545 1.386 . S
C544 C546 1.391 . S
C545 C544 1.386 . S
C545 C549 1.393 . S
C546 H538 0.950 . S
C546 C544 1.391 . S
C546 C547 1.400 . S
C547 C546 1.400 . S
C547 C548 1.398 . S
C547 C553 1.491 . S
C548 H539 0.950 . S
C548 C547 1.398 . S
C548 C549 1.391 . S
C549 H537 0.950 . S
C549 C545 1.393 . S
C549 C548 1.391 . S
C550 H540 0.950 . S
C550 C551 1.386 . S
C550 C552 1.391 . S
C551 C550 1.386 . S
C551 C555 1.393 . S
C552 H541 0.950 . S
C552 C550 1.391 . S
C552 C553 1.400 . S
C553 C547 1.491 . S
C553 C552 1.400 . S
C553 C554 1.398 . S
C554 H542 0.950 . S
C554 C553 1.398 . S
C554 C555 1.391 . S
C555 H543 0.950 . S
C555 C551 1.393 . S
C555 C554 1.391 . S
H556 C564 0.950 . S
H557 C569 0.950 . S
H558 C566 0.950 . S
H559 C568 0.950 . S
H560 C570 0.950 . S
H561 C572 0.950 . S
H562 C574 0.950 . S
H563 C575 0.950 . S
C564 H556 0.950 . S
C564 C565 1.386 . S
C564 C566 1.391 . S
C565 C564 1.386 . S
C565 C569 1.393 . S
C566 H558 0.950 . S
C566 C564 1.391 . S
C566 C567 1.400 . S
C567 C566 1.400 . S
C567 C568 1.398 . S
C567 C573 1.491 1_455 S
C568 H559 0.950 . S
C568 C567 1.398 . S
C568 C569 1.391 . S
C569 H557 0.950 . S
C569 C565 1.393 . S
C569 C568 1.391 . S
C570 H560 0.950 . S
C570 C571 1.386 . S
C570 C572 1.391 . S
C571 C570 1.386 . S
C571 C575 1.393 . S
C572 H561 0.950 . S
C572 C570 1.391 . S
C572 C573 1.400 . S
C573 C567 1.491 1_655 S
C573 C572 1.400 . S
C573 C574 1.398 . S
C574 H562 0.950 . S
C574 C573 1.398 . S
C574 C575 1.391 . S
C575 H563 0.950 . S
C575 C571 1.393 . S
C575 C574 1.391 . S
H576 C584 0.950 . S
H577 C589 0.950 . S
H578 C586 0.950 . S
H579 C588 0.950 . S
H580 C590 0.950 . S
H581 C592 0.950 . S
H582 C594 0.950 . S
H583 C595 0.950 . S
C584 H576 0.950 . S
C584 C585 1.386 . S
C584 C586 1.391 . S
C585 C584 1.386 . S
C585 C589 1.393 . S
C586 H578 0.950 . S
C586 C584 1.391 . S
C586 C587 1.400 . S
C587 C586 1.400 . S
C587 C588 1.398 . S
C587 C593 1.491 . S
C588 H579 0.950 . S
C588 C587 1.398 . S
C588 C589 1.391 . S
C589 H577 0.950 . S
C589 C585 1.393 . S
C589 C588 1.391 . S
C590 H580 0.950 . S
C590 C591 1.386 . S
C590 C592 1.391 . S
C591 C590 1.386 . S
C591 C595 1.393 . S
C592 H581 0.950 . S
C592 C590 1.391 . S
C592 C593 1.400 . S
C593 C587 1.491 . S
C593 C592 1.400 . S
C593 C594 1.398 . S
C594 H582 0.950 . S
C594 C593 1.398 . S
C594 C595 1.391 . S
C595 H583 0.950 . S
C595 C591 1.393 . S
C595 C594 1.391 . S
H596 C604 0.950 . S
H597 C609 0.950 . S
H598 C606 0.950 . S
H599 C608 0.950 . S
H600 C610 0.950 . S
H601 C612 0.950 . S
H602 C614 0.950 . S
H603 C615 0.950 . S
C604 H596 0.950 . S
C604 C605 1.386 . S
C604 C606 1.391 . S
C605 C604 1.386 . S
C605 C609 1.393 . S
C606 H598 0.950 . S
C606 C604 1.391 . S
C606 C607 1.400 . S
C607 C606 1.400 . S
C607 C608 1.398 . S
C607 C613 1.491 . S
C608 H599 0.950 . S
C608 C607 1.398 . S
C608 C609 1.391 . S
C609 H597 0.950 . S
C609 C605 1.393 . S
C609 C608 1.391 . S
C610 H600 0.950 . S
C610 C611 1.386 . S
C610 C612 1.391 . S
C611 C610 1.386 . S
C611 C615 1.393 . S
C612 H601 0.950 . S
C612 C610 1.391 . S
C612 C613 1.400 . S
C613 C607 1.491 . S
C613 C612 1.400 . S
C613 C614 1.398 . S
C614 H602 0.950 . S
C614 C613 1.398 . S
C614 C615 1.391 . S
C615 H603 0.950 . S
C615 C611 1.393 . S
C615 C614 1.391 . S
H616 C624 0.950 . S
H617 C629 0.950 . S
H618 C626 0.950 . S
H619 C628 0.950 . S
H620 C630 0.950 . S
H621 C632 0.950 . S
H622 C634 0.950 . S
H623 C635 0.950 . S
C624 H616 0.950 . S
C624 C625 1.386 . S
C624 C626 1.391 . S
C625 C624 1.386 . S
C625 C629 1.393 . S
C626 H618 0.950 . S
C626 C624 1.391 . S
C626 C627 1.400 . S
C627 C626 1.400 . S
C627 C628 1.398 . S
C627 C633 1.491 . S
C628 H619 0.950 . S
C628 C627 1.398 . S
C628 C629 1.391 . S
C629 H617 0.950 . S
C629 C625 1.393 . S
C629 C628 1.391 . S
C630 H620 0.950 . S
C630 C631 1.386 . S
C630 C632 1.391 . S
C631 C630 1.386 . S
C631 C635 1.393 . S
C632 H621 0.950 . S
C632 C630 1.391 . S
C632 C633 1.400 . S
C633 C627 1.491 . S
C633 C632 1.400 . S
C633 C634 1.398 . S
C634 H622 0.950 . S
C634 C633 1.398 . S
C634 C635 1.391 . S
C635 H623 0.950 . S
C635 C631 1.393 . S
C635 C634 1.391 . S
H636 C644 0.950 . S
H637 C649 0.950 . S
H638 C646 0.950 . S
H639 C648 0.950 . S
H640 C650 0.950 . S
H641 C652 0.950 . S
H642 C654 0.950 . S
H643 C655 0.950 . S
C644 H636 0.950 . S
C644 C645 1.386 . S
C644 C646 1.391 . S
C645 C644 1.386 . S
C645 C649 1.393 . S
C646 H638 0.950 . S
C646 C644 1.391 . S
C646 C647 1.400 . S
C647 C646 1.400 . S
C647 C648 1.398 . S
C647 C653 1.491 . S
C648 H639 0.950 . S
C648 C647 1.398 . S
C648 C649 1.391 . S
C649 H637 0.950 . S
C649 C645 1.393 . S
C649 C648 1.391 . S
C650 H640 0.950 . S
C650 C651 1.386 . S
C650 C652 1.391 . S
C651 C650 1.386 . S
C651 C655 1.393 . S
C652 H641 0.950 . S
C652 C650 1.391 . S
C652 C653 1.400 . S
C653 C647 1.491 . S
C653 C652 1.400 . S
C653 C654 1.398 . S
C654 H642 0.950 . S
C654 C653 1.398 . S
C654 C655 1.391 . S
C655 H643 0.950 . S
C655 C651 1.393 . S
C655 C654 1.391 . S
H656 C664 0.950 . S
H657 C669 0.950 . S
H658 C666 0.950 . S
H659 C668 0.950 . S
H660 C670 0.950 . S
H661 C672 0.950 . S
H662 C674 0.950 . S
H663 C675 0.950 . S
C664 H656 0.950 . S
C664 C665 1.386 . S
C664 C666 1.391 . S
C665 C664 1.386 . S
C665 C669 1.393 . S
C666 H658 0.950 . S
C666 C664 1.391 . S
C666 C667 1.400 . S
C667 C666 1.400 . S
C667 C668 1.398 . S
C667 C673 1.491 . S
C668 H659 0.950 . S
C668 C667 1.398 . S
C668 C669 1.391 . S
C669 H657 0.950 . S
C669 C665 1.393 . S
C669 C668 1.391 . S
C670 H660 0.950 . S
C670 C671 1.386 . S
C670 C672 1.391 . S
C671 C670 1.386 . S
C671 C675 1.393 . S
C672 H661 0.950 . S
C672 C670 1.391 . S
C672 C673 1.400 . S
C673 C667 1.491 . S
C673 C672 1.400 . S
C673 C674 1.398 . S
C674 H662 0.950 . S
C674 C673 1.398 . S
C674 C675 1.391 . S
C675 H663 0.950 . S
C675 C671 1.393 . S
C675 C674 1.391 . S
H676 C684 0.950 . S
H677 C689 0.950 . S
H678 C686 0.950 . S
H679 C688 0.950 . S
H680 C690 0.950 . S
H681 C692 0.950 . S
H682 C694 0.950 . S
H683 C695 0.950 . S
C684 H676 0.950 . S
C684 C685 1.386 . S
C684 C686 1.391 . S
C685 C684 1.386 . S
C685 C689 1.393 . S
C686 H678 0.950 . S
C686 C684 1.391 . S
C686 C687 1.400 . S
C687 C686 1.400 . S
C687 C688 1.398 . S
C687 C693 1.491 . S
C688 H679 0.950 . S
C688 C687 1.398 . S
C688 C689 1.391 . S
C689 H677 0.950 . S
C689 C685 1.393 . S
C689 C688 1.391 . S
C690 H680 0.950 . S
C690 C691 1.386 . S
C690 C692 1.391 . S
C691 C690 1.386 . S
C691 C695 1.393 . S
C692 H681 0.950 . S
C692 C690 1.391 . S
C692 C693 1.400 . S
C693 C687 1.491 . S
C693 C692 1.400 . S
C693 C694 1.398 . S
C694 H682 0.950 . S
C694 C693 1.398 . S
C694 C695 1.391 . S
C695 H683 0.950 . S
C695 C691 1.393 . S
C695 C694 1.391 . S
H696 C704 0.950 . S
H697 C709 0.950 . S
H698 C706 0.950 . S
H699 C708 0.950 . S
H700 C710 0.950 . S
H701 C712 0.950 . S
H702 C714 0.950 . S
H703 C715 0.950 . S
C704 H696 0.950 . S
C704 C705 1.386 . S
C704 C706 1.391 . S
C705 C704 1.386 . S
C705 C709 1.393 . S
C706 H698 0.950 . S
C706 C704 1.391 . S
C706 C707 1.400 . S
C707 C706 1.400 . S
C707 C708 1.398 . S
C707 C713 1.491 . S
C708 H699 0.950 . S
C708 C707 1.398 . S
C708 C709 1.391 . S
C709 H697 0.950 . S
C709 C705 1.393 . S
C709 C708 1.391 . S
C710 H700 0.950 . S
C710 C711 1.386 . S
C710 C712 1.391 . S
C711 C710 1.386 . S
C711 C715 1.393 . S
C712 H701 0.950 . S
C712 C710 1.391 . S
C712 C713 1.400 . S
C713 C707 1.491 . S
C713 C712 1.400 . S
C713 C714 1.398 . S
C714 H702 0.950 . S
C714 C713 1.398 . S
C714 C715 1.391 . S
C715 H703 0.950 . S
C715 C711 1.393 . S
C715 C714 1.391 . S
H716 C724 0.950 . S
H717 C729 0.950 . S
H718 C726 0.950 . S
H719 C728 0.950 . S
H720 C730 0.950 . S
H721 C732 0.950 . S
H722 C734 0.950 . S
H723 C735 0.950 . S
C724 H716 0.950 . S
C724 C725 1.386 . S
C724 C726 1.391 . S
C725 C724 1.386 . S
C725 C729 1.393 . S
C726 H718 0.950 . S
C726 C724 1.391 . S
C726 C727 1.400 . S
C727 C726 1.400 . S
C727 C728 1.398 . S
C727 C733 1.491 . S
C728 H719 0.950 . S
C728 C727 1.398 . S
C728 C729 1.391 . S
C729 H717 0.950 . S
C729 C725 1.393 . S
C729 C728 1.391 . S
C730 H720 0.950 . S
C730 C731 1.386 . S
C730 C732 1.391 . S
C731 C730 1.386 . S
C731 C735 1.393 . S
C732 H721 0.950 . S
C732 C730 1.391 . S
C732 C733 1.400 . S
C733 C727 1.491 . S
C733 C732 1.400 . S
C733 C734 1.398 . S
C734 H722 0.950 . S
C734 C733 1.398 . S
C734 C735 1.391 . S
C735 H723 0.950 . S
C735 C731 1.393 . S
C735 C734 1.391 . S
H736 C744 0.950 . S
H737 C749 0.950 . S
H738 C746 0.950 . S
H739 C748 0.950 . S
H740 C750 0.950 . S
H741 C752 0.950 . S
H742 C754 0.950 . S
H743 C755 0.950 . S
C744 H736 0.950 . S
C744 C745 1.386 . S
C744 C746 1.391 . S
C745 C744 1.386 . S
C745 C749 1.393 . S
C746 H738 0.950 . S
C746 C744 1.391 . S
C746 C747 1.400 . S
C747 C746 1.400 . S
C747 C748 1.398 . S
C747 C753 1.491 . S
C748 H739 0.950 . S
C748 C747 1.398 . S
C748 C749 1.391 . S
C749 H737 0.950 . S
C749 C745 1.393 . S
C749 C748 1.391 . S
C750 H740 0.950 . S
C750 C751 1.386 . S
C750 C752 1.391 . S
C751 C750 1.386 . S
C751 C755 1.393 . S
C752 H741 0.950 . S
C752 C750 1.391 . S
C752 C753 1.400 . S
C753 C747 1.491 . S
C753 C752 1.400 . S
C753 C754 1.398 . S
C754 H742 0.950 . S
C754 C753 1.398 . S
C754 C755 1.391 . S
C755 H743 0.950 . S
C755 C751 1.393 . S
C755 C754 1.391 . S
H756 C764 0.950 . S
H757 C769 0.950 . S
H758 C766 0.950 . S
H759 C768 0.950 . S
H760 C770 0.950 . S
H761 C772 0.950 . S
H762 C774 0.950 . S
H763 C775 0.950 . S
C764 H756 0.950 . S
C764 C765 1.386 . S
C764 C766 1.391 . S
C765 C764 1.386 . S
C765 C769 1.393 . S
C766 H758 0.950 . S
C766 C764 1.391 . S
C766 C767 1.400 . S
C767 C766 1.400 . S
C767 C768 1.398 . S
C767 C773 1.491 . S
C768 H759 0.950 . S
C768 C767 1.398 . S
C768 C769 1.391 . S
C769 H757 0.950 . S
C769 C765 1.393 . S
C769 C768 1.391 . S
C770 H760 0.950 . S
C770 C771 1.386 . S
C770 C772 1.391 . S
C771 C770 1.386 . S
C771 C775 1.393 . S
C772 H761 0.950 . S
C772 C770 1.391 . S
C772 C773 1.400 . S
C773 C767 1.491 . S
C773 C772 1.400 . S
C773 C774 1.398 . S
C774 H762 0.950 . S
C774 C773 1.398 . S
C774 C775 1.391 . S
C775 H763 0.950 . S
C775 C771 1.393 . S
C775 C774 1.391 . S
H776 C784 0.950 . S
H777 C789 0.950 . S
H778 C786 0.950 . S
H779 C788 0.950 . S
H780 C790 0.950 . S
H781 C792 0.950 . S
H782 C794 0.950 . S
H783 C795 0.950 . S
C784 H776 0.950 . S
C784 C785 1.386 . S
C784 C786 1.391 . S
C785 C784 1.386 . S
C785 C789 1.393 . S
C786 H778 0.950 . S
C786 C784 1.391 . S
C786 C787 1.400 . S
C787 C786 1.400 . S
C787 C788 1.398 . S
C787 C793 1.491 . S
C788 H779 0.950 . S
C788 C787 1.398 . S
C788 C789 1.391 . S
C789 H777 0.950 . S
C789 C785 1.393 . S
C789 C788 1.391 . S
C790 H780 0.950 . S
C790 C791 1.386 . S
C790 C792 1.391 . S
C791 C790 1.386 . S
C791 C795 1.393 . S
C792 H781 0.950 . S
C792 C790 1.391 . S
C792 C793 1.400 . S
C793 C787 1.491 . S
C793 C792 1.400 . S
C793 C794 1.398 . S
C794 H782 0.950 . S
C794 C793 1.398 . S
C794 C795 1.391 . S
C795 H783 0.950 . S
C795 C791 1.393 . S
C795 C794 1.391 . S
H796 C804 0.950 . S
H797 C809 0.950 . S
H798 C806 0.950 . S
H799 C808 0.950 . S
H800 C810 0.950 . S
H801 C812 0.950 . S
H802 C814 0.950 . S
H803 C815 0.950 . S
C804 H796 0.950 . S
C804 C805 1.386 . S
C804 C806 1.391 . S
C805 C804 1.386 . S
C805 C809 1.393 . S
C806 H798 0.950 . S
C806 C804 1.391 . S
C806 C807 1.400 . S
C807 C806 1.400 . S
C807 C808 1.398 . S
C807 C813 1.491 . S
C808 H799 0.950 . S
C808 C807 1.398 . S
C808 C809 1.391 . S
C809 H797 0.950 . S
C809 C805 1.393 . S
C809 C808 1.391 . S
C810 H800 0.950 . S
C810 C811 1.386 . S
C810 C812 1.391 . S
C811 C810 1.386 . S
C811 C815 1.393 . S
C812 H801 0.950 . S
C812 C810 1.391 . S
C812 C813 1.400 . S
C813 C807 1.491 . S
C813 C812 1.400 . S
C813 C814 1.398 . S
C814 H802 0.950 . S
C814 C813 1.398 . S
C814 C815 1.391 . S
C815 H803 0.950 . S
C815 C811 1.393 . S
C815 C814 1.391 . S
H816 C824 0.950 . S
H817 C829 0.950 . S
H818 C826 0.950 . S
H819 C828 0.950 . S
H820 C830 0.950 . S
H821 C832 0.950 . S
H822 C834 0.950 . S
H823 C835 0.950 . S
C824 H816 0.950 . S
C824 C825 1.386 . S
C824 C826 1.391 . S
C825 C824 1.386 . S
C825 C829 1.393 . S
C826 H818 0.950 . S
C826 C824 1.391 . S
C826 C827 1.400 . S
C827 C826 1.400 . S
C827 C828 1.398 . S
C827 C833 1.491 1_554 S
C828 H819 0.950 . S
C828 C827 1.398 . S
C828 C829 1.391 . S
C829 H817 0.950 . S
C829 C825 1.393 . S
C829 C828 1.391 . S
C830 H820 0.950 . S
C830 C831 1.386 . S
C830 C832 1.391 . S
C831 C830 1.386 . S
C831 C835 1.393 . S
C832 H821 0.950 . S
C832 C830 1.391 . S
C832 C833 1.400 . S
C833 C827 1.491 1_556 S
C833 C832 1.400 . S
C833 C834 1.398 . S
C834 H822 0.950 . S
C834 C833 1.398 . S
C834 C835 1.391 . S
C835 H823 0.950 . S
C835 C831 1.393 . S
C835 C834 1.391 . S
H836 C844 0.950 . S
H837 C849 0.950 . S
H838 C846 0.950 . S
H839 C848 0.950 . S
H840 C850 0.950 . S
H841 C852 0.950 . S
H842 C854 0.950 . S
H843 C855 0.950 . S
C844 H836 0.950 . S
C844 C845 1.386 . S
C844 C846 1.391 . S
C845 C844 1.386 . S
C845 C849 1.393 . S
C846 H838 0.950 . S
C846 C844 1.391 . S
C846 C847 1.400 . S
C847 C846 1.400 . S
C847 C848 1.398 . S
C847 C853 1.491 1_556 S
C848 H839 0.950 . S
C848 C847 1.398 . S
C848 C849 1.391 . S
C849 H837 0.950 . S
C849 C845 1.393 . S
C849 C848 1.391 . S
C850 H840 0.950 . S
C850 C851 1.386 . S
C850 C852 1.391 . S
C851 C850 1.386 . S
C851 C855 1.393 . S
C852 H841 0.950 . S
C852 C850 1.391 . S
C852 C853 1.400 . S
C853 C847 1.491 1_554 S
C853 C852 1.400 . S
C853 C854 1.398 . S
C854 H842 0.950 . S
C854 C853 1.398 . S
C854 C855 1.391 . S
C855 H843 0.950 . S
C855 C851 1.393 . S
C855 C854 1.391 . S
H856 C864 0.950 . S
H857 C869 0.950 . S
H858 C866 0.950 . S
H859 C868 0.950 . S
H860 C870 0.950 . S
H861 C872 0.950 . S
H862 C874 0.950 . S
H863 C875 0.950 . S
C864 H856 0.950 . S
C864 C865 1.386 . S
C864 C866 1.391 . S
C865 C864 1.386 . S
C865 C869 1.393 . S
C866 H858 0.950 . S
C866 C864 1.391 . S
C866 C867 1.400 . S
C867 C866 1.400 . S
C867 C868 1.398 . S
C867 C873 1.491 1_556 S
C868 H859 0.950 . S
C868 C867 1.398 . S
C868 C869 1.391 . S
C869 H857 0.950 . S
C869 C865 1.393 . S
C869 C868 1.391 . S
C870 H860 0.950 . S
C870 C871 1.386 . S
C870 C872 1.391 . S
C871 C870 1.386 . S
C871 C875 1.393 . S
C872 H861 0.950 . S
C872 C870 1.391 . S
C872 C873 1.400 . S
C873 C867 1.491 1_554 S
C873 C872 1.400 . S
C873 C874 1.398 . S
C874 H862 0.950 . S
C874 C873 1.398 . S
C874 C875 1.391 . S
C875 H863 0.950 . S
C875 C871 1.393 . S
C875 C874 1.391 . S
H876 C884 0.950 . S
H877 C889 0.950 . S
H878 C886 0.950 . S
H879 C888 0.950 . S
H880 C890 0.950 . S
H881 C892 0.950 . S
H882 C894 0.950 . S
H883 C895 0.950 . S
C884 H876 0.950 . S
C884 C885 1.386 . S
C884 C886 1.391 . S
C885 C884 1.386 . S
C885 C889 1.393 . S
C886 H878 0.950 . S
C886 C884 1.391 . S
C886 C887 1.400 . S
C887 C886 1.400 . S
C887 C888 1.398 . S
C887 C893 1.491 1_554 S
C888 H879 0.950 . S
C888 C887 1.398 . S
C888 C889 1.391 . S
C889 H877 0.950 . S
C889 C885 1.393 . S
C889 C888 1.391 . S
C890 H880 0.950 . S
C890 C891 1.386 . S
C890 C892 1.391 . S
C891 C890 1.386 . S
C891 C895 1.393 . S
C892 H881 0.950 . S
C892 C890 1.391 . S
C892 C893 1.400 . S
C893 C887 1.491 1_556 S
C893 C892 1.400 . S
C893 C894 1.398 . S
C894 H882 0.950 . S
C894 C893 1.398 . S
C894 C895 1.391 . S
C895 H883 0.950 . S
C895 C891 1.393 . S
C895 C894 1.391 . S
H896 C904 0.950 . S
H897 C909 0.950 . S
H898 C906 0.950 . S
H899 C908 0.950 . S
H900 C910 0.950 . S
H901 C912 0.950 . S
H902 C914 0.950 . S
H903 C915 0.950 . S
C904 H896 0.950 . S
C904 C905 1.386 . S
C904 C906 1.391 . S
C905 C904 1.386 . S
C905 C909 1.393 . S
C906 H898 0.950 . S
C906 C904 1.391 . S
C906 C907 1.400 . S
C907 C906 1.400 . S
C907 C908 1.398 . S
C907 C913 1.491 1_554 S
C908 H899 0.950 . S
C908 C907 1.398 . S
C908 C909 1.391 . S
C909 H897 0.950 . S
C909 C905 1.393 . S
C909 C908 1.391 . S
C910 H900 0.950 . S
C910 C911 1.386 . S
C910 C912 1.391 . S
C911 C910 1.386 . S
C911 C915 1.393 . S
C912 H901 0.950 . S
C912 C910 1.391 . S
C912 C913 1.400 . S
C913 C907 1.491 1_556 S
C913 C912 1.400 . S
C913 C914 1.398 . S
C914 H902 0.950 . S
C914 C913 1.398 . S
C914 C915 1.391 . S
C915 H903 0.950 . S
C915 C911 1.393 . S
C915 C914 1.391 . S
H916 C924 0.950 . S
H917 C929 0.950 . S
H918 C926 0.950 . S
H919 C928 0.950 . S
H920 C930 0.950 . S
H921 C932 0.950 . S
H922 C934 0.950 . S
H923 C935 0.950 . S
C924 H916 0.950 . S
C924 C925 1.386 . S
C924 C926 1.391 . S
C925 C924 1.386 . S
C925 C929 1.393 . S
C926 H918 0.950 . S
C926 C924 1.391 . S
C926 C927 1.400 . S
C927 C926 1.400 . S
C927 C928 1.398 . S
C927 C933 1.491 1_556 S
C928 H919 0.950 . S
C928 C927 1.398 . S
C928 C929 1.391 . S
C929 H917 0.950 . S
C929 C925 1.393 . S
C929 C928 1.391 . S
C930 H920 0.950 . S
C930 C931 1.386 . S
C930 C932 1.391 . S
C931 C930 1.386 . S
C931 C935 1.393 . S
C932 H921 0.950 . S
C932 C930 1.391 . S
C932 C933 1.400 . S
C933 C927 1.491 1_554 S
C933 C932 1.400 . S
C933 C934 1.398 . S
C934 H922 0.950 . S
C934 C933 1.398 . S
C934 C935 1.391 . S
C935 H923 0.950 . S
C935 C931 1.393 . S
C935 C934 1.391 . S
H936 C944 0.950 . S
H937 C949 0.950 . S
H938 C946 0.950 . S
H939 C948 0.950 . S
H940 C950 0.950 . S
H941 C952 0.950 . S
H942 C954 0.950 . S
H943 C955 0.950 . S
C944 H936 0.950 . S
C944 C945 1.386 . S
C944 C946 1.391 . S
C945 C944 1.386 . S
C945 C949 1.393 . S
C946 H938 0.950 . S
C946 C944 1.391 . S
C946 C947 1.400 . S
C947 C946 1.400 . S
C947 C948 1.398 . S
C947 C953 1.491 . S
C948 H939 0.950 . S
C948 C947 1.398 . S
C948 C949 1.391 . S
C949 H937 0.950 . S
C949 C945 1.393 . S
C949 C948 1.391 . S
C950 H940 0.950 . S
C950 C951 1.386 . S
C950 C952 1.391 . S
C951 C950 1.386 . S
C951 C955 1.393 . S
C952 H941 0.950 . S
C952 C950 1.391 . S
C952 C953 1.400 . S
C953 C947 1.491 . S
C953 C952 1.400 . S
C953 C954 1.398 . S
C954 H942 0.950 . S
C954 C953 1.398 . S
C954 C955 1.391 . S
C955 H943 0.950 . S
C955 C951 1.393 . S
C955 C954 1.391 . S
H956 C964 0.950 . S
H957 C969 0.950 . S
H958 C966 0.950 . S
H959 C968 0.950 . S
H960 C970 0.950 . S
H961 C972 0.950 . S
H962 C974 0.950 . S
H963 C975 0.950 . S
C964 H956 0.950 . S
C964 C965 1.386 . S
C964 C966 1.391 . S
C965 C964 1.386 . S
C965 C969 1.393 . S
C966 H958 0.950 . S
C966 C964 1.391 . S
C966 C967 1.400 . S
C967 C966 1.400 . S
C967 C968 1.398 . S
C967 C973 1.491 . S
C968 H959 0.950 . S
C968 C967 1.398 . S
C968 C969 1.391 . S
C969 H957 0.950 . S
C969 C965 1.393 . S
C969 C968 1.391 . S
C970 H960 0.950 . S
C970 C971 1.386 . S
C970 C972 1.391 . S
C971 C970 1.386 . S
C971 C975 1.393 . S
C972 H961 0.950 . S
C972 C970 1.391 . S
C972 C973 1.400 . S
C973 C967 1.491 . S
C973 C972 1.400 . S
C973 C974 1.398 . S
C974 H962 0.950 . S
C974 C973 1.398 . S
C974 C975 1.391 . S
C975 H963 0.950 . S
C975 C971 1.393 . S
C975 C974 1.391 . S
H976 C984 0.950 . S
H977 C989 0.950 . S
H978 C986 0.950 . S
H979 C988 0.950 . S
H980 C990 0.950 . S
H981 C992 0.950 . S
H982 C994 0.950 . S
H983 C995 0.950 . S
C984 H976 0.950 . S
C984 C985 1.386 . S
C984 C986 1.391 . S
C985 C984 1.386 . S
C985 C989 1.393 . S
C986 H978 0.950 . S
C986 C984 1.391 . S
C986 C987 1.400 . S
C987 C986 1.400 . S
C987 C988 1.398 . S
C987 C993 1.491 . S
C988 H979 0.950 . S
C988 C987 1.398 . S
C988 C989 1.391 . S
C989 H977 0.950 . S
C989 C985 1.393 . S
C989 C988 1.391 . S
C990 H980 0.950 . S
C990 C991 1.386 . S
C990 C992 1.391 . S
C991 C990 1.386 . S
C991 C995 1.393 . S
C992 H981 0.950 . S
C992 C990 1.391 . S
C992 C993 1.400 . S
C993 C987 1.491 . S
C993 C992 1.400 . S
C993 C994 1.398 . S
C994 H982 0.950 . S
C994 C993 1.398 . S
C994 C995 1.391 . S
C995 H983 0.950 . S
C995 C991 1.393 . S
C995 C994 1.391 . S
H996 C1004 0.950 . S
H997 C1009 0.950 . S
H998 C1006 0.950 . S
H999 C1008 0.950 . S
H1000 C1010 0.950 . S
H1001 C1012 0.950 . S
H1002 C1014 0.950 . S
H1003 C1015 0.950 . S
C1004 H996 0.950 . S
C1004 C1005 1.386 . S
C1004 C1006 1.391 . S
C1005 C1004 1.386 . S
C1005 C1009 1.393 . S
C1006 H998 0.950 . S
C1006 C1004 1.391 . S
C1006 C1007 1.400 . S
C1007 C1006 1.400 . S
C1007 C1008 1.398 . S
C1007 C1013 1.491 . S
C1008 H999 0.950 . S
C1008 C1007 1.398 . S
C1008 C1009 1.391 . S
C1009 H997 0.950 . S
C1009 C1005 1.393 . S
C1009 C1008 1.391 . S
C1010 H1000 0.950 . S
C1010 C1011 1.386 . S
C1010 C1012 1.391 . S
C1011 C1010 1.386 . S
C1011 C1015 1.393 . S
C1012 H1001 0.950 . S
C1012 C1010 1.391 . S
C1012 C1013 1.400 . S
C1013 C1007 1.491 . S
C1013 C1012 1.400 . S
C1013 C1014 1.398 . S
C1014 H1002 0.950 . S
C1014 C1013 1.398 . S
C1014 C1015 1.391 . S
C1015 H1003 0.950 . S
C1015 C1011 1.393 . S
C1015 C1014 1.391 . S
H1016 C1024 0.950 . S
H1017 C1029 0.950 . S
H1018 C1026 0.950 . S
H1019 C1028 0.950 . S
H1020 C1030 0.950 . S
H1021 C1032 0.950 . S
H1022 C1034 0.950 . S
H1023 C1035 0.950 . S
C1024 H1016 0.950 . S
C1024 C1025 1.386 . S
C1024 C1026 1.391 . S
C1025 C1024 1.386 . S
C1025 C1029 1.393 . S
C1026 H1018 0.950 . S
C1026 C1024 1.391 . S
C1026 C1027 1.400 . S
C1027 C1026 1.400 . S
C1027 C1028 1.398 . S
C1027 C1033 1.491 . S
C1028 H1019 0.950 . S
C1028 C1027 1.398 . S
C1028 C1029 1.391 . S
C1029 H1017 0.950 . S
C1029 C1025 1.393 . S
C1029 C1028 1.391 . S
C1030 H1020 0.950 . S
C1030 C1031 1.386 . S
C1030 C1032 1.391 . S
C1031 C1030 1.386 . S
C1031 C1035 1.393 . S
C1032 H1021 0.950 . S
C1032 C1030 1.391 . S
C1032 C1033 1.400 . S
C1033 C1027 1.491 . S
C1033 C1032 1.400 . S
C1033 C1034 1.398 . S
C1034 H1022 0.950 . S
C1034 C1033 1.398 . S
C1034 C1035 1.391 . S
C1035 H1023 0.950 . S
C1035 C1031 1.393 . S
C1035 C1034 1.391 . S
H1036 C1044 0.950 . S
H1037 C1049 0.950 . S
H1038 C1046 0.950 . S
H1039 C1048 0.950 . S
H1040 C1050 0.950 . S
H1041 C1052 0.950 . S
H1042 C1054 0.950 . S
H1043 C1055 0.950 . S
C1044 H1036 0.950 . S
C1044 C1045 1.386 . S
C1044 C1046 1.391 . S
C1045 C1044 1.386 . S
C1045 C1049 1.393 . S
C1046 H1038 0.950 . S
C1046 C1044 1.391 . S
C1046 C1047 1.400 . S
C1047 C1046 1.400 . S
C1047 C1048 1.398 . S
C1047 C1053 1.491 . S
C1048 H1039 0.950 . S
C1048 C1047 1.398 . S
C1048 C1049 1.391 . S
C1049 H1037 0.950 . S
C1049 C1045 1.393 . S
C1049 C1048 1.391 . S
C1050 H1040 0.950 . S
C1050 C1051 1.386 . S
C1050 C1052 1.391 . S
C1051 C1050 1.386 . S
C1051 C1055 1.393 . S
C1052 H1041 0.950 . S
C1052 C1050 1.391 . S
C1052 C1053 1.400 . S
C1053 C1047 1.491 . S
C1053 C1052 1.400 . S
C1053 C1054 1.398 . S
C1054 H1042 0.950 . S
C1054 C1053 1.398 . S
C1054 C1055 1.391 . S
C1055 H1043 0.950 . S
C1055 C1051 1.393 . S
C1055 C1054 1.391 . S
H1056 C1064 0.950 . S
H1057 C1069 0.950 . S
H1058 C1066 0.950 . S
H1059 C1068 0.950 . S
H1060 C1070 0.950 . S
H1061 C1072 0.950 . S
H1062 C1074 0.950 . S
H1063 C1075 0.950 . S
C1064 H1056 0.950 . S
C1064 C1065 1.386 . S
C1064 C1066 1.391 . S
C1065 C1064 1.386 . S
C1065 C1069 1.393 . S
C1066 H1058 0.950 . S
C1066 C1064 1.391 . S
C1066 C1067 1.400 . S
C1067 C1066 1.400 . S
C1067 C1068 1.398 . S
C1067 C1073 1.491 . S
C1068 H1059 0.950 . S
C1068 C1067 1.398 . S
C1068 C1069 1.391 . S
C1069 H1057 0.950 . S
C1069 C1065 1.393 . S
C1069 C1068 1.391 . S
C1070 H1060 0.950 . S
C1070 C1071 1.386 . S
C1070 C1072 1.391 . S
C1071 C1070 1.386 . S
C1071 C1075 1.393 . S
C1072 H1061 0.950 . S
C1072 C1070 1.391 . S
C1072 C1073 1.400 . S
C1073 C1067 1.491 . S
C1073 C1072 1.400 . S
C1073 C1074 1.398 . S
C1074 H1062 0.950 . S
C1074 C1073 1.398 . S
C1074 C1075 1.391 . S
C1075 H1063 0.950 . S
C1075 C1071 1.393 . S
C1075 C1074 1.391 . S
H1076 C1084 0.950 . S
H1077 C1089 0.950 . S
H1078 C1086 0.950 . S
H1079 C1088 0.950 . S
H1080 C1090 0.950 . S
H1081 C1092 0.950 . S
H1082 C1094 0.950 . S
H1083 C1095 0.950 . S
C1084 H1076 0.950 . S
C1084 C1085 1.386 . S
C1084 C1086 1.391 . S
C1085 C1084 1.386 . S
C1085 C1089 1.393 . S
C1086 H1078 0.950 . S
C1086 C1084 1.391 . S
C1086 C1087 1.400 . S
C1087 C1086 1.400 . S
C1087 C1088 1.398 . S
C1087 C1093 1.491 . S
C1088 H1079 0.950 . S
C1088 C1087 1.398 . S
C1088 C1089 1.391 . S
C1089 H1077 0.950 . S
C1089 C1085 1.393 . S
C1089 C1088 1.391 . S
C1090 H1080 0.950 . S
C1090 C1091 1.386 . S
C1090 C1092 1.391 . S
C1091 C1090 1.386 . S
C1091 C1095 1.393 . S
C1092 H1081 0.950 . S
C1092 C1090 1.391 . S
C1092 C1093 1.400 . S
C1093 C1087 1.491 . S
C1093 C1092 1.400 . S
C1093 C1094 1.398 . S
C1094 H1082 0.950 . S
C1094 C1093 1.398 . S
C1094 C1095 1.391 . S
C1095 H1083 0.950 . S
C1095 C1091 1.393 . S
C1095 C1094 1.391 . S
H1096 C1104 0.950 . S
H1097 C1109 0.950 . S
H1098 C1106 0.950 . S
H1099 C1108 0.950 . S
H1100 C1110 0.950 . S
H1101 C1112 0.950 . S
H1102 C1114 0.950 . S
H1103 C1115 0.950 . S
C1104 H1096 0.950 . S
C1104 C1105 1.386 . S
C1104 C1106 1.391 . S
C1105 C1104 1.386 . S
C1105 C1109 1.393 . S
C1106 H1098 0.950 . S
C1106 C1104 1.391 . S
C1106 C1107 1.400 . S
C1107 C1106 1.400 . S
C1107 C1108 1.398 . S
C1107 C1113 1.491 . S
C1108 H1099 0.950 . S
C1108 C1107 1.398 . S
C1108 C1109 1.391 . S
C1109 H1097 0.950 . S
C1109 C1105 1.393 . S
C1109 C1108 1.391 . S
C1110 H1100 0.950 . S
C1110 C1111 1.386 . S
C1110 C1112 1.391 . S
C1111 C1110 1.386 . S
C1111 C1115 1.393 . S
C1112 H1101 0.950 . S
C1112 C1110 1.391 . S
C1112 C1113 1.400 . S
C1113 C1107 1.491 . S
C1113 C1112 1.400 . S
C1113 C1114 1.398 . S
C1114 H1102 0.950 . S
C1114 C1113 1.398 . S
C1114 C1115 1.391 . S
C1115 H1103 0.950 . S
C1115 C1111 1.393 . S
C1115 C1114 1.391 . S
H1116 C1124 0.950 . S
H1117 C1129 0.950 . S
H1118 C1126 0.950 . S
H1119 C1128 0.950 . S
H1120 C1130 0.950 . S
H1121 C1132 0.950 . S
H1122 C1134 0.950 . S
H1123 C1135 0.950 . S
C1124 H1116 0.950 . S
C1124 C1125 1.386 . S
C1124 C1126 1.391 . S
C1125 C1124 1.386 . S
C1125 C1129 1.393 . S
C1126 H1118 0.950 . S
C1126 C1124 1.391 . S
C1126 C1127 1.400 . S
C1127 C1126 1.400 . S
C1127 C1128 1.398 . S
C1127 C1133 1.491 . S
C1128 H1119 0.950 . S
C1128 C1127 1.398 . S
C1128 C1129 1.391 . S
C1129 H1117 0.950 . S
C1129 C1125 1.393 . S
C1129 C1128 1.391 . S
C1130 H1120 0.950 . S
C1130 C1131 1.386 . S
C1130 C1132 1.391 . S
C1131 C1130 1.386 . S
C1131 C1135 1.393 . S
C1132 H1121 0.950 . S
C1132 C1130 1.391 . S
C1132 C1133 1.400 . S
C1133 C1127 1.491 . S
C1133 C1132 1.400 . S
C1133 C1134 1.398 . S
C1134 H1122 0.950 . S
C1134 C1133 1.398 . S
C1134 C1135 1.391 . S
C1135 H1123 0.950 . S
C1135 C1131 1.393 . S
C1135 C1134 1.391 . S
H1136 C1144 0.950 . S
H1137 C1149 0.950 . S
H1138 C1146 0.950 . S
H1139 C1148 0.950 . S
H1140 C1150 0.950 . S
H1141 C1152 0.950 . S
H1142 C1154 0.950 . S
H1143 C1155 0.950 . S
C1144 H1136 0.950 . S
C1144 C1145 1.386 . S
C1144 C1146 1.391 . S
C1145 C1144 1.386 . S
C1145 C1149 1.393 . S
C1146 H1138 0.950 . S
C1146 C1144 1.391 . S
C1146 C1147 1.400 . S
C1147 C1146 1.400 . S
C1147 C1148 1.398 . S
C1147 C1153 1.491 . S
C1148 H1139 0.950 . S
C1148 C1147 1.398 . S
C1148 C1149 1.391 . S
C1149 H1137 0.950 . S
C1149 C1145 1.393 . S
C1149 C1148 1.391 . S
C1150 H1140 0.950 . S
C1150 C1151 1.386 . S
C1150 C1152 1.391 . S
C1151 C1150 1.386 . S
C1151 C1155 1.393 . S
C1152 H1141 0.950 . S
C1152 C1150 1.391 . S
C1152 C1153 1.400 . S
C1153 C1147 1.491 . S
C1153 C1152 1.400 . S
C1153 C1154 1.398 . S
C1154 H1142 0.950 . S
C1154 C1153 1.398 . S
C1154 C1155 1.391 . S
C1155 H1143 0.950 . S
C1155 C1151 1.393 . S
C1155 C1154 1.391 . S
H1156 C1164 0.950 . S
H1157 C1169 0.950 . S
H1158 C1166 0.950 . S
H1159 C1168 0.950 . S
H1160 C1170 0.950 . S
H1161 C1172 0.950 . S
H1162 C1174 0.950 . S
H1163 C1175 0.950 . S
C1164 H1156 0.950 . S
C1164 C1165 1.386 . S
C1164 C1166 1.391 . S
C1165 C1164 1.386 . S
C1165 C1169 1.393 . S
C1166 H1158 0.950 . S
C1166 C1164 1.391 . S
C1166 C1167 1.400 . S
C1167 C1166 1.400 . S
C1167 C1168 1.398 . S
C1167 C1173 1.491 . S
C1168 H1159 0.950 . S
C1168 C1167 1.398 . S
C1168 C1169 1.391 . S
C1169 H1157 0.950 . S
C1169 C1165 1.393 . S
C1169 C1168 1.391 . S
C1170 H1160 0.950 . S
C1170 C1171 1.386 . S
C1170 C1172 1.391 . S
C1171 C1170 1.386 . S
C1171 C1175 1.393 . S
C1172 H1161 0.950 . S
C1172 C1170 1.391 . S
C1172 C1173 1.400 . S
C1173 C1167 1.491 . S
C1173 C1172 1.400 . S
C1173 C1174 1.398 . S
C1174 H1162 0.950 . S
C1174 C1173 1.398 . S
C1174 C1175 1.391 . S
C1175 H1163 0.950 . S
C1175 C1171 1.393 . S
C1175 C1174 1.391 . S
H1176 C1184 0.950 . S
H1177 C1189 0.950 . S
H1178 C1186 0.950 . S
H1179 C1188 0.950 . S
H1180 C1190 0.950 . S
H1181 C1192 0.950 . S
H1182 C1194 0.950 . S
H1183 C1195 0.950 . S
C1184 H1176 0.950 . S
C1184 C1185 1.386 . S
C1184 C1186 1.391 . S
C1185 C1184 1.386 . S
C1185 C1189 1.393 . S
C1186 H1178 0.950 . S
C1186 C1184 1.391 . S
C1186 C1187 1.400 . S
C1187 C1186 1.400 . S
C1187 C1188 1.398 . S
C1187 C1193 1.491 . S
C1188 H1179 0.950 . S
C1188 C1187 1.398 . S
C1188 C1189 1.391 . S
C1189 H1177 0.950 . S
C1189 C1185 1.393 . S
C1189 C1188 1.391 . S
C1190 H1180 0.950 . S
C1190 C1191 1.386 . S
C1190 C1192 1.391 . S
C1191 C1190 1.386 . S
C1191 C1195 1.393 . S
C1192 H1181 0.950 . S
C1192 C1190 1.391 . S
C1192 C1193 1.400 . S
C1193 C1187 1.491 . S
C1193 C1192 1.400 . S
C1193 C1194 1.398 . S
C1194 H1182 0.950 . S
C1194 C1193 1.398 . S
C1194 C1195 1.391 . S
C1195 H1183 0.950 . S
C1195 C1191 1.393 . S
C1195 C1194 1.391 . S
H1196 C1204 0.950 . S
H1197 C1209 0.950 . S
H1198 C1206 0.950 . S
H1199 C1208 0.950 . S
H1200 C1210 0.950 . S
H1201 C1212 0.950 . S
H1202 C1214 0.950 . S
H1203 C1215 0.950 . S
C1204 H1196 0.950 . S
C1204 C1205 1.386 . S
C1204 C1206 1.391 . S
C1205 C1204 1.386 . S
C1205 C1209 1.393 . S
C1206 H1198 0.950 . S
C1206 C1204 1.391 . S
C1206 C1207 1.400 . S
C1207 C1206 1.400 . S
C1207 C1208 1.398 . S
C1207 C1213 1.491 . S
C1208 H1199 0.950 . S
C1208 C1207 1.398 . S
C1208 C1209 1.391 . S
C1209 H1197 0.950 . S
C1209 C1205 1.393 . S
C1209 C1208 1.391 . S
C1210 H1200 0.950 . S
C1210 C1211 1.386 . S
C1210 C1212 1.391 . S
C1211 C1210 1.386 . S
C1211 C1215 1.393 . S
C1212 H1201 0.950 . S
C1212 C1210 1.391 . S
C1212 C1213 1.400 . S
C1213 C1207 1.491 . S
C1213 C1212 1.400 . S
C1213 C1214 1.398 . S
C1214 H1202 0.950 . S
C1214 C1213 1.398 . S
C1214 C1215 1.391 . S
C1215 H1203 0.950 . S
C1215 C1211 1.393 . S
C1215 C1214 1.391 . S
H1216 C1224 0.950 . S
H1217 C1229 0.950 . S
H1218 C1226 0.950 . S
H1219 C1228 0.950 . S
H1220 C1230 0.950 . S
H1221 C1232 0.950 . S
H1222 C1234 0.950 . S
H1223 C1235 0.950 . S
C1224 H1216 0.950 . S
C1224 C1225 1.386 . S
C1224 C1226 1.391 . S
C1225 C1224 1.386 . S
C1225 C1229 1.393 . S
C1226 H1218 0.950 . S
C1226 C1224 1.391 . S
C1226 C1227 1.400 . S
C1227 C1226 1.400 . S
C1227 C1228 1.398 . S
C1227 C1233 1.491 . S
C1228 H1219 0.950 . S
C1228 C1227 1.398 . S
C1228 C1229 1.391 . S
C1229 H1217 0.950 . S
C1229 C1225 1.393 . S
C1229 C1228 1.391 . S
C1230 H1220 0.950 . S
C1230 C1231 1.386 . S
C1230 C1232 1.391 . S
C1231 C1230 1.386 . S
C1231 C1235 1.393 . S
C1232 H1221 0.950 . S
C1232 C1230 1.391 . S
C1232 C1233 1.400 . S
C1233 C1227 1.491 . S
C1233 C1232 1.400 . S
C1233 C1234 1.398 . S
C1234 H1222 0.950 . S
C1234 C1233 1.398 . S
C1234 C1235 1.391 . S
C1235 H1223 0.950 . S
C1235 C1231 1.393 . S
C1235 C1234 1.391 . S
H1236 C1244 0.950 . S
H1237 C1249 0.950 . S
H1238 C1246 0.950 . S
H1239 C1248 0.950 . S
H1240 C1250 0.950 . S
H1241 C1252 0.950 . S
H1242 C1254 0.950 . S
H1243 C1255 0.950 . S
C1244 H1236 0.950 . S
C1244 C1245 1.386 . S
C1244 C1246 1.391 . S
C1245 C1244 1.386 . S
C1245 C1249 1.393 . S
C1246 H1238 0.950 . S
C1246 C1244 1.391 . S
C1246 C1247 1.400 . S
C1247 C1246 1.400 . S
C1247 C1248 1.398 . S
C1247 C1253 1.491 . S
C1248 H1239 0.950 . S
C1248 C1247 1.398 . S
C1248 C1249 1.391 . S
C1249 H1237 0.950 . S
C1249 C1245 1.393 . S
C1249 C1248 1.391 . S
C1250 H1240 0.950 . S
C1250 C1251 1.386 . S
C1250 C1252 1.391 . S
C1251 C1250 1.386 . S
C1251 C1255 1.393 . S
C1252 H1241 0.950 . S
C1252 C1250 1.391 . S
C1252 C1253 1.400 . S
C1253 C1247 1.491 . S
C1253 C1252 1.400 . S
C1253 C1254 1.398 . S
C1254 H1242 0.950 . S
C1254 C1253 1.398 . S
C1254 C1255 1.391 . S
C1255 H1243 0.950 . S
C1255 C1251 1.393 . S
C1255 C1254 1.391 . S
H1256 C1264 0.950 . S
H1257 C1269 0.950 . S
H1258 C1266 0.950 . S
H1259 C1268 0.950 . S
H1260 C1270 0.950 . S
H1261 C1272 0.950 . S
H1262 C1274 0.950 . S
H1263 C1275 0.950 . S
C1264 H1256 0.950 . S
C1264 C1265 1.386 . S
C1264 C1266 1.391 . S
C1265 C1264 1.386 . S
C1265 C1269 1.393 . S
C1266 H1258 0.950 . S
C1266 C1264 1.391 . S
C1266 C1267 1.400 . S
C1267 C1266 1.400 . S
C1267 C1268 1.398 . S
C1267 C1273 1.491 . S
C1268 H1259 0.950 . S
C1268 C1267 1.398 . S
C1268 C1269 1.391 . S
C1269 H1257 0.950 . S
C1269 C1265 1.393 . S
C1269 C1268 1.391 . S
C1270 H1260 0.950 . S
C1270 C1271 1.386 . S
C1270 C1272 1.391 . S
C1271 C1270 1.386 . S
C1271 C1275 1.393 . S
C1272 H1261 0.950 . S
C1272 C1270 1.391 . S
C1272 C1273 1.400 . S
C1273 C1267 1.491 . S
C1273 C1272 1.400 . S
C1273 C1274 1.398 . S
C1274 H1262 0.950 . S
C1274 C1273 1.398 . S
C1274 C1275 1.391 . S
C1275 H1263 0.950 . S
C1275 C1271 1.393 . S
C1275 C1274 1.391 . S
H1276 C1284 0.950 . S
H1277 C1289 0.950 . S
H1278 C1286 0.950 . S
H1279 C1288 0.950 . S
H1280 C1290 0.950 . S
H1281 C1292 0.950 . S
H1282 C1294 0.950 . S
H1283 C1295 0.950 . S
C1284 H1276 0.950 . S
C1284 C1285 1.386 . S
C1284 C1286 1.391 . S
C1285 C1284 1.386 . S
C1285 C1289 1.393 . S
C1286 H1278 0.950 . S
C1286 C1284 1.391 . S
C1286 C1287 1.400 . S
C1287 C1286 1.400 . S
C1287 C1288 1.398 . S
C1287 C1293 1.491 . S
C1288 H1279 0.950 . S
C1288 C1287 1.398 . S
C1288 C1289 1.391 . S
C1289 H1277 0.950 . S
C1289 C1285 1.393 . S
C1289 C1288 1.391 . S
C1290 H1280 0.950 . S
C1290 C1291 1.386 . S
C1290 C1292 1.391 . S
C1291 C1290 1.386 . S
C1291 C1295 1.393 . S
C1292 H1281 0.950 . S
C1292 C1290 1.391 . S
C1292 C1293 1.400 . S
C1293 C1287 1.491 . S
C1293 C1292 1.400 . S
C1293 C1294 1.398 . S
C1294 H1282 0.950 . S
C1294 C1293 1.398 . S
C1294 C1295 1.391 . S
C1295 H1283 0.950 . S
C1295 C1291 1.393 . S
C1295 C1294 1.391 . S
C345 C7 1.327 . S
C351 C105 1.334 . S
C365 C119 1.335 . S
C371 C21 1.328 . S
C385 C35 1.335 . S
C391 C133 1.330 . S
C405 C49 1.331 . S
C411 C147 1.323 . S
C425 C161 1.328 . S
C431 C63 1.322 . S
C445 C77 1.321 . S
C451 C91 1.326 . S
C465 C175 1.322 . S
C471 C273 1.328 . S
C485 C189 1.322 . S
C491 C287 1.330 . S
C505 C301 1.333 . S
C511 C203 1.325 . S
C525 C217 1.329 . S
C531 C315 1.335 . S
C545 C231 1.335 . S
C551 C329 1.331 . S
C565 C259 1.322 . S
C571 C245 1.328 . S
C585 C13 1.236 . S
C591 C125 1.236 . S
C605 C139 1.222 . S
C611 C27 1.222 . S
C625 C153 1.208 . S
C631 C41 1.207 . S
C645 C55 1.205 . S
C651 C167 1.205 . S
C665 C69 1.201 . S
C671 C97 1.201 . S
C685 C83 1.216 . S
C691 C111 1.217 . S
C705 C293 1.196 . S
C711 C181 1.197 . S
C725 C195 1.220 . S
C731 C307 1.221 . S
C745 C321 1.232 . S
C751 C209 1.232 . S
C765 C335 1.198 . S
C771 C223 1.198 . S
C785 C265 1.224 . S
C791 C237 1.225 . S
C805 C251 1.200 . S
C811 C279 1.201 . S
C825 C11 1.508 . S
C831 C221 1.517 . S
C845 C235 1.508 . S
C851 C25 1.517 . S
C865 C249 1.517 . S
C871 C39 1.508 . S
C885 C53 1.514 . S
C891 C179 1.511 . S
C905 C67 1.508 . S
C911 C193 1.516 . S
C925 C207 1.515 . S
C931 C81 1.509 . S
C945 C305 1.509 . S
C951 C95 1.516 . S
C965 C319 1.516 . S
C971 C109 1.509 . S
C985 C333 1.507 . S
C991 C123 1.517 . S
C1005 C263 1.507 . S
C1011 C137 1.517 . S
C1025 C151 1.514 . S
C1031 C277 1.510 . S
C1045 C165 1.517 . S
C1051 C291 1.508 . S
C1065 C8 1.477 . S
C1071 C148 1.482 . S
C1085 C162 1.494 . S
C1091 C22 1.489 . S
C1105 C92 1.493 . S
C1111 C36 1.495 . S
C1125 C50 1.494 . S
C1131 C106 1.489 . S
C1145 C64 1.490 . S
C1151 C120 1.494 . S
C1165 C78 1.495 . S
C1171 C134 1.494 . S
C1185 C176 1.488 . S
C1191 C316 1.493 . S
C1205 C190 1.484 . S
C1211 C330 1.491 . S
C1225 C204 1.480 . S
C1231 C260 1.487 . S
C1245 C274 1.479 . S
C1251 C218 1.486 . S
C1265 C232 1.492 . S
C1271 C288 1.495 . S
C1285 C246 1.476 . S
C1291 C302 1.476 . S
