# Generated by pormake.
# Topology ecc, (8)-cn, num edge types: 1
# Building blocks:
#     Node 0, Type 0, BuildingBlock: TAGTUT_clean_sbu_1, # of connection points: 8
#     Node 1, Type 0, BuildingBlock: TAGTUT_clean_sbu_1, # of connection points: 8
#     Node 2, Type 0, BuildingBlock: TAGTUT_clean_sbu_1, # of connection points: 8
#     Node 3, Type 0, BuildingBlock: TAGTUT_clean_sbu_1, # of connection points: 8
#     Node 4, Type 0, BuildingBlock: TAGTUT_clean_sbu_1, # of connection points: 8
#     Node 5, Type 0, BuildingBlock: TAGTUT_clean_sbu_1, # of connection points: 8
#     Node 6, Type 0, BuildingBlock: TAGTUT_clean_sbu_1, # of connection points: 8
#     Node 7, Type 0, BuildingBlock: TAGTUT_clean_sbu_1, # of connection points: 8
#     Node 8, Type 0, BuildingBlock: TAGTUT_clean_sbu_1, # of connection points: 8
#     Node 9, Type 0, BuildingBlock: TAGTUT_clean_sbu_1, # of connection points: 8
#     Node 10, Type 0, BuildingBlock: TAGTUT_clean_sbu_1, # of connection points: 8
#     Node 11, Type 0, BuildingBlock: TAGTUT_clean_sbu_1, # of connection points: 8
#     Node 12, Type 0, BuildingBlock: TAGTUT_clean_sbu_1, # of connection points: 8
#     Node 13, Type 0, BuildingBlock: TAGTUT_clean_sbu_1, # of connection points: 8
#     Node 14, Type 0, BuildingBlock: TAGTUT_clean_sbu_1, # of connection points: 8
#     Node 15, Type 0, BuildingBlock: TAGTUT_clean_sbu_1, # of connection points: 8
#     Node 16, Type 0, BuildingBlock: TAGTUT_clean_sbu_1, # of connection points: 8
#     Node 17, Type 0, BuildingBlock: TAGTUT_clean_sbu_1, # of connection points: 8
#     Edge 18, Type (0, 0), BuildingBlock: AJUNOK_clean_linker_0, # of connection points: 2
#     Edge 19, Type (0, 0), BuildingBlock: AJUNOK_clean_linker_0, # of connection points: 2
#     Edge 20, Type (0, 0), BuildingBlock: AJUNOK_clean_linker_0, # of connection points: 2
#     Edge 21, Type (0, 0), BuildingBlock: AJUNOK_clean_linker_0, # of connection points: 2
#     Edge 22, Type (0, 0), BuildingBlock: AJUNOK_clean_linker_0, # of connection points: 2
#     Edge 23, Type (0, 0), BuildingBlock: AJUNOK_clean_linker_0, # of connection points: 2
#     Edge 24, Type (0, 0), BuildingBlock: AJUNOK_clean_linker_0, # of connection points: 2
#     Edge 25, Type (0, 0), BuildingBlock: AJUNOK_clean_linker_0, # of connection points: 2
#     Edge 26, Type (0, 0), BuildingBlock: AJUNOK_clean_linker_0, # of connection points: 2
#     Edge 27, Type (0, 0), BuildingBlock: AJUNOK_clean_linker_0, # of connection points: 2
#     Edge 28, Type (0, 0), BuildingBlock: AJUNOK_clean_linker_0, # of connection points: 2
#     Edge 29, Type (0, 0), BuildingBlock: AJUNOK_clean_linker_0, # of connection points: 2
#     Edge 30, Type (0, 0), BuildingBlock: AJUNOK_clean_linker_0, # of connection points: 2
#     Edge 31, Type (0, 0), BuildingBlock: AJUNOK_clean_linker_0, # of connection points: 2
#     Edge 32, Type (0, 0), BuildingBlock: AJUNOK_clean_linker_0, # of connection points: 2
#     Edge 33, Type (0, 0), BuildingBlock: AJUNOK_clean_linker_0, # of connection points: 2
#     Edge 34, Type (0, 0), BuildingBlock: AJUNOK_clean_linker_0, # of connection points: 2
#     Edge 35, Type (0, 0), BuildingBlock: AJUNOK_clean_linker_0, # of connection points: 2
#     Edge 36, Type (0, 0), BuildingBlock: AJUNOK_clean_linker_0, # of connection points: 2
#     Edge 37, Type (0, 0), BuildingBlock: AJUNOK_clean_linker_0, # of connection points: 2
#     Edge 38, Type (0, 0), BuildingBlock: AJUNOK_clean_linker_0, # of connection points: 2
#     Edge 39, Type (0, 0), BuildingBlock: AJUNOK_clean_linker_0, # of connection points: 2
#     Edge 40, Type (0, 0), BuildingBlock: AJUNOK_clean_linker_0, # of connection points: 2
#     Edge 41, Type (0, 0), BuildingBlock: AJUNOK_clean_linker_0, # of connection points: 2
#     Edge 42, Type (0, 0), BuildingBlock: AJUNOK_clean_linker_0, # of connection points: 2
#     Edge 43, Type (0, 0), BuildingBlock: AJUNOK_clean_linker_0, # of connection points: 2
#     Edge 44, Type (0, 0), BuildingBlock: AJUNOK_clean_linker_0, # of connection points: 2
#     Edge 45, Type (0, 0), BuildingBlock: AJUNOK_clean_linker_0, # of connection points: 2
#     Edge 46, Type (0, 0), BuildingBlock: AJUNOK_clean_linker_0, # of connection points: 2
#     Edge 47, Type (0, 0), BuildingBlock: AJUNOK_clean_linker_0, # of connection points: 2
#     Edge 48, Type (0, 0), BuildingBlock: AJUNOK_clean_linker_0, # of connection points: 2
#     Edge 49, Type (0, 0), BuildingBlock: AJUNOK_clean_linker_0, # of connection points: 2
#     Edge 50, Type (0, 0), BuildingBlock: AJUNOK_clean_linker_0, # of connection points: 2
#     Edge 51, Type (0, 0), BuildingBlock: AJUNOK_clean_linker_0, # of connection points: 2
#     Edge 52, Type (0, 0), BuildingBlock: AJUNOK_clean_linker_0, # of connection points: 2
#     Edge 53, Type (0, 0), BuildingBlock: AJUNOK_clean_linker_0, # of connection points: 2
#     Edge 54, Type (0, 0), BuildingBlock: AJUNOK_clean_linker_0, # of connection points: 2
#     Edge 55, Type (0, 0), BuildingBlock: AJUNOK_clean_linker_0, # of connection points: 2
#     Edge 56, Type (0, 0), BuildingBlock: AJUNOK_clean_linker_0, # of connection points: 2
#     Edge 57, Type (0, 0), BuildingBlock: AJUNOK_clean_linker_0, # of connection points: 2
#     Edge 58, Type (0, 0), BuildingBlock: AJUNOK_clean_linker_0, # of connection points: 2
#     Edge 59, Type (0, 0), BuildingBlock: AJUNOK_clean_linker_0, # of connection points: 2
#     Edge 60, Type (0, 0), BuildingBlock: AJUNOK_clean_linker_0, # of connection points: 2
#     Edge 61, Type (0, 0), BuildingBlock: AJUNOK_clean_linker_0, # of connection points: 2
#     Edge 62, Type (0, 0), BuildingBlock: AJUNOK_clean_linker_0, # of connection points: 2
#     Edge 63, Type (0, 0), BuildingBlock: AJUNOK_clean_linker_0, # of connection points: 2
#     Edge 64, Type (0, 0), BuildingBlock: AJUNOK_clean_linker_0, # of connection points: 2
#     Edge 65, Type (0, 0), BuildingBlock: AJUNOK_clean_linker_0, # of connection points: 2
#     Edge 66, Type (0, 0), BuildingBlock: AJUNOK_clean_linker_0, # of connection points: 2
#     Edge 67, Type (0, 0), BuildingBlock: AJUNOK_clean_linker_0, # of connection points: 2
#     Edge 68, Type (0, 0), BuildingBlock: AJUNOK_clean_linker_0, # of connection points: 2
#     Edge 69, Type (0, 0), BuildingBlock: AJUNOK_clean_linker_0, # of connection points: 2
#     Edge 70, Type (0, 0), BuildingBlock: AJUNOK_clean_linker_0, # of connection points: 2
#     Edge 71, Type (0, 0), BuildingBlock: AJUNOK_clean_linker_0, # of connection points: 2
#     Edge 72, Type (0, 0), BuildingBlock: AJUNOK_clean_linker_0, # of connection points: 2
#     Edge 73, Type (0, 0), BuildingBlock: AJUNOK_clean_linker_0, # of connection points: 2
#     Edge 74, Type (0, 0), BuildingBlock: AJUNOK_clean_linker_0, # of connection points: 2
#     Edge 75, Type (0, 0), BuildingBlock: AJUNOK_clean_linker_0, # of connection points: 2
#     Edge 76, Type (0, 0), BuildingBlock: AJUNOK_clean_linker_0, # of connection points: 2
#     Edge 77, Type (0, 0), BuildingBlock: AJUNOK_clean_linker_0, # of connection points: 2
#     Edge 78, Type (0, 0), BuildingBlock: AJUNOK_clean_linker_0, # of connection points: 2
#     Edge 79, Type (0, 0), BuildingBlock: AJUNOK_clean_linker_0, # of connection points: 2
#     Edge 80, Type (0, 0), BuildingBlock: AJUNOK_clean_linker_0, # of connection points: 2
#     Edge 81, Type (0, 0), BuildingBlock: AJUNOK_clean_linker_0, # of connection points: 2
#     Edge 82, Type (0, 0), BuildingBlock: AJUNOK_clean_linker_0, # of connection points: 2
#     Edge 83, Type (0, 0), BuildingBlock: AJUNOK_clean_linker_0, # of connection points: 2
#     Edge 84, Type (0, 0), BuildingBlock: AJUNOK_clean_linker_0, # of connection points: 2
#     Edge 85, Type (0, 0), BuildingBlock: AJUNOK_clean_linker_0, # of connection points: 2
#     Edge 86, Type (0, 0), BuildingBlock: AJUNOK_clean_linker_0, # of connection points: 2
#     Edge 87, Type (0, 0), BuildingBlock: AJUNOK_clean_linker_0, # of connection points: 2
#     Edge 88, Type (0, 0), BuildingBlock: AJUNOK_clean_linker_0, # of connection points: 2
#     Edge 89, Type (0, 0), BuildingBlock: AJUNOK_clean_linker_0, # of connection points: 2
# Relax obj value: 0.242
# Max RMSD: 0.202
# Mean RMSD: 0.202
data_MOF--net-ecc--node1-TAGTUT_clean_sbu_1--edge1-AJUNOK_clean_linker_0
_symmetry_space_group_name_H-M    P1
_symmetry_Int_Tables_number       1
_symmetry_cell_setting            triclinic
loop_
_symmetry_equiv_pos_as_xyz
'x, y, z'
_cell_length_a     44.127577
_cell_length_b     43.81918
_cell_length_c     19.85302
_cell_angle_alpha  90.62745
_cell_angle_beta   88.763312
_cell_angle_gamma 120.10036
loop_
_atom_site_label
_atom_site_type_symbol
_atom_site_fract_x
_atom_site_fract_y
_atom_site_fract_z
_atom_type_partial_charge
C0 C 0.29976 0.09029 0.86316 0.0
C1 C 0.20325 0.06703 0.9442 0.0
C2 C 0.14823 0.94912 0.80984 0.0
Mg3 Mg 0.23838 0.09871 0.80912 0.0
O4 O 0.22394 0.05429 0.77405 0.0
Mg5 Mg 0.22179 0.01789 0.83795 0.0
Mg6 Mg 0.17352 0.02714 0.74761 0.0
O7 O 0.12465 0.99935 0.72173 0.0
Mg8 Mg 0.11048 0.95473 0.68489 0.0
Mg9 Mg 0.11861 0.03291 0.6661 0.0
C10 C 0.20169 0.10312 0.67548 0.0
C11 C 0.13184 0.06422 0.81409 0.0
O12 O 0.27985 0.05662 0.8613 0.0
O13 O 0.28984 0.11135 0.84163 0.0
O14 O 0.20877 0.04134 0.93328 0.0
O15 O 0.20953 0.09037 0.8999 0.0
O16 O 0.22463 0.11858 0.72145 0.0
O17 O 0.18129 0.06942 0.67308 0.0
C18 C 0.21693 0.99406 0.67894 0.0
O19 O 0.19232 0.00109 0.6719 0.0
O20 O 0.23258 0.9983 0.73536 0.0
O21 O 0.05925 0.99046 0.68608 0.0
O22 O 0.05734 0.93848 0.70085 0.0
O23 O 0.11886 0.00712 0.56675 0.0
C24 C 0.0429 0.95747 0.70269 0.0
O25 O 0.12274 0.95883 0.58027 0.0
O26 O 0.13001 0.93361 0.75806 0.0
C27 C 0.12135 0.98146 0.54288 0.0
O28 O 0.16363 0.98278 0.81658 0.0
O29 O 0.15522 0.05577 0.82493 0.0
O30 O 0.11619 0.05765 0.75865 0.0
C31 C 0.93553 0.27464 0.80761 0.0
C32 C 0.9294 0.19013 0.91253 0.0
C33 C 0.06906 0.24959 0.85485 0.0
Mg34 Mg 0.92939 0.20443 0.76317 0.0
O35 O 0.97772 0.22873 0.76355 0.0
Mg36 Mg 0.00134 0.25977 0.84212 0.0
Mg37 Mg 0.00641 0.20507 0.76167 0.0
O38 O 0.03915 0.18638 0.7581 0.0
Mg39 Mg 0.08777 0.22083 0.74288 0.0
Mg40 Mg 0.01701 0.14838 0.69219 0.0
C41 C 0.94597 0.15967 0.65291 0.0
C42 C 0.9604 0.12325 0.81228 0.0
O43 O 0.96539 0.28214 0.83028 0.0
O44 O 0.91672 0.24626 0.77419 0.0
O45 O 0.95913 0.2187 0.91786 0.0
O46 O 0.91478 0.17853 0.85623 0.0
O47 O 0.92658 0.17065 0.68087 0.0
O48 O 0.97827 0.17162 0.66956 0.0
C49 C 0.05099 0.28533 0.70615 0.0
O50 O 0.04339 0.25328 0.69738 0.0
O51 O 0.03941 0.29493 0.75731 0.0
O52 O 0.05819 0.13513 0.74023 0.0
O53 O 0.10315 0.18569 0.78175 0.0
O54 O 0.05484 0.17811 0.60633 0.0
C55 C 0.08668 0.1521 0.77453 0.0
O56 O 0.10008 0.22922 0.63757 0.0
O57 O 0.08476 0.26184 0.79888 0.0
C58 C 0.08314 0.20644 0.59255 0.0
O59 O 0.03554 0.2347 0.85679 0.0
O60 O 0.9646 0.15428 0.82021 0.0
O61 O 0.97945 0.11747 0.77147 0.0
C62 C 0.78199 0.72384 0.8385 0.0
C63 C 0.86211 0.81874 0.9181 0.0
C64 C 0.77891 0.87223 0.84664 0.0
Mg65 Mg 0.84535 0.79026 0.77429 0.0
O66 O 0.81428 0.80708 0.77245 0.0
Mg67 Mg 0.78427 0.80145 0.85305 0.0
Mg68 Mg 0.82946 0.8578 0.75763 0.0
O69 O 0.84009 0.90691 0.74077 0.0
Mg70 Mg 0.80171 0.91448 0.72354 0.0
Mg71 Mg 0.87703 0.92214 0.67161 0.0
C72 C 0.87487 0.84154 0.64408 0.0
C73 C 0.9104 0.90856 0.79967 0.0
O74 O 0.7704 0.74426 0.85623 0.0
O75 O 0.81054 0.73486 0.80393 0.0
O76 O 0.8309 0.81386 0.92519 0.0
O77 O 0.8739 0.81438 0.86191 0.0
O78 O 0.87 0.81409 0.6768 0.0
O79 O 0.86223 0.86101 0.66493 0.0
C80 C 0.74944 0.80697 0.71348 0.0
O81 O 0.77917 0.83388 0.69859 0.0
O82 O 0.74387 0.791 0.77037 0.0
O83 O 0.88391 0.97749 0.70446 0.0
O84 O 0.83281 0.96895 0.75075 0.0
O85 O 0.84238 0.91638 0.58667 0.0
C86 C 0.86559 0.9886 0.73727 0.0
O87 O 0.79043 0.90824 0.6179 0.0
O88 O 0.76596 0.87206 0.78992 0.0
C89 C 0.81242 0.91131 0.5721 0.0
O90 O 0.79957 0.85967 0.85096 0.0
O91 O 0.88222 0.87961 0.81358 0.0
O92 O 0.9119 0.92837 0.75222 0.0
C93 C 0.96528 0.08971 0.27056 0.0
C94 C 0.8864 0.07547 0.41894 0.0
C95 C 0.79952 0.95521 0.31053 0.0
Mg96 Mg 0.90001 0.09694 0.27516 0.0
O97 O 0.88478 0.05171 0.24101 0.0
Mg98 Mg 0.88648 0.01839 0.3056 0.0
Mg99 Mg 0.83526 0.02753 0.21853 0.0
O100 O 0.78451 0.00495 0.19877 0.0
Mg101 Mg 0.75985 0.95704 0.18153 0.0
Mg102 Mg 0.78979 0.03911 0.12722 0.0
C103 C 0.86625 0.10418 0.1463 0.0
C104 C 0.80234 0.0731 0.27933 0.0
O105 O 0.94698 0.05677 0.28713 0.0
O106 O 0.9524 0.11003 0.26833 0.0
O107 O 0.88831 0.04863 0.40048 0.0
O108 O 0.88465 0.09605 0.37668 0.0
O109 O 0.88478 0.11938 0.19779 0.0
O110 O 0.84885 0.07036 0.14091 0.0
C111 C 0.86921 0.98165 0.16081 0.0
O112 O 0.84777 0.99231 0.14681 0.0
O113 O 0.88543 0.98907 0.21597 0.0
O114 O 0.73036 0.00515 0.11275 0.0
O115 O 0.7102 0.95042 0.1524 0.0
O116 O 0.79518 0.0044 0.04184 0.0
C117 C 0.70551 0.97329 0.12173 0.0
O118 O 0.78315 0.95326 0.09038 0.0
O119 O 0.77206 0.93956 0.2742 0.0
C120 C 0.79322 0.97413 0.04008 0.0
O121 O 0.82446 0.9868 0.29863 0.0
O122 O 0.82224 0.06021 0.28917 0.0
O123 O 0.78685 0.06954 0.22287 0.0
C124 C 0.92056 0.89747 0.18773 0.0
C125 C 0.93821 0.85882 0.37823 0.0
C126 C 0.07039 0.90552 0.30139 0.0
Mg127 Mg 0.92481 0.83246 0.22924 0.0
O128 O 0.97219 0.86582 0.20823 0.0
Mg129 Mg 0.99484 0.90895 0.25863 0.0
Mg130 Mg 0.00913 0.85129 0.20251 0.0
O131 O 0.0407 0.83101 0.2019 0.0
Mg132 Mg 0.08882 0.85926 0.19911 0.0
Mg133 Mg 0.01755 0.79822 0.1246 0.0
C134 C 0.94514 0.80231 0.11827 0.0
C135 C 0.96938 0.7714 0.26173 0.0
O136 O 0.94961 0.91675 0.21858 0.0
O137 O 0.90583 0.8638 0.18409 0.0
O138 O 0.96527 0.88732 0.35881 0.0
O139 O 0.92037 0.83354 0.3375 0.0
O140 O 0.93218 0.79264 0.17726 0.0
O141 O 0.97875 0.81829 0.11041 0.0
C142 C 0.04664 0.93011 0.14764 0.0
O143 O 0.05159 0.9038 0.14544 0.0
O144 O 0.01537 0.92246 0.15309 0.0
O145 O 0.05735 0.78011 0.13563 0.0
O146 O 0.10615 0.82104 0.18623 0.0
O147 O 0.05716 0.83896 0.04609 0.0
C148 C 0.08868 0.79152 0.15525 0.0
O149 O 0.10049 0.88252 0.10419 0.0
O150 O 0.09115 0.89536 0.27697 0.0
C151 C 0.08594 0.86861 0.0489 0.0
O152 O 0.03762 0.89029 0.28585 0.0
O153 O 0.97571 0.80307 0.27123 0.0
O154 O 0.98125 0.76294 0.20939 0.0
C155 C 0.1444 0.06382 0.27847 0.0
C156 C 0.21085 0.15442 0.41338 0.0
C157 C 0.14576 0.21913 0.32838 0.0
Mg158 Mg 0.21162 0.13583 0.26363 0.0
O159 O 0.1743 0.14532 0.24793 0.0
Mg160 Mg 0.14189 0.13794 0.32364 0.0
Mg161 Mg 0.18439 0.19304 0.21679 0.0
O162 O 0.19872 0.24209 0.18953 0.0
Mg163 Mg 0.16814 0.2594 0.18676 0.0
Mg164 Mg 0.22628 0.24363 0.10829 0.0
C165 C 0.22741 0.16931 0.13143 0.0
C166 C 0.26583 0.24585 0.24599 0.0
O167 O 0.13189 0.07988 0.31464 0.0
O168 O 0.17531 0.08017 0.25189 0.0
O169 O 0.18133 0.15158 0.40298 0.0
O170 O 0.22795 0.14927 0.36647 0.0
O171 O 0.24345 0.17389 0.18639 0.0
O172 O 0.20986 0.18501 0.12238 0.0
C173 C 0.10241 0.13919 0.19226 0.0
O174 O 0.12958 0.16671 0.16905 0.0
O175 O 0.1029 0.12455 0.24663 0.0
O176 O 0.24085 0.30115 0.09603 0.0
O177 O 0.20263 0.31299 0.14967 0.0
O178 O 0.17749 0.22834 0.0406 0.0
C179 C 0.23004 0.32244 0.11248 0.0
O180 O 0.1362 0.23033 0.1055 0.0
O181 O 0.14827 0.24369 0.28959 0.0
C182 C 0.14638 0.22348 0.0497 0.0
O183 O 0.15668 0.19792 0.31004 0.0
O184 O 0.2366 0.2203 0.26709 0.0
O185 O 0.26952 0.25838 0.18625 0.0
C186 C 0.96855 0.41882 0.19352 0.0
C187 C 0.87522 0.4025 0.27894 0.0
C188 C 0.8117 0.28318 0.14348 0.0
Mg189 Mg 0.91034 0.43205 0.14259 0.0
O190 O 0.89208 0.38687 0.10828 0.0
Mg191 Mg 0.88761 0.34944 0.17158 0.0
Mg192 Mg 0.84166 0.36262 0.0827 0.0
O193 O 0.79273 0.33795 0.05705 0.0
Mg194 Mg 0.7731 0.29207 0.02333 0.0
Mg195 Mg 0.78914 0.3736 0.00328 0.0
C196 C 0.87404 0.43997 0.01251 0.0
C197 C 0.80472 0.40318 0.15308 0.0
O198 O 0.94625 0.38563 0.19322 0.0
O199 O 0.96115 0.44173 0.17171 0.0
O200 O 0.87744 0.37483 0.26763 0.0
O201 O 0.88328 0.42629 0.23466 0.0
O202 O 0.89804 0.45396 0.05688 0.0
O203 O 0.85193 0.40661 0.00976 0.0
C204 C 0.88071 0.32573 0.01235 0.0
O205 O 0.85767 0.33498 0.0055 0.0
O206 O 0.89607 0.32874 0.06865 0.0
O207 O 0.72901 0.33498 0.02445 0.0
O208 O 0.72238 0.28159 0.04666 0.0
O209 O 0.78649 0.34689 0.90238 0.0
C210 C 0.71069 0.30296 0.04636 0.0
O211 O 0.78049 0.29371 0.9175 0.0
O212 O 0.79172 0.26857 0.0933 0.0
C213 C 0.78349 0.31829 0.87951 0.0
O214 O 0.82909 0.31688 0.15039 0.0
O215 O 0.8263 0.39226 0.16271 0.0
O216 O 0.78945 0.39874 0.09758 0.0
C217 C 0.60202 0.60669 0.14183 0.0
C218 C 0.5962 0.52337 0.24363 0.0
C219 C 0.73552 0.58185 0.19087 0.0
Mg220 Mg 0.59689 0.53722 0.09361 0.0
O221 O 0.64513 0.56133 0.09469 0.0
Mg222 Mg 0.66837 0.59235 0.17387 0.0
Mg223 Mg 0.6728 0.53648 0.09699 0.0
O224 O 0.70448 0.51672 0.09833 0.0
Mg225 Mg 0.75288 0.55112 0.08066 0.0
Mg226 Mg 0.68233 0.47736 0.03552 0.0
C227 C 0.61304 0.49046 -0.01305 0.0
C228 C 0.62312 0.45498 0.15018 0.0
O229 O 0.63256 0.61525 0.16243 0.0
O230 O 0.58365 0.57849 0.10758 0.0
O231 O 0.62598 0.55183 0.24924 0.0
O232 O 0.58203 0.51194 0.18694 0.0
O233 O 0.59403 0.50263 0.01213 0.0
O234 O 0.64475 0.50144 0.00644 0.0
C235 C 0.71817 0.61571 0.0378 0.0
O236 O 0.71088 0.58362 0.0316 0.0
O237 O 0.70642 0.62608 0.08764 0.0
O238 O 0.72398 0.46535 0.08767 0.0
O239 O 0.76933 0.51765 0.12206 0.0
O240 O 0.72037 0.50561 0.94803 0.0
C241 C 0.75314 0.48392 0.11952 0.0
O242 O 0.76479 0.55801 0.97501 0.0
O243 O 0.75165 0.59343 0.13499 0.0
C244 C 0.74823 0.53394 0.93183 0.0
O245 O 0.70195 0.56691 0.19154 0.0
O246 O 0.62891 0.48675 0.15385 0.0
O247 O 0.64349 0.44754 0.11687 0.0
C248 C 0.4588 0.06468 0.17602 0.0
C249 C 0.53256 0.16163 0.25567 0.0
C250 C 0.44565 0.20876 0.17689 0.0
Mg251 Mg 0.51896 0.13429 0.11292 0.0
O252 O 0.48386 0.14545 0.10651 0.0
Mg253 Mg 0.453 0.1378 0.18688 0.0
Mg254 Mg 0.49535 0.19493 0.08808 0.0
O255 O 0.50227 0.24252 0.06667 0.0
Mg256 Mg 0.46223 0.2477 0.05088 0.0
Mg257 Mg 0.53841 0.25804 -0.00462 0.0
C258 C 0.54375 0.1814 0.97747 0.0
C259 C 0.5751 0.2522 0.12578 0.0
O260 O 0.44308 0.08169 0.19146 0.0
O261 O 0.48835 0.07886 0.14406 0.0
O262 O 0.50001 0.15282 0.26086 0.0
O263 O 0.5467 0.16137 0.19927 0.0
O264 O 0.54295 0.15749 0.0159 0.0
O265 O 0.52741 0.19816 -0.00671 0.0
C266 C 0.41494 0.14026 0.04908 0.0
O267 O 0.44391 0.16759 0.03218 0.0
O268 O 0.41093 0.12414 0.10516 0.0
O269 O 0.54289 0.31327 0.02507 0.0
O270 O 0.49228 0.30233 0.07753 0.0
O271 O 0.5021 0.24773 0.91212 0.0
C272 C 0.52437 0.32325 0.06064 0.0
O273 O 0.4504 0.23969 0.94458 0.0
O274 O 0.4306 0.20526 0.12115 0.0
C275 C 0.47158 0.24116 0.89841 0.0
O276 O 0.46555 0.19543 0.18278 0.0
O277 O 0.54911 0.22227 0.14362 0.0
O278 O 0.5741 0.26793 0.0737 0.0
C279 C 0.63331 0.41967 0.6002 0.0
C280 C 0.55551 0.40617 0.75279 0.0
C281 C 0.46627 0.2867 0.63553 0.0
Mg282 Mg 0.56953 0.42946 0.60915 0.0
O283 O 0.55259 0.38419 0.57406 0.0
Mg284 Mg 0.55363 0.34934 0.6356 0.0
Mg285 Mg 0.50335 0.36104 0.54994 0.0
O286 O 0.45274 0.33863 0.52742 0.0
Mg287 Mg 0.42968 0.29139 0.50424 0.0
Mg288 Mg 0.45903 0.374 0.45786 0.0
C289 C 0.53609 0.4389 0.48156 0.0
C290 C 0.46871 0.4039 0.61277 0.0
O291 O 0.61436 0.38676 0.61653 0.0
O292 O 0.62144 0.44091 0.59996 0.0
O293 O 0.55635 0.37885 0.73325 0.0
O294 O 0.55501 0.4278 0.71141 0.0
O295 O 0.5547 0.45333 0.5334 0.0
O296 O 0.51795 0.40515 0.47549 0.0
C297 C 0.53612 0.31503 0.48856 0.0
O298 O 0.51571 0.32705 0.47614 0.0
O299 O 0.55194 0.32075 0.54395 0.0
O300 O 0.40033 0.34035 0.4378 0.0
O301 O 0.38071 0.28456 0.47111 0.0
O302 O 0.46626 0.34196 0.37015 0.0
C303 C 0.37624 0.30789 0.44178 0.0
O304 O 0.455 0.29021 0.41404 0.0
O305 O 0.44007 0.27192 0.59596 0.0
C306 C 0.46531 0.31229 0.36574 0.0
O307 O 0.49129 0.31878 0.6281 0.0
O308 O 0.49028 0.39296 0.62181 0.0
O309 O 0.45311 0.40006 0.55639 0.0
C310 C 0.58385 0.22991 0.51718 0.0
C311 C 0.60287 0.19394 0.70887 0.0
C312 C 0.73545 0.24426 0.63539 0.0
Mg313 Mg 0.59044 0.16668 0.56135 0.0
O314 O 0.6374 0.20148 0.53837 0.0
Mg315 Mg 0.65889 0.24466 0.58922 0.0
Mg316 Mg 0.67509 0.18819 0.53654 0.0
O317 O 0.70761 0.16883 0.53999 0.0
Mg318 Mg 0.75538 0.19849 0.53496 0.0
Mg319 Mg 0.68493 0.1338 0.4656 0.0
C320 C 0.61184 0.13722 0.45303 0.0
C321 C 0.63734 0.11057 0.60424 0.0
O322 O 0.61298 0.25028 0.5469 0.0
O323 O 0.56983 0.19628 0.51538 0.0
O324 O 0.62893 0.22289 0.68849 0.0
O325 O 0.58576 0.16789 0.66936 0.0
O326 O 0.59845 0.12677 0.51143 0.0
O327 O 0.64546 0.15281 0.44619 0.0
C328 C 0.71306 0.26739 0.48118 0.0
O329 O 0.71664 0.24017 0.47744 0.0
O330 O 0.68216 0.26126 0.48561 0.0
O331 O 0.72592 0.11703 0.47876 0.0
O332 O 0.77516 0.1624 0.52012 0.0
O333 O 0.72365 0.17324 0.38359 0.0
C334 C 0.75848 0.1318 0.49264 0.0
O335 O 0.76491 0.21993 0.43897 0.0
O336 O 0.757 0.23493 0.61162 0.0
C337 C 0.75122 0.20401 0.38444 0.0
O338 O 0.70276 0.22823 0.61901 0.0
O339 O 0.64213 0.14186 0.60755 0.0
O340 O 0.64996 0.10048 0.55551 0.0
C341 C 0.81357 0.39772 0.61725 0.0
C342 C 0.87742 0.48946 0.75218 0.0
C343 C 0.81218 0.55128 0.66675 0.0
Mg344 Mg 0.8801 0.4701 0.60333 0.0
O345 O 0.8426 0.47889 0.58525 0.0
Mg346 Mg 0.80928 0.47093 0.65915 0.0
Mg347 Mg 0.85243 0.52646 0.5548 0.0
O348 O 0.86652 0.57551 0.52833 0.0
Mg349 Mg 0.83691 0.59422 0.52831 0.0
Mg350 Mg 0.89308 0.57618 0.44635 0.0
C351 C 0.89713 0.50379 0.47004 0.0
C352 C 0.93402 0.57973 0.58348 0.0
O353 O 0.80081 0.41383 0.65225 0.0
O354 O 0.8446 0.41418 0.59119 0.0
O355 O 0.84772 0.48554 0.73962 0.0
O356 O 0.89545 0.48459 0.70678 0.0
O357 O 0.91245 0.5077 0.52573 0.0
O358 O 0.87828 0.5182 0.46174 0.0
C359 C 0.77098 0.47175 0.52587 0.0
O360 O 0.79809 0.50006 0.50513 0.0
O361 O 0.77099 0.45645 0.5797 0.0
O362 O 0.90637 0.63268 0.43096 0.0
O363 O 0.87172 0.64775 0.48921 0.0
O364 O 0.84308 0.56038 0.3811 0.0
C365 C 0.89707 0.6551 0.44741 0.0
O366 O 0.80397 0.56582 0.4471 0.0
O367 O 0.81601 0.57743 0.63108 0.0
C368 C 0.81274 0.55743 0.39124 0.0
O369 O 0.82326 0.53051 0.64642 0.0
O370 O 0.90494 0.55427 0.60582 0.0
O371 O 0.9371 0.59179 0.52339 0.0
C372 C 0.63631 0.75333 0.52241 0.0
C373 C 0.54437 0.7455 0.59843 0.0
C374 C 0.47935 0.61778 0.48269 0.0
Mg375 Mg 0.58111 0.76785 0.45991 0.0
O376 O 0.5585 0.7203 0.43883 0.0
Mg377 Mg 0.55405 0.68538 0.50775 0.0
Mg378 Mg 0.50771 0.69523 0.41578 0.0
O379 O 0.45861 0.66899 0.39059 0.0
Mg380 Mg 0.44434 0.62426 0.35473 0.0
Mg381 Mg 0.45491 0.70259 0.33029 0.0
C382 C 0.54163 0.7692 0.32869 0.0
C383 C 0.46811 0.73506 0.47787 0.0
O384 O 0.61226 0.72101 0.52878 0.0
O385 O 0.63143 0.77628 0.4925 0.0
O386 O 0.54445 0.7163 0.59453 0.0
O387 O 0.55457 0.7676 0.55002 0.0
O388 O 0.56852 0.78505 0.36661 0.0
O389 O 0.51717 0.73712 0.33884 0.0
C390 C 0.54693 0.6562 0.3526 0.0
O391 O 0.52423 0.66572 0.34323 0.0
O392 O 0.56223 0.66048 0.40949 0.0
O393 O 0.39485 0.66152 0.34819 0.0
O394 O 0.39125 0.60899 0.36579 0.0
O395 O 0.4561 0.67609 0.23296 0.0
C396 C 0.37754 0.62862 0.36546 0.0
O397 O 0.45932 0.62794 0.25215 0.0
O398 O 0.46204 0.6026 0.42984 0.0
C399 C 0.45874 0.65004 0.21208 0.0
O400 O 0.49541 0.65152 0.48918 0.0
O401 O 0.49139 0.72663 0.49031 0.0
O402 O 0.45269 0.7282 0.42201 0.0
C403 C 0.27168 0.94498 0.46893 0.0
C404 C 0.2652 0.86133 0.5728 0.0
C405 C 0.40552 0.92186 0.50948 0.0
Mg406 Mg 0.26395 0.87406 0.42313 0.0
O407 O 0.31242 0.89797 0.42203 0.0
Mg408 Mg 0.33747 0.92923 0.49991 0.0
Mg409 Mg 0.33958 0.87281 0.42191 0.0
O410 O 0.37051 0.85227 0.41926 0.0
Mg411 Mg 0.41838 0.88539 0.39831 0.0
Mg412 Mg 0.34663 0.81268 0.35715 0.0
C413 C 0.27716 0.82522 0.31809 0.0
C414 C 0.29169 0.79179 0.47864 0.0
O415 O 0.30191 0.95252 0.4897 0.0
O416 O 0.25222 0.91649 0.43616 0.0
O417 O 0.29543 0.88936 0.57671 0.0
O418 O 0.2499 0.84936 0.5172 0.0
O419 O 0.25826 0.8375 0.34312 0.0
O420 O 0.30949 0.83761 0.33422 0.0
C421 C 0.38607 0.95216 0.36282 0.0
O422 O 0.37645 0.9195 0.35435 0.0
O423 O 0.37621 0.96309 0.41471 0.0
O424 O 0.38839 0.79994 0.40447 0.0
O425 O 0.43444 0.85162 0.43933 0.0
O426 O 0.38238 0.83892 0.26677 0.0
C427 C 0.41772 0.81789 0.43594 0.0
O428 O 0.42851 0.89046 0.29215 0.0
O429 O 0.42025 0.9294 0.45157 0.0
C430 C 0.41066 0.86646 0.24967 0.0
O431 O 0.37182 0.90414 0.51365 0.0
O432 O 0.29691 0.82337 0.48285 0.0
O433 O 0.31074 0.78443 0.44106 0.0
C434 C 0.11841 0.39762 0.51431 0.0
C435 C 0.19676 0.4942 0.58896 0.0
C436 C 0.11548 0.5473 0.50653 0.0
Mg437 Mg 0.18091 0.46403 0.44735 0.0
O438 O 0.14867 0.47906 0.44144 0.0
Mg439 Mg 0.11866 0.47424 0.52177 0.0
Mg440 Mg 0.16309 0.52926 0.42157 0.0
O441 O 0.17286 0.57794 0.39944 0.0
Mg442 Mg 0.13413 0.58486 0.37935 0.0
Mg443 Mg 0.21021 0.59255 0.33133 0.0
C444 C 0.2084 0.51136 0.31162 0.0
C445 C 0.24436 0.58182 0.46115 0.0
O446 O 0.1054 0.41718 0.52937 0.0
O447 O 0.14724 0.40915 0.48048 0.0
O448 O 0.16512 0.48816 0.59491 0.0
O449 O 0.20939 0.4905 0.53331 0.0
O450 O 0.20483 0.48584 0.349 0.0
O451 O 0.19533 0.531 0.32888 0.0
C452 C 0.08271 0.47626 0.38172 0.0
O453 O 0.11196 0.5032 0.36426 0.0
O454 O 0.07806 0.4616 0.43965 0.0
O455 O 0.21638 0.64839 0.36139 0.0
O456 O 0.16471 0.63955 0.40506 0.0
O457 O 0.17597 0.5851 0.24501 0.0
C458 C 0.19754 0.65942 0.39266 0.0
O459 O 0.12367 0.57709 0.27235 0.0
O460 O 0.10063 0.5437 0.45037 0.0
C461 C 0.14612 0.57946 0.22809 0.0
O462 O 0.13381 0.53236 0.51454 0.0
O463 O 0.21647 0.55288 0.47642 0.0
O464 O 0.24526 0.60072 0.41261 0.0
C465 C 0.30817 0.76654 0.92277 0.0
C466 C 0.2275 0.74636 0.07854 0.0
C467 C 0.14376 0.62672 0.96286 0.0
Mg468 Mg 0.24202 0.77168 0.93621 0.0
O469 O 0.22696 0.72663 0.9002 0.0
Mg470 Mg 0.23063 0.693 0.96048 0.0
Mg471 Mg 0.17744 0.70077 0.87731 0.0
O472 O 0.12643 0.67626 0.85575 0.0
Mg473 Mg 0.10515 0.62925 0.83162 0.0
Mg474 Mg 0.13057 0.7115 0.78734 0.0
C475 C 0.20573 0.77812 0.80995 0.0
C476 C 0.1402 0.741 0.94277 0.0
O477 O 0.29057 0.73356 0.93944 0.0
O478 O 0.29516 0.7868 0.92511 0.0
O479 O 0.23095 0.72077 0.05759 0.0
O480 O 0.22641 0.76824 0.03867 0.0
O481 O 0.22465 0.79352 0.86096 0.0
O482 O 0.1892 0.74437 0.804 0.0
C483 C 0.21442 0.65844 0.81426 0.0
O484 O 0.19191 0.66803 0.80274 0.0
O485 O 0.23092 0.66575 0.869 0.0
O486 O 0.0718 0.67562 0.76803 0.0
O487 O 0.05494 0.62012 0.79921 0.0
O488 O 0.13954 0.68162 0.69781 0.0
C489 C 0.04882 0.64271 0.77139 0.0
O490 O 0.13136 0.63071 0.74068 0.0
O491 O 0.11743 0.61115 0.9236 0.0
C492 C 0.14043 0.65286 0.69265 0.0
O493 O 0.1681 0.65905 0.9546 0.0
O494 O 0.16247 0.73084 0.95056 0.0
O495 O 0.12403 0.7368 0.88694 0.0
C496 C 0.26004 0.57141 0.85748 0.0
C497 C 0.26891 0.52382 0.04454 0.0
C498 C 0.40301 0.56748 0.97777 0.0
Mg499 Mg 0.26072 0.5042 0.89584 0.0
O500 O 0.30868 0.53811 0.87521 0.0
Mg501 Mg 0.3321 0.57853 0.9358 0.0
Mg502 Mg 0.34134 0.51915 0.87216 0.0
O503 O 0.37035 0.49599 0.87119 0.0
Mg504 Mg 0.41864 0.5209 0.87144 0.0
Mg505 Mg 0.34702 0.46496 0.79258 0.0
C506 C 0.27681 0.47164 0.78556 0.0
C507 C 0.29929 0.43937 0.93035 0.0
O508 O 0.2895 0.58989 0.88821 0.0
O509 O 0.24398 0.53766 0.8541 0.0
O510 O 0.29644 0.55208 0.02702 0.0
O511 O 0.25146 0.49942 0.00246 0.0
O512 O 0.2634 0.462 0.844 0.0
O513 O 0.3104 0.48759 0.77921 0.0
C514 C 0.38813 0.60028 0.81537 0.0
O515 O 0.3831 0.56882 0.81191 0.0
O516 O 0.36838 0.60747 0.85129 0.0
O517 O 0.38486 0.44451 0.80215 0.0
O518 O 0.43288 0.48047 0.86001 0.0
O519 O 0.38791 0.50639 0.7164 0.0
C520 C 0.41495 0.45267 0.82458 0.0
O521 O 0.43278 0.54565 0.77775 0.0
O522 O 0.42233 0.55593 0.95184 0.0
C523 C 0.4179 0.53463 0.72154 0.0
O524 O 0.3708 0.55527 0.96044 0.0
O525 O 0.30574 0.47113 0.93932 0.0
O526 O 0.3108 0.43019 0.87847 0.0
C527 C 0.48433 0.73393 0.89599 0.0
C528 C 0.53319 0.81234 0.06288 0.0
C529 C 0.47346 0.8814 -0.01503 0.0
Mg530 Mg 0.54749 0.80872 0.91198 0.0
O531 O 0.50916 0.81598 0.89008 0.0
Mg532 Mg 0.47069 0.80009 0.95623 0.0
Mg533 Mg 0.51927 0.8654 0.87231 0.0
O534 O 0.53393 0.91606 0.85843 0.0
Mg535 Mg 0.50305 0.93299 0.85659 0.0
Mg536 Mg 0.5653 0.92336 0.77983 0.0
C537 C 0.56764 0.84911 0.78868 0.0
C538 C 0.59814 0.91731 0.92055 0.0
O539 O 0.46507 0.74471 0.92626 0.0
O540 O 0.5172 0.75405 0.88427 0.0
O541 O 0.50345 0.80661 0.04492 0.0
O542 O 0.55625 0.81547 0.0194 0.0
O543 O 0.58176 0.85188 0.84531 0.0
O544 O 0.55056 0.86529 0.77981 0.0
C545 C 0.43968 0.81399 0.82458 0.0
O546 O 0.46772 0.84346 0.81351 0.0
O547 O 0.43759 0.79345 0.8712 0.0
O548 O 0.5791 0.98022 0.77907 0.0
O549 O 0.53799 0.98869 0.8295 0.0
O550 O 0.51938 0.91218 0.70655 0.0
C551 C 0.56709 1.00026 0.79667 0.0
O552 O 0.47472 0.90875 0.7693 0.0
O553 O 0.47871 0.90919 0.95319 0.0
C554 C 0.48778 0.90637 0.71303 0.0
O555 O 0.48466 0.86103 0.96223 0.0
O556 O 0.56866 0.88981 0.93433 0.0
O557 O 0.60426 0.93347 0.86391 0.0
C558 C 0.13681 0.1456 0.81319 0.0
C559 C 0.10045 0.13232 0.81021 0.0
C560 C 0.14994 0.12455 0.83739 0.0
C561 C 0.1269 0.0892 0.85557 0.0
H562 H 0.15503 0.17112 0.79163 0.0
H563 H 0.17756 0.13367 0.82934 0.0
S564 S 0.0315 0.04904 0.88753 0.0
N565 N 0.04298 0.08701 0.85049 0.0
N566 N 0.06793 0.04742 0.89439 0.0
C567 C 0.09164 0.07924 0.86784 0.0
C568 C 0.07807 0.10029 0.84291 0.0
C569 C 0.9316 0.06185 0.84704 0.0
C570 C 0.92759 0.09077 0.83006 0.0
C571 C 0.9112 0.02886 0.81662 0.0
C572 C 0.88435 0.02287 0.77234 0.0
H573 H 0.95434 0.06621 0.87478 0.0
H574 H 0.91757 0.00837 0.82535 0.0
S575 S 0.85514 0.08603 0.73071 0.0
N576 N 0.88973 0.10888 0.77825 0.0
N577 N 0.84933 0.04577 0.72591 0.0
C578 C 0.87596 0.04953 0.76474 0.0
C579 C 0.89764 0.08361 0.7938 0.0
C580 C 0.97131 0.94964 0.82226 0.0
C581 C 0.94503 0.91404 0.81507 0.0
C582 C 0.00234 0.96378 0.78345 0.0
C583 C 0.00911 0.94232 0.73981 0.0
H584 H 0.96541 0.96776 0.84917 0.0
H585 H 0.02078 0.9918 0.78656 0.0
S586 S 0.95428 0.8452 0.72246 0.0
N587 N 0.93173 0.85628 0.77453 0.0
N588 N 0.99066 0.8823 0.7041 0.0
C589 C 0.98572 0.90572 0.7414 0.0
C590 C 0.95403 0.89154 0.78029 0.0
C591 C 0.86759 0.90075 0.1564 0.0
C592 C 0.90412 0.91507 0.1535 0.0
C593 C 0.85273 0.92127 0.1384 0.0
C594 C 0.87426 0.95679 0.11946 0.0
H595 H 0.85085 0.87506 0.17883 0.0
H596 H 0.82536 0.91144 0.15114 0.0
S597 S 0.96905 0.00085 0.07789 0.0
N598 N 0.95972 0.96241 0.10997 0.0
N599 N 0.93164 0.00092 0.07761 0.0
C600 C 0.9094 0.9682 0.10258 0.0
C601 C 0.92466 0.94769 0.12125 0.0
C602 C 0.13123 0.00622 0.22183 0.0
C603 C 0.11941 0.02759 0.25331 0.0
C604 C 0.10799 0.97467 0.18789 0.0
C605 C 0.07221 0.96384 0.18221 0.0
H606 H 0.15875 0.01417 0.22268 0.0
H607 H 0.1182 0.95899 0.16524 0.0
S608 S 0.02825 0.01141 0.25394 0.0
N609 N 0.06927 0.03511 0.27699 0.0
N610 N 0.02671 0.9786 0.2102 0.0
C611 C 0.06038 0.98551 0.21311 0.0
C612 C 0.08358 0.01648 0.24954 0.0
C613 C 0.04202 0.0948 0.17179 0.0
C614 C 0.0672 0.13091 0.17545 0.0
C615 C 0.00931 0.08142 0.20432 0.0
C616 C 0.00051 0.10388 0.23993 0.0
H617 H 0.04933 0.07631 0.1513 0.0
H618 H 0.99119 0.05327 0.20287 0.0
S619 S 0.05482 0.20148 0.25152 0.0
N620 N 0.07919 0.18939 0.20754 0.0
N621 N 0.01776 0.1647 0.26796 0.0
C622 C 0.02398 0.14052 0.2368 0.0
C623 C 0.05702 0.15398 0.20334 0.0
C624 C 0.8218 0.46273 0.17701 0.0
C625 C 0.80081 0.42753 0.19816 0.0
C626 C 0.80614 0.48144 0.1528 0.0
C627 C 0.76945 0.46648 0.15504 0.0
H628 H 0.84935 0.47292 0.16545 0.0
H629 H 0.82257 0.50641 0.12758 0.0
S630 S 0.70759 0.38628 0.25079 0.0
N631 N 0.7448 0.38581 0.24914 0.0
N632 N 0.71537 0.42214 0.20937 0.0
C633 C 0.74981 0.43568 0.19322 0.0
C634 C 0.76589 0.41656 0.21624 0.0
C635 C 0.56477 0.42067 0.10283 0.0
C636 C 0.58719 0.42463 0.15604 0.0
C637 C 0.54356 0.38766 0.07228 0.0
C638 C 0.54274 0.35735 0.09669 0.0
H639 H 0.56685 0.44372 0.07922 0.0
H640 H 0.52932 0.38621 0.02747 0.0
S641 S 0.5844 0.35156 0.25264 0.0
N642 N 0.59966 0.39424 0.24267 0.0
N643 N 0.5578 0.33179 0.18917 0.0
C644 C 0.56 0.36009 0.15716 0.0
C645 C 0.58232 0.39379 0.18665 0.0
C646 C 0.65717 0.25599 0.10587 0.0
C647 C 0.67716 0.29132 0.08334 0.0
C648 C 0.62469 0.24358 0.13866 0.0
C649 C 0.61094 0.26596 0.14895 0.0
H650 H 0.66551 0.23706 0.09455 0.0
H651 H 0.60823 0.2154 0.14592 0.0
S652 S 0.65502 0.36164 0.11233 0.0
N653 N 0.6827 0.34942 0.08366 0.0
N654 N 0.62259 0.32621 0.14824 0.0
C655 C 0.63348 0.30245 0.13843 0.0
C656 C 0.66579 0.31491 0.1024 0.0
C657 C 0.57361 0.29924 0.4276 0.0
C658 C 0.53891 0.28929 0.44577 0.0
C659 C 0.58785 0.27864 0.44776 0.0
C660 C 0.56692 0.2464 0.48126 0.0
H661 H 0.59149 0.32596 0.41081 0.0
H662 H 0.61584 0.28924 0.44182 0.0
S663 S 0.47089 0.20194 0.50907 0.0
N664 N 0.48158 0.24078 0.47698 0.0
N665 N 0.50766 0.20068 0.51139 0.0
C666 C 0.53054 0.23262 0.48418 0.0
C667 C 0.51638 0.25411 0.46487 0.0
C668 C 0.79969 0.34255 0.55023 0.0
C669 C 0.78852 0.36133 0.59268 0.0
C670 C 0.77547 0.31179 0.5154 0.0
C671 C 0.73924 0.29956 0.51907 0.0
H672 H 0.82739 0.35208 0.54262 0.0
H673 H 0.78525 0.29819 0.4838 0.0
S674 S 0.69637 0.33903 0.62512 0.0
N675 N 0.73832 0.36311 0.64099 0.0
N676 N 0.69399 0.31012 0.56888 0.0
C677 C 0.72803 0.3185 0.56152 0.0
C678 C 0.75227 0.34793 0.60016 0.0
C679 C 0.72489 0.48478 0.53936 0.0
C680 C 0.73594 0.46322 0.50742 0.0
C681 C 0.69201 0.47007 0.57097 0.0
C682 C 0.66843 0.43345 0.56936 0.0
H683 H 0.74347 0.51241 0.54845 0.0
H684 H 0.68558 0.48747 0.59908 0.0
S685 S 0.68049 0.36814 0.46949 0.0
N686 N 0.71834 0.40528 0.46171 0.0
N687 N 0.65518 0.37754 0.51752 0.0
C688 C 0.67729 0.41244 0.52891 0.0
C689 C 0.71113 0.42752 0.4976 0.0
C690 C 0.48391 0.79473 0.49977 0.0
C691 C 0.46211 0.75935 0.51905 0.0
C692 C 0.46933 0.81422 0.47454 0.0
C693 C 0.43272 0.79945 0.47214 0.0
H694 H 0.51172 0.80489 0.49155 0.0
H695 H 0.48669 0.83971 0.45194 0.0
S696 S 0.36667 0.71604 0.55348 0.0
N697 N 0.40403 0.71617 0.55958 0.0
N698 N 0.37634 0.75316 0.51494 0.0
C699 C 0.41153 0.76761 0.50633 0.0
C700 C 0.42659 0.74804 0.53187 0.0
C701 C 0.23113 0.75487 0.44502 0.0
C702 C 0.2571 0.76047 0.49183 0.0
C703 C 0.21094 0.72182 0.41361 0.0
C704 C 0.21558 0.69329 0.42958 0.0
H705 H 0.22994 0.77719 0.42535 0.0
H706 H 0.19347 0.71929 0.37369 0.0
S707 S 0.26988 0.69081 0.56688 0.0
N708 N 0.27888 0.73224 0.56535 0.0
N709 N 0.24072 0.67017 0.50768 0.0
C710 C 0.23689 0.69705 0.48423 0.0
C711 C 0.25711 0.73048 0.51619 0.0
C712 C 0.30555 0.62393 0.48005 0.0
C713 C 0.27935 0.5881 0.4764 0.0
C714 C 0.33657 0.63705 0.44145 0.0
C715 C 0.34349 0.61447 0.40155 0.0
H716 H 0.29962 0.64273 0.50395 0.0
H717 H 0.35491 0.66515 0.44177 0.0
S718 S 0.28873 0.51689 0.39413 0.0
N719 N 0.26615 0.52936 0.44298 0.0
N720 N 0.32503 0.5535 0.37303 0.0
C721 C 0.32006 0.57792 0.40655 0.0
C722 C 0.28835 0.56476 0.44517 0.0
C723 C 0.26616 0.621 0.78625 0.0
C724 C 0.24453 0.58956 0.82165 0.0
C725 C 0.25231 0.64092 0.75976 0.0
C726 C 0.21742 0.63178 0.77448 0.0
H727 H 0.29411 0.63107 0.78184 0.0
H728 H 0.27036 0.66688 0.73984 0.0
S729 S 0.14797 0.54612 0.8417 0.0
N730 N 0.18452 0.54489 0.85011 0.0
N731 N 0.15952 0.58414 0.80489 0.0
C732 C 0.19451 0.59717 0.79622 0.0
C733 C 0.20813 0.57618 0.82151 0.0
C734 C 0.44797 0.63697 0.85414 0.0
C735 C 0.42321 0.63131 0.80451 0.0
C736 C 0.46899 0.67057 0.88276 0.0
C737 C 0.46663 0.69961 0.8607 0.0
H738 H 0.4478 0.61467 0.87729 0.0
H739 H 0.48527 0.6733 0.92507 0.0
S740 S 0.41689 0.7012 0.71441 0.0
N741 N 0.40495 0.65917 0.72279 0.0
N742 N 0.44538 0.72253 0.77425 0.0
C743 C 0.44665 0.69536 0.80361 0.0
C744 C 0.42514 0.66121 0.77522 0.0
C745 C 0.39675 0.83115 0.84588 0.0
C746 C 0.40537 0.80902 0.80851 0.0
C747 C 0.36569 0.81694 0.88452 0.0
C748 C 0.34155 0.78042 0.88449 0.0
H749 H 0.41639 0.85851 0.85419 0.0
H750 H 0.36126 0.83448 0.9168 0.0
S751 S 0.3459 0.71459 0.77185 0.0
N752 N 0.3832 0.75149 0.75745 0.0
N753 N 0.32417 0.72445 0.82848 0.0
C754 C 0.34725 0.7593 0.83795 0.0
C755 C 0.3788 0.77401 0.79846 0.0
C756 C 0.22937 0.11772 0.56356 0.0
C757 C 0.20879 0.12241 0.6128 0.0
C758 C 0.23477 0.13316 0.50019 0.0
C759 C 0.21907 0.15312 0.48416 0.0
H760 H 0.24002 0.10065 0.57316 0.0
H761 H 0.24827 0.12637 0.4619 0.0
S762 S 0.16928 0.17911 0.60194 0.0
N763 N 0.1778 0.15283 0.64679 0.0
N764 N 0.1874 0.18197 0.52679 0.0
C765 C 0.20179 0.16123 0.53598 0.0
C766 C 0.19648 0.14553 0.60065 0.0
C767 C 0.8984 0.13037 0.57063 0.0
C768 C 0.92903 0.13355 0.59877 0.0
C769 C 0.8824 0.10849 0.51594 0.0
C770 C 0.89613 0.08862 0.48753 0.0
H771 H 0.88731 0.14616 0.58871 0.0
H772 H 0.86037 0.10871 0.49327 0.0
S773 S 0.97265 0.08337 0.54681 0.0
N774 N 0.97011 0.11198 0.59801 0.0
N775 N 0.93991 0.07045 0.49427 0.0
C776 C 0.92502 0.08923 0.51783 0.0
C777 C 0.94165 0.11197 0.57351 0.0
C778 C 0.88681 0.81838 0.53894 0.0
C779 C 0.89288 0.84783 0.57804 0.0
C780 C 0.90233 0.82231 0.47529 0.0
C781 C 0.92516 0.85588 0.44849 0.0
H782 H 0.86914 0.79186 0.55697 0.0
H783 H 0.89603 0.79875 0.44659 0.0
S784 S 0.95147 0.9416 0.53276 0.0
N785 N 0.9242 0.91164 0.58715 0.0
N786 N 0.95411 0.91943 0.4672 0.0
C787 C 0.93236 0.88572 0.48792 0.0
C788 C 0.91595 0.8816 0.55269 0.0
C789 C 0.12242 0.24825 0.88937 0.0
C790 C 0.08634 0.23611 0.89947 0.0
C791 C 0.14105 0.23967 0.93394 0.0
C792 C 0.12457 0.21925 -0.00866 0.0
H793 H 0.13703 0.26603 0.84835 0.0
H794 H 0.16918 0.252 0.92671 0.0
S795 S 0.02974 0.17515 0.03496 0.0
N796 N 0.03394 0.19799 0.96628 0.0
N797 N 0.06942 0.18249 0.05087 0.0
C798 C 0.08805 0.20421 -0.00105 0.0
C799 C 0.06885 0.21268 0.95315 0.0
C800 C 0.762 0.93583 0.94625 0.0
C801 C 0.79436 0.95811 0.97604 0.0
C802 C 0.75771 0.90853 0.90343 0.0
C803 C 0.78558 0.90245 0.88953 0.0
H804 H 0.73912 0.9377 0.96052 0.0
H805 H 0.73194 0.89099 0.88359 0.0
S806 S 0.87745 0.95861 0.94299 0.0
N807 N 0.85599 0.97612 0.9808 0.0
N808 N 0.84812 0.92464 0.89948 0.0
C809 C 0.81888 0.92646 0.91436 0.0
C810 C 0.82322 0.95443 0.95785 0.0
C811 C 0.14513 0.94378 0.93397 0.0
C812 C 0.1406 0.92738 0.87084 0.0
C813 C 0.12723 0.92434 -0.00907 0.0
C814 C 0.10441 0.88767 -0.01271 0.0
H815 H 0.16041 0.97218 0.93891 0.0
H816 H 0.13035 0.93849 0.03775 0.0
S817 S 0.0903 0.83091 0.83799 0.0
N818 N 0.11654 0.87147 0.81046 0.0
N819 N 0.08287 0.83481 0.91863 0.0
C820 C 0.10214 0.87039 0.92616 0.0
C821 C 0.12053 0.89025 0.86784 0.0
C822 C 0.77624 0.91695 0.48401 0.0
C823 C 0.8059 0.91483 0.5009 0.0
C824 C 0.77342 0.92804 0.42002 0.0
C825 C 0.80034 0.93775 0.37166 0.0
H826 H 0.75595 0.91184 0.5213 0.0
H827 H 0.75108 0.93114 0.4097 0.0
S828 S 0.87958 0.92995 0.38474 0.0
N829 N 0.85987 0.91762 0.45925 0.0
N830 N 0.85468 0.93993 0.33987 0.0
C831 C 0.82865 0.93315 0.3855 0.0
C832 C 0.83132 0.92114 0.45002 0.0
C833 C 0.06309 0.93865 0.39717 0.0
C834 C 0.08531 0.93367 0.35255 0.0
C835 C 0.07609 0.95752 0.45692 0.0
C836 C 0.11148 0.97165 0.47337 0.0
H837 H 0.03518 0.92566 0.38881 0.0
H838 H 0.05781 0.95854 0.49298 0.0
S839 S 0.18205 0.97408 0.36659 0.0
N840 N 0.1461 0.9513 0.32264 0.0
N841 N 0.16951 0.98499 0.43731 0.0
C842 C 0.13462 0.97028 0.42651 0.0
C843 C 0.12174 0.95184 0.36505 0.0
C844 C 0.10918 0.1831 0.42577 0.0
C845 C 0.13 0.21619 0.39564 0.0
C846 C 0.09331 0.18025 0.48894 0.0
C847 C 0.09836 0.21044 0.52446 0.0
H848 H 0.10473 0.15931 0.40006 0.0
H849 H 0.07755 0.15421 0.51072 0.0
S850 S 0.15105 0.30316 0.46757 0.0
N851 N 0.15506 0.27983 0.40579 0.0
N852 N 0.12556 0.27424 0.52515 0.0
C853 C 0.11931 0.24365 0.49508 0.0
C854 C 0.13502 0.24657 0.43041 0.0
C855 C 0.94019 0.833 0.01611 0.0
C856 C 0.92436 0.81108 0.07243 0.0
C857 C 0.92005 0.83855 0.96942 0.0
C858 C 0.88338 0.82254 0.97733 0.0
H859 H 0.96809 0.84488 0.00645 0.0
H860 H 0.93305 0.85386 0.92466 0.0
S861 S 0.82933 0.76539 0.11876 0.0
N862 N 0.86966 0.77508 0.13542 0.0
N863 N 0.83242 0.78628 0.04809 0.0
C864 C 0.86755 0.80273 0.03567 0.0
C865 C 0.88784 0.79662 0.08283 0.0
C866 C 0.23834 0.12181 0.09224 0.0
C867 C 0.21499 0.13472 0.09909 0.0
C868 C 0.23074 0.09322 0.05001 0.0
C869 C 0.19982 0.07717 0.0129 0.0
H870 H 0.26394 0.13577 0.11485 0.0
H871 H 0.25128 0.08705 0.03923 0.0
S872 S 0.12489 0.09241 0.03292 0.0
N873 N 0.15568 0.12293 0.08034 0.0
N874 N 0.14194 0.06956 -0.00064 0.0
C875 C 0.17404 0.0861 0.02771 0.0
C876 C 0.18162 0.11511 0.07088 0.0
C877 C 0.8898 0.13229 0.96635 0.0
C878 C 0.91056 0.16919 0.97234 0.0
C879 C 0.87203 0.11122 0.02206 0.0
C880 C 0.87432 0.12637 0.0858 0.0
H881 H 0.88836 0.11939 0.91876 0.0
H882 H 0.85851 0.08283 0.01582 0.0
S883 S 0.91885 0.22226 0.12448 0.0
N884 N 0.92811 0.22038 0.04403 0.0
N885 N 0.89418 0.18091 0.14926 0.0
C886 C 0.89235 0.1635 0.09101 0.0
C887 C 0.91085 0.18489 0.0343 0.0
C888 C 0.90549 0.46354 0.90566 0.0
C889 C 0.87982 0.46063 0.95226 0.0
C890 C 0.90838 0.47812 0.84217 0.0
C891 C 0.88542 0.48991 0.82386 0.0
H892 H 0.92183 0.45232 0.91678 0.0
H893 H 0.92624 0.47684 0.80546 0.0
S894 S 0.82045 0.49655 0.93673 0.0
N895 N 0.83589 0.47627 0.98244 0.0
N896 N 0.8417 0.50511 0.86355 0.0
C897 C 0.86302 0.49158 0.87412 0.0
C898 C 0.85979 0.47613 0.93828 0.0
C899 C 0.5493 0.4368 0.85158 0.0
C900 C 0.56421 0.41818 0.82236 0.0
C901 C 0.56476 0.45878 0.90647 0.0
C902 C 0.59608 0.46336 0.93404 0.0
H903 H 0.52678 0.4361 0.82916 0.0
H904 H 0.55277 0.47369 0.92479 0.0
S905 S 0.64183 0.41522 0.88193 0.0
N906 N 0.6091 0.4016 0.82912 0.0
N907 N 0.63843 0.44333 0.93322 0.0
C908 C 0.60955 0.44246 0.90872 0.0
C909 C 0.59343 0.41962 0.85279 0.0
C910 C 0.58981 0.22032 0.80979 0.0
C911 C 0.59044 0.19148 0.77903 0.0
C912 C 0.57462 0.21721 0.87413 0.0
C913 C 0.56046 0.18543 0.9102 0.0
H914 H 0.60008 0.24508 0.78304 0.0
H915 H 0.57398 0.23972 0.89564 0.0
S916 S 0.5574 0.10278 0.85214 0.0
N917 N 0.57673 0.13082 0.78951 0.0
N918 N 0.5487 0.12465 0.91019 0.0
C919 C 0.56183 0.15671 0.88016 0.0
C920 C 0.57672 0.15981 0.81464 0.0
C921 C 0.78818 0.57935 0.22745 0.0
C922 C 0.75254 0.5691 0.23819 0.0
C923 C 0.80655 0.57123 0.27366 0.0
C924 C 0.79036 0.55323 0.33353 0.0
H925 H 0.80271 0.59517 0.18417 0.0
H926 H 0.83441 0.58197 0.26511 0.0
S927 S 0.69652 0.51525 0.38165 0.0
N928 N 0.70073 0.53564 0.30962 0.0
N929 N 0.73573 0.52124 0.39744 0.0
C930 C 0.75419 0.54034 0.34268 0.0
C931 C 0.73523 0.54823 0.29507 0.0
C932 C 0.49244 0.28572 0.29627 0.0
C933 C 0.46936 0.29889 0.30076 0.0
C934 C 0.48576 0.2576 0.25354 0.0
C935 C 0.45571 0.24193 0.21355 0.0
H936 H 0.51415 0.2953 0.33006 0.0
H937 H 0.5033 0.24705 0.25471 0.0
S938 S 0.39052 0.2715 0.19925 0.0
N939 N 0.4183 0.29802 0.25602 0.0
N940 N 0.4053 0.24514 0.17464 0.0
C941 C 0.43453 0.2576 0.21237 0.0
C942 C 0.44161 0.28633 0.25593 0.0
C943 C 0.79436 0.25848 0.32468 0.0
C944 C 0.76952 0.2222 0.32175 0.0
C945 C 0.81177 0.2774 0.267 0.0
C946 C 0.80465 0.261 0.20365 0.0
H947 H 0.79956 0.27298 0.3716 0.0
H948 H 0.82867 0.30564 0.27185 0.0
S949 S 0.74889 0.16494 0.17111 0.0
N950 N 0.74371 0.16925 0.25261 0.0
N951 N 0.77634 0.20508 0.14298 0.0
C952 C 0.78272 0.22403 0.20085 0.0
C953 C 0.7649 0.20463 0.26004 0.0
C954 C 0.43793 0.26273 0.74522 0.0
C955 C 0.464 0.26822 0.69724 0.0
C956 C 0.43812 0.25017 0.80943 0.0
C957 C 0.46432 0.24258 0.82683 0.0
H958 H 0.41864 0.27034 0.73445 0.0
H959 H 0.41935 0.24906 0.8468 0.0
S960 S 0.53285 0.24441 0.71128 0.0
N961 N 0.51277 0.26007 0.66587 0.0
N962 N 0.51274 0.23483 0.78572 0.0
C963 C 0.48802 0.24412 0.77595 0.0
C964 C 0.48814 0.25764 0.71123 0.0
C965 C 0.73844 0.29375 0.79308 0.0
C966 C 0.77397 0.30932 0.80955 0.0
C967 C 0.72619 0.27539 0.73254 0.0
C968 C 0.74928 0.2721 0.68735 0.0
H969 H 0.71961 0.29337 0.82954 0.0
H970 H 0.69827 0.26137 0.72399 0.0
S971 S 0.84626 0.31589 0.70228 0.0
N972 N 0.83278 0.32554 0.77331 0.0
N973 N 0.81066 0.29227 0.65785 0.0
C974 C 0.78565 0.29146 0.70028 0.0
C975 C 0.79782 0.30967 0.76223 0.0
C976 C 0.78747 0.57121 0.83798 0.0
C977 C 0.76278 0.53766 0.86269 0.0
C978 C 0.80295 0.57523 0.77405 0.0
C979 C 0.79478 0.54582 0.73305 0.0
H980 H 0.79495 0.59459 0.86822 0.0
H981 H 0.82199 0.60155 0.75706 0.0
S982 S 0.73079 0.45244 0.77219 0.0
N983 N 0.73016 0.47442 0.83979 0.0
N984 N 0.75939 0.48242 0.71949 0.0
C985 C 0.76988 0.51223 0.7564 0.0
C986 C 0.75379 0.50804 0.82125 0.0
C987 C 0.58952 0.17975 0.3104 0.0
C988 C 0.55271 0.16361 0.31599 0.0
C989 C 0.60875 0.17207 0.35571 0.0
C990 C 0.59193 0.14789 0.40857 0.0
H991 H 0.6034 0.19681 0.26807 0.0
H992 H 0.63679 0.1842 0.34758 0.0
S993 S 0.49638 0.10185 0.45035 0.0
N994 N 0.50072 0.12547 0.38293 0.0
N995 N 0.53625 0.11012 0.46711 0.0
C996 C 0.55532 0.13342 0.41735 0.0
C997 C 0.53592 0.14174 0.37174 0.0
C998 C 0.91211 0.46027 0.42358 0.0
C999 C 0.88676 0.47027 0.43503 0.0
C1000 C 0.90542 0.43216 0.38066 0.0
C1001 C 0.8733 0.41352 0.34768 0.0
H1002 H 0.93819 0.47598 0.44356 0.0
H1003 H 0.92697 0.42801 0.36663 0.0
S1004 S 0.79461 0.42128 0.38007 0.0
N1005 N 0.82546 0.45343 0.42465 0.0
N1006 N 0.81333 0.40104 0.342 0.0
C1007 C 0.84624 0.41997 0.36632 0.0
C1008 C 0.85291 0.44846 0.41032 0.0
C1009 C 0.57098 0.49748 0.42598 0.0
C1010 C 0.54426 0.46178 0.42169 0.0
C1011 C 0.5873 0.5174 0.36826 0.0
C1012 C 0.57711 0.5027 0.30394 0.0
H1013 H 0.58108 0.50971 0.47429 0.0
H1014 H 0.60864 0.54421 0.37432 0.0
S1015 S 0.50396 0.41267 0.26464 0.0
N1016 N 0.50513 0.41441 0.34761 0.0
N1017 N 0.53543 0.45166 0.2389 0.0
C1018 C 0.54833 0.46808 0.29871 0.0
C1019 C 0.53187 0.44777 0.35764 0.0
C1020 C 0.57034 0.79925 0.2221 0.0
C1021 C 0.54151 0.78683 0.2669 0.0
C1022 C 0.56862 0.8102 0.15712 0.0
C1023 C 0.53813 0.80942 0.13548 0.0
H1024 H 0.5935 0.79832 0.23583 0.0
H1025 H 0.59053 0.81734 0.12265 0.0
S1026 S 0.45874 0.78664 0.24127 0.0
N1027 N 0.48403 0.77915 0.29034 0.0
N1028 N 0.48072 0.80105 0.1693 0.0
C1029 C 0.51051 0.80048 0.18296 0.0
C1030 C 0.51214 0.78865 0.24845 0.0
C1031 C 0.28147 0.78666 0.22985 0.0
C1032 C 0.2609 0.79739 0.26667 0.0
C1033 C 0.26865 0.76643 0.1716 0.0
C1034 C 0.23516 0.75678 0.14846 0.0
H1035 H 0.30834 0.79582 0.24326 0.0
H1036 H 0.28615 0.76095 0.14142 0.0
S1037 S 0.1679 0.77047 0.23414 0.0
N1038 N 0.20248 0.79034 0.28262 0.0
N1039 N 0.17971 0.75399 0.1704 0.0
C1040 C 0.2131 0.76414 0.18773 0.0
C1041 C 0.22566 0.78398 0.2479 0.0
C1042 C 0.25755 0.55046 0.14684 0.0
C1043 C 0.25554 0.5208 0.11408 0.0
C1044 C 0.24224 0.54753 0.21091 0.0
C1045 C 0.22528 0.51502 0.24477 0.0
H1046 H 0.27015 0.57589 0.12196 0.0
H1047 H 0.24373 0.57075 0.23397 0.0
S1048 S 0.21511 0.43008 0.18158 0.0
N1049 N 0.23664 0.45858 0.12063 0.0
N1050 N 0.20834 0.4527 0.24102 0.0
C1051 C 0.22407 0.48541 0.21292 0.0
C1052 C 0.23909 0.48839 0.14754 0.0
C1053 C 0.41092 0.88905 0.60757 0.0
C1054 C 0.42639 0.9171 0.56127 0.0
C1055 C 0.43151 0.88362 0.65346 0.0
C1056 C 0.46819 0.90562 0.65367 0.0
H1057 H 0.38284 0.8713 0.60865 0.0
H1058 H 0.41859 0.86282 0.69058 0.0
S1059 S 0.52117 0.98353 0.54491 0.0
N1060 N 0.48052 0.96776 0.52014 0.0
N1061 N 0.51894 0.95684 0.60526 0.0
C1062 C 0.48396 0.93322 0.60691 0.0
C1063 C 0.4631 0.93921 0.56122 0.0
C1064 C 0.15814 0.5967 0.57955 0.0
C1065 C 0.12754 0.58149 0.54099 0.0
C1066 C 0.16628 0.62546 0.62168 0.0
C1067 C 0.14408 0.63971 0.62692 0.0
H1068 H 0.17482 0.58515 0.58054 0.0
H1069 H 0.18805 0.63427 0.65533 0.0
S1070 S 0.06485 0.61422 0.52774 0.0
N1071 N 0.07805 0.58657 0.50322 0.0
N1072 N 0.09368 0.64062 0.5832 0.0
C1073 C 0.1161 0.62782 0.58266 0.0
C1074 C 0.10756 0.59843 0.53985 0.0
C1075 C 0.42732 0.54 0.59705 0.0
C1076 C 0.43688 0.55519 0.66115 0.0
C1077 C 0.44417 0.55952 0.53923 0.0
C1078 C 0.4708 0.59527 0.54319 0.0
H1079 H 0.4062 0.51306 0.59125 0.0
H1080 H 0.43455 0.54691 0.49099 0.0
S1081 S 0.50944 0.6456 0.69997 0.0
N1082 N 0.47773 0.60678 0.72593 0.0
N1083 N 0.50915 0.64324 0.61701 0.0
C1084 C 0.48252 0.60979 0.60722 0.0
C1085 C 0.46548 0.58991 0.66624 0.0
C1086 C 0.11442 0.60134 0.07151 0.0
C1087 C 0.14193 0.60891 0.02552 0.0
C1088 C 0.11405 0.58858 0.1359 0.0
C1089 C 0.1411 0.58275 0.15574 0.0
H1090 H 0.0941 0.60722 0.05893 0.0
H1091 H 0.09373 0.58548 0.17144 0.0
S1092 S 0.2146 0.59118 0.0462 0.0
N1093 N 0.19373 0.6052 -0.00111 0.0
N1094 N 0.19285 0.57969 0.11892 0.0
C1095 C 0.16684 0.58689 0.107 0.0
C1096 C 0.16745 0.6006 0.04208 0.0
C1097 C 0.45228 0.6012 0.05504 0.0
C1098 C 0.41999 0.59504 0.02955 0.0
C1099 C 0.46724 0.62272 0.11065 0.0
C1100 C 0.45084 0.63934 0.14207 0.0
H1101 H 0.46533 0.58763 0.0349 0.0
H1102 H 0.49044 0.6244 0.132 0.0
S1103 S 0.37033 0.63822 0.08796 0.0
N1104 N 0.37522 0.61185 0.03443 0.0
N1105 N 0.40372 0.65294 0.13934 0.0
C1106 C 0.42081 0.63678 0.11321 0.0
C1107 C 0.40516 0.6143 0.05689 0.0
C1108 C 0.46414 0.90555 0.091 0.0
C1109 C 0.45646 0.87569 0.0516 0.0
C1110 C 0.44866 0.9023 0.15439 0.0
C1111 C 0.42455 0.86905 0.18054 0.0
H1112 H 0.48274 0.93183 0.07307 0.0
H1113 H 0.45574 0.92605 0.18311 0.0
S1114 S 0.39452 0.7826 0.09596 0.0
N1115 N 0.42278 0.81198 0.04187 0.0
N1116 N 0.39306 0.80538 0.1616 0.0
C1117 C 0.41611 0.83883 0.14117 0.0
C1118 C 0.43235 0.84225 0.07662 0.0
C1119 C 0.27329 0.50651 0.68889 0.0
C1120 C 0.25662 0.48134 0.74029 0.0
C1121 C 0.25371 0.51387 0.6439 0.0
C1122 C 0.21686 0.49652 0.64894 0.0
H1123 H 0.30147 0.51975 0.68181 0.0
H1124 H 0.26735 0.53165 0.60226 0.0
S1125 S 0.16062 0.43006 0.7768 0.0
N1126 N 0.2009 0.44025 0.79521 0.0
N1127 N 0.16467 0.45486 0.71151 0.0
C1128 C 0.20009 0.47317 0.70266 0.0
C1129 C 0.21981 0.4652 0.74779 0.0
C1130 C 0.52659 0.8027 0.70914 0.0
C1131 C 0.55509 0.8152 0.75288 0.0
C1132 C 0.51889 0.77473 0.66526 0.0
C1133 C 0.53937 0.75853 0.66335 0.0
H1134 H 0.5115 0.8159 0.70543 0.0
H1135 H 0.49903 0.76808 0.62818 0.0
S1136 S 0.61146 0.7757 0.77728 0.0
N1137 N 0.59991 0.80493 0.79945 0.0
N1138 N 0.58489 0.75219 0.71627 0.0
C1139 C 0.56466 0.76741 0.71264 0.0
C1140 C 0.57286 0.79607 0.75728 0.0
C1141 C 0.20774 0.78427 0.68575 0.0
C1142 C 0.21247 0.80006 0.74956 0.0
C1143 C 0.22458 0.80457 0.62879 0.0
C1144 C 0.24672 0.84133 0.63357 0.0
H1145 H 0.19312 0.75586 0.68015 0.0
H1146 H 0.22143 0.79111 0.58113 0.0
S1147 S 0.26082 0.89629 0.78551 0.0
N1148 N 0.23564 0.85533 0.81198 0.0
N1149 N 0.26774 0.89338 0.70423 0.0
C1150 C 0.24914 0.85783 0.69561 0.0
C1151 C 0.23163 0.83721 0.75369 0.0
C1152 C 0.20714 0.95511 0.57906 0.0
C1153 C 0.22983 0.98446 0.61803 0.0
C1154 C 0.21993 0.94464 0.52329 0.0
C1155 C 0.25571 0.96364 0.50429 0.0
H1156 H 0.17983 0.93907 0.59401 0.0
H1157 H 0.2023 0.91994 0.4988 0.0
S1158 S 0.32305 0.04817 0.57937 0.0
N1159 N 0.28766 0.03602 0.62693 0.0
N1160 N 0.31159 0.01744 0.52083 0.0
C1161 C 0.27736 0.99561 0.53806 0.0
C1162 C 0.26454 0.00562 0.59562 0.0
C1163 C 0.04923 0.31907 0.60892 0.0
C1164 C 0.06904 0.31056 0.65098 0.0
C1165 C 0.06539 0.34485 0.55885 0.0
C1166 C 0.10201 0.3632 0.54921 0.0
H1167 H 0.02108 0.30651 0.61628 0.0
H1168 H 0.04928 0.35206 0.5302 0.0
S1169 S 0.16527 0.34904 0.64477 0.0
N1170 N 0.12665 0.32044 0.67777 0.0
N1171 N 0.15746 0.36985 0.58463 0.0
C1172 C 0.12195 0.35347 0.58871 0.0
C1173 C 0.10533 0.32694 0.6396 0.0
C1174 C 0.66004 0.75475 0.63483 0.0
C1175 C 0.66645 0.76575 0.56709 0.0
C1176 C 0.6869 0.76843 0.68173 0.0
C1177 C 0.72142 0.79336 0.66261 0.0
H1178 H 0.63373 0.73608 0.65231 0.0
H1179 H 0.68038 0.75955 0.73349 0.0
S1180 S 0.75247 0.82638 0.4883 0.0
N1181 N 0.7097 0.80065 0.48161 0.0
N1182 N 0.76105 0.82553 0.56863 0.0
C1183 C 0.7284 0.80351 0.59402 0.0
C1184 C 0.70071 0.78994 0.54656 0.0
C1185 C 0.92859 0.33403 0.93438 0.0
C1186 C 0.89287 0.31549 0.95143 0.0
C1187 C 0.94158 0.324 0.87893 0.0
C1188 C 0.91952 0.2939 0.8404 0.0
H1189 H 0.9468 0.35592 0.96519 0.0
H1190 H 0.96969 0.33798 0.87034 0.0
S1191 S 0.82253 0.24159 0.85646 0.0
N1192 N 0.83455 0.2704 0.9188 0.0
N1193 N 0.85906 0.24986 0.81628 0.0
C1194 C 0.88312 0.2776 0.85266 0.0
C1195 C 0.86979 0.28861 0.90831 0.0
C1196 C 0.76973 0.65362 0.96163 0.0
C1197 C 0.73416 0.6393 0.97947 0.0
C1198 C 0.78494 0.67847 0.90901 0.0
C1199 C 0.76475 0.68911 0.87243 0.0
H1200 H 0.78617 0.64703 -0.00934 0.0
H1201 H 0.81303 0.69143 0.90068 0.0
S1202 S 0.66905 0.65359 0.89196 0.0
N1203 N 0.67834 0.63355 0.9512 0.0
N1204 N 0.70647 0.67941 0.85194 0.0
C1205 C 0.72851 0.67217 0.88609 0.0
C1206 C 0.71332 0.64753 0.9399 0.0
C1207 C 0.34367 0.08224 0.92747 0.0
C1208 C 0.33203 0.10486 0.90392 0.0
C1209 C 0.36995 0.09351 0.97581 0.0
C1210 C 0.38567 0.12783 0.00208 0.0
H1211 H 0.33184 0.05528 0.90966 0.0
H1212 H 0.37821 0.07536 -0.00768 0.0
S1213 S 0.36428 0.19708 0.96085 0.0
N1214 N 0.33847 0.16339 0.91268 0.0
N1215 N 0.38746 0.184 0.00336 0.0
C1216 C 0.37471 0.1508 0.97893 0.0
C1217 C 0.34807 0.1395 0.92979 0.0
C1218 C 0.77586 0.06868 0.39317 0.0
C1219 C 0.795 0.08962 0.33755 0.0
C1220 C 0.76699 0.08321 0.4483 0.0
C1221 C 0.77822 0.11941 0.45077 0.0
H1222 H 0.76626 0.04056 0.39255 0.0
H1223 H 0.74963 0.06574 0.48738 0.0
S1224 S 0.83236 0.18592 0.3204 0.0
N1225 N 0.827 0.14835 0.2898 0.0
N1226 N 0.81168 0.1762 0.39427 0.0
C1227 C 0.79962 0.14096 0.39735 0.0
C1228 C 0.80765 0.12592 0.34039 0.0
C1229 C 0.92999 0.70821 0.28847 0.0
C1230 C 0.94726 0.74333 0.31077 0.0
C1231 C 0.91228 0.68038 0.33356 0.0
C1232 C 0.91111 0.68626 0.40313 0.0
H1233 H 0.93082 0.70198 0.23573 0.0
H1234 H 0.90021 0.65373 0.31379 0.0
S1235 S 0.94928 0.77319 0.48738 0.0
N1236 N 0.95987 0.78278 0.40687 0.0
N1237 N 0.9264 0.72967 0.49216 0.0
C1238 C 0.92635 0.72114 0.4262 0.0
C1239 C 0.94451 0.74988 0.37983 0.0
C1240 C 0.31653 0.2621 0.4068 0.0
C1241 C 0.34632 0.29532 0.39605 0.0
C1242 C 0.29107 0.24629 0.35749 0.0
C1243 C 0.29449 0.26278 0.29496 0.0
H1244 H 0.31324 0.24776 0.45304 0.0
H1245 H 0.26866 0.22069 0.36854 0.0
S1246 S 0.36747 0.35041 0.24175 0.0
N1247 N 0.37764 0.34472 0.31828 0.0
N1248 N 0.32971 0.31473 0.22571 0.0
C1249 C 0.32388 0.2963 0.28383 0.0
C1250 C 0.3497 0.31268 0.33441 0.0
C1251 C 0.13889 0.79911 0.08407 0.0
C1252 C 0.10746 0.77616 0.11903 0.0
C1253 C 0.14983 0.78759 0.02709 0.0
C1254 C 0.12952 0.75294 0.00336 0.0
H1255 H 0.15351 0.82685 0.09704 0.0
H1256 H 0.17339 0.80621 -0.00016 0.0
S1257 S 0.0496 0.68087 0.08445 0.0
N1258 N 0.05946 0.71588 0.13143 0.0
N1259 N 0.0801 0.69442 0.02441 0.0
C1260 C 0.10008 0.729 0.04126 0.0
C1261 C 0.08912 0.74055 0.09933 0.0
C1262 C 0.30033 0.39946 0.01559 0.0
C1263 C 0.28173 0.41344 -0.0155 0.0
C1264 C 0.28392 0.37207 0.06237 0.0
C1265 C 0.24813 0.3573 0.07914 0.0
H1266 H 0.32757 0.40908 0.00209 0.0
H1267 H 0.29896 0.36108 0.08286 0.0
S1268 S 0.18825 0.38575 0.0125 0.0
N1269 N 0.22643 0.41229 0.97545 0.0
N1270 N 0.19489 0.35974 0.06231 0.0
C1271 C 0.22962 0.37233 0.05079 0.0
C1272 C 0.24661 0.40065 0.00347 0.0
C1273 C 0.62602 0.91018 0.02266 0.0
C1274 C 0.62431 0.93235 0.97416 0.0
C1275 C 0.65038 0.92392 0.07444 0.0
C1276 C 0.67384 0.96048 0.08003 0.0
H1277 H 0.60915 0.88187 0.0194 0.0
H1278 H 0.6519 0.90549 0.10816 0.0
S1279 S 0.67502 0.03014 0.9726 0.0
N1280 N 0.64469 0.99271 0.93964 0.0
N1281 N 0.69015 0.01887 0.03733 0.0
C1282 C 0.67039 0.9831 0.03466 0.0
C1283 C 0.64589 0.96897 0.98142 0.0
C1284 C 0.60632 0.65531 0.21407 0.0
C1285 C 0.58478 0.62368 0.17905 0.0
C1286 C 0.59379 0.66529 0.27055 0.0
C1287 C 0.559 0.64465 0.29313 0.0
H1288 H 0.63391 0.67116 0.20097 0.0
H1289 H 0.61165 0.68908 0.29745 0.0
S1290 S 0.48999 0.5629 0.21412 0.0
N1291 N 0.52547 0.57393 0.16753 0.0
N1292 N 0.5019 0.59375 0.27256 0.0
C1293 C 0.5362 0.61493 0.25536 0.0
C1294 C 0.54903 0.60432 0.19824 0.0
C1295 C 0.45639 0.03694 0.28382 0.0
C1296 C 0.44724 0.03244 0.21548 0.0
C1297 C 0.43729 0.01026 0.33106 0.0
C1298 C 0.40891 0.97783 0.3112 0.0
H1299 H 0.47676 0.06233 0.30174 0.0
H1300 H 0.44395 0.0155 0.38377 0.0
S1301 S 0.37677 0.95156 0.1372 0.0
N1302 N 0.40937 0.99266 0.12958 0.0
N1303 N 0.37448 0.9414 0.2178 0.0
C1304 C 0.40126 0.97194 0.24217 0.0
C1305 C 0.42017 0.99958 0.19432 0.0
C1306 C 0.05262 0.4819 0.28143 0.0
C1307 C 0.05452 0.46066 0.33181 0.0
C1308 C 0.02608 0.46771 0.23366 0.0
C1309 C 0.00067 0.43157 0.2338 0.0
H1310 H 0.07116 0.50994 0.28 0.0
H1311 H 0.02482 0.4855 0.19782 0.0
S1312 S -0.00283 0.36385 0.35035 0.0
N1313 N 0.03092 0.40126 0.37555 0.0
N1314 N 0.98126 0.37427 0.28568 0.0
C1315 C 0.00363 0.40966 0.28171 0.0
C1316 C 0.03037 0.42429 0.3309 0.0
C1317 C 0.42294 0.39406 0.69728 0.0
C1318 C 0.45725 0.41539 0.6728 0.0
C1319 C 0.41089 0.40374 0.7547 0.0
C1320 C 0.4324 0.43577 0.78846 0.0
H1321 H 0.40506 0.37002 0.67108 0.0
H1322 H 0.38352 0.38752 0.76921 0.0
S1323 S 0.52649 0.49768 0.74956 0.0
N1324 N 0.51433 0.46676 0.69121 0.0
N1325 N 0.49143 0.48626 0.79779 0.0
C1326 C 0.46787 0.45563 0.7678 0.0
C1327 C 0.48028 0.44526 0.70983 0.0
C1328 C 0.63814 0.07645 0.70186 0.0
C1329 C 0.61919 0.08652 0.6609 0.0
C1330 C 0.62138 0.0516 0.75319 0.0
C1331 C 0.58491 0.03534 0.76445 0.0
H1332 H 0.66594 0.08704 0.69274 0.0
H1333 H 0.63665 0.04295 0.78083 0.0
S1334 S 0.52425 0.05534 0.67389 0.0
N1335 N 0.563 0.08147 0.63849 0.0
N1336 N 0.53086 0.03313 0.73298 0.0
C1337 C 0.56608 0.04702 0.72657 0.0
C1338 C 0.58339 0.07294 0.67496 0.0
C1339 C 0.96239 0.57952 0.69112 0.0
C1340 C 0.96358 0.59677 0.63076 0.0
C1341 C 0.98906 0.5953 0.73836 0.0
C1342 C 0.01782 0.6293 0.72781 0.0
H1343 H 0.94087 0.55332 0.7018 0.0
H1344 H 0.98746 0.58041 0.78284 0.0
S1345 S 0.03298 0.6865 0.57896 0.0
N1346 N 0.99557 0.65021 0.56389 0.0
N1347 N 0.04561 0.68015 0.65254 0.0
C1348 C 0.01892 0.64732 0.66841 0.0
C1349 C 0.99194 0.63098 0.61987 0.0
loop_
_geom_bond_atom_site_label_1
_geom_bond_atom_site_label_2
_geom_bond_distance
_geom_bond_site_symmetry_2
_ccdc_geom_bond_type
C0 O12 1.241 . S
C0 O13 1.280 . S
C1 O14 1.277 . S
C1 O15 1.245 . S
C2 O26 1.247 . S
C2 O28 1.289 . S
Mg3 O4 1.926 . S
Mg3 O13 1.984 . S
Mg3 O15 1.988 . S
Mg3 O16 2.061 . S
O4 Mg3 1.926 . S
O4 Mg5 1.986 . S
O4 Mg6 1.917 . S
Mg5 O4 1.986 . S
Mg5 O12 2.042 . S
Mg5 O14 2.041 . S
Mg5 O20 2.038 1_545 S
Mg5 O28 2.238 1_545 S
Mg6 O4 1.917 . S
Mg6 O7 1.917 1_545 S
Mg6 O17 2.106 . S
Mg6 O19 2.079 1_545 S
Mg6 O28 2.106 1_545 S
Mg6 O29 2.079 . S
O7 Mg6 1.917 1_565 S
O7 Mg8 1.926 . S
O7 Mg9 1.986 1_565 S
Mg8 O7 1.926 . S
Mg8 O22 1.984 . S
Mg8 O25 1.988 . S
Mg8 O26 2.061 . S
Mg9 O7 1.986 1_545 S
Mg9 O17 2.238 . S
Mg9 O21 2.042 1_545 S
Mg9 O23 2.041 1_545 S
Mg9 O30 2.038 . S
C10 O16 1.247 . S
C10 O17 1.289 . S
C11 O29 1.245 . S
C11 O30 1.274 . S
O12 C0 1.241 . S
O12 Mg5 2.042 . S
O13 C0 1.280 . S
O13 Mg3 1.984 . S
O14 C1 1.277 . S
O14 Mg5 2.041 . S
O15 C1 1.245 . S
O15 Mg3 1.988 . S
O16 Mg3 2.061 . S
O16 C10 1.247 . S
O17 Mg6 2.106 . S
O17 Mg9 2.238 . S
O17 C10 1.289 . S
C18 O19 1.245 . S
C18 O20 1.274 . S
O19 Mg6 2.079 1_565 S
O19 C18 1.245 . S
O20 Mg5 2.038 1_565 S
O20 C18 1.274 . S
O21 Mg9 2.042 1_565 S
O21 C24 1.241 . S
O22 Mg8 1.984 . S
O22 C24 1.280 . S
O23 Mg9 2.041 1_565 S
O23 C27 1.277 . S
C24 O21 1.241 . S
C24 O22 1.280 . S
O25 Mg8 1.988 . S
O25 C27 1.245 . S
O26 C2 1.247 . S
O26 Mg8 2.061 . S
C27 O23 1.277 . S
C27 O25 1.245 . S
O28 C2 1.289 . S
O28 Mg5 2.238 1_565 S
O28 Mg6 2.106 1_565 S
O29 Mg6 2.079 . S
O29 C11 1.245 . S
O30 Mg9 2.038 . S
O30 C11 1.274 . S
C31 O43 1.241 . S
C31 O44 1.280 . S
C32 O45 1.277 . S
C32 O46 1.245 . S
C33 O57 1.247 . S
C33 O59 1.289 . S
Mg34 O35 1.926 . S
Mg34 O44 1.984 . S
Mg34 O46 1.988 . S
Mg34 O47 2.061 . S
O35 Mg34 1.926 . S
O35 Mg36 1.986 1_655 S
O35 Mg37 1.917 1_655 S
Mg36 O35 1.986 1_455 S
Mg36 O43 2.042 1_455 S
Mg36 O45 2.041 1_455 S
Mg36 O51 2.038 . S
Mg36 O59 2.238 . S
Mg37 O35 1.917 1_455 S
Mg37 O38 1.917 . S
Mg37 O48 2.106 1_455 S
Mg37 O50 2.079 . S
Mg37 O59 2.106 . S
Mg37 O60 2.079 1_455 S
O38 Mg37 1.917 . S
O38 Mg39 1.926 . S
O38 Mg40 1.986 . S
Mg39 O38 1.926 . S
Mg39 O53 1.984 . S
Mg39 O56 1.988 . S
Mg39 O57 2.061 . S
Mg40 O38 1.986 . S
Mg40 O48 2.238 1_455 S
Mg40 O52 2.042 . S
Mg40 O54 2.041 . S
Mg40 O61 2.038 1_455 S
C41 O47 1.247 . S
C41 O48 1.289 . S
C42 O60 1.245 . S
C42 O61 1.274 . S
O43 C31 1.241 . S
O43 Mg36 2.042 1_655 S
O44 C31 1.280 . S
O44 Mg34 1.984 . S
O45 C32 1.277 . S
O45 Mg36 2.041 1_655 S
O46 C32 1.245 . S
O46 Mg34 1.988 . S
O47 Mg34 2.061 . S
O47 C41 1.247 . S
O48 Mg37 2.106 1_655 S
O48 Mg40 2.238 1_655 S
O48 C41 1.289 . S
C49 O50 1.245 . S
C49 O51 1.274 . S
O50 Mg37 2.079 . S
O50 C49 1.245 . S
O51 Mg36 2.038 . S
O51 C49 1.274 . S
O52 Mg40 2.042 . S
O52 C55 1.241 . S
O53 Mg39 1.984 . S
O53 C55 1.280 . S
O54 Mg40 2.041 . S
O54 C58 1.277 . S
C55 O52 1.241 . S
C55 O53 1.280 . S
O56 Mg39 1.988 . S
O56 C58 1.245 . S
O57 C33 1.247 . S
O57 Mg39 2.061 . S
C58 O54 1.277 . S
C58 O56 1.245 . S
O59 C33 1.289 . S
O59 Mg36 2.238 . S
O59 Mg37 2.106 . S
O60 Mg37 2.079 1_655 S
O60 C42 1.245 . S
O61 Mg40 2.038 1_655 S
O61 C42 1.274 . S
C62 O74 1.241 . S
C62 O75 1.280 . S
C63 O76 1.277 . S
C63 O77 1.245 . S
C64 O88 1.247 . S
C64 O90 1.289 . S
Mg65 O66 1.926 . S
Mg65 O75 1.984 . S
Mg65 O77 1.988 . S
Mg65 O78 2.061 . S
O66 Mg65 1.926 . S
O66 Mg67 1.986 . S
O66 Mg68 1.917 . S
Mg67 O66 1.986 . S
Mg67 O74 2.042 . S
Mg67 O76 2.041 . S
Mg67 O82 2.038 . S
Mg67 O90 2.238 . S
Mg68 O66 1.917 . S
Mg68 O69 1.917 . S
Mg68 O79 2.106 . S
Mg68 O81 2.079 . S
Mg68 O90 2.106 . S
Mg68 O91 2.079 . S
O69 Mg68 1.917 . S
O69 Mg70 1.926 . S
O69 Mg71 1.986 . S
Mg70 O69 1.926 . S
Mg70 O84 1.984 . S
Mg70 O87 1.988 . S
Mg70 O88 2.061 . S
Mg71 O69 1.986 . S
Mg71 O79 2.238 . S
Mg71 O83 2.042 . S
Mg71 O85 2.041 . S
Mg71 O92 2.038 . S
C72 O78 1.247 . S
C72 O79 1.289 . S
C73 O91 1.245 . S
C73 O92 1.274 . S
O74 C62 1.241 . S
O74 Mg67 2.042 . S
O75 C62 1.280 . S
O75 Mg65 1.984 . S
O76 C63 1.277 . S
O76 Mg67 2.041 . S
O77 C63 1.245 . S
O77 Mg65 1.988 . S
O78 Mg65 2.061 . S
O78 C72 1.247 . S
O79 Mg68 2.106 . S
O79 Mg71 2.238 . S
O79 C72 1.289 . S
C80 O81 1.245 . S
C80 O82 1.274 . S
O81 Mg68 2.079 . S
O81 C80 1.245 . S
O82 Mg67 2.038 . S
O82 C80 1.274 . S
O83 Mg71 2.042 . S
O83 C86 1.241 . S
O84 Mg70 1.984 . S
O84 C86 1.280 . S
O85 Mg71 2.041 . S
O85 C89 1.277 . S
C86 O83 1.241 . S
C86 O84 1.280 . S
O87 Mg70 1.988 . S
O87 C89 1.245 . S
O88 C64 1.247 . S
O88 Mg70 2.061 . S
C89 O85 1.277 . S
C89 O87 1.245 . S
O90 C64 1.289 . S
O90 Mg67 2.238 . S
O90 Mg68 2.106 . S
O91 Mg68 2.079 . S
O91 C73 1.245 . S
O92 Mg71 2.038 . S
O92 C73 1.274 . S
C93 O105 1.241 . S
C93 O106 1.280 . S
C94 O107 1.277 . S
C94 O108 1.245 . S
C95 O119 1.247 . S
C95 O121 1.289 1_565 S
Mg96 O97 1.926 . S
Mg96 O106 1.984 . S
Mg96 O108 1.988 . S
Mg96 O109 2.061 . S
O97 Mg96 1.926 . S
O97 Mg98 1.986 . S
O97 Mg99 1.917 . S
Mg98 O97 1.986 . S
Mg98 O105 2.042 . S
Mg98 O107 2.041 . S
Mg98 O113 2.038 . S
Mg98 O121 2.238 . S
Mg99 O97 1.917 . S
Mg99 O100 1.917 . S
Mg99 O110 2.106 . S
Mg99 O112 2.079 . S
Mg99 O121 2.106 . S
Mg99 O122 2.079 . S
O100 Mg99 1.917 . S
O100 Mg101 1.926 1_545 S
O100 Mg102 1.986 . S
Mg101 O100 1.926 1_565 S
Mg101 O115 1.984 . S
Mg101 O118 1.988 . S
Mg101 O119 2.061 . S
Mg102 O100 1.986 . S
Mg102 O110 2.238 . S
Mg102 O114 2.042 1_545 S
Mg102 O116 2.041 1_545 S
Mg102 O123 2.038 . S
C103 O109 1.247 . S
C103 O110 1.289 . S
C104 O122 1.245 . S
C104 O123 1.274 . S
O105 C93 1.241 . S
O105 Mg98 2.042 . S
O106 C93 1.280 . S
O106 Mg96 1.984 . S
O107 C94 1.277 . S
O107 Mg98 2.041 . S
O108 C94 1.245 . S
O108 Mg96 1.988 . S
O109 Mg96 2.061 . S
O109 C103 1.247 . S
O110 Mg99 2.106 . S
O110 Mg102 2.238 . S
O110 C103 1.289 . S
C111 O112 1.245 . S
C111 O113 1.274 . S
O112 Mg99 2.079 . S
O112 C111 1.245 . S
O113 Mg98 2.038 . S
O113 C111 1.274 . S
O114 Mg102 2.042 1_565 S
O114 C117 1.241 . S
O115 Mg101 1.984 . S
O115 C117 1.280 . S
O116 Mg102 2.041 1_565 S
O116 C120 1.277 . S
C117 O114 1.241 . S
C117 O115 1.280 . S
O118 Mg101 1.988 . S
O118 C120 1.245 . S
O119 C95 1.247 . S
O119 Mg101 2.061 . S
C120 O116 1.277 . S
C120 O118 1.245 . S
O121 C95 1.289 1_545 S
O121 Mg98 2.238 . S
O121 Mg99 2.106 . S
O122 Mg99 2.079 . S
O122 C104 1.245 . S
O123 Mg102 2.038 . S
O123 C104 1.274 . S
C124 O136 1.241 . S
C124 O137 1.280 . S
C125 O138 1.277 . S
C125 O139 1.245 . S
C126 O150 1.247 . S
C126 O152 1.289 . S
Mg127 O128 1.926 . S
Mg127 O137 1.984 . S
Mg127 O139 1.988 . S
Mg127 O140 2.061 . S
O128 Mg127 1.926 . S
O128 Mg129 1.986 . S
O128 Mg130 1.917 1_655 S
Mg129 O128 1.986 . S
Mg129 O136 2.042 . S
Mg129 O138 2.041 . S
Mg129 O144 2.038 1_655 S
Mg129 O152 2.238 1_655 S
Mg130 O128 1.917 1_455 S
Mg130 O131 1.917 . S
Mg130 O141 2.106 1_455 S
Mg130 O143 2.079 . S
Mg130 O152 2.106 . S
Mg130 O153 2.079 1_455 S
O131 Mg130 1.917 . S
O131 Mg132 1.926 . S
O131 Mg133 1.986 . S
Mg132 O131 1.926 . S
Mg132 O146 1.984 . S
Mg132 O149 1.988 . S
Mg132 O150 2.061 . S
Mg133 O131 1.986 . S
Mg133 O141 2.238 1_455 S
Mg133 O145 2.042 . S
Mg133 O147 2.041 . S
Mg133 O154 2.038 1_455 S
C134 O140 1.247 . S
C134 O141 1.289 . S
C135 O153 1.245 . S
C135 O154 1.274 . S
O136 C124 1.241 . S
O136 Mg129 2.042 . S
O137 C124 1.280 . S
O137 Mg127 1.984 . S
O138 C125 1.277 . S
O138 Mg129 2.041 . S
O139 C125 1.245 . S
O139 Mg127 1.988 . S
O140 Mg127 2.061 . S
O140 C134 1.247 . S
O141 Mg130 2.106 1_655 S
O141 Mg133 2.238 1_655 S
O141 C134 1.289 . S
C142 O143 1.245 . S
C142 O144 1.274 . S
O143 Mg130 2.079 . S
O143 C142 1.245 . S
O144 Mg129 2.038 1_455 S
O144 C142 1.274 . S
O145 Mg133 2.042 . S
O145 C148 1.241 . S
O146 Mg132 1.984 . S
O146 C148 1.280 . S
O147 Mg133 2.041 . S
O147 C151 1.277 . S
C148 O145 1.241 . S
C148 O146 1.280 . S
O149 Mg132 1.988 . S
O149 C151 1.245 . S
O150 C126 1.247 . S
O150 Mg132 2.061 . S
C151 O147 1.277 . S
C151 O149 1.245 . S
O152 C126 1.289 . S
O152 Mg129 2.238 1_455 S
O152 Mg130 2.106 . S
O153 Mg130 2.079 1_655 S
O153 C135 1.245 . S
O154 Mg133 2.038 1_655 S
O154 C135 1.274 . S
C155 O167 1.241 . S
C155 O168 1.280 . S
C156 O169 1.277 . S
C156 O170 1.245 . S
C157 O181 1.247 . S
C157 O183 1.289 . S
Mg158 O159 1.926 . S
Mg158 O168 1.984 . S
Mg158 O170 1.988 . S
Mg158 O171 2.061 . S
O159 Mg158 1.926 . S
O159 Mg160 1.986 . S
O159 Mg161 1.917 . S
Mg160 O159 1.986 . S
Mg160 O167 2.042 . S
Mg160 O169 2.041 . S
Mg160 O175 2.038 . S
Mg160 O183 2.238 . S
Mg161 O159 1.917 . S
Mg161 O162 1.917 . S
Mg161 O172 2.106 . S
Mg161 O174 2.079 . S
Mg161 O183 2.106 . S
Mg161 O184 2.079 . S
O162 Mg161 1.917 . S
O162 Mg163 1.926 . S
O162 Mg164 1.986 . S
Mg163 O162 1.926 . S
Mg163 O177 1.984 . S
Mg163 O180 1.988 . S
Mg163 O181 2.061 . S
Mg164 O162 1.986 . S
Mg164 O172 2.238 . S
Mg164 O176 2.042 . S
Mg164 O178 2.041 . S
Mg164 O185 2.038 . S
C165 O171 1.247 . S
C165 O172 1.289 . S
C166 O184 1.245 . S
C166 O185 1.274 . S
O167 C155 1.241 . S
O167 Mg160 2.042 . S
O168 C155 1.280 . S
O168 Mg158 1.984 . S
O169 C156 1.277 . S
O169 Mg160 2.041 . S
O170 C156 1.245 . S
O170 Mg158 1.988 . S
O171 Mg158 2.061 . S
O171 C165 1.247 . S
O172 Mg161 2.106 . S
O172 Mg164 2.238 . S
O172 C165 1.289 . S
C173 O174 1.245 . S
C173 O175 1.274 . S
O174 Mg161 2.079 . S
O174 C173 1.245 . S
O175 Mg160 2.038 . S
O175 C173 1.274 . S
O176 Mg164 2.042 . S
O176 C179 1.241 . S
O177 Mg163 1.984 . S
O177 C179 1.280 . S
O178 Mg164 2.041 . S
O178 C182 1.277 . S
C179 O176 1.241 . S
C179 O177 1.280 . S
O180 Mg163 1.988 . S
O180 C182 1.245 . S
O181 C157 1.247 . S
O181 Mg163 2.061 . S
C182 O178 1.277 . S
C182 O180 1.245 . S
O183 C157 1.289 . S
O183 Mg160 2.238 . S
O183 Mg161 2.106 . S
O184 Mg161 2.079 . S
O184 C166 1.245 . S
O185 Mg164 2.038 . S
O185 C166 1.274 . S
C186 O198 1.241 . S
C186 O199 1.280 . S
C187 O200 1.277 . S
C187 O201 1.245 . S
C188 O212 1.247 . S
C188 O214 1.289 . S
Mg189 O190 1.926 . S
Mg189 O199 1.984 . S
Mg189 O201 1.988 . S
Mg189 O202 2.061 . S
O190 Mg189 1.926 . S
O190 Mg191 1.986 . S
O190 Mg192 1.917 . S
Mg191 O190 1.986 . S
Mg191 O198 2.042 . S
Mg191 O200 2.041 . S
Mg191 O206 2.038 . S
Mg191 O214 2.238 . S
Mg192 O190 1.917 . S
Mg192 O193 1.917 . S
Mg192 O203 2.106 1_554 S
Mg192 O205 2.079 . S
Mg192 O214 2.106 . S
Mg192 O215 2.079 . S
O193 Mg192 1.917 . S
O193 Mg194 1.926 . S
O193 Mg195 1.986 1_554 S
Mg194 O193 1.926 . S
Mg194 O208 1.984 . S
Mg194 O211 1.988 1_554 S
Mg194 O212 2.061 . S
Mg195 O193 1.986 1_556 S
Mg195 O203 2.238 . S
Mg195 O207 2.042 . S
Mg195 O209 2.041 . S
Mg195 O216 2.038 1_556 S
C196 O202 1.247 1_556 S
C196 O203 1.289 . S
C197 O215 1.245 . S
C197 O216 1.274 . S
O198 C186 1.241 . S
O198 Mg191 2.042 . S
O199 C186 1.280 . S
O199 Mg189 1.984 . S
O200 C187 1.277 . S
O200 Mg191 2.041 . S
O201 C187 1.245 . S
O201 Mg189 1.988 . S
O202 Mg189 2.061 . S
O202 C196 1.247 1_554 S
O203 Mg192 2.106 1_556 S
O203 Mg195 2.238 . S
O203 C196 1.289 . S
C204 O205 1.245 . S
C204 O206 1.274 . S
O205 Mg192 2.079 . S
O205 C204 1.245 . S
O206 Mg191 2.038 . S
O206 C204 1.274 . S
O207 Mg195 2.042 . S
O207 C210 1.241 1_556 S
O208 Mg194 1.984 . S
O208 C210 1.280 . S
O209 Mg195 2.041 . S
O209 C213 1.277 . S
C210 O207 1.241 1_554 S
C210 O208 1.280 . S
O211 Mg194 1.988 1_556 S
O211 C213 1.245 . S
O212 C188 1.247 . S
O212 Mg194 2.061 . S
C213 O209 1.277 . S
C213 O211 1.245 . S
O214 C188 1.289 . S
O214 Mg191 2.238 . S
O214 Mg192 2.106 . S
O215 Mg192 2.079 . S
O215 C197 1.245 . S
O216 Mg195 2.038 1_554 S
O216 C197 1.274 . S
C217 O229 1.241 . S
C217 O230 1.280 . S
C218 O231 1.277 . S
C218 O232 1.245 . S
C219 O243 1.247 . S
C219 O245 1.289 . S
Mg220 O221 1.926 . S
Mg220 O230 1.984 . S
Mg220 O232 1.988 . S
Mg220 O233 2.061 . S
O221 Mg220 1.926 . S
O221 Mg222 1.986 . S
O221 Mg223 1.917 . S
Mg222 O221 1.986 . S
Mg222 O229 2.042 . S
Mg222 O231 2.041 . S
Mg222 O237 2.038 . S
Mg222 O245 2.238 . S
Mg223 O221 1.917 . S
Mg223 O224 1.917 . S
Mg223 O234 2.106 1_554 S
Mg223 O236 2.079 . S
Mg223 O245 2.106 . S
Mg223 O246 2.079 . S
O224 Mg223 1.917 . S
O224 Mg225 1.926 . S
O224 Mg226 1.986 1_554 S
Mg225 O224 1.926 . S
Mg225 O239 1.984 . S
Mg225 O242 1.988 1_554 S
Mg225 O243 2.061 . S
Mg226 O224 1.986 1_556 S
Mg226 O234 2.238 . S
Mg226 O238 2.042 . S
Mg226 O240 2.041 . S
Mg226 O247 2.038 1_556 S
C227 O233 1.247 1_556 S
C227 O234 1.289 . S
C228 O246 1.245 . S
C228 O247 1.274 . S
O229 C217 1.241 . S
O229 Mg222 2.042 . S
O230 C217 1.280 . S
O230 Mg220 1.984 . S
O231 C218 1.277 . S
O231 Mg222 2.041 . S
O232 C218 1.245 . S
O232 Mg220 1.988 . S
O233 Mg220 2.061 . S
O233 C227 1.247 1_554 S
O234 Mg223 2.106 1_556 S
O234 Mg226 2.238 . S
O234 C227 1.289 . S
C235 O236 1.245 . S
C235 O237 1.274 . S
O236 Mg223 2.079 . S
O236 C235 1.245 . S
O237 Mg222 2.038 . S
O237 C235 1.274 . S
O238 Mg226 2.042 . S
O238 C241 1.241 1_556 S
O239 Mg225 1.984 . S
O239 C241 1.280 . S
O240 Mg226 2.041 . S
O240 C244 1.277 . S
C241 O238 1.241 1_554 S
C241 O239 1.280 . S
O242 Mg225 1.988 1_556 S
O242 C244 1.245 . S
O243 C219 1.247 . S
O243 Mg225 2.061 . S
C244 O240 1.277 . S
C244 O242 1.245 . S
O245 C219 1.289 . S
O245 Mg222 2.238 . S
O245 Mg223 2.106 . S
O246 Mg223 2.079 . S
O246 C228 1.245 . S
O247 Mg226 2.038 1_554 S
O247 C228 1.274 . S
C248 O260 1.241 . S
C248 O261 1.280 . S
C249 O262 1.277 . S
C249 O263 1.245 . S
C250 O274 1.247 . S
C250 O276 1.289 . S
Mg251 O252 1.926 . S
Mg251 O261 1.984 . S
Mg251 O263 1.988 . S
Mg251 O264 2.061 . S
O252 Mg251 1.926 . S
O252 Mg253 1.986 . S
O252 Mg254 1.917 . S
Mg253 O252 1.986 . S
Mg253 O260 2.042 . S
Mg253 O262 2.041 . S
Mg253 O268 2.038 . S
Mg253 O276 2.238 . S
Mg254 O252 1.917 . S
Mg254 O255 1.917 . S
Mg254 O265 2.106 1_554 S
Mg254 O267 2.079 . S
Mg254 O276 2.106 . S
Mg254 O277 2.079 . S
O255 Mg254 1.917 . S
O255 Mg256 1.926 . S
O255 Mg257 1.986 1_554 S
Mg256 O255 1.926 . S
Mg256 O270 1.984 . S
Mg256 O273 1.988 1_554 S
Mg256 O274 2.061 . S
Mg257 O255 1.986 1_556 S
Mg257 O265 2.238 . S
Mg257 O269 2.042 . S
Mg257 O271 2.041 . S
Mg257 O278 2.038 1_556 S
C258 O264 1.247 1_556 S
C258 O265 1.289 . S
C259 O277 1.245 . S
C259 O278 1.274 . S
O260 C248 1.241 . S
O260 Mg253 2.042 . S
O261 C248 1.280 . S
O261 Mg251 1.984 . S
O262 C249 1.277 . S
O262 Mg253 2.041 . S
O263 C249 1.245 . S
O263 Mg251 1.988 . S
O264 Mg251 2.061 . S
O264 C258 1.247 1_554 S
O265 Mg254 2.106 1_556 S
O265 Mg257 2.238 . S
O265 C258 1.289 . S
C266 O267 1.245 . S
C266 O268 1.274 . S
O267 Mg254 2.079 . S
O267 C266 1.245 . S
O268 Mg253 2.038 . S
O268 C266 1.274 . S
O269 Mg257 2.042 . S
O269 C272 1.241 1_556 S
O270 Mg256 1.984 . S
O270 C272 1.280 . S
O271 Mg257 2.041 . S
O271 C275 1.277 . S
C272 O269 1.241 1_554 S
C272 O270 1.280 . S
O273 Mg256 1.988 1_556 S
O273 C275 1.245 . S
O274 C250 1.247 . S
O274 Mg256 2.061 . S
C275 O271 1.277 . S
C275 O273 1.245 . S
O276 C250 1.289 . S
O276 Mg253 2.238 . S
O276 Mg254 2.106 . S
O277 Mg254 2.079 . S
O277 C259 1.245 . S
O278 Mg257 2.038 1_554 S
O278 C259 1.274 . S
C279 O291 1.241 . S
C279 O292 1.280 . S
C280 O293 1.277 . S
C280 O294 1.245 . S
C281 O305 1.247 . S
C281 O307 1.289 . S
Mg282 O283 1.926 . S
Mg282 O292 1.984 . S
Mg282 O294 1.988 . S
Mg282 O295 2.061 . S
O283 Mg282 1.926 . S
O283 Mg284 1.986 . S
O283 Mg285 1.917 . S
Mg284 O283 1.986 . S
Mg284 O291 2.042 . S
Mg284 O293 2.041 . S
Mg284 O299 2.038 . S
Mg284 O307 2.238 . S
Mg285 O283 1.917 . S
Mg285 O286 1.917 . S
Mg285 O296 2.106 . S
Mg285 O298 2.079 . S
Mg285 O307 2.106 . S
Mg285 O308 2.079 . S
O286 Mg285 1.917 . S
O286 Mg287 1.926 . S
O286 Mg288 1.986 . S
Mg287 O286 1.926 . S
Mg287 O301 1.984 . S
Mg287 O304 1.988 . S
Mg287 O305 2.061 . S
Mg288 O286 1.986 . S
Mg288 O296 2.238 . S
Mg288 O300 2.042 . S
Mg288 O302 2.041 . S
Mg288 O309 2.038 . S
C289 O295 1.247 . S
C289 O296 1.289 . S
C290 O308 1.245 . S
C290 O309 1.274 . S
O291 C279 1.241 . S
O291 Mg284 2.042 . S
O292 C279 1.280 . S
O292 Mg282 1.984 . S
O293 C280 1.277 . S
O293 Mg284 2.041 . S
O294 C280 1.245 . S
O294 Mg282 1.988 . S
O295 Mg282 2.061 . S
O295 C289 1.247 . S
O296 Mg285 2.106 . S
O296 Mg288 2.238 . S
O296 C289 1.289 . S
C297 O298 1.245 . S
C297 O299 1.274 . S
O298 Mg285 2.079 . S
O298 C297 1.245 . S
O299 Mg284 2.038 . S
O299 C297 1.274 . S
O300 Mg288 2.042 . S
O300 C303 1.241 . S
O301 Mg287 1.984 . S
O301 C303 1.280 . S
O302 Mg288 2.041 . S
O302 C306 1.277 . S
C303 O300 1.241 . S
C303 O301 1.280 . S
O304 Mg287 1.988 . S
O304 C306 1.245 . S
O305 C281 1.247 . S
O305 Mg287 2.061 . S
C306 O302 1.277 . S
C306 O304 1.245 . S
O307 C281 1.289 . S
O307 Mg284 2.238 . S
O307 Mg285 2.106 . S
O308 Mg285 2.079 . S
O308 C290 1.245 . S
O309 Mg288 2.038 . S
O309 C290 1.274 . S
C310 O322 1.241 . S
C310 O323 1.280 . S
C311 O324 1.277 . S
C311 O325 1.245 . S
C312 O336 1.247 . S
C312 O338 1.289 . S
Mg313 O314 1.926 . S
Mg313 O323 1.984 . S
Mg313 O325 1.988 . S
Mg313 O326 2.061 . S
O314 Mg313 1.926 . S
O314 Mg315 1.986 . S
O314 Mg316 1.917 . S
Mg315 O314 1.986 . S
Mg315 O322 2.042 . S
Mg315 O324 2.041 . S
Mg315 O330 2.038 . S
Mg315 O338 2.238 . S
Mg316 O314 1.917 . S
Mg316 O317 1.917 . S
Mg316 O327 2.106 . S
Mg316 O329 2.079 . S
Mg316 O338 2.106 . S
Mg316 O339 2.079 . S
O317 Mg316 1.917 . S
O317 Mg318 1.926 . S
O317 Mg319 1.986 . S
Mg318 O317 1.926 . S
Mg318 O332 1.984 . S
Mg318 O335 1.988 . S
Mg318 O336 2.061 . S
Mg319 O317 1.986 . S
Mg319 O327 2.238 . S
Mg319 O331 2.042 . S
Mg319 O333 2.041 . S
Mg319 O340 2.038 . S
C320 O326 1.247 . S
C320 O327 1.289 . S
C321 O339 1.245 . S
C321 O340 1.274 . S
O322 C310 1.241 . S
O322 Mg315 2.042 . S
O323 C310 1.280 . S
O323 Mg313 1.984 . S
O324 C311 1.277 . S
O324 Mg315 2.041 . S
O325 C311 1.245 . S
O325 Mg313 1.988 . S
O326 Mg313 2.061 . S
O326 C320 1.247 . S
O327 Mg316 2.106 . S
O327 Mg319 2.238 . S
O327 C320 1.289 . S
C328 O329 1.245 . S
C328 O330 1.274 . S
O329 Mg316 2.079 . S
O329 C328 1.245 . S
O330 Mg315 2.038 . S
O330 C328 1.274 . S
O331 Mg319 2.042 . S
O331 C334 1.241 . S
O332 Mg318 1.984 . S
O332 C334 1.280 . S
O333 Mg319 2.041 . S
O333 C337 1.277 . S
C334 O331 1.241 . S
C334 O332 1.280 . S
O335 Mg318 1.988 . S
O335 C337 1.245 . S
O336 C312 1.247 . S
O336 Mg318 2.061 . S
C337 O333 1.277 . S
C337 O335 1.245 . S
O338 C312 1.289 . S
O338 Mg315 2.238 . S
O338 Mg316 2.106 . S
O339 Mg316 2.079 . S
O339 C321 1.245 . S
O340 Mg319 2.038 . S
O340 C321 1.274 . S
C341 O353 1.241 . S
C341 O354 1.280 . S
C342 O355 1.277 . S
C342 O356 1.245 . S
C343 O367 1.247 . S
C343 O369 1.289 . S
Mg344 O345 1.926 . S
Mg344 O354 1.984 . S
Mg344 O356 1.988 . S
Mg344 O357 2.061 . S
O345 Mg344 1.926 . S
O345 Mg346 1.986 . S
O345 Mg347 1.917 . S
Mg346 O345 1.986 . S
Mg346 O353 2.042 . S
Mg346 O355 2.041 . S
Mg346 O361 2.038 . S
Mg346 O369 2.238 . S
Mg347 O345 1.917 . S
Mg347 O348 1.917 . S
Mg347 O358 2.106 . S
Mg347 O360 2.079 . S
Mg347 O369 2.106 . S
Mg347 O370 2.079 . S
O348 Mg347 1.917 . S
O348 Mg349 1.926 . S
O348 Mg350 1.986 . S
Mg349 O348 1.926 . S
Mg349 O363 1.984 . S
Mg349 O366 1.988 . S
Mg349 O367 2.061 . S
Mg350 O348 1.986 . S
Mg350 O358 2.238 . S
Mg350 O362 2.042 . S
Mg350 O364 2.041 . S
Mg350 O371 2.038 . S
C351 O357 1.247 . S
C351 O358 1.289 . S
C352 O370 1.245 . S
C352 O371 1.274 . S
O353 C341 1.241 . S
O353 Mg346 2.042 . S
O354 C341 1.280 . S
O354 Mg344 1.984 . S
O355 C342 1.277 . S
O355 Mg346 2.041 . S
O356 C342 1.245 . S
O356 Mg344 1.988 . S
O357 Mg344 2.061 . S
O357 C351 1.247 . S
O358 Mg347 2.106 . S
O358 Mg350 2.238 . S
O358 C351 1.289 . S
C359 O360 1.245 . S
C359 O361 1.274 . S
O360 Mg347 2.079 . S
O360 C359 1.245 . S
O361 Mg346 2.038 . S
O361 C359 1.274 . S
O362 Mg350 2.042 . S
O362 C365 1.241 . S
O363 Mg349 1.984 . S
O363 C365 1.280 . S
O364 Mg350 2.041 . S
O364 C368 1.277 . S
C365 O362 1.241 . S
C365 O363 1.280 . S
O366 Mg349 1.988 . S
O366 C368 1.245 . S
O367 C343 1.247 . S
O367 Mg349 2.061 . S
C368 O364 1.277 . S
C368 O366 1.245 . S
O369 C343 1.289 . S
O369 Mg346 2.238 . S
O369 Mg347 2.106 . S
O370 Mg347 2.079 . S
O370 C352 1.245 . S
O371 Mg350 2.038 . S
O371 C352 1.274 . S
C372 O384 1.241 . S
C372 O385 1.280 . S
C373 O386 1.277 . S
C373 O387 1.245 . S
C374 O398 1.247 . S
C374 O400 1.289 . S
Mg375 O376 1.926 . S
Mg375 O385 1.984 . S
Mg375 O387 1.988 . S
Mg375 O388 2.061 . S
O376 Mg375 1.926 . S
O376 Mg377 1.986 . S
O376 Mg378 1.917 . S
Mg377 O376 1.986 . S
Mg377 O384 2.042 . S
Mg377 O386 2.041 . S
Mg377 O392 2.038 . S
Mg377 O400 2.238 . S
Mg378 O376 1.917 . S
Mg378 O379 1.917 . S
Mg378 O389 2.106 . S
Mg378 O391 2.079 . S
Mg378 O400 2.106 . S
Mg378 O401 2.079 . S
O379 Mg378 1.917 . S
O379 Mg380 1.926 . S
O379 Mg381 1.986 . S
Mg380 O379 1.926 . S
Mg380 O394 1.984 . S
Mg380 O397 1.988 . S
Mg380 O398 2.061 . S
Mg381 O379 1.986 . S
Mg381 O389 2.238 . S
Mg381 O393 2.042 . S
Mg381 O395 2.041 . S
Mg381 O402 2.038 . S
C382 O388 1.247 . S
C382 O389 1.289 . S
C383 O401 1.245 . S
C383 O402 1.274 . S
O384 C372 1.241 . S
O384 Mg377 2.042 . S
O385 C372 1.280 . S
O385 Mg375 1.984 . S
O386 C373 1.277 . S
O386 Mg377 2.041 . S
O387 C373 1.245 . S
O387 Mg375 1.988 . S
O388 Mg375 2.061 . S
O388 C382 1.247 . S
O389 Mg378 2.106 . S
O389 Mg381 2.238 . S
O389 C382 1.289 . S
C390 O391 1.245 . S
C390 O392 1.274 . S
O391 Mg378 2.079 . S
O391 C390 1.245 . S
O392 Mg377 2.038 . S
O392 C390 1.274 . S
O393 Mg381 2.042 . S
O393 C396 1.241 . S
O394 Mg380 1.984 . S
O394 C396 1.280 . S
O395 Mg381 2.041 . S
O395 C399 1.277 . S
C396 O393 1.241 . S
C396 O394 1.280 . S
O397 Mg380 1.988 . S
O397 C399 1.245 . S
O398 C374 1.247 . S
O398 Mg380 2.061 . S
C399 O395 1.277 . S
C399 O397 1.245 . S
O400 C374 1.289 . S
O400 Mg377 2.238 . S
O400 Mg378 2.106 . S
O401 Mg378 2.079 . S
O401 C383 1.245 . S
O402 Mg381 2.038 . S
O402 C383 1.274 . S
C403 O415 1.241 . S
C403 O416 1.280 . S
C404 O417 1.277 . S
C404 O418 1.245 . S
C405 O429 1.247 . S
C405 O431 1.289 . S
Mg406 O407 1.926 . S
Mg406 O416 1.984 . S
Mg406 O418 1.988 . S
Mg406 O419 2.061 . S
O407 Mg406 1.926 . S
O407 Mg408 1.986 . S
O407 Mg409 1.917 . S
Mg408 O407 1.986 . S
Mg408 O415 2.042 . S
Mg408 O417 2.041 . S
Mg408 O423 2.038 . S
Mg408 O431 2.238 . S
Mg409 O407 1.917 . S
Mg409 O410 1.917 . S
Mg409 O420 2.106 . S
Mg409 O422 2.079 . S
Mg409 O431 2.106 . S
Mg409 O432 2.079 . S
O410 Mg409 1.917 . S
O410 Mg411 1.926 . S
O410 Mg412 1.986 . S
Mg411 O410 1.926 . S
Mg411 O425 1.984 . S
Mg411 O428 1.988 . S
Mg411 O429 2.061 . S
Mg412 O410 1.986 . S
Mg412 O420 2.238 . S
Mg412 O424 2.042 . S
Mg412 O426 2.041 . S
Mg412 O433 2.038 . S
C413 O419 1.247 . S
C413 O420 1.289 . S
C414 O432 1.245 . S
C414 O433 1.274 . S
O415 C403 1.241 . S
O415 Mg408 2.042 . S
O416 C403 1.280 . S
O416 Mg406 1.984 . S
O417 C404 1.277 . S
O417 Mg408 2.041 . S
O418 C404 1.245 . S
O418 Mg406 1.988 . S
O419 Mg406 2.061 . S
O419 C413 1.247 . S
O420 Mg409 2.106 . S
O420 Mg412 2.238 . S
O420 C413 1.289 . S
C421 O422 1.245 . S
C421 O423 1.274 . S
O422 Mg409 2.079 . S
O422 C421 1.245 . S
O423 Mg408 2.038 . S
O423 C421 1.274 . S
O424 Mg412 2.042 . S
O424 C427 1.241 . S
O425 Mg411 1.984 . S
O425 C427 1.280 . S
O426 Mg412 2.041 . S
O426 C430 1.277 . S
C427 O424 1.241 . S
C427 O425 1.280 . S
O428 Mg411 1.988 . S
O428 C430 1.245 . S
O429 C405 1.247 . S
O429 Mg411 2.061 . S
C430 O426 1.277 . S
C430 O428 1.245 . S
O431 C405 1.289 . S
O431 Mg408 2.238 . S
O431 Mg409 2.106 . S
O432 Mg409 2.079 . S
O432 C414 1.245 . S
O433 Mg412 2.038 . S
O433 C414 1.274 . S
C434 O446 1.241 . S
C434 O447 1.280 . S
C435 O448 1.277 . S
C435 O449 1.245 . S
C436 O460 1.247 . S
C436 O462 1.289 . S
Mg437 O438 1.926 . S
Mg437 O447 1.984 . S
Mg437 O449 1.988 . S
Mg437 O450 2.061 . S
O438 Mg437 1.926 . S
O438 Mg439 1.986 . S
O438 Mg440 1.917 . S
Mg439 O438 1.986 . S
Mg439 O446 2.042 . S
Mg439 O448 2.041 . S
Mg439 O454 2.038 . S
Mg439 O462 2.238 . S
Mg440 O438 1.917 . S
Mg440 O441 1.917 . S
Mg440 O451 2.106 . S
Mg440 O453 2.079 . S
Mg440 O462 2.106 . S
Mg440 O463 2.079 . S
O441 Mg440 1.917 . S
O441 Mg442 1.926 . S
O441 Mg443 1.986 . S
Mg442 O441 1.926 . S
Mg442 O456 1.984 . S
Mg442 O459 1.988 . S
Mg442 O460 2.061 . S
Mg443 O441 1.986 . S
Mg443 O451 2.238 . S
Mg443 O455 2.042 . S
Mg443 O457 2.041 . S
Mg443 O464 2.038 . S
C444 O450 1.247 . S
C444 O451 1.289 . S
C445 O463 1.245 . S
C445 O464 1.274 . S
O446 C434 1.241 . S
O446 Mg439 2.042 . S
O447 C434 1.280 . S
O447 Mg437 1.984 . S
O448 C435 1.277 . S
O448 Mg439 2.041 . S
O449 C435 1.245 . S
O449 Mg437 1.988 . S
O450 Mg437 2.061 . S
O450 C444 1.247 . S
O451 Mg440 2.106 . S
O451 Mg443 2.238 . S
O451 C444 1.289 . S
C452 O453 1.245 . S
C452 O454 1.274 . S
O453 Mg440 2.079 . S
O453 C452 1.245 . S
O454 Mg439 2.038 . S
O454 C452 1.274 . S
O455 Mg443 2.042 . S
O455 C458 1.241 . S
O456 Mg442 1.984 . S
O456 C458 1.280 . S
O457 Mg443 2.041 . S
O457 C461 1.277 . S
C458 O455 1.241 . S
C458 O456 1.280 . S
O459 Mg442 1.988 . S
O459 C461 1.245 . S
O460 C436 1.247 . S
O460 Mg442 2.061 . S
C461 O457 1.277 . S
C461 O459 1.245 . S
O462 C436 1.289 . S
O462 Mg439 2.238 . S
O462 Mg440 2.106 . S
O463 Mg440 2.079 . S
O463 C445 1.245 . S
O464 Mg443 2.038 . S
O464 C445 1.274 . S
C465 O477 1.241 1_556 S
C465 O478 1.280 . S
C466 O479 1.277 . S
C466 O480 1.245 . S
C467 O491 1.247 1_554 S
C467 O493 1.289 . S
Mg468 O469 1.926 . S
Mg468 O478 1.984 . S
Mg468 O480 1.988 1_556 S
Mg468 O481 2.061 . S
O469 Mg468 1.926 . S
O469 Mg470 1.986 1_556 S
O469 Mg471 1.917 . S
Mg470 O469 1.986 1_554 S
Mg470 O477 2.042 . S
Mg470 O479 2.041 . S
Mg470 O485 2.038 1_554 S
Mg470 O493 2.238 . S
Mg471 O469 1.917 . S
Mg471 O472 1.917 . S
Mg471 O482 2.106 . S
Mg471 O484 2.079 . S
Mg471 O493 2.106 1_556 S
Mg471 O494 2.079 . S
O472 Mg471 1.917 . S
O472 Mg473 1.926 . S
O472 Mg474 1.986 . S
Mg473 O472 1.926 . S
Mg473 O487 1.984 . S
Mg473 O490 1.988 . S
Mg473 O491 2.061 . S
Mg474 O472 1.986 . S
Mg474 O482 2.238 . S
Mg474 O486 2.042 . S
Mg474 O488 2.041 . S
Mg474 O495 2.038 . S
C475 O481 1.247 . S
C475 O482 1.289 . S
C476 O494 1.245 . S
C476 O495 1.274 . S
O477 C465 1.241 1_554 S
O477 Mg470 2.042 . S
O478 C465 1.280 . S
O478 Mg468 1.984 . S
O479 C466 1.277 . S
O479 Mg470 2.041 . S
O480 C466 1.245 . S
O480 Mg468 1.988 1_554 S
O481 Mg468 2.061 . S
O481 C475 1.247 . S
O482 Mg471 2.106 . S
O482 Mg474 2.238 . S
O482 C475 1.289 . S
C483 O484 1.245 . S
C483 O485 1.274 . S
O484 Mg471 2.079 . S
O484 C483 1.245 . S
O485 Mg470 2.038 1_556 S
O485 C483 1.274 . S
O486 Mg474 2.042 . S
O486 C489 1.241 . S
O487 Mg473 1.984 . S
O487 C489 1.280 . S
O488 Mg474 2.041 . S
O488 C492 1.277 . S
C489 O486 1.241 . S
C489 O487 1.280 . S
O490 Mg473 1.988 . S
O490 C492 1.245 . S
O491 C467 1.247 1_556 S
O491 Mg473 2.061 . S
C492 O488 1.277 . S
C492 O490 1.245 . S
O493 C467 1.289 . S
O493 Mg470 2.238 . S
O493 Mg471 2.106 1_554 S
O494 Mg471 2.079 . S
O494 C476 1.245 . S
O495 Mg474 2.038 . S
O495 C476 1.274 . S
C496 O508 1.241 1_556 S
C496 O509 1.280 . S
C497 O510 1.277 . S
C497 O511 1.245 . S
C498 O522 1.247 1_554 S
C498 O524 1.289 . S
Mg499 O500 1.926 . S
Mg499 O509 1.984 . S
Mg499 O511 1.988 1_556 S
Mg499 O512 2.061 . S
O500 Mg499 1.926 . S
O500 Mg501 1.986 1_556 S
O500 Mg502 1.917 . S
Mg501 O500 1.986 1_554 S
Mg501 O508 2.042 . S
Mg501 O510 2.041 . S
Mg501 O516 2.038 1_554 S
Mg501 O524 2.238 . S
Mg502 O500 1.917 . S
Mg502 O503 1.917 . S
Mg502 O513 2.106 . S
Mg502 O515 2.079 . S
Mg502 O524 2.106 1_556 S
Mg502 O525 2.079 . S
O503 Mg502 1.917 . S
O503 Mg504 1.926 . S
O503 Mg505 1.986 . S
Mg504 O503 1.926 . S
Mg504 O518 1.984 . S
Mg504 O521 1.988 . S
Mg504 O522 2.061 . S
Mg505 O503 1.986 . S
Mg505 O513 2.238 . S
Mg505 O517 2.042 . S
Mg505 O519 2.041 . S
Mg505 O526 2.038 . S
C506 O512 1.247 . S
C506 O513 1.289 . S
C507 O525 1.245 . S
C507 O526 1.274 . S
O508 C496 1.241 1_554 S
O508 Mg501 2.042 . S
O509 C496 1.280 . S
O509 Mg499 1.984 . S
O510 C497 1.277 . S
O510 Mg501 2.041 . S
O511 C497 1.245 . S
O511 Mg499 1.988 1_554 S
O512 Mg499 2.061 . S
O512 C506 1.247 . S
O513 Mg502 2.106 . S
O513 Mg505 2.238 . S
O513 C506 1.289 . S
C514 O515 1.245 . S
C514 O516 1.274 . S
O515 Mg502 2.079 . S
O515 C514 1.245 . S
O516 Mg501 2.038 1_556 S
O516 C514 1.274 . S
O517 Mg505 2.042 . S
O517 C520 1.241 . S
O518 Mg504 1.984 . S
O518 C520 1.280 . S
O519 Mg505 2.041 . S
O519 C523 1.277 . S
C520 O517 1.241 . S
C520 O518 1.280 . S
O521 Mg504 1.988 . S
O521 C523 1.245 . S
O522 C498 1.247 1_556 S
O522 Mg504 2.061 . S
C523 O519 1.277 . S
C523 O521 1.245 . S
O524 C498 1.289 . S
O524 Mg501 2.238 . S
O524 Mg502 2.106 1_554 S
O525 Mg502 2.079 . S
O525 C507 1.245 . S
O526 Mg505 2.038 . S
O526 C507 1.274 . S
C527 O539 1.241 1_556 S
C527 O540 1.280 . S
C528 O541 1.277 . S
C528 O542 1.245 . S
C529 O553 1.247 1_554 S
C529 O555 1.289 . S
Mg530 O531 1.926 . S
Mg530 O540 1.984 . S
Mg530 O542 1.988 1_556 S
Mg530 O543 2.061 . S
O531 Mg530 1.926 . S
O531 Mg532 1.986 1_556 S
O531 Mg533 1.917 . S
Mg532 O531 1.986 1_554 S
Mg532 O539 2.042 . S
Mg532 O541 2.041 . S
Mg532 O547 2.038 1_554 S
Mg532 O555 2.238 . S
Mg533 O531 1.917 . S
Mg533 O534 1.917 . S
Mg533 O544 2.106 . S
Mg533 O546 2.079 . S
Mg533 O555 2.106 1_556 S
Mg533 O556 2.079 . S
O534 Mg533 1.917 . S
O534 Mg535 1.926 . S
O534 Mg536 1.986 . S
Mg535 O534 1.926 . S
Mg535 O549 1.984 . S
Mg535 O552 1.988 . S
Mg535 O553 2.061 . S
Mg536 O534 1.986 . S
Mg536 O544 2.238 . S
Mg536 O548 2.042 . S
Mg536 O550 2.041 . S
Mg536 O557 2.038 . S
C537 O543 1.247 . S
C537 O544 1.289 . S
C538 O556 1.245 . S
C538 O557 1.274 . S
O539 C527 1.241 1_554 S
O539 Mg532 2.042 . S
O540 C527 1.280 . S
O540 Mg530 1.984 . S
O541 C528 1.277 . S
O541 Mg532 2.041 . S
O542 C528 1.245 . S
O542 Mg530 1.988 1_554 S
O543 Mg530 2.061 . S
O543 C537 1.247 . S
O544 Mg533 2.106 . S
O544 Mg536 2.238 . S
O544 C537 1.289 . S
C545 O546 1.245 . S
C545 O547 1.274 . S
O546 Mg533 2.079 . S
O546 C545 1.245 . S
O547 Mg532 2.038 1_556 S
O547 C545 1.274 . S
O548 Mg536 2.042 . S
O548 C551 1.241 . S
O549 Mg535 1.984 . S
O549 C551 1.280 . S
O550 Mg536 2.041 . S
O550 C554 1.277 . S
C551 O548 1.241 . S
C551 O549 1.280 . S
O552 Mg535 1.988 . S
O552 C554 1.245 . S
O553 C529 1.247 1_556 S
O553 Mg535 2.061 . S
C554 O550 1.277 . S
C554 O552 1.245 . S
O555 C529 1.289 . S
O555 Mg532 2.238 . S
O555 Mg533 2.106 1_554 S
O556 Mg533 2.079 . S
O556 C538 1.245 . S
O557 Mg536 2.038 . S
O557 C538 1.274 . S
C558 C559 1.369 . S
C558 C560 1.419 . S
C558 H562 0.930 . S
C559 C558 1.369 . S
C559 C568 1.429 . S
C560 C558 1.419 . S
C560 C561 1.363 . S
C560 H563 0.929 . S
C561 C560 1.363 . S
C561 C567 1.428 . S
H562 C558 0.930 . S
H563 C560 0.929 . S
S564 N565 1.613 . S
S564 N566 1.610 . S
N565 S564 1.613 . S
N565 C568 1.350 . S
N566 S564 1.610 . S
N566 C567 1.351 . S
C567 C561 1.428 . S
C567 N566 1.351 . S
C567 C568 1.434 . S
C568 C559 1.429 . S
C568 N565 1.350 . S
C568 C567 1.434 . S
C569 C570 1.369 . S
C569 C571 1.419 . S
C569 H573 0.930 . S
C570 C569 1.369 . S
C570 C579 1.429 . S
C571 C569 1.419 . S
C571 C572 1.363 . S
C571 H574 0.929 . S
C572 C571 1.363 . S
C572 C578 1.428 . S
H573 C569 0.930 . S
H574 C571 0.929 . S
S575 N576 1.613 . S
S575 N577 1.610 . S
N576 S575 1.613 . S
N576 C579 1.350 . S
N577 S575 1.610 . S
N577 C578 1.351 . S
C578 C572 1.428 . S
C578 N577 1.351 . S
C578 C579 1.434 . S
C579 C570 1.429 . S
C579 N576 1.350 . S
C579 C578 1.434 . S
C580 C581 1.369 . S
C580 C582 1.419 . S
C580 H584 0.930 . S
C581 C580 1.369 . S
C581 C590 1.429 . S
C582 C580 1.419 . S
C582 C583 1.363 1_655 S
C582 H585 0.929 . S
C583 C582 1.363 1_455 S
C583 C589 1.428 . S
H584 C580 0.930 . S
H585 C582 0.929 . S
S586 N587 1.614 1_455 S
S586 N588 1.610 . S
N587 S586 1.614 1_655 S
N587 C590 1.350 . S
N588 S586 1.610 . S
N588 C589 1.351 . S
C589 C583 1.428 . S
C589 N588 1.351 . S
C589 C590 1.434 1_455 S
C590 C581 1.429 . S
C590 N587 1.350 . S
C590 C589 1.434 1_655 S
C591 C592 1.369 . S
C591 C593 1.419 . S
C591 H595 0.930 . S
C592 C591 1.369 . S
C592 C601 1.429 . S
C593 C591 1.419 . S
C593 C594 1.363 . S
C593 H596 0.929 . S
C594 C593 1.363 . S
C594 C600 1.428 . S
H595 C591 0.930 . S
H596 C593 0.929 . S
S597 N598 1.613 1_545 S
S597 N599 1.610 . S
N598 S597 1.613 1_565 S
N598 C601 1.350 . S
N599 S597 1.610 . S
N599 C600 1.351 1_545 S
C600 C594 1.428 . S
C600 N599 1.351 1_565 S
C600 C601 1.434 . S
C601 C592 1.429 . S
C601 N598 1.350 . S
C601 C600 1.434 . S
C602 C603 1.369 . S
C602 C604 1.419 1_545 S
C602 H606 0.930 . S
C603 C602 1.369 . S
C603 C612 1.429 . S
C604 C602 1.419 1_565 S
C604 C605 1.363 . S
C604 H607 0.929 . S
C605 C604 1.363 . S
C605 C611 1.428 . S
H606 C602 0.930 . S
H607 C604 0.929 . S
S608 N609 1.622 . S
S608 N610 1.610 . S
N609 S608 1.622 . S
N609 C612 1.349 1_565 S
N610 S608 1.610 . S
N610 C611 1.351 . S
C611 C605 1.428 . S
C611 N610 1.351 . S
C611 C612 1.434 1_565 S
C612 C603 1.429 . S
C612 N609 1.349 1_545 S
C612 C611 1.434 1_545 S
C613 C614 1.369 . S
C613 C615 1.419 . S
C613 H617 0.930 . S
C614 C613 1.369 . S
C614 C623 1.429 . S
C615 C613 1.419 . S
C615 C616 1.363 . S
C615 H618 0.929 . S
C616 C615 1.363 . S
C616 C622 1.428 . S
H617 C613 0.930 . S
H618 C615 0.929 . S
S619 N620 1.613 . S
S619 N621 1.610 1_455 S
N620 S619 1.613 . S
N620 C623 1.350 . S
N621 S619 1.610 1_655 S
N621 C622 1.351 1_655 S
C622 C616 1.428 . S
C622 N621 1.351 1_455 S
C622 C623 1.434 . S
C623 C614 1.429 . S
C623 N620 1.350 . S
C623 C622 1.434 . S
C624 C625 1.369 . S
C624 C626 1.419 . S
C624 H628 0.930 . S
C625 C624 1.369 . S
C625 C634 1.429 . S
C626 C624 1.419 . S
C626 C627 1.363 . S
C626 H629 0.929 1_554 S
C627 C626 1.363 . S
C627 C633 1.428 . S
H628 C624 0.930 . S
H629 C626 0.929 1_556 S
S630 N631 1.613 . S
S630 N632 1.610 . S
N631 S630 1.613 . S
N631 C634 1.350 . S
N632 S630 1.610 . S
N632 C633 1.351 . S
C633 C627 1.428 . S
C633 N632 1.351 . S
C633 C634 1.434 . S
C634 C625 1.429 . S
C634 N631 1.350 . S
C634 C633 1.434 . S
C635 C636 1.369 . S
C635 C637 1.419 . S
C635 H639 0.930 . S
C636 C635 1.369 . S
C636 C645 1.429 . S
C637 C635 1.419 . S
C637 C638 1.363 . S
C637 H640 0.929 1_554 S
C638 C637 1.363 . S
C638 C644 1.428 . S
H639 C635 0.930 . S
H640 C637 0.929 1_556 S
S641 N642 1.613 . S
S641 N643 1.610 . S
N642 S641 1.613 . S
N642 C645 1.350 . S
N643 S641 1.610 . S
N643 C644 1.351 . S
C644 C638 1.428 . S
C644 N643 1.351 . S
C644 C645 1.434 . S
C645 C636 1.429 . S
C645 N642 1.350 . S
C645 C644 1.434 . S
C646 C647 1.369 . S
C646 C648 1.419 . S
C646 H650 0.930 . S
C647 C646 1.369 . S
C647 C656 1.429 . S
C648 C646 1.419 . S
C648 C649 1.363 . S
C648 H651 0.929 . S
C649 C648 1.363 . S
C649 C655 1.428 . S
H650 C646 0.930 . S
H651 C648 0.929 . S
S652 N653 1.613 . S
S652 N654 1.610 1_556 S
N653 S652 1.613 . S
N653 C656 1.350 1_556 S
N654 S652 1.610 1_554 S
N654 C655 1.351 . S
C655 C649 1.428 . S
C655 N654 1.351 . S
C655 C656 1.434 . S
C656 C647 1.429 . S
C656 N653 1.350 1_554 S
C656 C655 1.434 . S
C657 C658 1.369 . S
C657 C659 1.419 . S
C657 H661 0.930 . S
C658 C657 1.369 . S
C658 C667 1.429 . S
C659 C657 1.419 . S
C659 C660 1.363 . S
C659 H662 0.929 . S
C660 C659 1.363 . S
C660 C666 1.428 . S
H661 C657 0.930 . S
H662 C659 0.929 . S
S663 N664 1.613 . S
S663 N665 1.610 . S
N664 S663 1.613 . S
N664 C667 1.350 . S
N665 S663 1.610 . S
N665 C666 1.351 . S
C666 C660 1.428 . S
C666 N665 1.351 . S
C666 C667 1.434 . S
C667 C658 1.429 . S
C667 N664 1.350 . S
C667 C666 1.434 . S
C668 C669 1.369 . S
C668 C670 1.419 . S
C668 H672 0.930 . S
C669 C668 1.369 . S
C669 C678 1.429 . S
C670 C668 1.419 . S
C670 C671 1.363 . S
C670 H673 0.929 . S
C671 C670 1.363 . S
C671 C677 1.428 . S
H672 C668 0.930 . S
H673 C670 0.929 . S
S674 N675 1.613 . S
S674 N676 1.610 . S
N675 S674 1.613 . S
N675 C678 1.350 . S
N676 S674 1.610 . S
N676 C677 1.351 . S
C677 C671 1.428 . S
C677 N676 1.351 . S
C677 C678 1.434 . S
C678 C669 1.429 . S
C678 N675 1.350 . S
C678 C677 1.434 . S
C679 C680 1.369 . S
C679 C681 1.419 . S
C679 H683 0.930 . S
C680 C679 1.369 . S
C680 C689 1.429 . S
C681 C679 1.419 . S
C681 C682 1.363 . S
C681 H684 0.929 . S
C682 C681 1.363 . S
C682 C688 1.428 . S
H683 C679 0.930 . S
H684 C681 0.929 . S
S685 N686 1.613 . S
S685 N687 1.610 . S
N686 S685 1.613 . S
N686 C689 1.350 . S
N687 S685 1.610 . S
N687 C688 1.351 . S
C688 C682 1.428 . S
C688 N687 1.351 . S
C688 C689 1.434 . S
C689 C680 1.429 . S
C689 N686 1.350 . S
C689 C688 1.434 . S
C690 C691 1.369 . S
C690 C692 1.419 . S
C690 H694 0.930 . S
C691 C690 1.369 . S
C691 C700 1.429 . S
C692 C690 1.419 . S
C692 C693 1.363 . S
C692 H695 0.929 . S
C693 C692 1.363 . S
C693 C699 1.428 . S
H694 C690 0.930 . S
H695 C692 0.929 . S
S696 N697 1.613 . S
S696 N698 1.610 . S
N697 S696 1.613 . S
N697 C700 1.350 . S
N698 S696 1.610 . S
N698 C699 1.351 . S
C699 C693 1.428 . S
C699 N698 1.351 . S
C699 C700 1.434 . S
C700 C691 1.429 . S
C700 N697 1.350 . S
C700 C699 1.434 . S
C701 C702 1.369 . S
C701 C703 1.419 . S
C701 H705 0.930 . S
C702 C701 1.369 . S
C702 C711 1.429 . S
C703 C701 1.419 . S
C703 C704 1.363 . S
C703 H706 0.929 . S
C704 C703 1.363 . S
C704 C710 1.428 . S
H705 C701 0.930 . S
H706 C703 0.929 . S
S707 N708 1.613 . S
S707 N709 1.610 . S
N708 S707 1.613 . S
N708 C711 1.350 . S
N709 S707 1.610 . S
N709 C710 1.351 . S
C710 C704 1.428 . S
C710 N709 1.351 . S
C710 C711 1.434 . S
C711 C702 1.429 . S
C711 N708 1.350 . S
C711 C710 1.434 . S
C712 C713 1.369 . S
C712 C714 1.419 . S
C712 H716 0.930 . S
C713 C712 1.369 . S
C713 C722 1.429 . S
C714 C712 1.419 . S
C714 C715 1.363 . S
C714 H717 0.929 . S
C715 C714 1.363 . S
C715 C721 1.428 . S
H716 C712 0.930 . S
H717 C714 0.929 . S
S718 N719 1.613 . S
S718 N720 1.610 . S
N719 S718 1.613 . S
N719 C722 1.350 . S
N720 S718 1.610 . S
N720 C721 1.351 . S
C721 C715 1.428 . S
C721 N720 1.351 . S
C721 C722 1.434 . S
C722 C713 1.429 . S
C722 N719 1.350 . S
C722 C721 1.434 . S
C723 C724 1.369 . S
C723 C725 1.419 . S
C723 H727 0.930 . S
C724 C723 1.369 . S
C724 C733 1.429 . S
C725 C723 1.419 . S
C725 C726 1.363 . S
C725 H728 0.929 . S
C726 C725 1.363 . S
C726 C732 1.428 . S
H727 C723 0.930 . S
H728 C725 0.929 . S
S729 N730 1.613 . S
S729 N731 1.610 . S
N730 S729 1.613 . S
N730 C733 1.350 . S
N731 S729 1.610 . S
N731 C732 1.351 . S
C732 C726 1.428 . S
C732 N731 1.351 . S
C732 C733 1.434 . S
C733 C724 1.429 . S
C733 N730 1.350 . S
C733 C732 1.434 . S
C734 C735 1.369 . S
C734 C736 1.419 . S
C734 H738 0.930 . S
C735 C734 1.369 . S
C735 C744 1.429 . S
C736 C734 1.419 . S
C736 C737 1.363 . S
C736 H739 0.929 1_556 S
C737 C736 1.363 . S
C737 C743 1.428 . S
H738 C734 0.930 . S
H739 C736 0.929 1_554 S
S740 N741 1.613 . S
S740 N742 1.610 . S
N741 S740 1.613 . S
N741 C744 1.350 . S
N742 S740 1.610 . S
N742 C743 1.351 . S
C743 C737 1.428 . S
C743 N742 1.351 . S
C743 C744 1.434 . S
C744 C735 1.429 . S
C744 N741 1.350 . S
C744 C743 1.434 . S
C745 C746 1.369 . S
C745 C747 1.419 . S
C745 H749 0.930 . S
C746 C745 1.369 . S
C746 C755 1.429 . S
C747 C745 1.419 . S
C747 C748 1.363 . S
C747 H750 0.929 1_556 S
C748 C747 1.363 . S
C748 C754 1.428 . S
H749 C745 0.930 . S
H750 C747 0.929 1_554 S
S751 N752 1.613 . S
S751 N753 1.610 . S
N752 S751 1.613 . S
N752 C755 1.350 . S
N753 S751 1.610 . S
N753 C754 1.351 . S
C754 C748 1.428 . S
C754 N753 1.351 . S
C754 C755 1.434 . S
C755 C746 1.429 . S
C755 N752 1.350 . S
C755 C754 1.434 . S
C756 C757 1.369 . S
C756 C758 1.419 . S
C756 H760 0.930 . S
C757 C756 1.369 . S
C757 C766 1.429 . S
C758 C756 1.419 . S
C758 C759 1.363 . S
C758 H761 0.929 . S
C759 C758 1.363 . S
C759 C765 1.428 . S
H760 C756 0.930 . S
H761 C758 0.929 . S
S762 N763 1.613 . S
S762 N764 1.610 . S
N763 S762 1.613 . S
N763 C766 1.350 . S
N764 S762 1.610 . S
N764 C765 1.351 . S
C765 C759 1.428 . S
C765 N764 1.351 . S
C765 C766 1.434 . S
C766 C757 1.429 . S
C766 N763 1.350 . S
C766 C765 1.434 . S
C767 C768 1.369 . S
C767 C769 1.419 . S
C767 H771 0.930 . S
C768 C767 1.369 . S
C768 C777 1.429 . S
C769 C767 1.419 . S
C769 C770 1.363 . S
C769 H772 0.929 . S
C770 C769 1.363 . S
C770 C776 1.428 . S
H771 C767 0.930 . S
H772 C769 0.929 . S
S773 N774 1.613 . S
S773 N775 1.610 . S
N774 S773 1.613 . S
N774 C777 1.350 . S
N775 S773 1.610 . S
N775 C776 1.351 . S
C776 C770 1.428 . S
C776 N775 1.351 . S
C776 C777 1.434 . S
C777 C768 1.429 . S
C777 N774 1.350 . S
C777 C776 1.434 . S
C778 C779 1.369 . S
C778 C780 1.419 . S
C778 H782 0.930 . S
C779 C778 1.369 . S
C779 C788 1.429 . S
C780 C778 1.419 . S
C780 C781 1.363 . S
C780 H783 0.929 . S
C781 C780 1.363 . S
C781 C787 1.428 . S
H782 C778 0.930 . S
H783 C780 0.929 . S
S784 N785 1.613 . S
S784 N786 1.610 . S
N785 S784 1.613 . S
N785 C788 1.350 . S
N786 S784 1.610 . S
N786 C787 1.351 . S
C787 C781 1.428 . S
C787 N786 1.351 . S
C787 C788 1.434 . S
C788 C779 1.429 . S
C788 N785 1.350 . S
C788 C787 1.434 . S
C789 C790 1.369 . S
C789 C791 1.419 . S
C789 H793 0.930 . S
C790 C789 1.369 . S
C790 C799 1.429 . S
C791 C789 1.419 . S
C791 C792 1.363 1_556 S
C791 H794 0.929 1_556 S
C792 C791 1.363 1_554 S
C792 C798 1.428 1_554 S
H793 C789 0.930 . S
H794 C791 0.929 1_554 S
S795 N796 1.613 . S
S795 N797 1.610 1_556 S
N796 S795 1.613 . S
N796 C799 1.350 . S
N797 S795 1.610 1_554 S
N797 C798 1.351 1_554 S
C798 C792 1.428 1_556 S
C798 N797 1.351 1_556 S
C798 C799 1.434 . S
C799 C790 1.429 . S
C799 N796 1.350 . S
C799 C798 1.434 . S
C800 C801 1.369 . S
C800 C802 1.419 1_554 S
C800 H804 0.930 . S
C801 C800 1.369 . S
C801 C810 1.429 1_554 S
C802 C800 1.419 1_556 S
C802 C803 1.363 . S
C802 H805 0.929 . S
C803 C802 1.363 . S
C803 C809 1.428 . S
H804 C800 0.930 . S
H805 C802 0.929 . S
S806 N807 1.613 . S
S806 N808 1.610 1_545 S
N807 S806 1.613 . S
N807 C810 1.350 1_545 S
N808 S806 1.610 1_565 S
N808 C809 1.351 . S
C809 C803 1.428 . S
C809 N808 1.351 . S
C809 C810 1.434 . S
C810 C801 1.429 1_556 S
C810 N807 1.350 1_565 S
C810 C809 1.434 . S
C811 C812 1.369 . S
C811 C813 1.419 1_556 S
C811 H815 0.930 . S
C812 C811 1.369 . S
C812 C821 1.429 . S
C813 C811 1.419 1_554 S
C813 C814 1.363 . S
C813 H816 0.929 . S
C814 C813 1.363 . S
C814 C820 1.428 1_554 S
H815 C811 0.930 . S
H816 C813 0.929 . S
S817 N818 1.613 . S
S817 N819 1.610 . S
N818 S817 1.613 . S
N818 C821 1.350 . S
N819 S817 1.610 . S
N819 C820 1.351 . S
C820 C814 1.428 1_556 S
C820 N819 1.351 . S
C820 C821 1.434 . S
C821 C812 1.429 . S
C821 N818 1.350 . S
C821 C820 1.434 . S
C822 C823 1.369 . S
C822 C824 1.419 . S
C822 H826 0.930 . S
C823 C822 1.369 . S
C823 C832 1.429 . S
C824 C822 1.419 . S
C824 C825 1.363 . S
C824 H827 0.929 1_565 S
C825 C824 1.363 . S
C825 C831 1.428 . S
H826 C822 0.930 . S
H827 C824 0.929 1_545 S
S828 N829 1.613 . S
S828 N830 1.610 . S
N829 S828 1.613 . S
N829 C832 1.350 . S
N830 S828 1.610 . S
N830 C831 1.351 . S
C831 C825 1.428 . S
C831 N830 1.351 . S
C831 C832 1.434 . S
C832 C823 1.429 . S
C832 N829 1.350 . S
C832 C831 1.434 . S
C833 C834 1.369 . S
C833 C835 1.419 . S
C833 H837 0.930 . S
C834 C833 1.369 . S
C834 C843 1.429 . S
C835 C833 1.419 . S
C835 C836 1.363 . S
C835 H838 0.929 . S
C836 C835 1.363 . S
C836 C842 1.428 . S
H837 C833 0.930 . S
H838 C835 0.929 . S
S839 N840 1.613 . S
S839 N841 1.610 . S
N840 S839 1.613 . S
N840 C843 1.350 . S
N841 S839 1.610 . S
N841 C842 1.351 . S
C842 C836 1.428 . S
C842 N841 1.351 . S
C842 C843 1.434 . S
C843 C834 1.429 . S
C843 N840 1.350 . S
C843 C842 1.434 . S
C844 C845 1.369 . S
C844 C846 1.419 . S
C844 H848 0.930 . S
C845 C844 1.369 . S
C845 C854 1.429 . S
C846 C844 1.419 . S
C846 C847 1.363 . S
C846 H849 0.929 . S
C847 C846 1.363 . S
C847 C853 1.428 . S
H848 C844 0.930 . S
H849 C846 0.929 . S
S850 N851 1.613 . S
S850 N852 1.610 . S
N851 S850 1.613 . S
N851 C854 1.350 . S
N852 S850 1.610 . S
N852 C853 1.351 . S
C853 C847 1.428 . S
C853 N852 1.351 . S
C853 C854 1.434 . S
C854 C845 1.429 . S
C854 N851 1.350 . S
C854 C853 1.434 . S
C855 C856 1.369 . S
C855 C857 1.419 . S
C855 H859 0.930 . S
C856 C855 1.369 . S
C856 C865 1.429 . S
C857 C855 1.419 . S
C857 C858 1.363 1_554 S
C857 H860 0.929 . S
C858 C857 1.363 1_556 S
C858 C864 1.428 . S
H859 C855 0.930 . S
H860 C857 0.929 . S
S861 N862 1.613 . S
S861 N863 1.610 . S
N862 S861 1.613 . S
N862 C865 1.350 1_556 S
N863 S861 1.610 . S
N863 C864 1.351 . S
C864 C858 1.428 . S
C864 N863 1.351 . S
C864 C865 1.434 1_556 S
C865 C856 1.429 . S
C865 N862 1.350 1_554 S
C865 C864 1.434 1_554 S
C866 C867 1.369 . S
C866 C868 1.419 1_554 S
C866 H870 0.930 . S
C867 C866 1.369 . S
C867 C876 1.429 . S
C868 C866 1.419 1_556 S
C868 C869 1.363 . S
C868 H871 0.929 . S
C869 C868 1.363 . S
C869 C875 1.428 1_556 S
H870 C866 0.930 . S
H871 C868 0.929 . S
S872 N873 1.613 . S
S872 N874 1.610 . S
N873 S872 1.613 . S
N873 C876 1.350 . S
N874 S872 1.610 . S
N874 C875 1.351 . S
C875 C869 1.428 1_554 S
C875 N874 1.351 . S
C875 C876 1.434 . S
C876 C867 1.429 . S
C876 N873 1.350 . S
C876 C875 1.434 . S
C877 C878 1.369 . S
C877 C879 1.419 1_556 S
C877 H881 0.930 . S
C878 C877 1.369 . S
C878 C887 1.429 1_556 S
C879 C877 1.419 1_554 S
C879 C880 1.363 . S
C879 H882 0.929 1_554 S
C880 C879 1.363 . S
C880 C886 1.428 . S
H881 C877 0.930 . S
H882 C879 0.929 1_556 S
S883 N884 1.613 . S
S883 N885 1.610 . S
N884 S883 1.613 . S
N884 C887 1.350 . S
N885 S883 1.610 . S
N885 C886 1.351 . S
C886 C880 1.428 . S
C886 N885 1.351 . S
C886 C887 1.434 . S
C887 C878 1.429 1_554 S
C887 N884 1.350 . S
C887 C886 1.434 . S
C888 C889 1.369 . S
C888 C890 1.419 . S
C888 H892 0.930 . S
C889 C888 1.369 . S
C889 C898 1.429 . S
C890 C888 1.419 . S
C890 C891 1.363 . S
C890 H893 0.929 . S
C891 C890 1.363 . S
C891 C897 1.428 . S
H892 C888 0.930 . S
H893 C890 0.929 . S
S894 N895 1.613 . S
S894 N896 1.610 . S
N895 S894 1.613 . S
N895 C898 1.350 . S
N896 S894 1.610 . S
N896 C897 1.351 . S
C897 C891 1.428 . S
C897 N896 1.351 . S
C897 C898 1.434 . S
C898 C889 1.429 . S
C898 N895 1.350 . S
C898 C897 1.434 . S
C899 C900 1.369 . S
C899 C901 1.419 . S
C899 H903 0.930 . S
C900 C899 1.369 . S
C900 C909 1.429 . S
C901 C899 1.419 . S
C901 C902 1.363 . S
C901 H904 0.929 . S
C902 C901 1.363 . S
C902 C908 1.428 . S
H903 C899 0.930 . S
H904 C901 0.929 . S
S905 N906 1.613 . S
S905 N907 1.610 . S
N906 S905 1.613 . S
N906 C909 1.350 . S
N907 S905 1.610 . S
N907 C908 1.351 . S
C908 C902 1.428 . S
C908 N907 1.351 . S
C908 C909 1.434 . S
C909 C900 1.429 . S
C909 N906 1.350 . S
C909 C908 1.434 . S
C910 C911 1.369 . S
C910 C912 1.419 . S
C910 H914 0.930 . S
C911 C910 1.369 . S
C911 C920 1.429 . S
C912 C910 1.419 . S
C912 C913 1.363 . S
C912 H915 0.929 . S
C913 C912 1.363 . S
C913 C919 1.428 . S
H914 C910 0.930 . S
H915 C912 0.929 . S
S916 N917 1.613 . S
S916 N918 1.610 . S
N917 S916 1.613 . S
N917 C920 1.350 . S
N918 S916 1.610 . S
N918 C919 1.351 . S
C919 C913 1.428 . S
C919 N918 1.351 . S
C919 C920 1.434 . S
C920 C911 1.429 . S
C920 N917 1.350 . S
C920 C919 1.434 . S
C921 C922 1.369 . S
C921 C923 1.419 . S
C921 H925 0.930 . S
C922 C921 1.369 . S
C922 C931 1.429 . S
C923 C921 1.419 . S
C923 C924 1.363 . S
C923 H926 0.929 . S
C924 C923 1.363 . S
C924 C930 1.428 . S
H925 C921 0.930 . S
H926 C923 0.929 . S
S927 N928 1.613 . S
S927 N929 1.610 . S
N928 S927 1.613 . S
N928 C931 1.350 . S
N929 S927 1.610 . S
N929 C930 1.351 . S
C930 C924 1.428 . S
C930 N929 1.351 . S
C930 C931 1.434 . S
C931 C922 1.429 . S
C931 N928 1.350 . S
C931 C930 1.434 . S
C932 C933 1.369 . S
C932 C934 1.419 . S
C932 H936 0.930 . S
C933 C932 1.369 . S
C933 C942 1.429 . S
C934 C932 1.419 . S
C934 C935 1.363 . S
C934 H937 0.929 . S
C935 C934 1.363 . S
C935 C941 1.428 . S
H936 C932 0.930 . S
H937 C934 0.929 . S
S938 N939 1.613 . S
S938 N940 1.610 . S
N939 S938 1.613 . S
N939 C942 1.350 . S
N940 S938 1.610 . S
N940 C941 1.351 . S
C941 C935 1.428 . S
C941 N940 1.351 . S
C941 C942 1.434 . S
C942 C933 1.429 . S
C942 N939 1.350 . S
C942 C941 1.434 . S
C943 C944 1.369 . S
C943 C945 1.419 . S
C943 H947 0.930 . S
C944 C943 1.369 . S
C944 C953 1.429 . S
C945 C943 1.419 . S
C945 C946 1.363 . S
C945 H948 0.929 . S
C946 C945 1.363 . S
C946 C952 1.428 . S
H947 C943 0.930 . S
H948 C945 0.929 . S
S949 N950 1.613 . S
S949 N951 1.610 . S
N950 S949 1.613 . S
N950 C953 1.350 . S
N951 S949 1.610 . S
N951 C952 1.351 . S
C952 C946 1.428 . S
C952 N951 1.351 . S
C952 C953 1.434 . S
C953 C944 1.429 . S
C953 N950 1.350 . S
C953 C952 1.434 . S
C954 C955 1.369 . S
C954 C956 1.419 . S
C954 H958 0.930 . S
C955 C954 1.369 . S
C955 C964 1.429 . S
C956 C954 1.419 . S
C956 C957 1.363 . S
C956 H959 0.929 . S
C957 C956 1.363 . S
C957 C963 1.428 . S
H958 C954 0.930 . S
H959 C956 0.929 . S
S960 N961 1.613 . S
S960 N962 1.610 . S
N961 S960 1.613 . S
N961 C964 1.350 . S
N962 S960 1.610 . S
N962 C963 1.351 . S
C963 C957 1.428 . S
C963 N962 1.351 . S
C963 C964 1.434 . S
C964 C955 1.429 . S
C964 N961 1.350 . S
C964 C963 1.434 . S
C965 C966 1.369 . S
C965 C967 1.419 . S
C965 H969 0.930 . S
C966 C965 1.369 . S
C966 C975 1.429 . S
C967 C965 1.419 . S
C967 C968 1.363 . S
C967 H970 0.929 . S
C968 C967 1.363 . S
C968 C974 1.428 . S
H969 C965 0.930 . S
H970 C967 0.929 . S
S971 N972 1.613 . S
S971 N973 1.610 . S
N972 S971 1.613 . S
N972 C975 1.350 . S
N973 S971 1.610 . S
N973 C974 1.351 . S
C974 C968 1.428 . S
C974 N973 1.351 . S
C974 C975 1.434 . S
C975 C966 1.429 . S
C975 N972 1.350 . S
C975 C974 1.434 . S
C976 C977 1.369 . S
C976 C978 1.419 . S
C976 H980 0.930 . S
C977 C976 1.369 . S
C977 C986 1.429 . S
C978 C976 1.419 . S
C978 C979 1.363 . S
C978 H981 0.929 . S
C979 C978 1.363 . S
C979 C985 1.428 . S
H980 C976 0.930 . S
H981 C978 0.929 . S
S982 N983 1.613 . S
S982 N984 1.610 . S
N983 S982 1.613 . S
N983 C986 1.350 . S
N984 S982 1.610 . S
N984 C985 1.351 . S
C985 C979 1.428 . S
C985 N984 1.351 . S
C985 C986 1.434 . S
C986 C977 1.429 . S
C986 N983 1.350 . S
C986 C985 1.434 . S
C987 C988 1.369 . S
C987 C989 1.419 . S
C987 H991 0.930 . S
C988 C987 1.369 . S
C988 C997 1.429 . S
C989 C987 1.419 . S
C989 C990 1.363 . S
C989 H992 0.929 . S
C990 C989 1.363 . S
C990 C996 1.428 . S
H991 C987 0.930 . S
H992 C989 0.929 . S
S993 N994 1.613 . S
S993 N995 1.610 . S
N994 S993 1.613 . S
N994 C997 1.350 . S
N995 S993 1.610 . S
N995 C996 1.351 . S
C996 C990 1.428 . S
C996 N995 1.351 . S
C996 C997 1.434 . S
C997 C988 1.429 . S
C997 N994 1.350 . S
C997 C996 1.434 . S
C998 C999 1.369 . S
C998 C1000 1.419 . S
C998 H1002 0.930 . S
C999 C998 1.369 . S
C999 C1008 1.429 . S
C1000 C998 1.419 . S
C1000 C1001 1.363 . S
C1000 H1003 0.929 . S
C1001 C1000 1.363 . S
C1001 C1007 1.428 . S
H1002 C998 0.930 . S
H1003 C1000 0.929 . S
S1004 N1005 1.613 . S
S1004 N1006 1.610 . S
N1005 S1004 1.613 . S
N1005 C1008 1.350 . S
N1006 S1004 1.610 . S
N1006 C1007 1.351 . S
C1007 C1001 1.428 . S
C1007 N1006 1.351 . S
C1007 C1008 1.434 . S
C1008 C999 1.429 . S
C1008 N1005 1.350 . S
C1008 C1007 1.434 . S
C1009 C1010 1.369 . S
C1009 C1011 1.419 . S
C1009 H1013 0.930 . S
C1010 C1009 1.369 . S
C1010 C1019 1.429 . S
C1011 C1009 1.419 . S
C1011 C1012 1.363 . S
C1011 H1014 0.929 . S
C1012 C1011 1.363 . S
C1012 C1018 1.428 . S
H1013 C1009 0.930 . S
H1014 C1011 0.929 . S
S1015 N1016 1.613 . S
S1015 N1017 1.610 . S
N1016 S1015 1.613 . S
N1016 C1019 1.350 . S
N1017 S1015 1.610 . S
N1017 C1018 1.351 . S
C1018 C1012 1.428 . S
C1018 N1017 1.351 . S
C1018 C1019 1.434 . S
C1019 C1010 1.429 . S
C1019 N1016 1.350 . S
C1019 C1018 1.434 . S
C1020 C1021 1.369 . S
C1020 C1022 1.419 . S
C1020 H1024 0.930 . S
C1021 C1020 1.369 . S
C1021 C1030 1.429 . S
C1022 C1020 1.419 . S
C1022 C1023 1.363 . S
C1022 H1025 0.929 . S
C1023 C1022 1.363 . S
C1023 C1029 1.428 . S
H1024 C1020 0.930 . S
H1025 C1022 0.929 . S
S1026 N1027 1.613 . S
S1026 N1028 1.610 . S
N1027 S1026 1.613 . S
N1027 C1030 1.350 . S
N1028 S1026 1.610 . S
N1028 C1029 1.351 . S
C1029 C1023 1.428 . S
C1029 N1028 1.351 . S
C1029 C1030 1.434 . S
C1030 C1021 1.429 . S
C1030 N1027 1.350 . S
C1030 C1029 1.434 . S
C1031 C1032 1.369 . S
C1031 C1033 1.419 . S
C1031 H1035 0.930 . S
C1032 C1031 1.369 . S
C1032 C1041 1.429 . S
C1033 C1031 1.419 . S
C1033 C1034 1.363 . S
C1033 H1036 0.929 . S
C1034 C1033 1.363 . S
C1034 C1040 1.428 . S
H1035 C1031 0.930 . S
H1036 C1033 0.929 . S
S1037 N1038 1.613 . S
S1037 N1039 1.610 . S
N1038 S1037 1.613 . S
N1038 C1041 1.350 . S
N1039 S1037 1.610 . S
N1039 C1040 1.351 . S
C1040 C1034 1.428 . S
C1040 N1039 1.351 . S
C1040 C1041 1.434 . S
C1041 C1032 1.429 . S
C1041 N1038 1.350 . S
C1041 C1040 1.434 . S
C1042 C1043 1.369 . S
C1042 C1044 1.419 . S
C1042 H1046 0.930 . S
C1043 C1042 1.369 . S
C1043 C1052 1.429 . S
C1044 C1042 1.419 . S
C1044 C1045 1.363 . S
C1044 H1047 0.929 . S
C1045 C1044 1.363 . S
C1045 C1051 1.428 . S
H1046 C1042 0.930 . S
H1047 C1044 0.929 . S
S1048 N1049 1.613 . S
S1048 N1050 1.610 . S
N1049 S1048 1.613 . S
N1049 C1052 1.350 . S
N1050 S1048 1.610 . S
N1050 C1051 1.351 . S
C1051 C1045 1.428 . S
C1051 N1050 1.351 . S
C1051 C1052 1.434 . S
C1052 C1043 1.429 . S
C1052 N1049 1.350 . S
C1052 C1051 1.434 . S
C1053 C1054 1.369 . S
C1053 C1055 1.419 . S
C1053 H1057 0.930 . S
C1054 C1053 1.369 . S
C1054 C1063 1.429 . S
C1055 C1053 1.419 . S
C1055 C1056 1.363 . S
C1055 H1058 0.929 . S
C1056 C1055 1.363 . S
C1056 C1062 1.428 . S
H1057 C1053 0.930 . S
H1058 C1055 0.929 . S
S1059 N1060 1.613 . S
S1059 N1061 1.610 . S
N1060 S1059 1.613 . S
N1060 C1063 1.350 . S
N1061 S1059 1.610 . S
N1061 C1062 1.351 . S
C1062 C1056 1.428 . S
C1062 N1061 1.351 . S
C1062 C1063 1.434 . S
C1063 C1054 1.429 . S
C1063 N1060 1.350 . S
C1063 C1062 1.434 . S
C1064 C1065 1.369 . S
C1064 C1066 1.419 . S
C1064 H1068 0.930 . S
C1065 C1064 1.369 . S
C1065 C1074 1.429 . S
C1066 C1064 1.419 . S
C1066 C1067 1.363 . S
C1066 H1069 0.929 . S
C1067 C1066 1.363 . S
C1067 C1073 1.428 . S
H1068 C1064 0.930 . S
H1069 C1066 0.929 . S
S1070 N1071 1.613 . S
S1070 N1072 1.610 . S
N1071 S1070 1.613 . S
N1071 C1074 1.350 . S
N1072 S1070 1.610 . S
N1072 C1073 1.351 . S
C1073 C1067 1.428 . S
C1073 N1072 1.351 . S
C1073 C1074 1.434 . S
C1074 C1065 1.429 . S
C1074 N1071 1.350 . S
C1074 C1073 1.434 . S
C1075 C1076 1.369 . S
C1075 C1077 1.419 . S
C1075 H1079 0.930 . S
C1076 C1075 1.369 . S
C1076 C1085 1.429 . S
C1077 C1075 1.419 . S
C1077 C1078 1.363 . S
C1077 H1080 0.929 . S
C1078 C1077 1.363 . S
C1078 C1084 1.428 . S
H1079 C1075 0.930 . S
H1080 C1077 0.929 . S
S1081 N1082 1.613 . S
S1081 N1083 1.610 . S
N1082 S1081 1.613 . S
N1082 C1085 1.350 . S
N1083 S1081 1.610 . S
N1083 C1084 1.351 . S
C1084 C1078 1.428 . S
C1084 N1083 1.351 . S
C1084 C1085 1.434 . S
C1085 C1076 1.429 . S
C1085 N1082 1.350 . S
C1085 C1084 1.434 . S
C1086 C1087 1.369 . S
C1086 C1088 1.419 . S
C1086 H1090 0.930 . S
C1087 C1086 1.369 . S
C1087 C1096 1.429 . S
C1088 C1086 1.419 . S
C1088 C1089 1.363 . S
C1088 H1091 0.929 . S
C1089 C1088 1.363 . S
C1089 C1095 1.428 . S
H1090 C1086 0.930 . S
H1091 C1088 0.929 . S
S1092 N1093 1.613 . S
S1092 N1094 1.610 . S
N1093 S1092 1.613 . S
N1093 C1096 1.350 . S
N1094 S1092 1.610 . S
N1094 C1095 1.351 . S
C1095 C1089 1.428 . S
C1095 N1094 1.351 . S
C1095 C1096 1.434 . S
C1096 C1087 1.429 . S
C1096 N1093 1.350 . S
C1096 C1095 1.434 . S
C1097 C1098 1.369 . S
C1097 C1099 1.419 . S
C1097 H1101 0.930 . S
C1098 C1097 1.369 . S
C1098 C1107 1.429 . S
C1099 C1097 1.419 . S
C1099 C1100 1.363 . S
C1099 H1102 0.929 . S
C1100 C1099 1.363 . S
C1100 C1106 1.428 . S
H1101 C1097 0.930 . S
H1102 C1099 0.929 . S
S1103 N1104 1.613 . S
S1103 N1105 1.610 . S
N1104 S1103 1.613 . S
N1104 C1107 1.350 . S
N1105 S1103 1.610 . S
N1105 C1106 1.351 . S
C1106 C1100 1.428 . S
C1106 N1105 1.351 . S
C1106 C1107 1.434 . S
C1107 C1098 1.429 . S
C1107 N1104 1.350 . S
C1107 C1106 1.434 . S
C1108 C1109 1.369 . S
C1108 C1110 1.419 . S
C1108 H1112 0.930 . S
C1109 C1108 1.369 . S
C1109 C1118 1.429 . S
C1110 C1108 1.419 . S
C1110 C1111 1.363 . S
C1110 H1113 0.929 . S
C1111 C1110 1.363 . S
C1111 C1117 1.428 . S
H1112 C1108 0.930 . S
H1113 C1110 0.929 . S
S1114 N1115 1.613 . S
S1114 N1116 1.610 . S
N1115 S1114 1.613 . S
N1115 C1118 1.350 . S
N1116 S1114 1.610 . S
N1116 C1117 1.351 . S
C1117 C1111 1.428 . S
C1117 N1116 1.351 . S
C1117 C1118 1.434 . S
C1118 C1109 1.429 . S
C1118 N1115 1.350 . S
C1118 C1117 1.434 . S
C1119 C1120 1.369 . S
C1119 C1121 1.419 . S
C1119 H1123 0.930 . S
C1120 C1119 1.369 . S
C1120 C1129 1.429 . S
C1121 C1119 1.419 . S
C1121 C1122 1.363 . S
C1121 H1124 0.929 . S
C1122 C1121 1.363 . S
C1122 C1128 1.428 . S
H1123 C1119 0.930 . S
H1124 C1121 0.929 . S
S1125 N1126 1.613 . S
S1125 N1127 1.610 . S
N1126 S1125 1.613 . S
N1126 C1129 1.350 . S
N1127 S1125 1.610 . S
N1127 C1128 1.351 . S
C1128 C1122 1.428 . S
C1128 N1127 1.351 . S
C1128 C1129 1.434 . S
C1129 C1120 1.429 . S
C1129 N1126 1.350 . S
C1129 C1128 1.434 . S
C1130 C1131 1.369 . S
C1130 C1132 1.419 . S
C1130 H1134 0.930 . S
C1131 C1130 1.369 . S
C1131 C1140 1.429 . S
C1132 C1130 1.419 . S
C1132 C1133 1.363 . S
C1132 H1135 0.929 . S
C1133 C1132 1.363 . S
C1133 C1139 1.428 . S
H1134 C1130 0.930 . S
H1135 C1132 0.929 . S
S1136 N1137 1.613 . S
S1136 N1138 1.610 . S
N1137 S1136 1.613 . S
N1137 C1140 1.350 . S
N1138 S1136 1.610 . S
N1138 C1139 1.351 . S
C1139 C1133 1.428 . S
C1139 N1138 1.351 . S
C1139 C1140 1.434 . S
C1140 C1131 1.429 . S
C1140 N1137 1.350 . S
C1140 C1139 1.434 . S
C1141 C1142 1.369 . S
C1141 C1143 1.419 . S
C1141 H1145 0.930 . S
C1142 C1141 1.369 . S
C1142 C1151 1.429 . S
C1143 C1141 1.419 . S
C1143 C1144 1.363 . S
C1143 H1146 0.929 . S
C1144 C1143 1.363 . S
C1144 C1150 1.428 . S
H1145 C1141 0.930 . S
H1146 C1143 0.929 . S
S1147 N1148 1.613 . S
S1147 N1149 1.610 . S
N1148 S1147 1.613 . S
N1148 C1151 1.350 . S
N1149 S1147 1.610 . S
N1149 C1150 1.351 . S
C1150 C1144 1.428 . S
C1150 N1149 1.351 . S
C1150 C1151 1.434 . S
C1151 C1142 1.429 . S
C1151 N1148 1.350 . S
C1151 C1150 1.434 . S
C1152 C1153 1.369 . S
C1152 C1154 1.419 . S
C1152 H1156 0.930 . S
C1153 C1152 1.369 . S
C1153 C1162 1.429 . S
C1154 C1152 1.419 . S
C1154 C1155 1.363 . S
C1154 H1157 0.929 . S
C1155 C1154 1.363 . S
C1155 C1161 1.428 . S
H1156 C1152 0.930 . S
H1157 C1154 0.929 . S
S1158 N1159 1.613 . S
S1158 N1160 1.610 . S
N1159 S1158 1.613 . S
N1159 C1162 1.350 1_545 S
N1160 S1158 1.610 . S
N1160 C1161 1.351 1_545 S
C1161 C1155 1.428 . S
C1161 N1160 1.351 1_565 S
C1161 C1162 1.434 . S
C1162 C1153 1.429 . S
C1162 N1159 1.350 1_565 S
C1162 C1161 1.434 . S
C1163 C1164 1.369 . S
C1163 C1165 1.419 . S
C1163 H1167 0.930 . S
C1164 C1163 1.369 . S
C1164 C1173 1.429 . S
C1165 C1163 1.419 . S
C1165 C1166 1.363 . S
C1165 H1168 0.929 . S
C1166 C1165 1.363 . S
C1166 C1172 1.428 . S
H1167 C1163 0.930 . S
H1168 C1165 0.929 . S
S1169 N1170 1.613 . S
S1169 N1171 1.610 . S
N1170 S1169 1.613 . S
N1170 C1173 1.350 . S
N1171 S1169 1.610 . S
N1171 C1172 1.351 . S
C1172 C1166 1.428 . S
C1172 N1171 1.351 . S
C1172 C1173 1.434 . S
C1173 C1164 1.429 . S
C1173 N1170 1.350 . S
C1173 C1172 1.434 . S
C1174 C1175 1.369 . S
C1174 C1176 1.419 . S
C1174 H1178 0.930 . S
C1175 C1174 1.369 . S
C1175 C1184 1.429 . S
C1176 C1174 1.419 . S
C1176 C1177 1.363 . S
C1176 H1179 0.929 . S
C1177 C1176 1.363 . S
C1177 C1183 1.428 . S
H1178 C1174 0.930 . S
H1179 C1176 0.929 . S
S1180 N1181 1.613 . S
S1180 N1182 1.610 . S
N1181 S1180 1.613 . S
N1181 C1184 1.350 . S
N1182 S1180 1.610 . S
N1182 C1183 1.351 . S
C1183 C1177 1.428 . S
C1183 N1182 1.351 . S
C1183 C1184 1.434 . S
C1184 C1175 1.429 . S
C1184 N1181 1.350 . S
C1184 C1183 1.434 . S
C1185 C1186 1.369 . S
C1185 C1187 1.419 . S
C1185 H1189 0.930 1_556 S
C1186 C1185 1.369 . S
C1186 C1195 1.429 . S
C1187 C1185 1.419 . S
C1187 C1188 1.363 . S
C1187 H1190 0.929 . S
C1188 C1187 1.363 . S
C1188 C1194 1.428 . S
H1189 C1185 0.930 1_554 S
H1190 C1187 0.929 . S
S1191 N1192 1.613 . S
S1191 N1193 1.610 . S
N1192 S1191 1.613 . S
N1192 C1195 1.350 . S
N1193 S1191 1.610 . S
N1193 C1194 1.351 . S
C1194 C1188 1.428 . S
C1194 N1193 1.351 . S
C1194 C1195 1.434 . S
C1195 C1186 1.429 . S
C1195 N1192 1.350 . S
C1195 C1194 1.434 . S
C1196 C1197 1.369 . S
C1196 C1198 1.419 . S
C1196 H1200 0.930 . S
C1197 C1196 1.369 . S
C1197 C1206 1.429 . S
C1198 C1196 1.419 . S
C1198 C1199 1.363 . S
C1198 H1201 0.929 . S
C1199 C1198 1.363 . S
C1199 C1205 1.428 . S
H1200 C1196 0.930 . S
H1201 C1198 0.929 . S
S1202 N1203 1.613 1_556 S
S1202 N1204 1.610 . S
N1203 S1202 1.613 1_554 S
N1203 C1206 1.350 1_554 S
N1204 S1202 1.610 . S
N1204 C1205 1.351 . S
C1205 C1199 1.428 . S
C1205 N1204 1.351 . S
C1205 C1206 1.434 . S
C1206 C1197 1.429 . S
C1206 N1203 1.350 1_556 S
C1206 C1205 1.434 . S
C1207 C1208 1.369 . S
C1207 C1209 1.419 . S
C1207 H1211 0.930 . S
C1208 C1207 1.369 . S
C1208 C1217 1.429 . S
C1209 C1207 1.419 . S
C1209 C1210 1.363 . S
C1209 H1212 0.929 . S
C1210 C1209 1.363 . S
C1210 C1216 1.428 . S
H1211 C1207 0.930 . S
H1212 C1209 0.929 . S
S1213 N1214 1.613 . S
S1213 N1215 1.610 1_556 S
N1214 S1213 1.613 . S
N1214 C1217 1.350 . S
N1215 S1213 1.610 1_554 S
N1215 C1216 1.351 1_554 S
C1216 C1210 1.428 . S
C1216 N1215 1.351 1_556 S
C1216 C1217 1.434 . S
C1217 C1208 1.429 . S
C1217 N1214 1.350 . S
C1217 C1216 1.434 . S
C1218 C1219 1.369 . S
C1218 C1220 1.419 . S
C1218 H1222 0.930 . S
C1219 C1218 1.369 . S
C1219 C1228 1.429 . S
C1220 C1218 1.419 . S
C1220 C1221 1.363 . S
C1220 H1223 0.929 . S
C1221 C1220 1.363 . S
C1221 C1227 1.428 . S
H1222 C1218 0.930 . S
H1223 C1220 0.929 . S
S1224 N1225 1.613 . S
S1224 N1226 1.610 . S
N1225 S1224 1.613 . S
N1225 C1228 1.350 . S
N1226 S1224 1.610 . S
N1226 C1227 1.351 . S
C1227 C1221 1.428 . S
C1227 N1226 1.351 . S
C1227 C1228 1.434 . S
C1228 C1219 1.429 . S
C1228 N1225 1.350 . S
C1228 C1227 1.434 . S
C1229 C1230 1.369 . S
C1229 C1231 1.419 . S
C1229 H1233 0.930 . S
C1230 C1229 1.369 . S
C1230 C1239 1.429 . S
C1231 C1229 1.419 . S
C1231 C1232 1.363 . S
C1231 H1234 0.929 . S
C1232 C1231 1.363 . S
C1232 C1238 1.428 . S
H1233 C1229 0.930 . S
H1234 C1231 0.929 . S
S1235 N1236 1.613 . S
S1235 N1237 1.610 . S
N1236 S1235 1.613 . S
N1236 C1239 1.350 . S
N1237 S1235 1.610 . S
N1237 C1238 1.351 . S
C1238 C1232 1.428 . S
C1238 N1237 1.351 . S
C1238 C1239 1.434 . S
C1239 C1230 1.429 . S
C1239 N1236 1.350 . S
C1239 C1238 1.434 . S
C1240 C1241 1.369 . S
C1240 C1242 1.419 . S
C1240 H1244 0.930 . S
C1241 C1240 1.369 . S
C1241 C1250 1.429 . S
C1242 C1240 1.419 . S
C1242 C1243 1.363 . S
C1242 H1245 0.929 . S
C1243 C1242 1.363 . S
C1243 C1249 1.428 . S
H1244 C1240 0.930 . S
H1245 C1242 0.929 . S
S1246 N1247 1.613 . S
S1246 N1248 1.610 . S
N1247 S1246 1.613 . S
N1247 C1250 1.350 . S
N1248 S1246 1.610 . S
N1248 C1249 1.351 . S
C1249 C1243 1.428 . S
C1249 N1248 1.351 . S
C1249 C1250 1.434 . S
C1250 C1241 1.429 . S
C1250 N1247 1.350 . S
C1250 C1249 1.434 . S
C1251 C1252 1.369 . S
C1251 C1253 1.419 . S
C1251 H1255 0.930 . S
C1252 C1251 1.369 . S
C1252 C1261 1.429 . S
C1253 C1251 1.419 . S
C1253 C1254 1.363 . S
C1253 H1256 0.929 . S
C1254 C1253 1.363 . S
C1254 C1260 1.428 . S
H1255 C1251 0.930 . S
H1256 C1253 0.929 . S
S1257 N1258 1.613 . S
S1257 N1259 1.610 . S
N1258 S1257 1.613 . S
N1258 C1261 1.350 . S
N1259 S1257 1.610 . S
N1259 C1260 1.351 . S
C1260 C1254 1.428 . S
C1260 N1259 1.351 . S
C1260 C1261 1.434 . S
C1261 C1252 1.429 . S
C1261 N1258 1.350 . S
C1261 C1260 1.434 . S
C1262 C1263 1.369 . S
C1262 C1264 1.419 . S
C1262 H1266 0.930 1_554 S
C1263 C1262 1.369 . S
C1263 C1272 1.429 . S
C1264 C1262 1.419 . S
C1264 C1265 1.363 . S
C1264 H1267 0.929 . S
C1265 C1264 1.363 . S
C1265 C1271 1.428 . S
H1266 C1262 0.930 1_556 S
H1267 C1264 0.929 . S
S1268 N1269 1.613 . S
S1268 N1270 1.610 . S
N1269 S1268 1.613 . S
N1269 C1272 1.350 . S
N1270 S1268 1.610 . S
N1270 C1271 1.351 . S
C1271 C1265 1.428 . S
C1271 N1270 1.351 . S
C1271 C1272 1.434 . S
C1272 C1263 1.429 . S
C1272 N1269 1.350 . S
C1272 C1271 1.434 . S
C1273 C1274 1.369 . S
C1273 C1275 1.419 . S
C1273 H1277 0.930 . S
C1274 C1273 1.369 . S
C1274 C1283 1.429 . S
C1275 C1273 1.419 . S
C1275 C1276 1.363 . S
C1275 H1278 0.929 . S
C1276 C1275 1.363 . S
C1276 C1282 1.428 . S
H1277 C1273 0.930 . S
H1278 C1275 0.929 . S
S1279 N1280 1.613 1_545 S
S1279 N1281 1.610 . S
N1280 S1279 1.613 1_565 S
N1280 C1283 1.350 . S
N1281 S1279 1.610 . S
N1281 C1282 1.351 1_545 S
C1282 C1276 1.428 . S
C1282 N1281 1.351 1_565 S
C1282 C1283 1.434 . S
C1283 C1274 1.429 . S
C1283 N1280 1.350 . S
C1283 C1282 1.434 . S
C1284 C1285 1.369 . S
C1284 C1286 1.419 . S
C1284 H1288 0.930 . S
C1285 C1284 1.369 . S
C1285 C1294 1.429 . S
C1286 C1284 1.419 . S
C1286 C1287 1.363 . S
C1286 H1289 0.929 . S
C1287 C1286 1.363 . S
C1287 C1293 1.428 . S
H1288 C1284 0.930 . S
H1289 C1286 0.929 . S
S1290 N1291 1.613 . S
S1290 N1292 1.610 . S
N1291 S1290 1.613 . S
N1291 C1294 1.350 . S
N1292 S1290 1.610 . S
N1292 C1293 1.351 . S
C1293 C1287 1.428 . S
C1293 N1292 1.351 . S
C1293 C1294 1.434 . S
C1294 C1285 1.429 . S
C1294 N1291 1.350 . S
C1294 C1293 1.434 . S
C1295 C1296 1.369 . S
C1295 C1297 1.419 1_545 S
C1295 H1299 0.930 . S
C1296 C1295 1.369 . S
C1296 C1305 1.429 . S
C1297 C1295 1.419 1_565 S
C1297 C1298 1.363 . S
C1297 H1300 0.929 . S
C1298 C1297 1.363 . S
C1298 C1304 1.428 . S
H1299 C1295 0.930 . S
H1300 C1297 0.929 . S
S1301 N1302 1.613 . S
S1301 N1303 1.610 1_545 S
N1302 S1301 1.613 . S
N1302 C1305 1.350 . S
N1303 S1301 1.610 1_565 S
N1303 C1304 1.351 . S
C1304 C1298 1.428 . S
C1304 N1303 1.351 . S
C1304 C1305 1.434 1_565 S
C1305 C1296 1.429 . S
C1305 N1302 1.350 . S
C1305 C1304 1.434 1_545 S
C1306 C1307 1.369 . S
C1306 C1308 1.419 . S
C1306 H1310 0.930 . S
C1307 C1306 1.369 . S
C1307 C1316 1.429 . S
C1308 C1306 1.419 . S
C1308 C1309 1.363 . S
C1308 H1311 0.929 . S
C1309 C1308 1.363 . S
C1309 C1315 1.428 . S
H1310 C1306 0.930 . S
H1311 C1308 0.929 . S
S1312 N1313 1.618 . S
S1312 N1314 1.602 1_455 S
N1313 S1312 1.618 . S
N1313 C1316 1.350 . S
N1314 S1312 1.602 1_655 S
N1314 C1315 1.351 1_655 S
C1315 C1309 1.428 . S
C1315 N1314 1.351 1_455 S
C1315 C1316 1.434 . S
C1316 C1307 1.429 . S
C1316 N1313 1.350 . S
C1316 C1315 1.434 . S
C1317 C1318 1.369 . S
C1317 C1319 1.419 . S
C1317 H1321 0.930 . S
C1318 C1317 1.369 . S
C1318 C1327 1.429 . S
C1319 C1317 1.419 . S
C1319 C1320 1.363 . S
C1319 H1322 0.929 . S
C1320 C1319 1.363 . S
C1320 C1326 1.428 . S
H1321 C1317 0.930 . S
H1322 C1319 0.929 . S
S1323 N1324 1.613 . S
S1323 N1325 1.610 . S
N1324 S1323 1.613 . S
N1324 C1327 1.350 . S
N1325 S1323 1.610 . S
N1325 C1326 1.351 . S
C1326 C1320 1.428 . S
C1326 N1325 1.351 . S
C1326 C1327 1.434 . S
C1327 C1318 1.429 . S
C1327 N1324 1.350 . S
C1327 C1326 1.434 . S
C1328 C1329 1.369 . S
C1328 C1330 1.419 . S
C1328 H1332 0.930 . S
C1329 C1328 1.369 . S
C1329 C1338 1.429 . S
C1330 C1328 1.419 . S
C1330 C1331 1.363 . S
C1330 H1333 0.929 . S
C1331 C1330 1.363 . S
C1331 C1337 1.428 . S
H1332 C1328 0.930 . S
H1333 C1330 0.929 . S
S1334 N1335 1.613 1_565 S
S1334 N1336 1.610 . S
N1335 S1334 1.613 1_545 S
N1335 C1338 1.350 . S
N1336 S1334 1.610 . S
N1336 C1337 1.351 1_565 S
C1337 C1331 1.428 . S
C1337 N1336 1.351 1_545 S
C1337 C1338 1.434 . S
C1338 C1329 1.429 . S
C1338 N1335 1.350 . S
C1338 C1337 1.434 . S
C1339 C1340 1.369 . S
C1339 C1341 1.419 1_655 S
C1339 H1343 0.930 . S
C1340 C1339 1.369 . S
C1340 C1349 1.429 . S
C1341 C1339 1.419 1_455 S
C1341 C1342 1.363 . S
C1341 H1344 0.929 . S
C1342 C1341 1.363 . S
C1342 C1348 1.428 1_455 S
H1343 C1339 0.930 . S
H1344 C1341 0.929 . S
S1345 N1346 1.613 . S
S1345 N1347 1.610 . S
N1346 S1345 1.613 . S
N1346 C1349 1.350 . S
N1347 S1345 1.610 . S
N1347 C1348 1.351 . S
C1348 C1342 1.428 1_655 S
C1348 N1347 1.351 . S
C1348 C1349 1.434 . S
C1349 C1340 1.429 . S
C1349 N1346 1.350 . S
C1349 C1348 1.434 . S
C559 C55 1.481 . S
C561 C11 1.275 . S
C570 C42 1.276 . S
C572 C86 1.480 1_545 S
C581 C73 1.277 . S
C583 C24 1.481 . S
C592 C124 1.483 . S
C594 C111 1.270 1_565 S
C603 C155 1.482 . S
C605 C142 1.261 . S
C614 C173 1.271 . S
C616 C93 1.481 1_455 S
C625 C197 1.276 . S
C627 C241 1.482 . S
C636 C228 1.277 . S
C638 C272 1.481 . S
C647 C210 1.483 . S
C649 C259 1.265 . S
C658 C297 1.259 . S
C660 C310 1.483 . S
C669 C341 1.483 . S
C671 C328 1.261 . S
C680 C359 1.276 . S
C682 C279 1.481 . S
C691 C383 1.277 . S
C693 C427 1.481 . S
C702 C414 1.277 . S
C704 C458 1.481 . S
C713 C445 1.274 . S
C715 C396 1.480 . S
C724 C496 1.480 . S
C726 C483 1.270 . S
C735 C514 1.277 . S
C737 C527 1.481 . S
C746 C545 1.276 . S
C748 C465 1.481 . S
C757 C10 1.238 . S
C759 C156 1.227 . S
C768 C41 1.250 . S
C770 C94 1.221 . S
C779 C72 1.246 . S
C781 C125 1.216 . S
C790 C33 1.251 . S
C792 C182 1.307 . S
C801 C120 1.310 . S
C803 C64 1.244 . S
C812 C2 1.241 . S
C814 C151 1.308 . S
C823 C89 1.228 . S
C825 C95 1.240 . S
C834 C126 1.237 . S
C836 C27 1.226 . S
C845 C157 1.250 . S
C847 C58 1.214 . S
C856 C134 1.253 . S
C858 C63 1.307 . S
C867 C165 1.245 . S
C869 C1 1.309 . S
C878 C32 1.310 . S
C880 C103 1.242 . S
C889 C196 1.237 . S
C891 C342 1.226 . S
C900 C280 1.212 . S
C902 C227 1.250 . S
C911 C311 1.225 . S
C913 C258 1.246 . S
C922 C219 1.254 . S
C924 C368 1.305 . S
C933 C306 1.310 . S
C935 C250 1.242 . S
C944 C337 1.309 . S
C946 C188 1.243 . S
C955 C281 1.241 . S
C957 C275 1.216 . S
C966 C213 1.223 . S
C968 C312 1.239 . S
C977 C244 1.212 . S
C979 C343 1.248 . S
C988 C249 1.311 . S
C990 C320 1.243 . S
C999 C351 1.244 . S
C1001 C187 1.309 . S
C1010 C289 1.254 . S
C1012 C218 1.304 . S
C1021 C382 1.237 . S
C1023 C528 1.224 . S
C1032 C413 1.237 . S
C1034 C466 1.226 . S
C1043 C497 1.228 . S
C1045 C444 1.239 . S
C1054 C405 1.249 . S
C1056 C554 1.305 . S
C1065 C436 1.242 . S
C1067 C492 1.310 . S
C1076 C523 1.305 . S
C1078 C374 1.252 . S
C1087 C467 1.237 . S
C1089 C461 1.223 . S
C1098 C498 1.248 . S
C1100 C399 1.214 . S
C1109 C529 1.240 . S
C1111 C430 1.227 . S
C1120 C506 1.241 . S
C1122 C435 1.309 . S
C1131 C537 1.246 . S
C1133 C373 1.306 . S
C1142 C475 1.246 . S
C1144 C404 1.306 . S
C1153 C18 2.144 . S
C1155 C403 1.803 . S
C1164 C49 2.147 . S
C1166 C434 1.792 . S
C1175 C372 1.804 . S
C1177 C80 2.145 . S
C1186 C204 2.146 1_556 S
C1188 C31 1.799 . S
C1197 C235 2.145 1_556 S
C1199 C62 1.798 . S
C1208 C0 1.793 . S
C1210 C266 2.147 1_556 S
C1219 C104 2.145 . S
C1221 C334 1.801 . S
C1230 C135 2.144 . S
C1232 C365 1.803 . S
C1241 C303 1.802 . S
C1243 C166 2.145 . S
C1252 C148 1.802 . S
C1254 C476 2.142 1_554 S
C1263 C507 2.144 1_554 S
C1265 C179 1.801 . S
C1274 C538 2.146 1_554 S
C1276 C117 1.798 . S
C1285 C217 1.794 . S
C1287 C390 2.147 . S
C1296 C248 1.797 . S
C1298 C421 2.145 . S
C1307 C452 2.145 . S
C1309 C186 1.799 1_455 S
C1318 C290 2.146 . S
C1320 C520 1.799 . S
C1329 C321 2.147 . S
C1331 C551 1.793 1_545 S
C1340 C352 2.145 . S
C1342 C489 1.800 . S
