# Generated by pormake.
# Topology pcl, (4)-cn, num edge types: 1
# Building blocks:
#     Node 0, Type 0, BuildingBlock: QUQFOY_clean_sbu_1, # of connection points: 4
#     Node 1, Type 0, BuildingBlock: QUQFOY_clean_sbu_1, # of connection points: 4
#     Node 2, Type 0, BuildingBlock: QUQFOY_clean_sbu_1, # of connection points: 4
#     Node 3, Type 0, BuildingBlock: QUQFOY_clean_sbu_1, # of connection points: 4
#     Node 4, Type 0, BuildingBlock: QUQFOY_clean_sbu_1, # of connection points: 4
#     Node 5, Type 0, BuildingBlock: QUQFOY_clean_sbu_1, # of connection points: 4
#     Node 6, Type 0, BuildingBlock: QUQFOY_clean_sbu_1, # of connection points: 4
#     Node 7, Type 0, BuildingBlock: QUQFOY_clean_sbu_1, # of connection points: 4
#     Node 8, Type 0, BuildingBlock: QUQFOY_clean_sbu_1, # of connection points: 4
#     Node 9, Type 0, BuildingBlock: QUQFOY_clean_sbu_1, # of connection points: 4
#     Node 10, Type 0, BuildingBlock: QUQFOY_clean_sbu_1, # of connection points: 4
#     Node 11, Type 0, BuildingBlock: QUQFOY_clean_sbu_1, # of connection points: 4
#     Node 12, Type 0, BuildingBlock: QUQFOY_clean_sbu_1, # of connection points: 4
#     Node 13, Type 0, BuildingBlock: QUQFOY_clean_sbu_1, # of connection points: 4
#     Node 14, Type 0, BuildingBlock: QUQFOY_clean_sbu_1, # of connection points: 4
#     Node 15, Type 0, BuildingBlock: QUQFOY_clean_sbu_1, # of connection points: 4
#     Edge 16, Type (0, 0), BuildingBlock: EZIPEK_clean_linker_0, # of connection points: 2
#     Edge 17, Type (0, 0), BuildingBlock: EZIPEK_clean_linker_0, # of connection points: 2
#     Edge 18, Type (0, 0), BuildingBlock: EZIPEK_clean_linker_0, # of connection points: 2
#     Edge 19, Type (0, 0), BuildingBlock: EZIPEK_clean_linker_0, # of connection points: 2
#     Edge 20, Type (0, 0), BuildingBlock: EZIPEK_clean_linker_0, # of connection points: 2
#     Edge 21, Type (0, 0), BuildingBlock: EZIPEK_clean_linker_0, # of connection points: 2
#     Edge 22, Type (0, 0), BuildingBlock: EZIPEK_clean_linker_0, # of connection points: 2
#     Edge 23, Type (0, 0), BuildingBlock: EZIPEK_clean_linker_0, # of connection points: 2
#     Edge 24, Type (0, 0), BuildingBlock: EZIPEK_clean_linker_0, # of connection points: 2
#     Edge 25, Type (0, 0), BuildingBlock: EZIPEK_clean_linker_0, # of connection points: 2
#     Edge 26, Type (0, 0), BuildingBlock: EZIPEK_clean_linker_0, # of connection points: 2
#     Edge 27, Type (0, 0), BuildingBlock: EZIPEK_clean_linker_0, # of connection points: 2
#     Edge 28, Type (0, 0), BuildingBlock: EZIPEK_clean_linker_0, # of connection points: 2
#     Edge 29, Type (0, 0), BuildingBlock: EZIPEK_clean_linker_0, # of connection points: 2
#     Edge 30, Type (0, 0), BuildingBlock: EZIPEK_clean_linker_0, # of connection points: 2
#     Edge 31, Type (0, 0), BuildingBlock: EZIPEK_clean_linker_0, # of connection points: 2
#     Edge 32, Type (0, 0), BuildingBlock: EZIPEK_clean_linker_0, # of connection points: 2
#     Edge 33, Type (0, 0), BuildingBlock: EZIPEK_clean_linker_0, # of connection points: 2
#     Edge 34, Type (0, 0), BuildingBlock: EZIPEK_clean_linker_0, # of connection points: 2
#     Edge 35, Type (0, 0), BuildingBlock: EZIPEK_clean_linker_0, # of connection points: 2
#     Edge 36, Type (0, 0), BuildingBlock: EZIPEK_clean_linker_0, # of connection points: 2
#     Edge 37, Type (0, 0), BuildingBlock: EZIPEK_clean_linker_0, # of connection points: 2
#     Edge 38, Type (0, 0), BuildingBlock: EZIPEK_clean_linker_0, # of connection points: 2
#     Edge 39, Type (0, 0), BuildingBlock: EZIPEK_clean_linker_0, # of connection points: 2
#     Edge 40, Type (0, 0), BuildingBlock: EZIPEK_clean_linker_0, # of connection points: 2
#     Edge 41, Type (0, 0), BuildingBlock: EZIPEK_clean_linker_0, # of connection points: 2
#     Edge 42, Type (0, 0), BuildingBlock: EZIPEK_clean_linker_0, # of connection points: 2
#     Edge 43, Type (0, 0), BuildingBlock: EZIPEK_clean_linker_0, # of connection points: 2
#     Edge 44, Type (0, 0), BuildingBlock: EZIPEK_clean_linker_0, # of connection points: 2
#     Edge 45, Type (0, 0), BuildingBlock: EZIPEK_clean_linker_0, # of connection points: 2
#     Edge 46, Type (0, 0), BuildingBlock: EZIPEK_clean_linker_0, # of connection points: 2
#     Edge 47, Type (0, 0), BuildingBlock: EZIPEK_clean_linker_0, # of connection points: 2
# Relax obj value: 0.098
# Max RMSD: 0.133
# Mean RMSD: 0.118
data_MOF--net-pcl--node1-QUQFOY_clean_sbu_1--edge1-EZIPEK_clean_linker_0
_symmetry_space_group_name_H-M    P1
_symmetry_Int_Tables_number       1
_symmetry_cell_setting            triclinic
loop_
_symmetry_equiv_pos_as_xyz
'x, y, z'
_cell_length_a     39.295018
_cell_length_b     33.575201
_cell_length_c     34.161794
_cell_angle_alpha  89.87397
_cell_angle_beta   90.052854
_cell_angle_gamma 89.908968
loop_
_atom_site_label
_atom_site_type_symbol
_atom_site_fract_x
_atom_site_fract_y
_atom_site_fract_z
_atom_type_partial_charge
O0 O 0.16145 0.30921 0.15639 0.0
Cd1 Cd 0.15421 0.30044 0.09698 0.0
Cd2 Cd 0.13653 0.37823 0.09869 0.0
O3 O 0.15244 0.37421 0.15625 0.0
O4 O 0.18347 0.25463 0.08108 0.0
O5 O 0.19146 0.3163 0.05963 0.0
C6 C 0.20112 0.27948 0.06062 0.0
C7 C 0.14894 0.43421 0.06063 0.0
C8 C 0.15985 0.34226 0.17443 0.0
C9 C 0.08193 0.31817 0.07785 0.0
O10 O 0.08964 0.35396 0.0858 0.0
O11 O 0.10446 0.29092 0.07845 0.0
O12 O 0.12833 0.43606 0.08985 0.0
O13 O 0.16427 0.40086 0.05403 0.0
O14 O 0.8533 0.69275 0.65556 0.0
Cd15 Cd 0.86302 0.70011 0.59655 0.0
Cd16 Cd 0.88055 0.62261 0.6018 0.0
O17 O 0.86211 0.62778 0.65831 0.0
O18 O 0.8347 0.74589 0.57856 0.0
O19 O 0.82728 0.68403 0.55756 0.0
C20 C 0.81766 0.72087 0.55768 0.0
C21 C 0.86923 0.56752 0.56231 0.0
C22 C 0.85405 0.66035 0.67487 0.0
C23 C 0.93591 0.68219 0.58257 0.0
O24 O 0.92796 0.64666 0.59142 0.0
O25 O 0.91335 0.70933 0.58064 0.0
O26 O 0.88828 0.56466 0.59291 0.0
O27 O 0.85457 0.60124 0.55531 0.0
O28 O 0.15912 0.69932 0.86106 0.0
Cd29 Cd 0.14918 0.70806 0.91962 0.0
Cd30 Cd 0.1403 0.62865 0.92043 0.0
O31 O 0.15644 0.63358 0.86277 0.0
O32 O 0.17747 0.75291 0.93932 0.0
O33 O 0.18381 0.69025 0.95912 0.0
C34 C 0.19389 0.72691 0.95997 0.0
C35 C 0.15186 0.57122 0.95728 0.0
C36 C 0.16085 0.66585 0.84386 0.0
C37 C 0.079 0.68352 0.9352 0.0
O38 O 0.09167 0.64887 0.93144 0.0
O39 O 0.09801 0.71403 0.93308 0.0
O40 O 0.16639 0.60448 0.96599 0.0
O41 O 0.13307 0.57018 0.92646 0.0
O42 O 0.8629 0.31177 0.35535 0.0
Cd43 Cd 0.86834 0.30434 0.41516 0.0
Cd44 Cd 0.88285 0.38233 0.41197 0.0
O45 O 0.86552 0.37756 0.35496 0.0
O46 O 0.84296 0.25541 0.43034 0.0
O47 O 0.82783 0.31585 0.4495 0.0
C48 C 0.82189 0.27799 0.44895 0.0
C49 C 0.87003 0.43648 0.45212 0.0
C50 C 0.86142 0.34475 0.33703 0.0
C51 C 0.93967 0.32541 0.43282 0.0
O52 O 0.93102 0.36031 0.42244 0.0
O53 O 0.91774 0.29776 0.43527 0.0
O54 O 0.88907 0.44032 0.42168 0.0
O55 O 0.85609 0.40227 0.45854 0.0
O56 O 0.85796 0.6069 0.99688 0.0
Cd57 Cd 0.86508 0.66606 0.9849 0.0
Cd58 Cd 0.86789 0.64094 0.90792 0.0
O59 O 0.85775 0.58681 0.93524 0.0
O60 O 0.84095 0.69709 0.02604 0.0
O61 O 0.82548 0.69694 0.96344 0.0
C62 C 0.81962 0.70774 0.99917 0.0
C63 C 0.85074 0.64847 0.84253 0.0
C64 C 0.85567 0.57933 0.9717 0.0
C65 C 0.93142 0.67768 0.94625 0.0
O66 O 0.91576 0.66475 0.91631 0.0
O67 O 0.91569 0.68203 0.97848 0.0
O68 O 0.87375 0.62329 0.85258 0.0
O69 O 0.83589 0.66862 0.86973 0.0
O70 O 0.15454 0.39691 0.49428 0.0
Cd71 Cd 0.15334 0.33843 0.47612 0.0
Cd72 Cd 0.14214 0.37457 0.406 0.0
O73 O 0.1576 0.42495 0.43576 0.0
O74 O 0.17504 0.30769 0.51934 0.0
O75 O 0.19803 0.31346 0.46048 0.0
C76 C 0.2003 0.30093 0.4962 0.0
C77 C 0.15872 0.363 0.34149 0.0
C78 C 0.15827 0.42757 0.47287 0.0
C79 C 0.08431 0.32898 0.44379 0.0
O80 O 0.09376 0.35432 0.41841 0.0
O81 O 0.10531 0.3147 0.46842 0.0
O82 O 0.13784 0.39119 0.35017 0.0
O83 O 0.17176 0.34223 0.36964 0.0
O84 O 0.86237 0.38983 0.01539 0.0
Cd85 Cd 0.86724 0.33125 0.03272 0.0
Cd86 Cd 0.88091 0.36744 0.10355 0.0
O87 O 0.86631 0.41817 0.07361 0.0
O88 O 0.84229 0.30057 0.99189 0.0
O89 O 0.82553 0.30381 0.05376 0.0
C90 C 0.81993 0.29222 0.01826 0.0
C91 C 0.86557 0.35917 0.16907 0.0
C92 C 0.86168 0.42066 0.03687 0.0
C93 C 0.93765 0.32135 0.0632 0.0
O94 O 0.92832 0.34474 0.09032 0.0
O95 O 0.91655 0.30924 0.03758 0.0
O96 O 0.88769 0.38528 0.15859 0.0
O97 O 0.8509 0.33829 0.14223 0.0
O98 O 0.15394 0.61281 0.52324 0.0
Cd99 Cd 0.15013 0.67167 0.5398 0.0
Cd100 Cd 0.13936 0.63735 0.61149 0.0
O101 O 0.15448 0.58635 0.58258 0.0
O102 O 0.17435 0.70253 0.49848 0.0
O103 O 0.19179 0.69956 0.5602 0.0
C104 C 0.19673 0.71153 0.52464 0.0
C105 C 0.15599 0.64741 0.67638 0.0
C106 C 0.15661 0.58272 0.54563 0.0
C107 C 0.08074 0.68101 0.57165 0.0
O108 O 0.09099 0.65808 0.59886 0.0
O109 O 0.10114 0.69348 0.5455 0.0
O110 O 0.13433 0.62034 0.66713 0.0
O111 O 0.16942 0.66832 0.64867 0.0
O112 O 0.65699 0.80447 0.15929 0.0
Cd113 Cd 0.65038 0.79777 0.09959 0.0
Cd114 Cd 0.63432 0.87567 0.10325 0.0
O115 O 0.65014 0.86981 0.16066 0.0
O116 O 0.67939 0.75225 0.08245 0.0
O117 O 0.68796 0.81455 0.06315 0.0
C118 C 0.69737 0.77763 0.063 0.0
C119 C 0.64817 0.93222 0.06672 0.0
C120 C 0.65637 0.83711 0.17808 0.0
C121 C 0.57858 0.81752 0.08096 0.0
O122 O 0.58692 0.85287 0.08993 0.0
O123 O 0.60065 0.78976 0.08056 0.0
O124 O 0.62737 0.93395 0.09576 0.0
O125 O 0.66275 0.89857 0.05936 0.0
O126 O 0.36212 0.19844 0.65653 0.0
Cd127 Cd 0.36934 0.20552 0.59702 0.0
Cd128 Cd 0.38472 0.12753 0.60096 0.0
O129 O 0.36586 0.13274 0.65729 0.0
O130 O 0.3435 0.25387 0.58098 0.0
O131 O 0.32963 0.19303 0.5618 0.0
C132 C 0.32294 0.23074 0.5623 0.0
C133 C 0.37271 0.07247 0.56165 0.0
C134 C 0.36051 0.1655 0.67487 0.0
C135 C 0.44128 0.18514 0.58102 0.0
O136 O 0.43282 0.1501 0.5911 0.0
O137 O 0.41911 0.2126 0.57832 0.0
O138 O 0.39148 0.06939 0.59244 0.0
O139 O 0.35878 0.10653 0.55421 0.0
O140 O 0.65731 0.18999 0.85691 0.0
Cd141 Cd 0.65099 0.20555 0.91471 0.0
Cd142 Cd 0.64724 0.12624 0.92552 0.0
O143 O 0.66853 0.12707 0.86968 0.0
O144 O 0.68057 0.25116 0.92978 0.0
O145 O 0.68691 0.18982 0.95341 0.0
C146 C 0.69725 0.22634 0.95158 0.0
C147 C 0.65641 0.06984 0.96477 0.0
C148 C 0.66597 0.15554 0.84521 0.0
C149 C 0.58326 0.18 0.93489 0.0
O150 O 0.59744 0.14595 0.93268 0.0
O151 O 0.60093 0.21137 0.93111 0.0
O152 O 0.63923 0.0681 0.9328 0.0
O153 O 0.67049 0.10328 0.97373 0.0
O154 O 0.35506 0.8134 0.36021 0.0
Cd155 Cd 0.36249 0.80433 0.41956 0.0
Cd156 Cd 0.38178 0.88183 0.41704 0.0
O157 O 0.36585 0.87801 0.35943 0.0
O158 O 0.33332 0.75862 0.43554 0.0
O159 O 0.32607 0.82001 0.45795 0.0
C160 C 0.31635 0.78324 0.45697 0.0
C161 C 0.37121 0.93816 0.45526 0.0
C162 C 0.35763 0.84617 0.3417 0.0
C163 C 0.43504 0.81979 0.43782 0.0
O164 O 0.42802 0.85583 0.42986 0.0
O165 O 0.41203 0.79322 0.43746 0.0
O166 O 0.39148 0.93938 0.42568 0.0
O167 O 0.35499 0.90543 0.46194 0.0
O168 O 0.36034 0.10666 0.99643 0.0
Cd169 Cd 0.3683 0.16567 0.9841 0.0
Cd170 Cd 0.37141 0.13914 0.90779 0.0
O171 O 0.35792 0.086 0.93503 0.0
O172 O 0.3442 0.19728 0.02488 0.0
O173 O 0.32907 0.19693 0.96219 0.0
C174 C 0.3231 0.20801 0.9978 0.0
C175 C 0.35584 0.14887 0.84224 0.0
C176 C 0.35636 0.07899 0.97163 0.0
C177 C 0.43552 0.17389 0.94691 0.0
O178 O 0.42026 0.15943 0.91738 0.0
O179 O 0.41914 0.18095 0.97824 0.0
O180 O 0.37716 0.12175 0.85239 0.0
O181 O 0.34165 0.16971 0.86941 0.0
O182 O 0.65323 0.89065 0.49709 0.0
Cd183 Cd 0.64904 0.83171 0.48077 0.0
Cd184 Cd 0.63552 0.86519 0.40982 0.0
O185 O 0.64911 0.91711 0.43794 0.0
O186 O 0.67498 0.80093 0.52078 0.0
O187 O 0.69003 0.80408 0.45827 0.0
C188 C 0.69638 0.79206 0.49352 0.0
C189 C 0.65201 0.85429 0.34519 0.0
C190 C 0.65352 0.92082 0.47461 0.0
C191 C 0.5789 0.82045 0.45117 0.0
O192 O 0.58811 0.84294 0.42321 0.0
O193 O 0.60005 0.80927 0.47717 0.0
O194 O 0.62963 0.88079 0.35397 0.0
O195 O 0.66628 0.83454 0.37323 0.0
O196 O 0.35789 0.89055 0.02101 0.0
Cd197 Cd 0.36309 0.83256 0.04006 0.0
Cd198 Cd 0.37818 0.87058 0.1089 0.0
O199 O 0.36405 0.92089 0.07795 0.0
O200 O 0.33777 0.80083 1.00038 0.0
O201 O 0.32182 0.80519 0.06244 0.0
C202 C 0.31582 0.79282 0.02729 0.0
C203 C 0.36157 0.86193 0.1739 0.0
C204 C 0.35843 0.92218 0.04133 0.0
C205 C 0.43413 0.82323 0.06903 0.0
O206 O 0.42541 0.84726 0.09589 0.0
O207 O 0.41252 0.81077 0.04414 0.0
O208 O 0.38371 0.88836 0.16418 0.0
O209 O 0.34756 0.84112 0.14654 0.0
O210 O 0.65701 0.10775 0.52294 0.0
Cd211 Cd 0.65521 0.16701 0.53881 0.0
Cd212 Cd 0.64126 0.1327 0.61135 0.0
O213 O 0.65098 0.08043 0.58159 0.0
O214 O 0.67662 0.19598 0.49422 0.0
O215 O 0.69958 0.19357 0.55328 0.0
C216 C 0.70165 0.20456 0.51709 0.0
C217 C 0.65906 0.13764 0.67704 0.0
C218 C 0.65555 0.07719 0.5449 0.0
C219 C 0.58593 0.18142 0.57091 0.0
O220 O 0.59496 0.15904 0.59907 0.0
O221 O 0.60693 0.19122 0.54431 0.0
O222 O 0.63338 0.11635 0.66674 0.0
O223 O 0.67565 0.15557 0.64961 0.0
C224 C 0.02511 0.29033 0.09769 0.0
C225 C 0.04582 0.30895 0.06897 0.0
C226 C 0.99508 0.32844 0.03158 0.0
C227 C 0.9743 0.31079 0.06086 0.0
N228 N 0.96885 0.26675 0.11606 0.0
N229 N 0.05177 0.33632 1.00426 0.0
C230 C 0.98921 0.28889 0.092 0.0
C231 C 0.03111 0.32479 0.03438 0.0
N232 N 0.03952 0.2762 0.13142 0.0
N233 N 0.98057 0.35092 1.0026 0.0
H234 H 0.07823 0.33387 1.00568 0.0
H235 H 0.04278 0.34473 0.97678 0.0
H236 H 0.95433 0.35379 0.99904 0.0
H237 H 0.99443 0.36872 0.98341 0.0
H238 H 0.02554 0.2668 0.15559 0.0
H239 H 0.06573 0.27589 0.13621 0.0
H240 H 0.97811 0.24728 0.13731 0.0
H241 H 0.94251 0.26519 0.1123 0.0
C242 C 0.99214 0.70998 0.60431 0.0
C243 C 0.97221 0.69122 0.57502 0.0
C244 C 0.02378 0.67175 0.53954 0.0
C245 C 0.04383 0.68994 0.56916 0.0
N246 N 0.04782 0.73401 0.62438 0.0
N247 N 0.96783 0.66347 0.5104 0.0
C248 C 0.02814 0.71167 0.5998 0.0
C249 C 0.98773 0.67525 0.5411 0.0
N250 N 0.97683 0.72418 0.6374 0.0
N251 N 0.03898 0.64886 0.51145 0.0
H252 H 0.94134 0.66572 0.5109 0.0
H253 H 0.97751 0.65507 0.48328 0.0
H254 H 0.06527 0.64564 0.50895 0.0
H255 H 0.02554 0.63082 0.49213 0.0
H256 H 0.99015 0.73375 0.66198 0.0
H257 H 0.95049 0.72444 0.64118 0.0
H258 H 0.03796 0.75339 0.64524 0.0
H259 H 0.07422 0.73578 0.62152 0.0
C260 C 0.98784 0.65358 0.9213 0.0
C261 C 0.96928 0.68164 0.94399 0.0
C262 C 0.02374 0.71201 0.96348 0.0
C263 C 0.04117 0.687 0.93653 0.0
N264 N 0.03625 0.64516 0.87921 0.0
N265 N 0.97005 0.7436 0.97999 0.0
C266 C 0.02207 0.66147 0.91199 0.0
C267 C 0.98733 0.71275 0.96322 0.0
N268 N 0.97388 0.61796 0.91061 0.0
N269 N 0.04154 0.73374 0.99028 0.0
H270 H 0.94364 0.74619 0.97885 0.0
H271 H 0.98218 0.76865 0.9913 0.0
H272 H 0.06801 0.73332 0.99205 0.0
H273 H 0.02983 0.74929 0.01295 0.0
H274 H 0.98789 0.59586 0.89644 0.0
H275 H 0.9503 0.60814 0.92059 0.0
H276 H 0.02211 0.62856 0.8592 0.0
H277 H 0.06066 0.65243 0.86954 0.0
C278 C 0.02749 0.33838 0.47564 0.0
C279 C 0.04762 0.31953 0.44653 0.0
C280 C 0.9962 0.29774 0.41206 0.0
C281 C 0.97611 0.31743 0.44065 0.0
N282 N 0.9714 0.34791 0.50404 0.0
N283 N 0.05218 0.27406 0.39254 0.0
C284 C 0.99145 0.33487 0.47398 0.0
C285 C 0.03221 0.29671 0.41655 0.0
N286 N 0.04271 0.36159 0.50345 0.0
N287 N 0.98098 0.28204 0.37956 0.0
H288 H 0.07862 0.27293 0.39534 0.0
H289 H 0.04261 0.25392 0.37222 0.0
H290 H 0.95465 0.28121 0.37583 0.0
H291 H 0.99433 0.27169 0.35532 0.0
H292 H 0.02936 0.3802 0.52235 0.0
H293 H 0.06904 0.36412 0.50631 0.0
H294 H 0.9809 0.35763 0.53081 0.0
H295 H 0.94491 0.34565 0.50345 0.0
C296 C 0.49117 0.83 0.03652 0.0
C297 C 0.47063 0.81228 0.06598 0.0
C298 C 0.52171 0.79039 0.10145 0.0
C299 C 0.54221 0.80922 0.07264 0.0
N300 N 0.54758 0.8378 0.00838 0.0
N301 N 0.46543 0.76759 0.12069 0.0
C302 C 0.5272 0.82593 0.03863 0.0
C303 C 0.48572 0.78969 0.09652 0.0
N304 N 0.4764 0.85283 1.00796 0.0
N305 N 0.53648 0.77533 0.13459 0.0
H306 H 0.43902 0.7666 0.1175 0.0
H307 H 0.47475 0.74762 0.14145 0.0
H308 H 0.56275 0.77434 0.13875 0.0
H309 H 0.52278 0.76574 0.1589 0.0
H310 H 0.49008 0.87069 0.98867 0.0
H311 H 0.45013 0.85575 1.00481 0.0
H312 H 0.53834 0.84691 0.98123 0.0
H313 H 0.57403 0.83504 0.0093 0.0
C314 C 0.52913 0.17246 0.53831 0.0
C315 C 0.5493 0.1916 0.56728 0.0
C316 C 0.49771 0.21334 0.60163 0.0
C317 C 0.47767 0.19337 0.5732 0.0
N318 N 0.47309 0.16316 0.50969 0.0
N319 N 0.5535 0.23805 0.62047 0.0
C320 C 0.49309 0.17607 0.53986 0.0
C321 C 0.53371 0.21473 0.59695 0.0
N322 N 0.54419 0.14859 0.51092 0.0
N323 N 0.48252 0.22896 0.63416 0.0
H324 H 0.57989 0.23961 0.61733 0.0
H325 H 0.54374 0.2584 0.6405 0.0
H326 H 0.4562 0.22934 0.6381 0.0
H327 H 0.49593 0.23958 0.65825 0.0
H328 H 0.53068 0.1297 0.49246 0.0
H329 H 0.57046 0.14563 0.50806 0.0
H330 H 0.48269 0.15373 0.48286 0.0
H331 H 0.4466 0.16542 0.51019 0.0
C332 C 0.5279 0.20876 0.96241 0.0
C333 C 0.54536 0.18178 0.93734 0.0
C334 C 0.49203 0.14691 0.92541 0.0
C335 C 0.47347 0.17701 0.94538 0.0
N336 N 0.47431 0.24181 0.97619 0.0
N337 N 0.54032 0.13458 0.88411 0.0
C338 C 0.49151 0.20956 0.96206 0.0
C339 C 0.52629 0.1538 0.91543 0.0
N340 N 0.54564 0.23238 0.98768 0.0
N341 N 0.47783 0.11064 0.91769 0.0
H342 H 0.56452 0.14116 0.87338 0.0
H343 H 0.52614 0.11604 0.86587 0.0
H344 H 0.454 0.10224 0.92811 0.0
H345 H 0.49172 0.08715 0.90569 0.0
H346 H 0.53385 0.24969 0.00903 0.0
H347 H 0.57207 0.23168 0.99 0.0
H348 H 0.48651 0.26771 0.98534 0.0
H349 H 0.4479 0.24437 0.97493 0.0
C350 C 0.49117 0.78999 0.41827 0.0
C351 C 0.47088 0.8095 0.44676 0.0
C352 C 0.52192 0.82867 0.48337 0.0
C353 C 0.54233 0.81027 0.45423 0.0
N354 N 0.54706 0.76507 0.40002 0.0
N355 N 0.46553 0.83753 0.51114 0.0
C356 C 0.52705 0.78799 0.42372 0.0
C357 C 0.4859 0.82543 0.481 0.0
N358 N 0.47641 0.77559 0.38494 0.0
N359 N 0.53676 0.85159 0.51166 0.0
H360 H 0.43905 0.83536 0.51001 0.0
H361 H 0.47479 0.84607 0.53842 0.0
H362 H 0.56302 0.85443 0.51483 0.0
H363 H 0.52309 0.86984 0.53059 0.0
H364 H 0.49015 0.76551 0.36088 0.0
H365 H 0.45017 0.77566 0.38038 0.0
H366 H 0.53748 0.74538 0.37928 0.0
H367 H 0.5734 0.76311 0.40366 0.0
C368 C 0.14017 0.32127 0.24137 0.0
C369 C 0.1633 0.34323 0.21773 0.0
C370 C 0.18659 0.37539 0.27644 0.0
C371 C 0.1642 0.35249 0.29992 0.0
N372 N 0.12522 0.2975 0.30618 0.0
N373 N 0.21317 0.3846 0.2129 0.0
C374 C 0.14302 0.32319 0.2828 0.0
C375 C 0.18797 0.36834 0.23535 0.0
N376 N 0.11382 0.30096 0.22446 0.0
N377 N 0.20587 0.4045 0.29335 0.0
H378 H 0.21513 0.37948 0.18286 0.0
H379 H 0.23377 0.40016 0.22439 0.0
H380 H 0.20663 0.409 0.32356 0.0
H381 H 0.21969 0.42543 0.27745 0.0
H382 H 0.09394 0.28838 0.24036 0.0
H383 H 0.10982 0.29967 0.19434 0.0
H384 H 0.11221 0.27281 0.29549 0.0
H385 H 0.12594 0.29872 0.33668 0.0
C386 C 0.87085 0.68544 0.74139 0.0
C387 C 0.84925 0.66121 0.718 0.0
C388 C 0.82458 0.63183 0.77746 0.0
C389 C 0.84536 0.65706 0.8005 0.0
N390 N 0.88191 0.71436 0.80506 0.0
N391 N 0.80063 0.61778 0.71338 0.0
C392 C 0.86617 0.68623 0.78257 0.0
C393 C 0.82455 0.63631 0.73596 0.0
N394 N 0.8976 0.70529 0.72478 0.0
N395 N 0.80562 0.60293 0.79525 0.0
H396 H 0.79964 0.62101 0.68302 0.0
H397 H 0.78005 0.60216 0.72488 0.0
H398 H 0.80391 0.60028 0.82564 0.0
H399 H 0.79304 0.58049 0.78004 0.0
H400 H 0.91636 0.71964 0.74103 0.0
H401 H 0.90329 0.70425 0.69502 0.0
H402 H 0.89457 0.73887 0.79334 0.0
H403 H 0.87954 0.71534 0.83546 0.0
C404 C 0.18932 0.64435 0.78124 0.0
C405 C 0.16242 0.66469 0.80046 0.0
C406 C 0.13715 0.68181 0.7369 0.0
C407 C 0.16139 0.65719 0.71812 0.0
N408 N 0.20962 0.61307 0.72148 0.0
N409 N 0.10741 0.69709 0.79689 0.0
C410 C 0.18741 0.63807 0.74 0.0
C411 C 0.1356 0.68233 0.77839 0.0
N412 N 0.21695 0.63189 0.80232 0.0
N413 N 0.11549 0.70471 0.71496 0.0
H414 H 0.10435 0.69697 0.82719 0.0
H415 H 0.08547 0.70598 0.78213 0.0
H416 H 0.1156 0.70468 0.68441 0.0
H417 H 0.09968 0.72644 0.7269 0.0
H418 H 0.23887 0.62019 0.78967 0.0
H419 H 0.21907 0.63627 0.83245 0.0
H420 H 0.22674 0.59465 0.73616 0.0
H421 H 0.20963 0.60921 0.69117 0.0
C422 C 0.83377 0.3681 0.23239 0.0
C423 C 0.86083 0.35042 0.21116 0.0
C424 C 0.8876 0.32832 0.27221 0.0
C425 C 0.85997 0.34476 0.29363 0.0
N426 N 0.80395 0.37395 0.29447 0.0
N427 N 0.9091 0.30616 0.20943 0.0
C428 C 0.83214 0.36278 0.27378 0.0
C429 C 0.88627 0.328 0.23069 0.0
N430 N 0.81034 0.391 0.21309 0.0
N431 N 0.91615 0.31532 0.29138 0.0
H432 H 0.90901 0.30547 0.17888 0.0
H433 H 0.92601 0.28588 0.22193 0.0
H434 H 0.91876 0.3158 0.32173 0.0
H435 H 0.93857 0.3074 0.27714 0.0
H436 H 0.7922 0.40846 0.22717 0.0
H437 H 0.81024 0.39421 0.1827 0.0
H438 H 0.78148 0.38379 0.28149 0.0
H439 H 0.80208 0.37035 0.32474 0.0
C440 C 0.68341 0.86367 0.28179 0.0
C441 C 0.65773 0.8441 0.30365 0.0
C442 C 0.63255 0.81781 0.24347 0.0
C443 C 0.65863 0.8367 0.2214 0.0
N444 N 0.71246 0.8708 0.21936 0.0
N445 N 0.61296 0.79534 0.30707 0.0
C446 C 0.68523 0.85756 0.24056 0.0
C447 C 0.63407 0.81866 0.28498 0.0
N448 N 0.70527 0.88903 0.30032 0.0
N449 N 0.60508 0.80143 0.22489 0.0
H450 H 0.61316 0.79561 0.33763 0.0
H451 H 0.59756 0.77314 0.29534 0.0
H452 H 0.60238 0.80072 0.19455 0.0
H453 H 0.58342 0.79157 0.23951 0.0
H454 H 0.72207 0.9078 0.28566 0.0
H455 H 0.70538 0.89277 0.33064 0.0
H456 H 0.73422 0.88299 0.2319 0.0
H457 H 0.71451 0.86651 0.18921 0.0
C458 C 0.37721 0.18388 0.78313 0.0
C459 C 0.3522 0.15908 0.80031 0.0
C460 C 0.32828 0.14528 0.73539 0.0
C461 C 0.35622 0.16547 0.71802 0.0
N462 N 0.41015 0.19931 0.72531 0.0
N463 N 0.30459 0.11466 0.79388 0.0
C464 C 0.38126 0.18401 0.74184 0.0
C465 C 0.3277 0.13955 0.77675 0.0
N466 N 0.39724 0.20723 0.80641 0.0
N467 N 0.30205 0.13243 0.71238 0.0
H468 H 0.30269 0.11132 0.82418 0.0
H469 H 0.28854 0.0959 0.77819 0.0
H470 H 0.30168 0.1365 0.68209 0.0
H471 H 0.27947 0.12082 0.72345 0.0
H472 H 0.41354 0.22901 0.79549 0.0
H473 H 0.39523 0.20747 0.83687 0.0
H474 H 0.431 0.20892 0.74154 0.0
H475 H 0.41486 0.19913 0.69529 0.0
C476 C 0.68429 0.17848 0.77806 0.0
C477 C 0.67025 0.14824 0.80231 0.0
C478 C 0.66265 0.10721 0.74382 0.0
C479 C 0.66822 0.1408 0.71942 0.0
N480 N 0.67999 0.21176 0.71561 0.0
N481 N 0.63849 0.08606 0.80495 0.0
C482 C 0.67828 0.17739 0.73697 0.0
C483 C 0.65765 0.11289 0.78449 0.0
N484 N 0.70376 0.20795 0.794 0.0
N485 N 0.66221 0.06976 0.72833 0.0
H486 H 0.63043 0.09034 0.83363 0.0
H487 H 0.62675 0.0618 0.79156 0.0
H488 H 0.6678 0.06421 0.69898 0.0
H489 H 0.66061 0.04422 0.74568 0.0
H490 H 0.7167 0.22883 0.777 0.0
H491 H 0.71032 0.20843 0.8236 0.0
H492 H 0.68397 0.23949 0.72848 0.0
H493 H 0.674 0.21361 0.68602 0.0
C494 C 0.33349 0.8778 0.23809 0.0
C495 C 0.35557 0.85329 0.21582 0.0
C496 C 0.37808 0.82312 0.27584 0.0
C497 C 0.35507 0.84652 0.2983 0.0
N498 N 0.30634 0.89007 0.30081 0.0
N499 N 0.39325 0.79674 0.21219 0.0
C500 C 0.33136 0.87209 0.27938 0.0
C501 C 0.37582 0.82382 0.23434 0.0
N502 N 0.31523 0.90712 0.21984 0.0
N503 N 0.40378 0.80254 0.2939 0.0
H504 H 0.39292 0.79697 0.18166 0.0
H505 H 0.40551 0.77193 0.22399 0.0
H506 H 0.40745 0.80219 0.3241 0.0
H507 H 0.42358 0.78883 0.27878 0.0
H508 H 0.30174 0.92905 0.23476 0.0
H509 H 0.31505 0.91076 0.18949 0.0
H510 H 0.28634 0.9061 0.28841 0.0
H511 H 0.3039 0.88604 0.33097 0.0
C512 C 0.25912 0.21279 1.00091 0.0
C513 C 0.29153 0.22999 0.00835 0.0
C514 C 0.26451 0.28181 0.04839 0.0
C515 C 0.23202 0.26558 0.03951 0.0
N516 N 0.198 0.22244 0.99909 0.0
N517 N 0.32426 0.28598 0.03098 0.0
C518 C 0.22924 0.23323 0.01309 0.0
C519 C 0.29393 0.26619 0.0295 0.0
N520 N 0.25676 0.17576 0.98454 0.0
N521 N 0.26766 0.31043 0.07656 0.0
H522 H 0.34613 0.27557 0.01699 0.0
H523 H 0.3269 0.31445 0.04262 0.0
H524 H 0.24699 0.32239 0.09161 0.0
H525 H 0.29104 0.31998 0.08739 0.0
H526 H 0.234 0.15999 0.98273 0.0
H527 H 0.27781 0.15904 0.97595 0.0
H528 H 0.19468 0.2017 0.97678 0.0
H529 H 0.17564 0.23724 1.00688 0.0
C530 C 0.75471 0.71769 0.5433 0.0
C531 C 0.7872 0.73452 0.53559 0.0
C532 C 0.7604 0.78768 0.49694 0.0
C533 C 0.72804 0.77004 0.50349 0.0
N534 N 0.69552 0.71287 0.52376 0.0
N535 N 0.82162 0.7787 0.49661 0.0
C536 C 0.72561 0.73323 0.52372 0.0
C537 C 0.79022 0.76734 0.50963 0.0
N538 N 0.75115 0.68867 0.57114 0.0
N539 N 0.76271 0.82495 0.48097 0.0
H540 H 0.84392 0.76392 0.50478 0.0
H541 H 0.82521 0.79992 0.47472 0.0
H542 H 0.74165 0.84144 0.47186 0.0
H543 H 0.78535 0.84101 0.47984 0.0
H544 H 0.72759 0.67872 0.58107 0.0
H545 H 0.7715 0.67685 0.58694 0.0
H546 H 0.69303 0.68405 0.53473 0.0
H547 H 0.67389 0.7232 0.50914 0.0
C548 C 0.28563 0.73535 0.99623 0.0
C549 C 0.28376 0.77189 0.01685 0.0
C550 C 0.22163 0.77153 0.00927 0.0
C551 C 0.22432 0.73916 0.98286 0.0
N552 N 0.25997 0.6928 0.94742 0.0
N553 N 0.24993 0.8277 0.03912 0.0
C554 C 0.25654 0.72131 0.97567 0.0
C555 C 0.2517 0.79058 0.02286 0.0
N556 N 0.31518 0.71384 0.99668 0.0
N557 N 0.1903 0.7837 0.02185 0.0
H558 H 0.27115 0.84339 0.04882 0.0
H559 H 0.22762 0.8445 0.03988 0.0
H560 H 0.16781 0.76986 0.01303 0.0
H561 H 0.18687 0.80457 0.04403 0.0
H562 H 0.31716 0.68514 0.98537 0.0
H563 H 0.33674 0.72306 0.01204 0.0
H564 H 0.28349 0.68219 0.93797 0.0
H565 H 0.23971 0.68218 0.93079 0.0
C566 C 0.74886 0.25609 0.52023 0.0
C567 C 0.73287 0.22364 0.50094 0.0
C568 C 0.77162 0.23219 0.44552 0.0
C569 C 0.79068 0.26066 0.46693 0.0
N570 N 0.80089 0.29375 0.52863 0.0
N571 N 0.7364 0.17372 0.45005 0.0
C572 C 0.78028 0.27107 0.50545 0.0
C573 C 0.74636 0.20961 0.46497 0.0
N574 N 0.73358 0.27372 0.55164 0.0
N575 N 0.77641 0.22774 0.40614 0.0
H576 H 0.71985 0.15452 0.46463 0.0
H577 H 0.74791 0.1609 0.42562 0.0
H578 H 0.7929 0.2456 0.38992 0.0
H579 H 0.76087 0.20972 0.38891 0.0
H580 H 0.74259 0.29989 0.56429 0.0
H581 H 0.71005 0.26467 0.56253 0.0
H582 H 0.79593 0.29884 0.55816 0.0
H583 H 0.82465 0.30401 0.51963 0.0
C584 C 0.72568 0.73244 0.01465 0.0
C585 C 0.72835 0.7642 0.04176 0.0
C586 C 0.79026 0.76518 0.03189 0.0
C587 C 0.78797 0.72939 0.01006 0.0
N588 N 0.75331 0.67552 0.98526 0.0
N589 N 0.7639 0.80816 0.07998 0.0
C590 C 0.75561 0.71227 1.00222 0.0
C591 C 0.7608 0.78026 0.05111 0.0
N592 N 0.69451 0.72198 1.00021 0.0
N593 N 0.82052 0.7851 0.03373 0.0
H594 H 0.74323 0.81961 0.09539 0.0
H595 H 0.78727 0.81747 0.09104 0.0
H596 H 0.8424 0.77513 0.01948 0.0
H597 H 0.82303 0.81334 0.04595 0.0
H598 H 0.69131 0.70171 0.97745 0.0
H599 H 0.67212 0.73665 0.00812 0.0
H600 H 0.73055 0.65979 0.98309 0.0
H601 H 0.77439 0.65891 0.97656 0.0
C602 C 0.28086 0.23707 0.50611 0.0
C603 C 0.29118 0.2472 0.54473 0.0
C604 C 0.24536 0.29646 0.54795 0.0
C605 C 0.23212 0.28265 0.51177 0.0
N606 N 0.23413 0.23399 0.45983 0.0
N607 N 0.27629 0.27833 0.60624 0.0
C608 C 0.24899 0.2513 0.49168 0.0
C609 C 0.27141 0.27449 0.5668 0.0
N610 N 0.30193 0.21536 0.48256 0.0
N611 N 0.23437 0.33162 0.56364 0.0
H612 H 0.29343 0.26081 0.62203 0.0
H613 H 0.26032 0.29538 0.62391 0.0
H614 H 0.21711 0.35044 0.54955 0.0
H615 H 0.24562 0.34439 0.58824 0.0
H616 H 0.29703 0.21057 0.45296 0.0
H617 H 0.32591 0.20557 0.49143 0.0
H618 H 0.2438 0.20848 0.44652 0.0
H619 H 0.2104 0.24265 0.44909 0.0
C620 C 0.78935 0.23533 0.98646 0.0
C621 C 0.78777 0.27201 1.00689 0.0
C622 C 0.72567 0.27269 0.99888 0.0
C623 C 0.72803 0.23967 0.9732 0.0
N624 N 0.76307 0.19223 0.93847 0.0
N625 N 0.75463 0.32878 0.02809 0.0
C626 C 0.76007 0.22134 0.96619 0.0
C627 C 0.75594 0.2914 0.01234 0.0
N628 N 0.81875 0.21353 0.98698 0.0
N629 N 0.69446 0.28571 0.01106 0.0
H630 H 0.77605 0.34418 0.0377 0.0
H631 H 0.73258 0.34604 0.02846 0.0
H632 H 0.67178 0.27225 1.00232 0.0
H633 H 0.69124 0.30706 0.03283 0.0
H634 H 0.8205 0.18471 0.97591 0.0
H635 H 0.84046 0.22268 1.00208 0.0
H636 H 0.78641 0.18108 0.92906 0.0
H637 H 0.74257 0.18159 0.92222 0.0
C638 C 0.26056 0.71563 0.51842 0.0
C639 C 0.22802 0.73338 0.51311 0.0
C640 C 0.25361 0.78594 0.47271 0.0
C641 C 0.2863 0.7691 0.4794 0.0
N642 N 0.32172 0.7246 0.51709 0.0
N643 N 0.19482 0.79054 0.49384 0.0
C644 C 0.29001 0.73605 0.505 0.0
C645 C 0.22498 0.77023 0.493 0.0
N646 N 0.26334 0.67819 0.53394 0.0
N647 N 0.24941 0.81525 0.44528 0.0
H648 H 0.17356 0.78013 0.50898 0.0
H649 H 0.19195 0.81938 0.48301 0.0
H650 H 0.26945 0.82725 0.42917 0.0
H651 H 0.22564 0.82533 0.43604 0.0
H652 H 0.28603 0.6621 0.53418 0.0
H653 H 0.24255 0.66158 0.54345 0.0
H654 H 0.32583 0.70323 0.53875 0.0
H655 H 0.34381 0.73942 0.50846 0.0
C656 C 0.1835 0.51877 0.99657 0.0
C657 C 0.15242 0.53658 0.98437 0.0
C658 C 0.12049 0.48342 0.01674 0.0
C659 C 0.15112 0.4682 0.0329 0.0
N660 N 0.21168 0.4744 0.04264 0.0
N661 N 0.09134 0.54142 0.99189 0.0
C662 C 0.18271 0.48661 0.02398 0.0
C663 C 0.12091 0.52048 0.99701 0.0
N664 N 0.21358 0.53159 0.98103 0.0
N665 N 0.09109 0.46175 0.01882 0.0
H666 H 0.09046 0.5698 0.97946 0.0
H667 H 0.06823 0.53261 1.00408 0.0
H668 H 0.08985 0.43348 0.03147 0.0
H669 H 0.0689 0.46985 1.00406 0.0
H670 H 0.23669 0.51711 0.9857 0.0
H671 H 0.21503 0.55482 0.96079 0.0
H672 H 0.23479 0.48938 0.04045 0.0
H673 H 0.21198 0.45111 0.06288 0.0
C674 C 0.83692 0.51689 0.5219 0.0
C675 C 0.86821 0.53438 0.53361 0.0
C676 C 0.89957 0.48381 0.49682 0.0
C677 C 0.86853 0.46903 0.48141 0.0
N678 N 0.8076 0.47459 0.47516 0.0
N679 N 0.92893 0.54049 0.52388 0.0
C680 C 0.83709 0.48633 0.49288 0.0
C681 C 0.89943 0.51953 0.51872 0.0
N682 N 0.80727 0.52847 0.5394 0.0
N683 N 0.92915 0.46286 0.49196 0.0
H684 H 0.92993 0.56788 0.53816 0.0
H685 H 0.9517 0.5329 0.51014 0.0
H686 H 0.93031 0.43553 0.47755 0.0
H687 H 0.95179 0.47036 0.50604 0.0
H688 H 0.78415 0.51401 0.53507 0.0
H689 H 0.80629 0.55056 0.56078 0.0
H690 H 0.78437 0.48895 0.47925 0.0
H691 H 0.80685 0.45237 0.45388 0.0
C692 C 0.82921 0.48384 0.02353 0.0
C693 C 0.85896 0.46039 0.01827 0.0
C694 C 0.88609 0.51475 0.98187 0.0
C695 C 0.85578 0.53753 0.98547 0.0
N696 N 0.79706 0.54286 1.00468 0.0
N697 N 0.91417 0.45084 0.98859 0.0
C698 C 0.8269 0.52182 1.00495 0.0
C699 C 0.88681 0.47495 0.99599 0.0
N700 N 0.80338 0.46988 0.04656 0.0
N701 N 0.91491 0.53202 0.96714 0.0
H702 H 0.91727 0.42266 1.00096 0.0
H703 H 0.93301 0.45771 0.96826 0.0
H704 H 0.91564 0.56112 0.95652 0.0
H705 H 0.93888 0.51884 0.96821 0.0
H706 H 0.78266 0.48703 0.05527 0.0
H707 H 0.80347 0.44141 0.05884 0.0
H708 H 0.77405 0.53176 0.01501 0.0
H709 H 0.7947 0.57071 0.99132 0.0
C710 C 0.12783 0.48187 0.50817 0.0
C711 C 0.15844 0.46728 0.49146 0.0
C712 C 0.18787 0.52917 0.50895 0.0
C713 C 0.15789 0.54251 0.52808 0.0
N714 N 0.10018 0.53072 0.5495 0.0
N715 N 0.21849 0.47396 0.4793 0.0
C716 C 0.12818 0.51848 0.52893 0.0
C717 C 0.18874 0.49015 0.49262 0.0
N718 N 0.09801 0.46162 0.50248 0.0
N719 N 0.21533 0.55399 0.50613 0.0
H720 H 0.21982 0.44566 0.46681 0.0
H721 H 0.24222 0.48718 0.48292 0.0
H722 H 0.21616 0.58191 0.51944 0.0
H723 H 0.23655 0.54804 0.4889 0.0
H724 H 0.07416 0.47279 0.5099 0.0
H725 H 0.09656 0.43478 0.48724 0.0
H726 H 0.07949 0.51241 0.55555 0.0
H727 H 0.09825 0.55857 0.56275 0.0
C728 C 0.62342 0.02056 1.00389 0.0
C729 C 0.65559 0.03571 0.9924 0.0
C730 C 0.68379 0.98446 0.0324 0.0
C731 C 0.65159 0.96689 0.04004 0.0
N732 N 0.59166 0.96279 0.02456 0.0
N733 N 0.71669 0.0292 0.99126 0.0
C734 C 0.62166 0.9834 0.02337 0.0
C735 C 0.68596 0.01696 1.00551 0.0
N736 N 0.5945 0.04241 0.99764 0.0
N737 N 0.71202 0.97104 0.05176 0.0
H738 H 0.71916 0.05283 0.9716 0.0
H739 H 0.73938 0.01403 0.99648 0.0
H740 H 0.7113 0.94745 0.07165 0.0
H741 H 0.73551 0.98529 0.05052 0.0
H742 H 0.57087 0.0344 0.009 0.0
H743 H 0.59465 0.07071 0.98497 0.0
H744 H 0.56997 0.97177 0.00933 0.0
H745 H 0.5894 0.93453 0.03702 0.0
C746 C 0.40151 0.98601 0.49886 0.0
C747 C 0.3703 0.97197 0.48321 0.0
C748 C 0.3395 0.02239 0.52147 0.0
C749 C 0.3711 0.03894 0.53342 0.0
N750 N 0.43206 0.04247 0.52458 0.0
N751 N 0.30974 0.98028 0.47497 0.0
C752 C 0.40208 0.02247 0.51954 0.0
C753 C 0.33924 0.99105 0.49328 0.0
N754 N 0.43051 0.96368 0.49555 0.0
N755 N 0.30993 0.03555 0.53801 0.0
H756 H 0.30867 0.95771 0.45408 0.0
H757 H 0.28697 0.99585 0.47806 0.0
H758 H 0.30922 0.05822 0.55882 0.0
H759 H 0.28649 0.02184 0.53356 0.0
H760 H 0.45311 0.97084 0.50988 0.0
H761 H 0.43108 0.93571 0.48232 0.0
H762 H 0.45479 0.03354 0.51155 0.0
H763 H 0.43359 0.07032 0.53794 0.0
C764 C 0.38369 0.97331 0.99674 0.0
C765 C 0.3564 0.96127 0.0213 0.0
C766 C 0.32643 0.02408 1.00768 0.0
C767 C 0.35499 0.03736 0.98594 0.0
N768 N 0.41268 0.02735 0.96376 0.0
N769 N 0.30264 0.97505 0.05239 0.0
C770 C 0.38396 0.01252 0.98109 0.0
C771 C 0.32796 0.98666 0.02742 0.0
N772 N 0.40969 0.94741 0.9887 0.0
N773 N 0.29758 0.04691 0.00846 0.0
H774 H 0.30204 0.947 0.06556 0.0
H775 H 0.28311 0.9937 0.0617 0.0
H776 H 0.29577 0.07433 0.99413 0.0
H777 H 0.27464 0.03766 0.02061 0.0
H778 H 0.42765 0.95224 0.96682 0.0
H779 H 0.41248 0.91978 1.00229 0.0
H780 H 0.43609 0.01281 0.96387 0.0
H781 H 0.41405 0.05578 0.95164 0.0
C782 C 0.62599 0.02424 0.50657 0.0
C783 C 0.65552 0.0372 0.52681 0.0
C784 C 0.68491 0.97495 0.5101 0.0
C785 C 0.65468 0.9611 0.49198 0.0
N786 N 0.59467 0.96895 0.47885 0.0
N787 N 0.71176 0.02422 0.55197 0.0
C788 C 0.62476 0.98484 0.4916 0.0
C789 C 0.68461 0.01228 0.52988 0.0
N790 N 0.59904 0.04964 0.50163 0.0
N791 N 0.71413 0.95297 0.50719 0.0
H792 H 0.71293 0.05204 0.56544 0.0
H793 H 0.73223 0.00584 0.55901 0.0
H794 H 0.71511 0.92549 0.49303 0.0
H795 H 0.73792 0.96302 0.51619 0.0
H796 H 0.57873 0.04393 0.48288 0.0
H797 H 0.5978 0.07775 0.51444 0.0
H798 H 0.5712 0.98297 0.48209 0.0
H799 H 0.59249 0.94008 0.46791 0.0
loop_
_geom_bond_atom_site_label_1
_geom_bond_atom_site_label_2
_geom_bond_distance
_geom_bond_site_symmetry_2
_ccdc_geom_bond_type
O0 Cd1 2.223 . S
O0 C8 1.315 . S
Cd1 O0 2.223 . S
Cd1 O4 2.297 . S
Cd1 O5 2.439 . S
Cd1 O11 2.240 . S
Cd2 O3 2.240 . S
Cd2 O10 2.223 . S
Cd2 O12 2.297 . S
Cd2 O13 2.439 . S
O3 Cd2 2.240 . S
O3 C8 1.279 . S
O4 Cd1 2.297 . S
O4 C6 1.247 . S
O5 Cd1 2.439 . S
O5 C6 1.208 . S
C6 O4 1.247 . S
C6 O5 1.208 . S
C7 O12 1.247 . S
C7 O13 1.208 . S
C8 O0 1.315 . S
C8 O3 1.279 . S
C9 O10 1.315 . S
C9 O11 1.279 . S
O10 Cd2 2.223 . S
O10 C9 1.315 . S
O11 Cd1 2.240 . S
O11 C9 1.279 . S
O12 Cd2 2.297 . S
O12 C7 1.247 . S
O13 Cd2 2.439 . S
O13 C7 1.208 . S
O14 Cd15 2.223 . S
O14 C22 1.315 . S
Cd15 O14 2.223 . S
Cd15 O18 2.297 . S
Cd15 O19 2.439 . S
Cd15 O25 2.240 . S
Cd16 O17 2.240 . S
Cd16 O24 2.223 . S
Cd16 O26 2.297 . S
Cd16 O27 2.439 . S
O17 Cd16 2.240 . S
O17 C22 1.279 . S
O18 Cd15 2.297 . S
O18 C20 1.247 . S
O19 Cd15 2.439 . S
O19 C20 1.208 . S
C20 O18 1.247 . S
C20 O19 1.208 . S
C21 O26 1.247 . S
C21 O27 1.208 . S
C22 O14 1.315 . S
C22 O17 1.279 . S
C23 O24 1.315 . S
C23 O25 1.279 . S
O24 Cd16 2.223 . S
O24 C23 1.315 . S
O25 Cd15 2.240 . S
O25 C23 1.279 . S
O26 Cd16 2.297 . S
O26 C21 1.247 . S
O27 Cd16 2.439 . S
O27 C21 1.208 . S
O28 Cd29 2.223 . S
O28 C36 1.315 . S
Cd29 O28 2.223 . S
Cd29 O32 2.297 . S
Cd29 O33 2.439 . S
Cd29 O39 2.240 . S
Cd30 O31 2.240 . S
Cd30 O38 2.223 . S
Cd30 O40 2.297 . S
Cd30 O41 2.439 . S
O31 Cd30 2.240 . S
O31 C36 1.279 . S
O32 Cd29 2.297 . S
O32 C34 1.247 . S
O33 Cd29 2.439 . S
O33 C34 1.208 . S
C34 O32 1.247 . S
C34 O33 1.208 . S
C35 O40 1.247 . S
C35 O41 1.208 . S
C36 O28 1.315 . S
C36 O31 1.279 . S
C37 O38 1.315 . S
C37 O39 1.279 . S
O38 Cd30 2.223 . S
O38 C37 1.315 . S
O39 Cd29 2.240 . S
O39 C37 1.279 . S
O40 Cd30 2.297 . S
O40 C35 1.247 . S
O41 Cd30 2.439 . S
O41 C35 1.208 . S
O42 Cd43 2.223 . S
O42 C50 1.315 . S
Cd43 O42 2.223 . S
Cd43 O46 2.297 . S
Cd43 O47 2.439 . S
Cd43 O53 2.240 . S
Cd44 O45 2.240 . S
Cd44 O52 2.223 . S
Cd44 O54 2.297 . S
Cd44 O55 2.439 . S
O45 Cd44 2.240 . S
O45 C50 1.279 . S
O46 Cd43 2.297 . S
O46 C48 1.247 . S
O47 Cd43 2.439 . S
O47 C48 1.208 . S
C48 O46 1.247 . S
C48 O47 1.208 . S
C49 O54 1.247 . S
C49 O55 1.208 . S
C50 O42 1.315 . S
C50 O45 1.279 . S
C51 O52 1.315 . S
C51 O53 1.279 . S
O52 Cd44 2.223 . S
O52 C51 1.315 . S
O53 Cd43 2.240 . S
O53 C51 1.279 . S
O54 Cd44 2.297 . S
O54 C49 1.247 . S
O55 Cd44 2.439 . S
O55 C49 1.208 . S
O56 Cd57 2.223 . S
O56 C64 1.315 . S
Cd57 O56 2.223 . S
Cd57 O60 2.297 . S
Cd57 O61 2.439 . S
Cd57 O67 2.240 . S
Cd58 O59 2.240 . S
Cd58 O66 2.223 . S
Cd58 O68 2.297 . S
Cd58 O69 2.439 . S
O59 Cd58 2.240 . S
O59 C64 1.279 . S
O60 Cd57 2.297 . S
O60 C62 1.247 . S
O61 Cd57 2.439 . S
O61 C62 1.208 . S
C62 O60 1.247 . S
C62 O61 1.208 . S
C63 O68 1.247 . S
C63 O69 1.208 . S
C64 O56 1.315 . S
C64 O59 1.279 . S
C65 O66 1.315 . S
C65 O67 1.279 . S
O66 Cd58 2.223 . S
O66 C65 1.315 . S
O67 Cd57 2.240 . S
O67 C65 1.279 . S
O68 Cd58 2.297 . S
O68 C63 1.247 . S
O69 Cd58 2.439 . S
O69 C63 1.208 . S
O70 Cd71 2.223 . S
O70 C78 1.315 . S
Cd71 O70 2.223 . S
Cd71 O74 2.297 . S
Cd71 O75 2.439 . S
Cd71 O81 2.240 . S
Cd72 O73 2.240 . S
Cd72 O80 2.223 . S
Cd72 O82 2.297 . S
Cd72 O83 2.439 . S
O73 Cd72 2.240 . S
O73 C78 1.279 . S
O74 Cd71 2.297 . S
O74 C76 1.247 . S
O75 Cd71 2.439 . S
O75 C76 1.208 . S
C76 O74 1.247 . S
C76 O75 1.208 . S
C77 O82 1.247 . S
C77 O83 1.208 . S
C78 O70 1.315 . S
C78 O73 1.279 . S
C79 O80 1.315 . S
C79 O81 1.279 . S
O80 Cd72 2.223 . S
O80 C79 1.315 . S
O81 Cd71 2.240 . S
O81 C79 1.279 . S
O82 Cd72 2.297 . S
O82 C77 1.247 . S
O83 Cd72 2.439 . S
O83 C77 1.208 . S
O84 Cd85 2.223 . S
O84 C92 1.315 . S
Cd85 O84 2.223 . S
Cd85 O88 2.297 . S
Cd85 O89 2.439 . S
Cd85 O95 2.240 . S
Cd86 O87 2.240 . S
Cd86 O94 2.223 . S
Cd86 O96 2.297 . S
Cd86 O97 2.439 . S
O87 Cd86 2.240 . S
O87 C92 1.279 . S
O88 Cd85 2.297 . S
O88 C90 1.247 . S
O89 Cd85 2.439 . S
O89 C90 1.208 . S
C90 O88 1.247 . S
C90 O89 1.208 . S
C91 O96 1.247 . S
C91 O97 1.208 . S
C92 O84 1.315 . S
C92 O87 1.279 . S
C93 O94 1.315 . S
C93 O95 1.279 . S
O94 Cd86 2.223 . S
O94 C93 1.315 . S
O95 Cd85 2.240 . S
O95 C93 1.279 . S
O96 Cd86 2.297 . S
O96 C91 1.247 . S
O97 Cd86 2.439 . S
O97 C91 1.208 . S
O98 Cd99 2.223 . S
O98 C106 1.315 . S
Cd99 O98 2.223 . S
Cd99 O102 2.297 . S
Cd99 O103 2.439 . S
Cd99 O109 2.240 . S
Cd100 O101 2.240 . S
Cd100 O108 2.223 . S
Cd100 O110 2.297 . S
Cd100 O111 2.439 . S
O101 Cd100 2.240 . S
O101 C106 1.279 . S
O102 Cd99 2.297 . S
O102 C104 1.247 . S
O103 Cd99 2.439 . S
O103 C104 1.208 . S
C104 O102 1.247 . S
C104 O103 1.208 . S
C105 O110 1.247 . S
C105 O111 1.208 . S
C106 O98 1.315 . S
C106 O101 1.279 . S
C107 O108 1.315 . S
C107 O109 1.279 . S
O108 Cd100 2.223 . S
O108 C107 1.315 . S
O109 Cd99 2.240 . S
O109 C107 1.279 . S
O110 Cd100 2.297 . S
O110 C105 1.247 . S
O111 Cd100 2.439 . S
O111 C105 1.208 . S
O112 Cd113 2.223 . S
O112 C120 1.315 . S
Cd113 O112 2.223 . S
Cd113 O116 2.297 . S
Cd113 O117 2.439 . S
Cd113 O123 2.240 . S
Cd114 O115 2.240 . S
Cd114 O122 2.223 . S
Cd114 O124 2.297 . S
Cd114 O125 2.439 . S
O115 Cd114 2.240 . S
O115 C120 1.279 . S
O116 Cd113 2.297 . S
O116 C118 1.247 . S
O117 Cd113 2.439 . S
O117 C118 1.208 . S
C118 O116 1.247 . S
C118 O117 1.208 . S
C119 O124 1.247 . S
C119 O125 1.208 . S
C120 O112 1.315 . S
C120 O115 1.279 . S
C121 O122 1.315 . S
C121 O123 1.279 . S
O122 Cd114 2.223 . S
O122 C121 1.315 . S
O123 Cd113 2.240 . S
O123 C121 1.279 . S
O124 Cd114 2.297 . S
O124 C119 1.247 . S
O125 Cd114 2.439 . S
O125 C119 1.208 . S
O126 Cd127 2.223 . S
O126 C134 1.315 . S
Cd127 O126 2.223 . S
Cd127 O130 2.297 . S
Cd127 O131 2.439 . S
Cd127 O137 2.240 . S
Cd128 O129 2.240 . S
Cd128 O136 2.223 . S
Cd128 O138 2.297 . S
Cd128 O139 2.439 . S
O129 Cd128 2.240 . S
O129 C134 1.279 . S
O130 Cd127 2.297 . S
O130 C132 1.247 . S
O131 Cd127 2.439 . S
O131 C132 1.208 . S
C132 O130 1.247 . S
C132 O131 1.208 . S
C133 O138 1.247 . S
C133 O139 1.208 . S
C134 O126 1.315 . S
C134 O129 1.279 . S
C135 O136 1.315 . S
C135 O137 1.279 . S
O136 Cd128 2.223 . S
O136 C135 1.315 . S
O137 Cd127 2.240 . S
O137 C135 1.279 . S
O138 Cd128 2.297 . S
O138 C133 1.247 . S
O139 Cd128 2.439 . S
O139 C133 1.208 . S
O140 Cd141 2.223 . S
O140 C148 1.315 . S
Cd141 O140 2.223 . S
Cd141 O144 2.297 . S
Cd141 O145 2.439 . S
Cd141 O151 2.240 . S
Cd142 O143 2.240 . S
Cd142 O150 2.223 . S
Cd142 O152 2.297 . S
Cd142 O153 2.439 . S
O143 Cd142 2.240 . S
O143 C148 1.279 . S
O144 Cd141 2.297 . S
O144 C146 1.247 . S
O145 Cd141 2.439 . S
O145 C146 1.208 . S
C146 O144 1.247 . S
C146 O145 1.208 . S
C147 O152 1.247 . S
C147 O153 1.208 . S
C148 O140 1.315 . S
C148 O143 1.279 . S
C149 O150 1.315 . S
C149 O151 1.279 . S
O150 Cd142 2.223 . S
O150 C149 1.315 . S
O151 Cd141 2.240 . S
O151 C149 1.279 . S
O152 Cd142 2.297 . S
O152 C147 1.247 . S
O153 Cd142 2.439 . S
O153 C147 1.208 . S
O154 Cd155 2.223 . S
O154 C162 1.315 . S
Cd155 O154 2.223 . S
Cd155 O158 2.297 . S
Cd155 O159 2.439 . S
Cd155 O165 2.240 . S
Cd156 O157 2.240 . S
Cd156 O164 2.223 . S
Cd156 O166 2.297 . S
Cd156 O167 2.439 . S
O157 Cd156 2.240 . S
O157 C162 1.279 . S
O158 Cd155 2.297 . S
O158 C160 1.247 . S
O159 Cd155 2.439 . S
O159 C160 1.208 . S
C160 O158 1.247 . S
C160 O159 1.208 . S
C161 O166 1.247 . S
C161 O167 1.208 . S
C162 O154 1.315 . S
C162 O157 1.279 . S
C163 O164 1.315 . S
C163 O165 1.279 . S
O164 Cd156 2.223 . S
O164 C163 1.315 . S
O165 Cd155 2.240 . S
O165 C163 1.279 . S
O166 Cd156 2.297 . S
O166 C161 1.247 . S
O167 Cd156 2.439 . S
O167 C161 1.208 . S
O168 Cd169 2.223 . S
O168 C176 1.315 . S
Cd169 O168 2.223 . S
Cd169 O172 2.297 . S
Cd169 O173 2.439 . S
Cd169 O179 2.240 . S
Cd170 O171 2.240 . S
Cd170 O178 2.223 . S
Cd170 O180 2.297 . S
Cd170 O181 2.439 . S
O171 Cd170 2.240 . S
O171 C176 1.279 . S
O172 Cd169 2.297 . S
O172 C174 1.247 . S
O173 Cd169 2.439 . S
O173 C174 1.208 . S
C174 O172 1.247 . S
C174 O173 1.208 . S
C175 O180 1.247 . S
C175 O181 1.208 . S
C176 O168 1.315 . S
C176 O171 1.279 . S
C177 O178 1.315 . S
C177 O179 1.279 . S
O178 Cd170 2.223 . S
O178 C177 1.315 . S
O179 Cd169 2.240 . S
O179 C177 1.279 . S
O180 Cd170 2.297 . S
O180 C175 1.247 . S
O181 Cd170 2.439 . S
O181 C175 1.208 . S
O182 Cd183 2.223 . S
O182 C190 1.315 . S
Cd183 O182 2.223 . S
Cd183 O186 2.297 . S
Cd183 O187 2.439 . S
Cd183 O193 2.240 . S
Cd184 O185 2.240 . S
Cd184 O192 2.223 . S
Cd184 O194 2.297 . S
Cd184 O195 2.439 . S
O185 Cd184 2.240 . S
O185 C190 1.279 . S
O186 Cd183 2.297 . S
O186 C188 1.247 . S
O187 Cd183 2.439 . S
O187 C188 1.208 . S
C188 O186 1.247 . S
C188 O187 1.208 . S
C189 O194 1.247 . S
C189 O195 1.208 . S
C190 O182 1.315 . S
C190 O185 1.279 . S
C191 O192 1.315 . S
C191 O193 1.279 . S
O192 Cd184 2.223 . S
O192 C191 1.315 . S
O193 Cd183 2.240 . S
O193 C191 1.279 . S
O194 Cd184 2.297 . S
O194 C189 1.247 . S
O195 Cd184 2.439 . S
O195 C189 1.208 . S
O196 Cd197 2.223 . S
O196 C204 1.315 . S
Cd197 O196 2.223 . S
Cd197 O200 2.297 . S
Cd197 O201 2.439 . S
Cd197 O207 2.240 . S
Cd198 O199 2.240 . S
Cd198 O206 2.223 . S
Cd198 O208 2.297 . S
Cd198 O209 2.439 . S
O199 Cd198 2.240 . S
O199 C204 1.279 . S
O200 Cd197 2.297 . S
O200 C202 1.247 . S
O201 Cd197 2.439 . S
O201 C202 1.208 . S
C202 O200 1.247 . S
C202 O201 1.208 . S
C203 O208 1.247 . S
C203 O209 1.208 . S
C204 O196 1.315 . S
C204 O199 1.279 . S
C205 O206 1.315 . S
C205 O207 1.279 . S
O206 Cd198 2.223 . S
O206 C205 1.315 . S
O207 Cd197 2.240 . S
O207 C205 1.279 . S
O208 Cd198 2.297 . S
O208 C203 1.247 . S
O209 Cd198 2.439 . S
O209 C203 1.208 . S
O210 Cd211 2.223 . S
O210 C218 1.315 . S
Cd211 O210 2.223 . S
Cd211 O214 2.297 . S
Cd211 O215 2.439 . S
Cd211 O221 2.240 . S
Cd212 O213 2.240 . S
Cd212 O220 2.223 . S
Cd212 O222 2.297 . S
Cd212 O223 2.439 . S
O213 Cd212 2.240 . S
O213 C218 1.279 . S
O214 Cd211 2.297 . S
O214 C216 1.247 . S
O215 Cd211 2.439 . S
O215 C216 1.208 . S
C216 O214 1.247 . S
C216 O215 1.208 . S
C217 O222 1.247 . S
C217 O223 1.208 . S
C218 O210 1.315 . S
C218 O213 1.279 . S
C219 O220 1.315 . S
C219 O221 1.279 . S
O220 Cd212 2.223 . S
O220 C219 1.315 . S
O221 Cd211 2.240 . S
O221 C219 1.279 . S
O222 Cd212 2.297 . S
O222 C217 1.247 . S
O223 Cd212 2.439 . S
O223 C217 1.208 . S
C224 C225 1.363 . S
C224 C230 1.379 1_455 S
C224 N232 1.356 . S
C225 C224 1.363 . S
C225 C231 1.363 . S
C226 C227 1.363 . S
C226 C231 1.379 1_655 S
C226 N233 1.356 . S
C227 C226 1.363 . S
C227 C230 1.363 . S
N228 C230 1.356 . S
N228 H240 0.984 . S
N228 H241 0.985 . S
N229 C231 1.356 . S
N229 H234 0.984 . S
N229 H235 0.985 . S
C230 C224 1.379 1_655 S
C230 C227 1.363 . S
C230 N228 1.356 . S
C231 C225 1.363 . S
C231 C226 1.379 1_455 S
C231 N229 1.356 . S
N232 C224 1.356 . S
N232 H238 0.984 . S
N232 H239 0.984 . S
N233 C226 1.356 . S
N233 H236 0.984 . S
N233 H237 0.985 1_554 S
H234 N229 0.984 . S
H235 N229 0.985 . S
H236 N233 0.984 . S
H237 N233 0.985 1_556 S
H238 N232 0.984 . S
H239 N232 0.984 . S
H240 N228 0.984 . S
H241 N228 0.985 . S
C242 C243 1.363 . S
C242 C248 1.379 1_655 S
C242 N250 1.356 . S
C243 C242 1.363 . S
C243 C249 1.363 . S
C244 C245 1.363 . S
C244 C249 1.379 1_455 S
C244 N251 1.356 . S
C245 C244 1.363 . S
C245 C248 1.363 . S
N246 C248 1.356 . S
N246 H258 0.984 . S
N246 H259 0.985 . S
N247 C249 1.356 . S
N247 H252 0.984 . S
N247 H253 0.985 . S
C248 C242 1.379 1_455 S
C248 C245 1.363 . S
C248 N246 1.356 . S
C249 C243 1.363 . S
C249 C244 1.379 1_655 S
C249 N247 1.356 . S
N250 C242 1.356 . S
N250 H256 0.984 . S
N250 H257 0.984 . S
N251 C244 1.356 . S
N251 H254 0.984 . S
N251 H255 0.985 . S
H252 N247 0.984 . S
H253 N247 0.985 . S
H254 N251 0.984 . S
H255 N251 0.985 . S
H256 N250 0.984 . S
H257 N250 0.984 . S
H258 N246 0.984 . S
H259 N246 0.985 . S
C260 C261 1.363 . S
C260 C266 1.379 1_655 S
C260 N268 1.356 . S
C261 C260 1.363 . S
C261 C267 1.363 . S
C262 C263 1.363 . S
C262 C267 1.379 1_455 S
C262 N269 1.356 . S
C263 C262 1.363 . S
C263 C266 1.363 . S
N264 C266 1.356 . S
N264 H276 0.984 . S
N264 H277 0.985 . S
N265 C267 1.356 . S
N265 H270 0.984 . S
N265 H271 0.985 . S
C266 C260 1.379 1_455 S
C266 C263 1.363 . S
C266 N264 1.356 . S
C267 C261 1.363 . S
C267 C262 1.379 1_655 S
C267 N265 1.356 . S
N268 C260 1.356 . S
N268 H274 0.984 . S
N268 H275 0.984 . S
N269 C262 1.356 . S
N269 H272 0.984 . S
N269 H273 0.985 . S
H270 N265 0.984 . S
H271 N265 0.985 . S
H272 N269 0.984 . S
H273 N269 0.985 . S
H274 N268 0.984 . S
H275 N268 0.984 . S
H276 N264 0.984 . S
H277 N264 0.985 . S
C278 C279 1.363 . S
C278 C284 1.379 1_455 S
C278 N286 1.356 . S
C279 C278 1.363 . S
C279 C285 1.363 . S
C280 C281 1.363 . S
C280 C285 1.379 1_655 S
C280 N287 1.356 . S
C281 C280 1.363 . S
C281 C284 1.363 . S
N282 C284 1.356 . S
N282 H294 0.984 . S
N282 H295 0.985 . S
N283 C285 1.356 . S
N283 H288 0.984 . S
N283 H289 0.985 . S
C284 C278 1.379 1_655 S
C284 C281 1.363 . S
C284 N282 1.356 . S
C285 C279 1.363 . S
C285 C280 1.379 1_455 S
C285 N283 1.356 . S
N286 C278 1.356 . S
N286 H292 0.984 . S
N286 H293 0.984 . S
N287 C280 1.356 . S
N287 H290 0.984 . S
N287 H291 0.985 . S
H288 N283 0.984 . S
H289 N283 0.985 . S
H290 N287 0.984 . S
H291 N287 0.985 . S
H292 N286 0.984 . S
H293 N286 0.984 . S
H294 N282 0.984 . S
H295 N282 0.985 . S
C296 C297 1.363 . S
C296 C302 1.379 . S
C296 N304 1.356 . S
C297 C296 1.363 . S
C297 C303 1.363 . S
C298 C299 1.363 . S
C298 C303 1.379 . S
C298 N305 1.356 . S
C299 C298 1.363 . S
C299 C302 1.363 . S
N300 C302 1.356 . S
N300 H312 0.984 . S
N300 H313 0.985 . S
N301 C303 1.356 . S
N301 H306 0.984 . S
N301 H307 0.985 . S
C302 C296 1.379 . S
C302 C299 1.363 . S
C302 N300 1.356 . S
C303 C297 1.363 . S
C303 C298 1.379 . S
C303 N301 1.356 . S
N304 C296 1.356 . S
N304 H310 0.984 . S
N304 H311 0.984 . S
N305 C298 1.356 . S
N305 H308 0.984 . S
N305 H309 0.985 . S
H306 N301 0.984 . S
H307 N301 0.985 . S
H308 N305 0.984 . S
H309 N305 0.985 . S
H310 N304 0.984 . S
H311 N304 0.984 . S
H312 N300 0.984 . S
H313 N300 0.985 . S
C314 C315 1.363 . S
C314 C320 1.379 . S
C314 N322 1.356 . S
C315 C314 1.363 . S
C315 C321 1.363 . S
C316 C317 1.363 . S
C316 C321 1.379 . S
C316 N323 1.356 . S
C317 C316 1.363 . S
C317 C320 1.363 . S
N318 C320 1.356 . S
N318 H330 0.984 . S
N318 H331 0.985 . S
N319 C321 1.356 . S
N319 H324 0.984 . S
N319 H325 0.985 . S
C320 C314 1.379 . S
C320 C317 1.363 . S
C320 N318 1.356 . S
C321 C315 1.363 . S
C321 C316 1.379 . S
C321 N319 1.356 . S
N322 C314 1.356 . S
N322 H328 0.984 . S
N322 H329 0.984 . S
N323 C316 1.356 . S
N323 H326 0.984 . S
N323 H327 0.985 . S
H324 N319 0.984 . S
H325 N319 0.985 . S
H326 N323 0.984 . S
H327 N323 0.985 . S
H328 N322 0.984 . S
H329 N322 0.984 . S
H330 N318 0.984 . S
H331 N318 0.985 . S
C332 C333 1.363 . S
C332 C338 1.379 . S
C332 N340 1.356 . S
C333 C332 1.363 . S
C333 C339 1.363 . S
C334 C335 1.363 . S
C334 C339 1.379 . S
C334 N341 1.356 . S
C335 C334 1.363 . S
C335 C338 1.363 . S
N336 C338 1.356 . S
N336 H348 0.984 . S
N336 H349 0.985 . S
N337 C339 1.356 . S
N337 H342 0.984 . S
N337 H343 0.985 . S
C338 C332 1.379 . S
C338 C335 1.363 . S
C338 N336 1.356 . S
C339 C333 1.363 . S
C339 C334 1.379 . S
C339 N337 1.356 . S
N340 C332 1.356 . S
N340 H346 0.984 . S
N340 H347 0.984 . S
N341 C334 1.356 . S
N341 H344 0.984 . S
N341 H345 0.985 . S
H342 N337 0.984 . S
H343 N337 0.985 . S
H344 N341 0.984 . S
H345 N341 0.985 . S
H346 N340 0.984 . S
H347 N340 0.984 . S
H348 N336 0.984 . S
H349 N336 0.985 . S
C350 C351 1.363 . S
C350 C356 1.379 . S
C350 N358 1.356 . S
C351 C350 1.363 . S
C351 C357 1.363 . S
C352 C353 1.363 . S
C352 C357 1.379 . S
C352 N359 1.356 . S
C353 C352 1.363 . S
C353 C356 1.363 . S
N354 C356 1.356 . S
N354 H366 0.984 . S
N354 H367 0.985 . S
N355 C357 1.356 . S
N355 H360 0.984 . S
N355 H361 0.985 . S
C356 C350 1.379 . S
C356 C353 1.363 . S
C356 N354 1.356 . S
C357 C351 1.363 . S
C357 C352 1.379 . S
C357 N355 1.356 . S
N358 C350 1.356 . S
N358 H364 0.984 . S
N358 H365 0.984 . S
N359 C352 1.356 . S
N359 H362 0.984 . S
N359 H363 0.985 . S
H360 N355 0.984 . S
H361 N355 0.985 . S
H362 N359 0.984 . S
H363 N359 0.985 . S
H364 N358 0.984 . S
H365 N358 0.984 . S
H366 N354 0.984 . S
H367 N354 0.985 . S
C368 C369 1.363 . S
C368 C374 1.379 . S
C368 N376 1.356 . S
C369 C368 1.363 . S
C369 C375 1.363 . S
C370 C371 1.363 . S
C370 C375 1.379 . S
C370 N377 1.356 . S
C371 C370 1.363 . S
C371 C374 1.363 . S
N372 C374 1.356 . S
N372 H384 0.984 . S
N372 H385 0.985 . S
N373 C375 1.356 . S
N373 H378 0.984 . S
N373 H379 0.985 . S
C374 C368 1.379 . S
C374 C371 1.363 . S
C374 N372 1.356 . S
C375 C369 1.363 . S
C375 C370 1.379 . S
C375 N373 1.356 . S
N376 C368 1.356 . S
N376 H382 0.984 . S
N376 H383 0.984 . S
N377 C370 1.356 . S
N377 H380 0.984 . S
N377 H381 0.985 . S
H378 N373 0.984 . S
H379 N373 0.985 . S
H380 N377 0.984 . S
H381 N377 0.985 . S
H382 N376 0.984 . S
H383 N376 0.984 . S
H384 N372 0.984 . S
H385 N372 0.985 . S
C386 C387 1.363 . S
C386 C392 1.379 . S
C386 N394 1.356 . S
C387 C386 1.363 . S
C387 C393 1.363 . S
C388 C389 1.363 . S
C388 C393 1.379 . S
C388 N395 1.356 . S
C389 C388 1.363 . S
C389 C392 1.363 . S
N390 C392 1.356 . S
N390 H402 0.984 . S
N390 H403 0.985 . S
N391 C393 1.356 . S
N391 H396 0.984 . S
N391 H397 0.985 . S
C392 C386 1.379 . S
C392 C389 1.363 . S
C392 N390 1.356 . S
C393 C387 1.363 . S
C393 C388 1.379 . S
C393 N391 1.356 . S
N394 C386 1.356 . S
N394 H400 0.984 . S
N394 H401 0.984 . S
N395 C388 1.356 . S
N395 H398 0.984 . S
N395 H399 0.985 . S
H396 N391 0.984 . S
H397 N391 0.985 . S
H398 N395 0.984 . S
H399 N395 0.985 . S
H400 N394 0.984 . S
H401 N394 0.984 . S
H402 N390 0.984 . S
H403 N390 0.985 . S
C404 C405 1.363 . S
C404 C410 1.379 . S
C404 N412 1.356 . S
C405 C404 1.363 . S
C405 C411 1.363 . S
C406 C407 1.363 . S
C406 C411 1.379 . S
C406 N413 1.356 . S
C407 C406 1.363 . S
C407 C410 1.363 . S
N408 C410 1.356 . S
N408 H420 0.984 . S
N408 H421 0.985 . S
N409 C411 1.356 . S
N409 H414 0.984 . S
N409 H415 0.985 . S
C410 C404 1.379 . S
C410 C407 1.363 . S
C410 N408 1.356 . S
C411 C405 1.363 . S
C411 C406 1.379 . S
C411 N409 1.356 . S
N412 C404 1.356 . S
N412 H418 0.984 . S
N412 H419 0.984 . S
N413 C406 1.356 . S
N413 H416 0.984 . S
N413 H417 0.985 . S
H414 N409 0.984 . S
H415 N409 0.985 . S
H416 N413 0.984 . S
H417 N413 0.985 . S
H418 N412 0.984 . S
H419 N412 0.984 . S
H420 N408 0.984 . S
H421 N408 0.985 . S
C422 C423 1.363 . S
C422 C428 1.379 . S
C422 N430 1.356 . S
C423 C422 1.363 . S
C423 C429 1.363 . S
C424 C425 1.363 . S
C424 C429 1.379 . S
C424 N431 1.356 . S
C425 C424 1.363 . S
C425 C428 1.363 . S
N426 C428 1.356 . S
N426 H438 0.984 . S
N426 H439 0.985 . S
N427 C429 1.356 . S
N427 H432 0.984 . S
N427 H433 0.985 . S
C428 C422 1.379 . S
C428 C425 1.363 . S
C428 N426 1.356 . S
C429 C423 1.363 . S
C429 C424 1.379 . S
C429 N427 1.356 . S
N430 C422 1.356 . S
N430 H436 0.984 . S
N430 H437 0.984 . S
N431 C424 1.356 . S
N431 H434 0.984 . S
N431 H435 0.985 . S
H432 N427 0.984 . S
H433 N427 0.985 . S
H434 N431 0.984 . S
H435 N431 0.985 . S
H436 N430 0.984 . S
H437 N430 0.984 . S
H438 N426 0.984 . S
H439 N426 0.985 . S
C440 C441 1.363 . S
C440 C446 1.379 . S
C440 N448 1.356 . S
C441 C440 1.363 . S
C441 C447 1.363 . S
C442 C443 1.363 . S
C442 C447 1.379 . S
C442 N449 1.356 . S
C443 C442 1.363 . S
C443 C446 1.363 . S
N444 C446 1.356 . S
N444 H456 0.984 . S
N444 H457 0.985 . S
N445 C447 1.356 . S
N445 H450 0.984 . S
N445 H451 0.985 . S
C446 C440 1.379 . S
C446 C443 1.363 . S
C446 N444 1.356 . S
C447 C441 1.363 . S
C447 C442 1.379 . S
C447 N445 1.356 . S
N448 C440 1.356 . S
N448 H454 0.984 . S
N448 H455 0.984 . S
N449 C442 1.356 . S
N449 H452 0.984 . S
N449 H453 0.985 . S
H450 N445 0.984 . S
H451 N445 0.985 . S
H452 N449 0.984 . S
H453 N449 0.985 . S
H454 N448 0.984 . S
H455 N448 0.984 . S
H456 N444 0.984 . S
H457 N444 0.985 . S
C458 C459 1.363 . S
C458 C464 1.379 . S
C458 N466 1.356 . S
C459 C458 1.363 . S
C459 C465 1.363 . S
C460 C461 1.363 . S
C460 C465 1.379 . S
C460 N467 1.356 . S
C461 C460 1.363 . S
C461 C464 1.363 . S
N462 C464 1.356 . S
N462 H474 0.984 . S
N462 H475 0.985 . S
N463 C465 1.356 . S
N463 H468 0.984 . S
N463 H469 0.985 . S
C464 C458 1.379 . S
C464 C461 1.363 . S
C464 N462 1.356 . S
C465 C459 1.363 . S
C465 C460 1.379 . S
C465 N463 1.356 . S
N466 C458 1.356 . S
N466 H472 0.984 . S
N466 H473 0.984 . S
N467 C460 1.356 . S
N467 H470 0.984 . S
N467 H471 0.985 . S
H468 N463 0.984 . S
H469 N463 0.985 . S
H470 N467 0.984 . S
H471 N467 0.985 . S
H472 N466 0.984 . S
H473 N466 0.984 . S
H474 N462 0.984 . S
H475 N462 0.985 . S
C476 C477 1.363 . S
C476 C482 1.379 . S
C476 N484 1.356 . S
C477 C476 1.363 . S
C477 C483 1.363 . S
C478 C479 1.363 . S
C478 C483 1.379 . S
C478 N485 1.356 . S
C479 C478 1.363 . S
C479 C482 1.363 . S
N480 C482 1.356 . S
N480 H492 0.984 . S
N480 H493 0.985 . S
N481 C483 1.356 . S
N481 H486 0.984 . S
N481 H487 0.985 . S
C482 C476 1.379 . S
C482 C479 1.363 . S
C482 N480 1.356 . S
C483 C477 1.363 . S
C483 C478 1.379 . S
C483 N481 1.356 . S
N484 C476 1.356 . S
N484 H490 0.984 . S
N484 H491 0.984 . S
N485 C478 1.356 . S
N485 H488 0.984 . S
N485 H489 0.985 . S
H486 N481 0.984 . S
H487 N481 0.985 . S
H488 N485 0.984 . S
H489 N485 0.985 . S
H490 N484 0.984 . S
H491 N484 0.984 . S
H492 N480 0.984 . S
H493 N480 0.985 . S
C494 C495 1.363 . S
C494 C500 1.379 . S
C494 N502 1.356 . S
C495 C494 1.363 . S
C495 C501 1.363 . S
C496 C497 1.363 . S
C496 C501 1.379 . S
C496 N503 1.356 . S
C497 C496 1.363 . S
C497 C500 1.363 . S
N498 C500 1.356 . S
N498 H510 0.984 . S
N498 H511 0.985 . S
N499 C501 1.356 . S
N499 H504 0.984 . S
N499 H505 0.985 . S
C500 C494 1.379 . S
C500 C497 1.363 . S
C500 N498 1.356 . S
C501 C495 1.363 . S
C501 C496 1.379 . S
C501 N499 1.356 . S
N502 C494 1.356 . S
N502 H508 0.984 . S
N502 H509 0.984 . S
N503 C496 1.356 . S
N503 H506 0.984 . S
N503 H507 0.985 . S
H504 N499 0.984 . S
H505 N499 0.985 . S
H506 N503 0.984 . S
H507 N503 0.985 . S
H508 N502 0.984 . S
H509 N502 0.984 . S
H510 N498 0.984 . S
H511 N498 0.985 . S
C512 C513 1.363 1_554 S
C512 C518 1.379 . S
C512 N520 1.356 1_554 S
C513 C512 1.363 1_556 S
C513 C519 1.363 . S
C514 C515 1.363 . S
C514 C519 1.379 1_554 S
C514 N521 1.356 . S
C515 C514 1.363 . S
C515 C518 1.363 . S
N516 C518 1.356 . S
N516 H528 0.984 . S
N516 H529 0.985 . S
N517 C519 1.356 . S
N517 H522 0.984 . S
N517 H523 0.985 . S
C518 C512 1.379 . S
C518 C515 1.363 . S
C518 N516 1.356 . S
C519 C513 1.363 . S
C519 C514 1.379 1_556 S
C519 N517 1.356 . S
N520 C512 1.356 1_556 S
N520 H526 0.984 1_556 S
N520 H527 0.984 . S
N521 C514 1.356 . S
N521 H524 0.984 . S
N521 H525 0.985 . S
H522 N517 0.984 . S
H523 N517 0.985 . S
H524 N521 0.984 . S
H525 N521 0.985 . S
H526 N520 0.984 1_554 S
H527 N520 0.984 . S
H528 N516 0.984 . S
H529 N516 0.985 . S
C530 C531 1.363 . S
C530 C536 1.379 . S
C530 N538 1.356 . S
C531 C530 1.363 . S
C531 C537 1.363 . S
C532 C533 1.363 . S
C532 C537 1.379 . S
C532 N539 1.356 . S
C533 C532 1.363 . S
C533 C536 1.363 . S
N534 C536 1.356 . S
N534 H546 0.984 . S
N534 H547 0.985 . S
N535 C537 1.356 . S
N535 H540 0.984 . S
N535 H541 0.985 . S
C536 C530 1.379 . S
C536 C533 1.363 . S
C536 N534 1.356 . S
C537 C531 1.363 . S
C537 C532 1.379 . S
C537 N535 1.356 . S
N538 C530 1.356 . S
N538 H544 0.984 . S
N538 H545 0.984 . S
N539 C532 1.356 . S
N539 H542 0.984 . S
N539 H543 0.985 . S
H540 N535 0.984 . S
H541 N535 0.985 . S
H542 N539 0.984 . S
H543 N539 0.985 . S
H544 N538 0.984 . S
H545 N538 0.984 . S
H546 N534 0.984 . S
H547 N534 0.985 . S
C548 C549 1.363 . S
C548 C554 1.379 1_554 S
C548 N556 1.356 . S
C549 C548 1.363 . S
C549 C555 1.363 . S
C550 C551 1.363 . S
C550 C555 1.379 1_556 S
C550 N557 1.356 . S
C551 C550 1.363 . S
C551 C554 1.363 . S
N552 C554 1.356 . S
N552 H564 0.984 . S
N552 H565 0.985 . S
N553 C555 1.356 . S
N553 H558 0.984 . S
N553 H559 0.985 . S
C554 C548 1.379 1_556 S
C554 C551 1.363 . S
C554 N552 1.356 . S
C555 C549 1.363 . S
C555 C550 1.379 1_554 S
C555 N553 1.356 . S
N556 C548 1.356 . S
N556 H562 0.984 . S
N556 H563 0.984 . S
N557 C550 1.356 . S
N557 H560 0.984 . S
N557 H561 0.985 . S
H558 N553 0.984 . S
H559 N553 0.985 . S
H560 N557 0.984 . S
H561 N557 0.985 . S
H562 N556 0.984 . S
H563 N556 0.984 . S
H564 N552 0.984 . S
H565 N552 0.985 . S
C566 C567 1.363 . S
C566 C572 1.379 . S
C566 N574 1.356 . S
C567 C566 1.363 . S
C567 C573 1.363 . S
C568 C569 1.363 . S
C568 C573 1.379 . S
C568 N575 1.356 . S
C569 C568 1.363 . S
C569 C572 1.363 . S
N570 C572 1.356 . S
N570 H582 0.984 . S
N570 H583 0.985 . S
N571 C573 1.356 . S
N571 H576 0.984 . S
N571 H577 0.985 . S
C572 C566 1.379 . S
C572 C569 1.363 . S
C572 N570 1.356 . S
C573 C567 1.363 . S
C573 C568 1.379 . S
C573 N571 1.356 . S
N574 C566 1.356 . S
N574 H580 0.984 . S
N574 H581 0.984 . S
N575 C568 1.356 . S
N575 H578 0.984 . S
N575 H579 0.985 . S
H576 N571 0.984 . S
H577 N571 0.985 . S
H578 N575 0.984 . S
H579 N575 0.985 . S
H580 N574 0.984 . S
H581 N574 0.984 . S
H582 N570 0.984 . S
H583 N570 0.985 . S
C584 C585 1.363 1_556 S
C584 C590 1.379 . S
C584 N592 1.356 . S
C585 C584 1.363 1_554 S
C585 C591 1.363 . S
C586 C587 1.363 1_554 S
C586 C591 1.379 . S
C586 N593 1.356 . S
C587 C586 1.363 1_556 S
C587 C590 1.363 . S
N588 C590 1.356 . S
N588 H600 0.984 . S
N588 H601 0.985 . S
N589 C591 1.356 . S
N589 H594 0.984 . S
N589 H595 0.985 . S
C590 C584 1.379 . S
C590 C587 1.363 . S
C590 N588 1.356 . S
C591 C585 1.363 . S
C591 C586 1.379 . S
C591 N589 1.356 . S
N592 C584 1.356 . S
N592 H598 0.984 . S
N592 H599 0.984 1_556 S
N593 C586 1.356 . S
N593 H596 0.984 1_554 S
N593 H597 0.985 . S
H594 N589 0.984 . S
H595 N589 0.985 . S
H596 N593 0.984 1_556 S
H597 N593 0.985 . S
H598 N592 0.984 . S
H599 N592 0.984 1_554 S
H600 N588 0.984 . S
H601 N588 0.985 . S
C602 C603 1.363 . S
C602 C608 1.379 . S
C602 N610 1.356 . S
C603 C602 1.363 . S
C603 C609 1.363 . S
C604 C605 1.363 . S
C604 C609 1.379 . S
C604 N611 1.356 . S
C605 C604 1.363 . S
C605 C608 1.363 . S
N606 C608 1.356 . S
N606 H618 0.984 . S
N606 H619 0.985 . S
N607 C609 1.356 . S
N607 H612 0.984 . S
N607 H613 0.985 . S
C608 C602 1.379 . S
C608 C605 1.363 . S
C608 N606 1.356 . S
C609 C603 1.363 . S
C609 C604 1.379 . S
C609 N607 1.356 . S
N610 C602 1.356 . S
N610 H616 0.984 . S
N610 H617 0.984 . S
N611 C604 1.356 . S
N611 H614 0.984 . S
N611 H615 0.985 . S
H612 N607 0.984 . S
H613 N607 0.985 . S
H614 N611 0.984 . S
H615 N611 0.985 . S
H616 N610 0.984 . S
H617 N610 0.984 . S
H618 N606 0.984 . S
H619 N606 0.985 . S
C620 C621 1.363 1_556 S
C620 C626 1.379 . S
C620 N628 1.356 1_556 S
C621 C620 1.363 1_554 S
C621 C627 1.363 . S
C622 C623 1.363 . S
C622 C627 1.379 1_556 S
C622 N629 1.356 . S
C623 C622 1.363 . S
C623 C626 1.363 . S
N624 C626 1.356 . S
N624 H636 0.984 . S
N624 H637 0.985 . S
N625 C627 1.356 . S
N625 H630 0.984 . S
N625 H631 0.985 . S
C626 C620 1.379 . S
C626 C623 1.363 . S
C626 N624 1.356 . S
C627 C621 1.363 . S
C627 C622 1.379 1_554 S
C627 N625 1.356 . S
N628 C620 1.356 1_554 S
N628 H634 0.984 1_554 S
N628 H635 0.984 . S
N629 C622 1.356 . S
N629 H632 0.984 . S
N629 H633 0.985 . S
H630 N625 0.984 . S
H631 N625 0.985 . S
H632 N629 0.984 . S
H633 N629 0.985 . S
H634 N628 0.984 1_556 S
H635 N628 0.984 . S
H636 N624 0.984 . S
H637 N624 0.985 . S
C638 C639 1.363 . S
C638 C644 1.379 . S
C638 N646 1.356 . S
C639 C638 1.363 . S
C639 C645 1.363 . S
C640 C641 1.363 . S
C640 C645 1.379 . S
C640 N647 1.356 . S
C641 C640 1.363 . S
C641 C644 1.363 . S
N642 C644 1.356 . S
N642 H654 0.984 . S
N642 H655 0.985 . S
N643 C645 1.356 . S
N643 H648 0.984 . S
N643 H649 0.985 . S
C644 C638 1.379 . S
C644 C641 1.363 . S
C644 N642 1.356 . S
C645 C639 1.363 . S
C645 C640 1.379 . S
C645 N643 1.356 . S
N646 C638 1.356 . S
N646 H652 0.984 . S
N646 H653 0.984 . S
N647 C640 1.356 . S
N647 H650 0.984 . S
N647 H651 0.985 . S
H648 N643 0.984 . S
H649 N643 0.985 . S
H650 N647 0.984 . S
H651 N647 0.985 . S
H652 N646 0.984 . S
H653 N646 0.984 . S
H654 N642 0.984 . S
H655 N642 0.985 . S
C656 C657 1.363 1_554 S
C656 C662 1.379 . S
C656 N664 1.356 . S
C657 C656 1.363 1_556 S
C657 C663 1.363 . S
C658 C659 1.363 1_556 S
C658 C663 1.379 . S
C658 N665 1.356 . S
C659 C658 1.363 1_554 S
C659 C662 1.363 . S
N660 C662 1.356 . S
N660 H672 0.984 . S
N660 H673 0.985 . S
N661 C663 1.356 . S
N661 H666 0.984 . S
N661 H667 0.985 . S
C662 C656 1.379 . S
C662 C659 1.363 . S
C662 N660 1.356 . S
C663 C657 1.363 . S
C663 C658 1.379 . S
C663 N661 1.356 . S
N664 C656 1.356 . S
N664 H670 0.984 . S
N664 H671 0.984 . S
N665 C658 1.356 . S
N665 H668 0.984 . S
N665 H669 0.985 . S
H666 N661 0.984 . S
H667 N661 0.985 . S
H668 N665 0.984 . S
H669 N665 0.985 . S
H670 N664 0.984 . S
H671 N664 0.984 . S
H672 N660 0.984 . S
H673 N660 0.985 . S
C674 C675 1.363 . S
C674 C680 1.379 . S
C674 N682 1.356 . S
C675 C674 1.363 . S
C675 C681 1.363 . S
C676 C677 1.363 . S
C676 C681 1.379 . S
C676 N683 1.356 . S
C677 C676 1.363 . S
C677 C680 1.363 . S
N678 C680 1.356 . S
N678 H690 0.984 . S
N678 H691 0.985 . S
N679 C681 1.356 . S
N679 H684 0.984 . S
N679 H685 0.985 . S
C680 C674 1.379 . S
C680 C677 1.363 . S
C680 N678 1.356 . S
C681 C675 1.363 . S
C681 C676 1.379 . S
C681 N679 1.356 . S
N682 C674 1.356 . S
N682 H688 0.984 . S
N682 H689 0.984 . S
N683 C676 1.356 . S
N683 H686 0.984 . S
N683 H687 0.985 . S
H684 N679 0.984 . S
H685 N679 0.985 . S
H686 N683 0.984 . S
H687 N683 0.985 . S
H688 N682 0.984 . S
H689 N682 0.984 . S
H690 N678 0.984 . S
H691 N678 0.985 . S
C692 C693 1.363 . S
C692 C698 1.379 . S
C692 N700 1.356 . S
C693 C692 1.363 . S
C693 C699 1.363 1_554 S
C694 C695 1.363 . S
C694 C699 1.379 . S
C694 N701 1.356 . S
C695 C694 1.363 . S
C695 C698 1.363 1_556 S
N696 C698 1.356 . S
N696 H708 0.984 . S
N696 H709 0.985 . S
N697 C699 1.356 . S
N697 H702 0.984 . S
N697 H703 0.985 . S
C698 C692 1.379 . S
C698 C695 1.363 1_554 S
C698 N696 1.356 . S
C699 C693 1.363 1_556 S
C699 C694 1.379 . S
C699 N697 1.356 . S
N700 C692 1.356 . S
N700 H706 0.984 . S
N700 H707 0.984 . S
N701 C694 1.356 . S
N701 H704 0.984 . S
N701 H705 0.985 . S
H702 N697 0.984 . S
H703 N697 0.985 . S
H704 N701 0.984 . S
H705 N701 0.985 . S
H706 N700 0.984 . S
H707 N700 0.984 . S
H708 N696 0.984 . S
H709 N696 0.985 . S
C710 C711 1.363 . S
C710 C716 1.379 . S
C710 N718 1.356 . S
C711 C710 1.363 . S
C711 C717 1.363 . S
C712 C713 1.363 . S
C712 C717 1.379 . S
C712 N719 1.356 . S
C713 C712 1.363 . S
C713 C716 1.363 . S
N714 C716 1.356 . S
N714 H726 0.984 . S
N714 H727 0.985 . S
N715 C717 1.356 . S
N715 H720 0.984 . S
N715 H721 0.985 . S
C716 C710 1.379 . S
C716 C713 1.363 . S
C716 N714 1.356 . S
C717 C711 1.363 . S
C717 C712 1.379 . S
C717 N715 1.356 . S
N718 C710 1.356 . S
N718 H724 0.984 . S
N718 H725 0.984 . S
N719 C712 1.356 . S
N719 H722 0.984 . S
N719 H723 0.985 . S
H720 N715 0.984 . S
H721 N715 0.985 . S
H722 N719 0.984 . S
H723 N719 0.985 . S
H724 N718 0.984 . S
H725 N718 0.984 . S
H726 N714 0.984 . S
H727 N714 0.985 . S
C728 C729 1.363 . S
C728 C734 1.379 1_545 S
C728 N736 1.356 . S
C729 C728 1.363 . S
C729 C735 1.363 1_556 S
C730 C731 1.363 . S
C730 C735 1.379 1_565 S
C730 N737 1.356 . S
C731 C730 1.363 . S
C731 C734 1.363 1_554 S
N732 C734 1.356 . S
N732 H744 0.984 . S
N732 H745 0.985 . S
N733 C735 1.356 . S
N733 H738 0.984 . S
N733 H739 0.985 . S
C734 C728 1.379 1_565 S
C734 C731 1.363 1_556 S
C734 N732 1.356 . S
C735 C729 1.363 1_554 S
C735 C730 1.379 1_545 S
C735 N733 1.356 . S
N736 C728 1.356 . S
N736 H742 0.984 . S
N736 H743 0.984 . S
N737 C730 1.356 . S
N737 H740 0.984 . S
N737 H741 0.985 . S
H738 N733 0.984 . S
H739 N733 0.985 . S
H740 N737 0.984 . S
H741 N737 0.985 . S
H742 N736 0.984 . S
H743 N736 0.984 . S
H744 N732 0.984 . S
H745 N732 0.985 . S
C746 C747 1.363 . S
C746 C752 1.379 1_565 S
C746 N754 1.356 . S
C747 C746 1.363 . S
C747 C753 1.363 . S
C748 C749 1.363 . S
C748 C753 1.379 1_545 S
C748 N755 1.356 . S
C749 C748 1.363 . S
C749 C752 1.363 . S
N750 C752 1.356 . S
N750 H762 0.984 . S
N750 H763 0.985 . S
N751 C753 1.356 . S
N751 H756 0.984 . S
N751 H757 0.985 . S
C752 C746 1.379 1_545 S
C752 C749 1.363 . S
C752 N750 1.356 . S
C753 C747 1.363 . S
C753 C748 1.379 1_565 S
C753 N751 1.356 . S
N754 C746 1.356 . S
N754 H760 0.984 . S
N754 H761 0.984 . S
N755 C748 1.356 . S
N755 H758 0.984 . S
N755 H759 0.985 . S
H756 N751 0.984 . S
H757 N751 0.985 . S
H758 N755 0.984 . S
H759 N755 0.985 . S
H760 N754 0.984 . S
H761 N754 0.984 . S
H762 N750 0.984 . S
H763 N750 0.985 . S
C764 C765 1.363 1_556 S
C764 C770 1.379 1_565 S
C764 N772 1.356 . S
C765 C764 1.363 1_554 S
C765 C771 1.363 . S
C766 C767 1.363 1_554 S
C766 C771 1.379 1_545 S
C766 N773 1.356 . S
C767 C766 1.363 1_556 S
C767 C770 1.363 . S
N768 C770 1.356 . S
N768 H780 0.984 . S
N768 H781 0.985 . S
N769 C771 1.356 . S
N769 H774 0.984 . S
N769 H775 0.985 . S
C770 C764 1.379 1_545 S
C770 C767 1.363 . S
C770 N768 1.356 . S
C771 C765 1.363 . S
C771 C766 1.379 1_565 S
C771 N769 1.356 . S
N772 C764 1.356 . S
N772 H778 0.984 . S
N772 H779 0.984 . S
N773 C766 1.356 . S
N773 H776 0.984 . S
N773 H777 0.985 . S
H774 N769 0.984 . S
H775 N769 0.985 . S
H776 N773 0.984 . S
H777 N773 0.985 . S
H778 N772 0.984 . S
H779 N772 0.984 . S
H780 N768 0.984 . S
H781 N768 0.985 . S
C782 C783 1.363 . S
C782 C788 1.379 1_545 S
C782 N790 1.356 . S
C783 C782 1.363 . S
C783 C789 1.363 . S
C784 C785 1.363 . S
C784 C789 1.379 1_565 S
C784 N791 1.356 . S
C785 C784 1.363 . S
C785 C788 1.363 . S
N786 C788 1.356 . S
N786 H798 0.984 . S
N786 H799 0.985 . S
N787 C789 1.356 . S
N787 H792 0.984 . S
N787 H793 0.985 . S
C788 C782 1.379 1_565 S
C788 C785 1.363 . S
C788 N786 1.356 . S
C789 C783 1.363 . S
C789 C784 1.379 1_545 S
C789 N787 1.356 . S
N790 C782 1.356 . S
N790 H796 0.984 . S
N790 H797 0.984 . S
N791 C784 1.356 . S
N791 H794 0.984 . S
N791 H795 0.985 . S
H792 N787 0.984 . S
H793 N787 0.985 . S
H794 N791 0.984 . S
H795 N791 0.985 . S
H796 N790 0.984 . S
H797 N790 0.984 . S
H798 N786 0.984 . S
H799 N786 0.985 . S
C225 C9 1.471 . S
C227 C93 1.492 . S
C243 C23 1.471 . S
C245 C107 1.492 . S
C261 C65 1.492 . S
C263 C37 1.471 . S
C279 C79 1.492 . S
C281 C51 1.471 . S
C297 C205 1.492 . S
C299 C121 1.471 . S
C315 C219 1.492 . S
C317 C135 1.471 . S
C333 C149 1.471 . S
C335 C177 1.492 . S
C351 C163 1.471 . S
C353 C191 1.492 . S
C369 C8 1.598 . S
C371 C77 1.559 . S
C387 C22 1.598 . S
C389 C63 1.559 . S
C405 C36 1.598 . S
C407 C105 1.559 . S
C423 C91 1.559 . S
C425 C50 1.598 . S
C441 C189 1.559 . S
C443 C120 1.598 . S
C459 C175 1.559 . S
C461 C134 1.598 . S
C477 C148 1.598 . S
C479 C217 1.559 . S
C495 C203 1.559 . S
C497 C162 1.598 . S
C513 C174 1.531 . S
C515 C6 1.557 . S
C531 C20 1.557 . S
C533 C188 1.531 . S
C549 C202 1.531 . S
C551 C34 1.557 . S
C567 C216 1.531 . S
C569 C48 1.557 . S
C585 C118 1.557 . S
C587 C62 1.531 . S
C603 C132 1.557 . S
C605 C76 1.531 . S
C621 C90 1.531 . S
C623 C146 1.557 . S
C639 C104 1.531 . S
C641 C160 1.557 . S
C657 C35 1.197 . S
C659 C7 1.197 . S
C675 C21 1.197 . S
C677 C49 1.197 . S
C693 C92 1.929 . S
C695 C64 1.929 . S
C711 C78 1.929 . S
C713 C106 1.929 . S
C729 C147 1.197 . S
C731 C119 1.197 . S
C747 C161 1.197 . S
C749 C133 1.197 . S
C765 C204 1.929 . S
C767 C176 1.929 . S
C783 C218 1.929 . S
C785 C190 1.929 . S
