# Generated by pormake.
# Topology ukf, (4)-cn, num edge types: 1
# Building blocks:
#     Node 0, Type 0, BuildingBlock: CEKHIL_clean_sbu_0, # of connection points: 4
#     Node 1, Type 0, BuildingBlock: CEKHIL_clean_sbu_0, # of connection points: 4
#     Node 2, Type 0, BuildingBlock: CEKHIL_clean_sbu_0, # of connection points: 4
#     Node 3, Type 0, BuildingBlock: CEKHIL_clean_sbu_0, # of connection points: 4
#     Node 4, Type 0, BuildingBlock: CEKHIL_clean_sbu_0, # of connection points: 4
#     Node 5, Type 0, BuildingBlock: CEKHIL_clean_sbu_0, # of connection points: 4
#     Node 6, Type 0, BuildingBlock: CEKHIL_clean_sbu_0, # of connection points: 4
#     Node 7, Type 0, BuildingBlock: CEKHIL_clean_sbu_0, # of connection points: 4
#     Node 8, Type 0, BuildingBlock: CEKHIL_clean_sbu_0, # of connection points: 4
#     Node 9, Type 0, BuildingBlock: CEKHIL_clean_sbu_0, # of connection points: 4
#     Node 10, Type 0, BuildingBlock: CEKHIL_clean_sbu_0, # of connection points: 4
#     Node 11, Type 0, BuildingBlock: CEKHIL_clean_sbu_0, # of connection points: 4
#     Edge 12, Type (0, 0), BuildingBlock: EYOCIG_clean_linker_4, # of connection points: 2
#     Edge 13, Type (0, 0), BuildingBlock: EYOCIG_clean_linker_4, # of connection points: 2
#     Edge 14, Type (0, 0), BuildingBlock: EYOCIG_clean_linker_4, # of connection points: 2
#     Edge 15, Type (0, 0), BuildingBlock: EYOCIG_clean_linker_4, # of connection points: 2
#     Edge 16, Type (0, 0), BuildingBlock: EYOCIG_clean_linker_4, # of connection points: 2
#     Edge 17, Type (0, 0), BuildingBlock: EYOCIG_clean_linker_4, # of connection points: 2
#     Edge 18, Type (0, 0), BuildingBlock: EYOCIG_clean_linker_4, # of connection points: 2
#     Edge 19, Type (0, 0), BuildingBlock: EYOCIG_clean_linker_4, # of connection points: 2
#     Edge 20, Type (0, 0), BuildingBlock: EYOCIG_clean_linker_4, # of connection points: 2
#     Edge 21, Type (0, 0), BuildingBlock: EYOCIG_clean_linker_4, # of connection points: 2
#     Edge 22, Type (0, 0), BuildingBlock: EYOCIG_clean_linker_4, # of connection points: 2
#     Edge 23, Type (0, 0), BuildingBlock: EYOCIG_clean_linker_4, # of connection points: 2
#     Edge 24, Type (0, 0), BuildingBlock: EYOCIG_clean_linker_4, # of connection points: 2
#     Edge 25, Type (0, 0), BuildingBlock: EYOCIG_clean_linker_4, # of connection points: 2
#     Edge 26, Type (0, 0), BuildingBlock: EYOCIG_clean_linker_4, # of connection points: 2
#     Edge 27, Type (0, 0), BuildingBlock: EYOCIG_clean_linker_4, # of connection points: 2
#     Edge 28, Type (0, 0), BuildingBlock: EYOCIG_clean_linker_4, # of connection points: 2
#     Edge 29, Type (0, 0), BuildingBlock: EYOCIG_clean_linker_4, # of connection points: 2
#     Edge 30, Type (0, 0), BuildingBlock: EYOCIG_clean_linker_4, # of connection points: 2
#     Edge 31, Type (0, 0), BuildingBlock: EYOCIG_clean_linker_4, # of connection points: 2
#     Edge 32, Type (0, 0), BuildingBlock: EYOCIG_clean_linker_4, # of connection points: 2
#     Edge 33, Type (0, 0), BuildingBlock: EYOCIG_clean_linker_4, # of connection points: 2
#     Edge 34, Type (0, 0), BuildingBlock: EYOCIG_clean_linker_4, # of connection points: 2
#     Edge 35, Type (0, 0), BuildingBlock: EYOCIG_clean_linker_4, # of connection points: 2
# Relax obj value: 0.103
# Max RMSD: 0.082
# Mean RMSD: 0.082
data_MOF--net-ukf--node1-CEKHIL_clean_sbu_0--edge1-EYOCIG_clean_linker_4
_symmetry_space_group_name_H-M    P1
_symmetry_Int_Tables_number       1
_symmetry_cell_setting            triclinic
loop_
_symmetry_equiv_pos_as_xyz
'x, y, z'
_cell_length_a     25.497456
_cell_length_b     25.515638
_cell_length_c     50.451687
_cell_angle_alpha  90.000426
_cell_angle_beta   90.005807
_cell_angle_gamma 120.07476
loop_
_atom_site_label
_atom_site_type_symbol
_atom_site_fract_x
_atom_site_fract_y
_atom_site_fract_z
_atom_type_partial_charge
Co0 Co 0.44795 0.26497 0.03966 0.0
O1 O 0.5038 0.34612 0.05155 0.0
O2 O 0.41323 0.31724 0.03469 0.0
C3 C 0.51828 0.25584 0.01694 0.0
O4 O 0.37971 0.18484 0.02437 0.0
Co5 Co 0.4704 0.15891 0.0555 0.0
O6 O 0.40577 0.1128 0.0294 0.0
C7 C 0.41802 0.20731 0.09394 0.0
C8 C 0.46441 0.36065 0.04391 0.0
C9 C 0.37077 0.13087 0.02062 0.0
O10 O 0.41282 0.24098 0.07637 0.0
O11 O 0.44389 0.17614 0.09004 0.0
O12 O 0.49152 0.28226 0.00606 0.0
O13 O 0.50493 0.2395 0.04124 0.0
Co14 Co 0.19257 0.44283 0.37273 0.0
O15 O 0.16732 0.49864 0.38459 0.0
O16 O 0.10556 0.40838 0.36749 0.0
C17 C 0.27262 0.51331 0.35029 0.0
O18 O 0.20445 0.37469 0.35741 0.0
Co19 Co 0.32082 0.46479 0.38893 0.0
O20 O 0.30252 0.40047 0.36274 0.0
C21 C 0.2193 0.41241 0.42708 0.0
C22 C 0.11338 0.45946 0.37678 0.0
C23 C 0.24949 0.36569 0.35378 0.0
O24 O 0.18069 0.40732 0.40939 0.0
O25 O 0.27648 0.43825 0.42336 0.0
O26 O 0.21955 0.48674 0.33924 0.0
O27 O 0.27517 0.49964 0.37459 0.0
Co28 Co 0.75909 0.18835 0.70638 0.0
O29 O 0.67799 0.16292 0.71836 0.0
O30 O 0.70666 0.10131 0.70135 0.0
C31 C 0.76824 0.26793 0.68377 0.0
O32 O 0.83912 0.20034 0.69097 0.0
Co33 Co 0.86549 0.31689 0.72223 0.0
O34 O 0.91143 0.29849 0.69605 0.0
C35 C 0.81705 0.2159 0.7606 0.0
C36 C 0.66332 0.109 0.71065 0.0
C37 C 0.89317 0.24541 0.68721 0.0
O38 O 0.78323 0.17707 0.74303 0.0
O39 O 0.84832 0.273 0.75674 0.0
O40 O 0.74168 0.21474 0.67286 0.0
O41 O 0.78473 0.27085 0.70805 0.0
Co42 Co 0.57993 0.75483 0.03975 0.0
O43 O 0.52416 0.67369 0.05165 0.0
O44 O 0.61458 0.70253 0.03465 0.0
C45 C 0.50944 0.76401 0.01718 0.0
O46 O 0.64807 0.83495 0.02441 0.0
Co47 Co 0.55768 0.86092 0.05577 0.0
O48 O 0.62209 0.90703 0.02959 0.0
C49 C 0.61031 0.81242 0.09404 0.0
C50 C 0.56348 0.65913 0.04392 0.0
C51 C 0.65699 0.88894 0.02071 0.0
O52 O 0.61537 0.77878 0.07641 0.0
O53 O 0.58441 0.8436 0.09024 0.0
O54 O 0.53608 0.73757 0.00622 0.0
O55 O 0.523 0.78034 0.04148 0.0
Co56 Co 0.83543 0.5759 0.37279 0.0
O57 O 0.86072 0.52013 0.38466 0.0
O58 O 0.92243 0.61035 0.36752 0.0
C59 C 0.75532 0.50534 0.35039 0.0
O60 O 0.8235 0.64398 0.35745 0.0
Co61 Co 0.7072 0.55396 0.38901 0.0
O62 O 0.72544 0.61823 0.36281 0.0
C63 C 0.80882 0.60651 0.42712 0.0
C64 C 0.91464 0.55929 0.37682 0.0
C65 C 0.77845 0.65299 0.35383 0.0
O66 O 0.84739 0.61152 0.40942 0.0
O67 O 0.75163 0.58065 0.42342 0.0
O68 O 0.80837 0.53188 0.33932 0.0
O69 O 0.75283 0.51908 0.37468 0.0
Co70 Co 0.26877 0.82991 0.70651 0.0
O71 O 0.34989 0.8554 0.71849 0.0
O72 O 0.32122 0.91689 0.70135 0.0
C73 C 0.25954 0.75012 0.68404 0.0
O74 O 0.18873 0.81782 0.69106 0.0
Co75 Co 0.16237 0.70152 0.72253 0.0
O76 O 0.11639 0.71973 0.69629 0.0
C77 C 0.21094 0.80285 0.76074 0.0
C78 C 0.36457 0.90926 0.7107 0.0
C79 C 0.13466 0.77273 0.68736 0.0
O80 O 0.24473 0.84152 0.74311 0.0
O81 O 0.17963 0.74571 0.75697 0.0
O82 O 0.2861 0.80322 0.67305 0.0
O83 O 0.2431 0.7474 0.70831 0.0
Co84 Co 0.75896 0.57499 0.60729 0.0
O85 O 0.67782 0.51935 0.59527 0.0
O86 O 0.70666 0.60965 0.61235 0.0
C87 C 0.76794 0.5044 0.62984 0.0
O88 O 0.83904 0.64298 0.62274 0.0
Co89 Co 0.86519 0.55277 0.5914 0.0
O90 O 0.9112 0.61706 0.61762 0.0
C91 C 0.81703 0.60567 0.55309 0.0
C92 C 0.66326 0.55863 0.60302 0.0
C93 C 0.89304 0.6519 0.62649 0.0
O94 O 0.78319 0.61058 0.57067 0.0
O95 O 0.84821 0.57978 0.55692 0.0
O96 O 0.74145 0.53102 0.64078 0.0
O97 O 0.78445 0.51805 0.60556 0.0
Co98 Co 0.19277 0.75505 0.94105 0.0
O99 O 0.16745 0.67398 0.92913 0.0
O100 O 0.10573 0.70246 0.94621 0.0
C101 C 0.27269 0.76455 0.96354 0.0
O102 O 0.20468 0.83504 0.95641 0.0
Co103 Co 0.32112 0.8615 0.92497 0.0
O104 O 0.30278 0.90745 0.95116 0.0
C105 C 0.21975 0.81249 0.88674 0.0
C106 C 0.11351 0.6592 0.93691 0.0
C107 C 0.24973 0.88913 0.96008 0.0
O108 O 0.18107 0.77884 0.9044 0.0
O109 O 0.27692 0.84387 0.89051 0.0
O110 O 0.21957 0.73797 0.97454 0.0
O111 O 0.27536 0.78088 0.93925 0.0
Co112 Co 0.44769 0.18802 0.27439 0.0
O113 O 0.50356 0.16278 0.26256 0.0
O114 O 0.41306 0.10101 0.27948 0.0
C115 C 0.51807 0.26778 0.29701 0.0
O116 O 0.37946 0.19988 0.28964 0.0
Co117 Co 0.47003 0.31642 0.25836 0.0
O118 O 0.40547 0.29799 0.28447 0.0
C119 C 0.41771 0.2153 0.22004 0.0
C120 C 0.46423 0.10884 0.27026 0.0
C121 C 0.37052 0.24493 0.29332 0.0
O122 O 0.41248 0.17654 0.23768 0.0
O123 O 0.44359 0.27241 0.22386 0.0
O124 O 0.49136 0.21464 0.30796 0.0
O125 O 0.50463 0.27056 0.2727 0.0
Co126 Co 0.2689 0.44333 0.60736 0.0
O127 O 0.35004 0.49909 0.5954 0.0
O128 O 0.32121 0.40866 0.61232 0.0
C129 C 0.25984 0.51371 0.63005 0.0
O130 O 0.18881 0.37521 0.62274 0.0
Co131 Co 0.16266 0.46562 0.59156 0.0
O132 O 0.11665 0.40116 0.61771 0.0
C133 C 0.2109 0.41307 0.55313 0.0
C134 C 0.36461 0.45976 0.60305 0.0
C135 C 0.13481 0.36626 0.62651 0.0
O136 O 0.24472 0.40803 0.57068 0.0
O137 O 0.1797 0.43891 0.55702 0.0
O138 O 0.28635 0.48703 0.64092 0.0
O139 O 0.24337 0.50025 0.60576 0.0
Co140 Co 0.83497 0.26465 0.94089 0.0
O141 O 0.8604 0.34572 0.92895 0.0
O142 O 0.92198 0.3172 0.94615 0.0
C143 C 0.75494 0.25521 0.96326 0.0
O144 O 0.82294 0.18465 0.9563 0.0
Co145 Co 0.70668 0.15821 0.92472 0.0
O146 O 0.72485 0.11226 0.95097 0.0
C147 C 0.80826 0.20713 0.8866 0.0
C148 C 0.91428 0.36048 0.93681 0.0
C149 C 0.77786 0.13057 0.95996 0.0
O150 O 0.84686 0.24081 0.90428 0.0
O151 O 0.75107 0.17578 0.89031 0.0
O152 O 0.808 0.28177 0.97432 0.0
O153 O 0.75239 0.23886 0.93898 0.0
Co154 Co 0.58032 0.83075 0.27441 0.0
O155 O 0.52448 0.85599 0.26255 0.0
O156 O 0.61489 0.91773 0.27956 0.0
C157 C 0.50987 0.75087 0.29694 0.0
O158 O 0.64852 0.81886 0.2897 0.0
Co159 Co 0.55813 0.70245 0.25829 0.0
O160 O 0.62259 0.72081 0.28444 0.0
C161 C 0.6106 0.80376 0.22007 0.0
C162 C 0.56376 0.90992 0.27031 0.0
C163 C 0.65748 0.77383 0.29335 0.0
O164 O 0.61571 0.84241 0.23773 0.0
O165 O 0.58473 0.74663 0.22384 0.0
O166 O 0.53651 0.80397 0.30793 0.0
O167 O 0.52342 0.74821 0.27263 0.0
C168 C 0.2525 0.98058 0.98469 0.0
C169 C 0.24187 0.93356 0.97433 0.0
C170 C 0.28181 0.03918 -0.00387 0.0
C171 C 0.31829 0.08627 0.00646 0.0
C172 C 0.25233 0.277 0.3292 0.0
C173 C 0.24167 0.31338 0.33954 0.0
C174 C 0.28164 0.24772 0.3178 0.0
C175 C 0.31809 0.23708 0.30749 0.0
C176 C 0.98464 0.24815 0.66258 0.0
C177 C 0.93763 0.23755 0.67297 0.0
C178 C 0.04322 0.27743 0.6511 0.0
C179 C 0.09027 0.31387 0.64072 0.0
C180 C 0.74575 0.98059 -0.00389 0.0
C181 C 0.70934 0.93352 0.00648 0.0
C182 C 0.77501 0.03915 0.98464 0.0
C183 C 0.78564 0.08614 0.97425 0.0
C184 C 0.7463 0.77098 0.31786 0.0
C185 C 0.70987 0.78164 0.30755 0.0
C186 C 0.7756 0.74168 0.32926 0.0
C187 C 0.78625 0.70529 0.33959 0.0
C188 C 0.98462 0.74059 0.65117 0.0
C189 C 0.93757 0.70419 0.64076 0.0
C190 C 0.04318 0.76987 0.66267 0.0
C191 C 0.09019 0.7805 0.67307 0.0
C192 C 0.6573 0.24587 0.98504 0.0
C193 C 0.70299 0.25097 0.97584 0.0
C194 C 0.60592 0.24606 -0.00524 0.0
C195 C 0.5656 0.25142 0.00407 0.0
C196 C 0.3704 0.6015 0.32849 0.0
C197 C 0.32461 0.56095 0.33767 0.0
C198 C 0.42194 0.65313 0.31885 0.0
C199 C 0.46238 0.69893 0.30965 0.0
C200 C 0.77757 0.36521 0.66169 0.0
C201 C 0.77245 0.31965 0.671 0.0
C202 C 0.77749 0.41657 0.6519 0.0
C203 C 0.77227 0.45696 0.6426 0.0
C204 C 0.37027 0.77398 0.98544 0.0
C205 C 0.32459 0.76883 0.9762 0.0
C206 C 0.42168 0.77383 -0.00485 0.0
C207 C 0.46204 0.76847 0.00442 0.0
C208 C 0.60597 0.36544 0.319 0.0
C209 C 0.56554 0.31965 0.30977 0.0
C210 C 0.65751 0.41707 0.32864 0.0
C211 C 0.7033 0.45766 0.3378 0.0
C212 C 0.25022 0.60136 0.65225 0.0
C213 C 0.25548 0.56105 0.6429 0.0
C214 C 0.25012 0.65269 0.66207 0.0
C215 C 0.25525 0.69828 0.67136 0.0
C216 C 0.38331 0.19688 0.14317 0.0
C217 C 0.39625 0.20552 0.12011 0.0
C218 C 0.38321 0.1908 0.17079 0.0
C219 C 0.39602 0.19513 0.19388 0.0
C220 C 0.19438 0.37789 0.4763 0.0
C221 C 0.19889 0.3907 0.45322 0.0
C222 C 0.20036 0.3781 0.50393 0.0
C223 C 0.20903 0.39119 0.52698 0.0
C224 C 0.83328 0.19724 0.83743 0.0
C225 C 0.8287 0.20567 0.8605 0.0
C226 C 0.82739 0.19138 0.80981 0.0
C227 C 0.8188 0.19581 0.78675 0.0
C228 C 0.64522 0.82264 0.14323 0.0
C229 C 0.6322 0.81409 0.12017 0.0
C230 C 0.6453 0.82855 0.17086 0.0
C231 C 0.63239 0.82406 0.19393 0.0
C232 C 0.82771 0.64096 0.50394 0.0
C233 C 0.81896 0.62775 0.52698 0.0
C234 C 0.83377 0.6412 0.47632 0.0
C235 C 0.82929 0.62833 0.45324 0.0
C236 C 0.19487 0.82218 0.83752 0.0
C237 C 0.19942 0.81386 0.8606 0.0
C238 C 0.20072 0.82782 0.80989 0.0
C239 C 0.20926 0.82318 0.78685 0.0
C240 C 0.52731 0.54195 0.04436 0.0
C241 C 0.54734 0.59618 0.04355 0.0
C242 C 0.50058 0.47783 0.04436 0.0
C243 C 0.48054 0.42361 0.04355 0.0
C244 C 0.99541 0.52283 0.37712 0.0
C245 C 0.96136 0.54302 0.37636 0.0
C246 C 0.0326 0.49592 0.37711 0.0
C247 C 0.06665 0.47572 0.37634 0.0
C248 C 0.54603 0.02786 0.71112 0.0
C249 C 0.6003 0.06211 0.7103 0.0
C250 C 0.48187 0.9904 0.71113 0.0
C251 C 0.42759 0.95614 0.71032 0.0
C252 C 0.54601 0.52254 0.60255 0.0
C253 C 0.60027 0.54252 0.60337 0.0
C254 C 0.48186 0.49587 0.60255 0.0
C255 C 0.42761 0.47588 0.60338 0.0
C256 C 0.03256 0.54191 0.9365 0.0
C257 C 0.06671 0.59617 0.9373 0.0
C258 C 0.99525 0.47777 0.93648 0.0
C259 C 0.96109 0.4235 0.93725 0.0
C260 C 0.52741 0.99075 0.26992 0.0
C261 C 0.54755 0.95667 0.27071 0.0
C262 C 0.50056 0.02799 0.26991 0.0
C263 C 0.48042 0.06208 0.27068 0.0
loop_
_geom_bond_atom_site_label_1
_geom_bond_atom_site_label_2
_geom_bond_distance
_geom_bond_site_symmetry_2
_ccdc_geom_bond_type
Co0 O1 2.216 . S
Co0 O2 2.091 . S
Co0 O4 2.004 . S
Co0 O10 2.021 . S
Co0 O12 2.137 . S
Co0 O13 2.244 . S
O1 Co0 2.216 . S
O1 C8 1.247 . S
O2 Co0 2.091 . S
O2 C8 1.261 . S
C3 O12 1.247 . S
C3 O13 1.272 . S
O4 Co0 2.004 . S
O4 C9 1.259 . S
Co5 O6 2.061 . S
Co5 O11 2.052 . S
Co5 O13 2.135 . S
O6 Co5 2.061 . S
O6 C9 1.235 . S
C7 O10 1.238 . S
C7 O11 1.241 . S
C8 O1 1.247 . S
C8 O2 1.261 . S
C9 O4 1.259 . S
C9 O6 1.235 . S
O10 Co0 2.021 . S
O10 C7 1.238 . S
O11 Co5 2.052 . S
O11 C7 1.241 . S
O12 Co0 2.137 . S
O12 C3 1.247 . S
O13 Co0 2.244 . S
O13 C3 1.272 . S
O13 Co5 2.135 . S
Co14 O15 2.216 . S
Co14 O16 2.091 . S
Co14 O18 2.004 . S
Co14 O24 2.021 . S
Co14 O26 2.137 . S
Co14 O27 2.244 . S
O15 Co14 2.216 . S
O15 C22 1.247 . S
O16 Co14 2.091 . S
O16 C22 1.261 . S
C17 O26 1.247 . S
C17 O27 1.272 . S
O18 Co14 2.004 . S
O18 C23 1.259 . S
Co19 O20 2.061 . S
Co19 O25 2.052 . S
Co19 O27 2.135 . S
O20 Co19 2.061 . S
O20 C23 1.235 . S
C21 O24 1.238 . S
C21 O25 1.241 . S
C22 O15 1.247 . S
C22 O16 1.261 . S
C23 O18 1.259 . S
C23 O20 1.235 . S
O24 Co14 2.021 . S
O24 C21 1.238 . S
O25 Co19 2.052 . S
O25 C21 1.241 . S
O26 Co14 2.137 . S
O26 C17 1.247 . S
O27 Co14 2.244 . S
O27 C17 1.272 . S
O27 Co19 2.135 . S
Co28 O29 2.216 . S
Co28 O30 2.091 . S
Co28 O32 2.004 . S
Co28 O38 2.021 . S
Co28 O40 2.137 . S
Co28 O41 2.244 . S
O29 Co28 2.216 . S
O29 C36 1.247 . S
O30 Co28 2.091 . S
O30 C36 1.261 . S
C31 O40 1.247 . S
C31 O41 1.272 . S
O32 Co28 2.004 . S
O32 C37 1.259 . S
Co33 O34 2.061 . S
Co33 O39 2.052 . S
Co33 O41 2.135 . S
O34 Co33 2.061 . S
O34 C37 1.235 . S
C35 O38 1.238 . S
C35 O39 1.241 . S
C36 O29 1.247 . S
C36 O30 1.261 . S
C37 O32 1.259 . S
C37 O34 1.235 . S
O38 Co28 2.021 . S
O38 C35 1.238 . S
O39 Co33 2.052 . S
O39 C35 1.241 . S
O40 Co28 2.137 . S
O40 C31 1.247 . S
O41 Co28 2.244 . S
O41 C31 1.272 . S
O41 Co33 2.135 . S
Co42 O43 2.216 . S
Co42 O44 2.091 . S
Co42 O46 2.004 . S
Co42 O52 2.021 . S
Co42 O54 2.137 . S
Co42 O55 2.244 . S
O43 Co42 2.216 . S
O43 C50 1.247 . S
O44 Co42 2.091 . S
O44 C50 1.261 . S
C45 O54 1.247 . S
C45 O55 1.272 . S
O46 Co42 2.004 . S
O46 C51 1.259 . S
Co47 O48 2.061 . S
Co47 O53 2.052 . S
Co47 O55 2.135 . S
O48 Co47 2.061 . S
O48 C51 1.235 . S
C49 O52 1.238 . S
C49 O53 1.241 . S
C50 O43 1.247 . S
C50 O44 1.261 . S
C51 O46 1.259 . S
C51 O48 1.235 . S
O52 Co42 2.021 . S
O52 C49 1.238 . S
O53 Co47 2.052 . S
O53 C49 1.241 . S
O54 Co42 2.137 . S
O54 C45 1.247 . S
O55 Co42 2.244 . S
O55 C45 1.272 . S
O55 Co47 2.135 . S
Co56 O57 2.216 . S
Co56 O58 2.091 . S
Co56 O60 2.004 . S
Co56 O66 2.021 . S
Co56 O68 2.137 . S
Co56 O69 2.244 . S
O57 Co56 2.216 . S
O57 C64 1.247 . S
O58 Co56 2.091 . S
O58 C64 1.261 . S
C59 O68 1.247 . S
C59 O69 1.272 . S
O60 Co56 2.004 . S
O60 C65 1.259 . S
Co61 O62 2.061 . S
Co61 O67 2.052 . S
Co61 O69 2.135 . S
O62 Co61 2.061 . S
O62 C65 1.235 . S
C63 O66 1.238 . S
C63 O67 1.241 . S
C64 O57 1.247 . S
C64 O58 1.261 . S
C65 O60 1.259 . S
C65 O62 1.235 . S
O66 Co56 2.021 . S
O66 C63 1.238 . S
O67 Co61 2.052 . S
O67 C63 1.241 . S
O68 Co56 2.137 . S
O68 C59 1.247 . S
O69 Co56 2.244 . S
O69 C59 1.272 . S
O69 Co61 2.135 . S
Co70 O71 2.216 . S
Co70 O72 2.091 . S
Co70 O74 2.004 . S
Co70 O80 2.021 . S
Co70 O82 2.137 . S
Co70 O83 2.244 . S
O71 Co70 2.216 . S
O71 C78 1.247 . S
O72 Co70 2.091 . S
O72 C78 1.261 . S
C73 O82 1.247 . S
C73 O83 1.272 . S
O74 Co70 2.004 . S
O74 C79 1.259 . S
Co75 O76 2.061 . S
Co75 O81 2.052 . S
Co75 O83 2.135 . S
O76 Co75 2.061 . S
O76 C79 1.235 . S
C77 O80 1.238 . S
C77 O81 1.241 . S
C78 O71 1.247 . S
C78 O72 1.261 . S
C79 O74 1.259 . S
C79 O76 1.235 . S
O80 Co70 2.021 . S
O80 C77 1.238 . S
O81 Co75 2.052 . S
O81 C77 1.241 . S
O82 Co70 2.137 . S
O82 C73 1.247 . S
O83 Co70 2.244 . S
O83 C73 1.272 . S
O83 Co75 2.135 . S
Co84 O85 2.216 . S
Co84 O86 2.091 . S
Co84 O88 2.004 . S
Co84 O94 2.021 . S
Co84 O96 2.137 . S
Co84 O97 2.244 . S
O85 Co84 2.216 . S
O85 C92 1.247 . S
O86 Co84 2.091 . S
O86 C92 1.261 . S
C87 O96 1.247 . S
C87 O97 1.272 . S
O88 Co84 2.004 . S
O88 C93 1.259 . S
Co89 O90 2.061 . S
Co89 O95 2.052 . S
Co89 O97 2.135 . S
O90 Co89 2.061 . S
O90 C93 1.235 . S
C91 O94 1.238 . S
C91 O95 1.241 . S
C92 O85 1.247 . S
C92 O86 1.261 . S
C93 O88 1.259 . S
C93 O90 1.235 . S
O94 Co84 2.021 . S
O94 C91 1.238 . S
O95 Co89 2.052 . S
O95 C91 1.241 . S
O96 Co84 2.137 . S
O96 C87 1.247 . S
O97 Co84 2.244 . S
O97 C87 1.272 . S
O97 Co89 2.135 . S
Co98 O99 2.216 . S
Co98 O100 2.091 . S
Co98 O102 2.004 . S
Co98 O108 2.021 . S
Co98 O110 2.137 . S
Co98 O111 2.244 . S
O99 Co98 2.216 . S
O99 C106 1.247 . S
O100 Co98 2.091 . S
O100 C106 1.261 . S
C101 O110 1.247 . S
C101 O111 1.272 . S
O102 Co98 2.004 . S
O102 C107 1.259 . S
Co103 O104 2.061 . S
Co103 O109 2.052 . S
Co103 O111 2.135 . S
O104 Co103 2.061 . S
O104 C107 1.235 . S
C105 O108 1.238 . S
C105 O109 1.241 . S
C106 O99 1.247 . S
C106 O100 1.261 . S
C107 O102 1.259 . S
C107 O104 1.235 . S
O108 Co98 2.021 . S
O108 C105 1.238 . S
O109 Co103 2.052 . S
O109 C105 1.241 . S
O110 Co98 2.137 . S
O110 C101 1.247 . S
O111 Co98 2.244 . S
O111 C101 1.272 . S
O111 Co103 2.135 . S
Co112 O113 2.216 . S
Co112 O114 2.091 . S
Co112 O116 2.004 . S
Co112 O122 2.021 . S
Co112 O124 2.137 . S
Co112 O125 2.244 . S
O113 Co112 2.216 . S
O113 C120 1.247 . S
O114 Co112 2.091 . S
O114 C120 1.261 . S
C115 O124 1.247 . S
C115 O125 1.272 . S
O116 Co112 2.004 . S
O116 C121 1.259 . S
Co117 O118 2.061 . S
Co117 O123 2.052 . S
Co117 O125 2.135 . S
O118 Co117 2.061 . S
O118 C121 1.235 . S
C119 O122 1.238 . S
C119 O123 1.241 . S
C120 O113 1.247 . S
C120 O114 1.261 . S
C121 O116 1.259 . S
C121 O118 1.235 . S
O122 Co112 2.021 . S
O122 C119 1.238 . S
O123 Co117 2.052 . S
O123 C119 1.241 . S
O124 Co112 2.137 . S
O124 C115 1.247 . S
O125 Co112 2.244 . S
O125 C115 1.272 . S
O125 Co117 2.135 . S
Co126 O127 2.216 . S
Co126 O128 2.091 . S
Co126 O130 2.004 . S
Co126 O136 2.021 . S
Co126 O138 2.137 . S
Co126 O139 2.244 . S
O127 Co126 2.216 . S
O127 C134 1.247 . S
O128 Co126 2.091 . S
O128 C134 1.261 . S
C129 O138 1.247 . S
C129 O139 1.272 . S
O130 Co126 2.004 . S
O130 C135 1.259 . S
Co131 O132 2.061 . S
Co131 O137 2.052 . S
Co131 O139 2.135 . S
O132 Co131 2.061 . S
O132 C135 1.235 . S
C133 O136 1.238 . S
C133 O137 1.241 . S
C134 O127 1.247 . S
C134 O128 1.261 . S
C135 O130 1.259 . S
C135 O132 1.235 . S
O136 Co126 2.021 . S
O136 C133 1.238 . S
O137 Co131 2.052 . S
O137 C133 1.241 . S
O138 Co126 2.137 . S
O138 C129 1.247 . S
O139 Co126 2.244 . S
O139 C129 1.272 . S
O139 Co131 2.135 . S
Co140 O141 2.216 . S
Co140 O142 2.091 . S
Co140 O144 2.004 . S
Co140 O150 2.021 . S
Co140 O152 2.137 . S
Co140 O153 2.244 . S
O141 Co140 2.216 . S
O141 C148 1.247 . S
O142 Co140 2.091 . S
O142 C148 1.261 . S
C143 O152 1.247 . S
C143 O153 1.272 . S
O144 Co140 2.004 . S
O144 C149 1.259 . S
Co145 O146 2.061 . S
Co145 O151 2.052 . S
Co145 O153 2.135 . S
O146 Co145 2.061 . S
O146 C149 1.235 . S
C147 O150 1.238 . S
C147 O151 1.241 . S
C148 O141 1.247 . S
C148 O142 1.261 . S
C149 O144 1.259 . S
C149 O146 1.235 . S
O150 Co140 2.021 . S
O150 C147 1.238 . S
O151 Co145 2.052 . S
O151 C147 1.241 . S
O152 Co140 2.137 . S
O152 C143 1.247 . S
O153 Co140 2.244 . S
O153 C143 1.272 . S
O153 Co145 2.135 . S
Co154 O155 2.216 . S
Co154 O156 2.091 . S
Co154 O158 2.004 . S
Co154 O164 2.021 . S
Co154 O166 2.137 . S
Co154 O167 2.244 . S
O155 Co154 2.216 . S
O155 C162 1.247 . S
O156 Co154 2.091 . S
O156 C162 1.261 . S
C157 O166 1.247 . S
C157 O167 1.272 . S
O158 Co154 2.004 . S
O158 C163 1.259 . S
Co159 O160 2.061 . S
Co159 O165 2.052 . S
Co159 O167 2.135 . S
O160 Co159 2.061 . S
O160 C163 1.235 . S
C161 O164 1.238 . S
C161 O165 1.241 . S
C162 O155 1.247 . S
C162 O156 1.261 . S
C163 O158 1.259 . S
C163 O160 1.235 . S
O164 Co154 2.021 . S
O164 C161 1.238 . S
O165 Co159 2.052 . S
O165 C161 1.241 . S
O166 Co154 2.137 . S
O166 C157 1.247 . S
O167 Co154 2.244 . S
O167 C157 1.272 . S
O167 Co159 2.135 . S
C168 C169 1.170 . S
C168 C170 1.380 1_566 S
C169 C168 1.170 . S
C170 C168 1.380 1_544 S
C170 C171 1.170 . S
C171 C170 1.170 . S
C172 C173 1.170 . S
C172 C174 1.380 . S
C173 C172 1.170 . S
C174 C172 1.380 . S
C174 C175 1.170 . S
C175 C174 1.170 . S
C176 C177 1.170 . S
C176 C178 1.380 1_655 S
C177 C176 1.170 . S
C178 C176 1.380 1_455 S
C178 C179 1.170 . S
C179 C178 1.170 . S
C180 C181 1.170 . S
C180 C182 1.380 1_564 S
C181 C180 1.170 . S
C182 C180 1.380 1_546 S
C182 C183 1.170 . S
C183 C182 1.170 . S
C184 C185 1.170 . S
C184 C186 1.380 . S
C185 C184 1.170 . S
C186 C184 1.380 . S
C186 C187 1.170 . S
C187 C186 1.170 . S
C188 C189 1.170 . S
C188 C190 1.380 1_655 S
C189 C188 1.170 . S
C190 C188 1.380 1_455 S
C190 C191 1.170 . S
C191 C190 1.170 . S
C192 C193 1.170 . S
C192 C194 1.380 1_556 S
C193 C192 1.170 . S
C194 C192 1.380 1_554 S
C194 C195 1.170 . S
C195 C194 1.170 . S
C196 C197 1.170 . S
C196 C198 1.380 . S
C197 C196 1.170 . S
C198 C196 1.380 . S
C198 C199 1.170 . S
C199 C198 1.170 . S
C200 C201 1.170 . S
C200 C202 1.380 . S
C201 C200 1.170 . S
C202 C200 1.380 . S
C202 C203 1.170 . S
C203 C202 1.170 . S
C204 C205 1.170 . S
C204 C206 1.380 1_556 S
C205 C204 1.170 . S
C206 C204 1.380 1_554 S
C206 C207 1.170 . S
C207 C206 1.170 . S
C208 C209 1.170 . S
C208 C210 1.380 . S
C209 C208 1.170 . S
C210 C208 1.380 . S
C210 C211 1.170 . S
C211 C210 1.170 . S
C212 C213 1.170 . S
C212 C214 1.380 . S
C213 C212 1.170 . S
C214 C212 1.380 . S
C214 C215 1.170 . S
C215 C214 1.170 . S
C216 C217 1.170 . S
C216 C218 1.380 . S
C217 C216 1.170 . S
C218 C216 1.380 . S
C218 C219 1.170 . S
C219 C218 1.170 . S
C220 C221 1.170 . S
C220 C222 1.380 . S
C221 C220 1.170 . S
C222 C220 1.380 . S
C222 C223 1.170 . S
C223 C222 1.170 . S
C224 C225 1.170 . S
C224 C226 1.380 . S
C225 C224 1.170 . S
C226 C224 1.380 . S
C226 C227 1.170 . S
C227 C226 1.170 . S
C228 C229 1.170 . S
C228 C230 1.380 . S
C229 C228 1.170 . S
C230 C228 1.380 . S
C230 C231 1.170 . S
C231 C230 1.170 . S
C232 C233 1.170 . S
C232 C234 1.380 . S
C233 C232 1.170 . S
C234 C232 1.380 . S
C234 C235 1.170 . S
C235 C234 1.170 . S
C236 C237 1.170 . S
C236 C238 1.380 . S
C237 C236 1.170 . S
C238 C236 1.380 . S
C238 C239 1.170 . S
C239 C238 1.170 . S
C240 C241 1.170 . S
C240 C242 1.380 . S
C241 C240 1.170 . S
C242 C240 1.380 . S
C242 C243 1.170 . S
C243 C242 1.170 . S
C244 C245 1.170 . S
C244 C246 1.380 1_655 S
C245 C244 1.170 . S
C246 C244 1.380 1_455 S
C246 C247 1.170 . S
C247 C246 1.170 . S
C248 C249 1.170 . S
C248 C250 1.380 1_545 S
C249 C248 1.170 . S
C250 C248 1.380 1_565 S
C250 C251 1.170 . S
C251 C250 1.170 . S
C252 C253 1.170 . S
C252 C254 1.380 . S
C253 C252 1.170 . S
C254 C252 1.380 . S
C254 C255 1.170 . S
C255 C254 1.170 . S
C256 C257 1.170 . S
C256 C258 1.380 1_455 S
C257 C256 1.170 . S
C258 C256 1.380 1_655 S
C258 C259 1.170 . S
C259 C258 1.170 . S
C260 C261 1.170 . S
C260 C262 1.380 1_565 S
C261 C260 1.170 . S
C262 C260 1.380 1_545 S
C262 C263 1.170 . S
C263 C262 1.170 . S
C169 C107 1.402 . S
C171 C9 1.406 . S
C173 C23 1.373 . S
C175 C121 1.378 . S
C177 C37 1.392 . S
C179 C135 1.399 . S
C181 C51 1.371 . S
C183 C149 1.368 . S
C185 C163 1.395 . S
C187 C65 1.401 . S
C189 C93 1.404 . S
C191 C79 1.398 . S
C193 C143 1.440 . S
C195 C3 1.440 . S
C197 C17 1.442 . S
C199 C157 1.438 . S
C201 C31 1.435 . S
C203 C87 1.444 . S
C205 C101 1.443 . S
C207 C45 1.436 . S
C209 C115 1.445 . S
C211 C59 1.435 . S
C213 C129 1.445 . S
C215 C73 1.435 . S
C217 C7 1.590 . S
C219 C119 1.607 . S
C221 C21 1.617 . S
C223 C133 1.591 . S
C225 C147 1.594 . S
C227 C35 1.603 . S
C229 C49 1.598 . S
C231 C161 1.599 . S
C233 C91 1.620 . S
C235 C63 1.586 . S
C237 C105 1.610 . S
C239 C77 1.599 . S
C241 C50 1.450 . S
C243 C8 1.449 . S
C245 C64 1.446 . S
C247 C22 1.452 . S
C249 C36 1.458 . S
C251 C78 1.429 . S
C253 C92 1.434 . S
C255 C134 1.460 . S
C257 C106 1.448 . S
C259 C148 1.450 . S
C261 C162 1.429 . S
C263 C120 1.459 . S
