# Generated by pormake.
# Topology uow, (4)-cn, num edge types: 1
# Building blocks:
#     Node 0, Type 0, BuildingBlock: GALJAG_clean_sbu_0, # of connection points: 4
#     Node 1, Type 0, BuildingBlock: GALJAG_clean_sbu_0, # of connection points: 4
#     Node 2, Type 0, BuildingBlock: GALJAG_clean_sbu_0, # of connection points: 4
#     Node 3, Type 0, BuildingBlock: GALJAG_clean_sbu_0, # of connection points: 4
#     Node 4, Type 0, BuildingBlock: GALJAG_clean_sbu_0, # of connection points: 4
#     Node 5, Type 0, BuildingBlock: GALJAG_clean_sbu_0, # of connection points: 4
#     Node 6, Type 0, BuildingBlock: GALJAG_clean_sbu_0, # of connection points: 4
#     Node 7, Type 0, BuildingBlock: GALJAG_clean_sbu_0, # of connection points: 4
#     Node 8, Type 0, BuildingBlock: GALJAG_clean_sbu_0, # of connection points: 4
#     Node 9, Type 0, BuildingBlock: GALJAG_clean_sbu_0, # of connection points: 4
#     Node 10, Type 0, BuildingBlock: GALJAG_clean_sbu_0, # of connection points: 4
#     Node 11, Type 0, BuildingBlock: GALJAG_clean_sbu_0, # of connection points: 4
#     Node 12, Type 0, BuildingBlock: GALJAG_clean_sbu_0, # of connection points: 4
#     Node 13, Type 0, BuildingBlock: GALJAG_clean_sbu_0, # of connection points: 4
#     Node 14, Type 0, BuildingBlock: GALJAG_clean_sbu_0, # of connection points: 4
#     Node 15, Type 0, BuildingBlock: GALJAG_clean_sbu_0, # of connection points: 4
#     Node 16, Type 0, BuildingBlock: GALJAG_clean_sbu_0, # of connection points: 4
#     Node 17, Type 0, BuildingBlock: GALJAG_clean_sbu_0, # of connection points: 4
#     Node 18, Type 0, BuildingBlock: GALJAG_clean_sbu_0, # of connection points: 4
#     Node 19, Type 0, BuildingBlock: GALJAG_clean_sbu_0, # of connection points: 4
#     Node 20, Type 0, BuildingBlock: GALJAG_clean_sbu_0, # of connection points: 4
#     Node 21, Type 0, BuildingBlock: GALJAG_clean_sbu_0, # of connection points: 4
#     Node 22, Type 0, BuildingBlock: GALJAG_clean_sbu_0, # of connection points: 4
#     Node 23, Type 0, BuildingBlock: GALJAG_clean_sbu_0, # of connection points: 4
#     Node 24, Type 0, BuildingBlock: GALJAG_clean_sbu_0, # of connection points: 4
#     Node 25, Type 0, BuildingBlock: GALJAG_clean_sbu_0, # of connection points: 4
#     Node 26, Type 0, BuildingBlock: GALJAG_clean_sbu_0, # of connection points: 4
#     Node 27, Type 0, BuildingBlock: GALJAG_clean_sbu_0, # of connection points: 4
#     Node 28, Type 0, BuildingBlock: GALJAG_clean_sbu_0, # of connection points: 4
#     Node 29, Type 0, BuildingBlock: GALJAG_clean_sbu_0, # of connection points: 4
#     Node 30, Type 0, BuildingBlock: GALJAG_clean_sbu_0, # of connection points: 4
#     Node 31, Type 0, BuildingBlock: GALJAG_clean_sbu_0, # of connection points: 4
#     Edge 32, Type (0, 0), BuildingBlock: UVAHIK_clean_linker_0, # of connection points: 2
#     Edge 33, Type (0, 0), BuildingBlock: UVAHIK_clean_linker_0, # of connection points: 2
#     Edge 34, Type (0, 0), BuildingBlock: UVAHIK_clean_linker_0, # of connection points: 2
#     Edge 35, Type (0, 0), BuildingBlock: UVAHIK_clean_linker_0, # of connection points: 2
#     Edge 36, Type (0, 0), BuildingBlock: UVAHIK_clean_linker_0, # of connection points: 2
#     Edge 37, Type (0, 0), BuildingBlock: UVAHIK_clean_linker_0, # of connection points: 2
#     Edge 38, Type (0, 0), BuildingBlock: UVAHIK_clean_linker_0, # of connection points: 2
#     Edge 39, Type (0, 0), BuildingBlock: UVAHIK_clean_linker_0, # of connection points: 2
#     Edge 40, Type (0, 0), BuildingBlock: UVAHIK_clean_linker_0, # of connection points: 2
#     Edge 41, Type (0, 0), BuildingBlock: UVAHIK_clean_linker_0, # of connection points: 2
#     Edge 42, Type (0, 0), BuildingBlock: UVAHIK_clean_linker_0, # of connection points: 2
#     Edge 43, Type (0, 0), BuildingBlock: UVAHIK_clean_linker_0, # of connection points: 2
#     Edge 44, Type (0, 0), BuildingBlock: UVAHIK_clean_linker_0, # of connection points: 2
#     Edge 45, Type (0, 0), BuildingBlock: UVAHIK_clean_linker_0, # of connection points: 2
#     Edge 46, Type (0, 0), BuildingBlock: UVAHIK_clean_linker_0, # of connection points: 2
#     Edge 47, Type (0, 0), BuildingBlock: UVAHIK_clean_linker_0, # of connection points: 2
#     Edge 48, Type (0, 0), BuildingBlock: UVAHIK_clean_linker_0, # of connection points: 2
#     Edge 49, Type (0, 0), BuildingBlock: UVAHIK_clean_linker_0, # of connection points: 2
#     Edge 50, Type (0, 0), BuildingBlock: UVAHIK_clean_linker_0, # of connection points: 2
#     Edge 51, Type (0, 0), BuildingBlock: UVAHIK_clean_linker_0, # of connection points: 2
#     Edge 52, Type (0, 0), BuildingBlock: UVAHIK_clean_linker_0, # of connection points: 2
#     Edge 53, Type (0, 0), BuildingBlock: UVAHIK_clean_linker_0, # of connection points: 2
#     Edge 54, Type (0, 0), BuildingBlock: UVAHIK_clean_linker_0, # of connection points: 2
#     Edge 55, Type (0, 0), BuildingBlock: UVAHIK_clean_linker_0, # of connection points: 2
#     Edge 56, Type (0, 0), BuildingBlock: UVAHIK_clean_linker_0, # of connection points: 2
#     Edge 57, Type (0, 0), BuildingBlock: UVAHIK_clean_linker_0, # of connection points: 2
#     Edge 58, Type (0, 0), BuildingBlock: UVAHIK_clean_linker_0, # of connection points: 2
#     Edge 59, Type (0, 0), BuildingBlock: UVAHIK_clean_linker_0, # of connection points: 2
#     Edge 60, Type (0, 0), BuildingBlock: UVAHIK_clean_linker_0, # of connection points: 2
#     Edge 61, Type (0, 0), BuildingBlock: UVAHIK_clean_linker_0, # of connection points: 2
#     Edge 62, Type (0, 0), BuildingBlock: UVAHIK_clean_linker_0, # of connection points: 2
#     Edge 63, Type (0, 0), BuildingBlock: UVAHIK_clean_linker_0, # of connection points: 2
#     Edge 64, Type (0, 0), BuildingBlock: UVAHIK_clean_linker_0, # of connection points: 2
#     Edge 65, Type (0, 0), BuildingBlock: UVAHIK_clean_linker_0, # of connection points: 2
#     Edge 66, Type (0, 0), BuildingBlock: UVAHIK_clean_linker_0, # of connection points: 2
#     Edge 67, Type (0, 0), BuildingBlock: UVAHIK_clean_linker_0, # of connection points: 2
#     Edge 68, Type (0, 0), BuildingBlock: UVAHIK_clean_linker_0, # of connection points: 2
#     Edge 69, Type (0, 0), BuildingBlock: UVAHIK_clean_linker_0, # of connection points: 2
#     Edge 70, Type (0, 0), BuildingBlock: UVAHIK_clean_linker_0, # of connection points: 2
#     Edge 71, Type (0, 0), BuildingBlock: UVAHIK_clean_linker_0, # of connection points: 2
#     Edge 72, Type (0, 0), BuildingBlock: UVAHIK_clean_linker_0, # of connection points: 2
#     Edge 73, Type (0, 0), BuildingBlock: UVAHIK_clean_linker_0, # of connection points: 2
#     Edge 74, Type (0, 0), BuildingBlock: UVAHIK_clean_linker_0, # of connection points: 2
#     Edge 75, Type (0, 0), BuildingBlock: UVAHIK_clean_linker_0, # of connection points: 2
#     Edge 76, Type (0, 0), BuildingBlock: UVAHIK_clean_linker_0, # of connection points: 2
#     Edge 77, Type (0, 0), BuildingBlock: UVAHIK_clean_linker_0, # of connection points: 2
#     Edge 78, Type (0, 0), BuildingBlock: UVAHIK_clean_linker_0, # of connection points: 2
#     Edge 79, Type (0, 0), BuildingBlock: UVAHIK_clean_linker_0, # of connection points: 2
#     Edge 80, Type (0, 0), BuildingBlock: UVAHIK_clean_linker_0, # of connection points: 2
#     Edge 81, Type (0, 0), BuildingBlock: UVAHIK_clean_linker_0, # of connection points: 2
#     Edge 82, Type (0, 0), BuildingBlock: UVAHIK_clean_linker_0, # of connection points: 2
#     Edge 83, Type (0, 0), BuildingBlock: UVAHIK_clean_linker_0, # of connection points: 2
#     Edge 84, Type (0, 0), BuildingBlock: UVAHIK_clean_linker_0, # of connection points: 2
#     Edge 85, Type (0, 0), BuildingBlock: UVAHIK_clean_linker_0, # of connection points: 2
#     Edge 86, Type (0, 0), BuildingBlock: UVAHIK_clean_linker_0, # of connection points: 2
#     Edge 87, Type (0, 0), BuildingBlock: UVAHIK_clean_linker_0, # of connection points: 2
#     Edge 88, Type (0, 0), BuildingBlock: UVAHIK_clean_linker_0, # of connection points: 2
#     Edge 89, Type (0, 0), BuildingBlock: UVAHIK_clean_linker_0, # of connection points: 2
#     Edge 90, Type (0, 0), BuildingBlock: UVAHIK_clean_linker_0, # of connection points: 2
#     Edge 91, Type (0, 0), BuildingBlock: UVAHIK_clean_linker_0, # of connection points: 2
#     Edge 92, Type (0, 0), BuildingBlock: UVAHIK_clean_linker_0, # of connection points: 2
#     Edge 93, Type (0, 0), BuildingBlock: UVAHIK_clean_linker_0, # of connection points: 2
#     Edge 94, Type (0, 0), BuildingBlock: UVAHIK_clean_linker_0, # of connection points: 2
#     Edge 95, Type (0, 0), BuildingBlock: UVAHIK_clean_linker_0, # of connection points: 2
# Relax obj value: 0.043
# Max RMSD: 0.080
# Mean RMSD: 0.080
data_MOF--net-uow--node1-GALJAG_clean_sbu_0--edge1-UVAHIK_clean_linker_0
_symmetry_space_group_name_H-M    P1
_symmetry_Int_Tables_number       1
_symmetry_cell_setting            triclinic
loop_
_symmetry_equiv_pos_as_xyz
'x, y, z'
_cell_length_a     76.719381
_cell_length_b     76.732022
_cell_length_c     57.760664
_cell_angle_alpha  89.982536
_cell_angle_beta   89.985643
_cell_angle_gamma 90.000093
loop_
_atom_site_label
_atom_site_type_symbol
_atom_site_fract_x
_atom_site_fract_y
_atom_site_fract_z
_atom_type_partial_charge
In0 In 0.08393 0.3753 0.29555 0.0
O1 O 0.09891 0.40107 0.29968 0.0
O2 O 0.07491 0.40109 0.28123 0.0
C3 C 0.10554 0.35824 0.32483 0.0
C4 C 0.0879 0.36474 0.2514 0.0
C5 C 0.05217 0.3691 0.31389 0.0
O6 O 0.09627 0.37092 0.3313 0.0
O7 O 0.10438 0.35473 0.3036 0.0
O8 O 0.06102 0.3574 0.30403 0.0
O9 O 0.0593 0.38389 0.31447 0.0
C10 C 0.08784 0.40974 0.28824 0.0
O11 O 0.07463 0.36081 0.26323 0.0
O12 O 0.09921 0.37359 0.26201 0.0
In13 In 0.87363 0.8296 0.53362 0.0
O14 O 0.88183 0.81942 0.49812 0.0
O15 O 0.87838 0.84675 0.50222 0.0
C16 C 0.87181 0.79839 0.55466 0.0
C17 C 0.84001 0.83985 0.5323 0.0
C18 C 0.90067 0.84302 0.55762 0.0
O19 O 0.87594 0.79998 0.53358 0.0
O20 O 0.8686 0.81254 0.56501 0.0
O21 O 0.88506 0.84686 0.56242 0.0
O22 O 0.90244 0.83281 0.54073 0.0
C23 C 0.88234 0.83434 0.48891 0.0
O24 O 0.8522 0.8505 0.53628 0.0
O25 O 0.84482 0.82432 0.52927 0.0
In26 In 0.41151 0.62299 0.79102 0.0
O27 O 0.39311 0.5993 0.79283 0.0
O28 O 0.4202 0.59501 0.78786 0.0
C29 C 0.39206 0.64721 0.81302 0.0
C30 C 0.40837 0.63069 0.7458 0.0
C31 C 0.44281 0.62542 0.81196 0.0
O32 O 0.39432 0.63214 0.82129 0.0
O33 O 0.39919 0.64975 0.79368 0.0
O34 O 0.42874 0.62366 0.82302 0.0
O35 O 0.4411 0.62623 0.79024 0.0
C36 C 0.40522 0.58842 0.7895 0.0
O37 O 0.42052 0.63685 0.75811 0.0
O38 O 0.39785 0.62086 0.75638 0.0
In39 In 0.62765 0.17122 0.03089 0.0
O40 O 0.65063 0.15217 0.03412 0.0
O41 O 0.6549 0.17679 0.01822 0.0
C42 C 0.60301 0.1544 0.05555 0.0
C43 C 0.61645 0.16588 0.98745 0.0
C44 C 0.62921 0.20259 0.05184 0.0
O45 O 0.61883 0.1543 0.06158 0.0
O46 O 0.59981 0.16284 0.03735 0.0
O47 O 0.6251 0.2009 0.0308 0.0
O48 O 0.63242 0.1885 0.06224 0.0
C49 C 0.66118 0.16225 0.02394 0.0
O50 O 0.61395 0.18015 0.99788 0.0
O51 O 0.62442 0.15442 -0.00097 0.0
In52 In 0.07989 0.62034 0.21214 0.0
O53 O 0.10009 0.59894 0.21949 0.0
O54 O 0.07581 0.59157 0.20495 0.0
C55 C 0.1031 0.64169 0.19113 0.0
C56 C 0.07514 0.63075 0.25622 0.0
C57 C 0.04857 0.62292 0.19094 0.0
O58 O 0.09656 0.62863 0.18114 0.0
O59 O 0.09846 0.64356 0.2119 0.0
O60 O 0.05008 0.61871 0.21194 0.0
O61 O 0.06278 0.626 0.18079 0.0
C62 C 0.09035 0.58671 0.21275 0.0
O63 O 0.07149 0.6404 0.23918 0.0
O64 O 0.0811 0.61595 0.25097 0.0
In65 In 0.62927 0.83295 0.46225 0.0
O66 O 0.6164 0.82361 0.49547 0.0
O67 O 0.62317 0.85048 0.4929 0.0
C68 C 0.63071 0.80134 0.44202 0.0
C69 C 0.66295 0.84098 0.47061 0.0
C70 C 0.60534 0.84887 0.43536 0.0
O71 O 0.62582 0.80345 0.4627 0.0
O72 O 0.63472 0.81518 0.4315 0.0
O73 O 0.62144 0.84961 0.43079 0.0
O74 O 0.60156 0.84036 0.45332 0.0
C75 C 0.61667 0.83841 0.50503 0.0
O76 O 0.65278 0.85172 0.46098 0.0
O77 O 0.65619 0.82644 0.47522 0.0
In78 In 0.41467 0.3775 0.71217 0.0
O79 O 0.39616 0.40108 0.71092 0.0
O80 O 0.42285 0.40547 0.71842 0.0
C81 C 0.3959 0.35412 0.68771 0.0
C82 C 0.41036 0.36774 0.75653 0.0
C83 C 0.44626 0.37507 0.69185 0.0
O84 O 0.39811 0.36957 0.68079 0.0
O85 O 0.40309 0.3506 0.70673 0.0
O86 O 0.44393 0.37211 0.71313 0.0
O87 O 0.43263 0.37903 0.6808 0.0
C88 C 0.40791 0.41196 0.71588 0.0
O89 O 0.42463 0.36576 0.74592 0.0
O90 O 0.39834 0.37462 0.74474 0.0
In91 In 0.86854 0.16519 0.95416 0.0
O92 O 0.87621 0.17719 0.9888 0.0
O93 O 0.87353 0.14964 0.98698 0.0
C94 C 0.86844 0.19722 0.93521 0.0
C95 C 0.8351 0.15397 0.95404 0.0
C96 C 0.89473 0.1501 0.93024 0.0
O97 O 0.86909 0.19482 0.95683 0.0
O98 O 0.86794 0.18347 0.92321 0.0
O99 O 0.87907 0.14913 0.92371 0.0
O100 O 0.89705 0.15846 0.94874 0.0
C101 C 0.87705 0.16277 -0.00074 0.0
O102 O 0.84774 0.1436 0.95597 0.0
O103 O 0.83936 0.1697 0.95173 0.0
In104 In 0.91834 0.62016 0.70927 0.0
O105 O 0.93074 0.62508 0.74471 0.0
O106 O 0.90313 0.62583 0.74209 0.0
C107 C 0.95019 0.62547 0.69084 0.0
C108 C 0.90883 0.58633 0.71045 0.0
C109 C 0.89995 0.64263 0.68278 0.0
O110 O 0.94351 0.63572 0.70547 0.0
O111 O 0.94082 0.61255 0.68559 0.0
O112 O 0.90598 0.62858 0.67476 0.0
O113 O 0.90288 0.64502 0.70398 0.0
C114 C 0.91635 0.62735 0.75488 0.0
O115 O 0.89793 0.59833 0.70678 0.0
O116 O 0.9243 0.59142 0.71313 0.0
In117 In 0.13146 0.17044 0.46022 0.0
O118 O 0.13222 0.17935 0.4979 0.0
O119 O 0.11497 0.15871 0.48885 0.0
C120 C 0.13538 0.20368 0.4458 0.0
C121 C 0.16287 0.15422 0.46107 0.0
C122 C 0.10575 0.15742 0.43331 0.0
O123 O 0.13059 0.19989 0.46609 0.0
O124 O 0.13822 0.19073 0.43288 0.0
O125 O 0.1206 0.15038 0.43441 0.0
O126 O 0.10407 0.17092 0.44548 0.0
C127 C 0.12098 0.1684 0.50458 0.0
O128 O 0.15018 0.14937 0.47327 0.0
O129 O 0.15958 0.16687 0.44789 0.0
In130 In 0.58278 0.37608 0.21214 0.0
O131 O 0.60056 0.40014 0.2105 0.0
O132 O 0.57391 0.40363 0.21937 0.0
C133 C 0.60164 0.35367 0.18627 0.0
C134 C 0.5881 0.36574 0.25605 0.0
C135 C 0.55114 0.37439 0.19198 0.0
O136 O 0.60009 0.36955 0.18095 0.0
O137 O 0.59403 0.3493 0.20471 0.0
O138 O 0.55322 0.37242 0.2135 0.0
O139 O 0.56499 0.37703 0.18074 0.0
C140 C 0.58859 0.41059 0.21623 0.0
O141 O 0.575 0.36085 0.24449 0.0
O142 O 0.59847 0.37565 0.24537 0.0
In143 In 0.36549 0.83683 0.95753 0.0
O144 O 0.37167 0.82494 0.99286 0.0
O145 O 0.37226 0.85255 0.98954 0.0
C146 C 0.36483 0.80569 0.93611 0.0
C147 C 0.33215 0.84818 0.95911 0.0
C148 C 0.39199 0.85145 0.93371 0.0
O149 O 0.36821 0.8072 0.95744 0.0
O150 O 0.36186 0.81986 0.92571 0.0
O151 O 0.37627 0.85364 0.92791 0.0
O152 O 0.39418 0.84213 0.95143 0.0
C153 C 0.37422 0.83948 0.00254 0.0
O154 O 0.34486 0.8586 0.95871 0.0
O155 O 0.33629 0.83233 0.95832 0.0
In156 In 0.91749 0.37735 0.78742 0.0
O157 O 0.89883 0.40085 0.7886 0.0
O158 O 0.92423 0.40427 0.77469 0.0
C159 C 0.90066 0.35341 0.81318 0.0
C160 C 0.91234 0.36494 0.74449 0.0
C161 C 0.94869 0.37868 0.80877 0.0
O162 O 0.8998 0.36948 0.81782 0.0
O163 O 0.90986 0.34965 0.79583 0.0
O164 O 0.94704 0.37427 0.78784 0.0
O165 O 0.9346 0.38228 0.81897 0.0
C166 C 0.90966 0.41102 0.77913 0.0
O167 O 0.92694 0.36397 0.75455 0.0
O168 O 0.90041 0.3721 0.75615 0.0
In169 In 0.36877 0.17568 0.53299 0.0
O170 O 0.38065 0.18747 0.50039 0.0
O171 O 0.38391 0.16028 0.50607 0.0
C172 C 0.35909 0.20581 0.55311 0.0
C173 C 0.33779 0.1615 0.52142 0.0
C174 C 0.3932 0.1644 0.56299 0.0
O175 O 0.36748 0.20528 0.53431 0.0
O176 O 0.35522 0.19109 0.56147 0.0
O177 O 0.38179 0.15425 0.5548 0.0
O178 O 0.39214 0.17994 0.55611 0.0
C179 C 0.38669 0.17319 0.49306 0.0
O180 O 0.34587 0.1569 0.53947 0.0
O181 O 0.34526 0.17314 0.5097 0.0
In182 In 0.58487 0.62302 0.29086 0.0
O183 O 0.57476 0.63488 0.25726 0.0
O184 O 0.60123 0.62657 0.25842 0.0
C185 C 0.55389 0.62489 0.31265 0.0
C186 C 0.59069 0.58848 0.28622 0.0
C187 C 0.60328 0.64642 0.31558 0.0
O188 O 0.56793 0.62148 0.32312 0.0
O189 O 0.55551 0.62759 0.29119 0.0
O190 O 0.60276 0.63049 0.32109 0.0
O191 O 0.59476 0.65033 0.29767 0.0
C192 C 0.58908 0.63327 0.24667 0.0
O193 O 0.60289 0.59897 0.29083 0.0
O194 O 0.57588 0.59541 0.28457 0.0
In195 In 0.12775 0.8249 0.03998 0.0
O196 O 0.11802 0.81411 0.0056 0.0
O197 O 0.11843 0.84167 0.01006 0.0
C198 C 0.13342 0.79488 0.06304 0.0
C199 C 0.16003 0.8368 0.03075 0.0
C200 C 0.10096 0.83737 0.0651 0.0
O201 O 0.12704 0.7953 0.0429 0.0
O202 O 0.13707 0.80961 0.07148 0.0
O203 O 0.11631 0.84303 0.06788 0.0
O204 O 0.09939 0.82573 0.04985 0.0
C205 C 0.11513 0.82895 0.99691 0.0
O206 O 0.14938 0.84566 0.04265 0.0
O207 O 0.15448 0.82209 0.02448 0.0
In208 In 0.58237 0.8781 0.79065 0.0
O209 O 0.60424 0.89863 0.78953 0.0
O210 O 0.57824 0.90727 0.79383 0.0
C211 C 0.59691 0.85075 0.81272 0.0
C212 C 0.58463 0.87111 0.74509 0.0
C213 C 0.55081 0.87765 0.81095 0.0
O214 O 0.59876 0.86619 0.8199 0.0
O215 O 0.58799 0.84927 0.79453 0.0
O216 O 0.55271 0.87665 0.78925 0.0
O217 O 0.56482 0.8788 0.82232 0.0
C218 C 0.59401 0.91138 0.79157 0.0
O219 O 0.5702 0.87364 0.75506 0.0
O220 O 0.59779 0.87214 0.75809 0.0
In221 In 0.36918 0.33083 0.04156 0.0
O222 O 0.37475 0.31935 0.00586 0.0
O223 O 0.37636 0.34686 0.00993 0.0
C224 C 0.37068 0.29974 0.06309 0.0
C225 C 0.33536 0.34057 0.03998 0.0
C226 C 0.39455 0.34681 0.06586 0.0
O227 O 0.37424 0.30148 0.04185 0.0
O228 O 0.36641 0.31363 0.07331 0.0
O229 O 0.37869 0.34791 0.07154 0.0
O230 O 0.39746 0.33792 0.04792 0.0
C231 C 0.37773 0.33394 0.99655 0.0
O232 O 0.34753 0.35157 0.04116 0.0
O233 O 0.34027 0.32493 0.03996 0.0
In234 In 0.92394 0.11849 0.27937 0.0
O235 O 0.90543 0.09509 0.28253 0.0
O236 O 0.92812 0.09257 0.26168 0.0
C237 C 0.90854 0.14245 0.30658 0.0
C238 C 0.91845 0.13216 0.23711 0.0
C239 C 0.95485 0.1155 0.30124 0.0
O240 O 0.90387 0.12666 0.30678 0.0
O241 O 0.92084 0.14592 0.29286 0.0
O242 O 0.95313 0.12319 0.28207 0.0
O243 O 0.94098 0.10907 0.30932 0.0
C244 C 0.91432 0.08562 0.26909 0.0
O245 O 0.93355 0.12926 0.24491 0.0
O246 O 0.90618 0.12835 0.25074 0.0
In247 In 0.12711 0.67675 0.5285 0.0
O248 O 0.11306 0.68752 0.49669 0.0
O249 O 0.11303 0.6601 0.50193 0.0
C250 C 0.13715 0.70682 0.5483 0.0
C251 C 0.15834 0.66387 0.51564 0.0
C252 C 0.10369 0.66599 0.56021 0.0
O253 O 0.12836 0.70635 0.52981 0.0
O254 O 0.14117 0.69208 0.5565 0.0
O255 O 0.11532 0.65588 0.55246 0.0
O256 O 0.104 0.68118 0.55197 0.0
C257 C 0.10844 0.67273 0.48936 0.0
O258 O 0.14997 0.65756 0.53254 0.0
O259 O 0.15099 0.6765 0.5057 0.0
In260 In 0.5817 0.11775 0.7047 0.0
O261 O 0.57179 0.13294 0.73615 0.0
O262 O 0.59542 0.11866 0.73942 0.0
C263 C 0.54957 0.12235 0.68682 0.0
C264 C 0.58791 0.08357 0.71135 0.0
C265 C 0.60267 0.1372 0.6772 0.0
O266 O 0.55678 0.13338 0.69988 0.0
O267 O 0.55853 0.10889 0.68283 0.0
O268 O 0.59244 0.12586 0.66917 0.0
O269 O 0.60282 0.13813 0.69893 0.0
C270 C 0.58426 0.12832 0.74902 0.0
O271 O 0.59833 0.09311 0.70008 0.0
O272 O 0.57426 0.09115 0.71815 0.0
In273 In 0.12523 0.33327 0.96478 0.0
O274 O 0.11132 0.32401 0.99747 0.0
O275 O 0.1228 0.34931 0.9975 0.0
C276 C 0.12549 0.3024 0.94248 0.0
C277 C 0.15922 0.34011 0.97206 0.0
C278 C 0.10184 0.35155 0.93974 0.0
O279 O 0.12061 0.30386 0.96326 0.0
O280 O 0.13011 0.31648 0.93303 0.0
O281 O 0.11784 0.3513 0.93461 0.0
O282 O 0.09785 0.34288 0.95748 0.0
C283 C 0.1145 0.33782 0.00862 0.0
O284 O 0.1491 0.35133 0.96333 0.0
O285 O 0.15225 0.32559 0.97631 0.0
In286 In 0.90985 0.87828 0.20381 0.0
O287 O 0.88905 0.8995 0.20718 0.0
O288 O 0.91371 0.90661 0.19345 0.0
C289 C 0.88777 0.85588 0.18274 0.0
C290 C 0.91201 0.87062 0.24928 0.0
C291 C 0.94202 0.87421 0.18541 0.0
O292 O 0.89415 0.86893 0.17253 0.0
O293 O 0.89196 0.85455 0.20376 0.0
O294 O 0.93961 0.88139 0.20479 0.0
O295 O 0.9283 0.86916 0.1755 0.0
C296 C 0.89874 0.91151 0.19964 0.0
O297 O 0.91703 0.86017 0.23378 0.0
O298 O 0.9061 0.88488 0.24182 0.0
In299 In 0.36846 0.6617 0.45891 0.0
O300 O 0.37923 0.67287 0.49272 0.0
O301 O 0.36823 0.64742 0.49325 0.0
C302 C 0.36958 0.69269 0.4371 0.0
C303 C 0.33466 0.65195 0.45755 0.0
C304 C 0.39476 0.64481 0.43739 0.0
O305 O 0.36913 0.69151 0.45892 0.0
O306 O 0.36934 0.67831 0.4265 0.0
O307 O 0.3793 0.64431 0.42998 0.0
O308 O 0.39676 0.65333 0.45582 0.0
C309 C 0.37553 0.65948 0.50447 0.0
O310 O 0.34689 0.64098 0.45828 0.0
O311 O 0.3395 0.66764 0.45709 0.0
In312 In 0.42153 0.11884 0.21455 0.0
O313 O 0.43405 0.13012 0.24697 0.0
O314 O 0.40668 0.12525 0.24739 0.0
C315 C 0.45163 0.11796 0.19049 0.0
C316 C 0.41231 0.08547 0.22281 0.0
C317 C 0.40428 0.14372 0.19077 0.0
O318 O 0.45089 0.1228 0.21134 0.0
O319 O 0.4372 0.11351 0.18184 0.0
O320 O 0.40425 0.128 0.18431 0.0
O321 O 0.41269 0.14665 0.20907 0.0
C322 C 0.41993 0.13066 0.25823 0.0
O323 O 0.40161 0.09636 0.21464 0.0
O324 O 0.42744 0.09133 0.22593 0.0
In325 In 0.6283 0.66141 0.95965 0.0
O326 O 0.62399 0.67423 0.99486 0.0
O327 O 0.62099 0.64674 0.99237 0.0
C328 C 0.62742 0.69227 0.93754 0.0
C329 C 0.66166 0.64994 0.95964 0.0
C330 C 0.60156 0.64627 0.93703 0.0
O331 O 0.62591 0.69107 0.95927 0.0
O332 O 0.62942 0.67795 0.92712 0.0
O333 O 0.6172 0.64411 0.93085 0.0
O334 O 0.59956 0.65572 0.95467 0.0
C335 C 0.62047 0.66011 0.00506 0.0
O336 O 0.64894 0.63968 0.96181 0.0
O337 O 0.65752 0.66568 0.95706 0.0
In338 In 0.08647 0.87574 0.71242 0.0
O339 O 0.07355 0.86711 0.74614 0.0
O340 O 0.10114 0.87003 0.74564 0.0
C341 C 0.05579 0.87315 0.68984 0.0
C342 C 0.09408 0.90975 0.71841 0.0
C343 C 0.10632 0.85391 0.6868 0.0
O344 O 0.05961 0.86348 0.70679 0.0
O345 O 0.06748 0.88391 0.68424 0.0
O346 O 0.10229 0.86895 0.67985 0.0
O347 O 0.10053 0.85005 0.70654 0.0
C348 C 0.08773 0.86615 0.75719 0.0
O349 O 0.10561 0.8988 0.71276 0.0
O350 O 0.079 0.90352 0.72079 0.0
In351 In 0.8669 0.31997 0.46297 0.0
O352 O 0.86972 0.30969 0.49996 0.0
O353 O 0.87841 0.33539 0.49287 0.0
C354 C 0.86297 0.28884 0.4425 0.0
C355 C 0.83449 0.33365 0.464 0.0
C356 C 0.89408 0.33017 0.43666 0.0
O357 O 0.86938 0.29046 0.46255 0.0
O358 O 0.85837 0.30293 0.43292 0.0
O359 O 0.87966 0.33812 0.4361 0.0
O360 O 0.89467 0.31751 0.45051 0.0
C361 C 0.8765 0.32349 0.50766 0.0
O362 O 0.84783 0.34317 0.46213 0.0
O363 O 0.83758 0.31756 0.46499 0.0
In364 In 0.41851 0.87638 0.28715 0.0
O365 O 0.42851 0.86906 0.25119 0.0
O366 O 0.4012 0.87246 0.25571 0.0
C367 C 0.45034 0.87615 0.3068 0.0
C368 C 0.40843 0.91011 0.28799 0.0
C369 C 0.40395 0.84953 0.31027 0.0
O370 O 0.44818 0.8743 0.28525 0.0
O371 O 0.43647 0.87802 0.3183 0.0
O372 O 0.40235 0.86509 0.31706 0.0
O373 O 0.41265 0.84768 0.29193 0.0
C374 C 0.41354 0.86882 0.24211 0.0
O375 O 0.39762 0.89782 0.28999 0.0
O376 O 0.42405 0.90536 0.28596 0.0
In377 In 0.86881 0.66918 0.03546 0.0
O378 O 0.88042 0.67941 0.00179 0.0
O379 O 0.87771 0.65193 0.00584 0.0
C380 C 0.86384 0.69955 0.05802 0.0
C381 C 0.83629 0.65844 0.0252 0.0
C382 C 0.89418 0.65498 0.06153 0.0
O383 O 0.87044 0.69879 0.03802 0.0
O384 O 0.85973 0.68499 0.0666 0.0
O385 O 0.87837 0.65074 0.06415 0.0
O386 O 0.89694 0.66622 0.04604 0.0
C387 C 0.88246 0.66443 0.99308 0.0
O388 O 0.8463 0.64943 0.03782 0.0
O389 O 0.84259 0.67275 0.01855 0.0
In390 In 0.08553 0.12155 0.7887 0.0
O391 O 0.07673 0.13516 0.75565 0.0
O392 O 0.10139 0.12237 0.75557 0.0
C393 C 0.05376 0.1229 0.80852 0.0
C394 C 0.09255 0.08721 0.78518 0.0
C395 C 0.10329 0.14578 0.81298 0.0
O396 O 0.05599 0.12497 0.78703 0.0
O397 O 0.06753 0.12031 0.81993 0.0
O398 O 0.10142 0.1304 0.82034 0.0
O399 O 0.09661 0.14865 0.79345 0.0
C400 C 0.09027 0.13112 0.7444 0.0
O401 O 0.10411 0.09803 0.79118 0.0
O402 O 0.0777 0.09372 0.78177 0.0
In403 In 0.62761 0.32936 0.54154 0.0
O404 O 0.65094 0.34819 0.54373 0.0
O405 O 0.65481 0.32289 0.5296 0.0
C406 C 0.6036 0.34646 0.56725 0.0
C407 C 0.61778 0.33394 0.49736 0.0
C408 C 0.62838 0.29744 0.5611 0.0
O409 O 0.61924 0.34499 0.57373 0.0
O410 O 0.60033 0.33966 0.54792 0.0
O411 O 0.62132 0.3003 0.54174 0.0
O412 O 0.63487 0.31071 0.57068 0.0
C413 C 0.66135 0.33752 0.53437 0.0
O414 O 0.61476 0.31997 0.50826 0.0
O415 O 0.62539 0.34564 0.50894 0.0
C416 C 0.10248 0.36866 0.21325 0.0
C417 C 0.08966 0.36037 0.22666 0.0
C418 C 0.10353 0.36559 0.18951 0.0
C419 C 0.09402 0.33456 0.14403 0.0
H420 H 0.09545 0.37505 0.10386 0.0
C421 C 0.09848 0.32832 0.04426 0.0
C422 C 0.1095 0.34025 0.03305 0.0
C423 C 0.09426 0.33053 0.06764 0.0
C424 C 0.09526 0.36359 0.11481 0.0
H425 H 0.06818 0.34201 0.22596 0.0
H426 H 0.07032 0.33631 0.18424 0.0
H427 H 0.09203 0.37893 0.14546 0.0
H428 H 0.12483 0.36376 0.03743 0.0
H429 H 0.11796 0.36733 0.07816 0.0
H430 H 0.09797 0.31921 0.11356 0.0
C431 C 0.07941 0.34529 0.19221 0.0
C432 C 0.09322 0.36584 0.1386 0.0
C433 C 0.07818 0.34858 0.21599 0.0
C434 C 0.11618 0.35443 0.04556 0.0
C435 C 0.11212 0.35654 0.06891 0.0
C436 C 0.09632 0.3323 0.1202 0.0
C437 C 0.09193 0.354 0.17875 0.0
C438 C 0.09283 0.35137 0.15344 0.0
C439 C 0.10111 0.34463 0.08028 0.0
C440 C 0.09724 0.34682 0.10534 0.0
H441 H 0.11149 0.37783 0.221 0.0
H442 H 0.11341 0.37231 0.17951 0.0
H443 H 0.09383 0.32321 0.1552 0.0
H444 H 0.09312 0.31729 0.03498 0.0
H445 H 0.08557 0.32124 0.07576 0.0
C446 C 0.91643 0.84942 0.2817 0.0
C447 C 0.91225 0.86631 0.27416 0.0
C448 C 0.9155 0.84515 0.30521 0.0
C449 C 0.91439 0.86449 0.36369 0.0
H450 H 0.88887 0.82271 0.38042 0.0
C451 C 0.88683 0.85399 0.45503 0.0
C452 C 0.88736 0.83716 0.46454 0.0
C453 C 0.89159 0.8568 0.43202 0.0
C454 C 0.89629 0.83427 0.37607 0.0
H455 H 0.90427 0.8921 0.28525 0.0
H456 H 0.90267 0.88469 0.3262 0.0
H457 H 0.89473 0.82894 0.33975 0.0
H458 H 0.89337 0.81007 0.45754 0.0
H459 H 0.90189 0.81499 0.4173 0.0
H460 H 0.91581 0.86994 0.39994 0.0
C461 C 0.90676 0.87476 0.31403 0.0
C462 C 0.89964 0.83783 0.35277 0.0
C463 C 0.90757 0.87897 0.29056 0.0
C464 C 0.89278 0.82317 0.45062 0.0
C465 C 0.89759 0.82599 0.42757 0.0
C466 C 0.91111 0.8609 0.38698 0.0
C467 C 0.91052 0.85776 0.32158 0.0
C468 C 0.90845 0.85314 0.34633 0.0
C469 C 0.89704 0.84284 0.41802 0.0
C470 C 0.90174 0.84591 0.39341 0.0
H471 H 0.92009 0.8394 0.26941 0.0
H472 H 0.9186 0.83199 0.31058 0.0
H473 H 0.92145 0.87625 0.35925 0.0
H474 H 0.88264 0.86502 0.46533 0.0
H475 H 0.89071 0.86989 0.4251 0.0
C476 C 0.41626 0.64783 0.71038 0.0
C477 C 0.40656 0.63447 0.7209 0.0
C478 C 0.41432 0.65131 0.68674 0.0
C479 C 0.40097 0.63077 0.63241 0.0
H480 H 0.39117 0.67763 0.61084 0.0
C481 C 0.37386 0.64313 0.54165 0.0
C482 C 0.37981 0.65769 0.52924 0.0
C483 C 0.37829 0.64095 0.56487 0.0
C484 C 0.39418 0.66452 0.61651 0.0
H485 H 0.38736 0.61419 0.71503 0.0
H486 H 0.38418 0.6201 0.6738 0.0
H487 H 0.39734 0.67257 0.65183 0.0
H488 H 0.39497 0.68147 0.53138 0.0
H489 H 0.40301 0.67752 0.57202 0.0
H490 H 0.39792 0.62262 0.5973 0.0
C491 C 0.39325 0.62789 0.68378 0.0
C492 C 0.39768 0.66164 0.63997 0.0
C493 C 0.395 0.62459 0.70739 0.0
C494 C 0.39016 0.67015 0.54058 0.0
C495 C 0.39471 0.66791 0.56385 0.0
C496 C 0.39764 0.63365 0.60899 0.0
C497 C 0.40287 0.64128 0.67322 0.0
C498 C 0.40076 0.64468 0.64817 0.0
C499 C 0.38892 0.6532 0.57621 0.0
C500 C 0.39383 0.65049 0.60083 0.0
H501 H 0.42524 0.65566 0.72044 0.0
H502 H 0.42193 0.66166 0.67895 0.0
H503 H 0.4036 0.61761 0.63824 0.0
H504 H 0.36576 0.63338 0.53341 0.0
H505 H 0.37327 0.62968 0.57398 0.0
C506 C 0.57494 0.14642 0.78294 0.0
C507 C 0.58553 0.13322 0.77361 0.0
C508 C 0.57615 0.15073 0.80642 0.0
C509 C 0.5885 0.13241 0.86228 0.0
H510 H 0.59791 0.17986 0.88166 0.0
C511 C 0.61596 0.14748 0.95199 0.0
C512 C 0.6107 0.16271 0.96347 0.0
C513 C 0.61085 0.1444 0.92922 0.0
C514 C 0.59495 0.1666 0.87661 0.0
H515 H 0.60558 0.11417 0.78138 0.0
H516 H 0.60745 0.12151 0.82235 0.0
H517 H 0.59235 0.17362 0.84081 0.0
H518 H 0.59581 0.1866 0.96029 0.0
H519 H 0.58651 0.18102 0.92047 0.0
H520 H 0.59101 0.12527 0.89784 0.0
C521 C 0.59828 0.12853 0.81155 0.0
C522 C 0.59182 0.16305 0.85323 0.0
C523 C 0.59728 0.12442 0.7881 0.0
C524 C 0.6001 0.17477 0.95179 0.0
C525 C 0.59485 0.17161 0.92897 0.0
C526 C 0.59141 0.13596 0.88562 0.0
C527 C 0.58772 0.14169 0.82093 0.0
C528 C 0.58901 0.14586 0.84584 0.0
C529 C 0.60019 0.15637 0.91742 0.0
C530 C 0.59514 0.15302 0.893 0.0
H531 H 0.56579 0.15341 0.7721 0.0
H532 H 0.56787 0.16092 0.81332 0.0
H533 H 0.58608 0.11908 0.857 0.0
H534 H 0.62424 0.13801 0.9605 0.0
H535 H 0.61555 0.13272 0.92072 0.0
C536 C 0.06993 0.654 0.28582 0.0
C537 C 0.0733 0.63647 0.28047 0.0
C538 C 0.06953 0.65954 0.30888 0.0
C539 C 0.06574 0.64386 0.36917 0.0
H540 H 0.09585 0.68289 0.38388 0.0
C541 C 0.09619 0.65329 0.45886 0.0
C542 C 0.09946 0.67021 0.46703 0.0
C543 C 0.08928 0.65071 0.43679 0.0
C544 C 0.08706 0.67222 0.38011 0.0
H545 H 0.07824 0.61086 0.29493 0.0
H546 H 0.07748 0.62048 0.3351 0.0
H547 H 0.09018 0.67559 0.34357 0.0
H548 H 0.09731 0.69772 0.45902 0.0
H549 H 0.08496 0.69322 0.42048 0.0
H550 H 0.0629 0.64023 0.4057 0.0
C551 C 0.07508 0.62995 0.32155 0.0
C552 C 0.08384 0.66802 0.35698 0.0
C553 C 0.07565 0.62447 0.29855 0.0
C554 C 0.09502 0.68453 0.45309 0.0
C555 C 0.08803 0.68195 0.43099 0.0
C556 C 0.06886 0.64812 0.39231 0.0
C557 C 0.07229 0.64758 0.32695 0.0
C558 C 0.07354 0.65351 0.3513 0.0
C559 C 0.08541 0.66499 0.42242 0.0
C560 C 0.07997 0.66204 0.39805 0.0
H561 H 0.06804 0.66352 0.27219 0.0
H562 H 0.06725 0.67319 0.31258 0.0
H563 H 0.05753 0.63276 0.36525 0.0
H564 H 0.09949 0.64199 0.46922 0.0
H565 H 0.08769 0.63747 0.43066 0.0
C566 C 0.605 0.82718 0.54256 0.0
C567 C 0.61039 0.8413 0.52885 0.0
C568 C 0.60007 0.82979 0.56558 0.0
C569 C 0.58607 0.86331 0.60743 0.0
H570 H 0.60693 0.83247 0.65285 0.0
C571 C 0.57138 0.86767 0.70574 0.0
C572 C 0.58609 0.86711 0.7202 0.0
C573 C 0.57293 0.86392 0.68214 0.0
C574 C 0.60101 0.84118 0.64036 0.0
H575 H 0.61436 0.86928 0.52817 0.0
H576 H 0.60577 0.87383 0.56839 0.0
H577 H 0.61179 0.82718 0.61172 0.0
H578 H 0.61391 0.86214 0.72142 0.0
H579 H 0.61659 0.85555 0.6803 0.0
H580 H 0.57563 0.87755 0.63618 0.0
C581 C 0.60526 0.86077 0.56133 0.0
C582 C 0.60364 0.83805 0.61682 0.0
C583 C 0.61029 0.85814 0.53835 0.0
C584 C 0.60234 0.86265 0.71069 0.0
C585 C 0.60386 0.85878 0.68719 0.0
C586 C 0.58333 0.86637 0.631 0.0
C587 C 0.60033 0.84658 0.57526 0.0
C588 C 0.59639 0.84922 0.60012 0.0
C589 C 0.58918 0.85938 0.67268 0.0
C590 C 0.591 0.85548 0.64769 0.0
H591 H 0.60489 0.81405 0.53565 0.0
H592 H 0.59615 0.81864 0.57586 0.0
H593 H 0.58021 0.87205 0.59491 0.0
H594 H 0.5587 0.87107 0.71264 0.0
H595 H 0.56139 0.86438 0.67135 0.0
C596 C 0.38177 0.3215 0.95686 0.0
C597 C 0.38239 0.33586 0.97191 0.0
C598 C 0.38583 0.32352 0.93342 0.0
C599 C 0.40899 0.35218 0.89262 0.0
H600 H 0.37736 0.33305 0.84683 0.0
C601 C 0.42205 0.35673 0.79422 0.0
C602 C 0.40787 0.36245 0.78085 0.0
C603 C 0.41968 0.35211 0.81741 0.0
C604 C 0.3863 0.33845 0.85944 0.0
H605 H 0.38797 0.36351 0.9744 0.0
H606 H 0.3951 0.367 0.93352 0.0
H607 H 0.37208 0.32763 0.88793 0.0
H608 H 0.38007 0.36759 0.78107 0.0
H609 H 0.37593 0.35947 0.82153 0.0
H610 H 0.423 0.36329 0.86416 0.0
C611 C 0.39156 0.35419 0.93983 0.0
C612 C 0.38337 0.33522 0.88291 0.0
C613 C 0.38737 0.3522 0.96319 0.0
C614 C 0.39125 0.36323 0.79097 0.0
C615 C 0.38885 0.35848 0.81408 0.0
C616 C 0.41199 0.35529 0.86913 0.0
C617 C 0.39074 0.33989 0.92469 0.0
C618 C 0.39455 0.34226 0.89975 0.0
C619 C 0.40305 0.35297 0.82757 0.0
C620 C 0.40054 0.34865 0.85234 0.0
H621 H 0.37799 0.30874 0.96314 0.0
H622 H 0.38521 0.31226 0.92214 0.0
H623 H 0.4179 0.35763 0.90523 0.0
H624 H 0.43501 0.35598 0.78683 0.0
H625 H 0.43083 0.34778 0.82738 0.0
C626 C 0.88486 0.17627 0.03728 0.0
C627 C 0.88203 0.16129 0.02383 0.0
C628 C 0.88971 0.17477 0.06051 0.0
C629 C 0.90973 0.14432 0.10185 0.0
H630 H 0.88644 0.17215 0.1486 0.0
C631 C 0.92925 0.14077 0.19793 0.0
C632 C 0.91531 0.13861 0.21343 0.0
C633 C 0.92611 0.14552 0.17496 0.0
C634 C 0.89305 0.16431 0.13572 0.0
H635 H 0.88201 0.13302 0.02404 0.0
H636 H 0.89044 0.13042 0.06458 0.0
H637 H 0.87904 0.17618 0.10778 0.0
H638 H 0.88726 0.14031 0.21739 0.0
H639 H 0.88177 0.14856 0.17727 0.0
H640 H 0.92341 0.13213 0.12974 0.0
C641 C 0.88907 0.14331 0.05715 0.0
C642 C 0.88893 0.16671 0.11237 0.0
C643 C 0.88413 0.1448 0.03399 0.0
C644 C 0.89825 0.14186 0.20579 0.0
C645 C 0.89511 0.14669 0.18287 0.0
C646 C 0.91392 0.14199 0.12515 0.0
C647 C 0.89193 0.15827 0.07064 0.0
C648 C 0.89705 0.15656 0.09525 0.0
C649 C 0.90898 0.14828 0.16712 0.0
C650 C 0.90547 0.1518 0.14234 0.0
H651 H 0.88334 0.18915 0.02986 0.0
H652 H 0.89194 0.18652 0.07048 0.0
H653 H 0.91633 0.13644 0.08899 0.0
H654 H 0.94255 0.13841 0.20338 0.0
H655 H 0.93706 0.14685 0.16325 0.0
C656 C 0.89857 0.63553 0.78931 0.0
C657 C 0.91496 0.63186 0.77963 0.0
C658 C 0.89709 0.64013 0.81257 0.0
C659 C 0.91894 0.63638 0.86867 0.0
H660 H 0.88711 0.67345 0.88598 0.0
C661 C 0.89153 0.64472 0.9609 0.0
C662 C 0.88929 0.66169 0.96949 0.0
C663 C 0.89698 0.64203 0.93812 0.0
C664 C 0.89622 0.66322 0.88145 0.0
H665 H 0.94265 0.63002 0.78669 0.0
H666 H 0.94004 0.63804 0.82758 0.0
H667 H 0.89222 0.6672 0.84518 0.0
H668 H 0.89151 0.68917 0.96128 0.0
H669 H 0.90106 0.68448 0.9214 0.0
H670 H 0.92281 0.63232 0.90501 0.0
C671 C 0.92835 0.6373 0.8171 0.0
C672 C 0.899 0.65952 0.85809 0.0
C673 C 0.92985 0.63277 0.79373 0.0
C674 C 0.89305 0.67594 0.95507 0.0
C675 C 0.89845 0.67326 0.93224 0.0
C676 C 0.9161 0.64004 0.89208 0.0
C677 C 0.91195 0.64111 0.82671 0.0
C678 C 0.91016 0.64589 0.85146 0.0
C679 C 0.90026 0.65627 0.92344 0.0
C680 C 0.90452 0.65334 0.8987 0.0
H681 H 0.88685 0.6349 0.77888 0.0
H682 H 0.88425 0.64272 0.81957 0.0
H683 H 0.92756 0.62575 0.86408 0.0
H684 H 0.88875 0.63348 0.97163 0.0
H685 H 0.89806 0.62879 0.93177 0.0
C686 C 0.12281 0.17739 0.54617 0.0
C687 C 0.11596 0.16632 0.52907 0.0
C688 C 0.11892 0.17457 0.56952 0.0
C689 C 0.10672 0.13947 0.60906 0.0
H690 H 0.09539 0.1767 0.65192 0.0
C691 C 0.1073 0.12958 0.70768 0.0
C692 C 0.09292 0.13609 0.71999 0.0
C693 C 0.10968 0.13389 0.68442 0.0
C694 C 0.09846 0.16618 0.6401 0.0
H695 H 0.09929 0.14397 0.52286 0.0
H696 H 0.09257 0.13904 0.5636 0.0
H697 H 0.09972 0.18335 0.61084 0.0
H698 H 0.0699 0.1524 0.71782 0.0
H699 H 0.07413 0.16001 0.67706 0.0
H700 H 0.1055 0.1223 0.6382 0.0
C701 C 0.10103 0.1498 0.55898 0.0
C702 C 0.10106 0.17 0.61668 0.0
C703 C 0.10482 0.15268 0.53567 0.0
C704 C 0.08109 0.14718 0.70871 0.0
C705 C 0.08355 0.15161 0.68546 0.0
C706 C 0.10427 0.13568 0.63245 0.0
C707 C 0.10823 0.16056 0.57616 0.0
C708 C 0.1052 0.15666 0.60094 0.0
C709 C 0.0978 0.14488 0.67306 0.0
C710 C 0.10015 0.149 0.64821 0.0
H711 H 0.13142 0.18802 0.54156 0.0
H712 H 0.12473 0.183 0.58243 0.0
H713 H 0.11008 0.12895 0.59737 0.0
H714 H 0.11666 0.12104 0.71594 0.0
H715 H 0.12089 0.12868 0.67535 0.0
C716 C 0.60284 0.32416 0.46109 0.0
C717 C 0.61358 0.33617 0.47265 0.0
C718 C 0.59957 0.326 0.43739 0.0
C719 C 0.61869 0.34396 0.38485 0.0
H720 H 0.57168 0.34449 0.36021 0.0
C721 C 0.6043 0.36857 0.29321 0.0
C722 C 0.59101 0.36059 0.28034 0.0
C723 C 0.60692 0.36414 0.31636 0.0
C724 C 0.58491 0.34405 0.36672 0.0
H725 H 0.62923 0.35952 0.46865 0.0
H726 H 0.62371 0.36255 0.42725 0.0
H727 H 0.57631 0.33929 0.4015 0.0
H728 H 0.57018 0.34153 0.28138 0.0
H729 H 0.57505 0.33339 0.32178 0.0
H730 H 0.62742 0.3485 0.35028 0.0
C731 C 0.61782 0.35176 0.4365 0.0
C732 C 0.58752 0.34114 0.39036 0.0
C733 C 0.62088 0.35009 0.46019 0.0
C734 C 0.58048 0.34793 0.29097 0.0
C735 C 0.58322 0.34336 0.31412 0.0
C736 C 0.61611 0.34665 0.36123 0.0
C737 C 0.60723 0.33969 0.42487 0.0
C738 C 0.60442 0.34141 0.39967 0.0
C739 C 0.59644 0.35146 0.32712 0.0
C740 C 0.59917 0.34709 0.35192 0.0
H741 H 0.59705 0.31332 0.47032 0.0
H742 H 0.59138 0.31651 0.42876 0.0
H743 H 0.63187 0.34393 0.39159 0.0
H744 H 0.61254 0.37847 0.28552 0.0
H745 H 0.61698 0.37093 0.32592 0.0
C746 C 0.39349 0.8633 0.20891 0.0
C747 C 0.41056 0.86446 0.21755 0.0
C748 C 0.39054 0.85921 0.1857 0.0
C749 C 0.41115 0.86083 0.12855 0.0
H750 H 0.37371 0.8294 0.11136 0.0
C751 C 0.38316 0.85768 0.03627 0.0
C752 C 0.37932 0.84119 0.02706 0.0
C753 C 0.38802 0.85944 0.05942 0.0
C754 C 0.38432 0.83807 0.11589 0.0
H755 H 0.43794 0.86216 0.20878 0.0
H756 H 0.43278 0.85504 0.16809 0.0
H757 H 0.38041 0.83409 0.15221 0.0
H758 H 0.37759 0.81359 0.03476 0.0
H759 H 0.38606 0.81669 0.07538 0.0
H760 H 0.41501 0.86487 0.09224 0.0
C761 C 0.42169 0.85738 0.17928 0.0
C762 C 0.38804 0.84088 0.13926 0.0
C763 C 0.42464 0.8614 0.20256 0.0
C764 C 0.38044 0.82647 0.04143 0.0
C765 C 0.38523 0.82825 0.06467 0.0
C766 C 0.40737 0.85808 0.10518 0.0
C767 C 0.40461 0.85625 0.17062 0.0
C768 C 0.40137 0.85244 0.14583 0.0
C769 C 0.38907 0.84476 0.07389 0.0
C770 C 0.39379 0.84682 0.09862 0.0
H771 H 0.38237 0.8656 0.22006 0.0
H772 H 0.37724 0.85867 0.17947 0.0
H773 H 0.42141 0.8699 0.13308 0.0
H774 H 0.38239 0.86927 0.0256 0.0
H775 H 0.39066 0.87237 0.06611 0.0
C776 C 0.89284 0.35961 0.71067 0.0
C777 C 0.90943 0.35839 0.72081 0.0
C778 C 0.8901 0.35387 0.68804 0.0
C779 C 0.91326 0.34599 0.63353 0.0
H780 H 0.87054 0.32219 0.6165 0.0
C781 C 0.88925 0.34139 0.53945 0.0
C782 C 0.88159 0.32572 0.53209 0.0
C783 C 0.8937 0.3438 0.56264 0.0
C784 C 0.88263 0.32864 0.62101 0.0
H785 H 0.93611 0.34998 0.71543 0.0
H786 H 0.93129 0.33986 0.67583 0.0
H787 H 0.8763 0.32877 0.6571 0.0
H788 H 0.87278 0.30019 0.5431 0.0
H789 H 0.88062 0.30438 0.58375 0.0
H790 H 0.91959 0.34588 0.59744 0.0
C791 C 0.92046 0.34541 0.68533 0.0
C792 C 0.88584 0.33257 0.64422 0.0
C793 C 0.92319 0.35113 0.70801 0.0
C794 C 0.87862 0.31242 0.54832 0.0
C795 C 0.88304 0.31484 0.57158 0.0
C796 C 0.91004 0.34208 0.61031 0.0
C797 C 0.9039 0.3468 0.67508 0.0
C798 C 0.90108 0.3415 0.65068 0.0
C799 C 0.89055 0.3306 0.57899 0.0
C800 C 0.89458 0.33358 0.60378 0.0
H801 H 0.88199 0.36518 0.72012 0.0
H802 H 0.87726 0.35535 0.68052 0.0
H803 H 0.92506 0.35299 0.63794 0.0
H804 H 0.89167 0.35189 0.52733 0.0
H805 H 0.89923 0.35617 0.56787 0.0
C806 C 0.40265 0.1387 0.29319 0.0
C807 C 0.41889 0.1372 0.28218 0.0
C808 C 0.40156 0.14477 0.3159 0.0
C809 C 0.42669 0.14855 0.36943 0.0
H810 H 0.38923 0.1798 0.38707 0.0
C811 C 0.40083 0.15504 0.46254 0.0
C812 C 0.39495 0.1714 0.47014 0.0
C813 C 0.40672 0.15283 0.43987 0.0
C814 C 0.39994 0.17129 0.38241 0.0
H815 H 0.44675 0.14092 0.2862 0.0
H816 H 0.44484 0.1515 0.32607 0.0
H817 H 0.39351 0.17255 0.34641 0.0
H818 H 0.39148 0.19848 0.46043 0.0
H819 H 0.40185 0.19462 0.42077 0.0
H820 H 0.43294 0.14711 0.40552 0.0
C821 C 0.43297 0.14792 0.3171 0.0
C822 C 0.40225 0.16698 0.35915 0.0
C823 C 0.43405 0.14193 0.29429 0.0
C824 C 0.39585 0.18569 0.45499 0.0
C825 C 0.4017 0.18347 0.43228 0.0
C826 C 0.42433 0.15282 0.39274 0.0
C827 C 0.4167 0.14941 0.32811 0.0
C828 C 0.41542 0.1553 0.35248 0.0
C829 C 0.40681 0.16693 0.42433 0.0
C830 C 0.41073 0.16399 0.3995 0.0
H831 H 0.39075 0.13513 0.28429 0.0
H832 H 0.38887 0.14552 0.32405 0.0
H833 H 0.4369 0.13945 0.3648 0.0
H834 H 0.40032 0.1438 0.47386 0.0
H835 H 0.4104 0.13989 0.43421 0.0
C836 C 0.57711 0.64386 0.20891 0.0
C837 C 0.59143 0.63852 0.2223 0.0
C838 C 0.57931 0.64814 0.18557 0.0
C839 C 0.61236 0.66096 0.14244 0.0
H840 H 0.58059 0.64019 0.09811 0.0
C841 C 0.61691 0.67409 0.04394 0.0
C842 C 0.616 0.65918 0.02987 0.0
C843 C 0.61289 0.67303 0.06751 0.0
C844 C 0.58955 0.64608 0.1103 0.0
H845 H 0.6193 0.63382 0.22199 0.0
H846 H 0.62314 0.64132 0.18128 0.0
H847 H 0.57569 0.63591 0.13949 0.0
H848 H 0.61001 0.63156 0.0293 0.0
H849 H 0.60302 0.62973 0.07038 0.0
H850 H 0.62648 0.67076 0.11322 0.0
C851 C 0.61024 0.64229 0.18882 0.0
C852 C 0.58665 0.64378 0.13397 0.0
C853 C 0.60803 0.63788 0.21208 0.0
C854 C 0.61083 0.64327 0.03972 0.0
C855 C 0.6067 0.64224 0.0632 0.0
C856 C 0.61519 0.66336 0.11877 0.0
C857 C 0.59589 0.64731 0.17527 0.0
C858 C 0.59818 0.65097 0.15027 0.0
C859 C 0.60776 0.65708 0.07737 0.0
C860 C 0.60397 0.65571 0.10246 0.0
H861 H 0.56417 0.6445 0.21637 0.0
H862 H 0.56804 0.6521 0.17557 0.0
H863 H 0.62136 0.66678 0.15464 0.0
H864 H 0.62082 0.68653 0.03678 0.0
H865 H 0.61369 0.6847 0.078 0.0
C866 C 0.07344 0.85811 0.79471 0.0
C867 C 0.08868 0.86085 0.78172 0.0
C868 C 0.0745 0.85331 0.81803 0.0
C869 C 0.10428 0.83376 0.86084 0.0
H870 H 0.07603 0.85815 0.90613 0.0
C871 C 0.10729 0.81696 0.95801 0.0
C872 C 0.1091 0.83134 0.97286 0.0
C873 C 0.10277 0.8194 0.9348 0.0
C874 C 0.08398 0.85122 0.89367 0.0
H875 H 0.11694 0.86063 0.78281 0.0
H876 H 0.11878 0.85227 0.82342 0.0
H877 H 0.07236 0.86455 0.86497 0.0
H878 H 0.10709 0.85947 0.97531 0.0
H879 H 0.09926 0.86372 0.9348 0.0
H880 H 0.11627 0.8208 0.8895 0.0
C881 C 0.10602 0.85368 0.81559 0.0
C882 C 0.08177 0.85476 0.87011 0.0
C883 C 0.10497 0.85858 0.79238 0.0
C884 C 0.1058 0.84814 0.96426 0.0
C885 C 0.1012 0.85057 0.9411 0.0
C886 C 0.10642 0.83015 0.88436 0.0
C887 C 0.09082 0.85103 0.82868 0.0
C888 C 0.09211 0.84628 0.8535 0.0
C889 C 0.09989 0.83625 0.92604 0.0
C890 C 0.09648 0.83903 0.90104 0.0
H891 H 0.06071 0.85976 0.78691 0.0
H892 H 0.06257 0.85124 0.82767 0.0
H893 H 0.1123 0.82688 0.8484 0.0
H894 H 0.10971 0.80385 0.9642 0.0
H895 H 0.10167 0.8081 0.92365 0.0
C896 C 0.1247 0.33267 0.33259 0.0
C897 C 0.11503 0.34682 0.3411 0.0
C898 C 0.13106 0.31995 0.34765 0.0
C899 C 0.11956 0.30025 0.40311 0.0
H900 H 0.16116 0.27282 0.39189 0.0
C901 C 0.13228 0.23586 0.45184 0.0
C902 C 0.13695 0.22183 0.43751 0.0
C903 C 0.1327 0.25294 0.44337 0.0
C904 C 0.1495 0.28036 0.39525 0.0
H905 H 0.10549 0.35945 0.37218 0.0
H906 H 0.11676 0.33725 0.39861 0.0
H907 H 0.15704 0.30034 0.37137 0.0
H908 H 0.14627 0.21467 0.40337 0.0
H909 H 0.14685 0.24438 0.38854 0.0
H910 H 0.1117 0.28001 0.42634 0.0
C911 C 0.1192 0.33587 0.38023 0.0
C912 C 0.14715 0.29613 0.38352 0.0
C913 C 0.11285 0.34864 0.36513 0.0
C914 C 0.14257 0.22523 0.41481 0.0
C915 C 0.14304 0.24228 0.40638 0.0
C916 C 0.12192 0.28451 0.41485 0.0
C917 C 0.12789 0.32109 0.37158 0.0
C918 C 0.13191 0.306 0.38682 0.0
C919 C 0.13787 0.25631 0.42044 0.0
C920 C 0.13667 0.27414 0.41055 0.0
H921 H 0.12663 0.33094 0.31415 0.0
H922 H 0.13755 0.30869 0.34033 0.0
H923 H 0.10755 0.30738 0.40585 0.0
H924 H 0.12797 0.23363 0.46945 0.0
H925 H 0.12879 0.26349 0.45469 0.0
C926 C 0.91361 0.85891 0.59155 0.0
C927 C 0.9158 0.84917 0.57117 0.0
C928 C 0.9281 0.86366 0.60489 0.0
C929 C 0.97618 0.86823 0.60192 0.0
H930 H 0.97428 0.86172 0.66844 0.0
C931 C 0.02676 0.85911 0.68296 0.0
C932 C 0.03897 0.87211 0.67748 0.0
C933 C 0.01102 0.85801 0.67083 0.0
C934 C 0.97503 0.86354 0.64988 0.0
H935 H 0.93483 0.83702 0.54855 0.0
H936 H 0.95992 0.84515 0.57175 0.0
H937 H 0.94813 0.85692 0.6452 0.0
H938 H 0.04411 0.89443 0.65548 0.0
H939 H 0.0166 0.89268 0.63458 0.0
H940 H 0.00317 0.87417 0.60636 0.0
C941 C 0.94713 0.84933 0.57738 0.0
C942 C 0.95999 0.86101 0.6366 0.0
C943 C 0.93271 0.84457 0.56415 0.0
C944 C 0.03502 0.88417 0.65995 0.0
C945 C 0.01927 0.88312 0.64792 0.0
C946 C 0.99119 0.87073 0.61516 0.0
C947 C 0.94502 0.85883 0.59799 0.0
C948 C 0.96048 0.86307 0.61242 0.0
C949 C 0.00715 0.86993 0.65304 0.0
C950 C 0.99086 0.86821 0.63926 0.0
H951 H 0.90071 0.86262 0.59737 0.0
H952 H 0.92607 0.87111 0.62059 0.0
H953 H 0.97694 0.87014 0.58337 0.0
H954 H 0.02947 0.84964 0.6964 0.0
H955 H 0.00208 0.84755 0.67503 0.0
C956 C 0.36124 0.78798 0.90019 0.0
C957 C 0.36452 0.78871 0.92409 0.0
C958 C 0.36156 0.77206 0.88852 0.0
C959 C 0.35944 0.72434 0.89633 0.0
H960 H 0.38539 0.72379 0.83875 0.0
C961 C 0.38232 0.66111 0.85004 0.0
C962 C 0.38358 0.66152 0.82579 0.0
C963 C 0.37727 0.67605 0.86225 0.0
C964 C 0.37779 0.72372 0.85455 0.0
H965 H 0.37028 0.77332 0.95464 0.0
H966 H 0.37096 0.74544 0.93413 0.0
H967 H 0.38195 0.75097 0.85969 0.0
H968 H 0.37919 0.67723 0.79517 0.0
H969 H 0.3698 0.703 0.8163 0.0
H970 H 0.35541 0.69696 0.89116 0.0
C971 C 0.36801 0.75718 0.92449 0.0
C972 C 0.37588 0.73933 0.86661 0.0
C973 C 0.36774 0.77315 0.93619 0.0
C974 C 0.37853 0.67664 0.81389 0.0
C975 C 0.37328 0.69144 0.82603 0.0
C976 C 0.36128 0.70866 0.88416 0.0
C977 C 0.36515 0.75652 0.90047 0.0
C978 C 0.36671 0.73984 0.88763 0.0
C979 C 0.37325 0.69156 0.85037 0.0
C980 C 0.3705 0.70818 0.86312 0.0
H981 H 0.3586 0.79973 0.89042 0.0
H982 H 0.35906 0.77194 0.87006 0.0
H983 H 0.35219 0.72437 0.91243 0.0
H984 H 0.38621 0.64962 0.85962 0.0
H985 H 0.37745 0.67569 0.88099 0.0
C986 C 0.59079 0.14326 0.09295 0.0
C987 C 0.58897 0.14619 0.06909 0.0
C988 C 0.57652 0.1376 0.10607 0.0
C989 C 0.5283 0.13764 0.10334 0.0
H990 H 0.53177 0.10828 0.1578 0.0
C991 C 0.46757 0.11519 0.15301 0.0
C992 C 0.46795 0.11815 0.17699 0.0
C993 C 0.4828 0.11654 0.1399 0.0
C994 C 0.53066 0.11653 0.14265 0.0
H995 H 0.57136 0.14432 0.03988 0.0
H996 H 0.54678 0.13374 0.06242 0.0
H997 H 0.55776 0.11389 0.13438 0.0
H998 H 0.4846 0.12418 0.20624 0.0
H999 H 0.5113 0.12645 0.18326 0.0
H1000 H 0.50125 0.14019 0.1115 0.0
C1001 C 0.55891 0.13647 0.07131 0.0
C1002 C 0.54553 0.11979 0.12928 0.0
C1003 C 0.57302 0.1424 0.05833 0.0
C1004 C 0.48394 0.12189 0.18775 0.0
C1005 C 0.49922 0.12308 0.17465 0.0
C1006 C 0.51348 0.13422 0.11651 0.0
C1007 C 0.56028 0.13453 0.09545 0.0
C1008 C 0.54453 0.13043 0.10947 0.0
C1009 C 0.49872 0.12073 0.15055 0.0
C1010 C 0.5145 0.12369 0.13632 0.0
H1011 H 0.60296 0.14614 0.10163 0.0
H1012 H 0.57804 0.13636 0.12463 0.0
H1013 H 0.52707 0.14628 0.08861 0.0
H1014 H 0.45544 0.11222 0.14426 0.0
H1015 H 0.4821 0.1145 0.12137 0.0
C1016 C 0.12061 0.66913 0.19092 0.0
C1017 C 0.11326 0.65511 0.17873 0.0
C1018 C 0.12753 0.68339 0.17904 0.0
C1019 C 0.13981 0.6999 0.1204 0.0
H1020 H 0.12413 0.74403 0.14565 0.0
C1021 C 0.13149 0.76241 0.06587 0.0
C1022 C 0.13566 0.77848 0.0761 0.0
C1023 C 0.13239 0.74702 0.07875 0.0
C1024 C 0.1289 0.73187 0.13853 0.0
H1025 H 0.10836 0.6445 0.14458 0.0
H1026 H 0.12006 0.66952 0.12381 0.0
H1027 H 0.11975 0.71745 0.16769 0.0
H1028 H 0.14467 0.79099 0.10756 0.0
H1029 H 0.14622 0.76409 0.13007 0.0
H1030 H 0.14832 0.71444 0.09077 0.0
C1031 C 0.12075 0.66946 0.14253 0.0
C1032 C 0.12643 0.71659 0.15121 0.0
C1033 C 0.11396 0.65512 0.15443 0.0
C1034 C 0.14128 0.77881 0.09924 0.0
C1035 C 0.14212 0.76342 0.11215 0.0
C1036 C 0.1422 0.71522 0.10764 0.0
C1037 C 0.1271 0.68402 0.1547 0.0
C1038 C 0.1316 0.70036 0.14217 0.0
C1039 C 0.13742 0.74739 0.10215 0.0
C1040 C 0.13652 0.73133 0.11643 0.0
H1041 H 0.12039 0.6694 0.20967 0.0
H1042 H 0.1327 0.6942 0.18895 0.0
H1043 H 0.14417 0.68767 0.11306 0.0
H1044 H 0.12714 0.76176 0.04805 0.0
H1045 H 0.1285 0.73491 0.07061 0.0
C1046 C 0.48297 0.8753 0.30443 0.0
C1047 C 0.46771 0.87628 0.31782 0.0
C1048 C 0.49936 0.87539 0.31508 0.0
C1049 C 0.52124 0.88597 0.37081 0.0
H1050 H 0.55608 0.85286 0.35005 0.0
C1051 C 0.57483 0.85883 0.42949 0.0
C1052 C 0.59168 0.8565 0.42052 0.0
C1053 C 0.56129 0.86445 0.41524 0.0
C1054 C 0.54662 0.86241 0.35578 0.0
H1055 H 0.45761 0.87812 0.35279 0.0
H1056 H 0.48604 0.87791 0.37135 0.0
H1057 H 0.52911 0.85628 0.32812 0.0
H1058 H 0.60773 0.8586 0.38978 0.0
H1059 H 0.58379 0.86819 0.36457 0.0
H1060 H 0.53845 0.89149 0.39905 0.0
C1061 C 0.48546 0.87745 0.35262 0.0
C1062 C 0.53115 0.86438 0.34322 0.0
C1063 C 0.46913 0.87742 0.342 0.0
C1064 C 0.59486 0.86035 0.39712 0.0
C1065 C 0.58118 0.86574 0.38271 0.0
C1066 C 0.53663 0.88391 0.38342 0.0
C1067 C 0.50079 0.87644 0.33932 0.0
C1068 C 0.51808 0.87585 0.35095 0.0
C1069 C 0.56423 0.86766 0.39163 0.0
C1070 C 0.54927 0.8718 0.37635 0.0
H1071 H 0.48226 0.87448 0.28573 0.0
H1072 H 0.5109 0.87474 0.30431 0.0
H1073 H 0.51164 0.89524 0.37693 0.0
H1074 H 0.57201 0.85598 0.44748 0.0
H1075 H 0.54833 0.86561 0.42255 0.0
C1076 C 0.34981 0.22191 0.58859 0.0
C1077 C 0.35595 0.22225 0.56569 0.0
C1078 C 0.34954 0.23713 0.60183 0.0
C1079 C 0.35294 0.28517 0.60017 0.0
H1080 H 0.37826 0.27898 0.65765 0.0
C1081 C 0.38454 0.34236 0.65023 0.0
C1082 C 0.38642 0.34082 0.67431 0.0
C1083 C 0.37738 0.32867 0.63736 0.0
C1084 C 0.37079 0.281 0.64197 0.0
H1085 H 0.36545 0.23894 0.53814 0.0
H1086 H 0.36492 0.26557 0.56127 0.0
H1087 H 0.37096 0.25375 0.63438 0.0
H1088 H 0.3812 0.32446 0.70408 0.0
H1089 H 0.36802 0.30096 0.68191 0.0
H1090 H 0.35287 0.31249 0.60773 0.0
C1091 C 0.36032 0.25354 0.56898 0.0
C1092 C 0.36665 0.26647 0.62858 0.0
C1093 C 0.36071 0.23828 0.55579 0.0
C1094 C 0.38013 0.32585 0.68546 0.0
C1095 C 0.37268 0.31234 0.67271 0.0
C1096 C 0.35691 0.29975 0.61375 0.0
C1097 C 0.35529 0.253 0.59235 0.0
C1098 C 0.3579 0.26841 0.60741 0.0
C1099 C 0.37172 0.31331 0.64841 0.0
C1100 C 0.36611 0.29786 0.63469 0.0
H1101 H 0.34597 0.20975 0.59666 0.0
H1102 H 0.34541 0.2364 0.61974 0.0
H1103 H 0.34611 0.28699 0.58394 0.0
H1104 H 0.38933 0.35378 0.64123 0.0
H1105 H 0.37702 0.32985 0.61869 0.0
C1106 C 0.03488 0.12268 0.84369 0.0
C1107 C 0.03639 0.12322 0.81949 0.0
C1108 C 0.01851 0.12298 0.85421 0.0
C1109 C 0.97274 0.1355 0.84344 0.0
H1110 H 0.96494 0.10997 0.90048 0.0
C1111 C 0.9074 0.13842 0.8934 0.0
C1112 C 0.90944 0.14298 0.9168 0.0
C1113 C 0.92184 0.13334 0.88023 0.0
C1114 C 0.96694 0.11712 0.88452 0.0
H1115 H 0.02198 0.12424 0.78724 0.0
H1116 H 0.9933 0.12444 0.8056 0.0
H1117 H 0.99226 0.10616 0.87947 0.0
H1118 H 0.92792 0.1451 0.94505 0.0
H1119 H 0.95302 0.13601 0.9222 0.0
H1120 H 0.9474 0.14654 0.8487 0.0
C1121 C 0.00478 0.1241 0.81649 0.0
C1122 C 0.98261 0.11503 0.87255 0.0
C1123 C 0.02119 0.12392 0.80597 0.0
C1124 C 0.92598 0.14169 0.92703 0.0
C1125 C 0.94033 0.13639 0.91399 0.0
C1126 C 0.95699 0.13746 0.85532 0.0
C1127 C 0.00324 0.12368 0.84076 0.0
C1128 C 0.98588 0.12452 0.85216 0.0
C1129 C 0.93847 0.13246 0.89038 0.0
C1130 C 0.95412 0.1286 0.87626 0.0
H1131 H 0.04638 0.1222 0.85456 0.0
H1132 H 0.01786 0.123 0.87294 0.0
H1133 H 0.97487 0.14316 0.82794 0.0
H1134 H 0.89477 0.13933 0.8851 0.0
H1135 H 0.92007 0.13029 0.86208 0.0
C1136 C 0.88353 0.67044 0.67899 0.0
C1137 C 0.89176 0.6562 0.66835 0.0
C1138 C 0.87816 0.68471 0.66589 0.0
C1139 C 0.87084 0.70117 0.60623 0.0
H1140 H 0.88466 0.74511 0.63386 0.0
C1141 C 0.87623 0.76605 0.5551 0.0
C1142 C 0.87115 0.78138 0.56656 0.0
C1143 C 0.87651 0.75014 0.56689 0.0
C1144 C 0.88045 0.73301 0.62601 0.0
H1145 H 0.89992 0.64522 0.63553 0.0
H1146 H 0.89078 0.6704 0.61255 0.0
H1147 H 0.88854 0.71827 0.65542 0.0
H1148 H 0.86171 0.792 0.59901 0.0
H1149 H 0.86201 0.76425 0.61949 0.0
H1150 H 0.86307 0.71608 0.57656 0.0
C1151 C 0.88831 0.67044 0.63101 0.0
C1152 C 0.88265 0.71759 0.6384 0.0
C1153 C 0.89359 0.65604 0.64415 0.0
C1154 C 0.86585 0.78042 0.58979 0.0
C1155 C 0.86609 0.76454 0.60154 0.0
C1156 C 0.86863 0.71667 0.59378 0.0
C1157 C 0.88105 0.68516 0.64186 0.0
C1158 C 0.8779 0.70148 0.6287 0.0
C1159 C 0.8717 0.74927 0.59036 0.0
C1160 C 0.87344 0.73275 0.60355 0.0
H1161 H 0.88177 0.67082 0.69759 0.0
H1162 H 0.87221 0.69566 0.6747 0.0
H1163 H 0.86696 0.68897 0.59834 0.0
H1164 H 0.88036 0.76641 0.53716 0.0
H1165 H 0.88104 0.73863 0.55785 0.0
C1166 C 0.98632 0.12341 0.30457 0.0
C1167 C 0.97159 0.11508 0.31384 0.0
C1168 C 0.00173 0.1245 0.31734 0.0
C1169 C 0.03526 0.11976 0.34454 0.0
H1170 H 0.02911 0.13352 0.40861 0.0
C1171 C 0.09326 0.13522 0.40601 0.0
C1172 C 0.0912 0.15032 0.4195 0.0
C1173 C 0.0792 0.12851 0.39339 0.0
C1174 C 0.03105 0.12968 0.39075 0.0
H1175 H 0.96165 0.10065 0.34328 0.0
H1176 H 0.98864 0.1024 0.36556 0.0
H1177 H 0.00379 0.12563 0.38556 0.0
H1178 H 0.07289 0.17029 0.43024 0.0
H1179 H 0.04853 0.15873 0.40818 0.0
H1180 H 0.06251 0.12458 0.34958 0.0
C1181 C 0.9882 0.10832 0.34854 0.0
C1182 C 0.01655 0.12494 0.3776 0.0
C1183 C 0.97277 0.10724 0.33575 0.0
C1184 C 0.07489 0.1586 0.42007 0.0
C1185 C 0.06087 0.15189 0.40756 0.0
C1186 C 0.04979 0.1245 0.35773 0.0
C1187 C 0.00275 0.11726 0.33966 0.0
C1188 C 0.01843 0.12027 0.35421 0.0
C1189 C 0.06282 0.13674 0.39416 0.0
C1190 C 0.04778 0.12989 0.38082 0.0
H1191 H 0.98581 0.12957 0.28769 0.0
H1192 H 0.0126 0.13166 0.31009 0.0
H1193 H 0.03715 0.11602 0.32664 0.0
H1194 H 0.1057 0.12856 0.40529 0.0
H1195 H 0.08107 0.11677 0.38328 0.0
C1196 C 0.63286 0.22057 0.0875 0.0
C1197 C 0.6301 0.21968 0.06351 0.0
C1198 C 0.63324 0.23664 0.09877 0.0
C1199 C 0.61813 0.282 0.09233 0.0
H1200 H 0.64725 0.28916 0.14638 0.0
C1201 C 0.61334 0.34435 0.14776 0.0
C1202 C 0.61025 0.34074 0.17125 0.0
C1203 C 0.6192 0.33119 0.13291 0.0
C1204 C 0.63911 0.28737 0.13124 0.0
H1205 H 0.62602 0.2349 0.03236 0.0
H1206 H 0.62699 0.26307 0.052 0.0
H1207 H 0.65101 0.26294 0.12299 0.0
H1208 H 0.61178 0.32093 0.19793 0.0
H1209 H 0.6222 0.29807 0.17214 0.0
H1210 H 0.60607 0.30633 0.10085 0.0
C1211 C 0.62855 0.25133 0.06218 0.0
C1212 C 0.64118 0.27232 0.11792 0.0
C1213 C 0.62805 0.2352 0.05092 0.0
C1214 C 0.61402 0.32406 0.17988 0.0
C1215 C 0.62008 0.311 0.16514 0.0
C1216 C 0.61617 0.29712 0.10555 0.0
C1217 C 0.631 0.25223 0.08629 0.0
C1218 C 0.63037 0.26921 0.09868 0.0
C1219 C 0.62231 0.31431 0.1414 0.0
C1220 C 0.62632 0.29972 0.12548 0.0
H1221 H 0.63443 0.20881 0.09767 0.0
H1222 H 0.63482 0.23679 0.1174 0.0
H1223 H 0.60945 0.27998 0.0778 0.0
H1224 H 0.61051 0.35711 0.14066 0.0
H1225 H 0.62091 0.33409 0.11469 0.0
C1226 C 0.42356 0.8584 0.93026 0.0
C1227 C 0.40684 0.85841 0.9204 0.0
C1228 C 0.43798 0.86365 0.91732 0.0
C1229 C 0.45394 0.86491 0.8583 0.0
H1230 H 0.49075 0.89339 0.88447 0.0
C1231 C 0.51821 0.87833 0.80898 0.0
C1232 C 0.53355 0.87764 0.82223 0.0
C1233 C 0.5019 0.8783 0.81979 0.0
C1234 C 0.48065 0.8853 0.87697 0.0
H1235 H 0.39196 0.86425 0.88947 0.0
H1236 H 0.41738 0.8732 0.86657 0.0
H1237 H 0.4635 0.88964 0.90565 0.0
H1238 H 0.54388 0.87633 0.8571 0.0
H1239 H 0.51553 0.87581 0.87593 0.0
H1240 H 0.4713 0.85993 0.83009 0.0
C1241 C 0.41923 0.86919 0.88438 0.0
C1242 C 0.46503 0.88325 0.88905 0.0
C1243 C 0.40472 0.86416 0.89748 0.0
C1244 C 0.53229 0.87695 0.84645 0.0
C1245 C 0.51601 0.87681 0.85724 0.0
C1246 C 0.46964 0.86683 0.84629 0.0
C1247 C 0.43601 0.86882 0.89415 0.0
C1248 C 0.45165 0.87276 0.88004 0.0
C1249 C 0.5006 0.87748 0.84407 0.0
C1250 C 0.48332 0.87677 0.85571 0.0
H1251 H 0.42557 0.85406 0.94791 0.0
H1252 H 0.45077 0.86305 0.92522 0.0
H1253 H 0.44391 0.8566 0.85108 0.0
H1254 H 0.51881 0.87897 0.79026 0.0
H1255 H 0.49032 0.87904 0.80913 0.0
C1256 C 0.86802 0.22976 0.93863 0.0
C1257 C 0.86819 0.21475 0.92469 0.0
C1258 C 0.86798 0.24633 0.92854 0.0
C1259 C 0.85979 0.26914 0.87281 0.0
H1260 H 0.89176 0.30371 0.8972 0.0
C1261 C 0.8901 0.32301 0.81776 0.0
C1262 C 0.8922 0.33974 0.82716 0.0
C1263 C 0.88356 0.30946 0.83125 0.0
C1264 C 0.8825 0.29434 0.89046 0.0
H1265 H 0.86833 0.20528 0.88934 0.0
H1266 H 0.8686 0.23408 0.87175 0.0
H1267 H 0.88738 0.27642 0.9181 0.0
H1268 H 0.8887 0.35561 0.85783 0.0
H1269 H 0.87748 0.33163 0.88177 0.0
H1270 H 0.85557 0.28675 0.84461 0.0
C1271 C 0.86815 0.23314 0.89045 0.0
C1272 C 0.88 0.27869 0.90241 0.0
C1273 C 0.86816 0.21661 0.90052 0.0
C1274 C 0.88716 0.34282 0.85018 0.0
C1275 C 0.88083 0.32913 0.86386 0.0
C1276 C 0.86238 0.28471 0.86082 0.0
C1277 C 0.86811 0.2482 0.90432 0.0
C1278 C 0.86899 0.26571 0.89336 0.0
C1279 C 0.87915 0.31228 0.85454 0.0
C1280 C 0.87413 0.29725 0.86919 0.0
H1281 H 0.86796 0.22871 0.95733 0.0
H1282 H 0.8678 0.25767 0.93969 0.0
H1283 H 0.85091 0.25958 0.86566 0.0
H1284 H 0.89383 0.32029 0.80003 0.0
H1285 H 0.88261 0.29658 0.82367 0.0
C1286 C 0.52408 0.1416 0.67873 0.0
C1287 C 0.53227 0.12533 0.67638 0.0
C1288 C 0.50819 0.14486 0.66781 0.0
C1289 C 0.46954 0.12438 0.64222 0.0
H1290 H 0.46697 0.1672 0.60674 0.0
C1291 C 0.41205 0.14109 0.58035 0.0
C1292 C 0.40727 0.1587 0.57864 0.0
C1293 C 0.42661 0.1362 0.59347 0.0
C1294 C 0.46731 0.15532 0.61686 0.0
H1295 H 0.53002 0.09952 0.66138 0.0
H1296 H 0.50207 0.10522 0.64237 0.0
H1297 H 0.4935 0.16019 0.62772 0.0
H1298 H 0.41322 0.18488 0.59032 0.0
H1299 H 0.43808 0.17636 0.61375 0.0
H1300 H 0.4432 0.11964 0.63158 0.0
C1301 C 0.508 0.11542 0.65266 0.0
C1302 C 0.48256 0.15129 0.6288 0.0
C1303 C 0.52401 0.1122 0.66343 0.0
C1304 C 0.41676 0.17122 0.59107 0.0
C1305 C 0.4311 0.16634 0.60437 0.0
C1306 C 0.45414 0.12851 0.63041 0.0
C1307 C 0.50009 0.13187 0.65446 0.0
C1308 C 0.48382 0.13584 0.6417 0.0
C1309 C 0.43651 0.14884 0.60527 0.0
C1310 C 0.45282 0.1441 0.6177 0.0
H1311 H 0.5301 0.15194 0.68867 0.0
H1312 H 0.50227 0.15759 0.66969 0.0
H1313 H 0.47017 0.11241 0.65212 0.0
H1314 H 0.40495 0.13119 0.57087 0.0
H1315 H 0.43045 0.12262 0.59367 0.0
C1316 C 0.63452 0.78257 0.40709 0.0
C1317 C 0.63164 0.78402 0.431 0.0
C1318 C 0.63494 0.76622 0.3965 0.0
C1319 C 0.62 0.72091 0.40521 0.0
H1320 H 0.6488 0.71244 0.35117 0.0
C1321 C 0.6156 0.65687 0.35323 0.0
C1322 C 0.61194 0.65984 0.32974 0.0
C1323 C 0.62152 0.67051 0.36726 0.0
C1324 C 0.64077 0.71461 0.36633 0.0
H1325 H 0.62746 0.76955 0.46275 0.0
H1326 H 0.6286 0.74095 0.44439 0.0
H1327 H 0.65247 0.73937 0.37312 0.0
H1328 H 0.61258 0.67897 0.30212 0.0
H1329 H 0.62318 0.70264 0.32645 0.0
H1330 H 0.60818 0.6962 0.39817 0.0
C1331 C 0.63014 0.75243 0.43368 0.0
C1332 C 0.64277 0.73006 0.37882 0.0
C1333 C 0.62955 0.76881 0.44423 0.0
C1334 C 0.61524 0.67635 0.32021 0.0
C1335 C 0.62141 0.68987 0.3341 0.0
C1336 C 0.61814 0.70538 0.39285 0.0
C1337 C 0.63267 0.75093 0.40963 0.0
C1338 C 0.63207 0.73363 0.39804 0.0
C1339 C 0.62418 0.68721 0.35787 0.0
C1340 C 0.62818 0.70229 0.37295 0.0
H1341 H 0.63612 0.79409 0.39645 0.0
H1342 H 0.63658 0.76562 0.3779 0.0
H1343 H 0.61138 0.72326 0.41972 0.0
H1344 H 0.61313 0.64426 0.36099 0.0
H1345 H 0.62364 0.66813 0.38553 0.0
C1346 C 0.06911 0.83742 0.07273 0.0
C1347 C 0.08583 0.84323 0.07886 0.0
C1348 C 0.05471 0.84171 0.08622 0.0
C1349 C 0.03783 0.87199 0.13005 0.0
H1350 H 0.0045 0.83465 0.13967 0.0
C1351 C 0.97449 0.87832 0.18574 0.0
C1352 C 0.95943 0.87163 0.17509 0.0
C1353 C 0.99094 0.8755 0.17587 0.0
C1354 C 0.01365 0.84523 0.13707 0.0
H1355 H 0.10056 0.85854 0.10357 0.0
H1356 H 0.07515 0.86601 0.12751 0.0
H1357 H 0.03155 0.82874 0.11918 0.0
H1358 H 0.94972 0.85698 0.1457 0.0
H1359 H 0.97828 0.85202 0.12863 0.0
H1360 H 0.01965 0.88849 0.14792 0.0
C1361 C 0.07328 0.85817 0.11211 0.0
C1362 C 0.02913 0.84186 0.12531 0.0
C1363 C 0.0878 0.85388 0.09848 0.0
C1364 C 0.96108 0.86223 0.15437 0.0
C1365 C 0.97745 0.85931 0.14465 0.0
C1366 C 0.02228 0.87536 0.14196 0.0
C1367 C 0.05663 0.85183 0.10631 0.0
C1368 C 0.04119 0.85528 0.1211 0.0
C1369 C 0.99256 0.86578 0.15536 0.0
C1370 C 0.00986 0.86208 0.14504 0.0
H1371 H 0.06712 0.82936 0.05756 0.0
H1372 H 0.04201 0.83699 0.08093 0.0
H1373 H 0.04687 0.88259 0.12703 0.0
H1374 H 0.97358 0.88566 0.20171 0.0
H1375 H 0.00239 0.88059 0.1845 0.0
C1376 C 0.62615 0.70929 0.90079 0.0
C1377 C 0.62655 0.70905 0.92509 0.0
C1378 C 0.62459 0.72502 0.88886 0.0
C1379 C 0.63061 0.77234 0.89346 0.0
H1380 H 0.59556 0.77389 0.84516 0.0
C1381 C 0.60838 0.83641 0.84861 0.0
C1382 C 0.6036 0.83537 0.82519 0.0
C1383 C 0.61275 0.8213 0.86091 0.0
C1384 C 0.60562 0.77365 0.8583 0.0
H1385 H 0.62609 0.72508 0.95599 0.0
H1386 H 0.62343 0.7527 0.93503 0.0
H1387 H 0.60032 0.74699 0.86641 0.0
H1388 H 0.60068 0.81801 0.79585 0.0
H1389 H 0.60886 0.79185 0.81695 0.0
H1390 H 0.63603 0.79902 0.88515 0.0
C1391 C 0.62435 0.74068 0.92527 0.0
C1392 C 0.60828 0.75823 0.87054 0.0
C1393 C 0.62577 0.72489 0.93724 0.0
C1394 C 0.6041 0.81916 0.81399 0.0
C1395 C 0.60866 0.80414 0.82614 0.0
C1396 C 0.62805 0.7878 0.88103 0.0
C1397 C 0.62351 0.74086 0.90097 0.0
C1398 C 0.62082 0.75738 0.88819 0.0
C1399 C 0.61258 0.80493 0.84991 0.0
C1400 C 0.61556 0.78861 0.86322 0.0
H1401 H 0.62679 0.69729 0.89095 0.0
H1402 H 0.62417 0.7248 0.87011 0.0
H1403 H 0.64044 0.772 0.90691 0.0
H1404 H 0.60805 0.84877 0.85765 0.0
H1405 H 0.61559 0.82239 0.87921 0.0
C1406 C 0.53263 0.37467 0.15651 0.0
C1407 C 0.53388 0.37402 0.18073 0.0
C1408 C 0.51638 0.37445 0.14569 0.0
C1409 C 0.47047 0.36199 0.1553 0.0
H1410 H 0.4636 0.38789 0.09834 0.0
C1411 C 0.40619 0.35895 0.10301 0.0
C1412 C 0.40882 0.35428 0.07975 0.0
C1413 C 0.42027 0.36419 0.11673 0.0
C1414 C 0.46533 0.38065 0.11428 0.0
H1415 H 0.51913 0.3728 0.2127 0.0
H1416 H 0.49063 0.37271 0.1938 0.0
H1417 H 0.49053 0.39163 0.12021 0.0
H1418 H 0.42797 0.35219 0.05229 0.0
H1419 H 0.45245 0.3616 0.07608 0.0
H1420 H 0.44526 0.35092 0.14914 0.0
C1421 C 0.50223 0.37311 0.18313 0.0
C1422 C 0.48078 0.38269 0.12674 0.0
C1423 C 0.51854 0.37322 0.19397 0.0
C1424 C 0.42558 0.35568 0.07018 0.0
C1425 C 0.43957 0.36116 0.08376 0.0
C1426 C 0.45494 0.36008 0.14292 0.0
C1427 C 0.50097 0.37372 0.15884 0.0
C1428 C 0.48374 0.37303 0.14707 0.0
C1429 C 0.43713 0.36514 0.10727 0.0
C1430 C 0.45241 0.36906 0.122 0.0
H1431 H 0.54423 0.37522 0.14585 0.0
H1432 H 0.51594 0.37455 0.12695 0.0
H1433 H 0.47237 0.35422 0.17075 0.0
H1434 H 0.39338 0.35794 0.1108 0.0
H1435 H 0.41805 0.36726 0.13479 0.0
C1436 C 0.85316 0.27044 0.40931 0.0
C1437 C 0.86203 0.27191 0.43047 0.0
C1438 C 0.85386 0.25494 0.39666 0.0
C1439 C 0.86812 0.20839 0.39919 0.0
H1440 H 0.87733 0.21584 0.33394 0.0
C1441 C 0.88639 0.15224 0.33589 0.0
C1442 C 0.90032 0.15608 0.32093 0.0
C1443 C 0.87874 0.16545 0.34921 0.0
C1444 C 0.87477 0.21352 0.35213 0.0
H1445 H 0.8779 0.25815 0.45557 0.0
H1446 H 0.8796 0.23131 0.43321 0.0
H1447 H 0.86893 0.24031 0.35804 0.0
H1448 H 0.91725 0.17664 0.30829 0.0
H1449 H 0.90416 0.19945 0.33157 0.0
H1450 H 0.87501 0.18169 0.39332 0.0
C1451 C 0.8718 0.24193 0.42652 0.0
C1452 C 0.8697 0.22753 0.36593 0.0
C1453 C 0.87094 0.25737 0.43928 0.0
C1454 C 0.90647 0.17327 0.31957 0.0
C1455 C 0.89887 0.1864 0.33279 0.0
C1456 C 0.87329 0.19435 0.38535 0.0
C1457 C 0.86362 0.24067 0.40478 0.0
C1458 C 0.8667 0.22524 0.38975 0.0
C1459 C 0.88486 0.18269 0.34768 0.0
C1460 C 0.87714 0.19689 0.3618 0.0
H1461 H 0.84602 0.28139 0.40224 0.0
H1462 H 0.8471 0.25431 0.38023 0.0
H1463 H 0.86564 0.20612 0.4174 0.0
H1464 H 0.88139 0.13908 0.33726 0.0
H1465 H 0.86793 0.16222 0.36048 0.0
C1466 C 0.08133 0.67344 0.58967 0.0
C1467 C 0.09024 0.66065 0.577 0.0
C1468 C 0.06748 0.66892 0.60407 0.0
C1469 C 0.04478 0.63151 0.63207 0.0
H1470 H 0.00588 0.66383 0.63158 0.0
C1471 C 0.97531 0.61569 0.66647 0.0
C1472 C 0.96739 0.62859 0.68018 0.0
C1473 C 0.99124 0.61895 0.65552 0.0
C1474 C 0.01671 0.65476 0.63207 0.0
H1475 H 0.09207 0.633 0.5699 0.0
H1476 H 0.06734 0.62504 0.59452 0.0
H1477 H 0.0319 0.6705 0.6093 0.0
H1478 H 0.97003 0.65485 0.69356 0.0
H1479 H 0.99773 0.66063 0.67412 0.0
H1480 H 0.02907 0.61553 0.65434 0.0
C1481 C 0.07129 0.63857 0.59373 0.0
C1482 C 0.03168 0.6586 0.61938 0.0
C1483 C 0.08541 0.64311 0.57956 0.0
C1484 C 0.97582 0.64468 0.68306 0.0
C1485 C 0.99162 0.64801 0.67189 0.0
C1486 C 0.02965 0.62757 0.64457 0.0
C1487 C 0.06193 0.6515 0.60581 0.0
C1488 C 0.04599 0.64711 0.61934 0.0
C1489 C -0.0006 0.63523 0.65785 0.0
C1490 C 0.01553 0.63924 0.64479 0.0
H1491 H 0.08495 0.68705 0.58827 0.0
H1492 H 0.06096 0.67917 0.61362 0.0
H1493 H 0.05558 0.62245 0.63262 0.0
H1494 H 0.96912 0.60314 0.66401 0.0
H1495 H 0.9969 0.60892 0.64467 0.0
C1496 C 0.63774 0.27737 0.59281 0.0
C1497 C 0.62911 0.27994 0.57165 0.0
C1498 C 0.6382 0.26089 0.60303 0.0
C1499 C 0.63137 0.21384 0.59129 0.0
H1500 H 0.62169 0.21194 0.65711 0.0
C1501 C 0.60689 0.15235 0.63929 0.0
C1502 C 0.61159 0.15023 0.66262 0.0
C1503 C 0.61253 0.16697 0.6269 0.0
C1504 C 0.62477 0.2122 0.63881 0.0
H1505 H 0.61443 0.26725 0.54437 0.0
H1506 H 0.61496 0.23849 0.56242 0.0
H1507 H 0.62446 0.24002 0.63813 0.0
H1508 H 0.62709 0.1608 0.69067 0.0
H1509 H 0.63724 0.18606 0.66893 0.0
H1510 H 0.63121 0.1859 0.592 0.0
C1511 C 0.6216 0.24915 0.57096 0.0
C1512 C 0.62632 0.22833 0.62791 0.0
C1513 C 0.62117 0.26565 0.56071 0.0
C1514 C 0.62312 0.1622 0.67276 0.0
C1515 C 0.62883 0.17673 0.66036 0.0
C1516 C 0.6298 0.19764 0.60223 0.0
C1517 C 0.62999 0.24662 0.59234 0.0
C1518 C 0.62945 0.22937 0.60398 0.0
C1519 C 0.62302 0.17965 0.63761 0.0
C1520 C 0.62631 0.19665 0.62609 0.0
H1521 H 0.64409 0.28812 0.60155 0.0
H1522 H 0.64497 0.25932 0.61935 0.0
H1523 H 0.63401 0.2142 0.57288 0.0
H1524 H 0.59799 0.14332 0.63104 0.0
H1525 H 0.60775 0.16885 0.60943 0.0
C1526 C 0.98127 0.37784 0.80771 0.0
C1527 C 0.96578 0.37954 0.82045 0.0
C1528 C 0.99743 0.37838 0.81887 0.0
C1529 C 0.01855 0.39034 0.87482 0.0
H1530 H 0.05325 0.35653 0.85572 0.0
C1531 C 0.07176 0.36298 0.93446 0.0
C1532 C 0.08847 0.36009 0.92535 0.0
C1533 C 0.05834 0.36903 0.92029 0.0
C1534 C 0.04383 0.36627 0.86099 0.0
H1535 H 0.95497 0.38328 0.85476 0.0
H1536 H 0.98305 0.38367 0.87434 0.0
H1537 H 0.02654 0.35969 0.83336 0.0
H1538 H 0.10452 0.36187 0.89455 0.0
H1539 H 0.08084 0.3722 0.86953 0.0
H1540 H 0.03558 0.3962 0.90318 0.0
C1541 C 0.98285 0.38236 0.85567 0.0
C1542 C 0.0285 0.36811 0.84817 0.0
C1543 C 0.96672 0.38198 0.84449 0.0
C1544 C 0.09174 0.36402 0.902 0.0
C1545 C 0.07821 0.36984 0.88769 0.0
C1546 C 0.0338 0.38836 0.88777 0.0
C1547 C 0.99842 0.38049 0.84303 0.0
C1548 C 0.01549 0.3799 0.85522 0.0
C1549 C 0.06132 0.3721 0.89665 0.0
C1550 C 0.04642 0.37606 0.88123 0.0
H1551 H 0.98093 0.37608 0.78911 0.0
H1552 H 0.00915 0.37715 0.80853 0.0
H1553 H 0.009 0.39984 0.88045 0.0
H1554 H 0.0689 0.36009 0.95242 0.0
H1555 H 0.04542 0.37049 0.92761 0.0
C1556 C 0.85566 0.71609 0.0937 0.0
C1557 C 0.8616 0.71611 0.07069 0.0
C1558 C 0.85449 0.73166 0.10613 0.0
C1559 C 0.8533 0.77966 0.10005 0.0
H1560 H 0.87458 0.77917 0.16091 0.0
C1561 C 0.87821 0.84149 0.14609 0.0
C1562 C 0.87837 0.8419 0.1704 0.0
C1563 C 0.87226 0.82671 0.13437 0.0
C1564 C 0.86822 0.77953 0.14418 0.0
H1565 H 0.87044 0.73246 0.0424 0.0
H1566 H 0.86845 0.75966 0.06416 0.0
H1567 H 0.87157 0.7521 0.13952 0.0
H1568 H 0.87117 0.8278 0.20149 0.0
H1569 H 0.86032 0.80221 0.18105 0.0
H1570 H 0.85022 0.80719 0.1046 0.0
C1571 C 0.86459 0.74763 0.07254 0.0
C1572 C 0.86655 0.76398 0.13188 0.0
C1573 C 0.86585 0.73204 0.06014 0.0
C1574 C 0.87134 0.82778 0.18273 0.0
C1575 C 0.86525 0.81307 0.17101 0.0
C1576 C 0.85488 0.79524 0.11244 0.0
C1577 C 0.85913 0.74757 0.09577 0.0
C1578 C 0.85935 0.7639 0.10953 0.0
C1579 C 0.86623 0.81209 0.14673 0.0
C1580 C 0.86264 0.79541 0.1345 0.0
H1581 H 0.85222 0.704 0.10225 0.0
H1582 H 0.85007 0.73123 0.12394 0.0
H1583 H 0.84749 0.77995 0.08297 0.0
H1584 H 0.88359 0.85217 0.13613 0.0
H1585 H 0.87335 0.8264 0.11568 0.0
C1586 C 0.4262 0.63686 0.43493 0.0
C1587 C 0.40973 0.63772 0.42441 0.0
C1588 C 0.44091 0.63244 0.42199 0.0
C1589 C 0.4576 0.6359 0.36339 0.0
H1590 H 0.49486 0.60637 0.38618 0.0
C1591 C 0.52131 0.62572 0.31172 0.0
C1592 C 0.53686 0.62511 0.32451 0.0
C1593 C 0.50518 0.62542 0.32298 0.0
C1594 C 0.48465 0.6148 0.37966 0.0
H1595 H 0.39555 0.63396 0.39234 0.0
H1596 H 0.42139 0.62636 0.36956 0.0
H1597 H 0.46754 0.60824 0.40766 0.0
H1598 H 0.54779 0.6239 0.35907 0.0
H1599 H 0.51973 0.62394 0.37878 0.0
H1600 H 0.47485 0.64305 0.33592 0.0
C1601 C 0.42287 0.62914 0.38785 0.0
C1602 C 0.46898 0.61576 0.39191 0.0
C1603 C 0.4081 0.63336 0.40089 0.0
C1604 C 0.536 0.62431 0.34876 0.0
C1605 C 0.5199 0.62417 0.36003 0.0
C1606 C 0.47333 0.63506 0.35125 0.0
C1607 C 0.43946 0.62896 0.39819 0.0
C1608 C 0.45538 0.62649 0.38405 0.0
C1609 C 0.50427 0.62465 0.3473 0.0
C1610 C 0.48715 0.62469 0.35941 0.0
H1611 H 0.42783 0.64015 0.45305 0.0
H1612 H 0.45353 0.63254 0.43038 0.0
H1613 H 0.44743 0.64447 0.35711 0.0
H1614 H 0.52159 0.62621 0.29298 0.0
H1615 H 0.49344 0.62557 0.3126 0.0
C1616 C 0.3928 0.17391 0.18843 0.0
C1617 C 0.39637 0.15803 0.1774 0.0
C1618 C 0.38766 0.18841 0.17561 0.0
C1619 C 0.37276 0.2035 0.11766 0.0
H1620 H 0.39475 0.24646 0.13764 0.0
C1621 C 0.37522 0.26738 0.06315 0.0
C1622 C 0.37172 0.28286 0.07528 0.0
C1623 C 0.37674 0.25154 0.07501 0.0
C1624 C 0.38837 0.23461 0.13197 0.0
H1625 H 0.39664 0.14453 0.14448 0.0
H1626 H 0.38812 0.17011 0.12179 0.0
H1627 H 0.39968 0.21985 0.15937 0.0
H1628 H 0.36668 0.29389 0.1092 0.0
H1629 H 0.36947 0.26634 0.12986 0.0
H1630 H 0.36185 0.21847 0.08979 0.0
C1631 C 0.38899 0.17129 0.14043 0.0
C1632 C 0.39112 0.21934 0.14448 0.0
C1633 C 0.3939 0.15665 0.15339 0.0
C1634 C 0.36947 0.28219 0.09939 0.0
C1635 C 0.37112 0.26643 0.11123 0.0
C1636 C 0.37012 0.21884 0.10497 0.0
C1637 C 0.3863 0.18747 0.15137 0.0
C1638 C 0.38323 0.20361 0.13766 0.0
C1639 C 0.37495 0.25098 0.09921 0.0
C1640 C 0.3778 0.23456 0.11216 0.0
H1641 H 0.39439 0.17526 0.20698 0.0
H1642 H 0.38517 0.2005 0.1847 0.0
H1643 H 0.3664 0.19165 0.11199 0.0
H1644 H 0.37696 0.26752 0.04453 0.0
H1645 H 0.3798 0.23984 0.06535 0.0
C1646 C 0.47542 0.62504 0.81064 0.0
C1647 C 0.45993 0.6258 0.82357 0.0
C1648 C 0.4916 0.62477 0.8218 0.0
C1649 C 0.51184 0.61636 0.87921 0.0
H1650 H 0.55 0.64384 0.8546 0.0
C1651 C 0.56985 0.63984 0.93373 0.0
C1652 C 0.58656 0.63953 0.92383 0.0
C1653 C 0.55528 0.63527 0.92065 0.0
C1654 C 0.53956 0.63587 0.86147 0.0
H1655 H 0.44918 0.62711 0.85823 0.0
H1656 H 0.4773 0.62714 0.87767 0.0
H1657 H 0.52268 0.64204 0.83317 0.0
H1658 H 0.60125 0.63371 0.89272 0.0
H1659 H 0.5756 0.6259 0.86963 0.0
H1660 H 0.52857 0.61079 0.90796 0.0
C1661 C 0.47704 0.6263 0.85895 0.0
C1662 C 0.52389 0.63483 0.8492 0.0
C1663 C 0.4609 0.62644 0.84781 0.0
C1664 C 0.58851 0.63402 0.90078 0.0
C1665 C 0.57386 0.62966 0.88756 0.0
C1666 C 0.52745 0.61752 0.89154 0.0
C1667 C 0.49259 0.62535 0.84611 0.0
C1668 C 0.50973 0.62532 0.85814 0.0
C1669 C 0.55709 0.63048 0.89731 0.0
C1670 C 0.54135 0.62753 0.88299 0.0
H1671 H 0.47505 0.62442 0.79191 0.0
H1672 H 0.5033 0.62386 0.81138 0.0
H1673 H 0.50136 0.60858 0.88634 0.0
H1674 H 0.56798 0.64402 0.95147 0.0
H1675 H 0.5425 0.63618 0.92856 0.0
C1676 C 0.12356 0.82659 0.68298 0.0
C1677 C 0.11585 0.84117 0.67251 0.0
C1678 C 0.13066 0.8133 0.66947 0.0
C1679 C 0.14244 0.80067 0.60889 0.0
H1680 H 0.13048 0.75457 0.63135 0.0
C1681 C 0.13538 0.73928 0.55145 0.0
C1682 C 0.14077 0.72323 0.56072 0.0
C1683 C 0.1365 0.7545 0.56466 0.0
C1684 C 0.13422 0.76731 0.62499 0.0
H1685 H 0.11017 0.85376 0.63981 0.0
H1686 H 0.12194 0.83023 0.61607 0.0
H1687 H 0.12468 0.77975 0.65541 0.0
H1688 H 0.1526 0.71068 0.59047 0.0
H1689 H 0.1545 0.73725 0.61355 0.0
H1690 H 0.15116 0.78799 0.57785 0.0
C1691 C 0.12292 0.82918 0.63472 0.0
C1692 C 0.13094 0.78181 0.63884 0.0
C1693 C 0.11608 0.84265 0.6483 0.0
C1694 C 0.14823 0.72284 0.58292 0.0
C1695 C 0.14927 0.73803 0.59616 0.0
C1696 C 0.14557 0.78611 0.59489 0.0
C1697 C 0.12987 0.81412 0.64515 0.0
C1698 C 0.13483 0.79872 0.63092 0.0
C1699 C 0.14295 0.75391 0.58741 0.0
C1700 C 0.14133 0.7693 0.60275 0.0
H1701 H 0.12374 0.82525 0.70165 0.0
H1702 H 0.13634 0.80215 0.67813 0.0
H1703 H 0.14583 0.81346 0.60235 0.0
H1704 H 0.12963 0.73997 0.53435 0.0
H1705 H 0.13143 0.76652 0.55752 0.0
C1706 C 0.92251 0.32259 0.41877 0.0
C1707 C 0.90923 0.33488 0.42224 0.0
C1708 C 0.93728 0.32685 0.40595 0.0
C1709 C 0.95541 0.35932 0.36462 0.0
H1710 H -0.00083 0.33921 0.3851 0.0
C1711 C 0.02413 0.37956 0.33106 0.0
C1712 C 0.03502 0.36568 0.3245 0.0
C1713 C 0.00816 0.37632 0.3419 0.0
C1714 C 0.98702 0.34483 0.37912 0.0
H1715 H 0.90079 0.36122 0.4148 0.0
H1716 H 0.92704 0.369 0.39298 0.0
H1717 H 0.97261 0.33312 0.40658 0.0
H1718 H 0.0377 0.33756 0.32384 0.0
H1719 H 0.00995 0.33192 0.34328 0.0
H1720 H 0.97024 0.37148 0.33753 0.0
C1721 C 0.92586 0.3559 0.39975 0.0
C1722 C 0.97175 0.34128 0.39133 0.0
C1723 C 0.91086 0.3515 0.41233 0.0
C1724 C 0.02957 0.3485 0.32871 0.0
C1725 C 0.01375 0.34528 0.33989 0.0
C1726 C 0.9708 0.3631 0.3526 0.0
C1727 C 0.93935 0.34365 0.39661 0.0
C1728 C 0.95567 0.34825 0.38406 0.0
C1729 C 0.00297 0.35916 0.3467 0.0
C1730 C 0.98668 0.35568 0.35959 0.0
H1731 H 0.92147 0.30957 0.42594 0.0
H1732 H 0.94708 0.31689 0.40335 0.0
H1733 H 0.94328 0.36479 0.35837 0.0
H1734 H 0.02801 0.39294 0.32793 0.0
H1735 H 0.0001 0.38723 0.3471 0.0
C1736 C 0.3969 0.81794 0.31273 0.0
C1737 C 0.39717 0.83442 0.32324 0.0
C1738 C 0.39214 0.80322 0.32537 0.0
C1739 C 0.37131 0.78803 0.37974 0.0
H1740 H 0.3997 0.74712 0.36818 0.0
C1741 C 0.37072 0.72537 0.43684 0.0
C1742 C 0.37078 0.70948 0.42473 0.0
C1743 C 0.37269 0.74114 0.42494 0.0
C1744 C 0.39155 0.75838 0.37146 0.0
H1745 H 0.39209 0.84858 0.35498 0.0
H1746 H 0.38412 0.8227 0.37738 0.0
H1747 H 0.40522 0.7737 0.34655 0.0
H1748 H 0.37248 0.69765 0.3907 0.0
H1749 H 0.37595 0.72508 0.37004 0.0
H1750 H 0.35788 0.77255 0.40505 0.0
C1751 C 0.38735 0.8212 0.35924 0.0
C1752 C 0.39466 0.77362 0.35901 0.0
C1753 C 0.39197 0.83601 0.34646 0.0
C1754 C 0.37247 0.70967 0.40053 0.0
C1755 C 0.37454 0.72537 0.3887 0.0
C1756 C 0.36827 0.77274 0.39235 0.0
C1757 C 0.38776 0.80458 0.34894 0.0
C1758 C 0.38447 0.78858 0.36277 0.0
C1759 C 0.37489 0.74125 0.40078 0.0
C1760 C 0.37825 0.75772 0.38813 0.0
H1761 H 0.40065 0.81636 0.29477 0.0
H1762 H 0.39215 0.7907 0.31672 0.0
H1763 H 0.36316 0.79929 0.38296 0.0
H1764 H 0.36939 0.7256 0.45551 0.0
H1765 H 0.373 0.7532 0.43468 0.0
C1766 C 0.0161 0.61938 0.19053 0.0
C1767 C 0.03161 0.6237 0.17893 0.0
C1768 C 0.00012 0.61983 0.17886 0.0
C1769 C 0.98144 0.61975 0.1197 0.0
H1770 H 0.94143 0.64166 0.14865 0.0
C1771 C 0.92582 0.65008 0.06795 0.0
C1772 C 0.90857 0.64768 0.0754 0.0
C1773 C 0.9397 0.64407 0.08126 0.0
C1774 C 0.95239 0.63521 0.1405 0.0
H1775 H 0.0426 0.63198 0.14614 0.0
H1776 H 0.01481 0.63304 0.12591 0.0
H1777 H 0.96812 0.63727 0.17101 0.0
H1778 H 0.89224 0.6369 0.10248 0.0
H1779 H 0.91676 0.62655 0.12617 0.0
H1780 H 0.96595 0.61832 0.08896 0.0
C1781 C 0.01495 0.62898 0.14388 0.0
C1782 C 0.96768 0.63271 0.15328 0.0
C1783 C 0.03087 0.62853 0.15551 0.0
C1784 C 0.90544 0.63889 0.09634 0.0
C1785 C 0.91942 0.63305 0.10989 0.0
C1786 C 0.96622 0.62233 0.10693 0.0
C1787 C -0.00061 0.62458 0.15536 0.0
C1788 C 0.98252 0.62538 0.14281 0.0
C1789 C 0.93668 0.63565 0.10246 0.0
C1790 C 0.95171 0.6305 0.11702 0.0
H1791 H 0.0163 0.61556 0.20858 0.0
H1792 H 0.98839 0.61627 0.18814 0.0
H1793 H 0.9925 0.61367 0.11129 0.0
H1794 H 0.92863 0.65678 0.05186 0.0
H1795 H 0.95286 0.64648 0.07524 0.0
C1796 C 0.13004 0.28511 0.90642 0.0
C1797 C 0.12573 0.28561 0.93004 0.0
C1798 C 0.12984 0.26937 0.89435 0.0
C1799 C 0.13127 0.22169 0.90108 0.0
H1800 H 0.10741 0.22199 0.84193 0.0
C1801 C 0.11124 0.15907 0.85111 0.0
C1802 C 0.11089 0.15999 0.82684 0.0
C1803 C 0.11546 0.17384 0.8642 0.0
C1804 C 0.11443 0.22169 0.8582 0.0
H1805 H 0.11825 0.26999 0.95972 0.0
H1806 H 0.11789 0.24238 0.93851 0.0
H1807 H 0.10995 0.24884 0.86388 0.0
H1808 H 0.11604 0.17646 0.79714 0.0
H1809 H 0.12405 0.20194 0.81982 0.0
H1810 H 0.13573 0.19444 0.89531 0.0
C1811 C 0.12148 0.25419 0.92941 0.0
C1812 C 0.11581 0.2371 0.87082 0.0
C1813 C 0.12157 0.26999 0.94148 0.0
C1814 C 0.11601 0.17547 0.81586 0.0
C1815 C 0.12045 0.19011 0.82887 0.0
C1816 C 0.12999 0.20622 0.88833 0.0
C1817 C 0.12542 0.25377 0.90565 0.0
C1818 C 0.12424 0.23728 0.89237 0.0
C1819 C 0.11957 0.18969 0.85318 0.0
C1820 C 0.12156 0.20606 0.8667 0.0
H1821 H 0.13338 0.29692 0.89716 0.0
H1822 H 0.13314 0.26941 0.87611 0.0
H1823 H 0.13795 0.2215 0.9176 0.0
H1824 H 0.10727 0.14728 0.85998 0.0
H1825 H 0.11458 0.17307 0.88288 0.0
C1826 C 0.57353 0.35817 0.57161 0.0
C1827 C 0.58972 0.35422 0.58163 0.0
C1828 C 0.55958 0.36355 0.58534 0.0
C1829 C 0.54232 0.35816 0.64343 0.0
H1830 H 0.50923 0.39343 0.62394 0.0
C1831 C 0.47867 0.37163 0.6942 0.0
C1832 C 0.46362 0.37436 0.68083 0.0
C1833 C 0.49511 0.37121 0.68374 0.0
C1834 C 0.51827 0.38345 0.62954 0.0
H1835 H 0.60426 0.35338 0.61377 0.0
H1836 H 0.57968 0.36265 0.63798 0.0
H1837 H 0.53652 0.38987 0.6028 0.0
H1838 H 0.45394 0.37873 0.64606 0.0
H1839 H 0.4825 0.37758 0.62773 0.0
H1840 H 0.52384 0.35125 0.66959 0.0
C1841 C 0.57785 0.36157 0.61944 0.0
C1842 C 0.53394 0.38149 0.6175 0.0
C1843 C 0.59191 0.35638 0.6056 0.0
C1844 C 0.46531 0.37665 0.65682 0.0
C1845 C 0.48172 0.37615 0.64636 0.0
C1846 C 0.52659 0.36004 0.65539 0.0
C1847 C 0.56147 0.36494 0.60945 0.0
C1848 C 0.54597 0.3686 0.62404 0.0
C1849 C 0.49683 0.37344 0.65967 0.0
C1850 C 0.51421 0.37248 0.6483 0.0
H1851 H 0.57147 0.35664 0.55316 0.0
H1852 H 0.54709 0.36588 0.57716 0.0
H1853 H 0.55125 0.34797 0.64869 0.0
H1854 H 0.47777 0.36992 0.71278 0.0
H1855 H 0.50648 0.36928 0.69455 0.0
C1856 C 0.1049 0.43774 0.28872 0.0
C1857 C 0.08994 0.42833 0.28232 0.0
C1858 C 0.10686 0.45519 0.28198 0.0
C1859 C 0.08089 0.49289 0.2618 0.0
H1860 H 0.12441 0.50998 0.23619 0.0
C1861 C 0.08236 0.5554 0.20952 0.0
C1862 C 0.09427 0.56814 0.21688 0.0
C1863 C 0.08395 0.53824 0.21708 0.0
C1864 C 0.11225 0.50537 0.24348 0.0
H1865 H 0.06536 0.42975 0.26383 0.0
H1866 H 0.06882 0.45984 0.25199 0.0
H1867 H 0.12287 0.48028 0.25193 0.0
H1868 H 0.11793 0.57266 0.23651 0.0
H1869 H 0.12075 0.5424 0.24968 0.0
H1870 H 0.07012 0.51767 0.25297 0.0
C1871 C 0.07893 0.45398 0.26251 0.0
C1872 C 0.11137 0.48845 0.25257 0.0
C1873 C 0.07699 0.43667 0.26921 0.0
C1874 C 0.10855 0.5631 0.23059 0.0
C1875 C 0.11018 0.54582 0.23813 0.0
C1876 C 0.08173 0.50963 0.25261 0.0
C1877 C 0.09384 0.46348 0.26883 0.0
C1878 C 0.09555 0.48193 0.26138 0.0
C1879 C 0.09749 0.53342 0.23212 0.0
C1880 C 0.09729 0.51593 0.24293 0.0
H1881 H 0.11512 0.4316 0.29876 0.0
H1882 H 0.11845 0.46221 0.28721 0.0
H1883 H 0.06864 0.48843 0.26901 0.0
H1884 H 0.07131 0.55885 0.19878 0.0
H1885 H 0.07418 0.52883 0.21183 0.0
C1886 C 0.80861 0.83211 0.53314 0.0
C1887 C 0.82152 0.8449 0.53047 0.0
C1888 C 0.79113 0.83619 0.52967 0.0
C1889 C 0.76292 0.86383 0.49608 0.0
H1890 H 0.72741 0.84487 0.53671 0.0
C1891 C 0.68846 0.86157 0.47359 0.0
C1892 C 0.68104 0.84507 0.47751 0.0
C1893 C 0.70532 0.86531 0.48165 0.0
C1894 C 0.73716 0.85031 0.52523 0.0
H1895 H 0.82635 0.87205 0.5224 0.0
H1896 H 0.79547 0.87915 0.5157 0.0
H1897 H 0.75777 0.84503 0.54916 0.0
H1898 H 0.68553 0.8195 0.49245 0.0
H1899 H 0.71463 0.82596 0.50624 0.0
H1900 H 0.74232 0.86825 0.47163 0.0
C1901 C 0.79901 0.86603 0.52075 0.0
C1902 C 0.75451 0.85045 0.53239 0.0
C1903 C 0.81659 0.862 0.52468 0.0
C1904 C 0.69081 0.83237 0.48924 0.0
C1905 C 0.70746 0.83612 0.49734 0.0
C1906 C 0.74549 0.86364 0.48885 0.0
C1907 C 0.78615 0.8531 0.52313 0.0
C1908 C 0.76763 0.85657 0.51754 0.0
C1909 C 0.71484 0.85266 0.49393 0.0
C1910 C 0.73258 0.8562 0.503 0.0
H1911 H 0.81205 0.81884 0.53761 0.0
H1912 H 0.78152 0.82592 0.53133 0.0
H1913 H 0.77283 0.86856 0.48428 0.0
H1914 H 0.6812 0.8716 0.46461 0.0
H1915 H 0.71075 0.87815 0.4787 0.0
C1916 C 0.41867 0.44206 0.72272 0.0
C1917 C 0.40455 0.43065 0.71985 0.0
C1918 C 0.41588 0.45948 0.72827 0.0
C1919 C 0.3849 0.48862 0.7566 0.0
H1920 H 0.41507 0.52401 0.7303 0.0
C1921 C 0.38539 0.56311 0.78103 0.0
C1922 C 0.40225 0.56975 0.78479 0.0
C1923 C 0.38314 0.54606 0.77281 0.0
C1924 C 0.40654 0.51427 0.73779 0.0
H1925 H 0.37637 0.42854 0.72017 0.0
H1926 H 0.37144 0.45928 0.73002 0.0
H1927 H 0.41538 0.49466 0.71433 0.0
H1928 H 0.42982 0.56345 0.78438 0.0
H1929 H 0.42587 0.53392 0.77017 0.0
H1930 H 0.37634 0.50839 0.78039 0.0
C1931 C 0.38468 0.45462 0.72798 0.0
C1932 C 0.40671 0.49748 0.72865 0.0
C1933 C 0.38749 0.4371 0.72221 0.0
C1934 C 0.41668 0.55878 0.78145 0.0
C1935 C 0.41443 0.5419 0.77318 0.0
C1936 C 0.38466 0.50554 0.76571 0.0
C1937 C 0.39888 0.46595 0.73118 0.0
C1938 C 0.39635 0.48432 0.73845 0.0
C1939 C 0.39772 0.53555 0.76811 0.0
C1940 C 0.39593 0.51833 0.75685 0.0
H1941 H 0.43197 0.43745 0.72106 0.0
H1942 H 0.42711 0.46779 0.73098 0.0
H1943 H 0.37681 0.47871 0.76455 0.0
H1944 H 0.37405 0.57131 0.78345 0.0
H1945 H 0.37011 0.54139 0.76912 0.0
C1946 C 0.81216 0.13287 0.96707 0.0
C1947 C 0.81673 0.14863 0.95627 0.0
C1948 C 0.79467 0.12919 0.97206 0.0
C1949 C 0.74949 0.14296 0.95854 0.0
H1950 H 0.73993 0.13357 0.02333 0.0
C1951 C 0.68877 0.16829 0.00295 0.0
C1952 C 0.67897 0.15708 0.01708 0.0
C1953 C 0.70495 0.16315 0.99448 0.0
C1954 C 0.74238 0.13582 0.0051 0.0
H1955 H 0.8067 0.17242 0.94106 0.0
H1956 H 0.77635 0.16599 0.94947 0.0
H1957 H 0.76978 0.1311 0.00867 0.0
H1958 H 0.67863 0.13185 0.03399 0.0
H1959 H 0.70742 0.12295 0.01943 0.0
H1960 H 0.72231 0.14862 0.95523 0.0
C1961 C 0.78613 0.15643 0.95412 0.0
C1962 C 0.75943 0.13437 0.99668 0.0
C1963 C 0.80354 0.16019 0.94943 0.0
C1964 C 0.68594 0.14075 0.02313 0.0
C1965 C 0.70233 0.13565 0.01481 0.0
C1966 C 0.73253 0.14445 0.96694 0.0
C1967 C 0.78153 0.1411 0.96595 0.0
C1968 C 0.76323 0.13865 0.97354 0.0
C1969 C 0.7118 0.14672 5e-05 0.0
C1970 C 0.72895 0.14161 0.99048 0.0
H1971 H 0.82213 0.12377 0.97258 0.0
H1972 H 0.79146 0.11726 0.98113 0.0
H1973 H 0.752 0.14601 0.94053 0.0
H1974 H 0.6838 0.18097 0.998 0.0
H1975 H 0.71215 0.17208 0.98354 0.0
C1976 C 0.91831 0.43887 0.76057 0.0
C1977 C 0.9055 0.429 0.77192 0.0
C1978 C 0.91441 0.45527 0.75174 0.0
C1979 C 0.88594 0.49276 0.75722 0.0
H1980 H 0.90515 0.50358 0.69673 0.0
C1981 C 0.88696 0.56278 0.7184 0.0
C1982 C 0.90403 0.56782 0.71263 0.0
C1983 C 0.88313 0.54524 0.72286 0.0
C1984 C 0.89956 0.50071 0.71353 0.0
H1985 H 0.87863 0.42877 0.78357 0.0
H1986 H 0.87182 0.45789 0.76823 0.0
H1987 H 0.90576 0.47364 0.71085 0.0
H1988 H 0.93026 0.55858 0.70602 0.0
H1989 H 0.92354 0.52809 0.71331 0.0
H1990 H 0.88045 0.52009 0.7602 0.0
C1991 C 0.88486 0.45272 0.76611 0.0
C1992 C 0.89994 0.48362 0.72164 0.0
C1993 C 0.88876 0.43612 0.77489 0.0
C1994 C 0.917 0.55505 0.71046 0.0
C1995 C 0.91312 0.53759 0.71449 0.0
C1996 C 0.88552 0.50995 0.74905 0.0
C1997 C 0.8976 0.46227 0.75406 0.0
C1998 C 0.89384 0.47961 0.74395 0.0
C1999 C 0.89624 0.53253 0.72109 0.0
C2000 C 0.893 0.51414 0.72753 0.0
H2001 H 0.93137 0.43382 0.75811 0.0
H2002 H 0.92462 0.46251 0.74303 0.0
H2003 H 0.88114 0.49001 0.77447 0.0
H2004 H 0.87676 0.57244 0.72029 0.0
H2005 H 0.87002 0.54164 0.72793 0.0
C2006 C 0.31136 0.14297 0.52894 0.0
C2007 C 0.32076 0.15424 0.5144 0.0
C2008 C 0.29475 0.13715 0.52248 0.0
C2009 C 0.26454 0.13419 0.47212 0.0
H2010 H 0.22836 0.14056 0.5182 0.0
C2011 C 0.19433 0.15322 0.45012 0.0
C2012 C 0.18062 0.14716 0.46406 0.0
C2013 C 0.21153 0.14869 0.45517 0.0
C2014 C 0.2383 0.13831 0.50522 0.0
H2015 H 0.32048 0.16775 0.4814 0.0
H2016 H 0.29166 0.15782 0.47032 0.0
H2017 H 0.25884 0.14241 0.52966 0.0
H2018 H 0.17403 0.13076 0.49338 0.0
H2019 H 0.20417 0.12288 0.50226 0.0
H2020 H 0.24393 0.13096 0.44748 0.0
C2021 C 0.29706 0.15326 0.48655 0.0
C2022 C 0.25579 0.13936 0.51181 0.0
C2023 C 0.31354 0.15911 0.49303 0.0
C2024 C 0.18435 0.13568 0.48237 0.0
C2025 C 0.20159 0.13123 0.48753 0.0
C2026 C 0.24705 0.13319 0.46553 0.0
C2027 C 0.28735 0.1424 0.5013 0.0
C2028 C 0.26909 0.13793 0.49518 0.0
C2029 C 0.21539 0.13807 0.47435 0.0
C2030 C 0.23375 0.13583 0.48187 0.0
H2031 H 0.31667 0.13896 0.54549 0.0
H2032 H 0.28762 0.12871 0.53415 0.0
H2033 H 0.2745 0.13267 0.45899 0.0
H2034 H 0.19184 0.16207 0.43588 0.0
H2035 H 0.22187 0.15433 0.44482 0.0
C2036 C 0.57876 0.55909 0.2779 0.0
C2037 C 0.59336 0.56985 0.28103 0.0
C2038 C 0.58073 0.54208 0.27001 0.0
C2039 C 0.61081 0.50553 0.26303 0.0
H2040 H 0.5782 0.49268 0.2146 0.0
C2041 C 0.60834 0.43644 0.22114 0.0
C2042 C 0.59146 0.42935 0.22025 0.0
C2043 C 0.61077 0.45406 0.22661 0.0
C2044 C 0.58739 0.49605 0.22811 0.0
H2045 H 0.62157 0.57101 0.27946 0.0
H2046 H 0.62503 0.54094 0.26556 0.0
H2047 H 0.57853 0.52242 0.22917 0.0
H2048 H 0.56392 0.43512 0.22398 0.0
H2049 H 0.56813 0.46566 0.23338 0.0
H2050 H 0.61931 0.47888 0.26229 0.0
C2051 C 0.61207 0.54581 0.26924 0.0
C2052 C 0.58756 0.51306 0.23648 0.0
C2053 C 0.61009 0.56297 0.27719 0.0
C2054 C 0.57709 0.44021 0.22446 0.0
C2055 C 0.5795 0.45775 0.22973 0.0
C2056 C 0.61061 0.4884 0.25464 0.0
C2057 C 0.59734 0.5354 0.26498 0.0
C2058 C 0.59889 0.51786 0.25449 0.0
C2059 C 0.59634 0.46486 0.231 0.0
C2060 C 0.59853 0.4834 0.23757 0.0
H2061 H 0.5657 0.56396 0.28096 0.0
H2062 H 0.56916 0.5342 0.26743 0.0
H2063 H 0.61968 0.5089 0.2769 0.0
H2064 H 0.61965 0.42831 0.21806 0.0
H2065 H 0.62389 0.45924 0.22739 0.0
C2066 C 0.18686 0.83329 0.00724 0.0
C2067 C 0.17722 0.84327 0.02307 0.0
C2068 C 0.20266 0.83935 -0.00138 0.0
C2069 C 0.23985 0.86644 0.01134 0.0
H2070 H 0.24938 0.85858 0.94618 0.0
C2071 C 0.30964 0.8696 0.97254 0.0
C2072 C 0.31389 0.85372 0.96181 0.0
C2073 C 0.29224 0.87352 0.97784 0.0
C2074 C 0.24688 0.86106 0.96434 0.0
H2075 H 0.1767 0.86737 0.04263 0.0
H2076 H 0.20488 0.87792 0.02775 0.0
H2077 H 0.21963 0.85589 0.96066 0.0
H2078 H 0.30342 0.82996 0.94709 0.0
H2079 H 0.27319 0.83691 0.95581 0.0
H2080 H 0.26734 0.87067 0.01516 0.0
C2081 C 0.19994 0.86544 0.02193 0.0
C2082 C 0.22989 0.8595 0.97264 0.0
C2083 C 0.18389 0.85941 0.03044 0.0
C2084 C 0.30049 0.84228 0.95539 0.0
C2085 C 0.28317 0.84632 0.96026 0.0
C2086 C 0.25692 0.86804 0.003 0.0
C2087 C 0.20932 0.85553 0.00569 0.0
C2088 C 0.22635 0.86135 0.99638 0.0
C2089 C 0.27889 0.86179 0.97196 0.0
C2090 C 0.26067 0.86455 0.97961 0.0
H2091 H 0.18213 0.82078 0.00122 0.0
H2092 H 0.20978 0.83124 0.98653 0.0
H2093 H 0.23747 0.86792 0.02972 0.0
H2094 H 0.31979 0.87859 0.97777 0.0
H2095 H 0.28925 0.88552 0.98688 0.0
C2096 C 0.61508 0.93398 0.7775 0.0
C2097 C 0.59945 0.92968 0.78885 0.0
C2098 C 0.61858 0.95129 0.77139 0.0
C2099 C 0.60428 0.99688 0.7816 0.0
H2100 H 0.61382 0.00357 0.71622 0.0
C2101 C 0.58046 0.0567 0.73324 0.0
C2102 C 0.59204 0.06558 0.71855 0.0
C2103 C 0.58493 0.04058 0.74253 0.0
C2104 C 0.61148 0.00193 0.73459 0.0
H2105 H 0.57582 0.94009 0.80403 0.0
H2106 H 0.58193 0.97015 0.79365 0.0
H2107 H 0.61632 0.97446 0.73319 0.0
H2108 H 0.61714 0.06424 0.70139 0.0
H2109 H 0.62486 0.0356 0.71744 0.0
H2110 H 0.5986 0.02415 0.78277 0.0
C2111 C 0.59152 0.96029 0.78942 0.0
C2112 C 0.61297 0.9853 0.74433 0.0
C2113 C 0.58795 0.94304 0.79526 0.0
C2114 C 0.60796 0.05766 0.71264 0.0
C2115 C 0.61239 0.04134 0.72184 0.0
C2116 C 0.60274 0.01343 0.77186 0.0
C2117 C 0.60662 0.96456 0.77686 0.0
C2118 C 0.60874 0.98251 0.76775 0.0
C2119 C 0.60105 0.03286 0.73728 0.0
C2120 C 0.60567 0.01599 0.7481 0.0
H2121 H 0.62413 0.92388 0.7723 0.0
H2122 H 0.63037 0.95424 0.76184 0.0
H2123 H 0.60126 0.99519 0.79978 0.0
H2124 H 0.56807 0.06241 0.73808 0.0
H2125 H 0.57577 0.03414 0.75398 0.0
C2126 C 0.31186 0.36201 0.02993 0.0
C2127 C 0.31685 0.34533 0.03747 0.0
C2128 C 0.29431 0.36566 0.02524 0.0
C2129 C 0.24966 0.34958 0.03607 0.0
H2130 H 0.23896 0.3666 0.97443 0.0
C2131 C 0.18708 0.33095 0.99024 0.0
C2132 C 0.17739 0.34386 0.97881 0.0
C2133 C 0.20368 0.33459 -0.00134 0.0
C2134 C 0.24173 0.36217 0.99185 0.0
H2135 H 0.30749 0.31964 0.04693 0.0
H2136 H 0.27704 0.32601 0.03908 0.0
H2137 H 0.26908 0.36736 0.98849 0.0
H2138 H 0.17765 0.37058 0.96658 0.0
H2139 H 0.20709 0.37689 0.98114 0.0
H2140 H 0.22253 0.34366 0.03912 0.0
C2141 C 0.28655 0.3363 0.03677 0.0
C2142 C 0.25893 0.36263 -9e-05 0.0
C2143 C 0.30401 0.33261 0.04113 0.0
C2144 C 0.18487 0.36039 0.97533 0.0
C2145 C 0.20165 0.364 0.98365 0.0
C2146 C 0.23255 0.3491 0.02803 0.0
C2147 C 0.28153 0.35275 0.02844 0.0
C2148 C 0.26312 0.35571 0.02176 0.0
C2149 C 0.21104 0.35119 0.99579 0.0
C2150 C 0.22853 0.35475 0.00553 0.0
H2151 H 0.32155 0.37202 0.02689 0.0
H2152 H 0.29076 0.37845 0.01887 0.0
H2153 H 0.25248 0.34446 0.05314 0.0
H2154 H 0.18173 0.31806 0.99311 0.0
H2155 H 0.21078 0.32434 0.00748 0.0
C2156 C 0.91854 0.05942 0.24439 0.0
C2157 C 0.9087 0.06821 0.26123 0.0
C2158 C 0.91305 0.04338 0.23581 0.0
C2159 C 0.88729 0.00501 0.25004 0.0
H2160 H 0.89317 0.99528 0.18458 0.0
C2161 C 0.87947 0.9355 0.21401 0.0
C2162 C 0.89398 0.93011 0.201 0.0
C2163 C 0.87683 0.95318 0.21877 0.0
C2164 C 0.89138 0.99781 0.20288 0.0
H2165 H 0.88543 0.06704 0.28247 0.0
H2166 H 0.87587 0.03865 0.26757 0.0
H2167 H 0.89714 0.02492 0.19889 0.0
H2168 H 0.91642 0.93898 0.18148 0.0
H2169 H 0.91184 0.96971 0.18967 0.0
H2170 H 0.88227 0.97775 0.25418 0.0
C2171 C 0.88783 0.04431 0.26102 0.0
C2172 C 0.89368 0.01476 0.21107 0.0
C2173 C 0.89329 0.06051 0.26954 0.0
C2174 C 0.90514 0.94275 0.19158 0.0
C2175 C 0.90244 0.96039 0.19618 0.0
C2176 C 0.88501 0.98802 0.24183 0.0
C2177 C 0.8976 0.03568 0.2439 0.0
C2178 C 0.89226 0.01841 0.23484 0.0
C2179 C 0.88857 0.96576 0.21041 0.0
C2180 C 0.88763 0.98414 0.21828 0.0
H2181 H 0.93048 0.06499 0.23765 0.0
H2182 H 0.92105 0.03688 0.22299 0.0
H2183 H 0.88618 0.00743 0.26846 0.0
H2184 H 0.87065 0.92602 0.22149 0.0
H2185 H 0.86593 0.95696 0.22958 0.0
C2186 C 0.31087 0.63164 0.46986 0.0
C2187 C 0.31611 0.64714 0.45891 0.0
C2188 C 0.29316 0.62836 0.47386 0.0
C2189 C 0.24894 0.6405 0.4558 0.0
H2190 H 0.23626 0.63693 0.52064 0.0
C2191 C 0.18387 0.66551 0.48921 0.0
C2192 C 0.17548 0.65733 0.50788 0.0
C2193 C 0.20023 0.65994 0.48188 0.0
C2194 C 0.2395 0.63747 0.50241 0.0
H2195 H 0.30711 0.67088 0.4425 0.0
H2196 H 0.27625 0.66492 0.44883 0.0
H2197 H 0.2668 0.63427 0.50919 0.0
H2198 H 0.1775 0.63665 0.53329 0.0
H2199 H 0.20628 0.62672 0.52029 0.0
H2200 H 0.22181 0.64408 0.44892 0.0
C2201 C 0.28575 0.65539 0.45451 0.0
C2202 C 0.257 0.63597 0.49587 0.0
C2203 C 0.3034 0.65884 0.45099 0.0
C2204 C 0.18371 0.64323 0.51889 0.0
C2205 C 0.20018 0.63759 0.51148 0.0
C2206 C 0.23146 0.64179 0.46226 0.0
C2207 C 0.28049 0.64033 0.46642 0.0
C2208 C 0.26191 0.63815 0.47263 0.0
C2209 C 0.20865 0.64595 0.49292 0.0
C2210 C 0.22662 0.64106 0.48575 0.0
H2211 H 0.32046 0.62247 0.47626 0.0
H2212 H 0.28938 0.61667 0.4831 0.0
H2213 H 0.25241 0.64202 0.43773 0.0
H2214 H 0.1779 0.67645 0.48039 0.0
H2215 H 0.20649 0.66698 0.46791 0.0
C2216 C 0.39053 0.0611 0.22697 0.0
C2217 C 0.40748 0.06767 0.2301 0.0
C2218 C 0.38606 0.04458 0.23554 0.0
C2219 C 0.39958 0.013 0.27988 0.0
H2220 H 0.38086 0.97706 0.2398 0.0
C2221 C 0.41612 0.94146 0.29053 0.0
C2222 C 0.40343 0.92862 0.2867 0.0
C2223 C 0.41224 0.95898 0.28701 0.0
C2224 C 0.38568 0.98705 0.25139 0.0
H2225 H 0.43308 0.06201 0.24423 0.0
H2226 H 0.4253 0.03348 0.2591 0.0
H2227 H 0.38213 0.00727 0.22613 0.0
H2228 H 0.3766 0.92398 0.27676 0.0
H2229 H 0.36985 0.9549 0.27011 0.0
H2230 H 0.40394 0.99278 0.3047 0.0
C2231 C 0.4154 0.04107 0.25029 0.0
C2232 C 0.38643 0.00431 0.24355 0.0
C2233 C 0.41989 0.05737 0.24158 0.0
C2234 C 0.38658 0.93367 0.27993 0.0
C2235 C 0.38275 0.95129 0.27603 0.0
C2236 C 0.39882 0.99583 0.28769 0.0
C2237 C 0.39842 0.03459 0.24764 0.0
C2238 C 0.3941 0.01726 0.25738 0.0
C2239 C 0.39563 0.96408 0.27932 0.0
C2240 C 0.39257 0.98257 0.27316 0.0
H2241 H 0.38071 0.06879 0.21818 0.0
H2242 H 0.37289 0.0398 0.23318 0.0
H2243 H 0.40523 0.02283 0.29105 0.0
H2244 H 0.42921 0.93793 0.29576 0.0
H2245 H 0.42252 0.9685 0.28938 0.0
C2246 C 0.8114 0.63705 0.02572 0.0
C2247 C 0.81887 0.65262 0.01757 0.0
C2248 C 0.795 0.63169 0.01768 0.0
C2249 C 0.76436 0.63852 0.9691 0.0
H2250 H 0.7278 0.62826 0.0134 0.0
C2251 C 0.69324 0.65563 0.95391 0.0
C2252 C 0.68001 0.64445 0.96167 0.0
C2253 C 0.71068 0.65172 0.95817 0.0
C2254 C 0.73794 0.63068 0.00075 0.0
H2255 H 0.8151 0.67473 0.99468 0.0
H2256 H 0.78676 0.66547 0.98083 0.0
H2257 H 0.75802 0.63053 0.02657 0.0
H2258 H 0.67455 0.62013 0.97932 0.0
H2259 H 0.70528 0.61338 0.9872 0.0
H2260 H 0.74424 0.63958 0.9435 0.0
C2261 C 0.79353 0.65727 0.99317 0.0
C2262 C 0.75523 0.63199 0.00829 0.0
C2263 C 0.80972 0.66266 0.0013 0.0
C2264 C 0.68455 0.62892 0.97308 0.0
C2265 C 0.70207 0.62511 0.97768 0.0
C2266 C 0.74714 0.63724 0.96159 0.0
C2267 C 0.786 0.64171 0.00115 0.0
C2268 C 0.76848 0.63666 0.99268 0.0
C2269 C 0.71527 0.63662 0.97052 0.0
C2270 C 0.73367 0.63402 0.97749 0.0
H2271 H 0.81819 0.62905 0.03826 0.0
H2272 H 0.78945 0.61967 0.02417 0.0
H2273 H 0.77438 0.64176 0.9566 0.0
H2274 H 0.6901 0.66769 0.94507 0.0
H2275 H 0.72053 0.66096 0.95271 0.0
C2276 C 0.11319 0.06204 0.77987 0.0
C2277 C 0.09612 0.0687 0.78011 0.0
C2278 C 0.11637 0.045 0.77214 0.0
C2279 C 0.09695 0.01244 0.73371 0.0
H2280 H 0.12282 0.97749 0.76794 0.0
C2281 C 0.08372 0.94012 0.72366 0.0
C2282 C 0.09769 0.92837 0.72241 0.0
C2283 C 0.08667 0.95765 0.72841 0.0
C2284 C 0.11588 0.98723 0.75797 0.0
H2285 H 0.06895 0.06253 0.77363 0.0
H2286 H 0.07447 0.03306 0.76033 0.0
H2287 H 0.12226 0.00774 0.78183 0.0
H2288 H 0.12575 0.92567 0.72509 0.0
H2289 H 0.13091 0.95661 0.73386 0.0
H2290 H 0.09001 0.992 0.71035 0.0
C2291 C 0.08543 0.041 0.76568 0.0
C2292 C 0.11553 0.00447 0.76593 0.0
C2293 C 0.08227 0.05785 0.77346 0.0
C2294 C 0.11476 0.93452 0.72586 0.0
C2295 C 0.1177 0.95213 0.73097 0.0
C2296 C 0.0973 0.99531 0.7258 0.0
C2297 C 0.10252 0.03453 0.76439 0.0
C2298 C 0.1055 0.01705 0.75431 0.0
C2299 C 0.10365 0.96384 0.73225 0.0
C2300 C 0.10622 0.98241 0.7383 0.0
H2301 H 0.12411 0.07015 0.78491 0.0
H2302 H 0.12966 0.04025 0.7714 0.0
H2303 H 0.08944 0.02199 0.72414 0.0
H2304 H 0.07043 0.93576 0.7211 0.0
H2305 H 0.07556 0.96632 0.72963 0.0
C2306 C 0.68887 0.32997 0.51412 0.0
C2307 C 0.6793 0.34201 0.52729 0.0
C2308 C 0.7052 0.33432 0.50539 0.0
C2309 C 0.74351 0.36049 0.51406 0.0
H2310 H 0.75242 0.3475 0.45021 0.0
C2311 C 0.81331 0.35714 0.47514 0.0
C2312 C 0.81661 0.34044 0.46615 0.0
C2313 C 0.79618 0.36235 0.48002 0.0
C2314 C 0.75011 0.35139 0.46798 0.0
H2315 H 0.67955 0.36792 0.54225 0.0
H2316 H 0.70866 0.37543 0.52727 0.0
H2317 H 0.72265 0.3472 0.46502 0.0
H2318 H 0.80473 0.3165 0.45407 0.0
H2319 H 0.77502 0.32562 0.46209 0.0
H2320 H 0.77119 0.36364 0.51734 0.0
C2321 C 0.70324 0.3627 0.52357 0.0
C2322 C 0.73311 0.35121 0.47645 0.0
C2323 C 0.68667 0.35839 0.53215 0.0
C2324 C 0.80254 0.32943 0.46102 0.0
C2325 C 0.78552 0.33471 0.46548 0.0
C2326 C 0.76062 0.36064 0.50557 0.0
C2327 C 0.71246 0.35078 0.50974 0.0
C2328 C 0.72975 0.35497 0.49982 0.0
C2329 C 0.78215 0.35106 0.47546 0.0
C2330 C 0.76412 0.3553 0.48274 0.0
H2331 H 0.68361 0.31722 0.5101 0.0
H2332 H 0.71219 0.32475 0.49519 0.0
H2333 H 0.74124 0.36344 0.53215 0.0
H2334 H 0.82398 0.36582 0.47935 0.0
H2335 H 0.79391 0.37502 0.48772 0.0
loop_
_geom_bond_atom_site_label_1
_geom_bond_atom_site_label_2
_geom_bond_distance
_geom_bond_site_symmetry_2
_ccdc_geom_bond_type
In0 O1 2.294 . S
In0 O2 2.326 . S
In0 O6 2.266 . S
In0 O7 2.326 . S
In0 O8 2.266 . S
In0 O9 2.326 . S
In0 O11 2.294 . S
In0 O12 2.326 . S
O1 In0 2.294 . S
O1 C10 1.240 . S
O2 In0 2.326 . S
O2 C10 1.252 . S
C3 O6 1.252 . S
C3 O7 1.260 . S
C4 O11 1.240 . S
C4 O12 1.252 . S
C5 O8 1.252 . S
C5 O9 1.260 . S
O6 In0 2.266 . S
O6 C3 1.252 . S
O7 In0 2.326 . S
O7 C3 1.260 . S
O8 In0 2.266 . S
O8 C5 1.252 . S
O9 In0 2.326 . S
O9 C5 1.260 . S
C10 O1 1.240 . S
C10 O2 1.252 . S
O11 In0 2.294 . S
O11 C4 1.240 . S
O12 In0 2.326 . S
O12 C4 1.252 . S
In13 O14 2.294 . S
In13 O15 2.326 . S
In13 O19 2.266 . S
In13 O20 2.326 . S
In13 O21 2.266 . S
In13 O22 2.326 . S
In13 O24 2.294 . S
In13 O25 2.326 . S
O14 In13 2.294 . S
O14 C23 1.240 . S
O15 In13 2.326 . S
O15 C23 1.252 . S
C16 O19 1.252 . S
C16 O20 1.260 . S
C17 O24 1.240 . S
C17 O25 1.252 . S
C18 O21 1.252 . S
C18 O22 1.260 . S
O19 In13 2.266 . S
O19 C16 1.252 . S
O20 In13 2.326 . S
O20 C16 1.260 . S
O21 In13 2.266 . S
O21 C18 1.252 . S
O22 In13 2.326 . S
O22 C18 1.260 . S
C23 O14 1.240 . S
C23 O15 1.252 . S
O24 In13 2.294 . S
O24 C17 1.240 . S
O25 In13 2.326 . S
O25 C17 1.252 . S
In26 O27 2.294 . S
In26 O28 2.326 . S
In26 O32 2.266 . S
In26 O33 2.326 . S
In26 O34 2.266 . S
In26 O35 2.326 . S
In26 O37 2.294 . S
In26 O38 2.326 . S
O27 In26 2.294 . S
O27 C36 1.240 . S
O28 In26 2.326 . S
O28 C36 1.252 . S
C29 O32 1.252 . S
C29 O33 1.260 . S
C30 O37 1.240 . S
C30 O38 1.252 . S
C31 O34 1.252 . S
C31 O35 1.260 . S
O32 In26 2.266 . S
O32 C29 1.252 . S
O33 In26 2.326 . S
O33 C29 1.260 . S
O34 In26 2.266 . S
O34 C31 1.252 . S
O35 In26 2.326 . S
O35 C31 1.260 . S
C36 O27 1.240 . S
C36 O28 1.252 . S
O37 In26 2.294 . S
O37 C30 1.240 . S
O38 In26 2.326 . S
O38 C30 1.252 . S
In39 O40 2.294 . S
In39 O41 2.326 . S
In39 O45 2.266 . S
In39 O46 2.326 . S
In39 O47 2.266 . S
In39 O48 2.326 . S
In39 O50 2.294 . S
In39 O51 2.326 . S
O40 In39 2.294 . S
O40 C49 1.240 . S
O41 In39 2.326 . S
O41 C49 1.252 . S
C42 O45 1.252 . S
C42 O46 1.260 . S
C43 O50 1.240 1_556 S
C43 O51 1.252 1_556 S
C44 O47 1.252 . S
C44 O48 1.260 . S
O45 In39 2.266 . S
O45 C42 1.252 . S
O46 In39 2.326 . S
O46 C42 1.260 . S
O47 In39 2.266 . S
O47 C44 1.252 . S
O48 In39 2.326 . S
O48 C44 1.260 . S
C49 O40 1.240 . S
C49 O41 1.252 . S
O50 In39 2.294 . S
O50 C43 1.240 1_554 S
O51 In39 2.326 . S
O51 C43 1.252 1_554 S
In52 O53 2.294 . S
In52 O54 2.326 . S
In52 O58 2.266 . S
In52 O59 2.326 . S
In52 O60 2.266 . S
In52 O61 2.326 . S
In52 O63 2.294 . S
In52 O64 2.326 . S
O53 In52 2.294 . S
O53 C62 1.240 . S
O54 In52 2.326 . S
O54 C62 1.252 . S
C55 O58 1.252 . S
C55 O59 1.260 . S
C56 O63 1.240 . S
C56 O64 1.252 . S
C57 O60 1.252 . S
C57 O61 1.260 . S
O58 In52 2.266 . S
O58 C55 1.252 . S
O59 In52 2.326 . S
O59 C55 1.260 . S
O60 In52 2.266 . S
O60 C57 1.252 . S
O61 In52 2.326 . S
O61 C57 1.260 . S
C62 O53 1.240 . S
C62 O54 1.252 . S
O63 In52 2.294 . S
O63 C56 1.240 . S
O64 In52 2.326 . S
O64 C56 1.252 . S
In65 O66 2.294 . S
In65 O67 2.326 . S
In65 O71 2.266 . S
In65 O72 2.326 . S
In65 O73 2.266 . S
In65 O74 2.326 . S
In65 O76 2.294 . S
In65 O77 2.326 . S
O66 In65 2.294 . S
O66 C75 1.240 . S
O67 In65 2.326 . S
O67 C75 1.252 . S
C68 O71 1.252 . S
C68 O72 1.260 . S
C69 O76 1.240 . S
C69 O77 1.252 . S
C70 O73 1.252 . S
C70 O74 1.260 . S
O71 In65 2.266 . S
O71 C68 1.252 . S
O72 In65 2.326 . S
O72 C68 1.260 . S
O73 In65 2.266 . S
O73 C70 1.252 . S
O74 In65 2.326 . S
O74 C70 1.260 . S
C75 O66 1.240 . S
C75 O67 1.252 . S
O76 In65 2.294 . S
O76 C69 1.240 . S
O77 In65 2.326 . S
O77 C69 1.252 . S
In78 O79 2.294 . S
In78 O80 2.326 . S
In78 O84 2.266 . S
In78 O85 2.326 . S
In78 O86 2.266 . S
In78 O87 2.326 . S
In78 O89 2.294 . S
In78 O90 2.326 . S
O79 In78 2.294 . S
O79 C88 1.240 . S
O80 In78 2.326 . S
O80 C88 1.252 . S
C81 O84 1.252 . S
C81 O85 1.260 . S
C82 O89 1.240 . S
C82 O90 1.252 . S
C83 O86 1.252 . S
C83 O87 1.260 . S
O84 In78 2.266 . S
O84 C81 1.252 . S
O85 In78 2.326 . S
O85 C81 1.260 . S
O86 In78 2.266 . S
O86 C83 1.252 . S
O87 In78 2.326 . S
O87 C83 1.260 . S
C88 O79 1.240 . S
C88 O80 1.252 . S
O89 In78 2.294 . S
O89 C82 1.240 . S
O90 In78 2.326 . S
O90 C82 1.252 . S
In91 O92 2.294 . S
In91 O93 2.326 . S
In91 O97 2.266 . S
In91 O98 2.326 . S
In91 O99 2.266 . S
In91 O100 2.326 . S
In91 O102 2.294 . S
In91 O103 2.326 . S
O92 In91 2.294 . S
O92 C101 1.240 1_556 S
O93 In91 2.326 . S
O93 C101 1.252 1_556 S
C94 O97 1.252 . S
C94 O98 1.260 . S
C95 O102 1.240 . S
C95 O103 1.252 . S
C96 O99 1.252 . S
C96 O100 1.260 . S
O97 In91 2.266 . S
O97 C94 1.252 . S
O98 In91 2.326 . S
O98 C94 1.260 . S
O99 In91 2.266 . S
O99 C96 1.252 . S
O100 In91 2.326 . S
O100 C96 1.260 . S
C101 O92 1.240 1_554 S
C101 O93 1.252 1_554 S
O102 In91 2.294 . S
O102 C95 1.240 . S
O103 In91 2.326 . S
O103 C95 1.252 . S
In104 O105 2.294 . S
In104 O106 2.326 . S
In104 O110 2.266 . S
In104 O111 2.326 . S
In104 O112 2.266 . S
In104 O113 2.326 . S
In104 O115 2.294 . S
In104 O116 2.326 . S
O105 In104 2.294 . S
O105 C114 1.240 . S
O106 In104 2.326 . S
O106 C114 1.252 . S
C107 O110 1.252 . S
C107 O111 1.260 . S
C108 O115 1.240 . S
C108 O116 1.252 . S
C109 O112 1.252 . S
C109 O113 1.260 . S
O110 In104 2.266 . S
O110 C107 1.252 . S
O111 In104 2.326 . S
O111 C107 1.260 . S
O112 In104 2.266 . S
O112 C109 1.252 . S
O113 In104 2.326 . S
O113 C109 1.260 . S
C114 O105 1.240 . S
C114 O106 1.252 . S
O115 In104 2.294 . S
O115 C108 1.240 . S
O116 In104 2.326 . S
O116 C108 1.252 . S
In117 O118 2.294 . S
In117 O119 2.326 . S
In117 O123 2.266 . S
In117 O124 2.326 . S
In117 O125 2.266 . S
In117 O126 2.326 . S
In117 O128 2.294 . S
In117 O129 2.326 . S
O118 In117 2.294 . S
O118 C127 1.240 . S
O119 In117 2.326 . S
O119 C127 1.252 . S
C120 O123 1.252 . S
C120 O124 1.260 . S
C121 O128 1.240 . S
C121 O129 1.252 . S
C122 O125 1.252 . S
C122 O126 1.260 . S
O123 In117 2.266 . S
O123 C120 1.252 . S
O124 In117 2.326 . S
O124 C120 1.260 . S
O125 In117 2.266 . S
O125 C122 1.252 . S
O126 In117 2.326 . S
O126 C122 1.260 . S
C127 O118 1.240 . S
C127 O119 1.252 . S
O128 In117 2.294 . S
O128 C121 1.240 . S
O129 In117 2.326 . S
O129 C121 1.252 . S
In130 O131 2.294 . S
In130 O132 2.326 . S
In130 O136 2.266 . S
In130 O137 2.326 . S
In130 O138 2.266 . S
In130 O139 2.326 . S
In130 O141 2.294 . S
In130 O142 2.326 . S
O131 In130 2.294 . S
O131 C140 1.240 . S
O132 In130 2.326 . S
O132 C140 1.252 . S
C133 O136 1.252 . S
C133 O137 1.260 . S
C134 O141 1.240 . S
C134 O142 1.252 . S
C135 O138 1.252 . S
C135 O139 1.260 . S
O136 In130 2.266 . S
O136 C133 1.252 . S
O137 In130 2.326 . S
O137 C133 1.260 . S
O138 In130 2.266 . S
O138 C135 1.252 . S
O139 In130 2.326 . S
O139 C135 1.260 . S
C140 O131 1.240 . S
C140 O132 1.252 . S
O141 In130 2.294 . S
O141 C134 1.240 . S
O142 In130 2.326 . S
O142 C134 1.252 . S
In143 O144 2.294 . S
In143 O145 2.326 . S
In143 O149 2.266 . S
In143 O150 2.326 . S
In143 O151 2.266 . S
In143 O152 2.326 . S
In143 O154 2.294 . S
In143 O155 2.326 . S
O144 In143 2.294 . S
O144 C153 1.240 1_556 S
O145 In143 2.326 . S
O145 C153 1.252 1_556 S
C146 O149 1.252 . S
C146 O150 1.260 . S
C147 O154 1.240 . S
C147 O155 1.252 . S
C148 O151 1.252 . S
C148 O152 1.260 . S
O149 In143 2.266 . S
O149 C146 1.252 . S
O150 In143 2.326 . S
O150 C146 1.260 . S
O151 In143 2.266 . S
O151 C148 1.252 . S
O152 In143 2.326 . S
O152 C148 1.260 . S
C153 O144 1.240 1_554 S
C153 O145 1.252 1_554 S
O154 In143 2.294 . S
O154 C147 1.240 . S
O155 In143 2.326 . S
O155 C147 1.252 . S
In156 O157 2.294 . S
In156 O158 2.326 . S
In156 O162 2.266 . S
In156 O163 2.326 . S
In156 O164 2.266 . S
In156 O165 2.326 . S
In156 O167 2.294 . S
In156 O168 2.326 . S
O157 In156 2.294 . S
O157 C166 1.240 . S
O158 In156 2.326 . S
O158 C166 1.252 . S
C159 O162 1.252 . S
C159 O163 1.260 . S
C160 O167 1.240 . S
C160 O168 1.252 . S
C161 O164 1.252 . S
C161 O165 1.260 . S
O162 In156 2.266 . S
O162 C159 1.252 . S
O163 In156 2.326 . S
O163 C159 1.260 . S
O164 In156 2.266 . S
O164 C161 1.252 . S
O165 In156 2.326 . S
O165 C161 1.260 . S
C166 O157 1.240 . S
C166 O158 1.252 . S
O167 In156 2.294 . S
O167 C160 1.240 . S
O168 In156 2.326 . S
O168 C160 1.252 . S
In169 O170 2.294 . S
In169 O171 2.326 . S
In169 O175 2.266 . S
In169 O176 2.326 . S
In169 O177 2.266 . S
In169 O178 2.326 . S
In169 O180 2.294 . S
In169 O181 2.326 . S
O170 In169 2.294 . S
O170 C179 1.240 . S
O171 In169 2.326 . S
O171 C179 1.252 . S
C172 O175 1.252 . S
C172 O176 1.260 . S
C173 O180 1.240 . S
C173 O181 1.252 . S
C174 O177 1.252 . S
C174 O178 1.260 . S
O175 In169 2.266 . S
O175 C172 1.252 . S
O176 In169 2.326 . S
O176 C172 1.260 . S
O177 In169 2.266 . S
O177 C174 1.252 . S
O178 In169 2.326 . S
O178 C174 1.260 . S
C179 O170 1.240 . S
C179 O171 1.252 . S
O180 In169 2.294 . S
O180 C173 1.240 . S
O181 In169 2.326 . S
O181 C173 1.252 . S
In182 O183 2.294 . S
In182 O184 2.326 . S
In182 O188 2.266 . S
In182 O189 2.326 . S
In182 O190 2.266 . S
In182 O191 2.326 . S
In182 O193 2.294 . S
In182 O194 2.326 . S
O183 In182 2.294 . S
O183 C192 1.240 . S
O184 In182 2.326 . S
O184 C192 1.252 . S
C185 O188 1.252 . S
C185 O189 1.260 . S
C186 O193 1.240 . S
C186 O194 1.252 . S
C187 O190 1.252 . S
C187 O191 1.260 . S
O188 In182 2.266 . S
O188 C185 1.252 . S
O189 In182 2.326 . S
O189 C185 1.260 . S
O190 In182 2.266 . S
O190 C187 1.252 . S
O191 In182 2.326 . S
O191 C187 1.260 . S
C192 O183 1.240 . S
C192 O184 1.252 . S
O193 In182 2.294 . S
O193 C186 1.240 . S
O194 In182 2.326 . S
O194 C186 1.252 . S
In195 O196 2.294 . S
In195 O197 2.326 . S
In195 O201 2.266 . S
In195 O202 2.326 . S
In195 O203 2.266 . S
In195 O204 2.326 . S
In195 O206 2.294 . S
In195 O207 2.326 . S
O196 In195 2.294 . S
O196 C205 1.240 1_554 S
O197 In195 2.326 . S
O197 C205 1.252 1_554 S
C198 O201 1.252 . S
C198 O202 1.260 . S
C199 O206 1.240 . S
C199 O207 1.252 . S
C200 O203 1.252 . S
C200 O204 1.260 . S
O201 In195 2.266 . S
O201 C198 1.252 . S
O202 In195 2.326 . S
O202 C198 1.260 . S
O203 In195 2.266 . S
O203 C200 1.252 . S
O204 In195 2.326 . S
O204 C200 1.260 . S
C205 O196 1.240 1_556 S
C205 O197 1.252 1_556 S
O206 In195 2.294 . S
O206 C199 1.240 . S
O207 In195 2.326 . S
O207 C199 1.252 . S
In208 O209 2.294 . S
In208 O210 2.326 . S
In208 O214 2.266 . S
In208 O215 2.326 . S
In208 O216 2.266 . S
In208 O217 2.326 . S
In208 O219 2.294 . S
In208 O220 2.326 . S
O209 In208 2.294 . S
O209 C218 1.240 . S
O210 In208 2.326 . S
O210 C218 1.252 . S
C211 O214 1.252 . S
C211 O215 1.260 . S
C212 O219 1.240 . S
C212 O220 1.252 . S
C213 O216 1.252 . S
C213 O217 1.260 . S
O214 In208 2.266 . S
O214 C211 1.252 . S
O215 In208 2.326 . S
O215 C211 1.260 . S
O216 In208 2.266 . S
O216 C213 1.252 . S
O217 In208 2.326 . S
O217 C213 1.260 . S
C218 O209 1.240 . S
C218 O210 1.252 . S
O219 In208 2.294 . S
O219 C212 1.240 . S
O220 In208 2.326 . S
O220 C212 1.252 . S
In221 O222 2.294 . S
In221 O223 2.326 . S
In221 O227 2.266 . S
In221 O228 2.326 . S
In221 O229 2.266 . S
In221 O230 2.326 . S
In221 O232 2.294 . S
In221 O233 2.326 . S
O222 In221 2.294 . S
O222 C231 1.240 1_554 S
O223 In221 2.326 . S
O223 C231 1.252 1_554 S
C224 O227 1.252 . S
C224 O228 1.260 . S
C225 O232 1.240 . S
C225 O233 1.252 . S
C226 O229 1.252 . S
C226 O230 1.260 . S
O227 In221 2.266 . S
O227 C224 1.252 . S
O228 In221 2.326 . S
O228 C224 1.260 . S
O229 In221 2.266 . S
O229 C226 1.252 . S
O230 In221 2.326 . S
O230 C226 1.260 . S
C231 O222 1.240 1_556 S
C231 O223 1.252 1_556 S
O232 In221 2.294 . S
O232 C225 1.240 . S
O233 In221 2.326 . S
O233 C225 1.252 . S
In234 O235 2.294 . S
In234 O236 2.326 . S
In234 O240 2.266 . S
In234 O241 2.326 . S
In234 O242 2.266 . S
In234 O243 2.326 . S
In234 O245 2.294 . S
In234 O246 2.326 . S
O235 In234 2.294 . S
O235 C244 1.240 . S
O236 In234 2.326 . S
O236 C244 1.252 . S
C237 O240 1.252 . S
C237 O241 1.260 . S
C238 O245 1.240 . S
C238 O246 1.252 . S
C239 O242 1.252 . S
C239 O243 1.260 . S
O240 In234 2.266 . S
O240 C237 1.252 . S
O241 In234 2.326 . S
O241 C237 1.260 . S
O242 In234 2.266 . S
O242 C239 1.252 . S
O243 In234 2.326 . S
O243 C239 1.260 . S
C244 O235 1.240 . S
C244 O236 1.252 . S
O245 In234 2.294 . S
O245 C238 1.240 . S
O246 In234 2.326 . S
O246 C238 1.252 . S
In247 O248 2.294 . S
In247 O249 2.326 . S
In247 O253 2.266 . S
In247 O254 2.326 . S
In247 O255 2.266 . S
In247 O256 2.326 . S
In247 O258 2.294 . S
In247 O259 2.326 . S
O248 In247 2.294 . S
O248 C257 1.240 . S
O249 In247 2.326 . S
O249 C257 1.252 . S
C250 O253 1.252 . S
C250 O254 1.260 . S
C251 O258 1.240 . S
C251 O259 1.252 . S
C252 O255 1.252 . S
C252 O256 1.260 . S
O253 In247 2.266 . S
O253 C250 1.252 . S
O254 In247 2.326 . S
O254 C250 1.260 . S
O255 In247 2.266 . S
O255 C252 1.252 . S
O256 In247 2.326 . S
O256 C252 1.260 . S
C257 O248 1.240 . S
C257 O249 1.252 . S
O258 In247 2.294 . S
O258 C251 1.240 . S
O259 In247 2.326 . S
O259 C251 1.252 . S
In260 O261 2.294 . S
In260 O262 2.326 . S
In260 O266 2.266 . S
In260 O267 2.326 . S
In260 O268 2.266 . S
In260 O269 2.326 . S
In260 O271 2.294 . S
In260 O272 2.326 . S
O261 In260 2.294 . S
O261 C270 1.240 . S
O262 In260 2.326 . S
O262 C270 1.252 . S
C263 O266 1.252 . S
C263 O267 1.260 . S
C264 O271 1.240 . S
C264 O272 1.252 . S
C265 O268 1.252 . S
C265 O269 1.260 . S
O266 In260 2.266 . S
O266 C263 1.252 . S
O267 In260 2.326 . S
O267 C263 1.260 . S
O268 In260 2.266 . S
O268 C265 1.252 . S
O269 In260 2.326 . S
O269 C265 1.260 . S
C270 O261 1.240 . S
C270 O262 1.252 . S
O271 In260 2.294 . S
O271 C264 1.240 . S
O272 In260 2.326 . S
O272 C264 1.252 . S
In273 O274 2.294 . S
In273 O275 2.326 . S
In273 O279 2.266 . S
In273 O280 2.326 . S
In273 O281 2.266 . S
In273 O282 2.326 . S
In273 O284 2.294 . S
In273 O285 2.326 . S
O274 In273 2.294 . S
O274 C283 1.240 1_556 S
O275 In273 2.326 . S
O275 C283 1.252 1_556 S
C276 O279 1.252 . S
C276 O280 1.260 . S
C277 O284 1.240 . S
C277 O285 1.252 . S
C278 O281 1.252 . S
C278 O282 1.260 . S
O279 In273 2.266 . S
O279 C276 1.252 . S
O280 In273 2.326 . S
O280 C276 1.260 . S
O281 In273 2.266 . S
O281 C278 1.252 . S
O282 In273 2.326 . S
O282 C278 1.260 . S
C283 O274 1.240 1_554 S
C283 O275 1.252 1_554 S
O284 In273 2.294 . S
O284 C277 1.240 . S
O285 In273 2.326 . S
O285 C277 1.252 . S
In286 O287 2.294 . S
In286 O288 2.326 . S
In286 O292 2.266 . S
In286 O293 2.326 . S
In286 O294 2.266 . S
In286 O295 2.326 . S
In286 O297 2.294 . S
In286 O298 2.326 . S
O287 In286 2.294 . S
O287 C296 1.240 . S
O288 In286 2.326 . S
O288 C296 1.252 . S
C289 O292 1.252 . S
C289 O293 1.260 . S
C290 O297 1.240 . S
C290 O298 1.252 . S
C291 O294 1.252 . S
C291 O295 1.260 . S
O292 In286 2.266 . S
O292 C289 1.252 . S
O293 In286 2.326 . S
O293 C289 1.260 . S
O294 In286 2.266 . S
O294 C291 1.252 . S
O295 In286 2.326 . S
O295 C291 1.260 . S
C296 O287 1.240 . S
C296 O288 1.252 . S
O297 In286 2.294 . S
O297 C290 1.240 . S
O298 In286 2.326 . S
O298 C290 1.252 . S
In299 O300 2.294 . S
In299 O301 2.326 . S
In299 O305 2.266 . S
In299 O306 2.326 . S
In299 O307 2.266 . S
In299 O308 2.326 . S
In299 O310 2.294 . S
In299 O311 2.326 . S
O300 In299 2.294 . S
O300 C309 1.240 . S
O301 In299 2.326 . S
O301 C309 1.252 . S
C302 O305 1.252 . S
C302 O306 1.260 . S
C303 O310 1.240 . S
C303 O311 1.252 . S
C304 O307 1.252 . S
C304 O308 1.260 . S
O305 In299 2.266 . S
O305 C302 1.252 . S
O306 In299 2.326 . S
O306 C302 1.260 . S
O307 In299 2.266 . S
O307 C304 1.252 . S
O308 In299 2.326 . S
O308 C304 1.260 . S
C309 O300 1.240 . S
C309 O301 1.252 . S
O310 In299 2.294 . S
O310 C303 1.240 . S
O311 In299 2.326 . S
O311 C303 1.252 . S
In312 O313 2.294 . S
In312 O314 2.326 . S
In312 O318 2.266 . S
In312 O319 2.326 . S
In312 O320 2.266 . S
In312 O321 2.326 . S
In312 O323 2.294 . S
In312 O324 2.326 . S
O313 In312 2.294 . S
O313 C322 1.240 . S
O314 In312 2.326 . S
O314 C322 1.252 . S
C315 O318 1.252 . S
C315 O319 1.260 . S
C316 O323 1.240 . S
C316 O324 1.252 . S
C317 O320 1.252 . S
C317 O321 1.260 . S
O318 In312 2.266 . S
O318 C315 1.252 . S
O319 In312 2.326 . S
O319 C315 1.260 . S
O320 In312 2.266 . S
O320 C317 1.252 . S
O321 In312 2.326 . S
O321 C317 1.260 . S
C322 O313 1.240 . S
C322 O314 1.252 . S
O323 In312 2.294 . S
O323 C316 1.240 . S
O324 In312 2.326 . S
O324 C316 1.252 . S
In325 O326 2.294 . S
In325 O327 2.326 . S
In325 O331 2.266 . S
In325 O332 2.326 . S
In325 O333 2.266 . S
In325 O334 2.326 . S
In325 O336 2.294 . S
In325 O337 2.326 . S
O326 In325 2.294 . S
O326 C335 1.240 1_556 S
O327 In325 2.326 . S
O327 C335 1.252 1_556 S
C328 O331 1.252 . S
C328 O332 1.260 . S
C329 O336 1.240 . S
C329 O337 1.252 . S
C330 O333 1.252 . S
C330 O334 1.260 . S
O331 In325 2.266 . S
O331 C328 1.252 . S
O332 In325 2.326 . S
O332 C328 1.260 . S
O333 In325 2.266 . S
O333 C330 1.252 . S
O334 In325 2.326 . S
O334 C330 1.260 . S
C335 O326 1.240 1_554 S
C335 O327 1.252 1_554 S
O336 In325 2.294 . S
O336 C329 1.240 . S
O337 In325 2.326 . S
O337 C329 1.252 . S
In338 O339 2.294 . S
In338 O340 2.326 . S
In338 O344 2.266 . S
In338 O345 2.326 . S
In338 O346 2.266 . S
In338 O347 2.326 . S
In338 O349 2.294 . S
In338 O350 2.326 . S
O339 In338 2.294 . S
O339 C348 1.240 . S
O340 In338 2.326 . S
O340 C348 1.252 . S
C341 O344 1.252 . S
C341 O345 1.260 . S
C342 O349 1.240 . S
C342 O350 1.252 . S
C343 O346 1.252 . S
C343 O347 1.260 . S
O344 In338 2.266 . S
O344 C341 1.252 . S
O345 In338 2.326 . S
O345 C341 1.260 . S
O346 In338 2.266 . S
O346 C343 1.252 . S
O347 In338 2.326 . S
O347 C343 1.260 . S
C348 O339 1.240 . S
C348 O340 1.252 . S
O349 In338 2.294 . S
O349 C342 1.240 . S
O350 In338 2.326 . S
O350 C342 1.252 . S
In351 O352 2.294 . S
In351 O353 2.326 . S
In351 O357 2.266 . S
In351 O358 2.326 . S
In351 O359 2.266 . S
In351 O360 2.326 . S
In351 O362 2.294 . S
In351 O363 2.326 . S
O352 In351 2.294 . S
O352 C361 1.240 . S
O353 In351 2.326 . S
O353 C361 1.252 . S
C354 O357 1.252 . S
C354 O358 1.260 . S
C355 O362 1.240 . S
C355 O363 1.252 . S
C356 O359 1.252 . S
C356 O360 1.260 . S
O357 In351 2.266 . S
O357 C354 1.252 . S
O358 In351 2.326 . S
O358 C354 1.260 . S
O359 In351 2.266 . S
O359 C356 1.252 . S
O360 In351 2.326 . S
O360 C356 1.260 . S
C361 O352 1.240 . S
C361 O353 1.252 . S
O362 In351 2.294 . S
O362 C355 1.240 . S
O363 In351 2.326 . S
O363 C355 1.252 . S
In364 O365 2.294 . S
In364 O366 2.326 . S
In364 O370 2.266 . S
In364 O371 2.326 . S
In364 O372 2.266 . S
In364 O373 2.326 . S
In364 O375 2.294 . S
In364 O376 2.326 . S
O365 In364 2.294 . S
O365 C374 1.240 . S
O366 In364 2.326 . S
O366 C374 1.252 . S
C367 O370 1.252 . S
C367 O371 1.260 . S
C368 O375 1.240 . S
C368 O376 1.252 . S
C369 O372 1.252 . S
C369 O373 1.260 . S
O370 In364 2.266 . S
O370 C367 1.252 . S
O371 In364 2.326 . S
O371 C367 1.260 . S
O372 In364 2.266 . S
O372 C369 1.252 . S
O373 In364 2.326 . S
O373 C369 1.260 . S
C374 O365 1.240 . S
C374 O366 1.252 . S
O375 In364 2.294 . S
O375 C368 1.240 . S
O376 In364 2.326 . S
O376 C368 1.252 . S
In377 O378 2.294 . S
In377 O379 2.326 . S
In377 O383 2.266 . S
In377 O384 2.326 . S
In377 O385 2.266 . S
In377 O386 2.326 . S
In377 O388 2.294 . S
In377 O389 2.326 . S
O378 In377 2.294 . S
O378 C387 1.240 1_554 S
O379 In377 2.326 . S
O379 C387 1.252 1_554 S
C380 O383 1.252 . S
C380 O384 1.260 . S
C381 O388 1.240 . S
C381 O389 1.252 . S
C382 O385 1.252 . S
C382 O386 1.260 . S
O383 In377 2.266 . S
O383 C380 1.252 . S
O384 In377 2.326 . S
O384 C380 1.260 . S
O385 In377 2.266 . S
O385 C382 1.252 . S
O386 In377 2.326 . S
O386 C382 1.260 . S
C387 O378 1.240 1_556 S
C387 O379 1.252 1_556 S
O388 In377 2.294 . S
O388 C381 1.240 . S
O389 In377 2.326 . S
O389 C381 1.252 . S
In390 O391 2.294 . S
In390 O392 2.326 . S
In390 O396 2.266 . S
In390 O397 2.326 . S
In390 O398 2.266 . S
In390 O399 2.326 . S
In390 O401 2.294 . S
In390 O402 2.326 . S
O391 In390 2.294 . S
O391 C400 1.240 . S
O392 In390 2.326 . S
O392 C400 1.252 . S
C393 O396 1.252 . S
C393 O397 1.260 . S
C394 O401 1.240 . S
C394 O402 1.252 . S
C395 O398 1.252 . S
C395 O399 1.260 . S
O396 In390 2.266 . S
O396 C393 1.252 . S
O397 In390 2.326 . S
O397 C393 1.260 . S
O398 In390 2.266 . S
O398 C395 1.252 . S
O399 In390 2.326 . S
O399 C395 1.260 . S
C400 O391 1.240 . S
C400 O392 1.252 . S
O401 In390 2.294 . S
O401 C394 1.240 . S
O402 In390 2.326 . S
O402 C394 1.252 . S
In403 O404 2.294 . S
In403 O405 2.326 . S
In403 O409 2.266 . S
In403 O410 2.326 . S
In403 O411 2.266 . S
In403 O412 2.326 . S
In403 O414 2.294 . S
In403 O415 2.326 . S
O404 In403 2.294 . S
O404 C413 1.240 . S
O405 In403 2.326 . S
O405 C413 1.252 . S
C406 O409 1.252 . S
C406 O410 1.260 . S
C407 O414 1.240 . S
C407 O415 1.252 . S
C408 O411 1.252 . S
C408 O412 1.260 . S
O409 In403 2.266 . S
O409 C406 1.252 . S
O410 In403 2.326 . S
O410 C406 1.260 . S
O411 In403 2.266 . S
O411 C408 1.252 . S
O412 In403 2.326 . S
O412 C408 1.260 . S
C413 O404 1.240 . S
C413 O405 1.252 . S
O414 In403 2.294 . S
O414 C407 1.240 . S
O415 In403 2.326 . S
O415 C407 1.252 . S
C416 C417 1.349 . S
C416 C418 1.327 . S
C416 H441 0.950 . S
C417 C416 1.349 . S
C417 C433 1.349 . S
C418 C416 1.327 . S
C418 C437 1.429 . S
C418 H442 0.950 . S
C419 C436 1.574 . S
C419 C438 1.368 . S
C419 H443 0.949 . S
H420 C424 0.949 . S
C421 C422 1.349 . S
C421 C423 1.327 . S
C421 H444 0.950 . S
C422 C421 1.349 . S
C422 C434 1.349 . S
C423 C421 1.327 . S
C423 C439 1.429 . S
C423 H445 0.950 . S
C424 H420 0.949 . S
C424 C432 1.574 . S
C424 C440 1.368 . S
H425 C433 0.950 . S
H426 C431 0.950 . S
H427 C432 0.949 . S
H428 C434 0.950 . S
H429 C435 0.950 . S
H430 C436 0.949 . S
C431 H426 0.950 . S
C431 C433 1.327 . S
C431 C437 1.429 . S
C432 C424 1.574 . S
C432 H427 0.949 . S
C432 C438 1.368 . S
C433 C417 1.349 . S
C433 H425 0.950 . S
C433 C431 1.327 . S
C434 C422 1.349 . S
C434 H428 0.950 . S
C434 C435 1.327 . S
C435 H429 0.950 . S
C435 C434 1.327 . S
C435 C439 1.429 . S
C436 C419 1.574 . S
C436 H430 0.949 . S
C436 C440 1.368 . S
C437 C418 1.429 . S
C437 C431 1.429 . S
C437 C438 1.523 . S
C438 C419 1.368 . S
C438 C432 1.368 . S
C438 C437 1.523 . S
C439 C423 1.429 . S
C439 C435 1.429 . S
C439 C440 1.523 . S
C440 C424 1.368 . S
C440 C436 1.368 . S
C440 C439 1.523 . S
H441 C416 0.950 . S
H442 C418 0.950 . S
H443 C419 0.949 . S
H444 C421 0.950 . S
H445 C423 0.950 . S
C446 C447 1.349 . S
C446 C448 1.327 . S
C446 H471 0.950 . S
C447 C446 1.349 . S
C447 C463 1.349 . S
C448 C446 1.327 . S
C448 C467 1.429 . S
C448 H472 0.950 . S
C449 C466 1.574 . S
C449 C468 1.368 . S
C449 H473 0.949 . S
H450 C454 0.949 . S
C451 C452 1.349 . S
C451 C453 1.327 . S
C451 H474 0.950 . S
C452 C451 1.349 . S
C452 C464 1.349 . S
C453 C451 1.327 . S
C453 C469 1.429 . S
C453 H475 0.950 . S
C454 H450 0.949 . S
C454 C462 1.574 . S
C454 C470 1.368 . S
H455 C463 0.950 . S
H456 C461 0.950 . S
H457 C462 0.949 . S
H458 C464 0.950 . S
H459 C465 0.950 . S
H460 C466 0.949 . S
C461 H456 0.950 . S
C461 C463 1.327 . S
C461 C467 1.429 . S
C462 C454 1.574 . S
C462 H457 0.949 . S
C462 C468 1.368 . S
C463 C447 1.349 . S
C463 H455 0.950 . S
C463 C461 1.327 . S
C464 C452 1.349 . S
C464 H458 0.950 . S
C464 C465 1.327 . S
C465 H459 0.950 . S
C465 C464 1.327 . S
C465 C469 1.429 . S
C466 C449 1.574 . S
C466 H460 0.949 . S
C466 C470 1.368 . S
C467 C448 1.429 . S
C467 C461 1.429 . S
C467 C468 1.523 . S
C468 C449 1.368 . S
C468 C462 1.368 . S
C468 C467 1.523 . S
C469 C453 1.429 . S
C469 C465 1.429 . S
C469 C470 1.523 . S
C470 C454 1.368 . S
C470 C466 1.368 . S
C470 C469 1.523 . S
H471 C446 0.950 . S
H472 C448 0.950 . S
H473 C449 0.949 . S
H474 C451 0.950 . S
H475 C453 0.950 . S
C476 C477 1.349 . S
C476 C478 1.327 . S
C476 H501 0.950 . S
C477 C476 1.349 . S
C477 C493 1.349 . S
C478 C476 1.327 . S
C478 C497 1.429 . S
C478 H502 0.950 . S
C479 C496 1.574 . S
C479 C498 1.368 . S
C479 H503 0.949 . S
H480 C484 0.949 . S
C481 C482 1.349 . S
C481 C483 1.327 . S
C481 H504 0.950 . S
C482 C481 1.349 . S
C482 C494 1.349 . S
C483 C481 1.327 . S
C483 C499 1.429 . S
C483 H505 0.950 . S
C484 H480 0.949 . S
C484 C492 1.574 . S
C484 C500 1.368 . S
H485 C493 0.950 . S
H486 C491 0.950 . S
H487 C492 0.949 . S
H488 C494 0.950 . S
H489 C495 0.950 . S
H490 C496 0.949 . S
C491 H486 0.950 . S
C491 C493 1.327 . S
C491 C497 1.429 . S
C492 C484 1.574 . S
C492 H487 0.949 . S
C492 C498 1.368 . S
C493 C477 1.349 . S
C493 H485 0.950 . S
C493 C491 1.327 . S
C494 C482 1.349 . S
C494 H488 0.950 . S
C494 C495 1.327 . S
C495 H489 0.950 . S
C495 C494 1.327 . S
C495 C499 1.429 . S
C496 C479 1.574 . S
C496 H490 0.949 . S
C496 C500 1.368 . S
C497 C478 1.429 . S
C497 C491 1.429 . S
C497 C498 1.523 . S
C498 C479 1.368 . S
C498 C492 1.368 . S
C498 C497 1.523 . S
C499 C483 1.429 . S
C499 C495 1.429 . S
C499 C500 1.523 . S
C500 C484 1.368 . S
C500 C496 1.368 . S
C500 C499 1.523 . S
H501 C476 0.950 . S
H502 C478 0.950 . S
H503 C479 0.949 . S
H504 C481 0.950 . S
H505 C483 0.950 . S
C506 C507 1.349 . S
C506 C508 1.327 . S
C506 H531 0.950 . S
C507 C506 1.349 . S
C507 C523 1.349 . S
C508 C506 1.327 . S
C508 C527 1.429 . S
C508 H532 0.950 . S
C509 C526 1.574 . S
C509 C528 1.368 . S
C509 H533 0.949 . S
H510 C514 0.949 . S
C511 C512 1.349 . S
C511 C513 1.327 . S
C511 H534 0.950 . S
C512 C511 1.349 . S
C512 C524 1.349 . S
C513 C511 1.327 . S
C513 C529 1.429 . S
C513 H535 0.950 . S
C514 H510 0.949 . S
C514 C522 1.574 . S
C514 C530 1.368 . S
H515 C523 0.950 . S
H516 C521 0.950 . S
H517 C522 0.949 . S
H518 C524 0.950 . S
H519 C525 0.950 . S
H520 C526 0.949 . S
C521 H516 0.950 . S
C521 C523 1.327 . S
C521 C527 1.429 . S
C522 C514 1.574 . S
C522 H517 0.949 . S
C522 C528 1.368 . S
C523 C507 1.349 . S
C523 H515 0.950 . S
C523 C521 1.327 . S
C524 C512 1.349 . S
C524 H518 0.950 . S
C524 C525 1.327 . S
C525 H519 0.950 . S
C525 C524 1.327 . S
C525 C529 1.429 . S
C526 C509 1.574 . S
C526 H520 0.949 . S
C526 C530 1.368 . S
C527 C508 1.429 . S
C527 C521 1.429 . S
C527 C528 1.523 . S
C528 C509 1.368 . S
C528 C522 1.368 . S
C528 C527 1.523 . S
C529 C513 1.429 . S
C529 C525 1.429 . S
C529 C530 1.523 . S
C530 C514 1.368 . S
C530 C526 1.368 . S
C530 C529 1.523 . S
H531 C506 0.950 . S
H532 C508 0.950 . S
H533 C509 0.949 . S
H534 C511 0.950 . S
H535 C513 0.950 . S
C536 C537 1.349 . S
C536 C538 1.327 . S
C536 H561 0.950 . S
C537 C536 1.349 . S
C537 C553 1.349 . S
C538 C536 1.327 . S
C538 C557 1.429 . S
C538 H562 0.950 . S
C539 C556 1.574 . S
C539 C558 1.368 . S
C539 H563 0.949 . S
H540 C544 0.949 . S
C541 C542 1.349 . S
C541 C543 1.327 . S
C541 H564 0.950 . S
C542 C541 1.349 . S
C542 C554 1.349 . S
C543 C541 1.327 . S
C543 C559 1.429 . S
C543 H565 0.950 . S
C544 H540 0.949 . S
C544 C552 1.574 . S
C544 C560 1.368 . S
H545 C553 0.950 . S
H546 C551 0.950 . S
H547 C552 0.949 . S
H548 C554 0.950 . S
H549 C555 0.950 . S
H550 C556 0.949 . S
C551 H546 0.950 . S
C551 C553 1.327 . S
C551 C557 1.429 . S
C552 C544 1.574 . S
C552 H547 0.949 . S
C552 C558 1.368 . S
C553 C537 1.349 . S
C553 H545 0.950 . S
C553 C551 1.327 . S
C554 C542 1.349 . S
C554 H548 0.950 . S
C554 C555 1.327 . S
C555 H549 0.950 . S
C555 C554 1.327 . S
C555 C559 1.429 . S
C556 C539 1.574 . S
C556 H550 0.949 . S
C556 C560 1.368 . S
C557 C538 1.429 . S
C557 C551 1.429 . S
C557 C558 1.523 . S
C558 C539 1.368 . S
C558 C552 1.368 . S
C558 C557 1.523 . S
C559 C543 1.429 . S
C559 C555 1.429 . S
C559 C560 1.523 . S
C560 C544 1.368 . S
C560 C556 1.368 . S
C560 C559 1.523 . S
H561 C536 0.950 . S
H562 C538 0.950 . S
H563 C539 0.949 . S
H564 C541 0.950 . S
H565 C543 0.950 . S
C566 C567 1.349 . S
C566 C568 1.327 . S
C566 H591 0.950 . S
C567 C566 1.349 . S
C567 C583 1.349 . S
C568 C566 1.327 . S
C568 C587 1.429 . S
C568 H592 0.950 . S
C569 C586 1.574 . S
C569 C588 1.368 . S
C569 H593 0.949 . S
H570 C574 0.949 . S
C571 C572 1.349 . S
C571 C573 1.327 . S
C571 H594 0.950 . S
C572 C571 1.349 . S
C572 C584 1.349 . S
C573 C571 1.327 . S
C573 C589 1.429 . S
C573 H595 0.950 . S
C574 H570 0.949 . S
C574 C582 1.574 . S
C574 C590 1.368 . S
H575 C583 0.950 . S
H576 C581 0.950 . S
H577 C582 0.949 . S
H578 C584 0.950 . S
H579 C585 0.950 . S
H580 C586 0.949 . S
C581 H576 0.950 . S
C581 C583 1.327 . S
C581 C587 1.429 . S
C582 C574 1.574 . S
C582 H577 0.949 . S
C582 C588 1.368 . S
C583 C567 1.349 . S
C583 H575 0.950 . S
C583 C581 1.327 . S
C584 C572 1.349 . S
C584 H578 0.950 . S
C584 C585 1.327 . S
C585 H579 0.950 . S
C585 C584 1.327 . S
C585 C589 1.429 . S
C586 C569 1.574 . S
C586 H580 0.949 . S
C586 C590 1.368 . S
C587 C568 1.429 . S
C587 C581 1.429 . S
C587 C588 1.523 . S
C588 C569 1.368 . S
C588 C582 1.368 . S
C588 C587 1.523 . S
C589 C573 1.429 . S
C589 C585 1.429 . S
C589 C590 1.523 . S
C590 C574 1.368 . S
C590 C586 1.368 . S
C590 C589 1.523 . S
H591 C566 0.950 . S
H592 C568 0.950 . S
H593 C569 0.949 . S
H594 C571 0.950 . S
H595 C573 0.950 . S
C596 C597 1.349 . S
C596 C598 1.327 . S
C596 H621 0.950 . S
C597 C596 1.349 . S
C597 C613 1.349 . S
C598 C596 1.327 . S
C598 C617 1.429 . S
C598 H622 0.950 . S
C599 C616 1.574 . S
C599 C618 1.368 . S
C599 H623 0.949 . S
H600 C604 0.949 . S
C601 C602 1.349 . S
C601 C603 1.327 . S
C601 H624 0.950 . S
C602 C601 1.349 . S
C602 C614 1.349 . S
C603 C601 1.327 . S
C603 C619 1.429 . S
C603 H625 0.950 . S
C604 H600 0.949 . S
C604 C612 1.574 . S
C604 C620 1.368 . S
H605 C613 0.950 . S
H606 C611 0.950 . S
H607 C612 0.949 . S
H608 C614 0.950 . S
H609 C615 0.950 . S
H610 C616 0.949 . S
C611 H606 0.950 . S
C611 C613 1.327 . S
C611 C617 1.429 . S
C612 C604 1.574 . S
C612 H607 0.949 . S
C612 C618 1.368 . S
C613 C597 1.349 . S
C613 H605 0.950 . S
C613 C611 1.327 . S
C614 C602 1.349 . S
C614 H608 0.950 . S
C614 C615 1.327 . S
C615 H609 0.950 . S
C615 C614 1.327 . S
C615 C619 1.429 . S
C616 C599 1.574 . S
C616 H610 0.949 . S
C616 C620 1.368 . S
C617 C598 1.429 . S
C617 C611 1.429 . S
C617 C618 1.523 . S
C618 C599 1.368 . S
C618 C612 1.368 . S
C618 C617 1.523 . S
C619 C603 1.429 . S
C619 C615 1.429 . S
C619 C620 1.523 . S
C620 C604 1.368 . S
C620 C616 1.368 . S
C620 C619 1.523 . S
H621 C596 0.950 . S
H622 C598 0.950 . S
H623 C599 0.949 . S
H624 C601 0.950 . S
H625 C603 0.950 . S
C626 C627 1.349 . S
C626 C628 1.327 . S
C626 H651 0.950 . S
C627 C626 1.349 . S
C627 C643 1.349 . S
C628 C626 1.327 . S
C628 C647 1.429 . S
C628 H652 0.950 . S
C629 C646 1.574 . S
C629 C648 1.368 . S
C629 H653 0.949 . S
H630 C634 0.949 . S
C631 C632 1.349 . S
C631 C633 1.327 . S
C631 H654 0.950 . S
C632 C631 1.349 . S
C632 C644 1.349 . S
C633 C631 1.327 . S
C633 C649 1.429 . S
C633 H655 0.950 . S
C634 H630 0.949 . S
C634 C642 1.574 . S
C634 C650 1.368 . S
H635 C643 0.950 . S
H636 C641 0.950 . S
H637 C642 0.949 . S
H638 C644 0.950 . S
H639 C645 0.950 . S
H640 C646 0.949 . S
C641 H636 0.950 . S
C641 C643 1.327 . S
C641 C647 1.429 . S
C642 C634 1.574 . S
C642 H637 0.949 . S
C642 C648 1.368 . S
C643 C627 1.349 . S
C643 H635 0.950 . S
C643 C641 1.327 . S
C644 C632 1.349 . S
C644 H638 0.950 . S
C644 C645 1.327 . S
C645 H639 0.950 . S
C645 C644 1.327 . S
C645 C649 1.429 . S
C646 C629 1.574 . S
C646 H640 0.949 . S
C646 C650 1.368 . S
C647 C628 1.429 . S
C647 C641 1.429 . S
C647 C648 1.523 . S
C648 C629 1.368 . S
C648 C642 1.368 . S
C648 C647 1.523 . S
C649 C633 1.429 . S
C649 C645 1.429 . S
C649 C650 1.523 . S
C650 C634 1.368 . S
C650 C646 1.368 . S
C650 C649 1.523 . S
H651 C626 0.950 . S
H652 C628 0.950 . S
H653 C629 0.949 . S
H654 C631 0.950 . S
H655 C633 0.950 . S
C656 C657 1.349 . S
C656 C658 1.327 . S
C656 H681 0.950 . S
C657 C656 1.349 . S
C657 C673 1.349 . S
C658 C656 1.327 . S
C658 C677 1.429 . S
C658 H682 0.950 . S
C659 C676 1.574 . S
C659 C678 1.368 . S
C659 H683 0.949 . S
H660 C664 0.949 . S
C661 C662 1.349 . S
C661 C663 1.327 . S
C661 H684 0.950 . S
C662 C661 1.349 . S
C662 C674 1.349 . S
C663 C661 1.327 . S
C663 C679 1.429 . S
C663 H685 0.950 . S
C664 H660 0.949 . S
C664 C672 1.574 . S
C664 C680 1.368 . S
H665 C673 0.950 . S
H666 C671 0.950 . S
H667 C672 0.949 . S
H668 C674 0.950 . S
H669 C675 0.950 . S
H670 C676 0.949 . S
C671 H666 0.950 . S
C671 C673 1.327 . S
C671 C677 1.429 . S
C672 C664 1.574 . S
C672 H667 0.949 . S
C672 C678 1.368 . S
C673 C657 1.349 . S
C673 H665 0.950 . S
C673 C671 1.327 . S
C674 C662 1.349 . S
C674 H668 0.950 . S
C674 C675 1.327 . S
C675 H669 0.950 . S
C675 C674 1.327 . S
C675 C679 1.429 . S
C676 C659 1.574 . S
C676 H670 0.949 . S
C676 C680 1.368 . S
C677 C658 1.429 . S
C677 C671 1.429 . S
C677 C678 1.523 . S
C678 C659 1.368 . S
C678 C672 1.368 . S
C678 C677 1.523 . S
C679 C663 1.429 . S
C679 C675 1.429 . S
C679 C680 1.523 . S
C680 C664 1.368 . S
C680 C676 1.368 . S
C680 C679 1.523 . S
H681 C656 0.950 . S
H682 C658 0.950 . S
H683 C659 0.949 . S
H684 C661 0.950 . S
H685 C663 0.950 . S
C686 C687 1.349 . S
C686 C688 1.327 . S
C686 H711 0.950 . S
C687 C686 1.349 . S
C687 C703 1.349 . S
C688 C686 1.327 . S
C688 C707 1.429 . S
C688 H712 0.950 . S
C689 C706 1.574 . S
C689 C708 1.368 . S
C689 H713 0.949 . S
H690 C694 0.949 . S
C691 C692 1.349 . S
C691 C693 1.327 . S
C691 H714 0.950 . S
C692 C691 1.349 . S
C692 C704 1.349 . S
C693 C691 1.327 . S
C693 C709 1.429 . S
C693 H715 0.950 . S
C694 H690 0.949 . S
C694 C702 1.574 . S
C694 C710 1.368 . S
H695 C703 0.950 . S
H696 C701 0.950 . S
H697 C702 0.949 . S
H698 C704 0.950 . S
H699 C705 0.950 . S
H700 C706 0.949 . S
C701 H696 0.950 . S
C701 C703 1.327 . S
C701 C707 1.429 . S
C702 C694 1.574 . S
C702 H697 0.949 . S
C702 C708 1.368 . S
C703 C687 1.349 . S
C703 H695 0.950 . S
C703 C701 1.327 . S
C704 C692 1.349 . S
C704 H698 0.950 . S
C704 C705 1.327 . S
C705 H699 0.950 . S
C705 C704 1.327 . S
C705 C709 1.429 . S
C706 C689 1.574 . S
C706 H700 0.949 . S
C706 C710 1.368 . S
C707 C688 1.429 . S
C707 C701 1.429 . S
C707 C708 1.523 . S
C708 C689 1.368 . S
C708 C702 1.368 . S
C708 C707 1.523 . S
C709 C693 1.429 . S
C709 C705 1.429 . S
C709 C710 1.523 . S
C710 C694 1.368 . S
C710 C706 1.368 . S
C710 C709 1.523 . S
H711 C686 0.950 . S
H712 C688 0.950 . S
H713 C689 0.949 . S
H714 C691 0.950 . S
H715 C693 0.950 . S
C716 C717 1.349 . S
C716 C718 1.327 . S
C716 H741 0.950 . S
C717 C716 1.349 . S
C717 C733 1.349 . S
C718 C716 1.327 . S
C718 C737 1.429 . S
C718 H742 0.950 . S
C719 C736 1.574 . S
C719 C738 1.368 . S
C719 H743 0.949 . S
H720 C724 0.949 . S
C721 C722 1.349 . S
C721 C723 1.327 . S
C721 H744 0.950 . S
C722 C721 1.349 . S
C722 C734 1.349 . S
C723 C721 1.327 . S
C723 C739 1.429 . S
C723 H745 0.950 . S
C724 H720 0.949 . S
C724 C732 1.574 . S
C724 C740 1.368 . S
H725 C733 0.950 . S
H726 C731 0.950 . S
H727 C732 0.949 . S
H728 C734 0.950 . S
H729 C735 0.950 . S
H730 C736 0.949 . S
C731 H726 0.950 . S
C731 C733 1.327 . S
C731 C737 1.429 . S
C732 C724 1.574 . S
C732 H727 0.949 . S
C732 C738 1.368 . S
C733 C717 1.349 . S
C733 H725 0.950 . S
C733 C731 1.327 . S
C734 C722 1.349 . S
C734 H728 0.950 . S
C734 C735 1.327 . S
C735 H729 0.950 . S
C735 C734 1.327 . S
C735 C739 1.429 . S
C736 C719 1.574 . S
C736 H730 0.949 . S
C736 C740 1.368 . S
C737 C718 1.429 . S
C737 C731 1.429 . S
C737 C738 1.523 . S
C738 C719 1.368 . S
C738 C732 1.368 . S
C738 C737 1.523 . S
C739 C723 1.429 . S
C739 C735 1.429 . S
C739 C740 1.523 . S
C740 C724 1.368 . S
C740 C736 1.368 . S
C740 C739 1.523 . S
H741 C716 0.950 . S
H742 C718 0.950 . S
H743 C719 0.949 . S
H744 C721 0.950 . S
H745 C723 0.950 . S
C746 C747 1.349 . S
C746 C748 1.327 . S
C746 H771 0.950 . S
C747 C746 1.349 . S
C747 C763 1.349 . S
C748 C746 1.327 . S
C748 C767 1.429 . S
C748 H772 0.950 . S
C749 C766 1.574 . S
C749 C768 1.368 . S
C749 H773 0.949 . S
H750 C754 0.949 . S
C751 C752 1.349 . S
C751 C753 1.327 . S
C751 H774 0.950 . S
C752 C751 1.349 . S
C752 C764 1.349 . S
C753 C751 1.327 . S
C753 C769 1.429 . S
C753 H775 0.950 . S
C754 H750 0.949 . S
C754 C762 1.574 . S
C754 C770 1.368 . S
H755 C763 0.950 . S
H756 C761 0.950 . S
H757 C762 0.949 . S
H758 C764 0.950 . S
H759 C765 0.950 . S
H760 C766 0.949 . S
C761 H756 0.950 . S
C761 C763 1.327 . S
C761 C767 1.429 . S
C762 C754 1.574 . S
C762 H757 0.949 . S
C762 C768 1.368 . S
C763 C747 1.349 . S
C763 H755 0.950 . S
C763 C761 1.327 . S
C764 C752 1.349 . S
C764 H758 0.950 . S
C764 C765 1.327 . S
C765 H759 0.950 . S
C765 C764 1.327 . S
C765 C769 1.429 . S
C766 C749 1.574 . S
C766 H760 0.949 . S
C766 C770 1.368 . S
C767 C748 1.429 . S
C767 C761 1.429 . S
C767 C768 1.523 . S
C768 C749 1.368 . S
C768 C762 1.368 . S
C768 C767 1.523 . S
C769 C753 1.429 . S
C769 C765 1.429 . S
C769 C770 1.523 . S
C770 C754 1.368 . S
C770 C766 1.368 . S
C770 C769 1.523 . S
H771 C746 0.950 . S
H772 C748 0.950 . S
H773 C749 0.949 . S
H774 C751 0.950 . S
H775 C753 0.950 . S
C776 C777 1.349 . S
C776 C778 1.327 . S
C776 H801 0.950 . S
C777 C776 1.349 . S
C777 C793 1.349 . S
C778 C776 1.327 . S
C778 C797 1.429 . S
C778 H802 0.950 . S
C779 C796 1.574 . S
C779 C798 1.368 . S
C779 H803 0.949 . S
H780 C784 0.949 . S
C781 C782 1.349 . S
C781 C783 1.327 . S
C781 H804 0.950 . S
C782 C781 1.349 . S
C782 C794 1.349 . S
C783 C781 1.327 . S
C783 C799 1.429 . S
C783 H805 0.950 . S
C784 H780 0.949 . S
C784 C792 1.574 . S
C784 C800 1.368 . S
H785 C793 0.950 . S
H786 C791 0.950 . S
H787 C792 0.949 . S
H788 C794 0.950 . S
H789 C795 0.950 . S
H790 C796 0.949 . S
C791 H786 0.950 . S
C791 C793 1.327 . S
C791 C797 1.429 . S
C792 C784 1.574 . S
C792 H787 0.949 . S
C792 C798 1.368 . S
C793 C777 1.349 . S
C793 H785 0.950 . S
C793 C791 1.327 . S
C794 C782 1.349 . S
C794 H788 0.950 . S
C794 C795 1.327 . S
C795 H789 0.950 . S
C795 C794 1.327 . S
C795 C799 1.429 . S
C796 C779 1.574 . S
C796 H790 0.949 . S
C796 C800 1.368 . S
C797 C778 1.429 . S
C797 C791 1.429 . S
C797 C798 1.523 . S
C798 C779 1.368 . S
C798 C792 1.368 . S
C798 C797 1.523 . S
C799 C783 1.429 . S
C799 C795 1.429 . S
C799 C800 1.523 . S
C800 C784 1.368 . S
C800 C796 1.368 . S
C800 C799 1.523 . S
H801 C776 0.950 . S
H802 C778 0.950 . S
H803 C779 0.949 . S
H804 C781 0.950 . S
H805 C783 0.950 . S
C806 C807 1.349 . S
C806 C808 1.327 . S
C806 H831 0.950 . S
C807 C806 1.349 . S
C807 C823 1.349 . S
C808 C806 1.327 . S
C808 C827 1.429 . S
C808 H832 0.950 . S
C809 C826 1.574 . S
C809 C828 1.368 . S
C809 H833 0.949 . S
H810 C814 0.949 . S
C811 C812 1.349 . S
C811 C813 1.327 . S
C811 H834 0.950 . S
C812 C811 1.349 . S
C812 C824 1.349 . S
C813 C811 1.327 . S
C813 C829 1.429 . S
C813 H835 0.950 . S
C814 H810 0.949 . S
C814 C822 1.574 . S
C814 C830 1.368 . S
H815 C823 0.950 . S
H816 C821 0.950 . S
H817 C822 0.949 . S
H818 C824 0.950 . S
H819 C825 0.950 . S
H820 C826 0.949 . S
C821 H816 0.950 . S
C821 C823 1.327 . S
C821 C827 1.429 . S
C822 C814 1.574 . S
C822 H817 0.949 . S
C822 C828 1.368 . S
C823 C807 1.349 . S
C823 H815 0.950 . S
C823 C821 1.327 . S
C824 C812 1.349 . S
C824 H818 0.950 . S
C824 C825 1.327 . S
C825 H819 0.950 . S
C825 C824 1.327 . S
C825 C829 1.429 . S
C826 C809 1.574 . S
C826 H820 0.949 . S
C826 C830 1.368 . S
C827 C808 1.429 . S
C827 C821 1.429 . S
C827 C828 1.523 . S
C828 C809 1.368 . S
C828 C822 1.368 . S
C828 C827 1.523 . S
C829 C813 1.429 . S
C829 C825 1.429 . S
C829 C830 1.523 . S
C830 C814 1.368 . S
C830 C826 1.368 . S
C830 C829 1.523 . S
H831 C806 0.950 . S
H832 C808 0.950 . S
H833 C809 0.949 . S
H834 C811 0.950 . S
H835 C813 0.950 . S
C836 C837 1.349 . S
C836 C838 1.327 . S
C836 H861 0.950 . S
C837 C836 1.349 . S
C837 C853 1.349 . S
C838 C836 1.327 . S
C838 C857 1.429 . S
C838 H862 0.950 . S
C839 C856 1.574 . S
C839 C858 1.368 . S
C839 H863 0.949 . S
H840 C844 0.949 . S
C841 C842 1.349 . S
C841 C843 1.327 . S
C841 H864 0.950 . S
C842 C841 1.349 . S
C842 C854 1.349 . S
C843 C841 1.327 . S
C843 C859 1.429 . S
C843 H865 0.950 . S
C844 H840 0.949 . S
C844 C852 1.574 . S
C844 C860 1.368 . S
H845 C853 0.950 . S
H846 C851 0.950 . S
H847 C852 0.949 . S
H848 C854 0.950 . S
H849 C855 0.950 . S
H850 C856 0.949 . S
C851 H846 0.950 . S
C851 C853 1.327 . S
C851 C857 1.429 . S
C852 C844 1.574 . S
C852 H847 0.949 . S
C852 C858 1.368 . S
C853 C837 1.349 . S
C853 H845 0.950 . S
C853 C851 1.327 . S
C854 C842 1.349 . S
C854 H848 0.950 . S
C854 C855 1.327 . S
C855 H849 0.950 . S
C855 C854 1.327 . S
C855 C859 1.429 . S
C856 C839 1.574 . S
C856 H850 0.949 . S
C856 C860 1.368 . S
C857 C838 1.429 . S
C857 C851 1.429 . S
C857 C858 1.523 . S
C858 C839 1.368 . S
C858 C852 1.368 . S
C858 C857 1.523 . S
C859 C843 1.429 . S
C859 C855 1.429 . S
C859 C860 1.523 . S
C860 C844 1.368 . S
C860 C856 1.368 . S
C860 C859 1.523 . S
H861 C836 0.950 . S
H862 C838 0.950 . S
H863 C839 0.949 . S
H864 C841 0.950 . S
H865 C843 0.950 . S
C866 C867 1.349 . S
C866 C868 1.327 . S
C866 H891 0.950 . S
C867 C866 1.349 . S
C867 C883 1.349 . S
C868 C866 1.327 . S
C868 C887 1.429 . S
C868 H892 0.950 . S
C869 C886 1.574 . S
C869 C888 1.368 . S
C869 H893 0.949 . S
H870 C874 0.949 . S
C871 C872 1.349 . S
C871 C873 1.327 . S
C871 H894 0.950 . S
C872 C871 1.349 . S
C872 C884 1.349 . S
C873 C871 1.327 . S
C873 C889 1.429 . S
C873 H895 0.950 . S
C874 H870 0.949 . S
C874 C882 1.574 . S
C874 C890 1.368 . S
H875 C883 0.950 . S
H876 C881 0.950 . S
H877 C882 0.949 . S
H878 C884 0.950 . S
H879 C885 0.950 . S
H880 C886 0.949 . S
C881 H876 0.950 . S
C881 C883 1.327 . S
C881 C887 1.429 . S
C882 C874 1.574 . S
C882 H877 0.949 . S
C882 C888 1.368 . S
C883 C867 1.349 . S
C883 H875 0.950 . S
C883 C881 1.327 . S
C884 C872 1.349 . S
C884 H878 0.950 . S
C884 C885 1.327 . S
C885 H879 0.950 . S
C885 C884 1.327 . S
C885 C889 1.429 . S
C886 C869 1.574 . S
C886 H880 0.949 . S
C886 C890 1.368 . S
C887 C868 1.429 . S
C887 C881 1.429 . S
C887 C888 1.523 . S
C888 C869 1.368 . S
C888 C882 1.368 . S
C888 C887 1.523 . S
C889 C873 1.429 . S
C889 C885 1.429 . S
C889 C890 1.523 . S
C890 C874 1.368 . S
C890 C886 1.368 . S
C890 C889 1.523 . S
H891 C866 0.950 . S
H892 C868 0.950 . S
H893 C869 0.949 . S
H894 C871 0.950 . S
H895 C873 0.950 . S
C896 C897 1.349 . S
C896 C898 1.327 . S
C896 H921 0.950 . S
C897 C896 1.349 . S
C897 C913 1.349 . S
C898 C896 1.327 . S
C898 C917 1.429 . S
C898 H922 0.950 . S
C899 C916 1.574 . S
C899 C918 1.368 . S
C899 H923 0.949 . S
H900 C904 0.949 . S
C901 C902 1.349 . S
C901 C903 1.327 . S
C901 H924 0.950 . S
C902 C901 1.349 . S
C902 C914 1.349 . S
C903 C901 1.327 . S
C903 C919 1.429 . S
C903 H925 0.950 . S
C904 H900 0.949 . S
C904 C912 1.574 . S
C904 C920 1.368 . S
H905 C913 0.950 . S
H906 C911 0.950 . S
H907 C912 0.949 . S
H908 C914 0.950 . S
H909 C915 0.950 . S
H910 C916 0.949 . S
C911 H906 0.950 . S
C911 C913 1.327 . S
C911 C917 1.429 . S
C912 C904 1.574 . S
C912 H907 0.949 . S
C912 C918 1.368 . S
C913 C897 1.349 . S
C913 H905 0.950 . S
C913 C911 1.327 . S
C914 C902 1.349 . S
C914 H908 0.950 . S
C914 C915 1.327 . S
C915 H909 0.950 . S
C915 C914 1.327 . S
C915 C919 1.429 . S
C916 C899 1.574 . S
C916 H910 0.949 . S
C916 C920 1.368 . S
C917 C898 1.429 . S
C917 C911 1.429 . S
C917 C918 1.523 . S
C918 C899 1.368 . S
C918 C912 1.368 . S
C918 C917 1.523 . S
C919 C903 1.429 . S
C919 C915 1.429 . S
C919 C920 1.523 . S
C920 C904 1.368 . S
C920 C916 1.368 . S
C920 C919 1.523 . S
H921 C896 0.950 . S
H922 C898 0.950 . S
H923 C899 0.949 . S
H924 C901 0.950 . S
H925 C903 0.950 . S
C926 C927 1.349 . S
C926 C928 1.327 . S
C926 H951 0.950 . S
C927 C926 1.349 . S
C927 C943 1.349 . S
C928 C926 1.327 . S
C928 C947 1.429 . S
C928 H952 0.950 . S
C929 C946 1.574 . S
C929 C948 1.368 . S
C929 H953 0.949 . S
H930 C934 0.949 . S
C931 C932 1.349 . S
C931 C933 1.327 . S
C931 H954 0.950 . S
C932 C931 1.349 . S
C932 C944 1.349 . S
C933 C931 1.327 . S
C933 C949 1.429 . S
C933 H955 0.950 . S
C934 H930 0.949 . S
C934 C942 1.574 . S
C934 C950 1.368 . S
H935 C943 0.950 . S
H936 C941 0.950 . S
H937 C942 0.949 . S
H938 C944 0.950 . S
H939 C945 0.950 1_655 S
H940 C946 0.949 . S
C941 H936 0.950 . S
C941 C943 1.327 . S
C941 C947 1.429 . S
C942 C934 1.574 . S
C942 H937 0.949 . S
C942 C948 1.368 . S
C943 C927 1.349 . S
C943 H935 0.950 . S
C943 C941 1.327 . S
C944 C932 1.349 . S
C944 H938 0.950 . S
C944 C945 1.327 . S
C945 H939 0.950 1_455 S
C945 C944 1.327 . S
C945 C949 1.429 . S
C946 C929 1.574 . S
C946 H940 0.949 . S
C946 C950 1.368 . S
C947 C928 1.429 . S
C947 C941 1.429 . S
C947 C948 1.523 . S
C948 C929 1.368 . S
C948 C942 1.368 . S
C948 C947 1.523 . S
C949 C933 1.429 . S
C949 C945 1.429 . S
C949 C950 1.523 1_455 S
C950 C934 1.368 . S
C950 C946 1.368 . S
C950 C949 1.523 1_655 S
H951 C926 0.950 . S
H952 C928 0.950 . S
H953 C929 0.949 . S
H954 C931 0.950 . S
H955 C933 0.950 . S
C956 C957 1.349 . S
C956 C958 1.327 . S
C956 H981 0.950 . S
C957 C956 1.349 . S
C957 C973 1.349 . S
C958 C956 1.327 . S
C958 C977 1.429 . S
C958 H982 0.950 . S
C959 C976 1.574 . S
C959 C978 1.368 . S
C959 H983 0.949 . S
H960 C964 0.949 . S
C961 C962 1.349 . S
C961 C963 1.327 . S
C961 H984 0.950 . S
C962 C961 1.349 . S
C962 C974 1.349 . S
C963 C961 1.327 . S
C963 C979 1.429 . S
C963 H985 0.950 . S
C964 H960 0.949 . S
C964 C972 1.574 . S
C964 C980 1.368 . S
H965 C973 0.950 . S
H966 C971 0.950 . S
H967 C972 0.949 . S
H968 C974 0.950 . S
H969 C975 0.950 . S
H970 C976 0.949 . S
C971 H966 0.950 . S
C971 C973 1.327 . S
C971 C977 1.429 . S
C972 C964 1.574 . S
C972 H967 0.949 . S
C972 C978 1.368 . S
C973 C957 1.349 . S
C973 H965 0.950 . S
C973 C971 1.327 . S
C974 C962 1.349 . S
C974 H968 0.950 . S
C974 C975 1.327 . S
C975 H969 0.950 . S
C975 C974 1.327 . S
C975 C979 1.429 . S
C976 C959 1.574 . S
C976 H970 0.949 . S
C976 C980 1.368 . S
C977 C958 1.429 . S
C977 C971 1.429 . S
C977 C978 1.523 . S
C978 C959 1.368 . S
C978 C972 1.368 . S
C978 C977 1.523 . S
C979 C963 1.429 . S
C979 C975 1.429 . S
C979 C980 1.523 . S
C980 C964 1.368 . S
C980 C976 1.368 . S
C980 C979 1.523 . S
H981 C956 0.950 . S
H982 C958 0.950 . S
H983 C959 0.949 . S
H984 C961 0.950 . S
H985 C963 0.950 . S
C986 C987 1.349 . S
C986 C988 1.327 . S
C986 H1011 0.950 . S
C987 C986 1.349 . S
C987 C1003 1.349 . S
C988 C986 1.327 . S
C988 C1007 1.429 . S
C988 H1012 0.950 . S
C989 C1006 1.574 . S
C989 C1008 1.368 . S
C989 H1013 0.949 . S
H990 C994 0.949 . S
C991 C992 1.349 . S
C991 C993 1.327 . S
C991 H1014 0.950 . S
C992 C991 1.349 . S
C992 C1004 1.349 . S
C993 C991 1.327 . S
C993 C1009 1.429 . S
C993 H1015 0.950 . S
C994 H990 0.949 . S
C994 C1002 1.574 . S
C994 C1010 1.368 . S
H995 C1003 0.950 . S
H996 C1001 0.950 . S
H997 C1002 0.949 . S
H998 C1004 0.950 . S
H999 C1005 0.950 . S
H1000 C1006 0.949 . S
C1001 H996 0.950 . S
C1001 C1003 1.327 . S
C1001 C1007 1.429 . S
C1002 C994 1.574 . S
C1002 H997 0.949 . S
C1002 C1008 1.368 . S
C1003 C987 1.349 . S
C1003 H995 0.950 . S
C1003 C1001 1.327 . S
C1004 C992 1.349 . S
C1004 H998 0.950 . S
C1004 C1005 1.327 . S
C1005 H999 0.950 . S
C1005 C1004 1.327 . S
C1005 C1009 1.429 . S
C1006 C989 1.574 . S
C1006 H1000 0.949 . S
C1006 C1010 1.368 . S
C1007 C988 1.429 . S
C1007 C1001 1.429 . S
C1007 C1008 1.523 . S
C1008 C989 1.368 . S
C1008 C1002 1.368 . S
C1008 C1007 1.523 . S
C1009 C993 1.429 . S
C1009 C1005 1.429 . S
C1009 C1010 1.523 . S
C1010 C994 1.368 . S
C1010 C1006 1.368 . S
C1010 C1009 1.523 . S
H1011 C986 0.950 . S
H1012 C988 0.950 . S
H1013 C989 0.949 . S
H1014 C991 0.950 . S
H1015 C993 0.950 . S
C1016 C1017 1.349 . S
C1016 C1018 1.327 . S
C1016 H1041 0.950 . S
C1017 C1016 1.349 . S
C1017 C1033 1.349 . S
C1018 C1016 1.327 . S
C1018 C1037 1.429 . S
C1018 H1042 0.950 . S
C1019 C1036 1.574 . S
C1019 C1038 1.368 . S
C1019 H1043 0.949 . S
H1020 C1024 0.949 . S
C1021 C1022 1.349 . S
C1021 C1023 1.327 . S
C1021 H1044 0.950 . S
C1022 C1021 1.349 . S
C1022 C1034 1.349 . S
C1023 C1021 1.327 . S
C1023 C1039 1.429 . S
C1023 H1045 0.950 . S
C1024 H1020 0.949 . S
C1024 C1032 1.574 . S
C1024 C1040 1.368 . S
H1025 C1033 0.950 . S
H1026 C1031 0.950 . S
H1027 C1032 0.949 . S
H1028 C1034 0.950 . S
H1029 C1035 0.950 . S
H1030 C1036 0.949 . S
C1031 H1026 0.950 . S
C1031 C1033 1.327 . S
C1031 C1037 1.429 . S
C1032 C1024 1.574 . S
C1032 H1027 0.949 . S
C1032 C1038 1.368 . S
C1033 C1017 1.349 . S
C1033 H1025 0.950 . S
C1033 C1031 1.327 . S
C1034 C1022 1.349 . S
C1034 H1028 0.950 . S
C1034 C1035 1.327 . S
C1035 H1029 0.950 . S
C1035 C1034 1.327 . S
C1035 C1039 1.429 . S
C1036 C1019 1.574 . S
C1036 H1030 0.949 . S
C1036 C1040 1.368 . S
C1037 C1018 1.429 . S
C1037 C1031 1.429 . S
C1037 C1038 1.523 . S
C1038 C1019 1.368 . S
C1038 C1032 1.368 . S
C1038 C1037 1.523 . S
C1039 C1023 1.429 . S
C1039 C1035 1.429 . S
C1039 C1040 1.523 . S
C1040 C1024 1.368 . S
C1040 C1036 1.368 . S
C1040 C1039 1.523 . S
H1041 C1016 0.950 . S
H1042 C1018 0.950 . S
H1043 C1019 0.949 . S
H1044 C1021 0.950 . S
H1045 C1023 0.950 . S
C1046 C1047 1.349 . S
C1046 C1048 1.327 . S
C1046 H1071 0.950 . S
C1047 C1046 1.349 . S
C1047 C1063 1.349 . S
C1048 C1046 1.327 . S
C1048 C1067 1.429 . S
C1048 H1072 0.950 . S
C1049 C1066 1.574 . S
C1049 C1068 1.368 . S
C1049 H1073 0.949 . S
H1050 C1054 0.949 . S
C1051 C1052 1.349 . S
C1051 C1053 1.327 . S
C1051 H1074 0.950 . S
C1052 C1051 1.349 . S
C1052 C1064 1.349 . S
C1053 C1051 1.327 . S
C1053 C1069 1.429 . S
C1053 H1075 0.950 . S
C1054 H1050 0.949 . S
C1054 C1062 1.574 . S
C1054 C1070 1.368 . S
H1055 C1063 0.950 . S
H1056 C1061 0.950 . S
H1057 C1062 0.949 . S
H1058 C1064 0.950 . S
H1059 C1065 0.950 . S
H1060 C1066 0.949 . S
C1061 H1056 0.950 . S
C1061 C1063 1.327 . S
C1061 C1067 1.429 . S
C1062 C1054 1.574 . S
C1062 H1057 0.949 . S
C1062 C1068 1.368 . S
C1063 C1047 1.349 . S
C1063 H1055 0.950 . S
C1063 C1061 1.327 . S
C1064 C1052 1.349 . S
C1064 H1058 0.950 . S
C1064 C1065 1.327 . S
C1065 H1059 0.950 . S
C1065 C1064 1.327 . S
C1065 C1069 1.429 . S
C1066 C1049 1.574 . S
C1066 H1060 0.949 . S
C1066 C1070 1.368 . S
C1067 C1048 1.429 . S
C1067 C1061 1.429 . S
C1067 C1068 1.523 . S
C1068 C1049 1.368 . S
C1068 C1062 1.368 . S
C1068 C1067 1.523 . S
C1069 C1053 1.429 . S
C1069 C1065 1.429 . S
C1069 C1070 1.523 . S
C1070 C1054 1.368 . S
C1070 C1066 1.368 . S
C1070 C1069 1.523 . S
H1071 C1046 0.950 . S
H1072 C1048 0.950 . S
H1073 C1049 0.949 . S
H1074 C1051 0.950 . S
H1075 C1053 0.950 . S
C1076 C1077 1.349 . S
C1076 C1078 1.327 . S
C1076 H1101 0.950 . S
C1077 C1076 1.349 . S
C1077 C1093 1.349 . S
C1078 C1076 1.327 . S
C1078 C1097 1.429 . S
C1078 H1102 0.950 . S
C1079 C1096 1.574 . S
C1079 C1098 1.368 . S
C1079 H1103 0.949 . S
H1080 C1084 0.949 . S
C1081 C1082 1.349 . S
C1081 C1083 1.327 . S
C1081 H1104 0.950 . S
C1082 C1081 1.349 . S
C1082 C1094 1.349 . S
C1083 C1081 1.327 . S
C1083 C1099 1.429 . S
C1083 H1105 0.950 . S
C1084 H1080 0.949 . S
C1084 C1092 1.574 . S
C1084 C1100 1.368 . S
H1085 C1093 0.950 . S
H1086 C1091 0.950 . S
H1087 C1092 0.949 . S
H1088 C1094 0.950 . S
H1089 C1095 0.950 . S
H1090 C1096 0.949 . S
C1091 H1086 0.950 . S
C1091 C1093 1.327 . S
C1091 C1097 1.429 . S
C1092 C1084 1.574 . S
C1092 H1087 0.949 . S
C1092 C1098 1.368 . S
C1093 C1077 1.349 . S
C1093 H1085 0.950 . S
C1093 C1091 1.327 . S
C1094 C1082 1.349 . S
C1094 H1088 0.950 . S
C1094 C1095 1.327 . S
C1095 H1089 0.950 . S
C1095 C1094 1.327 . S
C1095 C1099 1.429 . S
C1096 C1079 1.574 . S
C1096 H1090 0.949 . S
C1096 C1100 1.368 . S
C1097 C1078 1.429 . S
C1097 C1091 1.429 . S
C1097 C1098 1.523 . S
C1098 C1079 1.368 . S
C1098 C1092 1.368 . S
C1098 C1097 1.523 . S
C1099 C1083 1.429 . S
C1099 C1095 1.429 . S
C1099 C1100 1.523 . S
C1100 C1084 1.368 . S
C1100 C1096 1.368 . S
C1100 C1099 1.523 . S
H1101 C1076 0.950 . S
H1102 C1078 0.950 . S
H1103 C1079 0.949 . S
H1104 C1081 0.950 . S
H1105 C1083 0.950 . S
C1106 C1107 1.349 . S
C1106 C1108 1.327 . S
C1106 H1131 0.950 . S
C1107 C1106 1.349 . S
C1107 C1123 1.349 . S
C1108 C1106 1.327 . S
C1108 C1127 1.429 . S
C1108 H1132 0.950 . S
C1109 C1126 1.574 . S
C1109 C1128 1.368 . S
C1109 H1133 0.949 . S
H1110 C1114 0.949 . S
C1111 C1112 1.349 . S
C1111 C1113 1.327 . S
C1111 H1134 0.950 . S
C1112 C1111 1.349 . S
C1112 C1124 1.349 . S
C1113 C1111 1.327 . S
C1113 C1129 1.429 . S
C1113 H1135 0.950 . S
C1114 H1110 0.949 . S
C1114 C1122 1.574 . S
C1114 C1130 1.368 . S
H1115 C1123 0.950 . S
H1116 C1121 0.950 1_655 S
H1117 C1122 0.949 . S
H1118 C1124 0.950 . S
H1119 C1125 0.950 . S
H1120 C1126 0.949 . S
C1121 H1116 0.950 1_455 S
C1121 C1123 1.327 . S
C1121 C1127 1.429 . S
C1122 C1114 1.574 . S
C1122 H1117 0.949 . S
C1122 C1128 1.368 . S
C1123 C1107 1.349 . S
C1123 H1115 0.950 . S
C1123 C1121 1.327 . S
C1124 C1112 1.349 . S
C1124 H1118 0.950 . S
C1124 C1125 1.327 . S
C1125 H1119 0.950 . S
C1125 C1124 1.327 . S
C1125 C1129 1.429 . S
C1126 C1109 1.574 . S
C1126 H1120 0.949 . S
C1126 C1130 1.368 . S
C1127 C1108 1.429 . S
C1127 C1121 1.429 . S
C1127 C1128 1.523 1_455 S
C1128 C1109 1.368 . S
C1128 C1122 1.368 . S
C1128 C1127 1.523 1_655 S
C1129 C1113 1.429 . S
C1129 C1125 1.429 . S
C1129 C1130 1.523 . S
C1130 C1114 1.368 . S
C1130 C1126 1.368 . S
C1130 C1129 1.523 . S
H1131 C1106 0.950 . S
H1132 C1108 0.950 . S
H1133 C1109 0.949 . S
H1134 C1111 0.950 . S
H1135 C1113 0.950 . S
C1136 C1137 1.349 . S
C1136 C1138 1.327 . S
C1136 H1161 0.950 . S
C1137 C1136 1.349 . S
C1137 C1153 1.349 . S
C1138 C1136 1.327 . S
C1138 C1157 1.429 . S
C1138 H1162 0.950 . S
C1139 C1156 1.574 . S
C1139 C1158 1.368 . S
C1139 H1163 0.949 . S
H1140 C1144 0.949 . S
C1141 C1142 1.349 . S
C1141 C1143 1.327 . S
C1141 H1164 0.950 . S
C1142 C1141 1.349 . S
C1142 C1154 1.349 . S
C1143 C1141 1.327 . S
C1143 C1159 1.429 . S
C1143 H1165 0.950 . S
C1144 H1140 0.949 . S
C1144 C1152 1.574 . S
C1144 C1160 1.368 . S
H1145 C1153 0.950 . S
H1146 C1151 0.950 . S
H1147 C1152 0.949 . S
H1148 C1154 0.950 . S
H1149 C1155 0.950 . S
H1150 C1156 0.949 . S
C1151 H1146 0.950 . S
C1151 C1153 1.327 . S
C1151 C1157 1.429 . S
C1152 C1144 1.574 . S
C1152 H1147 0.949 . S
C1152 C1158 1.368 . S
C1153 C1137 1.349 . S
C1153 H1145 0.950 . S
C1153 C1151 1.327 . S
C1154 C1142 1.349 . S
C1154 H1148 0.950 . S
C1154 C1155 1.327 . S
C1155 H1149 0.950 . S
C1155 C1154 1.327 . S
C1155 C1159 1.429 . S
C1156 C1139 1.574 . S
C1156 H1150 0.949 . S
C1156 C1160 1.368 . S
C1157 C1138 1.429 . S
C1157 C1151 1.429 . S
C1157 C1158 1.523 . S
C1158 C1139 1.368 . S
C1158 C1152 1.368 . S
C1158 C1157 1.523 . S
C1159 C1143 1.429 . S
C1159 C1155 1.429 . S
C1159 C1160 1.523 . S
C1160 C1144 1.368 . S
C1160 C1156 1.368 . S
C1160 C1159 1.523 . S
H1161 C1136 0.950 . S
H1162 C1138 0.950 . S
H1163 C1139 0.949 . S
H1164 C1141 0.950 . S
H1165 C1143 0.950 . S
C1166 C1167 1.349 . S
C1166 C1168 1.327 . S
C1166 H1191 0.950 . S
C1167 C1166 1.349 . S
C1167 C1183 1.349 . S
C1168 C1166 1.327 . S
C1168 C1187 1.429 . S
C1168 H1192 0.950 . S
C1169 C1186 1.574 . S
C1169 C1188 1.368 . S
C1169 H1193 0.949 . S
H1170 C1174 0.949 . S
C1171 C1172 1.349 . S
C1171 C1173 1.327 . S
C1171 H1194 0.950 . S
C1172 C1171 1.349 . S
C1172 C1184 1.349 . S
C1173 C1171 1.327 . S
C1173 C1189 1.429 . S
C1173 H1195 0.950 . S
C1174 H1170 0.949 . S
C1174 C1182 1.574 . S
C1174 C1190 1.368 . S
H1175 C1183 0.950 . S
H1176 C1181 0.950 1_455 S
H1177 C1182 0.949 . S
H1178 C1184 0.950 . S
H1179 C1185 0.950 . S
H1180 C1186 0.949 . S
C1181 H1176 0.950 1_655 S
C1181 C1183 1.327 . S
C1181 C1187 1.429 . S
C1182 C1174 1.574 . S
C1182 H1177 0.949 . S
C1182 C1188 1.368 . S
C1183 C1167 1.349 . S
C1183 H1175 0.950 . S
C1183 C1181 1.327 . S
C1184 C1172 1.349 . S
C1184 H1178 0.950 . S
C1184 C1185 1.327 . S
C1185 H1179 0.950 . S
C1185 C1184 1.327 . S
C1185 C1189 1.429 . S
C1186 C1169 1.574 . S
C1186 H1180 0.949 . S
C1186 C1190 1.368 . S
C1187 C1168 1.429 . S
C1187 C1181 1.429 . S
C1187 C1188 1.523 1_655 S
C1188 C1169 1.368 . S
C1188 C1182 1.368 . S
C1188 C1187 1.523 1_455 S
C1189 C1173 1.429 . S
C1189 C1185 1.429 . S
C1189 C1190 1.523 . S
C1190 C1174 1.368 . S
C1190 C1186 1.368 . S
C1190 C1189 1.523 . S
H1191 C1166 0.950 . S
H1192 C1168 0.950 . S
H1193 C1169 0.949 . S
H1194 C1171 0.950 . S
H1195 C1173 0.950 . S
C1196 C1197 1.349 . S
C1196 C1198 1.327 . S
C1196 H1221 0.950 . S
C1197 C1196 1.349 . S
C1197 C1213 1.349 . S
C1198 C1196 1.327 . S
C1198 C1217 1.429 . S
C1198 H1222 0.950 . S
C1199 C1216 1.574 . S
C1199 C1218 1.368 . S
C1199 H1223 0.949 . S
H1200 C1204 0.949 . S
C1201 C1202 1.349 . S
C1201 C1203 1.327 . S
C1201 H1224 0.950 . S
C1202 C1201 1.349 . S
C1202 C1214 1.349 . S
C1203 C1201 1.327 . S
C1203 C1219 1.429 . S
C1203 H1225 0.950 . S
C1204 H1200 0.949 . S
C1204 C1212 1.574 . S
C1204 C1220 1.368 . S
H1205 C1213 0.950 . S
H1206 C1211 0.950 . S
H1207 C1212 0.949 . S
H1208 C1214 0.950 . S
H1209 C1215 0.950 . S
H1210 C1216 0.949 . S
C1211 H1206 0.950 . S
C1211 C1213 1.327 . S
C1211 C1217 1.429 . S
C1212 C1204 1.574 . S
C1212 H1207 0.949 . S
C1212 C1218 1.368 . S
C1213 C1197 1.349 . S
C1213 H1205 0.950 . S
C1213 C1211 1.327 . S
C1214 C1202 1.349 . S
C1214 H1208 0.950 . S
C1214 C1215 1.327 . S
C1215 H1209 0.950 . S
C1215 C1214 1.327 . S
C1215 C1219 1.429 . S
C1216 C1199 1.574 . S
C1216 H1210 0.949 . S
C1216 C1220 1.368 . S
C1217 C1198 1.429 . S
C1217 C1211 1.429 . S
C1217 C1218 1.523 . S
C1218 C1199 1.368 . S
C1218 C1212 1.368 . S
C1218 C1217 1.523 . S
C1219 C1203 1.429 . S
C1219 C1215 1.429 . S
C1219 C1220 1.523 . S
C1220 C1204 1.368 . S
C1220 C1216 1.368 . S
C1220 C1219 1.523 . S
H1221 C1196 0.950 . S
H1222 C1198 0.950 . S
H1223 C1199 0.949 . S
H1224 C1201 0.950 . S
H1225 C1203 0.950 . S
C1226 C1227 1.349 . S
C1226 C1228 1.327 . S
C1226 H1251 0.950 . S
C1227 C1226 1.349 . S
C1227 C1243 1.349 . S
C1228 C1226 1.327 . S
C1228 C1247 1.429 . S
C1228 H1252 0.950 . S
C1229 C1246 1.574 . S
C1229 C1248 1.368 . S
C1229 H1253 0.949 . S
H1230 C1234 0.949 . S
C1231 C1232 1.349 . S
C1231 C1233 1.327 . S
C1231 H1254 0.950 . S
C1232 C1231 1.349 . S
C1232 C1244 1.349 . S
C1233 C1231 1.327 . S
C1233 C1249 1.429 . S
C1233 H1255 0.950 . S
C1234 H1230 0.949 . S
C1234 C1242 1.574 . S
C1234 C1250 1.368 . S
H1235 C1243 0.950 . S
H1236 C1241 0.950 . S
H1237 C1242 0.949 . S
H1238 C1244 0.950 . S
H1239 C1245 0.950 . S
H1240 C1246 0.949 . S
C1241 H1236 0.950 . S
C1241 C1243 1.327 . S
C1241 C1247 1.429 . S
C1242 C1234 1.574 . S
C1242 H1237 0.949 . S
C1242 C1248 1.368 . S
C1243 C1227 1.349 . S
C1243 H1235 0.950 . S
C1243 C1241 1.327 . S
C1244 C1232 1.349 . S
C1244 H1238 0.950 . S
C1244 C1245 1.327 . S
C1245 H1239 0.950 . S
C1245 C1244 1.327 . S
C1245 C1249 1.429 . S
C1246 C1229 1.574 . S
C1246 H1240 0.949 . S
C1246 C1250 1.368 . S
C1247 C1228 1.429 . S
C1247 C1241 1.429 . S
C1247 C1248 1.523 . S
C1248 C1229 1.368 . S
C1248 C1242 1.368 . S
C1248 C1247 1.523 . S
C1249 C1233 1.429 . S
C1249 C1245 1.429 . S
C1249 C1250 1.523 . S
C1250 C1234 1.368 . S
C1250 C1246 1.368 . S
C1250 C1249 1.523 . S
H1251 C1226 0.950 . S
H1252 C1228 0.950 . S
H1253 C1229 0.949 . S
H1254 C1231 0.950 . S
H1255 C1233 0.950 . S
C1256 C1257 1.349 . S
C1256 C1258 1.327 . S
C1256 H1281 0.950 . S
C1257 C1256 1.349 . S
C1257 C1273 1.349 . S
C1258 C1256 1.327 . S
C1258 C1277 1.429 . S
C1258 H1282 0.950 . S
C1259 C1276 1.574 . S
C1259 C1278 1.368 . S
C1259 H1283 0.949 . S
H1260 C1264 0.949 . S
C1261 C1262 1.349 . S
C1261 C1263 1.327 . S
C1261 H1284 0.950 . S
C1262 C1261 1.349 . S
C1262 C1274 1.349 . S
C1263 C1261 1.327 . S
C1263 C1279 1.429 . S
C1263 H1285 0.950 . S
C1264 H1260 0.949 . S
C1264 C1272 1.574 . S
C1264 C1280 1.368 . S
H1265 C1273 0.950 . S
H1266 C1271 0.950 . S
H1267 C1272 0.949 . S
H1268 C1274 0.950 . S
H1269 C1275 0.950 . S
H1270 C1276 0.949 . S
C1271 H1266 0.950 . S
C1271 C1273 1.327 . S
C1271 C1277 1.429 . S
C1272 C1264 1.574 . S
C1272 H1267 0.949 . S
C1272 C1278 1.368 . S
C1273 C1257 1.349 . S
C1273 H1265 0.950 . S
C1273 C1271 1.327 . S
C1274 C1262 1.349 . S
C1274 H1268 0.950 . S
C1274 C1275 1.327 . S
C1275 H1269 0.950 . S
C1275 C1274 1.327 . S
C1275 C1279 1.429 . S
C1276 C1259 1.574 . S
C1276 H1270 0.949 . S
C1276 C1280 1.368 . S
C1277 C1258 1.429 . S
C1277 C1271 1.429 . S
C1277 C1278 1.523 . S
C1278 C1259 1.368 . S
C1278 C1272 1.368 . S
C1278 C1277 1.523 . S
C1279 C1263 1.429 . S
C1279 C1275 1.429 . S
C1279 C1280 1.523 . S
C1280 C1264 1.368 . S
C1280 C1276 1.368 . S
C1280 C1279 1.523 . S
H1281 C1256 0.950 . S
H1282 C1258 0.950 . S
H1283 C1259 0.949 . S
H1284 C1261 0.950 . S
H1285 C1263 0.950 . S
C1286 C1287 1.349 . S
C1286 C1288 1.327 . S
C1286 H1311 0.950 . S
C1287 C1286 1.349 . S
C1287 C1303 1.349 . S
C1288 C1286 1.327 . S
C1288 C1307 1.429 . S
C1288 H1312 0.950 . S
C1289 C1306 1.574 . S
C1289 C1308 1.368 . S
C1289 H1313 0.949 . S
H1290 C1294 0.949 . S
C1291 C1292 1.349 . S
C1291 C1293 1.327 . S
C1291 H1314 0.950 . S
C1292 C1291 1.349 . S
C1292 C1304 1.349 . S
C1293 C1291 1.327 . S
C1293 C1309 1.429 . S
C1293 H1315 0.950 . S
C1294 H1290 0.949 . S
C1294 C1302 1.574 . S
C1294 C1310 1.368 . S
H1295 C1303 0.950 . S
H1296 C1301 0.950 . S
H1297 C1302 0.949 . S
H1298 C1304 0.950 . S
H1299 C1305 0.950 . S
H1300 C1306 0.949 . S
C1301 H1296 0.950 . S
C1301 C1303 1.327 . S
C1301 C1307 1.429 . S
C1302 C1294 1.574 . S
C1302 H1297 0.949 . S
C1302 C1308 1.368 . S
C1303 C1287 1.349 . S
C1303 H1295 0.950 . S
C1303 C1301 1.327 . S
C1304 C1292 1.349 . S
C1304 H1298 0.950 . S
C1304 C1305 1.327 . S
C1305 H1299 0.950 . S
C1305 C1304 1.327 . S
C1305 C1309 1.429 . S
C1306 C1289 1.574 . S
C1306 H1300 0.949 . S
C1306 C1310 1.368 . S
C1307 C1288 1.429 . S
C1307 C1301 1.429 . S
C1307 C1308 1.523 . S
C1308 C1289 1.368 . S
C1308 C1302 1.368 . S
C1308 C1307 1.523 . S
C1309 C1293 1.429 . S
C1309 C1305 1.429 . S
C1309 C1310 1.523 . S
C1310 C1294 1.368 . S
C1310 C1306 1.368 . S
C1310 C1309 1.523 . S
H1311 C1286 0.950 . S
H1312 C1288 0.950 . S
H1313 C1289 0.949 . S
H1314 C1291 0.950 . S
H1315 C1293 0.950 . S
C1316 C1317 1.349 . S
C1316 C1318 1.327 . S
C1316 H1341 0.950 . S
C1317 C1316 1.349 . S
C1317 C1333 1.349 . S
C1318 C1316 1.327 . S
C1318 C1337 1.429 . S
C1318 H1342 0.950 . S
C1319 C1336 1.574 . S
C1319 C1338 1.368 . S
C1319 H1343 0.949 . S
H1320 C1324 0.949 . S
C1321 C1322 1.349 . S
C1321 C1323 1.327 . S
C1321 H1344 0.950 . S
C1322 C1321 1.349 . S
C1322 C1334 1.349 . S
C1323 C1321 1.327 . S
C1323 C1339 1.429 . S
C1323 H1345 0.950 . S
C1324 H1320 0.949 . S
C1324 C1332 1.574 . S
C1324 C1340 1.368 . S
H1325 C1333 0.950 . S
H1326 C1331 0.950 . S
H1327 C1332 0.949 . S
H1328 C1334 0.950 . S
H1329 C1335 0.950 . S
H1330 C1336 0.949 . S
C1331 H1326 0.950 . S
C1331 C1333 1.327 . S
C1331 C1337 1.429 . S
C1332 C1324 1.574 . S
C1332 H1327 0.949 . S
C1332 C1338 1.368 . S
C1333 C1317 1.349 . S
C1333 H1325 0.950 . S
C1333 C1331 1.327 . S
C1334 C1322 1.349 . S
C1334 H1328 0.950 . S
C1334 C1335 1.327 . S
C1335 H1329 0.950 . S
C1335 C1334 1.327 . S
C1335 C1339 1.429 . S
C1336 C1319 1.574 . S
C1336 H1330 0.949 . S
C1336 C1340 1.368 . S
C1337 C1318 1.429 . S
C1337 C1331 1.429 . S
C1337 C1338 1.523 . S
C1338 C1319 1.368 . S
C1338 C1332 1.368 . S
C1338 C1337 1.523 . S
C1339 C1323 1.429 . S
C1339 C1335 1.429 . S
C1339 C1340 1.523 . S
C1340 C1324 1.368 . S
C1340 C1336 1.368 . S
C1340 C1339 1.523 . S
H1341 C1316 0.950 . S
H1342 C1318 0.950 . S
H1343 C1319 0.949 . S
H1344 C1321 0.950 . S
H1345 C1323 0.950 . S
C1346 C1347 1.349 . S
C1346 C1348 1.327 . S
C1346 H1371 0.950 . S
C1347 C1346 1.349 . S
C1347 C1363 1.349 . S
C1348 C1346 1.327 . S
C1348 C1367 1.429 . S
C1348 H1372 0.950 . S
C1349 C1366 1.574 . S
C1349 C1368 1.368 . S
C1349 H1373 0.949 . S
H1350 C1354 0.949 . S
C1351 C1352 1.349 . S
C1351 C1353 1.327 . S
C1351 H1374 0.950 . S
C1352 C1351 1.349 . S
C1352 C1364 1.349 . S
C1353 C1351 1.327 . S
C1353 C1369 1.429 . S
C1353 H1375 0.950 1_655 S
C1354 H1350 0.949 . S
C1354 C1362 1.574 . S
C1354 C1370 1.368 . S
H1355 C1363 0.950 . S
H1356 C1361 0.950 . S
H1357 C1362 0.949 . S
H1358 C1364 0.950 . S
H1359 C1365 0.950 . S
H1360 C1366 0.949 . S
C1361 H1356 0.950 . S
C1361 C1363 1.327 . S
C1361 C1367 1.429 . S
C1362 C1354 1.574 . S
C1362 H1357 0.949 . S
C1362 C1368 1.368 . S
C1363 C1347 1.349 . S
C1363 H1355 0.950 . S
C1363 C1361 1.327 . S
C1364 C1352 1.349 . S
C1364 H1358 0.950 . S
C1364 C1365 1.327 . S
C1365 H1359 0.950 . S
C1365 C1364 1.327 . S
C1365 C1369 1.429 . S
C1366 C1349 1.574 . S
C1366 H1360 0.949 . S
C1366 C1370 1.368 . S
C1367 C1348 1.429 . S
C1367 C1361 1.429 . S
C1367 C1368 1.523 . S
C1368 C1349 1.368 . S
C1368 C1362 1.368 . S
C1368 C1367 1.523 . S
C1369 C1353 1.429 . S
C1369 C1365 1.429 . S
C1369 C1370 1.523 1_655 S
C1370 C1354 1.368 . S
C1370 C1366 1.368 . S
C1370 C1369 1.523 1_455 S
H1371 C1346 0.950 . S
H1372 C1348 0.950 . S
H1373 C1349 0.949 . S
H1374 C1351 0.950 . S
H1375 C1353 0.950 1_455 S
C1376 C1377 1.349 . S
C1376 C1378 1.327 . S
C1376 H1401 0.950 . S
C1377 C1376 1.349 . S
C1377 C1393 1.349 . S
C1378 C1376 1.327 . S
C1378 C1397 1.429 . S
C1378 H1402 0.950 . S
C1379 C1396 1.574 . S
C1379 C1398 1.368 . S
C1379 H1403 0.949 . S
H1380 C1384 0.949 . S
C1381 C1382 1.349 . S
C1381 C1383 1.327 . S
C1381 H1404 0.950 . S
C1382 C1381 1.349 . S
C1382 C1394 1.349 . S
C1383 C1381 1.327 . S
C1383 C1399 1.429 . S
C1383 H1405 0.950 . S
C1384 H1380 0.949 . S
C1384 C1392 1.574 . S
C1384 C1400 1.368 . S
H1385 C1393 0.950 . S
H1386 C1391 0.950 . S
H1387 C1392 0.949 . S
H1388 C1394 0.950 . S
H1389 C1395 0.950 . S
H1390 C1396 0.949 . S
C1391 H1386 0.950 . S
C1391 C1393 1.327 . S
C1391 C1397 1.429 . S
C1392 C1384 1.574 . S
C1392 H1387 0.949 . S
C1392 C1398 1.368 . S
C1393 C1377 1.349 . S
C1393 H1385 0.950 . S
C1393 C1391 1.327 . S
C1394 C1382 1.349 . S
C1394 H1388 0.950 . S
C1394 C1395 1.327 . S
C1395 H1389 0.950 . S
C1395 C1394 1.327 . S
C1395 C1399 1.429 . S
C1396 C1379 1.574 . S
C1396 H1390 0.949 . S
C1396 C1400 1.368 . S
C1397 C1378 1.429 . S
C1397 C1391 1.429 . S
C1397 C1398 1.523 . S
C1398 C1379 1.368 . S
C1398 C1392 1.368 . S
C1398 C1397 1.523 . S
C1399 C1383 1.429 . S
C1399 C1395 1.429 . S
C1399 C1400 1.523 . S
C1400 C1384 1.368 . S
C1400 C1396 1.368 . S
C1400 C1399 1.523 . S
H1401 C1376 0.950 . S
H1402 C1378 0.950 . S
H1403 C1379 0.949 . S
H1404 C1381 0.950 . S
H1405 C1383 0.950 . S
C1406 C1407 1.349 . S
C1406 C1408 1.327 . S
C1406 H1431 0.950 . S
C1407 C1406 1.349 . S
C1407 C1423 1.349 . S
C1408 C1406 1.327 . S
C1408 C1427 1.429 . S
C1408 H1432 0.950 . S
C1409 C1426 1.574 . S
C1409 C1428 1.368 . S
C1409 H1433 0.949 . S
H1410 C1414 0.949 . S
C1411 C1412 1.349 . S
C1411 C1413 1.327 . S
C1411 H1434 0.950 . S
C1412 C1411 1.349 . S
C1412 C1424 1.349 . S
C1413 C1411 1.327 . S
C1413 C1429 1.429 . S
C1413 H1435 0.950 . S
C1414 H1410 0.949 . S
C1414 C1422 1.574 . S
C1414 C1430 1.368 . S
H1415 C1423 0.950 . S
H1416 C1421 0.950 . S
H1417 C1422 0.949 . S
H1418 C1424 0.950 . S
H1419 C1425 0.950 . S
H1420 C1426 0.949 . S
C1421 H1416 0.950 . S
C1421 C1423 1.327 . S
C1421 C1427 1.429 . S
C1422 C1414 1.574 . S
C1422 H1417 0.949 . S
C1422 C1428 1.368 . S
C1423 C1407 1.349 . S
C1423 H1415 0.950 . S
C1423 C1421 1.327 . S
C1424 C1412 1.349 . S
C1424 H1418 0.950 . S
C1424 C1425 1.327 . S
C1425 H1419 0.950 . S
C1425 C1424 1.327 . S
C1425 C1429 1.429 . S
C1426 C1409 1.574 . S
C1426 H1420 0.949 . S
C1426 C1430 1.368 . S
C1427 C1408 1.429 . S
C1427 C1421 1.429 . S
C1427 C1428 1.523 . S
C1428 C1409 1.368 . S
C1428 C1422 1.368 . S
C1428 C1427 1.523 . S
C1429 C1413 1.429 . S
C1429 C1425 1.429 . S
C1429 C1430 1.523 . S
C1430 C1414 1.368 . S
C1430 C1426 1.368 . S
C1430 C1429 1.523 . S
H1431 C1406 0.950 . S
H1432 C1408 0.950 . S
H1433 C1409 0.949 . S
H1434 C1411 0.950 . S
H1435 C1413 0.950 . S
C1436 C1437 1.349 . S
C1436 C1438 1.327 . S
C1436 H1461 0.950 . S
C1437 C1436 1.349 . S
C1437 C1453 1.349 . S
C1438 C1436 1.327 . S
C1438 C1457 1.429 . S
C1438 H1462 0.950 . S
C1439 C1456 1.574 . S
C1439 C1458 1.368 . S
C1439 H1463 0.949 . S
H1440 C1444 0.949 . S
C1441 C1442 1.349 . S
C1441 C1443 1.327 . S
C1441 H1464 0.950 . S
C1442 C1441 1.349 . S
C1442 C1454 1.349 . S
C1443 C1441 1.327 . S
C1443 C1459 1.429 . S
C1443 H1465 0.950 . S
C1444 H1440 0.949 . S
C1444 C1452 1.574 . S
C1444 C1460 1.368 . S
H1445 C1453 0.950 . S
H1446 C1451 0.950 . S
H1447 C1452 0.949 . S
H1448 C1454 0.950 . S
H1449 C1455 0.950 . S
H1450 C1456 0.949 . S
C1451 H1446 0.950 . S
C1451 C1453 1.327 . S
C1451 C1457 1.429 . S
C1452 C1444 1.574 . S
C1452 H1447 0.949 . S
C1452 C1458 1.368 . S
C1453 C1437 1.349 . S
C1453 H1445 0.950 . S
C1453 C1451 1.327 . S
C1454 C1442 1.349 . S
C1454 H1448 0.950 . S
C1454 C1455 1.327 . S
C1455 H1449 0.950 . S
C1455 C1454 1.327 . S
C1455 C1459 1.429 . S
C1456 C1439 1.574 . S
C1456 H1450 0.949 . S
C1456 C1460 1.368 . S
C1457 C1438 1.429 . S
C1457 C1451 1.429 . S
C1457 C1458 1.523 . S
C1458 C1439 1.368 . S
C1458 C1452 1.368 . S
C1458 C1457 1.523 . S
C1459 C1443 1.429 . S
C1459 C1455 1.429 . S
C1459 C1460 1.523 . S
C1460 C1444 1.368 . S
C1460 C1456 1.368 . S
C1460 C1459 1.523 . S
H1461 C1436 0.950 . S
H1462 C1438 0.950 . S
H1463 C1439 0.949 . S
H1464 C1441 0.950 . S
H1465 C1443 0.950 . S
C1466 C1467 1.349 . S
C1466 C1468 1.327 . S
C1466 H1491 0.950 . S
C1467 C1466 1.349 . S
C1467 C1483 1.349 . S
C1468 C1466 1.327 . S
C1468 C1487 1.429 . S
C1468 H1492 0.950 . S
C1469 C1486 1.574 . S
C1469 C1488 1.368 . S
C1469 H1493 0.949 . S
H1470 C1474 0.949 . S
C1471 C1472 1.349 . S
C1471 C1473 1.327 . S
C1471 H1494 0.950 . S
C1472 C1471 1.349 . S
C1472 C1484 1.349 . S
C1473 C1471 1.327 . S
C1473 C1489 1.429 . S
C1473 H1495 0.952 1_655 S
C1474 H1470 0.949 . S
C1474 C1482 1.574 . S
C1474 C1490 1.368 . S
H1475 C1483 0.950 . S
H1476 C1481 0.950 . S
H1477 C1482 0.949 . S
H1478 C1484 0.950 . S
H1479 C1485 0.950 . S
H1480 C1486 0.949 . S
C1481 H1476 0.950 . S
C1481 C1483 1.327 . S
C1481 C1487 1.429 . S
C1482 C1474 1.574 . S
C1482 H1477 0.949 . S
C1482 C1488 1.368 . S
C1483 C1467 1.349 . S
C1483 H1475 0.950 . S
C1483 C1481 1.327 . S
C1484 C1472 1.349 . S
C1484 H1478 0.950 . S
C1484 C1485 1.327 . S
C1485 H1479 0.950 . S
C1485 C1484 1.327 . S
C1485 C1489 1.429 . S
C1486 C1469 1.574 . S
C1486 H1480 0.949 . S
C1486 C1490 1.368 . S
C1487 C1468 1.429 . S
C1487 C1481 1.429 . S
C1487 C1488 1.523 . S
C1488 C1469 1.368 . S
C1488 C1482 1.368 . S
C1488 C1487 1.523 . S
C1489 C1473 1.429 . S
C1489 C1485 1.429 . S
C1489 C1490 1.523 1_655 S
C1490 C1474 1.368 . S
C1490 C1486 1.368 . S
C1490 C1489 1.523 1_455 S
H1491 C1466 0.950 . S
H1492 C1468 0.950 . S
H1493 C1469 0.949 . S
H1494 C1471 0.950 . S
H1495 C1473 0.952 1_455 S
C1496 C1497 1.349 . S
C1496 C1498 1.327 . S
C1496 H1521 0.950 . S
C1497 C1496 1.349 . S
C1497 C1513 1.349 . S
C1498 C1496 1.327 . S
C1498 C1517 1.429 . S
C1498 H1522 0.950 . S
C1499 C1516 1.574 . S
C1499 C1518 1.368 . S
C1499 H1523 0.949 . S
H1500 C1504 0.949 . S
C1501 C1502 1.349 . S
C1501 C1503 1.327 . S
C1501 H1524 0.950 . S
C1502 C1501 1.349 . S
C1502 C1514 1.349 . S
C1503 C1501 1.327 . S
C1503 C1519 1.429 . S
C1503 H1525 0.950 . S
C1504 H1500 0.949 . S
C1504 C1512 1.574 . S
C1504 C1520 1.368 . S
H1505 C1513 0.950 . S
H1506 C1511 0.950 . S
H1507 C1512 0.949 . S
H1508 C1514 0.950 . S
H1509 C1515 0.950 . S
H1510 C1516 0.949 . S
C1511 H1506 0.950 . S
C1511 C1513 1.327 . S
C1511 C1517 1.429 . S
C1512 C1504 1.574 . S
C1512 H1507 0.949 . S
C1512 C1518 1.368 . S
C1513 C1497 1.349 . S
C1513 H1505 0.950 . S
C1513 C1511 1.327 . S
C1514 C1502 1.349 . S
C1514 H1508 0.950 . S
C1514 C1515 1.327 . S
C1515 H1509 0.950 . S
C1515 C1514 1.327 . S
C1515 C1519 1.429 . S
C1516 C1499 1.574 . S
C1516 H1510 0.949 . S
C1516 C1520 1.368 . S
C1517 C1498 1.429 . S
C1517 C1511 1.429 . S
C1517 C1518 1.523 . S
C1518 C1499 1.368 . S
C1518 C1512 1.368 . S
C1518 C1517 1.523 . S
C1519 C1503 1.429 . S
C1519 C1515 1.429 . S
C1519 C1520 1.523 . S
C1520 C1504 1.368 . S
C1520 C1516 1.368 . S
C1520 C1519 1.523 . S
H1521 C1496 0.950 . S
H1522 C1498 0.950 . S
H1523 C1499 0.949 . S
H1524 C1501 0.950 . S
H1525 C1503 0.950 . S
C1526 C1527 1.349 . S
C1526 C1528 1.327 . S
C1526 H1551 0.950 . S
C1527 C1526 1.349 . S
C1527 C1543 1.349 . S
C1528 C1526 1.327 . S
C1528 C1547 1.429 . S
C1528 H1552 0.950 1_655 S
C1529 C1546 1.574 . S
C1529 C1548 1.368 . S
C1529 H1553 0.949 . S
H1530 C1534 0.949 . S
C1531 C1532 1.349 . S
C1531 C1533 1.327 . S
C1531 H1554 0.950 . S
C1532 C1531 1.349 . S
C1532 C1544 1.349 . S
C1533 C1531 1.327 . S
C1533 C1549 1.429 . S
C1533 H1555 0.950 . S
C1534 H1530 0.949 . S
C1534 C1542 1.574 . S
C1534 C1550 1.368 . S
H1535 C1543 0.950 . S
H1536 C1541 0.950 . S
H1537 C1542 0.949 . S
H1538 C1544 0.950 . S
H1539 C1545 0.950 . S
H1540 C1546 0.949 . S
C1541 H1536 0.950 . S
C1541 C1543 1.327 . S
C1541 C1547 1.429 . S
C1542 C1534 1.574 . S
C1542 H1537 0.949 . S
C1542 C1548 1.368 . S
C1543 C1527 1.349 . S
C1543 H1535 0.950 . S
C1543 C1541 1.327 . S
C1544 C1532 1.349 . S
C1544 H1538 0.950 . S
C1544 C1545 1.327 . S
C1545 H1539 0.950 . S
C1545 C1544 1.327 . S
C1545 C1549 1.429 . S
C1546 C1529 1.574 . S
C1546 H1540 0.949 . S
C1546 C1550 1.368 . S
C1547 C1528 1.429 . S
C1547 C1541 1.429 . S
C1547 C1548 1.523 1_655 S
C1548 C1529 1.368 . S
C1548 C1542 1.368 . S
C1548 C1547 1.523 1_455 S
C1549 C1533 1.429 . S
C1549 C1545 1.429 . S
C1549 C1550 1.523 . S
C1550 C1534 1.368 . S
C1550 C1546 1.368 . S
C1550 C1549 1.523 . S
H1551 C1526 0.950 . S
H1552 C1528 0.950 1_455 S
H1553 C1529 0.949 . S
H1554 C1531 0.950 . S
H1555 C1533 0.950 . S
C1556 C1557 1.349 . S
C1556 C1558 1.327 . S
C1556 H1581 0.950 . S
C1557 C1556 1.349 . S
C1557 C1573 1.349 . S
C1558 C1556 1.327 . S
C1558 C1577 1.429 . S
C1558 H1582 0.950 . S
C1559 C1576 1.574 . S
C1559 C1578 1.368 . S
C1559 H1583 0.949 . S
H1560 C1564 0.949 . S
C1561 C1562 1.349 . S
C1561 C1563 1.327 . S
C1561 H1584 0.950 . S
C1562 C1561 1.349 . S
C1562 C1574 1.349 . S
C1563 C1561 1.327 . S
C1563 C1579 1.429 . S
C1563 H1585 0.950 . S
C1564 H1560 0.949 . S
C1564 C1572 1.574 . S
C1564 C1580 1.368 . S
H1565 C1573 0.950 . S
H1566 C1571 0.950 . S
H1567 C1572 0.949 . S
H1568 C1574 0.950 . S
H1569 C1575 0.950 . S
H1570 C1576 0.949 . S
C1571 H1566 0.950 . S
C1571 C1573 1.327 . S
C1571 C1577 1.429 . S
C1572 C1564 1.574 . S
C1572 H1567 0.949 . S
C1572 C1578 1.368 . S
C1573 C1557 1.349 . S
C1573 H1565 0.950 . S
C1573 C1571 1.327 . S
C1574 C1562 1.349 . S
C1574 H1568 0.950 . S
C1574 C1575 1.327 . S
C1575 H1569 0.950 . S
C1575 C1574 1.327 . S
C1575 C1579 1.429 . S
C1576 C1559 1.574 . S
C1576 H1570 0.949 . S
C1576 C1580 1.368 . S
C1577 C1558 1.429 . S
C1577 C1571 1.429 . S
C1577 C1578 1.523 . S
C1578 C1559 1.368 . S
C1578 C1572 1.368 . S
C1578 C1577 1.523 . S
C1579 C1563 1.429 . S
C1579 C1575 1.429 . S
C1579 C1580 1.523 . S
C1580 C1564 1.368 . S
C1580 C1576 1.368 . S
C1580 C1579 1.523 . S
H1581 C1556 0.950 . S
H1582 C1558 0.950 . S
H1583 C1559 0.949 . S
H1584 C1561 0.950 . S
H1585 C1563 0.950 . S
C1586 C1587 1.349 . S
C1586 C1588 1.327 . S
C1586 H1611 0.950 . S
C1587 C1586 1.349 . S
C1587 C1603 1.349 . S
C1588 C1586 1.327 . S
C1588 C1607 1.429 . S
C1588 H1612 0.950 . S
C1589 C1606 1.574 . S
C1589 C1608 1.368 . S
C1589 H1613 0.949 . S
H1590 C1594 0.949 . S
C1591 C1592 1.349 . S
C1591 C1593 1.327 . S
C1591 H1614 0.950 . S
C1592 C1591 1.349 . S
C1592 C1604 1.349 . S
C1593 C1591 1.327 . S
C1593 C1609 1.429 . S
C1593 H1615 0.950 . S
C1594 H1590 0.949 . S
C1594 C1602 1.574 . S
C1594 C1610 1.368 . S
H1595 C1603 0.950 . S
H1596 C1601 0.950 . S
H1597 C1602 0.949 . S
H1598 C1604 0.950 . S
H1599 C1605 0.950 . S
H1600 C1606 0.949 . S
C1601 H1596 0.950 . S
C1601 C1603 1.327 . S
C1601 C1607 1.429 . S
C1602 C1594 1.574 . S
C1602 H1597 0.949 . S
C1602 C1608 1.368 . S
C1603 C1587 1.349 . S
C1603 H1595 0.950 . S
C1603 C1601 1.327 . S
C1604 C1592 1.349 . S
C1604 H1598 0.950 . S
C1604 C1605 1.327 . S
C1605 H1599 0.950 . S
C1605 C1604 1.327 . S
C1605 C1609 1.429 . S
C1606 C1589 1.574 . S
C1606 H1600 0.949 . S
C1606 C1610 1.368 . S
C1607 C1588 1.429 . S
C1607 C1601 1.429 . S
C1607 C1608 1.523 . S
C1608 C1589 1.368 . S
C1608 C1602 1.368 . S
C1608 C1607 1.523 . S
C1609 C1593 1.429 . S
C1609 C1605 1.429 . S
C1609 C1610 1.523 . S
C1610 C1594 1.368 . S
C1610 C1606 1.368 . S
C1610 C1609 1.523 . S
H1611 C1586 0.950 . S
H1612 C1588 0.950 . S
H1613 C1589 0.949 . S
H1614 C1591 0.950 . S
H1615 C1593 0.950 . S
C1616 C1617 1.349 . S
C1616 C1618 1.327 . S
C1616 H1641 0.950 . S
C1617 C1616 1.349 . S
C1617 C1633 1.349 . S
C1618 C1616 1.327 . S
C1618 C1637 1.429 . S
C1618 H1642 0.950 . S
C1619 C1636 1.574 . S
C1619 C1638 1.368 . S
C1619 H1643 0.949 . S
H1620 C1624 0.949 . S
C1621 C1622 1.349 . S
C1621 C1623 1.327 . S
C1621 H1644 0.950 . S
C1622 C1621 1.349 . S
C1622 C1634 1.349 . S
C1623 C1621 1.327 . S
C1623 C1639 1.429 . S
C1623 H1645 0.950 . S
C1624 H1620 0.949 . S
C1624 C1632 1.574 . S
C1624 C1640 1.368 . S
H1625 C1633 0.950 . S
H1626 C1631 0.950 . S
H1627 C1632 0.949 . S
H1628 C1634 0.950 . S
H1629 C1635 0.950 . S
H1630 C1636 0.949 . S
C1631 H1626 0.950 . S
C1631 C1633 1.327 . S
C1631 C1637 1.429 . S
C1632 C1624 1.574 . S
C1632 H1627 0.949 . S
C1632 C1638 1.368 . S
C1633 C1617 1.349 . S
C1633 H1625 0.950 . S
C1633 C1631 1.327 . S
C1634 C1622 1.349 . S
C1634 H1628 0.950 . S
C1634 C1635 1.327 . S
C1635 H1629 0.950 . S
C1635 C1634 1.327 . S
C1635 C1639 1.429 . S
C1636 C1619 1.574 . S
C1636 H1630 0.949 . S
C1636 C1640 1.368 . S
C1637 C1618 1.429 . S
C1637 C1631 1.429 . S
C1637 C1638 1.523 . S
C1638 C1619 1.368 . S
C1638 C1632 1.368 . S
C1638 C1637 1.523 . S
C1639 C1623 1.429 . S
C1639 C1635 1.429 . S
C1639 C1640 1.523 . S
C1640 C1624 1.368 . S
C1640 C1636 1.368 . S
C1640 C1639 1.523 . S
H1641 C1616 0.950 . S
H1642 C1618 0.950 . S
H1643 C1619 0.949 . S
H1644 C1621 0.950 . S
H1645 C1623 0.950 . S
C1646 C1647 1.349 . S
C1646 C1648 1.327 . S
C1646 H1671 0.950 . S
C1647 C1646 1.349 . S
C1647 C1663 1.349 . S
C1648 C1646 1.327 . S
C1648 C1667 1.429 . S
C1648 H1672 0.950 . S
C1649 C1666 1.574 . S
C1649 C1668 1.368 . S
C1649 H1673 0.949 . S
H1650 C1654 0.949 . S
C1651 C1652 1.349 . S
C1651 C1653 1.327 . S
C1651 H1674 0.950 . S
C1652 C1651 1.349 . S
C1652 C1664 1.349 . S
C1653 C1651 1.327 . S
C1653 C1669 1.429 . S
C1653 H1675 0.950 . S
C1654 H1650 0.949 . S
C1654 C1662 1.574 . S
C1654 C1670 1.368 . S
H1655 C1663 0.950 . S
H1656 C1661 0.950 . S
H1657 C1662 0.949 . S
H1658 C1664 0.950 . S
H1659 C1665 0.950 . S
H1660 C1666 0.949 . S
C1661 H1656 0.950 . S
C1661 C1663 1.327 . S
C1661 C1667 1.429 . S
C1662 C1654 1.574 . S
C1662 H1657 0.949 . S
C1662 C1668 1.368 . S
C1663 C1647 1.349 . S
C1663 H1655 0.950 . S
C1663 C1661 1.327 . S
C1664 C1652 1.349 . S
C1664 H1658 0.950 . S
C1664 C1665 1.327 . S
C1665 H1659 0.950 . S
C1665 C1664 1.327 . S
C1665 C1669 1.429 . S
C1666 C1649 1.574 . S
C1666 H1660 0.949 . S
C1666 C1670 1.368 . S
C1667 C1648 1.429 . S
C1667 C1661 1.429 . S
C1667 C1668 1.523 . S
C1668 C1649 1.368 . S
C1668 C1662 1.368 . S
C1668 C1667 1.523 . S
C1669 C1653 1.429 . S
C1669 C1665 1.429 . S
C1669 C1670 1.523 . S
C1670 C1654 1.368 . S
C1670 C1666 1.368 . S
C1670 C1669 1.523 . S
H1671 C1646 0.950 . S
H1672 C1648 0.950 . S
H1673 C1649 0.949 . S
H1674 C1651 0.950 . S
H1675 C1653 0.950 . S
C1676 C1677 1.349 . S
C1676 C1678 1.327 . S
C1676 H1701 0.950 . S
C1677 C1676 1.349 . S
C1677 C1693 1.349 . S
C1678 C1676 1.327 . S
C1678 C1697 1.429 . S
C1678 H1702 0.950 . S
C1679 C1696 1.574 . S
C1679 C1698 1.368 . S
C1679 H1703 0.949 . S
H1680 C1684 0.949 . S
C1681 C1682 1.349 . S
C1681 C1683 1.327 . S
C1681 H1704 0.950 . S
C1682 C1681 1.349 . S
C1682 C1694 1.349 . S
C1683 C1681 1.327 . S
C1683 C1699 1.429 . S
C1683 H1705 0.950 . S
C1684 H1680 0.949 . S
C1684 C1692 1.574 . S
C1684 C1700 1.368 . S
H1685 C1693 0.950 . S
H1686 C1691 0.950 . S
H1687 C1692 0.949 . S
H1688 C1694 0.950 . S
H1689 C1695 0.950 . S
H1690 C1696 0.949 . S
C1691 H1686 0.950 . S
C1691 C1693 1.327 . S
C1691 C1697 1.429 . S
C1692 C1684 1.574 . S
C1692 H1687 0.949 . S
C1692 C1698 1.368 . S
C1693 C1677 1.349 . S
C1693 H1685 0.950 . S
C1693 C1691 1.327 . S
C1694 C1682 1.349 . S
C1694 H1688 0.950 . S
C1694 C1695 1.327 . S
C1695 H1689 0.950 . S
C1695 C1694 1.327 . S
C1695 C1699 1.429 . S
C1696 C1679 1.574 . S
C1696 H1690 0.949 . S
C1696 C1700 1.368 . S
C1697 C1678 1.429 . S
C1697 C1691 1.429 . S
C1697 C1698 1.523 . S
C1698 C1679 1.368 . S
C1698 C1692 1.368 . S
C1698 C1697 1.523 . S
C1699 C1683 1.429 . S
C1699 C1695 1.429 . S
C1699 C1700 1.523 . S
C1700 C1684 1.368 . S
C1700 C1696 1.368 . S
C1700 C1699 1.523 . S
H1701 C1676 0.950 . S
H1702 C1678 0.950 . S
H1703 C1679 0.949 . S
H1704 C1681 0.950 . S
H1705 C1683 0.950 . S
C1706 C1707 1.349 . S
C1706 C1708 1.327 . S
C1706 H1731 0.950 . S
C1707 C1706 1.349 . S
C1707 C1723 1.349 . S
C1708 C1706 1.327 . S
C1708 C1727 1.429 . S
C1708 H1732 0.950 . S
C1709 C1726 1.574 . S
C1709 C1728 1.368 . S
C1709 H1733 0.949 . S
H1710 C1714 0.949 . S
C1711 C1712 1.349 . S
C1711 C1713 1.327 . S
C1711 H1734 0.950 . S
C1712 C1711 1.349 . S
C1712 C1724 1.349 . S
C1713 C1711 1.327 . S
C1713 C1729 1.429 . S
C1713 H1735 0.950 . S
C1714 H1710 0.949 . S
C1714 C1722 1.574 . S
C1714 C1730 1.368 . S
H1715 C1723 0.950 . S
H1716 C1721 0.950 . S
H1717 C1722 0.949 . S
H1718 C1724 0.950 . S
H1719 C1725 0.950 . S
H1720 C1726 0.949 . S
C1721 H1716 0.950 . S
C1721 C1723 1.327 . S
C1721 C1727 1.429 . S
C1722 C1714 1.574 . S
C1722 H1717 0.949 . S
C1722 C1728 1.368 . S
C1723 C1707 1.349 . S
C1723 H1715 0.950 . S
C1723 C1721 1.327 . S
C1724 C1712 1.349 . S
C1724 H1718 0.950 . S
C1724 C1725 1.327 . S
C1725 H1719 0.950 . S
C1725 C1724 1.327 . S
C1725 C1729 1.429 . S
C1726 C1709 1.574 . S
C1726 H1720 0.949 . S
C1726 C1730 1.368 . S
C1727 C1708 1.429 . S
C1727 C1721 1.429 . S
C1727 C1728 1.523 . S
C1728 C1709 1.368 . S
C1728 C1722 1.368 . S
C1728 C1727 1.523 . S
C1729 C1713 1.429 . S
C1729 C1725 1.429 . S
C1729 C1730 1.523 1_455 S
C1730 C1714 1.368 . S
C1730 C1726 1.368 . S
C1730 C1729 1.523 1_655 S
H1731 C1706 0.950 . S
H1732 C1708 0.950 . S
H1733 C1709 0.949 . S
H1734 C1711 0.950 . S
H1735 C1713 0.950 . S
C1736 C1737 1.349 . S
C1736 C1738 1.327 . S
C1736 H1761 0.950 . S
C1737 C1736 1.349 . S
C1737 C1753 1.349 . S
C1738 C1736 1.327 . S
C1738 C1757 1.429 . S
C1738 H1762 0.950 . S
C1739 C1756 1.574 . S
C1739 C1758 1.368 . S
C1739 H1763 0.949 . S
H1740 C1744 0.949 . S
C1741 C1742 1.349 . S
C1741 C1743 1.327 . S
C1741 H1764 0.950 . S
C1742 C1741 1.349 . S
C1742 C1754 1.349 . S
C1743 C1741 1.327 . S
C1743 C1759 1.429 . S
C1743 H1765 0.950 . S
C1744 H1740 0.949 . S
C1744 C1752 1.574 . S
C1744 C1760 1.368 . S
H1745 C1753 0.950 . S
H1746 C1751 0.950 . S
H1747 C1752 0.949 . S
H1748 C1754 0.950 . S
H1749 C1755 0.950 . S
H1750 C1756 0.949 . S
C1751 H1746 0.950 . S
C1751 C1753 1.327 . S
C1751 C1757 1.429 . S
C1752 C1744 1.574 . S
C1752 H1747 0.949 . S
C1752 C1758 1.368 . S
C1753 C1737 1.349 . S
C1753 H1745 0.950 . S
C1753 C1751 1.327 . S
C1754 C1742 1.349 . S
C1754 H1748 0.950 . S
C1754 C1755 1.327 . S
C1755 H1749 0.950 . S
C1755 C1754 1.327 . S
C1755 C1759 1.429 . S
C1756 C1739 1.574 . S
C1756 H1750 0.949 . S
C1756 C1760 1.368 . S
C1757 C1738 1.429 . S
C1757 C1751 1.429 . S
C1757 C1758 1.523 . S
C1758 C1739 1.368 . S
C1758 C1752 1.368 . S
C1758 C1757 1.523 . S
C1759 C1743 1.429 . S
C1759 C1755 1.429 . S
C1759 C1760 1.523 . S
C1760 C1744 1.368 . S
C1760 C1756 1.368 . S
C1760 C1759 1.523 . S
H1761 C1736 0.950 . S
H1762 C1738 0.950 . S
H1763 C1739 0.949 . S
H1764 C1741 0.950 . S
H1765 C1743 0.950 . S
C1766 C1767 1.349 . S
C1766 C1768 1.327 . S
C1766 H1791 0.950 . S
C1767 C1766 1.349 . S
C1767 C1783 1.349 . S
C1768 C1766 1.327 . S
C1768 C1787 1.429 . S
C1768 H1792 0.950 1_455 S
C1769 C1786 1.574 . S
C1769 C1788 1.368 . S
C1769 H1793 0.949 . S
H1770 C1774 0.949 . S
C1771 C1772 1.349 . S
C1771 C1773 1.327 . S
C1771 H1794 0.950 . S
C1772 C1771 1.349 . S
C1772 C1784 1.349 . S
C1773 C1771 1.327 . S
C1773 C1789 1.429 . S
C1773 H1795 0.950 . S
C1774 H1770 0.949 . S
C1774 C1782 1.574 . S
C1774 C1790 1.368 . S
H1775 C1783 0.950 . S
H1776 C1781 0.950 . S
H1777 C1782 0.949 . S
H1778 C1784 0.950 . S
H1779 C1785 0.950 . S
H1780 C1786 0.949 . S
C1781 H1776 0.950 . S
C1781 C1783 1.327 . S
C1781 C1787 1.429 . S
C1782 C1774 1.574 . S
C1782 H1777 0.949 . S
C1782 C1788 1.368 . S
C1783 C1767 1.349 . S
C1783 H1775 0.950 . S
C1783 C1781 1.327 . S
C1784 C1772 1.349 . S
C1784 H1778 0.950 . S
C1784 C1785 1.327 . S
C1785 H1779 0.950 . S
C1785 C1784 1.327 . S
C1785 C1789 1.429 . S
C1786 C1769 1.574 . S
C1786 H1780 0.949 . S
C1786 C1790 1.368 . S
C1787 C1768 1.429 . S
C1787 C1781 1.429 . S
C1787 C1788 1.523 1_455 S
C1788 C1769 1.368 . S
C1788 C1782 1.368 . S
C1788 C1787 1.523 1_655 S
C1789 C1773 1.429 . S
C1789 C1785 1.429 . S
C1789 C1790 1.523 . S
C1790 C1774 1.368 . S
C1790 C1786 1.368 . S
C1790 C1789 1.523 . S
H1791 C1766 0.950 . S
H1792 C1768 0.950 1_655 S
H1793 C1769 0.949 . S
H1794 C1771 0.950 . S
H1795 C1773 0.950 . S
C1796 C1797 1.349 . S
C1796 C1798 1.327 . S
C1796 H1821 0.950 . S
C1797 C1796 1.349 . S
C1797 C1813 1.349 . S
C1798 C1796 1.327 . S
C1798 C1817 1.429 . S
C1798 H1822 0.950 . S
C1799 C1816 1.574 . S
C1799 C1818 1.368 . S
C1799 H1823 0.949 . S
H1800 C1804 0.949 . S
C1801 C1802 1.349 . S
C1801 C1803 1.327 . S
C1801 H1824 0.950 . S
C1802 C1801 1.349 . S
C1802 C1814 1.349 . S
C1803 C1801 1.327 . S
C1803 C1819 1.429 . S
C1803 H1825 0.950 . S
C1804 H1800 0.949 . S
C1804 C1812 1.574 . S
C1804 C1820 1.368 . S
H1805 C1813 0.950 . S
H1806 C1811 0.950 . S
H1807 C1812 0.949 . S
H1808 C1814 0.950 . S
H1809 C1815 0.950 . S
H1810 C1816 0.949 . S
C1811 H1806 0.950 . S
C1811 C1813 1.327 . S
C1811 C1817 1.429 . S
C1812 C1804 1.574 . S
C1812 H1807 0.949 . S
C1812 C1818 1.368 . S
C1813 C1797 1.349 . S
C1813 H1805 0.950 . S
C1813 C1811 1.327 . S
C1814 C1802 1.349 . S
C1814 H1808 0.950 . S
C1814 C1815 1.327 . S
C1815 H1809 0.950 . S
C1815 C1814 1.327 . S
C1815 C1819 1.429 . S
C1816 C1799 1.574 . S
C1816 H1810 0.949 . S
C1816 C1820 1.368 . S
C1817 C1798 1.429 . S
C1817 C1811 1.429 . S
C1817 C1818 1.523 . S
C1818 C1799 1.368 . S
C1818 C1812 1.368 . S
C1818 C1817 1.523 . S
C1819 C1803 1.429 . S
C1819 C1815 1.429 . S
C1819 C1820 1.523 . S
C1820 C1804 1.368 . S
C1820 C1816 1.368 . S
C1820 C1819 1.523 . S
H1821 C1796 0.950 . S
H1822 C1798 0.950 . S
H1823 C1799 0.949 . S
H1824 C1801 0.950 . S
H1825 C1803 0.950 . S
C1826 C1827 1.349 . S
C1826 C1828 1.327 . S
C1826 H1851 0.950 . S
C1827 C1826 1.349 . S
C1827 C1843 1.349 . S
C1828 C1826 1.327 . S
C1828 C1847 1.429 . S
C1828 H1852 0.950 . S
C1829 C1846 1.574 . S
C1829 C1848 1.368 . S
C1829 H1853 0.949 . S
H1830 C1834 0.949 . S
C1831 C1832 1.349 . S
C1831 C1833 1.327 . S
C1831 H1854 0.950 . S
C1832 C1831 1.349 . S
C1832 C1844 1.349 . S
C1833 C1831 1.327 . S
C1833 C1849 1.429 . S
C1833 H1855 0.950 . S
C1834 H1830 0.949 . S
C1834 C1842 1.574 . S
C1834 C1850 1.368 . S
H1835 C1843 0.950 . S
H1836 C1841 0.950 . S
H1837 C1842 0.949 . S
H1838 C1844 0.950 . S
H1839 C1845 0.950 . S
H1840 C1846 0.949 . S
C1841 H1836 0.950 . S
C1841 C1843 1.327 . S
C1841 C1847 1.429 . S
C1842 C1834 1.574 . S
C1842 H1837 0.949 . S
C1842 C1848 1.368 . S
C1843 C1827 1.349 . S
C1843 H1835 0.950 . S
C1843 C1841 1.327 . S
C1844 C1832 1.349 . S
C1844 H1838 0.950 . S
C1844 C1845 1.327 . S
C1845 H1839 0.950 . S
C1845 C1844 1.327 . S
C1845 C1849 1.429 . S
C1846 C1829 1.574 . S
C1846 H1840 0.949 . S
C1846 C1850 1.368 . S
C1847 C1828 1.429 . S
C1847 C1841 1.429 . S
C1847 C1848 1.523 . S
C1848 C1829 1.368 . S
C1848 C1842 1.368 . S
C1848 C1847 1.523 . S
C1849 C1833 1.429 . S
C1849 C1845 1.429 . S
C1849 C1850 1.523 . S
C1850 C1834 1.368 . S
C1850 C1846 1.368 . S
C1850 C1849 1.523 . S
H1851 C1826 0.950 . S
H1852 C1828 0.950 . S
H1853 C1829 0.949 . S
H1854 C1831 0.950 . S
H1855 C1833 0.950 . S
C1856 C1857 1.349 . S
C1856 C1858 1.327 . S
C1856 H1881 0.950 . S
C1857 C1856 1.349 . S
C1857 C1873 1.349 . S
C1858 C1856 1.327 . S
C1858 C1877 1.429 . S
C1858 H1882 0.950 . S
C1859 C1876 1.574 . S
C1859 C1878 1.368 . S
C1859 H1883 0.949 . S
H1860 C1864 0.949 . S
C1861 C1862 1.349 . S
C1861 C1863 1.327 . S
C1861 H1884 0.950 . S
C1862 C1861 1.349 . S
C1862 C1874 1.349 . S
C1863 C1861 1.327 . S
C1863 C1879 1.429 . S
C1863 H1885 0.950 . S
C1864 H1860 0.949 . S
C1864 C1872 1.574 . S
C1864 C1880 1.368 . S
H1865 C1873 0.950 . S
H1866 C1871 0.950 . S
H1867 C1872 0.949 . S
H1868 C1874 0.950 . S
H1869 C1875 0.950 . S
H1870 C1876 0.949 . S
C1871 H1866 0.950 . S
C1871 C1873 1.327 . S
C1871 C1877 1.429 . S
C1872 C1864 1.574 . S
C1872 H1867 0.949 . S
C1872 C1878 1.368 . S
C1873 C1857 1.349 . S
C1873 H1865 0.950 . S
C1873 C1871 1.327 . S
C1874 C1862 1.349 . S
C1874 H1868 0.950 . S
C1874 C1875 1.327 . S
C1875 H1869 0.950 . S
C1875 C1874 1.327 . S
C1875 C1879 1.429 . S
C1876 C1859 1.574 . S
C1876 H1870 0.949 . S
C1876 C1880 1.368 . S
C1877 C1858 1.429 . S
C1877 C1871 1.429 . S
C1877 C1878 1.523 . S
C1878 C1859 1.368 . S
C1878 C1872 1.368 . S
C1878 C1877 1.523 . S
C1879 C1863 1.429 . S
C1879 C1875 1.429 . S
C1879 C1880 1.523 . S
C1880 C1864 1.368 . S
C1880 C1876 1.368 . S
C1880 C1879 1.523 . S
H1881 C1856 0.950 . S
H1882 C1858 0.950 . S
H1883 C1859 0.949 . S
H1884 C1861 0.950 . S
H1885 C1863 0.950 . S
C1886 C1887 1.349 . S
C1886 C1888 1.327 . S
C1886 H1911 0.950 . S
C1887 C1886 1.349 . S
C1887 C1903 1.349 . S
C1888 C1886 1.327 . S
C1888 C1907 1.429 . S
C1888 H1912 0.950 . S
C1889 C1906 1.574 . S
C1889 C1908 1.368 . S
C1889 H1913 0.949 . S
H1890 C1894 0.949 . S
C1891 C1892 1.349 . S
C1891 C1893 1.327 . S
C1891 H1914 0.950 . S
C1892 C1891 1.349 . S
C1892 C1904 1.349 . S
C1893 C1891 1.327 . S
C1893 C1909 1.429 . S
C1893 H1915 0.950 . S
C1894 H1890 0.949 . S
C1894 C1902 1.574 . S
C1894 C1910 1.368 . S
H1895 C1903 0.950 . S
H1896 C1901 0.950 . S
H1897 C1902 0.949 . S
H1898 C1904 0.950 . S
H1899 C1905 0.950 . S
H1900 C1906 0.949 . S
C1901 H1896 0.950 . S
C1901 C1903 1.327 . S
C1901 C1907 1.429 . S
C1902 C1894 1.574 . S
C1902 H1897 0.949 . S
C1902 C1908 1.368 . S
C1903 C1887 1.349 . S
C1903 H1895 0.950 . S
C1903 C1901 1.327 . S
C1904 C1892 1.349 . S
C1904 H1898 0.950 . S
C1904 C1905 1.327 . S
C1905 H1899 0.950 . S
C1905 C1904 1.327 . S
C1905 C1909 1.429 . S
C1906 C1889 1.574 . S
C1906 H1900 0.949 . S
C1906 C1910 1.368 . S
C1907 C1888 1.429 . S
C1907 C1901 1.429 . S
C1907 C1908 1.523 . S
C1908 C1889 1.368 . S
C1908 C1902 1.368 . S
C1908 C1907 1.523 . S
C1909 C1893 1.429 . S
C1909 C1905 1.429 . S
C1909 C1910 1.523 . S
C1910 C1894 1.368 . S
C1910 C1906 1.368 . S
C1910 C1909 1.523 . S
H1911 C1886 0.950 . S
H1912 C1888 0.950 . S
H1913 C1889 0.949 . S
H1914 C1891 0.950 . S
H1915 C1893 0.950 . S
C1916 C1917 1.349 . S
C1916 C1918 1.327 . S
C1916 H1941 0.950 . S
C1917 C1916 1.349 . S
C1917 C1933 1.349 . S
C1918 C1916 1.327 . S
C1918 C1937 1.429 . S
C1918 H1942 0.950 . S
C1919 C1936 1.574 . S
C1919 C1938 1.368 . S
C1919 H1943 0.949 . S
H1920 C1924 0.949 . S
C1921 C1922 1.349 . S
C1921 C1923 1.327 . S
C1921 H1944 0.950 . S
C1922 C1921 1.349 . S
C1922 C1934 1.349 . S
C1923 C1921 1.327 . S
C1923 C1939 1.429 . S
C1923 H1945 0.950 . S
C1924 H1920 0.949 . S
C1924 C1932 1.574 . S
C1924 C1940 1.368 . S
H1925 C1933 0.950 . S
H1926 C1931 0.950 . S
H1927 C1932 0.949 . S
H1928 C1934 0.950 . S
H1929 C1935 0.950 . S
H1930 C1936 0.949 . S
C1931 H1926 0.950 . S
C1931 C1933 1.327 . S
C1931 C1937 1.429 . S
C1932 C1924 1.574 . S
C1932 H1927 0.949 . S
C1932 C1938 1.368 . S
C1933 C1917 1.349 . S
C1933 H1925 0.950 . S
C1933 C1931 1.327 . S
C1934 C1922 1.349 . S
C1934 H1928 0.950 . S
C1934 C1935 1.327 . S
C1935 H1929 0.950 . S
C1935 C1934 1.327 . S
C1935 C1939 1.429 . S
C1936 C1919 1.574 . S
C1936 H1930 0.949 . S
C1936 C1940 1.368 . S
C1937 C1918 1.429 . S
C1937 C1931 1.429 . S
C1937 C1938 1.523 . S
C1938 C1919 1.368 . S
C1938 C1932 1.368 . S
C1938 C1937 1.523 . S
C1939 C1923 1.429 . S
C1939 C1935 1.429 . S
C1939 C1940 1.523 . S
C1940 C1924 1.368 . S
C1940 C1936 1.368 . S
C1940 C1939 1.523 . S
H1941 C1916 0.950 . S
H1942 C1918 0.950 . S
H1943 C1919 0.949 . S
H1944 C1921 0.950 . S
H1945 C1923 0.950 . S
C1946 C1947 1.349 . S
C1946 C1948 1.327 . S
C1946 H1971 0.950 . S
C1947 C1946 1.349 . S
C1947 C1963 1.349 . S
C1948 C1946 1.327 . S
C1948 C1967 1.429 . S
C1948 H1972 0.950 1_556 S
C1949 C1966 1.574 . S
C1949 C1968 1.368 . S
C1949 H1973 0.949 . S
H1950 C1954 0.949 . S
C1951 C1952 1.349 . S
C1951 C1953 1.327 . S
C1951 H1974 0.950 . S
C1952 C1951 1.349 . S
C1952 C1964 1.349 . S
C1953 C1951 1.327 . S
C1953 C1969 1.429 . S
C1953 H1975 0.950 1_554 S
C1954 H1950 0.949 . S
C1954 C1962 1.574 . S
C1954 C1970 1.368 . S
H1955 C1963 0.950 . S
H1956 C1961 0.950 . S
H1957 C1962 0.949 . S
H1958 C1964 0.950 . S
H1959 C1965 0.950 . S
H1960 C1966 0.949 . S
C1961 H1956 0.950 . S
C1961 C1963 1.327 . S
C1961 C1967 1.429 . S
C1962 C1954 1.574 . S
C1962 H1957 0.949 . S
C1962 C1968 1.368 1_554 S
C1963 C1947 1.349 . S
C1963 H1955 0.950 . S
C1963 C1961 1.327 . S
C1964 C1952 1.349 . S
C1964 H1958 0.950 . S
C1964 C1965 1.327 . S
C1965 H1959 0.950 . S
C1965 C1964 1.327 . S
C1965 C1969 1.429 . S
C1966 C1949 1.574 . S
C1966 H1960 0.949 . S
C1966 C1970 1.368 1_556 S
C1967 C1948 1.429 . S
C1967 C1961 1.429 . S
C1967 C1968 1.523 . S
C1968 C1949 1.368 . S
C1968 C1962 1.368 1_556 S
C1968 C1967 1.523 . S
C1969 C1953 1.429 . S
C1969 C1965 1.429 . S
C1969 C1970 1.523 . S
C1970 C1954 1.368 . S
C1970 C1966 1.368 1_554 S
C1970 C1969 1.523 . S
H1971 C1946 0.950 . S
H1972 C1948 0.950 1_554 S
H1973 C1949 0.949 . S
H1974 C1951 0.950 . S
H1975 C1953 0.950 1_556 S
C1976 C1977 1.349 . S
C1976 C1978 1.327 . S
C1976 H2001 0.950 . S
C1977 C1976 1.349 . S
C1977 C1993 1.349 . S
C1978 C1976 1.327 . S
C1978 C1997 1.429 . S
C1978 H2002 0.950 . S
C1979 C1996 1.574 . S
C1979 C1998 1.368 . S
C1979 H2003 0.949 . S
H1980 C1984 0.949 . S
C1981 C1982 1.349 . S
C1981 C1983 1.327 . S
C1981 H2004 0.950 . S
C1982 C1981 1.349 . S
C1982 C1994 1.349 . S
C1983 C1981 1.327 . S
C1983 C1999 1.429 . S
C1983 H2005 0.950 . S
C1984 H1980 0.949 . S
C1984 C1992 1.574 . S
C1984 C2000 1.368 . S
H1985 C1993 0.950 . S
H1986 C1991 0.950 . S
H1987 C1992 0.949 . S
H1988 C1994 0.950 . S
H1989 C1995 0.950 . S
H1990 C1996 0.949 . S
C1991 H1986 0.950 . S
C1991 C1993 1.327 . S
C1991 C1997 1.429 . S
C1992 C1984 1.574 . S
C1992 H1987 0.949 . S
C1992 C1998 1.368 . S
C1993 C1977 1.349 . S
C1993 H1985 0.950 . S
C1993 C1991 1.327 . S
C1994 C1982 1.349 . S
C1994 H1988 0.950 . S
C1994 C1995 1.327 . S
C1995 H1989 0.950 . S
C1995 C1994 1.327 . S
C1995 C1999 1.429 . S
C1996 C1979 1.574 . S
C1996 H1990 0.949 . S
C1996 C2000 1.368 . S
C1997 C1978 1.429 . S
C1997 C1991 1.429 . S
C1997 C1998 1.523 . S
C1998 C1979 1.368 . S
C1998 C1992 1.368 . S
C1998 C1997 1.523 . S
C1999 C1983 1.429 . S
C1999 C1995 1.429 . S
C1999 C2000 1.523 . S
C2000 C1984 1.368 . S
C2000 C1996 1.368 . S
C2000 C1999 1.523 . S
H2001 C1976 0.950 . S
H2002 C1978 0.950 . S
H2003 C1979 0.949 . S
H2004 C1981 0.950 . S
H2005 C1983 0.950 . S
C2006 C2007 1.349 . S
C2006 C2008 1.327 . S
C2006 H2031 0.950 . S
C2007 C2006 1.349 . S
C2007 C2023 1.349 . S
C2008 C2006 1.327 . S
C2008 C2027 1.429 . S
C2008 H2032 0.950 . S
C2009 C2026 1.574 . S
C2009 C2028 1.368 . S
C2009 H2033 0.949 . S
H2010 C2014 0.949 . S
C2011 C2012 1.349 . S
C2011 C2013 1.327 . S
C2011 H2034 0.950 . S
C2012 C2011 1.349 . S
C2012 C2024 1.349 . S
C2013 C2011 1.327 . S
C2013 C2029 1.429 . S
C2013 H2035 0.950 . S
C2014 H2010 0.949 . S
C2014 C2022 1.574 . S
C2014 C2030 1.368 . S
H2015 C2023 0.950 . S
H2016 C2021 0.950 . S
H2017 C2022 0.949 . S
H2018 C2024 0.950 . S
H2019 C2025 0.950 . S
H2020 C2026 0.949 . S
C2021 H2016 0.950 . S
C2021 C2023 1.327 . S
C2021 C2027 1.429 . S
C2022 C2014 1.574 . S
C2022 H2017 0.949 . S
C2022 C2028 1.368 . S
C2023 C2007 1.349 . S
C2023 H2015 0.950 . S
C2023 C2021 1.327 . S
C2024 C2012 1.349 . S
C2024 H2018 0.950 . S
C2024 C2025 1.327 . S
C2025 H2019 0.950 . S
C2025 C2024 1.327 . S
C2025 C2029 1.429 . S
C2026 C2009 1.574 . S
C2026 H2020 0.949 . S
C2026 C2030 1.368 . S
C2027 C2008 1.429 . S
C2027 C2021 1.429 . S
C2027 C2028 1.523 . S
C2028 C2009 1.368 . S
C2028 C2022 1.368 . S
C2028 C2027 1.523 . S
C2029 C2013 1.429 . S
C2029 C2025 1.429 . S
C2029 C2030 1.523 . S
C2030 C2014 1.368 . S
C2030 C2026 1.368 . S
C2030 C2029 1.523 . S
H2031 C2006 0.950 . S
H2032 C2008 0.950 . S
H2033 C2009 0.949 . S
H2034 C2011 0.950 . S
H2035 C2013 0.950 . S
C2036 C2037 1.349 . S
C2036 C2038 1.327 . S
C2036 H2061 0.950 . S
C2037 C2036 1.349 . S
C2037 C2053 1.349 . S
C2038 C2036 1.327 . S
C2038 C2057 1.429 . S
C2038 H2062 0.950 . S
C2039 C2056 1.574 . S
C2039 C2058 1.368 . S
C2039 H2063 0.949 . S
H2040 C2044 0.949 . S
C2041 C2042 1.349 . S
C2041 C2043 1.327 . S
C2041 H2064 0.950 . S
C2042 C2041 1.349 . S
C2042 C2054 1.349 . S
C2043 C2041 1.327 . S
C2043 C2059 1.429 . S
C2043 H2065 0.950 . S
C2044 H2040 0.949 . S
C2044 C2052 1.574 . S
C2044 C2060 1.368 . S
H2045 C2053 0.950 . S
H2046 C2051 0.950 . S
H2047 C2052 0.949 . S
H2048 C2054 0.950 . S
H2049 C2055 0.950 . S
H2050 C2056 0.949 . S
C2051 H2046 0.950 . S
C2051 C2053 1.327 . S
C2051 C2057 1.429 . S
C2052 C2044 1.574 . S
C2052 H2047 0.949 . S
C2052 C2058 1.368 . S
C2053 C2037 1.349 . S
C2053 H2045 0.950 . S
C2053 C2051 1.327 . S
C2054 C2042 1.349 . S
C2054 H2048 0.950 . S
C2054 C2055 1.327 . S
C2055 H2049 0.950 . S
C2055 C2054 1.327 . S
C2055 C2059 1.429 . S
C2056 C2039 1.574 . S
C2056 H2050 0.949 . S
C2056 C2060 1.368 . S
C2057 C2038 1.429 . S
C2057 C2051 1.429 . S
C2057 C2058 1.523 . S
C2058 C2039 1.368 . S
C2058 C2052 1.368 . S
C2058 C2057 1.523 . S
C2059 C2043 1.429 . S
C2059 C2055 1.429 . S
C2059 C2060 1.523 . S
C2060 C2044 1.368 . S
C2060 C2056 1.368 . S
C2060 C2059 1.523 . S
H2061 C2036 0.950 . S
H2062 C2038 0.950 . S
H2063 C2039 0.949 . S
H2064 C2041 0.950 . S
H2065 C2043 0.950 . S
C2066 C2067 1.349 . S
C2066 C2068 1.327 . S
C2066 H2091 0.950 . S
C2067 C2066 1.349 . S
C2067 C2083 1.349 . S
C2068 C2066 1.327 . S
C2068 C2087 1.429 . S
C2068 H2092 0.950 1_554 S
C2069 C2086 1.574 . S
C2069 C2088 1.368 . S
C2069 H2093 0.949 . S
H2070 C2074 0.949 . S
C2071 C2072 1.349 . S
C2071 C2073 1.327 . S
C2071 H2094 0.950 . S
C2072 C2071 1.349 . S
C2072 C2084 1.349 . S
C2073 C2071 1.327 . S
C2073 C2089 1.429 . S
C2073 H2095 0.950 1_556 S
C2074 H2070 0.949 . S
C2074 C2082 1.574 . S
C2074 C2090 1.368 . S
H2075 C2083 0.950 . S
H2076 C2081 0.950 . S
H2077 C2082 0.949 . S
H2078 C2084 0.950 . S
H2079 C2085 0.950 . S
H2080 C2086 0.949 . S
C2081 H2076 0.950 . S
C2081 C2083 1.327 . S
C2081 C2087 1.429 . S
C2082 C2074 1.574 . S
C2082 H2077 0.949 . S
C2082 C2088 1.368 1_556 S
C2083 C2067 1.349 . S
C2083 H2075 0.950 . S
C2083 C2081 1.327 . S
C2084 C2072 1.349 . S
C2084 H2078 0.950 . S
C2084 C2085 1.327 . S
C2085 H2079 0.950 . S
C2085 C2084 1.327 . S
C2085 C2089 1.429 . S
C2086 C2069 1.574 . S
C2086 H2080 0.949 . S
C2086 C2090 1.368 1_554 S
C2087 C2068 1.429 . S
C2087 C2081 1.429 . S
C2087 C2088 1.523 . S
C2088 C2069 1.368 . S
C2088 C2082 1.368 1_554 S
C2088 C2087 1.523 . S
C2089 C2073 1.429 . S
C2089 C2085 1.429 . S
C2089 C2090 1.523 . S
C2090 C2074 1.368 . S
C2090 C2086 1.368 1_556 S
C2090 C2089 1.523 . S
H2091 C2066 0.950 . S
H2092 C2068 0.950 1_556 S
H2093 C2069 0.949 . S
H2094 C2071 0.950 . S
H2095 C2073 0.950 1_554 S
C2096 C2097 1.349 . S
C2096 C2098 1.327 . S
C2096 H2121 0.950 . S
C2097 C2096 1.349 . S
C2097 C2113 1.349 . S
C2098 C2096 1.327 . S
C2098 C2117 1.429 . S
C2098 H2122 0.950 . S
C2099 C2116 1.574 1_565 S
C2099 C2118 1.368 . S
C2099 H2123 0.949 . S
H2100 C2104 0.949 . S
C2101 C2102 1.349 . S
C2101 C2103 1.327 . S
C2101 H2124 0.950 . S
C2102 C2101 1.349 . S
C2102 C2114 1.349 . S
C2103 C2101 1.327 . S
C2103 C2119 1.429 . S
C2103 H2125 0.950 . S
C2104 H2100 0.949 . S
C2104 C2112 1.574 1_545 S
C2104 C2120 1.368 . S
H2105 C2113 0.950 . S
H2106 C2111 0.950 . S
H2107 C2112 0.949 . S
H2108 C2114 0.950 . S
H2109 C2115 0.950 . S
H2110 C2116 0.949 . S
C2111 H2106 0.950 . S
C2111 C2113 1.327 . S
C2111 C2117 1.429 . S
C2112 C2104 1.574 1_565 S
C2112 H2107 0.949 . S
C2112 C2118 1.368 . S
C2113 C2097 1.349 . S
C2113 H2105 0.950 . S
C2113 C2111 1.327 . S
C2114 C2102 1.349 . S
C2114 H2108 0.950 . S
C2114 C2115 1.327 . S
C2115 H2109 0.950 . S
C2115 C2114 1.327 . S
C2115 C2119 1.429 . S
C2116 C2099 1.574 1_545 S
C2116 H2110 0.949 . S
C2116 C2120 1.368 . S
C2117 C2098 1.429 . S
C2117 C2111 1.429 . S
C2117 C2118 1.523 . S
C2118 C2099 1.368 . S
C2118 C2112 1.368 . S
C2118 C2117 1.523 . S
C2119 C2103 1.429 . S
C2119 C2115 1.429 . S
C2119 C2120 1.523 . S
C2120 C2104 1.368 . S
C2120 C2116 1.368 . S
C2120 C2119 1.523 . S
H2121 C2096 0.950 . S
H2122 C2098 0.950 . S
H2123 C2099 0.949 . S
H2124 C2101 0.950 . S
H2125 C2103 0.950 . S
C2126 C2127 1.349 . S
C2126 C2128 1.327 . S
C2126 H2151 0.950 . S
C2127 C2126 1.349 . S
C2127 C2143 1.349 . S
C2128 C2126 1.327 . S
C2128 C2147 1.429 . S
C2128 H2152 0.950 1_554 S
C2129 C2146 1.574 . S
C2129 C2148 1.368 . S
C2129 H2153 0.949 . S
H2130 C2134 0.949 . S
C2131 C2132 1.349 . S
C2131 C2133 1.327 . S
C2131 H2154 0.950 . S
C2132 C2131 1.349 . S
C2132 C2144 1.349 . S
C2133 C2131 1.327 . S
C2133 C2149 1.429 . S
C2133 H2155 0.950 1_556 S
C2134 H2130 0.949 . S
C2134 C2142 1.574 . S
C2134 C2150 1.368 . S
H2135 C2143 0.950 . S
H2136 C2141 0.950 . S
H2137 C2142 0.949 . S
H2138 C2144 0.950 . S
H2139 C2145 0.950 . S
H2140 C2146 0.949 . S
C2141 H2136 0.950 . S
C2141 C2143 1.327 . S
C2141 C2147 1.429 . S
C2142 C2134 1.574 . S
C2142 H2137 0.949 . S
C2142 C2148 1.368 1_556 S
C2143 C2127 1.349 . S
C2143 H2135 0.950 . S
C2143 C2141 1.327 . S
C2144 C2132 1.349 . S
C2144 H2138 0.950 . S
C2144 C2145 1.327 . S
C2145 H2139 0.950 . S
C2145 C2144 1.327 . S
C2145 C2149 1.429 . S
C2146 C2129 1.574 . S
C2146 H2140 0.949 . S
C2146 C2150 1.368 1_554 S
C2147 C2128 1.429 . S
C2147 C2141 1.429 . S
C2147 C2148 1.523 . S
C2148 C2129 1.368 . S
C2148 C2142 1.368 1_554 S
C2148 C2147 1.523 . S
C2149 C2133 1.429 . S
C2149 C2145 1.429 . S
C2149 C2150 1.523 . S
C2150 C2134 1.368 . S
C2150 C2146 1.368 1_556 S
C2150 C2149 1.523 . S
H2151 C2126 0.950 . S
H2152 C2128 0.950 1_556 S
H2153 C2129 0.949 . S
H2154 C2131 0.950 . S
H2155 C2133 0.950 1_554 S
C2156 C2157 1.349 . S
C2156 C2158 1.327 . S
C2156 H2181 0.950 . S
C2157 C2156 1.349 . S
C2157 C2173 1.349 . S
C2158 C2156 1.327 . S
C2158 C2177 1.429 . S
C2158 H2182 0.950 . S
C2159 C2176 1.574 1_545 S
C2159 C2178 1.368 . S
C2159 H2183 0.949 . S
H2160 C2164 0.949 . S
C2161 C2162 1.349 . S
C2161 C2163 1.327 . S
C2161 H2184 0.950 . S
C2162 C2161 1.349 . S
C2162 C2174 1.349 . S
C2163 C2161 1.327 . S
C2163 C2179 1.429 . S
C2163 H2185 0.950 . S
C2164 H2160 0.949 . S
C2164 C2172 1.574 1_565 S
C2164 C2180 1.368 . S
H2165 C2173 0.950 . S
H2166 C2171 0.950 . S
H2167 C2172 0.949 . S
H2168 C2174 0.950 . S
H2169 C2175 0.950 . S
H2170 C2176 0.949 . S
C2171 H2166 0.950 . S
C2171 C2173 1.327 . S
C2171 C2177 1.429 . S
C2172 C2164 1.574 1_545 S
C2172 H2167 0.949 . S
C2172 C2178 1.368 . S
C2173 C2157 1.349 . S
C2173 H2165 0.950 . S
C2173 C2171 1.327 . S
C2174 C2162 1.349 . S
C2174 H2168 0.950 . S
C2174 C2175 1.327 . S
C2175 H2169 0.950 . S
C2175 C2174 1.327 . S
C2175 C2179 1.429 . S
C2176 C2159 1.574 1_565 S
C2176 H2170 0.949 . S
C2176 C2180 1.368 . S
C2177 C2158 1.429 . S
C2177 C2171 1.429 . S
C2177 C2178 1.523 . S
C2178 C2159 1.368 . S
C2178 C2172 1.368 . S
C2178 C2177 1.523 . S
C2179 C2163 1.429 . S
C2179 C2175 1.429 . S
C2179 C2180 1.523 . S
C2180 C2164 1.368 . S
C2180 C2176 1.368 . S
C2180 C2179 1.523 . S
H2181 C2156 0.950 . S
H2182 C2158 0.950 . S
H2183 C2159 0.949 . S
H2184 C2161 0.950 . S
H2185 C2163 0.950 . S
C2186 C2187 1.349 . S
C2186 C2188 1.327 . S
C2186 H2211 0.950 . S
C2187 C2186 1.349 . S
C2187 C2203 1.349 . S
C2188 C2186 1.327 . S
C2188 C2207 1.429 . S
C2188 H2212 0.950 . S
C2189 C2206 1.574 . S
C2189 C2208 1.368 . S
C2189 H2213 0.949 . S
H2190 C2194 0.949 . S
C2191 C2192 1.349 . S
C2191 C2193 1.327 . S
C2191 H2214 0.950 . S
C2192 C2191 1.349 . S
C2192 C2204 1.349 . S
C2193 C2191 1.327 . S
C2193 C2209 1.429 . S
C2193 H2215 0.950 . S
C2194 H2190 0.949 . S
C2194 C2202 1.574 . S
C2194 C2210 1.368 . S
H2195 C2203 0.950 . S
H2196 C2201 0.950 . S
H2197 C2202 0.949 . S
H2198 C2204 0.950 . S
H2199 C2205 0.950 . S
H2200 C2206 0.949 . S
C2201 H2196 0.950 . S
C2201 C2203 1.327 . S
C2201 C2207 1.429 . S
C2202 C2194 1.574 . S
C2202 H2197 0.949 . S
C2202 C2208 1.368 . S
C2203 C2187 1.349 . S
C2203 H2195 0.950 . S
C2203 C2201 1.327 . S
C2204 C2192 1.349 . S
C2204 H2198 0.950 . S
C2204 C2205 1.327 . S
C2205 H2199 0.950 . S
C2205 C2204 1.327 . S
C2205 C2209 1.429 . S
C2206 C2189 1.574 . S
C2206 H2200 0.949 . S
C2206 C2210 1.368 . S
C2207 C2188 1.429 . S
C2207 C2201 1.429 . S
C2207 C2208 1.523 . S
C2208 C2189 1.368 . S
C2208 C2202 1.368 . S
C2208 C2207 1.523 . S
C2209 C2193 1.429 . S
C2209 C2205 1.429 . S
C2209 C2210 1.523 . S
C2210 C2194 1.368 . S
C2210 C2206 1.368 . S
C2210 C2209 1.523 . S
H2211 C2186 0.950 . S
H2212 C2188 0.950 . S
H2213 C2189 0.949 . S
H2214 C2191 0.950 . S
H2215 C2193 0.950 . S
C2216 C2217 1.349 . S
C2216 C2218 1.327 . S
C2216 H2241 0.950 . S
C2217 C2216 1.349 . S
C2217 C2233 1.349 . S
C2218 C2216 1.327 . S
C2218 C2237 1.429 . S
C2218 H2242 0.950 . S
C2219 C2236 1.574 1_545 S
C2219 C2238 1.368 . S
C2219 H2243 0.949 . S
H2220 C2224 0.949 . S
C2221 C2222 1.349 . S
C2221 C2223 1.327 . S
C2221 H2244 0.950 . S
C2222 C2221 1.349 . S
C2222 C2234 1.349 . S
C2223 C2221 1.327 . S
C2223 C2239 1.429 . S
C2223 H2245 0.950 . S
C2224 H2220 0.949 . S
C2224 C2232 1.574 1_565 S
C2224 C2240 1.368 . S
H2225 C2233 0.950 . S
H2226 C2231 0.950 . S
H2227 C2232 0.949 . S
H2228 C2234 0.950 . S
H2229 C2235 0.950 . S
H2230 C2236 0.949 . S
C2231 H2226 0.950 . S
C2231 C2233 1.327 . S
C2231 C2237 1.429 . S
C2232 C2224 1.574 1_545 S
C2232 H2227 0.949 . S
C2232 C2238 1.368 . S
C2233 C2217 1.349 . S
C2233 H2225 0.950 . S
C2233 C2231 1.327 . S
C2234 C2222 1.349 . S
C2234 H2228 0.950 . S
C2234 C2235 1.327 . S
C2235 H2229 0.950 . S
C2235 C2234 1.327 . S
C2235 C2239 1.429 . S
C2236 C2219 1.574 1_565 S
C2236 H2230 0.949 . S
C2236 C2240 1.368 . S
C2237 C2218 1.429 . S
C2237 C2231 1.429 . S
C2237 C2238 1.523 . S
C2238 C2219 1.368 . S
C2238 C2232 1.368 . S
C2238 C2237 1.523 . S
C2239 C2223 1.429 . S
C2239 C2235 1.429 . S
C2239 C2240 1.523 . S
C2240 C2224 1.368 . S
C2240 C2236 1.368 . S
C2240 C2239 1.523 . S
H2241 C2216 0.950 . S
H2242 C2218 0.950 . S
H2243 C2219 0.949 . S
H2244 C2221 0.950 . S
H2245 C2223 0.950 . S
C2246 C2247 1.349 . S
C2246 C2248 1.327 . S
C2246 H2271 0.950 . S
C2247 C2246 1.349 . S
C2247 C2263 1.349 . S
C2248 C2246 1.327 . S
C2248 C2267 1.429 . S
C2248 H2272 0.950 . S
C2249 C2266 1.574 . S
C2249 C2268 1.368 1_556 S
C2249 H2273 0.949 . S
H2250 C2254 0.949 . S
C2251 C2252 1.349 . S
C2251 C2253 1.327 . S
C2251 H2274 0.950 . S
C2252 C2251 1.349 . S
C2252 C2264 1.349 . S
C2253 C2251 1.327 . S
C2253 C2269 1.429 . S
C2253 H2275 0.950 . S
C2254 H2250 0.949 . S
C2254 C2262 1.574 . S
C2254 C2270 1.368 1_554 S
H2255 C2263 0.950 . S
H2256 C2261 0.950 1_556 S
H2257 C2262 0.949 . S
H2258 C2264 0.950 . S
H2259 C2265 0.950 1_554 S
H2260 C2266 0.949 . S
C2261 H2256 0.950 1_554 S
C2261 C2263 1.327 . S
C2261 C2267 1.429 . S
C2262 C2254 1.574 . S
C2262 H2257 0.949 . S
C2262 C2268 1.368 . S
C2263 C2247 1.349 . S
C2263 H2255 0.950 . S
C2263 C2261 1.327 . S
C2264 C2252 1.349 . S
C2264 H2258 0.950 . S
C2264 C2265 1.327 . S
C2265 H2259 0.950 1_556 S
C2265 C2264 1.327 . S
C2265 C2269 1.429 . S
C2266 C2249 1.574 . S
C2266 H2260 0.949 . S
C2266 C2270 1.368 . S
C2267 C2248 1.429 . S
C2267 C2261 1.429 . S
C2267 C2268 1.523 . S
C2268 C2249 1.368 1_554 S
C2268 C2262 1.368 . S
C2268 C2267 1.523 . S
C2269 C2253 1.429 . S
C2269 C2265 1.429 . S
C2269 C2270 1.523 . S
C2270 C2254 1.368 1_556 S
C2270 C2266 1.368 . S
C2270 C2269 1.523 . S
H2271 C2246 0.950 . S
H2272 C2248 0.950 . S
H2273 C2249 0.949 . S
H2274 C2251 0.950 . S
H2275 C2253 0.950 . S
C2276 C2277 1.349 . S
C2276 C2278 1.327 . S
C2276 H2301 0.950 . S
C2277 C2276 1.349 . S
C2277 C2293 1.349 . S
C2278 C2276 1.327 . S
C2278 C2297 1.429 . S
C2278 H2302 0.950 . S
C2279 C2296 1.574 1_545 S
C2279 C2298 1.368 . S
C2279 H2303 0.949 . S
H2280 C2284 0.949 . S
C2281 C2282 1.349 . S
C2281 C2283 1.327 . S
C2281 H2304 0.950 . S
C2282 C2281 1.349 . S
C2282 C2294 1.349 . S
C2283 C2281 1.327 . S
C2283 C2299 1.429 . S
C2283 H2305 0.950 . S
C2284 H2280 0.949 . S
C2284 C2292 1.574 1_565 S
C2284 C2300 1.368 . S
H2285 C2293 0.950 . S
H2286 C2291 0.950 . S
H2287 C2292 0.949 . S
H2288 C2294 0.950 . S
H2289 C2295 0.950 . S
H2290 C2296 0.949 . S
C2291 H2286 0.950 . S
C2291 C2293 1.327 . S
C2291 C2297 1.429 . S
C2292 C2284 1.574 1_545 S
C2292 H2287 0.949 . S
C2292 C2298 1.368 . S
C2293 C2277 1.349 . S
C2293 H2285 0.950 . S
C2293 C2291 1.327 . S
C2294 C2282 1.349 . S
C2294 H2288 0.950 . S
C2294 C2295 1.327 . S
C2295 H2289 0.950 . S
C2295 C2294 1.327 . S
C2295 C2299 1.429 . S
C2296 C2279 1.574 1_565 S
C2296 H2290 0.949 . S
C2296 C2300 1.368 . S
C2297 C2278 1.429 . S
C2297 C2291 1.429 . S
C2297 C2298 1.523 . S
C2298 C2279 1.368 . S
C2298 C2292 1.368 . S
C2298 C2297 1.523 . S
C2299 C2283 1.429 . S
C2299 C2295 1.429 . S
C2299 C2300 1.523 . S
C2300 C2284 1.368 . S
C2300 C2296 1.368 . S
C2300 C2299 1.523 . S
H2301 C2276 0.950 . S
H2302 C2278 0.950 . S
H2303 C2279 0.949 . S
H2304 C2281 0.950 . S
H2305 C2283 0.950 . S
C2306 C2307 1.349 . S
C2306 C2308 1.327 . S
C2306 H2331 0.950 . S
C2307 C2306 1.349 . S
C2307 C2323 1.349 . S
C2308 C2306 1.327 . S
C2308 C2327 1.429 . S
C2308 H2332 0.950 . S
C2309 C2326 1.574 . S
C2309 C2328 1.368 . S
C2309 H2333 0.949 . S
H2310 C2314 0.949 . S
C2311 C2312 1.349 . S
C2311 C2313 1.327 . S
C2311 H2334 0.950 . S
C2312 C2311 1.349 . S
C2312 C2324 1.349 . S
C2313 C2311 1.327 . S
C2313 C2329 1.429 . S
C2313 H2335 0.950 . S
C2314 H2310 0.949 . S
C2314 C2322 1.574 . S
C2314 C2330 1.368 . S
H2315 C2323 0.950 . S
H2316 C2321 0.950 . S
H2317 C2322 0.949 . S
H2318 C2324 0.950 . S
H2319 C2325 0.950 . S
H2320 C2326 0.949 . S
C2321 H2316 0.950 . S
C2321 C2323 1.327 . S
C2321 C2327 1.429 . S
C2322 C2314 1.574 . S
C2322 H2317 0.949 . S
C2322 C2328 1.368 . S
C2323 C2307 1.349 . S
C2323 H2315 0.950 . S
C2323 C2321 1.327 . S
C2324 C2312 1.349 . S
C2324 H2318 0.950 . S
C2324 C2325 1.327 . S
C2325 H2319 0.950 . S
C2325 C2324 1.327 . S
C2325 C2329 1.429 . S
C2326 C2309 1.574 . S
C2326 H2320 0.949 . S
C2326 C2330 1.368 . S
C2327 C2308 1.429 . S
C2327 C2321 1.429 . S
C2327 C2328 1.523 . S
C2328 C2309 1.368 . S
C2328 C2322 1.368 . S
C2328 C2327 1.523 . S
C2329 C2313 1.429 . S
C2329 C2325 1.429 . S
C2329 C2330 1.523 . S
C2330 C2314 1.368 . S
C2330 C2326 1.368 . S
C2330 C2329 1.523 . S
H2331 C2306 0.950 . S
H2332 C2308 0.950 . S
H2333 C2309 0.949 . S
H2334 C2311 0.950 . S
H2335 C2313 0.950 . S
C417 C4 1.644 . S
C422 C283 1.644 . S
C447 C290 1.644 . S
C452 C23 1.644 . S
C477 C30 1.644 . S
C482 C309 1.644 . S
C507 C270 1.644 . S
C512 C43 1.644 . S
C537 C56 1.644 . S
C542 C257 1.644 . S
C567 C75 1.644 . S
C572 C212 1.644 . S
C597 C231 1.644 . S
C602 C82 1.644 . S
C627 C101 1.644 . S
C632 C238 1.644 . S
C657 C114 1.644 . S
C662 C387 1.644 . S
C687 C127 1.644 . S
C692 C400 1.644 . S
C717 C407 1.644 . S
C722 C134 1.644 . S
C747 C374 1.644 . S
C752 C153 1.644 . S
C777 C160 1.644 . S
C782 C361 1.644 . S
C807 C322 1.644 . S
C812 C179 1.644 . S
C837 C192 1.644 . S
C842 C335 1.644 . S
C867 C348 1.644 . S
C872 C205 1.644 . S
C897 C3 1.339 . S
C902 C120 1.355 . S
C927 C18 1.339 . S
C932 C341 1.356 . S
C957 C146 1.355 . S
C962 C29 1.339 . S
C987 C42 1.339 . S
C992 C315 1.355 . S
C1017 C55 1.339 . S
C1022 C198 1.355 . S
C1047 C367 1.356 . S
C1052 C70 1.339 . S
C1077 C172 1.356 . S
C1082 C81 1.339 . S
C1107 C393 1.355 . S
C1112 C96 1.339 . S
C1137 C109 1.339 . S
C1142 C16 1.355 . S
C1167 C239 1.356 . S
C1172 C122 1.339 . S
C1197 C44 1.355 . S
C1202 C133 1.339 . S
C1227 C148 1.339 . S
C1232 C213 1.355 . S
C1257 C94 1.355 . S
C1262 C159 1.339 . S
C1287 C263 1.356 . S
C1292 C174 1.339 . S
C1317 C68 1.356 . S
C1322 C187 1.339 . S
C1347 C200 1.339 . S
C1352 C291 1.355 . S
C1377 C328 1.355 . S
C1382 C211 1.339 . S
C1407 C135 1.356 . S
C1412 C226 1.339 . S
C1437 C354 1.356 . S
C1442 C237 1.339 . S
C1467 C252 1.339 . S
C1472 C107 1.355 . S
C1497 C408 1.355 . S
C1502 C265 1.339 . S
C1527 C161 1.356 . S
C1532 C278 1.339 . S
C1557 C380 1.356 . S
C1562 C289 1.339 . S
C1587 C304 1.339 . S
C1592 C185 1.355 . S
C1617 C317 1.339 . S
C1622 C224 1.355 . S
C1647 C31 1.356 . S
C1652 C330 1.339 . S
C1677 C343 1.339 . S
C1682 C250 1.356 . S
C1707 C356 1.339 . S
C1712 C5 1.355 . S
C1737 C369 1.339 . S
C1742 C302 1.355 . S
C1767 C57 1.356 . S
C1772 C382 1.339 . S
C1797 C276 1.356 . S
C1802 C395 1.339 . S
C1827 C406 1.339 . S
C1832 C83 1.355 . S
C1857 C10 1.213 . S
C1862 C62 1.213 . S
C1887 C17 1.213 . S
C1892 C69 1.213 . S
C1917 C88 1.213 . S
C1922 C36 1.213 . S
C1947 C95 1.214 . S
C1952 C49 1.214 . S
C1977 C166 1.213 . S
C1982 C108 1.213 . S
C2007 C173 1.213 . S
C2012 C121 1.213 . S
C2037 C186 1.213 . S
C2042 C140 1.213 . S
C2067 C199 1.214 . S
C2072 C147 1.214 . S
C2097 C218 1.213 . S
C2102 C264 1.213 . S
C2127 C225 1.213 . S
C2132 C277 1.213 . S
C2157 C244 1.213 . S
C2162 C296 1.213 . S
C2187 C303 1.213 . S
C2192 C251 1.213 . S
C2217 C316 1.213 . S
C2222 C368 1.213 . S
C2247 C381 1.213 . S
C2252 C329 1.213 . S
C2277 C394 1.213 . S
C2282 C342 1.213 . S
C2307 C413 1.213 . S
C2312 C355 1.213 . S
