# Generated by pormake.
# Topology umz, (4)-cn, num edge types: 1
# Building blocks:
#     Node 0, Type 0, BuildingBlock: GALJAG_clean_sbu_0, # of connection points: 4
#     Node 1, Type 0, BuildingBlock: GALJAG_clean_sbu_0, # of connection points: 4
#     Node 2, Type 0, BuildingBlock: GALJAG_clean_sbu_0, # of connection points: 4
#     Node 3, Type 0, BuildingBlock: GALJAG_clean_sbu_0, # of connection points: 4
#     Node 4, Type 0, BuildingBlock: GALJAG_clean_sbu_0, # of connection points: 4
#     Node 5, Type 0, BuildingBlock: GALJAG_clean_sbu_0, # of connection points: 4
#     Node 6, Type 0, BuildingBlock: GALJAG_clean_sbu_0, # of connection points: 4
#     Node 7, Type 0, BuildingBlock: GALJAG_clean_sbu_0, # of connection points: 4
#     Node 8, Type 0, BuildingBlock: GALJAG_clean_sbu_0, # of connection points: 4
#     Node 9, Type 0, BuildingBlock: GALJAG_clean_sbu_0, # of connection points: 4
#     Node 10, Type 0, BuildingBlock: GALJAG_clean_sbu_0, # of connection points: 4
#     Node 11, Type 0, BuildingBlock: GALJAG_clean_sbu_0, # of connection points: 4
#     Node 12, Type 0, BuildingBlock: GALJAG_clean_sbu_0, # of connection points: 4
#     Node 13, Type 0, BuildingBlock: GALJAG_clean_sbu_0, # of connection points: 4
#     Node 14, Type 0, BuildingBlock: GALJAG_clean_sbu_0, # of connection points: 4
#     Node 15, Type 0, BuildingBlock: GALJAG_clean_sbu_0, # of connection points: 4
#     Edge 16, Type (0, 0), BuildingBlock: EZIPEK_clean_linker_0, # of connection points: 2
#     Edge 17, Type (0, 0), BuildingBlock: EZIPEK_clean_linker_0, # of connection points: 2
#     Edge 18, Type (0, 0), BuildingBlock: EZIPEK_clean_linker_0, # of connection points: 2
#     Edge 19, Type (0, 0), BuildingBlock: EZIPEK_clean_linker_0, # of connection points: 2
#     Edge 20, Type (0, 0), BuildingBlock: EZIPEK_clean_linker_0, # of connection points: 2
#     Edge 21, Type (0, 0), BuildingBlock: EZIPEK_clean_linker_0, # of connection points: 2
#     Edge 22, Type (0, 0), BuildingBlock: EZIPEK_clean_linker_0, # of connection points: 2
#     Edge 23, Type (0, 0), BuildingBlock: EZIPEK_clean_linker_0, # of connection points: 2
#     Edge 24, Type (0, 0), BuildingBlock: EZIPEK_clean_linker_0, # of connection points: 2
#     Edge 25, Type (0, 0), BuildingBlock: EZIPEK_clean_linker_0, # of connection points: 2
#     Edge 26, Type (0, 0), BuildingBlock: EZIPEK_clean_linker_0, # of connection points: 2
#     Edge 27, Type (0, 0), BuildingBlock: EZIPEK_clean_linker_0, # of connection points: 2
#     Edge 28, Type (0, 0), BuildingBlock: EZIPEK_clean_linker_0, # of connection points: 2
#     Edge 29, Type (0, 0), BuildingBlock: EZIPEK_clean_linker_0, # of connection points: 2
#     Edge 30, Type (0, 0), BuildingBlock: EZIPEK_clean_linker_0, # of connection points: 2
#     Edge 31, Type (0, 0), BuildingBlock: EZIPEK_clean_linker_0, # of connection points: 2
#     Edge 32, Type (0, 0), BuildingBlock: EZIPEK_clean_linker_0, # of connection points: 2
#     Edge 33, Type (0, 0), BuildingBlock: EZIPEK_clean_linker_0, # of connection points: 2
#     Edge 34, Type (0, 0), BuildingBlock: EZIPEK_clean_linker_0, # of connection points: 2
#     Edge 35, Type (0, 0), BuildingBlock: EZIPEK_clean_linker_0, # of connection points: 2
#     Edge 36, Type (0, 0), BuildingBlock: EZIPEK_clean_linker_0, # of connection points: 2
#     Edge 37, Type (0, 0), BuildingBlock: EZIPEK_clean_linker_0, # of connection points: 2
#     Edge 38, Type (0, 0), BuildingBlock: EZIPEK_clean_linker_0, # of connection points: 2
#     Edge 39, Type (0, 0), BuildingBlock: EZIPEK_clean_linker_0, # of connection points: 2
#     Edge 40, Type (0, 0), BuildingBlock: EZIPEK_clean_linker_0, # of connection points: 2
#     Edge 41, Type (0, 0), BuildingBlock: EZIPEK_clean_linker_0, # of connection points: 2
#     Edge 42, Type (0, 0), BuildingBlock: EZIPEK_clean_linker_0, # of connection points: 2
#     Edge 43, Type (0, 0), BuildingBlock: EZIPEK_clean_linker_0, # of connection points: 2
#     Edge 44, Type (0, 0), BuildingBlock: EZIPEK_clean_linker_0, # of connection points: 2
#     Edge 45, Type (0, 0), BuildingBlock: EZIPEK_clean_linker_0, # of connection points: 2
#     Edge 46, Type (0, 0), BuildingBlock: EZIPEK_clean_linker_0, # of connection points: 2
#     Edge 47, Type (0, 0), BuildingBlock: EZIPEK_clean_linker_0, # of connection points: 2
# Relax obj value: 0.183
# Max RMSD: 0.169
# Mean RMSD: 0.169
data_MOF--net-umz--node1-GALJAG_clean_sbu_0--edge1-EZIPEK_clean_linker_0
_symmetry_space_group_name_H-M    P1
_symmetry_Int_Tables_number       1
_symmetry_cell_setting            triclinic
loop_
_symmetry_equiv_pos_as_xyz
'x, y, z'
_cell_length_a     41.563891
_cell_length_b     41.464895
_cell_length_c     18.340802
_cell_angle_alpha  90.016215
_cell_angle_beta   89.996241
_cell_angle_gamma 89.71249
loop_
_atom_site_label
_atom_site_type_symbol
_atom_site_fract_x
_atom_site_fract_y
_atom_site_fract_z
_atom_type_partial_charge
In0 In 0.02415 0.61599 0.12554 0.0
O1 O 0.02754 0.57537 0.04145 0.0
O2 O 0.06569 0.60932 0.04614 0.0
C3 C 0.96351 0.60014 0.16463 0.0
C4 C 0.02117 0.67699 0.07697 0.0
C5 C 0.05555 0.60088 0.24873 0.0
O6 O 0.97078 0.60716 0.09993 0.0
O7 O 0.98652 0.60176 0.20881 0.0
O8 O 0.04545 0.62921 0.23629 0.0
O9 O 0.05108 0.5808 0.19787 0.0
C10 C 0.05383 0.58503 0.01528 0.0
O11 O 0.04247 0.66799 0.12171 0.0
O12 O 0.00092 0.65589 0.05984 0.0
In13 In 0.85399 0.03459 0.66623 0.0
O14 O 0.79974 0.0403 0.65791 0.0
O15 O 0.82303 0.00729 0.58596 0.0
C16 C 0.86176 0.06515 0.7936 0.0
C17 C 0.87364 0.07217 0.55646 0.0
C18 C 0.88775 0.9824 0.70728 0.0
O19 O 0.83741 0.04795 0.78089 0.0
O20 O 0.88102 0.06842 0.74101 0.0
O21 O 0.89912 0.00399 0.66648 0.0
O22 O 0.85857 0.98607 0.72431 0.0
C23 C 0.79731 0.02124 0.60454 0.0
O24 O 0.88164 0.04288 0.56168 0.0
O25 O 0.85639 0.08305 0.60763 0.0
In26 In 0.46414 0.86638 0.14778 0.0
O27 O 0.44929 0.81462 0.12554 0.0
O28 O 0.48634 0.83522 0.0597 0.0
C29 C 0.43238 0.88164 0.27069 0.0
C30 C 0.4337 0.89888 0.04117 0.0
C31 C 0.52485 0.87321 0.19577 0.0
O32 O 0.43548 0.85275 0.24996 0.0
O33 O 0.44428 0.90248 0.22887 0.0
O34 O 0.5122 0.89197 0.14953 0.0
O35 O 0.50684 0.85069 0.21663 0.0
C36 C 0.46865 0.81126 0.07276 0.0
O37 O 0.45916 0.9092 0.07053 0.0
O38 O 0.42278 0.87332 0.06869 0.0
In39 In 0.63223 0.45723 0.66073 0.0
O40 O 0.68554 0.44802 0.64356 0.0
O41 O 0.66327 0.48492 0.58017 0.0
C42 C 0.62641 0.42504 0.78701 0.0
C43 C 0.60763 0.42377 0.54882 0.0
C44 C 0.60102 0.51072 0.70436 0.0
O45 O 0.64982 0.44346 0.7746 0.0
O46 O 0.60725 0.42135 0.73448 0.0
O47 O 0.58808 0.48887 0.66691 0.0
O48 O 0.63053 0.5065 0.71784 0.0
C49 C 0.68828 0.46859 0.59328 0.0
O50 O 0.59689 0.45096 0.56823 0.0
O51 O 0.62992 0.41255 0.58826 0.0
In52 In 0.02956 0.85643 0.86329 0.0
O53 O 0.0354 0.88636 0.965 0.0
O54 O 0.07775 0.86506 0.91937 0.0
C55 C 0.97584 0.88925 0.8305 0.0
C56 C 0.02232 0.79737 0.92048 0.0
C57 C 0.05652 0.86895 0.73359 0.0
O58 O 0.99316 0.89596 0.88483 0.0
O59 O 0.98398 0.86409 0.79632 0.0
O60 O 0.04085 0.8434 0.74482 0.0
O61 O 0.0601 0.88693 0.78839 0.0
C62 C 0.06535 0.88185 0.96958 0.0
O63 O 0.04609 0.80477 0.88145 0.0
O64 O 0.00111 0.81898 0.92691 0.0
In65 In 0.62655 0.01386 0.36068 0.0
O66 O 0.59481 0.01962 0.46112 0.0
O67 O 0.62021 0.06086 0.42273 0.0
C68 C 0.61174 0.95324 0.32207 0.0
C69 C 0.68426 0.01112 0.42396 0.0
C70 C 0.60907 0.04217 0.23529 0.0
O71 O 0.59306 0.97085 0.35938 0.0
O72 O 0.63826 0.96607 0.30639 0.0
O73 O 0.63794 0.03437 0.24807 0.0
O74 O 0.58948 0.03679 0.28627 0.0
C75 C 0.60202 0.04891 0.47056 0.0
O76 O 0.6788 0.02915 0.36968 0.0
O77 O 0.66132 0.99322 0.44297 0.0
In78 In 0.45663 0.63971 0.83075 0.0
O79 O 0.45144 0.69451 0.83242 0.0
O80 O 0.48046 0.6725 0.91388 0.0
C81 C 0.42862 0.62856 0.7013 0.0
C82 C 0.41453 0.61809 0.93001 0.0
C83 C 0.51179 0.6069 0.80803 0.0
O84 O 0.44446 0.65389 0.71361 0.0
O85 O 0.4258 0.6097 0.75485 0.0
O86 O 0.49576 0.60461 0.86605 0.0
O87 O 0.50148 0.6277 0.76365 0.0
C88 C 0.46771 0.69796 0.88987 0.0
O89 O 0.44036 0.60347 0.91512 0.0
O90 O 0.40878 0.64278 0.89186 0.0
In91 In 0.86209 0.46964 0.358 0.0
O92 O 0.80905 0.45666 0.36247 0.0
O93 O 0.82748 0.48915 0.44236 0.0
C94 C 0.88438 0.43867 0.23987 0.0
C95 C 0.89067 0.43872 0.46922 0.0
C96 C 0.87071 0.52888 0.30232 0.0
O97 O 0.85521 0.4369 0.25901 0.0
O98 O 0.90231 0.45454 0.28198 0.0
O99 O 0.88759 0.51789 0.35413 0.0
O100 O 0.84853 0.51044 0.28154 0.0
C101 C 0.80377 0.47337 0.41896 0.0
O102 O 0.89651 0.46789 0.45455 0.0
O103 O 0.87151 0.42481 0.42623 0.0
In104 In 0.97109 0.3654 0.85774 0.0
O105 O 0.97227 0.39462 0.96307 0.0
O106 O 0.92663 0.37936 0.92291 0.0
C107 C 0.03042 0.37546 0.80528 0.0
C108 C 0.9713 0.3073 0.92007 0.0
C109 C 0.9411 0.38427 0.73529 0.0
O110 O 0.01496 0.39681 0.84007 0.0
O111 O 0.01677 0.34846 0.8012 0.0
O112 O 0.94497 0.35478 0.75065 0.0
O113 O 0.95125 0.40389 0.78238 0.0
C114 C 0.9422 0.39331 0.97266 0.0
O115 O 0.95164 0.31451 0.86987 0.0
O116 O 0.99157 0.32872 0.93583 0.0
In117 In 0.12289 0.96498 0.36109 0.0
O118 O 0.17677 0.95601 0.36698 0.0
O119 O 0.15494 0.98546 0.44891 0.0
C120 C 0.11574 0.93512 0.23238 0.0
C121 C 0.09947 0.9283 0.46864 0.0
C122 C 0.09569 0.02203 0.32706 0.0
O123 O 0.13802 0.95506 0.24346 0.0
O124 O 0.09778 0.92966 0.28617 0.0
O125 O 0.07963 -0.00203 0.34764 0.0
O126 O 0.12576 0.01796 0.32685 0.0
C127 C 0.18005 0.97179 0.42543 0.0
O128 O 0.08892 0.9564 0.45622 0.0
O129 O 0.12093 0.91827 0.42548 0.0
In130 In 0.52487 0.12156 0.85831 0.0
O131 O 0.53801 0.17405 0.87576 0.0
O132 O 0.50111 0.15385 0.94232 0.0
C133 C 0.55762 0.10682 0.73647 0.0
C134 C 0.55567 0.09171 0.96804 0.0
C135 C 0.46715 0.10873 0.80113 0.0
O136 O 0.55524 0.13554 0.75903 0.0
O137 O 0.5451 0.08585 0.77721 0.0
O138 O 0.48112 0.08972 0.84473 0.0
O139 O 0.48147 0.13496 0.78909 0.0
C140 C 0.51847 0.17786 0.92791 0.0
O141 O 0.52635 0.08675 0.95434 0.0
O142 O 0.56975 0.11079 0.92527 0.0
In143 In 0.35954 0.5388 0.32405 0.0
O144 O 0.39329 0.54817 0.41859 0.0
O145 O 0.35973 0.58533 0.39064 0.0
C146 C 0.39189 0.48599 0.28006 0.0
C147 C 0.30443 0.52449 0.39194 0.0
C148 C 0.36339 0.57038 0.19665 0.0
O149 O 0.40492 0.50885 0.31408 0.0
O150 O 0.36197 0.48892 0.27044 0.0
O151 O 0.33971 0.55278 0.2122 0.0
O152 O 0.38386 0.57363 0.24674 0.0
C153 C 0.38183 0.57569 0.43272 0.0
O154 O 0.30535 0.54236 0.33627 0.0
O155 O 0.33104 0.51237 0.41078 0.0
In156 In 0.95128 0.1373 0.16656 0.0
O157 O 0.94196 0.10244 0.07378 0.0
O158 O 0.90397 0.13457 0.1039 0.0
C159 C 0.00781 0.11386 0.21379 0.0
C160 C 0.96334 0.19301 0.09828 0.0
C161 C 0.91858 0.12652 0.29009 0.0
O162 O 0.99064 0.09936 0.16774 0.0
O163 O -0.00245 0.14124 0.23319 0.0
O164 O 0.92342 0.15475 0.26682 0.0
O165 O 0.92872 0.10417 0.24946 0.0
C166 C 0.9139 0.11276 0.06137 0.0
O167 O 0.94868 0.19199 0.15856 0.0
O168 O 0.97353 0.16625 0.07497 0.0
In169 In 0.35752 0.97118 0.64461 0.0
O170 O 0.39261 0.96423 0.55109 0.0
O171 O 0.3612 0.92521 0.57726 0.0
C172 C 0.37589 0.03262 0.66725 0.0
C173 C 0.2978 0.97298 0.59064 0.0
C174 C 0.37725 0.94587 0.77266 0.0
O175 O 0.39022 0.01376 0.62382 0.0
O176 O 0.35217 0.02015 0.6991 0.0
O177 O 0.35159 0.96199 0.76686 0.0
O178 O 0.39192 0.94118 0.71346 0.0
C179 C 0.38285 0.9362 0.5359 0.0
O180 O 0.30519 0.95493 0.64359 0.0
O181 O 0.31998 0.99086 0.56767 0.0
In182 In 0.53306 0.35313 0.1531 0.0
O183 O 0.53885 0.29837 0.15738 0.0
O184 O 0.50773 0.31822 0.07723 0.0
C185 C 0.56266 0.36749 0.27919 0.0
C186 C 0.57282 0.37476 0.04953 0.0
C187 C 0.47975 0.38882 0.17555 0.0
O188 O 0.53903 0.34853 0.27642 0.0
O189 O 0.57248 0.37744 0.2182 0.0
O190 O 0.49499 0.38926 0.11612 0.0
O191 O 0.48998 0.36869 0.22157 0.0
C192 C 0.52129 0.29347 0.10252 0.0
O193 O 0.54692 0.38904 0.06598 0.0
O194 O 0.57958 0.35027 0.08761 0.0
In195 In 0.13069 0.51077 0.62345 0.0
O196 O 0.18231 0.52855 0.61886 0.0
O197 O 0.16809 0.49142 0.54517 0.0
C198 C 0.10855 0.53778 0.74649 0.0
C199 C 0.10386 0.54422 0.51363 0.0
C200 C 0.11929 0.44967 0.66486 0.0
O201 O 0.1383 0.53618 0.73241 0.0
O202 O 0.09021 0.52697 0.69755 0.0
O203 O 0.10248 0.46428 0.61772 0.0
O204 O 0.14235 0.46596 0.68972 0.0
C205 C 0.18976 0.51046 0.56596 0.0
O206 O 0.10036 0.51414 0.52034 0.0
O207 O 0.11982 0.55767 0.56345 0.0
C208 C 0.02754 0.70816 0.96194 0.0
C209 C 0.02243 0.70814 0.03845 0.0
C210 C 0.01987 0.76703 0.0385 0.0
C211 C 0.02108 0.76671 0.961 0.0
N212 N 0.0207 0.73687 0.84811 0.0
N213 N 0.00954 0.73676 0.14909 0.0
C214 C 0.02342 0.73723 0.92241 0.0
C215 C 0.01745 0.73736 0.07676 0.0
N216 N 0.03775 0.68071 0.92752 0.0
N217 N 0.02265 0.79547 0.07574 0.0
H218 H 0.00797 0.71543 0.179 0.0
H219 H 0.00209 0.75712 0.17791 0.0
H220 H 0.02516 0.81775 0.05014 0.0
H221 H 0.02549 0.79671 0.13209 0.0
H222 H 0.04489 0.68008 0.8731 0.0
H223 H 0.04239 0.65924 0.95522 0.0
H224 H 0.01887 0.71571 0.81778 0.0
H225 H 0.01717 0.75771 0.81723 0.0
C226 C 0.73132 0.98554 0.48711 0.0
C227 C 0.71365 0.0137 0.46856 0.0
C228 C 0.75213 0.04692 0.53501 0.0
C229 C 0.76771 0.01854 0.56058 0.0
N230 N 0.76838 0.96055 0.57215 0.0
N231 N 0.7025 0.07017 0.49153 0.0
C232 C 0.75627 0.9877 0.53975 0.0
C233 C 0.72266 0.04413 0.49714 0.0
N234 N 0.72498 0.957 0.45283 0.0
N235 N 0.76602 0.07653 0.54333 0.0
H236 H 0.68001 0.06922 0.46671 0.0
H237 H 0.70664 0.09186 0.51862 0.0
H238 H 0.78825 0.0801 0.56813 0.0
H239 H 0.75707 0.09728 0.51826 0.0
H240 H 0.73925 0.93646 0.45896 0.0
H241 H 0.70732 0.95469 0.41279 0.0
H242 H 0.75873 0.93768 0.56418 0.0
H243 H 0.78595 0.96123 0.61272 0.0
C244 C 0.49767 0.76558 0.01114 0.0
C245 C 0.46861 0.7826 0.02496 0.0
C246 C 0.43877 0.74371 0.95149 0.0
C247 C 0.4682 0.72835 0.93204 0.0
N248 N 0.52623 0.72858 0.93156 0.0
N249 N 0.41305 0.7927 0.99276 0.0
C250 C 0.49787 0.74043 0.95846 0.0
C251 C 0.4396 0.7731 0.99066 0.0
N252 N 0.52475 0.77254 0.05031 0.0
N253 N 0.40986 0.72957 0.93641 0.0
H254 H 0.41262 0.81489 0.01931 0.0
H255 H 0.39252 0.78848 0.96165 0.0
H256 H 0.40753 0.70763 0.90948 0.0
H257 H 0.38811 0.73806 0.95742 0.0
H258 H 0.54569 0.75868 0.04786 0.0
H259 H 0.52538 0.79035 0.09045 0.0
H260 H 0.54854 0.73862 0.94349 0.0
H261 H 0.52726 0.71073 0.8915 0.0
C262 C 0.72965 0.44154 0.51515 0.0
C263 C 0.71724 0.47029 0.5467 0.0
C264 C 0.75803 0.50154 0.48181 0.0
C265 C 0.77307 0.47236 0.45939 0.0
N266 N 0.77678 0.4142 0.46941 0.0
N267 N 0.72242 0.52743 0.56875 0.0
C268 C 0.75989 0.44221 0.4799 0.0
C269 C 0.73211 0.50033 0.53227 0.0
N270 N 0.71201 0.4138 0.5157 0.0
N271 N 0.7678 0.5303 0.45317 0.0
H272 H 0.704 0.52738 0.60735 0.0
H273 H 0.73462 0.54927 0.56579 0.0
H274 H 0.78607 0.53203 0.41437 0.0
H275 H 0.75566 0.55198 0.46221 0.0
H276 H 0.71877 0.39319 0.48686 0.0
H277 H 0.68895 0.4124 0.53758 0.0
H278 H 0.7695 0.39216 0.49099 0.0
H279 H 0.79964 0.41327 0.44622 0.0
C280 C 0.93986 0.27023 0.00019 0.0
C281 C 0.96892 0.2774 0.96323 0.0
C282 C -0.00447 0.23196 0.0239 0.0
C283 C 0.96553 0.22267 0.054 0.0
N284 N 0.90754 0.22888 0.05592 0.0
N285 N 0.023 0.26211 0.92966 0.0
C286 C 0.9372 0.24063 0.03812 0.0
C287 C -0.00359 0.25741 0.97215 0.0
N288 N 0.91526 0.29224 0.00231 0.0
N289 N 0.02331 0.21736 0.04681 0.0
H290 H 0.02426 0.28016 0.89014 0.0
H291 H 0.04252 0.24627 0.92865 0.0
H292 H 0.02374 0.19928 0.08633 0.0
H293 H 0.04612 0.22535 0.03209 0.0
H294 H 0.89508 0.28948 0.03541 0.0
H295 H 0.91634 0.31476 0.97725 0.0
H296 H 0.88617 0.23954 0.03819 0.0
H297 H 0.90402 0.20676 0.08155 0.0
C298 C 0.24947 0.00124 0.5411 0.0
C299 C 0.26632 0.97197 0.55375 0.0
C300 C 0.22477 0.94216 0.48816 0.0
C301 C 0.21024 0.97187 0.46759 0.0
N302 N 0.21175 0.03004 0.46419 0.0
N303 N 0.27319 0.91507 0.52792 0.0
C304 C 0.22335 0.00156 0.49138 0.0
C305 C 0.25484 0.9425 0.52448 0.0
N306 N 0.25783 0.02853 0.57828 0.0
N307 N 0.20936 0.91359 0.47599 0.0
H308 H 0.29551 0.91389 0.55354 0.0
H309 H 0.26759 0.89411 0.49937 0.0
H310 H 0.18704 0.91192 0.45053 0.0
H311 H 0.21723 0.89173 0.49776 0.0
H312 H 0.24439 0.04978 0.57659 0.0
H313 H 0.27634 0.02896 0.61671 0.0
H314 H 0.22258 0.05222 0.47399 0.0
H315 H 0.19322 0.03124 0.42593 0.0
C316 C 0.54817 0.21677 0.00653 0.0
C317 C 0.51876 0.20676 0.97487 0.0
C318 C 0.4903 0.24954 0.04101 0.0
C319 C 0.5203 0.26229 0.06358 0.0
N320 N 0.5785 0.26158 0.05298 0.0
N321 N 0.46215 0.21606 0.95378 0.0
C322 C 0.54949 0.24686 0.04267 0.0
C323 C 0.4898 0.22371 0.99008 0.0
N324 N 0.57468 0.19712 0.00466 0.0
N325 N 0.46234 0.26152 0.0697 0.0
H326 H 0.46098 0.19773 0.91493 0.0
H327 H 0.44114 0.22978 0.95721 0.0
H328 H 0.4619 0.27989 0.1086 0.0
H329 H 0.43994 0.25113 0.06056 0.0
H330 H 0.59561 0.20202 0.03386 0.0
H331 H 0.57471 0.17429 0.9809 0.0
H332 H 0.5999 0.25267 0.031 0.0
H333 H 0.58108 0.28429 0.07634 0.0
C334 C 0.26528 0.48962 0.45959 0.0
C335 C 0.27506 0.52072 0.43642 0.0
C336 C 0.22757 0.54461 0.49408 0.0
C337 C 0.21988 0.51416 0.52442 0.0
N338 N 0.23429 0.45862 0.54657 0.0
N339 N 0.26953 0.57876 0.44746 0.0
C340 C 0.23958 0.48687 0.51024 0.0
C341 C 0.25739 0.54853 0.45809 0.0
N342 N 0.27952 0.46267 0.43089 0.0
N343 N 0.20584 0.56948 0.49602 0.0
H344 H 0.29179 0.58316 0.4235 0.0
H345 H 0.259 0.5994 0.46969 0.0
H346 H 0.18309 0.56761 0.51945 0.0
H347 H 0.20908 0.59093 0.46739 0.0
H348 H 0.27116 0.43941 0.44043 0.0
H349 H 0.29766 0.46363 0.39168 0.0
H350 H 0.24988 0.43891 0.54383 0.0
H351 H 0.21597 0.45592 0.58495 0.0
C352 C 0.05522 0.58307 0.87958 0.0
C353 C 0.0675 0.57196 0.94723 0.0
C354 C 0.10584 0.53696 0.88349 0.0
C355 C 0.09573 0.55053 0.81603 0.0
N356 N 0.0655 0.59119 0.75101 0.0
N357 N 0.10724 0.54205 0.01526 0.0
C358 C 0.07165 0.57486 0.81433 0.0
C359 C 0.09377 0.55012 0.94972 0.0
N360 N 0.02762 0.60115 0.87751 0.0
N361 N 0.12546 0.51038 0.88433 0.0
H362 H 0.09817 0.55027 0.06501 0.0
H363 H 0.12869 0.52912 0.01997 0.0
H364 H 0.1341 0.49932 0.83715 0.0
H365 H 0.13077 0.49744 0.93151 0.0
H366 H 0.0157 0.60701 0.82931 0.0
H367 H 0.01504 0.60808 0.92419 0.0
H368 H 0.05058 0.61141 0.74821 0.0
H369 H 0.07785 0.58666 0.70254 0.0
C370 C 0.87491 0.09964 0.36001 0.0
C371 C 0.90277 0.11928 0.36032 0.0
C372 C 0.90854 0.11211 0.49246 0.0
C373 C 0.88163 0.0913 0.49131 0.0
N374 N 0.83534 0.0697 0.42967 0.0
N375 N 0.94253 0.1497 0.42696 0.0
C376 C 0.86353 0.08655 0.42671 0.0
C377 C 0.91826 0.12755 0.4268 0.0
N378 N 0.85992 0.09297 0.29534 0.0
N379 N 0.92572 0.11566 0.55557 0.0
H380 H 0.95136 0.16049 0.37984 0.0
H381 H 0.95269 0.15918 0.4741 0.0
H382 H 0.91859 0.10548 0.60499 0.0
H383 H 0.94781 0.12723 0.55885 0.0
H384 H 0.84207 0.07571 0.28908 0.0
H385 H 0.86601 0.10434 0.24652 0.0
H386 H 0.81921 0.0678 0.38656 0.0
H387 H 0.82683 0.05911 0.4774 0.0
C388 C 0.38506 0.91511 0.9681 0.0
C389 C 0.41907 0.91372 0.97531 0.0
C390 C 0.42431 0.94024 0.85697 0.0
C391 C 0.39096 0.93591 0.84392 0.0
N392 N 0.34024 0.91377 0.88418 0.0
N393 N 0.47109 0.91796 0.91586 0.0
C394 C 0.37137 0.92196 0.89878 0.0
C395 C 0.43882 0.92445 0.917 0.0
N396 N 0.36577 0.9109 0.02764 0.0
N397 N 0.44208 0.96031 0.81391 0.0
H398 H 0.48279 0.90407 0.9551 0.0
H399 H 0.48552 0.92302 0.87082 0.0
H400 H 0.43205 0.97426 0.77233 0.0
H401 H 0.46591 0.96613 0.82565 0.0
H402 H 0.34094 0.91446 0.02616 0.0
H403 H 0.37488 0.90761 0.08012 0.0
H404 H 0.3261 0.9007 0.92051 0.0
H405 H 0.32959 0.91692 0.83322 0.0
C406 C 0.57828 0.41494 0.35504 0.0
C407 C 0.57473 0.38105 0.34858 0.0
C408 C 0.58988 0.37493 0.47704 0.0
C409 C 0.59731 0.40831 0.47997 0.0
N410 N 0.60791 0.4575 0.41321 0.0
N411 N 0.58305 0.32802 0.39979 0.0
C412 C 0.5943 0.42759 0.41647 0.0
C413 C 0.58222 0.36073 0.40857 0.0
N414 N 0.56491 0.43537 0.30483 0.0
N415 N 0.58875 0.35707 0.53957 0.0
H416 H 0.57841 0.3168 0.35002 0.0
H417 H 0.59143 0.3123 0.43991 0.0
H418 H 0.59314 0.36676 0.59105 0.0
H419 H 0.58037 0.33344 0.54107 0.0
H420 H 0.56459 0.46034 0.31155 0.0
H421 H 0.5507 0.42754 0.26155 0.0
H422 H 0.60853 0.47109 0.3654 0.0
H423 H 0.622 0.46701 0.45496 0.0
C424 C 0.09295 0.9426 0.1078 0.0
C425 C 0.10823 0.92228 0.1596 0.0
C426 C 0.09885 0.87518 0.0823 0.0
C427 C 0.08411 0.89568 0.02994 0.0
N428 N 0.07441 0.94917 0.98341 0.0
N429 N 0.13199 0.8711 0.19098 0.0
C430 C 0.08359 0.92954 0.03969 0.0
C431 C 0.11328 0.88911 0.145 0.0
N432 N 0.08561 0.97383 0.12532 0.0
N433 N 0.09735 0.84242 0.07442 0.0
H434 H 0.14268 0.88076 0.23758 0.0
H435 H 0.1392 0.84753 0.17978 0.0
H436 H 0.08723 0.83123 0.02905 0.0
H437 H 0.10416 0.82623 0.11501 0.0
H438 H 0.07122 0.9887 0.09304 0.0
H439 H 0.09167 0.9842 0.17517 0.0
H440 H 0.07643 0.97418 0.98487 0.0
H441 H 0.06774 0.94024 0.93241 0.0
C442 C 0.59751 0.07299 0.67033 0.0
C443 C 0.57369 0.09747 0.66747 0.0
C444 C 0.57339 0.09453 0.53364 0.0
C445 C 0.59336 0.06673 0.53769 0.0
N446 N 0.62587 0.02979 0.60848 0.0
N447 N 0.5391 0.13274 0.59734 0.0
C448 C 0.60593 0.05611 0.60567 0.0
C449 C 0.56213 0.10909 0.59931 0.0
N450 N 0.6129 0.06684 0.73486 0.0
N451 N 0.565 0.10682 0.46704 0.0
H452 H 0.5312 0.14511 0.6434 0.0
H453 H 0.52642 0.13916 0.5506 0.0
H454 H 0.57095 0.09565 0.41788 0.0
H455 H 0.55381 0.1291 0.45985 0.0
H456 H 0.63261 0.05144 0.74007 0.0
H457 H 0.60793 0.07967 0.78257 0.0
H458 H 0.63235 0.01818 0.65662 0.0
H459 H 0.63508 0.01848 0.56221 0.0
C460 C 0.37494 0.61735 0.11666 0.0
C461 C 0.36888 0.58392 0.12328 0.0
C462 C 0.38265 0.57629 0.99459 0.0
C463 C 0.39438 0.60824 0.99232 0.0
N464 N 0.40476 0.65878 0.0538 0.0
N465 N 0.36966 0.53044 0.07018 0.0
C466 C 0.39086 0.62896 0.05355 0.0
C467 C 0.37286 0.56307 0.06238 0.0
N468 N 0.36544 0.63791 0.17087 0.0
N469 N 0.38086 0.55865 0.93176 0.0
H470 H 0.36288 0.5194 0.11874 0.0
H471 H 0.37626 0.51399 0.02988 0.0
H472 H 0.38767 0.56792 0.88118 0.0
H473 H 0.36969 0.53626 0.92867 0.0
H474 H 0.36649 0.66292 0.16621 0.0
H475 H 0.35346 0.62998 0.21752 0.0
H476 H 0.40605 0.6733 0.10004 0.0
H477 H 0.4175 0.66805 0.00974 0.0
C478 C 0.94972 0.40836 0.61185 0.0
C479 C 0.92829 0.39546 0.66452 0.0
C480 C 0.88214 0.41145 0.58971 0.0
C481 C 0.90361 0.42267 0.53507 0.0
N482 N 0.95745 0.42622 0.48713 0.0
N483 N 0.87478 0.37953 0.69928 0.0
C484 C 0.93734 0.41957 0.54416 0.0
C485 C 0.89469 0.39516 0.65179 0.0
N486 N 0.98187 0.41036 0.627 0.0
N487 N 0.84996 0.41816 0.5846 0.0
H488 H 0.88306 0.36837 0.74672 0.0
H489 H 0.85051 0.37544 0.68891 0.0
H490 H 0.83987 0.431 0.54138 0.0
H491 H 0.83358 0.41367 0.62628 0.0
H492 H -0.00182 0.42288 0.59467 0.0
H493 H 0.99208 0.40118 0.67462 0.0
H494 H 0.98202 0.42124 0.48767 0.0
H495 H 0.94915 0.43409 0.43645 0.0
C496 C 0.93315 0.38786 0.10691 0.0
C497 C 0.92656 0.40433 0.04067 0.0
C498 C 0.88766 0.43924 0.10347 0.0
C499 C 0.89679 0.42498 0.17089 0.0
N500 N 0.92976 0.3876 0.23888 0.0
N501 N 0.90041 0.44756 0.97562 0.0
C502 C 0.92003 0.39985 0.17319 0.0
C503 C 0.90436 0.43037 0.03869 0.0
N504 N 0.95074 0.35988 0.10598 0.0
N505 N 0.86315 0.46134 0.10137 0.0
H506 H 0.91223 0.4417 0.92718 0.0
H507 H 0.88746 0.46905 0.9723 0.0
H508 H 0.85127 0.46963 0.14779 0.0
H509 H 0.85296 0.46994 0.05328 0.0
H510 H 0.9533 0.34476 0.15092 0.0
H511 H 0.9606 0.35015 0.05855 0.0
H512 H 0.94953 0.37232 0.24495 0.0
H513 H 0.91909 0.39406 0.2883 0.0
C514 C 0.04577 0.88558 0.6041 0.0
C515 C 0.06811 0.87882 0.66086 0.0
C516 C 0.11124 0.9039 0.59051 0.0
C517 C 0.08922 0.90951 0.5327 0.0
N518 N 0.03773 0.89967 0.47702 0.0
N519 N 0.12302 0.87442 0.70154 0.0
C520 C 0.05714 0.89841 0.53716 0.0
C521 C 0.1012 0.8857 0.65183 0.0
N522 N 0.01352 0.88163 0.61541 0.0
N523 N 0.14113 0.91751 0.58884 0.0
H524 H 0.11636 0.86067 0.74669 0.0
H525 H 0.14782 0.87593 0.69432 0.0
H526 H 0.14916 0.93171 0.54575 0.0
H527 H 0.15695 0.91715 0.63287 0.0
H528 H -0.00403 0.89004 0.57952 0.0
H529 H 0.00398 0.87208 0.66312 0.0
H530 H 0.01521 0.88883 0.47459 0.0
H531 H 0.04535 0.90907 0.42717 0.0
C532 C 0.59955 0.03674 0.10081 0.0
C533 C 0.59836 0.05586 0.16506 0.0
C534 C 0.56866 0.09808 0.10005 0.0
C535 C 0.57117 0.07965 0.03505 0.0
N536 N 0.59334 0.03447 0.96924 0.0
N537 N 0.58759 0.10681 0.22355 0.0
C538 C 0.58807 0.04991 0.03406 0.0
C539 C 0.58458 0.08718 0.164 0.0
N540 N 0.61004 0.00545 0.10439 0.0
N541 N 0.55038 0.1256 0.10107 0.0
H542 H 0.5994 0.09966 0.27114 0.0
H543 H 0.58103 0.13107 0.22381 0.0
H544 H 0.53904 0.13486 0.05489 0.0
H545 H 0.54455 0.13812 0.1485 0.0
H546 H 0.60801 0.98916 0.06146 0.0
H547 H 0.61861 0.99488 0.1522 0.0
H548 H 0.6084 0.01448 0.96373 0.0
H549 H 0.58455 0.04315 0.91964 0.0
C550 C 0.42391 0.60622 0.50015 0.0
C551 C 0.3922 0.59403 0.4974 0.0
C552 C 0.38252 0.61267 0.62218 0.0
C553 C 0.4156 0.62029 0.62866 0.0
N554 N 0.46901 0.62107 0.57614 0.0
N555 N 0.34203 0.58211 0.55771 0.0
C556 C 0.43663 0.61666 0.56801 0.0
C557 C 0.3715 0.5966 0.55864 0.0
N558 N 0.44174 0.60805 0.43765 0.0
N559 N 0.36158 0.62129 0.67637 0.0
H560 H 0.33324 0.56969 0.51258 0.0
H561 H 0.3274 0.58005 0.60356 0.0
H562 H 0.36887 0.63357 0.7232 0.0
H563 H 0.33671 0.61918 0.67174 0.0
H564 H 0.46381 0.61976 0.43464 0.0
H565 H 0.43304 0.60049 0.3871 0.0
H566 H 0.48579 0.61496 0.53622 0.0
H567 H 0.47961 0.62838 0.62478 0.0
C568 C 0.8734 0.11154 0.87567 0.0
C569 C 0.86938 0.0779 0.86665 0.0
C570 C 0.88668 0.06882 0.99269 0.0
C571 C 0.8953 0.10172 0.99768 0.0
N572 N 0.90016 0.15423 0.94172 0.0
N573 N 0.87548 0.02366 0.91338 0.0
C574 C 0.88917 0.12322 0.93899 0.0
C575 C 0.87647 0.05625 0.92458 0.0
N576 N 0.86185 0.13228 0.82387 0.0
N577 N 0.88793 0.04973 0.0534 0.0
H578 H 0.86827 0.01322 0.86441 0.0
H579 H 0.88427 0.00689 0.95075 0.0
H580 H 0.89518 0.05836 0.10425 0.0
H581 H 0.87891 0.02635 0.05499 0.0
H582 H 0.86121 0.15722 0.83054 0.0
H583 H 0.85005 0.12435 0.77698 0.0
H584 H 0.89967 0.16986 0.8973 0.0
H585 H 0.91222 0.16372 0.98661 0.0
C586 C 0.37353 0.91138 0.413 0.0
C587 C 0.39481 0.91838 0.47152 0.0
C588 C 0.44053 0.8985 0.4 0.0
C589 C 0.4191 0.89071 0.34242 0.0
N590 N 0.36512 0.88336 0.29833 0.0
N591 N 0.44695 0.9127 0.52754 0.0
C592 C 0.3855 0.8949 0.35058 0.0
C593 C 0.42788 0.91016 0.46704 0.0
N594 N 0.34246 0.92238 0.4149 0.0
N595 N 0.47301 0.89545 0.38986 0.0
H596 H 0.4383 0.92086 0.57771 0.0
H597 H 0.47051 0.90413 0.53003 0.0
H598 H 0.48308 0.88544 0.3429 0.0
H599 H 0.49007 0.9044 0.42605 0.0
H600 H 0.32676 0.92105 0.37079 0.0
H601 H 0.33299 0.93546 0.45848 0.0
H602 H 0.34022 0.88271 0.30445 0.0
H603 H 0.37329 0.87186 0.25116 0.0
C604 C 0.59791 0.36519 0.92684 0.0
C605 C 0.59285 0.38564 0.98794 0.0
C606 C 0.61407 0.43165 0.92024 0.0
C607 C 0.61964 0.4111 0.85944 0.0
N608 N 0.62514 0.35736 0.81118 0.0
N609 N 0.60413 0.43545 0.05018 0.0
C610 C 0.61432 0.37748 0.865 0.0
C611 C 0.60364 0.41796 0.98699 0.0
N612 N 0.5852 0.33483 0.92563 0.0
N613 N 0.61646 0.46439 0.91321 0.0
H614 H 0.59694 0.42589 0.10022 0.0
H615 H 0.61465 0.45812 0.05435 0.0
H616 H 0.62373 0.4758 0.86547 0.0
H617 H 0.60868 0.48051 0.95312 0.0
H618 H 0.58498 0.32034 0.87926 0.0
H619 H 0.57248 0.32492 0.96905 0.0
H620 H 0.6247 0.33231 0.81527 0.0
H621 H 0.63755 0.36576 0.76554 0.0
C622 C 0.11099 0.55885 0.38249 0.0
C623 C 0.09306 0.56181 0.44802 0.0
C624 C 0.05172 0.59343 0.38484 0.0
C625 C 0.06986 0.59086 0.31923 0.0
N626 N 0.11975 0.5779 0.25896 0.0
N627 N 0.05042 0.5871 0.51643 0.0
C628 C 0.10043 0.57553 0.3191 0.0
C629 C 0.06479 0.58093 0.45078 0.0
N630 N 0.13791 0.53973 0.38065 0.0
N631 N 0.02121 0.60593 0.38358 0.0
H632 H 0.05869 0.57733 0.56542 0.0
H633 H 0.0319 0.60383 0.52328 0.0
H634 H 0.01061 0.6157 0.33714 0.0
H635 H 0.00537 0.6046 0.42743 0.0
H636 H 0.14985 0.53341 0.33283 0.0
H637 H 0.14745 0.52859 0.42684 0.0
H638 H 0.14354 0.57 0.25749 0.0
H639 H 0.11296 0.59058 0.21225 0.0
C640 C 0.88478 0.55433 0.18365 0.0
C641 C 0.88129 0.55742 0.26002 0.0
C642 C 0.92019 0.60129 0.25831 0.0
C643 C 0.93101 0.59033 0.18905 0.0
N644 N 0.92289 0.55496 0.08485 0.0
N645 N 0.89069 0.58822 0.36864 0.0
C646 C 0.91271 0.56704 0.15026 0.0
C647 C 0.89711 0.58275 0.2967 0.0
N648 N 0.86175 0.53928 0.14328 0.0
N649 N 0.93195 0.62931 0.28671 0.0
H650 H 0.8721 0.57632 0.39573 0.0
H651 H 0.90412 0.60368 0.40128 0.0
H652 H 0.94788 0.64395 0.25789 0.0
H653 H 0.92348 0.63965 0.33481 0.0
H654 H 0.86252 0.53812 0.08652 0.0
H655 H 0.83981 0.53228 0.16556 0.0
H656 H 0.91206 0.53517 0.06001 0.0
H657 H 0.94345 0.56262 0.05784 0.0
C658 C 0.90085 0.92473 0.74077 0.0
C659 C 0.9087 0.958 0.74206 0.0
C660 C 0.96116 0.9454 0.79418 0.0
C661 C 0.95218 0.91255 0.80095 0.0
N662 N 0.91112 0.87177 0.79225 0.0
N663 N 0.94202 0.00025 0.79216 0.0
C664 C 0.92129 0.90236 0.77754 0.0
C665 C 0.93752 0.96844 0.77558 0.0
N666 N 0.87473 0.91435 0.70232 0.0
N667 N 0.99258 0.9546 0.80085 0.0
H668 H 0.92453 0.01794 0.78337 0.0
H669 H 0.96155 0.00831 0.82272 0.0
H670 H 0.01153 0.93838 0.80819 0.0
H671 H 0.00026 0.97798 0.78972 0.0
H672 H 0.8698 0.89006 0.69336 0.0
H673 H 0.85949 0.92998 0.67398 0.0
H674 H 0.8877 0.86403 0.78261 0.0
H675 H 0.9252 0.85503 0.82043 0.0
C676 C 0.56114 0.87877 0.30476 0.0
C677 C 0.55686 0.88011 0.22812 0.0
C678 C 0.60454 0.91419 0.21829 0.0
C679 C 0.60122 0.92147 0.29358 0.0
N680 N 0.58193 0.90586 0.41203 0.0
N681 N 0.57909 0.89199 0.11025 0.0
C682 C 0.58153 0.90182 0.33813 0.0
C683 C 0.58042 0.89526 0.1843 0.0
N684 N 0.54637 0.85545 0.34503 0.0
N685 N 0.6305 0.92494 0.17984 0.0
H686 H 0.56364 0.87561 0.0851 0.0
H687 H 0.59259 0.90576 0.0741 0.0
H688 H 0.64995 0.93632 0.20428 0.0
H689 H 0.63487 0.91901 0.12559 0.0
H690 H 0.54993 0.85246 0.4008 0.0
H691 H 0.53399 0.83637 0.32137 0.0
H692 H 0.56514 0.89557 0.44705 0.0
H693 H 0.59891 0.92037 0.43794 0.0
C694 C 0.55388 0.52662 0.77909 0.0
C695 C 0.58132 0.5362 0.73903 0.0
C696 C 0.56665 0.59288 0.7585 0.0
C697 C 0.53665 0.58288 0.78766 0.0
N698 N 0.49893 0.53937 0.80877 0.0
N699 N 0.61303 0.57841 0.68472 0.0
C700 C 0.52952 0.54952 0.79399 0.0
C701 C 0.58775 0.56937 0.72757 0.0
N702 N 0.55122 0.49566 0.80397 0.0
N703 N 0.57524 0.6246 0.76185 0.0
H704 H 0.62899 0.56186 0.66148 0.0
H705 H 0.61679 0.60208 0.6679 0.0
H706 H 0.56055 0.64226 0.78527 0.0
H707 H 0.59801 0.63288 0.74769 0.0
H708 H 0.53308 0.4884 0.83954 0.0
H709 H 0.56904 0.47821 0.79588 0.0
H710 H 0.49224 0.5152 0.8066 0.0
H711 H 0.47932 0.55491 0.81442 0.0
C712 C 0.11151 0.41336 0.77281 0.0
C713 C 0.10853 0.41855 0.69687 0.0
C714 C 0.06444 0.37967 0.69195 0.0
C715 C 0.06136 0.3828 0.769 0.0
N716 N 0.08456 0.39777 0.88448 0.0
N717 N 0.09028 0.39917 0.58109 0.0
C718 C 0.08603 0.39779 0.81006 0.0
C719 C 0.08784 0.39871 0.65539 0.0
N720 N 0.13881 0.42247 0.80847 0.0
N721 N 0.04468 0.35947 0.65392 0.0
H722 H 0.10933 0.41068 0.55481 0.0
H723 H 0.07402 0.38845 0.54559 0.0
H724 H 0.02715 0.34528 0.67817 0.0
H725 H 0.04669 0.35494 0.59838 0.0
H726 H 0.14303 0.41785 0.86344 0.0
H727 H 0.15912 0.43053 0.78074 0.0
H728 H 0.09936 0.41181 0.91735 0.0
H729 H 0.06763 0.38429 0.91326 0.0
C730 C 0.06209 0.08846 0.20572 0.0
C731 C 0.03537 0.0976 0.24895 0.0
C732 C 0.05685 0.06642 0.35135 0.0
C733 C 0.0797 0.05227 0.30376 0.0
N734 N 0.10528 0.05011 0.18536 0.0
N735 N 0.00618 0.09488 0.36281 0.0
C736 C 0.08322 0.06386 0.23123 0.0
C737 C 0.03274 0.08706 0.32235 0.0
N738 N 0.06716 0.1035 0.14043 0.0
N739 N 0.05847 0.06018 0.42444 0.0
H740 H 0.98798 0.11012 0.34415 0.0
H741 H 0.00105 0.08456 0.41322 0.0
H742 H 0.07634 0.0455 0.44708 0.0
H743 H 0.04437 0.07203 0.4631 0.0
H744 H 0.08776 0.10021 0.10898 0.0
H745 H 0.05196 0.12169 0.12098 0.0
H746 H 0.10595 0.05444 0.12948 0.0
H747 H 0.12206 0.03293 0.20206 0.0
C748 C 0.41604 0.07599 0.64776 0.0
C749 C 0.39018 0.064 0.68919 0.0
C750 C 0.40913 0.09325 0.79639 0.0
C751 C 0.43859 0.09873 0.75947 0.0
N752 N 0.47046 0.09595 0.64918 0.0
N753 N 0.35356 0.07565 0.78732 0.0
C754 C 0.44184 0.09125 0.68415 0.0
C755 C 0.38388 0.07718 0.759 0.0
N756 N 0.41545 0.07294 0.57366 0.0
N757 N 0.40592 0.10234 0.86767 0.0
H758 H 0.33411 0.06747 0.75664 0.0
H759 H 0.34679 0.08616 0.83654 0.0
H760 H 0.42344 0.11568 0.89492 0.0
H761 H 0.38662 0.09578 0.90051 0.0
H762 H 0.43238 0.08337 0.5392 0.0
H763 H 0.39567 0.06309 0.54666 0.0
H764 H 0.47538 0.08739 0.59695 0.0
H765 H 0.49029 0.10636 0.67426 0.0
C766 C 0.42578 0.40351 0.22782 0.0
C767 C 0.455 0.41319 0.19443 0.0
C768 C 0.4376 0.46948 0.20108 0.0
C769 C 0.41136 0.4603 0.24559 0.0
N770 N 0.38157 0.41863 0.30731 0.0
N771 N 0.49162 0.45654 0.16371 0.0
C772 C 0.40547 0.42727 0.26016 0.0
C773 C 0.46167 0.44647 0.18425 0.0
N774 N 0.41711 0.37177 0.22715 0.0
N775 N 0.43928 0.50007 0.17358 0.0
H776 H 0.51103 0.44102 0.15515 0.0
H777 H 0.49824 0.48076 0.16323 0.0
H778 H 0.42152 0.51747 0.18276 0.0
H779 H 0.45636 0.50696 0.13505 0.0
H780 H 0.39471 0.36368 0.24467 0.0
H781 H 0.43107 0.35389 0.20233 0.0
H782 H 0.37851 0.39515 0.32612 0.0
H783 H 0.3663 0.43534 0.33221 0.0
loop_
_geom_bond_atom_site_label_1
_geom_bond_atom_site_label_2
_geom_bond_distance
_geom_bond_site_symmetry_2
_ccdc_geom_bond_type
In0 O1 2.294 . S
In0 O2 2.326 . S
In0 O6 2.266 1_455 S
In0 O7 2.326 1_455 S
In0 O8 2.266 . S
In0 O9 2.326 . S
In0 O11 2.294 . S
In0 O12 2.326 . S
O1 In0 2.294 . S
O1 C10 1.243 . S
O2 In0 2.326 . S
O2 C10 1.262 . S
C3 O6 1.252 . S
C3 O7 1.260 . S
C4 O11 1.240 . S
C4 O12 1.253 . S
C5 O8 1.252 . S
C5 O9 1.260 . S
O6 In0 2.266 1_655 S
O6 C3 1.252 . S
O7 In0 2.326 1_655 S
O7 C3 1.260 . S
O8 In0 2.266 . S
O8 C5 1.252 . S
O9 In0 2.326 . S
O9 C5 1.260 . S
C10 O1 1.243 . S
C10 O2 1.262 . S
O11 In0 2.294 . S
O11 C4 1.240 . S
O12 In0 2.326 . S
O12 C4 1.253 . S
In13 O14 2.294 . S
In13 O15 2.327 . S
In13 O19 2.266 . S
In13 O20 2.326 . S
In13 O21 2.266 1_545 S
In13 O22 2.326 1_545 S
In13 O24 2.294 . S
In13 O25 2.326 . S
O14 In13 2.294 . S
O14 C23 1.240 . S
O15 In13 2.327 . S
O15 C23 1.253 . S
C16 O19 1.252 . S
C16 O20 1.260 . S
C17 O24 1.240 . S
C17 O25 1.252 . S
C18 O21 1.252 . S
C18 O22 1.260 . S
O19 In13 2.266 . S
O19 C16 1.252 . S
O20 In13 2.326 . S
O20 C16 1.260 . S
O21 In13 2.266 1_565 S
O21 C18 1.252 . S
O22 In13 2.326 1_565 S
O22 C18 1.260 . S
C23 O14 1.240 . S
C23 O15 1.253 . S
O24 In13 2.294 . S
O24 C17 1.240 . S
O25 In13 2.326 . S
O25 C17 1.252 . S
In26 O27 2.294 . S
In26 O28 2.326 . S
In26 O32 2.266 . S
In26 O33 2.326 . S
In26 O34 2.266 . S
In26 O35 2.326 . S
In26 O37 2.294 . S
In26 O38 2.326 . S
O27 In26 2.294 . S
O27 C36 1.240 . S
O28 In26 2.326 . S
O28 C36 1.252 . S
C29 O32 1.252 . S
C29 O33 1.260 . S
C30 O37 1.243 . S
C30 O38 1.262 . S
C31 O34 1.252 . S
C31 O35 1.260 . S
O32 In26 2.266 . S
O32 C29 1.252 . S
O33 In26 2.326 . S
O33 C29 1.260 . S
O34 In26 2.266 . S
O34 C31 1.252 . S
O35 In26 2.326 . S
O35 C31 1.260 . S
C36 O27 1.240 . S
C36 O28 1.252 . S
O37 In26 2.294 . S
O37 C30 1.243 . S
O38 In26 2.326 . S
O38 C30 1.262 . S
In39 O40 2.294 . S
In39 O41 2.326 . S
In39 O45 2.266 . S
In39 O46 2.326 . S
In39 O47 2.266 . S
In39 O48 2.326 . S
In39 O50 2.294 . S
In39 O51 2.326 . S
O40 In39 2.294 . S
O40 C49 1.240 . S
O41 In39 2.326 . S
O41 C49 1.252 . S
C42 O45 1.252 . S
C42 O46 1.260 . S
C43 O50 1.240 . S
C43 O51 1.252 . S
C44 O47 1.252 . S
C44 O48 1.260 . S
O45 In39 2.266 . S
O45 C42 1.252 . S
O46 In39 2.326 . S
O46 C42 1.260 . S
O47 In39 2.266 . S
O47 C44 1.252 . S
O48 In39 2.326 . S
O48 C44 1.260 . S
C49 O40 1.240 . S
C49 O41 1.252 . S
O50 In39 2.294 . S
O50 C43 1.240 . S
O51 In39 2.326 . S
O51 C43 1.252 . S
In52 O53 2.294 . S
In52 O54 2.326 . S
In52 O58 2.266 1_455 S
In52 O59 2.326 1_455 S
In52 O60 2.266 . S
In52 O61 2.326 . S
In52 O63 2.294 . S
In52 O64 2.327 . S
O53 In52 2.294 . S
O53 C62 1.243 . S
O54 In52 2.326 . S
O54 C62 1.263 . S
C55 O58 1.252 . S
C55 O59 1.260 . S
C56 O63 1.240 . S
C56 O64 1.253 . S
C57 O60 1.252 . S
C57 O61 1.260 . S
O58 In52 2.266 1_655 S
O58 C55 1.252 . S
O59 In52 2.326 1_655 S
O59 C55 1.260 . S
O60 In52 2.266 . S
O60 C57 1.252 . S
O61 In52 2.326 . S
O61 C57 1.260 . S
C62 O53 1.243 . S
C62 O54 1.263 . S
O63 In52 2.294 . S
O63 C56 1.240 . S
O64 In52 2.327 . S
O64 C56 1.253 . S
In65 O66 2.294 . S
In65 O67 2.326 . S
In65 O71 2.266 1_545 S
In65 O72 2.326 1_545 S
In65 O73 2.266 . S
In65 O74 2.326 . S
In65 O76 2.294 . S
In65 O77 2.326 . S
O66 In65 2.294 . S
O66 C75 1.240 . S
O67 In65 2.326 . S
O67 C75 1.252 . S
C68 O71 1.252 . S
C68 O72 1.260 . S
C69 O76 1.240 . S
C69 O77 1.252 . S
C70 O73 1.252 . S
C70 O74 1.260 . S
O71 In65 2.266 1_565 S
O71 C68 1.252 . S
O72 In65 2.326 1_565 S
O72 C68 1.260 . S
O73 In65 2.266 . S
O73 C70 1.252 . S
O74 In65 2.326 . S
O74 C70 1.260 . S
C75 O66 1.240 . S
C75 O67 1.252 . S
O76 In65 2.294 . S
O76 C69 1.240 . S
O77 In65 2.326 . S
O77 C69 1.252 . S
In78 O79 2.294 . S
In78 O80 2.326 . S
In78 O84 2.266 . S
In78 O85 2.326 . S
In78 O86 2.266 . S
In78 O87 2.326 . S
In78 O89 2.294 . S
In78 O90 2.326 . S
O79 In78 2.294 . S
O79 C88 1.240 . S
O80 In78 2.326 . S
O80 C88 1.252 . S
C81 O84 1.252 . S
C81 O85 1.260 . S
C82 O89 1.243 . S
C82 O90 1.262 . S
C83 O86 1.252 . S
C83 O87 1.260 . S
O84 In78 2.266 . S
O84 C81 1.252 . S
O85 In78 2.326 . S
O85 C81 1.260 . S
O86 In78 2.266 . S
O86 C83 1.252 . S
O87 In78 2.326 . S
O87 C83 1.260 . S
C88 O79 1.240 . S
C88 O80 1.252 . S
O89 In78 2.294 . S
O89 C82 1.243 . S
O90 In78 2.326 . S
O90 C82 1.262 . S
In91 O92 2.294 . S
In91 O93 2.326 . S
In91 O97 2.266 . S
In91 O98 2.326 . S
In91 O99 2.266 . S
In91 O100 2.326 . S
In91 O102 2.294 . S
In91 O103 2.326 . S
O92 In91 2.294 . S
O92 C101 1.240 . S
O93 In91 2.326 . S
O93 C101 1.252 . S
C94 O97 1.252 . S
C94 O98 1.260 . S
C95 O102 1.240 . S
C95 O103 1.252 . S
C96 O99 1.252 . S
C96 O100 1.260 . S
O97 In91 2.266 . S
O97 C94 1.252 . S
O98 In91 2.326 . S
O98 C94 1.260 . S
O99 In91 2.266 . S
O99 C96 1.252 . S
O100 In91 2.326 . S
O100 C96 1.260 . S
C101 O92 1.240 . S
C101 O93 1.252 . S
O102 In91 2.294 . S
O102 C95 1.240 . S
O103 In91 2.326 . S
O103 C95 1.252 . S
In104 O105 2.294 . S
In104 O106 2.326 . S
In104 O110 2.266 1_655 S
In104 O111 2.326 1_655 S
In104 O112 2.266 . S
In104 O113 2.326 . S
In104 O115 2.294 . S
In104 O116 2.326 . S
O105 In104 2.294 . S
O105 C114 1.243 . S
O106 In104 2.326 . S
O106 C114 1.262 . S
C107 O110 1.252 . S
C107 O111 1.260 . S
C108 O115 1.240 . S
C108 O116 1.252 . S
C109 O112 1.252 . S
C109 O113 1.260 . S
O110 In104 2.266 1_455 S
O110 C107 1.252 . S
O111 In104 2.326 1_455 S
O111 C107 1.260 . S
O112 In104 2.266 . S
O112 C109 1.252 . S
O113 In104 2.326 . S
O113 C109 1.260 . S
C114 O105 1.243 . S
C114 O106 1.262 . S
O115 In104 2.294 . S
O115 C108 1.240 . S
O116 In104 2.326 . S
O116 C108 1.252 . S
In117 O118 2.294 . S
In117 O119 2.327 . S
In117 O123 2.266 . S
In117 O124 2.326 . S
In117 O125 2.266 1_565 S
In117 O126 2.326 1_565 S
In117 O128 2.294 . S
In117 O129 2.326 . S
O118 In117 2.294 . S
O118 C127 1.240 . S
O119 In117 2.327 . S
O119 C127 1.253 . S
C120 O123 1.252 . S
C120 O124 1.260 . S
C121 O128 1.240 . S
C121 O129 1.252 . S
C122 O125 1.252 . S
C122 O126 1.260 . S
O123 In117 2.266 . S
O123 C120 1.252 . S
O124 In117 2.326 . S
O124 C120 1.260 . S
O125 In117 2.266 1_545 S
O125 C122 1.252 . S
O126 In117 2.326 1_545 S
O126 C122 1.260 . S
C127 O118 1.240 . S
C127 O119 1.253 . S
O128 In117 2.294 . S
O128 C121 1.240 . S
O129 In117 2.326 . S
O129 C121 1.252 . S
In130 O131 2.294 . S
In130 O132 2.326 . S
In130 O136 2.266 . S
In130 O137 2.326 . S
In130 O138 2.266 . S
In130 O139 2.326 . S
In130 O141 2.294 . S
In130 O142 2.326 . S
O131 In130 2.294 . S
O131 C140 1.240 . S
O132 In130 2.326 . S
O132 C140 1.252 . S
C133 O136 1.252 . S
C133 O137 1.260 . S
C134 O141 1.243 . S
C134 O142 1.262 . S
C135 O138 1.252 . S
C135 O139 1.260 . S
O136 In130 2.266 . S
O136 C133 1.252 . S
O137 In130 2.326 . S
O137 C133 1.260 . S
O138 In130 2.266 . S
O138 C135 1.252 . S
O139 In130 2.326 . S
O139 C135 1.260 . S
C140 O131 1.240 . S
C140 O132 1.252 . S
O141 In130 2.294 . S
O141 C134 1.243 . S
O142 In130 2.326 . S
O142 C134 1.262 . S
In143 O144 2.294 . S
In143 O145 2.326 . S
In143 O149 2.266 . S
In143 O150 2.326 . S
In143 O151 2.266 . S
In143 O152 2.326 . S
In143 O154 2.294 . S
In143 O155 2.326 . S
O144 In143 2.294 . S
O144 C153 1.240 . S
O145 In143 2.326 . S
O145 C153 1.252 . S
C146 O149 1.252 . S
C146 O150 1.260 . S
C147 O154 1.240 . S
C147 O155 1.252 . S
C148 O151 1.252 . S
C148 O152 1.260 . S
O149 In143 2.266 . S
O149 C146 1.252 . S
O150 In143 2.326 . S
O150 C146 1.260 . S
O151 In143 2.266 . S
O151 C148 1.252 . S
O152 In143 2.326 . S
O152 C148 1.260 . S
C153 O144 1.240 . S
C153 O145 1.252 . S
O154 In143 2.294 . S
O154 C147 1.240 . S
O155 In143 2.326 . S
O155 C147 1.252 . S
In156 O157 2.294 . S
In156 O158 2.326 . S
In156 O162 2.266 1_655 S
In156 O163 2.326 1_655 S
In156 O164 2.266 . S
In156 O165 2.326 . S
In156 O167 2.294 . S
In156 O168 2.327 . S
O157 In156 2.294 . S
O157 C166 1.243 . S
O158 In156 2.326 . S
O158 C166 1.263 . S
C159 O162 1.252 . S
C159 O163 1.260 . S
C160 O167 1.240 . S
C160 O168 1.253 . S
C161 O164 1.252 . S
C161 O165 1.260 . S
O162 In156 2.266 1_455 S
O162 C159 1.252 . S
O163 In156 2.326 1_455 S
O163 C159 1.260 . S
O164 In156 2.266 . S
O164 C161 1.252 . S
O165 In156 2.326 . S
O165 C161 1.260 . S
C166 O157 1.243 . S
C166 O158 1.263 . S
O167 In156 2.294 . S
O167 C160 1.240 . S
O168 In156 2.327 . S
O168 C160 1.253 . S
In169 O170 2.294 . S
In169 O171 2.326 . S
In169 O175 2.266 1_565 S
In169 O176 2.326 1_565 S
In169 O177 2.266 . S
In169 O178 2.326 . S
In169 O180 2.294 . S
In169 O181 2.326 . S
O170 In169 2.294 . S
O170 C179 1.240 . S
O171 In169 2.326 . S
O171 C179 1.252 . S
C172 O175 1.252 . S
C172 O176 1.260 . S
C173 O180 1.240 . S
C173 O181 1.253 . S
C174 O177 1.252 . S
C174 O178 1.260 . S
O175 In169 2.266 1_545 S
O175 C172 1.252 . S
O176 In169 2.326 1_545 S
O176 C172 1.260 . S
O177 In169 2.266 . S
O177 C174 1.252 . S
O178 In169 2.326 . S
O178 C174 1.260 . S
C179 O170 1.240 . S
C179 O171 1.252 . S
O180 In169 2.294 . S
O180 C173 1.240 . S
O181 In169 2.326 . S
O181 C173 1.253 . S
In182 O183 2.294 . S
In182 O184 2.326 . S
In182 O188 2.266 . S
In182 O189 2.326 . S
In182 O190 2.266 . S
In182 O191 2.326 . S
In182 O193 2.294 . S
In182 O194 2.326 . S
O183 In182 2.294 . S
O183 C192 1.240 . S
O184 In182 2.326 . S
O184 C192 1.252 . S
C185 O188 1.252 . S
C185 O189 1.260 . S
C186 O193 1.243 . S
C186 O194 1.262 . S
C187 O190 1.252 . S
C187 O191 1.260 . S
O188 In182 2.266 . S
O188 C185 1.252 . S
O189 In182 2.326 . S
O189 C185 1.260 . S
O190 In182 2.266 . S
O190 C187 1.252 . S
O191 In182 2.326 . S
O191 C187 1.260 . S
C192 O183 1.240 . S
C192 O184 1.252 . S
O193 In182 2.294 . S
O193 C186 1.243 . S
O194 In182 2.326 . S
O194 C186 1.262 . S
In195 O196 2.294 . S
In195 O197 2.326 . S
In195 O201 2.266 . S
In195 O202 2.326 . S
In195 O203 2.266 . S
In195 O204 2.326 . S
In195 O206 2.294 . S
In195 O207 2.326 . S
O196 In195 2.294 . S
O196 C205 1.240 . S
O197 In195 2.326 . S
O197 C205 1.252 . S
C198 O201 1.252 . S
C198 O202 1.260 . S
C199 O206 1.240 . S
C199 O207 1.252 . S
C200 O203 1.252 . S
C200 O204 1.260 . S
O201 In195 2.266 . S
O201 C198 1.252 . S
O202 In195 2.326 . S
O202 C198 1.260 . S
O203 In195 2.266 . S
O203 C200 1.252 . S
O204 In195 2.326 . S
O204 C200 1.260 . S
C205 O196 1.240 . S
C205 O197 1.252 . S
O206 In195 2.294 . S
O206 C199 1.240 . S
O207 In195 2.326 . S
O207 C199 1.252 . S
C208 C209 1.363 1_556 S
C208 C214 1.379 . S
C208 N216 1.356 . S
C209 C208 1.363 1_554 S
C209 C215 1.363 1_455 S
C210 C211 1.363 1_654 S
C210 C215 1.379 . S
C210 N217 1.356 . S
C211 C210 1.363 1_456 S
C211 C214 1.363 . S
N212 C214 1.356 . S
N212 H224 0.984 . S
N212 H225 0.985 . S
N213 C215 1.356 . S
N213 H218 0.984 . S
N213 H219 0.985 . S
C214 C208 1.379 . S
C214 C211 1.363 . S
C214 N212 1.356 . S
C215 C209 1.363 1_655 S
C215 C210 1.379 . S
C215 N213 1.356 . S
N216 C208 1.356 . S
N216 H222 0.984 . S
N216 H223 0.987 . S
N217 C210 1.356 . S
N217 H220 0.986 . S
N217 H221 0.985 . S
H218 N213 0.984 . S
H219 N213 0.985 . S
H220 N217 0.986 . S
H221 N217 0.985 . S
H222 N216 0.984 . S
H223 N216 0.987 . S
H224 N212 0.984 . S
H225 N212 0.985 . S
C226 C227 1.363 1_565 S
C226 C232 1.379 . S
C226 N234 1.356 . S
C227 C226 1.363 1_545 S
C227 C233 1.363 . S
C228 C229 1.363 . S
C228 C233 1.379 . S
C228 N235 1.356 . S
C229 C228 1.363 . S
C229 C232 1.363 1_545 S
N230 C232 1.356 . S
N230 H242 0.984 . S
N230 H243 0.985 . S
N231 C233 1.356 . S
N231 H236 0.984 . S
N231 H237 0.985 . S
C232 C226 1.379 . S
C232 C229 1.363 1_565 S
C232 N230 1.356 . S
C233 C227 1.363 . S
C233 C228 1.379 . S
C233 N231 1.356 . S
N234 C226 1.356 . S
N234 H240 0.984 . S
N234 H241 0.984 . S
N235 C228 1.356 . S
N235 H238 0.984 . S
N235 H239 0.985 . S
H236 N231 0.984 . S
H237 N231 0.985 . S
H238 N235 0.984 . S
H239 N235 0.985 . S
H240 N234 0.984 . S
H241 N234 0.984 . S
H242 N230 0.984 . S
H243 N230 0.985 . S
C244 C245 1.363 . S
C244 C250 1.379 1_554 S
C244 N252 1.356 . S
C245 C244 1.363 . S
C245 C251 1.363 . S
C246 C247 1.363 . S
C246 C251 1.379 1_556 S
C246 N253 1.356 . S
C247 C246 1.363 . S
C247 C250 1.363 . S
N248 C250 1.356 . S
N248 H260 0.984 . S
N248 H261 0.985 . S
N249 C251 1.356 . S
N249 H254 0.984 . S
N249 H255 0.985 . S
C250 C244 1.379 1_556 S
C250 C247 1.363 . S
C250 N248 1.356 . S
C251 C245 1.363 . S
C251 C246 1.379 1_554 S
C251 N249 1.356 . S
N252 C244 1.356 . S
N252 H258 0.984 . S
N252 H259 0.984 . S
N253 C246 1.356 . S
N253 H256 0.984 . S
N253 H257 0.985 . S
H254 N249 0.984 . S
H255 N249 0.985 . S
H256 N253 0.984 . S
H257 N253 0.985 . S
H258 N252 0.984 . S
H259 N252 0.984 . S
H260 N248 0.984 . S
H261 N248 0.985 . S
C262 C263 1.363 . S
C262 C268 1.379 . S
C262 N270 1.356 . S
C263 C262 1.363 . S
C263 C269 1.363 . S
C264 C265 1.363 . S
C264 C269 1.379 . S
C264 N271 1.356 . S
C265 C264 1.363 . S
C265 C268 1.363 . S
N266 C268 1.356 . S
N266 H278 0.984 . S
N266 H279 0.985 . S
N267 C269 1.356 . S
N267 H272 0.984 . S
N267 H273 0.985 . S
C268 C262 1.379 . S
C268 C265 1.363 . S
C268 N266 1.356 . S
C269 C263 1.363 . S
C269 C264 1.379 . S
C269 N267 1.356 . S
N270 C262 1.356 . S
N270 H276 0.984 . S
N270 H277 0.984 . S
N271 C264 1.356 . S
N271 H274 0.984 . S
N271 H275 0.985 . S
H272 N267 0.984 . S
H273 N267 0.985 . S
H274 N271 0.984 . S
H275 N271 0.985 . S
H276 N270 0.984 . S
H277 N270 0.984 . S
H278 N266 0.984 . S
H279 N266 0.985 . S
C280 C281 1.363 . S
C280 C286 1.379 . S
C280 N288 1.356 . S
C281 C280 1.363 . S
C281 C287 1.363 1_656 S
C282 C283 1.363 1_455 S
C282 C287 1.379 . S
C282 N289 1.356 . S
C283 C282 1.363 1_655 S
C283 C286 1.363 1_554 S
N284 C286 1.356 . S
N284 H296 0.984 . S
N284 H297 0.985 1_556 S
N285 C287 1.356 . S
N285 H290 0.984 1_554 S
N285 H291 0.985 . S
C286 C280 1.379 . S
C286 C283 1.363 1_556 S
C286 N284 1.356 . S
C287 C281 1.363 1_454 S
C287 C282 1.379 . S
C287 N285 1.356 . S
N288 C280 1.356 . S
N288 H294 0.984 . S
N288 H295 0.984 . S
N289 C282 1.356 . S
N289 H292 0.984 . S
N289 H293 0.985 . S
H290 N285 0.984 1_556 S
H291 N285 0.985 . S
H292 N289 0.984 . S
H293 N289 0.985 . S
H294 N288 0.984 . S
H295 N288 0.984 . S
H296 N284 0.984 . S
H297 N284 0.985 1_554 S
C298 C299 1.363 1_545 S
C298 C304 1.379 . S
C298 N306 1.356 . S
C299 C298 1.363 1_565 S
C299 C305 1.363 . S
C300 C301 1.363 . S
C300 C305 1.379 . S
C300 N307 1.356 . S
C301 C300 1.363 . S
C301 C304 1.363 1_565 S
N302 C304 1.356 . S
N302 H314 0.984 . S
N302 H315 0.985 . S
N303 C305 1.356 . S
N303 H308 0.984 . S
N303 H309 0.985 . S
C304 C298 1.379 . S
C304 C301 1.363 1_545 S
C304 N302 1.356 . S
C305 C299 1.363 . S
C305 C300 1.379 . S
C305 N303 1.356 . S
N306 C298 1.356 . S
N306 H312 0.984 . S
N306 H313 0.984 . S
N307 C300 1.356 . S
N307 H310 0.984 . S
N307 H311 0.985 . S
H308 N303 0.984 . S
H309 N303 0.985 . S
H310 N307 0.984 . S
H311 N307 0.985 . S
H312 N306 0.984 . S
H313 N306 0.984 . S
H314 N302 0.984 . S
H315 N302 0.985 . S
C316 C317 1.363 . S
C316 C322 1.379 . S
C316 N324 1.356 . S
C317 C316 1.363 . S
C317 C323 1.363 1_556 S
C318 C319 1.363 . S
C318 C323 1.379 . S
C318 N325 1.356 . S
C319 C318 1.363 . S
C319 C322 1.363 1_554 S
N320 C322 1.356 . S
N320 H332 0.984 . S
N320 H333 0.985 1_556 S
N321 C323 1.356 . S
N321 H326 0.984 1_554 S
N321 H327 0.985 . S
C322 C316 1.379 . S
C322 C319 1.363 1_556 S
C322 N320 1.356 . S
C323 C317 1.363 1_554 S
C323 C318 1.379 . S
C323 N321 1.356 . S
N324 C316 1.356 . S
N324 H330 0.984 . S
N324 H331 0.984 . S
N325 C318 1.356 . S
N325 H328 0.984 . S
N325 H329 0.985 . S
H326 N321 0.984 1_556 S
H327 N321 0.985 . S
H328 N325 0.984 . S
H329 N325 0.985 . S
H330 N324 0.984 . S
H331 N324 0.984 . S
H332 N320 0.984 . S
H333 N320 0.985 1_554 S
C334 C335 1.363 . S
C334 C340 1.379 . S
C334 N342 1.356 . S
C335 C334 1.363 . S
C335 C341 1.363 . S
C336 C337 1.363 . S
C336 C341 1.379 . S
C336 N343 1.356 . S
C337 C336 1.363 . S
C337 C340 1.363 . S
N338 C340 1.356 . S
N338 H350 0.984 . S
N338 H351 0.985 . S
N339 C341 1.356 . S
N339 H344 0.984 . S
N339 H345 0.985 . S
C340 C334 1.379 . S
C340 C337 1.363 . S
C340 N338 1.356 . S
C341 C335 1.363 . S
C341 C336 1.379 . S
C341 N339 1.356 . S
N342 C334 1.356 . S
N342 H348 0.984 . S
N342 H349 0.984 . S
N343 C336 1.356 . S
N343 H346 0.984 . S
N343 H347 0.985 . S
H344 N339 0.984 . S
H345 N339 0.985 . S
H346 N343 0.984 . S
H347 N343 0.985 . S
H348 N342 0.984 . S
H349 N342 0.984 . S
H350 N338 0.984 . S
H351 N338 0.985 . S
C352 C353 1.363 . S
C352 C358 1.379 . S
C352 N360 1.356 . S
C353 C352 1.363 . S
C353 C359 1.363 . S
C354 C355 1.363 . S
C354 C359 1.379 . S
C354 N361 1.356 . S
C355 C354 1.363 . S
C355 C358 1.363 . S
N356 C358 1.356 . S
N356 H368 0.984 . S
N356 H369 0.985 . S
N357 C359 1.356 1_554 S
N357 H362 0.984 . S
N357 H363 0.985 . S
C358 C352 1.379 . S
C358 C355 1.363 . S
C358 N356 1.356 . S
C359 C353 1.363 . S
C359 C354 1.379 . S
C359 N357 1.356 1_556 S
N360 C352 1.356 . S
N360 H366 0.984 . S
N360 H367 0.984 . S
N361 C354 1.356 . S
N361 H364 0.984 . S
N361 H365 0.985 . S
H362 N357 0.984 . S
H363 N357 0.985 . S
H364 N361 0.984 . S
H365 N361 0.985 . S
H366 N360 0.984 . S
H367 N360 0.984 . S
H368 N356 0.984 . S
H369 N356 0.985 . S
C370 C371 1.363 . S
C370 C376 1.379 . S
C370 N378 1.356 . S
C371 C370 1.363 . S
C371 C377 1.363 . S
C372 C373 1.363 . S
C372 C377 1.379 . S
C372 N379 1.356 . S
C373 C372 1.363 . S
C373 C376 1.363 . S
N374 C376 1.356 . S
N374 H386 0.984 . S
N374 H387 0.985 . S
N375 C377 1.356 . S
N375 H380 0.984 . S
N375 H381 0.985 . S
C376 C370 1.379 . S
C376 C373 1.363 . S
C376 N374 1.356 . S
C377 C371 1.363 . S
C377 C372 1.379 . S
C377 N375 1.356 . S
N378 C370 1.356 . S
N378 H384 0.984 . S
N378 H385 0.984 . S
N379 C372 1.356 . S
N379 H382 0.984 . S
N379 H383 0.985 . S
H380 N375 0.984 . S
H381 N375 0.985 . S
H382 N379 0.984 . S
H383 N379 0.985 . S
H384 N378 0.984 . S
H385 N378 0.984 . S
H386 N374 0.984 . S
H387 N374 0.985 . S
C388 C389 1.363 . S
C388 C394 1.379 . S
C388 N396 1.356 . S
C389 C388 1.363 . S
C389 C395 1.363 . S
C390 C391 1.363 . S
C390 C395 1.379 . S
C390 N397 1.356 . S
C391 C390 1.363 . S
C391 C394 1.363 . S
N392 C394 1.356 . S
N392 H404 0.984 . S
N392 H405 0.985 . S
N393 C395 1.356 . S
N393 H398 0.984 . S
N393 H399 0.985 . S
C394 C388 1.379 . S
C394 C391 1.363 . S
C394 N392 1.356 . S
C395 C389 1.363 . S
C395 C390 1.379 . S
C395 N393 1.356 . S
N396 C388 1.356 . S
N396 H402 0.984 . S
N396 H403 0.984 1_556 S
N397 C390 1.356 . S
N397 H400 0.984 . S
N397 H401 0.985 . S
H398 N393 0.984 . S
H399 N393 0.985 . S
H400 N397 0.984 . S
H401 N397 0.985 . S
H402 N396 0.984 . S
H403 N396 0.984 1_554 S
H404 N392 0.984 . S
H405 N392 0.985 . S
C406 C407 1.363 . S
C406 C412 1.379 . S
C406 N414 1.356 . S
C407 C406 1.363 . S
C407 C413 1.363 . S
C408 C409 1.363 . S
C408 C413 1.379 . S
C408 N415 1.356 . S
C409 C408 1.363 . S
C409 C412 1.363 . S
N410 C412 1.356 . S
N410 H422 0.984 . S
N410 H423 0.985 . S
N411 C413 1.356 . S
N411 H416 0.984 . S
N411 H417 0.985 . S
C412 C406 1.379 . S
C412 C409 1.363 . S
C412 N410 1.356 . S
C413 C407 1.363 . S
C413 C408 1.379 . S
C413 N411 1.356 . S
N414 C406 1.356 . S
N414 H420 0.984 . S
N414 H421 0.984 . S
N415 C408 1.356 . S
N415 H418 0.984 . S
N415 H419 0.985 . S
H416 N411 0.984 . S
H417 N411 0.985 . S
H418 N415 0.984 . S
H419 N415 0.985 . S
H420 N414 0.984 . S
H421 N414 0.984 . S
H422 N410 0.984 . S
H423 N410 0.985 . S
C424 C425 1.363 . S
C424 C430 1.379 . S
C424 N432 1.356 . S
C425 C424 1.363 . S
C425 C431 1.363 . S
C426 C427 1.363 . S
C426 C431 1.379 . S
C426 N433 1.356 . S
C427 C426 1.363 . S
C427 C430 1.363 . S
N428 C430 1.356 . S
N428 H440 0.984 . S
N428 H441 0.985 1_554 S
N429 C431 1.356 . S
N429 H434 0.984 . S
N429 H435 0.985 . S
C430 C424 1.379 . S
C430 C427 1.363 . S
C430 N428 1.356 . S
C431 C425 1.363 . S
C431 C426 1.379 . S
C431 N429 1.356 . S
N432 C424 1.356 . S
N432 H438 0.984 . S
N432 H439 0.984 . S
N433 C426 1.356 . S
N433 H436 0.984 . S
N433 H437 0.985 . S
H434 N429 0.984 . S
H435 N429 0.985 . S
H436 N433 0.984 . S
H437 N433 0.985 . S
H438 N432 0.984 . S
H439 N432 0.984 . S
H440 N428 0.984 . S
H441 N428 0.985 1_556 S
C442 C443 1.363 . S
C442 C448 1.379 . S
C442 N450 1.356 . S
C443 C442 1.363 . S
C443 C449 1.363 . S
C444 C445 1.363 . S
C444 C449 1.379 . S
C444 N451 1.356 . S
C445 C444 1.363 . S
C445 C448 1.363 . S
N446 C448 1.356 . S
N446 H458 0.984 . S
N446 H459 0.985 . S
N447 C449 1.356 . S
N447 H452 0.984 . S
N447 H453 0.985 . S
C448 C442 1.379 . S
C448 C445 1.363 . S
C448 N446 1.356 . S
C449 C443 1.363 . S
C449 C444 1.379 . S
C449 N447 1.356 . S
N450 C442 1.356 . S
N450 H456 0.984 . S
N450 H457 0.984 . S
N451 C444 1.356 . S
N451 H454 0.984 . S
N451 H455 0.985 . S
H452 N447 0.984 . S
H453 N447 0.985 . S
H454 N451 0.984 . S
H455 N451 0.985 . S
H456 N450 0.984 . S
H457 N450 0.984 . S
H458 N446 0.984 . S
H459 N446 0.985 . S
C460 C461 1.363 . S
C460 C466 1.379 . S
C460 N468 1.356 . S
C461 C460 1.363 . S
C461 C467 1.363 . S
C462 C463 1.363 . S
C462 C467 1.379 . S
C462 N469 1.356 . S
C463 C462 1.363 . S
C463 C466 1.363 . S
N464 C466 1.356 . S
N464 H476 0.984 . S
N464 H477 0.985 . S
N465 C467 1.356 . S
N465 H470 0.984 . S
N465 H471 0.985 . S
C466 C460 1.379 . S
C466 C463 1.363 . S
C466 N464 1.356 . S
C467 C461 1.363 . S
C467 C462 1.379 . S
C467 N465 1.356 . S
N468 C460 1.356 . S
N468 H474 0.984 . S
N468 H475 0.984 . S
N469 C462 1.356 . S
N469 H472 0.984 1_554 S
N469 H473 0.985 . S
H470 N465 0.984 . S
H471 N465 0.985 . S
H472 N469 0.984 1_556 S
H473 N469 0.985 . S
H474 N468 0.984 . S
H475 N468 0.984 . S
H476 N464 0.984 . S
H477 N464 0.985 . S
C478 C479 1.363 . S
C478 C484 1.379 . S
C478 N486 1.356 . S
C479 C478 1.363 . S
C479 C485 1.363 . S
C480 C481 1.363 . S
C480 C485 1.379 . S
C480 N487 1.356 . S
C481 C480 1.363 . S
C481 C484 1.363 . S
N482 C484 1.356 . S
N482 H494 0.984 . S
N482 H495 0.985 . S
N483 C485 1.356 . S
N483 H488 0.984 . S
N483 H489 0.985 . S
C484 C478 1.379 . S
C484 C481 1.363 . S
C484 N482 1.356 . S
C485 C479 1.363 . S
C485 C480 1.379 . S
C485 N483 1.356 . S
N486 C478 1.356 . S
N486 H492 0.984 . S
N486 H493 0.984 . S
N487 C480 1.356 . S
N487 H490 0.984 . S
N487 H491 0.985 . S
H488 N483 0.984 . S
H489 N483 0.985 . S
H490 N487 0.984 . S
H491 N487 0.985 . S
H492 N486 0.984 . S
H493 N486 0.984 . S
H494 N482 0.984 . S
H495 N482 0.985 . S
C496 C497 1.363 . S
C496 C502 1.379 . S
C496 N504 1.356 . S
C497 C496 1.363 . S
C497 C503 1.363 . S
C498 C499 1.363 . S
C498 C503 1.379 . S
C498 N505 1.356 . S
C499 C498 1.363 . S
C499 C502 1.363 . S
N500 C502 1.356 . S
N500 H512 0.984 . S
N500 H513 0.985 . S
N501 C503 1.356 1_556 S
N501 H506 0.984 . S
N501 H507 0.985 . S
C502 C496 1.379 . S
C502 C499 1.363 . S
C502 N500 1.356 . S
C503 C497 1.363 . S
C503 C498 1.379 . S
C503 N501 1.356 1_554 S
N504 C496 1.356 . S
N504 H510 0.984 . S
N504 H511 0.984 . S
N505 C498 1.356 . S
N505 H508 0.984 . S
N505 H509 0.985 . S
H506 N501 0.984 . S
H507 N501 0.985 . S
H508 N505 0.984 . S
H509 N505 0.985 . S
H510 N504 0.984 . S
H511 N504 0.984 . S
H512 N500 0.984 . S
H513 N500 0.985 . S
C514 C515 1.363 . S
C514 C520 1.379 . S
C514 N522 1.356 . S
C515 C514 1.363 . S
C515 C521 1.363 . S
C516 C517 1.363 . S
C516 C521 1.379 . S
C516 N523 1.356 . S
C517 C516 1.363 . S
C517 C520 1.363 . S
N518 C520 1.356 . S
N518 H530 0.984 . S
N518 H531 0.985 . S
N519 C521 1.356 . S
N519 H524 0.984 . S
N519 H525 0.985 . S
C520 C514 1.379 . S
C520 C517 1.363 . S
C520 N518 1.356 . S
C521 C515 1.363 . S
C521 C516 1.379 . S
C521 N519 1.356 . S
N522 C514 1.356 . S
N522 H528 0.984 . S
N522 H529 0.984 . S
N523 C516 1.356 . S
N523 H526 0.984 . S
N523 H527 0.985 . S
H524 N519 0.984 . S
H525 N519 0.985 . S
H526 N523 0.984 . S
H527 N523 0.985 . S
H528 N522 0.984 . S
H529 N522 0.984 . S
H530 N518 0.984 . S
H531 N518 0.985 . S
C532 C533 1.363 . S
C532 C538 1.379 . S
C532 N540 1.356 . S
C533 C532 1.363 . S
C533 C539 1.363 . S
C534 C535 1.363 . S
C534 C539 1.379 . S
C534 N541 1.356 . S
C535 C534 1.363 . S
C535 C538 1.363 . S
N536 C538 1.356 1_556 S
N536 H548 0.984 . S
N536 H549 0.985 . S
N537 C539 1.356 . S
N537 H542 0.984 . S
N537 H543 0.985 . S
C538 C532 1.379 . S
C538 C535 1.363 . S
C538 N536 1.356 1_554 S
C539 C533 1.363 . S
C539 C534 1.379 . S
C539 N537 1.356 . S
N540 C532 1.356 . S
N540 H546 0.984 . S
N540 H547 0.984 . S
N541 C534 1.356 . S
N541 H544 0.984 . S
N541 H545 0.985 . S
H542 N537 0.984 . S
H543 N537 0.985 . S
H544 N541 0.984 . S
H545 N541 0.985 . S
H546 N540 0.984 . S
H547 N540 0.984 . S
H548 N536 0.984 . S
H549 N536 0.985 . S
C550 C551 1.363 . S
C550 C556 1.379 . S
C550 N558 1.356 . S
C551 C550 1.363 . S
C551 C557 1.363 . S
C552 C553 1.363 . S
C552 C557 1.379 . S
C552 N559 1.356 . S
C553 C552 1.363 . S
C553 C556 1.363 . S
N554 C556 1.356 . S
N554 H566 0.984 . S
N554 H567 0.985 . S
N555 C557 1.356 . S
N555 H560 0.984 . S
N555 H561 0.985 . S
C556 C550 1.379 . S
C556 C553 1.363 . S
C556 N554 1.356 . S
C557 C551 1.363 . S
C557 C552 1.379 . S
C557 N555 1.356 . S
N558 C550 1.356 . S
N558 H564 0.984 . S
N558 H565 0.984 . S
N559 C552 1.356 . S
N559 H562 0.984 . S
N559 H563 0.985 . S
H560 N555 0.984 . S
H561 N555 0.985 . S
H562 N559 0.984 . S
H563 N559 0.985 . S
H564 N558 0.984 . S
H565 N558 0.984 . S
H566 N554 0.984 . S
H567 N554 0.985 . S
C568 C569 1.363 . S
C568 C574 1.379 . S
C568 N576 1.356 . S
C569 C568 1.363 . S
C569 C575 1.363 . S
C570 C571 1.363 . S
C570 C575 1.379 . S
C570 N577 1.356 1_556 S
C571 C570 1.363 . S
C571 C574 1.363 . S
N572 C574 1.356 . S
N572 H584 0.984 . S
N572 H585 0.985 . S
N573 C575 1.356 . S
N573 H578 0.984 . S
N573 H579 0.985 . S
C574 C568 1.379 . S
C574 C571 1.363 . S
C574 N572 1.356 . S
C575 C569 1.363 . S
C575 C570 1.379 . S
C575 N573 1.356 . S
N576 C568 1.356 . S
N576 H582 0.984 . S
N576 H583 0.984 . S
N577 C570 1.356 1_554 S
N577 H580 0.984 . S
N577 H581 0.985 . S
H578 N573 0.984 . S
H579 N573 0.985 . S
H580 N577 0.984 . S
H581 N577 0.985 . S
H582 N576 0.984 . S
H583 N576 0.984 . S
H584 N572 0.984 . S
H585 N572 0.985 . S
C586 C587 1.363 . S
C586 C592 1.379 . S
C586 N594 1.356 . S
C587 C586 1.363 . S
C587 C593 1.363 . S
C588 C589 1.363 . S
C588 C593 1.379 . S
C588 N595 1.356 . S
C589 C588 1.363 . S
C589 C592 1.363 . S
N590 C592 1.356 . S
N590 H602 0.984 . S
N590 H603 0.985 . S
N591 C593 1.356 . S
N591 H596 0.984 . S
N591 H597 0.985 . S
C592 C586 1.379 . S
C592 C589 1.363 . S
C592 N590 1.356 . S
C593 C587 1.363 . S
C593 C588 1.379 . S
C593 N591 1.356 . S
N594 C586 1.356 . S
N594 H600 0.984 . S
N594 H601 0.984 . S
N595 C588 1.356 . S
N595 H598 0.984 . S
N595 H599 0.985 . S
H596 N591 0.984 . S
H597 N591 0.985 . S
H598 N595 0.984 . S
H599 N595 0.985 . S
H600 N594 0.984 . S
H601 N594 0.984 . S
H602 N590 0.984 . S
H603 N590 0.985 . S
C604 C605 1.363 . S
C604 C610 1.379 . S
C604 N612 1.356 . S
C605 C604 1.363 . S
C605 C611 1.363 . S
C606 C607 1.363 . S
C606 C611 1.379 . S
C606 N613 1.356 . S
C607 C606 1.363 . S
C607 C610 1.363 . S
N608 C610 1.356 . S
N608 H620 0.984 . S
N608 H621 0.985 . S
N609 C611 1.356 . S
N609 H614 0.984 1_556 S
N609 H615 0.985 . S
C610 C604 1.379 . S
C610 C607 1.363 . S
C610 N608 1.356 . S
C611 C605 1.363 . S
C611 C606 1.379 . S
C611 N609 1.356 . S
N612 C604 1.356 . S
N612 H618 0.984 . S
N612 H619 0.984 . S
N613 C606 1.356 . S
N613 H616 0.984 . S
N613 H617 0.985 . S
H614 N609 0.984 1_554 S
H615 N609 0.985 . S
H616 N613 0.984 . S
H617 N613 0.985 . S
H618 N612 0.984 . S
H619 N612 0.984 . S
H620 N608 0.984 . S
H621 N608 0.985 . S
C622 C623 1.363 . S
C622 C628 1.379 . S
C622 N630 1.356 . S
C623 C622 1.363 . S
C623 C629 1.363 . S
C624 C625 1.363 . S
C624 C629 1.379 . S
C624 N631 1.356 . S
C625 C624 1.363 . S
C625 C628 1.363 . S
N626 C628 1.356 . S
N626 H638 0.984 . S
N626 H639 0.985 . S
N627 C629 1.356 . S
N627 H632 0.984 . S
N627 H633 0.985 . S
C628 C622 1.379 . S
C628 C625 1.363 . S
C628 N626 1.356 . S
C629 C623 1.363 . S
C629 C624 1.379 . S
C629 N627 1.356 . S
N630 C622 1.356 . S
N630 H636 0.984 . S
N630 H637 0.984 . S
N631 C624 1.356 . S
N631 H634 0.984 . S
N631 H635 0.985 . S
H632 N627 0.984 . S
H633 N627 0.985 . S
H634 N631 0.984 . S
H635 N631 0.985 . S
H636 N630 0.984 . S
H637 N630 0.984 . S
H638 N626 0.984 . S
H639 N626 0.985 . S
C640 C641 1.363 . S
C640 C646 1.379 . S
C640 N648 1.356 . S
C641 C640 1.363 . S
C641 C647 1.363 . S
C642 C643 1.363 . S
C642 C647 1.379 . S
C642 N649 1.356 . S
C643 C642 1.363 . S
C643 C646 1.363 . S
N644 C646 1.356 . S
N644 H656 0.984 . S
N644 H657 0.985 . S
N645 C647 1.356 . S
N645 H650 0.984 . S
N645 H651 0.985 . S
C646 C640 1.379 . S
C646 C643 1.363 . S
C646 N644 1.356 . S
C647 C641 1.363 . S
C647 C642 1.379 . S
C647 N645 1.356 . S
N648 C640 1.356 . S
N648 H654 0.984 . S
N648 H655 0.984 . S
N649 C642 1.356 . S
N649 H652 0.984 . S
N649 H653 0.985 . S
H650 N645 0.984 . S
H651 N645 0.985 . S
H652 N649 0.984 . S
H653 N649 0.985 . S
H654 N648 0.984 . S
H655 N648 0.984 . S
H656 N644 0.984 . S
H657 N644 0.985 . S
C658 C659 1.363 . S
C658 C664 1.379 . S
C658 N666 1.356 . S
C659 C658 1.363 . S
C659 C665 1.363 . S
C660 C661 1.363 . S
C660 C665 1.379 . S
C660 N667 1.356 . S
C661 C660 1.363 . S
C661 C664 1.363 . S
N662 C664 1.356 . S
N662 H674 0.984 . S
N662 H675 0.985 . S
N663 C665 1.356 . S
N663 H668 0.984 . S
N663 H669 0.985 1_565 S
C664 C658 1.379 . S
C664 C661 1.363 . S
C664 N662 1.356 . S
C665 C659 1.363 . S
C665 C660 1.379 . S
C665 N663 1.356 . S
N666 C658 1.356 . S
N666 H672 0.984 . S
N666 H673 0.984 . S
N667 C660 1.356 . S
N667 H670 0.984 . S
N667 H671 0.985 . S
H668 N663 0.984 . S
H669 N663 0.985 1_545 S
H670 N667 0.984 . S
H671 N667 0.985 . S
H672 N666 0.984 . S
H673 N666 0.984 . S
H674 N662 0.984 . S
H675 N662 0.985 . S
C676 C677 1.363 . S
C676 C682 1.379 . S
C676 N684 1.356 . S
C677 C676 1.363 . S
C677 C683 1.363 . S
C678 C679 1.363 . S
C678 C683 1.379 . S
C678 N685 1.356 . S
C679 C678 1.363 . S
C679 C682 1.363 . S
N680 C682 1.356 . S
N680 H692 0.984 . S
N680 H693 0.985 . S
N681 C683 1.356 . S
N681 H686 0.984 . S
N681 H687 0.985 . S
C682 C676 1.379 . S
C682 C679 1.363 . S
C682 N680 1.356 . S
C683 C677 1.363 . S
C683 C678 1.379 . S
C683 N681 1.356 . S
N684 C676 1.356 . S
N684 H690 0.984 . S
N684 H691 0.984 . S
N685 C678 1.356 . S
N685 H688 0.984 . S
N685 H689 0.985 . S
H686 N681 0.984 . S
H687 N681 0.985 . S
H688 N685 0.984 . S
H689 N685 0.985 . S
H690 N684 0.984 . S
H691 N684 0.984 . S
H692 N680 0.984 . S
H693 N680 0.985 . S
C694 C695 1.363 . S
C694 C700 1.379 . S
C694 N702 1.356 . S
C695 C694 1.363 . S
C695 C701 1.363 . S
C696 C697 1.363 . S
C696 C701 1.379 . S
C696 N703 1.356 . S
C697 C696 1.363 . S
C697 C700 1.363 . S
N698 C700 1.356 . S
N698 H710 0.984 . S
N698 H711 0.985 . S
N699 C701 1.356 . S
N699 H704 0.984 . S
N699 H705 0.985 . S
C700 C694 1.379 . S
C700 C697 1.363 . S
C700 N698 1.356 . S
C701 C695 1.363 . S
C701 C696 1.379 . S
C701 N699 1.356 . S
N702 C694 1.356 . S
N702 H708 0.984 . S
N702 H709 0.984 . S
N703 C696 1.356 . S
N703 H706 0.984 . S
N703 H707 0.985 . S
H704 N699 0.984 . S
H705 N699 0.985 . S
H706 N703 0.984 . S
H707 N703 0.985 . S
H708 N702 0.984 . S
H709 N702 0.984 . S
H710 N698 0.984 . S
H711 N698 0.985 . S
C712 C713 1.363 . S
C712 C718 1.379 . S
C712 N720 1.356 . S
C713 C712 1.363 . S
C713 C719 1.363 . S
C714 C715 1.363 . S
C714 C719 1.379 . S
C714 N721 1.356 . S
C715 C714 1.363 . S
C715 C718 1.363 . S
N716 C718 1.356 . S
N716 H728 0.984 . S
N716 H729 0.985 . S
N717 C719 1.356 . S
N717 H722 0.984 . S
N717 H723 0.985 . S
C718 C712 1.379 . S
C718 C715 1.363 . S
C718 N716 1.356 . S
C719 C713 1.363 . S
C719 C714 1.379 . S
C719 N717 1.356 . S
N720 C712 1.356 . S
N720 H726 0.984 . S
N720 H727 0.984 . S
N721 C714 1.356 . S
N721 H724 0.984 . S
N721 H725 0.985 . S
H722 N717 0.984 . S
H723 N717 0.985 . S
H724 N721 0.984 . S
H725 N721 0.985 . S
H726 N720 0.984 . S
H727 N720 0.984 . S
H728 N716 0.984 . S
H729 N716 0.985 . S
C730 C731 1.363 . S
C730 C736 1.379 . S
C730 N738 1.356 . S
C731 C730 1.363 . S
C731 C737 1.363 . S
C732 C733 1.363 . S
C732 C737 1.379 . S
C732 N739 1.356 . S
C733 C732 1.363 . S
C733 C736 1.363 . S
N734 C736 1.356 . S
N734 H746 0.984 . S
N734 H747 0.985 . S
N735 C737 1.356 . S
N735 H740 0.984 . S
N735 H741 0.985 . S
C736 C730 1.379 . S
C736 C733 1.363 . S
C736 N734 1.356 . S
C737 C731 1.363 . S
C737 C732 1.379 . S
C737 N735 1.356 . S
N738 C730 1.356 . S
N738 H744 0.984 . S
N738 H745 0.984 . S
N739 C732 1.356 . S
N739 H742 0.984 . S
N739 H743 0.985 . S
H740 N735 0.984 . S
H741 N735 0.985 . S
H742 N739 0.984 . S
H743 N739 0.985 . S
H744 N738 0.984 . S
H745 N738 0.984 . S
H746 N734 0.984 . S
H747 N734 0.985 . S
C748 C749 1.363 . S
C748 C754 1.379 . S
C748 N756 1.356 . S
C749 C748 1.363 . S
C749 C755 1.363 . S
C750 C751 1.363 . S
C750 C755 1.379 . S
C750 N757 1.356 . S
C751 C750 1.363 . S
C751 C754 1.363 . S
N752 C754 1.356 . S
N752 H764 0.984 . S
N752 H765 0.985 . S
N753 C755 1.356 . S
N753 H758 0.984 . S
N753 H759 0.985 . S
C754 C748 1.379 . S
C754 C751 1.363 . S
C754 N752 1.356 . S
C755 C749 1.363 . S
C755 C750 1.379 . S
C755 N753 1.356 . S
N756 C748 1.356 . S
N756 H762 0.984 . S
N756 H763 0.984 . S
N757 C750 1.356 . S
N757 H760 0.984 . S
N757 H761 0.985 . S
H758 N753 0.984 . S
H759 N753 0.985 . S
H760 N757 0.984 . S
H761 N757 0.985 . S
H762 N756 0.984 . S
H763 N756 0.984 . S
H764 N752 0.984 . S
H765 N752 0.985 . S
C766 C767 1.363 . S
C766 C772 1.379 . S
C766 N774 1.356 . S
C767 C766 1.363 . S
C767 C773 1.363 . S
C768 C769 1.363 . S
C768 C773 1.379 . S
C768 N775 1.356 . S
C769 C768 1.363 . S
C769 C772 1.363 . S
N770 C772 1.356 . S
N770 H782 0.984 . S
N770 H783 0.985 . S
N771 C773 1.356 . S
N771 H776 0.984 . S
N771 H777 0.985 . S
C772 C766 1.379 . S
C772 C769 1.363 . S
C772 N770 1.356 . S
C773 C767 1.363 . S
C773 C768 1.379 . S
C773 N771 1.356 . S
N774 C766 1.356 . S
N774 H780 0.984 . S
N774 H781 0.984 . S
N775 C768 1.356 . S
N775 H778 0.984 . S
N775 H779 0.985 . S
H776 N771 0.984 . S
H777 N771 0.985 . S
H778 N775 0.984 . S
H779 N775 0.985 . S
H780 N774 0.984 . S
H781 N774 0.984 . S
H782 N770 0.984 . S
H783 N770 0.985 . S
C209 C4 1.198 . S
C211 C56 1.198 . S
C227 C69 1.197 . S
C229 C23 1.198 . S
C245 C36 1.198 . S
C247 C88 1.198 . S
C263 C49 1.198 . S
C265 C101 1.198 . S
C281 C108 1.198 . S
C283 C160 1.198 . S
C299 C173 1.198 . S
C301 C127 1.198 . S
C317 C140 1.198 . S
C319 C192 1.198 . S
C335 C147 1.198 . S
C337 C205 1.198 . S
C353 C10 1.564 1_556 S
C355 C198 1.584 . S
C371 C161 1.584 . S
C373 C17 1.576 . S
C389 C30 1.564 1_556 S
C391 C174 1.584 . S
C407 C185 1.584 . S
C409 C43 1.576 . S
C425 C120 1.584 . S
C427 C62 1.563 1_554 S
C443 C133 1.584 . S
C445 C75 1.576 . S
C461 C148 1.584 . S
C463 C82 1.563 1_554 S
C479 C109 1.584 . S
C481 C95 1.576 . S
C497 C114 1.564 1_554 S
C499 C94 1.584 . S
C515 C57 1.584 . S
C517 C121 1.576 . S
C533 C70 1.584 . S
C535 C134 1.564 1_554 S
C551 C153 1.576 . S
C553 C81 1.584 . S
C569 C16 1.584 . S
C571 C166 1.563 1_556 S
C587 C179 1.576 . S
C589 C29 1.584 . S
C605 C186 1.563 1_556 S
C607 C42 1.584 . S
C623 C199 1.576 . S
C625 C5 1.584 . S
C641 C96 1.352 . S
C643 C3 1.352 . S
C659 C18 1.352 . S
C661 C55 1.352 . S
C677 C31 1.352 . S
C679 C68 1.352 . S
C695 C44 1.352 . S
C697 C83 1.352 . S
C713 C200 1.352 . S
C715 C107 1.352 . S
C731 C159 1.352 . S
C733 C122 1.352 . S
C749 C172 1.352 . S
C751 C135 1.352 . S
C767 C187 1.352 . S
C769 C146 1.352 . S
