# Generated by pormake.
# Topology dia, (4)-cn, num edge types: 1
# Building blocks:
#     Node 0, Type 0, BuildingBlock: QUQFOY_clean_sbu_3, # of connection points: 4
#     Node 1, Type 0, BuildingBlock: QUQFOY_clean_sbu_3, # of connection points: 4
#     Node 2, Type 0, BuildingBlock: QUQFOY_clean_sbu_3, # of connection points: 4
#     Node 3, Type 0, BuildingBlock: QUQFOY_clean_sbu_3, # of connection points: 4
#     Node 4, Type 0, BuildingBlock: QUQFOY_clean_sbu_3, # of connection points: 4
#     Node 5, Type 0, BuildingBlock: QUQFOY_clean_sbu_3, # of connection points: 4
#     Node 6, Type 0, BuildingBlock: QUQFOY_clean_sbu_3, # of connection points: 4
#     Node 7, Type 0, BuildingBlock: QUQFOY_clean_sbu_3, # of connection points: 4
#     Edge 8, Type (0, 0), BuildingBlock: XUDNAN_clean_linker_2, # of connection points: 2
#     Edge 9, Type (0, 0), BuildingBlock: XUDNAN_clean_linker_2, # of connection points: 2
#     Edge 10, Type (0, 0), BuildingBlock: XUDNAN_clean_linker_2, # of connection points: 2
#     Edge 11, Type (0, 0), BuildingBlock: XUDNAN_clean_linker_2, # of connection points: 2
#     Edge 12, Type (0, 0), BuildingBlock: XUDNAN_clean_linker_2, # of connection points: 2
#     Edge 13, Type (0, 0), BuildingBlock: XUDNAN_clean_linker_2, # of connection points: 2
#     Edge 14, Type (0, 0), BuildingBlock: XUDNAN_clean_linker_2, # of connection points: 2
#     Edge 15, Type (0, 0), BuildingBlock: XUDNAN_clean_linker_2, # of connection points: 2
#     Edge 16, Type (0, 0), BuildingBlock: XUDNAN_clean_linker_2, # of connection points: 2
#     Edge 17, Type (0, 0), BuildingBlock: XUDNAN_clean_linker_2, # of connection points: 2
#     Edge 18, Type (0, 0), BuildingBlock: XUDNAN_clean_linker_2, # of connection points: 2
#     Edge 19, Type (0, 0), BuildingBlock: XUDNAN_clean_linker_2, # of connection points: 2
#     Edge 20, Type (0, 0), BuildingBlock: XUDNAN_clean_linker_2, # of connection points: 2
#     Edge 21, Type (0, 0), BuildingBlock: XUDNAN_clean_linker_2, # of connection points: 2
#     Edge 22, Type (0, 0), BuildingBlock: XUDNAN_clean_linker_2, # of connection points: 2
#     Edge 23, Type (0, 0), BuildingBlock: XUDNAN_clean_linker_2, # of connection points: 2
# Relax obj value: 0.120
# Max RMSD: 0.163
# Mean RMSD: 0.163
data_MOF--net-dia--node1-QUQFOY_clean_sbu_3--edge1-XUDNAN_clean_linker_2
_symmetry_space_group_name_H-M    P1
_symmetry_Int_Tables_number       1
_symmetry_cell_setting            triclinic
loop_
_symmetry_equiv_pos_as_xyz
'x, y, z'
_cell_length_a     34.302113
_cell_length_b     34.150266
_cell_length_c     39.817753
_cell_angle_alpha  90.002285
_cell_angle_beta   90.253825
_cell_angle_gamma 92.750765
loop_
_atom_site_label
_atom_site_type_symbol
_atom_site_fract_x
_atom_site_fract_y
_atom_site_fract_z
_atom_type_partial_charge
C0 C 0.07124 0.17079 0.64213 0.0
O1 O 0.06111 0.16745 0.61148 0.0
Cd2 Cd 0.07617 0.11659 0.57287 0.0
O3 O 0.09389 0.14665 0.6557 0.0
Cd4 Cd 0.13101 0.08923 0.6361 0.0
C5 C 0.17428 0.13795 0.56921 0.0
O6 O 0.07489 0.06004 0.60751 0.0
O7 O 0.12637 0.02704 0.60359 0.0
O8 O 0.12895 0.06678 0.69447 0.0
C9 C 0.09066 0.03002 0.59641 0.0
O10 O 0.14174 0.13459 0.55375 0.0
C11 C 0.16384 0.05585 0.69507 0.0
O12 O 0.17739 0.12665 0.59962 0.0
O13 O 0.18382 0.06164 0.66861 0.0
C14 C 0.8088 0.43462 0.80995 0.0
O15 O 0.79916 0.44775 0.83847 0.0
Cd16 Cd 0.83152 0.43486 0.89069 0.0
O17 O 0.83575 0.41027 0.80734 0.0
Cd18 Cd 0.88132 0.37373 0.84354 0.0
C19 C 0.81122 0.33577 0.89759 0.0
O20 O 0.89734 0.4332 0.87289 0.0
O21 O 0.93008 0.38505 0.88997 0.0
O22 O 0.91988 0.37347 0.79228 0.0
C23 C 0.92252 0.42084 0.89295 0.0
O24 O 0.80828 0.37006 0.9096 0.0
C25 C 0.93023 0.33842 0.79505 0.0
O26 O 0.83286 0.32977 0.87229 0.0
O27 O 0.91793 0.31943 0.82065 0.0
C28 C 0.54366 0.17459 0.12223 0.0
O29 O 0.53097 0.16691 0.0928 0.0
Cd30 Cd 0.55355 0.11905 0.0543 0.0
O31 O 0.57402 0.15876 0.13365 0.0
Cd32 Cd 0.62386 0.11466 0.11059 0.0
C33 C 0.6434 0.16 0.03494 0.0
O34 O 0.5749 0.06854 0.08948 0.0
O35 O 0.63355 0.05452 0.0771 0.0
O36 O 0.64088 0.08013 0.16215 0.0
C37 C 0.59734 0.04531 0.07542 0.0
O38 O 0.60998 0.14712 0.02476 0.0
C39 C 0.67469 0.09652 0.16516 0.0
O40 O 0.65421 0.15562 0.06536 0.0
O41 O 0.6846 0.12225 0.14341 0.0
C42 C 0.82716 0.97314 0.34157 0.0
O43 O 0.8291 0.98666 0.3713 0.0
Cd44 Cd 0.85453 0.9551 0.42004 0.0
O45 O 0.83998 0.93963 0.3345 0.0
Cd46 Cd 0.8732 0.88794 0.36716 0.0
C47 C 0.79702 0.87109 0.42037 0.0
O48 O 0.91501 0.93302 0.40044 0.0
O49 O 0.91666 0.87222 0.41422 0.0
O50 O 0.91107 0.87018 0.31724 0.0
C51 C 0.92998 0.90706 0.41835 0.0
O52 O 0.80881 0.90124 0.437 0.0
C53 C 0.90671 0.83352 0.32261 0.0
O54 O 0.813 0.86221 0.39281 0.0
O55 O 0.88515 0.8228 0.34706 0.0
C56 C 0.04519 0.67055 0.16424 0.0
O57 O 0.03249 0.67924 0.13528 0.0
Cd58 Cd 0.04389 0.64368 0.08486 0.0
O59 O 0.06727 0.6418 0.16839 0.0
Cd60 Cd 0.09957 0.58952 0.13588 0.0
C61 C 0.14426 0.65476 0.08074 0.0
O62 O 0.04055 0.57802 0.10511 0.0
O63 O 0.08432 0.53754 0.09304 0.0
O64 O 0.09592 0.55466 0.18947 0.0
C65 C 0.05059 0.54967 0.0873 0.0
O66 O 0.1107 0.6632 0.06995 0.0
C67 C 0.12987 0.54151 0.18789 0.0
O68 O 0.14824 0.63008 0.10439 0.0
O69 O 0.14976 0.55041 0.16192 0.0
C70 C 0.29193 0.40768 0.35026 0.0
O71 O 0.29738 0.42085 0.37986 0.0
Cd72 Cd 0.35252 0.40953 0.41548 0.0
O73 O 0.31514 0.38374 0.33744 0.0
Cd74 Cd 0.37361 0.3484 0.35586 0.0
C75 C 0.33606 0.31145 0.42923 0.0
O76 O 0.40593 0.40766 0.3781 0.0
O77 O 0.4379 0.35547 0.38385 0.0
O78 O 0.38815 0.3472 0.29584 0.0
C79 C 0.43638 0.39202 0.38851 0.0
O80 O 0.34153 0.34577 0.44132 0.0
C81 C 0.40109 0.31299 0.29582 0.0
O82 O 0.34104 0.30465 0.39806 0.0
O83 O 0.40003 0.29456 0.32352 0.0
C84 C 0.31125 0.91566 0.86512 0.0
O85 O 0.31612 0.9289 0.89476 0.0
Cd86 Cd 0.3624 0.91111 0.93635 0.0
O87 O 0.33141 0.88789 0.85407 0.0
Cd88 Cd 0.38268 0.84518 0.87811 0.0
C89 C 0.32898 0.81626 0.94771 0.0
O90 O 0.41849 0.90027 0.90324 0.0
O91 O 0.44552 0.84534 0.90924 0.0
O92 O 0.40602 0.8327 0.82061 0.0
C93 C 0.44645 0.88176 0.91505 0.0
O94 O 0.33333 0.85081 0.95953 0.0
C95 C 0.41037 0.79645 0.82599 0.0
O96 O 0.3426 0.80752 0.9191 0.0
O97 O 0.40017 0.78325 0.85456 0.0
C98 C 0.53486 0.6657 0.63761 0.0
O99 O 0.51448 0.66751 0.611 0.0
Cd100 Cd 0.53192 0.63671 0.55898 0.0
O101 O 0.56731 0.64904 0.63753 0.0
Cd102 Cd 0.61043 0.61623 0.59776 0.0
C103 C 0.61634 0.68916 0.53972 0.0
O104 O 0.55789 0.5747 0.57221 0.0
O105 O 0.61566 0.5704 0.55157 0.0
O106 O 0.62917 0.58008 0.64786 0.0
C107 C 0.58012 0.55863 0.55148 0.0
O108 O 0.58149 0.67826 0.53185 0.0
C109 C 0.66526 0.58031 0.64097 0.0
O110 O 0.63324 0.67446 0.56504 0.0
O111 O 0.67622 0.59853 0.61459 0.0
H112 H 0.27769 0.25519 0.41901 0.0
H113 H 0.36348 0.29842 0.49192 0.0
H114 H 0.33643 0.2514 0.53389 0.0
H115 H 0.20083 0.25039 0.47459 0.0
H116 H 0.17649 0.20692 0.45732 0.0
H117 H 0.20706 0.23804 0.43098 0.0
H118 H 0.24815 0.179 0.41541 0.0
H119 H 0.21748 0.14756 0.44163 0.0
H120 H 0.26955 0.15066 0.4483 0.0
H121 H 0.29619 0.20511 0.56956 0.0
H122 H 0.24333 0.1658 0.59733 0.0
H123 H 0.18126 0.15531 0.50223 0.0
C124 C 0.29151 0.25365 0.44346 0.0
C125 C 0.32304 0.27973 0.4522 0.0
C126 C 0.33954 0.27823 0.48478 0.0
C127 C 0.32448 0.25157 0.50869 0.0
C128 C 0.29265 0.22688 0.4997 0.0
C129 C 0.27624 0.22772 0.4679 0.0
C130 C 0.23921 0.20178 0.46605 0.0
C131 C 0.20382 0.22572 0.4567 0.0
C132 C 0.24389 0.16772 0.44139 0.0
C133 C 0.23678 0.18726 0.50197 0.0
C134 C 0.26833 0.20136 0.52077 0.0
C135 C 0.27154 0.19349 0.55501 0.0
C136 C 0.24136 0.17114 0.57058 0.0
C137 C 0.20812 0.15749 0.55201 0.0
C138 C 0.20631 0.16519 0.51714 0.0
H139 H 0.65641 0.55699 0.7064 0.0
H140 H 0.7357 0.55373 0.62196 0.0
H141 H 0.77935 0.51281 0.65506 0.0
H142 H 0.73168 0.56548 0.77 0.0
H143 H 0.70434 0.53589 0.80004 0.0
H144 H 0.67907 0.56389 0.76922 0.0
H145 H 0.64111 0.50055 0.74939 0.0
H146 H 0.66662 0.47228 0.7799 0.0
H147 H 0.66776 0.45908 0.73609 0.0
H148 H 0.81295 0.47005 0.69674 0.0
H149 H 0.83864 0.43606 0.74632 0.0
H150 H 0.73928 0.47065 0.80456 0.0
C151 C 0.68301 0.54771 0.69493 0.0
C152 C 0.69265 0.55833 0.6616 0.0
C153 C 0.72787 0.54601 0.64752 0.0
C154 C 0.75268 0.52255 0.66603 0.0
C155 C 0.74207 0.51216 0.69871 0.0
C156 C 0.70842 0.5249 0.71324 0.0
C157 C 0.70463 0.51113 0.74928 0.0
C158 C 0.70497 0.54619 0.77356 0.0
C159 C 0.66785 0.48416 0.75392 0.0
C160 C 0.74136 0.48856 0.75274 0.0
C161 C 0.76225 0.48899 0.72314 0.0
C162 C 0.79696 0.4697 0.72011 0.0
C163 C 0.81118 0.45026 0.74835 0.0
C164 C 0.79102 0.45079 0.77932 0.0
C165 C 0.75542 0.46984 0.78127 0.0
H166 H 0.52412 0.0389 0.04908 0.0
H167 H 0.63521 0.98328 0.04915 0.0
H168 H 0.60848 0.93384 0.00846 0.0
H169 H 0.46155 0.95129 0.04133 0.0
H170 H 0.42761 0.97429 0.01383 0.0
H171 H 0.45502 0.00324 0.04439 0.0
H172 H 0.48136 0.04933 -0.00294 0.0
H173 H 0.45422 0.02043 0.96633 0.0
H174 H 0.5062 0.02891 0.9618 0.0
H175 H 0.56843 0.89017 0.96797 0.0
H176 H 0.52009 0.85853 0.92883 0.0
H177 H 0.43795 0.94683 0.95314 0.0
C178 C 0.54276 0.01606 0.0409 0.0
C179 C 0.58159 0.01456 0.05245 0.0
C180 C 0.60527 0.98471 0.04065 0.0
C181 C 0.59034 0.95657 0.01762 0.0
C182 C 0.55192 0.95916 0.00648 0.0
C183 C 0.52861 0.98835 0.01763 0.0
C184 C 0.48903 0.9861 0.00077 0.0
C185 C 0.45638 0.97825 0.02662 0.0
C186 C 0.48234 0.0234 0.98027 0.0
C187 C 0.4936 0.9511 0.97823 0.0
C188 C 0.52983 0.93554 0.98214 0.0
C189 C 0.5401 0.90228 0.96456 0.0
C190 C 0.51255 0.88453 0.94246 0.0
C191 C 0.47562 0.90058 0.93781 0.0
C192 C 0.46623 0.93432 0.95585 0.0
H193 H 0.93499 0.83966 0.25808 0.0
H194 H 0.92739 0.76214 0.34441 0.0
H195 H 0.96662 0.71449 0.31472 0.0
H196 H 0.9237 0.76259 0.19674 0.0
H197 H 0.95657 0.78616 0.16696 0.0
H198 H 0.92996 0.8153 0.19582 0.0
H199 H -0.00496 0.84864 0.21681 0.0
H200 H 0.02188 0.81925 0.18824 0.0
H201 H 0.03304 0.81877 0.23251 0.0
H202 H 0.00773 0.67586 0.27646 0.0
H203 H 0.03994 0.64426 0.22894 0.0
H204 H 0.01701 0.74433 0.16585 0.0
C205 C 0.94171 0.81267 0.27067 0.0
C206 C 0.92836 0.8046 0.30356 0.0
C207 C 0.93723 0.7688 0.31914 0.0
C208 C 0.95975 0.74169 0.30261 0.0
C209 C 0.97273 0.75056 0.27031 0.0
C210 C 0.96349 0.78481 0.25422 0.0
C211 C 0.9789 0.78582 0.2186 0.0
C212 C 0.94528 0.78756 0.19303 0.0
C213 C 0.00901 0.82016 0.21377 0.0
C214 C -0.00194 0.74677 0.21725 0.0
C215 C -0.00517 0.72728 0.24756 0.0
C216 C 0.01036 0.69075 0.25253 0.0
C217 C 0.0288 0.67314 0.22546 0.0
C218 C 0.03087 0.69178 0.19372 0.0
C219 C 0.01577 0.72934 0.18982 0.0
H220 H 0.31373 0.9273 0.79674 0.0
H221 H 0.24369 0.94647 0.88516 0.0
H222 H 0.19734 0.98261 0.85089 0.0
H223 H 0.30397 0.02207 0.76248 0.0
H224 H 0.30174 0.00625 0.7193 0.0
H225 H 0.32759 0.97842 0.74985 0.0
H226 H 0.28542 0.91599 0.73438 0.0
H227 H 0.25966 0.94356 0.70353 0.0
H228 H 0.23297 0.91711 0.73592 0.0
H229 H 0.15974 0.01839 0.80781 0.0
H230 H 0.13382 0.05271 0.75851 0.0
H231 H 0.22991 0.01375 0.69844 0.0
C232 C 0.28818 0.93843 0.80865 0.0
C233 C 0.28202 0.93381 0.8435 0.0
C234 C 0.24884 0.94962 0.85845 0.0
C235 C 0.22233 0.97014 0.83921 0.0
C236 C 0.2296 0.97497 0.80507 0.0
C237 C 0.2617 0.95967 0.78986 0.0
C238 C 0.26387 0.97121 0.75312 0.0
C239 C 0.30153 -0.00404 0.74578 0.0
C240 C 0.26025 0.9348 0.7304 0.0
C241 C 0.22817 -0.00447 0.75021 0.0
C242 C 0.20863 -0.00303 0.7804 0.0
C243 C 0.17474 0.01749 0.784 0.0
C244 C 0.16028 0.03692 0.75589 0.0
C245 C 0.17995 0.03609 0.72474 0.0
C246 C 0.21442 0.01519 0.72201 0.0
H247 H 0.98373 0.4073 0.93579 0.0
H248 H 0.89476 0.48997 0.91364 0.0
H249 H 0.91739 0.53082 0.96146 0.0
H250 H 0.97952 0.41435 0.02585 0.0
H251 H 0.03144 0.41189 0.03193 0.0
H252 H 0.0082 0.38848 -0.00395 0.0
H253 H 0.0552 0.42779 0.95636 0.0
H254 H 0.07868 0.45122 -0.00788 0.0
H255 H 0.0588 0.48054 0.95915 0.0
H256 H 0.94765 0.56169 0.01205 0.0
H257 H 0.98732 0.58371 0.06081 0.0
H258 H 0.05905 0.48317 0.04949 0.0
C259 C 0.96909 0.43401 0.94106 0.0
C260 C 0.93743 0.44542 0.9211 0.0
C261 C 0.91913 0.48069 0.92856 0.0
C262 C 0.93166 0.50405 0.95573 0.0
C263 C 0.96277 0.49195 0.97501 0.0
C264 C 0.98157 0.45804 0.96793 0.0
C265 C 0.0149 0.45246 -0.00767 0.0
C266 C 0.00809 0.41454 0.01275 0.0
C267 C 0.05422 0.45305 0.97388 0.0
C268 C 0.01168 0.48846 0.01424 0.0
C269 C 0.98116 0.51058 0.00388 0.0
C270 C 0.97177 0.54477 0.02036 0.0
C271 C -0.00559 0.55695 0.04808 0.0
C272 C 0.0263 0.5352 0.05884 0.0
C273 C 0.03495 0.50046 0.04169 0.0
H274 H 0.45121 0.25296 0.292 0.0
H275 H 0.39045 0.33605 0.23091 0.0
H276 H 0.42132 0.31034 0.18002 0.0
H277 H 0.54129 0.26096 0.24624 0.0
H278 H 0.5513 0.20987 0.25058 0.0
H279 H 0.52332 0.23361 0.28216 0.0
H280 H 0.46681 0.18123 0.27442 0.0
H281 H 0.49473 0.15715 0.24301 0.0
H282 H 0.44644 0.17245 0.23313 0.0
H283 H 0.45755 0.27489 0.13587 0.0
H284 H 0.4981 0.23304 0.1012 0.0
H285 H 0.53862 0.17551 0.19115 0.0
C286 C 0.44413 0.26546 0.26786 0.0
C287 C 0.41819 0.29628 0.2653 0.0
C288 C 0.41015 0.31235 0.23338 0.0
C289 C 0.42755 0.29797 0.20437 0.0
C290 C 0.4533 0.26786 0.20779 0.0
C291 C 0.46174 0.25188 0.2387 0.0
C292 C 0.49125 0.22043 0.23548 0.0
C293 C 0.52903 0.23192 0.25476 0.0
C294 C 0.47375 0.18045 0.2472 0.0
C295 C 0.49784 0.22102 0.19787 0.0
C296 C 0.47547 0.24846 0.1824 0.0
C297 C 0.47541 0.2535 0.14771 0.0
C298 C 0.49851 0.22959 0.12825 0.0
C299 C 0.52174 0.20129 0.14351 0.0
C300 C 0.52167 0.19734 0.17884 0.0
H301 H 0.78363 0.84815 0.48536 0.0
H302 H 0.7384 0.8357 0.38385 0.0
H303 H 0.68515 0.79068 0.40434 0.0
H304 H 0.76743 0.7474 0.50674 0.0
H305 H 0.75465 0.7564 0.54983 0.0
H306 H 0.78696 0.79071 0.52797 0.0
H307 H 0.74128 0.84681 0.54152 0.0
H308 H 0.70883 0.81267 0.56349 0.0
H309 H 0.69048 0.84181 0.52971 0.0
H310 H 0.63755 0.74736 0.43529 0.0
H311 H 0.60112 0.70303 0.47392 0.0
H312 H 0.68001 0.73861 0.55513 0.0
C313 C 0.76206 0.83637 0.46765 0.0
C314 C 0.76456 0.84565 0.43314 0.0
C315 C 0.73668 0.82897 0.4104 0.0
C316 C 0.70635 0.80355 0.42182 0.0
C317 C 0.70482 0.79464 0.45594 0.0
C318 C 0.73213 0.8101 0.47852 0.0
C319 C 0.72544 0.79322 0.51338 0.0
C320 C 0.76072 0.77059 0.52516 0.0
C321 C 0.71594 0.82556 0.53851 0.0
C322 C 0.69016 0.76581 0.5068 0.0
C323 C 0.67847 0.76768 0.47359 0.0
C324 C 0.64642 0.74555 0.46134 0.0
C325 C 0.62587 0.72054 0.48354 0.0
C326 C 0.63778 0.71731 0.51752 0.0
C327 C 0.67038 0.74033 0.52926 0.0
H328 H 0.19677 0.50039 0.18778 0.0
H329 H 0.09944 0.53017 0.25062 0.0
H330 H 0.12801 0.49464 0.29803 0.0
H331 H 0.20769 0.40169 0.22297 0.0
H332 H 0.26016 0.40533 0.22003 0.0
H333 H 0.23085 0.43103 0.19039 0.0
H334 H 0.26799 0.49641 0.20602 0.0
H335 H 0.29737 0.47094 0.23565 0.0
H336 H 0.27012 0.51182 0.24933 0.0
H337 H 0.17027 0.46193 0.33996 0.0
H338 H 0.2219 0.43126 0.37288 0.0
H339 H 0.28994 0.41917 0.28223 0.0
C340 C 0.18125 0.49905 0.2114 0.0
C341 C 0.14589 0.51809 0.21553 0.0
C342 C 0.12649 0.5157 0.24685 0.0
C343 C 0.14247 0.49557 0.27392 0.0
C344 C 0.17758 0.47749 0.26914 0.0
C345 C 0.19654 0.47864 0.23858 0.0
C346 C 0.23448 0.45771 0.2404 0.0
C347 C 0.2332 0.4218 0.21706 0.0
C348 C 0.26955 0.48591 0.23239 0.0
C349 C 0.23438 0.44553 0.27699 0.0
C350 C 0.20127 0.45723 0.2931 0.0
C351 C 0.19597 0.45197 0.32751 0.0
C352 C 0.22545 0.43463 0.346 0.0
C353 C 0.25957 0.42238 0.32999 0.0
C354 C 0.26371 0.42739 0.29495 0.0
H355 H 0.7873 0.32963 0.96285 0.0
H356 H 0.78411 0.26749 0.86775 0.0
H357 H 0.74277 0.21422 0.89337 0.0
H358 H 0.79255 0.24203 0.01552 0.0
H359 H 0.76281 0.26165 0.04809 0.0
H360 H 0.79295 0.29422 0.02245 0.0
H361 H 0.73224 0.33245 0.00609 0.0
H362 H 0.70192 0.29998 0.03158 0.0
H363 H 0.6904 0.30641 0.98777 0.0
H364 H 0.69666 0.17141 0.92782 0.0
H365 H 0.65408 0.13843 0.97019 0.0
H366 H 0.6918 0.22547 0.04424 0.0
C367 C 0.77808 0.30468 0.94748 0.0
C368 C 0.78863 0.30271 0.91326 0.0
C369 C 0.77639 0.26947 0.89402 0.0
C370 C 0.75287 0.23917 0.90834 0.0
C371 C 0.7426 0.24226 0.94206 0.0
C372 C 0.75534 0.27384 0.96154 0.0
C373 C 0.7403 0.27 -0.00281 0.0
C374 C 0.77418 0.26677 0.02229 0.0
C375 C 0.71469 0.30424 0.00616 0.0
C376 C 0.71629 0.23174 -0.00546 0.0
C377 C 0.71781 0.21638 0.96244 0.0
C378 C 0.69581 0.18275 0.95317 0.0
C379 C 0.67164 0.16435 0.97732 0.0
C380 C 0.67015 0.17922 0.01045 0.0
C381 C 0.69309 0.21311 0.01924 0.0
H382 H 0.77265 0.95057 0.294 0.0
H383 H 0.84299 0.05057 0.33058 0.0
H384 H 0.81318 0.09286 0.28807 0.0
H385 H 0.77124 0.97702 0.20539 0.0
H386 H 0.72087 0.96085 0.19958 0.0
H387 H 0.75022 0.93784 0.23084 0.0
H388 H 0.69959 0.9535 0.27643 0.0
H389 H 0.67019 0.97672 0.24536 0.0
H390 H 0.68623 0.00345 0.28234 0.0
H391 H 0.7765 0.1239 0.24103 0.0
H392 H 0.73103 0.14294 0.19606 0.0
H393 H 0.67963 0.02443 0.19417 0.0
C394 C 0.7821 0.98124 0.29259 0.0
C395 C 0.81046 -0.00262 0.31505 0.0
C396 C 0.82145 0.03779 0.31331 0.0
C397 C 0.80476 0.06194 0.28926 0.0
C398 C 0.77654 0.04533 0.26764 0.0
C399 C 0.76489 0.00603 0.26933 0.0
C400 C 0.73196 -0.00378 0.2448 0.0
C401 C 0.74433 0.96621 0.2186 0.0
C402 C 0.6948 0.98162 0.26335 0.0
C403 C 0.727 0.03609 0.22905 0.0
C404 C 0.75345 0.06386 0.24218 0.0
C405 C 0.75542 0.1025 0.23075 0.0
C406 C 0.72958 0.11305 0.20524 0.0
C407 C 0.70164 0.08528 0.19208 0.0
C408 C 0.70033 0.04638 0.20425 0.0
H409 H 0.93878 0.97725 0.45044 0.0
H410 H 0.98311 0.86047 0.44778 0.0
H411 H 0.02964 0.8788 0.4936 0.0
H412 H 0.02901 0.03045 0.46764 0.0
H413 H 0.00739 0.0646 0.4957 0.0
H414 H 0.97871 0.04231 0.46222 0.0
H415 H 0.92719 0.01661 0.50538 0.0
H416 H 0.95576 0.03876 0.53901 0.0
H417 H 0.94226 0.98712 0.54022 0.0
H418 H 0.07325 0.91158 0.5382 0.0
H419 H 0.10684 0.95443 0.5807 0.0
H420 H 0.02959 0.0473 0.55624 0.0
C421 C 0.95846 0.95561 0.45936 0.0
C422 C 0.95779 0.91761 0.44549 0.0
C423 C 0.98338 0.8898 0.45816 0.0
C424 C 0.00987 0.89996 0.48407 0.0
C425 C 0.00976 0.93778 0.49727 0.0
C426 C 0.98438 0.96498 0.48556 0.0
C427 C 0.98902 0.00316 0.50465 0.0
C428 C 0.0018 0.03712 0.48115 0.0
C429 C 0.95131 0.0119 0.52343 0.0
C430 C 0.02128 -0.00657 0.52874 0.0
C431 C 0.0332 0.95575 0.52395 0.0
C432 C 0.06386 0.94097 0.54242 0.0
C433 C 0.08277 0.96544 0.5664 0.0
C434 C 0.07043 0.00386 0.57191 0.0
C435 C 0.03918 0.01779 0.55293 0.0
H436 H 0.96471 0.26722 0.79744 0.0
H437 H 0.95074 0.36911 0.73406 0.0
H438 H 0.98909 0.33882 0.68968 0.0
H439 H 0.06499 0.24946 0.77148 0.0
H440 H 0.05731 0.19689 0.77278 0.0
H441 H 0.03023 0.22723 0.80042 0.0
H442 H 0.96534 0.19535 0.77765 0.0
H443 H -0.00782 0.16492 0.75001 0.0
H444 H 0.95571 0.1958 0.7331 0.0
H445 H 0.02379 0.29579 0.65057 0.0
H446 H 0.05528 0.24334 0.61965 0.0
H447 H 0.05041 0.17026 0.70879 0.0
C448 C 0.97002 0.28327 0.77432 0.0
C449 C 0.95468 0.32055 0.7692 0.0
C450 C 0.96225 0.3406 0.7386 0.0
C451 C 0.98403 0.32365 0.71323 0.0
C452 C -0.00151 0.28682 0.71896 0.0
C453 C -0.00787 0.26694 0.7488 0.0
C454 C 0.01029 0.22728 0.74809 0.0
C455 C 0.04263 0.22511 0.77478 0.0
C456 C 0.97901 0.19387 0.75246 0.0
C457 C 0.02708 0.22769 0.71291 0.0
C458 C 0.01987 0.26237 0.69661 0.0
C459 C 0.03015 0.26877 0.6632 0.0
C460 C 0.04792 0.23879 0.64584 0.0
C461 C 0.05565 0.20302 0.66197 0.0
C462 C 0.0456 0.19767 0.6961 0.0
H463 H 0.48797 0.72788 0.64678 0.0
H464 H 0.54785 0.6376 0.7003 0.0
H465 H 0.52051 0.66018 0.75375 0.0
H466 H 0.50505 0.80255 0.7107 0.0
H467 H 0.45858 0.824 0.70435 0.0
H468 H 0.48174 0.79995 0.67003 0.0
H469 H 0.41969 0.75466 0.66165 0.0
H470 H 0.39643 0.77839 0.69609 0.0
H471 H 0.40077 0.726 0.69649 0.0
H472 H 0.48436 0.68984 0.80057 0.0
H473 H 0.44827 0.73042 0.83976 0.0
H474 H 0.41598 0.8056 0.75728 0.0
C475 C 0.49524 0.71293 0.6698 0.0
C476 C 0.51979 0.68085 0.66949 0.0
C477 C 0.52918 0.66229 0.70006 0.0
C478 C 0.51363 0.67476 0.73049 0.0
C479 C 0.48933 0.70626 0.72996 0.0
C480 C 0.48071 0.72563 0.70058 0.0
C481 C 0.4553 0.75989 0.7074 0.0
C482 C 0.47644 0.79891 0.69754 0.0
C483 C 0.4157 0.75438 0.68933 0.0
C484 C 0.45074 0.75647 0.74516 0.0
C485 C 0.47016 0.72493 0.75748 0.0
C486 C 0.46932 0.71484 0.79132 0.0
C487 C 0.44857 0.73795 0.81333 0.0
C488 C 0.42948 0.7712 0.80155 0.0
C489 C 0.43053 0.78049 0.76697 0.0
H490 H 0.15423 0.7305 0.06034 0.0
H491 H 0.21171 0.62028 0.06385 0.0
H492 H 0.26646 0.64969 0.03038 0.0
H493 H 0.17925 0.75808 0.97814 0.0
H494 H 0.18781 0.80946 0.98738 0.0
H495 H 0.15408 0.78011 0.01245 0.0
H496 H 0.19257 0.8003 0.0664 0.0
H497 H 0.22621 0.83009 0.04152 0.0
H498 H 0.24417 0.79275 0.06873 0.0
H499 H 0.3108 0.68958 -0.0091 0.0
H500 H 0.34639 0.73959 0.95597 0.0
H501 H 0.26278 0.82505 0.98359 0.0
C502 C 0.17862 0.71276 0.05437 0.0
C503 C 0.17891 0.67318 0.0644 0.0
C504 C 0.21125 0.65077 0.05645 0.0
C505 C 0.24227 0.66716 0.03735 0.0
C506 C 0.24074 0.70618 0.02723 0.0
C507 C 0.21018 0.72893 0.03619 0.0
C508 C 0.2157 0.77022 0.02272 0.0
C509 C 0.18222 0.78002 -0.00125 0.0
C510 C 0.21993 0.8001 0.05157 0.0
C511 C 0.25367 0.76697 0.00404 0.0
C512 C 0.26748 0.7297 0.00654 0.0
C513 C 0.30069 0.71906 0.98932 0.0
C514 C 0.32054 0.74747 0.96943 0.0
C515 C 0.30746 0.78607 0.96758 0.0
C516 C 0.2737 0.79586 0.98516 0.0
H517 H 0.42398 0.45593 0.42732 0.0
H518 H 0.5125 0.37561 0.3993 0.0
H519 H 0.5595 0.41003 0.43786 0.0
H520 H 0.48702 0.54306 0.43706 0.0
H521 H 0.46129 0.56014 0.47318 0.0
H522 H 0.43568 0.53061 0.44191 0.0
H523 H 0.41307 0.48102 0.48797 0.0
H524 H 0.4388 0.51025 0.51935 0.0
H525 H 0.44898 0.45929 0.51438 0.0
H526 H 0.59679 0.45402 0.47863 0.0
H527 H 0.62091 0.50205 0.52128 0.0
H528 H 0.50618 0.54996 0.52581 0.0
C529 C 0.45342 0.44594 0.42898 0.0
C530 C 0.46495 0.41351 0.41013 0.0
C531 C 0.50334 0.40061 0.41348 0.0
C532 C 0.53014 0.41995 0.43525 0.0
C533 C 0.51774 0.45164 0.45377 0.0
C534 C 0.4802 0.46434 0.45107 0.0
C535 C 0.47361 0.49782 0.47496 0.0
C536 C 0.46384 0.53512 0.45561 0.0
C537 C 0.44173 0.48639 0.50069 0.0
C538 C 0.51339 0.50215 0.49143 0.0
C539 C 0.53855 0.47552 0.4786 0.0
C540 C 0.5773 0.4748 0.48906 0.0
C541 C 0.59071 0.50215 0.51322 0.0
C542 C 0.56524 0.52929 0.52696 0.0
C543 C 0.52606 0.52907 0.51606 0.0
loop_
_geom_bond_atom_site_label_1
_geom_bond_atom_site_label_2
_geom_bond_distance
_geom_bond_site_symmetry_2
_ccdc_geom_bond_type
C0 O1 1.306 . S
C0 O3 1.160 . S
O1 C0 1.306 . S
O1 Cd2 2.228 . S
Cd2 O1 2.228 . S
Cd2 O6 2.273 . S
Cd2 O10 2.277 . S
O3 C0 1.160 . S
O3 Cd4 2.203 . S
Cd4 O3 2.203 . S
Cd4 O6 2.411 . S
Cd4 O7 2.333 . S
Cd4 O8 2.352 . S
Cd4 O12 2.277 . S
Cd4 O13 2.356 . S
C5 O10 1.209 . S
C5 O12 1.226 . S
O6 Cd2 2.273 . S
O6 Cd4 2.411 . S
O6 C9 1.320 . S
O7 Cd4 2.333 . S
O7 C9 1.214 . S
O8 Cd4 2.352 . S
O8 C11 1.258 . S
C9 O6 1.320 . S
C9 O7 1.214 . S
O10 Cd2 2.277 . S
O10 C5 1.209 . S
C11 O8 1.258 . S
C11 O13 1.282 . S
O12 Cd4 2.277 . S
O12 C5 1.226 . S
O13 Cd4 2.356 . S
O13 C11 1.282 . S
C14 O15 1.306 . S
C14 O17 1.160 . S
O15 C14 1.306 . S
O15 Cd16 2.228 . S
Cd16 O15 2.228 . S
Cd16 O20 2.273 . S
Cd16 O24 2.277 . S
O17 C14 1.160 . S
O17 Cd18 2.203 . S
Cd18 O17 2.203 . S
Cd18 O20 2.411 . S
Cd18 O21 2.333 . S
Cd18 O22 2.352 . S
Cd18 O26 2.277 . S
Cd18 O27 2.356 . S
C19 O24 1.209 . S
C19 O26 1.226 . S
O20 Cd16 2.273 . S
O20 Cd18 2.411 . S
O20 C23 1.320 . S
O21 Cd18 2.333 . S
O21 C23 1.214 . S
O22 Cd18 2.352 . S
O22 C25 1.258 . S
C23 O20 1.320 . S
C23 O21 1.214 . S
O24 Cd16 2.277 . S
O24 C19 1.209 . S
C25 O22 1.258 . S
C25 O27 1.282 . S
O26 Cd18 2.277 . S
O26 C19 1.226 . S
O27 Cd18 2.356 . S
O27 C25 1.282 . S
C28 O29 1.306 . S
C28 O31 1.160 . S
O29 C28 1.306 . S
O29 Cd30 2.228 . S
Cd30 O29 2.228 . S
Cd30 O34 2.273 . S
Cd30 O38 2.277 . S
O31 C28 1.160 . S
O31 Cd32 2.203 . S
Cd32 O31 2.203 . S
Cd32 O34 2.411 . S
Cd32 O35 2.333 . S
Cd32 O36 2.352 . S
Cd32 O40 2.277 . S
Cd32 O41 2.356 . S
C33 O38 1.209 . S
C33 O40 1.226 . S
O34 Cd30 2.273 . S
O34 Cd32 2.411 . S
O34 C37 1.320 . S
O35 Cd32 2.333 . S
O35 C37 1.214 . S
O36 Cd32 2.352 . S
O36 C39 1.258 . S
C37 O34 1.320 . S
C37 O35 1.214 . S
O38 Cd30 2.277 . S
O38 C33 1.209 . S
C39 O36 1.258 . S
C39 O41 1.282 . S
O40 Cd32 2.277 . S
O40 C33 1.226 . S
O41 Cd32 2.356 . S
O41 C39 1.282 . S
C42 O43 1.306 . S
C42 O45 1.160 . S
O43 C42 1.306 . S
O43 Cd44 2.228 . S
Cd44 O43 2.228 . S
Cd44 O48 2.273 . S
Cd44 O52 2.277 . S
O45 C42 1.160 . S
O45 Cd46 2.203 . S
Cd46 O45 2.203 . S
Cd46 O48 2.411 . S
Cd46 O49 2.333 . S
Cd46 O50 2.352 . S
Cd46 O54 2.277 . S
Cd46 O55 2.356 . S
C47 O52 1.209 . S
C47 O54 1.226 . S
O48 Cd44 2.273 . S
O48 Cd46 2.411 . S
O48 C51 1.320 . S
O49 Cd46 2.333 . S
O49 C51 1.214 . S
O50 Cd46 2.352 . S
O50 C53 1.258 . S
C51 O48 1.320 . S
C51 O49 1.214 . S
O52 Cd44 2.277 . S
O52 C47 1.209 . S
C53 O50 1.258 . S
C53 O55 1.282 . S
O54 Cd46 2.277 . S
O54 C47 1.226 . S
O55 Cd46 2.356 . S
O55 C53 1.282 . S
C56 O57 1.306 . S
C56 O59 1.160 . S
O57 C56 1.306 . S
O57 Cd58 2.228 . S
Cd58 O57 2.228 . S
Cd58 O62 2.273 . S
Cd58 O66 2.277 . S
O59 C56 1.160 . S
O59 Cd60 2.203 . S
Cd60 O59 2.203 . S
Cd60 O62 2.411 . S
Cd60 O63 2.333 . S
Cd60 O64 2.352 . S
Cd60 O68 2.277 . S
Cd60 O69 2.356 . S
C61 O66 1.209 . S
C61 O68 1.226 . S
O62 Cd58 2.273 . S
O62 Cd60 2.411 . S
O62 C65 1.320 . S
O63 Cd60 2.333 . S
O63 C65 1.214 . S
O64 Cd60 2.352 . S
O64 C67 1.258 . S
C65 O62 1.320 . S
C65 O63 1.214 . S
O66 Cd58 2.277 . S
O66 C61 1.209 . S
C67 O64 1.258 . S
C67 O69 1.282 . S
O68 Cd60 2.277 . S
O68 C61 1.226 . S
O69 Cd60 2.356 . S
O69 C67 1.282 . S
C70 O71 1.306 . S
C70 O73 1.160 . S
O71 C70 1.306 . S
O71 Cd72 2.228 . S
Cd72 O71 2.228 . S
Cd72 O76 2.273 . S
Cd72 O80 2.277 . S
O73 C70 1.160 . S
O73 Cd74 2.203 . S
Cd74 O73 2.203 . S
Cd74 O76 2.411 . S
Cd74 O77 2.333 . S
Cd74 O78 2.352 . S
Cd74 O82 2.277 . S
Cd74 O83 2.356 . S
C75 O80 1.209 . S
C75 O82 1.226 . S
O76 Cd72 2.273 . S
O76 Cd74 2.411 . S
O76 C79 1.320 . S
O77 Cd74 2.333 . S
O77 C79 1.214 . S
O78 Cd74 2.352 . S
O78 C81 1.258 . S
C79 O76 1.320 . S
C79 O77 1.214 . S
O80 Cd72 2.277 . S
O80 C75 1.209 . S
C81 O78 1.258 . S
C81 O83 1.282 . S
O82 Cd74 2.277 . S
O82 C75 1.226 . S
O83 Cd74 2.356 . S
O83 C81 1.282 . S
C84 O85 1.306 . S
C84 O87 1.160 . S
O85 C84 1.306 . S
O85 Cd86 2.228 . S
Cd86 O85 2.228 . S
Cd86 O90 2.273 . S
Cd86 O94 2.277 . S
O87 C84 1.160 . S
O87 Cd88 2.203 . S
Cd88 O87 2.203 . S
Cd88 O90 2.411 . S
Cd88 O91 2.333 . S
Cd88 O92 2.352 . S
Cd88 O96 2.277 . S
Cd88 O97 2.356 . S
C89 O94 1.209 . S
C89 O96 1.226 . S
O90 Cd86 2.273 . S
O90 Cd88 2.411 . S
O90 C93 1.320 . S
O91 Cd88 2.333 . S
O91 C93 1.214 . S
O92 Cd88 2.352 . S
O92 C95 1.258 . S
C93 O90 1.320 . S
C93 O91 1.214 . S
O94 Cd86 2.277 . S
O94 C89 1.209 . S
C95 O92 1.258 . S
C95 O97 1.282 . S
O96 Cd88 2.277 . S
O96 C89 1.226 . S
O97 Cd88 2.356 . S
O97 C95 1.282 . S
C98 O99 1.306 . S
C98 O101 1.160 . S
O99 C98 1.306 . S
O99 Cd100 2.228 . S
Cd100 O99 2.228 . S
Cd100 O104 2.273 . S
Cd100 O108 2.277 . S
O101 C98 1.160 . S
O101 Cd102 2.203 . S
Cd102 O101 2.203 . S
Cd102 O104 2.411 . S
Cd102 O105 2.333 . S
Cd102 O106 2.352 . S
Cd102 O110 2.277 . S
Cd102 O111 2.356 . S
C103 O108 1.209 . S
C103 O110 1.226 . S
O104 Cd100 2.273 . S
O104 Cd102 2.411 . S
O104 C107 1.320 . S
O105 Cd102 2.333 . S
O105 C107 1.214 . S
O106 Cd102 2.352 . S
O106 C109 1.258 . S
C107 O104 1.320 . S
C107 O105 1.214 . S
O108 Cd100 2.277 . S
O108 C103 1.209 . S
C109 O106 1.258 . S
C109 O111 1.282 . S
O110 Cd102 2.277 . S
O110 C103 1.226 . S
O111 Cd102 2.356 . S
O111 C109 1.282 . S
H112 C124 0.930 . S
H113 C126 0.930 . S
H114 C127 0.930 . S
H115 C131 0.959 . S
H116 C131 0.959 . S
H117 C131 0.961 . S
H118 C132 0.960 . S
H119 C132 0.961 . S
H120 C132 0.959 . S
H121 C135 0.929 . S
H122 C136 0.931 . S
H123 C138 0.930 . S
C124 H112 0.930 . S
C124 C125 1.399 . S
C124 C129 1.399 . S
C125 C124 1.399 . S
C125 C126 1.376 . S
C126 H113 0.930 . S
C126 C125 1.376 . S
C126 C127 1.388 . S
C127 H114 0.930 . S
C127 C126 1.388 . S
C127 C128 1.390 . S
C128 C127 1.390 . S
C128 C129 1.394 . S
C128 C134 1.465 . S
C129 C124 1.399 . S
C129 C128 1.394 . S
C129 C130 1.516 . S
C130 C129 1.516 . S
C130 C131 1.502 . S
C130 C132 1.561 . S
C130 C133 1.526 . S
C131 H115 0.959 . S
C131 H116 0.959 . S
C131 H117 0.961 . S
C131 C130 1.502 . S
C132 H118 0.960 . S
C132 H119 0.961 . S
C132 H120 0.959 . S
C132 C130 1.561 . S
C133 C130 1.526 . S
C133 C134 1.396 . S
C133 C138 1.390 . S
C134 C128 1.465 . S
C134 C133 1.396 . S
C134 C135 1.399 . S
C135 H121 0.929 . S
C135 C134 1.399 . S
C135 C136 1.385 . S
C136 H122 0.931 . S
C136 C135 1.385 . S
C136 C137 1.389 . S
C137 C136 1.389 . S
C137 C138 1.387 . S
C138 H123 0.930 . S
C138 C133 1.390 . S
C138 C137 1.387 . S
H139 C151 0.930 . S
H140 C153 0.930 . S
H141 C154 0.930 . S
H142 C158 0.959 . S
H143 C158 0.959 . S
H144 C158 0.961 . S
H145 C159 0.960 . S
H146 C159 0.961 . S
H147 C159 0.959 . S
H148 C162 0.929 . S
H149 C163 0.931 . S
H150 C165 0.930 . S
C151 H139 0.930 . S
C151 C152 1.399 . S
C151 C156 1.399 . S
C152 C151 1.399 . S
C152 C153 1.376 . S
C153 H140 0.930 . S
C153 C152 1.376 . S
C153 C154 1.388 . S
C154 H141 0.930 . S
C154 C153 1.388 . S
C154 C155 1.390 . S
C155 C154 1.390 . S
C155 C156 1.394 . S
C155 C161 1.465 . S
C156 C151 1.399 . S
C156 C155 1.394 . S
C156 C157 1.516 . S
C157 C156 1.516 . S
C157 C158 1.502 . S
C157 C159 1.561 . S
C157 C160 1.526 . S
C158 H142 0.959 . S
C158 H143 0.959 . S
C158 H144 0.961 . S
C158 C157 1.502 . S
C159 H145 0.960 . S
C159 H146 0.961 . S
C159 H147 0.959 . S
C159 C157 1.561 . S
C160 C157 1.526 . S
C160 C161 1.396 . S
C160 C165 1.390 . S
C161 C155 1.465 . S
C161 C160 1.396 . S
C161 C162 1.399 . S
C162 H148 0.929 . S
C162 C161 1.399 . S
C162 C163 1.385 . S
C163 H149 0.931 . S
C163 C162 1.385 . S
C163 C164 1.389 . S
C164 C163 1.389 . S
C164 C165 1.387 . S
C165 H150 0.930 . S
C165 C160 1.390 . S
C165 C164 1.387 . S
H166 C178 0.930 1_565 S
H167 C180 0.930 . S
H168 C181 0.930 1_556 S
H169 C185 0.968 . S
H170 C185 0.959 . S
H171 C185 0.961 . S
H172 C186 0.960 . S
H173 C186 0.961 . S
H174 C186 0.959 . S
H175 C189 0.929 . S
H176 C190 0.931 . S
H177 C192 0.930 . S
C178 H166 0.930 1_545 S
C178 C179 1.399 . S
C178 C183 1.399 1_545 S
C179 C178 1.399 . S
C179 C180 1.376 . S
C180 H167 0.930 . S
C180 C179 1.376 . S
C180 C181 1.388 . S
C181 H168 0.930 1_554 S
C181 C180 1.388 . S
C181 C182 1.390 . S
C182 C181 1.390 . S
C182 C183 1.394 1_545 S
C182 C188 1.465 1_544 S
C183 C178 1.399 1_565 S
C183 C182 1.394 1_565 S
C183 C184 1.516 . S
C184 C183 1.516 . S
C184 C185 1.502 . S
C184 C186 1.561 . S
C184 C187 1.526 1_554 S
C185 H169 0.968 . S
C185 H170 0.959 . S
C185 H171 0.961 . S
C185 C184 1.502 . S
C186 H172 0.960 . S
C186 H173 0.961 . S
C186 H174 0.959 . S
C186 C184 1.561 . S
C187 C184 1.526 1_556 S
C187 C188 1.396 . S
C187 C192 1.390 . S
C188 C182 1.465 1_566 S
C188 C187 1.396 . S
C188 C189 1.399 1_565 S
C189 H175 0.929 . S
C189 C188 1.399 1_545 S
C189 C190 1.385 1_545 S
C190 H176 0.931 . S
C190 C189 1.385 1_565 S
C190 C191 1.389 . S
C191 C190 1.389 . S
C191 C192 1.387 . S
C192 H177 0.930 . S
C192 C187 1.390 . S
C192 C191 1.387 . S
H193 C205 0.930 . S
H194 C207 0.930 . S
H195 C208 0.930 1_455 S
H196 C212 0.959 . S
H197 C212 0.952 1_455 S
H198 C212 0.961 . S
H199 C213 0.960 . S
H200 C213 0.961 . S
H201 C213 0.959 . S
H202 C216 0.929 . S
H203 C217 0.931 . S
H204 C219 0.930 . S
C205 H193 0.930 . S
C205 C206 1.399 . S
C205 C210 1.399 . S
C206 C205 1.399 . S
C206 C207 1.376 . S
C207 H194 0.930 . S
C207 C206 1.376 . S
C207 C208 1.388 . S
C208 H195 0.930 1_655 S
C208 C207 1.388 . S
C208 C209 1.390 1_655 S
C209 C208 1.390 1_455 S
C209 C210 1.394 1_455 S
C209 C215 1.465 . S
C210 C205 1.399 . S
C210 C209 1.394 1_655 S
C210 C211 1.516 1_655 S
C211 C210 1.516 1_455 S
C211 C212 1.502 1_455 S
C211 C213 1.561 . S
C211 C214 1.526 . S
C212 H196 0.959 . S
C212 H197 0.952 1_655 S
C212 H198 0.961 . S
C212 C211 1.502 1_655 S
C213 H199 0.960 . S
C213 H200 0.961 . S
C213 H201 0.959 . S
C213 C211 1.561 . S
C214 C211 1.526 . S
C214 C215 1.396 . S
C214 C219 1.390 . S
C215 C209 1.465 . S
C215 C214 1.396 . S
C215 C216 1.399 . S
C216 H202 0.929 . S
C216 C215 1.399 . S
C216 C217 1.385 . S
C217 H203 0.931 . S
C217 C216 1.385 . S
C217 C218 1.389 . S
C218 C217 1.389 . S
C218 C219 1.387 . S
C219 H204 0.930 . S
C219 C214 1.390 . S
C219 C218 1.387 . S
H220 C232 0.930 . S
H221 C234 0.930 . S
H222 C235 0.930 1_545 S
H223 C239 0.959 . S
H224 C239 0.959 . S
H225 C239 0.961 . S
H226 C240 0.960 . S
H227 C240 0.961 . S
H228 C240 0.959 . S
H229 C243 0.929 . S
H230 C244 0.931 . S
H231 C246 0.930 1_565 S
C232 H220 0.930 . S
C232 C233 1.399 . S
C232 C237 1.399 . S
C233 C232 1.399 . S
C233 C234 1.376 . S
C234 H221 0.930 . S
C234 C233 1.376 . S
C234 C235 1.388 . S
C235 H222 0.930 1_565 S
C235 C234 1.388 . S
C235 C236 1.390 . S
C236 C235 1.390 . S
C236 C237 1.394 . S
C236 C242 1.465 1_565 S
C237 C232 1.399 . S
C237 C236 1.394 . S
C237 C238 1.516 . S
C238 C237 1.516 . S
C238 C239 1.502 . S
C238 C240 1.561 . S
C238 C241 1.526 . S
C239 H223 0.959 . S
C239 H224 0.959 . S
C239 H225 0.961 . S
C239 C238 1.502 . S
C240 H226 0.960 . S
C240 H227 0.961 . S
C240 H228 0.959 . S
C240 C238 1.561 . S
C241 C238 1.526 . S
C241 C242 1.396 1_565 S
C241 C246 1.390 1_565 S
C242 C236 1.465 1_545 S
C242 C241 1.396 1_545 S
C242 C243 1.399 . S
C243 H229 0.929 . S
C243 C242 1.399 . S
C243 C244 1.385 . S
C244 H230 0.931 . S
C244 C243 1.385 . S
C244 C245 1.389 . S
C245 C244 1.389 . S
C245 C246 1.387 . S
C246 H231 0.930 1_545 S
C246 C241 1.390 1_545 S
C246 C245 1.387 . S
H247 C259 0.930 . S
H248 C261 0.930 . S
H249 C262 0.930 . S
H250 C266 0.959 1_655 S
H251 C266 0.959 . S
H252 C266 0.961 . S
H253 C267 0.960 . S
H254 C267 0.961 1_554 S
H255 C267 0.959 . S
H256 C270 0.929 1_556 S
H257 C271 0.931 . S
H258 C273 0.930 . S
C259 H247 0.930 . S
C259 C260 1.399 . S
C259 C264 1.407 . S
C260 C259 1.399 . S
C260 C261 1.376 . S
C261 H248 0.930 . S
C261 C260 1.376 . S
C261 C262 1.388 . S
C262 H249 0.930 . S
C262 C261 1.388 . S
C262 C263 1.390 . S
C263 C262 1.390 . S
C263 C264 1.397 . S
C263 C269 1.465 1_656 S
C264 C259 1.407 . S
C264 C263 1.397 . S
C264 C265 1.505 1_656 S
C265 C264 1.505 1_454 S
C265 C266 1.502 . S
C265 C267 1.561 1_554 S
C265 C268 1.526 . S
C266 H250 0.959 1_455 S
C266 H251 0.959 . S
C266 H252 0.961 . S
C266 C265 1.502 . S
C267 H253 0.960 . S
C267 H254 0.961 1_556 S
C267 H255 0.959 . S
C267 C265 1.561 1_556 S
C268 C265 1.526 . S
C268 C269 1.396 . S
C268 C273 1.390 . S
C269 C263 1.465 1_454 S
C269 C268 1.396 . S
C269 C270 1.399 . S
C270 H256 0.929 1_554 S
C270 C269 1.399 . S
C270 C271 1.385 . S
C271 H257 0.931 . S
C271 C270 1.385 . S
C271 C272 1.389 . S
C272 C271 1.389 . S
C272 C273 1.387 . S
C273 H258 0.930 . S
C273 C268 1.390 . S
C273 C272 1.387 . S
H274 C286 0.930 . S
H275 C288 0.930 . S
H276 C289 0.930 . S
H277 C293 0.959 . S
H278 C293 0.959 . S
H279 C293 0.961 . S
H280 C294 0.960 . S
H281 C294 0.961 . S
H282 C294 0.959 . S
H283 C297 0.929 . S
H284 C298 0.931 . S
H285 C300 0.930 . S
C286 H274 0.930 . S
C286 C287 1.399 . S
C286 C291 1.399 . S
C287 C286 1.399 . S
C287 C288 1.376 . S
C288 H275 0.930 . S
C288 C287 1.376 . S
C288 C289 1.388 . S
C289 H276 0.930 . S
C289 C288 1.388 . S
C289 C290 1.390 . S
C290 C289 1.390 . S
C290 C291 1.394 . S
C290 C296 1.465 . S
C291 C286 1.399 . S
C291 C290 1.394 . S
C291 C292 1.516 . S
C292 C291 1.516 . S
C292 C293 1.502 . S
C292 C294 1.561 . S
C292 C295 1.526 . S
C293 H277 0.959 . S
C293 H278 0.959 . S
C293 H279 0.961 . S
C293 C292 1.502 . S
C294 H280 0.960 . S
C294 H281 0.961 . S
C294 H282 0.959 . S
C294 C292 1.561 . S
C295 C292 1.526 . S
C295 C296 1.396 . S
C295 C300 1.390 . S
C296 C290 1.465 . S
C296 C295 1.396 . S
C296 C297 1.399 . S
C297 H283 0.929 . S
C297 C296 1.399 . S
C297 C298 1.385 . S
C298 H284 0.931 . S
C298 C297 1.385 . S
C298 C299 1.389 . S
C299 C298 1.389 . S
C299 C300 1.387 . S
C300 H285 0.930 . S
C300 C295 1.390 . S
C300 C299 1.387 . S
H301 C313 0.930 . S
H302 C315 0.930 . S
H303 C316 0.930 . S
H304 C320 0.959 . S
H305 C320 0.959 . S
H306 C320 0.961 . S
H307 C321 0.960 . S
H308 C321 0.961 . S
H309 C321 0.959 . S
H310 C324 0.929 . S
H311 C325 0.931 . S
H312 C327 0.930 . S
C313 H301 0.930 . S
C313 C314 1.399 . S
C313 C318 1.399 . S
C314 C313 1.399 . S
C314 C315 1.376 . S
C315 H302 0.930 . S
C315 C314 1.376 . S
C315 C316 1.388 . S
C316 H303 0.930 . S
C316 C315 1.388 . S
C316 C317 1.390 . S
C317 C316 1.390 . S
C317 C318 1.394 . S
C317 C323 1.465 . S
C318 C313 1.399 . S
C318 C317 1.394 . S
C318 C319 1.516 . S
C319 C318 1.516 . S
C319 C320 1.502 . S
C319 C321 1.561 . S
C319 C322 1.526 . S
C320 H304 0.959 . S
C320 H305 0.959 . S
C320 H306 0.961 . S
C320 C319 1.502 . S
C321 H307 0.960 . S
C321 H308 0.961 . S
C321 H309 0.959 . S
C321 C319 1.561 . S
C322 C319 1.526 . S
C322 C323 1.396 . S
C322 C327 1.390 . S
C323 C317 1.465 . S
C323 C322 1.396 . S
C323 C324 1.399 . S
C324 H310 0.929 . S
C324 C323 1.399 . S
C324 C325 1.385 . S
C325 H311 0.931 . S
C325 C324 1.385 . S
C325 C326 1.389 . S
C326 C325 1.389 . S
C326 C327 1.387 . S
C327 H312 0.930 . S
C327 C322 1.390 . S
C327 C326 1.387 . S
H328 C340 0.930 . S
H329 C342 0.930 . S
H330 C343 0.930 . S
H331 C347 0.959 . S
H332 C347 0.959 . S
H333 C347 0.961 . S
H334 C348 0.960 . S
H335 C348 0.961 . S
H336 C348 0.959 . S
H337 C351 0.929 . S
H338 C352 0.931 . S
H339 C354 0.930 . S
C340 H328 0.930 . S
C340 C341 1.399 . S
C340 C345 1.399 . S
C341 C340 1.399 . S
C341 C342 1.376 . S
C342 H329 0.930 . S
C342 C341 1.376 . S
C342 C343 1.388 . S
C343 H330 0.930 . S
C343 C342 1.388 . S
C343 C344 1.390 . S
C344 C343 1.390 . S
C344 C345 1.394 . S
C344 C350 1.465 . S
C345 C340 1.399 . S
C345 C344 1.394 . S
C345 C346 1.516 . S
C346 C345 1.516 . S
C346 C347 1.502 . S
C346 C348 1.561 . S
C346 C349 1.526 . S
C347 H331 0.959 . S
C347 H332 0.959 . S
C347 H333 0.961 . S
C347 C346 1.502 . S
C348 H334 0.960 . S
C348 H335 0.961 . S
C348 H336 0.959 . S
C348 C346 1.561 . S
C349 C346 1.526 . S
C349 C350 1.396 . S
C349 C354 1.390 . S
C350 C344 1.465 . S
C350 C349 1.396 . S
C350 C351 1.399 . S
C351 H337 0.929 . S
C351 C350 1.399 . S
C351 C352 1.385 . S
C352 H338 0.931 . S
C352 C351 1.385 . S
C352 C353 1.389 . S
C353 C352 1.389 . S
C353 C354 1.387 . S
C354 H339 0.930 . S
C354 C349 1.390 . S
C354 C353 1.387 . S
H355 C367 0.930 . S
H356 C369 0.930 . S
H357 C370 0.930 . S
H358 C374 0.959 . S
H359 C374 0.959 . S
H360 C374 0.961 . S
H361 C375 0.960 . S
H362 C375 0.961 . S
H363 C375 0.959 . S
H364 C378 0.929 . S
H365 C379 0.931 . S
H366 C381 0.930 . S
C367 H355 0.930 . S
C367 C368 1.399 . S
C367 C372 1.399 . S
C368 C367 1.399 . S
C368 C369 1.376 . S
C369 H356 0.930 . S
C369 C368 1.376 . S
C369 C370 1.388 . S
C370 H357 0.930 . S
C370 C369 1.388 . S
C370 C371 1.390 . S
C371 C370 1.390 . S
C371 C372 1.394 . S
C371 C377 1.465 . S
C372 C367 1.399 . S
C372 C371 1.394 . S
C372 C373 1.516 1_556 S
C373 C372 1.516 1_554 S
C373 C374 1.502 . S
C373 C375 1.561 . S
C373 C376 1.526 . S
C374 H358 0.959 . S
C374 H359 0.959 . S
C374 H360 0.961 . S
C374 C373 1.502 . S
C375 H361 0.960 . S
C375 H362 0.961 . S
C375 H363 0.959 . S
C375 C373 1.561 . S
C376 C373 1.526 . S
C376 C377 1.396 1_554 S
C376 C381 1.390 . S
C377 C371 1.465 . S
C377 C376 1.396 1_556 S
C377 C378 1.399 . S
C378 H364 0.929 . S
C378 C377 1.399 . S
C378 C379 1.385 1_556 S
C379 H365 0.931 . S
C379 C378 1.385 1_554 S
C379 C380 1.389 . S
C380 C379 1.389 . S
C380 C381 1.387 . S
C381 H366 0.930 . S
C381 C376 1.390 . S
C381 C380 1.387 . S
H382 C394 0.930 . S
H383 C396 0.930 . S
H384 C397 0.930 . S
H385 C401 0.959 . S
H386 C401 0.959 . S
H387 C401 0.961 . S
H388 C402 0.960 . S
H389 C402 0.961 . S
H390 C402 0.959 . S
H391 C405 0.929 . S
H392 C406 0.931 . S
H393 C408 0.930 1_565 S
C394 H382 0.930 . S
C394 C395 1.399 . S
C394 C399 1.399 . S
C395 C394 1.399 . S
C395 C396 1.376 . S
C396 H383 0.930 . S
C396 C395 1.376 . S
C396 C397 1.388 1_565 S
C397 H384 0.930 . S
C397 C396 1.388 1_545 S
C397 C398 1.390 1_545 S
C398 C397 1.390 1_565 S
C398 C399 1.394 . S
C398 C404 1.465 1_565 S
C399 C394 1.399 . S
C399 C398 1.394 . S
C399 C400 1.516 . S
C400 C399 1.516 . S
C400 C401 1.502 . S
C400 C402 1.561 . S
C400 C403 1.526 . S
C401 H385 0.959 . S
C401 H386 0.959 . S
C401 H387 0.961 . S
C401 C400 1.502 . S
C402 H388 0.960 . S
C402 H389 0.961 . S
C402 H390 0.959 . S
C402 C400 1.561 . S
C403 C400 1.526 . S
C403 C404 1.396 1_565 S
C403 C408 1.390 1_565 S
C404 C398 1.465 1_545 S
C404 C403 1.396 1_545 S
C404 C405 1.399 . S
C405 H391 0.929 . S
C405 C404 1.399 . S
C405 C406 1.385 . S
C406 H392 0.931 . S
C406 C405 1.385 . S
C406 C407 1.389 . S
C407 C406 1.389 . S
C407 C408 1.387 . S
C408 H393 0.930 1_545 S
C408 C403 1.390 1_545 S
C408 C407 1.387 . S
H409 C421 0.930 . S
H410 C423 0.930 . S
H411 C424 0.930 1_545 S
H412 C428 0.959 . S
H413 C428 0.959 . S
H414 C428 0.961 . S
H415 C429 0.960 1_655 S
H416 C429 0.961 . S
H417 C429 0.959 . S
H418 C432 0.929 . S
H419 C433 0.931 . S
H420 C435 0.930 . S
C421 H409 0.930 . S
C421 C422 1.399 . S
C421 C426 1.399 . S
C422 C421 1.399 . S
C422 C423 1.376 . S
C423 H410 0.930 . S
C423 C422 1.376 . S
C423 C424 1.388 1_655 S
C424 H411 0.930 1_565 S
C424 C423 1.388 1_455 S
C424 C425 1.390 . S
C425 C424 1.390 . S
C425 C426 1.394 1_455 S
C425 C431 1.465 1_565 S
C426 C421 1.399 . S
C426 C425 1.394 1_655 S
C426 C427 1.516 . S
C427 C426 1.516 . S
C427 C428 1.502 . S
C427 C429 1.561 1_655 S
C427 C430 1.526 1_655 S
C428 H412 0.959 . S
C428 H413 0.959 . S
C428 H414 0.961 . S
C428 C427 1.502 . S
C429 H415 0.960 1_455 S
C429 H416 0.961 . S
C429 H417 0.959 . S
C429 C427 1.561 1_455 S
C430 C427 1.526 1_455 S
C430 C431 1.396 1_565 S
C430 C435 1.390 1_565 S
C431 C425 1.465 1_545 S
C431 C430 1.396 1_545 S
C431 C432 1.399 . S
C432 H418 0.929 . S
C432 C431 1.399 . S
C432 C433 1.385 . S
C433 H419 0.931 . S
C433 C432 1.385 . S
C433 C434 1.389 . S
C434 C433 1.389 . S
C434 C435 1.387 . S
C435 H420 0.930 . S
C435 C430 1.390 1_545 S
C435 C434 1.387 . S
H436 C448 0.927 1_455 S
H437 C450 0.930 . S
H438 C451 0.930 . S
H439 C455 0.959 . S
H440 C455 0.959 . S
H441 C455 0.961 . S
H442 C456 0.960 . S
H443 C456 0.961 . S
H444 C456 0.959 . S
H445 C459 0.929 1_655 S
H446 C460 0.931 . S
H447 C462 0.930 . S
C448 H436 0.927 1_655 S
C448 C449 1.399 . S
C448 C453 1.399 1_655 S
C449 C448 1.399 . S
C449 C450 1.376 . S
C450 H437 0.930 . S
C450 C449 1.376 . S
C450 C451 1.388 . S
C451 H438 0.930 . S
C451 C450 1.388 . S
C451 C452 1.390 . S
C452 C451 1.390 . S
C452 C453 1.394 1_655 S
C452 C458 1.465 1_655 S
C453 C448 1.399 1_455 S
C453 C452 1.394 1_455 S
C453 C454 1.516 . S
C454 C453 1.516 . S
C454 C455 1.502 . S
C454 C456 1.561 . S
C454 C457 1.526 . S
C455 H439 0.959 . S
C455 H440 0.959 . S
C455 H441 0.961 . S
C455 C454 1.502 . S
C456 H442 0.960 . S
C456 H443 0.961 . S
C456 H444 0.959 . S
C456 C454 1.561 . S
C457 C454 1.526 . S
C457 C458 1.396 . S
C457 C462 1.390 . S
C458 C452 1.465 1_455 S
C458 C457 1.396 . S
C458 C459 1.399 . S
C459 H445 0.929 1_455 S
C459 C458 1.399 . S
C459 C460 1.385 . S
C460 H446 0.931 . S
C460 C459 1.385 . S
C460 C461 1.389 . S
C461 C460 1.389 . S
C461 C462 1.387 . S
C462 H447 0.930 . S
C462 C457 1.390 . S
C462 C461 1.387 . S
H463 C475 0.930 . S
H464 C477 0.930 . S
H465 C478 0.930 . S
H466 C482 0.959 . S
H467 C482 0.959 . S
H468 C482 0.961 . S
H469 C483 0.960 . S
H470 C483 0.961 . S
H471 C483 0.959 . S
H472 C486 0.929 . S
H473 C487 0.931 . S
H474 C489 0.930 . S
C475 H463 0.930 . S
C475 C476 1.399 . S
C475 C480 1.399 . S
C476 C475 1.399 . S
C476 C477 1.376 . S
C477 H464 0.930 . S
C477 C476 1.376 . S
C477 C478 1.388 . S
C478 H465 0.930 . S
C478 C477 1.388 . S
C478 C479 1.390 . S
C479 C478 1.390 . S
C479 C480 1.394 . S
C479 C485 1.465 . S
C480 C475 1.399 . S
C480 C479 1.394 . S
C480 C481 1.516 . S
C481 C480 1.516 . S
C481 C482 1.502 . S
C481 C483 1.561 . S
C481 C484 1.526 . S
C482 H466 0.959 . S
C482 H467 0.959 . S
C482 H468 0.961 . S
C482 C481 1.502 . S
C483 H469 0.960 . S
C483 H470 0.961 . S
C483 H471 0.959 . S
C483 C481 1.561 . S
C484 C481 1.526 . S
C484 C485 1.396 . S
C484 C489 1.390 . S
C485 C479 1.465 . S
C485 C484 1.396 . S
C485 C486 1.399 . S
C486 H472 0.929 . S
C486 C485 1.399 . S
C486 C487 1.385 . S
C487 H473 0.931 . S
C487 C486 1.385 . S
C487 C488 1.389 . S
C488 C487 1.389 . S
C488 C489 1.387 . S
C489 H474 0.930 . S
C489 C484 1.390 . S
C489 C488 1.387 . S
H490 C502 0.930 . S
H491 C504 0.930 . S
H492 C505 0.930 . S
H493 C509 0.959 1_556 S
H494 C509 0.959 1_556 S
H495 C509 0.961 . S
H496 C510 0.960 . S
H497 C510 0.961 . S
H498 C510 0.959 . S
H499 C513 0.929 . S
H500 C514 0.931 . S
H501 C516 0.930 . S
C502 H490 0.930 . S
C502 C503 1.399 . S
C502 C507 1.399 . S
C503 C502 1.399 . S
C503 C504 1.376 . S
C504 H491 0.930 . S
C504 C503 1.376 . S
C504 C505 1.388 . S
C505 H492 0.930 . S
C505 C504 1.388 . S
C505 C506 1.390 . S
C506 C505 1.390 . S
C506 C507 1.394 . S
C506 C512 1.465 1_554 S
C507 C502 1.399 . S
C507 C506 1.394 . S
C507 C508 1.516 . S
C508 C507 1.516 . S
C508 C509 1.502 . S
C508 C510 1.561 . S
C508 C511 1.526 1_554 S
C509 H493 0.959 1_554 S
C509 H494 0.959 1_554 S
C509 H495 0.961 . S
C509 C508 1.502 . S
C510 H496 0.960 . S
C510 H497 0.961 . S
C510 H498 0.959 . S
C510 C508 1.561 . S
C511 C508 1.526 1_556 S
C511 C512 1.396 . S
C511 C516 1.390 . S
C512 C506 1.465 1_556 S
C512 C511 1.396 . S
C512 C513 1.399 . S
C513 H499 0.929 . S
C513 C512 1.399 . S
C513 C514 1.385 . S
C514 H500 0.931 . S
C514 C513 1.385 . S
C514 C515 1.389 . S
C515 C514 1.389 . S
C515 C516 1.387 . S
C516 H501 0.930 . S
C516 C511 1.390 . S
C516 C515 1.387 . S
H517 C529 0.930 . S
H518 C531 0.930 . S
H519 C532 0.930 . S
H520 C536 0.959 . S
H521 C536 0.959 . S
H522 C536 0.961 . S
H523 C537 0.960 . S
H524 C537 0.961 . S
H525 C537 0.959 . S
H526 C540 0.929 . S
H527 C541 0.931 . S
H528 C543 0.930 . S
C529 H517 0.930 . S
C529 C530 1.399 . S
C529 C534 1.399 . S
C530 C529 1.399 . S
C530 C531 1.376 . S
C531 H518 0.930 . S
C531 C530 1.376 . S
C531 C532 1.388 . S
C532 H519 0.930 . S
C532 C531 1.388 . S
C532 C533 1.390 . S
C533 C532 1.390 . S
C533 C534 1.394 . S
C533 C539 1.465 . S
C534 C529 1.399 . S
C534 C533 1.394 . S
C534 C535 1.516 . S
C535 C534 1.516 . S
C535 C536 1.502 . S
C535 C537 1.561 . S
C535 C538 1.526 . S
C536 H520 0.959 . S
C536 H521 0.959 . S
C536 H522 0.961 . S
C536 C535 1.502 . S
C537 H523 0.960 . S
C537 H524 0.961 . S
C537 H525 0.959 . S
C537 C535 1.561 . S
C538 C535 1.526 . S
C538 C539 1.396 . S
C538 C543 1.390 . S
C539 C533 1.465 . S
C539 C538 1.396 . S
C539 C540 1.399 . S
C540 H526 0.929 . S
C540 C539 1.399 . S
C540 C541 1.385 . S
C541 H527 0.931 . S
C541 C540 1.385 . S
C541 C542 1.389 . S
C542 C541 1.389 . S
C542 C543 1.387 . S
C543 H528 0.930 . S
C543 C538 1.390 . S
C543 C542 1.387 . S
C125 C75 1.545 . S
C137 C5 1.549 . S
C152 C109 1.519 . S
C164 C14 1.540 . S
C179 C37 1.527 . S
C191 C93 1.525 . S
C206 C53 1.516 . S
C218 C56 1.537 . S
C233 C84 1.514 . S
C245 C11 1.531 . S
C260 C23 1.524 . S
C272 C65 1.527 . S
C287 C81 1.535 . S
C299 C28 1.518 . S
C314 C47 1.559 . S
C326 C103 1.558 . S
C341 C67 1.543 . S
C353 C70 1.529 . S
C368 C19 1.552 . S
C380 C33 1.549 . S
C395 C42 1.510 . S
C407 C39 1.520 . S
C422 C51 1.523 . S
C434 C9 1.527 . S
C449 C25 1.524 . S
C461 C0 1.512 . S
C476 C98 1.525 . S
C488 C95 1.509 . S
C503 C61 1.538 . S
C515 C89 1.539 . S
C530 C79 1.524 . S
C542 C107 1.525 . S
