# Generated by pormake.
# Topology twt, (3)-cn, num edge types: 1
# Building blocks:
#     Node 0, Type 0, BuildingBlock: WUSLED_clean_sbu_0, # of connection points: 3
#     Node 1, Type 0, BuildingBlock: WUSLED_clean_sbu_0, # of connection points: 3
#     Node 2, Type 0, BuildingBlock: WUSLED_clean_sbu_0, # of connection points: 3
#     Node 3, Type 0, BuildingBlock: WUSLED_clean_sbu_0, # of connection points: 3
#     Node 4, Type 0, BuildingBlock: WUSLED_clean_sbu_0, # of connection points: 3
#     Node 5, Type 0, BuildingBlock: WUSLED_clean_sbu_0, # of connection points: 3
#     Edge 6, Type (0, 0), BuildingBlock: UVAHIK_clean_linker_0, # of connection points: 2
#     Edge 7, Type (0, 0), BuildingBlock: UVAHIK_clean_linker_0, # of connection points: 2
#     Edge 8, Type (0, 0), BuildingBlock: UVAHIK_clean_linker_0, # of connection points: 2
#     Edge 9, Type (0, 0), BuildingBlock: UVAHIK_clean_linker_0, # of connection points: 2
#     Edge 10, Type (0, 0), BuildingBlock: UVAHIK_clean_linker_0, # of connection points: 2
#     Edge 11, Type (0, 0), BuildingBlock: UVAHIK_clean_linker_0, # of connection points: 2
#     Edge 12, Type (0, 0), BuildingBlock: UVAHIK_clean_linker_0, # of connection points: 2
#     Edge 13, Type (0, 0), BuildingBlock: UVAHIK_clean_linker_0, # of connection points: 2
#     Edge 14, Type (0, 0), BuildingBlock: UVAHIK_clean_linker_0, # of connection points: 2
# Relax obj value: 0.000
# Max RMSD: 0.005
# Mean RMSD: 0.005
data_MOF--net-twt--node1-WUSLED_clean_sbu_0--edge1-UVAHIK_clean_linker_0
_symmetry_space_group_name_H-M    P1
_symmetry_Int_Tables_number       1
_symmetry_cell_setting            triclinic
loop_
_symmetry_equiv_pos_as_xyz
'x, y, z'
_cell_length_a     79.936678
_cell_length_b     80.045985
_cell_length_c     21.032763
_cell_angle_alpha  90.007784
_cell_angle_beta   89.908076
_cell_angle_gamma 119.5583
loop_
_atom_site_label
_atom_site_type_symbol
_atom_site_fract_x
_atom_site_fract_y
_atom_site_fract_z
_atom_type_partial_charge
C0 C 0.66634 0.27855 0.30839 0.0
C1 C 0.68462 0.2931 0.32711 0.0
C2 C 0.67204 0.31502 0.34483 0.0
C3 C 0.68745 0.31117 0.34527 0.0
C4 C 0.65377 0.30032 0.32586 0.0
C5 C 0.65097 0.2823 0.30785 0.0
U6 U 0.68391 0.2428 0.27114 0.0
O7 O 0.67092 0.21219 0.29598 0.0
O8 O 0.6747 0.22093 0.19581 0.0
C9 C 0.66759 0.20657 0.23637 0.0
C10 C 0.66295 0.2594 0.28951 0.0
C11 C 0.6481 0.19078 0.22219 0.0
C12 C 0.61344 0.1776 0.21616 0.0
C13 C 0.63181 0.19289 0.23016 0.0
C14 C 0.62754 0.15802 0.1861 0.0
C15 C 0.61108 0.15996 0.19375 0.0
C16 C 0.64583 0.17327 0.20016 0.0
C17 C 0.73799 0.25947 0.28294 0.0
C18 C 0.75176 0.23842 0.27314 0.0
C19 C 0.77266 0.27275 0.2839 0.0
C20 C 0.75658 0.27529 0.2866 0.0
C21 C 0.77049 0.25427 0.27759 0.0
C22 C 0.73564 0.241 0.27581 0.0
C23 C 0.72137 0.26264 0.28745 0.0
O24 O 0.66981 0.25843 0.23365 0.0
O25 O 0.66604 0.24965 0.33376 0.0
O26 O 0.70915 0.25353 0.33373 0.0
O27 O 0.7129 0.2622 0.23349 0.0
H28 H 0.69668 0.29047 0.32763 0.0
H29 H 0.70174 0.32218 0.3589 0.0
H30 H 0.64152 0.30265 0.32581 0.0
H31 H 0.63674 0.27122 0.29372 0.0
H32 H 0.60113 0.17968 0.22201 0.0
H33 H 0.6333 0.20635 0.24701 0.0
H34 H 0.62629 0.1446 0.16997 0.0
H35 H 0.65824 0.17136 0.19392 0.0
H36 H 0.74952 0.22398 0.26882 0.0
H37 H 0.78682 0.28531 0.28632 0.0
H38 H 0.75868 0.28967 0.29177 0.0
H39 H 0.72136 0.2286 0.27287 0.0
C40 C 0.63333 0.55526 0.67068 0.0
C41 C 0.63554 0.57378 0.67058 0.0
C42 C 0.60285 0.5611 0.7113 0.0
C43 C 0.62041 0.57666 0.69055 0.0
C44 C 0.60085 0.54261 0.71164 0.0
C45 C 0.61593 0.53974 0.6915 0.0
U46 U 0.68597 0.57225 0.62593 0.0
O47 O 0.70372 0.55888 0.64743 0.0
O48 O 0.69772 0.56268 0.54834 0.0
C49 C 0.70526 0.55536 0.58731 0.0
C50 C 0.64888 0.55174 0.64907 0.0
C51 C 0.70139 0.53576 0.57248 0.0
C52 C 0.67976 0.50269 0.5409 0.0
C53 C 0.68286 0.52101 0.55691 0.0
C54 C 0.71359 0.5136 0.55698 0.0
C55 C 0.69512 0.49877 0.54053 0.0
C56 C 0.71667 0.53188 0.5727 0.0
C57 C 0.72348 0.62605 0.63536 0.0
C58 C 0.75821 0.6394 0.63295 0.0
C59 C 0.74465 0.6605 0.62492 0.0
C60 C 0.72613 0.64462 0.62901 0.0
C61 C 0.76095 0.65813 0.62725 0.0
C62 C 0.73964 0.62349 0.63678 0.0
C63 C 0.7038 0.6097 0.64183 0.0
O64 O 0.65603 0.55843 0.59243 0.0
O65 O 0.66213 0.55477 0.6915 0.0
O66 O 0.70107 0.59749 0.68786 0.0
O67 O 0.69518 0.60125 0.58862 0.0
H68 H 0.64893 0.58597 0.65498 0.0
H69 H 0.62254 0.59111 0.69036 0.0
H70 H 0.58748 0.53026 0.72644 0.0
H71 H 0.61395 0.52534 0.69184 0.0
H72 H 0.66532 0.49156 0.52923 0.0
H73 H 0.67083 0.52369 0.55677 0.0
H74 H 0.72579 0.5112 0.55641 0.0
H75 H 0.73109 0.54309 0.58444 0.0
H76 H 0.77043 0.63703 0.63412 0.0
H77 H 0.74619 0.67469 0.6214 0.0
H78 H 0.71384 0.64689 0.62795 0.0
H79 H 0.7379 0.60924 0.64131 0.0
C80 C 0.32137 0.5199 0.00415 0.0
C81 C 0.30656 0.52328 0.02429 0.0
C82 C 0.28492 0.4888 0.03709 0.0
C83 C 0.2885 0.50787 0.04074 0.0
C84 C 0.2999 0.48559 0.01685 0.0
C85 C 0.31791 0.50098 0.00058 0.0
U86 U 0.35677 0.57324 0.97219 0.0
O87 O 0.38739 0.59047 -0.00262 0.0
O88 O 0.37871 0.58649 0.89719 0.0
C89 C 0.39306 0.59332 0.93773 0.0
C90 C 0.34048 0.53581 0.9866 0.0
C91 C 0.40905 0.58986 0.9218 0.0
C92 C 0.4225 0.5686 0.90939 0.0
C93 C 0.40706 0.57146 0.9256 0.0
C94 C 0.442 0.60249 0.88564 0.0
C95 C 0.44016 0.58409 0.88891 0.0
C96 C 0.42661 0.60532 0.90189 0.0
C97 C 0.33984 0.61048 0.98839 0.0
C98 C 0.36088 0.64514 0.99092 0.0
C99 C 0.32647 0.63187 0.97992 0.0
C100 C 0.32397 0.6133 0.98183 0.0
C101 C 0.34494 0.64804 0.98467 0.0
C102 C 0.35835 0.62652 0.99255 0.0
C103 C 0.33667 0.59072 0.99133 0.0
O104 O 0.34149 0.54411 0.93172 0.0
O105 O 0.34999 0.54813 0.03208 0.0
O106 O 0.34573 0.58717 0.03689 0.0
O107 O 0.33714 0.58304 0.93659 0.0
H108 H 0.30896 0.53781 0.02715 0.0
H109 H 0.27726 0.51087 0.05545 0.0
H110 H 0.2978 0.47116 0.01437 0.0
H111 H 0.3292 0.4981 0.9853 0.0
H112 H 0.4205 0.55421 0.91191 0.0
H113 H 0.39356 0.55933 0.94075 0.0
H114 H 0.45544 0.61481 0.87114 0.0
H115 H 0.42843 0.61964 0.89887 0.0
H116 H 0.37531 0.65726 0.99396 0.0
H117 H 0.31387 0.63354 0.9759 0.0
H118 H 0.30957 0.6011 0.97863 0.0
H119 H 0.37082 0.62464 -0.00275 0.0
C120 C 0.04328 0.2073 0.31904 0.0
C121 C 1.02504 0.19094 0.31336 0.0
C122 C 0.03745 0.17087 0.35658 0.0
C123 C 1.02217 0.17287 0.33178 0.0
C124 C 0.05564 0.18738 0.36247 0.0
C125 C 0.0585 0.20538 0.34385 0.0
U126 U 1.02627 0.24322 0.2761 0.0
O127 O 0.03907 0.27381 0.30168 0.0
O128 O 0.03662 0.26534 0.20144 0.0
C129 C 0.0433 0.27959 0.24241 0.0
C130 C 0.04681 0.22645 0.29931 0.0
C131 C 0.06302 0.2954 0.23076 0.0
C132 C 0.09649 0.30723 0.20161 0.0
C133 C 0.07805 0.29189 0.2145 0.0
C134 C 0.08513 0.32972 0.22223 0.0
C135 C 0.10025 0.32636 0.20512 0.0
C136 C 0.06673 0.3144 0.23483 0.0
C137 C 0.97225 0.2271 0.28019 0.0
C138 C 0.95892 0.24862 0.27574 0.0
C139 C 0.93775 0.21421 0.26993 0.0
C140 C 0.95364 0.21139 0.27461 0.0
C141 C 0.94015 0.23285 0.27085 0.0
C142 C 0.97483 0.24577 0.28021 0.0
C143 C 0.98862 0.22362 0.28739 0.0
O144 O 0.04075 0.22758 0.24224 0.0
O145 O 0.04317 0.23612 0.34237 0.0
O146 O 1.00025 0.23243 0.33517 0.0
O147 O 0.99774 0.2241 0.23479 0.0
H148 H 1.01306 0.19215 0.29464 0.0
H149 H 1.00793 0.16051 0.32726 0.0
H150 H 0.06779 0.18636 0.38052 0.0
H151 H 0.07269 0.21784 0.34853 0.0
H152 H 0.10783 0.30413 0.18933 0.0
H153 H 0.07551 0.27731 0.21143 0.0
H154 H 0.0874 0.34421 0.2246 0.0
H155 H 0.05531 0.3174 0.24716 0.0
H156 H 0.96131 0.26316 0.27582 0.0
H157 H 0.92353 0.20174 0.26708 0.0
H158 H 0.95136 0.19688 0.27465 0.0
H159 H 0.98912 0.2581 0.28416 0.0
C160 C 0.07719 0.93086 0.6686 0.0
C161 C 0.07515 0.91241 0.66858 0.0
C162 C 0.10777 0.9253 0.70977 0.0
C163 C 0.09032 0.90966 0.68881 0.0
C164 C 0.10959 0.94371 0.71019 0.0
C165 C 0.09446 0.94644 0.68976 0.0
U166 U 1.02448 0.91337 0.62485 0.0
O167 O 1.00663 0.92675 0.64367 0.0
O168 O 1.01249 0.922 0.54538 0.0
C169 C 1.00485 0.92954 0.58304 0.0
C170 C 0.06161 0.93422 0.64626 0.0
C171 C 1.00852 0.94889 0.56553 0.0
C172 C 0.02965 0.98343 0.55708 0.0
C173 C 1.02662 0.96521 0.57427 0.0
C174 C 0.99655 0.96914 0.52222 0.0
C175 C 1.01465 0.98562 0.53066 0.0
C176 C 0.99355 0.95099 0.53946 0.0
C177 C 0.98737 0.85957 0.64057 0.0
C178 C 0.95278 0.84596 0.62887 0.0
C179 C 0.96628 0.82499 0.6434 0.0
C180 C 0.98473 0.84099 0.64609 0.0
C181 C 0.95002 0.82723 0.63523 0.0
C182 C 0.9713 0.86199 0.63153 0.0
C183 C 1.00696 0.87612 0.64539 0.0
O184 O 0.05433 0.927 0.59029 0.0
O185 O 0.04846 0.93161 0.68872 0.0
O186 O 1.00959 0.88877 0.68969 0.0
O187 O 1.01541 0.88405 0.59132 0.0
H188 H 0.06186 0.90016 0.65274 0.0
H189 H 0.08833 0.89526 0.68858 0.0
H190 H 0.12287 0.95611 0.7252 0.0
H191 H 0.09631 0.9608 0.69004 0.0
H192 H 0.04381 0.99576 0.56367 0.0
H193 H 0.03837 0.96384 0.5942 0.0
H194 H 0.98459 0.97028 0.50302 0.0
H195 H 0.97946 0.93856 0.53255 0.0
H196 H 0.94061 0.84826 0.62309 0.0
H197 H 0.96479 0.81082 0.64731 0.0
H198 H 0.99697 0.83883 0.65278 0.0
H199 H 0.97307 0.87627 0.62714 0.0
C200 C 0.38847 0.96585 0.01405 0.0
C201 C 0.4049 0.96379 0.01067 0.0
C202 C 0.42489 0.99668 0.04835 0.0
C203 C 0.42296 0.97908 0.02748 0.0
C204 C 0.40829 0.99852 0.0523 0.0
C205 C 0.39029 0.98326 0.03526 0.0
U206 U 0.35297 0.91279 0.97899 0.0
O207 O 0.32215 0.89559 0.00197 0.0
O208 O 0.33159 0.89992 0.90242 0.0
C209 C 0.31693 0.89299 0.94193 0.0
C210 C 0.36939 0.95017 0.995 0.0
C211 C 0.30111 0.89658 0.92491 0.0
C212 C 0.28777 0.91792 0.91238 0.0
C213 C 0.30308 0.91496 0.92939 0.0
C214 C 0.26845 0.88418 0.88639 0.0
C215 C 0.27027 0.90255 0.89041 0.0
C216 C 0.28372 0.88125 0.90344 0.0
C217 C 0.36971 0.87544 -0.00263 0.0
C218 C 0.34883 0.84096 0.98573 0.0
C219 C 0.3829 0.85389 0.00444 0.0
C220 C 0.38542 0.87246 0.0058 0.0
C221 C 0.36456 0.83786 0.9947 0.0
C222 C 0.35139 0.8596 0.98707 0.0
C223 C 0.37283 0.89517 4e-05 0.0
O224 O 0.36863 0.94206 0.9399 0.0
O225 O 0.35942 0.93771 0.03969 0.0
O226 O 0.36335 0.89853 0.0447 0.0
O227 O 0.37275 0.90296 0.94512 0.0
H228 H 0.40378 0.95039 0.99478 0.0
H229 H 0.43539 0.97709 0.02461 0.0
H230 H 0.40925 1.0119 0.06738 0.0
H231 H 0.37778 0.98513 0.03812 0.0
H232 H 0.28975 0.93229 0.91551 0.0
H233 H 0.31645 0.92699 0.94576 0.0
H234 H 0.25513 0.87195 0.87074 0.0
H235 H 0.28191 0.86695 0.89988 0.0
H236 H 0.33449 0.82897 0.97871 0.0
H237 H 0.3954 0.85213 0.0104 0.0
H238 H 0.39969 0.88453 0.01351 0.0
H239 H 0.33907 0.86164 0.98048 0.0
C240 C 0.66565 0.34266 0.33138 0.0
C241 C 0.67489 0.33419 0.3643 0.0
C242 C 0.6679 0.3604 0.35045 0.0
C243 C 0.68184 0.39327 0.48889 0.0
H244 H 0.68664 0.43067 0.36258 0.0
C245 C 0.70147 0.47113 0.55489 0.0
C246 C 0.69205 0.47945 0.52213 0.0
C247 C 0.69915 0.45332 0.53627 0.0
C248 C 0.68508 0.42031 0.39851 0.0
H249 H 0.69381 0.33792 0.44335 0.0
H250 H 0.69803 0.36903 0.47589 0.0
H251 H 0.68345 0.40012 0.32855 0.0
H252 H 0.67276 0.4754 0.44396 0.0
H253 H 0.66849 0.44422 0.4121 0.0
H254 H 0.68352 0.41349 0.55884 0.0
C255 C 0.68884 0.36181 0.43566 0.0
C256 C 0.68327 0.40277 0.37897 0.0
C257 C 0.6866 0.34406 0.41651 0.0
C258 C 0.68009 0.46937 0.47065 0.0
C259 C 0.67783 0.45158 0.45189 0.0
C260 C 0.68368 0.41083 0.50842 0.0
C261 C 0.67947 0.3702 0.40302 0.0
C262 C 0.68161 0.38899 0.42388 0.0
C263 C 0.6874 0.44335 0.48426 0.0
C264 C 0.68531 0.42458 0.4635 0.0
H265 H 0.6567 0.3356 0.2905 0.0
H266 H 0.66031 0.3663 0.3245 0.0
H267 H 0.68028 0.38291 0.52483 0.0
H268 H 0.71063 0.47837 0.59516 0.0
H269 H 0.70687 0.44752 0.562 0.0
C270 C 0.58212 0.57649 0.69828 0.0
C271 C 0.58657 0.56399 0.73183 0.0
C272 C 0.56647 0.57873 0.71638 0.0
C273 C 0.52067 0.55467 0.80728 0.0
H274 H 0.52438 0.60478 0.79951 0.0
C275 C 0.461 0.56893 0.90615 0.0
C276 C 0.45663 0.5812 0.87079 0.0
C277 C 0.4768 0.56671 0.88994 0.0
C278 C 0.52301 0.59063 0.80132 0.0
H279 H 0.57829 0.54447 0.81204 0.0
H280 H 0.5511 0.54843 0.84374 0.0
H281 H 0.55209 0.6014 0.77055 0.0
H282 H 0.46521 0.60028 0.78926 0.0
H283 H 0.49266 0.5964 0.76108 0.0
H284 H 0.49157 0.54392 0.83807 0.0
C285 C 0.55947 0.55623 0.80259 0.0
C286 C 0.53893 0.58869 0.78467 0.0
C287 C 0.5751 0.55397 0.78443 0.0
C288 C 0.46834 0.591 0.81835 0.0
C289 C 0.48412 0.58878 0.80217 0.0
C290 C 0.50474 0.55662 0.82399 0.0
C291 C 0.55487 0.56856 0.76863 0.0
C292 C 0.53797 0.57068 0.78723 0.0
C293 C 0.48864 0.57669 0.83792 0.0
C294 C 0.50567 0.57462 0.82102 0.0
H295 H 0.59046 0.58423 0.657 0.0
H296 H 0.56322 0.58814 0.6885 0.0
H297 H 0.51928 0.54052 0.80893 0.0
H298 H 0.45245 0.56135 0.94729 0.0
H299 H 0.47997 0.55746 0.91901 0.0
C300 C 0.25544 0.4733 0.10714 0.0
C301 C 0.26573 0.47228 0.05435 0.0
C302 C 0.23766 0.45759 0.12409 0.0
C303 C 0.20802 0.40481 0.1033 0.0
H304 H 0.16632 0.41276 0.1602 0.0
C305 C 0.1304 0.34182 0.13839 0.0
C306 C 0.11971 0.34278 0.19006 0.0
C307 C 0.14833 0.35752 0.12283 0.0
C308 C 0.17788 0.41027 0.14518 0.0
H309 H 0.265 0.45401 0.97699 0.0
H310 H 0.23408 0.42671 0.00643 0.0
H311 H 0.19713 0.44032 0.13103 0.0
H312 H 0.11987 0.36089 0.26703 0.0
H313 H 0.15112 0.38817 0.24018 0.0
H314 H 0.18879 0.37477 0.11744 0.0
C315 C 0.23992 0.43952 0.03554 0.0
C316 C 0.19557 0.42611 0.12839 0.0
C317 C 0.25767 0.45521 0.01861 0.0
C318 C 0.12755 0.35975 0.22628 0.0
C319 C 0.14548 0.37542 0.2108 0.0
C320 C 0.19034 0.38898 0.12013 0.0
C321 C 0.2297 0.44045 0.08867 0.0
C322 C 0.21087 0.4236 0.10708 0.0
C323 C 0.15608 0.37458 0.15861 0.0
C324 C 0.17501 0.39148 0.14122 0.0
H325 H 0.26131 0.48611 0.13628 0.0
H326 H 0.23033 0.45876 0.16577 0.0
H327 H 0.21957 0.40233 0.08813 0.0
H328 H 0.1247 0.3291 0.1089 0.0
H329 H 0.15592 0.35641 0.08179 0.0
C330 C 0.02861 0.02113 0.55047 0.0
C331 C 1.01771 1.00494 0.51207 0.0
C332 C 0.03093 0.03911 0.53383 0.0
C333 C 0.02728 0.0666 0.39718 0.0
H334 H 1.02459 0.09914 0.52871 0.0
C335 C 1.02347 0.13532 0.33821 0.0
C336 C 0.03458 0.15167 0.37571 0.0
C337 C 1.02133 0.11744 0.35515 0.0
C338 C 1.02558 0.09033 0.49144 0.0
H339 H 1.00111 0.99518 0.42503 0.0
H340 H 1.00485 0.02634 0.39673 0.0
H341 H 1.02145 0.06819 0.55723 0.0
H342 H 0.05177 0.16184 0.46143 0.0
H343 H 0.04824 0.13077 0.49048 0.0
H344 H 0.03136 0.08872 0.33137 0.0
C345 C 1.01174 0.02522 0.43953 0.0
C346 C 1.02381 0.07257 0.50782 0.0
C347 C 1.0094 1.00726 0.4562 0.0
C348 C 0.04328 0.14961 0.43103 0.0
C349 C 0.04109 0.13173 0.44808 0.0
C350 C 0.02903 0.08435 0.38079 0.0
C351 C 1.02246 0.04138 0.47824 0.0
C352 C 1.02461 0.06044 0.46091 0.0
C353 C 0.03017 0.11542 0.41019 0.0
C354 C 0.02819 0.09645 0.42768 0.0
H355 H 0.03508 0.01987 0.59409 0.0
H356 H 0.03947 0.05126 0.56442 0.0
H357 H 0.02829 0.05782 0.35986 0.0
H358 H 1.0167 0.13639 0.29503 0.0
H359 H 1.01264 0.10516 0.32522 0.0
C360 C 0.13542 0.9325 0.78319 0.0
C361 C 0.12411 0.92254 0.73034 0.0
C362 C 0.15107 0.93032 0.80149 0.0
C363 C 0.17192 0.8981 0.78314 0.0
H364 H 0.21892 0.94278 0.83883 0.0
C365 C 0.24253 0.89601 0.81846 0.0
C366 C 0.25391 0.90554 0.87167 0.0
C367 C 0.22682 0.89826 0.80181 0.0
C368 C 0.20584 0.93011 0.82408 0.0
H369 H 0.12058 0.90254 0.65513 0.0
H370 H 0.14787 0.89878 0.6868 0.0
H371 H 0.19125 0.94615 0.80918 0.0
H372 H 0.25758 0.92497 0.94899 0.0
H373 H 0.23018 0.92893 0.91987 0.0
H374 H 0.18654 0.88208 0.79778 0.0
C375 C 0.14446 0.90806 0.71482 0.0
C376 C 0.18994 0.93203 0.80709 0.0
C377 C 0.12878 0.91022 0.6966 0.0
C378 C 0.2493 0.9176 0.90728 0.0
C379 C 0.23356 0.91986 0.89058 0.0
C380 C 0.18782 0.89619 0.80003 0.0
C381 C 0.15587 0.91814 0.76739 0.0
C382 C 0.17276 0.91606 0.78624 0.0
C383 C 0.22203 0.91011 0.83785 0.0
C384 C 0.20503 0.91217 0.82056 0.0
H385 H 0.13206 0.94187 0.81091 0.0
H386 H 0.15929 0.93805 0.84287 0.0
H387 H 0.15885 0.88541 0.76841 0.0
H388 H 0.24586 0.8869 0.78916 0.0
H389 H 0.21852 0.89083 0.76018 0.0
C390 C 0.44632 0.0249 0.11773 0.0
C391 C 0.44412 1.01317 0.06498 0.0
C392 C 0.46425 0.04071 0.13224 0.0
C393 C 0.51132 0.07427 0.05968 0.0
H394 H 0.52845 0.08598 0.23456 0.0
C395 C 0.58892 0.13196 0.12498 0.0
C396 C 0.59162 0.14361 0.17837 0.0
C397 C 0.57083 0.1163 0.11129 0.0
C398 C 0.5238 0.08308 0.18551 0.0
H399 H 0.45919 1.00899 0.98615 0.0
H400 H 0.49048 0.03639 0.01193 0.0
H401 H 0.49731 0.05808 0.21096 0.0
H402 H 0.57723 0.14784 0.25915 0.0
H403 H 0.54559 0.12075 0.23461 0.0
H404 H 0.53775 0.09927 0.03416 0.0
C405 C 0.47829 0.03345 0.04181 0.0
C406 C 0.50593 0.06704 0.17196 0.0
C407 C 0.46037 0.01759 0.02745 0.0
C408 C 0.57567 0.13929 0.21735 0.0
C409 C 0.55755 0.12359 0.20369 0.0
C410 C 0.52916 0.09032 0.07322 0.0
C411 C 0.48045 0.04527 0.09425 0.0
C412 C 0.49947 0.06239 0.10884 0.0
C413 C 0.5549 0.11184 0.15056 0.0
C414 C 0.53569 0.09492 0.1363 0.0
H415 H 0.43417 0.02181 0.14807 0.0
H416 H 0.46533 0.04957 0.17268 0.0
H417 H 0.50668 0.07134 0.01062 0.0
H418 H 0.6008 0.13497 0.09341 0.0
H419 H 0.56942 0.10749 0.07036 0.0
C420 C 0.92196 0.24937 0.30747 0.0
C421 C 0.92307 0.23571 0.26828 0.0
C422 C 0.90556 0.25144 0.30723 0.0
C423 C 0.86234 0.24091 0.21239 0.0
H424 H 0.8428 0.24742 0.37385 0.0
C425 C 0.78873 0.23835 0.23504 0.0
C426 C 0.78774 0.25166 0.27639 0.0
C427 C 0.8051 0.23621 0.23347 0.0
C428 C 0.84816 0.24584 0.32823 0.0
H429 H 0.9079 0.21388 0.19672 0.0
H430 H 0.87923 0.21731 0.19688 0.0
H431 H 0.87172 0.24452 0.37136 0.0
H432 H 0.80319 0.27286 0.34949 0.0
H433 H 0.83177 0.26944 0.34581 0.0
H434 H 0.83879 0.24229 0.16926 0.0
C435 C 0.89109 0.2265 0.22765 0.0
C436 C 0.86478 0.24418 0.32681 0.0
C437 C 0.90747 0.2244 0.22804 0.0
C438 C 0.8035 0.26265 0.31643 0.0
C439 C 0.81984 0.26051 0.31489 0.0
C440 C 0.84572 0.24261 0.2138 0.0
C441 C 0.88985 0.23994 0.26765 0.0
C442 C 0.87213 0.24174 0.26888 0.0
C443 C 0.82089 0.24728 0.27336 0.0
C444 C 0.83842 0.24514 0.27175 0.0
H445 H 0.93362 0.25821 0.33946 0.0
H446 H 0.90521 0.2621 0.33808 0.0
H447 H 0.86772 0.23929 0.16685 0.0
H448 H 0.77695 0.22975 0.20314 0.0
H449 H 0.80531 0.22574 0.20136 0.0
C450 C 0.79523 0.67639 0.66554 0.0
C451 C 0.78066 0.67519 0.62518 0.0
C452 C 0.81348 0.69276 0.6656 0.0
C453 C 0.8461 0.73557 0.56988 0.0
H454 H 0.87116 0.75563 0.73175 0.0
C455 C 0.91626 0.80897 0.59154 0.0
C456 C 0.93034 0.81007 0.63409 0.0
C457 C 0.89792 0.79268 0.59002 0.0
C458 C 0.8645 0.75012 0.68604 0.0
H459 H 0.77414 0.69018 0.55195 0.0
H460 H 0.80588 0.7188 0.55256 0.0
H461 H 0.83968 0.72679 0.72914 0.0
H462 H 0.93588 0.79493 0.70939 0.0
H463 H 0.90419 0.76647 0.70579 0.0
H464 H 0.87097 0.75887 0.52675 0.0
C465 C 0.80322 0.70703 0.58402 0.0
C466 C 0.84641 0.73355 0.68456 0.0
C467 C 0.78494 0.69068 0.58414 0.0
C468 C 0.92552 0.79451 0.67539 0.0
C469 C 0.90722 0.77826 0.67389 0.0
C470 C 0.86423 0.75213 0.57134 0.0
C471 C 0.81769 0.70835 0.62512 0.0
C472 C 0.83699 0.72602 0.62647 0.0
C473 C 0.89317 0.77708 0.63113 0.0
C474 C 0.8737 0.75961 0.62945 0.0
H475 H 0.79241 0.66482 0.69816 0.0
H476 H 0.82434 0.69318 0.69733 0.0
H477 H 0.83938 0.73005 0.52424 0.0
H478 H 0.91949 0.82059 0.55867 0.0
H479 H 0.88742 0.79239 0.55694 0.0
C480 C 0.36031 0.68198 0.02589 0.0
C481 C 0.34746 0.66779 0.98387 0.0
C482 C 0.36215 0.70031 0.02663 0.0
C483 C 0.3531 0.73381 0.9301 0.0
H484 H 0.35637 0.75821 0.09237 0.0
C485 C 0.34954 0.80422 0.95039 0.0
C486 C 0.36198 0.81806 0.99416 0.0
C487 C 0.34752 0.78581 0.94914 0.0
C488 C 0.3557 0.75172 0.04658 0.0
H489 H 0.3268 0.66198 0.90854 0.0
H490 H 0.32985 0.69384 0.91029 0.0
H491 H 0.35379 0.72658 0.08955 0.0
H492 H 0.3817 0.8231 0.07198 0.0
H493 H 0.37852 0.79128 0.06886 0.0
H494 H 0.3551 0.75898 0.88709 0.0
C495 C 0.33858 0.69083 0.94255 0.0
C496 C 0.35422 0.73356 0.04498 0.0
C497 C 0.33669 0.67249 0.94201 0.0
C498 C 0.37218 0.81293 0.03703 0.0
C499 C 0.37017 0.79455 0.03578 0.0
C500 C 0.35463 0.752 0.93169 0.0
C501 C 0.35125 0.70495 0.98514 0.0
C502 C 0.35292 0.72436 0.98673 0.0
C503 C 0.35786 0.78074 0.9917 0.0
C504 C 0.35597 0.76122 0.98996 0.0
H505 H 0.36871 0.67883 0.05915 0.0
H506 H 0.3722 0.71089 0.05956 0.0
H507 H 0.35239 0.72727 0.88436 0.0
H508 H 0.34157 0.80769 0.91631 0.0
H509 H 0.33774 0.7755 0.91502 0.0
loop_
_geom_bond_atom_site_label_1
_geom_bond_atom_site_label_2
_geom_bond_distance
_geom_bond_site_symmetry_2
_ccdc_geom_bond_type
C0 C1 1.264 . S
C0 C5 1.479 . S
C0 C10 1.465 . S
C1 C0 1.264 . S
C1 C3 1.339 . S
C1 H28 0.931 . S
C2 C3 1.395 . S
C2 C4 1.320 . S
C3 C1 1.339 . S
C3 C2 1.395 . S
C3 H29 0.929 . S
C4 C2 1.320 . S
C4 C5 1.405 . S
C4 H30 0.930 . S
C5 C0 1.479 . S
C5 C4 1.405 . S
C5 H31 0.931 . S
U6 O7 2.454 . S
U6 O8 2.458 . S
U6 C9 2.984 . S
U6 C10 2.847 . S
U6 C23 2.882 . S
U6 O24 2.441 . S
U6 O25 2.420 . S
U6 O26 2.455 . S
U6 O27 2.449 . S
O7 U6 2.454 . S
O7 C9 1.353 . S
O8 U6 2.458 . S
O8 C9 1.286 . S
C9 U6 2.984 . S
C9 O7 1.353 . S
C9 O8 1.286 . S
C9 C11 1.363 . S
C10 C0 1.465 . S
C10 U6 2.847 . S
C10 O24 1.249 . S
C10 O25 1.202 . S
C11 C9 1.363 . S
C11 C13 1.408 . S
C11 C16 1.342 . S
C12 C13 1.310 . S
C12 C15 1.461 . S
C12 H32 0.932 . S
C13 C11 1.408 . S
C13 C12 1.310 . S
C13 H33 0.930 . S
C14 C15 1.474 . S
C14 C16 1.285 . S
C14 H34 0.929 . S
C15 C12 1.461 . S
C15 C14 1.474 . S
C16 C11 1.342 . S
C16 C14 1.285 . S
C16 H35 0.930 . S
C17 C20 1.424 . S
C17 C22 1.245 . S
C17 C23 1.428 . S
C18 C21 1.260 . S
C18 C22 1.477 . S
C18 H36 0.932 . S
C19 C20 1.384 . S
C19 C21 1.479 . S
C19 H37 0.929 . S
C20 C17 1.424 . S
C20 C19 1.384 . S
C20 H38 0.928 . S
C21 C18 1.260 . S
C21 C19 1.479 . S
C22 C17 1.245 . S
C22 C18 1.477 . S
C22 H39 0.932 . S
C23 U6 2.882 . S
C23 C17 1.428 . S
C23 O26 1.301 . S
C23 O27 1.282 . S
O24 U6 2.441 . S
O24 C10 1.249 . S
O25 U6 2.420 . S
O25 C10 1.202 . S
O26 U6 2.455 . S
O26 C23 1.301 . S
O27 U6 2.449 . S
O27 C23 1.282 . S
H28 C1 0.931 . S
H29 C3 0.929 . S
H30 C4 0.930 . S
H31 C5 0.931 . S
H32 C12 0.932 . S
H33 C13 0.930 . S
H34 C14 0.929 . S
H35 C16 0.930 . S
H36 C18 0.932 . S
H37 C19 0.929 . S
H38 C20 0.928 . S
H39 C22 0.932 . S
C40 C41 1.264 . S
C40 C45 1.479 . S
C40 C50 1.465 . S
C41 C40 1.264 . S
C41 C43 1.339 . S
C41 H68 0.931 . S
C42 C43 1.395 . S
C42 C44 1.320 . S
C43 C41 1.339 . S
C43 C42 1.395 . S
C43 H69 0.929 . S
C44 C42 1.320 . S
C44 C45 1.405 . S
C44 H70 0.930 . S
C45 C40 1.479 . S
C45 C44 1.405 . S
C45 H71 0.931 . S
U46 O47 2.454 . S
U46 O48 2.458 . S
U46 C49 2.984 . S
U46 C50 2.847 . S
U46 C63 2.882 . S
U46 O64 2.441 . S
U46 O65 2.420 . S
U46 O66 2.455 . S
U46 O67 2.449 . S
O47 U46 2.454 . S
O47 C49 1.353 . S
O48 U46 2.458 . S
O48 C49 1.286 . S
C49 U46 2.984 . S
C49 O47 1.353 . S
C49 O48 1.286 . S
C49 C51 1.363 . S
C50 C40 1.465 . S
C50 U46 2.847 . S
C50 O64 1.249 . S
C50 O65 1.202 . S
C51 C49 1.363 . S
C51 C53 1.408 . S
C51 C56 1.342 . S
C52 C53 1.310 . S
C52 C55 1.461 . S
C52 H72 0.932 . S
C53 C51 1.408 . S
C53 C52 1.310 . S
C53 H73 0.930 . S
C54 C55 1.474 . S
C54 C56 1.285 . S
C54 H74 0.929 . S
C55 C52 1.461 . S
C55 C54 1.474 . S
C56 C51 1.342 . S
C56 C54 1.285 . S
C56 H75 0.930 . S
C57 C60 1.424 . S
C57 C62 1.245 . S
C57 C63 1.428 . S
C58 C61 1.260 . S
C58 C62 1.477 . S
C58 H76 0.932 . S
C59 C60 1.384 . S
C59 C61 1.479 . S
C59 H77 0.929 . S
C60 C57 1.424 . S
C60 C59 1.384 . S
C60 H78 0.928 . S
C61 C58 1.260 . S
C61 C59 1.479 . S
C62 C57 1.245 . S
C62 C58 1.477 . S
C62 H79 0.932 . S
C63 U46 2.882 . S
C63 C57 1.428 . S
C63 O66 1.301 . S
C63 O67 1.282 . S
O64 U46 2.441 . S
O64 C50 1.249 . S
O65 U46 2.420 . S
O65 C50 1.202 . S
O66 U46 2.455 . S
O66 C63 1.301 . S
O67 U46 2.449 . S
O67 C63 1.282 . S
H68 C41 0.931 . S
H69 C43 0.929 . S
H70 C44 0.930 . S
H71 C45 0.931 . S
H72 C52 0.932 . S
H73 C53 0.930 . S
H74 C54 0.929 . S
H75 C56 0.930 . S
H76 C58 0.932 . S
H77 C59 0.929 . S
H78 C60 0.928 . S
H79 C62 0.932 . S
C80 C81 1.264 . S
C80 C85 1.479 . S
C80 C90 1.465 . S
C81 C80 1.264 . S
C81 C83 1.339 . S
C81 H108 0.931 . S
C82 C83 1.395 . S
C82 C84 1.320 . S
C83 C81 1.339 . S
C83 C82 1.395 . S
C83 H109 0.929 . S
C84 C82 1.320 . S
C84 C85 1.405 . S
C84 H110 0.930 . S
C85 C80 1.479 . S
C85 C84 1.405 . S
C85 H111 0.931 . S
U86 O87 2.454 1_554 S
U86 O88 2.458 1_554 S
U86 C89 2.984 1_554 S
U86 C90 2.847 . S
U86 C103 2.882 . S
U86 O104 2.441 . S
U86 O105 2.420 . S
U86 O106 2.455 . S
U86 O107 2.449 . S
O87 U86 2.454 1_556 S
O87 C89 1.353 . S
O88 U86 2.458 1_556 S
O88 C89 1.286 . S
C89 U86 2.984 1_556 S
C89 O87 1.353 . S
C89 O88 1.286 . S
C89 C91 1.363 . S
C90 C80 1.465 . S
C90 U86 2.847 . S
C90 O104 1.249 . S
C90 O105 1.202 . S
C91 C89 1.363 . S
C91 C93 1.408 . S
C91 C96 1.342 . S
C92 C93 1.310 . S
C92 C95 1.461 . S
C92 H112 0.932 . S
C93 C91 1.408 . S
C93 C92 1.310 . S
C93 H113 0.930 . S
C94 C95 1.474 . S
C94 C96 1.285 . S
C94 H114 0.929 . S
C95 C92 1.461 . S
C95 C94 1.474 . S
C96 C91 1.342 . S
C96 C94 1.285 . S
C96 H115 0.930 . S
C97 C100 1.424 . S
C97 C102 1.245 . S
C97 C103 1.428 . S
C98 C101 1.260 . S
C98 C102 1.477 . S
C98 H116 0.932 1_554 S
C99 C100 1.384 . S
C99 C101 1.479 . S
C99 H117 0.929 . S
C100 C97 1.424 . S
C100 C99 1.384 . S
C100 H118 0.928 . S
C101 C98 1.260 . S
C101 C99 1.479 . S
C102 C97 1.245 . S
C102 C98 1.477 . S
C102 H119 0.932 1_554 S
C103 U86 2.882 . S
C103 C97 1.428 . S
C103 O106 1.301 . S
C103 O107 1.282 . S
O104 U86 2.441 . S
O104 C90 1.249 . S
O105 U86 2.420 . S
O105 C90 1.202 . S
O106 U86 2.455 . S
O106 C103 1.301 . S
O107 U86 2.449 . S
O107 C103 1.282 . S
H108 C81 0.931 . S
H109 C83 0.929 . S
H110 C84 0.930 . S
H111 C85 0.931 . S
H112 C92 0.932 . S
H113 C93 0.930 . S
H114 C94 0.929 . S
H115 C96 0.930 . S
H116 C98 0.932 1_556 S
H117 C99 0.929 . S
H118 C100 0.928 . S
H119 C102 0.932 1_556 S
C120 C121 1.291 . S
C120 C125 1.430 1_655 S
C120 C130 1.484 1_655 S
C121 C120 1.291 . S
C121 C123 1.339 . S
C121 H148 0.931 . S
C122 C123 1.395 . S
C122 C124 1.320 1_655 S
C123 C121 1.339 . S
C123 C122 1.395 . S
C123 H149 0.929 . S
C124 C122 1.320 1_455 S
C124 C125 1.405 . S
C124 H150 0.930 . S
C125 C120 1.430 1_455 S
C125 C124 1.405 . S
C125 H151 0.931 . S
U126 O127 2.505 . S
U126 O128 2.463 . S
U126 C129 3.015 . S
U126 C130 2.878 . S
U126 C143 2.821 1_455 S
U126 O144 2.492 . S
U126 O145 2.427 1_455 S
U126 O146 2.401 1_455 S
U126 O147 2.394 1_455 S
O127 U126 2.505 . S
O127 C129 1.353 . S
O128 U126 2.463 . S
O128 C129 1.286 . S
C129 U126 3.015 . S
C129 O127 1.353 . S
C129 O128 1.286 . S
C129 C131 1.363 . S
C130 C120 1.484 1_455 S
C130 U126 2.878 . S
C130 O144 1.249 . S
C130 O145 1.202 1_455 S
C131 C129 1.363 . S
C131 C133 1.408 . S
C131 C136 1.342 . S
C132 C133 1.310 . S
C132 C135 1.461 . S
C132 H152 0.932 . S
C133 C131 1.408 . S
C133 C132 1.310 . S
C133 H153 0.930 . S
C134 C135 1.474 . S
C134 C136 1.285 . S
C134 H154 0.929 . S
C135 C132 1.461 . S
C135 C134 1.474 . S
C136 C131 1.342 . S
C136 C134 1.285 . S
C136 H155 0.930 . S
C137 C140 1.424 . S
C137 C142 1.245 . S
C137 C143 1.428 . S
C138 C141 1.260 . S
C138 C142 1.477 . S
C138 H156 0.932 . S
C139 C140 1.384 . S
C139 C141 1.479 . S
C139 H157 0.929 . S
C140 C137 1.424 . S
C140 C139 1.384 . S
C140 H158 0.928 . S
C141 C138 1.260 . S
C141 C139 1.479 . S
C142 C137 1.245 . S
C142 C138 1.477 . S
C142 H159 0.932 . S
C143 U126 2.821 1_655 S
C143 C137 1.428 . S
C143 O146 1.301 . S
C143 O147 1.282 . S
O144 U126 2.492 . S
O144 C130 1.249 . S
O145 U126 2.427 1_655 S
O145 C130 1.202 1_655 S
O146 U126 2.401 1_655 S
O146 C143 1.301 . S
O147 U126 2.394 1_655 S
O147 C143 1.282 . S
H148 C121 0.931 . S
H149 C123 0.929 . S
H150 C124 0.930 . S
H151 C125 0.931 . S
H152 C132 0.932 . S
H153 C133 0.930 . S
H154 C134 0.929 . S
H155 C136 0.930 . S
H156 C138 0.932 . S
H157 C139 0.929 . S
H158 C140 0.928 . S
H159 C142 0.932 . S
C160 C161 1.264 . S
C160 C165 1.479 . S
C160 C170 1.465 . S
C161 C160 1.264 . S
C161 C163 1.339 . S
C161 H188 0.931 . S
C162 C163 1.395 . S
C162 C164 1.320 . S
C163 C161 1.339 . S
C163 C162 1.395 . S
C163 H189 0.929 . S
C164 C162 1.320 . S
C164 C165 1.405 . S
C164 H190 0.930 . S
C165 C160 1.479 . S
C165 C164 1.405 . S
C165 H191 0.931 . S
U166 O167 2.454 1_655 S
U166 O168 2.458 . S
U166 C169 2.984 . S
U166 C170 2.847 1_655 S
U166 C183 2.882 . S
U166 O184 2.441 1_655 S
U166 O185 2.420 1_655 S
U166 O186 2.455 . S
U166 O187 2.449 . S
O167 U166 2.454 1_455 S
O167 C169 1.353 1_455 S
O168 U166 2.458 . S
O168 C169 1.286 . S
C169 U166 2.984 . S
C169 O167 1.353 1_655 S
C169 O168 1.286 . S
C169 C171 1.363 . S
C170 C160 1.465 . S
C170 U166 2.847 1_455 S
C170 O184 1.249 . S
C170 O185 1.202 . S
C171 C169 1.363 . S
C171 C173 1.408 1_655 S
C171 C176 1.342 . S
C172 C173 1.310 . S
C172 C175 1.461 1_455 S
C172 H192 0.932 . S
C173 C171 1.408 1_455 S
C173 C172 1.310 . S
C173 H193 0.930 . S
C174 C175 1.474 . S
C174 C176 1.285 . S
C174 H194 0.929 . S
C175 C172 1.461 1_655 S
C175 C174 1.474 . S
C176 C171 1.342 . S
C176 C174 1.285 . S
C176 H195 0.930 . S
C177 C180 1.424 . S
C177 C182 1.245 . S
C177 C183 1.428 . S
C178 C181 1.260 . S
C178 C182 1.477 . S
C178 H196 0.932 . S
C179 C180 1.384 . S
C179 C181 1.479 . S
C179 H197 0.929 . S
C180 C177 1.424 . S
C180 C179 1.384 . S
C180 H198 0.928 . S
C181 C178 1.260 . S
C181 C179 1.479 . S
C182 C177 1.245 . S
C182 C178 1.477 . S
C182 H199 0.932 . S
C183 U166 2.882 . S
C183 C177 1.428 . S
C183 O186 1.301 . S
C183 O187 1.282 . S
O184 U166 2.441 1_455 S
O184 C170 1.249 . S
O185 U166 2.420 1_455 S
O185 C170 1.202 . S
O186 U166 2.455 . S
O186 C183 1.301 . S
O187 U166 2.449 . S
O187 C183 1.282 . S
H188 C161 0.931 . S
H189 C163 0.929 . S
H190 C164 0.930 . S
H191 C165 0.931 . S
H192 C172 0.932 . S
H193 C173 0.930 . S
H194 C174 0.929 . S
H195 C176 0.930 . S
H196 C178 0.932 . S
H197 C179 0.929 . S
H198 C180 0.928 . S
H199 C182 0.932 . S
C200 C201 1.264 . S
C200 C205 1.479 . S
C200 C210 1.465 . S
C201 C200 1.264 . S
C201 C203 1.339 . S
C201 H228 0.931 . S
C202 C203 1.395 . S
C202 C204 1.320 . S
C203 C201 1.339 . S
C203 C202 1.395 . S
C203 H229 0.929 . S
C204 C202 1.320 . S
C204 C205 1.405 . S
C204 H230 0.930 . S
C205 C200 1.479 . S
C205 C204 1.405 . S
C205 H231 0.931 . S
U206 O207 2.454 1_554 S
U206 O208 2.458 1_554 S
U206 C209 2.984 1_554 S
U206 C210 2.847 . S
U206 C223 2.882 . S
U206 O224 2.441 . S
U206 O225 2.420 . S
U206 O226 2.455 . S
U206 O227 2.449 . S
O207 U206 2.454 1_556 S
O207 C209 1.353 . S
O208 U206 2.458 1_556 S
O208 C209 1.286 . S
C209 U206 2.984 1_556 S
C209 O207 1.353 . S
C209 O208 1.286 . S
C209 C211 1.363 . S
C210 C200 1.465 . S
C210 U206 2.847 . S
C210 O224 1.249 . S
C210 O225 1.202 . S
C211 C209 1.363 . S
C211 C213 1.408 . S
C211 C216 1.342 . S
C212 C213 1.310 . S
C212 C215 1.461 . S
C212 H232 0.932 . S
C213 C211 1.408 . S
C213 C212 1.310 . S
C213 H233 0.930 . S
C214 C215 1.474 . S
C214 C216 1.285 . S
C214 H234 0.929 . S
C215 C212 1.461 . S
C215 C214 1.474 . S
C216 C211 1.342 . S
C216 C214 1.285 . S
C216 H235 0.930 . S
C217 C220 1.424 . S
C217 C222 1.245 . S
C217 C223 1.428 . S
C218 C221 1.260 . S
C218 C222 1.477 . S
C218 H236 0.930 1_554 S
C219 C220 1.384 . S
C219 C221 1.479 . S
C219 H237 0.929 . S
C220 C217 1.424 . S
C220 C219 1.384 . S
C220 H238 0.928 . S
C221 C218 1.260 . S
C221 C219 1.479 . S
C222 C217 1.245 . S
C222 C218 1.477 . S
C222 H239 0.932 1_554 S
C223 U206 2.882 . S
C223 C217 1.428 . S
C223 O226 1.301 . S
C223 O227 1.282 . S
O224 U206 2.441 . S
O224 C210 1.249 . S
O225 U206 2.420 . S
O225 C210 1.202 . S
O226 U206 2.455 . S
O226 C223 1.301 . S
O227 U206 2.449 . S
O227 C223 1.282 . S
H228 C201 0.931 . S
H229 C203 0.929 . S
H230 C204 0.930 . S
H231 C205 0.931 . S
H232 C212 0.932 . S
H233 C213 0.930 . S
H234 C214 0.929 . S
H235 C216 0.930 . S
H236 C218 0.930 1_556 S
H237 C219 0.929 . S
H238 C220 0.928 . S
H239 C222 0.932 1_556 S
C240 C241 1.349 . S
C240 C242 1.327 . S
C240 H265 0.950 . S
C241 C240 1.349 . S
C241 C257 1.349 . S
C242 C240 1.327 . S
C242 C261 1.429 . S
C242 H266 0.950 . S
C243 C260 1.574 . S
C243 C262 1.368 . S
C243 H267 0.949 . S
H244 C248 0.949 . S
C245 C246 1.349 . S
C245 C247 1.327 . S
C245 H268 0.950 . S
C246 C245 1.349 . S
C246 C258 1.349 . S
C247 C245 1.327 . S
C247 C263 1.429 . S
C247 H269 0.950 . S
C248 H244 0.949 . S
C248 C256 1.574 . S
C248 C264 1.368 . S
H249 C257 0.950 . S
H250 C255 0.950 . S
H251 C256 0.949 . S
H252 C258 0.950 . S
H253 C259 0.950 . S
H254 C260 0.949 . S
C255 H250 0.950 . S
C255 C257 1.327 . S
C255 C261 1.429 . S
C256 C248 1.574 . S
C256 H251 0.949 . S
C256 C262 1.368 . S
C257 C241 1.349 . S
C257 H249 0.950 . S
C257 C255 1.327 . S
C258 C246 1.349 . S
C258 H252 0.950 . S
C258 C259 1.327 . S
C259 H253 0.950 . S
C259 C258 1.327 . S
C259 C263 1.429 . S
C260 C243 1.574 . S
C260 H254 0.949 . S
C260 C264 1.368 . S
C261 C242 1.429 . S
C261 C255 1.429 . S
C261 C262 1.523 . S
C262 C243 1.368 . S
C262 C256 1.368 . S
C262 C261 1.523 . S
C263 C247 1.429 . S
C263 C259 1.429 . S
C263 C264 1.523 . S
C264 C248 1.368 . S
C264 C260 1.368 . S
C264 C263 1.523 . S
H265 C240 0.950 . S
H266 C242 0.950 . S
H267 C243 0.949 . S
H268 C245 0.950 . S
H269 C247 0.950 . S
C270 C271 1.349 . S
C270 C272 1.327 . S
C270 H295 0.950 . S
C271 C270 1.349 . S
C271 C287 1.349 . S
C272 C270 1.327 . S
C272 C291 1.429 . S
C272 H296 0.950 . S
C273 C290 1.574 . S
C273 C292 1.368 . S
C273 H297 0.949 . S
H274 C278 0.949 . S
C275 C276 1.349 . S
C275 C277 1.327 . S
C275 H298 0.950 . S
C276 C275 1.349 . S
C276 C288 1.349 . S
C277 C275 1.327 . S
C277 C293 1.429 . S
C277 H299 0.950 . S
C278 H274 0.949 . S
C278 C286 1.574 . S
C278 C294 1.368 . S
H279 C287 0.950 . S
H280 C285 0.950 . S
H281 C286 0.949 . S
H282 C288 0.950 . S
H283 C289 0.950 . S
H284 C290 0.949 . S
C285 H280 0.950 . S
C285 C287 1.327 . S
C285 C291 1.429 . S
C286 C278 1.574 . S
C286 H281 0.949 . S
C286 C292 1.368 . S
C287 C271 1.349 . S
C287 H279 0.950 . S
C287 C285 1.327 . S
C288 C276 1.349 . S
C288 H282 0.950 . S
C288 C289 1.327 . S
C289 H283 0.950 . S
C289 C288 1.327 . S
C289 C293 1.429 . S
C290 C273 1.574 . S
C290 H284 0.949 . S
C290 C294 1.368 . S
C291 C272 1.429 . S
C291 C285 1.429 . S
C291 C292 1.523 . S
C292 C273 1.368 . S
C292 C286 1.368 . S
C292 C291 1.523 . S
C293 C277 1.429 . S
C293 C289 1.429 . S
C293 C294 1.523 . S
C294 C278 1.368 . S
C294 C290 1.368 . S
C294 C293 1.523 . S
H295 C270 0.950 . S
H296 C272 0.950 . S
H297 C273 0.949 . S
H298 C275 0.950 . S
H299 C277 0.950 . S
C300 C301 1.349 . S
C300 C302 1.327 . S
C300 H325 0.950 . S
C301 C300 1.349 . S
C301 C317 1.349 . S
C302 C300 1.327 . S
C302 C321 1.429 . S
C302 H326 0.950 . S
C303 C320 1.574 . S
C303 C322 1.368 . S
C303 H327 0.949 . S
H304 C308 0.949 . S
C305 C306 1.349 . S
C305 C307 1.327 . S
C305 H328 0.950 . S
C306 C305 1.349 . S
C306 C318 1.349 . S
C307 C305 1.327 . S
C307 C323 1.429 . S
C307 H329 0.950 . S
C308 H304 0.949 . S
C308 C316 1.574 . S
C308 C324 1.368 . S
H309 C317 0.950 . S
H310 C315 0.950 . S
H311 C316 0.949 . S
H312 C318 0.950 . S
H313 C319 0.950 . S
H314 C320 0.949 . S
C315 H310 0.950 . S
C315 C317 1.327 . S
C315 C321 1.429 . S
C316 C308 1.574 . S
C316 H311 0.949 . S
C316 C322 1.368 . S
C317 C301 1.349 . S
C317 H309 0.950 . S
C317 C315 1.327 . S
C318 C306 1.349 . S
C318 H312 0.950 . S
C318 C319 1.327 . S
C319 H313 0.950 . S
C319 C318 1.327 . S
C319 C323 1.429 . S
C320 C303 1.574 . S
C320 H314 0.949 . S
C320 C324 1.368 . S
C321 C302 1.429 . S
C321 C315 1.429 . S
C321 C322 1.523 . S
C322 C303 1.368 . S
C322 C316 1.368 . S
C322 C321 1.523 . S
C323 C307 1.429 . S
C323 C319 1.429 . S
C323 C324 1.523 . S
C324 C308 1.368 . S
C324 C320 1.368 . S
C324 C323 1.523 . S
H325 C300 0.950 . S
H326 C302 0.950 . S
H327 C303 0.949 . S
H328 C305 0.950 . S
H329 C307 0.950 . S
C330 C331 1.349 1_445 S
C330 C332 1.327 . S
C330 H355 0.950 . S
C331 C330 1.349 1_665 S
C331 C347 1.349 . S
C332 C330 1.327 . S
C332 C351 1.429 1_455 S
C332 H356 0.950 . S
C333 C350 1.574 . S
C333 C352 1.368 . S
C333 H357 0.949 . S
H334 C338 0.949 . S
C335 C336 1.349 . S
C335 C337 1.327 . S
C335 H358 0.950 . S
C336 C335 1.349 . S
C336 C348 1.349 1_655 S
C337 C335 1.327 . S
C337 C353 1.429 . S
C337 H359 0.950 . S
C338 H334 0.949 . S
C338 C346 1.574 . S
C338 C354 1.368 1_455 S
H339 C347 0.950 . S
H340 C345 0.950 . S
H341 C346 0.949 . S
H342 C348 0.950 . S
H343 C349 0.950 . S
H344 C350 0.949 . S
C345 H340 0.950 . S
C345 C347 1.327 1_545 S
C345 C351 1.429 . S
C346 C338 1.574 . S
C346 H341 0.949 . S
C346 C352 1.368 1_455 S
C347 C331 1.349 . S
C347 H339 0.950 . S
C347 C345 1.327 1_565 S
C348 C336 1.349 1_455 S
C348 H342 0.950 . S
C348 C349 1.327 . S
C349 H343 0.950 . S
C349 C348 1.327 . S
C349 C353 1.429 1_455 S
C350 C333 1.574 . S
C350 H344 0.949 . S
C350 C354 1.368 . S
C351 C332 1.429 1_655 S
C351 C345 1.429 . S
C351 C352 1.523 . S
C352 C333 1.368 . S
C352 C346 1.368 1_655 S
C352 C351 1.523 . S
C353 C337 1.429 . S
C353 C349 1.429 1_655 S
C353 C354 1.523 . S
C354 C338 1.368 1_655 S
C354 C350 1.368 . S
C354 C353 1.523 . S
H355 C330 0.950 . S
H356 C332 0.950 . S
H357 C333 0.949 . S
H358 C335 0.950 . S
H359 C337 0.950 . S
C360 C361 1.349 . S
C360 C362 1.327 . S
C360 H385 0.950 . S
C361 C360 1.349 . S
C361 C377 1.349 . S
C362 C360 1.327 . S
C362 C381 1.429 . S
C362 H386 0.950 . S
C363 C380 1.574 . S
C363 C382 1.368 . S
C363 H387 0.949 . S
H364 C368 0.949 . S
C365 C366 1.349 . S
C365 C367 1.327 . S
C365 H388 0.950 . S
C366 C365 1.349 . S
C366 C378 1.349 . S
C367 C365 1.327 . S
C367 C383 1.429 . S
C367 H389 0.950 . S
C368 H364 0.949 . S
C368 C376 1.574 . S
C368 C384 1.368 . S
H369 C377 0.950 . S
H370 C375 0.950 . S
H371 C376 0.949 . S
H372 C378 0.950 . S
H373 C379 0.950 . S
H374 C380 0.949 . S
C375 H370 0.950 . S
C375 C377 1.327 . S
C375 C381 1.429 . S
C376 C368 1.574 . S
C376 H371 0.949 . S
C376 C382 1.368 . S
C377 C361 1.349 . S
C377 H369 0.950 . S
C377 C375 1.327 . S
C378 C366 1.349 . S
C378 H372 0.950 . S
C378 C379 1.327 . S
C379 H373 0.950 . S
C379 C378 1.327 . S
C379 C383 1.429 . S
C380 C363 1.574 . S
C380 H374 0.949 . S
C380 C384 1.368 . S
C381 C362 1.429 . S
C381 C375 1.429 . S
C381 C382 1.523 . S
C382 C363 1.368 . S
C382 C376 1.368 . S
C382 C381 1.523 . S
C383 C367 1.429 . S
C383 C379 1.429 . S
C383 C384 1.523 . S
C384 C368 1.368 . S
C384 C380 1.368 . S
C384 C383 1.523 . S
H385 C360 0.950 . S
H386 C362 0.950 . S
H387 C363 0.949 . S
H388 C365 0.950 . S
H389 C367 0.950 . S
C390 C391 1.349 1_545 S
C390 C392 1.327 . S
C390 H415 0.950 1_545 S
C391 C390 1.349 1_565 S
C391 C407 1.349 . S
C392 C390 1.327 . S
C392 C411 1.429 . S
C392 H416 0.950 . S
C393 C410 1.574 . S
C393 C412 1.368 . S
C393 H417 0.949 . S
H394 C398 0.949 . S
C395 C396 1.349 . S
C395 C397 1.327 . S
C395 H418 0.950 . S
C396 C395 1.349 . S
C396 C408 1.349 . S
C397 C395 1.327 . S
C397 C413 1.429 . S
C397 H419 0.950 . S
C398 H394 0.949 . S
C398 C406 1.574 . S
C398 C414 1.368 . S
H399 C407 0.950 1_556 S
H400 C405 0.950 . S
H401 C406 0.949 . S
H402 C408 0.950 . S
H403 C409 0.950 . S
H404 C410 0.949 . S
C405 H400 0.950 . S
C405 C407 1.327 1_545 S
C405 C411 1.429 . S
C406 C398 1.574 . S
C406 H401 0.949 . S
C406 C412 1.368 . S
C407 C391 1.349 . S
C407 H399 0.950 1_554 S
C407 C405 1.327 1_565 S
C408 C396 1.349 . S
C408 H402 0.950 . S
C408 C409 1.327 . S
C409 H403 0.950 . S
C409 C408 1.327 . S
C409 C413 1.429 . S
C410 C393 1.574 . S
C410 H404 0.949 . S
C410 C414 1.368 . S
C411 C392 1.429 . S
C411 C405 1.429 . S
C411 C412 1.523 . S
C412 C393 1.368 . S
C412 C406 1.368 . S
C412 C411 1.523 . S
C413 C397 1.429 . S
C413 C409 1.429 . S
C413 C414 1.523 . S
C414 C398 1.368 . S
C414 C410 1.368 . S
C414 C413 1.523 . S
H415 C390 0.950 1_565 S
H416 C392 0.950 . S
H417 C393 0.949 . S
H418 C395 0.950 . S
H419 C397 0.950 . S
C420 C421 1.349 . S
C420 C422 1.327 . S
C420 H445 0.950 . S
C421 C420 1.349 . S
C421 C437 1.349 . S
C422 C420 1.327 . S
C422 C441 1.429 . S
C422 H446 0.950 . S
C423 C440 1.574 . S
C423 C442 1.368 . S
C423 H447 0.949 . S
H424 C428 0.949 . S
C425 C426 1.349 . S
C425 C427 1.327 . S
C425 H448 0.950 . S
C426 C425 1.349 . S
C426 C438 1.349 . S
C427 C425 1.327 . S
C427 C443 1.429 . S
C427 H449 0.950 . S
C428 H424 0.949 . S
C428 C436 1.574 . S
C428 C444 1.368 . S
H429 C437 0.950 . S
H430 C435 0.950 . S
H431 C436 0.949 . S
H432 C438 0.950 . S
H433 C439 0.950 . S
H434 C440 0.949 . S
C435 H430 0.950 . S
C435 C437 1.327 . S
C435 C441 1.429 . S
C436 C428 1.574 . S
C436 H431 0.949 . S
C436 C442 1.368 . S
C437 C421 1.349 . S
C437 H429 0.950 . S
C437 C435 1.327 . S
C438 C426 1.349 . S
C438 H432 0.950 . S
C438 C439 1.327 . S
C439 H433 0.950 . S
C439 C438 1.327 . S
C439 C443 1.429 . S
C440 C423 1.574 . S
C440 H434 0.949 . S
C440 C444 1.368 . S
C441 C422 1.429 . S
C441 C435 1.429 . S
C441 C442 1.523 . S
C442 C423 1.368 . S
C442 C436 1.368 . S
C442 C441 1.523 . S
C443 C427 1.429 . S
C443 C439 1.429 . S
C443 C444 1.523 . S
C444 C428 1.368 . S
C444 C440 1.368 . S
C444 C443 1.523 . S
H445 C420 0.950 . S
H446 C422 0.950 . S
H447 C423 0.949 . S
H448 C425 0.950 . S
H449 C427 0.950 . S
C450 C451 1.349 . S
C450 C452 1.327 . S
C450 H475 0.950 . S
C451 C450 1.349 . S
C451 C467 1.349 . S
C452 C450 1.327 . S
C452 C471 1.429 . S
C452 H476 0.950 . S
C453 C470 1.574 . S
C453 C472 1.368 . S
C453 H477 0.949 . S
H454 C458 0.949 . S
C455 C456 1.349 . S
C455 C457 1.327 . S
C455 H478 0.950 . S
C456 C455 1.349 . S
C456 C468 1.349 . S
C457 C455 1.327 . S
C457 C473 1.429 . S
C457 H479 0.950 . S
C458 H454 0.949 . S
C458 C466 1.574 . S
C458 C474 1.368 . S
H459 C467 0.950 . S
H460 C465 0.950 . S
H461 C466 0.949 . S
H462 C468 0.950 . S
H463 C469 0.950 . S
H464 C470 0.949 . S
C465 H460 0.950 . S
C465 C467 1.327 . S
C465 C471 1.429 . S
C466 C458 1.574 . S
C466 H461 0.949 . S
C466 C472 1.368 . S
C467 C451 1.349 . S
C467 H459 0.950 . S
C467 C465 1.327 . S
C468 C456 1.349 . S
C468 H462 0.950 . S
C468 C469 1.327 . S
C469 H463 0.950 . S
C469 C468 1.327 . S
C469 C473 1.429 . S
C470 C453 1.574 . S
C470 H464 0.949 . S
C470 C474 1.368 . S
C471 C452 1.429 . S
C471 C465 1.429 . S
C471 C472 1.523 . S
C472 C453 1.368 . S
C472 C466 1.368 . S
C472 C471 1.523 . S
C473 C457 1.429 . S
C473 C469 1.429 . S
C473 C474 1.523 . S
C474 C458 1.368 . S
C474 C470 1.368 . S
C474 C473 1.523 . S
H475 C450 0.950 . S
H476 C452 0.950 . S
H477 C453 0.949 . S
H478 C455 0.950 . S
H479 C457 0.950 . S
C480 C481 1.349 1_554 S
C480 C482 1.327 . S
C480 H505 0.950 . S
C481 C480 1.349 1_556 S
C481 C497 1.349 . S
C482 C480 1.327 . S
C482 C501 1.418 1_554 S
C482 H506 0.950 . S
C483 C500 1.574 . S
C483 C502 1.377 . S
C483 H507 0.949 . S
H484 C488 0.949 . S
C485 C486 1.348 . S
C485 C487 1.327 . S
C485 H508 0.950 . S
C486 C485 1.348 . S
C486 C498 1.350 1_556 S
C487 C485 1.327 . S
C487 C503 1.431 . S
C487 H509 0.950 . S
C488 H484 0.949 . S
C488 C496 1.574 . S
C488 C504 1.363 1_554 S
H489 C497 0.950 . S
H490 C495 0.950 . S
H491 C496 0.949 . S
H492 C498 0.950 . S
H493 C499 0.950 . S
H494 C500 0.949 . S
C495 H490 0.950 . S
C495 C497 1.327 . S
C495 C501 1.439 . S
C496 C488 1.574 . S
C496 H491 0.949 . S
C496 C502 1.359 1_554 S
C497 C481 1.349 . S
C497 H489 0.950 . S
C497 C495 1.327 . S
C498 C486 1.350 1_554 S
C498 H492 0.950 . S
C498 C499 1.327 . S
C499 H493 0.950 . S
C499 C498 1.327 . S
C499 C503 1.426 1_554 S
C500 C483 1.574 . S
C500 H494 0.949 . S
C500 C504 1.373 . S
C501 C482 1.418 1_556 S
C501 C495 1.439 . S
C501 C502 1.523 . S
C502 C483 1.377 . S
C502 C496 1.359 1_556 S
C502 C501 1.523 . S
C503 C487 1.431 . S
C503 C499 1.426 1_556 S
C503 C504 1.523 . S
C504 C488 1.363 1_556 S
C504 C500 1.373 . S
C504 C503 1.523 . S
H505 C480 0.950 . S
H506 C482 0.950 . S
H507 C483 0.949 . S
H508 C485 0.950 . S
H509 C487 0.950 . S
C241 C2 1.486 . S
C246 C55 1.503 . S
C271 C42 1.490 . S
C276 C95 1.504 . S
C301 C82 1.502 . S
C306 C135 1.509 . S
C331 C175 1.503 . S
C336 C122 1.486 . S
C361 C162 1.490 . S
C366 C215 1.504 . S
C391 C202 1.502 . S
C396 C15 1.510 . S
C421 C141 1.491 . S
C426 C21 1.491 . S
C451 C61 1.486 . S
C456 C181 1.486 . S
C481 C101 1.498 1_556 S
C486 C221 1.498 1_556 S
