# Generated by pormake.
# Topology snp, (6)-cn, num edge types: 1
# Building blocks:
#     Node 0, Type 0, BuildingBlock: BETDEL_clean_sbu_0, # of connection points: 6
#     Node 1, Type 0, BuildingBlock: BETDEL_clean_sbu_0, # of connection points: 6
#     Node 2, Type 0, BuildingBlock: BETDEL_clean_sbu_0, # of connection points: 6
#     Node 3, Type 0, BuildingBlock: BETDEL_clean_sbu_0, # of connection points: 6
#     Edge 4, Type (0, 0), BuildingBlock: FUNLAD_clean_linker_0, # of connection points: 2
#     Edge 5, Type (0, 0), BuildingBlock: FUNLAD_clean_linker_0, # of connection points: 2
#     Edge 6, Type (0, 0), BuildingBlock: FUNLAD_clean_linker_0, # of connection points: 2
#     Edge 7, Type (0, 0), BuildingBlock: FUNLAD_clean_linker_0, # of connection points: 2
#     Edge 8, Type (0, 0), BuildingBlock: FUNLAD_clean_linker_0, # of connection points: 2
#     Edge 9, Type (0, 0), BuildingBlock: FUNLAD_clean_linker_0, # of connection points: 2
#     Edge 10, Type (0, 0), BuildingBlock: FUNLAD_clean_linker_0, # of connection points: 2
#     Edge 11, Type (0, 0), BuildingBlock: FUNLAD_clean_linker_0, # of connection points: 2
#     Edge 12, Type (0, 0), BuildingBlock: FUNLAD_clean_linker_0, # of connection points: 2
#     Edge 13, Type (0, 0), BuildingBlock: FUNLAD_clean_linker_0, # of connection points: 2
#     Edge 14, Type (0, 0), BuildingBlock: FUNLAD_clean_linker_0, # of connection points: 2
#     Edge 15, Type (0, 0), BuildingBlock: FUNLAD_clean_linker_0, # of connection points: 2
# Relax obj value: 0.323
# Max RMSD: 0.193
# Mean RMSD: 0.191
data_MOF--net-snp--node1-BETDEL_clean_sbu_0--edge1-FUNLAD_clean_linker_0
_symmetry_space_group_name_H-M    P1
_symmetry_Int_Tables_number       1
_symmetry_cell_setting            triclinic
loop_
_symmetry_equiv_pos_as_xyz
'x, y, z'
_cell_length_a     28.382633
_cell_length_b     28.24161
_cell_length_c     32.143025
_cell_angle_alpha  92.878652
_cell_angle_beta   90.075262
_cell_angle_gamma 94.468909
loop_
_atom_site_label
_atom_site_type_symbol
_atom_site_fract_x
_atom_site_fract_y
_atom_site_fract_z
_atom_type_partial_charge
Dy0 Dy 0.20492 0.07956 0.05977 0.0
C1 C 0.2504 0.92154 0.95747 0.0
C2 C 0.1868 0.15959 0.10709 0.0
Dy3 Dy 0.22465 0.99583 1.00885 0.0
O4 O 0.22267 0.15529 0.08268 0.0
O5 O 0.15895 0.12079 0.10353 0.0
O6 O 0.27561 0.0772 0.08992 0.0
O7 O 0.26904 0.05953 1.02618 0.0
C8 C 0.29715 0.0633 0.0567 0.0
C9 C 0.13156 0.00288 1.01587 0.0
O10 O 0.22958 0.96649 0.07448 0.0
O11 O 0.19507 0.02807 0.11001 0.0
O12 O 0.2112 0.92291 0.97793 0.0
O13 O 0.27745 0.95954 0.96799 0.0
O14 O 0.15358 0.99832 0.98088 0.0
O15 O 0.16185 0.01257 0.04451 0.0
O16 O 0.18315 0.10345 0.9968 0.0
O17 O 0.22332 0.04872 0.95859 0.0
C18 C 0.21156 0.98556 0.10943 0.0
C19 C 0.19932 0.08715 0.96054 0.0
Dy20 Dy 0.97725 0.22258 0.55551 0.0
C21 C 0.14961 0.27119 0.46554 0.0
C22 C 0.898 0.19785 0.60057 0.0
Dy23 Dy 0.07544 0.23458 0.51121 0.0
O24 O 0.90876 0.23966 0.58647 0.0
O25 O 0.92894 0.16918 0.58736 0.0
O26 O 0.99503 0.2944 0.5879 0.0
O27 O 0.02012 0.28079 0.52801 0.0
C28 C 0.02117 0.31102 0.55814 0.0
C29 C 0.03202 0.14728 0.5016 0.0
O30 O 0.09985 0.23119 0.5784 0.0
O31 O 0.02712 0.20433 0.60574 0.0
O32 O 0.1445 0.22795 0.478 0.0
O33 O 0.11651 0.29523 0.48202 0.0
O34 O 0.06585 0.16337 0.47769 0.0
O35 O 0.02991 0.17593 0.53307 0.0
O36 O 0.95192 0.21447 0.48849 0.0
O37 O 0.02369 0.23979 0.45828 0.0
C38 C 0.0735 0.21438 0.60963 0.0
C39 C 0.97792 0.22526 0.45523 0.0
Dy40 Dy 0.80108 0.96517 0.05245 0.0
C41 C 0.8095 0.13577 0.95859 0.0
C42 C 0.80738 0.8861 0.09766 0.0
Dy43 Dy 0.81471 0.05833 1.00574 0.0
O44 O 0.76881 0.89811 0.08052 0.0
O45 O 0.84213 0.91599 0.08819 0.0
O46 O 0.73328 0.98861 0.07764 0.0
O47 O 0.75419 0.00802 1.01782 0.0
C48 C 0.72357 0.01277 0.04591 0.0
C49 C 0.89133 0.00933 1.01529 0.0
O50 O 0.81389 0.08872 0.07289 0.0
O51 O 0.8251 0.01801 0.10448 0.0
O52 O 0.8479 0.12207 0.9747 0.0
O53 O 0.77341 0.10893 0.97096 0.0
O54 O 0.88401 0.03233 0.98222 0.0
O55 O 0.85902 0.01621 0.04076 0.0
O56 O 0.81216 0.93605 0.98566 0.0
O57 O 0.79873 0.00512 0.95277 0.0
C58 C 0.82308 0.06496 0.10654 0.0
C59 C 0.80744 0.95962 0.95104 0.0
Dy60 Dy 0.96341 0.80022 0.50437 0.0
C61 C 0.13032 0.85073 0.60258 0.0
C62 C 0.89032 0.79181 0.44806 0.0
Dy63 Dy 0.05722 0.8377 0.54624 0.0
O64 O 0.91958 0.75953 0.45378 0.0
O65 O 0.89958 0.8273 0.47481 0.0
O66 O 0.96451 0.73189 0.53486 0.0
O67 O 0.02964 0.76821 0.5181 0.0
C68 C 0.01038 0.73329 0.53704 0.0
C69 C 0.0031 0.90251 0.51784 0.0
O70 O 0.086 0.83238 0.48104 0.0
O71 O 0.01132 0.82311 0.45072 0.0
O72 O 0.10937 0.88432 0.5857 0.0
O73 O 0.11275 0.80969 0.58705 0.0
O74 O 0.04903 0.90803 0.51651 0.0
O75 O 0.99043 0.86532 0.53551 0.0
O76 O 0.93373 0.81342 0.56882 0.0
O77 O 0.0072 0.82808 0.60126 0.0
C78 C 0.05809 0.83102 0.44762 0.0
C79 C 0.96017 0.82165 0.60315 0.0
C80 C 0.93097 0.95117 0.05468 0.0
C81 C 0.91706 0.96637 1.01603 0.0
C82 C 0.94502 0.90539 0.05808 0.0
C83 C 0.94557 0.8742 1.0228 0.0
C84 C 0.93324 0.8898 0.98378 0.0
C85 C 0.91992 0.93609 0.98029 0.0
C86 C 0.96824 0.82925 1.0259 0.0
C87 C 0.01535 0.82995 0.03064 0.0
C88 C 0.04531 0.87482 0.02756 0.0
C89 C 0.06552 0.89854 0.06333 0.0
C90 C 0.0894 0.94352 0.06074 0.0
C91 C 0.09368 0.9651 1.02217 0.0
H92 H 0.03168 0.87951 0.96171 0.0
C93 C 0.07098 0.94209 0.98699 0.0
C94 C 0.04783 0.89707 0.98952 0.0
H95 H 0.0738 0.95755 0.95682 0.0
H96 H 0.92911 0.9741 0.08261 0.0
H97 H 0.95595 0.89438 0.0882 0.0
H98 H 0.93533 0.86671 0.956 0.0
H99 H 0.90998 0.94744 0.95007 0.0
H100 H 0.94654 0.7959 1.02638 0.0
H101 H 0.03165 0.79736 0.03632 0.0
H102 H 0.06265 0.88238 0.09318 0.0
H103 H 0.10663 0.96014 0.08843 0.0
C104 C 0.98244 0.9508 0.45831 0.0
C105 C 0.96953 0.92863 0.49506 0.0
C106 C 0.94818 0.97077 0.43489 0.0
C107 C 0.90095 0.96928 0.44836 0.0
C108 C 0.88817 0.94698 0.48494 0.0
C109 C 0.92226 0.92704 0.50825 0.0
C110 C 0.86565 0.99504 0.42671 0.0
C111 C 0.86985 0.04263 0.42533 0.0
C112 C 0.90994 0.07138 0.44548 0.0
C113 C 0.94739 0.0886 0.42095 0.0
C114 C 0.98821 0.11049 0.43972 0.0
C115 C 0.99153 0.11733 0.48337 0.0
H116 H 0.88543 0.06179 0.50851 0.0
C117 C 0.95427 0.09932 0.50798 0.0
C118 C 0.91367 0.07629 0.48913 0.0
H119 H 0.95676 0.10268 0.54156 0.0
H120 H 0.0185 0.95161 0.44721 0.0
H121 H 0.95853 0.9877 0.40646 0.0
H122 H 0.85204 0.94592 0.49593 0.0
H123 H 0.91154 0.90979 0.53647 0.0
H124 H 0.8345 0.97516 0.41333 0.0
H125 H 0.84384 0.06037 0.40833 0.0
H126 H 0.94551 0.08406 0.38729 0.0
H127 H 0.0165 0.12367 0.41977 0.0
C128 C 0.64544 0.03141 0.07364 0.0
C129 C 0.67596 0.02876 0.03948 0.0
C130 C 0.5983 0.04021 0.06812 0.0
C131 C 0.58044 0.04717 0.02819 0.0
C132 C 0.61133 0.04568 0.99403 0.0
C133 C 0.65888 0.03692 0.99964 0.0
C134 C 0.52909 0.05191 1.02138 0.0
C135 C 0.50147 0.0697 0.05152 0.0
C136 C 0.44889 0.06803 0.05035 0.0
C137 C 0.42569 0.07859 0.08784 0.0
C138 C 0.37654 0.07635 0.08968 0.0
C139 C 0.34911 0.06391 0.05392 0.0
H140 H 0.43759 0.04746 0.98463 0.0
C141 C 0.37186 0.05349 1.01613 0.0
C142 C 0.42139 0.05546 1.0143 0.0
H143 H 0.35142 0.044 0.98804 0.0
H144 H 0.65759 0.02499 0.10468 0.0
H145 H 0.57565 0.03929 0.09515 0.0
H146 H 0.59845 0.05043 0.96289 0.0
H147 H 0.68167 0.03473 0.97272 0.0
H148 H 0.51405 0.0387 0.99162 0.0
H149 H 0.51819 0.08474 0.08013 0.0
H150 H 0.44568 0.08824 0.11617 0.0
H151 H 0.36006 0.08465 0.11926 0.0
C152 C 0.03481 0.39346 0.59031 0.0
C153 C 0.03658 0.36206 0.5552 0.0
C154 C 0.04467 0.44248 0.58694 0.0
C155 C 0.0567 0.46135 0.54816 0.0
C156 C 0.05977 0.4295 0.51337 0.0
C157 C 0.04985 0.38049 0.5168 0.0
C158 C 0.0619 0.51364 0.54161 0.0
C159 C 0.06365 0.54792 0.57254 0.0
C160 C 0.0578 0.59878 0.56513 0.0
C161 C 0.03228 0.62485 0.59443 0.0
C162 C 0.01972 0.67028 0.58623 0.0
C163 C 0.03379 0.69134 0.5492 0.0
H164 H 0.09496 0.60221 0.50618 0.0
C165 C 0.06256 0.66712 0.52121 0.0
C166 C 0.07424 0.62091 0.52896 0.0
H167 H 0.0733 0.68253 0.49219 0.0
H168 H 0.02449 0.38025 0.6203 0.0
H169 H 0.0409 0.46508 0.61465 0.0
H170 H 0.06856 0.44267 0.48303 0.0
H171 H 0.05083 0.35731 0.489 0.0
H172 H 0.06087 0.52414 0.50959 0.0
H173 H 0.06402 0.5384 0.60476 0.0
H174 H 0.01948 0.60889 0.62266 0.0
H175 H 0.99717 0.68823 0.60806 0.0
C176 C 0.19814 0.24951 0.40379 0.0
C177 C 0.17037 0.28214 0.42464 0.0
C178 C 0.20374 0.24996 0.36053 0.0
C179 C 0.18122 0.28285 0.3374 0.0
C180 C 0.15712 0.31804 0.35878 0.0
C181 C 0.15236 0.31818 0.40207 0.0
C182 C 0.17571 0.27623 0.29145 0.0
C183 C 0.20836 0.25752 0.26673 0.0
C184 C 0.19864 0.24121 0.22271 0.0
C185 C 0.23568 0.24347 0.19391 0.0
C186 C 0.22999 0.22069 0.1544 0.0
C187 C 0.18757 0.19389 0.1434 0.0
H188 H 0.12587 0.21444 0.23232 0.0
C189 C 0.14955 0.19376 0.1713 0.0
C190 C 0.15489 0.21754 0.21054 0.0
H191 H 0.11664 0.17302 0.16377 0.0
H192 H 0.21213 0.22113 0.42032 0.0
H193 H 0.2221 0.22192 0.34503 0.0
H194 H 0.1395 0.34375 0.34172 0.0
H195 H 0.1306 0.34376 0.41719 0.0
H196 H 0.14266 0.28517 0.27784 0.0
H197 H 0.24304 0.25252 0.27941 0.0
H198 H 0.26974 0.26125 0.2026 0.0
H199 H 0.26008 0.2212 0.13368 0.0
C200 C 0.85102 0.22711 0.66129 0.0
C201 C 0.8687 0.18906 0.63784 0.0
C202 C 0.83582 0.22126 0.70239 0.0
C203 C 0.8381 0.17715 0.72057 0.0
C204 C 0.8521 0.13837 0.6958 0.0
C205 C 0.86698 0.14416 0.65485 0.0
C206 C 0.83278 0.17145 0.76614 0.0
C207 C 0.80875 0.19938 0.79237 0.0
C208 C 0.80895 0.1919 0.83776 0.0
C209 C 0.76635 0.18535 0.8596 0.0
C210 C 0.76639 0.17051 0.90063 0.0
C211 C 0.80917 0.16322 0.9206 0.0
H212 H 0.88518 0.19378 0.84283 0.0
C213 C 0.85191 0.1742 0.89992 0.0
C214 C 0.85179 0.18797 0.85879 0.0
H215 H 0.88546 0.16894 0.91442 0.0
H216 H 0.85229 0.26225 0.64909 0.0
H217 H 0.8257 0.25208 0.72059 0.0
H218 H 0.85403 0.10395 0.7089 0.0
H219 H 0.88041 0.11417 0.63759 0.0
H220 H 0.85022 0.14242 0.77901 0.0
H221 H 0.7872 0.2259 0.78058 0.0
H222 H 0.73294 0.18863 0.84408 0.0
H223 H 0.73293 0.16218 0.9158 0.0
C224 C 0.86131 0.75842 0.37811 0.0
C225 C 0.86292 0.79523 0.40932 0.0
C226 C 0.84568 0.7662 0.33778 0.0
C227 C 0.83183 0.81115 0.32804 0.0
C228 C 0.83058 0.84677 0.36002 0.0
C229 C 0.84549 0.83878 0.40032 0.0
C230 C 0.82546 0.82445 0.28438 0.0
C231 C 0.81105 0.79399 0.25247 0.0
C232 C 0.81128 0.81054 0.20942 0.0
C233 C 0.76989 0.80651 0.18512 0.0
C234 C 0.76892 0.82858 0.14696 0.0
C235 C 0.80969 0.85394 0.13236 0.0
H236 H 0.88519 0.83615 0.21144 0.0
C237 C 0.85195 0.8544 0.15523 0.0
C238 C 0.85263 0.83332 0.19353 0.0
H239 H 0.884 0.8735 0.14476 0.0
H240 H 0.87486 0.72459 0.38413 0.0
H241 H 0.84775 0.73818 0.31377 0.0
H242 H 0.82019 0.88174 0.35336 0.0
H243 H 0.84642 0.86789 0.42364 0.0
H244 H 0.83397 0.86162 0.27798 0.0
H245 H 0.79819 0.75761 0.2579 0.0
H246 H 0.7377 0.78877 0.19674 0.0
H247 H 0.73586 0.82777 0.12997 0.0
C248 C 0.17658 0.81943 0.66072 0.0
C249 C 0.15951 0.85805 0.64096 0.0
C250 C 0.19638 0.82574 0.7009 0.0
C251 C 0.19883 0.87074 0.72209 0.0
C252 C 0.18373 0.90952 0.70142 0.0
C253 C 0.16478 0.90339 0.6612 0.0
C254 C 0.21114 0.87774 0.7671 0.0
C255 C 0.24124 0.85231 0.78742 0.0
C256 C 0.24824 0.86125 0.83293 0.0
C257 C 0.28991 0.88562 0.84886 0.0
C258 C 0.2926 0.90205 0.89083 0.0
C259 C 0.25385 0.89364 0.91745 0.0
H260 H 0.17848 0.83116 0.84843 0.0
C261 C 0.21386 0.86561 0.90207 0.0
C262 C 0.21089 0.85004 0.86012 0.0
H263 H 0.18332 0.85865 0.92167 0.0
H264 H 0.17264 0.78401 0.64595 0.0
H265 H 0.20702 0.79495 0.71618 0.0
H266 H 0.18507 0.94452 0.71703 0.0
H267 H 0.15181 0.93384 0.64693 0.0
H268 H 0.19456 0.90593 0.78459 0.0
H269 H 0.26136 0.82624 0.77087 0.0
H270 H 0.31909 0.89464 0.8283 0.0
H271 H 0.32372 0.92381 0.90172 0.0
C272 C 0.83028 0.89068 0.90174 0.0
C273 C 0.81892 0.93824 0.90865 0.0
C274 C 0.84746 0.87441 0.86258 0.0
C275 C 0.85456 0.90567 0.82983 0.0
C276 C 0.84213 0.95249 0.83659 0.0
C277 C 0.82404 0.96828 0.87486 0.0
C278 C 0.87964 0.89318 0.79009 0.0
C279 C 0.87006 0.85306 0.76571 0.0
C280 C 0.89372 0.84449 0.72428 0.0
C281 C 0.86843 0.81991 0.691 0.0
C282 C 0.8896 0.81243 0.65175 0.0
C283 C 0.93716 0.82817 0.64497 0.0
H284 H 0.96245 0.8781 0.74245 0.0
C285 C 0.96275 0.85165 0.67868 0.0
C286 C 0.94135 0.85997 0.71753 0.0
H287 H -0.00059 0.8644 0.67495 0.0
H288 H 0.82745 0.86654 0.9269 0.0
H289 H 0.8574 0.83823 0.85863 0.0
H290 H 0.84739 0.97755 0.81224 0.0
H291 H 0.81617 0.00517 0.87833 0.0
H292 H 0.90443 0.92073 0.77861 0.0
H293 H 0.84183 0.82751 0.77483 0.0
H294 H 0.83182 0.8072 0.69512 0.0
H295 H 0.86871 0.79413 0.62678 0.0
C296 C 0.18003 0.91612 0.1519 0.0
C297 C 0.20687 0.96002 0.14927 0.0
C298 C 0.16735 0.89813 0.19111 0.0
C299 C 0.18162 0.92346 0.22874 0.0
C300 C 0.2101 0.96623 0.22562 0.0
C301 C 0.22185 0.98447 0.18676 0.0
C302 C 0.1682 0.90744 0.27183 0.0
C303 C 0.12973 0.87803 0.28086 0.0
C304 C 0.11368 0.86569 0.32437 0.0
C305 C 0.06685 0.84668 0.32986 0.0
C306 C 0.0495 0.83509 0.36937 0.0
C307 C 0.07843 0.84138 0.40524 0.0
H308 H 0.17957 0.88518 0.35775 0.0
C309 C 0.12569 0.85954 0.39988 0.0
C310 C 0.14305 0.8716 0.36016 0.0
H311 H 0.14924 0.86506 0.4265 0.0
H312 H 0.16689 0.89684 0.12373 0.0
H313 H 0.14612 0.86467 0.19174 0.0
H314 H 0.2221 0.98672 0.25356 0.0
H315 H 0.24181 0.01873 0.18605 0.0
H316 H 0.18943 0.92375 0.29757 0.0
H317 H 0.10677 0.86433 0.25526 0.0
H318 H 0.04307 0.84126 0.30336 0.0
H319 H 0.01296 0.82127 0.37169 0.0
C320 C 0.06706 0.19385 0.68522 0.0
C321 C 0.09576 0.20407 0.65044 0.0
C322 C 0.08652 0.18128 0.723 0.0
C323 C 0.13557 0.17833 0.72749 0.0
C324 C 0.16435 0.18881 0.69283 0.0
C325 C 0.14487 0.20186 0.65503 0.0
C326 C 0.15738 0.16183 0.76667 0.0
C327 C 0.1372 0.16445 0.80499 0.0
C328 C 0.15712 0.14649 0.84435 0.0
C329 C 0.13993 0.16285 0.88317 0.0
C330 C 0.15468 0.14489 0.92069 0.0
C331 C 0.18682 0.10938 0.92077 0.0
H332 H 0.20373 0.09713 0.81544 0.0
C333 C 0.2046 0.09333 0.88198 0.0
C334 C 0.1901 0.11161 0.84438 0.0
H335 H 0.2292 0.06585 0.88051 0.0
H336 H 0.02906 0.19494 0.68323 0.0
H337 H 0.06261 0.1725 0.74813 0.0
H338 H 0.20221 0.1866 0.69489 0.0
H339 H 0.16822 0.2091 0.62911 0.0
H340 H 0.19193 0.14806 0.76368 0.0
H341 H 0.10451 0.18178 0.80834 0.0
H342 H 0.11434 0.18942 0.88453 0.0
H343 H 0.13987 0.15813 0.94964 0.0
C344 C 0.86238 0.06917 0.17707 0.0
C345 C 0.83536 0.09081 0.14756 0.0
C346 C 0.87424 0.09202 0.21588 0.0
C347 C 0.85894 0.13715 0.22689 0.0
C348 C 0.83137 0.15865 0.19772 0.0
C349 C 0.82031 0.13613 0.15831 0.0
C350 C 0.87004 0.16127 0.26903 0.0
C351 C 0.91158 0.15792 0.28908 0.0
C352 C 0.92507 0.18135 0.33085 0.0
C353 C 0.97257 0.19744 0.33803 0.0
C354 C 0.98853 0.21451 0.37766 0.0
C355 C 0.95779 0.21485 0.41209 0.0
H356 H 0.85677 0.17066 0.36041 0.0
C357 C 0.90974 0.19977 0.40484 0.0
C358 C 0.89347 0.18361 0.3646 0.0
H359 H 0.88504 0.19888 0.43048 0.0
H360 H 0.87477 0.03433 0.17013 0.0
H361 H 0.89462 0.07371 0.23763 0.0
H362 H 0.81869 0.19323 0.20529 0.0
H363 H 0.79928 0.15382 0.13661 0.0
H364 H 0.84446 0.18397 0.28285 0.0
H365 H 0.93868 0.13896 0.27306 0.0
H366 H -0.00209 0.1959 0.3129 0.0
H367 H 0.0258 0.22527 0.38153 0.0
loop_
_geom_bond_atom_site_label_1
_geom_bond_atom_site_label_2
_geom_bond_distance
_geom_bond_site_symmetry_2
_ccdc_geom_bond_type
Dy0 O4 2.398 . S
Dy0 O5 2.491 . S
Dy0 O6 2.403 . S
Dy0 O7 2.664 1_554 S
Dy0 O11 2.326 . S
Dy0 O15 2.310 . S
Dy0 O16 2.351 1_554 S
C1 O12 1.185 . S
C1 O13 1.355 . S
C2 O4 1.185 . S
C2 O5 1.355 . S
Dy3 O7 2.310 1_565 S
Dy3 O10 2.351 1_556 S
Dy3 O12 2.398 . S
Dy3 O13 2.491 . S
Dy3 O14 2.403 . S
Dy3 O15 2.664 1_566 S
Dy3 O17 2.326 1_565 S
O4 Dy0 2.398 . S
O4 C2 1.185 . S
O5 Dy0 2.491 . S
O5 C2 1.355 . S
O6 Dy0 2.403 . S
O6 C8 1.254 . S
O7 Dy0 2.664 1_556 S
O7 Dy3 2.310 1_545 S
O7 C8 1.268 1_556 S
C8 O6 1.254 . S
C8 O7 1.268 1_554 S
C9 O14 1.251 1_544 S
C9 O15 1.270 . S
O10 Dy3 2.351 1_554 S
O10 C18 1.249 . S
O11 Dy0 2.326 . S
O11 C18 1.267 1_545 S
O12 C1 1.185 . S
O12 Dy3 2.398 . S
O13 C1 1.355 . S
O13 Dy3 2.491 . S
O14 Dy3 2.403 . S
O14 C9 1.251 1_566 S
O15 Dy0 2.310 . S
O15 Dy3 2.664 1_544 S
O15 C9 1.270 . S
O16 Dy0 2.351 1_556 S
O16 C19 1.249 . S
O17 Dy3 2.326 1_545 S
O17 C19 1.267 . S
C18 O10 1.249 . S
C18 O11 1.267 1_565 S
C19 O16 1.249 . S
C19 O17 1.267 . S
Dy20 O24 2.398 . S
Dy20 O25 2.491 . S
Dy20 O26 2.403 . S
Dy20 O27 2.664 1_655 S
Dy20 O31 2.326 1_655 S
Dy20 O35 2.310 1_655 S
Dy20 O36 2.351 . S
C21 O32 1.185 . S
C21 O33 1.355 . S
C22 O24 1.185 . S
C22 O25 1.355 . S
Dy23 O27 2.310 . S
Dy23 O30 2.351 . S
Dy23 O32 2.398 . S
Dy23 O33 2.491 . S
Dy23 O34 2.403 . S
Dy23 O35 2.664 . S
Dy23 O37 2.326 . S
O24 Dy20 2.398 . S
O24 C22 1.185 . S
O25 Dy20 2.491 . S
O25 C22 1.355 . S
O26 Dy20 2.403 . S
O26 C28 1.254 1_655 S
O27 Dy20 2.664 1_455 S
O27 Dy23 2.310 . S
O27 C28 1.268 . S
C28 O26 1.254 1_455 S
C28 O27 1.268 . S
C29 O34 1.254 . S
C29 O35 1.268 . S
O30 Dy23 2.351 . S
O30 C38 1.249 . S
O31 Dy20 2.326 1_455 S
O31 C38 1.267 . S
O32 C21 1.185 . S
O32 Dy23 2.398 . S
O33 C21 1.355 . S
O33 Dy23 2.491 . S
O34 Dy23 2.403 . S
O34 C29 1.254 . S
O35 Dy20 2.310 1_455 S
O35 Dy23 2.664 . S
O35 C29 1.268 . S
O36 Dy20 2.351 . S
O36 C39 1.249 . S
O37 Dy23 2.326 . S
O37 C39 1.267 1_455 S
C38 O30 1.249 . S
C38 O31 1.267 . S
C39 O36 1.249 . S
C39 O37 1.267 1_655 S
Dy40 O44 2.398 . S
Dy40 O45 2.491 . S
Dy40 O46 2.403 . S
Dy40 O47 2.664 1_564 S
Dy40 O51 2.326 1_565 S
Dy40 O55 2.310 . S
Dy40 O56 2.351 1_554 S
C41 O52 1.185 . S
C41 O53 1.355 . S
C42 O44 1.185 . S
C42 O45 1.355 . S
Dy43 O47 2.310 . S
Dy43 O50 2.351 1_556 S
Dy43 O52 2.398 . S
Dy43 O53 2.491 . S
Dy43 O54 2.403 . S
Dy43 O55 2.664 1_546 S
Dy43 O57 2.326 1_545 S
O44 Dy40 2.398 . S
O44 C42 1.185 . S
O45 Dy40 2.491 . S
O45 C42 1.355 . S
O46 Dy40 2.403 . S
O46 C48 1.271 . S
O47 Dy40 2.664 1_546 S
O47 Dy43 2.310 . S
O47 C48 1.259 1_546 S
C48 O46 1.271 . S
C48 O47 1.259 1_564 S
C49 O54 1.256 . S
C49 O55 1.267 1_546 S
O50 Dy43 2.351 1_554 S
O50 C58 1.249 . S
O51 Dy40 2.326 1_545 S
O51 C58 1.267 . S
O52 C41 1.185 . S
O52 Dy43 2.398 . S
O53 C41 1.355 . S
O53 Dy43 2.491 . S
O54 Dy43 2.403 . S
O54 C49 1.256 . S
O55 Dy40 2.310 . S
O55 Dy43 2.664 1_564 S
O55 C49 1.267 1_564 S
O56 Dy40 2.351 1_556 S
O56 C59 1.249 . S
O57 Dy43 2.326 1_565 S
O57 C59 1.267 . S
C58 O50 1.249 . S
C58 O51 1.267 . S
C59 O56 1.249 . S
C59 O57 1.267 . S
Dy60 O64 2.398 . S
Dy60 O65 2.491 . S
Dy60 O66 2.403 . S
Dy60 O67 2.664 1_655 S
Dy60 O71 2.326 1_655 S
Dy60 O75 2.310 1_655 S
Dy60 O76 2.351 . S
C61 O72 1.185 . S
C61 O73 1.355 . S
C62 O64 1.185 . S
C62 O65 1.355 . S
Dy63 O67 2.310 . S
Dy63 O70 2.351 . S
Dy63 O72 2.398 . S
Dy63 O73 2.491 . S
Dy63 O74 2.403 . S
Dy63 O75 2.664 . S
Dy63 O77 2.346 . S
O64 Dy60 2.398 . S
O64 C62 1.185 . S
O65 Dy60 2.491 . S
O65 C62 1.355 . S
O66 Dy60 2.403 . S
O66 C68 1.254 . S
O67 Dy60 2.664 1_455 S
O67 Dy63 2.310 . S
O67 C68 1.268 1_455 S
C68 O66 1.254 . S
C68 O67 1.268 1_655 S
C69 O74 1.254 . S
C69 O75 1.268 . S
O70 Dy63 2.351 . S
O70 C78 1.249 . S
O71 Dy60 2.326 1_455 S
O71 C78 1.267 . S
O72 C61 1.185 . S
O72 Dy63 2.398 . S
O73 C61 1.355 . S
O73 Dy63 2.491 . S
O74 Dy63 2.403 . S
O74 C69 1.254 . S
O75 Dy60 2.310 1_455 S
O75 Dy63 2.664 . S
O75 C69 1.268 . S
O76 Dy60 2.351 . S
O76 C79 1.249 . S
O77 Dy63 2.346 . S
O77 C79 1.245 1_455 S
C78 O70 1.249 . S
C78 O71 1.267 . S
C79 O76 1.249 . S
C79 O77 1.245 1_655 S
C80 C81 1.386 1_545 S
C80 C82 1.383 . S
C80 H96 0.951 . S
C81 C80 1.386 1_565 S
C81 C85 1.383 1_554 S
C82 C80 1.383 . S
C82 C83 1.402 1_544 S
C82 H97 0.951 . S
C83 C82 1.402 1_566 S
C83 C84 1.375 . S
C83 C86 1.481 . S
C84 C83 1.375 . S
C84 C85 1.367 . S
C84 H98 0.951 . S
C85 C81 1.383 1_556 S
C85 C84 1.367 . S
C85 H99 0.950 . S
C86 C83 1.481 . S
C86 C87 1.296 1_666 S
C86 H100 0.950 1_655 S
C87 C86 1.296 1_444 S
C87 C88 1.481 . S
C87 H101 0.950 . S
C88 C87 1.481 . S
C88 C89 1.375 . S
C88 C94 1.401 1_544 S
C89 C88 1.375 . S
C89 C90 1.369 . S
C89 H102 0.950 . S
C90 C89 1.369 . S
C90 C91 1.392 . S
C90 H103 0.951 . S
C91 C90 1.392 . S
C91 C93 1.384 1_554 S
H92 C94 0.955 . S
C93 C91 1.384 1_556 S
C93 C94 1.382 1_545 S
C93 H95 0.950 . S
C94 C88 1.401 1_566 S
C94 H92 0.955 . S
C94 C93 1.382 1_565 S
H95 C93 0.950 . S
H96 C80 0.951 . S
H97 C82 0.951 . S
H98 C84 0.951 . S
H99 C85 0.950 . S
H100 C86 0.950 1_455 S
H101 C87 0.950 . S
H102 C89 0.950 . S
H103 C90 0.951 . S
C104 C105 1.386 . S
C104 C106 1.383 . S
C104 H120 0.951 . S
C105 C104 1.386 . S
C105 C109 1.383 1_455 S
C106 C104 1.383 . S
C106 C107 1.402 1_455 S
C106 H121 0.951 . S
C107 C106 1.402 1_655 S
C107 C108 1.375 . S
C107 C110 1.476 1_565 S
C108 C107 1.375 . S
C108 C109 1.367 . S
C108 H122 0.951 . S
C109 C105 1.383 1_655 S
C109 C108 1.367 . S
C109 H123 0.950 . S
C110 C107 1.476 1_545 S
C110 C111 1.300 1_655 S
C110 H124 0.952 . S
C111 C110 1.300 1_455 S
C111 C112 1.479 . S
C111 H125 0.950 . S
C112 C111 1.479 . S
C112 C113 1.375 . S
C112 C118 1.404 1_455 S
C113 C112 1.375 . S
C113 C114 1.369 . S
C113 H126 0.950 . S
C114 C113 1.369 . S
C114 C115 1.392 . S
C114 H127 0.951 . S
C115 C114 1.392 . S
C115 C117 1.384 1_455 S
H116 C118 0.949 . S
C117 C115 1.384 1_655 S
C117 C118 1.385 . S
C117 H119 0.950 . S
C118 C112 1.404 1_655 S
C118 H116 0.949 . S
C118 C117 1.385 . S
H119 C117 0.950 . S
H120 C104 0.951 . S
H121 C106 0.951 . S
H122 C108 0.951 . S
H123 C109 0.950 . S
H124 C110 0.952 . S
H125 C111 0.950 . S
H126 C113 0.950 . S
H127 C114 0.951 . S
C128 C129 1.392 1_554 S
C128 C130 1.383 . S
C128 H144 0.951 . S
C129 C128 1.392 1_556 S
C129 C133 1.383 1_545 S
C130 C128 1.383 . S
C130 C131 1.402 1_554 S
C130 H145 0.951 . S
C131 C130 1.402 1_556 S
C131 C132 1.375 . S
C131 C134 1.481 . S
C132 C131 1.375 . S
C132 C133 1.367 1_545 S
C132 H146 0.951 . S
C133 C129 1.383 1_565 S
C133 C132 1.367 1_565 S
C133 H147 0.950 . S
C134 C131 1.481 . S
C134 C135 1.297 1_556 S
C134 H148 0.950 . S
C135 C134 1.297 1_554 S
C135 C136 1.480 1_554 S
C135 H149 0.950 . S
C136 C135 1.480 1_556 S
C136 C137 1.376 1_556 S
C136 C142 1.403 . S
C137 C136 1.376 1_554 S
C137 C138 1.369 . S
C137 H150 0.950 . S
C138 C137 1.369 . S
C138 C139 1.392 1_554 S
C138 H151 0.951 . S
C139 C138 1.392 1_556 S
C139 C141 1.384 . S
H140 C142 0.949 . S
C141 C139 1.384 . S
C141 C142 1.385 . S
C141 H143 0.950 . S
C142 C136 1.403 . S
C142 H140 0.949 . S
C142 C141 1.385 . S
H143 C141 0.950 . S
H144 C128 0.951 . S
H145 C130 0.951 . S
H146 C132 0.951 . S
H147 C133 0.950 . S
H148 C134 0.950 . S
H149 C135 0.950 . S
H150 C137 0.950 . S
H151 C138 0.951 . S
C152 C153 1.386 1_655 S
C152 C154 1.383 . S
C152 H168 0.951 . S
C153 C152 1.386 1_455 S
C153 C157 1.383 . S
C154 C152 1.383 . S
C154 C155 1.402 1_655 S
C154 H169 0.951 . S
C155 C154 1.402 1_455 S
C155 C156 1.375 . S
C155 C158 1.481 . S
C156 C155 1.375 . S
C156 C157 1.367 . S
C156 H170 0.951 . S
C157 C153 1.383 . S
C157 C156 1.367 . S
C157 H171 0.950 . S
C158 C155 1.481 . S
C158 C159 1.297 . S
C158 H172 0.950 . S
C159 C158 1.297 . S
C159 C160 1.479 . S
C159 H173 0.950 1_455 S
C160 C159 1.479 . S
C160 C161 1.375 1_455 S
C160 C166 1.404 . S
C161 C160 1.375 1_655 S
C161 C162 1.369 . S
C161 H174 0.950 . S
C162 C161 1.369 . S
C162 C163 1.392 1_655 S
C162 H175 0.951 . S
C163 C162 1.392 1_455 S
C163 C165 1.384 . S
H164 C166 0.949 . S
C165 C163 1.384 . S
C165 C166 1.385 . S
C165 H167 0.950 . S
C166 C160 1.404 . S
C166 H164 0.949 . S
C166 C165 1.385 . S
H167 C165 0.950 . S
H168 C152 0.951 . S
H169 C154 0.951 . S
H170 C156 0.951 . S
H171 C157 0.950 . S
H172 C158 0.950 . S
H173 C159 0.950 1_655 S
H174 C161 0.950 . S
H175 C162 0.951 . S
C176 C177 1.386 . S
C176 C178 1.383 . S
C176 H192 0.951 . S
C177 C176 1.386 . S
C177 C181 1.383 . S
C178 C176 1.383 . S
C178 C179 1.402 . S
C178 H193 0.951 . S
C179 C178 1.402 . S
C179 C180 1.375 . S
C179 C182 1.481 . S
C180 C179 1.375 . S
C180 C181 1.367 . S
C180 H194 0.951 . S
C181 C177 1.383 . S
C181 C180 1.367 . S
C181 H195 0.950 . S
C182 C179 1.481 . S
C182 C183 1.297 . S
C182 H196 0.950 . S
C183 C182 1.297 . S
C183 C184 1.479 . S
C183 H197 0.950 . S
C184 C183 1.479 . S
C184 C185 1.375 . S
C184 C190 1.404 . S
C185 C184 1.375 . S
C185 C186 1.369 . S
C185 H198 0.950 . S
C186 C185 1.369 . S
C186 C187 1.392 . S
C186 H199 0.951 . S
C187 C186 1.392 . S
C187 C189 1.384 . S
H188 C190 0.949 . S
C189 C187 1.384 . S
C189 C190 1.385 . S
C189 H191 0.950 . S
C190 C184 1.404 . S
C190 H188 0.949 . S
C190 C189 1.385 . S
H191 C189 0.950 . S
H192 C176 0.951 . S
H193 C178 0.951 . S
H194 C180 0.951 . S
H195 C181 0.950 . S
H196 C182 0.950 . S
H197 C183 0.950 . S
H198 C185 0.950 . S
H199 C186 0.951 . S
C200 C201 1.386 . S
C200 C202 1.383 . S
C200 H216 0.951 . S
C201 C200 1.386 . S
C201 C205 1.383 . S
C202 C200 1.383 . S
C202 C203 1.402 . S
C202 H217 0.951 . S
C203 C202 1.402 . S
C203 C204 1.375 . S
C203 C206 1.481 . S
C204 C203 1.375 . S
C204 C205 1.367 . S
C204 H218 0.951 . S
C205 C201 1.383 . S
C205 C204 1.367 . S
C205 H219 0.950 . S
C206 C203 1.481 . S
C206 C207 1.297 . S
C206 H220 0.950 . S
C207 C206 1.297 . S
C207 C208 1.479 . S
C207 H221 0.950 . S
C208 C207 1.479 . S
C208 C209 1.375 . S
C208 C214 1.404 . S
C209 C208 1.375 . S
C209 C210 1.369 . S
C209 H222 0.950 . S
C210 C209 1.369 . S
C210 C211 1.392 . S
C210 H223 0.951 . S
C211 C210 1.392 . S
C211 C213 1.384 . S
H212 C214 0.949 . S
C213 C211 1.384 . S
C213 C214 1.385 . S
C213 H215 0.950 . S
C214 C208 1.404 . S
C214 H212 0.949 . S
C214 C213 1.385 . S
H215 C213 0.950 . S
H216 C200 0.951 . S
H217 C202 0.951 . S
H218 C204 0.951 . S
H219 C205 0.950 . S
H220 C206 0.950 . S
H221 C207 0.950 . S
H222 C209 0.950 . S
H223 C210 0.951 . S
C224 C225 1.386 . S
C224 C226 1.383 . S
C224 H240 0.951 . S
C225 C224 1.386 . S
C225 C229 1.383 . S
C226 C224 1.383 . S
C226 C227 1.402 . S
C226 H241 0.951 . S
C227 C226 1.402 . S
C227 C228 1.375 . S
C227 C230 1.481 . S
C228 C227 1.375 . S
C228 C229 1.367 . S
C228 H242 0.951 . S
C229 C225 1.383 . S
C229 C228 1.367 . S
C229 H243 0.950 . S
C230 C227 1.481 . S
C230 C231 1.297 . S
C230 H244 0.950 . S
C231 C230 1.297 . S
C231 C232 1.479 . S
C231 H245 0.950 . S
C232 C231 1.479 . S
C232 C233 1.375 . S
C232 C238 1.404 . S
C233 C232 1.375 . S
C233 C234 1.369 . S
C233 H246 0.950 . S
C234 C233 1.369 . S
C234 C235 1.392 . S
C234 H247 0.951 . S
C235 C234 1.392 . S
C235 C237 1.384 . S
H236 C238 0.949 . S
C237 C235 1.384 . S
C237 C238 1.385 . S
C237 H239 0.950 . S
C238 C232 1.404 . S
C238 H236 0.949 . S
C238 C237 1.385 . S
H239 C237 0.950 . S
H240 C224 0.951 . S
H241 C226 0.951 . S
H242 C228 0.951 . S
H243 C229 0.950 . S
H244 C230 0.950 . S
H245 C231 0.950 . S
H246 C233 0.950 . S
H247 C234 0.951 . S
C248 C249 1.386 . S
C248 C250 1.383 . S
C248 H264 0.951 . S
C249 C248 1.386 . S
C249 C253 1.383 . S
C250 C248 1.383 . S
C250 C251 1.402 . S
C250 H265 0.951 . S
C251 C250 1.402 . S
C251 C252 1.375 . S
C251 C254 1.481 . S
C252 C251 1.375 . S
C252 C253 1.367 . S
C252 H266 0.951 . S
C253 C249 1.383 . S
C253 C252 1.367 . S
C253 H267 0.950 . S
C254 C251 1.481 . S
C254 C255 1.297 . S
C254 H268 0.950 . S
C255 C254 1.297 . S
C255 C256 1.479 . S
C255 H269 0.950 . S
C256 C255 1.479 . S
C256 C257 1.375 . S
C256 C262 1.404 . S
C257 C256 1.375 . S
C257 C258 1.369 . S
C257 H270 0.950 . S
C258 C257 1.369 . S
C258 C259 1.392 . S
C258 H271 0.951 . S
C259 C258 1.392 . S
C259 C261 1.384 . S
H260 C262 0.949 . S
C261 C259 1.384 . S
C261 C262 1.385 . S
C261 H263 0.950 . S
C262 C256 1.404 . S
C262 H260 0.949 . S
C262 C261 1.385 . S
H263 C261 0.950 . S
H264 C248 0.951 . S
H265 C250 0.951 . S
H266 C252 0.951 . S
H267 C253 0.950 . S
H268 C254 0.950 . S
H269 C255 0.950 . S
H270 C257 0.950 . S
H271 C258 0.951 . S
C272 C273 1.386 . S
C272 C274 1.383 . S
C272 H288 0.951 . S
C273 C272 1.386 . S
C273 C277 1.383 . S
C274 C272 1.383 . S
C274 C275 1.402 . S
C274 H289 0.951 . S
C275 C274 1.402 . S
C275 C276 1.375 . S
C275 C278 1.481 . S
C276 C275 1.375 . S
C276 C277 1.367 . S
C276 H290 0.951 . S
C277 C273 1.383 . S
C277 C276 1.367 . S
C277 H291 0.950 . S
C278 C275 1.481 . S
C278 C279 1.297 . S
C278 H292 0.950 . S
C279 C278 1.297 . S
C279 C280 1.479 . S
C279 H293 0.950 . S
C280 C279 1.479 . S
C280 C281 1.375 . S
C280 C286 1.404 . S
C281 C280 1.375 . S
C281 C282 1.369 . S
C281 H294 0.950 . S
C282 C281 1.369 . S
C282 C283 1.392 . S
C282 H295 0.951 . S
C283 C282 1.392 . S
C283 C285 1.384 . S
H284 C286 0.949 . S
C285 C283 1.384 . S
C285 C286 1.385 . S
C285 H287 0.950 . S
C286 C280 1.404 . S
C286 H284 0.949 . S
C286 C285 1.385 . S
H287 C285 0.950 . S
H288 C272 0.951 . S
H289 C274 0.951 . S
H290 C276 0.951 . S
H291 C277 0.950 . S
H292 C278 0.950 . S
H293 C279 0.950 . S
H294 C281 0.950 . S
H295 C282 0.951 . S
C296 C297 1.386 . S
C296 C298 1.383 . S
C296 H312 0.951 . S
C297 C296 1.386 . S
C297 C301 1.383 . S
C298 C296 1.383 . S
C298 C299 1.402 . S
C298 H313 0.951 . S
C299 C298 1.402 . S
C299 C300 1.375 . S
C299 C302 1.481 . S
C300 C299 1.375 . S
C300 C301 1.367 . S
C300 H314 0.951 . S
C301 C297 1.383 . S
C301 C300 1.367 . S
C301 H315 0.950 1_565 S
C302 C299 1.481 . S
C302 C303 1.297 . S
C302 H316 0.950 . S
C303 C302 1.297 . S
C303 C304 1.479 . S
C303 H317 0.950 . S
C304 C303 1.479 . S
C304 C305 1.375 . S
C304 C310 1.404 . S
C305 C304 1.375 . S
C305 C306 1.369 . S
C305 H318 0.950 . S
C306 C305 1.369 . S
C306 C307 1.392 . S
C306 H319 0.951 . S
C307 C306 1.392 . S
C307 C309 1.384 . S
H308 C310 0.949 . S
C309 C307 1.384 . S
C309 C310 1.385 . S
C309 H311 0.950 . S
C310 C304 1.404 . S
C310 H308 0.949 . S
C310 C309 1.385 . S
H311 C309 0.950 . S
H312 C296 0.951 . S
H313 C298 0.951 . S
H314 C300 0.951 . S
H315 C301 0.950 1_545 S
H316 C302 0.950 . S
H317 C303 0.950 . S
H318 C305 0.950 . S
H319 C306 0.951 . S
C320 C321 1.386 . S
C320 C322 1.383 . S
C320 H336 0.951 . S
C321 C320 1.386 . S
C321 C325 1.383 . S
C322 C320 1.383 . S
C322 C323 1.402 . S
C322 H337 0.951 . S
C323 C322 1.402 . S
C323 C324 1.375 . S
C323 C326 1.481 . S
C324 C323 1.375 . S
C324 C325 1.367 . S
C324 H338 0.951 . S
C325 C321 1.383 . S
C325 C324 1.367 . S
C325 H339 0.950 . S
C326 C323 1.481 . S
C326 C327 1.297 . S
C326 H340 0.950 . S
C327 C326 1.297 . S
C327 C328 1.479 . S
C327 H341 0.950 . S
C328 C327 1.479 . S
C328 C329 1.375 . S
C328 C334 1.404 . S
C329 C328 1.375 . S
C329 C330 1.369 . S
C329 H342 0.950 . S
C330 C329 1.369 . S
C330 C331 1.392 . S
C330 H343 0.951 . S
C331 C330 1.392 . S
C331 C333 1.384 . S
H332 C334 0.949 . S
C333 C331 1.384 . S
C333 C334 1.385 . S
C333 H335 0.950 . S
C334 C328 1.404 . S
C334 H332 0.949 . S
C334 C333 1.385 . S
H335 C333 0.950 . S
H336 C320 0.951 . S
H337 C322 0.951 . S
H338 C324 0.951 . S
H339 C325 0.950 . S
H340 C326 0.950 . S
H341 C327 0.950 . S
H342 C329 0.950 . S
H343 C330 0.951 . S
C344 C345 1.386 . S
C344 C346 1.383 . S
C344 H360 0.951 . S
C345 C344 1.386 . S
C345 C349 1.383 . S
C346 C344 1.383 . S
C346 C347 1.402 . S
C346 H361 0.951 . S
C347 C346 1.402 . S
C347 C348 1.375 . S
C347 C350 1.481 . S
C348 C347 1.375 . S
C348 C349 1.367 . S
C348 H362 0.951 . S
C349 C345 1.383 . S
C349 C348 1.367 . S
C349 H363 0.950 . S
C350 C347 1.481 . S
C350 C351 1.297 . S
C350 H364 0.950 . S
C351 C350 1.297 . S
C351 C352 1.479 . S
C351 H365 0.950 . S
C352 C351 1.479 . S
C352 C353 1.375 . S
C352 C358 1.404 . S
C353 C352 1.375 . S
C353 C354 1.369 . S
C353 H366 0.950 . S
C354 C353 1.369 . S
C354 C355 1.392 . S
C354 H367 0.951 . S
C355 C354 1.392 . S
C355 C357 1.384 . S
H356 C358 0.949 . S
C357 C355 1.384 . S
C357 C358 1.385 . S
C357 H359 0.950 . S
C358 C352 1.404 . S
C358 H356 0.949 . S
C358 C357 1.385 . S
H359 C357 0.950 . S
H360 C344 0.951 . S
H361 C346 0.951 . S
H362 C348 0.951 . S
H363 C349 0.950 . S
H364 C350 0.950 . S
H365 C351 0.950 . S
H366 C353 0.950 . S
H367 C354 0.951 . S
C81 C49 1.239 1_564 S
C91 C9 1.200 . S
C105 C69 1.240 . S
C115 C29 1.166 . S
C129 C48 0.981 1_546 S
C139 C8 0.923 1_556 S
C153 C28 0.977 . S
C163 C68 0.991 1_455 S
C177 C21 0.751 . S
C187 C2 0.702 . S
C201 C22 0.834 . S
C211 C41 0.885 . S
C225 C62 0.809 . S
C235 C42 0.838 . S
C249 C61 0.700 . S
C259 C1 0.841 . S
C273 C59 2.276 . S
C283 C79 2.269 . S
C297 C18 2.481 . S
C307 C78 2.470 . S
C321 C38 2.505 . S
C331 C19 2.401 . S
C345 C58 2.350 . S
C355 C39 2.273 . S
