# Generated by pormake.
# Topology vmd, (6)-cn, num edge types: 1
# Building blocks:
#     Node 0, Type 0, BuildingBlock: IZENUY_clean_sbu_0, # of connection points: 6
#     Node 1, Type 0, BuildingBlock: IZENUY_clean_sbu_0, # of connection points: 6
#     Node 2, Type 0, BuildingBlock: IZENUY_clean_sbu_0, # of connection points: 6
#     Node 3, Type 0, BuildingBlock: IZENUY_clean_sbu_0, # of connection points: 6
#     Node 4, Type 0, BuildingBlock: IZENUY_clean_sbu_0, # of connection points: 6
#     Node 5, Type 0, BuildingBlock: IZENUY_clean_sbu_0, # of connection points: 6
#     Node 6, Type 0, BuildingBlock: IZENUY_clean_sbu_0, # of connection points: 6
#     Node 7, Type 0, BuildingBlock: IZENUY_clean_sbu_0, # of connection points: 6
#     Edge 8, Type (0, 0), BuildingBlock: MIFKUJ_clean_linker_0, # of connection points: 2
#     Edge 9, Type (0, 0), BuildingBlock: MIFKUJ_clean_linker_0, # of connection points: 2
#     Edge 10, Type (0, 0), BuildingBlock: MIFKUJ_clean_linker_0, # of connection points: 2
#     Edge 11, Type (0, 0), BuildingBlock: MIFKUJ_clean_linker_0, # of connection points: 2
#     Edge 12, Type (0, 0), BuildingBlock: MIFKUJ_clean_linker_0, # of connection points: 2
#     Edge 13, Type (0, 0), BuildingBlock: MIFKUJ_clean_linker_0, # of connection points: 2
#     Edge 14, Type (0, 0), BuildingBlock: MIFKUJ_clean_linker_0, # of connection points: 2
#     Edge 15, Type (0, 0), BuildingBlock: MIFKUJ_clean_linker_0, # of connection points: 2
#     Edge 16, Type (0, 0), BuildingBlock: MIFKUJ_clean_linker_0, # of connection points: 2
#     Edge 17, Type (0, 0), BuildingBlock: MIFKUJ_clean_linker_0, # of connection points: 2
#     Edge 18, Type (0, 0), BuildingBlock: MIFKUJ_clean_linker_0, # of connection points: 2
#     Edge 19, Type (0, 0), BuildingBlock: MIFKUJ_clean_linker_0, # of connection points: 2
#     Edge 20, Type (0, 0), BuildingBlock: MIFKUJ_clean_linker_0, # of connection points: 2
#     Edge 21, Type (0, 0), BuildingBlock: MIFKUJ_clean_linker_0, # of connection points: 2
#     Edge 22, Type (0, 0), BuildingBlock: MIFKUJ_clean_linker_0, # of connection points: 2
#     Edge 23, Type (0, 0), BuildingBlock: MIFKUJ_clean_linker_0, # of connection points: 2
#     Edge 24, Type (0, 0), BuildingBlock: MIFKUJ_clean_linker_0, # of connection points: 2
#     Edge 25, Type (0, 0), BuildingBlock: MIFKUJ_clean_linker_0, # of connection points: 2
#     Edge 26, Type (0, 0), BuildingBlock: MIFKUJ_clean_linker_0, # of connection points: 2
#     Edge 27, Type (0, 0), BuildingBlock: MIFKUJ_clean_linker_0, # of connection points: 2
#     Edge 28, Type (0, 0), BuildingBlock: MIFKUJ_clean_linker_0, # of connection points: 2
#     Edge 29, Type (0, 0), BuildingBlock: MIFKUJ_clean_linker_0, # of connection points: 2
#     Edge 30, Type (0, 0), BuildingBlock: MIFKUJ_clean_linker_0, # of connection points: 2
#     Edge 31, Type (0, 0), BuildingBlock: MIFKUJ_clean_linker_0, # of connection points: 2
# Relax obj value: 0.251
# Max RMSD: 0.249
# Mean RMSD: 0.249
data_MOF--net-vmd--node1-IZENUY_clean_sbu_0--edge1-MIFKUJ_clean_linker_0
_symmetry_space_group_name_H-M    P1
_symmetry_Int_Tables_number       1
_symmetry_cell_setting            triclinic
loop_
_symmetry_equiv_pos_as_xyz
'x, y, z'
_cell_length_a     60.854764
_cell_length_b     34.030484
_cell_length_c     36.532538
_cell_angle_alpha  89.74124
_cell_angle_beta   98.163069
_cell_angle_gamma 90.145285
loop_
_atom_site_label
_atom_site_type_symbol
_atom_site_fract_x
_atom_site_fract_y
_atom_site_fract_z
_atom_type_partial_charge
Fe0 Fe 0.1588 0.43911 0.26078 0.0
Fe1 Fe 0.15819 0.36316 0.30552 0.0
O2 O 0.17157 0.39443 0.27671 0.0
Fe3 Fe 0.19765 0.38158 0.26416 0.0
O4 O 0.21075 0.42592 0.28432 0.0
O5 O 0.18488 0.46592 0.25831 0.0
O6 O 0.16045 0.45678 0.30756 0.0
C7 C 0.15266 0.43907 0.33323 0.0
C8 C 0.17381 0.41459 0.19832 0.0
O9 O 0.14579 0.40387 0.32896 0.0
C10 C 0.17804 0.30941 0.25973 0.0
O11 O 0.13012 0.42127 0.26047 0.0
O12 O 0.13387 0.35804 0.27081 0.0
O13 O 0.19192 0.40459 0.21788 0.0
O14 O 0.15698 0.4234 0.21321 0.0
C15 C 0.20092 0.35768 0.33967 0.0
O16 O 0.16894 0.31697 0.28811 0.0
O17 O 0.18664 0.33651 0.24291 0.0
C18 C 0.12192 0.38691 0.25903 0.0
O19 O 0.18116 0.36652 0.34207 0.0
O20 O 0.20777 0.35628 0.30842 0.0
C21 C 0.20444 0.46009 0.27448 0.0
Fe22 Fe 0.84697 0.43464 0.23087 0.0
Fe23 Fe 0.84555 0.356 0.19082 0.0
O24 O 0.83398 0.38891 0.22019 0.0
Fe25 Fe 0.80944 0.37638 0.2385 0.0
O26 O 0.79467 0.4189 0.21761 0.0
O27 O 0.82123 0.46126 0.23558 0.0
O28 O 0.84259 0.44905 0.18274 0.0
C29 C 0.84964 0.42997 0.15732 0.0
C30 C 0.83663 0.41316 0.29821 0.0
O31 O 0.85643 0.39493 0.16284 0.0
C32 C 0.82907 0.30486 0.24337 0.0
O33 O 0.87525 0.41682 0.22806 0.0
O34 O 0.87156 0.35289 0.22216 0.0
O35 O 0.81764 0.40229 0.28252 0.0
O36 O 0.85178 0.42238 0.2795 0.0
C37 C 0.80151 0.34918 0.1646 0.0
O38 O 0.83608 0.31091 0.21268 0.0
O39 O 0.82231 0.33313 0.26081 0.0
C40 C 0.88362 0.38264 0.23081 0.0
O41 O 0.82063 0.35771 0.15773 0.0
O42 O 0.79715 0.34812 0.19751 0.0
C43 C 0.80115 0.45383 0.22317 0.0
Fe44 Fe 0.82052 0.63662 0.73993 0.0
Fe45 Fe 0.85533 0.66094 0.69072 0.0
O46 O 0.84505 0.62599 0.72053 0.0
Fe47 Fe 0.85905 0.5805 0.73017 0.0
O48 O 0.83429 0.55176 0.71359 0.0
O49 O 0.81064 0.58582 0.74062 0.0
O50 O 0.80414 0.64182 0.69406 0.0
C51 C 0.80927 0.66472 0.66926 0.0
C52 C 0.84676 0.60298 0.79928 0.0
O53 O 0.82819 0.68047 0.67216 0.0
C54 C 0.8951 0.62878 0.72955 0.0
O55 O 0.82591 0.68943 0.74321 0.0
O56 O 0.859 0.69838 0.72658 0.0
O57 O 0.85345 0.57795 0.77787 0.0
O58 O 0.83501 0.632 0.78688 0.0
C59 C 0.8596 0.59213 0.65354 0.0
O60 O 0.88461 0.64767 0.70282 0.0
O61 O 0.88518 0.60471 0.74783 0.0
C62 C 0.84326 0.71 0.743 0.0
O63 O 0.85188 0.62651 0.65285 0.0
O64 O 0.86694 0.57533 0.68379 0.0
C65 C 0.81563 0.55496 0.7246 0.0
Fe66 Fe 0.16903 0.58227 0.77107 0.0
Fe67 Fe 0.20896 0.63299 0.75684 0.0
O68 O 0.1842 0.627 0.77664 0.0
Fe69 Fe 0.17498 0.66582 0.80306 0.0
O70 O 0.17791 0.6349 0.84402 0.0
O71 O 0.16071 0.58316 0.81744 0.0
O72 O 0.19285 0.5528 0.79078 0.0
C73 C 0.21164 0.55318 0.77993 0.0
C74 C 0.13438 0.63383 0.76692 0.0
O75 O 0.21732 0.58144 0.76079 0.0
C76 C 0.18839 0.70833 0.74703 0.0
O77 O 0.17486 0.57394 0.724 0.0
O78 O 0.19434 0.62539 0.71039 0.0
O79 O 0.14532 0.65405 0.79221 0.0
O80 O 0.14379 0.6074 0.75075 0.0
C81 C 0.22104 0.66734 0.82417 0.0
O82 O 0.20512 0.68592 0.7488 0.0
O83 O 0.17218 0.69967 0.76384 0.0
C84 C 0.18212 0.5961 0.70044 0.0
O85 O 0.22524 0.6405 0.80246 0.0
O86 O 0.20262 0.68481 0.81935 0.0
C87 C 0.16903 0.6016 0.84616 0.0
Fe88 Fe 0.65848 0.92842 0.27067 0.0
Fe89 Fe 0.6617 0.84643 0.30855 0.0
O90 O 0.67305 0.88361 0.28201 0.0
Fe91 Fe 0.69942 0.87547 0.26748 0.0
O92 O 0.70813 0.92665 0.26764 0.0
O93 O 0.68192 0.95938 0.28938 0.0
O94 O 0.64866 0.93281 0.31555 0.0
C95 C 0.65373 0.91446 0.34581 0.0
C96 C 0.67502 0.90654 0.20457 0.0
O97 O 0.66114 0.87979 0.34685 0.0
C98 C 0.67917 0.80053 0.25883 0.0
O99 O 0.63322 0.90352 0.25031 0.0
O100 O 0.63262 0.85635 0.29119 0.0
O101 O 0.68755 0.87914 0.21885 0.0
O102 O 0.66611 0.93074 0.22424 0.0
C103 C 0.70656 0.84845 0.33907 0.0
O104 O 0.66178 0.80982 0.27202 0.0
O105 O 0.69613 0.82238 0.26372 0.0
C106 C 0.62296 0.8769 0.26498 0.0
O107 O 0.68854 0.82977 0.33189 0.0
O108 O 0.71291 0.87177 0.31558 0.0
C109 C 0.7013 0.95745 0.28116 0.0
Fe110 Fe 0.34847 0.94061 0.23166 0.0
Fe111 Fe 0.34817 0.86327 0.18959 0.0
O112 O 0.33512 0.89606 0.21712 0.0
Fe113 Fe 0.30881 0.8851 0.22994 0.0
O114 O 0.29648 0.92955 0.20821 0.0
O115 O 0.32281 0.96841 0.2342 0.0
O116 O 0.34675 0.95705 0.1844 0.0
C117 C 0.35454 0.93835 0.15944 0.0
C118 C 0.3336 0.91743 0.29469 0.0
O119 O 0.3608 0.90287 0.16456 0.0
C120 C 0.32712 0.81207 0.23687 0.0
O121 O 0.37686 0.92215 0.23174 0.0
O122 O 0.37263 0.8587 0.22435 0.0
O123 O 0.31506 0.90923 0.27552 0.0
O124 O 0.35043 0.92567 0.27953 0.0
C125 C 0.30531 0.85795 0.15559 0.0
O126 O 0.33697 0.81804 0.20888 0.0
O127 O 0.31903 0.84031 0.25262 0.0
C128 C 0.3849 0.88779 0.23422 0.0
O129 O 0.32519 0.86594 0.15295 0.0
O130 O 0.29829 0.8586 0.18669 0.0
C131 C 0.30318 0.96351 0.21803 0.0
Fe132 Fe 0.32069 0.13353 0.73343 0.0
Fe133 Fe 0.35772 0.15724 0.68846 0.0
O134 O 0.34615 0.12332 0.71727 0.0
Fe135 Fe 0.36008 0.07856 0.72952 0.0
O136 O 0.33487 0.04987 0.73412 0.0
O137 O 0.30772 0.08933 0.71245 0.0
O138 O 0.30835 0.16025 0.69111 0.0
C139 C 0.31397 0.16125 0.65891 0.0
C140 C 0.34786 0.0989 0.79535 0.0
O141 O 0.33361 0.1544 0.65402 0.0
C142 C 0.39582 0.13293 0.72996 0.0
O143 O 0.33152 0.17828 0.75559 0.0
O144 O 0.34692 0.20155 0.7092 0.0
O145 O 0.36374 0.09147 0.77772 0.0
O146 O 0.3289 0.10888 0.77855 0.0
C147 C 0.36357 0.08345 0.65631 0.0
O148 O 0.38321 0.16187 0.72101 0.0
O149 O 0.38806 0.09828 0.72737 0.0
C150 C 0.33854 0.20696 0.7387 0.0
O151 O 0.3696 0.119 0.66148 0.0
O152 O 0.35688 0.06358 0.68178 0.0
C153 C 0.3148 0.05515 0.72034 0.0
Fe154 Fe 0.67328 0.15156 0.81099 0.0
Fe155 Fe 0.66869 0.07296 0.7706 0.0
O156 O 0.68325 0.11739 0.78088 0.0
Fe157 Fe 0.70785 0.12695 0.76179 0.0
O158 O 0.72178 0.1535 0.80275 0.0
O159 O 0.69842 0.14742 0.84326 0.0
O160 O 0.6617 0.11366 0.83941 0.0
C161 C 0.66798 0.07827 0.84472 0.0
C162 C 0.69108 0.20075 0.75815 0.0
O163 O 0.67373 0.05838 0.81866 0.0
C164 C 0.67847 0.09238 0.70266 0.0
O165 O 0.6471 0.1572 0.78053 0.0
O166 O 0.64123 0.09369 0.7751 0.0
O167 O 0.69658 0.17172 0.74032 0.0
O168 O 0.68387 0.19568 0.78885 0.0
C169 C 0.71361 0.04869 0.7752 0.0
O170 O 0.66336 0.08546 0.72217 0.0
O171 O 0.69789 0.1022 0.71753 0.0
C172 C 0.63404 0.12871 0.77207 0.0
O173 O 0.69318 0.04364 0.76373 0.0
O174 O 0.72114 0.08275 0.78204 0.0
C175 C 0.71773 0.15303 0.83585 0.0
H176 H 0.2764 0.20636 0.65854 0.0
H177 H 0.25593 0.24062 0.6049 0.0
H178 H 0.29759 0.18601 0.53362 0.0
H179 H 0.31783 0.15171 0.58648 0.0
H180 H 0.29599 0.26688 0.52599 0.0
H181 H 0.24546 0.15769 0.52908 0.0
H182 H 0.2206 0.11365 0.55801 0.0
H183 H 0.17978 0.21187 0.5778 0.0
H184 H 0.20459 0.2566 0.54941 0.0
H185 H 0.23961 0.31482 0.34598 0.0
H186 H 0.25855 0.28299 0.4021 0.0
H187 H 0.21175 0.33489 0.46589 0.0
H188 H 0.19282 0.3665 0.41042 0.0
H189 H 0.21554 0.25787 0.47942 0.0
H190 H 0.26447 0.36712 0.47535 0.0
H191 H 0.28908 0.41259 0.44751 0.0
H192 H 0.33263 0.31711 0.43139 0.0
H193 H 0.30813 0.2709 0.45871 0.0
C194 C 0.28081 0.201 0.6313 0.0
C195 C 0.29884 0.17662 0.6268 0.0
C196 C 0.2692 0.22071 0.60074 0.0
C197 C 0.27545 0.21613 0.5654 0.0
C198 C 0.29269 0.1903 0.56071 0.0
C199 C 0.30418 0.17063 0.59099 0.0
C200 C 0.26493 0.23953 0.53337 0.0
C201 C 0.27843 0.26464 0.51553 0.0
C202 C 0.24196 0.2374 0.52049 0.0
C203 C 0.22702 0.21054 0.5375 0.0
C204 C 0.2313 0.16995 0.5399 0.0
C205 C 0.21719 0.14485 0.55614 0.0
C206 C 0.19866 0.15997 0.56984 0.0
C207 C 0.19416 0.20021 0.56723 0.0
C208 C 0.20823 0.22545 0.55105 0.0
C209 C 0.23364 0.32 0.37209 0.0
C210 C 0.21463 0.34295 0.37365 0.0
C211 C 0.24442 0.30175 0.40411 0.0
C212 C 0.23646 0.30644 0.43815 0.0
C213 C 0.21802 0.33051 0.4399 0.0
C214 C 0.20728 0.34867 0.40809 0.0
C215 C 0.24664 0.28496 0.4717 0.0
C216 C 0.23308 0.26028 0.48991 0.0
C217 C 0.26954 0.28775 0.48512 0.0
C218 C 0.28435 0.31546 0.46876 0.0
C219 C 0.2792 0.35574 0.4656 0.0
C220 C 0.29314 0.38167 0.44996 0.0
C221 C 0.31237 0.36773 0.4376 0.0
C222 C 0.31772 0.32785 0.44094 0.0
C223 C 0.30383 0.30178 0.45654 0.0
H224 H 0.32314 0.38786 0.4255 0.0
H225 H 0.18776 0.14049 0.58239 0.0
H226 H 0.73399 0.11483 0.89878 0.0
H227 H 0.75109 0.14568 0.95632 0.0
H228 H 0.75173 0.25716 0.8995 0.0
H229 H 0.73595 0.22562 0.84154 0.0
H230 H 0.78524 0.2544 0.95217 0.0
H231 H 0.70682 0.22256 0.94385 0.0
H232 H 0.67459 0.17768 0.93697 0.0
H233 H 0.70274 0.11441 0.03433 0.0
H234 H 0.73535 0.15843 0.04138 0.0
H235 H 0.78563 0.38238 0.09897 0.0
H236 H 0.77016 0.34723 0.04283 0.0
H237 H 0.77124 0.23913 0.10543 0.0
H238 H 0.78543 0.27491 0.16199 0.0
H239 H 0.73801 0.23769 0.05137 0.0
H240 H 0.8158 0.26975 0.06103 0.0
H241 H 0.84768 0.31534 0.06952 0.0
H242 H 0.8209 0.37784 0.97093 0.0
H243 H 0.78864 0.33301 0.96218 0.0
C244 C 0.73878 0.14551 0.89842 0.0
C245 C 0.73392 0.16796 0.86602 0.0
C246 C 0.74821 0.16325 0.93131 0.0
C247 C 0.75193 0.20402 0.93251 0.0
C248 C 0.74884 0.22573 0.89934 0.0
C249 C 0.73997 0.20772 0.86619 0.0
C250 C 0.75681 0.22475 0.96841 0.0
C251 C 0.77481 0.25095 0.97371 0.0
C252 C 0.74343 0.21971 0.99693 0.0
C253 C 0.72365 0.19357 0.9929 0.0
C254 C 0.7062 0.19894 0.96366 0.0
C255 C 0.68788 0.17364 0.95971 0.0
C256 C 0.68665 0.14318 0.98514 0.0
C257 C 0.70374 0.13797 0.0146 0.0
C258 C 0.72215 0.16307 0.01857 0.0
C259 C 0.78162 0.35145 0.10084 0.0
C260 C 0.7865 0.33121 0.13449 0.0
C261 C 0.77311 0.33129 0.06879 0.0
C262 C 0.77033 0.29032 0.06973 0.0
C263 C 0.77344 0.27068 0.104 0.0
C264 C 0.7814 0.2911 0.1363 0.0
C265 C 0.76626 0.26759 0.03488 0.0
C266 C 0.74848 0.24098 0.02985 0.0
C267 C 0.77987 0.27212 0.00668 0.0
C268 C 0.79971 0.29817 0.01111 0.0
C269 C 0.81668 0.29326 0.0412 0.0
C270 C 0.8348 0.319 0.04609 0.0
C271 C 0.83629 0.34952 0.02083 0.0
C272 C 0.81971 0.35421 0.9905 0.0
C273 C 0.80151 0.32862 0.98555 0.0
H274 H 0.85029 0.3695 0.02472 0.0
H275 H 0.67242 0.12374 0.98212 0.0
H276 H 0.74769 0.81476 0.35205 0.0
H277 H 0.76416 0.7834 0.4105 0.0
H278 H 0.7115 0.83048 0.46466 0.0
H279 H 0.69492 0.86059 0.40636 0.0
H280 H 0.75274 0.83169 0.51019 0.0
H281 H 0.70519 0.74294 0.43556 0.0
H282 H 0.68954 0.70143 0.38311 0.0
H283 H 0.75185 0.64152 0.38722 0.0
H284 H 0.76801 0.68317 0.43936 0.0
H285 H 0.76873 0.70116 0.66525 0.0
H286 H 0.74874 0.7336 0.6099 0.0
H287 H 0.79605 0.68641 0.54431 0.0
H288 H 0.81569 0.65431 0.59912 0.0
H289 H 0.75502 0.68607 0.50617 0.0
H290 H 0.80235 0.7785 0.58202 0.0
H291 H 0.81447 0.81293 0.64069 0.0
H292 H 0.74953 0.86316 0.63715 0.0
H293 H 0.73692 0.82838 0.57873 0.0
C294 C 0.74014 0.81925 0.37678 0.0
C295 C 0.72014 0.83998 0.3749 0.0
C296 C 0.74938 0.80116 0.41002 0.0
C297 C 0.73888 0.80424 0.44185 0.0
C298 C 0.71986 0.82763 0.44053 0.0
C299 C 0.71046 0.84497 0.40726 0.0
C300 C 0.7465 0.78061 0.47558 0.0
C301 C 0.7531 0.79987 0.50934 0.0
C302 C 0.74687 0.73903 0.47464 0.0
C303 C 0.73788 0.71646 0.44116 0.0
C304 C 0.71569 0.72145 0.42486 0.0
C305 C 0.70668 0.69769 0.39535 0.0
C306 C 0.71963 0.6686 0.38212 0.0
C307 C 0.74179 0.66385 0.39773 0.0
C308 C 0.7509 0.6876 0.42719 0.0
C309 C 0.77428 0.69674 0.63872 0.0
C310 C 0.7936 0.67511 0.6362 0.0
C311 C 0.76307 0.71562 0.60724 0.0
C312 C 0.77115 0.71301 0.57304 0.0
C313 C 0.78952 0.689 0.57029 0.0
C314 C 0.8007 0.67051 0.60158 0.0
C315 C 0.76176 0.73709 0.54049 0.0
C316 C 0.75475 0.71794 0.50694 0.0
C317 C 0.76088 0.77866 0.54174 0.0
C318 C 0.76866 0.80065 0.57614 0.0
C319 C 0.79064 0.7968 0.59382 0.0
C320 C 0.79759 0.81633 0.62707 0.0
C321 C 0.78276 0.84016 0.64272 0.0
C322 C 0.76099 0.84466 0.62502 0.0
C323 C 0.75394 0.82507 0.59183 0.0
H324 H 0.78814 0.85516 0.66853 0.0
H325 H 0.7125 0.64976 0.35974 0.0
H326 H 0.27171 0.80325 0.15264 0.0
H327 H 0.25706 0.76353 0.09847 0.0
H328 H 0.29535 0.83233 0.03074 0.0
H329 H 0.30969 0.87216 0.08408 0.0
H330 H 0.23523 0.77681 0.02604 0.0
H331 H 0.32322 0.76725 0.98063 0.0
H332 H 0.36236 0.77111 0.00924 0.0
H333 H 0.34405 0.7359 0.11383 0.0
H334 H 0.30491 0.7314 0.08576 0.0
H335 H 0.23243 0.74203 0.84094 0.0
H336 H 0.24828 0.76636 0.90172 0.0
H337 H 0.26024 0.64735 0.94035 0.0
H338 H 0.24417 0.62265 0.87896 0.0
H339 H 0.2947 0.71217 0.96797 0.0
H340 H 0.21785 0.67528 0.96218 0.0
H341 H 0.17895 0.67225 0.93201 0.0
H342 H 0.17544 0.7982 0.93112 0.0
H343 H 0.21438 0.80206 0.96093 0.0
C344 C 0.27641 0.81062 0.12593 0.0
C345 C 0.29204 0.84047 0.12264 0.0
C346 C 0.26821 0.78772 0.09514 0.0
C347 C 0.27574 0.79423 0.06099 0.0
C348 C 0.28978 0.82622 0.05707 0.0
C349 C 0.29787 0.84906 0.08756 0.0
C350 C 0.27036 0.76647 0.02984 0.0
C351 C 0.2482 0.76228 0.01367 0.0
C352 C 0.28734 0.74699 0.01403 0.0
C353 C 0.31102 0.74898 0.03104 0.0
C354 C 0.32754 0.76 0.00966 0.0
C355 C 0.34975 0.76242 0.02581 0.0
C356 C 0.3557 0.75378 0.06333 0.0
C357 C 0.33945 0.74263 0.08477 0.0
C358 C 0.31723 0.74013 0.06873 0.0
C359 C 0.23928 0.72109 0.86194 0.0
C360 C 0.23724 0.68054 0.85538 0.0
C361 C 0.24816 0.73499 0.89667 0.0
C362 C 0.25506 0.7086 0.92552 0.0
C363 C 0.25497 0.66808 0.91828 0.0
C364 C 0.24602 0.65404 0.88323 0.0
C365 C 0.25975 0.72392 0.96365 0.0
C366 C 0.28176 0.72594 0.98099 0.0
C367 C 0.24268 0.74119 0.98072 0.0
C368 C 0.21907 0.73896 0.96364 0.0
C369 C 0.20883 0.70234 0.95538 0.0
C370 C 0.18677 0.70046 0.93834 0.0
C371 C 0.17477 0.73498 0.92956 0.0
C372 C 0.18476 0.77148 0.93794 0.0
C373 C 0.2068 0.77353 0.95499 0.0
H374 H 0.15771 0.73345 0.91632 0.0
H375 H 0.37289 0.75573 0.07579 0.0
H376 H 0.31223 0.04066 0.23422 0.0
H377 H 0.28593 0.0937 0.23898 0.0
H378 H 0.23138 0.01452 0.20561 0.0
H379 H 0.2577 0.96122 0.20007 0.0
H380 H 0.22291 0.08462 0.17434 0.0
H381 H 0.24728 0.03764 0.29627 0.0
H382 H 0.27431 0.01857 0.35017 0.0
H383 H 0.29906 0.13689 0.35955 0.0
H384 H 0.27265 0.15646 0.30504 0.0
H385 H 0.17321 0.24233 0.30021 0.0
H386 H 0.18824 0.17708 0.2905 0.0
H387 H 0.21077 0.2185 0.1904 0.0
H388 H 0.19541 0.28311 0.19936 0.0
H389 H 0.22989 0.15899 0.29192 0.0
H390 H 0.21602 0.14549 0.1313 0.0
H391 H 0.18732 0.16193 0.07883 0.0
H392 H 0.13731 0.15889 0.15074 0.0
H393 H 0.16565 0.1419 0.20353 0.0
C394 C 0.29465 0.03448 0.22755 0.0
C395 C 0.28711 0.99649 0.21705 0.0
C396 C 0.2796 0.06487 0.2305 0.0
C397 C 0.25663 0.05797 0.22346 0.0
C398 C 0.24902 0.02053 0.21144 0.0
C399 C 0.26411 0.99006 0.20827 0.0
C400 C 0.24069 0.08972 0.22942 0.0
C401 C 0.22438 0.10081 0.20008 0.0
C402 C 0.24214 0.1102 0.2634 0.0
C403 C 0.25804 0.09847 0.29634 0.0
C404 C 0.2586 0.05954 0.30962 0.0
C405 C 0.27382 0.04864 0.34031 0.0
C406 C 0.28836 0.07653 0.35831 0.0
C407 C 0.28777 0.11533 0.34558 0.0
C408 C 0.2727 0.12633 0.31476 0.0
C409 C 0.18081 0.23724 0.27558 0.0
C410 C 0.18314 0.26813 0.25065 0.0
C411 C 0.18955 0.19995 0.2702 0.0
C412 C 0.20065 0.19267 0.23966 0.0
C413 C 0.20202 0.22297 0.21387 0.0
C414 C 0.19328 0.26012 0.21917 0.0
C415 C 0.2126 0.15488 0.23638 0.0
C416 C 0.22821 0.1426 0.26628 0.0
C417 C 0.21023 0.13293 0.20316 0.0
C418 C 0.19302 0.14268 0.17144 0.0
C419 C 0.19888 0.14811 0.13589 0.0
C420 C 0.18268 0.15758 0.10609 0.0
C421 C 0.16052 0.16154 0.11147 0.0
C422 C 0.1545 0.15594 0.14663 0.0
C423 C 0.17063 0.14645 0.17652 0.0
H424 H 0.148 0.1689 0.08837 0.0
H425 H 0.30006 0.06818 0.38215 0.0
H426 H 0.68954 0.03354 0.26281 0.0
H427 H 0.71475 0.0892 0.25689 0.0
H428 H 0.77091 0.01569 0.29583 0.0
H429 H 0.74593 0.96 0.3008 0.0
H430 H 0.7733 0.08796 0.32998 0.0
H431 H 0.76332 0.03455 0.20976 0.0
H432 H 0.7482 0.01255 0.14702 0.0
H433 H 0.72019 0.12678 0.12175 0.0
H434 H 0.7348 0.14934 0.18461 0.0
H435 H 0.83452 0.23532 0.20758 0.0
H436 H 0.81738 0.17193 0.21816 0.0
H437 H 0.79067 0.22052 0.31143 0.0
H438 H 0.80852 0.28295 0.30218 0.0
H439 H 0.77658 0.15576 0.2105 0.0
H440 H 0.7772 0.15178 0.37019 0.0
H441 H 0.80222 0.16969 0.42684 0.0
H442 H 0.85852 0.15969 0.36876 0.0
H443 H 0.8339 0.1412 0.31191 0.0
C444 C 0.70724 0.02956 0.27069 0.0
C445 C 0.71579 0.99262 0.28273 0.0
C446 C 0.72163 0.06117 0.26685 0.0
C447 C 0.74475 0.05652 0.27566 0.0
C448 C 0.75318 0.01996 0.28879 0.0
C449 C 0.73889 0.98824 0.2918 0.0
C450 C 0.7602 0.08985 0.27207 0.0
C451 C 0.77394 0.10294 0.30388 0.0
C452 C 0.76162 0.10857 0.2378 0.0
C453 C 0.74998 0.09352 0.20213 0.0
C454 C 0.75348 0.05473 0.19119 0.0
C455 C 0.74522 0.04229 0.15544 0.0
C456 C 0.73353 0.06844 0.13028 0.0
C457 C 0.72945 0.1067 0.14117 0.0
C458 C 0.73764 0.11927 0.1769 0.0
C459 C 0.82559 0.23215 0.23105 0.0
C460 C 0.82288 0.26443 0.25389 0.0
C461 C 0.8156 0.19592 0.2369 0.0
C462 C 0.80264 0.19119 0.26561 0.0
C463 C 0.80086 0.22288 0.28949 0.0
C464 C 0.81105 0.25884 0.28399 0.0
C465 C 0.7893 0.15467 0.26855 0.0
C466 C 0.77587 0.14102 0.23669 0.0
C467 C 0.78867 0.13469 0.30251 0.0
C468 C 0.80365 0.14544 0.33669 0.0
C469 C 0.79493 0.15323 0.36954 0.0
C470 C 0.80904 0.16353 0.40168 0.0
C471 C 0.83194 0.16594 0.40137 0.0
C472 C 0.84078 0.15796 0.36893 0.0
C473 C 0.82674 0.14763 0.33672 0.0
H474 H 0.84283 0.17394 0.42627 0.0
H475 H 0.72744 0.05893 0.10244 0.0
H476 H 0.83445 0.73852 0.80824 0.0
H477 H 0.8179 0.80254 0.8172 0.0
H478 H 0.82835 0.83756 0.70734 0.0
H479 H 0.84576 0.77395 0.69897 0.0
H480 H 0.82865 0.90105 0.75002 0.0
H481 H 0.78105 0.79095 0.72056 0.0
H482 H 0.76722 0.72361 0.72796 0.0
H483 H 0.75117 0.75285 0.83521 0.0
H484 H 0.76537 0.82016 0.82886 0.0
H485 H 0.70621 0.97866 0.73935 0.0
H486 H 0.73267 0.92582 0.73483 0.0
H487 H 0.78277 0.98981 0.80644 0.0
H488 H 0.75654 0.04364 0.80975 0.0
H489 H 0.75257 0.87729 0.77946 0.0
H490 H 0.83431 0.96815 0.78806 0.0
H491 H 0.84652 0.03387 0.7703 0.0
H492 H 0.78996 0.04191 0.68576 0.0
H493 H 0.77758 0.97607 0.70268 0.0
C494 C 0.83423 0.76068 0.78679 0.0
C495 C 0.84149 0.75155 0.75307 0.0
C496 C 0.82454 0.79707 0.79171 0.0
C497 C 0.82122 0.82437 0.76248 0.0
C498 C 0.83056 0.81686 0.73016 0.0
C499 C 0.84069 0.78064 0.72551 0.0
C500 C 0.8054 0.85747 0.76364 0.0
C501 C 0.81207 0.89597 0.7567 0.0
C502 C 0.7834 0.85072 0.77076 0.0
C503 C 0.77447 0.81048 0.7744 0.0
C504 C 0.7747 0.78296 0.74582 0.0
C505 C 0.76679 0.7448 0.74982 0.0
C506 C 0.75835 0.73395 0.78202 0.0
C507 C 0.75775 0.76128 0.8103 0.0
C508 C 0.76573 0.79943 0.80654 0.0
C509 C 0.72283 0.98147 0.75426 0.0
C510 C 0.72928 0.01544 0.77484 0.0
C511 C 0.73799 0.95119 0.75163 0.0
C512 C 0.7599 0.95389 0.76984 0.0
C513 C 0.76618 0.98732 0.79133 0.0
C514 C 0.75111 0.01797 0.79347 0.0
C515 C 0.7759 0.92133 0.76678 0.0
C516 C 0.7692 0.88269 0.77311 0.0
C517 C 0.79748 0.92791 0.75754 0.0
C518 C 0.80491 0.96737 0.74694 0.0
C519 C 0.82453 0.98391 0.76561 0.0
C520 C 0.83147 0.02118 0.75569 0.0
C521 C 0.81898 0.04211 0.72701 0.0
C522 C 0.79957 0.02574 0.70807 0.0
C523 C 0.79257 0.98847 0.71785 0.0
H524 H 0.82437 0.07097 0.7194 0.0
H525 H 0.75223 0.70439 0.78504 0.0
H526 H 0.32087 0.98367 0.75455 0.0
H527 H 0.29473 0.92908 0.75251 0.0
H528 H 0.24677 0.9953 0.67866 0.0
H529 H 0.2727 0.05087 0.68171 0.0
H530 H 0.22602 0.95816 0.72591 0.0
H531 H 0.27778 0.91933 0.64716 0.0
H532 H 0.31467 0.90747 0.62885 0.0
H533 H 0.3287 0.822 0.7158 0.0
H534 H 0.29202 0.83375 0.73499 0.0
H535 H 0.2012 0.73131 0.68216 0.0
H536 H 0.21672 0.79528 0.6687 0.0
H537 H 0.2016 0.83916 0.773 0.0
H538 H 0.18488 0.7759 0.78519 0.0
H539 H 0.25147 0.82384 0.70113 0.0
H540 H 0.20338 0.93751 0.77834 0.0
H541 H 0.16495 0.95069 0.78894 0.0
H542 H 0.13998 0.88802 0.68992 0.0
H543 H 0.17824 0.8749 0.67844 0.0
C544 C 0.30481 0.98665 0.73769 0.0
C545 C 0.29898 0.02159 0.71801 0.0
C546 C 0.28985 0.95528 0.73648 0.0
C547 C 0.26884 0.95761 0.71487 0.0
C548 C 0.26286 0.99263 0.69547 0.0
C549 C 0.27775 0.02434 0.6971 0.0
C550 C 0.2533 0.92336 0.71261 0.0
C551 C 0.23153 0.92878 0.72032 0.0
C552 C 0.26018 0.88509 0.70429 0.0
C553 C 0.2822 0.87763 0.69267 0.0
C554 C 0.28879 0.89817 0.66252 0.0
C555 C 0.30965 0.89145 0.65197 0.0
C556 C 0.32403 0.86405 0.67119 0.0
C557 C 0.31755 0.84323 0.70095 0.0
C558 C 0.29671 0.84988 0.71165 0.0
C559 C 0.20028 0.75528 0.70132 0.0
C560 C 0.19147 0.74896 0.73434 0.0
C561 C 0.20942 0.79173 0.69389 0.0
C562 C 0.2105 0.8224 0.71979 0.0
C563 C 0.20062 0.8166 0.75203 0.0
C564 C 0.19096 0.78037 0.759 0.0
C565 C 0.22415 0.85827 0.71512 0.0
C566 C 0.24572 0.85316 0.70628 0.0
C567 C 0.21679 0.89689 0.72123 0.0
C568 C 0.1937 0.90495 0.72772 0.0
C569 C 0.18969 0.92669 0.75873 0.0
C570 C 0.16794 0.93412 0.76491 0.0
C571 C 0.15004 0.92011 0.74017 0.0
C572 C 0.15386 0.89874 0.70913 0.0
C573 C 0.17558 0.89125 0.70281 0.0
H574 H 0.13321 0.92587 0.74502 0.0
H575 H 0.34018 0.8589 0.66299 0.0
H576 H 0.75726 0.44993 0.23199 0.0
H577 H 0.73135 0.50468 0.23278 0.0
H578 H 0.78186 0.58509 0.2063 0.0
H579 H 0.80808 0.53072 0.2076 0.0
H580 H 0.7647 0.61466 0.25777 0.0
H581 H 0.73291 0.55579 0.14344 0.0
H582 H 0.71686 0.50256 0.10241 0.0
H583 H 0.66345 0.48954 0.16674 0.0
H584 H 0.67934 0.54237 0.20847 0.0
H585 H 0.70431 0.78236 0.20636 0.0
H586 H 0.71908 0.71791 0.19446 0.0
H587 H 0.67693 0.66432 0.26602 0.0
H588 H 0.66215 0.72947 0.2786 0.0
H589 H 0.68694 0.61892 0.19477 0.0
H590 H 0.72006 0.6857 0.30546 0.0
H591 H 0.73781 0.74033 0.34254 0.0
H592 H 0.79105 0.74158 0.27699 0.0
H593 H 0.77339 0.68716 0.23921 0.0
C594 C 0.76271 0.47927 0.22594 0.0
C595 C 0.78472 0.48611 0.21987 0.0
C596 C 0.74783 0.51059 0.22619 0.0
C597 C 0.75447 0.54923 0.21928 0.0
C598 C 0.77628 0.55572 0.21197 0.0
C599 C 0.79127 0.52461 0.21261 0.0
C600 C 0.73939 0.58335 0.22203 0.0
C601 C 0.74782 0.61559 0.24348 0.0
C602 C 0.71706 0.58446 0.20437 0.0
C603 C 0.70745 0.55274 0.17931 0.0
C604 C 0.71783 0.54137 0.149 0.0
C605 C 0.70875 0.51131 0.12559 0.0
C606 C 0.68919 0.4926 0.13203 0.0
C607 C 0.67863 0.50401 0.16183 0.0
C608 C 0.68765 0.53403 0.18535 0.0
C609 C 0.69762 0.75674 0.21868 0.0
C610 C 0.68226 0.76097 0.24374 0.0
C611 C 0.70608 0.71993 0.21179 0.0
C612 C 0.69933 0.6865 0.22974 0.0
C613 C 0.6823 0.68988 0.25186 0.0
C614 C 0.67382 0.72704 0.25895 0.0
C615 C 0.71261 0.65002 0.22965 0.0
C616 C 0.70384 0.61756 0.20895 0.0
C617 C 0.73489 0.64896 0.2472 0.0
C618 C 0.74527 0.68242 0.26938 0.0
C619 C 0.73541 0.69784 0.29873 0.0
C620 C 0.74549 0.72877 0.31992 0.0
C621 C 0.76556 0.74446 0.31213 0.0
C622 C 0.77551 0.72938 0.28302 0.0
C623 C 0.76546 0.69846 0.26173 0.0
H624 H 0.77346 0.76821 0.32871 0.0
H625 H 0.68218 0.46933 0.11387 0.0
H626 H 0.34355 0.74048 0.2173 0.0
H627 H 0.32896 0.67491 0.2289 0.0
H628 H 0.27933 0.72787 0.28644 0.0
H629 H 0.29468 0.79207 0.27749 0.0
H630 H 0.28957 0.66763 0.32022 0.0
H631 H 0.27099 0.69193 0.18844 0.0
H632 H 0.27757 0.70429 0.12433 0.0
H633 H 0.31761 0.60032 0.12743 0.0
H634 H 0.31123 0.5873 0.19162 0.0
H635 H 0.1963 0.5387 0.27685 0.0
H636 H 0.22289 0.59277 0.27576 0.0
H637 H 0.2759 0.50939 0.27379 0.0
H638 H 0.24948 0.45502 0.27587 0.0
H639 H 0.26976 0.57609 0.21547 0.0
H640 H 0.27909 0.54946 0.34705 0.0
H641 H 0.26474 0.53827 0.40598 0.0
H642 H 0.23477 0.65268 0.39811 0.0
H643 H 0.24862 0.66426 0.33871 0.0
C644 C 0.3298 0.73789 0.23302 0.0
C645 C 0.3204 0.77166 0.24651 0.0
C646 C 0.32125 0.70039 0.23927 0.0
C647 C 0.30265 0.69607 0.25802 0.0
C648 C 0.29372 0.72986 0.27213 0.0
C649 C 0.30258 0.7669 0.26686 0.0
C650 C 0.29182 0.65711 0.26258 0.0
C651 C 0.28524 0.64788 0.29708 0.0
C652 C 0.28637 0.63038 0.23292 0.0
C653 C 0.29089 0.63896 0.19493 0.0
C654 C 0.28138 0.67195 0.17555 0.0
C655 C 0.28502 0.679 0.13917 0.0
C656 C 0.29808 0.65321 0.12185 0.0
C657 C 0.30755 0.62032 0.1409 0.0
C658 C 0.3039 0.61305 0.17725 0.0
C659 C 0.21365 0.53187 0.27654 0.0
C660 C 0.2208 0.49262 0.27654 0.0
C661 C 0.2288 0.56276 0.2759 0.0
C662 C 0.25132 0.555 0.27461 0.0
C663 C 0.25858 0.51591 0.27476 0.0
C664 C 0.2435 0.48494 0.27619 0.0
C665 C 0.26704 0.58803 0.27236 0.0
C666 C 0.27452 0.59582 0.23851 0.0
C667 C 0.27263 0.61417 0.30213 0.0
C668 C 0.26478 0.60761 0.33831 0.0
C669 C 0.26932 0.57213 0.35776 0.0
C670 C 0.26128 0.56573 0.39128 0.0
C671 C 0.24881 0.59474 0.40578 0.0
C672 C 0.24443 0.63024 0.38684 0.0
C673 C 0.25239 0.63675 0.35327 0.0
H674 H 0.24256 0.58979 0.4317 0.0
H675 H 0.30078 0.65856 0.09361 0.0
H676 H 0.33476 0.27347 0.69549 0.0
H677 H 0.31613 0.3348 0.70751 0.0
H678 H 0.30676 0.29171 0.8154 0.0
H679 H 0.32546 0.23055 0.80374 0.0
H680 H 0.27337 0.34193 0.71857 0.0
H681 H 0.30416 0.37008 0.87356 0.0
H682 H 0.33795 0.36074 0.91872 0.0
H683 H 0.37802 0.36497 0.83105 0.0
H684 H 0.34452 0.37488 0.78544 0.0
H685 H 0.20039 0.47592 0.79033 0.0
H686 H 0.22446 0.4182 0.78898 0.0
H687 H 0.28023 0.49415 0.7797 0.0
H688 H 0.25634 0.55165 0.78051 0.0
H689 H 0.29129 0.42926 0.82718 0.0
H690 H 0.2544 0.45882 0.70455 0.0
H691 H 0.22178 0.47109 0.65765 0.0
H692 H 0.19668 0.35582 0.6765 0.0
H693 H 0.22898 0.34314 0.72403 0.0
C694 C 0.32931 0.27744 0.72219 0.0
C695 C 0.33166 0.24701 0.74865 0.0
C696 C 0.31843 0.31241 0.72887 0.0
C697 C 0.30994 0.31792 0.76232 0.0
C698 C 0.31328 0.28839 0.7895 0.0
C699 C 0.32401 0.25337 0.78276 0.0
C700 C 0.29639 0.35329 0.7679 0.0
C701 C 0.27734 0.36096 0.74235 0.0
C702 C 0.30149 0.37833 0.79884 0.0
C703 C 0.32179 0.37281 0.82606 0.0
C704 C 0.32019 0.36916 0.86394 0.0
C705 C 0.33929 0.36374 0.88962 0.0
C706 C 0.36011 0.36213 0.87775 0.0
C707 C 0.36188 0.36606 0.84019 0.0
C708 C 0.34283 0.37151 0.81441 0.0
C709 C 0.21786 0.48029 0.7887 0.0
C710 C 0.22641 0.51834 0.78517 0.0
C711 C 0.23157 0.44731 0.78778 0.0
C712 C 0.25411 0.45188 0.78388 0.0
C713 C 0.26292 0.4899 0.78268 0.0
C714 C 0.2492 0.52273 0.783 0.0
C715 C 0.2682 0.41738 0.77817 0.0
C716 C 0.2873 0.40995 0.80361 0.0
C717 C 0.2633 0.39277 0.74693 0.0
C718 C 0.24397 0.40021 0.71815 0.0
C719 C 0.24182 0.43622 0.69894 0.0
C720 C 0.22341 0.44323 0.6722 0.0
C721 C 0.20714 0.41429 0.66417 0.0
C722 C 0.20928 0.37824 0.6828 0.0
C723 C 0.22763 0.37113 0.70964 0.0
H724 H 0.1929 0.41977 0.64345 0.0
H725 H 0.37487 0.35792 0.89767 0.0
H726 H 0.77266 0.5545 0.73857 0.0
H727 H 0.74765 0.49853 0.73928 0.0
H728 H 0.79807 0.42197 0.70769 0.0
H729 H 0.82307 0.47825 0.70589 0.0
H730 H 0.75862 0.40346 0.67106 0.0
H731 H 0.78498 0.43055 0.8032 0.0
H732 H 0.78917 0.47199 0.8592 0.0
H733 H 0.71896 0.49192 0.84505 0.0
H734 H 0.71422 0.4504 0.78928 0.0
H735 H 0.72531 0.2166 0.72027 0.0
H736 H 0.74216 0.27943 0.71034 0.0
H737 H 0.69167 0.33811 0.76168 0.0
H738 H 0.67564 0.274 0.7745 0.0
H739 H 0.72662 0.37111 0.78501 0.0
H740 H 0.69716 0.3414 0.66171 0.0
H741 H 0.68854 0.30271 0.60455 0.0
H742 H 0.758 0.29457 0.59586 0.0
H743 H 0.76709 0.3327 0.65326 0.0
C744 C 0.77848 0.52579 0.73164 0.0
C745 C 0.80003 0.52094 0.72248 0.0
C746 C 0.76415 0.49366 0.73235 0.0
C747 C 0.77108 0.45568 0.72452 0.0
C748 C 0.79234 0.45088 0.7142 0.0
C749 C 0.80665 0.48313 0.71315 0.0
C750 C 0.75625 0.42094 0.72685 0.0
C751 C 0.75182 0.39608 0.69611 0.0
C752 C 0.74622 0.4124 0.75873 0.0
C753 C 0.74929 0.43774 0.79192 0.0
C754 C 0.77047 0.44401 0.81191 0.0
C755 C 0.77295 0.46742 0.84361 0.0
C756 C 0.75443 0.48478 0.85547 0.0
C757 C 0.73331 0.47856 0.83579 0.0
C758 C 0.7307 0.455 0.80424 0.0
C759 C 0.71744 0.24284 0.72893 0.0
C760 C 0.69888 0.24019 0.74785 0.0
C761 C 0.72709 0.27909 0.72291 0.0
C762 C 0.718 0.31416 0.73422 0.0
C763 C 0.69908 0.31171 0.75242 0.0
C764 C 0.68978 0.27507 0.75956 0.0
C765 C 0.72937 0.35264 0.72946 0.0
C766 C 0.73317 0.37835 0.7597 0.0
C767 C 0.73816 0.36266 0.69662 0.0
C768 C 0.7328 0.33971 0.662 0.0
C769 C 0.71061 0.33113 0.64776 0.0
C770 C 0.70564 0.30932 0.61529 0.0
C771 C 0.72271 0.29613 0.59663 0.0
C772 C 0.7448 0.30479 0.61036 0.0
C773 C 0.74986 0.32655 0.64284 0.0
H774 H 0.71883 0.27924 0.5715 0.0
H775 H 0.75643 0.5029 0.87999 0.0
H776 H 0.09056 0.44429 0.24328 0.0
H777 H 0.05035 0.43759 0.23879 0.0
H778 H 0.05708 0.31214 0.25255 0.0
H779 H 0.09754 0.31848 0.25724 0.0
H780 H 0.0206 0.33552 0.19863 0.0
H781 H 0.05047 0.36245 0.3248 0.0
H782 H 0.07345 0.39891 0.37449 0.0
H783 H 0.03576 0.50358 0.34455 0.0
H784 H 0.0128 0.46791 0.29422 0.0
H785 H 0.90875 0.31498 0.23492 0.0
H786 H 0.94929 0.30996 0.24115 0.0
H787 H 0.9546 0.43627 0.24713 0.0
H788 H 0.91442 0.44145 0.24207 0.0
H789 H 0.9858 0.40586 0.2943 0.0
H790 H 0.95823 0.38262 0.16584 0.0
H791 H 0.93586 0.34889 0.11364 0.0
H792 H 0.96917 0.24033 0.14551 0.0
H793 H 0.99154 0.27335 0.19823 0.0
C794 C 0.08357 0.41513 0.24487 0.0
C795 C 0.0974 0.38196 0.25102 0.0
C796 C 0.06053 0.4114 0.2424 0.0
C797 C 0.05073 0.37444 0.24591 0.0
C798 C 0.06431 0.34096 0.24994 0.0
C799 C 0.08744 0.34468 0.25266 0.0
C800 C 0.02648 0.37136 0.24743 0.0
C801 C 0.01299 0.35034 0.21986 0.0
C802 C 0.01653 0.39122 0.27481 0.0
C803 C 0.03003 0.41256 0.30554 0.0
C804 C 0.04717 0.39331 0.32865 0.0
C805 C 0.06019 0.41383 0.35694 0.0
C806 C 0.05609 0.45356 0.36263 0.0
C807 C 0.03892 0.47281 0.34009 0.0
C808 C 0.02589 0.45245 0.31169 0.0
C809 C 0.91857 0.34165 0.23794 0.0
C810 C 0.90823 0.37863 0.23774 0.0
C811 C 0.94177 0.33876 0.24124 0.0
C812 C 0.95509 0.37279 0.24396 0.0
C813 C 0.94479 0.40955 0.245 0.0
C814 C 0.92171 0.41245 0.242 0.0
C815 C 0.97968 0.37065 0.245 0.0
C816 C 0.99333 0.39068 0.27318 0.0
C817 C 0.98972 0.35018 0.21796 0.0
C818 C 0.97637 0.33034 0.18621 0.0
C819 C 0.96066 0.35149 0.16187 0.0
C820 C 0.948 0.33252 0.13217 0.0
C821 C 0.95104 0.29247 0.12632 0.0
C822 C 0.9668 0.27134 0.15011 0.0
C823 C 0.97948 0.29017 0.1799 0.0
H824 H 0.94123 0.27782 0.10331 0.0
H825 H 0.0662 0.4694 0.38453 0.0
H826 H 0.10798 0.66351 0.81446 0.0
H827 H 0.06745 0.66338 0.80793 0.0
H828 H 0.06422 0.61084 0.70021 0.0
H829 H 0.10502 0.60975 0.70689 0.0
H830 H 0.03419 0.68607 0.71521 0.0
H831 H 0.05492 0.55064 0.75131 0.0
H832 H 0.07683 0.50291 0.79234 0.0
H833 H 0.05027 0.54966 0.88583 0.0
H834 H 0.02848 0.59811 0.84539 0.0
H835 H 0.92154 0.63778 0.67645 0.0
H836 H 0.96186 0.63916 0.68334 0.0
H837 H 0.96493 0.62639 0.80161 0.0
H838 H 0.92419 0.62216 0.79428 0.0
H839 H 0.99612 0.58647 0.78366 0.0
H840 H 0.97482 0.71813 0.7545 0.0
H841 H 0.95464 0.77291 0.72054 0.0
H842 H 0.98332 0.74365 0.62338 0.0
H843 H 1.00345 0.68835 0.65661 0.0
C844 C 0.09872 0.65224 0.78916 0.0
C845 C 0.10977 0.63665 0.76113 0.0
C846 C 0.07554 0.65209 0.78559 0.0
C847 C 0.0629 0.63702 0.75369 0.0
C848 C 0.07375 0.62259 0.72507 0.0
C849 C 0.09702 0.62194 0.72894 0.0
C850 C 0.03835 0.6355 0.75089 0.0
C851 C 0.02574 0.66398 0.72961 0.0
C852 C 0.02756 0.60792 0.77128 0.0
C853 C 0.04026 0.57823 0.7954 0.0
C854 C 0.05391 0.55095 0.78066 0.0
C855 C 0.06627 0.52373 0.8038 0.0
C856 C 0.065 0.52333 0.84169 0.0
C857 C 0.05127 0.55004 0.85649 0.0
C858 C 0.03889 0.57735 0.83347 0.0
C859 C 0.93078 0.63546 0.70399 0.0
C860 C 0.91969 0.63039 0.73491 0.0
C861 C 0.95393 0.63652 0.70796 0.0
C862 C 0.96668 0.63415 0.74313 0.0
C863 C 0.9556 0.62858 0.77414 0.0
C864 C 0.93232 0.62631 0.77002 0.0
C865 C 0.99147 0.63672 0.74711 0.0
C866 C 1.0043 0.60864 0.76895 0.0
C867 C 1.00253 0.66555 0.72808 0.0
C868 C 0.99049 0.69887 0.70797 0.0
C869 C 0.97671 0.72321 0.72582 0.0
C870 C 0.96529 0.75438 0.70671 0.0
C871 C 0.96765 0.7617 0.6698 0.0
C872 C 0.98149 0.73792 0.65196 0.0
C873 C 0.99292 0.70668 0.67093 0.0
H874 H 0.9588 0.78584 0.65506 0.0
H875 H 0.0746 0.50226 0.85957 0.0
H876 H 0.40943 0.81977 0.24678 0.0
H877 H 0.44992 0.81295 0.25063 0.0
H878 H 0.45615 0.93822 0.23746 0.0
H879 H 0.4161 0.94548 0.23438 0.0
H880 H 0.47841 0.89126 0.18816 0.0
H881 H 0.47113 0.90383 0.31796 0.0
H882 H 0.45673 0.88487 0.37531 0.0
H883 H 0.48499 0.76986 0.37024 0.0
H884 H 0.49929 0.78799 0.31251 0.0
H885 H 0.59345 0.93136 0.23172 0.0
H886 H 0.55297 0.92811 0.2243 0.0
H887 H 0.55658 0.81002 0.26833 0.0
H888 H 0.59708 0.81383 0.27726 0.0
H889 H 0.52847 0.84726 0.29977 0.0
H890 H 0.53806 0.83347 0.17344 0.0
H891 H 0.55196 0.8493 0.11491 0.0
H892 H 0.51891 0.96091 0.11049 0.0
H893 H 0.50508 0.94601 0.1693 0.0
C894 C 0.41946 0.84588 0.24519 0.0
C895 C 0.40945 0.88315 0.24033 0.0
C896 C 0.44257 0.84193 0.2473 0.0
C897 C 0.456 0.87509 0.24409 0.0
C898 C 0.44609 0.91225 0.2398 0.0
C899 C 0.42315 0.91631 0.23831 0.0
C900 C 0.48036 0.87139 0.2445 0.0
C901 C 0.48944 0.88191 0.2126 0.0
C902 C 0.4946 0.85798 0.27599 0.0
C903 C 0.48603 0.8471 0.31068 0.0
C904 C 0.47408 0.87437 0.32887 0.0
C905 C 0.46598 0.8638 0.36149 0.0
C906 C 0.46988 0.82614 0.37635 0.0
C907 C 0.48194 0.799 0.35866 0.0
C908 C 0.49005 0.80941 0.326 0.0
C909 C 0.58563 0.90443 0.23919 0.0
C910 C 0.59853 0.87286 0.25508 0.0
C911 C 0.56241 0.90253 0.23486 0.0
C912 C 0.55153 0.86865 0.24544 0.0
C913 C 0.56445 0.83657 0.26007 0.0
C914 C 0.58765 0.83871 0.26498 0.0
C915 C 0.52682 0.86754 0.24337 0.0
C916 C 0.51759 0.85618 0.27503 0.0
C917 C 0.5124 0.87962 0.21138 0.0
C918 C 0.52069 0.88874 0.17598 0.0
C919 C 0.53389 0.86152 0.16015 0.0
C920 C 0.54174 0.87031 0.12689 0.0
C921 C 0.53637 0.90613 0.10904 0.0
C922 C 0.52309 0.9332 0.12437 0.0
C923 C 0.51522 0.92458 0.15765 0.0
H924 H 0.54246 0.91288 0.0833 0.0
H925 H 0.4636 0.81802 0.40161 0.0
H926 H 0.60158 0.07392 0.75349 0.0
H927 H 0.56155 0.08332 0.74401 0.0
H928 H 0.57068 0.20774 0.76251 0.0
H929 H 0.61108 0.19846 0.77274 0.0
H930 H 0.53877 0.17996 0.79946 0.0
H931 H 0.55357 0.17284 0.67578 0.0
H932 H 0.56971 0.14656 0.62274 0.0
H933 H 0.5331 0.03925 0.6286 0.0
H934 H 0.51701 0.0646 0.68207 0.0
H935 H 0.41994 0.20205 0.73806 0.0
H936 H 0.46048 0.2095 0.74352 0.0
H937 H 0.4676 0.0836 0.74088 0.0
H938 H 0.42752 0.07581 0.73593 0.0
H939 H 0.4911 0.12318 0.69106 0.0
H940 H 0.48011 0.12969 0.8199 0.0
H941 H 0.46427 0.15738 0.87265 0.0
H942 H 0.49365 0.2694 0.85463 0.0
H943 H 0.50943 0.24247 0.8014 0.0
C944 C 0.59518 0.10341 0.75535 0.0
C945 C 0.60966 0.13543 0.76389 0.0
C946 C 0.5722 0.10877 0.74973 0.0
C947 C 0.563 0.14632 0.7521 0.0
C948 C 0.57735 0.17849 0.76044 0.0
C949 C 0.60046 0.17314 0.76611 0.0
C950 C 0.53839 0.15128 0.74689 0.0
C951 C 0.52837 0.1683 0.77536 0.0
C952 C 0.52471 0.13587 0.71559 0.0
C953 C 0.53419 0.12056 0.68316 0.0
C954 C 0.54907 0.14353 0.66594 0.0
C955 C 0.5582 0.12881 0.63577 0.0
C956 C 0.55247 0.09123 0.62237 0.0
C957 C 0.53754 0.06835 0.63903 0.0
C958 C 0.52838 0.0829 0.66925 0.0
C959 C 0.43017 0.17596 0.73903 0.0
C960 C 0.42037 0.13834 0.73649 0.0
C961 C 0.45333 0.18028 0.74211 0.0
C962 C 0.46707 0.14708 0.74241 0.0
C963 C 0.45734 0.10963 0.74047 0.0
C964 C 0.43435 0.10527 0.73783 0.0
C965 C 0.49158 0.15078 0.74406 0.0
C966 C 0.50155 0.13542 0.71483 0.0
C967 C 0.50516 0.16807 0.77442 0.0
C968 C 0.4957 0.18422 0.8064 0.0
C969 C 0.48301 0.16033 0.82696 0.0
C970 C 0.47408 0.17586 0.857 0.0
C971 C 0.47788 0.21516 0.86691 0.0
C972 C 0.49068 0.23898 0.84686 0.0
C973 C 0.49963 0.2236 0.81678 0.0
H974 H 0.47096 0.22713 0.89018 0.0
H975 H 0.55958 0.07986 0.59905 0.0
H976 H 0.19909 0.60941 0.90836 0.0
H977 H 0.19932 0.57444 0.96731 0.0
H978 H 0.13725 0.51858 0.92505 0.0
H979 H 0.13714 0.55272 0.86577 0.0
H980 H 0.14275 0.55415 0.00269 0.0
H981 H 0.17569 0.46498 0.92237 0.0
H982 H 0.20242 0.44946 0.87974 0.0
H983 H 0.25662 0.47508 0.96502 0.0
H984 H 0.23017 0.49153 0.00795 0.0
H985 H 0.13827 0.41626 0.14371 0.0
H986 H 0.13714 0.44332 0.08134 0.0
H987 H 0.20762 0.46586 0.1028 0.0
H988 H 0.20899 0.43706 0.16444 0.0
H989 H 0.1976 0.44714 0.03414 0.0
H990 H 0.16782 0.5378 0.11387 0.0
H991 H 0.14331 0.56015 0.15786 0.0
H992 H 0.08614 0.5394 0.07688 0.0
H993 H 0.11031 0.51639 0.03256 0.0
C994 C 0.18536 0.59005 0.91187 0.0
C995 C 0.16809 0.5837 0.88265 0.0
C996 C 0.18557 0.57005 0.94538 0.0
C997 C 0.16835 0.54392 0.95024 0.0
C998 C 0.15066 0.53867 0.92164 0.0
C999 C 0.15066 0.55804 0.88788 0.0
C1000 C 0.16921 0.52088 0.98472 0.0
C1001 C 0.15449 0.53036 0.00946 0.0
C1002 C 0.18503 0.49078 0.99373 0.0
C1003 C 0.20094 0.47986 0.96826 0.0
C1004 C 0.1933 0.46761 0.93195 0.0
C1005 C 0.2084 0.45861 0.90773 0.0
C1006 C 0.2312 0.46138 0.91963 0.0
C1007 C 0.23895 0.473 0.95582 0.0
C1008 C 0.22391 0.48215 0.98011 0.0
C1009 C 0.15358 0.42627 0.13479 0.0
C1010 C 0.17367 0.42487 0.15899 0.0
C1011 C 0.1529 0.44199 0.09927 0.0
C1012 C 0.17218 0.45772 0.08773 0.0
C1013 C 0.1925 0.45414 0.11109 0.0
C1014 C 0.19327 0.43764 0.14634 0.0
C1015 C 0.17095 0.48007 0.05246 0.0
C1016 C 0.1857 0.47069 0.0275 0.0
C1017 C 0.15543 0.51092 0.04357 0.0
C1018 C 0.14086 0.52499 0.07004 0.0
C1019 C 0.15001 0.53776 0.10553 0.0
C1020 C 0.13618 0.55057 0.13051 0.0
C1021 C 0.11318 0.55109 0.1202 0.0
C1022 C 0.10396 0.53891 0.08484 0.0
C1023 C 0.11771 0.526 0.05978 0.0
H1024 H 0.1025 0.56101 0.13958 0.0
H1025 H 0.24286 0.45444 0.90083 0.0
H1026 H 0.80503 0.42472 0.34323 0.0
H1027 H 0.81094 0.44845 0.40692 0.0
H1028 H 0.88183 0.44291 0.40755 0.0
H1029 H 0.87605 0.42043 0.34349 0.0
H1030 H 0.83064 0.42641 0.4733 0.0
H1031 H 0.90566 0.52299 0.44944 0.0
H1032 H 0.92109 0.5549 0.39783 0.0
H1033 H 0.85588 0.56097 0.33522 0.0
H1034 H 0.84006 0.52961 0.38662 0.0
H1035 H 0.87273 0.51641 0.64398 0.0
H1036 H 0.87103 0.48064 0.58579 0.0
H1037 H 0.8455 0.58413 0.52571 0.0
H1038 H 0.84788 0.62043 0.58342 0.0
H1039 H 0.8746 0.54969 0.4907 0.0
H1040 H 0.81129 0.50954 0.54611 0.0
H1041 H 0.79207 0.48308 0.59597 0.0
H1042 H 0.82621 0.37329 0.59174 0.0
H1043 H 0.84595 0.39936 0.54228 0.0
C1044 C 0.82187 0.42798 0.35713 0.0
C1045 C 0.84008 0.42146 0.33821 0.0
C1046 C 0.82522 0.4414 0.39357 0.0
C1047 C 0.84681 0.44817 0.41167 0.0
C1048 C 0.86502 0.43868 0.39378 0.0
C1049 C 0.8617 0.42585 0.35721 0.0
C1050 C 0.85019 0.4686 0.44773 0.0
C1051 C 0.84037 0.45321 0.47724 0.0
C1052 C 0.86245 0.50408 0.45255 0.0
C1053 C 0.87175 0.52356 0.42171 0.0
C1054 C 0.89463 0.53128 0.4247 0.0
C1055 C 0.90343 0.54925 0.39548 0.0
C1056 C 0.88948 0.55983 0.36321 0.0
C1057 C 0.86668 0.55263 0.36016 0.0
C1058 C 0.85779 0.53474 0.38932 0.0
C1059 C 0.86697 0.53169 0.61835 0.0
C1060 C 0.86019 0.57119 0.61838 0.0
C1061 C 0.86589 0.51112 0.58517 0.0
C1062 C 0.85779 0.52956 0.55154 0.0
C1063 C 0.85172 0.56929 0.55139 0.0
C1064 C 0.85295 0.58995 0.58447 0.0
C1065 C 0.85516 0.50747 0.51641 0.0
C1066 C 0.86511 0.5226 0.487 0.0
C1067 C 0.84241 0.47253 0.51142 0.0
C1068 C 0.83029 0.45655 0.54075 0.0
C1069 C 0.81482 0.47984 0.55598 0.0
C1070 C 0.80382 0.46492 0.58416 0.0
C1071 C 0.80796 0.42657 0.59709 0.0
C1072 C 0.82305 0.40302 0.58175 0.0
C1073 C 0.83415 0.41785 0.55364 0.0
H1074 H 0.79943 0.41507 0.61893 0.0
H1075 H 0.89634 0.57368 0.34061 0.0
H1076 H 0.88069 0.56099 0.8365 0.0
H1077 H 0.88404 0.53665 0.89999 0.0
H1078 H 0.82477 0.59979 0.91592 0.0
H1079 H 0.82158 0.62508 0.85235 0.0
H1080 H 0.85674 0.5996 0.97841 0.0
H1081 H 0.82383 0.50678 0.88647 0.0
H1082 H 0.82388 0.46562 0.83107 0.0
H1083 H 0.87925 0.4002 0.88595 0.0
H1084 H 0.88023 0.44205 0.94104 0.0
H1085 H 0.8257 0.49285 0.12829 0.0
H1086 H 0.82713 0.52516 0.06901 0.0
H1087 H 0.87833 0.44478 0.04664 0.0
H1088 H 0.87609 0.41096 0.10529 0.0
H1089 H 0.85185 0.45436 0.98744 0.0
H1090 H 0.88867 0.54483 0.07492 0.0
H1091 H 0.89362 0.5868 0.13034 0.0
H1092 H 0.83667 0.65489 0.08576 0.0
H1093 H 0.8312 0.61299 0.03026 0.0
C1094 C 0.86857 0.57027 0.85372 0.0
C1095 C 0.85066 0.59443 0.83934 0.0
C1096 C 0.87051 0.55631 0.88997 0.0
C1097 C 0.85435 0.56562 0.91229 0.0
C1098 C 0.83733 0.59204 0.89897 0.0
C1099 C 0.83552 0.60646 0.8627 0.0
C1100 C 0.85418 0.54528 0.94822 0.0
C1101 C 0.85546 0.56788 0.98043 0.0
C1102 C 0.85326 0.50372 0.95083 0.0
C1103 C 0.85222 0.47791 0.91786 0.0
C1104 C 0.83614 0.48385 0.88666 0.0
C1105 C 0.836 0.46041 0.85527 0.0
C1106 C 0.8515 0.43026 0.85505 0.0
C1107 C 0.86725 0.42357 0.88615 0.0
C1108 C 0.86766 0.44726 0.91741 0.0
C1109 C 0.83735 0.48217 0.11081 0.0
C1110 C 0.85098 0.44967 0.1216 0.0
C1111 C 0.83824 0.50083 0.07697 0.0
C1112 C 0.85325 0.48816 0.05364 0.0
C1113 C 0.86671 0.45533 0.06421 0.0
C1114 C 0.86547 0.43607 0.09777 0.0
C1115 C 0.85453 0.50863 0.01793 0.0
C1116 C 0.85331 0.48607 0.98563 0.0
C1117 C 0.85612 0.55011 0.01533 0.0
C1118 C 0.85942 0.57555 0.04857 0.0
C1119 C 0.87712 0.5686 0.07704 0.0
C1120 C 0.88003 0.59239 0.10846 0.0
C1121 C 0.86544 0.62343 0.11161 0.0
C1122 C 0.84794 0.63081 0.0833 0.0
C1123 C 0.84495 0.60708 0.05183 0.0
H1124 H 0.86771 0.64182 0.13596 0.0
H1125 H 0.8513 0.41208 0.83078 0.0
H1126 H 0.17295 0.5082 0.35525 0.0
H1127 H 0.17656 0.53811 0.41633 0.0
H1128 H 0.13642 0.44577 0.45384 0.0
H1129 H 0.13278 0.41524 0.39259 0.0
H1130 H 0.12564 0.52096 0.47708 0.0
H1131 H 0.18974 0.44062 0.47432 0.0
H1132 H 0.22368 0.4158 0.45282 0.0
H1133 H 0.25431 0.52903 0.47052 0.0
H1134 H 0.2203 0.55513 0.49087 0.0
H1135 H 0.15493 0.53745 0.67028 0.0
H1136 H 0.14849 0.51606 0.60626 0.0
H1137 H 0.19213 0.60721 0.5765 0.0
H1138 H 0.19897 0.62881 0.64114 0.0
H1139 H 0.20097 0.53565 0.54817 0.0
H1140 H 0.1368 0.61553 0.55209 0.0
H1141 H 0.10361 0.63868 0.57717 0.0
H1142 H 0.07382 0.5245 0.5602 0.0
H1143 H 0.10698 0.50047 0.53553 0.0
C1144 C 0.16461 0.49441 0.37627 0.0
C1145 C 0.15257 0.45923 0.36903 0.0
C1146 C 0.16683 0.51148 0.41124 0.0
C1147 C 0.15699 0.49389 0.43966 0.0
C1148 C 0.1442 0.45969 0.43223 0.0
C1149 C 0.14214 0.4423 0.39726 0.0
C1150 C 0.16056 0.51077 0.47733 0.0
C1151 C 0.14208 0.52385 0.4928 0.0
C1152 C 0.1821 0.5153 0.49738 0.0
C1153 C 0.20226 0.50005 0.48358 0.0
C1154 C 0.20351 0.46051 0.47291 0.0
C1155 C 0.22278 0.44619 0.46092 0.0
C1156 C 0.24102 0.47093 0.45984 0.0
C1157 C 0.24006 0.51005 0.47087 0.0
C1158 C 0.22078 0.52465 0.48258 0.0
C1159 C 0.16313 0.55323 0.65022 0.0
C1160 C 0.17753 0.58488 0.66094 0.0
C1161 C 0.1593 0.54103 0.61351 0.0
C1162 C 0.16962 0.5603 0.58655 0.0
C1163 C 0.18393 0.59204 0.59694 0.0
C1164 C 0.18777 0.6044 0.63382 0.0
C1165 C 0.16608 0.54599 0.54788 0.0
C1166 C 0.18455 0.53321 0.53226 0.0
C1167 C 0.14455 0.54165 0.52774 0.0
C1168 C 0.12447 0.55612 0.54222 0.0
C1169 C 0.12324 0.59527 0.55395 0.0
C1170 C 0.10442 0.60856 0.56806 0.0
C1171 C 0.08664 0.58305 0.57035 0.0
C1172 C 0.08762 0.54422 0.55844 0.0
C1173 C 0.10641 0.53076 0.54434 0.0
H1174 H 0.07209 0.59339 0.58131 0.0
H1175 H 0.25594 0.45972 0.45071 0.0
H1176 H 0.6946 0.01889 0.87375 0.0
H1177 H 0.69561 0.98721 0.93391 0.0
H1178 H 0.64246 0.06223 0.95819 0.0
H1179 H 0.64238 0.09575 0.89857 0.0
H1180 H 0.66998 0.05438 0.01711 0.0
H1181 H 0.63475 0.96181 0.92978 0.0
H1182 H 0.63046 0.92023 0.87409 0.0
H1183 H 0.68973 0.85721 0.91659 0.0
H1184 H 0.69453 0.89876 0.97235 0.0
H1185 H 0.64028 0.9429 0.16372 0.0
H1186 H 0.63796 0.96666 0.10025 0.0
H1187 H 0.70074 0.912 0.09069 0.0
H1188 H 0.70309 0.88755 0.15456 0.0
H1189 H 0.66863 0.90875 0.025 0.0
H1190 H 0.69812 1.00078 0.11932 0.0
H1191 H 0.69631 0.04 0.17525 0.0
H1192 H 0.64161 0.10566 0.11841 0.0
H1193 H 0.64221 0.06537 0.06271 0.0
C1194 C 0.68307 0.02857 0.89187 0.0
C1195 C 0.66815 0.05937 0.88126 0.0
C1196 C 0.6836 0.0103 0.92625 0.0
C1197 C 0.6687 0.02148 0.95034 0.0
C1198 C 0.65403 0.05282 0.94004 0.0
C1199 C 0.65391 0.07187 0.90594 0.0
C1200 C 0.66849 1.00046 0.98616 0.0
C1201 C 0.66935 0.02257 0.01871 0.0
C1202 C 0.668 0.95884 0.98848 0.0
C1203 C 0.66511 0.93364 0.95507 0.0
C1204 C 0.64695 0.93925 0.92714 0.0
C1205 C 0.64442 0.91567 0.89558 0.0
C1206 C 0.65985 0.88617 0.89176 0.0
C1207 C 0.67781 0.88011 0.91956 0.0
C1208 C 0.68043 0.90364 0.95117 0.0
C1209 C 0.65344 0.93531 0.14794 0.0
C1210 C 0.67209 0.91399 0.1643 0.0
C1211 C 0.65204 0.94886 0.11166 0.0
C1212 C 0.6694 0.94184 0.09115 0.0
C1213 C 0.68724 0.91791 0.10626 0.0
C1214 C 0.68858 0.904 0.14269 0.0
C1215 C 0.66987 0.96271 0.05559 0.0
C1216 C 0.6692 0.94057 0.02324 0.0
C1217 C 0.66986 1.00435 0.05342 0.0
C1218 C 0.67004 0.02952 0.08676 0.0
C1219 C 0.68543 0.02308 0.11881 0.0
C1220 C 0.68459 0.04548 0.15058 0.0
C1221 C 0.66886 0.0753 0.15038 0.0
C1222 C 0.65381 0.08255 0.11852 0.0
C1223 C 0.65432 0.05977 0.08689 0.0
H1224 H 0.66837 0.09282 0.17491 0.0
H1225 H 0.65786 0.86795 0.8673 0.0
H1226 H 0.3676 1.00559 0.64122 0.0
H1227 H 0.36354 0.97475 0.58009 0.0
H1228 H 0.35451 0.08875 0.52829 0.0
H1229 H 0.35924 0.11999 0.58928 0.0
H1230 H 0.31905 0.01832 0.51106 0.0
H1231 H 0.39608 0.06097 0.51425 0.0
H1232 H 0.43519 0.06443 0.54322 0.0
H1233 H 0.43918 0.93846 0.54357 0.0
H1234 H 0.39996 0.93428 0.51511 0.0
H1235 H 0.31268 0.9786 0.32078 0.0
H1236 H 0.31817 1.00386 0.38386 0.0
H1237 H 0.36122 0.9059 0.41887 0.0
H1238 H 0.35705 0.88248 0.35479 0.0
H1239 H 0.37951 0.96538 0.44784 0.0
H1240 H 0.30501 0.91953 0.441 0.0
H1241 H 0.26553 0.91164 0.41545 0.0
H1242 H 0.2552 0.03551 0.42668 0.0
H1243 H 0.29469 0.04428 0.45174 0.0
C1244 C 0.36515 0.02411 0.61679 0.0
C1245 C 0.36383 0.06517 0.6199 0.0
C1246 C 0.36282 0.00647 0.58201 0.0
C1247 C 0.35873 0.0296 0.54997 0.0
C1248 C 0.35775 0.07059 0.5529 0.0
C1249 C 0.36058 0.08833 0.58765 0.0
C1250 C 0.35427 0.01076 0.51344 0.0
C1251 C 0.33218 0.00705 0.49682 0.0
C1252 C 0.37145 0.99478 0.49606 0.0
C1253 C 0.39502 0.99731 0.51302 0.0
C1254 C 0.40522 0.03401 0.5209 0.0
C1255 C 0.42743 0.03611 0.53713 0.0
C1256 C 0.43964 1.00169 0.54535 0.0
C1257 C 0.42969 0.9651 0.53725 0.0
C1258 C 0.40748 0.96285 0.52106 0.0
C1259 C 0.32297 0.9622 0.34222 0.0
C1260 C 0.33423 0.92843 0.33347 0.0
C1261 C 0.32603 0.97649 0.3783 0.0
C1262 C 0.33976 0.95646 0.40653 0.0
C1263 C 0.35052 0.92192 0.39772 0.0
C1264 C 0.34802 0.90833 0.36131 0.0
C1265 C 0.34403 0.97302 0.44451 0.0
C1266 C 0.36615 0.97627 0.46174 0.0
C1267 C 0.32674 0.98784 0.46283 0.0
C1268 C 0.3029 0.9826 0.44796 0.0
C1269 C 0.29437 0.94514 0.43779 0.0
C1270 C 0.27197 0.94051 0.42342 0.0
C1271 C 0.25787 0.97306 0.41939 0.0
C1272 C 0.26612 0.0103 0.42986 0.0
C1273 C 0.28852 0.01512 0.44415 0.0
H1274 H 0.24055 0.96942 0.4082 0.0
H1275 H 0.45683 1.00337 0.5579 0.0
H1276 H 0.37839 0.91561 0.10478 0.0
H1277 H 0.37902 0.94763 0.0446 0.0
H1278 H 0.33465 0.03722 0.07359 0.0
H1279 H 0.33414 1.00602 0.13373 0.0
H1280 H 0.32177 0.99875 0.00278 0.0
H1281 H 0.38465 0.06303 0.075 0.0
H1282 H 0.4206 0.0635 0.11579 0.0
H1283 H 0.45073 1.0013 0.03384 0.0
H1284 H 0.41485 0.99997 0.99276 0.0
H1285 H 0.32157 0.12103 0.84663 0.0
H1286 H 0.32448 0.09911 0.91108 0.0
H1287 H 0.38229 0.03047 0.89733 0.0
H1288 H 0.3801 0.05359 0.83387 0.0
H1289 H 0.38848 0.05954 0.96206 0.0
H1290 H 0.32865 0.99007 0.89128 0.0
H1291 H 0.29357 0.98251 0.84888 0.0
H1292 H 0.25866 0.04432 0.92507 0.0
H1293 H 0.29361 0.05277 0.96768 0.0
C1294 C 0.36895 0.94233 0.09844 0.0
C1295 C 0.3563 0.95838 0.12404 0.0
C1296 C 0.36934 0.96055 0.06415 0.0
C1297 C 0.35689 0.99473 0.05488 0.0
C1298 C 0.34436 0.01087 0.08038 0.0
C1299 C 0.34421 0.99308 0.11477 0.0
C1300 C 0.3563 0.01313 0.01811 0.0
C1301 C 0.33624 0.01256 0.99394 0.0
C1302 C 0.3754 0.02987 0.00644 0.0
C1303 C 0.39702 0.03108 0.03096 0.0
C1304 C 0.3989 0.04918 0.0658 0.0
C1305 C 0.41927 0.04965 0.08895 0.0
C1306 C 0.43793 0.03235 0.07745 0.0
C1307 C 0.43626 0.01465 0.04273 0.0
C1308 C 0.41592 0.01407 0.01949 0.0
C1309 C 0.33502 0.10163 0.85756 0.0
C1310 C 0.35047 0.0888 0.83509 0.0
C1311 C 0.33662 0.08895 0.8943 0.0
C1312 C 0.35334 0.06243 0.90884 0.0
C1313 C 0.36924 0.05085 0.8868 0.0
C1314 C 0.36791 0.06407 0.85041 0.0
C1315 C 0.35385 0.04534 0.94639 0.0
C1316 C 0.37391 0.04598 0.97078 0.0
C1317 C 0.33486 0.02766 0.95793 0.0
C1318 C 0.31378 0.02243 0.93248 0.0
C1319 C 0.31351 1.00229 0.89887 0.0
C1320 C 0.29366 0.99781 0.87481 0.0
C1321 C 0.27391 0.01301 0.88423 0.0
C1322 C 0.27397 0.03262 0.91778 0.0
C1323 C 0.2938 0.03725 0.9419 0.0
H1324 H 0.25855 0.00952 0.86558 0.0
H1325 H 0.45368 0.03272 0.09542 0.0
H1326 H 0.7065 0.10182 0.65071 0.0
H1327 H 0.70076 0.07861 0.58675 0.0
H1328 H 0.63601 0.03473 0.60166 0.0
H1329 H 0.64125 0.05885 0.66482 0.0
H1330 H 0.69623 0.00695 0.56255 0.0
H1331 H 0.6014 0.03281 0.52167 0.0
H1332 H 0.57299 0.08063 0.53397 0.0
H1333 H 0.62315 0.16949 0.55747 0.0
H1334 H 0.65182 0.12244 0.54463 0.0
H1335 H 0.65657 0.8828 0.41537 0.0
H1336 H 0.65893 0.91833 0.47377 0.0
H1337 H 0.65021 0.0282 0.41414 0.0
H1338 H 0.64751 0.99295 0.35565 0.0
H1339 H 0.62845 0.02944 0.47215 0.0
H1340 H 0.7015 0.99657 0.44935 0.0
H1341 H 0.73137 0.95288 0.43504 0.0
H1342 H 0.72794 0.88749 0.53483 0.0
H1343 H 0.69772 0.93031 0.54942 0.0
C1344 C 0.6909 0.0878 0.64015 0.0
C1345 C 0.67437 0.08214 0.66294 0.0
C1346 C 0.68768 0.07442 0.60365 0.0
C1347 C 0.6679 0.05514 0.5893 0.0
C1348 C 0.65123 0.05017 0.6118 0.0
C1349 C 0.65433 0.06386 0.64808 0.0
C1350 C 0.66514 0.03803 0.55165 0.0
C1351 C 0.68145 0.01206 0.54274 0.0
C1352 C 0.646 0.04508 0.52557 0.0
C1353 C 0.62879 0.07393 0.53248 0.0
C1354 C 0.60636 0.06262 0.52923 0.0
C1355 C 0.59021 0.08958 0.53635 0.0
C1356 C 0.59627 0.12802 0.54667 0.0
C1357 C 0.61849 0.13966 0.54963 0.0
C1358 C 0.6347 0.11284 0.54245 0.0
C1359 C 0.65493 0.91449 0.41465 0.0
C1360 C 0.65213 0.93508 0.38087 0.0
C1361 C 0.65632 0.93475 0.44804 0.0
C1362 C 0.65519 0.97595 0.44827 0.0
C1363 C 0.65121 0.99641 0.41458 0.0
C1364 C 0.64968 0.97617 0.38117 0.0
C1365 C 0.65929 0.99782 0.48355 0.0
C1366 C 0.64325 0.02458 0.49196 0.0
C1367 C 0.67892 0.99223 0.50886 0.0
C1368 C 0.69722 0.96652 0.50034 0.0
C1369 C 0.707 0.97271 0.46813 0.0
C1370 C 0.72401 0.94811 0.45998 0.0
C1371 C 0.73157 0.91748 0.48404 0.0
C1372 C 0.72209 0.91127 0.51625 0.0
C1373 C 0.70501 0.9357 0.52447 0.0
H1374 H 0.74479 0.89857 0.47772 0.0
H1375 H 0.58375 0.14881 0.55228 0.0
loop_
_geom_bond_atom_site_label_1
_geom_bond_atom_site_label_2
_geom_bond_distance
_geom_bond_site_symmetry_2
_ccdc_geom_bond_type
Fe0 O2 1.918 . S
Fe0 O5 1.997 . S
Fe0 O6 2.002 . S
Fe0 O11 1.976 . S
Fe0 O14 1.996 . S
Fe1 O2 1.918 . S
Fe1 O9 1.997 . S
Fe1 O12 1.996 . S
Fe1 O16 1.976 . S
Fe1 O19 2.002 . S
O2 Fe0 1.918 . S
O2 Fe1 1.918 . S
O2 Fe3 1.918 . S
Fe3 O2 1.918 . S
Fe3 O4 2.002 . S
Fe3 O13 1.976 . S
Fe3 O17 1.996 . S
Fe3 O20 1.997 . S
O4 Fe3 2.002 . S
O4 C21 1.295 . S
O5 Fe0 1.997 . S
O5 C21 1.235 . S
O6 Fe0 2.002 . S
O6 C7 1.295 . S
C7 O6 1.295 . S
C7 O9 1.235 . S
C8 O13 1.287 . S
C8 O14 1.255 . S
O9 Fe1 1.997 . S
O9 C7 1.235 . S
C10 O16 1.287 . S
C10 O17 1.255 . S
O11 Fe0 1.976 . S
O11 C18 1.287 . S
O12 Fe1 1.996 . S
O12 C18 1.255 . S
O13 Fe3 1.976 . S
O13 C8 1.287 . S
O14 Fe0 1.996 . S
O14 C8 1.255 . S
C15 O19 1.295 . S
C15 O20 1.235 . S
O16 Fe1 1.976 . S
O16 C10 1.287 . S
O17 Fe3 1.996 . S
O17 C10 1.255 . S
C18 O11 1.287 . S
C18 O12 1.255 . S
O19 Fe1 2.002 . S
O19 C15 1.295 . S
O20 Fe3 1.997 . S
O20 C15 1.235 . S
C21 O4 1.295 . S
C21 O5 1.235 . S
Fe22 O24 1.918 . S
Fe22 O27 1.997 . S
Fe22 O28 2.002 . S
Fe22 O33 1.976 . S
Fe22 O36 1.996 . S
Fe23 O24 1.918 . S
Fe23 O31 1.997 . S
Fe23 O34 1.996 . S
Fe23 O38 1.976 . S
Fe23 O41 2.002 . S
O24 Fe22 1.918 . S
O24 Fe23 1.918 . S
O24 Fe25 1.918 . S
Fe25 O24 1.918 . S
Fe25 O26 2.002 . S
Fe25 O35 1.976 . S
Fe25 O39 1.996 . S
Fe25 O42 1.997 . S
O26 Fe25 2.002 . S
O26 C43 1.295 . S
O27 Fe22 1.997 . S
O27 C43 1.235 . S
O28 Fe22 2.002 . S
O28 C29 1.295 . S
C29 O28 1.295 . S
C29 O31 1.235 . S
C30 O35 1.287 . S
C30 O36 1.255 . S
O31 Fe23 1.997 . S
O31 C29 1.235 . S
C32 O38 1.287 . S
C32 O39 1.255 . S
O33 Fe22 1.976 . S
O33 C40 1.287 . S
O34 Fe23 1.996 . S
O34 C40 1.255 . S
O35 Fe25 1.976 . S
O35 C30 1.287 . S
O36 Fe22 1.996 . S
O36 C30 1.255 . S
C37 O41 1.295 . S
C37 O42 1.235 . S
O38 Fe23 1.976 . S
O38 C32 1.287 . S
O39 Fe25 1.996 . S
O39 C32 1.255 . S
C40 O33 1.287 . S
C40 O34 1.255 . S
O41 Fe23 2.002 . S
O41 C37 1.295 . S
O42 Fe25 1.997 . S
O42 C37 1.235 . S
C43 O26 1.295 . S
C43 O27 1.235 . S
Fe44 O46 1.918 . S
Fe44 O49 1.997 . S
Fe44 O50 2.002 . S
Fe44 O55 1.976 . S
Fe44 O58 1.996 . S
Fe45 O46 1.918 . S
Fe45 O53 1.997 . S
Fe45 O56 1.996 . S
Fe45 O60 1.976 . S
Fe45 O63 2.002 . S
O46 Fe44 1.918 . S
O46 Fe45 1.918 . S
O46 Fe47 1.918 . S
Fe47 O46 1.918 . S
Fe47 O48 2.002 . S
Fe47 O57 1.976 . S
Fe47 O61 1.996 . S
Fe47 O64 1.997 . S
O48 Fe47 2.002 . S
O48 C65 1.295 . S
O49 Fe44 1.997 . S
O49 C65 1.235 . S
O50 Fe44 2.002 . S
O50 C51 1.295 . S
C51 O50 1.295 . S
C51 O53 1.235 . S
C52 O57 1.287 . S
C52 O58 1.255 . S
O53 Fe45 1.997 . S
O53 C51 1.235 . S
C54 O60 1.287 . S
C54 O61 1.255 . S
O55 Fe44 1.976 . S
O55 C62 1.287 . S
O56 Fe45 1.996 . S
O56 C62 1.255 . S
O57 Fe47 1.976 . S
O57 C52 1.287 . S
O58 Fe44 1.996 . S
O58 C52 1.255 . S
C59 O63 1.295 . S
C59 O64 1.235 . S
O60 Fe45 1.976 . S
O60 C54 1.287 . S
O61 Fe47 1.996 . S
O61 C54 1.255 . S
C62 O55 1.287 . S
C62 O56 1.255 . S
O63 Fe45 2.002 . S
O63 C59 1.295 . S
O64 Fe47 1.997 . S
O64 C59 1.235 . S
C65 O48 1.295 . S
C65 O49 1.235 . S
Fe66 O68 1.918 . S
Fe66 O71 1.997 . S
Fe66 O72 2.002 . S
Fe66 O77 1.976 . S
Fe66 O80 1.996 . S
Fe67 O68 1.918 . S
Fe67 O75 1.997 . S
Fe67 O78 1.996 . S
Fe67 O82 1.976 . S
Fe67 O85 2.002 . S
O68 Fe66 1.918 . S
O68 Fe67 1.918 . S
O68 Fe69 1.918 . S
Fe69 O68 1.918 . S
Fe69 O70 2.002 . S
Fe69 O79 1.976 . S
Fe69 O83 1.996 . S
Fe69 O86 1.997 . S
O70 Fe69 2.002 . S
O70 C87 1.295 . S
O71 Fe66 1.997 . S
O71 C87 1.235 . S
O72 Fe66 2.002 . S
O72 C73 1.295 . S
C73 O72 1.295 . S
C73 O75 1.235 . S
C74 O79 1.287 . S
C74 O80 1.255 . S
O75 Fe67 1.997 . S
O75 C73 1.235 . S
C76 O82 1.287 . S
C76 O83 1.255 . S
O77 Fe66 1.976 . S
O77 C84 1.287 . S
O78 Fe67 1.996 . S
O78 C84 1.255 . S
O79 Fe69 1.976 . S
O79 C74 1.287 . S
O80 Fe66 1.996 . S
O80 C74 1.255 . S
C81 O85 1.295 . S
C81 O86 1.235 . S
O82 Fe67 1.976 . S
O82 C76 1.287 . S
O83 Fe69 1.996 . S
O83 C76 1.255 . S
C84 O77 1.287 . S
C84 O78 1.255 . S
O85 Fe67 2.002 . S
O85 C81 1.295 . S
O86 Fe69 1.997 . S
O86 C81 1.235 . S
C87 O70 1.295 . S
C87 O71 1.235 . S
Fe88 O90 1.918 . S
Fe88 O93 1.997 . S
Fe88 O94 2.002 . S
Fe88 O99 1.976 . S
Fe88 O102 1.996 . S
Fe89 O90 1.918 . S
Fe89 O97 1.997 . S
Fe89 O100 1.996 . S
Fe89 O104 1.976 . S
Fe89 O107 2.002 . S
O90 Fe88 1.918 . S
O90 Fe89 1.918 . S
O90 Fe91 1.918 . S
Fe91 O90 1.918 . S
Fe91 O92 2.002 . S
Fe91 O101 1.976 . S
Fe91 O105 1.996 . S
Fe91 O108 1.997 . S
O92 Fe91 2.002 . S
O92 C109 1.295 . S
O93 Fe88 1.997 . S
O93 C109 1.235 . S
O94 Fe88 2.002 . S
O94 C95 1.295 . S
C95 O94 1.295 . S
C95 O97 1.235 . S
C96 O101 1.287 . S
C96 O102 1.255 . S
O97 Fe89 1.997 . S
O97 C95 1.235 . S
C98 O104 1.287 . S
C98 O105 1.255 . S
O99 Fe88 1.976 . S
O99 C106 1.287 . S
O100 Fe89 1.996 . S
O100 C106 1.255 . S
O101 Fe91 1.976 . S
O101 C96 1.287 . S
O102 Fe88 1.996 . S
O102 C96 1.255 . S
C103 O107 1.295 . S
C103 O108 1.235 . S
O104 Fe89 1.976 . S
O104 C98 1.287 . S
O105 Fe91 1.996 . S
O105 C98 1.255 . S
C106 O99 1.287 . S
C106 O100 1.255 . S
O107 Fe89 2.002 . S
O107 C103 1.295 . S
O108 Fe91 1.997 . S
O108 C103 1.235 . S
C109 O92 1.295 . S
C109 O93 1.235 . S
Fe110 O112 1.918 . S
Fe110 O115 1.997 . S
Fe110 O116 2.002 . S
Fe110 O121 1.976 . S
Fe110 O124 1.996 . S
Fe111 O112 1.918 . S
Fe111 O119 1.997 . S
Fe111 O122 1.996 . S
Fe111 O126 1.976 . S
Fe111 O129 2.002 . S
O112 Fe110 1.918 . S
O112 Fe111 1.918 . S
O112 Fe113 1.918 . S
Fe113 O112 1.918 . S
Fe113 O114 2.002 . S
Fe113 O123 1.976 . S
Fe113 O127 1.996 . S
Fe113 O130 1.997 . S
O114 Fe113 2.002 . S
O114 C131 1.295 . S
O115 Fe110 1.997 . S
O115 C131 1.235 . S
O116 Fe110 2.002 . S
O116 C117 1.295 . S
C117 O116 1.295 . S
C117 O119 1.235 . S
C118 O123 1.287 . S
C118 O124 1.255 . S
O119 Fe111 1.997 . S
O119 C117 1.235 . S
C120 O126 1.287 . S
C120 O127 1.255 . S
O121 Fe110 1.976 . S
O121 C128 1.287 . S
O122 Fe111 1.996 . S
O122 C128 1.255 . S
O123 Fe113 1.976 . S
O123 C118 1.287 . S
O124 Fe110 1.996 . S
O124 C118 1.255 . S
C125 O129 1.295 . S
C125 O130 1.235 . S
O126 Fe111 1.976 . S
O126 C120 1.287 . S
O127 Fe113 1.996 . S
O127 C120 1.255 . S
C128 O121 1.287 . S
C128 O122 1.255 . S
O129 Fe111 2.002 . S
O129 C125 1.295 . S
O130 Fe113 1.997 . S
O130 C125 1.235 . S
C131 O114 1.295 . S
C131 O115 1.235 . S
Fe132 O134 1.918 . S
Fe132 O137 1.997 . S
Fe132 O138 2.002 . S
Fe132 O143 1.976 . S
Fe132 O146 1.996 . S
Fe133 O134 1.918 . S
Fe133 O141 1.997 . S
Fe133 O144 1.996 . S
Fe133 O148 1.976 . S
Fe133 O151 2.002 . S
O134 Fe132 1.918 . S
O134 Fe133 1.918 . S
O134 Fe135 1.918 . S
Fe135 O134 1.918 . S
Fe135 O136 2.002 . S
Fe135 O145 1.976 . S
Fe135 O149 1.996 . S
Fe135 O152 1.997 . S
O136 Fe135 2.002 . S
O136 C153 1.295 . S
O137 Fe132 1.997 . S
O137 C153 1.235 . S
O138 Fe132 2.002 . S
O138 C139 1.295 . S
C139 O138 1.295 . S
C139 O141 1.235 . S
C140 O145 1.287 . S
C140 O146 1.255 . S
O141 Fe133 1.997 . S
O141 C139 1.235 . S
C142 O148 1.287 . S
C142 O149 1.255 . S
O143 Fe132 1.976 . S
O143 C150 1.287 . S
O144 Fe133 1.996 . S
O144 C150 1.255 . S
O145 Fe135 1.976 . S
O145 C140 1.287 . S
O146 Fe132 1.996 . S
O146 C140 1.255 . S
C147 O151 1.295 . S
C147 O152 1.235 . S
O148 Fe133 1.976 . S
O148 C142 1.287 . S
O149 Fe135 1.996 . S
O149 C142 1.255 . S
C150 O143 1.287 . S
C150 O144 1.255 . S
O151 Fe133 2.002 . S
O151 C147 1.295 . S
O152 Fe135 1.997 . S
O152 C147 1.235 . S
C153 O136 1.295 . S
C153 O137 1.235 . S
Fe154 O156 1.918 . S
Fe154 O159 1.997 . S
Fe154 O160 2.002 . S
Fe154 O165 1.976 . S
Fe154 O168 1.996 . S
Fe155 O156 1.918 . S
Fe155 O163 1.997 . S
Fe155 O166 1.996 . S
Fe155 O170 1.976 . S
Fe155 O173 2.002 . S
O156 Fe154 1.918 . S
O156 Fe155 1.918 . S
O156 Fe157 1.918 . S
Fe157 O156 1.918 . S
Fe157 O158 2.002 . S
Fe157 O167 1.976 . S
Fe157 O171 1.996 . S
Fe157 O174 1.997 . S
O158 Fe157 2.002 . S
O158 C175 1.295 . S
O159 Fe154 1.997 . S
O159 C175 1.235 . S
O160 Fe154 2.002 . S
O160 C161 1.295 . S
C161 O160 1.295 . S
C161 O163 1.235 . S
C162 O167 1.287 . S
C162 O168 1.255 . S
O163 Fe155 1.997 . S
O163 C161 1.235 . S
C164 O170 1.287 . S
C164 O171 1.255 . S
O165 Fe154 1.976 . S
O165 C172 1.287 . S
O166 Fe155 1.996 . S
O166 C172 1.255 . S
O167 Fe157 1.976 . S
O167 C162 1.287 . S
O168 Fe154 1.996 . S
O168 C162 1.255 . S
C169 O173 1.295 . S
C169 O174 1.235 . S
O170 Fe155 1.976 . S
O170 C164 1.287 . S
O171 Fe157 1.996 . S
O171 C164 1.255 . S
C172 O165 1.287 . S
C172 O166 1.255 . S
O173 Fe155 2.002 . S
O173 C169 1.295 . S
O174 Fe157 1.997 . S
O174 C169 1.235 . S
C175 O158 1.295 . S
C175 O159 1.235 . S
H176 C194 0.951 . S
H177 C196 0.951 . S
H178 C198 0.950 . S
H179 C199 0.950 . S
H180 C201 0.950 . S
H181 C204 0.950 . S
H182 C205 0.950 . S
H183 C207 0.950 . S
H184 C208 0.950 . S
H185 C209 0.951 . S
H186 C211 0.951 . S
H187 C213 0.950 . S
H188 C214 0.950 . S
H189 C216 0.950 . S
H190 C219 0.950 . S
H191 C220 0.950 . S
H192 C222 0.950 . S
H193 C223 0.950 . S
C194 H176 0.951 . S
C194 C195 1.366 . S
C194 C196 1.388 . S
C195 C194 1.366 . S
C195 C199 1.385 . S
C196 H177 0.951 . S
C196 C194 1.388 . S
C196 C197 1.366 . S
C197 C196 1.366 . S
C197 C198 1.414 . S
C197 C200 1.499 . S
C198 H178 0.950 . S
C198 C197 1.414 . S
C198 C199 1.374 . S
C199 H179 0.950 . S
C199 C195 1.385 . S
C199 C198 1.374 . S
C200 C197 1.499 . S
C200 C201 1.373 . S
C200 C202 1.389 . S
C201 H180 0.950 . S
C201 C200 1.373 . S
C201 C217 1.377 . S
C202 C200 1.389 . S
C202 C203 1.524 . S
C202 C216 1.377 . S
C203 C202 1.524 . S
C203 C204 1.397 . S
C203 C208 1.363 . S
C204 H181 0.950 . S
C204 C203 1.397 . S
C204 C205 1.334 . S
C205 H182 0.950 . S
C205 C204 1.334 . S
C205 C206 1.287 . S
C206 C205 1.287 . S
C206 C207 1.524 . S
C206 H225 0.913 . S
C207 H183 0.950 . S
C207 C206 1.524 . S
C207 C208 1.415 . S
C208 H184 0.950 . S
C208 C203 1.363 . S
C208 C207 1.415 . S
C209 H185 0.951 . S
C209 C210 1.366 . S
C209 C211 1.388 . S
C210 C209 1.366 . S
C210 C214 1.385 . S
C211 H186 0.951 . S
C211 C209 1.388 . S
C211 C212 1.366 . S
C212 C211 1.366 . S
C212 C213 1.414 . S
C212 C215 1.499 . S
C213 H187 0.950 . S
C213 C212 1.414 . S
C213 C214 1.374 . S
C214 H188 0.950 . S
C214 C210 1.385 . S
C214 C213 1.374 . S
C215 C212 1.499 . S
C215 C216 1.373 . S
C215 C217 1.389 . S
C216 H189 0.950 . S
C216 C202 1.377 . S
C216 C215 1.373 . S
C217 C201 1.377 . S
C217 C215 1.389 . S
C217 C218 1.524 . S
C218 C217 1.524 . S
C218 C219 1.397 . S
C218 C223 1.363 . S
C219 H190 0.950 . S
C219 C218 1.397 . S
C219 C220 1.334 . S
C220 H191 0.950 . S
C220 C219 1.334 . S
C220 C221 1.287 . S
C221 C220 1.287 . S
C221 C222 1.524 . S
C221 H224 0.999 . S
C222 H192 0.950 . S
C222 C221 1.524 . S
C222 C223 1.415 . S
C223 H193 0.950 . S
C223 C218 1.363 . S
C223 C222 1.415 . S
H224 C221 0.999 . S
H225 C206 0.913 . S
H226 C244 0.951 . S
H227 C246 0.951 . S
H228 C248 0.950 . S
H229 C249 0.950 . S
H230 C251 0.950 . S
H231 C254 0.950 . S
H232 C255 0.961 . S
H233 C257 0.950 . S
H234 C258 0.950 . S
H235 C259 0.951 . S
H236 C261 0.951 . S
H237 C263 0.950 . S
H238 C264 0.950 . S
H239 C266 0.950 . S
H240 C269 0.950 . S
H241 C270 0.953 . S
H242 C272 0.950 . S
H243 C273 0.950 . S
C244 H226 0.951 . S
C244 C245 1.366 . S
C244 C246 1.388 . S
C245 C244 1.366 . S
C245 C249 1.385 . S
C246 H227 0.951 . S
C246 C244 1.388 . S
C246 C247 1.366 . S
C247 C246 1.366 . S
C247 C248 1.414 . S
C247 C250 1.499 . S
C248 H228 0.950 . S
C248 C247 1.414 . S
C248 C249 1.374 . S
C249 H229 0.950 . S
C249 C245 1.385 . S
C249 C248 1.374 . S
C250 C247 1.499 . S
C250 C251 1.373 . S
C250 C252 1.389 1_556 S
C251 H230 0.950 . S
C251 C250 1.373 . S
C251 C267 1.377 . S
C252 C250 1.389 1_554 S
C252 C253 1.524 . S
C252 C266 1.377 . S
C253 C252 1.524 . S
C253 C254 1.397 1_554 S
C253 C258 1.363 . S
C254 H231 0.950 . S
C254 C253 1.397 1_556 S
C254 C255 1.342 . S
C255 H232 0.961 . S
C255 C254 1.342 . S
C255 C256 1.269 1_556 S
C256 C255 1.269 1_554 S
C256 C257 1.524 . S
C256 H275 0.913 . S
C257 H233 0.950 . S
C257 C256 1.524 . S
C257 C258 1.415 . S
C258 H234 0.950 . S
C258 C253 1.363 . S
C258 C257 1.415 . S
C259 H235 0.951 . S
C259 C260 1.366 . S
C259 C261 1.388 . S
C260 C259 1.366 . S
C260 C264 1.385 . S
C261 H236 0.951 . S
C261 C259 1.388 . S
C261 C262 1.366 . S
C262 C261 1.366 . S
C262 C263 1.414 . S
C262 C265 1.499 . S
C263 H237 0.950 . S
C263 C262 1.414 . S
C263 C264 1.374 . S
C264 H238 0.950 . S
C264 C260 1.385 . S
C264 C263 1.374 . S
C265 C262 1.499 . S
C265 C266 1.373 . S
C265 C267 1.389 1_554 S
C266 H239 0.950 . S
C266 C252 1.377 . S
C266 C265 1.373 . S
C267 C251 1.377 . S
C267 C265 1.389 1_556 S
C267 C268 1.524 . S
C268 C267 1.524 . S
C268 C269 1.397 1_556 S
C268 C273 1.363 . S
C269 H240 0.950 . S
C269 C268 1.397 1_554 S
C269 C270 1.336 . S
C270 H241 0.953 . S
C270 C269 1.336 . S
C270 C271 1.282 1_554 S
C271 C270 1.282 1_556 S
C271 C272 1.524 . S
C271 H274 0.999 . S
C272 H242 0.950 . S
C272 C271 1.524 . S
C272 C273 1.415 . S
C273 H243 0.950 . S
C273 C268 1.363 . S
C273 C272 1.415 . S
H274 C271 0.999 . S
H275 C256 0.913 . S
H276 C294 0.951 . S
H277 C296 0.951 . S
H278 C298 0.950 . S
H279 C299 0.950 . S
H280 C301 0.950 . S
H281 C304 0.950 . S
H282 C305 0.950 . S
H283 C307 0.950 . S
H284 C308 0.950 . S
H285 C309 0.951 . S
H286 C311 0.951 . S
H287 C313 0.950 . S
H288 C314 0.950 . S
H289 C316 0.950 . S
H290 C319 0.950 . S
H291 C320 0.950 . S
H292 C322 0.950 . S
H293 C323 0.950 . S
C294 H276 0.951 . S
C294 C295 1.366 . S
C294 C296 1.388 . S
C295 C294 1.366 . S
C295 C299 1.385 . S
C296 H277 0.951 . S
C296 C294 1.388 . S
C296 C297 1.366 . S
C297 C296 1.366 . S
C297 C298 1.414 . S
C297 C300 1.499 . S
C298 H278 0.950 . S
C298 C297 1.414 . S
C298 C299 1.374 . S
C299 H279 0.950 . S
C299 C295 1.385 . S
C299 C298 1.374 . S
C300 C297 1.499 . S
C300 C301 1.373 . S
C300 C302 1.389 . S
C301 H280 0.950 . S
C301 C300 1.373 . S
C301 C317 1.377 . S
C302 C300 1.389 . S
C302 C303 1.524 . S
C302 C316 1.377 . S
C303 C302 1.524 . S
C303 C304 1.397 . S
C303 C308 1.363 . S
C304 H281 0.950 . S
C304 C303 1.397 . S
C304 C305 1.334 . S
C305 H282 0.950 . S
C305 C304 1.334 . S
C305 C306 1.287 . S
C306 C305 1.287 . S
C306 C307 1.524 . S
C306 H325 0.913 . S
C307 H283 0.950 . S
C307 C306 1.524 . S
C307 C308 1.415 . S
C308 H284 0.950 . S
C308 C303 1.363 . S
C308 C307 1.415 . S
C309 H285 0.951 . S
C309 C310 1.366 . S
C309 C311 1.388 . S
C310 C309 1.366 . S
C310 C314 1.385 . S
C311 H286 0.951 . S
C311 C309 1.388 . S
C311 C312 1.366 . S
C312 C311 1.366 . S
C312 C313 1.414 . S
C312 C315 1.499 . S
C313 H287 0.950 . S
C313 C312 1.414 . S
C313 C314 1.374 . S
C314 H288 0.950 . S
C314 C310 1.385 . S
C314 C313 1.374 . S
C315 C312 1.499 . S
C315 C316 1.373 . S
C315 C317 1.389 . S
C316 H289 0.950 . S
C316 C302 1.377 . S
C316 C315 1.373 . S
C317 C301 1.377 . S
C317 C315 1.389 . S
C317 C318 1.524 . S
C318 C317 1.524 . S
C318 C319 1.397 . S
C318 C323 1.363 . S
C319 H290 0.950 . S
C319 C318 1.397 . S
C319 C320 1.334 . S
C320 H291 0.950 . S
C320 C319 1.334 . S
C320 C321 1.287 . S
C321 C320 1.287 . S
C321 C322 1.524 . S
C321 H324 0.999 . S
C322 H292 0.950 . S
C322 C321 1.524 . S
C322 C323 1.415 . S
C323 H293 0.950 . S
C323 C318 1.363 . S
C323 C322 1.415 . S
H324 C321 0.999 . S
H325 C306 0.913 . S
H326 C344 0.951 . S
H327 C346 0.951 . S
H328 C348 0.950 . S
H329 C349 0.950 . S
H330 C351 0.950 . S
H331 C354 0.950 . S
H332 C355 0.950 . S
H333 C357 0.950 . S
H334 C358 0.950 . S
H335 C359 0.951 . S
H336 C361 0.951 . S
H337 C363 0.950 . S
H338 C364 0.950 . S
H339 C366 0.953 . S
H340 C369 0.950 . S
H341 C370 0.950 . S
H342 C372 0.950 . S
H343 C373 0.950 . S
C344 H326 0.951 . S
C344 C345 1.366 . S
C344 C346 1.388 . S
C345 C344 1.366 . S
C345 C349 1.385 . S
C346 H327 0.951 . S
C346 C344 1.388 . S
C346 C347 1.366 . S
C347 C346 1.366 . S
C347 C348 1.414 . S
C347 C350 1.499 . S
C348 H328 0.950 . S
C348 C347 1.414 . S
C348 C349 1.374 . S
C349 H329 0.950 . S
C349 C345 1.385 . S
C349 C348 1.374 . S
C350 C347 1.499 . S
C350 C351 1.373 1_554 S
C350 C352 1.389 . S
C351 H330 0.950 . S
C351 C350 1.373 1_556 S
C351 C367 1.377 . S
C352 C350 1.389 . S
C352 C353 1.524 . S
C352 C366 1.396 . S
C353 C352 1.524 . S
C353 C354 1.397 . S
C353 C358 1.363 . S
C354 H331 0.950 . S
C354 C353 1.397 . S
C354 C355 1.334 . S
C355 H332 0.950 . S
C355 C354 1.334 . S
C355 C356 1.287 . S
C356 C355 1.287 . S
C356 C357 1.524 . S
C356 H375 0.913 . S
C357 H333 0.950 . S
C357 C356 1.524 . S
C357 C358 1.415 . S
C358 H334 0.950 . S
C358 C353 1.363 . S
C358 C357 1.415 . S
C359 H335 0.951 . S
C359 C360 1.366 . S
C359 C361 1.388 . S
C360 C359 1.366 . S
C360 C364 1.385 . S
C361 H336 0.951 . S
C361 C359 1.388 . S
C361 C362 1.366 . S
C362 C361 1.366 . S
C362 C363 1.414 . S
C362 C365 1.499 . S
C363 H337 0.950 . S
C363 C362 1.414 . S
C363 C364 1.374 . S
C364 H338 0.950 . S
C364 C360 1.385 . S
C364 C363 1.374 . S
C365 C362 1.499 . S
C365 C366 1.352 1_556 S
C365 C367 1.389 . S
C366 H339 0.953 . S
C366 C352 1.396 . S
C366 C365 1.352 1_554 S
C367 C351 1.377 . S
C367 C365 1.389 . S
C367 C368 1.524 . S
C368 C367 1.524 . S
C368 C369 1.397 . S
C368 C373 1.363 . S
C369 H340 0.950 . S
C369 C368 1.397 . S
C369 C370 1.334 . S
C370 H341 0.950 . S
C370 C369 1.334 . S
C370 C371 1.287 . S
C371 C370 1.287 . S
C371 C372 1.524 . S
C371 H374 0.999 . S
C372 H342 0.950 . S
C372 C371 1.524 . S
C372 C373 1.415 . S
C373 H343 0.950 . S
C373 C368 1.363 . S
C373 C372 1.415 . S
H374 C371 0.999 . S
H375 C356 0.913 . S
H376 C394 0.951 . S
H377 C396 0.951 . S
H378 C398 0.950 . S
H379 C399 0.950 . S
H380 C401 0.950 . S
H381 C404 0.950 . S
H382 C405 0.950 1_565 S
H383 C407 0.950 . S
H384 C408 0.950 . S
H385 C409 0.951 . S
H386 C411 0.951 . S
H387 C413 0.950 . S
H388 C414 0.950 . S
H389 C416 0.950 . S
H390 C419 0.950 . S
H391 C420 0.950 . S
H392 C422 0.950 . S
H393 C423 0.950 . S
C394 H376 0.951 . S
C394 C395 1.366 1_545 S
C394 C396 1.388 . S
C395 C394 1.366 1_565 S
C395 C399 1.385 . S
C396 H377 0.951 . S
C396 C394 1.388 . S
C396 C397 1.366 . S
C397 C396 1.366 . S
C397 C398 1.414 . S
C397 C400 1.499 . S
C398 H378 0.950 . S
C398 C397 1.414 . S
C398 C399 1.374 1_545 S
C399 H379 0.950 . S
C399 C395 1.385 . S
C399 C398 1.374 1_565 S
C400 C397 1.499 . S
C400 C401 1.373 . S
C400 C402 1.389 . S
C401 H380 0.950 . S
C401 C400 1.373 . S
C401 C417 1.377 . S
C402 C400 1.389 . S
C402 C403 1.524 . S
C402 C416 1.377 . S
C403 C402 1.524 . S
C403 C404 1.397 . S
C403 C408 1.363 . S
C404 H381 0.950 . S
C404 C403 1.397 . S
C404 C405 1.334 . S
C405 H382 0.950 1_545 S
C405 C404 1.334 . S
C405 C406 1.287 . S
C406 C405 1.287 . S
C406 C407 1.524 . S
C406 H425 0.913 . S
C407 H383 0.950 . S
C407 C406 1.524 . S
C407 C408 1.415 . S
C408 H384 0.950 . S
C408 C403 1.363 . S
C408 C407 1.415 . S
C409 H385 0.951 . S
C409 C410 1.366 . S
C409 C411 1.388 . S
C410 C409 1.366 . S
C410 C414 1.385 . S
C411 H386 0.951 . S
C411 C409 1.388 . S
C411 C412 1.366 . S
C412 C411 1.366 . S
C412 C413 1.414 . S
C412 C415 1.499 . S
C413 H387 0.950 . S
C413 C412 1.414 . S
C413 C414 1.374 . S
C414 H388 0.950 . S
C414 C410 1.385 . S
C414 C413 1.374 . S
C415 C412 1.499 . S
C415 C416 1.373 . S
C415 C417 1.389 . S
C416 H389 0.950 . S
C416 C402 1.377 . S
C416 C415 1.373 . S
C417 C401 1.377 . S
C417 C415 1.389 . S
C417 C418 1.524 . S
C418 C417 1.524 . S
C418 C419 1.397 . S
C418 C423 1.363 . S
C419 H390 0.950 . S
C419 C418 1.397 . S
C419 C420 1.334 . S
C420 H391 0.950 . S
C420 C419 1.334 . S
C420 C421 1.287 . S
C421 C420 1.287 . S
C421 C422 1.524 . S
C421 H424 0.999 . S
C422 H392 0.950 . S
C422 C421 1.524 . S
C422 C423 1.415 . S
C423 H393 0.950 . S
C423 C418 1.363 . S
C423 C422 1.415 . S
H424 C421 0.999 . S
H425 C406 0.913 . S
H426 C444 0.951 . S
H427 C446 0.951 . S
H428 C448 0.950 . S
H429 C449 0.950 . S
H430 C451 0.950 . S
H431 C454 0.950 . S
H432 C455 0.950 . S
H433 C457 0.950 . S
H434 C458 0.950 . S
H435 C459 0.951 . S
H436 C461 0.951 . S
H437 C463 0.950 . S
H438 C464 0.950 . S
H439 C466 0.950 . S
H440 C469 0.950 . S
H441 C470 0.950 . S
H442 C472 0.950 . S
H443 C473 0.950 . S
C444 H426 0.951 . S
C444 C445 1.366 1_545 S
C444 C446 1.388 . S
C445 C444 1.366 1_565 S
C445 C449 1.385 . S
C446 H427 0.951 . S
C446 C444 1.388 . S
C446 C447 1.366 . S
C447 C446 1.366 . S
C447 C448 1.414 . S
C447 C450 1.499 . S
C448 H428 0.950 . S
C448 C447 1.414 . S
C448 C449 1.374 1_545 S
C449 H429 0.950 . S
C449 C445 1.385 . S
C449 C448 1.374 1_565 S
C450 C447 1.499 . S
C450 C451 1.373 . S
C450 C452 1.389 . S
C451 H430 0.950 . S
C451 C450 1.373 . S
C451 C467 1.377 . S
C452 C450 1.389 . S
C452 C453 1.524 . S
C452 C466 1.377 . S
C453 C452 1.524 . S
C453 C454 1.397 . S
C453 C458 1.363 . S
C454 H431 0.950 . S
C454 C453 1.397 . S
C454 C455 1.334 . S
C455 H432 0.950 . S
C455 C454 1.334 . S
C455 C456 1.287 . S
C456 C455 1.287 . S
C456 C457 1.524 . S
C456 H475 0.913 . S
C457 H433 0.950 . S
C457 C456 1.524 . S
C457 C458 1.415 . S
C458 H434 0.950 . S
C458 C453 1.363 . S
C458 C457 1.415 . S
C459 H435 0.951 . S
C459 C460 1.366 . S
C459 C461 1.388 . S
C460 C459 1.366 . S
C460 C464 1.385 . S
C461 H436 0.951 . S
C461 C459 1.388 . S
C461 C462 1.366 . S
C462 C461 1.366 . S
C462 C463 1.414 . S
C462 C465 1.499 . S
C463 H437 0.950 . S
C463 C462 1.414 . S
C463 C464 1.374 . S
C464 H438 0.950 . S
C464 C460 1.385 . S
C464 C463 1.374 . S
C465 C462 1.499 . S
C465 C466 1.373 . S
C465 C467 1.389 . S
C466 H439 0.950 . S
C466 C452 1.377 . S
C466 C465 1.373 . S
C467 C451 1.377 . S
C467 C465 1.389 . S
C467 C468 1.524 . S
C468 C467 1.524 . S
C468 C469 1.397 . S
C468 C473 1.363 . S
C469 H440 0.950 . S
C469 C468 1.397 . S
C469 C470 1.334 . S
C470 H441 0.950 . S
C470 C469 1.334 . S
C470 C471 1.287 . S
C471 C470 1.287 . S
C471 C472 1.524 . S
C471 H474 0.999 . S
C472 H442 0.950 . S
C472 C471 1.524 . S
C472 C473 1.415 . S
C473 H443 0.950 . S
C473 C468 1.363 . S
C473 C472 1.415 . S
H474 C471 0.999 . S
H475 C456 0.913 . S
H476 C494 0.951 . S
H477 C496 0.951 . S
H478 C498 0.950 . S
H479 C499 0.950 . S
H480 C501 0.950 . S
H481 C504 0.950 . S
H482 C505 0.950 . S
H483 C507 0.950 . S
H484 C508 0.950 . S
H485 C509 0.951 1_545 S
H486 C511 0.951 . S
H487 C513 0.950 . S
H488 C514 0.945 1_545 S
H489 C516 0.950 . S
H490 C519 0.950 . S
H491 C520 0.950 . S
H492 C522 0.950 . S
H493 C523 0.950 . S
C494 H476 0.951 . S
C494 C495 1.366 . S
C494 C496 1.388 . S
C495 C494 1.366 . S
C495 C499 1.385 . S
C496 H477 0.951 . S
C496 C494 1.388 . S
C496 C497 1.366 . S
C497 C496 1.366 . S
C497 C498 1.414 . S
C497 C500 1.499 . S
C498 H478 0.950 . S
C498 C497 1.414 . S
C498 C499 1.374 . S
C499 H479 0.950 . S
C499 C495 1.385 . S
C499 C498 1.374 . S
C500 C497 1.499 . S
C500 C501 1.373 . S
C500 C502 1.389 . S
C501 H480 0.950 . S
C501 C500 1.373 . S
C501 C517 1.377 . S
C502 C500 1.389 . S
C502 C503 1.524 . S
C502 C516 1.377 . S
C503 C502 1.524 . S
C503 C504 1.397 . S
C503 C508 1.363 . S
C504 H481 0.950 . S
C504 C503 1.397 . S
C504 C505 1.334 . S
C505 H482 0.950 . S
C505 C504 1.334 . S
C505 C506 1.287 . S
C506 C505 1.287 . S
C506 C507 1.524 . S
C506 H525 0.913 . S
C507 H483 0.950 . S
C507 C506 1.524 . S
C507 C508 1.415 . S
C508 H484 0.950 . S
C508 C503 1.363 . S
C508 C507 1.415 . S
C509 H485 0.951 1_565 S
C509 C510 1.366 1_565 S
C509 C511 1.388 . S
C510 C509 1.366 1_545 S
C510 C514 1.381 1_545 S
C511 H486 0.951 . S
C511 C509 1.388 . S
C511 C512 1.366 . S
C512 C511 1.366 . S
C512 C513 1.414 . S
C512 C515 1.499 . S
C513 H487 0.950 . S
C513 C512 1.414 . S
C513 C514 1.382 . S
C514 H488 0.945 1_565 S
C514 C510 1.381 1_565 S
C514 C513 1.382 . S
C515 C512 1.499 . S
C515 C516 1.373 . S
C515 C517 1.389 . S
C516 H489 0.950 . S
C516 C502 1.377 . S
C516 C515 1.373 . S
C517 C501 1.377 . S
C517 C515 1.389 . S
C517 C518 1.524 . S
C518 C517 1.524 . S
C518 C519 1.397 . S
C518 C523 1.363 . S
C519 H490 0.950 . S
C519 C518 1.397 . S
C519 C520 1.334 1_565 S
C520 H491 0.950 . S
C520 C519 1.334 1_545 S
C520 C521 1.287 . S
C521 C520 1.287 . S
C521 C522 1.524 1_545 S
C521 H524 0.999 . S
C522 H492 0.950 . S
C522 C521 1.524 1_565 S
C522 C523 1.415 . S
C523 H493 0.950 . S
C523 C518 1.363 . S
C523 C522 1.415 . S
H524 C521 0.999 . S
H525 C506 0.913 . S
H526 C544 0.943 1_545 S
H527 C546 0.951 . S
H528 C548 0.950 . S
H529 C549 0.941 1_545 S
H530 C551 0.950 . S
H531 C554 0.950 . S
H532 C555 0.950 . S
H533 C557 0.950 . S
H534 C558 0.950 . S
H535 C559 0.951 . S
H536 C561 0.951 . S
H537 C563 0.950 . S
H538 C564 0.950 . S
H539 C566 0.950 . S
H540 C569 0.950 . S
H541 C570 0.950 . S
H542 C572 0.950 . S
H543 C573 0.950 . S
C544 H526 0.943 1_565 S
C544 C545 1.361 1_565 S
C544 C546 1.400 . S
C545 C544 1.361 1_545 S
C545 C549 1.385 1_545 S
C546 H527 0.951 . S
C546 C544 1.400 . S
C546 C547 1.366 . S
C547 C546 1.366 . S
C547 C548 1.414 . S
C547 C550 1.499 . S
C548 H528 0.950 . S
C548 C547 1.414 . S
C548 C549 1.374 . S
C549 H529 0.941 1_565 S
C549 C545 1.385 1_565 S
C549 C548 1.374 . S
C550 C547 1.499 . S
C550 C551 1.373 . S
C550 C552 1.389 . S
C551 H530 0.950 . S
C551 C550 1.373 . S
C551 C567 1.377 . S
C552 C550 1.389 . S
C552 C553 1.524 . S
C552 C566 1.377 . S
C553 C552 1.524 . S
C553 C554 1.397 . S
C553 C558 1.363 . S
C554 H531 0.950 . S
C554 C553 1.397 . S
C554 C555 1.334 . S
C555 H532 0.950 . S
C555 C554 1.334 . S
C555 C556 1.287 . S
C556 C555 1.287 . S
C556 C557 1.524 . S
C556 H575 0.913 . S
C557 H533 0.950 . S
C557 C556 1.524 . S
C557 C558 1.415 . S
C558 H534 0.950 . S
C558 C553 1.363 . S
C558 C557 1.415 . S
C559 H535 0.951 . S
C559 C560 1.366 . S
C559 C561 1.388 . S
C560 C559 1.366 . S
C560 C564 1.385 . S
C561 H536 0.951 . S
C561 C559 1.388 . S
C561 C562 1.366 . S
C562 C561 1.366 . S
C562 C563 1.414 . S
C562 C565 1.499 . S
C563 H537 0.950 . S
C563 C562 1.414 . S
C563 C564 1.374 . S
C564 H538 0.950 . S
C564 C560 1.385 . S
C564 C563 1.374 . S
C565 C562 1.499 . S
C565 C566 1.373 . S
C565 C567 1.389 . S
C566 H539 0.950 . S
C566 C552 1.377 . S
C566 C565 1.373 . S
C567 C551 1.377 . S
C567 C565 1.389 . S
C567 C568 1.524 . S
C568 C567 1.524 . S
C568 C569 1.397 . S
C568 C573 1.363 . S
C569 H540 0.950 . S
C569 C568 1.397 . S
C569 C570 1.334 . S
C570 H541 0.950 . S
C570 C569 1.334 . S
C570 C571 1.287 . S
C571 C570 1.287 . S
C571 C572 1.524 . S
C571 H574 0.999 . S
C572 H542 0.950 . S
C572 C571 1.524 . S
C572 C573 1.415 . S
C573 H543 0.950 . S
C573 C568 1.363 . S
C573 C572 1.415 . S
H574 C571 0.999 . S
H575 C556 0.913 . S
H576 C594 0.951 . S
H577 C596 0.951 . S
H578 C598 0.950 . S
H579 C599 0.950 . S
H580 C601 0.950 . S
H581 C604 0.950 . S
H582 C605 0.950 . S
H583 C607 0.950 . S
H584 C608 0.950 . S
H585 C609 0.951 . S
H586 C611 0.951 . S
H587 C613 0.950 . S
H588 C614 0.950 . S
H589 C616 0.950 . S
H590 C619 0.950 . S
H591 C620 0.950 . S
H592 C622 0.950 . S
H593 C623 0.950 . S
C594 H576 0.951 . S
C594 C595 1.366 . S
C594 C596 1.388 . S
C595 C594 1.366 . S
C595 C599 1.385 . S
C596 H577 0.951 . S
C596 C594 1.388 . S
C596 C597 1.366 . S
C597 C596 1.366 . S
C597 C598 1.414 . S
C597 C600 1.499 . S
C598 H578 0.950 . S
C598 C597 1.414 . S
C598 C599 1.374 . S
C599 H579 0.950 . S
C599 C595 1.385 . S
C599 C598 1.374 . S
C600 C597 1.499 . S
C600 C601 1.373 . S
C600 C602 1.389 . S
C601 H580 0.950 . S
C601 C600 1.373 . S
C601 C617 1.377 . S
C602 C600 1.389 . S
C602 C603 1.524 . S
C602 C616 1.377 . S
C603 C602 1.524 . S
C603 C604 1.397 . S
C603 C608 1.363 . S
C604 H581 0.950 . S
C604 C603 1.397 . S
C604 C605 1.334 . S
C605 H582 0.950 . S
C605 C604 1.334 . S
C605 C606 1.287 . S
C606 C605 1.287 . S
C606 C607 1.524 . S
C606 H625 0.913 . S
C607 H583 0.950 . S
C607 C606 1.524 . S
C607 C608 1.415 . S
C608 H584 0.950 . S
C608 C603 1.363 . S
C608 C607 1.415 . S
C609 H585 0.951 . S
C609 C610 1.366 . S
C609 C611 1.388 . S
C610 C609 1.366 . S
C610 C614 1.385 . S
C611 H586 0.951 . S
C611 C609 1.388 . S
C611 C612 1.366 . S
C612 C611 1.366 . S
C612 C613 1.414 . S
C612 C615 1.499 . S
C613 H587 0.950 . S
C613 C612 1.414 . S
C613 C614 1.374 . S
C614 H588 0.950 . S
C614 C610 1.385 . S
C614 C613 1.374 . S
C615 C612 1.499 . S
C615 C616 1.373 . S
C615 C617 1.389 . S
C616 H589 0.950 . S
C616 C602 1.377 . S
C616 C615 1.373 . S
C617 C601 1.377 . S
C617 C615 1.389 . S
C617 C618 1.524 . S
C618 C617 1.524 . S
C618 C619 1.397 . S
C618 C623 1.363 . S
C619 H590 0.950 . S
C619 C618 1.397 . S
C619 C620 1.334 . S
C620 H591 0.950 . S
C620 C619 1.334 . S
C620 C621 1.287 . S
C621 C620 1.287 . S
C621 C622 1.524 . S
C621 H624 0.999 . S
C622 H592 0.950 . S
C622 C621 1.524 . S
C622 C623 1.415 . S
C623 H593 0.950 . S
C623 C618 1.363 . S
C623 C622 1.415 . S
H624 C621 0.999 . S
H625 C606 0.913 . S
H626 C644 0.951 . S
H627 C646 0.951 . S
H628 C648 0.950 . S
H629 C649 0.950 . S
H630 C651 0.950 . S
H631 C654 0.950 . S
H632 C655 0.950 . S
H633 C657 0.950 . S
H634 C658 0.950 . S
H635 C659 0.951 . S
H636 C661 0.951 . S
H637 C663 0.950 . S
H638 C664 0.950 . S
H639 C666 0.950 . S
H640 C669 0.950 . S
H641 C670 0.950 . S
H642 C672 0.950 . S
H643 C673 0.950 . S
C644 H626 0.951 . S
C644 C645 1.366 . S
C644 C646 1.388 . S
C645 C644 1.366 . S
C645 C649 1.385 . S
C646 H627 0.951 . S
C646 C644 1.388 . S
C646 C647 1.366 . S
C647 C646 1.366 . S
C647 C648 1.414 . S
C647 C650 1.499 . S
C648 H628 0.950 . S
C648 C647 1.414 . S
C648 C649 1.374 . S
C649 H629 0.950 . S
C649 C645 1.385 . S
C649 C648 1.374 . S
C650 C647 1.499 . S
C650 C651 1.373 . S
C650 C652 1.389 . S
C651 H630 0.950 . S
C651 C650 1.373 . S
C651 C667 1.377 . S
C652 C650 1.389 . S
C652 C653 1.524 . S
C652 C666 1.377 . S
C653 C652 1.524 . S
C653 C654 1.397 . S
C653 C658 1.363 . S
C654 H631 0.950 . S
C654 C653 1.397 . S
C654 C655 1.334 . S
C655 H632 0.950 . S
C655 C654 1.334 . S
C655 C656 1.287 . S
C656 C655 1.287 . S
C656 C657 1.524 . S
C656 H675 0.913 . S
C657 H633 0.950 . S
C657 C656 1.524 . S
C657 C658 1.415 . S
C658 H634 0.950 . S
C658 C653 1.363 . S
C658 C657 1.415 . S
C659 H635 0.951 . S
C659 C660 1.366 . S
C659 C661 1.388 . S
C660 C659 1.366 . S
C660 C664 1.385 . S
C661 H636 0.951 . S
C661 C659 1.388 . S
C661 C662 1.366 . S
C662 C661 1.366 . S
C662 C663 1.414 . S
C662 C665 1.499 . S
C663 H637 0.950 . S
C663 C662 1.414 . S
C663 C664 1.374 . S
C664 H638 0.950 . S
C664 C660 1.385 . S
C664 C663 1.374 . S
C665 C662 1.499 . S
C665 C666 1.373 . S
C665 C667 1.389 . S
C666 H639 0.950 . S
C666 C652 1.377 . S
C666 C665 1.373 . S
C667 C651 1.377 . S
C667 C665 1.389 . S
C667 C668 1.524 . S
C668 C667 1.524 . S
C668 C669 1.397 . S
C668 C673 1.363 . S
C669 H640 0.950 . S
C669 C668 1.397 . S
C669 C670 1.334 . S
C670 H641 0.950 . S
C670 C669 1.334 . S
C670 C671 1.287 . S
C671 C670 1.287 . S
C671 C672 1.524 . S
C671 H674 0.999 . S
C672 H642 0.950 . S
C672 C671 1.524 . S
C672 C673 1.415 . S
C673 H643 0.950 . S
C673 C668 1.363 . S
C673 C672 1.415 . S
H674 C671 0.999 . S
H675 C656 0.913 . S
H676 C694 0.951 . S
H677 C696 0.951 . S
H678 C698 0.950 . S
H679 C699 0.950 . S
H680 C701 0.950 . S
H681 C704 0.950 . S
H682 C705 0.950 . S
H683 C707 0.950 . S
H684 C708 0.950 . S
H685 C709 0.951 . S
H686 C711 0.951 . S
H687 C713 0.950 . S
H688 C714 0.950 . S
H689 C716 0.950 . S
H690 C719 0.950 . S
H691 C720 0.950 . S
H692 C722 0.950 . S
H693 C723 0.950 . S
C694 H676 0.951 . S
C694 C695 1.366 . S
C694 C696 1.388 . S
C695 C694 1.366 . S
C695 C699 1.385 . S
C696 H677 0.951 . S
C696 C694 1.388 . S
C696 C697 1.366 . S
C697 C696 1.366 . S
C697 C698 1.414 . S
C697 C700 1.499 . S
C698 H678 0.950 . S
C698 C697 1.414 . S
C698 C699 1.374 . S
C699 H679 0.950 . S
C699 C695 1.385 . S
C699 C698 1.374 . S
C700 C697 1.499 . S
C700 C701 1.373 . S
C700 C702 1.389 . S
C701 H680 0.950 . S
C701 C700 1.373 . S
C701 C717 1.377 . S
C702 C700 1.389 . S
C702 C703 1.524 . S
C702 C716 1.377 . S
C703 C702 1.524 . S
C703 C704 1.397 . S
C703 C708 1.363 . S
C704 H681 0.950 . S
C704 C703 1.397 . S
C704 C705 1.334 . S
C705 H682 0.950 . S
C705 C704 1.334 . S
C705 C706 1.287 . S
C706 C705 1.287 . S
C706 C707 1.524 . S
C706 H725 0.913 . S
C707 H683 0.950 . S
C707 C706 1.524 . S
C707 C708 1.415 . S
C708 H684 0.950 . S
C708 C703 1.363 . S
C708 C707 1.415 . S
C709 H685 0.951 . S
C709 C710 1.366 . S
C709 C711 1.388 . S
C710 C709 1.366 . S
C710 C714 1.385 . S
C711 H686 0.951 . S
C711 C709 1.388 . S
C711 C712 1.366 . S
C712 C711 1.366 . S
C712 C713 1.414 . S
C712 C715 1.499 . S
C713 H687 0.950 . S
C713 C712 1.414 . S
C713 C714 1.374 . S
C714 H688 0.950 . S
C714 C710 1.385 . S
C714 C713 1.374 . S
C715 C712 1.499 . S
C715 C716 1.373 . S
C715 C717 1.389 . S
C716 H689 0.950 . S
C716 C702 1.377 . S
C716 C715 1.373 . S
C717 C701 1.377 . S
C717 C715 1.389 . S
C717 C718 1.524 . S
C718 C717 1.524 . S
C718 C719 1.397 . S
C718 C723 1.363 . S
C719 H690 0.950 . S
C719 C718 1.397 . S
C719 C720 1.334 . S
C720 H691 0.950 . S
C720 C719 1.334 . S
C720 C721 1.287 . S
C721 C720 1.287 . S
C721 C722 1.524 . S
C721 H724 0.999 . S
C722 H692 0.950 . S
C722 C721 1.524 . S
C722 C723 1.415 . S
C723 H693 0.950 . S
C723 C718 1.363 . S
C723 C722 1.415 . S
H724 C721 0.999 . S
H725 C706 0.913 . S
H726 C744 0.951 . S
H727 C746 0.951 . S
H728 C748 0.950 . S
H729 C749 0.950 . S
H730 C751 0.950 . S
H731 C754 0.950 . S
H732 C755 0.950 . S
H733 C757 0.950 . S
H734 C758 0.950 . S
H735 C759 0.951 . S
H736 C761 0.951 . S
H737 C763 0.950 . S
H738 C764 0.950 . S
H739 C766 0.950 . S
H740 C769 0.950 . S
H741 C770 0.950 . S
H742 C772 0.950 . S
H743 C773 0.950 . S
C744 H726 0.951 . S
C744 C745 1.366 . S
C744 C746 1.388 . S
C745 C744 1.366 . S
C745 C749 1.385 . S
C746 H727 0.951 . S
C746 C744 1.388 . S
C746 C747 1.366 . S
C747 C746 1.366 . S
C747 C748 1.414 . S
C747 C750 1.499 . S
C748 H728 0.950 . S
C748 C747 1.414 . S
C748 C749 1.374 . S
C749 H729 0.950 . S
C749 C745 1.385 . S
C749 C748 1.374 . S
C750 C747 1.499 . S
C750 C751 1.373 . S
C750 C752 1.389 . S
C751 H730 0.950 . S
C751 C750 1.373 . S
C751 C767 1.377 . S
C752 C750 1.389 . S
C752 C753 1.524 . S
C752 C766 1.377 . S
C753 C752 1.524 . S
C753 C754 1.397 . S
C753 C758 1.363 . S
C754 H731 0.950 . S
C754 C753 1.397 . S
C754 C755 1.334 . S
C755 H732 0.950 . S
C755 C754 1.334 . S
C755 C756 1.287 . S
C756 C755 1.287 . S
C756 C757 1.524 . S
C756 H775 0.913 . S
C757 H733 0.950 . S
C757 C756 1.524 . S
C757 C758 1.415 . S
C758 H734 0.950 . S
C758 C753 1.363 . S
C758 C757 1.415 . S
C759 H735 0.951 . S
C759 C760 1.366 . S
C759 C761 1.388 . S
C760 C759 1.366 . S
C760 C764 1.385 . S
C761 H736 0.951 . S
C761 C759 1.388 . S
C761 C762 1.366 . S
C762 C761 1.366 . S
C762 C763 1.414 . S
C762 C765 1.499 . S
C763 H737 0.950 . S
C763 C762 1.414 . S
C763 C764 1.374 . S
C764 H738 0.950 . S
C764 C760 1.385 . S
C764 C763 1.374 . S
C765 C762 1.499 . S
C765 C766 1.373 . S
C765 C767 1.389 . S
C766 H739 0.950 . S
C766 C752 1.377 . S
C766 C765 1.373 . S
C767 C751 1.377 . S
C767 C765 1.389 . S
C767 C768 1.524 . S
C768 C767 1.524 . S
C768 C769 1.397 . S
C768 C773 1.363 . S
C769 H740 0.950 . S
C769 C768 1.397 . S
C769 C770 1.334 . S
C770 H741 0.950 . S
C770 C769 1.334 . S
C770 C771 1.287 . S
C771 C770 1.287 . S
C771 C772 1.524 . S
C771 H774 0.999 . S
C772 H742 0.950 . S
C772 C771 1.524 . S
C772 C773 1.415 . S
C773 H743 0.950 . S
C773 C768 1.363 . S
C773 C772 1.415 . S
H774 C771 0.999 . S
H775 C756 0.913 . S
H776 C794 0.951 . S
H777 C796 0.951 . S
H778 C798 0.950 . S
H779 C799 0.950 . S
H780 C801 0.950 . S
H781 C804 0.950 . S
H782 C805 0.950 . S
H783 C807 0.950 . S
H784 C808 0.950 . S
H785 C809 0.951 . S
H786 C811 0.951 . S
H787 C813 0.950 . S
H788 C814 0.950 . S
H789 C816 0.950 . S
H790 C819 0.950 . S
H791 C820 0.950 . S
H792 C822 0.950 . S
H793 C823 0.950 . S
C794 H776 0.951 . S
C794 C795 1.366 . S
C794 C796 1.388 . S
C795 C794 1.366 . S
C795 C799 1.385 . S
C796 H777 0.951 . S
C796 C794 1.388 . S
C796 C797 1.366 . S
C797 C796 1.366 . S
C797 C798 1.414 . S
C797 C800 1.499 . S
C798 H778 0.950 . S
C798 C797 1.414 . S
C798 C799 1.374 . S
C799 H779 0.950 . S
C799 C795 1.385 . S
C799 C798 1.374 . S
C800 C797 1.499 . S
C800 C801 1.373 . S
C800 C802 1.389 . S
C801 H780 0.950 . S
C801 C800 1.373 . S
C801 C817 1.377 1_455 S
C802 C800 1.389 . S
C802 C803 1.524 . S
C802 C816 1.377 1_455 S
C803 C802 1.524 . S
C803 C804 1.397 . S
C803 C808 1.363 . S
C804 H781 0.950 . S
C804 C803 1.397 . S
C804 C805 1.334 . S
C805 H782 0.950 . S
C805 C804 1.334 . S
C805 C806 1.287 . S
C806 C805 1.287 . S
C806 C807 1.524 . S
C806 H825 0.913 . S
C807 H783 0.950 . S
C807 C806 1.524 . S
C807 C808 1.415 . S
C808 H784 0.950 . S
C808 C803 1.363 . S
C808 C807 1.415 . S
C809 H785 0.951 . S
C809 C810 1.366 . S
C809 C811 1.388 . S
C810 C809 1.366 . S
C810 C814 1.385 . S
C811 H786 0.951 . S
C811 C809 1.388 . S
C811 C812 1.366 . S
C812 C811 1.366 . S
C812 C813 1.414 . S
C812 C815 1.499 . S
C813 H787 0.950 . S
C813 C812 1.414 . S
C813 C814 1.374 . S
C814 H788 0.950 . S
C814 C810 1.385 . S
C814 C813 1.374 . S
C815 C812 1.499 . S
C815 C816 1.373 . S
C815 C817 1.389 . S
C816 H789 0.950 . S
C816 C802 1.377 1_655 S
C816 C815 1.373 . S
C817 C801 1.377 1_655 S
C817 C815 1.389 . S
C817 C818 1.524 . S
C818 C817 1.524 . S
C818 C819 1.397 . S
C818 C823 1.363 . S
C819 H790 0.950 . S
C819 C818 1.397 . S
C819 C820 1.334 . S
C820 H791 0.950 . S
C820 C819 1.334 . S
C820 C821 1.287 . S
C821 C820 1.287 . S
C821 C822 1.524 . S
C821 H824 0.999 . S
C822 H792 0.950 . S
C822 C821 1.524 . S
C822 C823 1.415 . S
C823 H793 0.950 . S
C823 C818 1.363 . S
C823 C822 1.415 . S
H824 C821 0.999 . S
H825 C806 0.913 . S
H826 C844 0.951 . S
H827 C846 0.951 . S
H828 C848 0.950 . S
H829 C849 0.950 . S
H830 C851 0.950 . S
H831 C854 0.950 . S
H832 C855 0.950 . S
H833 C857 0.950 . S
H834 C858 0.950 . S
H835 C859 0.951 . S
H836 C861 0.951 . S
H837 C863 0.950 . S
H838 C864 0.950 . S
H839 C866 0.950 . S
H840 C869 0.950 . S
H841 C870 0.950 . S
H842 C872 0.950 . S
H843 C873 0.950 . S
C844 H826 0.951 . S
C844 C845 1.366 . S
C844 C846 1.388 . S
C845 C844 1.366 . S
C845 C849 1.385 . S
C846 H827 0.951 . S
C846 C844 1.388 . S
C846 C847 1.366 . S
C847 C846 1.366 . S
C847 C848 1.414 . S
C847 C850 1.499 . S
C848 H828 0.950 . S
C848 C847 1.414 . S
C848 C849 1.374 . S
C849 H829 0.950 . S
C849 C845 1.385 . S
C849 C848 1.374 . S
C850 C847 1.499 . S
C850 C851 1.373 . S
C850 C852 1.389 . S
C851 H830 0.950 . S
C851 C850 1.373 . S
C851 C867 1.377 1_455 S
C852 C850 1.389 . S
C852 C853 1.524 . S
C852 C866 1.377 1_455 S
C853 C852 1.524 . S
C853 C854 1.397 . S
C853 C858 1.363 . S
C854 H831 0.950 . S
C854 C853 1.397 . S
C854 C855 1.334 . S
C855 H832 0.950 . S
C855 C854 1.334 . S
C855 C856 1.287 . S
C856 C855 1.287 . S
C856 C857 1.524 . S
C856 H875 0.913 . S
C857 H833 0.950 . S
C857 C856 1.524 . S
C857 C858 1.415 . S
C858 H834 0.950 . S
C858 C853 1.363 . S
C858 C857 1.415 . S
C859 H835 0.951 . S
C859 C860 1.366 . S
C859 C861 1.388 . S
C860 C859 1.366 . S
C860 C864 1.385 . S
C861 H836 0.951 . S
C861 C859 1.388 . S
C861 C862 1.366 . S
C862 C861 1.366 . S
C862 C863 1.414 . S
C862 C865 1.499 . S
C863 H837 0.950 . S
C863 C862 1.414 . S
C863 C864 1.374 . S
C864 H838 0.950 . S
C864 C860 1.385 . S
C864 C863 1.374 . S
C865 C862 1.499 . S
C865 C866 1.373 . S
C865 C867 1.389 . S
C866 H839 0.950 . S
C866 C852 1.377 1_655 S
C866 C865 1.373 . S
C867 C851 1.377 1_655 S
C867 C865 1.389 . S
C867 C868 1.524 . S
C868 C867 1.524 . S
C868 C869 1.397 . S
C868 C873 1.363 . S
C869 H840 0.950 . S
C869 C868 1.397 . S
C869 C870 1.334 . S
C870 H841 0.950 . S
C870 C869 1.334 . S
C870 C871 1.287 . S
C871 C870 1.287 . S
C871 C872 1.524 . S
C871 H874 0.999 . S
C872 H842 0.950 . S
C872 C871 1.524 . S
C872 C873 1.415 . S
C873 H843 0.950 . S
C873 C868 1.363 . S
C873 C872 1.415 . S
H874 C871 0.999 . S
H875 C856 0.913 . S
H876 C894 0.951 . S
H877 C896 0.951 . S
H878 C898 0.950 . S
H879 C899 0.950 . S
H880 C901 0.950 . S
H881 C904 0.950 . S
H882 C905 0.950 . S
H883 C907 0.950 . S
H884 C908 0.950 . S
H885 C909 0.951 . S
H886 C911 0.951 . S
H887 C913 0.950 . S
H888 C914 0.950 . S
H889 C916 0.950 . S
H890 C919 0.950 . S
H891 C920 0.950 . S
H892 C922 0.950 . S
H893 C923 0.950 . S
C894 H876 0.951 . S
C894 C895 1.366 . S
C894 C896 1.388 . S
C895 C894 1.366 . S
C895 C899 1.385 . S
C896 H877 0.951 . S
C896 C894 1.388 . S
C896 C897 1.366 . S
C897 C896 1.366 . S
C897 C898 1.414 . S
C897 C900 1.499 . S
C898 H878 0.950 . S
C898 C897 1.414 . S
C898 C899 1.374 . S
C899 H879 0.950 . S
C899 C895 1.385 . S
C899 C898 1.374 . S
C900 C897 1.499 . S
C900 C901 1.373 . S
C900 C902 1.389 . S
C901 H880 0.950 . S
C901 C900 1.373 . S
C901 C917 1.377 . S
C902 C900 1.389 . S
C902 C903 1.524 . S
C902 C916 1.377 . S
C903 C902 1.524 . S
C903 C904 1.397 . S
C903 C908 1.363 . S
C904 H881 0.950 . S
C904 C903 1.397 . S
C904 C905 1.334 . S
C905 H882 0.950 . S
C905 C904 1.334 . S
C905 C906 1.287 . S
C906 C905 1.287 . S
C906 C907 1.524 . S
C906 H925 0.913 . S
C907 H883 0.950 . S
C907 C906 1.524 . S
C907 C908 1.415 . S
C908 H884 0.950 . S
C908 C903 1.363 . S
C908 C907 1.415 . S
C909 H885 0.951 . S
C909 C910 1.366 . S
C909 C911 1.388 . S
C910 C909 1.366 . S
C910 C914 1.385 . S
C911 H886 0.951 . S
C911 C909 1.388 . S
C911 C912 1.366 . S
C912 C911 1.366 . S
C912 C913 1.414 . S
C912 C915 1.499 . S
C913 H887 0.950 . S
C913 C912 1.414 . S
C913 C914 1.374 . S
C914 H888 0.950 . S
C914 C910 1.385 . S
C914 C913 1.374 . S
C915 C912 1.499 . S
C915 C916 1.373 . S
C915 C917 1.389 . S
C916 H889 0.950 . S
C916 C902 1.377 . S
C916 C915 1.373 . S
C917 C901 1.377 . S
C917 C915 1.389 . S
C917 C918 1.524 . S
C918 C917 1.524 . S
C918 C919 1.397 . S
C918 C923 1.363 . S
C919 H890 0.950 . S
C919 C918 1.397 . S
C919 C920 1.334 . S
C920 H891 0.950 . S
C920 C919 1.334 . S
C920 C921 1.287 . S
C921 C920 1.287 . S
C921 C922 1.524 . S
C921 H924 0.999 . S
C922 H892 0.950 . S
C922 C921 1.524 . S
C922 C923 1.415 . S
C923 H893 0.950 . S
C923 C918 1.363 . S
C923 C922 1.415 . S
H924 C921 0.999 . S
H925 C906 0.913 . S
H926 C944 0.951 . S
H927 C946 0.951 . S
H928 C948 0.950 . S
H929 C949 0.950 . S
H930 C951 0.950 . S
H931 C954 0.950 . S
H932 C955 0.950 . S
H933 C957 0.950 . S
H934 C958 0.950 . S
H935 C959 0.951 . S
H936 C961 0.951 . S
H937 C963 0.950 . S
H938 C964 0.950 . S
H939 C966 0.950 . S
H940 C969 0.950 . S
H941 C970 0.950 . S
H942 C972 0.950 . S
H943 C973 0.950 . S
C944 H926 0.951 . S
C944 C945 1.366 . S
C944 C946 1.388 . S
C945 C944 1.366 . S
C945 C949 1.385 . S
C946 H927 0.951 . S
C946 C944 1.388 . S
C946 C947 1.366 . S
C947 C946 1.366 . S
C947 C948 1.414 . S
C947 C950 1.499 . S
C948 H928 0.950 . S
C948 C947 1.414 . S
C948 C949 1.374 . S
C949 H929 0.950 . S
C949 C945 1.385 . S
C949 C948 1.374 . S
C950 C947 1.499 . S
C950 C951 1.373 . S
C950 C952 1.389 . S
C951 H930 0.950 . S
C951 C950 1.373 . S
C951 C967 1.377 . S
C952 C950 1.389 . S
C952 C953 1.524 . S
C952 C966 1.377 . S
C953 C952 1.524 . S
C953 C954 1.397 . S
C953 C958 1.363 . S
C954 H931 0.950 . S
C954 C953 1.397 . S
C954 C955 1.334 . S
C955 H932 0.950 . S
C955 C954 1.334 . S
C955 C956 1.287 . S
C956 C955 1.287 . S
C956 C957 1.524 . S
C956 H975 0.913 . S
C957 H933 0.950 . S
C957 C956 1.524 . S
C957 C958 1.415 . S
C958 H934 0.950 . S
C958 C953 1.363 . S
C958 C957 1.415 . S
C959 H935 0.951 . S
C959 C960 1.366 . S
C959 C961 1.388 . S
C960 C959 1.366 . S
C960 C964 1.385 . S
C961 H936 0.951 . S
C961 C959 1.388 . S
C961 C962 1.366 . S
C962 C961 1.366 . S
C962 C963 1.414 . S
C962 C965 1.499 . S
C963 H937 0.950 . S
C963 C962 1.414 . S
C963 C964 1.374 . S
C964 H938 0.950 . S
C964 C960 1.385 . S
C964 C963 1.374 . S
C965 C962 1.499 . S
C965 C966 1.373 . S
C965 C967 1.389 . S
C966 H939 0.950 . S
C966 C952 1.377 . S
C966 C965 1.373 . S
C967 C951 1.377 . S
C967 C965 1.389 . S
C967 C968 1.524 . S
C968 C967 1.524 . S
C968 C969 1.397 . S
C968 C973 1.363 . S
C969 H940 0.950 . S
C969 C968 1.397 . S
C969 C970 1.334 . S
C970 H941 0.950 . S
C970 C969 1.334 . S
C970 C971 1.287 . S
C971 C970 1.287 . S
C971 C972 1.524 . S
C971 H974 0.999 . S
C972 H942 0.950 . S
C972 C971 1.524 . S
C972 C973 1.415 . S
C973 H943 0.950 . S
C973 C968 1.363 . S
C973 C972 1.415 . S
H974 C971 0.999 . S
H975 C956 0.913 . S
H976 C994 0.951 . S
H977 C996 0.951 . S
H978 C998 0.950 . S
H979 C999 0.950 . S
H980 C1001 0.950 . S
H981 C1004 0.950 . S
H982 C1005 0.950 . S
H983 C1007 0.950 . S
H984 C1008 0.950 1_554 S
H985 C1009 0.951 . S
H986 C1011 0.951 . S
H987 C1013 0.950 . S
H988 C1014 0.950 . S
H989 C1016 0.950 . S
H990 C1019 0.950 . S
H991 C1020 0.950 . S
H992 C1022 0.950 . S
H993 C1023 0.950 . S
C994 H976 0.951 . S
C994 C995 1.366 . S
C994 C996 1.388 . S
C995 C994 1.366 . S
C995 C999 1.385 . S
C996 H977 0.951 . S
C996 C994 1.388 . S
C996 C997 1.366 . S
C997 C996 1.366 . S
C997 C998 1.414 . S
C997 C1000 1.492 1_556 S
C998 H978 0.950 . S
C998 C997 1.414 . S
C998 C999 1.374 . S
C999 H979 0.950 . S
C999 C995 1.385 . S
C999 C998 1.374 . S
C1000 C997 1.492 1_554 S
C1000 C1001 1.379 . S
C1000 C1002 1.391 . S
C1001 H980 0.950 . S
C1001 C1000 1.379 . S
C1001 C1017 1.377 . S
C1002 C1000 1.391 . S
C1002 C1003 1.524 1_554 S
C1002 C1016 1.377 . S
C1003 C1002 1.524 1_556 S
C1003 C1004 1.397 . S
C1003 C1008 1.363 . S
C1004 H981 0.950 . S
C1004 C1003 1.397 . S
C1004 C1005 1.334 . S
C1005 H982 0.950 . S
C1005 C1004 1.334 . S
C1005 C1006 1.287 . S
C1006 C1005 1.287 . S
C1006 C1007 1.524 . S
C1006 H1025 0.913 . S
C1007 H983 0.950 . S
C1007 C1006 1.524 . S
C1007 C1008 1.415 . S
C1008 H984 0.950 1_556 S
C1008 C1003 1.363 . S
C1008 C1007 1.415 . S
C1009 H985 0.951 . S
C1009 C1010 1.366 . S
C1009 C1011 1.388 . S
C1010 C1009 1.366 . S
C1010 C1014 1.385 . S
C1011 H986 0.951 . S
C1011 C1009 1.388 . S
C1011 C1012 1.366 . S
C1012 C1011 1.366 . S
C1012 C1013 1.414 . S
C1012 C1015 1.499 . S
C1013 H987 0.950 . S
C1013 C1012 1.414 . S
C1013 C1014 1.374 . S
C1014 H988 0.950 . S
C1014 C1010 1.385 . S
C1014 C1013 1.374 . S
C1015 C1012 1.499 . S
C1015 C1016 1.373 . S
C1015 C1017 1.389 . S
C1016 H989 0.950 . S
C1016 C1002 1.377 . S
C1016 C1015 1.373 . S
C1017 C1001 1.377 . S
C1017 C1015 1.389 . S
C1017 C1018 1.524 . S
C1018 C1017 1.524 . S
C1018 C1019 1.397 . S
C1018 C1023 1.363 . S
C1019 H990 0.950 . S
C1019 C1018 1.397 . S
C1019 C1020 1.334 . S
C1020 H991 0.950 . S
C1020 C1019 1.334 . S
C1020 C1021 1.287 . S
C1021 C1020 1.287 . S
C1021 C1022 1.524 . S
C1021 H1024 0.999 . S
C1022 H992 0.950 . S
C1022 C1021 1.524 . S
C1022 C1023 1.415 . S
C1023 H993 0.950 . S
C1023 C1018 1.363 . S
C1023 C1022 1.415 . S
H1024 C1021 0.999 . S
H1025 C1006 0.913 . S
H1026 C1044 0.951 . S
H1027 C1046 0.951 . S
H1028 C1048 0.950 . S
H1029 C1049 0.950 . S
H1030 C1051 0.950 . S
H1031 C1054 0.950 . S
H1032 C1055 0.950 . S
H1033 C1057 0.950 . S
H1034 C1058 0.950 . S
H1035 C1059 0.951 . S
H1036 C1061 0.951 . S
H1037 C1063 0.950 . S
H1038 C1064 0.950 . S
H1039 C1066 0.950 . S
H1040 C1069 0.950 . S
H1041 C1070 0.950 . S
H1042 C1072 0.950 . S
H1043 C1073 0.950 . S
C1044 H1026 0.951 . S
C1044 C1045 1.366 . S
C1044 C1046 1.388 . S
C1045 C1044 1.366 . S
C1045 C1049 1.385 . S
C1046 H1027 0.951 . S
C1046 C1044 1.388 . S
C1046 C1047 1.366 . S
C1047 C1046 1.366 . S
C1047 C1048 1.414 . S
C1047 C1050 1.499 . S
C1048 H1028 0.950 . S
C1048 C1047 1.414 . S
C1048 C1049 1.374 . S
C1049 H1029 0.950 . S
C1049 C1045 1.385 . S
C1049 C1048 1.374 . S
C1050 C1047 1.499 . S
C1050 C1051 1.373 . S
C1050 C1052 1.389 . S
C1051 H1030 0.950 . S
C1051 C1050 1.373 . S
C1051 C1067 1.377 . S
C1052 C1050 1.389 . S
C1052 C1053 1.524 . S
C1052 C1066 1.377 . S
C1053 C1052 1.524 . S
C1053 C1054 1.397 . S
C1053 C1058 1.363 . S
C1054 H1031 0.950 . S
C1054 C1053 1.397 . S
C1054 C1055 1.334 . S
C1055 H1032 0.950 . S
C1055 C1054 1.334 . S
C1055 C1056 1.287 . S
C1056 C1055 1.287 . S
C1056 C1057 1.524 . S
C1056 H1075 0.913 . S
C1057 H1033 0.950 . S
C1057 C1056 1.524 . S
C1057 C1058 1.415 . S
C1058 H1034 0.950 . S
C1058 C1053 1.363 . S
C1058 C1057 1.415 . S
C1059 H1035 0.951 . S
C1059 C1060 1.366 . S
C1059 C1061 1.388 . S
C1060 C1059 1.366 . S
C1060 C1064 1.385 . S
C1061 H1036 0.951 . S
C1061 C1059 1.388 . S
C1061 C1062 1.366 . S
C1062 C1061 1.366 . S
C1062 C1063 1.414 . S
C1062 C1065 1.499 . S
C1063 H1037 0.950 . S
C1063 C1062 1.414 . S
C1063 C1064 1.374 . S
C1064 H1038 0.950 . S
C1064 C1060 1.385 . S
C1064 C1063 1.374 . S
C1065 C1062 1.499 . S
C1065 C1066 1.373 . S
C1065 C1067 1.389 . S
C1066 H1039 0.950 . S
C1066 C1052 1.377 . S
C1066 C1065 1.373 . S
C1067 C1051 1.377 . S
C1067 C1065 1.389 . S
C1067 C1068 1.524 . S
C1068 C1067 1.524 . S
C1068 C1069 1.397 . S
C1068 C1073 1.363 . S
C1069 H1040 0.950 . S
C1069 C1068 1.397 . S
C1069 C1070 1.334 . S
C1070 H1041 0.950 . S
C1070 C1069 1.334 . S
C1070 C1071 1.287 . S
C1071 C1070 1.287 . S
C1071 C1072 1.524 . S
C1071 H1074 0.999 . S
C1072 H1042 0.950 . S
C1072 C1071 1.524 . S
C1072 C1073 1.415 . S
C1073 H1043 0.950 . S
C1073 C1068 1.363 . S
C1073 C1072 1.415 . S
H1074 C1071 0.999 . S
H1075 C1056 0.913 . S
H1076 C1094 0.951 . S
H1077 C1096 0.951 . S
H1078 C1098 0.950 . S
H1079 C1099 0.950 . S
H1080 C1101 0.950 . S
H1081 C1104 0.950 . S
H1082 C1105 0.950 . S
H1083 C1107 0.950 . S
H1084 C1108 0.950 . S
H1085 C1109 0.951 . S
H1086 C1111 0.951 . S
H1087 C1113 0.950 . S
H1088 C1114 0.950 . S
H1089 C1116 0.950 . S
H1090 C1119 0.950 . S
H1091 C1120 0.950 . S
H1092 C1122 0.950 . S
H1093 C1123 0.950 . S
C1094 H1076 0.951 . S
C1094 C1095 1.366 . S
C1094 C1096 1.388 . S
C1095 C1094 1.366 . S
C1095 C1099 1.385 . S
C1096 H1077 0.951 . S
C1096 C1094 1.388 . S
C1096 C1097 1.366 . S
C1097 C1096 1.366 . S
C1097 C1098 1.414 . S
C1097 C1100 1.499 . S
C1098 H1078 0.950 . S
C1098 C1097 1.414 . S
C1098 C1099 1.374 . S
C1099 H1079 0.950 . S
C1099 C1095 1.385 . S
C1099 C1098 1.374 . S
C1100 C1097 1.499 . S
C1100 C1101 1.373 . S
C1100 C1102 1.389 . S
C1101 H1080 0.950 . S
C1101 C1100 1.373 . S
C1101 C1117 1.377 . S
C1102 C1100 1.389 . S
C1102 C1103 1.524 . S
C1102 C1116 1.377 . S
C1103 C1102 1.524 . S
C1103 C1104 1.397 . S
C1103 C1108 1.363 . S
C1104 H1081 0.950 . S
C1104 C1103 1.397 . S
C1104 C1105 1.334 . S
C1105 H1082 0.950 . S
C1105 C1104 1.334 . S
C1105 C1106 1.287 . S
C1106 C1105 1.287 . S
C1106 C1107 1.524 . S
C1106 H1125 0.913 . S
C1107 H1083 0.950 . S
C1107 C1106 1.524 . S
C1107 C1108 1.415 . S
C1108 H1084 0.950 . S
C1108 C1103 1.363 . S
C1108 C1107 1.415 . S
C1109 H1085 0.951 . S
C1109 C1110 1.366 . S
C1109 C1111 1.388 . S
C1110 C1109 1.366 . S
C1110 C1114 1.385 . S
C1111 H1086 0.951 . S
C1111 C1109 1.388 . S
C1111 C1112 1.366 . S
C1112 C1111 1.366 . S
C1112 C1113 1.414 . S
C1112 C1115 1.488 1_554 S
C1113 H1087 0.950 . S
C1113 C1112 1.414 . S
C1113 C1114 1.374 . S
C1114 H1088 0.950 . S
C1114 C1110 1.385 . S
C1114 C1113 1.374 . S
C1115 C1112 1.488 1_556 S
C1115 C1116 1.384 . S
C1115 C1117 1.390 . S
C1116 H1089 0.950 . S
C1116 C1102 1.377 . S
C1116 C1115 1.384 . S
C1117 C1101 1.377 . S
C1117 C1115 1.390 . S
C1117 C1118 1.524 1_556 S
C1118 C1117 1.524 1_554 S
C1118 C1119 1.397 . S
C1118 C1123 1.363 . S
C1119 H1090 0.950 . S
C1119 C1118 1.397 . S
C1119 C1120 1.334 . S
C1120 H1091 0.950 . S
C1120 C1119 1.334 . S
C1120 C1121 1.287 . S
C1121 C1120 1.287 . S
C1121 C1122 1.524 . S
C1121 H1124 0.999 . S
C1122 H1092 0.950 . S
C1122 C1121 1.524 . S
C1122 C1123 1.415 . S
C1123 H1093 0.950 . S
C1123 C1118 1.363 . S
C1123 C1122 1.415 . S
H1124 C1121 0.999 . S
H1125 C1106 0.913 . S
H1126 C1144 0.951 . S
H1127 C1146 0.951 . S
H1128 C1148 0.950 . S
H1129 C1149 0.950 . S
H1130 C1151 0.950 . S
H1131 C1154 0.950 . S
H1132 C1155 0.950 . S
H1133 C1157 0.950 . S
H1134 C1158 0.950 . S
H1135 C1159 0.951 . S
H1136 C1161 0.951 . S
H1137 C1163 0.950 . S
H1138 C1164 0.950 . S
H1139 C1166 0.950 . S
H1140 C1169 0.950 . S
H1141 C1170 0.950 . S
H1142 C1172 0.950 . S
H1143 C1173 0.950 . S
C1144 H1126 0.951 . S
C1144 C1145 1.366 . S
C1144 C1146 1.388 . S
C1145 C1144 1.366 . S
C1145 C1149 1.385 . S
C1146 H1127 0.951 . S
C1146 C1144 1.388 . S
C1146 C1147 1.366 . S
C1147 C1146 1.366 . S
C1147 C1148 1.414 . S
C1147 C1150 1.499 . S
C1148 H1128 0.950 . S
C1148 C1147 1.414 . S
C1148 C1149 1.374 . S
C1149 H1129 0.950 . S
C1149 C1145 1.385 . S
C1149 C1148 1.374 . S
C1150 C1147 1.499 . S
C1150 C1151 1.373 . S
C1150 C1152 1.389 . S
C1151 H1130 0.950 . S
C1151 C1150 1.373 . S
C1151 C1167 1.377 . S
C1152 C1150 1.389 . S
C1152 C1153 1.524 . S
C1152 C1166 1.377 . S
C1153 C1152 1.524 . S
C1153 C1154 1.397 . S
C1153 C1158 1.363 . S
C1154 H1131 0.950 . S
C1154 C1153 1.397 . S
C1154 C1155 1.334 . S
C1155 H1132 0.950 . S
C1155 C1154 1.334 . S
C1155 C1156 1.287 . S
C1156 C1155 1.287 . S
C1156 C1157 1.524 . S
C1156 H1175 0.913 . S
C1157 H1133 0.950 . S
C1157 C1156 1.524 . S
C1157 C1158 1.415 . S
C1158 H1134 0.950 . S
C1158 C1153 1.363 . S
C1158 C1157 1.415 . S
C1159 H1135 0.951 . S
C1159 C1160 1.366 . S
C1159 C1161 1.388 . S
C1160 C1159 1.366 . S
C1160 C1164 1.385 . S
C1161 H1136 0.951 . S
C1161 C1159 1.388 . S
C1161 C1162 1.366 . S
C1162 C1161 1.366 . S
C1162 C1163 1.414 . S
C1162 C1165 1.499 . S
C1163 H1137 0.950 . S
C1163 C1162 1.414 . S
C1163 C1164 1.374 . S
C1164 H1138 0.950 . S
C1164 C1160 1.385 . S
C1164 C1163 1.374 . S
C1165 C1162 1.499 . S
C1165 C1166 1.373 . S
C1165 C1167 1.389 . S
C1166 H1139 0.950 . S
C1166 C1152 1.377 . S
C1166 C1165 1.373 . S
C1167 C1151 1.377 . S
C1167 C1165 1.389 . S
C1167 C1168 1.524 . S
C1168 C1167 1.524 . S
C1168 C1169 1.397 . S
C1168 C1173 1.363 . S
C1169 H1140 0.950 . S
C1169 C1168 1.397 . S
C1169 C1170 1.334 . S
C1170 H1141 0.950 . S
C1170 C1169 1.334 . S
C1170 C1171 1.287 . S
C1171 C1170 1.287 . S
C1171 C1172 1.524 . S
C1171 H1174 0.999 . S
C1172 H1142 0.950 . S
C1172 C1171 1.524 . S
C1172 C1173 1.415 . S
C1173 H1143 0.950 . S
C1173 C1168 1.363 . S
C1173 C1172 1.415 . S
H1174 C1171 0.999 . S
H1175 C1156 0.913 . S
H1176 C1194 0.951 . S
H1177 C1196 0.951 . S
H1178 C1198 0.950 . S
H1179 C1199 0.950 . S
H1180 C1201 0.950 . S
H1181 C1204 0.950 . S
H1182 C1205 0.950 . S
H1183 C1207 0.950 . S
H1184 C1208 0.950 . S
H1185 C1209 0.951 . S
H1186 C1211 0.951 . S
H1187 C1213 0.950 . S
H1188 C1214 0.950 . S
H1189 C1216 0.950 . S
H1190 C1219 0.950 . S
H1191 C1220 0.950 . S
H1192 C1222 0.950 . S
H1193 C1223 0.950 . S
C1194 H1176 0.951 . S
C1194 C1195 1.366 . S
C1194 C1196 1.388 . S
C1195 C1194 1.366 . S
C1195 C1199 1.385 . S
C1196 H1177 0.951 . S
C1196 C1194 1.388 . S
C1196 C1197 1.366 . S
C1197 C1196 1.366 . S
C1197 C1198 1.414 . S
C1197 C1200 1.482 1_556 S
C1198 H1178 0.950 . S
C1198 C1197 1.414 . S
C1198 C1199 1.374 . S
C1199 H1179 0.950 . S
C1199 C1195 1.385 . S
C1199 C1198 1.374 . S
C1200 C1197 1.482 1_554 S
C1200 C1201 1.389 . S
C1200 C1202 1.391 1_545 S
C1201 H1180 0.950 . S
C1201 C1200 1.389 . S
C1201 C1217 1.377 . S
C1202 C1200 1.391 1_565 S
C1202 C1203 1.524 1_554 S
C1202 C1216 1.377 . S
C1203 C1202 1.524 1_556 S
C1203 C1204 1.397 . S
C1203 C1208 1.363 . S
C1204 H1181 0.950 . S
C1204 C1203 1.397 . S
C1204 C1205 1.334 . S
C1205 H1182 0.950 . S
C1205 C1204 1.334 . S
C1205 C1206 1.287 . S
C1206 C1205 1.287 . S
C1206 C1207 1.524 . S
C1206 H1225 0.913 . S
C1207 H1183 0.950 . S
C1207 C1206 1.524 . S
C1207 C1208 1.415 . S
C1208 H1184 0.950 . S
C1208 C1203 1.363 . S
C1208 C1207 1.415 . S
C1209 H1185 0.951 . S
C1209 C1210 1.366 . S
C1209 C1211 1.388 . S
C1210 C1209 1.366 . S
C1210 C1214 1.385 . S
C1211 H1186 0.951 . S
C1211 C1209 1.388 . S
C1211 C1212 1.366 . S
C1212 C1211 1.366 . S
C1212 C1213 1.414 . S
C1212 C1215 1.499 . S
C1213 H1187 0.950 . S
C1213 C1212 1.414 . S
C1213 C1214 1.374 . S
C1214 H1188 0.950 . S
C1214 C1210 1.385 . S
C1214 C1213 1.374 . S
C1215 C1212 1.499 . S
C1215 C1216 1.373 . S
C1215 C1217 1.389 1_565 S
C1216 H1189 0.950 . S
C1216 C1202 1.377 . S
C1216 C1215 1.373 . S
C1217 C1201 1.377 . S
C1217 C1215 1.389 1_545 S
C1217 C1218 1.524 . S
C1218 C1217 1.524 . S
C1218 C1219 1.397 . S
C1218 C1223 1.363 . S
C1219 H1190 0.950 . S
C1219 C1218 1.397 . S
C1219 C1220 1.334 . S
C1220 H1191 0.950 . S
C1220 C1219 1.334 . S
C1220 C1221 1.287 . S
C1221 C1220 1.287 . S
C1221 C1222 1.524 . S
C1221 H1224 0.999 . S
C1222 H1192 0.950 . S
C1222 C1221 1.524 . S
C1222 C1223 1.415 . S
C1223 H1193 0.950 . S
C1223 C1218 1.363 . S
C1223 C1222 1.415 . S
H1224 C1221 0.999 . S
H1225 C1206 0.913 . S
H1226 C1244 0.951 . S
H1227 C1246 0.951 1_565 S
H1228 C1248 0.950 . S
H1229 C1249 0.950 . S
H1230 C1251 0.950 . S
H1231 C1254 0.950 . S
H1232 C1255 0.950 . S
H1233 C1257 0.950 . S
H1234 C1258 0.950 . S
H1235 C1259 0.951 . S
H1236 C1261 0.951 . S
H1237 C1263 0.950 . S
H1238 C1264 0.950 . S
H1239 C1266 0.950 . S
H1240 C1269 0.950 . S
H1241 C1270 0.950 . S
H1242 C1272 0.950 . S
H1243 C1273 0.950 . S
C1244 H1226 0.951 . S
C1244 C1245 1.366 . S
C1244 C1246 1.388 . S
C1245 C1244 1.366 . S
C1245 C1249 1.385 . S
C1246 H1227 0.951 1_545 S
C1246 C1244 1.388 . S
C1246 C1247 1.366 . S
C1247 C1246 1.366 . S
C1247 C1248 1.414 . S
C1247 C1250 1.499 . S
C1248 H1228 0.950 . S
C1248 C1247 1.414 . S
C1248 C1249 1.374 . S
C1249 H1229 0.950 . S
C1249 C1245 1.385 . S
C1249 C1248 1.374 . S
C1250 C1247 1.499 . S
C1250 C1251 1.373 . S
C1250 C1252 1.389 1_545 S
C1251 H1230 0.950 . S
C1251 C1250 1.373 . S
C1251 C1267 1.377 1_545 S
C1252 C1250 1.389 1_565 S
C1252 C1253 1.524 . S
C1252 C1266 1.377 . S
C1253 C1252 1.524 . S
C1253 C1254 1.397 1_565 S
C1253 C1258 1.363 . S
C1254 H1231 0.950 . S
C1254 C1253 1.397 1_545 S
C1254 C1255 1.334 . S
C1255 H1232 0.950 . S
C1255 C1254 1.334 . S
C1255 C1256 1.287 1_545 S
C1256 C1255 1.287 1_565 S
C1256 C1257 1.524 . S
C1256 H1275 0.913 . S
C1257 H1233 0.950 . S
C1257 C1256 1.524 . S
C1257 C1258 1.415 . S
C1258 H1234 0.950 . S
C1258 C1253 1.363 . S
C1258 C1257 1.415 . S
C1259 H1235 0.951 . S
C1259 C1260 1.366 . S
C1259 C1261 1.388 . S
C1260 C1259 1.366 . S
C1260 C1264 1.385 . S
C1261 H1236 0.951 . S
C1261 C1259 1.388 . S
C1261 C1262 1.366 . S
C1262 C1261 1.366 . S
C1262 C1263 1.414 . S
C1262 C1265 1.499 . S
C1263 H1237 0.950 . S
C1263 C1262 1.414 . S
C1263 C1264 1.374 . S
C1264 H1238 0.950 . S
C1264 C1260 1.385 . S
C1264 C1263 1.374 . S
C1265 C1262 1.499 . S
C1265 C1266 1.373 . S
C1265 C1267 1.389 . S
C1266 H1239 0.950 . S
C1266 C1252 1.377 . S
C1266 C1265 1.373 . S
C1267 C1251 1.377 1_565 S
C1267 C1265 1.389 . S
C1267 C1268 1.524 . S
C1268 C1267 1.524 . S
C1268 C1269 1.397 . S
C1268 C1273 1.363 1_565 S
C1269 H1240 0.950 . S
C1269 C1268 1.397 . S
C1269 C1270 1.334 . S
C1270 H1241 0.950 . S
C1270 C1269 1.334 . S
C1270 C1271 1.287 . S
C1271 C1270 1.287 . S
C1271 C1272 1.524 1_565 S
C1271 H1274 0.999 . S
C1272 H1242 0.950 . S
C1272 C1271 1.524 1_545 S
C1272 C1273 1.415 . S
C1273 H1243 0.950 . S
C1273 C1268 1.363 1_545 S
C1273 C1272 1.415 . S
H1274 C1271 0.999 . S
H1275 C1256 0.913 . S
H1276 C1294 0.951 . S
H1277 C1296 0.951 . S
H1278 C1298 0.950 1_545 S
H1279 C1299 0.950 . S
H1280 C1301 0.950 1_554 S
H1281 C1304 0.950 . S
H1282 C1305 0.950 . S
H1283 C1307 0.950 . S
H1284 C1308 0.950 . S
H1285 C1309 0.951 . S
H1286 C1311 0.951 . S
H1287 C1313 0.950 1_565 S
H1288 C1314 0.950 . S
H1289 C1316 0.950 . S
H1290 C1319 0.950 . S
H1291 C1320 0.950 . S
H1292 C1322 0.950 . S
H1293 C1323 0.950 . S
C1294 H1276 0.951 . S
C1294 C1295 1.366 . S
C1294 C1296 1.388 . S
C1295 C1294 1.366 . S
C1295 C1299 1.385 . S
C1296 H1277 0.951 . S
C1296 C1294 1.388 . S
C1296 C1297 1.366 . S
C1297 C1296 1.366 . S
C1297 C1298 1.414 . S
C1297 C1300 1.486 1_554 S
C1298 H1278 0.950 1_565 S
C1298 C1297 1.414 . S
C1298 C1299 1.374 . S
C1299 H1279 0.950 . S
C1299 C1295 1.385 . S
C1299 C1298 1.374 . S
C1300 C1297 1.486 1_556 S
C1300 C1301 1.375 1_565 S
C1300 C1302 1.401 . S
C1301 H1280 0.950 1_556 S
C1301 C1300 1.375 1_545 S
C1301 C1317 1.377 . S
C1302 C1300 1.401 . S
C1302 C1303 1.524 . S
C1302 C1316 1.377 . S
C1303 C1302 1.524 . S
C1303 C1304 1.397 1_556 S
C1303 C1308 1.363 . S
C1304 H1281 0.950 . S
C1304 C1303 1.397 1_554 S
C1304 C1305 1.334 . S
C1305 H1282 0.950 . S
C1305 C1304 1.334 . S
C1305 C1306 1.287 1_554 S
C1306 C1305 1.287 1_556 S
C1306 C1307 1.524 . S
C1306 H1325 0.913 . S
C1307 H1283 0.950 . S
C1307 C1306 1.524 . S
C1307 C1308 1.415 . S
C1308 H1284 0.950 . S
C1308 C1303 1.363 . S
C1308 C1307 1.415 . S
C1309 H1285 0.951 . S
C1309 C1310 1.366 . S
C1309 C1311 1.388 . S
C1310 C1309 1.366 . S
C1310 C1314 1.385 . S
C1311 H1286 0.951 . S
C1311 C1309 1.388 . S
C1311 C1312 1.366 . S
C1312 C1311 1.366 . S
C1312 C1313 1.414 . S
C1312 C1315 1.499 . S
C1313 H1287 0.950 1_545 S
C1313 C1312 1.414 . S
C1313 C1314 1.374 . S
C1314 H1288 0.950 . S
C1314 C1310 1.385 . S
C1314 C1313 1.374 . S
C1315 C1312 1.499 . S
C1315 C1316 1.373 1_545 S
C1315 C1317 1.389 . S
C1316 H1289 0.950 . S
C1316 C1302 1.377 . S
C1316 C1315 1.373 1_565 S
C1317 C1301 1.377 . S
C1317 C1315 1.389 . S
C1317 C1318 1.524 . S
C1318 C1317 1.524 . S
C1318 C1319 1.397 . S
C1318 C1323 1.363 . S
C1319 H1290 0.950 . S
C1319 C1318 1.397 . S
C1319 C1320 1.334 . S
C1320 H1291 0.950 . S
C1320 C1319 1.334 . S
C1320 C1321 1.287 . S
C1321 C1320 1.287 . S
C1321 C1322 1.524 . S
C1321 H1324 0.999 . S
C1322 H1292 0.950 . S
C1322 C1321 1.524 . S
C1322 C1323 1.415 . S
C1323 H1293 0.950 . S
C1323 C1318 1.363 . S
C1323 C1322 1.415 . S
H1324 C1321 0.999 . S
H1325 C1306 0.913 . S
H1326 C1344 0.951 . S
H1327 C1346 0.951 . S
H1328 C1348 0.950 . S
H1329 C1349 0.950 . S
H1330 C1351 0.950 . S
H1331 C1354 0.950 . S
H1332 C1355 0.950 . S
H1333 C1357 0.950 . S
H1334 C1358 0.950 . S
H1335 C1359 0.951 . S
H1336 C1361 0.951 . S
H1337 C1363 0.950 . S
H1338 C1364 0.950 . S
H1339 C1366 0.950 . S
H1340 C1369 0.950 . S
H1341 C1370 0.950 . S
H1342 C1372 0.950 . S
H1343 C1373 0.950 . S
C1344 H1326 0.951 . S
C1344 C1345 1.366 . S
C1344 C1346 1.388 . S
C1345 C1344 1.366 . S
C1345 C1349 1.385 . S
C1346 H1327 0.951 . S
C1346 C1344 1.388 . S
C1346 C1347 1.366 . S
C1347 C1346 1.366 . S
C1347 C1348 1.414 . S
C1347 C1350 1.499 . S
C1348 H1328 0.950 . S
C1348 C1347 1.414 . S
C1348 C1349 1.374 . S
C1349 H1329 0.950 . S
C1349 C1345 1.385 . S
C1349 C1348 1.374 . S
C1350 C1347 1.499 . S
C1350 C1351 1.373 1_545 S
C1350 C1352 1.389 . S
C1351 H1330 0.950 . S
C1351 C1350 1.373 1_565 S
C1351 C1367 1.377 . S
C1352 C1350 1.389 . S
C1352 C1353 1.524 . S
C1352 C1366 1.377 . S
C1353 C1352 1.524 . S
C1353 C1354 1.397 . S
C1353 C1358 1.363 . S
C1354 H1331 0.950 . S
C1354 C1353 1.397 . S
C1354 C1355 1.334 . S
C1355 H1332 0.950 . S
C1355 C1354 1.334 . S
C1355 C1356 1.287 . S
C1356 C1355 1.287 . S
C1356 C1357 1.524 . S
C1356 H1375 0.913 . S
C1357 H1333 0.950 . S
C1357 C1356 1.524 . S
C1357 C1358 1.415 . S
C1358 H1334 0.950 . S
C1358 C1353 1.363 . S
C1358 C1357 1.415 . S
C1359 H1335 0.951 . S
C1359 C1360 1.366 . S
C1359 C1361 1.388 . S
C1360 C1359 1.366 . S
C1360 C1364 1.385 . S
C1361 H1336 0.951 . S
C1361 C1359 1.388 . S
C1361 C1362 1.366 . S
C1362 C1361 1.366 . S
C1362 C1363 1.414 . S
C1362 C1365 1.499 . S
C1363 H1337 0.950 . S
C1363 C1362 1.414 . S
C1363 C1364 1.374 . S
C1364 H1338 0.950 . S
C1364 C1360 1.385 . S
C1364 C1363 1.374 . S
C1365 C1362 1.499 . S
C1365 C1366 1.373 1_565 S
C1365 C1367 1.389 . S
C1366 H1339 0.950 . S
C1366 C1352 1.377 . S
C1366 C1365 1.373 1_545 S
C1367 C1351 1.377 . S
C1367 C1365 1.389 . S
C1367 C1368 1.524 . S
C1368 C1367 1.524 . S
C1368 C1369 1.397 . S
C1368 C1373 1.363 . S
C1369 H1340 0.950 . S
C1369 C1368 1.397 . S
C1369 C1370 1.334 . S
C1370 H1341 0.950 . S
C1370 C1369 1.334 . S
C1370 C1371 1.287 . S
C1371 C1370 1.287 . S
C1371 C1372 1.524 . S
C1371 H1374 0.999 . S
C1372 H1342 0.950 . S
C1372 C1371 1.524 . S
C1372 C1373 1.415 . S
C1373 H1343 0.950 . S
C1373 C1368 1.363 . S
C1373 C1372 1.415 . S
H1374 C1371 0.999 . S
H1375 C1356 0.913 . S
C195 C139 0.807 . S
C210 C15 0.805 . S
C245 C175 0.807 . S
C260 C37 0.806 . S
C295 C103 0.806 . S
C310 C51 0.808 . S
C345 C125 0.806 . S
C360 C81 0.808 . S
C395 C131 1.563 . S
C410 C10 1.526 . S
C445 C109 1.563 . S
C460 C32 1.526 . S
C495 C62 1.532 . S
C510 C169 1.562 . S
C545 C153 1.561 . S
C560 C76 1.531 . S
C595 C43 1.562 . S
C610 C98 1.526 . S
C645 C120 1.526 . S
C660 C21 1.562 . S
C695 C150 1.532 . S
C710 C73 1.562 . S
C745 C65 1.562 . S
C760 C162 1.532 . S
C795 C18 1.405 . S
C810 C40 1.405 . S
C845 C74 1.408 . S
C860 C54 1.408 . S
C895 C128 1.405 . S
C910 C106 1.405 . S
C945 C172 1.408 . S
C960 C142 1.408 . S
C995 C87 1.341 . S
C1010 C8 1.330 . S
C1045 C30 1.329 . S
C1060 C59 1.341 . S
C1095 C52 1.331 . S
C1110 C29 1.339 . S
C1145 C7 1.339 . S
C1160 C84 1.330 . S
C1195 C161 1.341 . S
C1210 C96 1.330 . S
C1245 C147 1.341 . S
C1260 C118 1.329 . S
C1295 C117 1.339 . S
C1310 C140 1.330 . S
C1345 C164 1.330 . S
C1360 C95 1.339 . S
