# Generated by pormake.
# Topology whw, (6)-cn, num edge types: 1
# Building blocks:
#     Node 0, Type 0, BuildingBlock: CIFDUS_clean_sbu_1, # of connection points: 6
#     Node 1, Type 0, BuildingBlock: CIFDUS_clean_sbu_1, # of connection points: 6
#     Node 2, Type 0, BuildingBlock: CIFDUS_clean_sbu_1, # of connection points: 6
#     Node 3, Type 0, BuildingBlock: CIFDUS_clean_sbu_1, # of connection points: 6
#     Node 4, Type 0, BuildingBlock: CIFDUS_clean_sbu_1, # of connection points: 6
#     Node 5, Type 0, BuildingBlock: CIFDUS_clean_sbu_1, # of connection points: 6
#     Node 6, Type 0, BuildingBlock: CIFDUS_clean_sbu_1, # of connection points: 6
#     Node 7, Type 0, BuildingBlock: CIFDUS_clean_sbu_1, # of connection points: 6
#     Node 8, Type 0, BuildingBlock: CIFDUS_clean_sbu_1, # of connection points: 6
#     Node 9, Type 0, BuildingBlock: CIFDUS_clean_sbu_1, # of connection points: 6
#     Node 10, Type 0, BuildingBlock: CIFDUS_clean_sbu_1, # of connection points: 6
#     Node 11, Type 0, BuildingBlock: CIFDUS_clean_sbu_1, # of connection points: 6
#     Node 12, Type 0, BuildingBlock: CIFDUS_clean_sbu_1, # of connection points: 6
#     Node 13, Type 0, BuildingBlock: CIFDUS_clean_sbu_1, # of connection points: 6
#     Node 14, Type 0, BuildingBlock: CIFDUS_clean_sbu_1, # of connection points: 6
#     Node 15, Type 0, BuildingBlock: CIFDUS_clean_sbu_1, # of connection points: 6
#     Edge 16, Type (0, 0), BuildingBlock: ZUJKAS_clean_linker_0, # of connection points: 2
#     Edge 17, Type (0, 0), BuildingBlock: ZUJKAS_clean_linker_0, # of connection points: 2
#     Edge 18, Type (0, 0), BuildingBlock: ZUJKAS_clean_linker_0, # of connection points: 2
#     Edge 19, Type (0, 0), BuildingBlock: ZUJKAS_clean_linker_0, # of connection points: 2
#     Edge 20, Type (0, 0), BuildingBlock: ZUJKAS_clean_linker_0, # of connection points: 2
#     Edge 21, Type (0, 0), BuildingBlock: ZUJKAS_clean_linker_0, # of connection points: 2
#     Edge 22, Type (0, 0), BuildingBlock: ZUJKAS_clean_linker_0, # of connection points: 2
#     Edge 23, Type (0, 0), BuildingBlock: ZUJKAS_clean_linker_0, # of connection points: 2
#     Edge 24, Type (0, 0), BuildingBlock: ZUJKAS_clean_linker_0, # of connection points: 2
#     Edge 25, Type (0, 0), BuildingBlock: ZUJKAS_clean_linker_0, # of connection points: 2
#     Edge 26, Type (0, 0), BuildingBlock: ZUJKAS_clean_linker_0, # of connection points: 2
#     Edge 27, Type (0, 0), BuildingBlock: ZUJKAS_clean_linker_0, # of connection points: 2
#     Edge 28, Type (0, 0), BuildingBlock: ZUJKAS_clean_linker_0, # of connection points: 2
#     Edge 29, Type (0, 0), BuildingBlock: ZUJKAS_clean_linker_0, # of connection points: 2
#     Edge 30, Type (0, 0), BuildingBlock: ZUJKAS_clean_linker_0, # of connection points: 2
#     Edge 31, Type (0, 0), BuildingBlock: ZUJKAS_clean_linker_0, # of connection points: 2
#     Edge 32, Type (0, 0), BuildingBlock: ZUJKAS_clean_linker_0, # of connection points: 2
#     Edge 33, Type (0, 0), BuildingBlock: ZUJKAS_clean_linker_0, # of connection points: 2
#     Edge 34, Type (0, 0), BuildingBlock: ZUJKAS_clean_linker_0, # of connection points: 2
#     Edge 35, Type (0, 0), BuildingBlock: ZUJKAS_clean_linker_0, # of connection points: 2
#     Edge 36, Type (0, 0), BuildingBlock: ZUJKAS_clean_linker_0, # of connection points: 2
#     Edge 37, Type (0, 0), BuildingBlock: ZUJKAS_clean_linker_0, # of connection points: 2
#     Edge 38, Type (0, 0), BuildingBlock: ZUJKAS_clean_linker_0, # of connection points: 2
#     Edge 39, Type (0, 0), BuildingBlock: ZUJKAS_clean_linker_0, # of connection points: 2
#     Edge 40, Type (0, 0), BuildingBlock: ZUJKAS_clean_linker_0, # of connection points: 2
#     Edge 41, Type (0, 0), BuildingBlock: ZUJKAS_clean_linker_0, # of connection points: 2
#     Edge 42, Type (0, 0), BuildingBlock: ZUJKAS_clean_linker_0, # of connection points: 2
#     Edge 43, Type (0, 0), BuildingBlock: ZUJKAS_clean_linker_0, # of connection points: 2
#     Edge 44, Type (0, 0), BuildingBlock: ZUJKAS_clean_linker_0, # of connection points: 2
#     Edge 45, Type (0, 0), BuildingBlock: ZUJKAS_clean_linker_0, # of connection points: 2
#     Edge 46, Type (0, 0), BuildingBlock: ZUJKAS_clean_linker_0, # of connection points: 2
#     Edge 47, Type (0, 0), BuildingBlock: ZUJKAS_clean_linker_0, # of connection points: 2
#     Edge 48, Type (0, 0), BuildingBlock: ZUJKAS_clean_linker_0, # of connection points: 2
#     Edge 49, Type (0, 0), BuildingBlock: ZUJKAS_clean_linker_0, # of connection points: 2
#     Edge 50, Type (0, 0), BuildingBlock: ZUJKAS_clean_linker_0, # of connection points: 2
#     Edge 51, Type (0, 0), BuildingBlock: ZUJKAS_clean_linker_0, # of connection points: 2
#     Edge 52, Type (0, 0), BuildingBlock: ZUJKAS_clean_linker_0, # of connection points: 2
#     Edge 53, Type (0, 0), BuildingBlock: ZUJKAS_clean_linker_0, # of connection points: 2
#     Edge 54, Type (0, 0), BuildingBlock: ZUJKAS_clean_linker_0, # of connection points: 2
#     Edge 55, Type (0, 0), BuildingBlock: ZUJKAS_clean_linker_0, # of connection points: 2
#     Edge 56, Type (0, 0), BuildingBlock: ZUJKAS_clean_linker_0, # of connection points: 2
#     Edge 57, Type (0, 0), BuildingBlock: ZUJKAS_clean_linker_0, # of connection points: 2
#     Edge 58, Type (0, 0), BuildingBlock: ZUJKAS_clean_linker_0, # of connection points: 2
#     Edge 59, Type (0, 0), BuildingBlock: ZUJKAS_clean_linker_0, # of connection points: 2
#     Edge 60, Type (0, 0), BuildingBlock: ZUJKAS_clean_linker_0, # of connection points: 2
#     Edge 61, Type (0, 0), BuildingBlock: ZUJKAS_clean_linker_0, # of connection points: 2
#     Edge 62, Type (0, 0), BuildingBlock: ZUJKAS_clean_linker_0, # of connection points: 2
#     Edge 63, Type (0, 0), BuildingBlock: ZUJKAS_clean_linker_0, # of connection points: 2
# Relax obj value: 0.550
# Max RMSD: 0.239
# Mean RMSD: 0.239
data_MOF--net-whw--node1-CIFDUS_clean_sbu_1--edge1-ZUJKAS_clean_linker_0
_symmetry_space_group_name_H-M    P1
_symmetry_Int_Tables_number       1
_symmetry_cell_setting            triclinic
loop_
_symmetry_equiv_pos_as_xyz
'x, y, z'
_cell_length_a     64.627683
_cell_length_b     64.599103
_cell_length_c     31.400553
_cell_angle_alpha  89.999585
_cell_angle_beta   89.998196
_cell_angle_gamma 89.976407
loop_
_atom_site_label
_atom_site_type_symbol
_atom_site_fract_x
_atom_site_fract_y
_atom_site_fract_z
_atom_type_partial_charge
O0 O 0.04618 0.1343 0.08398 0.0
Mn1 Mn 0.02376 0.13479 0.13282 0.0
O2 O 0.04286 0.16498 0.04998 0.0
Mn3 Mn 0.01987 0.17476 0.07872 0.0
O4 O 0.00148 0.13602 0.18155 0.0
O5 O 0.02538 0.10347 0.13634 0.0
Mn6 Mn 0.02694 0.09704 0.19115 0.0
O7 O 0.04705 0.13839 0.17801 0.0
O8 O 0.0028 0.10587 0.21682 0.0
O9 O 0.99983 0.13202 0.08713 0.0
O10 O 0.99465 0.16427 0.06188 0.0
O11 O 0.02775 0.07223 0.16344 0.0
O12 O 0.05064 0.10871 0.21397 0.0
C13 C 0.02471 0.18474 0.14319 0.0
C14 C 0.05181 0.1476 0.05559 0.0
C15 C 0.99499 0.12374 0.21094 0.0
C16 C 0.02621 0.08364 0.12968 0.0
C17 C 0.05587 0.12738 0.20672 0.0
C18 C 0.98946 0.14529 0.06501 0.0
O19 O 0.02292 0.16577 0.1309 0.0
O20 O 0.02244 0.19797 0.11261 0.0
O21 O 0.13312 0.76099 0.43276 0.0
Mn22 Mn 0.12128 0.74618 0.38003 0.0
O23 O 0.15479 0.73845 0.46473 0.0
Mn24 Mn 0.15291 0.71694 0.42487 0.0
O25 O 0.10919 0.73046 0.32693 0.0
O26 O 0.09583 0.76421 0.38593 0.0
Mn27 Mn 0.08849 0.7729 0.33496 0.0
O28 O 0.13544 0.76793 0.3392 0.0
O29 O 0.08246 0.74949 0.30313 0.0
O30 O 0.10722 0.72403 0.42043 0.0
O31 O 0.13084 0.69939 0.43419 0.0
O32 O 0.06971 0.78427 0.37197 0.0
O33 O 0.1101 0.78883 0.31534 0.0
C34 C 0.16482 0.72387 0.36216 0.0
C35 C 0.14526 0.75583 0.46331 0.0
C36 C 0.09367 0.73324 0.30181 0.0
C37 C 0.0804 0.7748 0.40091 0.0
C38 C 0.12908 0.78381 0.31812 0.0
C39 C 0.11242 0.70636 0.43651 0.0
O40 O 0.14698 0.72922 0.37647 0.0
O41 O 0.17477 0.71181 0.38785 0.0
O42 O 0.4757 0.86768 0.57251 0.0
Mn43 Mn 0.49828 0.86744 0.6208 0.0
O44 O 0.47921 0.83743 0.53703 0.0
Mn45 Mn 0.50267 0.82789 0.56481 0.0
O46 O 0.52056 0.86682 0.66935 0.0
O47 O 0.49599 0.89874 0.62508 0.0
Mn48 Mn 0.49247 0.90465 0.67975 0.0
O49 O 0.47482 0.86278 0.66589 0.0
O50 O 0.51585 0.89558 0.70843 0.0
O51 O 0.52206 0.871 0.57481 0.0
O52 O 0.52736 0.83919 0.5468 0.0
O53 O 0.49226 0.92969 0.65286 0.0
O54 O 0.46797 0.89292 0.69787 0.0
C55 C 0.49911 0.81761 0.62966 0.0
C56 C 0.47011 0.85466 0.54361 0.0
C57 C 0.5254 0.87871 0.70072 0.0
C58 C 0.49516 0.91862 0.619 0.0
C59 C 0.46407 0.8739 0.69155 0.0
C60 C 0.53226 0.85819 0.55114 0.0
O61 O 0.50019 0.8366 0.61744 0.0
O62 O 0.50107 0.8045 0.59879 0.0
O63 O 0.40001 0.22168 0.8225 0.0
Mn64 Mn 0.38615 0.23733 0.87343 0.0
O65 O 0.42433 0.24338 0.79663 0.0
Mn66 Mn 0.41902 0.26622 0.83143 0.0
O67 O 0.37265 0.25246 0.92427 0.0
O68 O 0.36085 0.21919 0.86923 0.0
Mn69 Mn 0.3569 0.20665 0.91857 0.0
O70 O 0.40067 0.21744 0.91704 0.0
O71 O 0.35315 0.22832 0.95738 0.0
O72 O 0.37259 0.25809 0.82945 0.0
O73 O 0.39677 0.28231 0.81538 0.0
O74 O 0.33538 0.19853 0.88376 0.0
O75 O 0.37992 0.19057 0.93001 0.0
C76 C 0.42673 0.26348 0.89805 0.0
C77 C 0.41469 0.22606 0.79623 0.0
C78 C 0.36094 0.24653 0.95503 0.0
C79 C 0.34337 0.21146 0.85691 0.0
C80 C 0.39725 0.19966 0.93391 0.0
C81 C 0.37836 0.27537 0.81254 0.0
O82 O 0.41094 0.2554 0.87962 0.0
O83 O 0.43796 0.27451 0.87267 0.0
O84 O 0.05897 0.85243 0.93583 0.0
Mn85 Mn 0.03648 0.85413 0.88703 0.0
O86 O 0.05981 0.8189 0.95593 0.0
Mn87 Mn 0.03379 0.81217 0.93586 0.0
O88 O 0.01463 0.85487 0.83818 0.0
O89 O 0.03914 0.88555 0.88606 0.0
Mn90 Mn 0.04297 0.89205 0.83141 0.0
O91 O 0.06027 0.85031 0.84301 0.0
O92 O 0.01984 0.88391 0.80068 0.0
O93 O 0.01285 0.85641 0.93295 0.0
O94 O 0.0117 0.82464 0.96352 0.0
O95 O 0.04325 0.91676 0.85909 0.0
O96 O 0.06756 0.88064 0.81267 0.0
C97 C 0.02926 0.80587 0.86891 0.0
C98 C 0.0673 0.83719 0.95627 0.0
C99 C 0.01018 0.86701 0.80713 0.0
C100 C 0.0402 0.90542 0.89253 0.0
C101 C 0.07143 0.86158 0.81855 0.0
C102 C 0.00507 0.84318 0.95928 0.0
O103 O 0.03348 0.82353 0.88553 0.0
O104 O 0.0287 0.79113 0.89671 0.0
O105 O 0.38352 0.77043 0.16934 0.0
Mn106 Mn 0.38715 0.74733 0.12215 0.0
O107 O 0.41554 0.7762 0.19566 0.0
Mn108 Mn 0.42849 0.75358 0.17162 0.0
O109 O 0.39137 0.72478 0.07489 0.0
O110 O 0.35627 0.74325 0.12157 0.0
Mn111 Mn 0.34792 0.73921 0.06853 0.0
O112 O 0.38469 0.76947 0.0744 0.0
O113 O 0.3605 0.71532 0.04885 0.0
O114 O 0.39021 0.72459 0.17002 0.0
O115 O 0.42264 0.72815 0.196 0.0
O116 O 0.32439 0.7386 0.10141 0.0
O117 O 0.35529 0.76293 0.03838 0.0
C118 C 0.43587 0.75465 0.10499 0.0
C119 C 0.39632 0.78049 0.1932 0.0
C120 C 0.38003 0.71327 0.05103 0.0
C121 C 0.33702 0.74232 0.13246 0.0
C122 C 0.37187 0.77334 0.04416 0.0
C123 C 0.40535 0.71862 0.19389 0.0
O124 O 0.41773 0.75174 0.12074 0.0
O125 O 0.4501 0.75712 0.13348 0.0
O126 O 0.51574 0.13563 0.42093 0.0
Mn127 Mn 0.53821 0.1414 0.37403 0.0
O128 O 0.5143 0.16567 0.45832 0.0
Mn129 Mn 0.53277 0.18177 0.42733 0.0
O130 O 0.56077 0.14887 0.32876 0.0
O131 O 0.54426 0.11061 0.37008 0.0
Mn132 Mn 0.54916 0.10541 0.31542 0.0
O133 O 0.51612 0.13908 0.32578 0.0
O134 O 0.57233 0.11988 0.29844 0.0
O135 O 0.56099 0.14447 0.42221 0.0
O136 O 0.56024 0.17808 0.44146 0.0
O137 O 0.55188 0.08044 0.34203 0.0
O138 O 0.52537 0.11205 0.28501 0.0
C139 C 0.52434 0.18852 0.36209 0.0
C140 C 0.5088 0.14693 0.45169 0.0
C141 C 0.57331 0.13932 0.30391 0.0
C142 C 0.54712 0.09089 0.37585 0.0
C143 C 0.51355 0.12741 0.29307 0.0
C144 C 0.56882 0.16029 0.44158 0.0
O145 O 0.5316 0.17136 0.37616 0.0
O146 O 0.52303 0.20254 0.39132 0.0
O147 O 0.11987 0.24579 0.5898 0.0
Mn148 Mn 0.11616 0.26713 0.63883 0.0
O149 O 0.14726 0.25621 0.55116 0.0
Mn150 Mn 0.15221 0.28041 0.58145 0.0
O151 O 0.11217 0.28941 0.68779 0.0
O152 O 0.08639 0.25838 0.64105 0.0
Mn153 Mn 0.07768 0.25824 0.69404 0.0
O154 O 0.12383 0.24432 0.68402 0.0
O155 O 0.07966 0.28534 0.71174 0.0
O156 O 0.10744 0.28971 0.59389 0.0
O157 O 0.13623 0.3025 0.56437 0.0
O158 O 0.05583 0.24906 0.6614 0.0
O159 O 0.09452 0.23944 0.72211 0.0
C160 C 0.16584 0.27858 0.64298 0.0
C161 C 0.13229 0.24376 0.55812 0.0
C162 C 0.09645 0.29556 0.70974 0.0
C163 C 0.0685 0.25134 0.62982 0.0
C164 C 0.11345 0.23545 0.71397 0.0
C165 C 0.11668 0.30248 0.56888 0.0
O166 O 0.14644 0.27502 0.63535 0.0
O167 O 0.17656 0.28431 0.6102 0.0
O168 O 0.87649 0.26376 0.68067 0.0
Mn169 Mn 0.88782 0.24051 0.63936 0.0
O170 O 0.90455 0.2795 0.70835 0.0
Mn171 Mn 0.92363 0.26061 0.68877 0.0
O172 O 0.89985 0.21738 0.59902 0.0
O173 O 0.85915 0.22792 0.6396 0.0
Mn174 Mn 0.85474 0.21697 0.58884 0.0
O175 O 0.88004 0.25784 0.58626 0.0
O176 O 0.87397 0.1963 0.58095 0.0
O177 O 0.89608 0.22208 0.69218 0.0
O178 O 0.92514 0.23611 0.7189 0.0
O179 O 0.83088 0.21244 0.61913 0.0
O180 O 0.85692 0.23868 0.5498 0.0
C181 C 0.93305 0.2623 0.62357 0.0
C182 C 0.88507 0.27787 0.70373 0.0
C183 C 0.89311 0.20077 0.58123 0.0
C184 C 0.84031 0.22266 0.64882 0.0
C185 C 0.86866 0.25454 0.55342 0.0
C186 C 0.91143 0.22192 0.7184 0.0
O187 O 0.91592 0.25406 0.63678 0.0
O188 O 0.94467 0.26929 0.65396 0.0
O189 O 0.62028 0.72924 0.07558 0.0
Mn190 Mn 0.62007 0.7525 0.12231 0.0
O191 O 0.65129 0.73 0.0434 0.0
Mn192 Mn 0.66001 0.75397 0.07003 0.0
O193 O 0.61931 0.77575 0.16962 0.0
O194 O 0.58945 0.75249 0.11895 0.0
Mn195 Mn 0.57704 0.75223 0.16822 0.0
O196 O 0.61957 0.72962 0.17043 0.0
O197 O 0.58652 0.776 0.1949 0.0
O198 O 0.6191 0.77518 0.07488 0.0
O199 O 0.6503 0.77799 0.04474 0.0
O200 O 0.55653 0.7542 0.12656 0.0
O201 O 0.58613 0.72746 0.19154 0.0
C202 C 0.67086 0.75293 0.1337 0.0
C203 C 0.63331 0.72227 0.04807 0.0
C204 C 0.60487 0.78329 0.19348 0.0
C205 C 0.57191 0.75427 0.10028 0.0
C206 C 0.60486 0.72105 0.1921 0.0
C207 C 0.63152 0.78366 0.04822 0.0
O208 O 0.65139 0.75294 0.12374 0.0
O209 O 0.68362 0.7539 0.10196 0.0
O210 O 0.60334 0.29853 0.90586 0.0
Mn211 Mn 0.61639 0.27585 0.8663 0.0
O212 O 0.62826 0.31907 0.93094 0.0
Mn213 Mn 0.64841 0.29958 0.91954 0.0
O214 O 0.62819 0.25291 0.82528 0.0
O215 O 0.5889 0.26152 0.8678 0.0
Mn216 Mn 0.58 0.25603 0.81629 0.0
O217 O 0.60798 0.29396 0.81312 0.0
O218 O 0.6001 0.23894 0.79322 0.0
O219 O 0.62439 0.25837 0.91921 0.0
O220 O 0.64783 0.27683 0.95613 0.0
O221 O 0.56053 0.24542 0.85363 0.0
O222 O 0.57719 0.28174 0.79081 0.0
C223 C 0.66318 0.29583 0.85911 0.0
C224 C 0.60924 0.31447 0.92705 0.0
C225 C 0.61957 0.23991 0.79961 0.0
C226 C 0.57276 0.25235 0.88297 0.0
C227 C 0.59156 0.29526 0.78995 0.0
C228 C 0.63634 0.26089 0.95148 0.0
O229 O 0.64454 0.28958 0.8675 0.0
O230 O 0.67197 0.30599 0.88971 0.0
O231 O 0.87654 0.73087 0.33822 0.0
Mn232 Mn 0.88942 0.75127 0.38387 0.0
O233 O 0.90144 0.70741 0.3236 0.0
Mn234 Mn 0.9233 0.72401 0.33979 0.0
O235 O 0.90313 0.77079 0.42918 0.0
O236 O 0.86353 0.76857 0.3816 0.0
Mn237 Mn 0.85839 0.77876 0.43281 0.0
O238 O 0.87678 0.7343 0.4332 0.0
O239 O 0.88051 0.79535 0.44798 0.0
O240 O 0.90272 0.76839 0.33443 0.0
O241 O 0.92736 0.74761 0.30631 0.0
O242 O 0.83718 0.78776 0.39826 0.0
O243 O 0.85479 0.75559 0.4678 0.0
C244 C 0.93094 0.72717 0.40668 0.0
C245 C 0.88285 0.71389 0.32072 0.0
C246 C 0.89855 0.78755 0.44903 0.0
C247 C 0.84618 0.77657 0.3695 0.0
C248 C 0.8641 0.7382 0.46365 0.0
C249 C 0.91739 0.76477 0.30758 0.0
O250 O 0.91473 0.73411 0.3881 0.0
O251 O 0.94264 0.71661 0.38141 0.0
O252 O 0.53119 0.62712 0.57626 0.0
Mn253 Mn 0.50711 0.62701 0.62206 0.0
O254 O 0.53377 0.66016 0.55321 0.0
Mn255 Mn 0.50737 0.66793 0.56912 0.0
O256 O 0.48335 0.62789 0.66703 0.0
O257 O 0.50864 0.59567 0.62499 0.0
Mn258 Mn 0.50765 0.58879 0.67967 0.0
O259 O 0.52916 0.63012 0.67089 0.0
O260 O 0.4826 0.59768 0.70192 0.0
O261 O 0.48509 0.6247 0.57294 0.0
O262 O 0.4862 0.65549 0.53847 0.0
O263 O 0.50969 0.56422 0.65122 0.0
O264 O 0.53059 0.59995 0.70609 0.0
C265 C 0.50102 0.67596 0.63461 0.0
C266 C 0.54044 0.6416 0.55519 0.0
C267 C 0.47539 0.61571 0.69486 0.0
C268 C 0.50973 0.57592 0.61772 0.0
C269 C 0.53677 0.61843 0.70018 0.0
C270 C 0.47892 0.6373 0.54369 0.0
O271 O 0.50503 0.65774 0.62046 0.0
O272 O 0.50164 0.69 0.60531 0.0
O273 O 0.96026 0.36161 0.08089 0.0
Mn274 Mn 0.98169 0.3662 0.13102 0.0
O275 O 0.96497 0.32883 0.05849 0.0
Mn276 Mn 0.99197 0.32704 0.07741 0.0
O277 O 0.00229 0.37021 0.18164 0.0
O278 O 0.97326 0.39636 0.13399 0.0
Mn279 Mn 0.96704 0.40191 0.18772 0.0
O280 O 0.95861 0.35718 0.17413 0.0
O281 O 0.99074 0.39731 0.21978 0.0
O282 O 0.00487 0.37395 0.08668 0.0
O283 O 0.01072 0.34427 0.05009 0.0
O284 O 0.96304 0.42626 0.15911 0.0
O285 O 0.94484 0.38562 0.20317 0.0
C286 C 0.99834 0.31959 0.14314 0.0
C287 C 0.95455 0.3456 0.05925 0.0
C288 C 0.00352 0.38253 0.21373 0.0
C289 C 0.96907 0.41565 0.1264 0.0
C290 C 0.94509 0.36611 0.19784 0.0
C291 C 0.01423 0.36338 0.05758 0.0
O292 O 0.9907 0.33671 0.12939 0.0
O293 O 0.0015 0.30622 0.1132 0.0
O294 O 0.49056 0.3643 0.40608 0.0
Mn295 Mn 0.46526 0.35748 0.36603 0.0
O296 O 0.50258 0.3334 0.42938 0.0
Mn297 Mn 0.47984 0.31768 0.41374 0.0
O298 O 0.44015 0.34921 0.32796 0.0
O299 O 0.45739 0.38786 0.36634 0.0
Mn300 Mn 0.44711 0.39336 0.31515 0.0
O301 O 0.48338 0.36221 0.31157 0.0
O302 O 0.4236 0.37769 0.30705 0.0
O303 O 0.44649 0.35233 0.41994 0.0
O304 O 0.45626 0.32134 0.44645 0.0
O305 O 0.44578 0.41784 0.34417 0.0
O306 O 0.46812 0.38831 0.27591 0.0
C307 C 0.47477 0.3094 0.34801 0.0
C308 C 0.50378 0.35308 0.42655 0.0
C309 C 0.42468 0.35814 0.31027 0.0
C310 C 0.45434 0.40732 0.37456 0.0
C311 C 0.48199 0.37429 0.27904 0.0
C312 C 0.44424 0.33703 0.44598 0.0
O313 O 0.473 0.32764 0.36397 0.0
O314 O 0.48087 0.29577 0.3754 0.0
O315 O 0.95191 0.64565 0.9267 0.0
Mn316 Mn 0.97429 0.64331 0.87743 0.0
O317 O 0.95036 0.67953 0.94303 0.0
Mn318 Mn 0.97737 0.68469 0.92754 0.0
O319 O 0.99579 0.64157 0.82793 0.0
O320 O 0.97063 0.61205 0.87653 0.0
Mn321 Mn 0.96493 0.60556 0.82282 0.0
O322 O 0.95032 0.64825 0.8336 0.0
O323 O 0.98723 0.61361 0.78926 0.0
O324 O 0.99776 0.63998 0.92315 0.0
O325 O 0.99717 0.67046 0.95903 0.0
O326 O 0.9651 0.58088 0.85093 0.0
O327 O 0.93996 0.61759 0.8088 0.0
C328 C 0.98521 0.69116 0.86194 0.0
C329 C 0.94305 0.66123 0.94506 0.0
C330 C 0.99837 0.62963 0.79562 0.0
C331 C 0.96932 0.59227 0.88373 0.0
C332 C 0.93747 0.63698 0.81281 0.0
C333 C 0.00409 0.65214 0.95305 0.0
O334 O 0.97891 0.67374 0.87678 0.0
O335 O 0.98554 0.7056 0.89046 0.0
H336 H 0.05548 0.11759 0.9946 0.0
H337 H 0.07798 0.12007 0.93164 0.0
H338 H 0.10851 0.17294 0.98735 0.0
H339 H 0.08652 0.17014 0.04985 0.0
H340 H 0.074 0.15239 0.88289 0.0
H341 H 0.15636 0.14921 0.92516 0.0
H342 H 0.13654 0.13931 0.96022 0.0
H343 H 0.14349 0.16637 0.96124 0.0
C344 C 0.06784 0.12891 0.99427 0.0
C345 C 0.06948 0.14354 0.02714 0.0
C346 C 0.08058 0.13048 0.95815 0.0
C347 C 0.09514 0.14663 0.9546 0.0
C348 C 0.09792 0.15999 0.98941 0.0
H349 H 0.12755 0.2407 0.79398 0.0
H350 H 0.12829 0.21362 0.8484 0.0
C351 C 0.08526 0.15844 0.02525 0.0
C352 C 0.10406 0.15251 0.91246 0.0
H353 H 0.14735 0.17354 0.86711 0.0
C354 C 0.0902 0.15633 0.87891 0.0
C355 C 0.12518 0.15777 0.90705 0.0
C356 C 0.14122 0.15271 0.94031 0.0
C357 C 0.0964 0.1669 0.84199 0.0
C358 C 0.11718 0.1736 0.83805 0.0
C359 C 0.13142 0.16849 0.87016 0.0
C360 C 0.1233 0.18846 0.80411 0.0
C361 C 0.08022 0.17229 0.80908 0.0
C362 C 0.12176 0.18318 0.76079 0.0
C363 C 0.12147 0.19871 0.72958 0.0
C364 C 0.12297 0.21963 0.74134 0.0
C365 C 0.12683 0.22464 0.78409 0.0
C366 C 0.1271 0.20917 0.81522 0.0
H367 H 0.0643 0.16847 0.8199 0.0
H368 H 0.08082 0.18905 0.80132 0.0
H369 H 0.08331 0.1635 0.7794 0.0
H370 H 0.119 0.16728 0.75147 0.0
H371 H 0.11801 0.19452 0.69694 0.0
H372 H 0.14933 0.76854 0.2497 0.0
H373 H 0.15346 0.78847 0.18438 0.0
H374 H 0.14271 0.84496 0.2543 0.0
H375 H 0.13757 0.82482 0.3192 0.0
H376 H 0.11282 0.83829 0.20131 0.0
H377 H 0.18485 0.82768 0.1105 0.0
H378 H 0.17539 0.80309 0.12821 0.0
H379 H 0.18329 0.82217 0.16685 0.0
C380 C 0.14923 0.7853 0.25163 0.0
C381 C 0.14298 0.79516 0.28931 0.0
C382 C 0.15155 0.79678 0.21406 0.0
C383 C 0.14813 0.8183 0.21407 0.0
C384 C 0.14529 0.82839 0.2533 0.0
H385 H 0.07933 0.87282 0.99828 0.0
H386 H 0.1041 0.87473 0.05768 0.0
C387 C 0.14257 0.81689 0.29059 0.0
C388 C 0.1419 0.82889 0.17384 0.0
H389 H 0.15322 0.83229 0.06781 0.0
C390 C 0.12197 0.83761 0.17239 0.0
C391 C 0.15368 0.82793 0.13594 0.0
C392 C 0.17557 0.81989 0.1356 0.0
C393 C 0.1128 0.84362 0.13384 0.0
C394 C 0.12404 0.84135 0.09541 0.0
C395 C 0.14457 0.83408 0.09718 0.0
C396 C 0.11344 0.84258 0.05337 0.0
C397 C 0.09047 0.85058 0.13438 0.0
C398 C 0.11169 0.82444 0.02917 0.0
C399 C 0.09786 0.82341 0.99521 0.0
C400 C 0.08537 0.8405 0.98458 0.0
C401 C 0.08861 0.85935 0.00593 0.0
C402 C 0.10263 0.86039 0.04009 0.0
H403 H 0.08312 0.8484 0.16605 0.0
H404 H 0.08964 0.86728 0.12634 0.0
H405 H 0.08128 0.84189 0.11044 0.0
H406 H 0.11991 0.81053 0.03844 0.0
H407 H 0.09604 0.80875 0.97888 0.0
H408 H 0.41387 0.81784 0.20445 0.0
H409 H 0.41242 0.83823 0.26949 0.0
H410 H 0.36199 0.8005 0.31504 0.0
H411 H 0.3639 0.77947 0.24979 0.0
H412 H 0.38734 0.86053 0.32153 0.0
H413 H 0.40767 0.78496 0.39657 0.0
H414 H 0.40602 0.78794 0.33968 0.0
H415 H 0.38284 0.78647 0.3712 0.0
C416 C 0.40189 0.8144 0.22756 0.0
C417 C 0.3892 0.79693 0.22241 0.0
C418 C 0.40109 0.82606 0.26488 0.0
C419 C 0.38759 0.82049 0.29791 0.0
C420 C 0.37295 0.80473 0.29048 0.0
H421 H 0.43021 0.8439 0.55725 0.0
H422 H 0.40372 0.83976 0.50192 0.0
C423 C 0.37381 0.79291 0.25291 0.0
C424 C 0.39165 0.82889 0.34135 0.0
H425 H 0.4128 0.81462 0.43666 0.0
C426 C 0.39245 0.85048 0.34711 0.0
C427 C 0.39846 0.81582 0.37484 0.0
C428 C 0.39889 0.79253 0.37044 0.0
C429 C 0.40087 0.85928 0.38429 0.0
C430 C 0.40884 0.84619 0.41646 0.0
C431 C 0.40666 0.82467 0.41204 0.0
C432 C 0.42197 0.85395 0.45205 0.0
C433 C 0.40174 0.88252 0.38818 0.0
C434 C 0.44072 0.86408 0.44298 0.0
C435 C 0.45576 0.86657 0.47467 0.0
C436 C 0.45227 0.85906 0.51595 0.0
C437 C 0.43299 0.85032 0.52589 0.0
C438 C 0.41793 0.84782 0.49421 0.0
H439 H 0.38896 0.88994 0.37007 0.0
H440 H 0.40084 0.88753 0.42196 0.0
H441 H 0.41657 0.88815 0.37461 0.0
H442 H 0.44451 0.86845 0.41061 0.0
H443 H 0.47076 0.87277 0.46602 0.0
H444 H 0.44734 0.22835 0.74132 0.0
H445 H 0.45583 0.20529 0.68272 0.0
H446 H 0.40424 0.16609 0.71512 0.0
H447 H 0.39547 0.18926 0.77467 0.0
H448 H 0.44325 0.14447 0.6933 0.0
H449 H 0.41994 0.20239 0.57274 0.0
H450 H 0.43695 0.21296 0.61235 0.0
H451 H 0.41172 0.20381 0.62766 0.0
C452 C 0.43773 0.21483 0.73635 0.0
C453 C 0.42054 0.21085 0.76266 0.0
C454 C 0.44263 0.20165 0.70265 0.0
C455 C 0.43047 0.18418 0.69409 0.0
C456 C 0.41374 0.17959 0.72105 0.0
H457 H 0.46718 0.14224 0.44285 0.0
H458 H 0.44255 0.14399 0.50219 0.0
C459 C 0.40877 0.19285 0.75504 0.0
C460 C 0.43531 0.17133 0.65613 0.0
H461 H 0.44391 0.17627 0.54955 0.0
C462 C 0.44299 0.15118 0.66164 0.0
C463 C 0.43447 0.17984 0.61469 0.0
C464 C 0.42511 0.20086 0.60634 0.0
C465 C 0.45144 0.14002 0.62721 0.0
C466 C 0.45259 0.14947 0.58651 0.0
C467 C 0.44327 0.16893 0.58059 0.0
C468 C 0.46587 0.14128 0.55143 0.0
C469 C 0.4595 0.11846 0.63513 0.0
C470 C 0.48702 0.13781 0.55905 0.0
C471 C 0.50096 0.1364 0.52516 0.0
C472 C 0.49409 0.13858 0.48301 0.0
C473 C 0.47278 0.13997 0.47504 0.0
C474 C 0.45874 0.14123 0.50903 0.0
H475 H 0.45 0.11047 0.65962 0.0
H476 H 0.45952 0.109 0.60561 0.0
H477 H 0.47554 0.11942 0.64755 0.0
H478 H 0.49315 0.13834 0.59112 0.0
H479 H 0.51739 0.1359 0.53209 0.0
H480 H 0.94856 0.76306 0.24908 0.0
H481 H 0.95802 0.78858 0.19596 0.0
H482 H 0.90941 0.82898 0.23995 0.0
H483 H 0.89944 0.8031 0.29364 0.0
H484 H 0.91051 0.82584 0.15196 0.0
H485 H 0.98883 0.84265 0.21152 0.0
H486 H 0.98527 0.81523 0.20689 0.0
H487 H 0.96959 0.82978 0.24378 0.0
C488 C 0.93985 0.77737 0.24796 0.0
C489 C 0.92324 0.78097 0.27602 0.0
C490 C 0.94545 0.79209 0.2176 0.0
C491 C 0.93477 0.81093 0.21453 0.0
C492 C 0.91804 0.81464 0.2421 0.0
H493 H 0.00336 0.87531 0.01622 0.0
H494 H 0.98138 0.87597 0.08016 0.0
C495 C 0.91238 0.79983 0.27277 0.0
C496 C 0.94078 0.82592 0.18073 0.0
H497 H 0.98397 0.84637 0.13478 0.0
C498 C 0.92645 0.83084 0.14868 0.0
C499 C 0.96137 0.83314 0.1769 0.0
C500 C 0.97706 0.83012 0.21193 0.0
C501 C 0.93272 0.84079 0.11095 0.0
C502 C 0.95395 0.84545 0.10473 0.0
C503 C 0.96774 0.84256 0.13883 0.0
C504 C 0.96287 0.84948 0.06169 0.0
C505 C 0.91663 0.84548 0.07755 0.0
C506 C 0.95917 0.83513 0.02898 0.0
C507 C 0.97152 0.8349 0.99259 0.0
C508 C 0.98797 0.84891 0.98807 0.0
C509 C 0.99054 0.86456 0.01863 0.0
C510 C 0.9781 0.8648 0.05534 0.0
H511 H 0.90182 0.85013 0.09274 0.0
H512 H 0.9217 0.858 0.05569 0.0
H513 H 0.91354 0.83129 0.05867 0.0
H514 H 0.94803 0.82278 0.03318 0.0
H515 H 0.96942 0.82251 0.96971 0.0
H516 H 0.89077 0.18426 0.72372 0.0
H517 H 0.89645 0.15669 0.77691 0.0
H518 H 0.94252 0.19452 0.83859 0.0
H519 H 0.93729 0.22152 0.78645 0.0
H520 H 0.95537 0.15334 0.82109 0.0
H521 H 0.87966 0.15665 0.90569 0.0
H522 H 0.88038 0.15365 0.84863 0.0
H523 H 0.88804 0.17774 0.87215 0.0
C524 C 0.90203 0.18665 0.74877 0.0
C525 C 0.91365 0.2051 0.75048 0.0
C526 C 0.90523 0.17092 0.77915 0.0
C527 C 0.91996 0.17355 0.8117 0.0
C528 C 0.93121 0.19204 0.8136 0.0
H529 H 0.95459 0.16688 0.04953 0.0
H530 H 0.93346 0.16429 0.98601 0.0
C531 C 0.92815 0.20754 0.78355 0.0
C532 C 0.92441 0.15748 0.84435 0.0
H533 H 0.90752 0.14145 0.94188 0.0
C534 C 0.94479 0.15011 0.84708 0.0
C535 C 0.91047 0.1532 0.87786 0.0
C536 C 0.88838 0.16068 0.87635 0.0
C537 C 0.95238 0.14093 0.88449 0.0
C538 C 0.93893 0.13838 0.91984 0.0
C539 C 0.91786 0.14345 0.91499 0.0
C540 C 0.94728 0.13569 0.96383 0.0
C541 C 0.97526 0.13628 0.88713 0.0
C542 C 0.961 0.11958 0.97483 0.0
C543 C 0.97347 0.12123 0.01139 0.0
C544 C 0.97204 0.13884 0.03751 0.0
C545 C 0.95623 0.15327 0.02962 0.0
C546 C 0.94405 0.15176 0.99318 0.0
H547 H 0.98382 0.14158 0.85843 0.0
H548 H 0.98219 0.14393 0.9154 0.0
H549 H 0.97761 0.11934 0.89014 0.0
H550 H 0.96326 0.1066 0.95355 0.0
H551 H 0.98547 0.10982 0.01684 0.0
H552 H 0.63851 0.25011 0.72604 0.0
H553 H 0.64214 0.2262 0.66609 0.0
H554 H 0.63042 0.17468 0.74996 0.0
H555 H 0.62591 0.19873 0.80957 0.0
H556 H 0.66118 0.18921 0.63776 0.0
H557 H 0.57806 0.17753 0.67828 0.0
H558 H 0.59365 0.19695 0.70401 0.0
H559 H 0.59622 0.17017 0.71877 0.0
C560 C 0.6379 0.2336 0.7321 0.0
C561 C 0.63201 0.22622 0.77236 0.0
C562 C 0.63978 0.21992 0.69771 0.0
C563 C 0.6359 0.19869 0.70326 0.0
C564 C 0.63302 0.19104 0.74474 0.0
H565 H 0.57656 0.12912 0.49855 0.0
H566 H 0.59849 0.13226 0.56212 0.0
C567 C 0.63079 0.20476 0.77897 0.0
C568 C 0.6309 0.1857 0.66545 0.0
H569 H 0.58979 0.16337 0.61479 0.0
C570 C 0.64567 0.18322 0.63301 0.0
C571 C 0.61062 0.17788 0.65908 0.0
C572 C 0.59364 0.18085 0.69161 0.0
C573 C 0.64051 0.17381 0.59394 0.0
C574 C 0.61997 0.16699 0.58687 0.0
C575 C 0.60558 0.1684 0.62022 0.0
C576 C 0.6119 0.16166 0.54377 0.0
C577 C 0.657 0.17172 0.56027 0.0
C578 C 0.61285 0.17657 0.51132 0.0
C579 C 0.6004 0.17476 0.47519 0.0
C580 C 0.58668 0.15803 0.47066 0.0
C581 C 0.58719 0.14203 0.50093 0.0
C582 C 0.59962 0.14391 0.53741 0.0
H583 H 0.6725 0.16964 0.57497 0.0
H584 H 0.65389 0.15846 0.5387 0.0
H585 H 0.6575 0.18612 0.54101 0.0
H586 H 0.62174 0.19063 0.51562 0.0
H587 H 0.60021 0.18739 0.45245 0.0
H588 H 0.52782 0.87756 0.47561 0.0
H589 H 0.55163 0.87317 0.41569 0.0
H590 H 0.59777 0.84851 0.50094 0.0
H591 H 0.57352 0.85199 0.56053 0.0
H592 H 0.59117 0.88139 0.38669 0.0
H593 H 0.58311 0.79833 0.43078 0.0
H594 H 0.56824 0.81837 0.45628 0.0
H595 H 0.59488 0.8143 0.47072 0.0
C596 C 0.54344 0.87225 0.48188 0.0
C597 C 0.54892 0.86526 0.52269 0.0
C598 C 0.557 0.86953 0.4475 0.0
C599 C 0.57627 0.85986 0.45352 0.0
C600 C 0.58279 0.85548 0.49528 0.0
H601 H 0.6357 0.78604 0.25303 0.0
H602 H 0.63495 0.80832 0.31658 0.0
C603 C 0.56908 0.85785 0.52952 0.0
C604 C 0.5877 0.85145 0.416 0.0
H605 H 0.60075 0.80575 0.36799 0.0
C606 C 0.59356 0.86487 0.38288 0.0
C607 C 0.59077 0.82984 0.41073 0.0
C608 C 0.58379 0.81432 0.44375 0.0
C609 C 0.6018 0.85725 0.34439 0.0
C610 C 0.60408 0.83563 0.33864 0.0
C611 C 0.59922 0.82233 0.37251 0.0
C612 C 0.6083 0.82609 0.29628 0.0
C613 C 0.60754 0.87239 0.30984 0.0
C614 C 0.5941 0.82913 0.26306 0.0
C615 C 0.59448 0.81642 0.2271 0.0
C616 C 0.60914 0.80044 0.22336 0.0
C617 C 0.62449 0.79849 0.25475 0.0
C618 C 0.62396 0.81112 0.29118 0.0
H619 H 0.61202 0.88761 0.3235 0.0
H620 H 0.62049 0.86647 0.29004 0.0
H621 H 0.59395 0.87494 0.28889 0.0
H622 H 0.58158 0.84017 0.26645 0.0
H623 H 0.5823 0.81806 0.2036 0.0
H624 H 0.58095 0.68765 0.20875 0.0
H625 H 0.58211 0.66602 0.27237 0.0
H626 H 0.63922 0.69517 0.31024 0.0
H627 H 0.6381 0.71705 0.24608 0.0
H628 H 0.61114 0.63867 0.3167 0.0
H629 H 0.5955 0.71314 0.40057 0.0
H630 H 0.59353 0.71085 0.34348 0.0
H631 H 0.61849 0.71157 0.3685 0.0
C632 C 0.59415 0.68897 0.22986 0.0
C633 C 0.60934 0.70417 0.22267 0.0
C634 C 0.5948 0.67656 0.26623 0.0
C635 C 0.61054 0.6792 0.29646 0.0
C636 C 0.62682 0.69301 0.28748 0.0
H637 H 0.57992 0.65541 0.56088 0.0
H638 H 0.60338 0.66 0.50046 0.0
C639 C 0.62627 0.70539 0.25067 0.0
C640 C 0.60779 0.66993 0.33948 0.0
H641 H 0.59142 0.6828 0.43931 0.0
C642 C 0.60725 0.64828 0.34387 0.0
C643 C 0.60266 0.68245 0.37491 0.0
C644 C 0.60241 0.70579 0.37192 0.0
C645 C 0.60111 0.63886 0.38235 0.0
C646 C 0.59476 0.65142 0.41699 0.0
C647 C 0.59633 0.67305 0.41306 0.0
C648 C 0.58432 0.64299 0.45582 0.0
C649 C 0.6013 0.61556 0.38518 0.0
C650 C 0.56643 0.63071 0.4519 0.0
C651 C 0.55337 0.62751 0.48693 0.0
C652 C 0.55775 0.63686 0.52624 0.0
C653 C 0.57645 0.64764 0.53114 0.0
C654 C 0.58973 0.65047 0.4964 0.0
H655 H 0.61379 0.60895 0.36502 0.0
H656 H 0.6035 0.61016 0.41843 0.0
H657 H 0.58637 0.60945 0.37308 0.0
H658 H 0.56147 0.6252 0.421 0.0
H659 H 0.53872 0.6197 0.482 0.0
H660 H 0.62067 0.30967 0.73398 0.0
H661 H 0.61393 0.33068 0.67004 0.0
H662 H 0.55056 0.33874 0.70952 0.0
H663 H 0.55706 0.31745 0.77248 0.0
H664 H 0.57992 0.31492 0.61384 0.0
H665 H 0.56922 0.39712 0.66007 0.0
H666 H 0.58533 0.37939 0.68994 0.0
H667 H 0.55769 0.37827 0.69497 0.0
C668 C 0.60554 0.31659 0.72971 0.0
C669 C 0.58938 0.31198 0.7581 0.0
C670 C 0.60169 0.32853 0.69318 0.0
C671 C 0.58179 0.33645 0.68526 0.0
C672 C 0.5661 0.3331 0.71532 0.0
H673 H 0.49604 0.37305 0.50014 0.0
H674 H 0.51954 0.37316 0.56112 0.0
C675 C 0.56981 0.32087 0.7512 0.0
C676 C 0.57616 0.3448 0.64274 0.0
H677 H 0.55485 0.3868 0.59317 0.0
C678 C 0.5749 0.33077 0.60884 0.0
C679 C 0.56929 0.36536 0.63676 0.0
C680 C 0.57054 0.38102 0.67223 0.0
C681 C 0.56571 0.33627 0.56994 0.0
C682 C 0.55839 0.35682 0.56393 0.0
C683 C 0.56059 0.37116 0.59738 0.0
C684 C 0.54624 0.36274 0.52532 0.0
C685 C 0.5625 0.31945 0.53714 0.0
C686 C 0.55376 0.35866 0.48412 0.0
C687 C 0.54017 0.35814 0.44939 0.0
C688 C 0.5191 0.36269 0.45501 0.0
C689 C 0.5123 0.3698 0.49487 0.0
C690 C 0.52573 0.36969 0.52986 0.0
H691 H 0.56437 0.30373 0.551 0.0
H692 H 0.54682 0.32044 0.52283 0.0
H693 H 0.57414 0.32114 0.51143 0.0
H694 H 0.5697 0.35405 0.47942 0.0
H695 H 0.54572 0.3524 0.41905 0.0
H696 H 0.92903 0.31393 0.03863 0.0
H697 H 0.90466 0.31241 0.97954 0.0
H698 H 0.91443 0.37734 0.95489 0.0
H699 H 0.93921 0.37893 0.01439 0.0
H700 H 0.8681 0.33382 0.95085 0.0
H701 H 0.93715 0.34755 0.8481 0.0
H702 H 0.9396 0.34176 0.90403 0.0
H703 H 0.93096 0.36688 0.88725 0.0
C704 C 0.92564 0.32804 0.02133 0.0
C705 C 0.93628 0.34648 0.03075 0.0
C706 C 0.9116 0.32716 0.98763 0.0
C707 C 0.90796 0.34465 0.9623 0.0
C708 C 0.9172 0.36358 0.97376 0.0
H709 H 0.88026 0.31947 0.69916 0.0
H710 H 0.87802 0.34147 0.76228 0.0
C711 C 0.93125 0.36452 0.0079 0.0
C712 C 0.89701 0.34187 0.921 0.0
H713 H 0.90724 0.33586 0.81522 0.0
C714 C 0.87646 0.33471 0.92095 0.0
C715 C 0.90788 0.34303 0.88198 0.0
C716 C 0.93014 0.35009 0.87998 0.0
C717 C 0.86685 0.32784 0.88323 0.0
C718 C 0.87825 0.32763 0.84471 0.0
C719 C 0.89834 0.33603 0.84449 0.0
C720 C 0.87128 0.31633 0.80571 0.0
C721 C 0.84473 0.32052 0.88535 0.0
C722 C 0.86631 0.29515 0.80817 0.0
C723 C 0.86683 0.2827 0.77165 0.0
C724 C 0.87285 0.29112 0.73236 0.0
C725 C 0.87521 0.31266 0.72894 0.0
C726 C 0.87424 0.3252 0.76524 0.0
H727 H 0.8359 0.32945 0.90954 0.0
H728 H 0.83681 0.32201 0.85412 0.0
H729 H 0.84446 0.30403 0.89522 0.0
H730 H 0.86437 0.28769 0.83878 0.0
H731 H 0.86543 0.26607 0.77534 0.0
H732 H 0.86439 0.73086 0.25139 0.0
H733 H 0.86132 0.7127 0.18348 0.0
H734 H 0.87165 0.65447 0.24726 0.0
H735 H 0.87541 0.67274 0.31486 0.0
H736 H 0.90226 0.66367 0.19428 0.0
H737 H 0.82888 0.67421 0.10709 0.0
H738 H 0.83836 0.69823 0.128 0.0
H739 H 0.83086 0.67788 0.16402 0.0
C740 C 0.86466 0.71408 0.25132 0.0
C741 C 0.87027 0.7032 0.28829 0.0
C742 C 0.86299 0.70364 0.2123 0.0
C743 C 0.86647 0.68216 0.21 0.0
C744 C 0.86898 0.67103 0.24808 0.0
H745 H 0.93221 0.62653 0.99143 0.0
H746 H 0.90883 0.62592 0.05322 0.0
C747 C 0.87093 0.68147 0.28687 0.0
C748 C 0.87262 0.67248 0.16877 0.0
H749 H 0.85957 0.66862 0.06362 0.0
C750 C 0.89269 0.66422 0.16593 0.0
C751 C 0.86026 0.67335 0.13166 0.0
C752 C 0.83831 0.68122 0.1329 0.0
C753 C 0.9013 0.65823 0.12679 0.0
C754 C 0.88929 0.65997 0.08919 0.0
C755 C 0.86877 0.66714 0.09235 0.0
C756 C 0.89894 0.6578 0.04627 0.0
C757 C 0.92375 0.65169 0.12582 0.0
C758 C 0.89977 0.67522 0.01973 0.0
C759 C 0.91274 0.67546 0.98425 0.0
C760 C 0.9253 0.6583 0.97446 0.0
C761 C 0.92285 0.64004 0.99829 0.0
C762 C 0.90966 0.63977 0.0339 0.0
H763 H 0.93177 0.65487 0.15644 0.0
H764 H 0.92472 0.63481 0.11969 0.0
H765 H 0.93222 0.65987 0.10006 0.0
H766 H 0.89155 0.68926 0.02817 0.0
H767 H 0.91398 0.68968 0.96612 0.0
H768 H 0.42517 0.37007 0.48609 0.0
H769 H 0.40049 0.36807 0.54589 0.0
H770 H 0.40028 0.30149 0.53598 0.0
H771 H 0.42452 0.30334 0.47689 0.0
H772 H 0.36033 0.31926 0.55539 0.0
H773 H 0.42379 0.34708 0.66137 0.0
H774 H 0.41635 0.36309 0.61709 0.0
H775 H 0.4288 0.33869 0.60757 0.0
C776 C 0.41948 0.35508 0.4962 0.0
C777 C 0.42705 0.33686 0.47729 0.0
C778 C 0.40546 0.35394 0.5304 0.0
C779 C 0.39873 0.33459 0.5457 0.0
C780 C 0.40523 0.31657 0.5248 0.0
H781 H 0.36274 0.2584 0.74082 0.0
H782 H 0.36021 0.27738 0.67405 0.0
C783 C 0.41925 0.31768 0.49118 0.0
C784 C 0.38705 0.33238 0.58624 0.0
H785 H 0.39518 0.33199 0.69345 0.0
C786 C 0.36767 0.3225 0.58573 0.0
C787 C 0.39658 0.33664 0.6258 0.0
C788 C 0.41756 0.34686 0.62839 0.0
C789 C 0.3581 0.31582 0.62361 0.0
C790 C 0.36844 0.31862 0.66295 0.0
C791 C 0.38712 0.3298 0.6635 0.0
C792 C 0.36214 0.30781 0.70296 0.0
C793 C 0.33728 0.3054 0.62085 0.0
C794 C 0.36276 0.31841 0.74205 0.0
C795 C 0.36462 0.30746 0.78029 0.0
C796 C 0.36554 0.28573 0.78014 0.0
C797 C 0.36169 0.27514 0.74193 0.0
C798 C 0.36031 0.28609 0.7035 0.0
H799 H 0.32794 0.31211 0.59454 0.0
H800 H 0.33952 0.28872 0.6137 0.0
H801 H 0.32845 0.30687 0.65104 0.0
H802 H 0.36405 0.33513 0.74268 0.0
H803 H 0.36778 0.31597 0.80929 0.0
H804 H 0.4372 0.63993 0.55231 0.0
H805 H 0.41263 0.64285 0.49302 0.0
H806 H 0.46133 0.62686 0.40493 0.0
H807 H 0.48552 0.62347 0.46409 0.0
H808 H 0.41807 0.67241 0.43768 0.0
H809 H 0.41389 0.60019 0.34544 0.0
H810 H 0.42347 0.60077 0.39948 0.0
H811 H 0.44044 0.60648 0.35537 0.0
C812 C 0.44224 0.63582 0.5205 0.0
C813 C 0.46307 0.63102 0.5127 0.0
C814 C 0.42827 0.63771 0.48655 0.0
C815 C 0.43498 0.63493 0.44428 0.0
C816 C 0.45548 0.62851 0.43706 0.0
H817 H 0.4343 0.6897 0.21107 0.0
H818 H 0.4349 0.66587 0.27118 0.0
C819 C 0.46937 0.62655 0.47096 0.0
C820 C 0.42231 0.64267 0.40789 0.0
H821 H 0.41061 0.63238 0.30387 0.0
C822 C 0.41578 0.66343 0.40888 0.0
C823 C 0.41927 0.63104 0.37019 0.0
C824 C 0.42446 0.60832 0.36778 0.0
C825 C 0.40815 0.67336 0.3723 0.0
C826 C 0.40672 0.66216 0.33365 0.0
C827 C 0.41173 0.64099 0.33344 0.0
C828 C 0.40387 0.67306 0.29233 0.0
C829 C 0.40336 0.69622 0.37445 0.0
C830 C 0.38577 0.68428 0.28277 0.0
C831 C 0.38535 0.69795 0.24794 0.0
C832 C 0.40308 0.7006 0.22258 0.0
C833 C 0.42045 0.68805 0.23024 0.0
C834 C 0.4208 0.67437 0.26457 0.0
H835 H 0.40755 0.7031 0.40572 0.0
H836 H 0.41183 0.70468 0.34907 0.0
H837 H 0.38656 0.69866 0.36928 0.0
H838 H 0.37242 0.68331 0.30352 0.0
H839 H 0.3718 0.70753 0.24286 0.0
H840 H 0.11705 0.69974 0.2752 0.0
H841 H 0.1098 0.67667 0.21453 0.0
H842 H 0.05232 0.70869 0.19213 0.0
H843 H 0.05922 0.73154 0.25193 0.0
H844 H 0.07109 0.65065 0.19406 0.0
H845 H 0.08805 0.71349 0.07917 0.0
H846 H 0.09751 0.7137 0.13333 0.0
H847 H 0.0713 0.72126 0.12197 0.0
C848 C 0.10275 0.70168 0.25765 0.0
C849 C 0.08884 0.71768 0.26828 0.0
C850 C 0.09866 0.6885 0.22301 0.0
C851 C 0.08066 0.69119 0.19855 0.0
C852 C 0.06643 0.70653 0.21026 0.0
H853 H 0.99668 0.64003 0.03335 0.0
H854 H 0.02086 0.64352 0.09235 0.0
C855 C 0.07045 0.7196 0.24458 0.0
C856 C 0.07669 0.67888 0.15949 0.0
H857 H 0.06678 0.68576 0.05386 0.0
C858 C 0.07059 0.6581 0.16312 0.0
C859 C 0.07646 0.68846 0.11904 0.0
C860 C 0.08387 0.71041 0.1129 0.0
C861 C 0.06271 0.6472 0.12781 0.0
C862 C 0.06052 0.65751 0.08819 0.0
C863 C 0.06826 0.67774 0.08405 0.0
C864 C 0.04768 0.64916 0.05261 0.0
C865 C 0.05631 0.62495 0.13368 0.0
C866 C 0.05464 0.6504 0.01018 0.0
C867 C 0.04065 0.64851 0.97624 0.0
C868 C 0.01956 0.6452 0.98428 0.0
C869 C 0.01299 0.64199 0.02635 0.0
C870 C 0.02688 0.64399 0.0602 0.0
H871 H 0.06643 0.61712 0.15733 0.0
H872 H 0.04026 0.62443 0.1462 0.0
H873 H 0.05691 0.6162 0.10326 0.0
H874 H 0.07055 0.65451 0.00339 0.0
H875 H 0.04596 0.65162 0.94414 0.0
H876 H 0.12864 0.30803 0.76101 0.0
H877 H 0.12567 0.33174 0.82213 0.0
H878 H 0.06341 0.34706 0.78404 0.0
H879 H 0.06641 0.32383 0.72325 0.0
H880 H 0.08412 0.38065 0.82269 0.0
H881 H 0.08989 0.30812 0.91837 0.0
H882 H 0.11159 0.3147 0.88528 0.0
H883 H 0.0874 0.3076 0.86122 0.0
C884 C 0.11468 0.31713 0.76481 0.0
C885 C 0.09767 0.31396 0.7377 0.0
C886 C 0.1129 0.3305 0.79997 0.0
C887 C 0.09412 0.34081 0.80825 0.0
C888 C 0.078 0.33924 0.77854 0.0
H889 H 0.00698 0.38055 0.98088 0.0
H890 H 0.03181 0.38104 0.92244 0.0
C891 C 0.07973 0.32591 0.74377 0.0
C892 C 0.08966 0.35061 0.85019 0.0
H893 H 0.07759 0.33749 0.9525 0.0
C894 C 0.08315 0.37137 0.85141 0.0
C895 C 0.08836 0.33853 0.88775 0.0
C896 C 0.09454 0.31598 0.88838 0.0
C897 C 0.07443 0.38003 0.88847 0.0
C898 C 0.07177 0.36749 0.92505 0.0
C899 C 0.07962 0.34719 0.92463 0.0
C900 C 0.05839 0.37366 0.96169 0.0
C901 C 0.0677 0.40237 0.88762 0.0
C902 C 0.06499 0.37018 0.00379 0.0
C903 C 0.05066 0.3698 0.03728 0.0
C904 C 0.02954 0.37308 0.02928 0.0
C905 C 0.02327 0.37862 0.98806 0.0
C906 C 0.03754 0.37885 0.95452 0.0
H907 H 0.07787 0.41163 0.8664 0.0
H908 H 0.05174 0.40334 0.87468 0.0
H909 H 0.06787 0.40935 0.91993 0.0
H910 H 0.08092 0.36601 0.01023 0.0
H911 H 0.05577 0.3649 0.06857 0.0
H912 H 0.97627 0.3243 0.21764 0.0
H913 H 0.98265 0.30434 0.28301 0.0
H914 H 0.04117 0.28409 0.23106 0.0
H915 H 0.03468 0.30369 0.16712 0.0
H916 H 0.9814 0.2655 0.27669 0.0
H917 H 0.05594 0.27638 0.35081 0.0
H918 H 0.04385 0.29741 0.32185 0.0
H919 H 0.06166 0.27993 0.29568 0.0
C920 C 0.99086 0.31636 0.2214 0.0
C921 C 0.0048 0.31513 0.18722 0.0
C922 C 0.99458 0.30497 0.25881 0.0
C923 C 0.01242 0.2925 0.26246 0.0
C924 C 0.02748 0.29373 0.23021 0.0
H925 H 0.04793 0.21768 0.16237 0.0
H926 H 0.04633 0.23767 0.22709 0.0
C927 C 0.02365 0.30481 0.19303 0.0
C928 C 0.01291 0.27402 0.29103 0.0
H929 H 0.05103 0.23964 0.31499 0.0
C930 C 0.99641 0.25999 0.2872 0.0
C931 C 0.03179 0.26662 0.30813 0.0
C932 C 0.04915 0.28109 0.31978 0.0
C933 C 1.00001 0.23855 0.28831 0.0
C934 C 0.02062 0.23134 0.2926 0.0
C935 C 0.03545 0.24516 0.3089 0.0
C936 C 0.02809 0.21523 0.26227 0.0
C937 C 0.98245 0.22414 0.27738 0.0
C938 C 0.02013 0.19493 0.26119 0.0
C939 C 0.02118 0.18327 0.22335 0.0
C940 C 0.02987 0.19201 0.18652 0.0
C941 C 0.04053 0.21082 0.18995 0.0
C942 C 0.03976 0.22223 0.22738 0.0
H943 H 0.96716 0.23185 0.28067 0.0
H944 H 0.98406 0.21875 0.24397 0.0
H945 H 0.98272 0.21044 0.29867 0.0
H946 H 0.01166 0.18879 0.28812 0.0
H947 H 0.01372 0.16839 0.22195 0.0
H948 H 0.9485 0.76405 0.42035 0.0
H949 H 0.97376 0.77156 0.47584 0.0
H950 H 0.95825 0.71436 0.53912 0.0
H951 H 0.9333 0.7065 0.48228 0.0
H952 H 0.98186 0.77176 0.56853 0.0
H953 H 0.01457 0.70302 0.48406 0.0
H954 H 0.99137 0.71486 0.46357 0.0
H955 H 0.99076 0.70096 0.51321 0.0
C956 C 0.94975 0.75359 0.44723 0.0
C957 C 0.93897 0.7348 0.44739 0.0
C958 C 0.96416 0.75789 0.47907 0.0
C959 C 0.96813 0.74338 0.51138 0.0
C960 C 0.95551 0.72573 0.51442 0.0
H961 H 0.09308 0.75119 0.4705 0.0
H962 H 0.07095 0.74411 0.53241 0.0
C963 C 0.94122 0.72127 0.48207 0.0
C964 C 0.98871 0.74427 0.53219 0.0
H965 H 0.03651 0.73023 0.49937 0.0
C966 C 0.99403 0.76195 0.55592 0.0
C967 C 0.00468 0.73124 0.5169 0.0
C968 C 1.00021 0.71142 0.49307 0.0
C969 C 0.01478 0.76843 0.55908 0.0
C970 C 0.0302 0.75755 0.53615 0.0
C971 C 0.0251 0.73834 0.51821 0.0
C972 C 0.04863 0.76809 0.51764 0.0
C973 C 0.01967 0.788 0.58302 0.0
C974 C 0.04489 0.78539 0.49177 0.0
C975 C 0.05727 0.78913 0.45634 0.0
C976 C 0.07357 0.77561 0.44597 0.0
C977 C 0.07988 0.76102 0.47638 0.0
C978 C 0.06739 0.75723 0.5122 0.0
H979 H 0.01017 0.78902 0.61244 0.0
H980 H 0.03632 0.78888 0.59162 0.0
H981 H 0.01565 0.80152 0.56288 0.0
H982 H 0.03071 0.79419 0.49476 0.0
H983 H 0.0525 0.8012 0.43449 0.0
H984 H 0.5215 0.66667 0.70859 0.0
H985 H 0.51981 0.6877 0.77354 0.0
H986 H 0.46624 0.71921 0.72289 0.0
H987 H 0.46833 0.69859 0.65886 0.0
H988 H 0.52916 0.72539 0.75996 0.0
H989 H 0.45681 0.73273 0.84451 0.0
H990 H 0.46408 0.70852 0.81964 0.0
H991 H 0.44881 0.72747 0.79106 0.0
C992 C 0.50879 0.6773 0.71264 0.0
C993 C 0.49532 0.68134 0.67865 0.0
C994 C 0.50774 0.68933 0.74985 0.0
C995 C 0.493 0.70531 0.75344 0.0
C996 C 0.47765 0.70694 0.72184 0.0
H997 H 0.47033 0.78965 0.64992 0.0
H998 H 0.46988 0.7681 0.71299 0.0
C999 C 0.47897 0.69527 0.68466 0.0
C1000 C 0.49727 0.72408 0.77966 0.0
H1001 H 0.46762 0.76621 0.80182 0.0
C1002 C 0.51602 0.73426 0.77133 0.0
C1003 C 0.48088 0.7357 0.7975 0.0
C1004 C 0.46164 0.72534 0.81415 0.0
C1005 C 0.51676 0.75593 0.76844 0.0
C1006 C 0.49832 0.76742 0.7749 0.0
C1007 C 0.48149 0.75742 0.79459 0.0
C1008 C 0.49373 0.78527 0.74634 0.0
C1009 C 0.53619 0.7658 0.7513 0.0
C1010 C 0.50604 0.80326 0.74508 0.0
C1011 C 0.50629 0.81573 0.70832 0.0
C1012 C 0.49418 0.8103 0.67292 0.0
C1013 C 0.47998 0.79402 0.67669 0.0
C1014 C 0.47964 0.78175 0.71306 0.0
H1015 H 0.54945 0.75485 0.75083 0.0
H1016 H 0.53352 0.77135 0.71829 0.0
H1017 H 0.54051 0.77922 0.77132 0.0
H1018 H 0.51667 0.80665 0.77073 0.0
H1019 H 0.51727 0.82827 0.70613 0.0
H1020 H 0.58331 0.27673 0.95277 0.0
H1021 H 0.56271 0.27936 0.01792 0.0
H1022 H 0.52939 0.22425 0.98113 0.0
H1023 H 0.54946 0.22209 0.91669 0.0
H1024 H 0.52546 0.2893 0.00747 0.0
H1025 H 0.51767 0.22101 0.104 0.0
H1026 H 0.54118 0.22552 0.07418 0.0
H1027 H 0.52039 0.21017 0.05186 0.0
C1028 C 0.57206 0.26491 0.95931 0.0
C1029 C 0.56726 0.2499 0.92854 0.0
C1030 C 0.56039 0.26624 0.99698 0.0
C1031 C 0.54413 0.2522 0.00467 0.0
C1032 C 0.54182 0.23528 0.97688 0.0
H1033 H 0.45258 0.23227 0.91473 0.0
H1034 H 0.47716 0.23145 0.97329 0.0
C1035 C 0.55319 0.2342 0.93929 0.0
C1036 C 0.52598 0.25807 0.03147 0.0
H1037 H 0.48328 0.23117 0.06241 0.0
C1038 C 0.5164 0.27698 0.02164 0.0
C1039 C 0.51417 0.24284 0.05283 0.0
C1040 C 0.52411 0.22388 0.07173 0.0
C1041 C 0.49475 0.27875 0.02167 0.0
C1042 C 0.48266 0.26112 0.03198 0.0
C1043 C 0.49246 0.24432 0.05216 0.0
C1044 C 0.46326 0.257 0.0078 0.0
C1045 C 0.48525 0.29831 0.00409 0.0
C1046 C 0.44616 0.27047 0.00917 0.0
C1047 C 0.43209 0.27102 0.97508 0.0
C1048 C 0.43468 0.25768 0.94015 0.0
C1049 C 0.45013 0.24251 0.94163 0.0
C1050 C 0.46419 0.24206 0.97527 0.0
H1051 H 0.49689 0.31079 0.99971 0.0
H1052 H 0.47796 0.2951 0.97277 0.0
H1053 H 0.47316 0.3041 0.02614 0.0
H1054 H 0.44478 0.28183 0.03436 0.0
H1055 H 0.42041 0.28305 0.97421 0.0
H1056 H 0.04816 0.81776 0.79353 0.0
H1057 H 0.04135 0.80248 0.72297 0.0
H1058 H 0.98904 0.76977 0.77625 0.0
H1059 H 0.99596 0.78467 0.84489 0.0
H1060 H 0.0468 0.76437 0.70503 0.0
H1061 H 0.96686 0.76964 0.66029 0.0
H1062 H 0.98046 0.79159 0.6826 0.0
H1063 H 0.96567 0.77436 0.71639 0.0
C1064 C 0.03478 0.80795 0.78932 0.0
C1065 C 0.02269 0.80217 0.82457 0.0
C1066 C 0.03083 0.79925 0.74898 0.0
C1067 C 0.0145 0.78502 0.74345 0.0
C1068 C 0.00139 0.78103 0.77834 0.0
H1069 H 0.02021 0.71144 0.84601 0.0
H1070 H 0.03078 0.72686 0.78 0.0
C1071 C 0.00553 0.78935 0.81822 0.0
C1072 C 0.01384 0.77026 0.70681 0.0
H1073 H 0.97684 0.73359 0.69669 0.0
C1074 C 0.03149 0.75786 0.70072 0.0
C1075 C 0.9946 0.76172 0.6945 0.0
C1076 C 0.97591 0.77523 0.68807 0.0
C1077 C 0.02931 0.73624 0.69811 0.0
C1078 C 0.00952 0.7276 0.70569 0.0
C1079 C 0.9923 0.74008 0.696 0.0
C1080 C 0.00691 0.71239 0.7412 0.0
C1081 C 0.04827 0.72279 0.69536 0.0
C1082 C 0.9902 0.69834 0.74257 0.0
C1083 C 0.98406 0.68937 0.7815 0.0
C1084 C 0.99428 0.69474 0.81942 0.0
C1085 C 0.01198 0.70714 0.81726 0.0
C1086 C 0.01826 0.71576 0.77886 0.0
H1087 H 0.05905 0.72905 0.67101 0.0
H1088 H 0.05658 0.72284 0.72628 0.0
H1089 H 0.04413 0.70663 0.68687 0.0
H1090 H 0.98108 0.69545 0.71427 0.0
H1091 H 0.97049 0.67962 0.7824 0.0
H1092 H 0.58366 0.72742 0.03853 0.0
H1093 H 0.56488 0.72215 0.97184 0.0
H1094 H 0.53182 0.77925 0.99408 0.0
H1095 H 0.55084 0.78428 0.0596 0.0
H1096 H 0.52821 0.7136 0.9919 0.0
H1097 H 0.51659 0.77249 0.87234 0.0
H1098 H 0.54132 0.76957 0.89881 0.0
H1099 H 0.52189 0.78706 0.91955 0.0
C1100 C 0.57355 0.73947 0.02729 0.0
C1101 C 0.56855 0.75605 0.05409 0.0
C1102 C 0.56269 0.7365 0.98913 0.0
C1103 C 0.54649 0.75003 0.97792 0.0
C1104 C 0.54419 0.7685 1.00129 0.0
H1105 H 0.45784 0.7834 0.06315 0.0
H1106 H 0.47932 0.77669 1.00135 0.0
C1107 C 0.55494 0.77132 0.03936 0.0
C1108 C 0.52777 0.7419 0.95578 0.0
H1109 H 0.48406 0.76551 0.92001 0.0
C1110 C 0.5186 0.72446 0.97453 0.0
C1111 C 0.51523 0.75495 0.93055 0.0
C1112 C 0.52446 0.77189 0.90378 0.0
C1113 C 0.49709 0.72333 0.97975 0.0
C1114 C 0.48458 0.73962 0.96346 0.0
C1115 C 0.4936 0.75364 0.93457 0.0
C1116 C 0.46596 0.74659 0.98759 0.0
C1117 C 0.48872 0.70669 0.00884 0.0
C1118 C 0.44984 0.73297 0.99847 0.0
C1119 C 0.43797 0.73657 0.03509 0.0
C1120 C 0.44127 0.75441 0.05956 0.0
C1121 C 0.45497 0.76954 0.04462 0.0
C1122 C 0.46721 0.7657 0.00896 0.0
H1123 H 0.50076 0.6953 0.01832 0.0
H1124 H 0.48238 0.71374 0.03832 0.0
H1125 H 0.47623 0.69804 0.99261 0.0
H1126 H 0.448 0.71849 0.98181 0.0
H1127 H 0.42813 0.72433 0.04682 0.0
H1128 H 0.54163 0.17894 0.28389 0.0
H1129 H 0.5316 0.19465 0.21537 0.0
H1130 H 0.47846 0.2223 0.27636 0.0
H1131 H 0.48851 0.207 0.34362 0.0
H1132 H 0.47181 0.21411 0.18595 0.0
H1133 H 0.54555 0.25624 0.21119 0.0
H1134 H 0.54446 0.22893 0.19985 0.0
H1135 H 0.53869 0.23818 0.25257 0.0
C1136 C 0.52748 0.1878 0.28201 0.0
C1137 C 0.51605 0.19219 0.31903 0.0
C1138 C 0.52175 0.19678 0.2429 0.0
C1139 C 0.50444 0.20999 0.24071 0.0
C1140 C 0.49184 0.21218 0.27689 0.0
H1141 H 0.45016 0.27812 0.3238 0.0
H1142 H 0.45378 0.25867 0.25871 0.0
C1143 C 0.49769 0.20358 0.31561 0.0
C1144 C 0.50157 0.22553 0.20628 0.0
H1145 H 0.51488 0.27623 0.21091 0.0
C1146 C 0.48155 0.22769 0.1893 0.0
C1147 C 0.51457 0.24315 0.20646 0.0
C1148 C 0.53712 0.24163 0.21808 0.0
C1149 C 0.47264 0.24746 0.18513 0.0
C1150 C 0.48392 0.26488 0.19956 0.0
C1151 C 0.50551 0.26283 0.20322 0.0
C1152 C 0.47398 0.28086 0.22736 0.0
C1153 C 0.45051 0.24929 0.17076 0.0
C1154 C 0.48266 0.30079 0.23136 0.0
C1155 C 0.48068 0.3119 0.26957 0.0
C1156 C 0.46987 0.30333 0.30393 0.0
C1157 C 0.45865 0.28504 0.29766 0.0
C1158 C 0.46055 0.27397 0.25975 0.0
H1159 H 0.44815 0.23994 0.14147 0.0
H1160 H 0.44006 0.24291 0.19554 0.0
H1161 H 0.44625 0.26561 0.1641 0.0
H1162 H 0.49304 0.30663 0.20721 0.0
H1163 H 0.48965 0.32579 0.27397 0.0
H1164 H 0.04183 0.22128 0.61104 0.0
H1165 H 0.02177 0.21786 0.54791 0.0
H1166 H 0.06071 0.26279 0.4843 0.0
H1167 H 0.08015 0.26736 0.55083 0.0
H1168 H 0.02856 0.27518 0.46507 0.0
H1169 H 0.00551 0.19786 0.44068 0.0
H1170 H 0.00522 0.19651 0.49736 0.0
H1171 H 0.02928 0.20209 0.46968 0.0
C1172 C 0.04656 0.23008 0.5833 0.0
C1173 C 0.0621 0.24509 0.58642 0.0
C1174 C 0.03518 0.22777 0.54611 0.0
C1175 C 0.03923 0.24011 0.51008 0.0
C1176 C 0.05674 0.25327 0.51145 0.0
H1177 H 0.92032 0.24106 0.55023 0.0
H1178 H 0.9411 0.23763 0.4849 0.0
C1179 C 0.06803 0.25584 0.54951 0.0
C1180 C 0.02226 0.24288 0.47775 0.0
H1181 H 0.97429 0.2216 0.47551 0.0
C1182 C 0.01697 0.26316 0.46555 0.0
C1183 C 0.00696 0.22741 0.47175 0.0
C1184 C 0.0123 0.20473 0.46994 0.0
C1185 C 0.99611 0.26884 0.46083 0.0
C1186 C 0.98066 0.25447 0.47307 0.0
C1187 C 0.98602 0.23338 0.47152 0.0
C1188 C 0.96371 0.26089 0.50297 0.0
C1189 C 0.99085 0.29073 0.44839 0.0
C1190 C 0.96829 0.27601 0.53382 0.0
C1191 C 0.95665 0.27768 0.57077 0.0
C1192 C 0.94017 0.26413 0.57877 0.0
C1193 C 0.93359 0.25096 0.54585 0.0
C1194 C 0.94543 0.24917 0.50827 0.0
H1195 H 0.99807 0.29428 0.41714 0.0
H1196 H 0.97388 0.29319 0.4459 0.0
H1197 H 0.99752 0.30176 0.4718 0.0
H1198 H 0.98224 0.2852 0.53223 0.0
H1199 H 0.96181 0.28854 0.59484 0.0
H1200 H 0.0589 0.0713 0.08326 0.0
H1201 H 0.0587 0.04044 0.03845 0.0
H1202 H 0.99198 0.03967 0.04196 0.0
H1203 H 0.9923 0.07049 0.08751 0.0
H1204 H 0.00861 0.00444 0.07406 0.0
H1205 H 0.04571 0.02135 0.91929 0.0
H1206 H 0.06092 0.03053 0.96315 0.0
H1207 H 0.03574 0.04151 0.95345 0.0
C1208 C 0.04419 0.06533 0.07214 0.0
C1209 C 0.02561 0.07348 0.088 0.0
C1210 C 0.04406 0.04752 0.04681 0.0
C1211 C 0.02531 0.03765 0.03681 0.0
C1212 C 0.00663 0.04702 0.04919 0.0
H1213 H 0.00375 0.91534 0.92935 0.0
H1214 H 0.99878 0.94686 0.97152 0.0
C1215 C 0.00679 0.06484 0.07458 0.0
C1216 C 0.02547 0.01613 0.0199 0.0
H1217 H 0.04566 0.98573 0.94134 0.0
C1218 C 0.01645 1.00037 0.04469 0.0
C1219 C 0.03581 0.01078 0.98181 0.0
C1220 C 0.04491 0.02698 0.95269 0.0
C1221 C 0.01813 0.9794 0.03315 0.0
C1222 C 0.029 0.97405 0.99573 0.0
C1223 C 0.03759 0.98983 0.97044 0.0
C1224 C 0.03149 0.95229 0.9813 0.0
C1225 C 0.00883 0.96308 0.06168 0.0
C1226 C 0.05142 0.94421 0.97491 0.0
C1227 C 0.05421 0.92612 0.95119 0.0
C1228 C 0.03713 0.91584 0.9335 0.0
C1229 C 0.01711 0.92264 0.94381 0.0
C1230 C 0.01429 0.9408 0.96749 0.0
H1231 H 0.00516 0.96927 0.09382 0.0
H1232 H 0.99425 0.95736 0.04721 0.0
H1233 H 0.0195 0.94971 0.06515 0.0
H1234 H 0.0649 0.95282 0.98527 0.0
H1235 H 0.0698 0.9215 0.94268 0.0
H1236 H 0.1761 0.76409 0.36212 0.0
H1237 H 0.20642 0.77795 0.32479 0.0
H1238 H 0.21145 0.72124 0.25321 0.0
H1239 H 0.18143 0.70723 0.29109 0.0
H1240 H 0.24487 0.74963 0.33482 0.0
H1241 H 0.22575 0.77258 0.16878 0.0
H1242 H 0.20727 0.77423 0.21195 0.0
H1243 H 0.21329 0.74959 0.18871 0.0
C1244 C 0.18293 0.75511 0.33658 0.0
C1245 C 0.17622 0.73479 0.32863 0.0
C1246 C 0.20041 0.76293 0.31573 0.0
C1247 C 0.21112 0.7506 0.28631 0.0
C1248 C 0.20322 0.73106 0.27548 0.0
H1249 H 0.32527 0.71619 0.19493 0.0
H1250 H 0.2964 0.72333 0.24308 0.0
C1251 C 0.18599 0.72313 0.29681 0.0
C1252 C 0.2323 0.75617 0.2727 0.0
H1253 H 0.26125 0.76561 0.18412 0.0
C1254 C 0.24849 0.75361 0.30209 0.0
C1255 C 0.2369 0.7614 0.23016 0.0
C1256 C 0.21993 0.76478 0.19796 0.0
C1257 C 0.26928 0.75484 0.28928 0.0
C1258 C 0.27391 0.7587 0.24607 0.0
C1259 C 0.25768 0.76264 0.21732 0.0
C1260 C 0.29505 0.75606 0.22859 0.0
C1261 C 0.28613 0.75124 0.32164 0.0
C1262 C 0.30467 0.7723 0.20651 0.0
C1263 C 0.32148 0.76826 0.17968 0.0
C1264 C 0.32862 0.7479 0.17419 0.0
C1265 C 0.3204 0.73209 0.19962 0.0
C1266 C 0.30377 0.73615 0.22683 0.0
H1267 H 0.28059 0.75433 0.35453 0.0
H1268 H 0.29119 0.73484 0.31998 0.0
H1269 H 0.29977 0.7612 0.31503 0.0
H1270 H 0.29811 0.78773 0.20724 0.0
H1271 H 0.32724 0.78058 0.15949 0.0
H1272 H 0.51083 0.08798 0.41936 0.0
H1273 H 0.50096 0.0579 0.4625 0.0
H1274 H 0.56425 0.03666 0.46111 0.0
H1275 H 0.57391 0.06633 0.4172 0.0
H1276 H 0.53758 0.00851 0.42659 0.0
H1277 H 0.50765 0.03538 0.58279 0.0
H1278 H 0.49642 0.04827 0.53769 0.0
H1279 H 0.52349 0.05152 0.54898 0.0
C1280 C 0.52278 0.0775 0.43038 0.0
C1281 C 0.54317 0.07955 0.41556 0.0
C1282 C 0.51712 0.06018 0.45471 0.0
C1283 C 0.53186 0.04491 0.46486 0.0
C1284 C 0.5526 0.04816 0.45355 0.0
H1285 H 0.53076 0.92189 0.57366 0.0
H1286 H 0.53926 0.95182 0.52894 0.0
C1287 C 0.55818 0.06528 0.429 0.0
C1288 C 0.52541 0.02436 0.48161 0.0
H1289 H 0.50146 1.00024 0.56473 0.0
C1290 C 0.52976 0.00669 0.45693 0.0
C1291 C 0.51504 0.022 0.52091 0.0
C1292 C 0.51051 0.04026 0.54937 0.0
C1293 C 0.52394 0.98678 0.47036 0.0
C1294 C 0.5137 0.9844 0.50979 0.0
C1295 C 0.50922 0.00207 0.53434 0.0
C1296 C 0.50795 0.96377 0.52719 0.0
C1297 C 0.5285 0.96852 0.44192 0.0
C1298 C 0.48741 0.95996 0.53935 0.0
C1299 C 0.4826 0.94287 0.56472 0.0
C1300 C 0.4982 0.92924 0.57819 0.0
C1301 C 0.51837 0.93183 0.56256 0.0
C1302 C 0.52325 0.94907 0.53734 0.0
H1303 H 0.53091 0.97337 0.40834 0.0
H1304 H 0.54287 0.96081 0.45302 0.0
H1305 H 0.51574 0.95702 0.44298 0.0
H1306 H 0.47535 0.97104 0.53187 0.0
H1307 H 0.46704 0.94145 0.57725 0.0
H1308 H 0.33449 0.25211 0.84284 0.0
H1309 H 0.30359 0.26522 0.80664 0.0
H1310 H 0.28867 0.20332 0.76578 0.0
H1311 H 0.31989 0.19026 0.80095 0.0
H1312 H 0.28477 0.25887 0.71687 0.0
H1313 H 0.24148 0.22369 0.85186 0.0
H1314 H 0.26884 0.22927 0.85461 0.0
H1315 H 0.25983 0.20733 0.82488 0.0
C1316 C 0.32545 0.24153 0.82369 0.0
C1317 C 0.32998 0.22025 0.82352 0.0
C1318 C 0.3075 0.24897 0.80383 0.0
C1319 C 0.29371 0.23516 0.78417 0.0
C1320 C 0.29905 0.21418 0.7811 0.0
H1321 H 0.17039 0.24072 0.6793 0.0
H1322 H 0.20114 0.23049 0.72005 0.0
C1323 C 0.317 0.20678 0.80072 0.0
C1324 C 0.27286 0.24221 0.77075 0.0
H1325 H 0.22158 0.23873 0.79681 0.0
C1326 C 0.27095 0.2546 0.73439 0.0
C1327 C 0.25489 0.23651 0.79373 0.0
C1328 C 0.25622 0.22358 0.83365 0.0
C1329 C 0.25144 0.26106 0.71971 0.0
C1330 C 0.23339 0.25548 0.74284 0.0
C1331 C 0.23537 0.24313 0.77934 0.0
C1332 C 0.21239 0.26179 0.72839 0.0
C1333 C 0.25032 0.27323 0.67872 0.0
C1334 C 0.2076 0.28281 0.72282 0.0
C1335 C 0.19008 0.28862 0.69964 0.0
C1336 C 0.17683 0.27354 0.68257 0.0
C1337 C 0.18013 0.25266 0.69292 0.0
C1338 C 0.19788 0.2468 0.71566 0.0
H1339 H 0.26466 0.27153 0.65951 0.0
H1340 H 0.23696 0.2682 0.65904 0.0
H1341 H 0.24836 0.2899 0.68623 0.0
H1342 H 0.21826 0.29467 0.73342 0.0
H1343 H 0.188 0.30479 0.69154 0.0
H1344 H 0.6681 0.25629 0.83025 0.0
H1345 H 0.69859 0.24349 0.792 0.0
H1346 H 0.71966 0.30624 0.77439 0.0
H1347 H 0.68903 0.31902 0.81175 0.0
H1348 H 0.72918 0.27955 0.70505 0.0
H1349 H 0.75295 0.24688 0.86138 0.0
H1350 H 0.72849 0.23792 0.84141 0.0
H1351 H 0.73156 0.26465 0.8559 0.0
C1352 C 0.67856 0.26737 0.81598 0.0
C1353 C 0.67603 0.28866 0.8233 0.0
C1354 C 0.69626 0.26003 0.795 0.0
C1355 C 0.71166 0.27391 0.78136 0.0
C1356 C 0.70807 0.29525 0.78491 0.0
H1357 H 0.83631 0.2628 0.67495 0.0
H1358 H 0.8064 0.27667 0.71362 0.0
C1359 C 0.69047 0.30255 0.80591 0.0
C1360 C 0.73236 0.26644 0.76764 0.0
H1361 H 0.77568 0.24149 0.80356 0.0
C1362 C 0.73936 0.27123 0.72653 0.0
C1363 C 0.74573 0.25582 0.79599 0.0
C1364 C 0.73946 0.25113 0.84127 0.0
C1365 C 0.75914 0.26521 0.71257 0.0
C1366 C 0.7725 0.25454 0.74089 0.0
C1367 C 0.76552 0.24984 0.78207 0.0
C1368 C 0.79303 0.24663 0.72696 0.0
C1369 C 0.76531 0.26977 0.66717 0.0
C1370 C 0.79635 0.2252 0.72494 0.0
C1371 C 0.81365 0.21731 0.70384 0.0
C1372 C 0.82806 0.23068 0.68474 0.0
C1373 C 0.82586 0.25213 0.69051 0.0
C1374 C 0.80847 0.26006 0.71171 0.0
H1375 H 0.75177 0.27398 0.64715 0.0
H1376 H 0.77627 0.28298 0.66677 0.0
H1377 H 0.77315 0.25621 0.65259 0.0
H1378 H 0.78474 0.21454 0.73674 0.0
H1379 H 0.81483 0.20072 0.69921 0.0
H1380 H 0.83664 0.73714 0.3466 0.0
H1381 H 0.80525 0.72737 0.30777 0.0
H1382 H 0.79487 0.79138 0.27534 0.0
H1383 H 0.82624 0.80113 0.31388 0.0
H1384 H 0.76381 0.77038 0.33047 0.0
H1385 H 0.78192 0.72729 0.18121 0.0
H1386 H 0.79644 0.72156 0.2288 0.0
H1387 H 0.79961 0.74613 0.20322 0.0
C1388 C 0.82847 0.7489 0.3287 0.0
C1389 C 0.83407 0.76985 0.33244 0.0
C1390 C 0.81032 0.74335 0.3071 0.0
C1391 C 0.79769 0.7587 0.28901 0.0
C1392 C 0.80442 0.77933 0.28912 0.0
H1393 H 0.68157 0.7847 0.18439 0.0
H1394 H 0.71091 0.78328 0.23313 0.0
C1395 C 0.82247 0.78485 0.31068 0.0
C1396 C 0.77613 0.75406 0.27626 0.0
H1397 H 0.74682 0.73283 0.19737 0.0
C1398 C 0.76004 0.76201 0.30154 0.0
C1399 C 0.77132 0.7428 0.2391 0.0
C1400 C 0.78814 0.73394 0.21122 0.0
C1401 C 0.73923 0.75965 0.28977 0.0
C1402 C 0.73439 0.74945 0.25124 0.0
C1403 C 0.75049 0.74063 0.227 0.0
C1404 C 0.71323 0.74981 0.23271 0.0
C1405 C 0.72266 0.76831 0.31855 0.0
C1406 C 0.70401 0.73148 0.21796 0.0
C1407 C 0.68708 0.73235 0.19024 0.0
C1408 C 0.67923 0.75154 0.17689 0.0
C1409 C 0.68696 0.76972 0.1953 0.0
C1410 C 0.70389 0.76889 0.22293 0.0
H1411 H 0.72784 0.76843 0.35229 0.0
H1412 H 0.71938 0.78456 0.30925 0.0
H1413 H 0.70809 0.75928 0.31622 0.0
H1414 H 0.71096 0.71661 0.225 0.0
H1415 H 0.68171 0.71817 0.1755 0.0
H1416 H 0.541 0.55435 0.58299 0.0
H1417 H 0.53636 0.52531 0.53401 0.0
H1418 H 0.47289 0.54368 0.51423 0.0
H1419 H 0.47783 0.57309 0.56221 0.0
H1420 H 0.51051 0.49545 0.5575 0.0
H1421 H 0.48723 0.52262 0.39767 0.0
H1422 H 0.49952 0.53947 0.43595 0.0
H1423 H 0.47209 0.53466 0.4386 0.0
C1424 C 0.52648 0.55292 0.56597 0.0
C1425 C 0.50987 0.56611 0.57565 0.0
C1426 C 0.52373 0.53613 0.5385 0.0
C1427 C 0.50425 0.53217 0.52053 0.0
C1428 C 0.48818 0.54655 0.52699 0.0
H1429 H 0.4326 0.43337 0.42366 0.0
H1430 H 0.44712 0.46218 0.46412 0.0
C1431 C 0.49103 0.56351 0.55418 0.0
C1432 C 0.4998 0.51156 0.50146 0.0
H1433 H 0.47686 0.4879 0.41657 0.0
C1434 C 0.50351 0.49377 0.5263 0.0
C1435 C 0.49064 0.50931 0.46085 0.0
C1436 C 0.48734 0.52753 0.43158 0.0
C1437 C 0.49744 0.47399 0.51243 0.0
C1438 C 0.48742 0.47195 0.47277 0.0
C1439 C 0.48438 0.48957 0.44726 0.0
C1440 C 0.47883 0.45196 0.45778 0.0
C1441 C 0.50092 0.45552 0.54091 0.0
C1442 C 0.49177 0.43598 0.44313 0.0
C1443 C 0.4834 0.41921 0.42048 0.0
C1444 C 0.46206 0.41847 0.41211 0.0
C1445 C 0.44906 0.43346 0.43028 0.0
C1446 C 0.45736 0.45005 0.45294 0.0
H1447 H 0.50689 0.46002 0.57277 0.0
H1448 H 0.48625 0.4468 0.54508 0.0
H1449 H 0.51227 0.44493 0.52578 0.0
H1450 H 0.50841 0.43726 0.44629 0.0
H1451 H 0.49378 0.40814 0.40581 0.0
H1452 H 0.94104 0.57843 0.9396 0.0
H1453 H 0.94584 0.5472 0.98255 0.0
H1454 H 0.01137 0.54901 0.95728 0.0
H1455 H 0.00653 0.58036 0.91441 0.0
H1456 H 0.96378 0.5128 0.93285 0.0
H1457 H 0.00616 0.52785 0.08421 0.0
H1458 H 0.99044 0.54745 0.05886 0.0
H1459 H 0.015 0.54055 0.03648 0.0
C1460 C 0.95662 0.57294 0.94558 0.0
C1461 C 0.97347 0.58199 0.92446 0.0
C1462 C 0.95933 0.55491 0.96956 0.0
C1463 C 0.97894 0.54571 0.97286 0.0
C1464 C 0.99615 0.55597 0.95557 0.0
H1465 H 0.00554 0.42467 0.0875 0.0
H1466 H 0.01078 0.45479 0.04084 0.0
C1467 C 0.99341 0.57405 0.93151 0.0
C1468 C 0.98064 0.52391 0.98743 0.0
H1469 H 0.99808 0.49315 0.06816 0.0
C1470 C 0.97136 0.50848 0.96237 0.0
C1471 C 0.99096 0.51827 0.02531 0.0
C1472 C 0.00118 0.53432 0.05308 0.0
C1473 C 0.97154 0.48762 0.97486 0.0
C1474 C 0.98088 0.48205 0.01394 0.0
C1475 C 0.99095 0.49739 0.03812 0.0
C1476 C 0.97812 0.46114 0.03293 0.0
C1477 C 0.96156 0.47176 0.94618 0.0
C1478 C 0.95807 0.45409 0.04219 0.0
C1479 C 0.95512 0.43688 0.06837 0.0
C1480 C 0.97213 0.42635 0.08568 0.0
C1481 C 0.99219 0.43219 0.07346 0.0
C1482 C 0.99518 0.44958 0.0474 0.0
H1483 H 0.96209 0.47675 0.91233 0.0
H1484 H 0.96923 0.45644 0.94903 0.0
H1485 H 0.94505 0.47001 0.95518 0.0
H1486 H 0.94466 0.46292 0.03226 0.0
H1487 H 0.93954 0.43303 0.0784 0.0
H1488 H 0.06871 0.16784 0.20661 0.0
H1489 H 0.08543 0.18632 0.26506 0.0
H1490 H 0.09062 0.12921 0.33547 0.0
H1491 H 0.07428 0.11057 0.27715 0.0
H1492 H 0.06929 0.18963 0.34398 0.0
H1493 H 0.147 0.1539 0.35451 0.0
H1494 H 0.13046 0.15063 0.30869 0.0
H1495 H 0.12667 0.13502 0.35554 0.0
C1496 C 0.07391 0.15909 0.234 0.0
C1497 C 0.07003 0.1377 0.23718 0.0
C1498 C 0.08339 0.16971 0.26749 0.0
C1499 C 0.08937 0.15913 0.30455 0.0
C1500 C 0.08651 0.13764 0.30688 0.0
H1501 H 0.09928 0.217 0.55469 0.0
H1502 H 0.089 0.19531 0.4945 0.0
C1503 C 0.07708 0.127 0.27342 0.0
C1504 C 0.09678 0.17074 0.34229 0.0
H1505 H 0.13585 0.17332 0.41519 0.0
C1506 C 0.08392 0.18619 0.35939 0.0
C1507 C 0.1159 0.16629 0.36219 0.0
C1508 C 0.13089 0.1507 0.34404 0.0
C1509 C 0.08954 0.19713 0.3962 0.0
C1510 C 0.10833 0.19213 0.41701 0.0
C1511 C 0.1213 0.17689 0.39957 0.0
C1512 C 0.1154 0.2034 0.45543 0.0
C1513 C 0.07552 0.21425 0.41185 0.0
C1514 C 0.13422 0.21416 0.45441 0.0
C1515 C 0.14031 0.22629 0.48893 0.0
C1516 C 0.12766 0.22796 0.52526 0.0
C1517 C 0.10936 0.21618 0.52718 0.0
C1518 C 0.10333 0.20395 0.4926 0.0
H1519 H 0.06462 0.21949 0.3867 0.0
H1520 H 0.06621 0.2085 0.43906 0.0
H1521 H 0.08464 0.22778 0.42291 0.0
H1522 H 0.14387 0.21379 0.42619 0.0
H1523 H 0.15455 0.23503 0.48631 0.0
H1524 H 0.16579 0.74942 0.53875 0.0
H1525 H 0.16022 0.76806 0.60565 0.0
H1526 H 0.12021 0.81124 0.5411 0.0
H1527 H 0.12557 0.79292 0.4742 0.0
H1528 H 0.1622 0.81511 0.62927 0.0
H1529 H 0.08498 0.77694 0.63375 0.0
H1530 H 0.10607 0.76726 0.60165 0.0
H1531 H 0.09174 0.78957 0.58464 0.0
C1532 C 0.15623 0.7632 0.53847 0.0
C1533 C 0.14591 0.76948 0.50115 0.0
C1534 C 0.1531 0.7738 0.57673 0.0
C1535 C 0.13963 0.79078 0.57812 0.0
C1536 C 0.13057 0.79805 0.54047 0.0
H1537 H 0.09431 0.87879 0.75432 0.0
H1538 H 0.11497 0.86042 0.70152 0.0
C1539 C 0.1337 0.78753 0.50227 0.0
C1540 C 0.13315 0.79956 0.61929 0.0
H1541 H 0.09135 0.80301 0.68502 0.0
C1542 C 0.14681 0.81237 0.64183 0.0
C1543 C 0.11315 0.79563 0.63557 0.0
C1544 C 0.09812 0.78149 0.61294 0.0
C1545 C 0.1406 0.8221 0.67974 0.0
C1546 C 0.12027 0.81888 0.69502 0.0
C1547 C 0.10695 0.80541 0.67323 0.0
C1548 C 0.11172 0.83045 0.73157 0.0
C1549 C 0.1557 0.83585 0.70293 0.0
C1550 C 0.10344 0.81974 0.76646 0.0
C1551 C 0.09157 0.83019 0.79674 0.0
C1552 C 0.0875 0.85148 0.79218 0.0
C1553 C 0.09705 0.86239 0.75876 0.0
C1554 C 0.10899 0.85193 0.72862 0.0
H1555 H 0.17196 0.83212 0.69434 0.0
H1556 H 0.15273 0.85221 0.69401 0.0
H1557 H 0.15384 0.83441 0.73796 0.0
H1558 H 0.10534 0.80313 0.76915 0.0
H1559 H 0.08466 0.82135 0.82238 0.0
H1560 H 0.4101 0.79003 0.03004 0.0
H1561 H 0.42122 0.80992 0.96821 0.0
H1562 H 0.35851 0.81097 0.92122 0.0
H1563 H 0.34729 0.79055 0.98255 0.0
H1564 H 0.38509 0.79801 0.86117 0.0
H1565 H 0.4154 0.86972 0.93439 0.0
H1566 H 0.42679 0.847 0.95736 0.0
H1567 H 0.39946 0.85163 0.96341 0.0
C1568 C 0.39854 0.79492 0.00718 0.0
C1569 C 0.37778 0.78869 0.01131 0.0
C1570 C 0.40494 0.80636 0.9718 0.0
C1571 C 0.39066 0.81213 0.94025 0.0
C1572 C 0.36978 0.80671 0.94521 0.0
H1573 H 0.43241 0.89242 0.73472 0.0
H1574 H 0.41129 0.87724 0.79116 0.0
C1575 C 0.36338 0.7951 0.98038 0.0
C1576 C 0.39785 0.82221 0.90048 0.0
H1577 H 0.42657 0.86255 0.86299 0.0
C1578 C 0.39392 0.81229 0.86148 0.0
C1579 C 0.40914 0.84094 0.9008 0.0
C1580 C 0.41276 0.85305 0.94121 0.0
C1581 C 0.40161 0.82021 0.82297 0.0
C1582 C 0.41394 0.83828 0.82362 0.0
C1583 C 0.41724 0.84859 0.86246 0.0
C1584 C 0.42426 0.84649 0.78492 0.0
C1585 C 0.39638 0.80914 0.78205 0.0
C1586 C 0.43814 0.83412 0.76171 0.0
C1587 C 0.45 0.8427 0.72892 0.0
C1588 C 0.44853 0.86391 0.7194 0.0
C1589 C 0.43395 0.87603 0.74138 0.0
C1590 C 0.42191 0.8674 0.77373 0.0
H1591 H 0.38169 0.80031 0.78502 0.0
H1592 H 0.39492 0.82014 0.75506 0.0
H1593 H 0.40886 0.79792 0.77452 0.0
H1594 H 0.44063 0.81807 0.77033 0.0
H1595 H 0.46122 0.83301 0.71297 0.0
H1596 H 0.50631 0.10884 0.2162 0.0
H1597 H 0.48579 0.12225 0.15715 0.0
H1598 H 0.46584 0.17351 0.23472 0.0
H1599 H 0.48614 0.16006 0.29468 0.0
H1600 H 0.43448 0.14515 0.17251 0.0
H1601 H 0.5035 0.18416 0.10276 0.0
H1602 H 0.5066 0.15962 0.12932 0.0
H1603 H 0.49991 0.18211 0.15966 0.0
C1604 C 0.49729 0.12276 0.22123 0.0
C1605 C 0.49813 0.1335 0.26024 0.0
C1606 C 0.48565 0.13043 0.18728 0.0
C1607 C 0.47457 0.14895 0.19155 0.0
C1608 C 0.47442 0.15922 0.23088 0.0
H1609 H 0.41998 0.2226 0.98886 0.0
H1610 H 0.43969 0.21067 0.05044 0.0
C1611 C 0.48604 0.15151 0.26506 0.0
C1612 C 0.46391 0.15779 0.1541 0.0
H1613 H 0.47295 0.18435 0.06193 0.0
C1614 C 0.4428 0.1538 0.14835 0.0
C1615 C 0.47486 0.1692 0.12305 0.0
C1616 C 0.49748 0.17418 0.12871 0.0
C1617 C 0.43237 0.16059 0.11165 0.0
C1618 C 0.44351 0.17127 0.07958 0.0
C1619 C 0.46452 0.17583 0.08613 0.0
C1620 C 0.43348 0.17819 0.03949 0.0
C1621 C 0.40946 0.15649 0.10784 0.0
C1622 C 0.42412 0.16387 0.01182 0.0
C1623 C 0.41315 0.1707 0.976 0.0
C1624 C 0.41167 0.19193 0.96687 0.0
C1625 C 0.42171 0.20613 0.9938 0.0
C1626 C 0.43266 0.19934 0.02952 0.0
H1627 H 0.40232 0.15332 0.13936 0.0
H1628 H 0.40136 0.16985 0.09307 0.0
H1629 H 0.40697 0.14271 0.08738 0.0
H1630 H 0.42489 0.14744 0.01848 0.0
H1631 H 0.40537 0.15943 0.95608 0.0
H1632 H 0.91869 0.76501 0.50832 0.0
H1633 H 0.93875 0.77775 0.56908 0.0
H1634 H 0.92886 0.84053 0.52721 0.0
H1635 H 0.90899 0.82776 0.46569 0.0
H1636 H 0.97364 0.8249 0.55918 0.0
H1637 H 0.90601 0.81287 0.6666 0.0
H1638 H 0.91299 0.79266 0.62974 0.0
H1639 H 0.90289 0.81664 0.60994 0.0
C1640 C 0.92149 0.78149 0.51117 0.0
C1641 C 0.91293 0.79541 0.48163 0.0
C1642 C 0.93267 0.78873 0.54618 0.0
C1643 C 0.93524 0.81004 0.55247 0.0
C1644 C 0.92711 0.82401 0.52259 0.0
H1645 H 0.99743 0.88777 0.73572 0.0
H1646 H 0.9783 0.87367 0.67546 0.0
C1647 C 0.91584 0.81674 0.48756 0.0
C1648 C 0.94525 0.81777 0.59168 0.0
H1649 H 0.9363 0.82643 0.69736 0.0
C1650 C 0.96552 0.82533 0.5894 0.0
C1651 C 0.93467 0.81786 0.63107 0.0
C1652 C 0.91289 0.80966 0.63485 0.0
C1653 C 0.97546 0.83329 0.62564 0.0
C1654 C 0.9646 0.83413 0.66484 0.0
C1655 C 0.94449 0.82603 0.66722 0.0
C1656 C 0.97391 0.84341 0.70358 0.0
C1657 C 0.99764 0.84035 0.62188 0.0
C1658 C 0.97632 0.83164 0.74083 0.0
C1659 C 0.98684 0.83985 0.77591 0.0
C1660 C 0.99531 0.85989 0.77421 0.0
C1661 C 0.99148 0.87214 0.73798 0.0
C1662 C 0.98075 0.86401 0.70319 0.0
H1663 H 0.00515 0.83427 0.59266 0.0
H1664 H 0.99813 0.85749 0.62013 0.0
H1665 H 0.00678 0.83536 0.65004 0.0
H1666 H 0.9707 0.81587 0.7423 0.0
H1667 H 0.98906 0.83018 0.80365 0.0
H1668 H 0.88275 0.16742 0.53215 0.0
H1669 H 0.9015 0.15436 0.47071 0.0
H1670 H 0.95282 0.19445 0.50035 0.0
H1671 H 0.93441 0.20718 0.56318 0.0
H1672 H 0.91126 0.1795 0.40419 0.0
H1673 H 0.9823 0.14184 0.4671 0.0
H1674 H 0.96041 0.1479 0.50059 0.0
H1675 H 0.97815 0.16791 0.48497 0.0
C1676 C 0.89825 0.17316 0.52646 0.0
C1677 C 0.90677 0.18894 0.55196 0.0
C1678 C 0.90891 0.16573 0.49101 0.0
C1679 C 0.92838 0.17373 0.48035 0.0
C1680 C 0.93776 0.18812 0.50775 0.0
H1681 H 0.97798 0.16284 0.21959 0.0
H1682 H 0.96165 0.17687 0.28376 0.0
C1683 C 0.92713 0.1955 0.54358 0.0
C1684 C 0.93778 0.1682 0.43872 0.0
H1685 H 0.9796 0.14516 0.39234 0.0
C1686 C 0.92622 0.17198 0.40157 0.0
C1687 C 0.95733 0.15854 0.43536 0.0
C1688 C 0.97024 0.15363 0.4741 0.0
C1689 C 0.93338 0.16582 0.36129 0.0
C1690 C 0.95283 0.15595 0.35799 0.0
C1691 C 0.96466 0.15272 0.39498 0.0
C1692 C 0.9607 0.14754 0.31709 0.0
C1693 C 0.91976 0.16927 0.32292 0.0
C1694 C 0.96512 0.12636 0.31403 0.0
C1695 C 0.97476 0.11839 0.27788 0.0
C1696 C 0.98034 0.13145 0.24384 0.0
C1697 C 0.97439 0.15241 0.24552 0.0
C1698 C 0.96491 0.16046 0.28213 0.0
H1699 H 0.90351 0.17268 0.33212 0.0
H1700 H 0.92571 0.18266 0.30451 0.0
H1701 H 0.91986 0.1555 0.30174 0.0
H1702 H 0.96173 0.11606 0.34036 0.0
H1703 H 0.97876 0.10211 0.27768 0.0
H1704 H 0.65597 0.26249 0.02874 0.0
H1705 H 0.6499 0.2404 0.09041 0.0
H1706 H 0.60796 0.20289 0.01655 0.0
H1707 H 0.61348 0.22521 0.95488 0.0
H1708 H 0.59084 0.21516 0.08979 0.0
H1709 H 0.66869 0.18301 0.12301 0.0
H1710 H 0.66857 0.21074 0.11989 0.0
H1711 H 0.66236 0.19566 0.07343 0.0
C1712 C 0.64576 0.24931 0.02524 0.0
C1713 C 0.63522 0.24567 0.98673 0.0
C1714 C 0.64241 0.2366 0.06057 0.0
C1715 C 0.62867 0.21984 0.05798 0.0
C1716 C 0.6187 0.2157 0.01919 0.0
H1717 H 0.59798 0.1249 0.23955 0.0
H1718 H 0.61365 0.14524 0.18264 0.0
C1719 C 0.62194 0.22846 0.9839 0.0
C1720 C 0.62321 0.20784 0.09663 0.0
H1721 H 0.64337 0.17903 0.17795 0.0
C1722 C 0.60234 0.20721 0.10895 0.0
C1723 C 0.6382 0.19734 0.12143 0.0
C1724 C 0.66067 0.19652 0.10857 0.0
C1725 C 0.59607 0.19655 0.1456 0.0
C1726 C 0.61113 0.18668 0.17118 0.0
C1727 C 0.63196 0.18701 0.15866 0.0
C1728 C 0.6051 0.17483 0.20952 0.0
C1729 C 0.57331 0.19544 0.15617 0.0
C1730 C 0.5961 0.18484 0.24459 0.0
C1731 C 0.58708 0.17327 0.27731 0.0
C1732 C 0.58691 0.15151 0.27535 0.0
C1733 C 0.5976 0.14162 0.24195 0.0
C1734 C 0.60659 0.15321 0.20931 0.0
H1735 H 0.56343 0.20169 0.13021 0.0
H1736 H 0.56869 0.17918 0.1626 0.0
H1737 H 0.57028 0.20451 0.18543 0.0
H1738 H 0.59518 0.20157 0.24563 0.0
H1739 H 0.5793 0.1814 0.30288 0.0
H1740 H 0.55128 0.84476 0.69679 0.0
H1741 H 0.57281 0.83093 0.75445 0.0
H1742 H 0.55656 0.88304 0.83346 0.0
H1743 H 0.53529 0.89702 0.77644 0.0
H1744 H 0.59778 0.87156 0.84221 0.0
H1745 H 0.5452 0.80389 0.85755 0.0
H1746 H 0.55607 0.80805 0.80566 0.0
H1747 H 0.53835 0.82666 0.82751 0.0
C1748 C 0.55244 0.85338 0.72628 0.0
C1749 C 0.54115 0.87179 0.73217 0.0
C1750 C 0.56471 0.84542 0.75925 0.0
C1751 C 0.56588 0.85572 0.79861 0.0
C1752 C 0.55577 0.87475 0.80349 0.0
H1753 H 0.59217 0.79946 0.04346 0.0
H1754 H 0.57689 0.81871 0.98427 0.0
C1755 C 0.54356 0.88271 0.7707 0.0
C1756 C 0.5764 0.84621 0.8358 0.0
H1757 H 0.57388 0.80498 0.90365 0.0
C1758 C 0.59265 0.85696 0.85559 0.0
C1759 C 0.56933 0.82743 0.85381 0.0
C1760 C 0.55115 0.81586 0.8354 0.0
C1761 C 0.60217 0.8493 0.89265 0.0
C1762 C 0.59546 0.8302 0.90996 0.0
C1763 C 0.57909 0.81957 0.89032 0.0
C1764 C 0.60531 0.82071 0.948 0.0
C1765 C 0.61894 0.862 0.91347 0.0
C1766 C 0.62644 0.81572 0.94772 0.0
C1767 C 0.63525 0.80483 0.98163 0.0
C1768 C 0.62305 0.79841 0.01637 0.0
C1769 C 0.60204 0.80411 0.01729 0.0
C1770 C 0.59325 0.81507 0.98338 0.0
H1771 H 0.61781 0.8786 0.90443 0.0
H1772 H 0.61821 0.86079 0.94871 0.0
H1773 H 0.63426 0.85624 0.90281 0.0
H1774 H 0.63597 0.81947 0.92044 0.0
H1775 H 0.65144 0.80059 0.97956 0.0
H1776 H 0.55026 0.6002 0.77347 0.0
H1777 H 0.56907 0.61618 0.83181 0.0
H1778 H 0.57515 0.67245 0.75911 0.0
H1779 H 0.55643 0.65642 0.69964 0.0
H1780 H 0.60826 0.63437 0.83808 0.0
H1781 H 0.54494 0.69073 0.86935 0.0
H1782 H 0.5416 0.66853 0.83513 0.0
H1783 H 0.55523 0.69093 0.81617 0.0
C1784 C 0.55581 0.61589 0.76931 0.0
C1785 C 0.55132 0.6272 0.73206 0.0
C1786 C 0.56654 0.62501 0.80292 0.0
C1787 C 0.57304 0.64564 0.80021 0.0
C1788 C 0.56979 0.65664 0.76219 0.0
H1789 H 0.65106 0.71376 0.9714 0.0
H1790 H 0.63692 0.69299 0.91376 0.0
C1791 C 0.55911 0.64745 0.72825 0.0
C1792 C 0.58255 0.65558 0.83795 0.0
H1793 H 0.57479 0.69328 0.91254 0.0
C1794 C 0.60099 0.64728 0.85433 0.0
C1795 C 0.57276 0.67214 0.85956 0.0
C1796 C 0.55245 0.68105 0.84451 0.0
C1797 C 0.61011 0.65534 0.89136 0.0
C1798 C 0.6006 0.6722 0.91232 0.0
C1799 C 0.582 0.68031 0.89636 0.0
C1800 C 0.6103 0.6825 0.9494 0.0
C1801 C 0.62974 0.64564 0.90802 0.0
C1802 C 0.6002 0.68317 0.98899 0.0
C1803 C 0.60841 0.69491 0.02247 0.0
C1804 C 0.62651 0.70662 0.01643 0.0
C1805 C 0.63707 0.70499 0.97733 0.0
C1806 C 0.62901 0.69312 0.94418 0.0
H1807 H 0.63207 0.62978 0.89516 0.0
H1808 H 0.64315 0.65525 0.89821 0.0
H1809 H 0.62958 0.64487 0.94335 0.0
H1810 H 0.58574 0.67499 0.99363 0.0
H1811 H 0.60017 0.69545 0.05249 0.0
H1812 H 0.47686 0.3892 0.19838 0.0
H1813 H 0.4967 0.38071 0.13477 0.0
H1814 H 0.53769 0.34272 0.20976 0.0
H1815 H 0.51793 0.35128 0.27413 0.0
H1816 H 0.53806 0.38711 0.11591 0.0
H1817 H 0.51907 0.30318 0.11356 0.0
H1818 H 0.50369 0.32209 0.14161 0.0
H1819 H 0.52769 0.31315 0.16401 0.0
C1820 C 0.49021 0.37919 0.20168 0.0
C1821 C 0.49562 0.37074 0.24152 0.0
C1822 C 0.50147 0.37426 0.16508 0.0
C1823 C 0.51838 0.36071 0.16728 0.0
C1824 C 0.52435 0.3528 0.20713 0.0
H1825 H 0.61726 0.34291 0.98924 0.0
H1826 H 0.59365 0.35546 0.04356 0.0
C1827 C 0.51312 0.35781 0.24394 0.0
C1828 C 0.52993 0.35532 0.12787 0.0
H1829 H 0.54425 0.31473 0.06466 0.0
C1830 C 0.53937 0.37129 0.10462 0.0
C1831 C 0.5311 0.33477 0.11241 0.0
C1832 C 0.51974 0.31726 0.13386 0.0
C1833 C 0.55054 0.3672 0.06717 0.0
C1834 C 0.5528 0.34649 0.05314 0.0
C1835 C 0.54274 0.33059 0.07559 0.0
C1836 C 0.56649 0.34077 0.01691 0.0
C1837 C 0.5596 0.38519 0.04284 0.0
C1838 C 0.55917 0.32828 0.98349 0.0
C1839 C 0.57277 0.32085 0.95228 0.0
C1840 C 0.59401 0.32562 0.95413 0.0
C1841 C 0.60103 0.33898 0.98646 0.0
C1842 C 0.58748 0.34628 0.01766 0.0
H1843 H 0.55055 0.39958 0.04828 0.0
H1844 H 0.57561 0.38806 0.05415 0.0
H1845 H 0.56009 0.38204 0.00809 0.0
H1846 H 0.54303 0.3238 0.98223 0.0
H1847 H 0.5668 0.31066 0.92781 0.0
H1848 H 0.94034 0.32375 0.19803 0.0
H1849 H 0.92274 0.303 0.25236 0.0
H1850 H 0.90115 0.35883 0.31319 0.0
H1851 H 0.91856 0.37958 0.2596 0.0
H1852 H 0.93258 0.30466 0.33729 0.0
H1853 H 0.8497 0.32317 0.3156 0.0
H1854 H 0.86887 0.32848 0.2752 0.0
H1855 H 0.86529 0.34606 0.31908 0.0
C1856 C 0.93158 0.33161 0.22259 0.0
C1857 C 0.93121 0.35336 0.2248 0.0
C1858 C 0.92149 0.31971 0.25354 0.0
C1859 C 0.91055 0.32937 0.28669 0.0
C1860 C 0.90917 0.35102 0.28751 0.0
H1861 H 0.89472 0.28777 0.54493 0.0
H1862 H 0.90384 0.30574 0.47921 0.0
C1863 C 0.91927 0.36288 0.2568 0.0
C1864 C 0.90246 0.31718 0.32303 0.0
H1865 H 0.85948 0.30985 0.38439 0.0
C1866 C 0.91653 0.30554 0.34727 0.0
C1867 C 0.8815 0.31823 0.33584 0.0
C1868 C 0.86543 0.32949 0.30979 0.0
C1869 C 0.91039 0.29559 0.3849 0.0
C1870 C 0.88969 0.29769 0.39904 0.0
C1871 C 0.87542 0.3086 0.37389 0.0
C1872 C 0.88255 0.28846 0.43965 0.0
C1873 C 0.92612 0.28288 0.40908 0.0
C1874 C 0.86666 0.27369 0.43964 0.0
C1875 C 0.86115 0.26358 0.47729 0.0
C1876 C 0.87144 0.26808 0.51572 0.0
C1877 C 0.88649 0.28383 0.516 0.0
C1878 C 0.89192 0.29397 0.47833 0.0
H1879 H 0.93929 0.27821 0.38845 0.0
H1880 H 0.93245 0.29225 0.43569 0.0
H1881 H 0.91898 0.26873 0.42274 0.0
H1882 H 0.85908 0.26939 0.41017 0.0
H1883 H 0.84946 0.25159 0.47581 0.0
H1884 H 0.93462 0.67737 0.78768 0.0
H1885 H 0.91112 0.69157 0.73489 0.0
H1886 H 0.87756 0.6338 0.73189 0.0
H1887 H 0.90222 0.61896 0.78228 0.0
H1888 H 0.8852 0.64321 0.65702 0.0
H1889 H 0.85553 0.71482 0.72786 0.0
H1890 H 0.88312 0.71588 0.73117 0.0
H1891 H 0.86917 0.69589 0.75944 0.0
C1892 C 0.9221 0.66776 0.77625 0.0
C1893 C 0.9206 0.64691 0.78841 0.0
C1894 C 0.90838 0.67603 0.74644 0.0
C1895 C 0.8923 0.66389 0.72953 0.0
C1896 C 0.88984 0.6435 0.74424 0.0
H1897 H 0.83374 0.73506 0.52454 0.0
H1898 H 0.83447 0.71334 0.58851 0.0
C1899 C 0.90395 0.63503 0.77311 0.0
C1900 C 0.88021 0.67148 0.69236 0.0
H1901 H 0.86009 0.71561 0.64964 0.0
C1902 C 0.87918 0.65888 0.65592 0.0
C1903 C 0.87166 0.69164 0.69071 0.0
C1904 C 0.86972 0.70516 0.72969 0.0
C1905 C 0.87165 0.66651 0.61713 0.0
C1906 C 0.86588 0.68758 0.61414 0.0
C1907 C 0.86503 0.69959 0.65142 0.0
C1908 C 0.8633 0.69811 0.57243 0.0
C1909 C 0.87047 0.65195 0.57963 0.0
C1910 C 0.87898 0.6965 0.54165 0.0
C1911 C 0.87836 0.70849 0.50481 0.0
C1912 C 0.86234 0.72288 0.49843 0.0
C1913 C 0.84627 0.72409 0.52855 0.0
C1914 C 0.8467 0.71173 0.56514 0.0
H1915 H 0.86633 0.63608 0.59029 0.0
H1916 H 0.8589 0.65714 0.55575 0.0
H1917 H 0.88588 0.65099 0.56416 0.0
H1918 H 0.89237 0.68676 0.54703 0.0
H1919 H 0.89117 0.70739 0.48267 0.0
H1920 H 0.42202 0.31585 0.30747 0.0
H1921 H 0.40356 0.29541 0.25416 0.0
H1922 H 0.37562 0.35101 0.20441 0.0
H1923 H 0.3936 0.37154 0.25794 0.0
H1924 H 0.34966 0.31537 0.19943 0.0
H1925 H 0.42881 0.30181 0.13459 0.0
H1926 H 0.42471 0.29455 0.18919 0.0
H1927 H 0.42353 0.32132 0.17424 0.0
C1928 C 0.41152 0.32369 0.28596 0.0
C1929 C 0.40971 0.34539 0.28622 0.0
C1930 C 0.40101 0.31198 0.25549 0.0
C1931 C 0.38872 0.32183 0.22476 0.0
C1932 C 0.3852 0.34318 0.22772 0.0
H1933 H 0.37562 0.28603 0.96385 0.0
H1934 H 0.37902 0.30546 0.03001 0.0
C1935 C 0.39556 0.35489 0.25831 0.0
C1936 C 0.38201 0.31065 0.18618 0.0
H1937 H 0.40098 0.28803 0.09618 0.0
C1938 C 0.36081 0.30923 0.17691 0.0
C1939 C 0.3967 0.30313 0.15657 0.0
C1940 C 0.41972 0.30535 0.16373 0.0
C1941 C 0.35389 0.30038 0.13861 0.0
C1942 C 0.3686 0.29266 0.10932 0.0
C1943 C 0.38976 0.29402 0.11878 0.0
C1944 C 0.36267 0.28299 0.06847 0.0
C1945 C 0.331 0.29982 0.12929 0.0
C1946 C 0.35169 0.26429 0.06799 0.0
C1947 C 0.34962 0.25314 0.03013 0.0
C1948 C 0.35874 0.26042 0.99225 0.0
C1949 C 0.36848 0.27989 0.99239 0.0
C1950 C 0.37047 0.29103 0.0302 0.0
H1951 H 0.32227 0.31084 0.14966 0.0
H1952 H 0.32793 0.30354 0.09535 0.0
H1953 H 0.32504 0.28401 0.13564 0.0
H1954 H 0.34584 0.25767 0.09731 0.0
H1955 H 0.34203 0.23821 0.03125 0.0
H1956 H 0.38124 0.67118 0.03881 0.0
H1957 H 0.3958 0.65292 0.97661 0.0
H1958 H 0.41346 0.71158 0.92177 0.0
H1959 H 0.39953 0.72953 0.9839 0.0
H1960 H 0.3852 0.65536 0.89332 0.0
H1961 H 0.46669 0.6803 0.9105 0.0
H1962 H 0.44789 0.68326 0.9525 0.0
H1963 H 0.44928 0.70188 0.90971 0.0
C1964 C 0.38869 0.67999 0.01377 0.0
C1965 C 0.39004 0.70161 0.01655 0.0
C1966 C 0.39685 0.66964 0.97823 0.0
C1967 C 0.4062 0.68085 0.94494 0.0
C1968 C 0.40702 0.70251 0.94757 0.0
H1969 H 0.4599 0.65514 0.69847 0.0
H1970 H 0.44035 0.67056 0.75703 0.0
C1971 C 0.39908 0.71276 0.98306 0.0
C1972 C 0.41437 0.67018 0.90651 0.0
H1973 H 0.45713 0.66637 0.84306 0.0
C1974 C 0.40098 0.65759 0.88256 0.0
C1975 C 0.43498 0.67311 0.89234 0.0
C1976 C 0.4506 0.68522 0.91784 0.0
C1977 C 0.40755 0.64825 0.84441 0.0
C1978 C 0.42797 0.65163 0.82999 0.0
C1979 C 0.44137 0.66407 0.85398 0.0
C1980 C 0.43629 0.64174 0.79111 0.0
C1981 C 0.39256 0.63518 0.81932 0.0
C1982 C 0.44003 0.62036 0.7904 0.0
C1983 C 0.45147 0.61154 0.75727 0.0
C1984 C 0.45941 0.62398 0.72426 0.0
C1985 C 0.45427 0.64515 0.72355 0.0
C1986 C 0.44303 0.65399 0.75694 0.0
H1987 H 0.37634 0.63745 0.83005 0.0
H1988 H 0.3936 0.63885 0.78483 0.0
H1989 H 0.39659 0.6186 0.82345 0.0
H1990 H 0.43516 0.6107 0.81675 0.0
H1991 H 0.45505 0.59518 0.75885 0.0
H1992 H 0.07364 0.71835 0.46351 0.0
H1993 H 0.05534 0.70506 0.52633 0.0
H1994 H 0.09916 0.65534 0.53691 0.0
H1995 H 0.11847 0.66912 0.47659 0.0
H1996 H 0.03592 0.67213 0.54802 0.0
H1997 H 0.10404 0.67991 0.65343 0.0
H1998 H 0.1037 0.68986 0.59979 0.0
H1999 H 0.10914 0.66291 0.60953 0.0
C2000 C 0.07945 0.70465 0.47922 0.0
C2001 C 0.09805 0.6954 0.46596 0.0
C2002 C 0.06886 0.69704 0.51484 0.0
C2003 C 0.07628 0.6798 0.53725 0.0
C2004 C 0.0936 0.66924 0.52138 0.0
H2005 H 0.00542 0.6102 0.7196 0.0
H2006 H 0.02496 0.6232 0.65901 0.0
C2007 C 0.10447 0.67703 0.48636 0.0
C2008 C 0.06601 0.67318 0.57748 0.0
H2009 H 0.07519 0.66147 0.68204 0.0
C2010 C 0.04454 0.66985 0.57729 0.0
C2011 C 0.07705 0.67093 0.61625 0.0
C2012 C 0.0997 0.67633 0.61999 0.0
C2013 C 0.034 0.66361 0.6142 0.0
C2014 C 0.04531 0.65979 0.65201 0.0
C2015 C 0.06661 0.6639 0.65277 0.0
C2016 C 0.03527 0.65109 0.69062 0.0
C2017 C 0.01075 0.66151 0.61248 0.0
C2018 C 0.0357 0.66177 0.72959 0.0
C2019 C 0.0247 0.65421 0.76476 0.0
C2020 C 0.01309 0.63585 0.76156 0.0
C2021 C 0.01391 0.62454 0.72326 0.0
C2022 C 0.02493 0.63205 0.6883 0.0
H2023 H 0.00402 0.67101 0.58642 0.0
H2024 H 0.00666 0.6451 0.60632 0.0
H2025 H 0.00354 0.66628 0.64306 0.0
H2026 H 0.04397 0.67627 0.73247 0.0
H2027 H 0.02473 0.66313 0.79393 0.0
H2028 H 0.01008 0.40456 0.28686 0.0
H2029 H 0.02949 0.39374 0.34937 0.0
H2030 H 0.05002 0.33902 0.28294 0.0
H2031 H 0.03034 0.34962 0.22006 0.0
H2032 H 0.03365 0.33019 0.3608 0.0
H2033 H 0.09035 0.394 0.37683 0.0
H2034 H 0.06407 0.40287 0.37422 0.0
H2035 H 0.0754 0.39003 0.32901 0.0
C2036 C 0.01905 0.39043 0.28502 0.0
C2037 C 0.01853 0.37792 0.24828 0.0
C2038 C 0.03023 0.3843 0.32091 0.0
C2039 C 0.04137 0.36568 0.3208 0.0
C2040 C 0.04157 0.35351 0.2837 0.0
H2041 H 0.13105 0.32395 0.50041 0.0
H2042 H 0.11117 0.33998 0.44405 0.0
C2043 C 0.03036 0.35963 0.24768 0.0
C2044 C 0.05157 0.35824 0.3603 0.0
H2045 H 0.08714 0.37127 0.436 0.0
C2046 C 0.0455 0.33905 0.3771 0.0
C2047 C 0.06685 0.36995 0.38171 0.0
C2048 C 0.07471 0.39026 0.36433 0.0
C2049 C 0.05451 0.33106 0.41433 0.0
C2050 C 0.06966 0.34286 0.43615 0.0
C2051 C 0.07544 0.36225 0.41962 0.0
C2052 C 0.08133 0.33453 0.47332 0.0
C2053 C 0.04811 0.3098 0.42906 0.0
C2054 C 0.07133 0.32663 0.50969 0.0
C2055 C 0.08276 0.31688 0.54199 0.0
C2056 C 0.10443 0.31544 0.53903 0.0
C2057 C 0.1144 0.3247 0.504 0.0
C2058 C 0.103 0.33394 0.4715 0.0
H2059 H 0.0396 0.30117 0.404 0.0
H2060 H 0.06175 0.30051 0.43892 0.0
H2061 H 0.03759 0.31139 0.45676 0.0
H2062 H 0.05469 0.3276 0.51278 0.0
H2063 H 0.0746 0.31006 0.56866 0.0
loop_
_geom_bond_atom_site_label_1
_geom_bond_atom_site_label_2
_geom_bond_distance
_geom_bond_site_symmetry_2
_ccdc_geom_bond_type
O0 Mn1 2.201 . S
O0 C14 1.244 . S
Mn1 O0 2.201 . S
Mn1 O4 2.120 1_455 S
Mn1 O5 2.219 1_455 S
Mn1 O7 2.202 . S
Mn1 O9 2.120 1_455 S
Mn1 O19 2.220 1_455 S
O2 Mn3 2.087 . S
O2 C14 1.256 . S
Mn3 O2 2.087 . S
Mn3 O10 2.089 1_455 S
Mn3 O19 2.289 1_455 S
Mn3 O20 2.251 . S
O4 Mn1 2.120 1_655 S
O4 C15 1.239 . S
O5 Mn1 2.219 1_655 S
O5 Mn6 2.288 1_655 S
O5 C16 1.266 1_655 S
Mn6 O5 2.288 1_455 S
Mn6 O8 2.089 1_455 S
Mn6 O11 2.251 . S
Mn6 O12 2.087 . S
O7 Mn1 2.202 . S
O7 C17 1.244 . S
O8 Mn6 2.089 1_655 S
O8 C15 1.256 . S
O9 Mn1 2.120 1_655 S
O9 C18 1.239 . S
O10 Mn3 2.089 1_655 S
O10 C18 1.256 . S
O11 Mn6 2.251 . S
O11 C16 1.241 . S
O12 Mn6 2.087 . S
O12 C17 1.256 . S
C13 O19 1.271 1_455 S
C13 O20 1.241 . S
C14 O0 1.244 . S
C14 O2 1.256 . S
C15 O4 1.239 . S
C15 O8 1.256 . S
C16 O5 1.266 1_455 S
C16 O11 1.241 . S
C17 O7 1.244 . S
C17 O12 1.256 . S
C18 O9 1.239 . S
C18 O10 1.256 . S
O19 Mn1 2.220 1_655 S
O19 Mn3 2.289 1_655 S
O19 C13 1.271 1_655 S
O20 Mn3 2.251 . S
O20 C13 1.241 . S
O21 Mn22 2.163 . S
O21 C35 1.244 . S
Mn22 O21 2.163 . S
Mn22 O25 2.160 . S
Mn22 O26 2.221 . S
Mn22 O28 2.163 . S
Mn22 O30 2.160 . S
Mn22 O40 2.221 . S
O23 Mn24 2.087 . S
O23 C35 1.256 . S
Mn24 O23 2.087 . S
Mn24 O31 2.089 . S
Mn24 O40 2.290 . S
Mn24 O41 2.251 . S
O25 Mn22 2.160 . S
O25 C36 1.239 . S
O26 Mn22 2.221 . S
O26 Mn27 2.290 . S
O26 C37 1.278 . S
Mn27 O26 2.290 . S
Mn27 O29 2.089 . S
Mn27 O32 2.251 . S
Mn27 O33 2.087 . S
O28 Mn22 2.163 . S
O28 C38 1.244 . S
O29 Mn27 2.089 . S
O29 C36 1.256 . S
O30 Mn22 2.160 . S
O30 C39 1.239 . S
O31 Mn24 2.089 . S
O31 C39 1.256 . S
O32 Mn27 2.251 . S
O32 C37 1.241 . S
O33 Mn27 2.087 . S
O33 C38 1.256 . S
C34 O40 1.278 . S
C34 O41 1.241 . S
C35 O21 1.244 . S
C35 O23 1.256 . S
C36 O25 1.239 . S
C36 O29 1.256 . S
C37 O26 1.278 . S
C37 O32 1.241 . S
C38 O28 1.244 . S
C38 O33 1.256 . S
C39 O30 1.239 . S
C39 O31 1.256 . S
O40 Mn22 2.221 . S
O40 Mn24 2.290 . S
O40 C34 1.278 . S
O41 Mn24 2.251 . S
O41 C34 1.241 . S
O42 Mn43 2.163 . S
O42 C56 1.244 . S
Mn43 O42 2.163 . S
Mn43 O46 2.160 . S
Mn43 O47 2.221 . S
Mn43 O49 2.163 . S
Mn43 O51 2.160 . S
Mn43 O61 2.221 . S
O44 Mn45 2.087 . S
O44 C56 1.256 . S
Mn45 O44 2.087 . S
Mn45 O52 2.089 . S
Mn45 O61 2.290 . S
Mn45 O62 2.251 . S
O46 Mn43 2.160 . S
O46 C57 1.239 . S
O47 Mn43 2.221 . S
O47 Mn48 2.290 . S
O47 C58 1.278 . S
Mn48 O47 2.290 . S
Mn48 O50 2.089 . S
Mn48 O53 2.251 . S
Mn48 O54 2.087 . S
O49 Mn43 2.163 . S
O49 C59 1.244 . S
O50 Mn48 2.089 . S
O50 C57 1.256 . S
O51 Mn43 2.160 . S
O51 C60 1.239 . S
O52 Mn45 2.089 . S
O52 C60 1.256 . S
O53 Mn48 2.251 . S
O53 C58 1.241 . S
O54 Mn48 2.087 . S
O54 C59 1.256 . S
C55 O61 1.278 . S
C55 O62 1.241 . S
C56 O42 1.244 . S
C56 O44 1.256 . S
C57 O46 1.239 . S
C57 O50 1.256 . S
C58 O47 1.278 . S
C58 O53 1.241 . S
C59 O49 1.244 . S
C59 O54 1.256 . S
C60 O51 1.239 . S
C60 O52 1.256 . S
O61 Mn43 2.221 . S
O61 Mn45 2.290 . S
O61 C55 1.278 . S
O62 Mn45 2.251 . S
O62 C55 1.241 . S
O63 Mn64 2.163 . S
O63 C77 1.244 . S
Mn64 O63 2.163 . S
Mn64 O67 2.160 . S
Mn64 O68 2.221 . S
Mn64 O70 2.163 . S
Mn64 O72 2.160 . S
Mn64 O82 2.221 . S
O65 Mn66 2.087 . S
O65 C77 1.256 . S
Mn66 O65 2.087 . S
Mn66 O73 2.089 . S
Mn66 O82 2.290 . S
Mn66 O83 2.251 . S
O67 Mn64 2.160 . S
O67 C78 1.239 . S
O68 Mn64 2.221 . S
O68 Mn69 2.290 . S
O68 C79 1.278 . S
Mn69 O68 2.290 . S
Mn69 O71 2.089 . S
Mn69 O74 2.251 . S
Mn69 O75 2.087 . S
O70 Mn64 2.163 . S
O70 C80 1.244 . S
O71 Mn69 2.089 . S
O71 C78 1.256 . S
O72 Mn64 2.160 . S
O72 C81 1.239 . S
O73 Mn66 2.089 . S
O73 C81 1.256 . S
O74 Mn69 2.251 . S
O74 C79 1.241 . S
O75 Mn69 2.087 . S
O75 C80 1.256 . S
C76 O82 1.278 . S
C76 O83 1.241 . S
C77 O63 1.244 . S
C77 O65 1.256 . S
C78 O67 1.239 . S
C78 O71 1.256 . S
C79 O68 1.278 . S
C79 O74 1.241 . S
C80 O70 1.244 . S
C80 O75 1.256 . S
C81 O72 1.239 . S
C81 O73 1.256 . S
O82 Mn64 2.221 . S
O82 Mn66 2.290 . S
O82 C76 1.278 . S
O83 Mn66 2.251 . S
O83 C76 1.241 . S
O84 Mn85 2.201 . S
O84 C98 1.244 . S
Mn85 O84 2.201 . S
Mn85 O88 2.120 1_455 S
Mn85 O89 2.219 1_455 S
Mn85 O91 2.202 . S
Mn85 O93 2.120 1_455 S
Mn85 O103 2.220 1_455 S
O86 Mn87 2.087 . S
O86 C98 1.256 . S
Mn87 O86 2.087 . S
Mn87 O94 2.089 1_455 S
Mn87 O103 2.289 1_455 S
Mn87 O104 2.251 . S
O88 Mn85 2.120 1_655 S
O88 C99 1.239 . S
O89 Mn85 2.219 1_655 S
O89 Mn90 2.288 1_655 S
O89 C100 1.266 1_655 S
Mn90 O89 2.288 1_455 S
Mn90 O92 2.089 1_455 S
Mn90 O95 2.251 . S
Mn90 O96 2.087 . S
O91 Mn85 2.202 . S
O91 C101 1.244 . S
O92 Mn90 2.089 1_655 S
O92 C99 1.256 . S
O93 Mn85 2.120 1_655 S
O93 C102 1.239 . S
O94 Mn87 2.089 1_655 S
O94 C102 1.256 . S
O95 Mn90 2.251 . S
O95 C100 1.241 . S
O96 Mn90 2.087 . S
O96 C101 1.256 . S
C97 O103 1.271 1_455 S
C97 O104 1.241 . S
C98 O84 1.244 . S
C98 O86 1.256 . S
C99 O88 1.239 . S
C99 O92 1.256 . S
C100 O89 1.266 1_455 S
C100 O95 1.241 . S
C101 O91 1.244 . S
C101 O96 1.256 . S
C102 O93 1.239 . S
C102 O94 1.256 . S
O103 Mn85 2.220 1_655 S
O103 Mn87 2.289 1_655 S
O103 C97 1.271 1_655 S
O104 Mn87 2.251 . S
O104 C97 1.241 . S
O105 Mn106 2.163 . S
O105 C119 1.244 . S
Mn106 O105 2.163 . S
Mn106 O109 2.160 . S
Mn106 O110 2.221 . S
Mn106 O112 2.163 . S
Mn106 O114 2.160 . S
Mn106 O124 2.221 . S
O107 Mn108 2.087 . S
O107 C119 1.256 . S
Mn108 O107 2.087 . S
Mn108 O115 2.089 . S
Mn108 O124 2.290 . S
Mn108 O125 2.251 . S
O109 Mn106 2.160 . S
O109 C120 1.239 . S
O110 Mn106 2.221 . S
O110 Mn111 2.290 . S
O110 C121 1.278 . S
Mn111 O110 2.290 . S
Mn111 O113 2.089 . S
Mn111 O116 2.251 . S
Mn111 O117 2.087 . S
O112 Mn106 2.163 . S
O112 C122 1.244 . S
O113 Mn111 2.089 . S
O113 C120 1.256 . S
O114 Mn106 2.160 . S
O114 C123 1.239 . S
O115 Mn108 2.089 . S
O115 C123 1.256 . S
O116 Mn111 2.251 . S
O116 C121 1.241 . S
O117 Mn111 2.087 . S
O117 C122 1.256 . S
C118 O124 1.278 . S
C118 O125 1.241 . S
C119 O105 1.244 . S
C119 O107 1.256 . S
C120 O109 1.239 . S
C120 O113 1.256 . S
C121 O110 1.278 . S
C121 O116 1.241 . S
C122 O112 1.244 . S
C122 O117 1.256 . S
C123 O114 1.239 . S
C123 O115 1.256 . S
O124 Mn106 2.221 . S
O124 Mn108 2.290 . S
O124 C118 1.278 . S
O125 Mn108 2.251 . S
O125 C118 1.241 . S
O126 Mn127 2.163 . S
O126 C140 1.244 . S
Mn127 O126 2.163 . S
Mn127 O130 2.160 . S
Mn127 O131 2.221 . S
Mn127 O133 2.163 . S
Mn127 O135 2.160 . S
Mn127 O145 2.221 . S
O128 Mn129 2.087 . S
O128 C140 1.256 . S
Mn129 O128 2.087 . S
Mn129 O136 2.089 . S
Mn129 O145 2.290 . S
Mn129 O146 2.251 . S
O130 Mn127 2.160 . S
O130 C141 1.239 . S
O131 Mn127 2.221 . S
O131 Mn132 2.290 . S
O131 C142 1.278 . S
Mn132 O131 2.290 . S
Mn132 O134 2.089 . S
Mn132 O137 2.251 . S
Mn132 O138 2.087 . S
O133 Mn127 2.163 . S
O133 C143 1.244 . S
O134 Mn132 2.089 . S
O134 C141 1.256 . S
O135 Mn127 2.160 . S
O135 C144 1.239 . S
O136 Mn129 2.089 . S
O136 C144 1.256 . S
O137 Mn132 2.251 . S
O137 C142 1.241 . S
O138 Mn132 2.087 . S
O138 C143 1.256 . S
C139 O145 1.278 . S
C139 O146 1.241 . S
C140 O126 1.244 . S
C140 O128 1.256 . S
C141 O130 1.239 . S
C141 O134 1.256 . S
C142 O131 1.278 . S
C142 O137 1.241 . S
C143 O133 1.244 . S
C143 O138 1.256 . S
C144 O135 1.239 . S
C144 O136 1.256 . S
O145 Mn127 2.221 . S
O145 Mn129 2.290 . S
O145 C139 1.278 . S
O146 Mn129 2.251 . S
O146 C139 1.241 . S
O147 Mn148 2.163 . S
O147 C161 1.244 . S
Mn148 O147 2.163 . S
Mn148 O151 2.160 . S
Mn148 O152 2.221 . S
Mn148 O154 2.163 . S
Mn148 O156 2.160 . S
Mn148 O166 2.221 . S
O149 Mn150 2.087 . S
O149 C161 1.256 . S
Mn150 O149 2.087 . S
Mn150 O157 2.089 . S
Mn150 O166 2.290 . S
Mn150 O167 2.251 . S
O151 Mn148 2.160 . S
O151 C162 1.239 . S
O152 Mn148 2.221 . S
O152 Mn153 2.290 . S
O152 C163 1.278 . S
Mn153 O152 2.290 . S
Mn153 O155 2.089 . S
Mn153 O158 2.251 . S
Mn153 O159 2.087 . S
O154 Mn148 2.163 . S
O154 C164 1.244 . S
O155 Mn153 2.089 . S
O155 C162 1.256 . S
O156 Mn148 2.160 . S
O156 C165 1.239 . S
O157 Mn150 2.089 . S
O157 C165 1.256 . S
O158 Mn153 2.251 . S
O158 C163 1.241 . S
O159 Mn153 2.087 . S
O159 C164 1.256 . S
C160 O166 1.278 . S
C160 O167 1.241 . S
C161 O147 1.244 . S
C161 O149 1.256 . S
C162 O151 1.239 . S
C162 O155 1.256 . S
C163 O152 1.278 . S
C163 O158 1.241 . S
C164 O154 1.244 . S
C164 O159 1.256 . S
C165 O156 1.239 . S
C165 O157 1.256 . S
O166 Mn148 2.221 . S
O166 Mn150 2.290 . S
O166 C160 1.278 . S
O167 Mn150 2.251 . S
O167 C160 1.241 . S
O168 Mn169 2.163 . S
O168 C182 1.244 . S
Mn169 O168 2.163 . S
Mn169 O172 2.160 . S
Mn169 O173 2.221 . S
Mn169 O175 2.163 . S
Mn169 O177 2.160 . S
Mn169 O187 2.221 . S
O170 Mn171 2.087 . S
O170 C182 1.256 . S
Mn171 O170 2.087 . S
Mn171 O178 2.089 . S
Mn171 O187 2.290 . S
Mn171 O188 2.251 . S
O172 Mn169 2.160 . S
O172 C183 1.239 . S
O173 Mn169 2.221 . S
O173 Mn174 2.290 . S
O173 C184 1.278 . S
Mn174 O173 2.290 . S
Mn174 O176 2.089 . S
Mn174 O179 2.251 . S
Mn174 O180 2.087 . S
O175 Mn169 2.163 . S
O175 C185 1.244 . S
O176 Mn174 2.089 . S
O176 C183 1.256 . S
O177 Mn169 2.160 . S
O177 C186 1.239 . S
O178 Mn171 2.089 . S
O178 C186 1.256 . S
O179 Mn174 2.251 . S
O179 C184 1.241 . S
O180 Mn174 2.087 . S
O180 C185 1.256 . S
C181 O187 1.278 . S
C181 O188 1.241 . S
C182 O168 1.244 . S
C182 O170 1.256 . S
C183 O172 1.239 . S
C183 O176 1.256 . S
C184 O173 1.278 . S
C184 O179 1.241 . S
C185 O175 1.244 . S
C185 O180 1.256 . S
C186 O177 1.239 . S
C186 O178 1.256 . S
O187 Mn169 2.221 . S
O187 Mn171 2.290 . S
O187 C181 1.278 . S
O188 Mn171 2.251 . S
O188 C181 1.241 . S
O189 Mn190 2.163 . S
O189 C203 1.244 . S
Mn190 O189 2.163 . S
Mn190 O193 2.160 . S
Mn190 O194 2.221 . S
Mn190 O196 2.163 . S
Mn190 O198 2.160 . S
Mn190 O208 2.221 . S
O191 Mn192 2.087 . S
O191 C203 1.256 . S
Mn192 O191 2.087 . S
Mn192 O199 2.089 . S
Mn192 O208 2.290 . S
Mn192 O209 2.251 . S
O193 Mn190 2.160 . S
O193 C204 1.239 . S
O194 Mn190 2.221 . S
O194 Mn195 2.290 . S
O194 C205 1.278 . S
Mn195 O194 2.290 . S
Mn195 O197 2.089 . S
Mn195 O200 2.251 . S
Mn195 O201 2.087 . S
O196 Mn190 2.163 . S
O196 C206 1.244 . S
O197 Mn195 2.089 . S
O197 C204 1.256 . S
O198 Mn190 2.160 . S
O198 C207 1.239 . S
O199 Mn192 2.089 . S
O199 C207 1.256 . S
O200 Mn195 2.251 . S
O200 C205 1.241 . S
O201 Mn195 2.087 . S
O201 C206 1.256 . S
C202 O208 1.278 . S
C202 O209 1.241 . S
C203 O189 1.244 . S
C203 O191 1.256 . S
C204 O193 1.239 . S
C204 O197 1.256 . S
C205 O194 1.278 . S
C205 O200 1.241 . S
C206 O196 1.244 . S
C206 O201 1.256 . S
C207 O198 1.239 . S
C207 O199 1.256 . S
O208 Mn190 2.221 . S
O208 Mn192 2.290 . S
O208 C202 1.278 . S
O209 Mn192 2.251 . S
O209 C202 1.241 . S
O210 Mn211 2.163 . S
O210 C224 1.244 . S
Mn211 O210 2.163 . S
Mn211 O214 2.160 . S
Mn211 O215 2.221 . S
Mn211 O217 2.163 . S
Mn211 O219 2.160 . S
Mn211 O229 2.221 . S
O212 Mn213 2.087 . S
O212 C224 1.256 . S
Mn213 O212 2.087 . S
Mn213 O220 2.089 . S
Mn213 O229 2.290 . S
Mn213 O230 2.251 . S
O214 Mn211 2.160 . S
O214 C225 1.239 . S
O215 Mn211 2.221 . S
O215 Mn216 2.290 . S
O215 C226 1.278 . S
Mn216 O215 2.290 . S
Mn216 O218 2.089 . S
Mn216 O221 2.251 . S
Mn216 O222 2.087 . S
O217 Mn211 2.163 . S
O217 C227 1.244 . S
O218 Mn216 2.089 . S
O218 C225 1.256 . S
O219 Mn211 2.160 . S
O219 C228 1.239 . S
O220 Mn213 2.089 . S
O220 C228 1.256 . S
O221 Mn216 2.251 . S
O221 C226 1.241 . S
O222 Mn216 2.087 . S
O222 C227 1.256 . S
C223 O229 1.278 . S
C223 O230 1.241 . S
C224 O210 1.244 . S
C224 O212 1.256 . S
C225 O214 1.239 . S
C225 O218 1.256 . S
C226 O215 1.278 . S
C226 O221 1.241 . S
C227 O217 1.244 . S
C227 O222 1.256 . S
C228 O219 1.239 . S
C228 O220 1.256 . S
O229 Mn211 2.221 . S
O229 Mn213 2.290 . S
O229 C223 1.278 . S
O230 Mn213 2.251 . S
O230 C223 1.241 . S
O231 Mn232 2.163 . S
O231 C245 1.244 . S
Mn232 O231 2.163 . S
Mn232 O235 2.160 . S
Mn232 O236 2.221 . S
Mn232 O238 2.163 . S
Mn232 O240 2.160 . S
Mn232 O250 2.221 . S
O233 Mn234 2.087 . S
O233 C245 1.256 . S
Mn234 O233 2.087 . S
Mn234 O241 2.089 . S
Mn234 O250 2.290 . S
Mn234 O251 2.251 . S
O235 Mn232 2.160 . S
O235 C246 1.239 . S
O236 Mn232 2.221 . S
O236 Mn237 2.290 . S
O236 C247 1.278 . S
Mn237 O236 2.290 . S
Mn237 O239 2.089 . S
Mn237 O242 2.251 . S
Mn237 O243 2.087 . S
O238 Mn232 2.163 . S
O238 C248 1.244 . S
O239 Mn237 2.089 . S
O239 C246 1.256 . S
O240 Mn232 2.160 . S
O240 C249 1.239 . S
O241 Mn234 2.089 . S
O241 C249 1.256 . S
O242 Mn237 2.251 . S
O242 C247 1.241 . S
O243 Mn237 2.087 . S
O243 C248 1.256 . S
C244 O250 1.278 . S
C244 O251 1.241 . S
C245 O231 1.244 . S
C245 O233 1.256 . S
C246 O235 1.239 . S
C246 O239 1.256 . S
C247 O236 1.278 . S
C247 O242 1.241 . S
C248 O238 1.244 . S
C248 O243 1.256 . S
C249 O240 1.239 . S
C249 O241 1.256 . S
O250 Mn232 2.221 . S
O250 Mn234 2.290 . S
O250 C244 1.278 . S
O251 Mn234 2.251 . S
O251 C244 1.241 . S
O252 Mn253 2.163 . S
O252 C266 1.244 . S
Mn253 O252 2.163 . S
Mn253 O256 2.160 . S
Mn253 O257 2.221 . S
Mn253 O259 2.163 . S
Mn253 O261 2.160 . S
Mn253 O271 2.221 . S
O254 Mn255 2.087 . S
O254 C266 1.256 . S
Mn255 O254 2.087 . S
Mn255 O262 2.089 . S
Mn255 O271 2.290 . S
Mn255 O272 2.251 . S
O256 Mn253 2.160 . S
O256 C267 1.239 . S
O257 Mn253 2.221 . S
O257 Mn258 2.290 . S
O257 C268 1.278 . S
Mn258 O257 2.290 . S
Mn258 O260 2.089 . S
Mn258 O263 2.251 . S
Mn258 O264 2.087 . S
O259 Mn253 2.163 . S
O259 C269 1.244 . S
O260 Mn258 2.089 . S
O260 C267 1.256 . S
O261 Mn253 2.160 . S
O261 C270 1.239 . S
O262 Mn255 2.089 . S
O262 C270 1.256 . S
O263 Mn258 2.251 . S
O263 C268 1.241 . S
O264 Mn258 2.087 . S
O264 C269 1.256 . S
C265 O271 1.278 . S
C265 O272 1.241 . S
C266 O252 1.244 . S
C266 O254 1.256 . S
C267 O256 1.239 . S
C267 O260 1.256 . S
C268 O257 1.278 . S
C268 O263 1.241 . S
C269 O259 1.244 . S
C269 O264 1.256 . S
C270 O261 1.239 . S
C270 O262 1.256 . S
O271 Mn253 2.221 . S
O271 Mn255 2.290 . S
O271 C265 1.278 . S
O272 Mn255 2.251 . S
O272 C265 1.241 . S
O273 Mn274 2.163 1_655 S
O273 C287 1.244 . S
Mn274 O273 2.163 1_455 S
Mn274 O277 2.160 . S
Mn274 O278 2.221 . S
Mn274 O280 2.163 1_455 S
Mn274 O282 2.160 . S
Mn274 O292 2.221 . S
O275 Mn276 2.087 1_655 S
O275 C287 1.256 . S
Mn276 O275 2.087 1_455 S
Mn276 O283 2.089 . S
Mn276 O292 2.290 . S
Mn276 O293 2.251 1_455 S
O277 Mn274 2.160 . S
O277 C288 1.239 . S
O278 Mn274 2.221 . S
O278 Mn279 2.290 . S
O278 C289 1.278 1_455 S
Mn279 O278 2.290 . S
Mn279 O281 2.089 . S
Mn279 O284 2.251 1_455 S
Mn279 O285 2.087 1_455 S
O280 Mn274 2.163 1_655 S
O280 C290 1.244 . S
O281 Mn279 2.089 . S
O281 C288 1.256 . S
O282 Mn274 2.160 . S
O282 C291 1.239 . S
O283 Mn276 2.089 . S
O283 C291 1.256 . S
O284 Mn279 2.251 1_655 S
O284 C289 1.241 . S
O285 Mn279 2.087 1_655 S
O285 C290 1.256 . S
C286 O292 1.278 1_655 S
C286 O293 1.241 . S
C287 O273 1.244 . S
C287 O275 1.256 . S
C288 O277 1.239 . S
C288 O281 1.256 . S
C289 O278 1.278 1_655 S
C289 O284 1.241 . S
C290 O280 1.244 . S
C290 O285 1.256 . S
C291 O282 1.239 . S
C291 O283 1.256 . S
O292 Mn274 2.221 . S
O292 Mn276 2.290 . S
O292 C286 1.278 1_455 S
O293 Mn276 2.251 1_655 S
O293 C286 1.241 . S
O294 Mn295 2.163 . S
O294 C308 1.244 . S
Mn295 O294 2.163 . S
Mn295 O298 2.160 . S
Mn295 O299 2.221 . S
Mn295 O301 2.163 . S
Mn295 O303 2.160 . S
Mn295 O313 2.221 . S
O296 Mn297 2.087 . S
O296 C308 1.256 . S
Mn297 O296 2.087 . S
Mn297 O304 2.089 . S
Mn297 O313 2.290 . S
Mn297 O314 2.251 . S
O298 Mn295 2.160 . S
O298 C309 1.239 . S
O299 Mn295 2.221 . S
O299 Mn300 2.290 . S
O299 C310 1.278 . S
Mn300 O299 2.290 . S
Mn300 O302 2.089 . S
Mn300 O305 2.251 . S
Mn300 O306 2.087 . S
O301 Mn295 2.163 . S
O301 C311 1.244 . S
O302 Mn300 2.089 . S
O302 C309 1.256 . S
O303 Mn295 2.160 . S
O303 C312 1.239 . S
O304 Mn297 2.089 . S
O304 C312 1.256 . S
O305 Mn300 2.251 . S
O305 C310 1.241 . S
O306 Mn300 2.087 . S
O306 C311 1.256 . S
C307 O313 1.278 . S
C307 O314 1.241 . S
C308 O294 1.244 . S
C308 O296 1.256 . S
C309 O298 1.239 . S
C309 O302 1.256 . S
C310 O299 1.278 . S
C310 O305 1.241 . S
C311 O301 1.244 . S
C311 O306 1.256 . S
C312 O303 1.239 . S
C312 O304 1.256 . S
O313 Mn295 2.221 . S
O313 Mn297 2.290 . S
O313 C307 1.278 . S
O314 Mn297 2.251 . S
O314 C307 1.241 . S
O315 Mn316 2.163 1_655 S
O315 C329 1.244 . S
Mn316 O315 2.163 1_455 S
Mn316 O319 2.160 . S
Mn316 O320 2.221 . S
Mn316 O322 2.163 1_455 S
Mn316 O324 2.160 . S
Mn316 O334 2.221 . S
O317 Mn318 2.087 1_655 S
O317 C329 1.256 . S
Mn318 O317 2.087 1_455 S
Mn318 O325 2.089 . S
Mn318 O334 2.290 . S
Mn318 O335 2.251 1_455 S
O319 Mn316 2.160 . S
O319 C330 1.239 . S
O320 Mn316 2.221 . S
O320 Mn321 2.290 . S
O320 C331 1.278 1_455 S
Mn321 O320 2.290 . S
Mn321 O323 2.089 . S
Mn321 O326 2.251 1_455 S
Mn321 O327 2.087 1_455 S
O322 Mn316 2.163 1_655 S
O322 C332 1.244 . S
O323 Mn321 2.089 . S
O323 C330 1.256 . S
O324 Mn316 2.160 . S
O324 C333 1.239 . S
O325 Mn318 2.089 . S
O325 C333 1.256 . S
O326 Mn321 2.251 1_655 S
O326 C331 1.241 . S
O327 Mn321 2.087 1_655 S
O327 C332 1.256 . S
C328 O334 1.278 1_655 S
C328 O335 1.241 . S
C329 O315 1.244 . S
C329 O317 1.256 . S
C330 O319 1.239 . S
C330 O323 1.256 . S
C331 O320 1.278 1_655 S
C331 O326 1.241 . S
C332 O322 1.244 . S
C332 O327 1.256 . S
C333 O324 1.239 . S
C333 O325 1.256 . S
O334 Mn316 2.221 . S
O334 Mn318 2.290 . S
O334 C328 1.278 1_455 S
O335 Mn318 2.251 1_655 S
O335 C328 1.241 . S
H336 C344 0.929 . S
H337 C346 0.930 . S
H338 C348 0.930 . S
H339 C351 0.929 . S
H340 C354 0.930 . S
H341 C356 0.960 . S
H342 C356 0.960 . S
H343 C356 0.960 . S
C344 H336 0.929 . S
C344 C345 1.377 1_556 S
C344 C346 1.384 . S
C345 C344 1.377 1_554 S
C345 C351 1.390 . S
C346 H337 0.930 . S
C346 C344 1.384 . S
C346 C347 1.372 . S
C347 C346 1.372 . S
C347 C348 1.400 . S
C347 C352 1.490 . S
C348 H338 0.930 . S
C348 C347 1.400 . S
C348 C351 1.386 1_556 S
H349 C365 0.930 . S
H350 C366 0.931 . S
C351 H339 0.929 . S
C351 C345 1.390 . S
C351 C348 1.386 1_554 S
C352 C347 1.490 . S
C352 C354 1.395 . S
C352 C355 1.403 . S
H353 C359 0.930 . S
C354 H340 0.930 . S
C354 C352 1.395 . S
C354 C357 1.403 . S
C355 C352 1.403 . S
C355 C356 1.524 . S
C355 C359 1.400 . S
C356 H341 0.960 . S
C356 H342 0.960 . S
C356 H343 0.960 . S
C356 C355 1.524 . S
C357 C354 1.403 . S
C357 C358 1.392 . S
C357 C361 1.495 . S
C358 C357 1.392 . S
C358 C359 1.385 . S
C358 C360 1.478 . S
C359 H353 0.930 . S
C359 C355 1.400 . S
C359 C358 1.385 . S
C360 C358 1.478 . S
C360 C362 1.381 . S
C360 C366 1.383 . S
C361 C357 1.495 . S
C361 H367 0.959 . S
C361 H368 0.961 . S
C361 H369 0.960 . S
C362 C360 1.381 . S
C362 C363 1.394 . S
C362 H370 0.930 . S
C363 C362 1.394 . S
C363 C364 1.383 . S
C363 H371 0.929 . S
C364 C363 1.383 . S
C364 C365 1.377 . S
C365 H349 0.930 . S
C365 C364 1.377 . S
C365 C366 1.379 . S
C366 H350 0.931 . S
C366 C360 1.383 . S
C366 C365 1.379 . S
H367 C361 0.959 . S
H368 C361 0.961 . S
H369 C361 0.960 . S
H370 C362 0.930 . S
H371 C363 0.929 . S
H372 C380 0.929 . S
H373 C382 0.930 . S
H374 C384 0.930 . S
H375 C387 0.929 . S
H376 C390 0.930 . S
H377 C392 0.960 . S
H378 C392 0.960 . S
H379 C392 0.960 . S
C380 H372 0.929 . S
C380 C381 1.377 . S
C380 C382 1.384 . S
C381 C380 1.377 . S
C381 C387 1.390 . S
C382 H373 0.930 . S
C382 C380 1.384 . S
C382 C383 1.372 . S
C383 C382 1.372 . S
C383 C384 1.400 . S
C383 C388 1.490 . S
C384 H374 0.930 . S
C384 C383 1.400 . S
C384 C387 1.386 . S
H385 C401 0.930 . S
H386 C402 0.931 . S
C387 H375 0.929 . S
C387 C381 1.390 . S
C387 C384 1.386 . S
C388 C383 1.490 . S
C388 C390 1.395 . S
C388 C391 1.403 . S
H389 C395 0.930 . S
C390 H376 0.930 . S
C390 C388 1.395 . S
C390 C393 1.403 . S
C391 C388 1.403 . S
C391 C392 1.524 . S
C391 C395 1.400 . S
C392 H377 0.960 . S
C392 H378 0.960 . S
C392 H379 0.960 . S
C392 C391 1.524 . S
C393 C390 1.403 . S
C393 C394 1.392 . S
C393 C397 1.495 . S
C394 C393 1.392 . S
C394 C395 1.385 . S
C394 C396 1.478 . S
C395 H389 0.930 . S
C395 C391 1.400 . S
C395 C394 1.385 . S
C396 C394 1.478 . S
C396 C398 1.381 . S
C396 C402 1.383 . S
C397 C393 1.495 . S
C397 H403 0.959 . S
C397 H404 0.961 . S
C397 H405 0.960 . S
C398 C396 1.381 . S
C398 C399 1.394 1_554 S
C398 H406 0.930 . S
C399 C398 1.394 1_556 S
C399 C400 1.383 . S
C399 H407 0.929 . S
C400 C399 1.383 . S
C400 C401 1.377 1_556 S
C401 H385 0.930 . S
C401 C400 1.377 1_554 S
C401 C402 1.379 . S
C402 H386 0.931 . S
C402 C396 1.383 . S
C402 C401 1.379 . S
H403 C397 0.959 . S
H404 C397 0.961 . S
H405 C397 0.960 . S
H406 C398 0.930 . S
H407 C399 0.929 . S
H408 C416 0.929 . S
H409 C418 0.930 . S
H410 C420 0.930 . S
H411 C423 0.929 . S
H412 C426 0.930 . S
H413 C428 0.960 . S
H414 C428 0.960 . S
H415 C428 0.960 . S
C416 H408 0.929 . S
C416 C417 1.377 . S
C416 C418 1.384 . S
C417 C416 1.377 . S
C417 C423 1.390 . S
C418 H409 0.930 . S
C418 C416 1.384 . S
C418 C419 1.372 . S
C419 C418 1.372 . S
C419 C420 1.400 . S
C419 C424 1.490 . S
C420 H410 0.930 . S
C420 C419 1.400 . S
C420 C423 1.386 . S
H421 C437 0.930 . S
H422 C438 0.931 . S
C423 H411 0.929 . S
C423 C417 1.390 . S
C423 C420 1.386 . S
C424 C419 1.490 . S
C424 C426 1.395 . S
C424 C427 1.403 . S
H425 C431 0.930 . S
C426 H412 0.930 . S
C426 C424 1.395 . S
C426 C429 1.403 . S
C427 C424 1.403 . S
C427 C428 1.524 . S
C427 C431 1.400 . S
C428 H413 0.960 . S
C428 H414 0.960 . S
C428 H415 0.960 . S
C428 C427 1.524 . S
C429 C426 1.403 . S
C429 C430 1.392 . S
C429 C433 1.495 . S
C430 C429 1.392 . S
C430 C431 1.385 . S
C430 C432 1.478 . S
C431 H425 0.930 . S
C431 C427 1.400 . S
C431 C430 1.385 . S
C432 C430 1.478 . S
C432 C434 1.381 . S
C432 C438 1.383 . S
C433 C429 1.495 . S
C433 H439 0.959 . S
C433 H440 0.961 . S
C433 H441 0.960 . S
C434 C432 1.381 . S
C434 C435 1.394 . S
C434 H442 0.930 . S
C435 C434 1.394 . S
C435 C436 1.383 . S
C435 H443 0.929 . S
C436 C435 1.383 . S
C436 C437 1.377 . S
C437 H421 0.930 . S
C437 C436 1.377 . S
C437 C438 1.379 . S
C438 H422 0.931 . S
C438 C432 1.383 . S
C438 C437 1.379 . S
H439 C433 0.959 . S
H440 C433 0.961 . S
H441 C433 0.960 . S
H442 C434 0.930 . S
H443 C435 0.929 . S
H444 C452 0.929 . S
H445 C454 0.930 . S
H446 C456 0.930 . S
H447 C459 0.929 . S
H448 C462 0.930 . S
H449 C464 0.960 . S
H450 C464 0.960 . S
H451 C464 0.960 . S
C452 H444 0.929 . S
C452 C453 1.377 . S
C452 C454 1.384 . S
C453 C452 1.377 . S
C453 C459 1.390 . S
C454 H445 0.930 . S
C454 C452 1.384 . S
C454 C455 1.372 . S
C455 C454 1.372 . S
C455 C456 1.400 . S
C455 C460 1.490 . S
C456 H446 0.930 . S
C456 C455 1.400 . S
C456 C459 1.386 . S
H457 C473 0.930 . S
H458 C474 0.931 . S
C459 H447 0.929 . S
C459 C453 1.390 . S
C459 C456 1.386 . S
C460 C455 1.490 . S
C460 C462 1.395 . S
C460 C463 1.403 . S
H461 C467 0.930 . S
C462 H448 0.930 . S
C462 C460 1.395 . S
C462 C465 1.403 . S
C463 C460 1.403 . S
C463 C464 1.524 . S
C463 C467 1.400 . S
C464 H449 0.960 . S
C464 H450 0.960 . S
C464 H451 0.960 . S
C464 C463 1.524 . S
C465 C462 1.403 . S
C465 C466 1.392 . S
C465 C469 1.495 . S
C466 C465 1.392 . S
C466 C467 1.385 . S
C466 C468 1.478 . S
C467 H461 0.930 . S
C467 C463 1.400 . S
C467 C466 1.385 . S
C468 C466 1.478 . S
C468 C470 1.381 . S
C468 C474 1.383 . S
C469 C465 1.495 . S
C469 H475 0.959 . S
C469 H476 0.961 . S
C469 H477 0.960 . S
C470 C468 1.381 . S
C470 C471 1.394 . S
C470 H478 0.930 . S
C471 C470 1.394 . S
C471 C472 1.383 . S
C471 H479 0.929 . S
C472 C471 1.383 . S
C472 C473 1.377 . S
C473 H457 0.930 . S
C473 C472 1.377 . S
C473 C474 1.379 . S
C474 H458 0.931 . S
C474 C468 1.383 . S
C474 C473 1.379 . S
H475 C469 0.959 . S
H476 C469 0.961 . S
H477 C469 0.960 . S
H478 C470 0.930 . S
H479 C471 0.929 . S
H480 C488 0.929 . S
H481 C490 0.930 . S
H482 C492 0.930 . S
H483 C495 0.929 . S
H484 C498 0.930 . S
H485 C500 0.960 . S
H486 C500 0.960 . S
H487 C500 0.960 . S
C488 H480 0.929 . S
C488 C489 1.377 . S
C488 C490 1.384 . S
C489 C488 1.377 . S
C489 C495 1.390 . S
C490 H481 0.930 . S
C490 C488 1.384 . S
C490 C491 1.372 . S
C491 C490 1.372 . S
C491 C492 1.400 . S
C491 C496 1.490 . S
C492 H482 0.930 . S
C492 C491 1.400 . S
C492 C495 1.386 . S
H493 C509 0.930 . S
H494 C510 0.931 . S
C495 H483 0.929 . S
C495 C489 1.390 . S
C495 C492 1.386 . S
C496 C491 1.490 . S
C496 C498 1.395 . S
C496 C499 1.403 . S
H497 C503 0.930 . S
C498 H484 0.930 . S
C498 C496 1.395 . S
C498 C501 1.403 . S
C499 C496 1.403 . S
C499 C500 1.524 . S
C499 C503 1.400 . S
C500 H485 0.960 . S
C500 H486 0.960 . S
C500 H487 0.960 . S
C500 C499 1.524 . S
C501 C498 1.403 . S
C501 C502 1.392 . S
C501 C505 1.495 . S
C502 C501 1.392 . S
C502 C503 1.385 . S
C502 C504 1.478 . S
C503 H497 0.930 . S
C503 C499 1.400 . S
C503 C502 1.385 . S
C504 C502 1.478 . S
C504 C506 1.381 . S
C504 C510 1.383 . S
C505 C501 1.495 . S
C505 H511 0.959 . S
C505 H512 0.961 . S
C505 H513 0.960 . S
C506 C504 1.381 . S
C506 C507 1.394 1_554 S
C506 H514 0.930 . S
C507 C506 1.394 1_556 S
C507 C508 1.383 . S
C507 H515 0.929 . S
C508 C507 1.383 . S
C508 C509 1.377 1_556 S
C509 H493 0.930 . S
C509 C508 1.377 1_554 S
C509 C510 1.379 . S
C510 H494 0.931 . S
C510 C504 1.383 . S
C510 C509 1.379 . S
H511 C505 0.959 . S
H512 C505 0.961 . S
H513 C505 0.960 . S
H514 C506 0.930 . S
H515 C507 0.929 . S
H516 C524 0.929 . S
H517 C526 0.930 . S
H518 C528 0.930 . S
H519 C531 0.929 . S
H520 C534 0.930 . S
H521 C536 0.960 . S
H522 C536 0.960 . S
H523 C536 0.960 . S
C524 H516 0.929 . S
C524 C525 1.377 . S
C524 C526 1.384 . S
C525 C524 1.377 . S
C525 C531 1.390 . S
C526 H517 0.930 . S
C526 C524 1.384 . S
C526 C527 1.372 . S
C527 C526 1.372 . S
C527 C528 1.400 . S
C527 C532 1.490 . S
C528 H518 0.930 . S
C528 C527 1.400 . S
C528 C531 1.386 . S
H529 C545 0.930 1_554 S
H530 C546 0.931 . S
C531 H519 0.929 . S
C531 C525 1.390 . S
C531 C528 1.386 . S
C532 C527 1.490 . S
C532 C534 1.395 . S
C532 C535 1.403 . S
H533 C539 0.930 . S
C534 H520 0.930 . S
C534 C532 1.395 . S
C534 C537 1.403 . S
C535 C532 1.403 . S
C535 C536 1.524 . S
C535 C539 1.400 . S
C536 H521 0.960 . S
C536 H522 0.960 . S
C536 H523 0.960 . S
C536 C535 1.524 . S
C537 C534 1.403 . S
C537 C538 1.392 . S
C537 C541 1.495 . S
C538 C537 1.392 . S
C538 C539 1.385 . S
C538 C540 1.478 . S
C539 H533 0.930 . S
C539 C535 1.400 . S
C539 C538 1.385 . S
C540 C538 1.478 . S
C540 C542 1.381 . S
C540 C546 1.383 . S
C541 C537 1.495 . S
C541 H547 0.959 . S
C541 H548 0.961 . S
C541 H549 0.960 . S
C542 C540 1.381 . S
C542 C543 1.394 1_556 S
C542 H550 0.930 . S
C543 C542 1.394 1_554 S
C543 C544 1.383 . S
C543 H551 0.929 . S
C544 C543 1.383 . S
C544 C545 1.377 1_554 S
C545 H529 0.930 1_556 S
C545 C544 1.377 1_556 S
C545 C546 1.379 . S
C546 H530 0.931 . S
C546 C540 1.383 . S
C546 C545 1.379 . S
H547 C541 0.959 . S
H548 C541 0.961 . S
H549 C541 0.960 . S
H550 C542 0.930 . S
H551 C543 0.929 . S
H552 C560 0.929 . S
H553 C562 0.930 . S
H554 C564 0.930 . S
H555 C567 0.929 . S
H556 C570 0.930 . S
H557 C572 0.960 . S
H558 C572 0.960 . S
H559 C572 0.960 . S
C560 H552 0.929 . S
C560 C561 1.377 . S
C560 C562 1.384 . S
C561 C560 1.377 . S
C561 C567 1.390 . S
C562 H553 0.930 . S
C562 C560 1.384 . S
C562 C563 1.372 . S
C563 C562 1.372 . S
C563 C564 1.400 . S
C563 C568 1.490 . S
C564 H554 0.930 . S
C564 C563 1.400 . S
C564 C567 1.386 . S
H565 C581 0.930 . S
H566 C582 0.931 . S
C567 H555 0.929 . S
C567 C561 1.390 . S
C567 C564 1.386 . S
C568 C563 1.490 . S
C568 C570 1.395 . S
C568 C571 1.403 . S
H569 C575 0.930 . S
C570 H556 0.930 . S
C570 C568 1.395 . S
C570 C573 1.403 . S
C571 C568 1.403 . S
C571 C572 1.524 . S
C571 C575 1.400 . S
C572 H557 0.960 . S
C572 H558 0.960 . S
C572 H559 0.960 . S
C572 C571 1.524 . S
C573 C570 1.403 . S
C573 C574 1.392 . S
C573 C577 1.495 . S
C574 C573 1.392 . S
C574 C575 1.385 . S
C574 C576 1.478 . S
C575 H569 0.930 . S
C575 C571 1.400 . S
C575 C574 1.385 . S
C576 C574 1.478 . S
C576 C578 1.381 . S
C576 C582 1.383 . S
C577 C573 1.495 . S
C577 H583 0.959 . S
C577 H584 0.961 . S
C577 H585 0.960 . S
C578 C576 1.381 . S
C578 C579 1.394 . S
C578 H586 0.930 . S
C579 C578 1.394 . S
C579 C580 1.383 . S
C579 H587 0.929 . S
C580 C579 1.383 . S
C580 C581 1.377 . S
C581 H565 0.930 . S
C581 C580 1.377 . S
C581 C582 1.379 . S
C582 H566 0.931 . S
C582 C576 1.383 . S
C582 C581 1.379 . S
H583 C577 0.959 . S
H584 C577 0.961 . S
H585 C577 0.960 . S
H586 C578 0.930 . S
H587 C579 0.929 . S
H588 C596 0.929 . S
H589 C598 0.930 . S
H590 C600 0.930 . S
H591 C603 0.929 . S
H592 C606 0.930 . S
H593 C608 0.960 . S
H594 C608 0.960 . S
H595 C608 0.960 . S
C596 H588 0.929 . S
C596 C597 1.377 . S
C596 C598 1.384 . S
C597 C596 1.377 . S
C597 C603 1.390 . S
C598 H589 0.930 . S
C598 C596 1.384 . S
C598 C599 1.372 . S
C599 C598 1.372 . S
C599 C600 1.400 . S
C599 C604 1.490 . S
C600 H590 0.930 . S
C600 C599 1.400 . S
C600 C603 1.386 . S
H601 C617 0.930 . S
H602 C618 0.931 . S
C603 H591 0.929 . S
C603 C597 1.390 . S
C603 C600 1.386 . S
C604 C599 1.490 . S
C604 C606 1.395 . S
C604 C607 1.403 . S
H605 C611 0.930 . S
C606 H592 0.930 . S
C606 C604 1.395 . S
C606 C609 1.403 . S
C607 C604 1.403 . S
C607 C608 1.524 . S
C607 C611 1.400 . S
C608 H593 0.960 . S
C608 H594 0.960 . S
C608 H595 0.960 . S
C608 C607 1.524 . S
C609 C606 1.403 . S
C609 C610 1.392 . S
C609 C613 1.495 . S
C610 C609 1.392 . S
C610 C611 1.385 . S
C610 C612 1.478 . S
C611 H605 0.930 . S
C611 C607 1.400 . S
C611 C610 1.385 . S
C612 C610 1.478 . S
C612 C614 1.381 . S
C612 C618 1.383 . S
C613 C609 1.495 . S
C613 H619 0.959 . S
C613 H620 0.961 . S
C613 H621 0.960 . S
C614 C612 1.381 . S
C614 C615 1.394 . S
C614 H622 0.930 . S
C615 C614 1.394 . S
C615 C616 1.383 . S
C615 H623 0.929 . S
C616 C615 1.383 . S
C616 C617 1.377 . S
C617 H601 0.930 . S
C617 C616 1.377 . S
C617 C618 1.379 . S
C618 H602 0.931 . S
C618 C612 1.383 . S
C618 C617 1.379 . S
H619 C613 0.959 . S
H620 C613 0.961 . S
H621 C613 0.960 . S
H622 C614 0.930 . S
H623 C615 0.929 . S
H624 C632 0.929 . S
H625 C634 0.930 . S
H626 C636 0.930 . S
H627 C639 0.929 . S
H628 C642 0.930 . S
H629 C644 0.960 . S
H630 C644 0.960 . S
H631 C644 0.960 . S
C632 H624 0.929 . S
C632 C633 1.377 . S
C632 C634 1.384 . S
C633 C632 1.377 . S
C633 C639 1.390 . S
C634 H625 0.930 . S
C634 C632 1.384 . S
C634 C635 1.372 . S
C635 C634 1.372 . S
C635 C636 1.400 . S
C635 C640 1.490 . S
C636 H626 0.930 . S
C636 C635 1.400 . S
C636 C639 1.386 . S
H637 C653 0.930 . S
H638 C654 0.931 . S
C639 H627 0.929 . S
C639 C633 1.390 . S
C639 C636 1.386 . S
C640 C635 1.490 . S
C640 C642 1.395 . S
C640 C643 1.403 . S
H641 C647 0.930 . S
C642 H628 0.930 . S
C642 C640 1.395 . S
C642 C645 1.403 . S
C643 C640 1.403 . S
C643 C644 1.524 . S
C643 C647 1.400 . S
C644 H629 0.960 . S
C644 H630 0.960 . S
C644 H631 0.960 . S
C644 C643 1.524 . S
C645 C642 1.403 . S
C645 C646 1.392 . S
C645 C649 1.495 . S
C646 C645 1.392 . S
C646 C647 1.385 . S
C646 C648 1.478 . S
C647 H641 0.930 . S
C647 C643 1.400 . S
C647 C646 1.385 . S
C648 C646 1.478 . S
C648 C650 1.381 . S
C648 C654 1.383 . S
C649 C645 1.495 . S
C649 H655 0.959 . S
C649 H656 0.961 . S
C649 H657 0.960 . S
C650 C648 1.381 . S
C650 C651 1.394 . S
C650 H658 0.930 . S
C651 C650 1.394 . S
C651 C652 1.383 . S
C651 H659 0.929 . S
C652 C651 1.383 . S
C652 C653 1.377 . S
C653 H637 0.930 . S
C653 C652 1.377 . S
C653 C654 1.379 . S
C654 H638 0.931 . S
C654 C648 1.383 . S
C654 C653 1.379 . S
H655 C649 0.959 . S
H656 C649 0.961 . S
H657 C649 0.960 . S
H658 C650 0.930 . S
H659 C651 0.929 . S
H660 C668 0.929 . S
H661 C670 0.930 . S
H662 C672 0.930 . S
H663 C675 0.929 . S
H664 C678 0.930 . S
H665 C680 0.960 . S
H666 C680 0.960 . S
H667 C680 0.960 . S
C668 H660 0.929 . S
C668 C669 1.377 . S
C668 C670 1.384 . S
C669 C668 1.377 . S
C669 C675 1.390 . S
C670 H661 0.930 . S
C670 C668 1.384 . S
C670 C671 1.372 . S
C671 C670 1.372 . S
C671 C672 1.400 . S
C671 C676 1.490 . S
C672 H662 0.930 . S
C672 C671 1.400 . S
C672 C675 1.386 . S
H673 C689 0.930 . S
H674 C690 0.931 . S
C675 H663 0.929 . S
C675 C669 1.390 . S
C675 C672 1.386 . S
C676 C671 1.490 . S
C676 C678 1.395 . S
C676 C679 1.403 . S
H677 C683 0.930 . S
C678 H664 0.930 . S
C678 C676 1.395 . S
C678 C681 1.403 . S
C679 C676 1.403 . S
C679 C680 1.524 . S
C679 C683 1.400 . S
C680 H665 0.960 . S
C680 H666 0.960 . S
C680 H667 0.960 . S
C680 C679 1.524 . S
C681 C678 1.403 . S
C681 C682 1.392 . S
C681 C685 1.495 . S
C682 C681 1.392 . S
C682 C683 1.385 . S
C682 C684 1.478 . S
C683 H677 0.930 . S
C683 C679 1.400 . S
C683 C682 1.385 . S
C684 C682 1.478 . S
C684 C686 1.381 . S
C684 C690 1.383 . S
C685 C681 1.495 . S
C685 H691 0.959 . S
C685 H692 0.961 . S
C685 H693 0.960 . S
C686 C684 1.381 . S
C686 C687 1.394 . S
C686 H694 0.930 . S
C687 C686 1.394 . S
C687 C688 1.383 . S
C687 H695 0.929 . S
C688 C687 1.383 . S
C688 C689 1.377 . S
C689 H673 0.930 . S
C689 C688 1.377 . S
C689 C690 1.379 . S
C690 H674 0.931 . S
C690 C684 1.383 . S
C690 C689 1.379 . S
H691 C685 0.959 . S
H692 C685 0.961 . S
H693 C685 0.960 . S
H694 C686 0.930 . S
H695 C687 0.929 . S
H696 C704 0.929 . S
H697 C706 0.930 . S
H698 C708 0.930 . S
H699 C711 0.929 . S
H700 C714 0.930 . S
H701 C716 0.960 . S
H702 C716 0.960 . S
H703 C716 0.960 . S
C704 H696 0.929 . S
C704 C705 1.377 . S
C704 C706 1.384 1_554 S
C705 C704 1.377 . S
C705 C711 1.390 1_554 S
C706 H697 0.930 . S
C706 C704 1.384 1_556 S
C706 C707 1.372 . S
C707 C706 1.372 . S
C707 C708 1.400 . S
C707 C712 1.490 . S
C708 H698 0.930 . S
C708 C707 1.400 . S
C708 C711 1.386 . S
H709 C725 0.930 . S
H710 C726 0.931 . S
C711 H699 0.929 . S
C711 C705 1.390 1_556 S
C711 C708 1.386 . S
C712 C707 1.490 . S
C712 C714 1.395 . S
C712 C715 1.403 . S
H713 C719 0.930 . S
C714 H700 0.930 . S
C714 C712 1.395 . S
C714 C717 1.403 . S
C715 C712 1.403 . S
C715 C716 1.524 . S
C715 C719 1.400 . S
C716 H701 0.960 . S
C716 H702 0.960 . S
C716 H703 0.960 . S
C716 C715 1.524 . S
C717 C714 1.403 . S
C717 C718 1.392 . S
C717 C721 1.495 . S
C718 C717 1.392 . S
C718 C719 1.385 . S
C718 C720 1.478 . S
C719 H713 0.930 . S
C719 C715 1.400 . S
C719 C718 1.385 . S
C720 C718 1.478 . S
C720 C722 1.381 . S
C720 C726 1.383 . S
C721 C717 1.495 . S
C721 H727 0.959 . S
C721 H728 0.961 . S
C721 H729 0.960 . S
C722 C720 1.381 . S
C722 C723 1.394 . S
C722 H730 0.930 . S
C723 C722 1.394 . S
C723 C724 1.383 . S
C723 H731 0.929 . S
C724 C723 1.383 . S
C724 C725 1.377 . S
C725 H709 0.930 . S
C725 C724 1.377 . S
C725 C726 1.379 . S
C726 H710 0.931 . S
C726 C720 1.383 . S
C726 C725 1.379 . S
H727 C721 0.959 . S
H728 C721 0.961 . S
H729 C721 0.960 . S
H730 C722 0.930 . S
H731 C723 0.929 . S
H732 C740 0.929 . S
H733 C742 0.930 . S
H734 C744 0.930 . S
H735 C747 0.929 . S
H736 C750 0.930 . S
H737 C752 0.960 . S
H738 C752 0.960 . S
H739 C752 0.960 . S
C740 H732 0.929 . S
C740 C741 1.377 . S
C740 C742 1.384 . S
C741 C740 1.377 . S
C741 C747 1.390 . S
C742 H733 0.930 . S
C742 C740 1.384 . S
C742 C743 1.372 . S
C743 C742 1.372 . S
C743 C744 1.400 . S
C743 C748 1.490 . S
C744 H734 0.930 . S
C744 C743 1.400 . S
C744 C747 1.386 . S
H745 C761 0.930 . S
H746 C762 0.931 . S
C747 H735 0.929 . S
C747 C741 1.390 . S
C747 C744 1.386 . S
C748 C743 1.490 . S
C748 C750 1.395 . S
C748 C751 1.403 . S
H749 C755 0.930 . S
C750 H736 0.930 . S
C750 C748 1.395 . S
C750 C753 1.403 . S
C751 C748 1.403 . S
C751 C752 1.524 . S
C751 C755 1.400 . S
C752 H737 0.960 . S
C752 H738 0.960 . S
C752 H739 0.960 . S
C752 C751 1.524 . S
C753 C750 1.403 . S
C753 C754 1.392 . S
C753 C757 1.495 . S
C754 C753 1.392 . S
C754 C755 1.385 . S
C754 C756 1.478 . S
C755 H749 0.930 . S
C755 C751 1.400 . S
C755 C754 1.385 . S
C756 C754 1.478 . S
C756 C758 1.381 . S
C756 C762 1.383 . S
C757 C753 1.495 . S
C757 H763 0.959 . S
C757 H764 0.961 . S
C757 H765 0.960 . S
C758 C756 1.381 . S
C758 C759 1.394 1_554 S
C758 H766 0.930 . S
C759 C758 1.394 1_556 S
C759 C760 1.383 . S
C759 H767 0.929 . S
C760 C759 1.383 . S
C760 C761 1.377 1_556 S
C761 H745 0.930 . S
C761 C760 1.377 1_554 S
C761 C762 1.379 . S
C762 H746 0.931 . S
C762 C756 1.383 . S
C762 C761 1.379 . S
H763 C757 0.959 . S
H764 C757 0.961 . S
H765 C757 0.960 . S
H766 C758 0.930 . S
H767 C759 0.929 . S
H768 C776 0.929 . S
H769 C778 0.930 . S
H770 C780 0.930 . S
H771 C783 0.929 . S
H772 C786 0.930 . S
H773 C788 0.960 . S
H774 C788 0.960 . S
H775 C788 0.960 . S
C776 H768 0.929 . S
C776 C777 1.377 . S
C776 C778 1.384 . S
C777 C776 1.377 . S
C777 C783 1.390 . S
C778 H769 0.930 . S
C778 C776 1.384 . S
C778 C779 1.372 . S
C779 C778 1.372 . S
C779 C780 1.400 . S
C779 C784 1.490 . S
C780 H770 0.930 . S
C780 C779 1.400 . S
C780 C783 1.386 . S
H781 C797 0.930 . S
H782 C798 0.931 . S
C783 H771 0.929 . S
C783 C777 1.390 . S
C783 C780 1.386 . S
C784 C779 1.490 . S
C784 C786 1.395 . S
C784 C787 1.403 . S
H785 C791 0.930 . S
C786 H772 0.930 . S
C786 C784 1.395 . S
C786 C789 1.403 . S
C787 C784 1.403 . S
C787 C788 1.524 . S
C787 C791 1.400 . S
C788 H773 0.960 . S
C788 H774 0.960 . S
C788 H775 0.960 . S
C788 C787 1.524 . S
C789 C786 1.403 . S
C789 C790 1.392 . S
C789 C793 1.495 . S
C790 C789 1.392 . S
C790 C791 1.385 . S
C790 C792 1.478 . S
C791 H785 0.930 . S
C791 C787 1.400 . S
C791 C790 1.385 . S
C792 C790 1.478 . S
C792 C794 1.381 . S
C792 C798 1.383 . S
C793 C789 1.495 . S
C793 H799 0.959 . S
C793 H800 0.961 . S
C793 H801 0.960 . S
C794 C792 1.381 . S
C794 C795 1.394 . S
C794 H802 0.930 . S
C795 C794 1.394 . S
C795 C796 1.383 . S
C795 H803 0.929 . S
C796 C795 1.383 . S
C796 C797 1.377 . S
C797 H781 0.930 . S
C797 C796 1.377 . S
C797 C798 1.379 . S
C798 H782 0.931 . S
C798 C792 1.383 . S
C798 C797 1.379 . S
H799 C793 0.959 . S
H800 C793 0.961 . S
H801 C793 0.960 . S
H802 C794 0.930 . S
H803 C795 0.929 . S
H804 C812 0.929 . S
H805 C814 0.930 . S
H806 C816 0.930 . S
H807 C819 0.929 . S
H808 C822 0.930 . S
H809 C824 0.960 . S
H810 C824 0.960 . S
H811 C824 0.960 . S
C812 H804 0.929 . S
C812 C813 1.377 . S
C812 C814 1.384 . S
C813 C812 1.377 . S
C813 C819 1.390 . S
C814 H805 0.930 . S
C814 C812 1.384 . S
C814 C815 1.372 . S
C815 C814 1.372 . S
C815 C816 1.400 . S
C815 C820 1.490 . S
C816 H806 0.930 . S
C816 C815 1.400 . S
C816 C819 1.386 . S
H817 C833 0.930 . S
H818 C834 0.931 . S
C819 H807 0.929 . S
C819 C813 1.390 . S
C819 C816 1.386 . S
C820 C815 1.490 . S
C820 C822 1.395 . S
C820 C823 1.403 . S
H821 C827 0.930 . S
C822 H808 0.930 . S
C822 C820 1.395 . S
C822 C825 1.403 . S
C823 C820 1.403 . S
C823 C824 1.524 . S
C823 C827 1.400 . S
C824 H809 0.960 . S
C824 H810 0.960 . S
C824 H811 0.960 . S
C824 C823 1.524 . S
C825 C822 1.403 . S
C825 C826 1.392 . S
C825 C829 1.495 . S
C826 C825 1.392 . S
C826 C827 1.385 . S
C826 C828 1.478 . S
C827 H821 0.930 . S
C827 C823 1.400 . S
C827 C826 1.385 . S
C828 C826 1.478 . S
C828 C830 1.381 . S
C828 C834 1.383 . S
C829 C825 1.495 . S
C829 H835 0.959 . S
C829 H836 0.961 . S
C829 H837 0.960 . S
C830 C828 1.381 . S
C830 C831 1.394 . S
C830 H838 0.930 . S
C831 C830 1.394 . S
C831 C832 1.383 . S
C831 H839 0.929 . S
C832 C831 1.383 . S
C832 C833 1.377 . S
C833 H817 0.930 . S
C833 C832 1.377 . S
C833 C834 1.379 . S
C834 H818 0.931 . S
C834 C828 1.383 . S
C834 C833 1.379 . S
H835 C829 0.959 . S
H836 C829 0.961 . S
H837 C829 0.960 . S
H838 C830 0.930 . S
H839 C831 0.929 . S
H840 C848 0.929 . S
H841 C850 0.930 . S
H842 C852 0.930 . S
H843 C855 0.929 . S
H844 C858 0.930 . S
H845 C860 0.960 . S
H846 C860 0.960 . S
H847 C860 0.960 . S
C848 H840 0.929 . S
C848 C849 1.377 . S
C848 C850 1.384 . S
C849 C848 1.377 . S
C849 C855 1.390 . S
C850 H841 0.930 . S
C850 C848 1.384 . S
C850 C851 1.372 . S
C851 C850 1.372 . S
C851 C852 1.400 . S
C851 C856 1.490 . S
C852 H842 0.930 . S
C852 C851 1.400 . S
C852 C855 1.386 . S
H853 C869 0.930 . S
H854 C870 0.931 . S
C855 H843 0.929 . S
C855 C849 1.390 . S
C855 C852 1.386 . S
C856 C851 1.490 . S
C856 C858 1.395 . S
C856 C859 1.403 . S
H857 C863 0.930 . S
C858 H844 0.930 . S
C858 C856 1.395 . S
C858 C861 1.403 . S
C859 C856 1.403 . S
C859 C860 1.524 . S
C859 C863 1.400 . S
C860 H845 0.960 . S
C860 H846 0.960 . S
C860 H847 0.960 . S
C860 C859 1.524 . S
C861 C858 1.403 . S
C861 C862 1.392 . S
C861 C865 1.495 . S
C862 C861 1.392 . S
C862 C863 1.385 . S
C862 C864 1.478 . S
C863 H857 0.930 . S
C863 C859 1.400 . S
C863 C862 1.385 . S
C864 C862 1.478 . S
C864 C866 1.381 . S
C864 C870 1.383 . S
C865 C861 1.495 . S
C865 H871 0.959 . S
C865 H872 0.961 . S
C865 H873 0.960 . S
C866 C864 1.381 . S
C866 C867 1.394 1_554 S
C866 H874 0.930 . S
C867 C866 1.394 1_556 S
C867 C868 1.383 . S
C867 H875 0.929 . S
C868 C867 1.383 . S
C868 C869 1.377 1_556 S
C869 H853 0.930 . S
C869 C868 1.377 1_554 S
C869 C870 1.379 . S
C870 H854 0.931 . S
C870 C864 1.383 . S
C870 C869 1.379 . S
H871 C865 0.959 . S
H872 C865 0.961 . S
H873 C865 0.960 . S
H874 C866 0.930 . S
H875 C867 0.929 . S
H876 C884 0.929 . S
H877 C886 0.930 . S
H878 C888 0.930 . S
H879 C891 0.929 . S
H880 C894 0.930 . S
H881 C896 0.960 . S
H882 C896 0.960 . S
H883 C896 0.960 . S
C884 H876 0.929 . S
C884 C885 1.377 . S
C884 C886 1.384 . S
C885 C884 1.377 . S
C885 C891 1.390 . S
C886 H877 0.930 . S
C886 C884 1.384 . S
C886 C887 1.372 . S
C887 C886 1.372 . S
C887 C888 1.400 . S
C887 C892 1.490 . S
C888 H878 0.930 . S
C888 C887 1.400 . S
C888 C891 1.386 . S
H889 C905 0.930 1_554 S
H890 C906 0.931 . S
C891 H879 0.929 . S
C891 C885 1.390 . S
C891 C888 1.386 . S
C892 C887 1.490 . S
C892 C894 1.395 . S
C892 C895 1.403 . S
H893 C899 0.930 . S
C894 H880 0.930 . S
C894 C892 1.395 . S
C894 C897 1.403 . S
C895 C892 1.403 . S
C895 C896 1.524 . S
C895 C899 1.400 . S
C896 H881 0.960 . S
C896 H882 0.960 . S
C896 H883 0.960 . S
C896 C895 1.524 . S
C897 C894 1.403 . S
C897 C898 1.392 . S
C897 C901 1.495 . S
C898 C897 1.392 . S
C898 C899 1.385 . S
C898 C900 1.478 . S
C899 H893 0.930 . S
C899 C895 1.400 . S
C899 C898 1.385 . S
C900 C898 1.478 . S
C900 C902 1.381 . S
C900 C906 1.383 . S
C901 C897 1.495 . S
C901 H907 0.959 . S
C901 H908 0.961 . S
C901 H909 0.960 . S
C902 C900 1.381 . S
C902 C903 1.379 1_556 S
C902 H910 0.930 . S
C903 C902 1.379 1_554 S
C903 C904 1.390 . S
C903 H911 0.937 . S
C904 C903 1.390 . S
C904 C905 1.377 1_554 S
C905 H889 0.930 1_556 S
C905 C904 1.377 1_556 S
C905 C906 1.379 . S
C906 H890 0.931 . S
C906 C900 1.383 . S
C906 C905 1.379 . S
H907 C901 0.959 . S
H908 C901 0.961 . S
H909 C901 0.960 . S
H910 C902 0.930 . S
H911 C903 0.937 . S
H912 C920 0.929 . S
H913 C922 0.930 . S
H914 C924 0.930 . S
H915 C927 0.929 . S
H916 C930 0.930 . S
H917 C932 0.960 . S
H918 C932 0.960 . S
H919 C932 0.960 . S
C920 H912 0.929 . S
C920 C921 1.377 . S
C920 C922 1.384 . S
C921 C920 1.377 . S
C921 C927 1.390 1_655 S
C922 H913 0.930 . S
C922 C920 1.384 . S
C922 C923 1.372 . S
C923 C922 1.372 . S
C923 C924 1.400 1_655 S
C923 C928 1.490 . S
C924 H914 0.930 . S
C924 C923 1.400 1_455 S
C924 C927 1.386 . S
H925 C941 0.930 . S
H926 C942 0.931 . S
C927 H915 0.929 . S
C927 C921 1.390 1_455 S
C927 C924 1.386 . S
C928 C923 1.490 . S
C928 C930 1.395 . S
C928 C931 1.403 1_655 S
H929 C935 0.930 . S
C930 H916 0.930 . S
C930 C928 1.395 . S
C930 C933 1.403 . S
C931 C928 1.403 1_455 S
C931 C932 1.524 . S
C931 C935 1.400 . S
C932 H917 0.960 . S
C932 H918 0.960 . S
C932 H919 0.960 . S
C932 C931 1.524 . S
C933 C930 1.403 . S
C933 C934 1.345 1_655 S
C933 C937 1.495 . S
C934 C933 1.345 1_455 S
C934 C935 1.430 . S
C934 C936 1.485 . S
C935 H929 0.930 . S
C935 C931 1.400 . S
C935 C934 1.430 . S
C936 C934 1.485 . S
C936 C938 1.381 1_455 S
C936 C942 1.383 . S
C937 C933 1.495 . S
C937 H943 0.959 . S
C937 H944 0.961 . S
C937 H945 0.960 . S
C938 C936 1.381 1_655 S
C938 C939 1.394 . S
C938 H946 0.930 . S
C939 C938 1.394 . S
C939 C940 1.383 1_655 S
C939 H947 0.929 . S
C940 C939 1.383 1_455 S
C940 C941 1.377 . S
C941 H925 0.930 . S
C941 C940 1.377 . S
C941 C942 1.379 . S
C942 H926 0.931 . S
C942 C936 1.383 . S
C942 C941 1.379 . S
H943 C937 0.959 . S
H944 C937 0.961 . S
H945 C937 0.960 . S
H946 C938 0.930 . S
H947 C939 0.929 . S
H948 C956 0.929 . S
H949 C958 0.930 . S
H950 C960 0.930 . S
H951 C963 0.929 . S
H952 C966 0.930 . S
H953 C968 0.996 . S
H954 C968 0.960 . S
H955 C968 0.960 . S
C956 H948 0.929 . S
C956 C957 1.377 . S
C956 C958 1.384 . S
C957 C956 1.377 . S
C957 C963 1.390 . S
C958 H949 0.930 . S
C958 C956 1.384 . S
C958 C959 1.372 . S
C959 C958 1.372 . S
C959 C960 1.400 . S
C959 C964 1.490 . S
C960 H950 0.930 . S
C960 C959 1.400 . S
C960 C963 1.386 . S
H961 C977 0.930 . S
H962 C978 0.931 . S
C963 H951 0.929 . S
C963 C957 1.390 . S
C963 C960 1.386 . S
C964 C959 1.490 . S
C964 C966 1.395 . S
C964 C967 1.403 . S
H965 C971 0.930 . S
C966 H952 0.930 . S
C966 C964 1.395 . S
C966 C969 1.403 1_655 S
C967 C964 1.403 . S
C967 C968 1.524 . S
C967 C971 1.400 1_655 S
C968 H953 0.996 . S
C968 H954 0.960 . S
C968 H955 0.960 . S
C968 C967 1.524 . S
C969 C966 1.403 1_455 S
C969 C970 1.392 . S
C969 C973 1.495 . S
C970 C969 1.392 . S
C970 C971 1.385 . S
C970 C972 1.478 . S
C971 H965 0.930 . S
C971 C967 1.400 1_455 S
C971 C970 1.385 . S
C972 C970 1.478 . S
C972 C974 1.381 . S
C972 C978 1.383 . S
C973 C969 1.495 . S
C973 H979 0.959 . S
C973 H980 0.961 . S
C973 H981 0.960 . S
C974 C972 1.381 . S
C974 C975 1.394 . S
C974 H982 0.930 . S
C975 C974 1.394 . S
C975 C976 1.383 . S
C975 H983 0.929 . S
C976 C975 1.383 . S
C976 C977 1.377 . S
C977 H961 0.930 . S
C977 C976 1.377 . S
C977 C978 1.379 . S
C978 H962 0.931 . S
C978 C972 1.383 . S
C978 C977 1.379 . S
H979 C973 0.959 . S
H980 C973 0.961 . S
H981 C973 0.960 . S
H982 C974 0.930 . S
H983 C975 0.929 . S
H984 C992 0.929 . S
H985 C994 0.930 . S
H986 C996 0.930 . S
H987 C999 0.929 . S
H988 C1002 0.930 . S
H989 C1004 0.960 . S
H990 C1004 0.960 . S
H991 C1004 0.960 . S
C992 H984 0.929 . S
C992 C993 1.377 . S
C992 C994 1.384 . S
C993 C992 1.377 . S
C993 C999 1.390 . S
C994 H985 0.930 . S
C994 C992 1.384 . S
C994 C995 1.372 . S
C995 C994 1.372 . S
C995 C996 1.400 . S
C995 C1000 1.490 . S
C996 H986 0.930 . S
C996 C995 1.400 . S
C996 C999 1.386 . S
H997 C1013 0.930 . S
H998 C1014 0.931 . S
C999 H987 0.929 . S
C999 C993 1.390 . S
C999 C996 1.386 . S
C1000 C995 1.490 . S
C1000 C1002 1.395 . S
C1000 C1003 1.403 . S
H1001 C1007 0.930 . S
C1002 H988 0.930 . S
C1002 C1000 1.395 . S
C1002 C1005 1.403 . S
C1003 C1000 1.403 . S
C1003 C1004 1.524 . S
C1003 C1007 1.400 . S
C1004 H989 0.960 . S
C1004 H990 0.960 . S
C1004 H991 0.960 . S
C1004 C1003 1.524 . S
C1005 C1002 1.403 . S
C1005 C1006 1.392 . S
C1005 C1009 1.495 . S
C1006 C1005 1.392 . S
C1006 C1007 1.385 . S
C1006 C1008 1.478 . S
C1007 H1001 0.930 . S
C1007 C1003 1.400 . S
C1007 C1006 1.385 . S
C1008 C1006 1.478 . S
C1008 C1010 1.381 . S
C1008 C1014 1.383 . S
C1009 C1005 1.495 . S
C1009 H1015 0.959 . S
C1009 H1016 0.961 . S
C1009 H1017 0.960 . S
C1010 C1008 1.381 . S
C1010 C1011 1.394 . S
C1010 H1018 0.930 . S
C1011 C1010 1.394 . S
C1011 C1012 1.383 . S
C1011 H1019 0.929 . S
C1012 C1011 1.383 . S
C1012 C1013 1.377 . S
C1013 H997 0.930 . S
C1013 C1012 1.377 . S
C1013 C1014 1.379 . S
C1014 H998 0.931 . S
C1014 C1008 1.383 . S
C1014 C1013 1.379 . S
H1015 C1009 0.959 . S
H1016 C1009 0.961 . S
H1017 C1009 0.960 . S
H1018 C1010 0.930 . S
H1019 C1011 0.929 . S
H1020 C1028 0.929 . S
H1021 C1030 0.930 . S
H1022 C1032 0.930 . S
H1023 C1035 0.929 . S
H1024 C1038 0.930 . S
H1025 C1040 0.960 . S
H1026 C1040 0.960 . S
H1027 C1040 0.960 . S
C1028 H1020 0.929 . S
C1028 C1029 1.377 . S
C1028 C1030 1.384 . S
C1029 C1028 1.377 . S
C1029 C1035 1.390 . S
C1030 H1021 0.930 . S
C1030 C1028 1.384 . S
C1030 C1031 1.372 . S
C1031 C1030 1.372 . S
C1031 C1032 1.400 . S
C1031 C1036 1.490 . S
C1032 H1022 0.930 . S
C1032 C1031 1.400 . S
C1032 C1035 1.386 . S
H1033 C1049 0.930 . S
H1034 C1050 0.931 . S
C1035 H1023 0.929 . S
C1035 C1029 1.390 . S
C1035 C1032 1.386 . S
C1036 C1031 1.490 . S
C1036 C1038 1.395 . S
C1036 C1039 1.403 . S
H1037 C1043 0.930 . S
C1038 H1024 0.930 . S
C1038 C1036 1.395 . S
C1038 C1041 1.403 . S
C1039 C1036 1.403 . S
C1039 C1040 1.524 . S
C1039 C1043 1.400 . S
C1040 H1025 0.960 . S
C1040 H1026 0.960 . S
C1040 H1027 0.960 . S
C1040 C1039 1.524 . S
C1041 C1038 1.403 . S
C1041 C1042 1.392 . S
C1041 C1045 1.495 . S
C1042 C1041 1.392 . S
C1042 C1043 1.385 . S
C1042 C1044 1.478 . S
C1043 H1037 0.930 . S
C1043 C1039 1.400 . S
C1043 C1042 1.385 . S
C1044 C1042 1.478 . S
C1044 C1046 1.381 . S
C1044 C1050 1.383 . S
C1045 C1041 1.495 . S
C1045 H1051 0.959 . S
C1045 H1052 0.961 . S
C1045 H1053 0.960 . S
C1046 C1044 1.381 . S
C1046 C1047 1.394 . S
C1046 H1054 0.930 . S
C1047 C1046 1.394 . S
C1047 C1048 1.383 . S
C1047 H1055 0.929 . S
C1048 C1047 1.383 . S
C1048 C1049 1.377 . S
C1049 H1033 0.930 . S
C1049 C1048 1.377 . S
C1049 C1050 1.379 . S
C1050 H1034 0.931 . S
C1050 C1044 1.383 . S
C1050 C1049 1.379 . S
H1051 C1045 0.959 . S
H1052 C1045 0.961 . S
H1053 C1045 0.960 . S
H1054 C1046 0.930 . S
H1055 C1047 0.929 . S
H1056 C1064 0.929 . S
H1057 C1066 0.930 . S
H1058 C1068 0.930 . S
H1059 C1071 0.929 . S
H1060 C1074 0.930 . S
H1061 C1076 0.960 . S
H1062 C1076 0.960 . S
H1063 C1076 0.960 . S
C1064 H1056 0.929 . S
C1064 C1065 1.377 . S
C1064 C1066 1.384 . S
C1065 C1064 1.377 . S
C1065 C1071 1.390 . S
C1066 H1057 0.930 . S
C1066 C1064 1.384 . S
C1066 C1067 1.372 . S
C1067 C1066 1.372 . S
C1067 C1068 1.400 . S
C1067 C1072 1.490 . S
C1068 H1058 0.930 . S
C1068 C1067 1.400 . S
C1068 C1071 1.386 . S
H1069 C1085 0.930 . S
H1070 C1086 0.929 1_455 S
C1071 H1059 0.929 . S
C1071 C1065 1.390 . S
C1071 C1068 1.386 . S
C1072 C1067 1.490 . S
C1072 C1074 1.395 . S
C1072 C1075 1.403 1_455 S
H1073 C1079 0.930 . S
C1074 H1060 0.930 . S
C1074 C1072 1.395 . S
C1074 C1077 1.403 . S
C1075 C1072 1.403 1_655 S
C1075 C1076 1.524 . S
C1075 C1079 1.400 . S
C1076 H1061 0.960 . S
C1076 H1062 0.960 . S
C1076 H1063 0.960 . S
C1076 C1075 1.524 . S
C1077 C1074 1.403 . S
C1077 C1078 1.392 . S
C1077 C1081 1.495 . S
C1078 C1077 1.392 . S
C1078 C1079 1.385 1_455 S
C1078 C1080 1.478 . S
C1079 H1073 0.930 . S
C1079 C1075 1.400 . S
C1079 C1078 1.385 1_655 S
C1080 C1078 1.478 . S
C1080 C1082 1.383 . S
C1080 C1086 1.382 1_455 S
C1081 C1077 1.495 . S
C1081 H1087 0.959 . S
C1081 H1088 0.961 . S
C1081 H1089 0.960 . S
C1082 C1080 1.383 . S
C1082 C1083 1.391 1_455 S
C1082 H1090 0.932 . S
C1083 C1082 1.391 1_655 S
C1083 C1084 1.383 . S
C1083 H1091 0.929 . S
C1084 C1083 1.383 . S
C1084 C1085 1.377 . S
C1085 H1069 0.930 . S
C1085 C1084 1.377 . S
C1085 C1086 1.380 . S
C1086 H1070 0.929 1_655 S
C1086 C1080 1.382 1_655 S
C1086 C1085 1.380 . S
H1087 C1081 0.959 . S
H1088 C1081 0.961 . S
H1089 C1081 0.960 . S
H1090 C1082 0.932 . S
H1091 C1083 0.929 . S
H1092 C1100 0.929 . S
H1093 C1102 0.930 . S
H1094 C1104 0.930 . S
H1095 C1107 0.929 . S
H1096 C1110 0.930 . S
H1097 C1112 0.960 . S
H1098 C1112 0.960 . S
H1099 C1112 0.960 . S
C1100 H1092 0.929 . S
C1100 C1101 1.377 . S
C1100 C1102 1.384 . S
C1101 C1100 1.377 . S
C1101 C1107 1.390 . S
C1102 H1093 0.930 . S
C1102 C1100 1.384 . S
C1102 C1103 1.372 . S
C1103 C1102 1.372 . S
C1103 C1104 1.400 . S
C1103 C1108 1.490 . S
C1104 H1094 0.930 . S
C1104 C1103 1.400 . S
C1104 C1107 1.386 . S
H1105 C1121 0.930 . S
H1106 C1122 0.931 . S
C1107 H1095 0.929 . S
C1107 C1101 1.390 . S
C1107 C1104 1.386 . S
C1108 C1103 1.490 . S
C1108 C1110 1.395 . S
C1108 C1111 1.403 . S
H1109 C1115 0.930 . S
C1110 H1096 0.930 . S
C1110 C1108 1.395 . S
C1110 C1113 1.403 . S
C1111 C1108 1.403 . S
C1111 C1112 1.524 . S
C1111 C1115 1.400 . S
C1112 H1097 0.960 . S
C1112 H1098 0.960 . S
C1112 H1099 0.960 . S
C1112 C1111 1.524 . S
C1113 C1110 1.403 . S
C1113 C1114 1.392 . S
C1113 C1117 1.495 . S
C1114 C1113 1.392 . S
C1114 C1115 1.385 . S
C1114 C1116 1.478 . S
C1115 H1109 0.930 . S
C1115 C1111 1.400 . S
C1115 C1114 1.385 . S
C1116 C1114 1.478 . S
C1116 C1118 1.381 . S
C1116 C1122 1.383 . S
C1117 C1113 1.495 . S
C1117 H1123 0.959 . S
C1117 H1124 0.961 . S
C1117 H1125 0.960 . S
C1118 C1116 1.381 . S
C1118 C1119 1.394 . S
C1118 H1126 0.930 . S
C1119 C1118 1.394 . S
C1119 C1120 1.383 . S
C1119 H1127 0.929 . S
C1120 C1119 1.383 . S
C1120 C1121 1.377 . S
C1121 H1105 0.930 . S
C1121 C1120 1.377 . S
C1121 C1122 1.379 . S
C1122 H1106 0.931 . S
C1122 C1116 1.383 . S
C1122 C1121 1.379 . S
H1123 C1117 0.959 . S
H1124 C1117 0.961 . S
H1125 C1117 0.960 . S
H1126 C1118 0.930 . S
H1127 C1119 0.929 . S
H1128 C1136 0.929 . S
H1129 C1138 0.930 . S
H1130 C1140 0.930 . S
H1131 C1143 0.929 . S
H1132 C1146 0.930 . S
H1133 C1148 0.960 . S
H1134 C1148 0.960 . S
H1135 C1148 0.960 . S
C1136 H1128 0.929 . S
C1136 C1137 1.377 . S
C1136 C1138 1.384 . S
C1137 C1136 1.377 . S
C1137 C1143 1.390 . S
C1138 H1129 0.930 . S
C1138 C1136 1.384 . S
C1138 C1139 1.372 . S
C1139 C1138 1.372 . S
C1139 C1140 1.400 . S
C1139 C1144 1.490 . S
C1140 H1130 0.930 . S
C1140 C1139 1.400 . S
C1140 C1143 1.386 . S
H1141 C1157 0.930 . S
H1142 C1158 0.931 . S
C1143 H1131 0.929 . S
C1143 C1137 1.390 . S
C1143 C1140 1.386 . S
C1144 C1139 1.490 . S
C1144 C1146 1.395 . S
C1144 C1147 1.403 . S
H1145 C1151 0.930 . S
C1146 H1132 0.930 . S
C1146 C1144 1.395 . S
C1146 C1149 1.403 . S
C1147 C1144 1.403 . S
C1147 C1148 1.524 . S
C1147 C1151 1.400 . S
C1148 H1133 0.960 . S
C1148 H1134 0.960 . S
C1148 H1135 0.960 . S
C1148 C1147 1.524 . S
C1149 C1146 1.403 . S
C1149 C1150 1.392 . S
C1149 C1153 1.495 . S
C1150 C1149 1.392 . S
C1150 C1151 1.385 . S
C1150 C1152 1.478 . S
C1151 H1145 0.930 . S
C1151 C1147 1.400 . S
C1151 C1150 1.385 . S
C1152 C1150 1.478 . S
C1152 C1154 1.381 . S
C1152 C1158 1.383 . S
C1153 C1149 1.495 . S
C1153 H1159 0.959 . S
C1153 H1160 0.961 . S
C1153 H1161 0.960 . S
C1154 C1152 1.381 . S
C1154 C1155 1.394 . S
C1154 H1162 0.930 . S
C1155 C1154 1.394 . S
C1155 C1156 1.383 . S
C1155 H1163 0.929 . S
C1156 C1155 1.383 . S
C1156 C1157 1.377 . S
C1157 H1141 0.930 . S
C1157 C1156 1.377 . S
C1157 C1158 1.379 . S
C1158 H1142 0.931 . S
C1158 C1152 1.383 . S
C1158 C1157 1.379 . S
H1159 C1153 0.959 . S
H1160 C1153 0.961 . S
H1161 C1153 0.960 . S
H1162 C1154 0.930 . S
H1163 C1155 0.929 . S
H1164 C1172 0.929 . S
H1165 C1174 0.930 . S
H1166 C1176 0.930 . S
H1167 C1179 0.929 . S
H1168 C1182 0.930 . S
H1169 C1184 0.960 . S
H1170 C1184 0.960 . S
H1171 C1184 0.960 . S
C1172 H1164 0.929 . S
C1172 C1173 1.377 . S
C1172 C1174 1.384 . S
C1173 C1172 1.377 . S
C1173 C1179 1.390 . S
C1174 H1165 0.930 . S
C1174 C1172 1.384 . S
C1174 C1175 1.372 . S
C1175 C1174 1.372 . S
C1175 C1176 1.400 . S
C1175 C1180 1.490 . S
C1176 H1166 0.930 . S
C1176 C1175 1.400 . S
C1176 C1179 1.386 . S
H1177 C1193 0.930 . S
H1178 C1194 0.931 . S
C1179 H1167 0.929 . S
C1179 C1173 1.390 . S
C1179 C1176 1.386 . S
C1180 C1175 1.490 . S
C1180 C1182 1.395 . S
C1180 C1183 1.403 . S
H1181 C1187 0.930 . S
C1182 H1168 0.930 . S
C1182 C1180 1.395 . S
C1182 C1185 1.403 1_455 S
C1183 C1180 1.403 . S
C1183 C1184 1.524 . S
C1183 C1187 1.400 1_455 S
C1184 H1169 0.960 . S
C1184 H1170 0.960 . S
C1184 H1171 0.960 . S
C1184 C1183 1.524 . S
C1185 C1182 1.403 1_655 S
C1185 C1186 1.392 . S
C1185 C1189 1.495 . S
C1186 C1185 1.392 . S
C1186 C1187 1.385 . S
C1186 C1188 1.478 . S
C1187 H1181 0.930 . S
C1187 C1183 1.400 1_655 S
C1187 C1186 1.385 . S
C1188 C1186 1.478 . S
C1188 C1190 1.381 . S
C1188 C1194 1.383 . S
C1189 C1185 1.495 . S
C1189 H1195 0.959 . S
C1189 H1196 0.961 . S
C1189 H1197 0.960 . S
C1190 C1188 1.381 . S
C1190 C1191 1.394 . S
C1190 H1198 0.930 . S
C1191 C1190 1.394 . S
C1191 C1192 1.383 . S
C1191 H1199 0.929 . S
C1192 C1191 1.383 . S
C1192 C1193 1.377 . S
C1193 H1177 0.930 . S
C1193 C1192 1.377 . S
C1193 C1194 1.379 . S
C1194 H1178 0.931 . S
C1194 C1188 1.383 . S
C1194 C1193 1.379 . S
H1195 C1189 0.959 . S
H1196 C1189 0.961 . S
H1197 C1189 0.960 . S
H1198 C1190 0.930 . S
H1199 C1191 0.929 . S
H1200 C1208 0.929 . S
H1201 C1210 0.930 . S
H1202 C1212 0.930 . S
H1203 C1215 0.929 . S
H1204 C1218 0.930 . S
H1205 C1220 0.960 . S
H1206 C1220 0.960 1_554 S
H1207 C1220 0.960 . S
C1208 H1200 0.929 . S
C1208 C1209 1.377 . S
C1208 C1210 1.384 . S
C1209 C1208 1.377 . S
C1209 C1215 1.390 . S
C1210 H1201 0.930 . S
C1210 C1208 1.384 . S
C1210 C1211 1.372 . S
C1211 C1210 1.372 . S
C1211 C1212 1.400 . S
C1211 C1216 1.490 . S
C1212 H1202 0.930 . S
C1212 C1211 1.400 . S
C1212 C1215 1.386 . S
H1213 C1229 0.930 . S
H1214 C1230 0.931 . S
C1215 H1203 0.929 . S
C1215 C1209 1.390 . S
C1215 C1212 1.386 . S
C1216 C1211 1.490 . S
C1216 C1218 1.395 1_455 S
C1216 C1219 1.398 1_554 S
H1217 C1223 0.930 . S
C1218 H1204 0.930 . S
C1218 C1216 1.395 1_655 S
C1218 C1221 1.403 1_545 S
C1219 C1216 1.398 1_556 S
C1219 C1220 1.524 . S
C1219 C1223 1.404 1_545 S
C1220 H1205 0.960 . S
C1220 H1206 0.960 1_556 S
C1220 H1207 0.960 . S
C1220 C1219 1.524 . S
C1221 C1218 1.403 1_565 S
C1221 C1222 1.392 1_654 S
C1221 C1225 1.495 . S
C1222 C1221 1.392 1_456 S
C1222 C1223 1.385 . S
C1222 C1224 1.478 . S
C1223 H1217 0.930 . S
C1223 C1219 1.404 1_565 S
C1223 C1222 1.385 . S
C1224 C1222 1.478 . S
C1224 C1226 1.381 . S
C1224 C1230 1.383 . S
C1225 C1221 1.495 . S
C1225 H1231 0.959 . S
C1225 H1232 0.961 1_554 S
C1225 H1233 0.960 . S
C1226 C1224 1.381 . S
C1226 C1227 1.394 . S
C1226 H1234 0.937 . S
C1227 C1226 1.394 . S
C1227 C1228 1.383 . S
C1227 H1235 0.929 . S
C1228 C1227 1.383 . S
C1228 C1229 1.377 . S
C1229 H1213 0.930 . S
C1229 C1228 1.377 . S
C1229 C1230 1.379 . S
C1230 H1214 0.931 . S
C1230 C1224 1.383 . S
C1230 C1229 1.379 . S
H1231 C1225 0.959 . S
H1232 C1225 0.961 1_556 S
H1233 C1225 0.960 . S
H1234 C1226 0.937 . S
H1235 C1227 0.929 . S
H1236 C1244 0.929 . S
H1237 C1246 0.930 . S
H1238 C1248 0.930 . S
H1239 C1251 0.929 . S
H1240 C1254 0.930 . S
H1241 C1256 0.960 . S
H1242 C1256 0.960 . S
H1243 C1256 0.960 . S
C1244 H1236 0.929 . S
C1244 C1245 1.377 . S
C1244 C1246 1.384 . S
C1245 C1244 1.377 . S
C1245 C1251 1.390 . S
C1246 H1237 0.930 . S
C1246 C1244 1.384 . S
C1246 C1247 1.372 . S
C1247 C1246 1.372 . S
C1247 C1248 1.400 . S
C1247 C1252 1.490 . S
C1248 H1238 0.930 . S
C1248 C1247 1.400 . S
C1248 C1251 1.386 . S
H1249 C1265 0.930 . S
H1250 C1266 0.931 . S
C1251 H1239 0.929 . S
C1251 C1245 1.390 . S
C1251 C1248 1.386 . S
C1252 C1247 1.490 . S
C1252 C1254 1.395 . S
C1252 C1255 1.403 . S
H1253 C1259 0.930 . S
C1254 H1240 0.930 . S
C1254 C1252 1.395 . S
C1254 C1257 1.403 . S
C1255 C1252 1.403 . S
C1255 C1256 1.524 . S
C1255 C1259 1.400 . S
C1256 H1241 0.960 . S
C1256 H1242 0.960 . S
C1256 H1243 0.960 . S
C1256 C1255 1.524 . S
C1257 C1254 1.403 . S
C1257 C1258 1.392 . S
C1257 C1261 1.495 . S
C1258 C1257 1.392 . S
C1258 C1259 1.385 . S
C1258 C1260 1.478 . S
C1259 H1253 0.930 . S
C1259 C1255 1.400 . S
C1259 C1258 1.385 . S
C1260 C1258 1.478 . S
C1260 C1262 1.381 . S
C1260 C1266 1.383 . S
C1261 C1257 1.495 . S
C1261 H1267 0.959 . S
C1261 H1268 0.961 . S
C1261 H1269 0.960 . S
C1262 C1260 1.381 . S
C1262 C1263 1.394 . S
C1262 H1270 0.930 . S
C1263 C1262 1.394 . S
C1263 C1264 1.383 . S
C1263 H1271 0.929 . S
C1264 C1263 1.383 . S
C1264 C1265 1.377 . S
C1265 H1249 0.930 . S
C1265 C1264 1.377 . S
C1265 C1266 1.379 . S
C1266 H1250 0.931 . S
C1266 C1260 1.383 . S
C1266 C1265 1.379 . S
H1267 C1261 0.959 . S
H1268 C1261 0.961 . S
H1269 C1261 0.960 . S
H1270 C1262 0.930 . S
H1271 C1263 0.929 . S
H1272 C1280 0.929 . S
H1273 C1282 0.930 . S
H1274 C1284 0.930 . S
H1275 C1287 0.929 . S
H1276 C1290 0.930 . S
H1277 C1292 0.960 . S
H1278 C1292 0.960 . S
H1279 C1292 0.960 . S
C1280 H1272 0.929 . S
C1280 C1281 1.377 . S
C1280 C1282 1.384 . S
C1281 C1280 1.377 . S
C1281 C1287 1.390 . S
C1282 H1273 0.930 . S
C1282 C1280 1.384 . S
C1282 C1283 1.372 . S
C1283 C1282 1.372 . S
C1283 C1284 1.400 . S
C1283 C1288 1.490 . S
C1284 H1274 0.930 . S
C1284 C1283 1.400 . S
C1284 C1287 1.386 . S
H1285 C1301 0.930 . S
H1286 C1302 0.931 . S
C1287 H1275 0.929 . S
C1287 C1281 1.390 . S
C1287 C1284 1.386 . S
C1288 C1283 1.490 . S
C1288 C1290 1.395 1_545 S
C1288 C1291 1.403 . S
H1289 C1295 0.930 . S
C1290 H1276 0.930 . S
C1290 C1288 1.395 1_565 S
C1290 C1293 1.403 . S
C1291 C1288 1.403 . S
C1291 C1292 1.524 . S
C1291 C1295 1.400 1_545 S
C1292 H1277 0.960 . S
C1292 H1278 0.960 . S
C1292 H1279 0.960 . S
C1292 C1291 1.524 . S
C1293 C1290 1.403 . S
C1293 C1294 1.392 . S
C1293 C1297 1.495 . S
C1294 C1293 1.392 . S
C1294 C1295 1.385 . S
C1294 C1296 1.478 . S
C1295 H1289 0.930 . S
C1295 C1291 1.400 1_565 S
C1295 C1294 1.385 . S
C1296 C1294 1.478 . S
C1296 C1298 1.381 . S
C1296 C1302 1.383 . S
C1297 C1293 1.495 . S
C1297 H1303 0.959 . S
C1297 H1304 0.961 . S
C1297 H1305 0.960 . S
C1298 C1296 1.381 . S
C1298 C1299 1.394 . S
C1298 H1306 0.930 . S
C1299 C1298 1.394 . S
C1299 C1300 1.383 . S
C1299 H1307 0.929 . S
C1300 C1299 1.383 . S
C1300 C1301 1.377 . S
C1301 H1285 0.930 . S
C1301 C1300 1.377 . S
C1301 C1302 1.379 . S
C1302 H1286 0.931 . S
C1302 C1296 1.383 . S
C1302 C1301 1.379 . S
H1303 C1297 0.959 . S
H1304 C1297 0.961 . S
H1305 C1297 0.960 . S
H1306 C1298 0.930 . S
H1307 C1299 0.929 . S
H1308 C1316 0.929 . S
H1309 C1318 0.930 . S
H1310 C1320 0.930 . S
H1311 C1323 0.929 . S
H1312 C1326 0.930 . S
H1313 C1328 0.960 . S
H1314 C1328 0.960 . S
H1315 C1328 0.960 . S
C1316 H1308 0.929 . S
C1316 C1317 1.377 . S
C1316 C1318 1.384 . S
C1317 C1316 1.377 . S
C1317 C1323 1.390 . S
C1318 H1309 0.930 . S
C1318 C1316 1.384 . S
C1318 C1319 1.372 . S
C1319 C1318 1.372 . S
C1319 C1320 1.400 . S
C1319 C1324 1.490 . S
C1320 H1310 0.930 . S
C1320 C1319 1.400 . S
C1320 C1323 1.386 . S
H1321 C1337 0.930 . S
H1322 C1338 0.931 . S
C1323 H1311 0.929 . S
C1323 C1317 1.390 . S
C1323 C1320 1.386 . S
C1324 C1319 1.490 . S
C1324 C1326 1.395 . S
C1324 C1327 1.403 . S
H1325 C1331 0.930 . S
C1326 H1312 0.930 . S
C1326 C1324 1.395 . S
C1326 C1329 1.403 . S
C1327 C1324 1.403 . S
C1327 C1328 1.524 . S
C1327 C1331 1.400 . S
C1328 H1313 0.960 . S
C1328 H1314 0.960 . S
C1328 H1315 0.960 . S
C1328 C1327 1.524 . S
C1329 C1326 1.403 . S
C1329 C1330 1.392 . S
C1329 C1333 1.495 . S
C1330 C1329 1.392 . S
C1330 C1331 1.385 . S
C1330 C1332 1.478 . S
C1331 H1325 0.930 . S
C1331 C1327 1.400 . S
C1331 C1330 1.385 . S
C1332 C1330 1.478 . S
C1332 C1334 1.381 . S
C1332 C1338 1.383 . S
C1333 C1329 1.495 . S
C1333 H1339 0.959 . S
C1333 H1340 0.961 . S
C1333 H1341 0.960 . S
C1334 C1332 1.381 . S
C1334 C1335 1.394 . S
C1334 H1342 0.930 . S
C1335 C1334 1.394 . S
C1335 C1336 1.383 . S
C1335 H1343 0.929 . S
C1336 C1335 1.383 . S
C1336 C1337 1.377 . S
C1337 H1321 0.930 . S
C1337 C1336 1.377 . S
C1337 C1338 1.379 . S
C1338 H1322 0.931 . S
C1338 C1332 1.383 . S
C1338 C1337 1.379 . S
H1339 C1333 0.959 . S
H1340 C1333 0.961 . S
H1341 C1333 0.960 . S
H1342 C1334 0.930 . S
H1343 C1335 0.929 . S
H1344 C1352 0.929 . S
H1345 C1354 0.930 . S
H1346 C1356 0.930 . S
H1347 C1359 0.929 . S
H1348 C1362 0.930 . S
H1349 C1364 0.960 . S
H1350 C1364 0.960 . S
H1351 C1364 0.960 . S
C1352 H1344 0.929 . S
C1352 C1353 1.377 . S
C1352 C1354 1.384 . S
C1353 C1352 1.377 . S
C1353 C1359 1.390 . S
C1354 H1345 0.930 . S
C1354 C1352 1.384 . S
C1354 C1355 1.372 . S
C1355 C1354 1.372 . S
C1355 C1356 1.400 . S
C1355 C1360 1.490 . S
C1356 H1346 0.930 . S
C1356 C1355 1.400 . S
C1356 C1359 1.386 . S
H1357 C1373 0.930 . S
H1358 C1374 0.931 . S
C1359 H1347 0.929 . S
C1359 C1353 1.390 . S
C1359 C1356 1.386 . S
C1360 C1355 1.490 . S
C1360 C1362 1.395 . S
C1360 C1363 1.403 . S
H1361 C1367 0.930 . S
C1362 H1348 0.930 . S
C1362 C1360 1.395 . S
C1362 C1365 1.403 . S
C1363 C1360 1.403 . S
C1363 C1364 1.524 . S
C1363 C1367 1.400 . S
C1364 H1349 0.960 . S
C1364 H1350 0.960 . S
C1364 H1351 0.960 . S
C1364 C1363 1.524 . S
C1365 C1362 1.403 . S
C1365 C1366 1.392 . S
C1365 C1369 1.495 . S
C1366 C1365 1.392 . S
C1366 C1367 1.385 . S
C1366 C1368 1.478 . S
C1367 H1361 0.930 . S
C1367 C1363 1.400 . S
C1367 C1366 1.385 . S
C1368 C1366 1.478 . S
C1368 C1370 1.381 . S
C1368 C1374 1.383 . S
C1369 C1365 1.495 . S
C1369 H1375 0.959 . S
C1369 H1376 0.961 . S
C1369 H1377 0.960 . S
C1370 C1368 1.381 . S
C1370 C1371 1.394 . S
C1370 H1378 0.930 . S
C1371 C1370 1.394 . S
C1371 C1372 1.383 . S
C1371 H1379 0.929 . S
C1372 C1371 1.383 . S
C1372 C1373 1.377 . S
C1373 H1357 0.930 . S
C1373 C1372 1.377 . S
C1373 C1374 1.379 . S
C1374 H1358 0.931 . S
C1374 C1368 1.383 . S
C1374 C1373 1.379 . S
H1375 C1369 0.959 . S
H1376 C1369 0.961 . S
H1377 C1369 0.960 . S
H1378 C1370 0.930 . S
H1379 C1371 0.929 . S
H1380 C1388 0.929 . S
H1381 C1390 0.930 . S
H1382 C1392 0.930 . S
H1383 C1395 0.929 . S
H1384 C1398 0.930 . S
H1385 C1400 0.960 . S
H1386 C1400 0.960 . S
H1387 C1400 0.960 . S
C1388 H1380 0.929 . S
C1388 C1389 1.377 . S
C1388 C1390 1.384 . S
C1389 C1388 1.377 . S
C1389 C1395 1.390 . S
C1390 H1381 0.930 . S
C1390 C1388 1.384 . S
C1390 C1391 1.372 . S
C1391 C1390 1.372 . S
C1391 C1392 1.400 . S
C1391 C1396 1.490 . S
C1392 H1382 0.930 . S
C1392 C1391 1.400 . S
C1392 C1395 1.386 . S
H1393 C1409 0.930 . S
H1394 C1410 0.931 . S
C1395 H1383 0.929 . S
C1395 C1389 1.390 . S
C1395 C1392 1.386 . S
C1396 C1391 1.490 . S
C1396 C1398 1.395 . S
C1396 C1399 1.403 . S
H1397 C1403 0.930 . S
C1398 H1384 0.930 . S
C1398 C1396 1.395 . S
C1398 C1401 1.403 . S
C1399 C1396 1.403 . S
C1399 C1400 1.524 . S
C1399 C1403 1.400 . S
C1400 H1385 0.960 . S
C1400 H1386 0.960 . S
C1400 H1387 0.960 . S
C1400 C1399 1.524 . S
C1401 C1398 1.403 . S
C1401 C1402 1.392 . S
C1401 C1405 1.495 . S
C1402 C1401 1.392 . S
C1402 C1403 1.385 . S
C1402 C1404 1.478 . S
C1403 H1397 0.930 . S
C1403 C1399 1.400 . S
C1403 C1402 1.385 . S
C1404 C1402 1.478 . S
C1404 C1406 1.381 . S
C1404 C1410 1.383 . S
C1405 C1401 1.495 . S
C1405 H1411 0.959 . S
C1405 H1412 0.961 . S
C1405 H1413 0.960 . S
C1406 C1404 1.381 . S
C1406 C1407 1.394 . S
C1406 H1414 0.930 . S
C1407 C1406 1.394 . S
C1407 C1408 1.383 . S
C1407 H1415 0.929 . S
C1408 C1407 1.383 . S
C1408 C1409 1.377 . S
C1409 H1393 0.930 . S
C1409 C1408 1.377 . S
C1409 C1410 1.379 . S
C1410 H1394 0.931 . S
C1410 C1404 1.383 . S
C1410 C1409 1.379 . S
H1411 C1405 0.959 . S
H1412 C1405 0.961 . S
H1413 C1405 0.960 . S
H1414 C1406 0.930 . S
H1415 C1407 0.929 . S
H1416 C1424 0.929 . S
H1417 C1426 0.930 . S
H1418 C1428 0.930 . S
H1419 C1431 0.929 . S
H1420 C1434 0.930 . S
H1421 C1436 0.960 . S
H1422 C1436 0.960 . S
H1423 C1436 0.960 . S
C1424 H1416 0.929 . S
C1424 C1425 1.377 . S
C1424 C1426 1.384 . S
C1425 C1424 1.377 . S
C1425 C1431 1.390 . S
C1426 H1417 0.930 . S
C1426 C1424 1.384 . S
C1426 C1427 1.372 . S
C1427 C1426 1.372 . S
C1427 C1428 1.400 . S
C1427 C1432 1.490 . S
C1428 H1418 0.930 . S
C1428 C1427 1.400 . S
C1428 C1431 1.386 . S
H1429 C1445 0.930 . S
H1430 C1446 0.931 . S
C1431 H1419 0.929 . S
C1431 C1425 1.390 . S
C1431 C1428 1.386 . S
C1432 C1427 1.490 . S
C1432 C1434 1.395 . S
C1432 C1435 1.403 . S
H1433 C1439 0.930 . S
C1434 H1420 0.930 . S
C1434 C1432 1.395 . S
C1434 C1437 1.403 . S
C1435 C1432 1.403 . S
C1435 C1436 1.524 . S
C1435 C1439 1.400 . S
C1436 H1421 0.960 . S
C1436 H1422 0.960 . S
C1436 H1423 0.960 . S
C1436 C1435 1.524 . S
C1437 C1434 1.403 . S
C1437 C1438 1.392 . S
C1437 C1441 1.495 . S
C1438 C1437 1.392 . S
C1438 C1439 1.385 . S
C1438 C1440 1.478 . S
C1439 H1433 0.930 . S
C1439 C1435 1.400 . S
C1439 C1438 1.385 . S
C1440 C1438 1.478 . S
C1440 C1442 1.381 . S
C1440 C1446 1.383 . S
C1441 C1437 1.495 . S
C1441 H1447 0.959 . S
C1441 H1448 0.961 . S
C1441 H1449 0.960 . S
C1442 C1440 1.381 . S
C1442 C1443 1.394 . S
C1442 H1450 0.930 . S
C1443 C1442 1.394 . S
C1443 C1444 1.383 . S
C1443 H1451 0.929 . S
C1444 C1443 1.383 . S
C1444 C1445 1.377 . S
C1445 H1429 0.930 . S
C1445 C1444 1.377 . S
C1445 C1446 1.379 . S
C1446 H1430 0.931 . S
C1446 C1440 1.383 . S
C1446 C1445 1.379 . S
H1447 C1441 0.959 . S
H1448 C1441 0.961 . S
H1449 C1441 0.960 . S
H1450 C1442 0.930 . S
H1451 C1443 0.929 . S
H1452 C1460 0.929 . S
H1453 C1462 0.930 . S
H1454 C1464 0.930 . S
H1455 C1467 0.929 . S
H1456 C1470 0.924 1_455 S
H1457 C1472 0.960 . S
H1458 C1472 0.960 . S
H1459 C1472 0.960 . S
C1460 H1452 0.929 . S
C1460 C1461 1.377 . S
C1460 C1462 1.384 . S
C1461 C1460 1.377 . S
C1461 C1467 1.390 1_655 S
C1462 H1453 0.930 . S
C1462 C1460 1.384 . S
C1462 C1463 1.372 . S
C1463 C1462 1.372 . S
C1463 C1464 1.400 1_655 S
C1463 C1468 1.490 . S
C1464 H1454 0.930 . S
C1464 C1463 1.400 1_455 S
C1464 C1467 1.386 . S
H1465 C1481 0.930 . S
H1466 C1482 0.931 . S
C1467 H1455 0.929 . S
C1467 C1461 1.390 1_455 S
C1467 C1464 1.386 . S
C1468 C1463 1.490 . S
C1468 C1470 1.395 . S
C1468 C1471 1.403 1_556 S
H1469 C1475 0.930 . S
C1470 H1456 0.924 1_655 S
C1470 C1468 1.395 . S
C1470 C1473 1.405 . S
C1471 C1468 1.403 1_554 S
C1471 C1472 1.524 . S
C1471 C1475 1.400 . S
C1472 H1457 0.960 . S
C1472 H1458 0.960 . S
C1472 H1459 0.960 . S
C1472 C1471 1.524 . S
C1473 C1470 1.405 . S
C1473 C1474 1.397 1_556 S
C1473 C1477 1.490 1_655 S
C1474 C1473 1.397 1_554 S
C1474 C1475 1.385 . S
C1474 C1476 1.478 . S
C1475 H1469 0.930 . S
C1475 C1471 1.400 . S
C1475 C1474 1.385 . S
C1476 C1474 1.478 . S
C1476 C1478 1.381 . S
C1476 C1482 1.383 1_655 S
C1477 C1473 1.490 1_455 S
C1477 H1483 0.959 . S
C1477 H1484 0.961 . S
C1477 H1485 0.960 1_455 S
C1478 C1476 1.381 . S
C1478 C1479 1.394 . S
C1478 H1486 0.930 . S
C1479 C1478 1.394 . S
C1479 C1480 1.383 . S
C1479 H1487 0.929 . S
C1480 C1479 1.383 . S
C1480 C1481 1.377 1_655 S
C1481 H1465 0.930 . S
C1481 C1480 1.377 1_455 S
C1481 C1482 1.379 . S
C1482 H1466 0.931 . S
C1482 C1476 1.383 1_455 S
C1482 C1481 1.379 . S
H1483 C1477 0.959 . S
H1484 C1477 0.961 . S
H1485 C1477 0.960 1_655 S
H1486 C1478 0.930 . S
H1487 C1479 0.929 . S
H1488 C1496 0.929 . S
H1489 C1498 0.930 . S
H1490 C1500 0.930 . S
H1491 C1503 0.929 . S
H1492 C1506 0.930 . S
H1493 C1508 0.960 . S
H1494 C1508 0.960 . S
H1495 C1508 0.960 . S
C1496 H1488 0.929 . S
C1496 C1497 1.377 . S
C1496 C1498 1.384 . S
C1497 C1496 1.377 . S
C1497 C1503 1.390 . S
C1498 H1489 0.930 . S
C1498 C1496 1.384 . S
C1498 C1499 1.372 . S
C1499 C1498 1.372 . S
C1499 C1500 1.400 . S
C1499 C1504 1.490 . S
C1500 H1490 0.930 . S
C1500 C1499 1.400 . S
C1500 C1503 1.386 . S
H1501 C1517 0.930 . S
H1502 C1518 0.931 . S
C1503 H1491 0.929 . S
C1503 C1497 1.390 . S
C1503 C1500 1.386 . S
C1504 C1499 1.490 . S
C1504 C1506 1.395 . S
C1504 C1507 1.403 . S
H1505 C1511 0.930 . S
C1506 H1492 0.930 . S
C1506 C1504 1.395 . S
C1506 C1509 1.403 . S
C1507 C1504 1.403 . S
C1507 C1508 1.524 . S
C1507 C1511 1.400 . S
C1508 H1493 0.960 . S
C1508 H1494 0.960 . S
C1508 H1495 0.960 . S
C1508 C1507 1.524 . S
C1509 C1506 1.403 . S
C1509 C1510 1.392 . S
C1509 C1513 1.495 . S
C1510 C1509 1.392 . S
C1510 C1511 1.385 . S
C1510 C1512 1.478 . S
C1511 H1505 0.930 . S
C1511 C1507 1.400 . S
C1511 C1510 1.385 . S
C1512 C1510 1.478 . S
C1512 C1514 1.381 . S
C1512 C1518 1.383 . S
C1513 C1509 1.495 . S
C1513 H1519 0.959 . S
C1513 H1520 0.961 . S
C1513 H1521 0.960 . S
C1514 C1512 1.381 . S
C1514 C1515 1.394 . S
C1514 H1522 0.930 . S
C1515 C1514 1.394 . S
C1515 C1516 1.383 . S
C1515 H1523 0.929 . S
C1516 C1515 1.383 . S
C1516 C1517 1.377 . S
C1517 H1501 0.930 . S
C1517 C1516 1.377 . S
C1517 C1518 1.379 . S
C1518 H1502 0.931 . S
C1518 C1512 1.383 . S
C1518 C1517 1.379 . S
H1519 C1513 0.959 . S
H1520 C1513 0.961 . S
H1521 C1513 0.960 . S
H1522 C1514 0.930 . S
H1523 C1515 0.929 . S
H1524 C1532 0.929 . S
H1525 C1534 0.930 . S
H1526 C1536 0.930 . S
H1527 C1539 0.929 . S
H1528 C1542 0.930 . S
H1529 C1544 0.960 . S
H1530 C1544 0.960 . S
H1531 C1544 0.960 . S
C1532 H1524 0.929 . S
C1532 C1533 1.377 . S
C1532 C1534 1.384 . S
C1533 C1532 1.377 . S
C1533 C1539 1.390 . S
C1534 H1525 0.930 . S
C1534 C1532 1.384 . S
C1534 C1535 1.372 . S
C1535 C1534 1.372 . S
C1535 C1536 1.400 . S
C1535 C1540 1.490 . S
C1536 H1526 0.930 . S
C1536 C1535 1.400 . S
C1536 C1539 1.386 . S
H1537 C1553 0.930 . S
H1538 C1554 0.931 . S
C1539 H1527 0.929 . S
C1539 C1533 1.390 . S
C1539 C1536 1.386 . S
C1540 C1535 1.490 . S
C1540 C1542 1.395 . S
C1540 C1543 1.403 . S
H1541 C1547 0.930 . S
C1542 H1528 0.930 . S
C1542 C1540 1.395 . S
C1542 C1545 1.403 . S
C1543 C1540 1.403 . S
C1543 C1544 1.524 . S
C1543 C1547 1.400 . S
C1544 H1529 0.960 . S
C1544 H1530 0.960 . S
C1544 H1531 0.960 . S
C1544 C1543 1.524 . S
C1545 C1542 1.403 . S
C1545 C1546 1.392 . S
C1545 C1549 1.495 . S
C1546 C1545 1.392 . S
C1546 C1547 1.385 . S
C1546 C1548 1.478 . S
C1547 H1541 0.930 . S
C1547 C1543 1.400 . S
C1547 C1546 1.385 . S
C1548 C1546 1.478 . S
C1548 C1550 1.381 . S
C1548 C1554 1.383 . S
C1549 C1545 1.495 . S
C1549 H1555 0.959 . S
C1549 H1556 0.961 . S
C1549 H1557 0.960 . S
C1550 C1548 1.381 . S
C1550 C1551 1.394 . S
C1550 H1558 0.930 . S
C1551 C1550 1.394 . S
C1551 C1552 1.383 . S
C1551 H1559 0.929 . S
C1552 C1551 1.383 . S
C1552 C1553 1.377 . S
C1553 H1537 0.930 . S
C1553 C1552 1.377 . S
C1553 C1554 1.379 . S
C1554 H1538 0.931 . S
C1554 C1548 1.383 . S
C1554 C1553 1.379 . S
H1555 C1549 0.959 . S
H1556 C1549 0.961 . S
H1557 C1549 0.960 . S
H1558 C1550 0.930 . S
H1559 C1551 0.929 . S
H1560 C1568 0.929 . S
H1561 C1570 0.930 . S
H1562 C1572 0.930 . S
H1563 C1575 0.929 . S
H1564 C1578 0.930 . S
H1565 C1580 0.960 . S
H1566 C1580 0.960 . S
H1567 C1580 0.960 . S
C1568 H1560 0.929 . S
C1568 C1569 1.377 . S
C1568 C1570 1.384 1_554 S
C1569 C1568 1.377 . S
C1569 C1575 1.390 1_554 S
C1570 H1561 0.930 . S
C1570 C1568 1.384 1_556 S
C1570 C1571 1.372 . S
C1571 C1570 1.372 . S
C1571 C1572 1.400 . S
C1571 C1576 1.490 . S
C1572 H1562 0.930 . S
C1572 C1571 1.400 . S
C1572 C1575 1.386 . S
H1573 C1589 0.930 . S
H1574 C1590 0.931 . S
C1575 H1563 0.929 . S
C1575 C1569 1.390 1_556 S
C1575 C1572 1.386 . S
C1576 C1571 1.490 . S
C1576 C1578 1.395 . S
C1576 C1579 1.403 . S
H1577 C1583 0.930 . S
C1578 H1564 0.930 . S
C1578 C1576 1.395 . S
C1578 C1581 1.403 . S
C1579 C1576 1.403 . S
C1579 C1580 1.524 . S
C1579 C1583 1.400 . S
C1580 H1565 0.960 . S
C1580 H1566 0.960 . S
C1580 H1567 0.960 . S
C1580 C1579 1.524 . S
C1581 C1578 1.403 . S
C1581 C1582 1.392 . S
C1581 C1585 1.495 . S
C1582 C1581 1.392 . S
C1582 C1583 1.385 . S
C1582 C1584 1.478 . S
C1583 H1577 0.930 . S
C1583 C1579 1.400 . S
C1583 C1582 1.385 . S
C1584 C1582 1.478 . S
C1584 C1586 1.381 . S
C1584 C1590 1.383 . S
C1585 C1581 1.495 . S
C1585 H1591 0.959 . S
C1585 H1592 0.961 . S
C1585 H1593 0.960 . S
C1586 C1584 1.381 . S
C1586 C1587 1.394 . S
C1586 H1594 0.930 . S
C1587 C1586 1.394 . S
C1587 C1588 1.383 . S
C1587 H1595 0.929 . S
C1588 C1587 1.383 . S
C1588 C1589 1.377 . S
C1589 H1573 0.930 . S
C1589 C1588 1.377 . S
C1589 C1590 1.379 . S
C1590 H1574 0.931 . S
C1590 C1584 1.383 . S
C1590 C1589 1.379 . S
H1591 C1585 0.959 . S
H1592 C1585 0.961 . S
H1593 C1585 0.960 . S
H1594 C1586 0.930 . S
H1595 C1587 0.929 . S
H1596 C1604 0.929 . S
H1597 C1606 0.930 . S
H1598 C1608 0.930 . S
H1599 C1611 0.929 . S
H1600 C1614 0.930 . S
H1601 C1616 0.960 . S
H1602 C1616 0.960 . S
H1603 C1616 0.960 . S
C1604 H1596 0.929 . S
C1604 C1605 1.377 . S
C1604 C1606 1.384 . S
C1605 C1604 1.377 . S
C1605 C1611 1.390 . S
C1606 H1597 0.930 . S
C1606 C1604 1.384 . S
C1606 C1607 1.372 . S
C1607 C1606 1.372 . S
C1607 C1608 1.400 . S
C1607 C1612 1.490 . S
C1608 H1598 0.930 . S
C1608 C1607 1.400 . S
C1608 C1611 1.386 . S
H1609 C1625 0.930 . S
H1610 C1626 0.931 . S
C1611 H1599 0.929 . S
C1611 C1605 1.390 . S
C1611 C1608 1.386 . S
C1612 C1607 1.490 . S
C1612 C1614 1.395 . S
C1612 C1615 1.403 . S
H1613 C1619 0.930 . S
C1614 H1600 0.930 . S
C1614 C1612 1.395 . S
C1614 C1617 1.403 . S
C1615 C1612 1.403 . S
C1615 C1616 1.524 . S
C1615 C1619 1.400 . S
C1616 H1601 0.960 . S
C1616 H1602 0.960 . S
C1616 H1603 0.960 . S
C1616 C1615 1.524 . S
C1617 C1614 1.403 . S
C1617 C1618 1.392 . S
C1617 C1621 1.495 . S
C1618 C1617 1.392 . S
C1618 C1619 1.385 . S
C1618 C1620 1.478 . S
C1619 H1613 0.930 . S
C1619 C1615 1.400 . S
C1619 C1618 1.385 . S
C1620 C1618 1.478 . S
C1620 C1622 1.381 . S
C1620 C1626 1.383 . S
C1621 C1617 1.495 . S
C1621 H1627 0.959 . S
C1621 H1628 0.961 . S
C1621 H1629 0.960 . S
C1622 C1620 1.381 . S
C1622 C1623 1.394 1_554 S
C1622 H1630 0.930 . S
C1623 C1622 1.394 1_556 S
C1623 C1624 1.383 . S
C1623 H1631 0.929 . S
C1624 C1623 1.383 . S
C1624 C1625 1.377 1_556 S
C1625 H1609 0.930 . S
C1625 C1624 1.377 1_554 S
C1625 C1626 1.379 . S
C1626 H1610 0.931 . S
C1626 C1620 1.383 . S
C1626 C1625 1.379 . S
H1627 C1621 0.959 . S
H1628 C1621 0.961 . S
H1629 C1621 0.960 . S
H1630 C1622 0.930 . S
H1631 C1623 0.929 . S
H1632 C1640 0.929 . S
H1633 C1642 0.930 . S
H1634 C1644 0.930 . S
H1635 C1647 0.929 . S
H1636 C1650 0.930 . S
H1637 C1652 0.960 . S
H1638 C1652 0.960 . S
H1639 C1652 0.960 . S
C1640 H1632 0.929 . S
C1640 C1641 1.377 . S
C1640 C1642 1.384 . S
C1641 C1640 1.377 . S
C1641 C1647 1.390 . S
C1642 H1633 0.930 . S
C1642 C1640 1.384 . S
C1642 C1643 1.372 . S
C1643 C1642 1.372 . S
C1643 C1644 1.400 . S
C1643 C1648 1.490 . S
C1644 H1634 0.930 . S
C1644 C1643 1.400 . S
C1644 C1647 1.386 . S
H1645 C1661 0.930 . S
H1646 C1662 0.931 . S
C1647 H1635 0.929 . S
C1647 C1641 1.390 . S
C1647 C1644 1.386 . S
C1648 C1643 1.490 . S
C1648 C1650 1.395 . S
C1648 C1651 1.403 . S
H1649 C1655 0.930 . S
C1650 H1636 0.930 . S
C1650 C1648 1.395 . S
C1650 C1653 1.403 . S
C1651 C1648 1.403 . S
C1651 C1652 1.524 . S
C1651 C1655 1.400 . S
C1652 H1637 0.960 . S
C1652 H1638 0.960 . S
C1652 H1639 0.960 . S
C1652 C1651 1.524 . S
C1653 C1650 1.403 . S
C1653 C1654 1.392 . S
C1653 C1657 1.495 . S
C1654 C1653 1.392 . S
C1654 C1655 1.385 . S
C1654 C1656 1.478 . S
C1655 H1649 0.930 . S
C1655 C1651 1.400 . S
C1655 C1654 1.385 . S
C1656 C1654 1.478 . S
C1656 C1658 1.381 . S
C1656 C1662 1.383 . S
C1657 C1653 1.495 . S
C1657 H1663 0.959 . S
C1657 H1664 0.961 . S
C1657 H1665 0.960 . S
C1658 C1656 1.381 . S
C1658 C1659 1.394 . S
C1658 H1666 0.930 . S
C1659 C1658 1.394 . S
C1659 C1660 1.383 . S
C1659 H1667 0.929 . S
C1660 C1659 1.383 . S
C1660 C1661 1.377 . S
C1661 H1645 0.930 . S
C1661 C1660 1.377 . S
C1661 C1662 1.379 . S
C1662 H1646 0.931 . S
C1662 C1656 1.383 . S
C1662 C1661 1.379 . S
H1663 C1657 0.959 . S
H1664 C1657 0.961 . S
H1665 C1657 0.960 . S
H1666 C1658 0.930 . S
H1667 C1659 0.929 . S
H1668 C1676 0.929 . S
H1669 C1678 0.930 . S
H1670 C1680 0.930 . S
H1671 C1683 0.929 . S
H1672 C1686 0.930 . S
H1673 C1688 0.960 . S
H1674 C1688 0.960 . S
H1675 C1688 0.960 . S
C1676 H1668 0.929 . S
C1676 C1677 1.377 . S
C1676 C1678 1.384 . S
C1677 C1676 1.377 . S
C1677 C1683 1.390 . S
C1678 H1669 0.930 . S
C1678 C1676 1.384 . S
C1678 C1679 1.372 . S
C1679 C1678 1.372 . S
C1679 C1680 1.400 . S
C1679 C1684 1.490 . S
C1680 H1670 0.930 . S
C1680 C1679 1.400 . S
C1680 C1683 1.386 . S
H1681 C1697 0.930 . S
H1682 C1698 0.931 . S
C1683 H1671 0.929 . S
C1683 C1677 1.390 . S
C1683 C1680 1.386 . S
C1684 C1679 1.490 . S
C1684 C1686 1.395 . S
C1684 C1687 1.403 . S
H1685 C1691 0.930 . S
C1686 H1672 0.930 . S
C1686 C1684 1.395 . S
C1686 C1689 1.403 . S
C1687 C1684 1.403 . S
C1687 C1688 1.524 . S
C1687 C1691 1.400 . S
C1688 H1673 0.960 . S
C1688 H1674 0.960 . S
C1688 H1675 0.960 . S
C1688 C1687 1.524 . S
C1689 C1686 1.403 . S
C1689 C1690 1.392 . S
C1689 C1693 1.495 . S
C1690 C1689 1.392 . S
C1690 C1691 1.385 . S
C1690 C1692 1.478 . S
C1691 H1685 0.930 . S
C1691 C1687 1.400 . S
C1691 C1690 1.385 . S
C1692 C1690 1.478 . S
C1692 C1694 1.381 . S
C1692 C1698 1.383 . S
C1693 C1689 1.495 . S
C1693 H1699 0.959 . S
C1693 H1700 0.961 . S
C1693 H1701 0.960 . S
C1694 C1692 1.381 . S
C1694 C1695 1.394 . S
C1694 H1702 0.930 . S
C1695 C1694 1.394 . S
C1695 C1696 1.383 . S
C1695 H1703 0.929 . S
C1696 C1695 1.383 . S
C1696 C1697 1.377 . S
C1697 H1681 0.930 . S
C1697 C1696 1.377 . S
C1697 C1698 1.379 . S
C1698 H1682 0.931 . S
C1698 C1692 1.383 . S
C1698 C1697 1.379 . S
H1699 C1693 0.959 . S
H1700 C1693 0.961 . S
H1701 C1693 0.960 . S
H1702 C1694 0.930 . S
H1703 C1695 0.929 . S
H1704 C1712 0.929 . S
H1705 C1714 0.930 . S
H1706 C1716 0.930 . S
H1707 C1719 0.929 . S
H1708 C1722 0.930 . S
H1709 C1724 0.960 . S
H1710 C1724 0.960 . S
H1711 C1724 0.960 . S
C1712 H1704 0.929 . S
C1712 C1713 1.377 1_554 S
C1712 C1714 1.384 . S
C1713 C1712 1.377 1_556 S
C1713 C1719 1.390 . S
C1714 H1705 0.930 . S
C1714 C1712 1.384 . S
C1714 C1715 1.372 . S
C1715 C1714 1.372 . S
C1715 C1716 1.400 . S
C1715 C1720 1.490 . S
C1716 H1706 0.930 . S
C1716 C1715 1.400 . S
C1716 C1719 1.386 1_554 S
H1717 C1733 0.930 . S
H1718 C1734 0.931 . S
C1719 H1707 0.929 . S
C1719 C1713 1.390 . S
C1719 C1716 1.386 1_556 S
C1720 C1715 1.490 . S
C1720 C1722 1.395 . S
C1720 C1723 1.403 . S
H1721 C1727 0.930 . S
C1722 H1708 0.930 . S
C1722 C1720 1.395 . S
C1722 C1725 1.403 . S
C1723 C1720 1.403 . S
C1723 C1724 1.524 . S
C1723 C1727 1.400 . S
C1724 H1709 0.960 . S
C1724 H1710 0.960 . S
C1724 H1711 0.960 . S
C1724 C1723 1.524 . S
C1725 C1722 1.403 . S
C1725 C1726 1.392 . S
C1725 C1729 1.495 . S
C1726 C1725 1.392 . S
C1726 C1727 1.385 . S
C1726 C1728 1.478 . S
C1727 H1721 0.930 . S
C1727 C1723 1.400 . S
C1727 C1726 1.385 . S
C1728 C1726 1.478 . S
C1728 C1730 1.381 . S
C1728 C1734 1.383 . S
C1729 C1725 1.495 . S
C1729 H1735 0.959 . S
C1729 H1736 0.961 . S
C1729 H1737 0.960 . S
C1730 C1728 1.381 . S
C1730 C1731 1.394 . S
C1730 H1738 0.930 . S
C1731 C1730 1.394 . S
C1731 C1732 1.383 . S
C1731 H1739 0.929 . S
C1732 C1731 1.383 . S
C1732 C1733 1.377 . S
C1733 H1717 0.930 . S
C1733 C1732 1.377 . S
C1733 C1734 1.379 . S
C1734 H1718 0.931 . S
C1734 C1728 1.383 . S
C1734 C1733 1.379 . S
H1735 C1729 0.959 . S
H1736 C1729 0.961 . S
H1737 C1729 0.960 . S
H1738 C1730 0.930 . S
H1739 C1731 0.929 . S
H1740 C1748 0.929 . S
H1741 C1750 0.930 . S
H1742 C1752 0.930 . S
H1743 C1755 0.929 . S
H1744 C1758 0.930 . S
H1745 C1760 0.960 . S
H1746 C1760 0.960 . S
H1747 C1760 0.960 . S
C1748 H1740 0.929 . S
C1748 C1749 1.377 . S
C1748 C1750 1.384 . S
C1749 C1748 1.377 . S
C1749 C1755 1.390 . S
C1750 H1741 0.930 . S
C1750 C1748 1.384 . S
C1750 C1751 1.372 . S
C1751 C1750 1.372 . S
C1751 C1752 1.400 . S
C1751 C1756 1.490 . S
C1752 H1742 0.930 . S
C1752 C1751 1.400 . S
C1752 C1755 1.386 . S
H1753 C1769 0.930 . S
H1754 C1770 0.931 . S
C1755 H1743 0.929 . S
C1755 C1749 1.390 . S
C1755 C1752 1.386 . S
C1756 C1751 1.490 . S
C1756 C1758 1.395 . S
C1756 C1759 1.403 . S
H1757 C1763 0.930 . S
C1758 H1744 0.930 . S
C1758 C1756 1.395 . S
C1758 C1761 1.403 . S
C1759 C1756 1.403 . S
C1759 C1760 1.524 . S
C1759 C1763 1.400 . S
C1760 H1745 0.960 . S
C1760 H1746 0.960 . S
C1760 H1747 0.960 . S
C1760 C1759 1.524 . S
C1761 C1758 1.403 . S
C1761 C1762 1.392 . S
C1761 C1765 1.495 . S
C1762 C1761 1.392 . S
C1762 C1763 1.385 . S
C1762 C1764 1.478 . S
C1763 H1757 0.930 . S
C1763 C1759 1.400 . S
C1763 C1762 1.385 . S
C1764 C1762 1.478 . S
C1764 C1766 1.381 . S
C1764 C1770 1.383 . S
C1765 C1761 1.495 . S
C1765 H1771 0.959 . S
C1765 H1772 0.961 . S
C1765 H1773 0.960 . S
C1766 C1764 1.381 . S
C1766 C1767 1.394 . S
C1766 H1774 0.930 . S
C1767 C1766 1.394 . S
C1767 C1768 1.383 1_556 S
C1767 H1775 0.929 . S
C1768 C1767 1.383 1_554 S
C1768 C1769 1.377 . S
C1769 H1753 0.930 . S
C1769 C1768 1.377 . S
C1769 C1770 1.379 1_554 S
C1770 H1754 0.931 . S
C1770 C1764 1.383 . S
C1770 C1769 1.379 1_556 S
H1771 C1765 0.959 . S
H1772 C1765 0.961 . S
H1773 C1765 0.960 . S
H1774 C1766 0.930 . S
H1775 C1767 0.929 . S
H1776 C1784 0.929 . S
H1777 C1786 0.930 . S
H1778 C1788 0.930 . S
H1779 C1791 0.929 . S
H1780 C1794 0.930 . S
H1781 C1796 0.960 . S
H1782 C1796 0.960 . S
H1783 C1796 0.960 . S
C1784 H1776 0.929 . S
C1784 C1785 1.377 . S
C1784 C1786 1.384 . S
C1785 C1784 1.377 . S
C1785 C1791 1.390 . S
C1786 H1777 0.930 . S
C1786 C1784 1.384 . S
C1786 C1787 1.372 . S
C1787 C1786 1.372 . S
C1787 C1788 1.400 . S
C1787 C1792 1.490 . S
C1788 H1778 0.930 . S
C1788 C1787 1.400 . S
C1788 C1791 1.386 . S
H1789 C1805 0.930 1_554 S
H1790 C1806 0.931 . S
C1791 H1779 0.929 . S
C1791 C1785 1.390 . S
C1791 C1788 1.386 . S
C1792 C1787 1.490 . S
C1792 C1794 1.395 . S
C1792 C1795 1.403 . S
H1793 C1799 0.930 . S
C1794 H1780 0.930 . S
C1794 C1792 1.395 . S
C1794 C1797 1.403 . S
C1795 C1792 1.403 . S
C1795 C1796 1.524 . S
C1795 C1799 1.400 . S
C1796 H1781 0.960 . S
C1796 H1782 0.960 . S
C1796 H1783 0.960 . S
C1796 C1795 1.524 . S
C1797 C1794 1.403 . S
C1797 C1798 1.392 . S
C1797 C1801 1.495 . S
C1798 C1797 1.392 . S
C1798 C1799 1.385 . S
C1798 C1800 1.478 . S
C1799 H1793 0.930 . S
C1799 C1795 1.400 . S
C1799 C1798 1.385 . S
C1800 C1798 1.478 . S
C1800 C1802 1.381 . S
C1800 C1806 1.383 . S
C1801 C1797 1.495 . S
C1801 H1807 0.959 . S
C1801 H1808 0.961 . S
C1801 H1809 0.960 . S
C1802 C1800 1.381 . S
C1802 C1803 1.394 . S
C1802 H1810 0.930 . S
C1803 C1802 1.394 . S
C1803 C1804 1.383 1_556 S
C1803 H1811 0.929 1_556 S
C1804 C1803 1.383 1_554 S
C1804 C1805 1.377 1_554 S
C1805 H1789 0.930 1_556 S
C1805 C1804 1.377 1_556 S
C1805 C1806 1.379 . S
C1806 H1790 0.931 . S
C1806 C1800 1.383 . S
C1806 C1805 1.379 . S
H1807 C1801 0.959 . S
H1808 C1801 0.961 . S
H1809 C1801 0.960 . S
H1810 C1802 0.930 . S
H1811 C1803 0.929 1_554 S
H1812 C1820 0.929 . S
H1813 C1822 0.930 . S
H1814 C1824 0.930 . S
H1815 C1827 0.929 . S
H1816 C1830 0.930 . S
H1817 C1832 0.960 . S
H1818 C1832 0.960 . S
H1819 C1832 0.960 . S
C1820 H1812 0.929 . S
C1820 C1821 1.377 . S
C1820 C1822 1.384 . S
C1821 C1820 1.377 . S
C1821 C1827 1.390 . S
C1822 H1813 0.930 . S
C1822 C1820 1.384 . S
C1822 C1823 1.372 . S
C1823 C1822 1.372 . S
C1823 C1824 1.400 . S
C1823 C1828 1.490 . S
C1824 H1814 0.930 . S
C1824 C1823 1.400 . S
C1824 C1827 1.386 . S
H1825 C1841 0.930 . S
H1826 C1842 0.931 . S
C1827 H1815 0.929 . S
C1827 C1821 1.390 . S
C1827 C1824 1.386 . S
C1828 C1823 1.490 . S
C1828 C1830 1.395 . S
C1828 C1831 1.403 . S
H1829 C1835 0.930 . S
C1830 H1816 0.930 . S
C1830 C1828 1.395 . S
C1830 C1833 1.403 . S
C1831 C1828 1.403 . S
C1831 C1832 1.524 . S
C1831 C1835 1.400 . S
C1832 H1817 0.960 . S
C1832 H1818 0.960 . S
C1832 H1819 0.960 . S
C1832 C1831 1.524 . S
C1833 C1830 1.403 . S
C1833 C1834 1.392 . S
C1833 C1837 1.495 . S
C1834 C1833 1.392 . S
C1834 C1835 1.385 . S
C1834 C1836 1.478 . S
C1835 H1829 0.930 . S
C1835 C1831 1.400 . S
C1835 C1834 1.385 . S
C1836 C1834 1.478 . S
C1836 C1838 1.381 . S
C1836 C1842 1.383 . S
C1837 C1833 1.495 . S
C1837 H1843 0.959 . S
C1837 H1844 0.961 . S
C1837 H1845 0.960 . S
C1838 C1836 1.381 . S
C1838 C1839 1.394 1_554 S
C1838 H1846 0.930 . S
C1839 C1838 1.394 1_556 S
C1839 C1840 1.383 . S
C1839 H1847 0.929 . S
C1840 C1839 1.383 . S
C1840 C1841 1.377 1_556 S
C1841 H1825 0.930 . S
C1841 C1840 1.377 1_554 S
C1841 C1842 1.379 . S
C1842 H1826 0.931 . S
C1842 C1836 1.383 . S
C1842 C1841 1.379 . S
H1843 C1837 0.959 . S
H1844 C1837 0.961 . S
H1845 C1837 0.960 . S
H1846 C1838 0.930 . S
H1847 C1839 0.929 . S
H1848 C1856 0.929 . S
H1849 C1858 0.930 . S
H1850 C1860 0.930 . S
H1851 C1863 0.929 . S
H1852 C1866 0.930 . S
H1853 C1868 0.960 . S
H1854 C1868 0.960 . S
H1855 C1868 0.960 . S
C1856 H1848 0.929 . S
C1856 C1857 1.377 . S
C1856 C1858 1.384 . S
C1857 C1856 1.377 . S
C1857 C1863 1.390 . S
C1858 H1849 0.930 . S
C1858 C1856 1.384 . S
C1858 C1859 1.372 . S
C1859 C1858 1.372 . S
C1859 C1860 1.400 . S
C1859 C1864 1.490 . S
C1860 H1850 0.930 . S
C1860 C1859 1.400 . S
C1860 C1863 1.386 . S
H1861 C1877 0.930 . S
H1862 C1878 0.931 . S
C1863 H1851 0.929 . S
C1863 C1857 1.390 . S
C1863 C1860 1.386 . S
C1864 C1859 1.490 . S
C1864 C1866 1.395 . S
C1864 C1867 1.403 . S
H1865 C1871 0.930 . S
C1866 H1852 0.930 . S
C1866 C1864 1.395 . S
C1866 C1869 1.403 . S
C1867 C1864 1.403 . S
C1867 C1868 1.524 . S
C1867 C1871 1.400 . S
C1868 H1853 0.960 . S
C1868 H1854 0.960 . S
C1868 H1855 0.960 . S
C1868 C1867 1.524 . S
C1869 C1866 1.403 . S
C1869 C1870 1.392 . S
C1869 C1873 1.495 . S
C1870 C1869 1.392 . S
C1870 C1871 1.385 . S
C1870 C1872 1.478 . S
C1871 H1865 0.930 . S
C1871 C1867 1.400 . S
C1871 C1870 1.385 . S
C1872 C1870 1.478 . S
C1872 C1874 1.381 . S
C1872 C1878 1.383 . S
C1873 C1869 1.495 . S
C1873 H1879 0.959 . S
C1873 H1880 0.961 . S
C1873 H1881 0.960 . S
C1874 C1872 1.381 . S
C1874 C1875 1.394 . S
C1874 H1882 0.930 . S
C1875 C1874 1.394 . S
C1875 C1876 1.383 . S
C1875 H1883 0.929 . S
C1876 C1875 1.383 . S
C1876 C1877 1.377 . S
C1877 H1861 0.930 . S
C1877 C1876 1.377 . S
C1877 C1878 1.379 . S
C1878 H1862 0.931 . S
C1878 C1872 1.383 . S
C1878 C1877 1.379 . S
H1879 C1873 0.959 . S
H1880 C1873 0.961 . S
H1881 C1873 0.960 . S
H1882 C1874 0.930 . S
H1883 C1875 0.929 . S
H1884 C1892 0.929 . S
H1885 C1894 0.930 . S
H1886 C1896 0.930 . S
H1887 C1899 0.929 . S
H1888 C1902 0.930 . S
H1889 C1904 0.960 . S
H1890 C1904 0.960 . S
H1891 C1904 0.960 . S
C1892 H1884 0.929 . S
C1892 C1893 1.377 . S
C1892 C1894 1.384 . S
C1893 C1892 1.377 . S
C1893 C1899 1.390 . S
C1894 H1885 0.930 . S
C1894 C1892 1.384 . S
C1894 C1895 1.372 . S
C1895 C1894 1.372 . S
C1895 C1896 1.400 . S
C1895 C1900 1.490 . S
C1896 H1886 0.930 . S
C1896 C1895 1.400 . S
C1896 C1899 1.386 . S
H1897 C1913 0.930 . S
H1898 C1914 0.931 . S
C1899 H1887 0.929 . S
C1899 C1893 1.390 . S
C1899 C1896 1.386 . S
C1900 C1895 1.490 . S
C1900 C1902 1.395 . S
C1900 C1903 1.403 . S
H1901 C1907 0.930 . S
C1902 H1888 0.930 . S
C1902 C1900 1.395 . S
C1902 C1905 1.403 . S
C1903 C1900 1.403 . S
C1903 C1904 1.524 . S
C1903 C1907 1.400 . S
C1904 H1889 0.960 . S
C1904 H1890 0.960 . S
C1904 H1891 0.960 . S
C1904 C1903 1.524 . S
C1905 C1902 1.403 . S
C1905 C1906 1.392 . S
C1905 C1909 1.495 . S
C1906 C1905 1.392 . S
C1906 C1907 1.385 . S
C1906 C1908 1.478 . S
C1907 H1901 0.930 . S
C1907 C1903 1.400 . S
C1907 C1906 1.385 . S
C1908 C1906 1.478 . S
C1908 C1910 1.381 . S
C1908 C1914 1.383 . S
C1909 C1905 1.495 . S
C1909 H1915 0.959 . S
C1909 H1916 0.961 . S
C1909 H1917 0.960 . S
C1910 C1908 1.381 . S
C1910 C1911 1.394 . S
C1910 H1918 0.930 . S
C1911 C1910 1.394 . S
C1911 C1912 1.383 . S
C1911 H1919 0.929 . S
C1912 C1911 1.383 . S
C1912 C1913 1.377 . S
C1913 H1897 0.930 . S
C1913 C1912 1.377 . S
C1913 C1914 1.379 . S
C1914 H1898 0.931 . S
C1914 C1908 1.383 . S
C1914 C1913 1.379 . S
H1915 C1909 0.959 . S
H1916 C1909 0.961 . S
H1917 C1909 0.960 . S
H1918 C1910 0.930 . S
H1919 C1911 0.929 . S
H1920 C1928 0.929 . S
H1921 C1930 0.930 . S
H1922 C1932 0.930 . S
H1923 C1935 0.929 . S
H1924 C1938 0.930 . S
H1925 C1940 0.960 . S
H1926 C1940 0.960 . S
H1927 C1940 0.960 . S
C1928 H1920 0.929 . S
C1928 C1929 1.377 . S
C1928 C1930 1.384 . S
C1929 C1928 1.377 . S
C1929 C1935 1.390 . S
C1930 H1921 0.930 . S
C1930 C1928 1.384 . S
C1930 C1931 1.372 . S
C1931 C1930 1.372 . S
C1931 C1932 1.400 . S
C1931 C1936 1.490 . S
C1932 H1922 0.930 . S
C1932 C1931 1.400 . S
C1932 C1935 1.386 . S
H1933 C1949 0.930 . S
H1934 C1950 0.931 . S
C1935 H1923 0.929 . S
C1935 C1929 1.390 . S
C1935 C1932 1.386 . S
C1936 C1931 1.490 . S
C1936 C1938 1.395 . S
C1936 C1939 1.403 . S
H1937 C1943 0.930 . S
C1938 H1924 0.930 . S
C1938 C1936 1.395 . S
C1938 C1941 1.403 . S
C1939 C1936 1.403 . S
C1939 C1940 1.524 . S
C1939 C1943 1.400 . S
C1940 H1925 0.960 . S
C1940 H1926 0.960 . S
C1940 H1927 0.960 . S
C1940 C1939 1.524 . S
C1941 C1938 1.403 . S
C1941 C1942 1.392 . S
C1941 C1945 1.495 . S
C1942 C1941 1.392 . S
C1942 C1943 1.385 . S
C1942 C1944 1.478 . S
C1943 H1937 0.930 . S
C1943 C1939 1.400 . S
C1943 C1942 1.385 . S
C1944 C1942 1.478 . S
C1944 C1946 1.381 . S
C1944 C1950 1.383 . S
C1945 C1941 1.495 . S
C1945 H1951 0.959 . S
C1945 H1952 0.961 . S
C1945 H1953 0.960 . S
C1946 C1944 1.381 . S
C1946 C1947 1.394 . S
C1946 H1954 0.930 . S
C1947 C1946 1.394 . S
C1947 C1948 1.383 1_554 S
C1947 H1955 0.929 . S
C1948 C1947 1.383 1_556 S
C1948 C1949 1.377 . S
C1949 H1933 0.930 . S
C1949 C1948 1.377 . S
C1949 C1950 1.379 1_556 S
C1950 H1934 0.931 . S
C1950 C1944 1.383 . S
C1950 C1949 1.379 1_554 S
H1951 C1945 0.959 . S
H1952 C1945 0.961 . S
H1953 C1945 0.960 . S
H1954 C1946 0.930 . S
H1955 C1947 0.929 . S
H1956 C1964 0.926 1_554 S
H1957 C1966 0.930 . S
H1958 C1968 0.930 . S
H1959 C1971 0.929 1_554 S
H1960 C1974 0.930 . S
H1961 C1976 0.960 . S
H1962 C1976 0.960 . S
H1963 C1976 0.960 . S
C1964 H1956 0.926 1_556 S
C1964 C1965 1.374 1_556 S
C1964 C1966 1.390 . S
C1965 C1964 1.374 1_554 S
C1965 C1971 1.390 1_554 S
C1966 H1957 0.930 . S
C1966 C1964 1.390 . S
C1966 C1967 1.372 . S
C1967 C1966 1.372 . S
C1967 C1968 1.400 . S
C1967 C1972 1.490 . S
C1968 H1958 0.930 . S
C1968 C1967 1.400 . S
C1968 C1971 1.386 . S
H1969 C1985 0.930 . S
H1970 C1986 0.931 . S
C1971 H1959 0.929 1_556 S
C1971 C1965 1.390 1_556 S
C1971 C1968 1.386 . S
C1972 C1967 1.490 . S
C1972 C1974 1.395 . S
C1972 C1975 1.403 . S
H1973 C1979 0.930 . S
C1974 H1960 0.930 . S
C1974 C1972 1.395 . S
C1974 C1977 1.403 . S
C1975 C1972 1.403 . S
C1975 C1976 1.524 . S
C1975 C1979 1.400 . S
C1976 H1961 0.960 . S
C1976 H1962 0.960 . S
C1976 H1963 0.960 . S
C1976 C1975 1.524 . S
C1977 C1974 1.403 . S
C1977 C1978 1.392 . S
C1977 C1981 1.495 . S
C1978 C1977 1.392 . S
C1978 C1979 1.385 . S
C1978 C1980 1.478 . S
C1979 H1973 0.930 . S
C1979 C1975 1.400 . S
C1979 C1978 1.385 . S
C1980 C1978 1.478 . S
C1980 C1982 1.381 . S
C1980 C1986 1.383 . S
C1981 C1977 1.495 . S
C1981 H1987 0.959 . S
C1981 H1988 0.961 . S
C1981 H1989 0.960 . S
C1982 C1980 1.381 . S
C1982 C1983 1.394 . S
C1982 H1990 0.930 . S
C1983 C1982 1.394 . S
C1983 C1984 1.383 . S
C1983 H1991 0.929 . S
C1984 C1983 1.383 . S
C1984 C1985 1.377 . S
C1985 H1969 0.930 . S
C1985 C1984 1.377 . S
C1985 C1986 1.379 . S
C1986 H1970 0.931 . S
C1986 C1980 1.383 . S
C1986 C1985 1.379 . S
H1987 C1981 0.959 . S
H1988 C1981 0.961 . S
H1989 C1981 0.960 . S
H1990 C1982 0.930 . S
H1991 C1983 0.929 . S
H1992 C2000 0.929 . S
H1993 C2002 0.930 . S
H1994 C2004 0.930 . S
H1995 C2007 0.929 . S
H1996 C2010 0.930 . S
H1997 C2012 0.960 . S
H1998 C2012 0.960 . S
H1999 C2012 0.960 . S
C2000 H1992 0.929 . S
C2000 C2001 1.377 . S
C2000 C2002 1.384 . S
C2001 C2000 1.377 . S
C2001 C2007 1.390 . S
C2002 H1993 0.930 . S
C2002 C2000 1.384 . S
C2002 C2003 1.372 . S
C2003 C2002 1.372 . S
C2003 C2004 1.400 . S
C2003 C2008 1.490 . S
C2004 H1994 0.930 . S
C2004 C2003 1.400 . S
C2004 C2007 1.386 . S
H2005 C2021 0.930 . S
H2006 C2022 0.931 . S
C2007 H1995 0.929 . S
C2007 C2001 1.390 . S
C2007 C2004 1.386 . S
C2008 C2003 1.490 . S
C2008 C2010 1.395 . S
C2008 C2011 1.403 . S
H2009 C2015 0.930 . S
C2010 H1996 0.930 . S
C2010 C2008 1.395 . S
C2010 C2013 1.403 . S
C2011 C2008 1.403 . S
C2011 C2012 1.524 . S
C2011 C2015 1.400 . S
C2012 H1997 0.960 . S
C2012 H1998 0.960 . S
C2012 H1999 0.960 . S
C2012 C2011 1.524 . S
C2013 C2010 1.403 . S
C2013 C2014 1.392 . S
C2013 C2017 1.495 . S
C2014 C2013 1.392 . S
C2014 C2015 1.385 . S
C2014 C2016 1.478 . S
C2015 H2009 0.930 . S
C2015 C2011 1.400 . S
C2015 C2014 1.385 . S
C2016 C2014 1.478 . S
C2016 C2018 1.381 . S
C2016 C2022 1.383 . S
C2017 C2013 1.495 . S
C2017 H2023 0.959 . S
C2017 H2024 0.961 . S
C2017 H2025 0.960 . S
C2018 C2016 1.381 . S
C2018 C2019 1.394 . S
C2018 H2026 0.930 . S
C2019 C2018 1.394 . S
C2019 C2020 1.383 . S
C2019 H2027 0.929 . S
C2020 C2019 1.383 . S
C2020 C2021 1.377 . S
C2021 H2005 0.930 . S
C2021 C2020 1.377 . S
C2021 C2022 1.379 . S
C2022 H2006 0.931 . S
C2022 C2016 1.383 . S
C2022 C2021 1.379 . S
H2023 C2017 0.959 . S
H2024 C2017 0.961 . S
H2025 C2017 0.960 . S
H2026 C2018 0.930 . S
H2027 C2019 0.929 . S
H2028 C2036 0.929 . S
H2029 C2038 0.930 . S
H2030 C2040 0.930 . S
H2031 C2043 0.929 . S
H2032 C2046 0.930 . S
H2033 C2048 0.960 . S
H2034 C2048 0.960 . S
H2035 C2048 0.960 . S
C2036 H2028 0.929 . S
C2036 C2037 1.377 . S
C2036 C2038 1.384 . S
C2037 C2036 1.377 . S
C2037 C2043 1.390 . S
C2038 H2029 0.930 . S
C2038 C2036 1.384 . S
C2038 C2039 1.372 . S
C2039 C2038 1.372 . S
C2039 C2040 1.400 . S
C2039 C2044 1.490 . S
C2040 H2030 0.930 . S
C2040 C2039 1.400 . S
C2040 C2043 1.386 . S
H2041 C2057 0.930 . S
H2042 C2058 0.931 . S
C2043 H2031 0.929 . S
C2043 C2037 1.390 . S
C2043 C2040 1.386 . S
C2044 C2039 1.490 . S
C2044 C2046 1.395 . S
C2044 C2047 1.403 . S
H2045 C2051 0.930 . S
C2046 H2032 0.930 . S
C2046 C2044 1.395 . S
C2046 C2049 1.403 . S
C2047 C2044 1.403 . S
C2047 C2048 1.524 . S
C2047 C2051 1.400 . S
C2048 H2033 0.960 . S
C2048 H2034 0.960 . S
C2048 H2035 0.960 . S
C2048 C2047 1.524 . S
C2049 C2046 1.403 . S
C2049 C2050 1.392 . S
C2049 C2053 1.495 . S
C2050 C2049 1.392 . S
C2050 C2051 1.385 . S
C2050 C2052 1.478 . S
C2051 H2045 0.930 . S
C2051 C2047 1.400 . S
C2051 C2050 1.385 . S
C2052 C2050 1.478 . S
C2052 C2054 1.381 . S
C2052 C2058 1.383 . S
C2053 C2049 1.495 . S
C2053 H2059 0.959 . S
C2053 H2060 0.961 . S
C2053 H2061 0.960 . S
C2054 C2052 1.381 . S
C2054 C2055 1.394 . S
C2054 H2062 0.930 . S
C2055 C2054 1.394 . S
C2055 C2056 1.383 . S
C2055 H2063 0.929 . S
C2056 C2055 1.383 . S
C2056 C2057 1.377 . S
C2057 H2041 0.930 . S
C2057 C2056 1.377 . S
C2057 C2058 1.379 . S
C2058 H2042 0.931 . S
C2058 C2052 1.383 . S
C2058 C2057 1.379 . S
H2059 C2053 0.959 . S
H2060 C2053 0.961 . S
H2061 C2053 0.960 . S
H2062 C2054 0.930 . S
H2063 C2055 0.929 . S
C345 C14 1.283 . S
C364 C164 1.233 . S
C381 C38 1.272 . S
C400 C98 1.258 . S
C417 C119 1.266 . S
C436 C56 1.315 . S
C453 C77 1.263 . S
C472 C140 1.319 . S
C489 C249 1.135 . S
C508 C102 1.153 . S
C525 C186 1.155 . S
C544 C18 1.171 . S
C561 C225 1.137 . S
C580 C144 1.184 . S
C597 C60 1.136 . S
C616 C204 1.150 . S
C633 C206 1.271 . S
C652 C266 1.266 . S
C669 C227 1.282 . S
C688 C308 1.243 . S
C705 C287 1.264 . S
C724 C182 1.302 . S
C741 C245 1.274 . S
C760 C329 1.249 . S
C777 C312 1.155 . S
C796 C81 1.175 . S
C813 C270 1.158 . S
C832 C123 1.145 . S
C849 C36 1.148 . S
C868 C333 1.197 . S
C885 C162 1.156 . S
C904 C291 1.169 . S
C921 C286 1.366 . S
C940 C13 1.339 . S
C957 C244 1.344 . S
C976 C37 1.395 . S
C993 C265 1.366 . S
C1012 C55 1.331 . S
C1029 C226 1.365 . S
C1048 C76 1.360 . S
C1065 C97 1.363 . S
C1084 C328 1.377 . S
C1101 C205 1.366 . S
C1120 C118 1.329 . S
C1137 C139 1.356 . S
C1156 C307 1.403 . S
C1173 C163 1.350 . S
C1192 C181 1.341 . S
C1209 C16 0.907 . S
C1228 C100 0.931 . S
C1245 C34 0.908 . S
C1264 C121 0.938 . S
C1281 C142 0.915 . S
C1300 C58 0.959 . S
C1317 C79 0.906 . S
C1336 C160 0.862 . S
C1353 C223 0.910 . S
C1372 C184 0.862 . S
C1389 C247 0.923 . S
C1408 C202 0.954 . S
C1425 C268 0.916 . S
C1444 C310 0.960 . S
C1461 C331 0.916 . S
C1480 C289 0.960 . S
C1497 C17 1.267 . S
C1516 C161 1.256 . S
C1533 C35 1.263 . S
C1552 C101 1.276 . S
C1569 C122 1.266 . S
C1588 C59 1.266 . S
C1605 C143 1.261 . S
C1624 C80 1.258 . S
C1641 C246 1.161 . S
C1660 C99 1.139 . S
C1677 C183 1.171 . S
C1696 C15 1.189 . S
C1713 C228 1.167 . S
C1732 C141 1.165 . S
C1749 C57 1.165 . S
C1768 C207 1.168 . S
C1785 C269 1.263 . S
C1804 C203 1.249 . S
C1821 C311 1.261 . S
C1840 C224 1.272 . S
C1857 C290 1.267 . S
C1876 C185 1.257 . S
C1893 C332 1.265 . S
C1912 C248 1.270 . S
C1929 C309 1.162 . S
C1948 C78 1.153 . S
C1965 C120 1.171 . S
C1984 C267 1.189 . S
C2001 C39 1.161 . S
C2020 C330 1.137 . S
C2037 C288 1.165 . S
C2056 C165 1.156 . S
