# Generated by pormake.
# Topology umv, (4)-cn, num edge types: 1
# Building blocks:
#     Node 0, Type 0, BuildingBlock: UXUYUI_clean_sbu_0, # of connection points: 4
#     Node 1, Type 0, BuildingBlock: UXUYUI_clean_sbu_0, # of connection points: 4
#     Node 2, Type 0, BuildingBlock: UXUYUI_clean_sbu_0, # of connection points: 4
#     Node 3, Type 0, BuildingBlock: UXUYUI_clean_sbu_0, # of connection points: 4
#     Node 4, Type 0, BuildingBlock: UXUYUI_clean_sbu_0, # of connection points: 4
#     Node 5, Type 0, BuildingBlock: UXUYUI_clean_sbu_0, # of connection points: 4
#     Node 6, Type 0, BuildingBlock: UXUYUI_clean_sbu_0, # of connection points: 4
#     Node 7, Type 0, BuildingBlock: UXUYUI_clean_sbu_0, # of connection points: 4
#     Node 8, Type 0, BuildingBlock: UXUYUI_clean_sbu_0, # of connection points: 4
#     Node 9, Type 0, BuildingBlock: UXUYUI_clean_sbu_0, # of connection points: 4
#     Node 10, Type 0, BuildingBlock: UXUYUI_clean_sbu_0, # of connection points: 4
#     Node 11, Type 0, BuildingBlock: UXUYUI_clean_sbu_0, # of connection points: 4
#     Node 12, Type 0, BuildingBlock: UXUYUI_clean_sbu_0, # of connection points: 4
#     Node 13, Type 0, BuildingBlock: UXUYUI_clean_sbu_0, # of connection points: 4
#     Node 14, Type 0, BuildingBlock: UXUYUI_clean_sbu_0, # of connection points: 4
#     Node 15, Type 0, BuildingBlock: UXUYUI_clean_sbu_0, # of connection points: 4
#     Node 16, Type 0, BuildingBlock: UXUYUI_clean_sbu_0, # of connection points: 4
#     Node 17, Type 0, BuildingBlock: UXUYUI_clean_sbu_0, # of connection points: 4
#     Node 18, Type 0, BuildingBlock: UXUYUI_clean_sbu_0, # of connection points: 4
#     Node 19, Type 0, BuildingBlock: UXUYUI_clean_sbu_0, # of connection points: 4
#     Node 20, Type 0, BuildingBlock: UXUYUI_clean_sbu_0, # of connection points: 4
#     Node 21, Type 0, BuildingBlock: UXUYUI_clean_sbu_0, # of connection points: 4
#     Node 22, Type 0, BuildingBlock: UXUYUI_clean_sbu_0, # of connection points: 4
#     Node 23, Type 0, BuildingBlock: UXUYUI_clean_sbu_0, # of connection points: 4
#     Node 24, Type 0, BuildingBlock: UXUYUI_clean_sbu_0, # of connection points: 4
#     Node 25, Type 0, BuildingBlock: UXUYUI_clean_sbu_0, # of connection points: 4
#     Node 26, Type 0, BuildingBlock: UXUYUI_clean_sbu_0, # of connection points: 4
#     Node 27, Type 0, BuildingBlock: UXUYUI_clean_sbu_0, # of connection points: 4
#     Node 28, Type 0, BuildingBlock: UXUYUI_clean_sbu_0, # of connection points: 4
#     Node 29, Type 0, BuildingBlock: UXUYUI_clean_sbu_0, # of connection points: 4
#     Node 30, Type 0, BuildingBlock: UXUYUI_clean_sbu_0, # of connection points: 4
#     Node 31, Type 0, BuildingBlock: UXUYUI_clean_sbu_0, # of connection points: 4
#     Edge 32, Type (0, 0), BuildingBlock: CIFDUS_clean_linker_0, # of connection points: 2
#     Edge 33, Type (0, 0), BuildingBlock: CIFDUS_clean_linker_0, # of connection points: 2
#     Edge 34, Type (0, 0), BuildingBlock: CIFDUS_clean_linker_0, # of connection points: 2
#     Edge 35, Type (0, 0), BuildingBlock: CIFDUS_clean_linker_0, # of connection points: 2
#     Edge 36, Type (0, 0), BuildingBlock: CIFDUS_clean_linker_0, # of connection points: 2
#     Edge 37, Type (0, 0), BuildingBlock: CIFDUS_clean_linker_0, # of connection points: 2
#     Edge 38, Type (0, 0), BuildingBlock: CIFDUS_clean_linker_0, # of connection points: 2
#     Edge 39, Type (0, 0), BuildingBlock: CIFDUS_clean_linker_0, # of connection points: 2
#     Edge 40, Type (0, 0), BuildingBlock: CIFDUS_clean_linker_0, # of connection points: 2
#     Edge 41, Type (0, 0), BuildingBlock: CIFDUS_clean_linker_0, # of connection points: 2
#     Edge 42, Type (0, 0), BuildingBlock: CIFDUS_clean_linker_0, # of connection points: 2
#     Edge 43, Type (0, 0), BuildingBlock: CIFDUS_clean_linker_0, # of connection points: 2
#     Edge 44, Type (0, 0), BuildingBlock: CIFDUS_clean_linker_0, # of connection points: 2
#     Edge 45, Type (0, 0), BuildingBlock: CIFDUS_clean_linker_0, # of connection points: 2
#     Edge 46, Type (0, 0), BuildingBlock: CIFDUS_clean_linker_0, # of connection points: 2
#     Edge 47, Type (0, 0), BuildingBlock: CIFDUS_clean_linker_0, # of connection points: 2
#     Edge 48, Type (0, 0), BuildingBlock: CIFDUS_clean_linker_0, # of connection points: 2
#     Edge 49, Type (0, 0), BuildingBlock: CIFDUS_clean_linker_0, # of connection points: 2
#     Edge 50, Type (0, 0), BuildingBlock: CIFDUS_clean_linker_0, # of connection points: 2
#     Edge 51, Type (0, 0), BuildingBlock: CIFDUS_clean_linker_0, # of connection points: 2
#     Edge 52, Type (0, 0), BuildingBlock: CIFDUS_clean_linker_0, # of connection points: 2
#     Edge 53, Type (0, 0), BuildingBlock: CIFDUS_clean_linker_0, # of connection points: 2
#     Edge 54, Type (0, 0), BuildingBlock: CIFDUS_clean_linker_0, # of connection points: 2
#     Edge 55, Type (0, 0), BuildingBlock: CIFDUS_clean_linker_0, # of connection points: 2
#     Edge 56, Type (0, 0), BuildingBlock: CIFDUS_clean_linker_0, # of connection points: 2
#     Edge 57, Type (0, 0), BuildingBlock: CIFDUS_clean_linker_0, # of connection points: 2
#     Edge 58, Type (0, 0), BuildingBlock: CIFDUS_clean_linker_0, # of connection points: 2
#     Edge 59, Type (0, 0), BuildingBlock: CIFDUS_clean_linker_0, # of connection points: 2
#     Edge 60, Type (0, 0), BuildingBlock: CIFDUS_clean_linker_0, # of connection points: 2
#     Edge 61, Type (0, 0), BuildingBlock: CIFDUS_clean_linker_0, # of connection points: 2
#     Edge 62, Type (0, 0), BuildingBlock: CIFDUS_clean_linker_0, # of connection points: 2
#     Edge 63, Type (0, 0), BuildingBlock: CIFDUS_clean_linker_0, # of connection points: 2
#     Edge 64, Type (0, 0), BuildingBlock: CIFDUS_clean_linker_0, # of connection points: 2
#     Edge 65, Type (0, 0), BuildingBlock: CIFDUS_clean_linker_0, # of connection points: 2
#     Edge 66, Type (0, 0), BuildingBlock: CIFDUS_clean_linker_0, # of connection points: 2
#     Edge 67, Type (0, 0), BuildingBlock: CIFDUS_clean_linker_0, # of connection points: 2
#     Edge 68, Type (0, 0), BuildingBlock: CIFDUS_clean_linker_0, # of connection points: 2
#     Edge 69, Type (0, 0), BuildingBlock: CIFDUS_clean_linker_0, # of connection points: 2
#     Edge 70, Type (0, 0), BuildingBlock: CIFDUS_clean_linker_0, # of connection points: 2
#     Edge 71, Type (0, 0), BuildingBlock: CIFDUS_clean_linker_0, # of connection points: 2
#     Edge 72, Type (0, 0), BuildingBlock: CIFDUS_clean_linker_0, # of connection points: 2
#     Edge 73, Type (0, 0), BuildingBlock: CIFDUS_clean_linker_0, # of connection points: 2
#     Edge 74, Type (0, 0), BuildingBlock: CIFDUS_clean_linker_0, # of connection points: 2
#     Edge 75, Type (0, 0), BuildingBlock: CIFDUS_clean_linker_0, # of connection points: 2
#     Edge 76, Type (0, 0), BuildingBlock: CIFDUS_clean_linker_0, # of connection points: 2
#     Edge 77, Type (0, 0), BuildingBlock: CIFDUS_clean_linker_0, # of connection points: 2
#     Edge 78, Type (0, 0), BuildingBlock: CIFDUS_clean_linker_0, # of connection points: 2
#     Edge 79, Type (0, 0), BuildingBlock: CIFDUS_clean_linker_0, # of connection points: 2
#     Edge 80, Type (0, 0), BuildingBlock: CIFDUS_clean_linker_0, # of connection points: 2
#     Edge 81, Type (0, 0), BuildingBlock: CIFDUS_clean_linker_0, # of connection points: 2
#     Edge 82, Type (0, 0), BuildingBlock: CIFDUS_clean_linker_0, # of connection points: 2
#     Edge 83, Type (0, 0), BuildingBlock: CIFDUS_clean_linker_0, # of connection points: 2
#     Edge 84, Type (0, 0), BuildingBlock: CIFDUS_clean_linker_0, # of connection points: 2
#     Edge 85, Type (0, 0), BuildingBlock: CIFDUS_clean_linker_0, # of connection points: 2
#     Edge 86, Type (0, 0), BuildingBlock: CIFDUS_clean_linker_0, # of connection points: 2
#     Edge 87, Type (0, 0), BuildingBlock: CIFDUS_clean_linker_0, # of connection points: 2
#     Edge 88, Type (0, 0), BuildingBlock: CIFDUS_clean_linker_0, # of connection points: 2
#     Edge 89, Type (0, 0), BuildingBlock: CIFDUS_clean_linker_0, # of connection points: 2
#     Edge 90, Type (0, 0), BuildingBlock: CIFDUS_clean_linker_0, # of connection points: 2
#     Edge 91, Type (0, 0), BuildingBlock: CIFDUS_clean_linker_0, # of connection points: 2
#     Edge 92, Type (0, 0), BuildingBlock: CIFDUS_clean_linker_0, # of connection points: 2
#     Edge 93, Type (0, 0), BuildingBlock: CIFDUS_clean_linker_0, # of connection points: 2
#     Edge 94, Type (0, 0), BuildingBlock: CIFDUS_clean_linker_0, # of connection points: 2
#     Edge 95, Type (0, 0), BuildingBlock: CIFDUS_clean_linker_0, # of connection points: 2
# Relax obj value: 0.218
# Max RMSD: 0.127
# Mean RMSD: 0.126
data_MOF--net-umv--node1-UXUYUI_clean_sbu_0--edge1-CIFDUS_clean_linker_0
_symmetry_space_group_name_H-M    P1
_symmetry_Int_Tables_number       1
_symmetry_cell_setting            triclinic
loop_
_symmetry_equiv_pos_as_xyz
'x, y, z'
_cell_length_a     115.81126
_cell_length_b     32.304612
_cell_length_c     112.047
_cell_angle_alpha  90.003976
_cell_angle_beta   89.999125
_cell_angle_gamma 89.994733
loop_
_atom_site_label
_atom_site_type_symbol
_atom_site_fract_x
_atom_site_fract_y
_atom_site_fract_z
_atom_type_partial_charge
Li0 Li 0.02949 0.13263 0.31194 0.0
Li1 Li 0.03484 0.15618 0.33198 0.0
Li2 Li 0.04933 0.11649 0.31938 0.0
Li3 Li 0.0328 0.08246 0.32874 0.0
C4 C 0.0455 0.20247 0.30926 0.0
N5 N 0.05272 0.26632 0.29459 0.0
C6 C 0.04132 0.24264 0.31098 0.0
C7 C 0.05357 0.19508 0.30021 0.0
C8 C 0.045 0.2744 0.30343 0.0
C9 C 0.05705 0.22766 0.29285 0.0
C10 C 0.01185 0.14426 0.33315 0.0
C11 C 0.00287 0.1643 0.3517 0.0
N12 N 0.99432 0.18347 0.34549 0.0
C13 C 0.00293 0.16392 0.32695 0.0
C14 C 0.01178 0.14419 0.34563 0.0
C15 C 0.99415 0.18365 0.33335 0.0
C16 C 0.01739 0.12581 0.28931 0.0
N17 N 0.02049 0.15082 0.29853 0.0
C18 C 0.01201 0.20938 0.28886 0.0
C19 C 0.01762 0.1916 0.29861 0.0
C20 C 0.00926 0.18497 0.27889 0.0
C21 C 0.01183 0.14239 0.2793 0.0
H22 H 0.01946 0.09319 0.28957 0.0
H23 H 0.01972 0.21041 0.30627 0.0
C24 C 0.04054 0.20543 0.35205 0.0
N25 N 0.03332 0.20202 0.34254 0.0
C26 C 0.03995 0.24007 0.35949 0.0
C27 C 0.02441 0.26668 0.34729 0.0
C28 C 0.02536 0.23175 0.34005 0.0
C29 C 0.03183 0.27133 0.35711 0.0
H30 H 0.04687 0.18154 0.35374 0.0
H31 H 0.01988 0.22866 0.33229 0.0
C32 C 0.04173 0.06332 0.3008 0.0
N33 N 0.04923 0.03412 0.27893 0.0
C34 C 0.04366 0.021 0.29911 0.0
C35 C 0.04356 0.0907 0.29132 0.0
C36 C 0.04747 0.00687 0.288 0.0
C37 C 0.04734 0.07538 0.28035 0.0
C38 C 0.04898 0.08477 0.34535 0.0
C39 C 0.05741 0.05494 0.34295 0.0
C40 C 0.04365 0.08566 0.35654 0.0
C41 C 0.06026 0.02608 0.35175 0.0
C42 C 0.04673 0.05619 0.3651 0.0
N43 N 0.05489 0.02725 0.36254 0.0
C44 C 0.07218 0.13397 0.32426 0.0
C45 C 0.07038 0.0928 0.30688 0.0
C46 C 0.08418 0.13429 0.32314 0.0
N47 N 0.06554 0.11344 0.31621 0.0
C48 C 0.08234 0.09291 0.30529 0.0
C49 C 0.08946 0.11378 0.3135 0.0
H50 H 0.06812 0.14987 0.33165 0.0
H51 H 0.06504 0.07635 0.30061 0.0
C52 C 0.02049 0.03048 0.3451 0.0
N53 N 0.02873 0.03141 0.33645 0.0
C54 C 0.01903 0.99511 0.35213 0.0
C55 C 0.03412 0.96155 0.34083 0.0
C56 C 0.03537 0.99767 0.3341 0.0
C57 C 0.02603 0.96026 0.35016 0.0
H58 H 0.01535 0.05764 0.34685 0.0
H59 H 0.04207 0.99956 0.32741 0.0
O60 O 0.04206 0.17101 0.31666 0.0
O61 O 0.02056 0.12511 0.32702 0.0
O62 O 0.038 0.0776 0.31164 0.0
O63 O 0.04581 0.11243 0.33671 0.0
H64 H 0.03523 0.24926 0.31802 0.0
H65 H 0.05718 0.16462 0.2989 0.0
H66 H 0.04174 0.30551 0.30462 0.0
H67 H 0.06325 0.22224 0.28579 0.0
H68 H 0.00278 0.16481 0.36136 0.0
H69 H 0.00275 0.16385 0.31731 0.0
H70 H 0.01867 0.12947 0.35057 0.0
H71 H 0.98721 0.19908 0.32867 0.0
H72 H 0.00986 0.24199 0.28916 0.0
H73 H 0.00987 0.12227 0.27184 0.0
H74 H 0.04578 0.2424 0.36702 0.0
H75 H 0.01816 0.29033 0.34503 0.0
H76 H 0.04222 0.99923 0.30628 0.0
H77 H 0.04199 0.12339 0.2924 0.0
H78 H 0.04903 0.97421 0.28659 0.0
H79 H 0.04878 0.09629 0.27295 0.0
H80 H 0.06156 0.05363 0.3343 0.0
H81 H 0.03714 0.1086 0.35856 0.0
H82 H 0.0667 0.0026 0.34998 0.0
H83 H 0.0426 0.05628 0.37376 0.0
H84 H 0.08924 0.15001 0.32988 0.0
H85 H 0.08594 0.07709 0.29763 0.0
H86 H 0.01262 0.99526 0.35917 0.0
H87 H 0.03981 0.93561 0.33912 0.0
Li88 Li 0.19832 0.13538 0.31875 0.0
Li89 Li 0.2152 0.16785 0.32853 0.0
Li90 Li 0.21752 0.11816 0.31139 0.0
Li91 Li 0.21222 0.09197 0.33107 0.0
C92 C 0.20426 0.20098 0.30435 0.0
N93 N 0.19243 0.25574 0.28988 0.0
C94 C 0.20381 0.24301 0.30728 0.0
C95 C 0.19876 0.18684 0.29402 0.0
C96 C 0.19777 0.27019 0.29986 0.0
C97 C 0.1928 0.215 0.28683 0.0
C98 C 0.19689 0.14928 0.34632 0.0
C99 C 0.19557 0.14637 0.3678 0.0
N100 N 0.18612 0.17132 0.3674 0.0
C101 C 0.18707 0.17446 0.34613 0.0
C102 C 0.2011 0.13474 0.35724 0.0
C103 C 0.18179 0.18545 0.35688 0.0
C104 C 0.17598 0.10536 0.31688 0.0
N105 N 0.18219 0.14078 0.31566 0.0
C106 C 0.16491 0.17971 0.3124 0.0
C107 C 0.17691 0.17764 0.31351 0.0
C108 C 0.15821 0.14374 0.31389 0.0
C109 C 0.16396 0.10612 0.31608 0.0
H110 H 0.18037 0.07663 0.31887 0.0
H111 H 0.18193 0.20571 0.31301 0.0
C112 C 0.23071 0.22707 0.33967 0.0
N113 N 0.21961 0.21729 0.33688 0.0
C114 C 0.23309 0.26079 0.34715 0.0
C115 C 0.21263 0.27472 0.34823 0.0
C116 C 0.21068 0.24112 0.3407 0.0
C117 C 0.22395 0.28472 0.35175 0.0
H118 H 0.23771 0.20819 0.33635 0.0
H119 H 0.20198 0.23348 0.33807 0.0
C120 C 0.20501 0.04932 0.30726 0.0
N121 N 0.20624 0.9885 0.28999 0.0
C122 C 0.21095 0.01252 0.30955 0.0
C123 C 0.19953 0.05493 0.29627 0.0
C124 C 0.21151 0.98219 0.30068 0.0
C125 C 0.20031 0.0239 0.28763 0.0
C126 C 0.23534 0.11721 0.33473 0.0
C127 C 0.24608 0.10139 0.33132 0.0
C128 C 0.23343 0.1282 0.34662 0.0
C129 C 0.25473 0.09669 0.33991 0.0
C130 C 0.24229 0.1231 0.35494 0.0
N131 N 0.25267 0.10754 0.35144 0.0
C132 C 0.22413 0.11667 0.28665 0.0
C133 C 0.23267 0.06612 0.29916 0.0
C134 C 0.22868 0.09728 0.27652 0.0
N135 N 0.22595 0.10024 0.29765 0.0
C136 C 0.23729 0.04554 0.2893 0.0
C137 C 0.23509 0.06048 0.27774 0.0
H138 H 0.21882 0.1439 0.28567 0.0
H139 H 0.23386 0.05345 0.30802 0.0
C140 C 0.2025 0.03292 0.34599 0.0
N141 N 0.21277 0.04588 0.34146 0.0
C142 C 0.20198 0.99759 0.35312 0.0
C143 C 0.22263 0.98973 0.35085 0.0
C144 C 0.22274 0.02503 0.34367 0.0
C145 C 0.21214 0.97548 0.35559 0.0
H146 H 0.19469 0.04984 0.34391 0.0
H147 H 0.23073 0.03512 0.33966 0.0
O148 O 0.21014 0.17399 0.31152 0.0
O149 O 0.20211 0.13788 0.33585 0.0
O150 O 0.20463 0.07983 0.31571 0.0
O151 O 0.22674 0.12132 0.32645 0.0
H152 H 0.2081 0.25454 0.31518 0.0
H153 H 0.19897 0.15443 0.29165 0.0
H154 H 0.19733 0.30279 0.30202 0.0
H155 H 0.18845 0.20444 0.27885 0.0
H156 H 0.19876 0.13542 0.3763 0.0
H157 H 0.18364 0.1858 0.33778 0.0
H158 H 0.2085 0.11436 0.35759 0.0
H159 H 0.17425 0.20519 0.35686 0.0
H160 H 0.16095 0.2094 0.31058 0.0
H161 H 0.15924 0.07768 0.3176 0.0
H162 H 0.24197 0.26773 0.3494 0.0
H163 H 0.20525 0.29173 0.35157 0.0
H164 H 0.21522 0.00768 0.31803 0.0
H165 H 0.19477 0.08301 0.29443 0.0
H166 H 0.21617 0.95371 0.30229 0.0
H167 H 0.19619 0.02795 0.27904 0.0
H168 H 0.2477 0.09271 0.32214 0.0
H169 H 0.22523 0.14097 0.34935 0.0
H170 H 0.26307 0.0844 0.33741 0.0
H171 H 0.24093 0.13158 0.36417 0.0
H172 H 0.22696 0.1105 0.26782 0.0
H173 H 0.24203 0.01709 0.29073 0.0
H174 H 0.19373 0.98766 0.35666 0.0
H175 H 0.23061 0.97309 0.3524 0.0
Li176 Li 0.0504 0.12227 0.93161 0.0
Li177 Li 0.03461 0.16037 0.92144 0.0
Li178 Li 0.03111 0.11409 0.93896 0.0
Li179 Li 0.03578 0.08384 0.91982 0.0
C180 C 0.04793 0.19135 0.944 0.0
N181 N 0.06418 0.24054 0.95516 0.0
C182 C 0.05037 0.23083 0.93958 0.0
C183 C 0.05366 0.17704 0.95417 0.0
C184 C 0.05863 0.2552 0.94533 0.0
C185 C 0.06188 0.20231 0.95966 0.0
C186 C 0.05339 0.11601 0.90464 0.0
C187 C 0.05734 0.12011 0.88351 0.0
N188 N 0.06655 0.09451 0.88499 0.0
C189 C 0.06297 0.09009 0.90594 0.0
C190 C 0.05061 0.13146 0.89333 0.0
C191 C 0.06948 0.07943 0.8959 0.0
C192 C 0.07146 0.08737 0.93892 0.0
N193 N 0.06656 0.12302 0.93492 0.0
C194 C 0.08511 0.15491 0.93309 0.0
C195 C 0.07309 0.15655 0.93202 0.0
C196 C 0.09038 0.11801 0.9368 0.0
C197 C 0.08344 0.08408 0.93985 0.0
H198 H 0.06611 0.06082 0.94084 0.0
H199 H 0.069 0.18404 0.9285 0.0
C200 C 0.02062 0.22577 0.91119 0.0
N201 N 0.0314 0.2096 0.91254 0.0
C202 C 0.01882 0.25953 0.90356 0.0
C203 C 0.03925 0.26 0.89919 0.0
C204 C 0.04065 0.22639 0.90687 0.0
C205 C 0.0282 0.27668 0.89728 0.0
H206 H 0.01339 0.21188 0.9158 0.0
H207 H 0.04913 0.21312 0.90818 0.0
C208 C 0.04034 0.04127 0.94392 0.0
N209 N 0.035 0.98439 0.96149 0.0
C210 C 0.03295 0.00818 0.94141 0.0
C211 C 0.04511 0.04518 0.95532 0.0
C212 C 0.03034 0.97979 0.95043 0.0
C213 C 0.04227 0.01618 0.9641 0.0
C214 C 0.01392 0.12046 0.91492 0.0
C215 C 0.00216 0.1182 0.91761 0.0
C216 C 0.01742 0.12601 0.9031 0.0
C217 C 0.99408 0.12147 0.9084 0.0
C218 C 0.00909 0.12918 0.89413 0.0
N219 N 0.99768 0.12686 0.89695 0.0
C220 C 0.02518 0.11693 0.96377 0.0
C221 C 0.01355 0.07394 0.95154 0.0
C222 C 0.01991 0.10119 0.97405 0.0
N223 N 0.02211 0.10239 0.95283 0.0
C224 C 0.00815 0.05706 0.96156 0.0
C225 C 0.0115 0.07 0.97301 0.0
H226 H 0.03208 0.13925 0.96456 0.0
H227 H 0.01137 0.06268 0.94273 0.0
C228 C 0.04375 0.01152 0.90961 0.0
N229 N 0.03413 0.03552 0.91016 0.0
C230 C 0.0436 0.97408 0.90345 0.0
C231 C 0.02349 0.9857 0.89881 0.0
C232 C 0.02404 0.02313 0.90505 0.0
C233 C 0.03337 0.96057 0.89798 0.0
H234 H 0.05149 0.02103 0.91422 0.0
H235 H 0.01633 0.04147 0.90605 0.0
O236 O 0.03992 0.16695 0.93844 0.0
O237 O 0.04697 0.12717 0.91439 0.0
O238 O 0.04272 0.07013 0.93532 0.0
O239 O 0.02191 0.11799 0.92387 0.0
H240 H 0.04594 0.24254 0.93178 0.0
H241 H 0.05191 0.1465 0.95769 0.0
H242 H 0.06064 0.28577 0.94198 0.0
H243 H 0.06645 0.1915 0.96748 0.0
H244 H 0.05525 0.13177 0.87472 0.0
H245 H 0.06532 0.07794 0.91458 0.0
H246 H 0.04338 0.15221 0.89212 0.0
H247 H 0.07687 0.05917 0.8968 0.0
H248 H 0.09025 0.18144 0.9305 0.0
H249 H 0.08726 0.05508 0.94267 0.0
H250 H 0.01014 0.27128 0.90233 0.0
H251 H 0.04677 0.27272 0.89477 0.0
H252 H 0.02911 0.0048 0.93267 0.0
H253 H 0.05083 0.07063 0.95742 0.0
H254 H 0.02456 0.95423 0.94864 0.0
H255 H 0.04582 0.01904 0.97299 0.0
H256 H 0.99931 0.11406 0.92674 0.0
H257 H 0.02647 0.1276 0.90088 0.0
H258 H 0.98494 0.11977 0.91035 0.0
H259 H 0.01169 0.13345 0.88494 0.0
H260 H 0.02278 0.11184 0.98272 0.0
H261 H 0.00161 0.03344 0.96037 0.0
H262 H 0.05145 0.95588 0.90301 0.0
H263 H 0.01535 0.97605 0.89496 0.0
Li264 Li 0.2133 0.16345 0.9194 0.0
Li265 Li 0.21871 0.13746 0.93911 0.0
Li266 Li 0.21528 0.09004 0.92217 0.0
Li267 Li 0.19915 0.12652 0.932 0.0
C268 C 0.23694 0.11247 0.92027 0.0
N269 N 0.25582 0.06668 0.91302 0.0
C270 C 0.24428 0.09472 0.92874 0.0
C271 C 0.23922 0.10712 0.90811 0.0
C272 C 0.25379 0.07168 0.92489 0.0
C273 C 0.24879 0.08376 0.90463 0.0
C274 C 0.20873 0.2103 0.94295 0.0
C275 C 0.20615 0.23997 0.96252 0.0
N276 N 0.21361 0.27089 0.9596 0.0
C277 C 0.21631 0.2425 0.94011 0.0
C278 C 0.20355 0.20909 0.95421 0.0
C279 C 0.21868 0.2728 0.94867 0.0
C280 C 0.20577 0.23336 0.90689 0.0
N281 N 0.21512 0.20908 0.909 0.0
C282 C 0.22693 0.25197 0.89667 0.0
C283 C 0.22559 0.21772 0.90415 0.0
C284 C 0.21736 0.27732 0.89412 0.0
C285 C 0.20665 0.26737 0.89931 0.0
H286 H 0.1976 0.22608 0.91107 0.0
H287 H 0.23293 0.19831 0.9062 0.0
C288 C 0.22408 0.1458 0.96397 0.0
N289 N 0.22769 0.15355 0.95264 0.0
C290 C 0.22917 0.1665 0.9736 0.0
C291 C 0.24201 0.20071 0.95976 0.0
C292 C 0.23668 0.17946 0.95042 0.0
C293 C 0.23803 0.19538 0.97151 0.0
H294 H 0.2168 0.1256 0.96548 0.0
H295 H 0.23925 0.18552 0.94131 0.0
C296 C 0.19746 0.13531 0.90458 0.0
N297 N 0.18813 0.16998 0.88419 0.0
C298 C 0.18602 0.14919 0.90453 0.0
C299 C 0.20411 0.13873 0.8942 0.0
C300 C 0.18148 0.16668 0.89414 0.0
C301 C 0.19925 0.15647 0.884 0.0
C302 C 0.20294 0.05832 0.94515 0.0
C303 C 0.20113 0.01813 0.94092 0.0
C304 C 0.19729 0.07163 0.95548 0.0
C305 C 0.19363 0.9919 0.9471 0.0
C306 C 0.18983 0.04449 0.96139 0.0
N307 N 0.18818 0.00553 0.95711 0.0
C308 C 0.22711 0.01194 0.91826 0.0
C309 C 0.21423 0.03428 0.90317 0.0
C310 C 0.2299 0.97657 0.91159 0.0
N311 N 0.21945 0.04008 0.9139 0.0
C312 C 0.21678 0.99972 0.89623 0.0
C313 C 0.22474 0.9703 0.90037 0.0
H314 H 0.23105 0.01692 0.92689 0.0
H315 H 0.20796 0.05632 0.9 0.0
C316 C 0.17799 0.16211 0.93855 0.0
N317 N 0.18312 0.12534 0.93598 0.0
C318 C 0.16609 0.16424 0.94043 0.0
C319 C 0.16497 0.09039 0.93724 0.0
C320 C 0.17686 0.08987 0.93517 0.0
C321 C 0.15935 0.12808 0.93974 0.0
H322 H 0.18309 0.19012 0.93873 0.0
H323 H 0.18105 0.06124 0.93272 0.0
O324 O 0.22749 0.13456 0.92385 0.0
O325 O 0.20662 0.17954 0.93486 0.0
O326 O 0.20212 0.1185 0.91471 0.0
O327 O 0.21028 0.08436 0.93924 0.0
H328 H 0.2426 0.09836 0.93818 0.0
H329 H 0.23357 0.12047 0.90145 0.0
H330 H 0.25953 0.05763 0.93134 0.0
H331 H 0.25062 0.07914 0.89525 0.0
H332 H 0.20229 0.23924 0.97131 0.0
H333 H 0.22045 0.24374 0.93147 0.0
H334 H 0.19773 0.18419 0.95657 0.0
H335 H 0.2246 0.29772 0.94664 0.0
H336 H 0.2354 0.2588 0.8931 0.0
H337 H 0.19897 0.2854 0.89749 0.0
H338 H 0.22574 0.16167 0.98248 0.0
H339 H 0.24894 0.22213 0.95774 0.0
H340 H 0.18072 0.14665 0.91243 0.0
H341 H 0.21299 0.12834 0.89409 0.0
H342 H 0.17265 0.1777 0.894 0.0
H343 H 0.20434 0.15961 0.87596 0.0
H344 H 0.20544 0.00733 0.93294 0.0
H345 H 0.19847 0.1028 0.95878 0.0
H346 H 0.19213 0.96074 0.94393 0.0
H347 H 0.18533 0.05446 0.96935 0.0
H348 H 0.23606 0.95457 0.91514 0.0
H349 H 0.21235 0.99566 0.8878 0.0
H350 H 0.16221 0.19422 0.94199 0.0
H351 H 0.16024 0.06155 0.93676 0.0
Li352 Li 0.9655 0.9264 0.67409 0.0
Li353 Li 0.96797 0.8773 0.68989 0.0
Li354 Li 0.96475 0.85132 0.67025 0.0
Li355 Li 0.94877 0.88645 0.68197 0.0
C356 C 0.98629 0.89019 0.66705 0.0
N357 N 0.00252 0.90241 0.64932 0.0
C358 C 0.99792 0.89532 0.67001 0.0
C359 C 0.98291 0.89118 0.65508 0.0
C360 C 0.006 0.90149 0.66092 0.0
C361 C 0.99124 0.8974 0.64625 0.0
C362 C 0.96365 0.95868 0.69697 0.0
C363 C 0.96274 0.01409 0.71136 0.0
N364 N 0.97432 0.01985 0.71021 0.0
C365 C 0.97555 0.96512 0.69593 0.0
C366 C 0.95719 0.98333 0.70474 0.0
C367 C 0.98078 0.99622 0.7027 0.0
C368 C 0.95824 0.99845 0.66377 0.0
N369 N 0.96819 0.97871 0.66671 0.0
C370 C 0.97932 0.03039 0.65663 0.0
C371 C 0.97866 0.99426 0.66352 0.0
C372 C 0.96911 0.05054 0.65302 0.0
C373 C 0.95849 0.03427 0.65686 0.0
H374 H 0.95004 0.98521 0.66639 0.0
H375 H 0.98647 0.97824 0.66605 0.0
C376 C 0.98497 0.83637 0.7032 0.0
N377 N 0.97575 0.8621 0.70425 0.0
C378 C 0.98941 0.81627 0.71323 0.0
C379 C 0.97524 0.85166 0.72535 0.0
C380 C 0.97103 0.87091 0.71506 0.0
C381 C 0.98433 0.82289 0.72448 0.0
H382 H 0.98838 0.82932 0.69444 0.0
H383 H 0.96358 0.89097 0.71561 0.0
C384 C 0.94779 0.89579 0.65481 0.0
N385 N 0.93542 0.89792 0.63371 0.0
C386 C 0.93723 0.87504 0.65389 0.0
C387 C 0.952 0.91794 0.645 0.0
C388 C 0.93113 0.87637 0.64314 0.0
C389 C 0.94563 0.91856 0.63442 0.0
C390 C 0.95772 0.80465 0.6936 0.0
C391 C 0.9655 0.77188 0.69229 0.0
C392 C 0.95121 0.80816 0.70405 0.0
C393 C 0.96676 0.74342 0.70159 0.0
C394 C 0.95274 0.77907 0.71314 0.0
N395 N 0.96043 0.74762 0.71174 0.0
C396 C 0.97839 0.79001 0.65882 0.0
C397 C 0.95868 0.79147 0.65315 0.0
C398 C 0.98039 0.75584 0.65146 0.0
N399 N 0.96768 0.80713 0.65947 0.0
C400 C 0.96027 0.75739 0.64571 0.0
C401 C 0.97122 0.73886 0.64488 0.0
H402 H 0.98534 0.8023 0.66421 0.0
H403 H 0.9502 0.80478 0.65411 0.0
C404 C 0.92746 0.92641 0.68387 0.0
N405 N 0.93265 0.88874 0.68436 0.0
C406 C 0.91546 0.92952 0.68447 0.0
C407 C 0.91439 0.85501 0.68627 0.0
C408 C 0.92643 0.85336 0.68567 0.0
C409 C 0.90874 0.89345 0.6855 0.0
H410 H 0.93267 0.95395 0.68277 0.0
H411 H 0.93081 0.82379 0.68586 0.0
O412 O 0.97831 0.88468 0.67591 0.0
O413 O 0.95828 0.92844 0.69047 0.0
O414 O 0.95377 0.89545 0.66536 0.0
O415 O 0.9566 0.83349 0.68474 0.0
H416 H 0.00066 0.8947 0.67924 0.0
H417 H 0.97399 0.88685 0.65264 0.0
H418 H 0.01503 0.90558 0.66308 0.0
H419 H 0.98874 0.89819 0.63695 0.0
H420 H 0.95785 0.0334 0.71742 0.0
H421 H 0.98072 0.94643 0.68999 0.0
H422 H 0.94797 0.97868 0.70564 0.0
H423 H 0.98997 0.00156 0.70198 0.0
H424 H 0.98772 0.04211 0.65406 0.0
H425 H 0.95037 0.04806 0.65418 0.0
H426 H 0.9963 0.794 0.71206 0.0
H427 H 0.97117 0.85822 0.73384 0.0
H428 H 0.93384 0.85765 0.66134 0.0
H429 H 0.96007 0.93468 0.64554 0.0
H430 H 0.92298 0.86025 0.6423 0.0
H431 H 0.9488 0.93555 0.62677 0.0
H432 H 0.9706 0.7688 0.68425 0.0
H433 H 0.94519 0.83348 0.7052 0.0
H434 H 0.97282 0.7181 0.70075 0.0
H435 H 0.94785 0.78162 0.72134 0.0
H436 H 0.98891 0.74205 0.65123 0.0
H437 H 0.95298 0.74541 0.64075 0.0
H438 H 0.91148 0.95982 0.684 0.0
H439 H 0.90956 0.82639 0.6869 0.0
Li440 Li 0.80017 0.87128 0.68186 0.0
Li441 Li 0.78501 0.89998 0.67009 0.0
Li442 Li 0.78069 0.87556 0.68957 0.0
Li443 Li 0.78546 0.82649 0.67318 0.0
C444 C 0.79495 0.94048 0.69537 0.0
N445 N 0.80234 0.97862 0.71608 0.0
C446 C 0.79457 0.98356 0.69638 0.0
C447 C 0.7991 0.91677 0.70489 0.0
C448 C 0.79835 0.00227 0.70692 0.0
C449 C 0.80278 0.93664 0.71529 0.0
C450 C 0.80535 0.87881 0.65792 0.0
C451 C 0.81942 0.87484 0.6421 0.0
N452 N 0.82236 0.91499 0.64413 0.0
C453 C 0.8085 0.92006 0.65984 0.0
C454 C 0.81084 0.856 0.64897 0.0
C455 C 0.81712 0.93778 0.65278 0.0
C456 C 0.82182 0.83653 0.68686 0.0
N457 N 0.81623 0.87318 0.68545 0.0
C458 C 0.83389 0.91053 0.68774 0.0
C459 C 0.82197 0.90984 0.68595 0.0
C460 C 0.83996 0.87312 0.68902 0.0
C461 C 0.83375 0.83576 0.6887 0.0
H462 H 0.81702 0.80785 0.68631 0.0
H463 H 0.81734 0.93859 0.68474 0.0
C464 C 0.77699 0.97857 0.6638 0.0
N465 N 0.78122 0.94284 0.65914 0.0
C466 C 0.77488 0.01252 0.65643 0.0
C467 C 0.78126 0.97183 0.63955 0.0
C468 C 0.78314 0.93853 0.64724 0.0
C469 C 0.77725 0.00961 0.64417 0.0
H470 H 0.77549 0.9809 0.67331 0.0
H471 H 0.78638 0.90955 0.64376 0.0
C472 C 0.78677 0.79434 0.69625 0.0
N473 N 0.7773 0.72914 0.70885 0.0
C474 C 0.77504 0.78491 0.69505 0.0
C475 C 0.79368 0.7706 0.70384 0.0
C476 C 0.77043 0.75182 0.7015 0.0
C477 C 0.78873 0.73777 0.71015 0.0
C478 C 0.76416 0.87444 0.66604 0.0
C479 C 0.75524 0.90228 0.66852 0.0
C480 C 0.76547 0.85894 0.65447 0.0
C481 C 0.74781 0.91439 0.65934 0.0
C482 C 0.75786 0.87177 0.64554 0.0
N483 N 0.74926 0.89903 0.64813 0.0
C484 C 0.76597 0.9259 0.70249 0.0
C485 C 0.77405 0.87278 0.71444 0.0
C486 C 0.76147 0.94554 0.71256 0.0
N487 N 0.77223 0.8905 0.70359 0.0
C488 C 0.76972 0.89149 0.72478 0.0
C489 C 0.76354 0.92889 0.72394 0.0
H490 H 0.76512 0.94035 0.69383 0.0
H491 H 0.77941 0.84553 0.71518 0.0
C492 C 0.79389 0.75714 0.6619 0.0
N493 N 0.78378 0.77371 0.66576 0.0
C494 C 0.79394 0.72077 0.6552 0.0
C495 C 0.77315 0.71815 0.65687 0.0
C496 C 0.7735 0.75492 0.66352 0.0
C497 C 0.78347 0.70079 0.65248 0.0
H498 H 0.80192 0.77293 0.66377 0.0
H499 H 0.76557 0.76892 0.66665 0.0
O500 O 0.79101 0.92187 0.68517 0.0
O501 O 0.79696 0.86057 0.66474 0.0
O502 O 0.79156 0.8265 0.69004 0.0
O503 O 0.77173 0.86304 0.67481 0.0
H504 H 0.79135 0.00234 0.68911 0.0
H505 H 0.79942 0.88339 0.70433 0.0
H506 H 0.79809 0.03559 0.70783 0.0
H507 H 0.80598 0.91867 0.72273 0.0
H508 H 0.82375 0.85753 0.63514 0.0
H509 H 0.80434 0.9383 0.66669 0.0
H510 H 0.80849 0.82407 0.64735 0.0
H511 H 0.81964 0.96965 0.65417 0.0
H512 H 0.83832 0.94003 0.68806 0.0
H513 H 0.8381 0.80621 0.68949 0.0
H514 H 0.77187 0.04122 0.66034 0.0
H515 H 0.78307 0.96829 0.63012 0.0
H516 H 0.76954 0.80288 0.68925 0.0
H517 H 0.80277 0.77754 0.70486 0.0
H518 H 0.76137 0.74418 0.70067 0.0
H519 H 0.79397 0.71916 0.71606 0.0
H520 H 0.75408 0.91451 0.67742 0.0
H521 H 0.77243 0.83781 0.65236 0.0
H522 H 0.74089 0.93604 0.66111 0.0
H523 H 0.75882 0.86024 0.63653 0.0
H524 H 0.75699 0.97472 0.71148 0.0
H525 H 0.77149 0.8775 0.73337 0.0
H526 H 0.8021 0.70922 0.65188 0.0
H527 H 0.76489 0.70368 0.65513 0.0
Li528 Li 0.95019 0.87391 0.06847 0.0
Li529 Li 0.96525 0.90438 0.08006 0.0
Li530 Li 0.96958 0.87922 0.06067 0.0
Li531 Li 0.96521 0.8307 0.07718 0.0
C532 C 0.95492 0.94286 0.05465 0.0
N533 N 0.9471 0.97922 0.03384 0.0
C534 C 0.95526 0.98584 0.05333 0.0
C535 C 0.9506 0.91834 0.04538 0.0
C536 C 0.95127 0.00365 0.04274 0.0
C537 C 0.94669 0.93732 0.03493 0.0
C538 C 0.94508 0.88198 0.09238 0.0
C539 C 0.93108 0.87741 0.10826 0.0
N540 N 0.92779 0.9171 0.10604 0.0
C541 C 0.94157 0.92274 0.09026 0.0
C542 C 0.9398 0.85912 0.10145 0.0
C543 C 0.93282 0.93993 0.09726 0.0
C544 C 0.92897 0.83561 0.06499 0.0
N545 N 0.93405 0.87347 0.06533 0.0
C546 C 0.91568 0.90688 0.06394 0.0
C547 C 0.92771 0.90885 0.06465 0.0
C548 C 0.91015 0.86814 0.06397 0.0
C549 C 0.91698 0.83219 0.06426 0.0
H550 H 0.93424 0.80805 0.06565 0.0
H551 H 0.93196 0.93862 0.06512 0.0
C552 C 0.97388 0.98237 0.08611 0.0
N553 N 0.96899 0.94783 0.09084 0.0
C554 C 0.97613 0.01663 0.09334 0.0
C555 C 0.96838 0.97881 0.11017 0.0
C556 C 0.9665 0.945 0.10267 0.0
C557 C 0.97312 0.01528 0.10545 0.0
H558 H 0.97582 0.98351 0.07667 0.0
H559 H 0.96283 0.91686 0.10624 0.0
C560 C 0.96399 0.79732 0.05433 0.0
N561 N 0.97384 0.73208 0.04205 0.0
C562 C 0.97585 0.78982 0.0552 0.0
C563 C 0.95714 0.77163 0.04722 0.0
C564 C 0.98066 0.75668 0.04892 0.0
C565 C 0.96228 0.73882 0.04108 0.0
C566 C 0.9861 0.87859 0.08444 0.0
C567 C 0.99545 0.90481 0.08221 0.0
C568 C 0.98421 0.86376 0.096 0.0
C569 C 0.00274 0.91597 0.09161 0.0
C570 C 0.99169 0.87562 0.10516 0.0
N571 N 0.00072 0.90129 0.1028 0.0
C572 C 0.98529 0.92609 0.04777 0.0
C573 C 0.97586 0.87603 0.03579 0.0
C574 C 0.9905 0.94357 0.03774 0.0
N575 N 0.9781 0.8931 0.04664 0.0
C576 C 0.98085 0.89271 0.02548 0.0
C577 C 0.98814 0.92745 0.02635 0.0
H578 H 0.98657 0.93998 0.05645 0.0
H579 H 0.96978 0.85082 0.03504 0.0
C580 C 0.95728 0.7615 0.0888 0.0
N581 N 0.96724 0.77834 0.08466 0.0
C582 C 0.95749 0.72519 0.0955 0.0
C583 C 0.97824 0.72312 0.09323 0.0
C584 C 0.97763 0.75988 0.08661 0.0
C585 C 0.96807 0.70547 0.0979 0.0
H586 H 0.94916 0.77701 0.08712 0.0
H587 H 0.98543 0.7741 0.08324 0.0
O588 O 0.95901 0.92516 0.0649 0.0
O589 O 0.95357 0.86422 0.08559 0.0
O590 O 0.95901 0.82945 0.06039 0.0
O591 O 0.97867 0.86819 0.07544 0.0
H592 H 0.95862 0.00522 0.06041 0.0
H593 H 0.9503 0.88502 0.04619 0.0
H594 H 0.95149 0.03689 0.0416 0.0
H595 H 0.94335 0.91872 0.02769 0.0
H596 H 0.92692 0.86006 0.11531 0.0
H597 H 0.94555 0.941 0.08331 0.0
H598 H 0.94243 0.82755 0.10323 0.0
H599 H 0.93002 0.97142 0.09572 0.0
H600 H 0.91076 0.93538 0.06389 0.0
H601 H 0.9131 0.8017 0.06413 0.0
H602 H 0.97974 0.04441 0.08942 0.0
H603 H 0.96604 0.97674 0.11951 0.0
H604 H 0.98132 0.80932 0.06062 0.0
H605 H 0.94794 0.77705 0.04647 0.0
H606 H 0.98983 0.75054 0.04951 0.0
H607 H 0.95708 0.7187 0.03554 0.0
H608 H 0.99707 0.9165 0.07332 0.0
H609 H 0.97692 0.84393 0.09792 0.0
H610 H 0.00999 0.93635 0.09002 0.0
H611 H 0.99029 0.8646 0.11416 0.0
H612 H 0.99615 0.96999 0.03889 0.0
H613 H 0.97861 0.87966 0.01689 0.0
H614 H 0.94944 0.71346 0.09905 0.0
H615 H 0.98657 0.70886 0.09473 0.0
Li616 Li 0.78196 0.8708 0.06119 0.0
Li617 Li 0.78608 0.91842 0.07813 0.0
Li618 Li 0.80142 0.87812 0.06869 0.0
Li619 Li 0.78699 0.84419 0.08026 0.0
C620 C 0.78651 0.95397 0.05541 0.0
N621 N 0.77564 0.01804 0.04356 0.0
C622 C 0.77483 0.96221 0.05751 0.0
C623 C 0.79266 0.97834 0.0473 0.0
C624 C 0.76949 0.99474 0.05143 0.0
C625 C 0.787 0.01058 0.04139 0.0
C626 C 0.76558 0.86409 0.08468 0.0
C627 C 0.7592 0.86035 0.10515 0.0
N628 N 0.75083 0.83311 0.10188 0.0
C629 C 0.75687 0.83622 0.08152 0.0
C630 C 0.76674 0.87638 0.09658 0.0
C631 C 0.74951 0.82085 0.09035 0.0
C632 C 0.7678 0.81956 0.04802 0.0
N633 N 0.77345 0.85633 0.04718 0.0
C634 C 0.77011 0.85835 0.02611 0.0
C635 C 0.77458 0.87615 0.03653 0.0
C636 C 0.76447 0.81984 0.02669 0.0
C637 C 0.76314 0.80088 0.03788 0.0
H638 H 0.76754 0.8035 0.05647 0.0
H639 H 0.77948 0.90455 0.03598 0.0
C640 C 0.79371 0.9903 0.08859 0.0
N641 N 0.78377 0.96937 0.08639 0.0
C642 C 0.79375 0.02415 0.09631 0.0
C643 C 0.77318 0.01568 0.09898 0.0
C644 C 0.77353 0.98194 0.09111 0.0
C645 C 0.78346 0.03647 0.10196 0.0
H646 H 0.80172 0.97951 0.08471 0.0
H647 H 0.76574 0.96466 0.08923 0.0
C648 C 0.79726 0.81046 0.05428 0.0
N649 N 0.80515 0.77821 0.03294 0.0
C650 C 0.79784 0.76764 0.05264 0.0
C651 C 0.80072 0.8369 0.04506 0.0
C652 C 0.80185 0.75193 0.04178 0.0
C653 C 0.80467 0.81999 0.03434 0.0
C654 C 0.8071 0.86961 0.09251 0.0
C655 C 0.81098 0.82919 0.09056 0.0
C656 C 0.81243 0.89409 0.10119 0.0
C657 C 0.82015 0.81392 0.09736 0.0
C658 C 0.82158 0.87768 0.1078 0.0
N659 N 0.82522 0.83828 0.10576 0.0
C660 C 0.82266 0.91735 0.064 0.0
C661 C 0.82362 0.84406 0.06414 0.0
C662 C 0.83457 0.92003 0.06217 0.0
N663 N 0.81748 0.87978 0.06502 0.0
C664 C 0.83553 0.84528 0.06231 0.0
C665 C 0.84119 0.88364 0.06145 0.0
H666 H 0.81755 0.94524 0.06486 0.0
H667 H 0.81933 0.81455 0.06508 0.0
C668 C 0.78134 0.76223 0.08572 0.0
N669 N 0.78419 0.79906 0.09076 0.0
C670 C 0.77981 0.72722 0.09284 0.0
C671 C 0.78378 0.76914 0.11024 0.0
C672 C 0.78536 0.80324 0.10277 0.0
C673 C 0.78113 0.73027 0.10528 0.0
H674 H 0.78046 0.75995 0.07614 0.0
H675 H 0.78761 0.833 0.10653 0.0
O676 O 0.79199 0.92229 0.0612 0.0
O677 O 0.77302 0.87892 0.07621 0.0
O678 O 0.79313 0.82609 0.06481 0.0
O679 O 0.7982 0.88549 0.08592 0.0
H680 H 0.76991 0.9438 0.06375 0.0
H681 H 0.8017 0.97232 0.04559 0.0
H682 H 0.76046 0.00147 0.05296 0.0
H683 H 0.79165 0.02966 0.03508 0.0
H684 H 0.76007 0.86936 0.1144 0.0
H685 H 0.75578 0.82661 0.07235 0.0
H686 H 0.77355 0.8974 0.09922 0.0
H687 H 0.74276 0.79918 0.08803 0.0
H688 H 0.77133 0.87399 0.01766 0.0
H689 H 0.75911 0.77078 0.03871 0.0
H690 H 0.80184 0.03976 0.0981 0.0
H691 H 0.76506 0.02399 0.10313 0.0
H692 H 0.79518 0.74673 0.05967 0.0
H693 H 0.80033 0.87011 0.04612 0.0
H694 H 0.80232 0.71884 0.04039 0.0
H695 H 0.80735 0.84009 0.02713 0.0
H696 H 0.80699 0.80981 0.08386 0.0
H697 H 0.80953 0.92547 0.10278 0.0
H698 H 0.82325 0.78272 0.09593 0.0
H699 H 0.82579 0.89629 0.11454 0.0
H700 H 0.83859 0.95025 0.0617 0.0
H701 H 0.84026 0.81645 0.06165 0.0
H702 H 0.77794 0.69791 0.08858 0.0
H703 H 0.78469 0.7732 0.11978 0.0
Li704 Li 0.03103 0.62711 0.80912 0.0
Li705 Li 0.03542 0.65243 0.8289 0.0
Li706 Li 0.05029 0.61712 0.81626 0.0
Li707 Li 0.03449 0.57611 0.8255 0.0
C708 C 0.04044 0.70116 0.80571 0.0
N709 N 0.03562 0.76197 0.78909 0.0
C710 C 0.03281 0.73324 0.80852 0.0
C711 C 0.04574 0.70035 0.7945 0.0
C712 C 0.03046 0.76364 0.79999 0.0
C713 C 0.04315 0.73126 0.7862 0.0
C714 C 0.014 0.61344 0.8332 0.0
C715 C 0.00992 0.60547 0.85418 0.0
N716 N 0.99848 0.60197 0.85163 0.0
C717 C 0.00221 0.60993 0.83078 0.0
C718 C 0.0179 0.61133 0.84498 0.0
C719 C 0.9945 0.60409 0.84022 0.0
C720 C 0.0262 0.63279 0.78425 0.0
N721 N 0.02232 0.64267 0.79534 0.0
C722 C 0.00877 0.69077 0.78715 0.0
C723 C 0.01351 0.66995 0.79693 0.0
C724 C 0.01315 0.68337 0.77565 0.0
C725 C 0.02171 0.65289 0.77423 0.0
H726 H 0.03322 0.61114 0.78323 0.0
H727 H 0.01074 0.67772 0.80587 0.0
C728 C 0.0422 0.71323 0.84556 0.0
N729 N 0.03295 0.69672 0.83984 0.0
C730 C 0.04087 0.74766 0.85293 0.0
C731 C 0.02049 0.74809 0.84824 0.0
C732 C 0.02222 0.71341 0.84101 0.0
C733 C 0.02991 0.76571 0.85428 0.0
H734 H 0.05069 0.70051 0.84412 0.0
H735 H 0.01505 0.70049 0.83609 0.0
C736 C 0.04751 0.55167 0.80184 0.0
N737 N 0.06297 0.50556 0.78855 0.0
C738 C 0.04915 0.50969 0.80434 0.0
C739 C 0.05361 0.57002 0.79247 0.0
C740 C 0.05703 0.48694 0.79755 0.0
C741 C 0.06142 0.54625 0.78589 0.0
C742 C 0.05339 0.60942 0.84322 0.0
C743 C 0.0638 0.63134 0.84315 0.0
C744 C 0.05011 0.58783 0.8535 0.0
C745 C 0.07069 0.63164 0.85338 0.0
C746 C 0.05724 0.58886 0.86354 0.0
N747 N 0.0673 0.61057 0.86328 0.0
C748 C 0.07158 0.65297 0.81001 0.0
C749 C 0.07267 0.58117 0.81429 0.0
C750 C 0.08351 0.65484 0.80834 0.0
N751 N 0.06643 0.61655 0.81294 0.0
C752 C 0.0846 0.58147 0.81247 0.0
C753 C 0.09015 0.61878 0.80959 0.0
H754 H 0.06646 0.68082 0.80928 0.0
H755 H 0.0684 0.55288 0.81696 0.0
C756 C 0.02146 0.50942 0.83682 0.0
N757 N 0.03194 0.52424 0.83337 0.0
C758 C 0.02073 0.47327 0.84371 0.0
C759 C 0.04152 0.46768 0.84294 0.0
C760 C 0.04185 0.50399 0.83622 0.0
C761 C 0.03087 0.45204 0.84689 0.0
H762 H 0.01367 0.52589 0.83444 0.0
H763 H 0.05008 0.51668 0.83347 0.0
O764 O 0.04258 0.67042 0.81383 0.0
O765 O 0.02164 0.61899 0.82402 0.0
O766 O 0.03986 0.57446 0.80846 0.0
O767 O 0.04662 0.60813 0.8332 0.0
H768 H 0.02862 0.73437 0.81713 0.0
H769 H 0.05169 0.67587 0.79218 0.0
H770 H 0.0245 0.78844 0.80201 0.0
H771 H 0.04709 0.73075 0.77745 0.0
H772 H 0.01283 0.60378 0.86334 0.0
H773 H 0.99906 0.61161 0.8217 0.0
H774 H 0.02696 0.61449 0.84701 0.0
H775 H 0.98534 0.60123 0.83848 0.0
H776 H 0.00226 0.71423 0.78868 0.0
H777 H 0.02521 0.64572 0.76551 0.0
H778 H 0.0484 0.76087 0.85721 0.0
H779 H 0.01191 0.76113 0.84904 0.0
H780 H 0.04435 0.49474 0.8114 0.0
H781 H 0.05249 0.60246 0.79043 0.0
H782 H 0.05842 0.45447 0.79942 0.0
H783 H 0.06628 0.5602 0.77869 0.0
H784 H 0.06647 0.64845 0.83533 0.0
H785 H 0.04216 0.57031 0.85373 0.0
H786 H 0.07874 0.64867 0.85344 0.0
H787 H 0.05479 0.57232 0.87155 0.0
H788 H 0.08752 0.68418 0.80617 0.0
H789 H 0.0895 0.5532 0.81367 0.0
H790 H 0.01234 0.46204 0.8465 0.0
H791 H 0.04956 0.45267 0.84531 0.0
Li792 Li 0.19856 0.64146 0.81895 0.0
Li793 Li 0.21526 0.67322 0.82916 0.0
Li794 Li 0.21785 0.62803 0.81156 0.0
Li795 Li 0.21217 0.59969 0.83085 0.0
C796 C 0.20323 0.71082 0.80673 0.0
N797 N 0.18914 0.7679 0.79556 0.0
C798 C 0.20216 0.75083 0.81135 0.0
C799 C 0.19719 0.69988 0.7964 0.0
C800 C 0.19498 0.77924 0.80557 0.0
C801 C 0.19008 0.72916 0.7909 0.0
C802 C 0.19709 0.62906 0.84637 0.0
C803 C 0.19901 0.60565 0.86672 0.0
N804 N 0.18774 0.5938 0.86666 0.0
C805 C 0.18551 0.61689 0.84654 0.0
C806 C 0.20388 0.62367 0.85657 0.0
C807 C 0.18095 0.59907 0.85687 0.0
C808 C 0.17661 0.61189 0.81267 0.0
N809 N 0.18253 0.64686 0.81549 0.0
C810 C 0.16501 0.6859 0.81608 0.0
C811 C 0.17699 0.68344 0.81725 0.0
C812 C 0.15857 0.64999 0.81354 0.0
C813 C 0.16459 0.61269 0.8117 0.0
H814 H 0.18118 0.58291 0.8117 0.0
H815 H 0.18182 0.71051 0.8199 0.0
C816 C 0.22819 0.74833 0.8342 0.0
N817 N 0.21997 0.72129 0.83804 0.0
C818 C 0.23107 0.78296 0.84114 0.0
C819 C 0.21695 0.76131 0.85571 0.0
C820 C 0.21433 0.72745 0.84852 0.0
C821 C 0.22542 0.78969 0.85209 0.0
H822 H 0.23243 0.74323 0.82573 0.0
H823 H 0.2076 0.70647 0.85125 0.0
C824 C 0.20689 0.55816 0.80665 0.0
N825 N 0.21104 0.50033 0.78901 0.0
C826 C 0.21401 0.52417 0.80896 0.0
C827 C 0.20178 0.56255 0.79542 0.0
C828 C 0.21603 0.49531 0.79991 0.0
C829 C 0.20401 0.53303 0.78661 0.0
C830 C 0.2366 0.64639 0.83044 0.0
C831 C 0.24411 0.66375 0.82206 0.0
C832 C 0.23911 0.64964 0.84261 0.0
C833 C 0.25402 0.68426 0.82601 0.0
C834 C 0.24909 0.6705 0.8462 0.0
N835 N 0.25628 0.68722 0.83789 0.0
C836 C 0.22322 0.62607 0.78662 0.0
C837 C 0.23515 0.58535 0.79916 0.0
C838 C 0.2283 0.60871 0.77646 0.0
N839 N 0.22654 0.61349 0.79767 0.0
C840 C 0.24046 0.56725 0.78927 0.0
C841 C 0.23687 0.57814 0.7777 0.0
H842 H 0.21627 0.64807 0.78567 0.0
H843 H 0.23752 0.57556 0.80806 0.0
C844 C 0.20326 0.53053 0.84257 0.0
N845 N 0.21311 0.55258 0.8408 0.0
C846 C 0.2032 0.49715 0.85043 0.0
C847 C 0.22362 0.5079 0.85384 0.0
C848 C 0.22323 0.54176 0.8461 0.0
C849 C 0.21346 0.48575 0.85619 0.0
H850 H 0.19541 0.53947 0.83803 0.0
H851 H 0.23095 0.5596 0.84439 0.0
O852 O 0.21024 0.68265 0.81225 0.0
O853 O 0.20178 0.64594 0.83626 0.0
O854 O 0.20514 0.58752 0.81525 0.0
O855 O 0.22679 0.62665 0.82677 0.0
H856 H 0.20679 0.75982 0.81933 0.0
H857 H 0.19781 0.6689 0.7928 0.0
H858 H 0.19405 0.81029 0.80905 0.0
H859 H 0.18529 0.72103 0.78296 0.0
H860 H 0.2042 0.60095 0.87464 0.0
H861 H 0.1801 0.62093 0.83876 0.0
H862 H 0.21288 0.63277 0.85659 0.0
H863 H 0.17202 0.58934 0.85711 0.0
H864 H 0.16085 0.71555 0.8174 0.0
H865 H 0.16009 0.58391 0.81003 0.0
H866 H 0.23763 0.80417 0.83798 0.0
H867 H 0.21213 0.7658 0.86389 0.0
H868 H 0.21808 0.52047 0.81758 0.0
H869 H 0.19628 0.5888 0.7935 0.0
H870 H 0.2216 0.46903 0.80152 0.0
H871 H 0.2002 0.5362 0.77784 0.0
H872 H 0.24225 0.66174 0.81261 0.0
H873 H 0.23336 0.63655 0.84921 0.0
H874 H 0.25989 0.69797 0.81962 0.0
H875 H 0.25112 0.67346 0.85558 0.0
H876 H 0.22516 0.61779 0.76774 0.0
H877 H 0.24715 0.54435 0.79067 0.0
H878 H 0.19525 0.48031 0.85197 0.0
H879 H 0.23167 0.49969 0.85815 0.0
Li880 Li 0.03637 0.668 0.42325 0.0
Li881 Li 0.0531 0.63704 0.43314 0.0
Li882 Li 0.03951 0.59468 0.42031 0.0
Li883 Li 0.03332 0.6179 0.44012 0.0
C884 C 0.05304 0.66833 0.40718 0.0
N885 N 0.05876 0.72673 0.39017 0.0
C886 C 0.06109 0.69925 0.40982 0.0
C887 C 0.04799 0.66685 0.39586 0.0
C888 C 0.06386 0.72852 0.4011 0.0
C889 C 0.05097 0.69676 0.3874 0.0
C890 C 0.04464 0.68998 0.45121 0.0
C891 C 0.04995 0.68056 0.47186 0.0
N892 N 0.05175 0.722 0.47289 0.0
C893 C 0.04649 0.73252 0.4525 0.0
C894 C 0.04635 0.66382 0.46099 0.0
C895 C 0.05011 0.74808 0.46352 0.0
C896 C 0.02338 0.71704 0.40671 0.0
N897 N 0.03169 0.71792 0.41529 0.0
C898 C 0.03603 0.78853 0.41066 0.0
C899 C 0.03786 0.7529 0.41747 0.0
C900 C 0.02782 0.78806 0.40143 0.0
C901 C 0.02133 0.75187 0.3996 0.0
H902 H 0.01859 0.68894 0.4051 0.0
H903 H 0.04462 0.75249 0.4241 0.0
C904 C 0.07608 0.62212 0.42875 0.0
N905 N 0.0692 0.6424 0.43664 0.0
C906 C 0.08805 0.62281 0.43003 0.0
C907 C 0.08574 0.66487 0.44769 0.0
C908 C 0.07378 0.66389 0.44595 0.0
C909 C 0.09308 0.64409 0.43967 0.0
H910 H 0.07221 0.60551 0.42138 0.0
H911 H 0.06824 0.68004 0.45211 0.0
C912 C 0.01657 0.60179 0.41839 0.0
N913 N 0.00028 0.55787 0.40556 0.0
C914 C 0.00787 0.58002 0.42433 0.0
C915 C 0.0169 0.60161 0.40592 0.0
C916 C 0.99973 0.55792 0.41768 0.0
C917 C 0.00862 0.5791 0.39959 0.0
C918 C 0.05003 0.55141 0.44371 0.0
C919 C 0.04644 0.51041 0.44221 0.0
C920 C 0.05764 0.56114 0.45299 0.0
C921 C 0.05024 0.48014 0.4502 0.0
C922 C 0.06125 0.53001 0.4608 0.0
N923 N 0.05749 0.49049 0.45927 0.0
C924 C 0.04641 0.54694 0.4004 0.0
C925 C 0.03175 0.5165 0.41227 0.0
C926 C 0.04672 0.51207 0.39303 0.0
N927 N 0.03902 0.5484 0.40981 0.0
C928 C 0.03175 0.48112 0.40514 0.0
C929 C 0.03938 0.47842 0.39542 0.0
H930 H 0.05219 0.57258 0.39873 0.0
H931 H 0.02609 0.51821 0.41993 0.0
C932 C 0.02032 0.62484 0.46215 0.0
N933 N 0.0241 0.59929 0.45333 0.0
C934 C 0.01431 0.6087 0.47195 0.0
C935 C 0.01554 0.54084 0.463 0.0
C936 C 0.0216 0.5582 0.45347 0.0
C937 C 0.01198 0.56598 0.47255 0.0
H938 H 0.02213 0.65764 0.46171 0.0
H939 H 0.02426 0.53886 0.44611 0.0
O940 O 0.04995 0.64018 0.41572 0.0
O941 O 0.0411 0.67429 0.44046 0.0
O942 O 0.02467 0.62327 0.42477 0.0
O943 O 0.04648 0.58142 0.43588 0.0
H944 H 0.06501 0.70105 0.41857 0.0
H945 H 0.04177 0.64309 0.39367 0.0
H946 H 0.07 0.75281 0.40304 0.0
H947 H 0.04706 0.6962 0.37863 0.0
H948 H 0.0513 0.66059 0.47949 0.0
H949 H 0.04514 0.75337 0.44509 0.0
H950 H 0.04485 0.63098 0.46023 0.0
H951 H 0.0516 0.78092 0.46462 0.0
H952 H 0.04134 0.81555 0.41226 0.0
H953 H 0.01485 0.75035 0.39265 0.0
H954 H 0.09329 0.60714 0.42343 0.0
H955 H 0.08916 0.68131 0.45533 0.0
H956 H 0.00736 0.58028 0.43396 0.0
H957 H 0.02361 0.61803 0.40117 0.0
H958 H 0.99297 0.54083 0.42217 0.0
H959 H 0.00885 0.57838 0.38994 0.0
H960 H 0.04072 0.502 0.435 0.0
H961 H 0.0608 0.59231 0.45416 0.0
H962 H 0.04743 0.4484 0.44919 0.0
H963 H 0.06709 0.53724 0.46804 0.0
H964 H 0.05266 0.51144 0.38557 0.0
H965 H 0.02607 0.45569 0.40742 0.0
H966 H 0.01177 0.62939 0.47908 0.0
H967 H 0.01363 0.50804 0.46283 0.0
Li968 Li 0.22183 0.63109 0.44166 0.0
Li969 Li 0.21638 0.66227 0.4228 0.0
Li970 Li 0.20199 0.62036 0.4351 0.0
Li971 Li 0.21787 0.58516 0.42421 0.0
C972 C 0.21146 0.70197 0.44748 0.0
N973 N 0.21586 0.75764 0.46562 0.0
C974 C 0.21943 0.7339 0.44577 0.0
C975 C 0.20558 0.69872 0.45833 0.0
C976 C 0.22157 0.76165 0.45507 0.0
C977 C 0.20797 0.72708 0.46741 0.0
C978 C 0.23805 0.62805 0.41677 0.0
C979 C 0.24185 0.62392 0.39564 0.0
N980 N 0.25333 0.6286 0.39783 0.0
C981 C 0.24988 0.63278 0.41882 0.0
C982 C 0.234 0.62358 0.4051 0.0
C983 C 0.25746 0.63299 0.40913 0.0
C984 C 0.22837 0.63555 0.46648 0.0
N985 N 0.2314 0.64478 0.45506 0.0
C986 C 0.24648 0.68942 0.46196 0.0
C987 C 0.24044 0.67037 0.45267 0.0
C988 C 0.24317 0.68219 0.47384 0.0
C989 C 0.23416 0.654 0.47605 0.0
H990 H 0.22112 0.61548 0.46819 0.0
H991 H 0.24248 0.67803 0.44352 0.0
C992 C 0.20759 0.7279 0.40954 0.0
N993 N 0.21763 0.70989 0.41306 0.0
C994 C 0.20778 0.76402 0.40272 0.0
C995 C 0.22865 0.76248 0.40334 0.0
C996 C 0.22805 0.72658 0.41024 0.0
C997 C 0.21842 0.78178 0.3995 0.0
H998 H 0.19943 0.7143 0.41215 0.0
H999 H 0.2359 0.71235 0.41343 0.0
C1000 C 0.20801 0.55183 0.44916 0.0
N1001 N 0.19734 0.49911 0.46513 0.0
C1002 C 0.20782 0.50923 0.447 0.0
C1003 C 0.20276 0.56763 0.45942 0.0
C1004 C 0.20238 0.48307 0.45519 0.0
C1005 C 0.19742 0.54047 0.4674 0.0
C1006 C 0.19858 0.61121 0.40798 0.0
C1007 C 0.18899 0.58517 0.40898 0.0
C1008 C 0.20111 0.62946 0.39696 0.0
C1009 C 0.18224 0.57711 0.39891 0.0
C1010 C 0.19414 0.62068 0.38711 0.0
N1011 N 0.18494 0.59486 0.38827 0.0
C1012 C 0.17977 0.65276 0.43708 0.0
C1013 C 0.18049 0.58092 0.44122 0.0
C1014 C 0.16773 0.65255 0.43792 0.0
N1015 N 0.18587 0.61722 0.43861 0.0
C1016 C 0.1685 0.57944 0.44237 0.0
C1017 C 0.16188 0.61538 0.44045 0.0
H1018 H 0.18425 0.68101 0.43475 0.0
H1019 H 0.18541 0.55267 0.44194 0.0
C1020 C 0.2309 0.5246 0.41024 0.0
N1021 N 0.22055 0.5357 0.41506 0.0
C1022 C 0.23148 0.49251 0.40184 0.0
C1023 C 0.21096 0.48211 0.40422 0.0
C1024 C 0.21081 0.51391 0.41262 0.0
C1025 C 0.22131 0.47195 0.39843 0.0
H1026 H 0.23863 0.54155 0.41253 0.0
H1027 H 0.20281 0.52217 0.41694 0.0
O1028 O 0.20955 0.67364 0.43863 0.0
O1029 O 0.2305 0.62844 0.42617 0.0
O1030 O 0.21323 0.5778 0.44117 0.0
O1031 O 0.20522 0.61991 0.4178 0.0
H1032 H 0.22405 0.73678 0.43741 0.0
H1033 H 0.1993 0.67441 0.45974 0.0
H1034 H 0.22781 0.78624 0.45393 0.0
H1035 H 0.20356 0.72476 0.4759 0.0
H1036 H 0.23883 0.62036 0.38657 0.0
H1037 H 0.25316 0.63628 0.42781 0.0
H1038 H 0.22492 0.61936 0.40339 0.0
H1039 H 0.26664 0.63665 0.41058 0.0
H1040 H 0.25325 0.71128 0.45982 0.0
H1041 H 0.23143 0.64707 0.48507 0.0
H1042 H 0.19967 0.77823 0.4002 0.0
H1043 H 0.23704 0.77482 0.40101 0.0
H1044 H 0.21184 0.4965 0.43909 0.0
H1045 H 0.2026 0.60058 0.46108 0.0
H1046 H 0.20217 0.45003 0.45364 0.0
H1047 H 0.19327 0.55231 0.47535 0.0
H1048 H 0.18682 0.57097 0.41741 0.0
H1049 H 0.20832 0.65042 0.396 0.0
H1050 H 0.17485 0.55677 0.39957 0.0
H1051 H 0.19603 0.63451 0.37853 0.0
H1052 H 0.16308 0.68091 0.43611 0.0
H1053 H 0.16446 0.55014 0.44449 0.0
H1054 H 0.23966 0.48526 0.39763 0.0
H1055 H 0.20298 0.46626 0.40205 0.0
Li1056 Li 0.96978 0.36559 0.18773 0.0
Li1057 Li 0.9668 0.41097 0.17039 0.0
Li1058 Li 0.95041 0.37764 0.17973 0.0
Li1059 Li 0.96492 0.33802 0.16828 0.0
C1060 C 0.96678 0.44985 0.19282 0.0
N1061 N 0.97886 0.51167 0.20443 0.0
C1062 C 0.97849 0.4562 0.19034 0.0
C1063 C 0.96122 0.475 0.20118 0.0
C1064 C 0.98444 0.48761 0.19631 0.0
C1065 C 0.96748 0.50606 0.20697 0.0
C1066 C 0.98771 0.34881 0.167 0.0
C1067 C 0.99672 0.32696 0.14864 0.0
N1068 N 0.00489 0.30637 0.15502 0.0
C1069 C 0.99627 0.32783 0.17338 0.0
C1070 C 0.988 0.34877 0.15453 0.0
C1071 C 0.00485 0.30642 0.16716 0.0
C1072 C 0.9812 0.30952 0.20199 0.0
N1073 N 0.97782 0.34982 0.20195 0.0
C1074 C 0.98424 0.35801 0.22212 0.0
C1075 C 0.97922 0.37419 0.21175 0.0
C1076 C 0.98767 0.31626 0.22243 0.0
C1077 C 0.98617 0.29205 0.21215 0.0
H1078 H 0.97981 0.29065 0.19414 0.0
H1079 H 0.97619 0.40578 0.2117 0.0
C1080 C 0.96312 0.4919 0.16212 0.0
N1081 N 0.97099 0.46066 0.16213 0.0
C1082 C 0.96456 0.52588 0.15458 0.0
C1083 C 0.98274 0.49697 0.14803 0.0
C1084 C 0.98082 0.46299 0.15552 0.0
C1085 C 0.97437 0.52823 0.14727 0.0
H1086 H 0.95544 0.48942 0.16757 0.0
H1087 H 0.98698 0.43789 0.15574 0.0
C1088 C 0.95313 0.30822 0.19403 0.0
N1089 N 0.94388 0.2759 0.21475 0.0
C1090 C 0.9515 0.26556 0.19516 0.0
C1091 C 0.95008 0.33448 0.20343 0.0
C1092 C 0.9468 0.24981 0.20571 0.0
C1093 C 0.94541 0.31753 0.21383 0.0
C1094 C 0.95054 0.40535 0.15351 0.0
C1095 C 0.94101 0.43139 0.15504 0.0
C1096 C 0.95658 0.40586 0.1427 0.0
C1097 C 0.93783 0.45815 0.14581 0.0
C1098 C 0.95315 0.43316 0.13371 0.0
N1099 N 0.94393 0.45855 0.13544 0.0
C1100 C 0.92981 0.41524 0.18824 0.0
C1101 C 0.92779 0.34791 0.18007 0.0
C1102 C 0.91789 0.41799 0.19 0.0
N1103 N 0.93445 0.38072 0.18324 0.0
C1104 C 0.91586 0.34924 0.18171 0.0
C1105 C 0.91073 0.38483 0.18661 0.0
H1106 H 0.93534 0.44091 0.19062 0.0
H1107 H 0.93176 0.32101 0.17604 0.0
C1108 C 0.97377 0.25974 0.16136 0.0
N1109 N 0.96638 0.29079 0.15837 0.0
C1110 C 0.97415 0.22357 0.15454 0.0
C1111 C 0.95907 0.25161 0.14197 0.0
C1112 C 0.95914 0.28752 0.14887 0.0
C1113 C 0.9666 0.21908 0.14484 0.0
H1114 H 0.97918 0.26271 0.16917 0.0
H1115 H 0.9532 0.31236 0.14686 0.0
O1116 O 0.9607 0.41945 0.18709 0.0
O1117 O 0.97918 0.36968 0.17294 0.0
O1118 O 0.95788 0.32393 0.1838 0.0
O1119 O 0.95396 0.37963 0.16255 0.0
H1120 H 0.98297 0.43718 0.18391 0.0
H1121 H 0.95217 0.47048 0.2032 0.0
H1122 H 0.99349 0.49284 0.19449 0.0
H1123 H 0.96329 0.5257 0.21348 0.0
H1124 H 0.99699 0.32638 0.13899 0.0
H1125 H 0.99632 0.32821 0.18302 0.0
H1126 H 0.9815 0.36506 0.14945 0.0
H1127 H 0.0115 0.2899 0.17199 0.0
H1128 H 0.98511 0.3776 0.22991 0.0
H1129 H 0.98879 0.25988 0.21195 0.0
H1130 H 0.95798 0.54968 0.15428 0.0
H1131 H 0.99041 0.49789 0.1425 0.0
H1132 H 0.95387 0.24485 0.18797 0.0
H1133 H 0.95134 0.36756 0.20275 0.0
H1134 H 0.94549 0.21684 0.20672 0.0
H1135 H 0.94302 0.33746 0.22119 0.0
H1136 H 0.93622 0.43139 0.16331 0.0
H1137 H 0.96388 0.3856 0.1413 0.0
H1138 H 0.93054 0.47873 0.14692 0.0
H1139 H 0.95782 0.43417 0.12535 0.0
H1140 H 0.9143 0.44585 0.19389 0.0
H1141 H 0.91067 0.32323 0.17882 0.0
H1142 H 0.97996 0.1988 0.15707 0.0
H1143 H 0.95313 0.24906 0.13454 0.0
Li1144 Li 0.80243 0.37213 0.1838 0.0
Li1145 Li 0.78825 0.41554 0.17207 0.0
Li1146 Li 0.78253 0.38219 0.19063 0.0
Li1147 Li 0.78518 0.3409 0.17292 0.0
C1148 C 0.79317 0.45248 0.19698 0.0
N1149 N 0.78866 0.50701 0.21539 0.0
C1150 C 0.78597 0.48659 0.19508 0.0
C1151 C 0.79816 0.44629 0.20819 0.0
C1152 C 0.78379 0.51378 0.20451 0.0
C1153 C 0.79574 0.47415 0.2174 0.0
C1154 C 0.80329 0.38296 0.15583 0.0
C1155 C 0.80143 0.39405 0.13464 0.0
N1156 N 0.81243 0.40872 0.13431 0.0
C1157 C 0.81461 0.39778 0.15528 0.0
C1158 C 0.79666 0.38074 0.14543 0.0
C1159 C 0.81907 0.4108 0.14432 0.0
C1160 C 0.82381 0.3305 0.18469 0.0
N1161 N 0.81829 0.36639 0.1874 0.0
C1162 C 0.83603 0.39783 0.1934 0.0
C1163 C 0.8241 0.39968 0.19174 0.0
C1164 C 0.84206 0.36152 0.19041 0.0
C1165 C 0.83576 0.32733 0.18615 0.0
H1166 H 0.81896 0.30477 0.18107 0.0
H1167 H 0.8195 0.42805 0.19364 0.0
C1168 C 0.77718 0.47938 0.15884 0.0
N1169 N 0.78747 0.4643 0.16272 0.0
C1170 C 0.77676 0.5163 0.15236 0.0
C1171 C 0.79753 0.52132 0.15404 0.0
C1172 C 0.79752 0.48467 0.1606 0.0
C1173 C 0.78705 0.53782 0.14986 0.0
H1174 H 0.76928 0.46318 0.16096 0.0
H1175 H 0.80553 0.47255 0.1641 0.0
C1176 C 0.78662 0.30006 0.1967 0.0
N1177 N 0.77703 0.24173 0.21174 0.0
C1178 C 0.77519 0.28747 0.1951 0.0
C1179 C 0.7932 0.28294 0.20591 0.0
C1180 C 0.77049 0.25795 0.20281 0.0
C1181 C 0.78819 0.2535 0.21343 0.0
C1182 C 0.76357 0.37473 0.17042 0.0
C1183 C 0.75441 0.36066 0.17746 0.0
C1184 C 0.76224 0.37721 0.15804 0.0
C1185 C 0.7441 0.34877 0.17197 0.0
C1186 C 0.7518 0.36498 0.15288 0.0
N1187 N 0.74303 0.35111 0.1599 0.0
C1188 C 0.7653 0.4217 0.20395 0.0
C1189 C 0.77778 0.3803 0.2157 0.0
C1190 C 0.76048 0.43936 0.21418 0.0
N1191 N 0.77398 0.39355 0.20488 0.0
C1192 C 0.77314 0.39693 0.22618 0.0
C1193 C 0.76462 0.42788 0.22551 0.0
H1194 H 0.76267 0.43257 0.19523 0.0
H1195 H 0.78492 0.35888 0.21623 0.0
C1196 C 0.79079 0.27851 0.1571 0.0
N1197 N 0.78153 0.29348 0.16319 0.0
C1198 C 0.78955 0.24553 0.14918 0.0
C1199 C 0.76926 0.24284 0.15404 0.0
C1200 C 0.77091 0.27597 0.16194 0.0
C1201 C 0.77867 0.22727 0.14749 0.0
H1202 H 0.79918 0.29255 0.15831 0.0
H1203 H 0.76368 0.28761 0.167 0.0
O1204 O 0.79511 0.4248 0.18796 0.0
O1205 O 0.79874 0.37046 0.16649 0.0
O1206 O 0.79135 0.32922 0.18934 0.0
O1207 O 0.77369 0.38672 0.17564 0.0
H1208 H 0.782 0.4917 0.18647 0.0
H1209 H 0.80367 0.41983 0.20982 0.0
H1210 H 0.77817 0.54015 0.20321 0.0
H1211 H 0.79945 0.46952 0.22616 0.0
H1212 H 0.79638 0.39267 0.12652 0.0
H1213 H 0.81986 0.39954 0.16325 0.0
H1214 H 0.78794 0.36881 0.14569 0.0
H1215 H 0.82779 0.42259 0.14376 0.0
H1216 H 0.84049 0.42476 0.19684 0.0
H1217 H 0.84006 0.29895 0.18356 0.0
H1218 H 0.76846 0.52821 0.14955 0.0
H1219 H 0.80569 0.53642 0.15224 0.0
H1220 H 0.77 0.3005 0.18803 0.0
H1221 H 0.80207 0.29248 0.20725 0.0
H1222 H 0.76164 0.24798 0.2017 0.0
H1223 H 0.79317 0.24004 0.22062 0.0
H1224 H 0.75527 0.35878 0.18706 0.0
H1225 H 0.7692 0.38841 0.15248 0.0
H1226 H 0.73696 0.33764 0.1773 0.0
H1227 H 0.75067 0.36655 0.14331 0.0
H1228 H 0.75408 0.46353 0.21316 0.0
H1229 H 0.77651 0.38671 0.2347 0.0
H1230 H 0.79704 0.23497 0.14424 0.0
H1231 H 0.76074 0.22934 0.15315 0.0
Li1232 Li 0.94993 0.37956 0.57221 0.0
Li1233 Li 0.96574 0.41273 0.58327 0.0
Li1234 Li 0.96907 0.38917 0.56315 0.0
Li1235 Li 0.96636 0.34066 0.57986 0.0
C1236 C 0.95303 0.45072 0.55891 0.0
N1237 N 0.94291 0.48866 0.53945 0.0
C1238 C 0.95164 0.49367 0.55871 0.0
C1239 C 0.94927 0.42703 0.54921 0.0
C1240 C 0.94651 0.51229 0.54879 0.0
C1241 C 0.94418 0.44681 0.53946 0.0
C1242 C 0.95087 0.34469 0.59759 0.0
C1243 C 0.95412 0.30697 0.61589 0.0
N1244 N 0.94372 0.28801 0.61456 0.0
C1245 C 0.94017 0.32502 0.59647 0.0
C1246 C 0.95786 0.33583 0.60745 0.0
C1247 C 0.93672 0.29643 0.60512 0.0
C1248 C 0.92755 0.34997 0.56523 0.0
N1249 N 0.93374 0.38216 0.56972 0.0
C1250 C 0.91658 0.4219 0.57256 0.0
C1251 C 0.92854 0.41776 0.57327 0.0
C1252 C 0.90984 0.38878 0.56834 0.0
C1253 C 0.91551 0.35258 0.56449 0.0
H1254 H 0.93194 0.3219 0.56256 0.0
H1255 H 0.9337 0.4428 0.57682 0.0
C1256 C 0.97219 0.49403 0.58962 0.0
N1257 N 0.96841 0.45716 0.59396 0.0
C1258 C 0.97273 0.52864 0.59708 0.0
C1259 C 0.96589 0.48608 0.61337 0.0
C1260 C 0.96543 0.45247 0.6056 0.0
C1261 C 0.96929 0.52507 0.60907 0.0
H1262 H 0.97436 0.49685 0.58027 0.0
H1263 H 0.96233 0.42298 0.60878 0.0
C1264 C 0.96406 0.30666 0.55687 0.0
N1265 N 0.97391 0.24403 0.54352 0.0
C1266 C 0.97563 0.29587 0.55862 0.0
C1267 C 0.95749 0.28551 0.54837 0.0
C1268 C 0.98045 0.26412 0.55177 0.0
C1269 C 0.96264 0.25399 0.54169 0.0
C1270 C 0.98772 0.40124 0.58321 0.0
C1271 C 0.99507 0.42812 0.57706 0.0
C1272 C 0.98903 0.39627 0.59553 0.0
C1273 C 0.00344 0.45023 0.58338 0.0
C1274 C 0.9975 0.41896 0.60154 0.0
N1275 N 0.00446 0.4453 0.59539 0.0
C1276 C 0.97979 0.44631 0.54841 0.0
C1277 C 0.97834 0.38094 0.53896 0.0
C1278 C 0.98494 0.4634 0.53829 0.0
N1279 N 0.97664 0.40575 0.54862 0.0
C1280 C 0.98357 0.39673 0.52865 0.0
C1281 C 0.98691 0.43854 0.52822 0.0
H1282 H 0.97825 0.46554 0.55615 0.0
H1283 H 0.97555 0.34912 0.5391 0.0
C1284 C 0.96193 0.25927 0.58763 0.0
N1285 N 0.97034 0.28853 0.58691 0.0
C1286 C 0.96344 0.2246 0.5949 0.0
C1287 C 0.98272 0.24843 0.5995 0.0
C1288 C 0.98075 0.28318 0.59234 0.0
C1289 C 0.97383 0.21952 0.60115 0.0
H1290 H 0.95378 0.2642 0.58314 0.0
H1291 H 0.98733 0.30672 0.59153 0.0
O1292 O 0.95814 0.43221 0.56854 0.0
O1293 O 0.95446 0.37236 0.58909 0.0
O1294 O 0.95905 0.33724 0.56354 0.0
O1295 O 0.97931 0.37991 0.57722 0.0
H1296 H 0.95453 0.51242 0.56615 0.0
H1297 H 0.9503 0.39376 0.54918 0.0
H1298 H 0.94538 0.54551 0.54851 0.0
H1299 H 0.94124 0.42888 0.53189 0.0
H1300 H 0.95952 0.29948 0.62347 0.0
H1301 H 0.9346 0.33148 0.58898 0.0
H1302 H 0.96619 0.35043 0.60848 0.0
H1303 H 0.92849 0.28086 0.60432 0.0
H1304 H 0.91266 0.45069 0.57539 0.0
H1305 H 0.91069 0.32607 0.56131 0.0
H1306 H 0.97529 0.55819 0.59337 0.0
H1307 H 0.96332 0.48182 0.62259 0.0
H1308 H 0.98087 0.31186 0.56513 0.0
H1309 H 0.94851 0.29343 0.54695 0.0
H1310 H 0.9894 0.25549 0.55301 0.0
H1311 H 0.95766 0.2374 0.53507 0.0
H1312 H 0.99436 0.43178 0.56751 0.0
H1313 H 0.98346 0.37555 0.60044 0.0
H1314 H 0.00915 0.47128 0.57873 0.0
H1315 H 0.99851 0.4157 0.61109 0.0
H1316 H 0.98747 0.49568 0.5384 0.0
H1317 H 0.98479 0.37662 0.52102 0.0
H1318 H 0.95643 0.20268 0.59593 0.0
H1319 H 0.99085 0.24534 0.6042 0.0
Li1320 Li 0.78173 0.36434 0.56151 0.0
Li1321 Li 0.78478 0.40551 0.57893 0.0
Li1322 Li 0.80144 0.37407 0.56886 0.0
Li1323 Li 0.78661 0.33018 0.58059 0.0
C1324 C 0.78513 0.44823 0.55682 0.0
N1325 N 0.77355 0.51128 0.54524 0.0
C1326 C 0.77365 0.45694 0.55969 0.0
C1327 C 0.79074 0.47164 0.54809 0.0
C1328 C 0.76794 0.48892 0.55374 0.0
C1329 C 0.78473 0.50337 0.54232 0.0
C1330 C 0.76213 0.36482 0.58143 0.0
C1331 C 0.74937 0.35554 0.59823 0.0
N1332 N 0.74043 0.37002 0.59157 0.0
C1333 C 0.75278 0.37916 0.5747 0.0
C1334 C 0.7604 0.35251 0.59325 0.0
C1335 C 0.74189 0.38175 0.58001 0.0
C1336 C 0.76477 0.32355 0.54831 0.0
N1337 N 0.77309 0.35306 0.54736 0.0
C1338 C 0.77119 0.35359 0.52611 0.0
C1339 C 0.77623 0.36879 0.53658 0.0
C1340 C 0.76298 0.32162 0.52679 0.0
C1341 C 0.75961 0.30722 0.53809 0.0
H1342 H 0.76261 0.3111 0.55698 0.0
H1343 H 0.78307 0.39148 0.53606 0.0
C1344 C 0.78975 0.48224 0.58927 0.0
N1345 N 0.78101 0.45441 0.58809 0.0
C1346 C 0.78864 0.51605 0.59695 0.0
C1347 C 0.76917 0.49413 0.60138 0.0
C1348 C 0.77075 0.46019 0.59379 0.0
C1349 C 0.77829 0.52198 0.60324 0.0
H1350 H 0.79776 0.47735 0.58451 0.0
H1351 H 0.76383 0.43825 0.59269 0.0
C1352 C 0.79277 0.29579 0.55496 0.0
N1353 N 0.78987 0.24643 0.53505 0.0
C1354 C 0.78608 0.25989 0.55565 0.0
C1355 C 0.79809 0.3064 0.54419 0.0
C1356 C 0.78469 0.23539 0.54547 0.0
C1357 C 0.79649 0.28108 0.53421 0.0
C1358 C 0.80004 0.39098 0.59693 0.0
C1359 C 0.80986 0.41566 0.59829 0.0
C1360 C 0.79254 0.38545 0.60657 0.0
C1361 C 0.8119 0.43512 0.60923 0.0
C1362 C 0.79486 0.40547 0.61736 0.0
N1363 N 0.8044 0.42973 0.61845 0.0
C1364 C 0.82306 0.41406 0.56617 0.0
C1365 C 0.82301 0.34192 0.56223 0.0
C1366 C 0.83501 0.41573 0.56449 0.0
N1367 N 0.81738 0.37741 0.56517 0.0
C1368 C 0.83492 0.34228 0.56031 0.0
C1369 C 0.84109 0.3794 0.56162 0.0
H1370 H 0.81834 0.44175 0.56856 0.0
H1371 H 0.81829 0.31313 0.56165 0.0
C1372 C 0.77549 0.25853 0.5897 0.0
N1373 N 0.78522 0.28205 0.58997 0.0
C1374 C 0.77498 0.22153 0.59614 0.0
C1375 C 0.79452 0.23384 0.60292 0.0
C1376 C 0.79461 0.27068 0.59644 0.0
C1377 C 0.78465 0.2086 0.60274 0.0
H1378 H 0.76822 0.26815 0.58431 0.0
H1379 H 0.80225 0.28998 0.59639 0.0
O1380 O 0.7909 0.41689 0.56245 0.0
O1381 O 0.77283 0.36173 0.57633 0.0
O1382 O 0.79389 0.32099 0.56469 0.0
O1383 O 0.79773 0.37259 0.5862 0.0
H1384 H 0.76922 0.43936 0.56648 0.0
H1385 H 0.79964 0.46524 0.54576 0.0
H1386 H 0.75904 0.49599 0.55588 0.0
H1387 H 0.78896 0.52169 0.53552 0.0
H1388 H 0.74793 0.34629 0.60739 0.0
H1389 H 0.75391 0.38813 0.56547 0.0
H1390 H 0.76747 0.34071 0.59853 0.0
H1391 H 0.73459 0.39297 0.57493 0.0
H1392 H 0.7741 0.36524 0.51756 0.0
H1393 H 0.75324 0.28287 0.539 0.0
H1394 H 0.79582 0.5372 0.59804 0.0
H1395 H 0.76105 0.49777 0.60606 0.0
H1396 H 0.78187 0.25136 0.56392 0.0
H1397 H 0.80324 0.33428 0.54349 0.0
H1398 H 0.77945 0.2077 0.54585 0.0
H1399 H 0.80047 0.28909 0.52579 0.0
H1400 H 0.81579 0.4201 0.59094 0.0
H1401 H 0.78497 0.36617 0.6057 0.0
H1402 H 0.81941 0.45459 0.61038 0.0
H1403 H 0.78908 0.40175 0.62486 0.0
H1404 H 0.83947 0.44498 0.56551 0.0
H1405 H 0.83931 0.31354 0.55826 0.0
H1406 H 0.76726 0.2027 0.59569 0.0
H1407 H 0.8021 0.22514 0.608 0.0
Li1408 Li 0.53014 0.13751 0.81044 0.0
Li1409 Li 0.53436 0.16228 0.83033 0.0
Li1410 Li 0.54946 0.12869 0.81761 0.0
Li1411 Li 0.53383 0.08615 0.82662 0.0
C1412 C 0.53923 0.21206 0.80721 0.0
N1413 N 0.53431 0.27261 0.79054 0.0
C1414 C 0.53109 0.24278 0.80976 0.0
C1415 C 0.54498 0.2125 0.79624 0.0
C1416 C 0.5287 0.27304 0.8012 0.0
C1417 C 0.54235 0.24328 0.78792 0.0
C1418 C 0.51302 0.12189 0.83428 0.0
C1419 C 0.50853 0.11376 0.85517 0.0
N1420 N 0.4972 0.10864 0.85234 0.0
C1421 C 0.50133 0.11675 0.83158 0.0
C1422 C 0.51665 0.12055 0.84616 0.0
C1423 C 0.49346 0.11001 0.84083 0.0
C1424 C 0.52497 0.14651 0.78559 0.0
N1425 N 0.52117 0.15334 0.79691 0.0
C1426 C 0.50659 0.1995 0.78982 0.0
C1427 C 0.51194 0.17813 0.79913 0.0
C1428 C 0.51075 0.1951 0.77811 0.0
C1429 C 0.51982 0.16713 0.77599 0.0
H1430 H 0.53241 0.12706 0.78408 0.0
H1431 H 0.50921 0.18341 0.80824 0.0
C1432 C 0.54088 0.22252 0.84717 0.0
N1433 N 0.5317 0.2062 0.84128 0.0
C1434 C 0.5395 0.25734 0.85438 0.0
C1435 C 0.51923 0.25843 0.84919 0.0
C1436 C 0.52099 0.22326 0.84217 0.0
C1437 C 0.52859 0.27599 0.85535 0.0
H1438 H 0.54936 0.20944 0.84595 0.0
H1439 H 0.51389 0.21037 0.83713 0.0
C1440 C 0.54711 0.06409 0.80284 0.0
N1441 N 0.56293 0.02062 0.78927 0.0
C1442 C 0.54918 0.02223 0.80515 0.0
C1443 C 0.55298 0.08368 0.79351 0.0
C1444 C 0.55724 0.00082 0.79822 0.0
C1445 C 0.56098 0.06123 0.78679 0.0
C1446 C 0.5522 0.11895 0.84477 0.0
C1447 C 0.56268 0.14039 0.84518 0.0
C1448 C 0.5485 0.09687 0.85481 0.0
C1449 C 0.56922 0.13979 0.85566 0.0
C1450 C 0.55529 0.09699 0.86511 0.0
N1451 N 0.56542 0.11828 0.86533 0.0
C1452 C 0.57046 0.16812 0.81268 0.0
C1453 C 0.57225 0.09559 0.81543 0.0
C1454 C 0.58242 0.17226 0.81181 0.0
N1455 N 0.56564 0.13029 0.81455 0.0
C1456 C 0.58425 0.09821 0.81434 0.0
C1457 C 0.58943 0.13705 0.81272 0.0
H1458 H 0.56504 0.19533 0.81235 0.0
H1459 H 0.56823 0.06609 0.81731 0.0
C1460 C 0.52093 0.01843 0.83751 0.0
N1461 N 0.53141 0.03378 0.83424 0.0
C1462 C 0.52022 0.98187 0.84421 0.0
C1463 C 0.54103 0.97696 0.84362 0.0
C1464 C 0.54134 0.01365 0.83708 0.0
C1465 C 0.53038 0.96077 0.84739 0.0
H1466 H 0.51313 0.03477 0.83513 0.0
H1467 H 0.54956 0.02676 0.83447 0.0
O1468 O 0.54141 0.18138 0.81533 0.0
O1469 O 0.5208 0.1283 0.82529 0.0
O1470 O 0.53929 0.08558 0.80958 0.0
O1471 O 0.54578 0.11857 0.8345 0.0
H1472 H 0.52653 0.24289 0.81817 0.0
H1473 H 0.55134 0.18913 0.79413 0.0
H1474 H 0.52233 0.29673 0.803 0.0
H1475 H 0.54667 0.24377 0.77936 0.0
H1476 H 0.51123 0.11264 0.8644 0.0
H1477 H 0.49838 0.11783 0.82241 0.0
H1478 H 0.52562 0.12506 0.84841 0.0
H1479 H 0.48439 0.10586 0.83887 0.0
H1480 H 0.49952 0.22036 0.79182 0.0
H1481 H 0.52335 0.16306 0.76712 0.0
H1482 H 0.54698 0.27046 0.85878 0.0
H1483 H 0.51069 0.27198 0.84971 0.0
H1484 H 0.54458 0.00635 0.81219 0.0
H1485 H 0.55152 0.11603 0.79161 0.0
H1486 H 0.55895 0.96845 0.79994 0.0
H1487 H 0.56566 0.07613 0.77962 0.0
H1488 H 0.56568 0.15781 0.83756 0.0
H1489 H 0.5405 0.07963 0.85466 0.0
H1490 H 0.57731 0.15645 0.85611 0.0
H1491 H 0.55252 0.08008 0.87293 0.0
H1492 H 0.58617 0.20272 0.81064 0.0
H1493 H 0.58945 0.07053 0.81527 0.0
H1494 H 0.51184 0.97023 0.84687 0.0
H1495 H 0.54909 0.96205 0.846 0.0
Li1496 Li 0.69771 0.12414 0.81676 0.0
Li1497 Li 0.71339 0.15417 0.82878 0.0
Li1498 Li 0.71756 0.11486 0.81032 0.0
Li1499 Li 0.71098 0.08019 0.8285 0.0
C1500 C 0.70234 0.19557 0.8059 0.0
N1501 N 0.68816 0.25052 0.79395 0.0
C1502 C 0.69982 0.23417 0.8109 0.0
C1503 C 0.69767 0.18497 0.79481 0.0
C1504 C 0.69264 0.26153 0.80471 0.0
C1505 C 0.69051 0.21313 0.78892 0.0
C1506 C 0.6939 0.10165 0.84305 0.0
C1507 C 0.69348 0.06647 0.86208 0.0
N1508 N 0.68212 0.05757 0.86039 0.0
C1509 C 0.6822 0.09226 0.84156 0.0
C1510 C 0.69956 0.08882 0.85346 0.0
C1511 C 0.67641 0.06994 0.85041 0.0
C1512 C 0.67677 0.09435 0.80752 0.0
N1513 N 0.68196 0.12878 0.81196 0.0
C1514 C 0.66398 0.16512 0.81196 0.0
C1515 C 0.67583 0.16379 0.81423 0.0
C1516 C 0.65827 0.12958 0.80771 0.0
C1517 C 0.6649 0.09401 0.80535 0.0
H1518 H 0.68175 0.06646 0.80617 0.0
H1519 H 0.68006 0.19029 0.81816 0.0
C1520 C 0.72182 0.23635 0.83579 0.0
N1521 N 0.71707 0.19971 0.83927 0.0
C1522 C 0.72278 0.26924 0.84395 0.0
C1523 C 0.71464 0.22505 0.85915 0.0
C1524 C 0.71376 0.19352 0.85076 0.0
C1525 C 0.71882 0.26403 0.85574 0.0
H1526 H 0.72446 0.24058 0.82661 0.0
H1527 H 0.71011 0.16436 0.85336 0.0
C1528 C 0.7071 0.04478 0.80322 0.0
N1529 N 0.71184 0.99035 0.78483 0.0
C1530 C 0.71352 0.00892 0.8054 0.0
C1531 C 0.70298 0.0527 0.79172 0.0
C1532 C 0.71584 0.98181 0.79598 0.0
C1533 C 0.70551 0.0249 0.78253 0.0
C1534 C 0.73469 0.13225 0.83041 0.0
C1535 C 0.74141 0.15622 0.8227 0.0
C1536 C 0.73708 0.13212 0.84263 0.0
C1537 C 0.75046 0.1798 0.82738 0.0
C1538 C 0.74618 0.15618 0.84696 0.0
N1539 N 0.75263 0.17931 0.83931 0.0
C1540 C 0.72484 0.12087 0.78585 0.0
C1541 C 0.73451 0.07159 0.79789 0.0
C1542 C 0.72962 0.10351 0.77553 0.0
N1543 N 0.72703 0.10372 0.79669 0.0
C1544 C 0.73939 0.05304 0.78782 0.0
C1545 C 0.73663 0.06802 0.77639 0.0
H1546 H 0.71888 0.14643 0.78512 0.0
H1547 H 0.73596 0.05822 0.80661 0.0
C1548 C 0.70231 0.0057 0.83741 0.0
N1549 N 0.71187 0.0301 0.83718 0.0
C1550 C 0.70198 0.9709 0.84474 0.0
C1551 C 0.72166 0.98524 0.85073 0.0
C1552 C 0.72154 0.02023 0.84342 0.0
C1553 C 0.71169 0.96076 0.85163 0.0
H1554 H 0.6948 0.01425 0.83223 0.0
H1555 H 0.72904 0.04009 0.84296 0.0
O1556 O 0.70935 0.16837 0.81182 0.0
O1557 O 0.69974 0.12329 0.8344 0.0
O1558 O 0.70504 0.07233 0.81225 0.0
O1559 O 0.72558 0.11001 0.82604 0.0
H1560 H 0.70326 0.24281 0.81951 0.0
H1561 H 0.69939 0.15505 0.79088 0.0
H1562 H 0.69059 0.29145 0.80849 0.0
H1563 H 0.68678 0.20521 0.78037 0.0
H1564 H 0.69782 0.05591 0.87007 0.0
H1565 H 0.67758 0.10209 0.8337 0.0
H1566 H 0.70867 0.09478 0.85471 0.0
H1567 H 0.66736 0.06244 0.84934 0.0
H1568 H 0.65933 0.19349 0.81378 0.0
H1569 H 0.66093 0.06553 0.80235 0.0
H1570 H 0.72607 0.29881 0.84094 0.0
H1571 H 0.71176 0.2192 0.86819 0.0
H1572 H 0.71684 0.00238 0.81422 0.0
H1573 H 0.69798 0.08026 0.78988 0.0
H1574 H 0.72087 0.95412 0.79751 0.0
H1575 H 0.70247 0.03086 0.77357 0.0
H1576 H 0.7396 0.15689 0.81323 0.0
H1577 H 0.73184 0.11414 0.84873 0.0
H1578 H 0.75572 0.19861 0.82154 0.0
H1579 H 0.74809 0.15659 0.85641 0.0
H1580 H 0.72746 0.11679 0.76694 0.0
H1581 H 0.74462 0.02558 0.78899 0.0
H1582 H 0.69419 0.9524 0.84515 0.0
H1583 H 0.72929 0.97825 0.85595 0.0
Li1584 Li 0.53525 0.16924 0.42193 0.0
Li1585 Li 0.55213 0.13077 0.42923 0.0
Li1586 Li 0.53636 0.09637 0.41744 0.0
Li1587 Li 0.5331 0.11491 0.43825 0.0
C1588 C 0.55071 0.16616 0.4036 0.0
N1589 N 0.55742 0.22096 0.38596 0.0
C1590 C 0.56136 0.18636 0.40436 0.0
C1591 C 0.54354 0.17348 0.39378 0.0
C1592 C 0.56459 0.214 0.39536 0.0
C1593 C 0.54707 0.20142 0.38498 0.0
C1594 C 0.54741 0.18974 0.44746 0.0
C1595 C 0.55591 0.19165 0.46711 0.0
N1596 N 0.55867 0.23216 0.46546 0.0
C1597 C 0.55018 0.23158 0.44604 0.0
C1598 C 0.55016 0.16978 0.45815 0.0
C1599 C 0.55593 0.25241 0.45521 0.0
C1600 C 0.52011 0.22721 0.41053 0.0
N1601 N 0.53084 0.22149 0.41521 0.0
C1602 C 0.53756 0.28392 0.40612 0.0
C1603 C 0.53937 0.24981 0.41351 0.0
C1604 C 0.52679 0.28935 0.4006 0.0
C1605 C 0.51786 0.26141 0.4032 0.0
H1606 H 0.51349 0.2042 0.41197 0.0
H1607 H 0.54785 0.24438 0.41719 0.0
C1608 C 0.57378 0.09632 0.42686 0.0
N1609 N 0.56848 0.13053 0.4313 0.0
C1610 C 0.58577 0.0929 0.42712 0.0
C1611 C 0.58672 0.16006 0.43657 0.0
C1612 C 0.57466 0.16216 0.43614 0.0
C1613 C 0.59243 0.12523 0.4319 0.0
H1614 H 0.56865 0.07181 0.42296 0.0
H1615 H 0.57032 0.18947 0.43937 0.0
C1616 C 0.51401 0.10778 0.41821 0.0
N1617 N 0.4966 0.06772 0.40592 0.0
C1618 C 0.50665 0.08042 0.42417 0.0
C1619 C 0.51239 0.11524 0.40604 0.0
C1620 C 0.49793 0.06036 0.41779 0.0
C1621 C 0.50358 0.09455 0.39997 0.0
C1622 C 0.54875 0.0472 0.43956 0.0
C1623 C 0.54586 0.00544 0.43818 0.0
C1624 C 0.55603 0.05902 0.44891 0.0
C1625 C 0.55003 0.97645 0.44637 0.0
C1626 C 0.56005 0.02912 0.45689 0.0
N1627 N 0.55697 0.98879 0.45549 0.0
C1628 C 0.53788 0.05771 0.39489 0.0
C1629 C 0.528 0.01908 0.40968 0.0
C1630 C 0.53698 0.02497 0.38684 0.0
N1631 N 0.53356 0.05396 0.4061 0.0
C1632 C 0.52707 0.98526 0.40198 0.0
C1633 C 0.53181 0.98761 0.39045 0.0
H1634 H 0.54234 0.08564 0.3923 0.0
H1635 H 0.52463 0.01704 0.41865 0.0
C1636 C 0.52376 0.11894 0.46217 0.0
N1637 N 0.52562 0.09508 0.45236 0.0
C1638 C 0.51918 0.10136 0.47256 0.0
C1639 C 0.51801 0.03562 0.46235 0.0
C1640 C 0.52265 0.05438 0.45222 0.0
C1641 C 0.51636 0.05899 0.47277 0.0
H1642 H 0.52601 0.15142 0.462 0.0
H1643 H 0.52399 0.03629 0.44423 0.0
O1644 O 0.54732 0.13954 0.41246 0.0
O1645 O 0.54176 0.16891 0.43854 0.0
O1646 O 0.52275 0.12712 0.42426 0.0
O1647 O 0.54469 0.07606 0.43163 0.0
H1648 H 0.56704 0.18112 0.41185 0.0
H1649 H 0.53529 0.15818 0.39301 0.0
H1650 H 0.57277 0.23002 0.39588 0.0
H1651 H 0.54155 0.20768 0.37741 0.0
H1652 H 0.55813 0.17646 0.47541 0.0
H1653 H 0.54792 0.24788 0.43796 0.0
H1654 H 0.54778 0.13788 0.45961 0.0
H1655 H 0.55818 0.28471 0.45418 0.0
H1656 H 0.54463 0.30501 0.40437 0.0
H1657 H 0.50945 0.26464 0.39908 0.0
H1658 H 0.58979 0.06527 0.42355 0.0
H1659 H 0.59152 0.18595 0.44018 0.0
H1660 H 0.50764 0.07475 0.43362 0.0
H1661 H 0.51795 0.13647 0.40131 0.0
H1662 H 0.49221 0.03896 0.42228 0.0
H1663 H 0.5023 0.09979 0.39053 0.0
H1664 H 0.54041 0.99546 0.43091 0.0
H1665 H 0.55871 0.09079 0.4499 0.0
H1666 H 0.54777 0.94411 0.44545 0.0
H1667 H 0.56566 0.03795 0.46418 0.0
H1668 H 0.54055 0.02863 0.37797 0.0
H1669 H 0.52313 0.95708 0.40525 0.0
H1670 H 0.51786 0.12067 0.48034 0.0
H1671 H 0.51605 0.00286 0.4621 0.0
Li1672 Li 0.72018 0.13487 0.43909 0.0
Li1673 Li 0.71526 0.15996 0.41954 0.0
Li1674 Li 0.70097 0.12629 0.43247 0.0
Li1675 Li 0.71525 0.08326 0.42245 0.0
C1676 C 0.71032 0.20937 0.44341 0.0
N1677 N 0.71363 0.26921 0.46076 0.0
C1678 C 0.71476 0.2482 0.44035 0.0
C1679 C 0.70725 0.20158 0.45526 0.0
C1680 C 0.71644 0.27791 0.44925 0.0
C1681 C 0.70908 0.23199 0.46391 0.0
C1682 C 0.73635 0.13175 0.41502 0.0
C1683 C 0.7418 0.13123 0.39425 0.0
N1684 N 0.75176 0.15127 0.39707 0.0
C1685 C 0.74666 0.1522 0.41773 0.0
C1686 C 0.73391 0.12103 0.4032 0.0
C1687 C 0.75434 0.16183 0.40851 0.0
C1688 C 0.72764 0.13078 0.46331 0.0
N1689 N 0.72955 0.14867 0.45251 0.0
C1690 C 0.74229 0.1983 0.46129 0.0
C1691 C 0.73685 0.18134 0.4513 0.0
C1692 C 0.74014 0.18166 0.47266 0.0
C1693 C 0.73289 0.14684 0.47356 0.0
H1694 H 0.72161 0.10538 0.46405 0.0
H1695 H 0.73797 0.19559 0.44265 0.0
C1696 C 0.71313 0.20216 0.39729 0.0
N1697 N 0.71871 0.20163 0.40797 0.0
C1698 C 0.71509 0.23421 0.3892 0.0
C1699 C 0.72908 0.26309 0.40287 0.0
C1700 C 0.72686 0.23041 0.41068 0.0
C1701 C 0.72296 0.26576 0.39207 0.0
H1702 H 0.70704 0.17807 0.39509 0.0
H1703 H 0.7315 0.22834 0.41904 0.0
C1704 C 0.70316 0.05879 0.44613 0.0
N1705 N 0.68733 0.01136 0.4586 0.0
C1706 C 0.70084 0.01812 0.44261 0.0
C1707 C 0.69766 0.07481 0.45624 0.0
C1708 C 0.69276 0.99476 0.44896 0.0
C1709 C 0.68962 0.05053 0.46235 0.0
C1710 C 0.69333 0.12974 0.40962 0.0
C1711 C 0.68881 0.16932 0.41157 0.0
C1712 C 0.68727 0.10169 0.40248 0.0
C1713 C 0.67824 0.18002 0.40642 0.0
C1714 C 0.67673 0.11361 0.39748 0.0
N1715 N 0.67246 0.15217 0.39955 0.0
C1716 C 0.67991 0.1592 0.44163 0.0
C1717 C 0.67862 0.09245 0.43294 0.0
C1718 C 0.66795 0.16039 0.44326 0.0
N1719 N 0.68495 0.1257 0.43646 0.0
C1720 C 0.66665 0.09237 0.43436 0.0
C1721 C 0.66115 0.12694 0.43941 0.0
H1722 H 0.6851 0.18561 0.4441 0.0
H1723 H 0.68285 0.06647 0.4287 0.0
C1724 C 0.72799 0.01765 0.41063 0.0
N1725 N 0.71749 0.03198 0.41424 0.0
C1726 C 0.72875 0.98165 0.40368 0.0
C1727 C 0.70796 0.97566 0.40453 0.0
C1728 C 0.7076 0.01179 0.41131 0.0
C1729 C 0.71862 0.96019 0.40055 0.0
H1730 H 0.73573 0.03448 0.41298 0.0
H1731 H 0.69939 0.02397 0.41425 0.0
O1732 O 0.70888 0.17946 0.43483 0.0
O1733 O 0.72858 0.12296 0.42385 0.0
O1734 O 0.71098 0.08223 0.4399 0.0
O1735 O 0.7035 0.11832 0.41492 0.0
H1736 H 0.71676 0.25564 0.43121 0.0
H1737 H 0.7036 0.17221 0.45779 0.0
H1738 H 0.71994 0.30795 0.44699 0.0
H1739 H 0.7069 0.22599 0.47314 0.0
H1740 H 0.73999 0.12335 0.38505 0.0
H1741 H 0.7487 0.16061 0.42683 0.0
H1742 H 0.72591 0.10556 0.40095 0.0
H1743 H 0.76233 0.17776 0.41047 0.0
H1744 H 0.74791 0.22477 0.46013 0.0
H1745 H 0.73085 0.13328 0.48214 0.0
H1746 H 0.71019 0.23499 0.38097 0.0
H1747 H 0.73542 0.28624 0.4053 0.0
H1748 H 0.70532 0.00446 0.43515 0.0
H1749 H 0.6995 0.10569 0.45931 0.0
H1750 H 0.69084 0.96336 0.44625 0.0
H1751 H 0.68521 0.06282 0.47009 0.0
H1752 H 0.69336 0.19145 0.41707 0.0
H1753 H 0.69066 0.07108 0.40078 0.0
H1754 H 0.67461 0.21045 0.40791 0.0
H1755 H 0.67194 0.09218 0.39196 0.0
H1756 H 0.66404 0.18787 0.44704 0.0
H1757 H 0.66175 0.06576 0.43138 0.0
H1758 H 0.73714 0.97065 0.40082 0.0
H1759 H 0.69994 0.96047 0.4022 0.0
Li1760 Li 0.46603 0.91878 0.17314 0.0
Li1761 Li 0.46875 0.8723 0.1895 0.0
Li1762 Li 0.46517 0.8438 0.16959 0.0
Li1763 Li 0.44928 0.88121 0.1818 0.0
C1764 C 0.489 0.88616 0.17071 0.0
N1765 N 0.51061 0.90559 0.1619 0.0
C1766 C 0.49708 0.90604 0.17799 0.0
C1767 C 0.49195 0.87574 0.15899 0.0
C1768 C 0.50795 0.91573 0.17336 0.0
C1769 C 0.50291 0.88595 0.15469 0.0
C1770 C 0.46365 0.95032 0.19762 0.0
C1771 C 0.46247 0.98516 0.21661 0.0
N1772 N 0.47288 0.0032 0.21447 0.0
C1773 C 0.47429 0.96935 0.19557 0.0
C1774 C 0.45764 0.95839 0.20818 0.0
C1775 C 0.47883 0.99594 0.20421 0.0
C1776 C 0.45943 0.99414 0.16347 0.0
N1777 N 0.46897 0.97002 0.16485 0.0
C1778 C 0.47946 0.01213 0.15101 0.0
C1779 C 0.47901 0.97921 0.1591 0.0
C1780 C 0.46945 0.03514 0.14871 0.0
C1781 C 0.45942 0.0266 0.15525 0.0
H1782 H 0.45157 0.9863 0.16818 0.0
H1783 H 0.48653 0.96011 0.16029 0.0
C1784 C 0.48741 0.83851 0.20204 0.0
N1785 N 0.47716 0.85828 0.20365 0.0
C1786 C 0.49316 0.82078 0.21171 0.0
C1787 C 0.4778 0.84449 0.22462 0.0
C1788 C 0.47238 0.86209 0.21468 0.0
C1789 C 0.48825 0.82293 0.22316 0.0
H1790 H 0.49083 0.83461 0.19314 0.0
H1791 H 0.46406 0.87687 0.21568 0.0
C1792 C 0.4514 0.90477 0.15411 0.0
N1793 N 0.44682 0.94476 0.13285 0.0
C1794 C 0.44083 0.92477 0.15242 0.0
C1795 C 0.4596 0.90469 0.14496 0.0
C1796 C 0.43869 0.9449 0.14161 0.0
C1797 C 0.45714 0.92524 0.13429 0.0
C1798 C 0.45824 0.80095 0.19413 0.0
C1799 C 0.46669 0.77008 0.19396 0.0
C1800 C 0.45092 0.80467 0.20399 0.0
C1801 C 0.4678 0.74373 0.20378 0.0
C1802 C 0.45229 0.77763 0.21362 0.0
N1803 N 0.46064 0.74804 0.21332 0.0
C1804 C 0.47747 0.77691 0.15958 0.0
C1805 C 0.45979 0.79385 0.15007 0.0
C1806 C 0.47932 0.74447 0.15157 0.0
N1807 N 0.46783 0.80064 0.15867 0.0
C1808 C 0.4613 0.76191 0.14186 0.0
C1809 C 0.47115 0.73663 0.14258 0.0
H1810 H 0.48371 0.7832 0.16654 0.0
H1811 H 0.45215 0.81303 0.14967 0.0
C1812 C 0.42803 0.92056 0.18615 0.0
N1813 N 0.43319 0.88324 0.18447 0.0
C1814 C 0.41602 0.92324 0.187 0.0
C1815 C 0.41492 0.84891 0.18467 0.0
C1816 C 0.42695 0.8477 0.18382 0.0
C1817 C 0.40929 0.88714 0.18611 0.0
H1818 H 0.43325 0.94831 0.18654 0.0
H1819 H 0.43132 0.81853 0.18234 0.0
O1820 O 0.47837 0.87603 0.17513 0.0
O1821 O 0.45911 0.92382 0.18935 0.0
O1822 O 0.45379 0.88594 0.16476 0.0
O1823 O 0.45727 0.82792 0.18478 0.0
H1824 H 0.495 0.91384 0.18714 0.0
H1825 H 0.48584 0.86008 0.15326 0.0
H1826 H 0.51428 0.93123 0.17888 0.0
H1827 H 0.50529 0.87824 0.14563 0.0
H1828 H 0.45795 0.99156 0.22485 0.0
H1829 H 0.479 0.96364 0.18741 0.0
H1830 H 0.44937 0.94388 0.20987 0.0
H1831 H 0.48708 0.0108 0.20276 0.0
H1832 H 0.48735 0.01798 0.14609 0.0
H1833 H 0.45155 0.04396 0.15373 0.0
H1834 H 0.50108 0.80383 0.21014 0.0
H1835 H 0.47374 0.84697 0.23329 0.0
H1836 H 0.4344 0.9251 0.15943 0.0
H1837 H 0.46782 0.88937 0.14614 0.0
H1838 H 0.43058 0.96075 0.14019 0.0
H1839 H 0.46344 0.92576 0.12716 0.0
H1840 H 0.47244 0.76694 0.1864 0.0
H1841 H 0.44437 0.82856 0.20427 0.0
H1842 H 0.47438 0.71996 0.20383 0.0
H1843 H 0.44675 0.78032 0.22135 0.0
H1844 H 0.48706 0.72585 0.15237 0.0
H1845 H 0.4547 0.75646 0.1352 0.0
H1846 H 0.41204 0.95328 0.18823 0.0
H1847 H 0.41007 0.82042 0.18378 0.0
Li1848 Li 0.30049 0.8666 0.18324 0.0
Li1849 Li 0.2854 0.89849 0.17212 0.0
Li1850 Li 0.28118 0.87207 0.19143 0.0
Li1851 Li 0.28519 0.82478 0.17449 0.0
C1852 C 0.2961 0.93428 0.1977 0.0
N1853 N 0.30428 0.96832 0.21869 0.0
C1854 C 0.29638 0.97722 0.19916 0.0
C1855 C 0.29999 0.90863 0.20692 0.0
C1856 C 0.30055 0.99384 0.20983 0.0
C1857 C 0.30409 0.92645 0.21746 0.0
C1858 C 0.30513 0.8779 0.15929 0.0
C1859 C 0.31844 0.87755 0.14273 0.0
N1860 N 0.32178 0.91668 0.14559 0.0
C1861 C 0.30866 0.91819 0.16203 0.0
C1862 C 0.31003 0.85746 0.14954 0.0
C1863 C 0.31709 0.93722 0.15502 0.0
C1864 C 0.3222 0.82952 0.18667 0.0
N1865 N 0.31667 0.86662 0.18645 0.0
C1866 C 0.3345 0.90248 0.18936 0.0
C1867 C 0.32255 0.90276 0.1878 0.0
C1868 C 0.34051 0.86467 0.18942 0.0
C1869 C 0.33417 0.82779 0.18816 0.0
H1870 H 0.31731 0.8013 0.18544 0.0
H1871 H 0.31801 0.93195 0.18745 0.0
C1872 C 0.27856 0.97932 0.16674 0.0
N1873 N 0.28175 0.94286 0.16169 0.0
C1874 C 0.27651 0.01396 0.15962 0.0
C1875 C 0.28071 0.97238 0.14219 0.0
C1876 C 0.28268 0.93856 0.14966 0.0
C1877 C 0.27777 0.0109 0.14717 0.0
H1878 H 0.27783 0.98164 0.17634 0.0
H1879 H 0.28514 0.90902 0.14589 0.0
C1880 C 0.28658 0.78927 0.19705 0.0
N1881 N 0.2766 0.7232 0.20884 0.0
C1882 C 0.27461 0.78367 0.19675 0.0
C1883 C 0.29347 0.76128 0.20335 0.0
C1884 C 0.26973 0.75007 0.20276 0.0
C1885 C 0.28826 0.72807 0.20925 0.0
C1886 C 0.26422 0.87485 0.16815 0.0
C1887 C 0.2556 0.90366 0.17084 0.0
C1888 C 0.26509 0.85905 0.15657 0.0
C1889 C 0.24802 0.91639 0.16186 0.0
C1890 C 0.25734 0.87252 0.14785 0.0
N1891 N 0.24904 0.9007 0.15064 0.0
C1892 C 0.26683 0.92226 0.2046 0.0
C1893 C 0.27429 0.86735 0.21631 0.0
C1894 C 0.26206 0.94095 0.21467 0.0
N1895 N 0.27286 0.88633 0.20557 0.0
C1896 C 0.26966 0.88508 0.22666 0.0
C1897 C 0.26361 0.92278 0.22595 0.0
H1898 H 0.26631 0.93768 0.19605 0.0
H1899 H 0.27948 0.83965 0.21696 0.0
C1900 C 0.29145 0.75812 0.16034 0.0
N1901 N 0.28237 0.77344 0.16659 0.0
C1902 C 0.2901 0.72342 0.15307 0.0
C1903 C 0.27014 0.71942 0.15925 0.0
C1904 C 0.27185 0.75473 0.16629 0.0
C1905 C 0.2793 0.70359 0.15233 0.0
H1906 H 0.29971 0.77366 0.16076 0.0
H1907 H 0.26474 0.76775 0.17129 0.0
O1908 O 0.29182 0.91775 0.18735 0.0
O1909 O 0.29687 0.85843 0.16602 0.0
O1910 O 0.29162 0.82174 0.1912 0.0
O1911 O 0.27193 0.8628 0.17673 0.0
H1912 H 0.29339 0.99751 0.19212 0.0
H1913 H 0.29983 0.87535 0.206 0.0
H1914 H 0.30081 0.02703 0.21109 0.0
H1915 H 0.3071 0.90697 0.22466 0.0
H1916 H 0.32231 0.86205 0.13516 0.0
H1917 H 0.30493 0.93477 0.16946 0.0
H1918 H 0.30735 0.8264 0.14721 0.0
H1919 H 0.31991 0.96836 0.15706 0.0
H1920 H 0.33899 0.93164 0.19045 0.0
H1921 H 0.33844 0.79798 0.18798 0.0
H1922 H 0.27437 0.04312 0.16384 0.0
H1923 H 0.28161 0.96854 0.13263 0.0
H1924 H 0.26911 0.80504 0.19198 0.0
H1925 H 0.30275 0.76519 0.20366 0.0
H1926 H 0.26049 0.74539 0.20261 0.0
H1927 H 0.29349 0.70617 0.21416 0.0
H1928 H 0.25477 0.91614 0.17975 0.0
H1929 H 0.27181 0.83722 0.15428 0.0
H1930 H 0.24133 0.93877 0.1638 0.0
H1931 H 0.25796 0.86075 0.13883 0.0
H1932 H 0.25773 0.97046 0.2137 0.0
H1933 H 0.27105 0.86998 0.23517 0.0
H1934 H 0.29739 0.71323 0.14779 0.0
H1935 H 0.26171 0.70502 0.15914 0.0
Li1936 Li 0.44919 0.87509 0.56821 0.0
Li1937 Li 0.4646 0.91029 0.57987 0.0
Li1938 Li 0.46893 0.88152 0.56042 0.0
Li1939 Li 0.46472 0.83715 0.57767 0.0
C1940 C 0.45386 0.94435 0.55409 0.0
N1941 N 0.44609 0.98087 0.53331 0.0
C1942 C 0.45374 0.98743 0.55301 0.0
C1943 C 0.45005 0.9198 0.5446 0.0
C1944 C 0.44977 0.00531 0.54243 0.0
C1945 C 0.44615 0.93887 0.53417 0.0
C1946 C 0.44894 0.84837 0.59481 0.0
C1947 C 0.45156 0.82194 0.61478 0.0
N1948 N 0.44182 0.79883 0.61354 0.0
C1949 C 0.43889 0.82469 0.5938 0.0
C1950 C 0.45526 0.84737 0.60544 0.0
C1951 C 0.43545 0.79975 0.60335 0.0
C1952 C 0.42776 0.83952 0.56181 0.0
N1953 N 0.4332 0.87565 0.56446 0.0
C1954 C 0.41543 0.91297 0.56314 0.0
C1955 C 0.42734 0.91205 0.56509 0.0
C1956 C 0.40952 0.87595 0.56077 0.0
C1957 C 0.41582 0.8389 0.56002 0.0
H1958 H 0.43266 0.81104 0.56143 0.0
H1959 H 0.43188 0.94023 0.56734 0.0
C1960 C 0.47551 0.98494 0.58671 0.0
N1961 N 0.46736 0.95659 0.58981 0.0
C1962 C 0.47724 0.02004 0.59376 0.0
C1963 C 0.46189 0.9967 0.60677 0.0
C1964 C 0.4606 0.96174 0.5996 0.0
C1965 C 0.47028 0.02636 0.60383 0.0
H1966 H 0.48056 0.98053 0.5787 0.0
H1967 H 0.45404 0.93909 0.60171 0.0
C1968 C 0.46393 0.79861 0.55514 0.0
N1969 N 0.47444 0.73347 0.54342 0.0
C1970 C 0.47544 0.78865 0.55757 0.0
C1971 C 0.45776 0.77537 0.54678 0.0
C1972 C 0.4806 0.75561 0.55155 0.0
C1973 C 0.46323 0.74258 0.54093 0.0
C1974 C 0.48724 0.89263 0.58089 0.0
C1975 C 0.49621 0.90988 0.57419 0.0
C1976 C 0.4878 0.89361 0.59335 0.0
C1977 C 0.50547 0.92869 0.58007 0.0
C1978 C 0.49719 0.91275 0.5989 0.0
N1979 N 0.50575 0.9298 0.59221 0.0
C1980 C 0.48133 0.93521 0.54646 0.0
C1981 C 0.47817 0.8719 0.53631 0.0
C1982 C 0.48627 0.95268 0.53631 0.0
N1983 N 0.47732 0.89568 0.54629 0.0
C1984 C 0.48317 0.88809 0.52593 0.0
C1985 C 0.48716 0.92928 0.52578 0.0
H1986 H 0.48029 0.95374 0.55444 0.0
H1987 H 0.47469 0.8409 0.53624 0.0
C1988 C 0.45894 0.75788 0.58575 0.0
N1989 N 0.4675 0.78662 0.58607 0.0
C1990 C 0.45894 0.725 0.59382 0.0
C1991 C 0.47718 0.74947 0.60159 0.0
C1992 C 0.47673 0.78238 0.59348 0.0
C1993 C 0.46798 0.72126 0.60209 0.0
H1994 H 0.45171 0.76211 0.57975 0.0
H1995 H 0.48342 0.80565 0.59356 0.0
O1996 O 0.45797 0.92645 0.56431 0.0
O1997 O 0.45259 0.87226 0.58545 0.0
O1998 O 0.45862 0.83069 0.56091 0.0
O1999 O 0.47807 0.87431 0.57527 0.0
H2000 H 0.45674 0.0068 0.56027 0.0
H2001 H 0.45018 0.88639 0.54524 0.0
H2002 H 0.44963 0.03863 0.54146 0.0
H2003 H 0.44319 0.92028 0.52674 0.0
H2004 H 0.45644 0.82056 0.623 0.0
H2005 H 0.43385 0.82517 0.58569 0.0
H2006 H 0.46297 0.86581 0.60646 0.0
H2007 H 0.42774 0.781 0.60263 0.0
H2008 H 0.41084 0.94205 0.56392 0.0
H2009 H 0.41154 0.80978 0.55818 0.0
H2010 H 0.48368 0.04263 0.59116 0.0
H2011 H 0.45636 0.00069 0.61448 0.0
H2012 H 0.48037 0.80612 0.56402 0.0
H2013 H 0.44883 0.78267 0.54481 0.0
H2014 H 0.4895 0.74758 0.55333 0.0
H2015 H 0.45856 0.72437 0.53442 0.0
H2016 H 0.49609 0.90853 0.56456 0.0
H2017 H 0.481 0.88017 0.59868 0.0
H2018 H 0.51244 0.94232 0.57499 0.0
H2019 H 0.49766 0.91407 0.60854 0.0
H2020 H 0.48895 0.98477 0.53661 0.0
H2021 H 0.48375 0.86872 0.51807 0.0
H2022 H 0.45174 0.70361 0.5939 0.0
H2023 H 0.48427 0.74754 0.60786 0.0
Li2024 Li 0.28141 0.86533 0.56484 0.0
Li2025 Li 0.28552 0.91393 0.58092 0.0
Li2026 Li 0.30105 0.87121 0.57296 0.0
Li2027 Li 0.28444 0.84123 0.58507 0.0
C2028 C 0.28753 0.94606 0.55783 0.0
N2029 N 0.2782 0.01063 0.54485 0.0
C2030 C 0.27559 0.95249 0.55774 0.0
C2031 C 0.29472 0.9725 0.55133 0.0
C2032 C 0.27105 0.98529 0.55111 0.0
C2033 C 0.28984 0.00497 0.54482 0.0
C2034 C 0.2618 0.86934 0.58484 0.0
C2035 C 0.25106 0.85835 0.60303 0.0
N2036 N 0.2413 0.85238 0.59651 0.0
C2037 C 0.25162 0.86365 0.57835 0.0
C2038 C 0.26148 0.86721 0.5973 0.0
C2039 C 0.24136 0.85492 0.5844 0.0
C2040 C 0.26505 0.81922 0.55262 0.0
N2041 N 0.2731 0.84916 0.55083 0.0
C2042 C 0.27076 0.8436 0.52967 0.0
C2043 C 0.27602 0.86175 0.53964 0.0
C2044 C 0.26241 0.81251 0.5313 0.0
C2045 C 0.25949 0.80073 0.54296 0.0
H2046 H 0.2633 0.80842 0.56157 0.0
H2047 H 0.28273 0.88467 0.53844 0.0
C2048 C 0.29191 0.99426 0.58775 0.0
N2049 N 0.28296 0.96705 0.588 0.0
C2050 C 0.29193 0.02864 0.59531 0.0
C2051 C 0.27299 0.00873 0.60231 0.0
C2052 C 0.27342 0.97431 0.59476 0.0
C2053 C 0.28253 0.03541 0.60298 0.0
H2054 H 0.29941 0.9876 0.58232 0.0
H2055 H 0.26644 0.95217 0.59483 0.0
C2056 C 0.29276 0.79483 0.56061 0.0
N2057 N 0.29389 0.74491 0.54063 0.0
C2058 C 0.28717 0.75651 0.56051 0.0
C2059 C 0.29899 0.80767 0.55059 0.0
C2060 C 0.28783 0.73174 0.55031 0.0
C2061 C 0.29945 0.782 0.54057 0.0
C2062 C 0.30077 0.90576 0.59882 0.0
C2063 C 0.31143 0.92561 0.59762 0.0
C2064 C 0.29407 0.9131 0.60899 0.0
C2065 C 0.31511 0.953 0.60648 0.0
C2066 C 0.29803 0.9408 0.61764 0.0
N2067 N 0.30839 0.96003 0.61622 0.0
C2068 C 0.32344 0.90058 0.56708 0.0
C2069 C 0.32205 0.82846 0.57066 0.0
C2070 C 0.33541 0.89753 0.56576 0.0
N2071 N 0.31709 0.86642 0.56972 0.0
C2072 C 0.33394 0.82385 0.56918 0.0
C2073 C 0.34087 0.8588 0.56695 0.0
H2074 H 0.31925 0.93042 0.56644 0.0
H2075 H 0.31676 0.80181 0.57272 0.0
C2076 C 0.27289 0.76926 0.59256 0.0
N2077 N 0.28048 0.79906 0.59601 0.0
C2078 C 0.27044 0.73614 0.60015 0.0
C2079 C 0.28324 0.76616 0.61486 0.0
C2080 C 0.28559 0.79832 0.60692 0.0
C2081 C 0.27573 0.73424 0.61141 0.0
H2082 H 0.26891 0.77094 0.58385 0.0
H2083 H 0.29167 0.82223 0.60935 0.0
O2084 O 0.29225 0.91433 0.56427 0.0
O2085 O 0.27193 0.87773 0.57901 0.0
O2086 O 0.29187 0.82026 0.57033 0.0
O2087 O 0.29692 0.87943 0.59008 0.0
H2088 H 0.26987 0.93243 0.56269 0.0
H2089 H 0.30398 0.96796 0.55133 0.0
H2090 H 0.26182 0.99059 0.55095 0.0
H2091 H 0.2953 0.02567 0.53975 0.0
H2092 H 0.25074 0.85627 0.61266 0.0
H2093 H 0.25159 0.86647 0.56873 0.0
H2094 H 0.2692 0.87208 0.60248 0.0
H2095 H 0.23343 0.85032 0.57947 0.0
H2096 H 0.27327 0.85342 0.5208 0.0
H2097 H 0.25329 0.77625 0.5446 0.0
H2098 H 0.29941 0.04874 0.59552 0.0
H2099 H 0.26561 0.0129 0.60813 0.0
H2100 H 0.28229 0.74614 0.56818 0.0
H2101 H 0.30325 0.83749 0.55047 0.0
H2102 H 0.28349 0.7021 0.55007 0.0
H2103 H 0.30416 0.79168 0.53272 0.0
H2104 H 0.31678 0.9202 0.58989 0.0
H2105 H 0.28585 0.89796 0.61016 0.0
H2106 H 0.32331 0.96875 0.60561 0.0
H2107 H 0.29287 0.94708 0.62548 0.0
H2108 H 0.34034 0.9255 0.56422 0.0
H2109 H 0.33766 0.79321 0.56991 0.0
H2110 H 0.26457 0.71208 0.59723 0.0
H2111 H 0.2876 0.76539 0.62341 0.0
Li2112 Li 0.53341 0.65828 0.33077 0.0
Li2113 Li 0.52951 0.63289 0.31088 0.0
Li2114 Li 0.53349 0.58223 0.32713 0.0
Li2115 Li 0.54887 0.62602 0.3182 0.0
C2116 C 0.5122 0.6153 0.3344 0.0
N2117 N 0.49603 0.59901 0.35191 0.0
C2118 C 0.50077 0.6068 0.33128 0.0
C2119 C 0.5154 0.61576 0.34642 0.0
C2120 C 0.49272 0.59857 0.34026 0.0
C2121 C 0.50711 0.60739 0.35514 0.0
C2122 C 0.5379 0.70774 0.30749 0.0
C2123 C 0.54101 0.73923 0.28823 0.0
N2124 N 0.53226 0.76622 0.29046 0.0
C2125 C 0.529 0.73601 0.30963 0.0
C2126 C 0.54402 0.7095 0.29674 0.0
C2127 C 0.52626 0.76526 0.30089 0.0
C2128 C 0.53965 0.71824 0.34763 0.0
N2129 N 0.53049 0.7019 0.34172 0.0
C2130 C 0.51797 0.75379 0.34974 0.0
C2131 C 0.51975 0.71866 0.34269 0.0
C2132 C 0.52734 0.77178 0.35579 0.0
C2133 C 0.53824 0.75294 0.35485 0.0
H2134 H 0.54813 0.70518 0.34643 0.0
H2135 H 0.51266 0.70566 0.33765 0.0
C2136 C 0.52467 0.64354 0.28605 0.0
N2137 N 0.52035 0.64701 0.29728 0.0
C2138 C 0.51894 0.662 0.27644 0.0
C2139 C 0.50408 0.68508 0.29005 0.0
C2140 C 0.51014 0.66644 0.2994 0.0
C2141 C 0.50864 0.68393 0.27844 0.0
H2142 H 0.53285 0.62831 0.28461 0.0
H2143 H 0.50703 0.66946 0.30846 0.0
C2144 C 0.55125 0.61663 0.34553 0.0
N2145 N 0.56385 0.61682 0.3665 0.0
C2146 C 0.56185 0.63723 0.34612 0.0
C2147 C 0.54711 0.59585 0.35561 0.0
C2148 C 0.56807 0.63708 0.3568 0.0
C2149 C 0.55359 0.59638 0.36612 0.0
C2150 C 0.54717 0.56081 0.30366 0.0
C2151 C 0.54952 0.51932 0.30622 0.0
C2152 C 0.55306 0.58051 0.29437 0.0
C2153 C 0.55786 0.49836 0.29954 0.0
C2154 C 0.56135 0.55851 0.28791 0.0
N2155 N 0.56357 0.51824 0.29061 0.0
C2156 C 0.52107 0.51267 0.33758 0.0
C2157 C 0.5415 0.51238 0.33844 0.0
C2158 C 0.52058 0.47677 0.34459 0.0
N2159 N 0.53144 0.53 0.33484 0.0
C2160 C 0.54143 0.47677 0.34545 0.0
C2161 C 0.53087 0.45861 0.34875 0.0
H2162 H 0.51317 0.52705 0.33456 0.0
H2163 H 0.54963 0.52694 0.33618 0.0
C2164 C 0.56992 0.66618 0.3134 0.0
N2165 N 0.5651 0.62845 0.31543 0.0
C2166 C 0.5819 0.67046 0.31283 0.0
C2167 C 0.58375 0.59674 0.31605 0.0
C2168 C 0.57174 0.59402 0.31681 0.0
C2169 C 0.58895 0.63547 0.31424 0.0
H2170 H 0.56447 0.69324 0.31271 0.0
H2171 H 0.56772 0.56466 0.31885 0.0
O2172 O 0.52018 0.62298 0.32568 0.0
O2173 O 0.54044 0.67797 0.31577 0.0
O2174 O 0.54513 0.61587 0.33506 0.0
O2175 O 0.53906 0.58186 0.31015 0.0
H2176 H 0.49815 0.60636 0.322 0.0
H2177 H 0.52416 0.62285 0.34898 0.0
H2178 H 0.48384 0.59181 0.33798 0.0
H2179 H 0.50948 0.60764 0.36448 0.0
H2180 H 0.5456 0.74072 0.27984 0.0
H2181 H 0.52414 0.73495 0.31786 0.0
H2182 H 0.55091 0.68782 0.29492 0.0
H2183 H 0.51932 0.78708 0.30238 0.0
H2184 H 0.50945 0.76757 0.35007 0.0
H2185 H 0.54569 0.7653 0.35948 0.0
H2186 H 0.52268 0.66001 0.2676 0.0
H2187 H 0.49624 0.70201 0.29201 0.0
H2188 H 0.5652 0.65368 0.33847 0.0
H2189 H 0.53902 0.57918 0.35534 0.0
H2190 H 0.57625 0.6531 0.35738 0.0
H2191 H 0.55048 0.58042 0.37398 0.0
H2192 H 0.54493 0.50342 0.31326 0.0
H2193 H 0.55142 0.61266 0.29232 0.0
H2194 H 0.5598 0.46627 0.30145 0.0
H2195 H 0.56606 0.5735 0.28078 0.0
H2196 H 0.51225 0.46357 0.34677 0.0
H2197 H 0.54958 0.46446 0.34858 0.0
H2198 H 0.58564 0.70084 0.31149 0.0
H2199 H 0.58894 0.56923 0.31738 0.0
Li2200 Li 0.69787 0.62433 0.31877 0.0
Li2201 Li 0.71343 0.6646 0.32788 0.0
Li2202 Li 0.71695 0.61327 0.31178 0.0
Li2203 Li 0.7123 0.58978 0.33174 0.0
C2204 C 0.70077 0.69219 0.30509 0.0
N2205 N 0.68555 0.74459 0.29353 0.0
C2206 C 0.699 0.73242 0.3093 0.0
C2207 C 0.69497 0.67897 0.29483 0.0
C2208 C 0.69123 0.75836 0.30338 0.0
C2209 C 0.68726 0.7058 0.28916 0.0
C2210 C 0.69184 0.62027 0.34274 0.0
C2211 C 0.67805 0.63013 0.35864 0.0
N2212 N 0.67324 0.59281 0.35603 0.0
C2213 C 0.68677 0.5819 0.34026 0.0
C2214 C 0.68746 0.64454 0.35202 0.0
C2215 C 0.67737 0.56862 0.34706 0.0
C2216 C 0.67644 0.58951 0.31185 0.0
N2217 N 0.68172 0.62537 0.31508 0.0
C2218 C 0.66365 0.66124 0.31472 0.0
C2219 C 0.67557 0.66078 0.31668 0.0
C2220 C 0.65792 0.62454 0.31145 0.0
C2221 C 0.66453 0.58834 0.31002 0.0
H2222 H 0.68142 0.56136 0.31108 0.0
H2223 H 0.67988 0.6886 0.31964 0.0
C2224 C 0.72784 0.73128 0.3369 0.0
N2225 N 0.71697 0.71572 0.33576 0.0
C2226 C 0.72986 0.76566 0.34425 0.0
C2227 C 0.70945 0.76812 0.34865 0.0
C2228 C 0.70783 0.73387 0.34127 0.0
C2229 C 0.72061 0.78397 0.35045 0.0
H2230 H 0.73498 0.71621 0.33246 0.0
H2231 H 0.69927 0.72126 0.34004 0.0
C2232 C 0.70615 0.54185 0.30755 0.0
N2233 N 0.70823 0.48568 0.28904 0.0
C2234 C 0.71181 0.50414 0.30935 0.0
C2235 C 0.70132 0.55049 0.29639 0.0
C2236 C 0.71282 0.47626 0.29987 0.0
C2237 C 0.70253 0.52187 0.28713 0.0
C2238 C 0.73341 0.62634 0.33622 0.0
C2239 C 0.74531 0.6224 0.33458 0.0
C2240 C 0.72903 0.63453 0.34761 0.0
C2241 C 0.75268 0.62699 0.34437 0.0
C2242 C 0.73668 0.63892 0.35717 0.0
N2243 N 0.74825 0.6351 0.35536 0.0
C2244 C 0.72279 0.61096 0.28711 0.0
C2245 C 0.73356 0.56609 0.29961 0.0
C2246 C 0.72733 0.59195 0.27693 0.0
N2247 N 0.72573 0.597 0.29814 0.0
C2248 C 0.73834 0.54627 0.28968 0.0
C2249 C 0.73497 0.55838 0.27815 0.0
H2250 H 0.71647 0.63535 0.2862 0.0
H2251 H 0.73556 0.55514 0.3085 0.0
C2252 C 0.7105 0.54653 0.35417 0.0
N2253 N 0.71574 0.54808 0.34331 0.0
C2254 C 0.71291 0.51426 0.36205 0.0
C2255 C 0.72668 0.4873 0.34784 0.0
C2256 C 0.724 0.52015 0.34023 0.0
C2257 C 0.72094 0.48362 0.35883 0.0
H2258 H 0.7044 0.57008 0.35675 0.0
H2259 H 0.72846 0.5233 0.3318 0.0
O2260 O 0.70833 0.66633 0.31082 0.0
O2261 O 0.70092 0.63432 0.33604 0.0
O2262 O 0.7054 0.57023 0.31662 0.0
O2263 O 0.72612 0.62164 0.32671 0.0
H2264 H 0.70359 0.74364 0.31704 0.0
H2265 H 0.69632 0.64829 0.2913 0.0
H2266 H 0.68974 0.78947 0.3066 0.0
H2267 H 0.68263 0.69577 0.28129 0.0
H2268 H 0.67458 0.64862 0.36584 0.0
H2269 H 0.69008 0.5624 0.33321 0.0
H2270 H 0.6913 0.67413 0.35416 0.0
H2271 H 0.67337 0.53904 0.34523 0.0
H2272 H 0.65902 0.69007 0.31583 0.0
H2273 H 0.66053 0.559 0.30786 0.0
H2274 H 0.73861 0.77682 0.3454 0.0
H2275 H 0.70202 0.78182 0.353 0.0
H2276 H 0.71539 0.49636 0.31794 0.0
H2277 H 0.69677 0.57915 0.29487 0.0
H2278 H 0.71727 0.44713 0.30113 0.0
H2279 H 0.69894 0.52847 0.27842 0.0
H2280 H 0.74882 0.61586 0.32582 0.0
H2281 H 0.71985 0.63757 0.34908 0.0
H2282 H 0.76192 0.62408 0.34322 0.0
H2283 H 0.73342 0.64536 0.36602 0.0
H2284 H 0.72463 0.60263 0.26821 0.0
H2285 H 0.7441 0.52029 0.29104 0.0
H2286 H 0.7083 0.51275 0.37045 0.0
H2287 H 0.73315 0.46497 0.34513 0.0
Li2288 Li 0.53581 0.66859 0.9214 0.0
Li2289 Li 0.55176 0.63181 0.93122 0.0
Li2290 Li 0.53744 0.59366 0.9202 0.0
Li2291 Li 0.5324 0.62064 0.93943 0.0
C2292 C 0.55707 0.61873 0.90738 0.0
N2293 N 0.57502 0.58469 0.8944 0.0
C2294 C 0.56113 0.57903 0.91006 0.0
C2295 C 0.56212 0.64099 0.89804 0.0
C2296 C 0.57021 0.5624 0.90341 0.0
C2297 C 0.57119 0.62328 0.8916 0.0
C2298 C 0.54634 0.70492 0.94491 0.0
C2299 C 0.55333 0.73233 0.96362 0.0
N2300 N 0.55651 0.76782 0.95798 0.0
C2301 C 0.54949 0.74201 0.93937 0.0
C2302 C 0.54811 0.70034 0.95719 0.0
C2303 C 0.55469 0.77329 0.94609 0.0
C2304 C 0.52112 0.73169 0.91109 0.0
N2305 N 0.53206 0.71723 0.91252 0.0
C2306 C 0.53939 0.76832 0.89909 0.0
C2307 C 0.54112 0.73497 0.90677 0.0
C2308 C 0.52818 0.78356 0.89718 0.0
C2309 C 0.51897 0.76518 0.90344 0.0
H2310 H 0.51403 0.7166 0.91564 0.0
H2311 H 0.54973 0.72292 0.90812 0.0
C2312 C 0.57421 0.5996 0.93539 0.0
N2313 N 0.56808 0.63533 0.93432 0.0
C2314 C 0.58622 0.60054 0.93633 0.0
C2315 C 0.58546 0.67514 0.93542 0.0
C2316 C 0.57347 0.67268 0.93426 0.0
C2317 C 0.59206 0.63869 0.93627 0.0
H2318 H 0.56983 0.57011 0.93508 0.0
H2319 H 0.56854 0.7006 0.93296 0.0
C2320 C 0.51572 0.60911 0.91657 0.0
N2321 N 0.50083 0.57119 0.90072 0.0
C2322 C 0.50806 0.57872 0.92057 0.0
C2323 C 0.51577 0.62044 0.90453 0.0
C2324 C 0.50061 0.55985 0.91241 0.0
C2325 C 0.50818 0.60085 0.89665 0.0
C2326 C 0.54814 0.56021 0.94587 0.0
C2327 C 0.54696 0.51747 0.94743 0.0
C2328 C 0.55314 0.58393 0.95492 0.0
C2329 C 0.55066 0.49935 0.95809 0.0
C2330 C 0.55675 0.5647 0.96544 0.0
N2331 N 0.55542 0.52314 0.9668 0.0
C2332 C 0.53637 0.54584 0.89855 0.0
C2333 C 0.53093 0.51218 0.91649 0.0
C2334 C 0.53501 0.50902 0.89215 0.0
N2335 N 0.53456 0.54638 0.91054 0.0
C2336 C 0.52954 0.47476 0.9105 0.0
C2337 C 0.53181 0.4727 0.89821 0.0
H2338 H 0.53911 0.5737 0.89402 0.0
H2339 H 0.52924 0.51397 0.92596 0.0
C2340 C 0.52204 0.63096 0.96287 0.0
N2341 N 0.52379 0.60594 0.95328 0.0
C2342 C 0.51701 0.61499 0.97327 0.0
C2343 C 0.5153 0.54858 0.9635 0.0
C2344 C 0.52035 0.56574 0.95335 0.0
C2345 C 0.51373 0.57304 0.97372 0.0
H2346 H 0.52477 0.66292 0.96256 0.0
H2347 H 0.52194 0.5465 0.94563 0.0
O2348 O 0.54821 0.63586 0.9138 0.0
O2349 O 0.54106 0.67422 0.93846 0.0
O2350 O 0.52332 0.62712 0.92433 0.0
O2351 O 0.54429 0.57865 0.9356 0.0
H2352 H 0.55731 0.56113 0.91719 0.0
H2353 H 0.55906 0.67163 0.89576 0.0
H2354 H 0.57344 0.53175 0.90542 0.0
H2355 H 0.57519 0.64021 0.88436 0.0
H2356 H 0.5548 0.72903 0.9731 0.0
H2357 H 0.54805 0.74652 0.92995 0.0
H2358 H 0.54542 0.67259 0.96179 0.0
H2359 H 0.55727 0.80193 0.94186 0.0
H2360 H 0.54678 0.78198 0.89467 0.0
H2361 H 0.51018 0.77576 0.90217 0.0
H2362 H 0.59086 0.57149 0.93665 0.0
H2363 H 0.58949 0.70536 0.93546 0.0
H2364 H 0.50792 0.56963 0.92986 0.0
H2365 H 0.52173 0.64364 0.90128 0.0
H2366 H 0.49467 0.53613 0.91537 0.0
H2367 H 0.50817 0.60909 0.8873 0.0
H2368 H 0.54321 0.49842 0.94051 0.0
H2369 H 0.55436 0.61672 0.95374 0.0
H2370 H 0.54974 0.46635 0.95943 0.0
H2371 H 0.56063 0.5828 0.9725 0.0
H2372 H 0.53686 0.5086 0.88268 0.0
H2373 H 0.52685 0.4476 0.91543 0.0
H2374 H 0.51582 0.6351 0.9809 0.0
H2375 H 0.5131 0.516 0.96346 0.0
Li2376 Li 0.71417 0.65245 0.92044 0.0
Li2377 Li 0.71963 0.62704 0.94021 0.0
Li2378 Li 0.71671 0.57765 0.92339 0.0
Li2379 Li 0.70039 0.61371 0.93323 0.0
C2380 C 0.73914 0.60784 0.92276 0.0
N2381 N 0.76087 0.57607 0.9184 0.0
C2382 C 0.74564 0.59118 0.9321 0.0
C2383 C 0.74368 0.60846 0.9112 0.0
C2384 C 0.75662 0.57528 0.92971 0.0
C2385 C 0.75468 0.59216 0.90918 0.0
C2386 C 0.70895 0.69947 0.94387 0.0
C2387 C 0.70699 0.72751 0.96372 0.0
N2388 N 0.71288 0.76187 0.96023 0.0
C2389 C 0.71491 0.73517 0.94046 0.0
C2390 C 0.70487 0.69571 0.95556 0.0
C2391 C 0.71682 0.76636 0.94887 0.0
C2392 C 0.7057 0.71292 0.90484 0.0
N2393 N 0.71552 0.69609 0.90934 0.0
C2394 C 0.72713 0.7431 0.89812 0.0
C2395 C 0.72611 0.71045 0.90621 0.0
C2396 C 0.71713 0.76086 0.89316 0.0
C2397 C 0.70631 0.74507 0.89658 0.0
H2398 H 0.69739 0.7013 0.90768 0.0
H2399 H 0.73376 0.69687 0.91012 0.0
C2400 C 0.72598 0.62756 0.96485 0.0
N2401 N 0.7283 0.64368 0.95392 0.0
C2402 C 0.73044 0.6463 0.97511 0.0
C2403 C 0.74 0.69669 0.96261 0.0
C2404 C 0.73549 0.67664 0.9526 0.0
C2405 C 0.73725 0.68229 0.97411 0.0
H2406 H 0.72024 0.60135 0.96565 0.0
H2407 H 0.73709 0.68902 0.94379 0.0
C2408 C 0.7006 0.61127 0.90445 0.0
N2409 N 0.69464 0.6224 0.88081 0.0
C2410 C 0.68917 0.62006 0.90136 0.0
C2411 C 0.70899 0.60792 0.89554 0.0
C2412 C 0.68634 0.62564 0.88934 0.0
C2413 C 0.70581 0.61371 0.88363 0.0
C2414 C 0.70418 0.54695 0.94634 0.0
C2415 C 0.70225 0.50681 0.94214 0.0
C2416 C 0.6984 0.56081 0.95654 0.0
C2417 C 0.69445 0.48128 0.94816 0.0
C2418 C 0.69065 0.53437 0.96229 0.0
N2419 N 0.68884 0.4955 0.95801 0.0
C2420 C 0.73085 0.5096 0.91382 0.0
C2421 C 0.71105 0.51227 0.90867 0.0
C2422 C 0.73251 0.47555 0.90624 0.0
N2423 N 0.72027 0.52772 0.91471 0.0
C2424 C 0.71232 0.47871 0.90098 0.0
C2425 C 0.72317 0.45989 0.89958 0.0
H2426 H 0.73804 0.52154 0.91887 0.0
H2427 H 0.70267 0.52654 0.90967 0.0
C2428 C 0.67894 0.64536 0.94056 0.0
N2429 N 0.68433 0.61035 0.93677 0.0
C2430 C 0.66701 0.64578 0.94224 0.0
C2431 C 0.66638 0.57383 0.93633 0.0
C2432 C 0.67832 0.575 0.93457 0.0
C2433 C 0.66058 0.60975 0.94006 0.0
H2434 H 0.68388 0.67332 0.94197 0.0
H2435 H 0.68276 0.548 0.93119 0.0
O2436 O 0.72843 0.62397 0.92491 0.0
O2437 O 0.70725 0.66814 0.93585 0.0
O2438 O 0.70357 0.60636 0.91617 0.0
O2439 O 0.71173 0.57247 0.94052 0.0
H2440 H 0.74223 0.5903 0.94109 0.0
H2441 H 0.73875 0.62126 0.90388 0.0
H2442 H 0.76175 0.56222 0.93685 0.0
H2443 H 0.7583 0.59231 0.90028 0.0
H2444 H 0.70399 0.72483 0.97283 0.0
H2445 H 0.71813 0.73857 0.93145 0.0
H2446 H 0.70024 0.66826 0.95834 0.0
H2447 H 0.72149 0.79404 0.94638 0.0
H2448 H 0.73564 0.7547 0.89594 0.0
H2449 H 0.69836 0.7572 0.89289 0.0
H2450 H 0.7283 0.63338 0.98375 0.0
H2451 H 0.74506 0.72449 0.96132 0.0
H2452 H 0.68259 0.62279 0.90818 0.0
H2453 H 0.71788 0.60119 0.89782 0.0
H2454 H 0.67753 0.63261 0.88681 0.0
H2455 H 0.71221 0.61137 0.87664 0.0
H2456 H 0.70672 0.4955 0.93431 0.0
H2457 H 0.69977 0.59183 0.95988 0.0
H2458 H 0.69283 0.45019 0.94499 0.0
H2459 H 0.68605 0.54479 0.97013 0.0
H2460 H 0.74099 0.46162 0.90564 0.0
H2461 H 0.70487 0.46829 0.89598 0.0
H2462 H 0.66282 0.67407 0.94511 0.0
H2463 H 0.66167 0.54566 0.93438 0.0
Li2464 Li 0.46756 0.36885 0.68759 0.0
Li2465 Li 0.46372 0.41772 0.67221 0.0
Li2466 Li 0.44791 0.38079 0.68173 0.0
Li2467 Li 0.46162 0.3445 0.66841 0.0
C2468 C 0.46512 0.45075 0.69488 0.0
N2469 N 0.47821 0.51045 0.70624 0.0
C2470 C 0.47712 0.45128 0.6935 0.0
C2471 C 0.45979 0.48054 0.70205 0.0
C2472 C 0.48358 0.48173 0.69931 0.0
C2473 C 0.46656 0.51048 0.70771 0.0
C2474 C 0.48259 0.37782 0.66219 0.0
C2475 C 0.48433 0.39122 0.64108 0.0
N2476 N 0.4959 0.38461 0.64181 0.0
C2477 C 0.4945 0.37116 0.66273 0.0
C2478 C 0.47745 0.38792 0.65128 0.0
C2479 C 0.50108 0.37473 0.65233 0.0
C2480 C 0.48528 0.32365 0.6982 0.0
N2481 N 0.47687 0.35162 0.70071 0.0
C2482 C 0.47914 0.3399 0.72164 0.0
C2483 C 0.47396 0.36099 0.71215 0.0
C2484 C 0.48743 0.30909 0.7193 0.0
C2485 C 0.49075 0.30212 0.7074 0.0
H2486 H 0.48729 0.31642 0.689 0.0
H2487 H 0.46706 0.38279 0.71387 0.0
C2488 C 0.45806 0.48743 0.65922 0.0
N2489 N 0.46724 0.46888 0.66452 0.0
C2490 C 0.45965 0.52153 0.65178 0.0
C2491 C 0.4801 0.5188 0.65602 0.0
C2492 C 0.47811 0.48415 0.66325 0.0
C2493 C 0.47081 0.53754 0.64993 0.0
H2494 H 0.44952 0.47478 0.66046 0.0
H2495 H 0.48529 0.46875 0.66755 0.0
C2496 C 0.45476 0.30467 0.69445 0.0
N2497 N 0.45415 0.26166 0.71578 0.0
C2498 C 0.46002 0.26585 0.69537 0.0
C2499 C 0.44917 0.32155 0.70439 0.0
C2500 C 0.45965 0.24465 0.70623 0.0
C2501 C 0.44893 0.29929 0.71507 0.0
C2502 C 0.44116 0.37522 0.65818 0.0
C2503 C 0.43665 0.33595 0.66063 0.0
C2504 C 0.436 0.39969 0.64938 0.0
C2505 C 0.42702 0.32197 0.65429 0.0
C2506 C 0.42638 0.38459 0.64323 0.0
N2507 N 0.42213 0.34639 0.6458 0.0
C2508 C 0.42717 0.42321 0.68591 0.0
C2509 C 0.42556 0.35023 0.68735 0.0
C2510 C 0.41524 0.4276 0.68716 0.0
N2511 N 0.43203 0.38495 0.68585 0.0
C2512 C 0.4136 0.35316 0.6886 0.0
C2513 C 0.40825 0.39221 0.68829 0.0
H2514 H 0.43254 0.45022 0.68456 0.0
H2515 H 0.42963 0.32011 0.68706 0.0
C2516 C 0.46898 0.26649 0.6605 0.0
N2517 N 0.46344 0.30146 0.65694 0.0
C2518 C 0.46965 0.23235 0.65289 0.0
C2519 C 0.45943 0.27168 0.63788 0.0
C2520 C 0.45909 0.30518 0.64571 0.0
C2521 C 0.46454 0.23445 0.64155 0.0
H2522 H 0.4727 0.26494 0.66932 0.0
H2523 H 0.45515 0.33381 0.64287 0.0
O2524 O 0.45854 0.4214 0.68929 0.0
O2525 O 0.47611 0.37449 0.67236 0.0
O2526 O 0.4554 0.32667 0.68402 0.0
O2527 O 0.45052 0.38987 0.66436 0.0
H2528 H 0.48144 0.4285 0.68804 0.0
H2529 H 0.45051 0.48053 0.7032 0.0
H2530 H 0.49287 0.48251 0.69832 0.0
H2531 H 0.46254 0.53374 0.71328 0.0
H2532 H 0.48046 0.39908 0.63259 0.0
H2533 H 0.49861 0.36335 0.67111 0.0
H2534 H 0.46827 0.3934 0.65065 0.0
H2535 H 0.51031 0.36967 0.65262 0.0
H2536 H 0.47619 0.34604 0.73063 0.0
H2537 H 0.49725 0.27929 0.70517 0.0
H2538 H 0.45221 0.53405 0.6472 0.0
H2539 H 0.48883 0.53031 0.65508 0.0
H2540 H 0.46443 0.25231 0.68783 0.0
H2541 H 0.44527 0.35193 0.70394 0.0
H2542 H 0.46375 0.21471 0.70709 0.0
H2543 H 0.4447 0.31212 0.72284 0.0
H2544 H 0.44055 0.31627 0.66729 0.0
H2545 H 0.43939 0.43 0.64726 0.0
H2546 H 0.42346 0.29168 0.65611 0.0
H2547 H 0.42231 0.40325 0.63641 0.0
H2548 H 0.4115 0.45833 0.68701 0.0
H2549 H 0.40856 0.32501 0.68926 0.0
H2550 H 0.47372 0.20416 0.656 0.0
H2551 H 0.45561 0.27465 0.62909 0.0
Li2552 Li 0.2998 0.37375 0.68473 0.0
Li2553 Li 0.28433 0.41097 0.67246 0.0
Li2554 Li 0.28016 0.38135 0.69208 0.0
Li2555 Li 0.28312 0.33556 0.67539 0.0
C2556 C 0.29051 0.45298 0.6972 0.0
N2557 N 0.28763 0.50561 0.71639 0.0
C2558 C 0.28278 0.48612 0.69644 0.0
C2559 C 0.29687 0.44685 0.70765 0.0
C2560 C 0.28142 0.5123 0.70627 0.0
C2561 C 0.29527 0.47377 0.71727 0.0
C2562 C 0.29684 0.36181 0.65552 0.0
C2563 C 0.28844 0.35404 0.63596 0.0
N2564 N 0.29918 0.34849 0.63129 0.0
C2565 C 0.30779 0.35603 0.65055 0.0
C2566 C 0.28709 0.36083 0.64819 0.0
C2567 C 0.30879 0.34935 0.63827 0.0
C2568 C 0.32132 0.33619 0.68965 0.0
N2569 N 0.31576 0.37283 0.68811 0.0
C2570 C 0.3334 0.41025 0.69038 0.0
C2571 C 0.32149 0.40949 0.6885 0.0
C2572 C 0.33947 0.37288 0.69179 0.0
C2573 C 0.33325 0.33549 0.69153 0.0
H2574 H 0.31651 0.30753 0.68921 0.0
H2575 H 0.31681 0.43812 0.68722 0.0
C2576 C 0.27168 0.47624 0.66208 0.0
N2577 N 0.28182 0.45508 0.66173 0.0
C2578 C 0.26978 0.50923 0.65425 0.0
C2579 C 0.28871 0.49732 0.64579 0.0
C2580 C 0.29033 0.46515 0.6539 0.0
C2581 C 0.27836 0.51982 0.64595 0.0
H2582 H 0.26511 0.46759 0.66847 0.0
H2583 H 0.29839 0.44833 0.65399 0.0
C2584 C 0.28644 0.30189 0.70001 0.0
N2585 N 0.27955 0.24466 0.71688 0.0
C2586 C 0.27612 0.28014 0.69852 0.0
C2587 C 0.29336 0.29409 0.70998 0.0
C2588 C 0.27276 0.25145 0.70717 0.0
C2589 C 0.2897 0.26518 0.71844 0.0
C2590 C 0.25985 0.36592 0.67507 0.0
C2591 C 0.25337 0.34617 0.68393 0.0
C2592 C 0.25489 0.37355 0.66392 0.0
C2593 C 0.2421 0.33358 0.68138 0.0
C2594 C 0.2436 0.36045 0.66171 0.0
N2595 N 0.23749 0.34086 0.67041 0.0
C2596 C 0.26245 0.42033 0.70491 0.0
C2597 C 0.27583 0.38521 0.7173 0.0
C2598 C 0.25716 0.43824 0.71485 0.0
N2599 N 0.27171 0.39487 0.70628 0.0
C2600 C 0.27073 0.40214 0.7275 0.0
C2601 C 0.26143 0.42979 0.72632 0.0
H2602 H 0.25954 0.42843 0.69604 0.0
H2603 H 0.28347 0.36638 0.71817 0.0
C2604 C 0.28964 0.26715 0.66208 0.0
N2605 N 0.28006 0.28527 0.66673 0.0
C2606 C 0.28868 0.23438 0.65404 0.0
C2607 C 0.26799 0.23666 0.65649 0.0
C2608 C 0.26935 0.27017 0.66429 0.0
C2609 C 0.27773 0.21885 0.65097 0.0
H2610 H 0.29808 0.2794 0.66423 0.0
H2611 H 0.26182 0.28439 0.66818 0.0
O2612 O 0.29167 0.42617 0.68784 0.0
O2613 O 0.29571 0.36802 0.66753 0.0
O2614 O 0.28993 0.33003 0.69165 0.0
O2615 O 0.27087 0.3788 0.6774 0.0
H2616 H 0.27778 0.49116 0.68842 0.0
H2617 H 0.30284 0.42118 0.70837 0.0
H2618 H 0.27539 0.53784 0.70586 0.0
H2619 H 0.30006 0.46921 0.72545 0.0
H2620 H 0.28097 0.35313 0.63018 0.0
H2621 H 0.31542 0.35663 0.65613 0.0
H2622 H 0.27857 0.36504 0.65193 0.0
H2623 H 0.3172 0.34481 0.63429 0.0
H2624 H 0.33781 0.43979 0.69067 0.0
H2625 H 0.33759 0.30596 0.69243 0.0
H2626 H 0.2617 0.52605 0.65462 0.0
H2627 H 0.29558 0.50513 0.63962 0.0
H2628 H 0.2708 0.28517 0.69073 0.0
H2629 H 0.30144 0.31048 0.71119 0.0
H2630 H 0.26477 0.2345 0.70615 0.0
H2631 H 0.29493 0.25903 0.72624 0.0
H2632 H 0.25699 0.34065 0.69268 0.0
H2633 H 0.2597 0.38952 0.65703 0.0
H2634 H 0.23701 0.31808 0.68813 0.0
H2635 H 0.23967 0.36596 0.6531 0.0
H2636 H 0.24998 0.45922 0.71356 0.0
H2637 H 0.2744 0.39535 0.73617 0.0
H2638 H 0.29649 0.22252 0.64997 0.0
H2639 H 0.25937 0.22528 0.65471 0.0
Li2640 Li 0.45036 0.37973 0.07128 0.0
Li2641 Li 0.46645 0.41164 0.08234 0.0
Li2642 Li 0.46946 0.38814 0.06219 0.0
Li2643 Li 0.46644 0.33944 0.07886 0.0
C2644 C 0.45372 0.45126 0.05823 0.0
N2645 N 0.44368 0.49085 0.039 0.0
C2646 C 0.45256 0.4943 0.05821 0.0
C2647 C 0.44979 0.42831 0.04845 0.0
C2648 C 0.44745 0.51375 0.04841 0.0
C2649 C 0.44473 0.44892 0.03882 0.0
C2650 C 0.451 0.34643 0.09691 0.0
C2651 C 0.45385 0.31105 0.11566 0.0
N2652 N 0.44329 0.29313 0.1145 0.0
C2653 C 0.44013 0.32791 0.09597 0.0
C2654 C 0.45788 0.33823 0.1069 0.0
C2655 C 0.4364 0.30099 0.10494 0.0
C2656 C 0.42871 0.34952 0.06333 0.0
N2657 N 0.43426 0.38214 0.0684 0.0
C2658 C 0.41661 0.42004 0.06988 0.0
C2659 C 0.42851 0.41703 0.07165 0.0
C2660 C 0.41059 0.38664 0.06481 0.0
C2661 C 0.41679 0.35106 0.06148 0.0
H2662 H 0.43354 0.32218 0.06086 0.0
H2663 H 0.43318 0.44239 0.07571 0.0
C2664 C 0.47563 0.48904 0.08846 0.0
N2665 N 0.47006 0.45539 0.0929 0.0
C2666 C 0.47796 0.52288 0.09581 0.0
C2667 C 0.46887 0.4865 0.11217 0.0
C2668 C 0.46671 0.4534 0.1045 0.0
C2669 C 0.47444 0.52202 0.10781 0.0
H2670 H 0.47812 0.48972 0.07915 0.0
H2671 H 0.46214 0.42654 0.10773 0.0
C2672 C 0.46415 0.30641 0.05574 0.0
N2673 N 0.47391 0.24445 0.04204 0.0
C2674 C 0.47571 0.29523 0.05743 0.0
C2675 C 0.45757 0.28603 0.04709 0.0
C2676 C 0.48048 0.26383 0.05041 0.0
C2677 C 0.46266 0.25482 0.04025 0.0
C2678 C 0.48855 0.39618 0.08206 0.0
C2679 C 0.49642 0.42087 0.07584 0.0
C2680 C 0.48985 0.39074 0.09436 0.0
C2681 C 0.50532 0.44045 0.08208 0.0
C2682 C 0.49885 0.41088 0.10029 0.0
N2683 N 0.50633 0.43516 0.09408 0.0
C2684 C 0.4804 0.44552 0.04801 0.0
C2685 C 0.47769 0.38256 0.03756 0.0
C2686 C 0.48476 0.46456 0.0378 0.0
N2687 N 0.4769 0.40537 0.04773 0.0
C2688 C 0.4821 0.40034 0.02711 0.0
C2689 C 0.4856 0.4421 0.0271 0.0
H2690 H 0.47945 0.46325 0.05614 0.0
H2691 H 0.47465 0.35099 0.0374 0.0
C2692 C 0.46134 0.25972 0.08769 0.0
N2693 N 0.47007 0.28725 0.08608 0.0
C2694 C 0.46277 0.22606 0.09537 0.0
C2695 C 0.48261 0.24665 0.09832 0.0
C2696 C 0.48069 0.28062 0.09085 0.0
C2697 C 0.47344 0.21969 0.10113 0.0
H2698 H 0.45301 0.26551 0.08367 0.0
H2699 H 0.48756 0.30255 0.08924 0.0
O2700 O 0.45882 0.43193 0.06773 0.0
O2701 O 0.45484 0.37257 0.08814 0.0
O2702 O 0.45922 0.33695 0.06248 0.0
O2703 O 0.47964 0.37736 0.07614 0.0
H2704 H 0.4556 0.51247 0.0657 0.0
H2705 H 0.45065 0.39499 0.04827 0.0
H2706 H 0.4465 0.54706 0.04827 0.0
H2707 H 0.44166 0.43157 0.0312 0.0
H2708 H 0.45915 0.30411 0.12336 0.0
H2709 H 0.43464 0.33397 0.08837 0.0
H2710 H 0.4663 0.35221 0.10781 0.0
H2711 H 0.42803 0.28627 0.10428 0.0
H2712 H 0.41214 0.4478 0.0727 0.0
H2713 H 0.41248 0.32478 0.05746 0.0
H2714 H 0.48236 0.54956 0.09212 0.0
H2715 H 0.46583 0.48486 0.1213 0.0
H2716 H 0.48097 0.31059 0.06403 0.0
H2717 H 0.44862 0.29435 0.04566 0.0
H2718 H 0.4894 0.25489 0.05162 0.0
H2719 H 0.45767 0.23884 0.03352 0.0
H2720 H 0.4957 0.4248 0.0663 0.0
H2721 H 0.4839 0.37157 0.09931 0.0
H2722 H 0.51144 0.45982 0.07738 0.0
H2723 H 0.49988 0.40726 0.10983 0.0
H2724 H 0.48709 0.49698 0.03822 0.0
H2725 H 0.48267 0.38165 0.01911 0.0
H2726 H 0.45534 0.20681 0.09723 0.0
H2727 H 0.49112 0.24245 0.10211 0.0
Li2728 Li 0.28186 0.36065 0.06318 0.0
Li2729 Li 0.28552 0.40268 0.08009 0.0
Li2730 Li 0.30178 0.36799 0.06995 0.0
Li2731 Li 0.28656 0.32751 0.08183 0.0
C2732 C 0.29325 0.4303 0.05287 0.0
N2733 N 0.29694 0.46801 0.03106 0.0
C2734 C 0.28688 0.46533 0.04965 0.0
C2735 C 0.30163 0.4149 0.04507 0.0
C2736 C 0.28882 0.4838 0.03856 0.0
C2737 C 0.30333 0.43428 0.03406 0.0
C2738 C 0.26252 0.38198 0.0772 0.0
C2739 C 0.24257 0.39155 0.08271 0.0
N2740 N 0.24178 0.4234 0.07481 0.0
C2741 C 0.26151 0.41473 0.06913 0.0
C2742 C 0.25298 0.37019 0.08404 0.0
C2743 C 0.25095 0.43531 0.06805 0.0
C2744 C 0.26329 0.32291 0.05162 0.0
N2745 N 0.27253 0.34772 0.04936 0.0
C2746 C 0.27056 0.33563 0.02838 0.0
C2747 C 0.27601 0.35527 0.03797 0.0
C2748 C 0.26147 0.30781 0.03054 0.0
C2749 C 0.2576 0.30271 0.04232 0.0
H2750 H 0.26085 0.31634 0.06073 0.0
H2751 H 0.28351 0.37402 0.0363 0.0
C2752 C 0.29086 0.4815 0.08849 0.0
N2753 N 0.28269 0.45144 0.08932 0.0
C2754 C 0.29098 0.51424 0.09662 0.0
C2755 C 0.27381 0.48611 0.10582 0.0
C2756 C 0.27413 0.45342 0.09762 0.0
C2757 C 0.28252 0.51632 0.10557 0.0
H2758 H 0.29768 0.47868 0.08194 0.0
H2759 H 0.26793 0.42855 0.09833 0.0
C2760 C 0.29124 0.28775 0.05732 0.0
N2761 N 0.28601 0.23198 0.03941 0.0
C2762 C 0.28319 0.2563 0.05933 0.0
C2763 C 0.29674 0.29052 0.04624 0.0
C2764 C 0.28063 0.22849 0.05015 0.0
C2765 C 0.29395 0.2621 0.03729 0.0
C2766 C 0.29935 0.38451 0.09847 0.0
C2767 C 0.30837 0.41193 0.10092 0.0
C2768 C 0.29136 0.37486 0.10739 0.0
C2769 C 0.30918 0.42966 0.11226 0.0
C2770 C 0.29247 0.39321 0.11863 0.0
N2771 N 0.30127 0.42005 0.1208 0.0
C2772 C 0.32415 0.40335 0.06914 0.0
C2773 C 0.32296 0.33292 0.06333 0.0
C2774 C 0.33618 0.40237 0.06822 0.0
N2775 N 0.31786 0.36873 0.06687 0.0
C2776 C 0.33494 0.33066 0.06218 0.0
C2777 C 0.34176 0.36542 0.06489 0.0
H2778 H 0.31983 0.43129 0.07204 0.0
H2779 H 0.31774 0.30576 0.0617 0.0
C2780 C 0.27463 0.26238 0.09366 0.0
N2781 N 0.28503 0.2803 0.0915 0.0
C2782 C 0.27403 0.22546 0.10014 0.0
C2783 C 0.29483 0.22694 0.10215 0.0
C2784 C 0.29502 0.26367 0.09565 0.0
C2785 C 0.28426 0.20704 0.10435 0.0
H2786 H 0.26685 0.27625 0.09012 0.0
H2787 H 0.30315 0.27875 0.09372 0.0
O2788 O 0.29161 0.41245 0.06382 0.0
O2789 O 0.27277 0.36139 0.07847 0.0
O2790 O 0.29357 0.31608 0.06607 0.0
O2791 O 0.29811 0.36816 0.08729 0.0
H2792 H 0.28054 0.47832 0.05569 0.0
H2793 H 0.30667 0.38797 0.04738 0.0
H2794 H 0.28392 0.51081 0.03594 0.0
H2795 H 0.30973 0.42246 0.0279 0.0
H2796 H 0.23512 0.38281 0.08796 0.0
H2797 H 0.26877 0.424 0.06373 0.0
H2798 H 0.25364 0.34487 0.09033 0.0
H2799 H 0.25005 0.46071 0.06183 0.0
H2800 H 0.27392 0.34016 0.01946 0.0
H2801 H 0.25054 0.28195 0.0444 0.0
H2802 H 0.29782 0.53705 0.09614 0.0
H2803 H 0.26722 0.48651 0.11268 0.0
H2804 H 0.27881 0.25381 0.06783 0.0
H2805 H 0.30299 0.31466 0.04451 0.0
H2806 H 0.27432 0.20428 0.05155 0.0
H2807 H 0.29807 0.26411 0.02865 0.0
H2808 H 0.3146 0.41984 0.09409 0.0
H2809 H 0.28426 0.35399 0.1056 0.0
H2810 H 0.31606 0.45121 0.11426 0.0
H2811 H 0.2863 0.38629 0.12559 0.0
H2812 H 0.34106 0.42979 0.07055 0.0
H2813 H 0.33881 0.30173 0.05939 0.0
H2814 H 0.26572 0.21093 0.10155 0.0
H2815 H 0.30289 0.2142 0.10539 0.0
H2816 H 0.10457 0.17609 0.31888 0.0
H2817 H 0.10334 0.05134 0.30503 0.0
H2818 H 0.12428 0.05102 0.30305 0.0
H2819 H 0.14299 0.08509 0.30582 0.0
H2820 H 0.14425 0.20671 0.32185 0.0
H2821 H 0.12327 0.20914 0.32232 0.0
C2822 C 0.10884 0.14853 0.31557 0.0
C2823 C 0.10228 0.11381 0.31213 0.0
C2824 C 0.12094 0.14798 0.31479 0.0
C2825 C 0.10806 0.07887 0.30758 0.0
C2826 C 0.12009 0.07848 0.30653 0.0
C2827 C 0.13873 0.11202 0.30955 0.0
C2828 C 0.14532 0.14567 0.31376 0.0
C2829 C 0.12662 0.11273 0.3102 0.0
C2830 C 0.13951 0.18059 0.3183 0.0
C2831 C 0.12747 0.18189 0.3187 0.0
H2832 H 0.14308 0.08148 0.92823 0.0
H2833 H 0.14659 0.17946 0.95424 0.0
H2834 H 0.12565 0.18586 0.95537 0.0
H2835 H 0.1062 0.16408 0.94881 0.0
H2836 H 0.10285 0.06238 0.92416 0.0
H2837 H 0.12388 0.05628 0.9229 0.0
C2838 C 0.13934 0.10369 0.93436 0.0
C2839 C 0.14653 0.1301 0.94107 0.0
C2840 C 0.12727 0.10652 0.93523 0.0
C2841 C 0.14136 0.15925 0.94875 0.0
C2842 C 0.12935 0.16278 0.94948 0.0
C2843 C 0.11013 0.14058 0.94321 0.0
C2844 C 0.10308 0.11377 0.93656 0.0
C2845 C 0.12222 0.13679 0.9427 0.0
C2846 C 0.10818 0.08317 0.92939 0.0
C2847 C 0.12017 0.07977 0.92865 0.0
H2848 H 0.89332 0.84917 0.69882 0.0
H2849 H 0.8953 0.94272 0.67138 0.0
H2850 H 0.8743 0.94564 0.67039 0.0
H2851 H 0.85538 0.91995 0.67673 0.0
H2852 H 0.85323 0.82565 0.70391 0.0
H2853 H 0.87429 0.82402 0.70538 0.0
C2854 C 0.88916 0.87004 0.69258 0.0
C2855 C 0.89591 0.89577 0.68522 0.0
C2856 C 0.87705 0.87123 0.69194 0.0
C2857 C 0.89035 0.92304 0.6773 0.0
C2858 C 0.87832 0.92453 0.67666 0.0
C2859 C 0.8595 0.89942 0.6831 0.0
C2860 C 0.85273 0.87302 0.69021 0.0
C2861 C 0.87159 0.89865 0.68389 0.0
C2862 C 0.85824 0.84602 0.69824 0.0
C2863 C 0.87028 0.8452 0.69912 0.0
H2864 H 0.89435 0.91436 0.05167 0.0
H2865 H 0.89714 0.81555 0.07745 0.0
H2866 H 0.87618 0.81111 0.07869 0.0
H2867 H 0.85707 0.83647 0.07298 0.0
H2868 H 0.85403 0.93549 0.04733 0.0
H2869 H 0.87507 0.93934 0.04575 0.0
C2870 C 0.89037 0.89199 0.05759 0.0
C2871 C 0.89734 0.86519 0.0644 0.0
C2872 C 0.87826 0.88983 0.05837 0.0
C2873 C 0.89202 0.83607 0.07194 0.0
C2874 C 0.88002 0.8337 0.07274 0.0
C2875 C 0.86099 0.85854 0.06692 0.0
C2876 C 0.85397 0.88555 0.06026 0.0
C2877 C 0.87306 0.86047 0.06602 0.0
C2878 C 0.85923 0.91458 0.05264 0.0
C2879 C 0.87126 0.91667 0.05169 0.0
H2880 H 0.10469 0.66999 0.82128 0.0
H2881 H 0.10398 0.57104 0.7955 0.0
H2882 H 0.12509 0.57351 0.79389 0.0
H2883 H 0.14365 0.60353 0.79999 0.0
H2884 H 0.14424 0.69801 0.82733 0.0
H2885 H 0.12328 0.69845 0.82783 0.0
C2886 C 0.10918 0.64922 0.81525 0.0
C2887 C 0.10286 0.62056 0.80846 0.0
C2888 C 0.12128 0.65025 0.81458 0.0
C2889 C 0.10873 0.59329 0.80082 0.0
C2890 C 0.12076 0.59478 0.79989 0.0
C2891 C 0.13925 0.62396 0.80617 0.0
C2892 C 0.14567 0.65089 0.81353 0.0
C2893 C 0.12713 0.623 0.80678 0.0
C2894 C 0.13966 0.67761 0.8213 0.0
C2895 C 0.12762 0.67759 0.82172 0.0
H2896 H 0.10837 0.58186 0.43498 0.0
H2897 H 0.10671 0.7076 0.44798 0.0
H2898 H 0.12765 0.70874 0.45016 0.0
H2899 H 0.14652 0.6749 0.44777 0.0
H2900 H 0.14808 0.55181 0.43272 0.0
H2901 H 0.12714 0.549 0.432 0.0
C2902 C 0.11255 0.6098 0.43814 0.0
C2903 C 0.10587 0.64461 0.44126 0.0
C2904 C 0.12463 0.61074 0.43906 0.0
C2905 C 0.11153 0.68005 0.44566 0.0
C2906 C 0.12355 0.68089 0.44682 0.0
C2907 C 0.14232 0.64755 0.44422 0.0
C2908 C 0.149 0.61356 0.44038 0.0
C2909 C 0.1302 0.64653 0.44345 0.0
C2910 C 0.14328 0.57818 0.43602 0.0
C2911 C 0.13125 0.57664 0.43547 0.0
H2912 H 0.89565 0.32562 0.19421 0.0
H2913 H 0.89714 0.45109 0.18107 0.0
H2914 H 0.87611 0.45537 0.18153 0.0
H2915 H 0.85731 0.42239 0.18461 0.0
H2916 H 0.85569 0.29702 0.19784 0.0
H2917 H 0.87676 0.2935 0.19811 0.0
C2918 C 0.89137 0.35387 0.19143 0.0
C2919 C 0.89797 0.38796 0.1876 0.0
C2920 C 0.87925 0.35601 0.19161 0.0
C2921 C 0.89229 0.42456 0.1842 0.0
C2922 C 0.88025 0.42694 0.18437 0.0
C2923 C 0.86154 0.39449 0.18775 0.0
C2924 C 0.85489 0.36 0.19118 0.0
C2925 C 0.87365 0.39275 0.18795 0.0
C2926 C 0.86057 0.32385 0.19499 0.0
C2927 C 0.87262 0.32187 0.19521 0.0
H2928 H 0.89454 0.35851 0.55186 0.0
H2929 H 0.89616 0.42504 0.58526 0.0
H2930 H 0.87521 0.43023 0.58566 0.0
H2931 H 0.85633 0.41396 0.57698 0.0
H2932 H 0.85444 0.34433 0.54422 0.0
H2933 H 0.87555 0.34167 0.54322 0.0
C2934 C 0.89032 0.37386 0.55927 0.0
C2935 C 0.897 0.39162 0.56845 0.0
C2936 C 0.8782 0.37609 0.5596 0.0
C2937 C 0.89132 0.41183 0.57792 0.0
C2938 C 0.87931 0.41456 0.57822 0.0
C2939 C 0.86056 0.39866 0.56955 0.0
C2940 C 0.85386 0.37958 0.56066 0.0
C2941 C 0.87266 0.39675 0.56914 0.0
C2942 C 0.85943 0.35914 0.55119 0.0
C2943 C 0.87149 0.35765 0.55062 0.0
H2944 H 0.6423 0.16868 0.82166 0.0
H2945 H 0.64522 0.08803 0.79104 0.0
H2946 H 0.62424 0.08231 0.79007 0.0
H2947 H 0.60496 0.09942 0.79814 0.0
H2948 H 0.60221 0.18422 0.8277 0.0
H2949 H 0.62325 0.18991 0.82868 0.0
C2950 C 0.63842 0.15055 0.81458 0.0
C2951 C 0.64544 0.12866 0.80649 0.0
C2952 C 0.62634 0.14812 0.81389 0.0
C2953 C 0.64011 0.10461 0.79757 0.0
C2954 C 0.62808 0.10149 0.79695 0.0
C2955 C 0.60902 0.11917 0.80475 0.0
C2956 C 0.60213 0.14128 0.81286 0.0
C2957 C 0.62111 0.12282 0.80512 0.0
C2958 C 0.6074 0.1671 0.82134 0.0
C2959 C 0.6194 0.17025 0.82192 0.0
H2960 H 0.64583 0.10425 0.42233 0.0
H2961 H 0.64775 0.1548 0.45791 0.0
H2962 H 0.62667 0.15921 0.45872 0.0
H2963 H 0.60766 0.14796 0.44933 0.0
H2964 H 0.60601 0.09789 0.41365 0.0
H2965 H 0.627 0.09324 0.41298 0.0
C2966 C 0.64164 0.11575 0.43033 0.0
C2967 C 0.64835 0.12893 0.44007 0.0
C2968 C 0.62955 0.11816 0.43073 0.0
C2969 C 0.64278 0.14467 0.45026 0.0
C2970 C 0.63073 0.14706 0.45074 0.0
C2971 C 0.61191 0.13632 0.44139 0.0
C2972 C 0.60525 0.12305 0.43159 0.0
C2973 C 0.62403 0.13394 0.44102 0.0
C2974 C 0.61089 0.10765 0.4214 0.0
C2975 C 0.62291 0.1052 0.42097 0.0
H2976 H 0.35588 0.91718 0.179 0.0
H2977 H 0.354 0.81008 0.20195 0.0
H2978 H 0.37506 0.80772 0.20304 0.0
H2979 H 0.39404 0.83602 0.19741 0.0
H2980 H 0.39575 0.94348 0.17459 0.0
H2981 H 0.37471 0.94645 0.17383 0.0
C2982 C 0.36005 0.89365 0.18439 0.0
C2983 C 0.35333 0.86387 0.19039 0.0
C2984 C 0.37214 0.89267 0.18507 0.0
C2985 C 0.35894 0.8331 0.19712 0.0
C2986 C 0.37099 0.83186 0.19781 0.0
C2987 C 0.3898 0.85999 0.19224 0.0
C2988 C 0.39647 0.88952 0.18609 0.0
C2989 C 0.37768 0.86138 0.19177 0.0
C2990 C 0.39084 0.92071 0.17955 0.0
C2991 C 0.3788 0.92227 0.17904 0.0
H2992 H 0.35604 0.90248 0.55298 0.0
H2993 H 0.35477 0.8071 0.58 0.0
H2994 H 0.3757 0.80188 0.5797 0.0
H2995 H 0.39452 0.82666 0.5726 0.0
H2996 H 0.39602 0.92567 0.54687 0.0
H2997 H 0.37488 0.92781 0.54603 0.0
C2998 C 0.36031 0.88077 0.55889 0.0
C2999 C 0.35371 0.85511 0.56645 0.0
C3000 C 0.37244 0.87873 0.55897 0.0
C3001 C 0.3595 0.82669 0.57388 0.0
C3002 C 0.37153 0.82391 0.57381 0.0
C3003 C 0.39019 0.84834 0.56671 0.0
C3004 C 0.39677 0.87581 0.55976 0.0
C3005 C 0.37808 0.84996 0.56647 0.0
C3006 C 0.3911 0.9043 0.55232 0.0
C3007 C 0.37904 0.90549 0.55183 0.0
H3008 H 0.64171 0.66829 0.32395 0.0
H3009 H 0.64514 0.57822 0.29566 0.0
H3010 H 0.6242 0.57306 0.29419 0.0
H3011 H 0.60479 0.59342 0.30112 0.0
H3012 H 0.60147 0.68706 0.32831 0.0
H3013 H 0.62249 0.69233 0.32979 0.0
C3014 C 0.63794 0.6481 0.31728 0.0
C3015 C 0.64511 0.62346 0.31001 0.0
C3016 C 0.62587 0.64597 0.31626 0.0
C3017 C 0.63992 0.59693 0.30159 0.0
C3018 C 0.62792 0.59414 0.30066 0.0
C3019 C 0.60872 0.61501 0.30733 0.0
C3020 C 0.60166 0.63975 0.31461 0.0
C3021 C 0.6208 0.61826 0.30801 0.0
C3022 C 0.60677 0.66792 0.32256 0.0
C3023 C 0.61877 0.6708 0.32345 0.0
H3024 H 0.6459 0.66511 0.9302 0.0
H3025 H 0.64677 0.55523 0.952 0.0
H3026 H 0.62564 0.55561 0.95328 0.0
H3027 H 0.60701 0.58698 0.94803 0.0
H3028 H 0.60628 0.6937 0.92477 0.0
H3029 H 0.62726 0.69548 0.92457 0.0
C3030 C 0.64145 0.64149 0.93532 0.0
C3031 C 0.64783 0.61033 0.94106 0.0
C3032 C 0.62934 0.64152 0.93583 0.0
C3033 C 0.64199 0.57944 0.94748 0.0
C3034 C 0.62994 0.57973 0.94824 0.0
C3035 C 0.61139 0.61042 0.9428 0.0
C3036 C 0.60495 0.64027 0.93648 0.0
C3037 C 0.62352 0.61051 0.94238 0.0
C3038 C 0.6109 0.67082 0.92996 0.0
C3039 C 0.62295 0.67165 0.92972 0.0
H3040 H 0.35496 0.42057 0.67985 0.0
H3041 H 0.3527 0.32491 0.70663 0.0
H3042 H 0.37375 0.32329 0.70819 0.0
H3043 H 0.39281 0.34839 0.70171 0.0
H3044 H 0.39489 0.44347 0.67472 0.0
H3045 H 0.37389 0.44689 0.67379 0.0
C3046 C 0.35905 0.39978 0.68616 0.0
C3047 C 0.35225 0.3729 0.6931 0.0
C3048 C 0.37113 0.39908 0.68704 0.0
C3049 C 0.35773 0.34559 0.70107 0.0
C3050 C 0.36976 0.34479 0.70201 0.0
C3051 C 0.38867 0.36979 0.69561 0.0
C3052 C 0.39545 0.39569 0.68832 0.0
C3053 C 0.37656 0.3712 0.69498 0.0
C3054 C 0.38992 0.42364 0.68058 0.0
C3055 C 0.37789 0.42538 0.67996 0.0
H3056 H 0.35743 0.4236 0.05766 0.0
H3057 H 0.35499 0.30033 0.07237 0.0
H3058 H 0.37595 0.29534 0.073 0.0
H3059 H 0.39501 0.32686 0.07025 0.0
H3060 H 0.39762 0.45091 0.05628 0.0
H3061 H 0.37658 0.45501 0.05474 0.0
C3062 C 0.36148 0.39573 0.06107 0.0
C3063 C 0.35458 0.36236 0.0649 0.0
C3064 C 0.37358 0.39328 0.06163 0.0
C3065 C 0.36002 0.32626 0.06914 0.0
C3066 C 0.37204 0.32346 0.0696 0.0
C3067 C 0.39097 0.35459 0.06673 0.0
C3068 C 0.39786 0.38849 0.06338 0.0
C3069 C 0.3789 0.35683 0.06595 0.0
C3070 C 0.3925 0.42451 0.05902 0.0
C3071 C 0.38048 0.42682 0.0581 0.0
H3072 H 0.01406 0.26032 0.26909 0.0
H3073 H 0.99248 0.15259 0.26431 0.0
H3074 H 0.98403 0.18351 0.24645 0.0
H3075 H 0.98263 0.24138 0.23227 0.0
H3076 H 0.00388 0.34966 0.23733 0.0
H3077 H 0.01234 0.31874 0.25522 0.0
C3078 C 0.00739 0.24375 0.26426 0.0
C3079 C 0.00394 0.20408 0.26809 0.0
C3080 C 0.00246 0.26192 0.25407 0.0
C3081 C 0.99545 0.18285 0.26151 0.0
C3082 C 0.99054 0.20065 0.25133 0.0
C3083 C 0.98917 0.2581 0.23725 0.0
C3084 C 0.99265 0.29773 0.23344 0.0
C3085 C 0.994 0.24011 0.24752 0.0
C3086 C 0.00098 0.31928 0.24012 0.0
C3087 C 0.00586 0.30152 0.25031 0.0
H3088 H 0.25523 0.01735 0.27462 0.0
H3089 H 0.22337 0.04893 0.25678 0.0
H3090 H 0.22926 0.0088 0.2394 0.0
H3091 H 0.24332 0.96408 0.22927 0.0
H3092 H 0.27504 0.93154 0.24717 0.0
H3093 H 0.26911 0.97129 0.26466 0.0
C3094 C 0.24951 0.01522 0.26698 0.0
C3095 C 0.2389 0.03658 0.26704 0.0
C3096 C 0.25285 0.9914 0.25706 0.0
C3097 C 0.2317 0.03372 0.25695 0.0
C3098 C 0.235 0.01036 0.24702 0.0
C3099 C 0.24895 0.96576 0.23698 0.0
C3100 C 0.2596 0.94474 0.23688 0.0
C3101 C 0.24555 0.98908 0.24697 0.0
C3102 C 0.26672 0.94683 0.24704 0.0
C3103 C 0.26338 0.96991 0.25702 0.0
H3104 H 0.00872 0.98758 0.97691 0.0
H3105 H 0.0036 0.10683 0.99339 0.0
H3106 H 0.99595 0.07328 0.0113 0.0
H3107 H 0.99054 0.01022 0.02215 0.0
H3108 H 0.99623 0.89073 0.00591 0.0
H3109 H 0.00359 0.92431 0.98792 0.0
C3110 C 0.00582 0.00622 0.98438 0.0
C3111 C 0.00666 0.04966 0.9838 0.0
C3112 C 0.00151 0.9867 0.99467 0.0
C3113 C 0.00309 0.07336 0.99365 0.0
C3114 C 0.99869 0.05419 0.00387 0.0
C3115 C 0.99353 0.9914 0.01476 0.0
C3116 C 0.99284 0.94789 0.01544 0.0
C3117 C 0.99788 0.01089 0.00448 0.0
C3118 C 0.99653 0.92422 0.00562 0.0
C3119 C 0.0008 0.9434 0.99534 0.0
H3120 H 0.24298 0.17258 0.99443 0.0
H3121 H 0.24306 0.27797 0.97076 0.0
H3122 H 0.25024 0.32195 0.98681 0.0
H3123 H 0.25632 0.3309 0.00768 0.0
H3124 H 0.25619 0.22551 0.03135 0.0
H3125 H 0.24893 0.18161 0.01532 0.0
C3126 C 0.2445 0.20522 0.9928 0.0
C3127 C 0.24257 0.22175 0.98135 0.0
C3128 C 0.24852 0.23055 0.00212 0.0
C3129 C 0.24469 0.26412 0.97939 0.0
C3130 C 0.24871 0.28944 0.98861 0.0
C3131 C 0.25474 0.2983 0.00932 0.0
C3132 C 0.25671 0.28171 0.02075 0.0
C3133 C 0.25067 0.27302 1.00001 0.0
C3134 C 0.25453 0.23939 0.02272 0.0
C3135 C 0.25047 0.21411 0.01352 0.0
H3136 H 0.00616 0.79881 0.73065 0.0
H3137 H 0.9706 0.78962 0.7419 0.0
H3138 H 0.97632 0.74619 0.75869 0.0
H3139 H 0.99136 0.70905 0.76994 0.0
H3140 H 0.02684 0.7172 0.75841 0.0
H3141 H 0.02115 0.76158 0.74181 0.0
C3142 C 0.99964 0.78715 0.73673 0.0
C3143 C 0.98797 0.79783 0.73501 0.0
C3144 C 0.00295 0.76146 0.74626 0.0
C3145 C 0.97968 0.78274 0.7431 0.0
C3146 C 0.98292 0.75748 0.75266 0.0
C3147 C 0.99784 0.72067 0.76382 0.0
C3148 C 0.00949 0.70944 0.76538 0.0
C3149 C 0.99453 0.74648 0.7543 0.0
C3150 C 0.01778 0.72459 0.7573 0.0
C3151 C 0.01455 0.75031 0.74785 0.0
H3152 H 0.75704 0.02738 0.77231 0.0
H3153 H 0.72415 0.05505 0.75598 0.0
H3154 H 0.72951 0.01464 0.73848 0.0
H3155 H 0.74331 0.96999 0.72791 0.0
H3156 H 0.77598 0.94082 0.7444 0.0
H3157 H 0.77072 0.98186 0.76187 0.0
C3158 C 0.751 0.02442 0.76497 0.0
C3159 C 0.74024 0.04474 0.76549 0.0
C3160 C 0.75401 0.00027 0.75499 0.0
C3161 C 0.73261 0.04075 0.75577 0.0
C3162 C 0.7356 0.01717 0.74578 0.0
C3163 C 0.74929 0.97271 0.73531 0.0
C3164 C 0.76 0.95214 0.73483 0.0
C3165 C 0.74626 0.99669 0.74531 0.0
C3166 C 0.7676 0.95567 0.74458 0.0
C3167 C 0.76464 0.97949 0.75455 0.0
H3168 H 0.75737 0.72519 0.97785 0.0
H3169 H 0.72499 0.69407 0.99477 0.0
H3170 H 0.73049 0.73378 0.01233 0.0
H3171 H 0.74435 0.77812 0.02292 0.0
H3172 H 0.77637 0.81152 0.00577 0.0
H3173 H 0.77093 0.77155 0.98814 0.0
C3174 C 0.75144 0.72734 0.98531 0.0
C3175 C 0.74081 0.70608 0.98494 0.0
C3176 C 0.75452 0.75118 0.99533 0.0
C3177 C 0.73336 0.70904 0.99484 0.0
C3178 C 0.73643 0.73222 0.00487 0.0
C3179 C 0.75014 0.77663 0.01532 0.0
C3180 C 0.76074 0.79787 0.01567 0.0
C3181 C 0.74698 0.75341 0.00522 0.0
C3182 C 0.76808 0.79599 0.00569 0.0
C3183 C 0.76502 0.77281 0.99563 0.0
H3184 H 0.2417 0.49596 0.77535 0.0
H3185 H 0.24267 0.61151 0.75603 0.0
H3186 H 0.25002 0.57565 0.7384 0.0
H3187 H 0.25642 0.51162 0.72853 0.0
H3188 H 0.25587 0.39643 0.74799 0.0
H3189 H 0.24834 0.43218 0.76559 0.0
C3190 C 0.24366 0.51346 0.76734 0.0
C3191 C 0.24165 0.55647 0.76706 0.0
C3192 C 0.24798 0.49269 0.75726 0.0
C3193 C 0.24402 0.57837 0.75649 0.0
C3194 C 0.24827 0.55791 0.74641 0.0
C3195 C 0.25453 0.49429 0.73659 0.0
C3196 C 0.25663 0.45138 0.73693 0.0
C3197 C 0.25026 0.51508 0.74669 0.0
C3198 C 0.25438 0.42949 0.74752 0.0
C3199 C 0.25004 0.4499 0.75757 0.0
H3200 H 0.01621 0.49143 0.48317 0.0
H3201 H 0.9942 0.59901 0.48569 0.0
H3202 H 0.98462 0.56928 0.50309 0.0
H3203 H 0.98237 0.51252 0.51754 0.0
H3204 H 0.00398 0.40421 0.51462 0.0
H3205 H 0.01357 0.43394 0.49719 0.0
C3206 C 0.00921 0.50823 0.48739 0.0
C3207 C 0.00598 0.54755 0.48307 0.0
C3208 C 0.0036 0.49068 0.49729 0.0
C3209 C 0.99703 0.56904 0.48888 0.0
C3210 C 0.99147 0.55192 0.4988 0.0
C3211 C 0.98922 0.49552 0.51312 0.0
C3212 C 0.99247 0.45623 0.5174 0.0
C3213 C 0.9947 0.51282 0.5031 0.0
C3214 C 0.00123 0.43431 0.51145 0.0
C3215 C 0.00677 0.45141 0.50152 0.0
H3216 H 0.23252 0.71727 0.49297 0.0
H3217 H 0.26607 0.7008 0.47691 0.0
H3218 H 0.2749 0.7415 0.49289 0.0
H3219 H 0.27314 0.78064 0.51171 0.0
H3220 H 0.23961 0.79552 0.5279 0.0
H3221 H 0.23074 0.75626 0.51166 0.0
C3222 C 0.24179 0.72209 0.49304 0.0
C3223 C 0.24862 0.70573 0.48378 0.0
C3224 C 0.24681 0.74537 0.50227 0.0
C3225 C 0.26059 0.7132 0.48388 0.0
C3226 C 0.26565 0.7364 0.49303 0.0
C3227 C 0.26387 0.77569 0.51158 0.0
C3228 C 0.25703 0.79103 0.52097 0.0
C3229 C 0.25885 0.75267 0.50227 0.0
C3230 C 0.24506 0.78381 0.5208 0.0
C3231 C 0.23999 0.7614 0.51152 0.0
H3232 H 0.74289 0.45566 0.23079 0.0
H3233 H 0.77763 0.45161 0.24473 0.0
H3234 H 0.77155 0.49083 0.26221 0.0
H3235 H 0.75651 0.52829 0.27334 0.0
H3236 H 0.72192 0.53394 0.25914 0.0
H3237 H 0.7279 0.49333 0.24184 0.0
C3238 C 0.74916 0.46352 0.23761 0.0
C3239 C 0.7607 0.4503 0.23642 0.0
C3240 C 0.74567 0.48692 0.24756 0.0
C3241 C 0.76864 0.46046 0.24547 0.0
C3242 C 0.7652 0.48334 0.25544 0.0
C3243 C 0.75027 0.52048 0.26648 0.0
C3244 C 0.7388 0.53445 0.26751 0.0
C3245 C 0.75376 0.49692 0.25656 0.0
C3246 C 0.73085 0.52429 0.25848 0.0
C3247 C 0.73424 0.50075 0.24862 0.0
H3248 H 0.76087 0.23941 0.52224 0.0
H3249 H 0.75499 0.35956 0.5066 0.0
H3250 H 0.74753 0.3269 0.48846 0.0
H3251 H 0.74235 0.26426 0.47724 0.0
H3252 H 0.74875 0.14401 0.4927 0.0
H3253 H 0.7561 0.17671 0.51082 0.0
C3254 C 0.75785 0.25843 0.51489 0.0
C3255 C 0.75839 0.30185 0.51579 0.0
C3256 C 0.75364 0.23944 0.50449 0.0
C3257 C 0.75469 0.32609 0.50611 0.0
C3258 C 0.7504 0.30743 0.49576 0.0
C3259 C 0.74551 0.24512 0.48449 0.0
C3260 C 0.74499 0.20164 0.48356 0.0
C3261 C 0.74984 0.26413 0.49485 0.0
C3262 C 0.7489 0.17748 0.49319 0.0
C3263 C 0.75317 0.19617 0.50355 0.0
H3264 H 0.49315 0.33186 0.74208 0.0
H3265 H 0.49178 0.22588 0.71863 0.0
H3266 H 0.49896 0.1816 0.73459 0.0
H3267 H 0.50533 0.17239 0.75535 0.0
H3268 H 0.50621 0.27787 0.77895 0.0
H3269 H 0.49923 0.32249 0.76291 0.0
C3270 C 0.49434 0.29904 0.74047 0.0
C3271 C 0.49202 0.28249 0.72909 0.0
C3272 C 0.49828 0.27345 0.74976 0.0
C3273 C 0.49374 0.23984 0.72718 0.0
C3274 C 0.49775 0.2143 0.73635 0.0
C3275 C 0.50403 0.20517 0.75696 0.0
C3276 C 0.50622 0.22167 0.76835 0.0
C3277 C 0.50004 0.23073 0.74768 0.0
C3278 C 0.5044 0.26419 0.77032 0.0
C3279 C 0.50049 0.28982 0.76113 0.0
H3280 H 0.50487 0.98471 0.52359 0.0
H3281 H 0.47956 0.91793 0.50284 0.0
H3282 H 0.48636 0.95187 0.48472 0.0
H3283 H 0.49908 0.00208 0.4748 0.0
H3284 H 0.52401 0.07023 0.49562 0.0
H3285 H 0.51744 0.03533 0.51372 0.0
C3286 C 0.50075 0.97775 0.51513 0.0
C3287 C 0.49171 0.94862 0.51464 0.0
C3288 C 0.50453 0.99809 0.50476 0.0
C3289 C 0.48666 0.93958 0.50352 0.0
C3290 C 0.49047 0.95933 0.49314 0.0
C3291 C 0.50312 0.00914 0.48329 0.0
C3292 C 0.51202 0.0388 0.48383 0.0
C3293 C 0.49935 0.98878 0.49366 0.0
C3294 C 0.51704 0.04798 0.49495 0.0
C3295 C 0.51335 0.02778 0.5053 0.0
H3296 H 0.47774 0.77524 0.24001 0.0
H3297 H 0.51114 0.82039 0.22899 0.0
H3298 H 0.52037 0.78079 0.24493 0.0
H3299 H 0.51899 0.7332 0.26196 0.0
H3300 H 0.48562 0.68805 0.27306 0.0
H3301 H 0.47633 0.72826 0.25724 0.0
C3302 C 0.48702 0.77687 0.2412 0.0
C3303 C 0.49374 0.80081 0.23332 0.0
C3304 C 0.49228 0.75392 0.25037 0.0
C3305 C 0.50578 0.80195 0.23486 0.0
C3306 C 0.51107 0.77938 0.24399 0.0
C3307 C 0.50969 0.73179 0.26083 0.0
C3308 C 0.50301 0.70742 0.26862 0.0
C3309 C 0.50442 0.75504 0.25174 0.0
C3310 C 0.49095 0.70668 0.26721 0.0
C3311 C 0.48564 0.72959 0.25815 0.0
H3312 H 0.50275 0.49966 0.02476 0.0
H3313 H 0.47749 0.43152 0.00432 0.0
H3314 H 0.48377 0.46649 0.98616 0.0
H3315 H 0.49625 0.51702 0.97607 0.0
H3316 H 0.52132 0.58577 0.99654 0.0
H3317 H 0.51494 0.5512 0.01476 0.0
C3318 C 0.49852 0.49268 0.01637 0.0
C3319 C 0.48967 0.46276 0.01597 0.0
C3320 C 0.50203 0.51345 0.00597 0.0
C3321 C 0.48446 0.45375 0.00492 0.0
C3322 C 0.48797 0.47407 0.99452 0.0
C3323 C 0.50035 0.52436 0.98451 0.0
C3324 C 0.50926 0.55401 0.98491 0.0
C3325 C 0.49673 0.50398 0.99494 0.0
C3326 C 0.51434 0.56357 0.99597 0.0
C3327 C 0.51077 0.5435 0.00639 0.0
H3328 H 0.02137 0.43194 0.38739 0.0
H3329 H 0.05859 0.43893 0.38699 0.0
H3330 H 0.05953 0.37539 0.37524 0.0
H3331 H 0.04979 0.31772 0.3651 0.0
H3332 H 0.01261 0.31018 0.3657 0.0
H3333 H 0.01165 0.37388 0.37743 0.0
C3334 C 0.02969 0.41939 0.38481 0.0
C3335 C 0.03989 0.44021 0.38806 0.0
C3336 C 0.03018 0.3827 0.37811 0.0
C3337 C 0.05059 0.42387 0.38447 0.0
C3338 C 0.05115 0.38736 0.37782 0.0
C3339 C 0.04149 0.32979 0.36792 0.0
C3340 C 0.03129 0.30921 0.36457 0.0
C3341 C 0.041 0.36647 0.37462 0.0
C3342 C 0.02058 0.32563 0.36809 0.0
C3343 C 0.02002 0.36197 0.37483 0.0
H3344 H 0.20443 0.80352 0.38098 0.0
H3345 H 0.23334 0.84714 0.40183 0.0
H3346 H 0.2341 0.91028 0.38993 0.0
H3347 H 0.22637 0.95375 0.3738 0.0
H3348 H 0.19701 0.91131 0.35352 0.0
H3349 H 0.19642 0.84754 0.36523 0.0
C3350 C 0.21082 0.82701 0.38304 0.0
C3351 C 0.21883 0.82039 0.39229 0.0
C3352 C 0.21108 0.86361 0.37631 0.0
C3353 C 0.22718 0.85097 0.39465 0.0
C3354 C 0.22757 0.88729 0.38791 0.0
C3355 C 0.21988 0.9304 0.37192 0.0
C3356 C 0.21175 0.93715 0.36282 0.0
C3357 C 0.21957 0.89393 0.37872 0.0
C3358 C 0.20329 0.90695 0.36057 0.0
C3359 C 0.20299 0.87043 0.36721 0.0
H3360 H 0.02247 0.94241 0.87705 0.0
H3361 H 0.04346 0.88777 0.90472 0.0
H3362 H 0.04396 0.82251 0.89382 0.0
H3363 H 0.03892 0.78146 0.87617 0.0
H3364 H 0.01779 0.83547 0.84856 0.0
H3365 H 0.01657 0.90006 0.85986 0.0
C3366 C 0.02702 0.91607 0.88078 0.0
C3367 C 0.03303 0.92021 0.89162 0.0
C3368 C 0.02721 0.87844 0.8745 0.0
C3369 C 0.03897 0.88579 0.89627 0.0
C3370 C 0.0392 0.84833 0.89008 0.0
C3371 C 0.03406 0.8074 0.87263 0.0
C3372 C 0.0285 0.80378 0.86153 0.0
C3373 C 0.03347 0.84446 0.87912 0.0
C3374 C 0.02206 0.83738 0.85714 0.0
C3375 C 0.02143 0.8744 0.86356 0.0
H3376 H 0.22626 0.41579 0.85518 0.0
H3377 H 0.20047 0.4786 0.87617 0.0
H3378 H 0.19985 0.42044 0.89016 0.0
H3379 H 0.20641 0.35169 0.89616 0.0
H3380 H 0.23092 0.28576 0.87415 0.0
H3381 H 0.23251 0.3456 0.86099 0.0
C3382 C 0.22059 0.41663 0.86288 0.0
C3383 C 0.21344 0.45113 0.86474 0.0
C3384 C 0.22008 0.38271 0.87069 0.0
C3385 C 0.206 0.45208 0.87462 0.0
C3386 C 0.20566 0.41895 0.88259 0.0
C3387 C 0.21199 0.35001 0.8884 0.0
C3388 C 0.2185 0.31402 0.88618 0.0
C3389 C 0.21259 0.38397 0.88065 0.0
C3390 C 0.22591 0.31314 0.87623 0.0
C3391 C 0.22677 0.34726 0.86862 0.0
H3392 H 0.95706 0.67239 0.64371 0.0
H3393 H 0.98917 0.72005 0.62989 0.0
H3394 H 0.99164 0.65753 0.6178 0.0
H3395 H 0.98441 0.58974 0.61091 0.0
H3396 H 0.95193 0.54403 0.62451 0.0
H3397 H 0.94989 0.60538 0.63694 0.0
C3398 C 0.96454 0.66932 0.63796 0.0
C3399 C 0.97286 0.70094 0.63762 0.0
C3400 C 0.96587 0.63356 0.63103 0.0
C3401 C 0.98267 0.69603 0.63035 0.0
C3402 C 0.98405 0.6604 0.6234 0.0
C3403 C 0.97687 0.59334 0.61656 0.0
C3404 C 0.96838 0.56218 0.61682 0.0
C3405 C 0.97567 0.62903 0.62363 0.0
C3406 C 0.95871 0.56711 0.62429 0.0
C3407 C 0.95748 0.60236 0.63134 0.0
H3408 H 0.79298 0.03719 0.62821 0.0
H3409 H 0.75953 0.06543 0.64303 0.0
H3410 H 0.75865 0.12902 0.63117 0.0
H3411 H 0.76779 0.17784 0.61714 0.0
H3412 H 0.80145 0.14973 0.60277 0.0
H3413 H 0.80184 0.08473 0.61387 0.0
C3414 C 0.78542 0.05696 0.6287 0.0
C3415 C 0.77631 0.04663 0.63643 0.0
C3416 C 0.78506 0.09359 0.622 0.0
C3417 C 0.76667 0.07292 0.63717 0.0
C3418 C 0.76616 0.10919 0.63039 0.0
C3419 C 0.77514 0.15723 0.61637 0.0
C3420 C 0.78459 0.1686 0.6092 0.0
C3421 C 0.77536 0.12004 0.62286 0.0
C3422 C 0.79414 0.14187 0.60836 0.0
C3423 C 0.79435 0.10464 0.61466 0.0
H3424 H 0.9843 0.17935 0.13384 0.0
H3425 H 0.94777 0.17138 0.14084 0.0
H3426 H 0.9467 0.10629 0.12975 0.0
H3427 H 0.95608 0.05243 0.11775 0.0
H3428 H 0.99231 0.06215 0.10951 0.0
H3429 H 0.99366 0.12575 0.12141 0.0
C3430 C 0.97615 0.16312 0.13294 0.0
C3431 C 0.96613 0.17985 0.1381 0.0
C3432 C 0.97557 0.12617 0.12636 0.0
C3433 C 0.95556 0.15903 0.13683 0.0
C3434 C 0.95495 0.12184 0.13055 0.0
C3435 C 0.96427 0.06838 0.11868 0.0
C3436 C 0.97411 0.05272 0.11292 0.0
C3437 C 0.96489 0.10523 0.12524 0.0
C3438 C 0.98466 0.07384 0.11393 0.0
C3439 C 0.98541 0.11007 0.12071 0.0
H3440 H 0.77331 0.5583 0.13093 0.0
H3441 H 0.80041 0.60664 0.15347 0.0
H3442 H 0.80091 0.67004 0.14173 0.0
H3443 H 0.79411 0.71091 0.12477 0.0
H3444 H 0.76612 0.66499 0.10302 0.0
H3445 H 0.76551 0.60157 0.11483 0.0
C3446 C 0.77921 0.58291 0.13341 0.0
C3447 C 0.78689 0.57732 0.14302 0.0
C3448 C 0.77934 0.61971 0.12674 0.0
C3449 C 0.79457 0.60951 0.14597 0.0
C3450 C 0.79481 0.646 0.13931 0.0
C3451 C 0.78771 0.68747 0.12272 0.0
C3452 C 0.78022 0.69281 0.11296 0.0
C3453 C 0.78729 0.6513 0.12964 0.0
C3454 C 0.77215 0.66152 0.11034 0.0
C3455 C 0.77174 0.62529 0.11714 0.0
H3456 H 0.53678 0.29215 0.8775 0.0
H3457 H 0.51734 0.34656 0.84867 0.0
H3458 H 0.51634 0.41222 0.8595 0.0
H3459 H 0.52175 0.45502 0.87685 0.0
H3460 H 0.54121 0.40005 0.90559 0.0
H3461 H 0.54146 0.3338 0.89513 0.0
C3462 C 0.53232 0.31841 0.87361 0.0
C3463 C 0.5272 0.31465 0.8623 0.0
C3464 C 0.53182 0.35598 0.87985 0.0
C3465 C 0.52128 0.34866 0.85742 0.0
C3466 C 0.52077 0.38626 0.86356 0.0
C3467 C 0.52604 0.42848 0.88079 0.0
C3468 C 0.53147 0.43237 0.89195 0.0
C3469 C 0.52613 0.39042 0.87472 0.0
C3470 C 0.53688 0.39768 0.89705 0.0
C3471 C 0.53708 0.35986 0.89106 0.0
H3472 H 0.70272 0.82718 0.89137 0.0
H3473 H 0.73338 0.77383 0.8757 0.0
H3474 H 0.73466 0.83172 0.86178 0.0
H3475 H 0.7268 0.89698 0.85374 0.0
H3476 H 0.69544 0.9472 0.86858 0.0
H3477 H 0.69452 0.89037 0.88296 0.0
C3478 C 0.70959 0.82771 0.8848 0.0
C3479 C 0.71793 0.79601 0.88462 0.0
C3480 C 0.71011 0.86046 0.87662 0.0
C3481 C 0.72693 0.79803 0.87621 0.0
C3482 C 0.72763 0.83099 0.86816 0.0
C3483 C 0.7198 0.89535 0.86015 0.0
C3484 C 0.71119 0.92596 0.86014 0.0
C3485 C 0.71925 0.86232 0.86827 0.0
C3486 C 0.70209 0.92362 0.8684 0.0
C3487 C 0.7016 0.8913 0.87663 0.0
H3488 H 0.54224 0.83647 0.35652 0.0
H3489 H 0.50928 0.79573 0.37013 0.0
H3490 H 0.50737 0.86017 0.38142 0.0
H3491 H 0.5154 0.92707 0.3879 0.0
H3492 H 0.54918 0.96397 0.3754 0.0
H3493 H 0.55035 0.90208 0.36316 0.0
C3494 C 0.53469 0.84131 0.36208 0.0
C3495 C 0.52598 0.81103 0.36256 0.0
C3496 C 0.53376 0.87791 0.3687 0.0
C3497 C 0.5161 0.81856 0.36953 0.0
C3498 C 0.51502 0.85532 0.37604 0.0
C3499 C 0.52306 0.9215 0.38257 0.0
C3500 C 0.53215 0.95051 0.38257 0.0
C3501 C 0.52386 0.88506 0.37577 0.0
C3502 C 0.54191 0.94289 0.37542 0.0
C3503 C 0.54267 0.90718 0.36849 0.0
H3504 H 0.72424 0.34645 0.3987 0.0
H3505 H 0.72432 0.2672 0.36769 0.0
H3506 H 0.72436 0.32786 0.35466 0.0
H3507 H 0.72304 0.40315 0.35213 0.0
H3508 H 0.72307 0.48236 0.38315 0.0
H3509 H 0.7244 0.42183 0.39614 0.0
C3510 C 0.7245 0.34242 0.38909 0.0
C3511 C 0.72422 0.30236 0.38417 0.0
C3512 C 0.72445 0.37738 0.38166 0.0
C3513 C 0.72437 0.29771 0.3717 0.0
C3514 C 0.72443 0.33236 0.36424 0.0
C3515 C 0.72356 0.40724 0.36172 0.0
C3516 C 0.72288 0.44722 0.36666 0.0
C3517 C 0.72427 0.37232 0.36913 0.0
C3518 C 0.72339 0.4519 0.37912 0.0
C3519 C 0.7242 0.41732 0.38656 0.0
H3520 H 0.47056 0.60219 0.10189 0.0
H3521 H 0.48131 0.52442 0.13116 0.0
H3522 H 0.48185 0.58457 0.14439 0.0
H3523 H 0.47808 0.65842 0.14788 0.0
H3524 H 0.46735 0.73595 0.11854 0.0
H3525 H 0.46809 0.67666 0.10504 0.0
C3526 C 0.47324 0.5985 0.1111 0.0
C3527 C 0.47586 0.5589 0.11555 0.0
C3528 C 0.47346 0.63309 0.11865 0.0
C3529 C 0.47912 0.55454 0.12756 0.0
C3530 C 0.47946 0.5889 0.13512 0.0
C3531 C 0.4761 0.66247 0.13849 0.0
C3532 C 0.4726 0.70144 0.13423 0.0
C3533 C 0.47647 0.62821 0.1308 0.0
C3534 C 0.46991 0.70611 0.12207 0.0
C3535 C 0.47037 0.67228 0.11434 0.0
H3536 H 0.29158 0.03318 0.12873 0.0
H3537 H 0.26166 0.07286 0.14863 0.0
H3538 H 0.26084 0.13671 0.13694 0.0
H3539 H 0.26912 0.1824 0.12158 0.0
H3540 H 0.29885 0.14155 0.10155 0.0
H3541 H 0.29919 0.07687 0.11275 0.0
C3542 C 0.28475 0.05542 0.13038 0.0
C3543 C 0.2767 0.04825 0.13954 0.0
C3544 C 0.28434 0.09199 0.12366 0.0
C3545 C 0.26804 0.07784 0.14171 0.0
C3546 C 0.26754 0.11428 0.13501 0.0
C3547 C 0.27558 0.15911 0.11957 0.0
C3548 C 0.28401 0.16698 0.11082 0.0
C3549 C 0.27572 0.12187 0.12604 0.0
C3550 C 0.29239 0.13663 0.1084 0.0
C3551 C 0.29256 0.09952 0.11475 0.0
H3552 H 0.48208 0.18255 0.63545 0.0
H3553 H 0.4456 0.20333 0.63054 0.0
H3554 H 0.44416 0.14059 0.61847 0.0
H3555 H 0.45319 0.07927 0.6096 0.0
H3556 H 0.48975 0.05914 0.61375 0.0
H3557 H 0.4913 0.12219 0.62584 0.0
C3558 C 0.47384 0.17321 0.63172 0.0
C3559 C 0.46396 0.19734 0.63386 0.0
C3560 C 0.4731 0.13728 0.6247 0.0
C3561 C 0.45333 0.18534 0.6289 0.0
C3562 C 0.45249 0.14941 0.62206 0.0
C3563 C 0.46147 0.0887 0.61321 0.0
C3564 C 0.47132 0.06465 0.61094 0.0
C3565 C 0.4623 0.12508 0.61996 0.0
C3566 C 0.48207 0.07737 0.61543 0.0
C3567 C 0.48294 0.11327 0.62234 0.0
H3568 H 0.2722 0.59827 0.65159 0.0
H3569 H 0.2812 0.51987 0.62187 0.0
H3570 H 0.28016 0.57914 0.60832 0.0
H3571 H 0.27803 0.65393 0.60521 0.0
H3572 H 0.27023 0.73324 0.63508 0.0
H3573 H 0.26939 0.67301 0.64833 0.0
C3574 C 0.27375 0.59421 0.64211 0.0
C3575 C 0.27676 0.55498 0.63769 0.0
C3576 C 0.27342 0.62857 0.63445 0.0
C3577 C 0.27893 0.54997 0.62544 0.0
C3578 C 0.27833 0.58377 0.61771 0.0
C3579 C 0.27595 0.65784 0.61458 0.0
C3580 C 0.27415 0.69775 0.61919 0.0
C3581 C 0.27577 0.6233 0.62215 0.0
C3582 C 0.27168 0.70269 0.63138 0.0
C3583 C 0.2712 0.66833 0.63893 0.0
H3584 H 0.0265 0.78841 0.3772 0.0
H3585 H 0.02632 0.86957 0.40776 0.0
H3586 H 0.02523 0.92987 0.39461 0.0
H3587 H 0.02511 0.95964 0.3744 0.0
H3588 H 0.02572 0.87856 0.34383 0.0
H3589 H 0.02581 0.81814 0.35699 0.0
C3590 C 0.02605 0.81928 0.38098 0.0
C3591 C 0.02646 0.82449 0.39344 0.0
C3592 C 0.02556 0.85382 0.37335 0.0
C3593 C 0.0261 0.86474 0.3982 0.0
C3594 C 0.02544 0.89922 0.39068 0.0
C3595 C 0.02508 0.92873 0.37063 0.0
C3596 C 0.02537 0.9236 0.35815 0.0
C3597 C 0.02527 0.89415 0.37825 0.0
C3598 C 0.02557 0.88333 0.3534 0.0
C3599 C 0.0256 0.84879 0.36091 0.0
H3600 H 0.23544 0.40514 0.3949 0.0
H3601 H 0.20694 0.47207 0.37937 0.0
H3602 H 0.20587 0.42208 0.36308 0.0
H3603 H 0.21248 0.35829 0.35364 0.0
H3604 H 0.24005 0.28782 0.36978 0.0
H3605 H 0.24228 0.34082 0.38514 0.0
C3606 C 0.22907 0.40881 0.38789 0.0
C3607 C 0.22121 0.442 0.38838 0.0
C3608 C 0.22837 0.37946 0.37861 0.0
C3609 C 0.21297 0.44641 0.37927 0.0
C3610 C 0.21238 0.41796 0.36993 0.0
C3611 C 0.21894 0.3542 0.36055 0.0
C3612 C 0.22601 0.31874 0.36053 0.0
C3613 C 0.21992 0.38407 0.36959 0.0
C3614 C 0.23454 0.31488 0.36942 0.0
C3615 C 0.23576 0.34503 0.37832 0.0
H3616 H 0.01846 0.43946 0.8673 0.0
H3617 H 0.04268 0.38001 0.84359 0.0
H3618 H 0.04364 0.32017 0.85685 0.0
H3619 H 0.03822 0.28583 0.8755 0.0
H3620 H 0.01439 0.34535 0.89961 0.0
H3621 H 0.01245 0.40353 0.88578 0.0
C3622 C 0.02381 0.41312 0.86497 0.0
C3623 C 0.03054 0.41432 0.8545 0.0
C3624 C 0.02441 0.37885 0.87272 0.0
C3625 C 0.03753 0.38011 0.85166 0.0
C3626 C 0.03806 0.34583 0.85923 0.0
C3627 C 0.03265 0.31163 0.87778 0.0
C3628 C 0.02655 0.31131 0.88865 0.0
C3629 C 0.03169 0.34514 0.86986 0.0
C3630 C 0.01915 0.3446 0.89129 0.0
C3631 C 0.01809 0.37802 0.88341 0.0
H3632 H 0.22821 0.96546 0.87637 0.0
H3633 H 0.22643 0.89024 0.90813 0.0
H3634 H 0.22773 0.82756 0.896 0.0
H3635 H 0.22748 0.79415 0.87628 0.0
H3636 H 0.22835 0.86946 0.84449 0.0
H3637 H 0.22943 0.93198 0.8567 0.0
C3638 C 0.22815 0.93533 0.88064 0.0
C3639 C 0.22708 0.93257 0.89314 0.0
C3640 C 0.2287 0.89942 0.87359 0.0
C3641 C 0.22729 0.89332 0.89855 0.0
C3642 C 0.22795 0.85743 0.8916 0.0
C3643 C 0.22796 0.82426 0.87202 0.0
C3644 C 0.2277 0.8271 0.85948 0.0
C3645 C 0.22836 0.86012 0.87911 0.0
C3646 C 0.22859 0.86629 0.85411 0.0
C3647 C 0.22911 0.90211 0.86109 0.0
H3648 H 0.96056 0.20768 0.62056 0.0
H3649 H 0.98984 0.1575 0.60181 0.0
H3650 H 0.99132 0.10129 0.61649 0.0
H3651 H 0.98366 0.06509 0.63418 0.0
H3652 H 0.95509 0.11875 0.65356 0.0
H3653 H 0.95393 0.17481 0.63909 0.0
C3654 C 0.96725 0.18432 0.61972 0.0
C3655 C 0.97499 0.18612 0.61009 0.0
C3656 C 0.96815 0.15277 0.62828 0.0
C3657 C 0.98377 0.15637 0.60915 0.0
C3658 C 0.9846 0.12435 0.61753 0.0
C3659 C 0.97731 0.08941 0.63539 0.0
C3660 C 0.96937 0.08715 0.6449 0.0
C3661 C 0.97678 0.12209 0.6271 0.0
C3662 C 0.96115 0.11895 0.6462 0.0
C3663 C 0.9605 0.15124 0.63795 0.0
H3664 H 0.79286 0.54077 0.62134 0.0
H3665 H 0.76113 0.5798 0.60469 0.0
H3666 H 0.75963 0.63778 0.61873 0.0
H3667 H 0.76785 0.67898 0.63519 0.0
H3668 H 0.79911 0.63716 0.65243 0.0
H3669 H 0.80031 0.579 0.63866 0.0
C3670 C 0.78563 0.56209 0.62079 0.0
C3671 C 0.77718 0.5564 0.61194 0.0
C3672 C 0.78477 0.59493 0.62897 0.0
C3673 C 0.76774 0.58366 0.61144 0.0
C3674 C 0.7669 0.61681 0.61944 0.0
C3675 C 0.77482 0.65681 0.63609 0.0
C3676 C 0.78346 0.66302 0.64479 0.0
C3677 C 0.77541 0.62292 0.62821 0.0
C3678 C 0.79247 0.63393 0.64568 0.0
C3679 C 0.79315 0.60043 0.63784 0.0
H3680 H 0.95945 0.54644 0.12959 0.0
H3681 H 0.99177 0.58472 0.14505 0.0
H3682 H 0.99299 0.64233 0.13081 0.0
H3683 H 0.98427 0.68358 0.11462 0.0
H3684 H 0.95248 0.64177 0.09843 0.0
H3685 H 0.95162 0.58398 0.11233 0.0
C3686 C 0.96675 0.56748 0.1298 0.0
C3687 C 0.97544 0.56192 0.13839 0.0
C3688 C 0.96746 0.59993 0.1215 0.0
C3689 C 0.98498 0.5887 0.13851 0.0
C3690 C 0.98566 0.62157 0.13039 0.0
C3691 C 0.97726 0.66147 0.11396 0.0
C3692 C 0.96835 0.66768 0.10556 0.0
C3693 C 0.97689 0.62771 0.1219 0.0
C3694 C 0.95931 0.63862 0.10497 0.0
C3695 C 0.95883 0.60531 0.11289 0.0
H3696 H 0.79302 0.16173 0.14414 0.0
H3697 H 0.76114 0.21476 0.1314 0.0
H3698 H 0.75955 0.15998 0.11639 0.0
H3699 H 0.76778 0.09862 0.10624 0.0
H3700 H 0.79972 0.04654 0.11928 0.0
H3701 H 0.80083 0.09984 0.13457 0.0
C3702 C 0.78574 0.16149 0.13804 0.0
C3703 C 0.77726 0.19255 0.13885 0.0
C3704 C 0.78496 0.13025 0.12937 0.0
C3705 C 0.76776 0.1911 0.13104 0.0
C3706 C 0.76689 0.15993 0.12239 0.0
C3707 C 0.77493 0.09876 0.11248 0.0
C3708 C 0.78374 0.06886 0.11144 0.0
C3709 C 0.77551 0.12953 0.12139 0.0
C3710 C 0.79296 0.06967 0.11963 0.0
C3711 C 0.79357 0.09999 0.12847 0.0
H3712 H 0.53809 0.79364 0.87539 0.0
H3713 H 0.51387 0.85085 0.89954 0.0
H3714 H 0.51172 0.90942 0.88586 0.0
H3715 H 0.51778 0.94657 0.8676 0.0
H3716 H 0.54241 0.88935 0.84387 0.0
H3717 H 0.54345 0.82891 0.85689 0.0
C3718 C 0.53237 0.819 0.8777 0.0
C3719 C 0.52625 0.81801 0.88856 0.0
C3720 C 0.5313 0.85274 0.86989 0.0
C3721 C 0.51865 0.85068 0.89124 0.0
C3722 C 0.51747 0.88432 0.88344 0.0
C3723 C 0.52323 0.92058 0.8652 0.0
C3724 C 0.53007 0.92261 0.85481 0.0
C3725 C 0.52388 0.88595 0.87281 0.0
C3726 C 0.53718 0.88883 0.85189 0.0
C3727 C 0.53776 0.8542 0.85931 0.0
H3728 H 0.70809 0.397 0.89543 0.0
H3729 H 0.7415 0.44292 0.88468 0.0
H3730 H 0.74323 0.38661 0.87018 0.0
H3731 H 0.73496 0.32472 0.86018 0.0
H3732 H 0.70103 0.28262 0.87057 0.0
H3733 H 0.69974 0.33748 0.88534 0.0
C3734 C 0.71572 0.39514 0.88984 0.0
C3735 C 0.7246 0.42449 0.89114 0.0
C3736 C 0.71655 0.36332 0.88136 0.0
C3737 C 0.73455 0.42062 0.884 0.0
C3738 C 0.73551 0.38859 0.87561 0.0
C3739 C 0.72727 0.3278 0.86562 0.0
C3740 C 0.71817 0.29914 0.86434 0.0
C3741 C 0.72651 0.35988 0.87414 0.0
C3742 C 0.70827 0.30356 0.87151 0.0
C3743 C 0.70749 0.3351 0.87995 0.0
H3744 H 0.51593 0.44186 0.36709 0.0
H3745 H 0.54559 0.39246 0.34857 0.0
H3746 H 0.54688 0.33618 0.36297 0.0
H3747 H 0.54012 0.30231 0.38125 0.0
H3748 H 0.51001 0.34886 0.39941 0.0
H3749 H 0.50821 0.40454 0.3846 0.0
C3750 C 0.52255 0.41841 0.36607 0.0
C3751 C 0.53075 0.4219 0.35682 0.0
C3752 C 0.52319 0.38571 0.37435 0.0
C3753 C 0.53932 0.39124 0.35573 0.0
C3754 C 0.54004 0.35886 0.36394 0.0
C3755 C 0.53318 0.32474 0.38195 0.0
C3756 C 0.5253 0.32203 0.39146 0.0
C3757 C 0.53215 0.35618 0.37338 0.0
C3758 C 0.51619 0.35059 0.39217 0.0
C3759 C 0.51518 0.38237 0.38373 0.0
H3760 H 0.73094 0.94705 0.38007 0.0
H3761 H 0.70695 0.88818 0.40415 0.0
H3762 H 0.70583 0.8281 0.39101 0.0
H3763 H 0.71094 0.79355 0.37233 0.0
H3764 H 0.73459 0.85208 0.34786 0.0
H3765 H 0.73678 0.91054 0.3616 0.0
C3766 C 0.72561 0.92078 0.38251 0.0
C3767 C 0.71896 0.92225 0.39303 0.0
C3768 C 0.72492 0.88633 0.37483 0.0
C3769 C 0.71202 0.88809 0.39602 0.0
C3770 C 0.71139 0.85368 0.38853 0.0
C3771 C 0.71653 0.81919 0.36996 0.0
C3772 C 0.72248 0.81863 0.359 0.0
C3773 C 0.71764 0.85277 0.37782 0.0
C3774 C 0.72993 0.85164 0.35623 0.0
C3775 C 0.73113 0.88518 0.36407 0.0
H3776 H 0.46235 0.14459 0.10279 0.0
H3777 H 0.48731 0.22125 0.1211 0.0
H3778 H 0.48883 0.17008 0.13689 0.0
H3779 H 0.4824 0.10473 0.1462 0.0
H3780 H 0.45585 0.03262 0.12909 0.0
H3781 H 0.45534 0.08143 0.11239 0.0
C3782 C 0.46803 0.15066 0.11027 0.0
C3783 C 0.47473 0.18709 0.11055 0.0
C3784 C 0.46848 0.12197 0.11969 0.0
C3785 C 0.48222 0.1933 0.12032 0.0
C3786 C 0.48301 0.1642 0.12951 0.0
C3787 C 0.47653 0.0999 0.13879 0.0
C3788 C 0.46916 0.0654 0.13882 0.0
C3789 C 0.4761 0.12861 0.12936 0.0
C3790 C 0.46153 0.05928 0.12924 0.0
C3791 C 0.46127 0.08704 0.1197 0.0
H3792 H 0.29477 0.64281 0.14649 0.0
H3793 H 0.25997 0.68382 0.13921 0.0
H3794 H 0.25763 0.62816 0.12471 0.0
H3795 H 0.26584 0.56988 0.11316 0.0
H3796 H 0.30113 0.53324 0.11939 0.0
H3797 H 0.30298 0.58577 0.13497 0.0
C3798 C 0.28669 0.64005 0.14167 0.0
C3799 C 0.2776 0.66791 0.144 0.0
C3800 C 0.28552 0.60887 0.13302 0.0
C3801 C 0.2671 0.6627 0.13782 0.0
C3802 C 0.26577 0.63103 0.1294 0.0
C3803 C 0.2739 0.57342 0.11799 0.0
C3804 C 0.28336 0.54802 0.1151 0.0
C3805 C 0.27497 0.60424 0.12681 0.0
C3806 C 0.29378 0.55287 0.12137 0.0
C3807 C 0.29483 0.58274 0.1303 0.0
H3808 H 0.45645 0.60263 0.64505 0.0
H3809 H 0.48942 0.55047 0.63507 0.0
H3810 H 0.49181 0.60405 0.61996 0.0
H3811 H 0.48399 0.66358 0.60863 0.0
H3812 H 0.45023 0.71071 0.61749 0.0
H3813 H 0.44855 0.66048 0.6337 0.0
C3814 C 0.46412 0.60246 0.63951 0.0
C3815 C 0.47269 0.57209 0.64126 0.0
C3816 C 0.46524 0.6323 0.63048 0.0
C3817 C 0.48272 0.57359 0.63414 0.0
C3818 C 0.48405 0.60403 0.62536 0.0
C3819 C 0.4763 0.66276 0.61415 0.0
C3820 C 0.46721 0.69049 0.61186 0.0
C3821 C 0.4753 0.6332 0.62333 0.0
C3822 C 0.45727 0.68924 0.61903 0.0
C3823 C 0.45633 0.6607 0.62832 0.0
H3824 H 0.26664 0.09491 0.60843 0.0
H3825 H 0.2999 0.04698 0.61884 0.0
H3826 H 0.30105 0.09762 0.63498 0.0
H3827 H 0.2926 0.1549 0.64619 0.0
H3828 H 0.26013 0.20755 0.63473 0.0
H3829 H 0.25851 0.15484 0.61929 0.0
C3830 C 0.27413 0.09572 0.61425 0.0
C3831 C 0.2832 0.06747 0.61243 0.0
C3832 C 0.27481 0.12539 0.62342 0.0
C3833 C 0.29288 0.0688 0.61998 0.0
C3834 C 0.29351 0.09756 0.62925 0.0
C3835 C 0.28523 0.15549 0.64024 0.0
C3836 C 0.27652 0.18554 0.64176 0.0
C3837 C 0.28454 0.12607 0.63104 0.0
C3838 C 0.2669 0.18457 0.63405 0.0
C3839 C 0.26601 0.15462 0.62507 0.0
loop_
_geom_bond_atom_site_label_1
_geom_bond_atom_site_label_2
_geom_bond_distance
_geom_bond_site_symmetry_2
_ccdc_geom_bond_type
Li0 N17 1.990 . S
Li0 O60 1.956 . S
Li0 O61 1.970 . S
Li0 O62 1.961 . S
Li1 N25 1.990 . S
Li1 O60 1.970 . S
Li1 O61 1.956 . S
Li1 O63 1.961 . S
Li2 N47 1.990 . S
Li2 O60 1.961 . S
Li2 O62 1.956 . S
Li2 O63 1.970 . S
Li3 N53 1.990 . S
Li3 O61 1.961 . S
Li3 O62 1.970 . S
Li3 O63 1.956 . S
C4 C6 1.348 . S
C4 C7 1.356 . S
C4 O60 1.325 . S
N5 C8 1.314 . S
N5 C9 1.279 . S
C6 C4 1.348 . S
C6 C8 1.353 . S
C6 H64 0.929 . S
C7 C4 1.356 . S
C7 C9 1.358 . S
C7 H65 0.930 . S
C8 N5 1.314 . S
C8 C6 1.353 . S
C8 H66 0.930 . S
C9 N5 1.279 . S
C9 C7 1.358 . S
C9 H67 0.930 . S
C10 C13 1.348 . S
C10 C14 1.356 . S
C10 O61 1.325 . S
C11 N12 1.279 . S
C11 C14 1.358 1_655 S
C11 H68 0.930 . S
N12 C11 1.279 . S
N12 C15 1.314 . S
C13 C10 1.348 . S
C13 C15 1.353 1_455 S
C13 H69 0.929 . S
C14 C10 1.356 . S
C14 C11 1.358 1_455 S
C14 H70 0.930 . S
C15 N12 1.314 . S
C15 C13 1.353 1_655 S
C15 H71 0.930 . S
C16 N17 1.314 . S
C16 C21 1.353 . S
C16 H22 0.930 . S
N17 Li0 1.990 . S
N17 C16 1.314 . S
N17 C19 1.279 . S
C18 C19 1.358 . S
C18 C20 1.356 . S
C18 H72 0.930 . S
C19 N17 1.279 . S
C19 C18 1.358 . S
C19 H23 0.930 . S
C20 C18 1.356 . S
C20 C21 1.348 . S
C21 C16 1.353 . S
C21 C20 1.348 . S
C21 H73 0.929 . S
H22 C16 0.930 . S
H23 C19 0.930 . S
C24 N25 1.314 . S
C24 C26 1.353 . S
C24 H30 0.930 . S
N25 Li1 1.990 . S
N25 C24 1.314 . S
N25 C28 1.279 . S
C26 C24 1.353 . S
C26 C29 1.348 . S
C26 H74 0.929 . S
C27 C28 1.358 . S
C27 C29 1.356 . S
C27 H75 0.930 . S
C28 N25 1.279 . S
C28 C27 1.358 . S
C28 H31 0.930 . S
C29 C26 1.348 . S
C29 C27 1.356 . S
H30 C24 0.930 . S
H31 C28 0.930 . S
C32 C34 1.348 . S
C32 C35 1.356 . S
C32 O62 1.325 . S
N33 C36 1.315 1_545 S
N33 C37 1.277 . S
C34 C32 1.348 . S
C34 C36 1.353 1_545 S
C34 H76 0.929 . S
C35 C32 1.356 . S
C35 C37 1.358 . S
C35 H77 0.930 . S
C36 N33 1.315 1_565 S
C36 C34 1.353 1_565 S
C36 H78 0.930 . S
C37 N33 1.277 . S
C37 C35 1.358 . S
C37 H79 0.930 . S
C38 C39 1.348 . S
C38 C40 1.356 . S
C38 O63 1.325 . S
C39 C38 1.348 . S
C39 C41 1.353 . S
C39 H80 0.929 . S
C40 C38 1.356 . S
C40 C42 1.358 . S
C40 H81 0.930 . S
C41 C39 1.353 . S
C41 N43 1.314 . S
C41 H82 0.930 . S
C42 C40 1.358 . S
C42 N43 1.279 . S
C42 H83 0.930 . S
N43 C41 1.314 . S
N43 C42 1.279 . S
C44 C46 1.353 . S
C44 N47 1.314 . S
C44 H50 0.930 . S
C45 N47 1.279 . S
C45 C48 1.358 . S
C45 H51 0.930 . S
C46 C44 1.353 . S
C46 C49 1.348 . S
C46 H84 0.929 . S
N47 Li2 1.990 . S
N47 C44 1.314 . S
N47 C45 1.279 . S
C48 C45 1.358 . S
C48 C49 1.356 . S
C48 H85 0.930 . S
C49 C46 1.348 . S
C49 C48 1.356 . S
H50 C44 0.930 . S
H51 C45 0.930 . S
C52 N53 1.314 . S
C52 C54 1.353 1_545 S
C52 H58 0.930 . S
N53 Li3 1.990 . S
N53 C52 1.314 . S
N53 C56 1.279 . S
C54 C52 1.353 1_565 S
C54 C57 1.348 . S
C54 H86 0.929 . S
C55 C56 1.358 1_565 S
C55 C57 1.356 . S
C55 H87 0.930 . S
C56 N53 1.279 . S
C56 C55 1.358 1_545 S
C56 H59 0.930 . S
C57 C54 1.348 . S
C57 C55 1.356 . S
H58 C52 0.930 . S
H59 C56 0.930 . S
O60 Li0 1.956 . S
O60 Li1 1.970 . S
O60 Li2 1.961 . S
O60 C4 1.325 . S
O61 Li0 1.970 . S
O61 Li1 1.956 . S
O61 Li3 1.961 . S
O61 C10 1.325 . S
O62 Li0 1.961 . S
O62 Li2 1.956 . S
O62 Li3 1.970 . S
O62 C32 1.325 . S
O63 Li1 1.961 . S
O63 Li2 1.970 . S
O63 Li3 1.956 . S
O63 C38 1.325 . S
H64 C6 0.929 . S
H65 C7 0.930 . S
H66 C8 0.930 . S
H67 C9 0.930 . S
H68 C11 0.930 . S
H69 C13 0.929 . S
H70 C14 0.930 . S
H71 C15 0.930 . S
H72 C18 0.930 . S
H73 C21 0.929 . S
H74 C26 0.929 . S
H75 C27 0.930 . S
H76 C34 0.929 . S
H77 C35 0.930 . S
H78 C36 0.930 . S
H79 C37 0.930 . S
H80 C39 0.929 . S
H81 C40 0.930 . S
H82 C41 0.930 . S
H83 C42 0.930 . S
H84 C46 0.929 . S
H85 C48 0.930 . S
H86 C54 0.929 . S
H87 C55 0.930 . S
Li88 N105 1.990 . S
Li88 O148 1.956 . S
Li88 O149 1.970 . S
Li88 O150 1.961 . S
Li89 N113 1.990 . S
Li89 O148 1.970 . S
Li89 O149 1.956 . S
Li89 O151 1.961 . S
Li90 N135 1.990 . S
Li90 O148 1.961 . S
Li90 O150 1.956 . S
Li90 O151 1.970 . S
Li91 N141 1.990 . S
Li91 O149 1.961 . S
Li91 O150 1.970 . S
Li91 O151 1.956 . S
C92 C94 1.348 . S
C92 C95 1.356 . S
C92 O148 1.325 . S
N93 C96 1.314 . S
N93 C97 1.279 . S
C94 C92 1.348 . S
C94 C96 1.353 . S
C94 H152 0.929 . S
C95 C92 1.356 . S
C95 C97 1.358 . S
C95 H153 0.930 . S
C96 N93 1.314 . S
C96 C94 1.353 . S
C96 H154 0.930 . S
C97 N93 1.279 . S
C97 C95 1.358 . S
C97 H155 0.930 . S
C98 C101 1.348 . S
C98 C102 1.356 . S
C98 O149 1.325 . S
C99 N100 1.279 . S
C99 C102 1.358 . S
C99 H156 0.930 . S
N100 C99 1.279 . S
N100 C103 1.314 . S
C101 C98 1.348 . S
C101 C103 1.353 . S
C101 H157 0.929 . S
C102 C98 1.356 . S
C102 C99 1.358 . S
C102 H158 0.930 . S
C103 N100 1.314 . S
C103 C101 1.353 . S
C103 H159 0.930 . S
C104 N105 1.314 . S
C104 C109 1.353 . S
C104 H110 0.930 . S
N105 Li88 1.990 . S
N105 C104 1.314 . S
N105 C107 1.279 . S
C106 C107 1.358 . S
C106 C108 1.356 . S
C106 H160 0.930 . S
C107 N105 1.279 . S
C107 C106 1.358 . S
C107 H111 0.930 . S
C108 C106 1.356 . S
C108 C109 1.348 . S
C109 C104 1.353 . S
C109 C108 1.348 . S
C109 H161 0.929 . S
H110 C104 0.930 . S
H111 C107 0.930 . S
C112 N113 1.314 . S
C112 C114 1.353 . S
C112 H118 0.930 . S
N113 Li89 1.990 . S
N113 C112 1.314 . S
N113 C116 1.279 . S
C114 C112 1.353 . S
C114 C117 1.348 . S
C114 H162 0.929 . S
C115 C116 1.358 . S
C115 C117 1.356 . S
C115 H163 0.930 . S
C116 N113 1.279 . S
C116 C115 1.358 . S
C116 H119 0.930 . S
C117 C114 1.348 . S
C117 C115 1.356 . S
H118 C112 0.930 . S
H119 C116 0.930 . S
C120 C122 1.348 1_545 S
C120 C123 1.356 . S
C120 O150 1.325 . S
N121 C124 1.314 . S
N121 C125 1.279 . S
C122 C120 1.348 1_565 S
C122 C124 1.353 . S
C122 H164 0.929 . S
C123 C120 1.356 . S
C123 C125 1.358 1_545 S
C123 H165 0.930 . S
C124 N121 1.314 . S
C124 C122 1.353 . S
C124 H166 0.930 . S
C125 N121 1.279 . S
C125 C123 1.358 1_565 S
C125 H167 0.930 . S
C126 C127 1.348 . S
C126 C128 1.356 . S
C126 O151 1.325 . S
C127 C126 1.348 . S
C127 C129 1.353 . S
C127 H168 0.929 . S
C128 C126 1.356 . S
C128 C130 1.358 . S
C128 H169 0.930 . S
C129 C127 1.353 . S
C129 N131 1.314 . S
C129 H170 0.930 . S
C130 C128 1.358 . S
C130 N131 1.279 . S
C130 H171 0.930 . S
N131 C129 1.314 . S
N131 C130 1.279 . S
C132 C134 1.353 . S
C132 N135 1.314 . S
C132 H138 0.930 . S
C133 N135 1.279 . S
C133 C136 1.358 . S
C133 H139 0.930 . S
C134 C132 1.353 . S
C134 C137 1.348 . S
C134 H172 0.929 . S
N135 Li90 1.990 . S
N135 C132 1.314 . S
N135 C133 1.279 . S
C136 C133 1.358 . S
C136 C137 1.356 . S
C136 H173 0.930 . S
C137 C134 1.348 . S
C137 C136 1.356 . S
H138 C132 0.930 . S
H139 C133 0.930 . S
C140 N141 1.314 . S
C140 C142 1.353 1_545 S
C140 H146 0.930 . S
N141 Li91 1.990 . S
N141 C140 1.314 . S
N141 C144 1.279 . S
C142 C140 1.353 1_565 S
C142 C145 1.348 . S
C142 H174 0.929 . S
C143 C144 1.358 1_565 S
C143 C145 1.356 . S
C143 H175 0.930 . S
C144 N141 1.279 . S
C144 C143 1.358 1_545 S
C144 H147 0.930 . S
C145 C142 1.348 . S
C145 C143 1.356 . S
H146 C140 0.930 . S
H147 C144 0.930 . S
O148 Li88 1.956 . S
O148 Li89 1.970 . S
O148 Li90 1.961 . S
O148 C92 1.325 . S
O149 Li88 1.970 . S
O149 Li89 1.956 . S
O149 Li91 1.961 . S
O149 C98 1.325 . S
O150 Li88 1.961 . S
O150 Li90 1.956 . S
O150 Li91 1.970 . S
O150 C120 1.325 . S
O151 Li89 1.961 . S
O151 Li90 1.970 . S
O151 Li91 1.956 . S
O151 C126 1.325 . S
H152 C94 0.929 . S
H153 C95 0.930 . S
H154 C96 0.930 . S
H155 C97 0.930 . S
H156 C99 0.930 . S
H157 C101 0.929 . S
H158 C102 0.930 . S
H159 C103 0.930 . S
H160 C106 0.930 . S
H161 C109 0.929 . S
H162 C114 0.929 . S
H163 C115 0.930 . S
H164 C122 0.929 . S
H165 C123 0.930 . S
H166 C124 0.930 . S
H167 C125 0.930 . S
H168 C127 0.929 . S
H169 C128 0.930 . S
H170 C129 0.930 . S
H171 C130 0.930 . S
H172 C134 0.929 . S
H173 C136 0.930 . S
H174 C142 0.929 . S
H175 C143 0.930 . S
Li176 N193 1.990 . S
Li176 O236 1.956 . S
Li176 O237 1.970 . S
Li176 O238 1.961 . S
Li177 N201 1.990 . S
Li177 O236 1.970 . S
Li177 O237 1.956 . S
Li177 O239 1.961 . S
Li178 N223 1.990 . S
Li178 O236 1.961 . S
Li178 O238 1.956 . S
Li178 O239 1.970 . S
Li179 N229 1.990 . S
Li179 O237 1.961 . S
Li179 O238 1.970 . S
Li179 O239 1.956 . S
C180 C182 1.348 . S
C180 C183 1.356 . S
C180 O236 1.325 . S
N181 C184 1.314 . S
N181 C185 1.279 . S
C182 C180 1.348 . S
C182 C184 1.353 . S
C182 H240 0.929 . S
C183 C180 1.356 . S
C183 C185 1.358 . S
C183 H241 0.930 . S
C184 N181 1.314 . S
C184 C182 1.353 . S
C184 H242 0.930 . S
C185 N181 1.279 . S
C185 C183 1.358 . S
C185 H243 0.930 . S
C186 C189 1.348 . S
C186 C190 1.356 . S
C186 O237 1.325 . S
C187 N188 1.279 . S
C187 C190 1.358 . S
C187 H244 0.930 . S
N188 C187 1.279 . S
N188 C191 1.314 . S
C189 C186 1.348 . S
C189 C191 1.353 . S
C189 H245 0.929 . S
C190 C186 1.356 . S
C190 C187 1.358 . S
C190 H246 0.930 . S
C191 N188 1.314 . S
C191 C189 1.353 . S
C191 H247 0.930 . S
C192 N193 1.314 . S
C192 C197 1.353 . S
C192 H198 0.930 . S
N193 Li176 1.990 . S
N193 C192 1.314 . S
N193 C195 1.279 . S
C194 C195 1.358 . S
C194 C196 1.356 . S
C194 H248 0.930 . S
C195 N193 1.279 . S
C195 C194 1.358 . S
C195 H199 0.930 . S
C196 C194 1.356 . S
C196 C197 1.348 . S
C197 C192 1.353 . S
C197 C196 1.348 . S
C197 H249 0.929 . S
H198 C192 0.930 . S
H199 C195 0.930 . S
C200 N201 1.314 . S
C200 C202 1.353 . S
C200 H206 0.930 . S
N201 Li177 1.990 . S
N201 C200 1.314 . S
N201 C204 1.279 . S
C202 C200 1.353 . S
C202 C205 1.348 . S
C202 H250 0.929 . S
C203 C204 1.358 . S
C203 C205 1.356 . S
C203 H251 0.930 . S
C204 N201 1.279 . S
C204 C203 1.358 . S
C204 H207 0.930 . S
C205 C202 1.348 . S
C205 C203 1.356 . S
H206 C200 0.930 . S
H207 C204 0.930 . S
C208 C210 1.348 1_545 S
C208 C211 1.356 . S
C208 O238 1.325 . S
N209 C212 1.314 . S
N209 C213 1.279 . S
C210 C208 1.348 1_565 S
C210 C212 1.353 . S
C210 H252 0.929 . S
C211 C208 1.356 . S
C211 C213 1.358 1_545 S
C211 H253 0.930 . S
C212 N209 1.314 . S
C212 C210 1.353 . S
C212 H254 0.930 . S
C213 N209 1.279 . S
C213 C211 1.358 1_565 S
C213 H255 0.930 . S
C214 C215 1.348 . S
C214 C216 1.356 . S
C214 O239 1.325 . S
C215 C214 1.348 . S
C215 C217 1.353 1_455 S
C215 H256 0.929 . S
C216 C214 1.356 . S
C216 C218 1.358 1_455 S
C216 H257 0.930 . S
C217 C215 1.353 1_655 S
C217 N219 1.314 . S
C217 H258 0.930 . S
C218 C216 1.358 1_655 S
C218 N219 1.279 . S
C218 H259 0.930 . S
N219 C217 1.314 . S
N219 C218 1.279 . S
C220 C222 1.353 . S
C220 N223 1.314 . S
C220 H226 0.930 . S
C221 N223 1.279 . S
C221 C224 1.358 . S
C221 H227 0.930 . S
C222 C220 1.353 . S
C222 C225 1.348 . S
C222 H260 0.929 . S
N223 Li178 1.990 . S
N223 C220 1.314 . S
N223 C221 1.279 . S
C224 C221 1.358 . S
C224 C225 1.356 . S
C224 H261 0.930 . S
C225 C222 1.348 . S
C225 C224 1.356 . S
H226 C220 0.930 . S
H227 C221 0.930 . S
C228 N229 1.314 . S
C228 C230 1.353 1_545 S
C228 H234 0.930 . S
N229 Li179 1.990 . S
N229 C228 1.314 . S
N229 C232 1.279 . S
C230 C228 1.353 1_565 S
C230 C233 1.348 . S
C230 H262 0.929 . S
C231 C232 1.358 1_565 S
C231 C233 1.356 . S
C231 H263 0.930 . S
C232 N229 1.279 . S
C232 C231 1.358 1_545 S
C232 H235 0.930 . S
C233 C230 1.348 . S
C233 C231 1.356 . S
H234 C228 0.930 . S
H235 C232 0.930 . S
O236 Li176 1.956 . S
O236 Li177 1.970 . S
O236 Li178 1.961 . S
O236 C180 1.325 . S
O237 Li176 1.970 . S
O237 Li177 1.956 . S
O237 Li179 1.961 . S
O237 C186 1.325 . S
O238 Li176 1.961 . S
O238 Li178 1.956 . S
O238 Li179 1.970 . S
O238 C208 1.325 . S
O239 Li177 1.961 . S
O239 Li178 1.970 . S
O239 Li179 1.956 . S
O239 C214 1.325 . S
H240 C182 0.929 . S
H241 C183 0.930 . S
H242 C184 0.930 . S
H243 C185 0.930 . S
H244 C187 0.930 . S
H245 C189 0.929 . S
H246 C190 0.930 . S
H247 C191 0.930 . S
H248 C194 0.930 . S
H249 C197 0.929 . S
H250 C202 0.929 . S
H251 C203 0.930 . S
H252 C210 0.929 . S
H253 C211 0.930 . S
H254 C212 0.930 . S
H255 C213 0.930 . S
H256 C215 0.929 . S
H257 C216 0.930 . S
H258 C217 0.930 . S
H259 C218 0.930 . S
H260 C222 0.929 . S
H261 C224 0.930 . S
H262 C230 0.929 . S
H263 C231 0.930 . S
Li264 N281 1.990 . S
Li264 O324 1.956 . S
Li264 O325 1.970 . S
Li264 O326 1.961 . S
Li265 N289 1.990 . S
Li265 O324 1.970 . S
Li265 O325 1.956 . S
Li265 O327 1.961 . S
Li266 N311 1.990 . S
Li266 O324 1.961 . S
Li266 O326 1.956 . S
Li266 O327 1.970 . S
Li267 N317 1.990 . S
Li267 O325 1.961 . S
Li267 O326 1.970 . S
Li267 O327 1.956 . S
C268 C270 1.348 . S
C268 C271 1.356 . S
C268 O324 1.325 . S
N269 C272 1.314 . S
N269 C273 1.279 . S
C270 C268 1.348 . S
C270 C272 1.353 . S
C270 H328 0.929 . S
C271 C268 1.356 . S
C271 C273 1.358 . S
C271 H329 0.930 . S
C272 N269 1.314 . S
C272 C270 1.353 . S
C272 H330 0.930 . S
C273 N269 1.279 . S
C273 C271 1.358 . S
C273 H331 0.930 . S
C274 C277 1.348 . S
C274 C278 1.356 . S
C274 O325 1.325 . S
C275 N276 1.279 . S
C275 C278 1.358 . S
C275 H332 0.930 . S
N276 C275 1.279 . S
N276 C279 1.314 . S
C277 C274 1.348 . S
C277 C279 1.353 . S
C277 H333 0.929 . S
C278 C274 1.356 . S
C278 C275 1.358 . S
C278 H334 0.930 . S
C279 N276 1.314 . S
C279 C277 1.353 . S
C279 H335 0.930 . S
C280 N281 1.314 . S
C280 C285 1.353 . S
C280 H286 0.930 . S
N281 Li264 1.990 . S
N281 C280 1.314 . S
N281 C283 1.279 . S
C282 C283 1.358 . S
C282 C284 1.356 . S
C282 H336 0.930 . S
C283 N281 1.279 . S
C283 C282 1.358 . S
C283 H287 0.930 . S
C284 C282 1.356 . S
C284 C285 1.348 . S
C285 C280 1.353 . S
C285 C284 1.348 . S
C285 H337 0.929 . S
H286 C280 0.930 . S
H287 C283 0.930 . S
C288 N289 1.314 . S
C288 C290 1.353 . S
C288 H294 0.930 . S
N289 Li265 1.990 . S
N289 C288 1.314 . S
N289 C292 1.279 . S
C290 C288 1.353 . S
C290 C293 1.348 . S
C290 H338 0.929 . S
C291 C292 1.358 . S
C291 C293 1.356 . S
C291 H339 0.930 . S
C292 N289 1.279 . S
C292 C291 1.358 . S
C292 H295 0.930 . S
C293 C290 1.348 . S
C293 C291 1.356 . S
H294 C288 0.930 . S
H295 C292 0.930 . S
C296 C298 1.348 . S
C296 C299 1.356 . S
C296 O326 1.325 . S
N297 C300 1.314 . S
N297 C301 1.279 . S
C298 C296 1.348 . S
C298 C300 1.353 . S
C298 H340 0.929 . S
C299 C296 1.356 . S
C299 C301 1.358 . S
C299 H341 0.930 . S
C300 N297 1.314 . S
C300 C298 1.353 . S
C300 H342 0.930 . S
C301 N297 1.279 . S
C301 C299 1.358 . S
C301 H343 0.930 . S
C302 C303 1.348 . S
C302 C304 1.356 . S
C302 O327 1.325 . S
C303 C302 1.348 . S
C303 C305 1.353 1_545 S
C303 H344 0.929 . S
C304 C302 1.356 . S
C304 C306 1.358 . S
C304 H345 0.930 . S
C305 C303 1.353 1_565 S
C305 N307 1.315 1_565 S
C305 H346 0.930 . S
C306 C304 1.358 . S
C306 N307 1.277 . S
C306 H347 0.930 . S
N307 C305 1.315 1_545 S
N307 C306 1.277 . S
C308 C310 1.353 1_545 S
C308 N311 1.314 . S
C308 H314 0.930 . S
C309 N311 1.279 . S
C309 C312 1.358 1_545 S
C309 H315 0.930 . S
C310 C308 1.353 1_565 S
C310 C313 1.348 . S
C310 H348 0.929 . S
N311 Li266 1.990 . S
N311 C308 1.314 . S
N311 C309 1.279 . S
C312 C309 1.358 1_565 S
C312 C313 1.356 . S
C312 H349 0.930 . S
C313 C310 1.348 . S
C313 C312 1.356 . S
H314 C308 0.930 . S
H315 C309 0.930 . S
C316 N317 1.314 . S
C316 C318 1.353 . S
C316 H322 0.930 . S
N317 Li267 1.990 . S
N317 C316 1.314 . S
N317 C320 1.279 . S
C318 C316 1.353 . S
C318 C321 1.348 . S
C318 H350 0.929 . S
C319 C320 1.358 . S
C319 C321 1.356 . S
C319 H351 0.930 . S
C320 N317 1.279 . S
C320 C319 1.358 . S
C320 H323 0.930 . S
C321 C318 1.348 . S
C321 C319 1.356 . S
H322 C316 0.930 . S
H323 C320 0.930 . S
O324 Li264 1.956 . S
O324 Li265 1.970 . S
O324 Li266 1.961 . S
O324 C268 1.325 . S
O325 Li264 1.970 . S
O325 Li265 1.956 . S
O325 Li267 1.961 . S
O325 C274 1.325 . S
O326 Li264 1.961 . S
O326 Li266 1.956 . S
O326 Li267 1.970 . S
O326 C296 1.325 . S
O327 Li265 1.961 . S
O327 Li266 1.970 . S
O327 Li267 1.956 . S
O327 C302 1.325 . S
H328 C270 0.929 . S
H329 C271 0.930 . S
H330 C272 0.930 . S
H331 C273 0.930 . S
H332 C275 0.930 . S
H333 C277 0.929 . S
H334 C278 0.930 . S
H335 C279 0.930 . S
H336 C282 0.930 . S
H337 C285 0.929 . S
H338 C290 0.929 . S
H339 C291 0.930 . S
H340 C298 0.929 . S
H341 C299 0.930 . S
H342 C300 0.930 . S
H343 C301 0.930 . S
H344 C303 0.929 . S
H345 C304 0.930 . S
H346 C305 0.930 . S
H347 C306 0.930 . S
H348 C310 0.929 . S
H349 C312 0.930 . S
H350 C318 0.929 . S
H351 C319 0.930 . S
Li352 N369 1.990 . S
Li352 O412 1.956 . S
Li352 O413 1.970 . S
Li352 O414 1.961 . S
Li353 N377 1.990 . S
Li353 O412 1.970 . S
Li353 O413 1.956 . S
Li353 O415 1.961 . S
Li354 N399 1.990 . S
Li354 O412 1.961 . S
Li354 O414 1.956 . S
Li354 O415 1.970 . S
Li355 N405 1.990 . S
Li355 O413 1.961 . S
Li355 O414 1.970 . S
Li355 O415 1.956 . S
C356 C358 1.348 . S
C356 C359 1.356 . S
C356 O412 1.325 . S
N357 C360 1.314 . S
N357 C361 1.279 . S
C358 C356 1.348 . S
C358 C360 1.353 1_655 S
C358 H416 0.929 . S
C359 C356 1.356 . S
C359 C361 1.358 1_655 S
C359 H417 0.930 . S
C360 N357 1.314 . S
C360 C358 1.353 1_455 S
C360 H418 0.930 . S
C361 N357 1.279 . S
C361 C359 1.358 1_455 S
C361 H419 0.930 . S
C362 C365 1.348 . S
C362 C366 1.356 . S
C362 O413 1.325 . S
C363 N364 1.305 . S
C363 C366 1.358 . S
C363 H420 0.930 . S
N364 C363 1.305 . S
N364 C367 1.313 1_565 S
C365 C362 1.348 . S
C365 C367 1.353 1_565 S
C365 H421 0.929 . S
C366 C362 1.356 . S
C366 C363 1.358 . S
C366 H422 0.930 . S
C367 N364 1.313 1_545 S
C367 C365 1.353 1_545 S
C367 H423 0.930 . S
C368 N369 1.314 . S
C368 C373 1.353 1_565 S
C368 H374 0.930 . S
N369 Li352 1.990 . S
N369 C368 1.314 . S
N369 C371 1.279 . S
C370 C371 1.358 1_545 S
C370 C372 1.356 . S
C370 H424 0.930 . S
C371 N369 1.279 . S
C371 C370 1.358 1_565 S
C371 H375 0.930 . S
C372 C370 1.356 . S
C372 C373 1.348 . S
C373 C368 1.353 1_545 S
C373 C372 1.348 . S
C373 H425 0.929 . S
H374 C368 0.930 . S
H375 C371 0.930 . S
C376 N377 1.314 . S
C376 C378 1.353 . S
C376 H382 0.930 . S
N377 Li353 1.990 . S
N377 C376 1.314 . S
N377 C380 1.279 . S
C378 C376 1.353 . S
C378 C381 1.348 . S
C378 H426 0.929 . S
C379 C380 1.358 . S
C379 C381 1.356 . S
C379 H427 0.930 . S
C380 N377 1.279 . S
C380 C379 1.358 . S
C380 H383 0.930 . S
C381 C378 1.348 . S
C381 C379 1.356 . S
H382 C376 0.930 . S
H383 C380 0.930 . S
C384 C386 1.348 . S
C384 C387 1.356 . S
C384 O414 1.325 . S
N385 C388 1.314 . S
N385 C389 1.279 . S
C386 C384 1.348 . S
C386 C388 1.353 . S
C386 H428 0.929 . S
C387 C384 1.356 . S
C387 C389 1.358 . S
C387 H429 0.930 . S
C388 N385 1.314 . S
C388 C386 1.353 . S
C388 H430 0.930 . S
C389 N385 1.279 . S
C389 C387 1.358 . S
C389 H431 0.930 . S
C390 C391 1.348 . S
C390 C392 1.356 . S
C390 O415 1.325 . S
C391 C390 1.348 . S
C391 C393 1.353 . S
C391 H432 0.929 . S
C392 C390 1.356 . S
C392 C394 1.358 . S
C392 H433 0.930 . S
C393 C391 1.353 . S
C393 N395 1.314 . S
C393 H434 0.930 . S
C394 C392 1.358 . S
C394 N395 1.279 . S
C394 H435 0.930 . S
N395 C393 1.314 . S
N395 C394 1.279 . S
C396 C398 1.353 . S
C396 N399 1.314 . S
C396 H402 0.930 . S
C397 N399 1.279 . S
C397 C400 1.358 . S
C397 H403 0.930 . S
C398 C396 1.353 . S
C398 C401 1.348 . S
C398 H436 0.929 . S
N399 Li354 1.990 . S
N399 C396 1.314 . S
N399 C397 1.279 . S
C400 C397 1.358 . S
C400 C401 1.356 . S
C400 H437 0.930 . S
C401 C398 1.348 . S
C401 C400 1.356 . S
H402 C396 0.930 . S
H403 C397 0.930 . S
C404 N405 1.314 . S
C404 C406 1.353 . S
C404 H410 0.930 . S
N405 Li355 1.990 . S
N405 C404 1.314 . S
N405 C408 1.279 . S
C406 C404 1.353 . S
C406 C409 1.348 . S
C406 H438 0.929 . S
C407 C408 1.358 . S
C407 C409 1.356 . S
C407 H439 0.930 . S
C408 N405 1.279 . S
C408 C407 1.358 . S
C408 H411 0.930 . S
C409 C406 1.348 . S
C409 C407 1.356 . S
H410 C404 0.930 . S
H411 C408 0.930 . S
O412 Li352 1.956 . S
O412 Li353 1.970 . S
O412 Li354 1.961 . S
O412 C356 1.325 . S
O413 Li352 1.970 . S
O413 Li353 1.956 . S
O413 Li355 1.961 . S
O413 C362 1.325 . S
O414 Li352 1.961 . S
O414 Li354 1.956 . S
O414 Li355 1.970 . S
O414 C384 1.325 . S
O415 Li353 1.961 . S
O415 Li354 1.970 . S
O415 Li355 1.956 . S
O415 C390 1.325 . S
H416 C358 0.929 . S
H417 C359 0.930 . S
H418 C360 0.930 . S
H419 C361 0.930 . S
H420 C363 0.930 . S
H421 C365 0.929 . S
H422 C366 0.930 . S
H423 C367 0.930 . S
H424 C370 0.930 . S
H425 C373 0.929 . S
H426 C378 0.929 . S
H427 C379 0.930 . S
H428 C386 0.929 . S
H429 C387 0.930 . S
H430 C388 0.930 . S
H431 C389 0.930 . S
H432 C391 0.929 . S
H433 C392 0.930 . S
H434 C393 0.930 . S
H435 C394 0.930 . S
H436 C398 0.929 . S
H437 C400 0.930 . S
H438 C406 0.929 . S
H439 C407 0.930 . S
Li440 N457 1.990 . S
Li440 O500 1.956 . S
Li440 O501 1.970 . S
Li440 O502 1.961 . S
Li441 N465 1.990 . S
Li441 O500 1.970 . S
Li441 O501 1.956 . S
Li441 O503 1.961 . S
Li442 N487 1.990 . S
Li442 O500 1.961 . S
Li442 O502 1.956 . S
Li442 O503 1.970 . S
Li443 N493 1.990 . S
Li443 O501 1.961 . S
Li443 O502 1.970 . S
Li443 O503 1.956 . S
C444 C446 1.348 1_565 S
C444 C447 1.356 . S
C444 O500 1.325 . S
N445 C448 1.314 . S
N445 C449 1.279 . S
C446 C444 1.348 1_545 S
C446 C448 1.353 . S
C446 H504 0.929 . S
C447 C444 1.356 . S
C447 C449 1.358 1_565 S
C447 H505 0.930 . S
C448 N445 1.314 . S
C448 C446 1.353 . S
C448 H506 0.930 . S
C449 N445 1.279 . S
C449 C447 1.358 1_545 S
C449 H507 0.930 . S
C450 C453 1.348 . S
C450 C454 1.356 . S
C450 O501 1.325 . S
C451 N452 1.279 . S
C451 C454 1.358 . S
C451 H508 0.930 . S
N452 C451 1.279 . S
N452 C455 1.314 . S
C453 C450 1.348 . S
C453 C455 1.353 . S
C453 H509 0.929 . S
C454 C450 1.356 . S
C454 C451 1.358 . S
C454 H510 0.930 . S
C455 N452 1.314 . S
C455 C453 1.353 . S
C455 H511 0.930 . S
C456 N457 1.314 . S
C456 C461 1.353 . S
C456 H462 0.930 . S
N457 Li440 1.990 . S
N457 C456 1.314 . S
N457 C459 1.279 . S
C458 C459 1.358 . S
C458 C460 1.356 . S
C458 H512 0.930 . S
C459 N457 1.279 . S
C459 C458 1.358 . S
C459 H463 0.930 . S
C460 C458 1.356 . S
C460 C461 1.348 . S
C461 C456 1.353 . S
C461 C460 1.348 . S
C461 H513 0.929 . S
H462 C456 0.930 . S
H463 C459 0.930 . S
C464 N465 1.314 . S
C464 C466 1.353 1_565 S
C464 H470 0.930 . S
N465 Li441 1.990 . S
N465 C464 1.314 . S
N465 C468 1.279 . S
C466 C464 1.353 1_545 S
C466 C469 1.348 . S
C466 H514 0.929 . S
C467 C468 1.358 1_545 S
C467 C469 1.356 . S
C467 H515 0.930 . S
C468 N465 1.279 . S
C468 C467 1.358 1_565 S
C468 H471 0.930 . S
C469 C466 1.348 . S
C469 C467 1.356 . S
H470 C464 0.930 . S
H471 C468 0.930 . S
C472 C474 1.348 . S
C472 C475 1.356 . S
C472 O502 1.325 . S
N473 C476 1.314 . S
N473 C477 1.279 . S
C474 C472 1.348 . S
C474 C476 1.353 . S
C474 H516 0.929 . S
C475 C472 1.356 . S
C475 C477 1.358 . S
C475 H517 0.930 . S
C476 N473 1.314 . S
C476 C474 1.353 . S
C476 H518 0.930 . S
C477 N473 1.279 . S
C477 C475 1.358 . S
C477 H519 0.930 . S
C478 C479 1.348 . S
C478 C480 1.356 . S
C478 O503 1.325 . S
C479 C478 1.348 . S
C479 C481 1.353 . S
C479 H520 0.929 . S
C480 C478 1.356 . S
C480 C482 1.358 . S
C480 H521 0.930 . S
C481 C479 1.353 . S
C481 N483 1.314 . S
C481 H522 0.930 . S
C482 C480 1.358 . S
C482 N483 1.279 . S
C482 H523 0.930 . S
N483 C481 1.314 . S
N483 C482 1.279 . S
C484 C486 1.353 . S
C484 N487 1.314 . S
C484 H490 0.930 . S
C485 N487 1.279 . S
C485 C488 1.358 . S
C485 H491 0.930 . S
C486 C484 1.353 . S
C486 C489 1.348 . S
C486 H524 0.929 . S
N487 Li442 1.990 . S
N487 C484 1.314 . S
N487 C485 1.279 . S
C488 C485 1.358 . S
C488 C489 1.356 . S
C488 H525 0.930 . S
C489 C486 1.348 . S
C489 C488 1.356 . S
H490 C484 0.930 . S
H491 C485 0.930 . S
C492 N493 1.314 . S
C492 C494 1.353 . S
C492 H498 0.930 . S
N493 Li443 1.990 . S
N493 C492 1.314 . S
N493 C496 1.279 . S
C494 C492 1.353 . S
C494 C497 1.348 . S
C494 H526 0.929 . S
C495 C496 1.358 . S
C495 C497 1.356 . S
C495 H527 0.930 . S
C496 N493 1.279 . S
C496 C495 1.358 . S
C496 H499 0.930 . S
C497 C494 1.348 . S
C497 C495 1.356 . S
H498 C492 0.930 . S
H499 C496 0.930 . S
O500 Li440 1.956 . S
O500 Li441 1.970 . S
O500 Li442 1.961 . S
O500 C444 1.325 . S
O501 Li440 1.970 . S
O501 Li441 1.956 . S
O501 Li443 1.961 . S
O501 C450 1.325 . S
O502 Li440 1.961 . S
O502 Li442 1.956 . S
O502 Li443 1.970 . S
O502 C472 1.325 . S
O503 Li441 1.961 . S
O503 Li442 1.970 . S
O503 Li443 1.956 . S
O503 C478 1.325 . S
H504 C446 0.929 . S
H505 C447 0.930 . S
H506 C448 0.930 . S
H507 C449 0.930 . S
H508 C451 0.930 . S
H509 C453 0.929 . S
H510 C454 0.930 . S
H511 C455 0.930 . S
H512 C458 0.930 . S
H513 C461 0.929 . S
H514 C466 0.929 . S
H515 C467 0.930 . S
H516 C474 0.929 . S
H517 C475 0.930 . S
H518 C476 0.930 . S
H519 C477 0.930 . S
H520 C479 0.929 . S
H521 C480 0.930 . S
H522 C481 0.930 . S
H523 C482 0.930 . S
H524 C486 0.929 . S
H525 C488 0.930 . S
H526 C494 0.929 . S
H527 C495 0.930 . S
Li528 N545 1.990 . S
Li528 O588 1.956 . S
Li528 O589 1.970 . S
Li528 O590 1.961 . S
Li529 N553 1.990 . S
Li529 O588 1.970 . S
Li529 O589 1.956 . S
Li529 O591 1.961 . S
Li530 N575 1.990 . S
Li530 O588 1.961 . S
Li530 O590 1.956 . S
Li530 O591 1.970 . S
Li531 N581 1.990 . S
Li531 O589 1.961 . S
Li531 O590 1.970 . S
Li531 O591 1.956 . S
C532 C534 1.348 1_565 S
C532 C535 1.356 . S
C532 O588 1.325 . S
N533 C536 1.314 . S
N533 C537 1.279 . S
C534 C532 1.348 1_545 S
C534 C536 1.353 . S
C534 H592 0.929 . S
C535 C532 1.356 . S
C535 C537 1.358 1_565 S
C535 H593 0.930 . S
C536 N533 1.314 . S
C536 C534 1.353 . S
C536 H594 0.930 . S
C537 N533 1.279 . S
C537 C535 1.358 1_545 S
C537 H595 0.930 . S
C538 C541 1.348 . S
C538 C542 1.356 . S
C538 O589 1.325 . S
C539 N540 1.279 . S
C539 C542 1.358 . S
C539 H596 0.930 . S
N540 C539 1.279 . S
N540 C543 1.314 . S
C541 C538 1.348 . S
C541 C543 1.353 . S
C541 H597 0.929 . S
C542 C538 1.356 . S
C542 C539 1.358 . S
C542 H598 0.930 . S
C543 N540 1.314 . S
C543 C541 1.353 . S
C543 H599 0.930 . S
C544 N545 1.314 . S
C544 C549 1.353 . S
C544 H550 0.930 . S
N545 Li528 1.990 . S
N545 C544 1.314 . S
N545 C547 1.279 . S
C546 C547 1.358 . S
C546 C548 1.356 . S
C546 H600 0.930 . S
C547 N545 1.279 . S
C547 C546 1.358 . S
C547 H551 0.930 . S
C548 C546 1.356 . S
C548 C549 1.348 . S
C549 C544 1.353 . S
C549 C548 1.348 . S
C549 H601 0.929 . S
H550 C544 0.930 . S
H551 C547 0.930 . S
C552 N553 1.314 . S
C552 C554 1.353 1_565 S
C552 H558 0.930 . S
N553 Li529 1.990 . S
N553 C552 1.314 . S
N553 C556 1.279 . S
C554 C552 1.353 1_545 S
C554 C557 1.348 . S
C554 H602 0.929 . S
C555 C556 1.358 1_545 S
C555 C557 1.356 . S
C555 H603 0.930 . S
C556 N553 1.279 . S
C556 C555 1.358 1_565 S
C556 H559 0.930 . S
C557 C554 1.348 . S
C557 C555 1.356 . S
H558 C552 0.930 . S
H559 C556 0.930 . S
C560 C562 1.348 . S
C560 C563 1.356 . S
C560 O590 1.325 . S
N561 C564 1.314 . S
N561 C565 1.279 . S
C562 C560 1.348 . S
C562 C564 1.353 . S
C562 H604 0.929 . S
C563 C560 1.356 . S
C563 C565 1.358 . S
C563 H605 0.930 . S
C564 N561 1.314 . S
C564 C562 1.353 . S
C564 H606 0.930 . S
C565 N561 1.279 . S
C565 C563 1.358 . S
C565 H607 0.930 . S
C566 C567 1.348 . S
C566 C568 1.356 . S
C566 O591 1.325 . S
C567 C566 1.348 . S
C567 C569 1.353 1_655 S
C567 H608 0.929 . S
C568 C566 1.356 . S
C568 C570 1.358 1_655 S
C568 H609 0.930 . S
C569 C567 1.353 1_455 S
C569 N571 1.314 . S
C569 H610 0.930 . S
C570 C568 1.358 1_455 S
C570 N571 1.279 . S
C570 H611 0.930 . S
N571 C569 1.314 . S
N571 C570 1.279 . S
C572 C574 1.353 . S
C572 N575 1.314 . S
C572 H578 0.930 . S
C573 N575 1.279 . S
C573 C576 1.358 . S
C573 H579 0.930 . S
C574 C572 1.353 . S
C574 C577 1.348 . S
C574 H612 0.929 . S
N575 Li530 1.990 . S
N575 C572 1.314 . S
N575 C573 1.279 . S
C576 C573 1.358 . S
C576 C577 1.356 . S
C576 H613 0.930 . S
C577 C574 1.348 . S
C577 C576 1.356 . S
H578 C572 0.930 . S
H579 C573 0.930 . S
C580 N581 1.314 . S
C580 C582 1.353 . S
C580 H586 0.930 . S
N581 Li531 1.990 . S
N581 C580 1.314 . S
N581 C584 1.279 . S
C582 C580 1.353 . S
C582 C585 1.348 . S
C582 H614 0.929 . S
C583 C584 1.358 . S
C583 C585 1.356 . S
C583 H615 0.930 . S
C584 N581 1.279 . S
C584 C583 1.358 . S
C584 H587 0.930 . S
C585 C582 1.348 . S
C585 C583 1.356 . S
H586 C580 0.930 . S
H587 C584 0.930 . S
O588 Li528 1.956 . S
O588 Li529 1.970 . S
O588 Li530 1.961 . S
O588 C532 1.325 . S
O589 Li528 1.970 . S
O589 Li529 1.956 . S
O589 Li531 1.961 . S
O589 C538 1.325 . S
O590 Li528 1.961 . S
O590 Li530 1.956 . S
O590 Li531 1.970 . S
O590 C560 1.325 . S
O591 Li529 1.961 . S
O591 Li530 1.970 . S
O591 Li531 1.956 . S
O591 C566 1.325 . S
H592 C534 0.929 . S
H593 C535 0.930 . S
H594 C536 0.930 . S
H595 C537 0.930 . S
H596 C539 0.930 . S
H597 C541 0.929 . S
H598 C542 0.930 . S
H599 C543 0.930 . S
H600 C546 0.930 . S
H601 C549 0.929 . S
H602 C554 0.929 . S
H603 C555 0.930 . S
H604 C562 0.929 . S
H605 C563 0.930 . S
H606 C564 0.930 . S
H607 C565 0.930 . S
H608 C567 0.929 . S
H609 C568 0.930 . S
H610 C569 0.930 . S
H611 C570 0.930 . S
H612 C574 0.929 . S
H613 C576 0.930 . S
H614 C582 0.929 . S
H615 C583 0.930 . S
Li616 N633 1.990 . S
Li616 O676 1.956 . S
Li616 O677 1.970 . S
Li616 O678 1.961 . S
Li617 N641 1.990 . S
Li617 O676 1.970 . S
Li617 O677 1.956 . S
Li617 O679 1.961 . S
Li618 N663 1.990 . S
Li618 O676 1.961 . S
Li618 O678 1.956 . S
Li618 O679 1.970 . S
Li619 N669 1.990 . S
Li619 O677 1.961 . S
Li619 O678 1.970 . S
Li619 O679 1.956 . S
C620 C622 1.348 . S
C620 C623 1.356 . S
C620 O676 1.325 . S
N621 C624 1.313 1_565 S
N621 C625 1.305 . S
C622 C620 1.348 . S
C622 C624 1.353 1_565 S
C622 H680 0.929 . S
C623 C620 1.356 . S
C623 C625 1.358 . S
C623 H681 0.930 . S
C624 N621 1.313 1_545 S
C624 C622 1.353 1_545 S
C624 H682 0.930 . S
C625 N621 1.305 . S
C625 C623 1.358 . S
C625 H683 0.930 . S
C626 C629 1.348 . S
C626 C630 1.356 . S
C626 O677 1.325 . S
C627 N628 1.279 . S
C627 C630 1.358 . S
C627 H684 0.930 . S
N628 C627 1.279 . S
N628 C631 1.314 . S
C629 C626 1.348 . S
C629 C631 1.353 . S
C629 H685 0.929 . S
C630 C626 1.356 . S
C630 C627 1.358 . S
C630 H686 0.930 . S
C631 N628 1.314 . S
C631 C629 1.353 . S
C631 H687 0.930 . S
C632 N633 1.314 . S
C632 C637 1.353 . S
C632 H638 0.930 . S
N633 Li616 1.990 . S
N633 C632 1.314 . S
N633 C635 1.279 . S
C634 C635 1.358 . S
C634 C636 1.356 . S
C634 H688 0.930 . S
C635 N633 1.279 . S
C635 C634 1.358 . S
C635 H639 0.930 . S
C636 C634 1.356 . S
C636 C637 1.348 . S
C637 C632 1.353 . S
C637 C636 1.348 . S
C637 H689 0.929 . S
H638 C632 0.930 . S
H639 C635 0.930 . S
C640 N641 1.314 . S
C640 C642 1.353 1_565 S
C640 H646 0.930 . S
N641 Li617 1.990 . S
N641 C640 1.314 . S
N641 C644 1.279 . S
C642 C640 1.353 1_545 S
C642 C645 1.348 . S
C642 H690 0.929 . S
C643 C644 1.358 1_545 S
C643 C645 1.356 . S
C643 H691 0.930 . S
C644 N641 1.279 . S
C644 C643 1.358 1_565 S
C644 H647 0.930 . S
C645 C642 1.348 . S
C645 C643 1.356 . S
H646 C640 0.930 . S
H647 C644 0.930 . S
C648 C650 1.348 . S
C648 C651 1.356 . S
C648 O678 1.325 . S
N649 C652 1.314 . S
N649 C653 1.279 . S
C650 C648 1.348 . S
C650 C652 1.353 . S
C650 H692 0.929 . S
C651 C648 1.356 . S
C651 C653 1.358 . S
C651 H693 0.930 . S
C652 N649 1.314 . S
C652 C650 1.353 . S
C652 H694 0.930 . S
C653 N649 1.279 . S
C653 C651 1.358 . S
C653 H695 0.930 . S
C654 C655 1.348 . S
C654 C656 1.356 . S
C654 O679 1.325 . S
C655 C654 1.348 . S
C655 C657 1.353 . S
C655 H696 0.929 . S
C656 C654 1.356 . S
C656 C658 1.358 . S
C656 H697 0.930 . S
C657 C655 1.353 . S
C657 N659 1.314 . S
C657 H698 0.930 . S
C658 C656 1.358 . S
C658 N659 1.279 . S
C658 H699 0.930 . S
N659 C657 1.314 . S
N659 C658 1.279 . S
C660 C662 1.353 . S
C660 N663 1.314 . S
C660 H666 0.930 . S
C661 N663 1.279 . S
C661 C664 1.358 . S
C661 H667 0.930 . S
C662 C660 1.353 . S
C662 C665 1.348 . S
C662 H700 0.929 . S
N663 Li618 1.990 . S
N663 C660 1.314 . S
N663 C661 1.279 . S
C664 C661 1.358 . S
C664 C665 1.356 . S
C664 H701 0.930 . S
C665 C662 1.348 . S
C665 C664 1.356 . S
H666 C660 0.930 . S
H667 C661 0.930 . S
C668 N669 1.314 . S
C668 C670 1.353 . S
C668 H674 0.930 . S
N669 Li619 1.990 . S
N669 C668 1.314 . S
N669 C672 1.279 . S
C670 C668 1.353 . S
C670 C673 1.348 . S
C670 H702 0.929 . S
C671 C672 1.358 . S
C671 C673 1.356 . S
C671 H703 0.930 . S
C672 N669 1.279 . S
C672 C671 1.358 . S
C672 H675 0.930 . S
C673 C670 1.348 . S
C673 C671 1.356 . S
H674 C668 0.930 . S
H675 C672 0.930 . S
O676 Li616 1.956 . S
O676 Li617 1.970 . S
O676 Li618 1.961 . S
O676 C620 1.325 . S
O677 Li616 1.970 . S
O677 Li617 1.956 . S
O677 Li619 1.961 . S
O677 C626 1.325 . S
O678 Li616 1.961 . S
O678 Li618 1.956 . S
O678 Li619 1.970 . S
O678 C648 1.325 . S
O679 Li617 1.961 . S
O679 Li618 1.970 . S
O679 Li619 1.956 . S
O679 C654 1.325 . S
H680 C622 0.929 . S
H681 C623 0.930 . S
H682 C624 0.930 . S
H683 C625 0.930 . S
H684 C627 0.930 . S
H685 C629 0.929 . S
H686 C630 0.930 . S
H687 C631 0.930 . S
H688 C634 0.930 . S
H689 C637 0.929 . S
H690 C642 0.929 . S
H691 C643 0.930 . S
H692 C650 0.929 . S
H693 C651 0.930 . S
H694 C652 0.930 . S
H695 C653 0.930 . S
H696 C655 0.929 . S
H697 C656 0.930 . S
H698 C657 0.930 . S
H699 C658 0.930 . S
H700 C662 0.929 . S
H701 C664 0.930 . S
H702 C670 0.929 . S
H703 C671 0.930 . S
Li704 N721 1.990 . S
Li704 O764 1.956 . S
Li704 O765 1.970 . S
Li704 O766 1.961 . S
Li705 N729 1.990 . S
Li705 O764 1.970 . S
Li705 O765 1.956 . S
Li705 O767 1.961 . S
Li706 N751 1.990 . S
Li706 O764 1.961 . S
Li706 O766 1.956 . S
Li706 O767 1.970 . S
Li707 N757 1.990 . S
Li707 O765 1.961 . S
Li707 O766 1.970 . S
Li707 O767 1.956 . S
C708 C710 1.348 . S
C708 C711 1.356 . S
C708 O764 1.325 . S
N709 C712 1.314 . S
N709 C713 1.279 . S
C710 C708 1.348 . S
C710 C712 1.353 . S
C710 H768 0.929 . S
C711 C708 1.356 . S
C711 C713 1.358 . S
C711 H769 0.930 . S
C712 N709 1.314 . S
C712 C710 1.353 . S
C712 H770 0.930 . S
C713 N709 1.279 . S
C713 C711 1.358 . S
C713 H771 0.930 . S
C714 C717 1.348 . S
C714 C718 1.356 . S
C714 O765 1.325 . S
C715 N716 1.279 . S
C715 C718 1.358 1_655 S
C715 H772 0.930 . S
N716 C715 1.279 . S
N716 C719 1.314 . S
C717 C714 1.348 . S
C717 C719 1.353 1_455 S
C717 H773 0.929 . S
C718 C714 1.356 . S
C718 C715 1.358 1_455 S
C718 H774 0.930 . S
C719 N716 1.314 . S
C719 C717 1.353 1_655 S
C719 H775 0.930 . S
C720 N721 1.314 . S
C720 C725 1.353 . S
C720 H726 0.930 . S
N721 Li704 1.990 . S
N721 C720 1.314 . S
N721 C723 1.279 . S
C722 C723 1.358 . S
C722 C724 1.356 . S
C722 H776 0.930 . S
C723 N721 1.279 . S
C723 C722 1.358 . S
C723 H727 0.930 . S
C724 C722 1.356 . S
C724 C725 1.348 . S
C725 C720 1.353 . S
C725 C724 1.348 . S
C725 H777 0.929 . S
H726 C720 0.930 . S
H727 C723 0.930 . S
C728 N729 1.314 . S
C728 C730 1.353 . S
C728 H734 0.930 . S
N729 Li705 1.990 . S
N729 C728 1.314 . S
N729 C732 1.279 . S
C730 C728 1.353 . S
C730 C733 1.348 . S
C730 H778 0.929 . S
C731 C732 1.358 . S
C731 C733 1.356 . S
C731 H779 0.930 . S
C732 N729 1.279 . S
C732 C731 1.358 . S
C732 H735 0.930 . S
C733 C730 1.348 . S
C733 C731 1.356 . S
H734 C728 0.930 . S
H735 C732 0.930 . S
C736 C738 1.348 . S
C736 C739 1.356 . S
C736 O766 1.325 . S
N737 C740 1.314 . S
N737 C741 1.279 . S
C738 C736 1.348 . S
C738 C740 1.353 . S
C738 H780 0.929 . S
C739 C736 1.356 . S
C739 C741 1.358 . S
C739 H781 0.930 . S
C740 N737 1.314 . S
C740 C738 1.353 . S
C740 H782 0.930 . S
C741 N737 1.279 . S
C741 C739 1.358 . S
C741 H783 0.930 . S
C742 C743 1.348 . S
C742 C744 1.356 . S
C742 O767 1.325 . S
C743 C742 1.348 . S
C743 C745 1.353 . S
C743 H784 0.929 . S
C744 C742 1.356 . S
C744 C746 1.358 . S
C744 H785 0.930 . S
C745 C743 1.353 . S
C745 N747 1.314 . S
C745 H786 0.930 . S
C746 C744 1.358 . S
C746 N747 1.279 . S
C746 H787 0.930 . S
N747 C745 1.314 . S
N747 C746 1.279 . S
C748 C750 1.353 . S
C748 N751 1.314 . S
C748 H754 0.930 . S
C749 N751 1.279 . S
C749 C752 1.358 . S
C749 H755 0.930 . S
C750 C748 1.353 . S
C750 C753 1.348 . S
C750 H788 0.929 . S
N751 Li706 1.990 . S
N751 C748 1.314 . S
N751 C749 1.279 . S
C752 C749 1.358 . S
C752 C753 1.356 . S
C752 H789 0.930 . S
C753 C750 1.348 . S
C753 C752 1.356 . S
H754 C748 0.930 . S
H755 C749 0.930 . S
C756 N757 1.314 . S
C756 C758 1.353 . S
C756 H762 0.930 . S
N757 Li707 1.990 . S
N757 C756 1.314 . S
N757 C760 1.279 . S
C758 C756 1.353 . S
C758 C761 1.348 . S
C758 H790 0.929 . S
C759 C760 1.358 . S
C759 C761 1.356 . S
C759 H791 0.930 . S
C760 N757 1.279 . S
C760 C759 1.358 . S
C760 H763 0.930 . S
C761 C758 1.348 . S
C761 C759 1.356 . S
H762 C756 0.930 . S
H763 C760 0.930 . S
O764 Li704 1.956 . S
O764 Li705 1.970 . S
O764 Li706 1.961 . S
O764 C708 1.325 . S
O765 Li704 1.970 . S
O765 Li705 1.956 . S
O765 Li707 1.961 . S
O765 C714 1.325 . S
O766 Li704 1.961 . S
O766 Li706 1.956 . S
O766 Li707 1.970 . S
O766 C736 1.325 . S
O767 Li705 1.961 . S
O767 Li706 1.970 . S
O767 Li707 1.956 . S
O767 C742 1.325 . S
H768 C710 0.929 . S
H769 C711 0.930 . S
H770 C712 0.930 . S
H771 C713 0.930 . S
H772 C715 0.930 . S
H773 C717 0.929 . S
H774 C718 0.930 . S
H775 C719 0.930 . S
H776 C722 0.930 . S
H777 C725 0.929 . S
H778 C730 0.929 . S
H779 C731 0.930 . S
H780 C738 0.929 . S
H781 C739 0.930 . S
H782 C740 0.930 . S
H783 C741 0.930 . S
H784 C743 0.929 . S
H785 C744 0.930 . S
H786 C745 0.930 . S
H787 C746 0.930 . S
H788 C750 0.929 . S
H789 C752 0.930 . S
H790 C758 0.929 . S
H791 C759 0.930 . S
Li792 N809 1.990 . S
Li792 O852 1.956 . S
Li792 O853 1.970 . S
Li792 O854 1.961 . S
Li793 N817 1.990 . S
Li793 O852 1.970 . S
Li793 O853 1.956 . S
Li793 O855 1.961 . S
Li794 N839 1.990 . S
Li794 O852 1.961 . S
Li794 O854 1.956 . S
Li794 O855 1.970 . S
Li795 N845 1.990 . S
Li795 O853 1.961 . S
Li795 O854 1.970 . S
Li795 O855 1.956 . S
C796 C798 1.348 . S
C796 C799 1.356 . S
C796 O852 1.325 . S
N797 C800 1.314 . S
N797 C801 1.279 . S
C798 C796 1.348 . S
C798 C800 1.353 . S
C798 H856 0.929 . S
C799 C796 1.356 . S
C799 C801 1.358 . S
C799 H857 0.930 . S
C800 N797 1.314 . S
C800 C798 1.353 . S
C800 H858 0.930 . S
C801 N797 1.279 . S
C801 C799 1.358 . S
C801 H859 0.930 . S
C802 C805 1.348 . S
C802 C806 1.356 . S
C802 O853 1.325 . S
C803 N804 1.279 . S
C803 C806 1.358 . S
C803 H860 0.930 . S
N804 C803 1.279 . S
N804 C807 1.314 . S
C805 C802 1.348 . S
C805 C807 1.353 . S
C805 H861 0.929 . S
C806 C802 1.356 . S
C806 C803 1.358 . S
C806 H862 0.930 . S
C807 N804 1.314 . S
C807 C805 1.353 . S
C807 H863 0.930 . S
C808 N809 1.314 . S
C808 C813 1.353 . S
C808 H814 0.930 . S
N809 Li792 1.990 . S
N809 C808 1.314 . S
N809 C811 1.279 . S
C810 C811 1.358 . S
C810 C812 1.356 . S
C810 H864 0.930 . S
C811 N809 1.279 . S
C811 C810 1.358 . S
C811 H815 0.930 . S
C812 C810 1.356 . S
C812 C813 1.348 . S
C813 C808 1.353 . S
C813 C812 1.348 . S
C813 H865 0.929 . S
H814 C808 0.930 . S
H815 C811 0.930 . S
C816 N817 1.314 . S
C816 C818 1.353 . S
C816 H822 0.930 . S
N817 Li793 1.990 . S
N817 C816 1.314 . S
N817 C820 1.279 . S
C818 C816 1.353 . S
C818 C821 1.348 . S
C818 H866 0.929 . S
C819 C820 1.358 . S
C819 C821 1.356 . S
C819 H867 0.930 . S
C820 N817 1.279 . S
C820 C819 1.358 . S
C820 H823 0.930 . S
C821 C818 1.348 . S
C821 C819 1.356 . S
H822 C816 0.930 . S
H823 C820 0.930 . S
C824 C826 1.348 . S
C824 C827 1.356 . S
C824 O854 1.325 . S
N825 C828 1.314 . S
N825 C829 1.279 . S
C826 C824 1.348 . S
C826 C828 1.353 . S
C826 H868 0.929 . S
C827 C824 1.356 . S
C827 C829 1.358 . S
C827 H869 0.930 . S
C828 N825 1.314 . S
C828 C826 1.353 . S
C828 H870 0.930 . S
C829 N825 1.279 . S
C829 C827 1.358 . S
C829 H871 0.930 . S
C830 C831 1.348 . S
C830 C832 1.356 . S
C830 O855 1.325 . S
C831 C830 1.348 . S
C831 C833 1.353 . S
C831 H872 0.929 . S
C832 C830 1.356 . S
C832 C834 1.358 . S
C832 H873 0.930 . S
C833 C831 1.353 . S
C833 N835 1.314 . S
C833 H874 0.930 . S
C834 C832 1.358 . S
C834 N835 1.279 . S
C834 H875 0.930 . S
N835 C833 1.314 . S
N835 C834 1.279 . S
C836 C838 1.353 . S
C836 N839 1.314 . S
C836 H842 0.930 . S
C837 N839 1.279 . S
C837 C840 1.358 . S
C837 H843 0.930 . S
C838 C836 1.353 . S
C838 C841 1.348 . S
C838 H876 0.929 . S
N839 Li794 1.990 . S
N839 C836 1.314 . S
N839 C837 1.279 . S
C840 C837 1.358 . S
C840 C841 1.356 . S
C840 H877 0.930 . S
C841 C838 1.348 . S
C841 C840 1.356 . S
H842 C836 0.930 . S
H843 C837 0.930 . S
C844 N845 1.314 . S
C844 C846 1.353 . S
C844 H850 0.930 . S
N845 Li795 1.990 . S
N845 C844 1.314 . S
N845 C848 1.279 . S
C846 C844 1.353 . S
C846 C849 1.348 . S
C846 H878 0.929 . S
C847 C848 1.358 . S
C847 C849 1.356 . S
C847 H879 0.930 . S
C848 N845 1.279 . S
C848 C847 1.358 . S
C848 H851 0.930 . S
C849 C846 1.348 . S
C849 C847 1.356 . S
H850 C844 0.930 . S
H851 C848 0.930 . S
O852 Li792 1.956 . S
O852 Li793 1.970 . S
O852 Li794 1.961 . S
O852 C796 1.325 . S
O853 Li792 1.970 . S
O853 Li793 1.956 . S
O853 Li795 1.961 . S
O853 C802 1.325 . S
O854 Li792 1.961 . S
O854 Li794 1.956 . S
O854 Li795 1.970 . S
O854 C824 1.325 . S
O855 Li793 1.961 . S
O855 Li794 1.970 . S
O855 Li795 1.956 . S
O855 C830 1.325 . S
H856 C798 0.929 . S
H857 C799 0.930 . S
H858 C800 0.930 . S
H859 C801 0.930 . S
H860 C803 0.930 . S
H861 C805 0.929 . S
H862 C806 0.930 . S
H863 C807 0.930 . S
H864 C810 0.930 . S
H865 C813 0.929 . S
H866 C818 0.929 . S
H867 C819 0.930 . S
H868 C826 0.929 . S
H869 C827 0.930 . S
H870 C828 0.930 . S
H871 C829 0.930 . S
H872 C831 0.929 . S
H873 C832 0.930 . S
H874 C833 0.930 . S
H875 C834 0.930 . S
H876 C838 0.929 . S
H877 C840 0.930 . S
H878 C846 0.929 . S
H879 C847 0.930 . S
Li880 N897 1.990 . S
Li880 O940 1.956 . S
Li880 O941 1.970 . S
Li880 O942 1.961 . S
Li881 N905 1.990 . S
Li881 O940 1.970 . S
Li881 O941 1.956 . S
Li881 O943 1.961 . S
Li882 N927 1.990 . S
Li882 O940 1.961 . S
Li882 O942 1.956 . S
Li882 O943 1.970 . S
Li883 N933 1.990 . S
Li883 O941 1.961 . S
Li883 O942 1.970 . S
Li883 O943 1.956 . S
C884 C886 1.348 . S
C884 C887 1.356 . S
C884 O940 1.325 . S
N885 C888 1.314 . S
N885 C889 1.279 . S
C886 C884 1.348 . S
C886 C888 1.353 . S
C886 H944 0.929 . S
C887 C884 1.356 . S
C887 C889 1.358 . S
C887 H945 0.930 . S
C888 N885 1.314 . S
C888 C886 1.353 . S
C888 H946 0.930 . S
C889 N885 1.279 . S
C889 C887 1.358 . S
C889 H947 0.930 . S
C890 C893 1.348 . S
C890 C894 1.356 . S
C890 O941 1.325 . S
C891 N892 1.279 . S
C891 C894 1.358 . S
C891 H948 0.930 . S
N892 C891 1.279 . S
N892 C895 1.314 . S
C893 C890 1.348 . S
C893 C895 1.353 . S
C893 H949 0.929 . S
C894 C890 1.356 . S
C894 C891 1.358 . S
C894 H950 0.930 . S
C895 N892 1.314 . S
C895 C893 1.353 . S
C895 H951 0.930 . S
C896 N897 1.314 . S
C896 C901 1.353 . S
C896 H902 0.930 . S
N897 Li880 1.990 . S
N897 C896 1.314 . S
N897 C899 1.279 . S
C898 C899 1.358 . S
C898 C900 1.356 . S
C898 H952 0.930 . S
C899 N897 1.279 . S
C899 C898 1.358 . S
C899 H903 0.930 . S
C900 C898 1.356 . S
C900 C901 1.348 . S
C901 C896 1.353 . S
C901 C900 1.348 . S
C901 H953 0.929 . S
H902 C896 0.930 . S
H903 C899 0.930 . S
C904 N905 1.314 . S
C904 C906 1.353 . S
C904 H910 0.930 . S
N905 Li881 1.990 . S
N905 C904 1.314 . S
N905 C908 1.279 . S
C906 C904 1.353 . S
C906 C909 1.348 . S
C906 H954 0.929 . S
C907 C908 1.358 . S
C907 C909 1.356 . S
C907 H955 0.930 . S
C908 N905 1.279 . S
C908 C907 1.358 . S
C908 H911 0.930 . S
C909 C906 1.348 . S
C909 C907 1.356 . S
H910 C904 0.930 . S
H911 C908 0.930 . S
C912 C914 1.348 . S
C912 C915 1.356 . S
C912 O942 1.325 . S
N913 C916 1.314 . S
N913 C917 1.279 . S
C914 C912 1.348 . S
C914 C916 1.353 1_455 S
C914 H956 0.929 . S
C915 C912 1.356 . S
C915 C917 1.358 1_455 S
C915 H957 0.930 . S
C916 N913 1.314 . S
C916 C914 1.353 1_655 S
C916 H958 0.930 . S
C917 N913 1.279 . S
C917 C915 1.358 1_655 S
C917 H959 0.930 . S
C918 C919 1.348 . S
C918 C920 1.356 . S
C918 O943 1.325 . S
C919 C918 1.348 . S
C919 C921 1.353 . S
C919 H960 0.929 . S
C920 C918 1.356 . S
C920 C922 1.358 . S
C920 H961 0.930 . S
C921 C919 1.353 . S
C921 N923 1.314 . S
C921 H962 0.930 . S
C922 C920 1.358 . S
C922 N923 1.279 . S
C922 H963 0.930 . S
N923 C921 1.314 . S
N923 C922 1.279 . S
C924 C926 1.353 . S
C924 N927 1.314 . S
C924 H930 0.930 . S
C925 N927 1.279 . S
C925 C928 1.358 . S
C925 H931 0.930 . S
C926 C924 1.353 . S
C926 C929 1.348 . S
C926 H964 0.929 . S
N927 Li882 1.990 . S
N927 C924 1.314 . S
N927 C925 1.279 . S
C928 C925 1.358 . S
C928 C929 1.356 . S
C928 H965 0.930 . S
C929 C926 1.348 . S
C929 C928 1.356 . S
H930 C924 0.930 . S
H931 C925 0.930 . S
C932 N933 1.314 . S
C932 C934 1.353 . S
C932 H938 0.930 . S
N933 Li883 1.990 . S
N933 C932 1.314 . S
N933 C936 1.279 . S
C934 C932 1.353 . S
C934 C937 1.348 . S
C934 H966 0.929 . S
C935 C936 1.358 . S
C935 C937 1.356 . S
C935 H967 0.930 . S
C936 N933 1.279 . S
C936 C935 1.358 . S
C936 H939 0.930 . S
C937 C934 1.348 . S
C937 C935 1.356 . S
H938 C932 0.930 . S
H939 C936 0.930 . S
O940 Li880 1.956 . S
O940 Li881 1.970 . S
O940 Li882 1.961 . S
O940 C884 1.325 . S
O941 Li880 1.970 . S
O941 Li881 1.956 . S
O941 Li883 1.961 . S
O941 C890 1.325 . S
O942 Li880 1.961 . S
O942 Li882 1.956 . S
O942 Li883 1.970 . S
O942 C912 1.325 . S
O943 Li881 1.961 . S
O943 Li882 1.970 . S
O943 Li883 1.956 . S
O943 C918 1.325 . S
H944 C886 0.929 . S
H945 C887 0.930 . S
H946 C888 0.930 . S
H947 C889 0.930 . S
H948 C891 0.930 . S
H949 C893 0.929 . S
H950 C894 0.930 . S
H951 C895 0.930 . S
H952 C898 0.930 . S
H953 C901 0.929 . S
H954 C906 0.929 . S
H955 C907 0.930 . S
H956 C914 0.929 . S
H957 C915 0.930 . S
H958 C916 0.930 . S
H959 C917 0.930 . S
H960 C919 0.929 . S
H961 C920 0.930 . S
H962 C921 0.930 . S
H963 C922 0.930 . S
H964 C926 0.929 . S
H965 C928 0.930 . S
H966 C934 0.929 . S
H967 C935 0.930 . S
Li968 N985 1.990 . S
Li968 O1028 1.956 . S
Li968 O1029 1.970 . S
Li968 O1030 1.961 . S
Li969 N993 1.990 . S
Li969 O1028 1.970 . S
Li969 O1029 1.956 . S
Li969 O1031 1.961 . S
Li970 N1015 1.990 . S
Li970 O1028 1.961 . S
Li970 O1030 1.956 . S
Li970 O1031 1.970 . S
Li971 N1021 1.990 . S
Li971 O1029 1.961 . S
Li971 O1030 1.970 . S
Li971 O1031 1.956 . S
C972 C974 1.348 . S
C972 C975 1.356 . S
C972 O1028 1.325 . S
N973 C976 1.314 . S
N973 C977 1.279 . S
C974 C972 1.348 . S
C974 C976 1.353 . S
C974 H1032 0.929 . S
C975 C972 1.356 . S
C975 C977 1.358 . S
C975 H1033 0.930 . S
C976 N973 1.314 . S
C976 C974 1.353 . S
C976 H1034 0.930 . S
C977 N973 1.279 . S
C977 C975 1.358 . S
C977 H1035 0.930 . S
C978 C981 1.348 . S
C978 C982 1.356 . S
C978 O1029 1.325 . S
C979 N980 1.279 . S
C979 C982 1.358 . S
C979 H1036 0.930 . S
N980 C979 1.279 . S
N980 C983 1.314 . S
C981 C978 1.348 . S
C981 C983 1.353 . S
C981 H1037 0.929 . S
C982 C978 1.356 . S
C982 C979 1.358 . S
C982 H1038 0.930 . S
C983 N980 1.314 . S
C983 C981 1.353 . S
C983 H1039 0.930 . S
C984 N985 1.314 . S
C984 C989 1.353 . S
C984 H990 0.930 . S
N985 Li968 1.990 . S
N985 C984 1.314 . S
N985 C987 1.279 . S
C986 C987 1.358 . S
C986 C988 1.356 . S
C986 H1040 0.930 . S
C987 N985 1.279 . S
C987 C986 1.358 . S
C987 H991 0.930 . S
C988 C986 1.356 . S
C988 C989 1.348 . S
C989 C984 1.353 . S
C989 C988 1.348 . S
C989 H1041 0.929 . S
H990 C984 0.930 . S
H991 C987 0.930 . S
C992 N993 1.314 . S
C992 C994 1.353 . S
C992 H998 0.930 . S
N993 Li969 1.990 . S
N993 C992 1.314 . S
N993 C996 1.279 . S
C994 C992 1.353 . S
C994 C997 1.348 . S
C994 H1042 0.929 . S
C995 C996 1.358 . S
C995 C997 1.356 . S
C995 H1043 0.930 . S
C996 N993 1.279 . S
C996 C995 1.358 . S
C996 H999 0.930 . S
C997 C994 1.348 . S
C997 C995 1.356 . S
H998 C992 0.930 . S
H999 C996 0.930 . S
C1000 C1002 1.348 . S
C1000 C1003 1.356 . S
C1000 O1030 1.325 . S
N1001 C1004 1.314 . S
N1001 C1005 1.279 . S
C1002 C1000 1.348 . S
C1002 C1004 1.353 . S
C1002 H1044 0.929 . S
C1003 C1000 1.356 . S
C1003 C1005 1.358 . S
C1003 H1045 0.930 . S
C1004 N1001 1.314 . S
C1004 C1002 1.353 . S
C1004 H1046 0.930 . S
C1005 N1001 1.279 . S
C1005 C1003 1.358 . S
C1005 H1047 0.930 . S
C1006 C1007 1.348 . S
C1006 C1008 1.356 . S
C1006 O1031 1.325 . S
C1007 C1006 1.348 . S
C1007 C1009 1.353 . S
C1007 H1048 0.929 . S
C1008 C1006 1.356 . S
C1008 C1010 1.358 . S
C1008 H1049 0.930 . S
C1009 C1007 1.353 . S
C1009 N1011 1.314 . S
C1009 H1050 0.930 . S
C1010 C1008 1.358 . S
C1010 N1011 1.279 . S
C1010 H1051 0.930 . S
N1011 C1009 1.314 . S
N1011 C1010 1.279 . S
C1012 C1014 1.353 . S
C1012 N1015 1.314 . S
C1012 H1018 0.930 . S
C1013 N1015 1.279 . S
C1013 C1016 1.358 . S
C1013 H1019 0.930 . S
C1014 C1012 1.353 . S
C1014 C1017 1.348 . S
C1014 H1052 0.929 . S
N1015 Li970 1.990 . S
N1015 C1012 1.314 . S
N1015 C1013 1.279 . S
C1016 C1013 1.358 . S
C1016 C1017 1.356 . S
C1016 H1053 0.930 . S
C1017 C1014 1.348 . S
C1017 C1016 1.356 . S
H1018 C1012 0.930 . S
H1019 C1013 0.930 . S
C1020 N1021 1.314 . S
C1020 C1022 1.353 . S
C1020 H1026 0.930 . S
N1021 Li971 1.990 . S
N1021 C1020 1.314 . S
N1021 C1024 1.279 . S
C1022 C1020 1.353 . S
C1022 C1025 1.348 . S
C1022 H1054 0.929 . S
C1023 C1024 1.358 . S
C1023 C1025 1.356 . S
C1023 H1055 0.930 . S
C1024 N1021 1.279 . S
C1024 C1023 1.358 . S
C1024 H1027 0.930 . S
C1025 C1022 1.348 . S
C1025 C1023 1.356 . S
H1026 C1020 0.930 . S
H1027 C1024 0.930 . S
O1028 Li968 1.956 . S
O1028 Li969 1.970 . S
O1028 Li970 1.961 . S
O1028 C972 1.325 . S
O1029 Li968 1.970 . S
O1029 Li969 1.956 . S
O1029 Li971 1.961 . S
O1029 C978 1.325 . S
O1030 Li968 1.961 . S
O1030 Li970 1.956 . S
O1030 Li971 1.970 . S
O1030 C1000 1.325 . S
O1031 Li969 1.961 . S
O1031 Li970 1.970 . S
O1031 Li971 1.956 . S
O1031 C1006 1.325 . S
H1032 C974 0.929 . S
H1033 C975 0.930 . S
H1034 C976 0.930 . S
H1035 C977 0.930 . S
H1036 C979 0.930 . S
H1037 C981 0.929 . S
H1038 C982 0.930 . S
H1039 C983 0.930 . S
H1040 C986 0.930 . S
H1041 C989 0.929 . S
H1042 C994 0.929 . S
H1043 C995 0.930 . S
H1044 C1002 0.929 . S
H1045 C1003 0.930 . S
H1046 C1004 0.930 . S
H1047 C1005 0.930 . S
H1048 C1007 0.929 . S
H1049 C1008 0.930 . S
H1050 C1009 0.930 . S
H1051 C1010 0.930 . S
H1052 C1014 0.929 . S
H1053 C1016 0.930 . S
H1054 C1022 0.929 . S
H1055 C1023 0.930 . S
Li1056 N1073 1.990 . S
Li1056 O1116 1.956 . S
Li1056 O1117 1.970 . S
Li1056 O1118 1.961 . S
Li1057 N1081 1.990 . S
Li1057 O1116 1.970 . S
Li1057 O1117 1.956 . S
Li1057 O1119 1.961 . S
Li1058 N1103 1.990 . S
Li1058 O1116 1.961 . S
Li1058 O1118 1.956 . S
Li1058 O1119 1.970 . S
Li1059 N1109 1.990 . S
Li1059 O1117 1.961 . S
Li1059 O1118 1.970 . S
Li1059 O1119 1.956 . S
C1060 C1062 1.348 . S
C1060 C1063 1.356 . S
C1060 O1116 1.325 . S
N1061 C1064 1.314 . S
N1061 C1065 1.279 . S
C1062 C1060 1.348 . S
C1062 C1064 1.353 . S
C1062 H1120 0.929 . S
C1063 C1060 1.356 . S
C1063 C1065 1.358 . S
C1063 H1121 0.930 . S
C1064 N1061 1.314 . S
C1064 C1062 1.353 . S
C1064 H1122 0.930 . S
C1065 N1061 1.279 . S
C1065 C1063 1.358 . S
C1065 H1123 0.930 . S
C1066 C1069 1.348 . S
C1066 C1070 1.356 . S
C1066 O1117 1.325 . S
C1067 N1068 1.279 . S
C1067 C1070 1.358 1_455 S
C1067 H1124 0.930 . S
N1068 C1067 1.279 . S
N1068 C1071 1.314 . S
C1069 C1066 1.348 . S
C1069 C1071 1.353 1_655 S
C1069 H1125 0.929 . S
C1070 C1066 1.356 . S
C1070 C1067 1.358 1_655 S
C1070 H1126 0.930 . S
C1071 N1068 1.314 . S
C1071 C1069 1.353 1_455 S
C1071 H1127 0.930 . S
C1072 N1073 1.314 . S
C1072 C1077 1.353 . S
C1072 H1078 0.930 . S
N1073 Li1056 1.990 . S
N1073 C1072 1.314 . S
N1073 C1075 1.279 . S
C1074 C1075 1.358 . S
C1074 C1076 1.356 . S
C1074 H1128 0.930 . S
C1075 N1073 1.279 . S
C1075 C1074 1.358 . S
C1075 H1079 0.930 . S
C1076 C1074 1.356 . S
C1076 C1077 1.348 . S
C1077 C1072 1.353 . S
C1077 C1076 1.348 . S
C1077 H1129 0.929 . S
H1078 C1072 0.930 . S
H1079 C1075 0.930 . S
C1080 N1081 1.314 . S
C1080 C1082 1.353 . S
C1080 H1086 0.930 . S
N1081 Li1057 1.990 . S
N1081 C1080 1.314 . S
N1081 C1084 1.279 . S
C1082 C1080 1.353 . S
C1082 C1085 1.348 . S
C1082 H1130 0.929 . S
C1083 C1084 1.358 . S
C1083 C1085 1.356 . S
C1083 H1131 0.930 . S
C1084 N1081 1.279 . S
C1084 C1083 1.358 . S
C1084 H1087 0.930 . S
C1085 C1082 1.348 . S
C1085 C1083 1.356 . S
H1086 C1080 0.930 . S
H1087 C1084 0.930 . S
C1088 C1090 1.348 . S
C1088 C1091 1.356 . S
C1088 O1118 1.325 . S
N1089 C1092 1.314 . S
N1089 C1093 1.279 . S
C1090 C1088 1.348 . S
C1090 C1092 1.353 . S
C1090 H1132 0.929 . S
C1091 C1088 1.356 . S
C1091 C1093 1.358 . S
C1091 H1133 0.930 . S
C1092 N1089 1.314 . S
C1092 C1090 1.353 . S
C1092 H1134 0.930 . S
C1093 N1089 1.279 . S
C1093 C1091 1.358 . S
C1093 H1135 0.930 . S
C1094 C1095 1.348 . S
C1094 C1096 1.356 . S
C1094 O1119 1.325 . S
C1095 C1094 1.348 . S
C1095 C1097 1.353 . S
C1095 H1136 0.929 . S
C1096 C1094 1.356 . S
C1096 C1098 1.358 . S
C1096 H1137 0.930 . S
C1097 C1095 1.353 . S
C1097 N1099 1.314 . S
C1097 H1138 0.930 . S
C1098 C1096 1.358 . S
C1098 N1099 1.279 . S
C1098 H1139 0.930 . S
N1099 C1097 1.314 . S
N1099 C1098 1.279 . S
C1100 C1102 1.353 . S
C1100 N1103 1.314 . S
C1100 H1106 0.930 . S
C1101 N1103 1.279 . S
C1101 C1104 1.358 . S
C1101 H1107 0.930 . S
C1102 C1100 1.353 . S
C1102 C1105 1.348 . S
C1102 H1140 0.929 . S
N1103 Li1058 1.990 . S
N1103 C1100 1.314 . S
N1103 C1101 1.279 . S
C1104 C1101 1.358 . S
C1104 C1105 1.356 . S
C1104 H1141 0.930 . S
C1105 C1102 1.348 . S
C1105 C1104 1.356 . S
H1106 C1100 0.930 . S
H1107 C1101 0.930 . S
C1108 N1109 1.314 . S
C1108 C1110 1.353 . S
C1108 H1114 0.930 . S
N1109 Li1059 1.990 . S
N1109 C1108 1.314 . S
N1109 C1112 1.279 . S
C1110 C1108 1.353 . S
C1110 C1113 1.348 . S
C1110 H1142 0.929 . S
C1111 C1112 1.358 . S
C1111 C1113 1.356 . S
C1111 H1143 0.930 . S
C1112 N1109 1.279 . S
C1112 C1111 1.358 . S
C1112 H1115 0.930 . S
C1113 C1110 1.348 . S
C1113 C1111 1.356 . S
H1114 C1108 0.930 . S
H1115 C1112 0.930 . S
O1116 Li1056 1.956 . S
O1116 Li1057 1.970 . S
O1116 Li1058 1.961 . S
O1116 C1060 1.325 . S
O1117 Li1056 1.970 . S
O1117 Li1057 1.956 . S
O1117 Li1059 1.961 . S
O1117 C1066 1.325 . S
O1118 Li1056 1.961 . S
O1118 Li1058 1.956 . S
O1118 Li1059 1.970 . S
O1118 C1088 1.325 . S
O1119 Li1057 1.961 . S
O1119 Li1058 1.970 . S
O1119 Li1059 1.956 . S
O1119 C1094 1.325 . S
H1120 C1062 0.929 . S
H1121 C1063 0.930 . S
H1122 C1064 0.930 . S
H1123 C1065 0.930 . S
H1124 C1067 0.930 . S
H1125 C1069 0.929 . S
H1126 C1070 0.930 . S
H1127 C1071 0.930 . S
H1128 C1074 0.930 . S
H1129 C1077 0.929 . S
H1130 C1082 0.929 . S
H1131 C1083 0.930 . S
H1132 C1090 0.929 . S
H1133 C1091 0.930 . S
H1134 C1092 0.930 . S
H1135 C1093 0.930 . S
H1136 C1095 0.929 . S
H1137 C1096 0.930 . S
H1138 C1097 0.930 . S
H1139 C1098 0.930 . S
H1140 C1102 0.929 . S
H1141 C1104 0.930 . S
H1142 C1110 0.929 . S
H1143 C1111 0.930 . S
Li1144 N1161 1.990 . S
Li1144 O1204 1.956 . S
Li1144 O1205 1.970 . S
Li1144 O1206 1.961 . S
Li1145 N1169 1.990 . S
Li1145 O1204 1.970 . S
Li1145 O1205 1.956 . S
Li1145 O1207 1.961 . S
Li1146 N1191 1.990 . S
Li1146 O1204 1.961 . S
Li1146 O1206 1.956 . S
Li1146 O1207 1.970 . S
Li1147 N1197 1.990 . S
Li1147 O1205 1.961 . S
Li1147 O1206 1.970 . S
Li1147 O1207 1.956 . S
C1148 C1150 1.348 . S
C1148 C1151 1.356 . S
C1148 O1204 1.325 . S
N1149 C1152 1.314 . S
N1149 C1153 1.279 . S
C1150 C1148 1.348 . S
C1150 C1152 1.353 . S
C1150 H1208 0.929 . S
C1151 C1148 1.356 . S
C1151 C1153 1.358 . S
C1151 H1209 0.930 . S
C1152 N1149 1.314 . S
C1152 C1150 1.353 . S
C1152 H1210 0.930 . S
C1153 N1149 1.279 . S
C1153 C1151 1.358 . S
C1153 H1211 0.930 . S
C1154 C1157 1.348 . S
C1154 C1158 1.356 . S
C1154 O1205 1.325 . S
C1155 N1156 1.279 . S
C1155 C1158 1.358 . S
C1155 H1212 0.930 . S
N1156 C1155 1.279 . S
N1156 C1159 1.314 . S
C1157 C1154 1.348 . S
C1157 C1159 1.353 . S
C1157 H1213 0.929 . S
C1158 C1154 1.356 . S
C1158 C1155 1.358 . S
C1158 H1214 0.930 . S
C1159 N1156 1.314 . S
C1159 C1157 1.353 . S
C1159 H1215 0.930 . S
C1160 N1161 1.314 . S
C1160 C1165 1.353 . S
C1160 H1166 0.930 . S
N1161 Li1144 1.990 . S
N1161 C1160 1.314 . S
N1161 C1163 1.279 . S
C1162 C1163 1.358 . S
C1162 C1164 1.356 . S
C1162 H1216 0.930 . S
C1163 N1161 1.279 . S
C1163 C1162 1.358 . S
C1163 H1167 0.930 . S
C1164 C1162 1.356 . S
C1164 C1165 1.348 . S
C1165 C1160 1.353 . S
C1165 C1164 1.348 . S
C1165 H1217 0.929 . S
H1166 C1160 0.930 . S
H1167 C1163 0.930 . S
C1168 N1169 1.314 . S
C1168 C1170 1.353 . S
C1168 H1174 0.930 . S
N1169 Li1145 1.990 . S
N1169 C1168 1.314 . S
N1169 C1172 1.279 . S
C1170 C1168 1.353 . S
C1170 C1173 1.348 . S
C1170 H1218 0.929 . S
C1171 C1172 1.358 . S
C1171 C1173 1.356 . S
C1171 H1219 0.930 . S
C1172 N1169 1.279 . S
C1172 C1171 1.358 . S
C1172 H1175 0.930 . S
C1173 C1170 1.348 . S
C1173 C1171 1.356 . S
H1174 C1168 0.930 . S
H1175 C1172 0.930 . S
C1176 C1178 1.348 . S
C1176 C1179 1.356 . S
C1176 O1206 1.325 . S
N1177 C1180 1.314 . S
N1177 C1181 1.279 . S
C1178 C1176 1.348 . S
C1178 C1180 1.353 . S
C1178 H1220 0.929 . S
C1179 C1176 1.356 . S
C1179 C1181 1.358 . S
C1179 H1221 0.930 . S
C1180 N1177 1.314 . S
C1180 C1178 1.353 . S
C1180 H1222 0.930 . S
C1181 N1177 1.279 . S
C1181 C1179 1.358 . S
C1181 H1223 0.930 . S
C1182 C1183 1.348 . S
C1182 C1184 1.356 . S
C1182 O1207 1.325 . S
C1183 C1182 1.348 . S
C1183 C1185 1.353 . S
C1183 H1224 0.929 . S
C1184 C1182 1.356 . S
C1184 C1186 1.358 . S
C1184 H1225 0.930 . S
C1185 C1183 1.353 . S
C1185 N1187 1.314 . S
C1185 H1226 0.930 . S
C1186 C1184 1.358 . S
C1186 N1187 1.279 . S
C1186 H1227 0.930 . S
N1187 C1185 1.314 . S
N1187 C1186 1.279 . S
C1188 C1190 1.353 . S
C1188 N1191 1.314 . S
C1188 H1194 0.930 . S
C1189 N1191 1.279 . S
C1189 C1192 1.358 . S
C1189 H1195 0.930 . S
C1190 C1188 1.353 . S
C1190 C1193 1.348 . S
C1190 H1228 0.929 . S
N1191 Li1146 1.990 . S
N1191 C1188 1.314 . S
N1191 C1189 1.279 . S
C1192 C1189 1.358 . S
C1192 C1193 1.356 . S
C1192 H1229 0.930 . S
C1193 C1190 1.348 . S
C1193 C1192 1.356 . S
H1194 C1188 0.930 . S
H1195 C1189 0.930 . S
C1196 N1197 1.314 . S
C1196 C1198 1.353 . S
C1196 H1202 0.930 . S
N1197 Li1147 1.990 . S
N1197 C1196 1.314 . S
N1197 C1200 1.279 . S
C1198 C1196 1.353 . S
C1198 C1201 1.348 . S
C1198 H1230 0.929 . S
C1199 C1200 1.358 . S
C1199 C1201 1.356 . S
C1199 H1231 0.930 . S
C1200 N1197 1.279 . S
C1200 C1199 1.358 . S
C1200 H1203 0.930 . S
C1201 C1198 1.348 . S
C1201 C1199 1.356 . S
H1202 C1196 0.930 . S
H1203 C1200 0.930 . S
O1204 Li1144 1.956 . S
O1204 Li1145 1.970 . S
O1204 Li1146 1.961 . S
O1204 C1148 1.325 . S
O1205 Li1144 1.970 . S
O1205 Li1145 1.956 . S
O1205 Li1147 1.961 . S
O1205 C1154 1.325 . S
O1206 Li1144 1.961 . S
O1206 Li1146 1.956 . S
O1206 Li1147 1.970 . S
O1206 C1176 1.325 . S
O1207 Li1145 1.961 . S
O1207 Li1146 1.970 . S
O1207 Li1147 1.956 . S
O1207 C1182 1.325 . S
H1208 C1150 0.929 . S
H1209 C1151 0.930 . S
H1210 C1152 0.930 . S
H1211 C1153 0.930 . S
H1212 C1155 0.930 . S
H1213 C1157 0.929 . S
H1214 C1158 0.930 . S
H1215 C1159 0.930 . S
H1216 C1162 0.930 . S
H1217 C1165 0.929 . S
H1218 C1170 0.929 . S
H1219 C1171 0.930 . S
H1220 C1178 0.929 . S
H1221 C1179 0.930 . S
H1222 C1180 0.930 . S
H1223 C1181 0.930 . S
H1224 C1183 0.929 . S
H1225 C1184 0.930 . S
H1226 C1185 0.930 . S
H1227 C1186 0.930 . S
H1228 C1190 0.929 . S
H1229 C1192 0.930 . S
H1230 C1198 0.929 . S
H1231 C1199 0.930 . S
Li1232 N1249 1.990 . S
Li1232 O1292 1.956 . S
Li1232 O1293 1.970 . S
Li1232 O1294 1.961 . S
Li1233 N1257 1.990 . S
Li1233 O1292 1.970 . S
Li1233 O1293 1.956 . S
Li1233 O1295 1.961 . S
Li1234 N1279 1.990 . S
Li1234 O1292 1.961 . S
Li1234 O1294 1.956 . S
Li1234 O1295 1.970 . S
Li1235 N1285 1.990 . S
Li1235 O1293 1.961 . S
Li1235 O1294 1.970 . S
Li1235 O1295 1.956 . S
C1236 C1238 1.348 . S
C1236 C1239 1.356 . S
C1236 O1292 1.325 . S
N1237 C1240 1.314 . S
N1237 C1241 1.279 . S
C1238 C1236 1.348 . S
C1238 C1240 1.353 . S
C1238 H1296 0.929 . S
C1239 C1236 1.356 . S
C1239 C1241 1.358 . S
C1239 H1297 0.930 . S
C1240 N1237 1.314 . S
C1240 C1238 1.353 . S
C1240 H1298 0.930 . S
C1241 N1237 1.279 . S
C1241 C1239 1.358 . S
C1241 H1299 0.930 . S
C1242 C1245 1.348 . S
C1242 C1246 1.356 . S
C1242 O1293 1.325 . S
C1243 N1244 1.279 . S
C1243 C1246 1.358 . S
C1243 H1300 0.930 . S
N1244 C1243 1.279 . S
N1244 C1247 1.314 . S
C1245 C1242 1.348 . S
C1245 C1247 1.353 . S
C1245 H1301 0.929 . S
C1246 C1242 1.356 . S
C1246 C1243 1.358 . S
C1246 H1302 0.930 . S
C1247 N1244 1.314 . S
C1247 C1245 1.353 . S
C1247 H1303 0.930 . S
C1248 N1249 1.314 . S
C1248 C1253 1.353 . S
C1248 H1254 0.930 . S
N1249 Li1232 1.990 . S
N1249 C1248 1.314 . S
N1249 C1251 1.279 . S
C1250 C1251 1.358 . S
C1250 C1252 1.356 . S
C1250 H1304 0.930 . S
C1251 N1249 1.279 . S
C1251 C1250 1.358 . S
C1251 H1255 0.930 . S
C1252 C1250 1.356 . S
C1252 C1253 1.348 . S
C1253 C1248 1.353 . S
C1253 C1252 1.348 . S
C1253 H1305 0.929 . S
H1254 C1248 0.930 . S
H1255 C1251 0.930 . S
C1256 N1257 1.314 . S
C1256 C1258 1.353 . S
C1256 H1262 0.930 . S
N1257 Li1233 1.990 . S
N1257 C1256 1.314 . S
N1257 C1260 1.279 . S
C1258 C1256 1.353 . S
C1258 C1261 1.348 . S
C1258 H1306 0.929 . S
C1259 C1260 1.358 . S
C1259 C1261 1.356 . S
C1259 H1307 0.930 . S
C1260 N1257 1.279 . S
C1260 C1259 1.358 . S
C1260 H1263 0.930 . S
C1261 C1258 1.348 . S
C1261 C1259 1.356 . S
H1262 C1256 0.930 . S
H1263 C1260 0.930 . S
C1264 C1266 1.348 . S
C1264 C1267 1.356 . S
C1264 O1294 1.325 . S
N1265 C1268 1.314 . S
N1265 C1269 1.279 . S
C1266 C1264 1.348 . S
C1266 C1268 1.353 . S
C1266 H1308 0.929 . S
C1267 C1264 1.356 . S
C1267 C1269 1.358 . S
C1267 H1309 0.930 . S
C1268 N1265 1.314 . S
C1268 C1266 1.353 . S
C1268 H1310 0.930 . S
C1269 N1265 1.279 . S
C1269 C1267 1.358 . S
C1269 H1311 0.930 . S
C1270 C1271 1.348 . S
C1270 C1272 1.356 . S
C1270 O1295 1.325 . S
C1271 C1270 1.348 . S
C1271 C1273 1.353 1_655 S
C1271 H1312 0.929 . S
C1272 C1270 1.356 . S
C1272 C1274 1.358 1_655 S
C1272 H1313 0.930 . S
C1273 C1271 1.353 1_455 S
C1273 N1275 1.314 . S
C1273 H1314 0.930 . S
C1274 C1272 1.358 1_455 S
C1274 N1275 1.279 . S
C1274 H1315 0.930 . S
N1275 C1273 1.314 . S
N1275 C1274 1.279 . S
C1276 C1278 1.353 . S
C1276 N1279 1.314 . S
C1276 H1282 0.930 . S
C1277 N1279 1.279 . S
C1277 C1280 1.358 . S
C1277 H1283 0.930 . S
C1278 C1276 1.353 . S
C1278 C1281 1.348 . S
C1278 H1316 0.929 . S
N1279 Li1234 1.990 . S
N1279 C1276 1.314 . S
N1279 C1277 1.279 . S
C1280 C1277 1.358 . S
C1280 C1281 1.356 . S
C1280 H1317 0.930 . S
C1281 C1278 1.348 . S
C1281 C1280 1.356 . S
H1282 C1276 0.930 . S
H1283 C1277 0.930 . S
C1284 N1285 1.314 . S
C1284 C1286 1.353 . S
C1284 H1290 0.930 . S
N1285 Li1235 1.990 . S
N1285 C1284 1.314 . S
N1285 C1288 1.279 . S
C1286 C1284 1.353 . S
C1286 C1289 1.348 . S
C1286 H1318 0.929 . S
C1287 C1288 1.358 . S
C1287 C1289 1.356 . S
C1287 H1319 0.930 . S
C1288 N1285 1.279 . S
C1288 C1287 1.358 . S
C1288 H1291 0.930 . S
C1289 C1286 1.348 . S
C1289 C1287 1.356 . S
H1290 C1284 0.930 . S
H1291 C1288 0.930 . S
O1292 Li1232 1.956 . S
O1292 Li1233 1.970 . S
O1292 Li1234 1.961 . S
O1292 C1236 1.325 . S
O1293 Li1232 1.970 . S
O1293 Li1233 1.956 . S
O1293 Li1235 1.961 . S
O1293 C1242 1.325 . S
O1294 Li1232 1.961 . S
O1294 Li1234 1.956 . S
O1294 Li1235 1.970 . S
O1294 C1264 1.325 . S
O1295 Li1233 1.961 . S
O1295 Li1234 1.970 . S
O1295 Li1235 1.956 . S
O1295 C1270 1.325 . S
H1296 C1238 0.929 . S
H1297 C1239 0.930 . S
H1298 C1240 0.930 . S
H1299 C1241 0.930 . S
H1300 C1243 0.930 . S
H1301 C1245 0.929 . S
H1302 C1246 0.930 . S
H1303 C1247 0.930 . S
H1304 C1250 0.930 . S
H1305 C1253 0.929 . S
H1306 C1258 0.929 . S
H1307 C1259 0.930 . S
H1308 C1266 0.929 . S
H1309 C1267 0.930 . S
H1310 C1268 0.930 . S
H1311 C1269 0.930 . S
H1312 C1271 0.929 . S
H1313 C1272 0.930 . S
H1314 C1273 0.930 . S
H1315 C1274 0.930 . S
H1316 C1278 0.929 . S
H1317 C1280 0.930 . S
H1318 C1286 0.929 . S
H1319 C1287 0.930 . S
Li1320 N1337 1.990 . S
Li1320 O1380 1.956 . S
Li1320 O1381 1.970 . S
Li1320 O1382 1.961 . S
Li1321 N1345 1.990 . S
Li1321 O1380 1.970 . S
Li1321 O1381 1.956 . S
Li1321 O1383 1.961 . S
Li1322 N1367 1.990 . S
Li1322 O1380 1.961 . S
Li1322 O1382 1.956 . S
Li1322 O1383 1.970 . S
Li1323 N1373 1.990 . S
Li1323 O1381 1.961 . S
Li1323 O1382 1.970 . S
Li1323 O1383 1.956 . S
C1324 C1326 1.348 . S
C1324 C1327 1.356 . S
C1324 O1380 1.325 . S
N1325 C1328 1.314 . S
N1325 C1329 1.279 . S
C1326 C1324 1.348 . S
C1326 C1328 1.353 . S
C1326 H1384 0.929 . S
C1327 C1324 1.356 . S
C1327 C1329 1.358 . S
C1327 H1385 0.930 . S
C1328 N1325 1.314 . S
C1328 C1326 1.353 . S
C1328 H1386 0.930 . S
C1329 N1325 1.279 . S
C1329 C1327 1.358 . S
C1329 H1387 0.930 . S
C1330 C1333 1.348 . S
C1330 C1334 1.356 . S
C1330 O1381 1.325 . S
C1331 N1332 1.279 . S
C1331 C1334 1.358 . S
C1331 H1388 0.930 . S
N1332 C1331 1.279 . S
N1332 C1335 1.314 . S
C1333 C1330 1.348 . S
C1333 C1335 1.353 . S
C1333 H1389 0.929 . S
C1334 C1330 1.356 . S
C1334 C1331 1.358 . S
C1334 H1390 0.930 . S
C1335 N1332 1.314 . S
C1335 C1333 1.353 . S
C1335 H1391 0.930 . S
C1336 N1337 1.314 . S
C1336 C1341 1.353 . S
C1336 H1342 0.930 . S
N1337 Li1320 1.990 . S
N1337 C1336 1.314 . S
N1337 C1339 1.279 . S
C1338 C1339 1.358 . S
C1338 C1340 1.356 . S
C1338 H1392 0.930 . S
C1339 N1337 1.279 . S
C1339 C1338 1.358 . S
C1339 H1343 0.930 . S
C1340 C1338 1.356 . S
C1340 C1341 1.348 . S
C1341 C1336 1.353 . S
C1341 C1340 1.348 . S
C1341 H1393 0.929 . S
H1342 C1336 0.930 . S
H1343 C1339 0.930 . S
C1344 N1345 1.314 . S
C1344 C1346 1.353 . S
C1344 H1350 0.930 . S
N1345 Li1321 1.990 . S
N1345 C1344 1.314 . S
N1345 C1348 1.279 . S
C1346 C1344 1.353 . S
C1346 C1349 1.348 . S
C1346 H1394 0.929 . S
C1347 C1348 1.358 . S
C1347 C1349 1.356 . S
C1347 H1395 0.930 . S
C1348 N1345 1.279 . S
C1348 C1347 1.358 . S
C1348 H1351 0.930 . S
C1349 C1346 1.348 . S
C1349 C1347 1.356 . S
H1350 C1344 0.930 . S
H1351 C1348 0.930 . S
C1352 C1354 1.348 . S
C1352 C1355 1.356 . S
C1352 O1382 1.325 . S
N1353 C1356 1.314 . S
N1353 C1357 1.279 . S
C1354 C1352 1.348 . S
C1354 C1356 1.353 . S
C1354 H1396 0.929 . S
C1355 C1352 1.356 . S
C1355 C1357 1.358 . S
C1355 H1397 0.930 . S
C1356 N1353 1.314 . S
C1356 C1354 1.353 . S
C1356 H1398 0.930 . S
C1357 N1353 1.279 . S
C1357 C1355 1.358 . S
C1357 H1399 0.930 . S
C1358 C1359 1.348 . S
C1358 C1360 1.356 . S
C1358 O1383 1.325 . S
C1359 C1358 1.348 . S
C1359 C1361 1.353 . S
C1359 H1400 0.929 . S
C1360 C1358 1.356 . S
C1360 C1362 1.358 . S
C1360 H1401 0.930 . S
C1361 C1359 1.353 . S
C1361 N1363 1.314 . S
C1361 H1402 0.930 . S
C1362 C1360 1.358 . S
C1362 N1363 1.279 . S
C1362 H1403 0.930 . S
N1363 C1361 1.314 . S
N1363 C1362 1.279 . S
C1364 C1366 1.353 . S
C1364 N1367 1.314 . S
C1364 H1370 0.930 . S
C1365 N1367 1.279 . S
C1365 C1368 1.358 . S
C1365 H1371 0.930 . S
C1366 C1364 1.353 . S
C1366 C1369 1.348 . S
C1366 H1404 0.929 . S
N1367 Li1322 1.990 . S
N1367 C1364 1.314 . S
N1367 C1365 1.279 . S
C1368 C1365 1.358 . S
C1368 C1369 1.356 . S
C1368 H1405 0.930 . S
C1369 C1366 1.348 . S
C1369 C1368 1.356 . S
H1370 C1364 0.930 . S
H1371 C1365 0.930 . S
C1372 N1373 1.314 . S
C1372 C1374 1.353 . S
C1372 H1378 0.930 . S
N1373 Li1323 1.990 . S
N1373 C1372 1.314 . S
N1373 C1376 1.279 . S
C1374 C1372 1.353 . S
C1374 C1377 1.348 . S
C1374 H1406 0.929 . S
C1375 C1376 1.358 . S
C1375 C1377 1.356 . S
C1375 H1407 0.930 . S
C1376 N1373 1.279 . S
C1376 C1375 1.358 . S
C1376 H1379 0.930 . S
C1377 C1374 1.348 . S
C1377 C1375 1.356 . S
H1378 C1372 0.930 . S
H1379 C1376 0.930 . S
O1380 Li1320 1.956 . S
O1380 Li1321 1.970 . S
O1380 Li1322 1.961 . S
O1380 C1324 1.325 . S
O1381 Li1320 1.970 . S
O1381 Li1321 1.956 . S
O1381 Li1323 1.961 . S
O1381 C1330 1.325 . S
O1382 Li1320 1.961 . S
O1382 Li1322 1.956 . S
O1382 Li1323 1.970 . S
O1382 C1352 1.325 . S
O1383 Li1321 1.961 . S
O1383 Li1322 1.970 . S
O1383 Li1323 1.956 . S
O1383 C1358 1.325 . S
H1384 C1326 0.929 . S
H1385 C1327 0.930 . S
H1386 C1328 0.930 . S
H1387 C1329 0.930 . S
H1388 C1331 0.930 . S
H1389 C1333 0.929 . S
H1390 C1334 0.930 . S
H1391 C1335 0.930 . S
H1392 C1338 0.930 . S
H1393 C1341 0.929 . S
H1394 C1346 0.929 . S
H1395 C1347 0.930 . S
H1396 C1354 0.929 . S
H1397 C1355 0.930 . S
H1398 C1356 0.930 . S
H1399 C1357 0.930 . S
H1400 C1359 0.929 . S
H1401 C1360 0.930 . S
H1402 C1361 0.930 . S
H1403 C1362 0.930 . S
H1404 C1366 0.929 . S
H1405 C1368 0.930 . S
H1406 C1374 0.929 . S
H1407 C1375 0.930 . S
Li1408 N1425 1.990 . S
Li1408 O1468 1.956 . S
Li1408 O1469 1.970 . S
Li1408 O1470 1.961 . S
Li1409 N1433 1.990 . S
Li1409 O1468 1.970 . S
Li1409 O1469 1.956 . S
Li1409 O1471 1.961 . S
Li1410 N1455 1.990 . S
Li1410 O1468 1.961 . S
Li1410 O1470 1.956 . S
Li1410 O1471 1.970 . S
Li1411 N1461 1.990 . S
Li1411 O1469 1.961 . S
Li1411 O1470 1.970 . S
Li1411 O1471 1.956 . S
C1412 C1414 1.348 . S
C1412 C1415 1.356 . S
C1412 O1468 1.325 . S
N1413 C1416 1.314 . S
N1413 C1417 1.279 . S
C1414 C1412 1.348 . S
C1414 C1416 1.353 . S
C1414 H1472 0.929 . S
C1415 C1412 1.356 . S
C1415 C1417 1.358 . S
C1415 H1473 0.930 . S
C1416 N1413 1.314 . S
C1416 C1414 1.353 . S
C1416 H1474 0.930 . S
C1417 N1413 1.279 . S
C1417 C1415 1.358 . S
C1417 H1475 0.930 . S
C1418 C1421 1.348 . S
C1418 C1422 1.356 . S
C1418 O1469 1.325 . S
C1419 N1420 1.279 . S
C1419 C1422 1.358 . S
C1419 H1476 0.930 . S
N1420 C1419 1.279 . S
N1420 C1423 1.314 . S
C1421 C1418 1.348 . S
C1421 C1423 1.353 . S
C1421 H1477 0.929 . S
C1422 C1418 1.356 . S
C1422 C1419 1.358 . S
C1422 H1478 0.930 . S
C1423 N1420 1.314 . S
C1423 C1421 1.353 . S
C1423 H1479 0.930 . S
C1424 N1425 1.314 . S
C1424 C1429 1.353 . S
C1424 H1430 0.930 . S
N1425 Li1408 1.990 . S
N1425 C1424 1.314 . S
N1425 C1427 1.279 . S
C1426 C1427 1.358 . S
C1426 C1428 1.356 . S
C1426 H1480 0.930 . S
C1427 N1425 1.279 . S
C1427 C1426 1.358 . S
C1427 H1431 0.930 . S
C1428 C1426 1.356 . S
C1428 C1429 1.348 . S
C1429 C1424 1.353 . S
C1429 C1428 1.348 . S
C1429 H1481 0.929 . S
H1430 C1424 0.930 . S
H1431 C1427 0.930 . S
C1432 N1433 1.314 . S
C1432 C1434 1.353 . S
C1432 H1438 0.930 . S
N1433 Li1409 1.990 . S
N1433 C1432 1.314 . S
N1433 C1436 1.279 . S
C1434 C1432 1.353 . S
C1434 C1437 1.348 . S
C1434 H1482 0.929 . S
C1435 C1436 1.358 . S
C1435 C1437 1.356 . S
C1435 H1483 0.930 . S
C1436 N1433 1.279 . S
C1436 C1435 1.358 . S
C1436 H1439 0.930 . S
C1437 C1434 1.348 . S
C1437 C1435 1.356 . S
H1438 C1432 0.930 . S
H1439 C1436 0.930 . S
C1440 C1442 1.348 . S
C1440 C1443 1.356 . S
C1440 O1470 1.325 . S
N1441 C1444 1.315 1_545 S
N1441 C1445 1.277 . S
C1442 C1440 1.348 . S
C1442 C1444 1.353 1_545 S
C1442 H1484 0.929 . S
C1443 C1440 1.356 . S
C1443 C1445 1.358 . S
C1443 H1485 0.930 . S
C1444 N1441 1.315 1_565 S
C1444 C1442 1.353 1_565 S
C1444 H1486 0.930 . S
C1445 N1441 1.277 . S
C1445 C1443 1.358 . S
C1445 H1487 0.930 . S
C1446 C1447 1.348 . S
C1446 C1448 1.356 . S
C1446 O1471 1.325 . S
C1447 C1446 1.348 . S
C1447 C1449 1.353 . S
C1447 H1488 0.929 . S
C1448 C1446 1.356 . S
C1448 C1450 1.358 . S
C1448 H1489 0.930 . S
C1449 C1447 1.353 . S
C1449 N1451 1.314 . S
C1449 H1490 0.930 . S
C1450 C1448 1.358 . S
C1450 N1451 1.279 . S
C1450 H1491 0.930 . S
N1451 C1449 1.314 . S
N1451 C1450 1.279 . S
C1452 C1454 1.353 . S
C1452 N1455 1.314 . S
C1452 H1458 0.930 . S
C1453 N1455 1.279 . S
C1453 C1456 1.358 . S
C1453 H1459 0.930 . S
C1454 C1452 1.353 . S
C1454 C1457 1.348 . S
C1454 H1492 0.929 . S
N1455 Li1410 1.990 . S
N1455 C1452 1.314 . S
N1455 C1453 1.279 . S
C1456 C1453 1.358 . S
C1456 C1457 1.356 . S
C1456 H1493 0.930 . S
C1457 C1454 1.348 . S
C1457 C1456 1.356 . S
H1458 C1452 0.930 . S
H1459 C1453 0.930 . S
C1460 N1461 1.314 . S
C1460 C1462 1.353 1_545 S
C1460 H1466 0.930 . S
N1461 Li1411 1.990 . S
N1461 C1460 1.314 . S
N1461 C1464 1.279 . S
C1462 C1460 1.353 1_565 S
C1462 C1465 1.348 . S
C1462 H1494 0.929 . S
C1463 C1464 1.358 1_565 S
C1463 C1465 1.356 . S
C1463 H1495 0.930 . S
C1464 N1461 1.279 . S
C1464 C1463 1.358 1_545 S
C1464 H1467 0.930 . S
C1465 C1462 1.348 . S
C1465 C1463 1.356 . S
H1466 C1460 0.930 . S
H1467 C1464 0.930 . S
O1468 Li1408 1.956 . S
O1468 Li1409 1.970 . S
O1468 Li1410 1.961 . S
O1468 C1412 1.325 . S
O1469 Li1408 1.970 . S
O1469 Li1409 1.956 . S
O1469 Li1411 1.961 . S
O1469 C1418 1.325 . S
O1470 Li1408 1.961 . S
O1470 Li1410 1.956 . S
O1470 Li1411 1.970 . S
O1470 C1440 1.325 . S
O1471 Li1409 1.961 . S
O1471 Li1410 1.970 . S
O1471 Li1411 1.956 . S
O1471 C1446 1.325 . S
H1472 C1414 0.929 . S
H1473 C1415 0.930 . S
H1474 C1416 0.930 . S
H1475 C1417 0.930 . S
H1476 C1419 0.930 . S
H1477 C1421 0.929 . S
H1478 C1422 0.930 . S
H1479 C1423 0.930 . S
H1480 C1426 0.930 . S
H1481 C1429 0.929 . S
H1482 C1434 0.929 . S
H1483 C1435 0.930 . S
H1484 C1442 0.929 . S
H1485 C1443 0.930 . S
H1486 C1444 0.930 . S
H1487 C1445 0.930 . S
H1488 C1447 0.929 . S
H1489 C1448 0.930 . S
H1490 C1449 0.930 . S
H1491 C1450 0.930 . S
H1492 C1454 0.929 . S
H1493 C1456 0.930 . S
H1494 C1462 0.929 . S
H1495 C1463 0.930 . S
Li1496 N1513 1.990 . S
Li1496 O1556 1.956 . S
Li1496 O1557 1.970 . S
Li1496 O1558 1.961 . S
Li1497 N1521 1.990 . S
Li1497 O1556 1.970 . S
Li1497 O1557 1.956 . S
Li1497 O1559 1.961 . S
Li1498 N1543 1.990 . S
Li1498 O1556 1.961 . S
Li1498 O1558 1.956 . S
Li1498 O1559 1.970 . S
Li1499 N1549 1.990 . S
Li1499 O1557 1.961 . S
Li1499 O1558 1.970 . S
Li1499 O1559 1.956 . S
C1500 C1502 1.348 . S
C1500 C1503 1.356 . S
C1500 O1556 1.325 . S
N1501 C1504 1.314 . S
N1501 C1505 1.279 . S
C1502 C1500 1.348 . S
C1502 C1504 1.353 . S
C1502 H1560 0.929 . S
C1503 C1500 1.356 . S
C1503 C1505 1.358 . S
C1503 H1561 0.930 . S
C1504 N1501 1.314 . S
C1504 C1502 1.353 . S
C1504 H1562 0.930 . S
C1505 N1501 1.279 . S
C1505 C1503 1.358 . S
C1505 H1563 0.930 . S
C1506 C1509 1.348 . S
C1506 C1510 1.356 . S
C1506 O1557 1.325 . S
C1507 N1508 1.279 . S
C1507 C1510 1.358 . S
C1507 H1564 0.930 . S
N1508 C1507 1.279 . S
N1508 C1511 1.314 . S
C1509 C1506 1.348 . S
C1509 C1511 1.353 . S
C1509 H1565 0.929 . S
C1510 C1506 1.356 . S
C1510 C1507 1.358 . S
C1510 H1566 0.930 . S
C1511 N1508 1.314 . S
C1511 C1509 1.353 . S
C1511 H1567 0.930 . S
C1512 N1513 1.314 . S
C1512 C1517 1.353 . S
C1512 H1518 0.930 . S
N1513 Li1496 1.990 . S
N1513 C1512 1.314 . S
N1513 C1515 1.279 . S
C1514 C1515 1.358 . S
C1514 C1516 1.356 . S
C1514 H1568 0.930 . S
C1515 N1513 1.279 . S
C1515 C1514 1.358 . S
C1515 H1519 0.930 . S
C1516 C1514 1.356 . S
C1516 C1517 1.348 . S
C1517 C1512 1.353 . S
C1517 C1516 1.348 . S
C1517 H1569 0.929 . S
H1518 C1512 0.930 . S
H1519 C1515 0.930 . S
C1520 N1521 1.314 . S
C1520 C1522 1.353 . S
C1520 H1526 0.930 . S
N1521 Li1497 1.990 . S
N1521 C1520 1.314 . S
N1521 C1524 1.279 . S
C1522 C1520 1.353 . S
C1522 C1525 1.348 . S
C1522 H1570 0.929 . S
C1523 C1524 1.358 . S
C1523 C1525 1.356 . S
C1523 H1571 0.930 . S
C1524 N1521 1.279 . S
C1524 C1523 1.358 . S
C1524 H1527 0.930 . S
C1525 C1522 1.348 . S
C1525 C1523 1.356 . S
H1526 C1520 0.930 . S
H1527 C1524 0.930 . S
C1528 C1530 1.348 1_545 S
C1528 C1531 1.356 . S
C1528 O1558 1.325 . S
N1529 C1532 1.314 . S
N1529 C1533 1.279 . S
C1530 C1528 1.348 1_565 S
C1530 C1532 1.353 . S
C1530 H1572 0.929 . S
C1531 C1528 1.356 . S
C1531 C1533 1.358 1_545 S
C1531 H1573 0.930 . S
C1532 N1529 1.314 . S
C1532 C1530 1.353 . S
C1532 H1574 0.930 . S
C1533 N1529 1.279 . S
C1533 C1531 1.358 1_565 S
C1533 H1575 0.930 . S
C1534 C1535 1.348 . S
C1534 C1536 1.356 . S
C1534 O1559 1.325 . S
C1535 C1534 1.348 . S
C1535 C1537 1.353 . S
C1535 H1576 0.929 . S
C1536 C1534 1.356 . S
C1536 C1538 1.358 . S
C1536 H1577 0.930 . S
C1537 C1535 1.353 . S
C1537 N1539 1.314 . S
C1537 H1578 0.930 . S
C1538 C1536 1.358 . S
C1538 N1539 1.279 . S
C1538 H1579 0.930 . S
N1539 C1537 1.314 . S
N1539 C1538 1.279 . S
C1540 C1542 1.353 . S
C1540 N1543 1.314 . S
C1540 H1546 0.930 . S
C1541 N1543 1.279 . S
C1541 C1544 1.358 . S
C1541 H1547 0.930 . S
C1542 C1540 1.353 . S
C1542 C1545 1.348 . S
C1542 H1580 0.929 . S
N1543 Li1498 1.990 . S
N1543 C1540 1.314 . S
N1543 C1541 1.279 . S
C1544 C1541 1.358 . S
C1544 C1545 1.356 . S
C1544 H1581 0.930 . S
C1545 C1542 1.348 . S
C1545 C1544 1.356 . S
H1546 C1540 0.930 . S
H1547 C1541 0.930 . S
C1548 N1549 1.314 . S
C1548 C1550 1.353 1_545 S
C1548 H1554 0.930 . S
N1549 Li1499 1.990 . S
N1549 C1548 1.314 . S
N1549 C1552 1.279 . S
C1550 C1548 1.353 1_565 S
C1550 C1553 1.348 . S
C1550 H1582 0.929 . S
C1551 C1552 1.358 1_565 S
C1551 C1553 1.356 . S
C1551 H1583 0.930 . S
C1552 N1549 1.279 . S
C1552 C1551 1.358 1_545 S
C1552 H1555 0.930 . S
C1553 C1550 1.348 . S
C1553 C1551 1.356 . S
H1554 C1548 0.930 . S
H1555 C1552 0.930 . S
O1556 Li1496 1.956 . S
O1556 Li1497 1.970 . S
O1556 Li1498 1.961 . S
O1556 C1500 1.325 . S
O1557 Li1496 1.970 . S
O1557 Li1497 1.956 . S
O1557 Li1499 1.961 . S
O1557 C1506 1.325 . S
O1558 Li1496 1.961 . S
O1558 Li1498 1.956 . S
O1558 Li1499 1.970 . S
O1558 C1528 1.325 . S
O1559 Li1497 1.961 . S
O1559 Li1498 1.970 . S
O1559 Li1499 1.956 . S
O1559 C1534 1.325 . S
H1560 C1502 0.929 . S
H1561 C1503 0.930 . S
H1562 C1504 0.930 . S
H1563 C1505 0.930 . S
H1564 C1507 0.930 . S
H1565 C1509 0.929 . S
H1566 C1510 0.930 . S
H1567 C1511 0.930 . S
H1568 C1514 0.930 . S
H1569 C1517 0.929 . S
H1570 C1522 0.929 . S
H1571 C1523 0.930 . S
H1572 C1530 0.929 . S
H1573 C1531 0.930 . S
H1574 C1532 0.930 . S
H1575 C1533 0.930 . S
H1576 C1535 0.929 . S
H1577 C1536 0.930 . S
H1578 C1537 0.930 . S
H1579 C1538 0.930 . S
H1580 C1542 0.929 . S
H1581 C1544 0.930 . S
H1582 C1550 0.929 . S
H1583 C1551 0.930 . S
Li1584 N1601 1.990 . S
Li1584 O1644 1.956 . S
Li1584 O1645 1.970 . S
Li1584 O1646 1.961 . S
Li1585 N1609 1.990 . S
Li1585 O1644 1.970 . S
Li1585 O1645 1.956 . S
Li1585 O1647 1.961 . S
Li1586 N1631 1.990 . S
Li1586 O1644 1.961 . S
Li1586 O1646 1.956 . S
Li1586 O1647 1.970 . S
Li1587 N1637 1.990 . S
Li1587 O1645 1.961 . S
Li1587 O1646 1.970 . S
Li1587 O1647 1.956 . S
C1588 C1590 1.348 . S
C1588 C1591 1.356 . S
C1588 O1644 1.325 . S
N1589 C1592 1.314 . S
N1589 C1593 1.279 . S
C1590 C1588 1.348 . S
C1590 C1592 1.353 . S
C1590 H1648 0.929 . S
C1591 C1588 1.356 . S
C1591 C1593 1.358 . S
C1591 H1649 0.930 . S
C1592 N1589 1.314 . S
C1592 C1590 1.353 . S
C1592 H1650 0.930 . S
C1593 N1589 1.279 . S
C1593 C1591 1.358 . S
C1593 H1651 0.930 . S
C1594 C1597 1.348 . S
C1594 C1598 1.356 . S
C1594 O1645 1.325 . S
C1595 N1596 1.279 . S
C1595 C1598 1.358 . S
C1595 H1652 0.930 . S
N1596 C1595 1.279 . S
N1596 C1599 1.314 . S
C1597 C1594 1.348 . S
C1597 C1599 1.353 . S
C1597 H1653 0.929 . S
C1598 C1594 1.356 . S
C1598 C1595 1.358 . S
C1598 H1654 0.930 . S
C1599 N1596 1.314 . S
C1599 C1597 1.353 . S
C1599 H1655 0.930 . S
C1600 N1601 1.314 . S
C1600 C1605 1.353 . S
C1600 H1606 0.930 . S
N1601 Li1584 1.990 . S
N1601 C1600 1.314 . S
N1601 C1603 1.279 . S
C1602 C1603 1.358 . S
C1602 C1604 1.356 . S
C1602 H1656 0.930 . S
C1603 N1601 1.279 . S
C1603 C1602 1.358 . S
C1603 H1607 0.930 . S
C1604 C1602 1.356 . S
C1604 C1605 1.348 . S
C1605 C1600 1.353 . S
C1605 C1604 1.348 . S
C1605 H1657 0.929 . S
H1606 C1600 0.930 . S
H1607 C1603 0.930 . S
C1608 N1609 1.314 . S
C1608 C1610 1.353 . S
C1608 H1614 0.930 . S
N1609 Li1585 1.990 . S
N1609 C1608 1.314 . S
N1609 C1612 1.279 . S
C1610 C1608 1.353 . S
C1610 C1613 1.348 . S
C1610 H1658 0.929 . S
C1611 C1612 1.358 . S
C1611 C1613 1.356 . S
C1611 H1659 0.930 . S
C1612 N1609 1.279 . S
C1612 C1611 1.358 . S
C1612 H1615 0.930 . S
C1613 C1610 1.348 . S
C1613 C1611 1.356 . S
H1614 C1608 0.930 . S
H1615 C1612 0.930 . S
C1616 C1618 1.348 . S
C1616 C1619 1.356 . S
C1616 O1646 1.325 . S
N1617 C1620 1.314 . S
N1617 C1621 1.279 . S
C1618 C1616 1.348 . S
C1618 C1620 1.353 . S
C1618 H1660 0.929 . S
C1619 C1616 1.356 . S
C1619 C1621 1.358 . S
C1619 H1661 0.930 . S
C1620 N1617 1.314 . S
C1620 C1618 1.353 . S
C1620 H1662 0.930 . S
C1621 N1617 1.279 . S
C1621 C1619 1.358 . S
C1621 H1663 0.930 . S
C1622 C1623 1.348 1_545 S
C1622 C1624 1.356 . S
C1622 O1647 1.325 . S
C1623 C1622 1.348 1_565 S
C1623 C1625 1.353 . S
C1623 H1664 0.929 . S
C1624 C1622 1.356 . S
C1624 C1626 1.358 1_545 S
C1624 H1665 0.930 . S
C1625 C1623 1.353 . S
C1625 N1627 1.314 . S
C1625 H1666 0.930 . S
C1626 C1624 1.358 1_565 S
C1626 N1627 1.279 . S
C1626 H1667 0.930 . S
N1627 C1625 1.314 . S
N1627 C1626 1.279 . S
C1628 C1630 1.353 1_545 S
C1628 N1631 1.314 . S
C1628 H1634 0.930 . S
C1629 N1631 1.279 . S
C1629 C1632 1.358 1_545 S
C1629 H1635 0.930 . S
C1630 C1628 1.353 1_565 S
C1630 C1633 1.348 . S
C1630 H1668 0.929 . S
N1631 Li1586 1.990 . S
N1631 C1628 1.314 . S
N1631 C1629 1.279 . S
C1632 C1629 1.358 1_565 S
C1632 C1633 1.356 . S
C1632 H1669 0.930 . S
C1633 C1630 1.348 . S
C1633 C1632 1.356 . S
H1634 C1628 0.930 . S
H1635 C1629 0.930 . S
C1636 N1637 1.314 . S
C1636 C1638 1.353 . S
C1636 H1642 0.930 . S
N1637 Li1587 1.990 . S
N1637 C1636 1.314 . S
N1637 C1640 1.279 . S
C1638 C1636 1.353 . S
C1638 C1641 1.348 . S
C1638 H1670 0.929 . S
C1639 C1640 1.358 . S
C1639 C1641 1.356 . S
C1639 H1671 0.930 . S
C1640 N1637 1.279 . S
C1640 C1639 1.358 . S
C1640 H1643 0.930 . S
C1641 C1638 1.348 . S
C1641 C1639 1.356 . S
H1642 C1636 0.930 . S
H1643 C1640 0.930 . S
O1644 Li1584 1.956 . S
O1644 Li1585 1.970 . S
O1644 Li1586 1.961 . S
O1644 C1588 1.325 . S
O1645 Li1584 1.970 . S
O1645 Li1585 1.956 . S
O1645 Li1587 1.961 . S
O1645 C1594 1.325 . S
O1646 Li1584 1.961 . S
O1646 Li1586 1.956 . S
O1646 Li1587 1.970 . S
O1646 C1616 1.325 . S
O1647 Li1585 1.961 . S
O1647 Li1586 1.970 . S
O1647 Li1587 1.956 . S
O1647 C1622 1.325 . S
H1648 C1590 0.929 . S
H1649 C1591 0.930 . S
H1650 C1592 0.930 . S
H1651 C1593 0.930 . S
H1652 C1595 0.930 . S
H1653 C1597 0.929 . S
H1654 C1598 0.930 . S
H1655 C1599 0.930 . S
H1656 C1602 0.930 . S
H1657 C1605 0.929 . S
H1658 C1610 0.929 . S
H1659 C1611 0.930 . S
H1660 C1618 0.929 . S
H1661 C1619 0.930 . S
H1662 C1620 0.930 . S
H1663 C1621 0.930 . S
H1664 C1623 0.929 . S
H1665 C1624 0.930 . S
H1666 C1625 0.930 . S
H1667 C1626 0.930 . S
H1668 C1630 0.929 . S
H1669 C1632 0.930 . S
H1670 C1638 0.929 . S
H1671 C1639 0.930 . S
Li1672 N1689 1.990 . S
Li1672 O1732 1.956 . S
Li1672 O1733 1.970 . S
Li1672 O1734 1.961 . S
Li1673 N1697 1.990 . S
Li1673 O1732 1.970 . S
Li1673 O1733 1.956 . S
Li1673 O1735 1.961 . S
Li1674 N1719 1.990 . S
Li1674 O1732 1.961 . S
Li1674 O1734 1.956 . S
Li1674 O1735 1.970 . S
Li1675 N1725 1.990 . S
Li1675 O1733 1.961 . S
Li1675 O1734 1.970 . S
Li1675 O1735 1.956 . S
C1676 C1678 1.348 . S
C1676 C1679 1.356 . S
C1676 O1732 1.325 . S
N1677 C1680 1.314 . S
N1677 C1681 1.279 . S
C1678 C1676 1.348 . S
C1678 C1680 1.353 . S
C1678 H1736 0.929 . S
C1679 C1676 1.356 . S
C1679 C1681 1.358 . S
C1679 H1737 0.930 . S
C1680 N1677 1.314 . S
C1680 C1678 1.353 . S
C1680 H1738 0.930 . S
C1681 N1677 1.279 . S
C1681 C1679 1.358 . S
C1681 H1739 0.930 . S
C1682 C1685 1.348 . S
C1682 C1686 1.356 . S
C1682 O1733 1.325 . S
C1683 N1684 1.279 . S
C1683 C1686 1.358 . S
C1683 H1740 0.930 . S
N1684 C1683 1.279 . S
N1684 C1687 1.314 . S
C1685 C1682 1.348 . S
C1685 C1687 1.353 . S
C1685 H1741 0.929 . S
C1686 C1682 1.356 . S
C1686 C1683 1.358 . S
C1686 H1742 0.930 . S
C1687 N1684 1.314 . S
C1687 C1685 1.353 . S
C1687 H1743 0.930 . S
C1688 N1689 1.314 . S
C1688 C1693 1.353 . S
C1688 H1694 0.930 . S
N1689 Li1672 1.990 . S
N1689 C1688 1.314 . S
N1689 C1691 1.279 . S
C1690 C1691 1.358 . S
C1690 C1692 1.356 . S
C1690 H1744 0.930 . S
C1691 N1689 1.279 . S
C1691 C1690 1.358 . S
C1691 H1695 0.930 . S
C1692 C1690 1.356 . S
C1692 C1693 1.348 . S
C1693 C1688 1.353 . S
C1693 C1692 1.348 . S
C1693 H1745 0.929 . S
H1694 C1688 0.930 . S
H1695 C1691 0.930 . S
C1696 N1697 1.314 . S
C1696 C1698 1.353 . S
C1696 H1702 0.930 . S
N1697 Li1673 1.990 . S
N1697 C1696 1.314 . S
N1697 C1700 1.279 . S
C1698 C1696 1.353 . S
C1698 C1701 1.348 . S
C1698 H1746 0.929 . S
C1699 C1700 1.358 . S
C1699 C1701 1.356 . S
C1699 H1747 0.930 . S
C1700 N1697 1.279 . S
C1700 C1699 1.358 . S
C1700 H1703 0.930 . S
C1701 C1698 1.348 . S
C1701 C1699 1.356 . S
H1702 C1696 0.930 . S
H1703 C1700 0.930 . S
C1704 C1706 1.348 . S
C1704 C1707 1.356 . S
C1704 O1734 1.325 . S
N1705 C1708 1.315 1_545 S
N1705 C1709 1.276 . S
C1706 C1704 1.348 . S
C1706 C1708 1.353 1_545 S
C1706 H1748 0.929 . S
C1707 C1704 1.356 . S
C1707 C1709 1.358 . S
C1707 H1749 0.930 . S
C1708 N1705 1.315 1_565 S
C1708 C1706 1.353 1_565 S
C1708 H1750 0.930 . S
C1709 N1705 1.276 . S
C1709 C1707 1.358 . S
C1709 H1751 0.930 . S
C1710 C1711 1.348 . S
C1710 C1712 1.356 . S
C1710 O1735 1.325 . S
C1711 C1710 1.348 . S
C1711 C1713 1.353 . S
C1711 H1752 0.929 . S
C1712 C1710 1.356 . S
C1712 C1714 1.358 . S
C1712 H1753 0.930 . S
C1713 C1711 1.353 . S
C1713 N1715 1.314 . S
C1713 H1754 0.930 . S
C1714 C1712 1.358 . S
C1714 N1715 1.279 . S
C1714 H1755 0.930 . S
N1715 C1713 1.314 . S
N1715 C1714 1.279 . S
C1716 C1718 1.353 . S
C1716 N1719 1.314 . S
C1716 H1722 0.930 . S
C1717 N1719 1.279 . S
C1717 C1720 1.358 . S
C1717 H1723 0.930 . S
C1718 C1716 1.353 . S
C1718 C1721 1.348 . S
C1718 H1756 0.929 . S
N1719 Li1674 1.990 . S
N1719 C1716 1.314 . S
N1719 C1717 1.279 . S
C1720 C1717 1.358 . S
C1720 C1721 1.356 . S
C1720 H1757 0.930 . S
C1721 C1718 1.348 . S
C1721 C1720 1.356 . S
H1722 C1716 0.930 . S
H1723 C1717 0.930 . S
C1724 N1725 1.314 . S
C1724 C1726 1.353 1_545 S
C1724 H1730 0.930 . S
N1725 Li1675 1.990 . S
N1725 C1724 1.314 . S
N1725 C1728 1.279 . S
C1726 C1724 1.353 1_565 S
C1726 C1729 1.348 . S
C1726 H1758 0.929 . S
C1727 C1728 1.358 1_565 S
C1727 C1729 1.356 . S
C1727 H1759 0.930 . S
C1728 N1725 1.279 . S
C1728 C1727 1.358 1_545 S
C1728 H1731 0.930 . S
C1729 C1726 1.348 . S
C1729 C1727 1.356 . S
H1730 C1724 0.930 . S
H1731 C1728 0.930 . S
O1732 Li1672 1.956 . S
O1732 Li1673 1.970 . S
O1732 Li1674 1.961 . S
O1732 C1676 1.325 . S
O1733 Li1672 1.970 . S
O1733 Li1673 1.956 . S
O1733 Li1675 1.961 . S
O1733 C1682 1.325 . S
O1734 Li1672 1.961 . S
O1734 Li1674 1.956 . S
O1734 Li1675 1.970 . S
O1734 C1704 1.325 . S
O1735 Li1673 1.961 . S
O1735 Li1674 1.970 . S
O1735 Li1675 1.956 . S
O1735 C1710 1.325 . S
H1736 C1678 0.929 . S
H1737 C1679 0.930 . S
H1738 C1680 0.930 . S
H1739 C1681 0.930 . S
H1740 C1683 0.930 . S
H1741 C1685 0.929 . S
H1742 C1686 0.930 . S
H1743 C1687 0.930 . S
H1744 C1690 0.930 . S
H1745 C1693 0.929 . S
H1746 C1698 0.929 . S
H1747 C1699 0.930 . S
H1748 C1706 0.929 . S
H1749 C1707 0.930 . S
H1750 C1708 0.930 . S
H1751 C1709 0.930 . S
H1752 C1711 0.929 . S
H1753 C1712 0.930 . S
H1754 C1713 0.930 . S
H1755 C1714 0.930 . S
H1756 C1718 0.929 . S
H1757 C1720 0.930 . S
H1758 C1726 0.929 . S
H1759 C1727 0.930 . S
Li1760 N1777 1.990 . S
Li1760 O1820 1.956 . S
Li1760 O1821 1.970 . S
Li1760 O1822 1.961 . S
Li1761 N1785 1.990 . S
Li1761 O1820 1.970 . S
Li1761 O1821 1.956 . S
Li1761 O1823 1.961 . S
Li1762 N1807 1.990 . S
Li1762 O1820 1.961 . S
Li1762 O1822 1.956 . S
Li1762 O1823 1.970 . S
Li1763 N1813 1.990 . S
Li1763 O1821 1.961 . S
Li1763 O1822 1.970 . S
Li1763 O1823 1.956 . S
C1764 C1766 1.348 . S
C1764 C1767 1.356 . S
C1764 O1820 1.325 . S
N1765 C1768 1.314 . S
N1765 C1769 1.279 . S
C1766 C1764 1.348 . S
C1766 C1768 1.353 . S
C1766 H1824 0.929 . S
C1767 C1764 1.356 . S
C1767 C1769 1.358 . S
C1767 H1825 0.930 . S
C1768 N1765 1.314 . S
C1768 C1766 1.353 . S
C1768 H1826 0.930 . S
C1769 N1765 1.279 . S
C1769 C1767 1.358 . S
C1769 H1827 0.930 . S
C1770 C1773 1.348 . S
C1770 C1774 1.356 . S
C1770 O1821 1.325 . S
C1771 N1772 1.305 . S
C1771 C1774 1.358 . S
C1771 H1828 0.930 . S
N1772 C1771 1.305 . S
N1772 C1775 1.313 1_565 S
C1773 C1770 1.348 . S
C1773 C1775 1.353 1_565 S
C1773 H1829 0.929 . S
C1774 C1770 1.356 . S
C1774 C1771 1.358 . S
C1774 H1830 0.930 . S
C1775 N1772 1.313 1_545 S
C1775 C1773 1.353 1_545 S
C1775 H1831 0.930 . S
C1776 N1777 1.314 . S
C1776 C1781 1.353 1_565 S
C1776 H1782 0.930 . S
N1777 Li1760 1.990 . S
N1777 C1776 1.314 . S
N1777 C1779 1.279 . S
C1778 C1779 1.358 1_545 S
C1778 C1780 1.356 . S
C1778 H1832 0.930 . S
C1779 N1777 1.279 . S
C1779 C1778 1.358 1_565 S
C1779 H1783 0.930 . S
C1780 C1778 1.356 . S
C1780 C1781 1.348 . S
C1781 C1776 1.353 1_545 S
C1781 C1780 1.348 . S
C1781 H1833 0.929 . S
H1782 C1776 0.930 . S
H1783 C1779 0.930 . S
C1784 N1785 1.314 . S
C1784 C1786 1.353 . S
C1784 H1790 0.930 . S
N1785 Li1761 1.990 . S
N1785 C1784 1.314 . S
N1785 C1788 1.279 . S
C1786 C1784 1.353 . S
C1786 C1789 1.348 . S
C1786 H1834 0.929 . S
C1787 C1788 1.358 . S
C1787 C1789 1.356 . S
C1787 H1835 0.930 . S
C1788 N1785 1.279 . S
C1788 C1787 1.358 . S
C1788 H1791 0.930 . S
C1789 C1786 1.348 . S
C1789 C1787 1.356 . S
H1790 C1784 0.930 . S
H1791 C1788 0.930 . S
C1792 C1794 1.348 . S
C1792 C1795 1.356 . S
C1792 O1822 1.325 . S
N1793 C1796 1.314 . S
N1793 C1797 1.279 . S
C1794 C1792 1.348 . S
C1794 C1796 1.353 . S
C1794 H1836 0.929 . S
C1795 C1792 1.356 . S
C1795 C1797 1.358 . S
C1795 H1837 0.930 . S
C1796 N1793 1.314 . S
C1796 C1794 1.353 . S
C1796 H1838 0.930 . S
C1797 N1793 1.279 . S
C1797 C1795 1.358 . S
C1797 H1839 0.930 . S
C1798 C1799 1.348 . S
C1798 C1800 1.356 . S
C1798 O1823 1.325 . S
C1799 C1798 1.348 . S
C1799 C1801 1.353 . S
C1799 H1840 0.929 . S
C1800 C1798 1.356 . S
C1800 C1802 1.358 . S
C1800 H1841 0.930 . S
C1801 C1799 1.353 . S
C1801 N1803 1.314 . S
C1801 H1842 0.930 . S
C1802 C1800 1.358 . S
C1802 N1803 1.279 . S
C1802 H1843 0.930 . S
N1803 C1801 1.314 . S
N1803 C1802 1.279 . S
C1804 C1806 1.353 . S
C1804 N1807 1.314 . S
C1804 H1810 0.930 . S
C1805 N1807 1.279 . S
C1805 C1808 1.358 . S
C1805 H1811 0.930 . S
C1806 C1804 1.353 . S
C1806 C1809 1.348 . S
C1806 H1844 0.929 . S
N1807 Li1762 1.990 . S
N1807 C1804 1.314 . S
N1807 C1805 1.279 . S
C1808 C1805 1.358 . S
C1808 C1809 1.356 . S
C1808 H1845 0.930 . S
C1809 C1806 1.348 . S
C1809 C1808 1.356 . S
H1810 C1804 0.930 . S
H1811 C1805 0.930 . S
C1812 N1813 1.314 . S
C1812 C1814 1.353 . S
C1812 H1818 0.930 . S
N1813 Li1763 1.990 . S
N1813 C1812 1.314 . S
N1813 C1816 1.279 . S
C1814 C1812 1.353 . S
C1814 C1817 1.348 . S
C1814 H1846 0.929 . S
C1815 C1816 1.358 . S
C1815 C1817 1.356 . S
C1815 H1847 0.930 . S
C1816 N1813 1.279 . S
C1816 C1815 1.358 . S
C1816 H1819 0.930 . S
C1817 C1814 1.348 . S
C1817 C1815 1.356 . S
H1818 C1812 0.930 . S
H1819 C1816 0.930 . S
O1820 Li1760 1.956 . S
O1820 Li1761 1.970 . S
O1820 Li1762 1.961 . S
O1820 C1764 1.325 . S
O1821 Li1760 1.970 . S
O1821 Li1761 1.956 . S
O1821 Li1763 1.961 . S
O1821 C1770 1.325 . S
O1822 Li1760 1.961 . S
O1822 Li1762 1.956 . S
O1822 Li1763 1.970 . S
O1822 C1792 1.325 . S
O1823 Li1761 1.961 . S
O1823 Li1762 1.970 . S
O1823 Li1763 1.956 . S
O1823 C1798 1.325 . S
H1824 C1766 0.929 . S
H1825 C1767 0.930 . S
H1826 C1768 0.930 . S
H1827 C1769 0.930 . S
H1828 C1771 0.930 . S
H1829 C1773 0.929 . S
H1830 C1774 0.930 . S
H1831 C1775 0.930 . S
H1832 C1778 0.930 . S
H1833 C1781 0.929 . S
H1834 C1786 0.929 . S
H1835 C1787 0.930 . S
H1836 C1794 0.929 . S
H1837 C1795 0.930 . S
H1838 C1796 0.930 . S
H1839 C1797 0.930 . S
H1840 C1799 0.929 . S
H1841 C1800 0.930 . S
H1842 C1801 0.930 . S
H1843 C1802 0.930 . S
H1844 C1806 0.929 . S
H1845 C1808 0.930 . S
H1846 C1814 0.929 . S
H1847 C1815 0.930 . S
Li1848 N1865 1.990 . S
Li1848 O1908 1.956 . S
Li1848 O1909 1.970 . S
Li1848 O1910 1.961 . S
Li1849 N1873 1.990 . S
Li1849 O1908 1.970 . S
Li1849 O1909 1.956 . S
Li1849 O1911 1.961 . S
Li1850 N1895 1.990 . S
Li1850 O1908 1.961 . S
Li1850 O1910 1.956 . S
Li1850 O1911 1.970 . S
Li1851 N1901 1.990 . S
Li1851 O1909 1.961 . S
Li1851 O1910 1.970 . S
Li1851 O1911 1.956 . S
C1852 C1854 1.348 1_565 S
C1852 C1855 1.356 . S
C1852 O1908 1.325 . S
N1853 C1856 1.314 . S
N1853 C1857 1.279 . S
C1854 C1852 1.348 1_545 S
C1854 C1856 1.353 . S
C1854 H1912 0.929 . S
C1855 C1852 1.356 . S
C1855 C1857 1.358 1_565 S
C1855 H1913 0.930 . S
C1856 N1853 1.314 . S
C1856 C1854 1.353 . S
C1856 H1914 0.930 . S
C1857 N1853 1.279 . S
C1857 C1855 1.358 1_545 S
C1857 H1915 0.930 . S
C1858 C1861 1.348 . S
C1858 C1862 1.356 . S
C1858 O1909 1.325 . S
C1859 N1860 1.279 . S
C1859 C1862 1.358 . S
C1859 H1916 0.930 . S
N1860 C1859 1.279 . S
N1860 C1863 1.314 . S
C1861 C1858 1.348 . S
C1861 C1863 1.353 . S
C1861 H1917 0.929 . S
C1862 C1858 1.356 . S
C1862 C1859 1.358 . S
C1862 H1918 0.930 . S
C1863 N1860 1.314 . S
C1863 C1861 1.353 . S
C1863 H1919 0.930 . S
C1864 N1865 1.314 . S
C1864 C1869 1.353 . S
C1864 H1870 0.930 . S
N1865 Li1848 1.990 . S
N1865 C1864 1.314 . S
N1865 C1867 1.279 . S
C1866 C1867 1.358 . S
C1866 C1868 1.356 . S
C1866 H1920 0.930 . S
C1867 N1865 1.279 . S
C1867 C1866 1.358 . S
C1867 H1871 0.930 . S
C1868 C1866 1.356 . S
C1868 C1869 1.348 . S
C1869 C1864 1.353 . S
C1869 C1868 1.348 . S
C1869 H1921 0.929 . S
H1870 C1864 0.930 . S
H1871 C1867 0.930 . S
C1872 N1873 1.314 . S
C1872 C1874 1.353 1_565 S
C1872 H1878 0.930 . S
N1873 Li1849 1.990 . S
N1873 C1872 1.314 . S
N1873 C1876 1.279 . S
C1874 C1872 1.353 1_545 S
C1874 C1877 1.348 . S
C1874 H1922 0.929 . S
C1875 C1876 1.358 1_545 S
C1875 C1877 1.356 . S
C1875 H1923 0.930 . S
C1876 N1873 1.279 . S
C1876 C1875 1.358 1_565 S
C1876 H1879 0.930 . S
C1877 C1874 1.348 . S
C1877 C1875 1.356 . S
H1878 C1872 0.930 . S
H1879 C1876 0.930 . S
C1880 C1882 1.348 . S
C1880 C1883 1.356 . S
C1880 O1910 1.325 . S
N1881 C1884 1.314 . S
N1881 C1885 1.279 . S
C1882 C1880 1.348 . S
C1882 C1884 1.353 . S
C1882 H1924 0.929 . S
C1883 C1880 1.356 . S
C1883 C1885 1.358 . S
C1883 H1925 0.930 . S
C1884 N1881 1.314 . S
C1884 C1882 1.353 . S
C1884 H1926 0.930 . S
C1885 N1881 1.279 . S
C1885 C1883 1.358 . S
C1885 H1927 0.930 . S
C1886 C1887 1.348 . S
C1886 C1888 1.356 . S
C1886 O1911 1.325 . S
C1887 C1886 1.348 . S
C1887 C1889 1.353 . S
C1887 H1928 0.929 . S
C1888 C1886 1.356 . S
C1888 C1890 1.358 . S
C1888 H1929 0.930 . S
C1889 C1887 1.353 . S
C1889 N1891 1.314 . S
C1889 H1930 0.930 . S
C1890 C1888 1.358 . S
C1890 N1891 1.279 . S
C1890 H1931 0.930 . S
N1891 C1889 1.314 . S
N1891 C1890 1.279 . S
C1892 C1894 1.353 . S
C1892 N1895 1.314 . S
C1892 H1898 0.930 . S
C1893 N1895 1.279 . S
C1893 C1896 1.358 . S
C1893 H1899 0.930 . S
C1894 C1892 1.353 . S
C1894 C1897 1.348 . S
C1894 H1932 0.929 . S
N1895 Li1850 1.990 . S
N1895 C1892 1.314 . S
N1895 C1893 1.279 . S
C1896 C1893 1.358 . S
C1896 C1897 1.356 . S
C1896 H1933 0.930 . S
C1897 C1894 1.348 . S
C1897 C1896 1.356 . S
H1898 C1892 0.930 . S
H1899 C1893 0.930 . S
C1900 N1901 1.314 . S
C1900 C1902 1.353 . S
C1900 H1906 0.930 . S
N1901 Li1851 1.990 . S
N1901 C1900 1.314 . S
N1901 C1904 1.279 . S
C1902 C1900 1.353 . S
C1902 C1905 1.348 . S
C1902 H1934 0.929 . S
C1903 C1904 1.358 . S
C1903 C1905 1.356 . S
C1903 H1935 0.930 . S
C1904 N1901 1.279 . S
C1904 C1903 1.358 . S
C1904 H1907 0.930 . S
C1905 C1902 1.348 . S
C1905 C1903 1.356 . S
H1906 C1900 0.930 . S
H1907 C1904 0.930 . S
O1908 Li1848 1.956 . S
O1908 Li1849 1.970 . S
O1908 Li1850 1.961 . S
O1908 C1852 1.325 . S
O1909 Li1848 1.970 . S
O1909 Li1849 1.956 . S
O1909 Li1851 1.961 . S
O1909 C1858 1.325 . S
O1910 Li1848 1.961 . S
O1910 Li1850 1.956 . S
O1910 Li1851 1.970 . S
O1910 C1880 1.325 . S
O1911 Li1849 1.961 . S
O1911 Li1850 1.970 . S
O1911 Li1851 1.956 . S
O1911 C1886 1.325 . S
H1912 C1854 0.929 . S
H1913 C1855 0.930 . S
H1914 C1856 0.930 . S
H1915 C1857 0.930 . S
H1916 C1859 0.930 . S
H1917 C1861 0.929 . S
H1918 C1862 0.930 . S
H1919 C1863 0.930 . S
H1920 C1866 0.930 . S
H1921 C1869 0.929 . S
H1922 C1874 0.929 . S
H1923 C1875 0.930 . S
H1924 C1882 0.929 . S
H1925 C1883 0.930 . S
H1926 C1884 0.930 . S
H1927 C1885 0.930 . S
H1928 C1887 0.929 . S
H1929 C1888 0.930 . S
H1930 C1889 0.930 . S
H1931 C1890 0.930 . S
H1932 C1894 0.929 . S
H1933 C1896 0.930 . S
H1934 C1902 0.929 . S
H1935 C1903 0.930 . S
Li1936 N1953 1.990 . S
Li1936 O1996 1.956 . S
Li1936 O1997 1.970 . S
Li1936 O1998 1.961 . S
Li1937 N1961 1.990 . S
Li1937 O1996 1.970 . S
Li1937 O1997 1.956 . S
Li1937 O1999 1.961 . S
Li1938 N1983 1.990 . S
Li1938 O1996 1.961 . S
Li1938 O1998 1.956 . S
Li1938 O1999 1.970 . S
Li1939 N1989 1.990 . S
Li1939 O1997 1.961 . S
Li1939 O1998 1.970 . S
Li1939 O1999 1.956 . S
C1940 C1942 1.348 1_565 S
C1940 C1943 1.356 . S
C1940 O1996 1.325 . S
N1941 C1944 1.314 . S
N1941 C1945 1.279 . S
C1942 C1940 1.348 1_545 S
C1942 C1944 1.353 . S
C1942 H2000 0.929 . S
C1943 C1940 1.356 . S
C1943 C1945 1.358 1_565 S
C1943 H2001 0.930 . S
C1944 N1941 1.314 . S
C1944 C1942 1.353 . S
C1944 H2002 0.930 . S
C1945 N1941 1.279 . S
C1945 C1943 1.358 1_545 S
C1945 H2003 0.930 . S
C1946 C1949 1.348 . S
C1946 C1950 1.356 . S
C1946 O1997 1.325 . S
C1947 N1948 1.279 . S
C1947 C1950 1.358 . S
C1947 H2004 0.930 . S
N1948 C1947 1.279 . S
N1948 C1951 1.314 . S
C1949 C1946 1.348 . S
C1949 C1951 1.353 . S
C1949 H2005 0.929 . S
C1950 C1946 1.356 . S
C1950 C1947 1.358 . S
C1950 H2006 0.930 . S
C1951 N1948 1.314 . S
C1951 C1949 1.353 . S
C1951 H2007 0.930 . S
C1952 N1953 1.314 . S
C1952 C1957 1.353 . S
C1952 H1958 0.930 . S
N1953 Li1936 1.990 . S
N1953 C1952 1.314 . S
N1953 C1955 1.279 . S
C1954 C1955 1.358 . S
C1954 C1956 1.356 . S
C1954 H2008 0.930 . S
C1955 N1953 1.279 . S
C1955 C1954 1.358 . S
C1955 H1959 0.930 . S
C1956 C1954 1.356 . S
C1956 C1957 1.348 . S
C1957 C1952 1.353 . S
C1957 C1956 1.348 . S
C1957 H2009 0.929 . S
H1958 C1952 0.930 . S
H1959 C1955 0.930 . S
C1960 N1961 1.314 . S
C1960 C1962 1.353 1_565 S
C1960 H1966 0.930 . S
N1961 Li1937 1.990 . S
N1961 C1960 1.314 . S
N1961 C1964 1.279 . S
C1962 C1960 1.353 1_545 S
C1962 C1965 1.348 . S
C1962 H2010 0.929 . S
C1963 C1964 1.358 1_545 S
C1963 C1965 1.356 . S
C1963 H2011 0.930 . S
C1964 N1961 1.279 . S
C1964 C1963 1.358 1_565 S
C1964 H1967 0.930 . S
C1965 C1962 1.348 . S
C1965 C1963 1.356 . S
H1966 C1960 0.930 . S
H1967 C1964 0.930 . S
C1968 C1970 1.348 . S
C1968 C1971 1.356 . S
C1968 O1998 1.325 . S
N1969 C1972 1.314 . S
N1969 C1973 1.279 . S
C1970 C1968 1.348 . S
C1970 C1972 1.353 . S
C1970 H2012 0.929 . S
C1971 C1968 1.356 . S
C1971 C1973 1.358 . S
C1971 H2013 0.930 . S
C1972 N1969 1.314 . S
C1972 C1970 1.353 . S
C1972 H2014 0.930 . S
C1973 N1969 1.279 . S
C1973 C1971 1.358 . S
C1973 H2015 0.930 . S
C1974 C1975 1.348 . S
C1974 C1976 1.356 . S
C1974 O1999 1.325 . S
C1975 C1974 1.348 . S
C1975 C1977 1.353 . S
C1975 H2016 0.929 . S
C1976 C1974 1.356 . S
C1976 C1978 1.358 . S
C1976 H2017 0.930 . S
C1977 C1975 1.353 . S
C1977 N1979 1.314 . S
C1977 H2018 0.930 . S
C1978 C1976 1.358 . S
C1978 N1979 1.279 . S
C1978 H2019 0.930 . S
N1979 C1977 1.314 . S
N1979 C1978 1.279 . S
C1980 C1982 1.353 . S
C1980 N1983 1.314 . S
C1980 H1986 0.930 . S
C1981 N1983 1.279 . S
C1981 C1984 1.358 . S
C1981 H1987 0.930 . S
C1982 C1980 1.353 . S
C1982 C1985 1.348 . S
C1982 H2020 0.929 . S
N1983 Li1938 1.990 . S
N1983 C1980 1.314 . S
N1983 C1981 1.279 . S
C1984 C1981 1.358 . S
C1984 C1985 1.356 . S
C1984 H2021 0.930 . S
C1985 C1982 1.348 . S
C1985 C1984 1.356 . S
H1986 C1980 0.930 . S
H1987 C1981 0.930 . S
C1988 N1989 1.314 . S
C1988 C1990 1.353 . S
C1988 H1994 0.930 . S
N1989 Li1939 1.990 . S
N1989 C1988 1.314 . S
N1989 C1992 1.279 . S
C1990 C1988 1.353 . S
C1990 C1993 1.348 . S
C1990 H2022 0.929 . S
C1991 C1992 1.358 . S
C1991 C1993 1.356 . S
C1991 H2023 0.930 . S
C1992 N1989 1.279 . S
C1992 C1991 1.358 . S
C1992 H1995 0.930 . S
C1993 C1990 1.348 . S
C1993 C1991 1.356 . S
H1994 C1988 0.930 . S
H1995 C1992 0.930 . S
O1996 Li1936 1.956 . S
O1996 Li1937 1.970 . S
O1996 Li1938 1.961 . S
O1996 C1940 1.325 . S
O1997 Li1936 1.970 . S
O1997 Li1937 1.956 . S
O1997 Li1939 1.961 . S
O1997 C1946 1.325 . S
O1998 Li1936 1.961 . S
O1998 Li1938 1.956 . S
O1998 Li1939 1.970 . S
O1998 C1968 1.325 . S
O1999 Li1937 1.961 . S
O1999 Li1938 1.970 . S
O1999 Li1939 1.956 . S
O1999 C1974 1.325 . S
H2000 C1942 0.929 . S
H2001 C1943 0.930 . S
H2002 C1944 0.930 . S
H2003 C1945 0.930 . S
H2004 C1947 0.930 . S
H2005 C1949 0.929 . S
H2006 C1950 0.930 . S
H2007 C1951 0.930 . S
H2008 C1954 0.930 . S
H2009 C1957 0.929 . S
H2010 C1962 0.929 . S
H2011 C1963 0.930 . S
H2012 C1970 0.929 . S
H2013 C1971 0.930 . S
H2014 C1972 0.930 . S
H2015 C1973 0.930 . S
H2016 C1975 0.929 . S
H2017 C1976 0.930 . S
H2018 C1977 0.930 . S
H2019 C1978 0.930 . S
H2020 C1982 0.929 . S
H2021 C1984 0.930 . S
H2022 C1990 0.929 . S
H2023 C1991 0.930 . S
Li2024 N2041 1.990 . S
Li2024 O2084 1.956 . S
Li2024 O2085 1.970 . S
Li2024 O2086 1.961 . S
Li2025 N2049 1.990 . S
Li2025 O2084 1.970 . S
Li2025 O2085 1.956 . S
Li2025 O2087 1.961 . S
Li2026 N2071 1.990 . S
Li2026 O2084 1.961 . S
Li2026 O2086 1.956 . S
Li2026 O2087 1.970 . S
Li2027 N2077 1.990 . S
Li2027 O2085 1.961 . S
Li2027 O2086 1.970 . S
Li2027 O2087 1.956 . S
C2028 C2030 1.348 . S
C2028 C2031 1.356 . S
C2028 O2084 1.325 . S
N2029 C2032 1.313 1_565 S
N2029 C2033 1.305 . S
C2030 C2028 1.348 . S
C2030 C2032 1.353 1_565 S
C2030 H2088 0.929 . S
C2031 C2028 1.356 . S
C2031 C2033 1.358 . S
C2031 H2089 0.930 . S
C2032 N2029 1.313 1_545 S
C2032 C2030 1.353 1_545 S
C2032 H2090 0.930 . S
C2033 N2029 1.305 . S
C2033 C2031 1.358 . S
C2033 H2091 0.930 . S
C2034 C2037 1.348 . S
C2034 C2038 1.356 . S
C2034 O2085 1.325 . S
C2035 N2036 1.279 . S
C2035 C2038 1.358 . S
C2035 H2092 0.930 . S
N2036 C2035 1.279 . S
N2036 C2039 1.314 . S
C2037 C2034 1.348 . S
C2037 C2039 1.353 . S
C2037 H2093 0.929 . S
C2038 C2034 1.356 . S
C2038 C2035 1.358 . S
C2038 H2094 0.930 . S
C2039 N2036 1.314 . S
C2039 C2037 1.353 . S
C2039 H2095 0.930 . S
C2040 N2041 1.314 . S
C2040 C2045 1.353 . S
C2040 H2046 0.930 . S
N2041 Li2024 1.990 . S
N2041 C2040 1.314 . S
N2041 C2043 1.279 . S
C2042 C2043 1.358 . S
C2042 C2044 1.356 . S
C2042 H2096 0.930 . S
C2043 N2041 1.279 . S
C2043 C2042 1.358 . S
C2043 H2047 0.930 . S
C2044 C2042 1.356 . S
C2044 C2045 1.348 . S
C2045 C2040 1.353 . S
C2045 C2044 1.348 . S
C2045 H2097 0.929 . S
H2046 C2040 0.930 . S
H2047 C2043 0.930 . S
C2048 N2049 1.314 . S
C2048 C2050 1.353 1_565 S
C2048 H2054 0.930 . S
N2049 Li2025 1.990 . S
N2049 C2048 1.314 . S
N2049 C2052 1.279 . S
C2050 C2048 1.353 1_545 S
C2050 C2053 1.348 . S
C2050 H2098 0.929 . S
C2051 C2052 1.358 1_545 S
C2051 C2053 1.356 . S
C2051 H2099 0.930 . S
C2052 N2049 1.279 . S
C2052 C2051 1.358 1_565 S
C2052 H2055 0.930 . S
C2053 C2050 1.348 . S
C2053 C2051 1.356 . S
H2054 C2048 0.930 . S
H2055 C2052 0.930 . S
C2056 C2058 1.348 . S
C2056 C2059 1.356 . S
C2056 O2086 1.325 . S
N2057 C2060 1.314 . S
N2057 C2061 1.279 . S
C2058 C2056 1.348 . S
C2058 C2060 1.353 . S
C2058 H2100 0.929 . S
C2059 C2056 1.356 . S
C2059 C2061 1.358 . S
C2059 H2101 0.930 . S
C2060 N2057 1.314 . S
C2060 C2058 1.353 . S
C2060 H2102 0.930 . S
C2061 N2057 1.279 . S
C2061 C2059 1.358 . S
C2061 H2103 0.930 . S
C2062 C2063 1.348 . S
C2062 C2064 1.356 . S
C2062 O2087 1.325 . S
C2063 C2062 1.348 . S
C2063 C2065 1.353 . S
C2063 H2104 0.929 . S
C2064 C2062 1.356 . S
C2064 C2066 1.358 . S
C2064 H2105 0.930 . S
C2065 C2063 1.353 . S
C2065 N2067 1.314 . S
C2065 H2106 0.930 . S
C2066 C2064 1.358 . S
C2066 N2067 1.279 . S
C2066 H2107 0.930 . S
N2067 C2065 1.314 . S
N2067 C2066 1.279 . S
C2068 C2070 1.353 . S
C2068 N2071 1.314 . S
C2068 H2074 0.930 . S
C2069 N2071 1.279 . S
C2069 C2072 1.358 . S
C2069 H2075 0.930 . S
C2070 C2068 1.353 . S
C2070 C2073 1.348 . S
C2070 H2108 0.929 . S
N2071 Li2026 1.990 . S
N2071 C2068 1.314 . S
N2071 C2069 1.279 . S
C2072 C2069 1.358 . S
C2072 C2073 1.356 . S
C2072 H2109 0.930 . S
C2073 C2070 1.348 . S
C2073 C2072 1.356 . S
H2074 C2068 0.930 . S
H2075 C2069 0.930 . S
C2076 N2077 1.314 . S
C2076 C2078 1.353 . S
C2076 H2082 0.930 . S
N2077 Li2027 1.990 . S
N2077 C2076 1.314 . S
N2077 C2080 1.279 . S
C2078 C2076 1.353 . S
C2078 C2081 1.348 . S
C2078 H2110 0.929 . S
C2079 C2080 1.358 . S
C2079 C2081 1.356 . S
C2079 H2111 0.930 . S
C2080 N2077 1.279 . S
C2080 C2079 1.358 . S
C2080 H2083 0.930 . S
C2081 C2078 1.348 . S
C2081 C2079 1.356 . S
H2082 C2076 0.930 . S
H2083 C2080 0.930 . S
O2084 Li2024 1.956 . S
O2084 Li2025 1.970 . S
O2084 Li2026 1.961 . S
O2084 C2028 1.325 . S
O2085 Li2024 1.970 . S
O2085 Li2025 1.956 . S
O2085 Li2027 1.961 . S
O2085 C2034 1.325 . S
O2086 Li2024 1.961 . S
O2086 Li2026 1.956 . S
O2086 Li2027 1.970 . S
O2086 C2056 1.325 . S
O2087 Li2025 1.961 . S
O2087 Li2026 1.970 . S
O2087 Li2027 1.956 . S
O2087 C2062 1.325 . S
H2088 C2030 0.929 . S
H2089 C2031 0.930 . S
H2090 C2032 0.930 . S
H2091 C2033 0.930 . S
H2092 C2035 0.930 . S
H2093 C2037 0.929 . S
H2094 C2038 0.930 . S
H2095 C2039 0.930 . S
H2096 C2042 0.930 . S
H2097 C2045 0.929 . S
H2098 C2050 0.929 . S
H2099 C2051 0.930 . S
H2100 C2058 0.929 . S
H2101 C2059 0.930 . S
H2102 C2060 0.930 . S
H2103 C2061 0.930 . S
H2104 C2063 0.929 . S
H2105 C2064 0.930 . S
H2106 C2065 0.930 . S
H2107 C2066 0.930 . S
H2108 C2070 0.929 . S
H2109 C2072 0.930 . S
H2110 C2078 0.929 . S
H2111 C2079 0.930 . S
Li2112 N2129 1.990 . S
Li2112 O2172 1.956 . S
Li2112 O2173 1.970 . S
Li2112 O2174 1.961 . S
Li2113 N2137 1.990 . S
Li2113 O2172 1.970 . S
Li2113 O2173 1.956 . S
Li2113 O2175 1.961 . S
Li2114 N2159 1.990 . S
Li2114 O2172 1.961 . S
Li2114 O2174 1.956 . S
Li2114 O2175 1.970 . S
Li2115 N2165 1.990 . S
Li2115 O2173 1.961 . S
Li2115 O2174 1.970 . S
Li2115 O2175 1.956 . S
C2116 C2118 1.348 . S
C2116 C2119 1.356 . S
C2116 O2172 1.325 . S
N2117 C2120 1.314 . S
N2117 C2121 1.279 . S
C2118 C2116 1.348 . S
C2118 C2120 1.353 . S
C2118 H2176 0.929 . S
C2119 C2116 1.356 . S
C2119 C2121 1.358 . S
C2119 H2177 0.930 . S
C2120 N2117 1.314 . S
C2120 C2118 1.353 . S
C2120 H2178 0.930 . S
C2121 N2117 1.279 . S
C2121 C2119 1.358 . S
C2121 H2179 0.930 . S
C2122 C2125 1.348 . S
C2122 C2126 1.356 . S
C2122 O2173 1.325 . S
C2123 N2124 1.279 . S
C2123 C2126 1.358 . S
C2123 H2180 0.930 . S
N2124 C2123 1.279 . S
N2124 C2127 1.314 . S
C2125 C2122 1.348 . S
C2125 C2127 1.353 . S
C2125 H2181 0.929 . S
C2126 C2122 1.356 . S
C2126 C2123 1.358 . S
C2126 H2182 0.930 . S
C2127 N2124 1.314 . S
C2127 C2125 1.353 . S
C2127 H2183 0.930 . S
C2128 N2129 1.314 . S
C2128 C2133 1.353 . S
C2128 H2134 0.930 . S
N2129 Li2112 1.990 . S
N2129 C2128 1.314 . S
N2129 C2131 1.279 . S
C2130 C2131 1.358 . S
C2130 C2132 1.356 . S
C2130 H2184 0.930 . S
C2131 N2129 1.279 . S
C2131 C2130 1.358 . S
C2131 H2135 0.930 . S
C2132 C2130 1.356 . S
C2132 C2133 1.348 . S
C2133 C2128 1.353 . S
C2133 C2132 1.348 . S
C2133 H2185 0.929 . S
H2134 C2128 0.930 . S
H2135 C2131 0.930 . S
C2136 N2137 1.314 . S
C2136 C2138 1.353 . S
C2136 H2142 0.930 . S
N2137 Li2113 1.990 . S
N2137 C2136 1.314 . S
N2137 C2140 1.279 . S
C2138 C2136 1.353 . S
C2138 C2141 1.348 . S
C2138 H2186 0.929 . S
C2139 C2140 1.358 . S
C2139 C2141 1.356 . S
C2139 H2187 0.930 . S
C2140 N2137 1.279 . S
C2140 C2139 1.358 . S
C2140 H2143 0.930 . S
C2141 C2138 1.348 . S
C2141 C2139 1.356 . S
H2142 C2136 0.930 . S
H2143 C2140 0.930 . S
C2144 C2146 1.348 . S
C2144 C2147 1.356 . S
C2144 O2174 1.325 . S
N2145 C2148 1.314 . S
N2145 C2149 1.279 . S
C2146 C2144 1.348 . S
C2146 C2148 1.353 . S
C2146 H2188 0.929 . S
C2147 C2144 1.356 . S
C2147 C2149 1.358 . S
C2147 H2189 0.930 . S
C2148 N2145 1.314 . S
C2148 C2146 1.353 . S
C2148 H2190 0.930 . S
C2149 N2145 1.279 . S
C2149 C2147 1.358 . S
C2149 H2191 0.930 . S
C2150 C2151 1.348 . S
C2150 C2152 1.356 . S
C2150 O2175 1.325 . S
C2151 C2150 1.348 . S
C2151 C2153 1.353 . S
C2151 H2192 0.929 . S
C2152 C2150 1.356 . S
C2152 C2154 1.358 . S
C2152 H2193 0.930 . S
C2153 C2151 1.353 . S
C2153 N2155 1.314 . S
C2153 H2194 0.930 . S
C2154 C2152 1.358 . S
C2154 N2155 1.279 . S
C2154 H2195 0.930 . S
N2155 C2153 1.314 . S
N2155 C2154 1.279 . S
C2156 C2158 1.353 . S
C2156 N2159 1.314 . S
C2156 H2162 0.930 . S
C2157 N2159 1.279 . S
C2157 C2160 1.358 . S
C2157 H2163 0.930 . S
C2158 C2156 1.353 . S
C2158 C2161 1.348 . S
C2158 H2196 0.929 . S
N2159 Li2114 1.990 . S
N2159 C2156 1.314 . S
N2159 C2157 1.279 . S
C2160 C2157 1.358 . S
C2160 C2161 1.356 . S
C2160 H2197 0.930 . S
C2161 C2158 1.348 . S
C2161 C2160 1.356 . S
H2162 C2156 0.930 . S
H2163 C2157 0.930 . S
C2164 N2165 1.314 . S
C2164 C2166 1.353 . S
C2164 H2170 0.930 . S
N2165 Li2115 1.990 . S
N2165 C2164 1.314 . S
N2165 C2168 1.279 . S
C2166 C2164 1.353 . S
C2166 C2169 1.348 . S
C2166 H2198 0.929 . S
C2167 C2168 1.358 . S
C2167 C2169 1.356 . S
C2167 H2199 0.930 . S
C2168 N2165 1.279 . S
C2168 C2167 1.358 . S
C2168 H2171 0.930 . S
C2169 C2166 1.348 . S
C2169 C2167 1.356 . S
H2170 C2164 0.930 . S
H2171 C2168 0.930 . S
O2172 Li2112 1.956 . S
O2172 Li2113 1.970 . S
O2172 Li2114 1.961 . S
O2172 C2116 1.325 . S
O2173 Li2112 1.970 . S
O2173 Li2113 1.956 . S
O2173 Li2115 1.961 . S
O2173 C2122 1.325 . S
O2174 Li2112 1.961 . S
O2174 Li2114 1.956 . S
O2174 Li2115 1.970 . S
O2174 C2144 1.325 . S
O2175 Li2113 1.961 . S
O2175 Li2114 1.970 . S
O2175 Li2115 1.956 . S
O2175 C2150 1.325 . S
H2176 C2118 0.929 . S
H2177 C2119 0.930 . S
H2178 C2120 0.930 . S
H2179 C2121 0.930 . S
H2180 C2123 0.930 . S
H2181 C2125 0.929 . S
H2182 C2126 0.930 . S
H2183 C2127 0.930 . S
H2184 C2130 0.930 . S
H2185 C2133 0.929 . S
H2186 C2138 0.929 . S
H2187 C2139 0.930 . S
H2188 C2146 0.929 . S
H2189 C2147 0.930 . S
H2190 C2148 0.930 . S
H2191 C2149 0.930 . S
H2192 C2151 0.929 . S
H2193 C2152 0.930 . S
H2194 C2153 0.930 . S
H2195 C2154 0.930 . S
H2196 C2158 0.929 . S
H2197 C2160 0.930 . S
H2198 C2166 0.929 . S
H2199 C2167 0.930 . S
Li2200 N2217 1.990 . S
Li2200 O2260 1.956 . S
Li2200 O2261 1.970 . S
Li2200 O2262 1.961 . S
Li2201 N2225 1.990 . S
Li2201 O2260 1.970 . S
Li2201 O2261 1.956 . S
Li2201 O2263 1.961 . S
Li2202 N2247 1.990 . S
Li2202 O2260 1.961 . S
Li2202 O2262 1.956 . S
Li2202 O2263 1.970 . S
Li2203 N2253 1.990 . S
Li2203 O2261 1.961 . S
Li2203 O2262 1.970 . S
Li2203 O2263 1.956 . S
C2204 C2206 1.348 . S
C2204 C2207 1.356 . S
C2204 O2260 1.325 . S
N2205 C2208 1.314 . S
N2205 C2209 1.279 . S
C2206 C2204 1.348 . S
C2206 C2208 1.353 . S
C2206 H2264 0.929 . S
C2207 C2204 1.356 . S
C2207 C2209 1.358 . S
C2207 H2265 0.930 . S
C2208 N2205 1.314 . S
C2208 C2206 1.353 . S
C2208 H2266 0.930 . S
C2209 N2205 1.279 . S
C2209 C2207 1.358 . S
C2209 H2267 0.930 . S
C2210 C2213 1.348 . S
C2210 C2214 1.356 . S
C2210 O2261 1.325 . S
C2211 N2212 1.279 . S
C2211 C2214 1.358 . S
C2211 H2268 0.930 . S
N2212 C2211 1.279 . S
N2212 C2215 1.314 . S
C2213 C2210 1.348 . S
C2213 C2215 1.353 . S
C2213 H2269 0.929 . S
C2214 C2210 1.356 . S
C2214 C2211 1.358 . S
C2214 H2270 0.930 . S
C2215 N2212 1.314 . S
C2215 C2213 1.353 . S
C2215 H2271 0.930 . S
C2216 N2217 1.314 . S
C2216 C2221 1.353 . S
C2216 H2222 0.930 . S
N2217 Li2200 1.990 . S
N2217 C2216 1.314 . S
N2217 C2219 1.279 . S
C2218 C2219 1.358 . S
C2218 C2220 1.356 . S
C2218 H2272 0.930 . S
C2219 N2217 1.279 . S
C2219 C2218 1.358 . S
C2219 H2223 0.930 . S
C2220 C2218 1.356 . S
C2220 C2221 1.348 . S
C2221 C2216 1.353 . S
C2221 C2220 1.348 . S
C2221 H2273 0.929 . S
H2222 C2216 0.930 . S
H2223 C2219 0.930 . S
C2224 N2225 1.314 . S
C2224 C2226 1.353 . S
C2224 H2230 0.930 . S
N2225 Li2201 1.990 . S
N2225 C2224 1.314 . S
N2225 C2228 1.279 . S
C2226 C2224 1.353 . S
C2226 C2229 1.348 . S
C2226 H2274 0.929 . S
C2227 C2228 1.358 . S
C2227 C2229 1.356 . S
C2227 H2275 0.930 . S
C2228 N2225 1.279 . S
C2228 C2227 1.358 . S
C2228 H2231 0.930 . S
C2229 C2226 1.348 . S
C2229 C2227 1.356 . S
H2230 C2224 0.930 . S
H2231 C2228 0.930 . S
C2232 C2234 1.348 . S
C2232 C2235 1.356 . S
C2232 O2262 1.325 . S
N2233 C2236 1.314 . S
N2233 C2237 1.279 . S
C2234 C2232 1.348 . S
C2234 C2236 1.353 . S
C2234 H2276 0.929 . S
C2235 C2232 1.356 . S
C2235 C2237 1.358 . S
C2235 H2277 0.930 . S
C2236 N2233 1.314 . S
C2236 C2234 1.353 . S
C2236 H2278 0.930 . S
C2237 N2233 1.279 . S
C2237 C2235 1.358 . S
C2237 H2279 0.930 . S
C2238 C2239 1.348 . S
C2238 C2240 1.356 . S
C2238 O2263 1.325 . S
C2239 C2238 1.348 . S
C2239 C2241 1.353 . S
C2239 H2280 0.929 . S
C2240 C2238 1.356 . S
C2240 C2242 1.358 . S
C2240 H2281 0.930 . S
C2241 C2239 1.353 . S
C2241 N2243 1.314 . S
C2241 H2282 0.930 . S
C2242 C2240 1.358 . S
C2242 N2243 1.279 . S
C2242 H2283 0.930 . S
N2243 C2241 1.314 . S
N2243 C2242 1.279 . S
C2244 C2246 1.353 . S
C2244 N2247 1.314 . S
C2244 H2250 0.930 . S
C2245 N2247 1.279 . S
C2245 C2248 1.358 . S
C2245 H2251 0.930 . S
C2246 C2244 1.353 . S
C2246 C2249 1.348 . S
C2246 H2284 0.929 . S
N2247 Li2202 1.990 . S
N2247 C2244 1.314 . S
N2247 C2245 1.279 . S
C2248 C2245 1.358 . S
C2248 C2249 1.356 . S
C2248 H2285 0.930 . S
C2249 C2246 1.348 . S
C2249 C2248 1.356 . S
H2250 C2244 0.930 . S
H2251 C2245 0.930 . S
C2252 N2253 1.314 . S
C2252 C2254 1.353 . S
C2252 H2258 0.930 . S
N2253 Li2203 1.990 . S
N2253 C2252 1.314 . S
N2253 C2256 1.279 . S
C2254 C2252 1.353 . S
C2254 C2257 1.348 . S
C2254 H2286 0.929 . S
C2255 C2256 1.358 . S
C2255 C2257 1.356 . S
C2255 H2287 0.930 . S
C2256 N2253 1.279 . S
C2256 C2255 1.358 . S
C2256 H2259 0.930 . S
C2257 C2254 1.348 . S
C2257 C2255 1.356 . S
H2258 C2252 0.930 . S
H2259 C2256 0.930 . S
O2260 Li2200 1.956 . S
O2260 Li2201 1.970 . S
O2260 Li2202 1.961 . S
O2260 C2204 1.325 . S
O2261 Li2200 1.970 . S
O2261 Li2201 1.956 . S
O2261 Li2203 1.961 . S
O2261 C2210 1.325 . S
O2262 Li2200 1.961 . S
O2262 Li2202 1.956 . S
O2262 Li2203 1.970 . S
O2262 C2232 1.325 . S
O2263 Li2201 1.961 . S
O2263 Li2202 1.970 . S
O2263 Li2203 1.956 . S
O2263 C2238 1.325 . S
H2264 C2206 0.929 . S
H2265 C2207 0.930 . S
H2266 C2208 0.930 . S
H2267 C2209 0.930 . S
H2268 C2211 0.930 . S
H2269 C2213 0.929 . S
H2270 C2214 0.930 . S
H2271 C2215 0.930 . S
H2272 C2218 0.930 . S
H2273 C2221 0.929 . S
H2274 C2226 0.929 . S
H2275 C2227 0.930 . S
H2276 C2234 0.929 . S
H2277 C2235 0.930 . S
H2278 C2236 0.930 . S
H2279 C2237 0.930 . S
H2280 C2239 0.929 . S
H2281 C2240 0.930 . S
H2282 C2241 0.930 . S
H2283 C2242 0.930 . S
H2284 C2246 0.929 . S
H2285 C2248 0.930 . S
H2286 C2254 0.929 . S
H2287 C2255 0.930 . S
Li2288 N2305 1.990 . S
Li2288 O2348 1.956 . S
Li2288 O2349 1.970 . S
Li2288 O2350 1.961 . S
Li2289 N2313 1.990 . S
Li2289 O2348 1.970 . S
Li2289 O2349 1.956 . S
Li2289 O2351 1.961 . S
Li2290 N2335 1.990 . S
Li2290 O2348 1.961 . S
Li2290 O2350 1.956 . S
Li2290 O2351 1.970 . S
Li2291 N2341 1.990 . S
Li2291 O2349 1.961 . S
Li2291 O2350 1.970 . S
Li2291 O2351 1.956 . S
C2292 C2294 1.348 . S
C2292 C2295 1.356 . S
C2292 O2348 1.325 . S
N2293 C2296 1.314 . S
N2293 C2297 1.279 . S
C2294 C2292 1.348 . S
C2294 C2296 1.353 . S
C2294 H2352 0.929 . S
C2295 C2292 1.356 . S
C2295 C2297 1.358 . S
C2295 H2353 0.930 . S
C2296 N2293 1.314 . S
C2296 C2294 1.353 . S
C2296 H2354 0.930 . S
C2297 N2293 1.279 . S
C2297 C2295 1.358 . S
C2297 H2355 0.930 . S
C2298 C2301 1.348 . S
C2298 C2302 1.356 . S
C2298 O2349 1.325 . S
C2299 N2300 1.279 . S
C2299 C2302 1.358 . S
C2299 H2356 0.930 . S
N2300 C2299 1.279 . S
N2300 C2303 1.314 . S
C2301 C2298 1.348 . S
C2301 C2303 1.353 . S
C2301 H2357 0.929 . S
C2302 C2298 1.356 . S
C2302 C2299 1.358 . S
C2302 H2358 0.930 . S
C2303 N2300 1.314 . S
C2303 C2301 1.353 . S
C2303 H2359 0.930 . S
C2304 N2305 1.314 . S
C2304 C2309 1.353 . S
C2304 H2310 0.930 . S
N2305 Li2288 1.990 . S
N2305 C2304 1.314 . S
N2305 C2307 1.279 . S
C2306 C2307 1.358 . S
C2306 C2308 1.356 . S
C2306 H2360 0.930 . S
C2307 N2305 1.279 . S
C2307 C2306 1.358 . S
C2307 H2311 0.930 . S
C2308 C2306 1.356 . S
C2308 C2309 1.348 . S
C2309 C2304 1.353 . S
C2309 C2308 1.348 . S
C2309 H2361 0.929 . S
H2310 C2304 0.930 . S
H2311 C2307 0.930 . S
C2312 N2313 1.314 . S
C2312 C2314 1.353 . S
C2312 H2318 0.930 . S
N2313 Li2289 1.990 . S
N2313 C2312 1.314 . S
N2313 C2316 1.279 . S
C2314 C2312 1.353 . S
C2314 C2317 1.348 . S
C2314 H2362 0.929 . S
C2315 C2316 1.358 . S
C2315 C2317 1.356 . S
C2315 H2363 0.930 . S
C2316 N2313 1.279 . S
C2316 C2315 1.358 . S
C2316 H2319 0.930 . S
C2317 C2314 1.348 . S
C2317 C2315 1.356 . S
H2318 C2312 0.930 . S
H2319 C2316 0.930 . S
C2320 C2322 1.348 . S
C2320 C2323 1.356 . S
C2320 O2350 1.325 . S
N2321 C2324 1.314 . S
N2321 C2325 1.279 . S
C2322 C2320 1.348 . S
C2322 C2324 1.353 . S
C2322 H2364 0.929 . S
C2323 C2320 1.356 . S
C2323 C2325 1.358 . S
C2323 H2365 0.930 . S
C2324 N2321 1.314 . S
C2324 C2322 1.353 . S
C2324 H2366 0.930 . S
C2325 N2321 1.279 . S
C2325 C2323 1.358 . S
C2325 H2367 0.930 . S
C2326 C2327 1.348 . S
C2326 C2328 1.356 . S
C2326 O2351 1.325 . S
C2327 C2326 1.348 . S
C2327 C2329 1.353 . S
C2327 H2368 0.929 . S
C2328 C2326 1.356 . S
C2328 C2330 1.358 . S
C2328 H2369 0.930 . S
C2329 C2327 1.353 . S
C2329 N2331 1.314 . S
C2329 H2370 0.930 . S
C2330 C2328 1.358 . S
C2330 N2331 1.279 . S
C2330 H2371 0.930 . S
N2331 C2329 1.314 . S
N2331 C2330 1.279 . S
C2332 C2334 1.353 . S
C2332 N2335 1.314 . S
C2332 H2338 0.930 . S
C2333 N2335 1.279 . S
C2333 C2336 1.358 . S
C2333 H2339 0.930 . S
C2334 C2332 1.353 . S
C2334 C2337 1.348 . S
C2334 H2372 0.929 . S
N2335 Li2290 1.990 . S
N2335 C2332 1.314 . S
N2335 C2333 1.279 . S
C2336 C2333 1.358 . S
C2336 C2337 1.356 . S
C2336 H2373 0.930 . S
C2337 C2334 1.348 . S
C2337 C2336 1.356 . S
H2338 C2332 0.930 . S
H2339 C2333 0.930 . S
C2340 N2341 1.314 . S
C2340 C2342 1.353 . S
C2340 H2346 0.930 . S
N2341 Li2291 1.990 . S
N2341 C2340 1.314 . S
N2341 C2344 1.279 . S
C2342 C2340 1.353 . S
C2342 C2345 1.348 . S
C2342 H2374 0.929 . S
C2343 C2344 1.358 . S
C2343 C2345 1.356 . S
C2343 H2375 0.930 . S
C2344 N2341 1.279 . S
C2344 C2343 1.358 . S
C2344 H2347 0.930 . S
C2345 C2342 1.348 . S
C2345 C2343 1.356 . S
H2346 C2340 0.930 . S
H2347 C2344 0.930 . S
O2348 Li2288 1.956 . S
O2348 Li2289 1.970 . S
O2348 Li2290 1.961 . S
O2348 C2292 1.325 . S
O2349 Li2288 1.970 . S
O2349 Li2289 1.956 . S
O2349 Li2291 1.961 . S
O2349 C2298 1.325 . S
O2350 Li2288 1.961 . S
O2350 Li2290 1.956 . S
O2350 Li2291 1.970 . S
O2350 C2320 1.325 . S
O2351 Li2289 1.961 . S
O2351 Li2290 1.970 . S
O2351 Li2291 1.956 . S
O2351 C2326 1.325 . S
H2352 C2294 0.929 . S
H2353 C2295 0.930 . S
H2354 C2296 0.930 . S
H2355 C2297 0.930 . S
H2356 C2299 0.930 . S
H2357 C2301 0.929 . S
H2358 C2302 0.930 . S
H2359 C2303 0.930 . S
H2360 C2306 0.930 . S
H2361 C2309 0.929 . S
H2362 C2314 0.929 . S
H2363 C2315 0.930 . S
H2364 C2322 0.929 . S
H2365 C2323 0.930 . S
H2366 C2324 0.930 . S
H2367 C2325 0.930 . S
H2368 C2327 0.929 . S
H2369 C2328 0.930 . S
H2370 C2329 0.930 . S
H2371 C2330 0.930 . S
H2372 C2334 0.929 . S
H2373 C2336 0.930 . S
H2374 C2342 0.929 . S
H2375 C2343 0.930 . S
Li2376 N2393 1.990 . S
Li2376 O2436 1.956 . S
Li2376 O2437 1.970 . S
Li2376 O2438 1.961 . S
Li2377 N2401 1.990 . S
Li2377 O2436 1.970 . S
Li2377 O2437 1.956 . S
Li2377 O2439 1.961 . S
Li2378 N2423 1.990 . S
Li2378 O2436 1.961 . S
Li2378 O2438 1.956 . S
Li2378 O2439 1.970 . S
Li2379 N2429 1.990 . S
Li2379 O2437 1.961 . S
Li2379 O2438 1.970 . S
Li2379 O2439 1.956 . S
C2380 C2382 1.348 . S
C2380 C2383 1.356 . S
C2380 O2436 1.325 . S
N2381 C2384 1.314 . S
N2381 C2385 1.279 . S
C2382 C2380 1.348 . S
C2382 C2384 1.353 . S
C2382 H2440 0.929 . S
C2383 C2380 1.356 . S
C2383 C2385 1.358 . S
C2383 H2441 0.930 . S
C2384 N2381 1.314 . S
C2384 C2382 1.353 . S
C2384 H2442 0.930 . S
C2385 N2381 1.279 . S
C2385 C2383 1.358 . S
C2385 H2443 0.930 . S
C2386 C2389 1.348 . S
C2386 C2390 1.356 . S
C2386 O2437 1.325 . S
C2387 N2388 1.279 . S
C2387 C2390 1.358 . S
C2387 H2444 0.930 . S
N2388 C2387 1.279 . S
N2388 C2391 1.314 . S
C2389 C2386 1.348 . S
C2389 C2391 1.353 . S
C2389 H2445 0.929 . S
C2390 C2386 1.356 . S
C2390 C2387 1.358 . S
C2390 H2446 0.930 . S
C2391 N2388 1.314 . S
C2391 C2389 1.353 . S
C2391 H2447 0.930 . S
C2392 N2393 1.314 . S
C2392 C2397 1.353 . S
C2392 H2398 0.930 . S
N2393 Li2376 1.990 . S
N2393 C2392 1.314 . S
N2393 C2395 1.279 . S
C2394 C2395 1.358 . S
C2394 C2396 1.356 . S
C2394 H2448 0.930 . S
C2395 N2393 1.279 . S
C2395 C2394 1.358 . S
C2395 H2399 0.930 . S
C2396 C2394 1.356 . S
C2396 C2397 1.348 . S
C2397 C2392 1.353 . S
C2397 C2396 1.348 . S
C2397 H2449 0.929 . S
H2398 C2392 0.930 . S
H2399 C2395 0.930 . S
C2400 N2401 1.314 . S
C2400 C2402 1.353 . S
C2400 H2406 0.930 . S
N2401 Li2377 1.990 . S
N2401 C2400 1.314 . S
N2401 C2404 1.279 . S
C2402 C2400 1.353 . S
C2402 C2405 1.348 . S
C2402 H2450 0.929 . S
C2403 C2404 1.358 . S
C2403 C2405 1.356 . S
C2403 H2451 0.930 . S
C2404 N2401 1.279 . S
C2404 C2403 1.358 . S
C2404 H2407 0.930 . S
C2405 C2402 1.348 . S
C2405 C2403 1.356 . S
H2406 C2400 0.930 . S
H2407 C2404 0.930 . S
C2408 C2410 1.348 . S
C2408 C2411 1.356 . S
C2408 O2438 1.325 . S
N2409 C2412 1.314 . S
N2409 C2413 1.279 . S
C2410 C2408 1.348 . S
C2410 C2412 1.353 . S
C2410 H2452 0.929 . S
C2411 C2408 1.356 . S
C2411 C2413 1.358 . S
C2411 H2453 0.930 . S
C2412 N2409 1.314 . S
C2412 C2410 1.353 . S
C2412 H2454 0.930 . S
C2413 N2409 1.279 . S
C2413 C2411 1.358 . S
C2413 H2455 0.930 . S
C2414 C2415 1.348 . S
C2414 C2416 1.356 . S
C2414 O2439 1.325 . S
C2415 C2414 1.348 . S
C2415 C2417 1.353 . S
C2415 H2456 0.929 . S
C2416 C2414 1.356 . S
C2416 C2418 1.358 . S
C2416 H2457 0.930 . S
C2417 C2415 1.353 . S
C2417 N2419 1.314 . S
C2417 H2458 0.930 . S
C2418 C2416 1.358 . S
C2418 N2419 1.279 . S
C2418 H2459 0.930 . S
N2419 C2417 1.314 . S
N2419 C2418 1.279 . S
C2420 C2422 1.353 . S
C2420 N2423 1.314 . S
C2420 H2426 0.930 . S
C2421 N2423 1.279 . S
C2421 C2424 1.358 . S
C2421 H2427 0.930 . S
C2422 C2420 1.353 . S
C2422 C2425 1.348 . S
C2422 H2460 0.929 . S
N2423 Li2378 1.990 . S
N2423 C2420 1.314 . S
N2423 C2421 1.279 . S
C2424 C2421 1.358 . S
C2424 C2425 1.356 . S
C2424 H2461 0.930 . S
C2425 C2422 1.348 . S
C2425 C2424 1.356 . S
H2426 C2420 0.930 . S
H2427 C2421 0.930 . S
C2428 N2429 1.314 . S
C2428 C2430 1.353 . S
C2428 H2434 0.930 . S
N2429 Li2379 1.990 . S
N2429 C2428 1.314 . S
N2429 C2432 1.279 . S
C2430 C2428 1.353 . S
C2430 C2433 1.348 . S
C2430 H2462 0.929 . S
C2431 C2432 1.358 . S
C2431 C2433 1.356 . S
C2431 H2463 0.930 . S
C2432 N2429 1.279 . S
C2432 C2431 1.358 . S
C2432 H2435 0.930 . S
C2433 C2430 1.348 . S
C2433 C2431 1.356 . S
H2434 C2428 0.930 . S
H2435 C2432 0.930 . S
O2436 Li2376 1.956 . S
O2436 Li2377 1.970 . S
O2436 Li2378 1.961 . S
O2436 C2380 1.325 . S
O2437 Li2376 1.970 . S
O2437 Li2377 1.956 . S
O2437 Li2379 1.961 . S
O2437 C2386 1.325 . S
O2438 Li2376 1.961 . S
O2438 Li2378 1.956 . S
O2438 Li2379 1.970 . S
O2438 C2408 1.325 . S
O2439 Li2377 1.961 . S
O2439 Li2378 1.970 . S
O2439 Li2379 1.956 . S
O2439 C2414 1.325 . S
H2440 C2382 0.929 . S
H2441 C2383 0.930 . S
H2442 C2384 0.930 . S
H2443 C2385 0.930 . S
H2444 C2387 0.930 . S
H2445 C2389 0.929 . S
H2446 C2390 0.930 . S
H2447 C2391 0.930 . S
H2448 C2394 0.930 . S
H2449 C2397 0.929 . S
H2450 C2402 0.929 . S
H2451 C2403 0.930 . S
H2452 C2410 0.929 . S
H2453 C2411 0.930 . S
H2454 C2412 0.930 . S
H2455 C2413 0.930 . S
H2456 C2415 0.929 . S
H2457 C2416 0.930 . S
H2458 C2417 0.930 . S
H2459 C2418 0.930 . S
H2460 C2422 0.929 . S
H2461 C2424 0.930 . S
H2462 C2430 0.929 . S
H2463 C2431 0.930 . S
Li2464 N2481 1.990 . S
Li2464 O2524 1.956 . S
Li2464 O2525 1.970 . S
Li2464 O2526 1.961 . S
Li2465 N2489 1.990 . S
Li2465 O2524 1.970 . S
Li2465 O2525 1.956 . S
Li2465 O2527 1.961 . S
Li2466 N2511 1.990 . S
Li2466 O2524 1.961 . S
Li2466 O2526 1.956 . S
Li2466 O2527 1.970 . S
Li2467 N2517 1.990 . S
Li2467 O2525 1.961 . S
Li2467 O2526 1.970 . S
Li2467 O2527 1.956 . S
C2468 C2470 1.348 . S
C2468 C2471 1.356 . S
C2468 O2524 1.325 . S
N2469 C2472 1.314 . S
N2469 C2473 1.279 . S
C2470 C2468 1.348 . S
C2470 C2472 1.353 . S
C2470 H2528 0.929 . S
C2471 C2468 1.356 . S
C2471 C2473 1.358 . S
C2471 H2529 0.930 . S
C2472 N2469 1.314 . S
C2472 C2470 1.353 . S
C2472 H2530 0.930 . S
C2473 N2469 1.279 . S
C2473 C2471 1.358 . S
C2473 H2531 0.930 . S
C2474 C2477 1.348 . S
C2474 C2478 1.356 . S
C2474 O2525 1.325 . S
C2475 N2476 1.279 . S
C2475 C2478 1.358 . S
C2475 H2532 0.930 . S
N2476 C2475 1.279 . S
N2476 C2479 1.314 . S
C2477 C2474 1.348 . S
C2477 C2479 1.353 . S
C2477 H2533 0.929 . S
C2478 C2474 1.356 . S
C2478 C2475 1.358 . S
C2478 H2534 0.930 . S
C2479 N2476 1.314 . S
C2479 C2477 1.353 . S
C2479 H2535 0.930 . S
C2480 N2481 1.314 . S
C2480 C2485 1.353 . S
C2480 H2486 0.930 . S
N2481 Li2464 1.990 . S
N2481 C2480 1.314 . S
N2481 C2483 1.279 . S
C2482 C2483 1.358 . S
C2482 C2484 1.356 . S
C2482 H2536 0.930 . S
C2483 N2481 1.279 . S
C2483 C2482 1.358 . S
C2483 H2487 0.930 . S
C2484 C2482 1.356 . S
C2484 C2485 1.348 . S
C2485 C2480 1.353 . S
C2485 C2484 1.348 . S
C2485 H2537 0.929 . S
H2486 C2480 0.930 . S
H2487 C2483 0.930 . S
C2488 N2489 1.314 . S
C2488 C2490 1.353 . S
C2488 H2494 0.930 . S
N2489 Li2465 1.990 . S
N2489 C2488 1.314 . S
N2489 C2492 1.279 . S
C2490 C2488 1.353 . S
C2490 C2493 1.348 . S
C2490 H2538 0.929 . S
C2491 C2492 1.358 . S
C2491 C2493 1.356 . S
C2491 H2539 0.930 . S
C2492 N2489 1.279 . S
C2492 C2491 1.358 . S
C2492 H2495 0.930 . S
C2493 C2490 1.348 . S
C2493 C2491 1.356 . S
H2494 C2488 0.930 . S
H2495 C2492 0.930 . S
C2496 C2498 1.348 . S
C2496 C2499 1.356 . S
C2496 O2526 1.325 . S
N2497 C2500 1.314 . S
N2497 C2501 1.279 . S
C2498 C2496 1.348 . S
C2498 C2500 1.353 . S
C2498 H2540 0.929 . S
C2499 C2496 1.356 . S
C2499 C2501 1.358 . S
C2499 H2541 0.930 . S
C2500 N2497 1.314 . S
C2500 C2498 1.353 . S
C2500 H2542 0.930 . S
C2501 N2497 1.279 . S
C2501 C2499 1.358 . S
C2501 H2543 0.930 . S
C2502 C2503 1.348 . S
C2502 C2504 1.356 . S
C2502 O2527 1.325 . S
C2503 C2502 1.348 . S
C2503 C2505 1.353 . S
C2503 H2544 0.929 . S
C2504 C2502 1.356 . S
C2504 C2506 1.358 . S
C2504 H2545 0.930 . S
C2505 C2503 1.353 . S
C2505 N2507 1.314 . S
C2505 H2546 0.930 . S
C2506 C2504 1.358 . S
C2506 N2507 1.279 . S
C2506 H2547 0.930 . S
N2507 C2505 1.314 . S
N2507 C2506 1.279 . S
C2508 C2510 1.353 . S
C2508 N2511 1.314 . S
C2508 H2514 0.930 . S
C2509 N2511 1.279 . S
C2509 C2512 1.358 . S
C2509 H2515 0.930 . S
C2510 C2508 1.353 . S
C2510 C2513 1.348 . S
C2510 H2548 0.929 . S
N2511 Li2466 1.990 . S
N2511 C2508 1.314 . S
N2511 C2509 1.279 . S
C2512 C2509 1.358 . S
C2512 C2513 1.356 . S
C2512 H2549 0.930 . S
C2513 C2510 1.348 . S
C2513 C2512 1.356 . S
H2514 C2508 0.930 . S
H2515 C2509 0.930 . S
C2516 N2517 1.314 . S
C2516 C2518 1.353 . S
C2516 H2522 0.930 . S
N2517 Li2467 1.990 . S
N2517 C2516 1.314 . S
N2517 C2520 1.279 . S
C2518 C2516 1.353 . S
C2518 C2521 1.348 . S
C2518 H2550 0.929 . S
C2519 C2520 1.358 . S
C2519 C2521 1.356 . S
C2519 H2551 0.930 . S
C2520 N2517 1.279 . S
C2520 C2519 1.358 . S
C2520 H2523 0.930 . S
C2521 C2518 1.348 . S
C2521 C2519 1.356 . S
H2522 C2516 0.930 . S
H2523 C2520 0.930 . S
O2524 Li2464 1.956 . S
O2524 Li2465 1.970 . S
O2524 Li2466 1.961 . S
O2524 C2468 1.325 . S
O2525 Li2464 1.970 . S
O2525 Li2465 1.956 . S
O2525 Li2467 1.961 . S
O2525 C2474 1.325 . S
O2526 Li2464 1.961 . S
O2526 Li2466 1.956 . S
O2526 Li2467 1.970 . S
O2526 C2496 1.325 . S
O2527 Li2465 1.961 . S
O2527 Li2466 1.970 . S
O2527 Li2467 1.956 . S
O2527 C2502 1.325 . S
H2528 C2470 0.929 . S
H2529 C2471 0.930 . S
H2530 C2472 0.930 . S
H2531 C2473 0.930 . S
H2532 C2475 0.930 . S
H2533 C2477 0.929 . S
H2534 C2478 0.930 . S
H2535 C2479 0.930 . S
H2536 C2482 0.930 . S
H2537 C2485 0.929 . S
H2538 C2490 0.929 . S
H2539 C2491 0.930 . S
H2540 C2498 0.929 . S
H2541 C2499 0.930 . S
H2542 C2500 0.930 . S
H2543 C2501 0.930 . S
H2544 C2503 0.929 . S
H2545 C2504 0.930 . S
H2546 C2505 0.930 . S
H2547 C2506 0.930 . S
H2548 C2510 0.929 . S
H2549 C2512 0.930 . S
H2550 C2518 0.929 . S
H2551 C2519 0.930 . S
Li2552 N2569 1.990 . S
Li2552 O2612 1.956 . S
Li2552 O2613 1.970 . S
Li2552 O2614 1.961 . S
Li2553 N2577 1.990 . S
Li2553 O2612 1.970 . S
Li2553 O2613 1.956 . S
Li2553 O2615 1.961 . S
Li2554 N2599 1.990 . S
Li2554 O2612 1.961 . S
Li2554 O2614 1.956 . S
Li2554 O2615 1.970 . S
Li2555 N2605 1.990 . S
Li2555 O2613 1.961 . S
Li2555 O2614 1.970 . S
Li2555 O2615 1.956 . S
C2556 C2558 1.348 . S
C2556 C2559 1.356 . S
C2556 O2612 1.325 . S
N2557 C2560 1.314 . S
N2557 C2561 1.279 . S
C2558 C2556 1.348 . S
C2558 C2560 1.353 . S
C2558 H2616 0.929 . S
C2559 C2556 1.356 . S
C2559 C2561 1.358 . S
C2559 H2617 0.930 . S
C2560 N2557 1.314 . S
C2560 C2558 1.353 . S
C2560 H2618 0.930 . S
C2561 N2557 1.279 . S
C2561 C2559 1.358 . S
C2561 H2619 0.930 . S
C2562 C2565 1.348 . S
C2562 C2566 1.356 . S
C2562 O2613 1.325 . S
C2563 N2564 1.279 . S
C2563 C2566 1.358 . S
C2563 H2620 0.930 . S
N2564 C2563 1.279 . S
N2564 C2567 1.314 . S
C2565 C2562 1.348 . S
C2565 C2567 1.353 . S
C2565 H2621 0.929 . S
C2566 C2562 1.356 . S
C2566 C2563 1.358 . S
C2566 H2622 0.930 . S
C2567 N2564 1.314 . S
C2567 C2565 1.353 . S
C2567 H2623 0.930 . S
C2568 N2569 1.314 . S
C2568 C2573 1.353 . S
C2568 H2574 0.930 . S
N2569 Li2552 1.990 . S
N2569 C2568 1.314 . S
N2569 C2571 1.279 . S
C2570 C2571 1.358 . S
C2570 C2572 1.356 . S
C2570 H2624 0.930 . S
C2571 N2569 1.279 . S
C2571 C2570 1.358 . S
C2571 H2575 0.930 . S
C2572 C2570 1.356 . S
C2572 C2573 1.348 . S
C2573 C2568 1.353 . S
C2573 C2572 1.348 . S
C2573 H2625 0.929 . S
H2574 C2568 0.930 . S
H2575 C2571 0.930 . S
C2576 N2577 1.314 . S
C2576 C2578 1.353 . S
C2576 H2582 0.930 . S
N2577 Li2553 1.990 . S
N2577 C2576 1.314 . S
N2577 C2580 1.279 . S
C2578 C2576 1.353 . S
C2578 C2581 1.348 . S
C2578 H2626 0.929 . S
C2579 C2580 1.358 . S
C2579 C2581 1.356 . S
C2579 H2627 0.930 . S
C2580 N2577 1.279 . S
C2580 C2579 1.358 . S
C2580 H2583 0.930 . S
C2581 C2578 1.348 . S
C2581 C2579 1.356 . S
H2582 C2576 0.930 . S
H2583 C2580 0.930 . S
C2584 C2586 1.348 . S
C2584 C2587 1.356 . S
C2584 O2614 1.325 . S
N2585 C2588 1.314 . S
N2585 C2589 1.279 . S
C2586 C2584 1.348 . S
C2586 C2588 1.353 . S
C2586 H2628 0.929 . S
C2587 C2584 1.356 . S
C2587 C2589 1.358 . S
C2587 H2629 0.930 . S
C2588 N2585 1.314 . S
C2588 C2586 1.353 . S
C2588 H2630 0.930 . S
C2589 N2585 1.279 . S
C2589 C2587 1.358 . S
C2589 H2631 0.930 . S
C2590 C2591 1.348 . S
C2590 C2592 1.356 . S
C2590 O2615 1.325 . S
C2591 C2590 1.348 . S
C2591 C2593 1.353 . S
C2591 H2632 0.929 . S
C2592 C2590 1.356 . S
C2592 C2594 1.358 . S
C2592 H2633 0.930 . S
C2593 C2591 1.353 . S
C2593 N2595 1.314 . S
C2593 H2634 0.930 . S
C2594 C2592 1.358 . S
C2594 N2595 1.279 . S
C2594 H2635 0.930 . S
N2595 C2593 1.314 . S
N2595 C2594 1.279 . S
C2596 C2598 1.353 . S
C2596 N2599 1.314 . S
C2596 H2602 0.930 . S
C2597 N2599 1.279 . S
C2597 C2600 1.358 . S
C2597 H2603 0.930 . S
C2598 C2596 1.353 . S
C2598 C2601 1.348 . S
C2598 H2636 0.929 . S
N2599 Li2554 1.990 . S
N2599 C2596 1.314 . S
N2599 C2597 1.279 . S
C2600 C2597 1.358 . S
C2600 C2601 1.356 . S
C2600 H2637 0.930 . S
C2601 C2598 1.348 . S
C2601 C2600 1.356 . S
H2602 C2596 0.930 . S
H2603 C2597 0.930 . S
C2604 N2605 1.314 . S
C2604 C2606 1.353 . S
C2604 H2610 0.930 . S
N2605 Li2555 1.990 . S
N2605 C2604 1.314 . S
N2605 C2608 1.279 . S
C2606 C2604 1.353 . S
C2606 C2609 1.348 . S
C2606 H2638 0.929 . S
C2607 C2608 1.358 . S
C2607 C2609 1.356 . S
C2607 H2639 0.930 . S
C2608 N2605 1.279 . S
C2608 C2607 1.358 . S
C2608 H2611 0.930 . S
C2609 C2606 1.348 . S
C2609 C2607 1.356 . S
H2610 C2604 0.930 . S
H2611 C2608 0.930 . S
O2612 Li2552 1.956 . S
O2612 Li2553 1.970 . S
O2612 Li2554 1.961 . S
O2612 C2556 1.325 . S
O2613 Li2552 1.970 . S
O2613 Li2553 1.956 . S
O2613 Li2555 1.961 . S
O2613 C2562 1.325 . S
O2614 Li2552 1.961 . S
O2614 Li2554 1.956 . S
O2614 Li2555 1.970 . S
O2614 C2584 1.325 . S
O2615 Li2553 1.961 . S
O2615 Li2554 1.970 . S
O2615 Li2555 1.956 . S
O2615 C2590 1.325 . S
H2616 C2558 0.929 . S
H2617 C2559 0.930 . S
H2618 C2560 0.930 . S
H2619 C2561 0.930 . S
H2620 C2563 0.930 . S
H2621 C2565 0.929 . S
H2622 C2566 0.930 . S
H2623 C2567 0.930 . S
H2624 C2570 0.930 . S
H2625 C2573 0.929 . S
H2626 C2578 0.929 . S
H2627 C2579 0.930 . S
H2628 C2586 0.929 . S
H2629 C2587 0.930 . S
H2630 C2588 0.930 . S
H2631 C2589 0.930 . S
H2632 C2591 0.929 . S
H2633 C2592 0.930 . S
H2634 C2593 0.930 . S
H2635 C2594 0.930 . S
H2636 C2598 0.929 . S
H2637 C2600 0.930 . S
H2638 C2606 0.929 . S
H2639 C2607 0.930 . S
Li2640 N2657 1.990 . S
Li2640 O2700 1.956 . S
Li2640 O2701 1.970 . S
Li2640 O2702 1.961 . S
Li2641 N2665 1.990 . S
Li2641 O2700 1.970 . S
Li2641 O2701 1.956 . S
Li2641 O2703 1.961 . S
Li2642 N2687 1.990 . S
Li2642 O2700 1.961 . S
Li2642 O2702 1.956 . S
Li2642 O2703 1.970 . S
Li2643 N2693 1.990 . S
Li2643 O2701 1.961 . S
Li2643 O2702 1.970 . S
Li2643 O2703 1.956 . S
C2644 C2646 1.348 . S
C2644 C2647 1.356 . S
C2644 O2700 1.325 . S
N2645 C2648 1.314 . S
N2645 C2649 1.279 . S
C2646 C2644 1.348 . S
C2646 C2648 1.353 . S
C2646 H2704 0.929 . S
C2647 C2644 1.356 . S
C2647 C2649 1.358 . S
C2647 H2705 0.930 . S
C2648 N2645 1.314 . S
C2648 C2646 1.353 . S
C2648 H2706 0.930 . S
C2649 N2645 1.279 . S
C2649 C2647 1.358 . S
C2649 H2707 0.930 . S
C2650 C2653 1.348 . S
C2650 C2654 1.356 . S
C2650 O2701 1.325 . S
C2651 N2652 1.279 . S
C2651 C2654 1.358 . S
C2651 H2708 0.930 . S
N2652 C2651 1.279 . S
N2652 C2655 1.314 . S
C2653 C2650 1.348 . S
C2653 C2655 1.353 . S
C2653 H2709 0.929 . S
C2654 C2650 1.356 . S
C2654 C2651 1.358 . S
C2654 H2710 0.930 . S
C2655 N2652 1.314 . S
C2655 C2653 1.353 . S
C2655 H2711 0.930 . S
C2656 N2657 1.314 . S
C2656 C2661 1.353 . S
C2656 H2662 0.930 . S
N2657 Li2640 1.990 . S
N2657 C2656 1.314 . S
N2657 C2659 1.279 . S
C2658 C2659 1.358 . S
C2658 C2660 1.356 . S
C2658 H2712 0.930 . S
C2659 N2657 1.279 . S
C2659 C2658 1.358 . S
C2659 H2663 0.930 . S
C2660 C2658 1.356 . S
C2660 C2661 1.348 . S
C2661 C2656 1.353 . S
C2661 C2660 1.348 . S
C2661 H2713 0.929 . S
H2662 C2656 0.930 . S
H2663 C2659 0.930 . S
C2664 N2665 1.314 . S
C2664 C2666 1.353 . S
C2664 H2670 0.930 . S
N2665 Li2641 1.990 . S
N2665 C2664 1.314 . S
N2665 C2668 1.279 . S
C2666 C2664 1.353 . S
C2666 C2669 1.348 . S
C2666 H2714 0.929 . S
C2667 C2668 1.358 . S
C2667 C2669 1.356 . S
C2667 H2715 0.930 . S
C2668 N2665 1.279 . S
C2668 C2667 1.358 . S
C2668 H2671 0.930 . S
C2669 C2666 1.348 . S
C2669 C2667 1.356 . S
H2670 C2664 0.930 . S
H2671 C2668 0.930 . S
C2672 C2674 1.348 . S
C2672 C2675 1.356 . S
C2672 O2702 1.325 . S
N2673 C2676 1.314 . S
N2673 C2677 1.279 . S
C2674 C2672 1.348 . S
C2674 C2676 1.353 . S
C2674 H2716 0.929 . S
C2675 C2672 1.356 . S
C2675 C2677 1.358 . S
C2675 H2717 0.930 . S
C2676 N2673 1.314 . S
C2676 C2674 1.353 . S
C2676 H2718 0.930 . S
C2677 N2673 1.279 . S
C2677 C2675 1.358 . S
C2677 H2719 0.930 . S
C2678 C2679 1.348 . S
C2678 C2680 1.356 . S
C2678 O2703 1.325 . S
C2679 C2678 1.348 . S
C2679 C2681 1.353 . S
C2679 H2720 0.929 . S
C2680 C2678 1.356 . S
C2680 C2682 1.358 . S
C2680 H2721 0.930 . S
C2681 C2679 1.353 . S
C2681 N2683 1.314 . S
C2681 H2722 0.930 . S
C2682 C2680 1.358 . S
C2682 N2683 1.279 . S
C2682 H2723 0.930 . S
N2683 C2681 1.314 . S
N2683 C2682 1.279 . S
C2684 C2686 1.353 . S
C2684 N2687 1.314 . S
C2684 H2690 0.930 . S
C2685 N2687 1.279 . S
C2685 C2688 1.358 . S
C2685 H2691 0.930 . S
C2686 C2684 1.353 . S
C2686 C2689 1.348 . S
C2686 H2724 0.929 . S
N2687 Li2642 1.990 . S
N2687 C2684 1.314 . S
N2687 C2685 1.279 . S
C2688 C2685 1.358 . S
C2688 C2689 1.356 . S
C2688 H2725 0.930 . S
C2689 C2686 1.348 . S
C2689 C2688 1.356 . S
H2690 C2684 0.930 . S
H2691 C2685 0.930 . S
C2692 N2693 1.314 . S
C2692 C2694 1.353 . S
C2692 H2698 0.930 . S
N2693 Li2643 1.990 . S
N2693 C2692 1.314 . S
N2693 C2696 1.279 . S
C2694 C2692 1.353 . S
C2694 C2697 1.348 . S
C2694 H2726 0.929 . S
C2695 C2696 1.358 . S
C2695 C2697 1.356 . S
C2695 H2727 0.930 . S
C2696 N2693 1.279 . S
C2696 C2695 1.358 . S
C2696 H2699 0.930 . S
C2697 C2694 1.348 . S
C2697 C2695 1.356 . S
H2698 C2692 0.930 . S
H2699 C2696 0.930 . S
O2700 Li2640 1.956 . S
O2700 Li2641 1.970 . S
O2700 Li2642 1.961 . S
O2700 C2644 1.325 . S
O2701 Li2640 1.970 . S
O2701 Li2641 1.956 . S
O2701 Li2643 1.961 . S
O2701 C2650 1.325 . S
O2702 Li2640 1.961 . S
O2702 Li2642 1.956 . S
O2702 Li2643 1.970 . S
O2702 C2672 1.325 . S
O2703 Li2641 1.961 . S
O2703 Li2642 1.970 . S
O2703 Li2643 1.956 . S
O2703 C2678 1.325 . S
H2704 C2646 0.929 . S
H2705 C2647 0.930 . S
H2706 C2648 0.930 . S
H2707 C2649 0.930 . S
H2708 C2651 0.930 . S
H2709 C2653 0.929 . S
H2710 C2654 0.930 . S
H2711 C2655 0.930 . S
H2712 C2658 0.930 . S
H2713 C2661 0.929 . S
H2714 C2666 0.929 . S
H2715 C2667 0.930 . S
H2716 C2674 0.929 . S
H2717 C2675 0.930 . S
H2718 C2676 0.930 . S
H2719 C2677 0.930 . S
H2720 C2679 0.929 . S
H2721 C2680 0.930 . S
H2722 C2681 0.930 . S
H2723 C2682 0.930 . S
H2724 C2686 0.929 . S
H2725 C2688 0.930 . S
H2726 C2694 0.929 . S
H2727 C2695 0.930 . S
Li2728 N2745 1.990 . S
Li2728 O2788 1.956 . S
Li2728 O2789 1.970 . S
Li2728 O2790 1.961 . S
Li2729 N2753 1.990 . S
Li2729 O2788 1.970 . S
Li2729 O2789 1.956 . S
Li2729 O2791 1.961 . S
Li2730 N2775 1.990 . S
Li2730 O2788 1.961 . S
Li2730 O2790 1.956 . S
Li2730 O2791 1.970 . S
Li2731 N2781 1.990 . S
Li2731 O2789 1.961 . S
Li2731 O2790 1.970 . S
Li2731 O2791 1.956 . S
C2732 C2734 1.348 . S
C2732 C2735 1.356 . S
C2732 O2788 1.325 . S
N2733 C2736 1.314 . S
N2733 C2737 1.279 . S
C2734 C2732 1.348 . S
C2734 C2736 1.353 . S
C2734 H2792 0.929 . S
C2735 C2732 1.356 . S
C2735 C2737 1.358 . S
C2735 H2793 0.930 . S
C2736 N2733 1.314 . S
C2736 C2734 1.353 . S
C2736 H2794 0.930 . S
C2737 N2733 1.279 . S
C2737 C2735 1.358 . S
C2737 H2795 0.930 . S
C2738 C2741 1.348 . S
C2738 C2742 1.356 . S
C2738 O2789 1.325 . S
C2739 N2740 1.279 . S
C2739 C2742 1.358 . S
C2739 H2796 0.930 . S
N2740 C2739 1.279 . S
N2740 C2743 1.314 . S
C2741 C2738 1.348 . S
C2741 C2743 1.353 . S
C2741 H2797 0.929 . S
C2742 C2738 1.356 . S
C2742 C2739 1.358 . S
C2742 H2798 0.930 . S
C2743 N2740 1.314 . S
C2743 C2741 1.353 . S
C2743 H2799 0.930 . S
C2744 N2745 1.314 . S
C2744 C2749 1.353 . S
C2744 H2750 0.930 . S
N2745 Li2728 1.990 . S
N2745 C2744 1.314 . S
N2745 C2747 1.279 . S
C2746 C2747 1.358 . S
C2746 C2748 1.356 . S
C2746 H2800 0.930 . S
C2747 N2745 1.279 . S
C2747 C2746 1.358 . S
C2747 H2751 0.930 . S
C2748 C2746 1.356 . S
C2748 C2749 1.348 . S
C2749 C2744 1.353 . S
C2749 C2748 1.348 . S
C2749 H2801 0.929 . S
H2750 C2744 0.930 . S
H2751 C2747 0.930 . S
C2752 N2753 1.314 . S
C2752 C2754 1.353 . S
C2752 H2758 0.930 . S
N2753 Li2729 1.990 . S
N2753 C2752 1.314 . S
N2753 C2756 1.279 . S
C2754 C2752 1.353 . S
C2754 C2757 1.348 . S
C2754 H2802 0.929 . S
C2755 C2756 1.358 . S
C2755 C2757 1.356 . S
C2755 H2803 0.930 . S
C2756 N2753 1.279 . S
C2756 C2755 1.358 . S
C2756 H2759 0.930 . S
C2757 C2754 1.348 . S
C2757 C2755 1.356 . S
H2758 C2752 0.930 . S
H2759 C2756 0.930 . S
C2760 C2762 1.348 . S
C2760 C2763 1.356 . S
C2760 O2790 1.325 . S
N2761 C2764 1.314 . S
N2761 C2765 1.279 . S
C2762 C2760 1.348 . S
C2762 C2764 1.353 . S
C2762 H2804 0.929 . S
C2763 C2760 1.356 . S
C2763 C2765 1.358 . S
C2763 H2805 0.930 . S
C2764 N2761 1.314 . S
C2764 C2762 1.353 . S
C2764 H2806 0.930 . S
C2765 N2761 1.279 . S
C2765 C2763 1.358 . S
C2765 H2807 0.930 . S
C2766 C2767 1.348 . S
C2766 C2768 1.356 . S
C2766 O2791 1.325 . S
C2767 C2766 1.348 . S
C2767 C2769 1.353 . S
C2767 H2808 0.929 . S
C2768 C2766 1.356 . S
C2768 C2770 1.358 . S
C2768 H2809 0.930 . S
C2769 C2767 1.353 . S
C2769 N2771 1.314 . S
C2769 H2810 0.930 . S
C2770 C2768 1.358 . S
C2770 N2771 1.279 . S
C2770 H2811 0.930 . S
N2771 C2769 1.314 . S
N2771 C2770 1.279 . S
C2772 C2774 1.353 . S
C2772 N2775 1.314 . S
C2772 H2778 0.930 . S
C2773 N2775 1.279 . S
C2773 C2776 1.358 . S
C2773 H2779 0.930 . S
C2774 C2772 1.353 . S
C2774 C2777 1.348 . S
C2774 H2812 0.929 . S
N2775 Li2730 1.990 . S
N2775 C2772 1.314 . S
N2775 C2773 1.279 . S
C2776 C2773 1.358 . S
C2776 C2777 1.356 . S
C2776 H2813 0.930 . S
C2777 C2774 1.348 . S
C2777 C2776 1.356 . S
H2778 C2772 0.930 . S
H2779 C2773 0.930 . S
C2780 N2781 1.314 . S
C2780 C2782 1.353 . S
C2780 H2786 0.930 . S
N2781 Li2731 1.990 . S
N2781 C2780 1.314 . S
N2781 C2784 1.279 . S
C2782 C2780 1.353 . S
C2782 C2785 1.348 . S
C2782 H2814 0.929 . S
C2783 C2784 1.358 . S
C2783 C2785 1.356 . S
C2783 H2815 0.930 . S
C2784 N2781 1.279 . S
C2784 C2783 1.358 . S
C2784 H2787 0.930 . S
C2785 C2782 1.348 . S
C2785 C2783 1.356 . S
H2786 C2780 0.930 . S
H2787 C2784 0.930 . S
O2788 Li2728 1.956 . S
O2788 Li2729 1.970 . S
O2788 Li2730 1.961 . S
O2788 C2732 1.325 . S
O2789 Li2728 1.970 . S
O2789 Li2729 1.956 . S
O2789 Li2731 1.961 . S
O2789 C2738 1.325 . S
O2790 Li2728 1.961 . S
O2790 Li2730 1.956 . S
O2790 Li2731 1.970 . S
O2790 C2760 1.325 . S
O2791 Li2729 1.961 . S
O2791 Li2730 1.970 . S
O2791 Li2731 1.956 . S
O2791 C2766 1.325 . S
H2792 C2734 0.929 . S
H2793 C2735 0.930 . S
H2794 C2736 0.930 . S
H2795 C2737 0.930 . S
H2796 C2739 0.930 . S
H2797 C2741 0.929 . S
H2798 C2742 0.930 . S
H2799 C2743 0.930 . S
H2800 C2746 0.930 . S
H2801 C2749 0.929 . S
H2802 C2754 0.929 . S
H2803 C2755 0.930 . S
H2804 C2762 0.929 . S
H2805 C2763 0.930 . S
H2806 C2764 0.930 . S
H2807 C2765 0.930 . S
H2808 C2767 0.929 . S
H2809 C2768 0.930 . S
H2810 C2769 0.930 . S
H2811 C2770 0.930 . S
H2812 C2774 0.929 . S
H2813 C2776 0.930 . S
H2814 C2782 0.929 . S
H2815 C2783 0.930 . S
H2816 C2822 0.930 . S
H2817 C2825 0.930 . S
H2818 C2826 0.930 . S
H2819 C2827 0.930 . S
H2820 C2830 0.930 . S
H2821 C2831 0.930 . S
C2822 H2816 0.930 . S
C2822 C2823 1.355 . S
C2822 C2824 1.415 . S
C2823 C2822 1.355 . S
C2823 C2825 1.419 . S
C2824 C2822 1.415 . S
C2824 C2829 1.425 . S
C2824 C2831 1.409 . S
C2825 H2817 0.930 . S
C2825 C2823 1.419 . S
C2825 C2826 1.362 . S
C2826 H2818 0.930 . S
C2826 C2825 1.362 . S
C2826 C2829 1.409 . S
C2827 H2819 0.930 . S
C2827 C2828 1.355 . S
C2827 C2829 1.415 . S
C2828 C2827 1.355 . S
C2828 C2830 1.419 . S
C2829 C2824 1.425 . S
C2829 C2826 1.409 . S
C2829 C2827 1.415 . S
C2830 H2820 0.930 . S
C2830 C2828 1.419 . S
C2830 C2831 1.362 . S
C2831 H2821 0.930 . S
C2831 C2824 1.409 . S
C2831 C2830 1.362 . S
H2832 C2838 0.930 . S
H2833 C2841 0.930 . S
H2834 C2842 0.930 . S
H2835 C2843 0.930 . S
H2836 C2846 0.930 . S
H2837 C2847 0.930 . S
C2838 H2832 0.930 . S
C2838 C2839 1.355 . S
C2838 C2840 1.415 . S
C2839 C2838 1.355 . S
C2839 C2841 1.419 . S
C2840 C2838 1.415 . S
C2840 C2845 1.425 . S
C2840 C2847 1.409 . S
C2841 H2833 0.930 . S
C2841 C2839 1.419 . S
C2841 C2842 1.362 . S
C2842 H2834 0.930 . S
C2842 C2841 1.362 . S
C2842 C2845 1.409 . S
C2843 H2835 0.930 . S
C2843 C2844 1.355 . S
C2843 C2845 1.415 . S
C2844 C2843 1.355 . S
C2844 C2846 1.419 . S
C2845 C2840 1.425 . S
C2845 C2842 1.409 . S
C2845 C2843 1.415 . S
C2846 H2836 0.930 . S
C2846 C2844 1.419 . S
C2846 C2847 1.362 . S
C2847 H2837 0.930 . S
C2847 C2840 1.409 . S
C2847 C2846 1.362 . S
H2848 C2854 0.930 . S
H2849 C2857 0.930 . S
H2850 C2858 0.930 . S
H2851 C2859 0.930 . S
H2852 C2862 0.930 . S
H2853 C2863 0.930 . S
C2854 H2848 0.930 . S
C2854 C2855 1.355 . S
C2854 C2856 1.415 . S
C2855 C2854 1.355 . S
C2855 C2857 1.419 . S
C2856 C2854 1.415 . S
C2856 C2861 1.425 . S
C2856 C2863 1.409 . S
C2857 H2849 0.930 . S
C2857 C2855 1.419 . S
C2857 C2858 1.362 . S
C2858 H2850 0.930 . S
C2858 C2857 1.362 . S
C2858 C2861 1.409 . S
C2859 H2851 0.930 . S
C2859 C2860 1.355 . S
C2859 C2861 1.415 . S
C2860 C2859 1.355 . S
C2860 C2862 1.419 . S
C2861 C2856 1.425 . S
C2861 C2858 1.409 . S
C2861 C2859 1.415 . S
C2862 H2852 0.930 . S
C2862 C2860 1.419 . S
C2862 C2863 1.362 . S
C2863 H2853 0.930 . S
C2863 C2856 1.409 . S
C2863 C2862 1.362 . S
H2864 C2870 0.930 . S
H2865 C2873 0.930 . S
H2866 C2874 0.930 . S
H2867 C2875 0.930 . S
H2868 C2878 0.930 . S
H2869 C2879 0.930 . S
C2870 H2864 0.930 . S
C2870 C2871 1.355 . S
C2870 C2872 1.415 . S
C2871 C2870 1.355 . S
C2871 C2873 1.419 . S
C2872 C2870 1.415 . S
C2872 C2877 1.425 . S
C2872 C2879 1.409 . S
C2873 H2865 0.930 . S
C2873 C2871 1.419 . S
C2873 C2874 1.362 . S
C2874 H2866 0.930 . S
C2874 C2873 1.362 . S
C2874 C2877 1.409 . S
C2875 H2867 0.930 . S
C2875 C2876 1.355 . S
C2875 C2877 1.415 . S
C2876 C2875 1.355 . S
C2876 C2878 1.419 . S
C2877 C2872 1.425 . S
C2877 C2874 1.409 . S
C2877 C2875 1.415 . S
C2878 H2868 0.930 . S
C2878 C2876 1.419 . S
C2878 C2879 1.362 . S
C2879 H2869 0.930 . S
C2879 C2872 1.409 . S
C2879 C2878 1.362 . S
H2880 C2886 0.930 . S
H2881 C2889 0.930 . S
H2882 C2890 0.930 . S
H2883 C2891 0.930 . S
H2884 C2894 0.930 . S
H2885 C2895 0.930 . S
C2886 H2880 0.930 . S
C2886 C2887 1.355 . S
C2886 C2888 1.415 . S
C2887 C2886 1.355 . S
C2887 C2889 1.419 . S
C2888 C2886 1.415 . S
C2888 C2893 1.425 . S
C2888 C2895 1.409 . S
C2889 H2881 0.930 . S
C2889 C2887 1.419 . S
C2889 C2890 1.362 . S
C2890 H2882 0.930 . S
C2890 C2889 1.362 . S
C2890 C2893 1.409 . S
C2891 H2883 0.930 . S
C2891 C2892 1.355 . S
C2891 C2893 1.415 . S
C2892 C2891 1.355 . S
C2892 C2894 1.419 . S
C2893 C2888 1.425 . S
C2893 C2890 1.409 . S
C2893 C2891 1.415 . S
C2894 H2884 0.930 . S
C2894 C2892 1.419 . S
C2894 C2895 1.362 . S
C2895 H2885 0.930 . S
C2895 C2888 1.409 . S
C2895 C2894 1.362 . S
H2896 C2902 0.930 . S
H2897 C2905 0.930 . S
H2898 C2906 0.930 . S
H2899 C2907 0.930 . S
H2900 C2910 0.930 . S
H2901 C2911 0.930 . S
C2902 H2896 0.930 . S
C2902 C2903 1.355 . S
C2902 C2904 1.415 . S
C2903 C2902 1.355 . S
C2903 C2905 1.419 . S
C2904 C2902 1.415 . S
C2904 C2909 1.425 . S
C2904 C2911 1.409 . S
C2905 H2897 0.930 . S
C2905 C2903 1.419 . S
C2905 C2906 1.362 . S
C2906 H2898 0.930 . S
C2906 C2905 1.362 . S
C2906 C2909 1.409 . S
C2907 H2899 0.930 . S
C2907 C2908 1.355 . S
C2907 C2909 1.415 . S
C2908 C2907 1.355 . S
C2908 C2910 1.419 . S
C2909 C2904 1.425 . S
C2909 C2906 1.409 . S
C2909 C2907 1.415 . S
C2910 H2900 0.930 . S
C2910 C2908 1.419 . S
C2910 C2911 1.362 . S
C2911 H2901 0.930 . S
C2911 C2904 1.409 . S
C2911 C2910 1.362 . S
H2912 C2918 0.930 . S
H2913 C2921 0.930 . S
H2914 C2922 0.930 . S
H2915 C2923 0.930 . S
H2916 C2926 0.930 . S
H2917 C2927 0.930 . S
C2918 H2912 0.930 . S
C2918 C2919 1.355 . S
C2918 C2920 1.415 . S
C2919 C2918 1.355 . S
C2919 C2921 1.419 . S
C2920 C2918 1.415 . S
C2920 C2925 1.425 . S
C2920 C2927 1.409 . S
C2921 H2913 0.930 . S
C2921 C2919 1.419 . S
C2921 C2922 1.362 . S
C2922 H2914 0.930 . S
C2922 C2921 1.362 . S
C2922 C2925 1.409 . S
C2923 H2915 0.930 . S
C2923 C2924 1.355 . S
C2923 C2925 1.415 . S
C2924 C2923 1.355 . S
C2924 C2926 1.419 . S
C2925 C2920 1.425 . S
C2925 C2922 1.409 . S
C2925 C2923 1.415 . S
C2926 H2916 0.930 . S
C2926 C2924 1.419 . S
C2926 C2927 1.362 . S
C2927 H2917 0.930 . S
C2927 C2920 1.409 . S
C2927 C2926 1.362 . S
H2928 C2934 0.930 . S
H2929 C2937 0.930 . S
H2930 C2938 0.930 . S
H2931 C2939 0.930 . S
H2932 C2942 0.930 . S
H2933 C2943 0.930 . S
C2934 H2928 0.930 . S
C2934 C2935 1.355 . S
C2934 C2936 1.415 . S
C2935 C2934 1.355 . S
C2935 C2937 1.419 . S
C2936 C2934 1.415 . S
C2936 C2941 1.425 . S
C2936 C2943 1.409 . S
C2937 H2929 0.930 . S
C2937 C2935 1.419 . S
C2937 C2938 1.362 . S
C2938 H2930 0.930 . S
C2938 C2937 1.362 . S
C2938 C2941 1.409 . S
C2939 H2931 0.930 . S
C2939 C2940 1.355 . S
C2939 C2941 1.415 . S
C2940 C2939 1.355 . S
C2940 C2942 1.419 . S
C2941 C2936 1.425 . S
C2941 C2938 1.409 . S
C2941 C2939 1.415 . S
C2942 H2932 0.930 . S
C2942 C2940 1.419 . S
C2942 C2943 1.362 . S
C2943 H2933 0.930 . S
C2943 C2936 1.409 . S
C2943 C2942 1.362 . S
H2944 C2950 0.930 . S
H2945 C2953 0.930 . S
H2946 C2954 0.930 . S
H2947 C2955 0.930 . S
H2948 C2958 0.930 . S
H2949 C2959 0.930 . S
C2950 H2944 0.930 . S
C2950 C2951 1.355 . S
C2950 C2952 1.415 . S
C2951 C2950 1.355 . S
C2951 C2953 1.419 . S
C2952 C2950 1.415 . S
C2952 C2957 1.425 . S
C2952 C2959 1.409 . S
C2953 H2945 0.930 . S
C2953 C2951 1.419 . S
C2953 C2954 1.362 . S
C2954 H2946 0.930 . S
C2954 C2953 1.362 . S
C2954 C2957 1.409 . S
C2955 H2947 0.930 . S
C2955 C2956 1.355 . S
C2955 C2957 1.415 . S
C2956 C2955 1.355 . S
C2956 C2958 1.419 . S
C2957 C2952 1.425 . S
C2957 C2954 1.409 . S
C2957 C2955 1.415 . S
C2958 H2948 0.930 . S
C2958 C2956 1.419 . S
C2958 C2959 1.362 . S
C2959 H2949 0.930 . S
C2959 C2952 1.409 . S
C2959 C2958 1.362 . S
H2960 C2966 0.930 . S
H2961 C2969 0.930 . S
H2962 C2970 0.930 . S
H2963 C2971 0.930 . S
H2964 C2974 0.930 . S
H2965 C2975 0.930 . S
C2966 H2960 0.930 . S
C2966 C2967 1.355 . S
C2966 C2968 1.415 . S
C2967 C2966 1.355 . S
C2967 C2969 1.419 . S
C2968 C2966 1.415 . S
C2968 C2973 1.425 . S
C2968 C2975 1.409 . S
C2969 H2961 0.930 . S
C2969 C2967 1.419 . S
C2969 C2970 1.362 . S
C2970 H2962 0.930 . S
C2970 C2969 1.362 . S
C2970 C2973 1.409 . S
C2971 H2963 0.930 . S
C2971 C2972 1.355 . S
C2971 C2973 1.415 . S
C2972 C2971 1.355 . S
C2972 C2974 1.419 . S
C2973 C2968 1.425 . S
C2973 C2970 1.409 . S
C2973 C2971 1.415 . S
C2974 H2964 0.930 . S
C2974 C2972 1.419 . S
C2974 C2975 1.362 . S
C2975 H2965 0.930 . S
C2975 C2968 1.409 . S
C2975 C2974 1.362 . S
H2976 C2982 0.930 . S
H2977 C2985 0.930 . S
H2978 C2986 0.930 . S
H2979 C2987 0.930 . S
H2980 C2990 0.930 . S
H2981 C2991 0.930 . S
C2982 H2976 0.930 . S
C2982 C2983 1.355 . S
C2982 C2984 1.415 . S
C2983 C2982 1.355 . S
C2983 C2985 1.419 . S
C2984 C2982 1.415 . S
C2984 C2989 1.425 . S
C2984 C2991 1.409 . S
C2985 H2977 0.930 . S
C2985 C2983 1.419 . S
C2985 C2986 1.362 . S
C2986 H2978 0.930 . S
C2986 C2985 1.362 . S
C2986 C2989 1.409 . S
C2987 H2979 0.930 . S
C2987 C2988 1.355 . S
C2987 C2989 1.415 . S
C2988 C2987 1.355 . S
C2988 C2990 1.419 . S
C2989 C2984 1.425 . S
C2989 C2986 1.409 . S
C2989 C2987 1.415 . S
C2990 H2980 0.930 . S
C2990 C2988 1.419 . S
C2990 C2991 1.362 . S
C2991 H2981 0.930 . S
C2991 C2984 1.409 . S
C2991 C2990 1.362 . S
H2992 C2998 0.930 . S
H2993 C3001 0.930 . S
H2994 C3002 0.930 . S
H2995 C3003 0.930 . S
H2996 C3006 0.930 . S
H2997 C3007 0.930 . S
C2998 H2992 0.930 . S
C2998 C2999 1.355 . S
C2998 C3000 1.415 . S
C2999 C2998 1.355 . S
C2999 C3001 1.419 . S
C3000 C2998 1.415 . S
C3000 C3005 1.425 . S
C3000 C3007 1.409 . S
C3001 H2993 0.930 . S
C3001 C2999 1.419 . S
C3001 C3002 1.362 . S
C3002 H2994 0.930 . S
C3002 C3001 1.362 . S
C3002 C3005 1.409 . S
C3003 H2995 0.930 . S
C3003 C3004 1.355 . S
C3003 C3005 1.415 . S
C3004 C3003 1.355 . S
C3004 C3006 1.419 . S
C3005 C3000 1.425 . S
C3005 C3002 1.409 . S
C3005 C3003 1.415 . S
C3006 H2996 0.930 . S
C3006 C3004 1.419 . S
C3006 C3007 1.362 . S
C3007 H2997 0.930 . S
C3007 C3000 1.409 . S
C3007 C3006 1.362 . S
H3008 C3014 0.930 . S
H3009 C3017 0.930 . S
H3010 C3018 0.930 . S
H3011 C3019 0.930 . S
H3012 C3022 0.930 . S
H3013 C3023 0.930 . S
C3014 H3008 0.930 . S
C3014 C3015 1.355 . S
C3014 C3016 1.415 . S
C3015 C3014 1.355 . S
C3015 C3017 1.419 . S
C3016 C3014 1.415 . S
C3016 C3021 1.425 . S
C3016 C3023 1.409 . S
C3017 H3009 0.930 . S
C3017 C3015 1.419 . S
C3017 C3018 1.362 . S
C3018 H3010 0.930 . S
C3018 C3017 1.362 . S
C3018 C3021 1.409 . S
C3019 H3011 0.930 . S
C3019 C3020 1.355 . S
C3019 C3021 1.415 . S
C3020 C3019 1.355 . S
C3020 C3022 1.419 . S
C3021 C3016 1.425 . S
C3021 C3018 1.409 . S
C3021 C3019 1.415 . S
C3022 H3012 0.930 . S
C3022 C3020 1.419 . S
C3022 C3023 1.362 . S
C3023 H3013 0.930 . S
C3023 C3016 1.409 . S
C3023 C3022 1.362 . S
H3024 C3030 0.930 . S
H3025 C3033 0.930 . S
H3026 C3034 0.930 . S
H3027 C3035 0.930 . S
H3028 C3038 0.930 . S
H3029 C3039 0.930 . S
C3030 H3024 0.930 . S
C3030 C3031 1.355 . S
C3030 C3032 1.415 . S
C3031 C3030 1.355 . S
C3031 C3033 1.419 . S
C3032 C3030 1.415 . S
C3032 C3037 1.425 . S
C3032 C3039 1.409 . S
C3033 H3025 0.930 . S
C3033 C3031 1.419 . S
C3033 C3034 1.362 . S
C3034 H3026 0.930 . S
C3034 C3033 1.362 . S
C3034 C3037 1.409 . S
C3035 H3027 0.930 . S
C3035 C3036 1.355 . S
C3035 C3037 1.415 . S
C3036 C3035 1.355 . S
C3036 C3038 1.419 . S
C3037 C3032 1.425 . S
C3037 C3034 1.409 . S
C3037 C3035 1.415 . S
C3038 H3028 0.930 . S
C3038 C3036 1.419 . S
C3038 C3039 1.362 . S
C3039 H3029 0.930 . S
C3039 C3032 1.409 . S
C3039 C3038 1.362 . S
H3040 C3046 0.930 . S
H3041 C3049 0.930 . S
H3042 C3050 0.930 . S
H3043 C3051 0.930 . S
H3044 C3054 0.930 . S
H3045 C3055 0.930 . S
C3046 H3040 0.930 . S
C3046 C3047 1.355 . S
C3046 C3048 1.415 . S
C3047 C3046 1.355 . S
C3047 C3049 1.419 . S
C3048 C3046 1.415 . S
C3048 C3053 1.425 . S
C3048 C3055 1.409 . S
C3049 H3041 0.930 . S
C3049 C3047 1.419 . S
C3049 C3050 1.362 . S
C3050 H3042 0.930 . S
C3050 C3049 1.362 . S
C3050 C3053 1.409 . S
C3051 H3043 0.930 . S
C3051 C3052 1.355 . S
C3051 C3053 1.415 . S
C3052 C3051 1.355 . S
C3052 C3054 1.419 . S
C3053 C3048 1.425 . S
C3053 C3050 1.409 . S
C3053 C3051 1.415 . S
C3054 H3044 0.930 . S
C3054 C3052 1.419 . S
C3054 C3055 1.362 . S
C3055 H3045 0.930 . S
C3055 C3048 1.409 . S
C3055 C3054 1.362 . S
H3056 C3062 0.930 . S
H3057 C3065 0.930 . S
H3058 C3066 0.930 . S
H3059 C3067 0.930 . S
H3060 C3070 0.930 . S
H3061 C3071 0.930 . S
C3062 H3056 0.930 . S
C3062 C3063 1.355 . S
C3062 C3064 1.415 . S
C3063 C3062 1.355 . S
C3063 C3065 1.419 . S
C3064 C3062 1.415 . S
C3064 C3069 1.425 . S
C3064 C3071 1.409 . S
C3065 H3057 0.930 . S
C3065 C3063 1.419 . S
C3065 C3066 1.362 . S
C3066 H3058 0.930 . S
C3066 C3065 1.362 . S
C3066 C3069 1.409 . S
C3067 H3059 0.930 . S
C3067 C3068 1.355 . S
C3067 C3069 1.415 . S
C3068 C3067 1.355 . S
C3068 C3070 1.419 . S
C3069 C3064 1.425 . S
C3069 C3066 1.409 . S
C3069 C3067 1.415 . S
C3070 H3060 0.930 . S
C3070 C3068 1.419 . S
C3070 C3071 1.362 . S
C3071 H3061 0.930 . S
C3071 C3064 1.409 . S
C3071 C3070 1.362 . S
H3072 C3078 0.930 . S
H3073 C3081 0.930 . S
H3074 C3082 0.930 . S
H3075 C3083 0.930 . S
H3076 C3086 0.930 . S
H3077 C3087 0.930 . S
C3078 H3072 0.930 . S
C3078 C3079 1.355 . S
C3078 C3080 1.415 . S
C3079 C3078 1.355 . S
C3079 C3081 1.419 1_455 S
C3080 C3078 1.415 . S
C3080 C3085 1.425 1_455 S
C3080 C3087 1.409 . S
C3081 H3073 0.930 . S
C3081 C3079 1.419 1_655 S
C3081 C3082 1.362 . S
C3082 H3074 0.930 . S
C3082 C3081 1.362 . S
C3082 C3085 1.409 . S
C3083 H3075 0.930 . S
C3083 C3084 1.355 . S
C3083 C3085 1.415 . S
C3084 C3083 1.355 . S
C3084 C3086 1.419 1_655 S
C3085 C3080 1.425 1_655 S
C3085 C3082 1.409 . S
C3085 C3083 1.415 . S
C3086 H3076 0.930 . S
C3086 C3084 1.419 1_455 S
C3086 C3087 1.362 . S
C3087 H3077 0.930 . S
C3087 C3080 1.409 . S
C3087 C3086 1.362 . S
H3088 C3094 0.930 . S
H3089 C3097 0.930 . S
H3090 C3098 0.930 . S
H3091 C3099 0.930 . S
H3092 C3102 0.930 . S
H3093 C3103 0.930 . S
C3094 H3088 0.930 . S
C3094 C3095 1.355 . S
C3094 C3096 1.415 1_545 S
C3095 C3094 1.355 . S
C3095 C3097 1.419 . S
C3096 C3094 1.415 1_565 S
C3096 C3101 1.425 1_565 S
C3096 C3103 1.409 . S
C3097 H3089 0.930 . S
C3097 C3095 1.419 . S
C3097 C3098 1.362 . S
C3098 H3090 0.930 . S
C3098 C3097 1.362 . S
C3098 C3101 1.409 . S
C3099 H3091 0.930 . S
C3099 C3100 1.355 . S
C3099 C3101 1.415 1_565 S
C3100 C3099 1.355 . S
C3100 C3102 1.419 . S
C3101 C3096 1.425 1_545 S
C3101 C3098 1.409 . S
C3101 C3099 1.415 1_545 S
C3102 H3092 0.930 . S
C3102 C3100 1.419 . S
C3102 C3103 1.362 . S
C3103 H3093 0.930 . S
C3103 C3096 1.409 . S
C3103 C3102 1.362 . S
H3104 C3110 0.930 . S
H3105 C3113 0.930 . S
H3106 C3114 0.930 . S
H3107 C3115 0.930 . S
H3108 C3118 0.930 . S
H3109 C3119 0.930 . S
C3110 H3104 0.930 . S
C3110 C3111 1.355 . S
C3110 C3112 1.446 . S
C3111 C3110 1.355 . S
C3111 C3113 1.419 1_455 S
C3112 C3110 1.446 . S
C3112 C3117 1.420 1_446 S
C3112 C3119 1.383 1_546 S
C3113 H3105 0.930 . S
C3113 C3111 1.419 1_655 S
C3113 C3114 1.362 . S
C3114 H3106 0.930 . S
C3114 C3113 1.362 . S
C3114 C3117 1.381 1_546 S
C3115 H3107 0.930 . S
C3115 C3116 1.355 . S
C3115 C3117 1.448 . S
C3116 C3115 1.355 . S
C3116 C3118 1.419 1_655 S
C3117 C3112 1.420 1_664 S
C3117 C3114 1.381 1_564 S
C3117 C3115 1.448 . S
C3118 H3108 0.930 . S
C3118 C3116 1.419 1_455 S
C3118 C3119 1.362 . S
C3119 H3109 0.930 . S
C3119 C3112 1.383 1_564 S
C3119 C3118 1.362 . S
H3120 C3126 0.930 . S
H3121 C3129 0.930 . S
H3122 C3130 0.930 . S
H3123 C3131 0.930 . S
H3124 C3134 0.930 . S
H3125 C3135 0.930 . S
C3126 H3120 0.930 . S
C3126 C3127 1.355 . S
C3126 C3128 1.415 1_556 S
C3127 C3126 1.355 . S
C3127 C3129 1.419 . S
C3128 C3126 1.415 1_554 S
C3128 C3133 1.425 1_554 S
C3128 C3135 1.409 . S
C3129 H3121 0.930 . S
C3129 C3127 1.419 . S
C3129 C3130 1.362 . S
C3130 H3122 0.930 . S
C3130 C3129 1.362 . S
C3130 C3133 1.409 . S
C3131 H3123 0.930 . S
C3131 C3132 1.355 . S
C3131 C3133 1.415 1_554 S
C3132 C3131 1.355 . S
C3132 C3134 1.419 . S
C3133 C3128 1.425 1_556 S
C3133 C3130 1.409 . S
C3133 C3131 1.415 1_556 S
C3134 H3124 0.930 . S
C3134 C3132 1.419 . S
C3134 C3135 1.362 . S
C3135 H3125 0.930 . S
C3135 C3128 1.409 . S
C3135 C3134 1.362 . S
H3136 C3142 0.930 . S
H3137 C3145 0.930 . S
H3138 C3146 0.930 . S
H3139 C3147 0.930 . S
H3140 C3150 0.930 . S
H3141 C3151 0.930 . S
C3142 H3136 0.930 . S
C3142 C3143 1.355 1_455 S
C3142 C3144 1.415 . S
C3143 C3142 1.355 1_655 S
C3143 C3145 1.419 . S
C3144 C3142 1.415 . S
C3144 C3149 1.425 1_455 S
C3144 C3151 1.409 . S
C3145 H3137 0.930 . S
C3145 C3143 1.419 . S
C3145 C3146 1.362 . S
C3146 H3138 0.930 . S
C3146 C3145 1.362 . S
C3146 C3149 1.409 . S
C3147 H3139 0.930 . S
C3147 C3148 1.355 1_655 S
C3147 C3149 1.415 . S
C3148 C3147 1.355 1_455 S
C3148 C3150 1.419 . S
C3149 C3144 1.425 1_655 S
C3149 C3146 1.409 . S
C3149 C3147 1.415 . S
C3150 H3140 0.930 . S
C3150 C3148 1.419 . S
C3150 C3151 1.362 . S
C3151 H3141 0.930 . S
C3151 C3144 1.409 . S
C3151 C3150 1.362 . S
H3152 C3158 0.930 . S
H3153 C3161 0.930 . S
H3154 C3162 0.930 . S
H3155 C3163 0.930 . S
H3156 C3166 0.930 . S
H3157 C3167 0.930 . S
C3158 H3152 0.930 . S
C3158 C3159 1.355 . S
C3158 C3160 1.415 1_545 S
C3159 C3158 1.355 . S
C3159 C3161 1.419 . S
C3160 C3158 1.415 1_565 S
C3160 C3165 1.425 1_565 S
C3160 C3167 1.409 . S
C3161 H3153 0.930 . S
C3161 C3159 1.419 . S
C3161 C3162 1.362 . S
C3162 H3154 0.930 . S
C3162 C3161 1.362 . S
C3162 C3165 1.409 . S
C3163 H3155 0.930 . S
C3163 C3164 1.355 . S
C3163 C3165 1.415 1_565 S
C3164 C3163 1.355 . S
C3164 C3166 1.419 . S
C3165 C3160 1.425 1_545 S
C3165 C3162 1.409 . S
C3165 C3163 1.415 1_545 S
C3166 H3156 0.930 . S
C3166 C3164 1.419 . S
C3166 C3167 1.362 . S
C3167 H3157 0.930 . S
C3167 C3160 1.409 . S
C3167 C3166 1.362 . S
H3168 C3174 0.930 . S
H3169 C3177 0.930 . S
H3170 C3178 0.930 . S
H3171 C3179 0.930 . S
H3172 C3182 0.930 . S
H3173 C3183 0.930 . S
C3174 H3168 0.930 . S
C3174 C3175 1.355 . S
C3174 C3176 1.415 . S
C3175 C3174 1.355 . S
C3175 C3177 1.419 . S
C3176 C3174 1.415 . S
C3176 C3181 1.425 1_556 S
C3176 C3183 1.409 . S
C3177 H3169 0.930 . S
C3177 C3175 1.419 . S
C3177 C3178 1.362 1_556 S
C3178 H3170 0.930 . S
C3178 C3177 1.362 1_554 S
C3178 C3181 1.409 . S
C3179 H3171 0.930 . S
C3179 C3180 1.355 . S
C3179 C3181 1.415 . S
C3180 C3179 1.355 . S
C3180 C3182 1.419 . S
C3181 C3176 1.425 1_554 S
C3181 C3178 1.409 . S
C3181 C3179 1.415 . S
C3182 H3172 0.930 . S
C3182 C3180 1.419 . S
C3182 C3183 1.362 1_554 S
C3183 H3173 0.930 . S
C3183 C3176 1.409 . S
C3183 C3182 1.362 1_556 S
H3184 C3190 0.930 . S
H3185 C3193 0.930 . S
H3186 C3194 0.930 . S
H3187 C3195 0.930 . S
H3188 C3198 0.930 . S
H3189 C3199 0.930 . S
C3190 H3184 0.930 . S
C3190 C3191 1.355 . S
C3190 C3192 1.415 . S
C3191 C3190 1.355 . S
C3191 C3193 1.419 . S
C3192 C3190 1.415 . S
C3192 C3197 1.425 . S
C3192 C3199 1.409 . S
C3193 H3185 0.930 . S
C3193 C3191 1.419 . S
C3193 C3194 1.362 . S
C3194 H3186 0.930 . S
C3194 C3193 1.362 . S
C3194 C3197 1.409 . S
C3195 H3187 0.930 . S
C3195 C3196 1.355 . S
C3195 C3197 1.415 . S
C3196 C3195 1.355 . S
C3196 C3198 1.419 . S
C3197 C3192 1.425 . S
C3197 C3194 1.409 . S
C3197 C3195 1.415 . S
C3198 H3188 0.930 . S
C3198 C3196 1.419 . S
C3198 C3199 1.362 . S
C3199 H3189 0.930 . S
C3199 C3192 1.409 . S
C3199 C3198 1.362 . S
H3200 C3206 0.930 . S
H3201 C3209 0.930 . S
H3202 C3210 0.930 . S
H3203 C3211 0.930 . S
H3204 C3214 0.930 . S
H3205 C3215 0.930 . S
C3206 H3200 0.930 . S
C3206 C3207 1.355 . S
C3206 C3208 1.415 . S
C3207 C3206 1.355 . S
C3207 C3209 1.419 1_455 S
C3208 C3206 1.415 . S
C3208 C3213 1.425 1_455 S
C3208 C3215 1.409 . S
C3209 H3201 0.930 . S
C3209 C3207 1.419 1_655 S
C3209 C3210 1.362 . S
C3210 H3202 0.930 . S
C3210 C3209 1.362 . S
C3210 C3213 1.409 . S
C3211 H3203 0.930 . S
C3211 C3212 1.355 . S
C3211 C3213 1.415 . S
C3212 C3211 1.355 . S
C3212 C3214 1.419 1_655 S
C3213 C3208 1.425 1_655 S
C3213 C3210 1.409 . S
C3213 C3211 1.415 . S
C3214 H3204 0.930 . S
C3214 C3212 1.419 1_455 S
C3214 C3215 1.362 . S
C3215 H3205 0.930 . S
C3215 C3208 1.409 . S
C3215 C3214 1.362 . S
H3216 C3222 0.930 . S
H3217 C3225 0.930 . S
H3218 C3226 0.930 . S
H3219 C3227 0.930 . S
H3220 C3230 0.930 . S
H3221 C3231 0.930 . S
C3222 H3216 0.930 . S
C3222 C3223 1.355 . S
C3222 C3224 1.415 . S
C3223 C3222 1.355 . S
C3223 C3225 1.419 . S
C3224 C3222 1.415 . S
C3224 C3229 1.425 . S
C3224 C3231 1.409 . S
C3225 H3217 0.930 . S
C3225 C3223 1.419 . S
C3225 C3226 1.362 . S
C3226 H3218 0.930 . S
C3226 C3225 1.362 . S
C3226 C3229 1.409 . S
C3227 H3219 0.930 . S
C3227 C3228 1.355 . S
C3227 C3229 1.415 . S
C3228 C3227 1.355 . S
C3228 C3230 1.419 . S
C3229 C3224 1.425 . S
C3229 C3226 1.409 . S
C3229 C3227 1.415 . S
C3230 H3220 0.930 . S
C3230 C3228 1.419 . S
C3230 C3231 1.362 . S
C3231 H3221 0.930 . S
C3231 C3224 1.409 . S
C3231 C3230 1.362 . S
H3232 C3238 0.930 . S
H3233 C3241 0.930 . S
H3234 C3242 0.930 . S
H3235 C3243 0.930 . S
H3236 C3246 0.930 . S
H3237 C3247 0.930 . S
C3238 H3232 0.930 . S
C3238 C3239 1.355 . S
C3238 C3240 1.415 . S
C3239 C3238 1.355 . S
C3239 C3241 1.419 . S
C3240 C3238 1.415 . S
C3240 C3245 1.425 . S
C3240 C3247 1.409 . S
C3241 H3233 0.930 . S
C3241 C3239 1.419 . S
C3241 C3242 1.362 . S
C3242 H3234 0.930 . S
C3242 C3241 1.362 . S
C3242 C3245 1.409 . S
C3243 H3235 0.930 . S
C3243 C3244 1.355 . S
C3243 C3245 1.415 . S
C3244 C3243 1.355 . S
C3244 C3246 1.419 . S
C3245 C3240 1.425 . S
C3245 C3242 1.409 . S
C3245 C3243 1.415 . S
C3246 H3236 0.930 . S
C3246 C3244 1.419 . S
C3246 C3247 1.362 . S
C3247 H3237 0.930 . S
C3247 C3240 1.409 . S
C3247 C3246 1.362 . S
H3248 C3254 0.930 . S
H3249 C3257 0.930 . S
H3250 C3258 0.930 . S
H3251 C3259 0.930 . S
H3252 C3262 0.930 . S
H3253 C3263 0.930 . S
C3254 H3248 0.930 . S
C3254 C3255 1.355 . S
C3254 C3256 1.415 . S
C3255 C3254 1.355 . S
C3255 C3257 1.419 . S
C3256 C3254 1.415 . S
C3256 C3261 1.425 . S
C3256 C3263 1.409 . S
C3257 H3249 0.930 . S
C3257 C3255 1.419 . S
C3257 C3258 1.362 . S
C3258 H3250 0.930 . S
C3258 C3257 1.362 . S
C3258 C3261 1.409 . S
C3259 H3251 0.930 . S
C3259 C3260 1.355 . S
C3259 C3261 1.415 . S
C3260 C3259 1.355 . S
C3260 C3262 1.419 . S
C3261 C3256 1.425 . S
C3261 C3258 1.409 . S
C3261 C3259 1.415 . S
C3262 H3252 0.930 . S
C3262 C3260 1.419 . S
C3262 C3263 1.362 . S
C3263 H3253 0.930 . S
C3263 C3256 1.409 . S
C3263 C3262 1.362 . S
H3264 C3270 0.930 . S
H3265 C3273 0.930 . S
H3266 C3274 0.930 . S
H3267 C3275 0.930 . S
H3268 C3278 0.930 . S
H3269 C3279 0.930 . S
C3270 H3264 0.930 . S
C3270 C3271 1.355 . S
C3270 C3272 1.415 . S
C3271 C3270 1.355 . S
C3271 C3273 1.419 . S
C3272 C3270 1.415 . S
C3272 C3277 1.425 . S
C3272 C3279 1.409 . S
C3273 H3265 0.930 . S
C3273 C3271 1.419 . S
C3273 C3274 1.362 . S
C3274 H3266 0.930 . S
C3274 C3273 1.362 . S
C3274 C3277 1.409 . S
C3275 H3267 0.930 . S
C3275 C3276 1.355 . S
C3275 C3277 1.415 . S
C3276 C3275 1.355 . S
C3276 C3278 1.419 . S
C3277 C3272 1.425 . S
C3277 C3274 1.409 . S
C3277 C3275 1.415 . S
C3278 H3268 0.930 . S
C3278 C3276 1.419 . S
C3278 C3279 1.362 . S
C3279 H3269 0.930 . S
C3279 C3272 1.409 . S
C3279 C3278 1.362 . S
H3280 C3286 0.930 . S
H3281 C3289 0.930 . S
H3282 C3290 0.930 . S
H3283 C3291 0.930 . S
H3284 C3294 0.930 . S
H3285 C3295 0.930 . S
C3286 H3280 0.930 . S
C3286 C3287 1.355 . S
C3286 C3288 1.415 . S
C3287 C3286 1.355 . S
C3287 C3289 1.419 . S
C3288 C3286 1.415 . S
C3288 C3293 1.425 1_565 S
C3288 C3295 1.409 1_565 S
C3289 H3281 0.930 . S
C3289 C3287 1.419 . S
C3289 C3290 1.362 . S
C3290 H3282 0.930 . S
C3290 C3289 1.362 . S
C3290 C3293 1.409 1_565 S
C3291 H3283 0.930 . S
C3291 C3292 1.355 . S
C3291 C3293 1.415 . S
C3292 C3291 1.355 . S
C3292 C3294 1.419 . S
C3293 C3288 1.425 1_545 S
C3293 C3290 1.409 1_545 S
C3293 C3291 1.415 . S
C3294 H3284 0.930 . S
C3294 C3292 1.419 . S
C3294 C3295 1.362 . S
C3295 H3285 0.930 . S
C3295 C3288 1.409 1_545 S
C3295 C3294 1.362 . S
H3296 C3302 0.930 . S
H3297 C3305 0.930 . S
H3298 C3306 0.930 . S
H3299 C3307 0.930 . S
H3300 C3310 0.930 . S
H3301 C3311 0.930 . S
C3302 H3296 0.930 . S
C3302 C3303 1.355 . S
C3302 C3304 1.415 . S
C3303 C3302 1.355 . S
C3303 C3305 1.419 . S
C3304 C3302 1.415 . S
C3304 C3309 1.425 . S
C3304 C3311 1.409 . S
C3305 H3297 0.930 . S
C3305 C3303 1.419 . S
C3305 C3306 1.362 . S
C3306 H3298 0.930 . S
C3306 C3305 1.362 . S
C3306 C3309 1.409 . S
C3307 H3299 0.930 . S
C3307 C3308 1.355 . S
C3307 C3309 1.415 . S
C3308 C3307 1.355 . S
C3308 C3310 1.419 . S
C3309 C3304 1.425 . S
C3309 C3306 1.409 . S
C3309 C3307 1.415 . S
C3310 H3300 0.930 . S
C3310 C3308 1.419 . S
C3310 C3311 1.362 . S
C3311 H3301 0.930 . S
C3311 C3304 1.409 . S
C3311 C3310 1.362 . S
H3312 C3318 0.930 . S
H3313 C3321 0.930 . S
H3314 C3322 0.930 1_556 S
H3315 C3323 0.930 . S
H3316 C3326 0.930 . S
H3317 C3327 0.930 1_554 S
C3318 H3312 0.930 . S
C3318 C3319 1.355 . S
C3318 C3320 1.415 . S
C3319 C3318 1.355 . S
C3319 C3321 1.419 . S
C3320 C3318 1.415 . S
C3320 C3325 1.425 1_554 S
C3320 C3327 1.409 1_554 S
C3321 H3313 0.930 . S
C3321 C3319 1.419 . S
C3321 C3322 1.362 . S
C3322 H3314 0.930 1_554 S
C3322 C3321 1.362 . S
C3322 C3325 1.409 1_554 S
C3323 H3315 0.930 . S
C3323 C3324 1.355 . S
C3323 C3325 1.415 . S
C3324 C3323 1.355 . S
C3324 C3326 1.419 . S
C3325 C3320 1.425 1_556 S
C3325 C3322 1.409 1_556 S
C3325 C3323 1.415 . S
C3326 H3316 0.930 . S
C3326 C3324 1.419 . S
C3326 C3327 1.362 . S
C3327 H3317 0.930 1_556 S
C3327 C3320 1.409 1_556 S
C3327 C3326 1.362 . S
H3328 C3334 0.930 . S
H3329 C3337 0.930 . S
H3330 C3338 0.930 . S
H3331 C3339 0.930 . S
H3332 C3342 0.930 . S
H3333 C3343 0.930 . S
C3334 H3328 0.930 . S
C3334 C3335 1.355 . S
C3334 C3336 1.415 . S
C3335 C3334 1.355 . S
C3335 C3337 1.419 . S
C3336 C3334 1.415 . S
C3336 C3341 1.425 . S
C3336 C3343 1.409 . S
C3337 H3329 0.930 . S
C3337 C3335 1.419 . S
C3337 C3338 1.362 . S
C3338 H3330 0.930 . S
C3338 C3337 1.362 . S
C3338 C3341 1.409 . S
C3339 H3331 0.930 . S
C3339 C3340 1.355 . S
C3339 C3341 1.415 . S
C3340 C3339 1.355 . S
C3340 C3342 1.419 . S
C3341 C3336 1.425 . S
C3341 C3338 1.409 . S
C3341 C3339 1.415 . S
C3342 H3332 0.930 . S
C3342 C3340 1.419 . S
C3342 C3343 1.362 . S
C3343 H3333 0.930 . S
C3343 C3336 1.409 . S
C3343 C3342 1.362 . S
H3344 C3350 0.930 . S
H3345 C3353 0.930 . S
H3346 C3354 0.930 . S
H3347 C3355 0.930 . S
H3348 C3358 0.930 . S
H3349 C3359 0.930 . S
C3350 H3344 0.930 . S
C3350 C3351 1.355 . S
C3350 C3352 1.415 . S
C3351 C3350 1.355 . S
C3351 C3353 1.419 . S
C3352 C3350 1.415 . S
C3352 C3357 1.425 . S
C3352 C3359 1.409 . S
C3353 H3345 0.930 . S
C3353 C3351 1.419 . S
C3353 C3354 1.362 . S
C3354 H3346 0.930 . S
C3354 C3353 1.362 . S
C3354 C3357 1.409 . S
C3355 H3347 0.930 . S
C3355 C3356 1.355 . S
C3355 C3357 1.415 . S
C3356 C3355 1.355 . S
C3356 C3358 1.419 . S
C3357 C3352 1.425 . S
C3357 C3354 1.409 . S
C3357 C3355 1.415 . S
C3358 H3348 0.930 . S
C3358 C3356 1.419 . S
C3358 C3359 1.362 . S
C3359 H3349 0.930 . S
C3359 C3352 1.409 . S
C3359 C3358 1.362 . S
H3360 C3366 0.930 . S
H3361 C3369 0.930 . S
H3362 C3370 0.930 . S
H3363 C3371 0.930 . S
H3364 C3374 0.930 . S
H3365 C3375 0.930 . S
C3366 H3360 0.930 . S
C3366 C3367 1.355 . S
C3366 C3368 1.415 . S
C3367 C3366 1.355 . S
C3367 C3369 1.419 . S
C3368 C3366 1.415 . S
C3368 C3373 1.425 . S
C3368 C3375 1.409 . S
C3369 H3361 0.930 . S
C3369 C3367 1.419 . S
C3369 C3370 1.362 . S
C3370 H3362 0.930 . S
C3370 C3369 1.362 . S
C3370 C3373 1.409 . S
C3371 H3363 0.930 . S
C3371 C3372 1.355 . S
C3371 C3373 1.415 . S
C3372 C3371 1.355 . S
C3372 C3374 1.419 . S
C3373 C3368 1.425 . S
C3373 C3370 1.409 . S
C3373 C3371 1.415 . S
C3374 H3364 0.930 . S
C3374 C3372 1.419 . S
C3374 C3375 1.362 . S
C3375 H3365 0.930 . S
C3375 C3368 1.409 . S
C3375 C3374 1.362 . S
H3376 C3382 0.930 . S
H3377 C3385 0.930 . S
H3378 C3386 0.930 . S
H3379 C3387 0.930 . S
H3380 C3390 0.930 . S
H3381 C3391 0.930 . S
C3382 H3376 0.930 . S
C3382 C3383 1.355 . S
C3382 C3384 1.415 . S
C3383 C3382 1.355 . S
C3383 C3385 1.419 . S
C3384 C3382 1.415 . S
C3384 C3389 1.425 . S
C3384 C3391 1.409 . S
C3385 H3377 0.930 . S
C3385 C3383 1.419 . S
C3385 C3386 1.362 . S
C3386 H3378 0.930 . S
C3386 C3385 1.362 . S
C3386 C3389 1.409 . S
C3387 H3379 0.930 . S
C3387 C3388 1.355 . S
C3387 C3389 1.415 . S
C3388 C3387 1.355 . S
C3388 C3390 1.419 . S
C3389 C3384 1.425 . S
C3389 C3386 1.409 . S
C3389 C3387 1.415 . S
C3390 H3380 0.930 . S
C3390 C3388 1.419 . S
C3390 C3391 1.362 . S
C3391 H3381 0.930 . S
C3391 C3384 1.409 . S
C3391 C3390 1.362 . S
H3392 C3398 0.930 . S
H3393 C3401 0.930 . S
H3394 C3402 0.930 . S
H3395 C3403 0.930 . S
H3396 C3406 0.930 . S
H3397 C3407 0.930 . S
C3398 H3392 0.930 . S
C3398 C3399 1.355 . S
C3398 C3400 1.415 . S
C3399 C3398 1.355 . S
C3399 C3401 1.419 . S
C3400 C3398 1.415 . S
C3400 C3405 1.425 . S
C3400 C3407 1.409 . S
C3401 H3393 0.930 . S
C3401 C3399 1.419 . S
C3401 C3402 1.362 . S
C3402 H3394 0.930 . S
C3402 C3401 1.362 . S
C3402 C3405 1.409 . S
C3403 H3395 0.930 . S
C3403 C3404 1.355 . S
C3403 C3405 1.415 . S
C3404 C3403 1.355 . S
C3404 C3406 1.419 . S
C3405 C3400 1.425 . S
C3405 C3402 1.409 . S
C3405 C3403 1.415 . S
C3406 H3396 0.930 . S
C3406 C3404 1.419 . S
C3406 C3407 1.362 . S
C3407 H3397 0.930 . S
C3407 C3400 1.409 . S
C3407 C3406 1.362 . S
H3408 C3414 0.930 . S
H3409 C3417 0.930 . S
H3410 C3418 0.930 . S
H3411 C3419 0.930 . S
H3412 C3422 0.930 . S
H3413 C3423 0.930 . S
C3414 H3408 0.930 . S
C3414 C3415 1.355 . S
C3414 C3416 1.415 . S
C3415 C3414 1.355 . S
C3415 C3417 1.419 . S
C3416 C3414 1.415 . S
C3416 C3421 1.425 . S
C3416 C3423 1.409 . S
C3417 H3409 0.930 . S
C3417 C3415 1.419 . S
C3417 C3418 1.362 . S
C3418 H3410 0.930 . S
C3418 C3417 1.362 . S
C3418 C3421 1.409 . S
C3419 H3411 0.930 . S
C3419 C3420 1.355 . S
C3419 C3421 1.415 . S
C3420 C3419 1.355 . S
C3420 C3422 1.419 . S
C3421 C3416 1.425 . S
C3421 C3418 1.409 . S
C3421 C3419 1.415 . S
C3422 H3412 0.930 . S
C3422 C3420 1.419 . S
C3422 C3423 1.362 . S
C3423 H3413 0.930 . S
C3423 C3416 1.409 . S
C3423 C3422 1.362 . S
H3424 C3430 0.930 . S
H3425 C3433 0.930 . S
H3426 C3434 0.930 . S
H3427 C3435 0.930 . S
H3428 C3438 0.930 . S
H3429 C3439 0.930 . S
C3430 H3424 0.930 . S
C3430 C3431 1.355 . S
C3430 C3432 1.415 . S
C3431 C3430 1.355 . S
C3431 C3433 1.419 . S
C3432 C3430 1.415 . S
C3432 C3437 1.425 . S
C3432 C3439 1.409 . S
C3433 H3425 0.930 . S
C3433 C3431 1.419 . S
C3433 C3434 1.362 . S
C3434 H3426 0.930 . S
C3434 C3433 1.362 . S
C3434 C3437 1.409 . S
C3435 H3427 0.930 . S
C3435 C3436 1.355 . S
C3435 C3437 1.415 . S
C3436 C3435 1.355 . S
C3436 C3438 1.419 . S
C3437 C3432 1.425 . S
C3437 C3434 1.409 . S
C3437 C3435 1.415 . S
C3438 H3428 0.930 . S
C3438 C3436 1.419 . S
C3438 C3439 1.362 . S
C3439 H3429 0.930 . S
C3439 C3432 1.409 . S
C3439 C3438 1.362 . S
H3440 C3446 0.930 . S
H3441 C3449 0.930 . S
H3442 C3450 0.930 . S
H3443 C3451 0.930 . S
H3444 C3454 0.930 . S
H3445 C3455 0.930 . S
C3446 H3440 0.930 . S
C3446 C3447 1.355 . S
C3446 C3448 1.415 . S
C3447 C3446 1.355 . S
C3447 C3449 1.419 . S
C3448 C3446 1.415 . S
C3448 C3453 1.425 . S
C3448 C3455 1.409 . S
C3449 H3441 0.930 . S
C3449 C3447 1.419 . S
C3449 C3450 1.362 . S
C3450 H3442 0.930 . S
C3450 C3449 1.362 . S
C3450 C3453 1.409 . S
C3451 H3443 0.930 . S
C3451 C3452 1.355 . S
C3451 C3453 1.415 . S
C3452 C3451 1.355 . S
C3452 C3454 1.419 . S
C3453 C3448 1.425 . S
C3453 C3450 1.409 . S
C3453 C3451 1.415 . S
C3454 H3444 0.930 . S
C3454 C3452 1.419 . S
C3454 C3455 1.362 . S
C3455 H3445 0.930 . S
C3455 C3448 1.409 . S
C3455 C3454 1.362 . S
H3456 C3462 0.930 . S
H3457 C3465 0.930 . S
H3458 C3466 0.930 . S
H3459 C3467 0.930 . S
H3460 C3470 0.930 . S
H3461 C3471 0.930 . S
C3462 H3456 0.930 . S
C3462 C3463 1.355 . S
C3462 C3464 1.415 . S
C3463 C3462 1.355 . S
C3463 C3465 1.419 . S
C3464 C3462 1.415 . S
C3464 C3469 1.425 . S
C3464 C3471 1.409 . S
C3465 H3457 0.930 . S
C3465 C3463 1.419 . S
C3465 C3466 1.362 . S
C3466 H3458 0.930 . S
C3466 C3465 1.362 . S
C3466 C3469 1.409 . S
C3467 H3459 0.930 . S
C3467 C3468 1.355 . S
C3467 C3469 1.415 . S
C3468 C3467 1.355 . S
C3468 C3470 1.419 . S
C3469 C3464 1.425 . S
C3469 C3466 1.409 . S
C3469 C3467 1.415 . S
C3470 H3460 0.930 . S
C3470 C3468 1.419 . S
C3470 C3471 1.362 . S
C3471 H3461 0.930 . S
C3471 C3464 1.409 . S
C3471 C3470 1.362 . S
H3472 C3478 0.930 . S
H3473 C3481 0.930 . S
H3474 C3482 0.930 . S
H3475 C3483 0.930 . S
H3476 C3486 0.930 . S
H3477 C3487 0.930 . S
C3478 H3472 0.930 . S
C3478 C3479 1.355 . S
C3478 C3480 1.415 . S
C3479 C3478 1.355 . S
C3479 C3481 1.419 . S
C3480 C3478 1.415 . S
C3480 C3485 1.425 . S
C3480 C3487 1.409 . S
C3481 H3473 0.930 . S
C3481 C3479 1.419 . S
C3481 C3482 1.362 . S
C3482 H3474 0.930 . S
C3482 C3481 1.362 . S
C3482 C3485 1.409 . S
C3483 H3475 0.930 . S
C3483 C3484 1.355 . S
C3483 C3485 1.415 . S
C3484 C3483 1.355 . S
C3484 C3486 1.419 . S
C3485 C3480 1.425 . S
C3485 C3482 1.409 . S
C3485 C3483 1.415 . S
C3486 H3476 0.930 . S
C3486 C3484 1.419 . S
C3486 C3487 1.362 . S
C3487 H3477 0.930 . S
C3487 C3480 1.409 . S
C3487 C3486 1.362 . S
H3488 C3494 0.930 . S
H3489 C3497 0.930 . S
H3490 C3498 0.930 . S
H3491 C3499 0.930 . S
H3492 C3502 0.930 . S
H3493 C3503 0.930 . S
C3494 H3488 0.930 . S
C3494 C3495 1.355 . S
C3494 C3496 1.415 . S
C3495 C3494 1.355 . S
C3495 C3497 1.419 . S
C3496 C3494 1.415 . S
C3496 C3501 1.425 . S
C3496 C3503 1.409 . S
C3497 H3489 0.930 . S
C3497 C3495 1.419 . S
C3497 C3498 1.362 . S
C3498 H3490 0.930 . S
C3498 C3497 1.362 . S
C3498 C3501 1.409 . S
C3499 H3491 0.930 . S
C3499 C3500 1.355 . S
C3499 C3501 1.415 . S
C3500 C3499 1.355 . S
C3500 C3502 1.419 . S
C3501 C3496 1.425 . S
C3501 C3498 1.409 . S
C3501 C3499 1.415 . S
C3502 H3492 0.930 . S
C3502 C3500 1.419 . S
C3502 C3503 1.362 . S
C3503 H3493 0.930 . S
C3503 C3496 1.409 . S
C3503 C3502 1.362 . S
H3504 C3510 0.930 . S
H3505 C3513 0.930 . S
H3506 C3514 0.930 . S
H3507 C3515 0.930 . S
H3508 C3518 0.930 . S
H3509 C3519 0.930 . S
C3510 H3504 0.930 . S
C3510 C3511 1.355 . S
C3510 C3512 1.415 . S
C3511 C3510 1.355 . S
C3511 C3513 1.419 . S
C3512 C3510 1.415 . S
C3512 C3517 1.425 . S
C3512 C3519 1.409 . S
C3513 H3505 0.930 . S
C3513 C3511 1.419 . S
C3513 C3514 1.362 . S
C3514 H3506 0.930 . S
C3514 C3513 1.362 . S
C3514 C3517 1.409 . S
C3515 H3507 0.930 . S
C3515 C3516 1.355 . S
C3515 C3517 1.415 . S
C3516 C3515 1.355 . S
C3516 C3518 1.419 . S
C3517 C3512 1.425 . S
C3517 C3514 1.409 . S
C3517 C3515 1.415 . S
C3518 H3508 0.930 . S
C3518 C3516 1.419 . S
C3518 C3519 1.362 . S
C3519 H3509 0.930 . S
C3519 C3512 1.409 . S
C3519 C3518 1.362 . S
H3520 C3526 0.930 . S
H3521 C3529 0.930 . S
H3522 C3530 0.930 . S
H3523 C3531 0.930 . S
H3524 C3534 0.930 . S
H3525 C3535 0.930 . S
C3526 H3520 0.930 . S
C3526 C3527 1.355 . S
C3526 C3528 1.415 . S
C3527 C3526 1.355 . S
C3527 C3529 1.419 . S
C3528 C3526 1.415 . S
C3528 C3533 1.425 . S
C3528 C3535 1.409 . S
C3529 H3521 0.930 . S
C3529 C3527 1.419 . S
C3529 C3530 1.362 . S
C3530 H3522 0.930 . S
C3530 C3529 1.362 . S
C3530 C3533 1.409 . S
C3531 H3523 0.930 . S
C3531 C3532 1.355 . S
C3531 C3533 1.415 . S
C3532 C3531 1.355 . S
C3532 C3534 1.419 . S
C3533 C3528 1.425 . S
C3533 C3530 1.409 . S
C3533 C3531 1.415 . S
C3534 H3524 0.930 . S
C3534 C3532 1.419 . S
C3534 C3535 1.362 . S
C3535 H3525 0.930 . S
C3535 C3528 1.409 . S
C3535 C3534 1.362 . S
H3536 C3542 0.930 . S
H3537 C3545 0.930 . S
H3538 C3546 0.930 . S
H3539 C3547 0.930 . S
H3540 C3550 0.930 . S
H3541 C3551 0.930 . S
C3542 H3536 0.930 . S
C3542 C3543 1.355 . S
C3542 C3544 1.415 . S
C3543 C3542 1.355 . S
C3543 C3545 1.419 . S
C3544 C3542 1.415 . S
C3544 C3549 1.425 . S
C3544 C3551 1.409 . S
C3545 H3537 0.930 . S
C3545 C3543 1.419 . S
C3545 C3546 1.362 . S
C3546 H3538 0.930 . S
C3546 C3545 1.362 . S
C3546 C3549 1.409 . S
C3547 H3539 0.930 . S
C3547 C3548 1.355 . S
C3547 C3549 1.415 . S
C3548 C3547 1.355 . S
C3548 C3550 1.419 . S
C3549 C3544 1.425 . S
C3549 C3546 1.409 . S
C3549 C3547 1.415 . S
C3550 H3540 0.930 . S
C3550 C3548 1.419 . S
C3550 C3551 1.362 . S
C3551 H3541 0.930 . S
C3551 C3544 1.409 . S
C3551 C3550 1.362 . S
H3552 C3558 0.930 . S
H3553 C3561 0.930 . S
H3554 C3562 0.930 . S
H3555 C3563 0.930 . S
H3556 C3566 0.930 . S
H3557 C3567 0.930 . S
C3558 H3552 0.930 . S
C3558 C3559 1.355 . S
C3558 C3560 1.415 . S
C3559 C3558 1.355 . S
C3559 C3561 1.419 . S
C3560 C3558 1.415 . S
C3560 C3565 1.425 . S
C3560 C3567 1.409 . S
C3561 H3553 0.930 . S
C3561 C3559 1.419 . S
C3561 C3562 1.362 . S
C3562 H3554 0.930 . S
C3562 C3561 1.362 . S
C3562 C3565 1.409 . S
C3563 H3555 0.930 . S
C3563 C3564 1.355 . S
C3563 C3565 1.415 . S
C3564 C3563 1.355 . S
C3564 C3566 1.419 . S
C3565 C3560 1.425 . S
C3565 C3562 1.409 . S
C3565 C3563 1.415 . S
C3566 H3556 0.930 . S
C3566 C3564 1.419 . S
C3566 C3567 1.362 . S
C3567 H3557 0.930 . S
C3567 C3560 1.409 . S
C3567 C3566 1.362 . S
H3568 C3574 0.930 . S
H3569 C3577 0.930 . S
H3570 C3578 0.930 . S
H3571 C3579 0.930 . S
H3572 C3582 0.930 . S
H3573 C3583 0.930 . S
C3574 H3568 0.930 . S
C3574 C3575 1.355 . S
C3574 C3576 1.415 . S
C3575 C3574 1.355 . S
C3575 C3577 1.419 . S
C3576 C3574 1.415 . S
C3576 C3581 1.425 . S
C3576 C3583 1.409 . S
C3577 H3569 0.930 . S
C3577 C3575 1.419 . S
C3577 C3578 1.362 . S
C3578 H3570 0.930 . S
C3578 C3577 1.362 . S
C3578 C3581 1.409 . S
C3579 H3571 0.930 . S
C3579 C3580 1.355 . S
C3579 C3581 1.415 . S
C3580 C3579 1.355 . S
C3580 C3582 1.419 . S
C3581 C3576 1.425 . S
C3581 C3578 1.409 . S
C3581 C3579 1.415 . S
C3582 H3572 0.930 . S
C3582 C3580 1.419 . S
C3582 C3583 1.362 . S
C3583 H3573 0.930 . S
C3583 C3576 1.409 . S
C3583 C3582 1.362 . S
H3584 C3590 0.930 . S
H3585 C3593 0.930 . S
H3586 C3594 0.930 1_655 S
H3587 C3595 0.930 . S
H3588 C3598 0.930 . S
H3589 C3599 0.930 . S
C3590 H3584 0.930 . S
C3590 C3591 1.355 . S
C3590 C3592 1.415 . S
C3591 C3590 1.355 . S
C3591 C3593 1.419 . S
C3592 C3590 1.415 . S
C3592 C3597 1.425 . S
C3592 C3599 1.409 . S
C3593 H3585 0.930 . S
C3593 C3591 1.419 . S
C3593 C3594 1.362 . S
C3594 H3586 0.930 1_455 S
C3594 C3593 1.362 . S
C3594 C3597 1.409 . S
C3595 H3587 0.930 . S
C3595 C3596 1.355 . S
C3595 C3597 1.415 . S
C3596 C3595 1.355 . S
C3596 C3598 1.419 . S
C3597 C3592 1.425 . S
C3597 C3594 1.409 . S
C3597 C3595 1.415 . S
C3598 H3588 0.930 . S
C3598 C3596 1.419 . S
C3598 C3599 1.362 . S
C3599 H3589 0.930 . S
C3599 C3592 1.409 . S
C3599 C3598 1.362 . S
H3600 C3606 0.930 . S
H3601 C3609 0.930 . S
H3602 C3610 0.930 . S
H3603 C3611 0.930 . S
H3604 C3614 0.930 . S
H3605 C3615 0.930 . S
C3606 H3600 0.930 . S
C3606 C3607 1.355 . S
C3606 C3608 1.415 . S
C3607 C3606 1.355 . S
C3607 C3609 1.419 . S
C3608 C3606 1.415 . S
C3608 C3613 1.425 . S
C3608 C3615 1.409 . S
C3609 H3601 0.930 . S
C3609 C3607 1.419 . S
C3609 C3610 1.362 . S
C3610 H3602 0.930 . S
C3610 C3609 1.362 . S
C3610 C3613 1.409 . S
C3611 H3603 0.930 . S
C3611 C3612 1.355 . S
C3611 C3613 1.415 . S
C3612 C3611 1.355 . S
C3612 C3614 1.419 . S
C3613 C3608 1.425 . S
C3613 C3610 1.409 . S
C3613 C3611 1.415 . S
C3614 H3604 0.930 . S
C3614 C3612 1.419 . S
C3614 C3615 1.362 . S
C3615 H3605 0.930 . S
C3615 C3608 1.409 . S
C3615 C3614 1.362 . S
H3616 C3622 0.930 . S
H3617 C3625 0.930 . S
H3618 C3626 0.930 . S
H3619 C3627 0.930 . S
H3620 C3630 0.930 . S
H3621 C3631 0.930 . S
C3622 H3616 0.930 . S
C3622 C3623 1.355 . S
C3622 C3624 1.415 . S
C3623 C3622 1.355 . S
C3623 C3625 1.419 . S
C3624 C3622 1.415 . S
C3624 C3629 1.425 . S
C3624 C3631 1.409 . S
C3625 H3617 0.930 . S
C3625 C3623 1.419 . S
C3625 C3626 1.362 . S
C3626 H3618 0.930 . S
C3626 C3625 1.362 . S
C3626 C3629 1.409 . S
C3627 H3619 0.930 . S
C3627 C3628 1.355 . S
C3627 C3629 1.415 . S
C3628 C3627 1.355 . S
C3628 C3630 1.419 . S
C3629 C3624 1.425 . S
C3629 C3626 1.409 . S
C3629 C3627 1.415 . S
C3630 H3620 0.930 . S
C3630 C3628 1.419 . S
C3630 C3631 1.362 . S
C3631 H3621 0.930 . S
C3631 C3624 1.409 . S
C3631 C3630 1.362 . S
H3632 C3638 0.930 . S
H3633 C3641 0.930 . S
H3634 C3642 0.930 . S
H3635 C3643 0.930 . S
H3636 C3646 0.930 . S
H3637 C3647 0.930 . S
C3638 H3632 0.930 . S
C3638 C3639 1.355 . S
C3638 C3640 1.415 . S
C3639 C3638 1.355 . S
C3639 C3641 1.419 . S
C3640 C3638 1.415 . S
C3640 C3645 1.425 . S
C3640 C3647 1.409 . S
C3641 H3633 0.930 . S
C3641 C3639 1.419 . S
C3641 C3642 1.362 . S
C3642 H3634 0.930 . S
C3642 C3641 1.362 . S
C3642 C3645 1.409 . S
C3643 H3635 0.930 . S
C3643 C3644 1.355 . S
C3643 C3645 1.415 . S
C3644 C3643 1.355 . S
C3644 C3646 1.419 . S
C3645 C3640 1.425 . S
C3645 C3642 1.409 . S
C3645 C3643 1.415 . S
C3646 H3636 0.930 . S
C3646 C3644 1.419 . S
C3646 C3647 1.362 . S
C3647 H3637 0.930 . S
C3647 C3640 1.409 . S
C3647 C3646 1.362 . S
H3648 C3654 0.930 . S
H3649 C3657 0.930 . S
H3650 C3658 0.930 . S
H3651 C3659 0.930 . S
H3652 C3662 0.930 . S
H3653 C3663 0.930 . S
C3654 H3648 0.930 . S
C3654 C3655 1.355 . S
C3654 C3656 1.415 . S
C3655 C3654 1.355 . S
C3655 C3657 1.419 . S
C3656 C3654 1.415 . S
C3656 C3661 1.425 . S
C3656 C3663 1.409 . S
C3657 H3649 0.930 . S
C3657 C3655 1.419 . S
C3657 C3658 1.362 . S
C3658 H3650 0.930 . S
C3658 C3657 1.362 . S
C3658 C3661 1.409 . S
C3659 H3651 0.930 . S
C3659 C3660 1.355 . S
C3659 C3661 1.415 . S
C3660 C3659 1.355 . S
C3660 C3662 1.419 . S
C3661 C3656 1.425 . S
C3661 C3658 1.409 . S
C3661 C3659 1.415 . S
C3662 H3652 0.930 . S
C3662 C3660 1.419 . S
C3662 C3663 1.362 . S
C3663 H3653 0.930 . S
C3663 C3656 1.409 . S
C3663 C3662 1.362 . S
H3664 C3670 0.930 . S
H3665 C3673 0.930 . S
H3666 C3674 0.930 . S
H3667 C3675 0.930 . S
H3668 C3678 0.930 . S
H3669 C3679 0.930 . S
C3670 H3664 0.930 . S
C3670 C3671 1.355 . S
C3670 C3672 1.415 . S
C3671 C3670 1.355 . S
C3671 C3673 1.419 . S
C3672 C3670 1.415 . S
C3672 C3677 1.425 . S
C3672 C3679 1.409 . S
C3673 H3665 0.930 . S
C3673 C3671 1.419 . S
C3673 C3674 1.362 . S
C3674 H3666 0.930 . S
C3674 C3673 1.362 . S
C3674 C3677 1.409 . S
C3675 H3667 0.930 . S
C3675 C3676 1.355 . S
C3675 C3677 1.415 . S
C3676 C3675 1.355 . S
C3676 C3678 1.419 . S
C3677 C3672 1.425 . S
C3677 C3674 1.409 . S
C3677 C3675 1.415 . S
C3678 H3668 0.930 . S
C3678 C3676 1.419 . S
C3678 C3679 1.362 . S
C3679 H3669 0.930 . S
C3679 C3672 1.409 . S
C3679 C3678 1.362 . S
H3680 C3686 0.930 . S
H3681 C3689 0.963 . S
H3682 C3690 0.930 1_455 S
H3683 C3691 0.930 . S
H3684 C3694 0.930 . S
H3685 C3695 0.930 . S
C3686 H3680 0.930 . S
C3686 C3687 1.355 . S
C3686 C3688 1.415 . S
C3687 C3686 1.355 . S
C3687 C3689 1.419 . S
C3688 C3686 1.415 . S
C3688 C3693 1.425 . S
C3688 C3695 1.409 . S
C3689 H3681 0.963 . S
C3689 C3687 1.419 . S
C3689 C3690 1.362 . S
C3690 H3682 0.930 1_655 S
C3690 C3689 1.362 . S
C3690 C3693 1.409 . S
C3691 H3683 0.930 . S
C3691 C3692 1.355 . S
C3691 C3693 1.415 . S
C3692 C3691 1.355 . S
C3692 C3694 1.419 . S
C3693 C3688 1.425 . S
C3693 C3690 1.409 . S
C3693 C3691 1.415 . S
C3694 H3684 0.930 . S
C3694 C3692 1.419 . S
C3694 C3695 1.362 . S
C3695 H3685 0.930 . S
C3695 C3688 1.409 . S
C3695 C3694 1.362 . S
H3696 C3702 0.930 . S
H3697 C3705 0.930 . S
H3698 C3706 0.930 . S
H3699 C3707 0.930 . S
H3700 C3710 0.930 . S
H3701 C3711 0.930 . S
C3702 H3696 0.930 . S
C3702 C3703 1.355 . S
C3702 C3704 1.415 . S
C3703 C3702 1.355 . S
C3703 C3705 1.419 . S
C3704 C3702 1.415 . S
C3704 C3709 1.425 . S
C3704 C3711 1.409 . S
C3705 H3697 0.930 . S
C3705 C3703 1.419 . S
C3705 C3706 1.362 . S
C3706 H3698 0.930 . S
C3706 C3705 1.362 . S
C3706 C3709 1.409 . S
C3707 H3699 0.930 . S
C3707 C3708 1.355 . S
C3707 C3709 1.415 . S
C3708 C3707 1.355 . S
C3708 C3710 1.419 . S
C3709 C3704 1.425 . S
C3709 C3706 1.409 . S
C3709 C3707 1.415 . S
C3710 H3700 0.930 . S
C3710 C3708 1.419 . S
C3710 C3711 1.362 . S
C3711 H3701 0.930 . S
C3711 C3704 1.409 . S
C3711 C3710 1.362 . S
H3712 C3718 0.930 . S
H3713 C3721 0.930 . S
H3714 C3722 0.930 . S
H3715 C3723 0.930 . S
H3716 C3726 0.930 . S
H3717 C3727 0.930 . S
C3718 H3712 0.930 . S
C3718 C3719 1.355 . S
C3718 C3720 1.415 . S
C3719 C3718 1.355 . S
C3719 C3721 1.419 . S
C3720 C3718 1.415 . S
C3720 C3725 1.425 . S
C3720 C3727 1.409 . S
C3721 H3713 0.930 . S
C3721 C3719 1.419 . S
C3721 C3722 1.362 . S
C3722 H3714 0.930 . S
C3722 C3721 1.362 . S
C3722 C3725 1.409 . S
C3723 H3715 0.930 . S
C3723 C3724 1.355 . S
C3723 C3725 1.415 . S
C3724 C3723 1.355 . S
C3724 C3726 1.419 . S
C3725 C3720 1.425 . S
C3725 C3722 1.409 . S
C3725 C3723 1.415 . S
C3726 H3716 0.930 . S
C3726 C3724 1.419 . S
C3726 C3727 1.362 . S
C3727 H3717 0.930 . S
C3727 C3720 1.409 . S
C3727 C3726 1.362 . S
H3728 C3734 0.930 . S
H3729 C3737 0.930 . S
H3730 C3738 0.930 . S
H3731 C3739 0.930 . S
H3732 C3742 0.930 . S
H3733 C3743 0.930 . S
C3734 H3728 0.930 . S
C3734 C3735 1.355 . S
C3734 C3736 1.415 . S
C3735 C3734 1.355 . S
C3735 C3737 1.419 . S
C3736 C3734 1.415 . S
C3736 C3741 1.425 . S
C3736 C3743 1.409 . S
C3737 H3729 0.930 . S
C3737 C3735 1.419 . S
C3737 C3738 1.362 . S
C3738 H3730 0.930 . S
C3738 C3737 1.362 . S
C3738 C3741 1.409 . S
C3739 H3731 0.930 . S
C3739 C3740 1.355 . S
C3739 C3741 1.415 . S
C3740 C3739 1.355 . S
C3740 C3742 1.419 . S
C3741 C3736 1.425 . S
C3741 C3738 1.409 . S
C3741 C3739 1.415 . S
C3742 H3732 0.930 . S
C3742 C3740 1.419 . S
C3742 C3743 1.362 . S
C3743 H3733 0.930 . S
C3743 C3736 1.409 . S
C3743 C3742 1.362 . S
H3744 C3750 0.930 . S
H3745 C3753 0.930 . S
H3746 C3754 0.930 . S
H3747 C3755 0.930 . S
H3748 C3758 0.930 . S
H3749 C3759 0.930 . S
C3750 H3744 0.930 . S
C3750 C3751 1.355 . S
C3750 C3752 1.415 . S
C3751 C3750 1.355 . S
C3751 C3753 1.419 . S
C3752 C3750 1.415 . S
C3752 C3757 1.425 . S
C3752 C3759 1.409 . S
C3753 H3745 0.930 . S
C3753 C3751 1.419 . S
C3753 C3754 1.362 . S
C3754 H3746 0.930 . S
C3754 C3753 1.362 . S
C3754 C3757 1.409 . S
C3755 H3747 0.930 . S
C3755 C3756 1.355 . S
C3755 C3757 1.415 . S
C3756 C3755 1.355 . S
C3756 C3758 1.419 . S
C3757 C3752 1.425 . S
C3757 C3754 1.409 . S
C3757 C3755 1.415 . S
C3758 H3748 0.930 . S
C3758 C3756 1.419 . S
C3758 C3759 1.362 . S
C3759 H3749 0.930 . S
C3759 C3752 1.409 . S
C3759 C3758 1.362 . S
H3760 C3766 0.930 . S
H3761 C3769 0.930 . S
H3762 C3770 0.930 . S
H3763 C3771 0.930 . S
H3764 C3774 0.930 . S
H3765 C3775 0.930 . S
C3766 H3760 0.930 . S
C3766 C3767 1.355 . S
C3766 C3768 1.415 . S
C3767 C3766 1.355 . S
C3767 C3769 1.419 . S
C3768 C3766 1.415 . S
C3768 C3773 1.425 . S
C3768 C3775 1.409 . S
C3769 H3761 0.930 . S
C3769 C3767 1.419 . S
C3769 C3770 1.362 . S
C3770 H3762 0.930 . S
C3770 C3769 1.362 . S
C3770 C3773 1.409 . S
C3771 H3763 0.930 . S
C3771 C3772 1.355 . S
C3771 C3773 1.415 . S
C3772 C3771 1.355 . S
C3772 C3774 1.419 . S
C3773 C3768 1.425 . S
C3773 C3770 1.409 . S
C3773 C3771 1.415 . S
C3774 H3764 0.930 . S
C3774 C3772 1.419 . S
C3774 C3775 1.362 . S
C3775 H3765 0.930 . S
C3775 C3768 1.409 . S
C3775 C3774 1.362 . S
H3776 C3782 0.930 . S
H3777 C3785 0.930 . S
H3778 C3786 0.930 . S
H3779 C3787 0.930 . S
H3780 C3790 0.930 . S
H3781 C3791 0.930 . S
C3782 H3776 0.930 . S
C3782 C3783 1.355 . S
C3782 C3784 1.415 . S
C3783 C3782 1.355 . S
C3783 C3785 1.419 . S
C3784 C3782 1.415 . S
C3784 C3789 1.425 . S
C3784 C3791 1.409 . S
C3785 H3777 0.930 . S
C3785 C3783 1.419 . S
C3785 C3786 1.362 . S
C3786 H3778 0.930 . S
C3786 C3785 1.362 . S
C3786 C3789 1.409 . S
C3787 H3779 0.930 . S
C3787 C3788 1.355 . S
C3787 C3789 1.415 . S
C3788 C3787 1.355 . S
C3788 C3790 1.419 . S
C3789 C3784 1.425 . S
C3789 C3786 1.409 . S
C3789 C3787 1.415 . S
C3790 H3780 0.930 . S
C3790 C3788 1.419 . S
C3790 C3791 1.362 . S
C3791 H3781 0.930 . S
C3791 C3784 1.409 . S
C3791 C3790 1.362 . S
H3792 C3798 0.930 . S
H3793 C3801 0.930 . S
H3794 C3802 0.930 . S
H3795 C3803 0.930 . S
H3796 C3806 0.930 . S
H3797 C3807 0.930 . S
C3798 H3792 0.930 . S
C3798 C3799 1.355 . S
C3798 C3800 1.415 . S
C3799 C3798 1.355 . S
C3799 C3801 1.419 . S
C3800 C3798 1.415 . S
C3800 C3805 1.425 . S
C3800 C3807 1.409 . S
C3801 H3793 0.930 . S
C3801 C3799 1.419 . S
C3801 C3802 1.362 . S
C3802 H3794 0.930 . S
C3802 C3801 1.362 . S
C3802 C3805 1.409 . S
C3803 H3795 0.930 . S
C3803 C3804 1.355 . S
C3803 C3805 1.415 . S
C3804 C3803 1.355 . S
C3804 C3806 1.419 . S
C3805 C3800 1.425 . S
C3805 C3802 1.409 . S
C3805 C3803 1.415 . S
C3806 H3796 0.930 . S
C3806 C3804 1.419 . S
C3806 C3807 1.362 . S
C3807 H3797 0.930 . S
C3807 C3800 1.409 . S
C3807 C3806 1.362 . S
H3808 C3814 0.930 . S
H3809 C3817 0.930 . S
H3810 C3818 0.930 . S
H3811 C3819 0.930 . S
H3812 C3822 0.930 . S
H3813 C3823 0.930 . S
C3814 H3808 0.930 . S
C3814 C3815 1.355 . S
C3814 C3816 1.415 . S
C3815 C3814 1.355 . S
C3815 C3817 1.419 . S
C3816 C3814 1.415 . S
C3816 C3821 1.425 . S
C3816 C3823 1.409 . S
C3817 H3809 0.930 . S
C3817 C3815 1.419 . S
C3817 C3818 1.362 . S
C3818 H3810 0.930 . S
C3818 C3817 1.362 . S
C3818 C3821 1.409 . S
C3819 H3811 0.930 . S
C3819 C3820 1.355 . S
C3819 C3821 1.415 . S
C3820 C3819 1.355 . S
C3820 C3822 1.419 . S
C3821 C3816 1.425 . S
C3821 C3818 1.409 . S
C3821 C3819 1.415 . S
C3822 H3812 0.930 . S
C3822 C3820 1.419 . S
C3822 C3823 1.362 . S
C3823 H3813 0.930 . S
C3823 C3816 1.409 . S
C3823 C3822 1.362 . S
H3824 C3830 0.930 . S
H3825 C3833 0.930 . S
H3826 C3834 0.930 . S
H3827 C3835 0.930 . S
H3828 C3838 0.930 . S
H3829 C3839 0.930 . S
C3830 H3824 0.930 . S
C3830 C3831 1.355 . S
C3830 C3832 1.415 . S
C3831 C3830 1.355 . S
C3831 C3833 1.419 . S
C3832 C3830 1.415 . S
C3832 C3837 1.425 . S
C3832 C3839 1.409 . S
C3833 H3825 0.930 . S
C3833 C3831 1.419 . S
C3833 C3834 1.362 . S
C3834 H3826 0.930 . S
C3834 C3833 1.362 . S
C3834 C3837 1.409 . S
C3835 H3827 0.930 . S
C3835 C3836 1.355 . S
C3835 C3837 1.415 . S
C3836 C3835 1.355 . S
C3836 C3838 1.419 . S
C3837 C3832 1.425 . S
C3837 C3834 1.409 . S
C3837 C3835 1.415 . S
C3838 H3828 0.930 . S
C3838 C3836 1.419 . S
C3838 C3839 1.362 . S
C3839 H3829 0.930 . S
C3839 C3832 1.409 . S
C3839 C3838 1.362 . S
C2823 C49 1.550 . S
C2828 C108 1.544 . S
C2839 C321 1.551 . S
C2844 C196 1.536 . S
C2855 C409 1.543 . S
C2860 C460 1.553 . S
C2871 C548 1.539 . S
C2876 C665 1.555 . S
C2887 C753 1.553 . S
C2892 C812 1.539 . S
C2903 C909 1.550 . S
C2908 C1017 1.543 . S
C2919 C1105 1.539 . S
C2924 C1164 1.555 . S
C2935 C1252 1.537 . S
C2940 C1369 1.545 . S
C2951 C1516 1.549 . S
C2956 C1457 1.537 . S
C2967 C1721 1.549 . S
C2972 C1613 1.537 . S
C2983 C1868 1.548 . S
C2988 C1817 1.549 . S
C2999 C2073 1.534 . S
C3004 C1956 1.552 . S
C3015 C2220 1.546 . S
C3020 C2169 1.540 . S
C3031 C2433 1.554 . S
C3036 C2317 1.538 . S
C3047 C2572 1.549 . S
C3052 C2513 1.548 . S
C3063 C2777 1.541 . S
C3068 C2660 1.540 . S
C3079 C20 1.609 . S
C3084 C1076 1.618 . S
C3095 C137 1.627 . S
C3100 C1897 1.634 . S
C3111 C225 1.614 . S
C3116 C577 1.623 . S
C3127 C293 1.560 . S
C3132 C2748 1.570 . S
C3143 C381 1.568 . S
C3148 C724 1.558 . S
C3159 C1545 1.642 . S
C3164 C489 1.649 . S
C3175 C2405 1.602 . S
C3180 C636 1.610 . S
C3191 C841 1.605 . S
C3196 C2601 1.614 . S
C3207 C937 1.643 . S
C3212 C1281 1.651 . S
C3223 C988 1.596 . S
C3228 C2044 1.606 . S
C3239 C1193 1.621 . S
C3244 C2249 1.614 . S
C3255 C1340 1.651 . S
C3260 C1692 1.644 . S
C3271 C2484 1.569 . S
C3276 C1428 1.559 . S
C3287 C1985 1.587 . S
C3292 C1641 1.578 . S
C3303 C1789 1.611 . S
C3308 C2141 1.602 . S
C3319 C2689 1.576 . S
C3324 C2345 1.567 . S
C3335 C929 0.712 . S
C3340 C29 0.751 . S
C3351 C997 0.762 . S
C3356 C145 0.720 . S
C3367 C233 0.712 . S
C3372 C733 0.735 . S
C3383 C849 0.729 . S
C3388 C284 0.767 . S
C3399 C401 0.755 . S
C3404 C1261 0.705 . S
C3415 C469 0.753 . S
C3420 C1377 0.705 . S
C3431 C1113 0.715 . S
C3436 C557 0.763 . S
C3447 C1173 0.711 . S
C3452 C673 0.761 . S
C3463 C1437 0.731 . S
C3468 C2337 0.714 . S
C3479 C2396 0.767 . S
C3484 C1553 0.734 . S
C3495 C2132 0.767 . S
C3500 C1633 0.729 . S
C3511 C1701 0.757 . S
C3516 C2257 0.759 . S
C3527 C2669 0.759 . S
C3532 C1809 0.740 . S
C3543 C1877 0.743 . S
C3548 C2785 0.704 . S
C3559 C2521 0.722 . S
C3564 C1965 0.764 . S
C3575 C2581 0.751 . S
C3580 C2081 0.751 . S
C3591 C900 1.727 . S
C3596 C57 1.705 . S
C3607 C1025 1.668 . S
C3612 C117 1.687 . S
C3623 C761 1.693 . S
C3628 C205 1.725 . S
C3639 C313 1.719 . S
C3644 C821 1.724 . S
C3655 C1289 1.730 . S
C3660 C372 1.712 . S
C3671 C1349 1.730 . S
C3676 C497 1.708 . S
C3687 C1085 1.723 . S
C3692 C585 1.690 . S
C3703 C1201 1.704 . S
C3708 C645 1.676 . S
C3719 C2308 1.724 . S
C3724 C1465 1.717 . S
C3735 C2425 1.715 . S
C3740 C1525 1.678 . S
C3751 C2161 1.703 . S
C3756 C1604 1.727 . S
C3767 C1729 1.681 . S
C3772 C2229 1.717 . S
C3783 C2697 1.681 . S
C3788 C1780 1.677 . S
C3799 C1905 1.676 . S
C3804 C2757 1.683 . S
C3815 C2493 1.678 . S
C3820 C1993 1.681 . S
C3831 C2053 1.679 . S
C3836 C2609 1.711 . S
