# Generated by pormake.
# Topology whv, (6)-cn, num edge types: 1
# Building blocks:
#     Node 0, Type 0, BuildingBlock: OJICUG_clean_sbu_0, # of connection points: 6
#     Node 1, Type 0, BuildingBlock: OJICUG_clean_sbu_0, # of connection points: 6
#     Node 2, Type 0, BuildingBlock: OJICUG_clean_sbu_0, # of connection points: 6
#     Node 3, Type 0, BuildingBlock: OJICUG_clean_sbu_0, # of connection points: 6
#     Node 4, Type 0, BuildingBlock: OJICUG_clean_sbu_0, # of connection points: 6
#     Node 5, Type 0, BuildingBlock: OJICUG_clean_sbu_0, # of connection points: 6
#     Node 6, Type 0, BuildingBlock: OJICUG_clean_sbu_0, # of connection points: 6
#     Node 7, Type 0, BuildingBlock: OJICUG_clean_sbu_0, # of connection points: 6
#     Node 8, Type 0, BuildingBlock: OJICUG_clean_sbu_0, # of connection points: 6
#     Node 9, Type 0, BuildingBlock: OJICUG_clean_sbu_0, # of connection points: 6
#     Node 10, Type 0, BuildingBlock: OJICUG_clean_sbu_0, # of connection points: 6
#     Node 11, Type 0, BuildingBlock: OJICUG_clean_sbu_0, # of connection points: 6
#     Node 12, Type 0, BuildingBlock: OJICUG_clean_sbu_0, # of connection points: 6
#     Node 13, Type 0, BuildingBlock: OJICUG_clean_sbu_0, # of connection points: 6
#     Node 14, Type 0, BuildingBlock: OJICUG_clean_sbu_0, # of connection points: 6
#     Node 15, Type 0, BuildingBlock: OJICUG_clean_sbu_0, # of connection points: 6
#     Edge 16, Type (0, 0), BuildingBlock: UVAHIK_clean_linker_0, # of connection points: 2
#     Edge 17, Type (0, 0), BuildingBlock: UVAHIK_clean_linker_0, # of connection points: 2
#     Edge 18, Type (0, 0), BuildingBlock: UVAHIK_clean_linker_0, # of connection points: 2
#     Edge 19, Type (0, 0), BuildingBlock: UVAHIK_clean_linker_0, # of connection points: 2
#     Edge 20, Type (0, 0), BuildingBlock: UVAHIK_clean_linker_0, # of connection points: 2
#     Edge 21, Type (0, 0), BuildingBlock: UVAHIK_clean_linker_0, # of connection points: 2
#     Edge 22, Type (0, 0), BuildingBlock: UVAHIK_clean_linker_0, # of connection points: 2
#     Edge 23, Type (0, 0), BuildingBlock: UVAHIK_clean_linker_0, # of connection points: 2
#     Edge 24, Type (0, 0), BuildingBlock: UVAHIK_clean_linker_0, # of connection points: 2
#     Edge 25, Type (0, 0), BuildingBlock: UVAHIK_clean_linker_0, # of connection points: 2
#     Edge 26, Type (0, 0), BuildingBlock: UVAHIK_clean_linker_0, # of connection points: 2
#     Edge 27, Type (0, 0), BuildingBlock: UVAHIK_clean_linker_0, # of connection points: 2
#     Edge 28, Type (0, 0), BuildingBlock: UVAHIK_clean_linker_0, # of connection points: 2
#     Edge 29, Type (0, 0), BuildingBlock: UVAHIK_clean_linker_0, # of connection points: 2
#     Edge 30, Type (0, 0), BuildingBlock: UVAHIK_clean_linker_0, # of connection points: 2
#     Edge 31, Type (0, 0), BuildingBlock: UVAHIK_clean_linker_0, # of connection points: 2
#     Edge 32, Type (0, 0), BuildingBlock: UVAHIK_clean_linker_0, # of connection points: 2
#     Edge 33, Type (0, 0), BuildingBlock: UVAHIK_clean_linker_0, # of connection points: 2
#     Edge 34, Type (0, 0), BuildingBlock: UVAHIK_clean_linker_0, # of connection points: 2
#     Edge 35, Type (0, 0), BuildingBlock: UVAHIK_clean_linker_0, # of connection points: 2
#     Edge 36, Type (0, 0), BuildingBlock: UVAHIK_clean_linker_0, # of connection points: 2
#     Edge 37, Type (0, 0), BuildingBlock: UVAHIK_clean_linker_0, # of connection points: 2
#     Edge 38, Type (0, 0), BuildingBlock: UVAHIK_clean_linker_0, # of connection points: 2
#     Edge 39, Type (0, 0), BuildingBlock: UVAHIK_clean_linker_0, # of connection points: 2
#     Edge 40, Type (0, 0), BuildingBlock: UVAHIK_clean_linker_0, # of connection points: 2
#     Edge 41, Type (0, 0), BuildingBlock: UVAHIK_clean_linker_0, # of connection points: 2
#     Edge 42, Type (0, 0), BuildingBlock: UVAHIK_clean_linker_0, # of connection points: 2
#     Edge 43, Type (0, 0), BuildingBlock: UVAHIK_clean_linker_0, # of connection points: 2
#     Edge 44, Type (0, 0), BuildingBlock: UVAHIK_clean_linker_0, # of connection points: 2
#     Edge 45, Type (0, 0), BuildingBlock: UVAHIK_clean_linker_0, # of connection points: 2
#     Edge 46, Type (0, 0), BuildingBlock: UVAHIK_clean_linker_0, # of connection points: 2
#     Edge 47, Type (0, 0), BuildingBlock: UVAHIK_clean_linker_0, # of connection points: 2
#     Edge 48, Type (0, 0), BuildingBlock: UVAHIK_clean_linker_0, # of connection points: 2
#     Edge 49, Type (0, 0), BuildingBlock: UVAHIK_clean_linker_0, # of connection points: 2
#     Edge 50, Type (0, 0), BuildingBlock: UVAHIK_clean_linker_0, # of connection points: 2
#     Edge 51, Type (0, 0), BuildingBlock: UVAHIK_clean_linker_0, # of connection points: 2
#     Edge 52, Type (0, 0), BuildingBlock: UVAHIK_clean_linker_0, # of connection points: 2
#     Edge 53, Type (0, 0), BuildingBlock: UVAHIK_clean_linker_0, # of connection points: 2
#     Edge 54, Type (0, 0), BuildingBlock: UVAHIK_clean_linker_0, # of connection points: 2
#     Edge 55, Type (0, 0), BuildingBlock: UVAHIK_clean_linker_0, # of connection points: 2
#     Edge 56, Type (0, 0), BuildingBlock: UVAHIK_clean_linker_0, # of connection points: 2
#     Edge 57, Type (0, 0), BuildingBlock: UVAHIK_clean_linker_0, # of connection points: 2
#     Edge 58, Type (0, 0), BuildingBlock: UVAHIK_clean_linker_0, # of connection points: 2
#     Edge 59, Type (0, 0), BuildingBlock: UVAHIK_clean_linker_0, # of connection points: 2
#     Edge 60, Type (0, 0), BuildingBlock: UVAHIK_clean_linker_0, # of connection points: 2
#     Edge 61, Type (0, 0), BuildingBlock: UVAHIK_clean_linker_0, # of connection points: 2
#     Edge 62, Type (0, 0), BuildingBlock: UVAHIK_clean_linker_0, # of connection points: 2
#     Edge 63, Type (0, 0), BuildingBlock: UVAHIK_clean_linker_0, # of connection points: 2
# Relax obj value: 0.290
# Max RMSD: 0.262
# Mean RMSD: 0.262
data_MOF--net-whv--node1-OJICUG_clean_sbu_0--edge1-UVAHIK_clean_linker_0
_symmetry_space_group_name_H-M    P1
_symmetry_Int_Tables_number       1
_symmetry_cell_setting            triclinic
loop_
_symmetry_equiv_pos_as_xyz
'x, y, z'
_cell_length_a     65.61571
_cell_length_b     65.675376
_cell_length_c     34.323828
_cell_angle_alpha  90.063518
_cell_angle_beta   89.945828
_cell_angle_gamma 89.945179
loop_
_atom_site_label
_atom_site_type_symbol
_atom_site_fract_x
_atom_site_fract_y
_atom_site_fract_z
_atom_type_partial_charge
Sc0 Sc 0.29234 0.21415 0.01859 0.0
Sc1 Sc 0.32014 0.1732 0.98278 0.0
Sc2 Sc 0.33514 0.19738 0.06814 0.0
O3 O 0.31566 0.19467 0.02341 0.0
C4 C 0.32935 0.24253 0.0429 0.0
C5 C 0.30631 0.21168 0.93212 0.0
C6 C 0.36481 0.18541 -0.00216 0.0
C7 C 0.27292 0.17159 0.99031 0.0
C8 C 0.29195 0.20725 0.10763 0.0
C9 C 0.33194 0.15073 0.06367 0.0
O10 O 0.31022 0.23996 0.0387 0.0
O11 O 0.31058 0.19276 0.93446 0.0
O12 O 0.36147 0.18778 0.03413 0.0
O13 O 0.27183 0.19072 -0.00331 0.0
O14 O 0.31137 0.20667 0.1089 0.0
O15 O 0.33069 0.15118 0.02644 0.0
O16 O 0.28214 0.20722 0.07583 0.0
O17 O 0.28975 0.16199 0.98961 0.0
O18 O 0.32994 0.16659 0.08461 0.0
O19 O 0.3015 0.22238 0.96142 0.0
O20 O 0.34137 0.22801 0.05127 0.0
O21 O 0.35057 0.18355 0.97316 0.0
Sc22 Sc 0.54614 0.58367 0.29856 0.0
Sc23 Sc 0.57469 0.55839 0.22879 0.0
Sc24 Sc 0.52444 0.54522 0.24312 0.0
O25 O 0.54841 0.56232 0.25727 0.0
C26 C 0.52043 0.5463 0.33337 0.0
C27 C 0.58956 0.56943 0.31547 0.0
C28 C 0.56236 0.5139 0.2398 0.0
C29 C 0.57275 0.6051 0.23168 0.0
C30 C 0.5049 0.58929 0.25456 0.0
C31 C 0.54199 0.55158 0.16146 0.0
O32 O 0.52694 0.5646 0.33531 0.0
O33 O 0.5931 0.56699 0.2792 0.0
O34 O 0.54365 0.51827 0.23331 0.0
O35 O 0.56571 0.60482 0.26643 0.0
O36 O 0.50292 0.57016 0.24937 0.0
O37 O 0.56012 0.54926 0.17402 0.0
O38 O 0.52066 0.59709 0.26985 0.0
O39 O 0.57389 0.5893 0.21041 0.0
O40 O 0.52702 0.55431 0.18407 0.0
O41 O 0.57164 0.57142 0.32872 0.0
O42 O 0.52045 0.53603 0.30202 0.0
O43 O 0.57567 0.52745 0.24682 0.0
Sc44 Sc 0.16431 0.81317 0.53488 0.0
Sc45 Sc 0.19867 0.83718 0.47288 0.0
Sc46 Sc 0.20972 0.78951 0.51029 0.0
O47 O 0.19082 0.8133 0.50588 0.0
C48 C 0.19542 0.79367 0.59587 0.0
C49 C 0.1777 0.85801 0.54736 0.0
C50 C 0.24046 0.82734 0.50935 0.0
C51 C 0.1527 0.83439 0.45339 0.0
C52 C 0.16593 0.76853 0.50556 0.0
C53 C 0.21377 0.79879 0.42256 0.0
O54 O 0.17722 0.79789 0.58562 0.0
O55 O 0.18534 0.85916 0.51322 0.0
O56 O 0.23714 0.80823 0.5076 0.0
O57 O 0.14829 0.82864 0.48791 0.0
O58 O 0.18502 0.76746 0.51217 0.0
O59 O 0.21323 0.81801 0.42831 0.0
O60 O 0.15596 0.78501 0.50846 0.0
O61 O 0.1709 0.83547 0.44098 0.0
O62 O 0.20983 0.78588 0.44892 0.0
O63 O 0.17154 0.84141 0.56211 0.0
O64 O 0.21008 0.79249 0.57184 0.0
O65 O 0.22655 0.8404 0.50375 0.0
Sc66 Sc 0.95258 0.45757 0.76691 0.0
Sc67 Sc 0.90598 0.43983 0.735 0.0
Sc68 Sc 0.93497 0.41092 0.79954 0.0
O69 O 0.93109 0.43601 0.7672 0.0
C70 C 0.97879 0.41679 0.76728 0.0
C71 C 0.94195 0.45568 0.67958 0.0
C72 C 0.91418 0.39379 0.72142 0.0
C73 C 0.91158 0.48393 0.7631 0.0
C74 C 0.95095 0.44693 0.85426 0.0
C75 C 0.88882 0.41926 0.81345 0.0
O76 O 0.97765 0.43601 0.77185 0.0
O77 O 0.92291 0.45388 0.68671 0.0
O78 O 0.9212 0.3912 0.75575 0.0
O79 O 0.93089 0.48247 0.76034 0.0
O80 O 0.9491 0.42792 0.84712 0.0
O81 O 0.88634 0.4261 0.77896 0.0
O82 O 0.94995 0.4605 0.82809 0.0
O83 O 0.90002 0.46853 0.76143 0.0
O84 O 0.90625 0.41528 0.82758 0.0
O85 O 0.95549 0.45477 0.7058 0.0
O86 O 0.96363 0.40514 0.77239 0.0
O87 O 0.91033 0.41124 0.70743 0.0
Sc88 Sc 0.71579 0.79498 0.03097 0.0
Sc89 Sc 0.67886 0.83079 0.05374 0.0
Sc90 Sc 0.66724 0.79144 0.98847 0.0
O91 O 0.68726 0.8059 0.02367 0.0
C92 C 0.70788 0.78471 0.94146 0.0
C93 C 0.72501 0.84109 0.02873 0.0
C94 C 0.65976 0.83872 0.97015 0.0
C95 C 0.70453 0.80803 0.11655 0.0
C96 C 0.68823 0.75574 0.03714 0.0
C97 C 0.63807 0.80465 0.05718 0.0
O98 O 0.71877 0.78487 0.97192 0.0
O99 O 0.70832 0.84491 0.04628 0.0
O100 O 0.65746 0.81978 0.96325 0.0
O101 O 0.71779 0.80353 0.09114 0.0
O102 O 0.67557 0.76213 0.01176 0.0
O103 O 0.64903 0.81979 0.06614 0.0
O104 O 0.70327 0.76622 0.04928 0.0
O105 O 0.68769 0.81641 0.10792 0.0
O106 O 0.64271 0.79213 0.03046 0.0
O107 O 0.72919 0.82359 0.01485 0.0
O108 O 0.68897 0.78874 0.94195 0.0
O109 O 0.66839 0.84552 0.0009 0.0
Sc110 Sc 0.45749 0.45855 0.77641 0.0
Sc111 Sc 0.40572 0.44883 0.78577 0.0
Sc112 Sc 0.43699 0.41484 0.73466 0.0
O113 O 0.43335 0.44067 0.76529 0.0
C114 C 0.46419 0.44771 0.68854 0.0
C115 C 0.42141 0.49102 0.76209 0.0
C116 C 0.39422 0.42826 0.70379 0.0
C117 C 0.43574 0.46071 0.85569 0.0
C118 C 0.47725 0.41437 0.78385 0.0
C119 C 0.40684 0.40215 0.80466 0.0
O120 O 0.46434 0.4607 0.71603 0.0
O121 O 0.4077 0.47763 0.75741 0.0
O122 O 0.41201 0.42154 0.69735 0.0
O123 O 0.45177 0.45636 0.83691 0.0
O124 O 0.46208 0.40527 0.7693 0.0
O125 O 0.40235 0.42029 0.81446 0.0
O126 O 0.47883 0.43366 0.78396 0.0
O127 O 0.41821 0.46179 0.83973 0.0
O128 O 0.41783 0.39776 0.77504 0.0
O129 O 0.43947 0.48649 0.77281 0.0
O130 O 0.45643 0.42995 0.69193 0.0
O131 O 0.38929 0.43699 0.73559 0.0
Sc132 Sc 0.8302 0.17835 0.49643 0.0
Sc133 Sc 0.79514 0.1495 0.54988 0.0
Sc134 Sc 0.78343 0.19888 0.52256 0.0
O135 O 0.80306 0.17545 0.52302 0.0
C136 C 0.826 0.22166 0.53104 0.0
C137 C 0.84117 0.15354 0.57425 0.0
C138 C 0.78004 0.18506 0.60815 0.0
C139 C 0.81838 0.13373 0.47303 0.0
C140 C 0.79827 0.19824 0.43704 0.0
C141 C 0.75303 0.16093 0.51687 0.0
O142 O 0.83657 0.20572 0.52678 0.0
O143 O 0.82283 0.14906 0.58228 0.0
O144 O 0.78331 0.19936 0.58413 0.0
O145 O 0.82604 0.15093 0.46507 0.0
O146 O 0.78352 0.19831 0.46099 0.0
O147 O 0.76711 0.1478 0.51884 0.0
O148 O 0.81669 0.19447 0.4468 0.0
O149 O 0.80808 0.13034 0.50395 0.0
O150 O 0.75632 0.1798 0.52245 0.0
O151 O 0.84634 0.16257 0.54286 0.0
O152 O 0.80697 0.22217 0.52406 0.0
O153 O 0.78098 0.16619 0.59876 0.0
Sc154 Sc 0.05944 0.57607 0.23542 0.0
Sc155 Sc 0.08777 0.54741 0.30215 0.0
Sc156 Sc 0.03952 0.53162 0.27405 0.0
O157 O 0.06233 0.55182 0.27071 0.0
C158 C 0.0157 0.57389 0.26919 0.0
C159 C 0.08297 0.5947 0.30931 0.0
C160 C 0.05135 0.53622 0.36104 0.0
C161 C 0.10455 0.56259 0.21939 0.0
C162 C 0.04083 0.53947 0.18552 0.0
C163 C 0.07844 0.50256 0.2794 0.0
O164 O 0.03139 0.5846 0.26256 0.0
O165 O 0.0868 0.57757 0.3247 0.0
O166 O 0.03765 0.53613 0.33501 0.0
O167 O 0.08739 0.56869 0.20693 0.0
O168 O 0.04114 0.52674 0.21322 0.0
O169 O 0.09113 0.51703 0.28135 0.0
O170 O 0.04384 0.5585 0.19037 0.0
O171 O 0.10752 0.5567 0.25436 0.0
O172 O 0.0593 0.5054 0.28158 0.0
O173 O 0.0747 0.59653 0.27589 0.0
O174 O 0.01592 0.55453 0.26765 0.0
O175 O 0.0704 0.53743 0.35342 0.0
Sc176 Sc 0.78318 0.70386 0.49557 0.0
Sc177 Sc 0.79426 0.65296 0.47866 0.0
Sc178 Sc 0.82559 0.68181 0.53944 0.0
O179 O 0.80113 0.67958 0.50461 0.0
C180 C 0.82761 0.72396 0.49744 0.0
C181 C 0.78274 0.68566 0.41304 0.0
C182 C 0.84129 0.6551 0.46648 0.0
C183 C 0.75126 0.66689 0.50244 0.0
C184 C 0.7914 0.70723 0.58517 0.0
C185 C 0.8112 0.63813 0.56124 0.0
O186 O 0.80834 0.72525 0.49383 0.0
O187 O 0.78207 0.66751 0.42613 0.0
O188 O 0.84416 0.664 0.49917 0.0
O189 O 0.75546 0.68543 0.49468 0.0
O190 O 0.80934 0.69985 0.58252 0.0
O191 O 0.80498 0.63436 0.52688 0.0
O192 O 0.7792 0.70818 0.55652 0.0
O193 O 0.76485 0.6532 0.50475 0.0
O194 O 0.81686 0.65569 0.57188 0.0
O195 O 0.78668 0.70088 0.43437 0.0
O196 O 0.83642 0.70826 0.51058 0.0
O197 O 0.82369 0.65169 0.45241 0.0
Sc198 Sc 0.0496 0.08146 0.82024 0.0
Sc199 Sc 0.07573 0.06715 0.73629 0.0
Sc200 Sc 0.03608 0.03742 0.77081 0.0
O201 O 0.05395 0.06191 0.77591 0.0
C202 C 0.04089 0.03825 0.85991 0.0
C203 C 0.09668 0.08004 0.81777 0.0
C204 C 0.07998 0.02031 0.74501 0.0
C205 C 0.06003 0.1111 0.74954 0.0
C206 C 0.005 0.0728 0.79452 0.0
C207 C 0.03897 0.05028 0.68392 0.0
O208 O 0.04068 0.05764 0.86058 0.0
O209 O 0.09665 0.07874 0.78059 0.0
O210 O 0.06088 0.01816 0.7505 0.0
O211 O 0.05754 0.10803 0.78586 0.0
O212 O 0.00893 0.05399 0.78885 0.0
O213 O 0.05744 0.05611 0.68725 0.0
O214 O 0.01867 0.08573 0.80304 0.0
O215 O 0.06385 0.09683 0.72567 0.0
O216 O 0.02813 0.04531 0.71291 0.0
O217 O 0.08059 0.07815 0.83814 0.0
O218 O 0.04293 0.02817 0.82866 0.0
O219 O 0.08861 0.0376 0.74447 0.0
Sc220 Sc 0.65682 0.2946 0.06612 0.0
Sc221 Sc 0.67739 0.32184 0.98876 0.0
Sc222 Sc 0.70175 0.27878 0.02261 0.0
O223 O 0.67873 0.29858 0.02614 0.0
C224 C 0.69784 0.28308 0.11168 0.0
C225 C 0.66081 0.34133 0.06931 0.0
C226 C 0.72355 0.32158 0.00455 0.0
C227 C 0.63198 0.30929 0.99105 0.0
C228 C 0.66352 0.25016 0.03778 0.0
C229 C 0.69278 0.28494 0.93524 0.0
O230 O 0.6784 0.28352 0.10976 0.0
O231 O 0.66443 0.34235 0.03273 0.0
O232 O 0.72368 0.30216 0.00625 0.0
O233 O 0.63268 0.30537 0.02743 0.0
O234 O 0.68278 0.25265 0.03693 0.0
O235 O 0.68975 0.304 0.93998 0.0
O236 O 0.65128 0.26467 0.04479 0.0
O237 O 0.6478 0.31267 0.97081 0.0
O238 O 0.6948 0.2727 0.96346 0.0
O239 O 0.66111 0.32464 0.08795 0.0
O240 O 0.7092 0.28415 0.08185 0.0
O241 O 0.70716 0.33186 0.00483 0.0
Sc242 Sc 0.4652 0.9456 0.24393 0.0
Sc243 Sc 0.41547 0.93109 0.2275 0.0
Sc244 Sc 0.44328 0.90778 0.30034 0.0
O245 O 0.44134 0.92829 0.25764 0.0
C246 C 0.48518 0.90196 0.25915 0.0
C247 C 0.44917 0.93743 0.1617 0.0
C248 C 0.4182 0.88458 0.23373 0.0
C249 C 0.42669 0.97604 0.23626 0.0
C250 C 0.46807 0.94595 0.33419 0.0
C251 C 0.3996 0.9219 0.31423 0.0
O252 O 0.487 0.92103 0.25288 0.0
O253 O 0.43078 0.9395 0.17303 0.0
O254 O 0.42432 0.88578 0.269 0.0
O255 O 0.44564 0.97201 0.2314 0.0
O256 O 0.46195 0.92755 0.33647 0.0
O257 O 0.39644 0.92313 0.2776 0.0
O258 O 0.46807 0.95592 0.30253 0.0
O259 O 0.41356 0.96232 0.24328 0.0
O260 O 0.41738 0.92057 0.32832 0.0
O261 O 0.46379 0.93544 0.18533 0.0
O262 O 0.46922 0.89418 0.27374 0.0
O263 O 0.41731 0.89989 0.2112 0.0
Sc264 Sc 0.20629 0.28257 0.54491 0.0
Sc265 Sc 0.19771 0.33442 0.54671 0.0
Sc266 Sc 0.16471 0.30284 0.49579 0.0
O267 O 0.1895 0.30653 0.52883 0.0
C268 C 0.19702 0.27183 0.45787 0.0
C269 C 0.23944 0.31733 0.52545 0.0
C270 C 0.17931 0.34378 0.46225 0.0
C271 C 0.21 0.30698 0.61997 0.0
C272 C 0.16097 0.26546 0.55191 0.0
C273 C 0.15117 0.3352 0.5617 0.0
O274 O 0.20953 0.27282 0.48605 0.0
O275 O 0.22618 0.33084 0.51778 0.0
O276 O 0.17445 0.32548 0.45537 0.0
O277 O 0.20323 0.2909 0.60439 0.0
O278 O 0.15296 0.28019 0.53371 0.0
O279 O 0.169 0.33829 0.5751 0.0
O280 O 0.18017 0.26288 0.55406 0.0
O281 O 0.21157 0.3236 0.60104 0.0
O282 O 0.14771 0.32487 0.53075 0.0
O283 O 0.23466 0.29997 0.53964 0.0
O284 O 0.17952 0.28036 0.45859 0.0
O285 O 0.18562 0.34958 0.49552 0.0
Sc286 Sc 0.95085 0.95763 0.26157 0.0
Sc287 Sc 0.91114 0.93207 0.30968 0.0
Sc288 Sc 0.93912 0.90702 0.23619 0.0
O289 O 0.93374 0.93222 0.26925 0.0
C290 C 0.9461 0.94259 0.17456 0.0
C291 C 0.90646 0.97645 0.27422 0.0
C292 C 0.89097 0.90969 0.23605 0.0
C293 C 0.94657 0.95631 0.35372 0.0
C294 C 0.98373 0.92144 0.25683 0.0
C295 C 0.92812 0.88718 0.31858 0.0
O296 O 0.94787 0.95656 0.19982 0.0
O297 O 0.89978 0.96078 0.29143 0.0
O298 O 0.90782 0.90471 0.22052 0.0
O299 O 0.95558 0.96127 0.32247 0.0
O300 O 0.97084 0.90761 0.24916 0.0
O301 O 0.9198 0.90306 0.33236 0.0
O302 O 0.97895 0.94015 0.2607 0.0
O303 O 0.93007 0.94609 0.35437 0.0
O304 O 0.93505 0.88621 0.28407 0.0
O305 O 0.92479 0.97808 0.26245 0.0
O306 O 0.94398 0.92395 0.18331 0.0
O307 O 0.88968 0.91878 0.2688 0.0
Sc308 Sc 0.32131 0.69866 0.97935 0.0
Sc309 Sc 0.30911 0.65821 0.04272 0.0
Sc310 Sc 0.27398 0.69772 0.02853 0.0
O311 O 0.30142 0.68476 0.01649 0.0
C312 C 0.30461 0.73528 0.03148 0.0
C313 C 0.35123 0.68215 0.04496 0.0
C314 C 0.28683 0.68118 0.11192 0.0
C315 C 0.32597 0.65187 0.95588 0.0
C316 C 0.27886 0.70822 0.93843 0.0
C317 C 0.26191 0.65117 0.02301 0.0
O318 O 0.3172 0.72754 0.00746 0.0
O319 O 0.339 0.66851 0.05641 0.0
O320 O 0.27542 0.69121 0.08927 0.0
O321 O 0.32753 0.67081 0.94867 0.0
O322 O 0.26856 0.70621 0.96942 0.0
O323 O 0.27953 0.64505 0.03306 0.0
O324 O 0.29802 0.70549 0.93704 0.0
O325 O 0.31922 0.645 0.98816 0.0
O326 O 0.25762 0.66987 0.01782 0.0
O327 O 0.3474 0.69413 0.01689 0.0
O328 O 0.28834 0.72638 0.04223 0.0
O329 O 0.30072 0.66921 0.10006 0.0
Sc330 Sc 0.5528 0.07482 0.73833 0.0
Sc331 Sc 0.58538 0.04112 0.78847 0.0
Sc332 Sc 0.53344 0.03027 0.78028 0.0
O333 O 0.55726 0.04878 0.76885 0.0
C334 C 0.51282 0.07408 0.78943 0.0
C335 C 0.58347 0.08828 0.80665 0.0
C336 C 0.5563 0.02869 0.85969 0.0
C337 C 0.59572 0.06116 0.70564 0.0
C338 C 0.52602 0.04183 0.69219 0.0
C339 C 0.56967 -0.00186 0.76475 0.0
O340 O 0.5268 0.08364 0.77183 0.0
O341 O 0.58932 0.07031 0.8146 0.0
O342 O 0.53995 0.03071 0.84058 0.0
O343 O 0.57838 0.06935 0.70141 0.0
O344 O 0.52532 0.02923 0.72024 0.0
O345 O 0.5837 0.0114 0.76338 0.0
O346 O 0.53436 0.05932 0.69492 0.0
O347 O 0.60078 0.05141 0.73617 0.0
O348 O 0.55126 0.0026 0.77296 0.0
O349 O 0.57103 0.09244 0.77918 0.0
O350 O 0.51252 0.05482 0.79222 0.0
O351 O 0.57395 0.02967 0.84424 0.0
C352 C 0.23562 0.17063 0.97404 0.0
C353 C 0.25411 0.16028 0.98016 0.0
C354 C 0.21852 0.16021 0.9602 0.0
C355 C 0.20502 0.11446 0.90396 0.0
H356 H 0.15011 0.12719 0.93797 0.0
C357 C 0.13324 0.0914 0.81701 0.0
C358 C 0.11581 0.08559 0.83812 0.0
C359 C 0.15051 0.09866 0.83636 0.0
C360 C 0.16536 0.12328 0.92843 0.0
H361 H 0.26875 0.1306 0.97838 0.0
H362 H 0.23888 0.1125 0.95476 0.0
H363 H 0.17903 0.14331 0.97012 0.0
H364 H 0.10334 0.08195 0.89636 0.0
H365 H 0.13351 0.09435 0.9299 0.0
H366 H 0.19136 0.09436 0.86238 0.0
C367 C 0.23774 0.12874 0.95989 0.0
C368 C 0.18191 0.1327 0.94657 0.0
C369 C 0.25483 0.13913 0.97367 0.0
C370 C 0.11639 0.08646 0.87908 0.0
C371 C 0.13365 0.09369 0.89837 0.0
C372 C 0.18847 0.10506 0.88578 0.0
C373 C 0.21951 0.13922 0.95225 0.0
C374 C 0.20192 0.1285 0.93437 0.0
C375 C 0.15076 0.10023 0.87723 0.0
C376 C 0.16844 0.10947 0.89763 0.0
H377 H 0.23451 0.1869 0.97866 0.0
H378 H 0.20474 0.16877 0.95434 0.0
H379 H 0.22023 0.11107 0.89354 0.0
H380 H 0.13333 0.09097 0.78547 0.0
H381 H 0.1634 0.10373 0.81919 0.0
C382 C 0.64824 0.35818 0.13014 0.0
C383 C 0.6535 0.35965 0.09048 0.0
C384 C 0.63847 0.37423 0.14913 0.0
C385 C 0.60699 0.41963 0.12855 0.0
H386 H 0.61675 0.43118 0.23774 0.0
C387 C 0.55867 0.47911 0.21024 0.0
C388 C 0.5699 0.49295 0.23292 0.0
C389 C 0.56777 0.46115 0.19669 0.0
C390 C 0.61387 0.42821 0.2072 0.0
H391 H 0.65355 0.37971 0.04032 0.0
H392 H 0.63703 0.40806 0.07392 0.0
H393 H 0.63686 0.40519 0.20498 0.0
H394 H 0.59889 0.49798 0.26179 0.0
H395 H 0.61471 0.46709 0.23789 0.0
H396 H 0.58463 0.4433 0.13036 0.0
C397 C 0.63998 0.39419 0.08998 0.0
C398 C 0.62529 0.41316 0.18846 0.0
C399 C 0.64966 0.37802 0.07082 0.0
C400 C 0.58983 0.48773 0.24413 0.0
C401 C 0.59891 0.46989 0.23056 0.0
C402 C 0.59568 0.43481 0.14722 0.0
C403 C 0.63386 0.3923 0.12915 0.0
C404 C 0.62205 0.40871 0.14885 0.0
C405 C 0.58824 0.4567 0.20562 0.0
C406 C 0.59905 0.43938 0.18674 0.0
H407 H 0.65094 0.3443 0.14636 0.0
H408 H 0.63384 0.3721 0.17913 0.0
H409 H 0.60382 0.41637 0.09823 0.0
H410 H 0.54328 0.48266 0.2011 0.0
H411 H 0.55899 0.45109 0.17819 0.0
C412 C 0.36347 0.91156 0.32667 0.0
C413 C 0.38243 0.91796 0.34107 0.0
C414 C 0.34907 0.90302 0.35179 0.0
C415 C 0.33591 0.89432 0.45582 0.0
H416 H 0.3115 0.84525 0.41386 0.0
C417 C 0.26496 0.85579 0.51829 0.0
C418 C 0.26155 0.83508 0.51021 0.0
C419 C 0.28303 0.86512 0.50675 0.0
C420 C 0.31851 0.85866 0.42642 0.0
H421 H 0.40032 0.92237 0.39365 0.0
H422 H 0.37539 0.90729 0.4371 0.0
H423 H 0.33434 0.86517 0.37354 0.0
H424 H 0.27548 0.80726 0.48895 0.0
H425 H 0.30737 0.82348 0.46963 0.0
H426 H 0.32019 0.88758 0.50896 0.0
C427 C 0.3716 0.90877 0.40654 0.0
C428 C 0.33124 0.87036 0.40293 0.0
C429 C 0.38594 0.91735 0.3815 0.0
C430 C 0.27759 0.82329 0.49519 0.0
C431 C 0.29576 0.83264 0.48372 0.0
C432 C 0.32321 0.88254 0.47946 0.0
C433 C 0.35338 0.90073 0.39171 0.0
C434 C 0.33981 0.8885 0.41709 0.0
C435 C 0.29809 0.85387 0.48711 0.0
C436 C 0.31411 0.86473 0.4648 0.0
H437 H 0.36023 0.91192 0.29574 0.0
H438 H 0.33489 0.89744 0.33969 0.0
H439 H 0.34233 0.9082 0.46763 0.0
H440 H 0.25296 0.8652 0.53045 0.0
H441 H 0.28429 0.88147 0.51 0.0
C442 C 0.81821 0.60145 0.57545 0.0
C443 C 0.81464 0.62132 0.58893 0.0
C444 C 0.82616 0.58675 0.60062 0.0
C445 C 0.83792 0.57465 0.70363 0.0
H446 H 0.88546 0.54868 0.65826 0.0
C447 C 0.88077 0.50595 0.76844 0.0
C448 C 0.90172 0.50409 0.76052 0.0
C449 C 0.86988 0.52281 0.75521 0.0
C450 C 0.87241 0.55605 0.67156 0.0
H451 H 0.81447 0.64082 0.64007 0.0
H452 H 0.82833 0.61521 0.68376 0.0
H453 H 0.86437 0.57072 0.61828 0.0
H454 H 0.92818 0.51958 0.73695 0.0
H455 H 0.90914 0.54918 0.71419 0.0
H456 H 0.84616 0.55992 0.75709 0.0
C457 C 0.82516 0.61098 0.65386 0.0
C458 C 0.86008 0.56834 0.64842 0.0
C459 C 0.81734 0.62567 0.62873 0.0
C460 C 0.91202 0.52049 0.74321 0.0
C461 C 0.9011 0.53735 0.72986 0.0
C462 C 0.85024 0.56222 0.72682 0.0
C463 C 0.8305 0.59167 0.63964 0.0
C464 C 0.84267 0.5777 0.66413 0.0
C465 C 0.87977 0.53809 0.73384 0.0
C466 C 0.86762 0.55281 0.71096 0.0
H467 H 0.8162 0.59762 0.54499 0.0
H468 H 0.82981 0.57181 0.58913 0.0
H469 H 0.8246 0.58175 0.71648 0.0
H470 H 0.87246 0.49366 0.78225 0.0
H471 H 0.85348 0.52297 0.75884 0.0
C472 C 0.76177 0.85094 0.02432 0.0
C473 C 0.74141 0.85648 0.03147 0.0
C474 C 0.77765 0.8631 0.03812 0.0
C475 C 0.78569 0.89454 0.12288 0.0
H476 H 0.84065 0.89873 0.08235 0.0
C477 C 0.85461 0.91761 0.21909 0.0
C478 C 0.87235 0.90601 0.21299 0.0
C479 C 0.83807 0.91582 0.1936 0.0
C480 C 0.82536 0.89764 0.09408 0.0
H481 H 0.72179 0.88055 0.0535 0.0
H482 H 0.74954 0.90169 0.07744 0.0
H483 H 0.81278 0.88977 0.03849 0.0
H484 H 0.88628 0.8828 0.17658 0.0
H485 H 0.8574 0.87932 0.13309 0.0
H486 H 0.79834 0.90131 0.17879 0.0
C487 C 0.75318 0.88773 0.06209 0.0
C488 C 0.80943 0.89264 0.06892 0.0
C489 C 0.7373 0.87561 0.04826 0.0
C490 C 0.87292 0.89211 0.18187 0.0
C491 C 0.85645 0.89028 0.15663 0.0
C492 C 0.80163 0.89944 0.14807 0.0
C493 C 0.77342 0.881 0.05915 0.0
C494 C 0.78954 0.89041 0.08332 0.0
C495 C 0.83899 0.90237 0.16171 0.0
C496 C 0.82173 0.90034 0.13418 0.0
H497 H 0.7655 0.83642 0.01113 0.0
H498 H 0.79312 0.85751 0.03535 0.0
H499 H 0.77056 0.89266 0.135 0.0
H500 H 0.8538 0.92859 0.24262 0.0
H501 H 0.8248 0.92533 0.19827 0.0
C502 C 0.39586 0.51798 0.74646 0.0
C503 C 0.41467 0.51252 0.76301 0.0
C504 C 0.38643 0.53628 0.75667 0.0
C505 C 0.36333 0.56248 0.81373 0.0
H506 H 0.38952 0.61338 0.84116 0.0
C507 C 0.33225 0.61619 0.93229 0.0
C508 C 0.33358 0.6373 0.92617 0.0
C509 C 0.34102 0.60258 0.90578 0.0
C510 C 0.3819 0.59936 0.8332 0.0
H511 H 0.43933 0.52295 0.80003 0.0
H512 H 0.42281 0.55479 0.81808 0.0
H513 H 0.40814 0.58812 0.80272 0.0
H514 H 0.34465 0.66059 0.8865 0.0
H515 H 0.35986 0.63681 0.84042 0.0
H516 H 0.33726 0.57349 0.84479 0.0
C517 C 0.41534 0.54498 0.79712 0.0
C518 C 0.39262 0.58485 0.81144 0.0
C519 C 0.42484 0.5267 0.78673 0.0
C520 C 0.34337 0.64444 0.8923 0.0
C521 C 0.35221 0.63083 0.86593 0.0
C522 C 0.35267 0.57692 0.83556 0.0
C523 C 0.39558 0.54946 0.78375 0.0
C524 C 0.38356 0.5661 0.80205 0.0
C525 C 0.35136 0.60978 0.87264 0.0
C526 C 0.36196 0.59534 0.8462 0.0
H527 H 0.38776 0.5075 0.72764 0.0
H528 H 0.37142 0.53956 0.74511 0.0
H529 H 0.35597 0.54809 0.80751 0.0
H530 H 0.32484 0.61013 0.95798 0.0
H531 H 0.34028 0.58643 0.91196 0.0
C532 C 0.60516 0.07239 0.63854 0.0
C533 C 0.61124 0.06561 0.67565 0.0
C534 C 0.61929 0.08105 0.61308 0.0
C535 C 0.66482 0.11147 0.62001 0.0
H536 H 0.66999 0.10405 0.50828 0.0
C537 C 0.71631 0.16411 0.53482 0.0
C538 C 0.73192 0.15319 0.51612 0.0
C539 C 0.6983 0.15427 0.54557 0.0
C540 C 0.66853 0.10636 0.53941 0.0
H541 H 0.63715 0.06101 0.71382 0.0
H542 H 0.66184 0.07625 0.66929 0.0
H543 H 0.64681 0.08212 0.54563 0.0
H544 H 0.73984 0.12437 0.48909 0.0
H545 H 0.70842 0.10728 0.50773 0.0
H546 H 0.68654 0.13544 0.61429 0.0
C547 C 0.64609 0.07499 0.66017 0.0
C548 C 0.65536 0.09382 0.56071 0.0
C549 C 0.63199 0.06613 0.6855 0.0
C550 C 0.72815 0.13308 0.50398 0.0
C551 C 0.71011 0.1233 0.5145 0.0
C552 C 0.67772 0.12411 0.59877 0.0
C553 C 0.63969 0.08324 0.62442 0.0
C554 C 0.65367 0.0961 0.6013 0.0
C555 C 0.69559 0.13346 0.53744 0.0
C556 C 0.67986 0.12159 0.55833 0.0
H557 H 0.58928 0.072 0.62997 0.0
H558 H 0.61399 0.08726 0.58567 0.0
H559 H 0.66351 0.11381 0.65117 0.0
H560 H 0.7187 0.17965 0.54439 0.0
H561 H 0.68713 0.16253 0.56269 0.0
C562 C 0.17239 0.3798 0.44315 0.0
C563 C 0.17413 0.3592 0.43255 0.0
C564 C 0.16296 0.39361 0.41815 0.0
C565 C 0.14515 0.40382 0.31916 0.0
H566 H 0.10143 0.43205 0.37302 0.0
C567 C 0.10718 0.47823 0.26979 0.0
C568 C 0.08668 0.48165 0.27984 0.0
C569 C 0.11659 0.45982 0.27889 0.0
C570 C 0.11332 0.42402 0.35734 0.0
H571 H 0.16933 0.33741 0.38578 0.0
H572 H 0.15302 0.36174 0.34201 0.0
H573 H 0.12282 0.40825 0.4086 0.0
H574 H 0.05935 0.46772 0.3033 0.0
H575 H 0.07589 0.43547 0.31941 0.0
H576 H 0.13585 0.42014 0.26802 0.0
C577 C 0.15872 0.36704 0.36984 0.0
C578 C 0.12578 0.41068 0.37788 0.0
C579 C 0.168 0.35314 0.39498 0.0
C580 C 0.07521 0.46558 0.29551 0.0
C581 C 0.08469 0.44717 0.30487 0.0
C582 C 0.13278 0.41743 0.29859 0.0
C583 C 0.15533 0.38714 0.382 0.0
C584 C 0.14201 0.40075 0.35919 0.0
C585 C 0.10569 0.44454 0.29837 0.0
C586 C 0.1169 0.42783 0.31769 0.0
H587 H 0.17706 0.38502 0.47173 0.0
H588 H 0.1608 0.40918 0.42782 0.0
H589 H 0.15752 0.39619 0.30414 0.0
H590 H 0.11633 0.49026 0.25712 0.0
H591 H 0.13279 0.45823 0.27358 0.0
C592 C 0.62617 0.57805 0.32774 0.0
C593 C 0.60658 0.574 0.34231 0.0
C594 C 0.64084 0.58711 0.35157 0.0
C595 C 0.65325 0.60161 0.45356 0.0
H596 H 0.68189 0.64564 0.40208 0.0
C597 C 0.72515 0.64 0.5134 0.0
C598 C 0.72988 0.6599 0.5013 0.0
C599 C 0.70704 0.6308 0.50172 0.0
C600 C 0.67373 0.63368 0.41718 0.0
H601 H 0.58773 0.5744 0.39441 0.0
H602 H 0.61315 0.59039 0.43553 0.0
H603 H 0.65825 0.62484 0.36521 0.0
H604 H 0.71812 0.68669 0.47199 0.0
H605 H 0.68617 0.67074 0.45241 0.0
H606 H 0.6686 0.61075 0.50576 0.0
C607 C 0.61722 0.58664 0.40579 0.0
C608 C 0.66051 0.62144 0.39578 0.0
C609 C 0.6026 0.57752 0.38207 0.0
C610 C 0.71503 0.67126 0.48144 0.0
C611 C 0.69682 0.66205 0.46985 0.0
C612 C 0.66645 0.61395 0.47509 0.0
C613 C 0.6362 0.5923 0.39036 0.0
C614 C 0.65035 0.60507 0.41353 0.0
C615 C 0.69321 0.64135 0.47792 0.0
C616 C 0.67704 0.62998 0.457 0.0
H617 H 0.62982 0.57538 0.29738 0.0
H618 H 0.65556 0.59078 0.33915 0.0
H619 H 0.64562 0.58913 0.46812 0.0
H620 H 0.73616 0.63094 0.52929 0.0
H621 H 0.70477 0.61487 0.50859 0.0
C622 C 0.17168 0.87564 0.61063 0.0
C623 C 0.17411 0.87678 0.57 0.0
C624 C 0.16507 0.89254 0.63175 0.0
C625 C 0.13242 0.93615 0.61853 0.0
H626 H 0.15116 0.95212 0.72131 0.0
C627 C 0.08287 0.98475 0.71955 0.0
C628 C 0.09234 0.00239 0.73399 0.0
C629 C 0.0945 0.96932 0.70248 0.0
C630 C 0.14584 0.94782 0.6926 0.0
H631 H 0.17275 0.8968 0.51989 0.0
H632 H 0.16092 0.92642 0.55694 0.0
H633 H 0.17056 0.92695 0.68366 0.0
H634 H 0.1215 0.01697 0.74458 0.0
H635 H 0.14176 0.98984 0.71515 0.0
H636 H 0.10756 0.95671 0.62755 0.0
C637 C 0.16411 0.91237 0.57229 0.0
C638 C 0.15689 0.93346 0.67114 0.0
C639 C 0.17098 0.89549 0.55117 0.0
C640 C 0.11374 0.00363 0.73344 0.0
C641 C 0.12537 0.98809 0.71673 0.0
C642 C 0.12128 0.95029 0.64012 0.0
C643 C 0.16057 0.91085 0.61259 0.0
C644 C 0.15019 0.92743 0.63399 0.0
C645 C 0.11578 0.97114 0.69996 0.0
C646 C 0.12777 0.95612 0.67747 0.0
H647 H 0.17416 0.86144 0.62597 0.0
H648 H 0.16237 0.89091 0.66273 0.0
H649 H 0.12676 0.93158 0.5902 0.0
H650 H 0.06643 0.9833 0.71954 0.0
H651 H 0.08679 0.95621 0.69023 0.0
C652 C 0.87291 0.41058 0.87749 0.0
C653 C 0.87079 0.41399 0.83723 0.0
C654 C 0.85672 0.40282 0.89925 0.0
C655 C 0.81274 0.37003 0.88675 0.0
H656 H 0.79773 0.38766 0.99084 0.0
C657 C 0.75981 0.32194 0.98187 0.0
C658 C 0.74279 0.33251 -0.00359 0.0
C659 C 0.77649 0.33259 0.96697 0.0
C660 C 0.80181 0.3826 0.96181 0.0
H661 H 0.84968 0.41294 0.78867 0.0
H662 H 0.82138 0.39923 0.8268 0.0
H663 H 0.82343 0.40674 0.95406 0.0
H664 H 0.73068 0.3625 0.00977 0.0
H665 H 0.7599 0.38102 0.98402 0.0
H666 H 0.79122 0.34594 0.8943 0.0
C667 C 0.83566 0.40248 0.84133 0.0
C668 C 0.8165 0.39346 0.94085 0.0
C669 C 0.8518 0.41045 0.8196 0.0
C670 C 0.74348 0.3539 -0.00154 0.0
C671 C 0.76025 0.36453 0.98387 0.0
C672 C 0.79827 0.35908 0.90781 0.0
C673 C 0.83814 0.39814 0.88115 0.0
C674 C 0.82203 0.3873 0.90306 0.0
C675 C 0.77657 0.35398 0.96672 0.0
C676 C 0.79265 0.36523 0.94553 0.0
H677 H 0.8873 0.4133 0.89202 0.0
H678 H 0.85907 0.39955 0.92984 0.0
H679 H 0.81692 0.36478 0.8579 0.0
H680 H 0.75981 0.30548 0.97995 0.0
H681 H 0.78906 0.3241 0.95443 0.0
C682 C 0.43047 0.01089 0.20675 0.0
C683 C 0.4188 -0.00329 0.22778 0.0
C684 C 0.42143 0.02867 0.19222 0.0
C685 C 0.3742 0.06041 0.19824 0.0
H686 H 0.38886 0.0753 0.09263 0.0
C687 C 0.34176 0.13187 0.12404 0.0
C688 C 0.3386 0.13179 0.08349 0.0
C689 C 0.35099 0.11539 0.14251 0.0
C690 C 0.38437 0.07117 0.12194 0.0
H691 H 0.38885 0.99083 0.25231 0.0
H692 H 0.37318 0.02126 0.22656 0.0
H693 H 0.40708 0.04785 0.12505 0.0
H694 H 0.34175 0.11368 0.03094 0.0
H695 H 0.35722 0.08448 0.06353 0.0
H696 H 0.35086 0.08298 0.19456 0.0
C697 C 0.3893 0.01895 0.22141 0.0
C698 C 0.39513 0.05568 0.14086 0.0
C699 C 0.39831 0.00133 0.23604 0.0
C700 C 0.34399 0.1143 0.06217 0.0
C701 C 0.35309 0.09765 0.08081 0.0
C702 C 0.3633 0.0757 0.17918 0.0
C703 C 0.40057 0.03259 0.19843 0.0
C704 C 0.39013 0.05005 0.17924 0.0
C705 C 0.35711 0.09819 0.12111 0.0
C706 C 0.36824 0.08131 0.14078 0.0
H707 H 0.44628 0.00781 0.19985 0.0
H708 H 0.43068 0.03906 0.17531 0.0
H709 H 0.37005 0.05668 0.22792 0.0
H710 H 0.33786 0.14504 0.14155 0.0
H711 H 0.35403 0.11655 0.17343 0.0
C712 C 0.38397 0.41488 0.63862 0.0
C713 C 0.37829 0.42262 0.67532 0.0
C714 C 0.36987 0.40463 0.61544 0.0
C715 C 0.32412 0.37387 0.6291 0.0
H716 H 0.32279 0.37252 0.51617 0.0
C717 C 0.2745 0.31539 0.55341 0.0
C718 C 0.26086 0.32421 0.52678 0.0
C719 C 0.29198 0.32595 0.56484 0.0
C720 C 0.32304 0.3727 0.54771 0.0
H721 H 0.35282 0.42755 0.71456 0.0
H722 H 0.32804 0.41 0.67359 0.0
H723 H 0.34444 0.39731 0.54944 0.0
H724 H 0.25628 0.34951 0.48713 0.0
H725 H 0.28655 0.36792 0.50726 0.0
H726 H 0.30236 0.34978 0.62768 0.0
C727 C 0.3436 0.41138 0.66333 0.0
C728 C 0.33545 0.38687 0.56675 0.0
C729 C 0.35773 0.42165 0.6866 0.0
C730 C 0.26637 0.34246 0.50815 0.0
C731 C 0.2838 0.35301 0.51962 0.0
C732 C 0.31175 0.35977 0.61014 0.0
C733 C 0.34976 0.40197 0.62838 0.0
C734 C 0.33599 0.38769 0.60768 0.0
C735 C 0.29609 0.34544 0.54978 0.0
C736 C 0.311 0.35904 0.56924 0.0
H737 H 0.39966 0.41559 0.62882 0.0
H738 H 0.37512 0.39761 0.58869 0.0
H739 H 0.32451 0.37379 0.66064 0.0
H740 H 0.27077 0.30129 0.56813 0.0
H741 H 0.30151 0.31948 0.58742 0.0
C742 C 0.83886 0.11917 0.41899 0.0
C743 C 0.82233 0.11722 0.44478 0.0
C744 C 0.84273 0.1044 0.39099 0.0
C745 C 0.83427 0.05059 0.36929 0.0
H746 H 0.8603 0.06616 0.27212 0.0
C747 C 0.8713 0.99046 0.2747 0.0
C748 C 0.89241 0.99395 0.27203 0.0
C749 C 0.85805 0.00632 0.28389 0.0
C750 C 0.85284 0.06161 0.2989 0.0
H751 H 0.79681 0.09819 0.46137 0.0
H752 H 0.80349 0.07213 0.41163 0.0
H753 H 0.8445 0.09219 0.31313 0.0
H754 H 0.91591 0.0171 0.27215 0.0
H755 H 0.89263 0.04498 0.28818 0.0
H756 H 0.84299 0.02009 0.35542 0.0
C757 C 0.81353 0.08517 0.41351 0.0
C758 C 0.8439 0.07646 0.32252 0.0
C759 C 0.80973 0.10001 0.44202 0.0
C760 C 0.89973 0.01398 0.27416 0.0
C761 C 0.8864 0.02993 0.2833 0.0
C762 C 0.84292 0.03573 0.34539 0.0
C763 C 0.83008 0.08728 0.3876 0.0
C764 C 0.83536 0.07122 0.35884 0.0
C765 C 0.86564 0.02596 0.29033 0.0
C766 C 0.85296 0.04121 0.31075 0.0
H767 H 0.84908 0.13209 0.42062 0.0
H768 H 0.85601 0.10624 0.37257 0.0
H769 H 0.828 0.04601 0.39712 0.0
H770 H 0.86517 0.97519 0.2724 0.0
H771 H 0.84206 0.00298 0.28854 0.0
C772 C 0.11812 0.56081 0.15175 0.0
C773 C 0.12177 0.56311 0.19183 0.0
C774 C 0.13375 0.56376 0.12483 0.0
C775 C 0.18975 0.57286 0.11557 0.0
H776 H 0.17283 0.60659 0.02872 0.0
C777 C 0.24941 0.61521 0.02643 0.0
C778 C 0.24514 0.63612 0.02301 0.0
C779 C 0.23396 0.60147 0.03589 0.0
C780 C 0.17783 0.59711 0.05269 0.0
H781 H 0.14478 0.56924 0.23544 0.0
H782 H 0.17199 0.57528 0.18847 0.0
H783 H 0.14725 0.59098 0.07004 0.0
H784 H 0.22095 0.65868 0.02297 0.0
H785 H 0.19423 0.63495 0.04029 0.0
H786 H 0.22032 0.58043 0.10016 0.0
C787 C 0.15719 0.57068 0.17768 0.0
C788 C 0.16314 0.5879 0.07619 0.0
C789 C 0.14159 0.56736 0.20469 0.0
C790 C 0.22481 0.6427 0.02558 0.0
C791 C 0.20941 0.629 0.03536 0.0
C792 C 0.20444 0.58226 0.09232 0.0
C793 C 0.15331 0.56947 0.13736 0.0
C794 C 0.16891 0.57623 0.10874 0.0
C795 C 0.21397 0.60839 0.04236 0.0
C796 C 0.19863 0.59509 0.06145 0.0
H797 H 0.10301 0.55715 0.14111 0.0
H798 H 0.13033 0.56217 0.09412 0.0
H799 H 0.19474 0.56361 0.13987 0.0
H800 H 0.26488 0.60958 0.02395 0.0
H801 H 0.23788 0.5856 0.04009 0.0
C802 C 0.6424 0.84599 0.90666 0.0
C803 C 0.65163 0.85326 0.941 0.0
C804 C 0.63404 0.85944 0.87962 0.0
C805 C 0.63473 0.91315 0.84836 0.0
H806 H 0.58115 0.90106 0.80656 0.0
C807 C 0.59563 0.97119 0.75159 0.0
C808 C 0.57611 0.97656 0.76509 0.0
C809 C 0.6046 0.95288 0.76308 0.0
C810 C 0.59616 0.90459 0.8178 0.0
H811 H 0.65951 0.88054 0.97335 0.0
H812 H 0.64472 0.90405 0.92619 0.0
H813 H 0.59798 0.87647 0.84909 0.0
H814 H 0.54977 0.96584 0.79731 0.0
H815 H 0.56546 0.93407 0.81765 0.0
H816 H 0.6326 0.94161 0.81873 0.0
C817 C 0.64418 0.88787 0.92012 0.0
C818 C 0.60586 0.89046 0.84196 0.0
C819 C 0.65256 0.87439 0.94726 0.0
C820 C 0.56484 0.96219 0.78644 0.0
C821 C 0.57388 0.94393 0.79817 0.0
C822 C 0.62506 0.92723 0.82421 0.0
C823 C 0.6347 0.88052 0.88614 0.0
C824 C 0.62508 0.89478 0.85811 0.0
C825 C 0.59426 0.93964 0.78843 0.0
C826 C 0.60551 0.92329 0.8092 0.0
H827 H 0.64149 0.82982 0.90063 0.0
H828 H 0.62709 0.85332 0.8535 0.0
H829 H 0.64965 0.91679 0.85989 0.0
H830 H 0.60459 0.98181 0.73458 0.0
H831 H 0.62013 0.94971 0.75418 0.0
C832 C 0.39829 0.16828 0.00668 0.0
C833 C 0.38557 0.18085 0.98424 0.0
C834 C 0.41532 0.15905 0.98972 0.0
C835 C 0.45043 0.15806 0.90713 0.0
H836 H 0.44105 0.09976 0.90642 0.0
C837 C 0.49227 0.10572 0.79892 0.0
C838 C 0.49757 0.08604 0.81116 0.0
C839 C 0.47966 0.11794 0.82194 0.0
C840 C 0.44427 0.11592 0.90687 0.0
H841 H 0.38165 0.19532 0.92805 0.0
H842 H 0.41187 0.17973 0.89883 0.0
H843 H 0.41985 0.12162 0.94678 0.0
H844 H 0.494 0.06368 0.85706 0.0
H845 H 0.47273 0.08518 0.89796 0.0
H846 H 0.47506 0.15248 0.86779 0.0
C847 C 0.40852 0.1768 0.92922 0.0
C848 C 0.43207 0.12843 0.93001 0.0
C849 C 0.39125 0.18567 0.94588 0.0
C850 C 0.48983 0.07868 0.84657 0.0
C851 C 0.47761 0.09105 0.87002 0.0
C852 C 0.46296 0.1455 0.88456 0.0
C853 C 0.42008 0.16269 0.95045 0.0
C854 C 0.43487 0.1496 0.92991 0.0
C855 C 0.47248 0.11092 0.85819 0.0
C856 C 0.45981 0.12427 0.88359 0.0
H857 H 0.39413 0.16418 0.0362 0.0
H858 H 0.42411 0.14822 0.00656 0.0
H859 H 0.45278 0.17438 0.90662 0.0
H860 H 0.49801 0.11173 0.77166 0.0
H861 H 0.47563 0.13292 0.8113 0.0
C862 C 0.59252 0.63735 0.24065 0.0
C863 C 0.58197 0.62384 0.21616 0.0
C864 C 0.60436 0.65299 0.22466 0.0
C865 C 0.6128 0.68223 0.13445 0.0
H866 H 0.66937 0.68465 0.16699 0.0
C867 C 0.67045 0.72239 0.03929 0.0
C868 C 0.68271 0.73692 0.05792 0.0
C869 C 0.66004 0.70784 0.06104 0.0
C870 C 0.65358 0.68425 0.15788 0.0
H871 H 0.57445 0.61672 0.15619 0.0
H872 H 0.5947 0.64406 0.12843 0.0
H873 H 0.64534 0.66297 0.20254 0.0
H874 H 0.69518 0.74655 0.1135 0.0
H875 H 0.67678 0.72112 0.15164 0.0
H876 H 0.62088 0.70323 0.08968 0.0
C877 C 0.594 0.64262 0.15985 0.0
C878 C 0.63982 0.67198 0.17832 0.0
C879 C 0.58246 0.62692 0.17572 0.0
C880 C 0.68591 0.73543 0.09833 0.0
C881 C 0.6753 0.72094 0.12022 0.0
C882 C 0.62648 0.69444 0.11413 0.0
C883 C 0.60547 0.65549 0.18404 0.0
C884 C 0.6194 0.67055 0.16622 0.0
C885 C 0.6615 0.70769 0.10188 0.0
C886 C 0.64711 0.69521 0.125 0.0
H887 H 0.59252 0.63518 0.27194 0.0
H888 H 0.61295 0.66283 0.24391 0.0
H889 H 0.59707 0.68166 0.12491 0.0
H890 H 0.66789 0.72308 0.00813 0.0
H891 H 0.64997 0.69739 0.04603 0.0
C892 C 0.01135 0.89552 0.2527 0.0
C893 C 0.00476 0.91482 0.26523 0.0
C894 C 0.02941 0.88722 0.26683 0.0
C895 C 0.05549 0.86789 0.32871 0.0
H896 H 0.10634 0.8963 0.34705 0.0
C897 C 0.11572 0.84054 0.43906 0.0
C898 C 0.13624 0.8416 0.42743 0.0
C899 C 0.10044 0.84892 0.41574 0.0
C900 C 0.09227 0.88814 0.3418 0.0
H901 H 0.01272 0.94123 0.30001 0.0
H902 H 0.04438 0.92661 0.32496 0.0
H903 H 0.07928 0.91299 0.30983 0.0
H904 H 0.15668 0.85183 0.38155 0.0
H905 H 0.12998 0.86638 0.34111 0.0
H906 H 0.06831 0.84314 0.36093 0.0
C907 C 0.03553 0.91796 0.30408 0.0
C908 C 0.07678 0.89773 0.32078 0.0
C909 C 0.01742 0.92633 0.28981 0.0
C910 C 0.14105 0.85076 0.39153 0.0
C911 C 0.1258 0.85924 0.36841 0.0
C912 C 0.07088 0.85837 0.3499 0.0
C913 C 0.04124 0.89802 0.29386 0.0
C914 C 0.05823 0.8877 0.31415 0.0
C915 C 0.1054 0.85861 0.3805 0.0
C916 C 0.08936 0.86844 0.35684 0.0
H917 H 0.00208 0.8864 0.23326 0.0
H918 H 0.03371 0.87199 0.25781 0.0
H919 H 0.04122 0.8599 0.32454 0.0
H920 H 0.11148 0.83359 0.46649 0.0
H921 H 0.08481 0.84834 0.42584 0.0
C922 C 0.85452 0.23779 0.56728 0.0
C923 C 0.83628 0.23993 0.54625 0.0
C924 C 0.8641 0.25472 0.58329 0.0
C925 C 0.85382 0.30779 0.61284 0.0
H926 H 0.91277 0.31001 0.62157 0.0
C927 C 0.8963 0.37881 0.66424 0.0
C928 C 0.90847 0.37597 0.69757 0.0
C929 C 0.88892 0.36219 0.64356 0.0
C930 C 0.89631 0.30945 0.61938 0.0
H931 H 0.81403 0.2615 0.52456 0.0
H932 H 0.83121 0.29135 0.55135 0.0
H933 H 0.8968 0.2816 0.58723 0.0
H934 H 0.92328 0.35342 0.73405 0.0
H935 H 0.91053 0.32413 0.69693 0.0
H936 H 0.85351 0.336 0.64408 0.0
C937 C 0.8378 0.27647 0.55642 0.0
C938 C 0.88712 0.29322 0.5999 0.0
C939 C 0.82799 0.25942 0.54089 0.0
C940 C 0.91387 0.35609 0.70865 0.0
C941 C 0.90667 0.33938 0.68745 0.0
C942 C 0.86304 0.32415 0.63167 0.0
C943 C 0.85586 0.27427 0.57816 0.0
C944 C 0.86575 0.2921 0.59673 0.0
C945 C 0.89376 0.34238 0.65535 0.0
C946 C 0.88431 0.32502 0.63528 0.0
H947 H 0.86117 0.22291 0.57231 0.0
H948 H 0.87769 0.25235 0.60055 0.0
H949 H 0.83734 0.30724 0.61171 0.0
H950 H 0.89185 0.39389 0.65472 0.0
H951 H 0.87913 0.36479 0.61865 0.0
C952 C 0.61976 0.80497 0.11985 0.0
C953 C 0.61914 0.8022 0.07936 0.0
C954 C 0.60193 0.80862 0.14063 0.0
C955 C 0.55531 0.83565 0.12233 0.0
H956 H 0.54632 0.82576 0.2324 0.0
C957 C 0.51622 0.89483 0.21889 0.0
C958 C 0.5011 0.8879 0.24464 0.0
C959 C 0.5289 0.88098 0.19975 0.0
C960 C 0.54846 0.82852 0.20157 0.0
H961 H 0.59954 0.79908 0.02908 0.0
H962 H 0.56801 0.80564 0.06557 0.0
H963 H 0.56937 0.80363 0.19573 0.0
H964 H 0.48831 0.86102 0.27229 0.0
H965 H 0.51054 0.83695 0.23895 0.0
H966 H 0.53482 0.86079 0.12826 0.0
C967 C 0.58233 0.80503 0.08119 0.0
C968 C 0.56165 0.81587 0.1806 0.0
C969 C 0.60028 0.80113 0.06037 0.0
C970 C 0.49975 0.8669 0.25251 0.0
C971 C 0.51248 0.85307 0.23344 0.0
C972 C 0.54218 0.84828 0.14326 0.0
C973 C 0.58315 0.80982 0.12117 0.0
C974 C 0.56571 0.81973 0.14106 0.0
C975 C 0.52678 0.85993 0.20607 0.0
C976 C 0.53915 0.84525 0.18335 0.0
H977 H 0.63423 0.80578 0.13499 0.0
H978 H 0.60316 0.81237 0.17128 0.0
H979 H 0.55827 0.83921 0.09204 0.0
H980 H 0.5177 0.91087 0.21215 0.0
H981 H 0.54015 0.88673 0.17943 0.0
C982 C 0.32576 0.27899 0.02243 0.0
C983 C 0.33831 0.26226 0.03114 0.0
C984 C 0.33365 0.29586 0.0028 0.0
C985 C 0.382 0.31935 0.96632 0.0
H986 H 0.34645 0.33914 0.88442 0.0
C987 C 0.40965 0.36743 0.83453 0.0
C988 C 0.39878 0.38566 0.82934 0.0
C989 C 0.40253 0.35269 0.86063 0.0
C990 C 0.35649 0.33378 0.90727 0.0
H991 H 0.36938 0.25087 0.02868 0.0
H992 H 0.38291 0.27982 0.99371 0.0
H993 H 0.33369 0.3142 0.93078 0.0
H994 H 0.3717 0.40251 0.84617 0.0
H995 H 0.35908 0.37657 0.89079 0.0
H996 H 0.40502 0.33854 0.94142 0.0
C997 C 0.36705 0.28018 0.0024 0.0
C998 C 0.34915 0.31967 0.93415 0.0
C999 C 0.35923 0.26347 0.02247 0.0
C1000 C 0.38043 0.38863 0.84973 0.0
C1001 C 0.37317 0.37379 0.87514 0.0
C1002 C 0.38943 0.33326 0.93899 0.0
C1003 C 0.35421 0.29624 0.99102 0.0
C1004 C 0.36179 0.31227 0.96408 0.0
C1005 C 0.38426 0.35582 0.88118 0.0
C1006 C 0.37672 0.34058 0.9093 0.0
H1007 H 0.30962 0.27865 0.02906 0.0
H1008 H 0.32345 0.30825 -0.00445 0.0
H1009 H 0.3921 0.3142 0.98922 0.0
H1010 H 0.4239 0.36484 0.81933 0.0
H1011 H 0.41126 0.33884 0.86472 0.0
C1012 C 0.87784 0.14873 0.59343 0.0
C1013 C 0.85701 0.14743 0.60263 0.0
C1014 C 0.89253 0.14181 0.6198 0.0
C1015 C 0.92068 0.13508 0.68903 0.0
H1016 H 0.91019 0.08351 0.74034 0.0
C1017 C 0.97925 0.10089 0.7935 0.0
C1018 C 0.98431 0.08047 0.78572 0.0
C1019 C 0.96163 0.10948 0.77779 0.0
C1020 C 0.91332 0.09794 0.72629 0.0
H1021 H 0.83537 0.13861 0.64755 0.0
H1022 H 0.86092 0.12682 0.69333 0.0
H1023 H 0.88434 0.09826 0.69788 0.0
H1024 H 0.97396 0.05265 0.75784 0.0
H1025 H 0.94335 0.06769 0.73023 0.0
H1026 H 0.94997 0.13437 0.71615 0.0
C1027 C 0.8659 0.13277 0.66548 0.0
C1028 C 0.89846 0.10648 0.70223 0.0
C1029 C 0.85126 0.13962 0.6392 0.0
C1030 C 0.97054 0.06842 0.76445 0.0
C1031 C 0.95294 0.07705 0.74863 0.0
C1032 C 0.93553 0.12655 0.7131 0.0
C1033 C 0.88667 0.13352 0.6559 0.0
C1034 C 0.90208 0.12503 0.68297 0.0
C1035 C 0.94872 0.09786 0.75393 0.0
C1036 C 0.93211 0.10776 0.73162 0.0
H1037 H 0.8828 0.15466 0.56556 0.0
H1038 H 0.90844 0.14242 0.61144 0.0
H1039 H 0.92382 0.14949 0.67495 0.0
H1040 H 0.98939 0.11054 0.81017 0.0
H1041 H 0.95852 0.12545 0.7831 0.0
C1042 C 0.10378 0.61115 0.36117 0.0
C1043 C 0.0895 0.61306 0.33084 0.0
C1044 C 0.1108 0.62825 0.38092 0.0
C1045 C 0.09875 0.67987 0.40911 0.0
H1046 H 0.15738 0.68627 0.41653 0.0
C1047 C 0.13663 0.75232 0.47109 0.0
C1048 C 0.15523 0.75027 0.49103 0.0
C1049 C 0.12756 0.73552 0.45328 0.0
C1050 C 0.14098 0.68456 0.41541 0.0
H1051 H 0.07101 0.63445 0.29814 0.0
H1052 H 0.0832 0.66458 0.33355 0.0
H1053 H 0.14331 0.65744 0.3811 0.0
H1054 H 0.17833 0.72879 0.50975 0.0
H1055 H 0.16212 0.69929 0.47995 0.0
H1056 H 0.09635 0.70666 0.44432 0.0
C1057 C 0.08894 0.64969 0.34155 0.0
C1058 C 0.13295 0.66815 0.3948 0.0
C1059 C 0.08207 0.63251 0.32125 0.0
C1060 C 0.1641 0.73089 0.49428 0.0
C1061 C 0.15488 0.71402 0.47691 0.0
C1062 C 0.10678 0.6962 0.43025 0.0
C1063 C 0.10356 0.64766 0.37117 0.0
C1064 C 0.1118 0.66563 0.39157 0.0
C1065 C 0.13675 0.71622 0.4554 0.0
C1066 C 0.12802 0.6987 0.43372 0.0
H1067 H 0.10988 0.59643 0.36931 0.0
H1068 H 0.12194 0.62631 0.40391 0.0
H1069 H 0.08236 0.67808 0.40727 0.0
H1070 H 0.12945 0.76708 0.46781 0.0
H1071 H 0.11376 0.73787 0.4366 0.0
C1072 C 0.85664 0.63262 0.41569 0.0
C1073 C 0.85909 0.64794 0.44395 0.0
C1074 C 0.87331 0.62553 0.39448 0.0
C1075 C 0.92356 0.63906 0.35895 0.0
H1076 H 0.93303 0.58078 0.35667 0.0
C1077 C -0.00222 0.60355 0.2993 0.0
C1078 C -0.00315 0.58417 0.28204 0.0
C1079 C 0.98043 0.61225 0.31598 0.0
C1080 C 0.93043 0.59706 0.35626 0.0
H1081 H 0.88089 0.66811 0.47161 0.0
H1082 H 0.91014 0.65582 0.43379 0.0
H1083 H 0.90396 0.59429 0.39235 0.0
H1084 H 0.97679 0.55924 0.26651 0.0
H1085 H 0.94631 0.57476 0.29414 0.0
H1086 H 0.94973 0.64189 0.32218 0.0
C1087 C 0.89524 0.64932 0.42843 0.0
C1088 C 0.91385 0.60477 0.37699 0.0
C1089 C 0.87857 0.65622 0.45018 0.0
C1090 C 0.97802 0.5741 0.28002 0.0
C1091 C 0.96059 0.58294 0.29614 0.0
C1092 C 0.94001 0.63132 0.33768 0.0
C1093 C 0.89273 0.6338 0.40066 0.0
C1094 C 0.91034 0.62582 0.37865 0.0
C1095 C 0.96169 0.60188 0.31525 0.0
C1096 C 0.9437 0.61021 0.33623 0.0
H1097 H 0.84185 0.62587 0.41026 0.0
H1098 H 0.871 0.61364 0.37303 0.0
H1099 H 0.92099 0.65536 0.35953 0.0
H1100 H 0.01212 0.61163 0.30155 0.0
H1101 H 0.98195 0.62672 0.33083 0.0
C1102 C 0.12635 0.2565 0.57671 0.0
C1103 C 0.14723 0.2518 0.57379 0.0
C1104 C 0.11346 0.24474 0.59974 0.0
C1105 C 0.11393 0.20752 0.68026 0.0
H1106 H 0.06093 0.19232 0.63971 0.0
C1107 C 0.06624 0.14831 0.75962 0.0
C1108 C 0.06113 0.13211 0.73472 0.0
C1109 C 0.07183 0.16715 0.74409 0.0
C1110 C 0.0756 0.1966 0.65158 0.0
H1111 H 0.17085 0.23082 0.59238 0.0
H1112 H 0.14815 0.20987 0.63178 0.0
H1113 H 0.08223 0.21589 0.60316 0.0
H1114 H 0.05554 0.12352 0.67462 0.0
H1115 H 0.06545 0.15609 0.64765 0.0
H1116 H 0.1079 0.1872 0.72735 0.0
C1117 C 0.14189 0.22299 0.6169 0.0
C1118 C 0.08777 0.21018 0.63078 0.0
C1119 C 0.15486 0.23485 0.59399 0.0
C1120 C 0.05973 0.13564 0.69448 0.0
C1121 C 0.06522 0.15442 0.67903 0.0
C1122 C 0.10181 0.19387 0.70097 0.0
C1123 C 0.12109 0.22792 0.62024 0.0
C1124 C 0.10732 0.21529 0.64433 0.0
C1125 C 0.07224 0.17006 0.70352 0.0
C1126 C 0.0828 0.18777 0.68619 0.0
H1127 H 0.11994 0.26956 0.56186 0.0
H1128 H 0.09756 0.24905 0.60201 0.0
H1129 H 0.12874 0.21154 0.69186 0.0
H1130 H 0.0673 0.14605 0.79081 0.0
H1131 H 0.07688 0.17907 0.76365 0.0
C1132 C 0.61103 0.31114 0.93103 0.0
C1133 C 0.61225 0.31286 0.97176 0.0
C1134 C 0.59452 0.31931 0.911 0.0
C1135 C 0.57052 0.35476 0.87983 0.0
H1136 H 0.51305 0.35186 0.90545 0.0
C1137 C 0.51092 0.41075 0.81792 0.0
C1138 C 0.49291 0.40192 0.80366 0.0
C1139 C 0.52495 0.39901 0.83873 0.0
C1140 C 0.52907 0.35273 0.89797 0.0
H1141 H 0.59632 0.32273 0.02382 0.0
H1142 H 0.56723 0.33708 0.98854 0.0
H1143 H 0.53751 0.33084 0.94146 0.0
H1144 H 0.47559 0.37376 0.79999 0.0
H1145 H 0.50007 0.35344 0.83616 0.0
H1146 H 0.56222 0.37665 0.83655 0.0
C1147 C 0.57913 0.32943 0.97224 0.0
C1148 C 0.54301 0.34081 0.91865 0.0
C1149 C 0.59573 0.32118 0.99242 0.0
C1150 C 0.48934 0.38108 0.81039 0.0
C1151 C 0.50325 0.36944 0.83144 0.0
C1152 C 0.55666 0.36679 0.85948 0.0
C1153 C 0.57891 0.32937 0.93128 0.0
C1154 C 0.56384 0.34162 0.90951 0.0
C1155 C 0.52112 0.3783 0.84595 0.0
C1156 C 0.53581 0.36584 0.86824 0.0
H1157 H 0.62343 0.30451 0.91441 0.0
H1158 H 0.59445 0.31865 0.87945 0.0
H1159 H 0.58656 0.35593 0.87264 0.0
H1160 H 0.51411 0.42675 0.81337 0.0
H1161 H 0.53862 0.40621 0.8498 0.0
C1162 C 0.30629 0.75629 0.09204 0.0
C1163 C 0.31129 0.75368 0.05248 0.0
C1164 C 0.31709 0.77019 0.11496 0.0
C1165 C 0.36796 0.79313 0.11667 0.0
H1166 H 0.34643 0.8281 0.19794 0.0
C1167 C 0.41128 0.86095 0.179 0.0
C1168 C 0.40972 0.86537 0.21889 0.0
C1169 C 0.4003 0.84491 0.1629 0.0
C1170 C 0.35266 0.8181 0.17583 0.0
H1171 H 0.3299 0.76497 0.005 0.0
H1172 H 0.34824 0.78964 0.04461 0.0
H1173 H 0.32315 0.80682 0.15989 0.0
H1174 H 0.39619 0.85609 0.27367 0.0
H1175 H 0.37664 0.8279 0.2452 0.0
H1176 H 0.39736 0.80466 0.13188 0.0
C1177 C 0.33653 0.78048 0.05826 0.0
C1178 C 0.33934 0.80604 0.15393 0.0
C1179 C 0.32588 0.76652 0.03549 0.0
C1180 C 0.39775 0.85284 0.24286 0.0
C1181 C 0.38645 0.8369 0.22657 0.0
C1182 C 0.38121 0.80516 0.13842 0.0
C1183 C 0.33294 0.78175 0.09856 0.0
C1184 C 0.34684 0.79383 0.12348 0.0
C1185 C 0.38732 0.8331 0.18628 0.0
C1186 C 0.37366 0.8181 0.16761 0.0
H1187 H 0.29523 0.74647 0.10601 0.0
H1188 H 0.31396 0.77089 0.14592 0.0
H1189 H 0.37427 0.78338 0.0942 0.0
H1190 H 0.42043 0.87041 0.15995 0.0
H1191 H 0.40114 0.84245 0.13172 0.0
C1192 C 0.1142 0.33551 0.57957 0.0
C1193 C 0.13374 0.34399 0.58314 0.0
C1194 C 0.09789 0.34345 0.60094 0.0
C1195 C 0.08627 0.37625 0.68666 0.0
H1196 H 0.03224 0.37698 0.64102 0.0
C1197 C 0.01596 0.41931 0.7502 0.0
C1198 C -0.00208 0.40781 0.75218 0.0
C1199 C 0.03328 0.41138 0.73184 0.0
C1200 C 0.04725 0.37675 0.65415 0.0
H1201 H 0.15146 0.36771 0.61114 0.0
H1202 H 0.12292 0.38204 0.64719 0.0
H1203 H 0.06084 0.36398 0.60314 0.0
H1204 H 0.98416 0.37871 0.73738 0.0
H1205 H 0.01426 0.36514 0.70503 0.0
H1206 H 0.0725 0.38965 0.73732 0.0
C1207 C 0.12024 0.36886 0.62894 0.0
C1208 C 0.06363 0.36921 0.63257 0.0
C1209 C 0.13659 0.36073 0.60805 0.0
C1210 C -0.00222 0.388 0.73649 0.0
C1211 C 0.01495 0.38024 0.71771 0.0
C1212 C 0.06989 0.38409 0.70802 0.0
C1213 C 0.1007 0.36025 0.62588 0.0
C1214 C 0.08334 0.3687 0.64864 0.0
C1215 C 0.03272 0.39197 0.71467 0.0
C1216 C 0.05024 0.38421 0.69204 0.0
H1217 H 0.11158 0.32245 0.56092 0.0
H1218 H 0.08316 0.33615 0.59835 0.0
H1219 H 0.10114 0.3758 0.70026 0.0
H1220 H 0.01657 0.43459 0.76203 0.0
H1221 H 0.04686 0.4207 0.72976 0.0
C1222 C 0.86139 0.74134 0.49418 0.0
C1223 C 0.84059 0.74093 0.48417 0.0
C1224 C 0.87423 0.75622 0.47893 0.0
C1225 C 0.87913 0.78958 0.39474 0.0
H1226 H 0.91798 0.8194 0.45796 0.0
C1227 C 0.92973 0.84927 0.32463 0.0
C1228 C 0.92726 0.86844 0.34224 0.0
C1229 C 0.92415 0.83163 0.34459 0.0
C1230 C 0.90733 0.81104 0.43996 0.0
H1231 H 0.81686 0.7562 0.45129 0.0
H1232 H 0.83939 0.78227 0.42464 0.0
H1233 H 0.89625 0.7936 0.48825 0.0
H1234 H 0.91939 0.88399 0.39608 0.0
H1235 H 0.90954 0.85329 0.43062 0.0
H1236 H 0.88959 0.80736 0.34674 0.0
C1237 C 0.8457 0.7709 0.44404 0.0
C1238 C 0.89494 0.7963 0.45722 0.0
C1239 C 0.83279 0.7561 0.45954 0.0
C1240 C 0.92115 0.86946 0.38147 0.0
C1241 C 0.91566 0.85184 0.40142 0.0
C1242 C 0.89156 0.80418 0.37747 0.0
C1243 C 0.86658 0.77089 0.45316 0.0
C1244 C 0.88045 0.78576 0.43486 0.0
C1245 C 0.91616 0.83289 0.3825 0.0
C1246 C 0.90552 0.81532 0.40002 0.0
H1247 H 0.86787 0.72993 0.51329 0.0
H1248 H 0.89028 0.75584 0.48631 0.0
H1249 H 0.86831 0.78141 0.37675 0.0
H1250 H 0.9346 0.84794 0.29458 0.0
H1251 H 0.925 0.81712 0.32962 0.0
C1252 C 0.37041 0.68154 0.10672 0.0
C1253 C 0.37059 0.68372 0.06608 0.0
C1254 C 0.38846 0.67826 0.12695 0.0
C1255 C 0.4293 0.67318 0.16583 0.0
H1256 H 0.45617 0.62687 0.11794 0.0
C1257 C 0.49134 0.62442 0.24273 0.0
C1258 C 0.48947 0.60321 0.23783 0.0
C1259 C 0.47893 0.63777 0.22179 0.0
C1260 C 0.44884 0.63982 0.13165 0.0
H1261 H 0.38968 0.68595 0.01483 0.0
H1262 H 0.4216 0.67987 0.05037 0.0
H1263 H 0.43217 0.64699 0.08006 0.0
H1264 H 0.47238 0.57945 0.20841 0.0
H1265 H 0.45056 0.60276 0.17242 0.0
H1266 H 0.44519 0.66522 0.21812 0.0
C1267 C 0.40743 0.68072 0.0665 0.0
C1268 C 0.43536 0.65157 0.10976 0.0
C1269 C 0.38926 0.6843 0.04622 0.0
C1270 C 0.47427 0.59566 0.21291 0.0
C1271 C 0.46193 0.60902 0.19189 0.0
C1272 C 0.44284 0.66143 0.18774 0.0
C1273 C 0.40705 0.67684 0.10684 0.0
C1274 C 0.42489 0.66792 0.12702 0.0
C1275 C 0.46447 0.63019 0.19542 0.0
C1276 C 0.45214 0.64419 0.17121 0.0
H1277 H 0.35613 0.68119 0.12261 0.0
H1278 H 0.38758 0.67517 0.1579 0.0
H1279 H 0.42154 0.6858 0.17977 0.0
H1280 H 0.50288 0.63077 0.26171 0.0
H1281 H 0.48117 0.65401 0.22515 0.0
C1282 C 0.61078 0.10234 0.84908 0.0
C1283 C 0.59176 0.10488 0.83086 0.0
C1284 C 0.61846 0.11732 0.87374 0.0
C1285 C 0.6032 0.15781 0.9391 0.0
H1286 H 0.65832 0.17775 0.92495 0.0
C1287 C 0.63386 0.22885 0.01755 0.0
C1288 C 0.65487 0.23044 0.0251 0.0
C1289 C 0.62602 0.21192 -0.00179 0.0
C1290 C 0.64306 0.17205 0.92993 0.0
H1291 H 0.56591 0.12512 0.82397 0.0
H1292 H 0.57932 0.15138 0.86799 0.0
H1293 H 0.6448 0.15224 0.88046 0.0
H1294 H 0.68383 0.21459 0.02125 0.0
H1295 H 0.67 0.18463 0.98877 0.0
H1296 H 0.6015 0.17724 0.98901 0.0
C1297 C 0.58821 0.13773 0.86283 0.0
C1298 C 0.63528 0.15759 0.90416 0.0
C1299 C 0.58064 0.12284 0.8375 0.0
C1300 C 0.66761 0.21396 0.01555 0.0
C1301 C 0.6597 0.19687 -0.00344 0.0
C1302 C 0.61108 0.17207 0.96527 0.0
C1303 C 0.60717 0.13503 0.88117 0.0
C1304 C 0.61524 0.15049 0.90833 0.0
C1305 C 0.63894 0.196 0.98638 0.0
C1306 C 0.63106 0.17952 0.96079 0.0
H1307 H 0.61974 0.08869 0.84436 0.0
H1308 H 0.63306 0.11486 0.88769 0.0
H1309 H 0.5878 0.15229 0.94321 0.0
H1310 H 0.62354 0.24123 0.02448 0.0
H1311 H 0.61001 0.21192 0.99065 0.0
C1312 C 0.25879 0.21098 0.14284 0.0
C1313 C 0.28015 0.20902 0.14422 0.0
C1314 C 0.24759 0.21408 0.17683 0.0
C1315 C 0.24914 0.21004 0.28352 0.0
H1316 H 0.2121 0.25609 0.28056 0.0
C1317 C 0.22318 0.25203 0.42093 0.0
C1318 C 0.20356 0.26065 0.42255 0.0
C1319 C 0.2301 0.24255 0.38714 0.0
C1320 C 0.222 0.24291 0.28175 0.0
H1321 H 0.30634 0.20792 0.18273 0.0
H1322 H 0.28666 0.21342 0.24226 0.0
H1323 H 0.22907 0.2451 0.2211 0.0
H1324 H 0.17553 0.2653 0.39023 0.0
H1325 H 0.18762 0.24844 0.33109 0.0
H1326 H 0.24228 0.20801 0.34431 0.0
C1327 C 0.27868 0.21248 0.21471 0.0
C1328 C 0.23179 0.23666 0.2477 0.0
C1329 C 0.28995 0.20947 0.18061 0.0
C1330 C 0.19077 0.25896 0.38988 0.0
C1331 C 0.19772 0.24936 0.35597 0.0
C1332 C 0.23922 0.21619 0.31756 0.0
C1333 C 0.25744 0.21518 0.21299 0.0
C1334 C 0.24576 0.22044 0.24844 0.0
C1335 C 0.21758 0.24132 0.3541 0.0
C1336 C 0.22591 0.23299 0.31722 0.0
H1337 H 0.25067 0.21055 0.1154 0.0
H1338 H 0.23121 0.21587 0.17477 0.0
H1339 H 0.25962 0.1973 0.2847 0.0
H1340 H 0.23348 0.25299 0.44549 0.0
H1341 H 0.24559 0.23684 0.38654 0.0
C1342 C 0.48504 0.4717 0.64903 0.0
C1343 C 0.47274 0.45421 0.65072 0.0
C1344 C 0.49135 0.47952 0.61337 0.0
C1345 C 0.47585 0.48152 0.51139 0.0
H1346 H 0.52878 0.50686 0.49798 0.0
C1347 C 0.50305 0.51733 0.36673 0.0
C1348 C 0.51341 0.53603 0.36923 0.0
C1349 C 0.49797 0.50656 0.40031 0.0
C1350 C 0.51389 0.5 0.50148 0.0
H1351 H 0.45812 0.43069 0.61627 0.0
H1352 H 0.46936 0.44439 0.5535 0.0
H1353 H 0.52161 0.48759 0.5571 0.0
H1354 H 0.52604 0.55837 0.40907 0.0
H1355 H 0.51705 0.5395 0.46791 0.0
H1356 H 0.46814 0.49406 0.45576 0.0
C1357 C 0.47388 0.45211 0.58001 0.0
C1358 C 0.5098 0.4889 0.5352 0.0
C1359 C 0.46759 0.44419 0.6159 0.0
C1360 C 0.51805 0.54402 0.40615 0.0
C1361 C 0.51308 0.53315 0.43979 0.0
C1362 C 0.47997 0.49256 0.47755 0.0
C1363 C 0.48554 0.47006 0.57844 0.0
C1364 C 0.49064 0.47982 0.54079 0.0
C1365 C 0.50323 0.51419 0.43713 0.0
C1366 C 0.49893 0.50213 0.47255 0.0
H1367 H 0.48941 0.47974 0.6753 0.0
H1368 H 0.50011 0.4935 0.6132 0.0
H1369 H 0.46084 0.47496 0.51511 0.0
H1370 H 0.49915 0.51078 0.33874 0.0
H1371 H 0.49047 0.49195 0.3974 0.0
C1372 C 0.22015 0.79111 0.65022 0.0
C1373 C 0.20002 0.7891 0.63693 0.0
C1374 C 0.22551 0.78463 0.68732 0.0
C1375 C 0.21111 0.74697 0.75938 0.0
H1376 H 0.25348 0.77369 0.81932 0.0
C1377 C 0.24669 0.71481 0.90166 0.0
C1378 C 0.2681 0.71567 0.90352 0.0
C1379 C 0.23624 0.72416 0.87116 0.0
C1380 C 0.24167 0.76606 0.80279 0.0
H1381 H 0.16944 0.77971 0.65271 0.0
H1382 H 0.17893 0.76818 0.71823 0.0
H1383 H 0.23752 0.79162 0.76515 0.0
H1384 H 0.29536 0.72628 0.87406 0.0
H1385 H 0.27703 0.74266 0.82076 0.0
H1386 H 0.21556 0.72128 0.79691 0.0
C1387 C 0.19052 0.77471 0.69955 0.0
C1388 C 0.23249 0.77632 0.77196 0.0
C1389 C 0.18508 0.78139 0.66226 0.0
C1390 C 0.27888 0.72535 0.87344 0.0
C1391 C 0.2684 0.73488 0.84318 0.0
C1392 C 0.22021 0.73674 0.79051 0.0
C1393 C 0.21089 0.77593 0.71208 0.0
C1394 C 0.2176 0.76664 0.74914 0.0
C1395 C 0.247 0.7347 0.84223 0.0
C1396 C 0.236 0.746 0.81165 0.0
H1397 H 0.23196 0.7972 0.6315 0.0
H1398 H 0.24137 0.78555 0.69584 0.0
H1399 H 0.19982 0.73905 0.74208 0.0
H1400 H 0.23796 0.70734 0.9243 0.0
H1401 H 0.21973 0.72378 0.87097 0.0
C1402 C 0.04011 0.51125 0.13777 0.0
C1403 C 0.03525 0.53151 0.14704 0.0
C1404 C 0.03183 0.50206 0.10495 0.0
C1405 C 0.0043 0.51141 0.01334 0.0
H1406 H 0.98192 0.4577 0.0335 0.0
C1407 C 0.95104 0.47379 0.90479 0.0
C1408 C 0.95636 0.45392 0.89352 0.0
C1409 C 0.95957 0.48247 0.93788 0.0
C1410 C 0.98822 0.4726 0.02744 0.0
H1411 H 0.01911 0.55854 0.1282 0.0
H1412 H 0.00425 0.54231 0.07064 0.0
H1413 H 0.00087 0.4753 0.08451 0.0
H1414 H 0.97343 0.42693 0.90939 0.0
H1415 H 0.98857 0.44224 0.96768 0.0
H1416 H 0.99151 0.50875 0.95637 0.0
C1417 C 0.01461 0.5336 0.08869 0.0
C1418 C -0.00087 0.48266 0.05647 0.0
C1419 C 0.02309 0.54291 0.12152 0.0
C1420 C 0.96909 0.44226 0.91759 0.0
C1421 C 0.97776 0.45104 0.95079 0.0
C1422 C 0.99335 0.50138 0.98437 0.0
C1423 C 0.01837 0.51289 0.08095 0.0
C1424 C 0.00727 0.50215 0.04968 0.0
C1425 C 0.97366 0.47148 0.96022 0.0
C1426 C 0.98514 0.48194 0.99124 0.0
H1427 H 0.04976 0.50226 0.15675 0.0
H1428 H 0.03544 0.48625 0.09906 0.0
H1429 H 0.01061 0.5263 0.00718 0.0
H1430 H 0.94096 0.48297 0.88699 0.0
H1431 H 0.95575 0.49807 0.94515 0.0
C1432 C 0.73848 0.77392 0.90322 0.0
C1433 C 0.71756 0.77863 0.90438 0.0
C1434 C 0.74741 0.76663 0.86909 0.0
C1435 C 0.73407 0.73986 0.77924 0.0
H1436 H 0.78718 0.75778 0.74329 0.0
C1437 C 0.76374 0.72134 0.62704 0.0
C1438 C 0.78412 0.71504 0.62307 0.0
C1439 C 0.75654 0.72869 0.66245 0.0
C1440 C 0.77247 0.75246 0.75335 0.0
H1441 H 0.68981 0.78013 0.87011 0.0
H1442 H 0.7055 0.76758 0.81038 0.0
H1443 H 0.7726 0.77253 0.80254 0.0
H1444 H 0.81296 0.7116 0.65332 0.0
H1445 H 0.80022 0.72455 0.71565 0.0
H1446 H 0.73382 0.71992 0.73004 0.0
C1447 C 0.71486 0.76922 0.83616 0.0
C1448 C 0.76411 0.76092 0.7871 0.0
C1449 C 0.70592 0.77652 0.8703 0.0
C1450 C 0.79718 0.71632 0.65544 0.0
C1451 C 0.78994 0.7238 0.69101 0.0
C1452 C 0.7424 0.73144 0.74558 0.0
C1453 C 0.73561 0.76391 0.83544 0.0
C1454 C 0.74473 0.75485 0.80007 0.0
C1455 C 0.76952 0.72995 0.69477 0.0
C1456 C 0.76155 0.73784 0.73206 0.0
H1457 H 0.74794 0.77542 0.9289 0.0
H1458 H 0.7634 0.76253 0.86941 0.0
H1459 H 0.71931 0.73455 0.7891 0.0
H1460 H 0.75322 0.7206 0.60278 0.0
H1461 H 0.74081 0.73363 0.66439 0.0
C1462 C 0.72828 0.28528 0.15449 0.0
C1463 C 0.70799 0.27908 0.1491 0.0
C1464 C 0.73938 0.27855 0.18656 0.0
C1465 C 0.73473 0.25237 0.2818 0.0
H1466 H 0.78951 0.23354 0.25813 0.0
C1467 C 0.77458 0.1971 0.38155 0.0
C1468 C 0.79318 0.20391 0.3969 0.0
C1469 C 0.76633 0.20632 0.34877 0.0
C1470 C 0.77432 0.23892 0.26511 0.0
H1471 H 0.683 0.2619 0.17395 0.0
H1472 H 0.70248 0.24971 0.22971 0.0
H1473 H 0.76983 0.25148 0.20835 0.0
H1474 H 0.81872 0.22429 0.38841 0.0
H1475 H 0.80417 0.24053 0.3301 0.0
H1476 H 0.73899 0.23914 0.33805 0.0
C1477 C 0.70978 0.26005 0.20949 0.0
C1478 C 0.76307 0.24928 0.23682 0.0
C1479 C 0.69858 0.267 0.17756 0.0
C1480 C 0.8044 0.21876 0.37684 0.0
C1481 C 0.79605 0.22808 0.34377 0.0
C1482 C 0.74587 0.24186 0.30981 0.0
C1483 C 0.73047 0.26529 0.2137 0.0
C1484 C 0.74303 0.25587 0.24472 0.0
C1485 C 0.77651 0.22253 0.3308 0.0
C1486 C 0.76559 0.23475 0.30148 0.0
H1487 H 0.73582 0.29483 0.13316 0.0
H1488 H 0.75511 0.28329 0.18951 0.0
H1489 H 0.71953 0.2576 0.2891 0.0
H1490 H 0.76579 0.18549 0.3964 0.0
H1491 H 0.75144 0.2015 0.3387 0.0
C1492 C 0.02372 0.03668 0.92459 0.0
C1493 C 0.03479 0.02688 0.89497 0.0
C1494 C 0.01335 0.02525 0.95242 0.0
C1495 C 0.00832 0.97509 -0.00249 0.0
H1496 H 0.95173 0.99125 0.00933 0.0
C1497 C 0.95732 0.93446 0.1068 0.0
C1498 C 0.94894 0.94834 0.13355 0.0
C1499 C 0.96464 0.94134 0.07095 0.0
C1500 C 0.96746 0.98652 0.00616 0.0
H1501 H 0.04548 -0.0024 0.87364 0.0
H1502 H 0.02752 0.97769 0.92268 0.0
H1503 H 0.97367 0.00968 0.9641 0.0
H1504 H 0.93937 0.97964 0.14226 0.0
H1505 H 0.95216 0.99161 0.08014 0.0
H1506 H 0.00237 0.95244 0.04065 0.0
C1507 C 0.02662 0.99415 0.92393 0.0
C1508 C 0.98003 -0.00286 0.9806 0.0
C1509 C 0.03688 0.00557 0.89591 0.0
C1510 C 0.94606 0.96868 0.12236 0.0
C1511 C 0.95323 0.9755 0.08658 0.0
C1512 C -0.00423 0.96453 0.0233 0.0
C1513 C 0.01408 0.00388 0.95129 0.0
C1514 C 0.00068 0.99184 0.97684 0.0
C1515 C 0.96347 0.9621 0.06136 0.0
C1516 C 0.97536 0.9705 0.0286 0.0
H1517 H 0.02188 0.05308 0.92474 0.0
H1518 H 0.0041 0.03307 0.97391 0.0
H1519 H 0.02418 0.9707 -0.00506 0.0
H1520 H 0.95961 0.91865 0.11464 0.0
H1521 H 0.97221 0.93065 0.05168 0.0
C1522 C 0.50664 0.01679 0.65224 0.0
C1523 C 0.51789 0.03498 0.65425 0.0
C1524 C 0.50117 0.00857 0.61641 0.0
C1525 C 0.49381 0.01905 0.51305 0.0
H1526 H 0.50617 0.96152 0.50202 0.0
C1527 C 0.48384 0.9759 0.3677 0.0
C1528 C 0.47509 0.95638 0.36991 0.0
C1529 C 0.48981 0.98613 0.40144 0.0
C1530 C 0.50243 0.97752 0.50475 0.0
H1531 H 0.53121 0.05939 0.62013 0.0
H1532 H 0.52144 0.04491 0.55705 0.0
H1533 H 0.51433 0.97897 0.5626 0.0
H1534 H 0.46578 0.93231 0.40937 0.0
H1535 H 0.47593 0.95028 0.46824 0.0
H1536 H 0.48157 0.01749 0.45534 0.0
C1537 C 0.517 0.03709 0.5835 0.0
C1538 C 0.50714 0.98752 0.53938 0.0
C1539 C 0.52257 0.04535 0.61955 0.0
C1540 C 0.47259 0.94726 0.40659 0.0
C1541 C 0.47849 0.95753 0.44034 0.0
C1542 C 0.48898 0.009 0.47837 0.0
C1543 C 0.50675 0.01834 0.58171 0.0
C1544 C 0.50263 0.00829 0.54404 0.0
C1545 C 0.4871 0.9771 0.43812 0.0
C1546 C 0.49303 0.98807 0.47407 0.0
H1547 H 0.5025 0.00852 0.67836 0.0
H1548 H 0.49287 0.99432 0.61581 0.0
H1549 H 0.49013 0.03505 0.51605 0.0
H1550 H 0.48608 0.98335 0.33989 0.0
H1551 H 0.49666 0.00106 0.39876 0.0
C1552 C 0.23823 0.31481 0.6667 0.0
C1553 C 0.21998 0.3045 0.65817 0.0
C1554 C 0.25086 0.3079 0.69685 0.0
C1555 C 0.26817 0.26178 0.73429 0.0
H1556 H 0.27715 0.28356 0.83775 0.0
C1557 C 0.29462 0.21244 0.86296 0.0
C1558 C 0.30483 0.2218 0.894 0.0
C1559 C 0.2885 0.224 0.83078 0.0
C1560 C 0.27529 0.27745 0.80866 0.0
H1561 H 0.19969 0.28029 0.67665 0.0
H1562 H 0.22174 0.26836 0.72903 0.0
H1563 H 0.25737 0.30317 0.79059 0.0
H1564 H 0.3185 0.24987 0.91441 0.0
H1565 H 0.30872 0.26978 0.85759 0.0
H1566 H 0.28578 0.23598 0.75196 0.0
C1567 C 0.22631 0.28156 0.71225 0.0
C1568 C 0.26386 0.28869 0.78186 0.0
C1569 C 0.21371 0.28846 0.68246 0.0
C1570 C 0.31046 0.24237 0.89086 0.0
C1571 C 0.30466 0.25381 0.85852 0.0
C1572 C 0.27979 0.25064 0.76084 0.0
C1573 C 0.24529 0.29069 0.71859 0.0
C1574 C 0.25984 0.28066 0.74491 0.0
C1575 C 0.29276 0.24503 0.82895 0.0
C1576 C 0.28303 0.25806 0.79875 0.0
H1577 H 0.24354 0.32705 0.64816 0.0
H1578 H 0.2655 0.31511 0.70148 0.0
H1579 H 0.2652 0.25539 0.70573 0.0
H1580 H 0.28994 0.19666 0.86494 0.0
H1581 H 0.27924 0.2167 0.80873 0.0
C1582 C 0.43268 0.48722 0.9071 0.0
C1583 C 0.43901 0.46768 0.89582 0.0
C1584 C 0.44217 0.49697 0.93852 0.0
C1585 C 0.4795 0.48932 0.01938 0.0
H1586 H 0.49696 0.54386 0.99172 0.0
C1587 C 0.543 0.52818 0.10477 0.0
C1588 C 0.53673 0.54678 0.12093 0.0
C1589 C 0.53211 0.51966 0.07379 0.0
C1590 C 0.49219 0.52864 -0.00024 0.0
H1591 H 0.45847 0.44218 0.9103 0.0
H1592 H 0.47481 0.4589 0.96498 0.0
H1593 H 0.47222 0.52617 0.95079 0.0
H1594 H 0.51582 0.57212 0.11521 0.0
H1595 H 0.49722 0.55758 0.0604 0.0
H1596 H 0.49979 0.49167 0.06791 0.0
C1597 C 0.46266 0.46687 0.95006 0.0
C1598 C 0.47781 0.5186 0.97667 0.0
C1599 C 0.45326 0.45722 0.91875 0.0
C1600 C 0.52099 0.55781 0.10294 0.0
C1601 C 0.5103 0.54944 0.07171 0.0
C1602 C 0.49399 0.49928 0.0422 0.0
C1603 C 0.458 0.48724 0.95903 0.0
C1604 C 0.4714 0.49875 0.98608 0.0
C1605 C 0.51502 0.52979 0.05835 0.0
C1606 C 0.50059 0.51897 0.03247 0.0
H1607 H 0.4219 0.49566 0.88949 0.0
H1608 H 0.43797 0.51254 0.94525 0.0
H1609 H 0.47472 0.47416 0.02774 0.0
H1610 H 0.5549 0.51928 0.11852 0.0
H1611 H 0.53622 0.50459 0.06356 0.0
C1612 C 0.24005 0.79614 0.37018 0.0
C1613 C 0.22105 0.79038 0.3854 0.0
C1614 C 0.24958 0.78404 0.34183 0.0
C1615 C 0.24909 0.73041 0.30902 0.0
H1616 H 0.2808 0.74984 0.22135 0.0
C1617 C 0.26624 0.68378 0.17187 0.0
C1618 C 0.28509 0.68627 0.1533 0.0
C1619 C 0.26177 0.69465 0.20574 0.0
C1620 C 0.27232 0.74421 0.24621 0.0
H1621 H 0.19634 0.7687 0.38114 0.0
H1622 H 0.21238 0.74821 0.33057 0.0
H1623 H 0.26512 0.77436 0.26592 0.0
H1624 H 0.31441 0.70128 0.15584 0.0
H1625 H 0.30655 0.72055 0.21527 0.0
H1626 H 0.25565 0.70031 0.2885 0.0
C1627 C 0.22036 0.76152 0.34128 0.0
C1628 C 0.26327 0.75825 0.27159 0.0
C1629 C 0.21101 0.7734 0.36977 0.0
C1630 C 0.29996 0.69877 0.17037 0.0
C1631 C 0.29535 0.70999 0.20392 0.0
C1632 C 0.258 0.71643 0.28357 0.0
C1633 C 0.24014 0.76612 0.32831 0.0
C1634 C 0.25112 0.75149 0.30271 0.0
C1635 C 0.27594 0.70857 0.22104 0.0
C1636 C 0.26935 0.72318 0.25146 0.0
H1637 H 0.24819 0.809 0.38233 0.0
H1638 H 0.26481 0.78802 0.33236 0.0
H1639 H 0.24035 0.72466 0.33343 0.0
H1640 H 0.25443 0.67458 0.15856 0.0
H1641 H 0.24663 0.6934 0.21808 0.0
C1642 C 0.02573 0.54166 0.4128 0.0
C1643 C 0.0442 0.53273 0.40104 0.0
C1644 C 0.01532 0.53432 0.44523 0.0
C1645 C 0.00828 0.48605 0.49487 0.0
H1646 H 0.97584 0.51783 0.56729 0.0
C1647 C 0.96776 0.45202 0.62773 0.0
C1648 C 0.94927 0.46059 0.64026 0.0
C1649 C 0.97803 0.46003 0.59577 0.0
C1650 C 0.98453 0.50877 0.54678 0.0
H1651 H 0.06714 0.51027 0.41536 0.0
H1652 H 0.04894 0.49739 0.47271 0.0
H1653 H -0.00101 0.53509 0.5225 0.0
H1654 H 0.92625 0.48331 0.628 0.0
H1655 H 0.94422 0.49737 0.5713 0.0
H1656 H 0.99379 0.45975 0.51892 0.0
C1657 C 0.04245 0.50997 0.45652 0.0
C1658 C -0.00205 0.51864 0.52145 0.0
C1659 C 0.053 0.51749 0.42413 0.0
C1660 C 0.94041 0.47636 0.61857 0.0
C1661 C 0.95082 0.48454 0.58658 0.0
C1662 C 0.99485 0.47619 0.5201 0.0
C1663 C 0.02311 0.51776 0.46634 0.0
C1664 C 0.01002 0.50737 0.49534 0.0
C1665 C 0.97009 0.47689 0.57577 0.0
C1666 C 0.98288 0.48743 0.54644 0.0
H1667 H 0.01865 0.55343 0.3953 0.0
H1668 H 0.00046 0.54061 0.45191 0.0
H1669 H 0.01699 0.47698 0.47438 0.0
H1670 H 0.97489 0.43986 0.64414 0.0
H1671 H 0.99286 0.45385 0.58844 0.0
C1672 C 0.69404 0.78576 0.17137 0.0
C1673 C 0.70807 0.79964 0.15559 0.0
C1674 C 0.70033 0.77169 0.19957 0.0
C1675 C 0.74758 0.74542 0.22537 0.0
H1676 H 0.71895 0.72665 0.31733 0.0
C1677 C 0.78651 0.70488 0.35172 0.0
C1678 C 0.77579 0.69032 0.37341 0.0
C1679 C 0.7773 0.71453 0.32019 0.0
C1680 C 0.7269 0.73142 0.29123 0.0
H1681 H 0.73886 0.81121 0.15931 0.0
H1682 H 0.74961 0.78737 0.20964 0.0
H1683 H 0.70371 0.7532 0.27661 0.0
H1684 H 0.74755 0.67349 0.37817 0.0
H1685 H 0.73128 0.69045 0.32258 0.0
H1686 H 0.77092 0.72404 0.24014 0.0
C1687 C 0.73398 0.78684 0.19953 0.0
C1688 C 0.71824 0.74672 0.26815 0.0
C1689 C 0.72777 0.80071 0.17124 0.0
C1690 C 0.75623 0.68443 0.36135 0.0
C1691 C 0.74684 0.69433 0.33 0.0
C1692 C 0.75618 0.73016 0.24828 0.0
C1693 C 0.7207 0.77147 0.21233 0.0
C1694 C 0.72881 0.75428 0.23566 0.0
C1695 C 0.75705 0.71002 0.31006 0.0
C1696 C 0.74622 0.72337 0.28204 0.0
H1697 H 0.67888 0.7844 0.15912 0.0
H1698 H 0.68976 0.76003 0.20899 0.0
H1699 H 0.7558 0.75049 0.19977 0.0
H1700 H 0.80151 0.70984 0.3609 0.0
H1701 H 0.78553 0.72665 0.30572 0.0
C1702 C 0.75764 0.18082 0.66699 0.0
C1703 C 0.77303 0.19146 0.64714 0.0
C1704 C 0.74771 0.18988 0.69883 0.0
C1705 C 0.73482 0.24093 0.73355 0.0
H1706 H 0.72264 0.21549 0.83257 0.0
C1707 C 0.70848 0.28626 0.86891 0.0
C1708 C 0.69604 0.27633 0.89613 0.0
C1709 C 0.71551 0.27577 0.83599 0.0
C1710 C 0.72554 0.22272 0.80479 0.0
H1711 H 0.79141 0.2189 0.64703 0.0
H1712 H 0.77431 0.23446 0.70239 0.0
H1713 H 0.74056 0.19612 0.78241 0.0
H1714 H 0.67969 0.24848 0.90893 0.0
H1715 H 0.69116 0.23052 0.85084 0.0
H1716 H 0.7198 0.26748 0.75554 0.0
C1717 C 0.76953 0.21946 0.69297 0.0
C1718 C 0.73591 0.21161 0.77619 0.0
C1719 C 0.77941 0.21046 0.66149 0.0
C1720 C 0.68943 0.2564 0.88843 0.0
C1721 C 0.69619 0.24605 0.8554 0.0
C1722 C 0.72431 0.25197 0.76194 0.0
C1723 C 0.75307 0.20964 0.71097 0.0
C1724 C 0.74095 0.22074 0.74059 0.0
C1725 C 0.71 0.25528 0.82962 0.0
C1726 C 0.71978 0.24312 0.79814 0.0
H1727 H 0.75235 0.16622 0.65634 0.0
H1728 H 0.7351 0.18197 0.71244 0.0
H1729 H 0.73821 0.24821 0.70599 0.0
H1730 H 0.71395 0.30155 0.87448 0.0
H1731 H 0.72622 0.28335 0.81686 0.0
C1732 C 0.97692 0.96703 0.39167 0.0
C1733 C 0.95578 0.96373 0.39026 0.0
C1734 C 0.98573 0.97697 0.42328 0.0
C1735 C 0.97679 0.99371 0.52471 0.0
H1736 H 0.01903 0.03299 0.4998 0.0
C1737 C 0.00853 0.0467 0.64153 0.0
C1738 C 0.02988 0.04676 0.64518 0.0
C1739 C -0.00071 0.03878 0.60833 0.0
C1740 C 0.00734 0.02201 0.50717 0.0
H1741 H 0.92735 0.96743 0.42157 0.0
H1742 H 0.94274 0.98519 0.47701 0.0
H1743 H 0.00301 0.01346 0.44766 0.0
H1744 H 0.05831 0.04009 0.61565 0.0
H1745 H 0.04205 0.02624 0.5571 0.0
H1746 H 0.98106 0.00239 0.5842 0.0
C1747 C 0.95254 0.97987 0.45371 0.0
C1748 C -0.0018 0.01074 0.4774 0.0
C1749 C 0.9437 0.96968 0.42207 0.0
C1750 C 0.04184 0.04031 0.61354 0.0
C1751 C 0.03253 0.03232 0.58014 0.0
C1752 C 0.98583 0.00508 0.55443 0.0
C1753 C 0.9736 0.98407 0.45414 0.0
C1754 C 0.98293 -0.00366 0.48585 0.0
C1755 C 0.01116 0.03074 0.57799 0.0
C1756 C 0.00124 0.01929 0.54598 0.0
H1757 H 0.98666 0.96233 0.36776 0.0
H1758 H 0.00206 0.97939 0.42318 0.0
H1759 H 0.9653 0.98258 0.53232 0.0
H1760 H -0.00109 0.05185 0.66526 0.0
H1761 H 0.9828 0.03823 0.60704 0.0
C1762 C 0.56077 0.00336 0.91253 0.0
C1763 C 0.55366 0.02246 0.90037 0.0
C1764 C 0.55151 0.99357 0.94414 0.0
C1765 C 0.51278 0.00028 0.02313 0.0
H1766 H 0.49764 0.94506 -0.00478 0.0
C1767 C 0.44858 0.9601 0.10407 0.0
C1768 C 0.45505 0.94186 0.12133 0.0
C1769 C 0.45993 0.96868 0.07376 0.0
C1770 C 0.50177 0.96046 0.00332 0.0
H1771 H 0.53305 0.04728 0.91348 0.0
H1772 H 0.51713 0.03053 0.96855 0.0
H1773 H 0.52256 0.96333 0.95566 0.0
H1774 H 0.47682 0.91712 0.11806 0.0
H1775 H 0.49623 0.93174 0.06435 0.0
H1776 H 0.49161 -0.00248 0.07025 0.0
C1777 C 0.52973 0.02293 0.95422 0.0
C1778 C 0.51625 0.97085 0.98106 0.0
C1779 C 0.5389 0.03261 0.92271 0.0
C1780 C 0.4715 0.93115 0.10492 0.0
C1781 C 0.48265 0.93957 0.07434 0.0
C1782 C 0.49818 0.98997 0.04511 0.0
C1783 C 0.53511 0.00284 0.96391 0.0
C1784 C 0.5218 0.99096 0.99051 0.0
C1785 C 0.47767 0.95896 0.06008 0.0
C1786 C 0.49238 0.97004 0.03521 0.0
H1787 H 0.57193 -0.00485 0.89531 0.0
H1788 H 0.55627 0.97825 0.95145 0.0
H1789 H 0.51688 0.01564 0.03153 0.0
H1790 H 0.43612 0.96876 0.1166 0.0
H1791 H 0.45561 0.98352 0.06276 0.0
loop_
_geom_bond_atom_site_label_1
_geom_bond_atom_site_label_2
_geom_bond_distance
_geom_bond_site_symmetry_2
_ccdc_geom_bond_type
Sc0 O3 2.025 . S
Sc0 O10 2.105 . S
Sc0 O13 2.105 . S
Sc0 O16 2.105 . S
Sc0 O19 2.105 1_554 S
Sc1 O3 2.025 1_556 S
Sc1 O11 2.105 . S
Sc1 O15 2.105 1_556 S
Sc1 O17 2.105 . S
Sc1 O21 2.105 . S
Sc2 O3 2.025 . S
Sc2 O12 2.105 . S
Sc2 O14 2.105 . S
Sc2 O18 2.105 . S
Sc2 O20 2.105 . S
O3 Sc0 2.025 . S
O3 Sc1 2.025 1_554 S
O3 Sc2 2.025 . S
C4 O10 1.268 . S
C4 O20 1.268 . S
C5 O11 1.268 . S
C5 O19 1.268 . S
C6 O12 1.268 1_556 S
C6 O21 1.268 . S
C7 O13 1.268 . S
C7 O17 1.268 1_554 S
C8 O14 1.268 . S
C8 O16 1.268 . S
C9 O15 1.268 . S
C9 O18 1.268 . S
O10 Sc0 2.105 . S
O10 C4 1.268 . S
O11 Sc1 2.105 . S
O11 C5 1.268 . S
O12 Sc2 2.105 . S
O12 C6 1.268 1_554 S
O13 Sc0 2.105 . S
O13 C7 1.268 . S
O14 Sc2 2.105 . S
O14 C8 1.268 . S
O15 Sc1 2.105 1_554 S
O15 C9 1.268 . S
O16 Sc0 2.105 . S
O16 C8 1.268 . S
O17 Sc1 2.105 . S
O17 C7 1.268 1_556 S
O18 Sc2 2.105 . S
O18 C9 1.268 . S
O19 Sc0 2.105 1_556 S
O19 C5 1.268 . S
O20 Sc2 2.105 . S
O20 C4 1.268 . S
O21 Sc1 2.105 . S
O21 C6 1.268 . S
Sc22 O25 2.025 . S
Sc22 O32 2.105 . S
Sc22 O35 2.105 . S
Sc22 O38 2.105 . S
Sc22 O41 2.105 . S
Sc23 O25 2.025 . S
Sc23 O33 2.105 . S
Sc23 O37 2.105 . S
Sc23 O39 2.105 . S
Sc23 O43 2.105 . S
Sc24 O25 2.025 . S
Sc24 O34 2.105 . S
Sc24 O36 2.105 . S
Sc24 O40 2.105 . S
Sc24 O42 2.105 . S
O25 Sc22 2.025 . S
O25 Sc23 2.025 . S
O25 Sc24 2.025 . S
C26 O32 1.268 . S
C26 O42 1.268 . S
C27 O33 1.268 . S
C27 O41 1.268 . S
C28 O34 1.268 . S
C28 O43 1.268 . S
C29 O35 1.268 . S
C29 O39 1.268 . S
C30 O36 1.268 . S
C30 O38 1.268 . S
C31 O37 1.268 . S
C31 O40 1.268 . S
O32 Sc22 2.105 . S
O32 C26 1.268 . S
O33 Sc23 2.105 . S
O33 C27 1.268 . S
O34 Sc24 2.105 . S
O34 C28 1.268 . S
O35 Sc22 2.105 . S
O35 C29 1.268 . S
O36 Sc24 2.105 . S
O36 C30 1.268 . S
O37 Sc23 2.105 . S
O37 C31 1.268 . S
O38 Sc22 2.105 . S
O38 C30 1.268 . S
O39 Sc23 2.105 . S
O39 C29 1.268 . S
O40 Sc24 2.105 . S
O40 C31 1.268 . S
O41 Sc22 2.105 . S
O41 C27 1.268 . S
O42 Sc24 2.105 . S
O42 C26 1.268 . S
O43 Sc23 2.105 . S
O43 C28 1.268 . S
Sc44 O47 2.025 . S
Sc44 O54 2.105 . S
Sc44 O57 2.105 . S
Sc44 O60 2.105 . S
Sc44 O63 2.105 . S
Sc45 O47 2.025 . S
Sc45 O55 2.105 . S
Sc45 O59 2.105 . S
Sc45 O61 2.105 . S
Sc45 O65 2.105 . S
Sc46 O47 2.025 . S
Sc46 O56 2.105 . S
Sc46 O58 2.105 . S
Sc46 O62 2.105 . S
Sc46 O64 2.105 . S
O47 Sc44 2.025 . S
O47 Sc45 2.025 . S
O47 Sc46 2.025 . S
C48 O54 1.268 . S
C48 O64 1.268 . S
C49 O55 1.268 . S
C49 O63 1.268 . S
C50 O56 1.268 . S
C50 O65 1.268 . S
C51 O57 1.268 . S
C51 O61 1.268 . S
C52 O58 1.268 . S
C52 O60 1.268 . S
C53 O59 1.268 . S
C53 O62 1.268 . S
O54 Sc44 2.105 . S
O54 C48 1.268 . S
O55 Sc45 2.105 . S
O55 C49 1.268 . S
O56 Sc46 2.105 . S
O56 C50 1.268 . S
O57 Sc44 2.105 . S
O57 C51 1.268 . S
O58 Sc46 2.105 . S
O58 C52 1.268 . S
O59 Sc45 2.105 . S
O59 C53 1.268 . S
O60 Sc44 2.105 . S
O60 C52 1.268 . S
O61 Sc45 2.105 . S
O61 C51 1.268 . S
O62 Sc46 2.105 . S
O62 C53 1.268 . S
O63 Sc44 2.105 . S
O63 C49 1.268 . S
O64 Sc46 2.105 . S
O64 C48 1.268 . S
O65 Sc45 2.105 . S
O65 C50 1.268 . S
Sc66 O69 2.025 . S
Sc66 O76 2.105 . S
Sc66 O79 2.105 . S
Sc66 O82 2.105 . S
Sc66 O85 2.105 . S
Sc67 O69 2.025 . S
Sc67 O77 2.105 . S
Sc67 O81 2.105 . S
Sc67 O83 2.105 . S
Sc67 O87 2.105 . S
Sc68 O69 2.025 . S
Sc68 O78 2.105 . S
Sc68 O80 2.105 . S
Sc68 O84 2.105 . S
Sc68 O86 2.105 . S
O69 Sc66 2.025 . S
O69 Sc67 2.025 . S
O69 Sc68 2.025 . S
C70 O76 1.268 . S
C70 O86 1.268 . S
C71 O77 1.268 . S
C71 O85 1.268 . S
C72 O78 1.268 . S
C72 O87 1.268 . S
C73 O79 1.268 . S
C73 O83 1.268 . S
C74 O80 1.268 . S
C74 O82 1.268 . S
C75 O81 1.268 . S
C75 O84 1.268 . S
O76 Sc66 2.105 . S
O76 C70 1.268 . S
O77 Sc67 2.105 . S
O77 C71 1.268 . S
O78 Sc68 2.105 . S
O78 C72 1.268 . S
O79 Sc66 2.105 . S
O79 C73 1.268 . S
O80 Sc68 2.105 . S
O80 C74 1.268 . S
O81 Sc67 2.105 . S
O81 C75 1.268 . S
O82 Sc66 2.105 . S
O82 C74 1.268 . S
O83 Sc67 2.105 . S
O83 C73 1.268 . S
O84 Sc68 2.105 . S
O84 C75 1.268 . S
O85 Sc66 2.105 . S
O85 C71 1.268 . S
O86 Sc68 2.105 . S
O86 C70 1.268 . S
O87 Sc67 2.105 . S
O87 C72 1.268 . S
Sc88 O91 2.025 . S
Sc88 O98 2.105 1_554 S
Sc88 O101 2.105 . S
Sc88 O104 2.105 . S
Sc88 O107 2.105 . S
Sc89 O91 2.025 . S
Sc89 O99 2.105 . S
Sc89 O103 2.105 . S
Sc89 O105 2.105 . S
Sc89 O109 2.105 . S
Sc90 O91 2.025 1_556 S
Sc90 O100 2.105 . S
Sc90 O102 2.105 1_556 S
Sc90 O106 2.105 1_556 S
Sc90 O108 2.105 . S
O91 Sc88 2.025 . S
O91 Sc89 2.025 . S
O91 Sc90 2.025 1_554 S
C92 O98 1.268 . S
C92 O108 1.268 . S
C93 O99 1.268 . S
C93 O107 1.268 . S
C94 O100 1.268 . S
C94 O109 1.268 1_556 S
C95 O101 1.268 . S
C95 O105 1.268 . S
C96 O102 1.268 . S
C96 O104 1.268 . S
C97 O103 1.268 . S
C97 O106 1.268 . S
O98 Sc88 2.105 1_556 S
O98 C92 1.268 . S
O99 Sc89 2.105 . S
O99 C93 1.268 . S
O100 Sc90 2.105 . S
O100 C94 1.268 . S
O101 Sc88 2.105 . S
O101 C95 1.268 . S
O102 Sc90 2.105 1_554 S
O102 C96 1.268 . S
O103 Sc89 2.105 . S
O103 C97 1.268 . S
O104 Sc88 2.105 . S
O104 C96 1.268 . S
O105 Sc89 2.105 . S
O105 C95 1.268 . S
O106 Sc90 2.105 1_554 S
O106 C97 1.268 . S
O107 Sc88 2.105 . S
O107 C93 1.268 . S
O108 Sc90 2.105 . S
O108 C92 1.268 . S
O109 Sc89 2.105 . S
O109 C94 1.268 1_554 S
Sc110 O113 2.025 . S
Sc110 O120 2.105 . S
Sc110 O123 2.105 . S
Sc110 O126 2.105 . S
Sc110 O129 2.105 . S
Sc111 O113 2.025 . S
Sc111 O121 2.105 . S
Sc111 O125 2.105 . S
Sc111 O127 2.105 . S
Sc111 O131 2.105 . S
Sc112 O113 2.025 . S
Sc112 O122 2.105 . S
Sc112 O124 2.105 . S
Sc112 O128 2.105 . S
Sc112 O130 2.105 . S
O113 Sc110 2.025 . S
O113 Sc111 2.025 . S
O113 Sc112 2.025 . S
C114 O120 1.268 . S
C114 O130 1.268 . S
C115 O121 1.268 . S
C115 O129 1.268 . S
C116 O122 1.268 . S
C116 O131 1.268 . S
C117 O123 1.268 . S
C117 O127 1.268 . S
C118 O124 1.268 . S
C118 O126 1.268 . S
C119 O125 1.268 . S
C119 O128 1.268 . S
O120 Sc110 2.105 . S
O120 C114 1.268 . S
O121 Sc111 2.105 . S
O121 C115 1.268 . S
O122 Sc112 2.105 . S
O122 C116 1.268 . S
O123 Sc110 2.105 . S
O123 C117 1.268 . S
O124 Sc112 2.105 . S
O124 C118 1.268 . S
O125 Sc111 2.105 . S
O125 C119 1.268 . S
O126 Sc110 2.105 . S
O126 C118 1.268 . S
O127 Sc111 2.105 . S
O127 C117 1.268 . S
O128 Sc112 2.105 . S
O128 C119 1.268 . S
O129 Sc110 2.105 . S
O129 C115 1.268 . S
O130 Sc112 2.105 . S
O130 C114 1.268 . S
O131 Sc111 2.105 . S
O131 C116 1.268 . S
Sc132 O135 2.025 . S
Sc132 O142 2.105 . S
Sc132 O145 2.105 . S
Sc132 O148 2.105 . S
Sc132 O151 2.105 . S
Sc133 O135 2.025 . S
Sc133 O143 2.105 . S
Sc133 O147 2.105 . S
Sc133 O149 2.105 . S
Sc133 O153 2.105 . S
Sc134 O135 2.025 . S
Sc134 O144 2.105 . S
Sc134 O146 2.105 . S
Sc134 O150 2.105 . S
Sc134 O152 2.105 . S
O135 Sc132 2.025 . S
O135 Sc133 2.025 . S
O135 Sc134 2.025 . S
C136 O142 1.268 . S
C136 O152 1.268 . S
C137 O143 1.268 . S
C137 O151 1.268 . S
C138 O144 1.268 . S
C138 O153 1.268 . S
C139 O145 1.268 . S
C139 O149 1.268 . S
C140 O146 1.268 . S
C140 O148 1.268 . S
C141 O147 1.268 . S
C141 O150 1.268 . S
O142 Sc132 2.105 . S
O142 C136 1.268 . S
O143 Sc133 2.105 . S
O143 C137 1.268 . S
O144 Sc134 2.105 . S
O144 C138 1.268 . S
O145 Sc132 2.105 . S
O145 C139 1.268 . S
O146 Sc134 2.105 . S
O146 C140 1.268 . S
O147 Sc133 2.105 . S
O147 C141 1.268 . S
O148 Sc132 2.105 . S
O148 C140 1.268 . S
O149 Sc133 2.105 . S
O149 C139 1.268 . S
O150 Sc134 2.105 . S
O150 C141 1.268 . S
O151 Sc132 2.105 . S
O151 C137 1.268 . S
O152 Sc134 2.105 . S
O152 C136 1.268 . S
O153 Sc133 2.105 . S
O153 C138 1.268 . S
Sc154 O157 2.025 . S
Sc154 O164 2.105 . S
Sc154 O167 2.105 . S
Sc154 O170 2.105 . S
Sc154 O173 2.105 . S
Sc155 O157 2.025 . S
Sc155 O165 2.105 . S
Sc155 O169 2.105 . S
Sc155 O171 2.105 . S
Sc155 O175 2.105 . S
Sc156 O157 2.025 . S
Sc156 O166 2.105 . S
Sc156 O168 2.105 . S
Sc156 O172 2.105 . S
Sc156 O174 2.105 . S
O157 Sc154 2.025 . S
O157 Sc155 2.025 . S
O157 Sc156 2.025 . S
C158 O164 1.268 . S
C158 O174 1.268 . S
C159 O165 1.268 . S
C159 O173 1.268 . S
C160 O166 1.268 . S
C160 O175 1.268 . S
C161 O167 1.268 . S
C161 O171 1.268 . S
C162 O168 1.268 . S
C162 O170 1.268 . S
C163 O169 1.268 . S
C163 O172 1.268 . S
O164 Sc154 2.105 . S
O164 C158 1.268 . S
O165 Sc155 2.105 . S
O165 C159 1.268 . S
O166 Sc156 2.105 . S
O166 C160 1.268 . S
O167 Sc154 2.105 . S
O167 C161 1.268 . S
O168 Sc156 2.105 . S
O168 C162 1.268 . S
O169 Sc155 2.105 . S
O169 C163 1.268 . S
O170 Sc154 2.105 . S
O170 C162 1.268 . S
O171 Sc155 2.105 . S
O171 C161 1.268 . S
O172 Sc156 2.105 . S
O172 C163 1.268 . S
O173 Sc154 2.105 . S
O173 C159 1.268 . S
O174 Sc156 2.105 . S
O174 C158 1.268 . S
O175 Sc155 2.105 . S
O175 C160 1.268 . S
Sc176 O179 2.025 . S
Sc176 O186 2.105 . S
Sc176 O189 2.105 . S
Sc176 O192 2.105 . S
Sc176 O195 2.105 . S
Sc177 O179 2.025 . S
Sc177 O187 2.105 . S
Sc177 O191 2.105 . S
Sc177 O193 2.105 . S
Sc177 O197 2.105 . S
Sc178 O179 2.025 . S
Sc178 O188 2.105 . S
Sc178 O190 2.105 . S
Sc178 O194 2.105 . S
Sc178 O196 2.105 . S
O179 Sc176 2.025 . S
O179 Sc177 2.025 . S
O179 Sc178 2.025 . S
C180 O186 1.268 . S
C180 O196 1.268 . S
C181 O187 1.268 . S
C181 O195 1.268 . S
C182 O188 1.268 . S
C182 O197 1.268 . S
C183 O189 1.268 . S
C183 O193 1.268 . S
C184 O190 1.268 . S
C184 O192 1.268 . S
C185 O191 1.268 . S
C185 O194 1.268 . S
O186 Sc176 2.105 . S
O186 C180 1.268 . S
O187 Sc177 2.105 . S
O187 C181 1.268 . S
O188 Sc178 2.105 . S
O188 C182 1.268 . S
O189 Sc176 2.105 . S
O189 C183 1.268 . S
O190 Sc178 2.105 . S
O190 C184 1.268 . S
O191 Sc177 2.105 . S
O191 C185 1.268 . S
O192 Sc176 2.105 . S
O192 C184 1.268 . S
O193 Sc177 2.105 . S
O193 C183 1.268 . S
O194 Sc178 2.105 . S
O194 C185 1.268 . S
O195 Sc176 2.105 . S
O195 C181 1.268 . S
O196 Sc178 2.105 . S
O196 C180 1.268 . S
O197 Sc177 2.105 . S
O197 C182 1.268 . S
Sc198 O201 2.025 . S
Sc198 O208 2.105 . S
Sc198 O211 2.105 . S
Sc198 O214 2.105 . S
Sc198 O217 2.105 . S
Sc199 O201 2.025 . S
Sc199 O209 2.105 . S
Sc199 O213 2.105 . S
Sc199 O215 2.105 . S
Sc199 O219 2.105 . S
Sc200 O201 2.025 . S
Sc200 O210 2.105 . S
Sc200 O212 2.105 . S
Sc200 O216 2.105 . S
Sc200 O218 2.105 . S
O201 Sc198 2.025 . S
O201 Sc199 2.025 . S
O201 Sc200 2.025 . S
C202 O208 1.268 . S
C202 O218 1.268 . S
C203 O209 1.268 . S
C203 O217 1.268 . S
C204 O210 1.268 . S
C204 O219 1.268 . S
C205 O211 1.268 . S
C205 O215 1.268 . S
C206 O212 1.268 . S
C206 O214 1.268 . S
C207 O213 1.268 . S
C207 O216 1.268 . S
O208 Sc198 2.105 . S
O208 C202 1.268 . S
O209 Sc199 2.105 . S
O209 C203 1.268 . S
O210 Sc200 2.105 . S
O210 C204 1.268 . S
O211 Sc198 2.105 . S
O211 C205 1.268 . S
O212 Sc200 2.105 . S
O212 C206 1.268 . S
O213 Sc199 2.105 . S
O213 C207 1.268 . S
O214 Sc198 2.105 . S
O214 C206 1.268 . S
O215 Sc199 2.105 . S
O215 C205 1.268 . S
O216 Sc200 2.105 . S
O216 C207 1.268 . S
O217 Sc198 2.105 . S
O217 C203 1.268 . S
O218 Sc200 2.105 . S
O218 C202 1.268 . S
O219 Sc199 2.105 . S
O219 C204 1.268 . S
Sc220 O223 2.025 . S
Sc220 O230 2.105 . S
Sc220 O233 2.105 . S
Sc220 O236 2.105 . S
Sc220 O239 2.105 . S
Sc221 O223 2.025 1_556 S
Sc221 O231 2.105 1_556 S
Sc221 O235 2.105 . S
Sc221 O237 2.105 . S
Sc221 O241 2.105 . S
Sc222 O223 2.025 . S
Sc222 O232 2.105 . S
Sc222 O234 2.105 . S
Sc222 O238 2.105 1_554 S
Sc222 O240 2.105 . S
O223 Sc220 2.025 . S
O223 Sc221 2.025 1_554 S
O223 Sc222 2.025 . S
C224 O230 1.268 . S
C224 O240 1.268 . S
C225 O231 1.268 . S
C225 O239 1.268 . S
C226 O232 1.268 . S
C226 O241 1.268 1_554 S
C227 O233 1.268 1_556 S
C227 O237 1.268 . S
C228 O234 1.268 . S
C228 O236 1.268 . S
C229 O235 1.268 . S
C229 O238 1.268 . S
O230 Sc220 2.105 . S
O230 C224 1.268 . S
O231 Sc221 2.105 1_554 S
O231 C225 1.268 . S
O232 Sc222 2.105 . S
O232 C226 1.268 . S
O233 Sc220 2.105 . S
O233 C227 1.268 1_554 S
O234 Sc222 2.105 . S
O234 C228 1.268 . S
O235 Sc221 2.105 . S
O235 C229 1.268 . S
O236 Sc220 2.105 . S
O236 C228 1.268 . S
O237 Sc221 2.105 . S
O237 C227 1.268 . S
O238 Sc222 2.105 1_556 S
O238 C229 1.268 . S
O239 Sc220 2.105 . S
O239 C225 1.268 . S
O240 Sc222 2.105 . S
O240 C224 1.268 . S
O241 Sc221 2.105 . S
O241 C226 1.268 1_556 S
Sc242 O245 2.025 . S
Sc242 O252 2.105 . S
Sc242 O255 2.105 . S
Sc242 O258 2.105 . S
Sc242 O261 2.105 . S
Sc243 O245 2.025 . S
Sc243 O253 2.105 . S
Sc243 O257 2.105 . S
Sc243 O259 2.105 . S
Sc243 O263 2.105 . S
Sc244 O245 2.025 . S
Sc244 O254 2.105 . S
Sc244 O256 2.105 . S
Sc244 O260 2.105 . S
Sc244 O262 2.105 . S
O245 Sc242 2.025 . S
O245 Sc243 2.025 . S
O245 Sc244 2.025 . S
C246 O252 1.268 . S
C246 O262 1.268 . S
C247 O253 1.268 . S
C247 O261 1.268 . S
C248 O254 1.268 . S
C248 O263 1.268 . S
C249 O255 1.268 . S
C249 O259 1.268 . S
C250 O256 1.268 . S
C250 O258 1.268 . S
C251 O257 1.268 . S
C251 O260 1.268 . S
O252 Sc242 2.105 . S
O252 C246 1.268 . S
O253 Sc243 2.105 . S
O253 C247 1.268 . S
O254 Sc244 2.105 . S
O254 C248 1.268 . S
O255 Sc242 2.105 . S
O255 C249 1.268 . S
O256 Sc244 2.105 . S
O256 C250 1.268 . S
O257 Sc243 2.105 . S
O257 C251 1.268 . S
O258 Sc242 2.105 . S
O258 C250 1.268 . S
O259 Sc243 2.105 . S
O259 C249 1.268 . S
O260 Sc244 2.105 . S
O260 C251 1.268 . S
O261 Sc242 2.105 . S
O261 C247 1.268 . S
O262 Sc244 2.105 . S
O262 C246 1.268 . S
O263 Sc243 2.105 . S
O263 C248 1.268 . S
Sc264 O267 2.025 . S
Sc264 O274 2.105 . S
Sc264 O277 2.105 . S
Sc264 O280 2.105 . S
Sc264 O283 2.105 . S
Sc265 O267 2.025 . S
Sc265 O275 2.105 . S
Sc265 O279 2.105 . S
Sc265 O281 2.105 . S
Sc265 O285 2.105 . S
Sc266 O267 2.025 . S
Sc266 O276 2.105 . S
Sc266 O278 2.105 . S
Sc266 O282 2.105 . S
Sc266 O284 2.105 . S
O267 Sc264 2.025 . S
O267 Sc265 2.025 . S
O267 Sc266 2.025 . S
C268 O274 1.268 . S
C268 O284 1.268 . S
C269 O275 1.268 . S
C269 O283 1.268 . S
C270 O276 1.268 . S
C270 O285 1.268 . S
C271 O277 1.268 . S
C271 O281 1.268 . S
C272 O278 1.268 . S
C272 O280 1.268 . S
C273 O279 1.268 . S
C273 O282 1.268 . S
O274 Sc264 2.105 . S
O274 C268 1.268 . S
O275 Sc265 2.105 . S
O275 C269 1.268 . S
O276 Sc266 2.105 . S
O276 C270 1.268 . S
O277 Sc264 2.105 . S
O277 C271 1.268 . S
O278 Sc266 2.105 . S
O278 C272 1.268 . S
O279 Sc265 2.105 . S
O279 C273 1.268 . S
O280 Sc264 2.105 . S
O280 C272 1.268 . S
O281 Sc265 2.105 . S
O281 C271 1.268 . S
O282 Sc266 2.105 . S
O282 C273 1.268 . S
O283 Sc264 2.105 . S
O283 C269 1.268 . S
O284 Sc266 2.105 . S
O284 C268 1.268 . S
O285 Sc265 2.105 . S
O285 C270 1.268 . S
Sc286 O289 2.025 . S
Sc286 O296 2.105 . S
Sc286 O299 2.105 . S
Sc286 O302 2.105 . S
Sc286 O305 2.105 . S
Sc287 O289 2.025 . S
Sc287 O297 2.105 . S
Sc287 O301 2.105 . S
Sc287 O303 2.105 . S
Sc287 O307 2.105 . S
Sc288 O289 2.025 . S
Sc288 O298 2.105 . S
Sc288 O300 2.105 . S
Sc288 O304 2.105 . S
Sc288 O306 2.105 . S
O289 Sc286 2.025 . S
O289 Sc287 2.025 . S
O289 Sc288 2.025 . S
C290 O296 1.268 . S
C290 O306 1.268 . S
C291 O297 1.268 . S
C291 O305 1.268 . S
C292 O298 1.268 . S
C292 O307 1.268 . S
C293 O299 1.268 . S
C293 O303 1.268 . S
C294 O300 1.268 . S
C294 O302 1.268 . S
C295 O301 1.268 . S
C295 O304 1.268 . S
O296 Sc286 2.105 . S
O296 C290 1.268 . S
O297 Sc287 2.105 . S
O297 C291 1.268 . S
O298 Sc288 2.105 . S
O298 C292 1.268 . S
O299 Sc286 2.105 . S
O299 C293 1.268 . S
O300 Sc288 2.105 . S
O300 C294 1.268 . S
O301 Sc287 2.105 . S
O301 C295 1.268 . S
O302 Sc286 2.105 . S
O302 C294 1.268 . S
O303 Sc287 2.105 . S
O303 C293 1.268 . S
O304 Sc288 2.105 . S
O304 C295 1.268 . S
O305 Sc286 2.105 . S
O305 C291 1.268 . S
O306 Sc288 2.105 . S
O306 C290 1.268 . S
O307 Sc287 2.105 . S
O307 C292 1.268 . S
Sc308 O311 2.025 1_556 S
Sc308 O318 2.105 1_556 S
Sc308 O321 2.105 . S
Sc308 O324 2.105 . S
Sc308 O327 2.105 1_556 S
Sc309 O311 2.025 . S
Sc309 O319 2.105 . S
Sc309 O323 2.105 . S
Sc309 O325 2.105 . S
Sc309 O329 2.105 . S
Sc310 O311 2.025 . S
Sc310 O320 2.105 . S
Sc310 O322 2.105 1_554 S
Sc310 O326 2.105 . S
Sc310 O328 2.105 . S
O311 Sc308 2.025 1_554 S
O311 Sc309 2.025 . S
O311 Sc310 2.025 . S
C312 O318 1.268 . S
C312 O328 1.268 . S
C313 O319 1.268 . S
C313 O327 1.268 . S
C314 O320 1.268 . S
C314 O329 1.268 . S
C315 O321 1.268 . S
C315 O325 1.268 1_556 S
C316 O322 1.268 . S
C316 O324 1.268 . S
C317 O323 1.268 . S
C317 O326 1.268 . S
O318 Sc308 2.105 1_554 S
O318 C312 1.268 . S
O319 Sc309 2.105 . S
O319 C313 1.268 . S
O320 Sc310 2.105 . S
O320 C314 1.268 . S
O321 Sc308 2.105 . S
O321 C315 1.268 . S
O322 Sc310 2.105 1_556 S
O322 C316 1.268 . S
O323 Sc309 2.105 . S
O323 C317 1.268 . S
O324 Sc308 2.105 . S
O324 C316 1.268 . S
O325 Sc309 2.105 . S
O325 C315 1.268 1_554 S
O326 Sc310 2.105 . S
O326 C317 1.268 . S
O327 Sc308 2.105 1_554 S
O327 C313 1.268 . S
O328 Sc310 2.105 . S
O328 C312 1.268 . S
O329 Sc309 2.105 . S
O329 C314 1.268 . S
Sc330 O333 2.025 . S
Sc330 O340 2.105 . S
Sc330 O343 2.105 . S
Sc330 O346 2.105 . S
Sc330 O349 2.105 . S
Sc331 O333 2.025 . S
Sc331 O341 2.105 . S
Sc331 O345 2.105 . S
Sc331 O347 2.105 . S
Sc331 O351 2.105 . S
Sc332 O333 2.025 . S
Sc332 O342 2.105 . S
Sc332 O344 2.105 . S
Sc332 O348 2.105 . S
Sc332 O350 2.105 . S
O333 Sc330 2.025 . S
O333 Sc331 2.025 . S
O333 Sc332 2.025 . S
C334 O340 1.268 . S
C334 O350 1.268 . S
C335 O341 1.268 . S
C335 O349 1.268 . S
C336 O342 1.268 . S
C336 O351 1.268 . S
C337 O343 1.268 . S
C337 O347 1.268 . S
C338 O344 1.268 . S
C338 O346 1.268 . S
C339 O345 1.268 . S
C339 O348 1.268 . S
O340 Sc330 2.105 . S
O340 C334 1.268 . S
O341 Sc331 2.105 . S
O341 C335 1.268 . S
O342 Sc332 2.105 . S
O342 C336 1.268 . S
O343 Sc330 2.105 . S
O343 C337 1.268 . S
O344 Sc332 2.105 . S
O344 C338 1.268 . S
O345 Sc331 2.105 . S
O345 C339 1.268 . S
O346 Sc330 2.105 . S
O346 C338 1.268 . S
O347 Sc331 2.105 . S
O347 C337 1.268 . S
O348 Sc332 2.105 . S
O348 C339 1.268 . S
O349 Sc330 2.105 . S
O349 C335 1.268 . S
O350 Sc332 2.105 . S
O350 C334 1.268 . S
O351 Sc331 2.105 . S
O351 C336 1.268 . S
C352 C353 1.349 . S
C352 C354 1.322 1_554 S
C352 H377 0.955 . S
C353 C352 1.349 . S
C353 C369 1.349 1_554 S
C354 C352 1.322 1_556 S
C354 C373 1.429 . S
C354 H378 0.950 . S
C355 C372 1.574 . S
C355 C374 1.368 . S
C355 H379 0.949 . S
H356 C360 0.949 . S
C357 C358 1.349 . S
C357 C359 1.327 . S
C357 H380 0.950 . S
C358 C357 1.349 . S
C358 C370 1.349 . S
C359 C357 1.327 . S
C359 C375 1.429 . S
C359 H381 0.950 . S
C360 H356 0.949 . S
C360 C368 1.574 . S
C360 C376 1.368 . S
H361 C369 0.950 . S
H362 C367 0.950 . S
H363 C368 0.949 . S
H364 C370 0.950 . S
H365 C371 0.950 . S
H366 C372 0.949 . S
C367 H362 0.950 . S
C367 C369 1.327 . S
C367 C373 1.429 . S
C368 C360 1.574 . S
C368 H363 0.949 . S
C368 C374 1.368 . S
C369 C353 1.349 1_556 S
C369 H361 0.950 . S
C369 C367 1.327 . S
C370 C358 1.349 . S
C370 H364 0.950 . S
C370 C371 1.327 . S
C371 H365 0.950 . S
C371 C370 1.327 . S
C371 C375 1.429 . S
C372 C355 1.574 . S
C372 H366 0.949 . S
C372 C376 1.368 . S
C373 C354 1.429 . S
C373 C367 1.429 . S
C373 C374 1.523 . S
C374 C355 1.368 . S
C374 C368 1.368 . S
C374 C373 1.523 . S
C375 C359 1.429 . S
C375 C371 1.429 . S
C375 C376 1.523 . S
C376 C360 1.368 . S
C376 C372 1.368 . S
C376 C375 1.523 . S
H377 C352 0.955 . S
H378 C354 0.950 . S
H379 C355 0.949 . S
H380 C357 0.950 . S
H381 C359 0.950 . S
C382 C383 1.349 . S
C382 C384 1.327 . S
C382 H407 0.950 . S
C383 C382 1.349 . S
C383 C399 1.349 . S
C384 C382 1.327 . S
C384 C403 1.429 . S
C384 H408 0.950 . S
C385 C402 1.574 . S
C385 C404 1.368 . S
C385 H409 0.949 . S
H386 C390 0.949 . S
C387 C388 1.349 . S
C387 C389 1.327 . S
C387 H410 0.950 . S
C388 C387 1.349 . S
C388 C400 1.349 . S
C389 C387 1.327 . S
C389 C405 1.429 . S
C389 H411 0.950 . S
C390 H386 0.949 . S
C390 C398 1.574 . S
C390 C406 1.368 . S
H391 C399 0.950 . S
H392 C397 0.950 . S
H393 C398 0.949 . S
H394 C400 0.950 . S
H395 C401 0.950 . S
H396 C402 0.949 . S
C397 H392 0.950 . S
C397 C399 1.327 . S
C397 C403 1.429 . S
C398 C390 1.574 . S
C398 H393 0.949 . S
C398 C404 1.368 . S
C399 C383 1.349 . S
C399 H391 0.950 . S
C399 C397 1.327 . S
C400 C388 1.349 . S
C400 H394 0.950 . S
C400 C401 1.327 . S
C401 H395 0.950 . S
C401 C400 1.327 . S
C401 C405 1.429 . S
C402 C385 1.574 . S
C402 H396 0.949 . S
C402 C406 1.368 . S
C403 C384 1.429 . S
C403 C397 1.429 . S
C403 C404 1.523 . S
C404 C385 1.368 . S
C404 C398 1.368 . S
C404 C403 1.523 . S
C405 C389 1.429 . S
C405 C401 1.429 . S
C405 C406 1.523 . S
C406 C390 1.368 . S
C406 C402 1.368 . S
C406 C405 1.523 . S
H407 C382 0.950 . S
H408 C384 0.950 . S
H409 C385 0.949 . S
H410 C387 0.950 . S
H411 C389 0.950 . S
C412 C413 1.349 . S
C412 C414 1.327 . S
C412 H437 0.950 . S
C413 C412 1.349 . S
C413 C429 1.349 . S
C414 C412 1.327 . S
C414 C433 1.429 . S
C414 H438 0.950 . S
C415 C432 1.574 . S
C415 C434 1.368 . S
C415 H439 0.949 . S
H416 C420 0.949 . S
C417 C418 1.349 . S
C417 C419 1.327 . S
C417 H440 0.950 . S
C418 C417 1.349 . S
C418 C430 1.349 . S
C419 C417 1.327 . S
C419 C435 1.429 . S
C419 H441 0.950 . S
C420 H416 0.949 . S
C420 C428 1.574 . S
C420 C436 1.368 . S
H421 C429 0.950 . S
H422 C427 0.950 . S
H423 C428 0.949 . S
H424 C430 0.950 . S
H425 C431 0.950 . S
H426 C432 0.949 . S
C427 H422 0.950 . S
C427 C429 1.327 . S
C427 C433 1.429 . S
C428 C420 1.574 . S
C428 H423 0.949 . S
C428 C434 1.368 . S
C429 C413 1.349 . S
C429 H421 0.950 . S
C429 C427 1.327 . S
C430 C418 1.349 . S
C430 H424 0.950 . S
C430 C431 1.327 . S
C431 H425 0.950 . S
C431 C430 1.327 . S
C431 C435 1.429 . S
C432 C415 1.574 . S
C432 H426 0.949 . S
C432 C436 1.368 . S
C433 C414 1.429 . S
C433 C427 1.429 . S
C433 C434 1.523 . S
C434 C415 1.368 . S
C434 C428 1.368 . S
C434 C433 1.523 . S
C435 C419 1.429 . S
C435 C431 1.429 . S
C435 C436 1.523 . S
C436 C420 1.368 . S
C436 C432 1.368 . S
C436 C435 1.523 . S
H437 C412 0.950 . S
H438 C414 0.950 . S
H439 C415 0.949 . S
H440 C417 0.950 . S
H441 C419 0.950 . S
C442 C443 1.349 . S
C442 C444 1.327 . S
C442 H467 0.950 . S
C443 C442 1.349 . S
C443 C459 1.349 . S
C444 C442 1.327 . S
C444 C463 1.429 . S
C444 H468 0.950 . S
C445 C462 1.574 . S
C445 C464 1.368 . S
C445 H469 0.949 . S
H446 C450 0.949 . S
C447 C448 1.349 . S
C447 C449 1.327 . S
C447 H470 0.950 . S
C448 C447 1.349 . S
C448 C460 1.349 . S
C449 C447 1.327 . S
C449 C465 1.429 . S
C449 H471 0.950 . S
C450 H446 0.949 . S
C450 C458 1.574 . S
C450 C466 1.368 . S
H451 C459 0.950 . S
H452 C457 0.950 . S
H453 C458 0.949 . S
H454 C460 0.950 . S
H455 C461 0.950 . S
H456 C462 0.949 . S
C457 H452 0.950 . S
C457 C459 1.327 . S
C457 C463 1.429 . S
C458 C450 1.574 . S
C458 H453 0.949 . S
C458 C464 1.368 . S
C459 C443 1.349 . S
C459 H451 0.950 . S
C459 C457 1.327 . S
C460 C448 1.349 . S
C460 H454 0.950 . S
C460 C461 1.327 . S
C461 H455 0.950 . S
C461 C460 1.327 . S
C461 C465 1.429 . S
C462 C445 1.574 . S
C462 H456 0.949 . S
C462 C466 1.368 . S
C463 C444 1.429 . S
C463 C457 1.429 . S
C463 C464 1.523 . S
C464 C445 1.368 . S
C464 C458 1.368 . S
C464 C463 1.523 . S
C465 C449 1.429 . S
C465 C461 1.429 . S
C465 C466 1.523 . S
C466 C450 1.368 . S
C466 C462 1.368 . S
C466 C465 1.523 . S
H467 C442 0.950 . S
H468 C444 0.950 . S
H469 C445 0.949 . S
H470 C447 0.950 . S
H471 C449 0.950 . S
C472 C473 1.349 . S
C472 C474 1.327 . S
C472 H497 0.950 . S
C473 C472 1.349 . S
C473 C489 1.349 . S
C474 C472 1.327 . S
C474 C493 1.429 . S
C474 H498 0.950 . S
C475 C492 1.574 . S
C475 C494 1.368 . S
C475 H499 0.949 . S
H476 C480 0.949 . S
C477 C478 1.349 . S
C477 C479 1.327 . S
C477 H500 0.950 . S
C478 C477 1.349 . S
C478 C490 1.349 . S
C479 C477 1.327 . S
C479 C495 1.429 . S
C479 H501 0.950 . S
C480 H476 0.949 . S
C480 C488 1.574 . S
C480 C496 1.368 . S
H481 C489 0.950 . S
H482 C487 0.950 . S
H483 C488 0.949 . S
H484 C490 0.950 . S
H485 C491 0.950 . S
H486 C492 0.949 . S
C487 H482 0.950 . S
C487 C489 1.327 . S
C487 C493 1.429 . S
C488 C480 1.574 . S
C488 H483 0.949 . S
C488 C494 1.368 . S
C489 C473 1.349 . S
C489 H481 0.950 . S
C489 C487 1.327 . S
C490 C478 1.349 . S
C490 H484 0.950 . S
C490 C491 1.327 . S
C491 H485 0.950 . S
C491 C490 1.327 . S
C491 C495 1.429 . S
C492 C475 1.574 . S
C492 H486 0.949 . S
C492 C496 1.368 . S
C493 C474 1.429 . S
C493 C487 1.429 . S
C493 C494 1.523 . S
C494 C475 1.368 . S
C494 C488 1.368 . S
C494 C493 1.523 . S
C495 C479 1.429 . S
C495 C491 1.429 . S
C495 C496 1.523 . S
C496 C480 1.368 . S
C496 C492 1.368 . S
C496 C495 1.523 . S
H497 C472 0.950 . S
H498 C474 0.950 . S
H499 C475 0.949 . S
H500 C477 0.950 . S
H501 C479 0.950 . S
C502 C503 1.349 . S
C502 C504 1.327 . S
C502 H527 0.950 . S
C503 C502 1.349 . S
C503 C519 1.349 . S
C504 C502 1.327 . S
C504 C523 1.429 . S
C504 H528 0.950 . S
C505 C522 1.574 . S
C505 C524 1.368 . S
C505 H529 0.949 . S
H506 C510 0.949 . S
C507 C508 1.349 . S
C507 C509 1.327 . S
C507 H530 0.950 . S
C508 C507 1.349 . S
C508 C520 1.349 . S
C509 C507 1.327 . S
C509 C525 1.429 . S
C509 H531 0.950 . S
C510 H506 0.949 . S
C510 C518 1.574 . S
C510 C526 1.368 . S
H511 C519 0.950 . S
H512 C517 0.950 . S
H513 C518 0.949 . S
H514 C520 0.950 . S
H515 C521 0.950 . S
H516 C522 0.949 . S
C517 H512 0.950 . S
C517 C519 1.327 . S
C517 C523 1.429 . S
C518 C510 1.574 . S
C518 H513 0.949 . S
C518 C524 1.368 . S
C519 C503 1.349 . S
C519 H511 0.950 . S
C519 C517 1.327 . S
C520 C508 1.349 . S
C520 H514 0.950 . S
C520 C521 1.327 . S
C521 H515 0.950 . S
C521 C520 1.327 . S
C521 C525 1.429 . S
C522 C505 1.574 . S
C522 H516 0.949 . S
C522 C526 1.368 . S
C523 C504 1.429 . S
C523 C517 1.429 . S
C523 C524 1.523 . S
C524 C505 1.368 . S
C524 C518 1.368 . S
C524 C523 1.523 . S
C525 C509 1.429 . S
C525 C521 1.429 . S
C525 C526 1.523 . S
C526 C510 1.368 . S
C526 C522 1.368 . S
C526 C525 1.523 . S
H527 C502 0.950 . S
H528 C504 0.950 . S
H529 C505 0.949 . S
H530 C507 0.950 . S
H531 C509 0.950 . S
C532 C533 1.349 . S
C532 C534 1.327 . S
C532 H557 0.950 . S
C533 C532 1.349 . S
C533 C549 1.349 . S
C534 C532 1.327 . S
C534 C553 1.429 . S
C534 H558 0.950 . S
C535 C552 1.574 . S
C535 C554 1.368 . S
C535 H559 0.949 . S
H536 C540 0.949 . S
C537 C538 1.349 . S
C537 C539 1.327 . S
C537 H560 0.950 . S
C538 C537 1.349 . S
C538 C550 1.349 . S
C539 C537 1.327 . S
C539 C555 1.429 . S
C539 H561 0.950 . S
C540 H536 0.949 . S
C540 C548 1.574 . S
C540 C556 1.368 . S
H541 C549 0.950 . S
H542 C547 0.950 . S
H543 C548 0.949 . S
H544 C550 0.950 . S
H545 C551 0.950 . S
H546 C552 0.949 . S
C547 H542 0.950 . S
C547 C549 1.327 . S
C547 C553 1.429 . S
C548 C540 1.574 . S
C548 H543 0.949 . S
C548 C554 1.368 . S
C549 C533 1.349 . S
C549 H541 0.950 . S
C549 C547 1.327 . S
C550 C538 1.349 . S
C550 H544 0.950 . S
C550 C551 1.327 . S
C551 H545 0.950 . S
C551 C550 1.327 . S
C551 C555 1.429 . S
C552 C535 1.574 . S
C552 H546 0.949 . S
C552 C556 1.368 . S
C553 C534 1.429 . S
C553 C547 1.429 . S
C553 C554 1.523 . S
C554 C535 1.368 . S
C554 C548 1.368 . S
C554 C553 1.523 . S
C555 C539 1.429 . S
C555 C551 1.429 . S
C555 C556 1.523 . S
C556 C540 1.368 . S
C556 C552 1.368 . S
C556 C555 1.523 . S
H557 C532 0.950 . S
H558 C534 0.950 . S
H559 C535 0.949 . S
H560 C537 0.950 . S
H561 C539 0.950 . S
C562 C563 1.349 . S
C562 C564 1.327 . S
C562 H587 0.950 . S
C563 C562 1.349 . S
C563 C579 1.349 . S
C564 C562 1.327 . S
C564 C583 1.429 . S
C564 H588 0.950 . S
C565 C582 1.574 . S
C565 C584 1.368 . S
C565 H589 0.949 . S
H566 C570 0.949 . S
C567 C568 1.349 . S
C567 C569 1.327 . S
C567 H590 0.950 . S
C568 C567 1.349 . S
C568 C580 1.349 . S
C569 C567 1.327 . S
C569 C585 1.429 . S
C569 H591 0.950 . S
C570 H566 0.949 . S
C570 C578 1.574 . S
C570 C586 1.368 . S
H571 C579 0.950 . S
H572 C577 0.950 . S
H573 C578 0.949 . S
H574 C580 0.950 . S
H575 C581 0.950 . S
H576 C582 0.949 . S
C577 H572 0.950 . S
C577 C579 1.327 . S
C577 C583 1.429 . S
C578 C570 1.574 . S
C578 H573 0.949 . S
C578 C584 1.368 . S
C579 C563 1.349 . S
C579 H571 0.950 . S
C579 C577 1.327 . S
C580 C568 1.349 . S
C580 H574 0.950 . S
C580 C581 1.327 . S
C581 H575 0.950 . S
C581 C580 1.327 . S
C581 C585 1.429 . S
C582 C565 1.574 . S
C582 H576 0.949 . S
C582 C586 1.368 . S
C583 C564 1.429 . S
C583 C577 1.429 . S
C583 C584 1.523 . S
C584 C565 1.368 . S
C584 C578 1.368 . S
C584 C583 1.523 . S
C585 C569 1.429 . S
C585 C581 1.429 . S
C585 C586 1.523 . S
C586 C570 1.368 . S
C586 C582 1.368 . S
C586 C585 1.523 . S
H587 C562 0.950 . S
H588 C564 0.950 . S
H589 C565 0.949 . S
H590 C567 0.950 . S
H591 C569 0.950 . S
C592 C593 1.349 . S
C592 C594 1.327 . S
C592 H617 0.950 . S
C593 C592 1.349 . S
C593 C609 1.349 . S
C594 C592 1.327 . S
C594 C613 1.429 . S
C594 H618 0.950 . S
C595 C612 1.574 . S
C595 C614 1.368 . S
C595 H619 0.949 . S
H596 C600 0.949 . S
C597 C598 1.349 . S
C597 C599 1.327 . S
C597 H620 0.950 . S
C598 C597 1.349 . S
C598 C610 1.349 . S
C599 C597 1.327 . S
C599 C615 1.429 . S
C599 H621 0.950 . S
C600 H596 0.949 . S
C600 C608 1.574 . S
C600 C616 1.368 . S
H601 C609 0.950 . S
H602 C607 0.950 . S
H603 C608 0.949 . S
H604 C610 0.950 . S
H605 C611 0.950 . S
H606 C612 0.949 . S
C607 H602 0.950 . S
C607 C609 1.327 . S
C607 C613 1.429 . S
C608 C600 1.574 . S
C608 H603 0.949 . S
C608 C614 1.368 . S
C609 C593 1.349 . S
C609 H601 0.950 . S
C609 C607 1.327 . S
C610 C598 1.349 . S
C610 H604 0.950 . S
C610 C611 1.327 . S
C611 H605 0.950 . S
C611 C610 1.327 . S
C611 C615 1.429 . S
C612 C595 1.574 . S
C612 H606 0.949 . S
C612 C616 1.368 . S
C613 C594 1.429 . S
C613 C607 1.429 . S
C613 C614 1.523 . S
C614 C595 1.368 . S
C614 C608 1.368 . S
C614 C613 1.523 . S
C615 C599 1.429 . S
C615 C611 1.429 . S
C615 C616 1.523 . S
C616 C600 1.368 . S
C616 C612 1.368 . S
C616 C615 1.523 . S
H617 C592 0.950 . S
H618 C594 0.950 . S
H619 C595 0.949 . S
H620 C597 0.950 . S
H621 C599 0.950 . S
C622 C623 1.349 . S
C622 C624 1.327 . S
C622 H647 0.950 . S
C623 C622 1.349 . S
C623 C639 1.349 . S
C624 C622 1.327 . S
C624 C643 1.429 . S
C624 H648 0.950 . S
C625 C642 1.574 . S
C625 C644 1.368 . S
C625 H649 0.949 . S
H626 C630 0.949 . S
C627 C628 1.349 . S
C627 C629 1.327 . S
C627 H650 0.950 . S
C628 C627 1.349 . S
C628 C640 1.349 . S
C629 C627 1.327 . S
C629 C645 1.429 . S
C629 H651 0.950 . S
C630 H626 0.949 . S
C630 C638 1.574 . S
C630 C646 1.368 . S
H631 C639 0.950 . S
H632 C637 0.950 . S
H633 C638 0.949 . S
H634 C640 0.950 . S
H635 C641 0.950 . S
H636 C642 0.949 . S
C637 H632 0.950 . S
C637 C639 1.327 . S
C637 C643 1.429 . S
C638 C630 1.574 . S
C638 H633 0.949 . S
C638 C644 1.368 . S
C639 C623 1.349 . S
C639 H631 0.950 . S
C639 C637 1.327 . S
C640 C628 1.349 . S
C640 H634 0.950 . S
C640 C641 1.327 . S
C641 H635 0.950 . S
C641 C640 1.327 . S
C641 C645 1.429 . S
C642 C625 1.574 . S
C642 H636 0.949 . S
C642 C646 1.368 . S
C643 C624 1.429 . S
C643 C637 1.429 . S
C643 C644 1.523 . S
C644 C625 1.368 . S
C644 C638 1.368 . S
C644 C643 1.523 . S
C645 C629 1.429 . S
C645 C641 1.429 . S
C645 C646 1.523 . S
C646 C630 1.368 . S
C646 C642 1.368 . S
C646 C645 1.523 . S
H647 C622 0.950 . S
H648 C624 0.950 . S
H649 C625 0.949 . S
H650 C627 0.950 . S
H651 C629 0.950 . S
C652 C653 1.349 . S
C652 C654 1.327 . S
C652 H677 0.950 . S
C653 C652 1.349 . S
C653 C669 1.349 . S
C654 C652 1.327 . S
C654 C673 1.429 . S
C654 H678 0.950 . S
C655 C672 1.574 . S
C655 C674 1.368 . S
C655 H679 0.949 . S
H656 C660 0.949 . S
C657 C658 1.349 1_556 S
C657 C659 1.327 . S
C657 H680 0.950 . S
C658 C657 1.349 1_554 S
C658 C670 1.349 . S
C659 C657 1.327 . S
C659 C675 1.429 . S
C659 H681 0.950 . S
C660 H656 0.949 . S
C660 C668 1.574 . S
C660 C676 1.368 . S
H661 C669 0.950 . S
H662 C667 0.950 . S
H663 C668 0.949 . S
H664 C670 0.950 . S
H665 C671 0.950 . S
H666 C672 0.949 . S
C667 H662 0.950 . S
C667 C669 1.327 . S
C667 C673 1.429 . S
C668 C660 1.574 . S
C668 H663 0.949 . S
C668 C674 1.368 . S
C669 C653 1.349 . S
C669 H661 0.950 . S
C669 C667 1.327 . S
C670 C658 1.349 . S
C670 H664 0.950 . S
C670 C671 1.327 . S
C671 H665 0.950 . S
C671 C670 1.327 . S
C671 C675 1.429 1_554 S
C672 C655 1.574 . S
C672 H666 0.949 . S
C672 C676 1.368 . S
C673 C654 1.429 . S
C673 C667 1.429 . S
C673 C674 1.523 . S
C674 C655 1.368 . S
C674 C668 1.368 . S
C674 C673 1.523 . S
C675 C659 1.429 . S
C675 C671 1.429 1_556 S
C675 C676 1.523 . S
C676 C660 1.368 . S
C676 C672 1.368 . S
C676 C675 1.523 . S
H677 C652 0.950 . S
H678 C654 0.950 . S
H679 C655 0.949 . S
H680 C657 0.950 . S
H681 C659 0.950 . S
C682 C683 1.349 . S
C682 C684 1.327 . S
C682 H707 0.950 . S
C683 C682 1.349 . S
C683 C699 1.349 . S
C684 C682 1.327 . S
C684 C703 1.429 . S
C684 H708 0.950 . S
C685 C702 1.574 . S
C685 C704 1.368 . S
C685 H709 0.949 . S
H686 C690 0.949 . S
C687 C688 1.349 . S
C687 C689 1.327 . S
C687 H710 0.950 . S
C688 C687 1.349 . S
C688 C700 1.349 . S
C689 C687 1.327 . S
C689 C705 1.429 . S
C689 H711 0.950 . S
C690 H686 0.949 . S
C690 C698 1.574 . S
C690 C706 1.368 . S
H691 C699 0.950 . S
H692 C697 0.950 . S
H693 C698 0.949 . S
H694 C700 0.950 . S
H695 C701 0.950 . S
H696 C702 0.949 . S
C697 H692 0.950 . S
C697 C699 1.327 . S
C697 C703 1.429 . S
C698 C690 1.574 . S
C698 H693 0.949 . S
C698 C704 1.368 . S
C699 C683 1.349 . S
C699 H691 0.950 . S
C699 C697 1.327 . S
C700 C688 1.349 . S
C700 H694 0.950 . S
C700 C701 1.327 . S
C701 H695 0.950 . S
C701 C700 1.327 . S
C701 C705 1.429 . S
C702 C685 1.574 . S
C702 H696 0.949 . S
C702 C706 1.368 . S
C703 C684 1.429 . S
C703 C697 1.429 . S
C703 C704 1.523 . S
C704 C685 1.368 . S
C704 C698 1.368 . S
C704 C703 1.523 . S
C705 C689 1.429 . S
C705 C701 1.429 . S
C705 C706 1.523 . S
C706 C690 1.368 . S
C706 C702 1.368 . S
C706 C705 1.523 . S
H707 C682 0.950 . S
H708 C684 0.950 . S
H709 C685 0.949 . S
H710 C687 0.950 . S
H711 C689 0.950 . S
C712 C713 1.349 . S
C712 C714 1.327 . S
C712 H737 0.950 . S
C713 C712 1.349 . S
C713 C729 1.349 . S
C714 C712 1.327 . S
C714 C733 1.429 . S
C714 H738 0.950 . S
C715 C732 1.574 . S
C715 C734 1.368 . S
C715 H739 0.949 . S
H716 C720 0.949 . S
C717 C718 1.349 . S
C717 C719 1.327 . S
C717 H740 0.950 . S
C718 C717 1.349 . S
C718 C730 1.349 . S
C719 C717 1.327 . S
C719 C735 1.429 . S
C719 H741 0.950 . S
C720 H716 0.949 . S
C720 C728 1.574 . S
C720 C736 1.368 . S
H721 C729 0.950 . S
H722 C727 0.950 . S
H723 C728 0.949 . S
H724 C730 0.950 . S
H725 C731 0.950 . S
H726 C732 0.949 . S
C727 H722 0.950 . S
C727 C729 1.327 . S
C727 C733 1.429 . S
C728 C720 1.574 . S
C728 H723 0.949 . S
C728 C734 1.368 . S
C729 C713 1.349 . S
C729 H721 0.950 . S
C729 C727 1.327 . S
C730 C718 1.349 . S
C730 H724 0.950 . S
C730 C731 1.327 . S
C731 H725 0.950 . S
C731 C730 1.327 . S
C731 C735 1.429 . S
C732 C715 1.574 . S
C732 H726 0.949 . S
C732 C736 1.368 . S
C733 C714 1.429 . S
C733 C727 1.429 . S
C733 C734 1.523 . S
C734 C715 1.368 . S
C734 C728 1.368 . S
C734 C733 1.523 . S
C735 C719 1.429 . S
C735 C731 1.429 . S
C735 C736 1.523 . S
C736 C720 1.368 . S
C736 C732 1.368 . S
C736 C735 1.523 . S
H737 C712 0.950 . S
H738 C714 0.950 . S
H739 C715 0.949 . S
H740 C717 0.950 . S
H741 C719 0.950 . S
C742 C743 1.349 . S
C742 C744 1.327 . S
C742 H767 0.950 . S
C743 C742 1.349 . S
C743 C759 1.349 . S
C744 C742 1.327 . S
C744 C763 1.429 . S
C744 H768 0.950 . S
C745 C762 1.574 . S
C745 C764 1.368 . S
C745 H769 0.949 . S
H746 C750 0.949 . S
C747 C748 1.349 . S
C747 C749 1.327 . S
C747 H770 0.950 1_545 S
C748 C747 1.349 . S
C748 C760 1.349 . S
C749 C747 1.327 . S
C749 C765 1.429 . S
C749 H771 0.950 . S
C750 H746 0.949 . S
C750 C758 1.574 . S
C750 C766 1.368 . S
H751 C759 0.950 . S
H752 C757 0.950 . S
H753 C758 0.949 . S
H754 C760 0.950 . S
H755 C761 0.950 . S
H756 C762 0.949 . S
C757 H752 0.950 . S
C757 C759 1.327 . S
C757 C763 1.429 . S
C758 C750 1.574 . S
C758 H753 0.949 . S
C758 C764 1.368 . S
C759 C743 1.349 . S
C759 H751 0.950 . S
C759 C757 1.327 . S
C760 C748 1.349 . S
C760 H754 0.950 . S
C760 C761 1.327 . S
C761 H755 0.950 . S
C761 C760 1.327 . S
C761 C765 1.429 . S
C762 C745 1.574 . S
C762 H756 0.949 . S
C762 C766 1.368 . S
C763 C744 1.429 . S
C763 C757 1.429 . S
C763 C764 1.523 . S
C764 C745 1.368 . S
C764 C758 1.368 . S
C764 C763 1.523 . S
C765 C749 1.429 . S
C765 C761 1.429 . S
C765 C766 1.523 . S
C766 C750 1.368 . S
C766 C762 1.368 . S
C766 C765 1.523 . S
H767 C742 0.950 . S
H768 C744 0.950 . S
H769 C745 0.949 . S
H770 C747 0.950 1_565 S
H771 C749 0.950 . S
C772 C773 1.349 . S
C772 C774 1.327 . S
C772 H797 0.950 . S
C773 C772 1.349 . S
C773 C789 1.349 . S
C774 C772 1.327 . S
C774 C793 1.429 . S
C774 H798 0.950 . S
C775 C792 1.574 . S
C775 C794 1.368 . S
C775 H799 0.949 . S
H776 C780 0.949 . S
C777 C778 1.349 . S
C777 C779 1.327 . S
C777 H800 0.950 . S
C778 C777 1.349 . S
C778 C790 1.349 . S
C779 C777 1.327 . S
C779 C795 1.429 . S
C779 H801 0.950 . S
C780 H776 0.949 . S
C780 C788 1.574 . S
C780 C796 1.368 . S
H781 C789 0.950 . S
H782 C787 0.950 . S
H783 C788 0.949 . S
H784 C790 0.950 . S
H785 C791 0.950 . S
H786 C792 0.949 . S
C787 H782 0.950 . S
C787 C789 1.327 . S
C787 C793 1.429 . S
C788 C780 1.574 . S
C788 H783 0.949 . S
C788 C794 1.368 . S
C789 C773 1.349 . S
C789 H781 0.950 . S
C789 C787 1.327 . S
C790 C778 1.349 . S
C790 H784 0.950 . S
C790 C791 1.327 . S
C791 H785 0.950 . S
C791 C790 1.327 . S
C791 C795 1.429 . S
C792 C775 1.574 . S
C792 H786 0.949 . S
C792 C796 1.368 . S
C793 C774 1.429 . S
C793 C787 1.429 . S
C793 C794 1.523 . S
C794 C775 1.368 . S
C794 C788 1.368 . S
C794 C793 1.523 . S
C795 C779 1.429 . S
C795 C791 1.429 . S
C795 C796 1.523 . S
C796 C780 1.368 . S
C796 C792 1.368 . S
C796 C795 1.523 . S
H797 C772 0.950 . S
H798 C774 0.950 . S
H799 C775 0.949 . S
H800 C777 0.950 . S
H801 C779 0.950 . S
C802 C803 1.349 . S
C802 C804 1.327 . S
C802 H827 0.950 . S
C803 C802 1.349 . S
C803 C819 1.349 . S
C804 C802 1.327 . S
C804 C823 1.429 . S
C804 H828 0.950 . S
C805 C822 1.574 . S
C805 C824 1.368 . S
C805 H829 0.949 . S
H806 C810 0.949 . S
C807 C808 1.349 . S
C807 C809 1.327 . S
C807 H830 0.950 1_565 S
C808 C807 1.349 . S
C808 C820 1.349 . S
C809 C807 1.327 . S
C809 C825 1.429 . S
C809 H831 0.950 . S
C810 H806 0.949 . S
C810 C818 1.574 . S
C810 C826 1.368 . S
H811 C819 0.950 . S
H812 C817 0.950 . S
H813 C818 0.949 . S
H814 C820 0.950 . S
H815 C821 0.950 . S
H816 C822 0.949 . S
C817 H812 0.950 . S
C817 C819 1.327 . S
C817 C823 1.429 . S
C818 C810 1.574 . S
C818 H813 0.949 . S
C818 C824 1.368 . S
C819 C803 1.349 . S
C819 H811 0.950 . S
C819 C817 1.327 . S
C820 C808 1.349 . S
C820 H814 0.950 . S
C820 C821 1.327 . S
C821 H815 0.950 . S
C821 C820 1.327 . S
C821 C825 1.429 . S
C822 C805 1.574 . S
C822 H816 0.949 . S
C822 C826 1.368 . S
C823 C804 1.429 . S
C823 C817 1.429 . S
C823 C824 1.523 . S
C824 C805 1.368 . S
C824 C818 1.368 . S
C824 C823 1.523 . S
C825 C809 1.429 . S
C825 C821 1.429 . S
C825 C826 1.523 . S
C826 C810 1.368 . S
C826 C822 1.368 . S
C826 C825 1.523 . S
H827 C802 0.950 . S
H828 C804 0.950 . S
H829 C805 0.949 . S
H830 C807 0.950 1_545 S
H831 C809 0.950 . S
C832 C833 1.349 . S
C832 C834 1.327 . S
C832 H857 0.950 . S
C833 C832 1.349 . S
C833 C849 1.349 . S
C834 C832 1.327 . S
C834 C853 1.429 . S
C834 H858 0.950 . S
C835 C852 1.574 . S
C835 C854 1.368 . S
C835 H859 0.949 . S
H836 C840 0.949 . S
C837 C838 1.349 . S
C837 C839 1.327 . S
C837 H860 0.950 . S
C838 C837 1.349 . S
C838 C850 1.349 . S
C839 C837 1.327 . S
C839 C855 1.429 . S
C839 H861 0.950 . S
C840 H836 0.949 . S
C840 C848 1.574 . S
C840 C856 1.368 . S
H841 C849 0.950 . S
H842 C847 0.950 . S
H843 C848 0.949 . S
H844 C850 0.950 . S
H845 C851 0.950 . S
H846 C852 0.949 . S
C847 H842 0.950 . S
C847 C849 1.327 . S
C847 C853 1.429 . S
C848 C840 1.574 . S
C848 H843 0.949 . S
C848 C854 1.368 . S
C849 C833 1.349 . S
C849 H841 0.950 . S
C849 C847 1.327 . S
C850 C838 1.349 . S
C850 H844 0.950 . S
C850 C851 1.327 . S
C851 H845 0.950 . S
C851 C850 1.327 . S
C851 C855 1.429 . S
C852 C835 1.574 . S
C852 H846 0.949 . S
C852 C856 1.368 . S
C853 C834 1.429 . S
C853 C847 1.429 . S
C853 C854 1.523 . S
C854 C835 1.368 . S
C854 C848 1.368 . S
C854 C853 1.523 . S
C855 C839 1.429 . S
C855 C851 1.429 . S
C855 C856 1.523 . S
C856 C840 1.368 . S
C856 C852 1.368 . S
C856 C855 1.523 . S
H857 C832 0.950 . S
H858 C834 0.950 . S
H859 C835 0.949 . S
H860 C837 0.950 . S
H861 C839 0.950 . S
C862 C863 1.349 . S
C862 C864 1.327 . S
C862 H887 0.950 . S
C863 C862 1.349 . S
C863 C879 1.349 . S
C864 C862 1.327 . S
C864 C883 1.429 . S
C864 H888 0.950 . S
C865 C882 1.574 . S
C865 C884 1.368 . S
C865 H889 0.949 . S
H866 C870 0.949 . S
C867 C868 1.349 . S
C867 C869 1.327 . S
C867 H890 0.950 . S
C868 C867 1.349 . S
C868 C880 1.349 . S
C869 C867 1.327 . S
C869 C885 1.429 . S
C869 H891 0.950 . S
C870 H866 0.949 . S
C870 C878 1.574 . S
C870 C886 1.368 . S
H871 C879 0.950 . S
H872 C877 0.950 . S
H873 C878 0.949 . S
H874 C880 0.950 . S
H875 C881 0.950 . S
H876 C882 0.949 . S
C877 H872 0.950 . S
C877 C879 1.327 . S
C877 C883 1.429 . S
C878 C870 1.574 . S
C878 H873 0.949 . S
C878 C884 1.368 . S
C879 C863 1.349 . S
C879 H871 0.950 . S
C879 C877 1.327 . S
C880 C868 1.349 . S
C880 H874 0.950 . S
C880 C881 1.327 . S
C881 H875 0.950 . S
C881 C880 1.327 . S
C881 C885 1.429 . S
C882 C865 1.574 . S
C882 H876 0.949 . S
C882 C886 1.368 . S
C883 C864 1.429 . S
C883 C877 1.429 . S
C883 C884 1.523 . S
C884 C865 1.368 . S
C884 C878 1.368 . S
C884 C883 1.523 . S
C885 C869 1.429 . S
C885 C881 1.429 . S
C885 C886 1.523 . S
C886 C870 1.368 . S
C886 C882 1.368 . S
C886 C885 1.523 . S
H887 C862 0.950 . S
H888 C864 0.950 . S
H889 C865 0.949 . S
H890 C867 0.950 . S
H891 C869 0.950 . S
C892 C893 1.349 . S
C892 C894 1.327 . S
C892 H917 0.950 . S
C893 C892 1.349 . S
C893 C909 1.349 . S
C894 C892 1.327 . S
C894 C913 1.429 . S
C894 H918 0.950 . S
C895 C912 1.574 . S
C895 C914 1.368 . S
C895 H919 0.949 . S
H896 C900 0.949 . S
C897 C898 1.349 . S
C897 C899 1.327 . S
C897 H920 0.950 . S
C898 C897 1.349 . S
C898 C910 1.349 . S
C899 C897 1.327 . S
C899 C915 1.429 . S
C899 H921 0.950 . S
C900 H896 0.949 . S
C900 C908 1.574 . S
C900 C916 1.368 . S
H901 C909 0.950 1_655 S
H902 C907 0.950 . S
H903 C908 0.949 . S
H904 C910 0.950 . S
H905 C911 0.950 . S
H906 C912 0.949 . S
C907 H902 0.950 . S
C907 C909 1.327 . S
C907 C913 1.429 . S
C908 C900 1.574 . S
C908 H903 0.949 . S
C908 C914 1.368 . S
C909 C893 1.349 . S
C909 H901 0.950 1_455 S
C909 C907 1.327 . S
C910 C898 1.349 . S
C910 H904 0.950 . S
C910 C911 1.327 . S
C911 H905 0.950 . S
C911 C910 1.327 . S
C911 C915 1.429 . S
C912 C895 1.574 . S
C912 H906 0.949 . S
C912 C916 1.368 . S
C913 C894 1.429 . S
C913 C907 1.429 . S
C913 C914 1.523 . S
C914 C895 1.368 . S
C914 C908 1.368 . S
C914 C913 1.523 . S
C915 C899 1.429 . S
C915 C911 1.429 . S
C915 C916 1.523 . S
C916 C900 1.368 . S
C916 C912 1.368 . S
C916 C915 1.523 . S
H917 C892 0.950 . S
H918 C894 0.950 . S
H919 C895 0.949 . S
H920 C897 0.950 . S
H921 C899 0.950 . S
C922 C923 1.349 . S
C922 C924 1.327 . S
C922 H947 0.950 . S
C923 C922 1.349 . S
C923 C939 1.349 . S
C924 C922 1.327 . S
C924 C943 1.429 . S
C924 H948 0.950 . S
C925 C942 1.574 . S
C925 C944 1.368 . S
C925 H949 0.949 . S
H926 C930 0.949 . S
C927 C928 1.349 . S
C927 C929 1.327 . S
C927 H950 0.950 . S
C928 C927 1.349 . S
C928 C940 1.349 . S
C929 C927 1.327 . S
C929 C945 1.429 . S
C929 H951 0.950 . S
C930 H926 0.949 . S
C930 C938 1.574 . S
C930 C946 1.368 . S
H931 C939 0.950 . S
H932 C937 0.950 . S
H933 C938 0.949 . S
H934 C940 0.950 . S
H935 C941 0.950 . S
H936 C942 0.949 . S
C937 H932 0.950 . S
C937 C939 1.327 . S
C937 C943 1.429 . S
C938 C930 1.574 . S
C938 H933 0.949 . S
C938 C944 1.368 . S
C939 C923 1.349 . S
C939 H931 0.950 . S
C939 C937 1.327 . S
C940 C928 1.349 . S
C940 H934 0.950 . S
C940 C941 1.327 . S
C941 H935 0.950 . S
C941 C940 1.327 . S
C941 C945 1.429 . S
C942 C925 1.574 . S
C942 H936 0.949 . S
C942 C946 1.368 . S
C943 C924 1.429 . S
C943 C937 1.429 . S
C943 C944 1.523 . S
C944 C925 1.368 . S
C944 C938 1.368 . S
C944 C943 1.523 . S
C945 C929 1.429 . S
C945 C941 1.429 . S
C945 C946 1.523 . S
C946 C930 1.368 . S
C946 C942 1.368 . S
C946 C945 1.523 . S
H947 C922 0.950 . S
H948 C924 0.950 . S
H949 C925 0.949 . S
H950 C927 0.950 . S
H951 C929 0.950 . S
C952 C953 1.349 . S
C952 C954 1.327 . S
C952 H977 0.950 . S
C953 C952 1.349 . S
C953 C969 1.349 . S
C954 C952 1.327 . S
C954 C973 1.429 . S
C954 H978 0.950 . S
C955 C972 1.574 . S
C955 C974 1.368 . S
C955 H979 0.949 . S
H956 C960 0.949 . S
C957 C958 1.349 . S
C957 C959 1.327 . S
C957 H980 0.950 . S
C958 C957 1.349 . S
C958 C970 1.349 . S
C959 C957 1.327 . S
C959 C975 1.429 . S
C959 H981 0.950 . S
C960 H956 0.949 . S
C960 C968 1.574 . S
C960 C976 1.368 . S
H961 C969 0.950 . S
H962 C967 0.950 . S
H963 C968 0.949 . S
H964 C970 0.950 . S
H965 C971 0.950 . S
H966 C972 0.949 . S
C967 H962 0.950 . S
C967 C969 1.327 . S
C967 C973 1.429 . S
C968 C960 1.574 . S
C968 H963 0.949 . S
C968 C974 1.368 . S
C969 C953 1.349 . S
C969 H961 0.950 . S
C969 C967 1.327 . S
C970 C958 1.349 . S
C970 H964 0.950 . S
C970 C971 1.327 . S
C971 H965 0.950 . S
C971 C970 1.327 . S
C971 C975 1.429 . S
C972 C955 1.574 . S
C972 H966 0.949 . S
C972 C976 1.368 . S
C973 C954 1.429 . S
C973 C967 1.429 . S
C973 C974 1.523 . S
C974 C955 1.368 . S
C974 C968 1.368 . S
C974 C973 1.523 . S
C975 C959 1.429 . S
C975 C971 1.429 . S
C975 C976 1.523 . S
C976 C960 1.368 . S
C976 C972 1.368 . S
C976 C975 1.523 . S
H977 C952 0.950 . S
H978 C954 0.950 . S
H979 C955 0.949 . S
H980 C957 0.950 . S
H981 C959 0.950 . S
C982 C983 1.349 1_554 S
C982 C984 1.327 1_554 S
C982 H1007 0.950 . S
C983 C982 1.349 1_556 S
C983 C999 1.349 . S
C984 C982 1.327 1_556 S
C984 C1003 1.429 . S
C984 H1008 0.950 1_556 S
C985 C1002 1.574 . S
C985 C1004 1.368 . S
C985 H1009 0.949 . S
H986 C990 0.949 . S
C987 C988 1.349 . S
C987 C989 1.327 . S
C987 H1010 0.950 . S
C988 C987 1.349 . S
C988 C1000 1.349 . S
C989 C987 1.327 . S
C989 C1005 1.429 . S
C989 H1011 0.950 . S
C990 H986 0.949 . S
C990 C998 1.574 . S
C990 C1006 1.368 . S
H991 C999 0.950 . S
H992 C997 0.950 . S
H993 C998 0.949 . S
H994 C1000 0.950 . S
H995 C1001 0.950 . S
H996 C1002 0.949 . S
C997 H992 0.950 . S
C997 C999 1.327 . S
C997 C1003 1.429 . S
C998 C990 1.574 . S
C998 H993 0.949 . S
C998 C1004 1.368 . S
C999 C983 1.349 . S
C999 H991 0.950 . S
C999 C997 1.327 . S
C1000 C988 1.349 . S
C1000 H994 0.950 . S
C1000 C1001 1.327 . S
C1001 H995 0.950 . S
C1001 C1000 1.327 . S
C1001 C1005 1.429 . S
C1002 C985 1.574 . S
C1002 H996 0.949 . S
C1002 C1006 1.368 . S
C1003 C984 1.429 . S
C1003 C997 1.429 . S
C1003 C1004 1.523 . S
C1004 C985 1.368 . S
C1004 C998 1.368 . S
C1004 C1003 1.523 . S
C1005 C989 1.429 . S
C1005 C1001 1.429 . S
C1005 C1006 1.523 . S
C1006 C990 1.368 . S
C1006 C1002 1.368 . S
C1006 C1005 1.523 . S
H1007 C982 0.950 . S
H1008 C984 0.950 1_554 S
H1009 C985 0.949 . S
H1010 C987 0.950 . S
H1011 C989 0.950 . S
C1012 C1013 1.349 . S
C1012 C1014 1.327 . S
C1012 H1037 0.950 . S
C1013 C1012 1.349 . S
C1013 C1029 1.349 . S
C1014 C1012 1.327 . S
C1014 C1033 1.429 . S
C1014 H1038 0.950 . S
C1015 C1032 1.574 . S
C1015 C1034 1.368 . S
C1015 H1039 0.949 . S
H1016 C1020 0.949 . S
C1017 C1018 1.349 . S
C1017 C1019 1.327 . S
C1017 H1040 0.950 . S
C1018 C1017 1.349 . S
C1018 C1030 1.349 . S
C1019 C1017 1.327 . S
C1019 C1035 1.429 . S
C1019 H1041 0.950 . S
C1020 H1016 0.949 . S
C1020 C1028 1.574 . S
C1020 C1036 1.368 . S
H1021 C1029 0.950 . S
H1022 C1027 0.950 . S
H1023 C1028 0.949 . S
H1024 C1030 0.950 . S
H1025 C1031 0.950 . S
H1026 C1032 0.949 . S
C1027 H1022 0.950 . S
C1027 C1029 1.327 . S
C1027 C1033 1.429 . S
C1028 C1020 1.574 . S
C1028 H1023 0.949 . S
C1028 C1034 1.368 . S
C1029 C1013 1.349 . S
C1029 H1021 0.950 . S
C1029 C1027 1.327 . S
C1030 C1018 1.349 . S
C1030 H1024 0.950 . S
C1030 C1031 1.327 . S
C1031 H1025 0.950 . S
C1031 C1030 1.327 . S
C1031 C1035 1.429 . S
C1032 C1015 1.574 . S
C1032 H1026 0.949 . S
C1032 C1036 1.368 . S
C1033 C1014 1.429 . S
C1033 C1027 1.429 . S
C1033 C1034 1.523 . S
C1034 C1015 1.368 . S
C1034 C1028 1.368 . S
C1034 C1033 1.523 . S
C1035 C1019 1.429 . S
C1035 C1031 1.429 . S
C1035 C1036 1.523 . S
C1036 C1020 1.368 . S
C1036 C1032 1.368 . S
C1036 C1035 1.523 . S
H1037 C1012 0.950 . S
H1038 C1014 0.950 . S
H1039 C1015 0.949 . S
H1040 C1017 0.950 . S
H1041 C1019 0.950 . S
C1042 C1043 1.349 . S
C1042 C1044 1.327 . S
C1042 H1067 0.950 . S
C1043 C1042 1.349 . S
C1043 C1059 1.349 . S
C1044 C1042 1.327 . S
C1044 C1063 1.429 . S
C1044 H1068 0.950 . S
C1045 C1062 1.574 . S
C1045 C1064 1.368 . S
C1045 H1069 0.949 . S
H1046 C1050 0.949 . S
C1047 C1048 1.349 . S
C1047 C1049 1.327 . S
C1047 H1070 0.950 . S
C1048 C1047 1.349 . S
C1048 C1060 1.349 . S
C1049 C1047 1.327 . S
C1049 C1065 1.429 . S
C1049 H1071 0.950 . S
C1050 H1046 0.949 . S
C1050 C1058 1.574 . S
C1050 C1066 1.368 . S
H1051 C1059 0.950 . S
H1052 C1057 0.950 . S
H1053 C1058 0.949 . S
H1054 C1060 0.950 . S
H1055 C1061 0.950 . S
H1056 C1062 0.949 . S
C1057 H1052 0.950 . S
C1057 C1059 1.327 . S
C1057 C1063 1.429 . S
C1058 C1050 1.574 . S
C1058 H1053 0.949 . S
C1058 C1064 1.368 . S
C1059 C1043 1.349 . S
C1059 H1051 0.950 . S
C1059 C1057 1.327 . S
C1060 C1048 1.349 . S
C1060 H1054 0.950 . S
C1060 C1061 1.327 . S
C1061 H1055 0.950 . S
C1061 C1060 1.327 . S
C1061 C1065 1.429 . S
C1062 C1045 1.574 . S
C1062 H1056 0.949 . S
C1062 C1066 1.368 . S
C1063 C1044 1.429 . S
C1063 C1057 1.429 . S
C1063 C1064 1.523 . S
C1064 C1045 1.368 . S
C1064 C1058 1.368 . S
C1064 C1063 1.523 . S
C1065 C1049 1.429 . S
C1065 C1061 1.429 . S
C1065 C1066 1.523 . S
C1066 C1050 1.368 . S
C1066 C1062 1.368 . S
C1066 C1065 1.523 . S
H1067 C1042 0.950 . S
H1068 C1044 0.950 . S
H1069 C1045 0.949 . S
H1070 C1047 0.950 . S
H1071 C1049 0.950 . S
C1072 C1073 1.349 . S
C1072 C1074 1.327 . S
C1072 H1097 0.950 . S
C1073 C1072 1.349 . S
C1073 C1089 1.349 . S
C1074 C1072 1.327 . S
C1074 C1093 1.429 . S
C1074 H1098 0.950 . S
C1075 C1092 1.574 . S
C1075 C1094 1.368 . S
C1075 H1099 0.949 . S
H1076 C1080 0.949 . S
C1077 C1078 1.349 . S
C1077 C1079 1.327 . S
C1077 H1100 0.950 1_655 S
C1078 C1077 1.349 . S
C1078 C1090 1.349 . S
C1079 C1077 1.327 . S
C1079 C1095 1.429 . S
C1079 H1101 0.950 . S
C1080 H1076 0.949 . S
C1080 C1088 1.574 . S
C1080 C1096 1.368 . S
H1081 C1089 0.950 . S
H1082 C1087 0.950 . S
H1083 C1088 0.949 . S
H1084 C1090 0.950 . S
H1085 C1091 0.950 . S
H1086 C1092 0.949 . S
C1087 H1082 0.950 . S
C1087 C1089 1.327 . S
C1087 C1093 1.429 . S
C1088 C1080 1.574 . S
C1088 H1083 0.949 . S
C1088 C1094 1.368 . S
C1089 C1073 1.349 . S
C1089 H1081 0.950 . S
C1089 C1087 1.327 . S
C1090 C1078 1.349 . S
C1090 H1084 0.950 . S
C1090 C1091 1.327 . S
C1091 H1085 0.950 . S
C1091 C1090 1.327 . S
C1091 C1095 1.429 . S
C1092 C1075 1.574 . S
C1092 H1086 0.949 . S
C1092 C1096 1.368 . S
C1093 C1074 1.429 . S
C1093 C1087 1.429 . S
C1093 C1094 1.523 . S
C1094 C1075 1.368 . S
C1094 C1088 1.368 . S
C1094 C1093 1.523 . S
C1095 C1079 1.429 . S
C1095 C1091 1.429 . S
C1095 C1096 1.523 . S
C1096 C1080 1.368 . S
C1096 C1092 1.368 . S
C1096 C1095 1.523 . S
H1097 C1072 0.950 . S
H1098 C1074 0.950 . S
H1099 C1075 0.949 . S
H1100 C1077 0.950 1_455 S
H1101 C1079 0.950 . S
C1102 C1103 1.349 . S
C1102 C1104 1.327 . S
C1102 H1127 0.950 . S
C1103 C1102 1.349 . S
C1103 C1119 1.349 . S
C1104 C1102 1.327 . S
C1104 C1123 1.429 . S
C1104 H1128 0.950 . S
C1105 C1122 1.574 . S
C1105 C1124 1.368 . S
C1105 H1129 0.949 . S
H1106 C1110 0.949 . S
C1107 C1108 1.349 . S
C1107 C1109 1.327 . S
C1107 H1130 0.950 . S
C1108 C1107 1.349 . S
C1108 C1120 1.349 . S
C1109 C1107 1.327 . S
C1109 C1125 1.429 . S
C1109 H1131 0.950 . S
C1110 H1106 0.949 . S
C1110 C1118 1.574 . S
C1110 C1126 1.368 . S
H1111 C1119 0.950 . S
H1112 C1117 0.950 . S
H1113 C1118 0.949 . S
H1114 C1120 0.950 . S
H1115 C1121 0.950 . S
H1116 C1122 0.949 . S
C1117 H1112 0.950 . S
C1117 C1119 1.327 . S
C1117 C1123 1.429 . S
C1118 C1110 1.574 . S
C1118 H1113 0.949 . S
C1118 C1124 1.368 . S
C1119 C1103 1.349 . S
C1119 H1111 0.950 . S
C1119 C1117 1.327 . S
C1120 C1108 1.349 . S
C1120 H1114 0.950 . S
C1120 C1121 1.327 . S
C1121 H1115 0.950 . S
C1121 C1120 1.327 . S
C1121 C1125 1.429 . S
C1122 C1105 1.574 . S
C1122 H1116 0.949 . S
C1122 C1126 1.368 . S
C1123 C1104 1.429 . S
C1123 C1117 1.429 . S
C1123 C1124 1.523 . S
C1124 C1105 1.368 . S
C1124 C1118 1.368 . S
C1124 C1123 1.523 . S
C1125 C1109 1.429 . S
C1125 C1121 1.429 . S
C1125 C1126 1.523 . S
C1126 C1110 1.368 . S
C1126 C1122 1.368 . S
C1126 C1125 1.523 . S
H1127 C1102 0.950 . S
H1128 C1104 0.950 . S
H1129 C1105 0.949 . S
H1130 C1107 0.950 . S
H1131 C1109 0.950 . S
C1132 C1133 1.349 . S
C1132 C1134 1.327 . S
C1132 H1157 0.950 . S
C1133 C1132 1.349 . S
C1133 C1149 1.349 . S
C1134 C1132 1.327 . S
C1134 C1153 1.429 . S
C1134 H1158 0.950 . S
C1135 C1152 1.574 . S
C1135 C1154 1.368 . S
C1135 H1159 0.949 . S
H1136 C1140 0.949 . S
C1137 C1138 1.349 . S
C1137 C1139 1.327 . S
C1137 H1160 0.950 . S
C1138 C1137 1.349 . S
C1138 C1150 1.349 . S
C1139 C1137 1.327 . S
C1139 C1155 1.429 . S
C1139 H1161 0.950 . S
C1140 H1136 0.949 . S
C1140 C1148 1.574 . S
C1140 C1156 1.368 . S
H1141 C1149 0.950 . S
H1142 C1147 0.950 . S
H1143 C1148 0.949 . S
H1144 C1150 0.950 . S
H1145 C1151 0.950 . S
H1146 C1152 0.949 . S
C1147 H1142 0.950 . S
C1147 C1149 1.327 . S
C1147 C1153 1.429 . S
C1148 C1140 1.574 . S
C1148 H1143 0.949 . S
C1148 C1154 1.368 . S
C1149 C1133 1.349 . S
C1149 H1141 0.950 . S
C1149 C1147 1.327 . S
C1150 C1138 1.349 . S
C1150 H1144 0.950 . S
C1150 C1151 1.327 . S
C1151 H1145 0.950 . S
C1151 C1150 1.327 . S
C1151 C1155 1.429 . S
C1152 C1135 1.574 . S
C1152 H1146 0.949 . S
C1152 C1156 1.368 . S
C1153 C1134 1.429 . S
C1153 C1147 1.429 . S
C1153 C1154 1.523 . S
C1154 C1135 1.368 . S
C1154 C1148 1.368 . S
C1154 C1153 1.523 . S
C1155 C1139 1.429 . S
C1155 C1151 1.429 . S
C1155 C1156 1.523 . S
C1156 C1140 1.368 . S
C1156 C1152 1.368 . S
C1156 C1155 1.523 . S
H1157 C1132 0.950 . S
H1158 C1134 0.950 . S
H1159 C1135 0.949 . S
H1160 C1137 0.950 . S
H1161 C1139 0.950 . S
C1162 C1163 1.349 . S
C1162 C1164 1.327 . S
C1162 H1187 0.950 . S
C1163 C1162 1.349 . S
C1163 C1179 1.349 . S
C1164 C1162 1.327 . S
C1164 C1183 1.429 . S
C1164 H1188 0.950 . S
C1165 C1182 1.574 . S
C1165 C1184 1.368 . S
C1165 H1189 0.949 . S
H1166 C1170 0.949 . S
C1167 C1168 1.349 . S
C1167 C1169 1.327 . S
C1167 H1190 0.950 . S
C1168 C1167 1.349 . S
C1168 C1180 1.349 . S
C1169 C1167 1.327 . S
C1169 C1185 1.429 . S
C1169 H1191 0.950 . S
C1170 H1166 0.949 . S
C1170 C1178 1.574 . S
C1170 C1186 1.368 . S
H1171 C1179 0.950 . S
H1172 C1177 0.950 . S
H1173 C1178 0.949 . S
H1174 C1180 0.950 . S
H1175 C1181 0.950 . S
H1176 C1182 0.949 . S
C1177 H1172 0.950 . S
C1177 C1179 1.327 . S
C1177 C1183 1.429 . S
C1178 C1170 1.574 . S
C1178 H1173 0.949 . S
C1178 C1184 1.368 . S
C1179 C1163 1.349 . S
C1179 H1171 0.950 . S
C1179 C1177 1.327 . S
C1180 C1168 1.349 . S
C1180 H1174 0.950 . S
C1180 C1181 1.327 . S
C1181 H1175 0.950 . S
C1181 C1180 1.327 . S
C1181 C1185 1.429 . S
C1182 C1165 1.574 . S
C1182 H1176 0.949 . S
C1182 C1186 1.368 . S
C1183 C1164 1.429 . S
C1183 C1177 1.429 . S
C1183 C1184 1.523 . S
C1184 C1165 1.368 . S
C1184 C1178 1.368 . S
C1184 C1183 1.523 . S
C1185 C1169 1.429 . S
C1185 C1181 1.429 . S
C1185 C1186 1.523 . S
C1186 C1170 1.368 . S
C1186 C1182 1.368 . S
C1186 C1185 1.523 . S
H1187 C1162 0.950 . S
H1188 C1164 0.950 . S
H1189 C1165 0.949 . S
H1190 C1167 0.950 . S
H1191 C1169 0.950 . S
C1192 C1193 1.349 . S
C1192 C1194 1.327 . S
C1192 H1217 0.950 . S
C1193 C1192 1.349 . S
C1193 C1209 1.349 . S
C1194 C1192 1.327 . S
C1194 C1213 1.429 . S
C1194 H1218 0.950 . S
C1195 C1212 1.574 . S
C1195 C1214 1.368 . S
C1195 H1219 0.949 . S
H1196 C1200 0.949 . S
C1197 C1198 1.349 . S
C1197 C1199 1.327 . S
C1197 H1220 0.950 . S
C1198 C1197 1.349 . S
C1198 C1210 1.349 . S
C1199 C1197 1.327 . S
C1199 C1215 1.429 . S
C1199 H1221 0.950 . S
C1200 H1196 0.949 . S
C1200 C1208 1.574 . S
C1200 C1216 1.368 . S
H1201 C1209 0.950 . S
H1202 C1207 0.950 . S
H1203 C1208 0.949 . S
H1204 C1210 0.950 1_655 S
H1205 C1211 0.950 . S
H1206 C1212 0.949 . S
C1207 H1202 0.950 . S
C1207 C1209 1.327 . S
C1207 C1213 1.429 . S
C1208 C1200 1.574 . S
C1208 H1203 0.949 . S
C1208 C1214 1.368 . S
C1209 C1193 1.349 . S
C1209 H1201 0.950 . S
C1209 C1207 1.327 . S
C1210 C1198 1.349 . S
C1210 H1204 0.950 1_455 S
C1210 C1211 1.327 . S
C1211 H1205 0.950 . S
C1211 C1210 1.327 . S
C1211 C1215 1.429 . S
C1212 C1195 1.574 . S
C1212 H1206 0.949 . S
C1212 C1216 1.368 . S
C1213 C1194 1.429 . S
C1213 C1207 1.429 . S
C1213 C1214 1.523 . S
C1214 C1195 1.368 . S
C1214 C1208 1.368 . S
C1214 C1213 1.523 . S
C1215 C1199 1.429 . S
C1215 C1211 1.429 . S
C1215 C1216 1.523 . S
C1216 C1200 1.368 . S
C1216 C1212 1.368 . S
C1216 C1215 1.523 . S
H1217 C1192 0.950 . S
H1218 C1194 0.950 . S
H1219 C1195 0.949 . S
H1220 C1197 0.950 . S
H1221 C1199 0.950 . S
C1222 C1223 1.349 . S
C1222 C1224 1.327 . S
C1222 H1247 0.950 . S
C1223 C1222 1.349 . S
C1223 C1239 1.349 . S
C1224 C1222 1.327 . S
C1224 C1243 1.429 . S
C1224 H1248 0.950 . S
C1225 C1242 1.574 . S
C1225 C1244 1.368 . S
C1225 H1249 0.949 . S
H1226 C1230 0.949 . S
C1227 C1228 1.349 . S
C1227 C1229 1.327 . S
C1227 H1250 0.950 . S
C1228 C1227 1.349 . S
C1228 C1240 1.349 . S
C1229 C1227 1.327 . S
C1229 C1245 1.429 . S
C1229 H1251 0.950 . S
C1230 H1226 0.949 . S
C1230 C1238 1.574 . S
C1230 C1246 1.368 . S
H1231 C1239 0.950 . S
H1232 C1237 0.950 . S
H1233 C1238 0.949 . S
H1234 C1240 0.950 . S
H1235 C1241 0.950 . S
H1236 C1242 0.949 . S
C1237 H1232 0.950 . S
C1237 C1239 1.327 . S
C1237 C1243 1.429 . S
C1238 C1230 1.574 . S
C1238 H1233 0.949 . S
C1238 C1244 1.368 . S
C1239 C1223 1.349 . S
C1239 H1231 0.950 . S
C1239 C1237 1.327 . S
C1240 C1228 1.349 . S
C1240 H1234 0.950 . S
C1240 C1241 1.327 . S
C1241 H1235 0.950 . S
C1241 C1240 1.327 . S
C1241 C1245 1.429 . S
C1242 C1225 1.574 . S
C1242 H1236 0.949 . S
C1242 C1246 1.368 . S
C1243 C1224 1.429 . S
C1243 C1237 1.429 . S
C1243 C1244 1.523 . S
C1244 C1225 1.368 . S
C1244 C1238 1.368 . S
C1244 C1243 1.523 . S
C1245 C1229 1.429 . S
C1245 C1241 1.429 . S
C1245 C1246 1.523 . S
C1246 C1230 1.368 . S
C1246 C1242 1.368 . S
C1246 C1245 1.523 . S
H1247 C1222 0.950 . S
H1248 C1224 0.950 . S
H1249 C1225 0.949 . S
H1250 C1227 0.950 . S
H1251 C1229 0.950 . S
C1252 C1253 1.349 . S
C1252 C1254 1.327 . S
C1252 H1277 0.950 . S
C1253 C1252 1.349 . S
C1253 C1269 1.349 . S
C1254 C1252 1.327 . S
C1254 C1273 1.429 . S
C1254 H1278 0.950 . S
C1255 C1272 1.574 . S
C1255 C1274 1.368 . S
C1255 H1279 0.949 . S
H1256 C1260 0.949 . S
C1257 C1258 1.349 . S
C1257 C1259 1.327 . S
C1257 H1280 0.950 . S
C1258 C1257 1.349 . S
C1258 C1270 1.349 . S
C1259 C1257 1.327 . S
C1259 C1275 1.429 . S
C1259 H1281 0.950 . S
C1260 H1256 0.949 . S
C1260 C1268 1.574 . S
C1260 C1276 1.368 . S
H1261 C1269 0.950 . S
H1262 C1267 0.950 . S
H1263 C1268 0.949 . S
H1264 C1270 0.950 . S
H1265 C1271 0.950 . S
H1266 C1272 0.949 . S
C1267 H1262 0.950 . S
C1267 C1269 1.327 . S
C1267 C1273 1.429 . S
C1268 C1260 1.574 . S
C1268 H1263 0.949 . S
C1268 C1274 1.368 . S
C1269 C1253 1.349 . S
C1269 H1261 0.950 . S
C1269 C1267 1.327 . S
C1270 C1258 1.349 . S
C1270 H1264 0.950 . S
C1270 C1271 1.327 . S
C1271 H1265 0.950 . S
C1271 C1270 1.327 . S
C1271 C1275 1.429 . S
C1272 C1255 1.574 . S
C1272 H1266 0.949 . S
C1272 C1276 1.368 . S
C1273 C1254 1.429 . S
C1273 C1267 1.429 . S
C1273 C1274 1.523 . S
C1274 C1255 1.368 . S
C1274 C1268 1.368 . S
C1274 C1273 1.523 . S
C1275 C1259 1.429 . S
C1275 C1271 1.429 . S
C1275 C1276 1.523 . S
C1276 C1260 1.368 . S
C1276 C1272 1.368 . S
C1276 C1275 1.523 . S
H1277 C1252 0.950 . S
H1278 C1254 0.950 . S
H1279 C1255 0.949 . S
H1280 C1257 0.950 . S
H1281 C1259 0.950 . S
C1282 C1283 1.349 . S
C1282 C1284 1.327 . S
C1282 H1307 0.950 . S
C1283 C1282 1.349 . S
C1283 C1299 1.349 . S
C1284 C1282 1.327 . S
C1284 C1303 1.429 . S
C1284 H1308 0.950 . S
C1285 C1302 1.574 . S
C1285 C1304 1.368 . S
C1285 H1309 0.949 . S
H1286 C1290 0.949 . S
C1287 C1288 1.349 . S
C1287 C1289 1.327 . S
C1287 H1310 0.950 . S
C1288 C1287 1.349 . S
C1288 C1300 1.349 1_556 S
C1289 C1287 1.327 . S
C1289 C1305 1.429 . S
C1289 H1311 0.950 . S
C1290 H1286 0.949 . S
C1290 C1298 1.574 . S
C1290 C1306 1.368 . S
H1291 C1299 0.950 . S
H1292 C1297 0.950 . S
H1293 C1298 0.949 . S
H1294 C1300 0.950 . S
H1295 C1301 0.950 . S
H1296 C1302 0.949 . S
C1297 H1292 0.950 . S
C1297 C1299 1.327 . S
C1297 C1303 1.429 . S
C1298 C1290 1.574 . S
C1298 H1293 0.949 . S
C1298 C1304 1.368 . S
C1299 C1283 1.349 . S
C1299 H1291 0.950 . S
C1299 C1297 1.327 . S
C1300 C1288 1.349 1_554 S
C1300 H1294 0.950 . S
C1300 C1301 1.327 1_554 S
C1301 H1295 0.950 . S
C1301 C1300 1.327 1_556 S
C1301 C1305 1.429 . S
C1302 C1285 1.574 . S
C1302 H1296 0.949 . S
C1302 C1306 1.368 . S
C1303 C1284 1.429 . S
C1303 C1297 1.429 . S
C1303 C1304 1.523 . S
C1304 C1285 1.368 . S
C1304 C1298 1.368 . S
C1304 C1303 1.523 . S
C1305 C1289 1.429 . S
C1305 C1301 1.429 . S
C1305 C1306 1.523 . S
C1306 C1290 1.368 . S
C1306 C1302 1.368 . S
C1306 C1305 1.523 . S
H1307 C1282 0.950 . S
H1308 C1284 0.950 . S
H1309 C1285 0.949 . S
H1310 C1287 0.950 . S
H1311 C1289 0.950 . S
C1312 C1313 1.349 . S
C1312 C1314 1.327 . S
C1312 H1337 0.950 . S
C1313 C1312 1.349 . S
C1313 C1329 1.349 . S
C1314 C1312 1.327 . S
C1314 C1333 1.429 . S
C1314 H1338 0.950 . S
C1315 C1332 1.574 . S
C1315 C1334 1.368 . S
C1315 H1339 0.949 . S
H1316 C1320 0.949 . S
C1317 C1318 1.349 . S
C1317 C1319 1.327 . S
C1317 H1340 0.950 . S
C1318 C1317 1.349 . S
C1318 C1330 1.349 . S
C1319 C1317 1.327 . S
C1319 C1335 1.429 . S
C1319 H1341 0.950 . S
C1320 H1316 0.949 . S
C1320 C1328 1.574 . S
C1320 C1336 1.368 . S
H1321 C1329 0.950 . S
H1322 C1327 0.950 . S
H1323 C1328 0.949 . S
H1324 C1330 0.950 . S
H1325 C1331 0.950 . S
H1326 C1332 0.949 . S
C1327 H1322 0.950 . S
C1327 C1329 1.327 . S
C1327 C1333 1.429 . S
C1328 C1320 1.574 . S
C1328 H1323 0.949 . S
C1328 C1334 1.368 . S
C1329 C1313 1.349 . S
C1329 H1321 0.950 . S
C1329 C1327 1.327 . S
C1330 C1318 1.349 . S
C1330 H1324 0.950 . S
C1330 C1331 1.327 . S
C1331 H1325 0.950 . S
C1331 C1330 1.327 . S
C1331 C1335 1.429 . S
C1332 C1315 1.574 . S
C1332 H1326 0.949 . S
C1332 C1336 1.368 . S
C1333 C1314 1.429 . S
C1333 C1327 1.429 . S
C1333 C1334 1.523 . S
C1334 C1315 1.368 . S
C1334 C1328 1.368 . S
C1334 C1333 1.523 . S
C1335 C1319 1.429 . S
C1335 C1331 1.429 . S
C1335 C1336 1.523 . S
C1336 C1320 1.368 . S
C1336 C1332 1.368 . S
C1336 C1335 1.523 . S
H1337 C1312 0.950 . S
H1338 C1314 0.950 . S
H1339 C1315 0.949 . S
H1340 C1317 0.950 . S
H1341 C1319 0.950 . S
C1342 C1343 1.349 . S
C1342 C1344 1.327 . S
C1342 H1367 0.950 . S
C1343 C1342 1.349 . S
C1343 C1359 1.349 . S
C1344 C1342 1.327 . S
C1344 C1363 1.429 . S
C1344 H1368 0.950 . S
C1345 C1362 1.574 . S
C1345 C1364 1.368 . S
C1345 H1369 0.949 . S
H1346 C1350 0.949 . S
C1347 C1348 1.349 . S
C1347 C1349 1.327 . S
C1347 H1370 0.950 . S
C1348 C1347 1.349 . S
C1348 C1360 1.349 . S
C1349 C1347 1.327 . S
C1349 C1365 1.429 . S
C1349 H1371 0.950 . S
C1350 H1346 0.949 . S
C1350 C1358 1.574 . S
C1350 C1366 1.368 . S
H1351 C1359 0.950 . S
H1352 C1357 0.950 . S
H1353 C1358 0.949 . S
H1354 C1360 0.950 . S
H1355 C1361 0.950 . S
H1356 C1362 0.949 . S
C1357 H1352 0.950 . S
C1357 C1359 1.327 . S
C1357 C1363 1.429 . S
C1358 C1350 1.574 . S
C1358 H1353 0.949 . S
C1358 C1364 1.368 . S
C1359 C1343 1.349 . S
C1359 H1351 0.950 . S
C1359 C1357 1.327 . S
C1360 C1348 1.349 . S
C1360 H1354 0.950 . S
C1360 C1361 1.327 . S
C1361 H1355 0.950 . S
C1361 C1360 1.327 . S
C1361 C1365 1.429 . S
C1362 C1345 1.574 . S
C1362 H1356 0.949 . S
C1362 C1366 1.368 . S
C1363 C1344 1.429 . S
C1363 C1357 1.429 . S
C1363 C1364 1.523 . S
C1364 C1345 1.368 . S
C1364 C1358 1.368 . S
C1364 C1363 1.523 . S
C1365 C1349 1.429 . S
C1365 C1361 1.429 . S
C1365 C1366 1.523 . S
C1366 C1350 1.368 . S
C1366 C1362 1.368 . S
C1366 C1365 1.523 . S
H1367 C1342 0.950 . S
H1368 C1344 0.950 . S
H1369 C1345 0.949 . S
H1370 C1347 0.950 . S
H1371 C1349 0.950 . S
C1372 C1373 1.349 . S
C1372 C1374 1.327 . S
C1372 H1397 0.950 . S
C1373 C1372 1.349 . S
C1373 C1389 1.349 . S
C1374 C1372 1.327 . S
C1374 C1393 1.429 . S
C1374 H1398 0.950 . S
C1375 C1392 1.574 . S
C1375 C1394 1.368 . S
C1375 H1399 0.949 . S
H1376 C1380 0.949 . S
C1377 C1378 1.349 . S
C1377 C1379 1.327 . S
C1377 H1400 0.950 . S
C1378 C1377 1.349 . S
C1378 C1390 1.349 . S
C1379 C1377 1.327 . S
C1379 C1395 1.429 . S
C1379 H1401 0.950 . S
C1380 H1376 0.949 . S
C1380 C1388 1.574 . S
C1380 C1396 1.368 . S
H1381 C1389 0.950 . S
H1382 C1387 0.950 . S
H1383 C1388 0.949 . S
H1384 C1390 0.950 . S
H1385 C1391 0.950 . S
H1386 C1392 0.949 . S
C1387 H1382 0.950 . S
C1387 C1389 1.327 . S
C1387 C1393 1.429 . S
C1388 C1380 1.574 . S
C1388 H1383 0.949 . S
C1388 C1394 1.368 . S
C1389 C1373 1.349 . S
C1389 H1381 0.950 . S
C1389 C1387 1.327 . S
C1390 C1378 1.349 . S
C1390 H1384 0.950 . S
C1390 C1391 1.327 . S
C1391 H1385 0.950 . S
C1391 C1390 1.327 . S
C1391 C1395 1.429 . S
C1392 C1375 1.574 . S
C1392 H1386 0.949 . S
C1392 C1396 1.368 . S
C1393 C1374 1.429 . S
C1393 C1387 1.429 . S
C1393 C1394 1.523 . S
C1394 C1375 1.368 . S
C1394 C1388 1.368 . S
C1394 C1393 1.523 . S
C1395 C1379 1.429 . S
C1395 C1391 1.429 . S
C1395 C1396 1.523 . S
C1396 C1380 1.368 . S
C1396 C1392 1.368 . S
C1396 C1395 1.523 . S
H1397 C1372 0.950 . S
H1398 C1374 0.950 . S
H1399 C1375 0.949 . S
H1400 C1377 0.950 . S
H1401 C1379 0.950 . S
C1402 C1403 1.349 . S
C1402 C1404 1.327 . S
C1402 H1427 0.950 . S
C1403 C1402 1.349 . S
C1403 C1419 1.349 . S
C1404 C1402 1.327 . S
C1404 C1423 1.429 . S
C1404 H1428 0.950 . S
C1405 C1422 1.574 1_454 S
C1405 C1424 1.368 . S
C1405 H1429 0.949 . S
H1406 C1410 0.949 . S
C1407 C1408 1.349 . S
C1407 C1409 1.327 . S
C1407 H1430 0.950 . S
C1408 C1407 1.349 . S
C1408 C1420 1.349 . S
C1409 C1407 1.327 . S
C1409 C1425 1.429 . S
C1409 H1431 0.950 . S
C1410 H1406 0.949 . S
C1410 C1418 1.574 1_655 S
C1410 C1426 1.368 1_554 S
H1411 C1419 0.950 . S
H1412 C1417 0.950 . S
H1413 C1418 0.949 . S
H1414 C1420 0.950 . S
H1415 C1421 0.950 . S
H1416 C1422 0.949 . S
C1417 H1412 0.950 . S
C1417 C1419 1.327 . S
C1417 C1423 1.429 . S
C1418 C1410 1.574 1_455 S
C1418 H1413 0.949 . S
C1418 C1424 1.368 . S
C1419 C1403 1.349 . S
C1419 H1411 0.950 . S
C1419 C1417 1.327 . S
C1420 C1408 1.349 . S
C1420 H1414 0.950 . S
C1420 C1421 1.327 . S
C1421 H1415 0.950 . S
C1421 C1420 1.327 . S
C1421 C1425 1.429 . S
C1422 C1405 1.574 1_656 S
C1422 H1416 0.949 . S
C1422 C1426 1.368 . S
C1423 C1404 1.429 . S
C1423 C1417 1.429 . S
C1423 C1424 1.523 . S
C1424 C1405 1.368 . S
C1424 C1418 1.368 . S
C1424 C1423 1.523 . S
C1425 C1409 1.429 . S
C1425 C1421 1.429 . S
C1425 C1426 1.523 . S
C1426 C1410 1.368 1_556 S
C1426 C1422 1.368 . S
C1426 C1425 1.523 . S
H1427 C1402 0.950 . S
H1428 C1404 0.950 . S
H1429 C1405 0.949 . S
H1430 C1407 0.950 . S
H1431 C1409 0.950 . S
C1432 C1433 1.349 . S
C1432 C1434 1.327 . S
C1432 H1457 0.950 . S
C1433 C1432 1.349 . S
C1433 C1449 1.349 . S
C1434 C1432 1.327 . S
C1434 C1453 1.429 . S
C1434 H1458 0.950 . S
C1435 C1452 1.574 . S
C1435 C1454 1.368 . S
C1435 H1459 0.949 . S
H1436 C1440 0.949 . S
C1437 C1438 1.349 . S
C1437 C1439 1.327 . S
C1437 H1460 0.950 . S
C1438 C1437 1.349 . S
C1438 C1450 1.349 . S
C1439 C1437 1.327 . S
C1439 C1455 1.429 . S
C1439 H1461 0.950 . S
C1440 H1436 0.949 . S
C1440 C1448 1.574 . S
C1440 C1456 1.368 . S
H1441 C1449 0.950 . S
H1442 C1447 0.950 . S
H1443 C1448 0.949 . S
H1444 C1450 0.950 . S
H1445 C1451 0.950 . S
H1446 C1452 0.949 . S
C1447 H1442 0.950 . S
C1447 C1449 1.327 . S
C1447 C1453 1.429 . S
C1448 C1440 1.574 . S
C1448 H1443 0.949 . S
C1448 C1454 1.368 . S
C1449 C1433 1.349 . S
C1449 H1441 0.950 . S
C1449 C1447 1.327 . S
C1450 C1438 1.349 . S
C1450 H1444 0.950 . S
C1450 C1451 1.327 . S
C1451 H1445 0.950 . S
C1451 C1450 1.327 . S
C1451 C1455 1.429 . S
C1452 C1435 1.574 . S
C1452 H1446 0.949 . S
C1452 C1456 1.368 . S
C1453 C1434 1.429 . S
C1453 C1447 1.429 . S
C1453 C1454 1.523 . S
C1454 C1435 1.368 . S
C1454 C1448 1.368 . S
C1454 C1453 1.523 . S
C1455 C1439 1.429 . S
C1455 C1451 1.429 . S
C1455 C1456 1.523 . S
C1456 C1440 1.368 . S
C1456 C1452 1.368 . S
C1456 C1455 1.523 . S
H1457 C1432 0.950 . S
H1458 C1434 0.950 . S
H1459 C1435 0.949 . S
H1460 C1437 0.950 . S
H1461 C1439 0.950 . S
C1462 C1463 1.349 . S
C1462 C1464 1.327 . S
C1462 H1487 0.950 . S
C1463 C1462 1.349 . S
C1463 C1479 1.349 . S
C1464 C1462 1.327 . S
C1464 C1483 1.429 . S
C1464 H1488 0.950 . S
C1465 C1482 1.574 . S
C1465 C1484 1.368 . S
C1465 H1489 0.949 . S
H1466 C1470 0.949 . S
C1467 C1468 1.349 . S
C1467 C1469 1.327 . S
C1467 H1490 0.950 . S
C1468 C1467 1.349 . S
C1468 C1480 1.349 . S
C1469 C1467 1.327 . S
C1469 C1485 1.429 . S
C1469 H1491 0.950 . S
C1470 H1466 0.949 . S
C1470 C1478 1.574 . S
C1470 C1486 1.368 . S
H1471 C1479 0.950 . S
H1472 C1477 0.950 . S
H1473 C1478 0.949 . S
H1474 C1480 0.950 . S
H1475 C1481 0.950 . S
H1476 C1482 0.949 . S
C1477 H1472 0.950 . S
C1477 C1479 1.327 . S
C1477 C1483 1.429 . S
C1478 C1470 1.574 . S
C1478 H1473 0.949 . S
C1478 C1484 1.368 . S
C1479 C1463 1.349 . S
C1479 H1471 0.950 . S
C1479 C1477 1.327 . S
C1480 C1468 1.349 . S
C1480 H1474 0.950 . S
C1480 C1481 1.327 . S
C1481 H1475 0.950 . S
C1481 C1480 1.327 . S
C1481 C1485 1.429 . S
C1482 C1465 1.574 . S
C1482 H1476 0.949 . S
C1482 C1486 1.368 . S
C1483 C1464 1.429 . S
C1483 C1477 1.429 . S
C1483 C1484 1.523 . S
C1484 C1465 1.368 . S
C1484 C1478 1.368 . S
C1484 C1483 1.523 . S
C1485 C1469 1.429 . S
C1485 C1481 1.429 . S
C1485 C1486 1.523 . S
C1486 C1470 1.368 . S
C1486 C1482 1.368 . S
C1486 C1485 1.523 . S
H1487 C1462 0.950 . S
H1488 C1464 0.950 . S
H1489 C1465 0.949 . S
H1490 C1467 0.950 . S
H1491 C1469 0.950 . S
C1492 C1493 1.349 . S
C1492 C1494 1.327 . S
C1492 H1517 0.950 . S
C1493 C1492 1.349 . S
C1493 C1509 1.349 . S
C1494 C1492 1.327 . S
C1494 C1513 1.429 . S
C1494 H1518 0.950 . S
C1495 C1512 1.574 1_556 S
C1495 C1514 1.368 1_565 S
C1495 H1519 0.949 . S
H1496 C1500 0.949 . S
C1497 C1498 1.349 . S
C1497 C1499 1.327 . S
C1497 H1520 0.950 . S
C1498 C1497 1.349 . S
C1498 C1510 1.349 . S
C1499 C1497 1.327 . S
C1499 C1515 1.429 . S
C1499 H1521 0.950 . S
C1500 H1496 0.949 . S
C1500 C1508 1.574 . S
C1500 C1516 1.368 1_545 S
H1501 C1509 0.950 . S
H1502 C1507 0.950 1_565 S
H1503 C1508 0.949 . S
H1504 C1510 0.950 . S
H1505 C1511 0.950 1_545 S
H1506 C1512 0.949 . S
C1507 H1502 0.950 1_545 S
C1507 C1509 1.327 . S
C1507 C1513 1.429 . S
C1508 C1500 1.574 . S
C1508 H1503 0.949 . S
C1508 C1514 1.368 1_654 S
C1509 C1493 1.349 . S
C1509 H1501 0.950 . S
C1509 C1507 1.327 . S
C1510 C1498 1.349 . S
C1510 H1504 0.950 . S
C1510 C1511 1.327 . S
C1511 H1505 0.950 1_565 S
C1511 C1510 1.327 . S
C1511 C1515 1.429 . S
C1512 C1495 1.574 1_554 S
C1512 H1506 0.949 . S
C1512 C1516 1.368 1_455 S
C1513 C1494 1.429 . S
C1513 C1507 1.429 . S
C1513 C1514 1.523 . S
C1514 C1495 1.368 1_545 S
C1514 C1508 1.368 1_456 S
C1514 C1513 1.523 . S
C1515 C1499 1.429 . S
C1515 C1511 1.429 . S
C1515 C1516 1.523 . S
C1516 C1500 1.368 1_565 S
C1516 C1512 1.368 1_655 S
C1516 C1515 1.523 . S
H1517 C1492 0.950 . S
H1518 C1494 0.950 . S
H1519 C1495 0.949 . S
H1520 C1497 0.950 . S
H1521 C1499 0.950 . S
C1522 C1523 1.349 . S
C1522 C1524 1.327 . S
C1522 H1547 0.950 . S
C1523 C1522 1.349 . S
C1523 C1539 1.349 . S
C1524 C1522 1.327 . S
C1524 C1543 1.429 . S
C1524 H1548 0.950 . S
C1525 C1542 1.560 1_545 S
C1525 C1544 1.368 . S
C1525 H1549 0.949 . S
H1526 C1530 0.949 . S
C1527 C1528 1.349 . S
C1527 C1529 1.327 . S
C1527 H1550 0.950 . S
C1528 C1527 1.349 . S
C1528 C1540 1.349 . S
C1529 C1527 1.327 . S
C1529 C1545 1.429 . S
C1529 H1551 0.950 . S
C1530 H1526 0.949 . S
C1530 C1538 1.560 1_565 S
C1530 C1546 1.368 . S
H1531 C1539 0.950 . S
H1532 C1537 0.950 . S
H1533 C1538 0.951 . S
H1534 C1540 0.950 . S
H1535 C1541 0.950 . S
H1536 C1542 0.951 . S
C1537 H1532 0.950 . S
C1537 C1539 1.327 . S
C1537 C1543 1.429 . S
C1538 C1530 1.560 1_545 S
C1538 H1533 0.951 . S
C1538 C1544 1.381 . S
C1539 C1523 1.349 . S
C1539 H1531 0.950 . S
C1539 C1537 1.327 . S
C1540 C1528 1.349 . S
C1540 H1534 0.950 . S
C1540 C1541 1.327 . S
C1541 H1535 0.950 . S
C1541 C1540 1.327 . S
C1541 C1545 1.429 . S
C1542 C1525 1.560 1_565 S
C1542 H1536 0.951 . S
C1542 C1546 1.381 . S
C1543 C1524 1.429 . S
C1543 C1537 1.429 . S
C1543 C1544 1.523 . S
C1544 C1525 1.368 . S
C1544 C1538 1.381 . S
C1544 C1543 1.523 . S
C1545 C1529 1.429 . S
C1545 C1541 1.429 . S
C1545 C1546 1.523 . S
C1546 C1530 1.368 . S
C1546 C1542 1.381 . S
C1546 C1545 1.523 . S
H1547 C1522 0.950 . S
H1548 C1524 0.950 . S
H1549 C1525 0.949 . S
H1550 C1527 0.950 . S
H1551 C1529 0.950 . S
C1552 C1553 1.349 . S
C1552 C1554 1.327 . S
C1552 H1577 0.950 . S
C1553 C1552 1.349 . S
C1553 C1569 1.349 . S
C1554 C1552 1.327 . S
C1554 C1573 1.429 . S
C1554 H1578 0.950 . S
C1555 C1572 1.574 . S
C1555 C1574 1.368 . S
C1555 H1579 0.949 . S
H1556 C1560 0.949 . S
C1557 C1558 1.349 . S
C1557 C1559 1.327 . S
C1557 H1580 0.950 . S
C1558 C1557 1.349 . S
C1558 C1570 1.349 . S
C1559 C1557 1.327 . S
C1559 C1575 1.429 . S
C1559 H1581 0.950 . S
C1560 H1556 0.949 . S
C1560 C1568 1.574 . S
C1560 C1576 1.368 . S
H1561 C1569 0.950 . S
H1562 C1567 0.950 . S
H1563 C1568 0.949 . S
H1564 C1570 0.950 . S
H1565 C1571 0.950 . S
H1566 C1572 0.949 . S
C1567 H1562 0.950 . S
C1567 C1569 1.327 . S
C1567 C1573 1.429 . S
C1568 C1560 1.574 . S
C1568 H1563 0.949 . S
C1568 C1574 1.368 . S
C1569 C1553 1.349 . S
C1569 H1561 0.950 . S
C1569 C1567 1.327 . S
C1570 C1558 1.349 . S
C1570 H1564 0.950 . S
C1570 C1571 1.327 . S
C1571 H1565 0.950 . S
C1571 C1570 1.327 . S
C1571 C1575 1.429 . S
C1572 C1555 1.574 . S
C1572 H1566 0.949 . S
C1572 C1576 1.368 . S
C1573 C1554 1.429 . S
C1573 C1567 1.429 . S
C1573 C1574 1.523 . S
C1574 C1555 1.368 . S
C1574 C1568 1.368 . S
C1574 C1573 1.523 . S
C1575 C1559 1.429 . S
C1575 C1571 1.429 . S
C1575 C1576 1.523 . S
C1576 C1560 1.368 . S
C1576 C1572 1.368 . S
C1576 C1575 1.523 . S
H1577 C1552 0.950 . S
H1578 C1554 0.950 . S
H1579 C1555 0.949 . S
H1580 C1557 0.950 . S
H1581 C1559 0.950 . S
C1582 C1583 1.349 . S
C1582 C1584 1.327 . S
C1582 H1607 0.950 . S
C1583 C1582 1.349 . S
C1583 C1599 1.349 . S
C1584 C1582 1.327 . S
C1584 C1603 1.429 . S
C1584 H1608 0.950 . S
C1585 C1602 1.574 . S
C1585 C1604 1.368 1_554 S
C1585 H1609 0.949 . S
H1586 C1590 0.949 . S
C1587 C1588 1.349 . S
C1587 C1589 1.327 . S
C1587 H1610 0.950 . S
C1588 C1587 1.349 . S
C1588 C1600 1.349 . S
C1589 C1587 1.327 . S
C1589 C1605 1.429 . S
C1589 H1611 0.950 . S
C1590 H1586 0.949 . S
C1590 C1598 1.574 1_554 S
C1590 C1606 1.368 . S
H1591 C1599 0.950 . S
H1592 C1597 0.950 . S
H1593 C1598 0.949 . S
H1594 C1600 0.950 . S
H1595 C1601 0.950 . S
H1596 C1602 0.949 . S
C1597 H1592 0.950 . S
C1597 C1599 1.327 . S
C1597 C1603 1.429 . S
C1598 C1590 1.574 1_556 S
C1598 H1593 0.949 . S
C1598 C1604 1.368 . S
C1599 C1583 1.349 . S
C1599 H1591 0.950 . S
C1599 C1597 1.327 . S
C1600 C1588 1.349 . S
C1600 H1594 0.950 . S
C1600 C1601 1.327 . S
C1601 H1595 0.950 . S
C1601 C1600 1.327 . S
C1601 C1605 1.429 . S
C1602 C1585 1.574 . S
C1602 H1596 0.949 . S
C1602 C1606 1.368 . S
C1603 C1584 1.429 . S
C1603 C1597 1.429 . S
C1603 C1604 1.523 . S
C1604 C1585 1.368 1_556 S
C1604 C1598 1.368 . S
C1604 C1603 1.523 . S
C1605 C1589 1.429 . S
C1605 C1601 1.429 . S
C1605 C1606 1.523 . S
C1606 C1590 1.368 . S
C1606 C1602 1.368 . S
C1606 C1605 1.523 . S
H1607 C1582 0.950 . S
H1608 C1584 0.950 . S
H1609 C1585 0.949 . S
H1610 C1587 0.950 . S
H1611 C1589 0.950 . S
C1612 C1613 1.349 . S
C1612 C1614 1.327 . S
C1612 H1637 0.950 . S
C1613 C1612 1.349 . S
C1613 C1629 1.349 . S
C1614 C1612 1.327 . S
C1614 C1633 1.429 . S
C1614 H1638 0.950 . S
C1615 C1632 1.574 . S
C1615 C1634 1.368 . S
C1615 H1639 0.949 . S
H1616 C1620 0.949 . S
C1617 C1618 1.349 . S
C1617 C1619 1.327 . S
C1617 H1640 0.950 . S
C1618 C1617 1.349 . S
C1618 C1630 1.349 . S
C1619 C1617 1.327 . S
C1619 C1635 1.429 . S
C1619 H1641 0.950 . S
C1620 H1616 0.949 . S
C1620 C1628 1.574 . S
C1620 C1636 1.368 . S
H1621 C1629 0.950 . S
H1622 C1627 0.950 . S
H1623 C1628 0.949 . S
H1624 C1630 0.950 . S
H1625 C1631 0.950 . S
H1626 C1632 0.949 . S
C1627 H1622 0.950 . S
C1627 C1629 1.327 . S
C1627 C1633 1.429 . S
C1628 C1620 1.574 . S
C1628 H1623 0.949 . S
C1628 C1634 1.368 . S
C1629 C1613 1.349 . S
C1629 H1621 0.950 . S
C1629 C1627 1.327 . S
C1630 C1618 1.349 . S
C1630 H1624 0.950 . S
C1630 C1631 1.327 . S
C1631 H1625 0.950 . S
C1631 C1630 1.327 . S
C1631 C1635 1.429 . S
C1632 C1615 1.574 . S
C1632 H1626 0.949 . S
C1632 C1636 1.368 . S
C1633 C1614 1.429 . S
C1633 C1627 1.429 . S
C1633 C1634 1.523 . S
C1634 C1615 1.368 . S
C1634 C1628 1.368 . S
C1634 C1633 1.523 . S
C1635 C1619 1.429 . S
C1635 C1631 1.429 . S
C1635 C1636 1.523 . S
C1636 C1620 1.368 . S
C1636 C1632 1.368 . S
C1636 C1635 1.523 . S
H1637 C1612 0.950 . S
H1638 C1614 0.950 . S
H1639 C1615 0.949 . S
H1640 C1617 0.950 . S
H1641 C1619 0.950 . S
C1642 C1643 1.349 . S
C1642 C1644 1.327 . S
C1642 H1667 0.950 . S
C1643 C1642 1.349 . S
C1643 C1659 1.349 . S
C1644 C1642 1.327 . S
C1644 C1663 1.429 . S
C1644 H1668 0.950 . S
C1645 C1662 1.574 . S
C1645 C1664 1.368 . S
C1645 H1669 0.949 . S
H1646 C1650 0.949 . S
C1647 C1648 1.349 . S
C1647 C1649 1.327 . S
C1647 H1670 0.950 . S
C1648 C1647 1.349 . S
C1648 C1660 1.349 . S
C1649 C1647 1.327 . S
C1649 C1665 1.429 . S
C1649 H1671 0.950 . S
C1650 H1646 0.949 . S
C1650 C1658 1.574 . S
C1650 C1666 1.368 . S
H1651 C1659 0.950 . S
H1652 C1657 0.950 . S
H1653 C1658 0.949 . S
H1654 C1660 0.950 . S
H1655 C1661 0.950 . S
H1656 C1662 0.949 . S
C1657 H1652 0.950 . S
C1657 C1659 1.327 . S
C1657 C1663 1.429 . S
C1658 C1650 1.574 . S
C1658 H1653 0.949 . S
C1658 C1664 1.368 1_655 S
C1659 C1643 1.349 . S
C1659 H1651 0.950 . S
C1659 C1657 1.327 . S
C1660 C1648 1.349 . S
C1660 H1654 0.950 . S
C1660 C1661 1.327 . S
C1661 H1655 0.950 . S
C1661 C1660 1.327 . S
C1661 C1665 1.429 . S
C1662 C1645 1.574 . S
C1662 H1656 0.949 . S
C1662 C1666 1.368 1_455 S
C1663 C1644 1.429 . S
C1663 C1657 1.429 . S
C1663 C1664 1.523 . S
C1664 C1645 1.368 . S
C1664 C1658 1.368 1_455 S
C1664 C1663 1.523 . S
C1665 C1649 1.429 . S
C1665 C1661 1.429 . S
C1665 C1666 1.523 . S
C1666 C1650 1.368 . S
C1666 C1662 1.368 1_655 S
C1666 C1665 1.523 . S
H1667 C1642 0.950 . S
H1668 C1644 0.950 . S
H1669 C1645 0.949 . S
H1670 C1647 0.950 . S
H1671 C1649 0.950 . S
C1672 C1673 1.349 . S
C1672 C1674 1.327 . S
C1672 H1697 0.950 . S
C1673 C1672 1.349 . S
C1673 C1689 1.349 . S
C1674 C1672 1.327 . S
C1674 C1693 1.429 . S
C1674 H1698 0.950 . S
C1675 C1692 1.574 . S
C1675 C1694 1.368 . S
C1675 H1699 0.949 . S
H1676 C1680 0.949 . S
C1677 C1678 1.349 . S
C1677 C1679 1.327 . S
C1677 H1700 0.950 . S
C1678 C1677 1.349 . S
C1678 C1690 1.349 . S
C1679 C1677 1.327 . S
C1679 C1695 1.429 . S
C1679 H1701 0.950 . S
C1680 H1676 0.949 . S
C1680 C1688 1.574 . S
C1680 C1696 1.368 . S
H1681 C1689 0.950 . S
H1682 C1687 0.950 . S
H1683 C1688 0.949 . S
H1684 C1690 0.950 . S
H1685 C1691 0.950 . S
H1686 C1692 0.949 . S
C1687 H1682 0.950 . S
C1687 C1689 1.327 . S
C1687 C1693 1.429 . S
C1688 C1680 1.574 . S
C1688 H1683 0.949 . S
C1688 C1694 1.368 . S
C1689 C1673 1.349 . S
C1689 H1681 0.950 . S
C1689 C1687 1.327 . S
C1690 C1678 1.349 . S
C1690 H1684 0.950 . S
C1690 C1691 1.327 . S
C1691 H1685 0.950 . S
C1691 C1690 1.327 . S
C1691 C1695 1.429 . S
C1692 C1675 1.574 . S
C1692 H1686 0.949 . S
C1692 C1696 1.368 . S
C1693 C1674 1.429 . S
C1693 C1687 1.429 . S
C1693 C1694 1.523 . S
C1694 C1675 1.368 . S
C1694 C1688 1.368 . S
C1694 C1693 1.523 . S
C1695 C1679 1.429 . S
C1695 C1691 1.429 . S
C1695 C1696 1.523 . S
C1696 C1680 1.368 . S
C1696 C1692 1.368 . S
C1696 C1695 1.523 . S
H1697 C1672 0.950 . S
H1698 C1674 0.950 . S
H1699 C1675 0.949 . S
H1700 C1677 0.950 . S
H1701 C1679 0.950 . S
C1702 C1703 1.349 . S
C1702 C1704 1.327 . S
C1702 H1727 0.950 . S
C1703 C1702 1.349 . S
C1703 C1719 1.349 . S
C1704 C1702 1.327 . S
C1704 C1723 1.429 . S
C1704 H1728 0.950 . S
C1705 C1722 1.574 . S
C1705 C1724 1.368 . S
C1705 H1729 0.949 . S
H1706 C1710 0.949 . S
C1707 C1708 1.349 . S
C1707 C1709 1.327 . S
C1707 H1730 0.950 . S
C1708 C1707 1.349 . S
C1708 C1720 1.349 . S
C1709 C1707 1.327 . S
C1709 C1725 1.429 . S
C1709 H1731 0.950 . S
C1710 H1706 0.949 . S
C1710 C1718 1.574 . S
C1710 C1726 1.368 . S
H1711 C1719 0.950 . S
H1712 C1717 0.950 . S
H1713 C1718 0.949 . S
H1714 C1720 0.950 . S
H1715 C1721 0.950 . S
H1716 C1722 0.949 . S
C1717 H1712 0.950 . S
C1717 C1719 1.327 . S
C1717 C1723 1.429 . S
C1718 C1710 1.574 . S
C1718 H1713 0.949 . S
C1718 C1724 1.368 . S
C1719 C1703 1.349 . S
C1719 H1711 0.950 . S
C1719 C1717 1.327 . S
C1720 C1708 1.349 . S
C1720 H1714 0.950 . S
C1720 C1721 1.327 . S
C1721 H1715 0.950 . S
C1721 C1720 1.327 . S
C1721 C1725 1.429 . S
C1722 C1705 1.574 . S
C1722 H1716 0.949 . S
C1722 C1726 1.368 . S
C1723 C1704 1.429 . S
C1723 C1717 1.429 . S
C1723 C1724 1.523 . S
C1724 C1705 1.368 . S
C1724 C1718 1.368 . S
C1724 C1723 1.523 . S
C1725 C1709 1.429 . S
C1725 C1721 1.429 . S
C1725 C1726 1.523 . S
C1726 C1710 1.368 . S
C1726 C1722 1.368 . S
C1726 C1725 1.523 . S
H1727 C1702 0.950 . S
H1728 C1704 0.950 . S
H1729 C1705 0.949 . S
H1730 C1707 0.950 . S
H1731 C1709 0.950 . S
C1732 C1733 1.349 . S
C1732 C1734 1.327 . S
C1732 H1757 0.950 . S
C1733 C1732 1.349 . S
C1733 C1749 1.349 . S
C1734 C1732 1.327 . S
C1734 C1753 1.429 . S
C1734 H1758 0.950 1_655 S
C1735 C1752 1.574 1_565 S
C1735 C1754 1.368 . S
C1735 H1759 0.949 . S
H1736 C1740 0.949 . S
C1737 C1738 1.349 . S
C1737 C1739 1.327 . S
C1737 H1760 0.950 . S
C1738 C1737 1.349 . S
C1738 C1750 1.349 . S
C1739 C1737 1.327 . S
C1739 C1755 1.429 . S
C1739 H1761 0.950 1_455 S
C1740 H1736 0.949 . S
C1740 C1748 1.574 1_545 S
C1740 C1756 1.368 . S
H1741 C1749 0.950 . S
H1742 C1747 0.950 . S
H1743 C1748 0.949 . S
H1744 C1750 0.950 . S
H1745 C1751 0.950 . S
H1746 C1752 0.949 . S
C1747 H1742 0.950 . S
C1747 C1749 1.327 . S
C1747 C1753 1.429 . S
C1748 C1740 1.574 1_565 S
C1748 H1743 0.949 . S
C1748 C1754 1.368 1_455 S
C1749 C1733 1.349 . S
C1749 H1741 0.950 . S
C1749 C1747 1.327 . S
C1750 C1738 1.349 . S
C1750 H1744 0.950 . S
C1750 C1751 1.327 . S
C1751 H1745 0.950 . S
C1751 C1750 1.327 . S
C1751 C1755 1.429 . S
C1752 C1735 1.574 1_545 S
C1752 H1746 0.949 . S
C1752 C1756 1.368 1_655 S
C1753 C1734 1.429 . S
C1753 C1747 1.429 . S
C1753 C1754 1.523 . S
C1754 C1735 1.368 . S
C1754 C1748 1.368 1_655 S
C1754 C1753 1.523 . S
C1755 C1739 1.429 . S
C1755 C1751 1.429 . S
C1755 C1756 1.523 . S
C1756 C1740 1.368 . S
C1756 C1752 1.368 1_455 S
C1756 C1755 1.523 . S
H1757 C1732 0.950 . S
H1758 C1734 0.950 1_455 S
H1759 C1735 0.949 . S
H1760 C1737 0.950 . S
H1761 C1739 0.950 1_655 S
C1762 C1763 1.349 . S
C1762 C1764 1.327 . S
C1762 H1787 0.950 . S
C1763 C1762 1.349 . S
C1763 C1779 1.349 . S
C1764 C1762 1.327 . S
C1764 C1783 1.429 . S
C1764 H1788 0.950 1_545 S
C1765 C1782 1.574 . S
C1765 C1784 1.368 1_554 S
C1765 H1789 0.949 . S
H1766 C1770 0.949 . S
C1767 C1768 1.349 . S
C1767 C1769 1.327 . S
C1767 H1790 0.950 . S
C1768 C1767 1.349 . S
C1768 C1780 1.349 . S
C1769 C1767 1.327 . S
C1769 C1785 1.429 . S
C1769 H1791 0.950 1_565 S
C1770 H1766 0.949 . S
C1770 C1778 1.574 1_554 S
C1770 C1786 1.368 . S
H1771 C1779 0.950 . S
H1772 C1777 0.950 . S
H1773 C1778 0.949 . S
H1774 C1780 0.950 . S
H1775 C1781 0.950 . S
H1776 C1782 0.949 . S
C1777 H1772 0.950 . S
C1777 C1779 1.327 . S
C1777 C1783 1.429 . S
C1778 C1770 1.574 1_556 S
C1778 H1773 0.949 . S
C1778 C1784 1.368 1_565 S
C1779 C1763 1.349 . S
C1779 H1771 0.950 . S
C1779 C1777 1.327 . S
C1780 C1768 1.349 . S
C1780 H1774 0.950 . S
C1780 C1781 1.327 . S
C1781 H1775 0.950 . S
C1781 C1780 1.327 . S
C1781 C1785 1.429 . S
C1782 C1765 1.574 . S
C1782 H1776 0.949 . S
C1782 C1786 1.368 1_545 S
C1783 C1764 1.429 . S
C1783 C1777 1.429 . S
C1783 C1784 1.523 . S
C1784 C1765 1.368 1_556 S
C1784 C1778 1.368 1_545 S
C1784 C1783 1.523 . S
C1785 C1769 1.429 . S
C1785 C1781 1.429 . S
C1785 C1786 1.523 . S
C1786 C1770 1.368 . S
C1786 C1782 1.368 1_565 S
C1786 C1785 1.523 . S
H1787 C1762 0.950 . S
H1788 C1764 0.950 1_565 S
H1789 C1765 0.949 . S
H1790 C1767 0.950 . S
H1791 C1769 0.950 1_545 S
C353 C7 1.477 . S
C358 C203 1.534 . S
C383 C225 1.534 . S
C388 C28 1.477 . S
C413 C251 1.534 . S
C418 C50 1.477 . S
C443 C185 1.534 . S
C448 C73 1.477 . S
C473 C93 1.477 . S
C478 C292 1.534 . S
C503 C115 1.477 . S
C508 C315 1.534 . S
C533 C337 1.534 . S
C538 C141 1.477 . S
C563 C270 1.534 . S
C568 C163 1.477 . S
C593 C27 1.534 . S
C598 C183 1.477 . S
C623 C49 1.534 . S
C628 C204 1.477 1_565 S
C653 C75 1.534 . S
C658 C226 1.477 . S
C683 C249 1.477 1_545 S
C688 C9 1.534 . S
C713 C116 1.534 . S
C718 C269 1.477 . S
C743 C139 1.534 . S
C748 C291 1.477 1_545 S
C773 C161 1.534 . S
C778 C317 1.477 . S
C803 C94 1.534 . S
C808 C339 1.477 1_565 S
C833 C6 1.378 . S
C838 C334 1.434 . S
C863 C29 1.378 . S
C868 C96 1.434 . S
C893 C294 1.434 1_455 S
C898 C51 1.378 . S
C923 C136 1.434 . S
C928 C72 1.378 . S
C953 C97 1.378 . S
C958 C246 1.434 . S
C983 C4 1.434 1_556 S
C988 C119 1.379 . S
C1013 C137 1.378 . S
C1018 C206 1.434 1_655 S
C1043 C159 1.378 . S
C1048 C52 1.434 . S
C1073 C182 1.378 . S
C1078 C158 1.434 1_655 S
C1103 C272 1.434 . S
C1108 C205 1.378 . S
C1133 C227 1.378 . S
C1138 C118 1.434 . S
C1163 C312 1.434 . S
C1168 C248 1.378 . S
C1193 C273 1.378 . S
C1198 C70 1.434 1_455 S
C1223 C180 1.434 . S
C1228 C295 1.378 . S
C1253 C313 1.378 . S
C1258 C30 1.434 . S
C1283 C335 1.379 . S
C1288 C228 1.434 1_556 S
C1313 C8 1.337 . S
C1318 C268 1.337 . S
C1343 C114 1.337 . S
C1348 C26 1.337 . S
C1373 C48 1.338 . S
C1378 C316 1.338 . S
C1403 C162 1.337 . S
C1408 C74 1.337 . S
C1433 C92 1.338 . S
C1438 C184 1.338 . S
C1463 C224 1.337 . S
C1468 C140 1.337 . S
C1493 C202 1.337 . S
C1498 C290 1.337 . S
C1523 C338 1.337 . S
C1528 C250 1.337 . S
C1553 C271 0.979 . S
C1558 C5 0.979 . S
C1583 C117 0.979 . S
C1588 C31 0.979 . S
C1613 C53 0.979 . S
C1618 C314 0.979 . S
C1643 C160 0.979 . S
C1648 C71 0.979 . S
C1673 C95 0.979 . S
C1678 C181 0.979 . S
C1703 C138 0.979 . S
C1708 C229 0.979 . S
C1733 C293 0.979 . S
C1738 C207 0.979 . S
C1763 C336 0.979 . S
C1768 C247 0.979 . S
