# Generated by pormake.
# Topology whh, (6)-cn, num edge types: 1
# Building blocks:
#     Node 0, Type 0, BuildingBlock: OJICUG_clean_sbu_0, # of connection points: 6
#     Node 1, Type 0, BuildingBlock: OJICUG_clean_sbu_0, # of connection points: 6
#     Node 2, Type 0, BuildingBlock: OJICUG_clean_sbu_0, # of connection points: 6
#     Node 3, Type 0, BuildingBlock: OJICUG_clean_sbu_0, # of connection points: 6
#     Node 4, Type 0, BuildingBlock: OJICUG_clean_sbu_0, # of connection points: 6
#     Node 5, Type 0, BuildingBlock: OJICUG_clean_sbu_0, # of connection points: 6
#     Node 6, Type 0, BuildingBlock: OJICUG_clean_sbu_0, # of connection points: 6
#     Node 7, Type 0, BuildingBlock: OJICUG_clean_sbu_0, # of connection points: 6
#     Node 8, Type 0, BuildingBlock: OJICUG_clean_sbu_0, # of connection points: 6
#     Node 9, Type 0, BuildingBlock: OJICUG_clean_sbu_0, # of connection points: 6
#     Node 10, Type 0, BuildingBlock: OJICUG_clean_sbu_0, # of connection points: 6
#     Node 11, Type 0, BuildingBlock: OJICUG_clean_sbu_0, # of connection points: 6
#     Node 12, Type 0, BuildingBlock: OJICUG_clean_sbu_0, # of connection points: 6
#     Node 13, Type 0, BuildingBlock: OJICUG_clean_sbu_0, # of connection points: 6
#     Node 14, Type 0, BuildingBlock: OJICUG_clean_sbu_0, # of connection points: 6
#     Node 15, Type 0, BuildingBlock: OJICUG_clean_sbu_0, # of connection points: 6
#     Edge 16, Type (0, 0), BuildingBlock: UVAHIK_clean_linker_0, # of connection points: 2
#     Edge 17, Type (0, 0), BuildingBlock: UVAHIK_clean_linker_0, # of connection points: 2
#     Edge 18, Type (0, 0), BuildingBlock: UVAHIK_clean_linker_0, # of connection points: 2
#     Edge 19, Type (0, 0), BuildingBlock: UVAHIK_clean_linker_0, # of connection points: 2
#     Edge 20, Type (0, 0), BuildingBlock: UVAHIK_clean_linker_0, # of connection points: 2
#     Edge 21, Type (0, 0), BuildingBlock: UVAHIK_clean_linker_0, # of connection points: 2
#     Edge 22, Type (0, 0), BuildingBlock: UVAHIK_clean_linker_0, # of connection points: 2
#     Edge 23, Type (0, 0), BuildingBlock: UVAHIK_clean_linker_0, # of connection points: 2
#     Edge 24, Type (0, 0), BuildingBlock: UVAHIK_clean_linker_0, # of connection points: 2
#     Edge 25, Type (0, 0), BuildingBlock: UVAHIK_clean_linker_0, # of connection points: 2
#     Edge 26, Type (0, 0), BuildingBlock: UVAHIK_clean_linker_0, # of connection points: 2
#     Edge 27, Type (0, 0), BuildingBlock: UVAHIK_clean_linker_0, # of connection points: 2
#     Edge 28, Type (0, 0), BuildingBlock: UVAHIK_clean_linker_0, # of connection points: 2
#     Edge 29, Type (0, 0), BuildingBlock: UVAHIK_clean_linker_0, # of connection points: 2
#     Edge 30, Type (0, 0), BuildingBlock: UVAHIK_clean_linker_0, # of connection points: 2
#     Edge 31, Type (0, 0), BuildingBlock: UVAHIK_clean_linker_0, # of connection points: 2
#     Edge 32, Type (0, 0), BuildingBlock: UVAHIK_clean_linker_0, # of connection points: 2
#     Edge 33, Type (0, 0), BuildingBlock: UVAHIK_clean_linker_0, # of connection points: 2
#     Edge 34, Type (0, 0), BuildingBlock: UVAHIK_clean_linker_0, # of connection points: 2
#     Edge 35, Type (0, 0), BuildingBlock: UVAHIK_clean_linker_0, # of connection points: 2
#     Edge 36, Type (0, 0), BuildingBlock: UVAHIK_clean_linker_0, # of connection points: 2
#     Edge 37, Type (0, 0), BuildingBlock: UVAHIK_clean_linker_0, # of connection points: 2
#     Edge 38, Type (0, 0), BuildingBlock: UVAHIK_clean_linker_0, # of connection points: 2
#     Edge 39, Type (0, 0), BuildingBlock: UVAHIK_clean_linker_0, # of connection points: 2
#     Edge 40, Type (0, 0), BuildingBlock: UVAHIK_clean_linker_0, # of connection points: 2
#     Edge 41, Type (0, 0), BuildingBlock: UVAHIK_clean_linker_0, # of connection points: 2
#     Edge 42, Type (0, 0), BuildingBlock: UVAHIK_clean_linker_0, # of connection points: 2
#     Edge 43, Type (0, 0), BuildingBlock: UVAHIK_clean_linker_0, # of connection points: 2
#     Edge 44, Type (0, 0), BuildingBlock: UVAHIK_clean_linker_0, # of connection points: 2
#     Edge 45, Type (0, 0), BuildingBlock: UVAHIK_clean_linker_0, # of connection points: 2
#     Edge 46, Type (0, 0), BuildingBlock: UVAHIK_clean_linker_0, # of connection points: 2
#     Edge 47, Type (0, 0), BuildingBlock: UVAHIK_clean_linker_0, # of connection points: 2
#     Edge 48, Type (0, 0), BuildingBlock: UVAHIK_clean_linker_0, # of connection points: 2
#     Edge 49, Type (0, 0), BuildingBlock: UVAHIK_clean_linker_0, # of connection points: 2
#     Edge 50, Type (0, 0), BuildingBlock: UVAHIK_clean_linker_0, # of connection points: 2
#     Edge 51, Type (0, 0), BuildingBlock: UVAHIK_clean_linker_0, # of connection points: 2
#     Edge 52, Type (0, 0), BuildingBlock: UVAHIK_clean_linker_0, # of connection points: 2
#     Edge 53, Type (0, 0), BuildingBlock: UVAHIK_clean_linker_0, # of connection points: 2
#     Edge 54, Type (0, 0), BuildingBlock: UVAHIK_clean_linker_0, # of connection points: 2
#     Edge 55, Type (0, 0), BuildingBlock: UVAHIK_clean_linker_0, # of connection points: 2
#     Edge 56, Type (0, 0), BuildingBlock: UVAHIK_clean_linker_0, # of connection points: 2
#     Edge 57, Type (0, 0), BuildingBlock: UVAHIK_clean_linker_0, # of connection points: 2
#     Edge 58, Type (0, 0), BuildingBlock: UVAHIK_clean_linker_0, # of connection points: 2
#     Edge 59, Type (0, 0), BuildingBlock: UVAHIK_clean_linker_0, # of connection points: 2
#     Edge 60, Type (0, 0), BuildingBlock: UVAHIK_clean_linker_0, # of connection points: 2
#     Edge 61, Type (0, 0), BuildingBlock: UVAHIK_clean_linker_0, # of connection points: 2
#     Edge 62, Type (0, 0), BuildingBlock: UVAHIK_clean_linker_0, # of connection points: 2
#     Edge 63, Type (0, 0), BuildingBlock: UVAHIK_clean_linker_0, # of connection points: 2
# Relax obj value: 0.385
# Max RMSD: 0.252
# Mean RMSD: 0.252
data_MOF--net-whh--node1-OJICUG_clean_sbu_0--edge1-UVAHIK_clean_linker_0
_symmetry_space_group_name_H-M    P1
_symmetry_Int_Tables_number       1
_symmetry_cell_setting            triclinic
loop_
_symmetry_equiv_pos_as_xyz
'x, y, z'
_cell_length_a     45.445048
_cell_length_b     45.43583
_cell_length_c     56.198656
_cell_angle_alpha  89.979634
_cell_angle_beta   89.956261
_cell_angle_gamma 89.987499
loop_
_atom_site_label
_atom_site_type_symbol
_atom_site_fract_x
_atom_site_fract_y
_atom_site_fract_z
_atom_type_partial_charge
Sc0 Sc 0.05234 0.66036 0.07248 0.0
Sc1 Sc 0.09555 0.62548 0.11614 0.0
Sc2 Sc 0.02923 0.65999 0.13207 0.0
O3 O 0.05905 0.64866 0.10696 0.0
C4 C 0.02455 0.71631 0.09916 0.0
C5 C 0.11987 0.67384 0.07905 0.0
C6 C 0.09069 0.67108 0.15833 0.0
C7 C 0.08214 0.59681 0.06685 0.0
C8 C 0.98942 0.63729 0.08852 0.0
C9 C 0.04726 0.59599 0.15012 0.0
O10 O 0.03271 0.70252 0.08064 0.0
O11 O 0.12299 0.6526 0.09366 0.0
O12 O 0.06292 0.67449 0.1566 0.0
O13 O 0.07074 0.62025 0.05868 0.0
O14 O 0.99324 0.64579 0.10992 0.0
O15 O 0.07265 0.59614 0.14052 0.0
O16 O 0.00934 0.63941 0.07257 0.0
O17 O 0.0893 0.5938 0.08851 0.0
O18 O 0.02899 0.61688 0.14762 0.0
O19 O 0.09495 0.68145 0.07062 0.0
O20 O 0.02477 0.7046 0.11968 0.0
O21 O 0.1056 0.65493 0.14444 0.0
Sc22 Sc 0.8386 0.04721 0.07224 0.0
Sc23 Sc 0.8785 0.09084 0.11242 0.0
Sc24 Sc 0.84086 0.02794 0.13231 0.0
O25 O 0.85257 0.05544 0.10577 0.0
C26 C 0.7828 0.02462 0.10214 0.0
C27 C 0.82937 0.11545 0.07598 0.0
C28 C 0.83557 0.09151 0.15654 0.0
C29 C 0.90277 0.07353 0.06266 0.0
C30 C 0.85913 0.9844 0.0899 0.0
C31 C 0.9069 0.04235 0.14684 0.0
O32 O 0.79647 0.02942 0.0828 0.0
O33 O 0.85209 0.11825 0.08914 0.0
O34 O 0.83111 0.06383 0.15618 0.0
O35 O 0.87791 0.06389 0.056 0.0
O36 O 0.85042 0.98966 0.11104 0.0
O37 O 0.90748 0.06765 0.13705 0.0
O38 O 0.85847 0.00371 0.07338 0.0
O39 O 0.90845 0.0802 0.08409 0.0
O40 O 0.88498 0.02517 0.14536 0.0
O41 O 0.81909 0.09046 0.06981 0.0
O42 O 0.79518 0.02679 0.1223 0.0
O43 O 0.85093 0.10498 0.14114 0.0
Sc44 Sc 0.45287 0.84086 0.0731 0.0
Sc45 Sc 0.41117 0.87878 0.11452 0.0
Sc46 Sc 0.4678 0.83244 0.13335 0.0
O47 O 0.44371 0.84988 0.1074 0.0
C48 C 0.47367 0.78048 0.09672 0.0
C49 C 0.38566 0.837 0.07339 0.0
C50 C 0.40008 0.82646 0.15007 0.0
C51 C 0.44221 0.90649 0.07219 0.0
C52 C 0.51408 0.85846 0.0954 0.0
C53 C 0.4553 0.89513 0.15648 0.0
O54 O 0.47092 0.79739 0.07888 0.0
O55 O 0.38531 0.86139 0.08482 0.0
O56 O 0.42745 0.81973 0.15151 0.0
O57 O 0.43557 0.88263 0.06198 0.0
O58 O 0.50798 0.84588 0.11524 0.0
O59 O 0.4315 0.89938 0.14519 0.0
O60 O 0.49597 0.85993 0.07802 0.0
O61 O 0.43438 0.91079 0.09351 0.0
O62 O 0.47138 0.87279 0.15295 0.0
O63 O 0.40942 0.82283 0.06941 0.0
O64 O 0.46893 0.78928 0.11778 0.0
O65 O 0.39007 0.84709 0.13697 0.0
Sc66 Sc 0.66092 0.45067 0.0684 0.0
Sc67 Sc 0.62675 0.40799 0.11296 0.0
Sc68 Sc 0.66939 0.46931 0.12837 0.0
O69 O 0.6523 0.44272 0.10325 0.0
C70 C 0.72069 0.47591 0.09035 0.0
C71 C 0.67027 0.38225 0.07235 0.0
C72 C 0.68063 0.40547 0.14926 0.0
C73 C 0.59568 0.42396 0.06554 0.0
C74 C 0.64075 0.51269 0.08965 0.0
C75 C 0.60696 0.45408 0.15227 0.0
O76 O 0.70491 0.46808 0.07288 0.0
O77 O 0.65005 0.37997 0.08806 0.0
O78 O 0.6882 0.4323 0.14673 0.0
O79 O 0.61916 0.43424 0.05663 0.0
O80 O 0.65091 0.50692 0.11035 0.0
O81 O 0.60089 0.43211 0.13914 0.0
O82 O 0.6421 0.49457 0.07221 0.0
O83 O 0.59308 0.41741 0.08735 0.0
O84 O 0.63088 0.46819 0.15026 0.0
O85 O 0.67921 0.40699 0.06429 0.0
O86 O 0.71109 0.47566 0.11146 0.0
O87 O 0.65808 0.39432 0.13939 0.0
Sc88 Sc 0.02664 0.84251 0.36359 0.0
Sc89 Sc 0.08861 0.88108 0.38221 0.0
Sc90 Sc 0.04494 0.84459 0.42343 0.0
O91 O 0.05363 0.85521 0.38936 0.0
C92 C 0.98397 0.86719 0.4046 0.0
C93 C 0.04316 0.9051 0.34357 0.0
C94 C 0.0609 0.90901 0.4259 0.0
C95 C 0.09232 0.83329 0.34283 0.0
C96 C 0.01964 0.7878 0.39691 0.0
C97 C 0.11169 0.83501 0.42117 0.0
O98 O 0.98825 0.85518 0.38429 0.0
O99 O 0.06889 0.90483 0.35246 0.0
O100 O 0.06593 0.88429 0.43541 0.0
O101 O 0.06427 0.83078 0.34155 0.0
O102 O 0.02344 0.80312 0.41559 0.0
O103 O 0.11395 0.85986 0.41055 0.0
O104 O 0.02481 0.7979 0.37625 0.0
O105 O 0.10563 0.84882 0.35831 0.0
O106 O 0.08687 0.82288 0.42522 0.0
O107 O 0.02429 0.88542 0.3482 0.0
O108 O 0.00322 0.86713 0.42115 0.0
O109 O 0.06943 0.91388 0.40482 0.0
Sc110 Sc 0.65569 0.05498 0.42503 0.0
Sc111 Sc 0.62124 0.09551 0.37967 0.0
Sc112 Sc 0.66076 0.0312 0.36611 0.0
O113 O 0.6459 0.06057 0.39017 0.0
C114 C 0.71444 0.02888 0.40158 0.0
C115 C 0.66613 0.1226 0.41852 0.0
C116 C 0.67185 0.09332 0.34089 0.0
C117 C 0.59099 0.08268 0.42803 0.0
C118 C 0.63521 0.99155 0.40848 0.0
C119 C 0.59733 0.04556 0.34464 0.0
O120 O 0.69879 0.03571 0.41947 0.0
O121 O 0.64494 0.12436 0.40367 0.0
O122 O 0.67647 0.06581 0.34321 0.0
O123 O 0.61491 0.07361 0.43706 0.0
O124 O 0.64622 0.99478 0.38776 0.0
O125 O 0.59514 0.0709 0.35411 0.0
O126 O 0.635 0.01191 0.42417 0.0
O127 O 0.58776 0.08721 0.40591 0.0
O128 O 0.6192 0.02875 0.34811 0.0
O129 O 0.67559 0.09812 0.42665 0.0
O130 O 0.70431 0.02918 0.38059 0.0
O131 O 0.65258 0.1073 0.35275 0.0
Sc132 Sc 0.46072 0.67636 0.35075 0.0
Sc133 Sc 0.40247 0.63047 0.36867 0.0
Sc134 Sc 0.44573 0.66668 0.41122 0.0
O135 O 0.43622 0.65798 0.37675 0.0
C136 C 0.50754 0.65072 0.38817 0.0
C137 C 0.44913 0.6121 0.329 0.0
C138 C 0.42528 0.59985 0.41465 0.0
C139 C 0.39494 0.6826 0.33141 0.0
C140 C 0.46518 0.72804 0.38811 0.0
C141 C 0.37702 0.67274 0.41019 0.0
O142 O 0.50076 0.66222 0.36815 0.0
O143 O 0.42627 0.60655 0.34128 0.0
O144 O 0.43254 0.62425 0.42378 0.0
O145 O 0.42177 0.6908 0.33216 0.0
O146 O 0.46103 0.71095 0.4056 0.0
O147 O 0.37473 0.65183 0.39507 0.0
O148 O 0.46287 0.71937 0.36676 0.0
O149 O 0.38497 0.66087 0.34316 0.0
O150 O 0.40176 0.6831 0.41692 0.0
O151 O 0.4631 0.63617 0.33075 0.0
O152 O 0.48975 0.6496 0.4058 0.0
O153 O 0.41721 0.59731 0.39319 0.0
Sc154 Sc 0.8334 0.47585 0.35206 0.0
Sc155 Sc 0.871 0.41485 0.37555 0.0
Sc156 Sc 0.82864 0.45977 0.41287 0.0
O157 O 0.84418 0.45008 0.38001 0.0
C158 C 0.84987 0.52179 0.39333 0.0
C159 C 0.89968 0.46046 0.33878 0.0
C160 C 0.89343 0.43707 0.42453 0.0
C161 C 0.82898 0.41035 0.3311 0.0
C162 C 0.77397 0.48052 0.38101 0.0
C163 C 0.82152 0.39129 0.41207 0.0
O164 O 0.84309 0.51531 0.37193 0.0
O165 O 0.90015 0.43625 0.35016 0.0
O166 O 0.86788 0.44549 0.43055 0.0
O167 O 0.82403 0.43797 0.32999 0.0
O168 O 0.78662 0.4757 0.40075 0.0
O169 O 0.84495 0.38842 0.39977 0.0
O170 O 0.78739 0.47847 0.36125 0.0
O171 O 0.84434 0.3983 0.34726 0.0
O172 O 0.8101 0.41629 0.41666 0.0
O173 O 0.87773 0.47769 0.33908 0.0
O174 O 0.84732 0.50361 0.41054 0.0
O175 O 0.8998 0.42889 0.40356 0.0
Sc176 Sc 0.97334 0.33186 0.86456 0.0
Sc177 Sc 0.91246 0.37343 0.88212 0.0
Sc178 Sc 0.95076 0.33234 0.9234 0.0
O179 O 0.94522 0.34513 0.8895 0.0
C180 C 0.97556 0.27586 0.89629 0.0
C181 C 0.90921 0.32863 0.84007 0.0
C182 C 0.88433 0.3256 0.91797 0.0
C183 C 0.96234 0.39703 0.84674 0.0
C184 C 0.01375 0.35265 0.90832 0.0
C185 C 0.93532 0.39678 0.92942 0.0
O186 O 0.97124 0.28647 0.87569 0.0
O187 O 0.89594 0.34459 0.85529 0.0
O188 O 0.9083 0.31212 0.92255 0.0
O189 O 0.97924 0.37531 0.85051 0.0
O190 O 0.99288 0.35385 0.92352 0.0
O191 O 0.93056 0.40337 0.90788 0.0
O192 O 0.01085 0.34093 0.88771 0.0
O193 O 0.93645 0.39849 0.85533 0.0
O194 O 0.92964 0.37117 0.93683 0.0
O195 O 0.93697 0.32366 0.84032 0.0
O196 O 0.97204 0.29109 0.91502 0.0
O197 O 0.88365 0.35068 0.90749 0.0
Sc198 Sc 0.15865 0.94448 0.91662 0.0
Sc199 Sc 0.12535 0.90223 0.87311 0.0
Sc200 Sc 0.16784 0.96322 0.85729 0.0
O201 O 0.15135 0.9364 0.88193 0.0
C202 C 0.13892 0.00574 0.89669 0.0
C203 C 0.09403 0.92717 0.91678 0.0
C204 C 0.10591 0.94898 0.83372 0.0
C205 C 0.16842 0.87788 0.9143 0.0
C206 C 0.21836 0.96912 0.89454 0.0
C207 C 0.17762 0.89764 0.83668 0.0
O208 O 0.13639 0.98599 0.91275 0.0
O209 O 0.09124 0.92069 0.89501 0.0
O210 O 0.12704 0.96634 0.83819 0.0
O211 O 0.17994 0.90265 0.91955 0.0
O212 O 0.21081 0.96387 0.87325 0.0
O213 O 0.15831 0.8852 0.8497 0.0
O214 O 0.2006 0.96623 0.91183 0.0
O215 O 0.14517 0.87561 0.90149 0.0
O216 O 0.18229 0.92545 0.83658 0.0
O217 O 0.1184 0.9233 0.92711 0.0
O218 O 0.15331 0.00181 0.87731 0.0
O219 O 0.10347 0.92388 0.84354 0.0
Sc220 Sc 0.52568 0.162 0.86166 0.0
Sc221 Sc 0.58903 0.12213 0.87745 0.0
Sc222 Sc 0.5473 0.15854 0.9212 0.0
O223 O 0.55398 0.1475 0.88669 0.0
C224 C 0.5218 0.21655 0.8962 0.0
C225 C 0.58857 0.17161 0.83756 0.0
C226 C 0.61504 0.16896 0.91531 0.0
C227 C 0.54008 0.09737 0.84207 0.0
C228 C 0.48442 0.13769 0.90368 0.0
C229 C 0.57546 0.09421 0.92655 0.0
O230 O 0.52262 0.20584 0.87542 0.0
O231 O 0.60147 0.15182 0.84962 0.0
O232 O 0.59035 0.17831 0.92308 0.0
O233 O 0.52421 0.12021 0.84406 0.0
O234 O 0.50414 0.13823 0.91989 0.0
O235 O 0.58067 0.09003 0.90465 0.0
O236 O 0.48853 0.14761 0.88267 0.0
O237 O 0.56461 0.09455 0.85275 0.0
O238 O 0.56552 0.11828 0.93466 0.0
O239 O 0.56126 0.17746 0.8396 0.0
O240 O 0.52841 0.20148 0.91443 0.0
O241 O 0.61735 0.14736 0.90087 0.0
Sc242 Sc 0.32489 0.52788 0.86803 0.0
Sc243 Sc 0.37138 0.58639 0.88231 0.0
Sc244 Sc 0.33815 0.54583 0.92696 0.0
O245 O 0.34405 0.55358 0.892 0.0
C246 C 0.27687 0.52216 0.90753 0.0
C247 C 0.31667 0.59409 0.84846 0.0
C248 C 0.3304 0.61256 0.92402 0.0
C249 C 0.38591 0.53962 0.84162 0.0
C250 C 0.35579 0.48445 0.90603 0.0
C251 C 0.40272 0.5595 0.92471 0.0
O252 O 0.28305 0.52778 0.88601 0.0
O253 O 0.33804 0.60504 0.86016 0.0
O254 O 0.31814 0.58832 0.92983 0.0
O255 O 0.36369 0.5239 0.84655 0.0
O256 O 0.35894 0.5037 0.92243 0.0
O257 O 0.40556 0.5659 0.90295 0.0
O258 O 0.34065 0.48898 0.88707 0.0
O259 O 0.39095 0.56399 0.85196 0.0
O260 O 0.37928 0.56642 0.93535 0.0
O261 O 0.31005 0.56664 0.84867 0.0
O262 O 0.29571 0.52473 0.92403 0.0
O263 O 0.35389 0.61368 0.91133 0.0
Sc264 Sc 0.95564 0.16337 0.57376 0.0
Sc265 Sc 0.9102 0.12693 0.61493 0.0
Sc266 Sc 0.97469 0.16233 0.63386 0.0
O267 O 0.94688 0.15083 0.60761 0.0
C268 C 0.01671 0.1387 0.59193 0.0
C269 C 0.92525 0.10043 0.56589 0.0
C270 C 0.95626 0.09794 0.6509 0.0
C271 C 0.88834 0.17637 0.57764 0.0
C272 C 0.98291 0.21847 0.60168 0.0
C273 C 0.91109 0.174 0.65638 0.0
O274 O 0.99779 0.14106 0.57521 0.0
O275 O 0.91936 0.09557 0.58757 0.0
O276 O 0.97398 0.1194 0.64952 0.0
O277 O 0.91384 0.18558 0.57174 0.0
O278 O 0.98005 0.20681 0.62202 0.0
O279 O 0.89754 0.15633 0.64277 0.0
O280 O 0.97663 0.20473 0.58268 0.0
O281 O 0.88425 0.15373 0.59073 0.0
O282 O 0.93888 0.17783 0.65579 0.0
O283 O 0.93589 0.12461 0.55849 0.0
O284 O 0.01191 0.14762 0.61313 0.0
O285 O 0.93159 0.09757 0.6402 0.0
Sc286 Sc 0.34203 0.9472 0.57175 0.0
Sc287 Sc 0.37741 0.90453 0.61402 0.0
Sc288 Sc 0.33086 0.96156 0.63177 0.0
O289 O 0.34931 0.93749 0.60628 0.0
C290 C 0.36098 0.00726 0.59517 0.0
C291 C 0.40689 0.93353 0.57137 0.0
C292 C 0.39236 0.94781 0.65696 0.0
C293 C 0.33493 0.88025 0.57234 0.0
C294 C 0.28148 0.9701 0.59334 0.0
C295 C 0.32332 0.89444 0.64866 0.0
O296 O 0.36269 0.98934 0.57763 0.0
O297 O 0.4105 0.92632 0.59289 0.0
O298 O 0.36925 0.96285 0.65374 0.0
O299 O 0.32243 0.90472 0.56758 0.0
O300 O 0.2889 0.96439 0.61455 0.0
O301 O 0.34525 0.88446 0.63696 0.0
O302 O 0.29929 0.96735 0.57612 0.0
O303 O 0.35856 0.8785 0.58479 0.0
O304 O 0.31577 0.92161 0.64892 0.0
O305 O 0.3829 0.92755 0.56123 0.0
O306 O 0.34716 0.00137 0.61454 0.0
O307 O 0.39855 0.92554 0.64424 0.0
Sc308 Sc 0.54857 0.33072 0.57587 0.0
Sc309 Sc 0.58785 0.37475 0.61516 0.0
Sc310 Sc 0.52873 0.3323 0.63559 0.0
O311 O 0.55527 0.34558 0.60916 0.0
C312 C 0.48512 0.34846 0.59295 0.0
C313 C 0.56588 0.39698 0.56643 0.0
C314 C 0.53782 0.39885 0.65033 0.0
C315 C 0.61631 0.32744 0.57914 0.0
C316 C 0.52905 0.27409 0.60601 0.0
C317 C 0.59336 0.33234 0.65889 0.0
O318 O 0.50475 0.34891 0.57671 0.0
O319 O 0.57098 0.4033 0.58802 0.0
O320 O 0.52177 0.37624 0.64799 0.0
O321 O 0.59254 0.31352 0.57492 0.0
O322 O 0.53157 0.28646 0.62615 0.0
O323 O 0.60563 0.3478 0.64285 0.0
O324 O 0.53229 0.28811 0.58664 0.0
O325 O 0.61687 0.352 0.59024 0.0
O326 O 0.56586 0.3265 0.65931 0.0
O327 O 0.56362 0.37064 0.55918 0.0
O328 O 0.48993 0.33847 0.61384 0.0
O329 O 0.56343 0.40081 0.64123 0.0
Sc330 Sc 0.16937 0.54712 0.5799 0.0
Sc331 Sc 0.13172 0.59095 0.6217 0.0
Sc332 Sc 0.17767 0.53349 0.64085 0.0
O333 O 0.15964 0.5572 0.6142 0.0
C334 C 0.15321 0.48545 0.60405 0.0
C335 C 0.10184 0.56578 0.57598 0.0
C336 C 0.11422 0.54717 0.66346 0.0
C337 C 0.17352 0.61629 0.57985 0.0
C338 C 0.23021 0.52847 0.60357 0.0
C339 C 0.18442 0.59956 0.65858 0.0
O340 O 0.15485 0.50226 0.58584 0.0
O341 O 0.09917 0.57607 0.59682 0.0
O342 O 0.13884 0.53417 0.66241 0.0
O343 O 0.18362 0.59151 0.57303 0.0
O344 O 0.21997 0.52817 0.62451 0.0
O345 O 0.16169 0.60861 0.64757 0.0
O346 O 0.2145 0.53491 0.58572 0.0
O347 O 0.15329 0.61873 0.59552 0.0
O348 O 0.19374 0.57309 0.65754 0.0
O349 O 0.12618 0.55725 0.56745 0.0
O350 O 0.16154 0.49331 0.62483 0.0
O351 O 0.10719 0.5676 0.64907 0.0
C352 C 0.76291 0.48952 0.0631 0.0
C353 C 0.75028 0.48886 0.08601 0.0
C354 C 0.78914 0.50504 0.05892 0.0
C355 C 0.82771 0.56919 0.08045 0.0
H356 H 0.90087 0.53604 0.05711 0.0
C357 C 0.93774 0.62419 0.09942 0.0
C358 C 0.96083 0.62308 0.08277 0.0
C359 C 0.91157 0.60901 0.09548 0.0
C360 C 0.88046 0.54583 0.06316 0.0
H361 H 0.75622 0.50314 0.12261 0.0
H362 H 0.80125 0.53037 0.11514 0.0
H363 H 0.85626 0.50558 0.05815 0.0
H364 H 0.97404 0.60542 0.04853 0.0
H365 H 0.92781 0.57896 0.0415 0.0
H366 H 0.85139 0.60925 0.08564 0.0
C367 C 0.79087 0.51891 0.10047 0.0
C368 C 0.85501 0.52833 0.06382 0.0
C369 C 0.76509 0.50314 0.10472 0.0
C370 C 0.95668 0.60686 0.0617 0.0
C371 C 0.9303 0.59151 0.05775 0.0
C372 C 0.85289 0.5867 0.07952 0.0
C373 C 0.80284 0.52051 0.0775 0.0
C374 C 0.8287 0.53965 0.07323 0.0
C375 C 0.90749 0.59229 0.07472 0.0
C376 C 0.87987 0.57497 0.0717 0.0
H377 H 0.75215 0.47873 0.04829 0.0
H378 H 0.79806 0.50594 0.04106 0.0
H379 H 0.80753 0.57854 0.08742 0.0
H380 H 0.93999 0.6364 0.11587 0.0
H381 H 0.89482 0.60973 0.10919 0.0
C382 C 0.01269 0.76116 0.07455 0.0
C383 C 0.0112 0.74599 0.09639 0.0
C384 C 0.99676 0.78723 0.07108 0.0
C385 C 0.92959 0.82299 0.0916 0.0
H386 H 0.96207 0.89565 0.06671 0.0
C387 C 0.86995 0.93288 0.10274 0.0
C388 C 0.87269 0.95513 0.08547 0.0
C389 C 0.88565 0.90666 0.10074 0.0
C390 C 0.95247 0.87537 0.07322 0.0
H391 H 0.99258 0.74717 0.13197 0.0
H392 H 0.96472 0.79229 0.12578 0.0
H393 H 0.99344 0.85202 0.07016 0.0
H394 H 0.8934 0.96655 0.05194 0.0
H395 H 0.92055 0.92018 0.04816 0.0
H396 H 0.88867 0.84583 0.09453 0.0
C397 C 0.97813 0.78392 0.11134 0.0
C398 C 0.97052 0.85046 0.07532 0.0
C399 C 0.99431 0.75816 0.11492 0.0
C400 C 0.89069 0.94987 0.06554 0.0
C401 C 0.9065 0.92342 0.06351 0.0
C402 C 0.91151 0.84765 0.08923 0.0
C403 C 0.9787 0.7984 0.08926 0.0
C404 C 0.9594 0.82427 0.08511 0.0
C405 C 0.9045 0.90166 0.08131 0.0
C406 C 0.92287 0.87444 0.08063 0.0
H407 H 0.02553 0.75248 0.0599 0.0
H408 H 0.99762 0.79799 0.05389 0.0
H409 H 0.92026 0.80287 0.0987 0.0
H410 H 0.8563 0.93602 0.11835 0.0
H411 H 0.88382 0.89076 0.11502 0.0
C412 C 0.56109 0.8767 0.11346 0.0
C413 C 0.54236 0.87474 0.09359 0.0
C414 C 0.58572 0.89502 0.11306 0.0
C415 C 0.63807 0.93283 0.07404 0.0
H416 H 0.65096 0.98216 0.12938 0.0
C417 C 0.73696 0.01248 0.07911 0.0
C418 C 0.75212 0.01342 0.10093 0.0
C419 C 0.70951 0.99869 0.07741 0.0
C420 C 0.64789 0.96836 0.11388 0.0
H421 H 0.53564 0.89005 0.05738 0.0
H422 H 0.57905 0.92181 0.05667 0.0
H423 H 0.60754 0.95081 0.1275 0.0
H424 H 0.74964 0.00136 0.13824 0.0
H425 H 0.70227 0.97694 0.1352 0.0
H426 H 0.67885 0.94961 0.06069 0.0
C427 C 0.57445 0.90909 0.07255 0.0
C428 C 0.62295 0.95044 0.11279 0.0
C429 C 0.5496 0.89085 0.07298 0.0
C430 C 0.73861 0.00121 0.12117 0.0
C431 C 0.71128 0.98725 0.11942 0.0
C432 C 0.6632 0.95058 0.07521 0.0
C433 C 0.59245 0.91176 0.09276 0.0
C434 C 0.61799 0.93215 0.09303 0.0
C435 C 0.69658 0.98535 0.09744 0.0
C436 C 0.66866 0.96828 0.09531 0.0
H437 H 0.55632 0.86471 0.12967 0.0
H438 H 0.59947 0.89624 0.12877 0.0
H439 H 0.63489 0.91886 0.05864 0.0
H440 H 0.74658 0.02184 0.06317 0.0
H441 H 0.6986 0.99819 0.06029 0.0
C442 C 0.4961 0.73432 0.113 0.0
C443 C 0.48615 0.75054 0.09325 0.0
C444 C 0.51203 0.70835 0.10986 0.0
C445 C 0.52958 0.64762 0.07006 0.0
H446 H 0.60401 0.64724 0.10377 0.0
C447 C 0.61191 0.54924 0.0649 0.0
C448 C 0.62519 0.54127 0.08659 0.0
C449 C 0.59566 0.57544 0.06303 0.0
C450 C 0.5832 0.64676 0.0944 0.0
H451 H 0.48364 0.75096 0.05467 0.0
H452 H 0.51109 0.70497 0.0493 0.0
H453 H 0.57222 0.69019 0.10613 0.0
H454 H 0.63174 0.55497 0.12327 0.0
H455 H 0.60334 0.59963 0.12014 0.0
H456 H 0.54009 0.60364 0.05906 0.0
C457 C 0.50672 0.71279 0.06717 0.0
C458 C 0.56504 0.67145 0.09572 0.0
C459 C 0.49106 0.73911 0.07028 0.0
C460 C 0.62211 0.5603 0.10618 0.0
C461 C 0.60587 0.5862 0.10435 0.0
C462 C 0.54765 0.6226 0.06899 0.0
C463 C 0.51809 0.69769 0.08694 0.0
C464 C 0.53783 0.67196 0.08394 0.0
C465 C 0.59237 0.59419 0.08281 0.0
C466 C 0.57444 0.62166 0.08158 0.0
H467 H 0.49273 0.7423 0.13096 0.0
H468 H 0.52023 0.69688 0.12541 0.0
H469 H 0.5087 0.64752 0.06077 0.0
H470 H 0.61374 0.53511 0.04945 0.0
H471 H 0.58575 0.58101 0.0461 0.0
C472 C 0.94788 0.89465 0.4306 0.0
C473 C 0.95646 0.88432 0.40801 0.0
C474 C 0.92318 0.91293 0.43306 0.0
C475 C 0.87904 0.96593 0.3991 0.0
H476 H 0.81557 0.9485 0.44301 0.0
C477 C 0.76284 0.01143 0.38549 0.0
C478 C 0.74505 0.01823 0.40522 0.0
C479 C 0.79054 0.99875 0.38855 0.0
C480 C 0.83333 0.95408 0.43098 0.0
H481 H 0.94563 0.88522 0.37036 0.0
H482 H 0.90316 0.91717 0.37471 0.0
H483 H 0.86042 0.9187 0.44375 0.0
H484 H 0.74313 0.01783 0.44381 0.0
H485 H 0.79183 0.99592 0.44915 0.0
H486 H 0.85218 0.00104 0.38611 0.0
C487 C 0.91542 0.9111 0.39049 0.0
C488 C 0.85897 0.93693 0.43138 0.0
C489 C 0.93964 0.89249 0.38806 0.0
C490 C 0.75618 0.01286 0.42819 0.0
C491 C 0.78402 1.0001 0.43126 0.0
C492 C 0.85362 0.98317 0.39882 0.0
C493 C 0.90709 0.92178 0.41294 0.0
C494 C 0.88167 0.94215 0.41493 0.0
C495 C 0.80139 0.99255 0.41144 0.0
C496 C 0.83003 0.97692 0.41423 0.0
H497 H 0.96041 0.88891 0.44631 0.0
H498 H 0.91706 0.92073 0.45057 0.0
H499 H 0.89648 0.97083 0.38655 0.0
H500 H 0.7551 0.01522 0.36752 0.0
H501 H 0.80302 0.99285 0.37283 0.0
C502 C 0.59277 0.96354 0.42581 0.0
C503 C 0.61938 0.9637 0.41306 0.0
C504 C 0.57465 0.93857 0.42559 0.0
C505 C 0.56107 0.87295 0.38792 0.0
H506 H 0.51064 0.8483 0.43985 0.0
C507 C 0.47831 0.77906 0.3744 0.0
C508 C 0.47622 0.75824 0.39283 0.0
C509 C 0.49251 0.80598 0.37815 0.0
C510 C 0.5247 0.85478 0.42519 0.0
H511 H 0.64907 0.93724 0.39179 0.0
H512 H 0.61836 0.89342 0.39234 0.0
H513 H 0.54416 0.88967 0.44545 0.0
H514 H 0.48628 0.75011 0.43002 0.0
H515 H 0.51164 0.79646 0.43632 0.0
H516 H 0.54276 0.83751 0.36795 0.0
C517 C 0.61072 0.91282 0.40168 0.0
C518 C 0.54374 0.87872 0.42835 0.0
C519 C 0.62852 0.93783 0.40159 0.0
C520 C 0.48741 0.76561 0.41539 0.0
C521 C 0.5019 0.79236 0.41907 0.0
C522 C 0.5423 0.84896 0.38484 0.0
C523 C 0.583 0.91321 0.41284 0.0
C524 C 0.56239 0.88794 0.4098 0.0
C525 C 0.50531 0.81261 0.40034 0.0
C526 C 0.52392 0.8394 0.40344 0.0
H527 H 0.58504 0.9833 0.43461 0.0
H528 H 0.55345 0.93974 0.43435 0.0
H529 H 0.57454 0.87976 0.37301 0.0
H530 H 0.46967 0.77426 0.35687 0.0
H531 H 0.494 0.82133 0.36346 0.0
C532 C 0.5552 0.6343 0.37003 0.0
C533 C 0.53626 0.63518 0.38986 0.0
C534 C 0.58011 0.61633 0.37005 0.0
C535 C 0.63192 0.576 0.40825 0.0
H536 H 0.64473 0.5292 0.35144 0.0
C537 C 0.72715 0.49238 0.40273 0.0
C538 C 0.74341 0.4921 0.38141 0.0
C539 C 0.70022 0.50718 0.40411 0.0
C540 C 0.64167 0.54228 0.36736 0.0
H541 H 0.52964 0.6186 0.4257 0.0
H542 H 0.57349 0.58743 0.42576 0.0
H543 H 0.60223 0.56178 0.35377 0.0
H544 H 0.74332 0.5062 0.34452 0.0
H545 H 0.69671 0.5323 0.34699 0.0
H546 H 0.67169 0.55707 0.42166 0.0
C547 C 0.56883 0.60068 0.41019 0.0
C548 C 0.61729 0.56096 0.36869 0.0
C549 C 0.54372 0.61859 0.41014 0.0
C550 C 0.73138 0.50581 0.3612 0.0
C551 C 0.70453 0.52078 0.36262 0.0
C552 C 0.65645 0.55746 0.40686 0.0
C553 C 0.5869 0.59886 0.38991 0.0
C554 C 0.6123 0.57826 0.38904 0.0
C555 C 0.68891 0.52222 0.38424 0.0
C556 C 0.6618 0.54054 0.38629 0.0
H557 H 0.55036 0.6468 0.35409 0.0
H558 H 0.59393 0.61585 0.35433 0.0
H559 H 0.62877 0.5892 0.42409 0.0
H560 H 0.7356 0.48185 0.41861 0.0
H561 H 0.6885 0.50724 0.42089 0.0
C562 C 0.00044 0.74545 0.42141 0.0
C563 C 0.00559 0.75837 0.399 0.0
C564 C 0.9837 0.71965 0.42338 0.0
C565 C 0.92418 0.68156 0.39286 0.0
H566 H 0.94733 0.61178 0.42789 0.0
C567 C 0.86655 0.57105 0.37865 0.0
C568 C 0.86359 0.55102 0.39759 0.0
C569 C 0.88229 0.59714 0.38147 0.0
C570 C 0.94024 0.63129 0.41841 0.0
H571 H 0.99813 0.75339 0.36104 0.0
H572 H 0.96886 0.70879 0.3646 0.0
H573 H 0.97946 0.65505 0.42774 0.0
H574 H 0.87423 0.54346 0.43473 0.0
H575 H 0.90126 0.58959 0.43981 0.0
H576 H 0.88497 0.65835 0.38365 0.0
C577 C 0.97764 0.71873 0.38061 0.0
C578 C 0.95875 0.65597 0.41824 0.0
C579 C 0.99462 0.7442 0.3786 0.0
C580 C 0.87601 0.55836 0.41975 0.0
C581 C 0.89175 0.58468 0.42261 0.0
C582 C 0.90558 0.65714 0.39326 0.0
C583 C 0.97148 0.70653 0.40303 0.0
C584 C 0.95118 0.68106 0.40497 0.0
C585 C 0.89539 0.60424 0.40338 0.0
C586 C 0.91366 0.63137 0.40552 0.0
H587 H 0.0086 0.7557 0.4375 0.0
H588 H 0.97929 0.71065 0.44088 0.0
H589 H 0.91751 0.70086 0.38291 0.0
H590 H 0.85744 0.56624 0.36127 0.0
H591 H 0.88499 0.61129 0.36611 0.0
C592 C 0.06708 0.36276 0.90003 0.0
C593 C 0.04183 0.36771 0.91395 0.0
C594 C 0.09251 0.37949 0.90359 0.0
C595 C 0.11559 0.45208 0.92218 0.0
H596 H 0.19386 0.41818 0.92489 0.0
C597 C 0.22399 0.51244 0.89734 0.0
C598 C 0.24778 0.50915 0.9131 0.0
C599 C 0.19772 0.49708 0.90113 0.0
C600 C 0.17211 0.42792 0.92435 0.0
H601 H 0.02391 0.3936 0.94299 0.0
H602 H 0.06832 0.42296 0.94896 0.0
H603 H 0.15075 0.38584 0.92494 0.0
H604 H 0.26228 0.4878 0.94561 0.0
H605 H 0.21661 0.46045 0.95181 0.0
H606 H 0.13707 0.49413 0.92055 0.0
C607 C 0.06826 0.40616 0.93531 0.0
C608 C 0.14752 0.40945 0.92425 0.0
C609 C 0.04295 0.38916 0.932 0.0
C610 C 0.24435 0.49095 0.93318 0.0
C611 C 0.2183 0.47516 0.93669 0.0
C612 C 0.14022 0.47054 0.92179 0.0
C613 C 0.0931 0.40177 0.9209 0.0
C614 C 0.11905 0.42134 0.92295 0.0
C615 C 0.19495 0.47772 0.9205 0.0
C616 C 0.1687 0.45859 0.92269 0.0
H617 H 0.067 0.34641 0.88601 0.0
H618 H 0.11136 0.37576 0.89216 0.0
H619 H 0.09385 0.46178 0.92102 0.0
H620 H 0.22593 0.52633 0.88174 0.0
H621 H 0.18005 0.49931 0.88832 0.0
C622 C 0.98694 0.22573 0.87957 0.0
C623 C 0.98804 0.24583 0.89859 0.0
C624 C 0.00138 0.19855 0.88116 0.0
C625 C 0.06557 0.16543 0.90778 0.0
H626 H 0.02951 0.08986 0.89438 0.0
C627 C 0.09779 0.03504 0.91466 0.0
C628 C 0.12273 0.03378 0.89983 0.0
C629 C 0.08066 0.06059 0.9158 0.0
C630 C 0.03978 0.11084 0.89825 0.0
H631 H 0.0047 0.25277 0.93436 0.0
H632 H 0.03036 0.20573 0.93678 0.0
H633 H 0.99942 0.13477 0.89353 0.0
H634 H 0.1498 0.0587 0.87523 0.0
H635 H 0.12042 0.10369 0.87792 0.0
H636 H 0.10608 0.14172 0.91179 0.0
C637 C 0.01812 0.21096 0.92079 0.0
C638 C 0.02265 0.13644 0.89763 0.0
C639 C 0.00327 0.23781 0.91941 0.0
C640 C 0.13073 0.05896 0.8868 0.0
C641 C 0.11397 0.0847 0.88836 0.0
C642 C 0.0828 0.13996 0.9079 0.0
C643 C 0.01763 0.19125 0.90159 0.0
C644 C 0.03541 0.16395 0.90244 0.0
C645 C 0.08855 0.08559 0.90257 0.0
C646 C 0.07006 0.11244 0.90315 0.0
H647 H 0.97538 0.23121 0.86331 0.0
H648 H 0.00078 0.18371 0.86608 0.0
H649 H 0.07595 0.18643 0.91141 0.0
H650 H 0.09097 0.016 0.92484 0.0
H651 H 0.06124 0.06081 0.927 0.0
C652 C 0.27003 0.97988 0.88151 0.0
C653 C 0.248 0.98157 0.89901 0.0
C654 C 0.29675 0.99464 0.8845 0.0
C655 C 0.3431 0.03524 0.92855 0.0
H656 H 0.3724 0.07325 0.87153 0.0
C657 C 0.45438 0.09876 0.9241 0.0
C658 C 0.45606 0.12277 0.90839 0.0
C659 C 0.42881 0.08156 0.92522 0.0
C660 C 0.36438 0.06314 0.88773 0.0
H661 H 0.23729 0.99918 0.93384 0.0
H662 H 0.2835 0.02558 0.93874 0.0
H663 H 0.32933 0.04211 0.86915 0.0
H664 H 0.4316 0.14901 0.88297 0.0
H665 H 0.38683 0.11995 0.8856 0.0
H666 H 0.37774 0.05741 0.94723 0.0
C667 C 0.28043 0.01242 0.92288 0.0
C668 C 0.3399 0.04473 0.88628 0.0
C669 C 0.25382 0.99734 0.92003 0.0
C670 C 0.4311 0.13039 0.89502 0.0
C671 C 0.40551 0.11353 0.89638 0.0
C672 C 0.36758 0.05392 0.93004 0.0
C673 C 0.30197 0.01182 0.9049 0.0
C674 C 0.32886 0.03052 0.90664 0.0
C675 C 0.40435 0.08827 0.91083 0.0
C676 C 0.3784 0.06826 0.90965 0.0
H677 H 0.26641 0.96762 0.86525 0.0
H678 H 0.31311 0.99299 0.87054 0.0
H679 H 0.3354 0.02447 0.94458 0.0
H680 H 0.47335 0.09225 0.93451 0.0
H681 H 0.42877 0.06223 0.93649 0.0
C682 C 0.5004 0.26293 0.87937 0.0
C683 C 0.51049 0.24702 0.89922 0.0
C684 C 0.48692 0.2903 0.88217 0.0
C685 C 0.44709 0.33508 0.92672 0.0
H686 H 0.4536 0.39478 0.87767 0.0
C687 C 0.38737 0.44901 0.92917 0.0
C688 C 0.3727 0.4566 0.90795 0.0
C689 C 0.40584 0.42436 0.93005 0.0
C690 C 0.45154 0.37827 0.89149 0.0
H691 H 0.5153 0.24823 0.93763 0.0
H692 H 0.49228 0.29645 0.94246 0.0
H693 H 0.48492 0.35132 0.87592 0.0
H694 H 0.36582 0.44381 0.87114 0.0
H695 H 0.39801 0.40107 0.87274 0.0
H696 H 0.41368 0.36243 0.94226 0.0
C697 C 0.49428 0.28735 0.92473 0.0
C698 C 0.46941 0.35331 0.89047 0.0
C699 C 0.50769 0.25978 0.92193 0.0
C700 C 0.37654 0.43861 0.88783 0.0
C701 C 0.39524 0.41426 0.88865 0.0
C702 C 0.42942 0.3603 0.92788 0.0
C703 C 0.48332 0.30276 0.9049 0.0
C704 C 0.4669 0.33098 0.90771 0.0
C705 C 0.41034 0.40707 0.90965 0.0
C706 C 0.43096 0.38175 0.90992 0.0
H707 H 0.50206 0.25387 0.86159 0.0
H708 H 0.47837 0.30119 0.86649 0.0
H709 H 0.44432 0.31828 0.9402 0.0
H710 H 0.38506 0.46244 0.94499 0.0
H711 H 0.41727 0.4193 0.94645 0.0
C712 C 0.06572 0.12063 0.60581 0.0
C713 C 0.04516 0.12364 0.58727 0.0
C714 C 0.09167 0.10489 0.60245 0.0
C715 C 0.12538 0.04702 0.56548 0.0
H716 H 0.19542 0.07196 0.59933 0.0
C717 C 0.242 0.98937 0.56592 0.0
C718 C 0.25218 0.98357 0.58913 0.0
C719 C 0.2162 0.00571 0.56232 0.0
C720 C 0.17604 0.0648 0.58972 0.0
H721 H 0.03625 0.11265 0.5504 0.0
H722 H 0.08217 0.08537 0.54441 0.0
H723 H 0.15265 0.10418 0.59811 0.0
H724 H 0.24232 0.98932 0.6267 0.0
H725 H 0.19792 0.01809 0.6203 0.0
H726 H 0.14936 0.00751 0.55713 0.0
C727 C 0.07781 0.09504 0.56167 0.0
C728 C 0.15148 0.08315 0.58909 0.0
C729 C 0.0516 0.11084 0.56506 0.0
C730 C 0.2353 0.99336 0.60857 0.0
C731 C 0.20991 0.00998 0.60496 0.0
C732 C 0.15025 0.02875 0.56585 0.0
C733 C 0.09809 0.0918 0.5804 0.0
C734 C 0.12547 0.0741 0.57768 0.0
C735 C 0.20049 0.01684 0.58186 0.0
C736 C 0.17541 0.03718 0.57861 0.0
H737 H 0.0616 0.12996 0.62323 0.0
H738 H 0.10637 0.10235 0.61747 0.0
H739 H 0.10569 0.03931 0.55662 0.0
H740 H 0.25441 0.98207 0.55056 0.0
H741 H 0.20925 0.01073 0.54434 0.0
C742 C 0.51855 0.22787 0.58306 0.0
C743 C 0.5188 0.24309 0.60486 0.0
C744 C 0.50497 0.20035 0.58115 0.0
C745 C 0.47297 0.13887 0.61689 0.0
H746 H 0.42489 0.12696 0.5607 0.0
C747 C 0.38 0.05339 0.61419 0.0
C748 C 0.37813 0.03508 0.59406 0.0
C749 C 0.39884 0.07765 0.61437 0.0
C750 C 0.43847 0.12981 0.57636 0.0
H751 H 0.50596 0.2406 0.64199 0.0
H752 H 0.48185 0.19305 0.6386 0.0
H753 H 0.45617 0.17043 0.56352 0.0
H754 H 0.39419 0.02867 0.55801 0.0
H755 H 0.42689 0.07136 0.55834 0.0
H756 H 0.45445 0.09868 0.63 0.0
C757 C 0.49254 0.20208 0.623 0.0
C758 C 0.45653 0.15467 0.57798 0.0
C759 C 0.50633 0.22949 0.62495 0.0
C760 C 0.39493 0.0423 0.5738 0.0
C761 C 0.4137 0.06675 0.57397 0.0
C762 C 0.45473 0.11419 0.61536 0.0
C763 C 0.49109 0.18744 0.60095 0.0
C764 C 0.47374 0.15974 0.59841 0.0
C765 C 0.4162 0.08437 0.59442 0.0
C766 C 0.43695 0.10961 0.59523 0.0
H767 H 0.52817 0.23756 0.56725 0.0
H768 H 0.50489 0.18945 0.56402 0.0
H769 H 0.48635 0.14166 0.63267 0.0
H770 H 0.36747 0.04862 0.63013 0.0
H771 H 0.39991 0.09113 0.63025 0.0
C772 C 0.27197 0.51418 0.57651 0.0
C773 C 0.26058 0.51748 0.59966 0.0
C774 C 0.29861 0.49942 0.57275 0.0
C775 C 0.36421 0.46937 0.60452 0.0
H776 H 0.36429 0.41143 0.55378 0.0
C777 C 0.437 0.36767 0.60787 0.0
C778 C 0.45692 0.36416 0.58889 0.0
C779 C 0.41371 0.38748 0.60616 0.0
C780 C 0.36463 0.42775 0.56783 0.0
H781 H 0.26924 0.50923 0.63706 0.0
H782 H 0.31499 0.48324 0.63052 0.0
H783 H 0.32383 0.44682 0.55671 0.0
H784 H 0.46644 0.37725 0.5525 0.0
H785 H 0.42487 0.41144 0.5494 0.0
H786 H 0.4042 0.44921 0.61631 0.0
C787 C 0.3037 0.4923 0.61522 0.0
C788 C 0.34162 0.44815 0.56946 0.0
C789 C 0.27724 0.50712 0.61898 0.0
C790 C 0.45156 0.37938 0.56747 0.0
C791 C 0.42787 0.39901 0.56568 0.0
C792 C 0.38688 0.44877 0.60307 0.0
C793 C 0.31442 0.48763 0.59203 0.0
C794 C 0.34078 0.46875 0.5882 0.0
C795 C 0.40946 0.40394 0.58534 0.0
C796 C 0.38693 0.42739 0.58505 0.0
H797 H 0.25982 0.52203 0.5612 0.0
H798 H 0.30648 0.49669 0.55469 0.0
H799 H 0.36471 0.48535 0.6188 0.0
H800 H 0.44022 0.35629 0.62461 0.0
H801 H 0.39947 0.39062 0.62142 0.0
C802 C 0.12773 0.44682 0.57934 0.0
C803 C 0.13878 0.45625 0.60146 0.0
C804 C 0.11161 0.42064 0.57752 0.0
C805 C 0.09458 0.35141 0.61026 0.0
H806 H 0.02435 0.35062 0.57106 0.0
C807 C 0.0067 0.26209 0.62101 0.0
C808 C 0.99689 0.248 0.60018 0.0
C809 C 0.02341 0.28781 0.61972 0.0
C810 C 0.04404 0.35046 0.58191 0.0
H811 H 0.14185 0.44499 0.63894 0.0
H812 H 0.11361 0.39993 0.63583 0.0
H813 H 0.05614 0.39406 0.57118 0.0
H814 H 0.99576 0.25103 0.56164 0.0
H815 H 0.02477 0.29632 0.55949 0.0
H816 H 0.08213 0.30814 0.6214 0.0
C817 C 0.11774 0.41242 0.61976 0.0
C818 C 0.06235 0.37527 0.58193 0.0
C819 C 0.1339 0.43846 0.62156 0.0
C820 C 0.00298 0.26121 0.57805 0.0
C821 C 0.01958 0.28717 0.57679 0.0
C822 C 0.0762 0.32679 0.61039 0.0
C823 C 0.10611 0.40328 0.59778 0.0
C824 C 0.08767 0.3762 0.59635 0.0
C825 C 0.0306 0.30029 0.59761 0.0
C826 C 0.05054 0.32617 0.59647 0.0
H827 H 0.13102 0.45992 0.56345 0.0
H828 H 0.10335 0.41408 0.56025 0.0
H829 H 0.11422 0.35101 0.62116 0.0
H830 H 0.00233 0.25277 0.6384 0.0
H831 H 0.03111 0.29774 0.6361 0.0
C832 C 0.09228 0.69031 0.19969 0.0
C833 C 0.1065 0.68539 0.17794 0.0
C834 C 0.10763 0.70268 0.21862 0.0
C835 C 0.15934 0.75696 0.2309 0.0
H836 H 0.14727 0.72892 0.29537 0.0
C837 C 0.13668 0.80433 0.33112 0.0
C838 C 0.11022 0.81836 0.32487 0.0
C839 C 0.15257 0.78862 0.31401 0.0
C840 C 0.152 0.7368 0.27757 0.0
H841 H 0.14778 0.68942 0.15872 0.0
H842 H 0.17427 0.71264 0.19179 0.0
H843 H 0.14405 0.69447 0.26219 0.0
H844 H 0.08055 0.82897 0.29599 0.0
H845 H 0.1085 0.80215 0.26604 0.0
H846 H 0.1634 0.79996 0.24608 0.0
C847 C 0.15156 0.70605 0.19423 0.0
C848 C 0.14997 0.71715 0.25862 0.0
C849 C 0.13636 0.69303 0.1754 0.0
C850 C 0.10072 0.81799 0.3012 0.0
C851 C 0.11695 0.80309 0.28406 0.0
C852 C 0.161 0.77669 0.24984 0.0
C853 C 0.13729 0.71079 0.21599 0.0
C854 C 0.15142 0.7276 0.23516 0.0
C855 C 0.14261 0.78776 0.29041 0.0
C856 C 0.15502 0.76702 0.27307 0.0
H857 H 0.0694 0.68434 0.20215 0.0
H858 H 0.09602 0.70682 0.23514 0.0
H859 H 0.16057 0.76542 0.2129 0.0
H860 H 0.14435 0.80449 0.34937 0.0
H861 H 0.17203 0.77648 0.31927 0.0
C862 C 0.68191 0.13712 0.31492 0.0
C863 C 0.69097 0.11003 0.32461 0.0
C864 C 0.70024 0.15241 0.29918 0.0
C865 C 0.77685 0.15527 0.27684 0.0
H866 H 0.74174 0.15678 0.21401 0.0
C867 C 0.82177 0.09585 0.19903 0.0
C868 C 0.82332 0.10859 0.17637 0.0
C869 C 0.80995 0.11157 0.21796 0.0
C870 C 0.75184 0.15767 0.23146 0.0
H871 H 0.72677 0.07852 0.3265 0.0
H872 H 0.7585 0.10497 0.29922 0.0
H873 H 0.71013 0.15694 0.24908 0.0
H874 H 0.81426 0.14778 0.15557 0.0
H875 H 0.79181 0.17494 0.18886 0.0
H876 H 0.8184 0.15233 0.25908 0.0
C877 C 0.7374 0.11456 0.30377 0.0
C878 C 0.73376 0.15775 0.25155 0.0
C879 C 0.71901 0.09912 0.31907 0.0
C880 C 0.81324 0.13757 0.17297 0.0
C881 C 0.80062 0.15311 0.1919 0.0
C882 C 0.79488 0.15502 0.25679 0.0
C883 C 0.7281 0.14114 0.29342 0.0
C884 C 0.74614 0.15406 0.27424 0.0
C885 C 0.79893 0.14013 0.2145 0.0
C886 C 0.78231 0.15385 0.23403 0.0
H887 H 0.6604 0.14609 0.31902 0.0
H888 H 0.69251 0.17269 0.2912 0.0
H889 H 0.78686 0.15297 0.29424 0.0
H890 H 0.82966 0.07366 0.20211 0.0
H891 H 0.80828 0.1009 0.23516 0.0
C892 C 0.35144 0.82169 0.1707 0.0
C893 C 0.37887 0.80955 0.16443 0.0
C894 C 0.33269 0.8067 0.18626 0.0
C895 C 0.32176 0.784 0.23655 0.0
H896 H 0.32473 0.69905 0.24211 0.0
C897 C 0.38145 0.7274 0.30831 0.0
C898 C 0.3744 0.6989 0.31597 0.0
C899 C 0.36346 0.7419 0.29207 0.0
C900 C 0.32255 0.72274 0.2409 0.0
H901 H 0.40697 0.7712 0.16769 0.0
H902 H 0.37458 0.74524 0.19481 0.0
H903 H 0.32551 0.72169 0.20293 0.0
H904 H 0.3419 0.66394 0.31394 0.0
H905 H 0.31086 0.68912 0.28478 0.0
H906 H 0.32171 0.7851 0.2746 0.0
C907 C 0.36736 0.76622 0.18775 0.0
C908 C 0.32318 0.7357 0.21841 0.0
C909 C 0.38622 0.78132 0.17254 0.0
C910 C 0.34803 0.68585 0.30816 0.0
C911 C 0.33016 0.70026 0.29161 0.0
C912 C 0.32104 0.77104 0.25904 0.0
C913 C 0.34087 0.77915 0.19541 0.0
C914 C 0.3257 0.76639 0.21626 0.0
C915 C 0.33815 0.72811 0.28296 0.0
C916 C 0.32435 0.74044 0.26134 0.0
H917 H 0.34509 0.84337 0.16452 0.0
H918 H 0.31247 0.81718 0.19198 0.0
H919 H 0.32328 0.80775 0.23543 0.0
H920 H 0.40137 0.7382 0.31429 0.0
H921 H 0.37056 0.76313 0.28544 0.0
C922 C 0.72839 0.39431 0.16891 0.0
C923 C 0.69933 0.38609 0.16388 0.0
C924 C 0.74581 0.37687 0.18355 0.0
C925 C 0.73669 0.334 0.23563 0.0
H926 H 0.82168 0.33959 0.23222 0.0
C927 C 0.80955 0.36215 0.31646 0.0
C928 C 0.8179 0.39145 0.31193 0.0
C929 C 0.79915 0.34436 0.29798 0.0
C930 C 0.79806 0.3367 0.2334 0.0
H931 H 0.66618 0.35226 0.1691 0.0
H932 H 0.6966 0.32214 0.19554 0.0
H933 H 0.79305 0.33709 0.19559 0.0
H934 H 0.8233 0.42478 0.2847 0.0
H935 H 0.80568 0.39367 0.25244 0.0
H936 H 0.74164 0.33676 0.2734 0.0
C937 C 0.70587 0.34194 0.18784 0.0
C938 C 0.78166 0.33542 0.21249 0.0
C939 C 0.68847 0.35929 0.17288 0.0
C940 C 0.81666 0.4024 0.28866 0.0
C941 C 0.80707 0.38447 0.27021 0.0
C942 C 0.75314 0.33498 0.25656 0.0
C943 C 0.73452 0.35091 0.19368 0.0
C944 C 0.75082 0.33713 0.21351 0.0
C945 C 0.79803 0.35545 0.27473 0.0
C946 C 0.78366 0.33917 0.25539 0.0
H947 H 0.73756 0.41456 0.16193 0.0
H948 H 0.76758 0.38478 0.18809 0.0
H949 H 0.71293 0.33504 0.23698 0.0
H950 H 0.8104 0.35328 0.33435 0.0
H951 H 0.79171 0.32221 0.30181 0.0
C952 C 0.86527 0.18309 0.68005 0.0
C953 C 0.8934 0.19226 0.67258 0.0
C954 C 0.84856 0.20078 0.69528 0.0
C955 C 0.84366 0.2761 0.71951 0.0
H956 H 0.83968 0.23859 0.78139 0.0
C957 C 0.90444 0.31441 0.79774 0.0
C958 C 0.89175 0.31672 0.82037 0.0
C959 C 0.88797 0.30387 0.77876 0.0
C960 C 0.83933 0.24939 0.76419 0.0
H961 H 0.9255 0.2275 0.6742 0.0
H962 H 0.89651 0.25821 0.70066 0.0
H963 H 0.84041 0.20837 0.7456 0.0
H964 H 0.852 0.31012 0.84111 0.0
H965 H 0.82345 0.28983 0.80771 0.0
H966 H 0.84655 0.31689 0.73832 0.0
C967 C 0.88724 0.23752 0.69469 0.0
C968 C 0.83979 0.23209 0.74368 0.0
C969 C 0.90409 0.21971 0.67992 0.0
C970 C 0.86219 0.30847 0.82373 0.0
C971 C 0.84584 0.29714 0.80475 0.0
C972 C 0.84331 0.29334 0.73998 0.0
C973 C 0.85947 0.22813 0.7027 0.0
C974 C 0.84473 0.24531 0.72145 0.0
C975 C 0.85867 0.29496 0.78214 0.0
C976 C 0.84385 0.27984 0.76242 0.0
H977 H 0.85648 0.16202 0.67454 0.0
H978 H 0.82741 0.19297 0.70154 0.0
H979 H 0.84695 0.28671 0.70244 0.0
H980 H 0.92706 0.32093 0.79467 0.0
H981 H 0.8985 0.30169 0.76154 0.0
C982 C 0.27754 0.88064 0.67026 0.0
C983 C 0.30647 0.87378 0.66358 0.0
C984 C 0.263 0.86362 0.68716 0.0
C985 C 0.23473 0.82417 0.72323 0.0
H986 H 0.28441 0.83388 0.77872 0.0
C987 C 0.18473 0.85096 0.8137 0.0
C988 C 0.1951 0.87887 0.8206 0.0
C989 C 0.20008 0.83436 0.79684 0.0
C990 C 0.27035 0.83023 0.76344 0.0
H991 H 0.34201 0.84227 0.66771 0.0
H992 H 0.31673 0.81293 0.69799 0.0
H993 H 0.30671 0.83135 0.73944 0.0
H994 H 0.23067 0.91029 0.81665 0.0
H995 H 0.25735 0.88149 0.78731 0.0
H996 H 0.19819 0.82638 0.7471 0.0
C997 C 0.30531 0.83135 0.68995 0.0
C998 C 0.28311 0.82852 0.74092 0.0
C999 C 0.31976 0.8482 0.67271 0.0
C1000 C 0.22195 0.88906 0.81146 0.0
C1001 C 0.23746 0.87232 0.79492 0.0
C1002 C 0.22197 0.82584 0.74578 0.0
C1003 C 0.27722 0.83959 0.69795 0.0
C1004 C 0.26522 0.82799 0.72054 0.0
C1005 C 0.2263 0.84518 0.78698 0.0
C1006 C 0.23962 0.83131 0.7658 0.0
H1007 H 0.26659 0.89994 0.66321 0.0
H1008 H 0.2415 0.87082 0.69315 0.0
H1009 H 0.22052 0.82322 0.70778 0.0
H1010 H 0.16413 0.84246 0.82055 0.0
H1011 H 0.19099 0.81358 0.79091 0.0
C1012 C 0.59714 0.21854 0.81594 0.0
C1013 C 0.60666 0.1901 0.82177 0.0
C1014 C 0.61446 0.23664 0.80174 0.0
C1015 C 0.66125 0.23267 0.75195 0.0
H1016 H 0.65805 0.3172 0.76101 0.0
C1017 C 0.64055 0.31158 0.67441 0.0
C1018 C 0.61169 0.32157 0.67849 0.0
C1019 C 0.65707 0.29976 0.69312 0.0
C1020 C 0.66025 0.29368 0.75832 0.0
H1021 H 0.64205 0.15838 0.81769 0.0
H1022 H 0.67193 0.18993 0.79174 0.0
H1023 H 0.65621 0.28466 0.79551 0.0
H1024 H 0.57811 0.32904 0.70517 0.0
H1025 H 0.60696 0.30902 0.7378 0.0
H1026 H 0.66184 0.24167 0.71461 0.0
C1027 C 0.65131 0.19823 0.79871 0.0
C1028 C 0.65907 0.27509 0.77801 0.0
C1029 C 0.63412 0.18021 0.81334 0.0
C1030 C 0.60017 0.32114 0.70159 0.0
C1031 C 0.61687 0.31014 0.72028 0.0
C1032 C 0.66252 0.25131 0.73224 0.0
C1033 C 0.64157 0.2266 0.79282 0.0
C1034 C 0.65676 0.24454 0.77473 0.0
C1035 C 0.64519 0.29882 0.71615 0.0
C1036 C 0.65922 0.28178 0.7353 0.0
H1037 H 0.5763 0.22693 0.82241 0.0
H1038 H 0.60604 0.25816 0.79697 0.0
H1039 H 0.65972 0.20916 0.74899 0.0
H1040 H 0.64981 0.31182 0.65664 0.0
H1041 H 0.67867 0.29069 0.68954 0.0
C1042 C 0.1855 0.64605 0.68245 0.0
C1043 C 0.19983 0.62051 0.67426 0.0
C1044 C 0.19834 0.66342 0.70012 0.0
C1045 C 0.21631 0.66736 0.75202 0.0
H1046 H 0.30054 0.67012 0.7624 0.0
C1047 C 0.27242 0.60509 0.82367 0.0
C1048 C 0.29935 0.61422 0.83335 0.0
C1049 C 0.2576 0.62295 0.80749 0.0
C1050 C 0.2769 0.67054 0.75994 0.0
H1051 H 0.24006 0.59497 0.67617 0.0
H1052 H 0.26229 0.62495 0.70698 0.0
H1053 H 0.28135 0.67316 0.7221 0.0
H1054 H 0.33078 0.65024 0.83503 0.0
H1055 H 0.3051 0.68105 0.80615 0.0
H1056 H 0.21205 0.66194 0.78968 0.0
C1057 C 0.24121 0.63172 0.69984 0.0
C1058 C 0.26595 0.67213 0.7368 0.0
C1059 C 0.22828 0.6142 0.68243 0.0
C1060 C 0.31019 0.64241 0.82768 0.0
C1061 C 0.29548 0.66016 0.81126 0.0
C1062 C 0.22727 0.66576 0.77515 0.0
C1063 C 0.22584 0.65573 0.70959 0.0
C1064 C 0.2358 0.6679 0.73259 0.0
C1065 C 0.2695 0.6502 0.80051 0.0
C1066 C 0.25775 0.66476 0.77902 0.0
H1067 H 0.16363 0.65166 0.67629 0.0
H1068 H 0.18607 0.68181 0.70733 0.0
H1069 H 0.19291 0.6643 0.74936 0.0
H1070 H 0.26327 0.58372 0.82794 0.0
H1071 H 0.23783 0.61443 0.79922 0.0
C1072 C 0.14705 0.71073 0.05355 0.0
C1073 C 0.14644 0.69134 0.0731 0.0
C1074 C 0.172 0.7281 0.0491 0.0
C1075 C 0.23092 0.76404 0.08071 0.0
H1076 H 0.27726 0.76318 0.0227 0.0
C1077 C 0.33066 0.83918 0.071 0.0
C1078 C 0.35706 0.82433 0.06574 0.0
C1079 C 0.30351 0.8256 0.06732 0.0
C1080 C 0.26437 0.76372 0.03891 0.0
H1081 H 0.17176 0.67488 0.10309 0.0
H1082 H 0.21458 0.70547 0.09556 0.0
H1083 H 0.23195 0.73361 0.02528 0.0
H1084 H 0.37534 0.78424 0.0508 0.0
H1085 H 0.32769 0.76053 0.04436 0.0
H1086 H 0.26315 0.79357 0.09463 0.0
C1087 C 0.19594 0.70703 0.0836 0.0
C1088 C 0.23847 0.74701 0.04032 0.0
C1089 C 0.1714 0.68943 0.08782 0.0
C1090 C 0.35549 0.79629 0.05517 0.0
C1091 C 0.3282 0.78273 0.05136 0.0
C1092 C 0.25639 0.78101 0.07919 0.0
C1093 C 0.1964 0.72672 0.06439 0.0
C1094 C 0.22191 0.74662 0.06145 0.0
C1095 C 0.30202 0.7969 0.05817 0.0
C1096 C 0.27366 0.78071 0.05845 0.0
H1097 H 0.12823 0.71264 0.04184 0.0
H1098 H 0.1719 0.74322 0.03419 0.0
H1099 H 0.21845 0.76414 0.09716 0.0
H1100 H 0.33089 0.8609 0.07894 0.0
H1101 H 0.28365 0.83718 0.07244 0.0
C1102 C 0.82222 0.17006 0.07795 0.0
C1103 C 0.81402 0.14272 0.06827 0.0
C1104 C 0.80718 0.19571 0.07179 0.0
C1105 C 0.73543 0.22103 0.04912 0.0
H1106 H 0.77507 0.29659 0.05012 0.0
C1107 C 0.70871 0.35508 0.04842 0.0
C1108 C 0.68475 0.35465 0.06429 0.0
C1109 C 0.72368 0.32902 0.04272 0.0
C1110 C 0.76359 0.27573 0.04929 0.0
H1111 H 0.78395 0.12123 0.04386 0.0
H1112 H 0.75793 0.16625 0.03277 0.0
H1113 H 0.80393 0.25154 0.05062 0.0
H1114 H 0.65718 0.32606 0.08586 0.0
H1115 H 0.68342 0.28131 0.07647 0.0
H1116 H 0.6951 0.24524 0.04764 0.0
C1117 C 0.77576 0.16768 0.04549 0.0
C1118 C 0.78017 0.24982 0.04994 0.0
C1119 C 0.79075 0.14186 0.05179 0.0
C1120 C 0.67553 0.32741 0.0736 0.0
C1121 C 0.69048 0.30153 0.068 0.0
C1122 C 0.71886 0.24694 0.04823 0.0
C1123 C 0.7836 0.19491 0.05562 0.0
C1124 C 0.76628 0.22215 0.05079 0.0
C1125 C 0.71504 0.30197 0.05279 0.0
C1126 C 0.73267 0.27464 0.04924 0.0
H1127 H 0.8399 0.17166 0.09079 0.0
H1128 H 0.8135 0.21607 0.0804 0.0
H1129 H 0.72388 0.20021 0.04974 0.0
H1130 H 0.71634 0.3756 0.0408 0.0
H1131 H 0.74228 0.33014 0.03071 0.0
C1132 C 0.35003 0.70846 0.43674 0.0
C1133 C 0.34946 0.68663 0.41899 0.0
C1134 C 0.32418 0.72318 0.44335 0.0
C1135 C 0.24217 0.72083 0.43665 0.0
H1136 H 0.24841 0.80538 0.44406 0.0
C1137 C 0.16655 0.82964 0.42 0.0
C1138 C 0.13913 0.81953 0.42824 0.0
C1139 C 0.19221 0.81365 0.42442 0.0
C1140 C 0.24622 0.78179 0.44197 0.0
H1141 H 0.32092 0.66274 0.39477 0.0
H1142 H 0.27647 0.68871 0.40574 0.0
H1143 H 0.29287 0.77586 0.44108 0.0
H1144 H 0.11752 0.78523 0.44865 0.0
H1145 H 0.16246 0.75766 0.45689 0.0
H1146 H 0.19557 0.72695 0.43589 0.0
C1147 C 0.29661 0.69413 0.41503 0.0
C1148 C 0.2718 0.76475 0.44061 0.0
C1149 C 0.3223 0.6793 0.40858 0.0
C1150 C 0.13822 0.79358 0.44188 0.0
C1151 C 0.164 0.77766 0.44649 0.0
C1152 C 0.2166 0.7379 0.43775 0.0
C1153 C 0.2972 0.71655 0.43227 0.0
C1154 C 0.27013 0.73412 0.43725 0.0
C1155 C 0.19127 0.78718 0.4374 0.0
C1156 C 0.21828 0.76871 0.43975 0.0
H1157 H 0.3705 0.71456 0.44525 0.0
H1158 H 0.32543 0.74001 0.45695 0.0
H1159 H 0.23996 0.69724 0.43462 0.0
H1160 H 0.16816 0.84943 0.40933 0.0
H1161 H 0.2126 0.8215 0.41674 0.0
C1162 C 0.81618 0.33646 0.41214 0.0
C1163 C 0.80669 0.36407 0.42048 0.0
C1164 C 0.80149 0.31076 0.4187 0.0
C1165 C 0.729 0.28506 0.43947 0.0
H1166 H 0.76994 0.21021 0.44154 0.0
C1167 C 0.70405 0.15077 0.44218 0.0
C1168 C 0.68073 0.15047 0.42573 0.0
C1169 C 0.71861 0.17713 0.44762 0.0
C1170 C 0.75808 0.23088 0.4415 0.0
H1171 H 0.7748 0.38604 0.44307 0.0
H1172 H 0.74941 0.34095 0.45493 0.0
H1173 H 0.79803 0.25574 0.44117 0.0
H1174 H 0.6541 0.178 0.40257 0.0
H1175 H 0.67968 0.22323 0.4115 0.0
H1176 H 0.68907 0.26022 0.44 0.0
C1177 C 0.76796 0.33932 0.4429 0.0
C1178 C 0.77424 0.25706 0.44093 0.0
C1179 C 0.78258 0.36519 0.43616 0.0
C1180 C 0.67189 0.17723 0.41536 0.0
C1181 C 0.68646 0.2034 0.42069 0.0
C1182 C 0.71286 0.2589 0.4403 0.0
C1183 C 0.777 0.3118 0.43398 0.0
C1184 C 0.75993 0.28444 0.43895 0.0
C1185 C 0.7102 0.20374 0.43669 0.0
C1186 C 0.72718 0.23144 0.44035 0.0
H1187 H 0.83456 0.33465 0.39994 0.0
H1188 H 0.80879 0.29016 0.41102 0.0
H1189 H 0.71714 0.30564 0.43795 0.0
H1190 H 0.71134 0.13062 0.45061 0.0
H1191 H 0.73661 0.17661 0.46023 0.0
C1192 C 0.66958 0.17576 0.9126 0.0
C1193 C 0.64247 0.18428 0.92252 0.0
C1194 C 0.69532 0.19099 0.91806 0.0
C1195 C 0.74956 0.21831 0.93911 0.0
H1196 H 0.74581 0.30351 0.93859 0.0
C1197 C 0.85543 0.28779 0.94073 0.0
C1198 C 0.85609 0.31169 0.92483 0.0
C1199 C 0.82891 0.27356 0.94594 0.0
C1200 C 0.74727 0.27973 0.93874 0.0
H1201 H 0.62147 0.21514 0.94663 0.0
H1202 H 0.66669 0.24157 0.95644 0.0
H1203 H 0.70047 0.27503 0.93733 0.0
H1204 H 0.82925 0.33973 0.90235 0.0
H1205 H 0.78337 0.31444 0.91077 0.0
H1206 H 0.7963 0.22286 0.9389 0.0
C1207 C 0.66783 0.22328 0.94412 0.0
C1208 C 0.72122 0.26337 0.93836 0.0
C1209 C 0.64193 0.20804 0.93857 0.0
C1210 C 0.82954 0.32149 0.91477 0.0
C1211 C 0.80311 0.30708 0.91976 0.0
C1212 C 0.77559 0.23463 0.93926 0.0
C1213 C 0.69479 0.21509 0.93372 0.0
C1214 C 0.72208 0.23245 0.93782 0.0
C1215 C 0.80248 0.28266 0.93516 0.0
C1216 C 0.77481 0.26555 0.93841 0.0
H1217 H 0.67095 0.15766 0.90011 0.0
H1218 H 0.71551 0.18438 0.90932 0.0
H1219 H 0.75103 0.19452 0.93923 0.0
H1220 H 0.87544 0.27987 0.94899 0.0
H1221 H 0.82921 0.25517 0.9582 0.0
C1222 C 0.29202 0.6408 0.94683 0.0
C1223 C 0.31632 0.64063 0.9313 0.0
C1224 C 0.2767 0.66692 0.95141 0.0
C1225 C 0.23597 0.71863 0.94249 0.0
H1226 H 0.27377 0.79507 0.94082 0.0
C1227 C 0.17474 0.82309 0.91336 0.0
C1228 C 0.18291 0.85055 0.92278 0.0
C1229 C 0.19009 0.7976 0.9196 0.0
C1230 C 0.26276 0.77397 0.94176 0.0
H1231 H 0.34415 0.66814 0.90912 0.0
H1232 H 0.31719 0.71325 0.91661 0.0
H1233 H 0.3037 0.75086 0.9437 0.0
H1234 H 0.21286 0.87245 0.94707 0.0
H1235 H 0.23921 0.82784 0.95835 0.0
H1236 H 0.19503 0.74174 0.94075 0.0
C1237 C 0.31021 0.69341 0.92568 0.0
C1238 C 0.28 0.74854 0.94308 0.0
C1239 C 0.32563 0.6674 0.92125 0.0
C1240 C 0.20612 0.85171 0.93931 0.0
C1241 C 0.22134 0.82613 0.9457 0.0
C1242 C 0.21873 0.74407 0.94138 0.0
C1243 C 0.28519 0.69344 0.94044 0.0
C1244 C 0.26687 0.72051 0.94271 0.0
C1245 C 0.21388 0.79882 0.93558 0.0
C1246 C 0.23192 0.77204 0.94025 0.0
H1247 H 0.28436 0.62063 0.95503 0.0
H1248 H 0.25786 0.6662 0.9632 0.0
H1249 H 0.22502 0.69748 0.94206 0.0
H1250 H 0.15709 0.82134 0.9005 0.0
H1251 H 0.18397 0.77711 0.9111 0.0
C1252 C 0.86419 0.22315 0.56405 0.0
C1253 C 0.86209 0.19313 0.56991 0.0
C1254 C 0.8388 0.23958 0.55935 0.0
C1255 C 0.76003 0.23429 0.54391 0.0
H1256 H 0.75133 0.30317 0.58398 0.0
C1257 C 0.64684 0.28403 0.56685 0.0
C1258 C 0.64467 0.3143 0.57163 0.0
C1259 C 0.67415 0.27118 0.562 0.0
C1260 C 0.75348 0.28444 0.5722 0.0
H1261 H 0.83193 0.15647 0.57405 0.0
H1262 H 0.78779 0.18507 0.56556 0.0
H1263 H 0.79813 0.27734 0.58284 0.0
H1264 H 0.66926 0.35514 0.57366 0.0
H1265 H 0.71667 0.33296 0.56447 0.0
H1266 H 0.71532 0.2412 0.53337 0.0
C1267 C 0.809 0.19591 0.56472 0.0
C1268 C 0.78038 0.2696 0.57162 0.0
C1269 C 0.83427 0.1796 0.56977 0.0
C1270 C 0.67022 0.33167 0.57038 0.0
C1271 C 0.69746 0.3189 0.56522 0.0
C1272 C 0.73319 0.24935 0.54426 0.0
C1273 C 0.81093 0.22619 0.56 0.0
C1274 C 0.78372 0.244 0.55791 0.0
C1275 C 0.69992 0.28837 0.56152 0.0
C1276 C 0.72934 0.27423 0.55887 0.0
H1277 H 0.8853 0.23421 0.56403 0.0
H1278 H 0.84089 0.26289 0.55564 0.0
H1279 H 0.76215 0.21476 0.533 0.0
H1280 H 0.6276 0.27 0.56777 0.0
H1281 H 0.67514 0.24756 0.55959 0.0
C1282 C 0.29656 0.85319 0.54867 0.0
C1283 C 0.32087 0.85256 0.56415 0.0
C1284 C 0.28121 0.82734 0.54328 0.0
C1285 C 0.24028 0.77552 0.55091 0.0
H1286 H 0.27754 0.69877 0.55077 0.0
C1287 C 0.17953 0.67114 0.58023 0.0
C1288 C 0.18726 0.64365 0.57057 0.0
C1289 C 0.19462 0.69661 0.5736 0.0
C1290 C 0.26668 0.71997 0.55032 0.0
H1291 H 0.34875 0.82393 0.58531 0.0
H1292 H 0.32173 0.77927 0.57644 0.0
H1293 H 0.30776 0.74285 0.5485 0.0
H1294 H 0.21606 0.62181 0.54529 0.0
H1295 H 0.24205 0.66644 0.5334 0.0
H1296 H 0.19921 0.75266 0.55262 0.0
C1297 C 0.31475 0.79954 0.56802 0.0
C1298 C 0.28409 0.74532 0.54935 0.0
C1299 C 0.33021 0.8253 0.57326 0.0
C1300 C 0.20963 0.64255 0.55326 0.0
C1301 C 0.22467 0.66813 0.54652 0.0
C1302 C 0.22288 0.75018 0.55168 0.0
C1303 C 0.28967 0.80028 0.55337 0.0
C1304 C 0.27117 0.77343 0.55045 0.0
C1305 C 0.21776 0.6954 0.55699 0.0
C1306 C 0.23588 0.72209 0.55221 0.0
H1307 H 0.28889 0.87376 0.54115 0.0
H1308 H 0.26234 0.82867 0.53158 0.0
H1309 H 0.22947 0.79672 0.5519 0.0
H1310 H 0.16248 0.67294 0.59363 0.0
H1311 H 0.18893 0.71706 0.58236 0.0
C1312 C 0.96309 0.4059 0.96676 0.0
C1313 C 0.95386 0.41591 0.94431 0.0
C1314 C 0.98467 0.42098 0.97932 0.0
C1315 C 0.04361 0.4766 0.97178 0.0
H1316 H 0.03327 0.48576 0.03984 0.0
C1317 C 0.07918 0.57484 0.02633 0.0
C1318 C 0.08433 0.57128 0.05082 0.0
C1319 C 0.07444 0.55039 0.01194 0.0
C1320 C 0.0371 0.48268 0.02097 0.0
H1321 H 0.95918 0.45028 0.91784 0.0
H1322 H 0.99596 0.47755 0.94041 0.0
H1323 H 0.99933 0.45532 0.01781 0.0
H1324 H 0.09273 0.53935 0.07876 0.0
H1325 H 0.08416 0.49657 0.05353 0.0
H1326 H 0.08045 0.50576 0.97503 0.0
C1327 C 0.9872 0.45739 0.94787 0.0
C1328 C 0.01747 0.46533 0.00827 0.0
C1329 C 0.96576 0.44208 0.93513 0.0
C1330 C 0.08821 0.5428 0.06005 0.0
C1331 C 0.08339 0.51831 0.04562 0.0
C1332 C 0.06323 0.49418 0.98453 0.0
C1333 C 0.99721 0.44671 0.96991 0.0
C1334 C 0.01999 0.46274 0.98347 0.0
C1335 C 0.07471 0.52203 0.02183 0.0
C1336 C 0.05954 0.49806 0.00913 0.0
H1337 H 0.95456 0.38568 0.9743 0.0
H1338 H 0.99208 0.41197 0.99612 0.0
H1339 H 0.04648 0.4745 0.95272 0.0
H1340 H 0.07677 0.59653 0.01857 0.0
H1341 H 0.06777 0.55395 0.99366 0.0
C1342 C 0.0497 0.95975 0.91538 0.0
C1343 C 0.07178 0.9456 0.92865 0.0
C1344 C 0.03244 0.98167 0.92583 0.0
C1345 C 0.033 0.03383 0.97597 0.0
H1346 H 0.94805 0.02924 0.97206 0.0
C1347 C 0.95514 0.06762 0.05031 0.0
C1348 C 0.92604 0.07495 0.04458 0.0
C1349 C 0.97544 0.06217 0.03218 0.0
C1350 C 0.97175 0.03152 0.97286 0.0
H1351 H 0.09205 0.94218 0.96352 0.0
H1352 H 0.06161 0.97988 0.98174 0.0
H1353 H 0.97788 0.99729 0.94726 0.0
H1354 H 0.89617 0.08631 0.01594 0.0
H1355 H 0.9318 0.07749 0.98434 0.0
H1356 H 0.0268 0.06711 0.00246 0.0
C1357 C 0.05819 0.97464 0.96314 0.0
C1358 C 0.98881 0.01307 0.95869 0.0
C1359 C 0.07531 0.95276 0.95279 0.0
C1360 C 0.91839 0.08 0.02072 0.0
C1361 C 0.93874 0.07497 0.00266 0.0
C1362 C 0.01593 0.05236 0.99014 0.0
C1363 C 0.0371 0.98976 0.94964 0.0
C1364 C 0.0195 0.01317 0.96091 0.0
C1365 C 0.96691 0.06434 0.00816 0.0
C1366 C 0.98512 0.05049 0.98944 0.0
H1367 H 0.04665 0.95491 0.89667 0.0
H1368 H 0.01614 0.99294 0.91511 0.0
H1369 H 0.05675 0.03474 0.97753 0.0
H1370 H 0.96153 0.06372 0.06861 0.0
H1371 H 0.99697 0.05388 0.03701 0.0
C1372 C 0.59021 0.0774 0.96672 0.0
C1373 C 0.58059 0.07041 0.94368 0.0
C1374 C 0.59 0.05614 0.98454 0.0
C1375 C 0.57163 0.97765 -0.00251 0.0
H1376 H 0.524 0.01328 0.04704 0.0
C1377 C 0.47237 0.9212 0.03727 0.0
C1378 C 0.46495 0.92521 0.0613 0.0
C1379 C 0.4963 0.93592 0.02746 0.0
C1380 C 0.53793 0.0029 0.03383 0.0
H1381 H 0.56605 0.03541 0.92039 0.0
H1382 H 0.56421 0.99838 0.95179 0.0
H1383 H 0.55231 0.04436 0.02071 0.0
H1384 H 0.47703 0.94751 0.09403 0.0
H1385 H 0.51878 0.97373 0.07663 0.0
H1386 H 0.55531 0.93618 0.00988 0.0
C1387 C 0.57259 0.02004 0.95609 0.0
C1388 C 0.5543 0.02074 0.01868 0.0
C1389 C 0.57335 0.04126 0.93812 0.0
C1390 C 0.48186 0.94444 0.07532 0.0
C1391 C 0.50593 0.95917 0.06547 0.0
C1392 C 0.55519 0.95977 0.0127 0.0
C1393 C 0.57949 0.02771 0.97974 0.0
C1394 C 0.57 0.00841 -0.00047 0.0
C1395 C 0.5134 0.95493 0.04146 0.0
C1396 C 0.53689 0.97242 0.03009 0.0
H1397 H 0.5966 0.09969 0.97122 0.0
H1398 H 0.59612 0.0625 0.00244 0.0
H1399 H 0.58405 0.96753 0.98322 0.0
H1400 H 0.45984 0.90642 0.02606 0.0
H1401 H 0.50104 0.93282 0.00873 0.0
C1402 C 0.57608 0.40962 0.02617 0.0
C1403 C 0.57076 0.41956 0.04941 0.0
C1404 C 0.55376 0.41026 0.00925 0.0
C1405 C 0.47508 0.43082 -0.0005 0.0
H1406 H 0.50885 0.47581 0.94754 0.0
C1407 C 0.41897 0.53045 0.95976 0.0
C1408 C 0.42161 0.53677 0.93541 0.0
C1409 C 0.43365 0.5065 0.96958 0.0
C1410 C 0.49893 0.46263 0.96147 0.0
H1411 H 0.53769 0.43524 0.07404 0.0
H1412 H 0.49885 0.43797 0.04418 0.0
H1413 H 0.54072 0.44732 0.97305 0.0
H1414 H 0.44145 0.52273 0.90212 0.0
H1415 H 0.46761 0.48097 0.91952 0.0
H1416 H 0.4334 0.44817 0.98863 0.0
C1417 C 0.51997 0.42894 0.03903 0.0
C1418 C 0.51723 0.44614 0.97615 0.0
C1419 C 0.54222 0.42769 0.05612 0.0
C1420 C 0.43946 0.51876 0.92106 0.0
C1421 C 0.45416 0.49469 0.93093 0.0
C1422 C 0.45675 0.44743 0.98479 0.0
C1423 C 0.52597 0.42161 0.01514 0.0
C1424 C 0.5057 0.43136 0.9961 0.0
C1425 C 0.45128 0.48831 0.95527 0.0
C1426 C 0.4688 0.46475 0.96649 0.0
H1427 H 0.59789 0.40257 0.02082 0.0
H1428 H 0.55884 0.40375 0.99116 0.0
H1429 H 0.46551 0.41911 0.0144 0.0
H1430 H 0.40524 0.54384 0.97123 0.0
H1431 H 0.43164 0.5026 0.98853 0.0
C1432 C 0.92576 0.04756 0.55434 0.0
C1433 C 0.92048 0.07702 0.54837 0.0
C1434 C 0.92648 0.02617 0.53656 0.0
C1435 C 0.94776 0.02517 0.47442 0.0
H1436 H 0.94542 0.94104 0.48554 0.0
C1437 C 0.0215 0.94689 0.42151 0.0
C1438 C 0.03767 0.92769 0.43614 0.0
C1439 C 0.99709 0.96179 0.4305 0.0
C1440 C 0.94588 0.96447 0.48201 0.0
H1441 H 0.9078 0.10688 0.5201 0.0
H1442 H 0.90798 0.06934 0.48913 0.0
H1443 H 0.91559 0.97369 0.5102 0.0
H1444 H 0.0409 0.90885 0.4715 0.0
H1445 H 0.99914 0.93589 0.4875 0.0
H1446 H 0.97911 0.01625 0.44717 0.0
C1447 C 0.91278 0.06285 0.50727 0.0
C1448 C 0.92884 0.98314 0.49611 0.0
C1449 C 0.91274 0.08432 0.52494 0.0
C1450 C 0.02902 0.92372 0.45989 0.0
C1451 C 0.00477 0.93878 0.46891 0.0
C1452 C 0.96451 0.00652 0.46023 0.0
C1453 C 0.92141 0.03391 0.51264 0.0
C1454 C 0.93105 0.01381 0.49341 0.0
C1455 C 0.98858 0.95796 0.45432 0.0
C1456 C 0.96503 0.9762 0.46481 0.0
H1457 H 0.93154 0.04143 0.57238 0.0
H1458 H 0.93342 0.00417 0.5414 0.0
H1459 H 0.95028 0.04865 0.47185 0.0
H1460 H 0.02718 0.94985 0.40294 0.0
H1461 H 0.98488 0.97632 0.41884 0.0
C1462 C 0.42304 0.96161 0.53581 0.0
C1463 C 0.4263 0.95544 0.56014 0.0
C1464 C 0.4374 0.98551 0.52562 0.0
C1465 C 0.50142 0.03202 0.53199 0.0
H1466 H 0.46241 0.07645 0.48213 0.0
C1467 C 0.5711 0.0956 0.46769 0.0
C1468 C 0.56596 0.08612 0.44429 0.0
C1469 C 0.54955 0.09212 0.48508 0.0
C1470 C 0.47351 0.06449 0.49617 0.0
H1471 H 0.44753 0.96925 0.59287 0.0
H1472 H 0.47324 0.01096 0.57479 0.0
H1473 H 0.43362 0.04407 0.50793 0.0
H1474 H 0.53354 0.06858 0.41995 0.0
H1475 H 0.49604 0.0614 0.45048 0.0
H1476 H 0.54147 0.0508 0.51953 0.0
C1477 C 0.45943 0.9972 0.56372 0.0
C1478 C 0.4571 0.04594 0.51087 0.0
C1479 C 0.44498 0.97319 0.57398 0.0
C1480 C 0.53795 0.07596 0.43793 0.0
C1481 C 0.51647 0.07203 0.45543 0.0
C1482 C 0.5178 0.05053 0.51733 0.0
C1483 C 0.45538 0.00381 0.53951 0.0
C1484 C 0.47119 0.02843 0.52807 0.0
C1485 C 0.52272 0.07855 0.47941 0.0
C1486 C 0.50423 0.06585 0.49853 0.0
H1487 H 0.40879 0.94834 0.5247 0.0
H1488 H 0.43455 0.98955 0.50677 0.0
H1489 H 0.51285 0.01876 0.54506 0.0
H1490 H 0.59246 0.10406 0.47286 0.0
H1491 H 0.55471 0.098 0.50328 0.0
C1492 C 0.55854 0.41444 0.52491 0.0
C1493 C 0.55856 0.42048 0.54943 0.0
C1494 C 0.54542 0.43393 0.50901 0.0
C1495 C 0.5146 0.50872 0.50285 0.0
H1496 H 0.46123 0.47077 0.45847 0.0
C1497 C 0.42929 0.57595 0.45404 0.0
C1498 C 0.4306 0.57354 0.42917 0.0
C1499 C 0.44237 0.5547 0.46834 0.0
C1500 C 0.47616 0.48157 0.47069 0.0
H1501 H 0.54693 0.45261 0.57639 0.0
H1502 H 0.52376 0.48659 0.54863 0.0
H1503 H 0.49332 0.44076 0.48353 0.0
H1504 H 0.44378 0.54576 0.39968 0.0
H1505 H 0.46682 0.50833 0.42487 0.0
H1506 H 0.49715 0.54948 0.49026 0.0
C1507 C 0.53402 0.46687 0.54166 0.0
C1508 C 0.49467 0.4645 0.48489 0.0
C1509 C 0.54732 0.44743 0.55757 0.0
C1510 C 0.44244 0.54802 0.41884 0.0
C1511 C 0.4557 0.52671 0.43322 0.0
C1512 C 0.49602 0.52573 0.48877 0.0
C1513 C 0.532 0.45975 0.51737 0.0
C1514 C 0.51393 0.47793 0.50121 0.0
C1515 C 0.45705 0.53077 0.45799 0.0
C1516 C 0.47644 0.5123 0.47277 0.0
H1517 H 0.56742 0.39398 0.5181 0.0
H1518 H 0.54483 0.42827 0.4903 0.0
H1519 H 0.5295 0.51966 0.515 0.0
H1520 H 0.4199 0.59529 0.46241 0.0
H1521 H 0.44249 0.55787 0.48745 0.0
C1522 C 0.07834 0.55757 0.53692 0.0
C1523 C 0.07559 0.5594 0.56175 0.0
C1524 C 0.05682 0.54357 0.52355 0.0
C1525 C 0.98214 0.51464 0.52249 0.0
H1526 H 0.01702 0.45531 0.48145 0.0
C1527 C 0.90935 0.4402 0.46664 0.0
C1528 C 0.91677 0.44014 0.44237 0.0
C1529 C 0.92958 0.44974 0.48351 0.0
C1530 C 0.00701 0.47179 0.49279 0.0
H1531 H 0.04706 0.55081 0.5919 0.0
H1532 H 0.00902 0.5263 0.56828 0.0
H1533 H 0.04863 0.48638 0.50588 0.0
H1534 H 0.95176 0.44736 0.41681 0.0
H1535 H 0.98709 0.46457 0.44628 0.0
H1536 H 0.94056 0.5007 0.50892 0.0
C1537 C 0.02797 0.53557 0.5593 0.0
C1538 C 0.02503 0.4896 0.50667 0.0
C1539 C 0.04959 0.54971 0.57275 0.0
C1540 C 0.94554 0.44723 0.43543 0.0
C1541 C 0.96575 0.45704 0.45232 0.0
C1542 C 0.96409 0.49691 0.5085 0.0
C1543 C 0.03224 0.53117 0.5348 0.0
C1544 C 0.01276 0.51154 0.52123 0.0
C1545 C 0.95746 0.45958 0.47636 0.0
C1546 C 0.97641 0.47565 0.49323 0.0
H1547 H 0.09805 0.56528 0.52801 0.0
H1548 H 0.06013 0.5411 0.50456 0.0
H1549 H 0.97227 0.53143 0.53361 0.0
H1550 H 0.88739 0.43431 0.47247 0.0
H1551 H 0.92291 0.4508 0.502 0.0
C1552 C 0.93919 0.4468 0.30953 0.0
C1553 C 0.92449 0.4684 0.32293 0.0
C1554 C 0.95888 0.45498 0.29146 0.0
C1555 C 0.00408 0.51609 0.2682 0.0
H1556 H 0.98262 0.48743 0.20557 0.0
C1557 C 0.05963 0.55979 0.18237 0.0
C1558 C 0.03893 0.57194 0.16659 0.0
C1559 C 0.05044 0.54135 0.20097 0.0
C1560 C 0.98913 0.49532 0.22297 0.0
H1561 H 0.92019 0.51531 0.32897 0.0
H1562 H 0.95516 0.52949 0.29806 0.0
H1563 H 0.95908 0.46648 0.24094 0.0
H1564 H 0.99279 0.57283 0.15693 0.0
H1565 H 0.97694 0.53999 0.18882 0.0
H1566 H 0.03343 0.54559 0.2502 0.0
C1567 C 0.9513 0.5063 0.30128 0.0
C1568 C 0.9758 0.48322 0.24321 0.0
C1569 C 0.9312 0.49818 0.31892 0.0
C1570 C 0.00923 0.56378 0.16882 0.0
C1571 C 0.00017 0.5449 0.18703 0.0
C1572 C 0.01778 0.52783 0.248 0.0
C1573 C 0.96472 0.48486 0.2869 0.0
C1574 C 0.98251 0.4941 0.26598 0.0
C1575 C 0.02051 0.5342 0.20374 0.0
C1576 C 0.00981 0.51817 0.22513 0.0
H1577 H 0.93424 0.42369 0.31209 0.0
H1578 H 0.96899 0.43801 0.28066 0.0
H1579 H 0.00971 0.52483 0.28555 0.0
H1580 H 0.08262 0.56593 0.1812 0.0
H1581 H 0.06658 0.53333 0.21358 0.0
C1582 C 0.05514 0.93921 0.30951 0.0
C1583 C 0.03468 0.92769 0.32583 0.0
C1584 C 0.0455 0.9559 0.28995 0.0
C1585 C 0.97932 0.9617 0.25296 0.0
H1586 H 0.01618 0.03004 0.2243 0.0
C1587 C 0.93805 0.00252 0.16371 0.0
C1588 C 0.93138 0.03264 0.1623 0.0
C1589 C 0.95601 0.99174 0.18184 0.0
C1590 C 0.00567 0.01097 0.23215 0.0
H1591 H 0.98858 0.92694 0.33578 0.0
H1592 H 0.972 0.95637 0.30226 0.0
H1593 H 0.03632 0.00929 0.2613 0.0
H1594 H 0.93996 0.07544 0.17775 0.0
H1595 H 0.97108 0.05646 0.20997 0.0
H1596 H 0.94846 0.96332 0.22447 0.0
C1597 C 0.99531 0.95185 0.30399 0.0
C1598 C 0.01729 0.99902 0.25323 0.0
C1599 C 0.00483 0.93509 0.32329 0.0
C1600 C 0.94489 0.05212 0.17836 0.0
C1601 C 0.96268 0.04123 0.19681 0.0
C1602 C 0.9679 0.97345 0.23203 0.0
C1603 C 0.0153 0.96141 0.28654 0.0
C1604 C 0.00398 0.9744 0.26398 0.0
C1605 C 0.96736 0.01074 0.19932 0.0
C1606 C 0.98084 0.99822 0.22128 0.0
H1607 H 0.07827 0.9338 0.31101 0.0
H1608 H 0.06145 0.96299 0.27682 0.0
H1609 H 0.9688 0.94244 0.2605 0.0
H1610 H 0.92821 0.98703 0.15139 0.0
H1611 H 0.95984 0.96824 0.18283 0.0
C1612 C 0.56806 0.00501 0.32628 0.0
C1613 C 0.57444 0.03522 0.32788 0.0
C1614 C 0.54937 0.99435 0.30853 0.0
C1615 C 0.52943 0.00843 0.24773 0.0
H1616 H 0.46855 0.94991 0.25806 0.0
C1617 C 0.4952 0.92088 0.17883 0.0
C1618 C 0.46499 0.91668 0.17464 0.0
C1619 C 0.50479 0.93978 0.19682 0.0
C1620 C 0.48523 0.9665 0.25492 0.0
H1621 H 0.56567 0.07806 0.31251 0.0
H1622 H 0.53354 0.05918 0.28084 0.0
H1623 H 0.49104 0.97484 0.29223 0.0
H1624 H 0.42114 0.92922 0.18589 0.0
H1625 H 0.43804 0.96168 0.2181 0.0
H1626 H 0.52483 0.99887 0.21052 0.0
C1627 C 0.54276 0.04391 0.29363 0.0
C1628 C 0.49816 0.98064 0.27443 0.0
C1629 C 0.56096 0.0547 0.31179 0.0
C1630 C 0.44454 0.93214 0.18866 0.0
C1631 C 0.45418 0.95058 0.2071 0.0
C1632 C 0.51692 0.99388 0.22826 0.0
C1633 C 0.53713 0.01357 0.29166 0.0
C1634 C 0.5207 0.00142 0.27104 0.0
C1635 C 0.48441 0.95446 0.21138 0.0
C1636 C 0.49504 0.97244 0.23169 0.0
H1637 H 0.5781 0.98949 0.33846 0.0
H1638 H 0.54561 0.97085 0.30733 0.0
H1639 H 0.54693 0.02415 0.24461 0.0
H1640 H 0.51149 0.90938 0.16824 0.0
H1641 H 0.52821 0.94219 0.19985 0.0
C1642 C 0.4911 0.59017 0.30649 0.0
C1643 C 0.46104 0.58958 0.31243 0.0
C1644 C 0.50292 0.56968 0.29069 0.0
C1645 C 0.48596 0.52315 0.24005 0.0
H1646 H 0.56162 0.48845 0.25524 0.0
C1647 C 0.5568 0.45447 0.17229 0.0
C1648 C 0.58633 0.46379 0.17131 0.0
C1649 C 0.53799 0.4647 0.19042 0.0
C1650 C 0.54046 0.49788 0.2507 0.0
H1651 H 0.4198 0.56686 0.30632 0.0
H1652 H 0.44059 0.53112 0.27797 0.0
H1653 H 0.53492 0.51586 0.2856 0.0
H1654 H 0.61911 0.49095 0.18894 0.0
H1655 H 0.5868 0.50837 0.21999 0.0
H1656 H 0.49233 0.5062 0.20471 0.0
C1657 C 0.45488 0.54749 0.28588 0.0
C1658 C 0.52516 0.51355 0.26812 0.0
C1659 C 0.44305 0.56782 0.30214 0.0
C1660 C 0.59656 0.48323 0.18895 0.0
C1661 C 0.57804 0.4931 0.207 0.0
C1662 C 0.50143 0.50749 0.22248 0.0
C1663 C 0.48501 0.54818 0.2801 0.0
C1664 C 0.49825 0.52724 0.26278 0.0
C1665 C 0.54856 0.484 0.20807 0.0
C1666 C 0.52937 0.49563 0.22742 0.0
H1667 H 0.50567 0.60647 0.31418 0.0
H1668 H 0.52613 0.57102 0.2864 0.0
H1669 H 0.46528 0.53353 0.23543 0.0
H1670 H 0.54817 0.43958 0.15897 0.0
H1671 H 0.51533 0.45733 0.19077 0.0
C1672 C 0.06376 0.5455 0.68278 0.0
C1673 C 0.09391 0.53836 0.68297 0.0
C1674 C 0.04526 0.53629 0.70144 0.0
C1675 C 0.04797 0.51196 0.76428 0.0
H1676 H 0.9772 0.46741 0.75077 0.0
C1677 C 0.00383 0.42435 0.82771 0.0
C1678 C 0.97336 0.4207 0.83084 0.0
C1679 C 0.01478 0.44445 0.81116 0.0
C1680 C 0.99656 0.48033 0.7549 0.0
H1681 H 0.12816 0.51632 0.70324 0.0
H1682 H 0.09632 0.50071 0.73533 0.0
H1683 H 0.00311 0.49255 0.71833 0.0
H1684 H 0.93045 0.43589 0.8193 0.0
H1685 H 0.94976 0.47107 0.78998 0.0
H1686 H 0.04221 0.49899 0.80058 0.0
C1687 C 0.08684 0.51342 0.72093 0.0
C1688 C 0.01139 0.49471 0.73632 0.0
C1689 C 0.10509 0.5222 0.70232 0.0
C1690 C 0.95404 0.43829 0.81739 0.0
C1691 C 0.96508 0.45825 0.8005 0.0
C1692 C 0.03321 0.49767 0.78277 0.0
C1693 C 0.05674 0.5203 0.72079 0.0
C1694 C 0.03786 0.50978 0.74071 0.0
C1695 C 0.99561 0.46136 0.79708 0.0
C1696 C 0.00794 0.48079 0.77819 0.0
H1697 H 0.05443 0.55785 0.66812 0.0
H1698 H 0.0221 0.54187 0.70086 0.0
H1699 H 0.06799 0.5239 0.76832 0.0
H1700 H 0.01934 0.41125 0.83781 0.0
H1701 H 0.03839 0.44595 0.80881 0.0
C1702 C 0.99471 0.06475 0.66744 0.0
C1703 C 0.96499 0.07317 0.66644 0.0
C1704 C 0.00445 0.04472 0.68456 0.0
C1705 C 0.98982 0.02397 0.74518 0.0
H1706 H 0.04752 0.96267 0.73353 0.0
C1707 C 0.07817 0.98882 0.8128 0.0
C1708 C 0.08363 0.95864 0.8161 0.0
C1709 C 0.05858 0.99844 0.79531 0.0
C1710 C 0.03112 0.97941 0.73707 0.0
H1711 H 0.92192 0.06659 0.68205 0.0
H1712 H 0.9392 0.03195 0.71266 0.0
H1713 H 0.02222 0.98592 0.69994 0.0
H1714 H 0.07247 0.91483 0.80382 0.0
H1715 H 0.03871 0.93183 0.77257 0.0
H1716 H 0.99994 0.01864 0.78222 0.0
C1717 C 0.9548 0.04063 0.69989 0.0
C1718 C 0.01676 0.9928 0.71786 0.0
C1719 C 0.9449 0.06025 0.68233 0.0
C1720 C 0.06863 0.93822 0.80174 0.0
C1721 C 0.04943 0.94792 0.78383 0.0
C1722 C 0.00454 0.01095 0.76435 0.0
C1723 C 0.98479 0.0331 0.70141 0.0
C1724 C 0.99641 0.01563 0.7217 0.0
C1725 C 0.04436 0.97816 0.78038 0.0
C1726 C 0.02579 0.98897 0.76046 0.0
H1727 H 0.01066 0.07439 0.65539 0.0
H1728 H 0.0277 0.03957 0.68541 0.0
H1729 H 0.97447 0.0417 0.74867 0.0
H1730 H 0.08925 0.0051 0.82366 0.0
H1731 H 0.05533 0.02188 0.79292 0.0
C1732 C 0.40063 0.97484 0.69503 0.0
C1733 C 0.4118 0.95641 0.67706 0.0
C1734 C 0.41814 0.98334 0.71416 0.0
C1735 C 0.49341 0.99693 0.73269 0.0
H1736 H 0.45787 0.99813 0.79546 0.0
C1737 C 0.54829 0.05417 0.81451 0.0
C1738 C 0.52908 0.07364 0.82627 0.0
C1739 C 0.53736 0.03394 0.79779 0.0
C1740 C 0.46819 0.99788 0.77808 0.0
H1741 H 0.45046 0.9326 0.66517 0.0
H1742 H 0.48153 0.94811 0.69876 0.0
H1743 H 0.43263 0.97352 0.76282 0.0
H1744 H 0.4833 0.08622 0.83044 0.0
H1745 H 0.46446 0.05117 0.80175 0.0
H1746 H 0.5284 0.02254 0.74785 0.0
C1747 C 0.45895 0.95567 0.69789 0.0
C1748 C 0.45374 0.98376 0.75939 0.0
C1749 C 0.44116 0.94674 0.67874 0.0
C1750 C 0.49875 0.07167 0.82164 0.0
C1751 C 0.48789 0.05136 0.80529 0.0
C1752 C 0.50791 0.0112 0.75147 0.0
C1753 C 0.44747 0.9739 0.71588 0.0
C1754 C 0.46564 0.98404 0.7363 0.0
C1755 C 0.50701 0.03249 0.7929 0.0
C1756 C 0.49489 0.01275 0.77417 0.0
H1757 H 0.37813 0.9827 0.69445 0.0
H1758 H 0.40876 0.99777 0.72751 0.0
H1759 H 0.50306 0.99756 0.71507 0.0
H1760 H 0.57178 0.05524 0.81763 0.0
H1761 H 0.55262 0.01961 0.78857 0.0
C1762 C 0.4067 0.4986 0.81728 0.0
C1763 C 0.40609 0.52878 0.82273 0.0
C1764 C 0.42343 0.48806 0.79829 0.0
C1765 C 0.483 0.50644 0.75524 0.0
H1766 H 0.4453 0.44436 0.71914 0.0
C1767 C 0.54323 0.43484 0.68395 0.0
C1768 C 0.52616 0.42265 0.66561 0.0
C1769 C 0.52998 0.4522 0.70165 0.0
C1770 C 0.45611 0.46202 0.72867 0.0
H1771 H 0.42363 0.57146 0.81297 0.0
H1772 H 0.45251 0.55306 0.77921 0.0
H1773 H 0.42013 0.46564 0.75285 0.0
H1774 H 0.4826 0.42104 0.65012 0.0
H1775 H 0.45988 0.45247 0.67997 0.0
H1776 H 0.51881 0.50307 0.73043 0.0
C1777 C 0.44022 0.53751 0.7899 0.0
C1778 C 0.44179 0.47391 0.74841 0.0
C1779 C 0.42361 0.54808 0.80921 0.0
C1780 C 0.49622 0.42998 0.6642 0.0
C1781 C 0.48315 0.44773 0.68152 0.0
C1782 C 0.49736 0.49458 0.73526 0.0
C1783 C 0.4398 0.5074 0.78389 0.0
C1784 C 0.45512 0.49599 0.76222 0.0
C1785 C 0.49949 0.45798 0.70111 0.0
C1786 C 0.48413 0.47207 0.72175 0.0
H1787 H 0.39394 0.483 0.8276 0.0
H1788 H 0.42324 0.46463 0.79474 0.0
H1789 H 0.494 0.52336 0.76548 0.0
H1790 H 0.56633 0.42926 0.68555 0.0
H1791 H 0.54332 0.45957 0.71645 0.0
loop_
_geom_bond_atom_site_label_1
_geom_bond_atom_site_label_2
_geom_bond_distance
_geom_bond_site_symmetry_2
_ccdc_geom_bond_type
Sc0 O3 2.025 . S
Sc0 O10 2.105 . S
Sc0 O13 2.105 . S
Sc0 O16 2.105 1_455 S
Sc0 O19 2.105 . S
Sc1 O3 2.025 . S
Sc1 O11 2.105 . S
Sc1 O15 2.105 . S
Sc1 O17 2.105 . S
Sc1 O21 2.105 . S
Sc2 O3 2.025 . S
Sc2 O12 2.105 . S
Sc2 O14 2.105 1_455 S
Sc2 O18 2.105 . S
Sc2 O20 2.103 1_455 S
O3 Sc0 2.025 . S
O3 Sc1 2.025 . S
O3 Sc2 2.025 . S
C4 O10 1.268 . S
C4 O20 1.257 1_455 S
C5 O11 1.268 . S
C5 O19 1.268 . S
C6 O12 1.268 . S
C6 O21 1.268 . S
C7 O13 1.268 . S
C7 O17 1.268 . S
C8 O14 1.268 . S
C8 O16 1.268 . S
C9 O15 1.268 . S
C9 O18 1.268 . S
O10 Sc0 2.105 . S
O10 C4 1.268 . S
O11 Sc1 2.105 . S
O11 C5 1.268 . S
O12 Sc2 2.105 . S
O12 C6 1.268 . S
O13 Sc0 2.105 . S
O13 C7 1.268 . S
O14 Sc2 2.105 1_655 S
O14 C8 1.268 . S
O15 Sc1 2.105 . S
O15 C9 1.268 . S
O16 Sc0 2.105 1_655 S
O16 C8 1.268 . S
O17 Sc1 2.105 . S
O17 C7 1.268 . S
O18 Sc2 2.105 . S
O18 C9 1.268 . S
O19 Sc0 2.105 . S
O19 C5 1.268 . S
O20 Sc2 2.103 1_655 S
O20 C4 1.257 1_655 S
O21 Sc1 2.105 . S
O21 C6 1.268 . S
Sc22 O25 2.025 . S
Sc22 O32 2.105 . S
Sc22 O35 2.105 . S
Sc22 O38 2.105 1_545 S
Sc22 O41 2.105 . S
Sc23 O25 2.025 . S
Sc23 O33 2.105 . S
Sc23 O37 2.105 . S
Sc23 O39 2.105 . S
Sc23 O43 2.105 . S
Sc24 O25 2.025 . S
Sc24 O34 2.105 . S
Sc24 O36 2.105 1_545 S
Sc24 O40 2.105 . S
Sc24 O42 2.103 1_545 S
O25 Sc22 2.025 . S
O25 Sc23 2.025 . S
O25 Sc24 2.025 . S
C26 O32 1.268 . S
C26 O42 1.257 1_545 S
C27 O33 1.268 . S
C27 O41 1.268 . S
C28 O34 1.268 . S
C28 O43 1.268 . S
C29 O35 1.268 . S
C29 O39 1.268 . S
C30 O36 1.268 . S
C30 O38 1.268 . S
C31 O37 1.268 . S
C31 O40 1.268 . S
O32 Sc22 2.105 . S
O32 C26 1.268 . S
O33 Sc23 2.105 . S
O33 C27 1.268 . S
O34 Sc24 2.105 . S
O34 C28 1.268 . S
O35 Sc22 2.105 . S
O35 C29 1.268 . S
O36 Sc24 2.105 1_565 S
O36 C30 1.268 . S
O37 Sc23 2.105 . S
O37 C31 1.268 . S
O38 Sc22 2.105 1_565 S
O38 C30 1.268 . S
O39 Sc23 2.105 . S
O39 C29 1.268 . S
O40 Sc24 2.105 . S
O40 C31 1.268 . S
O41 Sc22 2.105 . S
O41 C27 1.268 . S
O42 Sc24 2.103 1_565 S
O42 C26 1.257 1_565 S
O43 Sc23 2.105 . S
O43 C28 1.268 . S
Sc44 O47 2.025 . S
Sc44 O54 2.105 . S
Sc44 O57 2.105 . S
Sc44 O60 2.105 . S
Sc44 O63 2.105 . S
Sc45 O47 2.025 . S
Sc45 O55 2.105 . S
Sc45 O59 2.105 . S
Sc45 O61 2.105 . S
Sc45 O65 2.105 . S
Sc46 O47 2.025 . S
Sc46 O56 2.105 . S
Sc46 O58 2.105 . S
Sc46 O62 2.105 . S
Sc46 O64 2.105 . S
O47 Sc44 2.025 . S
O47 Sc45 2.025 . S
O47 Sc46 2.025 . S
C48 O54 1.268 . S
C48 O64 1.268 . S
C49 O55 1.268 . S
C49 O63 1.268 . S
C50 O56 1.268 . S
C50 O65 1.268 . S
C51 O57 1.268 . S
C51 O61 1.268 . S
C52 O58 1.268 . S
C52 O60 1.268 . S
C53 O59 1.268 . S
C53 O62 1.268 . S
O54 Sc44 2.105 . S
O54 C48 1.268 . S
O55 Sc45 2.105 . S
O55 C49 1.268 . S
O56 Sc46 2.105 . S
O56 C50 1.268 . S
O57 Sc44 2.105 . S
O57 C51 1.268 . S
O58 Sc46 2.105 . S
O58 C52 1.268 . S
O59 Sc45 2.105 . S
O59 C53 1.268 . S
O60 Sc44 2.105 . S
O60 C52 1.268 . S
O61 Sc45 2.105 . S
O61 C51 1.268 . S
O62 Sc46 2.105 . S
O62 C53 1.268 . S
O63 Sc44 2.105 . S
O63 C49 1.268 . S
O64 Sc46 2.105 . S
O64 C48 1.268 . S
O65 Sc45 2.105 . S
O65 C50 1.268 . S
Sc66 O69 2.025 . S
Sc66 O76 2.105 . S
Sc66 O79 2.105 . S
Sc66 O82 2.105 . S
Sc66 O85 2.105 . S
Sc67 O69 2.025 . S
Sc67 O77 2.105 . S
Sc67 O81 2.105 . S
Sc67 O83 2.105 . S
Sc67 O87 2.105 . S
Sc68 O69 2.025 . S
Sc68 O78 2.105 . S
Sc68 O80 2.105 . S
Sc68 O84 2.105 . S
Sc68 O86 2.105 . S
O69 Sc66 2.025 . S
O69 Sc67 2.025 . S
O69 Sc68 2.025 . S
C70 O76 1.268 . S
C70 O86 1.268 . S
C71 O77 1.268 . S
C71 O85 1.268 . S
C72 O78 1.268 . S
C72 O87 1.268 . S
C73 O79 1.268 . S
C73 O83 1.268 . S
C74 O80 1.268 . S
C74 O82 1.268 . S
C75 O81 1.268 . S
C75 O84 1.268 . S
O76 Sc66 2.105 . S
O76 C70 1.268 . S
O77 Sc67 2.105 . S
O77 C71 1.268 . S
O78 Sc68 2.105 . S
O78 C72 1.268 . S
O79 Sc66 2.105 . S
O79 C73 1.268 . S
O80 Sc68 2.105 . S
O80 C74 1.268 . S
O81 Sc67 2.105 . S
O81 C75 1.268 . S
O82 Sc66 2.105 . S
O82 C74 1.268 . S
O83 Sc67 2.105 . S
O83 C73 1.268 . S
O84 Sc68 2.105 . S
O84 C75 1.268 . S
O85 Sc66 2.105 . S
O85 C71 1.268 . S
O86 Sc68 2.105 . S
O86 C70 1.268 . S
O87 Sc67 2.105 . S
O87 C72 1.268 . S
Sc88 O91 2.025 . S
Sc88 O98 2.105 1_455 S
Sc88 O101 2.105 . S
Sc88 O104 2.103 1_455 S
Sc88 O107 2.105 . S
Sc89 O91 2.025 . S
Sc89 O99 2.105 . S
Sc89 O103 2.105 . S
Sc89 O105 2.105 . S
Sc89 O109 2.105 . S
Sc90 O91 2.025 . S
Sc90 O100 2.105 . S
Sc90 O102 2.105 . S
Sc90 O106 2.105 . S
Sc90 O108 2.105 1_455 S
O91 Sc88 2.025 . S
O91 Sc89 2.025 . S
O91 Sc90 2.025 . S
C92 O98 1.268 . S
C92 O108 1.268 . S
C93 O99 1.268 . S
C93 O107 1.268 . S
C94 O100 1.268 . S
C94 O109 1.268 . S
C95 O101 1.268 . S
C95 O105 1.268 . S
C96 O102 1.268 . S
C96 O104 1.257 1_455 S
C97 O103 1.268 . S
C97 O106 1.268 . S
O98 Sc88 2.105 1_655 S
O98 C92 1.268 . S
O99 Sc89 2.105 . S
O99 C93 1.268 . S
O100 Sc90 2.105 . S
O100 C94 1.268 . S
O101 Sc88 2.105 . S
O101 C95 1.268 . S
O102 Sc90 2.105 . S
O102 C96 1.268 . S
O103 Sc89 2.105 . S
O103 C97 1.268 . S
O104 Sc88 2.103 1_655 S
O104 C96 1.257 1_655 S
O105 Sc89 2.105 . S
O105 C95 1.268 . S
O106 Sc90 2.105 . S
O106 C97 1.268 . S
O107 Sc88 2.105 . S
O107 C93 1.268 . S
O108 Sc90 2.105 1_655 S
O108 C92 1.268 . S
O109 Sc89 2.105 . S
O109 C94 1.268 . S
Sc110 O113 2.025 . S
Sc110 O120 2.105 . S
Sc110 O123 2.105 . S
Sc110 O126 2.105 1_545 S
Sc110 O129 2.105 . S
Sc111 O113 2.025 . S
Sc111 O121 2.105 . S
Sc111 O125 2.105 . S
Sc111 O127 2.105 . S
Sc111 O131 2.105 . S
Sc112 O113 2.025 . S
Sc112 O122 2.105 . S
Sc112 O124 2.105 1_545 S
Sc112 O128 2.105 . S
Sc112 O130 2.103 1_545 S
O113 Sc110 2.025 . S
O113 Sc111 2.025 . S
O113 Sc112 2.025 . S
C114 O120 1.268 . S
C114 O130 1.257 1_545 S
C115 O121 1.268 . S
C115 O129 1.268 . S
C116 O122 1.268 . S
C116 O131 1.268 . S
C117 O123 1.268 . S
C117 O127 1.268 . S
C118 O124 1.268 . S
C118 O126 1.268 . S
C119 O125 1.268 . S
C119 O128 1.268 . S
O120 Sc110 2.105 . S
O120 C114 1.268 . S
O121 Sc111 2.105 . S
O121 C115 1.268 . S
O122 Sc112 2.105 . S
O122 C116 1.268 . S
O123 Sc110 2.105 . S
O123 C117 1.268 . S
O124 Sc112 2.105 1_565 S
O124 C118 1.268 . S
O125 Sc111 2.105 . S
O125 C119 1.268 . S
O126 Sc110 2.105 1_565 S
O126 C118 1.268 . S
O127 Sc111 2.105 . S
O127 C117 1.268 . S
O128 Sc112 2.105 . S
O128 C119 1.268 . S
O129 Sc110 2.105 . S
O129 C115 1.268 . S
O130 Sc112 2.103 1_565 S
O130 C114 1.257 1_565 S
O131 Sc111 2.105 . S
O131 C116 1.268 . S
Sc132 O135 2.025 . S
Sc132 O142 2.105 . S
Sc132 O145 2.105 . S
Sc132 O148 2.105 . S
Sc132 O151 2.105 . S
Sc133 O135 2.025 . S
Sc133 O143 2.105 . S
Sc133 O147 2.105 . S
Sc133 O149 2.105 . S
Sc133 O153 2.105 . S
Sc134 O135 2.025 . S
Sc134 O144 2.105 . S
Sc134 O146 2.105 . S
Sc134 O150 2.105 . S
Sc134 O152 2.105 . S
O135 Sc132 2.025 . S
O135 Sc133 2.025 . S
O135 Sc134 2.025 . S
C136 O142 1.268 . S
C136 O152 1.268 . S
C137 O143 1.268 . S
C137 O151 1.268 . S
C138 O144 1.268 . S
C138 O153 1.268 . S
C139 O145 1.268 . S
C139 O149 1.268 . S
C140 O146 1.268 . S
C140 O148 1.268 . S
C141 O147 1.268 . S
C141 O150 1.268 . S
O142 Sc132 2.105 . S
O142 C136 1.268 . S
O143 Sc133 2.105 . S
O143 C137 1.268 . S
O144 Sc134 2.105 . S
O144 C138 1.268 . S
O145 Sc132 2.105 . S
O145 C139 1.268 . S
O146 Sc134 2.105 . S
O146 C140 1.268 . S
O147 Sc133 2.105 . S
O147 C141 1.268 . S
O148 Sc132 2.105 . S
O148 C140 1.268 . S
O149 Sc133 2.105 . S
O149 C139 1.268 . S
O150 Sc134 2.105 . S
O150 C141 1.268 . S
O151 Sc132 2.105 . S
O151 C137 1.268 . S
O152 Sc134 2.105 . S
O152 C136 1.268 . S
O153 Sc133 2.105 . S
O153 C138 1.268 . S
Sc154 O157 2.025 . S
Sc154 O164 2.105 . S
Sc154 O167 2.105 . S
Sc154 O170 2.105 . S
Sc154 O173 2.105 . S
Sc155 O157 2.025 . S
Sc155 O165 2.105 . S
Sc155 O169 2.105 . S
Sc155 O171 2.105 . S
Sc155 O175 2.105 . S
Sc156 O157 2.025 . S
Sc156 O166 2.105 . S
Sc156 O168 2.105 . S
Sc156 O172 2.105 . S
Sc156 O174 2.105 . S
O157 Sc154 2.025 . S
O157 Sc155 2.025 . S
O157 Sc156 2.025 . S
C158 O164 1.268 . S
C158 O174 1.268 . S
C159 O165 1.268 . S
C159 O173 1.268 . S
C160 O166 1.268 . S
C160 O175 1.268 . S
C161 O167 1.268 . S
C161 O171 1.268 . S
C162 O168 1.268 . S
C162 O170 1.268 . S
C163 O169 1.268 . S
C163 O172 1.268 . S
O164 Sc154 2.105 . S
O164 C158 1.268 . S
O165 Sc155 2.105 . S
O165 C159 1.268 . S
O166 Sc156 2.105 . S
O166 C160 1.268 . S
O167 Sc154 2.105 . S
O167 C161 1.268 . S
O168 Sc156 2.105 . S
O168 C162 1.268 . S
O169 Sc155 2.105 . S
O169 C163 1.268 . S
O170 Sc154 2.105 . S
O170 C162 1.268 . S
O171 Sc155 2.105 . S
O171 C161 1.268 . S
O172 Sc156 2.105 . S
O172 C163 1.268 . S
O173 Sc154 2.105 . S
O173 C159 1.268 . S
O174 Sc156 2.105 . S
O174 C158 1.268 . S
O175 Sc155 2.105 . S
O175 C160 1.268 . S
Sc176 O179 2.025 . S
Sc176 O186 2.103 1_655 S
Sc176 O189 2.105 . S
Sc176 O192 2.105 1_655 S
Sc176 O195 2.105 . S
Sc177 O179 2.025 . S
Sc177 O187 2.105 . S
Sc177 O191 2.105 . S
Sc177 O193 2.105 . S
Sc177 O197 2.105 . S
Sc178 O179 2.025 . S
Sc178 O188 2.105 . S
Sc178 O190 2.105 1_655 S
Sc178 O194 2.105 . S
Sc178 O196 2.105 . S
O179 Sc176 2.025 . S
O179 Sc177 2.025 . S
O179 Sc178 2.025 . S
C180 O186 1.257 1_655 S
C180 O196 1.268 . S
C181 O187 1.268 . S
C181 O195 1.268 . S
C182 O188 1.268 . S
C182 O197 1.268 . S
C183 O189 1.268 . S
C183 O193 1.268 . S
C184 O190 1.268 . S
C184 O192 1.268 . S
C185 O191 1.268 . S
C185 O194 1.268 . S
O186 Sc176 2.103 1_455 S
O186 C180 1.257 1_455 S
O187 Sc177 2.105 . S
O187 C181 1.268 . S
O188 Sc178 2.105 . S
O188 C182 1.268 . S
O189 Sc176 2.105 . S
O189 C183 1.268 . S
O190 Sc178 2.105 1_455 S
O190 C184 1.268 . S
O191 Sc177 2.105 . S
O191 C185 1.268 . S
O192 Sc176 2.105 1_455 S
O192 C184 1.268 . S
O193 Sc177 2.105 . S
O193 C183 1.268 . S
O194 Sc178 2.105 . S
O194 C185 1.268 . S
O195 Sc176 2.105 . S
O195 C181 1.268 . S
O196 Sc178 2.105 . S
O196 C180 1.268 . S
O197 Sc177 2.105 . S
O197 C182 1.268 . S
Sc198 O201 2.025 . S
Sc198 O208 2.105 1_565 S
Sc198 O211 2.105 . S
Sc198 O214 2.105 . S
Sc198 O217 2.105 . S
Sc199 O201 2.025 . S
Sc199 O209 2.105 . S
Sc199 O213 2.105 . S
Sc199 O215 2.105 . S
Sc199 O219 2.105 . S
Sc200 O201 2.025 . S
Sc200 O210 2.105 . S
Sc200 O212 2.103 1_565 S
Sc200 O216 2.105 . S
Sc200 O218 2.105 1_565 S
O201 Sc198 2.025 . S
O201 Sc199 2.025 . S
O201 Sc200 2.025 . S
C202 O208 1.268 . S
C202 O218 1.268 . S
C203 O209 1.268 . S
C203 O217 1.268 . S
C204 O210 1.268 . S
C204 O219 1.268 . S
C205 O211 1.268 . S
C205 O215 1.268 . S
C206 O212 1.257 1_565 S
C206 O214 1.268 . S
C207 O213 1.268 . S
C207 O216 1.268 . S
O208 Sc198 2.105 1_545 S
O208 C202 1.268 . S
O209 Sc199 2.105 . S
O209 C203 1.268 . S
O210 Sc200 2.105 . S
O210 C204 1.268 . S
O211 Sc198 2.105 . S
O211 C205 1.268 . S
O212 Sc200 2.103 1_545 S
O212 C206 1.257 1_545 S
O213 Sc199 2.105 . S
O213 C207 1.268 . S
O214 Sc198 2.105 . S
O214 C206 1.268 . S
O215 Sc199 2.105 . S
O215 C205 1.268 . S
O216 Sc200 2.105 . S
O216 C207 1.268 . S
O217 Sc198 2.105 . S
O217 C203 1.268 . S
O218 Sc200 2.105 1_545 S
O218 C202 1.268 . S
O219 Sc199 2.105 . S
O219 C204 1.268 . S
Sc220 O223 2.025 . S
Sc220 O230 2.105 . S
Sc220 O233 2.105 . S
Sc220 O236 2.105 . S
Sc220 O239 2.105 . S
Sc221 O223 2.025 . S
Sc221 O231 2.105 . S
Sc221 O235 2.105 . S
Sc221 O237 2.105 . S
Sc221 O241 2.105 . S
Sc222 O223 2.025 . S
Sc222 O232 2.105 . S
Sc222 O234 2.105 . S
Sc222 O238 2.105 . S
Sc222 O240 2.105 . S
O223 Sc220 2.025 . S
O223 Sc221 2.025 . S
O223 Sc222 2.025 . S
C224 O230 1.268 . S
C224 O240 1.268 . S
C225 O231 1.268 . S
C225 O239 1.268 . S
C226 O232 1.268 . S
C226 O241 1.268 . S
C227 O233 1.268 . S
C227 O237 1.268 . S
C228 O234 1.268 . S
C228 O236 1.268 . S
C229 O235 1.268 . S
C229 O238 1.268 . S
O230 Sc220 2.105 . S
O230 C224 1.268 . S
O231 Sc221 2.105 . S
O231 C225 1.268 . S
O232 Sc222 2.105 . S
O232 C226 1.268 . S
O233 Sc220 2.105 . S
O233 C227 1.268 . S
O234 Sc222 2.105 . S
O234 C228 1.268 . S
O235 Sc221 2.105 . S
O235 C229 1.268 . S
O236 Sc220 2.105 . S
O236 C228 1.268 . S
O237 Sc221 2.105 . S
O237 C227 1.268 . S
O238 Sc222 2.105 . S
O238 C229 1.268 . S
O239 Sc220 2.105 . S
O239 C225 1.268 . S
O240 Sc222 2.105 . S
O240 C224 1.268 . S
O241 Sc221 2.105 . S
O241 C226 1.268 . S
Sc242 O245 2.025 . S
Sc242 O252 2.105 . S
Sc242 O255 2.105 . S
Sc242 O258 2.105 . S
Sc242 O261 2.105 . S
Sc243 O245 2.025 . S
Sc243 O253 2.105 . S
Sc243 O257 2.105 . S
Sc243 O259 2.105 . S
Sc243 O263 2.105 . S
Sc244 O245 2.025 . S
Sc244 O254 2.105 . S
Sc244 O256 2.105 . S
Sc244 O260 2.105 . S
Sc244 O262 2.105 . S
O245 Sc242 2.025 . S
O245 Sc243 2.025 . S
O245 Sc244 2.025 . S
C246 O252 1.268 . S
C246 O262 1.268 . S
C247 O253 1.268 . S
C247 O261 1.268 . S
C248 O254 1.268 . S
C248 O263 1.268 . S
C249 O255 1.268 . S
C249 O259 1.268 . S
C250 O256 1.268 . S
C250 O258 1.268 . S
C251 O257 1.268 . S
C251 O260 1.268 . S
O252 Sc242 2.105 . S
O252 C246 1.268 . S
O253 Sc243 2.105 . S
O253 C247 1.268 . S
O254 Sc244 2.105 . S
O254 C248 1.268 . S
O255 Sc242 2.105 . S
O255 C249 1.268 . S
O256 Sc244 2.105 . S
O256 C250 1.268 . S
O257 Sc243 2.105 . S
O257 C251 1.268 . S
O258 Sc242 2.105 . S
O258 C250 1.268 . S
O259 Sc243 2.105 . S
O259 C249 1.268 . S
O260 Sc244 2.105 . S
O260 C251 1.268 . S
O261 Sc242 2.105 . S
O261 C247 1.268 . S
O262 Sc244 2.105 . S
O262 C246 1.268 . S
O263 Sc243 2.105 . S
O263 C248 1.268 . S
Sc264 O267 2.025 . S
Sc264 O274 2.105 1_655 S
Sc264 O277 2.105 . S
Sc264 O280 2.105 . S
Sc264 O283 2.105 . S
Sc265 O267 2.025 . S
Sc265 O275 2.105 . S
Sc265 O279 2.105 . S
Sc265 O281 2.105 . S
Sc265 O285 2.105 . S
Sc266 O267 2.025 . S
Sc266 O276 2.105 . S
Sc266 O278 2.103 1_655 S
Sc266 O282 2.105 . S
Sc266 O284 2.105 1_655 S
O267 Sc264 2.025 . S
O267 Sc265 2.025 . S
O267 Sc266 2.025 . S
C268 O274 1.268 . S
C268 O284 1.268 . S
C269 O275 1.268 . S
C269 O283 1.268 . S
C270 O276 1.268 . S
C270 O285 1.268 . S
C271 O277 1.268 . S
C271 O281 1.268 . S
C272 O278 1.257 1_655 S
C272 O280 1.268 . S
C273 O279 1.268 . S
C273 O282 1.268 . S
O274 Sc264 2.105 1_455 S
O274 C268 1.268 . S
O275 Sc265 2.105 . S
O275 C269 1.268 . S
O276 Sc266 2.105 . S
O276 C270 1.268 . S
O277 Sc264 2.105 . S
O277 C271 1.268 . S
O278 Sc266 2.103 1_455 S
O278 C272 1.257 1_455 S
O279 Sc265 2.105 . S
O279 C273 1.268 . S
O280 Sc264 2.105 . S
O280 C272 1.268 . S
O281 Sc265 2.105 . S
O281 C271 1.268 . S
O282 Sc266 2.105 . S
O282 C273 1.268 . S
O283 Sc264 2.105 . S
O283 C269 1.268 . S
O284 Sc266 2.105 1_455 S
O284 C268 1.268 . S
O285 Sc265 2.105 . S
O285 C270 1.268 . S
Sc286 O289 2.025 . S
Sc286 O296 2.105 1_565 S
Sc286 O299 2.105 . S
Sc286 O302 2.105 . S
Sc286 O305 2.105 . S
Sc287 O289 2.025 . S
Sc287 O297 2.105 . S
Sc287 O301 2.105 . S
Sc287 O303 2.105 . S
Sc287 O307 2.105 . S
Sc288 O289 2.025 . S
Sc288 O298 2.105 . S
Sc288 O300 2.103 1_565 S
Sc288 O304 2.105 . S
Sc288 O306 2.105 1_565 S
O289 Sc286 2.025 . S
O289 Sc287 2.025 . S
O289 Sc288 2.025 . S
C290 O296 1.268 . S
C290 O306 1.268 . S
C291 O297 1.268 . S
C291 O305 1.268 . S
C292 O298 1.268 . S
C292 O307 1.268 . S
C293 O299 1.268 . S
C293 O303 1.268 . S
C294 O300 1.257 1_565 S
C294 O302 1.268 . S
C295 O301 1.268 . S
C295 O304 1.268 . S
O296 Sc286 2.105 1_545 S
O296 C290 1.268 . S
O297 Sc287 2.105 . S
O297 C291 1.268 . S
O298 Sc288 2.105 . S
O298 C292 1.268 . S
O299 Sc286 2.105 . S
O299 C293 1.268 . S
O300 Sc288 2.103 1_545 S
O300 C294 1.257 1_545 S
O301 Sc287 2.105 . S
O301 C295 1.268 . S
O302 Sc286 2.105 . S
O302 C294 1.268 . S
O303 Sc287 2.105 . S
O303 C293 1.268 . S
O304 Sc288 2.105 . S
O304 C295 1.268 . S
O305 Sc286 2.105 . S
O305 C291 1.268 . S
O306 Sc288 2.105 1_545 S
O306 C290 1.268 . S
O307 Sc287 2.105 . S
O307 C292 1.268 . S
Sc308 O311 2.025 . S
Sc308 O318 2.105 . S
Sc308 O321 2.105 . S
Sc308 O324 2.105 . S
Sc308 O327 2.105 . S
Sc309 O311 2.025 . S
Sc309 O319 2.105 . S
Sc309 O323 2.105 . S
Sc309 O325 2.105 . S
Sc309 O329 2.105 . S
Sc310 O311 2.025 . S
Sc310 O320 2.105 . S
Sc310 O322 2.105 . S
Sc310 O326 2.105 . S
Sc310 O328 2.105 . S
O311 Sc308 2.025 . S
O311 Sc309 2.025 . S
O311 Sc310 2.025 . S
C312 O318 1.268 . S
C312 O328 1.268 . S
C313 O319 1.268 . S
C313 O327 1.268 . S
C314 O320 1.268 . S
C314 O329 1.268 . S
C315 O321 1.268 . S
C315 O325 1.268 . S
C316 O322 1.268 . S
C316 O324 1.268 . S
C317 O323 1.268 . S
C317 O326 1.268 . S
O318 Sc308 2.105 . S
O318 C312 1.268 . S
O319 Sc309 2.105 . S
O319 C313 1.268 . S
O320 Sc310 2.105 . S
O320 C314 1.268 . S
O321 Sc308 2.105 . S
O321 C315 1.268 . S
O322 Sc310 2.105 . S
O322 C316 1.268 . S
O323 Sc309 2.105 . S
O323 C317 1.268 . S
O324 Sc308 2.105 . S
O324 C316 1.268 . S
O325 Sc309 2.105 . S
O325 C315 1.268 . S
O326 Sc310 2.105 . S
O326 C317 1.268 . S
O327 Sc308 2.105 . S
O327 C313 1.268 . S
O328 Sc310 2.105 . S
O328 C312 1.268 . S
O329 Sc309 2.105 . S
O329 C314 1.268 . S
Sc330 O333 2.025 . S
Sc330 O340 2.105 . S
Sc330 O343 2.105 . S
Sc330 O346 2.105 . S
Sc330 O349 2.105 . S
Sc331 O333 2.025 . S
Sc331 O341 2.105 . S
Sc331 O345 2.105 . S
Sc331 O347 2.105 . S
Sc331 O351 2.105 . S
Sc332 O333 2.025 . S
Sc332 O342 2.105 . S
Sc332 O344 2.105 . S
Sc332 O348 2.105 . S
Sc332 O350 2.105 . S
O333 Sc330 2.025 . S
O333 Sc331 2.025 . S
O333 Sc332 2.025 . S
C334 O340 1.268 . S
C334 O350 1.268 . S
C335 O341 1.268 . S
C335 O349 1.268 . S
C336 O342 1.268 . S
C336 O351 1.268 . S
C337 O343 1.268 . S
C337 O347 1.268 . S
C338 O344 1.268 . S
C338 O346 1.268 . S
C339 O345 1.268 . S
C339 O348 1.268 . S
O340 Sc330 2.105 . S
O340 C334 1.268 . S
O341 Sc331 2.105 . S
O341 C335 1.268 . S
O342 Sc332 2.105 . S
O342 C336 1.268 . S
O343 Sc330 2.105 . S
O343 C337 1.268 . S
O344 Sc332 2.105 . S
O344 C338 1.268 . S
O345 Sc331 2.105 . S
O345 C339 1.268 . S
O346 Sc330 2.105 . S
O346 C338 1.268 . S
O347 Sc331 2.105 . S
O347 C337 1.268 . S
O348 Sc332 2.105 . S
O348 C339 1.268 . S
O349 Sc330 2.105 . S
O349 C335 1.268 . S
O350 Sc332 2.105 . S
O350 C334 1.268 . S
O351 Sc331 2.105 . S
O351 C336 1.268 . S
C352 C353 1.349 . S
C352 C354 1.327 . S
C352 H377 0.950 . S
C353 C352 1.349 . S
C353 C369 1.349 . S
C354 C352 1.327 . S
C354 C373 1.429 . S
C354 H378 0.950 . S
C355 C372 1.574 . S
C355 C374 1.368 . S
C355 H379 0.949 . S
H356 C360 0.949 . S
C357 C358 1.349 . S
C357 C359 1.327 . S
C357 H380 0.950 . S
C358 C357 1.349 . S
C358 C370 1.349 . S
C359 C357 1.327 . S
C359 C375 1.429 . S
C359 H381 0.950 . S
C360 H356 0.949 . S
C360 C368 1.574 . S
C360 C376 1.368 . S
H361 C369 0.950 . S
H362 C367 0.950 . S
H363 C368 0.949 . S
H364 C370 0.950 . S
H365 C371 0.950 . S
H366 C372 0.949 . S
C367 H362 0.950 . S
C367 C369 1.327 . S
C367 C373 1.429 . S
C368 C360 1.574 . S
C368 H363 0.949 . S
C368 C374 1.368 . S
C369 C353 1.349 . S
C369 H361 0.950 . S
C369 C367 1.327 . S
C370 C358 1.349 . S
C370 H364 0.950 . S
C370 C371 1.327 . S
C371 H365 0.950 . S
C371 C370 1.327 . S
C371 C375 1.429 . S
C372 C355 1.574 . S
C372 H366 0.949 . S
C372 C376 1.368 . S
C373 C354 1.429 . S
C373 C367 1.429 . S
C373 C374 1.523 . S
C374 C355 1.368 . S
C374 C368 1.368 . S
C374 C373 1.523 . S
C375 C359 1.429 . S
C375 C371 1.429 . S
C375 C376 1.523 . S
C376 C360 1.368 . S
C376 C372 1.368 . S
C376 C375 1.523 . S
H377 C352 0.950 . S
H378 C354 0.950 . S
H379 C355 0.949 . S
H380 C357 0.950 . S
H381 C359 0.950 . S
C382 C383 1.349 1_655 S
C382 C384 1.327 . S
C382 H407 0.950 . S
C383 C382 1.349 1_455 S
C383 C399 1.349 . S
C384 C382 1.327 . S
C384 C403 1.429 . S
C384 H408 0.950 . S
C385 C402 1.574 . S
C385 C404 1.368 . S
C385 H409 0.949 . S
H386 C390 0.949 . S
C387 C388 1.349 . S
C387 C389 1.327 . S
C387 H410 0.950 . S
C388 C387 1.349 . S
C388 C400 1.349 . S
C389 C387 1.327 . S
C389 C405 1.429 . S
C389 H411 0.950 . S
C390 H386 0.949 . S
C390 C398 1.574 . S
C390 C406 1.368 . S
H391 C399 0.950 . S
H392 C397 0.950 . S
H393 C398 0.949 . S
H394 C400 0.950 . S
H395 C401 0.950 . S
H396 C402 0.949 . S
C397 H392 0.950 . S
C397 C399 1.327 1_655 S
C397 C403 1.429 . S
C398 C390 1.574 . S
C398 H393 0.949 . S
C398 C404 1.368 . S
C399 C383 1.349 . S
C399 H391 0.950 . S
C399 C397 1.327 1_455 S
C400 C388 1.349 . S
C400 H394 0.950 . S
C400 C401 1.327 . S
C401 H395 0.950 . S
C401 C400 1.327 . S
C401 C405 1.429 . S
C402 C385 1.574 . S
C402 H396 0.949 . S
C402 C406 1.368 . S
C403 C384 1.429 . S
C403 C397 1.429 . S
C403 C404 1.523 . S
C404 C385 1.368 . S
C404 C398 1.368 . S
C404 C403 1.523 . S
C405 C389 1.429 . S
C405 C401 1.429 . S
C405 C406 1.523 . S
C406 C390 1.368 . S
C406 C402 1.368 . S
C406 C405 1.523 . S
H407 C382 0.950 . S
H408 C384 0.950 . S
H409 C385 0.949 . S
H410 C387 0.950 . S
H411 C389 0.950 . S
C412 C413 1.349 . S
C412 C414 1.327 . S
C412 H437 0.950 . S
C413 C412 1.349 . S
C413 C429 1.349 . S
C414 C412 1.327 . S
C414 C433 1.429 . S
C414 H438 0.950 . S
C415 C432 1.574 . S
C415 C434 1.368 . S
C415 H439 0.949 . S
H416 C420 0.949 . S
C417 C418 1.349 . S
C417 C419 1.327 1_545 S
C417 H440 0.950 . S
C418 C417 1.349 . S
C418 C430 1.349 1_545 S
C419 C417 1.327 1_565 S
C419 C435 1.429 . S
C419 H441 0.944 1_565 S
C420 H416 0.949 . S
C420 C428 1.574 . S
C420 C436 1.368 . S
H421 C429 0.950 . S
H422 C427 0.950 . S
H423 C428 0.949 . S
H424 C430 0.950 . S
H425 C431 0.950 . S
H426 C432 0.949 . S
C427 H422 0.950 . S
C427 C429 1.327 . S
C427 C433 1.429 . S
C428 C420 1.574 . S
C428 H423 0.949 . S
C428 C434 1.368 . S
C429 C413 1.349 . S
C429 H421 0.950 . S
C429 C427 1.327 . S
C430 C418 1.349 1_565 S
C430 H424 0.950 . S
C430 C431 1.327 . S
C431 H425 0.950 . S
C431 C430 1.327 . S
C431 C435 1.429 . S
C432 C415 1.574 . S
C432 H426 0.949 . S
C432 C436 1.368 . S
C433 C414 1.429 . S
C433 C427 1.429 . S
C433 C434 1.523 . S
C434 C415 1.368 . S
C434 C428 1.368 . S
C434 C433 1.523 . S
C435 C419 1.429 . S
C435 C431 1.429 . S
C435 C436 1.523 . S
C436 C420 1.368 . S
C436 C432 1.368 . S
C436 C435 1.523 . S
H437 C412 0.950 . S
H438 C414 0.950 . S
H439 C415 0.949 . S
H440 C417 0.950 . S
H441 C419 0.944 1_545 S
C442 C443 1.349 . S
C442 C444 1.327 . S
C442 H467 0.950 . S
C443 C442 1.349 . S
C443 C459 1.349 . S
C444 C442 1.327 . S
C444 C463 1.429 . S
C444 H468 0.950 . S
C445 C462 1.574 . S
C445 C464 1.368 . S
C445 H469 0.949 . S
H446 C450 0.949 . S
C447 C448 1.349 . S
C447 C449 1.327 . S
C447 H470 0.950 . S
C448 C447 1.349 . S
C448 C460 1.349 . S
C449 C447 1.327 . S
C449 C465 1.429 . S
C449 H471 0.950 . S
C450 H446 0.949 . S
C450 C458 1.574 . S
C450 C466 1.368 . S
H451 C459 0.950 . S
H452 C457 0.950 . S
H453 C458 0.949 . S
H454 C460 0.950 . S
H455 C461 0.950 . S
H456 C462 0.949 . S
C457 H452 0.950 . S
C457 C459 1.327 . S
C457 C463 1.429 . S
C458 C450 1.574 . S
C458 H453 0.949 . S
C458 C464 1.368 . S
C459 C443 1.349 . S
C459 H451 0.950 . S
C459 C457 1.327 . S
C460 C448 1.349 . S
C460 H454 0.950 . S
C460 C461 1.327 . S
C461 H455 0.950 . S
C461 C460 1.327 . S
C461 C465 1.429 . S
C462 C445 1.574 . S
C462 H456 0.949 . S
C462 C466 1.368 . S
C463 C444 1.429 . S
C463 C457 1.429 . S
C463 C464 1.523 . S
C464 C445 1.368 . S
C464 C458 1.368 . S
C464 C463 1.523 . S
C465 C449 1.429 . S
C465 C461 1.429 . S
C465 C466 1.523 . S
C466 C450 1.368 . S
C466 C462 1.368 . S
C466 C465 1.523 . S
H467 C442 0.950 . S
H468 C444 0.950 . S
H469 C445 0.949 . S
H470 C447 0.950 . S
H471 C449 0.950 . S
C472 C473 1.349 . S
C472 C474 1.327 . S
C472 H497 0.950 . S
C473 C472 1.349 . S
C473 C489 1.349 . S
C474 C472 1.327 . S
C474 C493 1.429 . S
C474 H498 0.950 . S
C475 C492 1.574 . S
C475 C494 1.368 . S
C475 H499 0.949 . S
H476 C480 0.949 . S
C477 C478 1.349 1_565 S
C477 C479 1.327 . S
C477 H500 0.950 . S
C478 C477 1.349 1_545 S
C478 C490 1.349 . S
C479 C477 1.327 . S
C479 C495 1.429 . S
C479 H501 0.950 . S
C480 H476 0.949 . S
C480 C488 1.574 . S
C480 C496 1.368 . S
H481 C489 0.950 . S
H482 C487 0.950 . S
H483 C488 0.949 . S
H484 C490 0.950 . S
H485 C491 0.950 1_545 S
H486 C492 0.949 . S
C487 H482 0.950 . S
C487 C489 1.327 . S
C487 C493 1.429 . S
C488 C480 1.574 . S
C488 H483 0.949 . S
C488 C494 1.368 . S
C489 C473 1.349 . S
C489 H481 0.950 . S
C489 C487 1.327 . S
C490 C478 1.349 . S
C490 H484 0.950 . S
C490 C491 1.327 1_545 S
C491 H485 0.950 1_565 S
C491 C490 1.327 1_565 S
C491 C495 1.429 . S
C492 C475 1.574 . S
C492 H486 0.949 . S
C492 C496 1.368 . S
C493 C474 1.429 . S
C493 C487 1.429 . S
C493 C494 1.523 . S
C494 C475 1.368 . S
C494 C488 1.368 . S
C494 C493 1.523 . S
C495 C479 1.429 . S
C495 C491 1.429 . S
C495 C496 1.523 . S
C496 C480 1.368 . S
C496 C492 1.368 . S
C496 C495 1.523 . S
H497 C472 0.950 . S
H498 C474 0.950 . S
H499 C475 0.949 . S
H500 C477 0.950 . S
H501 C479 0.950 . S
C502 C503 1.349 . S
C502 C504 1.327 . S
C502 H527 0.950 . S
C503 C502 1.349 . S
C503 C519 1.349 . S
C504 C502 1.327 . S
C504 C523 1.429 . S
C504 H528 0.950 . S
C505 C522 1.574 . S
C505 C524 1.368 . S
C505 H529 0.949 . S
H506 C510 0.949 . S
C507 C508 1.349 . S
C507 C509 1.327 . S
C507 H530 0.950 . S
C508 C507 1.349 . S
C508 C520 1.349 . S
C509 C507 1.327 . S
C509 C525 1.429 . S
C509 H531 0.950 . S
C510 H506 0.949 . S
C510 C518 1.574 . S
C510 C526 1.368 . S
H511 C519 0.950 . S
H512 C517 0.950 . S
H513 C518 0.949 . S
H514 C520 0.950 . S
H515 C521 0.950 . S
H516 C522 0.949 . S
C517 H512 0.950 . S
C517 C519 1.327 . S
C517 C523 1.429 . S
C518 C510 1.574 . S
C518 H513 0.949 . S
C518 C524 1.368 . S
C519 C503 1.349 . S
C519 H511 0.950 . S
C519 C517 1.327 . S
C520 C508 1.349 . S
C520 H514 0.950 . S
C520 C521 1.327 . S
C521 H515 0.950 . S
C521 C520 1.327 . S
C521 C525 1.429 . S
C522 C505 1.574 . S
C522 H516 0.949 . S
C522 C526 1.368 . S
C523 C504 1.429 . S
C523 C517 1.429 . S
C523 C524 1.523 . S
C524 C505 1.368 . S
C524 C518 1.368 . S
C524 C523 1.523 . S
C525 C509 1.429 . S
C525 C521 1.429 . S
C525 C526 1.523 . S
C526 C510 1.368 . S
C526 C522 1.368 . S
C526 C525 1.523 . S
H527 C502 0.950 . S
H528 C504 0.950 . S
H529 C505 0.949 . S
H530 C507 0.950 . S
H531 C509 0.950 . S
C532 C533 1.349 . S
C532 C534 1.327 . S
C532 H557 0.950 . S
C533 C532 1.349 . S
C533 C549 1.349 . S
C534 C532 1.327 . S
C534 C553 1.429 . S
C534 H558 0.950 . S
C535 C552 1.574 . S
C535 C554 1.368 . S
C535 H559 0.949 . S
H536 C540 0.949 . S
C537 C538 1.349 . S
C537 C539 1.327 . S
C537 H560 0.950 . S
C538 C537 1.349 . S
C538 C550 1.349 . S
C539 C537 1.327 . S
C539 C555 1.429 . S
C539 H561 0.950 . S
C540 H536 0.949 . S
C540 C548 1.574 . S
C540 C556 1.368 . S
H541 C549 0.950 . S
H542 C547 0.950 . S
H543 C548 0.949 . S
H544 C550 0.950 . S
H545 C551 0.950 . S
H546 C552 0.949 . S
C547 H542 0.950 . S
C547 C549 1.327 . S
C547 C553 1.429 . S
C548 C540 1.574 . S
C548 H543 0.949 . S
C548 C554 1.368 . S
C549 C533 1.349 . S
C549 H541 0.950 . S
C549 C547 1.327 . S
C550 C538 1.349 . S
C550 H544 0.950 . S
C550 C551 1.327 . S
C551 H545 0.950 . S
C551 C550 1.327 . S
C551 C555 1.429 . S
C552 C535 1.574 . S
C552 H546 0.949 . S
C552 C556 1.368 . S
C553 C534 1.429 . S
C553 C547 1.429 . S
C553 C554 1.523 . S
C554 C535 1.368 . S
C554 C548 1.368 . S
C554 C553 1.523 . S
C555 C539 1.429 . S
C555 C551 1.429 . S
C555 C556 1.523 . S
C556 C540 1.368 . S
C556 C552 1.368 . S
C556 C555 1.523 . S
H557 C532 0.950 . S
H558 C534 0.950 . S
H559 C535 0.949 . S
H560 C537 0.950 . S
H561 C539 0.950 . S
C562 C563 1.349 1_655 S
C562 C564 1.327 . S
C562 H587 0.950 . S
C563 C562 1.349 1_455 S
C563 C579 1.349 . S
C564 C562 1.327 . S
C564 C583 1.429 . S
C564 H588 0.950 . S
C565 C582 1.574 . S
C565 C584 1.368 . S
C565 H589 0.949 . S
H566 C570 0.949 . S
C567 C568 1.349 . S
C567 C569 1.327 . S
C567 H590 0.950 . S
C568 C567 1.349 . S
C568 C580 1.349 . S
C569 C567 1.327 . S
C569 C585 1.429 . S
C569 H591 0.950 . S
C570 H566 0.949 . S
C570 C578 1.574 . S
C570 C586 1.368 . S
H571 C579 0.950 . S
H572 C577 0.950 . S
H573 C578 0.949 . S
H574 C580 0.950 . S
H575 C581 0.950 . S
H576 C582 0.949 . S
C577 H572 0.950 . S
C577 C579 1.327 1_655 S
C577 C583 1.429 . S
C578 C570 1.574 . S
C578 H573 0.949 . S
C578 C584 1.368 . S
C579 C563 1.349 . S
C579 H571 0.950 . S
C579 C577 1.327 1_455 S
C580 C568 1.349 . S
C580 H574 0.950 . S
C580 C581 1.327 . S
C581 H575 0.950 . S
C581 C580 1.327 . S
C581 C585 1.429 . S
C582 C565 1.574 . S
C582 H576 0.949 . S
C582 C586 1.368 . S
C583 C564 1.429 . S
C583 C577 1.429 . S
C583 C584 1.523 . S
C584 C565 1.368 . S
C584 C578 1.368 . S
C584 C583 1.523 . S
C585 C569 1.429 . S
C585 C581 1.429 . S
C585 C586 1.523 . S
C586 C570 1.368 . S
C586 C582 1.368 . S
C586 C585 1.523 . S
H587 C562 0.950 . S
H588 C564 0.950 . S
H589 C565 0.949 . S
H590 C567 0.950 . S
H591 C569 0.950 . S
C592 C593 1.349 . S
C592 C594 1.327 . S
C592 H617 0.950 . S
C593 C592 1.349 . S
C593 C609 1.349 . S
C594 C592 1.327 . S
C594 C613 1.429 . S
C594 H618 0.950 . S
C595 C612 1.574 . S
C595 C614 1.368 . S
C595 H619 0.949 . S
H596 C600 0.949 . S
C597 C598 1.349 . S
C597 C599 1.327 . S
C597 H620 0.950 . S
C598 C597 1.349 . S
C598 C610 1.349 . S
C599 C597 1.327 . S
C599 C615 1.429 . S
C599 H621 0.950 . S
C600 H596 0.949 . S
C600 C608 1.574 . S
C600 C616 1.368 . S
H601 C609 0.950 . S
H602 C607 0.950 . S
H603 C608 0.949 . S
H604 C610 0.950 . S
H605 C611 0.950 . S
H606 C612 0.949 . S
C607 H602 0.950 . S
C607 C609 1.327 . S
C607 C613 1.429 . S
C608 C600 1.574 . S
C608 H603 0.949 . S
C608 C614 1.368 . S
C609 C593 1.349 . S
C609 H601 0.950 . S
C609 C607 1.327 . S
C610 C598 1.349 . S
C610 H604 0.950 . S
C610 C611 1.327 . S
C611 H605 0.950 . S
C611 C610 1.327 . S
C611 C615 1.429 . S
C612 C595 1.574 . S
C612 H606 0.949 . S
C612 C616 1.368 . S
C613 C594 1.429 . S
C613 C607 1.429 . S
C613 C614 1.523 . S
C614 C595 1.368 . S
C614 C608 1.368 . S
C614 C613 1.523 . S
C615 C599 1.429 . S
C615 C611 1.429 . S
C615 C616 1.523 . S
C616 C600 1.368 . S
C616 C612 1.368 . S
C616 C615 1.523 . S
H617 C592 0.950 . S
H618 C594 0.950 . S
H619 C595 0.949 . S
H620 C597 0.950 . S
H621 C599 0.950 . S
C622 C623 1.349 1_455 S
C622 C624 1.327 . S
C622 H647 0.950 . S
C623 C622 1.349 1_655 S
C623 C639 1.349 . S
C624 C622 1.327 . S
C624 C643 1.429 . S
C624 H648 0.950 . S
C625 C642 1.574 . S
C625 C644 1.368 . S
C625 H649 0.949 . S
H626 C630 0.949 . S
C627 C628 1.349 . S
C627 C629 1.327 . S
C627 H650 0.950 . S
C628 C627 1.349 . S
C628 C640 1.349 . S
C629 C627 1.327 . S
C629 C645 1.429 . S
C629 H651 0.950 . S
C630 H626 0.949 . S
C630 C638 1.574 . S
C630 C646 1.368 . S
H631 C639 0.950 . S
H632 C637 0.950 . S
H633 C638 0.949 . S
H634 C640 0.950 . S
H635 C641 0.950 . S
H636 C642 0.949 . S
C637 H632 0.950 . S
C637 C639 1.327 1_455 S
C637 C643 1.429 . S
C638 C630 1.574 . S
C638 H633 0.949 . S
C638 C644 1.368 . S
C639 C623 1.349 . S
C639 H631 0.950 . S
C639 C637 1.327 1_655 S
C640 C628 1.349 . S
C640 H634 0.950 . S
C640 C641 1.327 . S
C641 H635 0.950 . S
C641 C640 1.327 . S
C641 C645 1.429 . S
C642 C625 1.574 . S
C642 H636 0.949 . S
C642 C646 1.368 . S
C643 C624 1.429 . S
C643 C637 1.429 . S
C643 C644 1.523 . S
C644 C625 1.368 . S
C644 C638 1.368 . S
C644 C643 1.523 . S
C645 C629 1.429 . S
C645 C641 1.429 . S
C645 C646 1.523 . S
C646 C630 1.368 . S
C646 C642 1.368 . S
C646 C645 1.523 . S
H647 C622 0.950 . S
H648 C624 0.950 . S
H649 C625 0.949 . S
H650 C627 0.950 . S
H651 C629 0.950 . S
C652 C653 1.349 1_545 S
C652 C654 1.327 . S
C652 H677 0.950 . S
C653 C652 1.349 1_565 S
C653 C669 1.349 . S
C654 C652 1.327 . S
C654 C673 1.429 . S
C654 H678 0.950 . S
C655 C672 1.574 . S
C655 C674 1.368 . S
C655 H679 0.949 . S
H656 C660 0.949 . S
C657 C658 1.349 . S
C657 C659 1.327 . S
C657 H680 0.950 . S
C658 C657 1.349 . S
C658 C670 1.349 . S
C659 C657 1.327 . S
C659 C675 1.429 . S
C659 H681 0.950 . S
C660 H656 0.949 . S
C660 C668 1.574 . S
C660 C676 1.368 . S
H661 C669 0.950 . S
H662 C667 0.950 . S
H663 C668 0.949 . S
H664 C670 0.950 . S
H665 C671 0.950 . S
H666 C672 0.949 . S
C667 H662 0.950 . S
C667 C669 1.327 1_545 S
C667 C673 1.429 . S
C668 C660 1.574 . S
C668 H663 0.949 . S
C668 C674 1.368 . S
C669 C653 1.349 . S
C669 H661 0.950 . S
C669 C667 1.327 1_565 S
C670 C658 1.349 . S
C670 H664 0.950 . S
C670 C671 1.327 . S
C671 H665 0.950 . S
C671 C670 1.327 . S
C671 C675 1.429 . S
C672 C655 1.574 . S
C672 H666 0.949 . S
C672 C676 1.368 . S
C673 C654 1.429 . S
C673 C667 1.429 . S
C673 C674 1.523 . S
C674 C655 1.368 . S
C674 C668 1.368 . S
C674 C673 1.523 . S
C675 C659 1.429 . S
C675 C671 1.429 . S
C675 C676 1.523 . S
C676 C660 1.368 . S
C676 C672 1.368 . S
C676 C675 1.523 . S
H677 C652 0.950 . S
H678 C654 0.950 . S
H679 C655 0.949 . S
H680 C657 0.950 . S
H681 C659 0.950 . S
C682 C683 1.349 . S
C682 C684 1.327 . S
C682 H707 0.950 . S
C683 C682 1.349 . S
C683 C699 1.349 . S
C684 C682 1.327 . S
C684 C703 1.429 . S
C684 H708 0.950 . S
C685 C702 1.574 . S
C685 C704 1.368 . S
C685 H709 0.949 . S
H686 C690 0.949 . S
C687 C688 1.349 . S
C687 C689 1.327 . S
C687 H710 0.950 . S
C688 C687 1.349 . S
C688 C700 1.349 . S
C689 C687 1.327 . S
C689 C705 1.429 . S
C689 H711 0.950 . S
C690 H686 0.949 . S
C690 C698 1.574 . S
C690 C706 1.368 . S
H691 C699 0.950 . S
H692 C697 0.950 . S
H693 C698 0.949 . S
H694 C700 0.950 . S
H695 C701 0.950 . S
H696 C702 0.949 . S
C697 H692 0.950 . S
C697 C699 1.327 . S
C697 C703 1.429 . S
C698 C690 1.574 . S
C698 H693 0.949 . S
C698 C704 1.368 . S
C699 C683 1.349 . S
C699 H691 0.950 . S
C699 C697 1.327 . S
C700 C688 1.349 . S
C700 H694 0.950 . S
C700 C701 1.327 . S
C701 H695 0.950 . S
C701 C700 1.327 . S
C701 C705 1.429 . S
C702 C685 1.574 . S
C702 H696 0.949 . S
C702 C706 1.368 . S
C703 C684 1.429 . S
C703 C697 1.429 . S
C703 C704 1.523 . S
C704 C685 1.368 . S
C704 C698 1.368 . S
C704 C703 1.523 . S
C705 C689 1.429 . S
C705 C701 1.429 . S
C705 C706 1.523 . S
C706 C690 1.368 . S
C706 C702 1.368 . S
C706 C705 1.523 . S
H707 C682 0.950 . S
H708 C684 0.950 . S
H709 C685 0.949 . S
H710 C687 0.950 . S
H711 C689 0.950 . S
C712 C713 1.349 . S
C712 C714 1.327 . S
C712 H737 0.950 . S
C713 C712 1.349 . S
C713 C729 1.349 . S
C714 C712 1.327 . S
C714 C733 1.429 . S
C714 H738 0.950 . S
C715 C732 1.574 . S
C715 C734 1.368 . S
C715 H739 0.949 . S
H716 C720 0.949 . S
C717 C718 1.349 1_545 S
C717 C719 1.327 . S
C717 H740 0.950 . S
C718 C717 1.349 1_565 S
C718 C730 1.349 . S
C719 C717 1.327 . S
C719 C735 1.429 . S
C719 H741 0.950 . S
C720 H716 0.949 . S
C720 C728 1.574 . S
C720 C736 1.368 . S
H721 C729 0.950 . S
H722 C727 0.950 . S
H723 C728 0.949 . S
H724 C730 0.950 . S
H725 C731 0.950 . S
H726 C732 0.949 . S
C727 H722 0.950 . S
C727 C729 1.327 . S
C727 C733 1.429 . S
C728 C720 1.574 . S
C728 H723 0.949 . S
C728 C734 1.368 . S
C729 C713 1.349 . S
C729 H721 0.950 . S
C729 C727 1.327 . S
C730 C718 1.349 . S
C730 H724 0.950 . S
C730 C731 1.327 1_565 S
C731 H725 0.950 . S
C731 C730 1.327 1_545 S
C731 C735 1.429 . S
C732 C715 1.574 . S
C732 H726 0.949 . S
C732 C736 1.368 . S
C733 C714 1.429 . S
C733 C727 1.429 . S
C733 C734 1.523 . S
C734 C715 1.368 . S
C734 C728 1.368 . S
C734 C733 1.523 . S
C735 C719 1.429 . S
C735 C731 1.429 . S
C735 C736 1.523 . S
C736 C720 1.368 . S
C736 C732 1.368 . S
C736 C735 1.523 . S
H737 C712 0.950 . S
H738 C714 0.950 . S
H739 C715 0.949 . S
H740 C717 0.950 . S
H741 C719 0.950 . S
C742 C743 1.349 . S
C742 C744 1.327 . S
C742 H767 0.950 . S
C743 C742 1.349 . S
C743 C759 1.349 . S
C744 C742 1.327 . S
C744 C763 1.429 . S
C744 H768 0.950 . S
C745 C762 1.574 . S
C745 C764 1.368 . S
C745 H769 0.949 . S
H746 C750 0.949 . S
C747 C748 1.349 . S
C747 C749 1.327 . S
C747 H770 0.950 . S
C748 C747 1.349 . S
C748 C760 1.349 . S
C749 C747 1.327 . S
C749 C765 1.429 . S
C749 H771 0.950 . S
C750 H746 0.949 . S
C750 C758 1.574 . S
C750 C766 1.368 . S
H751 C759 0.950 . S
H752 C757 0.950 . S
H753 C758 0.949 . S
H754 C760 0.950 . S
H755 C761 0.950 . S
H756 C762 0.949 . S
C757 H752 0.950 . S
C757 C759 1.327 . S
C757 C763 1.429 . S
C758 C750 1.574 . S
C758 H753 0.949 . S
C758 C764 1.368 . S
C759 C743 1.349 . S
C759 H751 0.950 . S
C759 C757 1.327 . S
C760 C748 1.349 . S
C760 H754 0.950 . S
C760 C761 1.327 . S
C761 H755 0.950 . S
C761 C760 1.327 . S
C761 C765 1.429 . S
C762 C745 1.574 . S
C762 H756 0.949 . S
C762 C766 1.368 . S
C763 C744 1.429 . S
C763 C757 1.429 . S
C763 C764 1.523 . S
C764 C745 1.368 . S
C764 C758 1.368 . S
C764 C763 1.523 . S
C765 C749 1.429 . S
C765 C761 1.429 . S
C765 C766 1.523 . S
C766 C750 1.368 . S
C766 C762 1.368 . S
C766 C765 1.523 . S
H767 C742 0.950 . S
H768 C744 0.950 . S
H769 C745 0.949 . S
H770 C747 0.950 . S
H771 C749 0.950 . S
C772 C773 1.349 . S
C772 C774 1.327 . S
C772 H797 0.950 . S
C773 C772 1.349 . S
C773 C789 1.349 . S
C774 C772 1.327 . S
C774 C793 1.429 . S
C774 H798 0.950 . S
C775 C792 1.574 . S
C775 C794 1.368 . S
C775 H799 0.949 . S
H776 C780 0.949 . S
C777 C778 1.349 . S
C777 C779 1.327 . S
C777 H800 0.950 . S
C778 C777 1.349 . S
C778 C790 1.349 . S
C779 C777 1.327 . S
C779 C795 1.429 . S
C779 H801 0.950 . S
C780 H776 0.949 . S
C780 C788 1.574 . S
C780 C796 1.368 . S
H781 C789 0.950 . S
H782 C787 0.950 . S
H783 C788 0.949 . S
H784 C790 0.950 . S
H785 C791 0.950 . S
H786 C792 0.949 . S
C787 H782 0.950 . S
C787 C789 1.327 . S
C787 C793 1.429 . S
C788 C780 1.574 . S
C788 H783 0.949 . S
C788 C794 1.368 . S
C789 C773 1.349 . S
C789 H781 0.950 . S
C789 C787 1.327 . S
C790 C778 1.349 . S
C790 H784 0.950 . S
C790 C791 1.327 . S
C791 H785 0.950 . S
C791 C790 1.327 . S
C791 C795 1.429 . S
C792 C775 1.574 . S
C792 H786 0.949 . S
C792 C796 1.368 . S
C793 C774 1.429 . S
C793 C787 1.429 . S
C793 C794 1.523 . S
C794 C775 1.368 . S
C794 C788 1.368 . S
C794 C793 1.523 . S
C795 C779 1.429 . S
C795 C791 1.429 . S
C795 C796 1.523 . S
C796 C780 1.368 . S
C796 C792 1.368 . S
C796 C795 1.523 . S
H797 C772 0.950 . S
H798 C774 0.950 . S
H799 C775 0.949 . S
H800 C777 0.950 . S
H801 C779 0.950 . S
C802 C803 1.349 . S
C802 C804 1.327 . S
C802 H827 0.950 . S
C803 C802 1.349 . S
C803 C819 1.349 . S
C804 C802 1.327 . S
C804 C823 1.429 . S
C804 H828 0.950 . S
C805 C822 1.574 . S
C805 C824 1.368 . S
C805 H829 0.949 . S
H806 C810 0.949 . S
C807 C808 1.349 . S
C807 C809 1.327 1_655 S
C807 H830 0.950 . S
C808 C807 1.349 . S
C808 C820 1.349 1_655 S
C809 C807 1.327 1_455 S
C809 C825 1.429 . S
C809 H831 0.950 . S
C810 H806 0.949 . S
C810 C818 1.574 . S
C810 C826 1.368 . S
H811 C819 0.950 . S
H812 C817 0.950 . S
H813 C818 0.949 . S
H814 C820 0.950 . S
H815 C821 0.950 . S
H816 C822 0.949 . S
C817 H812 0.950 . S
C817 C819 1.327 . S
C817 C823 1.429 . S
C818 C810 1.574 . S
C818 H813 0.949 . S
C818 C824 1.368 . S
C819 C803 1.349 . S
C819 H811 0.950 . S
C819 C817 1.327 . S
C820 C808 1.349 1_455 S
C820 H814 0.950 . S
C820 C821 1.327 . S
C821 H815 0.950 . S
C821 C820 1.327 . S
C821 C825 1.429 . S
C822 C805 1.574 . S
C822 H816 0.949 . S
C822 C826 1.368 . S
C823 C804 1.429 . S
C823 C817 1.429 . S
C823 C824 1.523 . S
C824 C805 1.368 . S
C824 C818 1.368 . S
C824 C823 1.523 . S
C825 C809 1.429 . S
C825 C821 1.429 . S
C825 C826 1.523 . S
C826 C810 1.368 . S
C826 C822 1.368 . S
C826 C825 1.523 . S
H827 C802 0.950 . S
H828 C804 0.950 . S
H829 C805 0.949 . S
H830 C807 0.950 . S
H831 C809 0.950 . S
C832 C833 1.349 . S
C832 C834 1.327 . S
C832 H857 0.950 . S
C833 C832 1.349 . S
C833 C849 1.349 . S
C834 C832 1.327 . S
C834 C853 1.429 . S
C834 H858 0.950 . S
C835 C852 1.574 . S
C835 C854 1.368 . S
C835 H859 0.949 . S
H836 C840 0.949 . S
C837 C838 1.349 . S
C837 C839 1.327 . S
C837 H860 0.950 . S
C838 C837 1.349 . S
C838 C850 1.349 . S
C839 C837 1.327 . S
C839 C855 1.429 . S
C839 H861 0.950 . S
C840 H836 0.949 . S
C840 C848 1.574 . S
C840 C856 1.368 . S
H841 C849 0.950 . S
H842 C847 0.950 . S
H843 C848 0.949 . S
H844 C850 0.950 . S
H845 C851 0.950 . S
H846 C852 0.949 . S
C847 H842 0.950 . S
C847 C849 1.327 . S
C847 C853 1.429 . S
C848 C840 1.574 . S
C848 H843 0.949 . S
C848 C854 1.368 . S
C849 C833 1.349 . S
C849 H841 0.950 . S
C849 C847 1.327 . S
C850 C838 1.349 . S
C850 H844 0.950 . S
C850 C851 1.327 . S
C851 H845 0.950 . S
C851 C850 1.327 . S
C851 C855 1.429 . S
C852 C835 1.574 . S
C852 H846 0.949 . S
C852 C856 1.368 . S
C853 C834 1.429 . S
C853 C847 1.429 . S
C853 C854 1.523 . S
C854 C835 1.368 . S
C854 C848 1.368 . S
C854 C853 1.523 . S
C855 C839 1.429 . S
C855 C851 1.429 . S
C855 C856 1.523 . S
C856 C840 1.368 . S
C856 C852 1.368 . S
C856 C855 1.523 . S
H857 C832 0.950 . S
H858 C834 0.950 . S
H859 C835 0.949 . S
H860 C837 0.950 . S
H861 C839 0.950 . S
C862 C863 1.349 . S
C862 C864 1.327 . S
C862 H887 0.950 . S
C863 C862 1.349 . S
C863 C879 1.349 . S
C864 C862 1.327 . S
C864 C883 1.429 . S
C864 H888 0.950 . S
C865 C882 1.574 . S
C865 C884 1.368 . S
C865 H889 0.949 . S
H866 C870 0.949 . S
C867 C868 1.349 . S
C867 C869 1.327 . S
C867 H890 0.950 . S
C868 C867 1.349 . S
C868 C880 1.349 . S
C869 C867 1.327 . S
C869 C885 1.429 . S
C869 H891 0.950 . S
C870 H866 0.949 . S
C870 C878 1.574 . S
C870 C886 1.368 . S
H871 C879 0.950 . S
H872 C877 0.950 . S
H873 C878 0.949 . S
H874 C880 0.950 . S
H875 C881 0.950 . S
H876 C882 0.949 . S
C877 H872 0.950 . S
C877 C879 1.327 . S
C877 C883 1.429 . S
C878 C870 1.574 . S
C878 H873 0.949 . S
C878 C884 1.368 . S
C879 C863 1.349 . S
C879 H871 0.950 . S
C879 C877 1.327 . S
C880 C868 1.349 . S
C880 H874 0.950 . S
C880 C881 1.327 . S
C881 H875 0.950 . S
C881 C880 1.327 . S
C881 C885 1.429 . S
C882 C865 1.574 . S
C882 H876 0.949 . S
C882 C886 1.368 . S
C883 C864 1.429 . S
C883 C877 1.429 . S
C883 C884 1.523 . S
C884 C865 1.368 . S
C884 C878 1.368 . S
C884 C883 1.523 . S
C885 C869 1.429 . S
C885 C881 1.429 . S
C885 C886 1.523 . S
C886 C870 1.368 . S
C886 C882 1.368 . S
C886 C885 1.523 . S
H887 C862 0.950 . S
H888 C864 0.950 . S
H889 C865 0.949 . S
H890 C867 0.950 . S
H891 C869 0.950 . S
C892 C893 1.349 . S
C892 C894 1.327 . S
C892 H917 0.950 . S
C893 C892 1.349 . S
C893 C909 1.349 . S
C894 C892 1.327 . S
C894 C913 1.429 . S
C894 H918 0.950 . S
C895 C912 1.574 . S
C895 C914 1.368 . S
C895 H919 0.949 . S
H896 C900 0.949 . S
C897 C898 1.349 . S
C897 C899 1.327 . S
C897 H920 0.950 . S
C898 C897 1.349 . S
C898 C910 1.349 . S
C899 C897 1.327 . S
C899 C915 1.429 . S
C899 H921 0.950 . S
C900 H896 0.949 . S
C900 C908 1.574 . S
C900 C916 1.368 . S
H901 C909 0.950 . S
H902 C907 0.950 . S
H903 C908 0.949 . S
H904 C910 0.950 . S
H905 C911 0.950 . S
H906 C912 0.949 . S
C907 H902 0.950 . S
C907 C909 1.327 . S
C907 C913 1.429 . S
C908 C900 1.574 . S
C908 H903 0.949 . S
C908 C914 1.368 . S
C909 C893 1.349 . S
C909 H901 0.950 . S
C909 C907 1.327 . S
C910 C898 1.349 . S
C910 H904 0.950 . S
C910 C911 1.327 . S
C911 H905 0.950 . S
C911 C910 1.327 . S
C911 C915 1.429 . S
C912 C895 1.574 . S
C912 H906 0.949 . S
C912 C916 1.368 . S
C913 C894 1.429 . S
C913 C907 1.429 . S
C913 C914 1.523 . S
C914 C895 1.368 . S
C914 C908 1.368 . S
C914 C913 1.523 . S
C915 C899 1.429 . S
C915 C911 1.429 . S
C915 C916 1.523 . S
C916 C900 1.368 . S
C916 C912 1.368 . S
C916 C915 1.523 . S
H917 C892 0.950 . S
H918 C894 0.950 . S
H919 C895 0.949 . S
H920 C897 0.950 . S
H921 C899 0.950 . S
C922 C923 1.349 . S
C922 C924 1.327 . S
C922 H947 0.950 . S
C923 C922 1.349 . S
C923 C939 1.349 . S
C924 C922 1.327 . S
C924 C943 1.429 . S
C924 H948 0.950 . S
C925 C942 1.574 . S
C925 C944 1.368 . S
C925 H949 0.949 . S
H926 C930 0.949 . S
C927 C928 1.349 . S
C927 C929 1.327 . S
C927 H950 0.950 . S
C928 C927 1.349 . S
C928 C940 1.349 . S
C929 C927 1.327 . S
C929 C945 1.429 . S
C929 H951 0.950 . S
C930 H926 0.949 . S
C930 C938 1.574 . S
C930 C946 1.368 . S
H931 C939 0.950 . S
H932 C937 0.950 . S
H933 C938 0.949 . S
H934 C940 0.950 . S
H935 C941 0.950 . S
H936 C942 0.949 . S
C937 H932 0.950 . S
C937 C939 1.327 . S
C937 C943 1.429 . S
C938 C930 1.574 . S
C938 H933 0.949 . S
C938 C944 1.368 . S
C939 C923 1.349 . S
C939 H931 0.950 . S
C939 C937 1.327 . S
C940 C928 1.349 . S
C940 H934 0.950 . S
C940 C941 1.327 . S
C941 H935 0.950 . S
C941 C940 1.327 . S
C941 C945 1.429 . S
C942 C925 1.574 . S
C942 H936 0.949 . S
C942 C946 1.368 . S
C943 C924 1.429 . S
C943 C937 1.429 . S
C943 C944 1.523 . S
C944 C925 1.368 . S
C944 C938 1.368 . S
C944 C943 1.523 . S
C945 C929 1.429 . S
C945 C941 1.429 . S
C945 C946 1.523 . S
C946 C930 1.368 . S
C946 C942 1.368 . S
C946 C945 1.523 . S
H947 C922 0.950 . S
H948 C924 0.950 . S
H949 C925 0.949 . S
H950 C927 0.950 . S
H951 C929 0.950 . S
C952 C953 1.349 . S
C952 C954 1.327 . S
C952 H977 0.950 . S
C953 C952 1.349 . S
C953 C969 1.349 . S
C954 C952 1.327 . S
C954 C973 1.429 . S
C954 H978 0.950 . S
C955 C972 1.574 . S
C955 C974 1.368 . S
C955 H979 0.949 . S
H956 C960 0.949 . S
C957 C958 1.349 . S
C957 C959 1.327 . S
C957 H980 0.950 . S
C958 C957 1.349 . S
C958 C970 1.349 . S
C959 C957 1.327 . S
C959 C975 1.429 . S
C959 H981 0.950 . S
C960 H956 0.949 . S
C960 C968 1.574 . S
C960 C976 1.368 . S
H961 C969 0.950 . S
H962 C967 0.950 . S
H963 C968 0.949 . S
H964 C970 0.950 . S
H965 C971 0.950 . S
H966 C972 0.949 . S
C967 H962 0.950 . S
C967 C969 1.327 . S
C967 C973 1.429 . S
C968 C960 1.574 . S
C968 H963 0.949 . S
C968 C974 1.368 . S
C969 C953 1.349 . S
C969 H961 0.950 . S
C969 C967 1.327 . S
C970 C958 1.349 . S
C970 H964 0.950 . S
C970 C971 1.327 . S
C971 H965 0.950 . S
C971 C970 1.327 . S
C971 C975 1.429 . S
C972 C955 1.574 . S
C972 H966 0.949 . S
C972 C976 1.368 . S
C973 C954 1.429 . S
C973 C967 1.429 . S
C973 C974 1.523 . S
C974 C955 1.368 . S
C974 C968 1.368 . S
C974 C973 1.523 . S
C975 C959 1.429 . S
C975 C971 1.429 . S
C975 C976 1.523 . S
C976 C960 1.368 . S
C976 C972 1.368 . S
C976 C975 1.523 . S
H977 C952 0.950 . S
H978 C954 0.950 . S
H979 C955 0.949 . S
H980 C957 0.950 . S
H981 C959 0.950 . S
C982 C983 1.349 . S
C982 C984 1.327 . S
C982 H1007 0.950 . S
C983 C982 1.349 . S
C983 C999 1.349 . S
C984 C982 1.327 . S
C984 C1003 1.429 . S
C984 H1008 0.950 . S
C985 C1002 1.574 . S
C985 C1004 1.368 . S
C985 H1009 0.949 . S
H986 C990 0.949 . S
C987 C988 1.349 . S
C987 C989 1.327 . S
C987 H1010 0.950 . S
C988 C987 1.349 . S
C988 C1000 1.349 . S
C989 C987 1.327 . S
C989 C1005 1.429 . S
C989 H1011 0.950 . S
C990 H986 0.949 . S
C990 C998 1.574 . S
C990 C1006 1.368 . S
H991 C999 0.950 . S
H992 C997 0.950 . S
H993 C998 0.949 . S
H994 C1000 0.950 . S
H995 C1001 0.950 . S
H996 C1002 0.949 . S
C997 H992 0.950 . S
C997 C999 1.327 . S
C997 C1003 1.429 . S
C998 C990 1.574 . S
C998 H993 0.949 . S
C998 C1004 1.368 . S
C999 C983 1.349 . S
C999 H991 0.950 . S
C999 C997 1.327 . S
C1000 C988 1.349 . S
C1000 H994 0.950 . S
C1000 C1001 1.327 . S
C1001 H995 0.950 . S
C1001 C1000 1.327 . S
C1001 C1005 1.429 . S
C1002 C985 1.574 . S
C1002 H996 0.949 . S
C1002 C1006 1.368 . S
C1003 C984 1.429 . S
C1003 C997 1.429 . S
C1003 C1004 1.523 . S
C1004 C985 1.368 . S
C1004 C998 1.368 . S
C1004 C1003 1.523 . S
C1005 C989 1.429 . S
C1005 C1001 1.429 . S
C1005 C1006 1.523 . S
C1006 C990 1.368 . S
C1006 C1002 1.368 . S
C1006 C1005 1.523 . S
H1007 C982 0.950 . S
H1008 C984 0.950 . S
H1009 C985 0.949 . S
H1010 C987 0.950 . S
H1011 C989 0.950 . S
C1012 C1013 1.349 . S
C1012 C1014 1.327 . S
C1012 H1037 0.950 . S
C1013 C1012 1.349 . S
C1013 C1029 1.349 . S
C1014 C1012 1.327 . S
C1014 C1033 1.429 . S
C1014 H1038 0.950 . S
C1015 C1032 1.574 . S
C1015 C1034 1.368 . S
C1015 H1039 0.949 . S
H1016 C1020 0.949 . S
C1017 C1018 1.349 . S
C1017 C1019 1.327 . S
C1017 H1040 0.950 . S
C1018 C1017 1.349 . S
C1018 C1030 1.349 . S
C1019 C1017 1.327 . S
C1019 C1035 1.429 . S
C1019 H1041 0.950 . S
C1020 H1016 0.949 . S
C1020 C1028 1.574 . S
C1020 C1036 1.368 . S
H1021 C1029 0.950 . S
H1022 C1027 0.950 . S
H1023 C1028 0.949 . S
H1024 C1030 0.950 . S
H1025 C1031 0.950 . S
H1026 C1032 0.949 . S
C1027 H1022 0.950 . S
C1027 C1029 1.327 . S
C1027 C1033 1.429 . S
C1028 C1020 1.574 . S
C1028 H1023 0.949 . S
C1028 C1034 1.368 . S
C1029 C1013 1.349 . S
C1029 H1021 0.950 . S
C1029 C1027 1.327 . S
C1030 C1018 1.349 . S
C1030 H1024 0.950 . S
C1030 C1031 1.327 . S
C1031 H1025 0.950 . S
C1031 C1030 1.327 . S
C1031 C1035 1.429 . S
C1032 C1015 1.574 . S
C1032 H1026 0.949 . S
C1032 C1036 1.368 . S
C1033 C1014 1.429 . S
C1033 C1027 1.429 . S
C1033 C1034 1.523 . S
C1034 C1015 1.368 . S
C1034 C1028 1.368 . S
C1034 C1033 1.523 . S
C1035 C1019 1.429 . S
C1035 C1031 1.429 . S
C1035 C1036 1.523 . S
C1036 C1020 1.368 . S
C1036 C1032 1.368 . S
C1036 C1035 1.523 . S
H1037 C1012 0.950 . S
H1038 C1014 0.950 . S
H1039 C1015 0.949 . S
H1040 C1017 0.950 . S
H1041 C1019 0.950 . S
C1042 C1043 1.349 . S
C1042 C1044 1.327 . S
C1042 H1067 0.950 . S
C1043 C1042 1.349 . S
C1043 C1059 1.349 . S
C1044 C1042 1.327 . S
C1044 C1063 1.429 . S
C1044 H1068 0.950 . S
C1045 C1062 1.574 . S
C1045 C1064 1.368 . S
C1045 H1069 0.949 . S
H1046 C1050 0.949 . S
C1047 C1048 1.349 . S
C1047 C1049 1.327 . S
C1047 H1070 0.950 . S
C1048 C1047 1.349 . S
C1048 C1060 1.349 . S
C1049 C1047 1.327 . S
C1049 C1065 1.429 . S
C1049 H1071 0.950 . S
C1050 H1046 0.949 . S
C1050 C1058 1.574 . S
C1050 C1066 1.368 . S
H1051 C1059 0.950 . S
H1052 C1057 0.950 . S
H1053 C1058 0.949 . S
H1054 C1060 0.950 . S
H1055 C1061 0.950 . S
H1056 C1062 0.949 . S
C1057 H1052 0.950 . S
C1057 C1059 1.327 . S
C1057 C1063 1.429 . S
C1058 C1050 1.574 . S
C1058 H1053 0.949 . S
C1058 C1064 1.368 . S
C1059 C1043 1.349 . S
C1059 H1051 0.950 . S
C1059 C1057 1.327 . S
C1060 C1048 1.349 . S
C1060 H1054 0.950 . S
C1060 C1061 1.327 . S
C1061 H1055 0.950 . S
C1061 C1060 1.327 . S
C1061 C1065 1.429 . S
C1062 C1045 1.574 . S
C1062 H1056 0.949 . S
C1062 C1066 1.368 . S
C1063 C1044 1.429 . S
C1063 C1057 1.429 . S
C1063 C1064 1.523 . S
C1064 C1045 1.368 . S
C1064 C1058 1.368 . S
C1064 C1063 1.523 . S
C1065 C1049 1.429 . S
C1065 C1061 1.429 . S
C1065 C1066 1.523 . S
C1066 C1050 1.368 . S
C1066 C1062 1.368 . S
C1066 C1065 1.523 . S
H1067 C1042 0.950 . S
H1068 C1044 0.950 . S
H1069 C1045 0.949 . S
H1070 C1047 0.950 . S
H1071 C1049 0.950 . S
C1072 C1073 1.349 . S
C1072 C1074 1.327 . S
C1072 H1097 0.950 . S
C1073 C1072 1.349 . S
C1073 C1089 1.349 . S
C1074 C1072 1.327 . S
C1074 C1093 1.429 . S
C1074 H1098 0.950 . S
C1075 C1092 1.574 . S
C1075 C1094 1.368 . S
C1075 H1099 0.949 . S
H1076 C1080 0.949 . S
C1077 C1078 1.349 . S
C1077 C1079 1.327 . S
C1077 H1100 0.950 . S
C1078 C1077 1.349 . S
C1078 C1090 1.349 . S
C1079 C1077 1.327 . S
C1079 C1095 1.429 . S
C1079 H1101 0.950 . S
C1080 H1076 0.949 . S
C1080 C1088 1.574 . S
C1080 C1096 1.368 . S
H1081 C1089 0.950 . S
H1082 C1087 0.950 . S
H1083 C1088 0.949 . S
H1084 C1090 0.950 . S
H1085 C1091 0.950 . S
H1086 C1092 0.949 . S
C1087 H1082 0.950 . S
C1087 C1089 1.327 . S
C1087 C1093 1.429 . S
C1088 C1080 1.574 . S
C1088 H1083 0.949 . S
C1088 C1094 1.368 . S
C1089 C1073 1.349 . S
C1089 H1081 0.950 . S
C1089 C1087 1.327 . S
C1090 C1078 1.349 . S
C1090 H1084 0.950 . S
C1090 C1091 1.327 . S
C1091 H1085 0.950 . S
C1091 C1090 1.327 . S
C1091 C1095 1.429 . S
C1092 C1075 1.574 . S
C1092 H1086 0.949 . S
C1092 C1096 1.368 . S
C1093 C1074 1.429 . S
C1093 C1087 1.429 . S
C1093 C1094 1.523 . S
C1094 C1075 1.368 . S
C1094 C1088 1.368 . S
C1094 C1093 1.523 . S
C1095 C1079 1.429 . S
C1095 C1091 1.429 . S
C1095 C1096 1.523 . S
C1096 C1080 1.368 . S
C1096 C1092 1.368 . S
C1096 C1095 1.523 . S
H1097 C1072 0.950 . S
H1098 C1074 0.950 . S
H1099 C1075 0.949 . S
H1100 C1077 0.950 . S
H1101 C1079 0.950 . S
C1102 C1103 1.349 . S
C1102 C1104 1.327 . S
C1102 H1127 0.950 . S
C1103 C1102 1.349 . S
C1103 C1119 1.349 . S
C1104 C1102 1.327 . S
C1104 C1123 1.429 . S
C1104 H1128 0.950 . S
C1105 C1122 1.574 . S
C1105 C1124 1.368 . S
C1105 H1129 0.949 . S
H1106 C1110 0.949 . S
C1107 C1108 1.349 . S
C1107 C1109 1.327 . S
C1107 H1130 0.950 . S
C1108 C1107 1.349 . S
C1108 C1120 1.349 . S
C1109 C1107 1.327 . S
C1109 C1125 1.429 . S
C1109 H1131 0.950 . S
C1110 H1106 0.949 . S
C1110 C1118 1.574 . S
C1110 C1126 1.368 . S
H1111 C1119 0.950 . S
H1112 C1117 0.950 . S
H1113 C1118 0.949 . S
H1114 C1120 0.950 . S
H1115 C1121 0.950 . S
H1116 C1122 0.949 . S
C1117 H1112 0.950 . S
C1117 C1119 1.327 . S
C1117 C1123 1.429 . S
C1118 C1110 1.574 . S
C1118 H1113 0.949 . S
C1118 C1124 1.368 . S
C1119 C1103 1.349 . S
C1119 H1111 0.950 . S
C1119 C1117 1.327 . S
C1120 C1108 1.349 . S
C1120 H1114 0.950 . S
C1120 C1121 1.327 . S
C1121 H1115 0.950 . S
C1121 C1120 1.327 . S
C1121 C1125 1.429 . S
C1122 C1105 1.574 . S
C1122 H1116 0.949 . S
C1122 C1126 1.368 . S
C1123 C1104 1.429 . S
C1123 C1117 1.429 . S
C1123 C1124 1.523 . S
C1124 C1105 1.368 . S
C1124 C1118 1.368 . S
C1124 C1123 1.523 . S
C1125 C1109 1.429 . S
C1125 C1121 1.429 . S
C1125 C1126 1.523 . S
C1126 C1110 1.368 . S
C1126 C1122 1.368 . S
C1126 C1125 1.523 . S
H1127 C1102 0.950 . S
H1128 C1104 0.950 . S
H1129 C1105 0.949 . S
H1130 C1107 0.950 . S
H1131 C1109 0.950 . S
C1132 C1133 1.349 . S
C1132 C1134 1.327 . S
C1132 H1157 0.950 . S
C1133 C1132 1.349 . S
C1133 C1149 1.349 . S
C1134 C1132 1.327 . S
C1134 C1153 1.429 . S
C1134 H1158 0.950 . S
C1135 C1152 1.574 . S
C1135 C1154 1.368 . S
C1135 H1159 0.949 . S
H1136 C1140 0.949 . S
C1137 C1138 1.349 . S
C1137 C1139 1.327 . S
C1137 H1160 0.950 . S
C1138 C1137 1.349 . S
C1138 C1150 1.349 . S
C1139 C1137 1.327 . S
C1139 C1155 1.429 . S
C1139 H1161 0.950 . S
C1140 H1136 0.949 . S
C1140 C1148 1.574 . S
C1140 C1156 1.368 . S
H1141 C1149 0.950 . S
H1142 C1147 0.950 . S
H1143 C1148 0.949 . S
H1144 C1150 0.950 . S
H1145 C1151 0.950 . S
H1146 C1152 0.949 . S
C1147 H1142 0.950 . S
C1147 C1149 1.327 . S
C1147 C1153 1.429 . S
C1148 C1140 1.574 . S
C1148 H1143 0.949 . S
C1148 C1154 1.368 . S
C1149 C1133 1.349 . S
C1149 H1141 0.950 . S
C1149 C1147 1.327 . S
C1150 C1138 1.349 . S
C1150 H1144 0.950 . S
C1150 C1151 1.327 . S
C1151 H1145 0.950 . S
C1151 C1150 1.327 . S
C1151 C1155 1.429 . S
C1152 C1135 1.574 . S
C1152 H1146 0.949 . S
C1152 C1156 1.368 . S
C1153 C1134 1.429 . S
C1153 C1147 1.429 . S
C1153 C1154 1.523 . S
C1154 C1135 1.368 . S
C1154 C1148 1.368 . S
C1154 C1153 1.523 . S
C1155 C1139 1.429 . S
C1155 C1151 1.429 . S
C1155 C1156 1.523 . S
C1156 C1140 1.368 . S
C1156 C1152 1.368 . S
C1156 C1155 1.523 . S
H1157 C1132 0.950 . S
H1158 C1134 0.950 . S
H1159 C1135 0.949 . S
H1160 C1137 0.950 . S
H1161 C1139 0.950 . S
C1162 C1163 1.349 . S
C1162 C1164 1.327 . S
C1162 H1187 0.950 . S
C1163 C1162 1.349 . S
C1163 C1179 1.349 . S
C1164 C1162 1.327 . S
C1164 C1183 1.429 . S
C1164 H1188 0.950 . S
C1165 C1182 1.574 . S
C1165 C1184 1.368 . S
C1165 H1189 0.949 . S
H1166 C1170 0.949 . S
C1167 C1168 1.349 . S
C1167 C1169 1.327 . S
C1167 H1190 0.950 . S
C1168 C1167 1.349 . S
C1168 C1180 1.349 . S
C1169 C1167 1.327 . S
C1169 C1185 1.429 . S
C1169 H1191 0.950 . S
C1170 H1166 0.949 . S
C1170 C1178 1.574 . S
C1170 C1186 1.368 . S
H1171 C1179 0.950 . S
H1172 C1177 0.950 . S
H1173 C1178 0.949 . S
H1174 C1180 0.950 . S
H1175 C1181 0.950 . S
H1176 C1182 0.949 . S
C1177 H1172 0.950 . S
C1177 C1179 1.327 . S
C1177 C1183 1.429 . S
C1178 C1170 1.574 . S
C1178 H1173 0.949 . S
C1178 C1184 1.368 . S
C1179 C1163 1.349 . S
C1179 H1171 0.950 . S
C1179 C1177 1.327 . S
C1180 C1168 1.349 . S
C1180 H1174 0.950 . S
C1180 C1181 1.327 . S
C1181 H1175 0.950 . S
C1181 C1180 1.327 . S
C1181 C1185 1.429 . S
C1182 C1165 1.574 . S
C1182 H1176 0.949 . S
C1182 C1186 1.368 . S
C1183 C1164 1.429 . S
C1183 C1177 1.429 . S
C1183 C1184 1.523 . S
C1184 C1165 1.368 . S
C1184 C1178 1.368 . S
C1184 C1183 1.523 . S
C1185 C1169 1.429 . S
C1185 C1181 1.429 . S
C1185 C1186 1.523 . S
C1186 C1170 1.368 . S
C1186 C1182 1.368 . S
C1186 C1185 1.523 . S
H1187 C1162 0.950 . S
H1188 C1164 0.950 . S
H1189 C1165 0.949 . S
H1190 C1167 0.950 . S
H1191 C1169 0.950 . S
C1192 C1193 1.349 . S
C1192 C1194 1.327 . S
C1192 H1217 0.950 . S
C1193 C1192 1.349 . S
C1193 C1209 1.349 . S
C1194 C1192 1.327 . S
C1194 C1213 1.429 . S
C1194 H1218 0.950 . S
C1195 C1212 1.574 . S
C1195 C1214 1.368 . S
C1195 H1219 0.949 . S
H1196 C1200 0.949 . S
C1197 C1198 1.349 . S
C1197 C1199 1.327 . S
C1197 H1220 0.950 . S
C1198 C1197 1.349 . S
C1198 C1210 1.349 . S
C1199 C1197 1.327 . S
C1199 C1215 1.429 . S
C1199 H1221 0.950 . S
C1200 H1196 0.949 . S
C1200 C1208 1.574 . S
C1200 C1216 1.368 . S
H1201 C1209 0.950 . S
H1202 C1207 0.950 . S
H1203 C1208 0.949 . S
H1204 C1210 0.950 . S
H1205 C1211 0.950 . S
H1206 C1212 0.949 . S
C1207 H1202 0.950 . S
C1207 C1209 1.327 . S
C1207 C1213 1.429 . S
C1208 C1200 1.574 . S
C1208 H1203 0.949 . S
C1208 C1214 1.368 . S
C1209 C1193 1.349 . S
C1209 H1201 0.950 . S
C1209 C1207 1.327 . S
C1210 C1198 1.349 . S
C1210 H1204 0.950 . S
C1210 C1211 1.327 . S
C1211 H1205 0.950 . S
C1211 C1210 1.327 . S
C1211 C1215 1.429 . S
C1212 C1195 1.574 . S
C1212 H1206 0.949 . S
C1212 C1216 1.368 . S
C1213 C1194 1.429 . S
C1213 C1207 1.429 . S
C1213 C1214 1.523 . S
C1214 C1195 1.368 . S
C1214 C1208 1.368 . S
C1214 C1213 1.523 . S
C1215 C1199 1.429 . S
C1215 C1211 1.429 . S
C1215 C1216 1.523 . S
C1216 C1200 1.368 . S
C1216 C1212 1.368 . S
C1216 C1215 1.523 . S
H1217 C1192 0.950 . S
H1218 C1194 0.950 . S
H1219 C1195 0.949 . S
H1220 C1197 0.950 . S
H1221 C1199 0.950 . S
C1222 C1223 1.349 . S
C1222 C1224 1.327 . S
C1222 H1247 0.950 . S
C1223 C1222 1.349 . S
C1223 C1239 1.349 . S
C1224 C1222 1.327 . S
C1224 C1243 1.429 . S
C1224 H1248 0.950 . S
C1225 C1242 1.574 . S
C1225 C1244 1.368 . S
C1225 H1249 0.949 . S
H1226 C1230 0.949 . S
C1227 C1228 1.349 . S
C1227 C1229 1.327 . S
C1227 H1250 0.950 . S
C1228 C1227 1.349 . S
C1228 C1240 1.349 . S
C1229 C1227 1.327 . S
C1229 C1245 1.429 . S
C1229 H1251 0.950 . S
C1230 H1226 0.949 . S
C1230 C1238 1.574 . S
C1230 C1246 1.368 . S
H1231 C1239 0.950 . S
H1232 C1237 0.950 . S
H1233 C1238 0.949 . S
H1234 C1240 0.950 . S
H1235 C1241 0.950 . S
H1236 C1242 0.949 . S
C1237 H1232 0.950 . S
C1237 C1239 1.327 . S
C1237 C1243 1.429 . S
C1238 C1230 1.574 . S
C1238 H1233 0.949 . S
C1238 C1244 1.368 . S
C1239 C1223 1.349 . S
C1239 H1231 0.950 . S
C1239 C1237 1.327 . S
C1240 C1228 1.349 . S
C1240 H1234 0.950 . S
C1240 C1241 1.327 . S
C1241 H1235 0.950 . S
C1241 C1240 1.327 . S
C1241 C1245 1.429 . S
C1242 C1225 1.574 . S
C1242 H1236 0.949 . S
C1242 C1246 1.368 . S
C1243 C1224 1.429 . S
C1243 C1237 1.429 . S
C1243 C1244 1.523 . S
C1244 C1225 1.368 . S
C1244 C1238 1.368 . S
C1244 C1243 1.523 . S
C1245 C1229 1.429 . S
C1245 C1241 1.429 . S
C1245 C1246 1.523 . S
C1246 C1230 1.368 . S
C1246 C1242 1.368 . S
C1246 C1245 1.523 . S
H1247 C1222 0.950 . S
H1248 C1224 0.950 . S
H1249 C1225 0.949 . S
H1250 C1227 0.950 . S
H1251 C1229 0.950 . S
C1252 C1253 1.349 . S
C1252 C1254 1.327 . S
C1252 H1277 0.950 . S
C1253 C1252 1.349 . S
C1253 C1269 1.349 . S
C1254 C1252 1.327 . S
C1254 C1273 1.429 . S
C1254 H1278 0.950 . S
C1255 C1272 1.574 . S
C1255 C1274 1.368 . S
C1255 H1279 0.949 . S
H1256 C1260 0.949 . S
C1257 C1258 1.349 . S
C1257 C1259 1.327 . S
C1257 H1280 0.950 . S
C1258 C1257 1.349 . S
C1258 C1270 1.349 . S
C1259 C1257 1.327 . S
C1259 C1275 1.429 . S
C1259 H1281 0.950 . S
C1260 H1256 0.949 . S
C1260 C1268 1.574 . S
C1260 C1276 1.368 . S
H1261 C1269 0.950 . S
H1262 C1267 0.950 . S
H1263 C1268 0.949 . S
H1264 C1270 0.950 . S
H1265 C1271 0.950 . S
H1266 C1272 0.949 . S
C1267 H1262 0.950 . S
C1267 C1269 1.327 . S
C1267 C1273 1.429 . S
C1268 C1260 1.574 . S
C1268 H1263 0.949 . S
C1268 C1274 1.368 . S
C1269 C1253 1.349 . S
C1269 H1261 0.950 . S
C1269 C1267 1.327 . S
C1270 C1258 1.349 . S
C1270 H1264 0.950 . S
C1270 C1271 1.327 . S
C1271 H1265 0.950 . S
C1271 C1270 1.327 . S
C1271 C1275 1.429 . S
C1272 C1255 1.574 . S
C1272 H1266 0.949 . S
C1272 C1276 1.368 . S
C1273 C1254 1.429 . S
C1273 C1267 1.429 . S
C1273 C1274 1.523 . S
C1274 C1255 1.368 . S
C1274 C1268 1.368 . S
C1274 C1273 1.523 . S
C1275 C1259 1.429 . S
C1275 C1271 1.429 . S
C1275 C1276 1.523 . S
C1276 C1260 1.368 . S
C1276 C1272 1.368 . S
C1276 C1275 1.523 . S
H1277 C1252 0.950 . S
H1278 C1254 0.950 . S
H1279 C1255 0.949 . S
H1280 C1257 0.950 . S
H1281 C1259 0.950 . S
C1282 C1283 1.349 . S
C1282 C1284 1.327 . S
C1282 H1307 0.950 . S
C1283 C1282 1.349 . S
C1283 C1299 1.349 . S
C1284 C1282 1.327 . S
C1284 C1303 1.429 . S
C1284 H1308 0.950 . S
C1285 C1302 1.574 . S
C1285 C1304 1.368 . S
C1285 H1309 0.949 . S
H1286 C1290 0.949 . S
C1287 C1288 1.349 . S
C1287 C1289 1.327 . S
C1287 H1310 0.950 . S
C1288 C1287 1.349 . S
C1288 C1300 1.349 . S
C1289 C1287 1.327 . S
C1289 C1305 1.429 . S
C1289 H1311 0.950 . S
C1290 H1286 0.949 . S
C1290 C1298 1.574 . S
C1290 C1306 1.368 . S
H1291 C1299 0.950 . S
H1292 C1297 0.950 . S
H1293 C1298 0.949 . S
H1294 C1300 0.950 . S
H1295 C1301 0.950 . S
H1296 C1302 0.949 . S
C1297 H1292 0.950 . S
C1297 C1299 1.327 . S
C1297 C1303 1.429 . S
C1298 C1290 1.574 . S
C1298 H1293 0.949 . S
C1298 C1304 1.368 . S
C1299 C1283 1.349 . S
C1299 H1291 0.950 . S
C1299 C1297 1.327 . S
C1300 C1288 1.349 . S
C1300 H1294 0.950 . S
C1300 C1301 1.327 . S
C1301 H1295 0.950 . S
C1301 C1300 1.327 . S
C1301 C1305 1.429 . S
C1302 C1285 1.574 . S
C1302 H1296 0.949 . S
C1302 C1306 1.368 . S
C1303 C1284 1.429 . S
C1303 C1297 1.429 . S
C1303 C1304 1.523 . S
C1304 C1285 1.368 . S
C1304 C1298 1.368 . S
C1304 C1303 1.523 . S
C1305 C1289 1.429 . S
C1305 C1301 1.429 . S
C1305 C1306 1.523 . S
C1306 C1290 1.368 . S
C1306 C1302 1.368 . S
C1306 C1305 1.523 . S
H1307 C1282 0.950 . S
H1308 C1284 0.950 . S
H1309 C1285 0.949 . S
H1310 C1287 0.950 . S
H1311 C1289 0.950 . S
C1312 C1313 1.349 . S
C1312 C1314 1.327 . S
C1312 H1337 0.950 . S
C1313 C1312 1.349 . S
C1313 C1329 1.349 . S
C1314 C1312 1.327 . S
C1314 C1333 1.429 . S
C1314 H1338 0.950 . S
C1315 C1332 1.574 1_556 S
C1315 C1334 1.368 1_455 S
C1315 H1339 0.949 . S
H1316 C1320 0.949 . S
C1317 C1318 1.349 . S
C1317 C1319 1.327 . S
C1317 H1340 0.950 . S
C1318 C1317 1.349 . S
C1318 C1330 1.349 . S
C1319 C1317 1.327 . S
C1319 C1335 1.429 . S
C1319 H1341 0.950 . S
C1320 H1316 0.949 . S
C1320 C1328 1.574 1_554 S
C1320 C1336 1.368 1_655 S
H1321 C1329 0.950 . S
H1322 C1327 0.950 1_455 S
H1323 C1328 0.949 . S
H1324 C1330 0.950 . S
H1325 C1331 0.950 1_655 S
H1326 C1332 0.949 . S
C1327 H1322 0.950 1_655 S
C1327 C1329 1.327 . S
C1327 C1333 1.429 . S
C1328 C1320 1.574 1_556 S
C1328 H1323 0.949 . S
C1328 C1334 1.368 . S
C1329 C1313 1.349 . S
C1329 H1321 0.950 . S
C1329 C1327 1.327 . S
C1330 C1318 1.349 . S
C1330 H1324 0.950 . S
C1330 C1331 1.327 . S
C1331 H1325 0.950 1_455 S
C1331 C1330 1.327 . S
C1331 C1335 1.429 . S
C1332 C1315 1.574 1_554 S
C1332 H1326 0.949 . S
C1332 C1336 1.368 . S
C1333 C1314 1.429 . S
C1333 C1327 1.429 . S
C1333 C1334 1.523 . S
C1334 C1315 1.368 1_655 S
C1334 C1328 1.368 . S
C1334 C1333 1.523 . S
C1335 C1319 1.429 . S
C1335 C1331 1.429 . S
C1335 C1336 1.523 . S
C1336 C1320 1.368 1_455 S
C1336 C1332 1.368 . S
C1336 C1335 1.523 . S
H1337 C1312 0.950 . S
H1338 C1314 0.950 . S
H1339 C1315 0.949 . S
H1340 C1317 0.950 . S
H1341 C1319 0.950 . S
C1342 C1343 1.349 . S
C1342 C1344 1.327 . S
C1342 H1367 0.950 . S
C1343 C1342 1.349 . S
C1343 C1359 1.349 . S
C1344 C1342 1.327 . S
C1344 C1363 1.429 . S
C1344 H1368 0.950 1_565 S
C1345 C1362 1.574 1_455 S
C1345 C1364 1.368 1_554 S
C1345 H1369 0.949 . S
H1346 C1350 0.949 . S
C1347 C1348 1.349 . S
C1347 C1349 1.327 . S
C1347 H1370 0.950 . S
C1348 C1347 1.349 . S
C1348 C1360 1.349 . S
C1349 C1347 1.327 . S
C1349 C1365 1.429 . S
C1349 H1371 0.950 1_545 S
C1350 H1346 0.949 . S
C1350 C1358 1.574 1_655 S
C1350 C1366 1.368 1_556 S
H1351 C1359 0.950 . S
H1352 C1357 0.950 . S
H1353 C1358 0.949 . S
H1354 C1360 0.950 . S
H1355 C1361 0.950 . S
H1356 C1362 0.949 . S
C1357 H1352 0.950 . S
C1357 C1359 1.327 . S
C1357 C1363 1.429 . S
C1358 C1350 1.574 1_455 S
C1358 H1353 0.949 . S
C1358 C1364 1.368 1_545 S
C1359 C1343 1.349 . S
C1359 H1351 0.950 . S
C1359 C1357 1.327 . S
C1360 C1348 1.349 . S
C1360 H1354 0.950 . S
C1360 C1361 1.327 . S
C1361 H1355 0.950 . S
C1361 C1360 1.327 . S
C1361 C1365 1.429 . S
C1362 C1345 1.574 1_655 S
C1362 H1356 0.949 . S
C1362 C1366 1.368 1_565 S
C1363 C1344 1.429 . S
C1363 C1357 1.429 . S
C1363 C1364 1.523 . S
C1364 C1345 1.368 1_556 S
C1364 C1358 1.368 1_565 S
C1364 C1363 1.523 . S
C1365 C1349 1.429 . S
C1365 C1361 1.429 . S
C1365 C1366 1.523 . S
C1366 C1350 1.368 1_554 S
C1366 C1362 1.368 1_545 S
C1366 C1365 1.523 . S
H1367 C1342 0.950 . S
H1368 C1344 0.950 1_545 S
H1369 C1345 0.949 . S
H1370 C1347 0.950 . S
H1371 C1349 0.950 1_565 S
C1372 C1373 1.349 . S
C1372 C1374 1.327 . S
C1372 H1397 0.950 . S
C1373 C1372 1.349 . S
C1373 C1389 1.349 . S
C1374 C1372 1.327 . S
C1374 C1393 1.429 . S
C1374 H1398 0.950 . S
C1375 C1392 1.574 1_545 S
C1375 C1394 1.368 . S
C1375 H1399 0.949 . S
H1376 C1380 0.949 . S
C1377 C1378 1.349 . S
C1377 C1379 1.327 . S
C1377 H1400 0.950 . S
C1378 C1377 1.349 . S
C1378 C1390 1.349 . S
C1379 C1377 1.327 . S
C1379 C1395 1.429 . S
C1379 H1401 0.950 . S
C1380 H1376 0.949 . S
C1380 C1388 1.574 1_565 S
C1380 C1396 1.368 . S
H1381 C1389 0.950 . S
H1382 C1387 0.950 . S
H1383 C1388 0.949 . S
H1384 C1390 0.950 . S
H1385 C1391 0.950 . S
H1386 C1392 0.949 . S
C1387 H1382 0.950 . S
C1387 C1389 1.327 . S
C1387 C1393 1.429 . S
C1388 C1380 1.574 1_545 S
C1388 H1383 0.949 . S
C1388 C1394 1.368 1_554 S
C1389 C1373 1.349 . S
C1389 H1381 0.950 . S
C1389 C1387 1.327 . S
C1390 C1378 1.349 . S
C1390 H1384 0.950 . S
C1390 C1391 1.327 . S
C1391 H1385 0.950 . S
C1391 C1390 1.327 . S
C1391 C1395 1.429 . S
C1392 C1375 1.574 1_565 S
C1392 H1386 0.949 . S
C1392 C1396 1.368 1_556 S
C1393 C1374 1.429 . S
C1393 C1387 1.429 . S
C1393 C1394 1.523 . S
C1394 C1375 1.368 . S
C1394 C1388 1.368 1_556 S
C1394 C1393 1.523 . S
C1395 C1379 1.429 . S
C1395 C1391 1.429 . S
C1395 C1396 1.523 . S
C1396 C1380 1.368 . S
C1396 C1392 1.368 1_554 S
C1396 C1395 1.523 . S
H1397 C1372 0.950 . S
H1398 C1374 0.950 . S
H1399 C1375 0.949 . S
H1400 C1377 0.950 . S
H1401 C1379 0.950 . S
C1402 C1403 1.349 . S
C1402 C1404 1.327 . S
C1402 H1427 0.950 . S
C1403 C1402 1.349 . S
C1403 C1419 1.349 . S
C1404 C1402 1.327 . S
C1404 C1423 1.429 . S
C1404 H1428 0.950 . S
C1405 C1422 1.574 . S
C1405 C1424 1.368 . S
C1405 H1429 0.949 . S
H1406 C1410 0.949 . S
C1407 C1408 1.349 . S
C1407 C1409 1.327 . S
C1407 H1430 0.950 . S
C1408 C1407 1.349 . S
C1408 C1420 1.349 . S
C1409 C1407 1.327 . S
C1409 C1425 1.429 . S
C1409 H1431 0.950 . S
C1410 H1406 0.949 . S
C1410 C1418 1.574 . S
C1410 C1426 1.368 . S
H1411 C1419 0.950 . S
H1412 C1417 0.950 . S
H1413 C1418 0.949 . S
H1414 C1420 0.950 . S
H1415 C1421 0.950 . S
H1416 C1422 0.949 . S
C1417 H1412 0.950 . S
C1417 C1419 1.327 . S
C1417 C1423 1.429 . S
C1418 C1410 1.574 . S
C1418 H1413 0.949 . S
C1418 C1424 1.368 1_556 S
C1419 C1403 1.349 . S
C1419 H1411 0.950 . S
C1419 C1417 1.327 . S
C1420 C1408 1.349 . S
C1420 H1414 0.950 . S
C1420 C1421 1.327 . S
C1421 H1415 0.950 . S
C1421 C1420 1.327 . S
C1421 C1425 1.429 . S
C1422 C1405 1.574 . S
C1422 H1416 0.949 . S
C1422 C1426 1.368 1_554 S
C1423 C1404 1.429 . S
C1423 C1417 1.429 . S
C1423 C1424 1.523 . S
C1424 C1405 1.368 . S
C1424 C1418 1.368 1_554 S
C1424 C1423 1.523 . S
C1425 C1409 1.429 . S
C1425 C1421 1.429 . S
C1425 C1426 1.523 . S
C1426 C1410 1.368 . S
C1426 C1422 1.368 1_556 S
C1426 C1425 1.523 . S
H1427 C1402 0.950 . S
H1428 C1404 0.950 . S
H1429 C1405 0.949 . S
H1430 C1407 0.950 . S
H1431 C1409 0.950 . S
C1432 C1433 1.349 . S
C1432 C1434 1.327 . S
C1432 H1457 0.950 . S
C1433 C1432 1.349 . S
C1433 C1449 1.349 . S
C1434 C1432 1.327 . S
C1434 C1453 1.429 . S
C1434 H1458 0.950 . S
C1435 C1452 1.574 . S
C1435 C1454 1.368 1_455 S
C1435 H1459 0.949 . S
H1436 C1440 0.949 . S
C1437 C1438 1.349 . S
C1437 C1439 1.327 . S
C1437 H1460 0.950 . S
C1438 C1437 1.349 . S
C1438 C1450 1.349 . S
C1439 C1437 1.327 . S
C1439 C1455 1.429 . S
C1439 H1461 0.950 . S
C1440 H1436 0.949 . S
C1440 C1448 1.574 . S
C1440 C1456 1.368 1_655 S
H1441 C1449 0.950 . S
H1442 C1447 0.950 . S
H1443 C1448 0.949 . S
H1444 C1450 0.950 . S
H1445 C1451 0.950 . S
H1446 C1452 0.949 . S
C1447 H1442 0.950 . S
C1447 C1449 1.327 . S
C1447 C1453 1.429 . S
C1448 C1440 1.574 . S
C1448 H1443 0.949 . S
C1448 C1454 1.368 1_565 S
C1449 C1433 1.349 . S
C1449 H1441 0.950 . S
C1449 C1447 1.327 . S
C1450 C1438 1.349 . S
C1450 H1444 0.950 . S
C1450 C1451 1.327 . S
C1451 H1445 0.950 . S
C1451 C1450 1.327 . S
C1451 C1455 1.429 . S
C1452 C1435 1.574 . S
C1452 H1446 0.949 . S
C1452 C1456 1.368 1_545 S
C1453 C1434 1.429 . S
C1453 C1447 1.429 . S
C1453 C1454 1.523 . S
C1454 C1435 1.368 1_655 S
C1454 C1448 1.368 1_545 S
C1454 C1453 1.523 . S
C1455 C1439 1.429 . S
C1455 C1451 1.429 . S
C1455 C1456 1.523 . S
C1456 C1440 1.368 1_455 S
C1456 C1452 1.368 1_565 S
C1456 C1455 1.523 . S
H1457 C1432 0.950 . S
H1458 C1434 0.950 . S
H1459 C1435 0.949 . S
H1460 C1437 0.950 . S
H1461 C1439 0.950 . S
C1462 C1463 1.349 . S
C1462 C1464 1.327 . S
C1462 H1487 0.950 . S
C1463 C1462 1.349 . S
C1463 C1479 1.349 . S
C1464 C1462 1.327 . S
C1464 C1483 1.429 . S
C1464 H1488 0.950 . S
C1465 C1482 1.574 . S
C1465 C1484 1.368 . S
C1465 H1489 0.949 . S
H1466 C1470 0.949 . S
C1467 C1468 1.349 . S
C1467 C1469 1.327 . S
C1467 H1490 0.950 . S
C1468 C1467 1.349 . S
C1468 C1480 1.349 . S
C1469 C1467 1.327 . S
C1469 C1485 1.429 . S
C1469 H1491 0.950 . S
C1470 H1466 0.949 . S
C1470 C1478 1.574 . S
C1470 C1486 1.368 . S
H1471 C1479 0.950 . S
H1472 C1477 0.950 . S
H1473 C1478 0.949 . S
H1474 C1480 0.950 . S
H1475 C1481 0.950 . S
H1476 C1482 0.949 . S
C1477 H1472 0.950 . S
C1477 C1479 1.327 . S
C1477 C1483 1.429 . S
C1478 C1470 1.574 . S
C1478 H1473 0.949 . S
C1478 C1484 1.368 1_545 S
C1479 C1463 1.349 . S
C1479 H1471 0.950 . S
C1479 C1477 1.327 . S
C1480 C1468 1.349 . S
C1480 H1474 0.950 . S
C1480 C1481 1.327 . S
C1481 H1475 0.950 . S
C1481 C1480 1.327 . S
C1481 C1485 1.429 . S
C1482 C1465 1.574 . S
C1482 H1476 0.949 . S
C1482 C1486 1.368 1_565 S
C1483 C1464 1.429 . S
C1483 C1477 1.429 . S
C1483 C1484 1.523 . S
C1484 C1465 1.368 . S
C1484 C1478 1.368 1_565 S
C1484 C1483 1.523 . S
C1485 C1469 1.429 . S
C1485 C1481 1.429 . S
C1485 C1486 1.523 . S
C1486 C1470 1.368 . S
C1486 C1482 1.368 1_545 S
C1486 C1485 1.523 . S
H1487 C1462 0.950 . S
H1488 C1464 0.950 . S
H1489 C1465 0.949 . S
H1490 C1467 0.950 . S
H1491 C1469 0.950 . S
C1492 C1493 1.349 . S
C1492 C1494 1.327 . S
C1492 H1517 0.950 . S
C1493 C1492 1.349 . S
C1493 C1509 1.349 . S
C1494 C1492 1.327 . S
C1494 C1513 1.429 . S
C1494 H1518 0.950 . S
C1495 C1512 1.574 . S
C1495 C1514 1.368 . S
C1495 H1519 0.949 . S
H1496 C1500 0.949 . S
C1497 C1498 1.349 . S
C1497 C1499 1.327 . S
C1497 H1520 0.950 . S
C1498 C1497 1.349 . S
C1498 C1510 1.349 . S
C1499 C1497 1.327 . S
C1499 C1515 1.429 . S
C1499 H1521 0.950 . S
C1500 H1496 0.949 . S
C1500 C1508 1.574 . S
C1500 C1516 1.368 . S
H1501 C1509 0.950 . S
H1502 C1507 0.950 . S
H1503 C1508 0.949 . S
H1504 C1510 0.950 . S
H1505 C1511 0.950 . S
H1506 C1512 0.949 . S
C1507 H1502 0.950 . S
C1507 C1509 1.327 . S
C1507 C1513 1.429 . S
C1508 C1500 1.574 . S
C1508 H1503 0.949 . S
C1508 C1514 1.368 . S
C1509 C1493 1.349 . S
C1509 H1501 0.950 . S
C1509 C1507 1.327 . S
C1510 C1498 1.349 . S
C1510 H1504 0.950 . S
C1510 C1511 1.327 . S
C1511 H1505 0.950 . S
C1511 C1510 1.327 . S
C1511 C1515 1.429 . S
C1512 C1495 1.574 . S
C1512 H1506 0.949 . S
C1512 C1516 1.368 . S
C1513 C1494 1.429 . S
C1513 C1507 1.429 . S
C1513 C1514 1.523 . S
C1514 C1495 1.368 . S
C1514 C1508 1.368 . S
C1514 C1513 1.523 . S
C1515 C1499 1.429 . S
C1515 C1511 1.429 . S
C1515 C1516 1.523 . S
C1516 C1500 1.368 . S
C1516 C1512 1.368 . S
C1516 C1515 1.523 . S
H1517 C1492 0.950 . S
H1518 C1494 0.950 . S
H1519 C1495 0.949 . S
H1520 C1497 0.950 . S
H1521 C1499 0.950 . S
C1522 C1523 1.349 . S
C1522 C1524 1.327 . S
C1522 H1547 0.950 . S
C1523 C1522 1.349 . S
C1523 C1539 1.349 . S
C1524 C1522 1.327 . S
C1524 C1543 1.429 . S
C1524 H1548 0.950 . S
C1525 C1542 1.574 . S
C1525 C1544 1.368 1_655 S
C1525 H1549 0.949 . S
H1526 C1530 0.949 . S
C1527 C1528 1.349 . S
C1527 C1529 1.327 . S
C1527 H1550 0.950 . S
C1528 C1527 1.349 . S
C1528 C1540 1.349 . S
C1529 C1527 1.327 . S
C1529 C1545 1.429 . S
C1529 H1551 0.950 . S
C1530 H1526 0.949 . S
C1530 C1538 1.574 . S
C1530 C1546 1.368 1_455 S
H1531 C1539 0.950 . S
H1532 C1537 0.950 . S
H1533 C1538 0.949 . S
H1534 C1540 0.950 . S
H1535 C1541 0.950 . S
H1536 C1542 0.949 . S
C1537 H1532 0.950 . S
C1537 C1539 1.327 . S
C1537 C1543 1.429 . S
C1538 C1530 1.574 . S
C1538 H1533 0.949 . S
C1538 C1544 1.368 . S
C1539 C1523 1.349 . S
C1539 H1531 0.950 . S
C1539 C1537 1.327 . S
C1540 C1528 1.349 . S
C1540 H1534 0.950 . S
C1540 C1541 1.327 . S
C1541 H1535 0.950 . S
C1541 C1540 1.327 . S
C1541 C1545 1.429 . S
C1542 C1525 1.574 . S
C1542 H1536 0.949 . S
C1542 C1546 1.368 . S
C1543 C1524 1.429 . S
C1543 C1537 1.429 . S
C1543 C1544 1.523 . S
C1544 C1525 1.368 1_455 S
C1544 C1538 1.368 . S
C1544 C1543 1.523 . S
C1545 C1529 1.429 . S
C1545 C1541 1.429 . S
C1545 C1546 1.523 . S
C1546 C1530 1.368 1_655 S
C1546 C1542 1.368 . S
C1546 C1545 1.523 . S
H1547 C1522 0.950 . S
H1548 C1524 0.950 . S
H1549 C1525 0.949 . S
H1550 C1527 0.950 . S
H1551 C1529 0.950 . S
C1552 C1553 1.349 . S
C1552 C1554 1.327 . S
C1552 H1577 0.950 . S
C1553 C1552 1.349 . S
C1553 C1569 1.349 . S
C1554 C1552 1.327 . S
C1554 C1573 1.429 . S
C1554 H1578 0.950 . S
C1555 C1572 1.574 . S
C1555 C1574 1.368 . S
C1555 H1579 0.949 . S
H1556 C1560 0.949 . S
C1557 C1558 1.349 . S
C1557 C1559 1.327 . S
C1557 H1580 0.950 . S
C1558 C1557 1.349 . S
C1558 C1570 1.349 1_455 S
C1559 C1557 1.327 . S
C1559 C1575 1.429 1_455 S
C1559 H1581 0.950 . S
C1560 H1556 0.949 . S
C1560 C1568 1.574 . S
C1560 C1576 1.368 . S
H1561 C1569 0.950 . S
H1562 C1567 0.950 . S
H1563 C1568 0.949 . S
H1564 C1570 0.950 . S
H1565 C1571 0.950 . S
H1566 C1572 0.949 . S
C1567 H1562 0.950 . S
C1567 C1569 1.327 . S
C1567 C1573 1.429 . S
C1568 C1560 1.574 . S
C1568 H1563 0.949 . S
C1568 C1574 1.368 . S
C1569 C1553 1.349 . S
C1569 H1561 0.950 . S
C1569 C1567 1.327 . S
C1570 C1558 1.349 1_655 S
C1570 H1564 0.950 . S
C1570 C1571 1.327 . S
C1571 H1565 0.950 . S
C1571 C1570 1.327 . S
C1571 C1575 1.429 . S
C1572 C1555 1.574 . S
C1572 H1566 0.949 . S
C1572 C1576 1.368 . S
C1573 C1554 1.429 . S
C1573 C1567 1.429 . S
C1573 C1574 1.523 . S
C1574 C1555 1.368 . S
C1574 C1568 1.368 . S
C1574 C1573 1.523 . S
C1575 C1559 1.429 1_655 S
C1575 C1571 1.429 . S
C1575 C1576 1.523 . S
C1576 C1560 1.368 . S
C1576 C1572 1.368 . S
C1576 C1575 1.523 . S
H1577 C1552 0.950 . S
H1578 C1554 0.950 . S
H1579 C1555 0.949 . S
H1580 C1557 0.950 . S
H1581 C1559 0.950 . S
C1582 C1583 1.349 . S
C1582 C1584 1.327 . S
C1582 H1607 0.950 . S
C1583 C1582 1.349 . S
C1583 C1599 1.349 1_455 S
C1584 C1582 1.327 . S
C1584 C1603 1.429 1_455 S
C1584 H1608 0.950 . S
C1585 C1602 1.574 . S
C1585 C1604 1.368 . S
C1585 H1609 0.949 . S
H1586 C1590 0.949 1_545 S
C1587 C1588 1.349 1_565 S
C1587 C1589 1.327 . S
C1587 H1610 0.950 . S
C1588 C1587 1.349 1_545 S
C1588 C1600 1.349 . S
C1589 C1587 1.327 . S
C1589 C1605 1.429 . S
C1589 H1611 0.950 . S
C1590 H1586 0.949 1_565 S
C1590 C1598 1.574 . S
C1590 C1606 1.368 . S
H1591 C1599 0.950 . S
H1592 C1597 0.950 . S
H1593 C1598 0.949 1_455 S
H1594 C1600 0.950 . S
H1595 C1601 0.950 . S
H1596 C1602 0.949 . S
C1597 H1592 0.950 . S
C1597 C1599 1.327 . S
C1597 C1603 1.429 . S
C1598 C1590 1.574 . S
C1598 H1593 0.949 1_655 S
C1598 C1604 1.368 . S
C1599 C1583 1.349 1_655 S
C1599 H1591 0.950 . S
C1599 C1597 1.327 . S
C1600 C1588 1.349 . S
C1600 H1594 0.950 . S
C1600 C1601 1.327 . S
C1601 H1595 0.950 . S
C1601 C1600 1.327 . S
C1601 C1605 1.429 1_545 S
C1602 C1585 1.574 . S
C1602 H1596 0.949 . S
C1602 C1606 1.368 . S
C1603 C1584 1.429 1_655 S
C1603 C1597 1.429 . S
C1603 C1604 1.523 . S
C1604 C1585 1.368 . S
C1604 C1598 1.368 . S
C1604 C1603 1.523 . S
C1605 C1589 1.429 . S
C1605 C1601 1.429 1_565 S
C1605 C1606 1.523 . S
C1606 C1590 1.368 . S
C1606 C1602 1.368 . S
C1606 C1605 1.523 . S
H1607 C1582 0.950 . S
H1608 C1584 0.950 . S
H1609 C1585 0.949 . S
H1610 C1587 0.950 . S
H1611 C1589 0.950 . S
C1612 C1613 1.349 1_565 S
C1612 C1614 1.327 . S
C1612 H1637 0.950 . S
C1613 C1612 1.349 1_545 S
C1613 C1629 1.349 . S
C1614 C1612 1.327 . S
C1614 C1633 1.429 . S
C1614 H1638 0.950 . S
C1615 C1632 1.574 . S
C1615 C1634 1.368 . S
C1615 H1639 0.949 1_565 S
H1616 C1620 0.949 . S
C1617 C1618 1.349 . S
C1617 C1619 1.327 . S
C1617 H1640 0.950 . S
C1618 C1617 1.349 . S
C1618 C1630 1.349 . S
C1619 C1617 1.327 . S
C1619 C1635 1.429 . S
C1619 H1641 0.950 . S
C1620 H1616 0.949 . S
C1620 C1628 1.574 . S
C1620 C1636 1.368 . S
H1621 C1629 0.950 . S
H1622 C1627 0.950 . S
H1623 C1628 0.949 . S
H1624 C1630 0.950 . S
H1625 C1631 0.950 . S
H1626 C1632 0.949 . S
C1627 H1622 0.950 . S
C1627 C1629 1.327 . S
C1627 C1633 1.429 1_545 S
C1628 C1620 1.574 . S
C1628 H1623 0.949 . S
C1628 C1634 1.368 . S
C1629 C1613 1.349 . S
C1629 H1621 0.950 . S
C1629 C1627 1.327 . S
C1630 C1618 1.349 . S
C1630 H1624 0.950 . S
C1630 C1631 1.327 . S
C1631 H1625 0.950 . S
C1631 C1630 1.327 . S
C1631 C1635 1.429 . S
C1632 C1615 1.574 . S
C1632 H1626 0.949 . S
C1632 C1636 1.368 . S
C1633 C1614 1.429 . S
C1633 C1627 1.429 1_565 S
C1633 C1634 1.523 . S
C1634 C1615 1.368 . S
C1634 C1628 1.368 . S
C1634 C1633 1.523 . S
C1635 C1619 1.429 . S
C1635 C1631 1.429 . S
C1635 C1636 1.523 . S
C1636 C1620 1.368 . S
C1636 C1632 1.368 . S
C1636 C1635 1.523 . S
H1637 C1612 0.950 . S
H1638 C1614 0.950 . S
H1639 C1615 0.949 1_545 S
H1640 C1617 0.950 . S
H1641 C1619 0.950 . S
C1642 C1643 1.349 . S
C1642 C1644 1.327 . S
C1642 H1667 0.950 . S
C1643 C1642 1.349 . S
C1643 C1659 1.349 . S
C1644 C1642 1.327 . S
C1644 C1663 1.429 . S
C1644 H1668 0.950 . S
C1645 C1662 1.574 . S
C1645 C1664 1.368 . S
C1645 H1669 0.949 . S
H1646 C1650 0.949 . S
C1647 C1648 1.349 . S
C1647 C1649 1.327 . S
C1647 H1670 0.950 . S
C1648 C1647 1.349 . S
C1648 C1660 1.349 . S
C1649 C1647 1.327 . S
C1649 C1665 1.429 . S
C1649 H1671 0.950 . S
C1650 H1646 0.949 . S
C1650 C1658 1.574 . S
C1650 C1666 1.368 . S
H1651 C1659 0.950 . S
H1652 C1657 0.950 . S
H1653 C1658 0.949 . S
H1654 C1660 0.950 . S
H1655 C1661 0.950 . S
H1656 C1662 0.949 . S
C1657 H1652 0.950 . S
C1657 C1659 1.327 . S
C1657 C1663 1.429 . S
C1658 C1650 1.574 . S
C1658 H1653 0.949 . S
C1658 C1664 1.368 . S
C1659 C1643 1.349 . S
C1659 H1651 0.950 . S
C1659 C1657 1.327 . S
C1660 C1648 1.349 . S
C1660 H1654 0.950 . S
C1660 C1661 1.327 . S
C1661 H1655 0.950 . S
C1661 C1660 1.327 . S
C1661 C1665 1.429 . S
C1662 C1645 1.574 . S
C1662 H1656 0.949 . S
C1662 C1666 1.368 . S
C1663 C1644 1.429 . S
C1663 C1657 1.429 . S
C1663 C1664 1.523 . S
C1664 C1645 1.368 . S
C1664 C1658 1.368 . S
C1664 C1663 1.523 . S
C1665 C1649 1.429 . S
C1665 C1661 1.429 . S
C1665 C1666 1.523 . S
C1666 C1650 1.368 . S
C1666 C1662 1.368 . S
C1666 C1665 1.523 . S
H1667 C1642 0.950 . S
H1668 C1644 0.950 . S
H1669 C1645 0.949 . S
H1670 C1647 0.950 . S
H1671 C1649 0.950 . S
C1672 C1673 1.349 . S
C1672 C1674 1.327 . S
C1672 H1697 0.950 . S
C1673 C1672 1.349 . S
C1673 C1689 1.349 . S
C1674 C1672 1.327 . S
C1674 C1693 1.429 . S
C1674 H1698 0.950 . S
C1675 C1692 1.574 . S
C1675 C1694 1.368 . S
C1675 H1699 0.949 . S
H1676 C1680 0.949 . S
C1677 C1678 1.349 1_455 S
C1677 C1679 1.327 . S
C1677 H1700 0.950 . S
C1678 C1677 1.349 1_655 S
C1678 C1690 1.349 . S
C1679 C1677 1.327 . S
C1679 C1695 1.429 . S
C1679 H1701 0.950 . S
C1680 H1676 0.949 . S
C1680 C1688 1.574 . S
C1680 C1696 1.368 . S
H1681 C1689 0.950 . S
H1682 C1687 0.950 . S
H1683 C1688 0.949 . S
H1684 C1690 0.950 . S
H1685 C1691 0.950 . S
H1686 C1692 0.949 . S
C1687 H1682 0.950 . S
C1687 C1689 1.327 . S
C1687 C1693 1.429 . S
C1688 C1680 1.574 . S
C1688 H1683 0.949 . S
C1688 C1694 1.368 . S
C1689 C1673 1.349 . S
C1689 H1681 0.950 . S
C1689 C1687 1.327 . S
C1690 C1678 1.349 . S
C1690 H1684 0.950 . S
C1690 C1691 1.327 . S
C1691 H1685 0.950 . S
C1691 C1690 1.327 . S
C1691 C1695 1.429 1_655 S
C1692 C1675 1.574 . S
C1692 H1686 0.949 . S
C1692 C1696 1.368 . S
C1693 C1674 1.429 . S
C1693 C1687 1.429 . S
C1693 C1694 1.523 . S
C1694 C1675 1.368 . S
C1694 C1688 1.368 . S
C1694 C1693 1.523 . S
C1695 C1679 1.429 . S
C1695 C1691 1.429 1_455 S
C1695 C1696 1.523 . S
C1696 C1680 1.368 . S
C1696 C1692 1.368 . S
C1696 C1695 1.523 . S
H1697 C1672 0.950 . S
H1698 C1674 0.950 . S
H1699 C1675 0.949 . S
H1700 C1677 0.950 . S
H1701 C1679 0.950 . S
C1702 C1703 1.349 1_455 S
C1702 C1704 1.327 . S
C1702 H1727 0.950 . S
C1703 C1702 1.349 1_655 S
C1703 C1719 1.349 . S
C1704 C1702 1.327 . S
C1704 C1723 1.429 . S
C1704 H1728 0.950 . S
C1705 C1722 1.574 . S
C1705 C1724 1.368 . S
C1705 H1729 0.923 1_455 S
H1706 C1710 0.949 . S
C1707 C1708 1.349 1_545 S
C1707 C1709 1.327 . S
C1707 H1730 0.950 . S
C1708 C1707 1.349 1_565 S
C1708 C1720 1.349 . S
C1709 C1707 1.327 . S
C1709 C1725 1.429 . S
C1709 H1731 0.950 . S
C1710 H1706 0.949 . S
C1710 C1718 1.574 . S
C1710 C1726 1.368 . S
H1711 C1719 0.950 . S
H1712 C1717 0.950 . S
H1713 C1718 0.949 . S
H1714 C1720 0.950 . S
H1715 C1721 0.950 . S
H1716 C1722 0.949 . S
C1717 H1712 0.950 . S
C1717 C1719 1.327 . S
C1717 C1723 1.429 1_655 S
C1718 C1710 1.574 . S
C1718 H1713 0.949 . S
C1718 C1724 1.368 . S
C1719 C1703 1.349 . S
C1719 H1711 0.950 . S
C1719 C1717 1.327 . S
C1720 C1708 1.349 . S
C1720 H1714 0.950 . S
C1720 C1721 1.327 . S
C1721 H1715 0.950 . S
C1721 C1720 1.327 . S
C1721 C1725 1.429 1_565 S
C1722 C1705 1.574 . S
C1722 H1716 0.949 . S
C1722 C1726 1.368 . S
C1723 C1704 1.429 . S
C1723 C1717 1.429 1_455 S
C1723 C1724 1.523 . S
C1724 C1705 1.368 . S
C1724 C1718 1.368 . S
C1724 C1723 1.523 . S
C1725 C1709 1.429 . S
C1725 C1721 1.429 1_545 S
C1725 C1726 1.523 . S
C1726 C1710 1.368 . S
C1726 C1722 1.368 . S
C1726 C1725 1.523 . S
H1727 C1702 0.950 . S
H1728 C1704 0.950 . S
H1729 C1705 0.923 1_655 S
H1730 C1707 0.950 . S
H1731 C1709 0.950 . S
C1732 C1733 1.349 1_545 S
C1732 C1734 1.327 . S
C1732 H1757 0.950 . S
C1733 C1732 1.349 1_565 S
C1733 C1749 1.349 . S
C1734 C1732 1.327 . S
C1734 C1753 1.429 . S
C1734 H1758 0.950 . S
C1735 C1752 1.574 . S
C1735 C1754 1.368 . S
C1735 H1759 0.949 1_545 S
H1736 C1740 0.949 . S
C1737 C1738 1.349 . S
C1737 C1739 1.327 . S
C1737 H1760 0.950 . S
C1738 C1737 1.349 . S
C1738 C1750 1.349 . S
C1739 C1737 1.327 . S
C1739 C1755 1.429 . S
C1739 H1761 0.950 . S
C1740 H1736 0.949 . S
C1740 C1748 1.574 . S
C1740 C1756 1.368 . S
H1741 C1749 0.950 . S
H1742 C1747 0.950 . S
H1743 C1748 0.949 . S
H1744 C1750 0.950 . S
H1745 C1751 0.950 . S
H1746 C1752 0.949 . S
C1747 H1742 0.950 . S
C1747 C1749 1.327 . S
C1747 C1753 1.429 1_565 S
C1748 C1740 1.574 . S
C1748 H1743 0.949 . S
C1748 C1754 1.368 . S
C1749 C1733 1.349 . S
C1749 H1741 0.950 . S
C1749 C1747 1.327 . S
C1750 C1738 1.349 . S
C1750 H1744 0.950 . S
C1750 C1751 1.327 . S
C1751 H1745 0.950 . S
C1751 C1750 1.327 . S
C1751 C1755 1.429 . S
C1752 C1735 1.574 . S
C1752 H1746 0.949 . S
C1752 C1756 1.368 . S
C1753 C1734 1.429 . S
C1753 C1747 1.429 1_545 S
C1753 C1754 1.523 . S
C1754 C1735 1.368 . S
C1754 C1748 1.368 . S
C1754 C1753 1.523 . S
C1755 C1739 1.429 . S
C1755 C1751 1.429 . S
C1755 C1756 1.523 . S
C1756 C1740 1.368 . S
C1756 C1752 1.368 . S
C1756 C1755 1.523 . S
H1757 C1732 0.950 . S
H1758 C1734 0.950 . S
H1759 C1735 0.949 1_565 S
H1760 C1737 0.950 . S
H1761 C1739 0.950 . S
C1762 C1763 1.349 . S
C1762 C1764 1.327 . S
C1762 H1787 0.950 . S
C1763 C1762 1.349 . S
C1763 C1779 1.349 . S
C1764 C1762 1.327 . S
C1764 C1783 1.429 . S
C1764 H1788 0.950 . S
C1765 C1782 1.574 . S
C1765 C1784 1.368 . S
C1765 H1789 0.949 . S
H1766 C1770 0.949 . S
C1767 C1768 1.349 . S
C1767 C1769 1.327 . S
C1767 H1790 0.950 . S
C1768 C1767 1.349 . S
C1768 C1780 1.349 . S
C1769 C1767 1.327 . S
C1769 C1785 1.429 . S
C1769 H1791 0.950 . S
C1770 H1766 0.949 . S
C1770 C1778 1.574 . S
C1770 C1786 1.368 . S
H1771 C1779 0.950 . S
H1772 C1777 0.950 . S
H1773 C1778 0.949 . S
H1774 C1780 0.950 . S
H1775 C1781 0.950 . S
H1776 C1782 0.949 . S
C1777 H1772 0.950 . S
C1777 C1779 1.327 . S
C1777 C1783 1.429 . S
C1778 C1770 1.574 . S
C1778 H1773 0.949 . S
C1778 C1784 1.368 . S
C1779 C1763 1.349 . S
C1779 H1771 0.950 . S
C1779 C1777 1.327 . S
C1780 C1768 1.349 . S
C1780 H1774 0.950 . S
C1780 C1781 1.327 . S
C1781 H1775 0.950 . S
C1781 C1780 1.327 . S
C1781 C1785 1.429 . S
C1782 C1765 1.574 . S
C1782 H1776 0.949 . S
C1782 C1786 1.368 . S
C1783 C1764 1.429 . S
C1783 C1777 1.429 . S
C1783 C1784 1.523 . S
C1784 C1765 1.368 . S
C1784 C1778 1.368 . S
C1784 C1783 1.523 . S
C1785 C1769 1.429 . S
C1785 C1781 1.429 . S
C1785 C1786 1.523 . S
C1786 C1770 1.368 . S
C1786 C1782 1.368 . S
C1786 C1785 1.523 . S
H1787 C1762 0.950 . S
H1788 C1764 0.950 . S
H1789 C1765 0.949 . S
H1790 C1767 0.950 . S
H1791 C1769 0.950 . S
C353 C70 1.069 . S
C358 C8 1.089 . S
C383 C4 1.069 . S
C388 C30 1.089 . S
C413 C52 1.089 . S
C418 C26 1.069 . S
C443 C48 1.069 . S
C448 C74 1.089 . S
C473 C92 1.089 . S
C478 C114 1.069 . S
C503 C118 1.089 . S
C508 C140 1.069 . S
C533 C136 1.089 . S
C538 C162 1.069 . S
C563 C96 1.069 . S
C568 C158 1.089 . S
C593 C184 1.089 . S
C598 C246 1.069 . S
C623 C180 1.069 . S
C628 C202 1.089 . S
C653 C206 1.069 . S
C658 C228 1.089 . S
C683 C224 1.069 . S
C688 C250 1.089 . S
C713 C268 1.089 . S
C718 C294 1.069 . S
C743 C316 1.069 . S
C748 C290 1.089 . S
C773 C338 1.069 . S
C778 C312 1.089 . S
C803 C334 1.089 . S
C808 C272 1.069 . S
C833 C6 0.417 . S
C838 C95 0.417 . S
C863 C116 0.417 . S
C868 C28 0.417 . S
C893 C50 0.417 . S
C898 C139 0.417 . S
C923 C72 0.417 . S
C928 C161 0.417 . S
C953 C273 0.417 . S
C958 C181 0.417 . S
C983 C295 0.417 . S
C988 C207 0.417 . S
C1013 C225 0.417 . S
C1018 C317 0.417 . S
C1043 C339 0.417 . S
C1048 C247 0.417 . S
C1073 C5 2.077 . S
C1078 C49 2.077 . S
C1103 C27 2.077 . S
C1108 C71 2.077 . S
C1133 C141 2.077 . S
C1138 C97 2.077 . S
C1163 C163 2.077 . S
C1168 C115 2.077 . S
C1193 C226 2.077 . S
C1198 C182 2.077 . S
C1223 C248 2.077 . S
C1228 C205 2.077 . S
C1253 C271 2.077 . S
C1258 C315 2.077 . S
C1283 C293 2.077 . S
C1288 C337 2.077 . S
C1313 C185 1.230 . S
C1318 C7 1.230 . S
C1343 C203 1.230 . S
C1348 C29 1.230 . S
C1373 C229 1.230 . S
C1378 C51 1.230 . S
C1403 C73 1.229 . S
C1408 C251 1.229 . S
C1433 C269 1.230 . S
C1438 C94 1.230 . S
C1463 C291 1.230 . S
C1468 C117 1.230 . S
C1493 C313 1.229 . S
C1498 C138 1.229 . S
C1523 C335 1.230 . S
C1528 C160 1.230 . S
C1553 C159 1.134 . S
C1558 C9 1.134 . S
C1583 C93 1.134 . S
C1588 C31 1.134 . S
C1613 C119 1.134 . S
C1618 C53 1.134 . S
C1643 C137 1.134 . S
C1648 C75 1.134 . S
C1673 C336 1.134 . S
C1678 C183 1.134 . S
C1703 C270 1.134 . S
C1708 C204 1.134 . S
C1733 C292 1.134 . S
C1738 C227 1.134 . S
C1763 C249 1.134 . S
C1768 C314 1.134 . S
