# Generated by pormake.
# Topology uob, (4)-cn, num edge types: 1
# Building blocks:
#     Node 0, Type 0, BuildingBlock: NAWXER_clean_sbu_0, # of connection points: 4
#     Node 1, Type 0, BuildingBlock: NAWXER_clean_sbu_0, # of connection points: 4
#     Node 2, Type 0, BuildingBlock: NAWXER_clean_sbu_0, # of connection points: 4
#     Node 3, Type 0, BuildingBlock: NAWXER_clean_sbu_0, # of connection points: 4
#     Node 4, Type 0, BuildingBlock: NAWXER_clean_sbu_0, # of connection points: 4
#     Node 5, Type 0, BuildingBlock: NAWXER_clean_sbu_0, # of connection points: 4
#     Node 6, Type 0, BuildingBlock: NAWXER_clean_sbu_0, # of connection points: 4
#     Node 7, Type 0, BuildingBlock: NAWXER_clean_sbu_0, # of connection points: 4
#     Node 8, Type 0, BuildingBlock: NAWXER_clean_sbu_0, # of connection points: 4
#     Node 9, Type 0, BuildingBlock: NAWXER_clean_sbu_0, # of connection points: 4
#     Node 10, Type 0, BuildingBlock: NAWXER_clean_sbu_0, # of connection points: 4
#     Node 11, Type 0, BuildingBlock: NAWXER_clean_sbu_0, # of connection points: 4
#     Node 12, Type 0, BuildingBlock: NAWXER_clean_sbu_0, # of connection points: 4
#     Node 13, Type 0, BuildingBlock: NAWXER_clean_sbu_0, # of connection points: 4
#     Node 14, Type 0, BuildingBlock: NAWXER_clean_sbu_0, # of connection points: 4
#     Node 15, Type 0, BuildingBlock: NAWXER_clean_sbu_0, # of connection points: 4
#     Edge 16, Type (0, 0), BuildingBlock: OJICUG_clean_linker_0, # of connection points: 2
#     Edge 17, Type (0, 0), BuildingBlock: OJICUG_clean_linker_0, # of connection points: 2
#     Edge 18, Type (0, 0), BuildingBlock: OJICUG_clean_linker_0, # of connection points: 2
#     Edge 19, Type (0, 0), BuildingBlock: OJICUG_clean_linker_0, # of connection points: 2
#     Edge 20, Type (0, 0), BuildingBlock: OJICUG_clean_linker_0, # of connection points: 2
#     Edge 21, Type (0, 0), BuildingBlock: OJICUG_clean_linker_0, # of connection points: 2
#     Edge 22, Type (0, 0), BuildingBlock: OJICUG_clean_linker_0, # of connection points: 2
#     Edge 23, Type (0, 0), BuildingBlock: OJICUG_clean_linker_0, # of connection points: 2
#     Edge 24, Type (0, 0), BuildingBlock: OJICUG_clean_linker_0, # of connection points: 2
#     Edge 25, Type (0, 0), BuildingBlock: OJICUG_clean_linker_0, # of connection points: 2
#     Edge 26, Type (0, 0), BuildingBlock: OJICUG_clean_linker_0, # of connection points: 2
#     Edge 27, Type (0, 0), BuildingBlock: OJICUG_clean_linker_0, # of connection points: 2
#     Edge 28, Type (0, 0), BuildingBlock: OJICUG_clean_linker_0, # of connection points: 2
#     Edge 29, Type (0, 0), BuildingBlock: OJICUG_clean_linker_0, # of connection points: 2
#     Edge 30, Type (0, 0), BuildingBlock: OJICUG_clean_linker_0, # of connection points: 2
#     Edge 31, Type (0, 0), BuildingBlock: OJICUG_clean_linker_0, # of connection points: 2
#     Edge 32, Type (0, 0), BuildingBlock: OJICUG_clean_linker_0, # of connection points: 2
#     Edge 33, Type (0, 0), BuildingBlock: OJICUG_clean_linker_0, # of connection points: 2
#     Edge 34, Type (0, 0), BuildingBlock: OJICUG_clean_linker_0, # of connection points: 2
#     Edge 35, Type (0, 0), BuildingBlock: OJICUG_clean_linker_0, # of connection points: 2
#     Edge 36, Type (0, 0), BuildingBlock: OJICUG_clean_linker_0, # of connection points: 2
#     Edge 37, Type (0, 0), BuildingBlock: OJICUG_clean_linker_0, # of connection points: 2
#     Edge 38, Type (0, 0), BuildingBlock: OJICUG_clean_linker_0, # of connection points: 2
#     Edge 39, Type (0, 0), BuildingBlock: OJICUG_clean_linker_0, # of connection points: 2
#     Edge 40, Type (0, 0), BuildingBlock: OJICUG_clean_linker_0, # of connection points: 2
#     Edge 41, Type (0, 0), BuildingBlock: OJICUG_clean_linker_0, # of connection points: 2
#     Edge 42, Type (0, 0), BuildingBlock: OJICUG_clean_linker_0, # of connection points: 2
#     Edge 43, Type (0, 0), BuildingBlock: OJICUG_clean_linker_0, # of connection points: 2
#     Edge 44, Type (0, 0), BuildingBlock: OJICUG_clean_linker_0, # of connection points: 2
#     Edge 45, Type (0, 0), BuildingBlock: OJICUG_clean_linker_0, # of connection points: 2
#     Edge 46, Type (0, 0), BuildingBlock: OJICUG_clean_linker_0, # of connection points: 2
#     Edge 47, Type (0, 0), BuildingBlock: OJICUG_clean_linker_0, # of connection points: 2
# Relax obj value: 0.120
# Max RMSD: 0.245
# Mean RMSD: 0.245
data_MOF--net-uob--node1-NAWXER_clean_sbu_0--edge1-OJICUG_clean_linker_0
_symmetry_space_group_name_H-M    P1
_symmetry_Int_Tables_number       1
_symmetry_cell_setting            triclinic
loop_
_symmetry_equiv_pos_as_xyz
'x, y, z'
_cell_length_a     37.948117
_cell_length_b     37.95084
_cell_length_c     20.720131
_cell_angle_alpha  90.001959
_cell_angle_beta   90.009145
_cell_angle_gamma 89.974088
loop_
_atom_site_label
_atom_site_type_symbol
_atom_site_fract_x
_atom_site_fract_y
_atom_site_fract_z
_atom_type_partial_charge
C0 C 0.10997 0.09605 0.39865 0.0
C1 C 0.13583 0.11237 0.17166 0.0
O2 O 0.12197 0.06774 0.37292 0.0
Zn3 Zn 0.14019 0.05118 0.27825 0.0
O4 O 0.10613 0.12374 0.36478 0.0
Zn5 Zn 0.12501 0.10386 0.28754 0.0
O6 O 0.08281 0.06747 0.26533 0.0
O7 O 0.10638 0.01448 0.25927 0.0
O8 O 0.12686 0.13465 0.21408 0.0
O9 O 0.14235 0.08049 0.18876 0.0
O10 O 0.18757 0.03687 0.30002 0.0
O11 O 0.17846 0.09308 0.32043 0.0
C12 C 0.07931 0.03417 0.25669 0.0
C13 C 0.19825 0.0657 0.32429 0.0
C14 C 0.9178 0.60962 0.64863 0.0
C15 C 0.90089 0.63598 0.42185 0.0
O16 O 0.9461 0.62131 0.62244 0.0
Zn17 Zn 0.96247 0.63931 0.52772 0.0
O18 O 0.88994 0.60594 0.61516 0.0
Zn19 Zn 0.90963 0.62454 0.53746 0.0
O20 O 0.94544 0.582 0.51457 0.0
O21 O 0.9986 0.60504 0.50782 0.0
O22 O 0.87865 0.62684 0.46423 0.0
O23 O 0.93283 0.6422 0.43884 0.0
O24 O 0.97732 0.68652 0.54959 0.0
O25 O 0.92102 0.67792 0.56998 0.0
C26 C 0.97865 0.57817 0.50532 0.0
C27 C 0.94856 0.69748 0.57377 0.0
C28 C 0.40549 0.41809 0.89859 0.0
C29 C 0.37896 0.40131 0.67183 0.0
O30 O 0.39385 0.44643 0.87239 0.0
Zn31 Zn 0.37583 0.46286 0.77773 0.0
O32 O 0.40908 0.39022 0.86514 0.0
Zn33 Zn 0.39048 0.40997 0.78744 0.0
O34 O 0.4331 0.44565 0.76453 0.0
O35 O 0.41018 0.49888 0.75781 0.0
O36 O 0.38806 0.37902 0.71418 0.0
O37 O 0.37283 0.43327 0.68885 0.0
O38 O 0.32867 0.47783 0.79972 0.0
O39 O 0.33716 0.4215 0.82009 0.0
C40 C 0.437 0.47885 0.75529 0.0
C41 C 0.31766 0.44911 0.82394 0.0
C42 C 0.598 0.90597 0.14951 0.0
C43 C 0.61489 0.87962 0.9227 0.0
O44 O 0.56969 0.89434 0.12327 0.0
Zn45 Zn 0.55331 0.87637 0.02852 0.0
O46 O 0.62588 0.90959 0.11608 0.0
Zn47 Zn 0.60617 0.89102 0.03835 0.0
O48 O 0.57042 0.93365 0.01549 0.0
O49 O 0.51723 0.91069 0.00862 0.0
O50 O 0.63715 0.88868 0.96512 0.0
O51 O 0.58293 0.87347 0.93966 0.0
O52 O 0.53837 0.8292 0.05032 0.0
O53 O 0.59467 0.83765 0.07092 0.0
C54 C 0.53722 0.93753 0.0062 0.0
C55 C 0.56707 0.81817 0.07462 0.0
C56 C 0.1974 0.4491 0.99782 0.0
C57 C 0.07803 0.47881 0.06654 0.0
O58 O 0.17793 0.4215 0.00167 0.0
Zn59 Zn 0.12462 0.40995 0.03431 0.0
O60 O 0.18637 0.47782 0.02205 0.0
Zn61 Zn 0.13923 0.46284 0.04406 0.0
O62 O 0.1423 0.43322 0.13289 0.0
O63 O 0.12709 0.37899 0.10754 0.0
O64 O 0.10483 0.49884 0.06404 0.0
O65 O 0.08197 0.44562 0.05726 0.0
O66 O 0.10604 0.39022 0.95659 0.0
O67 O 0.12123 0.44642 0.94938 0.0
C68 C 0.13621 0.40126 0.14989 0.0
C69 C 0.10963 0.41809 0.92316 0.0
C70 C 0.59745 0.60975 0.17318 0.0
C71 C 0.61436 0.63611 0.39997 0.0
O72 O 0.56916 0.62147 0.1994 0.0
Zn73 Zn 0.5528 0.63951 0.29407 0.0
O74 O 0.62532 0.60605 0.20662 0.0
Zn75 Zn 0.60565 0.62469 0.28434 0.0
O76 O 0.56982 0.58218 0.30721 0.0
O77 O 0.51666 0.60526 0.31394 0.0
O78 O 0.63661 0.62695 0.35761 0.0
O79 O 0.58242 0.64235 0.38295 0.0
O80 O 0.53801 0.68673 0.27217 0.0
O81 O 0.5943 0.67808 0.25179 0.0
C82 C 0.53661 0.57838 0.31645 0.0
C83 C 0.56676 0.69767 0.24799 0.0
C84 C 0.40606 0.09766 0.42414 0.0
C85 C 0.37947 0.11447 0.65087 0.0
O86 O 0.3945 0.06932 0.45036 0.0
Zn87 Zn 0.3765 0.0529 0.54504 0.0
O88 O 0.40959 0.12555 0.45756 0.0
Zn89 Zn 0.39101 0.1058 0.53525 0.0
O90 O 0.43373 0.07018 0.55823 0.0
O91 O 0.41091 0.01693 0.56503 0.0
O92 O 0.38851 0.13676 0.60851 0.0
O93 O 0.37343 0.0825 0.63387 0.0
O94 O 0.3294 0.03783 0.52305 0.0
O95 O 0.33772 0.09415 0.50248 0.0
C96 C 0.4377 0.03699 0.56752 0.0
C97 C 0.31832 0.0665 0.49869 0.0
C98 C 0.9136 0.90501 0.67249 0.0
C99 C 0.90016 0.87929 0.89925 0.0
O100 O 0.94293 0.89516 0.69737 0.0
Zn101 Zn 0.96072 0.87705 0.79146 0.0
O102 O 0.88578 0.90639 0.7065 0.0
Zn103 Zn 0.90755 0.89013 0.78352 0.0
O104 O 0.94268 0.93404 0.80422 0.0
O105 O 0.99623 0.91167 0.81031 0.0
O106 O 0.8773 0.88745 0.85736 0.0
O107 O 0.93213 0.87384 0.88153 0.0
O108 O 0.9767 0.83018 0.76915 0.0
O109 O 0.91998 0.83711 0.75127 0.0
C110 C 0.97595 0.93829 0.81276 0.0
C111 C 0.94798 0.81833 0.74635 0.0
C112 C 0.69733 0.56637 0.82399 0.0
C113 C 0.57797 0.53664 0.7553 0.0
O114 O 0.67784 0.59397 0.82013 0.0
Zn115 Zn 0.6245 0.60551 0.78747 0.0
O116 O 0.68632 0.53765 0.79977 0.0
Zn117 Zn 0.63916 0.55262 0.77776 0.0
O118 O 0.64216 0.58223 0.68889 0.0
O119 O 0.62692 0.63646 0.71424 0.0
O120 O 0.60479 0.51661 0.75782 0.0
O121 O 0.58188 0.56984 0.76455 0.0
O122 O 0.60592 0.62527 0.86515 0.0
O123 O 0.62115 0.56906 0.87243 0.0
C124 C 0.63604 0.61419 0.67188 0.0
C125 C 0.60952 0.5974 0.89862 0.0
C126 C 0.41822 0.10984 0.14956 0.0
C127 C 0.40127 0.13623 0.92278 0.0
O128 O 0.44651 0.12153 0.12333 0.0
Zn129 Zn 0.46286 0.13953 0.02862 0.0
O130 O 0.39035 0.10616 0.11612 0.0
Zn131 Zn 0.41002 0.12476 0.03839 0.0
O132 O 0.44583 0.08222 0.01549 0.0
O133 O 0.49899 0.10526 0.00871 0.0
O134 O 0.37904 0.12707 0.96515 0.0
O135 O 0.43322 0.14244 0.93977 0.0
O136 O 0.47768 0.18673 0.0505 0.0
O137 O 0.42139 0.17814 0.07093 0.0
C138 C 0.47904 0.07839 0.00623 0.0
C139 C 0.44893 0.1977 0.07471 0.0
C140 C 0.93855 0.97582 0.25829 0.0
C141 C 0.81855 0.94856 0.32538 0.0
O142 O 0.93409 0.94255 0.26644 0.0
Zn143 Zn 0.88988 0.90769 0.28701 0.0
O144 O 0.91206 0.99626 0.26116 0.0
Zn145 Zn 0.87728 0.96094 0.27989 0.0
O146 O 0.89568 0.94263 0.3736 0.0
O147 O 0.90609 0.88541 0.36344 0.0
O148 O 0.83059 0.97726 0.30286 0.0
O149 O 0.83709 0.92043 0.31995 0.0
O150 O 0.88672 0.8777 0.21296 0.0
O151 O 0.87365 0.93272 0.18936 0.0
C152 C 0.90512 0.91304 0.39805 0.0
C153 C 0.87875 0.90075 0.17131 0.0
C154 C 0.03687 0.43734 0.50517 0.0
C155 C 0.06683 0.31803 0.5737 0.0
O156 O 0.07008 0.43349 0.51449 0.0
Zn157 Zn 0.10586 0.3909 0.53741 0.0
O158 O 0.01691 0.41048 0.50759 0.0
Zn159 Zn 0.05301 0.37619 0.52755 0.0
O160 O 0.06934 0.39418 0.62228 0.0
O161 O 0.12552 0.40949 0.61517 0.0
O162 O 0.03812 0.32903 0.54937 0.0
O163 O 0.09442 0.33753 0.57 0.0
O164 O 0.13685 0.38856 0.46418 0.0
O165 O 0.08265 0.37326 0.43876 0.0
C166 C 0.09763 0.40584 0.64856 0.0
C167 C 0.1146 0.37943 0.42179 0.0
C168 C 0.69802 0.94928 0.49867 0.0
C169 C 0.5787 0.9792 0.56742 0.0
O170 O 0.67848 0.92173 0.50257 0.0
Zn171 Zn 0.62517 0.91026 0.53523 0.0
O172 O 0.68706 0.97804 0.52287 0.0
Zn173 Zn 0.63987 0.96314 0.54491 0.0
O174 O 0.64285 0.93353 0.63382 0.0
O175 O 0.62759 0.87931 0.60846 0.0
O176 O 0.60553 0.99921 0.56484 0.0
O177 O 0.5826 0.946 0.55819 0.0
O178 O 0.60655 0.89053 0.45756 0.0
O179 O 0.62182 0.94671 0.45024 0.0
C180 C 0.63671 0.90158 0.65082 0.0
C181 C 0.61016 0.91838 0.42407 0.0
C182 C 0.06637 0.19777 0.74759 0.0
C183 C 0.03477 0.07883 0.81477 0.0
O184 O 0.09376 0.17797 0.75129 0.0
Zn185 Zn 0.10452 0.12447 0.78402 0.0
O186 O 0.03757 0.18707 0.77191 0.0
Zn187 Zn 0.05186 0.1397 0.79343 0.0
O188 O 0.08121 0.14174 0.88288 0.0
O189 O 0.13534 0.12622 0.85748 0.0
O190 O 0.01514 0.10594 0.81234 0.0
O191 O 0.06808 0.08228 0.8061 0.0
O192 O 0.12435 0.10564 0.70671 0.0
O193 O 0.06836 0.12153 0.69867 0.0
C194 C 0.11308 0.13518 0.89994 0.0
C195 C 0.09665 0.10952 0.67288 0.0
C196 C 0.93702 0.53661 0.06651 0.0
C197 C 0.81765 0.56639 0.99781 0.0
O198 O 0.9331 0.56981 0.05727 0.0
Zn199 Zn 0.89045 0.60551 0.03433 0.0
O200 O 0.91021 0.51659 0.06397 0.0
Zn201 Zn 0.87584 0.55263 0.04404 0.0
O202 O 0.89385 0.56905 0.94938 0.0
O203 O 0.90905 0.62525 0.95666 0.0
O204 O 0.82868 0.53767 0.02205 0.0
O205 O 0.83713 0.59399 0.00166 0.0
O206 O 0.88803 0.63646 0.1076 0.0
O207 O 0.87286 0.58222 0.13294 0.0
C208 C 0.90547 0.59738 0.92319 0.0
C209 C 0.87897 0.61417 0.14996 0.0
C210 C 0.41773 0.40595 0.17317 0.0
C211 C 0.40084 0.37959 0.39994 0.0
O212 O 0.44606 0.39432 0.19942 0.0
Zn213 Zn 0.46245 0.37637 0.29417 0.0
O214 O 0.38986 0.4096 0.2066 0.0
Zn215 Zn 0.40958 0.39105 0.28434 0.0
O216 O 0.44529 0.43368 0.3072 0.0
O217 O 0.49849 0.41069 0.3141 0.0
O218 O 0.37859 0.38872 0.35755 0.0
O219 O 0.4328 0.37343 0.383 0.0
O220 O 0.47742 0.3292 0.27236 0.0
O221 O 0.4211 0.33768 0.25183 0.0
C222 C 0.47849 0.43754 0.3165 0.0
C223 C 0.44871 0.31818 0.24811 0.0
C224 C 0.27204 0.09843 0.43369 0.0
C225 C 0.28637 0.06665 0.45691 0.0
H226 H 0.23325 0.12318 0.37334 0.0
C227 C 0.27227 0.03472 0.43401 0.0
H228 H 0.28249 0.12351 0.44968 0.0
C229 C 0.24478 0.03455 0.38892 0.0
C230 C 0.23021 0.06628 0.36605 0.0
H231 H 0.28294 0.00972 0.44992 0.0
H232 H 0.23447 0.0094 0.37297 0.0
C233 C 0.24408 0.09825 0.3893 0.0
C234 C 0.91608 0.77163 0.68252 0.0
C235 C 0.9479 0.78615 0.70516 0.0
H236 H 0.89122 0.7326 0.62298 0.0
C237 C 0.97979 0.772 0.68216 0.0
H238 H 0.89101 0.78211 0.69856 0.0
C239 C 0.9799 0.74428 0.63751 0.0
C240 C 0.94812 0.72957 0.61517 0.0
H241 H 1.00481 0.78279 0.69766 0.0
H242 H 1.00501 0.73393 0.62146 0.0
C243 C 0.91619 0.7435 0.63853 0.0
C244 C 0.27154 0.41692 0.88873 0.0
C245 C 0.28566 0.4488 0.86557 0.0
H246 H 0.23291 0.39191 0.94893 0.0
C247 C 0.27129 0.48063 0.8884 0.0
H248 H 0.2822 0.39191 0.8728 0.0
C249 C 0.24374 0.48063 0.93336 0.0
C250 C 0.2294 0.44879 0.95618 0.0
H251 H 0.2818 0.5057 0.87251 0.0
H252 H 0.23321 0.5057 0.94925 0.0
C253 C 0.24354 0.41692 0.93301 0.0
C254 C 0.59917 0.7719 0.13936 0.0
C255 C 0.56733 0.78612 0.11615 0.0
H256 H 0.62408 0.73311 0.19945 0.0
C257 C 0.53546 0.77178 0.13879 0.0
H258 H 0.62421 0.78254 0.12357 0.0
C259 C 0.53538 0.74416 0.18362 0.0
C260 C 0.56718 0.72971 0.20648 0.0
H261 H 0.51041 0.78235 0.12287 0.0
H262 H 0.51028 0.73366 0.19937 0.0
C263 C 0.59909 0.74383 0.18349 0.0
C264 C 0.74371 0.53486 0.88845 0.0
C265 C 0.72934 0.56669 0.86562 0.0
H266 H 0.78181 0.50979 0.9493 0.0
C267 C 0.74348 0.59856 0.88875 0.0
H268 H 0.73319 0.50978 0.87259 0.0
C269 C 0.77149 0.59857 0.93301 0.0
C270 C 0.78564 0.5667 0.95619 0.0
H271 H 0.73282 0.62357 0.87281 0.0
H272 H 0.78214 0.62358 0.9489 0.0
C273 C 0.77128 0.53486 0.9334 0.0
C274 C 0.41658 0.27194 0.18343 0.0
C275 C 0.44843 0.28613 0.20659 0.0
H276 H 0.39165 0.23319 0.12335 0.0
C277 C 0.48029 0.27177 0.18389 0.0
H278 H 0.39155 0.2826 0.19926 0.0
C279 C 0.48035 0.24415 0.13905 0.0
C280 C 0.44854 0.22974 0.11623 0.0
H281 H 0.50535 0.28232 0.19978 0.0
H282 H 0.50545 0.23364 0.12326 0.0
C283 C 0.41664 0.24388 0.13928 0.0
C284 C 0.77179 0.91677 0.38915 0.0
C285 C 0.78645 0.94857 0.36677 0.0
H286 H 0.73275 0.89195 0.44867 0.0
C287 C 0.77253 0.98047 0.39019 0.0
H288 H 0.78208 0.89169 0.37277 0.0
C289 C 0.74488 0.9806 0.435 0.0
C290 C 0.73005 0.94883 0.45711 0.0
H291 H 0.78343 1.00548 0.37488 0.0
H292 H 0.73469 1.00572 0.45138 0.0
C293 C 0.74376 0.9169 0.43333 0.0
C294 C 0.03521 0.27186 0.63827 0.0
C295 C 0.06709 0.28603 0.61534 0.0
H296 H 0.00999 0.23397 0.69921 0.0
C297 C 0.09892 0.27172 0.6384 0.0
H298 H 0.01017 0.28251 0.62248 0.0
C299 C 0.09882 0.2437 0.68266 0.0
C300 C 0.06689 0.22976 0.70594 0.0
H301 H 0.12397 0.28224 0.62239 0.0
H302 H 0.12379 0.23289 0.6985 0.0
C303 C 0.03511 0.24432 0.68324 0.0
C304 C 0.01388 0.04109 0.24618 0.0
C305 C 0.04354 0.0189 0.24927 0.0
H306 H 0.95764 0.04499 0.24608 0.0
C307 C 0.03833 0.98222 0.25007 0.0
H308 H 0.01688 0.06946 0.24519 0.0
C309 C 1.00422 0.96815 0.2507 0.0
C310 C 0.97457 0.99044 0.2504 0.0
H311 H 0.06057 0.96437 0.25237 0.0
H312 H 1.00114 0.93981 0.25332 0.0
C313 C 0.97983 0.02704 0.24667 0.0
C314 C 0.9713 0.51266 0.49565 0.0
C315 C 0.9936 0.54228 0.4972 0.0
H316 H 0.96736 0.45636 0.49639 0.0
C317 C 0.03024 0.53697 0.49569 0.0
H318 H 0.94293 0.51575 0.49646 0.0
C319 C 0.04424 0.50286 0.49572 0.0
C320 C 0.02194 0.47323 0.49711 0.0
H321 H 0.04818 0.55915 0.49666 0.0
H322 H 0.07261 0.49976 0.49659 0.0
C323 C 0.9853 0.47854 0.49553 0.0
C324 C 0.50251 0.47129 0.74569 0.0
C325 C 0.47293 0.49368 0.74718 0.0
H326 H 0.5588 0.46718 0.74652 0.0
C327 C 0.47832 0.5303 0.74565 0.0
H328 H 0.49935 0.44293 0.74652 0.0
C329 C 0.51247 0.5442 0.74573 0.0
C330 C 0.54205 0.52181 0.74718 0.0
H331 H 0.45618 0.54831 0.74658 0.0
H332 H 0.51562 0.57256 0.74659 0.0
C333 C 0.53666 0.48519 0.74562 0.0
C334 C 0.54462 1.00305 0.99681 0.0
C335 C 0.52231 0.97344 0.99814 0.0
H336 H 0.54858 0.05935 0.99776 0.0
C337 C 0.48567 0.97876 0.99646 0.0
H338 H 0.57299 0.99995 0.99776 0.0
C339 C 0.47168 0.01288 0.99654 0.0
C340 C 0.49398 0.0425 0.99814 0.0
H341 H 0.46772 0.95659 0.99726 0.0
H342 H 0.44331 0.01598 0.99728 0.0
C343 C 0.53063 0.03718 0.99674 0.0
C344 C 0.01253 0.47125 0.07608 0.0
C345 C 0.04209 0.49364 0.07466 0.0
H346 H 0.95624 0.46715 0.07519 0.0
C347 C 0.03667 0.53026 0.07625 0.0
H348 H 0.01571 0.44289 0.0752 0.0
C349 C 1.00251 0.54416 0.07617 0.0
C350 C 0.97295 0.52178 0.07464 0.0
H351 H 0.0588 0.54827 0.07538 0.0
H352 H 0.99934 0.57252 0.07536 0.0
C353 C 0.97837 0.48515 0.07615 0.0
C354 C 0.47106 0.50308 0.32583 0.0
C355 C 0.49338 0.47345 0.32455 0.0
H356 H 0.46708 0.55938 0.32484 0.0
C357 C 0.53002 0.47876 0.32626 0.0
H358 H 0.44269 0.49998 0.32485 0.0
C359 C 0.54399 0.51287 0.32618 0.0
C360 C 0.52168 0.5425 0.32453 0.0
H361 H 0.54798 0.45658 0.3255 0.0
H362 H 0.57236 0.51596 0.32548 0.0
C363 C 0.48504 0.53719 0.3259 0.0
C364 C 0.5032 0.04458 0.57693 0.0
C365 C 0.47364 0.02218 0.57563 0.0
H366 H 0.55949 0.04868 0.57592 0.0
C367 C 0.47907 0.98557 0.57734 0.0
H368 H 0.50002 0.07294 0.57596 0.0
C369 C 0.51323 0.97167 0.57725 0.0
C370 C 0.54278 0.99405 0.57558 0.0
H371 H 0.45694 0.96755 0.57657 0.0
H372 H 0.5164 0.94331 0.57653 0.0
C373 C 0.53737 0.03068 0.57698 0.0
C374 C 0.04151 0.01336 0.82492 0.0
C375 C 0.01942 0.0431 0.82204 0.0
H376 H 0.04523 0.95711 0.82478 0.0
C377 C 0.98272 0.03802 0.8213 0.0
H378 H 0.0699 0.01627 0.82584 0.0
C379 C 0.96854 1.00396 0.82055 0.0
C380 C 0.99072 0.97424 0.82069 0.0
H381 H 0.96493 0.06031 0.81915 0.0
H382 H 0.94019 1.00099 0.81801 0.0
C383 C 0.02735 0.97937 0.82433 0.0
C384 C 0.07632 0.1238 0.56194 0.0
C385 C 0.0977 0.10347 0.60298 0.0
H386 H 0.06385 0.13772 0.46436 0.0
C387 C 0.12145 0.07921 0.57639 0.0
H388 H 0.05798 0.14293 0.58144 0.0
C389 C 0.12422 0.07573 0.5096 0.0
C390 C 0.10394 0.09714 0.46855 0.0
H391 H 0.13815 0.06327 0.60718 0.0
H392 H 0.14329 0.05732 0.49011 0.0
C393 C 0.07976 0.12098 0.49514 0.0
C394 C 0.93844 0.62445 0.75909 0.0
C395 C 0.91695 0.60391 0.71862 0.0
H396 H 0.95124 0.63883 0.85632 0.0
C397 C 0.8933 0.57979 0.74586 0.0
H398 H 0.9567 0.64348 0.73908 0.0
C399 C 0.89079 0.57663 0.81274 0.0
C400 C 0.91122 0.59822 0.85321 0.0
H401 H 0.87651 0.56372 0.71552 0.0
H402 H 0.87182 0.55831 0.83275 0.0
C403 C 0.93525 0.62196 0.82598 0.0
C404 C 0.39326 0.43575 0.07588 0.0
C405 C 0.4169 0.41162 0.10318 0.0
H406 H 0.37182 0.45724 0.98894 0.0
C407 C 0.43838 0.39103 0.06277 0.0
H408 H 0.37647 0.45187 0.10618 0.0
C409 C 0.43521 0.39349 0.99588 0.0
C410 C 0.4112 0.41726 0.96858 0.0
H411 H 0.45663 0.37198 0.08284 0.0
H412 H 0.4512 0.37658 0.96558 0.0
C413 C 0.39077 0.4389 0.00899 0.0
C414 C 0.62496 0.93903 0.31362 0.0
C415 C 0.60446 0.91751 0.35408 0.0
H416 H 0.63934 0.95184 0.21641 0.0
C417 C 0.5804 0.89379 0.32683 0.0
H418 H 0.64394 0.95734 0.33364 0.0
C419 C 0.57726 0.89125 0.25994 0.0
C420 C 0.59882 0.91172 0.21949 0.0
H421 H 0.56436 0.87697 0.35717 0.0
H422 H 0.55898 0.87224 0.23992 0.0
C423 C 0.62249 0.93582 0.24674 0.0
C424 C 0.12203 0.43566 0.74589 0.0
C425 C 0.09841 0.41155 0.71855 0.0
H426 H 0.14341 0.45715 0.83288 0.0
C427 C 0.07686 0.39102 0.75892 0.0
H428 H 0.13887 0.45173 0.71562 0.0
C429 C 0.07996 0.39352 0.82581 0.0
C430 C 0.10396 0.41725 0.85316 0.0
H431 H 0.05862 0.37199 0.73882 0.0
H432 H 0.06392 0.37665 0.85608 0.0
C433 C 0.12445 0.43883 0.81278 0.0
C434 C 0.5767 0.62453 0.06277 0.0
C435 C 0.59825 0.60402 0.1032 0.0
H436 H 0.56377 0.63887 0.96558 0.0
C437 C 0.62189 0.57989 0.07592 0.0
H438 H 0.55844 0.64357 0.08282 0.0
C439 C 0.62434 0.57669 0.00904 0.0
C440 C 0.60384 0.59826 0.96861 0.0
H441 H 0.63874 0.56383 0.10623 0.0
H442 H 0.64331 0.55836 0.98899 0.0
C443 C 0.57981 0.62201 0.99589 0.0
C444 C 0.39133 0.07687 0.31374 0.0
C445 C 0.41177 0.09849 0.35415 0.0
H446 H 0.37699 0.06393 0.21655 0.0
C447 C 0.43577 0.12223 0.32685 0.0
H448 H 0.37238 0.05854 0.3338 0.0
C449 C 0.43892 0.12471 0.25996 0.0
C450 C 0.41742 0.10415 0.21955 0.0
H451 H 0.45177 0.13912 0.35715 0.0
H452 H 0.45715 0.14375 0.2399 0.0
C453 C 0.3938 0.08002 0.24685 0.0
C454 C 0.89239 0.88269 0.56828 0.0
C455 C 0.91119 0.90828 0.60267 0.0
H456 H 0.87692 0.86365 0.47537 0.0
C457 C 0.92958 0.93471 0.56965 0.0
H458 H 0.87856 0.86179 0.59338 0.0
C459 C 0.92808 0.93621 0.50232 0.0
C460 C 0.90948 0.91036 0.46789 0.0
H461 H 0.94462 0.95429 0.5959 0.0
H462 H 0.94153 0.95731 0.47715 0.0
C463 C 0.89192 0.88345 0.50118 0.0
C464 C 0.10387 0.1529 0.01534 0.0
C465 C 0.12259 0.13334 0.96919 0.0
H466 H 0.09429 0.16233 0.11573 0.0
C467 C 0.14822 0.10912 0.9903 0.0
H468 H 0.08395 0.17169 0.00048 0.0
C469 C 0.15351 0.10306 0.05625 0.0
C470 C 0.13404 0.12186 0.1024 0.0
H471 H 0.16288 0.09343 0.95584 0.0
H472 H 0.17221 0.08306 0.07111 0.0
C473 C 0.10992 0.14759 0.08129 0.0
C474 C 0.86571 0.6106 0.33099 0.0
C475 C 0.89132 0.63467 0.35262 0.0
H476 H 0.842 0.58483 0.24964 0.0
C477 C 0.91013 0.65444 0.30691 0.0
H478 H 0.85099 0.59476 0.36511 0.0
C479 C 0.90428 0.64938 0.24084 0.0
C480 C 0.88028 0.6237 0.2192 0.0
H481 H 0.93003 0.67312 0.32219 0.0
H482 H 0.92004 0.66419 0.20672 0.0
C483 C 0.86062 0.60479 0.26492 0.0
C484 C 0.40427 0.36611 0.58092 0.0
C485 C 0.38025 0.39179 0.60259 0.0
H486 H 0.43002 0.3424 0.49955 0.0
C487 C 0.36056 0.41072 0.55689 0.0
H488 H 0.42004 0.35129 0.61502 0.0
C489 C 0.36564 0.40493 0.49082 0.0
C490 C 0.39127 0.38086 0.46916 0.0
H491 H 0.34193 0.43067 0.5722 0.0
H492 H 0.3509 0.42078 0.45672 0.0
C493 C 0.4101 0.36108 0.51485 0.0
C494 C 0.61142 0.86634 0.74167 0.0
C495 C 0.63541 0.89203 0.72007 0.0
H496 H 0.58571 0.84255 0.82299 0.0
C497 C 0.65509 0.91092 0.76581 0.0
H498 H 0.59565 0.85155 0.70754 0.0
C499 C 0.65003 0.90506 0.83187 0.0
C500 C 0.62443 0.88097 0.85347 0.0
H501 H 0.67371 0.93088 0.75055 0.0
H502 H 0.66477 0.92088 0.86601 0.0
C503 C 0.60561 0.86124 0.80773 0.0
C504 C 0.1053 0.36093 0.3069 0.0
C505 C 0.12413 0.38071 0.35256 0.0
H506 H 0.09528 0.35118 0.20675 0.0
C507 C 0.1497 0.40481 0.33086 0.0
H508 H 0.08543 0.34223 0.32224 0.0
C509 C 0.15471 0.41063 0.26478 0.0
C510 C 0.13501 0.39171 0.21912 0.0
H511 H 0.16444 0.42066 0.36494 0.0
H512 H 0.17329 0.43061 0.24944 0.0
C513 C 0.11106 0.36599 0.24082 0.0
C514 C 0.61082 0.64946 0.58097 0.0
C515 C 0.63479 0.62374 0.60264 0.0
H516 H 0.58516 0.67326 0.49958 0.0
C517 C 0.65448 0.60481 0.55696 0.0
H518 H 0.59504 0.66428 0.61506 0.0
C519 C 0.64946 0.61065 0.49089 0.0
C520 C 0.62388 0.63478 0.46921 0.0
H521 H 0.67307 0.58482 0.57228 0.0
H522 H 0.6642 0.59481 0.45679 0.0
C523 C 0.60504 0.65455 0.5149 0.0
C524 C 0.40471 0.14969 0.7418 0.0
C525 C 0.38073 0.124 0.72011 0.0
H526 H 0.43041 0.17342 0.82319 0.0
C527 C 0.36107 0.10507 0.76579 0.0
H528 H 0.42047 0.16452 0.70771 0.0
C529 C 0.36613 0.11086 0.83187 0.0
C530 C 0.39172 0.13495 0.85355 0.0
H531 H 0.34247 0.0851 0.75047 0.0
H532 H 0.35141 0.095 0.86595 0.0
C533 C 0.41053 0.15474 0.80787 0.0
C534 C 0.86079 0.91104 0.05645 0.0
C535 C 0.88027 0.89179 0.10192 0.0
H536 H 0.85107 0.92122 0.95634 0.0
C537 C 0.90413 0.86601 0.0801 0.0
H538 H 0.84232 0.93111 0.07195 0.0
C539 C 0.9099 0.86101 0.01404 0.0
C540 C 0.89108 0.88091 0.96857 0.0
H541 H 0.91977 0.85097 0.11411 0.0
H542 H 0.92961 0.84217 0.99855 0.0
C543 C 0.86574 0.90525 0.99036 0.0
loop_
_geom_bond_atom_site_label_1
_geom_bond_atom_site_label_2
_geom_bond_distance
_geom_bond_site_symmetry_2
_ccdc_geom_bond_type
C0 O2 1.247 . S
C0 O4 1.258 . S
C1 O8 1.247 . S
C1 O9 1.258 . S
O2 C0 1.247 . S
O2 Zn3 2.028 . S
Zn3 O2 2.028 . S
Zn3 O7 2.035 . S
Zn3 O9 2.035 . S
Zn3 O10 2.028 . S
O4 C0 1.258 . S
O4 Zn5 2.035 . S
Zn5 O4 2.035 . S
Zn5 O6 2.028 . S
Zn5 O8 2.028 . S
Zn5 O11 2.035 . S
O6 Zn5 2.028 . S
O6 C12 1.247 . S
O7 Zn3 2.035 . S
O7 C12 1.258 . S
O8 C1 1.247 . S
O8 Zn5 2.028 . S
O9 C1 1.258 . S
O9 Zn3 2.035 . S
O10 Zn3 2.028 . S
O10 C13 1.247 . S
O11 Zn5 2.035 . S
O11 C13 1.258 . S
C12 O6 1.247 . S
C12 O7 1.258 . S
C13 O10 1.247 . S
C13 O11 1.258 . S
C14 O16 1.247 . S
C14 O18 1.258 . S
C15 O22 1.247 . S
C15 O23 1.258 . S
O16 C14 1.247 . S
O16 Zn17 2.028 . S
Zn17 O16 2.028 . S
Zn17 O21 2.035 . S
Zn17 O23 2.035 . S
Zn17 O24 2.028 . S
O18 C14 1.258 . S
O18 Zn19 2.035 . S
Zn19 O18 2.035 . S
Zn19 O20 2.028 . S
Zn19 O22 2.028 . S
Zn19 O25 2.035 . S
O20 Zn19 2.028 . S
O20 C26 1.247 . S
O21 Zn17 2.035 . S
O21 C26 1.258 . S
O22 C15 1.247 . S
O22 Zn19 2.028 . S
O23 C15 1.258 . S
O23 Zn17 2.035 . S
O24 Zn17 2.028 . S
O24 C27 1.247 . S
O25 Zn19 2.035 . S
O25 C27 1.258 . S
C26 O20 1.247 . S
C26 O21 1.258 . S
C27 O24 1.247 . S
C27 O25 1.258 . S
C28 O30 1.247 . S
C28 O32 1.258 . S
C29 O36 1.247 . S
C29 O37 1.258 . S
O30 C28 1.247 . S
O30 Zn31 2.028 . S
Zn31 O30 2.028 . S
Zn31 O35 2.035 . S
Zn31 O37 2.035 . S
Zn31 O38 2.028 . S
O32 C28 1.258 . S
O32 Zn33 2.035 . S
Zn33 O32 2.035 . S
Zn33 O34 2.028 . S
Zn33 O36 2.028 . S
Zn33 O39 2.035 . S
O34 Zn33 2.028 . S
O34 C40 1.247 . S
O35 Zn31 2.035 . S
O35 C40 1.258 . S
O36 C29 1.247 . S
O36 Zn33 2.028 . S
O37 C29 1.258 . S
O37 Zn31 2.035 . S
O38 Zn31 2.028 . S
O38 C41 1.247 . S
O39 Zn33 2.035 . S
O39 C41 1.258 . S
C40 O34 1.247 . S
C40 O35 1.258 . S
C41 O38 1.247 . S
C41 O39 1.258 . S
C42 O44 1.247 . S
C42 O46 1.258 . S
C43 O50 1.247 . S
C43 O51 1.258 . S
O44 C42 1.247 . S
O44 Zn45 2.028 . S
Zn45 O44 2.028 . S
Zn45 O49 2.035 . S
Zn45 O51 2.035 1_554 S
Zn45 O52 2.028 . S
O46 C42 1.258 . S
O46 Zn47 2.035 . S
Zn47 O46 2.035 . S
Zn47 O48 2.028 . S
Zn47 O50 2.028 1_554 S
Zn47 O53 2.035 . S
O48 Zn47 2.028 . S
O48 C54 1.247 . S
O49 Zn45 2.035 . S
O49 C54 1.258 . S
O50 C43 1.247 . S
O50 Zn47 2.028 1_556 S
O51 C43 1.258 . S
O51 Zn45 2.035 1_556 S
O52 Zn45 2.028 . S
O52 C55 1.247 . S
O53 Zn47 2.035 . S
O53 C55 1.258 . S
C54 O48 1.247 . S
C54 O49 1.258 . S
C55 O52 1.247 . S
C55 O53 1.258 . S
C56 O58 1.249 . S
C56 O60 1.259 . S
C57 O64 1.247 . S
C57 O65 1.258 . S
O58 C56 1.249 . S
O58 Zn59 2.028 . S
Zn59 O58 2.028 . S
Zn59 O63 2.035 . S
Zn59 O65 2.035 . S
Zn59 O66 2.028 1_554 S
O60 C56 1.259 . S
O60 Zn61 2.035 . S
Zn61 O60 2.035 . S
Zn61 O62 2.028 . S
Zn61 O64 2.028 . S
Zn61 O67 2.035 1_554 S
O62 Zn61 2.028 . S
O62 C68 1.247 . S
O63 Zn59 2.035 . S
O63 C68 1.258 . S
O64 C57 1.247 . S
O64 Zn61 2.028 . S
O65 C57 1.258 . S
O65 Zn59 2.035 . S
O66 Zn59 2.028 1_556 S
O66 C69 1.247 . S
O67 Zn61 2.035 1_556 S
O67 C69 1.258 . S
C68 O62 1.247 . S
C68 O63 1.258 . S
C69 O66 1.247 . S
C69 O67 1.258 . S
C70 O72 1.247 . S
C70 O74 1.258 . S
C71 O78 1.247 . S
C71 O79 1.258 . S
O72 C70 1.247 . S
O72 Zn73 2.028 . S
Zn73 O72 2.028 . S
Zn73 O77 2.035 . S
Zn73 O79 2.035 . S
Zn73 O80 2.028 . S
O74 C70 1.258 . S
O74 Zn75 2.035 . S
Zn75 O74 2.035 . S
Zn75 O76 2.028 . S
Zn75 O78 2.028 . S
Zn75 O81 2.035 . S
O76 Zn75 2.028 . S
O76 C82 1.247 . S
O77 Zn73 2.035 . S
O77 C82 1.258 . S
O78 C71 1.247 . S
O78 Zn75 2.028 . S
O79 C71 1.258 . S
O79 Zn73 2.035 . S
O80 Zn73 2.028 . S
O80 C83 1.247 . S
O81 Zn75 2.035 . S
O81 C83 1.258 . S
C82 O76 1.247 . S
C82 O77 1.258 . S
C83 O80 1.247 . S
C83 O81 1.258 . S
C84 O86 1.247 . S
C84 O88 1.258 . S
C85 O92 1.247 . S
C85 O93 1.258 . S
O86 C84 1.247 . S
O86 Zn87 2.028 . S
Zn87 O86 2.028 . S
Zn87 O91 2.035 . S
Zn87 O93 2.035 . S
Zn87 O94 2.028 . S
O88 C84 1.258 . S
O88 Zn89 2.035 . S
Zn89 O88 2.035 . S
Zn89 O90 2.028 . S
Zn89 O92 2.028 . S
Zn89 O95 2.035 . S
O90 Zn89 2.028 . S
O90 C96 1.247 . S
O91 Zn87 2.035 . S
O91 C96 1.258 . S
O92 C85 1.247 . S
O92 Zn89 2.028 . S
O93 C85 1.258 . S
O93 Zn87 2.035 . S
O94 Zn87 2.028 . S
O94 C97 1.247 . S
O95 Zn89 2.035 . S
O95 C97 1.258 . S
C96 O90 1.247 . S
C96 O91 1.258 . S
C97 O94 1.247 . S
C97 O95 1.258 . S
C98 O100 1.247 . S
C98 O102 1.258 . S
C99 O106 1.247 . S
C99 O107 1.258 . S
O100 C98 1.247 . S
O100 Zn101 2.028 . S
Zn101 O100 2.028 . S
Zn101 O105 2.035 . S
Zn101 O107 2.035 . S
Zn101 O108 2.028 . S
O102 C98 1.258 . S
O102 Zn103 2.035 . S
Zn103 O102 2.035 . S
Zn103 O104 2.028 . S
Zn103 O106 2.028 . S
Zn103 O109 2.035 . S
O104 Zn103 2.028 . S
O104 C110 1.247 . S
O105 Zn101 2.035 . S
O105 C110 1.258 . S
O106 C99 1.247 . S
O106 Zn103 2.028 . S
O107 C99 1.258 . S
O107 Zn101 2.035 . S
O108 Zn101 2.028 . S
O108 C111 1.247 . S
O109 Zn103 2.035 . S
O109 C111 1.258 . S
C110 O104 1.247 . S
C110 O105 1.258 . S
C111 O108 1.247 . S
C111 O109 1.258 . S
C112 O114 1.247 . S
C112 O116 1.258 . S
C113 O120 1.247 . S
C113 O121 1.258 . S
O114 C112 1.247 . S
O114 Zn115 2.028 . S
Zn115 O114 2.028 . S
Zn115 O119 2.035 . S
Zn115 O121 2.035 . S
Zn115 O122 2.028 . S
O116 C112 1.258 . S
O116 Zn117 2.035 . S
Zn117 O116 2.035 . S
Zn117 O118 2.028 . S
Zn117 O120 2.028 . S
Zn117 O123 2.035 . S
O118 Zn117 2.028 . S
O118 C124 1.247 . S
O119 Zn115 2.035 . S
O119 C124 1.258 . S
O120 C113 1.247 . S
O120 Zn117 2.028 . S
O121 C113 1.258 . S
O121 Zn115 2.035 . S
O122 Zn115 2.028 . S
O122 C125 1.247 . S
O123 Zn117 2.035 . S
O123 C125 1.258 . S
C124 O118 1.247 . S
C124 O119 1.258 . S
C125 O122 1.247 . S
C125 O123 1.258 . S
C126 O128 1.247 . S
C126 O130 1.258 . S
C127 O134 1.247 . S
C127 O135 1.258 . S
O128 C126 1.247 . S
O128 Zn129 2.028 . S
Zn129 O128 2.028 . S
Zn129 O133 2.035 . S
Zn129 O135 2.035 1_554 S
Zn129 O136 2.028 . S
O130 C126 1.258 . S
O130 Zn131 2.035 . S
Zn131 O130 2.035 . S
Zn131 O132 2.028 . S
Zn131 O134 2.028 1_554 S
Zn131 O137 2.035 . S
O132 Zn131 2.028 . S
O132 C138 1.247 . S
O133 Zn129 2.035 . S
O133 C138 1.258 . S
O134 C127 1.247 . S
O134 Zn131 2.028 1_556 S
O135 C127 1.258 . S
O135 Zn129 2.035 1_556 S
O136 Zn129 2.028 . S
O136 C139 1.247 . S
O137 Zn131 2.035 . S
O137 C139 1.258 . S
C138 O132 1.247 . S
C138 O133 1.258 . S
C139 O136 1.247 . S
C139 O137 1.258 . S
C140 O142 1.247 . S
C140 O144 1.258 . S
C141 O148 1.247 . S
C141 O149 1.258 . S
O142 C140 1.247 . S
O142 Zn143 2.028 . S
Zn143 O142 2.028 . S
Zn143 O147 2.035 . S
Zn143 O149 2.035 . S
Zn143 O150 2.028 . S
O144 C140 1.258 . S
O144 Zn145 2.035 . S
Zn145 O144 2.035 . S
Zn145 O146 2.028 . S
Zn145 O148 2.028 . S
Zn145 O151 2.035 . S
O146 Zn145 2.028 . S
O146 C152 1.247 . S
O147 Zn143 2.035 . S
O147 C152 1.258 . S
O148 C141 1.247 . S
O148 Zn145 2.028 . S
O149 C141 1.258 . S
O149 Zn143 2.035 . S
O150 Zn143 2.028 . S
O150 C153 1.247 . S
O151 Zn145 2.035 . S
O151 C153 1.258 . S
C152 O146 1.247 . S
C152 O147 1.258 . S
C153 O150 1.247 . S
C153 O151 1.258 . S
C154 O156 1.247 . S
C154 O158 1.258 . S
C155 O162 1.247 . S
C155 O163 1.258 . S
O156 C154 1.247 . S
O156 Zn157 2.028 . S
Zn157 O156 2.028 . S
Zn157 O161 2.035 . S
Zn157 O163 2.035 . S
Zn157 O164 2.028 . S
O158 C154 1.258 . S
O158 Zn159 2.035 . S
Zn159 O158 2.035 . S
Zn159 O160 2.028 . S
Zn159 O162 2.028 . S
Zn159 O165 2.035 . S
O160 Zn159 2.028 . S
O160 C166 1.247 . S
O161 Zn157 2.035 . S
O161 C166 1.258 . S
O162 C155 1.247 . S
O162 Zn159 2.028 . S
O163 C155 1.258 . S
O163 Zn157 2.035 . S
O164 Zn157 2.028 . S
O164 C167 1.247 . S
O165 Zn159 2.035 . S
O165 C167 1.258 . S
C166 O160 1.247 . S
C166 O161 1.258 . S
C167 O164 1.247 . S
C167 O165 1.258 . S
C168 O170 1.247 . S
C168 O172 1.258 . S
C169 O176 1.247 . S
C169 O177 1.258 . S
O170 C168 1.247 . S
O170 Zn171 2.028 . S
Zn171 O170 2.028 . S
Zn171 O175 2.035 . S
Zn171 O177 2.035 . S
Zn171 O178 2.028 . S
O172 C168 1.258 . S
O172 Zn173 2.035 . S
Zn173 O172 2.035 . S
Zn173 O174 2.028 . S
Zn173 O176 2.028 . S
Zn173 O179 2.035 . S
O174 Zn173 2.028 . S
O174 C180 1.247 . S
O175 Zn171 2.035 . S
O175 C180 1.258 . S
O176 C169 1.247 . S
O176 Zn173 2.028 . S
O177 C169 1.258 . S
O177 Zn171 2.035 . S
O178 Zn171 2.028 . S
O178 C181 1.247 . S
O179 Zn173 2.035 . S
O179 C181 1.258 . S
C180 O174 1.247 . S
C180 O175 1.258 . S
C181 O178 1.247 . S
C181 O179 1.258 . S
C182 O184 1.247 . S
C182 O186 1.258 . S
C183 O190 1.247 . S
C183 O191 1.258 . S
O184 C182 1.247 . S
O184 Zn185 2.028 . S
Zn185 O184 2.028 . S
Zn185 O189 2.035 . S
Zn185 O191 2.035 . S
Zn185 O192 2.028 . S
O186 C182 1.258 . S
O186 Zn187 2.035 . S
Zn187 O186 2.035 . S
Zn187 O188 2.028 . S
Zn187 O190 2.028 . S
Zn187 O193 2.035 . S
O188 Zn187 2.028 . S
O188 C194 1.247 . S
O189 Zn185 2.035 . S
O189 C194 1.258 . S
O190 C183 1.247 . S
O190 Zn187 2.028 . S
O191 C183 1.258 . S
O191 Zn185 2.035 . S
O192 Zn185 2.028 . S
O192 C195 1.247 . S
O193 Zn187 2.035 . S
O193 C195 1.258 . S
C194 O188 1.247 . S
C194 O189 1.258 . S
C195 O192 1.247 . S
C195 O193 1.258 . S
C196 O198 1.247 . S
C196 O200 1.258 . S
C197 O204 1.248 . S
C197 O205 1.260 . S
O198 C196 1.247 . S
O198 Zn199 2.028 . S
Zn199 O198 2.028 . S
Zn199 O203 2.035 1_554 S
Zn199 O205 2.035 . S
Zn199 O206 2.028 . S
O200 C196 1.258 . S
O200 Zn201 2.035 . S
Zn201 O200 2.035 . S
Zn201 O202 2.028 1_554 S
Zn201 O204 2.028 . S
Zn201 O207 2.035 . S
O202 Zn201 2.028 1_556 S
O202 C208 1.247 . S
O203 Zn199 2.035 1_556 S
O203 C208 1.258 . S
O204 C197 1.248 . S
O204 Zn201 2.028 . S
O205 C197 1.260 . S
O205 Zn199 2.035 . S
O206 Zn199 2.028 . S
O206 C209 1.247 . S
O207 Zn201 2.035 . S
O207 C209 1.258 . S
C208 O202 1.247 . S
C208 O203 1.258 . S
C209 O206 1.247 . S
C209 O207 1.258 . S
C210 O212 1.247 . S
C210 O214 1.258 . S
C211 O218 1.247 . S
C211 O219 1.258 . S
O212 C210 1.247 . S
O212 Zn213 2.028 . S
Zn213 O212 2.028 . S
Zn213 O217 2.035 . S
Zn213 O219 2.035 . S
Zn213 O220 2.028 . S
O214 C210 1.258 . S
O214 Zn215 2.035 . S
Zn215 O214 2.035 . S
Zn215 O216 2.028 . S
Zn215 O218 2.028 . S
Zn215 O221 2.035 . S
O216 Zn215 2.028 . S
O216 C222 1.247 . S
O217 Zn213 2.035 . S
O217 C222 1.258 . S
O218 C211 1.247 . S
O218 Zn215 2.028 . S
O219 C211 1.258 . S
O219 Zn213 2.035 . S
O220 Zn213 2.028 . S
O220 C223 1.247 . S
O221 Zn215 2.035 . S
O221 C223 1.258 . S
C222 O216 1.247 . S
C222 O217 1.258 . S
C223 O220 1.247 . S
C223 O221 1.258 . S
C224 C225 1.387 . S
C224 H228 0.950 . S
C224 C233 1.390 . S
C225 C224 1.387 . S
C225 C227 1.387 . S
H226 C233 0.950 . S
C227 C225 1.387 . S
C227 C229 1.390 . S
C227 H231 0.950 . S
H228 C224 0.950 . S
C229 C227 1.390 . S
C229 C230 1.387 . S
C229 H232 0.950 . S
C230 C229 1.387 . S
C230 C233 1.387 . S
H231 C227 0.950 . S
H232 C229 0.950 . S
C233 C224 1.390 . S
C233 H226 0.950 . S
C233 C230 1.387 . S
C234 C235 1.387 . S
C234 H238 0.950 . S
C234 C243 1.390 . S
C235 C234 1.387 . S
C235 C237 1.387 . S
H236 C243 0.950 . S
C237 C235 1.387 . S
C237 C239 1.390 . S
C237 H241 0.950 . S
H238 C234 0.950 . S
C239 C237 1.390 . S
C239 C240 1.387 . S
C239 H242 0.950 . S
C240 C239 1.387 . S
C240 C243 1.387 . S
H241 C237 0.950 . S
H242 C239 0.950 . S
C243 C234 1.390 . S
C243 H236 0.950 . S
C243 C240 1.387 . S
C244 C245 1.387 . S
C244 H248 0.950 . S
C244 C253 1.390 . S
C245 C244 1.387 . S
C245 C247 1.387 . S
H246 C253 0.950 . S
C247 C245 1.387 . S
C247 C249 1.390 . S
C247 H251 0.950 . S
H248 C244 0.950 . S
C249 C247 1.390 . S
C249 C250 1.387 . S
C249 H252 0.950 . S
C250 C249 1.387 . S
C250 C253 1.387 . S
H251 C247 0.950 . S
H252 C249 0.950 . S
C253 C244 1.390 . S
C253 H246 0.950 . S
C253 C250 1.387 . S
C254 C255 1.387 . S
C254 H258 0.950 . S
C254 C263 1.390 . S
C255 C254 1.387 . S
C255 C257 1.387 . S
H256 C263 0.950 . S
C257 C255 1.387 . S
C257 C259 1.390 . S
C257 H261 0.950 . S
H258 C254 0.950 . S
C259 C257 1.390 . S
C259 C260 1.387 . S
C259 H262 0.950 . S
C260 C259 1.387 . S
C260 C263 1.387 . S
H261 C257 0.950 . S
H262 C259 0.950 . S
C263 C254 1.390 . S
C263 H256 0.950 . S
C263 C260 1.387 . S
C264 C265 1.387 . S
C264 H268 0.950 . S
C264 C273 1.390 . S
C265 C264 1.387 . S
C265 C267 1.387 . S
H266 C273 0.950 . S
C267 C265 1.387 . S
C267 C269 1.390 . S
C267 H271 0.950 . S
H268 C264 0.950 . S
C269 C267 1.390 . S
C269 C270 1.387 . S
C269 H272 0.950 . S
C270 C269 1.387 . S
C270 C273 1.387 . S
H271 C267 0.950 . S
H272 C269 0.950 . S
C273 C264 1.390 . S
C273 H266 0.950 . S
C273 C270 1.387 . S
C274 C275 1.387 . S
C274 H278 0.950 . S
C274 C283 1.390 . S
C275 C274 1.387 . S
C275 C277 1.387 . S
H276 C283 0.950 . S
C277 C275 1.387 . S
C277 C279 1.390 . S
C277 H281 0.950 . S
H278 C274 0.950 . S
C279 C277 1.390 . S
C279 C280 1.387 . S
C279 H282 0.950 . S
C280 C279 1.387 . S
C280 C283 1.387 . S
H281 C277 0.950 . S
H282 C279 0.950 . S
C283 C274 1.390 . S
C283 H276 0.950 . S
C283 C280 1.387 . S
C284 C285 1.387 . S
C284 H288 0.950 . S
C284 C293 1.390 . S
C285 C284 1.387 . S
C285 C287 1.387 . S
H286 C293 0.950 . S
C287 C285 1.387 . S
C287 C289 1.390 . S
C287 H291 0.950 . S
H288 C284 0.950 . S
C289 C287 1.390 . S
C289 C290 1.387 . S
C289 H292 0.950 . S
C290 C289 1.387 . S
C290 C293 1.387 . S
H291 C287 0.950 . S
H292 C289 0.950 . S
C293 C284 1.390 . S
C293 H286 0.950 . S
C293 C290 1.387 . S
C294 C295 1.387 . S
C294 H298 0.950 . S
C294 C303 1.390 . S
C295 C294 1.387 . S
C295 C297 1.387 . S
H296 C303 0.950 . S
C297 C295 1.387 . S
C297 C299 1.390 . S
C297 H301 0.950 . S
H298 C294 0.950 . S
C299 C297 1.390 . S
C299 C300 1.387 . S
C299 H302 0.950 . S
C300 C299 1.387 . S
C300 C303 1.387 . S
H301 C297 0.950 . S
H302 C299 0.950 . S
C303 C294 1.390 . S
C303 H296 0.950 . S
C303 C300 1.387 . S
C304 C305 1.387 . S
C304 H308 0.950 . S
C304 C313 1.390 1_445 S
C305 C304 1.387 . S
C305 C307 1.387 . S
H306 C313 0.950 . S
C307 C305 1.387 . S
C307 C309 1.390 1_445 S
C307 H311 0.950 . S
H308 C304 0.950 . S
C309 C307 1.390 1_665 S
C309 C310 1.387 . S
C309 H312 0.950 . S
C310 C309 1.387 . S
C310 C313 1.387 . S
H311 C307 0.950 . S
H312 C309 0.950 . S
C313 C304 1.390 1_665 S
C313 H306 0.950 . S
C313 C310 1.387 . S
C314 C315 1.387 . S
C314 H318 0.950 . S
C314 C323 1.390 1_655 S
C315 C314 1.387 . S
C315 C317 1.387 . S
H316 C323 0.950 . S
C317 C315 1.387 . S
C317 C319 1.390 1_655 S
C317 H321 0.950 . S
H318 C314 0.950 . S
C319 C317 1.390 1_455 S
C319 C320 1.387 . S
C319 H322 0.950 . S
C320 C319 1.387 . S
C320 C323 1.387 . S
H321 C317 0.950 . S
H322 C319 0.950 . S
C323 C314 1.390 1_455 S
C323 H316 0.950 . S
C323 C320 1.387 . S
C324 C325 1.387 . S
C324 H328 0.950 . S
C324 C333 1.390 . S
C325 C324 1.387 . S
C325 C327 1.387 . S
H326 C333 0.950 . S
C327 C325 1.387 . S
C327 C329 1.390 . S
C327 H331 0.950 . S
H328 C324 0.950 . S
C329 C327 1.390 . S
C329 C330 1.387 . S
C329 H332 0.950 . S
C330 C329 1.387 . S
C330 C333 1.387 . S
H331 C327 0.950 . S
H332 C329 0.950 . S
C333 C324 1.390 . S
C333 H326 0.950 . S
C333 C330 1.387 . S
C334 C335 1.387 . S
C334 H338 0.950 . S
C334 C343 1.390 1_565 S
C335 C334 1.387 . S
C335 C337 1.387 1_554 S
H336 C343 0.950 . S
C337 C335 1.387 1_556 S
C337 C339 1.390 1_565 S
C337 H341 0.950 . S
H338 C334 0.950 . S
C339 C337 1.390 1_545 S
C339 C340 1.387 1_556 S
C339 H342 0.950 . S
C340 C339 1.387 1_554 S
C340 C343 1.387 . S
H341 C337 0.950 . S
H342 C339 0.950 . S
C343 C334 1.390 1_545 S
C343 H336 0.950 . S
C343 C340 1.387 . S
C344 C345 1.387 1_556 S
C344 H348 0.950 . S
C344 C353 1.390 1_455 S
C345 C344 1.387 1_554 S
C345 C347 1.387 . S
H346 C353 0.950 . S
C347 C345 1.387 . S
C347 C349 1.390 1_455 S
C347 H351 0.950 . S
H348 C344 0.950 . S
C349 C347 1.390 1_655 S
C349 C350 1.387 . S
C349 H352 0.950 . S
C350 C349 1.387 . S
C350 C353 1.387 1_554 S
H351 C347 0.950 . S
H352 C349 0.950 . S
C353 C344 1.390 1_655 S
C353 H346 0.950 . S
C353 C350 1.387 1_556 S
C354 C355 1.387 . S
C354 H358 0.950 . S
C354 C363 1.390 . S
C355 C354 1.387 . S
C355 C357 1.387 . S
H356 C363 0.950 . S
C357 C355 1.387 . S
C357 C359 1.390 . S
C357 H361 0.950 . S
H358 C354 0.950 . S
C359 C357 1.390 . S
C359 C360 1.387 . S
C359 H362 0.950 . S
C360 C359 1.387 . S
C360 C363 1.387 . S
H361 C357 0.950 . S
H362 C359 0.950 . S
C363 C354 1.390 . S
C363 H356 0.950 . S
C363 C360 1.387 . S
C364 C365 1.387 . S
C364 H368 0.950 . S
C364 C373 1.390 1_545 S
C365 C364 1.387 . S
C365 C367 1.387 . S
H366 C373 0.950 . S
C367 C365 1.387 . S
C367 C369 1.390 1_545 S
C367 H371 0.950 . S
H368 C364 0.950 . S
C369 C367 1.390 1_565 S
C369 C370 1.387 . S
C369 H372 0.950 . S
C370 C369 1.387 . S
C370 C373 1.387 . S
H371 C367 0.950 . S
H372 C369 0.950 . S
C373 C364 1.390 1_565 S
C373 H366 0.950 . S
C373 C370 1.387 . S
C374 C375 1.387 . S
C374 H378 0.950 . S
C374 C383 1.390 1_445 S
C375 C374 1.387 . S
C375 C377 1.387 . S
H376 C383 0.950 . S
C377 C375 1.387 . S
C377 C379 1.390 1_445 S
C377 H381 0.950 . S
H378 C374 0.950 . S
C379 C377 1.390 1_665 S
C379 C380 1.387 . S
C379 H382 0.950 . S
C380 C379 1.387 . S
C380 C383 1.387 . S
H381 C377 0.950 . S
H382 C379 0.950 . S
C383 C374 1.390 1_665 S
C383 H376 0.950 . S
C383 C380 1.387 . S
C384 C385 1.387 . S
C384 H388 0.950 . S
C384 C393 1.390 . S
C385 C384 1.387 . S
C385 C387 1.387 . S
H386 C393 0.950 . S
C387 C385 1.387 . S
C387 C389 1.390 . S
C387 H391 0.950 . S
H388 C384 0.950 . S
C389 C387 1.390 . S
C389 C390 1.387 . S
C389 H392 0.950 . S
C390 C389 1.387 . S
C390 C393 1.387 . S
H391 C387 0.950 . S
H392 C389 0.950 . S
C393 C384 1.390 . S
C393 H386 0.950 . S
C393 C390 1.387 . S
C394 C395 1.387 . S
C394 H398 0.950 . S
C394 C403 1.390 . S
C395 C394 1.387 . S
C395 C397 1.387 . S
H396 C403 0.950 . S
C397 C395 1.387 . S
C397 C399 1.390 . S
C397 H401 0.950 . S
H398 C394 0.950 . S
C399 C397 1.390 . S
C399 C400 1.387 . S
C399 H402 0.950 . S
C400 C399 1.387 . S
C400 C403 1.387 . S
H401 C397 0.950 . S
H402 C399 0.950 . S
C403 C394 1.390 . S
C403 H396 0.950 . S
C403 C400 1.387 . S
C404 C405 1.387 . S
C404 H408 0.950 . S
C404 C413 1.390 . S
C405 C404 1.387 . S
C405 C407 1.387 . S
H406 C413 0.950 1_556 S
C407 C405 1.387 . S
C407 C409 1.390 1_554 S
C407 H411 0.950 . S
H408 C404 0.950 . S
C409 C407 1.390 1_556 S
C409 C410 1.387 . S
C409 H412 0.950 . S
C410 C409 1.387 . S
C410 C413 1.387 1_556 S
H411 C407 0.950 . S
H412 C409 0.950 . S
C413 C404 1.390 . S
C413 H406 0.950 1_554 S
C413 C410 1.387 1_554 S
C414 C415 1.387 . S
C414 H418 0.950 . S
C414 C423 1.390 . S
C415 C414 1.387 . S
C415 C417 1.387 . S
H416 C423 0.950 . S
C417 C415 1.387 . S
C417 C419 1.390 . S
C417 H421 0.950 . S
H418 C414 0.950 . S
C419 C417 1.390 . S
C419 C420 1.387 . S
C419 H422 0.950 . S
C420 C419 1.387 . S
C420 C423 1.387 . S
H421 C417 0.950 . S
H422 C419 0.950 . S
C423 C414 1.390 . S
C423 H416 0.950 . S
C423 C420 1.387 . S
C424 C425 1.387 . S
C424 H428 0.950 . S
C424 C433 1.390 . S
C425 C424 1.387 . S
C425 C427 1.387 . S
H426 C433 0.950 . S
C427 C425 1.387 . S
C427 C429 1.390 . S
C427 H431 0.950 . S
H428 C424 0.950 . S
C429 C427 1.390 . S
C429 C430 1.387 . S
C429 H432 0.950 . S
C430 C429 1.387 . S
C430 C433 1.387 . S
H431 C427 0.950 . S
H432 C429 0.950 . S
C433 C424 1.390 . S
C433 H426 0.950 . S
C433 C430 1.387 . S
C434 C435 1.387 . S
C434 H438 0.950 . S
C434 C443 1.390 1_554 S
C435 C434 1.387 . S
C435 C437 1.387 . S
H436 C443 0.950 . S
C437 C435 1.387 . S
C437 C439 1.390 . S
C437 H441 0.950 . S
H438 C434 0.950 . S
C439 C437 1.390 . S
C439 C440 1.387 1_554 S
C439 H442 0.950 . S
C440 C439 1.387 1_556 S
C440 C443 1.387 . S
H441 C437 0.950 . S
H442 C439 0.950 . S
C443 C434 1.390 1_556 S
C443 H436 0.950 . S
C443 C440 1.387 . S
C444 C445 1.387 . S
C444 H448 0.950 . S
C444 C453 1.390 . S
C445 C444 1.387 . S
C445 C447 1.387 . S
H446 C453 0.950 . S
C447 C445 1.387 . S
C447 C449 1.390 . S
C447 H451 0.950 . S
H448 C444 0.950 . S
C449 C447 1.390 . S
C449 C450 1.387 . S
C449 H452 0.950 . S
C450 C449 1.387 . S
C450 C453 1.387 . S
H451 C447 0.950 . S
H452 C449 0.950 . S
C453 C444 1.390 . S
C453 H446 0.950 . S
C453 C450 1.387 . S
C454 C455 1.387 . S
C454 H458 0.950 . S
C454 C463 1.390 . S
C455 C454 1.387 . S
C455 C457 1.387 . S
H456 C463 0.950 . S
C457 C455 1.387 . S
C457 C459 1.390 . S
C457 H461 0.950 . S
H458 C454 0.950 . S
C459 C457 1.390 . S
C459 C460 1.387 . S
C459 H462 0.950 . S
C460 C459 1.387 . S
C460 C463 1.387 . S
H461 C457 0.950 . S
H462 C459 0.950 . S
C463 C454 1.390 . S
C463 H456 0.950 . S
C463 C460 1.387 . S
C464 C465 1.387 1_554 S
C464 H468 0.950 . S
C464 C473 1.390 . S
C465 C464 1.387 1_556 S
C465 C467 1.387 . S
H466 C473 0.950 . S
C467 C465 1.387 . S
C467 C469 1.390 1_556 S
C467 H471 0.950 . S
H468 C464 0.950 . S
C469 C467 1.390 1_554 S
C469 C470 1.387 . S
C469 H472 0.950 . S
C470 C469 1.387 . S
C470 C473 1.387 . S
H471 C467 0.950 . S
H472 C469 0.950 . S
C473 C464 1.390 . S
C473 H466 0.950 . S
C473 C470 1.387 . S
C474 C475 1.387 . S
C474 H478 0.950 . S
C474 C483 1.390 . S
C475 C474 1.387 . S
C475 C477 1.387 . S
H476 C483 0.950 . S
C477 C475 1.387 . S
C477 C479 1.390 . S
C477 H481 0.950 . S
H478 C474 0.950 . S
C479 C477 1.390 . S
C479 C480 1.387 . S
C479 H482 0.950 . S
C480 C479 1.387 . S
C480 C483 1.387 . S
H481 C477 0.950 . S
H482 C479 0.950 . S
C483 C474 1.390 . S
C483 H476 0.950 . S
C483 C480 1.387 . S
C484 C485 1.387 . S
C484 H488 0.950 . S
C484 C493 1.390 . S
C485 C484 1.387 . S
C485 C487 1.387 . S
H486 C493 0.950 . S
C487 C485 1.387 . S
C487 C489 1.390 . S
C487 H491 0.950 . S
H488 C484 0.950 . S
C489 C487 1.390 . S
C489 C490 1.387 . S
C489 H492 0.950 . S
C490 C489 1.387 . S
C490 C493 1.387 . S
H491 C487 0.950 . S
H492 C489 0.950 . S
C493 C484 1.390 . S
C493 H486 0.950 . S
C493 C490 1.387 . S
C494 C495 1.387 . S
C494 H498 0.950 . S
C494 C503 1.390 . S
C495 C494 1.387 . S
C495 C497 1.387 . S
H496 C503 0.950 . S
C497 C495 1.387 . S
C497 C499 1.390 . S
C497 H501 0.950 . S
H498 C494 0.950 . S
C499 C497 1.390 . S
C499 C500 1.387 . S
C499 H502 0.950 . S
C500 C499 1.387 . S
C500 C503 1.387 . S
H501 C497 0.950 . S
H502 C499 0.950 . S
C503 C494 1.390 . S
C503 H496 0.950 . S
C503 C500 1.387 . S
C504 C505 1.387 . S
C504 H508 0.950 . S
C504 C513 1.390 . S
C505 C504 1.387 . S
C505 C507 1.387 . S
H506 C513 0.950 . S
C507 C505 1.387 . S
C507 C509 1.390 . S
C507 H511 0.950 . S
H508 C504 0.950 . S
C509 C507 1.390 . S
C509 C510 1.387 . S
C509 H512 0.950 . S
C510 C509 1.387 . S
C510 C513 1.387 . S
H511 C507 0.950 . S
H512 C509 0.950 . S
C513 C504 1.390 . S
C513 H506 0.950 . S
C513 C510 1.387 . S
C514 C515 1.387 . S
C514 H518 0.950 . S
C514 C523 1.390 . S
C515 C514 1.387 . S
C515 C517 1.387 . S
H516 C523 0.950 . S
C517 C515 1.387 . S
C517 C519 1.390 . S
C517 H521 0.950 . S
H518 C514 0.950 . S
C519 C517 1.390 . S
C519 C520 1.387 . S
C519 H522 0.950 . S
C520 C519 1.387 . S
C520 C523 1.387 . S
H521 C517 0.950 . S
H522 C519 0.950 . S
C523 C514 1.390 . S
C523 H516 0.950 . S
C523 C520 1.387 . S
C524 C525 1.387 . S
C524 H528 0.950 . S
C524 C533 1.390 . S
C525 C524 1.387 . S
C525 C527 1.387 . S
H526 C533 0.950 . S
C527 C525 1.387 . S
C527 C529 1.390 . S
C527 H531 0.950 . S
H528 C524 0.950 . S
C529 C527 1.390 . S
C529 C530 1.387 . S
C529 H532 0.950 . S
C530 C529 1.387 . S
C530 C533 1.387 . S
H531 C527 0.950 . S
H532 C529 0.950 . S
C533 C524 1.390 . S
C533 H526 0.950 . S
C533 C530 1.387 . S
C534 C535 1.387 . S
C534 H538 0.950 . S
C534 C543 1.390 1_554 S
C535 C534 1.387 . S
C535 C537 1.387 . S
H536 C543 0.950 . S
C537 C535 1.387 . S
C537 C539 1.390 . S
C537 H541 0.950 . S
H538 C534 0.950 . S
C539 C537 1.390 . S
C539 C540 1.387 1_554 S
C539 H542 0.950 1_554 S
C540 C539 1.387 1_556 S
C540 C543 1.387 . S
H541 C537 0.950 . S
H542 C539 0.950 1_556 S
C543 C534 1.390 1_556 S
C543 H536 0.950 . S
C543 C540 1.387 . S
C225 C97 2.031 . S
C230 C13 2.031 . S
C235 C111 2.031 . S
C240 C27 2.031 . S
C245 C41 2.031 . S
C250 C56 2.027 1_556 S
C255 C55 2.031 . S
C260 C83 2.031 . S
C265 C112 2.032 . S
C270 C197 2.024 1_556 S
C275 C223 2.031 . S
C280 C139 2.031 . S
C285 C141 2.031 . S
C290 C168 2.033 . S
C295 C155 2.030 . S
C300 C182 2.032 . S
C305 C12 1.980 . S
C310 C140 1.980 . S
C315 C26 1.980 . S
C320 C154 1.980 . S
C325 C40 1.983 . S
C330 C113 1.979 . S
C335 C54 1.980 . S
C340 C138 1.980 . S
C345 C57 1.976 . S
C350 C196 1.980 . S
C355 C222 1.983 . S
C360 C82 1.983 . S
C365 C96 1.983 . S
C370 C169 1.979 . S
C375 C183 1.976 . S
C380 C110 1.980 . S
C385 C195 0.927 . S
C390 C0 0.928 . S
C395 C14 0.927 . S
C400 C208 0.927 . S
C405 C210 0.925 . S
C410 C28 0.925 . S
C415 C181 0.925 . S
C420 C42 0.927 . S
C425 C166 0.925 . S
C430 C69 0.924 . S
C435 C70 0.926 . S
C440 C125 0.926 . S
C445 C84 0.925 . S
C450 C126 0.926 . S
C455 C98 0.928 . S
C460 C152 0.928 . S
C465 C194 1.700 . S
C470 C1 1.699 . S
C475 C15 1.699 . S
C480 C209 1.699 . S
C485 C29 1.700 . S
C490 C211 1.700 . S
C495 C180 1.701 . S
C500 C43 1.699 . S
C505 C167 1.699 . S
C510 C68 1.701 . S
C515 C124 1.700 . S
C520 C71 1.698 . S
C525 C85 1.699 . S
C530 C127 1.698 . S
C535 C153 1.700 . S
C540 C99 1.700 . S
