# Generated by pormake.
# Topology ung, (4)-cn, num edge types: 1
# Building blocks:
#     Node 0, Type 0, BuildingBlock: NAWXER_clean_sbu_0, # of connection points: 4
#     Node 1, Type 0, BuildingBlock: NAWXER_clean_sbu_0, # of connection points: 4
#     Node 2, Type 0, BuildingBlock: NAWXER_clean_sbu_0, # of connection points: 4
#     Node 3, Type 0, BuildingBlock: NAWXER_clean_sbu_0, # of connection points: 4
#     Node 4, Type 0, BuildingBlock: NAWXER_clean_sbu_0, # of connection points: 4
#     Node 5, Type 0, BuildingBlock: NAWXER_clean_sbu_0, # of connection points: 4
#     Node 6, Type 0, BuildingBlock: NAWXER_clean_sbu_0, # of connection points: 4
#     Node 7, Type 0, BuildingBlock: NAWXER_clean_sbu_0, # of connection points: 4
#     Node 8, Type 0, BuildingBlock: NAWXER_clean_sbu_0, # of connection points: 4
#     Node 9, Type 0, BuildingBlock: NAWXER_clean_sbu_0, # of connection points: 4
#     Node 10, Type 0, BuildingBlock: NAWXER_clean_sbu_0, # of connection points: 4
#     Node 11, Type 0, BuildingBlock: NAWXER_clean_sbu_0, # of connection points: 4
#     Node 12, Type 0, BuildingBlock: NAWXER_clean_sbu_0, # of connection points: 4
#     Node 13, Type 0, BuildingBlock: NAWXER_clean_sbu_0, # of connection points: 4
#     Node 14, Type 0, BuildingBlock: NAWXER_clean_sbu_0, # of connection points: 4
#     Node 15, Type 0, BuildingBlock: NAWXER_clean_sbu_0, # of connection points: 4
#     Node 16, Type 0, BuildingBlock: NAWXER_clean_sbu_0, # of connection points: 4
#     Node 17, Type 0, BuildingBlock: NAWXER_clean_sbu_0, # of connection points: 4
#     Edge 18, Type (0, 0), BuildingBlock: UVAHIK_clean_linker_0, # of connection points: 2
#     Edge 19, Type (0, 0), BuildingBlock: UVAHIK_clean_linker_0, # of connection points: 2
#     Edge 20, Type (0, 0), BuildingBlock: UVAHIK_clean_linker_0, # of connection points: 2
#     Edge 21, Type (0, 0), BuildingBlock: UVAHIK_clean_linker_0, # of connection points: 2
#     Edge 22, Type (0, 0), BuildingBlock: UVAHIK_clean_linker_0, # of connection points: 2
#     Edge 23, Type (0, 0), BuildingBlock: UVAHIK_clean_linker_0, # of connection points: 2
#     Edge 24, Type (0, 0), BuildingBlock: UVAHIK_clean_linker_0, # of connection points: 2
#     Edge 25, Type (0, 0), BuildingBlock: UVAHIK_clean_linker_0, # of connection points: 2
#     Edge 26, Type (0, 0), BuildingBlock: UVAHIK_clean_linker_0, # of connection points: 2
#     Edge 27, Type (0, 0), BuildingBlock: UVAHIK_clean_linker_0, # of connection points: 2
#     Edge 28, Type (0, 0), BuildingBlock: UVAHIK_clean_linker_0, # of connection points: 2
#     Edge 29, Type (0, 0), BuildingBlock: UVAHIK_clean_linker_0, # of connection points: 2
#     Edge 30, Type (0, 0), BuildingBlock: UVAHIK_clean_linker_0, # of connection points: 2
#     Edge 31, Type (0, 0), BuildingBlock: UVAHIK_clean_linker_0, # of connection points: 2
#     Edge 32, Type (0, 0), BuildingBlock: UVAHIK_clean_linker_0, # of connection points: 2
#     Edge 33, Type (0, 0), BuildingBlock: UVAHIK_clean_linker_0, # of connection points: 2
#     Edge 34, Type (0, 0), BuildingBlock: UVAHIK_clean_linker_0, # of connection points: 2
#     Edge 35, Type (0, 0), BuildingBlock: UVAHIK_clean_linker_0, # of connection points: 2
#     Edge 36, Type (0, 0), BuildingBlock: UVAHIK_clean_linker_0, # of connection points: 2
#     Edge 37, Type (0, 0), BuildingBlock: UVAHIK_clean_linker_0, # of connection points: 2
#     Edge 38, Type (0, 0), BuildingBlock: UVAHIK_clean_linker_0, # of connection points: 2
#     Edge 39, Type (0, 0), BuildingBlock: UVAHIK_clean_linker_0, # of connection points: 2
#     Edge 40, Type (0, 0), BuildingBlock: UVAHIK_clean_linker_0, # of connection points: 2
#     Edge 41, Type (0, 0), BuildingBlock: UVAHIK_clean_linker_0, # of connection points: 2
#     Edge 42, Type (0, 0), BuildingBlock: UVAHIK_clean_linker_0, # of connection points: 2
#     Edge 43, Type (0, 0), BuildingBlock: UVAHIK_clean_linker_0, # of connection points: 2
#     Edge 44, Type (0, 0), BuildingBlock: UVAHIK_clean_linker_0, # of connection points: 2
#     Edge 45, Type (0, 0), BuildingBlock: UVAHIK_clean_linker_0, # of connection points: 2
#     Edge 46, Type (0, 0), BuildingBlock: UVAHIK_clean_linker_0, # of connection points: 2
#     Edge 47, Type (0, 0), BuildingBlock: UVAHIK_clean_linker_0, # of connection points: 2
#     Edge 48, Type (0, 0), BuildingBlock: UVAHIK_clean_linker_0, # of connection points: 2
#     Edge 49, Type (0, 0), BuildingBlock: UVAHIK_clean_linker_0, # of connection points: 2
#     Edge 50, Type (0, 0), BuildingBlock: UVAHIK_clean_linker_0, # of connection points: 2
#     Edge 51, Type (0, 0), BuildingBlock: UVAHIK_clean_linker_0, # of connection points: 2
#     Edge 52, Type (0, 0), BuildingBlock: UVAHIK_clean_linker_0, # of connection points: 2
#     Edge 53, Type (0, 0), BuildingBlock: UVAHIK_clean_linker_0, # of connection points: 2
# Relax obj value: 0.020
# Max RMSD: 0.247
# Mean RMSD: 0.247
data_MOF--net-ung--node1-NAWXER_clean_sbu_0--edge1-UVAHIK_clean_linker_0
_symmetry_space_group_name_H-M    P1
_symmetry_Int_Tables_number       1
_symmetry_cell_setting            triclinic
loop_
_symmetry_equiv_pos_as_xyz
'x, y, z'
_cell_length_a     101.3417
_cell_length_b     101.35973
_cell_length_c     27.886418
_cell_angle_alpha  89.989537
_cell_angle_beta   89.963446
_cell_angle_gamma 120.02522
loop_
_atom_site_label
_atom_site_type_symbol
_atom_site_fract_x
_atom_site_fract_y
_atom_site_fract_z
_atom_type_partial_charge
C0 C 0.07486 0.62803 0.32218 0.0
C1 C 0.06019 0.6548 0.20981 0.0
O2 O 0.06228 0.62764 0.31626 0.0
Zn3 Zn 0.0682 0.64157 0.26418 0.0
O4 O 0.08623 0.63671 0.29516 0.0
Zn5 Zn 0.08996 0.65243 0.23622 0.0
O6 O 0.10575 0.67147 0.25931 0.0
O7 O 0.0839 0.6636 0.29664 0.0
O8 O 0.07426 0.65872 0.20356 0.0
O9 O 0.05242 0.64479 0.24102 0.0
O10 O 0.0719 0.62953 0.20537 0.0
O11 O 0.09586 0.64435 0.18424 0.0
C12 C 0.09797 0.67374 0.29039 0.0
C13 C 0.08325 0.63217 0.17837 0.0
C14 C 0.48456 0.50228 0.2961 0.0
C15 C 0.52534 0.5291 0.18115 0.0
O16 O 0.48675 0.51263 0.26633 0.0
Zn17 Zn 0.50543 0.51559 0.24025 0.0
O18 O 0.4945 0.498 0.29993 0.0
Zn19 Zn 0.51632 0.50443 0.26606 0.0
O20 O 0.53059 0.51228 0.31743 0.0
O21 O 0.52163 0.52735 0.29789 0.0
O22 O 0.52801 0.52024 0.20725 0.0
O23 O 0.5133 0.52969 0.1883 0.0
O24 O 0.49874 0.49358 0.20649 0.0
O25 O 0.5129 0.48553 0.24166 0.0
C26 C 0.53039 0.52454 0.32395 0.0
C27 C 0.50269 0.48341 0.21141 0.0
C28 C 0.65485 0.0605 0.29589 0.0
C29 C 0.62772 0.07415 0.18144 0.0
O30 O 0.64446 0.05227 0.26635 0.0
Zn31 Zn 0.64135 0.06789 0.24038 0.0
O32 O 0.65906 0.0747 0.29972 0.0
Zn33 Zn 0.65244 0.08997 0.26607 0.0
O34 O 0.64453 0.0963 0.31762 0.0
O35 O 0.62956 0.07223 0.29817 0.0
O36 O 0.63656 0.08572 0.20743 0.0
O37 O 0.62721 0.06156 0.18861 0.0
O38 O 0.6633 0.0833 0.20635 0.0
O39 O 0.67129 0.10553 0.24133 0.0
C40 C 0.63231 0.08378 0.32424 0.0
C41 C 0.67343 0.09746 0.21107 0.0
C42 C 0.0598 0.48332 0.70966 0.0
C43 C 0.07433 0.52478 0.82196 0.0
O44 O 0.07388 0.49346 0.70367 0.0
Zn45 Zn 0.08953 0.51546 0.7364 0.0
O46 O 0.05196 0.48556 0.74059 0.0
Zn47 Zn 0.06771 0.50458 0.76398 0.0
O48 O 0.07155 0.52034 0.70512 0.0
O49 O 0.09554 0.52944 0.68441 0.0
O50 O 0.06173 0.51261 0.81589 0.0
O51 O 0.08573 0.52744 0.79514 0.0
O52 O 0.10526 0.51222 0.75987 0.0
O53 O 0.08334 0.49824 0.79688 0.0
C54 C 0.08297 0.52905 0.67828 0.0
C55 C 0.09742 0.50217 0.79091 0.0
C56 C 0.65548 0.67299 0.79266 0.0
C57 C 0.62904 0.6315 0.68043 0.0
O58 O 0.65947 0.66291 0.7991 0.0
Zn59 Zn 0.65333 0.64093 0.76666 0.0
O60 O 0.64551 0.6707 0.76129 0.0
Zn61 Zn 0.64241 0.65173 0.73834 0.0
O62 O 0.63033 0.636 0.79707 0.0
O63 O 0.64516 0.62694 0.81868 0.0
O64 O 0.62856 0.64365 0.68622 0.0
O65 O 0.63772 0.62888 0.70761 0.0
O66 O 0.67244 0.64428 0.74372 0.0
O67 O 0.66445 0.65808 0.70601 0.0
C68 C 0.63294 0.62731 0.82424 0.0
C69 C 0.67464 0.65424 0.71238 0.0
C70 C 0.52488 0.07471 0.6808 0.0
C71 C 0.48359 0.05955 0.79429 0.0
O72 O 0.52748 0.086 0.70798 0.0
Zn73 Zn 0.51552 0.08951 0.76735 0.0
O74 O 0.51279 0.06204 0.6868 0.0
Zn75 Zn 0.50471 0.06776 0.73921 0.0
O76 O 0.49819 0.08335 0.70717 0.0
O77 O 0.51201 0.10519 0.74467 0.0
O78 O 0.48579 0.05185 0.76274 0.0
O79 O 0.49367 0.07364 0.80042 0.0
O80 O 0.52963 0.09545 0.81896 0.0
O81 O 0.52057 0.07153 0.7976 0.0
C82 C 0.50199 0.09738 0.71358 0.0
C83 C 0.52929 0.08288 0.82456 0.0
C84 C 0.74072 0.96095 0.65221 0.0
C85 C 0.72744 0.98826 0.53713 0.0
O86 O 0.72815 0.96048 0.64488 0.0
Zn87 Zn 0.73462 0.97469 0.5931 0.0
O88 O 0.75234 0.96979 0.62636 0.0
Zn89 Zn 0.75677 0.98572 0.56778 0.0
O90 O 0.7723 0.00452 0.59265 0.0
O91 O 0.75001 0.99659 0.62721 0.0
O92 O 0.74163 0.99238 0.53362 0.0
O93 O 0.71909 0.9779 0.56669 0.0
O94 O 0.73905 0.96292 0.53545 0.0
O95 O 0.76318 0.97783 0.51649 0.0
C96 C 0.76418 0.00668 0.62268 0.0
C97 C 0.75065 0.96565 0.50963 0.0
C98 C 0.15199 0.83503 0.63231 0.0
C99 C 0.19291 0.86226 0.51847 0.0
O100 O 0.15428 0.84556 0.60314 0.0
Zn101 Zn 0.17298 0.84861 0.5772 0.0
O102 O 0.16189 0.8307 0.63587 0.0
Zn103 Zn 0.18378 0.83725 0.6022 0.0
O104 O 0.19811 0.84506 0.65378 0.0
O105 O 0.18896 0.86003 0.63524 0.0
O106 O 0.19538 0.85303 0.54329 0.0
O107 O 0.18109 0.86318 0.52664 0.0
O108 O 0.16631 0.82673 0.54227 0.0
O109 O 0.18028 0.81839 0.57721 0.0
C110 C 0.19777 0.85722 0.66099 0.0
C111 C 0.17016 0.81647 0.54682 0.0
C112 C 0.34018 0.43053 0.54123 0.0
C113 C 0.29935 0.41689 0.65595 0.0
O114 O 0.33818 0.43879 0.57114 0.0
Zn115 Zn 0.31935 0.4232 0.59711 0.0
O116 O 0.33007 0.41637 0.5373 0.0
Zn117 Zn 0.3082 0.40113 0.57108 0.0
O118 O 0.29399 0.39494 0.51962 0.0
O119 O 0.30331 0.41903 0.53921 0.0
O120 O 0.2966 0.40537 0.62971 0.0
O121 O 0.3115 0.42946 0.64911 0.0
O122 O 0.32578 0.40767 0.63058 0.0
O123 O 0.3114 0.3855 0.59542 0.0
C124 C 0.29445 0.40752 0.51306 0.0
C125 C 0.32167 0.3935 0.62559 0.0
C126 C 0.76495 0.83605 0.12077 0.0
C127 C 0.74998 0.86281 0.00913 0.0
O128 O 0.7509 0.83214 0.12725 0.0
Zn129 Zn 0.73513 0.83839 0.09503 0.0
O130 O 0.77268 0.84599 0.08933 0.0
Zn131 Zn 0.75685 0.84924 0.06653 0.0
O132 O 0.75328 0.86123 0.1257 0.0
O133 O 0.72935 0.84645 0.14727 0.0
O134 O 0.7626 0.86322 0.01451 0.0
O135 O 0.73871 0.8541 0.0364 0.0
O136 O 0.71929 0.81937 0.07212 0.0
O137 O 0.74106 0.82723 0.03428 0.0
C138 C 0.74199 0.8586 0.15299 0.0
C139 C 0.727 0.81711 0.04077 0.0
C140 C 0.32175 0.00609 0.13151 0.0
C141 C 0.29515 0.96457 0.01899 0.0
O142 O 0.32597 0.99615 0.13655 0.0
Zn143 Zn 0.31957 0.97413 0.10503 0.0
O144 O 0.3114 0.00371 0.1015 0.0
Zn145 Zn 0.30845 0.98482 0.07687 0.0
O146 O 0.29632 0.96879 0.1345 0.0
O147 O 0.31161 0.96046 0.15811 0.0
O148 O 0.29462 0.9767 0.02457 0.0
O149 O 0.30387 0.96202 0.04624 0.0
O150 O 0.33856 0.97739 0.08153 0.0
O151 O 0.3305 0.99121 0.04417 0.0
C152 C 0.29916 0.96044 0.16246 0.0
C153 C 0.34069 0.98734 0.05024 0.0
C154 C 0.16906 0.43048 0.04358 0.0
C155 C 0.19636 0.41648 0.15595 0.0
O156 O 0.16507 0.41635 0.03825 0.0
Zn157 Zn 0.17162 0.40087 0.07148 0.0
O158 O 0.17926 0.43846 0.074 0.0
Zn159 Zn 0.18256 0.42286 0.09801 0.0
O160 O 0.19435 0.41888 0.03931 0.0
O161 O 0.17961 0.39481 0.01942 0.0
O162 O 0.19669 0.42902 0.14972 0.0
O163 O 0.18761 0.40502 0.12949 0.0
O164 O 0.15282 0.38511 0.09696 0.0
O165 O 0.16063 0.40742 0.13122 0.0
C166 C 0.19172 0.40744 0.01285 0.0
C167 C 0.15063 0.39323 0.12691 0.0
C168 C 0.40886 0.29515 0.9868 0.0
C169 C 0.39371 0.32166 0.87507 0.0
O170 O 0.39618 0.29456 0.98107 0.0
Zn171 Zn 0.40189 0.30848 0.929 0.0
O172 O 0.42015 0.3039 0.95961 0.0
Zn173 Zn 0.42363 0.31949 0.90063 0.0
O174 O 0.43938 0.33859 0.92359 0.0
O175 O 0.41756 0.3305 0.96139 0.0
O176 O 0.40779 0.32566 0.86855 0.0
O177 O 0.38601 0.31161 0.90624 0.0
O178 O 0.40557 0.29651 0.87008 0.0
O179 O 0.42947 0.31141 0.84845 0.0
C180 C 0.43159 0.34073 0.95498 0.0
C181 C 0.41689 0.29919 0.84284 0.0
C182 C 0.81643 0.16881 0.95543 0.0
C183 C 0.85825 0.19566 0.84394 0.0
O184 O 0.81868 0.17878 0.92406 0.0
Zn185 Zn 0.8378 0.18208 0.90138 0.0
O186 O 0.8266 0.16495 0.96201 0.0
Zn187 Zn 0.84867 0.17125 0.9299 0.0
O188 O 0.86248 0.17934 0.98219 0.0
O189 O 0.85333 0.1941 0.96058 0.0
O190 O 0.86083 0.18697 0.87122 0.0
O191 O 0.84604 0.19604 0.84932 0.0
O192 O 0.83159 0.16007 0.86917 0.0
O193 O 0.84548 0.15222 0.90707 0.0
C194 C 0.86199 0.19148 0.9879 0.0
C195 C 0.83551 0.14994 0.87574 0.0
C196 C 0.98823 0.72611 0.95667 0.0
C197 C 0.96097 0.74001 0.84372 0.0
O198 O 0.97791 0.71804 0.92671 0.0
Zn199 Zn 0.97474 0.73367 0.90195 0.0
O200 O 0.99239 0.74029 0.96127 0.0
Zn201 Zn 0.986 0.75579 0.92739 0.0
O202 O 0.97831 0.76227 0.97921 0.0
O203 O 0.96329 0.73813 0.96055 0.0
O204 O 0.9699 0.75155 0.86962 0.0
O205 O 0.96047 0.72741 0.85058 0.0
O206 O 0.9966 0.74876 0.86786 0.0
O207 O 0.0048 0.77127 0.90115 0.0
C208 C 0.96614 0.74975 0.98647 0.0
C209 C 0.00675 0.76292 0.8715 0.0
C210 C 0.39426 0.15122 0.37146 0.0
C211 C 0.4081 0.19185 0.48659 0.0
O212 O 0.4085 0.16114 0.3678 0.0
Zn213 Zn 0.42389 0.18291 0.40192 0.0
O214 O 0.38606 0.15338 0.40119 0.0
Zn215 Zn 0.40178 0.17199 0.42749 0.0
O216 O 0.40631 0.18823 0.36989 0.0
O217 O 0.43038 0.19725 0.35058 0.0
O218 O 0.39548 0.17981 0.47935 0.0
O219 O 0.41968 0.19455 0.46062 0.0
O220 O 0.4393 0.17941 0.42662 0.0
O221 O 0.417 0.16522 0.46135 0.0
C222 C 0.41791 0.19702 0.34394 0.0
C223 C 0.43113 0.16915 0.4567 0.0
C224 C 0.98806 0.33997 0.45662 0.0
C225 C 0.9603 0.29867 0.34457 0.0
O226 O 0.99213 0.32989 0.46133 0.0
Zn227 Zn 0.98549 0.30787 0.42776 0.0
O228 O 0.97771 0.33772 0.4268 0.0
Zn229 Zn 0.97434 0.31884 0.40235 0.0
O230 O 0.96289 0.30301 0.46126 0.0
O231 O 0.97782 0.29379 0.47986 0.0
O232 O 0.95995 0.31085 0.3513 0.0
O233 O 0.96921 0.29598 0.37036 0.0
O234 O 0.00418 0.31098 0.40112 0.0
O235 O 0.99608 0.32538 0.36778 0.0
C236 C 0.96571 0.29424 0.48724 0.0
C237 C 0.00615 0.32125 0.37127 0.0
C238 C 0.83634 0.7643 0.3747 0.0
C239 C 0.8631 0.74952 0.4868 0.0
O240 O 0.83241 0.75023 0.36848 0.0
Zn241 Zn 0.83866 0.73452 0.401 0.0
O242 O 0.84631 0.77205 0.40598 0.0
Zn243 Zn 0.84957 0.75627 0.42912 0.0
O244 O 0.86161 0.75259 0.37033 0.0
O245 O 0.84678 0.72867 0.34896 0.0
O246 O 0.86356 0.76214 0.48102 0.0
O247 O 0.85437 0.73819 0.45978 0.0
O248 O 0.81964 0.71871 0.42435 0.0
O249 O 0.82764 0.74052 0.46201 0.0
C250 C 0.85898 0.74127 0.34325 0.0
C251 C 0.81749 0.72645 0.45587 0.0
C252 C 0.08918 0.54973 0.86556 0.0
C253 C 0.07561 0.53579 0.85923 0.0
C254 C 0.09008 0.56016 0.90022 0.0
C255 C 0.07141 0.56292 0.01112 0.0
H256 H 0.09151 0.60591 0.97965 0.0
C257 C 0.06833 0.6072 0.13492 0.0
C258 C 0.08192 0.62113 0.14113 0.0
C259 C 0.06739 0.59675 0.10026 0.0
C260 C 0.08598 0.59396 0.98919 0.0
H261 H 0.05235 0.52187 0.88462 0.0
H262 H 0.05391 0.54002 0.94444 0.0
H263 H 0.09064 0.5878 0.92043 0.0
H264 H 0.10516 0.63502 0.11555 0.0
H265 H 0.10354 0.61685 0.05575 0.0
H266 H 0.06676 0.56908 0.0799 0.0
C267 C 0.06392 0.54285 0.92313 0.0
C268 C 0.08551 0.58358 0.95526 0.0
C269 C 0.06301 0.53248 0.88854 0.0
C270 C 0.09449 0.62442 0.11172 0.0
C271 C 0.09354 0.61403 0.07714 0.0
C272 C 0.07188 0.57329 0.04506 0.0
C273 C 0.07744 0.55684 0.92936 0.0
C274 C 0.07822 0.56793 0.96579 0.0
C275 C 0.08 0.60005 0.071 0.0
C276 C 0.07919 0.58895 0.03454 0.0
H277 H 0.0991 0.55264 0.84364 0.0
H278 H 0.10073 0.57076 0.90447 0.0
H279 H 0.06588 0.55096 0.02066 0.0
H280 H 0.05844 0.60432 0.15692 0.0
H281 H 0.05674 0.58615 0.09609 0.0
C282 C 0.608 0.61745 0.8678 0.0
C283 C 0.62182 0.61758 0.86132 0.0
C284 C 0.59749 0.60798 0.90241 0.0
C285 C 0.59444 0.58629 0.01295 0.0
H286 H 0.55135 0.5641 0.98245 0.0
C287 C 0.55005 0.53895 0.13633 0.0
C288 C 0.53626 0.53881 0.14358 0.0
C289 C 0.56044 0.54845 0.10154 0.0
C290 C 0.56333 0.57032 0.99171 0.0
H291 H 0.63542 0.60785 0.88625 0.0
H292 H 0.61711 0.59134 0.94592 0.0
H293 H 0.56954 0.58124 0.92306 0.0
H294 H 0.52254 0.54851 0.11965 0.0
H295 H 0.54064 0.56509 0.0595 0.0
H296 H 0.58824 0.57536 0.08156 0.0
C297 C 0.61444 0.59867 0.92483 0.0
C298 C 0.57375 0.58017 0.95769 0.0
C299 C 0.62491 0.6081 0.89033 0.0
C300 C 0.53304 0.54829 0.115 0.0
C301 C 0.54338 0.55775 0.08025 0.0
C302 C 0.58402 0.57643 0.04695 0.0
C303 C 0.60059 0.59847 0.93132 0.0
C304 C 0.58944 0.58826 0.96786 0.0
C305 C 0.55723 0.558 0.07318 0.0
C306 C 0.56834 0.56832 0.03674 0.0
H307 H 0.60527 0.62462 0.8461 0.0
H308 H 0.58699 0.60822 0.90685 0.0
H309 H 0.60642 0.59251 0.02226 0.0
H310 H 0.55288 0.53177 0.15766 0.0
H311 H 0.57093 0.54824 0.09661 0.0
C312 C 0.61781 0.08891 0.13646 0.0
C313 C 0.61796 0.07527 0.14393 0.0
C314 C 0.60828 0.08971 0.10168 0.0
C315 C 0.58636 0.07052 0.99216 0.0
H316 H 0.56421 0.09148 0.02223 0.0
C317 C 0.5392 0.06787 0.86822 0.0
C318 C 0.53908 0.08156 0.86152 0.0
C319 C 0.54869 0.06689 0.90282 0.0
C320 C 0.57043 0.08571 0.01306 0.0
H321 H 0.60826 0.0518 0.1204 0.0
H322 H 0.59163 0.0532 0.06026 0.0
H323 H 0.58137 0.09055 0.0816 0.0
H324 H 0.54886 0.10494 0.88603 0.0
H325 H 0.56541 0.10324 0.94567 0.0
H326 H 0.57543 0.0657 0.92357 0.0
C327 C 0.59898 0.06332 0.08083 0.0
C328 C 0.58028 0.0852 0.04709 0.0
C329 C 0.60847 0.06251 0.11558 0.0
C330 C 0.5486 0.09419 0.89028 0.0
C331 C 0.55805 0.0932 0.92477 0.0
C332 C 0.57651 0.07104 0.9581 0.0
C333 C 0.59872 0.07691 0.07353 0.0
C334 C 0.58838 0.07761 0.03705 0.0
C335 C 0.55823 0.07955 0.9315 0.0
C336 C 0.56844 0.07867 0.96809 0.0
H337 H 0.62499 0.09895 0.15761 0.0
H338 H 0.60848 0.1004 0.09656 0.0
H339 H 0.59258 0.06475 0.98302 0.0
H340 H 0.532 0.05793 0.84672 0.0
H341 H 0.54844 0.05615 0.90744 0.0
C342 C 0.62459 0.09548 0.3896 0.0
C343 C 0.62132 0.08273 0.36125 0.0
C344 C 0.61421 0.09471 0.42401 0.0
C345 C 0.57353 0.07301 0.45694 0.0
H346 H 0.58804 0.09219 0.58095 0.0
C347 C 0.53277 0.06366 0.614 0.0
C348 C 0.53591 0.0762 0.64325 0.0
C349 C 0.54318 0.06476 0.5792 0.0
C350 C 0.58382 0.08695 0.54628 0.0
H351 H 0.60457 0.0591 0.34712 0.0
H352 H 0.58646 0.05773 0.40759 0.0
H353 H 0.6062 0.09317 0.52162 0.0
H354 H 0.55244 0.0998 0.6585 0.0
H355 H 0.57062 0.10178 0.59725 0.0
H356 H 0.55115 0.06678 0.48159 0.0
C357 C 0.59702 0.06838 0.40274 0.0
C358 C 0.59422 0.08748 0.51229 0.0
C359 C 0.60743 0.06914 0.36829 0.0
C360 C 0.54969 0.08993 0.63663 0.0
C361 C 0.56014 0.09103 0.60173 0.0
C362 C 0.56313 0.07248 0.49091 0.0
C363 C 0.60029 0.08118 0.43095 0.0
C364 C 0.5892 0.0805 0.46724 0.0
C365 C 0.557 0.07844 0.57267 0.0
C366 C 0.56814 0.0794 0.53605 0.0
H367 H 0.63516 0.10615 0.38508 0.0
H368 H 0.617 0.10483 0.44464 0.0
H369 H 0.56931 0.06774 0.42231 0.0
H370 H 0.52229 0.05288 0.61816 0.0
H371 H 0.54049 0.05478 0.55797 0.0
C372 C 0.06355 0.60908 0.3889 0.0
C373 C 0.07613 0.6183 0.35947 0.0
C374 C 0.06442 0.59958 0.42346 0.0
C375 C 0.0858 0.58024 0.45532 0.0
H376 H 0.06711 0.57607 0.58001 0.0
C377 C 0.09436 0.54802 0.61165 0.0
C378 C 0.08175 0.5388 0.64097 0.0
C379 C 0.09353 0.55754 0.57708 0.0
C380 C 0.07222 0.57696 0.54517 0.0
H381 H 0.09957 0.62483 0.34362 0.0
H382 H 0.10114 0.60828 0.40444 0.0
H383 H 0.06642 0.59344 0.52092 0.0
H384 H 0.0583 0.53229 0.6566 0.0
H385 H 0.05681 0.54888 0.59579 0.0
H386 H 0.09161 0.56375 0.47957 0.0
C387 C 0.09053 0.60831 0.4003 0.0
C388 C 0.07185 0.58694 0.51131 0.0
C389 C 0.08967 0.61786 0.36565 0.0
C390 C 0.06823 0.53926 0.63467 0.0
C391 C 0.0674 0.54883 0.60002 0.0
C392 C 0.08617 0.57025 0.48918 0.0
C393 C 0.0779 0.59904 0.42955 0.0
C394 C 0.07862 0.58869 0.46595 0.0
C395 C 0.08007 0.55811 0.57089 0.0
C396 C 0.07939 0.56849 0.53453 0.0
H397 H 0.05291 0.60908 0.38509 0.0
H398 H 0.05441 0.59245 0.44485 0.0
H399 H 0.09091 0.58112 0.42047 0.0
H400 H 0.10499 0.548 0.61555 0.0
H401 H 0.10356 0.56468 0.55577 0.0
C402 C 0.61013 0.62373 0.6137 0.0
C403 C 0.61939 0.62046 0.64316 0.0
C404 C 0.60065 0.61329 0.57932 0.0
C405 C 0.59471 0.58007 0.50837 0.0
H406 H 0.55384 0.5736 0.493 0.0
C407 C 0.5497 0.53209 0.38951 0.0
C408 C 0.54036 0.5355 0.36092 0.0
C409 C 0.55933 0.54241 0.42396 0.0
C410 C 0.56528 0.5754 0.49643 0.0
H411 H 0.62604 0.60366 0.6592 0.0
H412 H 0.60935 0.58531 0.59911 0.0
H413 H 0.57073 0.5915 0.55323 0.0
H414 H 0.53382 0.55245 0.34625 0.0
H415 H 0.55074 0.57056 0.40627 0.0
H416 H 0.58926 0.56399 0.45149 0.0
C417 C 0.60955 0.59606 0.60249 0.0
C418 C 0.57495 0.58565 0.531 0.0
C419 C 0.61907 0.60654 0.63704 0.0
C420 C 0.54083 0.54946 0.36777 0.0
C421 C 0.55048 0.5598 0.40231 0.0
C422 C 0.58503 0.56982 0.47376 0.0
C423 C 0.60016 0.59929 0.57347 0.0
C424 C 0.5898 0.58814 0.5373 0.0
C425 C 0.55987 0.55641 0.43072 0.0
C426 C 0.5702 0.56738 0.46734 0.0
H427 H 0.61014 0.63438 0.61721 0.0
H428 H 0.59377 0.61626 0.55702 0.0
H429 H 0.60615 0.58189 0.51184 0.0
H430 H 0.54961 0.52142 0.38535 0.0
H431 H 0.56623 0.53933 0.4457 0.0
C432 C 0.73093 0.86641 0.21993 0.0
C433 C 0.74345 0.86962 0.19043 0.0
C434 C 0.732 0.87679 0.25472 0.0
C435 C 0.75396 0.91743 0.28729 0.0
H436 H 0.73502 0.90283 0.41165 0.0
C437 C 0.7624 0.95806 0.44409 0.0
C438 C 0.74964 0.95471 0.47259 0.0
C439 C 0.76168 0.94773 0.40963 0.0
C440 C 0.74022 0.90707 0.37691 0.0
H441 H 0.76699 0.88628 0.17469 0.0
H442 H 0.76892 0.90442 0.23593 0.0
H443 H 0.73415 0.88475 0.35232 0.0
H444 H 0.72605 0.93785 0.48694 0.0
H445 H 0.72476 0.91982 0.4264 0.0
H446 H 0.76002 0.93976 0.31192 0.0
C447 C 0.7582 0.89389 0.23166 0.0
C448 C 0.73974 0.89672 0.34291 0.0
C449 C 0.75713 0.88347 0.19676 0.0
C450 C 0.73609 0.94078 0.46565 0.0
C451 C 0.73538 0.93041 0.43116 0.0
C452 C 0.75445 0.92779 0.32131 0.0
C453 C 0.74563 0.89067 0.26099 0.0
C454 C 0.74656 0.90176 0.29763 0.0
C455 C 0.74818 0.93377 0.40281 0.0
C456 C 0.74755 0.92273 0.36649 0.0
H457 H 0.72019 0.85588 0.21599 0.0
H458 H 0.72203 0.87404 0.27617 0.0
H459 H 0.75912 0.92167 0.25251 0.0
H460 H 0.77304 0.96867 0.44852 0.0
H461 H 0.7718 0.95059 0.38887 0.0
C462 C 0.21351 0.8679 0.45828 0.0
C463 C 0.20386 0.87212 0.48147 0.0
C464 C 0.22368 0.8773 0.42285 0.0
C465 C 0.24666 0.91631 0.38683 0.0
H466 H 0.24394 0.90219 0.25589 0.0
C467 C 0.29307 0.94671 0.24082 0.0
C468 C 0.28805 0.95074 0.1993 0.0
C469 C 0.28264 0.93726 0.2754 0.0
C470 C 0.24478 0.90623 0.29235 0.0
H471 H 0.19746 0.88955 0.48648 0.0
H472 H 0.21563 0.90618 0.42587 0.0
H473 H 0.22616 0.88491 0.31695 0.0
H474 H 0.26819 0.94795 0.1611 0.0
H475 H 0.24982 0.9309 0.22121 0.0
H476 H 0.26552 0.93747 0.36262 0.0
C477 C 0.2151 0.8955 0.43456 0.0
C478 C 0.23472 0.89637 0.32715 0.0
C479 C 0.2047 0.88597 0.46904 0.0
C480 C 0.27236 0.94508 0.19291 0.0
C481 C 0.26188 0.9353 0.22702 0.0
C482 C 0.25693 0.92604 0.35233 0.0
C483 C 0.22461 0.89122 0.41104 0.0
C484 C 0.23554 0.90138 0.37455 0.0
C485 C 0.26697 0.93137 0.26855 0.0
C486 C 0.256 0.9211 0.3048 0.0
H487 H 0.21305 0.85727 0.46707 0.0
H488 H 0.23097 0.87383 0.40514 0.0
H489 H 0.24747 0.92038 0.42323 0.0
H490 H 0.3051 0.95095 0.24673 0.0
H491 H 0.28679 0.93434 0.30716 0.0
C492 C 0.27511 0.39601 0.4475 0.0
C493 C 0.28465 0.40872 0.47594 0.0
C494 C 0.26562 0.39691 0.41298 0.0
C495 C 0.26029 0.42423 0.3399 0.0
H496 H 0.21907 0.39033 0.32573 0.0
C497 C 0.21571 0.428 0.22148 0.0
C498 C 0.20619 0.4153 0.19299 0.0
C499 C 0.22522 0.42712 0.25593 0.0
C500 C 0.2306 0.39981 0.32885 0.0
H501 H 0.29172 0.43239 0.49017 0.0
H502 H 0.27503 0.43391 0.42997 0.0
H503 H 0.23582 0.38914 0.38618 0.0
H504 H 0.19918 0.39166 0.17857 0.0
H505 H 0.21591 0.39014 0.23866 0.0
H506 H 0.25506 0.4349 0.28258 0.0
C507 C 0.27503 0.42329 0.43415 0.0
C508 C 0.2402 0.39914 0.36352 0.0
C509 C 0.28454 0.4224 0.4688 0.0
C510 C 0.20634 0.40164 0.19999 0.0
C511 C 0.21587 0.40075 0.23457 0.0
C512 C 0.25069 0.42489 0.30523 0.0
C513 C 0.26541 0.41053 0.40598 0.0
C514 C 0.25516 0.41134 0.36944 0.0
C515 C 0.22547 0.41351 0.2628 0.0
C516 C 0.23572 0.4127 0.29932 0.0
H517 H 0.27493 0.38531 0.45187 0.0
H518 H 0.25854 0.38694 0.39139 0.0
H519 H 0.27182 0.43371 0.34302 0.0
H520 H 0.21585 0.43869 0.21721 0.0
H521 H 0.23229 0.43708 0.27756 0.0
C522 C 0.21655 0.42245 0.96871 0.0
C523 C 0.20276 0.40875 0.97558 0.0
C524 C 0.22704 0.42342 0.93418 0.0
C525 C 0.23792 0.39941 0.86351 0.0
H526 H 0.25918 0.43535 0.78351 0.0
C527 C 0.27458 0.40205 0.70046 0.0
C528 C 0.28839 0.41571 0.6933 0.0
C529 C 0.26416 0.40116 0.73512 0.0
C530 C 0.25347 0.4253 0.80592 0.0
H531 H 0.18911 0.38538 0.95105 0.0
H532 H 0.20728 0.38715 0.89076 0.0
H533 H 0.24106 0.43406 0.84354 0.0
H534 H 0.30212 0.43911 0.7174 0.0
H535 H 0.28408 0.4375 0.77794 0.0
H536 H 0.25032 0.39064 0.82589 0.0
C537 C 0.21012 0.39708 0.91249 0.0
C538 C 0.24308 0.42457 0.84035 0.0
C539 C 0.19965 0.3961 0.9469 0.0
C540 C 0.29158 0.42842 0.72179 0.0
C541 C 0.28118 0.42753 0.75635 0.0
C542 C 0.2483 0.40014 0.82908 0.0
C543 C 0.22398 0.41072 0.90583 0.0
C544 C 0.23517 0.4116 0.86953 0.0
C545 C 0.26732 0.41392 0.76334 0.0
C546 C 0.2562 0.41309 0.79985 0.0
H547 H 0.21932 0.43239 0.99026 0.0
H548 H 0.23768 0.43406 0.93028 0.0
H549 H 0.2322 0.38935 0.8859 0.0
H550 H 0.27175 0.39206 0.67906 0.0
H551 H 0.25352 0.39054 0.73923 0.0
C552 C 0.76113 0.88213 0.94331 0.0
C553 C 0.74855 0.87256 0.97228 0.0
C554 C 0.76008 0.89165 0.90923 0.0
C555 C 0.73256 0.89712 0.83792 0.0
H556 H 0.7665 0.93831 0.82345 0.0
C557 C 0.72898 0.94166 0.71802 0.0
C558 C 0.74178 0.95117 0.68977 0.0
C559 C 0.72977 0.93217 0.75286 0.0
C560 C 0.75699 0.92679 0.82664 0.0
H561 H 0.72495 0.86546 0.98781 0.0
H562 H 0.72314 0.8822 0.92826 0.0
H563 H 0.76772 0.92151 0.88361 0.0
H564 H 0.76547 0.95819 0.67622 0.0
H565 H 0.7668 0.94151 0.73686 0.0
H566 H 0.72184 0.90239 0.78082 0.0
C567 C 0.73379 0.8822 0.93177 0.0
C568 C 0.75769 0.91716 0.86117 0.0
C569 C 0.73484 0.87266 0.96603 0.0
C570 C 0.75542 0.95104 0.69743 0.0
C571 C 0.7562 0.94153 0.73236 0.0
C572 C 0.73187 0.90676 0.80335 0.0
C573 C 0.74644 0.89187 0.90317 0.0
C574 C 0.7455 0.90219 0.86712 0.0
C575 C 0.74336 0.93194 0.76038 0.0
C576 C 0.74409 0.9217 0.79722 0.0
H577 H 0.77186 0.88232 0.94697 0.0
H578 H 0.76996 0.89875 0.88728 0.0
H579 H 0.72307 0.8856 0.84111 0.0
H580 H 0.7183 0.9415 0.71324 0.0
H581 H 0.71973 0.92512 0.77427 0.0
C582 C 0.28555 0.93967 0.97548 0.0
C583 C 0.28553 0.95342 0.98187 0.0
C584 C 0.27614 0.92911 0.94097 0.0
C585 C 0.24129 0.91793 0.86993 0.0
H586 H 0.25636 0.89711 0.78962 0.0
C587 C 0.20773 0.88186 0.70598 0.0
C588 C 0.20761 0.86809 0.69835 0.0
C589 C 0.21721 0.89216 0.74087 0.0
C590 C 0.25192 0.9027 0.81213 0.0
H591 H 0.27573 0.96691 0.9565 0.0
H592 H 0.25951 0.94862 0.89636 0.0
H593 H 0.27301 0.91514 0.85014 0.0
H594 H 0.21732 0.85433 0.72172 0.0
H595 H 0.23369 0.87219 0.78273 0.0
H596 H 0.22021 0.90552 0.83199 0.0
C597 C 0.26661 0.94587 0.91841 0.0
C598 C 0.26146 0.91303 0.84683 0.0
C599 C 0.276 0.95641 0.95275 0.0
C600 C 0.21715 0.86485 0.72651 0.0
C601 C 0.22662 0.87513 0.76133 0.0
C602 C 0.23174 0.90761 0.83528 0.0
C603 C 0.26649 0.93206 0.91224 0.0
C604 C 0.25628 0.92081 0.87601 0.0
C605 C 0.2268 0.88893 0.76889 0.0
C606 C 0.23695 0.89989 0.80587 0.0
H607 H 0.29273 0.93701 0.99736 0.0
H608 H 0.27622 0.91851 0.93737 0.0
H609 H 0.23685 0.92355 0.89236 0.0
H610 H 0.20056 0.88474 0.68482 0.0
H611 H 0.2172 0.90277 0.74538 0.0
C612 C 0.40186 0.27427 0.79922 0.0
C613 C 0.41552 0.28812 0.80567 0.0
C614 C 0.40086 0.2638 0.7646 0.0
C615 C 0.41959 0.26084 0.65408 0.0
H616 H 0.39887 0.21778 0.68494 0.0
C617 C 0.42287 0.21658 0.53128 0.0
C618 C 0.40925 0.20275 0.52407 0.0
C619 C 0.42368 0.22695 0.56594 0.0
C620 C 0.40457 0.22975 0.67558 0.0
H621 H 0.43885 0.30181 0.78063 0.0
H622 H 0.43714 0.28357 0.72095 0.0
H623 H 0.3998 0.23593 0.74414 0.0
H624 H 0.38581 0.18895 0.54796 0.0
H625 H 0.38721 0.20702 0.6079 0.0
H626 H 0.42439 0.25467 0.58557 0.0
C627 C 0.42712 0.28085 0.74207 0.0
C628 C 0.40507 0.24015 0.7095 0.0
C629 C 0.42812 0.29128 0.77658 0.0
C630 C 0.39651 0.19947 0.55258 0.0
C631 C 0.39732 0.20981 0.58721 0.0
C632 C 0.41909 0.25045 0.6202 0.0
C633 C 0.4135 0.26697 0.73566 0.0
C634 C 0.41262 0.25583 0.6992 0.0
C635 C 0.41089 0.22369 0.59422 0.0
C636 C 0.41159 0.23478 0.63054 0.0
H637 H 0.39194 0.27149 0.82098 0.0
H638 H 0.39014 0.25327 0.76022 0.0
H639 H 0.42529 0.27282 0.64469 0.0
H640 H 0.4329 0.21944 0.51 0.0
H641 H 0.43436 0.23747 0.57084 0.0
C642 C 0.88338 0.20574 0.80122 0.0
C643 C 0.86944 0.20543 0.80706 0.0
C644 C 0.89398 0.21534 0.76701 0.0
C645 C 0.90471 0.25011 0.69574 0.0
H646 H 0.92647 0.23579 0.61668 0.0
C647 C 0.941 0.28413 0.53221 0.0
C648 C 0.95489 0.28447 0.52493 0.0
C649 C 0.93071 0.27459 0.56713 0.0
C650 C 0.92062 0.24003 0.63884 0.0
H651 H 0.85568 0.21484 0.78101 0.0
H652 H 0.87402 0.23135 0.7214 0.0
H653 H 0.90843 0.21889 0.67682 0.0
H654 H 0.96892 0.27516 0.54915 0.0
H655 H 0.95111 0.25873 0.61019 0.0
H656 H 0.91687 0.27124 0.6578 0.0
C657 C 0.87689 0.22439 0.74366 0.0
C658 C 0.91028 0.23034 0.67334 0.0
C659 C 0.86632 0.21482 0.77769 0.0
C660 C 0.9583 0.27515 0.55361 0.0
C661 C 0.94804 0.26564 0.58846 0.0
C662 C 0.91504 0.2598 0.66129 0.0
C663 C 0.89089 0.22484 0.73803 0.0
C664 C 0.90216 0.23524 0.70208 0.0
C665 C 0.93408 0.26518 0.59555 0.0
C666 C 0.9231 0.25488 0.63232 0.0
H667 H 0.88615 0.19868 0.82331 0.0
H668 H 0.90472 0.21551 0.76385 0.0
H669 H 0.89883 0.25433 0.71782 0.0
H670 H 0.93799 0.29113 0.51065 0.0
H671 H 0.91999 0.2744 0.57129 0.0
C672 C 0.94161 0.72845 0.7782 0.0
C673 C 0.95117 0.74118 0.80654 0.0
C674 C 0.93214 0.72934 0.74357 0.0
C675 C 0.91364 0.7514 0.70997 0.0
H676 H 0.90886 0.73204 0.58623 0.0
C677 C 0.88228 0.76071 0.55288 0.0
C678 C 0.87276 0.74811 0.52399 0.0
C679 C 0.89164 0.75964 0.58751 0.0
C680 C 0.90992 0.73734 0.62082 0.0
H681 H 0.95834 0.76489 0.82039 0.0
H682 H 0.94185 0.76647 0.75954 0.0
H683 H 0.92591 0.73095 0.64576 0.0
H684 H 0.86558 0.72446 0.50914 0.0
H685 H 0.88187 0.72256 0.57011 0.0
H686 H 0.89765 0.75779 0.68508 0.0
C687 C 0.94158 0.75574 0.76457 0.0
C688 C 0.91972 0.73674 0.65492 0.0
C689 C 0.95109 0.75486 0.79925 0.0
C690 C 0.87279 0.73438 0.53073 0.0
C691 C 0.88219 0.73332 0.56547 0.0
C692 C 0.90385 0.75199 0.6759 0.0
C693 C 0.93198 0.74298 0.73638 0.0
C694 C 0.9217 0.74378 0.69989 0.0
C695 C 0.89174 0.74596 0.59424 0.0
C696 C 0.90189 0.745 0.63087 0.0
H697 H 0.94134 0.71771 0.7829 0.0
H698 H 0.92475 0.71924 0.72295 0.0
H699 H 0.91472 0.75672 0.74454 0.0
H700 H 0.8826 0.77149 0.54859 0.0
H701 H 0.89901 0.76966 0.6085 0.0
C702 C 0.88401 0.75626 0.30004 0.0
C703 C 0.8701 0.74263 0.30625 0.0
C704 C 0.89456 0.75723 0.26573 0.0
C705 C 0.90525 0.73311 0.19492 0.0
H706 H 0.92681 0.76903 0.11502 0.0
C707 C 0.94142 0.73519 0.0314 0.0
C708 C 0.95531 0.74875 0.02399 0.0
C709 C 0.93114 0.73447 0.06625 0.0
C710 C 0.92101 0.75898 0.13741 0.0
H711 H 0.85633 0.71938 0.28075 0.0
H712 H 0.87459 0.72114 0.22095 0.0
H713 H 0.90882 0.76796 0.1752 0.0
H714 H 0.96933 0.77214 0.04786 0.0
H715 H 0.95152 0.77082 0.10877 0.0
H716 H 0.91742 0.72413 0.15716 0.0
C717 C 0.87747 0.73102 0.243 0.0
C718 C 0.91071 0.75838 0.17193 0.0
C719 C 0.86695 0.73006 0.27714 0.0
C720 C 0.95871 0.76152 0.05243 0.0
C721 C 0.94845 0.7608 0.08721 0.0
C722 C 0.91556 0.73372 0.16044 0.0
C723 C 0.89144 0.74458 0.23702 0.0
C724 C 0.90266 0.74541 0.20098 0.0
C725 C 0.93451 0.7473 0.09445 0.0
C726 C 0.92354 0.74665 0.13119 0.0
H727 H 0.88681 0.76615 0.32193 0.0
H728 H 0.90528 0.76781 0.26228 0.0
H729 H 0.89943 0.72305 0.21724 0.0
H730 H 0.93843 0.72516 0.01003 0.0
H731 H 0.92043 0.72394 0.07055 0.0
C732 C 0.40337 0.20731 0.29973 0.0
C733 C 0.41694 0.20701 0.30696 0.0
C734 C 0.40267 0.21697 0.26523 0.0
C735 C 0.42191 0.23887 0.15577 0.0
H736 H 0.40105 0.26111 0.18594 0.0
C737 C 0.42415 0.28564 0.03081 0.0
C738 C 0.41038 0.2856 0.02419 0.0
C739 C 0.4253 0.27633 0.06576 0.0
C740 C 0.4068 0.25487 0.17677 0.0
H741 H 0.44041 0.21662 0.28344 0.0
H742 H 0.4392 0.23348 0.22377 0.0
H743 H 0.40204 0.24402 0.24548 0.0
H744 H 0.38704 0.27575 0.04925 0.0
H745 H 0.38902 0.25953 0.1095 0.0
H746 H 0.42663 0.2497 0.08699 0.0
C747 C 0.42904 0.22614 0.2443 0.0
C748 C 0.40735 0.24506 0.21089 0.0
C749 C 0.42975 0.21652 0.27877 0.0
C750 C 0.39784 0.27613 0.05342 0.0
C751 C 0.399 0.26687 0.08826 0.0
C752 C 0.42136 0.24869 0.12163 0.0
C753 C 0.41551 0.22651 0.23716 0.0
C754 C 0.41488 0.23691 0.20077 0.0
C755 C 0.41272 0.26683 0.09486 0.0
C756 C 0.41375 0.25676 0.13166 0.0
H757 H 0.39329 0.20011 0.32076 0.0
H758 H 0.39202 0.21686 0.26021 0.0
H759 H 0.42764 0.23261 0.14659 0.0
H760 H 0.43403 0.29281 0.00895 0.0
H761 H 0.43609 0.27669 0.07028 0.0
C762 C 0.94092 0.29099 0.27916 0.0
C763 C 0.95035 0.28767 0.30764 0.0
C764 C 0.93133 0.28064 0.24472 0.0
C765 C 0.91222 0.23998 0.21186 0.0
H766 H 0.90789 0.25459 0.08757 0.0
C767 C 0.88086 0.19931 0.05482 0.0
C768 C 0.87155 0.20251 0.02534 0.0
C769 C 0.89017 0.2097 0.08961 0.0
C770 C 0.90881 0.25034 0.12231 0.0
H771 H 0.95713 0.27087 0.32199 0.0
H772 H 0.94041 0.2528 0.26148 0.0
H773 H 0.92504 0.27268 0.14702 0.0
H774 H 0.86466 0.21915 0.00965 0.0
H775 H 0.88087 0.2373 0.07089 0.0
H776 H 0.896 0.21765 0.18719 0.0
C777 C 0.94035 0.26337 0.26625 0.0
C778 C 0.91867 0.26071 0.15637 0.0
C779 C 0.94999 0.27376 0.30072 0.0
C780 C 0.87171 0.21635 0.0317 0.0
C781 C 0.88106 0.22678 0.0666 0.0
C782 C 0.90236 0.22962 0.17783 0.0
C783 C 0.93089 0.26669 0.23788 0.0
C784 C 0.92051 0.25565 0.20152 0.0
C785 C 0.89042 0.22357 0.09591 0.0
C786 C 0.90057 0.23467 0.13259 0.0
H787 H 0.94087 0.30157 0.28358 0.0
H788 H 0.92405 0.28347 0.22397 0.0
H789 H 0.91317 0.23574 0.24657 0.0
H790 H 0.88108 0.18879 0.05086 0.0
H791 H 0.89739 0.20696 0.11103 0.0
C792 C 0.11982 0.6999 0.30571 0.0
C793 C 0.10501 0.68827 0.31737 0.0
C794 C 0.12647 0.71384 0.32968 0.0
C795 C 0.1415 0.7386 0.40361 0.0
H796 H 0.11784 0.75756 0.43927 0.0
C797 C 0.1659 0.79053 0.52818 0.0
C798 C 0.16257 0.80217 0.51863 0.0
C799 C 0.15858 0.77681 0.50308 0.0
C800 C 0.12464 0.75249 0.42912 0.0
H801 H 0.08557 0.6822 0.36357 0.0
H802 H 0.09736 0.7065 0.40642 0.0
H803 H 0.10557 0.73328 0.39646 0.0
H804 H 0.1489 0.8085 0.47499 0.0
H805 H 0.13629 0.78454 0.43019 0.0
H806 H 0.16064 0.7579 0.43489 0.0
C807 C 0.10372 0.70489 0.37804 0.0
C808 C 0.11755 0.73846 0.40518 0.0
C809 C 0.09701 0.69092 0.35376 0.0
C810 C 0.15173 0.79976 0.48317 0.0
C811 C 0.14443 0.78599 0.45776 0.0
C812 C 0.14857 0.7526 0.42725 0.0
C813 C 0.11855 0.71651 0.36629 0.0
C814 C 0.12591 0.73135 0.39217 0.0
C815 C 0.1478 0.77436 0.46742 0.0
C816 C 0.14023 0.7597 0.4406 0.0
H817 H 0.12628 0.69833 0.27755 0.0
H818 H 0.13778 0.7226 0.319 0.0
H819 H 0.14826 0.73339 0.39473 0.0
H820 H 0.17407 0.79191 0.55554 0.0
H821 H 0.16125 0.76802 0.5122 0.0
C822 C 0.46192 0.50224 0.3315 0.0
C823 C 0.47029 0.4948 0.32426 0.0
C824 C 0.44789 0.49489 0.35512 0.0
C825 C 0.42299 0.46115 0.43137 0.0
H826 H 0.39188 0.47006 0.38831 0.0
C827 C 0.35976 0.42782 0.49405 0.0
C828 C 0.35436 0.43713 0.51265 0.0
C829 C 0.37373 0.43428 0.46985 0.0
C830 C 0.40048 0.46749 0.40069 0.0
H831 H 0.47064 0.47387 0.33644 0.0
H832 H 0.44586 0.46076 0.37616 0.0
H833 H 0.41667 0.48231 0.34906 0.0
H834 H 0.35912 0.46043 0.51941 0.0
H835 H 0.38328 0.47163 0.47594 0.0
H836 H 0.40643 0.44597 0.48221 0.0
C837 C 0.45027 0.47244 0.36478 0.0
C838 C 0.41475 0.4746 0.37853 0.0
C839 C 0.46447 0.47992 0.34186 0.0
C840 C 0.363 0.45297 0.50554 0.0
C841 C 0.37679 0.45938 0.48056 0.0
C842 C 0.40859 0.45385 0.45299 0.0
C843 C 0.44171 0.47978 0.37128 0.0
C844 C 0.4263 0.47171 0.39398 0.0
C845 C 0.38236 0.45012 0.46297 0.0
C846 C 0.39728 0.4571 0.43821 0.0
H847 H 0.46619 0.51378 0.31877 0.0
H848 H 0.4419 0.50111 0.36059 0.0
H849 H 0.4316 0.45876 0.44476 0.0
H850 H 0.35338 0.41559 0.49924 0.0
H851 H 0.37778 0.42691 0.45638 0.0
C852 C 0.73019 0.01067 0.4906 0.0
C853 C 0.72088 0.99586 0.50855 0.0
C854 C 0.72373 0.01821 0.46657 0.0
C855 C 0.69058 0.01176 0.39712 0.0
H856 H 0.69887 0.05131 0.44294 0.0
C857 C 0.6552 0.03798 0.33062 0.0
C858 C 0.66248 0.05381 0.32369 0.0
C859 C 0.66271 0.0314 0.35368 0.0
C860 C 0.69661 0.0404 0.42907 0.0
H861 H 0.69761 0.97717 0.51431 0.0
H862 H 0.68643 0.99017 0.47119 0.0
H863 H 0.71185 0.03901 0.47954 0.0
H864 H 0.6833 0.0752 0.33594 0.0
H865 H 0.69668 0.0637 0.37477 0.0
H866 H 0.67568 0.01314 0.34592 0.0
C867 C 0.69867 0.99599 0.47616 0.0
C868 C 0.70402 0.03335 0.45019 0.0
C869 C 0.70507 0.98859 0.50094 0.0
C870 C 0.67736 0.06297 0.34112 0.0
C871 C 0.68501 0.05635 0.36351 0.0
C872 C 0.68336 0.01889 0.37549 0.0
C873 C 0.70791 0.01093 0.45923 0.0
C874 C 0.70091 0.01888 0.4348 0.0
C875 C 0.67784 0.04044 0.3696 0.0
C876 C 0.68608 0.0332 0.39162 0.0
H877 H 0.7424 0.01658 0.4962 0.0
H878 H 0.73109 0.0297 0.45363 0.0
H879 H 0.68812 1.00067 0.38426 0.0
H880 H 0.64366 0.03063 0.31803 0.0
H881 H 0.65662 0.01917 0.35889 0.0
C882 C 0.69927 0.11938 0.19254 0.0
C883 C 0.68779 0.10432 0.18312 0.0
C884 C 0.71304 0.12592 0.1676 0.0
C885 C 0.73736 0.14024 0.09191 0.0
H886 H 0.75713 0.1169 0.0624 0.0
C887 C 0.7902 0.16435 0.97045 0.0
C888 C 0.80189 0.16133 0.98245 0.0
C889 C 0.77626 0.15705 0.99449 0.0
C890 C 0.75183 0.12361 0.07076 0.0
H891 H 0.68179 0.08432 0.13988 0.0
H892 H 0.70583 0.09591 0.09539 0.0
H893 H 0.73282 0.10476 0.10512 0.0
H894 H 0.80811 0.14825 0.02938 0.0
H895 H 0.78381 0.13571 0.07231 0.0
H896 H 0.75649 0.1592 0.05908 0.0
C897 C 0.70422 0.10256 0.12273 0.0
C898 C 0.73778 0.11659 0.09465 0.0
C899 C 0.69041 0.09595 0.14796 0.0
C900 C 0.79933 0.15083 0.01928 0.0
C901 C 0.78536 0.14356 0.04361 0.0
C902 C 0.75139 0.14726 0.06831 0.0
C903 C 0.7157 0.11764 0.13226 0.0
C904 C 0.73041 0.12485 0.10565 0.0
C905 C 0.77365 0.14659 0.03148 0.0
C906 C 0.7588 0.13905 0.05733 0.0
H907 H 0.69772 0.12614 0.21966 0.0
H908 H 0.72171 0.13745 0.17659 0.0
H909 H 0.73193 0.14691 0.0992 0.0
H910 H 0.79171 0.17226 0.94197 0.0
H911 H 0.76743 0.15946 0.98354 0.0
C912 C 0.0068 0.72756 0.01927 0.0
C913 C 0.99575 0.71922 0.98425 0.0
C914 C 0.01407 0.72095 0.04405 0.0
C915 C 0.03367 0.70695 0.07118 0.0
H916 H 0.00985 0.66428 0.10615 0.0
C917 C 0.0611 0.67279 0.146 0.0
C918 C 0.05315 0.66226 0.18273 0.0
C919 C 0.0544 0.68004 0.12168 0.0
C920 C 0.01667 0.67624 0.09708 0.0
H921 H 0.98382 0.69744 0.94749 0.0
H922 H 0.99659 0.68612 0.98976 0.0
H923 H 0.99751 0.67656 0.06664 0.0
H924 H 0.03198 0.65124 0.22308 0.0
H925 H 0.02049 0.66401 0.18159 0.0
H926 H 0.05275 0.70666 0.10308 0.0
C927 C 0.99946 0.69763 0.999 0.0
C928 C 0.00962 0.68325 0.07381 0.0
C929 C 0.99217 0.70417 0.97453 0.0
C930 C 0.03839 0.65918 0.19466 0.0
C931 C 0.03176 0.66647 0.17066 0.0
C932 C 0.04073 0.69993 0.09476 0.0
C933 C 0.01046 0.70588 0.03418 0.0
C934 C 0.01802 0.69867 0.06033 0.0
C935 C 0.03962 0.67695 0.13375 0.0
C936 C 0.0323 0.68448 0.108 0.0
H937 H 0.00983 0.73918 0.02757 0.0
H938 H 0.02238 0.72757 0.07129 0.0
H939 H 0.04052 0.7188 0.06088 0.0
H940 H 0.07249 0.67542 0.13597 0.0
H941 H 0.06071 0.68793 0.09306 0.0
C942 C 0.43044 0.35776 0.01846 0.0
C943 C 0.43856 0.35521 0.98223 0.0
C944 C 0.43705 0.37168 0.04294 0.0
C945 C 0.45065 0.40521 0.07008 0.0
H946 H 0.49363 0.42476 0.1015 0.0
C947 C 0.4844 0.46654 0.1478 0.0
C948 C 0.49514 0.46903 0.18367 0.0
C949 C 0.4772 0.45273 0.12259 0.0
C950 C 0.48158 0.41943 0.09338 0.0
H951 H 0.45993 0.36537 0.94301 0.0
H952 H 0.47128 0.38957 0.98488 0.0
H953 H 0.48148 0.40027 0.06116 0.0
H954 H 0.50656 0.45886 0.22163 0.0
H955 H 0.4939 0.43489 0.17861 0.0
H956 H 0.45073 0.42425 0.1038 0.0
C957 C 0.45994 0.38077 0.99522 0.0
C958 C 0.47465 0.40544 0.06965 0.0
C959 C 0.45339 0.36687 0.971 0.0
C960 C 0.49846 0.45742 0.19391 0.0
C961 C 0.49124 0.44366 0.16902 0.0
C962 C 0.4576 0.41922 0.0941 0.0
C963 C 0.45189 0.38335 0.03159 0.0
C964 C 0.4591 0.39815 0.0576 0.0
C965 C 0.48057 0.44114 0.13288 0.0
C966 C 0.47315 0.42647 0.10616 0.0
H967 H 0.41898 0.349 0.02795 0.0
H968 H 0.4306 0.37323 0.07115 0.0
H969 H 0.4387 0.39999 0.06088 0.0
H970 H 0.48158 0.47525 0.13908 0.0
H971 H 0.46915 0.45122 0.09464 0.0
C972 C 0.99227 0.36599 0.4737 0.0
C973 C 0.99568 0.35444 0.48396 0.0
C974 C 0.99958 0.37984 0.4981 0.0
C975 C 0.03353 0.40457 0.57163 0.0
H976 H 0.00974 0.4236 0.6047 0.0
C977 C 0.03798 0.45717 0.69396 0.0
C978 C 0.05281 0.46881 0.68258 0.0
C979 C 0.0314 0.44324 0.66997 0.0
C980 C 0.01655 0.41841 0.59617 0.0
H981 H 0.00948 0.34841 0.52811 0.0
H982 H 0.02206 0.37259 0.57174 0.0
H983 H 0.99748 0.399 0.56509 0.0
H984 H 0.07235 0.47491 0.63681 0.0
H985 H 0.06067 0.45062 0.59392 0.0
H986 H 0.05252 0.42387 0.60418 0.0
C987 C 0.01387 0.37097 0.54412 0.0
C988 C 0.00955 0.40436 0.57284 0.0
C989 C 0.00659 0.35708 0.51939 0.0
C990 C 0.0609 0.46619 0.64641 0.0
C991 C 0.05425 0.45222 0.62211 0.0
C992 C 0.04054 0.41864 0.59528 0.0
C993 C 0.01042 0.38251 0.53379 0.0
C994 C 0.01794 0.39728 0.56002 0.0
C995 C 0.0394 0.44058 0.63362 0.0
C996 C 0.03213 0.42573 0.60784 0.0
H997 H 0.98404 0.36443 0.4463 0.0
H998 H 0.99684 0.38854 0.48846 0.0
H999 H 0.04037 0.39951 0.56188 0.0
H1000 H 0.03146 0.45872 0.72194 0.0
H1001 H 0.02007 0.43446 0.68047 0.0
C1002 C 0.69167 0.67229 0.64859 0.0
C1003 C 0.68912 0.6617 0.68506 0.0
C1004 C 0.70559 0.67956 0.62398 0.0
C1005 C 0.73942 0.67579 0.59759 0.0
H1006 H 0.75812 0.71848 0.56301 0.0
C1007 C 0.80049 0.72745 0.51983 0.0
C1008 C 0.80312 0.71934 0.48378 0.0
C1009 C 0.78667 0.72068 0.545 0.0
C1010 C 0.75313 0.70659 0.57283 0.0
H1011 H 0.69928 0.65056 0.72456 0.0
H1012 H 0.72348 0.66333 0.68245 0.0
H1013 H 0.73384 0.70621 0.6058 0.0
H1014 H 0.79322 0.69778 0.44574 0.0
H1015 H 0.7692 0.68616 0.48883 0.0
H1016 H 0.75882 0.67621 0.56593 0.0
C1017 C 0.71467 0.66584 0.67203 0.0
C1018 C 0.7391 0.6995 0.59677 0.0
C1019 C 0.70078 0.65855 0.69638 0.0
C1020 C 0.79165 0.70434 0.47352 0.0
C1021 C 0.77786 0.69762 0.49845 0.0
C1022 C 0.75344 0.68287 0.57389 0.0
C1023 C 0.71726 0.67641 0.63545 0.0
C1024 C 0.73208 0.684 0.60943 0.0
C1025 C 0.77519 0.70567 0.53456 0.0
C1026 C 0.76045 0.69834 0.56101 0.0
H1027 H 0.68292 0.67497 0.639 0.0
H1028 H 0.70713 0.6875 0.5956 0.0
H1029 H 0.73428 0.6638 0.60624 0.0
H1030 H 0.80909 0.73902 0.52861 0.0
H1031 H 0.78505 0.72715 0.57297 0.0
C1032 C 0.42941 0.15053 0.51961 0.0
C1033 C 0.43787 0.16153 0.48456 0.0
C1034 C 0.43592 0.14324 0.54488 0.0
C1035 C 0.44983 0.12364 0.57333 0.0
H1036 H 0.49239 0.14753 0.60947 0.0
C1037 C 0.48397 0.09637 0.64975 0.0
C1038 C 0.49443 0.10434 0.68659 0.0
C1039 C 0.47669 0.10303 0.62527 0.0
C1040 C 0.48046 0.14069 0.60009 0.0
H1041 H 0.45974 0.17335 0.44819 0.0
H1042 H 0.47089 0.16056 0.49134 0.0
H1043 H 0.48021 0.1598 0.56894 0.0
H1044 H 0.50526 0.12547 0.72704 0.0
H1045 H 0.49245 0.13687 0.68523 0.0
H1046 H 0.45005 0.10459 0.60585 0.0
C1047 C 0.45937 0.15774 0.50022 0.0
C1048 C 0.47351 0.1477 0.57624 0.0
C1049 C 0.45292 0.16504 0.47524 0.0
C1050 C 0.49738 0.11905 0.69854 0.0
C1051 C 0.49007 0.12564 0.67436 0.0
C1052 C 0.45679 0.11661 0.59747 0.0
C1053 C 0.451 0.1468 0.5355 0.0
C1054 C 0.45814 0.13927 0.5623 0.0
C1055 C 0.47969 0.11776 0.63727 0.0
C1056 C 0.4722 0.12506 0.61112 0.0
H1057 H 0.41779 0.14756 0.52761 0.0
H1058 H 0.4292 0.13497 0.57216 0.0
H1059 H 0.43801 0.11677 0.56272 0.0
H1060 H 0.48143 0.08502 0.6397 0.0
H1061 H 0.46888 0.09671 0.59653 0.0
C1062 C 0.35762 0.00538 0.98624 0.0
C1063 C 0.35512 0.99479 0.02267 0.0
C1064 C 0.3715 0.01261 0.96141 0.0
C1065 C 0.40527 0.00876 0.93452 0.0
H1066 H 0.42411 0.0515 0.90053 0.0
C1067 C 0.46651 0.06044 0.85812 0.0
C1068 C 0.46919 0.05238 0.82206 0.0
C1069 C 0.45264 0.05366 0.88299 0.0
C1070 C 0.41906 0.0396 0.91018 0.0
H1071 H 0.3653 0.98361 0.06187 0.0
H1072 H 0.38943 0.99634 0.01943 0.0
H1073 H 0.39979 0.03924 0.94312 0.0
H1074 H 0.45935 0.03089 0.78368 0.0
H1075 H 0.43523 0.01923 0.82624 0.0
H1076 H 0.42467 0.00916 0.90297 0.0
C1077 C 0.38062 0.99886 0.00919 0.0
C1078 C 0.40502 0.03251 0.93399 0.0
C1079 C 0.36677 0.9916 0.03374 0.0
C1080 C 0.45773 0.0374 0.81149 0.0
C1081 C 0.44389 0.03067 0.83611 0.0
C1082 C 0.4193 0.01584 0.91097 0.0
C1083 C 0.38317 0.00943 0.97264 0.0
C1084 C 0.39796 0.017 0.94649 0.0
C1085 C 0.44116 0.03868 0.87221 0.0
C1086 C 0.42637 0.03133 0.89834 0.0
H1087 H 0.34887 0.00808 0.97685 0.0
H1088 H 0.37303 0.02056 0.93308 0.0
H1089 H 0.40009 0.99676 0.94303 0.0
H1090 H 0.4751 0.072 0.86712 0.0
H1091 H 0.45097 0.06008 0.91098 0.0
C1092 C 0.11928 0.49796 0.80699 0.0
C1093 C 0.10441 0.49468 0.81812 0.0
C1094 C 0.12587 0.49063 0.83106 0.0
C1095 C 0.14063 0.48063 0.90505 0.0
H1096 H 0.11691 0.43779 0.9381 0.0
C1097 C 0.16482 0.45228 0.02705 0.0
C1098 C 0.16151 0.43739 0.01628 0.0
C1099 C 0.15753 0.45886 0.00276 0.0
C1100 C 0.12372 0.44972 0.9287 0.0
H1101 H 0.08481 0.48113 0.86354 0.0
H1102 H 0.09649 0.46855 0.90656 0.0
H1103 H 0.10475 0.45002 0.89595 0.0
H1104 H 0.1479 0.41771 0.97135 0.0
H1105 H 0.13536 0.42937 0.92792 0.0
H1106 H 0.15969 0.48031 0.93634 0.0
C1107 C 0.10295 0.47662 0.87851 0.0
C1108 C 0.1167 0.45678 0.90515 0.0
C1109 C 0.09629 0.48392 0.85414 0.0
C1110 C 0.15072 0.42921 0.98045 0.0
C1111 C 0.14345 0.43585 0.95584 0.0
C1112 C 0.14765 0.47357 0.9283 0.0
C1113 C 0.11783 0.47991 0.86723 0.0
C1114 C 0.12509 0.47233 0.89302 0.0
C1115 C 0.1468 0.45078 0.96671 0.0
C1116 C 0.13928 0.45805 0.94064 0.0
H1117 H 0.12583 0.50608 0.77914 0.0
H1118 H 0.13723 0.49325 0.82075 0.0
H1119 H 0.14742 0.49266 0.89685 0.0
H1120 H 0.17296 0.45888 0.05476 0.0
H1121 H 0.16018 0.47025 0.01278 0.0
C1122 C 0.65942 0.69898 0.80826 0.0
C1123 C 0.66281 0.6875 0.81974 0.0
C1124 C 0.6666 0.71293 0.83216 0.0
C1125 C 0.70039 0.73794 0.90574 0.0
H1126 H 0.67673 0.75734 0.93591 0.0
C1127 C 0.70501 0.79107 0.02511 0.0
C1128 C 0.7199 0.80258 0.01379 0.0
C1129 C 0.69834 0.77709 0.00136 0.0
C1130 C 0.6835 0.75205 0.92815 0.0
H1131 H 0.67639 0.68166 0.86565 0.0
H1132 H 0.68875 0.70599 0.90832 0.0
H1133 H 0.66443 0.73253 0.89743 0.0
H1134 H 0.73944 0.80846 0.9683 0.0
H1135 H 0.72763 0.78408 0.92591 0.0
H1136 H 0.71937 0.75734 0.93789 0.0
C1137 C 0.68069 0.70425 0.88015 0.0
C1138 C 0.67647 0.73788 0.9055 0.0
C1139 C 0.67352 0.69027 0.85597 0.0
C1140 C 0.72795 0.79982 0.97785 0.0
C1141 C 0.72122 0.78581 0.95384 0.0
C1142 C 0.70742 0.75213 0.92867 0.0
C1143 C 0.67731 0.71575 0.86846 0.0
C1144 C 0.68482 0.73066 0.89382 0.0
C1145 C 0.70633 0.77428 0.96538 0.0
C1146 C 0.69905 0.75934 0.94018 0.0
H1147 H 0.65132 0.6973 0.78026 0.0
H1148 H 0.66392 0.7216 0.82156 0.0
H1149 H 0.70719 0.73278 0.89681 0.0
H1150 H 0.69851 0.79274 0.05287 0.0
H1151 H 0.68697 0.7684 0.01183 0.0
C1152 C 0.76262 0.0237 0.68544 0.0
C1153 C 0.77103 0.02104 0.65052 0.0
C1154 C 0.76921 0.03753 0.7105 0.0
C1155 C 0.78327 0.07113 0.73795 0.0
H1156 H 0.82585 0.0898 0.77383 0.0
C1157 C 0.81757 0.13278 0.812 0.0
C1158 C 0.82804 0.13538 0.84893 0.0
C1159 C 0.81029 0.11878 0.78798 0.0
C1160 C 0.81391 0.08471 0.76452 0.0
H1161 H 0.7929 0.03091 0.61424 0.0
H1162 H 0.80419 0.05492 0.657 0.0
H1163 H 0.81354 0.06518 0.73433 0.0
H1164 H 0.83889 0.12522 0.88994 0.0
H1165 H 0.82606 0.10088 0.84893 0.0
H1166 H 0.7836 0.09055 0.76955 0.0
C1167 C 0.79264 0.04627 0.66594 0.0
C1168 C 0.80689 0.07065 0.74126 0.0
C1169 C 0.78612 0.03249 0.64119 0.0
C1170 C 0.83101 0.12368 0.86135 0.0
C1171 C 0.82369 0.10971 0.83763 0.0
C1172 C 0.79029 0.08521 0.76152 0.0
C1173 C 0.78432 0.04897 0.70102 0.0
C1174 C 0.79151 0.0637 0.7274 0.0
C1175 C 0.81327 0.10707 0.80054 0.0
C1176 C 0.80572 0.09218 0.77504 0.0
H1177 H 0.75097 0.01511 0.69345 0.0
H1178 H 0.76253 0.03918 0.73765 0.0
H1179 H 0.77145 0.06617 0.72737 0.0
H1180 H 0.81502 0.14156 0.8016 0.0
H1181 H 0.80246 0.11719 0.75919 0.0
C1182 C 0.13172 0.81243 0.67666 0.0
C1183 C 0.13763 0.82742 0.65997 0.0
C1184 C 0.1174 0.80481 0.69883 0.0
C1185 C 0.08183 0.80688 0.7111 0.0
H1186 H 0.07291 0.77788 0.81404 0.0
C1187 C 0.02965 0.78525 0.83584 0.0
C1188 C 0.02094 0.76942 0.84301 0.0
C1189 C 0.04349 0.79159 0.81121 0.0
C1190 C 0.07524 0.78585 0.78499 0.0
H1191 H 0.1336 0.84645 0.65541 0.0
H1192 H 0.10908 0.83353 0.69588 0.0
H1193 H 0.09828 0.79076 0.77785 0.0
H1194 H 0.01987 0.74782 0.83003 0.0
H1195 H 0.04436 0.75903 0.7877 0.0
H1196 H 0.05892 0.80236 0.71975 0.0
C1197 C 0.1151 0.82735 0.69027 0.0
C1198 C 0.08975 0.79321 0.76412 0.0
C1199 C 0.12925 0.83484 0.66743 0.0
C1200 C 0.02631 0.76004 0.82476 0.0
C1201 C 0.04033 0.76644 0.80088 0.0
C1202 C 0.06744 0.79972 0.73248 0.0
C1203 C 0.10881 0.81212 0.70541 0.0
C1204 C 0.09328 0.80393 0.7271 0.0
C1205 C 0.04904 0.78227 0.794 0.0
C1206 C 0.06404 0.78921 0.76977 0.0
H1207 H 0.13789 0.80639 0.67106 0.0
H1208 H 0.11291 0.79306 0.70951 0.0
H1209 H 0.08393 0.81472 0.68185 0.0
H1210 H 0.02579 0.79276 0.84945 0.0
H1211 H 0.05004 0.80384 0.80661 0.0
C1212 C 0.34021 0.39484 0.6881 0.0
C1213 C 0.32917 0.38656 0.65299 0.0
C1214 C 0.34746 0.38817 0.71268 0.0
C1215 C 0.36705 0.3741 0.73912 0.0
H1216 H 0.34321 0.33136 0.77334 0.0
C1217 C 0.3945 0.33974 0.8118 0.0
C1218 C 0.3866 0.32914 0.84841 0.0
C1219 C 0.38777 0.34705 0.78798 0.0
C1220 C 0.35004 0.34334 0.76449 0.0
H1221 H 0.31724 0.36485 0.61585 0.0
H1222 H 0.32998 0.35344 0.65777 0.0
H1223 H 0.33087 0.34375 0.73452 0.0
H1224 H 0.36549 0.31804 0.88905 0.0
H1225 H 0.35395 0.3309 0.8484 0.0
H1226 H 0.38615 0.37372 0.77053 0.0
C1227 C 0.33285 0.36493 0.66725 0.0
C1228 C 0.34298 0.35042 0.74162 0.0
C1229 C 0.32558 0.37153 0.64297 0.0
C1230 C 0.37187 0.32603 0.8607 0.0
C1231 C 0.3652 0.33337 0.8372 0.0
C1232 C 0.37412 0.36702 0.76231 0.0
C1233 C 0.34385 0.37312 0.70251 0.0
C1234 C 0.3514 0.36586 0.72839 0.0
C1235 C 0.37302 0.34394 0.80044 0.0
C1236 C 0.36568 0.35154 0.77524 0.0
H1237 H 0.34324 0.40644 0.69662 0.0
H1238 H 0.35577 0.39475 0.73999 0.0
H1239 H 0.37391 0.38597 0.72901 0.0
H1240 H 0.40588 0.34239 0.8015 0.0
H1241 H 0.39405 0.35499 0.75945 0.0
C1242 C 0.02578 0.34353 0.32413 0.0
C1243 C 0.02025 0.32875 0.34233 0.0
C1244 C 0.03973 0.35097 0.29978 0.0
C1245 C 0.06623 0.34436 0.22978 0.0
H1246 H 0.09769 0.38386 0.27525 0.0
C1247 C 0.12772 0.37061 0.16123 0.0
C1248 C 0.13629 0.38645 0.15471 0.0
C1249 C 0.11365 0.36399 0.18458 0.0
C1250 C 0.08899 0.37297 0.26146 0.0
H1251 H 0.02474 0.31001 0.34817 0.0
H1252 H 0.04885 0.32285 0.30445 0.0
H1253 H 0.07249 0.37163 0.31244 0.0
H1254 H 0.13694 0.40783 0.16784 0.0
H1255 H 0.1121 0.39627 0.20708 0.0
H1256 H 0.08238 0.3457 0.17803 0.0
C1257 C 0.04248 0.32872 0.30949 0.0
C1258 C 0.07457 0.36596 0.28293 0.0
C1259 C 0.02872 0.32141 0.33461 0.0
C1260 C 0.13062 0.39559 0.17271 0.0
C1261 C 0.11639 0.38893 0.19536 0.0
C1262 C 0.08053 0.35145 0.20777 0.0
C1263 C 0.0482 0.34363 0.29235 0.0
C1264 C 0.06314 0.35151 0.26765 0.0
C1265 C 0.10763 0.37301 0.20119 0.0
C1266 C 0.0922 0.36576 0.22372 0.0
H1267 H 0.01954 0.34949 0.3298 0.0
H1268 H 0.0439 0.36245 0.28667 0.0
H1269 H 0.05753 0.33328 0.21703 0.0
H1270 H 0.13187 0.36328 0.14816 0.0
H1271 H 0.1075 0.35175 0.18952 0.0
C1272 C 0.81828 0.76332 0.31109 0.0
C1273 C 0.82899 0.77138 0.34725 0.0
C1274 C 0.81113 0.77006 0.28637 0.0
C1275 C 0.81539 0.80781 0.25908 0.0
H1276 H 0.77252 0.78423 0.22641 0.0
C1277 C 0.76397 0.81797 0.18434 0.0
C1278 C 0.77203 0.82866 0.14809 0.0
C1279 C 0.77069 0.81077 0.2089 0.0
C1280 C 0.78447 0.791 0.23568 0.0
H1281 H 0.84046 0.79281 0.38604 0.0
H1282 H 0.82789 0.80437 0.34377 0.0
H1283 H 0.78465 0.77202 0.26874 0.0
H1284 H 0.79343 0.84008 0.10901 0.0
H1285 H 0.80496 0.82742 0.15105 0.0
H1286 H 0.81517 0.82688 0.22741 0.0
C1287 C 0.8252 0.79298 0.33368 0.0
C1288 C 0.79148 0.78395 0.25935 0.0
C1289 C 0.83237 0.78629 0.35813 0.0
C1290 C 0.78692 0.83199 0.13699 0.0
C1291 C 0.79358 0.82477 0.16131 0.0
C1292 C 0.80839 0.81485 0.23566 0.0
C1293 C 0.81452 0.78498 0.29742 0.0
C1294 C 0.80703 0.79229 0.27139 0.0
C1295 C 0.78558 0.81409 0.19763 0.0
C1296 C 0.79286 0.80655 0.22352 0.0
H1297 H 0.81542 0.75181 0.30184 0.0
H1298 H 0.80309 0.76363 0.25827 0.0
H1299 H 0.82743 0.81455 0.26723 0.0
H1300 H 0.75248 0.81515 0.19375 0.0
H1301 H 0.76427 0.80274 0.23707 0.0
C1302 C 0.34396 0.02607 0.17786 0.0
C1303 C 0.32927 0.02051 0.15887 0.0
C1304 C 0.35141 0.0402 0.20105 0.0
C1305 C 0.34474 0.06726 0.2672 0.0
H1306 H 0.38485 0.09809 0.22371 0.0
C1307 C 0.37167 0.12879 0.33523 0.0
C1308 C 0.38746 0.13701 0.34312 0.0
C1309 C 0.36497 0.11478 0.31159 0.0
C1310 C 0.37377 0.08956 0.23692 0.0
H1311 H 0.31072 0.02516 0.15025 0.0
H1312 H 0.32358 0.04963 0.19198 0.0
H1313 H 0.37247 0.07281 0.18714 0.0
H1314 H 0.40868 0.13712 0.33203 0.0
H1315 H 0.39694 0.11236 0.29233 0.0
H1316 H 0.34604 0.08363 0.31788 0.0
C1317 C 0.32937 0.04313 0.18844 0.0
C1318 C 0.36667 0.0751 0.21579 0.0
C1319 C 0.32204 0.02917 0.16447 0.0
C1320 C 0.39648 0.13107 0.3261 0.0
C1321 C 0.38973 0.11689 0.30318 0.0
C1322 C 0.35191 0.08159 0.28888 0.0
C1323 C 0.34417 0.04885 0.20649 0.0
C1324 C 0.35203 0.06389 0.23042 0.0
C1325 C 0.37384 0.10846 0.29611 0.0
C1326 C 0.36645 0.09303 0.27367 0.0
H1327 H 0.34984 0.01968 0.17382 0.0
H1328 H 0.3628 0.04435 0.21492 0.0
H1329 H 0.33351 0.05873 0.27946 0.0
H1330 H 0.36445 0.13316 0.3475 0.0
H1331 H 0.35278 0.1089 0.30565 0.0
loop_
_geom_bond_atom_site_label_1
_geom_bond_atom_site_label_2
_geom_bond_distance
_geom_bond_site_symmetry_2
_ccdc_geom_bond_type
C0 O2 1.247 . S
C0 O4 1.258 . S
C1 O8 1.247 . S
C1 O9 1.258 . S
O2 C0 1.247 . S
O2 Zn3 2.028 . S
Zn3 O2 2.028 . S
Zn3 O7 2.035 . S
Zn3 O9 2.035 . S
Zn3 O10 2.028 . S
O4 C0 1.258 . S
O4 Zn5 2.035 . S
Zn5 O4 2.035 . S
Zn5 O6 2.028 . S
Zn5 O8 2.028 . S
Zn5 O11 2.035 . S
O6 Zn5 2.028 . S
O6 C12 1.247 . S
O7 Zn3 2.035 . S
O7 C12 1.258 . S
O8 C1 1.247 . S
O8 Zn5 2.028 . S
O9 C1 1.258 . S
O9 Zn3 2.035 . S
O10 Zn3 2.028 . S
O10 C13 1.247 . S
O11 Zn5 2.035 . S
O11 C13 1.258 . S
C12 O6 1.247 . S
C12 O7 1.258 . S
C13 O10 1.247 . S
C13 O11 1.258 . S
C14 O16 1.247 . S
C14 O18 1.258 . S
C15 O22 1.247 . S
C15 O23 1.258 . S
O16 C14 1.247 . S
O16 Zn17 2.028 . S
Zn17 O16 2.028 . S
Zn17 O21 2.035 . S
Zn17 O23 2.035 . S
Zn17 O24 2.028 . S
O18 C14 1.258 . S
O18 Zn19 2.035 . S
Zn19 O18 2.035 . S
Zn19 O20 2.028 . S
Zn19 O22 2.028 . S
Zn19 O25 2.035 . S
O20 Zn19 2.028 . S
O20 C26 1.247 . S
O21 Zn17 2.035 . S
O21 C26 1.258 . S
O22 C15 1.247 . S
O22 Zn19 2.028 . S
O23 C15 1.258 . S
O23 Zn17 2.035 . S
O24 Zn17 2.028 . S
O24 C27 1.247 . S
O25 Zn19 2.035 . S
O25 C27 1.258 . S
C26 O20 1.247 . S
C26 O21 1.258 . S
C27 O24 1.247 . S
C27 O25 1.258 . S
C28 O30 1.247 . S
C28 O32 1.258 . S
C29 O36 1.247 . S
C29 O37 1.258 . S
O30 C28 1.247 . S
O30 Zn31 2.028 . S
Zn31 O30 2.028 . S
Zn31 O35 2.035 . S
Zn31 O37 2.035 . S
Zn31 O38 2.028 . S
O32 C28 1.258 . S
O32 Zn33 2.035 . S
Zn33 O32 2.035 . S
Zn33 O34 2.028 . S
Zn33 O36 2.028 . S
Zn33 O39 2.035 . S
O34 Zn33 2.028 . S
O34 C40 1.247 . S
O35 Zn31 2.035 . S
O35 C40 1.258 . S
O36 C29 1.247 . S
O36 Zn33 2.028 . S
O37 C29 1.258 . S
O37 Zn31 2.035 . S
O38 Zn31 2.028 . S
O38 C41 1.247 . S
O39 Zn33 2.035 . S
O39 C41 1.258 . S
C40 O34 1.247 . S
C40 O35 1.258 . S
C41 O38 1.247 . S
C41 O39 1.258 . S
C42 O44 1.247 . S
C42 O46 1.258 . S
C43 O50 1.247 . S
C43 O51 1.258 . S
O44 C42 1.247 . S
O44 Zn45 2.028 . S
Zn45 O44 2.028 . S
Zn45 O49 2.035 . S
Zn45 O51 2.035 . S
Zn45 O52 2.028 . S
O46 C42 1.258 . S
O46 Zn47 2.035 . S
Zn47 O46 2.035 . S
Zn47 O48 2.028 . S
Zn47 O50 2.028 . S
Zn47 O53 2.035 . S
O48 Zn47 2.028 . S
O48 C54 1.247 . S
O49 Zn45 2.035 . S
O49 C54 1.258 . S
O50 C43 1.247 . S
O50 Zn47 2.028 . S
O51 C43 1.258 . S
O51 Zn45 2.035 . S
O52 Zn45 2.028 . S
O52 C55 1.247 . S
O53 Zn47 2.035 . S
O53 C55 1.258 . S
C54 O48 1.247 . S
C54 O49 1.258 . S
C55 O52 1.247 . S
C55 O53 1.258 . S
C56 O58 1.247 . S
C56 O60 1.258 . S
C57 O64 1.247 . S
C57 O65 1.258 . S
O58 C56 1.247 . S
O58 Zn59 2.028 . S
Zn59 O58 2.028 . S
Zn59 O63 2.035 . S
Zn59 O65 2.035 . S
Zn59 O66 2.028 . S
O60 C56 1.258 . S
O60 Zn61 2.035 . S
Zn61 O60 2.035 . S
Zn61 O62 2.028 . S
Zn61 O64 2.028 . S
Zn61 O67 2.035 . S
O62 Zn61 2.028 . S
O62 C68 1.247 . S
O63 Zn59 2.035 . S
O63 C68 1.258 . S
O64 C57 1.247 . S
O64 Zn61 2.028 . S
O65 C57 1.258 . S
O65 Zn59 2.035 . S
O66 Zn59 2.028 . S
O66 C69 1.247 . S
O67 Zn61 2.035 . S
O67 C69 1.258 . S
C68 O62 1.247 . S
C68 O63 1.258 . S
C69 O66 1.247 . S
C69 O67 1.258 . S
C70 O72 1.247 . S
C70 O74 1.258 . S
C71 O78 1.247 . S
C71 O79 1.258 . S
O72 C70 1.247 . S
O72 Zn73 2.028 . S
Zn73 O72 2.028 . S
Zn73 O77 2.035 . S
Zn73 O79 2.035 . S
Zn73 O80 2.028 . S
O74 C70 1.258 . S
O74 Zn75 2.035 . S
Zn75 O74 2.035 . S
Zn75 O76 2.028 . S
Zn75 O78 2.028 . S
Zn75 O81 2.035 . S
O76 Zn75 2.028 . S
O76 C82 1.247 . S
O77 Zn73 2.035 . S
O77 C82 1.258 . S
O78 C71 1.247 . S
O78 Zn75 2.028 . S
O79 C71 1.258 . S
O79 Zn73 2.035 . S
O80 Zn73 2.028 . S
O80 C83 1.247 . S
O81 Zn75 2.035 . S
O81 C83 1.258 . S
C82 O76 1.247 . S
C82 O77 1.258 . S
C83 O80 1.247 . S
C83 O81 1.258 . S
C84 O86 1.247 . S
C84 O88 1.258 . S
C85 O92 1.247 . S
C85 O93 1.258 . S
O86 C84 1.247 . S
O86 Zn87 2.028 . S
Zn87 O86 2.028 . S
Zn87 O91 2.035 . S
Zn87 O93 2.035 . S
Zn87 O94 2.028 . S
O88 C84 1.258 . S
O88 Zn89 2.035 . S
Zn89 O88 2.035 . S
Zn89 O90 2.028 1_565 S
Zn89 O92 2.028 . S
Zn89 O95 2.035 . S
O90 Zn89 2.028 1_545 S
O90 C96 1.247 . S
O91 Zn87 2.035 . S
O91 C96 1.258 1_565 S
O92 C85 1.247 . S
O92 Zn89 2.028 . S
O93 C85 1.258 . S
O93 Zn87 2.035 . S
O94 Zn87 2.028 . S
O94 C97 1.247 . S
O95 Zn89 2.035 . S
O95 C97 1.258 . S
C96 O90 1.247 . S
C96 O91 1.258 1_545 S
C97 O94 1.247 . S
C97 O95 1.258 . S
C98 O100 1.247 . S
C98 O102 1.258 . S
C99 O106 1.247 . S
C99 O107 1.258 . S
O100 C98 1.247 . S
O100 Zn101 2.028 . S
Zn101 O100 2.028 . S
Zn101 O105 2.035 . S
Zn101 O107 2.035 . S
Zn101 O108 2.028 . S
O102 C98 1.258 . S
O102 Zn103 2.035 . S
Zn103 O102 2.035 . S
Zn103 O104 2.028 . S
Zn103 O106 2.028 . S
Zn103 O109 2.035 . S
O104 Zn103 2.028 . S
O104 C110 1.247 . S
O105 Zn101 2.035 . S
O105 C110 1.258 . S
O106 C99 1.247 . S
O106 Zn103 2.028 . S
O107 C99 1.258 . S
O107 Zn101 2.035 . S
O108 Zn101 2.028 . S
O108 C111 1.247 . S
O109 Zn103 2.035 . S
O109 C111 1.258 . S
C110 O104 1.247 . S
C110 O105 1.258 . S
C111 O108 1.247 . S
C111 O109 1.258 . S
C112 O114 1.247 . S
C112 O116 1.258 . S
C113 O120 1.247 . S
C113 O121 1.258 . S
O114 C112 1.247 . S
O114 Zn115 2.028 . S
Zn115 O114 2.028 . S
Zn115 O119 2.035 . S
Zn115 O121 2.035 . S
Zn115 O122 2.028 . S
O116 C112 1.258 . S
O116 Zn117 2.035 . S
Zn117 O116 2.035 . S
Zn117 O118 2.028 . S
Zn117 O120 2.028 . S
Zn117 O123 2.035 . S
O118 Zn117 2.028 . S
O118 C124 1.247 . S
O119 Zn115 2.035 . S
O119 C124 1.258 . S
O120 C113 1.247 . S
O120 Zn117 2.028 . S
O121 C113 1.258 . S
O121 Zn115 2.035 . S
O122 Zn115 2.028 . S
O122 C125 1.247 . S
O123 Zn117 2.035 . S
O123 C125 1.258 . S
C124 O118 1.247 . S
C124 O119 1.258 . S
C125 O122 1.247 . S
C125 O123 1.258 . S
C126 O128 1.247 . S
C126 O130 1.258 . S
C127 O134 1.247 . S
C127 O135 1.258 . S
O128 C126 1.247 . S
O128 Zn129 2.028 . S
Zn129 O128 2.028 . S
Zn129 O133 2.035 . S
Zn129 O135 2.035 . S
Zn129 O136 2.028 . S
O130 C126 1.258 . S
O130 Zn131 2.035 . S
Zn131 O130 2.035 . S
Zn131 O132 2.028 . S
Zn131 O134 2.028 . S
Zn131 O137 2.035 . S
O132 Zn131 2.028 . S
O132 C138 1.247 . S
O133 Zn129 2.035 . S
O133 C138 1.258 . S
O134 C127 1.247 . S
O134 Zn131 2.028 . S
O135 C127 1.258 . S
O135 Zn129 2.035 . S
O136 Zn129 2.028 . S
O136 C139 1.247 . S
O137 Zn131 2.035 . S
O137 C139 1.258 . S
C138 O132 1.247 . S
C138 O133 1.258 . S
C139 O136 1.247 . S
C139 O137 1.258 . S
C140 O142 1.247 1_545 S
C140 O144 1.258 . S
C141 O148 1.247 . S
C141 O149 1.258 . S
O142 C140 1.247 1_565 S
O142 Zn143 2.028 . S
Zn143 O142 2.028 . S
Zn143 O147 2.035 . S
Zn143 O149 2.035 . S
Zn143 O150 2.028 . S
O144 C140 1.258 . S
O144 Zn145 2.035 1_545 S
Zn145 O144 2.035 1_565 S
Zn145 O146 2.028 . S
Zn145 O148 2.028 . S
Zn145 O151 2.035 . S
O146 Zn145 2.028 . S
O146 C152 1.247 . S
O147 Zn143 2.035 . S
O147 C152 1.258 . S
O148 C141 1.247 . S
O148 Zn145 2.028 . S
O149 C141 1.258 . S
O149 Zn143 2.035 . S
O150 Zn143 2.028 . S
O150 C153 1.247 . S
O151 Zn145 2.035 . S
O151 C153 1.258 . S
C152 O146 1.247 . S
C152 O147 1.258 . S
C153 O150 1.247 . S
C153 O151 1.258 . S
C154 O156 1.247 . S
C154 O158 1.258 . S
C155 O162 1.247 . S
C155 O163 1.258 . S
O156 C154 1.247 . S
O156 Zn157 2.028 . S
Zn157 O156 2.028 . S
Zn157 O161 2.035 . S
Zn157 O163 2.035 . S
Zn157 O164 2.028 . S
O158 C154 1.258 . S
O158 Zn159 2.035 . S
Zn159 O158 2.035 . S
Zn159 O160 2.028 . S
Zn159 O162 2.028 . S
Zn159 O165 2.035 . S
O160 Zn159 2.028 . S
O160 C166 1.247 . S
O161 Zn157 2.035 . S
O161 C166 1.258 . S
O162 C155 1.247 . S
O162 Zn159 2.028 . S
O163 C155 1.258 . S
O163 Zn157 2.035 . S
O164 Zn157 2.028 . S
O164 C167 1.247 . S
O165 Zn159 2.035 . S
O165 C167 1.258 . S
C166 O160 1.247 . S
C166 O161 1.258 . S
C167 O164 1.247 . S
C167 O165 1.258 . S
C168 O170 1.247 . S
C168 O172 1.258 . S
C169 O176 1.247 . S
C169 O177 1.258 . S
O170 C168 1.247 . S
O170 Zn171 2.028 . S
Zn171 O170 2.028 . S
Zn171 O175 2.035 . S
Zn171 O177 2.035 . S
Zn171 O178 2.028 . S
O172 C168 1.258 . S
O172 Zn173 2.035 . S
Zn173 O172 2.035 . S
Zn173 O174 2.028 . S
Zn173 O176 2.028 . S
Zn173 O179 2.035 . S
O174 Zn173 2.028 . S
O174 C180 1.247 . S
O175 Zn171 2.035 . S
O175 C180 1.258 . S
O176 C169 1.247 . S
O176 Zn173 2.028 . S
O177 C169 1.258 . S
O177 Zn171 2.035 . S
O178 Zn171 2.028 . S
O178 C181 1.247 . S
O179 Zn173 2.035 . S
O179 C181 1.258 . S
C180 O174 1.247 . S
C180 O175 1.258 . S
C181 O178 1.247 . S
C181 O179 1.258 . S
C182 O184 1.247 . S
C182 O186 1.258 . S
C183 O190 1.247 . S
C183 O191 1.258 . S
O184 C182 1.247 . S
O184 Zn185 2.028 . S
Zn185 O184 2.028 . S
Zn185 O189 2.035 . S
Zn185 O191 2.035 . S
Zn185 O192 2.028 . S
O186 C182 1.258 . S
O186 Zn187 2.035 . S
Zn187 O186 2.035 . S
Zn187 O188 2.028 . S
Zn187 O190 2.028 . S
Zn187 O193 2.035 . S
O188 Zn187 2.028 . S
O188 C194 1.247 . S
O189 Zn185 2.035 . S
O189 C194 1.258 . S
O190 C183 1.247 . S
O190 Zn187 2.028 . S
O191 C183 1.258 . S
O191 Zn185 2.035 . S
O192 Zn185 2.028 . S
O192 C195 1.247 . S
O193 Zn187 2.035 . S
O193 C195 1.258 . S
C194 O188 1.247 . S
C194 O189 1.258 . S
C195 O192 1.247 . S
C195 O193 1.258 . S
C196 O198 1.247 . S
C196 O200 1.258 . S
C197 O204 1.247 . S
C197 O205 1.258 . S
O198 C196 1.247 . S
O198 Zn199 2.028 . S
Zn199 O198 2.028 . S
Zn199 O203 2.035 . S
Zn199 O205 2.035 . S
Zn199 O206 2.028 . S
O200 C196 1.258 . S
O200 Zn201 2.035 . S
Zn201 O200 2.035 . S
Zn201 O202 2.028 . S
Zn201 O204 2.028 . S
Zn201 O207 2.035 1_655 S
O202 Zn201 2.028 . S
O202 C208 1.247 . S
O203 Zn199 2.035 . S
O203 C208 1.258 . S
O204 C197 1.247 . S
O204 Zn201 2.028 . S
O205 C197 1.258 . S
O205 Zn199 2.035 . S
O206 Zn199 2.028 . S
O206 C209 1.247 1_655 S
O207 Zn201 2.035 1_455 S
O207 C209 1.258 . S
C208 O202 1.247 . S
C208 O203 1.258 . S
C209 O206 1.247 1_455 S
C209 O207 1.258 . S
C210 O212 1.247 . S
C210 O214 1.258 . S
C211 O218 1.247 . S
C211 O219 1.258 . S
O212 C210 1.247 . S
O212 Zn213 2.028 . S
Zn213 O212 2.028 . S
Zn213 O217 2.035 . S
Zn213 O219 2.035 . S
Zn213 O220 2.028 . S
O214 C210 1.258 . S
O214 Zn215 2.035 . S
Zn215 O214 2.035 . S
Zn215 O216 2.028 . S
Zn215 O218 2.028 . S
Zn215 O221 2.035 . S
O216 Zn215 2.028 . S
O216 C222 1.247 . S
O217 Zn213 2.035 . S
O217 C222 1.258 . S
O218 C211 1.247 . S
O218 Zn215 2.028 . S
O219 C211 1.258 . S
O219 Zn213 2.035 . S
O220 Zn213 2.028 . S
O220 C223 1.247 . S
O221 Zn215 2.035 . S
O221 C223 1.258 . S
C222 O216 1.247 . S
C222 O217 1.258 . S
C223 O220 1.247 . S
C223 O221 1.258 . S
C224 O226 1.247 . S
C224 O228 1.258 . S
C225 O232 1.247 . S
C225 O233 1.258 . S
O226 C224 1.247 . S
O226 Zn227 2.028 . S
Zn227 O226 2.028 . S
Zn227 O231 2.035 . S
Zn227 O233 2.035 . S
Zn227 O234 2.028 1_655 S
O228 C224 1.258 . S
O228 Zn229 2.035 . S
Zn229 O228 2.035 . S
Zn229 O230 2.028 . S
Zn229 O232 2.028 . S
Zn229 O235 2.035 . S
O230 Zn229 2.028 . S
O230 C236 1.247 . S
O231 Zn227 2.035 . S
O231 C236 1.258 . S
O232 C225 1.247 . S
O232 Zn229 2.028 . S
O233 C225 1.258 . S
O233 Zn227 2.035 . S
O234 Zn227 2.028 1_455 S
O234 C237 1.247 . S
O235 Zn229 2.035 . S
O235 C237 1.258 1_655 S
C236 O230 1.247 . S
C236 O231 1.258 . S
C237 O234 1.247 . S
C237 O235 1.258 1_455 S
C238 O240 1.247 . S
C238 O242 1.258 . S
C239 O246 1.247 . S
C239 O247 1.258 . S
O240 C238 1.247 . S
O240 Zn241 2.028 . S
Zn241 O240 2.028 . S
Zn241 O245 2.035 . S
Zn241 O247 2.035 . S
Zn241 O248 2.028 . S
O242 C238 1.258 . S
O242 Zn243 2.035 . S
Zn243 O242 2.035 . S
Zn243 O244 2.028 . S
Zn243 O246 2.028 . S
Zn243 O249 2.035 . S
O244 Zn243 2.028 . S
O244 C250 1.247 . S
O245 Zn241 2.035 . S
O245 C250 1.258 . S
O246 C239 1.247 . S
O246 Zn243 2.028 . S
O247 C239 1.258 . S
O247 Zn241 2.035 . S
O248 Zn241 2.028 . S
O248 C251 1.247 . S
O249 Zn243 2.035 . S
O249 C251 1.258 . S
C250 O244 1.247 . S
C250 O245 1.258 . S
C251 O248 1.247 . S
C251 O249 1.258 . S
C252 C253 1.349 . S
C252 C254 1.327 . S
C252 H277 0.950 . S
C253 C252 1.349 . S
C253 C269 1.349 . S
C254 C252 1.327 . S
C254 C273 1.429 . S
C254 H278 0.950 . S
C255 C272 1.574 . S
C255 C274 1.368 1_554 S
C255 H279 0.949 . S
H256 C260 0.949 . S
C257 C258 1.349 . S
C257 C259 1.327 . S
C257 H280 0.950 . S
C258 C257 1.349 . S
C258 C270 1.349 . S
C259 C257 1.327 . S
C259 C275 1.429 . S
C259 H281 0.950 . S
C260 H256 0.949 . S
C260 C268 1.574 . S
C260 C276 1.368 1_556 S
H261 C269 0.950 . S
H262 C267 0.950 . S
H263 C268 0.949 . S
H264 C270 0.950 . S
H265 C271 0.950 . S
H266 C272 0.949 . S
C267 H262 0.950 . S
C267 C269 1.327 . S
C267 C273 1.429 . S
C268 C260 1.574 . S
C268 H263 0.949 . S
C268 C274 1.368 . S
C269 C253 1.349 . S
C269 H261 0.950 . S
C269 C267 1.327 . S
C270 C258 1.349 . S
C270 H264 0.950 . S
C270 C271 1.327 . S
C271 H265 0.950 . S
C271 C270 1.327 . S
C271 C275 1.429 . S
C272 C255 1.574 . S
C272 H266 0.949 . S
C272 C276 1.368 . S
C273 C254 1.429 . S
C273 C267 1.429 . S
C273 C274 1.523 . S
C274 C255 1.368 1_556 S
C274 C268 1.368 . S
C274 C273 1.523 . S
C275 C259 1.429 . S
C275 C271 1.429 . S
C275 C276 1.523 . S
C276 C260 1.368 1_554 S
C276 C272 1.368 . S
C276 C275 1.523 . S
H277 C252 0.950 . S
H278 C254 0.950 . S
H279 C255 0.949 . S
H280 C257 0.950 . S
H281 C259 0.950 . S
C282 C283 1.349 . S
C282 C284 1.327 . S
C282 H307 0.950 . S
C283 C282 1.349 . S
C283 C299 1.349 . S
C284 C282 1.327 . S
C284 C303 1.429 . S
C284 H308 0.950 . S
C285 C302 1.586 . S
C285 C304 1.368 . S
C285 H309 0.949 . S
H286 C290 0.949 . S
C287 C288 1.349 . S
C287 C289 1.327 . S
C287 H310 0.950 . S
C288 C287 1.349 . S
C288 C300 1.349 . S
C289 C287 1.327 . S
C289 C305 1.429 . S
C289 H311 0.950 . S
C290 H286 0.949 . S
C290 C298 1.586 . S
C290 C306 1.368 . S
H291 C299 0.950 . S
H292 C297 0.950 . S
H293 C298 0.949 . S
H294 C300 0.950 . S
H295 C301 0.950 . S
H296 C302 0.949 . S
C297 H292 0.950 . S
C297 C299 1.327 . S
C297 C303 1.429 . S
C298 C290 1.586 . S
C298 H293 0.949 . S
C298 C304 1.356 1_554 S
C299 C283 1.349 . S
C299 H291 0.950 . S
C299 C297 1.327 . S
C300 C288 1.349 . S
C300 H294 0.950 . S
C300 C301 1.327 . S
C301 H295 0.950 . S
C301 C300 1.327 . S
C301 C305 1.429 . S
C302 C285 1.586 . S
C302 H296 0.949 . S
C302 C306 1.356 1_556 S
C303 C284 1.429 . S
C303 C297 1.429 . S
C303 C304 1.523 . S
C304 C285 1.368 . S
C304 C298 1.356 1_556 S
C304 C303 1.523 . S
C305 C289 1.429 . S
C305 C301 1.429 . S
C305 C306 1.523 . S
C306 C290 1.368 . S
C306 C302 1.356 1_554 S
C306 C305 1.523 . S
H307 C282 0.950 . S
H308 C284 0.950 . S
H309 C285 0.949 . S
H310 C287 0.950 . S
H311 C289 0.950 . S
C312 C313 1.349 . S
C312 C314 1.327 . S
C312 H337 0.950 . S
C313 C312 1.349 . S
C313 C329 1.349 . S
C314 C312 1.327 . S
C314 C333 1.429 . S
C314 H338 0.950 . S
C315 C332 1.568 1_554 S
C315 C334 1.368 . S
C315 H339 0.949 . S
H316 C320 0.949 . S
C317 C318 1.349 . S
C317 C319 1.327 . S
C317 H340 0.950 . S
C318 C317 1.349 . S
C318 C330 1.349 . S
C319 C317 1.327 . S
C319 C335 1.429 . S
C319 H341 0.950 . S
C320 H316 0.949 . S
C320 C328 1.570 1_556 S
C320 C336 1.368 . S
H321 C329 0.950 . S
H322 C327 0.950 . S
H323 C328 0.949 . S
H324 C330 0.950 . S
H325 C331 0.950 . S
H326 C332 0.949 . S
C327 H322 0.950 . S
C327 C329 1.327 . S
C327 C333 1.429 . S
C328 C320 1.570 1_554 S
C328 H323 0.949 . S
C328 C334 1.372 . S
C329 C313 1.349 . S
C329 H321 0.950 . S
C329 C327 1.327 . S
C330 C318 1.349 . S
C330 H324 0.950 . S
C330 C331 1.327 . S
C331 H325 0.950 . S
C331 C330 1.327 . S
C331 C335 1.429 . S
C332 C315 1.568 1_556 S
C332 H326 0.949 . S
C332 C336 1.373 . S
C333 C314 1.429 . S
C333 C327 1.429 . S
C333 C334 1.523 . S
C334 C315 1.368 . S
C334 C328 1.372 . S
C334 C333 1.523 . S
C335 C319 1.429 . S
C335 C331 1.429 . S
C335 C336 1.523 . S
C336 C320 1.368 . S
C336 C332 1.373 . S
C336 C335 1.523 . S
H337 C312 0.950 . S
H338 C314 0.950 . S
H339 C315 0.949 . S
H340 C317 0.950 . S
H341 C319 0.950 . S
C342 C343 1.349 . S
C342 C344 1.327 . S
C342 H367 0.950 . S
C343 C342 1.349 . S
C343 C359 1.349 . S
C344 C342 1.327 . S
C344 C363 1.429 . S
C344 H368 0.950 . S
C345 C362 1.574 . S
C345 C364 1.368 . S
C345 H369 0.949 . S
H346 C350 0.949 . S
C347 C348 1.349 . S
C347 C349 1.327 . S
C347 H370 0.950 . S
C348 C347 1.349 . S
C348 C360 1.349 . S
C349 C347 1.327 . S
C349 C365 1.429 . S
C349 H371 0.950 . S
C350 H346 0.949 . S
C350 C358 1.574 . S
C350 C366 1.368 . S
H351 C359 0.950 . S
H352 C357 0.950 . S
H353 C358 0.949 . S
H354 C360 0.950 . S
H355 C361 0.950 . S
H356 C362 0.949 . S
C357 H352 0.950 . S
C357 C359 1.327 . S
C357 C363 1.429 . S
C358 C350 1.574 . S
C358 H353 0.949 . S
C358 C364 1.368 . S
C359 C343 1.349 . S
C359 H351 0.950 . S
C359 C357 1.327 . S
C360 C348 1.349 . S
C360 H354 0.950 . S
C360 C361 1.327 . S
C361 H355 0.950 . S
C361 C360 1.327 . S
C361 C365 1.429 . S
C362 C345 1.574 . S
C362 H356 0.949 . S
C362 C366 1.368 . S
C363 C344 1.429 . S
C363 C357 1.429 . S
C363 C364 1.523 . S
C364 C345 1.368 . S
C364 C358 1.368 . S
C364 C363 1.523 . S
C365 C349 1.429 . S
C365 C361 1.429 . S
C365 C366 1.523 . S
C366 C350 1.368 . S
C366 C362 1.368 . S
C366 C365 1.523 . S
H367 C342 0.950 . S
H368 C344 0.950 . S
H369 C345 0.949 . S
H370 C347 0.950 . S
H371 C349 0.950 . S
C372 C373 1.349 . S
C372 C374 1.327 . S
C372 H397 0.950 . S
C373 C372 1.349 . S
C373 C389 1.349 . S
C374 C372 1.327 . S
C374 C393 1.429 . S
C374 H398 0.950 . S
C375 C392 1.574 . S
C375 C394 1.368 . S
C375 H399 0.949 . S
H376 C380 0.949 . S
C377 C378 1.349 . S
C377 C379 1.327 . S
C377 H400 0.950 . S
C378 C377 1.349 . S
C378 C390 1.349 . S
C379 C377 1.327 . S
C379 C395 1.429 . S
C379 H401 0.950 . S
C380 H376 0.949 . S
C380 C388 1.574 . S
C380 C396 1.368 . S
H381 C389 0.950 . S
H382 C387 0.950 . S
H383 C388 0.949 . S
H384 C390 0.950 . S
H385 C391 0.950 . S
H386 C392 0.949 . S
C387 H382 0.950 . S
C387 C389 1.327 . S
C387 C393 1.429 . S
C388 C380 1.574 . S
C388 H383 0.949 . S
C388 C394 1.368 . S
C389 C373 1.349 . S
C389 H381 0.950 . S
C389 C387 1.327 . S
C390 C378 1.349 . S
C390 H384 0.950 . S
C390 C391 1.327 . S
C391 H385 0.950 . S
C391 C390 1.327 . S
C391 C395 1.429 . S
C392 C375 1.574 . S
C392 H386 0.949 . S
C392 C396 1.368 . S
C393 C374 1.429 . S
C393 C387 1.429 . S
C393 C394 1.523 . S
C394 C375 1.368 . S
C394 C388 1.368 . S
C394 C393 1.523 . S
C395 C379 1.429 . S
C395 C391 1.429 . S
C395 C396 1.523 . S
C396 C380 1.368 . S
C396 C392 1.368 . S
C396 C395 1.523 . S
H397 C372 0.950 . S
H398 C374 0.950 . S
H399 C375 0.949 . S
H400 C377 0.950 . S
H401 C379 0.950 . S
C402 C403 1.349 . S
C402 C404 1.327 . S
C402 H427 0.950 . S
C403 C402 1.349 . S
C403 C419 1.349 . S
C404 C402 1.327 . S
C404 C423 1.429 . S
C404 H428 0.950 . S
C405 C422 1.574 . S
C405 C424 1.368 . S
C405 H429 0.949 . S
H406 C410 0.949 . S
C407 C408 1.349 . S
C407 C409 1.327 . S
C407 H430 0.950 . S
C408 C407 1.349 . S
C408 C420 1.349 . S
C409 C407 1.327 . S
C409 C425 1.429 . S
C409 H431 0.950 . S
C410 H406 0.949 . S
C410 C418 1.574 . S
C410 C426 1.368 . S
H411 C419 0.950 . S
H412 C417 0.950 . S
H413 C418 0.949 . S
H414 C420 0.950 . S
H415 C421 0.950 . S
H416 C422 0.949 . S
C417 H412 0.950 . S
C417 C419 1.327 . S
C417 C423 1.429 . S
C418 C410 1.574 . S
C418 H413 0.949 . S
C418 C424 1.368 . S
C419 C403 1.349 . S
C419 H411 0.950 . S
C419 C417 1.327 . S
C420 C408 1.349 . S
C420 H414 0.950 . S
C420 C421 1.327 . S
C421 H415 0.950 . S
C421 C420 1.327 . S
C421 C425 1.429 . S
C422 C405 1.574 . S
C422 H416 0.949 . S
C422 C426 1.368 . S
C423 C404 1.429 . S
C423 C417 1.429 . S
C423 C424 1.523 . S
C424 C405 1.368 . S
C424 C418 1.368 . S
C424 C423 1.523 . S
C425 C409 1.429 . S
C425 C421 1.429 . S
C425 C426 1.523 . S
C426 C410 1.368 . S
C426 C422 1.368 . S
C426 C425 1.523 . S
H427 C402 0.950 . S
H428 C404 0.950 . S
H429 C405 0.949 . S
H430 C407 0.950 . S
H431 C409 0.950 . S
C432 C433 1.349 . S
C432 C434 1.327 . S
C432 H457 0.950 . S
C433 C432 1.349 . S
C433 C449 1.349 . S
C434 C432 1.327 . S
C434 C453 1.429 . S
C434 H458 0.950 . S
C435 C452 1.574 . S
C435 C454 1.368 . S
C435 H459 0.949 . S
H436 C440 0.949 . S
C437 C438 1.349 . S
C437 C439 1.327 . S
C437 H460 0.950 . S
C438 C437 1.349 . S
C438 C450 1.349 . S
C439 C437 1.327 . S
C439 C455 1.429 . S
C439 H461 0.950 . S
C440 H436 0.949 . S
C440 C448 1.574 . S
C440 C456 1.368 . S
H441 C449 0.950 . S
H442 C447 0.950 . S
H443 C448 0.949 . S
H444 C450 0.950 . S
H445 C451 0.950 . S
H446 C452 0.949 . S
C447 H442 0.950 . S
C447 C449 1.327 . S
C447 C453 1.429 . S
C448 C440 1.574 . S
C448 H443 0.949 . S
C448 C454 1.368 . S
C449 C433 1.349 . S
C449 H441 0.950 . S
C449 C447 1.327 . S
C450 C438 1.349 . S
C450 H444 0.950 . S
C450 C451 1.327 . S
C451 H445 0.950 . S
C451 C450 1.327 . S
C451 C455 1.429 . S
C452 C435 1.574 . S
C452 H446 0.949 . S
C452 C456 1.368 . S
C453 C434 1.429 . S
C453 C447 1.429 . S
C453 C454 1.523 . S
C454 C435 1.368 . S
C454 C448 1.368 . S
C454 C453 1.523 . S
C455 C439 1.429 . S
C455 C451 1.429 . S
C455 C456 1.523 . S
C456 C440 1.368 . S
C456 C452 1.368 . S
C456 C455 1.523 . S
H457 C432 0.950 . S
H458 C434 0.950 . S
H459 C435 0.949 . S
H460 C437 0.950 . S
H461 C439 0.950 . S
C462 C463 1.349 . S
C462 C464 1.327 . S
C462 H487 0.950 . S
C463 C462 1.349 . S
C463 C479 1.349 . S
C464 C462 1.327 . S
C464 C483 1.429 . S
C464 H488 0.950 . S
C465 C482 1.574 . S
C465 C484 1.368 . S
C465 H489 0.949 . S
H466 C470 0.949 . S
C467 C468 1.349 . S
C467 C469 1.327 . S
C467 H490 0.950 . S
C468 C467 1.349 . S
C468 C480 1.349 . S
C469 C467 1.327 . S
C469 C485 1.429 . S
C469 H491 0.950 . S
C470 H466 0.949 . S
C470 C478 1.574 . S
C470 C486 1.368 . S
H471 C479 0.950 . S
H472 C477 0.950 . S
H473 C478 0.949 . S
H474 C480 0.950 . S
H475 C481 0.950 . S
H476 C482 0.949 . S
C477 H472 0.950 . S
C477 C479 1.327 . S
C477 C483 1.429 . S
C478 C470 1.574 . S
C478 H473 0.949 . S
C478 C484 1.368 . S
C479 C463 1.349 . S
C479 H471 0.950 . S
C479 C477 1.327 . S
C480 C468 1.349 . S
C480 H474 0.950 . S
C480 C481 1.327 . S
C481 H475 0.950 . S
C481 C480 1.327 . S
C481 C485 1.429 . S
C482 C465 1.574 . S
C482 H476 0.949 . S
C482 C486 1.368 . S
C483 C464 1.429 . S
C483 C477 1.429 . S
C483 C484 1.523 . S
C484 C465 1.368 . S
C484 C478 1.368 . S
C484 C483 1.523 . S
C485 C469 1.429 . S
C485 C481 1.429 . S
C485 C486 1.523 . S
C486 C470 1.368 . S
C486 C482 1.368 . S
C486 C485 1.523 . S
H487 C462 0.950 . S
H488 C464 0.950 . S
H489 C465 0.949 . S
H490 C467 0.950 . S
H491 C469 0.950 . S
C492 C493 1.349 . S
C492 C494 1.327 . S
C492 H517 0.950 . S
C493 C492 1.349 . S
C493 C509 1.349 . S
C494 C492 1.327 . S
C494 C513 1.429 . S
C494 H518 0.950 . S
C495 C512 1.574 . S
C495 C514 1.368 . S
C495 H519 0.949 . S
H496 C500 0.949 . S
C497 C498 1.349 . S
C497 C499 1.327 . S
C497 H520 0.950 . S
C498 C497 1.349 . S
C498 C510 1.349 . S
C499 C497 1.327 . S
C499 C515 1.429 . S
C499 H521 0.950 . S
C500 H496 0.949 . S
C500 C508 1.574 . S
C500 C516 1.368 . S
H501 C509 0.950 . S
H502 C507 0.950 . S
H503 C508 0.949 . S
H504 C510 0.950 . S
H505 C511 0.950 . S
H506 C512 0.949 . S
C507 H502 0.950 . S
C507 C509 1.327 . S
C507 C513 1.429 . S
C508 C500 1.574 . S
C508 H503 0.949 . S
C508 C514 1.368 . S
C509 C493 1.349 . S
C509 H501 0.950 . S
C509 C507 1.327 . S
C510 C498 1.349 . S
C510 H504 0.950 . S
C510 C511 1.327 . S
C511 H505 0.950 . S
C511 C510 1.327 . S
C511 C515 1.429 . S
C512 C495 1.574 . S
C512 H506 0.949 . S
C512 C516 1.368 . S
C513 C494 1.429 . S
C513 C507 1.429 . S
C513 C514 1.523 . S
C514 C495 1.368 . S
C514 C508 1.368 . S
C514 C513 1.523 . S
C515 C499 1.429 . S
C515 C511 1.429 . S
C515 C516 1.523 . S
C516 C500 1.368 . S
C516 C512 1.368 . S
C516 C515 1.523 . S
H517 C492 0.950 . S
H518 C494 0.950 . S
H519 C495 0.949 . S
H520 C497 0.950 . S
H521 C499 0.950 . S
C522 C523 1.349 . S
C522 C524 1.327 . S
C522 H547 0.950 . S
C523 C522 1.349 . S
C523 C539 1.349 . S
C524 C522 1.327 . S
C524 C543 1.429 . S
C524 H548 0.950 . S
C525 C542 1.574 . S
C525 C544 1.368 . S
C525 H549 0.949 . S
H526 C530 0.949 . S
C527 C528 1.349 . S
C527 C529 1.327 . S
C527 H550 0.950 . S
C528 C527 1.349 . S
C528 C540 1.349 . S
C529 C527 1.327 . S
C529 C545 1.429 . S
C529 H551 0.950 . S
C530 H526 0.949 . S
C530 C538 1.574 . S
C530 C546 1.368 . S
H531 C539 0.950 . S
H532 C537 0.950 . S
H533 C538 0.949 . S
H534 C540 0.950 . S
H535 C541 0.950 . S
H536 C542 0.949 . S
C537 H532 0.950 . S
C537 C539 1.327 . S
C537 C543 1.429 . S
C538 C530 1.574 . S
C538 H533 0.949 . S
C538 C544 1.368 . S
C539 C523 1.349 . S
C539 H531 0.950 . S
C539 C537 1.327 . S
C540 C528 1.349 . S
C540 H534 0.950 . S
C540 C541 1.327 . S
C541 H535 0.950 . S
C541 C540 1.327 . S
C541 C545 1.429 . S
C542 C525 1.574 . S
C542 H536 0.949 . S
C542 C546 1.368 . S
C543 C524 1.429 . S
C543 C537 1.429 . S
C543 C544 1.523 . S
C544 C525 1.368 . S
C544 C538 1.368 . S
C544 C543 1.523 . S
C545 C529 1.429 . S
C545 C541 1.429 . S
C545 C546 1.523 . S
C546 C530 1.368 . S
C546 C542 1.368 . S
C546 C545 1.523 . S
H547 C522 0.950 . S
H548 C524 0.950 . S
H549 C525 0.949 . S
H550 C527 0.950 . S
H551 C529 0.950 . S
C552 C553 1.349 . S
C552 C554 1.327 . S
C552 H577 0.950 1_556 S
C553 C552 1.349 . S
C553 C569 1.349 . S
C554 C552 1.327 . S
C554 C573 1.429 . S
C554 H578 0.950 . S
C555 C572 1.574 . S
C555 C574 1.368 . S
C555 H579 0.949 . S
H556 C560 0.949 . S
C557 C558 1.349 . S
C557 C559 1.327 . S
C557 H580 0.950 . S
C558 C557 1.349 . S
C558 C570 1.349 . S
C559 C557 1.327 . S
C559 C575 1.429 . S
C559 H581 0.950 . S
C560 H556 0.949 . S
C560 C568 1.574 . S
C560 C576 1.368 . S
H561 C569 0.950 . S
H562 C567 0.950 . S
H563 C568 0.949 . S
H564 C570 0.950 . S
H565 C571 0.950 . S
H566 C572 0.949 . S
C567 H562 0.950 . S
C567 C569 1.327 . S
C567 C573 1.429 . S
C568 C560 1.574 . S
C568 H563 0.949 . S
C568 C574 1.368 . S
C569 C553 1.349 . S
C569 H561 0.950 . S
C569 C567 1.327 . S
C570 C558 1.349 . S
C570 H564 0.950 . S
C570 C571 1.327 . S
C571 H565 0.950 . S
C571 C570 1.327 . S
C571 C575 1.429 . S
C572 C555 1.574 . S
C572 H566 0.949 . S
C572 C576 1.368 . S
C573 C554 1.429 . S
C573 C567 1.429 . S
C573 C574 1.523 . S
C574 C555 1.368 . S
C574 C568 1.368 . S
C574 C573 1.523 . S
C575 C559 1.429 . S
C575 C571 1.429 . S
C575 C576 1.523 . S
C576 C560 1.368 . S
C576 C572 1.368 . S
C576 C575 1.523 . S
H577 C552 0.950 1_554 S
H578 C554 0.950 . S
H579 C555 0.949 . S
H580 C557 0.950 . S
H581 C559 0.950 . S
C582 C583 1.349 . S
C582 C584 1.327 . S
C582 H607 0.950 . S
C583 C582 1.349 . S
C583 C599 1.349 . S
C584 C582 1.327 . S
C584 C603 1.429 . S
C584 H608 0.950 . S
C585 C602 1.574 . S
C585 C604 1.368 . S
C585 H609 0.949 . S
H586 C590 0.949 . S
C587 C588 1.349 . S
C587 C589 1.327 . S
C587 H610 0.950 . S
C588 C587 1.349 . S
C588 C600 1.349 . S
C589 C587 1.327 . S
C589 C605 1.429 . S
C589 H611 0.950 . S
C590 H586 0.949 . S
C590 C598 1.574 . S
C590 C606 1.368 . S
H591 C599 0.950 1_554 S
H592 C597 0.950 . S
H593 C598 0.949 . S
H594 C600 0.950 . S
H595 C601 0.950 . S
H596 C602 0.949 . S
C597 H592 0.950 . S
C597 C599 1.327 . S
C597 C603 1.429 . S
C598 C590 1.574 . S
C598 H593 0.949 . S
C598 C604 1.368 . S
C599 C583 1.349 . S
C599 H591 0.950 1_556 S
C599 C597 1.327 . S
C600 C588 1.349 . S
C600 H594 0.950 . S
C600 C601 1.327 . S
C601 H595 0.950 . S
C601 C600 1.327 . S
C601 C605 1.429 . S
C602 C585 1.574 . S
C602 H596 0.949 . S
C602 C606 1.368 . S
C603 C584 1.429 . S
C603 C597 1.429 . S
C603 C604 1.523 . S
C604 C585 1.368 . S
C604 C598 1.368 . S
C604 C603 1.523 . S
C605 C589 1.429 . S
C605 C601 1.429 . S
C605 C606 1.523 . S
C606 C590 1.368 . S
C606 C602 1.368 . S
C606 C605 1.523 . S
H607 C582 0.950 . S
H608 C584 0.950 . S
H609 C585 0.949 . S
H610 C587 0.950 . S
H611 C589 0.950 . S
C612 C613 1.349 . S
C612 C614 1.327 . S
C612 H637 0.950 . S
C613 C612 1.349 . S
C613 C629 1.349 . S
C614 C612 1.327 . S
C614 C633 1.429 . S
C614 H638 0.950 . S
C615 C632 1.574 . S
C615 C634 1.368 . S
C615 H639 0.949 . S
H616 C620 0.949 . S
C617 C618 1.349 . S
C617 C619 1.327 . S
C617 H640 0.950 . S
C618 C617 1.349 . S
C618 C630 1.349 . S
C619 C617 1.327 . S
C619 C635 1.429 . S
C619 H641 0.950 . S
C620 H616 0.949 . S
C620 C628 1.574 . S
C620 C636 1.368 . S
H621 C629 0.950 . S
H622 C627 0.950 . S
H623 C628 0.949 . S
H624 C630 0.950 . S
H625 C631 0.950 . S
H626 C632 0.949 . S
C627 H622 0.950 . S
C627 C629 1.327 . S
C627 C633 1.429 . S
C628 C620 1.574 . S
C628 H623 0.949 . S
C628 C634 1.368 . S
C629 C613 1.349 . S
C629 H621 0.950 . S
C629 C627 1.327 . S
C630 C618 1.349 . S
C630 H624 0.950 . S
C630 C631 1.327 . S
C631 H625 0.950 . S
C631 C630 1.327 . S
C631 C635 1.429 . S
C632 C615 1.574 . S
C632 H626 0.949 . S
C632 C636 1.368 . S
C633 C614 1.429 . S
C633 C627 1.429 . S
C633 C634 1.523 . S
C634 C615 1.368 . S
C634 C628 1.368 . S
C634 C633 1.523 . S
C635 C619 1.429 . S
C635 C631 1.429 . S
C635 C636 1.523 . S
C636 C620 1.368 . S
C636 C632 1.368 . S
C636 C635 1.523 . S
H637 C612 0.950 . S
H638 C614 0.950 . S
H639 C615 0.949 . S
H640 C617 0.950 . S
H641 C619 0.950 . S
C642 C643 1.349 . S
C642 C644 1.327 . S
C642 H667 0.950 . S
C643 C642 1.349 . S
C643 C659 1.349 . S
C644 C642 1.327 . S
C644 C663 1.429 . S
C644 H668 0.950 . S
C645 C662 1.574 . S
C645 C664 1.368 . S
C645 H669 0.949 . S
H646 C650 0.949 . S
C647 C648 1.349 . S
C647 C649 1.327 . S
C647 H670 0.950 . S
C648 C647 1.349 . S
C648 C660 1.349 . S
C649 C647 1.327 . S
C649 C665 1.429 . S
C649 H671 0.950 . S
C650 H646 0.949 . S
C650 C658 1.574 . S
C650 C666 1.368 . S
H651 C659 0.950 . S
H652 C657 0.950 . S
H653 C658 0.949 . S
H654 C660 0.950 . S
H655 C661 0.950 . S
H656 C662 0.949 . S
C657 H652 0.950 . S
C657 C659 1.327 . S
C657 C663 1.429 . S
C658 C650 1.574 . S
C658 H653 0.949 . S
C658 C664 1.368 . S
C659 C643 1.349 . S
C659 H651 0.950 . S
C659 C657 1.327 . S
C660 C648 1.349 . S
C660 H654 0.950 . S
C660 C661 1.327 . S
C661 H655 0.950 . S
C661 C660 1.327 . S
C661 C665 1.429 . S
C662 C645 1.574 . S
C662 H656 0.949 . S
C662 C666 1.368 . S
C663 C644 1.429 . S
C663 C657 1.429 . S
C663 C664 1.523 . S
C664 C645 1.368 . S
C664 C658 1.368 . S
C664 C663 1.523 . S
C665 C649 1.429 . S
C665 C661 1.429 . S
C665 C666 1.523 . S
C666 C650 1.368 . S
C666 C662 1.368 . S
C666 C665 1.523 . S
H667 C642 0.950 . S
H668 C644 0.950 . S
H669 C645 0.949 . S
H670 C647 0.950 . S
H671 C649 0.950 . S
C672 C673 1.349 . S
C672 C674 1.327 . S
C672 H697 0.950 . S
C673 C672 1.349 . S
C673 C689 1.349 . S
C674 C672 1.327 . S
C674 C693 1.429 . S
C674 H698 0.950 . S
C675 C692 1.574 . S
C675 C694 1.368 . S
C675 H699 0.949 . S
H676 C680 0.949 . S
C677 C678 1.349 . S
C677 C679 1.327 . S
C677 H700 0.950 . S
C678 C677 1.349 . S
C678 C690 1.349 . S
C679 C677 1.327 . S
C679 C695 1.429 . S
C679 H701 0.950 . S
C680 H676 0.949 . S
C680 C688 1.574 . S
C680 C696 1.368 . S
H681 C689 0.950 . S
H682 C687 0.950 . S
H683 C688 0.949 . S
H684 C690 0.950 . S
H685 C691 0.950 . S
H686 C692 0.949 . S
C687 H682 0.950 . S
C687 C689 1.327 . S
C687 C693 1.429 . S
C688 C680 1.574 . S
C688 H683 0.949 . S
C688 C694 1.368 . S
C689 C673 1.349 . S
C689 H681 0.950 . S
C689 C687 1.327 . S
C690 C678 1.349 . S
C690 H684 0.950 . S
C690 C691 1.327 . S
C691 H685 0.950 . S
C691 C690 1.327 . S
C691 C695 1.429 . S
C692 C675 1.574 . S
C692 H686 0.949 . S
C692 C696 1.368 . S
C693 C674 1.429 . S
C693 C687 1.429 . S
C693 C694 1.523 . S
C694 C675 1.368 . S
C694 C688 1.368 . S
C694 C693 1.523 . S
C695 C679 1.429 . S
C695 C691 1.429 . S
C695 C696 1.523 . S
C696 C680 1.368 . S
C696 C692 1.368 . S
C696 C695 1.523 . S
H697 C672 0.950 . S
H698 C674 0.950 . S
H699 C675 0.949 . S
H700 C677 0.950 . S
H701 C679 0.950 . S
C702 C703 1.349 . S
C702 C704 1.327 . S
C702 H727 0.950 . S
C703 C702 1.349 . S
C703 C719 1.349 . S
C704 C702 1.327 . S
C704 C723 1.429 . S
C704 H728 0.950 . S
C705 C722 1.574 . S
C705 C724 1.368 . S
C705 H729 0.949 . S
H706 C710 0.949 . S
C707 C708 1.349 . S
C707 C709 1.327 . S
C707 H730 0.951 1_554 S
C708 C707 1.349 . S
C708 C720 1.349 . S
C709 C707 1.327 . S
C709 C725 1.429 . S
C709 H731 0.950 . S
C710 H706 0.949 . S
C710 C718 1.574 . S
C710 C726 1.368 . S
H711 C719 0.950 . S
H712 C717 0.950 . S
H713 C718 0.949 . S
H714 C720 0.950 . S
H715 C721 0.950 . S
H716 C722 0.949 . S
C717 H712 0.950 . S
C717 C719 1.327 . S
C717 C723 1.429 . S
C718 C710 1.574 . S
C718 H713 0.949 . S
C718 C724 1.368 . S
C719 C703 1.349 . S
C719 H711 0.950 . S
C719 C717 1.327 . S
C720 C708 1.349 . S
C720 H714 0.950 . S
C720 C721 1.327 . S
C721 H715 0.950 . S
C721 C720 1.327 . S
C721 C725 1.429 . S
C722 C705 1.574 . S
C722 H716 0.949 . S
C722 C726 1.368 . S
C723 C704 1.429 . S
C723 C717 1.429 . S
C723 C724 1.523 . S
C724 C705 1.368 . S
C724 C718 1.368 . S
C724 C723 1.523 . S
C725 C709 1.429 . S
C725 C721 1.429 . S
C725 C726 1.523 . S
C726 C710 1.368 . S
C726 C722 1.368 . S
C726 C725 1.523 . S
H727 C702 0.950 . S
H728 C704 0.950 . S
H729 C705 0.949 . S
H730 C707 0.951 1_556 S
H731 C709 0.950 . S
C732 C733 1.349 . S
C732 C734 1.327 . S
C732 H757 0.950 . S
C733 C732 1.349 . S
C733 C749 1.349 . S
C734 C732 1.327 . S
C734 C753 1.429 . S
C734 H758 0.950 . S
C735 C752 1.574 . S
C735 C754 1.368 . S
C735 H759 0.949 . S
H736 C740 0.949 . S
C737 C738 1.349 . S
C737 C739 1.327 . S
C737 H760 0.950 . S
C738 C737 1.349 . S
C738 C750 1.349 . S
C739 C737 1.327 . S
C739 C755 1.429 . S
C739 H761 0.950 . S
C740 H736 0.949 . S
C740 C748 1.574 . S
C740 C756 1.368 . S
H741 C749 0.950 . S
H742 C747 0.950 . S
H743 C748 0.949 . S
H744 C750 0.950 1_556 S
H745 C751 0.950 . S
H746 C752 0.949 . S
C747 H742 0.950 . S
C747 C749 1.327 . S
C747 C753 1.429 . S
C748 C740 1.574 . S
C748 H743 0.949 . S
C748 C754 1.368 . S
C749 C733 1.349 . S
C749 H741 0.950 . S
C749 C747 1.327 . S
C750 C738 1.349 . S
C750 H744 0.950 1_554 S
C750 C751 1.327 . S
C751 H745 0.950 . S
C751 C750 1.327 . S
C751 C755 1.429 . S
C752 C735 1.574 . S
C752 H746 0.949 . S
C752 C756 1.368 . S
C753 C734 1.429 . S
C753 C747 1.429 . S
C753 C754 1.523 . S
C754 C735 1.368 . S
C754 C748 1.368 . S
C754 C753 1.523 . S
C755 C739 1.429 . S
C755 C751 1.429 . S
C755 C756 1.523 . S
C756 C740 1.368 . S
C756 C752 1.368 . S
C756 C755 1.523 . S
H757 C732 0.950 . S
H758 C734 0.950 . S
H759 C735 0.949 . S
H760 C737 0.950 . S
H761 C739 0.950 . S
C762 C763 1.349 . S
C762 C764 1.327 . S
C762 H787 0.950 . S
C763 C762 1.349 . S
C763 C779 1.349 . S
C764 C762 1.327 . S
C764 C783 1.429 . S
C764 H788 0.950 . S
C765 C782 1.574 . S
C765 C784 1.368 . S
C765 H789 0.949 . S
H766 C770 0.949 . S
C767 C768 1.349 . S
C767 C769 1.327 . S
C767 H790 0.950 . S
C768 C767 1.349 . S
C768 C780 1.349 . S
C769 C767 1.327 . S
C769 C785 1.429 . S
C769 H791 0.950 . S
C770 H766 0.949 . S
C770 C778 1.574 . S
C770 C786 1.368 . S
H771 C779 0.950 . S
H772 C777 0.950 . S
H773 C778 0.949 . S
H774 C780 0.950 1_556 S
H775 C781 0.950 . S
H776 C782 0.949 . S
C777 H772 0.950 . S
C777 C779 1.327 . S
C777 C783 1.429 . S
C778 C770 1.574 . S
C778 H773 0.949 . S
C778 C784 1.368 . S
C779 C763 1.349 . S
C779 H771 0.950 . S
C779 C777 1.327 . S
C780 C768 1.349 . S
C780 H774 0.950 1_554 S
C780 C781 1.327 . S
C781 H775 0.950 . S
C781 C780 1.327 . S
C781 C785 1.429 . S
C782 C765 1.574 . S
C782 H776 0.949 . S
C782 C786 1.368 . S
C783 C764 1.429 . S
C783 C777 1.429 . S
C783 C784 1.523 . S
C784 C765 1.368 . S
C784 C778 1.368 . S
C784 C783 1.523 . S
C785 C769 1.429 . S
C785 C781 1.429 . S
C785 C786 1.523 . S
C786 C770 1.368 . S
C786 C782 1.368 . S
C786 C785 1.523 . S
H787 C762 0.950 . S
H788 C764 0.950 . S
H789 C765 0.949 . S
H790 C767 0.950 . S
H791 C769 0.950 . S
C792 C793 1.349 . S
C792 C794 1.327 . S
C792 H817 0.950 . S
C793 C792 1.349 . S
C793 C809 1.349 . S
C794 C792 1.327 . S
C794 C813 1.429 . S
C794 H818 0.950 . S
C795 C812 1.574 . S
C795 C814 1.368 . S
C795 H819 0.949 . S
H796 C800 0.949 . S
C797 C798 1.349 . S
C797 C799 1.327 . S
C797 H820 0.950 . S
C798 C797 1.349 . S
C798 C810 1.349 . S
C799 C797 1.327 . S
C799 C815 1.429 . S
C799 H821 0.950 . S
C800 H796 0.949 . S
C800 C808 1.574 . S
C800 C816 1.368 . S
H801 C809 0.950 . S
H802 C807 0.950 . S
H803 C808 0.949 . S
H804 C810 0.950 . S
H805 C811 0.950 . S
H806 C812 0.949 . S
C807 H802 0.950 . S
C807 C809 1.327 . S
C807 C813 1.429 . S
C808 C800 1.574 . S
C808 H803 0.949 . S
C808 C814 1.368 . S
C809 C793 1.349 . S
C809 H801 0.950 . S
C809 C807 1.327 . S
C810 C798 1.349 . S
C810 H804 0.950 . S
C810 C811 1.327 . S
C811 H805 0.950 . S
C811 C810 1.327 . S
C811 C815 1.429 . S
C812 C795 1.574 . S
C812 H806 0.949 . S
C812 C816 1.368 . S
C813 C794 1.429 . S
C813 C807 1.429 . S
C813 C814 1.523 . S
C814 C795 1.368 . S
C814 C808 1.368 . S
C814 C813 1.523 . S
C815 C799 1.429 . S
C815 C811 1.429 . S
C815 C816 1.523 . S
C816 C800 1.368 . S
C816 C812 1.368 . S
C816 C815 1.523 . S
H817 C792 0.950 . S
H818 C794 0.950 . S
H819 C795 0.949 . S
H820 C797 0.950 . S
H821 C799 0.950 . S
C822 C823 1.349 . S
C822 C824 1.327 . S
C822 H847 0.950 . S
C823 C822 1.349 . S
C823 C839 1.349 . S
C824 C822 1.327 . S
C824 C843 1.429 . S
C824 H848 0.950 . S
C825 C842 1.574 . S
C825 C844 1.368 . S
C825 H849 0.949 . S
H826 C830 0.949 . S
C827 C828 1.349 . S
C827 C829 1.327 . S
C827 H850 0.950 . S
C828 C827 1.349 . S
C828 C840 1.349 . S
C829 C827 1.327 . S
C829 C845 1.429 . S
C829 H851 0.950 . S
C830 H826 0.949 . S
C830 C838 1.574 . S
C830 C846 1.368 . S
H831 C839 0.950 . S
H832 C837 0.950 . S
H833 C838 0.949 . S
H834 C840 0.950 . S
H835 C841 0.950 . S
H836 C842 0.949 . S
C837 H832 0.950 . S
C837 C839 1.327 . S
C837 C843 1.429 . S
C838 C830 1.574 . S
C838 H833 0.949 . S
C838 C844 1.368 . S
C839 C823 1.349 . S
C839 H831 0.950 . S
C839 C837 1.327 . S
C840 C828 1.349 . S
C840 H834 0.950 . S
C840 C841 1.327 . S
C841 H835 0.950 . S
C841 C840 1.327 . S
C841 C845 1.429 . S
C842 C825 1.574 . S
C842 H836 0.949 . S
C842 C846 1.368 . S
C843 C824 1.429 . S
C843 C837 1.429 . S
C843 C844 1.523 . S
C844 C825 1.368 . S
C844 C838 1.368 . S
C844 C843 1.523 . S
C845 C829 1.429 . S
C845 C841 1.429 . S
C845 C846 1.523 . S
C846 C830 1.368 . S
C846 C842 1.368 . S
C846 C845 1.523 . S
H847 C822 0.950 . S
H848 C824 0.950 . S
H849 C825 0.949 . S
H850 C827 0.950 . S
H851 C829 0.950 . S
C852 C853 1.349 . S
C852 C854 1.327 . S
C852 H877 0.950 . S
C853 C852 1.349 . S
C853 C869 1.349 1_545 S
C854 C852 1.327 . S
C854 C873 1.429 . S
C854 H878 0.950 . S
C855 C872 1.574 . S
C855 C874 1.368 . S
C855 H879 0.949 . S
H856 C860 0.949 . S
C857 C858 1.349 . S
C857 C859 1.327 . S
C857 H880 0.950 . S
C858 C857 1.349 . S
C858 C870 1.349 . S
C859 C857 1.327 . S
C859 C875 1.429 . S
C859 H881 0.950 . S
C860 H856 0.949 . S
C860 C868 1.574 . S
C860 C876 1.368 . S
H861 C869 0.950 . S
H862 C867 0.950 1_565 S
H863 C868 0.949 . S
H864 C870 0.950 . S
H865 C871 0.950 . S
H866 C872 0.949 . S
C867 H862 0.950 1_545 S
C867 C869 1.327 1_545 S
C867 C873 1.429 . S
C868 C860 1.574 . S
C868 H863 0.949 . S
C868 C874 1.368 . S
C869 C853 1.349 1_565 S
C869 H861 0.950 . S
C869 C867 1.327 1_565 S
C870 C858 1.349 . S
C870 H864 0.950 . S
C870 C871 1.327 . S
C871 H865 0.950 . S
C871 C870 1.327 . S
C871 C875 1.429 . S
C872 C855 1.574 . S
C872 H866 0.949 . S
C872 C876 1.368 . S
C873 C854 1.429 . S
C873 C867 1.429 . S
C873 C874 1.523 . S
C874 C855 1.368 . S
C874 C868 1.368 . S
C874 C873 1.523 . S
C875 C859 1.429 . S
C875 C871 1.429 . S
C875 C876 1.523 . S
C876 C860 1.368 . S
C876 C872 1.368 . S
C876 C875 1.523 . S
H877 C852 0.950 . S
H878 C854 0.950 . S
H879 C855 0.949 . S
H880 C857 0.950 . S
H881 C859 0.950 . S
C882 C883 1.349 . S
C882 C884 1.327 . S
C882 H907 0.950 . S
C883 C882 1.349 . S
C883 C899 1.349 . S
C884 C882 1.327 . S
C884 C903 1.429 . S
C884 H908 0.950 . S
C885 C902 1.574 . S
C885 C904 1.368 . S
C885 H909 0.949 . S
H886 C890 0.949 . S
C887 C888 1.349 1_556 S
C887 C889 1.327 . S
C887 H910 0.950 . S
C888 C887 1.349 1_554 S
C888 C900 1.349 . S
C889 C887 1.327 . S
C889 C905 1.429 1_556 S
C889 H911 0.950 . S
C890 H886 0.949 . S
C890 C898 1.574 . S
C890 C906 1.368 . S
H891 C899 0.950 . S
H892 C897 0.950 . S
H893 C898 0.949 . S
H894 C900 0.950 . S
H895 C901 0.950 . S
H896 C902 0.949 . S
C897 H892 0.950 . S
C897 C899 1.327 . S
C897 C903 1.429 . S
C898 C890 1.574 . S
C898 H893 0.949 . S
C898 C904 1.368 . S
C899 C883 1.349 . S
C899 H891 0.950 . S
C899 C897 1.327 . S
C900 C888 1.349 . S
C900 H894 0.950 . S
C900 C901 1.327 . S
C901 H895 0.950 . S
C901 C900 1.327 . S
C901 C905 1.429 . S
C902 C885 1.574 . S
C902 H896 0.949 . S
C902 C906 1.368 . S
C903 C884 1.429 . S
C903 C897 1.429 . S
C903 C904 1.523 . S
C904 C885 1.368 . S
C904 C898 1.368 . S
C904 C903 1.523 . S
C905 C889 1.429 1_554 S
C905 C901 1.429 . S
C905 C906 1.523 . S
C906 C890 1.368 . S
C906 C902 1.368 . S
C906 C905 1.523 . S
H907 C882 0.950 . S
H908 C884 0.950 . S
H909 C885 0.949 . S
H910 C887 0.950 . S
H911 C889 0.950 . S
C912 C913 1.349 . S
C912 C914 1.327 . S
C912 H937 0.950 1_455 S
C913 C912 1.349 . S
C913 C929 1.349 1_554 S
C914 C912 1.327 . S
C914 C933 1.429 . S
C914 H938 0.950 . S
C915 C932 1.574 . S
C915 C934 1.368 . S
C915 H939 0.949 1_554 S
H916 C920 0.949 . S
C917 C918 1.349 . S
C917 C919 1.327 . S
C917 H940 0.950 . S
C918 C917 1.349 . S
C918 C930 1.349 . S
C919 C917 1.327 . S
C919 C935 1.429 . S
C919 H941 0.950 . S
C920 H916 0.949 . S
C920 C928 1.574 . S
C920 C936 1.368 . S
H921 C929 0.950 . S
H922 C927 0.950 . S
H923 C928 0.949 . S
H924 C930 0.950 . S
H925 C931 0.950 . S
H926 C932 0.949 . S
C927 H922 0.950 . S
C927 C929 1.327 . S
C927 C933 1.429 1_556 S
C928 C920 1.574 . S
C928 H923 0.949 . S
C928 C934 1.368 . S
C929 C913 1.349 1_556 S
C929 H921 0.950 . S
C929 C927 1.327 . S
C930 C918 1.349 . S
C930 H924 0.950 . S
C930 C931 1.327 . S
C931 H925 0.950 . S
C931 C930 1.327 . S
C931 C935 1.429 . S
C932 C915 1.574 . S
C932 H926 0.949 . S
C932 C936 1.368 . S
C933 C914 1.429 . S
C933 C927 1.429 1_554 S
C933 C934 1.523 . S
C934 C915 1.368 . S
C934 C928 1.368 . S
C934 C933 1.523 . S
C935 C919 1.429 . S
C935 C931 1.429 . S
C935 C936 1.523 . S
C936 C920 1.368 . S
C936 C932 1.368 . S
C936 C935 1.523 . S
H937 C912 0.950 1_655 S
H938 C914 0.950 . S
H939 C915 0.949 1_556 S
H940 C917 0.950 . S
H941 C919 0.950 . S
C942 C943 1.349 . S
C942 C944 1.327 . S
C942 H967 0.950 . S
C943 C942 1.349 . S
C943 C959 1.349 1_554 S
C944 C942 1.327 . S
C944 C963 1.429 . S
C944 H968 0.950 . S
C945 C962 1.574 . S
C945 C964 1.368 . S
C945 H969 0.949 1_554 S
H946 C950 0.949 . S
C947 C948 1.349 . S
C947 C949 1.327 . S
C947 H970 0.950 . S
C948 C947 1.349 . S
C948 C960 1.349 . S
C949 C947 1.327 . S
C949 C965 1.429 . S
C949 H971 0.950 . S
C950 H946 0.949 . S
C950 C958 1.574 . S
C950 C966 1.368 . S
H951 C959 0.950 . S
H952 C957 0.950 . S
H953 C958 0.949 . S
H954 C960 0.950 . S
H955 C961 0.950 . S
H956 C962 0.949 . S
C957 H952 0.950 . S
C957 C959 1.327 . S
C957 C963 1.429 1_556 S
C958 C950 1.574 . S
C958 H953 0.949 . S
C958 C964 1.368 . S
C959 C943 1.349 1_556 S
C959 H951 0.950 . S
C959 C957 1.327 . S
C960 C948 1.349 . S
C960 H954 0.950 . S
C960 C961 1.327 . S
C961 H955 0.950 . S
C961 C960 1.327 . S
C961 C965 1.429 . S
C962 C945 1.574 . S
C962 H956 0.949 . S
C962 C966 1.368 . S
C963 C944 1.429 . S
C963 C957 1.429 1_554 S
C963 C964 1.523 . S
C964 C945 1.368 . S
C964 C958 1.368 . S
C964 C963 1.523 . S
C965 C949 1.429 . S
C965 C961 1.429 . S
C965 C966 1.523 . S
C966 C950 1.368 . S
C966 C962 1.368 . S
C966 C965 1.523 . S
H967 C942 0.950 . S
H968 C944 0.950 . S
H969 C945 0.949 1_556 S
H970 C947 0.950 . S
H971 C949 0.950 . S
C972 C973 1.349 . S
C972 C974 1.327 . S
C972 H997 0.950 1_455 S
C973 C972 1.349 . S
C973 C989 1.349 . S
C974 C972 1.327 . S
C974 C993 1.429 . S
C974 H998 0.950 . S
C975 C992 1.574 . S
C975 C994 1.368 . S
C975 H999 0.949 . S
H976 C980 0.949 . S
C977 C978 1.349 . S
C977 C979 1.327 . S
C977 H1000 0.950 . S
C978 C977 1.349 . S
C978 C990 1.349 . S
C979 C977 1.327 . S
C979 C995 1.429 . S
C979 H1001 0.950 . S
C980 H976 0.949 . S
C980 C988 1.574 . S
C980 C996 1.368 . S
H981 C989 0.950 . S
H982 C987 0.950 . S
H983 C988 0.949 . S
H984 C990 0.950 . S
H985 C991 0.950 . S
H986 C992 0.949 . S
C987 H982 0.950 . S
C987 C989 1.327 . S
C987 C993 1.429 . S
C988 C980 1.574 . S
C988 H983 0.949 . S
C988 C994 1.368 . S
C989 C973 1.349 . S
C989 H981 0.950 . S
C989 C987 1.327 . S
C990 C978 1.349 . S
C990 H984 0.950 . S
C990 C991 1.327 . S
C991 H985 0.950 . S
C991 C990 1.327 . S
C991 C995 1.429 . S
C992 C975 1.574 . S
C992 H986 0.949 . S
C992 C996 1.368 . S
C993 C974 1.429 . S
C993 C987 1.429 . S
C993 C994 1.523 . S
C994 C975 1.368 . S
C994 C988 1.368 . S
C994 C993 1.523 . S
C995 C979 1.429 . S
C995 C991 1.429 . S
C995 C996 1.523 . S
C996 C980 1.368 . S
C996 C992 1.368 . S
C996 C995 1.523 . S
H997 C972 0.950 1_655 S
H998 C974 0.950 . S
H999 C975 0.949 . S
H1000 C977 0.950 . S
H1001 C979 0.950 . S
C1002 C1003 1.349 . S
C1002 C1004 1.327 . S
C1002 H1027 0.950 . S
C1003 C1002 1.349 . S
C1003 C1019 1.349 . S
C1004 C1002 1.327 . S
C1004 C1023 1.429 . S
C1004 H1028 0.950 . S
C1005 C1022 1.574 . S
C1005 C1024 1.368 . S
C1005 H1029 0.949 . S
H1006 C1010 0.949 . S
C1007 C1008 1.349 . S
C1007 C1009 1.327 . S
C1007 H1030 0.950 . S
C1008 C1007 1.349 . S
C1008 C1020 1.349 . S
C1009 C1007 1.327 . S
C1009 C1025 1.429 . S
C1009 H1031 0.950 . S
C1010 H1006 0.949 . S
C1010 C1018 1.574 . S
C1010 C1026 1.368 . S
H1011 C1019 0.950 . S
H1012 C1017 0.950 . S
H1013 C1018 0.949 . S
H1014 C1020 0.950 . S
H1015 C1021 0.950 . S
H1016 C1022 0.949 . S
C1017 H1012 0.950 . S
C1017 C1019 1.327 . S
C1017 C1023 1.429 . S
C1018 C1010 1.574 . S
C1018 H1013 0.949 . S
C1018 C1024 1.368 . S
C1019 C1003 1.349 . S
C1019 H1011 0.950 . S
C1019 C1017 1.327 . S
C1020 C1008 1.349 . S
C1020 H1014 0.950 . S
C1020 C1021 1.327 . S
C1021 H1015 0.950 . S
C1021 C1020 1.327 . S
C1021 C1025 1.429 . S
C1022 C1005 1.574 . S
C1022 H1016 0.949 . S
C1022 C1026 1.368 . S
C1023 C1004 1.429 . S
C1023 C1017 1.429 . S
C1023 C1024 1.523 . S
C1024 C1005 1.368 . S
C1024 C1018 1.368 . S
C1024 C1023 1.523 . S
C1025 C1009 1.429 . S
C1025 C1021 1.429 . S
C1025 C1026 1.523 . S
C1026 C1010 1.368 . S
C1026 C1022 1.368 . S
C1026 C1025 1.523 . S
H1027 C1002 0.950 . S
H1028 C1004 0.950 . S
H1029 C1005 0.949 . S
H1030 C1007 0.950 . S
H1031 C1009 0.950 . S
C1032 C1033 1.349 . S
C1032 C1034 1.327 . S
C1032 H1057 0.950 . S
C1033 C1032 1.349 . S
C1033 C1049 1.349 . S
C1034 C1032 1.327 . S
C1034 C1053 1.429 . S
C1034 H1058 0.950 . S
C1035 C1052 1.574 . S
C1035 C1054 1.368 . S
C1035 H1059 0.949 . S
H1036 C1040 0.949 . S
C1037 C1038 1.349 . S
C1037 C1039 1.327 . S
C1037 H1060 0.950 . S
C1038 C1037 1.349 . S
C1038 C1050 1.349 . S
C1039 C1037 1.327 . S
C1039 C1055 1.429 . S
C1039 H1061 0.950 . S
C1040 H1036 0.949 . S
C1040 C1048 1.574 . S
C1040 C1056 1.368 . S
H1041 C1049 0.950 . S
H1042 C1047 0.950 . S
H1043 C1048 0.949 . S
H1044 C1050 0.950 . S
H1045 C1051 0.950 . S
H1046 C1052 0.949 . S
C1047 H1042 0.950 . S
C1047 C1049 1.327 . S
C1047 C1053 1.429 . S
C1048 C1040 1.574 . S
C1048 H1043 0.949 . S
C1048 C1054 1.368 . S
C1049 C1033 1.349 . S
C1049 H1041 0.950 . S
C1049 C1047 1.327 . S
C1050 C1038 1.349 . S
C1050 H1044 0.950 . S
C1050 C1051 1.327 . S
C1051 H1045 0.950 . S
C1051 C1050 1.327 . S
C1051 C1055 1.429 . S
C1052 C1035 1.574 . S
C1052 H1046 0.949 . S
C1052 C1056 1.368 . S
C1053 C1034 1.429 . S
C1053 C1047 1.429 . S
C1053 C1054 1.523 . S
C1054 C1035 1.368 . S
C1054 C1048 1.368 . S
C1054 C1053 1.523 . S
C1055 C1039 1.429 . S
C1055 C1051 1.429 . S
C1055 C1056 1.523 . S
C1056 C1040 1.368 . S
C1056 C1052 1.368 . S
C1056 C1055 1.523 . S
H1057 C1032 0.950 . S
H1058 C1034 0.950 . S
H1059 C1035 0.949 . S
H1060 C1037 0.950 . S
H1061 C1039 0.950 . S
C1062 C1063 1.349 . S
C1062 C1064 1.327 . S
C1062 H1087 0.950 . S
C1063 C1062 1.349 . S
C1063 C1079 1.349 1_556 S
C1064 C1062 1.327 . S
C1064 C1083 1.429 . S
C1064 H1088 0.950 . S
C1065 C1082 1.574 . S
C1065 C1084 1.368 . S
C1065 H1089 0.942 1_556 S
H1066 C1070 0.949 . S
C1067 C1068 1.349 . S
C1067 C1069 1.327 . S
C1067 H1090 0.950 . S
C1068 C1067 1.349 . S
C1068 C1080 1.349 . S
C1069 C1067 1.327 . S
C1069 C1085 1.429 . S
C1069 H1091 0.950 . S
C1070 H1066 0.949 . S
C1070 C1078 1.574 . S
C1070 C1086 1.368 . S
H1071 C1079 0.950 . S
H1072 C1077 0.950 . S
H1073 C1078 0.949 . S
H1074 C1080 0.950 . S
H1075 C1081 0.950 . S
H1076 C1082 0.949 . S
C1077 H1072 0.950 . S
C1077 C1079 1.327 . S
C1077 C1083 1.429 1_554 S
C1078 C1070 1.574 . S
C1078 H1073 0.949 . S
C1078 C1084 1.368 . S
C1079 C1063 1.349 1_554 S
C1079 H1071 0.950 . S
C1079 C1077 1.327 . S
C1080 C1068 1.349 . S
C1080 H1074 0.950 . S
C1080 C1081 1.327 . S
C1081 H1075 0.950 . S
C1081 C1080 1.327 . S
C1081 C1085 1.429 . S
C1082 C1065 1.574 . S
C1082 H1076 0.949 . S
C1082 C1086 1.368 . S
C1083 C1064 1.429 . S
C1083 C1077 1.429 1_556 S
C1083 C1084 1.523 . S
C1084 C1065 1.368 . S
C1084 C1078 1.368 . S
C1084 C1083 1.523 . S
C1085 C1069 1.429 . S
C1085 C1081 1.429 . S
C1085 C1086 1.523 . S
C1086 C1070 1.368 . S
C1086 C1082 1.368 . S
C1086 C1085 1.523 . S
H1087 C1062 0.950 . S
H1088 C1064 0.950 . S
H1089 C1065 0.942 1_554 S
H1090 C1067 0.950 . S
H1091 C1069 0.950 . S
C1092 C1093 1.349 . S
C1092 C1094 1.327 . S
C1092 H1117 0.950 . S
C1093 C1092 1.349 . S
C1093 C1109 1.349 . S
C1094 C1092 1.327 . S
C1094 C1113 1.429 . S
C1094 H1118 0.950 . S
C1095 C1112 1.574 . S
C1095 C1114 1.368 . S
C1095 H1119 0.949 . S
H1096 C1100 0.949 . S
C1097 C1098 1.349 1_554 S
C1097 C1099 1.327 . S
C1097 H1120 0.950 . S
C1098 C1097 1.349 1_556 S
C1098 C1110 1.349 . S
C1099 C1097 1.327 . S
C1099 C1115 1.429 1_554 S
C1099 H1121 0.950 . S
C1100 H1096 0.949 . S
C1100 C1108 1.574 . S
C1100 C1116 1.368 . S
H1101 C1109 0.950 . S
H1102 C1107 0.950 . S
H1103 C1108 0.949 . S
H1104 C1110 0.950 . S
H1105 C1111 0.950 . S
H1106 C1112 0.949 . S
C1107 H1102 0.950 . S
C1107 C1109 1.327 . S
C1107 C1113 1.429 . S
C1108 C1100 1.574 . S
C1108 H1103 0.949 . S
C1108 C1114 1.368 . S
C1109 C1093 1.349 . S
C1109 H1101 0.950 . S
C1109 C1107 1.327 . S
C1110 C1098 1.349 . S
C1110 H1104 0.950 . S
C1110 C1111 1.327 . S
C1111 H1105 0.950 . S
C1111 C1110 1.327 . S
C1111 C1115 1.429 . S
C1112 C1095 1.574 . S
C1112 H1106 0.949 . S
C1112 C1116 1.368 . S
C1113 C1094 1.429 . S
C1113 C1107 1.429 . S
C1113 C1114 1.523 . S
C1114 C1095 1.368 . S
C1114 C1108 1.368 . S
C1114 C1113 1.523 . S
C1115 C1099 1.429 1_556 S
C1115 C1111 1.429 . S
C1115 C1116 1.523 . S
C1116 C1100 1.368 . S
C1116 C1112 1.368 . S
C1116 C1115 1.523 . S
H1117 C1092 0.950 . S
H1118 C1094 0.950 . S
H1119 C1095 0.949 . S
H1120 C1097 0.950 . S
H1121 C1099 0.950 . S
C1122 C1123 1.349 . S
C1122 C1124 1.327 . S
C1122 H1147 0.950 . S
C1123 C1122 1.349 . S
C1123 C1139 1.349 . S
C1124 C1122 1.327 . S
C1124 C1143 1.429 . S
C1124 H1148 0.950 . S
C1125 C1142 1.574 . S
C1125 C1144 1.368 . S
C1125 H1149 0.949 . S
H1126 C1130 0.949 . S
C1127 C1128 1.349 1_554 S
C1127 C1129 1.327 . S
C1127 H1150 0.950 . S
C1128 C1127 1.349 1_556 S
C1128 C1140 1.349 . S
C1129 C1127 1.327 . S
C1129 C1145 1.429 1_554 S
C1129 H1151 0.950 . S
C1130 H1126 0.949 . S
C1130 C1138 1.574 . S
C1130 C1146 1.368 . S
H1131 C1139 0.950 . S
H1132 C1137 0.950 . S
H1133 C1138 0.949 . S
H1134 C1140 0.950 . S
H1135 C1141 0.950 . S
H1136 C1142 0.949 . S
C1137 H1132 0.950 . S
C1137 C1139 1.327 . S
C1137 C1143 1.429 . S
C1138 C1130 1.574 . S
C1138 H1133 0.949 . S
C1138 C1144 1.368 . S
C1139 C1123 1.349 . S
C1139 H1131 0.950 . S
C1139 C1137 1.327 . S
C1140 C1128 1.349 . S
C1140 H1134 0.950 . S
C1140 C1141 1.327 . S
C1141 H1135 0.950 . S
C1141 C1140 1.327 . S
C1141 C1145 1.429 . S
C1142 C1125 1.574 . S
C1142 H1136 0.949 . S
C1142 C1146 1.368 . S
C1143 C1124 1.429 . S
C1143 C1137 1.429 . S
C1143 C1144 1.523 . S
C1144 C1125 1.368 . S
C1144 C1138 1.368 . S
C1144 C1143 1.523 . S
C1145 C1129 1.429 1_556 S
C1145 C1141 1.429 . S
C1145 C1146 1.523 . S
C1146 C1130 1.368 . S
C1146 C1142 1.368 . S
C1146 C1145 1.523 . S
H1147 C1122 0.950 . S
H1148 C1124 0.950 . S
H1149 C1125 0.949 . S
H1150 C1127 0.950 . S
H1151 C1129 0.950 . S
C1152 C1153 1.349 . S
C1152 C1154 1.327 . S
C1152 H1177 0.950 . S
C1153 C1152 1.349 . S
C1153 C1169 1.349 . S
C1154 C1152 1.327 . S
C1154 C1173 1.429 . S
C1154 H1178 0.950 . S
C1155 C1172 1.574 . S
C1155 C1174 1.368 . S
C1155 H1179 0.949 . S
H1156 C1160 0.949 . S
C1157 C1158 1.349 . S
C1157 C1159 1.327 . S
C1157 H1180 0.950 . S
C1158 C1157 1.349 . S
C1158 C1170 1.349 . S
C1159 C1157 1.327 . S
C1159 C1175 1.429 . S
C1159 H1181 0.950 . S
C1160 H1156 0.949 . S
C1160 C1168 1.574 . S
C1160 C1176 1.368 . S
H1161 C1169 0.950 . S
H1162 C1167 0.950 . S
H1163 C1168 0.949 . S
H1164 C1170 0.950 . S
H1165 C1171 0.950 . S
H1166 C1172 0.949 . S
C1167 H1162 0.950 . S
C1167 C1169 1.327 . S
C1167 C1173 1.429 . S
C1168 C1160 1.574 . S
C1168 H1163 0.949 . S
C1168 C1174 1.368 . S
C1169 C1153 1.349 . S
C1169 H1161 0.950 . S
C1169 C1167 1.327 . S
C1170 C1158 1.349 . S
C1170 H1164 0.950 . S
C1170 C1171 1.327 . S
C1171 H1165 0.950 . S
C1171 C1170 1.327 . S
C1171 C1175 1.429 . S
C1172 C1155 1.574 . S
C1172 H1166 0.949 . S
C1172 C1176 1.368 . S
C1173 C1154 1.429 . S
C1173 C1167 1.429 . S
C1173 C1174 1.523 . S
C1174 C1155 1.368 . S
C1174 C1168 1.368 . S
C1174 C1173 1.523 . S
C1175 C1159 1.429 . S
C1175 C1171 1.429 . S
C1175 C1176 1.523 . S
C1176 C1160 1.368 . S
C1176 C1172 1.368 . S
C1176 C1175 1.523 . S
H1177 C1152 0.950 . S
H1178 C1154 0.950 . S
H1179 C1155 0.949 . S
H1180 C1157 0.950 . S
H1181 C1159 0.950 . S
C1182 C1183 1.349 . S
C1182 C1184 1.327 . S
C1182 H1207 0.950 . S
C1183 C1182 1.349 . S
C1183 C1199 1.349 . S
C1184 C1182 1.327 . S
C1184 C1203 1.429 . S
C1184 H1208 0.950 . S
C1185 C1202 1.574 . S
C1185 C1204 1.368 . S
C1185 H1209 0.949 . S
H1186 C1190 0.949 . S
C1187 C1188 1.349 . S
C1187 C1189 1.327 . S
C1187 H1210 0.950 . S
C1188 C1187 1.349 . S
C1188 C1200 1.349 . S
C1189 C1187 1.327 . S
C1189 C1205 1.429 . S
C1189 H1211 0.950 . S
C1190 H1186 0.949 . S
C1190 C1198 1.574 . S
C1190 C1206 1.368 . S
H1191 C1199 0.950 . S
H1192 C1197 0.950 . S
H1193 C1198 0.949 . S
H1194 C1200 0.950 . S
H1195 C1201 0.950 . S
H1196 C1202 0.949 . S
C1197 H1192 0.950 . S
C1197 C1199 1.327 . S
C1197 C1203 1.429 . S
C1198 C1190 1.574 . S
C1198 H1193 0.949 . S
C1198 C1204 1.368 . S
C1199 C1183 1.349 . S
C1199 H1191 0.950 . S
C1199 C1197 1.327 . S
C1200 C1188 1.349 . S
C1200 H1194 0.950 . S
C1200 C1201 1.327 . S
C1201 H1195 0.950 . S
C1201 C1200 1.327 . S
C1201 C1205 1.429 . S
C1202 C1185 1.574 . S
C1202 H1196 0.949 . S
C1202 C1206 1.368 . S
C1203 C1184 1.429 . S
C1203 C1197 1.429 . S
C1203 C1204 1.523 . S
C1204 C1185 1.368 . S
C1204 C1198 1.368 . S
C1204 C1203 1.523 . S
C1205 C1189 1.429 . S
C1205 C1201 1.429 . S
C1205 C1206 1.523 . S
C1206 C1190 1.368 . S
C1206 C1202 1.368 . S
C1206 C1205 1.523 . S
H1207 C1182 0.950 . S
H1208 C1184 0.950 . S
H1209 C1185 0.949 . S
H1210 C1187 0.950 . S
H1211 C1189 0.950 . S
C1212 C1213 1.349 . S
C1212 C1214 1.327 . S
C1212 H1237 0.950 . S
C1213 C1212 1.349 . S
C1213 C1229 1.349 . S
C1214 C1212 1.327 . S
C1214 C1233 1.429 . S
C1214 H1238 0.950 . S
C1215 C1232 1.574 . S
C1215 C1234 1.368 . S
C1215 H1239 0.949 . S
H1216 C1220 0.949 . S
C1217 C1218 1.349 . S
C1217 C1219 1.327 . S
C1217 H1240 0.950 . S
C1218 C1217 1.349 . S
C1218 C1230 1.349 . S
C1219 C1217 1.327 . S
C1219 C1235 1.429 . S
C1219 H1241 0.950 . S
C1220 H1216 0.949 . S
C1220 C1228 1.574 . S
C1220 C1236 1.368 . S
H1221 C1229 0.950 . S
H1222 C1227 0.950 . S
H1223 C1228 0.949 . S
H1224 C1230 0.950 . S
H1225 C1231 0.950 . S
H1226 C1232 0.949 . S
C1227 H1222 0.950 . S
C1227 C1229 1.327 . S
C1227 C1233 1.429 . S
C1228 C1220 1.574 . S
C1228 H1223 0.949 . S
C1228 C1234 1.368 . S
C1229 C1213 1.349 . S
C1229 H1221 0.950 . S
C1229 C1227 1.327 . S
C1230 C1218 1.349 . S
C1230 H1224 0.950 . S
C1230 C1231 1.327 . S
C1231 H1225 0.950 . S
C1231 C1230 1.327 . S
C1231 C1235 1.429 . S
C1232 C1215 1.574 . S
C1232 H1226 0.949 . S
C1232 C1236 1.368 . S
C1233 C1214 1.429 . S
C1233 C1227 1.429 . S
C1233 C1234 1.523 . S
C1234 C1215 1.368 . S
C1234 C1228 1.368 . S
C1234 C1233 1.523 . S
C1235 C1219 1.429 . S
C1235 C1231 1.429 . S
C1235 C1236 1.523 . S
C1236 C1220 1.368 . S
C1236 C1232 1.368 . S
C1236 C1235 1.523 . S
H1237 C1212 0.950 . S
H1238 C1214 0.950 . S
H1239 C1215 0.949 . S
H1240 C1217 0.950 . S
H1241 C1219 0.950 . S
C1242 C1243 1.349 . S
C1242 C1244 1.327 . S
C1242 H1267 0.950 . S
C1243 C1242 1.349 . S
C1243 C1259 1.349 . S
C1244 C1242 1.327 . S
C1244 C1263 1.429 . S
C1244 H1268 0.950 . S
C1245 C1262 1.574 . S
C1245 C1264 1.368 . S
C1245 H1269 0.949 . S
H1246 C1250 0.949 . S
C1247 C1248 1.349 . S
C1247 C1249 1.327 . S
C1247 H1270 0.950 . S
C1248 C1247 1.349 . S
C1248 C1260 1.349 . S
C1249 C1247 1.327 . S
C1249 C1265 1.429 . S
C1249 H1271 0.950 . S
C1250 H1246 0.949 . S
C1250 C1258 1.574 . S
C1250 C1266 1.368 . S
H1251 C1259 0.950 . S
H1252 C1257 0.950 . S
H1253 C1258 0.949 . S
H1254 C1260 0.950 . S
H1255 C1261 0.950 . S
H1256 C1262 0.949 . S
C1257 H1252 0.950 . S
C1257 C1259 1.327 . S
C1257 C1263 1.429 . S
C1258 C1250 1.574 . S
C1258 H1253 0.949 . S
C1258 C1264 1.368 . S
C1259 C1243 1.349 . S
C1259 H1251 0.950 . S
C1259 C1257 1.327 . S
C1260 C1248 1.349 . S
C1260 H1254 0.950 . S
C1260 C1261 1.327 . S
C1261 H1255 0.950 . S
C1261 C1260 1.327 . S
C1261 C1265 1.429 . S
C1262 C1245 1.574 . S
C1262 H1256 0.949 . S
C1262 C1266 1.368 . S
C1263 C1244 1.429 . S
C1263 C1257 1.429 . S
C1263 C1264 1.523 . S
C1264 C1245 1.368 . S
C1264 C1258 1.368 . S
C1264 C1263 1.523 . S
C1265 C1249 1.429 . S
C1265 C1261 1.429 . S
C1265 C1266 1.523 . S
C1266 C1250 1.368 . S
C1266 C1262 1.368 . S
C1266 C1265 1.523 . S
H1267 C1242 0.950 . S
H1268 C1244 0.950 . S
H1269 C1245 0.949 . S
H1270 C1247 0.950 . S
H1271 C1249 0.950 . S
C1272 C1273 1.349 . S
C1272 C1274 1.327 . S
C1272 H1297 0.950 . S
C1273 C1272 1.349 . S
C1273 C1289 1.349 . S
C1274 C1272 1.327 . S
C1274 C1293 1.429 . S
C1274 H1298 0.950 . S
C1275 C1292 1.574 . S
C1275 C1294 1.368 . S
C1275 H1299 0.949 . S
H1276 C1280 0.949 . S
C1277 C1278 1.349 . S
C1277 C1279 1.327 . S
C1277 H1300 0.950 . S
C1278 C1277 1.349 . S
C1278 C1290 1.349 . S
C1279 C1277 1.327 . S
C1279 C1295 1.429 . S
C1279 H1301 0.950 . S
C1280 H1276 0.949 . S
C1280 C1288 1.574 . S
C1280 C1296 1.368 . S
H1281 C1289 0.950 . S
H1282 C1287 0.950 . S
H1283 C1288 0.949 . S
H1284 C1290 0.950 . S
H1285 C1291 0.950 . S
H1286 C1292 0.949 . S
C1287 H1282 0.950 . S
C1287 C1289 1.327 . S
C1287 C1293 1.429 . S
C1288 C1280 1.574 . S
C1288 H1283 0.949 . S
C1288 C1294 1.368 . S
C1289 C1273 1.349 . S
C1289 H1281 0.950 . S
C1289 C1287 1.327 . S
C1290 C1278 1.349 . S
C1290 H1284 0.950 . S
C1290 C1291 1.327 . S
C1291 H1285 0.950 . S
C1291 C1290 1.327 . S
C1291 C1295 1.429 . S
C1292 C1275 1.574 . S
C1292 H1286 0.949 . S
C1292 C1296 1.368 . S
C1293 C1274 1.429 . S
C1293 C1287 1.429 . S
C1293 C1294 1.523 . S
C1294 C1275 1.368 . S
C1294 C1288 1.368 . S
C1294 C1293 1.523 . S
C1295 C1279 1.429 . S
C1295 C1291 1.429 . S
C1295 C1296 1.523 . S
C1296 C1280 1.368 . S
C1296 C1292 1.368 . S
C1296 C1295 1.523 . S
H1297 C1272 0.950 . S
H1298 C1274 0.950 . S
H1299 C1275 0.949 . S
H1300 C1277 0.950 . S
H1301 C1279 0.950 . S
C1302 C1303 1.349 . S
C1302 C1304 1.327 . S
C1302 H1327 0.950 . S
C1303 C1302 1.349 . S
C1303 C1319 1.349 . S
C1304 C1302 1.327 . S
C1304 C1323 1.429 . S
C1304 H1328 0.950 . S
C1305 C1322 1.574 . S
C1305 C1324 1.368 . S
C1305 H1329 0.949 . S
H1306 C1310 0.949 . S
C1307 C1308 1.349 . S
C1307 C1309 1.327 . S
C1307 H1330 0.950 . S
C1308 C1307 1.349 . S
C1308 C1320 1.349 . S
C1309 C1307 1.327 . S
C1309 C1325 1.429 . S
C1309 H1331 0.950 . S
C1310 H1306 0.949 . S
C1310 C1318 1.574 . S
C1310 C1326 1.368 . S
H1311 C1319 0.950 . S
H1312 C1317 0.950 . S
H1313 C1318 0.949 . S
H1314 C1320 0.950 . S
H1315 C1321 0.950 . S
H1316 C1322 0.949 . S
C1317 H1312 0.950 . S
C1317 C1319 1.327 . S
C1317 C1323 1.429 . S
C1318 C1310 1.574 . S
C1318 H1313 0.949 . S
C1318 C1324 1.368 . S
C1319 C1303 1.349 . S
C1319 H1311 0.950 . S
C1319 C1317 1.327 . S
C1320 C1308 1.349 . S
C1320 H1314 0.950 . S
C1320 C1321 1.327 . S
C1321 H1315 0.950 . S
C1321 C1320 1.327 . S
C1321 C1325 1.429 . S
C1322 C1305 1.574 . S
C1322 H1316 0.949 . S
C1322 C1326 1.368 . S
C1323 C1304 1.429 . S
C1323 C1317 1.429 . S
C1323 C1324 1.523 . S
C1324 C1305 1.368 . S
C1324 C1318 1.368 . S
C1324 C1323 1.523 . S
C1325 C1309 1.429 . S
C1325 C1321 1.429 . S
C1325 C1326 1.523 . S
C1326 C1310 1.368 . S
C1326 C1322 1.368 . S
C1326 C1325 1.523 . S
H1327 C1302 0.950 . S
H1328 C1304 0.950 . S
H1329 C1305 0.949 . S
H1330 C1307 0.950 . S
H1331 C1309 0.950 . S
C253 C43 1.919 . S
C258 C13 1.921 . S
C283 C68 1.920 . S
C288 C15 1.920 . S
C313 C29 1.919 . S
C318 C83 1.917 . S
C343 C40 1.919 . S
C348 C70 1.921 . S
C373 C0 1.917 . S
C378 C54 1.919 . S
C403 C57 1.917 . S
C408 C26 1.917 . S
C433 C138 1.921 . S
C438 C97 1.921 . S
C463 C99 1.920 . S
C468 C152 1.920 . S
C493 C124 1.917 . S
C498 C155 1.917 . S
C523 C166 1.921 1_556 S
C528 C113 1.921 . S
C553 C127 1.917 1_556 S
C558 C84 1.917 . S
C583 C141 1.917 1_556 S
C588 C110 1.917 . S
C613 C181 1.921 . S
C618 C211 1.919 . S
C643 C183 1.919 . S
C648 C236 1.919 . S
C673 C197 1.919 . S
C678 C239 1.917 . S
C703 C250 1.921 . S
C708 C208 1.919 1_554 S
C733 C222 1.919 . S
C738 C168 1.917 1_554 S
C763 C225 1.918 . S
C768 C194 1.918 1_554 S
C793 C12 1.610 . S
C798 C111 1.612 . S
C823 C14 1.611 . S
C828 C112 1.611 . S
C853 C85 1.612 1_545 S
C858 C28 1.611 . S
C883 C41 1.612 . S
C888 C182 1.610 1_554 S
C913 C196 1.611 1_454 S
C918 C1 1.612 . S
C943 C180 1.611 1_554 S
C948 C27 1.612 . S
C973 C224 1.612 1_455 S
C978 C42 1.612 . S
C1003 C69 1.611 . S
C1008 C251 1.611 . S
C1033 C223 1.611 . S
C1038 C82 1.612 . S
C1063 C153 1.610 1_546 S
C1068 C71 1.610 . S
C1093 C55 1.611 . S
C1098 C154 1.612 1_556 S
C1123 C56 1.612 . S
C1128 C139 1.610 1_556 S
C1153 C96 1.611 . S
C1158 C195 1.612 . S
C1183 C98 1.611 . S
C1188 C209 1.612 . S
C1213 C125 1.612 . S
C1218 C169 1.612 . S
C1243 C237 1.611 . S
C1248 C167 1.611 . S
C1273 C238 1.612 . S
C1278 C126 1.612 . S
C1303 C140 1.612 . S
C1308 C210 1.612 . S
