# Generated by pormake.
# Topology unc, (4)-cn, num edge types: 1
# Building blocks:
#     Node 0, Type 0, BuildingBlock: QUQFOY_clean_sbu_1, # of connection points: 4
#     Node 1, Type 0, BuildingBlock: QUQFOY_clean_sbu_1, # of connection points: 4
#     Node 2, Type 0, BuildingBlock: QUQFOY_clean_sbu_1, # of connection points: 4
#     Node 3, Type 0, BuildingBlock: QUQFOY_clean_sbu_1, # of connection points: 4
#     Edge 4, Type (0, 0), BuildingBlock: TEMPAE_clean_linker_10, # of connection points: 2
#     Edge 5, Type (0, 0), BuildingBlock: TEMPAE_clean_linker_10, # of connection points: 2
#     Edge 6, Type (0, 0), BuildingBlock: TEMPAE_clean_linker_10, # of connection points: 2
#     Edge 7, Type (0, 0), BuildingBlock: TEMPAE_clean_linker_10, # of connection points: 2
#     Edge 8, Type (0, 0), BuildingBlock: TEMPAE_clean_linker_10, # of connection points: 2
#     Edge 9, Type (0, 0), BuildingBlock: TEMPAE_clean_linker_10, # of connection points: 2
#     Edge 10, Type (0, 0), BuildingBlock: TEMPAE_clean_linker_10, # of connection points: 2
#     Edge 11, Type (0, 0), BuildingBlock: TEMPAE_clean_linker_10, # of connection points: 2
# Relax obj value: 0.070
# Max RMSD: 0.106
# Mean RMSD: 0.106
data_MOF--net-unc--node1-QUQFOY_clean_sbu_1--edge1-TEMPAE_clean_linker_10
_symmetry_space_group_name_H-M    P1
_symmetry_Int_Tables_number       1
_symmetry_cell_setting            triclinic
loop_
_symmetry_equiv_pos_as_xyz
'x, y, z'
_cell_length_a     31.939174
_cell_length_b     31.94167
_cell_length_c     22.613259
_cell_angle_alpha  89.899299
_cell_angle_beta   89.896348
_cell_angle_gamma 90.144249
loop_
_atom_site_label
_atom_site_type_symbol
_atom_site_fract_x
_atom_site_fract_y
_atom_site_fract_z
_atom_type_partial_charge
O0 O 1.00035 0.62915 0.9055 0.0
Cd1 Cd 0.97258 0.65975 0.9752 0.0
Cd2 Cd 0.05244 0.66027 0.01587 0.0
O3 O 0.06524 0.62823 0.93842 0.0
O4 O 0.91699 0.67534 0.94232 0.0
O5 O 0.96337 0.72222 0.97231 0.0
C6 C 0.92744 0.71405 0.94877 0.0
C7 C 0.09257 0.71821 0.04252 0.0
C8 C 0.03841 0.61863 0.89928 0.0
C9 C 0.98836 0.6144 0.08931 0.0
O10 O 0.02631 0.62592 0.08373 0.0
O11 O 0.96123 0.62475 0.05085 0.0
O12 O 0.10779 0.6809 0.04415 0.0
O13 O 0.05448 0.723 0.02469 0.0
O14 O 0.38625 0.01489 0.34972 0.0
Cd15 Cd 0.35544 0.04244 0.28002 0.0
Cd16 Cd 0.35482 0.96249 0.24001 0.0
O17 O 0.3866 0.94978 0.31768 0.0
O18 O 0.33995 0.09812 0.31268 0.0
O19 O 0.29298 0.05164 0.28328 0.0
C20 C 0.30122 0.08764 0.30656 0.0
C21 C 0.2965 0.92295 0.21343 0.0
C22 C 0.39648 0.97679 0.35643 0.0
C23 C 0.40076 0.0262 0.16602 0.0
O24 O 0.38946 0.98822 0.17212 0.0
O25 O 0.39017 0.05353 0.20406 0.0
O26 O 0.33363 0.90728 0.21202 0.0
O27 O 0.29209 0.96115 0.231 0.0
O28 O 0.01649 0.38452 0.40723 0.0
Cd29 Cd 0.04683 0.35465 0.4753 0.0
Cd30 Cd 0.96759 0.35658 0.5218 0.0
O31 O 0.95368 0.3913 0.44682 0.0
O32 O 0.10082 0.33842 0.43786 0.0
O33 O 0.05591 0.29211 0.47395 0.0
C34 C 0.09075 0.29985 0.44688 0.0
C35 C 0.92297 0.30257 0.55227 0.0
C36 C 0.9792 0.3981 0.40465 0.0
C37 C 0.03672 0.39968 0.59 0.0
O38 O 0.9989 0.38736 0.58824 0.0
O39 O 0.06192 0.39079 0.5483 0.0
O40 O 0.91329 0.34136 0.55963 0.0
O41 O 0.95783 0.29416 0.52579 0.0
O42 O 0.63068 0.99925 0.84837 0.0
Cd43 Cd 0.66039 0.96855 0.78048 0.0
Cd44 Cd 0.65838 0.04747 0.7331 0.0
O45 O 0.62333 0.06165 0.80769 0.0
O46 O 0.67666 0.91472 0.81834 0.0
O47 O 0.72294 0.95942 0.78165 0.0
C48 C 0.71522 0.92471 0.80905 0.0
C49 C 0.71241 0.09205 0.7026 0.0
C50 C 0.61679 0.03643 0.85032 0.0
C51 C 0.61542 0.97798 0.66561 0.0
O52 O 0.62791 0.01576 0.66677 0.0
O53 O 0.62408 0.95311 0.70778 0.0
O54 O 0.67363 0.1016 0.6948 0.0
O55 O 0.72079 0.05736 0.72953 0.0
C56 C 0.94272 0.5586 0.13369 0.0
C57 C 0.97682 0.58615 0.13871 0.0
C58 C 0.93537 0.52752 0.17662 0.0
C59 C 0.96242 0.52444 0.22597 0.0
C60 C 0.99522 0.55393 0.23302 0.0
C61 C 1.00223 0.58416 0.18909 0.0
C62 C 0.90031 0.49648 0.16729 0.0
C63 C 0.02434 0.55226 0.28555 0.0
C64 C 0.94 0.45916 0.36311 0.0
C65 C 0.96775 0.42573 0.35477 0.0
C66 C 0.93594 0.49066 0.31996 0.0
C67 C 0.95969 0.48811 0.26713 0.0
C68 C 0.98508 0.4526 0.25667 0.0
C69 C 0.98908 0.42206 0.30083 0.0
C70 C 0.90872 0.5281 0.3329 0.0
C71 C 0.01028 0.44817 0.20044 0.0
H72 H 0.92303 0.55991 0.09474 0.0
H73 H 0.02835 0.60567 0.19353 0.0
H74 H 0.91372 0.46557 0.15555 0.0
H75 H 0.88191 0.49222 0.20852 0.0
H76 H 0.87883 0.50635 0.1313 0.0
H77 H 0.04542 0.57994 0.28758 0.0
H78 H 1.00611 0.5505 0.3273 0.0
H79 H 0.04391 0.52366 0.28295 0.0
H80 H 0.92362 0.46223 0.4049 0.0
H81 H 0.01027 0.39602 0.29402 0.0
H82 H 0.88955 0.53645 0.29379 0.0
H83 H 0.92892 0.55545 0.34312 0.0
H84 H 0.88757 0.52247 0.37116 0.0
H85 H 0.99036 0.45429 0.16125 0.0
H86 H 0.02429 0.41653 0.19605 0.0
H87 H 0.03596 0.47163 0.20009 0.0
C88 C 0.42509 0.99095 0.45686 0.0
C89 C 0.42379 0.96533 0.40666 0.0
C90 C 0.45564 0.98521 0.50051 0.0
C91 C 0.48612 0.95348 0.49331 0.0
C92 C 0.48345 0.92586 0.44455 0.0
C93 C 0.45204 0.93193 0.4019 0.0
C94 C 0.45683 0.01486 0.55244 0.0
C95 C 0.51546 0.89184 0.43513 0.0
C96 C 0.58873 0.98574 0.5629 0.0
C97 C 0.58701 0.96496 0.61747 0.0
C98 C 0.55751 0.97979 0.52028 0.0
C99 C 0.52325 0.95299 0.53299 0.0
C100 C 0.52267 0.9299 0.58652 0.0
C101 C 0.55484 0.93592 0.62807 0.0
C102 C 0.55985 1.00435 0.46321 0.0
C103 C 0.48661 0.90124 0.60185 0.0
H104 H 0.40303 0.01653 0.46105 0.0
H105 H 0.45127 0.9121 0.36305 0.0
H106 H 0.46017 0.9972 0.59444 0.0
H107 H 0.48441 0.03587 0.5483 0.0
H108 H 0.42823 0.0345 0.55517 0.0
H109 H 0.50547 0.86919 0.40065 0.0
H110 H 0.54555 0.90619 0.42106 0.0
H111 H 0.52138 0.87456 0.47686 0.0
H112 H 0.61379 0.00792 0.55434 0.0
H113 H 0.55329 0.91996 0.67037 0.0
H114 H 0.53526 0.02882 0.46307 0.0
H115 H 0.554 0.98356 0.42484 0.0
H116 H 0.59075 0.01984 0.45716 0.0
H117 H 0.45871 0.92036 0.61289 0.0
H118 H 0.49384 0.88084 0.64031 0.0
H119 H 0.4782 0.88124 0.56361 0.0
C120 C 0.02499 0.59064 0.79831 0.0
C121 C 0.04997 0.59127 0.84918 0.0
C122 C 0.03063 0.56005 0.75469 0.0
C123 C 0.06153 0.52883 0.76262 0.0
C124 C 0.08857 0.53079 0.81211 0.0
C125 C 0.08266 0.56227 0.8547 0.0
C126 C 1.00166 0.55964 0.70196 0.0
C127 C 0.12168 0.49797 0.82234 0.0
C128 C 0.02792 0.4269 0.69228 0.0
C129 C 0.04951 0.42806 0.63831 0.0
C130 C 0.03391 0.45808 0.73495 0.0
C131 C 0.06165 0.49171 0.72292 0.0
C132 C 0.08549 0.49171 0.67004 0.0
C133 C 0.07936 0.4596 0.62842 0.0
C134 C 0.0085 0.45637 0.79131 0.0
C135 C 0.11517 0.52709 0.65546 0.0
H136 H 0.99996 0.61327 0.79357 0.0
H137 H 0.10197 0.56251 0.89408 0.0
H138 H 0.0198 0.55586 0.66043 0.0
H139 H 0.9799 0.53261 0.70551 0.0
H140 H 0.9828 0.58873 0.69874 0.0
H141 H 0.1441 0.50738 0.85744 0.0
H142 H 0.10643 0.46822 0.83597 0.0
H143 H 0.13936 0.49167 0.78106 0.0
H144 H 1.00512 0.40232 0.70032 0.0
H145 H 0.09599 0.46072 0.58661 0.0
H146 H 0.98466 0.48159 0.79078 0.0
H147 H 0.02889 0.46171 0.83025 0.0
H148 H 0.99214 0.42588 0.79693 0.0
H149 H 0.09685 0.55544 0.64399 0.0
H150 H 0.13587 0.51939 0.6175 0.0
H151 H 0.13488 0.535 0.69421 0.0
C152 C 0.4319 0.01135 0.06703 0.0
C153 C 0.42895 0.0376 0.11645 0.0
C154 C 0.46202 0.01849 0.02298 0.0
C155 C 0.49039 0.05237 0.0289 0.0
C156 C 0.48634 0.08019 0.07724 0.0
C157 C 0.45542 0.07263 0.12032 0.0
C158 C 0.46476 0.98848 0.97157 0.0
C159 C 0.51617 0.11644 0.08531 0.0
C160 C 0.59354 0.02783 0.95465 0.0
C161 C 0.58905 0.04804 0.89998 0.0
C162 C 0.56297 0.03167 0.99881 0.0
C163 C 0.5266 0.05564 0.98759 0.0
C164 C 0.52318 0.07833 0.93392 0.0
C165 C 0.55473 0.07453 0.89081 0.0
C166 C 0.56834 0.00769 0.05592 0.0
C167 C 0.4848 0.10398 0.92013 0.0
H168 H 0.41123 0.9845 0.06342 0.0
H169 H 0.45336 0.093 0.1585 0.0
H170 H 0.46587 1.00597 0.92916 0.0
H171 H 0.49406 0.97003 0.97486 0.0
H172 H 0.43787 0.96637 0.97034 0.0
H173 H 0.5056 0.13816 0.12061 0.0
H174 H 0.54754 0.10431 0.09736 0.0
H175 H 0.51973 0.13428 0.04347 0.0
H176 H 0.62024 0.00761 0.96203 0.0
H177 H 0.55104 0.09 0.84842 0.0
H178 H 0.54584 0.98117 0.05723 0.0
H179 H 0.56149 0.02807 0.0944 0.0
H180 H 0.60049 0.99495 0.06075 0.0
H181 H 0.45815 0.08266 0.9107 0.0
H182 H 0.48966 0.12463 0.88112 0.0
H183 H 0.4758 0.12354 0.95857 0.0
C184 C 0.2347 0.91305 0.14791 0.0
C185 C 0.26062 0.89794 0.19295 0.0
C186 C 0.20434 0.88703 0.12185 0.0
C187 C 0.19892 0.84558 0.14308 0.0
C188 C 0.22354 0.8312 0.19105 0.0
C189 C 0.25479 0.85726 0.21447 0.0
C190 C 0.17989 0.90303 0.06946 0.0
C191 C 0.21781 0.7878 0.21645 0.0
C192 C 0.10151 0.78277 0.10312 0.0
C193 C 0.11801 0.75389 0.06287 0.0
C194 C 0.12728 0.8134 0.12909 0.0
C195 C 0.17003 0.81601 0.11254 0.0
C196 C 0.18607 0.78827 0.06927 0.0
C197 C 0.16007 0.75694 0.04597 0.0
C198 C 0.10936 0.84133 0.17654 0.0
C199 C 0.23103 0.79089 0.04876 0.0
H200 H 0.23978 0.94441 0.13086 0.0
H201 H 0.27495 0.84574 0.24941 0.0
H202 H 0.18882 0.88505 0.02943 0.0
H203 H 0.14584 0.89823 0.07642 0.0
H204 H 0.18575 0.9368 0.06088 0.0
H205 H 0.23566 0.78338 0.25811 0.0
H206 H 0.18418 0.7816 0.2254 0.0
H207 H 0.22859 0.76415 0.184 0.0
H208 H 0.06904 0.77995 0.11666 0.0
H209 H 0.17269 0.73458 0.01465 0.0
H210 H 0.11591 0.87468 0.16637 0.0
H211 H 0.12464 0.83416 0.21941 0.0
H212 H 0.07501 0.83713 0.18174 0.0
H213 H 0.23916 0.82361 0.03671 0.0
H214 H 0.23716 0.77042 0.01004 0.0
H215 H 0.25218 0.7813 0.08517 0.0
C216 C 0.22705 0.11334 0.30446 0.0
C217 C 0.26769 0.11583 0.32752 0.0
C218 C 0.19568 0.14117 0.3233 0.0
C219 C 0.20501 0.17136 0.36723 0.0
C220 C 0.24568 0.17302 0.3919 0.0
C221 C 0.27661 0.14562 0.37122 0.0
C222 C 0.15296 0.13909 0.29501 0.0
C223 C 0.25673 0.20416 0.43964 0.0
C224 C 0.14554 0.27367 0.37791 0.0
C225 C 0.11821 0.26594 0.42529 0.0
C226 C 0.17264 0.24254 0.35706 0.0
C227 C 0.17325 0.20295 0.38526 0.0
C228 C 0.14539 0.19475 0.43279 0.0
C229 C 0.11775 0.22624 0.45178 0.0
C230 C 0.20118 0.25231 0.30548 0.0
C231 C 0.14578 0.15325 0.46481 0.0
H232 H 0.22009 0.09038 0.27061 0.0
H233 H 0.30785 0.14731 0.38974 0.0
H234 H 0.12842 0.13527 0.32937 0.0
H235 H 0.1465 0.1689 0.27148 0.0
H236 H 0.15028 0.11289 0.26297 0.0
H237 H 0.28881 0.19929 0.45725 0.0
H238 H 0.25472 0.23645 0.42178 0.0
H239 H 0.23408 0.20178 0.47676 0.0
H240 H 0.14562 0.30418 0.3568 0.0
H241 H 0.09669 0.22021 0.48849 0.0
H242 H 0.19797 0.22794 0.27087 0.0
H243 H 0.23425 0.25214 0.32035 0.0
H244 H 0.1944 0.28333 0.28541 0.0
H245 H 0.14145 0.12721 0.43301 0.0
H246 H 0.12096 0.15117 0.49918 0.0
H247 H 0.17665 0.14868 0.4863 0.0
C248 C 0.73713 0.1477 0.63345 0.0
C249 C 0.74587 0.11991 0.67985 0.0
C250 C 0.76793 0.17494 0.61136 0.0
C251 C 0.80824 0.17519 0.63725 0.0
C252 C 0.81741 0.14695 0.68386 0.0
C253 C 0.7862 0.11922 0.70415 0.0
C254 C 0.75707 0.20392 0.56082 0.0
C255 C 0.85973 0.14692 0.71346 0.0
C256 C 0.89627 0.22859 0.55146 0.0
C257 C 0.89506 0.26914 0.575 0.0
C258 C 0.86856 0.19738 0.57175 0.0
C259 C 0.83977 0.20677 0.6176 0.0
C260 C 0.83944 0.24733 0.64272 0.0
C261 C 0.86671 0.2781 0.62064 0.0
C262 C 0.86922 0.15478 0.54299 0.0
C263 C 0.80985 0.25845 0.69243 0.0
H264 H 0.70613 0.148 0.61401 0.0
H265 H 0.79303 0.09782 0.7401 0.0
H266 H 0.75825 0.23689 0.57605 0.0
H267 H 0.78034 0.20066 0.52462 0.0
H268 H 0.72537 0.19762 0.5427 0.0
H269 H 0.86238 0.12202 0.74761 0.0
H270 H 0.88483 0.1424 0.68014 0.0
H271 H 0.86532 0.1777 0.73475 0.0
H272 H 0.9181 0.22158 0.5161 0.0
H273 H 0.86599 0.30928 0.6395 0.0
H274 H 0.83869 0.14872 0.52122 0.0
H275 H 0.87361 0.13005 0.57688 0.0
H276 H 0.89447 0.152 0.50938 0.0
H277 H 0.77705 0.25683 0.67655 0.0
H278 H 0.8157 0.29038 0.71003 0.0
H279 H 0.81293 0.23559 0.72916 0.0
C280 C 0.78888 0.89779 0.80418 0.0
C281 C 0.74916 0.89727 0.83064 0.0
C282 C 0.82039 0.87016 0.82314 0.0
C283 C 0.81218 0.84222 0.87056 0.0
C284 C 0.77258 0.84277 0.89874 0.0
C285 C 0.74143 0.86989 0.87796 0.0
C286 C 0.8619 0.86985 0.79116 0.0
C287 C 0.76279 0.81414 0.95022 0.0
C288 C 0.86951 0.73884 0.88415 0.0
C289 C 0.89927 0.74764 0.92793 0.0
C290 C 0.84211 0.76982 0.86361 0.0
C291 C 0.84376 0.81042 0.88847 0.0
C292 C 0.87393 0.81964 0.93248 0.0
C293 C 0.90175 0.78822 0.9512 0.0
C294 C 0.81099 0.75888 0.8158 0.0
C295 C 0.87601 0.86229 0.96097 0.0
H296 H 0.79491 0.91889 0.76753 0.0
H297 H 0.71092 0.86976 0.89905 0.0
H298 H 0.88793 0.87407 0.82301 0.0
H299 H 0.86648 0.83904 0.76949 0.0
H300 H 0.86402 0.89476 0.75694 0.0
H301 H 0.73177 0.82089 0.9703 0.0
H302 H 0.76296 0.7811 0.93522 0.0
H303 H 0.78716 0.81728 0.98485 0.0
H304 H 0.86781 0.70764 0.86547 0.0
H305 H 0.92469 0.79509 0.98511 0.0
H306 H 0.81339 0.78161 0.77877 0.0
H307 H 0.77868 0.76087 0.83364 0.0
H308 H 0.81585 0.72684 0.79804 0.0
H309 H 0.87983 0.88691 0.92672 0.0
H310 H 0.90221 0.8649 0.99302 0.0
H311 H 0.8462 0.86869 0.98453 0.0
loop_
_geom_bond_atom_site_label_1
_geom_bond_atom_site_label_2
_geom_bond_distance
_geom_bond_site_symmetry_2
_ccdc_geom_bond_type
O0 Cd1 2.223 1_556 S
O0 C8 1.315 . S
Cd1 O0 2.223 1_554 S
Cd1 O4 2.297 1_554 S
Cd1 O5 2.439 1_554 S
Cd1 O11 2.240 . S
Cd2 O3 2.240 . S
Cd2 O10 2.223 1_556 S
Cd2 O12 2.297 1_556 S
Cd2 O13 2.439 1_556 S
O3 Cd2 2.240 . S
O3 C8 1.279 1_455 S
O4 Cd1 2.297 1_556 S
O4 C6 1.247 . S
O5 Cd1 2.439 1_556 S
O5 C6 1.208 . S
C6 O4 1.247 . S
C6 O5 1.208 . S
C7 O12 1.247 . S
C7 O13 1.208 . S
C8 O0 1.315 . S
C8 O3 1.279 1_655 S
C9 O10 1.315 . S
C9 O11 1.279 1_455 S
O10 Cd2 2.223 1_554 S
O10 C9 1.315 . S
O11 Cd1 2.240 . S
O11 C9 1.279 1_655 S
O12 Cd2 2.297 1_554 S
O12 C7 1.247 . S
O13 Cd2 2.439 1_554 S
O13 C7 1.208 . S
O14 Cd15 2.223 . S
O14 C22 1.315 . S
Cd15 O14 2.223 . S
Cd15 O18 2.297 . S
Cd15 O19 2.439 . S
Cd15 O25 2.240 . S
Cd16 O17 2.240 . S
Cd16 O24 2.223 . S
Cd16 O26 2.297 . S
Cd16 O27 2.439 . S
O17 Cd16 2.240 . S
O17 C22 1.279 1_565 S
O18 Cd15 2.297 . S
O18 C20 1.247 . S
O19 Cd15 2.439 . S
O19 C20 1.208 . S
C20 O18 1.247 . S
C20 O19 1.208 . S
C21 O26 1.247 . S
C21 O27 1.208 . S
C22 O14 1.315 . S
C22 O17 1.279 1_545 S
C23 O24 1.315 . S
C23 O25 1.279 1_565 S
O24 Cd16 2.223 . S
O24 C23 1.315 . S
O25 Cd15 2.240 . S
O25 C23 1.279 1_545 S
O26 Cd16 2.297 . S
O26 C21 1.247 . S
O27 Cd16 2.439 . S
O27 C21 1.208 . S
O28 Cd29 2.223 . S
O28 C36 1.315 . S
Cd29 O28 2.223 . S
Cd29 O32 2.297 . S
Cd29 O33 2.439 . S
Cd29 O39 2.240 . S
Cd30 O31 2.240 . S
Cd30 O38 2.223 . S
Cd30 O40 2.297 . S
Cd30 O41 2.439 . S
O31 Cd30 2.240 . S
O31 C36 1.279 1_655 S
O32 Cd29 2.297 . S
O32 C34 1.247 . S
O33 Cd29 2.439 . S
O33 C34 1.208 . S
C34 O32 1.247 . S
C34 O33 1.208 . S
C35 O40 1.247 . S
C35 O41 1.208 . S
C36 O28 1.315 . S
C36 O31 1.279 1_455 S
C37 O38 1.315 . S
C37 O39 1.279 1_655 S
O38 Cd30 2.223 . S
O38 C37 1.315 . S
O39 Cd29 2.240 . S
O39 C37 1.279 1_455 S
O40 Cd30 2.297 . S
O40 C35 1.247 . S
O41 Cd30 2.439 . S
O41 C35 1.208 . S
O42 Cd43 2.223 . S
O42 C50 1.315 . S
Cd43 O42 2.223 . S
Cd43 O46 2.297 . S
Cd43 O47 2.439 . S
Cd43 O53 2.240 . S
Cd44 O45 2.240 . S
Cd44 O52 2.223 . S
Cd44 O54 2.297 . S
Cd44 O55 2.439 . S
O45 Cd44 2.240 . S
O45 C50 1.279 1_545 S
O46 Cd43 2.297 . S
O46 C48 1.247 . S
O47 Cd43 2.439 . S
O47 C48 1.208 . S
C48 O46 1.247 . S
C48 O47 1.208 . S
C49 O54 1.247 . S
C49 O55 1.208 . S
C50 O42 1.315 . S
C50 O45 1.279 1_565 S
C51 O52 1.315 . S
C51 O53 1.279 1_545 S
O52 Cd44 2.223 . S
O52 C51 1.315 . S
O53 Cd43 2.240 . S
O53 C51 1.279 1_565 S
O54 Cd44 2.297 . S
O54 C49 1.247 . S
O55 Cd44 2.439 . S
O55 C49 1.208 . S
C56 C57 1.391 1_655 S
C56 C58 1.394 . S
C56 H72 0.931 . S
C57 C56 1.391 1_455 S
C57 C61 1.376 . S
C58 C56 1.394 . S
C58 C59 1.369 1_655 S
C58 C62 1.531 . S
C59 C58 1.369 1_455 S
C59 C60 1.410 . S
C59 C67 1.503 . S
C60 C59 1.410 . S
C60 C61 1.392 . S
C60 C63 1.511 . S
C61 C57 1.376 . S
C61 C60 1.392 . S
C61 H73 0.929 . S
C62 C58 1.531 . S
C62 H74 0.960 . S
C62 H75 0.962 . S
C62 H76 0.960 . S
C63 C60 1.511 . S
C63 H77 0.961 . S
C63 H78 0.961 . S
C63 H79 0.961 . S
C64 C65 1.370 1_655 S
C64 C66 1.363 . S
C64 H80 0.931 . S
C65 C64 1.370 1_455 S
C65 C69 1.408 . S
C66 C64 1.363 . S
C66 C67 1.370 1_655 S
C66 C70 1.524 . S
C67 C59 1.503 . S
C67 C66 1.370 1_455 S
C67 C68 1.403 . S
C68 C67 1.403 . S
C68 C69 1.404 . S
C68 C71 1.539 . S
C69 C65 1.408 . S
C69 C68 1.404 . S
C69 H81 0.930 . S
C70 C66 1.524 . S
C70 H82 0.956 . S
C70 H83 0.961 . S
C70 H84 0.961 . S
C71 C68 1.539 . S
C71 H85 0.958 . S
C71 H86 0.961 . S
C71 H87 0.960 . S
H72 C56 0.931 . S
H73 C61 0.929 . S
H74 C62 0.960 . S
H75 C62 0.962 . S
H76 C62 0.960 . S
H77 C63 0.961 . S
H78 C63 0.961 . S
H79 C63 0.961 . S
H80 C64 0.931 . S
H81 C69 0.930 . S
H82 C70 0.956 . S
H83 C70 0.961 . S
H84 C70 0.961 . S
H85 C71 0.958 . S
H86 C71 0.961 . S
H87 C71 0.960 . S
C88 C89 1.391 . S
C88 C90 1.394 . S
C88 H104 0.931 . S
C89 C88 1.391 . S
C89 C93 1.376 1_545 S
C90 C88 1.394 . S
C90 C91 1.369 . S
C90 C94 1.531 . S
C91 C90 1.369 . S
C91 C92 1.410 1_545 S
C91 C99 1.503 . S
C92 C91 1.410 1_565 S
C92 C93 1.392 . S
C92 C95 1.511 . S
C93 C89 1.376 1_565 S
C93 C92 1.392 . S
C93 H105 0.929 . S
C94 C90 1.531 . S
C94 H106 0.960 . S
C94 H107 0.962 . S
C94 H108 0.960 . S
C95 C92 1.511 . S
C95 H109 0.961 . S
C95 H110 0.961 . S
C95 H111 0.961 . S
C96 C97 1.370 . S
C96 C98 1.363 . S
C96 H112 0.931 . S
C97 C96 1.370 . S
C97 C101 1.408 . S
C98 C96 1.363 . S
C98 C99 1.370 . S
C98 C102 1.524 . S
C99 C91 1.503 . S
C99 C98 1.370 . S
C99 C100 1.403 . S
C100 C99 1.403 . S
C100 C101 1.404 . S
C100 C103 1.539 . S
C101 C97 1.408 . S
C101 C100 1.404 . S
C101 H113 0.930 . S
C102 C98 1.524 . S
C102 H114 0.956 . S
C102 H115 0.961 1_545 S
C102 H116 0.961 . S
C103 C100 1.539 . S
C103 H117 0.958 . S
C103 H118 0.961 1_545 S
C103 H119 0.960 1_545 S
H104 C88 0.931 . S
H105 C93 0.929 . S
H106 C94 0.960 . S
H107 C94 0.962 . S
H108 C94 0.960 . S
H109 C95 0.961 . S
H110 C95 0.961 . S
H111 C95 0.961 . S
H112 C96 0.931 . S
H113 C101 0.930 . S
H114 C102 0.956 . S
H115 C102 0.961 1_565 S
H116 C102 0.961 . S
H117 C103 0.958 . S
H118 C103 0.961 1_565 S
H119 C103 0.960 1_565 S
C120 C121 1.391 . S
C120 C122 1.394 . S
C120 H136 0.931 . S
C121 C120 1.391 . S
C121 C125 1.376 1_655 S
C122 C120 1.394 . S
C122 C123 1.369 1_655 S
C122 C126 1.531 . S
C123 C122 1.369 1_455 S
C123 C124 1.410 . S
C123 C131 1.504 . S
C124 C123 1.410 . S
C124 C125 1.392 . S
C124 C127 1.511 . S
C125 C121 1.376 1_455 S
C125 C124 1.392 . S
C125 H137 0.929 . S
C126 C122 1.531 . S
C126 H138 0.960 . S
C126 H139 0.962 . S
C126 H140 0.960 . S
C127 C124 1.511 . S
C127 H141 0.961 . S
C127 H142 0.961 . S
C127 H143 0.961 . S
C128 C129 1.370 . S
C128 C130 1.363 . S
C128 H144 0.931 . S
C129 C128 1.370 . S
C129 C133 1.408 1_655 S
C130 C128 1.363 . S
C130 C131 1.355 1_655 S
C130 C134 1.524 . S
C131 C123 1.504 . S
C131 C130 1.355 1_455 S
C131 C132 1.417 . S
C132 C131 1.417 . S
C132 C133 1.404 . S
C132 C135 1.539 . S
C133 C129 1.408 1_455 S
C133 C132 1.404 . S
C133 H145 0.930 . S
C134 C130 1.524 . S
C134 H146 0.956 . S
C134 H147 0.961 . S
C134 H148 0.961 . S
C135 C132 1.539 . S
C135 H149 0.958 . S
C135 H150 0.961 . S
C135 H151 0.960 . S
H136 C120 0.931 . S
H137 C125 0.929 . S
H138 C126 0.960 . S
H139 C126 0.962 . S
H140 C126 0.960 . S
H141 C127 0.961 . S
H142 C127 0.961 . S
H143 C127 0.961 . S
H144 C128 0.931 . S
H145 C133 0.930 . S
H146 C134 0.956 . S
H147 C134 0.961 . S
H148 C134 0.961 . S
H149 C135 0.958 . S
H150 C135 0.961 . S
H151 C135 0.960 . S
C152 C153 1.391 . S
C152 C154 1.394 . S
C152 H168 0.931 . S
C153 C152 1.391 . S
C153 C157 1.376 1_565 S
C154 C152 1.394 . S
C154 C155 1.369 . S
C154 C158 1.531 . S
C155 C154 1.369 . S
C155 C156 1.410 1_565 S
C155 C163 1.503 1_554 S
C156 C155 1.410 1_545 S
C156 C157 1.392 . S
C156 C159 1.511 1_554 S
C157 C153 1.376 1_545 S
C157 C156 1.392 . S
C157 H169 0.929 . S
C158 C154 1.531 . S
C158 H170 0.960 . S
C158 H171 0.962 . S
C158 H172 0.960 . S
C159 C156 1.511 1_556 S
C159 H173 0.961 1_556 S
C159 H174 0.961 . S
C159 H175 0.961 . S
C160 C161 1.370 1_545 S
C160 C162 1.363 . S
C160 H176 0.931 . S
C161 C160 1.370 1_565 S
C161 C165 1.408 . S
C162 C160 1.363 . S
C162 C163 1.370 1_545 S
C162 C166 1.524 1_556 S
C163 C155 1.503 1_556 S
C163 C162 1.370 1_565 S
C163 C164 1.403 . S
C164 C163 1.403 . S
C164 C165 1.404 . S
C164 C167 1.539 . S
C165 C161 1.408 . S
C165 C164 1.404 . S
C165 H177 0.930 . S
C166 C162 1.524 1_554 S
C166 H178 0.956 . S
C166 H179 0.961 . S
C166 H180 0.961 . S
C167 C164 1.539 . S
C167 H181 0.958 . S
C167 H182 0.961 . S
C167 H183 0.960 . S
H168 C152 0.931 . S
H169 C157 0.929 . S
H170 C158 0.960 . S
H171 C158 0.962 . S
H172 C158 0.960 . S
H173 C159 0.961 1_554 S
H174 C159 0.961 . S
H175 C159 0.961 . S
H176 C160 0.931 . S
H177 C165 0.930 . S
H178 C166 0.956 . S
H179 C166 0.961 . S
H180 C166 0.961 . S
H181 C167 0.958 . S
H182 C167 0.961 . S
H183 C167 0.960 . S
C184 C185 1.391 . S
C184 C186 1.394 . S
C184 H200 0.931 . S
C185 C184 1.391 . S
C185 C189 1.376 . S
C186 C184 1.394 . S
C186 C187 1.369 . S
C186 C190 1.531 . S
C187 C186 1.369 . S
C187 C188 1.410 . S
C187 C195 1.503 . S
C188 C187 1.410 . S
C188 C189 1.392 . S
C188 C191 1.511 . S
C189 C185 1.376 . S
C189 C188 1.392 . S
C189 H201 0.929 . S
C190 C186 1.531 . S
C190 H202 0.960 . S
C190 H203 0.962 . S
C190 H204 0.960 . S
C191 C188 1.511 . S
C191 H205 0.961 . S
C191 H206 0.961 . S
C191 H207 0.961 . S
C192 C193 1.370 . S
C192 C194 1.363 . S
C192 H208 0.931 . S
C193 C192 1.370 . S
C193 C197 1.408 . S
C194 C192 1.363 . S
C194 C195 1.370 . S
C194 C198 1.524 . S
C195 C187 1.503 . S
C195 C194 1.370 . S
C195 C196 1.403 . S
C196 C195 1.403 . S
C196 C197 1.404 . S
C196 C199 1.539 . S
C197 C193 1.408 . S
C197 C196 1.404 . S
C197 H209 0.930 . S
C198 C194 1.524 . S
C198 H210 0.956 . S
C198 H211 0.961 . S
C198 H212 0.961 . S
C199 C196 1.539 . S
C199 H213 0.958 . S
C199 H214 0.961 . S
C199 H215 0.960 . S
H200 C184 0.931 . S
H201 C189 0.929 . S
H202 C190 0.960 . S
H203 C190 0.962 . S
H204 C190 0.960 . S
H205 C191 0.961 . S
H206 C191 0.961 . S
H207 C191 0.961 . S
H208 C192 0.931 . S
H209 C197 0.930 . S
H210 C198 0.956 . S
H211 C198 0.961 . S
H212 C198 0.961 . S
H213 C199 0.958 . S
H214 C199 0.961 . S
H215 C199 0.960 . S
C216 C217 1.391 . S
C216 C218 1.394 . S
C216 H232 0.931 . S
C217 C216 1.391 . S
C217 C221 1.376 . S
C218 C216 1.394 . S
C218 C219 1.369 . S
C218 C222 1.531 . S
C219 C218 1.369 . S
C219 C220 1.410 . S
C219 C227 1.503 . S
C220 C219 1.410 . S
C220 C221 1.392 . S
C220 C223 1.511 . S
C221 C217 1.376 . S
C221 C220 1.392 . S
C221 H233 0.929 . S
C222 C218 1.531 . S
C222 H234 0.960 . S
C222 H235 0.962 . S
C222 H236 0.960 . S
C223 C220 1.511 . S
C223 H237 0.961 . S
C223 H238 0.961 . S
C223 H239 0.961 . S
C224 C225 1.370 . S
C224 C226 1.363 . S
C224 H240 0.931 . S
C225 C224 1.370 . S
C225 C229 1.408 . S
C226 C224 1.363 . S
C226 C227 1.370 . S
C226 C230 1.524 . S
C227 C219 1.503 . S
C227 C226 1.370 . S
C227 C228 1.403 . S
C228 C227 1.403 . S
C228 C229 1.404 . S
C228 C231 1.539 . S
C229 C225 1.408 . S
C229 C228 1.404 . S
C229 H241 0.930 . S
C230 C226 1.524 . S
C230 H242 0.956 . S
C230 H243 0.961 . S
C230 H244 0.961 . S
C231 C228 1.539 . S
C231 H245 0.958 . S
C231 H246 0.961 . S
C231 H247 0.960 . S
H232 C216 0.931 . S
H233 C221 0.929 . S
H234 C222 0.960 . S
H235 C222 0.962 . S
H236 C222 0.960 . S
H237 C223 0.961 . S
H238 C223 0.961 . S
H239 C223 0.961 . S
H240 C224 0.931 . S
H241 C229 0.930 . S
H242 C230 0.956 . S
H243 C230 0.961 . S
H244 C230 0.961 . S
H245 C231 0.958 . S
H246 C231 0.961 . S
H247 C231 0.960 . S
C248 C249 1.391 . S
C248 C250 1.394 . S
C248 H264 0.931 . S
C249 C248 1.391 . S
C249 C253 1.376 . S
C250 C248 1.394 . S
C250 C251 1.369 . S
C250 C254 1.531 . S
C251 C250 1.369 . S
C251 C252 1.410 . S
C251 C259 1.503 . S
C252 C251 1.410 . S
C252 C253 1.392 . S
C252 C255 1.511 . S
C253 C249 1.376 . S
C253 C252 1.392 . S
C253 H265 0.929 . S
C254 C250 1.531 . S
C254 H266 0.960 . S
C254 H267 0.962 . S
C254 H268 0.960 . S
C255 C252 1.511 . S
C255 H269 0.961 . S
C255 H270 0.961 . S
C255 H271 0.961 . S
C256 C257 1.370 . S
C256 C258 1.363 . S
C256 H272 0.931 . S
C257 C256 1.370 . S
C257 C261 1.408 . S
C258 C256 1.363 . S
C258 C259 1.370 . S
C258 C262 1.524 . S
C259 C251 1.503 . S
C259 C258 1.370 . S
C259 C260 1.403 . S
C260 C259 1.403 . S
C260 C261 1.404 . S
C260 C263 1.539 . S
C261 C257 1.408 . S
C261 C260 1.404 . S
C261 H273 0.930 . S
C262 C258 1.524 . S
C262 H274 0.956 . S
C262 H275 0.961 . S
C262 H276 0.961 . S
C263 C260 1.539 . S
C263 H277 0.958 . S
C263 H278 0.961 . S
C263 H279 0.960 . S
H264 C248 0.931 . S
H265 C253 0.929 . S
H266 C254 0.960 . S
H267 C254 0.962 . S
H268 C254 0.960 . S
H269 C255 0.961 . S
H270 C255 0.961 . S
H271 C255 0.961 . S
H272 C256 0.931 . S
H273 C261 0.930 . S
H274 C262 0.956 . S
H275 C262 0.961 . S
H276 C262 0.961 . S
H277 C263 0.958 . S
H278 C263 0.961 . S
H279 C263 0.960 . S
C280 C281 1.391 . S
C280 C282 1.394 . S
C280 H296 0.931 . S
C281 C280 1.391 . S
C281 C285 1.376 . S
C282 C280 1.394 . S
C282 C283 1.369 . S
C282 C286 1.531 . S
C283 C282 1.369 . S
C283 C284 1.410 . S
C283 C291 1.503 . S
C284 C283 1.410 . S
C284 C285 1.392 . S
C284 C287 1.511 . S
C285 C281 1.376 . S
C285 C284 1.392 . S
C285 H297 0.929 . S
C286 C282 1.531 . S
C286 H298 0.960 . S
C286 H299 0.962 . S
C286 H300 0.960 . S
C287 C284 1.511 . S
C287 H301 0.961 . S
C287 H302 0.961 . S
C287 H303 0.961 . S
C288 C289 1.370 . S
C288 C290 1.363 . S
C288 H304 0.931 . S
C289 C288 1.370 . S
C289 C293 1.408 . S
C290 C288 1.363 . S
C290 C291 1.370 . S
C290 C294 1.524 . S
C291 C283 1.503 . S
C291 C290 1.370 . S
C291 C292 1.403 . S
C292 C291 1.403 . S
C292 C293 1.404 . S
C292 C295 1.539 . S
C293 C289 1.408 . S
C293 C292 1.404 . S
C293 H305 0.930 . S
C294 C290 1.524 . S
C294 H306 0.956 . S
C294 H307 0.961 . S
C294 H308 0.961 . S
C295 C292 1.539 . S
C295 H309 0.958 . S
C295 H310 0.961 . S
C295 H311 0.960 . S
H296 C280 0.931 . S
H297 C285 0.929 . S
H298 C286 0.960 . S
H299 C286 0.962 . S
H300 C286 0.960 . S
H301 C287 0.961 . S
H302 C287 0.961 . S
H303 C287 0.961 . S
H304 C288 0.931 . S
H305 C293 0.930 . S
H306 C294 0.956 . S
H307 C294 0.961 . S
H308 C294 0.961 . S
H309 C295 0.958 . S
H310 C295 0.961 . S
H311 C295 0.960 . S
C57 C9 1.628 . S
C65 C36 1.632 . S
C89 C22 1.630 . S
C97 C51 1.646 . S
C121 C8 1.648 . S
C129 C37 1.651 . S
C153 C23 1.624 . S
C161 C50 1.643 . S
C185 C21 1.455 . S
C193 C7 1.454 . S
C217 C20 1.480 . S
C225 C34 1.453 . S
C249 C49 1.438 . S
C257 C35 1.461 . S
C281 C48 1.481 . S
C289 C6 1.467 . S
