# Generated by pormake.
# Topology wjk, (5)-cn, num edge types: 1
# Building blocks:
#     Node 0, Type 0, BuildingBlock: BEQFEK_clean_sbu_0, # of connection points: 5
#     Node 1, Type 0, BuildingBlock: BEQFEK_clean_sbu_0, # of connection points: 5
#     Node 2, Type 0, BuildingBlock: BEQFEK_clean_sbu_0, # of connection points: 5
#     Node 3, Type 0, BuildingBlock: BEQFEK_clean_sbu_0, # of connection points: 5
#     Node 4, Type 0, BuildingBlock: BEQFEK_clean_sbu_0, # of connection points: 5
#     Node 5, Type 0, BuildingBlock: BEQFEK_clean_sbu_0, # of connection points: 5
#     Node 6, Type 0, BuildingBlock: BEQFEK_clean_sbu_0, # of connection points: 5
#     Node 7, Type 0, BuildingBlock: BEQFEK_clean_sbu_0, # of connection points: 5
#     Node 8, Type 0, BuildingBlock: BEQFEK_clean_sbu_0, # of connection points: 5
#     Node 9, Type 0, BuildingBlock: BEQFEK_clean_sbu_0, # of connection points: 5
#     Node 10, Type 0, BuildingBlock: BEQFEK_clean_sbu_0, # of connection points: 5
#     Node 11, Type 0, BuildingBlock: BEQFEK_clean_sbu_0, # of connection points: 5
#     Edge 12, Type (0, 0), BuildingBlock: CIFDUS_clean_linker_0, # of connection points: 2
#     Edge 13, Type (0, 0), BuildingBlock: CIFDUS_clean_linker_0, # of connection points: 2
#     Edge 14, Type (0, 0), BuildingBlock: CIFDUS_clean_linker_0, # of connection points: 2
#     Edge 15, Type (0, 0), BuildingBlock: CIFDUS_clean_linker_0, # of connection points: 2
#     Edge 16, Type (0, 0), BuildingBlock: CIFDUS_clean_linker_0, # of connection points: 2
#     Edge 17, Type (0, 0), BuildingBlock: CIFDUS_clean_linker_0, # of connection points: 2
#     Edge 18, Type (0, 0), BuildingBlock: CIFDUS_clean_linker_0, # of connection points: 2
#     Edge 19, Type (0, 0), BuildingBlock: CIFDUS_clean_linker_0, # of connection points: 2
#     Edge 20, Type (0, 0), BuildingBlock: CIFDUS_clean_linker_0, # of connection points: 2
#     Edge 21, Type (0, 0), BuildingBlock: CIFDUS_clean_linker_0, # of connection points: 2
#     Edge 22, Type (0, 0), BuildingBlock: CIFDUS_clean_linker_0, # of connection points: 2
#     Edge 23, Type (0, 0), BuildingBlock: CIFDUS_clean_linker_0, # of connection points: 2
#     Edge 24, Type (0, 0), BuildingBlock: CIFDUS_clean_linker_0, # of connection points: 2
#     Edge 25, Type (0, 0), BuildingBlock: CIFDUS_clean_linker_0, # of connection points: 2
#     Edge 26, Type (0, 0), BuildingBlock: CIFDUS_clean_linker_0, # of connection points: 2
#     Edge 27, Type (0, 0), BuildingBlock: CIFDUS_clean_linker_0, # of connection points: 2
#     Edge 28, Type (0, 0), BuildingBlock: CIFDUS_clean_linker_0, # of connection points: 2
#     Edge 29, Type (0, 0), BuildingBlock: CIFDUS_clean_linker_0, # of connection points: 2
#     Edge 30, Type (0, 0), BuildingBlock: CIFDUS_clean_linker_0, # of connection points: 2
#     Edge 31, Type (0, 0), BuildingBlock: CIFDUS_clean_linker_0, # of connection points: 2
#     Edge 32, Type (0, 0), BuildingBlock: CIFDUS_clean_linker_0, # of connection points: 2
#     Edge 33, Type (0, 0), BuildingBlock: CIFDUS_clean_linker_0, # of connection points: 2
#     Edge 34, Type (0, 0), BuildingBlock: CIFDUS_clean_linker_0, # of connection points: 2
#     Edge 35, Type (0, 0), BuildingBlock: CIFDUS_clean_linker_0, # of connection points: 2
#     Edge 36, Type (0, 0), BuildingBlock: CIFDUS_clean_linker_0, # of connection points: 2
#     Edge 37, Type (0, 0), BuildingBlock: CIFDUS_clean_linker_0, # of connection points: 2
#     Edge 38, Type (0, 0), BuildingBlock: CIFDUS_clean_linker_0, # of connection points: 2
#     Edge 39, Type (0, 0), BuildingBlock: CIFDUS_clean_linker_0, # of connection points: 2
#     Edge 40, Type (0, 0), BuildingBlock: CIFDUS_clean_linker_0, # of connection points: 2
#     Edge 41, Type (0, 0), BuildingBlock: CIFDUS_clean_linker_0, # of connection points: 2
# Relax obj value: 0.406
# Max RMSD: 0.215
# Mean RMSD: 0.215
data_MOF--net-wjk--node1-BEQFEK_clean_sbu_0--edge1-CIFDUS_clean_linker_0
_symmetry_space_group_name_H-M    P1
_symmetry_Int_Tables_number       1
_symmetry_cell_setting            triclinic
loop_
_symmetry_equiv_pos_as_xyz
'x, y, z'
_cell_length_a     31.654869
_cell_length_b     31.706418
_cell_length_c     63.977007
_cell_angle_alpha  90.032927
_cell_angle_beta   90.039174
_cell_angle_gamma 119.99965
loop_
_atom_site_label
_atom_site_type_symbol
_atom_site_fract_x
_atom_site_fract_y
_atom_site_fract_z
_atom_type_partial_charge
Co0 Co 0.14137 0.20676 0.2766 0.0
Co1 Co 0.22737 0.29662 0.25582 0.0
C2 C 0.20748 0.19917 0.24382 0.0
O3 O 0.17034 0.18178 0.25571 0.0
O4 O 0.23658 0.24482 0.24269 0.0
C5 C 0.11814 0.12562 0.30047 0.0
O6 O 0.16466 0.14154 0.2971 0.0
C7 C 0.32777 0.36844 0.24423 0.0
C8 C 0.32488 0.43632 0.24128 0.0
C9 C 0.35643 0.41794 0.24014 0.0
N10 N 0.28156 0.3581 0.2475 0.0
N11 N 0.28002 0.39881 0.24555 0.0
C12 C 0.34467 0.33233 0.24709 0.0
H13 H 0.32034 0.30316 0.25805 0.0
H14 H 0.38257 0.35031 0.25318 0.0
H15 H 0.34362 0.31536 0.23178 0.0
C16 C 0.19325 0.25651 0.31543 0.0
N17 N 0.18818 0.25509 0.29446 0.0
N18 N 0.2272 0.29168 0.28607 0.0
C19 C 0.25946 0.31622 0.30167 0.0
C20 C 0.23889 0.29452 0.32076 0.0
C21 C 0.15587 0.22106 0.33031 0.0
H22 H 0.11872 0.2058 0.32368 0.0
H23 H 0.16368 0.19128 0.33359 0.0
H24 H 0.15735 0.23895 0.34541 0.0
O25 O 0.10266 0.22892 0.26104 0.0
O26 O 0.16333 0.28842 0.24317 0.0
H27 H 0.30773 0.38549 0.28786 0.0
H28 H 0.32589 0.37693 0.31363 0.0
C29 C 0.30944 0.35887 0.29853 0.0
H30 H 0.33305 0.3463 0.29134 0.0
H31 H 0.24861 0.40122 0.24768 0.0
O32 O 0.09888 0.14933 0.29315 0.0
C33 C 0.11748 0.26103 0.24674 0.0
Co34 Co 0.9373 0.14323 0.60782 0.0
Co35 Co 0.91648 0.2199 0.58716 0.0
C36 C 0.99913 0.20721 0.57257 0.0
O37 O 0.98939 0.1752 0.58657 0.0
O38 O 0.97378 0.22798 0.57058 0.0
C39 C 0.99792 0.1176 0.6298 0.0
O40 O 0.03101 0.16308 0.62596 0.0
C41 C 0.93467 0.31629 0.57208 0.0
C42 C 0.87152 0.31828 0.58547 0.0
C43 C 0.91564 0.34714 0.5754 0.0
N44 N 0.90417 0.27239 0.58058 0.0
N45 N 0.86597 0.27365 0.58809 0.0
C46 C 0.97989 0.32722 0.56033 0.0
H47 H 0.97324 0.29502 0.551 0.0
H48 H 0.00983 0.33568 0.57158 0.0
H49 H 0.99097 0.35813 0.54941 0.0
C50 C 0.94237 0.19595 0.6463 0.0
N51 N 0.93423 0.18837 0.6256 0.0
N52 N 0.93036 0.22414 0.61721 0.0
C53 C 0.93877 0.25723 0.63253 0.0
C54 C 0.94626 0.24002 0.65143 0.0
C55 C 0.94774 0.16237 0.6611 0.0
H56 H 0.92488 0.12403 0.656 0.0
H57 H 0.98655 0.17198 0.66169 0.0
H58 H 0.93682 0.16617 0.67716 0.0
O59 O 0.87507 0.10144 0.59377 0.0
O60 O 0.85841 0.15352 0.57767 0.0
H61 H 0.90534 0.30028 0.62724 0.0
H62 H 0.96029 0.33025 0.64262 0.0
C63 C 0.9425 0.30559 0.62912 0.0
H64 H 0.96359 0.32258 0.6147 0.0
H65 H 0.83743 0.2449 0.59613 0.0
O66 O 0.95438 0.10158 0.62366 0.0
C67 C 0.84799 0.10972 0.58179 0.0
Co68 Co 0.78751 0.91686 0.94536 0.0
Co69 Co 0.71028 0.93245 0.92251 0.0
C70 C 0.81142 0.99894 0.91327 0.0
O71 O 0.82054 0.97246 0.92532 0.0
O72 O 0.76809 0.99109 0.91119 0.0
C73 C 0.86566 0.96508 0.97173 0.0
O74 O 0.85172 0.99752 0.96948 0.0
C75 C 0.6444 0.96629 0.90621 0.0
C76 C 0.57323 0.9069 0.91711 0.0
C77 C 0.59522 0.95274 0.90801 0.0
N78 N 0.65087 0.93085 0.91453 0.0
N79 N 0.60794 0.89509 0.92059 0.0
C80 C 0.68457 0.0111 0.89622 0.0
H81 H 0.7101 0.00221 0.88814 0.0
H82 H 0.70512 0.03871 0.90846 0.0
H83 H 0.66999 0.02641 0.88455 0.0
C84 C 0.73697 0.92331 0.98293 0.0
N85 N 0.7407 0.92079 0.96202 0.0
N86 N 0.71234 0.9342 0.95275 0.0
C87 C 0.69218 0.9491 0.96764 0.0
C88 C 0.70685 0.94225 0.98732 0.0
C89 C 0.76452 0.91128 0.99859 0.0
H90 H 0.77724 0.88765 0.99155 0.0
H91 H 0.7961 0.94544 1.00449 0.0
H92 H 0.74099 0.89213 1.01219 0.0
O93 O 0.76078 0.85774 0.92846 0.0
O94 O 0.71331 0.87471 0.9088 0.0
H95 H 0.62413 0.94312 0.95942 0.0
H96 H 0.66053 0.99298 0.97678 0.0
C97 C 0.66187 0.9721 0.96312 0.0
H98 H 0.6767 0.99642 0.94936 0.0
H99 H 0.60277 0.86373 0.92818 0.0
O100 O 0.84097 0.92377 0.96298 0.0
C101 C 0.73365 0.84909 0.9125 0.0
Co102 Co 0.87136 0.78784 0.28121 0.0
Co103 Co 0.78053 0.70952 0.25756 0.0
C104 C 0.81341 0.81145 0.24918 0.0
O105 O 0.8486 0.82128 0.26161 0.0
O106 O 0.77964 0.76766 0.24635 0.0
C107 C 0.90163 0.86598 0.30784 0.0
O108 O 0.85533 0.85274 0.30567 0.0
C109 C 0.67875 0.64584 0.24412 0.0
C110 C 0.67193 0.57314 0.24579 0.0
C111 C 0.64508 0.59628 0.24274 0.0
N112 N 0.72294 0.65146 0.24841 0.0
N113 N 0.71871 0.60785 0.24898 0.0
C114 C 0.66976 0.68747 0.24079 0.0
H115 H 0.69666 0.71323 0.2294 0.0
H116 H 0.67507 0.70744 0.25568 0.0
H117 H 0.63269 0.67512 0.23456 0.0
C118 C 0.81386 0.73521 0.31833 0.0
N119 N 0.82051 0.73983 0.29746 0.0
N120 N 0.77951 0.70982 0.28793 0.0
C121 C 0.7445 0.68713 0.30271 0.0
C122 C 0.76524 0.70247 0.32248 0.0
C123 C 0.85257 0.76406 0.33418 0.0
H124 H 0.88937 0.77773 0.32744 0.0
H125 H 0.84846 0.795 0.33969 0.0
H126 H 0.8488 0.74132 0.34798 0.0
O127 O 0.9051 0.76256 0.26425 0.0
O128 O 0.84199 0.71247 0.24449 0.0
H129 H 0.68814 0.6213 0.28918 0.0
H130 H 0.67009 0.63958 0.3127 0.0
C131 C 0.69182 0.6529 0.29813 0.0
H132 H 0.67724 0.67165 0.28842 0.0
H133 H 0.74729 0.60164 0.25263 0.0
O134 O 0.91761 0.84073 0.2991 0.0
C135 C 0.88791 0.73425 0.24858 0.0
Co136 Co 0.07409 0.85649 0.604 0.0
Co137 Co 0.07891 0.77042 0.58328 0.0
C138 C 1.00078 0.78997 0.57107 0.0
O139 O 0.01775 0.8253 0.58402 0.0
O140 O 0.02032 0.76356 0.56889 0.0
C141 C 0.02149 0.88842 0.62774 0.0
O142 O 0.98675 0.84297 0.62517 0.0
C143 C 0.0555 0.67086 0.56981 0.0
C144 C 0.11934 0.66888 0.58244 0.0
C145 C 0.07407 0.63963 0.57327 0.0
N146 N 0.0876 0.71546 0.57731 0.0
N147 N 0.12604 0.71406 0.58443 0.0
C148 C 0.00907 0.65953 0.55899 0.0
H149 H 0.01419 0.69175 0.55013 0.0
H150 H 0.98 0.65008 0.57078 0.0
H151 H 0.99757 0.6289 0.54783 0.0
C152 C 0.06783 0.80362 0.64281 0.0
N153 N 0.0758 0.81057 0.62206 0.0
N154 N 0.07033 0.77063 0.61337 0.0
C155 C 0.05487 0.73568 0.62831 0.0
C156 C 0.05312 0.75558 0.64757 0.0
C157 C 0.06923 0.84068 0.65774 0.0
H158 H 0.0928 0.87802 0.65168 0.0
H159 H 0.03167 0.83379 0.66037 0.0
H160 H 0.0838 0.83769 0.6731 0.0
O161 O 0.13409 0.89364 0.58778 0.0
O162 O 0.13609 0.83352 0.57086 0.0
H163 H 0.06946 0.67887 0.6204 0.0
H164 H 0.0181 0.65983 0.63756 0.0
C165 C 0.03757 0.68318 0.62395 0.0
H166 H 0.0132 0.67109 0.6101 0.0
H167 H 0.15575 0.74334 0.5917 0.0
O168 O 0.06337 0.9024 0.62005 0.0
C169 C 0.1531 0.8792 0.57409 0.0
Co170 Co 0.20673 0.06837 0.9431 0.0
Co171 Co 0.29547 0.07273 0.92028 0.0
C172 C 0.19706 0.99366 0.9103 0.0
O173 O 0.18026 0.01123 0.92365 0.0
O174 O 0.24257 0.01342 0.9068 0.0
C175 C 0.12713 0.0116 0.96805 0.0
O176 O 0.14319 0.98114 0.96473 0.0
C177 C 0.36755 0.04841 0.9033 0.0
C178 C 0.43547 0.10598 0.91762 0.0
C179 C 0.41653 0.06262 0.90654 0.0
N180 N 0.35801 0.08069 0.91279 0.0
N181 N 0.39914 0.11566 0.92084 0.0
C182 C 0.33044 0.00597 0.89087 0.0
H183 H 0.30637 0.01633 0.88244 0.0
H184 H 0.30761 0.97543 0.90159 0.0
H185 H 0.3481 0.99397 0.87917 0.0
C186 C 0.25823 0.06394 0.98065 0.0
N187 N 0.25704 0.0715 0.95996 0.0
N188 N 0.29001 0.06496 0.95041 0.0
C189 C 0.31049 0.04903 0.9647 0.0
C190 C 0.29126 0.04821 0.98445 0.0
C191 C 0.2248 0.06662 0.99646 0.0
H192 H 0.20928 0.08886 0.99055 0.0
H193 H 0.1952 0.02932 1.00033 0.0
H194 H 0.24501 0.08332 1.01112 0.0
O195 O 0.22696 0.12757 0.92637 0.0
O196 O 0.28844 0.12957 0.90876 0.0
H197 H 0.38122 0.06149 0.95681 0.0
H198 H 0.34592 0.00747 0.97203 0.0
C199 C 0.34404 0.0302 0.9593 0.0
H200 H 0.33181 0.00873 0.94462 0.0
H201 H 0.40172 0.14444 0.92974 0.0
O202 O 0.15053 0.05434 0.96049 0.0
C203 C 0.25979 0.14647 0.91236 0.0
Co204 Co 0.78622 0.86714 0.47254 0.0
Co205 Co 0.69402 0.78635 0.49485 0.0
C206 C 0.79483 0.80573 0.50567 0.0
O207 O 0.81464 0.83735 0.49128 0.0
O208 O 0.74913 0.78454 0.50896 0.0
C209 C 0.86901 0.90437 0.44696 0.0
O210 O 0.86322 0.86069 0.44966 0.0
C211 C 0.63063 0.68426 0.50612 0.0
C212 C 0.55711 0.67582 0.50595 0.0
C213 C 0.58135 0.64963 0.50742 0.0
N214 N 0.63519 0.72844 0.50334 0.0
N215 N 0.59107 0.72325 0.50367 0.0
C216 C 0.6732 0.67602 0.50777 0.0
H217 H 0.69504 0.68825 0.49319 0.0
H218 H 0.66192 0.6375 0.51103 0.0
H219 H 0.6969 0.69817 0.52086 0.0
C220 C 0.73438 0.81367 0.43457 0.0
N221 N 0.73643 0.82084 0.45541 0.0
N222 N 0.69894 0.78373 0.46441 0.0
C223 C 0.67325 0.75038 0.4493 0.0
C224 C 0.695 0.76853 0.42995 0.0
C225 C 0.77058 0.84835 0.41911 0.0
H226 H 0.78443 0.88646 0.42416 0.0
H227 H 0.80122 0.84104 0.41766 0.0
H228 H 0.75386 0.84346 0.40341 0.0
O229 O 0.76421 0.90389 0.48954 0.0
O230 O 0.69762 0.84913 0.50617 0.0
H231 H 0.60248 0.70494 0.46236 0.0
H232 H 0.61342 0.68213 0.43826 0.0
C233 C 0.63006 0.70119 0.45317 0.0
H234 H 0.64164 0.67899 0.46227 0.0
H235 H 0.58396 0.75165 0.50121 0.0
O236 O 0.83923 0.91485 0.45541 0.0
C237 C 0.72979 0.89358 0.50238 0.0
Co238 Co 0.914 0.78555 0.80172 0.0
Co239 Co 0.92036 0.7035 0.82542 0.0
C240 C 0.99778 0.80526 0.8314 0.0
O241 O 0.97613 0.8188 0.81851 0.0
O242 O 0.98054 0.76053 0.83591 0.0
C243 C 0.95547 0.86502 0.77487 0.0
O244 O 0.99242 0.85728 0.77667 0.0
C245 C 0.95386 0.63861 0.84264 0.0
C246 C 0.89557 0.56706 0.83153 0.0
C247 C 0.94123 0.58978 0.84092 0.0
N248 N 0.9183 0.64432 0.8339 0.0
N249 N 0.88305 0.60114 0.82778 0.0
C250 C 0.99784 0.67913 0.85303 0.0
H251 H 0.98765 0.70361 0.8612 0.0
H252 H 0.02567 0.70065 0.84103 0.0
H253 H 0.0135 0.66492 0.86472 0.0
C254 C 0.91798 0.73251 0.76456 0.0
N255 N 0.91163 0.73486 0.78531 0.0
N256 N 0.92178 0.70461 0.79511 0.0
C257 C 0.93864 0.68491 0.78087 0.0
C258 C 0.93655 0.70173 0.76094 0.0
C259 C 0.91237 0.76364 0.74849 0.0
H260 H 0.88754 0.77633 0.75414 0.0
H261 H 0.94865 0.79516 0.74468 0.0
H262 H 0.89714 0.74267 0.73385 0.0
O263 O 0.85878 0.76446 0.82107 0.0
O264 O 0.86426 0.70796 0.83931 0.0
H265 H 0.9333 0.61835 0.79097 0.0
H266 H 0.98277 0.65234 0.7732 0.0
C267 C 0.96206 0.65551 0.7865 0.0
H268 H 0.98671 0.67227 0.80009 0.0
H269 H 0.85176 0.59541 0.81988 0.0
O270 O 0.91564 0.83639 0.78395 0.0
C271 C 0.84458 0.73423 0.83609 0.0
Co272 Co 0.1294 0.90185 0.13911 0.0
Co273 Co 0.22245 0.91868 0.16245 0.0
C274 C 0.18926 0.98726 0.16974 0.0
O275 O 0.15316 0.95982 0.15802 0.0
O276 O 0.22428 0.97888 0.17247 0.0
C277 C 0.0885 0.94305 0.11376 0.0
O278 O 0.13283 0.9805 0.11572 0.0
C279 C 0.32468 0.95144 0.17657 0.0
C280 C 0.32465 0.88189 0.17464 0.0
C281 C 0.35476 0.93116 0.17848 0.0
N282 N 0.27934 0.91582 0.17135 0.0
N283 N 0.27969 0.87435 0.17051 0.0
C284 C 0.33816 0.00323 0.18053 0.0
H285 H 0.30752 0.00459 0.18822 0.0
H286 H 0.34581 0.02305 0.1655 0.0
H287 H 0.37097 0.02183 0.19065 0.0
C288 C 0.18768 0.91116 0.10167 0.0
N289 N 0.18016 0.90548 0.12249 0.0
N290 N 0.22152 0.91793 0.13204 0.0
C291 C 0.25728 0.93459 0.11743 0.0
C292 C 0.2371 0.93112 0.09764 0.0
C293 C 0.14944 0.9037 0.08598 0.0
H294 H 0.11257 0.87772 0.09196 0.0
H295 H 0.1521 0.93916 0.08237 0.0
H296 H 0.15522 0.88906 0.07119 0.0
O297 O 0.09791 0.84427 0.15678 0.0
O298 O 0.16155 0.86307 0.17714 0.0
H299 H 0.31755 0.93344 0.13193 0.0
H300 H 0.33285 0.968 0.10796 0.0
C301 C 0.31047 0.9584 0.12239 0.0
H302 H 0.32131 0.99189 0.13159 0.0
H303 H 0.24948 0.84101 0.16641 0.0
O304 O 0.07873 0.90278 0.12197 0.0
C305 C 0.11569 0.83718 0.17329 0.0
Co306 Co 0.21894 0.13951 0.47418 0.0
Co307 Co 0.31006 0.22391 0.49535 0.0
C308 C 0.20954 0.20474 0.5056 0.0
O309 O 0.19002 0.17056 0.49216 0.0
O310 O 0.25544 0.22786 0.50854 0.0
C311 C 0.13638 0.09983 0.44834 0.0
O312 O 0.1419 0.14359 0.45022 0.0
C313 C 0.37466 0.32602 0.50676 0.0
C314 C 0.44668 0.3313 0.50938 0.0
C315 C 0.42365 0.35869 0.51047 0.0
N316 N 0.36896 0.28143 0.50372 0.0
N317 N 0.41213 0.28477 0.50551 0.0
C318 C 0.3347 0.33774 0.50387 0.0
H319 H 0.30766 0.31263 0.49232 0.0
H320 H 0.34943 0.37584 0.49851 0.0
H321 H 0.3158 0.3331 0.51902 0.0
C322 C 0.26998 0.19048 0.43547 0.0
N323 N 0.26837 0.18492 0.45642 0.0
N324 N 0.30534 0.22341 0.46498 0.0
C325 C 0.33026 0.25581 0.44952 0.0
C326 C 0.30845 0.23582 0.43034 0.0
C327 C 0.23429 0.15407 0.42032 0.0
H328 H 0.2209 0.11653 0.42604 0.0
H329 H 0.20328 0.16062 0.41821 0.0
H330 H 0.2514 0.15791 0.40479 0.0
O331 O 0.24084 0.10402 0.49235 0.0
O332 O 0.30598 0.16265 0.50838 0.0
H333 H 0.39989 0.30386 0.46317 0.0
H334 H 0.39019 0.32308 0.43785 0.0
C335 C 0.3727 0.30578 0.4529 0.0
H336 H 0.36001 0.32866 0.4607 0.0
H337 H 0.41826 0.25562 0.5034 0.0
O338 O 0.16613 0.09021 0.45744 0.0
C339 C 0.27505 0.11734 0.50564 0.0
Co340 Co 0.0851 0.21832 0.80632 0.0
Co341 Co 0.07784 0.30279 0.82678 0.0
C342 C 0.00173 0.20327 0.83556 0.0
O343 O 0.02595 0.18841 0.82499 0.0
O344 O 0.01541 0.24832 0.83681 0.0
C345 C 0.04155 0.13707 0.78036 0.0
O346 O 0.00529 0.14596 0.78166 0.0
C347 C 0.04769 0.37071 0.84339 0.0
C348 C 0.10383 0.44025 0.82976 0.0
C349 C 0.05994 0.41918 0.84055 0.0
N350 N 0.08164 0.36352 0.83397 0.0
N351 N 0.11571 0.40559 0.82634 0.0
C352 C 0.00591 0.33209 0.85558 0.0
H353 H 0.01726 0.30815 0.86341 0.0
H354 H 0.97533 0.30951 0.84479 0.0
H355 H 0.99338 0.34834 0.86773 0.0
C356 C 0.08562 0.26863 0.76727 0.0
N357 N 0.08707 0.26639 0.7883 0.0
N358 N 0.07842 0.29923 0.79656 0.0
C359 C 0.0674 0.32092 0.78087 0.0
C360 C 0.07219 0.30258 0.76175 0.0
C361 C 0.09332 0.23636 0.75255 0.0
H362 H 0.11647 0.22337 0.75986 0.0
H363 H 0.05748 0.20489 0.74812 0.0
H364 H 0.11129 0.25614 0.738 0.0
O365 O 0.1423 0.24261 0.82424 0.0
O366 O 0.13146 0.29593 0.8425 0.0
H367 H 0.08075 0.39301 0.78597 0.0
H368 H 0.02758 0.35597 0.77043 0.0
C369 C 0.04912 0.35576 0.78408 0.0
H370 H 0.02643 0.34608 0.79839 0.0
H371 H 0.14559 0.40999 0.81769 0.0
O372 O 0.08117 0.16479 0.78983 0.0
C373 C 0.15343 0.2716 0.83961 0.0
Co374 Co 0.86563 0.08076 0.14274 0.0
Co375 Co 0.77599 0.0807 0.16224 0.0
C376 C 0.79533 0.00241 0.17323 0.0
O377 O 0.83408 0.02419 0.16231 0.0
O378 O 0.76519 0.0179 0.17406 0.0
C379 C 0.90189 0.03134 0.11923 0.0
O380 O 0.85676 0.99546 0.12129 0.0
C381 C 0.67382 0.05537 0.17111 0.0
C382 C 0.68157 0.12826 0.17413 0.0
C383 C 0.64714 0.07902 0.17402 0.0
N384 N 0.72152 0.08916 0.16951 0.0
N385 N 0.72581 0.13259 0.17161 0.0
C386 C 0.65414 0.00202 0.16778 0.0
H387 H 0.6806 0.99561 0.159 0.0
H388 H 0.619 0.98561 0.15917 0.0
H389 H 0.64769 0.98382 0.1832 0.0
C390 C 0.81823 0.08138 0.10311 0.0
N391 N 0.82093 0.08359 0.12416 0.0
N392 N 0.78074 0.07995 0.13186 0.0
C393 C 0.75015 0.073 0.11564 0.0
C394 C 0.77302 0.07366 0.09692 0.0
C395 C 0.85693 0.0833 0.08903 0.0
H396 H 0.89354 0.10664 0.09593 0.0
H397 H 0.85057 0.04591 0.0867 0.0
H398 H 0.85578 0.09803 0.07347 0.0
O399 O 0.90091 0.13938 0.15962 0.0
O400 O 0.8382 0.13383 0.17739 0.0
H401 H 0.6988 0.09095 0.12863 0.0
H402 H 0.6842 0.06613 0.10244 0.0
C403 C 0.69927 0.06389 0.11781 0.0
H404 H 0.67578 0.027 0.12435 0.0
H405 H 0.75881 0.16531 0.17055 0.0
O406 O 0.91401 0.07254 0.12716 0.0
C407 C 0.8844 0.15347 0.17447 0.0
H408 H 0.58275 0.5114 0.22335 0.0
H409 H 0.58597 0.62328 0.26282 0.0
H410 H 0.49715 0.57969 0.26415 0.0
H411 H 0.41833 0.5075 0.25571 0.0
H412 H 0.41465 0.39374 0.21745 0.0
H413 H 0.50349 0.43977 0.21424 0.0
C414 C 0.56389 0.52643 0.23203 0.0
C415 C 0.591 0.57142 0.24232 0.0
C416 C 0.51263 0.50039 0.23322 0.0
C417 C 0.56612 0.58996 0.2539 0.0
C418 C 0.51522 0.56462 0.25496 0.0
C419 C 0.437 0.493 0.24654 0.0
C420 C 0.41004 0.44686 0.23719 0.0
C421 C 0.4881 0.51964 0.24482 0.0
C422 C 0.43467 0.42854 0.22531 0.0
C423 C 0.48546 0.45503 0.22334 0.0
H424 H 0.97574 0.56931 0.57264 0.0
H425 H 0.12008 0.58696 0.57039 0.0
H426 H 0.08476 0.49887 0.57084 0.0
H427 H 0.01347 0.41747 0.5742 0.0
H428 H 0.86896 0.39918 0.57165 0.0
H429 H 0.90417 0.4874 0.57063 0.0
C430 C 0.99977 0.55448 0.57119 0.0
C431 C 0.05084 0.58559 0.57092 0.0
C432 C 0.97919 0.50347 0.57084 0.0
C433 C 0.08071 0.56437 0.57048 0.0
C434 C 0.06054 0.51381 0.57074 0.0
C435 C 0.98933 0.43209 0.57231 0.0
C436 C 0.93831 0.40089 0.57233 0.0
C437 C 0.00982 0.48297 0.57109 0.0
C438 C 0.90831 0.42192 0.57146 0.0
C439 C 0.92843 0.47252 0.57088 0.0
H440 H 0.51436 0.09933 0.90403 0.0
H441 H 0.37831 0.96278 0.90396 0.0
H442 H 0.422 0.91856 0.90111 0.0
H443 H 0.49875 0.91748 0.90168 0.0
H444 H 0.63429 0.05302 0.90876 0.0
H445 H 0.5913 0.09811 0.90569 0.0
C446 C 0.49416 0.0599 0.90309 0.0
C447 C 0.44273 0.03498 0.90317 0.0
C448 C 0.51972 0.03416 0.9028 0.0
C449 C 0.41748 0.98371 0.90255 0.0
C450 C 0.44264 0.95802 0.9014 0.0
C451 C 0.51911 0.95695 0.90229 0.0
C452 C 0.57024 0.98149 0.90452 0.0
C453 C 0.49373 0.98281 0.90181 0.0
C454 C 0.59556 0.0327 0.90578 0.0
C455 C 0.57071 0.05875 0.90448 0.0
H456 H 0.50029 0.58215 0.52799 0.0
H457 H 0.60803 0.59615 0.48306 0.0
H458 H 0.57067 0.50792 0.48114 0.0
H459 H 0.50639 0.42626 0.49163 0.0
H460 H 0.39513 0.41104 0.53475 0.0
H461 H 0.43429 0.49977 0.53788 0.0
C462 C 0.51565 0.56574 0.5179 0.0
C463 C 0.55818 0.59577 0.50642 0.0
C464 C 0.49306 0.51464 0.51643 0.0
C465 C 0.57689 0.57404 0.49293 0.0
C466 C 0.55513 0.52347 0.49159 0.0
C467 C 0.49096 0.44246 0.5018 0.0
C468 C 0.44787 0.41229 0.51285 0.0
C469 C 0.51332 0.4934 0.5033 0.0
C470 C 0.42795 0.43362 0.52586 0.0
C471 C 0.45043 0.48432 0.52771 0.0
H472 H 0.90868 0.49384 0.847 0.0
H473 H 0.04186 0.63162 0.84006 0.0
H474 H 0.0894 0.5912 0.8427 0.0
H475 H 0.09353 0.51606 0.84377 0.0
H476 H 0.95948 0.37762 0.84365 0.0
H477 H 0.91271 0.41862 0.84712 0.0
C478 C 0.94817 0.5152 0.84635 0.0
C479 C 0.97131 0.56621 0.8443 0.0
C480 C 0.97549 0.49131 0.84654 0.0
C481 C 0.02257 0.59292 0.84295 0.0
C482 C 0.05005 0.56956 0.84399 0.0
C483 C 0.05409 0.49472 0.84479 0.0
C484 C 0.03067 0.44347 0.84439 0.0
C485 C 0.02688 0.51871 0.84546 0.0
C486 C 0.97934 0.41674 0.8452 0.0
C487 C 0.95217 0.44034 0.84673 0.0
H488 H 0.42546 0.01931 0.16328 0.0
H489 H 0.4051 0.89533 0.19909 0.0
H490 H 0.49344 0.92977 0.20123 0.0
H491 H 0.57672 0.99449 0.19229 0.0
H492 H 0.59661 0.1184 0.15655 0.0
H493 H 0.50851 0.08544 0.15562 0.0
C494 C 0.44024 0.00047 0.1721 0.0
C495 C 0.40853 0.95523 0.18142 0.0
C496 C 0.49117 0.0204 0.17318 0.0
C497 C 0.42864 0.93041 0.19193 0.0
C498 C 0.47919 0.95004 0.19314 0.0
C499 C 0.56178 0.01398 0.18409 0.0
C500 C 0.59332 0.05844 0.17416 0.0
C501 C 0.51087 0.99478 0.18362 0.0
C502 C 0.57324 0.08401 0.16426 0.0
C503 C 0.52278 0.06514 0.16367 0.0
H504 H 0.2732 0.29349 0.41732 0.0
H505 H 0.35495 0.22635 0.39653 0.0
H506 H 0.3468 0.24545 0.36012 0.0
H507 H 0.30543 0.27011 0.33397 0.0
H508 H 0.22011 0.33335 0.35487 0.0
H509 H 0.24096 0.32788 0.39128 0.0
C510 C 0.29071 0.28476 0.40482 0.0
C511 C 0.31533 0.25928 0.40955 0.0
C512 C 0.28454 0.29463 0.38388 0.0
C513 C 0.33669 0.2468 0.39324 0.0
C514 C 0.33153 0.25726 0.37242 0.0
C515 C 0.29287 0.28415 0.34651 0.0
C516 C 0.26162 0.30249 0.34181 0.0
C517 C 0.30406 0.27964 0.36748 0.0
C518 C 0.24462 0.31961 0.35816 0.0
C519 C 0.25623 0.31609 0.37898 0.0
H520 H 0.0386 0.29939 0.66485 0.0
H521 H 0.88889 0.2297 0.68475 0.0
H522 H 0.91496 0.2488 0.72131 0.0
H523 H 0.98047 0.2744 0.74784 0.0
H524 H 0.13008 0.34195 0.72778 0.0
H525 H 0.10448 0.33536 0.69122 0.0
C526 C 0.01189 0.29015 0.67718 0.0
C527 C 0.96194 0.26399 0.67217 0.0
C528 C 0.02729 0.3002 0.6982 0.0
C529 C 0.9275 0.2508 0.68826 0.0
C530 C 0.94246 0.26121 0.70918 0.0
C531 C 0.00743 0.28906 0.73546 0.0
C532 C 0.05712 0.30873 0.74044 0.0
C533 C 0.99223 0.28439 0.7144 0.0
C534 C 0.09169 0.32681 0.72427 0.0
C535 C 0.07701 0.3228 0.70337 0.0
H536 H 0.7069 0.9829 0.08357 0.0
H537 H 0.79543 0.1306 0.06235 0.0
H538 H 0.77715 0.10352 1.0259 0.0
H539 H 0.74537 0.03623 1.00011 0.0
H540 H 0.65981 0.88821 1.02143 0.0
H541 H 0.66679 0.9165 0.05759 0.0
C542 C 0.7208 0.00917 0.07092 0.0
C543 C 0.75215 0.0587 0.07556 0.0
C544 C 0.71112 0.99303 0.04998 0.0
C545 C 0.77083 0.09239 0.0591 0.0
C546 C 0.7607 0.07681 1.03826 0.0
C547 C 0.72704 0.01041 1.01264 0.0
C548 C 0.70186 0.96022 1.00815 0.0
C549 C 0.73221 0.02704 1.03348 0.0
C550 C 0.67911 0.927 1.02454 0.0
C551 C 0.68336 0.94319 0.04522 0.0
H552 H 0.72465 0.70543 0.41827 0.0
H553 H 0.65181 0.78007 0.39545 0.0
H554 H 0.66082 0.7596 0.35938 0.0
H555 H 0.7016 0.73208 0.33425 0.0
H556 H 0.77724 0.66025 0.35721 0.0
H557 H 0.7547 0.66719 0.39313 0.0
C558 C 0.70911 0.71545 0.4054 0.0
C559 C 0.68701 0.74361 0.40945 0.0
C560 C 0.71583 0.70476 0.38467 0.0
C561 C 0.66814 0.75762 0.39267 0.0
C562 C 0.67386 0.74641 0.37205 0.0
C563 C 0.7117 0.71659 0.34711 0.0
C564 C 0.74117 0.69582 0.34316 0.0
C565 C 0.69933 0.72164 0.3678 0.0
C566 C 0.75465 0.67647 0.35993 0.0
C567 C 0.74194 0.68065 0.38047 0.0
H568 H 0.08828 0.76522 0.68721 0.0
H569 H 0.95613 0.69141 0.65102 0.0
H570 H 0.90774 0.66336 0.68314 0.0
H571 H 0.90255 0.66823 0.72165 0.0
H572 H 0.0348 0.74334 0.75774 0.0
H573 H 0.08357 0.76204 0.72583 0.0
C574 C 0.04898 0.74199 0.68644 0.0
C575 C 0.02577 0.73012 0.6668 0.0
C576 C 0.02138 0.72664 0.70503 0.0
C577 C 0.97481 0.7004 0.66595 0.0
C578 C 0.94713 0.68478 0.68433 0.0
C579 C 0.94206 0.68769 0.72249 0.0
C580 C 0.96509 0.70407 0.74202 0.0
C581 C 0.96988 0.69882 0.70397 0.0
C582 C 0.0163 0.72971 0.74293 0.0
C583 C 0.04418 0.74078 0.72465 0.0
H584 H 0.32095 0.08285 1.02389 0.0
H585 H 0.25656 0.95097 0.98746 0.0
H586 H 0.23859 0.90238 1.01939 0.0
H587 H 0.23257 0.8971 0.05799 0.0
H588 H 0.29541 0.02905 0.0944 0.0
H589 H 0.32324 0.07784 0.06244 0.0
C590 C 0.30407 0.04354 1.023 0.0
C591 C 0.29044 0.0205 1.00337 0.0
C592 C 0.29318 0.01582 0.0415 0.0
C593 C 0.2681 0.96952 1.00237 0.0
C594 C 0.25739 0.94172 1.02065 0.0
C595 C 0.2532 0.93653 0.05887 0.0
C596 C 0.26198 0.95947 0.07851 0.0
C597 C 0.26851 0.96437 1.04035 0.0
C598 C 0.28871 0.01057 0.07948 0.0
C599 C 0.30424 0.03848 0.06119 0.0
H600 H 0.02609 0.0892 0.31477 0.0
H601 H 0.14099 0.05461 0.30761 0.0
H602 H 0.08332 0.96898 0.31456 0.0
H603 H 0.99826 0.90331 0.31463 0.0
H604 H 0.88279 0.93776 0.31948 0.0
H605 H 0.94284 0.02416 0.32214 0.0
C606 C 0.03866 0.06304 0.31517 0.0
C607 C 0.08712 0.07763 0.30996 0.0
C608 C 0.00514 0.01383 0.31858 0.0
C609 C 0.1035 0.04392 0.31117 0.0
C610 C 0.07054 0.99494 0.31506 0.0
C611 C 0.98626 0.92963 0.3168 0.0
C612 C 0.93635 0.91455 0.31605 0.0
C613 C 0.02086 0.97925 0.31754 0.0
C614 C 0.92115 0.94869 0.31952 0.0
C615 C 0.95544 0.99813 0.32092 0.0
H616 H 0.93757 0.02511 0.6422 0.0
H617 H 0.09 0.13263 0.63548 0.0
H618 H 0.1118 0.06924 0.63911 0.0
H619 H 0.0859 0.98281 0.63621 0.0
H620 H 0.93278 0.87511 0.63961 0.0
H621 H 0.9129 0.93916 0.6457 0.0
C622 C 0.97566 0.03482 0.64197 0.0
C623 C 0.01204 0.08302 0.63784 0.0
C624 C 0.98767 0.99809 0.64318 0.0
C625 C 0.06129 0.0955 0.63823 0.0
C626 C 0.07374 0.05926 0.64019 0.0
C627 C 0.04824 0.97326 0.6387 0.0
C628 C 0.01067 0.92463 0.63672 0.0
C629 C 0.03698 0.01026 0.64137 0.0
C630 C 0.96224 0.9125 0.6406 0.0
C631 C 0.95083 0.94908 0.64401 0.0
H632 H 0.08904 0.06641 0.98149 0.0
H633 H 0.05661 0.91758 0.97526 0.0
H634 H 0.97023 0.88864 0.98091 0.0
H635 H 0.90377 0.90688 0.97944 0.0
H636 H 0.93623 0.0561 0.98354 0.0
H637 H 0.02274 0.08353 0.98749 0.0
C638 C 0.06317 0.02761 0.98185 0.0
C639 C 0.07867 0.99422 0.97723 0.0
C640 C 0.01352 0.01133 0.98449 0.0
C641 C 0.04527 0.94404 0.97837 0.0
C642 C 0.99584 0.92745 0.9815 0.0
C643 C 0.92966 0.94529 0.98171 0.0
C644 C 0.91407 0.97959 0.9804 0.0
C645 C 0.9794 0.96093 0.98328 0.0
C646 C 0.94759 0.02906 0.98401 0.0
C647 C 0.9971 0.04483 0.98617 0.0
H648 H 0.95028 0.90149 0.43645 0.0
H649 H 0.88751 0.99501 0.43594 0.0
H650 H 0.96799 0.06603 0.43081 0.0
H651 H 0.05591 0.10189 0.43563 0.0
H652 H 0.11852 0.00842 0.43919 0.0
H653 H 0.03854 0.93712 0.43341 0.0
C654 C 0.95406 0.93723 0.4346 0.0
C655 C 0.91361 0.94345 0.43742 0.0
C656 C 1.00055 0.97804 0.43255 0.0
C657 C 0.91862 0.98967 0.43447 0.0
C658 C 0.96458 0.03031 0.43158 0.0
C659 C 0.05225 0.06606 0.43455 0.0
C660 C 0.09239 0.06004 0.43868 0.0
C661 C 0.00597 0.02514 0.43207 0.0
C662 C 0.0876 0.01367 0.4367 0.0
C663 C 0.04191 0.97287 0.43343 0.0
H664 H 0.04144 0.94464 0.76513 0.0
H665 H 0.88615 0.88957 0.76611 0.0
H666 H 0.90006 0.97222 0.76295 0.0
H667 H 0.9561 0.05923 0.76833 0.0
H668 H 0.11121 0.11369 0.77085 0.0
H669 H 0.09769 0.03227 0.76382 0.0
C670 C 0.0106 0.95058 0.76404 0.0
C671 C 0.96298 0.91146 0.76654 0.0
C672 C 0.0189 0.9982 0.76324 0.0
C673 C 0.92328 0.91945 0.76472 0.0
C674 C 0.93119 0.96668 0.76301 0.0
C675 C 0.987 0.0535 0.7668 0.0
C676 C 0.03438 0.09184 0.77077 0.0
C677 C 0.97885 0.00635 0.76361 0.0
C678 C 0.07422 0.08426 0.76837 0.0
C679 C 0.06654 0.03776 0.76438 0.0
H680 H 0.89383 0.94432 0.10976 0.0
H681 H 0.99487 0.09919 0.10871 0.0
H682 H 0.06221 0.08452 0.10195 0.0
H683 H 0.0936 0.02827 0.10362 0.0
H684 H 0.99326 0.87354 0.10755 0.0
H685 H 0.92434 0.88755 0.10528 0.0
C686 C 0.9304 0.97485 0.10756 0.0
C687 C 0.9397 0.02266 0.11035 0.0
C688 C 0.96915 0.96617 0.10439 0.0
C689 C 0.98707 0.06194 0.10713 0.0
C690 C 0.02559 0.05363 0.10327 0.0
C691 C 0.05669 0.99751 0.10344 0.0
C692 C 0.04843 0.95013 0.1064 0.0
C693 C 0.01734 0.00593 0.10301 0.0
C694 C 1.00048 0.91054 0.10574 0.0
C695 C 0.96104 0.9185 0.10454 0.0
H696 H 0.98067 0.22085 0.16903 0.0
H697 H 0.86992 0.15582 0.21659 0.0
H698 H 0.93285 0.18902 0.24374 0.0
H699 H 0.01986 0.22522 0.25357 0.0
H700 H 0.13045 0.29115 0.20594 0.0
H701 H 0.06729 0.26964 0.17941 0.0
C702 C 0.97013 0.2151 0.18537 0.0
C703 C 0.92037 0.18542 0.19067 0.0
C704 C 0.00671 0.23394 0.20094 0.0
C705 C 0.90763 0.17864 0.21195 0.0
C706 C 0.9438 0.19721 0.22753 0.0
C707 C 0.03028 0.23601 0.23746 0.0
C708 C 0.08017 0.25942 0.23183 0.0
C709 C 0.99355 0.22323 0.22217 0.0
C710 C 0.09267 0.27332 0.21085 0.0
C711 C 0.0564 0.2606 0.19558 0.0
H712 H 0.8172 0.10191 0.54105 0.0
H713 H 0.79084 0.01926 0.59778 0.0
H714 H 0.74263 0.94342 0.57853 0.0
H715 H 0.72065 0.89985 0.54467 0.0
H716 H 0.75162 0.98243 0.48771 0.0
H717 H 0.78383 0.05798 0.5077 0.0
C718 C 0.79937 0.06743 0.54929 0.0
C719 C 0.80781 0.06654 0.57088 0.0
C720 C 0.77281 0.0234 0.53792 0.0
C721 C 0.78509 0.0212 0.58119 0.0
C722 C 0.75767 0.97761 0.57014 0.0
C723 C 0.73253 0.93415 0.5367 0.0
C724 C 0.73333 0.93524 0.51468 0.0
C725 C 0.75298 0.97803 0.54835 0.0
C726 C 0.75022 0.98038 0.50463 0.0
C727 C 0.76916 0.02381 0.51607 0.0
H728 H 0.78346 0.77136 0.8313 0.0
H729 H 0.83282 0.70583 0.87717 0.0
H730 H 0.79609 0.72971 0.90498 0.0
H731 H 0.76141 0.78032 0.9167 0.0
H732 H 0.71208 0.84584 0.8708 0.0
H733 H 0.73636 0.81011 0.84275 0.0
C734 C 0.7852 0.7612 0.84733 0.0
C735 C 0.81155 0.7372 0.85204 0.0
C736 C 0.76435 0.77557 0.86336 0.0
C737 C 0.81289 0.72412 0.87294 0.0
C738 C 0.79218 0.73821 0.88894 0.0
C739 C 0.75474 0.78581 0.90057 0.0
C740 C 0.73532 0.81641 0.896 0.0
C741 C 0.76948 0.76559 0.88441 0.0
C742 C 0.72677 0.82259 0.87494 0.0
C743 C 0.74116 0.80247 0.85881 0.0
H744 H 0.01845 0.77068 0.16901 0.0
H745 H 0.13257 0.83581 0.21536 0.0
H746 H 0.07152 0.80335 0.24316 0.0
H747 H 0.98555 0.76778 0.25404 0.0
H748 H 0.87146 0.70413 0.20761 0.0
H749 H 0.93255 0.72403 0.18031 0.0
C750 C 0.03022 0.77683 0.1852 0.0
C751 C 0.08042 0.80632 0.18994 0.0
C752 C 0.99469 0.7588 0.20118 0.0
C753 C 0.09454 0.81336 0.21109 0.0
C754 C 0.05945 0.79514 0.22706 0.0
C755 C 0.97381 0.75717 0.23802 0.0
C756 C 0.92359 0.73486 0.23299 0.0
C757 C 0.00935 0.7695 0.22226 0.0
C758 C 0.90951 0.72121 0.21209 0.0
C759 C 0.94461 0.733 0.19638 0.0
H760 H 0.21872 0.97509 0.58198 0.0
H761 H 0.16486 0.86847 0.53245 0.0
H762 H 0.20389 0.9334 0.50651 0.0
H763 H 0.24175 0.02099 0.49776 0.0
H764 H 0.298 0.12762 0.54725 0.0
H765 H 0.27054 0.06248 0.57321 0.0
C766 C 0.21675 0.96593 0.56554 0.0
C767 C 0.18844 0.9167 0.55925 0.0
C768 C 0.2393 0.00367 0.55062 0.0
C769 C 0.18652 0.90572 0.53784 0.0
C770 C 0.20846 0.94303 0.52294 0.0
C771 C 0.24936 0.03006 0.5142 0.0
C772 C 0.27175 0.07938 0.52049 0.0
C773 C 0.23329 0.99222 0.5291 0.0
C774 C 0.2813 0.09027 0.54187 0.0
C775 C 0.26505 0.05286 0.55678 0.0
H776 H 0.21946 0.20432 0.91917 0.0
H777 H 0.29467 0.16867 0.87234 0.0
H778 H 0.27444 0.21137 0.84593 0.0
H779 H 0.22444 0.24737 0.83509 0.0
H780 H 0.14991 0.28394 0.88183 0.0
H781 H 0.18165 0.25348 0.90924 0.0
C782 C 0.23248 0.20686 0.90329 0.0
C783 C 0.25815 0.18258 0.8978 0.0
C784 C 0.22044 0.23142 0.88806 0.0
C785 C 0.27497 0.18683 0.87714 0.0
C786 C 0.26304 0.21101 0.86193 0.0
C787 C 0.21629 0.25005 0.85134 0.0
C788 C 0.1844 0.26771 0.85629 0.0
C789 C 0.23423 0.23182 0.86704 0.0
C790 C 0.1745 0.27096 0.87747 0.0
C791 C 0.19222 0.25292 0.89318 0.0
H792 H 0.13695 0.12086 0.22401 0.0
H793 H 0.29283 0.20283 0.23226 0.0
H794 H 0.30182 0.14458 0.20995 0.0
H795 H 0.26418 0.06856 0.18862 0.0
H796 H 0.1083 0.99235 0.17862 0.0
H797 H 0.10062 0.05023 0.20086 0.0
C798 C 0.17291 0.1259 0.22096 0.0
C799 C 0.2141 0.16549 0.23 0.0
C800 C 0.17778 0.09334 0.20769 0.0
C801 C 0.26058 0.17235 0.22554 0.0
C802 C 0.26566 0.13906 0.21281 0.0
C803 C 0.22866 0.0649 0.19123 0.0
C804 C 0.1869 0.02587 0.18199 0.0
C805 C 0.2244 0.09917 0.20385 0.0
C806 C 0.14115 0.02197 0.1854 0.0
C807 C 0.13658 0.05497 0.19824 0.0
H808 H 0.08867 0.21985 0.58046 0.0
H809 H 0.99466 0.21276 0.53023 0.0
H810 H 0.05186 0.21214 0.50455 0.0
H811 H 0.12586 0.20666 0.49669 0.0
H812 H 0.22296 0.22171 0.5471 0.0
H813 H 0.16773 0.22645 0.57237 0.0
C814 C 0.08127 0.21912 0.56386 0.0
C815 C 0.03756 0.21611 0.5572 0.0
C816 C 0.11471 0.21973 0.54924 0.0
C817 C 0.02832 0.21542 0.53568 0.0
C818 C 0.06082 0.21466 0.52102 0.0
C819 C 0.13504 0.21158 0.51318 0.0
C820 C 0.17814 0.21336 0.52006 0.0
C821 C 0.10366 0.2157 0.52764 0.0
C822 C 0.19003 0.22034 0.54143 0.0
C823 C 0.15838 0.22286 0.55591 0.0
H824 H 0.99426 0.1257 0.85607 0.0
H825 H 0.91744 0.20369 0.84481 0.0
H826 H 0.85099 0.14728 0.8678 0.0
H827 H 0.8152 0.07561 0.89148 0.0
H828 H 0.89761 0.0037 0.90469 0.0
H829 H 0.96137 0.05809 0.88086 0.0
C830 C 0.96269 0.13 0.85847 0.0
C831 C 0.96022 0.16813 0.84848 0.0
C832 C 0.92582 0.09879 0.8723 0.0
C833 C 0.91983 0.17421 0.85219 0.0
C834 C 0.88197 0.14209 0.86538 0.0
C835 C 0.84725 0.07209 0.88921 0.0
C836 C 0.85136 0.03543 0.8999 0.0
C837 C 0.88466 0.10429 0.87563 0.0
C838 C 0.89337 0.03162 0.89683 0.0
C839 C 0.92989 0.06257 0.88307 0.0
H840 H 0.73869 0.81553 0.22875 0.0
H841 H 0.89385 0.89773 0.24044 0.0
H842 H 0.90154 0.96225 0.21757 0.0
H843 H 0.86547 0.99538 0.19375 0.0
H844 H 0.71007 0.91918 0.18373 0.0
H845 H 0.70114 0.8524 0.20632 0.0
C846 C 0.77406 0.8477 0.22635 0.0
C847 C 0.81562 0.85151 0.2363 0.0
C848 C 0.77828 0.88566 0.21335 0.0
C849 C 0.86115 0.89371 0.23313 0.0
C850 C 0.86573 0.93068 0.21994 0.0
C851 C 0.82962 0.96401 0.19641 0.0
C852 C 0.78859 0.96171 0.18683 0.0
C853 C 0.82473 0.92691 0.20986 0.0
C854 C 0.74223 0.92151 0.19085 0.0
C855 C 0.73718 0.88342 0.20376 0.0
H856 H 0.86637 0.78435 0.49691 0.0
H857 H 0.79301 0.81031 0.54774 0.0
H858 H 0.84925 0.80627 0.57284 0.0
H859 H 0.92262 0.80036 0.58008 0.0
H860 H 0.99112 0.76608 0.52983 0.0
H861 H 0.93328 0.76753 0.50482 0.0
C862 C 0.86257 0.78856 0.51351 0.0
C863 C 0.82605 0.79803 0.52053 0.0
C864 C 0.89413 0.78466 0.52793 0.0
C865 C 0.8209 0.80291 0.54205 0.0
C866 C 0.85311 0.80076 0.55638 0.0
C867 C 0.92434 0.79252 0.56369 0.0
C868 C 0.96121 0.78347 0.55676 0.0
C869 C 0.8903 0.79234 0.54948 0.0
C870 C 0.96287 0.77293 0.53554 0.0
C871 C 0.93003 0.77409 0.52121 0.0
H872 H 0.18363 0.98959 0.86849 0.0
H873 H 0.13124 0.9041 0.92467 0.0
H874 H 0.06773 0.83577 0.90464 0.0
H875 H 0.02364 0.80268 0.87155 0.0
H876 H 0.06943 0.8922 0.81623 0.0
H877 H 0.13897 0.95656 0.83532 0.0
C878 C 0.15869 0.9556 0.87618 0.0
C879 C 0.16229 0.95123 0.89788 0.0
C880 C 0.12092 0.91747 0.86471 0.0
C881 C 0.12921 0.90778 0.90792 0.0
C882 C 0.0929 0.8689 0.89649 0.0
C883 C 0.04928 0.83604 0.86363 0.0
C884 C 0.04174 0.84261 0.84248 0.0
C885 C 0.0879 0.87361 0.87494 0.0
C886 C 0.07458 0.88636 0.8325 0.0
C887 C 0.11429 0.92313 0.84341 0.0
loop_
_geom_bond_atom_site_label_1
_geom_bond_atom_site_label_2
_geom_bond_distance
_geom_bond_site_symmetry_2
_ccdc_geom_bond_type
Co0 O3 1.970 . S
Co0 N17 1.989 . S
Co0 O25 1.967 . S
Co0 O32 1.920 . S
Co1 O4 1.966 . S
Co1 N10 2.022 . S
Co1 N18 1.993 . S
Co1 O26 1.941 . S
C2 O3 1.258 . S
C2 O4 1.263 . S
O3 Co0 1.970 . S
O3 C2 1.258 . S
O4 Co1 1.966 . S
O4 C2 1.263 . S
C5 O6 1.235 . S
C5 O32 1.289 . S
O6 C5 1.235 . S
C7 C9 1.400 . S
C7 N10 1.351 . S
C7 C12 1.501 . S
C8 C9 1.387 . S
C8 N11 1.341 . S
C9 C7 1.400 . S
C9 C8 1.387 . S
N10 Co1 2.022 . S
N10 C7 1.351 . S
N10 N11 1.365 . S
N11 C8 1.341 . S
N11 N10 1.365 . S
N11 H31 0.862 . S
C12 C7 1.501 . S
C12 H13 0.961 . S
C12 H14 0.961 . S
C12 H15 0.960 . S
H13 C12 0.961 . S
H14 C12 0.961 . S
H15 C12 0.960 . S
C16 N17 1.342 . S
C16 C20 1.401 . S
C16 C21 1.499 . S
N17 Co0 1.989 . S
N17 C16 1.342 . S
N17 N18 1.388 . S
N18 Co1 1.993 . S
N18 N17 1.388 . S
N18 C19 1.346 . S
C19 N18 1.346 . S
C19 C20 1.396 . S
C19 C29 1.510 . S
C20 C16 1.401 . S
C20 C19 1.396 . S
C21 C16 1.499 . S
C21 H22 0.959 . S
C21 H23 0.960 . S
C21 H24 0.961 . S
H22 C21 0.959 . S
H23 C21 0.960 . S
H24 C21 0.961 . S
O25 Co0 1.967 . S
O25 C33 1.258 . S
O26 Co1 1.941 . S
O26 C33 1.266 . S
H27 C29 0.959 . S
H28 C29 0.961 . S
C29 C19 1.510 . S
C29 H27 0.959 . S
C29 H28 0.961 . S
C29 H30 0.960 . S
H30 C29 0.960 . S
H31 N11 0.862 . S
O32 Co0 1.920 . S
O32 C5 1.289 . S
C33 O25 1.258 . S
C33 O26 1.266 . S
Co34 O37 1.970 1_655 S
Co34 N51 1.989 . S
Co34 O59 1.967 . S
Co34 O66 1.920 . S
Co35 O38 1.966 . S
Co35 N44 2.022 . S
Co35 N52 1.993 . S
Co35 O60 1.941 . S
C36 O37 1.258 . S
C36 O38 1.263 1_455 S
O37 Co34 1.970 1_455 S
O37 C36 1.258 . S
O38 Co35 1.966 . S
O38 C36 1.263 1_655 S
C39 O40 1.235 1_655 S
C39 O66 1.289 . S
O40 C39 1.235 1_455 S
C41 C43 1.400 . S
C41 N44 1.351 . S
C41 C46 1.501 1_655 S
C42 C43 1.387 . S
C42 N45 1.341 . S
C43 C41 1.400 . S
C43 C42 1.387 . S
N44 Co35 2.022 . S
N44 C41 1.351 . S
N44 N45 1.365 . S
N45 C42 1.341 . S
N45 N44 1.365 . S
N45 H65 0.862 . S
C46 C41 1.501 1_455 S
C46 H47 0.961 . S
C46 H48 0.961 . S
C46 H49 0.960 . S
H47 C46 0.961 . S
H48 C46 0.961 . S
H49 C46 0.960 . S
C50 N51 1.342 . S
C50 C54 1.401 . S
C50 C55 1.499 . S
N51 Co34 1.989 . S
N51 C50 1.342 . S
N51 N52 1.388 . S
N52 Co35 1.993 . S
N52 N51 1.388 . S
N52 C53 1.346 . S
C53 N52 1.346 . S
C53 C54 1.396 . S
C53 C63 1.510 . S
C54 C50 1.401 . S
C54 C53 1.396 . S
C55 C50 1.499 . S
C55 H56 0.959 . S
C55 H57 0.960 . S
C55 H58 0.961 . S
H56 C55 0.959 . S
H57 C55 0.960 . S
H58 C55 0.961 . S
O59 Co34 1.967 . S
O59 C67 1.258 . S
O60 Co35 1.941 . S
O60 C67 1.266 . S
H61 C63 0.959 . S
H62 C63 0.961 . S
C63 C53 1.510 . S
C63 H61 0.959 . S
C63 H62 0.961 . S
C63 H64 0.960 . S
H64 C63 0.960 . S
H65 N45 0.862 . S
O66 Co34 1.920 . S
O66 C39 1.289 . S
C67 O59 1.258 . S
C67 O60 1.266 . S
Co68 O71 1.970 1_565 S
Co68 N85 1.989 . S
Co68 O93 1.967 . S
Co68 O100 1.920 . S
Co69 O72 1.966 . S
Co69 N78 2.022 . S
Co69 N86 1.993 . S
Co69 O94 1.941 . S
C70 O71 1.258 . S
C70 O72 1.263 1_545 S
O71 Co68 1.970 1_545 S
O71 C70 1.258 . S
O72 Co69 1.966 . S
O72 C70 1.263 1_565 S
C73 O74 1.235 1_565 S
C73 O100 1.289 . S
O74 C73 1.235 1_545 S
C75 C77 1.400 . S
C75 N78 1.351 . S
C75 C80 1.501 1_565 S
C76 C77 1.387 . S
C76 N79 1.341 . S
C77 C75 1.400 . S
C77 C76 1.387 . S
N78 Co69 2.022 . S
N78 C75 1.351 . S
N78 N79 1.365 . S
N79 C76 1.341 . S
N79 N78 1.365 . S
N79 H99 0.862 . S
C80 C75 1.501 1_545 S
C80 H81 0.961 . S
C80 H82 0.961 . S
C80 H83 0.960 . S
H81 C80 0.961 . S
H82 C80 0.961 . S
H83 C80 0.960 . S
C84 N85 1.342 . S
C84 C88 1.401 . S
C84 C89 1.499 . S
N85 Co68 1.989 . S
N85 C84 1.342 . S
N85 N86 1.388 . S
N86 Co69 1.993 . S
N86 N85 1.388 . S
N86 C87 1.346 . S
C87 N86 1.346 . S
C87 C88 1.396 . S
C87 C97 1.510 . S
C88 C84 1.401 . S
C88 C87 1.396 . S
C89 C84 1.499 . S
C89 H90 0.959 . S
C89 H91 0.960 . S
C89 H92 0.961 . S
H90 C89 0.959 . S
H91 C89 0.960 . S
H92 C89 0.961 . S
O93 Co68 1.967 . S
O93 C101 1.258 . S
O94 Co69 1.941 . S
O94 C101 1.266 . S
H95 C97 0.959 . S
H96 C97 0.961 . S
C97 C87 1.510 . S
C97 H95 0.959 . S
C97 H96 0.961 . S
C97 H98 0.960 . S
H98 C97 0.960 . S
H99 N79 0.862 . S
O100 Co68 1.920 . S
O100 C73 1.289 . S
C101 O93 1.258 . S
C101 O94 1.266 . S
Co102 O105 1.970 . S
Co102 N119 1.989 . S
Co102 O127 1.967 . S
Co102 O134 1.920 . S
Co103 O106 1.966 . S
Co103 N112 2.022 . S
Co103 N120 1.993 . S
Co103 O128 1.941 . S
C104 O105 1.258 . S
C104 O106 1.263 . S
O105 Co102 1.970 . S
O105 C104 1.258 . S
O106 Co103 1.966 . S
O106 C104 1.263 . S
C107 O108 1.235 . S
C107 O134 1.289 . S
O108 C107 1.235 . S
C109 C111 1.400 . S
C109 N112 1.351 . S
C109 C114 1.501 . S
C110 C111 1.387 . S
C110 N113 1.341 . S
C111 C109 1.400 . S
C111 C110 1.387 . S
N112 Co103 2.022 . S
N112 C109 1.351 . S
N112 N113 1.365 . S
N113 C110 1.341 . S
N113 N112 1.365 . S
N113 H133 0.862 . S
C114 C109 1.501 . S
C114 H115 0.961 . S
C114 H116 0.961 . S
C114 H117 0.960 . S
H115 C114 0.961 . S
H116 C114 0.961 . S
H117 C114 0.960 . S
C118 N119 1.342 . S
C118 C122 1.401 . S
C118 C123 1.499 . S
N119 Co102 1.989 . S
N119 C118 1.342 . S
N119 N120 1.388 . S
N120 Co103 1.993 . S
N120 N119 1.388 . S
N120 C121 1.346 . S
C121 N120 1.346 . S
C121 C122 1.396 . S
C121 C131 1.510 . S
C122 C118 1.401 . S
C122 C121 1.396 . S
C123 C118 1.499 . S
C123 H124 0.959 . S
C123 H125 0.960 . S
C123 H126 0.961 . S
H124 C123 0.959 . S
H125 C123 0.960 . S
H126 C123 0.961 . S
O127 Co102 1.967 . S
O127 C135 1.258 . S
O128 Co103 1.941 . S
O128 C135 1.266 . S
H129 C131 0.959 . S
H130 C131 0.961 . S
C131 C121 1.510 . S
C131 H129 0.959 . S
C131 H130 0.961 . S
C131 H132 0.960 . S
H132 C131 0.960 . S
H133 N113 0.862 . S
O134 Co102 1.920 . S
O134 C107 1.289 . S
C135 O127 1.258 . S
C135 O128 1.266 . S
Co136 O139 1.970 1_455 S
Co136 N153 1.989 . S
Co136 O161 1.967 . S
Co136 O168 1.920 . S
Co137 O140 1.966 . S
Co137 N146 2.022 . S
Co137 N154 1.993 . S
Co137 O162 1.941 . S
C138 O139 1.258 . S
C138 O140 1.263 1_655 S
O139 Co136 1.970 1_655 S
O139 C138 1.258 . S
O140 Co137 1.966 . S
O140 C138 1.263 1_455 S
C141 O142 1.235 1_455 S
C141 O168 1.289 . S
O142 C141 1.235 1_655 S
C143 C145 1.400 . S
C143 N146 1.351 . S
C143 C148 1.501 1_455 S
C144 C145 1.387 . S
C144 N147 1.341 . S
C145 C143 1.400 . S
C145 C144 1.387 . S
N146 Co137 2.022 . S
N146 C143 1.351 . S
N146 N147 1.365 . S
N147 C144 1.341 . S
N147 N146 1.365 . S
N147 H167 0.862 . S
C148 C143 1.501 1_655 S
C148 H149 0.961 . S
C148 H150 0.961 . S
C148 H151 0.960 . S
H149 C148 0.961 . S
H150 C148 0.961 . S
H151 C148 0.960 . S
C152 N153 1.342 . S
C152 C156 1.401 . S
C152 C157 1.499 . S
N153 Co136 1.989 . S
N153 C152 1.342 . S
N153 N154 1.388 . S
N154 Co137 1.993 . S
N154 N153 1.388 . S
N154 C155 1.346 . S
C155 N154 1.346 . S
C155 C156 1.396 . S
C155 C165 1.510 . S
C156 C152 1.401 . S
C156 C155 1.396 . S
C157 C152 1.499 . S
C157 H158 0.959 . S
C157 H159 0.960 . S
C157 H160 0.961 . S
H158 C157 0.959 . S
H159 C157 0.960 . S
H160 C157 0.961 . S
O161 Co136 1.967 . S
O161 C169 1.258 . S
O162 Co137 1.941 . S
O162 C169 1.266 . S
H163 C165 0.959 . S
H164 C165 0.961 . S
C165 C155 1.510 . S
C165 H163 0.959 . S
C165 H164 0.961 . S
C165 H166 0.960 . S
H166 C165 0.960 . S
H167 N147 0.862 . S
O168 Co136 1.920 . S
O168 C141 1.289 . S
C169 O161 1.258 . S
C169 O162 1.266 . S
Co170 O173 1.970 1_545 S
Co170 N187 1.989 . S
Co170 O195 1.967 . S
Co170 O202 1.920 . S
Co171 O174 1.966 . S
Co171 N180 2.022 . S
Co171 N188 1.993 . S
Co171 O196 1.941 . S
C172 O173 1.258 . S
C172 O174 1.263 1_565 S
O173 Co170 1.970 1_565 S
O173 C172 1.258 . S
O174 Co171 1.966 . S
O174 C172 1.263 1_545 S
C175 O176 1.235 1_545 S
C175 O202 1.289 . S
O176 C175 1.235 1_565 S
C177 C179 1.400 . S
C177 N180 1.351 . S
C177 C182 1.501 1_545 S
C178 C179 1.387 . S
C178 N181 1.341 . S
C179 C177 1.400 . S
C179 C178 1.387 . S
N180 Co171 2.022 . S
N180 C177 1.351 . S
N180 N181 1.365 . S
N181 C178 1.341 . S
N181 N180 1.365 . S
N181 H201 0.862 . S
C182 C177 1.501 1_565 S
C182 H183 0.961 . S
C182 H184 0.961 . S
C182 H185 0.960 . S
H183 C182 0.961 . S
H184 C182 0.961 . S
H185 C182 0.960 . S
C186 N187 1.342 . S
C186 C190 1.401 . S
C186 C191 1.499 . S
N187 Co170 1.989 . S
N187 C186 1.342 . S
N187 N188 1.388 . S
N188 Co171 1.993 . S
N188 N187 1.388 . S
N188 C189 1.346 . S
C189 N188 1.346 . S
C189 C190 1.396 . S
C189 C199 1.510 . S
C190 C186 1.401 . S
C190 C189 1.396 . S
C191 C186 1.499 . S
C191 H192 0.959 . S
C191 H193 0.960 . S
C191 H194 0.961 . S
H192 C191 0.959 . S
H193 C191 0.960 . S
H194 C191 0.961 . S
O195 Co170 1.967 . S
O195 C203 1.258 . S
O196 Co171 1.941 . S
O196 C203 1.266 . S
H197 C199 0.959 . S
H198 C199 0.961 . S
C199 C189 1.510 . S
C199 H197 0.959 . S
C199 H198 0.961 . S
C199 H200 0.960 . S
H200 C199 0.960 . S
H201 N181 0.862 . S
O202 Co170 1.920 . S
O202 C175 1.289 . S
C203 O195 1.258 . S
C203 O196 1.266 . S
Co204 O207 1.970 . S
Co204 N221 1.989 . S
Co204 O229 1.967 . S
Co204 O236 1.920 . S
Co205 O208 1.966 . S
Co205 N214 2.022 . S
Co205 N222 1.993 . S
Co205 O230 1.941 . S
C206 O207 1.258 . S
C206 O208 1.263 . S
O207 Co204 1.970 . S
O207 C206 1.258 . S
O208 Co205 1.966 . S
O208 C206 1.263 . S
C209 O210 1.235 . S
C209 O236 1.289 . S
O210 C209 1.235 . S
C211 C213 1.400 . S
C211 N214 1.351 . S
C211 C216 1.501 . S
C212 C213 1.387 . S
C212 N215 1.341 . S
C213 C211 1.400 . S
C213 C212 1.387 . S
N214 Co205 2.022 . S
N214 C211 1.351 . S
N214 N215 1.365 . S
N215 C212 1.341 . S
N215 N214 1.365 . S
N215 H235 0.862 . S
C216 C211 1.501 . S
C216 H217 0.961 . S
C216 H218 0.961 . S
C216 H219 0.960 . S
H217 C216 0.961 . S
H218 C216 0.961 . S
H219 C216 0.960 . S
C220 N221 1.342 . S
C220 C224 1.401 . S
C220 C225 1.499 . S
N221 Co204 1.989 . S
N221 C220 1.342 . S
N221 N222 1.388 . S
N222 Co205 1.993 . S
N222 N221 1.388 . S
N222 C223 1.346 . S
C223 N222 1.346 . S
C223 C224 1.396 . S
C223 C233 1.510 . S
C224 C220 1.401 . S
C224 C223 1.396 . S
C225 C220 1.499 . S
C225 H226 0.959 . S
C225 H227 0.960 . S
C225 H228 0.961 . S
H226 C225 0.959 . S
H227 C225 0.960 . S
H228 C225 0.961 . S
O229 Co204 1.967 . S
O229 C237 1.258 . S
O230 Co205 1.941 . S
O230 C237 1.266 . S
H231 C233 0.959 . S
H232 C233 0.961 . S
C233 C223 1.510 . S
C233 H231 0.959 . S
C233 H232 0.961 . S
C233 H234 0.960 . S
H234 C233 0.960 . S
H235 N215 0.862 . S
O236 Co204 1.920 . S
O236 C209 1.289 . S
C237 O229 1.258 . S
C237 O230 1.266 . S
Co238 O241 1.970 1_655 S
Co238 N255 1.989 . S
Co238 O263 1.967 . S
Co238 O270 1.920 . S
Co239 O242 1.966 . S
Co239 N248 2.022 . S
Co239 N256 1.993 . S
Co239 O264 1.941 . S
C240 O241 1.258 . S
C240 O242 1.263 1_455 S
O241 Co238 1.970 1_455 S
O241 C240 1.258 . S
O242 Co239 1.966 . S
O242 C240 1.263 1_655 S
C243 O244 1.235 1_655 S
C243 O270 1.289 . S
O244 C243 1.235 1_455 S
C245 C247 1.400 . S
C245 N248 1.351 . S
C245 C250 1.501 1_655 S
C246 C247 1.387 . S
C246 N249 1.341 . S
C247 C245 1.400 . S
C247 C246 1.387 . S
N248 Co239 2.022 . S
N248 C245 1.351 . S
N248 N249 1.365 . S
N249 C246 1.341 . S
N249 N248 1.365 . S
N249 H269 0.862 . S
C250 C245 1.501 1_455 S
C250 H251 0.961 . S
C250 H252 0.961 . S
C250 H253 0.960 . S
H251 C250 0.961 . S
H252 C250 0.961 . S
H253 C250 0.960 . S
C254 N255 1.342 . S
C254 C258 1.401 . S
C254 C259 1.499 . S
N255 Co238 1.989 . S
N255 C254 1.342 . S
N255 N256 1.388 . S
N256 Co239 1.993 . S
N256 N255 1.388 . S
N256 C257 1.346 . S
C257 N256 1.346 . S
C257 C258 1.396 . S
C257 C267 1.510 . S
C258 C254 1.401 . S
C258 C257 1.396 . S
C259 C254 1.499 . S
C259 H260 0.959 . S
C259 H261 0.960 . S
C259 H262 0.961 . S
H260 C259 0.959 . S
H261 C259 0.960 . S
H262 C259 0.961 . S
O263 Co238 1.967 . S
O263 C271 1.258 . S
O264 Co239 1.941 . S
O264 C271 1.266 . S
H265 C267 0.959 . S
H266 C267 0.961 . S
C267 C257 1.510 . S
C267 H265 0.959 . S
C267 H266 0.961 . S
C267 H268 0.960 . S
H268 C267 0.960 . S
H269 N249 0.862 . S
O270 Co238 1.920 . S
O270 C243 1.289 . S
C271 O263 1.258 . S
C271 O264 1.266 . S
Co272 O275 1.970 1_565 S
Co272 N289 1.989 . S
Co272 O297 1.967 . S
Co272 O304 1.920 . S
Co273 O276 1.966 . S
Co273 N282 2.022 . S
Co273 N290 1.993 . S
Co273 O298 1.941 . S
C274 O275 1.258 . S
C274 O276 1.263 1_545 S
O275 Co272 1.970 1_545 S
O275 C274 1.258 . S
O276 Co273 1.966 . S
O276 C274 1.263 1_565 S
C277 O278 1.235 1_565 S
C277 O304 1.289 . S
O278 C277 1.235 1_545 S
C279 C281 1.400 . S
C279 N282 1.351 . S
C279 C284 1.501 1_565 S
C280 C281 1.387 . S
C280 N283 1.341 . S
C281 C279 1.400 . S
C281 C280 1.387 . S
N282 Co273 2.022 . S
N282 C279 1.351 . S
N282 N283 1.365 . S
N283 C280 1.341 . S
N283 N282 1.365 . S
N283 H303 0.862 . S
C284 C279 1.501 1_545 S
C284 H285 0.961 . S
C284 H286 0.961 . S
C284 H287 0.960 . S
H285 C284 0.961 . S
H286 C284 0.961 . S
H287 C284 0.960 . S
C288 N289 1.342 . S
C288 C292 1.401 . S
C288 C293 1.499 . S
N289 Co272 1.989 . S
N289 C288 1.342 . S
N289 N290 1.388 . S
N290 Co273 1.993 . S
N290 N289 1.388 . S
N290 C291 1.346 . S
C291 N290 1.346 . S
C291 C292 1.396 . S
C291 C301 1.510 . S
C292 C288 1.401 . S
C292 C291 1.396 . S
C293 C288 1.499 . S
C293 H294 0.959 . S
C293 H295 0.960 . S
C293 H296 0.961 . S
H294 C293 0.959 . S
H295 C293 0.960 . S
H296 C293 0.961 . S
O297 Co272 1.967 . S
O297 C305 1.258 . S
O298 Co273 1.941 . S
O298 C305 1.266 . S
H299 C301 0.959 . S
H300 C301 0.961 . S
C301 C291 1.510 . S
C301 H299 0.959 . S
C301 H300 0.961 . S
C301 H302 0.960 . S
H302 C301 0.960 . S
H303 N283 0.862 . S
O304 Co272 1.920 . S
O304 C277 1.289 . S
C305 O297 1.258 . S
C305 O298 1.266 . S
Co306 O309 1.970 . S
Co306 N323 1.989 . S
Co306 O331 1.967 . S
Co306 O338 1.920 . S
Co307 O310 1.966 . S
Co307 N316 2.022 . S
Co307 N324 1.993 . S
Co307 O332 1.941 . S
C308 O309 1.258 . S
C308 O310 1.263 . S
O309 Co306 1.970 . S
O309 C308 1.258 . S
O310 Co307 1.966 . S
O310 C308 1.263 . S
C311 O312 1.235 . S
C311 O338 1.289 . S
O312 C311 1.235 . S
C313 C315 1.400 . S
C313 N316 1.351 . S
C313 C318 1.501 . S
C314 C315 1.387 . S
C314 N317 1.341 . S
C315 C313 1.400 . S
C315 C314 1.387 . S
N316 Co307 2.022 . S
N316 C313 1.351 . S
N316 N317 1.365 . S
N317 C314 1.341 . S
N317 N316 1.365 . S
N317 H337 0.862 . S
C318 C313 1.501 . S
C318 H319 0.961 . S
C318 H320 0.961 . S
C318 H321 0.960 . S
H319 C318 0.961 . S
H320 C318 0.961 . S
H321 C318 0.960 . S
C322 N323 1.342 . S
C322 C326 1.401 . S
C322 C327 1.499 . S
N323 Co306 1.989 . S
N323 C322 1.342 . S
N323 N324 1.388 . S
N324 Co307 1.993 . S
N324 N323 1.388 . S
N324 C325 1.346 . S
C325 N324 1.346 . S
C325 C326 1.396 . S
C325 C335 1.510 . S
C326 C322 1.401 . S
C326 C325 1.396 . S
C327 C322 1.499 . S
C327 H328 0.959 . S
C327 H329 0.960 . S
C327 H330 0.961 . S
H328 C327 0.959 . S
H329 C327 0.960 . S
H330 C327 0.961 . S
O331 Co306 1.967 . S
O331 C339 1.258 . S
O332 Co307 1.941 . S
O332 C339 1.266 . S
H333 C335 0.959 . S
H334 C335 0.961 . S
C335 C325 1.510 . S
C335 H333 0.959 . S
C335 H334 0.961 . S
C335 H336 0.960 . S
H336 C335 0.960 . S
H337 N317 0.862 . S
O338 Co306 1.920 . S
O338 C311 1.289 . S
C339 O331 1.258 . S
C339 O332 1.266 . S
Co340 O343 1.970 1_455 S
Co340 N357 1.989 . S
Co340 O365 1.967 . S
Co340 O372 1.920 . S
Co341 O344 1.966 . S
Co341 N350 2.022 . S
Co341 N358 1.993 . S
Co341 O366 1.941 . S
C342 O343 1.258 . S
C342 O344 1.263 1_655 S
O343 Co340 1.970 1_655 S
O343 C342 1.258 . S
O344 Co341 1.966 . S
O344 C342 1.263 1_455 S
C345 O346 1.235 1_455 S
C345 O372 1.289 . S
O346 C345 1.235 1_655 S
C347 C349 1.400 . S
C347 N350 1.351 . S
C347 C352 1.501 1_455 S
C348 C349 1.387 . S
C348 N351 1.341 . S
C349 C347 1.400 . S
C349 C348 1.387 . S
N350 Co341 2.022 . S
N350 C347 1.351 . S
N350 N351 1.365 . S
N351 C348 1.341 . S
N351 N350 1.365 . S
N351 H371 0.862 . S
C352 C347 1.501 1_655 S
C352 H353 0.961 . S
C352 H354 0.961 . S
C352 H355 0.960 . S
H353 C352 0.961 . S
H354 C352 0.961 . S
H355 C352 0.960 . S
C356 N357 1.342 . S
C356 C360 1.401 . S
C356 C361 1.499 . S
N357 Co340 1.989 . S
N357 C356 1.342 . S
N357 N358 1.388 . S
N358 Co341 1.993 . S
N358 N357 1.388 . S
N358 C359 1.346 . S
C359 N358 1.346 . S
C359 C360 1.396 . S
C359 C369 1.510 . S
C360 C356 1.401 . S
C360 C359 1.396 . S
C361 C356 1.499 . S
C361 H362 0.959 . S
C361 H363 0.960 . S
C361 H364 0.961 . S
H362 C361 0.959 . S
H363 C361 0.960 . S
H364 C361 0.961 . S
O365 Co340 1.967 . S
O365 C373 1.258 . S
O366 Co341 1.941 . S
O366 C373 1.266 . S
H367 C369 0.959 . S
H368 C369 0.961 . S
C369 C359 1.510 . S
C369 H367 0.959 . S
C369 H368 0.961 . S
C369 H370 0.960 . S
H370 C369 0.960 . S
H371 N351 0.862 . S
O372 Co340 1.920 . S
O372 C345 1.289 . S
C373 O365 1.258 . S
C373 O366 1.266 . S
Co374 O377 1.970 1_545 S
Co374 N391 1.989 . S
Co374 O399 1.967 . S
Co374 O406 1.920 . S
Co375 O378 1.966 . S
Co375 N384 2.022 . S
Co375 N392 1.993 . S
Co375 O400 1.941 . S
C376 O377 1.258 . S
C376 O378 1.263 1_565 S
O377 Co374 1.970 1_565 S
O377 C376 1.258 . S
O378 Co375 1.966 . S
O378 C376 1.263 1_545 S
C379 O380 1.235 1_545 S
C379 O406 1.289 . S
O380 C379 1.235 1_565 S
C381 C383 1.400 . S
C381 N384 1.351 . S
C381 C386 1.501 1_545 S
C382 C383 1.387 . S
C382 N385 1.341 . S
C383 C381 1.400 . S
C383 C382 1.387 . S
N384 Co375 2.022 . S
N384 C381 1.351 . S
N384 N385 1.365 . S
N385 C382 1.341 . S
N385 N384 1.365 . S
N385 H405 0.862 . S
C386 C381 1.501 1_565 S
C386 H387 0.961 . S
C386 H388 0.961 . S
C386 H389 0.960 . S
H387 C386 0.961 . S
H388 C386 0.961 . S
H389 C386 0.960 . S
C390 N391 1.342 . S
C390 C394 1.401 . S
C390 C395 1.499 . S
N391 Co374 1.989 . S
N391 C390 1.342 . S
N391 N392 1.388 . S
N392 Co375 1.993 . S
N392 N391 1.388 . S
N392 C393 1.346 . S
C393 N392 1.346 . S
C393 C394 1.396 . S
C393 C403 1.510 . S
C394 C390 1.401 . S
C394 C393 1.396 . S
C395 C390 1.499 . S
C395 H396 0.959 . S
C395 H397 0.960 . S
C395 H398 0.961 . S
H396 C395 0.959 . S
H397 C395 0.960 . S
H398 C395 0.961 . S
O399 Co374 1.967 . S
O399 C407 1.258 . S
O400 Co375 1.941 . S
O400 C407 1.266 . S
H401 C403 0.959 . S
H402 C403 0.961 . S
C403 C393 1.510 . S
C403 H401 0.959 . S
C403 H402 0.961 . S
C403 H404 0.960 . S
H404 C403 0.960 . S
H405 N385 0.862 . S
O406 Co374 1.920 . S
O406 C379 1.289 . S
C407 O399 1.258 . S
C407 O400 1.266 . S
H408 C414 0.930 . S
H409 C417 0.930 . S
H410 C418 0.930 . S
H411 C419 0.930 . S
H412 C422 0.930 . S
H413 C423 0.930 . S
C414 H408 0.930 . S
C414 C415 1.355 . S
C414 C416 1.415 . S
C415 C414 1.355 . S
C415 C417 1.419 . S
C416 C414 1.415 . S
C416 C421 1.425 . S
C416 C423 1.409 . S
C417 H409 0.930 . S
C417 C415 1.419 . S
C417 C418 1.362 . S
C418 H410 0.930 . S
C418 C417 1.362 . S
C418 C421 1.409 . S
C419 H411 0.930 . S
C419 C420 1.355 . S
C419 C421 1.415 . S
C420 C419 1.355 . S
C420 C422 1.419 . S
C421 C416 1.425 . S
C421 C418 1.409 . S
C421 C419 1.415 . S
C422 H412 0.930 . S
C422 C420 1.419 . S
C422 C423 1.362 . S
C423 H413 0.930 . S
C423 C416 1.409 . S
C423 C422 1.362 . S
H424 C430 0.930 . S
H425 C433 0.930 . S
H426 C434 0.930 . S
H427 C435 0.930 . S
H428 C438 0.930 . S
H429 C439 0.930 . S
C430 H424 0.930 . S
C430 C431 1.355 1_655 S
C430 C432 1.415 . S
C431 C430 1.355 1_455 S
C431 C433 1.419 . S
C432 C430 1.415 . S
C432 C437 1.425 1_655 S
C432 C439 1.409 . S
C433 H425 0.930 . S
C433 C431 1.419 . S
C433 C434 1.362 . S
C434 H426 0.930 . S
C434 C433 1.362 . S
C434 C437 1.409 . S
C435 H427 0.930 . S
C435 C436 1.355 1_455 S
C435 C437 1.415 . S
C436 C435 1.355 1_655 S
C436 C438 1.419 . S
C437 C432 1.425 1_455 S
C437 C434 1.409 . S
C437 C435 1.415 . S
C438 H428 0.930 . S
C438 C436 1.419 . S
C438 C439 1.362 . S
C439 H429 0.930 . S
C439 C432 1.409 . S
C439 C438 1.362 . S
H440 C446 0.930 . S
H441 C449 0.930 . S
H442 C450 0.930 . S
H443 C451 0.930 . S
H444 C454 0.930 . S
H445 C455 0.930 . S
C446 H440 0.930 . S
C446 C447 1.355 . S
C446 C448 1.415 . S
C447 C446 1.355 . S
C447 C449 1.419 1_545 S
C448 C446 1.415 . S
C448 C453 1.425 1_545 S
C448 C455 1.409 . S
C449 H441 0.930 . S
C449 C447 1.419 1_565 S
C449 C450 1.362 . S
C450 H442 0.930 . S
C450 C449 1.362 . S
C450 C453 1.409 . S
C451 H443 0.930 . S
C451 C452 1.355 . S
C451 C453 1.415 . S
C452 C451 1.355 . S
C452 C454 1.419 1_565 S
C453 C448 1.425 1_565 S
C453 C450 1.409 . S
C453 C451 1.415 . S
C454 H444 0.930 . S
C454 C452 1.419 1_545 S
C454 C455 1.362 . S
C455 H445 0.930 . S
C455 C448 1.409 . S
C455 C454 1.362 . S
H456 C462 0.930 . S
H457 C465 0.930 . S
H458 C466 0.930 . S
H459 C467 0.930 . S
H460 C470 0.930 . S
H461 C471 0.930 . S
C462 H456 0.930 . S
C462 C463 1.355 . S
C462 C464 1.415 . S
C463 C462 1.355 . S
C463 C465 1.419 . S
C464 C462 1.415 . S
C464 C469 1.425 . S
C464 C471 1.409 . S
C465 H457 0.930 . S
C465 C463 1.419 . S
C465 C466 1.362 . S
C466 H458 0.930 . S
C466 C465 1.362 . S
C466 C469 1.409 . S
C467 H459 0.930 . S
C467 C468 1.355 . S
C467 C469 1.415 . S
C468 C467 1.355 . S
C468 C470 1.419 . S
C469 C464 1.425 . S
C469 C466 1.409 . S
C469 C467 1.415 . S
C470 H460 0.930 . S
C470 C468 1.419 . S
C470 C471 1.362 . S
C471 H461 0.930 . S
C471 C464 1.409 . S
C471 C470 1.362 . S
H472 C478 0.930 . S
H473 C481 0.930 . S
H474 C482 0.930 . S
H475 C483 0.930 . S
H476 C486 0.930 . S
H477 C487 0.930 . S
C478 H472 0.930 . S
C478 C479 1.355 . S
C478 C480 1.415 . S
C479 C478 1.355 . S
C479 C481 1.419 1_655 S
C480 C478 1.415 . S
C480 C485 1.425 1_655 S
C480 C487 1.409 . S
C481 H473 0.930 . S
C481 C479 1.419 1_455 S
C481 C482 1.362 . S
C482 H474 0.930 . S
C482 C481 1.362 . S
C482 C485 1.409 . S
C483 H475 0.930 . S
C483 C484 1.355 . S
C483 C485 1.415 . S
C484 C483 1.355 . S
C484 C486 1.419 1_455 S
C485 C480 1.425 1_455 S
C485 C482 1.409 . S
C485 C483 1.415 . S
C486 H476 0.930 . S
C486 C484 1.419 1_655 S
C486 C487 1.362 . S
C487 H477 0.930 . S
C487 C480 1.409 . S
C487 C486 1.362 . S
H488 C494 0.930 1_545 S
H489 C497 0.930 . S
H490 C498 0.930 . S
H491 C499 0.930 1_565 S
H492 C502 0.930 . S
H493 C503 0.930 . S
C494 H488 0.930 1_565 S
C494 C495 1.355 . S
C494 C496 1.415 1_565 S
C495 C494 1.355 . S
C495 C497 1.419 . S
C496 C494 1.415 1_545 S
C496 C501 1.425 1_545 S
C496 C503 1.409 . S
C497 H489 0.930 . S
C497 C495 1.419 . S
C497 C498 1.362 . S
C498 H490 0.930 . S
C498 C497 1.362 . S
C498 C501 1.409 . S
C499 H491 0.930 1_545 S
C499 C500 1.355 . S
C499 C501 1.415 1_545 S
C500 C499 1.355 . S
C500 C502 1.419 . S
C501 C496 1.425 1_565 S
C501 C498 1.409 . S
C501 C499 1.415 1_565 S
C502 H492 0.930 . S
C502 C500 1.419 . S
C502 C503 1.362 . S
C503 H493 0.930 . S
C503 C496 1.409 . S
C503 C502 1.362 . S
H504 C510 0.930 . S
H505 C513 0.930 . S
H506 C514 0.930 . S
H507 C515 0.930 . S
H508 C518 0.930 . S
H509 C519 0.930 . S
C510 H504 0.930 . S
C510 C511 1.355 . S
C510 C512 1.415 . S
C511 C510 1.355 . S
C511 C513 1.419 . S
C512 C510 1.415 . S
C512 C517 1.425 . S
C512 C519 1.409 . S
C513 H505 0.930 . S
C513 C511 1.419 . S
C513 C514 1.362 . S
C514 H506 0.930 . S
C514 C513 1.362 . S
C514 C517 1.409 . S
C515 H507 0.930 . S
C515 C516 1.355 . S
C515 C517 1.415 . S
C516 C515 1.355 . S
C516 C518 1.419 . S
C517 C512 1.425 . S
C517 C514 1.409 . S
C517 C515 1.415 . S
C518 H508 0.930 . S
C518 C516 1.419 . S
C518 C519 1.362 . S
C519 H509 0.930 . S
C519 C512 1.409 . S
C519 C518 1.362 . S
H520 C526 0.930 . S
H521 C529 0.930 . S
H522 C530 0.930 . S
H523 C531 0.930 . S
H524 C534 0.930 . S
H525 C535 0.930 . S
C526 H520 0.930 . S
C526 C527 1.355 . S
C526 C528 1.415 1_655 S
C527 C526 1.355 . S
C527 C529 1.419 . S
C528 C526 1.415 1_455 S
C528 C533 1.425 1_455 S
C528 C535 1.409 . S
C529 H521 0.930 . S
C529 C527 1.419 . S
C529 C530 1.362 . S
C530 H522 0.930 . S
C530 C529 1.362 . S
C530 C533 1.409 . S
C531 H523 0.930 . S
C531 C532 1.355 . S
C531 C533 1.415 1_455 S
C532 C531 1.355 . S
C532 C534 1.419 . S
C533 C528 1.425 1_655 S
C533 C530 1.409 . S
C533 C531 1.415 1_655 S
C534 H524 0.930 . S
C534 C532 1.419 . S
C534 C535 1.362 . S
C535 H525 0.930 . S
C535 C528 1.409 . S
C535 C534 1.362 . S
H536 C542 0.926 1_565 S
H537 C545 0.930 . S
H538 C546 0.930 . S
H539 C547 0.927 1_545 S
H540 C550 0.930 . S
H541 C551 0.930 . S
C542 H536 0.926 1_545 S
C542 C543 1.359 . S
C542 C544 1.413 1_545 S
C543 C542 1.359 . S
C543 C545 1.419 . S
C544 C542 1.413 1_565 S
C544 C549 1.425 1_564 S
C544 C551 1.409 . S
C545 H537 0.930 . S
C545 C543 1.419 . S
C545 C546 1.362 1_554 S
C546 H538 0.930 . S
C546 C545 1.362 1_556 S
C546 C549 1.409 . S
C547 H539 0.927 1_565 S
C547 C548 1.359 . S
C547 C549 1.413 1_565 S
C548 C547 1.359 . S
C548 C550 1.419 . S
C549 C544 1.425 1_546 S
C549 C546 1.409 . S
C549 C547 1.413 1_545 S
C550 H540 0.930 . S
C550 C548 1.419 . S
C550 C551 1.362 1_556 S
C551 H541 0.930 . S
C551 C544 1.409 . S
C551 C550 1.362 1_554 S
H552 C558 0.930 . S
H553 C561 0.930 . S
H554 C562 0.930 . S
H555 C563 0.930 . S
H556 C566 0.930 . S
H557 C567 0.930 . S
C558 H552 0.930 . S
C558 C559 1.355 . S
C558 C560 1.415 . S
C559 C558 1.355 . S
C559 C561 1.419 . S
C560 C558 1.415 . S
C560 C565 1.425 . S
C560 C567 1.409 . S
C561 H553 0.930 . S
C561 C559 1.419 . S
C561 C562 1.362 . S
C562 H554 0.930 . S
C562 C561 1.362 . S
C562 C565 1.409 . S
C563 H555 0.930 . S
C563 C564 1.355 . S
C563 C565 1.415 . S
C564 C563 1.355 . S
C564 C566 1.419 . S
C565 C560 1.425 . S
C565 C562 1.409 . S
C565 C563 1.415 . S
C566 H556 0.930 . S
C566 C564 1.419 . S
C566 C567 1.362 . S
C567 H557 0.930 . S
C567 C560 1.409 . S
C567 C566 1.362 . S
H568 C574 0.930 . S
H569 C577 0.930 . S
H570 C578 0.930 . S
H571 C579 0.930 . S
H572 C582 0.930 . S
H573 C583 0.930 . S
C574 H568 0.930 . S
C574 C575 1.355 . S
C574 C576 1.415 . S
C575 C574 1.355 . S
C575 C577 1.419 . S
C576 C574 1.415 . S
C576 C581 1.425 1_455 S
C576 C583 1.409 . S
C577 H569 0.930 . S
C577 C575 1.419 . S
C577 C578 1.362 1_455 S
C578 H570 0.930 . S
C578 C577 1.362 1_655 S
C578 C581 1.409 . S
C579 H571 0.930 . S
C579 C580 1.355 . S
C579 C581 1.415 . S
C580 C579 1.355 . S
C580 C582 1.419 . S
C581 C576 1.425 1_655 S
C581 C578 1.409 . S
C581 C579 1.415 . S
C582 H572 0.930 . S
C582 C580 1.419 . S
C582 C583 1.362 1_655 S
C583 H573 0.930 . S
C583 C576 1.409 . S
C583 C582 1.362 1_455 S
H584 C590 0.930 . S
H585 C593 0.930 . S
H586 C594 0.930 . S
H587 C595 0.930 . S
H588 C598 0.930 . S
H589 C599 0.930 . S
C590 H584 0.930 . S
C590 C591 1.355 . S
C590 C592 1.412 1_556 S
C591 C590 1.355 . S
C591 C593 1.419 . S
C592 C590 1.412 1_554 S
C592 C597 1.425 1_544 S
C592 C599 1.412 . S
C593 H585 0.930 . S
C593 C591 1.419 . S
C593 C594 1.362 1_545 S
C594 H586 0.930 . S
C594 C593 1.362 1_565 S
C594 C597 1.412 . S
C595 H587 0.930 . S
C595 C596 1.355 . S
C595 C597 1.412 1_554 S
C596 C595 1.355 . S
C596 C598 1.419 . S
C597 C592 1.425 1_566 S
C597 C594 1.412 . S
C597 C595 1.412 1_556 S
C598 H588 0.930 . S
C598 C596 1.419 . S
C598 C599 1.362 1_565 S
C599 H589 0.930 . S
C599 C592 1.412 . S
C599 C598 1.362 1_545 S
H600 C606 0.930 . S
H601 C609 0.930 . S
H602 C610 0.930 1_565 S
H603 C611 0.930 . S
H604 C614 0.930 . S
H605 C615 0.930 1_545 S
C606 H600 0.930 . S
C606 C607 1.355 . S
C606 C608 1.415 1_455 S
C607 C606 1.355 . S
C607 C609 1.419 . S
C608 C606 1.415 1_655 S
C608 C613 1.425 1_645 S
C608 C615 1.409 1_545 S
C609 H601 0.930 . S
C609 C607 1.419 . S
C609 C610 1.362 . S
C610 H602 0.930 1_545 S
C610 C609 1.362 . S
C610 C613 1.409 1_545 S
C611 H603 0.930 . S
C611 C612 1.355 . S
C611 C613 1.415 1_655 S
C612 C611 1.355 . S
C612 C614 1.419 . S
C613 C608 1.425 1_465 S
C613 C610 1.409 1_565 S
C613 C611 1.415 1_455 S
C614 H604 0.930 . S
C614 C612 1.419 . S
C614 C615 1.362 . S
C615 H605 0.930 1_565 S
C615 C608 1.409 1_565 S
C615 C614 1.362 . S
H616 C622 0.930 . S
H617 C625 0.930 . S
H618 C626 0.930 . S
H619 C627 0.930 . S
H620 C630 0.930 . S
H621 C631 0.930 . S
C622 H616 0.930 . S
C622 C623 1.355 . S
C622 C624 1.415 1_545 S
C623 C622 1.355 . S
C623 C625 1.419 1_655 S
C624 C622 1.415 1_565 S
C624 C629 1.425 1_665 S
C624 C631 1.409 . S
C625 H617 0.930 . S
C625 C623 1.419 1_455 S
C625 C626 1.362 . S
C626 H618 0.930 . S
C626 C625 1.362 . S
C626 C629 1.409 . S
C627 H619 0.930 . S
C627 C628 1.355 . S
C627 C629 1.415 1_565 S
C628 C627 1.355 . S
C628 C630 1.419 1_455 S
C629 C624 1.425 1_445 S
C629 C626 1.409 . S
C629 C627 1.415 1_545 S
C630 H620 0.930 . S
C630 C628 1.419 1_655 S
C630 C631 1.362 . S
C631 H621 0.930 . S
C631 C624 1.409 . S
C631 C630 1.362 . S
H632 C638 0.929 1_565 S
H633 C641 0.930 . S
H634 C642 0.930 . S
H635 C643 0.929 1_545 S
H636 C646 0.930 . S
H637 C647 0.930 . S
C638 H632 0.929 1_545 S
C638 C639 1.355 . S
C638 C640 1.415 1_545 S
C639 C638 1.355 . S
C639 C641 1.419 . S
C640 C638 1.415 1_565 S
C640 C645 1.425 1_465 S
C640 C647 1.409 1_455 S
C641 H633 0.930 . S
C641 C639 1.419 . S
C641 C642 1.362 . S
C642 H634 0.930 . S
C642 C641 1.362 . S
C642 C645 1.409 1_455 S
C643 H635 0.929 1_565 S
C643 C644 1.355 . S
C643 C645 1.415 1_565 S
C644 C643 1.355 . S
C644 C646 1.419 . S
C645 C640 1.425 1_645 S
C645 C642 1.409 1_655 S
C645 C643 1.415 1_545 S
C646 H636 0.930 . S
C646 C644 1.419 . S
C646 C647 1.362 . S
C647 H637 0.930 . S
C647 C640 1.409 1_655 S
C647 C646 1.362 . S
H648 C654 0.930 . S
H649 C657 0.930 . S
H650 C658 0.930 . S
H651 C659 0.930 . S
H652 C662 0.930 . S
H653 C663 0.930 . S
C654 H648 0.930 . S
C654 C655 1.355 . S
C654 C656 1.427 . S
C655 C654 1.355 . S
C655 C657 1.419 . S
C656 C654 1.427 . S
C656 C661 1.447 1_665 S
C656 C663 1.387 1_655 S
C657 H649 0.930 . S
C657 C655 1.419 . S
C657 C658 1.362 1_565 S
C658 H650 0.930 . S
C658 C657 1.362 1_545 S
C658 C661 1.387 1_655 S
C659 H651 0.930 . S
C659 C660 1.355 . S
C659 C661 1.427 . S
C660 C659 1.355 . S
C660 C662 1.419 . S
C661 C656 1.447 1_445 S
C661 C658 1.387 1_455 S
C661 C659 1.427 . S
C662 H652 0.930 . S
C662 C660 1.419 . S
C662 C663 1.362 1_545 S
C663 H653 0.930 . S
C663 C656 1.387 1_455 S
C663 C662 1.362 1_565 S
H664 C670 0.930 . S
H665 C673 0.930 . S
H666 C674 0.930 . S
H667 C675 0.930 . S
H668 C678 0.930 . S
H669 C679 0.930 . S
C670 H664 0.930 . S
C670 C671 1.355 1_455 S
C670 C672 1.426 . S
C671 C670 1.355 1_655 S
C671 C673 1.419 . S
C672 C670 1.426 . S
C672 C677 1.414 1_465 S
C672 C679 1.403 1_565 S
C673 H665 0.930 . S
C673 C671 1.419 . S
C673 C674 1.362 . S
C674 H666 0.930 . S
C674 C673 1.362 . S
C674 C677 1.404 1_565 S
C675 H667 0.930 . S
C675 C676 1.355 1_655 S
C675 C677 1.426 . S
C676 C675 1.355 1_455 S
C676 C678 1.419 . S
C677 C672 1.414 1_645 S
C677 C674 1.404 1_545 S
C677 C675 1.426 . S
C678 H668 0.930 . S
C678 C676 1.419 . S
C678 C679 1.362 . S
C679 H669 0.930 . S
C679 C672 1.403 1_545 S
C679 C678 1.362 . S
H680 C686 0.930 . S
H681 C689 0.930 . S
H682 C690 0.930 . S
H683 C691 0.930 . S
H684 C694 0.930 . S
H685 C695 0.930 . S
C686 H680 0.930 . S
C686 C687 1.355 1_565 S
C686 C688 1.415 . S
C687 C686 1.355 1_545 S
C687 C689 1.419 . S
C688 C686 1.415 . S
C688 C693 1.425 1_665 S
C688 C695 1.409 . S
C689 H681 0.930 . S
C689 C687 1.419 . S
C689 C690 1.362 1_655 S
C690 H682 0.930 . S
C690 C689 1.362 1_455 S
C690 C693 1.409 . S
C691 H683 0.930 . S
C691 C692 1.355 1_545 S
C691 C693 1.415 . S
C692 C691 1.355 1_565 S
C692 C694 1.419 . S
C693 C688 1.425 1_445 S
C693 C690 1.409 . S
C693 C691 1.415 . S
C694 H684 0.930 . S
C694 C692 1.419 . S
C694 C695 1.362 1_455 S
C695 H685 0.930 . S
C695 C688 1.409 . S
C695 C694 1.362 1_655 S
H696 C702 0.930 . S
H697 C705 0.930 . S
H698 C706 0.930 . S
H699 C707 0.930 . S
H700 C710 0.930 . S
H701 C711 0.930 . S
C702 H696 0.930 . S
C702 C703 1.355 . S
C702 C704 1.415 . S
C703 C702 1.355 . S
C703 C705 1.419 . S
C704 C702 1.415 . S
C704 C709 1.425 1_655 S
C704 C711 1.409 1_655 S
C705 H697 0.930 . S
C705 C703 1.419 . S
C705 C706 1.362 . S
C706 H698 0.930 . S
C706 C705 1.362 . S
C706 C709 1.409 1_655 S
C707 H699 0.930 . S
C707 C708 1.355 . S
C707 C709 1.415 . S
C708 C707 1.355 . S
C708 C710 1.419 . S
C709 C704 1.425 1_455 S
C709 C706 1.409 1_455 S
C709 C707 1.415 . S
C710 H700 0.930 . S
C710 C708 1.419 . S
C710 C711 1.362 . S
C711 H701 0.930 . S
C711 C704 1.409 1_455 S
C711 C710 1.362 . S
H712 C718 0.930 . S
H713 C721 0.930 . S
H714 C722 0.930 . S
H715 C723 0.930 . S
H716 C726 0.930 . S
H717 C727 0.930 . S
C718 H712 0.930 . S
C718 C719 1.355 . S
C718 C720 1.415 . S
C719 C718 1.355 . S
C719 C721 1.419 . S
C720 C718 1.415 . S
C720 C725 1.425 1_545 S
C720 C727 1.409 . S
C721 H713 0.930 . S
C721 C719 1.419 . S
C721 C722 1.362 1_545 S
C722 H714 0.930 . S
C722 C721 1.362 1_565 S
C722 C725 1.409 . S
C723 H715 0.930 . S
C723 C724 1.355 . S
C723 C725 1.415 . S
C724 C723 1.355 . S
C724 C726 1.419 . S
C725 C720 1.425 1_565 S
C725 C722 1.409 . S
C725 C723 1.415 . S
C726 H716 0.930 . S
C726 C724 1.419 . S
C726 C727 1.362 1_565 S
C727 H717 0.930 . S
C727 C720 1.409 . S
C727 C726 1.362 1_545 S
H728 C734 0.930 . S
H729 C737 0.930 . S
H730 C738 0.930 . S
H731 C739 0.930 . S
H732 C742 0.930 . S
H733 C743 0.930 . S
C734 H728 0.930 . S
C734 C735 1.355 . S
C734 C736 1.415 . S
C735 C734 1.355 . S
C735 C737 1.419 . S
C736 C734 1.415 . S
C736 C741 1.425 . S
C736 C743 1.409 . S
C737 H729 0.930 . S
C737 C735 1.419 . S
C737 C738 1.362 . S
C738 H730 0.930 . S
C738 C737 1.362 . S
C738 C741 1.409 . S
C739 H731 0.930 . S
C739 C740 1.355 . S
C739 C741 1.415 . S
C740 C739 1.355 . S
C740 C742 1.419 . S
C741 C736 1.425 . S
C741 C738 1.409 . S
C741 C739 1.415 . S
C742 H732 0.930 . S
C742 C740 1.419 . S
C742 C743 1.362 . S
C743 H733 0.930 . S
C743 C736 1.409 . S
C743 C742 1.362 . S
H744 C750 0.930 . S
H745 C753 0.930 . S
H746 C754 0.930 . S
H747 C755 0.930 . S
H748 C758 0.930 . S
H749 C759 0.930 . S
C750 H744 0.930 . S
C750 C751 1.355 . S
C750 C752 1.415 1_455 S
C751 C750 1.355 . S
C751 C753 1.419 . S
C752 C750 1.415 1_655 S
C752 C757 1.425 1_655 S
C752 C759 1.409 . S
C753 H745 0.930 . S
C753 C751 1.419 . S
C753 C754 1.362 . S
C754 H746 0.930 . S
C754 C753 1.362 . S
C754 C757 1.409 . S
C755 H747 0.930 . S
C755 C756 1.355 . S
C755 C757 1.415 1_655 S
C756 C755 1.355 . S
C756 C758 1.419 . S
C757 C752 1.425 1_455 S
C757 C754 1.409 . S
C757 C755 1.415 1_455 S
C758 H748 0.930 . S
C758 C756 1.419 . S
C758 C759 1.362 . S
C759 H749 0.930 . S
C759 C752 1.409 . S
C759 C758 1.362 . S
H760 C766 0.930 . S
H761 C769 0.930 . S
H762 C770 0.930 . S
H763 C771 0.930 . S
H764 C774 0.930 . S
H765 C775 0.930 . S
C766 H760 0.930 . S
C766 C767 1.355 . S
C766 C768 1.415 . S
C767 C766 1.355 . S
C767 C769 1.419 . S
C768 C766 1.415 . S
C768 C773 1.425 1_565 S
C768 C775 1.409 1_565 S
C769 H761 0.930 . S
C769 C767 1.419 . S
C769 C770 1.362 . S
C770 H762 0.930 . S
C770 C769 1.362 . S
C770 C773 1.409 1_565 S
C771 H763 0.930 . S
C771 C772 1.355 . S
C771 C773 1.415 . S
C772 C771 1.355 . S
C772 C774 1.419 . S
C773 C768 1.425 1_545 S
C773 C770 1.409 1_545 S
C773 C771 1.415 . S
C774 H764 0.930 . S
C774 C772 1.419 . S
C774 C775 1.362 . S
C775 H765 0.930 . S
C775 C768 1.409 1_545 S
C775 C774 1.362 . S
H776 C782 0.930 . S
H777 C785 0.930 . S
H778 C786 0.930 . S
H779 C787 0.930 . S
H780 C790 0.930 . S
H781 C791 0.930 . S
C782 H776 0.930 . S
C782 C783 1.355 . S
C782 C784 1.415 . S
C783 C782 1.355 . S
C783 C785 1.419 . S
C784 C782 1.415 . S
C784 C789 1.425 . S
C784 C791 1.409 . S
C785 H777 0.930 . S
C785 C783 1.419 . S
C785 C786 1.362 . S
C786 H778 0.930 . S
C786 C785 1.362 . S
C786 C789 1.409 . S
C787 H779 0.930 . S
C787 C788 1.355 . S
C787 C789 1.415 . S
C788 C787 1.355 . S
C788 C790 1.419 . S
C789 C784 1.425 . S
C789 C786 1.409 . S
C789 C787 1.415 . S
C790 H780 0.930 . S
C790 C788 1.419 . S
C790 C791 1.362 . S
C791 H781 0.930 . S
C791 C784 1.409 . S
C791 C790 1.362 . S
H792 C798 0.930 . S
H793 C801 0.930 . S
H794 C802 0.930 . S
H795 C803 0.930 . S
H796 C806 0.930 . S
H797 C807 0.930 . S
C798 H792 0.930 . S
C798 C799 1.355 . S
C798 C800 1.415 . S
C799 C798 1.355 . S
C799 C801 1.419 . S
C800 C798 1.415 . S
C800 C805 1.425 . S
C800 C807 1.409 . S
C801 H793 0.930 . S
C801 C799 1.419 . S
C801 C802 1.362 . S
C802 H794 0.930 . S
C802 C801 1.362 . S
C802 C805 1.409 . S
C803 H795 0.930 . S
C803 C804 1.355 . S
C803 C805 1.415 . S
C804 C803 1.355 . S
C804 C806 1.419 . S
C805 C800 1.425 . S
C805 C802 1.409 . S
C805 C803 1.415 . S
C806 H796 0.930 . S
C806 C804 1.419 . S
C806 C807 1.362 . S
C807 H797 0.930 . S
C807 C800 1.409 . S
C807 C806 1.362 . S
H808 C814 0.930 . S
H809 C817 0.930 . S
H810 C818 0.930 . S
H811 C819 0.930 . S
H812 C822 0.930 . S
H813 C823 0.930 . S
C814 H808 0.930 . S
C814 C815 1.355 . S
C814 C816 1.415 . S
C815 C814 1.355 . S
C815 C817 1.419 . S
C816 C814 1.415 . S
C816 C821 1.425 . S
C816 C823 1.409 . S
C817 H809 0.930 . S
C817 C815 1.419 . S
C817 C818 1.362 . S
C818 H810 0.930 . S
C818 C817 1.362 . S
C818 C821 1.409 . S
C819 H811 0.930 . S
C819 C820 1.355 . S
C819 C821 1.415 . S
C820 C819 1.355 . S
C820 C822 1.419 . S
C821 C816 1.425 . S
C821 C818 1.409 . S
C821 C819 1.415 . S
C822 H812 0.930 . S
C822 C820 1.419 . S
C822 C823 1.362 . S
C823 H813 0.930 . S
C823 C816 1.409 . S
C823 C822 1.362 . S
H824 C830 0.930 . S
H825 C833 0.930 . S
H826 C834 0.930 . S
H827 C835 0.930 . S
H828 C838 0.930 . S
H829 C839 0.930 . S
C830 H824 0.930 . S
C830 C831 1.355 . S
C830 C832 1.415 . S
C831 C830 1.355 . S
C831 C833 1.419 . S
C832 C830 1.415 . S
C832 C837 1.425 . S
C832 C839 1.409 . S
C833 H825 0.930 . S
C833 C831 1.419 . S
C833 C834 1.362 . S
C834 H826 0.930 . S
C834 C833 1.362 . S
C834 C837 1.409 . S
C835 H827 0.930 . S
C835 C836 1.355 . S
C835 C837 1.415 . S
C836 C835 1.355 . S
C836 C838 1.419 . S
C837 C832 1.425 . S
C837 C834 1.409 . S
C837 C835 1.415 . S
C838 H828 0.930 . S
C838 C836 1.419 . S
C838 C839 1.362 . S
C839 H829 0.930 . S
C839 C832 1.409 . S
C839 C838 1.362 . S
H840 C846 0.930 . S
H841 C849 0.930 . S
H842 C850 0.930 . S
H843 C851 0.930 . S
H844 C854 0.930 . S
H845 C855 0.930 . S
C846 H840 0.930 . S
C846 C847 1.355 . S
C846 C848 1.415 . S
C847 C846 1.355 . S
C847 C849 1.419 . S
C848 C846 1.415 . S
C848 C853 1.425 . S
C848 C855 1.409 . S
C849 H841 0.930 . S
C849 C847 1.419 . S
C849 C850 1.362 . S
C850 H842 0.930 . S
C850 C849 1.362 . S
C850 C853 1.409 . S
C851 H843 0.930 . S
C851 C852 1.355 . S
C851 C853 1.415 . S
C852 C851 1.355 . S
C852 C854 1.419 . S
C853 C848 1.425 . S
C853 C850 1.409 . S
C853 C851 1.415 . S
C854 H844 0.930 . S
C854 C852 1.419 . S
C854 C855 1.362 . S
C855 H845 0.930 . S
C855 C848 1.409 . S
C855 C854 1.362 . S
H856 C862 0.930 . S
H857 C865 0.930 . S
H858 C866 0.930 . S
H859 C867 0.930 . S
H860 C870 0.930 . S
H861 C871 0.930 . S
C862 H856 0.930 . S
C862 C863 1.355 . S
C862 C864 1.415 . S
C863 C862 1.355 . S
C863 C865 1.419 . S
C864 C862 1.415 . S
C864 C869 1.425 . S
C864 C871 1.409 . S
C865 H857 0.930 . S
C865 C863 1.419 . S
C865 C866 1.362 . S
C866 H858 0.930 . S
C866 C865 1.362 . S
C866 C869 1.409 . S
C867 H859 0.930 . S
C867 C868 1.355 . S
C867 C869 1.415 . S
C868 C867 1.355 . S
C868 C870 1.419 . S
C869 C864 1.425 . S
C869 C866 1.409 . S
C869 C867 1.415 . S
C870 H860 0.930 . S
C870 C868 1.419 . S
C870 C871 1.362 . S
C871 H861 0.930 . S
C871 C864 1.409 . S
C871 C870 1.362 . S
H872 C878 0.930 . S
H873 C881 0.930 . S
H874 C882 0.930 . S
H875 C883 0.930 . S
H876 C886 0.930 . S
H877 C887 0.930 . S
C878 H872 0.930 . S
C878 C879 1.355 . S
C878 C880 1.415 . S
C879 C878 1.355 . S
C879 C881 1.419 . S
C880 C878 1.415 . S
C880 C885 1.425 . S
C880 C887 1.409 . S
C881 H873 0.930 . S
C881 C879 1.419 . S
C881 C882 1.362 . S
C882 H874 0.930 . S
C882 C881 1.362 . S
C882 C885 1.409 . S
C883 H875 0.930 . S
C883 C884 1.355 . S
C883 C885 1.415 . S
C884 C883 1.355 . S
C884 C886 1.419 . S
C885 C880 1.425 . S
C885 C882 1.409 . S
C885 C883 1.415 . S
C886 H876 0.930 . S
C886 C884 1.419 . S
C886 C887 1.362 . S
C887 H877 0.930 . S
C887 C880 1.409 . S
C887 C886 1.362 . S
C415 C111 1.522 . S
C420 C9 1.523 . S
C431 C145 1.498 . S
C436 C43 1.499 . S
C447 C179 1.524 . S
C452 C77 1.524 . S
C463 C213 1.513 . S
C468 C315 1.517 . S
C479 C247 1.524 . S
C484 C349 1.522 . S
C495 C281 1.500 . S
C500 C383 1.498 . S
C511 C326 1.954 . S
C516 C20 1.952 . S
C527 C54 1.953 . S
C532 C360 1.941 . S
C543 C394 1.948 . S
C548 C88 1.955 . S
C559 C224 1.927 . S
C564 C122 1.945 . S
C575 C156 1.888 . S
C580 C258 1.899 . S
C591 C190 1.918 . S
C596 C292 1.900 . S
C607 C5 0.087 . S
C612 C107 0.150 . S
C623 C39 0.094 . S
C628 C141 0.137 . S
C639 C175 0.193 . S
C644 C73 0.301 . S
C655 C209 0.299 . S
C660 C311 0.350 . S
C671 C243 0.331 . S
C676 C345 0.349 . S
C687 C379 0.335 . S
C692 C277 0.348 . S
C703 C407 1.684 . S
C708 C33 1.618 . S
C719 C67 1.682 . S
C724 C237 1.622 . S
C735 C271 1.617 . S
C740 C101 1.685 . S
C751 C305 1.638 . S
C756 C135 1.663 . S
C767 C169 1.617 . S
C772 C339 1.686 . S
C783 C203 1.665 . S
C788 C373 1.637 . S
C799 C2 1.240 . S
C804 C274 1.192 . S
C815 C36 1.275 . S
C820 C308 1.238 . S
C831 C342 1.207 . S
C836 C70 1.192 . S
C847 C104 1.237 . S
C852 C376 1.275 . S
C863 C206 1.258 . S
C868 C138 1.272 . S
C879 C172 1.189 . S
C884 C240 1.230 . S
