# Generated by pormake.
# Topology ume, (4)-cn, num edge types: 1
# Building blocks:
#     Node 0, Type 0, BuildingBlock: NAWXER_clean_sbu_0, # of connection points: 4
#     Node 1, Type 0, BuildingBlock: NAWXER_clean_sbu_0, # of connection points: 4
#     Node 2, Type 0, BuildingBlock: NAWXER_clean_sbu_0, # of connection points: 4
#     Node 3, Type 0, BuildingBlock: NAWXER_clean_sbu_0, # of connection points: 4
#     Node 4, Type 0, BuildingBlock: NAWXER_clean_sbu_0, # of connection points: 4
#     Node 5, Type 0, BuildingBlock: NAWXER_clean_sbu_0, # of connection points: 4
#     Node 6, Type 0, BuildingBlock: NAWXER_clean_sbu_0, # of connection points: 4
#     Node 7, Type 0, BuildingBlock: NAWXER_clean_sbu_0, # of connection points: 4
#     Node 8, Type 0, BuildingBlock: NAWXER_clean_sbu_0, # of connection points: 4
#     Node 9, Type 0, BuildingBlock: NAWXER_clean_sbu_0, # of connection points: 4
#     Node 10, Type 0, BuildingBlock: NAWXER_clean_sbu_0, # of connection points: 4
#     Node 11, Type 0, BuildingBlock: NAWXER_clean_sbu_0, # of connection points: 4
#     Node 12, Type 0, BuildingBlock: NAWXER_clean_sbu_0, # of connection points: 4
#     Node 13, Type 0, BuildingBlock: NAWXER_clean_sbu_0, # of connection points: 4
#     Node 14, Type 0, BuildingBlock: NAWXER_clean_sbu_0, # of connection points: 4
#     Node 15, Type 0, BuildingBlock: NAWXER_clean_sbu_0, # of connection points: 4
#     Edge 16, Type (0, 0), BuildingBlock: UVAHIK_clean_linker_0, # of connection points: 2
#     Edge 17, Type (0, 0), BuildingBlock: UVAHIK_clean_linker_0, # of connection points: 2
#     Edge 18, Type (0, 0), BuildingBlock: UVAHIK_clean_linker_0, # of connection points: 2
#     Edge 19, Type (0, 0), BuildingBlock: UVAHIK_clean_linker_0, # of connection points: 2
#     Edge 20, Type (0, 0), BuildingBlock: UVAHIK_clean_linker_0, # of connection points: 2
#     Edge 21, Type (0, 0), BuildingBlock: UVAHIK_clean_linker_0, # of connection points: 2
#     Edge 22, Type (0, 0), BuildingBlock: UVAHIK_clean_linker_0, # of connection points: 2
#     Edge 23, Type (0, 0), BuildingBlock: UVAHIK_clean_linker_0, # of connection points: 2
#     Edge 24, Type (0, 0), BuildingBlock: UVAHIK_clean_linker_0, # of connection points: 2
#     Edge 25, Type (0, 0), BuildingBlock: UVAHIK_clean_linker_0, # of connection points: 2
#     Edge 26, Type (0, 0), BuildingBlock: UVAHIK_clean_linker_0, # of connection points: 2
#     Edge 27, Type (0, 0), BuildingBlock: UVAHIK_clean_linker_0, # of connection points: 2
#     Edge 28, Type (0, 0), BuildingBlock: UVAHIK_clean_linker_0, # of connection points: 2
#     Edge 29, Type (0, 0), BuildingBlock: UVAHIK_clean_linker_0, # of connection points: 2
#     Edge 30, Type (0, 0), BuildingBlock: UVAHIK_clean_linker_0, # of connection points: 2
#     Edge 31, Type (0, 0), BuildingBlock: UVAHIK_clean_linker_0, # of connection points: 2
#     Edge 32, Type (0, 0), BuildingBlock: UVAHIK_clean_linker_0, # of connection points: 2
#     Edge 33, Type (0, 0), BuildingBlock: UVAHIK_clean_linker_0, # of connection points: 2
#     Edge 34, Type (0, 0), BuildingBlock: UVAHIK_clean_linker_0, # of connection points: 2
#     Edge 35, Type (0, 0), BuildingBlock: UVAHIK_clean_linker_0, # of connection points: 2
#     Edge 36, Type (0, 0), BuildingBlock: UVAHIK_clean_linker_0, # of connection points: 2
#     Edge 37, Type (0, 0), BuildingBlock: UVAHIK_clean_linker_0, # of connection points: 2
#     Edge 38, Type (0, 0), BuildingBlock: UVAHIK_clean_linker_0, # of connection points: 2
#     Edge 39, Type (0, 0), BuildingBlock: UVAHIK_clean_linker_0, # of connection points: 2
#     Edge 40, Type (0, 0), BuildingBlock: UVAHIK_clean_linker_0, # of connection points: 2
#     Edge 41, Type (0, 0), BuildingBlock: UVAHIK_clean_linker_0, # of connection points: 2
#     Edge 42, Type (0, 0), BuildingBlock: UVAHIK_clean_linker_0, # of connection points: 2
#     Edge 43, Type (0, 0), BuildingBlock: UVAHIK_clean_linker_0, # of connection points: 2
#     Edge 44, Type (0, 0), BuildingBlock: UVAHIK_clean_linker_0, # of connection points: 2
#     Edge 45, Type (0, 0), BuildingBlock: UVAHIK_clean_linker_0, # of connection points: 2
#     Edge 46, Type (0, 0), BuildingBlock: UVAHIK_clean_linker_0, # of connection points: 2
#     Edge 47, Type (0, 0), BuildingBlock: UVAHIK_clean_linker_0, # of connection points: 2
# Relax obj value: 0.054
# Max RMSD: 0.243
# Mean RMSD: 0.243
data_MOF--net-ume--node1-NAWXER_clean_sbu_0--edge1-UVAHIK_clean_linker_0
_symmetry_space_group_name_H-M    P1
_symmetry_Int_Tables_number       1
_symmetry_cell_setting            triclinic
loop_
_symmetry_equiv_pos_as_xyz
'x, y, z'
_cell_length_a     37.369131
_cell_length_b     37.367337
_cell_length_c     146.98058
_cell_angle_alpha  90.014799
_cell_angle_beta   90.005023
_cell_angle_gamma 90.052695
loop_
_atom_site_label
_atom_site_type_symbol
_atom_site_fract_x
_atom_site_fract_y
_atom_site_fract_z
_atom_type_partial_charge
C0 C 0.23737 0.08467 0.33591 0.0
C1 C 0.25449 0.10767 0.30362 0.0
O2 O 0.23767 0.11421 0.33166 0.0
Zn3 Zn 0.24313 0.09492 0.31965 0.0
O4 O 0.23966 0.0553 0.33141 0.0
Zn5 Zn 0.24533 0.04049 0.31715 0.0
O6 O 0.28752 0.01298 0.31748 0.0
O7 O 0.29624 0.07028 0.32043 0.0
O8 O 0.2538 0.07389 0.30523 0.0
O9 O 0.24868 0.12937 0.31008 0.0
O10 O 0.19151 0.0699 0.31702 0.0
O11 O 0.20403 0.01317 0.31454 0.0
C12 C 0.30861 0.03838 0.31947 0.0
C13 C 0.18109 0.0379 0.3152 0.0
C14 C 0.9508 0.80981 0.56856 0.0
C15 C 0.94957 0.68275 0.56372 0.0
O16 O 0.97596 0.78832 0.56669 0.0
Zn17 Zn 0.94764 0.74701 0.56586 0.0
O18 O 0.91846 0.79812 0.56916 0.0
Zn19 Zn 0.89296 0.74514 0.56797 0.0
O20 O 0.87225 0.73947 0.57985 0.0
O21 O 0.9312 0.74061 0.57996 0.0
O22 O 0.91761 0.69334 0.56549 0.0
O23 O 0.97446 0.70557 0.56315 0.0
O24 O 0.91593 0.75786 0.55383 0.0
O25 O 0.8598 0.75087 0.55805 0.0
C26 C 0.90139 0.73852 0.58428 0.0
C27 C 0.88243 0.75816 0.55189 0.0
C28 C 0.18097 0.45343 0.8201 0.0
C29 C 0.30825 0.44702 0.81575 0.0
O30 O 0.20348 0.47761 0.81814 0.0
Zn31 Zn 0.24403 0.44782 0.81782 0.0
O32 O 0.19151 0.42086 0.82103 0.0
Zn33 Zn 0.24332 0.39338 0.82026 0.0
O34 O 0.24786 0.3737 0.83226 0.0
O35 O 0.24884 0.43263 0.83206 0.0
O36 O 0.29625 0.41557 0.81756 0.0
O37 O 0.2866 0.47292 0.81522 0.0
O38 O 0.23396 0.415 0.80586 0.0
O39 O 0.23599 0.35929 0.81069 0.0
C40 C 0.24963 0.40313 0.83654 0.0
C41 C 0.23153 0.38131 0.80423 0.0
C42 C 0.53866 0.68198 0.06792 0.0
C43 C 0.54421 0.80905 0.06307 0.0
O44 O 0.51422 0.70412 0.06592 0.0
Zn45 Zn 0.54377 0.74474 0.06523 0.0
O46 O 0.57124 0.69283 0.06867 0.0
Zn47 Zn 0.59842 0.74488 0.06755 0.0
O48 O 0.61855 0.75009 0.0795 0.0
O49 O 0.55958 0.75062 0.0794 0.0
O50 O 0.57566 0.79733 0.06494 0.0
O51 O 0.51851 0.78716 0.06243 0.0
O52 O 0.57589 0.73305 0.05332 0.0
O53 O 0.63197 0.73807 0.05777 0.0
C54 C 0.58919 0.75188 0.08383 0.0
C55 C 0.60947 0.73166 0.05152 0.0
C56 C 0.23632 0.40208 0.93468 0.0
C57 C 0.25642 0.38119 0.96697 0.0
O58 O 0.23769 0.37265 0.93898 0.0
Zn59 Zn 0.24312 0.39262 0.95095 0.0
O60 O 0.23798 0.43163 0.93913 0.0
Zn61 Zn 0.24412 0.44718 0.95333 0.0
O62 O 0.28503 0.47621 0.95264 0.0
O63 O 0.2956 0.4191 0.94982 0.0
O64 O 0.25557 0.4148 0.96519 0.0
O65 O 0.24944 0.35888 0.96072 0.0
O66 O 0.19094 0.41621 0.9535 0.0
O67 O 0.20218 0.47304 0.95618 0.0
C68 C 0.30685 0.45154 0.95059 0.0
C69 C 0.17979 0.44782 0.95544 0.0
C70 C 0.58768 0.73808 0.18196 0.0
C71 C 0.6092 0.75538 0.21431 0.0
O72 O 0.61705 0.73925 0.18627 0.0
Zn73 Zn 0.59721 0.74392 0.19825 0.0
O74 O 0.55812 0.73934 0.1864 0.0
Zn75 Zn 0.54276 0.74424 0.20063 0.0
O76 O 0.51372 0.78526 0.20029 0.0
O77 O 0.57074 0.79631 0.1975 0.0
O78 O 0.5755 0.75364 0.21264 0.0
O79 O 0.63124 0.75043 0.20787 0.0
O80 O 0.57387 0.69135 0.20083 0.0
O81 O 0.51673 0.70219 0.20315 0.0
C82 C 0.53833 0.80738 0.1984 0.0
C83 C 0.54213 0.67999 0.20258 0.0
C84 C 0.23454 0.11217 0.46628 0.0
C85 C 0.252 0.08806 0.43403 0.0
O86 O 0.24006 0.13374 0.45977 0.0
Zn87 Zn 0.2461 0.099 0.45025 0.0
O88 O 0.23565 0.07836 0.46473 0.0
Zn89 Zn 0.24451 0.04465 0.45293 0.0
O90 O 0.28608 0.0181 0.45564 0.0
O91 O 0.29804 0.07475 0.45287 0.0
O92 O 0.25007 0.05888 0.43863 0.0
O93 O 0.25133 0.11782 0.43819 0.0
O94 O 0.19337 0.07351 0.44945 0.0
O95 O 0.20263 0.01655 0.45268 0.0
C96 C 0.30879 0.04301 0.45483 0.0
C97 C 0.18133 0.04152 0.45052 0.0
C98 C 0.95256 0.80812 0.70285 0.0
C99 C 0.94917 0.68071 0.69829 0.0
O100 O 0.97695 0.78476 0.70332 0.0
Zn101 Zn 0.94869 0.74384 0.70077 0.0
O102 O 0.92026 0.79828 0.7012 0.0
Zn103 Zn 0.8939 0.74744 0.69874 0.0
O104 O 0.86072 0.74302 0.70868 0.0
O105 O 0.91669 0.73452 0.71287 0.0
O106 O 0.91738 0.69371 0.69769 0.0
O107 O 0.97532 0.70126 0.70003 0.0
O108 O 0.93222 0.75017 0.6867 0.0
O109 O 0.87336 0.75349 0.68684 0.0
C110 C 0.88322 0.73525 0.71483 0.0
C111 C 0.90246 0.75317 0.68239 0.0
C112 C 0.80873 0.54047 0.81796 0.0
C113 C 0.68144 0.53693 0.81321 0.0
O114 O 0.78831 0.5144 0.81606 0.0
Zn115 Zn 0.74573 0.54101 0.81529 0.0
O116 O 0.79566 0.57224 0.81861 0.0
Zn117 Zn 0.74192 0.59569 0.81742 0.0
O118 O 0.73561 0.61606 0.82933 0.0
O119 O 0.73899 0.55718 0.8294 0.0
O120 O 0.69111 0.56921 0.81496 0.0
O121 O 0.70497 0.51275 0.81261 0.0
O122 O 0.75538 0.57323 0.80328 0.0
O123 O 0.74654 0.62907 0.80751 0.0
C124 C 0.73585 0.58686 0.83374 0.0
C125 C 0.7546 0.60672 0.80135 0.0
C126 C 0.40621 0.23651 0.08601 0.0
C127 C 0.38602 0.25535 0.05364 0.0
O128 O 0.37697 0.23638 0.08161 0.0
Zn129 Zn 0.39713 0.24285 0.06969 0.0
O130 O 0.43584 0.23966 0.08166 0.0
Zn131 Zn 0.45186 0.2465 0.06757 0.0
O132 O 0.47858 0.28907 0.06833 0.0
O133 O 0.42073 0.29655 0.0708 0.0
O134 O 0.41954 0.25602 0.05555 0.0
O135 O 0.36364 0.24757 0.05982 0.0
O136 O 0.4233 0.19209 0.06703 0.0
O137 O 0.47995 0.20575 0.06487 0.0
C138 C 0.45254 0.30957 0.07015 0.0
C139 C 0.45554 0.18235 0.0653 0.0
C140 C 0.68068 0.94938 0.318 0.0
C141 C 0.80796 0.9452 0.31369 0.0
O142 O 0.70274 0.9738 0.31591 0.0
Zn143 Zn 0.74367 0.94465 0.31556 0.0
O144 O 0.69172 0.917 0.31897 0.0
Zn145 Zn 0.74397 0.89032 0.31812 0.0
O146 O 0.7487 0.87084 0.33013 0.0
O147 O 0.74892 0.9298 0.32984 0.0
O148 O 0.79662 0.91359 0.3156 0.0
O149 O 0.78569 0.97046 0.3129 0.0
O150 O 0.73389 0.9116 0.30368 0.0
O151 O 0.73721 0.85602 0.30854 0.0
C152 C 0.75013 0.90041 0.33437 0.0
C153 C 0.73207 0.87786 0.30207 0.0
C154 C 0.08611 0.25293 0.58597 0.0
C155 C 0.10972 0.23552 0.55371 0.0
O156 O 0.11576 0.25222 0.58177 0.0
Zn157 Zn 0.09675 0.2469 0.56972 0.0
O158 O 0.05683 0.251 0.58141 0.0
Zn159 Zn 0.04234 0.2455 0.56713 0.0
O160 O 0.01417 0.20368 0.56739 0.0
O161 O 0.07121 0.1942 0.57047 0.0
O162 O 0.07592 0.23671 0.55527 0.0
O163 O 0.13137 0.24084 0.56021 0.0
O164 O 0.07269 0.29884 0.56702 0.0
O165 O 0.0158 0.28718 0.56448 0.0
C166 C 0.03916 0.18226 0.56944 0.0
C167 C 0.04093 0.30973 0.56513 0.0
C168 C 0.75707 0.88499 0.46491 0.0
C169 C 0.73777 0.90397 0.43251 0.0
O170 O 0.75005 0.86232 0.45874 0.0
Zn171 Zn 0.74436 0.8955 0.44884 0.0
O172 O 0.75669 0.9185 0.46298 0.0
Zn173 Zn 0.74606 0.95025 0.45091 0.0
O174 O 0.70448 0.97703 0.45356 0.0
O175 O 0.69261 0.91997 0.45141 0.0
O176 O 0.73985 0.93378 0.43683 0.0
O177 O 0.73868 0.87484 0.43694 0.0
O178 O 0.7973 0.92099 0.44775 0.0
O179 O 0.78742 0.97856 0.45011 0.0
C180 C 0.68185 0.95192 0.45311 0.0
C181 C 0.80897 0.95334 0.44834 0.0
C182 C 0.04361 0.18156 0.70485 0.0
C183 C 0.03698 0.30879 0.70054 0.0
O184 O 0.01795 0.20334 0.70568 0.0
Zn185 Zn 0.04286 0.24587 0.70298 0.0
O186 O 0.07494 0.19351 0.70288 0.0
Zn187 Zn 0.09716 0.24655 0.70034 0.0
O188 O 0.13151 0.25394 0.70988 0.0
O189 O 0.07597 0.2562 0.71481 0.0
O190 O 0.06951 0.29826 0.69951 0.0
O191 O 0.01299 0.28635 0.70268 0.0
O192 O 0.05751 0.24086 0.68867 0.0
O193 O 0.11645 0.24213 0.68831 0.0
C194 C 0.10969 0.25863 0.71638 0.0
C195 C 0.08683 0.24016 0.68411 0.0
C196 C 0.6792 0.53864 0.94777 0.0
C197 C 0.80659 0.53763 0.95238 0.0
O198 O 0.70018 0.51286 0.94949 0.0
Zn199 Zn 0.74235 0.54025 0.95021 0.0
O200 O 0.69169 0.57066 0.94716 0.0
Zn201 Zn 0.745 0.59512 0.9482 0.0
O202 O 0.75084 0.61573 0.9363 0.0
O203 O 0.74853 0.55682 0.93614 0.0
O204 O 0.79622 0.56975 0.95075 0.0
O205 O 0.78367 0.51275 0.95276 0.0
O206 O 0.73273 0.57207 0.96232 0.0
O207 O 0.74002 0.62824 0.95813 0.0
C208 C 0.75107 0.58663 0.93184 0.0
C209 C 0.73289 0.60555 0.96429 0.0
C210 C 0.44911 0.17951 0.20056 0.0
C211 C 0.44946 0.30703 0.20481 0.0
O212 O 0.47438 0.20059 0.20266 0.0
Zn213 Zn 0.4468 0.24273 0.20297 0.0
O214 O 0.41723 0.19185 0.19955 0.0
Zn215 Zn 0.39246 0.24493 0.20038 0.0
O216 O 0.37328 0.25027 0.18836 0.0
O217 O 0.4322 0.24838 0.18868 0.0
O218 O 0.41751 0.29667 0.20291 0.0
O219 O 0.47402 0.28399 0.20562 0.0
O220 O 0.41329 0.23413 0.21483 0.0
O221 O 0.3579 0.23935 0.20994 0.0
C222 C 0.4029 0.25059 0.18414 0.0
C223 C 0.37951 0.23344 0.21642 0.0
C224 C 0.87257 0.92622 0.31363 0.0
C225 C 0.84657 0.9532 0.31286 0.0
C226 C 0.90902 0.9349 0.31332 0.0
C227 C 0.96994 0.00962 0.3178 0.0
H228 H 0.03785 0.95726 0.30299 0.0
C229 C 0.1165 0.05598 0.3141 0.0
C230 C 0.14273 0.0291 0.31418 0.0
C231 C 0.08024 0.04694 0.31344 0.0
C232 C 0.0193 0.97192 0.30724 0.0
H233 H 0.8385 0.01032 0.31094 0.0
H234 H 0.90167 0.0252 0.31046 0.0
H235 H 0.97491 0.9396 0.30298 0.0
H236 H 0.1515 0.97168 0.31361 0.0
H237 H 0.08867 0.95605 0.31269 0.0
H238 H 0.01413 0.04148 0.32224 0.0
C239 C 0.89397 -0.00254 0.31137 0.0
C240 C 0.9833 0.96178 0.30722 0.0
C241 C 0.85774 0.98882 0.3116 0.0
C242 C 0.13201 0.99312 0.31351 0.0
C243 C 0.09591 0.9841 0.31292 0.0
C244 C 0.00593 0.01956 0.31789 0.0
C245 C 0.91996 0.97071 0.31233 0.0
C246 C 0.9583 0.98063 0.31248 0.0
C247 C 0.06954 0.01085 0.31291 0.0
C248 C 0.03106 0.00087 0.3126 0.0
H249 H 0.86479 0.89854 0.31459 0.0
H250 H 0.92862 0.91379 0.3141 0.0
H251 H 0.95125 0.02433 0.32201 0.0
H252 H 0.12393 0.08394 0.31457 0.0
H253 H 0.06063 0.06824 0.31332 0.0
C254 C 0.9941 0.63373 0.56175 0.0
C255 C 0.95822 0.64434 0.56278 0.0
C256 C 0.00316 0.59763 0.56139 0.0
C257 C 0.96838 0.5082 0.55658 0.0
H258 H 0.04643 0.47671 0.57203 0.0
C259 C -0.00287 0.35941 0.56314 0.0
C260 C 0.03287 0.34819 0.56402 0.0
C261 C 0.98878 0.39562 0.56245 0.0
C262 C 0.025 0.48511 0.56756 0.0
H263 H 0.90359 0.62531 0.56401 0.0
H264 H 0.91957 0.56178 0.56331 0.0
H265 H 0.0296 0.53966 0.57182 0.0
H266 H 0.08797 0.36619 0.56467 0.0
H267 H 0.07342 0.4297 0.56325 0.0
H268 H 0.96394 0.45378 0.55223 0.0
C269 C 0.94056 0.58168 0.56279 0.0
C270 C 0.01525 0.52114 0.56748 0.0
C271 C 0.93146 0.61797 0.56322 0.0
C272 C 0.06018 0.37402 0.56404 0.0
C273 C 0.05181 0.41038 0.56328 0.0
C274 C 0.97832 0.47218 0.5566 0.0
C275 C 0.97658 0.57124 0.56199 0.0
C276 C 0.98676 0.53299 0.56202 0.0
C277 C 0.01595 0.42158 0.56254 0.0
C278 C 0.0066 0.46017 0.56214 0.0
H279 H 0.01543 0.65332 0.56136 0.0
H280 H 0.03106 0.59033 0.56065 0.0
H281 H 0.94662 0.51675 0.55222 0.0
H282 H 0.97537 0.34024 0.56315 0.0
H283 H 0.96087 0.40325 0.56205 0.0
C284 C 0.63335 0.49105 0.81144 0.0
C285 C 0.64325 0.52724 0.81229 0.0
C286 C 0.59739 0.48122 0.81107 0.0
C287 C 0.50749 0.51457 0.80599 0.0
H288 H 0.47607 0.43765 0.82183 0.0
C289 C 0.35912 0.48924 0.81349 0.0
C290 C 0.34691 0.45387 0.81451 0.0
C291 C 0.39546 0.49655 0.81256 0.0
C292 C 0.48447 0.45873 0.81724 0.0
H293 H 0.62314 0.58154 0.8132 0.0
H294 H 0.56002 0.56424 0.8125 0.0
H295 H 0.53918 0.45418 0.82139 0.0
H296 H 0.36334 0.39832 0.81523 0.0
H297 H 0.4272 0.41109 0.81344 0.0
H298 H 0.45292 0.5191 0.80179 0.0
C299 C 0.58028 0.54359 0.81211 0.0
C300 C 0.52059 0.46829 0.81702 0.0
C301 C 0.61636 0.55346 0.81255 0.0
C302 C 0.37194 0.42585 0.81448 0.0
C303 C 0.40849 0.4332 0.8135 0.0
C304 C 0.47142 0.50483 0.80615 0.0
C305 C 0.5705 0.50732 0.81148 0.0
C306 C 0.53237 0.49654 0.81147 0.0
C307 C 0.42064 0.4687 0.81256 0.0
C308 C 0.45939 0.47711 0.81187 0.0
H309 H 0.65336 0.47013 0.8112 0.0
H310 H 0.59061 0.45312 0.81047 0.0
H311 H 0.51596 0.53608 0.80154 0.0
H312 H 0.34062 0.51155 0.81353 0.0
H313 H 0.40385 0.52423 0.81204 0.0
C314 C 0.43826 0.11763 0.06385 0.0
C315 C 0.46485 0.14422 0.06408 0.0
C316 C 0.4477 0.08158 0.06297 0.0
C317 C 0.52186 0.02002 0.06736 0.0
H318 H 0.47228 0.95681 0.05066 0.0
C319 C 0.56499 0.87297 0.06252 0.0
C320 C 0.53716 0.84775 0.06204 0.0
C321 C 0.55749 0.90959 0.06201 0.0
C322 C 0.48619 0.97403 0.05541 0.0
H323 H 0.52216 0.15386 0.06348 0.0
H324 H 0.53842 0.09116 0.062 0.0
H325 H 0.45549 0.01983 0.05143 0.0
H326 H 0.4797 0.84117 0.06053 0.0
H327 H 0.46669 0.9046 0.05985 0.0
H328 H 0.55196 0.97426 0.07153 0.0
C329 C 0.51037 0.09814 0.06254 0.0
C330 C 0.47655 0.01009 0.05585 0.0
C331 C 0.50097 0.13407 0.06334 0.0
C332 C 0.50184 0.85985 0.06089 0.0
C333 C 0.49436 0.89631 0.06043 0.0
C334 C 0.53131 0.98392 0.06698 0.0
C335 C 0.48389 0.07153 0.0624 0.0
C336 C 0.49421 0.03337 0.06185 0.0
C337 C 0.52201 0.92166 0.06105 0.0
C338 C 0.51345 0.96045 0.06104 0.0
H339 H 0.41022 0.12462 0.06441 0.0
H340 H 0.42677 0.06151 0.06295 0.0
H341 H 0.53565 0.03733 0.07212 0.0
H342 H 0.5925 0.86447 0.06337 0.0
H343 H 0.57947 0.92844 0.06238 0.0
C344 C 0.11526 0.42876 0.9554 0.0
C345 C 0.14122 0.45575 0.95633 0.0
C346 C 0.07882 0.43733 0.95566 0.0
C347 C 0.01819 0.51217 0.95127 0.0
H348 H 0.94905 0.45757 0.9652 0.0
C349 C 0.87079 0.55623 0.95408 0.0
C350 C 0.84489 0.52906 0.95357 0.0
C351 C 0.90702 0.54758 0.95498 0.0
C352 C 0.96797 0.47287 0.9612 0.0
H353 H 0.14926 0.5127 0.95855 0.0
H354 H 0.08602 0.52742 0.95899 0.0
H355 H 0.01215 0.44071 0.96562 0.0
H356 H 0.83665 0.47152 0.95363 0.0
H357 H 0.89956 0.45655 0.95497 0.0
H358 H 0.97422 0.54386 0.94667 0.0
C359 C 0.09377 0.49977 0.95796 0.0
C360 C 0.00406 0.4632 0.96145 0.0
C361 C 0.13002 0.49124 0.95776 0.0
C362 C 0.85589 0.49315 0.95405 0.0
C363 C 0.89202 0.48452 0.95488 0.0
C364 C 0.98213 0.52165 0.95095 0.0
C365 C 0.06782 0.47303 0.9568 0.0
C366 C 0.02949 0.48282 0.95651 0.0
C367 C 0.91805 0.51159 0.95533 0.0
C368 C 0.95656 0.50212 0.95591 0.0
H369 H 0.12306 0.40119 0.9543 0.0
H370 H 0.05928 0.41623 0.95472 0.0
H371 H 0.03722 0.52745 0.94729 0.0
H372 H 0.86311 0.58415 0.95377 0.0
H373 H 0.92636 0.5691 0.95543 0.0
C374 C 0.43212 0.37203 0.20502 0.0
C375 C 0.45853 0.34541 0.20564 0.0
C376 C 0.44163 0.40825 0.20535 0.0
C377 C 0.51723 0.46803 0.20079 0.0
H378 H 0.46532 0.53635 0.21558 0.0
C379 C 0.56181 0.61581 0.20381 0.0
C380 C 0.53435 0.64143 0.20367 0.0
C381 C 0.55358 0.57939 0.20464 0.0
C382 C 0.47989 0.51768 0.21134 0.0
H383 H 0.51556 0.33596 0.20728 0.0
H384 H 0.53191 0.39884 0.20783 0.0
H385 H 0.44771 0.47346 0.21575 0.0
H386 H 0.47674 0.64892 0.20427 0.0
H387 H 0.46255 0.58591 0.20549 0.0
H388 H 0.54888 0.51217 0.19619 0.0
C389 C 0.50396 0.39177 0.20702 0.0
C390 C 0.46978 0.4817 0.21145 0.0
C391 C 0.49449 0.35573 0.20675 0.0
C392 C 0.49863 0.62994 0.20442 0.0
C393 C 0.49044 0.59372 0.20518 0.0
C394 C 0.52716 0.50405 0.20061 0.0
C395 C 0.47772 0.41839 0.20624 0.0
C396 C 0.48831 0.45656 0.20616 0.0
C397 C 0.51775 0.56795 0.2053 0.0
C398 C 0.50849 0.52935 0.20585 0.0
H399 H 0.40421 0.36492 0.20416 0.0
H400 H 0.42089 0.42831 0.2047 0.0
H401 H 0.53174 0.44923 0.19656 0.0
H402 H 0.58958 0.62385 0.20327 0.0
H403 H 0.57529 0.56022 0.20481 0.0
C404 C 0.35803 -0.00113 0.457 0.0
C405 C 0.34726 0.03459 0.45573 0.0
C406 C 0.39417 0.98996 0.45731 0.0
C407 C 0.48371 0.02549 0.46159 0.0
H408 H 0.51466 0.94579 0.44661 0.0
C409 C 0.63228 -0.004 0.45488 0.0
C410 C 0.64344 0.96016 0.45424 0.0
C411 C 0.5961 0.00446 0.45559 0.0
C412 C 0.50642 0.96771 0.45095 0.0
H413 H 0.36606 0.08911 0.45405 0.0
H414 H 0.42966 0.07341 0.45467 0.0
H415 H 0.4517 0.96255 0.44688 0.0
H416 H 0.62538 0.90503 0.45403 0.0
H417 H 0.56193 0.91979 0.45548 0.0
H418 H 0.53831 0.03049 0.46575 0.0
C419 C 0.40986 0.05242 0.45541 0.0
C420 C 0.47038 0.97741 0.45107 0.0
C421 C 0.37352 0.06137 0.45502 0.0
C422 C 0.61759 0.93289 0.45447 0.0
C423 C 0.58126 0.94138 0.45525 0.0
C424 C 0.51974 0.01561 0.46154 0.0
C425 C 0.42044 0.01654 0.45643 0.0
C426 C 0.45871 0.00646 0.45636 0.0
C427 C 0.57012 0.97731 0.45575 0.0
C428 C 0.53156 0.98673 0.45617 0.0
H429 H 0.33853 0.97754 0.45761 0.0
H430 H 0.4016 0.96217 0.45824 0.0
H431 H 0.47531 0.04771 0.46581 0.0
H432 H 0.65147 0.01773 0.45467 0.0
H433 H 0.5885 0.03241 0.45579 0.0
C434 C 0.0637 0.11729 0.7046 0.0
C435 C 0.0364 0.14279 0.70568 0.0
C436 C 0.05565 0.08068 0.70483 0.0
C437 C 0.98131 0.01915 0.70057 0.0
H438 H 0.03583 0.95061 0.71467 0.0
C439 C 0.93528 0.87276 0.70425 0.0
C440 C 0.96192 0.84634 0.70387 0.0
C441 C 0.94465 0.9089 0.70492 0.0
C442 C 0.02058 0.96934 0.71061 0.0
H443 H 0.97944 0.14982 0.7081 0.0
H444 H 0.96566 0.08639 0.70845 0.0
H445 H 0.05305 0.0137 0.71484 0.0
H446 H 0.0193 0.83708 0.70393 0.0
H447 H 0.03552 0.89986 0.70486 0.0
H448 H 0.94923 0.97507 0.69618 0.0
C449 C 0.99314 0.0946 0.70735 0.0
C450 C 0.03046 0.00542 0.71072 0.0
C451 C 0.00115 0.13097 0.70719 0.0
C452 C -0.00194 0.85675 0.70426 0.0
C453 C 0.00741 0.8928 0.70485 0.0
C454 C 0.97162 0.98311 0.70039 0.0
C455 C 0.02015 0.06911 0.70605 0.0
C456 C 0.01075 0.03066 0.70574 0.0
C457 C 0.98086 0.91935 0.70514 0.0
C458 C 0.99101 0.95777 0.70544 0.0
H459 H 0.0911 0.12558 0.70344 0.0
H460 H 0.07695 0.06148 0.70379 0.0
H461 H 0.96597 0.03802 0.69656 0.0
H462 H 0.90721 0.86556 0.70402 0.0
H463 H 0.92351 0.92864 0.70528 0.0
C464 C 0.63261 0.99493 0.31975 0.0
C465 C 0.64273 0.95876 0.31935 0.0
C466 C 0.59683 0.0044 0.32078 0.0
C467 C 0.50835 0.96977 0.32763 0.0
H468 H 0.47359 0.04766 0.31258 0.0
C469 C 0.3592 -0.00473 0.32072 0.0
C470 C 0.34706 0.03087 0.32066 0.0
C471 C 0.39553 0.98772 0.32155 0.0
C472 C 0.48303 0.02625 0.31693 0.0
H473 H 0.62339 0.90408 0.31987 0.0
H474 H 0.56044 0.92068 0.32147 0.0
H475 H 0.53656 0.03126 0.31203 0.0
H476 H 0.36339 0.08647 0.32159 0.0
H477 H 0.42724 0.07316 0.32299 0.0
H478 H 0.45442 0.96432 0.33235 0.0
C479 C 0.58038 0.94169 0.32113 0.0
C480 C 0.51907 0.01681 0.31661 0.0
C481 C 0.61635 0.93217 0.32015 0.0
C482 C 0.37198 0.05879 0.32159 0.0
C483 C 0.40846 0.0512 0.32236 0.0
C484 C 0.47221 0.97914 0.32792 0.0
C485 C 0.57026 0.97794 0.32136 0.0
C486 C 0.53209 0.98834 0.32192 0.0
C487 C 0.42054 0.01558 0.32229 0.0
C488 C 0.4592 0.00729 0.32252 0.0
H489 H 0.65234 0.0161 0.31926 0.0
H490 H 0.58999 0.03253 0.32112 0.0
H491 H 0.5177 0.94809 0.3319 0.0
H492 H 0.34067 0.97312 0.32005 0.0
H493 H 0.40412 0.96005 0.32136 0.0
C494 C -0.00483 0.85849 0.57104 0.0
C495 C 0.9593 0.8479 0.57003 0.0
C496 C 0.00402 0.89444 0.57202 0.0
C497 C 0.96735 0.98339 0.57754 0.0
H498 H 0.04857 0.01665 0.56342 0.0
C499 C -0.00466 0.13203 0.57028 0.0
C500 C 0.03102 0.14392 0.57062 0.0
C501 C 0.98727 0.0958 0.57114 0.0
C502 C 0.02618 0.00767 0.56751 0.0
H503 H 0.90443 0.86658 0.56948 0.0
H504 H 0.92003 0.92991 0.57101 0.0
H505 H 0.03233 0.95361 0.5631 0.0
H506 H 0.0862 0.12723 0.57233 0.0
H507 H 0.07201 0.06361 0.57382 0.0
H508 H 0.96088 0.03781 0.5818 0.0
C509 C 0.94123 0.91018 0.57116 0.0
C510 C 0.01683 0.97158 0.56732 0.0
C511 C 0.9323 0.874 0.57024 0.0
C512 C 0.05847 0.11885 0.572 0.0
C513 C 0.05037 0.08249 0.57282 0.0
C514 C 0.97665 0.01958 0.57771 0.0
C515 C 0.97725 0.92075 0.57193 0.0
C516 C 0.98726 0.95906 0.57231 0.0
C517 C 0.0147 0.07064 0.57234 0.0
C518 C 0.00605 0.03206 0.57265 0.0
H519 H 0.0166 0.83898 0.57103 0.0
H520 H 0.03194 0.90166 0.57279 0.0
H521 H 0.94472 0.97443 0.58155 0.0
H522 H 0.97353 0.15067 0.56925 0.0
H523 H 0.95959 0.0874 0.57063 0.0
C524 C 0.13313 0.49946 0.82153 0.0
C525 C 0.14301 0.46319 0.82125 0.0
C526 C 0.09731 0.50922 0.82229 0.0
C527 C 0.00776 0.47528 0.82847 0.0
H528 H 0.97511 0.5521 0.81278 0.0
C529 C 0.85989 0.49841 0.81982 0.0
C530 C 0.84717 0.53378 0.81947 0.0
C531 C 0.89617 0.49154 0.82105 0.0
C532 C 0.98393 0.53102 0.81731 0.0
H533 H 0.12317 0.40868 0.82172 0.0
H534 H 0.06024 0.42579 0.82286 0.0
H535 H 0.03823 0.53604 0.81296 0.0
H536 H 0.86243 0.58971 0.82028 0.0
H537 H 0.92625 0.57758 0.8224 0.0
H538 H 0.95314 0.46976 0.83263 0.0
C539 C 0.08036 0.44664 0.82263 0.0
C540 C 0.02007 0.52177 0.81741 0.0
C541 C 0.11635 0.43683 0.82192 0.0
C542 C 0.87148 0.56218 0.82049 0.0
C543 C 0.90795 0.55527 0.82168 0.0
C544 C 0.97157 0.48446 0.82834 0.0
C545 C 0.07048 0.48297 0.82272 0.0
C546 C 0.03232 0.49359 0.82293 0.0
C547 C 0.92059 0.51986 0.82193 0.0
C548 C 0.95928 0.51215 0.82268 0.0
H549 H 0.15307 0.52046 0.82113 0.0
H550 H 0.09062 0.53741 0.82251 0.0
H551 H 0.01649 0.45385 0.8329 0.0
H552 H 0.84186 0.47589 0.81907 0.0
H553 H 0.90521 0.464 0.82109 0.0
C554 C 0.55564 0.61781 0.0704 0.0
C555 C 0.52913 0.64414 0.06942 0.0
C556 C 0.54603 0.58194 0.07155 0.0
C557 C 0.47121 0.52015 0.06718 0.0
H558 H 0.52315 0.45698 0.08339 0.0
C559 C 0.43082 0.37253 0.07218 0.0
C560 C 0.45924 0.34813 0.07145 0.0
C561 C 0.43772 0.40917 0.07298 0.0
C562 C 0.50847 0.47435 0.07883 0.0
H563 H 0.47181 0.65373 0.06919 0.0
H564 H 0.45521 0.59151 0.07133 0.0
H565 H 0.53902 0.52035 0.08273 0.0
H566 H 0.51712 0.3428 0.07129 0.0
H567 H 0.529 0.40645 0.07264 0.0
H568 H 0.44097 0.47414 0.06319 0.0
C569 C 0.48336 0.59835 0.07101 0.0
C570 C 0.51763 0.51053 0.07842 0.0
C571 C 0.49293 0.63404 0.06982 0.0
C572 C 0.4946 0.36092 0.07179 0.0
C573 C 0.50146 0.39738 0.07265 0.0
C574 C 0.462 0.48404 0.0676 0.0
C575 C 0.50976 0.57184 0.07178 0.0
C576 C 0.49932 0.53372 0.07252 0.0
C577 C 0.47313 0.4219 0.07316 0.0
C578 C 0.48081 0.46071 0.07335 0.0
H579 H 0.58376 0.62481 0.07012 0.0
H580 H 0.56699 0.56203 0.07204 0.0
H581 H 0.45695 0.53722 0.06246 0.0
H582 H 0.4033 0.36344 0.07196 0.0
H583 H 0.41539 0.42755 0.07343 0.0
C584 C 0.3551 0.49684 0.94862 0.0
C585 C 0.34476 0.46071 0.94907 0.0
C586 C 0.39085 0.50613 0.94743 0.0
C587 C 0.4785 0.47138 0.94009 0.0
H588 H 0.51494 0.54843 0.95519 0.0
C589 C 0.62832 0.49589 0.9463 0.0
C590 C 0.64069 0.53142 0.94658 0.0
C591 C 0.5919 0.48858 0.94556 0.0
C592 C 0.50503 0.52728 0.95082 0.0
H593 H 0.3637 0.40593 0.94844 0.0
H594 H 0.42664 0.42226 0.94652 0.0
H595 H 0.45194 0.53228 0.95602 0.0
H596 H 0.62467 0.58716 0.94607 0.0
H597 H 0.56067 0.57427 0.9448 0.0
H598 H 0.53197 0.46598 0.93505 0.0
C599 C 0.40686 0.44334 0.94698 0.0
C600 C 0.46897 0.51796 0.9513 0.0
C601 C 0.3709 0.43399 0.94813 0.0
C602 C 0.61591 0.55952 0.94591 0.0
C603 C 0.57934 0.55217 0.94521 0.0
C604 C 0.51465 0.48065 0.93963 0.0
C605 C 0.41719 0.47955 0.94671 0.0
C606 C 0.45536 0.48979 0.94599 0.0
C607 C 0.56702 0.5166 0.94511 0.0
C608 C 0.52829 0.50851 0.94505 0.0
H609 H 0.33556 0.51811 0.94921 0.0
H610 H 0.39787 0.53423 0.94708 0.0
H611 H 0.46865 0.44992 0.93581 0.0
H612 H 0.64673 0.4736 0.94677 0.0
H613 H 0.58315 0.46093 0.94562 0.0
C614 C 0.49311 0.85572 0.19663 0.0
C615 C 0.52919 0.84549 0.19727 0.0
C616 C 0.48378 0.89167 0.19596 0.0
C617 C 0.51929 0.98156 0.19076 0.0
H618 H 0.43935 0.01285 0.20561 0.0
C619 C 0.49246 0.12908 0.19938 0.0
C620 C 0.45685 0.14118 0.19922 0.0
C621 C 0.50023 0.09292 0.19825 0.0
C622 C 0.46136 0.00442 0.20132 0.0
H623 H 0.5839 0.86482 0.19752 0.0
H624 H 0.56753 0.92803 0.19655 0.0
H625 H 0.45572 0.94983 0.20535 0.0
H626 H 0.40147 0.12491 0.19762 0.0
H627 H 0.41515 0.06136 0.19568 0.0
H628 H 0.52533 0.03648 0.1869 0.0
C629 C 0.5465 0.90808 0.19642 0.0
C630 C 0.47078 0.96834 0.20117 0.0
C631 C 0.55588 0.87194 0.19703 0.0
C632 C 0.42915 0.11636 0.1978 0.0
C633 C 0.43695 0.08004 0.19672 0.0
C634 C 0.50994 0.01771 0.19093 0.0
C635 C 0.51029 0.91829 0.196 0.0
C636 C 0.49995 0.95654 0.19593 0.0
C637 C 0.47258 0.06802 0.19696 0.0
C638 C 0.48105 0.02949 0.19627 0.0
H639 H 0.4719 0.83594 0.19667 0.0
H640 H 0.45572 0.89861 0.19545 0.0
H641 H 0.54155 0.97319 0.18655 0.0
H642 H 0.51446 0.14751 0.20043 0.0
H643 H 0.52788 0.08435 0.19859 0.0
C644 C 0.87329 0.93474 0.44724 0.0
C645 C 0.84718 0.96172 0.44706 0.0
C646 C 0.90957 0.94362 0.44661 0.0
C647 C 0.97018 0.01962 0.45069 0.0
H648 H 0.03895 0.96228 0.43739 0.0
C649 C 0.11826 0.06069 0.44743 0.0
C650 C 0.14307 0.03335 0.44919 0.0
C651 C 0.08202 0.05256 0.44632 0.0
C652 C 0.02 0.97843 0.44116 0.0
H653 H 0.83835 0.01887 0.4456 0.0
H654 H 0.90125 0.03413 0.44433 0.0
H655 H 0.97557 0.9462 0.43695 0.0
H656 H 0.1495 0.97601 0.451 0.0
H657 H 0.08644 0.96202 0.44914 0.0
H658 H 0.01452 0.05166 0.45496 0.0
C659 C 0.89394 0.00629 0.44521 0.0
C660 C 0.98381 0.96918 0.44092 0.0
C661 C 0.85786 -0.00251 0.4459 0.0
C662 C 0.13106 -0.00226 0.44968 0.0
C663 C 0.09496 0.98963 0.44853 0.0
C664 C 0.00628 0.02891 0.4509 0.0
C665 C 0.92022 0.97958 0.44573 0.0
C666 C 0.95856 0.9896 0.44573 0.0
C667 C 0.07006 0.01695 0.4469 0.0
C668 C 0.03157 0.00827 0.44619 0.0
H669 H 0.86578 0.90695 0.44812 0.0
H670 H 0.92927 0.92246 0.44709 0.0
H671 H 0.95147 0.03551 0.45461 0.0
H672 H 0.12674 0.08836 0.44698 0.0
H673 H 0.06336 0.0741 0.445 0.0
C674 C 0.99069 0.3564 0.69915 0.0
C675 C 0.02699 0.34657 0.69916 0.0
C676 C 0.98074 0.39201 0.698 0.0
C677 C 0.0134 0.47968 0.68997 0.0
H678 H 0.93891 0.51641 0.70581 0.0
C679 C 0.99106 0.62942 0.69646 0.0
C680 C 0.95575 0.64213 0.69704 0.0
C681 C -0.00216 0.59294 0.69564 0.0
C682 C 0.95931 0.5064 0.70124 0.0
H683 H 0.08134 0.36627 0.69783 0.0
H684 H 0.06392 0.42886 0.696 0.0
H685 H 0.95523 0.45343 0.70659 0.0
H686 H 0.89979 0.62667 0.69701 0.0
H687 H 0.91176 0.56251 0.69561 0.0
H688 H 0.018 0.53303 0.6848 0.0
C689 C 0.04317 0.40883 0.69675 0.0
C690 C 0.96872 0.47035 0.70169 0.0
C691 C 0.05316 0.37306 0.69786 0.0
C692 C 0.92727 0.61763 0.6966 0.0
C693 C 0.93411 0.58098 0.69583 0.0
C694 C 0.00406 0.51579 0.68955 0.0
C695 C 0.00684 0.41866 0.69688 0.0
C696 C -0.00391 0.45668 0.69612 0.0
C697 C 0.96949 0.56833 0.69541 0.0
C698 C 0.9772 0.52955 0.69525 0.0
H699 H 0.96981 0.33659 0.70004 0.0
H700 H 0.95253 0.39863 0.69797 0.0
H701 H 0.03417 0.46978 0.68549 0.0
H702 H 0.01361 0.64761 0.69674 0.0
H703 H 0.02538 0.58393 0.69545 0.0
C704 C 0.23585 0.11646 0.35094 0.0
C705 C 0.23631 0.08424 0.346 0.0
C706 C 0.23698 0.11622 0.36045 0.0
C707 C 0.26363 0.05947 0.37992 0.0
H708 H 0.2079 0.12762 0.39386 0.0
C709 C 0.25234 0.05427 0.41925 0.0
C710 C 0.25293 0.08708 0.42394 0.0
C711 C 0.25087 0.05346 0.40974 0.0
C712 C 0.22395 0.10868 0.39007 0.0
H713 H 0.23763 0.0264 0.34723 0.0
H714 H 0.23909 0.02597 0.36382 0.0
H715 H 0.20287 0.12674 0.37734 0.0
H716 H 0.25327 0.14478 0.42227 0.0
H717 H 0.25103 0.14331 0.4057 0.0
H718 H 0.28463 0.04138 0.39268 0.0
C719 C 0.23843 0.05148 0.36033 0.0
C720 C 0.22105 0.10815 0.38059 0.0
C721 C 0.23731 0.05172 0.35081 0.0
C722 C 0.25273 0.11903 0.41888 0.0
C723 C 0.25118 0.11821 0.40938 0.0
C724 C 0.26648 0.05995 0.38941 0.0
C725 C 0.23856 0.08374 0.36527 0.0
C726 C 0.24095 0.08364 0.37538 0.0
C727 C 0.24987 0.08543 0.40469 0.0
C728 C 0.24678 0.08467 0.3946 0.0
H729 H 0.23523 0.14202 0.34747 0.0
H730 H 0.23749 0.14158 0.36401 0.0
H731 H 0.27978 0.04061 0.37612 0.0
H732 H 0.25238 0.02915 0.42292 0.0
H733 H 0.2496 0.02776 0.40634 0.0
C734 C 0.86854 0.73755 0.59918 0.0
C735 C 0.90105 0.73712 0.59437 0.0
C736 C 0.8683 0.73865 0.6087 0.0
C737 C 0.92462 0.7218 0.62898 0.0
H738 H 0.85814 0.78616 0.64091 0.0
C739 C 0.93426 0.75273 0.66736 0.0
C740 C 0.90207 0.7541 0.6723 0.0
C741 C 0.93389 0.75118 0.65785 0.0
C742 C 0.87661 0.76776 0.6377 0.0
H743 H 0.95884 0.73684 0.59581 0.0
H744 H 0.95839 0.73888 0.61238 0.0
H745 H 0.85767 0.78102 0.62437 0.0
H746 H 0.84423 0.75551 0.67109 0.0
H747 H 0.8436 0.75252 0.65452 0.0
H748 H 0.94356 0.7085 0.64229 0.0
C749 C 0.93305 0.73808 0.60881 0.0
C750 C 0.87631 0.76478 0.62821 0.0
C751 C 0.9333 0.73706 0.5993 0.0
C752 C 0.86953 0.7546 0.6675 0.0
C753 C 0.86916 0.75302 0.65799 0.0
C754 C 0.92489 0.72475 0.63846 0.0
C755 C 0.90056 0.73925 0.61362 0.0
C756 C 0.90037 0.74183 0.62373 0.0
C757 C 0.90134 0.75092 0.65305 0.0
C758 C 0.90096 0.74784 0.64294 0.0
H759 H 0.84319 0.73755 0.59561 0.0
H760 H 0.8428 0.73901 0.6122 0.0
H761 H 0.94314 0.70348 0.62576 0.0
H762 H 0.95982 0.75242 0.67083 0.0
H763 H 0.95918 0.75021 0.65427 0.0
C764 C 0.25037 0.43584 0.85147 0.0
C765 C 0.25063 0.40338 0.84663 0.0
C766 C 0.24911 0.43598 0.86099 0.0
C767 C 0.26512 0.37894 0.88122 0.0
H768 H 0.20257 0.4468 0.89327 0.0
C769 C 0.23488 0.3701 0.91966 0.0
C770 C 0.23492 0.40235 0.9246 0.0
C771 C 0.23601 0.37035 0.91015 0.0
C772 C 0.22044 0.42792 0.89002 0.0
H773 H 0.2503 0.34557 0.84804 0.0
H774 H 0.24788 0.34584 0.86459 0.0
H775 H 0.20737 0.44728 0.87672 0.0
H776 H 0.23549 0.46021 0.92335 0.0
H777 H 0.23765 0.46061 0.90678 0.0
H778 H 0.27816 0.35955 0.89451 0.0
C779 C 0.24902 0.37122 0.86105 0.0
C780 C 0.22324 0.42822 0.88053 0.0
C781 C 0.25024 0.37108 0.85154 0.0
C782 C 0.23533 0.43486 0.91978 0.0
C783 C 0.23643 0.43511 0.91026 0.0
C784 C 0.2623 0.37863 0.89071 0.0
C785 C 0.24813 0.40366 0.86589 0.0
C786 C 0.2456 0.40372 0.87601 0.0
C787 C 0.23718 0.40285 0.90534 0.0
C788 C 0.23989 0.40308 0.89523 0.0
H789 H 0.2507 0.46122 0.84792 0.0
H790 H 0.24899 0.46145 0.86451 0.0
H791 H 0.283 0.36005 0.87798 0.0
H792 H 0.23446 0.34457 0.92315 0.0
H793 H 0.23597 0.34502 0.90657 0.0
C794 C 0.55656 0.75338 0.09875 0.0
C795 C 0.58904 0.7533 0.09391 0.0
C796 C 0.55638 0.75232 0.10826 0.0
C797 C 0.61255 0.72563 0.1278 0.0
H798 H 0.54472 0.78155 0.14179 0.0
C799 C 0.61993 0.73718 0.16698 0.0
C800 C 0.58756 0.73723 0.17186 0.0
C801 C 0.61994 0.73853 0.15748 0.0
C802 C 0.56354 0.76541 0.13798 0.0
H803 H 0.64683 0.75286 0.09533 0.0
H804 H 0.64648 0.7514 0.11191 0.0
H805 H 0.54531 0.78642 0.12525 0.0
H806 H 0.52975 0.73804 0.17053 0.0
H807 H 0.52977 0.73996 0.15395 0.0
H808 H 0.63077 0.70458 0.14052 0.0
C809 C 0.62113 0.75175 0.10834 0.0
C810 C 0.56392 0.76825 0.12849 0.0
C811 C 0.62133 0.75285 0.09883 0.0
C812 C 0.55518 0.73804 0.167 0.0
C813 C 0.55519 0.73942 0.15748 0.0
C814 C 0.61217 0.72277 0.13728 0.0
C815 C 0.58866 0.7511 0.11317 0.0
C816 C 0.58844 0.74841 0.12328 0.0
C817 C 0.58757 0.73998 0.15261 0.0
C818 C 0.58767 0.74263 0.1425 0.0
H819 H 0.53119 0.75361 0.09519 0.0
H820 H 0.53088 0.7515 0.11176 0.0
H821 H 0.63138 0.70949 0.12399 0.0
H822 H 0.64539 0.73669 0.17051 0.0
H823 H 0.64537 0.73932 0.15395 0.0
C824 C 0.73584 0.55479 0.84873 0.0
C825 C 0.73475 0.58707 0.84383 0.0
C826 C 0.7373 0.55498 0.85824 0.0
C827 C 0.72116 0.61211 0.87846 0.0
H828 H 0.78492 0.54487 0.89032 0.0
C829 C 0.75206 0.6196 0.91696 0.0
C830 C 0.75222 0.58704 0.92176 0.0
C831 C 0.75076 0.61992 0.90744 0.0
C832 C 0.76674 0.5636 0.88712 0.0
H833 H 0.73368 0.6449 0.84511 0.0
H834 H 0.73653 0.64522 0.86168 0.0
H835 H 0.77978 0.54468 0.87379 0.0
H836 H 0.75177 0.52927 0.92028 0.0
H837 H 0.7494 0.52986 0.90371 0.0
H838 H 0.7082 0.63106 0.89181 0.0
C839 C 0.73588 0.61972 0.85818 0.0
C840 C 0.76373 0.56345 0.87764 0.0
C841 C 0.73439 0.61953 0.84867 0.0
C842 C 0.75177 0.55483 0.91681 0.0
C843 C 0.75057 0.55516 0.9073 0.0
C844 C 0.72422 0.61229 0.88795 0.0
C845 C 0.73774 0.58745 0.86308 0.0
C846 C 0.74083 0.58764 0.87319 0.0
C847 C 0.74969 0.5877 0.9025 0.0
C848 C 0.74699 0.58798 0.8924 0.0
H849 H 0.73603 0.52928 0.84523 0.0
H850 H 0.73808 0.52961 0.8618 0.0
H851 H 0.70292 0.63079 0.87527 0.0
H852 H 0.75244 0.64492 0.92055 0.0
H853 H 0.75063 0.64545 0.90396 0.0
C854 C 0.37142 0.2516 0.16906 0.0
C855 C 0.40354 0.2515 0.17405 0.0
C856 C 0.3719 0.25013 0.15955 0.0
C857 C 0.42975 0.26533 0.13951 0.0
H858 H 0.36223 0.20236 0.12743 0.0
C859 C 0.43842 0.23593 0.10099 0.0
C860 C 0.4061 0.23516 0.0961 0.0
C861 C 0.43832 0.23702 0.1105 0.0
C862 C 0.38101 0.22036 0.13068 0.0
H863 H 0.46141 0.25046 0.17291 0.0
H864 H 0.46223 0.24782 0.15633 0.0
H865 H 0.36152 0.20729 0.14396 0.0
H866 H 0.34827 0.23438 0.09741 0.0
H867 H 0.3481 0.23663 0.11397 0.0
H868 H 0.44915 0.27854 0.12622 0.0
C869 C 0.43665 0.24927 0.15978 0.0
C870 C 0.38059 0.22321 0.14016 0.0
C871 C 0.43618 0.25065 0.16929 0.0
C872 C 0.37367 0.23482 0.10095 0.0
C873 C 0.37358 0.23597 0.11047 0.0
C874 C 0.43013 0.26254 0.13002 0.0
C875 C 0.40451 0.24861 0.1548 0.0
C876 C 0.40493 0.24575 0.1447 0.0
C877 C 0.40589 0.23743 0.11536 0.0
C878 C 0.40576 0.24002 0.12548 0.0
H879 H 0.34579 0.25232 0.1725 0.0
H880 H 0.34668 0.25022 0.15593 0.0
H881 H 0.44854 0.28329 0.14277 0.0
H882 H 0.4639 0.2361 0.09748 0.0
H883 H 0.46371 0.23753 0.11405 0.0
C884 C 0.75098 0.93358 0.34923 0.0
C885 C 0.75123 0.90096 0.34446 0.0
C886 C 0.74982 0.93403 0.35874 0.0
C887 C 0.76595 0.87772 0.3791 0.0
H888 H 0.70361 0.9462 0.39099 0.0
C889 C 0.73618 0.87103 0.41762 0.0
C890 C 0.73636 0.90359 0.42242 0.0
C891 C 0.73723 0.8707 0.40811 0.0
C892 C 0.72142 0.92714 0.38779 0.0
H893 H 0.75101 0.8432 0.34598 0.0
H894 H 0.74874 0.84401 0.36254 0.0
H895 H 0.70821 0.9459 0.37444 0.0
H896 H 0.73714 0.96136 0.42095 0.0
H897 H 0.73912 0.96075 0.40438 0.0
H898 H 0.77913 0.85894 0.39244 0.0
C899 C 0.74981 0.86927 0.35894 0.0
C900 C 0.72411 0.927 0.37829 0.0
C901 C 0.75095 0.86882 0.34943 0.0
C902 C 0.73687 0.9358 0.41748 0.0
C903 C 0.73786 0.93546 0.40797 0.0
C904 C 0.76324 0.87785 0.38859 0.0
C905 C 0.74891 0.90188 0.36372 0.0
C906 C 0.74641 0.90229 0.37383 0.0
C907 C 0.73842 0.9029 0.40316 0.0
C908 C 0.74094 0.90255 0.39305 0.0
H909 H 0.75126 0.95884 0.34562 0.0
H910 H 0.74971 0.95961 0.36221 0.0
H911 H 0.78378 0.85867 0.3759 0.0
H912 H 0.73572 0.84572 0.42121 0.0
H913 H 0.73707 0.84516 0.40462 0.0
C914 C 0.11822 0.23984 0.66902 0.0
C915 C 0.08614 0.23907 0.67402 0.0
C916 C 0.11764 0.24118 0.65952 0.0
C917 C 0.06014 0.22449 0.63946 0.0
H918 H 0.12663 0.28862 0.62742 0.0
C919 C 0.05275 0.25301 0.60081 0.0
C920 C 0.08539 0.2541 0.59606 0.0
C921 C 0.05224 0.25203 0.61033 0.0
C922 C 0.10812 0.27031 0.63066 0.0
H923 H 0.02825 0.23842 0.6729 0.0
H924 H 0.02728 0.2409 0.65632 0.0
H925 H 0.12703 0.28403 0.64395 0.0
H926 H 0.14312 0.2555 0.59762 0.0
H927 H 0.14222 0.25353 0.61418 0.0
H928 H 0.04132 0.21067 0.62615 0.0
C929 C 0.0529 0.24019 0.65976 0.0
C930 C 0.10838 0.26765 0.64015 0.0
C931 C 0.05346 0.23891 0.66927 0.0
C932 C 0.11748 0.25479 0.60106 0.0
C933 C 0.11697 0.25383 0.61056 0.0
C934 C 0.05991 0.22712 0.62996 0.0
C935 C 0.08499 0.24175 0.65477 0.0
C936 C 0.08448 0.24461 0.64466 0.0
C937 C 0.08436 0.25217 0.61532 0.0
C938 C 0.08398 0.24999 0.62544 0.0
H939 H 0.14388 0.23988 0.67245 0.0
H940 H 0.14286 0.24174 0.65589 0.0
H941 H 0.04167 0.20617 0.64271 0.0
H942 H 0.02752 0.25251 0.59718 0.0
H943 H 0.02664 0.25128 0.61378 0.0
C944 C 0.26831 0.15832 0.29298 0.0
C945 C 0.26401 0.12136 0.29445 0.0
C946 C 0.2796 0.17125 0.28453 0.0
C947 C 0.28659 0.14773 0.26019 0.0
H948 H 0.35949 0.2217 0.2598 0.0
C949 C 0.32882 0.21908 0.22701 0.0
C950 C 0.36574 0.22376 0.22557 0.0
C951 C 0.31588 0.20762 0.23544 0.0
C952 C 0.33924 0.20094 0.25979 0.0
H953 H 0.26753 0.0691 0.28809 0.0
H954 H 0.28713 0.09174 0.27332 0.0
H955 H 0.33759 0.19902 0.27435 0.0
H956 H 0.41795 0.22071 0.23197 0.0
H957 H 0.39532 0.20084 0.24671 0.0
H958 H 0.28856 0.14935 0.24563 0.0
C959 C 0.28162 0.1107 0.27871 0.0
C960 C 0.32642 0.18819 0.26813 0.0
C961 C 0.27051 0.09772 0.28719 0.0
C962 C 0.38936 0.21745 0.23284 0.0
C963 C 0.37637 0.20618 0.24131 0.0
C964 C 0.29923 0.16065 0.25186 0.0
C965 C 0.2867 0.1476 0.27731 0.0
C966 C 0.29999 0.16138 0.26843 0.0
C967 C 0.33951 0.20074 0.24268 0.0
C968 C 0.32577 0.18736 0.25155 0.0
H969 H 0.2635 0.17734 0.2984 0.0
H970 H 0.28274 0.19986 0.28364 0.0
H971 H 0.26604 0.12727 0.26019 0.0
H972 H 0.30983 0.22372 0.22156 0.0
H973 H 0.2873 0.20418 0.23631 0.0
C974 C 0.75618 0.83921 0.47736 0.0
C975 C 0.76753 0.87271 0.4741 0.0
C976 C 0.76757 0.82684 0.48587 0.0
C977 C 0.84165 0.82884 0.50129 0.0
H978 H 0.77481 0.80611 0.52061 0.0
C979 C 0.89109 0.79174 0.53733 0.0
C980 C 0.87015 0.76884 0.54272 0.0
C981 C 0.87843 0.80395 0.52893 0.0
C982 C 0.79395 0.81155 0.51526 0.0
H983 H 0.7998 0.91945 0.47715 0.0
H984 H 0.8207 0.89714 0.49191 0.0
H985 H 0.75248 0.82795 0.50604 0.0
H986 H 0.82009 0.73974 0.54341 0.0
H987 H 0.79883 0.75917 0.52856 0.0
H988 H 0.8831 0.81107 0.5102 0.0
C989 C 0.80252 0.88086 0.48792 0.0
C990 C 0.78104 0.82441 0.50694 0.0
C991 C 0.79041 0.89364 0.47952 0.0
C992 C 0.83671 0.75761 0.53943 0.0
C993 C 0.82439 0.76912 0.53092 0.0
C994 C 0.85457 0.81519 0.50952 0.0
C995 C 0.79124 0.84734 0.49115 0.0
C996 C 0.8048 0.83342 0.49993 0.0
C997 C 0.84482 0.79292 0.52559 0.0
C998 C 0.83095 0.80657 0.51668 0.0
H999 H 0.73852 0.82254 0.47333 0.0
H1000 H 0.75862 0.80087 0.48823 0.0
H1001 H 0.86044 0.83528 0.49592 0.0
H1002 H 0.91681 0.80119 0.53974 0.0
H1003 H 0.89479 0.82278 0.52518 0.0
C1004 C 0.1598 0.27401 0.72706 0.0
C1005 C 0.12302 0.26859 0.72555 0.0
C1006 C 0.17228 0.28537 0.73556 0.0
C1007 C 0.14778 0.29052 0.75988 0.0
H1008 H 0.22083 0.36427 0.76074 0.0
C1009 C 0.21702 0.33134 0.79343 0.0
C1010 C 0.22187 0.36816 0.79502 0.0
C1011 C 0.20593 0.31892 0.78491 0.0
C1012 C 0.20029 0.3438 0.76062 0.0
H1013 H 0.07058 0.27039 0.73187 0.0
H1014 H 0.0924 0.29021 0.74669 0.0
H1015 H 0.19896 0.34295 0.74605 0.0
H1016 H 0.21943 0.42073 0.78879 0.0
H1017 H 0.20004 0.399 0.77391 0.0
H1018 H 0.14871 0.29173 0.77444 0.0
C1019 C 0.11161 0.28545 0.74131 0.0
C1020 C 0.18803 0.3313 0.7522 0.0
C1021 C 0.09909 0.27421 0.73279 0.0
C1022 C 0.21602 0.3922 0.78781 0.0
C1023 C 0.20504 0.37973 0.77927 0.0
C1024 C 0.16016 0.30289 0.7683 0.0
C1025 C 0.14833 0.29148 0.74277 0.0
C1026 C 0.16158 0.30454 0.75173 0.0
C1027 C 0.19951 0.34296 0.77775 0.0
C1028 C 0.18655 0.32971 0.76877 0.0
H1029 H 0.17902 0.26989 0.72165 0.0
H1030 H 0.20077 0.28926 0.73649 0.0
H1031 H 0.12761 0.26969 0.75977 0.0
H1032 H 0.22136 0.31203 0.79881 0.0
H1033 H 0.20247 0.2904 0.78394 0.0
C1034 C 0.70004 0.59702 0.97896 0.0
C1035 C 0.72291 0.61776 0.97352 0.0
C1036 C 0.68845 0.60966 0.98742 0.0
C1037 C 0.68261 0.69402 1.0012 0.0
H1038 H 0.65853 0.62756 0.02051 0.0
C1039 C 0.65589 0.73129 0.0392 0.0
C1040 C 0.62193 0.72086 0.04236 0.0
C1041 C 0.66825 0.71973 0.03071 0.0
C1042 C 0.6651 0.64634 0.01515 0.0
H1043 H 0.75268 0.66742 0.9728 0.0
H1044 H 0.73435 0.68863 0.98775 0.0
H1045 H 0.68209 0.60479 1.00617 0.0
H1046 H 0.5744 0.69004 0.03914 0.0
H1047 H 0.59668 0.66883 0.02441 0.0
H1048 H 0.66697 0.73556 0.01048 0.0
C1049 C 0.72393 0.66326 0.98538 0.0
C1050 C 0.67836 0.63337 1.00688 0.0
C1051 C 0.7348 0.65097 0.97682 0.0
C1052 C 0.60057 0.6987 0.03686 0.0
C1053 C 0.61332 0.68642 0.02847 0.0
C1054 C 0.67015 0.70698 0.00955 0.0
C1055 C 0.70012 0.64306 0.99077 0.0
C1056 C 0.68705 0.65698 0.99973 0.0
C1057 C 0.64726 0.69682 0.02534 0.0
C1058 C 0.66101 0.68322 0.01656 0.0
H1059 H 0.6901 0.57148 0.97655 0.0
H1060 H 0.66959 0.5935 0.99121 0.0
H1061 H 0.68813 0.71317 0.99586 0.0
H1062 H 0.67289 0.74839 0.0433 0.0
H1063 H 0.69455 0.728 0.02842 0.0
C1064 C 0.34016 0.25345 0.0412 0.0
C1065 C 0.37337 0.26553 0.04446 0.0
C1066 C 0.32747 0.26452 0.0327 0.0
C1067 C 0.35625 0.31108 0.01124 0.0
H1068 H 0.25386 0.32188 1.00789 0.0
C1069 C 0.28998 0.38951 0.98156 0.0
C1070 C 0.2674 0.36847 0.97609 0.0
C1071 C 0.30252 0.37647 0.9899 0.0
C1072 C 0.2825 0.31886 1.00875 0.0
H1073 H 0.41923 0.29891 0.0414 0.0
H1074 H 0.39652 0.31972 0.02684 0.0
H1075 H 0.27689 0.30029 0.02241 0.0
H1076 H 0.23939 0.31776 0.97516 0.0
H1077 H 0.26025 0.2956 0.98995 0.0
H1078 H 0.36147 0.33149 0.99765 0.0
C1079 C 0.38066 0.30057 0.03062 0.0
C1080 C 0.29582 0.30616 0.01704 0.0
C1081 C 0.3937 0.28881 0.03902 0.0
C1082 C 0.2568 0.33454 0.97923 0.0
C1083 C 0.26863 0.32189 0.98768 0.0
C1084 C 0.34291 0.32457 1.00304 0.0
C1085 C 0.34726 0.2887 0.02732 0.0
C1086 C 0.33294 0.30196 0.01842 0.0
C1087 C 0.29199 0.34255 0.99301 0.0
C1088 C 0.30596 0.32847 1.00172 0.0
H1089 H 0.32402 0.23528 0.04522 0.0
H1090 H 0.30211 0.25395 0.03036 0.0
H1091 H 0.38487 0.30754 0.01188 0.0
H1092 H 0.29879 0.41565 0.97929 0.0
H1093 H 0.32044 0.39289 0.99392 0.0
C1094 C 0.71637 0.8884 0.28566 0.0
C1095 C 0.7222 0.8645 0.2929 0.0
C1096 C 0.70514 0.87581 0.27715 0.0
C1097 C 0.65944 0.79926 0.2663 0.0
H1098 H 0.69887 0.83831 0.24402 0.0
C1099 C 0.59835 0.77106 0.23072 0.0
C1100 C 0.62238 0.76496 0.22353 0.0
C1101 C 0.61085 0.78209 0.23926 0.0
C1102 C 0.68774 0.82694 0.25018 0.0
H1103 H 0.72129 0.80848 0.29679 0.0
H1104 H 0.7019 0.78662 0.28197 0.0
H1105 H 0.72095 0.85964 0.25868 0.0
H1106 H 0.67852 0.76509 0.21974 0.0
H1107 H 0.70021 0.78412 0.2346 0.0
H1108 H 0.62642 0.76635 0.2578 0.0
C1109 C 0.70564 0.81513 0.2829 0.0
C1110 C 0.70015 0.83945 0.25858 0.0
C1111 C 0.71702 0.82768 0.29138 0.0
C1112 C 0.65921 0.76961 0.22511 0.0
C1113 C 0.67167 0.78077 0.23362 0.0
C1114 C 0.64689 0.78689 0.2579 0.0
C1115 C 0.6993 0.83905 0.2757 0.0
C1116 C 0.68619 0.82572 0.26675 0.0
C1117 C 0.64764 0.78745 0.24078 0.0
C1118 C 0.66094 0.80053 0.24973 0.0
H1119 H 0.72001 0.91693 0.28659 0.0
H1120 H 0.70021 0.89499 0.27177 0.0
H1121 H 0.64784 0.78838 0.27247 0.0
H1122 H 0.56981 0.76782 0.22974 0.0
H1123 H 0.5916 0.78728 0.24461 0.0
C1124 C 0.22015 0.16283 0.47688 0.0
C1125 C 0.22495 0.12593 0.47543 0.0
C1126 C 0.2089 0.17572 0.48534 0.0
C1127 C 0.20288 0.1521 0.5097 0.0
H1128 H 0.12923 0.22517 0.51027 0.0
C1129 C 0.16038 0.2218 0.54306 0.0
C1130 C 0.12344 0.22617 0.54453 0.0
C1131 C 0.17331 0.21081 0.53459 0.0
C1132 C 0.14969 0.20466 0.51022 0.0
H1133 H 0.22228 0.07371 0.48184 0.0
H1134 H 0.20271 0.09623 0.49661 0.0
H1135 H 0.15109 0.20298 0.49566 0.0
H1136 H 0.0712 0.22305 0.53814 0.0
H1137 H 0.09382 0.2039 0.52334 0.0
H1138 H 0.20112 0.1534 0.52426 0.0
C1139 C 0.20783 0.11522 0.4912 0.0
C1140 C 0.16249 0.1922 0.50186 0.0
C1141 C 0.21892 0.10229 0.48272 0.0
C1142 C 0.0998 0.22001 0.53725 0.0
C1143 C 0.11278 0.20916 0.52875 0.0
C1144 C 0.19023 0.16471 0.51806 0.0
C1145 C 0.20232 0.15205 0.49258 0.0
C1146 C 0.18917 0.1657 0.50149 0.0
C1147 C 0.14967 0.20406 0.52735 0.0
C1148 C 0.16342 0.19107 0.51843 0.0
H1149 H 0.22459 0.18183 0.47143 0.0
H1150 H 0.2054 0.20428 0.48621 0.0
H1151 H 0.22362 0.13188 0.50966 0.0
H1152 H 0.17938 0.22637 0.54851 0.0
H1153 H 0.2019 0.20763 0.5337 0.0
C1154 C 0.8374 0.73665 0.72729 0.0
C1155 C 0.87073 0.72488 0.72402 0.0
C1156 C 0.8247 0.72507 0.73575 0.0
C1157 C 0.82594 0.64995 0.75095 0.0
H1158 H 0.80183 0.71591 0.77035 0.0
C1159 C 0.78845 0.59897 0.7868 0.0
C1160 C 0.76515 0.61939 0.7922 0.0
C1161 C 0.80066 0.61205 0.77844 0.0
C1162 C 0.80767 0.69702 0.76497 0.0
H1163 H 0.91687 0.69179 0.72703 0.0
H1164 H 0.89401 0.67064 0.7417 0.0
H1165 H 0.82417 0.73895 0.7559 0.0
H1166 H 0.73532 0.66896 0.79294 0.0
H1167 H 0.75481 0.69096 0.77815 0.0
H1168 H 0.80814 0.60803 0.75971 0.0
C1169 C 0.87809 0.68924 0.73775 0.0
C1170 C 0.82079 0.71034 0.75672 0.0
C1171 C 0.8912 0.7015 0.7294 0.0
C1172 C 0.7535 0.65274 0.78895 0.0
C1173 C 0.76503 0.66548 0.78049 0.0
C1174 C 0.81205 0.63663 0.75911 0.0
C1175 C 0.84469 0.70083 0.74098 0.0
C1176 C 0.83033 0.68689 0.74967 0.0
C1177 C 0.78923 0.64558 0.77515 0.0
C1178 C 0.80297 0.65992 0.76629 0.0
H1179 H 0.82107 0.75469 0.72329 0.0
H1180 H 0.79882 0.73427 0.7381 0.0
H1181 H 0.83275 0.63139 0.74555 0.0
H1182 H 0.79824 0.57335 0.78918 0.0
H1183 H 0.8198 0.59611 0.77469 0.0
loop_
_geom_bond_atom_site_label_1
_geom_bond_atom_site_label_2
_geom_bond_distance
_geom_bond_site_symmetry_2
_ccdc_geom_bond_type
C0 O2 1.247 . S
C0 O4 1.258 . S
C1 O8 1.247 . S
C1 O9 1.258 . S
O2 C0 1.247 . S
O2 Zn3 2.028 . S
Zn3 O2 2.028 . S
Zn3 O7 2.035 . S
Zn3 O9 2.035 . S
Zn3 O10 2.028 . S
O4 C0 1.258 . S
O4 Zn5 2.035 . S
Zn5 O4 2.035 . S
Zn5 O6 2.028 . S
Zn5 O8 2.028 . S
Zn5 O11 2.035 . S
O6 Zn5 2.028 . S
O6 C12 1.247 . S
O7 Zn3 2.035 . S
O7 C12 1.258 . S
O8 C1 1.247 . S
O8 Zn5 2.028 . S
O9 C1 1.258 . S
O9 Zn3 2.035 . S
O10 Zn3 2.028 . S
O10 C13 1.247 . S
O11 Zn5 2.035 . S
O11 C13 1.258 . S
C12 O6 1.247 . S
C12 O7 1.258 . S
C13 O10 1.247 . S
C13 O11 1.258 . S
C14 O16 1.247 . S
C14 O18 1.258 . S
C15 O22 1.247 . S
C15 O23 1.258 . S
O16 C14 1.247 . S
O16 Zn17 2.028 . S
Zn17 O16 2.028 . S
Zn17 O21 2.035 . S
Zn17 O23 2.035 . S
Zn17 O24 2.028 . S
O18 C14 1.258 . S
O18 Zn19 2.035 . S
Zn19 O18 2.035 . S
Zn19 O20 2.028 . S
Zn19 O22 2.028 . S
Zn19 O25 2.035 . S
O20 Zn19 2.028 . S
O20 C26 1.247 . S
O21 Zn17 2.035 . S
O21 C26 1.258 . S
O22 C15 1.247 . S
O22 Zn19 2.028 . S
O23 C15 1.258 . S
O23 Zn17 2.035 . S
O24 Zn17 2.028 . S
O24 C27 1.247 . S
O25 Zn19 2.035 . S
O25 C27 1.258 . S
C26 O20 1.247 . S
C26 O21 1.258 . S
C27 O24 1.247 . S
C27 O25 1.258 . S
C28 O30 1.247 . S
C28 O32 1.258 . S
C29 O36 1.247 . S
C29 O37 1.258 . S
O30 C28 1.247 . S
O30 Zn31 2.028 . S
Zn31 O30 2.028 . S
Zn31 O35 2.035 . S
Zn31 O37 2.035 . S
Zn31 O38 2.028 . S
O32 C28 1.258 . S
O32 Zn33 2.035 . S
Zn33 O32 2.035 . S
Zn33 O34 2.028 . S
Zn33 O36 2.028 . S
Zn33 O39 2.035 . S
O34 Zn33 2.028 . S
O34 C40 1.247 . S
O35 Zn31 2.035 . S
O35 C40 1.258 . S
O36 C29 1.247 . S
O36 Zn33 2.028 . S
O37 C29 1.258 . S
O37 Zn31 2.035 . S
O38 Zn31 2.028 . S
O38 C41 1.247 . S
O39 Zn33 2.035 . S
O39 C41 1.258 . S
C40 O34 1.247 . S
C40 O35 1.258 . S
C41 O38 1.247 . S
C41 O39 1.258 . S
C42 O44 1.247 . S
C42 O46 1.258 . S
C43 O50 1.247 . S
C43 O51 1.258 . S
O44 C42 1.247 . S
O44 Zn45 2.028 . S
Zn45 O44 2.028 . S
Zn45 O49 2.035 . S
Zn45 O51 2.035 . S
Zn45 O52 2.028 . S
O46 C42 1.258 . S
O46 Zn47 2.035 . S
Zn47 O46 2.035 . S
Zn47 O48 2.028 . S
Zn47 O50 2.028 . S
Zn47 O53 2.035 . S
O48 Zn47 2.028 . S
O48 C54 1.247 . S
O49 Zn45 2.035 . S
O49 C54 1.258 . S
O50 C43 1.247 . S
O50 Zn47 2.028 . S
O51 C43 1.258 . S
O51 Zn45 2.035 . S
O52 Zn45 2.028 . S
O52 C55 1.247 . S
O53 Zn47 2.035 . S
O53 C55 1.258 . S
C54 O48 1.247 . S
C54 O49 1.258 . S
C55 O52 1.247 . S
C55 O53 1.258 . S
C56 O58 1.247 . S
C56 O60 1.258 . S
C57 O64 1.247 . S
C57 O65 1.258 . S
O58 C56 1.247 . S
O58 Zn59 2.028 . S
Zn59 O58 2.028 . S
Zn59 O63 2.035 . S
Zn59 O65 2.035 . S
Zn59 O66 2.028 . S
O60 C56 1.258 . S
O60 Zn61 2.035 . S
Zn61 O60 2.035 . S
Zn61 O62 2.028 . S
Zn61 O64 2.028 . S
Zn61 O67 2.035 . S
O62 Zn61 2.028 . S
O62 C68 1.247 . S
O63 Zn59 2.035 . S
O63 C68 1.258 . S
O64 C57 1.247 . S
O64 Zn61 2.028 . S
O65 C57 1.258 . S
O65 Zn59 2.035 . S
O66 Zn59 2.028 . S
O66 C69 1.247 . S
O67 Zn61 2.035 . S
O67 C69 1.258 . S
C68 O62 1.247 . S
C68 O63 1.258 . S
C69 O66 1.247 . S
C69 O67 1.258 . S
C70 O72 1.247 . S
C70 O74 1.258 . S
C71 O78 1.247 . S
C71 O79 1.258 . S
O72 C70 1.247 . S
O72 Zn73 2.028 . S
Zn73 O72 2.028 . S
Zn73 O77 2.035 . S
Zn73 O79 2.035 . S
Zn73 O80 2.028 . S
O74 C70 1.258 . S
O74 Zn75 2.035 . S
Zn75 O74 2.035 . S
Zn75 O76 2.028 . S
Zn75 O78 2.028 . S
Zn75 O81 2.035 . S
O76 Zn75 2.028 . S
O76 C82 1.247 . S
O77 Zn73 2.035 . S
O77 C82 1.258 . S
O78 C71 1.247 . S
O78 Zn75 2.028 . S
O79 C71 1.258 . S
O79 Zn73 2.035 . S
O80 Zn73 2.028 . S
O80 C83 1.247 . S
O81 Zn75 2.035 . S
O81 C83 1.258 . S
C82 O76 1.247 . S
C82 O77 1.258 . S
C83 O80 1.247 . S
C83 O81 1.258 . S
C84 O86 1.247 . S
C84 O88 1.258 . S
C85 O92 1.247 . S
C85 O93 1.258 . S
O86 C84 1.247 . S
O86 Zn87 2.028 . S
Zn87 O86 2.028 . S
Zn87 O91 2.035 . S
Zn87 O93 2.035 . S
Zn87 O94 2.028 . S
O88 C84 1.258 . S
O88 Zn89 2.035 . S
Zn89 O88 2.035 . S
Zn89 O90 2.028 . S
Zn89 O92 2.028 . S
Zn89 O95 2.035 . S
O90 Zn89 2.028 . S
O90 C96 1.247 . S
O91 Zn87 2.035 . S
O91 C96 1.258 . S
O92 C85 1.247 . S
O92 Zn89 2.028 . S
O93 C85 1.258 . S
O93 Zn87 2.035 . S
O94 Zn87 2.028 . S
O94 C97 1.247 . S
O95 Zn89 2.035 . S
O95 C97 1.258 . S
C96 O90 1.247 . S
C96 O91 1.258 . S
C97 O94 1.247 . S
C97 O95 1.258 . S
C98 O100 1.247 . S
C98 O102 1.258 . S
C99 O106 1.247 . S
C99 O107 1.258 . S
O100 C98 1.247 . S
O100 Zn101 2.028 . S
Zn101 O100 2.028 . S
Zn101 O105 2.035 . S
Zn101 O107 2.035 . S
Zn101 O108 2.028 . S
O102 C98 1.258 . S
O102 Zn103 2.035 . S
Zn103 O102 2.035 . S
Zn103 O104 2.028 . S
Zn103 O106 2.028 . S
Zn103 O109 2.035 . S
O104 Zn103 2.028 . S
O104 C110 1.247 . S
O105 Zn101 2.035 . S
O105 C110 1.258 . S
O106 C99 1.247 . S
O106 Zn103 2.028 . S
O107 C99 1.258 . S
O107 Zn101 2.035 . S
O108 Zn101 2.028 . S
O108 C111 1.247 . S
O109 Zn103 2.035 . S
O109 C111 1.258 . S
C110 O104 1.247 . S
C110 O105 1.258 . S
C111 O108 1.247 . S
C111 O109 1.258 . S
C112 O114 1.247 . S
C112 O116 1.258 . S
C113 O120 1.247 . S
C113 O121 1.258 . S
O114 C112 1.247 . S
O114 Zn115 2.028 . S
Zn115 O114 2.028 . S
Zn115 O119 2.035 . S
Zn115 O121 2.035 . S
Zn115 O122 2.028 . S
O116 C112 1.258 . S
O116 Zn117 2.035 . S
Zn117 O116 2.035 . S
Zn117 O118 2.028 . S
Zn117 O120 2.028 . S
Zn117 O123 2.035 . S
O118 Zn117 2.028 . S
O118 C124 1.247 . S
O119 Zn115 2.035 . S
O119 C124 1.258 . S
O120 C113 1.247 . S
O120 Zn117 2.028 . S
O121 C113 1.258 . S
O121 Zn115 2.035 . S
O122 Zn115 2.028 . S
O122 C125 1.247 . S
O123 Zn117 2.035 . S
O123 C125 1.258 . S
C124 O118 1.247 . S
C124 O119 1.258 . S
C125 O122 1.247 . S
C125 O123 1.258 . S
C126 O128 1.247 . S
C126 O130 1.258 . S
C127 O134 1.247 . S
C127 O135 1.258 . S
O128 C126 1.247 . S
O128 Zn129 2.028 . S
Zn129 O128 2.028 . S
Zn129 O133 2.035 . S
Zn129 O135 2.035 . S
Zn129 O136 2.028 . S
O130 C126 1.258 . S
O130 Zn131 2.035 . S
Zn131 O130 2.035 . S
Zn131 O132 2.028 . S
Zn131 O134 2.028 . S
Zn131 O137 2.035 . S
O132 Zn131 2.028 . S
O132 C138 1.247 . S
O133 Zn129 2.035 . S
O133 C138 1.258 . S
O134 C127 1.247 . S
O134 Zn131 2.028 . S
O135 C127 1.258 . S
O135 Zn129 2.035 . S
O136 Zn129 2.028 . S
O136 C139 1.247 . S
O137 Zn131 2.035 . S
O137 C139 1.258 . S
C138 O132 1.247 . S
C138 O133 1.258 . S
C139 O136 1.247 . S
C139 O137 1.258 . S
C140 O142 1.247 . S
C140 O144 1.258 . S
C141 O148 1.247 . S
C141 O149 1.258 . S
O142 C140 1.247 . S
O142 Zn143 2.028 . S
Zn143 O142 2.028 . S
Zn143 O147 2.035 . S
Zn143 O149 2.035 . S
Zn143 O150 2.028 . S
O144 C140 1.258 . S
O144 Zn145 2.035 . S
Zn145 O144 2.035 . S
Zn145 O146 2.028 . S
Zn145 O148 2.028 . S
Zn145 O151 2.035 . S
O146 Zn145 2.028 . S
O146 C152 1.247 . S
O147 Zn143 2.035 . S
O147 C152 1.258 . S
O148 C141 1.247 . S
O148 Zn145 2.028 . S
O149 C141 1.258 . S
O149 Zn143 2.035 . S
O150 Zn143 2.028 . S
O150 C153 1.247 . S
O151 Zn145 2.035 . S
O151 C153 1.258 . S
C152 O146 1.247 . S
C152 O147 1.258 . S
C153 O150 1.247 . S
C153 O151 1.258 . S
C154 O156 1.247 . S
C154 O158 1.258 . S
C155 O162 1.247 . S
C155 O163 1.258 . S
O156 C154 1.247 . S
O156 Zn157 2.028 . S
Zn157 O156 2.028 . S
Zn157 O161 2.035 . S
Zn157 O163 2.035 . S
Zn157 O164 2.028 . S
O158 C154 1.258 . S
O158 Zn159 2.035 . S
Zn159 O158 2.035 . S
Zn159 O160 2.028 . S
Zn159 O162 2.028 . S
Zn159 O165 2.035 . S
O160 Zn159 2.028 . S
O160 C166 1.247 . S
O161 Zn157 2.035 . S
O161 C166 1.258 . S
O162 C155 1.247 . S
O162 Zn159 2.028 . S
O163 C155 1.258 . S
O163 Zn157 2.035 . S
O164 Zn157 2.028 . S
O164 C167 1.247 . S
O165 Zn159 2.035 . S
O165 C167 1.258 . S
C166 O160 1.247 . S
C166 O161 1.258 . S
C167 O164 1.247 . S
C167 O165 1.258 . S
C168 O170 1.247 . S
C168 O172 1.258 . S
C169 O176 1.247 . S
C169 O177 1.258 . S
O170 C168 1.247 . S
O170 Zn171 2.028 . S
Zn171 O170 2.028 . S
Zn171 O175 2.035 . S
Zn171 O177 2.035 . S
Zn171 O178 2.028 . S
O172 C168 1.258 . S
O172 Zn173 2.035 . S
Zn173 O172 2.035 . S
Zn173 O174 2.028 . S
Zn173 O176 2.028 . S
Zn173 O179 2.035 . S
O174 Zn173 2.028 . S
O174 C180 1.247 . S
O175 Zn171 2.035 . S
O175 C180 1.258 . S
O176 C169 1.247 . S
O176 Zn173 2.028 . S
O177 C169 1.258 . S
O177 Zn171 2.035 . S
O178 Zn171 2.028 . S
O178 C181 1.247 . S
O179 Zn173 2.035 . S
O179 C181 1.258 . S
C180 O174 1.247 . S
C180 O175 1.258 . S
C181 O178 1.247 . S
C181 O179 1.258 . S
C182 O184 1.247 . S
C182 O186 1.258 . S
C183 O190 1.247 . S
C183 O191 1.258 . S
O184 C182 1.247 . S
O184 Zn185 2.028 . S
Zn185 O184 2.028 . S
Zn185 O189 2.035 . S
Zn185 O191 2.035 . S
Zn185 O192 2.028 . S
O186 C182 1.258 . S
O186 Zn187 2.035 . S
Zn187 O186 2.035 . S
Zn187 O188 2.028 . S
Zn187 O190 2.028 . S
Zn187 O193 2.035 . S
O188 Zn187 2.028 . S
O188 C194 1.247 . S
O189 Zn185 2.035 . S
O189 C194 1.258 . S
O190 C183 1.247 . S
O190 Zn187 2.028 . S
O191 C183 1.258 . S
O191 Zn185 2.035 . S
O192 Zn185 2.028 . S
O192 C195 1.247 . S
O193 Zn187 2.035 . S
O193 C195 1.258 . S
C194 O188 1.247 . S
C194 O189 1.258 . S
C195 O192 1.247 . S
C195 O193 1.258 . S
C196 O198 1.247 . S
C196 O200 1.258 . S
C197 O204 1.247 . S
C197 O205 1.258 . S
O198 C196 1.247 . S
O198 Zn199 2.028 . S
Zn199 O198 2.028 . S
Zn199 O203 2.035 . S
Zn199 O205 2.035 . S
Zn199 O206 2.028 . S
O200 C196 1.258 . S
O200 Zn201 2.035 . S
Zn201 O200 2.035 . S
Zn201 O202 2.028 . S
Zn201 O204 2.028 . S
Zn201 O207 2.035 . S
O202 Zn201 2.028 . S
O202 C208 1.247 . S
O203 Zn199 2.035 . S
O203 C208 1.258 . S
O204 C197 1.247 . S
O204 Zn201 2.028 . S
O205 C197 1.258 . S
O205 Zn199 2.035 . S
O206 Zn199 2.028 . S
O206 C209 1.247 . S
O207 Zn201 2.035 . S
O207 C209 1.258 . S
C208 O202 1.247 . S
C208 O203 1.258 . S
C209 O206 1.247 . S
C209 O207 1.258 . S
C210 O212 1.247 . S
C210 O214 1.258 . S
C211 O218 1.247 . S
C211 O219 1.258 . S
O212 C210 1.247 . S
O212 Zn213 2.028 . S
Zn213 O212 2.028 . S
Zn213 O217 2.035 . S
Zn213 O219 2.035 . S
Zn213 O220 2.028 . S
O214 C210 1.258 . S
O214 Zn215 2.035 . S
Zn215 O214 2.035 . S
Zn215 O216 2.028 . S
Zn215 O218 2.028 . S
Zn215 O221 2.035 . S
O216 Zn215 2.028 . S
O216 C222 1.247 . S
O217 Zn213 2.035 . S
O217 C222 1.258 . S
O218 C211 1.247 . S
O218 Zn215 2.028 . S
O219 C211 1.258 . S
O219 Zn213 2.035 . S
O220 Zn213 2.028 . S
O220 C223 1.247 . S
O221 Zn215 2.035 . S
O221 C223 1.258 . S
C222 O216 1.247 . S
C222 O217 1.258 . S
C223 O220 1.247 . S
C223 O221 1.258 . S
C224 C225 1.349 . S
C224 C226 1.327 . S
C224 H249 0.950 . S
C225 C224 1.349 . S
C225 C241 1.349 . S
C226 C224 1.327 . S
C226 C245 1.429 . S
C226 H250 0.950 . S
C227 C244 1.574 1_655 S
C227 C246 1.368 1_545 S
C227 H251 0.949 . S
H228 C232 0.949 . S
C229 C230 1.349 . S
C229 C231 1.327 . S
C229 H252 0.950 . S
C230 C229 1.349 . S
C230 C242 1.349 . S
C231 C229 1.327 . S
C231 C247 1.429 . S
C231 H253 0.950 . S
C232 H228 0.949 . S
C232 C240 1.574 1_455 S
C232 C248 1.368 1_565 S
H233 C241 0.950 . S
H234 C239 0.950 . S
H235 C240 0.949 . S
H236 C242 0.950 . S
H237 C243 0.950 . S
H238 C244 0.949 . S
C239 H234 0.950 . S
C239 C241 1.327 . S
C239 C245 1.429 . S
C240 C232 1.574 1_655 S
C240 H235 0.949 . S
C240 C246 1.368 . S
C241 C225 1.349 . S
C241 H233 0.950 . S
C241 C239 1.327 . S
C242 C230 1.349 . S
C242 H236 0.950 . S
C242 C243 1.327 . S
C243 H237 0.950 . S
C243 C242 1.327 . S
C243 C247 1.429 . S
C244 C227 1.574 1_455 S
C244 H238 0.949 . S
C244 C248 1.368 . S
C245 C226 1.429 . S
C245 C239 1.429 . S
C245 C246 1.523 . S
C246 C227 1.368 1_565 S
C246 C240 1.368 . S
C246 C245 1.523 . S
C247 C231 1.429 . S
C247 C243 1.429 . S
C247 C248 1.523 . S
C248 C232 1.368 1_545 S
C248 C244 1.368 . S
C248 C247 1.523 . S
H249 C224 0.950 . S
H250 C226 0.950 . S
H251 C227 0.949 . S
H252 C229 0.950 . S
H253 C231 0.950 . S
C254 C255 1.349 . S
C254 C256 1.327 . S
C254 H279 0.950 . S
C255 C254 1.349 . S
C255 C271 1.349 . S
C256 C254 1.327 . S
C256 C275 1.429 . S
C256 H280 0.950 . S
C257 C274 1.574 . S
C257 C276 1.368 . S
C257 H281 0.949 . S
H258 C262 0.949 . S
C259 C260 1.349 . S
C259 C261 1.327 . S
C259 H282 0.950 . S
C260 C259 1.349 . S
C260 C272 1.349 . S
C261 C259 1.327 . S
C261 C277 1.429 . S
C261 H283 0.950 . S
C262 H258 0.949 . S
C262 C270 1.574 . S
C262 C278 1.368 . S
H263 C271 0.950 . S
H264 C269 0.950 . S
H265 C270 0.949 . S
H266 C272 0.950 . S
H267 C273 0.950 . S
H268 C274 0.949 . S
C269 H264 0.950 . S
C269 C271 1.327 . S
C269 C275 1.429 . S
C270 C262 1.574 . S
C270 H265 0.949 . S
C270 C276 1.368 1_455 S
C271 C255 1.349 . S
C271 H263 0.950 . S
C271 C269 1.327 . S
C272 C260 1.349 . S
C272 H266 0.950 . S
C272 C273 1.327 . S
C273 H267 0.950 . S
C273 C272 1.327 . S
C273 C277 1.429 . S
C274 C257 1.574 . S
C274 H268 0.949 . S
C274 C278 1.368 1_655 S
C275 C256 1.429 . S
C275 C269 1.429 . S
C275 C276 1.523 . S
C276 C257 1.368 . S
C276 C270 1.368 1_655 S
C276 C275 1.523 . S
C277 C261 1.429 . S
C277 C273 1.429 . S
C277 C278 1.523 . S
C278 C262 1.368 . S
C278 C274 1.368 1_455 S
C278 C277 1.523 . S
H279 C254 0.950 . S
H280 C256 0.950 . S
H281 C257 0.949 . S
H282 C259 0.950 . S
H283 C261 0.950 . S
C284 C285 1.349 . S
C284 C286 1.327 . S
C284 H309 0.950 . S
C285 C284 1.349 . S
C285 C301 1.349 . S
C286 C284 1.327 . S
C286 C305 1.429 . S
C286 H310 0.950 . S
C287 C304 1.574 . S
C287 C306 1.368 . S
C287 H311 0.949 . S
H288 C292 0.949 . S
C289 C290 1.349 . S
C289 C291 1.327 . S
C289 H312 0.950 . S
C290 C289 1.349 . S
C290 C302 1.349 . S
C291 C289 1.327 . S
C291 C307 1.429 . S
C291 H313 0.950 . S
C292 H288 0.949 . S
C292 C300 1.574 . S
C292 C308 1.368 . S
H293 C301 0.950 . S
H294 C299 0.950 . S
H295 C300 0.949 . S
H296 C302 0.950 . S
H297 C303 0.950 . S
H298 C304 0.949 . S
C299 H294 0.950 . S
C299 C301 1.327 . S
C299 C305 1.429 . S
C300 C292 1.574 . S
C300 H295 0.949 . S
C300 C306 1.368 . S
C301 C285 1.349 . S
C301 H293 0.950 . S
C301 C299 1.327 . S
C302 C290 1.349 . S
C302 H296 0.950 . S
C302 C303 1.327 . S
C303 H297 0.950 . S
C303 C302 1.327 . S
C303 C307 1.429 . S
C304 C287 1.574 . S
C304 H298 0.949 . S
C304 C308 1.368 . S
C305 C286 1.429 . S
C305 C299 1.429 . S
C305 C306 1.523 . S
C306 C287 1.368 . S
C306 C300 1.368 . S
C306 C305 1.523 . S
C307 C291 1.429 . S
C307 C303 1.429 . S
C307 C308 1.523 . S
C308 C292 1.368 . S
C308 C304 1.368 . S
C308 C307 1.523 . S
H309 C284 0.950 . S
H310 C286 0.950 . S
H311 C287 0.949 . S
H312 C289 0.950 . S
H313 C291 0.950 . S
C314 C315 1.349 . S
C314 C316 1.327 . S
C314 H339 0.950 . S
C315 C314 1.349 . S
C315 C331 1.349 . S
C316 C314 1.327 . S
C316 C335 1.429 . S
C316 H340 0.950 . S
C317 C334 1.574 1_545 S
C317 C336 1.368 . S
C317 H341 0.949 . S
H318 C322 0.949 . S
C319 C320 1.349 . S
C319 C321 1.327 . S
C319 H342 0.950 . S
C320 C319 1.349 . S
C320 C332 1.349 . S
C321 C319 1.327 . S
C321 C337 1.429 . S
C321 H343 0.950 . S
C322 H318 0.949 . S
C322 C330 1.574 1_565 S
C322 C338 1.368 . S
H323 C331 0.950 . S
H324 C329 0.950 . S
H325 C330 0.949 . S
H326 C332 0.950 . S
H327 C333 0.950 . S
H328 C334 0.949 . S
C329 H324 0.950 . S
C329 C331 1.327 . S
C329 C335 1.429 . S
C330 C322 1.574 1_545 S
C330 H325 0.949 . S
C330 C336 1.368 . S
C331 C315 1.349 . S
C331 H323 0.950 . S
C331 C329 1.327 . S
C332 C320 1.349 . S
C332 H326 0.950 . S
C332 C333 1.327 . S
C333 H327 0.950 . S
C333 C332 1.327 . S
C333 C337 1.429 . S
C334 C317 1.574 1_565 S
C334 H328 0.949 . S
C334 C338 1.368 . S
C335 C316 1.429 . S
C335 C329 1.429 . S
C335 C336 1.523 . S
C336 C317 1.368 . S
C336 C330 1.368 . S
C336 C335 1.523 . S
C337 C321 1.429 . S
C337 C333 1.429 . S
C337 C338 1.523 . S
C338 C322 1.368 . S
C338 C334 1.368 . S
C338 C337 1.523 . S
H339 C314 0.950 . S
H340 C316 0.950 . S
H341 C317 0.949 . S
H342 C319 0.950 . S
H343 C321 0.950 . S
C344 C345 1.349 . S
C344 C346 1.327 . S
C344 H369 0.950 . S
C345 C344 1.349 . S
C345 C361 1.349 . S
C346 C344 1.327 . S
C346 C365 1.429 . S
C346 H370 0.950 . S
C347 C364 1.574 1_455 S
C347 C366 1.368 . S
C347 H371 0.949 . S
H348 C352 0.949 . S
C349 C350 1.349 . S
C349 C351 1.327 . S
C349 H372 0.950 . S
C350 C349 1.349 . S
C350 C362 1.349 . S
C351 C349 1.327 . S
C351 C367 1.429 . S
C351 H373 0.950 . S
C352 H348 0.949 . S
C352 C360 1.574 1_655 S
C352 C368 1.368 . S
H353 C361 0.950 . S
H354 C359 0.950 . S
H355 C360 0.949 . S
H356 C362 0.950 . S
H357 C363 0.950 . S
H358 C364 0.949 . S
C359 H354 0.950 . S
C359 C361 1.327 . S
C359 C365 1.429 . S
C360 C352 1.574 1_455 S
C360 H355 0.949 . S
C360 C366 1.368 . S
C361 C345 1.349 . S
C361 H353 0.950 . S
C361 C359 1.327 . S
C362 C350 1.349 . S
C362 H356 0.950 . S
C362 C363 1.327 . S
C363 H357 0.950 . S
C363 C362 1.327 . S
C363 C367 1.429 . S
C364 C347 1.574 1_655 S
C364 H358 0.949 . S
C364 C368 1.368 . S
C365 C346 1.429 . S
C365 C359 1.429 . S
C365 C366 1.523 . S
C366 C347 1.368 . S
C366 C360 1.368 . S
C366 C365 1.523 . S
C367 C351 1.429 . S
C367 C363 1.429 . S
C367 C368 1.523 . S
C368 C352 1.368 . S
C368 C364 1.368 . S
C368 C367 1.523 . S
H369 C344 0.950 . S
H370 C346 0.950 . S
H371 C347 0.949 . S
H372 C349 0.950 . S
H373 C351 0.950 . S
C374 C375 1.349 . S
C374 C376 1.327 . S
C374 H399 0.950 . S
C375 C374 1.349 . S
C375 C391 1.349 . S
C376 C374 1.327 . S
C376 C395 1.429 . S
C376 H400 0.950 . S
C377 C394 1.574 . S
C377 C396 1.368 . S
C377 H401 0.949 . S
H378 C382 0.949 . S
C379 C380 1.349 . S
C379 C381 1.327 . S
C379 H402 0.950 . S
C380 C379 1.349 . S
C380 C392 1.349 . S
C381 C379 1.327 . S
C381 C397 1.429 . S
C381 H403 0.950 . S
C382 H378 0.949 . S
C382 C390 1.574 . S
C382 C398 1.368 . S
H383 C391 0.950 . S
H384 C389 0.950 . S
H385 C390 0.949 . S
H386 C392 0.950 . S
H387 C393 0.950 . S
H388 C394 0.949 . S
C389 H384 0.950 . S
C389 C391 1.327 . S
C389 C395 1.429 . S
C390 C382 1.574 . S
C390 H385 0.949 . S
C390 C396 1.368 . S
C391 C375 1.349 . S
C391 H383 0.950 . S
C391 C389 1.327 . S
C392 C380 1.349 . S
C392 H386 0.950 . S
C392 C393 1.327 . S
C393 H387 0.950 . S
C393 C392 1.327 . S
C393 C397 1.429 . S
C394 C377 1.574 . S
C394 H388 0.949 . S
C394 C398 1.368 . S
C395 C376 1.429 . S
C395 C389 1.429 . S
C395 C396 1.523 . S
C396 C377 1.368 . S
C396 C390 1.368 . S
C396 C395 1.523 . S
C397 C381 1.429 . S
C397 C393 1.429 . S
C397 C398 1.523 . S
C398 C382 1.368 . S
C398 C394 1.368 . S
C398 C397 1.523 . S
H399 C374 0.950 . S
H400 C376 0.950 . S
H401 C377 0.949 . S
H402 C379 0.950 . S
H403 C381 0.950 . S
C404 C405 1.349 . S
C404 C406 1.327 . S
C404 H429 0.950 . S
C405 C404 1.349 . S
C405 C421 1.349 . S
C406 C404 1.327 . S
C406 C425 1.429 . S
C406 H430 0.950 . S
C407 C424 1.574 . S
C407 C426 1.368 . S
C407 H431 0.949 . S
H408 C412 0.949 . S
C409 C410 1.349 . S
C409 C411 1.327 . S
C409 H432 0.950 . S
C410 C409 1.349 . S
C410 C422 1.349 . S
C411 C409 1.327 . S
C411 C427 1.429 . S
C411 H433 0.950 . S
C412 H408 0.949 . S
C412 C420 1.574 . S
C412 C428 1.368 . S
H413 C421 0.950 . S
H414 C419 0.950 . S
H415 C420 0.949 . S
H416 C422 0.950 . S
H417 C423 0.950 . S
H418 C424 0.949 . S
C419 H414 0.950 . S
C419 C421 1.327 . S
C419 C425 1.429 . S
C420 C412 1.574 . S
C420 H415 0.949 . S
C420 C426 1.368 1_565 S
C421 C405 1.349 . S
C421 H413 0.950 . S
C421 C419 1.327 . S
C422 C410 1.349 . S
C422 H416 0.950 . S
C422 C423 1.327 . S
C423 H417 0.950 . S
C423 C422 1.327 . S
C423 C427 1.429 . S
C424 C407 1.574 . S
C424 H418 0.949 . S
C424 C428 1.368 1_545 S
C425 C406 1.429 . S
C425 C419 1.429 . S
C425 C426 1.523 . S
C426 C407 1.368 . S
C426 C420 1.368 1_545 S
C426 C425 1.523 . S
C427 C411 1.429 . S
C427 C423 1.429 . S
C427 C428 1.523 . S
C428 C412 1.368 . S
C428 C424 1.368 1_565 S
C428 C427 1.523 . S
H429 C404 0.950 . S
H430 C406 0.950 . S
H431 C407 0.949 . S
H432 C409 0.950 . S
H433 C411 0.950 . S
C434 C435 1.349 . S
C434 C436 1.327 . S
C434 H459 0.950 . S
C435 C434 1.349 . S
C435 C451 1.349 . S
C436 C434 1.327 . S
C436 C455 1.429 . S
C436 H460 0.950 . S
C437 C454 1.574 1_545 S
C437 C456 1.368 1_655 S
C437 H461 0.949 . S
H438 C442 0.949 . S
C439 C440 1.349 . S
C439 C441 1.327 . S
C439 H462 0.950 . S
C440 C439 1.349 . S
C440 C452 1.349 . S
C441 C439 1.327 . S
C441 C457 1.429 . S
C441 H463 0.950 . S
C442 H438 0.949 . S
C442 C450 1.574 1_565 S
C442 C458 1.368 1_455 S
H443 C451 0.950 . S
H444 C449 0.950 . S
H445 C450 0.949 . S
H446 C452 0.950 . S
H447 C453 0.950 . S
H448 C454 0.949 . S
C449 H444 0.950 . S
C449 C451 1.327 . S
C449 C455 1.429 . S
C450 C442 1.574 1_545 S
C450 H445 0.949 . S
C450 C456 1.368 . S
C451 C435 1.349 . S
C451 H443 0.950 . S
C451 C449 1.327 . S
C452 C440 1.349 . S
C452 H446 0.950 . S
C452 C453 1.327 . S
C453 H447 0.950 . S
C453 C452 1.327 . S
C453 C457 1.429 . S
C454 C437 1.574 1_565 S
C454 H448 0.949 . S
C454 C458 1.368 . S
C455 C436 1.429 . S
C455 C449 1.429 . S
C455 C456 1.523 . S
C456 C437 1.368 1_455 S
C456 C450 1.368 . S
C456 C455 1.523 . S
C457 C441 1.429 . S
C457 C453 1.429 . S
C457 C458 1.523 . S
C458 C442 1.368 1_655 S
C458 C454 1.368 . S
C458 C457 1.523 . S
H459 C434 0.950 . S
H460 C436 0.950 . S
H461 C437 0.949 . S
H462 C439 0.950 . S
H463 C441 0.950 . S
C464 C465 1.349 . S
C464 C466 1.327 . S
C464 H489 0.950 . S
C465 C464 1.349 . S
C465 C481 1.349 . S
C466 C464 1.327 . S
C466 C485 1.429 . S
C466 H490 0.950 . S
C467 C484 1.574 . S
C467 C486 1.368 . S
C467 H491 0.949 . S
H468 C472 0.949 . S
C469 C470 1.349 . S
C469 C471 1.327 . S
C469 H492 0.950 . S
C470 C469 1.349 . S
C470 C482 1.349 . S
C471 C469 1.327 . S
C471 C487 1.429 . S
C471 H493 0.950 . S
C472 H468 0.949 . S
C472 C480 1.574 . S
C472 C488 1.368 . S
H473 C481 0.950 . S
H474 C479 0.950 . S
H475 C480 0.949 . S
H476 C482 0.950 . S
H477 C483 0.950 . S
H478 C484 0.949 . S
C479 H474 0.950 . S
C479 C481 1.327 . S
C479 C485 1.429 . S
C480 C472 1.574 . S
C480 H475 0.949 . S
C480 C486 1.368 1_545 S
C481 C465 1.349 . S
C481 H473 0.950 . S
C481 C479 1.327 . S
C482 C470 1.349 . S
C482 H476 0.950 . S
C482 C483 1.327 . S
C483 H477 0.950 . S
C483 C482 1.327 . S
C483 C487 1.429 . S
C484 C467 1.574 . S
C484 H478 0.949 . S
C484 C488 1.368 1_565 S
C485 C466 1.429 . S
C485 C479 1.429 . S
C485 C486 1.523 . S
C486 C467 1.368 . S
C486 C480 1.368 1_565 S
C486 C485 1.523 . S
C487 C471 1.429 . S
C487 C483 1.429 . S
C487 C488 1.523 . S
C488 C472 1.368 . S
C488 C484 1.368 1_545 S
C488 C487 1.523 . S
H489 C464 0.950 . S
H490 C466 0.950 . S
H491 C467 0.949 . S
H492 C469 0.950 . S
H493 C471 0.950 . S
C494 C495 1.349 . S
C494 C496 1.327 . S
C494 H519 0.950 . S
C495 C494 1.349 . S
C495 C511 1.349 . S
C496 C494 1.327 . S
C496 C515 1.429 . S
C496 H520 0.950 . S
C497 C514 1.574 1_565 S
C497 C516 1.368 . S
C497 H521 0.949 . S
H498 C502 0.949 . S
C499 C500 1.349 . S
C499 C501 1.327 . S
C499 H522 0.950 . S
C500 C499 1.349 . S
C500 C512 1.349 . S
C501 C499 1.327 . S
C501 C517 1.429 . S
C501 H523 0.950 . S
C502 H498 0.949 . S
C502 C510 1.574 1_545 S
C502 C518 1.368 . S
H503 C511 0.950 . S
H504 C509 0.950 . S
H505 C510 0.949 . S
H506 C512 0.950 . S
H507 C513 0.950 . S
H508 C514 0.949 . S
C509 H504 0.950 . S
C509 C511 1.327 . S
C509 C515 1.429 . S
C510 C502 1.574 1_565 S
C510 H505 0.949 . S
C510 C516 1.368 1_455 S
C511 C495 1.349 . S
C511 H503 0.950 . S
C511 C509 1.327 . S
C512 C500 1.349 . S
C512 H506 0.950 . S
C512 C513 1.327 . S
C513 H507 0.950 . S
C513 C512 1.327 . S
C513 C517 1.429 . S
C514 C497 1.574 1_545 S
C514 H508 0.949 . S
C514 C518 1.368 1_655 S
C515 C496 1.429 . S
C515 C509 1.429 . S
C515 C516 1.523 . S
C516 C497 1.368 . S
C516 C510 1.368 1_655 S
C516 C515 1.523 . S
C517 C501 1.429 . S
C517 C513 1.429 . S
C517 C518 1.523 . S
C518 C502 1.368 . S
C518 C514 1.368 1_455 S
C518 C517 1.523 . S
H519 C494 0.950 . S
H520 C496 0.950 . S
H521 C497 0.949 . S
H522 C499 0.950 . S
H523 C501 0.950 . S
C524 C525 1.349 . S
C524 C526 1.327 . S
C524 H549 0.950 . S
C525 C524 1.349 . S
C525 C541 1.349 . S
C526 C524 1.327 . S
C526 C545 1.429 . S
C526 H550 0.950 . S
C527 C544 1.574 1_455 S
C527 C546 1.368 . S
C527 H551 0.949 . S
H528 C532 0.949 . S
C529 C530 1.349 . S
C529 C531 1.327 . S
C529 H552 0.950 . S
C530 C529 1.349 . S
C530 C542 1.349 . S
C531 C529 1.327 . S
C531 C547 1.429 . S
C531 H553 0.950 . S
C532 H528 0.949 . S
C532 C540 1.574 1_655 S
C532 C548 1.368 . S
H533 C541 0.950 . S
H534 C539 0.950 . S
H535 C540 0.949 . S
H536 C542 0.950 . S
H537 C543 0.950 . S
H538 C544 0.949 . S
C539 H534 0.950 . S
C539 C541 1.327 . S
C539 C545 1.429 . S
C540 C532 1.574 1_455 S
C540 H535 0.949 . S
C540 C546 1.368 . S
C541 C525 1.349 . S
C541 H533 0.950 . S
C541 C539 1.327 . S
C542 C530 1.349 . S
C542 H536 0.950 . S
C542 C543 1.327 . S
C543 H537 0.950 . S
C543 C542 1.327 . S
C543 C547 1.429 . S
C544 C527 1.574 1_655 S
C544 H538 0.949 . S
C544 C548 1.368 . S
C545 C526 1.429 . S
C545 C539 1.429 . S
C545 C546 1.523 . S
C546 C527 1.368 . S
C546 C540 1.368 . S
C546 C545 1.523 . S
C547 C531 1.429 . S
C547 C543 1.429 . S
C547 C548 1.523 . S
C548 C532 1.368 . S
C548 C544 1.368 . S
C548 C547 1.523 . S
H549 C524 0.950 . S
H550 C526 0.950 . S
H551 C527 0.949 . S
H552 C529 0.950 . S
H553 C531 0.950 . S
C554 C555 1.349 . S
C554 C556 1.327 . S
C554 H579 0.950 . S
C555 C554 1.349 . S
C555 C571 1.349 . S
C556 C554 1.327 . S
C556 C575 1.429 . S
C556 H580 0.950 . S
C557 C574 1.574 . S
C557 C576 1.368 . S
C557 H581 0.949 . S
H558 C562 0.949 . S
C559 C560 1.349 . S
C559 C561 1.327 . S
C559 H582 0.950 . S
C560 C559 1.349 . S
C560 C572 1.349 . S
C561 C559 1.327 . S
C561 C577 1.429 . S
C561 H583 0.950 . S
C562 H558 0.949 . S
C562 C570 1.574 . S
C562 C578 1.368 . S
H563 C571 0.950 . S
H564 C569 0.950 . S
H565 C570 0.949 . S
H566 C572 0.950 . S
H567 C573 0.950 . S
H568 C574 0.949 . S
C569 H564 0.950 . S
C569 C571 1.327 . S
C569 C575 1.429 . S
C570 C562 1.574 . S
C570 H565 0.949 . S
C570 C576 1.368 . S
C571 C555 1.349 . S
C571 H563 0.950 . S
C571 C569 1.327 . S
C572 C560 1.349 . S
C572 H566 0.950 . S
C572 C573 1.327 . S
C573 H567 0.950 . S
C573 C572 1.327 . S
C573 C577 1.429 . S
C574 C557 1.574 . S
C574 H568 0.949 . S
C574 C578 1.368 . S
C575 C556 1.429 . S
C575 C569 1.429 . S
C575 C576 1.523 . S
C576 C557 1.368 . S
C576 C570 1.368 . S
C576 C575 1.523 . S
C577 C561 1.429 . S
C577 C573 1.429 . S
C577 C578 1.523 . S
C578 C562 1.368 . S
C578 C574 1.368 . S
C578 C577 1.523 . S
H579 C554 0.950 . S
H580 C556 0.950 . S
H581 C557 0.949 . S
H582 C559 0.950 . S
H583 C561 0.950 . S
C584 C585 1.349 . S
C584 C586 1.327 . S
C584 H609 0.950 . S
C585 C584 1.349 . S
C585 C601 1.349 . S
C586 C584 1.327 . S
C586 C605 1.429 . S
C586 H610 0.950 . S
C587 C604 1.574 . S
C587 C606 1.368 . S
C587 H611 0.949 . S
H588 C592 0.949 . S
C589 C590 1.349 . S
C589 C591 1.327 . S
C589 H612 0.950 . S
C590 C589 1.349 . S
C590 C602 1.349 . S
C591 C589 1.327 . S
C591 C607 1.429 . S
C591 H613 0.950 . S
C592 H588 0.949 . S
C592 C600 1.574 . S
C592 C608 1.368 . S
H593 C601 0.950 . S
H594 C599 0.950 . S
H595 C600 0.949 . S
H596 C602 0.950 . S
H597 C603 0.950 . S
H598 C604 0.949 . S
C599 H594 0.950 . S
C599 C601 1.327 . S
C599 C605 1.429 . S
C600 C592 1.574 . S
C600 H595 0.949 . S
C600 C606 1.368 . S
C601 C585 1.349 . S
C601 H593 0.950 . S
C601 C599 1.327 . S
C602 C590 1.349 . S
C602 H596 0.950 . S
C602 C603 1.327 . S
C603 H597 0.950 . S
C603 C602 1.327 . S
C603 C607 1.429 . S
C604 C587 1.574 . S
C604 H598 0.949 . S
C604 C608 1.368 . S
C605 C586 1.429 . S
C605 C599 1.429 . S
C605 C606 1.523 . S
C606 C587 1.368 . S
C606 C600 1.368 . S
C606 C605 1.523 . S
C607 C591 1.429 . S
C607 C603 1.429 . S
C607 C608 1.523 . S
C608 C592 1.368 . S
C608 C604 1.368 . S
C608 C607 1.523 . S
H609 C584 0.950 . S
H610 C586 0.950 . S
H611 C587 0.949 . S
H612 C589 0.950 . S
H613 C591 0.950 . S
C614 C615 1.349 . S
C614 C616 1.327 . S
C614 H639 0.950 . S
C615 C614 1.349 . S
C615 C631 1.349 . S
C616 C614 1.327 . S
C616 C635 1.429 . S
C616 H640 0.950 . S
C617 C634 1.574 1_565 S
C617 C636 1.368 . S
C617 H641 0.949 . S
H618 C622 0.949 . S
C619 C620 1.349 . S
C619 C621 1.327 . S
C619 H642 0.950 . S
C620 C619 1.349 . S
C620 C632 1.349 . S
C621 C619 1.327 . S
C621 C637 1.429 . S
C621 H643 0.950 . S
C622 H618 0.949 . S
C622 C630 1.574 1_545 S
C622 C638 1.368 . S
H623 C631 0.950 . S
H624 C629 0.950 . S
H625 C630 0.949 . S
H626 C632 0.950 . S
H627 C633 0.950 . S
H628 C634 0.949 . S
C629 H624 0.950 . S
C629 C631 1.327 . S
C629 C635 1.429 . S
C630 C622 1.574 1_565 S
C630 H625 0.949 . S
C630 C636 1.368 . S
C631 C615 1.349 . S
C631 H623 0.950 . S
C631 C629 1.327 . S
C632 C620 1.349 . S
C632 H626 0.950 . S
C632 C633 1.327 . S
C633 H627 0.950 . S
C633 C632 1.327 . S
C633 C637 1.429 . S
C634 C617 1.574 1_545 S
C634 H628 0.949 . S
C634 C638 1.368 . S
C635 C616 1.429 . S
C635 C629 1.429 . S
C635 C636 1.523 . S
C636 C617 1.368 . S
C636 C630 1.368 . S
C636 C635 1.523 . S
C637 C621 1.429 . S
C637 C633 1.429 . S
C637 C638 1.523 . S
C638 C622 1.368 . S
C638 C634 1.368 . S
C638 C637 1.523 . S
H639 C614 0.950 . S
H640 C616 0.950 . S
H641 C617 0.949 . S
H642 C619 0.950 . S
H643 C621 0.950 . S
C644 C645 1.349 . S
C644 C646 1.327 . S
C644 H669 0.950 . S
C645 C644 1.349 . S
C645 C661 1.349 . S
C646 C644 1.327 . S
C646 C665 1.429 . S
C646 H670 0.950 . S
C647 C664 1.574 1_655 S
C647 C666 1.368 1_545 S
C647 H671 0.949 . S
H648 C652 0.949 . S
C649 C650 1.349 . S
C649 C651 1.327 . S
C649 H672 0.950 . S
C650 C649 1.349 . S
C650 C662 1.349 . S
C651 C649 1.327 . S
C651 C667 1.429 . S
C651 H673 0.950 . S
C652 H648 0.949 . S
C652 C660 1.574 1_455 S
C652 C668 1.368 1_565 S
H653 C661 0.950 . S
H654 C659 0.950 . S
H655 C660 0.949 . S
H656 C662 0.950 . S
H657 C663 0.950 . S
H658 C664 0.949 . S
C659 H654 0.950 . S
C659 C661 1.327 . S
C659 C665 1.429 . S
C660 C652 1.574 1_655 S
C660 H655 0.949 . S
C660 C666 1.368 . S
C661 C645 1.349 . S
C661 H653 0.950 . S
C661 C659 1.327 . S
C662 C650 1.349 . S
C662 H656 0.950 . S
C662 C663 1.327 . S
C663 H657 0.950 . S
C663 C662 1.327 . S
C663 C667 1.429 . S
C664 C647 1.574 1_455 S
C664 H658 0.949 . S
C664 C668 1.368 . S
C665 C646 1.429 . S
C665 C659 1.429 . S
C665 C666 1.523 . S
C666 C647 1.368 1_565 S
C666 C660 1.368 . S
C666 C665 1.523 . S
C667 C651 1.429 . S
C667 C663 1.429 . S
C667 C668 1.523 . S
C668 C652 1.368 1_545 S
C668 C664 1.368 . S
C668 C667 1.523 . S
H669 C644 0.950 . S
H670 C646 0.950 . S
H671 C647 0.949 . S
H672 C649 0.950 . S
H673 C651 0.950 . S
C674 C675 1.349 . S
C674 C676 1.327 . S
C674 H699 0.950 . S
C675 C674 1.349 . S
C675 C691 1.349 . S
C676 C674 1.327 . S
C676 C695 1.429 . S
C676 H700 0.950 . S
C677 C694 1.574 . S
C677 C696 1.368 . S
C677 H701 0.949 . S
H678 C682 0.949 . S
C679 C680 1.349 . S
C679 C681 1.327 . S
C679 H702 0.950 . S
C680 C679 1.349 . S
C680 C692 1.349 . S
C681 C679 1.327 . S
C681 C697 1.429 . S
C681 H703 0.950 . S
C682 H678 0.949 . S
C682 C690 1.574 . S
C682 C698 1.368 . S
H683 C691 0.950 . S
H684 C689 0.950 . S
H685 C690 0.949 . S
H686 C692 0.950 . S
H687 C693 0.950 . S
H688 C694 0.949 . S
C689 H684 0.950 . S
C689 C691 1.327 . S
C689 C695 1.429 . S
C690 C682 1.574 . S
C690 H685 0.949 . S
C690 C696 1.368 1_655 S
C691 C675 1.349 . S
C691 H683 0.950 . S
C691 C689 1.327 . S
C692 C680 1.349 . S
C692 H686 0.950 . S
C692 C693 1.327 . S
C693 H687 0.950 . S
C693 C692 1.327 . S
C693 C697 1.429 . S
C694 C677 1.574 . S
C694 H688 0.949 . S
C694 C698 1.368 1_455 S
C695 C676 1.429 . S
C695 C689 1.429 . S
C695 C696 1.523 . S
C696 C677 1.368 . S
C696 C690 1.368 1_455 S
C696 C695 1.523 . S
C697 C681 1.429 . S
C697 C693 1.429 . S
C697 C698 1.523 . S
C698 C682 1.368 . S
C698 C694 1.368 1_655 S
C698 C697 1.523 . S
H699 C674 0.950 . S
H700 C676 0.950 . S
H701 C677 0.949 . S
H702 C679 0.950 . S
H703 C681 0.950 . S
C704 C705 1.349 . S
C704 C706 1.327 . S
C704 H729 0.950 . S
C705 C704 1.349 . S
C705 C721 1.349 . S
C706 C704 1.327 . S
C706 C725 1.429 . S
C706 H730 0.950 . S
C707 C724 1.574 . S
C707 C726 1.368 . S
C707 H731 0.949 . S
H708 C712 0.949 . S
C709 C710 1.349 . S
C709 C711 1.327 . S
C709 H732 0.950 . S
C710 C709 1.349 . S
C710 C722 1.349 . S
C711 C709 1.327 . S
C711 C727 1.429 . S
C711 H733 0.950 . S
C712 H708 0.949 . S
C712 C720 1.574 . S
C712 C728 1.368 . S
H713 C721 0.950 . S
H714 C719 0.950 . S
H715 C720 0.949 . S
H716 C722 0.950 . S
H717 C723 0.950 . S
H718 C724 0.949 . S
C719 H714 0.950 . S
C719 C721 1.327 . S
C719 C725 1.429 . S
C720 C712 1.574 . S
C720 H715 0.949 . S
C720 C726 1.368 . S
C721 C705 1.349 . S
C721 H713 0.950 . S
C721 C719 1.327 . S
C722 C710 1.349 . S
C722 H716 0.950 . S
C722 C723 1.327 . S
C723 H717 0.950 . S
C723 C722 1.327 . S
C723 C727 1.429 . S
C724 C707 1.574 . S
C724 H718 0.949 . S
C724 C728 1.368 . S
C725 C706 1.429 . S
C725 C719 1.429 . S
C725 C726 1.523 . S
C726 C707 1.368 . S
C726 C720 1.368 . S
C726 C725 1.523 . S
C727 C711 1.429 . S
C727 C723 1.429 . S
C727 C728 1.523 . S
C728 C712 1.368 . S
C728 C724 1.368 . S
C728 C727 1.523 . S
H729 C704 0.950 . S
H730 C706 0.950 . S
H731 C707 0.949 . S
H732 C709 0.950 . S
H733 C711 0.950 . S
C734 C735 1.349 . S
C734 C736 1.327 . S
C734 H759 0.950 . S
C735 C734 1.349 . S
C735 C751 1.349 . S
C736 C734 1.327 . S
C736 C755 1.429 . S
C736 H760 0.950 . S
C737 C754 1.574 . S
C737 C756 1.368 . S
C737 H761 0.949 . S
H738 C742 0.949 . S
C739 C740 1.349 . S
C739 C741 1.327 . S
C739 H762 0.950 . S
C740 C739 1.349 . S
C740 C752 1.349 . S
C741 C739 1.327 . S
C741 C757 1.429 . S
C741 H763 0.950 . S
C742 H738 0.949 . S
C742 C750 1.574 . S
C742 C758 1.368 . S
H743 C751 0.950 . S
H744 C749 0.950 . S
H745 C750 0.949 . S
H746 C752 0.950 . S
H747 C753 0.950 . S
H748 C754 0.949 . S
C749 H744 0.950 . S
C749 C751 1.327 . S
C749 C755 1.429 . S
C750 C742 1.574 . S
C750 H745 0.949 . S
C750 C756 1.368 . S
C751 C735 1.349 . S
C751 H743 0.950 . S
C751 C749 1.327 . S
C752 C740 1.349 . S
C752 H746 0.950 . S
C752 C753 1.327 . S
C753 H747 0.950 . S
C753 C752 1.327 . S
C753 C757 1.429 . S
C754 C737 1.574 . S
C754 H748 0.949 . S
C754 C758 1.368 . S
C755 C736 1.429 . S
C755 C749 1.429 . S
C755 C756 1.523 . S
C756 C737 1.368 . S
C756 C750 1.368 . S
C756 C755 1.523 . S
C757 C741 1.429 . S
C757 C753 1.429 . S
C757 C758 1.523 . S
C758 C742 1.368 . S
C758 C754 1.368 . S
C758 C757 1.523 . S
H759 C734 0.950 . S
H760 C736 0.950 . S
H761 C737 0.949 . S
H762 C739 0.950 . S
H763 C741 0.950 . S
C764 C765 1.349 . S
C764 C766 1.327 . S
C764 H789 0.950 . S
C765 C764 1.349 . S
C765 C781 1.349 . S
C766 C764 1.327 . S
C766 C785 1.429 . S
C766 H790 0.950 . S
C767 C784 1.574 . S
C767 C786 1.368 . S
C767 H791 0.949 . S
H768 C772 0.949 . S
C769 C770 1.349 . S
C769 C771 1.327 . S
C769 H792 0.950 . S
C770 C769 1.349 . S
C770 C782 1.349 . S
C771 C769 1.327 . S
C771 C787 1.429 . S
C771 H793 0.950 . S
C772 H768 0.949 . S
C772 C780 1.574 . S
C772 C788 1.368 . S
H773 C781 0.950 . S
H774 C779 0.950 . S
H775 C780 0.949 . S
H776 C782 0.950 . S
H777 C783 0.950 . S
H778 C784 0.949 . S
C779 H774 0.950 . S
C779 C781 1.327 . S
C779 C785 1.429 . S
C780 C772 1.574 . S
C780 H775 0.949 . S
C780 C786 1.368 . S
C781 C765 1.349 . S
C781 H773 0.950 . S
C781 C779 1.327 . S
C782 C770 1.349 . S
C782 H776 0.950 . S
C782 C783 1.327 . S
C783 H777 0.950 . S
C783 C782 1.327 . S
C783 C787 1.429 . S
C784 C767 1.574 . S
C784 H778 0.949 . S
C784 C788 1.368 . S
C785 C766 1.429 . S
C785 C779 1.429 . S
C785 C786 1.523 . S
C786 C767 1.368 . S
C786 C780 1.368 . S
C786 C785 1.523 . S
C787 C771 1.429 . S
C787 C783 1.429 . S
C787 C788 1.523 . S
C788 C772 1.368 . S
C788 C784 1.368 . S
C788 C787 1.523 . S
H789 C764 0.950 . S
H790 C766 0.950 . S
H791 C767 0.949 . S
H792 C769 0.950 . S
H793 C771 0.950 . S
C794 C795 1.349 . S
C794 C796 1.327 . S
C794 H819 0.950 . S
C795 C794 1.349 . S
C795 C811 1.349 . S
C796 C794 1.327 . S
C796 C815 1.429 . S
C796 H820 0.950 . S
C797 C814 1.574 . S
C797 C816 1.368 . S
C797 H821 0.949 . S
H798 C802 0.949 . S
C799 C800 1.349 . S
C799 C801 1.327 . S
C799 H822 0.950 . S
C800 C799 1.349 . S
C800 C812 1.349 . S
C801 C799 1.327 . S
C801 C817 1.429 . S
C801 H823 0.950 . S
C802 H798 0.949 . S
C802 C810 1.574 . S
C802 C818 1.368 . S
H803 C811 0.950 . S
H804 C809 0.950 . S
H805 C810 0.949 . S
H806 C812 0.950 . S
H807 C813 0.950 . S
H808 C814 0.949 . S
C809 H804 0.950 . S
C809 C811 1.327 . S
C809 C815 1.429 . S
C810 C802 1.574 . S
C810 H805 0.949 . S
C810 C816 1.368 . S
C811 C795 1.349 . S
C811 H803 0.950 . S
C811 C809 1.327 . S
C812 C800 1.349 . S
C812 H806 0.950 . S
C812 C813 1.327 . S
C813 H807 0.950 . S
C813 C812 1.327 . S
C813 C817 1.429 . S
C814 C797 1.574 . S
C814 H808 0.949 . S
C814 C818 1.368 . S
C815 C796 1.429 . S
C815 C809 1.429 . S
C815 C816 1.523 . S
C816 C797 1.368 . S
C816 C810 1.368 . S
C816 C815 1.523 . S
C817 C801 1.429 . S
C817 C813 1.429 . S
C817 C818 1.523 . S
C818 C802 1.368 . S
C818 C814 1.368 . S
C818 C817 1.523 . S
H819 C794 0.950 . S
H820 C796 0.950 . S
H821 C797 0.949 . S
H822 C799 0.950 . S
H823 C801 0.950 . S
C824 C825 1.349 . S
C824 C826 1.327 . S
C824 H849 0.950 . S
C825 C824 1.349 . S
C825 C841 1.349 . S
C826 C824 1.327 . S
C826 C845 1.429 . S
C826 H850 0.950 . S
C827 C844 1.574 . S
C827 C846 1.368 . S
C827 H851 0.949 . S
H828 C832 0.949 . S
C829 C830 1.349 . S
C829 C831 1.327 . S
C829 H852 0.950 . S
C830 C829 1.349 . S
C830 C842 1.349 . S
C831 C829 1.327 . S
C831 C847 1.429 . S
C831 H853 0.950 . S
C832 H828 0.949 . S
C832 C840 1.574 . S
C832 C848 1.368 . S
H833 C841 0.950 . S
H834 C839 0.950 . S
H835 C840 0.949 . S
H836 C842 0.950 . S
H837 C843 0.950 . S
H838 C844 0.949 . S
C839 H834 0.950 . S
C839 C841 1.327 . S
C839 C845 1.429 . S
C840 C832 1.574 . S
C840 H835 0.949 . S
C840 C846 1.368 . S
C841 C825 1.349 . S
C841 H833 0.950 . S
C841 C839 1.327 . S
C842 C830 1.349 . S
C842 H836 0.950 . S
C842 C843 1.327 . S
C843 H837 0.950 . S
C843 C842 1.327 . S
C843 C847 1.429 . S
C844 C827 1.574 . S
C844 H838 0.949 . S
C844 C848 1.368 . S
C845 C826 1.429 . S
C845 C839 1.429 . S
C845 C846 1.523 . S
C846 C827 1.368 . S
C846 C840 1.368 . S
C846 C845 1.523 . S
C847 C831 1.429 . S
C847 C843 1.429 . S
C847 C848 1.523 . S
C848 C832 1.368 . S
C848 C844 1.368 . S
C848 C847 1.523 . S
H849 C824 0.950 . S
H850 C826 0.950 . S
H851 C827 0.949 . S
H852 C829 0.950 . S
H853 C831 0.950 . S
C854 C855 1.349 . S
C854 C856 1.327 . S
C854 H879 0.950 . S
C855 C854 1.349 . S
C855 C871 1.349 . S
C856 C854 1.327 . S
C856 C875 1.429 . S
C856 H880 0.950 . S
C857 C874 1.574 . S
C857 C876 1.368 . S
C857 H881 0.949 . S
H858 C862 0.949 . S
C859 C860 1.349 . S
C859 C861 1.327 . S
C859 H882 0.950 . S
C860 C859 1.349 . S
C860 C872 1.349 . S
C861 C859 1.327 . S
C861 C877 1.429 . S
C861 H883 0.950 . S
C862 H858 0.949 . S
C862 C870 1.574 . S
C862 C878 1.368 . S
H863 C871 0.950 . S
H864 C869 0.950 . S
H865 C870 0.949 . S
H866 C872 0.950 . S
H867 C873 0.950 . S
H868 C874 0.949 . S
C869 H864 0.950 . S
C869 C871 1.327 . S
C869 C875 1.429 . S
C870 C862 1.574 . S
C870 H865 0.949 . S
C870 C876 1.368 . S
C871 C855 1.349 . S
C871 H863 0.950 . S
C871 C869 1.327 . S
C872 C860 1.349 . S
C872 H866 0.950 . S
C872 C873 1.327 . S
C873 H867 0.950 . S
C873 C872 1.327 . S
C873 C877 1.429 . S
C874 C857 1.574 . S
C874 H868 0.949 . S
C874 C878 1.368 . S
C875 C856 1.429 . S
C875 C869 1.429 . S
C875 C876 1.523 . S
C876 C857 1.368 . S
C876 C870 1.368 . S
C876 C875 1.523 . S
C877 C861 1.429 . S
C877 C873 1.429 . S
C877 C878 1.523 . S
C878 C862 1.368 . S
C878 C874 1.368 . S
C878 C877 1.523 . S
H879 C854 0.950 . S
H880 C856 0.950 . S
H881 C857 0.949 . S
H882 C859 0.950 . S
H883 C861 0.950 . S
C884 C885 1.349 . S
C884 C886 1.327 . S
C884 H909 0.950 . S
C885 C884 1.349 . S
C885 C901 1.349 . S
C886 C884 1.327 . S
C886 C905 1.429 . S
C886 H910 0.950 . S
C887 C904 1.574 . S
C887 C906 1.368 . S
C887 H911 0.949 . S
H888 C892 0.949 . S
C889 C890 1.349 . S
C889 C891 1.327 . S
C889 H912 0.950 . S
C890 C889 1.349 . S
C890 C902 1.349 . S
C891 C889 1.327 . S
C891 C907 1.429 . S
C891 H913 0.950 . S
C892 H888 0.949 . S
C892 C900 1.574 . S
C892 C908 1.368 . S
H893 C901 0.950 . S
H894 C899 0.950 . S
H895 C900 0.949 . S
H896 C902 0.950 . S
H897 C903 0.950 . S
H898 C904 0.949 . S
C899 H894 0.950 . S
C899 C901 1.327 . S
C899 C905 1.429 . S
C900 C892 1.574 . S
C900 H895 0.949 . S
C900 C906 1.368 . S
C901 C885 1.349 . S
C901 H893 0.950 . S
C901 C899 1.327 . S
C902 C890 1.349 . S
C902 H896 0.950 . S
C902 C903 1.327 . S
C903 H897 0.950 . S
C903 C902 1.327 . S
C903 C907 1.429 . S
C904 C887 1.574 . S
C904 H898 0.949 . S
C904 C908 1.368 . S
C905 C886 1.429 . S
C905 C899 1.429 . S
C905 C906 1.523 . S
C906 C887 1.368 . S
C906 C900 1.368 . S
C906 C905 1.523 . S
C907 C891 1.429 . S
C907 C903 1.429 . S
C907 C908 1.523 . S
C908 C892 1.368 . S
C908 C904 1.368 . S
C908 C907 1.523 . S
H909 C884 0.950 . S
H910 C886 0.950 . S
H911 C887 0.949 . S
H912 C889 0.950 . S
H913 C891 0.950 . S
C914 C915 1.349 . S
C914 C916 1.327 . S
C914 H939 0.950 . S
C915 C914 1.349 . S
C915 C931 1.349 . S
C916 C914 1.327 . S
C916 C935 1.429 . S
C916 H940 0.950 . S
C917 C934 1.574 . S
C917 C936 1.368 . S
C917 H941 0.949 . S
H918 C922 0.949 . S
C919 C920 1.349 . S
C919 C921 1.327 . S
C919 H942 0.950 . S
C920 C919 1.349 . S
C920 C932 1.349 . S
C921 C919 1.327 . S
C921 C937 1.429 . S
C921 H943 0.950 . S
C922 H918 0.949 . S
C922 C930 1.574 . S
C922 C938 1.368 . S
H923 C931 0.950 . S
H924 C929 0.950 . S
H925 C930 0.949 . S
H926 C932 0.950 . S
H927 C933 0.950 . S
H928 C934 0.949 . S
C929 H924 0.950 . S
C929 C931 1.327 . S
C929 C935 1.429 . S
C930 C922 1.574 . S
C930 H925 0.949 . S
C930 C936 1.368 . S
C931 C915 1.349 . S
C931 H923 0.950 . S
C931 C929 1.327 . S
C932 C920 1.349 . S
C932 H926 0.950 . S
C932 C933 1.327 . S
C933 H927 0.950 . S
C933 C932 1.327 . S
C933 C937 1.429 . S
C934 C917 1.574 . S
C934 H928 0.949 . S
C934 C938 1.368 . S
C935 C916 1.429 . S
C935 C929 1.429 . S
C935 C936 1.523 . S
C936 C917 1.368 . S
C936 C930 1.368 . S
C936 C935 1.523 . S
C937 C921 1.429 . S
C937 C933 1.429 . S
C937 C938 1.523 . S
C938 C922 1.368 . S
C938 C934 1.368 . S
C938 C937 1.523 . S
H939 C914 0.950 . S
H940 C916 0.950 . S
H941 C917 0.949 . S
H942 C919 0.950 . S
H943 C921 0.950 . S
C944 C945 1.349 . S
C944 C946 1.327 . S
C944 H969 0.950 . S
C945 C944 1.349 . S
C945 C961 1.349 . S
C946 C944 1.327 . S
C946 C965 1.429 . S
C946 H970 0.950 . S
C947 C964 1.574 . S
C947 C966 1.368 . S
C947 H971 0.949 . S
H948 C952 0.949 . S
C949 C950 1.349 . S
C949 C951 1.327 . S
C949 H972 0.950 . S
C950 C949 1.349 . S
C950 C962 1.349 . S
C951 C949 1.327 . S
C951 C967 1.429 . S
C951 H973 0.950 . S
C952 H948 0.949 . S
C952 C960 1.574 . S
C952 C968 1.368 . S
H953 C961 0.950 . S
H954 C959 0.950 . S
H955 C960 0.949 . S
H956 C962 0.950 . S
H957 C963 0.950 . S
H958 C964 0.949 . S
C959 H954 0.950 . S
C959 C961 1.327 . S
C959 C965 1.429 . S
C960 C952 1.574 . S
C960 H955 0.949 . S
C960 C966 1.368 . S
C961 C945 1.349 . S
C961 H953 0.950 . S
C961 C959 1.327 . S
C962 C950 1.349 . S
C962 H956 0.950 . S
C962 C963 1.327 . S
C963 H957 0.950 . S
C963 C962 1.327 . S
C963 C967 1.429 . S
C964 C947 1.574 . S
C964 H958 0.949 . S
C964 C968 1.368 . S
C965 C946 1.429 . S
C965 C959 1.429 . S
C965 C966 1.523 . S
C966 C947 1.368 . S
C966 C960 1.368 . S
C966 C965 1.523 . S
C967 C951 1.429 . S
C967 C963 1.429 . S
C967 C968 1.523 . S
C968 C952 1.368 . S
C968 C964 1.368 . S
C968 C967 1.523 . S
H969 C944 0.950 . S
H970 C946 0.950 . S
H971 C947 0.949 . S
H972 C949 0.950 . S
H973 C951 0.950 . S
C974 C975 1.349 . S
C974 C976 1.327 . S
C974 H999 0.950 . S
C975 C974 1.349 . S
C975 C991 1.349 . S
C976 C974 1.327 . S
C976 C995 1.429 . S
C976 H1000 0.950 . S
C977 C994 1.574 . S
C977 C996 1.368 . S
C977 H1001 0.949 . S
H978 C982 0.949 . S
C979 C980 1.349 . S
C979 C981 1.327 . S
C979 H1002 0.950 . S
C980 C979 1.349 . S
C980 C992 1.349 . S
C981 C979 1.327 . S
C981 C997 1.429 . S
C981 H1003 0.950 . S
C982 H978 0.949 . S
C982 C990 1.574 . S
C982 C998 1.368 . S
H983 C991 0.950 . S
H984 C989 0.950 . S
H985 C990 0.949 . S
H986 C992 0.950 . S
H987 C993 0.950 . S
H988 C994 0.949 . S
C989 H984 0.950 . S
C989 C991 1.327 . S
C989 C995 1.429 . S
C990 C982 1.574 . S
C990 H985 0.949 . S
C990 C996 1.368 . S
C991 C975 1.349 . S
C991 H983 0.950 . S
C991 C989 1.327 . S
C992 C980 1.349 . S
C992 H986 0.950 . S
C992 C993 1.327 . S
C993 H987 0.950 . S
C993 C992 1.327 . S
C993 C997 1.429 . S
C994 C977 1.574 . S
C994 H988 0.949 . S
C994 C998 1.368 . S
C995 C976 1.429 . S
C995 C989 1.429 . S
C995 C996 1.523 . S
C996 C977 1.368 . S
C996 C990 1.368 . S
C996 C995 1.523 . S
C997 C981 1.429 . S
C997 C993 1.429 . S
C997 C998 1.523 . S
C998 C982 1.368 . S
C998 C994 1.368 . S
C998 C997 1.523 . S
H999 C974 0.950 . S
H1000 C976 0.950 . S
H1001 C977 0.949 . S
H1002 C979 0.950 . S
H1003 C981 0.950 . S
C1004 C1005 1.349 . S
C1004 C1006 1.327 . S
C1004 H1029 0.950 . S
C1005 C1004 1.349 . S
C1005 C1021 1.349 . S
C1006 C1004 1.327 . S
C1006 C1025 1.429 . S
C1006 H1030 0.950 . S
C1007 C1024 1.574 . S
C1007 C1026 1.368 . S
C1007 H1031 0.949 . S
H1008 C1012 0.949 . S
C1009 C1010 1.349 . S
C1009 C1011 1.327 . S
C1009 H1032 0.950 . S
C1010 C1009 1.349 . S
C1010 C1022 1.349 . S
C1011 C1009 1.327 . S
C1011 C1027 1.429 . S
C1011 H1033 0.950 . S
C1012 H1008 0.949 . S
C1012 C1020 1.574 . S
C1012 C1028 1.368 . S
H1013 C1021 0.950 . S
H1014 C1019 0.950 . S
H1015 C1020 0.949 . S
H1016 C1022 0.950 . S
H1017 C1023 0.950 . S
H1018 C1024 0.949 . S
C1019 H1014 0.950 . S
C1019 C1021 1.327 . S
C1019 C1025 1.429 . S
C1020 C1012 1.574 . S
C1020 H1015 0.949 . S
C1020 C1026 1.368 . S
C1021 C1005 1.349 . S
C1021 H1013 0.950 . S
C1021 C1019 1.327 . S
C1022 C1010 1.349 . S
C1022 H1016 0.950 . S
C1022 C1023 1.327 . S
C1023 H1017 0.950 . S
C1023 C1022 1.327 . S
C1023 C1027 1.429 . S
C1024 C1007 1.574 . S
C1024 H1018 0.949 . S
C1024 C1028 1.368 . S
C1025 C1006 1.429 . S
C1025 C1019 1.429 . S
C1025 C1026 1.523 . S
C1026 C1007 1.368 . S
C1026 C1020 1.368 . S
C1026 C1025 1.523 . S
C1027 C1011 1.429 . S
C1027 C1023 1.429 . S
C1027 C1028 1.523 . S
C1028 C1012 1.368 . S
C1028 C1024 1.368 . S
C1028 C1027 1.523 . S
H1029 C1004 0.950 . S
H1030 C1006 0.950 . S
H1031 C1007 0.949 . S
H1032 C1009 0.950 . S
H1033 C1011 0.950 . S
C1034 C1035 1.349 . S
C1034 C1036 1.327 . S
C1034 H1059 0.950 . S
C1035 C1034 1.349 . S
C1035 C1051 1.349 . S
C1036 C1034 1.327 . S
C1036 C1055 1.429 . S
C1036 H1060 0.950 . S
C1037 C1054 1.574 1_556 S
C1037 C1056 1.368 . S
C1037 H1061 0.949 . S
H1038 C1042 0.949 . S
C1039 C1040 1.349 . S
C1039 C1041 1.327 . S
C1039 H1062 0.950 . S
C1040 C1039 1.349 . S
C1040 C1052 1.349 . S
C1041 C1039 1.327 . S
C1041 C1057 1.429 . S
C1041 H1063 0.950 . S
C1042 H1038 0.949 . S
C1042 C1050 1.574 1_554 S
C1042 C1058 1.368 . S
H1043 C1051 0.950 . S
H1044 C1049 0.950 . S
H1045 C1050 0.949 . S
H1046 C1052 0.950 . S
H1047 C1053 0.950 . S
H1048 C1054 0.949 . S
C1049 H1044 0.950 . S
C1049 C1051 1.327 . S
C1049 C1055 1.429 . S
C1050 C1042 1.574 1_556 S
C1050 H1045 0.949 . S
C1050 C1056 1.368 . S
C1051 C1035 1.349 . S
C1051 H1043 0.950 . S
C1051 C1049 1.327 . S
C1052 C1040 1.349 . S
C1052 H1046 0.950 . S
C1052 C1053 1.327 . S
C1053 H1047 0.950 . S
C1053 C1052 1.327 . S
C1053 C1057 1.429 . S
C1054 C1037 1.574 1_554 S
C1054 H1048 0.949 . S
C1054 C1058 1.368 . S
C1055 C1036 1.429 . S
C1055 C1049 1.429 . S
C1055 C1056 1.523 . S
C1056 C1037 1.368 . S
C1056 C1050 1.368 . S
C1056 C1055 1.523 . S
C1057 C1041 1.429 . S
C1057 C1053 1.429 . S
C1057 C1058 1.523 . S
C1058 C1042 1.368 . S
C1058 C1054 1.368 . S
C1058 C1057 1.523 . S
H1059 C1034 0.950 . S
H1060 C1036 0.950 . S
H1061 C1037 0.949 . S
H1062 C1039 0.950 . S
H1063 C1041 0.950 . S
C1064 C1065 1.349 . S
C1064 C1066 1.327 . S
C1064 H1089 0.950 . S
C1065 C1064 1.349 . S
C1065 C1081 1.349 . S
C1066 C1064 1.327 . S
C1066 C1085 1.429 . S
C1066 H1090 0.950 . S
C1067 C1084 1.574 1_554 S
C1067 C1086 1.368 . S
C1067 H1091 0.949 . S
H1068 C1072 0.949 . S
C1069 C1070 1.349 . S
C1069 C1071 1.327 . S
C1069 H1092 0.950 . S
C1070 C1069 1.349 . S
C1070 C1082 1.349 . S
C1071 C1069 1.327 . S
C1071 C1087 1.429 . S
C1071 H1093 0.950 . S
C1072 H1068 0.949 . S
C1072 C1080 1.574 1_556 S
C1072 C1088 1.368 . S
H1073 C1081 0.950 . S
H1074 C1079 0.950 . S
H1075 C1080 0.949 . S
H1076 C1082 0.950 . S
H1077 C1083 0.950 . S
H1078 C1084 0.949 . S
C1079 H1074 0.950 . S
C1079 C1081 1.327 . S
C1079 C1085 1.429 . S
C1080 C1072 1.574 1_554 S
C1080 H1075 0.949 . S
C1080 C1086 1.368 . S
C1081 C1065 1.349 . S
C1081 H1073 0.950 . S
C1081 C1079 1.327 . S
C1082 C1070 1.349 . S
C1082 H1076 0.950 . S
C1082 C1083 1.327 . S
C1083 H1077 0.950 . S
C1083 C1082 1.327 . S
C1083 C1087 1.429 . S
C1084 C1067 1.574 1_556 S
C1084 H1078 0.949 . S
C1084 C1088 1.368 . S
C1085 C1066 1.429 . S
C1085 C1079 1.429 . S
C1085 C1086 1.523 . S
C1086 C1067 1.368 . S
C1086 C1080 1.368 . S
C1086 C1085 1.523 . S
C1087 C1071 1.429 . S
C1087 C1083 1.429 . S
C1087 C1088 1.523 . S
C1088 C1072 1.368 . S
C1088 C1084 1.368 . S
C1088 C1087 1.523 . S
H1089 C1064 0.950 . S
H1090 C1066 0.950 . S
H1091 C1067 0.949 . S
H1092 C1069 0.950 . S
H1093 C1071 0.950 . S
C1094 C1095 1.349 . S
C1094 C1096 1.327 . S
C1094 H1119 0.950 . S
C1095 C1094 1.349 . S
C1095 C1111 1.349 . S
C1096 C1094 1.327 . S
C1096 C1115 1.429 . S
C1096 H1120 0.950 . S
C1097 C1114 1.574 . S
C1097 C1116 1.368 . S
C1097 H1121 0.949 . S
H1098 C1102 0.949 . S
C1099 C1100 1.349 . S
C1099 C1101 1.327 . S
C1099 H1122 0.950 . S
C1100 C1099 1.349 . S
C1100 C1112 1.349 . S
C1101 C1099 1.327 . S
C1101 C1117 1.429 . S
C1101 H1123 0.950 . S
C1102 H1098 0.949 . S
C1102 C1110 1.574 . S
C1102 C1118 1.368 . S
H1103 C1111 0.950 . S
H1104 C1109 0.950 . S
H1105 C1110 0.949 . S
H1106 C1112 0.950 . S
H1107 C1113 0.950 . S
H1108 C1114 0.949 . S
C1109 H1104 0.950 . S
C1109 C1111 1.327 . S
C1109 C1115 1.429 . S
C1110 C1102 1.574 . S
C1110 H1105 0.949 . S
C1110 C1116 1.368 . S
C1111 C1095 1.349 . S
C1111 H1103 0.950 . S
C1111 C1109 1.327 . S
C1112 C1100 1.349 . S
C1112 H1106 0.950 . S
C1112 C1113 1.327 . S
C1113 H1107 0.950 . S
C1113 C1112 1.327 . S
C1113 C1117 1.429 . S
C1114 C1097 1.574 . S
C1114 H1108 0.949 . S
C1114 C1118 1.368 . S
C1115 C1096 1.429 . S
C1115 C1109 1.429 . S
C1115 C1116 1.523 . S
C1116 C1097 1.368 . S
C1116 C1110 1.368 . S
C1116 C1115 1.523 . S
C1117 C1101 1.429 . S
C1117 C1113 1.429 . S
C1117 C1118 1.523 . S
C1118 C1102 1.368 . S
C1118 C1114 1.368 . S
C1118 C1117 1.523 . S
H1119 C1094 0.950 . S
H1120 C1096 0.950 . S
H1121 C1097 0.949 . S
H1122 C1099 0.950 . S
H1123 C1101 0.950 . S
C1124 C1125 1.349 . S
C1124 C1126 1.327 . S
C1124 H1149 0.950 . S
C1125 C1124 1.349 . S
C1125 C1141 1.349 . S
C1126 C1124 1.327 . S
C1126 C1145 1.429 . S
C1126 H1150 0.950 . S
C1127 C1144 1.574 . S
C1127 C1146 1.368 . S
C1127 H1151 0.949 . S
H1128 C1132 0.949 . S
C1129 C1130 1.349 . S
C1129 C1131 1.327 . S
C1129 H1152 0.950 . S
C1130 C1129 1.349 . S
C1130 C1142 1.349 . S
C1131 C1129 1.327 . S
C1131 C1147 1.429 . S
C1131 H1153 0.950 . S
C1132 H1128 0.949 . S
C1132 C1140 1.574 . S
C1132 C1148 1.368 . S
H1133 C1141 0.950 . S
H1134 C1139 0.950 . S
H1135 C1140 0.949 . S
H1136 C1142 0.950 . S
H1137 C1143 0.950 . S
H1138 C1144 0.949 . S
C1139 H1134 0.950 . S
C1139 C1141 1.327 . S
C1139 C1145 1.429 . S
C1140 C1132 1.574 . S
C1140 H1135 0.949 . S
C1140 C1146 1.368 . S
C1141 C1125 1.349 . S
C1141 H1133 0.950 . S
C1141 C1139 1.327 . S
C1142 C1130 1.349 . S
C1142 H1136 0.950 . S
C1142 C1143 1.327 . S
C1143 H1137 0.950 . S
C1143 C1142 1.327 . S
C1143 C1147 1.429 . S
C1144 C1127 1.574 . S
C1144 H1138 0.949 . S
C1144 C1148 1.368 . S
C1145 C1126 1.429 . S
C1145 C1139 1.429 . S
C1145 C1146 1.523 . S
C1146 C1127 1.368 . S
C1146 C1140 1.368 . S
C1146 C1145 1.523 . S
C1147 C1131 1.429 . S
C1147 C1143 1.429 . S
C1147 C1148 1.523 . S
C1148 C1132 1.368 . S
C1148 C1144 1.368 . S
C1148 C1147 1.523 . S
H1149 C1124 0.950 . S
H1150 C1126 0.950 . S
H1151 C1127 0.949 . S
H1152 C1129 0.950 . S
H1153 C1131 0.950 . S
C1154 C1155 1.349 . S
C1154 C1156 1.327 . S
C1154 H1179 0.950 . S
C1155 C1154 1.349 . S
C1155 C1171 1.349 . S
C1156 C1154 1.327 . S
C1156 C1175 1.429 . S
C1156 H1180 0.950 . S
C1157 C1174 1.574 . S
C1157 C1176 1.368 . S
C1157 H1181 0.949 . S
H1158 C1162 0.949 . S
C1159 C1160 1.349 . S
C1159 C1161 1.327 . S
C1159 H1182 0.950 . S
C1160 C1159 1.349 . S
C1160 C1172 1.349 . S
C1161 C1159 1.327 . S
C1161 C1177 1.429 . S
C1161 H1183 0.950 . S
C1162 H1158 0.949 . S
C1162 C1170 1.574 . S
C1162 C1178 1.368 . S
H1163 C1171 0.950 . S
H1164 C1169 0.950 . S
H1165 C1170 0.949 . S
H1166 C1172 0.950 . S
H1167 C1173 0.950 . S
H1168 C1174 0.949 . S
C1169 H1164 0.950 . S
C1169 C1171 1.327 . S
C1169 C1175 1.429 . S
C1170 C1162 1.574 . S
C1170 H1165 0.949 . S
C1170 C1176 1.368 . S
C1171 C1155 1.349 . S
C1171 H1163 0.950 . S
C1171 C1169 1.327 . S
C1172 C1160 1.349 . S
C1172 H1166 0.950 . S
C1172 C1173 1.327 . S
C1173 H1167 0.950 . S
C1173 C1172 1.327 . S
C1173 C1177 1.429 . S
C1174 C1157 1.574 . S
C1174 H1168 0.949 . S
C1174 C1178 1.368 . S
C1175 C1156 1.429 . S
C1175 C1169 1.429 . S
C1175 C1176 1.523 . S
C1176 C1157 1.368 . S
C1176 C1170 1.368 . S
C1176 C1175 1.523 . S
C1177 C1161 1.429 . S
C1177 C1173 1.429 . S
C1177 C1178 1.523 . S
C1178 C1162 1.368 . S
C1178 C1174 1.368 . S
C1178 C1177 1.523 . S
H1179 C1154 0.950 . S
H1180 C1156 0.950 . S
H1181 C1157 0.949 . S
H1182 C1159 0.950 . S
H1183 C1161 0.950 . S
C225 C141 2.161 . S
C230 C13 2.161 . S
C255 C15 2.161 . S
C260 C167 2.161 . S
C285 C113 2.161 . S
C290 C29 2.161 . S
C315 C139 2.161 . S
C320 C43 2.161 . S
C345 C69 2.161 . S
C350 C197 2.161 . S
C375 C211 2.161 . S
C380 C83 2.161 . S
C405 C96 2.158 . S
C410 C180 2.158 . S
C435 C182 2.158 . S
C440 C98 2.158 . S
C465 C140 1.372 . S
C470 C12 1.372 . S
C495 C14 1.372 . S
C500 C166 1.372 . S
C525 C28 1.372 . S
C530 C112 1.372 . S
C555 C42 1.372 . S
C560 C138 1.372 . S
C585 C68 1.372 . S
C590 C196 1.372 . S
C615 C82 1.372 . S
C620 C210 1.372 . S
C645 C181 1.374 . S
C650 C97 1.374 . S
C675 C183 1.374 . S
C680 C99 1.374 . S
C705 C0 1.668 . S
C710 C85 1.669 . S
C735 C26 1.668 . S
C740 C111 1.669 . S
C765 C40 1.668 . S
C770 C56 1.668 . S
C795 C54 1.668 . S
C800 C70 1.668 . S
C825 C124 1.668 . S
C830 C208 1.668 . S
C855 C222 1.668 . S
C860 C126 1.668 . S
C885 C152 1.668 . S
C890 C169 1.669 . S
C915 C195 1.669 . S
C920 C154 1.668 . S
C945 C1 1.747 . S
C950 C223 1.747 . S
C975 C168 1.745 . S
C980 C27 1.747 . S
C1005 C194 1.745 . S
C1010 C41 1.747 . S
C1035 C209 1.746 . S
C1040 C55 1.746 . S
C1065 C127 1.746 . S
C1070 C57 1.746 . S
C1095 C153 1.746 . S
C1100 C71 1.746 . S
C1125 C84 1.745 . S
C1130 C155 1.746 . S
C1155 C110 1.745 . S
C1160 C125 1.746 . S
