# Generated by pormake.
# Topology uog, (4)-cn, num edge types: 1
# Building blocks:
#     Node 0, Type 0, BuildingBlock: KUFVIS_clean_sbu_0, # of connection points: 4
#     Node 1, Type 0, BuildingBlock: KUFVIS_clean_sbu_0, # of connection points: 4
#     Node 2, Type 0, BuildingBlock: KUFVIS_clean_sbu_0, # of connection points: 4
#     Node 3, Type 0, BuildingBlock: KUFVIS_clean_sbu_0, # of connection points: 4
#     Node 4, Type 0, BuildingBlock: KUFVIS_clean_sbu_0, # of connection points: 4
#     Node 5, Type 0, BuildingBlock: KUFVIS_clean_sbu_0, # of connection points: 4
#     Edge 6, Type (0, 0), BuildingBlock: EZIPEK_clean_linker_0, # of connection points: 2
#     Edge 7, Type (0, 0), BuildingBlock: EZIPEK_clean_linker_0, # of connection points: 2
#     Edge 8, Type (0, 0), BuildingBlock: EZIPEK_clean_linker_0, # of connection points: 2
#     Edge 9, Type (0, 0), BuildingBlock: EZIPEK_clean_linker_0, # of connection points: 2
#     Edge 10, Type (0, 0), BuildingBlock: EZIPEK_clean_linker_0, # of connection points: 2
#     Edge 11, Type (0, 0), BuildingBlock: EZIPEK_clean_linker_0, # of connection points: 2
#     Edge 12, Type (0, 0), BuildingBlock: EZIPEK_clean_linker_0, # of connection points: 2
#     Edge 13, Type (0, 0), BuildingBlock: EZIPEK_clean_linker_0, # of connection points: 2
#     Edge 14, Type (0, 0), BuildingBlock: EZIPEK_clean_linker_0, # of connection points: 2
#     Edge 15, Type (0, 0), BuildingBlock: EZIPEK_clean_linker_0, # of connection points: 2
#     Edge 16, Type (0, 0), BuildingBlock: EZIPEK_clean_linker_0, # of connection points: 2
#     Edge 17, Type (0, 0), BuildingBlock: EZIPEK_clean_linker_0, # of connection points: 2
# Relax obj value: 0.105
# Max RMSD: 0.203
# Mean RMSD: 0.201
data_MOF--net-uog--node1-KUFVIS_clean_sbu_0--edge1-EZIPEK_clean_linker_0
_symmetry_space_group_name_H-M    P1
_symmetry_Int_Tables_number       1
_symmetry_cell_setting            triclinic
loop_
_symmetry_equiv_pos_as_xyz
'x, y, z'
_cell_length_a     21.35556
_cell_length_b     21.127575
_cell_length_c     29.900953
_cell_angle_alpha  90.28184
_cell_angle_beta   90.212239
_cell_angle_gamma 120.30404
loop_
_atom_site_label
_atom_site_type_symbol
_atom_site_fract_x
_atom_site_fract_y
_atom_site_fract_z
_atom_type_partial_charge
Mn0 Mn 0.57268 0.25145 0.16065 0.0
Mn1 Mn 0.70104 0.42462 0.1774 0.0
C2 C 0.63656 0.32052 0.098 0.0
C3 C 0.54709 0.13018 0.16392 0.0
C4 C 0.53813 0.36879 0.17925 0.0
O5 O 0.58245 0.26663 0.22911 0.0
O6 O 0.69464 0.35949 0.22624 0.0
C7 C 0.83373 0.41455 0.18256 0.0
N8 N 0.79575 0.44342 0.16339 0.0
C9 C 0.89953 0.52939 0.12147 0.0
C10 C 0.93941 0.50012 0.14062 0.0
C11 C 0.90633 0.44214 0.17092 0.0
C12 C 0.82672 0.4983 0.13348 0.0
H13 H 0.80904 0.37096 0.20667 0.0
C14 C 0.63939 0.31614 0.24873 0.0
O15 O 0.49579 0.14597 0.16737 0.0
O16 O 0.6128 0.18449 0.16051 0.0
N17 N 0.71467 0.49179 0.13071 0.0
C18 C 0.67046 0.51793 0.11856 0.0
C19 C 0.697 0.57958 0.09118 0.0
C20 C 0.7692 0.61454 0.07702 0.0
C21 C 0.81345 0.5858 0.08874 0.0
C22 C 0.78406 0.52443 0.11652 0.0
H23 H 0.61648 0.49441 0.13125 0.0
O24 O 0.57868 0.25672 0.09332 0.0
O25 O 0.65749 0.33918 0.139 0.0
O26 O 0.51646 0.30593 0.16146 0.0
O27 O 0.60389 0.41161 0.19204 0.0
C28 C 0.88666 0.61804 0.07606 0.0
C29 C 0.92949 0.5894 0.09207 0.0
H30 H 0.99573 0.5222 0.13315 0.0
H31 H 0.93715 0.41976 0.18591 0.0
H32 H 0.66269 0.60182 0.08251 0.0
H33 H 0.79063 0.66515 0.0588 0.0
H34 H 0.9109 0.66555 0.05456 0.0
H35 H 0.98582 0.61528 0.08247 0.0
Mn36 Mn 0.28803 0.58215 0.48236 0.0
Mn37 Mn 0.28577 0.73699 0.45772 0.0
C38 C 0.28933 0.61315 0.40799 0.0
C39 C 0.36212 0.53372 0.50239 0.0
C40 C 0.1491 0.59475 0.48313 0.0
O41 O 0.30965 0.63445 0.54175 0.0
O42 O 0.31103 0.73775 0.52243 0.0
C43 C 0.44407 0.83522 0.46969 0.0
N44 N 0.38361 0.80877 0.44343 0.0
C45 C 0.45357 0.88291 0.38159 0.0
C46 C 0.5166 0.91041 0.40788 0.0
C47 C 0.51177 0.88661 0.45216 0.0
C48 C 0.38779 0.83089 0.40067 0.0
H49 H 0.44078 0.81687 0.50365 0.0
C50 C 0.31722 0.69648 0.55122 0.0
O51 O 0.29326 0.4989 0.51175 0.0
O52 O 0.38697 0.59497 0.4815 0.0
N53 N 0.26392 0.74738 0.39689 0.0
C54 C 0.19777 0.71934 0.3769 0.0
C55 C 0.19276 0.73769 0.33248 0.0
C56 C 0.25575 0.7878 0.30974 0.0
C57 C 0.32278 0.8204 0.33208 0.0
C58 C 0.3243 0.79902 0.37619 0.0
H59 H 0.14926 0.68536 0.39523 0.0
O60 O 0.27318 0.54739 0.41898 0.0
O61 O 0.30661 0.65959 0.4412 0.0
O62 O 0.17969 0.55582 0.48826 0.0
O63 O 0.1833 0.66232 0.47115 0.0
C64 C 0.38803 0.8738 0.31249 0.0
C65 C 0.45345 0.90454 0.3371 0.0
H66 H 0.56901 0.94974 0.39447 0.0
H67 H 0.56015 0.90774 0.4727 0.0
H68 H 0.14036 0.71432 0.31613 0.0
H69 H 0.25178 0.80218 0.27554 0.0
H70 H 0.38867 0.89105 0.27834 0.0
H71 H 0.50339 0.94434 0.32132 0.0
Mn72 Mn 0.74459 0.30663 0.86167 0.0
Mn73 Mn 0.74318 0.46409 0.84984 0.0
C74 C 0.74507 0.36899 0.92538 0.0
C75 C 0.67182 0.17874 0.86145 0.0
C76 C 0.87764 0.45339 0.83596 0.0
O77 O 0.7177 0.30542 0.79731 0.0
O78 O 0.7054 0.4048 0.79303 0.0
C79 C 0.58416 0.40031 0.8496 0.0
N80 N 0.65048 0.44846 0.86692 0.0
C81 C 0.59809 0.49232 0.92122 0.0
C82 C 0.52905 0.44225 0.90443 0.0
C83 C 0.52207 0.39539 0.86875 0.0
C84 C 0.65765 0.49205 0.90214 0.0
H85 H 0.57884 0.36449 0.82244 0.0
C86 C 0.70484 0.34883 0.77548 0.0
O87 O 0.74047 0.21024 0.8517 0.0
O88 O 0.64711 0.22102 0.87284 0.0
N89 N 0.77977 0.52785 0.90071 0.0
C90 C 0.85021 0.57127 0.91378 0.0
C91 C 0.86769 0.6246 0.94705 0.0
C92 C 0.81268 0.63328 0.96621 0.0
C93 C 0.74024 0.58662 0.95329 0.0
C94 C 0.7264 0.53537 0.91932 0.0
H95 H 0.89318 0.56713 0.89792 0.0
O96 O 0.76448 0.31988 0.92686 0.0
O97 O 0.72578 0.37964 0.88593 0.0
O98 O 0.85136 0.38617 0.84768 0.0
O99 O 0.8407 0.48542 0.83362 0.0
C100 C 0.68148 0.59031 0.97169 0.0
C101 C 0.61018 0.5419 0.95642 0.0
H102 H 0.4813 0.43906 0.91909 0.0
H103 H 0.46919 0.35554 0.85582 0.0
H104 H 0.92367 0.66037 0.95696 0.0
H105 H 0.82735 0.67744 0.98978 0.0
H106 H 0.69039 0.62986 -0.0023 0.0
H107 H 0.56521 0.54395 0.97156 0.0
Mn108 Mn 0.43097 0.70203 0.13752 0.0
Mn109 Mn 0.27606 0.54101 0.13815 0.0
C110 C 0.38034 0.64532 0.06869 0.0
C111 C 0.48119 0.82947 0.14382 0.0
C112 C 0.42325 0.55934 0.16186 0.0
O113 O 0.39474 0.69059 0.20151 0.0
O114 O 0.28205 0.59608 0.19436 0.0
C115 C 0.18025 0.60303 0.12587 0.0
N116 N 0.20014 0.55344 0.11397 0.0
C117 C 0.11288 0.50687 0.05382 0.0
C118 C 0.09083 0.55682 0.06568 0.0
C119 C 0.12574 0.60619 0.10134 0.0
C120 C 0.17021 0.50916 0.07797 0.0
H121 H 0.2086 0.64242 0.15222 0.0
C122 C 0.33157 0.64971 0.21721 0.0
O123 O 0.51894 0.79864 0.15374 0.0
O124 O 0.4159 0.78659 0.1291 0.0
N125 N 0.26107 0.4803 0.08693 0.0
C126 C 0.29388 0.44107 0.07682 0.0
C127 C 0.26698 0.39007 0.04153 0.0
C128 C 0.20525 0.37834 0.01777 0.0
C129 C 0.17198 0.419 0.02882 0.0
C130 C 0.20152 0.46924 0.06426 0.0
H131 H 0.33893 0.44701 0.09628 0.0
O132 O 0.44711 0.69839 0.0715 0.0
O133 O 0.34547 0.62912 0.10648 0.0
O134 O 0.46236 0.62646 0.15026 0.0
O135 O 0.35373 0.5244 0.16165 0.0
C136 C 0.10984 0.41068 0.00677 0.0
C137 C 0.08161 0.45618 0.01829 0.0
H138 H 0.04812 0.55857 0.0471 0.0
H139 H 0.1105 0.64636 0.11 0.0
H140 H 0.29266 0.35853 0.03343 0.0
H141 H 0.18347 0.33713 0.99165 0.0
H142 H 0.0835 0.36966 0.98084 0.0
H143 H 0.03575 0.45153 -0.00022 0.0
Mn144 Mn 0.68359 0.43589 0.50729 0.0
Mn145 Mn 0.73075 0.30671 0.49369 0.0
C146 C 0.67919 0.38928 0.43674 0.0
C147 C 0.58833 0.45972 0.52021 0.0
C148 C 0.84136 0.4689 0.50889 0.0
O149 O 0.68479 0.40237 0.57037 0.0
O150 O 0.69875 0.30497 0.55652 0.0
C151 C 0.58675 0.1738 0.50512 0.0
N152 N 0.6467 0.21446 0.47977 0.0
C153 C 0.59871 0.12548 0.41999 0.0
C154 C 0.53643 0.08262 0.44544 0.0
C155 C 0.53048 0.10689 0.48819 0.0
C156 C 0.65297 0.19164 0.43858 0.0
H157 H 0.58175 0.19259 0.53785 0.0
C158 C 0.68895 0.34705 0.58307 0.0
O159 O 0.65569 0.50989 0.52741 0.0
O160 O 0.57668 0.39553 0.50909 0.0
N161 N 0.76198 0.30227 0.43441 0.0
C162 C 0.82473 0.35079 0.41365 0.0
C163 C 0.83806 0.3357 0.37007 0.0
C164 C 0.78754 0.27016 0.34865 0.0
C165 C 0.72454 0.21993 0.37124 0.0
C166 C 0.71412 0.23802 0.41463 0.0
H167 H 0.86413 0.40098 0.42999 0.0
O168 O 0.68094 0.45098 0.44215 0.0
O169 O 0.67999 0.35632 0.47317 0.0
O170 O 0.79693 0.4932 0.50765 0.0
O171 O 0.82109 0.40071 0.50641 0.0
C172 C 0.67124 0.15306 0.35218 0.0
C173 C 0.60831 0.10608 0.37648 0.0
H174 H 0.49251 0.03143 0.43233 0.0
H175 H 0.48245 0.07425 0.50795 0.0
H176 H 0.88716 0.37454 0.35306 0.0
H177 H 0.79777 0.25885 0.31492 0.0
H178 H 0.67753 0.13785 0.31858 0.0
H179 H 0.56681 0.05607 0.36093 0.0
Mn180 Mn 0.33873 0.75965 0.83653 0.0
Mn181 Mn 0.27909 0.58432 0.80649 0.0
C182 C 0.32352 0.67727 0.89226 0.0
C183 C 0.43772 0.87894 0.84268 0.0
C184 C 0.18024 0.64742 0.81531 0.0
O185 O 0.34667 0.7633 0.76899 0.0
O186 O 0.32275 0.64897 0.75337 0.0
C187 C 0.41793 0.5912 0.787 0.0
N188 N 0.35512 0.56219 0.81049 0.0
C189 C 0.37643 0.47068 0.84277 0.0
C190 C 0.44151 0.49969 0.8189 0.0
C191 C 0.46275 0.56074 0.79131 0.0
C192 C 0.33538 0.50504 0.83833 0.0
H193 H 0.43306 0.63654 0.76481 0.0
C194 C 0.33943 0.71388 0.74159 0.0
O195 O 0.37196 0.86686 0.83843 0.0
O196 O 0.44603 0.82236 0.84302 0.0
N197 N 0.23343 0.51428 0.8529 0.0
C198 C 0.16492 0.48725 0.86881 0.0
C199 C 0.13292 0.42311 0.89409 0.0
C200 C 0.1713 0.38672 0.90259 0.0
C201 C 0.24164 0.41525 0.88596 0.0
C202 C 0.27055 0.47919 0.86045 0.0
H203 H 0.13333 0.51238 0.86069 0.0
O204 O 0.33042 0.74053 0.90139 0.0
O205 O 0.32992 0.66527 0.84991 0.0
O206 O 0.22675 0.71065 0.83109 0.0
O207 O 0.19655 0.60009 0.80232 0.0
C208 C 0.28195 0.3798 0.891 0.0
C209 C 0.34922 0.40751 0.86946 0.0
H210 H 0.47514 0.47508 0.82083 0.0
H211 H 0.51271 0.58316 0.77264 0.0
H212 H 0.0777 0.40041 0.90549 0.0
H213 H 0.14495 0.33519 0.92021 0.0
H214 H 0.26083 0.33003 0.91038 0.0
H215 H 0.37794 0.37798 0.8725 0.0
C216 C 0.50046 0.01416 0.11914 0.0
C217 C 0.53176 0.05352 0.15946 0.0
C218 C 0.5406 0.94932 0.18847 0.0
C219 C 0.50946 0.91009 0.14784 0.0
N220 N 0.48142 0.91412 0.07017 0.0
N221 N 0.59217 0.06466 0.22972 0.0
C222 C 0.49551 0.94518 0.11197 0.0
C223 C 0.55537 0.02299 0.19319 0.0
N224 N 0.47542 0.04265 0.08747 0.0
N225 N 0.55366 0.91568 0.22321 0.0
H226 H 0.59986 0.1168 0.23571 0.0
H227 H 0.61874 0.04973 0.2529 0.0
H228 H 0.54879 0.86435 0.22067 0.0
H229 H 0.56706 0.93731 0.25544 0.0
H230 H 0.444 0.01271 0.06007 0.0
H231 H 0.4817 0.09477 0.08992 0.0
H232 H 0.47787 0.94005 0.04155 0.0
H233 H 0.48149 0.86574 0.06313 0.0
C234 C 0.4218 0.46448 0.47723 0.0
C235 C 0.41106 0.50415 0.51159 0.0
C236 C 0.51142 0.5077 0.55482 0.0
C237 C 0.5278 0.47609 0.51787 0.0
N238 N 0.50609 0.43767 0.44014 0.0
N239 N 0.44769 0.56848 0.58208 0.0
C240 C 0.48458 0.45739 0.47819 0.0
C241 C 0.45638 0.52701 0.55023 0.0
N242 N 0.3719 0.43368 0.44338 0.0
N243 N 0.54657 0.5169 0.59469 0.0
H244 H 0.40547 0.57981 0.58084 0.0
H245 H 0.48406 0.59449 0.60838 0.0
H246 H 0.5864 0.50274 0.59924 0.0
H247 H 0.53232 0.53287 0.62413 0.0
H248 H 0.37248 0.39749 0.41983 0.0
H249 H 0.3257 0.43855 0.44146 0.0
H250 H 0.48124 0.43134 0.4091 0.0
H251 H 0.55352 0.43539 0.4381 0.0
C252 C 1.00194 0.53685 0.86581 0.0
C253 C 0.95652 0.50201 0.82827 0.0
C254 C 0.05735 0.58188 0.77919 0.0
C255 C 0.10087 0.61903 0.81724 0.0
N256 N 0.10007 0.65144 0.89441 0.0
N257 N 0.93585 0.50702 0.74916 0.0
C258 C 0.06835 0.60319 0.85983 0.0
C259 C 0.98249 0.52952 0.78481 0.0
N260 N 0.9826 0.50615 0.9071 0.0
N261 N 0.08809 0.59545 0.73784 0.0
H262 H 0.88065 0.4696 0.75219 0.0
H263 H 0.95084 0.53026 0.71753 0.0
H264 H 0.14181 0.63605 0.73264 0.0
H265 H 0.06145 0.56419 0.70957 0.0
H266 H 0.01659 0.5275 0.93501 0.0
H267 H 0.93664 0.45492 0.91188 0.0
H268 H 0.07514 0.64413 0.92541 0.0
H269 H 0.14727 0.70198 0.89043 0.0
C270 C 0.04125 0.54351 0.53623 0.0
C271 C 0.06936 0.56184 0.49206 0.0
C272 C 0.95468 0.55142 0.46749 0.0
C273 C 0.92194 0.52005 0.50856 0.0
N274 N 0.93489 0.492 0.58433 0.0
N275 N 0.04279 0.56215 0.41377 0.0
C276 C 0.96578 0.51786 0.54371 0.0
C277 C 0.02333 0.56032 0.45722 0.0
N278 N 0.08669 0.55212 0.57097 0.0
N279 N 0.92105 0.57438 0.43851 0.0
H280 H 0.09027 0.56292 0.40517 0.0
H281 H 0.00821 0.55462 0.38698 0.0
H282 H 0.87358 0.57402 0.44708 0.0
H283 H 0.94514 0.60198 0.40901 0.0
H284 H 0.07171 0.54692 0.60442 0.0
H285 H 0.1412 0.56861 0.56646 0.0
H286 H 0.96025 0.4809 0.61041 0.0
H287 H 0.88256 0.48122 0.59134 0.0
C288 C 0.54881 0.98793 0.81153 0.0
C289 C 0.50114 0.9541 0.84797 0.0
C290 C 0.57841 0.06087 0.89558 0.0
C291 C 0.62076 0.09835 0.85777 0.0
N292 N 0.64151 0.101 0.77828 0.0
N293 N 0.46712 0.95864 0.92419 0.0
C294 C 0.60541 0.06253 0.81541 0.0
C295 C 0.51504 0.99066 0.88991 0.0
N296 N 0.53986 0.94881 0.77309 0.0
N297 N 0.60023 0.0919 0.93714 0.0
H298 H 0.42189 0.90604 0.92195 0.0
H299 H 0.4694 0.98568 0.95388 0.0
H300 H 0.64724 0.14249 0.9424 0.0
H301 H 0.57604 0.06504 0.96672 0.0
H302 H 0.57763 0.96731 0.74736 0.0
H303 H 0.49705 0.89538 0.7681 0.0
H304 H 0.62655 0.08081 0.74579 0.0
H305 H 0.68346 0.15541 0.77943 0.0
C306 C 0.47076 0.4825 0.13225 0.0
C307 C 0.45799 0.51478 0.16982 0.0
C308 C 0.48615 0.43841 0.21791 0.0
C309 C 0.49016 0.401 0.17927 0.0
N310 N 0.45063 0.36807 0.10247 0.0
N311 N 0.4438 0.51655 0.24963 0.0
C312 C 0.47015 0.41612 0.13738 0.0
C313 C 0.46215 0.49024 0.21326 0.0
N314 N 0.48648 0.5165 0.09192 0.0
N315 N 0.50574 0.42473 0.25862 0.0
H316 H 0.42959 0.55699 0.24702 0.0
H317 H 0.43938 0.49577 0.28171 0.0
H318 H 0.51872 0.38365 0.26305 0.0
H319 H 0.51135 0.45551 0.28725 0.0
H320 H 0.49987 0.49592 0.06403 0.0
H321 H 0.49616 0.56979 0.08877 0.0
H322 H 0.4326 0.37717 0.07198 0.0
H323 H 0.44409 0.31602 0.10578 0.0
C324 C 0.77474 0.40542 0.00478 0.0
C325 C 0.72576 0.3896 0.96863 0.0
C326 C 0.6336 0.36996 0.02355 0.0
C327 C 0.67542 0.36301 0.05779 0.0
N328 N 0.78381 0.35935 0.0765 0.0
N329 N 0.59914 0.33683 0.94697 0.0
C330 C 0.74649 0.3784 0.04777 0.0
C331 C 0.65269 0.36841 0.97851 0.0
N332 N 0.84743 0.44129 -0.00262 0.0
N333 N 0.57322 0.37289 0.03398 0.0
H334 H 0.60776 0.32464 0.9147 0.0
H335 H 0.5445 0.31528 0.95466 0.0
H336 H 0.56032 0.37548 0.06721 0.0
H337 H 0.54264 0.38139 0.00999 0.0
H338 H 0.88545 0.45647 0.02321 0.0
H339 H 0.86827 0.46272 0.96606 0.0
H340 H 0.83357 0.36438 0.06833 0.0
H341 H 0.76188 0.33225 0.10641 0.0
C342 C 0.24681 0.61536 0.28393 0.0
C343 C 0.31751 0.65791 0.26606 0.0
C344 C 0.368 0.6822 0.34261 0.0
C345 C 0.29806 0.63322 0.3598 0.0
N346 N 0.17284 0.54213 0.34519 0.0
N347 N 0.43652 0.76107 0.28165 0.0
C348 C 0.23796 0.59695 0.33003 0.0
C349 C 0.37595 0.69987 0.2963 0.0
N350 N 0.18781 0.59808 0.25773 0.0
N351 N 0.42762 0.7091 0.36995 0.0
H352 H 0.43656 0.78529 0.25142 0.0
H353 H 0.48062 0.7951 0.30202 0.0
H354 H 0.42467 0.69782 0.40402 0.0
H355 H 0.48062 0.73774 0.35822 0.0
H356 H 0.13498 0.57291 0.26981 0.0
H357 H 0.19298 0.61948 0.22582 0.0
H358 H 0.12981 0.50816 0.32403 0.0
H359 H 0.16375 0.52595 0.37849 0.0
C360 C 0.75096 0.33553 0.70061 0.0
C361 C 0.69557 0.33708 0.72624 0.0
C362 C 0.62786 0.32697 0.65746 0.0
C363 C 0.68686 0.3338 0.63184 0.0
N364 N 0.80627 0.34714 0.62858 0.0
N365 N 0.5711 0.3063 0.73025 0.0
C366 C 0.74788 0.33665 0.65321 0.0
C367 C 0.63112 0.32537 0.70498 0.0
N368 N 0.80657 0.33218 0.72125 0.0
N369 N 0.5689 0.32246 0.6362 0.0
H370 H 0.5701 0.29623 0.76435 0.0
H371 H 0.52032 0.29176 0.71721 0.0
H372 H 0.56122 0.31578 0.60164 0.0
H373 H 0.52869 0.32768 0.65241 0.0
H374 H 0.83968 0.31656 0.70492 0.0
H375 H 0.81852 0.34097 0.7552 0.0
H376 H 0.85642 0.36088 0.64234 0.0
H377 H 0.80791 0.34797 0.59386 0.0
C378 C 0.26788 0.62613 0.96459 0.0
C379 C 0.31625 0.63001 0.93115 0.0
C380 C 0.38025 0.6034 0.98957 0.0
C381 C 0.34574 0.62257 0.02325 0.0
N382 N 0.26792 0.67282 0.03787 0.0
N383 N 0.4257 0.62824 0.91392 0.0
C384 C 0.29102 0.63785 0.00981 0.0
C385 C 0.37356 0.61819 0.94386 0.0
N386 N 0.20314 0.61884 0.95253 0.0
N387 N 0.42095 0.57323 0.0014 0.0
H388 H 0.42485 0.64326 0.88095 0.0
H389 H 0.47232 0.6271 0.92293 0.0
H390 H 0.42309 0.55957 0.03444 0.0
H391 H 0.44375 0.55392 0.97813 0.0
H392 H 0.1646 0.61368 0.97581 0.0
H393 H 0.18668 0.61037 0.91914 0.0
H394 H 0.23299 0.69088 0.02734 0.0
H395 H 0.28961 0.69093 0.06974 0.0
C396 C 0.7191 0.40927 0.35875 0.0
C397 C 0.67165 0.36019 0.39079 0.0
C398 C 0.60135 0.27425 0.33019 0.0
C399 C 0.64433 0.32891 0.2982 0.0
N400 N 0.71916 0.46104 0.28817 0.0
N401 N 0.55441 0.25436 0.40581 0.0
C402 C 0.69633 0.40022 0.31408 0.0
C403 C 0.60853 0.29487 0.37632 0.0
N404 N 0.7849 0.46664 0.37117 0.0
N405 N 0.55535 0.20325 0.31756 0.0
H406 H 0.55763 0.26818 0.43959 0.0
H407 H 0.50429 0.21049 0.39591 0.0
H408 H 0.55279 0.18344 0.28533 0.0
H409 H 0.52513 0.16192 0.34036 0.0
H410 H 0.82319 0.50134 0.34802 0.0
H411 H 0.80328 0.47315 0.40404 0.0
H412 H 0.75394 0.51397 0.30025 0.0
H413 H 0.69477 0.46011 0.25777 0.0
C414 C 0.40005 0.72841 0.66734 0.0
C415 C 0.34511 0.73 0.69289 0.0
C416 C 0.28008 0.72674 0.62429 0.0
C417 C 0.33245 0.72019 0.59876 0.0
N418 N 0.45061 0.73262 0.59386 0.0
N419 N 0.24694 0.75576 0.69554 0.0
C420 C 0.39526 0.72672 0.61974 0.0
C421 C 0.29001 0.73783 0.6713 0.0
N422 N 0.4567 0.72875 0.68889 0.0
N423 N 0.21804 0.71691 0.60428 0.0
H424 H 0.25014 0.76203 0.73015 0.0
H425 H 0.21183 0.77054 0.68098 0.0
H426 H 0.20855 0.70978 0.56993 0.0
H427 H 0.17329 0.71034 0.62202 0.0
H428 H 0.49417 0.71839 0.67337 0.0
H429 H 0.4658 0.73938 0.72313 0.0
H430 H 0.50027 0.74256 0.60641 0.0
H431 H 0.44873 0.73256 0.55899 0.0
loop_
_geom_bond_atom_site_label_1
_geom_bond_atom_site_label_2
_geom_bond_distance
_geom_bond_site_symmetry_2
_ccdc_geom_bond_type
Mn0 O5 2.095 . S
Mn0 O15 2.162 . S
Mn0 O16 2.297 . S
Mn0 O24 2.385 . S
Mn0 O25 2.209 . S
Mn0 O26 2.094 . S
Mn1 O6 2.121 . S
Mn1 N8 2.257 . S
Mn1 N17 2.282 . S
Mn1 O25 2.215 . S
Mn1 O27 2.117 . S
C2 O24 1.234 . S
C2 O25 1.283 . S
C3 O15 1.281 . S
C3 O16 1.236 . S
C4 O26 1.240 . S
C4 O27 1.264 . S
O5 Mn0 2.095 . S
O5 C14 1.250 . S
O6 Mn1 2.121 . S
O6 C14 1.258 . S
C7 N8 1.326 . S
C7 C11 1.460 . S
C7 H13 0.929 . S
N8 Mn1 2.257 . S
N8 C7 1.326 . S
N8 C12 1.362 . S
C9 C10 1.258 . S
C9 C12 1.431 . S
C9 C29 1.449 . S
C10 C9 1.258 . S
C10 C11 1.477 . S
C10 H30 0.931 1_655 S
C11 C7 1.460 . S
C11 C10 1.477 . S
C11 H31 0.924 1_655 S
C12 N8 1.362 . S
C12 C9 1.431 . S
C12 C22 1.476 . S
H13 C7 0.929 . S
C14 O5 1.250 . S
C14 O6 1.258 . S
O15 Mn0 2.162 . S
O15 C3 1.281 . S
O16 Mn0 2.297 . S
O16 C3 1.236 . S
N17 Mn1 2.282 . S
N17 C18 1.328 . S
N17 C22 1.318 . S
C18 N17 1.328 . S
C18 C19 1.457 . S
C18 H23 0.929 . S
C19 C18 1.457 . S
C19 C20 1.291 1_554 S
C19 H32 0.931 1_554 S
C20 C19 1.291 1_556 S
C20 C21 1.372 1_556 S
C20 H33 0.930 . S
C21 C20 1.372 1_554 S
C21 C22 1.396 . S
C21 C28 1.403 . S
C22 C12 1.476 . S
C22 N17 1.318 . S
C22 C21 1.396 . S
H23 C18 0.929 . S
O24 Mn0 2.385 . S
O24 C2 1.234 . S
O25 Mn0 2.209 . S
O25 Mn1 2.215 . S
O25 C2 1.283 . S
O26 Mn0 2.094 . S
O26 C4 1.240 . S
O27 Mn1 2.117 . S
O27 C4 1.264 . S
C28 C21 1.403 . S
C28 C29 1.399 . S
C28 H34 0.929 1_554 S
C29 C9 1.449 . S
C29 C28 1.399 . S
C29 H35 0.924 1_655 S
H30 C10 0.931 1_455 S
H31 C11 0.924 1_455 S
H32 C19 0.931 1_556 S
H33 C20 0.930 . S
H34 C28 0.929 1_556 S
H35 C29 0.924 1_455 S
Mn36 O41 2.095 . S
Mn36 O51 2.162 . S
Mn36 O52 2.297 . S
Mn36 O60 2.385 . S
Mn36 O61 2.209 . S
Mn36 O62 2.094 . S
Mn37 O42 2.121 . S
Mn37 N44 2.257 . S
Mn37 N53 2.282 . S
Mn37 O61 2.215 . S
Mn37 O63 2.117 . S
C38 O60 1.234 . S
C38 O61 1.283 . S
C39 O51 1.281 . S
C39 O52 1.236 . S
C40 O62 1.240 . S
C40 O63 1.264 . S
O41 Mn36 2.095 . S
O41 C50 1.250 . S
O42 Mn37 2.121 . S
O42 C50 1.258 . S
C43 N44 1.326 . S
C43 C47 1.460 . S
C43 H49 0.929 . S
N44 Mn37 2.257 . S
N44 C43 1.326 . S
N44 C48 1.362 . S
C45 C46 1.258 . S
C45 C48 1.431 . S
C45 C65 1.449 . S
C46 C45 1.258 . S
C46 C47 1.477 . S
C46 H66 0.931 1_565 S
C47 C43 1.460 . S
C47 C46 1.477 . S
C47 H67 0.930 . S
C48 N44 1.362 . S
C48 C45 1.431 . S
C48 C58 1.476 . S
H49 C43 0.929 . S
C50 O41 1.250 . S
C50 O42 1.258 . S
O51 Mn36 2.162 . S
O51 C39 1.281 . S
O52 Mn36 2.297 . S
O52 C39 1.236 . S
N53 Mn37 2.282 . S
N53 C54 1.328 . S
N53 C58 1.318 . S
C54 N53 1.328 . S
C54 C55 1.457 . S
C54 H59 0.929 . S
C55 C54 1.457 . S
C55 C56 1.291 . S
C55 H68 0.931 . S
C56 C55 1.291 . S
C56 C57 1.373 . S
C56 H69 0.929 . S
C57 C56 1.373 . S
C57 C58 1.396 . S
C57 C64 1.403 . S
C58 C48 1.476 . S
C58 N53 1.318 . S
C58 C57 1.396 . S
H59 C54 0.929 . S
O60 Mn36 2.385 . S
O60 C38 1.234 . S
O61 Mn36 2.209 . S
O61 Mn37 2.215 . S
O61 C38 1.283 . S
O62 Mn36 2.094 . S
O62 C40 1.240 . S
O63 Mn37 2.117 . S
O63 C40 1.264 . S
C64 C57 1.403 . S
C64 C65 1.399 . S
C64 H70 0.929 . S
C65 C45 1.449 . S
C65 C64 1.399 . S
C65 H71 0.930 . S
H66 C46 0.931 1_545 S
H67 C47 0.930 . S
H68 C55 0.931 . S
H69 C56 0.929 . S
H70 C64 0.929 . S
H71 C65 0.930 . S
Mn72 O77 2.095 . S
Mn72 O87 2.162 . S
Mn72 O88 2.297 . S
Mn72 O96 2.385 . S
Mn72 O97 2.209 . S
Mn72 O98 2.094 . S
Mn73 O78 2.121 . S
Mn73 N80 2.257 . S
Mn73 N89 2.282 . S
Mn73 O97 2.215 . S
Mn73 O99 2.117 . S
C74 O96 1.234 . S
C74 O97 1.283 . S
C75 O87 1.281 . S
C75 O88 1.236 . S
C76 O98 1.240 . S
C76 O99 1.264 . S
O77 Mn72 2.095 . S
O77 C86 1.250 . S
O78 Mn73 2.121 . S
O78 C86 1.258 . S
C79 N80 1.326 . S
C79 C83 1.460 . S
C79 H85 0.929 . S
N80 Mn73 2.257 . S
N80 C79 1.326 . S
N80 C84 1.362 . S
C81 C82 1.258 . S
C81 C84 1.431 . S
C81 C101 1.449 . S
C82 C81 1.258 . S
C82 C83 1.477 . S
C82 H102 0.931 . S
C83 C79 1.460 . S
C83 C82 1.477 . S
C83 H103 0.930 . S
C84 N80 1.362 . S
C84 C81 1.431 . S
C84 C94 1.476 . S
H85 C79 0.929 . S
C86 O77 1.250 . S
C86 O78 1.258 . S
O87 Mn72 2.162 . S
O87 C75 1.281 . S
O88 Mn72 2.297 . S
O88 C75 1.236 . S
N89 Mn73 2.282 . S
N89 C90 1.328 . S
N89 C94 1.318 . S
C90 N89 1.328 . S
C90 C91 1.457 . S
C90 H95 0.929 . S
C91 C90 1.457 . S
C91 C92 1.291 1_556 S
C91 H104 0.931 1_556 S
C92 C91 1.291 1_554 S
C92 C93 1.373 1_554 S
C92 H105 0.929 . S
C93 C92 1.373 1_556 S
C93 C94 1.396 . S
C93 C100 1.403 . S
C94 C84 1.476 . S
C94 N89 1.318 . S
C94 C93 1.396 . S
H95 C90 0.929 . S
O96 Mn72 2.385 . S
O96 C74 1.234 . S
O97 Mn72 2.209 . S
O97 Mn73 2.215 . S
O97 C74 1.283 . S
O98 Mn72 2.094 . S
O98 C76 1.240 . S
O99 Mn73 2.117 . S
O99 C76 1.264 . S
C100 C93 1.403 . S
C100 C101 1.399 . S
C100 H106 0.929 1_556 S
C101 C81 1.449 . S
C101 C100 1.399 . S
C101 H107 0.930 . S
H102 C82 0.931 . S
H103 C83 0.930 . S
H104 C91 0.931 1_554 S
H105 C92 0.929 . S
H106 C100 0.929 1_554 S
H107 C101 0.930 . S
Mn108 O113 2.095 . S
Mn108 O123 2.162 . S
Mn108 O124 2.297 . S
Mn108 O132 2.385 . S
Mn108 O133 2.209 . S
Mn108 O134 2.094 . S
Mn109 O114 2.121 . S
Mn109 N116 2.257 . S
Mn109 N125 2.282 . S
Mn109 O133 2.215 . S
Mn109 O135 2.117 . S
C110 O132 1.234 . S
C110 O133 1.283 . S
C111 O123 1.281 . S
C111 O124 1.236 . S
C112 O134 1.240 . S
C112 O135 1.264 . S
O113 Mn108 2.095 . S
O113 C122 1.250 . S
O114 Mn109 2.121 . S
O114 C122 1.258 . S
C115 N116 1.326 . S
C115 C119 1.460 . S
C115 H121 0.929 . S
N116 Mn109 2.257 . S
N116 C115 1.326 . S
N116 C120 1.362 . S
C117 C118 1.258 . S
C117 C120 1.431 . S
C117 C137 1.449 . S
C118 C117 1.258 . S
C118 C119 1.477 . S
C118 H138 0.931 1_455 S
C119 C115 1.460 . S
C119 C118 1.477 . S
C119 H139 0.924 1_455 S
C120 N116 1.362 . S
C120 C117 1.431 . S
C120 C130 1.476 . S
H121 C115 0.929 . S
C122 O113 1.250 . S
C122 O114 1.258 . S
O123 Mn108 2.162 . S
O123 C111 1.281 . S
O124 Mn108 2.297 . S
O124 C111 1.236 . S
N125 Mn109 2.282 . S
N125 C126 1.328 . S
N125 C130 1.318 . S
C126 N125 1.328 . S
C126 C127 1.457 . S
C126 H131 0.929 . S
C127 C126 1.457 . S
C127 C128 1.291 1_554 S
C127 H140 0.931 1_554 S
C128 C127 1.291 1_556 S
C128 C129 1.372 1_556 S
C128 H141 0.930 . S
C129 C128 1.372 1_554 S
C129 C130 1.396 . S
C129 C136 1.403 . S
C130 C120 1.476 . S
C130 N125 1.318 . S
C130 C129 1.396 . S
H131 C126 0.929 . S
O132 Mn108 2.385 . S
O132 C110 1.234 . S
O133 Mn108 2.209 . S
O133 Mn109 2.215 . S
O133 C110 1.283 . S
O134 Mn108 2.094 . S
O134 C112 1.240 . S
O135 Mn109 2.117 . S
O135 C112 1.264 . S
C136 C129 1.403 . S
C136 C137 1.399 . S
C136 H142 0.929 1_554 S
C137 C117 1.449 . S
C137 C136 1.399 . S
C137 H143 0.924 1_455 S
H138 C118 0.931 1_655 S
H139 C119 0.924 1_655 S
H140 C127 0.931 1_556 S
H141 C128 0.930 . S
H142 C136 0.929 1_556 S
H143 C137 0.924 1_655 S
Mn144 O149 2.095 . S
Mn144 O159 2.162 . S
Mn144 O160 2.297 . S
Mn144 O168 2.385 . S
Mn144 O169 2.209 . S
Mn144 O170 2.094 . S
Mn145 O150 2.121 . S
Mn145 N152 2.257 . S
Mn145 N161 2.282 . S
Mn145 O169 2.215 . S
Mn145 O171 2.117 . S
C146 O168 1.234 . S
C146 O169 1.283 . S
C147 O159 1.281 . S
C147 O160 1.236 . S
C148 O170 1.240 . S
C148 O171 1.264 . S
O149 Mn144 2.095 . S
O149 C158 1.250 . S
O150 Mn145 2.121 . S
O150 C158 1.258 . S
C151 N152 1.326 . S
C151 C155 1.460 . S
C151 H157 0.929 . S
N152 Mn145 2.257 . S
N152 C151 1.326 . S
N152 C156 1.362 . S
C153 C154 1.258 . S
C153 C156 1.431 . S
C153 C173 1.449 . S
C154 C153 1.258 . S
C154 C155 1.477 . S
C154 H174 0.931 1_545 S
C155 C151 1.460 . S
C155 C154 1.477 . S
C155 H175 0.930 . S
C156 N152 1.362 . S
C156 C153 1.431 . S
C156 C166 1.476 . S
H157 C151 0.929 . S
C158 O149 1.250 . S
C158 O150 1.258 . S
O159 Mn144 2.162 . S
O159 C147 1.281 . S
O160 Mn144 2.297 . S
O160 C147 1.236 . S
N161 Mn145 2.282 . S
N161 C162 1.328 . S
N161 C166 1.318 . S
C162 N161 1.328 . S
C162 C163 1.457 . S
C162 H167 0.929 . S
C163 C162 1.457 . S
C163 C164 1.291 . S
C163 H176 0.931 . S
C164 C163 1.291 . S
C164 C165 1.373 . S
C164 H177 0.929 . S
C165 C164 1.373 . S
C165 C166 1.396 . S
C165 C172 1.403 . S
C166 C156 1.476 . S
C166 N161 1.318 . S
C166 C165 1.396 . S
H167 C162 0.929 . S
O168 Mn144 2.385 . S
O168 C146 1.234 . S
O169 Mn144 2.209 . S
O169 Mn145 2.215 . S
O169 C146 1.283 . S
O170 Mn144 2.094 . S
O170 C148 1.240 . S
O171 Mn145 2.117 . S
O171 C148 1.264 . S
C172 C165 1.403 . S
C172 C173 1.399 . S
C172 H178 0.929 . S
C173 C153 1.449 . S
C173 C172 1.399 . S
C173 H179 0.930 . S
H174 C154 0.931 1_565 S
H175 C155 0.930 . S
H176 C163 0.931 . S
H177 C164 0.929 . S
H178 C172 0.929 . S
H179 C173 0.930 . S
Mn180 O185 2.095 . S
Mn180 O195 2.162 . S
Mn180 O196 2.297 . S
Mn180 O204 2.385 . S
Mn180 O205 2.209 . S
Mn180 O206 2.094 . S
Mn181 O186 2.121 . S
Mn181 N188 2.257 . S
Mn181 N197 2.282 . S
Mn181 O205 2.215 . S
Mn181 O207 2.117 . S
C182 O204 1.234 . S
C182 O205 1.283 . S
C183 O195 1.281 . S
C183 O196 1.236 . S
C184 O206 1.240 . S
C184 O207 1.264 . S
O185 Mn180 2.095 . S
O185 C194 1.250 . S
O186 Mn181 2.121 . S
O186 C194 1.258 . S
C187 N188 1.326 . S
C187 C191 1.460 . S
C187 H193 0.929 . S
N188 Mn181 2.257 . S
N188 C187 1.326 . S
N188 C192 1.362 . S
C189 C190 1.258 . S
C189 C192 1.431 . S
C189 C209 1.449 . S
C190 C189 1.258 . S
C190 C191 1.477 . S
C190 H210 0.931 . S
C191 C187 1.460 . S
C191 C190 1.477 . S
C191 H211 0.930 . S
C192 N188 1.362 . S
C192 C189 1.431 . S
C192 C202 1.476 . S
H193 C187 0.929 . S
C194 O185 1.250 . S
C194 O186 1.258 . S
O195 Mn180 2.162 . S
O195 C183 1.281 . S
O196 Mn180 2.297 . S
O196 C183 1.236 . S
N197 Mn181 2.282 . S
N197 C198 1.328 . S
N197 C202 1.318 . S
C198 N197 1.328 . S
C198 C199 1.457 . S
C198 H203 0.929 . S
C199 C198 1.457 . S
C199 C200 1.291 1_556 S
C199 H212 0.931 1_556 S
C200 C199 1.291 1_554 S
C200 C201 1.373 1_554 S
C200 H213 0.929 . S
C201 C200 1.373 1_556 S
C201 C202 1.396 . S
C201 C208 1.403 . S
C202 C192 1.476 . S
C202 N197 1.318 . S
C202 C201 1.396 . S
H203 C198 0.929 . S
O204 Mn180 2.385 . S
O204 C182 1.234 . S
O205 Mn180 2.209 . S
O205 Mn181 2.215 . S
O205 C182 1.283 . S
O206 Mn180 2.094 . S
O206 C184 1.240 . S
O207 Mn181 2.117 . S
O207 C184 1.264 . S
C208 C201 1.403 . S
C208 C209 1.399 . S
C208 H214 0.929 1_556 S
C209 C189 1.449 . S
C209 C208 1.399 . S
C209 H215 0.930 . S
H210 C190 0.931 . S
H211 C191 0.930 . S
H212 C199 0.931 1_554 S
H213 C200 0.929 . S
H214 C208 0.929 1_554 S
H215 C209 0.930 . S
C216 C217 1.363 . S
C216 C222 1.379 1_545 S
C216 N224 1.356 . S
C217 C216 1.363 . S
C217 C223 1.363 . S
C218 C219 1.363 . S
C218 C223 1.379 1_565 S
C218 N225 1.356 . S
C219 C218 1.363 . S
C219 C222 1.363 . S
N220 C222 1.356 . S
N220 H232 0.984 . S
N220 H233 0.985 . S
N221 C223 1.356 . S
N221 H226 0.984 . S
N221 H227 0.985 . S
C222 C216 1.379 1_565 S
C222 C219 1.363 . S
C222 N220 1.356 . S
C223 C217 1.363 . S
C223 C218 1.379 1_545 S
C223 N221 1.356 . S
N224 C216 1.356 . S
N224 H230 0.984 . S
N224 H231 0.984 . S
N225 C218 1.356 . S
N225 H228 0.984 . S
N225 H229 0.985 . S
H226 N221 0.984 . S
H227 N221 0.985 . S
H228 N225 0.984 . S
H229 N225 0.985 . S
H230 N224 0.984 . S
H231 N224 0.984 . S
H232 N220 0.984 . S
H233 N220 0.985 . S
C234 C235 1.363 . S
C234 C240 1.379 . S
C234 N242 1.356 . S
C235 C234 1.363 . S
C235 C241 1.363 . S
C236 C237 1.363 . S
C236 C241 1.379 . S
C236 N243 1.356 . S
C237 C236 1.363 . S
C237 C240 1.363 . S
N238 C240 1.356 . S
N238 H250 0.984 . S
N238 H251 0.985 . S
N239 C241 1.356 . S
N239 H244 0.984 . S
N239 H245 0.985 . S
C240 C234 1.379 . S
C240 C237 1.363 . S
C240 N238 1.356 . S
C241 C235 1.363 . S
C241 C236 1.379 . S
C241 N239 1.356 . S
N242 C234 1.356 . S
N242 H248 0.984 . S
N242 H249 0.984 . S
N243 C236 1.356 . S
N243 H246 0.984 . S
N243 H247 0.985 . S
H244 N239 0.984 . S
H245 N239 0.985 . S
H246 N243 0.984 . S
H247 N243 0.985 . S
H248 N242 0.984 . S
H249 N242 0.984 . S
H250 N238 0.984 . S
H251 N238 0.985 . S
C252 C253 1.363 . S
C252 C258 1.379 1_655 S
C252 N260 1.356 . S
C253 C252 1.363 . S
C253 C259 1.363 . S
C254 C255 1.363 . S
C254 C259 1.379 1_455 S
C254 N261 1.356 . S
C255 C254 1.363 . S
C255 C258 1.363 . S
N256 C258 1.356 . S
N256 H268 0.984 . S
N256 H269 0.985 . S
N257 C259 1.356 . S
N257 H262 0.984 . S
N257 H263 0.985 . S
C258 C252 1.379 1_455 S
C258 C255 1.363 . S
C258 N256 1.356 . S
C259 C253 1.363 . S
C259 C254 1.379 1_655 S
C259 N257 1.356 . S
N260 C252 1.356 . S
N260 H266 0.984 . S
N260 H267 0.984 . S
N261 C254 1.356 . S
N261 H264 0.984 . S
N261 H265 0.985 . S
H262 N257 0.984 . S
H263 N257 0.985 . S
H264 N261 0.984 . S
H265 N261 0.985 . S
H266 N260 0.984 . S
H267 N260 0.984 . S
H268 N256 0.984 . S
H269 N256 0.985 . S
C270 C271 1.363 . S
C270 C276 1.379 1_455 S
C270 N278 1.356 . S
C271 C270 1.363 . S
C271 C277 1.363 . S
C272 C273 1.363 . S
C272 C277 1.379 1_655 S
C272 N279 1.356 . S
C273 C272 1.363 . S
C273 C276 1.363 . S
N274 C276 1.356 . S
N274 H286 0.984 . S
N274 H287 0.985 . S
N275 C277 1.356 . S
N275 H280 0.984 . S
N275 H281 0.985 . S
C276 C270 1.379 1_655 S
C276 C273 1.363 . S
C276 N274 1.356 . S
C277 C271 1.363 . S
C277 C272 1.379 1_455 S
C277 N275 1.356 . S
N278 C270 1.356 . S
N278 H284 0.984 . S
N278 H285 0.984 . S
N279 C272 1.356 . S
N279 H282 0.984 . S
N279 H283 0.985 . S
H280 N275 0.984 . S
H281 N275 0.985 . S
H282 N279 0.984 . S
H283 N279 0.985 . S
H284 N278 0.984 . S
H285 N278 0.984 . S
H286 N274 0.984 . S
H287 N274 0.985 . S
C288 C289 1.363 . S
C288 C294 1.379 1_565 S
C288 N296 1.356 . S
C289 C288 1.363 . S
C289 C295 1.363 . S
C290 C291 1.363 . S
C290 C295 1.379 1_545 S
C290 N297 1.356 . S
C291 C290 1.363 . S
C291 C294 1.363 . S
N292 C294 1.356 . S
N292 H304 0.984 . S
N292 H305 0.985 . S
N293 C295 1.356 . S
N293 H298 0.984 . S
N293 H299 0.985 . S
C294 C288 1.379 1_545 S
C294 C291 1.363 . S
C294 N292 1.356 . S
C295 C289 1.363 . S
C295 C290 1.379 1_565 S
C295 N293 1.356 . S
N296 C288 1.356 . S
N296 H302 0.984 . S
N296 H303 0.984 . S
N297 C290 1.356 . S
N297 H300 0.984 . S
N297 H301 0.985 . S
H298 N293 0.984 . S
H299 N293 0.985 . S
H300 N297 0.984 . S
H301 N297 0.985 . S
H302 N296 0.984 . S
H303 N296 0.984 . S
H304 N292 0.984 . S
H305 N292 0.985 . S
C306 C307 1.363 . S
C306 C312 1.379 . S
C306 N314 1.356 . S
C307 C306 1.363 . S
C307 C313 1.363 . S
C308 C309 1.363 . S
C308 C313 1.379 . S
C308 N315 1.356 . S
C309 C308 1.363 . S
C309 C312 1.363 . S
N310 C312 1.356 . S
N310 H322 0.984 . S
N310 H323 0.985 . S
N311 C313 1.356 . S
N311 H316 0.984 . S
N311 H317 0.985 . S
C312 C306 1.379 . S
C312 C309 1.363 . S
C312 N310 1.356 . S
C313 C307 1.363 . S
C313 C308 1.379 . S
C313 N311 1.356 . S
N314 C306 1.356 . S
N314 H320 0.984 . S
N314 H321 0.984 . S
N315 C308 1.356 . S
N315 H318 0.984 . S
N315 H319 0.985 . S
H316 N311 0.984 . S
H317 N311 0.985 . S
H318 N315 0.984 . S
H319 N315 0.985 . S
H320 N314 0.984 . S
H321 N314 0.984 . S
H322 N310 0.984 . S
H323 N310 0.985 . S
C324 C325 1.363 . S
C324 C330 1.379 1_556 S
C324 N332 1.356 . S
C325 C324 1.363 . S
C325 C331 1.363 . S
C326 C327 1.363 . S
C326 C331 1.379 1_554 S
C326 N333 1.356 . S
C327 C326 1.363 . S
C327 C330 1.363 . S
N328 C330 1.356 . S
N328 H340 0.984 . S
N328 H341 0.985 . S
N329 C331 1.356 . S
N329 H334 0.984 . S
N329 H335 0.985 . S
C330 C324 1.379 1_554 S
C330 C327 1.363 . S
C330 N328 1.356 . S
C331 C325 1.363 . S
C331 C326 1.379 1_556 S
C331 N329 1.356 . S
N332 C324 1.356 . S
N332 H338 0.984 . S
N332 H339 0.984 . S
N333 C326 1.356 . S
N333 H336 0.984 . S
N333 H337 0.985 . S
H334 N329 0.984 . S
H335 N329 0.985 . S
H336 N333 0.984 . S
H337 N333 0.985 . S
H338 N332 0.984 . S
H339 N332 0.984 . S
H340 N328 0.984 . S
H341 N328 0.985 . S
C342 C343 1.363 . S
C342 C348 1.379 . S
C342 N350 1.356 . S
C343 C342 1.363 . S
C343 C349 1.363 . S
C344 C345 1.363 . S
C344 C349 1.379 . S
C344 N351 1.356 . S
C345 C344 1.363 . S
C345 C348 1.363 . S
N346 C348 1.356 . S
N346 H358 0.984 . S
N346 H359 0.985 . S
N347 C349 1.356 . S
N347 H352 0.984 . S
N347 H353 0.985 . S
C348 C342 1.379 . S
C348 C345 1.363 . S
C348 N346 1.356 . S
C349 C343 1.363 . S
C349 C344 1.379 . S
C349 N347 1.356 . S
N350 C342 1.356 . S
N350 H356 0.984 . S
N350 H357 0.984 . S
N351 C344 1.356 . S
N351 H354 0.984 . S
N351 H355 0.985 . S
H352 N347 0.984 . S
H353 N347 0.985 . S
H354 N351 0.984 . S
H355 N351 0.985 . S
H356 N350 0.984 . S
H357 N350 0.984 . S
H358 N346 0.984 . S
H359 N346 0.985 . S
C360 C361 1.363 . S
C360 C366 1.379 . S
C360 N368 1.356 . S
C361 C360 1.363 . S
C361 C367 1.363 . S
C362 C363 1.363 . S
C362 C367 1.379 . S
C362 N369 1.356 . S
C363 C362 1.363 . S
C363 C366 1.363 . S
N364 C366 1.356 . S
N364 H376 0.984 . S
N364 H377 0.985 . S
N365 C367 1.356 . S
N365 H370 0.984 . S
N365 H371 0.985 . S
C366 C360 1.379 . S
C366 C363 1.363 . S
C366 N364 1.356 . S
C367 C361 1.363 . S
C367 C362 1.379 . S
C367 N365 1.356 . S
N368 C360 1.356 . S
N368 H374 0.984 . S
N368 H375 0.984 . S
N369 C362 1.356 . S
N369 H372 0.984 . S
N369 H373 0.985 . S
H370 N365 0.984 . S
H371 N365 0.985 . S
H372 N369 0.984 . S
H373 N369 0.985 . S
H374 N368 0.984 . S
H375 N368 0.984 . S
H376 N364 0.984 . S
H377 N364 0.985 . S
C378 C379 1.363 . S
C378 C384 1.379 1_556 S
C378 N386 1.356 . S
C379 C378 1.363 . S
C379 C385 1.363 . S
C380 C381 1.363 . S
C380 C385 1.379 1_554 S
C380 N387 1.356 . S
C381 C380 1.363 . S
C381 C384 1.363 . S
N382 C384 1.356 . S
N382 H394 0.984 . S
N382 H395 0.985 . S
N383 C385 1.356 . S
N383 H388 0.984 . S
N383 H389 0.985 . S
C384 C378 1.379 1_554 S
C384 C381 1.363 . S
C384 N382 1.356 . S
C385 C379 1.363 . S
C385 C380 1.379 1_556 S
C385 N383 1.356 . S
N386 C378 1.356 . S
N386 H392 0.984 . S
N386 H393 0.984 . S
N387 C380 1.356 . S
N387 H390 0.984 . S
N387 H391 0.985 . S
H388 N383 0.984 . S
H389 N383 0.985 . S
H390 N387 0.984 . S
H391 N387 0.985 . S
H392 N386 0.984 . S
H393 N386 0.984 . S
H394 N382 0.984 . S
H395 N382 0.985 . S
C396 C397 1.363 . S
C396 C402 1.379 . S
C396 N404 1.356 . S
C397 C396 1.363 . S
C397 C403 1.363 . S
C398 C399 1.363 . S
C398 C403 1.379 . S
C398 N405 1.356 . S
C399 C398 1.363 . S
C399 C402 1.363 . S
N400 C402 1.356 . S
N400 H412 0.984 . S
N400 H413 0.985 . S
N401 C403 1.356 . S
N401 H406 0.984 . S
N401 H407 0.985 . S
C402 C396 1.379 . S
C402 C399 1.363 . S
C402 N400 1.356 . S
C403 C397 1.363 . S
C403 C398 1.379 . S
C403 N401 1.356 . S
N404 C396 1.356 . S
N404 H410 0.984 . S
N404 H411 0.984 . S
N405 C398 1.356 . S
N405 H408 0.984 . S
N405 H409 0.985 . S
H406 N401 0.984 . S
H407 N401 0.985 . S
H408 N405 0.984 . S
H409 N405 0.985 . S
H410 N404 0.984 . S
H411 N404 0.984 . S
H412 N400 0.984 . S
H413 N400 0.985 . S
C414 C415 1.363 . S
C414 C420 1.379 . S
C414 N422 1.356 . S
C415 C414 1.363 . S
C415 C421 1.363 . S
C416 C417 1.363 . S
C416 C421 1.379 . S
C416 N423 1.356 . S
C417 C416 1.363 . S
C417 C420 1.363 . S
N418 C420 1.356 . S
N418 H430 0.984 . S
N418 H431 0.985 . S
N419 C421 1.356 . S
N419 H424 0.984 . S
N419 H425 0.985 . S
C420 C414 1.379 . S
C420 C417 1.363 . S
C420 N418 1.356 . S
C421 C415 1.363 . S
C421 C416 1.379 . S
C421 N419 1.356 . S
N422 C414 1.356 . S
N422 H428 0.984 . S
N422 H429 0.984 . S
N423 C416 1.356 . S
N423 H426 0.984 . S
N423 H427 0.985 . S
H424 N419 0.984 . S
H425 N419 0.985 . S
H426 N423 0.984 . S
H427 N423 0.985 . S
H428 N422 0.984 . S
H429 N422 0.984 . S
H430 N418 0.984 . S
H431 N418 0.985 . S
C217 C3 1.467 . S
C219 C111 1.467 . S
C235 C39 1.458 . S
C237 C147 1.458 . S
C253 C76 1.442 . S
C255 C184 1.442 . S
C271 C40 1.432 . S
C273 C148 1.432 . S
C289 C183 1.457 . S
C291 C75 1.457 . S
C307 C112 1.443 . S
C309 C4 1.443 . S
C325 C74 1.309 . S
C327 C2 1.309 . S
C343 C122 1.445 . S
C345 C38 1.332 . S
C361 C86 1.472 . S
C363 C158 1.473 . S
C379 C182 1.309 . S
C381 C110 1.309 . S
C397 C146 1.332 . S
C399 C14 1.445 . S
C415 C194 1.473 . S
C417 C50 1.473 . S
