# Generated by pormake.
# Topology ecn, (8)-cn, num edge types: 1
# Building blocks:
#     Node 0, Type 0, BuildingBlock: TAGTUT_clean_sbu_1, # of connection points: 8
#     Node 1, Type 0, BuildingBlock: TAGTUT_clean_sbu_1, # of connection points: 8
#     Node 2, Type 0, BuildingBlock: TAGTUT_clean_sbu_1, # of connection points: 8
#     Node 3, Type 0, BuildingBlock: TAGTUT_clean_sbu_1, # of connection points: 8
#     Node 4, Type 0, BuildingBlock: TAGTUT_clean_sbu_1, # of connection points: 8
#     Node 5, Type 0, BuildingBlock: TAGTUT_clean_sbu_1, # of connection points: 8
#     Node 6, Type 0, BuildingBlock: TAGTUT_clean_sbu_1, # of connection points: 8
#     Node 7, Type 0, BuildingBlock: TAGTUT_clean_sbu_1, # of connection points: 8
#     Node 8, Type 0, BuildingBlock: TAGTUT_clean_sbu_1, # of connection points: 8
#     Edge 9, Type (0, 0), BuildingBlock: TEMPAE_clean_linker_10, # of connection points: 2
#     Edge 10, Type (0, 0), BuildingBlock: TEMPAE_clean_linker_10, # of connection points: 2
#     Edge 11, Type (0, 0), BuildingBlock: TEMPAE_clean_linker_10, # of connection points: 2
#     Edge 12, Type (0, 0), BuildingBlock: TEMPAE_clean_linker_10, # of connection points: 2
#     Edge 13, Type (0, 0), BuildingBlock: TEMPAE_clean_linker_10, # of connection points: 2
#     Edge 14, Type (0, 0), BuildingBlock: TEMPAE_clean_linker_10, # of connection points: 2
#     Edge 15, Type (0, 0), BuildingBlock: TEMPAE_clean_linker_10, # of connection points: 2
#     Edge 16, Type (0, 0), BuildingBlock: TEMPAE_clean_linker_10, # of connection points: 2
#     Edge 17, Type (0, 0), BuildingBlock: TEMPAE_clean_linker_10, # of connection points: 2
#     Edge 18, Type (0, 0), BuildingBlock: TEMPAE_clean_linker_10, # of connection points: 2
#     Edge 19, Type (0, 0), BuildingBlock: TEMPAE_clean_linker_10, # of connection points: 2
#     Edge 20, Type (0, 0), BuildingBlock: TEMPAE_clean_linker_10, # of connection points: 2
#     Edge 21, Type (0, 0), BuildingBlock: TEMPAE_clean_linker_10, # of connection points: 2
#     Edge 22, Type (0, 0), BuildingBlock: TEMPAE_clean_linker_10, # of connection points: 2
#     Edge 23, Type (0, 0), BuildingBlock: TEMPAE_clean_linker_10, # of connection points: 2
#     Edge 24, Type (0, 0), BuildingBlock: TEMPAE_clean_linker_10, # of connection points: 2
#     Edge 25, Type (0, 0), BuildingBlock: TEMPAE_clean_linker_10, # of connection points: 2
#     Edge 26, Type (0, 0), BuildingBlock: TEMPAE_clean_linker_10, # of connection points: 2
#     Edge 27, Type (0, 0), BuildingBlock: TEMPAE_clean_linker_10, # of connection points: 2
#     Edge 28, Type (0, 0), BuildingBlock: TEMPAE_clean_linker_10, # of connection points: 2
#     Edge 29, Type (0, 0), BuildingBlock: TEMPAE_clean_linker_10, # of connection points: 2
#     Edge 30, Type (0, 0), BuildingBlock: TEMPAE_clean_linker_10, # of connection points: 2
#     Edge 31, Type (0, 0), BuildingBlock: TEMPAE_clean_linker_10, # of connection points: 2
#     Edge 32, Type (0, 0), BuildingBlock: TEMPAE_clean_linker_10, # of connection points: 2
#     Edge 33, Type (0, 0), BuildingBlock: TEMPAE_clean_linker_10, # of connection points: 2
#     Edge 34, Type (0, 0), BuildingBlock: TEMPAE_clean_linker_10, # of connection points: 2
#     Edge 35, Type (0, 0), BuildingBlock: TEMPAE_clean_linker_10, # of connection points: 2
#     Edge 36, Type (0, 0), BuildingBlock: TEMPAE_clean_linker_10, # of connection points: 2
#     Edge 37, Type (0, 0), BuildingBlock: TEMPAE_clean_linker_10, # of connection points: 2
#     Edge 38, Type (0, 0), BuildingBlock: TEMPAE_clean_linker_10, # of connection points: 2
#     Edge 39, Type (0, 0), BuildingBlock: TEMPAE_clean_linker_10, # of connection points: 2
#     Edge 40, Type (0, 0), BuildingBlock: TEMPAE_clean_linker_10, # of connection points: 2
#     Edge 41, Type (0, 0), BuildingBlock: TEMPAE_clean_linker_10, # of connection points: 2
#     Edge 42, Type (0, 0), BuildingBlock: TEMPAE_clean_linker_10, # of connection points: 2
#     Edge 43, Type (0, 0), BuildingBlock: TEMPAE_clean_linker_10, # of connection points: 2
#     Edge 44, Type (0, 0), BuildingBlock: TEMPAE_clean_linker_10, # of connection points: 2
# Relax obj value: 0.102
# Max RMSD: 0.219
# Mean RMSD: 0.209
data_MOF--net-ecn--node1-TAGTUT_clean_sbu_1--edge1-TEMPAE_clean_linker_10
_symmetry_space_group_name_H-M    P1
_symmetry_Int_Tables_number       1
_symmetry_cell_setting            triclinic
loop_
_symmetry_equiv_pos_as_xyz
'x, y, z'
_cell_length_a     51.93955
_cell_length_b     50.806784
_cell_length_c     14.799084
_cell_angle_alpha  89.863589
_cell_angle_beta   89.865371
_cell_angle_gamma 117.74278
loop_
_atom_site_label
_atom_site_type_symbol
_atom_site_fract_x
_atom_site_fract_y
_atom_site_fract_z
_atom_type_partial_charge
C0 C 0.011 0.19681 0.06607 0.0
C1 C 0.04038 0.14553 0.22543 0.0
C2 C 0.13668 0.25189 0.2818 0.0
Mg3 Mg 0.0527 0.16947 0.03151 0.0
O4 O 0.07958 0.20694 0.07312 0.0
Mg5 Mg 0.0721 0.22112 0.19064 0.0
Mg6 Mg 0.12097 0.21639 0.09186 0.0
O7 O 0.16259 0.22596 0.11053 0.0
Mg8 Mg 0.18937 0.26398 0.14847 0.0
Mg9 Mg 0.17006 0.21284 -0.00955 0.0
C10 C 0.10493 0.18683 0.89298 0.0
C11 C 0.12566 0.15543 0.1091 0.0
O12 O 0.02796 0.21214 0.13017 0.0
O13 O 0.01629 0.17906 0.01711 0.0
O14 O 0.04827 0.17228 0.25207 0.0
O15 O 0.04341 0.1397 0.14352 0.0
O16 O 0.07818 0.16957 0.91364 0.0
O17 O 0.12334 0.20378 0.95097 0.0
C18 C 0.11662 0.27778 0.06618 0.0
O19 O 0.1307 0.26341 0.04721 0.0
O20 O 0.09474 0.26707 0.12044 0.0
O21 O 0.21532 0.22168 0.05076 0.0
O22 O 0.22626 0.25544 0.16201 0.0
O23 O 0.19005 0.26062 0.92623 0.0
C24 C 0.23194 0.2376 0.11496 0.0
O25 O 0.19575 0.29268 0.03665 0.0
O26 O 0.16386 0.26667 0.26168 0.0
C27 C 0.19659 0.28695 0.95326 0.0
O28 O 0.11867 0.23036 0.23298 0.0
O29 O 0.11073 0.16867 0.13124 0.0
O30 O 0.14821 0.1676 0.05808 0.0
C31 C 0.78234 0.78011 0.03633 0.0
C32 C 0.72953 0.8184 0.9133 0.0
C33 C 0.82569 0.91926 0.87822 0.0
Mg34 Mg 0.75307 0.81791 0.10277 0.0
O35 O 0.78939 0.84852 0.06691 0.0
Mg36 Mg 0.803 0.84832 0.9422 0.0
Mg37 Mg 0.79569 0.89033 0.07165 0.0
O38 O 0.8005 0.93172 0.07864 0.0
Mg39 Mg 0.83188 0.96512 0.03226 0.0
Mg40 Mg 0.78971 0.93101 0.20838 0.0
C41 C 0.76996 0.86181 0.26715 0.0
C42 C 0.7331 0.88977 0.08125 0.0
O43 O 0.79783 0.80069 0.97927 0.0
O44 O 0.76356 0.78202 0.08827 0.0
O45 O 0.75562 0.82771 0.88377 0.0
O46 O 0.72373 0.81562 -0.00215 0.0
O47 O 0.75492 0.83501 0.2392 0.0
O48 O 0.78444 0.88355 0.21395 0.0
C49 C 0.85801 0.89013 0.07014 0.0
O50 O 0.84308 0.90205 0.10327 0.0
O51 O 0.8477 0.87012 0.00864 0.0
O52 O 0.79338 0.97752 0.18661 0.0
O53 O 0.81785 0.99842 0.05866 0.0
O54 O 0.84001 0.95485 0.25439 0.0
C55 C 0.80339 0.99881 0.12862 0.0
O56 O 0.86492 0.97234 0.12531 0.0
O57 O 0.83524 0.94641 0.90342 0.0
C58 C 0.86426 0.96838 0.21048 0.0
O59 O 0.80899 0.89698 0.92768 0.0
O60 O 0.74855 0.87929 0.04271 0.0
O61 O 0.74304 0.90831 0.14727 0.0
C62 C 0.2258 0.99387 0.98292 0.0
C63 C 0.1922 0.90509 0.87294 0.0
C64 C 0.09424 0.91336 0.80704 0.0
Mg65 Mg 0.18596 0.92991 0.05433 0.0
O66 O 0.1573 0.93754 0.00506 0.0
Mg67 Mg 0.16141 0.95141 0.87811 0.0
Mg68 Mg 0.11683 0.90428 0.0006 0.0
O69 O 0.076 0.87093 -0.00146 0.0
Mg70 Mg 0.04533 0.87614 0.95291 0.0
Mg71 Mg 0.07342 0.85878 0.12868 0.0
C72 C 0.13857 0.90377 0.20511 0.0
C73 C 0.11662 0.84077 0.01438 0.0
O74 O 0.20766 0.99043 0.91904 0.0
O75 O 0.22106 0.97347 0.04118 0.0
O76 O 0.18355 0.92214 0.83359 0.0
O77 O 0.19191 0.90252 0.95874 0.0
O78 O 0.16568 0.91528 0.18521 0.0
O79 O 0.11904 0.89767 0.14552 0.0
C80 C 0.11623 0.96744 -0.01115 0.0
O81 O 0.10446 0.94123 0.02327 0.0
O82 O 0.13754 0.97632 0.93242 0.0
O83 O 0.02874 0.82022 0.09264 0.0
O84 O 0.0111 0.83038 0.96595 0.0
O85 O 0.0507 0.88696 0.17599 0.0
C86 C 0.00939 0.8127 0.03053 0.0
O87 O 0.03841 0.9028 0.05027 0.0
O88 O 0.06728 0.90005 0.83073 0.0
C89 C 0.04035 0.90237 0.13598 0.0
O90 O 0.11449 0.91254 0.85469 0.0
O91 O 0.12917 0.86685 0.97888 0.0
O92 O 0.09596 0.8331 0.0724 0.0
C93 C 0.68232 0.53487 0.37006 0.0
C94 C 0.7097 0.48341 0.53684 0.0
C95 C 0.80606 0.58251 0.60334 0.0
Mg96 Mg 0.723 0.50616 0.34197 0.0
O97 O 0.75033 0.5437 0.38124 0.0
Mg98 Mg 0.74273 0.55859 0.4982 0.0
Mg99 Mg 0.79143 0.55244 0.40345 0.0
O100 O 0.83259 0.56174 0.42733 0.0
Mg101 Mg 0.85879 0.59967 0.46853 0.0
Mg102 Mg 0.84118 0.5485 0.31001 0.0
C103 C 0.77675 0.51674 0.21455 0.0
C104 C 0.79579 0.49162 0.42795 0.0
O105 O 0.69931 0.55053 0.43373 0.0
O106 O 0.68707 0.51628 0.32345 0.0
O107 O 0.71774 0.51031 0.56188 0.0
O108 O 0.71281 0.47709 0.45566 0.0
O109 O 0.74937 0.50241 0.23265 0.0
O110 O 0.79459 0.53813 0.26411 0.0
C111 C 0.78862 0.61448 0.37374 0.0
O112 O 0.80212 0.59946 0.35612 0.0
O113 O 0.76667 0.60445 0.42765 0.0
O114 O 0.88568 0.55746 0.37555 0.0
O115 O 0.89559 0.5911 0.48641 0.0
O116 O 0.86108 0.5965 0.24647 0.0
C117 C 0.90161 0.57318 0.44115 0.0
O118 O 0.86542 0.62826 0.35678 0.0
O119 O 0.8328 0.60006 0.58382 0.0
C120 C 0.86689 0.62267 0.27356 0.0
O121 O 0.7881 0.56548 0.54438 0.0
O122 O 0.7806 0.50494 0.4457 0.0
O123 O 0.8189 0.50347 0.37912 0.0
C124 C 0.44213 0.11504 0.40485 0.0
C125 C 0.39614 0.15523 0.25289 0.0
C126 C 0.47706 0.2488 0.21168 0.0
Mg127 Mg 0.41582 0.15741 0.44914 0.0
O128 O 0.454 0.1852 0.41872 0.0
Mg129 Mg 0.46819 0.18169 0.29631 0.0
Mg130 Mg 0.46358 0.22799 0.41512 0.0
O131 O 0.47143 0.27054 0.412 0.0
Mg132 Mg 0.5027 0.30092 0.35318 0.0
Mg133 Mg 0.46056 0.27362 0.53714 0.0
C134 C 0.42822 0.20563 0.60146 0.0
C135 C 0.40349 0.23302 0.41188 0.0
O136 O 0.45886 0.13381 0.34521 0.0
O137 O 0.42377 0.11948 0.45193 0.0
O138 O 0.42241 0.16276 0.22942 0.0
O139 O 0.38895 0.1542 0.3358 0.0
O140 O 0.41224 0.1791 0.57234 0.0
O141 O 0.45044 0.22477 0.5578 0.0
C142 C 0.52357 0.22308 0.42483 0.0
O143 O 0.50981 0.2369 0.45292 0.0
O144 O 0.51245 0.2021 0.36654 0.0
O145 O 0.46805 0.32082 0.50567 0.0
O146 O 0.49482 0.33837 0.37931 0.0
O147 O 0.51115 0.29514 0.5761 0.0
C148 C 0.48062 0.34114 0.44608 0.0
O149 O 0.53558 0.30427 0.44396 0.0
O150 O 0.48826 0.27686 0.22654 0.0
C151 C 0.53512 0.30429 0.53052 0.0
O152 O 0.4774 0.23072 0.27095 0.0
O153 O 0.41763 0.22007 0.37939 0.0
O154 O 0.41416 0.25273 0.47472 0.0
C155 C 0.89008 0.31989 0.29852 0.0
C156 C 0.84806 0.22997 0.18416 0.0
C157 C 0.75432 0.2455 0.13815 0.0
Mg158 Mg 0.8479 0.25624 0.36861 0.0
O159 O 0.82067 0.2677 0.32769 0.0
Mg160 Mg 0.82355 0.28141 0.20077 0.0
Mg161 Mg 0.77934 0.23644 0.3284 0.0
O162 O 0.73799 0.20444 0.33212 0.0
Mg163 Mg 0.70795 0.21149 0.29216 0.0
Mg164 Mg 0.73695 0.19205 0.46166 0.0
C165 C 0.80388 0.23397 0.52825 0.0
C166 C 0.77695 0.17198 0.33819 0.0
O167 O 0.8715 0.31823 0.23807 0.0
O168 O 0.88497 0.29843 0.35308 0.0
O169 O 0.84173 0.24941 0.14922 0.0
O170 O 0.8487 0.22675 0.26948 0.0
O171 O 0.83024 0.24269 0.50328 0.0
O172 O 0.78367 0.22963 0.47241 0.0
C173 C 0.78258 0.30126 0.32012 0.0
O174 O 0.76993 0.27519 0.35552 0.0
O175 O 0.80305 0.30877 0.26109 0.0
O176 O 0.69036 0.15494 0.43273 0.0
O177 O 0.6726 0.16684 0.30891 0.0
O178 O 0.71665 0.22205 0.51415 0.0
C179 C 0.67042 0.14901 0.37337 0.0
O180 O 0.70443 0.2395 0.39167 0.0
O181 O 0.72779 0.23313 0.16579 0.0
C182 C 0.707 0.23857 0.47703 0.0
O183 O 0.77511 0.24491 0.18351 0.0
O184 O 0.78853 0.19769 0.30072 0.0
O185 O 0.75759 0.16458 0.40065 0.0
C186 C 0.34518 0.86167 0.69557 0.0
C187 C 0.37291 0.81144 0.86803 0.0
C188 C 0.46674 0.91627 0.93323 0.0
Mg189 Mg 0.38786 0.83498 0.67488 0.0
O190 O 0.41338 0.87348 0.7137 0.0
Mg191 Mg 0.40404 0.88673 0.83075 0.0
Mg192 Mg 0.45435 0.88276 0.73941 0.0
O193 O 0.49519 0.89142 0.76632 0.0
Mg194 Mg 0.52228 0.92781 0.81383 0.0
Mg195 Mg 0.50475 0.87804 0.65057 0.0
C196 C 0.44148 0.85183 0.54319 0.0
C197 C 0.45698 0.8208 0.7608 0.0
O198 O 0.36109 0.87758 0.7608 0.0
O199 O 0.35096 0.84336 0.65117 0.0
O200 O 0.37967 0.83807 0.89272 0.0
O201 O 0.37727 0.80561 0.78766 0.0
O202 O 0.41568 0.83265 0.56747 0.0
O203 O 0.45946 0.87104 0.59803 0.0
C204 C 0.45048 0.94432 0.71388 0.0
O205 O 0.46503 0.93033 0.69572 0.0
O206 O 0.42773 0.93296 0.76436 0.0
O207 O 0.54783 0.88442 0.72216 0.0
O208 O 0.55677 0.91628 0.83788 0.0
O209 O 0.52826 0.92649 0.59148 0.0
C210 C 0.56289 0.89868 0.79122 0.0
O211 O 0.53504 0.95838 0.70427 0.0
O212 O 0.4944 0.93057 0.91979 0.0
C213 C 0.5368 0.95293 0.62115 0.0
O214 O 0.44968 0.8957 0.87996 0.0
O215 O 0.44247 0.83475 0.77905 0.0
O216 O 0.4804 0.83244 0.71379 0.0
C217 C 0.11032 0.44379 0.72603 0.0
C218 C 0.06053 0.48106 0.57983 0.0
C219 C 0.1375 0.57707 0.54549 0.0
Mg220 Mg 0.08083 0.48304 0.77553 0.0
O221 O 0.11847 0.51234 0.74523 0.0
Mg222 Mg 0.13304 0.51073 0.62182 0.0
Mg223 Mg 0.12694 0.55482 0.74782 0.0
O224 O 0.13358 0.59695 0.75113 0.0
Mg225 Mg 0.162 0.62905 0.68925 0.0
Mg226 Mg 0.12386 0.59818 0.87822 0.0
C227 C 0.09252 0.52947 0.9335 0.0
C228 C 0.06629 0.55862 0.7533 0.0
O229 O 0.12627 0.4633 0.66683 0.0
O230 O 0.09134 0.44674 0.77453 0.0
O231 O 0.08706 0.49015 0.55632 0.0
O232 O 0.05314 0.47908 0.66287 0.0
O233 O 0.07677 0.5032 0.90193 0.0
O234 O 0.11451 0.54933 0.89079 0.0
C235 C 0.18817 0.5522 0.75048 0.0
O236 O 0.17381 0.56492 0.7821 0.0
O237 O 0.17739 0.53194 0.69008 0.0
O238 O 0.13082 0.64551 0.85746 0.0
O239 O 0.15167 0.6646 0.72407 0.0
O240 O 0.17483 0.62016 0.9103 0.0
C241 C 0.14059 0.66664 0.7994 0.0
O242 O 0.197 0.63411 0.77425 0.0
O243 O 0.14683 0.60484 0.56233 0.0
C244 C 0.19802 0.63183 0.86035 0.0
O245 O 0.13983 0.55945 0.60249 0.0
O246 O 0.08049 0.54626 0.71719 0.0
O247 O 0.07705 0.57755 0.81829 0.0
C248 C 0.55748 0.6604 0.64122 0.0
C249 C 0.52281 0.57035 0.5379 0.0
C250 C 0.42443 0.57718 0.4727 0.0
Mg251 Mg 0.51806 0.59704 0.71723 0.0
O252 O 0.48895 0.60445 0.66916 0.0
Mg253 Mg 0.49233 0.61694 0.54119 0.0
Mg254 Mg 0.44875 0.57049 0.66594 0.0
O255 O 0.40859 0.53577 0.66586 0.0
Mg256 Mg 0.37686 0.53913 0.62122 0.0
Mg257 Mg 0.40722 0.52397 0.79622 0.0
C258 C 0.47161 0.57107 0.86995 0.0
C259 C 0.45243 0.509 0.68065 0.0
O260 O 0.53872 0.65657 0.57896 0.0
O261 O 0.55336 0.64038 0.70023 0.0
O262 O 0.51429 0.58745 0.49823 0.0
O263 O 0.52311 0.56843 0.6238 0.0
O264 O 0.4987 0.58321 0.84953 0.0
O265 O 0.45186 0.56445 0.81085 0.0
C266 C 0.44697 0.63278 0.65105 0.0
O267 O 0.43535 0.60676 0.68703 0.0
O268 O 0.46827 0.64151 0.5946 0.0
O269 O 0.36288 0.48389 0.76319 0.0
O270 O 0.34356 0.49311 0.63868 0.0
O271 O 0.38274 0.55067 0.84342 0.0
C272 C 0.34277 0.47581 0.70327 0.0
O273 O 0.36963 0.5657 0.7176 0.0
O274 O 0.39762 0.56285 0.49751 0.0
C275 C 0.37173 0.56549 0.80327 0.0
O276 O 0.44539 0.57771 0.52001 0.0
O277 O 0.46237 0.53475 0.64393 0.0
O278 O 0.43226 0.49997 0.74104 0.0
C279 C 0.28497 0.25713 0.14474 0.0
C280 C 0.25691 0.23312 0.14283 0.0
C281 C 0.30825 0.25404 0.18253 0.0
C282 C 0.30305 0.22666 0.22311 0.0
C283 C 0.27476 0.20213 0.21929 0.0
C284 C 0.25211 0.20558 0.17808 0.0
C285 C 0.33827 0.28037 0.1815 0.0
C286 C 0.2678 0.17284 0.26405 0.0
C287 C 0.36934 0.21627 0.27992 0.0
C288 C 0.37567 0.2276 0.36826 0.0
C289 C 0.34527 0.21488 0.23263 0.0
C290 C 0.32678 0.22468 0.275 0.0
C291 C 0.33212 0.23451 0.36588 0.0
C292 C 0.35664 0.23618 0.41097 0.0
C293 C 0.34018 0.2038 0.13642 0.0
C294 C 0.31233 0.24407 0.41483 0.0
H295 H 0.28859 0.27844 0.11769 0.0
H296 H 0.23024 0.18716 0.17802 0.0
H297 H 0.34479 0.28862 0.25135 0.0
H298 H 0.35437 0.27364 0.15532 0.0
H299 H 0.3393 0.29895 0.13925 0.0
H300 H 0.2473 0.15446 0.23785 0.0
H301 H 0.28564 0.16694 0.25448 0.0
H302 H 0.2652 0.17478 0.33781 0.0
H303 H 0.38393 0.20967 0.24599 0.0
H304 H 0.36118 0.24472 0.47933 0.0
H305 H 0.33974 0.221 0.09099 0.0
H306 H 0.31872 0.18377 0.13102 0.0
H307 H 0.35716 0.19801 0.11209 0.0
H308 H 0.31417 0.26478 0.38382 0.0
H309 H 0.31771 0.24823 0.48774 0.0
H310 H 0.28934 0.22677 0.40839 0.0
C311 C 0.7696 0.13556 0.2184 0.0
C312 C 0.78308 0.14905 0.29932 0.0
C313 C 0.77343 0.11219 0.18198 0.0
C314 C 0.79166 0.10267 0.22695 0.0
C315 C 0.80657 0.11744 0.30639 0.0
C316 C 0.80168 0.14025 0.34266 0.0
C317 C 0.75734 0.09711 0.09709 0.0
C318 C 0.82698 0.10865 0.35469 0.0
C319 C 0.77818 0.02299 0.21114 0.0
C320 C 0.79882 0.02498 0.1465 0.0
C321 C 0.77506 0.04797 0.2353 0.0
C322 C 0.79339 0.07583 0.19515 0.0
C323 C 0.81349 0.07781 0.12715 0.0
C324 C 0.81584 0.05227 0.10327 0.0
C325 C 0.7522 0.04453 0.30432 0.0
C326 C 0.83271 0.10651 0.07857 0.0
H327 H 0.75538 0.14278 0.18506 0.0
H328 H 0.81229 0.15112 0.4048 0.0
H329 H 0.77314 0.09924 0.04342 0.0
H330 H 0.74344 0.07302 0.11011 0.0
H331 H 0.74341 0.10675 0.07167 0.0
H332 H 0.842 0.12656 0.4002 0.0
H333 H 0.81414 0.0885 0.39621 0.0
H334 H 0.84007 0.10326 0.30582 0.0
H335 H 0.7645 1.00186 0.24368 0.0
H336 H 0.83163 0.05397 0.05251 0.0
H337 H 0.73839 0.05413 0.27779 0.0
H338 H 0.76282 0.05688 0.36658 0.0
H339 H 0.73796 0.0209 0.32279 0.0
H340 H 0.82431 0.10549 0.00908 0.0
H341 H 0.85507 0.10915 0.07193 0.0
H342 H 0.83374 0.1264 0.11235 0.0
C343 C 0.98854 0.76037 0.08268 0.0
C344 C 0.98483 0.78223 0.03504 0.0
C345 C 0.96511 0.7324 0.0997 0.0
C346 C 0.93709 0.72596 0.06813 0.0
C347 C 0.93353 0.74703 0.01377 0.0
C348 C 0.95755 0.77509 -0.0022 0.0
C349 C 0.97009 0.71058 0.15737 0.0
C350 C 0.9041 0.74081 0.9778 0.0
C351 C 0.88638 0.64543 0.12109 0.0
C352 C 0.87815 0.64812 0.20956 0.0
C353 C 0.90284 0.67089 0.06818 0.0
C354 C 0.91162 0.69943 0.10567 0.0
C355 C 0.90054 0.70198 0.19078 0.0
C356 C 0.88368 0.6763 0.24107 0.0
C357 C 0.91311 0.66724 0.97592 0.0
C358 C 0.90954 0.73184 0.23449 0.0
H359 H 0.00974 0.76547 0.10964 0.0
H360 H 0.95462 0.79183 0.96017 0.0
H361 H 0.95872 0.70748 0.22318 0.0
H362 H 0.96101 0.68858 0.12398 0.0
H363 H 0.99353 0.7182 0.17078 0.0
H364 H 0.90611 0.75519 0.91872 0.0
H365 H 0.89125 0.71716 0.95797 0.0
H366 H 0.89178 0.7454 0.03138 0.0
H367 H 0.88158 0.6237 0.09517 0.0
H368 H 0.87662 0.67862 0.30824 0.0
H369 H 0.93543 0.6697 0.9812 0.0
H370 H 0.91389 0.68454 0.92844 0.0
H371 H 0.89878 0.64493 0.94744 0.0
H372 H 0.93171 0.74011 0.26296 0.0
H373 H 0.89457 0.73033 0.29033 0.0
H374 H 0.91032 0.7485 0.18462 0.0
C375 C 0.76644 0.72628 0.06117 0.0
C376 C 0.78908 0.75542 0.05538 0.0
C377 C 0.77057 0.70374 0.10361 0.0
C378 C 0.79765 0.71081 0.14466 0.0
C379 C 0.82108 0.73987 0.13423 0.0
C380 C 0.8166 0.76176 0.08867 0.0
C381 C 0.74526 0.67285 0.11009 0.0
C382 C 0.8501 0.74868 0.17814 0.0
C383 C 0.78784 0.66311 0.35323 0.0
C384 C 0.79574 0.64196 0.32091 0.0
C385 C 0.79018 0.68671 0.29812 0.0
C386 C 0.79995 0.68886 0.20748 0.0
C387 C 0.80936 0.66844 0.17589 0.0
C388 C 0.80727 0.64535 0.23312 0.0
C389 C 0.78096 0.70863 0.33587 0.0
C390 C 0.81998 0.66984 0.08009 0.0
H391 H 0.74507 0.72144 0.03633 0.0
H392 H 0.83396 0.78447 0.08616 0.0
H393 H 0.75238 0.65594 0.0936 0.0
H394 H 0.73671 0.66857 0.1803 0.0
H395 H 0.72726 0.6699 0.06398 0.0
H396 H 0.86757 0.76933 0.14787 0.0
H397 H 0.8485 0.75264 0.25116 0.0
H398 H 0.85632 0.73066 0.17239 0.0
H399 H 0.77909 0.66077 0.42106 0.0
H400 H 0.81313 0.62892 0.20712 0.0
H401 H 0.76056 0.70541 0.30277 0.0
H402 H 0.7978 0.73175 0.32151 0.0
H403 H 0.77714 0.706 0.41 0.0
H404 H 0.80155 0.66387 0.03283 0.0
H405 H 0.82935 0.6544 0.06896 0.0
H406 H 0.83671 0.69272 0.06278 0.0
C407 C 0.27417 0.02304 0.05412 0.0
C408 C 0.25287 0.02239 -0.00535 0.0
C409 C 0.29811 0.04973 0.07843 0.0
C410 C 0.3015 0.07681 0.04087 0.0
C411 C 0.28118 0.07635 0.97618 0.0
C412 C 0.25688 0.04907 0.95422 0.0
C413 C 0.319 0.04892 0.14818 0.0
C414 C 0.28427 0.10456 0.93276 0.0
C415 C 0.34414 0.13654 0.20875 0.0
C416 C 0.37265 0.14313 0.18443 0.0
C417 C 0.32039 0.11756 0.15575 0.0
C418 C 0.32532 0.10511 0.0762 0.0
C419 C 0.35416 0.11503 0.045 0.0
C420 C 0.37757 0.13387 0.09975 0.0
C421 C 0.28997 0.1083 0.19007 0.0
C422 C 0.36028 0.10336 0.95832 0.0
H423 H 0.2717 1.00257 0.08464 0.0
H424 H 0.24064 0.04885 0.90792 0.0
H425 H 0.34139 0.05899 0.12015 0.0
H426 H 0.3193 0.06213 0.20819 0.0
H427 H 0.31311 0.02595 0.17096 0.0
H428 H 0.27401 0.10006 0.86492 0.0
H429 H 0.27306 0.11406 0.97531 0.0
H430 H 0.30741 0.12148 0.92592 0.0
H431 H 0.34019 0.14444 0.27267 0.0
H432 H 0.39955 0.13938 0.0791 0.0
H433 H 0.27886 0.0841 0.20516 0.0
H434 H 0.27717 0.11249 0.13737 0.0
H435 H 0.28985 0.12038 0.25237 0.0
H436 H 0.38252 0.11809 0.93251 0.0
H437 H 0.34422 0.10111 0.90558 0.0
H438 H 0.35844 0.081 0.97057 0.0
C439 C 0.96136 0.17904 -0.00243 0.0
C440 C 0.98424 0.19964 0.05051 0.0
C441 C 0.9348 0.18003 -0.00823 0.0
C442 C 0.93112 0.20199 0.04063 0.0
C443 C 0.95487 0.22403 0.08884 0.0
C444 C 0.98106 0.2226 0.09296 0.0
C445 C 0.91041 0.1564 0.93796 0.0
C446 C 0.95213 0.24811 0.14142 0.0
C447 C 0.87281 0.22595 0.0432 0.0
C448 C 0.86017 0.21438 0.12755 0.0
C449 C 0.89353 0.21861 0.00565 0.0
C450 C 0.9019 0.19989 0.05475 0.0
C451 C 0.88592 0.18476 0.13246 0.0
C452 C 0.86485 0.19184 0.16708 0.0
C453 C 0.90889 0.23364 0.91943 0.0
C454 C 0.89396 0.16449 0.18686 0.0
H455 H 0.9637 0.1614 0.96351 0.0
H456 H 0.99882 0.23905 0.1323 0.0
H457 H 0.89979 0.13578 0.97914 0.0
H458 H 0.8937 0.16312 0.91827 0.0
H459 H 0.91906 0.15099 0.87594 0.0
H460 H 0.97318 0.26454 0.17074 0.0
H461 H 0.94391 0.26017 0.09715 0.0
H462 H 0.93626 0.23795 0.19743 0.0
H463 H 0.86874 0.24281 0.01081 0.0
H464 H 0.85437 0.18198 0.23071 0.0
H465 H 0.91392 0.21841 0.878 0.0
H466 H 0.92977 0.25337 0.93603 0.0
H467 H 0.8956 0.24122 0.8788 0.0
H468 H 0.87645 0.15053 0.23498 0.0
H469 H 0.91393 0.17817 0.22626 0.0
H470 H 0.89866 0.14978 0.14209 0.0
C471 C 0.91856 0.53961 0.51228 0.0
C472 C 0.92531 0.56742 0.47457 0.0
C473 C 0.93985 0.53475 0.55711 0.0
C474 C 0.96878 0.55805 0.56203 0.0
C475 C 0.9759 0.58574 0.51986 0.0
C476 C 0.95392 0.59031 0.47844 0.0
C477 C 0.93092 0.50529 0.60374 0.0
C478 C 1.00666 0.61079 0.5202 0.0
C479 C 0.02067 0.56426 0.75198 0.0
C480 C 0.03865 0.55411 0.71014 0.0
C481 C 0.99695 0.56418 0.70602 0.0
C482 C 0.99135 0.55431 0.61521 0.0
C483 C 0.0086 0.54277 0.57394 0.0
C484 C 0.03184 0.5426 0.62206 0.0
C485 C 0.97847 0.57564 0.75379 0.0
C486 C 1.00317 0.53155 0.47789 0.0
H487 H 0.89624 0.52209 0.51075 0.0
H488 H 0.95904 0.61184 0.44964 0.0
H489 H 0.94666 0.49678 0.58956 0.0
H490 H 0.93078 0.50839 0.67791 0.0
H491 H 0.90888 0.48822 0.583 0.0
H492 H 0.00913 0.62987 0.47762 0.0
H493 H 0.01316 0.61878 0.59028 0.0
H494 H 0.0219 0.60273 0.49516 0.0
H495 H 0.02556 0.57298 0.82008 0.0
H496 H 0.04554 0.53471 0.58874 0.0
H497 H 0.95506 0.55969 0.74621 0.0
H498 H 0.98208 0.59699 0.72273 0.0
H499 H 0.98359 0.57938 0.82695 0.0
H500 H 0.98159 0.51166 0.47318 0.0
H501 H 0.01989 0.5254 0.45338 0.0
H502 H 1.00285 0.54873 0.43215 0.0
C503 C 0.47257 0.49134 0.55566 0.0
C504 C 0.46237 0.48818 0.64499 0.0
C505 C 0.4789 0.46997 0.51631 0.0
C506 C 0.47504 0.44493 0.56783 0.0
C507 C 0.46626 0.44242 0.65953 0.0
C508 C 0.45972 0.46396 0.69683 0.0
C509 C 0.48847 0.47352 0.4186 0.0
C510 C 0.46278 0.41641 0.71726 0.0
C511 C 0.45389 0.37036 0.45972 0.0
C512 C 0.48033 0.3694 0.46054 0.0
C513 C 0.45229 0.39568 0.48961 0.0
C514 C 0.47758 0.42001 0.52407 0.0
C515 C 0.50456 0.41942 0.52202 0.0
C516 C 0.50566 0.39409 0.4893 0.0
C517 C 0.4233 0.39585 0.48812 0.0
C518 C 0.53181 0.4445 0.56006 0.0
H519 H 0.4743 0.50984 0.51487 0.0
H520 H 0.45205 0.46159 0.76606 0.0
H521 H 0.50975 0.47347 0.41287 0.0
H522 H 0.47253 0.45446 0.37863 0.0
H523 H 0.49059 0.49444 0.38815 0.0
H524 H 0.45868 0.4193 0.78937 0.0
H525 H 0.44427 0.39571 0.69211 0.0
H526 H 0.48259 0.41342 0.71272 0.0
H527 H 0.43435 0.35095 0.43805 0.0
H528 H 0.52595 0.39286 0.49144 0.0
H529 H 0.4256 0.41659 0.45593 0.0
H530 H 0.41552 0.3953 0.55833 0.0
H531 H 0.4065 0.37651 0.45106 0.0
H532 H 0.53325 0.4663 0.54205 0.0
H533 H 0.55172 0.44378 0.53567 0.0
H534 H 0.53116 0.44279 0.63487 0.0
C535 C 0.54107 0.98586 0.48936 0.0
C536 C 0.55368 0.97859 0.56239 0.0
C537 C 0.55691 0.01284 0.44219 0.0
C538 C 0.58587 0.03232 0.46827 0.0
C539 C 0.59889 0.02414 0.53949 0.0
C540 C 0.58251 0.99753 0.58614 0.0
C541 C 0.54248 0.02119 0.36721 0.0
C542 C 0.6298 0.04405 0.569 0.0
C543 C 0.64271 0.09588 0.33203 0.0
C544 C 0.64436 0.12019 0.38062 0.0
C545 C 0.62179 0.06683 0.35437 0.0
C546 C 0.6023 0.06232 0.42692 0.0
C547 C 0.60245 0.08717 0.47077 0.0
C548 C 0.62377 0.11589 0.4476 0.0
C549 C 0.62253 0.04101 0.30643 0.0
C550 C 0.58218 0.08357 0.54848 0.0
H551 H 0.51862 0.97117 0.47185 0.0
H552 H 0.59209 0.99168 0.6428 0.0
H553 H 0.54195 0.04219 0.38426 0.0
H554 H 0.55518 0.0252 0.30375 0.0
H555 H 0.51996 1.00367 0.35491 0.0
H556 H 0.6373 0.03333 0.62084 0.0
H557 H 0.6448 0.05022 0.51018 0.0
H558 H 0.63142 0.06493 0.59768 0.0
H559 H 0.65902 0.09944 0.28089 0.0
H560 H 0.62539 0.13486 0.48544 0.0
H561 H 0.60021 0.02325 0.29238 0.0
H562 H 0.63323 0.03131 0.3505 0.0
H563 H 0.63485 0.04801 0.2418 0.0
H564 H 0.56075 0.06371 0.53994 0.0
H565 H 0.57881 0.10351 0.55594 0.0
H566 H 0.59189 0.08069 0.61205 0.0
C567 C 0.42236 0.06206 0.4529 0.0
C568 C 0.44639 0.0891 0.42958 0.0
C569 C 0.42605 0.03887 0.49236 0.0
C570 C 0.45445 0.04323 0.51218 0.0
C571 C 0.47883 0.07014 0.48575 0.0
C572 C 0.47451 0.09263 0.44365 0.0
C573 C 0.39945 0.01013 0.5161 0.0
C574 C 0.50941 0.07596 0.50708 0.0
C575 C 0.45471 0.99531 0.70949 0.0
C576 C 0.4572 0.97225 0.66531 0.0
C577 C 0.45588 0.01965 0.66089 0.0
C578 C 0.45826 0.02025 0.56537 0.0
C579 C 0.46176 0.99747 0.52084 0.0
C580 C 0.46176 0.97401 0.57157 0.0
C581 C 0.45323 0.04404 0.71147 0.0
C582 C 0.46327 0.99669 0.41919 0.0
H583 H 0.40061 0.05933 0.4422 0.0
H584 H 0.49312 0.11373 0.4272 0.0
H585 H 0.40196 0.99084 0.49136 0.0
H586 H 0.39688 0.00795 0.59059 0.0
H587 H 0.37927 0.009 0.48697 0.0
H588 H 0.526 0.09584 0.47085 0.0
H589 H 0.51318 0.0796 0.58082 0.0
H590 H 0.51256 0.05648 0.48923 0.0
H591 H 0.45116 0.99393 0.78196 0.0
H592 H 0.46323 0.95594 0.53708 0.0
H593 H 0.43175 0.04286 0.69756 0.0
H594 H 0.47017 0.06617 0.68821 0.0
H595 H 0.45535 0.0423 0.78565 0.0
H596 H 0.44178 0.99179 0.39052 0.0
H597 H 0.46906 0.97943 0.39573 0.0
H598 H 0.4794 0.01857 0.39196 0.0
C599 C 0.0088 0.46245 0.53188 0.0
C600 C 0.0373 0.46829 0.51066 0.0
C601 C 0.98527 0.44344 0.47797 0.0
C602 C 0.99037 0.42974 0.4015 0.0
C603 C 0.01935 0.43838 0.37398 0.0
C604 C 0.04252 0.45769 0.42872 0.0
C605 C 0.95479 0.43537 0.50902 0.0
C606 C 0.02588 0.42465 0.29254 0.0
C607 C 0.93705 0.34811 0.37933 0.0
C608 C 0.91749 0.34796 0.3136 0.0
C609 C 0.96091 0.37446 0.40661 0.0
C610 C 0.96615 0.40172 0.36581 0.0
C611 C 0.94758 0.4018 0.29578 0.0
C612 C 0.9233 0.37487 0.27065 0.0
C613 C 0.97984 0.37313 0.48224 0.0
C614 C 0.95328 0.43025 0.24786 0.0
H615 H 1.00464 0.47115 0.59395 0.0
H616 H 0.06449 0.46231 0.41106 0.0
H617 H 0.94465 0.41265 0.53864 0.0
H618 H 0.95456 0.45102 0.56092 0.0
H619 H 0.94118 0.4352 0.45119 0.0
H620 H 0.04826 0.43878 0.26665 0.0
H621 H 0.0241 0.40273 0.31167 0.0
H622 H 0.01012 0.42094 0.23744 0.0
H623 H 0.93322 0.32756 0.41249 0.0
H624 H 0.90855 0.37503 0.21925 0.0
H625 H 0.97932 0.38674 0.54008 0.0
H626 H 1.00275 0.38247 0.45919 0.0
H627 H 0.97274 0.35008 0.50679 0.0
H628 H 0.95737 0.44819 0.29709 0.0
H629 H 0.93491 0.42734 0.20355 0.0
H630 H 0.97314 0.43775 0.20557 0.0
C631 C 0.5488 0.53989 0.53226 0.0
C632 C 0.53663 0.55547 0.48546 0.0
C633 C 0.56893 0.53282 0.49068 0.0
C634 C 0.57608 0.54023 0.3986 0.0
C635 C 0.56086 0.55215 0.34769 0.0
C636 C 0.54153 0.5601 0.39213 0.0
C637 C 0.5852 0.52097 0.54873 0.0
C638 C 0.56689 0.55906 0.24842 0.0
C639 C 0.65584 0.56469 0.37585 0.0
C640 C 0.65577 0.53786 0.35419 0.0
C641 C 0.6299 0.56663 0.38045 0.0
C642 C 0.6032 0.54098 0.36346 0.0
C643 C 0.60325 0.51469 0.33219 0.0
C644 C 0.6297 0.51341 0.32782 0.0
C645 C 0.63095 0.59529 0.41299 0.0
C646 C 0.57525 0.48712 0.31185 0.0
H647 H 0.54457 0.53539 0.60389 0.0
H648 H 0.5317 0.57148 0.35482 0.0
H649 H 0.58729 0.50274 0.51413 0.0
H650 H 0.60751 0.53905 0.56129 0.0
H651 H 0.57441 0.51264 0.61517 0.0
H652 H 0.5481 0.55952 0.21414 0.0
H653 H 0.58601 0.58128 0.24013 0.0
H654 H 0.57191 0.54252 0.21445 0.0
H655 H 0.6761 0.58383 0.39416 0.0
H656 H 0.62963 0.49267 0.31022 0.0
H657 H 0.62205 0.59215 0.48272 0.0
H658 H 0.61737 0.60164 0.36951 0.0
H659 H 0.65347 0.61396 0.41352 0.0
H660 H 0.56531 0.47538 0.37597 0.0
H661 H 0.57906 0.47157 0.26786 0.0
H662 H 0.55939 0.49288 0.27866 0.0
C663 C 0.61461 0.91779 0.8372 0.0
C664 C 0.58725 0.89358 0.82212 0.0
C665 C 0.63729 0.91374 0.87528 0.0
C666 C 0.6321 0.88491 0.90272 0.0
C667 C 0.60448 0.86029 0.88667 0.0
C668 C 0.5825 0.86488 0.84515 0.0
C669 C 0.66666 0.94048 0.88783 0.0
C670 C 0.59766 0.82936 0.91738 0.0
C671 C 0.69956 0.87568 0.94846 0.0
C672 C 0.70473 0.88352 0.04012 0.0
C673 C 0.67532 0.87471 0.90349 0.0
C674 C 0.65533 0.88112 0.95172 0.0
C675 C 0.65926 0.88682 0.0458 0.0
C676 C 0.68413 0.88841 0.08854 0.0
C677 C 0.67233 0.86886 0.80308 0.0
C678 C 0.63784 0.89251 0.10071 0.0
H679 H 0.61821 0.93997 0.81948 0.0
H680 H 0.56113 0.84622 0.8348 0.0
H681 H 0.67117 0.94501 0.96092 0.0
H682 H 0.68402 0.93601 0.85929 0.0
H683 H 0.66795 0.96075 0.85501 0.0
H684 H 0.57611 0.81228 0.89308 0.0
H685 H 0.61457 0.82351 0.89333 0.0
H686 H 0.59773 0.82861 -0.00767 0.0
H687 H 0.71541 0.87201 0.91014 0.0
H688 H 0.68778 0.8942 0.15949 0.0
H689 H 0.67641 0.88961 0.76683 0.0
H690 H 0.64995 0.85184 0.78612 0.0
H691 H 0.68788 0.86126 0.77751 0.0
H692 H 0.63971 0.91451 0.08228 0.0
H693 H 0.64167 0.89233 0.17448 0.0
H694 H 0.61523 0.87549 0.08579 0.0
C695 C 0.13886 0.70065 0.91648 0.0
C696 C 0.14038 0.69464 0.82466 0.0
C697 C 0.13788 0.72645 0.94389 0.0
C698 C 0.13791 0.74659 0.87787 0.0
C699 C 0.14052 0.74134 0.78516 0.0
C700 C 0.14191 0.71539 0.75948 0.0
C701 C 0.13638 0.73194 0.04364 0.0
C702 C 0.14119 0.76279 0.7134 0.0
C703 C 0.0995 0.78984 0.95658 0.0
C704 C 0.12286 0.81742 0.97827 0.0
C705 C 0.10421 0.76713 0.9197 0.0
C706 C 0.13304 0.77185 0.90674 0.0
C707 C 0.15679 0.79965 0.92903 0.0
C708 C 0.15138 0.82243 0.96287 0.0
C709 C 0.07831 0.73787 0.89629 0.0
C710 C 0.18784 0.80532 0.91819 0.0
H711 H 0.13848 0.68512 0.96751 0.0
H712 H 0.14346 0.71101 0.68857 0.0
H713 H 0.15382 0.75436 0.0618 0.0
H714 H 0.11525 0.73134 0.05984 0.0
H715 H 0.1387 0.71517 0.08643 0.0
H716 H 0.14349 0.75561 0.64433 0.0
H717 H 0.12089 0.76492 0.71661 0.0
H718 H 0.15961 0.78516 0.7259 0.0
H719 H 0.0774 0.78617 0.96733 0.0
H720 H 0.16937 0.84375 0.98004 0.0
H721 H 0.07775 0.72004 0.94095 0.0
H722 H 0.08019 0.73166 0.82565 0.0
H723 H 0.05738 0.73864 0.90389 0.0
H724 H 0.20272 0.82365 0.9626 0.0
H725 H 0.19469 0.81161 0.847 0.0
H726 H 0.19033 0.78528 0.93409 0.0
C727 C 0.21769 0.30966 0.80207 0.0
C728 C 0.20841 0.31238 0.88908 0.0
C729 C 0.23511 0.33511 0.75026 0.0
C730 C 0.24346 0.36368 0.7869 0.0
C731 C 0.23126 0.36628 0.86984 0.0
C732 C 0.21373 0.34061 0.91951 0.0
C733 C 0.24668 0.33154 0.66009 0.0
C734 C 0.23935 0.39626 0.91126 0.0
C735 C 0.3209 0.42432 0.76495 0.0
C736 C 0.31782 0.44559 0.71198 0.0
C737 C 0.29708 0.39683 0.78471 0.0
C738 C 0.26928 0.39021 0.75055 0.0
C739 C 0.26625 0.41074 0.69218 0.0
C740 C 0.29063 0.4383 0.67352 0.0
C741 C 0.30144 0.37563 0.8471 0.0
C742 C 0.23707 0.40445 0.65369 0.0
H743 H 0.21304 0.28789 0.77688 0.0
H744 H 0.20582 0.34292 -0.01467 0.0
H745 H 0.27017 0.33803 0.66614 0.0
H746 H 0.23519 0.30826 0.63549 0.0
H747 H 0.24453 0.34642 0.60902 0.0
H748 H 0.22552 0.39454 0.97063 0.0
H749 H 0.26236 0.40656 0.93367 0.0
H750 H 0.23742 0.41138 0.86077 0.0
H751 H 0.34192 0.42952 0.79358 0.0
H752 H 0.28808 0.45457 0.63219 0.0
H753 H 0.29256 0.35325 0.81619 0.0
H754 H 0.2895 0.37329 0.9114 0.0
H755 H 0.32474 0.38333 0.86311 0.0
H756 H 0.22383 0.38053 0.63749 0.0
H757 H 0.23955 0.41782 0.59172 0.0
H758 H 0.22486 0.41037 0.70434 0.0
C759 C 0.11331 0.32515 0.04717 0.0
C760 C 0.12326 0.30551 0.0154 0.0
C761 C 0.11551 0.34901 -0.00634 0.0
C762 C 0.12737 0.35302 0.90529 0.0
C763 C 0.13892 0.33428 0.87469 0.0
C764 C 0.13676 0.31078 0.93012 0.0
C765 C 0.10417 0.36933 0.03065 0.0
C766 C 0.15251 0.33833 0.78207 0.0
C767 C 0.0949 0.39006 0.75303 0.0
C768 C 0.11699 0.41952 0.75133 0.0
C769 C 0.09905 0.3677 0.79655 0.0
C770 C 0.12539 0.37529 0.84328 0.0
C771 C 0.14827 0.40483 0.83789 0.0
C772 C 0.14388 0.42652 0.79093 0.0
C773 C 0.0746 0.33623 0.79678 0.0
C774 C 0.17646 0.41443 0.8881 0.0
H775 H 0.10311 0.32145 0.11322 0.0
H776 H 0.1443 0.29559 0.90451 0.0
H777 H 0.12062 0.39292 0.02116 0.0
H778 H 0.08437 0.36586 -0.00685 0.0
H779 H 0.09859 0.3653 0.10363 0.0
H780 H 0.16089 0.3222 0.76902 0.0
H781 H 0.13624 0.33566 0.72964 0.0
H782 H 0.1708 0.36113 0.77486 0.0
H783 H 0.07403 0.38474 0.72301 0.0
H784 H 0.16076 0.44947 0.79136 0.0
H785 H 0.06481 0.3304 0.86532 0.0
H786 H 0.08305 0.3204 0.77973 0.0
H787 H 0.05722 0.33323 0.748 0.0
H788 H 0.17398 0.42123 0.95744 0.0
H789 H 0.1946 0.43377 0.85449 0.0
H790 H 0.18238 0.39619 0.89409 0.0
C791 C 0.67635 0.79724 0.88069 0.0
C792 C 0.70481 0.80682 0.84876 0.0
C793 C 0.65221 0.77911 0.82772 0.0
C794 C 0.65661 0.77064 0.74024 0.0
C795 C 0.68504 0.78381 0.70303 0.0
C796 C 0.7089 0.8015 0.7581 0.0
C797 C 0.62223 0.76633 0.86935 0.0
C798 C 0.6905 0.77684 0.6081 0.0
C799 C 0.60794 0.68893 0.698 0.0
C800 C 0.58465 0.68894 0.65017 0.0
C801 C 0.63197 0.71543 0.72354 0.0
C802 C 0.63325 0.74301 0.69949 0.0
C803 C 0.61093 0.74333 0.64506 0.0
C804 C 0.58671 0.7162 0.62134 0.0
C805 C 0.65514 0.71372 0.78135 0.0
C806 C 0.61169 0.77212 0.61564 0.0
H807 H 0.67288 0.80207 0.94964 0.0
H808 H 0.73073 0.80923 0.73192 0.0
H809 H 0.6069 0.76873 0.82219 0.0
H810 H 0.61402 0.74222 0.88248 0.0
H811 H 0.62217 0.7773 0.93415 0.0
H812 H 0.7122 0.79342 0.58265 0.0
H813 H 0.68962 0.7546 0.60697 0.0
H814 H 0.67349 0.7762 0.56157 0.0
H815 H 0.60686 0.66798 0.71905 0.0
H816 H 0.56887 0.71643 0.5841 0.0
H817 H 0.65601 0.72399 0.84816 0.0
H818 H 0.67681 0.72628 0.74908 0.0
H819 H 0.65109 0.69048 0.79263 0.0
H820 H 0.60086 0.77925 0.66774 0.0
H821 H 0.59977 0.76927 0.55118 0.0
H822 H 0.63431 0.79012 0.60701 0.0
C823 C 0.321 0.8932 0.67655 0.0
C824 C 0.31917 0.86486 0.6735 0.0
C825 C 0.29589 0.89673 0.68009 0.0
C826 C 0.26832 0.87118 0.68245 0.0
C827 C 0.26635 0.84276 0.66724 0.0
C828 C 0.29199 0.83989 0.66291 0.0
C829 C 0.29912 0.92755 0.69418 0.0
C830 C 0.23737 0.81504 0.66637 0.0
C831 C 0.22387 0.8807 0.86769 0.0
C832 C 0.20701 0.89117 0.82068 0.0
C833 C 0.24242 0.87226 0.82247 0.0
C834 C 0.24395 0.87375 0.72702 0.0
C835 C 0.22529 0.88193 0.67827 0.0
C836 C 0.20723 0.89097 0.72584 0.0
C837 C 0.26183 0.86363 0.87781 0.0
C838 C 0.22554 0.8828 0.57644 0.0
H839 H 0.34215 0.91256 0.68259 0.0
H840 H 0.2906 0.81795 0.65945 0.0
H841 H 0.28293 0.93087 0.6537 0.0
H842 H 0.29521 0.93037 0.76646 0.0
H843 H 0.32124 0.94512 0.6756 0.0
H844 H 0.23843 0.7974 0.62475 0.0
H845 H 0.23148 0.80635 0.73633 0.0
H846 H 0.21987 0.81965 0.64005 0.0
H847 H 0.22392 0.88061 0.94092 0.0
H848 H 0.19409 0.89878 0.68886 0.0
H849 H 0.28499 0.87992 0.86643 0.0
H850 H 0.25891 0.84148 0.8568 0.0
H851 H 0.25727 0.8628 0.95143 0.0
H852 H 0.24308 0.90452 0.55288 0.0
H853 H 0.20459 0.88038 0.5496 0.0
H854 H 0.22975 0.86501 0.54764 0.0
C855 C 0.11002 0.01242 0.96429 0.0
C856 C 0.10677 0.98897 0.02065 0.0
C857 C 0.10575 0.03582 -0.00245 0.0
C858 C 0.0983 0.03584 0.08984 0.0
C859 C 0.09264 0.01099 0.14521 0.0
C860 C 0.09715 0.98782 0.10996 0.0
C861 C 0.11148 0.06165 0.93541 0.0
C862 C 0.08375 0.00973 0.24289 0.0
C863 C 0.1372 0.11558 0.15651 0.0
C864 C 0.11609 0.12446 0.13632 0.0
C865 C 0.13047 0.08558 0.15409 0.0
C866 C 0.10203 0.06416 0.12952 0.0
C867 C 0.07977 0.07268 0.12118 0.0
C868 C 0.08712 0.10298 0.12482 0.0
C869 C 0.15482 0.07747 0.16559 0.0
C870 C 0.04894 0.05026 0.09931 0.0
H871 H 0.11706 0.01305 0.8949 0.0
H872 H 0.09452 0.96956 0.15366 0.0
H873 H 0.09326 0.06726 0.93888 0.0
H874 H 0.13153 0.08155 0.95708 0.0
H875 H 0.11436 0.05686 0.86395 0.0
H876 H 0.07517 0.98694 0.27149 0.0
H877 H 0.10284 0.02491 0.28337 0.0
H878 H 0.06693 0.01723 0.25026 0.0
H879 H 0.15955 0.13233 0.16695 0.0
H880 H 0.07083 0.10991 0.10952 0.0
H881 H 0.1616 0.07327 0.09823 0.0
H882 H 0.14751 0.05688 0.20637 0.0
H883 H 0.17412 0.09555 0.19865 0.0
H884 H 0.04824 0.03959 0.03337 0.0
H885 H 0.03418 0.06052 0.09629 0.0
H886 H 0.0407 0.03252 0.15147 0.0
C887 C 0.99026 0.11628 0.28025 0.0
C888 C 0.01877 0.12022 0.27882 0.0
C889 C 0.96652 0.08821 0.29682 0.0
C890 C 0.97147 0.06363 0.31794 0.0
C891 C 1.00064 0.06867 0.32868 0.0
C892 C 0.02392 0.09662 0.30549 0.0
C893 C 0.93621 0.08454 0.28238 0.0
C894 C 1.00775 0.04447 0.35939 0.0
C895 C 0.89612 0.99693 0.34207 0.0
C896 C 0.89303 0.98441 0.25591 0.0
C897 C 0.92306 0.02057 0.36937 0.0
C898 C 0.94682 0.0327 0.30739 0.0
C899 C 0.94449 0.01757 0.22502 0.0
C900 C 0.91805 0.99314 0.20221 0.0
C901 C 0.92511 0.03328 0.46252 0.0
C902 C 0.9689 0.02861 0.15624 0.0
H903 H 0.9863 0.13448 0.25846 0.0
H904 H 0.04597 0.09954 0.30424 0.0
H905 H 0.92393 0.06608 0.23467 0.0
H906 H 0.92427 0.07905 0.34751 0.0
H907 H 0.9364 0.10504 0.25525 0.0
H908 H 0.02184 0.05217 0.42005 0.0
H909 H 0.98819 0.02333 0.37645 0.0
H910 H 0.02054 0.04029 0.30631 0.0
H911 H 0.87721 0.98988 0.38555 0.0
H912 H 0.91623 0.98263 0.13716 0.0
H913 H 0.91045 0.0436 0.46751 0.0
H914 H 0.94758 0.04996 0.48034 0.0
H915 H 0.91732 0.015 0.51319 0.0
H916 H 0.97718 0.05271 0.14265 0.0
H917 H 0.96211 0.01658 0.09099 0.0
H918 H 0.98709 0.02533 0.1829 0.0
C919 C 0.89777 0.91558 0.18481 0.0
C920 C 0.88733 0.89826 0.10645 0.0
C921 C 0.92529 0.92236 0.22029 0.0
C922 C 0.9425 0.91122 0.17675 0.0
C923 C 0.93174 0.89327 0.09864 0.0
C924 C 0.9045 0.88724 0.06442 0.0
C925 C 0.93599 0.9416 0.30335 0.0
C926 C 0.9491 0.88054 0.04998 0.0
C927 C 0.02157 0.93875 0.14947 0.0
C928 C 0.02384 0.91452 0.18669 0.0
C929 C 0.9961 0.94141 0.16032 0.0
C930 C 0.97238 0.91889 0.20773 0.0
C931 C 0.97684 0.89796 0.25999 0.0
C932 C 1.00289 0.89618 0.24944 0.0
C933 C 0.99272 0.96492 0.10684 0.0
C934 C 0.95243 0.87405 0.31375 0.0
H935 H 0.88434 0.92359 0.21899 0.0
H936 H 0.89664 0.87369 0.0043 0.0
H937 H 0.94562 0.93213 0.35225 0.0
H938 H 0.95334 0.96395 0.28381 0.0
H939 H 0.9183 0.94429 0.33758 0.0
H940 H 0.93695 0.86595 -0.00723 0.0
H941 H 0.96957 0.89883 0.02294 0.0
H942 H 0.95503 0.86733 0.09747 0.0
H943 H 0.03779 0.9531 0.10131 0.0
H944 H 1.0047 0.87761 0.27938 0.0
H945 H 0.98103 0.97436 0.14726 0.0
H946 H 0.97966 0.95478 0.0454 0.0
H947 H 0.01409 0.98312 0.08513 0.0
H948 H 0.93785 0.88228 0.34301 0.0
H949 H 0.961 0.86555 0.36907 0.0
H950 H 0.93925 0.85517 0.26839 0.0
C951 C 0.76439 0.32315 0.43986 0.0
C952 C 0.77463 0.32398 0.35151 0.0
C953 C 0.7607 0.34696 0.47386 0.0
C954 C 0.76775 0.37208 0.41817 0.0
C955 C 0.776 0.37191 0.32684 0.0
C956 C 0.77944 0.34789 0.29485 0.0
C957 C 0.75115 0.34594 0.57072 0.0
C958 C 0.78318 0.39801 0.2643 0.0
C959 C 0.75686 0.43951 0.44487 0.0
C960 C 0.78581 0.46085 0.45772 0.0
C961 C 0.7493 0.40916 0.44387 0.0
C962 C 0.7713 0.40049 0.4564 0.0
C963 C 0.79952 0.42182 0.4831 0.0
C964 C 0.80651 0.4519 0.48258 0.0
C965 C 0.71868 0.38679 0.41976 0.0
C966 C 0.82343 0.41343 0.49995 0.0
H967 H 0.76052 0.30455 0.48382 0.0
H968 H 0.78686 0.34828 0.22605 0.0
H969 H 0.73836 0.32267 0.59493 0.0
H970 H 0.77064 0.35705 0.61421 0.0
H971 H 0.7379 0.3577 0.57936 0.0
H972 H 0.78689 0.39324 0.1936 0.0
H973 H 0.76529 0.40414 0.26455 0.0
H974 H 0.80315 0.41759 0.28809 0.0
H975 H 0.74084 0.44654 0.4264 0.0
H976 H 0.8288 0.46858 0.49446 0.0
H977 H 0.71014 0.3687 0.47084 0.0
H978 H 0.7185 0.37657 0.35342 0.0
H979 H 0.7039 0.39702 0.41618 0.0
H980 H 0.81533 0.39294 0.54163 0.0
H981 H 0.84237 0.43149 0.5345 0.0
H982 H 0.83101 0.40891 0.43439 0.0
C983 C 0.69382 0.43556 0.62168 0.0
C984 C 0.68815 0.45845 0.59104 0.0
C985 C 0.67084 0.40748 0.64512 0.0
C986 C 0.64157 0.40163 0.63106 0.0
C987 C 0.63602 0.42553 0.60571 0.0
C988 C 0.65941 0.45375 0.58867 0.0
C989 C 0.67845 0.38401 0.67957 0.0
C990 C 0.60554 0.42088 0.58735 0.0
C991 C 0.5891 0.32948 0.52137 0.0
C992 C 0.56404 0.32119 0.57451 0.0
C993 C 0.61537 0.3544 0.54275 0.0
C994 C 0.61744 0.3704 0.6231 0.0
C995 C 0.59375 0.35874 0.6851 0.0
C996 C 0.56701 0.33466 0.65919 0.0
C997 C 0.6399 0.36495 0.47455 0.0
C998 C 0.59563 0.37253 0.7765 0.0
H999 H 0.71608 0.43909 0.62313 0.0
H1000 H 0.6551 0.47141 0.56362 0.0
H1001 H 0.6591 0.36291 0.69835 0.0
H1002 H 0.69135 0.37947 0.62776 0.0
H1003 H 0.69258 0.39262 0.7399 0.0
H1004 H 0.59399 0.40189 0.54073 0.0
H1005 H 0.59305 0.4157 0.65142 0.0
H1006 H 0.6054 0.44085 0.55712 0.0
H1007 H 0.58746 0.31826 0.45778 0.0
H1008 H 0.54811 0.32792 0.70252 0.0
H1009 H 0.65821 0.36234 0.50346 0.0
H1010 H 0.64788 0.38882 0.45808 0.0
H1011 H 0.63338 0.35211 0.41061 0.0
H1012 H 0.61815 0.38908 0.79433 0.0
H1013 H 0.58733 0.35483 0.82906 0.0
H1014 H 0.58136 0.38334 0.77815 0.0
C1015 C 0.56955 0.21901 0.42084 0.0
C1016 C 0.55288 0.23095 0.46109 0.0
C1017 C 0.59724 0.22583 0.45302 0.0
C1018 C 0.60884 0.24528 0.52768 0.0
C1019 C 0.59199 0.25706 0.57009 0.0
C1020 C 0.56413 0.24967 0.5363 0.0
C1021 C 0.61426 0.21251 0.40546 0.0
C1022 C 0.60342 0.27765 0.65005 0.0
C1023 C 0.67127 0.23295 0.59609 0.0
C1024 C 0.69128 0.25102 0.53066 0.0
C1025 C 0.645 0.23415 0.60887 0.0
C1026 C 0.63927 0.25404 0.55558 0.0
C1027 C 0.66216 0.2765 0.50523 0.0
C1028 C 0.68804 0.2747 0.49332 0.0
C1029 C 0.62164 0.21067 0.66677 0.0
C1030 C 0.65743 0.29882 0.44982 0.0
H1031 H 0.56106 0.20439 0.36314 0.0
H1032 H 0.5511 0.25841 0.56923 0.0
H1033 H 0.63469 0.23045 0.37693 0.0
H1034 H 0.62026 0.19966 0.45413 0.0
H1035 H 0.60181 0.19742 0.34955 0.0
H1036 H 0.58589 0.28035 0.68532 0.0
H1037 H 0.6141 0.26935 0.69908 0.0
H1038 H 0.62004 0.2999 0.62685 0.0
H1039 H 0.67389 0.21493 0.62669 0.0
H1040 H 0.70367 0.28903 0.44366 0.0
H1041 H 0.60814 0.19108 0.62432 0.0
H1042 H 0.60716 0.21892 0.69671 0.0
H1043 H 0.63127 0.20323 0.72187 0.0
H1044 H 0.67835 0.31763 0.42755 0.0
H1045 H 0.6449 0.30763 0.48875 0.0
H1046 H 0.64467 0.28777 0.38867 0.0
C1047 C 0.46604 0.78045 0.81908 0.0
C1048 C 0.44611 0.78977 0.78882 0.0
C1049 C 0.45897 0.75035 0.81839 0.0
C1050 C 0.43139 0.72937 0.78573 0.0
C1051 C 0.4099 0.73833 0.76728 0.0
C1052 C 0.41764 0.7687 0.76843 0.0
C1053 C 0.48254 0.74179 0.83964 0.0
C1054 C 0.37998 0.71638 0.73567 0.0
C1055 C 0.44251 0.67857 0.62463 0.0
C1056 C 0.43739 0.65443 0.68057 0.0
C1057 C 0.43843 0.70219 0.65652 0.0
C1058 C 0.42871 0.70144 0.74659 0.0
C1059 C 0.42115 0.67597 0.80102 0.0
C1060 C 0.42594 0.65278 0.76759 0.0
C1061 C 0.44669 0.72892 0.5957 0.0
C1062 C 0.40944 0.67388 0.89566 0.0
H1063 H 0.48801 0.79694 0.8358 0.0
H1064 H 0.40239 0.77597 0.74398 0.0
H1065 H 0.47371 0.72084 0.87927 0.0
H1066 H 0.49148 0.73806 0.77552 0.0
H1067 H 0.5007 0.75945 0.87804 0.0
H1068 H 0.36511 0.7265 0.73195 0.0
H1069 H 0.38136 0.70793 0.66773 0.0
H1070 H 0.37058 0.69705 0.78224 0.0
H1071 H 0.45099 0.67963 0.55693 0.0
H1072 H 0.42193 0.63401 0.81097 0.0
H1073 H 0.46578 0.74844 0.62414 0.0
H1074 H 0.42856 0.73463 0.59143 0.0
H1075 H 0.45229 0.72512 0.52611 0.0
H1076 H 0.42624 0.691 0.93912 0.0
H1077 H 0.40271 0.65168 0.92665 0.0
H1078 H 0.39045 0.6783 0.89491 0.0
C1079 C 0.23157 0.66071 -0.0122 0.0
C1080 C 0.22751 0.64854 0.90078 0.0
C1081 C 0.25854 0.68464 0.01286 0.0
C1082 C 0.28134 0.69741 0.94803 0.0
C1083 C 0.27825 0.68267 0.86442 0.0
C1084 C 0.25179 0.65795 0.8434 0.0
C1085 C 0.26159 0.69701 0.10694 0.0
C1086 C 0.3019 0.69425 0.79328 0.0
C1087 C 0.32316 0.78125 0.92485 0.0
C1088 C 0.35186 0.78584 0.92147 0.0
C1089 C 0.2999 0.75279 0.9403 0.0
C1090 C 0.30561 0.72849 0.95822 0.0
C1091 C 0.33498 0.73407 0.96692 0.0
C1092 C 0.35773 0.76245 0.94512 0.0
C1093 C 0.26927 0.74842 0.92805 0.0
C1094 C 0.34285 0.71006 -0.00628 0.0
H1095 H 0.21328 0.6531 0.03411 0.0
H1096 H 0.2493 0.64771 0.7776 0.0
H1097 H 0.28432 0.71332 0.12338 0.0
H1098 H 0.24735 0.70773 0.1147 0.0
H1099 H 0.25396 0.67854 0.15693 0.0
H1100 H 0.32028 0.69073 0.8167 0.0
H1101 H 0.29445 0.68267 0.72756 0.0
H1102 H 0.31009 0.71844 0.78179 0.0
H1103 H 0.31864 0.79928 0.90518 0.0
H1104 H 0.37995 0.76589 0.94225 0.0
H1105 H 0.25746 0.74193 -0.00664 0.0
H1106 H 0.25725 0.73038 0.87885 0.0
H1107 H 0.26882 0.76892 0.90381 0.0
H1108 H 0.32369 0.68879 0.01244 0.0
H1109 H 0.3579 0.7178 0.05219 0.0
H1110 H 0.35485 0.70611 0.9377 0.0
C1111 C 0.33505 0.55994 0.91956 0.0
C1112 C 0.35514 0.57763 0.85379 0.0
C1113 C 0.30911 0.56179 0.93263 0.0
C1114 C 0.30378 0.58196 0.87932 0.0
C1115 C 0.32679 0.60396 0.82823 0.0
C1116 C 0.35214 0.60127 0.81504 0.0
C1117 C 0.2856 0.53881 -0.00869 0.0
C1118 C 0.32263 0.62687 0.774 0.0
C1119 C 0.23406 0.54805 0.74479 0.0
C1120 C 0.2176 0.56012 0.78575 0.0
C1121 C 0.26164 0.55445 0.77676 0.0
C1122 C 0.27346 0.57374 0.85167 0.0
C1123 C 0.25691 0.5858 0.89444 0.0
C1124 C 0.22905 0.57869 0.86117 0.0
C1125 C 0.27831 0.54083 0.7287 0.0
C1126 C 0.26866 0.60654 0.97396 0.0
H1127 H 0.33743 0.54186 0.95077 0.0
H1128 H 0.36764 0.61509 0.7644 0.0
H1129 H 0.27194 0.54784 0.02255 0.0
H1130 H 0.27131 0.51948 0.94906 0.0
H1131 H 0.29501 0.53076 0.04546 0.0
H1132 H 0.30845 0.616 0.71517 0.0
H1133 H 0.31181 0.63699 0.81557 0.0
H1134 H 0.34364 0.6447 0.74829 0.0
H1135 H 0.22543 0.53354 0.68694 0.0
H1136 H 0.21619 0.58749 0.89469 0.0
H1137 H 0.28448 0.52808 0.77724 0.0
H1138 H 0.29864 0.55862 0.69909 0.0
H1139 H 0.26556 0.5256 0.67347 0.0
H1140 H 0.281 0.59939 0.02028 0.0
H1141 H 0.25099 0.60797 0.01264 0.0
H1142 H 0.28381 0.62918 0.94929 0.0
C1143 C 0.10126 0.2243 0.80022 0.0
C1144 C 0.10845 0.20095 0.8058 0.0
C1145 C 0.10399 0.23926 0.71916 0.0
C1146 C 0.11404 0.23036 0.64256 0.0
C1147 C 0.12177 0.20698 0.64828 0.0
C1148 C 0.1188 0.19236 0.73084 0.0
C1149 C 0.09544 0.26388 0.71541 0.0
C1150 C 0.13291 0.1973 0.56717 0.0
C1151 C 0.09896 0.23687 0.40125 0.0
C1152 C 0.12731 0.25596 0.37193 0.0
C1153 C 0.09302 0.23101 0.49307 0.0
C1154 C 0.11603 0.24479 0.55515 0.0
C1155 C 0.14301 0.26819 0.52717 0.0
C1156 C 0.14832 0.27376 0.4349 0.0
C1157 C 0.06348 0.20689 0.52173 0.0
C1158 C 0.16772 0.28421 0.59246 0.0
H1159 H 0.09332 0.23074 0.85979 0.0
H1160 H 0.12443 0.17438 0.73685 0.0
H1161 H 0.11079 0.28269 0.67294 0.0
H1162 H 0.07357 0.25526 0.68461 0.0
H1163 H 0.0945 0.27237 0.78381 0.0
H1164 H 0.13854 0.17927 0.58392 0.0
H1165 H 0.11617 0.18924 0.51334 0.0
H1166 H 0.15255 0.21648 0.53927 0.0
H1167 H 0.08225 0.22394 0.35296 0.0
H1168 H 0.17 0.28952 0.41262 0.0
H1169 H 0.05651 0.21261 0.5864 0.0
H1170 H 0.06467 0.18584 0.53222 0.0
H1171 H 0.0467 0.20293 0.46964 0.0
H1172 H 0.18304 0.30676 0.56707 0.0
H1173 H 0.17997 0.27135 0.60024 0.0
H1174 H 0.1597 0.28628 0.66016 0.0
C1175 C 0.76465 0.86117 0.43368 0.0
C1176 C 0.78178 0.86578 0.35713 0.0
C1177 C 0.77791 0.86882 0.51833 0.0
C1178 C 0.80865 0.88093 0.52419 0.0
C1179 C 0.82557 0.88337 0.44723 0.0
C1180 C 0.81181 0.87575 0.36414 0.0
C1181 C 0.75937 0.86595 0.60028 0.0
C1182 C 0.85829 0.89603 0.45081 0.0
C1183 C 0.83308 0.93316 0.71754 0.0
C1184 C 0.83157 0.91355 0.7862 0.0
C1185 C 0.82888 0.92378 0.62804 0.0
C1186 C 0.82302 0.89427 0.60895 0.0
C1187 C 0.82606 0.87621 0.67611 0.0
C1188 C 0.83066 0.88635 0.76484 0.0
C1189 C 0.8271 0.94405 0.55621 0.0
C1190 C 0.82105 0.84505 0.65648 0.0
H1191 H 0.7414 0.85307 0.42686 0.0
H1192 H 0.82476 0.87858 0.3037 0.0
H1193 H 0.76521 0.85558 0.65726 0.0
H1194 H 0.76344 0.88842 0.62233 0.0
H1195 H 0.73577 0.85253 0.58618 0.0
H1196 H 0.86664 0.88839 0.39271 0.0
H1197 H 0.86845 0.92066 0.4474 0.0
H1198 H 0.86543 0.88988 0.51443 0.0
H1199 H 0.83462 0.95462 0.73423 0.0
H1200 H 0.83154 0.87214 0.81781 0.0
H1201 H 0.80396 0.93639 0.53826 0.0
H1202 H 0.8387 0.94338 0.49397 0.0
H1203 H 0.83648 0.96746 0.57953 0.0
H1204 H 0.83107 0.84416 0.59103 0.0
H1205 H 0.79731 0.83003 0.65161 0.0
H1206 H 0.82996 0.83648 0.71069 0.0
C1207 C 0.13038 0.94036 0.68736 0.0
C1208 C 0.10185 0.92878 0.71983 0.0
C1209 C 0.13634 0.94683 0.59621 0.0
C1210 C 0.11289 0.94046 0.53725 0.0
C1211 C 0.08534 0.93444 0.57148 0.0
C1212 C 0.08001 0.92856 0.66368 0.0
C1213 C 0.16655 0.95497 0.56173 0.0
C1214 C 0.06045 0.92956 0.50971 0.0
C1215 C 0.13572 0.94131 0.29814 0.0
C1216 C 0.13156 0.91213 0.29053 0.0
C1217 C 0.12711 0.95049 0.37569 0.0
C1218 C 0.11491 0.92999 0.44708 0.0
C1219 C 0.1092 0.89989 0.43728 0.0
C1220 C 0.11746 0.89121 0.35769 0.0
C1221 C 0.13241 0.98229 0.38185 0.0
C1222 C 0.09568 0.8772 0.51215 0.0
H1223 H 0.14757 0.9413 0.73006 0.0
H1224 H 0.05812 0.92097 0.68937 0.0
H1225 H 0.16698 0.93474 0.5353 0.0
H1226 H 0.17276 0.97138 0.50587 0.0
H1227 H 0.18307 0.96438 0.61607 0.0
H1228 H 0.0441 0.93417 0.54512 0.0
H1229 H 0.06825 0.94381 0.44848 0.0
H1230 H 0.04949 0.906 0.48755 0.0
H1231 H 0.14559 0.95694 0.24281 0.0
H1232 H 0.11338 0.86842 0.3484 0.0
H1233 H 0.15492 0.99652 0.40564 0.0
H1234 H 0.11717 0.98478 0.42949 0.0
H1235 H 0.13032 0.99074 0.31438 0.0
H1236 H 0.11052 0.88362 0.57107 0.0
H1237 H 0.09121 0.85452 0.4908 0.0
H1238 H 0.07492 0.87633 0.53473 0.0
C1239 C 0.79331 0.5773 0.76658 0.0
C1240 C 0.80267 0.56822 0.69034 0.0
C1241 C 0.79136 0.56316 0.8495 0.0
C1242 C 0.79928 0.5399 0.85446 0.0
C1243 C 0.80869 0.53078 0.77689 0.0
C1244 C 0.81023 0.54513 0.69539 0.0
C1245 C 0.78104 0.57321 0.93174 0.0
C1246 C 0.81793 0.50664 0.77999 0.0
C1247 C 0.81473 0.53269 0.09556 0.0
C1248 C 0.78651 0.51297 0.12458 0.0
C1249 C 0.82056 0.53921 0.00388 0.0
C1250 C 0.79759 0.52539 0.94165 0.0
C1251 C 0.77085 0.50147 0.96904 0.0
C1252 C 0.7657 0.49521 0.06109 0.0
C1253 C 0.84988 0.56384 0.97569 0.0
C1254 C 0.74621 0.48554 0.90337 0.0
H1255 H 0.78769 0.59529 0.7613 0.0
H1256 H 0.81776 0.53858 0.63515 0.0
H1257 H 0.76203 0.55405 0.96256 0.0
H1258 H 0.79852 0.58204 -0.01679 0.0
H1259 H 0.77476 0.5908 0.91534 0.0
H1260 H 0.81932 0.49854 0.71137 0.0
H1261 H 0.8397 0.51557 0.81172 0.0
H1262 H 0.8027 0.48746 0.8215 0.0
H1263 H 0.83133 0.54559 0.14422 0.0
H1264 H 0.74417 0.47897 0.08315 0.0
H1265 H 0.84834 0.58477 0.96702 0.0
H1266 H 0.8569 0.55869 0.91017 0.0
H1267 H 0.86679 0.56772 0.02724 0.0
H1268 H 0.73587 0.49986 0.88814 0.0
H1269 H 0.72931 0.46414 0.93161 0.0
H1270 H 0.75426 0.48108 0.8387 0.0
C1271 C 0.45869 0.21433 0.08185 0.0
C1272 C 0.45842 0.23711 0.13329 0.0
C1273 C 0.44277 0.20565 0.00174 0.0
C1274 C 0.42633 0.22011 0.97465 0.0
C1275 C 0.42255 0.23969 0.03382 0.0
C1276 C 0.43917 0.24846 0.11229 0.0
C1277 C 0.44617 0.18353 0.94152 0.0
C1278 C 0.40333 0.25359 0.0101 0.0
C1279 C 0.44432 0.23917 0.7328 0.0
C1280 C 0.42273 0.21367 0.69188 0.0
C1281 C 0.44394 0.24325 0.82547 0.0
C1282 C 0.42108 0.22143 0.87772 0.0
C1283 C 0.39696 0.19812 0.83519 0.0
C1284 C 0.39814 0.19432 0.74186 0.0
C1285 C 0.46984 0.26906 0.86805 0.0
C1286 C 0.37066 0.17654 0.88807 0.0
H1287 H 0.47268 0.20474 0.10116 0.0
H1288 H 0.43773 0.26486 0.15597 0.0
H1289 H 0.42489 0.16762 0.9127 0.0
H1290 H 0.46095 0.19552 0.88445 0.0
H1291 H 0.45541 0.17082 0.97849 0.0
H1292 H 0.39635 0.26112 0.07157 0.0
H1293 H 0.4155 0.27324 0.96599 0.0
H1294 H 0.38378 0.23766 0.97272 0.0
H1295 H 0.46303 0.25466 0.69422 0.0
H1296 H 0.3807 0.17532 0.7093 0.0
H1297 H 0.48249 0.26059 0.90815 0.0
H1298 H 0.46256 0.28135 0.91454 0.0
H1299 H 0.48464 0.285 0.81687 0.0
H1300 H 0.35847 0.15523 0.85149 0.0
H1301 H 0.35587 0.18651 0.89806 0.0
H1302 H 0.37662 0.17192 0.95588 0.0
C1303 C 0.79227 0.26622 0.62139 0.0
C1304 C 0.79965 0.243 0.61692 0.0
C1305 C 0.78708 0.27578 0.7039 0.0
C1306 C 0.78874 0.26113 0.78271 0.0
C1307 C 0.79785 0.23873 0.77893 0.0
C1308 C 0.80356 0.23006 0.69494 0.0
C1309 C 0.77834 0.30029 0.70509 0.0
C1310 C 0.80006 0.22291 0.86289 0.0
C1311 C 0.78803 0.27994 0.02376 0.0
C1312 C 0.76032 0.25755 0.04692 0.0
C1313 C 0.79689 0.28446 0.9337 0.0
C1314 C 0.77737 0.26598 0.86772 0.0
C1315 C 0.74789 0.24713 0.88937 0.0
C1316 C 0.73959 0.24317 0.97985 0.0
C1317 C 0.82792 0.30634 0.91074 0.0
C1318 C 0.72619 0.22811 0.819 0.0
H1319 H 0.79023 0.27675 0.55979 0.0
H1320 H 0.80994 0.21261 0.68992 0.0
H1321 H 0.75454 0.29049 0.69414 0.0
H1322 H 0.78363 0.31247 0.7701 0.0
H1323 H 0.78925 0.31645 0.64946 0.0
H1324 H 0.80852 0.20691 0.84802 0.0
H1325 H 0.81464 0.23927 0.91284 0.0
H1326 H 0.77828 0.21057 0.89484 0.0
H1327 H 0.80334 0.29248 0.0758 0.0
H1328 H 0.71781 0.22648 -0.00189 0.0
H1329 H 0.82912 0.31753 0.84521 0.0
H1330 H 0.84099 0.29429 0.90437 0.0
H1331 H 0.83786 0.32347 0.96411 0.0
H1332 H 0.72728 0.24159 0.75873 0.0
H1333 H 0.70354 0.21746 0.84544 0.0
H1334 H 0.7315 0.21034 0.79677 0.0
C1335 C 0.43012 0.88425 0.44881 0.0
C1336 C 0.44183 0.86441 0.45517 0.0
C1337 C 0.43011 0.89776 0.36697 0.0
C1338 C 0.44194 0.89092 0.29028 0.0
C1339 C 0.45357 0.87057 0.29634 0.0
C1340 C 0.45342 0.85748 0.37972 0.0
C1341 C 0.41705 0.91881 0.36305 0.0
C1342 C 0.46628 0.8628 0.21499 0.0
C1343 C 0.42749 0.89794 0.04817 0.0
C1344 C 0.45549 0.9191 0.02171 0.0
C1345 C 0.42111 0.89068 0.13926 0.0
C1346 C 0.44321 0.90547 0.20348 0.0
C1347 C 0.46927 0.93072 0.17843 0.0
C1348 C 0.47504 0.93753 0.08692 0.0
C1349 C 0.39254 0.86437 0.16465 0.0
C1350 C 0.49293 0.94768 0.24598 0.0
H1351 H 0.42104 0.88926 0.50853 0.0
H1352 H 0.46235 0.84206 0.38611 0.0
H1353 H 0.4288 0.93729 0.31454 0.0
H1354 H 0.39415 0.90644 0.34036 0.0
H1355 H 0.417 0.92834 0.43052 0.0
H1356 H 0.47362 0.84598 0.23103 0.0
H1357 H 0.44988 0.85397 0.1603 0.0
H1358 H 0.48516 0.88308 0.18858 0.0
H1359 H 0.41178 0.88447 -0.00196 0.0
H1360 H 0.49631 0.95486 0.06677 0.0
H1361 H 0.38393 0.86857 0.22858 0.0
H1362 H 0.39601 0.84461 0.17531 0.0
H1363 H 0.37598 0.85903 0.11084 0.0
H1364 H 0.50743 0.97062 0.22173 0.0
H1365 H 0.50637 0.93614 0.25543 0.0
H1366 H 0.48373 0.94876 0.31267 0.0
C1367 C 0.12069 0.54161 0.41805 0.0
C1368 C 0.11957 0.56466 0.46591 0.0
C1369 C 0.10485 0.53133 0.33835 0.0
C1370 C 0.08786 0.54469 0.30726 0.0
C1371 C 0.08334 0.56467 0.36263 0.0
C1372 C 0.09976 0.57493 0.44118 0.0
C1373 C 0.1089 0.50871 0.28251 0.0
C1374 C 0.06343 0.57729 0.3344 0.0
C1375 C 0.10762 0.56253 0.06593 0.0
C1376 C 0.0866 0.53679 0.02443 0.0
C1377 C 0.10639 0.56696 0.158 0.0
C1378 C 0.08335 0.54507 0.20953 0.0
C1379 C 0.05996 0.52112 0.16634 0.0
C1380 C 0.06196 0.51708 0.07349 0.0
C1381 C 0.13158 0.59341 0.201 0.0
C1382 C 0.0336 0.49878 0.21728 0.0
H1383 H 0.1351 0.53285 0.44012 0.0
H1384 H 0.09762 0.5915 0.48207 0.0
H1385 H 0.08777 0.492 0.25482 0.0
H1386 H 0.12358 0.52008 0.22465 0.0
H1387 H 0.11856 0.497 0.32256 0.0
H1388 H 0.05701 0.58664 0.39292 0.0
H1389 H 0.0747 0.59539 0.28435 0.0
H1390 H 0.04357 0.5599 0.30178 0.0
H1391 H 0.1265 0.57818 0.02838 0.0
H1392 H 0.04502 0.4977 0.04077 0.0
H1393 H 0.14411 0.58565 0.24443 0.0
H1394 H 0.12352 0.6058 0.24429 0.0
H1395 H 0.14672 0.60914 0.15003 0.0
H1396 H 0.02956 0.47595 0.20011 0.0
H1397 H 0.01424 0.50083 0.1948 0.0
H1398 H 0.03544 0.50165 0.29165 0.0
C1399 C 0.40829 0.58919 0.32742 0.0
C1400 C 0.43099 0.5922 0.38477 0.0
C1401 C 0.41354 0.59511 0.23521 0.0
C1402 C 0.4419 0.6041 0.2022 0.0
C1403 C 0.46555 0.61311 0.26205 0.0
C1404 C 0.4597 0.60646 0.35315 0.0
C1405 C 0.38821 0.58726 0.1723 0.0
C1406 C 0.49644 0.62447 0.22874 0.0
C1407 C 0.45242 0.55779 0.02439 0.0
C1408 C 0.46425 0.57873 0.9559 0.0
C1409 C 0.44315 0.56535 0.10407 0.0
C1410 C 0.44556 0.59432 0.1127 0.0
C1411 C 0.45578 0.61475 0.0405 0.0
C1412 C 0.46543 0.60675 0.96279 0.0
C1413 C 0.43191 0.54276 0.17997 0.0
C1414 C 0.45776 0.64533 0.04566 0.0
H1415 H 0.3861 0.57946 0.35224 0.0
H1416 H 0.47749 0.60961 0.39654 0.0
H1417 H 0.39489 0.60163 0.11115 0.0
H1418 H 0.37978 0.56385 0.15008 0.0
H1419 H 0.37021 0.58935 0.2067 0.0
H1420 H 0.51248 0.63569 0.28335 0.0
H1421 H 0.49949 0.60549 0.20399 0.0
H1422 H 0.50112 0.64033 0.17195 0.0
H1423 H 0.45069 0.53583 0.01579 0.0
H1424 H 0.47367 0.62231 0.90662 0.0
H1425 H 0.41025 0.53942 0.20289 0.0
H1426 H 0.44691 0.55095 0.23842 0.0
H1427 H 0.42991 0.52086 0.15953 0.0
H1428 H 0.44182 0.64616 0.09405 0.0
H1429 H 0.45418 0.65265 0.97814 0.0
H1430 H 0.47992 0.66151 0.06785 0.0
loop_
_geom_bond_atom_site_label_1
_geom_bond_atom_site_label_2
_geom_bond_distance
_geom_bond_site_symmetry_2
_ccdc_geom_bond_type
C0 O12 1.241 . S
C0 O13 1.280 1_554 S
C1 O14 1.277 . S
C1 O15 1.245 . S
C2 O26 1.247 . S
C2 O28 1.289 . S
Mg3 O4 1.926 1_556 S
Mg3 O13 1.984 . S
Mg3 O15 1.988 1_556 S
Mg3 O16 2.061 . S
O4 Mg3 1.926 1_554 S
O4 Mg5 1.986 . S
O4 Mg6 1.917 . S
Mg5 O4 1.986 . S
Mg5 O12 2.042 . S
Mg5 O14 2.041 . S
Mg5 O20 2.038 . S
Mg5 O28 2.238 . S
Mg6 O4 1.917 . S
Mg6 O7 1.917 . S
Mg6 O17 2.106 1_554 S
Mg6 O19 2.079 . S
Mg6 O28 2.106 . S
Mg6 O29 2.079 . S
O7 Mg6 1.917 . S
O7 Mg8 1.926 . S
O7 Mg9 1.986 1_554 S
Mg8 O7 1.926 . S
Mg8 O22 1.984 . S
Mg8 O25 1.988 . S
Mg8 O26 2.061 . S
Mg9 O7 1.986 1_556 S
Mg9 O17 2.238 . S
Mg9 O21 2.042 1_556 S
Mg9 O23 2.041 . S
Mg9 O30 2.038 . S
C10 O16 1.247 . S
C10 O17 1.289 . S
C11 O29 1.245 . S
C11 O30 1.274 1_554 S
O12 C0 1.241 . S
O12 Mg5 2.042 . S
O13 C0 1.280 1_556 S
O13 Mg3 1.984 . S
O14 C1 1.277 . S
O14 Mg5 2.041 . S
O15 C1 1.245 . S
O15 Mg3 1.988 1_554 S
O16 Mg3 2.061 . S
O16 C10 1.247 . S
O17 Mg6 2.106 1_556 S
O17 Mg9 2.238 . S
O17 C10 1.289 . S
C18 O19 1.245 . S
C18 O20 1.274 . S
O19 Mg6 2.079 . S
O19 C18 1.245 . S
O20 Mg5 2.038 . S
O20 C18 1.274 . S
O21 Mg9 2.042 1_554 S
O21 C24 1.241 . S
O22 Mg8 1.984 . S
O22 C24 1.280 . S
O23 Mg9 2.041 . S
O23 C27 1.277 . S
C24 O21 1.241 . S
C24 O22 1.280 . S
O25 Mg8 1.988 . S
O25 C27 1.245 1_554 S
O26 C2 1.247 . S
O26 Mg8 2.061 . S
C27 O23 1.277 . S
C27 O25 1.245 1_556 S
O28 C2 1.289 . S
O28 Mg5 2.238 . S
O28 Mg6 2.106 . S
O29 Mg6 2.079 . S
O29 C11 1.245 . S
O30 Mg9 2.038 . S
O30 C11 1.274 1_556 S
C31 O43 1.241 . S
C31 O44 1.280 . S
C32 O45 1.277 . S
C32 O46 1.245 . S
C33 O57 1.247 . S
C33 O59 1.289 . S
Mg34 O35 1.926 . S
Mg34 O44 1.984 . S
Mg34 O46 1.988 . S
Mg34 O47 2.061 . S
O35 Mg34 1.926 . S
O35 Mg36 1.986 . S
O35 Mg37 1.917 . S
Mg36 O35 1.986 . S
Mg36 O43 2.042 . S
Mg36 O45 2.041 . S
Mg36 O51 2.038 . S
Mg36 O59 2.238 1_554 S
Mg37 O35 1.917 . S
Mg37 O38 1.917 . S
Mg37 O48 2.106 . S
Mg37 O50 2.079 . S
Mg37 O59 2.106 1_554 S
Mg37 O60 2.079 . S
O38 Mg37 1.917 . S
O38 Mg39 1.926 . S
O38 Mg40 1.986 . S
Mg39 O38 1.926 . S
Mg39 O53 1.984 . S
Mg39 O56 1.988 . S
Mg39 O57 2.061 1_554 S
Mg40 O38 1.986 . S
Mg40 O48 2.238 . S
Mg40 O52 2.042 . S
Mg40 O54 2.041 . S
Mg40 O61 2.038 . S
C41 O47 1.247 . S
C41 O48 1.289 . S
C42 O60 1.245 . S
C42 O61 1.274 . S
O43 C31 1.241 . S
O43 Mg36 2.042 . S
O44 C31 1.280 . S
O44 Mg34 1.984 . S
O45 C32 1.277 . S
O45 Mg36 2.041 . S
O46 C32 1.245 . S
O46 Mg34 1.988 . S
O47 Mg34 2.061 . S
O47 C41 1.247 . S
O48 Mg37 2.106 . S
O48 Mg40 2.238 . S
O48 C41 1.289 . S
C49 O50 1.245 . S
C49 O51 1.274 . S
O50 Mg37 2.079 . S
O50 C49 1.245 . S
O51 Mg36 2.038 . S
O51 C49 1.274 . S
O52 Mg40 2.042 . S
O52 C55 1.241 . S
O53 Mg39 1.984 . S
O53 C55 1.280 . S
O54 Mg40 2.041 . S
O54 C58 1.277 . S
C55 O52 1.241 . S
C55 O53 1.280 . S
O56 Mg39 1.988 . S
O56 C58 1.245 . S
O57 C33 1.247 . S
O57 Mg39 2.061 1_556 S
C58 O54 1.277 . S
C58 O56 1.245 . S
O59 C33 1.289 . S
O59 Mg36 2.238 1_556 S
O59 Mg37 2.106 1_556 S
O60 Mg37 2.079 . S
O60 C42 1.245 . S
O61 Mg40 2.038 . S
O61 C42 1.274 . S
C62 O74 1.241 1_554 S
C62 O75 1.280 . S
C63 O76 1.277 . S
C63 O77 1.245 1_556 S
C64 O88 1.247 . S
C64 O90 1.289 . S
Mg65 O66 1.926 . S
Mg65 O75 1.984 . S
Mg65 O77 1.988 . S
Mg65 O78 2.061 . S
O66 Mg65 1.926 . S
O66 Mg67 1.986 1_554 S
O66 Mg68 1.917 . S
Mg67 O66 1.986 1_556 S
Mg67 O74 2.042 . S
Mg67 O76 2.041 . S
Mg67 O82 2.038 . S
Mg67 O90 2.238 . S
Mg68 O66 1.917 . S
Mg68 O69 1.917 1_554 S
Mg68 O79 2.106 . S
Mg68 O81 2.079 . S
Mg68 O90 2.106 1_554 S
Mg68 O91 2.079 1_554 S
O69 Mg68 1.917 1_556 S
O69 Mg70 1.926 . S
O69 Mg71 1.986 1_556 S
Mg70 O69 1.926 . S
Mg70 O84 1.984 . S
Mg70 O87 1.988 . S
Mg70 O88 2.061 . S
Mg71 O69 1.986 1_554 S
Mg71 O79 2.238 . S
Mg71 O83 2.042 . S
Mg71 O85 2.041 . S
Mg71 O92 2.038 . S
C72 O78 1.247 . S
C72 O79 1.289 . S
C73 O91 1.245 1_554 S
C73 O92 1.274 . S
O74 C62 1.241 1_556 S
O74 Mg67 2.042 . S
O75 C62 1.280 . S
O75 Mg65 1.984 . S
O76 C63 1.277 . S
O76 Mg67 2.041 . S
O77 C63 1.245 1_554 S
O77 Mg65 1.988 . S
O78 Mg65 2.061 . S
O78 C72 1.247 . S
O79 Mg68 2.106 . S
O79 Mg71 2.238 . S
O79 C72 1.289 . S
C80 O81 1.245 1_556 S
C80 O82 1.274 . S
O81 Mg68 2.079 . S
O81 C80 1.245 1_554 S
O82 Mg67 2.038 . S
O82 C80 1.274 . S
O83 Mg71 2.042 . S
O83 C86 1.241 1_554 S
O84 Mg70 1.984 . S
O84 C86 1.280 . S
O85 Mg71 2.041 . S
O85 C89 1.277 . S
C86 O83 1.241 1_556 S
C86 O84 1.280 . S
O87 Mg70 1.988 . S
O87 C89 1.245 1_556 S
O88 C64 1.247 . S
O88 Mg70 2.061 . S
C89 O85 1.277 . S
C89 O87 1.245 1_554 S
O90 C64 1.289 . S
O90 Mg67 2.238 . S
O90 Mg68 2.106 1_556 S
O91 Mg68 2.079 1_556 S
O91 C73 1.245 1_556 S
O92 Mg71 2.038 . S
O92 C73 1.274 . S
C93 O105 1.241 . S
C93 O106 1.280 . S
C94 O107 1.277 . S
C94 O108 1.245 . S
C95 O119 1.247 . S
C95 O121 1.289 . S
Mg96 O97 1.926 . S
Mg96 O106 1.984 . S
Mg96 O108 1.988 . S
Mg96 O109 2.061 . S
O97 Mg96 1.926 . S
O97 Mg98 1.986 . S
O97 Mg99 1.917 . S
Mg98 O97 1.986 . S
Mg98 O105 2.042 . S
Mg98 O107 2.041 . S
Mg98 O113 2.038 . S
Mg98 O121 2.238 . S
Mg99 O97 1.917 . S
Mg99 O100 1.917 . S
Mg99 O110 2.106 . S
Mg99 O112 2.079 . S
Mg99 O121 2.106 . S
Mg99 O122 2.079 . S
O100 Mg99 1.917 . S
O100 Mg101 1.926 . S
O100 Mg102 1.986 . S
Mg101 O100 1.926 . S
Mg101 O115 1.984 . S
Mg101 O118 1.988 . S
Mg101 O119 2.061 . S
Mg102 O100 1.986 . S
Mg102 O110 2.238 . S
Mg102 O114 2.042 . S
Mg102 O116 2.041 . S
Mg102 O123 2.038 . S
C103 O109 1.247 . S
C103 O110 1.289 . S
C104 O122 1.245 . S
C104 O123 1.274 . S
O105 C93 1.241 . S
O105 Mg98 2.042 . S
O106 C93 1.280 . S
O106 Mg96 1.984 . S
O107 C94 1.277 . S
O107 Mg98 2.041 . S
O108 C94 1.245 . S
O108 Mg96 1.988 . S
O109 Mg96 2.061 . S
O109 C103 1.247 . S
O110 Mg99 2.106 . S
O110 Mg102 2.238 . S
O110 C103 1.289 . S
C111 O112 1.245 . S
C111 O113 1.274 . S
O112 Mg99 2.079 . S
O112 C111 1.245 . S
O113 Mg98 2.038 . S
O113 C111 1.274 . S
O114 Mg102 2.042 . S
O114 C117 1.241 . S
O115 Mg101 1.984 . S
O115 C117 1.280 . S
O116 Mg102 2.041 . S
O116 C120 1.277 . S
C117 O114 1.241 . S
C117 O115 1.280 . S
O118 Mg101 1.988 . S
O118 C120 1.245 . S
O119 C95 1.247 . S
O119 Mg101 2.061 . S
C120 O116 1.277 . S
C120 O118 1.245 . S
O121 C95 1.289 . S
O121 Mg98 2.238 . S
O121 Mg99 2.106 . S
O122 Mg99 2.079 . S
O122 C104 1.245 . S
O123 Mg102 2.038 . S
O123 C104 1.274 . S
C124 O136 1.241 . S
C124 O137 1.280 . S
C125 O138 1.277 . S
C125 O139 1.245 . S
C126 O150 1.247 . S
C126 O152 1.289 . S
Mg127 O128 1.926 . S
Mg127 O137 1.984 . S
Mg127 O139 1.988 . S
Mg127 O140 2.061 . S
O128 Mg127 1.926 . S
O128 Mg129 1.986 . S
O128 Mg130 1.917 . S
Mg129 O128 1.986 . S
Mg129 O136 2.042 . S
Mg129 O138 2.041 . S
Mg129 O144 2.038 . S
Mg129 O152 2.238 . S
Mg130 O128 1.917 . S
Mg130 O131 1.917 . S
Mg130 O141 2.106 . S
Mg130 O143 2.079 . S
Mg130 O152 2.106 . S
Mg130 O153 2.079 . S
O131 Mg130 1.917 . S
O131 Mg132 1.926 . S
O131 Mg133 1.986 . S
Mg132 O131 1.926 . S
Mg132 O146 1.984 . S
Mg132 O149 1.988 . S
Mg132 O150 2.061 . S
Mg133 O131 1.986 . S
Mg133 O141 2.238 . S
Mg133 O145 2.042 . S
Mg133 O147 2.041 . S
Mg133 O154 2.038 . S
C134 O140 1.247 . S
C134 O141 1.289 . S
C135 O153 1.245 . S
C135 O154 1.274 . S
O136 C124 1.241 . S
O136 Mg129 2.042 . S
O137 C124 1.280 . S
O137 Mg127 1.984 . S
O138 C125 1.277 . S
O138 Mg129 2.041 . S
O139 C125 1.245 . S
O139 Mg127 1.988 . S
O140 Mg127 2.061 . S
O140 C134 1.247 . S
O141 Mg130 2.106 . S
O141 Mg133 2.238 . S
O141 C134 1.289 . S
C142 O143 1.245 . S
C142 O144 1.274 . S
O143 Mg130 2.079 . S
O143 C142 1.245 . S
O144 Mg129 2.038 . S
O144 C142 1.274 . S
O145 Mg133 2.042 . S
O145 C148 1.241 . S
O146 Mg132 1.984 . S
O146 C148 1.280 . S
O147 Mg133 2.041 . S
O147 C151 1.277 . S
C148 O145 1.241 . S
C148 O146 1.280 . S
O149 Mg132 1.988 . S
O149 C151 1.245 . S
O150 C126 1.247 . S
O150 Mg132 2.061 . S
C151 O147 1.277 . S
C151 O149 1.245 . S
O152 C126 1.289 . S
O152 Mg129 2.238 . S
O152 Mg130 2.106 . S
O153 Mg130 2.079 . S
O153 C135 1.245 . S
O154 Mg133 2.038 . S
O154 C135 1.274 . S
C155 O167 1.241 . S
C155 O168 1.280 . S
C156 O169 1.277 . S
C156 O170 1.245 . S
C157 O181 1.247 . S
C157 O183 1.289 . S
Mg158 O159 1.926 . S
Mg158 O168 1.984 . S
Mg158 O170 1.988 . S
Mg158 O171 2.061 . S
O159 Mg158 1.926 . S
O159 Mg160 1.986 . S
O159 Mg161 1.917 . S
Mg160 O159 1.986 . S
Mg160 O167 2.042 . S
Mg160 O169 2.041 . S
Mg160 O175 2.038 . S
Mg160 O183 2.238 . S
Mg161 O159 1.917 . S
Mg161 O162 1.917 . S
Mg161 O172 2.106 . S
Mg161 O174 2.079 . S
Mg161 O183 2.106 . S
Mg161 O184 2.079 . S
O162 Mg161 1.917 . S
O162 Mg163 1.926 . S
O162 Mg164 1.986 . S
Mg163 O162 1.926 . S
Mg163 O177 1.984 . S
Mg163 O180 1.988 . S
Mg163 O181 2.061 . S
Mg164 O162 1.986 . S
Mg164 O172 2.238 . S
Mg164 O176 2.042 . S
Mg164 O178 2.041 . S
Mg164 O185 2.038 . S
C165 O171 1.247 . S
C165 O172 1.289 . S
C166 O184 1.245 . S
C166 O185 1.274 . S
O167 C155 1.241 . S
O167 Mg160 2.042 . S
O168 C155 1.280 . S
O168 Mg158 1.984 . S
O169 C156 1.277 . S
O169 Mg160 2.041 . S
O170 C156 1.245 . S
O170 Mg158 1.988 . S
O171 Mg158 2.061 . S
O171 C165 1.247 . S
O172 Mg161 2.106 . S
O172 Mg164 2.238 . S
O172 C165 1.289 . S
C173 O174 1.245 . S
C173 O175 1.274 . S
O174 Mg161 2.079 . S
O174 C173 1.245 . S
O175 Mg160 2.038 . S
O175 C173 1.274 . S
O176 Mg164 2.042 . S
O176 C179 1.241 . S
O177 Mg163 1.984 . S
O177 C179 1.280 . S
O178 Mg164 2.041 . S
O178 C182 1.277 . S
C179 O176 1.241 . S
C179 O177 1.280 . S
O180 Mg163 1.988 . S
O180 C182 1.245 . S
O181 C157 1.247 . S
O181 Mg163 2.061 . S
C182 O178 1.277 . S
C182 O180 1.245 . S
O183 C157 1.289 . S
O183 Mg160 2.238 . S
O183 Mg161 2.106 . S
O184 Mg161 2.079 . S
O184 C166 1.245 . S
O185 Mg164 2.038 . S
O185 C166 1.274 . S
C186 O198 1.241 . S
C186 O199 1.280 . S
C187 O200 1.277 . S
C187 O201 1.245 . S
C188 O212 1.247 . S
C188 O214 1.289 . S
Mg189 O190 1.926 . S
Mg189 O199 1.984 . S
Mg189 O201 1.988 . S
Mg189 O202 2.061 . S
O190 Mg189 1.926 . S
O190 Mg191 1.986 . S
O190 Mg192 1.917 . S
Mg191 O190 1.986 . S
Mg191 O198 2.042 . S
Mg191 O200 2.041 . S
Mg191 O206 2.038 . S
Mg191 O214 2.238 . S
Mg192 O190 1.917 . S
Mg192 O193 1.917 . S
Mg192 O203 2.106 . S
Mg192 O205 2.079 . S
Mg192 O214 2.106 . S
Mg192 O215 2.079 . S
O193 Mg192 1.917 . S
O193 Mg194 1.926 . S
O193 Mg195 1.986 . S
Mg194 O193 1.926 . S
Mg194 O208 1.984 . S
Mg194 O211 1.988 . S
Mg194 O212 2.061 . S
Mg195 O193 1.986 . S
Mg195 O203 2.238 . S
Mg195 O207 2.042 . S
Mg195 O209 2.041 . S
Mg195 O216 2.038 . S
C196 O202 1.247 . S
C196 O203 1.289 . S
C197 O215 1.245 . S
C197 O216 1.274 . S
O198 C186 1.241 . S
O198 Mg191 2.042 . S
O199 C186 1.280 . S
O199 Mg189 1.984 . S
O200 C187 1.277 . S
O200 Mg191 2.041 . S
O201 C187 1.245 . S
O201 Mg189 1.988 . S
O202 Mg189 2.061 . S
O202 C196 1.247 . S
O203 Mg192 2.106 . S
O203 Mg195 2.238 . S
O203 C196 1.289 . S
C204 O205 1.245 . S
C204 O206 1.274 . S
O205 Mg192 2.079 . S
O205 C204 1.245 . S
O206 Mg191 2.038 . S
O206 C204 1.274 . S
O207 Mg195 2.042 . S
O207 C210 1.241 . S
O208 Mg194 1.984 . S
O208 C210 1.280 . S
O209 Mg195 2.041 . S
O209 C213 1.277 . S
C210 O207 1.241 . S
C210 O208 1.280 . S
O211 Mg194 1.988 . S
O211 C213 1.245 . S
O212 C188 1.247 . S
O212 Mg194 2.061 . S
C213 O209 1.277 . S
C213 O211 1.245 . S
O214 C188 1.289 . S
O214 Mg191 2.238 . S
O214 Mg192 2.106 . S
O215 Mg192 2.079 . S
O215 C197 1.245 . S
O216 Mg195 2.038 . S
O216 C197 1.274 . S
C217 O229 1.241 . S
C217 O230 1.280 . S
C218 O231 1.277 . S
C218 O232 1.245 . S
C219 O243 1.247 . S
C219 O245 1.289 . S
Mg220 O221 1.926 . S
Mg220 O230 1.984 . S
Mg220 O232 1.988 . S
Mg220 O233 2.061 1_556 S
O221 Mg220 1.926 . S
O221 Mg222 1.986 . S
O221 Mg223 1.917 . S
Mg222 O221 1.986 . S
Mg222 O229 2.042 . S
Mg222 O231 2.041 . S
Mg222 O237 2.038 . S
Mg222 O245 2.238 . S
Mg223 O221 1.917 . S
Mg223 O224 1.917 . S
Mg223 O234 2.106 . S
Mg223 O236 2.079 . S
Mg223 O245 2.106 . S
Mg223 O246 2.079 . S
O224 Mg223 1.917 . S
O224 Mg225 1.926 . S
O224 Mg226 1.986 . S
Mg225 O224 1.926 . S
Mg225 O239 1.984 . S
Mg225 O242 1.988 . S
Mg225 O243 2.061 . S
Mg226 O224 1.986 . S
Mg226 O234 2.238 . S
Mg226 O238 2.042 . S
Mg226 O240 2.041 . S
Mg226 O247 2.038 . S
C227 O233 1.247 . S
C227 O234 1.289 1_554 S
C228 O246 1.245 . S
C228 O247 1.274 . S
O229 C217 1.241 . S
O229 Mg222 2.042 . S
O230 C217 1.280 . S
O230 Mg220 1.984 . S
O231 C218 1.277 . S
O231 Mg222 2.041 . S
O232 C218 1.245 . S
O232 Mg220 1.988 . S
O233 Mg220 2.061 1_554 S
O233 C227 1.247 . S
O234 Mg223 2.106 . S
O234 Mg226 2.238 . S
O234 C227 1.289 1_556 S
C235 O236 1.245 . S
C235 O237 1.274 . S
O236 Mg223 2.079 . S
O236 C235 1.245 . S
O237 Mg222 2.038 . S
O237 C235 1.274 . S
O238 Mg226 2.042 . S
O238 C241 1.241 . S
O239 Mg225 1.984 . S
O239 C241 1.280 . S
O240 Mg226 2.041 . S
O240 C244 1.277 . S
C241 O238 1.241 . S
C241 O239 1.280 . S
O242 Mg225 1.988 . S
O242 C244 1.245 . S
O243 C219 1.247 . S
O243 Mg225 2.061 . S
C244 O240 1.277 . S
C244 O242 1.245 . S
O245 C219 1.289 . S
O245 Mg222 2.238 . S
O245 Mg223 2.106 . S
O246 Mg223 2.079 . S
O246 C228 1.245 . S
O247 Mg226 2.038 . S
O247 C228 1.274 . S
C248 O260 1.241 . S
C248 O261 1.280 . S
C249 O262 1.277 . S
C249 O263 1.245 . S
C250 O274 1.247 . S
C250 O276 1.289 . S
Mg251 O252 1.926 . S
Mg251 O261 1.984 . S
Mg251 O263 1.988 . S
Mg251 O264 2.061 . S
O252 Mg251 1.926 . S
O252 Mg253 1.986 . S
O252 Mg254 1.917 . S
Mg253 O252 1.986 . S
Mg253 O260 2.042 . S
Mg253 O262 2.041 . S
Mg253 O268 2.038 . S
Mg253 O276 2.238 . S
Mg254 O252 1.917 . S
Mg254 O255 1.917 . S
Mg254 O265 2.106 . S
Mg254 O267 2.079 . S
Mg254 O276 2.106 . S
Mg254 O277 2.079 . S
O255 Mg254 1.917 . S
O255 Mg256 1.926 . S
O255 Mg257 1.986 . S
Mg256 O255 1.926 . S
Mg256 O270 1.984 . S
Mg256 O273 1.988 . S
Mg256 O274 2.061 . S
Mg257 O255 1.986 . S
Mg257 O265 2.238 . S
Mg257 O269 2.042 . S
Mg257 O271 2.041 . S
Mg257 O278 2.038 . S
C258 O264 1.247 . S
C258 O265 1.289 . S
C259 O277 1.245 . S
C259 O278 1.274 . S
O260 C248 1.241 . S
O260 Mg253 2.042 . S
O261 C248 1.280 . S
O261 Mg251 1.984 . S
O262 C249 1.277 . S
O262 Mg253 2.041 . S
O263 C249 1.245 . S
O263 Mg251 1.988 . S
O264 Mg251 2.061 . S
O264 C258 1.247 . S
O265 Mg254 2.106 . S
O265 Mg257 2.238 . S
O265 C258 1.289 . S
C266 O267 1.245 . S
C266 O268 1.274 . S
O267 Mg254 2.079 . S
O267 C266 1.245 . S
O268 Mg253 2.038 . S
O268 C266 1.274 . S
O269 Mg257 2.042 . S
O269 C272 1.241 . S
O270 Mg256 1.984 . S
O270 C272 1.280 . S
O271 Mg257 2.041 . S
O271 C275 1.277 . S
C272 O269 1.241 . S
C272 O270 1.280 . S
O273 Mg256 1.988 . S
O273 C275 1.245 . S
O274 C250 1.247 . S
O274 Mg256 2.061 . S
C275 O271 1.277 . S
C275 O273 1.245 . S
O276 C250 1.289 . S
O276 Mg253 2.238 . S
O276 Mg254 2.106 . S
O277 Mg254 2.079 . S
O277 C259 1.245 . S
O278 Mg257 2.038 . S
O278 C259 1.274 . S
C279 C280 1.391 . S
C279 C281 1.394 . S
C279 H295 0.931 . S
C280 C279 1.391 . S
C280 C284 1.376 . S
C281 C279 1.394 . S
C281 C282 1.369 . S
C281 C285 1.531 . S
C282 C281 1.369 . S
C282 C283 1.410 . S
C282 C290 1.503 . S
C283 C282 1.410 . S
C283 C284 1.392 . S
C283 C286 1.511 . S
C284 C280 1.376 . S
C284 C283 1.392 . S
C284 H296 0.929 . S
C285 C281 1.531 . S
C285 H297 0.960 . S
C285 H298 0.962 . S
C285 H299 0.960 . S
C286 C283 1.511 . S
C286 H300 0.961 . S
C286 H301 0.961 . S
C286 H302 0.961 . S
C287 C288 1.370 . S
C287 C289 1.363 . S
C287 H303 0.931 . S
C288 C287 1.370 . S
C288 C292 1.408 . S
C289 C287 1.363 . S
C289 C290 1.370 . S
C289 C293 1.524 . S
C290 C282 1.503 . S
C290 C289 1.370 . S
C290 C291 1.403 . S
C291 C290 1.403 . S
C291 C292 1.404 . S
C291 C294 1.539 . S
C292 C288 1.408 . S
C292 C291 1.404 . S
C292 H304 0.930 . S
C293 C289 1.524 . S
C293 H305 0.956 . S
C293 H306 0.961 . S
C293 H307 0.961 . S
C294 C291 1.539 . S
C294 H308 0.958 . S
C294 H309 0.961 . S
C294 H310 0.960 . S
H295 C279 0.931 . S
H296 C284 0.929 . S
H297 C285 0.960 . S
H298 C285 0.962 . S
H299 C285 0.960 . S
H300 C286 0.961 . S
H301 C286 0.961 . S
H302 C286 0.961 . S
H303 C287 0.931 . S
H304 C292 0.930 . S
H305 C293 0.956 . S
H306 C293 0.961 . S
H307 C293 0.961 . S
H308 C294 0.958 . S
H309 C294 0.961 . S
H310 C294 0.960 . S
C311 C312 1.391 . S
C311 C313 1.394 . S
C311 H327 0.931 . S
C312 C311 1.391 . S
C312 C316 1.376 . S
C313 C311 1.394 . S
C313 C314 1.369 . S
C313 C317 1.531 . S
C314 C313 1.369 . S
C314 C315 1.410 . S
C314 C322 1.503 . S
C315 C314 1.410 . S
C315 C316 1.392 . S
C315 C318 1.511 . S
C316 C312 1.376 . S
C316 C315 1.392 . S
C316 H328 0.929 . S
C317 C313 1.531 . S
C317 H329 0.960 . S
C317 H330 0.962 . S
C317 H331 0.960 . S
C318 C315 1.511 . S
C318 H332 0.961 . S
C318 H333 0.961 . S
C318 H334 0.961 . S
C319 C320 1.370 . S
C319 C321 1.363 . S
C319 H335 0.934 1_545 S
C320 C319 1.370 . S
C320 C324 1.408 . S
C321 C319 1.363 . S
C321 C322 1.370 . S
C321 C325 1.524 . S
C322 C314 1.503 . S
C322 C321 1.370 . S
C322 C323 1.403 . S
C323 C322 1.403 . S
C323 C324 1.404 . S
C323 C326 1.539 . S
C324 C320 1.408 . S
C324 C323 1.404 . S
C324 H336 0.930 1_554 S
C325 C321 1.524 . S
C325 H337 0.956 . S
C325 H338 0.961 . S
C325 H339 0.961 . S
C326 C323 1.539 . S
C326 H340 0.958 1_554 S
C326 H341 0.961 1_554 S
C326 H342 0.960 . S
H327 C311 0.931 . S
H328 C316 0.929 . S
H329 C317 0.960 . S
H330 C317 0.962 . S
H331 C317 0.960 . S
H332 C318 0.961 . S
H333 C318 0.961 . S
H334 C318 0.961 . S
H335 C319 0.934 1_565 S
H336 C324 0.930 1_556 S
H337 C325 0.956 . S
H338 C325 0.961 . S
H339 C325 0.961 . S
H340 C326 0.958 1_556 S
H341 C326 0.961 1_556 S
H342 C326 0.960 . S
C343 C344 1.391 1_554 S
C343 C345 1.394 . S
C343 H359 0.931 1_655 S
C344 C343 1.391 1_556 S
C344 C348 1.376 . S
C345 C343 1.394 . S
C345 C346 1.369 . S
C345 C349 1.531 . S
C346 C345 1.369 . S
C346 C347 1.410 . S
C346 C354 1.503 . S
C347 C346 1.410 . S
C347 C348 1.392 1_554 S
C347 C350 1.511 1_554 S
C348 C344 1.376 . S
C348 C347 1.392 1_556 S
C348 H360 0.929 . S
C349 C345 1.531 . S
C349 H361 0.960 . S
C349 H362 0.962 . S
C349 H363 0.960 1_655 S
C350 C347 1.511 1_556 S
C350 H364 0.961 . S
C350 H365 0.961 1_556 S
C350 H366 0.961 1_556 S
C351 C352 1.370 . S
C351 C353 1.363 . S
C351 H367 0.931 . S
C352 C351 1.370 . S
C352 C356 1.408 . S
C353 C351 1.363 . S
C353 C354 1.370 . S
C353 C357 1.524 . S
C354 C346 1.503 . S
C354 C353 1.370 . S
C354 C355 1.403 . S
C355 C354 1.403 . S
C355 C356 1.404 . S
C355 C358 1.539 . S
C356 C352 1.408 . S
C356 C355 1.404 . S
C356 H368 0.930 . S
C357 C353 1.524 . S
C357 H369 0.956 . S
C357 H370 0.961 1_554 S
C357 H371 0.961 . S
C358 C355 1.539 . S
C358 H372 0.958 . S
C358 H373 0.961 . S
C358 H374 0.960 . S
H359 C343 0.931 1_455 S
H360 C348 0.929 . S
H361 C349 0.960 . S
H362 C349 0.962 . S
H363 C349 0.960 1_455 S
H364 C350 0.961 . S
H365 C350 0.961 1_554 S
H366 C350 0.961 1_554 S
H367 C351 0.931 . S
H368 C356 0.930 . S
H369 C357 0.956 . S
H370 C357 0.961 1_556 S
H371 C357 0.961 . S
H372 C358 0.958 . S
H373 C358 0.961 . S
H374 C358 0.960 . S
C375 C376 1.391 . S
C375 C377 1.394 . S
C375 H391 0.931 . S
C376 C375 1.391 . S
C376 C380 1.376 . S
C377 C375 1.394 . S
C377 C378 1.369 . S
C377 C381 1.531 . S
C378 C377 1.369 . S
C378 C379 1.410 . S
C378 C386 1.503 . S
C379 C378 1.410 . S
C379 C380 1.392 . S
C379 C382 1.511 . S
C380 C376 1.376 . S
C380 C379 1.392 . S
C380 H392 0.929 . S
C381 C377 1.531 . S
C381 H393 0.960 . S
C381 H394 0.962 . S
C381 H395 0.960 . S
C382 C379 1.511 . S
C382 H396 0.961 . S
C382 H397 0.961 . S
C382 H398 0.961 . S
C383 C384 1.370 . S
C383 C385 1.363 . S
C383 H399 0.931 . S
C384 C383 1.370 . S
C384 C388 1.408 . S
C385 C383 1.363 . S
C385 C386 1.370 . S
C385 C389 1.524 . S
C386 C378 1.503 . S
C386 C385 1.370 . S
C386 C387 1.403 . S
C387 C386 1.403 . S
C387 C388 1.404 . S
C387 C390 1.539 . S
C388 C384 1.408 . S
C388 C387 1.404 . S
C388 H400 0.930 . S
C389 C385 1.524 . S
C389 H401 0.956 . S
C389 H402 0.961 . S
C389 H403 0.961 . S
C390 C387 1.539 . S
C390 H404 0.958 . S
C390 H405 0.961 . S
C390 H406 0.960 . S
H391 C375 0.931 . S
H392 C380 0.929 . S
H393 C381 0.960 . S
H394 C381 0.962 . S
H395 C381 0.960 . S
H396 C382 0.961 . S
H397 C382 0.961 . S
H398 C382 0.961 . S
H399 C383 0.931 . S
H400 C388 0.930 . S
H401 C389 0.956 . S
H402 C389 0.961 . S
H403 C389 0.961 . S
H404 C390 0.958 . S
H405 C390 0.961 . S
H406 C390 0.960 . S
C407 C408 1.391 . S
C407 C409 1.394 . S
C407 H423 0.931 1_545 S
C408 C407 1.391 . S
C408 C412 1.376 . S
C409 C407 1.394 . S
C409 C410 1.369 . S
C409 C413 1.531 . S
C410 C409 1.369 . S
C410 C411 1.410 . S
C410 C418 1.503 . S
C411 C410 1.410 . S
C411 C412 1.392 . S
C411 C414 1.511 . S
C412 C408 1.376 . S
C412 C411 1.392 . S
C412 H424 0.929 . S
C413 C409 1.531 . S
C413 H425 0.960 . S
C413 H426 0.962 . S
C413 H427 0.960 . S
C414 C411 1.511 . S
C414 H428 0.961 . S
C414 H429 0.961 . S
C414 H430 0.961 . S
C415 C416 1.370 . S
C415 C417 1.363 . S
C415 H431 0.931 . S
C416 C415 1.370 . S
C416 C420 1.408 . S
C417 C415 1.363 . S
C417 C418 1.370 . S
C417 C421 1.524 . S
C418 C410 1.503 . S
C418 C417 1.370 . S
C418 C419 1.403 . S
C419 C418 1.403 . S
C419 C420 1.404 . S
C419 C422 1.539 . S
C420 C416 1.408 . S
C420 C419 1.404 . S
C420 H432 0.930 . S
C421 C417 1.524 . S
C421 H433 0.956 . S
C421 H434 0.961 . S
C421 H435 0.961 . S
C422 C419 1.539 . S
C422 H436 0.958 . S
C422 H437 0.961 . S
C422 H438 0.960 . S
H423 C407 0.931 1_565 S
H424 C412 0.929 . S
H425 C413 0.960 . S
H426 C413 0.962 . S
H427 C413 0.960 . S
H428 C414 0.961 . S
H429 C414 0.961 . S
H430 C414 0.961 . S
H431 C415 0.931 . S
H432 C420 0.930 . S
H433 C421 0.956 . S
H434 C421 0.961 . S
H435 C421 0.961 . S
H436 C422 0.958 . S
H437 C422 0.961 . S
H438 C422 0.960 . S
C439 C440 1.391 1_556 S
C439 C441 1.394 . S
C439 H455 0.931 . S
C440 C439 1.391 1_554 S
C440 C444 1.376 . S
C441 C439 1.394 . S
C441 C442 1.369 1_556 S
C441 C445 1.531 . S
C442 C441 1.369 1_554 S
C442 C443 1.410 . S
C442 C450 1.503 . S
C443 C442 1.410 . S
C443 C444 1.392 . S
C443 C446 1.511 . S
C444 C440 1.376 . S
C444 C443 1.392 . S
C444 H456 0.929 1_655 S
C445 C441 1.531 . S
C445 H457 0.960 . S
C445 H458 0.962 . S
C445 H459 0.960 . S
C446 C443 1.511 . S
C446 H460 0.961 . S
C446 H461 0.961 . S
C446 H462 0.961 . S
C447 C448 1.370 . S
C447 C449 1.363 . S
C447 H463 0.931 . S
C448 C447 1.370 . S
C448 C452 1.408 . S
C449 C447 1.363 . S
C449 C450 1.370 . S
C449 C453 1.524 . S
C450 C442 1.503 . S
C450 C449 1.370 . S
C450 C451 1.403 . S
C451 C450 1.403 . S
C451 C452 1.404 . S
C451 C454 1.539 . S
C452 C448 1.408 . S
C452 C451 1.404 . S
C452 H464 0.930 . S
C453 C449 1.524 . S
C453 H465 0.956 . S
C453 H466 0.961 . S
C453 H467 0.961 . S
C454 C451 1.539 . S
C454 H468 0.958 . S
C454 H469 0.961 . S
C454 H470 0.960 . S
H455 C439 0.931 . S
H456 C444 0.929 1_455 S
H457 C445 0.960 . S
H458 C445 0.962 . S
H459 C445 0.960 . S
H460 C446 0.961 . S
H461 C446 0.961 . S
H462 C446 0.961 . S
H463 C447 0.931 . S
H464 C452 0.930 . S
H465 C453 0.956 . S
H466 C453 0.961 . S
H467 C453 0.961 . S
H468 C454 0.958 . S
H469 C454 0.961 . S
H470 C454 0.960 . S
C471 C472 1.391 . S
C471 C473 1.394 . S
C471 H487 0.931 . S
C472 C471 1.391 . S
C472 C476 1.376 . S
C473 C471 1.394 . S
C473 C474 1.369 . S
C473 C477 1.531 . S
C474 C473 1.369 . S
C474 C475 1.410 . S
C474 C482 1.503 . S
C475 C474 1.410 . S
C475 C476 1.392 . S
C475 C478 1.511 . S
C476 C472 1.376 . S
C476 C475 1.392 . S
C476 H488 0.929 . S
C477 C473 1.531 . S
C477 H489 0.960 . S
C477 H490 0.962 . S
C477 H491 0.960 . S
C478 C475 1.511 . S
C478 H492 0.961 . S
C478 H493 0.961 . S
C478 H494 0.961 . S
C479 C480 1.327 1_655 S
C479 C481 1.402 . S
C479 H495 0.936 . S
C480 C479 1.327 1_455 S
C480 C484 1.408 . S
C481 C479 1.402 . S
C481 C482 1.370 . S
C481 C485 1.524 . S
C482 C474 1.503 . S
C482 C481 1.370 . S
C482 C483 1.403 1_655 S
C483 C482 1.403 1_455 S
C483 C484 1.404 . S
C483 C486 1.539 . S
C484 C480 1.408 . S
C484 C483 1.404 . S
C484 H496 0.930 . S
C485 C481 1.524 . S
C485 H497 0.956 . S
C485 H498 0.961 . S
C485 H499 0.961 . S
C486 C483 1.539 . S
C486 H500 0.958 1_455 S
C486 H501 0.961 . S
C486 H502 0.960 1_455 S
H487 C471 0.931 . S
H488 C476 0.929 . S
H489 C477 0.960 . S
H490 C477 0.962 . S
H491 C477 0.960 . S
H492 C478 0.961 . S
H493 C478 0.961 . S
H494 C478 0.961 . S
H495 C479 0.936 . S
H496 C484 0.930 . S
H497 C485 0.956 . S
H498 C485 0.961 . S
H499 C485 0.961 . S
H500 C486 0.958 1_655 S
H501 C486 0.961 . S
H502 C486 0.960 1_655 S
C503 C504 1.391 . S
C503 C505 1.394 . S
C503 H519 0.931 . S
C504 C503 1.391 . S
C504 C508 1.376 . S
C505 C503 1.394 . S
C505 C506 1.369 . S
C505 C509 1.531 . S
C506 C505 1.369 . S
C506 C507 1.410 . S
C506 C514 1.503 . S
C507 C506 1.410 . S
C507 C508 1.392 . S
C507 C510 1.511 . S
C508 C504 1.376 . S
C508 C507 1.392 . S
C508 H520 0.929 . S
C509 C505 1.531 . S
C509 H521 0.960 . S
C509 H522 0.962 . S
C509 H523 0.960 . S
C510 C507 1.511 . S
C510 H524 0.961 . S
C510 H525 0.961 . S
C510 H526 0.961 . S
C511 C512 1.370 . S
C511 C513 1.363 . S
C511 H527 0.931 . S
C512 C511 1.370 . S
C512 C516 1.408 . S
C513 C511 1.363 . S
C513 C514 1.370 . S
C513 C517 1.524 . S
C514 C506 1.503 . S
C514 C513 1.370 . S
C514 C515 1.403 . S
C515 C514 1.403 . S
C515 C516 1.404 . S
C515 C518 1.539 . S
C516 C512 1.408 . S
C516 C515 1.404 . S
C516 H528 0.930 . S
C517 C513 1.524 . S
C517 H529 0.956 . S
C517 H530 0.961 . S
C517 H531 0.961 . S
C518 C515 1.539 . S
C518 H532 0.958 . S
C518 H533 0.961 . S
C518 H534 0.960 . S
H519 C503 0.931 . S
H520 C508 0.929 . S
H521 C509 0.960 . S
H522 C509 0.962 . S
H523 C509 0.960 . S
H524 C510 0.961 . S
H525 C510 0.961 . S
H526 C510 0.961 . S
H527 C511 0.931 . S
H528 C516 0.930 . S
H529 C517 0.956 . S
H530 C517 0.961 . S
H531 C517 0.961 . S
H532 C518 0.958 . S
H533 C518 0.961 . S
H534 C518 0.960 . S
C535 C536 1.391 1_545 S
C535 C537 1.394 . S
C535 H551 0.931 . S
C536 C535 1.391 1_565 S
C536 C540 1.376 1_565 S
C537 C535 1.394 . S
C537 C538 1.369 . S
C537 C541 1.531 . S
C538 C537 1.369 . S
C538 C539 1.410 . S
C538 C546 1.503 . S
C539 C538 1.410 . S
C539 C540 1.392 . S
C539 C542 1.511 . S
C540 C536 1.376 1_545 S
C540 C539 1.392 . S
C540 H552 0.929 1_545 S
C541 C537 1.531 . S
C541 H553 0.960 . S
C541 H554 0.962 . S
C541 H555 0.960 . S
C542 C539 1.511 . S
C542 H556 0.961 . S
C542 H557 0.961 . S
C542 H558 0.961 . S
C543 C544 1.370 . S
C543 C545 1.363 . S
C543 H559 0.931 . S
C544 C543 1.370 . S
C544 C548 1.408 . S
C545 C543 1.363 . S
C545 C546 1.370 . S
C545 C549 1.524 . S
C546 C538 1.503 . S
C546 C545 1.370 . S
C546 C547 1.403 . S
C547 C546 1.403 . S
C547 C548 1.404 . S
C547 C550 1.539 . S
C548 C544 1.408 . S
C548 C547 1.404 . S
C548 H560 0.930 . S
C549 C545 1.524 . S
C549 H561 0.956 . S
C549 H562 0.961 . S
C549 H563 0.961 . S
C550 C547 1.539 . S
C550 H564 0.958 . S
C550 H565 0.961 . S
C550 H566 0.960 . S
H551 C535 0.931 . S
H552 C540 0.929 1_565 S
H553 C541 0.960 . S
H554 C541 0.962 . S
H555 C541 0.960 . S
H556 C542 0.961 . S
H557 C542 0.961 . S
H558 C542 0.961 . S
H559 C543 0.931 . S
H560 C548 0.930 . S
H561 C549 0.956 . S
H562 C549 0.961 . S
H563 C549 0.961 . S
H564 C550 0.958 . S
H565 C550 0.961 . S
H566 C550 0.960 . S
C567 C568 1.391 . S
C567 C569 1.394 . S
C567 H583 0.931 . S
C568 C567 1.391 . S
C568 C572 1.376 . S
C569 C567 1.394 . S
C569 C570 1.369 . S
C569 C573 1.531 . S
C570 C569 1.369 . S
C570 C571 1.410 . S
C570 C578 1.503 . S
C571 C570 1.410 . S
C571 C572 1.392 . S
C571 C574 1.511 . S
C572 C568 1.376 . S
C572 C571 1.392 . S
C572 H584 0.929 . S
C573 C569 1.531 . S
C573 H585 0.960 . S
C573 H586 0.962 . S
C573 H587 0.960 . S
C574 C571 1.511 . S
C574 H588 0.961 . S
C574 H589 0.961 . S
C574 H590 0.961 . S
C575 C576 1.370 . S
C575 C577 1.363 1_565 S
C575 H591 0.931 . S
C576 C575 1.370 . S
C576 C580 1.408 . S
C577 C575 1.363 1_545 S
C577 C578 1.370 . S
C577 C581 1.524 . S
C578 C570 1.503 . S
C578 C577 1.370 . S
C578 C579 1.403 1_545 S
C579 C578 1.403 1_565 S
C579 C580 1.404 . S
C579 C582 1.539 1_565 S
C580 C576 1.408 . S
C580 C579 1.404 . S
C580 H592 0.930 . S
C581 C577 1.524 . S
C581 H593 0.956 . S
C581 H594 0.961 . S
C581 H595 0.961 . S
C582 C579 1.539 1_545 S
C582 H596 0.958 1_545 S
C582 H597 0.961 1_545 S
C582 H598 0.960 . S
H583 C567 0.931 . S
H584 C572 0.929 . S
H585 C573 0.960 . S
H586 C573 0.962 . S
H587 C573 0.960 . S
H588 C574 0.961 . S
H589 C574 0.961 . S
H590 C574 0.961 . S
H591 C575 0.931 . S
H592 C580 0.930 . S
H593 C581 0.956 . S
H594 C581 0.961 . S
H595 C581 0.961 . S
H596 C582 0.958 1_565 S
H597 C582 0.961 1_565 S
H598 C582 0.960 . S
C599 C600 1.391 1_655 S
C599 C601 1.394 . S
C599 H615 0.931 . S
C600 C599 1.391 1_455 S
C600 C604 1.376 . S
C601 C599 1.394 . S
C601 C602 1.369 . S
C601 C605 1.531 . S
C602 C601 1.369 . S
C602 C603 1.410 . S
C602 C610 1.503 . S
C603 C602 1.410 . S
C603 C604 1.392 1_655 S
C603 C606 1.511 . S
C604 C600 1.376 . S
C604 C603 1.392 1_455 S
C604 H616 0.929 . S
C605 C601 1.531 . S
C605 H617 0.960 . S
C605 H618 0.962 . S
C605 H619 0.960 . S
C606 C603 1.511 . S
C606 H620 0.961 . S
C606 H621 0.961 . S
C606 H622 0.961 . S
C607 C608 1.370 . S
C607 C609 1.363 . S
C607 H623 0.931 . S
C608 C607 1.370 . S
C608 C612 1.408 . S
C609 C607 1.363 . S
C609 C610 1.370 . S
C609 C613 1.524 . S
C610 C602 1.503 . S
C610 C609 1.370 . S
C610 C611 1.403 . S
C611 C610 1.403 . S
C611 C612 1.404 . S
C611 C614 1.539 . S
C612 C608 1.408 . S
C612 C611 1.404 . S
C612 H624 0.930 . S
C613 C609 1.524 . S
C613 H625 0.956 . S
C613 H626 0.961 . S
C613 H627 0.961 . S
C614 C611 1.539 . S
C614 H628 0.958 . S
C614 H629 0.961 . S
C614 H630 0.960 . S
H615 C599 0.931 . S
H616 C604 0.929 . S
H617 C605 0.960 . S
H618 C605 0.962 . S
H619 C605 0.960 . S
H620 C606 0.961 . S
H621 C606 0.961 . S
H622 C606 0.961 . S
H623 C607 0.931 . S
H624 C612 0.930 . S
H625 C613 0.956 . S
H626 C613 0.961 . S
H627 C613 0.961 . S
H628 C614 0.958 . S
H629 C614 0.961 . S
H630 C614 0.960 . S
C631 C632 1.391 . S
C631 C633 1.394 . S
C631 H647 0.931 . S
C632 C631 1.391 . S
C632 C636 1.376 . S
C633 C631 1.394 . S
C633 C634 1.369 . S
C633 C637 1.531 . S
C634 C633 1.369 . S
C634 C635 1.410 . S
C634 C642 1.503 . S
C635 C634 1.410 . S
C635 C636 1.392 . S
C635 C638 1.511 . S
C636 C632 1.376 . S
C636 C635 1.392 . S
C636 H648 0.929 . S
C637 C633 1.531 . S
C637 H649 0.960 . S
C637 H650 0.962 . S
C637 H651 0.960 . S
C638 C635 1.511 . S
C638 H652 0.961 . S
C638 H653 0.961 . S
C638 H654 0.961 . S
C639 C640 1.370 . S
C639 C641 1.363 . S
C639 H655 0.931 . S
C640 C639 1.370 . S
C640 C644 1.408 . S
C641 C639 1.363 . S
C641 C642 1.370 . S
C641 C645 1.524 . S
C642 C634 1.503 . S
C642 C641 1.370 . S
C642 C643 1.403 . S
C643 C642 1.403 . S
C643 C644 1.404 . S
C643 C646 1.539 . S
C644 C640 1.408 . S
C644 C643 1.404 . S
C644 H656 0.930 . S
C645 C641 1.524 . S
C645 H657 0.956 . S
C645 H658 0.961 . S
C645 H659 0.961 . S
C646 C643 1.539 . S
C646 H660 0.958 . S
C646 H661 0.961 . S
C646 H662 0.960 . S
H647 C631 0.931 . S
H648 C636 0.929 . S
H649 C637 0.960 . S
H650 C637 0.962 . S
H651 C637 0.960 . S
H652 C638 0.961 . S
H653 C638 0.961 . S
H654 C638 0.961 . S
H655 C639 0.931 . S
H656 C644 0.930 . S
H657 C645 0.956 . S
H658 C645 0.961 . S
H659 C645 0.961 . S
H660 C646 0.958 . S
H661 C646 0.961 . S
H662 C646 0.960 . S
C663 C664 1.391 . S
C663 C665 1.394 . S
C663 H679 0.931 . S
C664 C663 1.391 . S
C664 C668 1.376 . S
C665 C663 1.394 . S
C665 C666 1.369 . S
C665 C669 1.531 . S
C666 C665 1.369 . S
C666 C667 1.410 . S
C666 C674 1.503 1_556 S
C667 C666 1.410 . S
C667 C668 1.392 . S
C667 C670 1.511 1_556 S
C668 C664 1.376 . S
C668 C667 1.392 . S
C668 H680 0.929 . S
C669 C665 1.531 . S
C669 H681 0.960 . S
C669 H682 0.962 . S
C669 H683 0.960 . S
C670 C667 1.511 1_554 S
C670 H684 0.961 . S
C670 H685 0.961 . S
C670 H686 0.961 . S
C671 C672 1.370 . S
C671 C673 1.363 1_554 S
C671 H687 0.931 1_554 S
C672 C671 1.370 . S
C672 C676 1.408 . S
C673 C671 1.363 1_556 S
C673 C674 1.370 1_556 S
C673 C677 1.524 . S
C674 C666 1.503 1_554 S
C674 C673 1.370 1_554 S
C674 C675 1.403 . S
C675 C674 1.403 . S
C675 C676 1.404 . S
C675 C678 1.539 . S
C676 C672 1.408 . S
C676 C675 1.404 . S
C676 H688 0.930 . S
C677 C673 1.524 . S
C677 H689 0.956 . S
C677 H690 0.961 . S
C677 H691 0.961 . S
C678 C675 1.539 . S
C678 H692 0.958 . S
C678 H693 0.961 . S
C678 H694 0.960 . S
H679 C663 0.931 . S
H680 C668 0.929 . S
H681 C669 0.960 . S
H682 C669 0.962 . S
H683 C669 0.960 . S
H684 C670 0.961 . S
H685 C670 0.961 . S
H686 C670 0.961 . S
H687 C671 0.931 1_556 S
H688 C676 0.930 . S
H689 C677 0.956 . S
H690 C677 0.961 . S
H691 C677 0.961 . S
H692 C678 0.958 . S
H693 C678 0.961 . S
H694 C678 0.960 . S
C695 C696 1.391 . S
C695 C697 1.394 . S
C695 H711 0.931 . S
C696 C695 1.391 . S
C696 C700 1.376 . S
C697 C695 1.394 . S
C697 C698 1.369 . S
C697 C701 1.531 . S
C698 C697 1.369 . S
C698 C699 1.410 . S
C698 C706 1.503 . S
C699 C698 1.410 . S
C699 C700 1.392 . S
C699 C702 1.511 . S
C700 C696 1.376 . S
C700 C699 1.392 . S
C700 H712 0.929 . S
C701 C697 1.531 . S
C701 H713 0.960 . S
C701 H714 0.962 1_556 S
C701 H715 0.960 . S
C702 C699 1.511 . S
C702 H716 0.961 . S
C702 H717 0.961 . S
C702 H718 0.961 . S
C703 C704 1.370 . S
C703 C705 1.363 . S
C703 H719 0.931 1_556 S
C704 C703 1.370 . S
C704 C708 1.408 . S
C705 C703 1.363 . S
C705 C706 1.370 . S
C705 C709 1.524 . S
C706 C698 1.503 . S
C706 C705 1.370 . S
C706 C707 1.403 . S
C707 C706 1.403 . S
C707 C708 1.404 . S
C707 C710 1.539 . S
C708 C704 1.408 . S
C708 C707 1.404 . S
C708 H720 0.930 . S
C709 C705 1.524 . S
C709 H721 0.956 . S
C709 H722 0.961 . S
C709 H723 0.961 . S
C710 C707 1.539 . S
C710 H724 0.958 . S
C710 H725 0.961 . S
C710 H726 0.960 . S
H711 C695 0.931 . S
H712 C700 0.929 . S
H713 C701 0.960 . S
H714 C701 0.962 1_554 S
H715 C701 0.960 . S
H716 C702 0.961 . S
H717 C702 0.961 . S
H718 C702 0.961 . S
H719 C703 0.931 1_554 S
H720 C708 0.930 . S
H721 C709 0.956 . S
H722 C709 0.961 . S
H723 C709 0.961 . S
H724 C710 0.958 . S
H725 C710 0.961 . S
H726 C710 0.960 . S
C727 C728 1.391 . S
C727 C729 1.394 . S
C727 H743 0.931 . S
C728 C727 1.391 . S
C728 C732 1.376 . S
C729 C727 1.394 . S
C729 C730 1.369 . S
C729 C733 1.531 . S
C730 C729 1.369 . S
C730 C731 1.410 . S
C730 C738 1.503 . S
C731 C730 1.410 . S
C731 C732 1.392 . S
C731 C734 1.511 . S
C732 C728 1.376 . S
C732 C731 1.392 . S
C732 H744 0.929 . S
C733 C729 1.531 . S
C733 H745 0.960 . S
C733 H746 0.962 . S
C733 H747 0.960 . S
C734 C731 1.511 . S
C734 H748 0.961 . S
C734 H749 0.961 . S
C734 H750 0.961 . S
C735 C736 1.370 . S
C735 C737 1.363 . S
C735 H751 0.931 . S
C736 C735 1.370 . S
C736 C740 1.408 . S
C737 C735 1.363 . S
C737 C738 1.370 . S
C737 C741 1.524 . S
C738 C730 1.503 . S
C738 C737 1.370 . S
C738 C739 1.403 . S
C739 C738 1.403 . S
C739 C740 1.404 . S
C739 C742 1.539 . S
C740 C736 1.408 . S
C740 C739 1.404 . S
C740 H752 0.930 . S
C741 C737 1.524 . S
C741 H753 0.956 . S
C741 H754 0.961 . S
C741 H755 0.961 . S
C742 C739 1.539 . S
C742 H756 0.958 . S
C742 H757 0.961 . S
C742 H758 0.960 . S
H743 C727 0.931 . S
H744 C732 0.929 . S
H745 C733 0.960 . S
H746 C733 0.962 . S
H747 C733 0.960 . S
H748 C734 0.961 . S
H749 C734 0.961 . S
H750 C734 0.961 . S
H751 C735 0.931 . S
H752 C740 0.930 . S
H753 C741 0.956 . S
H754 C741 0.961 . S
H755 C741 0.961 . S
H756 C742 0.958 . S
H757 C742 0.961 . S
H758 C742 0.960 . S
C759 C760 1.391 . S
C759 C761 1.394 . S
C759 H775 0.931 . S
C760 C759 1.391 . S
C760 C764 1.376 1_554 S
C761 C759 1.394 . S
C761 C762 1.369 . S
C761 C765 1.531 . S
C762 C761 1.369 . S
C762 C763 1.410 1_554 S
C762 C770 1.503 1_554 S
C763 C762 1.410 1_556 S
C763 C764 1.392 . S
C763 C766 1.511 . S
C764 C760 1.376 1_556 S
C764 C763 1.392 . S
C764 H776 0.929 . S
C765 C761 1.531 . S
C765 H777 0.960 . S
C765 H778 0.962 . S
C765 H779 0.960 . S
C766 C763 1.511 . S
C766 H780 0.961 . S
C766 H781 0.961 . S
C766 H782 0.961 . S
C767 C768 1.370 . S
C767 C769 1.363 . S
C767 H783 0.931 . S
C768 C767 1.370 . S
C768 C772 1.408 . S
C769 C767 1.363 . S
C769 C770 1.370 . S
C769 C773 1.524 . S
C770 C762 1.503 1_556 S
C770 C769 1.370 . S
C770 C771 1.403 . S
C771 C770 1.403 . S
C771 C772 1.404 . S
C771 C774 1.539 1_556 S
C772 C768 1.408 . S
C772 C771 1.404 . S
C772 H784 0.930 . S
C773 C769 1.524 . S
C773 H785 0.956 . S
C773 H786 0.961 . S
C773 H787 0.961 . S
C774 C771 1.539 1_554 S
C774 H788 0.958 . S
C774 H789 0.961 . S
C774 H790 0.960 . S
H775 C759 0.931 . S
H776 C764 0.929 . S
H777 C765 0.960 . S
H778 C765 0.962 . S
H779 C765 0.960 . S
H780 C766 0.961 . S
H781 C766 0.961 . S
H782 C766 0.961 . S
H783 C767 0.931 . S
H784 C772 0.930 . S
H785 C773 0.956 . S
H786 C773 0.961 . S
H787 C773 0.961 . S
H788 C774 0.958 . S
H789 C774 0.961 . S
H790 C774 0.960 . S
C791 C792 1.395 . S
C791 C793 1.394 . S
C791 H807 0.931 . S
C792 C791 1.395 . S
C792 C796 1.368 1_554 S
C793 C791 1.394 . S
C793 C794 1.369 1_554 S
C793 C797 1.531 . S
C794 C793 1.369 1_556 S
C794 C795 1.410 . S
C794 C802 1.503 . S
C795 C794 1.410 . S
C795 C796 1.392 . S
C795 C798 1.511 . S
C796 C792 1.368 1_556 S
C796 C795 1.392 . S
C796 H808 0.929 . S
C797 C793 1.531 . S
C797 H809 0.960 . S
C797 H810 0.962 . S
C797 H811 0.960 . S
C798 C795 1.511 . S
C798 H812 0.961 . S
C798 H813 0.961 . S
C798 H814 0.961 . S
C799 C800 1.370 . S
C799 C801 1.363 . S
C799 H815 0.931 . S
C800 C799 1.370 . S
C800 C804 1.408 . S
C801 C799 1.363 . S
C801 C802 1.370 . S
C801 C805 1.524 . S
C802 C794 1.503 . S
C802 C801 1.370 . S
C802 C803 1.403 . S
C803 C802 1.403 . S
C803 C804 1.404 . S
C803 C806 1.539 . S
C804 C800 1.408 . S
C804 C803 1.404 . S
C804 H816 0.930 . S
C805 C801 1.524 . S
C805 H817 0.956 . S
C805 H818 0.961 . S
C805 H819 0.961 . S
C806 C803 1.539 . S
C806 H820 0.958 . S
C806 H821 0.961 . S
C806 H822 0.960 . S
H807 C791 0.931 . S
H808 C796 0.929 . S
H809 C797 0.960 . S
H810 C797 0.962 . S
H811 C797 0.960 . S
H812 C798 0.961 . S
H813 C798 0.961 . S
H814 C798 0.961 . S
H815 C799 0.931 . S
H816 C804 0.930 . S
H817 C805 0.956 . S
H818 C805 0.961 . S
H819 C805 0.961 . S
H820 C806 0.958 . S
H821 C806 0.961 . S
H822 C806 0.960 . S
C823 C824 1.391 . S
C823 C825 1.394 . S
C823 H839 0.931 . S
C824 C823 1.391 . S
C824 C828 1.376 . S
C825 C823 1.394 . S
C825 C826 1.369 . S
C825 C829 1.531 . S
C826 C825 1.369 . S
C826 C827 1.410 . S
C826 C834 1.503 . S
C827 C826 1.410 . S
C827 C828 1.392 . S
C827 C830 1.511 . S
C828 C824 1.376 . S
C828 C827 1.392 . S
C828 H840 0.929 . S
C829 C825 1.531 . S
C829 H841 0.960 . S
C829 H842 0.962 . S
C829 H843 0.960 . S
C830 C827 1.511 . S
C830 H844 0.961 . S
C830 H845 0.961 . S
C830 H846 0.961 . S
C831 C832 1.370 . S
C831 C833 1.363 . S
C831 H847 0.931 . S
C832 C831 1.370 . S
C832 C836 1.408 . S
C833 C831 1.363 . S
C833 C834 1.370 . S
C833 C837 1.524 . S
C834 C826 1.503 . S
C834 C833 1.370 . S
C834 C835 1.403 . S
C835 C834 1.403 . S
C835 C836 1.404 . S
C835 C838 1.539 . S
C836 C832 1.408 . S
C836 C835 1.404 . S
C836 H848 0.930 . S
C837 C833 1.524 . S
C837 H849 0.956 . S
C837 H850 0.961 . S
C837 H851 0.961 . S
C838 C835 1.539 . S
C838 H852 0.958 . S
C838 H853 0.961 . S
C838 H854 0.960 . S
H839 C823 0.931 . S
H840 C828 0.929 . S
H841 C829 0.960 . S
H842 C829 0.962 . S
H843 C829 0.960 . S
H844 C830 0.961 . S
H845 C830 0.961 . S
H846 C830 0.961 . S
H847 C831 0.931 . S
H848 C836 0.930 . S
H849 C837 0.956 . S
H850 C837 0.961 . S
H851 C837 0.961 . S
H852 C838 0.958 . S
H853 C838 0.961 . S
H854 C838 0.960 . S
C855 C856 1.396 1_545 S
C855 C857 1.394 . S
C855 H871 0.931 . S
C856 C855 1.396 1_565 S
C856 C860 1.371 1_556 S
C857 C855 1.394 . S
C857 C858 1.369 1_556 S
C857 C861 1.531 . S
C858 C857 1.369 1_554 S
C858 C859 1.410 . S
C858 C866 1.503 . S
C859 C858 1.410 . S
C859 C860 1.392 1_545 S
C859 C862 1.511 . S
C860 C856 1.371 1_554 S
C860 C859 1.392 1_565 S
C860 H872 0.929 . S
C861 C857 1.531 . S
C861 H873 0.960 . S
C861 H874 0.962 . S
C861 H875 0.960 . S
C862 C859 1.511 . S
C862 H876 0.961 . S
C862 H877 0.961 . S
C862 H878 0.961 . S
C863 C864 1.370 . S
C863 C865 1.363 . S
C863 H879 0.931 . S
C864 C863 1.370 . S
C864 C868 1.408 1_554 S
C865 C863 1.363 . S
C865 C866 1.370 . S
C865 C869 1.524 . S
C866 C858 1.503 . S
C866 C865 1.370 . S
C866 C867 1.403 1_554 S
C867 C866 1.403 1_556 S
C867 C868 1.404 . S
C867 C870 1.539 . S
C868 C864 1.408 1_556 S
C868 C867 1.404 . S
C868 H880 0.930 . S
C869 C865 1.524 . S
C869 H881 0.956 . S
C869 H882 0.961 . S
C869 H883 0.961 . S
C870 C867 1.539 . S
C870 H884 0.958 . S
C870 H885 0.961 . S
C870 H886 0.960 . S
H871 C855 0.931 . S
H872 C860 0.929 . S
H873 C861 0.960 . S
H874 C861 0.962 . S
H875 C861 0.960 . S
H876 C862 0.961 . S
H877 C862 0.961 . S
H878 C862 0.961 . S
H879 C863 0.931 . S
H880 C868 0.930 . S
H881 C869 0.956 . S
H882 C869 0.961 . S
H883 C869 0.961 . S
H884 C870 0.958 . S
H885 C870 0.961 . S
H886 C870 0.960 . S
C887 C888 1.391 1_655 S
C887 C889 1.394 . S
C887 H903 0.931 . S
C888 C887 1.391 1_455 S
C888 C892 1.376 . S
C889 C887 1.394 . S
C889 C890 1.369 . S
C889 C893 1.531 . S
C890 C889 1.369 . S
C890 C891 1.410 . S
C890 C898 1.503 . S
C891 C890 1.410 . S
C891 C892 1.392 1_655 S
C891 C894 1.511 . S
C892 C888 1.376 . S
C892 C891 1.392 1_455 S
C892 H904 0.929 . S
C893 C889 1.531 . S
C893 H905 0.960 . S
C893 H906 0.962 . S
C893 H907 0.960 . S
C894 C891 1.511 . S
C894 H908 0.961 . S
C894 H909 0.961 . S
C894 H910 0.961 . S
C895 C896 1.370 1_545 S
C895 C897 1.363 . S
C895 H911 0.931 . S
C896 C895 1.370 1_565 S
C896 C900 1.408 . S
C897 C895 1.363 . S
C897 C898 1.370 . S
C897 C901 1.524 . S
C898 C890 1.503 . S
C898 C897 1.370 . S
C898 C899 1.403 . S
C899 C898 1.403 . S
C899 C900 1.404 1_545 S
C899 C902 1.539 . S
C900 C896 1.408 . S
C900 C899 1.404 1_565 S
C900 H912 0.930 . S
C901 C897 1.524 . S
C901 H913 0.956 . S
C901 H914 0.961 . S
C901 H915 0.961 . S
C902 C899 1.539 . S
C902 H916 0.958 . S
C902 H917 0.961 1_545 S
C902 H918 0.960 . S
H903 C887 0.931 . S
H904 C892 0.929 . S
H905 C893 0.960 . S
H906 C893 0.962 . S
H907 C893 0.960 . S
H908 C894 0.961 . S
H909 C894 0.961 . S
H910 C894 0.961 . S
H911 C895 0.931 . S
H912 C900 0.930 . S
H913 C901 0.956 . S
H914 C901 0.961 . S
H915 C901 0.961 . S
H916 C902 0.958 . S
H917 C902 0.961 1_565 S
H918 C902 0.960 . S
C919 C920 1.391 . S
C919 C921 1.394 . S
C919 H935 0.931 . S
C920 C919 1.391 . S
C920 C924 1.376 . S
C921 C919 1.394 . S
C921 C922 1.369 . S
C921 C925 1.531 . S
C922 C921 1.369 . S
C922 C923 1.410 . S
C922 C930 1.503 . S
C923 C922 1.410 . S
C923 C924 1.392 . S
C923 C926 1.511 . S
C924 C920 1.376 . S
C924 C923 1.392 . S
C924 H936 0.929 . S
C925 C921 1.531 . S
C925 H937 0.960 . S
C925 H938 0.962 . S
C925 H939 0.960 . S
C926 C923 1.511 . S
C926 H940 0.961 . S
C926 H941 0.961 . S
C926 H942 0.961 . S
C927 C928 1.370 . S
C927 C929 1.363 . S
C927 H943 0.931 1_554 S
C928 C927 1.370 . S
C928 C932 1.408 . S
C929 C927 1.363 . S
C929 C930 1.370 . S
C929 C933 1.524 1_554 S
C930 C922 1.503 . S
C930 C929 1.370 . S
C930 C931 1.403 . S
C931 C930 1.403 . S
C931 C932 1.404 . S
C931 C934 1.539 . S
C932 C928 1.408 . S
C932 C931 1.404 . S
C932 H944 0.930 . S
C933 C929 1.524 1_556 S
C933 H945 0.956 . S
C933 H946 0.961 . S
C933 H947 0.961 . S
C934 C931 1.539 . S
C934 H948 0.958 . S
C934 H949 0.961 . S
C934 H950 0.960 . S
H935 C919 0.931 . S
H936 C924 0.929 . S
H937 C925 0.960 . S
H938 C925 0.962 . S
H939 C925 0.960 . S
H940 C926 0.961 . S
H941 C926 0.961 . S
H942 C926 0.961 . S
H943 C927 0.931 1_556 S
H944 C932 0.930 . S
H945 C933 0.956 . S
H946 C933 0.961 . S
H947 C933 0.961 . S
H948 C934 0.958 . S
H949 C934 0.961 . S
H950 C934 0.960 . S
C951 C952 1.391 . S
C951 C953 1.394 . S
C951 H967 0.931 . S
C952 C951 1.391 . S
C952 C956 1.376 . S
C953 C951 1.394 . S
C953 C954 1.369 . S
C953 C957 1.531 . S
C954 C953 1.369 . S
C954 C955 1.410 . S
C954 C962 1.503 . S
C955 C954 1.410 . S
C955 C956 1.392 . S
C955 C958 1.511 . S
C956 C952 1.376 . S
C956 C955 1.392 . S
C956 H968 0.929 . S
C957 C953 1.531 . S
C957 H969 0.960 . S
C957 H970 0.962 . S
C957 H971 0.960 . S
C958 C955 1.511 . S
C958 H972 0.961 . S
C958 H973 0.961 . S
C958 H974 0.961 . S
C959 C960 1.370 . S
C959 C961 1.363 . S
C959 H975 0.931 . S
C960 C959 1.370 . S
C960 C964 1.408 . S
C961 C959 1.363 . S
C961 C962 1.370 . S
C961 C965 1.524 . S
C962 C954 1.503 . S
C962 C961 1.370 . S
C962 C963 1.403 . S
C963 C962 1.403 . S
C963 C964 1.404 . S
C963 C966 1.539 . S
C964 C960 1.408 . S
C964 C963 1.404 . S
C964 H976 0.930 . S
C965 C961 1.524 . S
C965 H977 0.956 . S
C965 H978 0.961 . S
C965 H979 0.961 . S
C966 C963 1.539 . S
C966 H980 0.958 . S
C966 H981 0.961 . S
C966 H982 0.960 . S
H967 C951 0.931 . S
H968 C956 0.929 . S
H969 C957 0.960 . S
H970 C957 0.962 . S
H971 C957 0.960 . S
H972 C958 0.961 . S
H973 C958 0.961 . S
H974 C958 0.961 . S
H975 C959 0.931 . S
H976 C964 0.930 . S
H977 C965 0.956 . S
H978 C965 0.961 . S
H979 C965 0.961 . S
H980 C966 0.958 . S
H981 C966 0.961 . S
H982 C966 0.960 . S
C983 C984 1.391 . S
C983 C985 1.394 . S
C983 H999 0.931 . S
C984 C983 1.391 . S
C984 C988 1.376 . S
C985 C983 1.394 . S
C985 C986 1.369 . S
C985 C989 1.531 . S
C986 C985 1.369 . S
C986 C987 1.410 . S
C986 C994 1.503 . S
C987 C986 1.410 . S
C987 C988 1.392 . S
C987 C990 1.511 . S
C988 C984 1.376 . S
C988 C987 1.392 . S
C988 H1000 0.929 . S
C989 C985 1.531 . S
C989 H1001 0.960 . S
C989 H1002 0.962 . S
C989 H1003 0.960 . S
C990 C987 1.511 . S
C990 H1004 0.961 . S
C990 H1005 0.961 . S
C990 H1006 0.961 . S
C991 C992 1.370 . S
C991 C993 1.363 . S
C991 H1007 0.931 . S
C992 C991 1.370 . S
C992 C996 1.408 . S
C993 C991 1.363 . S
C993 C994 1.370 . S
C993 C997 1.524 . S
C994 C986 1.503 . S
C994 C993 1.370 . S
C994 C995 1.403 . S
C995 C994 1.403 . S
C995 C996 1.404 . S
C995 C998 1.539 . S
C996 C992 1.408 . S
C996 C995 1.404 . S
C996 H1008 0.930 . S
C997 C993 1.524 . S
C997 H1009 0.956 . S
C997 H1010 0.961 . S
C997 H1011 0.961 . S
C998 C995 1.539 . S
C998 H1012 0.958 . S
C998 H1013 0.961 . S
C998 H1014 0.960 . S
H999 C983 0.931 . S
H1000 C988 0.929 . S
H1001 C989 0.960 . S
H1002 C989 0.962 . S
H1003 C989 0.960 . S
H1004 C990 0.961 . S
H1005 C990 0.961 . S
H1006 C990 0.961 . S
H1007 C991 0.931 . S
H1008 C996 0.930 . S
H1009 C997 0.956 . S
H1010 C997 0.961 . S
H1011 C997 0.961 . S
H1012 C998 0.958 . S
H1013 C998 0.961 . S
H1014 C998 0.960 . S
C1015 C1016 1.391 . S
C1015 C1017 1.394 . S
C1015 H1031 0.931 . S
C1016 C1015 1.391 . S
C1016 C1020 1.376 . S
C1017 C1015 1.394 . S
C1017 C1018 1.369 . S
C1017 C1021 1.531 . S
C1018 C1017 1.369 . S
C1018 C1019 1.410 . S
C1018 C1026 1.503 . S
C1019 C1018 1.410 . S
C1019 C1020 1.392 . S
C1019 C1022 1.511 . S
C1020 C1016 1.376 . S
C1020 C1019 1.392 . S
C1020 H1032 0.929 . S
C1021 C1017 1.531 . S
C1021 H1033 0.960 . S
C1021 H1034 0.962 . S
C1021 H1035 0.960 . S
C1022 C1019 1.511 . S
C1022 H1036 0.961 . S
C1022 H1037 0.961 . S
C1022 H1038 0.961 . S
C1023 C1024 1.370 . S
C1023 C1025 1.363 . S
C1023 H1039 0.931 . S
C1024 C1023 1.370 . S
C1024 C1028 1.408 . S
C1025 C1023 1.363 . S
C1025 C1026 1.370 . S
C1025 C1029 1.524 . S
C1026 C1018 1.503 . S
C1026 C1025 1.370 . S
C1026 C1027 1.403 . S
C1027 C1026 1.403 . S
C1027 C1028 1.404 . S
C1027 C1030 1.539 . S
C1028 C1024 1.408 . S
C1028 C1027 1.404 . S
C1028 H1040 0.930 . S
C1029 C1025 1.524 . S
C1029 H1041 0.956 . S
C1029 H1042 0.961 . S
C1029 H1043 0.961 . S
C1030 C1027 1.539 . S
C1030 H1044 0.958 . S
C1030 H1045 0.961 . S
C1030 H1046 0.960 . S
H1031 C1015 0.931 . S
H1032 C1020 0.929 . S
H1033 C1021 0.960 . S
H1034 C1021 0.962 . S
H1035 C1021 0.960 . S
H1036 C1022 0.961 . S
H1037 C1022 0.961 . S
H1038 C1022 0.961 . S
H1039 C1023 0.931 . S
H1040 C1028 0.930 . S
H1041 C1029 0.956 . S
H1042 C1029 0.961 . S
H1043 C1029 0.961 . S
H1044 C1030 0.958 . S
H1045 C1030 0.961 . S
H1046 C1030 0.960 . S
C1047 C1048 1.391 . S
C1047 C1049 1.394 . S
C1047 H1063 0.931 . S
C1048 C1047 1.391 . S
C1048 C1052 1.376 . S
C1049 C1047 1.394 . S
C1049 C1050 1.369 . S
C1049 C1053 1.531 . S
C1050 C1049 1.369 . S
C1050 C1051 1.410 . S
C1050 C1058 1.503 . S
C1051 C1050 1.410 . S
C1051 C1052 1.392 . S
C1051 C1054 1.511 . S
C1052 C1048 1.376 . S
C1052 C1051 1.392 . S
C1052 H1064 0.929 . S
C1053 C1049 1.531 . S
C1053 H1065 0.960 . S
C1053 H1066 0.962 . S
C1053 H1067 0.960 . S
C1054 C1051 1.511 . S
C1054 H1068 0.961 . S
C1054 H1069 0.961 . S
C1054 H1070 0.961 . S
C1055 C1056 1.370 . S
C1055 C1057 1.363 . S
C1055 H1071 0.931 . S
C1056 C1055 1.370 . S
C1056 C1060 1.408 . S
C1057 C1055 1.363 . S
C1057 C1058 1.370 . S
C1057 C1061 1.524 . S
C1058 C1050 1.503 . S
C1058 C1057 1.370 . S
C1058 C1059 1.403 . S
C1059 C1058 1.403 . S
C1059 C1060 1.404 . S
C1059 C1062 1.539 . S
C1060 C1056 1.408 . S
C1060 C1059 1.404 . S
C1060 H1072 0.930 . S
C1061 C1057 1.524 . S
C1061 H1073 0.956 . S
C1061 H1074 0.961 . S
C1061 H1075 0.961 . S
C1062 C1059 1.539 . S
C1062 H1076 0.958 . S
C1062 H1077 0.961 . S
C1062 H1078 0.960 . S
H1063 C1047 0.931 . S
H1064 C1052 0.929 . S
H1065 C1053 0.960 . S
H1066 C1053 0.962 . S
H1067 C1053 0.960 . S
H1068 C1054 0.961 . S
H1069 C1054 0.961 . S
H1070 C1054 0.961 . S
H1071 C1055 0.931 . S
H1072 C1060 0.930 . S
H1073 C1061 0.956 . S
H1074 C1061 0.961 . S
H1075 C1061 0.961 . S
H1076 C1062 0.958 . S
H1077 C1062 0.961 . S
H1078 C1062 0.960 . S
C1079 C1080 1.391 . S
C1079 C1081 1.394 . S
C1079 H1095 0.931 . S
C1080 C1079 1.391 . S
C1080 C1084 1.376 . S
C1081 C1079 1.394 . S
C1081 C1082 1.369 . S
C1081 C1085 1.531 . S
C1082 C1081 1.369 . S
C1082 C1083 1.410 . S
C1082 C1090 1.503 . S
C1083 C1082 1.410 . S
C1083 C1084 1.392 . S
C1083 C1086 1.511 . S
C1084 C1080 1.376 . S
C1084 C1083 1.392 . S
C1084 H1096 0.929 . S
C1085 C1081 1.531 . S
C1085 H1097 0.960 1_556 S
C1085 H1098 0.962 . S
C1085 H1099 0.960 1_556 S
C1086 C1083 1.511 . S
C1086 H1100 0.961 . S
C1086 H1101 0.961 . S
C1086 H1102 0.961 . S
C1087 C1088 1.370 . S
C1087 C1089 1.363 . S
C1087 H1103 0.931 . S
C1088 C1087 1.370 . S
C1088 C1092 1.408 . S
C1089 C1087 1.363 . S
C1089 C1090 1.370 . S
C1089 C1093 1.524 . S
C1090 C1082 1.503 . S
C1090 C1089 1.370 . S
C1090 C1091 1.403 . S
C1091 C1090 1.403 . S
C1091 C1092 1.404 . S
C1091 C1094 1.539 1_556 S
C1092 C1088 1.408 . S
C1092 C1091 1.404 . S
C1092 H1104 0.930 . S
C1093 C1089 1.524 . S
C1093 H1105 0.956 . S
C1093 H1106 0.961 . S
C1093 H1107 0.961 . S
C1094 C1091 1.539 1_554 S
C1094 H1108 0.958 . S
C1094 H1109 0.961 . S
C1094 H1110 0.960 . S
H1095 C1079 0.931 . S
H1096 C1084 0.929 . S
H1097 C1085 0.960 1_554 S
H1098 C1085 0.962 . S
H1099 C1085 0.960 1_554 S
H1100 C1086 0.961 . S
H1101 C1086 0.961 . S
H1102 C1086 0.961 . S
H1103 C1087 0.931 . S
H1104 C1092 0.930 . S
H1105 C1093 0.956 . S
H1106 C1093 0.961 . S
H1107 C1093 0.961 . S
H1108 C1094 0.958 . S
H1109 C1094 0.961 . S
H1110 C1094 0.960 . S
C1111 C1112 1.391 . S
C1111 C1113 1.394 . S
C1111 H1127 0.931 . S
C1112 C1111 1.391 . S
C1112 C1116 1.376 . S
C1113 C1111 1.394 . S
C1113 C1114 1.369 . S
C1113 C1117 1.531 . S
C1114 C1113 1.369 . S
C1114 C1115 1.410 . S
C1114 C1122 1.503 . S
C1115 C1114 1.410 . S
C1115 C1116 1.392 . S
C1115 C1118 1.511 . S
C1116 C1112 1.376 . S
C1116 C1115 1.392 . S
C1116 H1128 0.929 . S
C1117 C1113 1.531 . S
C1117 H1129 0.960 . S
C1117 H1130 0.962 . S
C1117 H1131 0.960 . S
C1118 C1115 1.511 . S
C1118 H1132 0.961 . S
C1118 H1133 0.961 . S
C1118 H1134 0.961 . S
C1119 C1120 1.370 . S
C1119 C1121 1.363 . S
C1119 H1135 0.931 . S
C1120 C1119 1.370 . S
C1120 C1124 1.408 . S
C1121 C1119 1.363 . S
C1121 C1122 1.370 . S
C1121 C1125 1.524 . S
C1122 C1114 1.503 . S
C1122 C1121 1.370 . S
C1122 C1123 1.403 . S
C1123 C1122 1.403 . S
C1123 C1124 1.404 . S
C1123 C1126 1.539 . S
C1124 C1120 1.408 . S
C1124 C1123 1.404 . S
C1124 H1136 0.930 . S
C1125 C1121 1.524 . S
C1125 H1137 0.956 . S
C1125 H1138 0.961 . S
C1125 H1139 0.961 . S
C1126 C1123 1.539 . S
C1126 H1140 0.958 1_556 S
C1126 H1141 0.961 . S
C1126 H1142 0.960 . S
H1127 C1111 0.931 . S
H1128 C1116 0.929 . S
H1129 C1117 0.960 . S
H1130 C1117 0.962 . S
H1131 C1117 0.960 . S
H1132 C1118 0.961 . S
H1133 C1118 0.961 . S
H1134 C1118 0.961 . S
H1135 C1119 0.931 . S
H1136 C1124 0.930 . S
H1137 C1125 0.956 . S
H1138 C1125 0.961 . S
H1139 C1125 0.961 . S
H1140 C1126 0.958 1_554 S
H1141 C1126 0.961 . S
H1142 C1126 0.960 . S
C1143 C1144 1.391 . S
C1143 C1145 1.394 . S
C1143 H1159 0.931 . S
C1144 C1143 1.391 . S
C1144 C1148 1.376 . S
C1145 C1143 1.394 . S
C1145 C1146 1.369 . S
C1145 C1149 1.531 . S
C1146 C1145 1.369 . S
C1146 C1147 1.410 . S
C1146 C1154 1.503 . S
C1147 C1146 1.410 . S
C1147 C1148 1.392 . S
C1147 C1150 1.511 . S
C1148 C1144 1.376 . S
C1148 C1147 1.392 . S
C1148 H1160 0.929 . S
C1149 C1145 1.531 . S
C1149 H1161 0.960 . S
C1149 H1162 0.962 . S
C1149 H1163 0.960 . S
C1150 C1147 1.511 . S
C1150 H1164 0.961 . S
C1150 H1165 0.961 . S
C1150 H1166 0.961 . S
C1151 C1152 1.370 . S
C1151 C1153 1.363 . S
C1151 H1167 0.931 . S
C1152 C1151 1.370 . S
C1152 C1156 1.408 . S
C1153 C1151 1.363 . S
C1153 C1154 1.370 . S
C1153 C1157 1.524 . S
C1154 C1146 1.503 . S
C1154 C1153 1.370 . S
C1154 C1155 1.403 . S
C1155 C1154 1.403 . S
C1155 C1156 1.404 . S
C1155 C1158 1.539 . S
C1156 C1152 1.408 . S
C1156 C1155 1.404 . S
C1156 H1168 0.930 . S
C1157 C1153 1.524 . S
C1157 H1169 0.956 . S
C1157 H1170 0.961 . S
C1157 H1171 0.961 . S
C1158 C1155 1.539 . S
C1158 H1172 0.958 . S
C1158 H1173 0.961 . S
C1158 H1174 0.960 . S
H1159 C1143 0.931 . S
H1160 C1148 0.929 . S
H1161 C1149 0.960 . S
H1162 C1149 0.962 . S
H1163 C1149 0.960 . S
H1164 C1150 0.961 . S
H1165 C1150 0.961 . S
H1166 C1150 0.961 . S
H1167 C1151 0.931 . S
H1168 C1156 0.930 . S
H1169 C1157 0.956 . S
H1170 C1157 0.961 . S
H1171 C1157 0.961 . S
H1172 C1158 0.958 . S
H1173 C1158 0.961 . S
H1174 C1158 0.960 . S
C1175 C1176 1.391 . S
C1175 C1177 1.394 . S
C1175 H1191 0.931 . S
C1176 C1175 1.391 . S
C1176 C1180 1.376 . S
C1177 C1175 1.394 . S
C1177 C1178 1.369 . S
C1177 C1181 1.531 . S
C1178 C1177 1.369 . S
C1178 C1179 1.410 . S
C1178 C1186 1.503 . S
C1179 C1178 1.410 . S
C1179 C1180 1.392 . S
C1179 C1182 1.511 . S
C1180 C1176 1.376 . S
C1180 C1179 1.392 . S
C1180 H1192 0.929 . S
C1181 C1177 1.531 . S
C1181 H1193 0.960 . S
C1181 H1194 0.962 . S
C1181 H1195 0.960 . S
C1182 C1179 1.511 . S
C1182 H1196 0.961 . S
C1182 H1197 0.961 . S
C1182 H1198 0.961 . S
C1183 C1184 1.370 . S
C1183 C1185 1.363 . S
C1183 H1199 0.931 . S
C1184 C1183 1.370 . S
C1184 C1188 1.408 . S
C1185 C1183 1.363 . S
C1185 C1186 1.370 . S
C1185 C1189 1.524 . S
C1186 C1178 1.503 . S
C1186 C1185 1.370 . S
C1186 C1187 1.403 . S
C1187 C1186 1.403 . S
C1187 C1188 1.404 . S
C1187 C1190 1.539 . S
C1188 C1184 1.408 . S
C1188 C1187 1.404 . S
C1188 H1200 0.930 . S
C1189 C1185 1.524 . S
C1189 H1201 0.956 . S
C1189 H1202 0.961 . S
C1189 H1203 0.961 . S
C1190 C1187 1.539 . S
C1190 H1204 0.958 . S
C1190 H1205 0.961 . S
C1190 H1206 0.960 . S
H1191 C1175 0.931 . S
H1192 C1180 0.929 . S
H1193 C1181 0.960 . S
H1194 C1181 0.962 . S
H1195 C1181 0.960 . S
H1196 C1182 0.961 . S
H1197 C1182 0.961 . S
H1198 C1182 0.961 . S
H1199 C1183 0.931 . S
H1200 C1188 0.930 . S
H1201 C1189 0.956 . S
H1202 C1189 0.961 . S
H1203 C1189 0.961 . S
H1204 C1190 0.958 . S
H1205 C1190 0.961 . S
H1206 C1190 0.960 . S
C1207 C1208 1.391 . S
C1207 C1209 1.394 . S
C1207 H1223 0.931 . S
C1208 C1207 1.391 . S
C1208 C1212 1.376 . S
C1209 C1207 1.394 . S
C1209 C1210 1.369 . S
C1209 C1213 1.531 . S
C1210 C1209 1.369 . S
C1210 C1211 1.410 . S
C1210 C1218 1.503 . S
C1211 C1210 1.410 . S
C1211 C1212 1.392 . S
C1211 C1214 1.511 . S
C1212 C1208 1.376 . S
C1212 C1211 1.392 . S
C1212 H1224 0.929 . S
C1213 C1209 1.531 . S
C1213 H1225 0.960 . S
C1213 H1226 0.962 . S
C1213 H1227 0.960 . S
C1214 C1211 1.511 . S
C1214 H1228 0.961 . S
C1214 H1229 0.961 . S
C1214 H1230 0.961 . S
C1215 C1216 1.370 . S
C1215 C1217 1.363 . S
C1215 H1231 0.931 . S
C1216 C1215 1.370 . S
C1216 C1220 1.408 . S
C1217 C1215 1.363 . S
C1217 C1218 1.370 . S
C1217 C1221 1.524 . S
C1218 C1210 1.503 . S
C1218 C1217 1.370 . S
C1218 C1219 1.403 . S
C1219 C1218 1.403 . S
C1219 C1220 1.404 . S
C1219 C1222 1.539 . S
C1220 C1216 1.408 . S
C1220 C1219 1.404 . S
C1220 H1232 0.930 . S
C1221 C1217 1.524 . S
C1221 H1233 0.956 . S
C1221 H1234 0.961 . S
C1221 H1235 0.961 . S
C1222 C1219 1.539 . S
C1222 H1236 0.958 . S
C1222 H1237 0.961 . S
C1222 H1238 0.960 . S
H1223 C1207 0.931 . S
H1224 C1212 0.929 . S
H1225 C1213 0.960 . S
H1226 C1213 0.962 . S
H1227 C1213 0.960 . S
H1228 C1214 0.961 . S
H1229 C1214 0.961 . S
H1230 C1214 0.961 . S
H1231 C1215 0.931 . S
H1232 C1220 0.930 . S
H1233 C1221 0.956 . S
H1234 C1221 0.961 . S
H1235 C1221 0.961 . S
H1236 C1222 0.958 . S
H1237 C1222 0.961 . S
H1238 C1222 0.960 . S
C1239 C1240 1.391 . S
C1239 C1241 1.394 . S
C1239 H1255 0.931 . S
C1240 C1239 1.391 . S
C1240 C1244 1.376 . S
C1241 C1239 1.394 . S
C1241 C1242 1.369 . S
C1241 C1245 1.531 . S
C1242 C1241 1.369 . S
C1242 C1243 1.410 . S
C1242 C1250 1.503 . S
C1243 C1242 1.410 . S
C1243 C1244 1.392 . S
C1243 C1246 1.511 . S
C1244 C1240 1.376 . S
C1244 C1243 1.392 . S
C1244 H1256 0.929 . S
C1245 C1241 1.531 . S
C1245 H1257 0.960 . S
C1245 H1258 0.962 . S
C1245 H1259 0.960 . S
C1246 C1243 1.511 . S
C1246 H1260 0.961 . S
C1246 H1261 0.961 . S
C1246 H1262 0.961 . S
C1247 C1248 1.370 . S
C1247 C1249 1.363 1_554 S
C1247 H1263 0.931 . S
C1248 C1247 1.370 . S
C1248 C1252 1.408 . S
C1249 C1247 1.363 1_556 S
C1249 C1250 1.370 . S
C1249 C1253 1.524 . S
C1250 C1242 1.503 . S
C1250 C1249 1.370 . S
C1250 C1251 1.403 1_556 S
C1251 C1250 1.403 1_554 S
C1251 C1252 1.404 . S
C1251 C1254 1.539 1_554 S
C1252 C1248 1.408 . S
C1252 C1251 1.404 . S
C1252 H1264 0.930 . S
C1253 C1249 1.524 . S
C1253 H1265 0.956 . S
C1253 H1266 0.961 . S
C1253 H1267 0.961 . S
C1254 C1251 1.539 1_556 S
C1254 H1268 0.958 . S
C1254 H1269 0.961 1_556 S
C1254 H1270 0.960 . S
H1255 C1239 0.931 . S
H1256 C1244 0.929 . S
H1257 C1245 0.960 . S
H1258 C1245 0.962 . S
H1259 C1245 0.960 . S
H1260 C1246 0.961 . S
H1261 C1246 0.961 . S
H1262 C1246 0.961 . S
H1263 C1247 0.931 . S
H1264 C1252 0.930 . S
H1265 C1253 0.956 . S
H1266 C1253 0.961 . S
H1267 C1253 0.961 . S
H1268 C1254 0.958 . S
H1269 C1254 0.961 1_554 S
H1270 C1254 0.960 . S
C1271 C1272 1.391 . S
C1271 C1273 1.394 . S
C1271 H1287 0.931 . S
C1272 C1271 1.391 . S
C1272 C1276 1.376 . S
C1273 C1271 1.394 . S
C1273 C1274 1.369 . S
C1273 C1277 1.531 . S
C1274 C1273 1.369 . S
C1274 C1275 1.410 . S
C1274 C1282 1.503 1_554 S
C1275 C1274 1.410 . S
C1275 C1276 1.392 . S
C1275 C1278 1.511 . S
C1276 C1272 1.376 . S
C1276 C1275 1.392 . S
C1276 H1288 0.929 . S
C1277 C1273 1.531 . S
C1277 H1289 0.960 1_554 S
C1277 H1290 0.962 . S
C1277 H1291 0.960 . S
C1278 C1275 1.511 . S
C1278 H1292 0.961 . S
C1278 H1293 0.961 1_554 S
C1278 H1294 0.961 . S
C1279 C1280 1.370 . S
C1279 C1281 1.363 . S
C1279 H1295 0.931 . S
C1280 C1279 1.370 . S
C1280 C1284 1.408 . S
C1281 C1279 1.363 . S
C1281 C1282 1.370 . S
C1281 C1285 1.524 . S
C1282 C1274 1.503 1_556 S
C1282 C1281 1.370 . S
C1282 C1283 1.403 . S
C1283 C1282 1.403 . S
C1283 C1284 1.404 . S
C1283 C1286 1.539 . S
C1284 C1280 1.408 . S
C1284 C1283 1.404 . S
C1284 H1296 0.930 . S
C1285 C1281 1.524 . S
C1285 H1297 0.956 . S
C1285 H1298 0.961 . S
C1285 H1299 0.961 . S
C1286 C1283 1.539 . S
C1286 H1300 0.958 . S
C1286 H1301 0.961 . S
C1286 H1302 0.960 . S
H1287 C1271 0.931 . S
H1288 C1276 0.929 . S
H1289 C1277 0.960 1_556 S
H1290 C1277 0.962 . S
H1291 C1277 0.960 . S
H1292 C1278 0.961 . S
H1293 C1278 0.961 1_556 S
H1294 C1278 0.961 . S
H1295 C1279 0.931 . S
H1296 C1284 0.930 . S
H1297 C1285 0.956 . S
H1298 C1285 0.961 . S
H1299 C1285 0.961 . S
H1300 C1286 0.958 . S
H1301 C1286 0.961 . S
H1302 C1286 0.960 . S
C1303 C1304 1.391 . S
C1303 C1305 1.394 . S
C1303 H1319 0.931 . S
C1304 C1303 1.391 . S
C1304 C1308 1.376 . S
C1305 C1303 1.394 . S
C1305 C1306 1.369 . S
C1305 C1309 1.531 . S
C1306 C1305 1.369 . S
C1306 C1307 1.410 . S
C1306 C1314 1.503 . S
C1307 C1306 1.410 . S
C1307 C1308 1.392 . S
C1307 C1310 1.511 . S
C1308 C1304 1.376 . S
C1308 C1307 1.392 . S
C1308 H1320 0.929 . S
C1309 C1305 1.531 . S
C1309 H1321 0.960 . S
C1309 H1322 0.962 . S
C1309 H1323 0.960 . S
C1310 C1307 1.511 . S
C1310 H1324 0.961 . S
C1310 H1325 0.961 . S
C1310 H1326 0.961 . S
C1311 C1312 1.370 . S
C1311 C1313 1.363 1_554 S
C1311 H1327 0.931 . S
C1312 C1311 1.370 . S
C1312 C1316 1.408 . S
C1313 C1311 1.363 1_556 S
C1313 C1314 1.370 . S
C1313 C1317 1.524 . S
C1314 C1306 1.503 . S
C1314 C1313 1.370 . S
C1314 C1315 1.403 . S
C1315 C1314 1.403 . S
C1315 C1316 1.404 1_556 S
C1315 C1318 1.539 . S
C1316 C1312 1.408 . S
C1316 C1315 1.404 1_554 S
C1316 H1328 0.930 . S
C1317 C1313 1.524 . S
C1317 H1329 0.956 . S
C1317 H1330 0.961 . S
C1317 H1331 0.961 . S
C1318 C1315 1.539 . S
C1318 H1332 0.958 . S
C1318 H1333 0.961 . S
C1318 H1334 0.960 . S
H1319 C1303 0.931 . S
H1320 C1308 0.929 . S
H1321 C1309 0.960 . S
H1322 C1309 0.962 . S
H1323 C1309 0.960 . S
H1324 C1310 0.961 . S
H1325 C1310 0.961 . S
H1326 C1310 0.961 . S
H1327 C1311 0.931 . S
H1328 C1316 0.930 . S
H1329 C1317 0.956 . S
H1330 C1317 0.961 . S
H1331 C1317 0.961 . S
H1332 C1318 0.958 . S
H1333 C1318 0.961 . S
H1334 C1318 0.960 . S
C1335 C1336 1.391 . S
C1335 C1337 1.394 . S
C1335 H1351 0.931 . S
C1336 C1335 1.391 . S
C1336 C1340 1.376 . S
C1337 C1335 1.394 . S
C1337 C1338 1.369 . S
C1337 C1341 1.531 . S
C1338 C1337 1.369 . S
C1338 C1339 1.410 . S
C1338 C1346 1.503 . S
C1339 C1338 1.410 . S
C1339 C1340 1.392 . S
C1339 C1342 1.511 . S
C1340 C1336 1.376 . S
C1340 C1339 1.392 . S
C1340 H1352 0.929 . S
C1341 C1337 1.531 . S
C1341 H1353 0.960 . S
C1341 H1354 0.962 . S
C1341 H1355 0.960 . S
C1342 C1339 1.511 . S
C1342 H1356 0.961 . S
C1342 H1357 0.961 . S
C1342 H1358 0.961 . S
C1343 C1344 1.370 1_554 S
C1343 C1345 1.363 . S
C1343 H1359 0.931 . S
C1344 C1343 1.370 1_556 S
C1344 C1348 1.408 1_556 S
C1345 C1343 1.363 . S
C1345 C1346 1.370 . S
C1345 C1349 1.524 . S
C1346 C1338 1.503 . S
C1346 C1345 1.370 . S
C1346 C1347 1.403 . S
C1347 C1346 1.403 . S
C1347 C1348 1.404 . S
C1347 C1350 1.539 . S
C1348 C1344 1.408 1_554 S
C1348 C1347 1.404 . S
C1348 H1360 0.930 1_554 S
C1349 C1345 1.524 . S
C1349 H1361 0.956 . S
C1349 H1362 0.961 . S
C1349 H1363 0.961 . S
C1350 C1347 1.539 . S
C1350 H1364 0.958 . S
C1350 H1365 0.961 . S
C1350 H1366 0.960 . S
H1351 C1335 0.931 . S
H1352 C1340 0.929 . S
H1353 C1341 0.960 . S
H1354 C1341 0.962 . S
H1355 C1341 0.960 . S
H1356 C1342 0.961 . S
H1357 C1342 0.961 . S
H1358 C1342 0.961 . S
H1359 C1343 0.931 . S
H1360 C1348 0.930 1_556 S
H1361 C1349 0.956 . S
H1362 C1349 0.961 . S
H1363 C1349 0.961 . S
H1364 C1350 0.958 . S
H1365 C1350 0.961 . S
H1366 C1350 0.960 . S
C1367 C1368 1.391 . S
C1367 C1369 1.394 . S
C1367 H1383 0.931 . S
C1368 C1367 1.391 . S
C1368 C1372 1.376 . S
C1369 C1367 1.394 . S
C1369 C1370 1.369 . S
C1369 C1373 1.531 . S
C1370 C1369 1.369 . S
C1370 C1371 1.410 . S
C1370 C1378 1.503 . S
C1371 C1370 1.410 . S
C1371 C1372 1.392 . S
C1371 C1374 1.511 . S
C1372 C1368 1.376 . S
C1372 C1371 1.392 . S
C1372 H1384 0.929 . S
C1373 C1369 1.531 . S
C1373 H1385 0.960 . S
C1373 H1386 0.962 . S
C1373 H1387 0.960 . S
C1374 C1371 1.511 . S
C1374 H1388 0.961 . S
C1374 H1389 0.961 . S
C1374 H1390 0.961 . S
C1375 C1376 1.370 . S
C1375 C1377 1.363 . S
C1375 H1391 0.931 . S
C1376 C1375 1.370 . S
C1376 C1380 1.408 . S
C1377 C1375 1.363 . S
C1377 C1378 1.370 . S
C1377 C1381 1.524 . S
C1378 C1370 1.503 . S
C1378 C1377 1.370 . S
C1378 C1379 1.403 . S
C1379 C1378 1.403 . S
C1379 C1380 1.404 . S
C1379 C1382 1.539 . S
C1380 C1376 1.408 . S
C1380 C1379 1.404 . S
C1380 H1392 0.930 . S
C1381 C1377 1.524 . S
C1381 H1393 0.956 . S
C1381 H1394 0.961 . S
C1381 H1395 0.961 . S
C1382 C1379 1.539 . S
C1382 H1396 0.958 . S
C1382 H1397 0.961 . S
C1382 H1398 0.960 . S
H1383 C1367 0.931 . S
H1384 C1372 0.929 . S
H1385 C1373 0.960 . S
H1386 C1373 0.962 . S
H1387 C1373 0.960 . S
H1388 C1374 0.961 . S
H1389 C1374 0.961 . S
H1390 C1374 0.961 . S
H1391 C1375 0.931 . S
H1392 C1380 0.930 . S
H1393 C1381 0.956 . S
H1394 C1381 0.961 . S
H1395 C1381 0.961 . S
H1396 C1382 0.958 . S
H1397 C1382 0.961 . S
H1398 C1382 0.960 . S
C1399 C1400 1.391 . S
C1399 C1401 1.394 . S
C1399 H1415 0.931 . S
C1400 C1399 1.391 . S
C1400 C1404 1.376 . S
C1401 C1399 1.394 . S
C1401 C1402 1.369 . S
C1401 C1405 1.531 . S
C1402 C1401 1.369 . S
C1402 C1403 1.410 . S
C1402 C1410 1.503 . S
C1403 C1402 1.410 . S
C1403 C1404 1.392 . S
C1403 C1406 1.511 . S
C1404 C1400 1.376 . S
C1404 C1403 1.392 . S
C1404 H1416 0.929 . S
C1405 C1401 1.531 . S
C1405 H1417 0.960 . S
C1405 H1418 0.962 . S
C1405 H1419 0.960 . S
C1406 C1403 1.511 . S
C1406 H1420 0.961 . S
C1406 H1421 0.961 . S
C1406 H1422 0.961 . S
C1407 C1408 1.370 . S
C1407 C1409 1.363 1_556 S
C1407 H1423 0.931 . S
C1408 C1407 1.370 . S
C1408 C1412 1.408 . S
C1409 C1407 1.363 1_554 S
C1409 C1410 1.370 . S
C1409 C1413 1.524 . S
C1410 C1402 1.503 . S
C1410 C1409 1.370 . S
C1410 C1411 1.403 . S
C1411 C1410 1.403 . S
C1411 C1412 1.404 1_554 S
C1411 C1414 1.539 . S
C1412 C1408 1.408 . S
C1412 C1411 1.404 1_556 S
C1412 H1424 0.930 . S
C1413 C1409 1.524 . S
C1413 H1425 0.956 . S
C1413 H1426 0.961 . S
C1413 H1427 0.961 . S
C1414 C1411 1.539 . S
C1414 H1428 0.958 . S
C1414 H1429 0.961 . S
C1414 H1430 0.960 . S
H1415 C1399 0.931 . S
H1416 C1404 0.929 . S
H1417 C1405 0.960 . S
H1418 C1405 0.962 . S
H1419 C1405 0.960 . S
H1420 C1406 0.961 . S
H1421 C1406 0.961 . S
H1422 C1406 0.961 . S
H1423 C1407 0.931 . S
H1424 C1412 0.930 . S
H1425 C1413 0.956 . S
H1426 C1413 0.961 . S
H1427 C1413 0.961 . S
H1428 C1414 0.958 . S
H1429 C1414 0.961 . S
H1430 C1414 0.960 . S
C280 C24 1.867 . S
C288 C135 1.933 . S
C312 C166 1.824 . S
C320 C55 1.664 1_545 S
C344 C86 1.674 1_655 S
C352 C120 1.953 . S
C376 C31 1.595 . S
C384 C111 1.620 . S
C408 C62 1.595 1_545 S
C416 C125 1.638 . S
C440 C0 1.400 1_655 S
C448 C156 1.550 . S
C472 C117 1.893 . S
C480 C228 1.927 . S
C504 C259 1.842 . S
C512 C148 1.638 . S
C536 C213 1.951 . S
C544 C179 1.702 . S
C568 C124 1.581 . S
C576 C204 1.616 . S
C600 C218 1.630 . S
C608 C155 1.587 . S
C632 C249 1.548 . S
C640 C93 1.402 . S
C664 C210 1.872 . S
C672 C42 1.935 . S
C696 C241 1.646 . S
C704 C73 1.836 1_556 S
C728 C27 1.952 . S
C736 C272 1.702 . S
C760 C18 1.626 . S
C768 C217 1.600 . S
C792 C32 1.651 . S
C800 C248 1.605 . S
C824 C186 1.414 . S
C832 C63 1.552 . S
C856 C80 1.810 . S
C864 C11 1.798 . S
C888 C1 1.537 . S
C896 C58 1.516 . S
C920 C49 1.693 . S
C928 C89 1.610 1_655 S
C952 C173 1.803 . S
C960 C104 1.801 . S
C984 C94 1.564 . S
C992 C151 1.532 . S
C1016 C142 1.701 . S
C1024 C182 1.620 . S
C1048 C197 1.810 . S
C1056 C266 1.813 . S
C1080 C244 1.556 . S
C1088 C187 1.558 . S
C1112 C275 1.638 . S
C1120 C235 1.695 . S
C1144 C10 0.823 . S
C1152 C2 0.739 . S
C1176 C41 0.798 . S
C1184 C33 0.747 . S
C1208 C64 0.748 . S
C1216 C72 0.776 . S
C1240 C95 0.818 . S
C1248 C103 0.742 . S
C1272 C126 0.821 . S
C1280 C134 0.739 . S
C1304 C165 0.824 . S
C1312 C157 0.739 . S
C1336 C196 0.819 . S
C1344 C188 0.742 . S
C1368 C219 0.820 . S
C1376 C227 0.739 . S
C1400 C250 0.796 . S
C1408 C258 0.748 . S
