# Generated by pormake.
# Topology qtz-e, (6)-cn, num edge types: 1
# Building blocks:
#     Node 0, Type 0, BuildingBlock: JUFBIX_clean_sbu_0, # of connection points: 6
#     Node 1, Type 0, BuildingBlock: JUFBIX_clean_sbu_0, # of connection points: 6
#     Node 2, Type 0, BuildingBlock: JUFBIX_clean_sbu_0, # of connection points: 6
#     Node 3, Type 0, BuildingBlock: JUFBIX_clean_sbu_0, # of connection points: 6
#     Node 4, Type 0, BuildingBlock: JUFBIX_clean_sbu_0, # of connection points: 6
#     Node 5, Type 0, BuildingBlock: JUFBIX_clean_sbu_0, # of connection points: 6
#     Edge 6, Type (0, 0), BuildingBlock: UVAHIK_clean_linker_0, # of connection points: 2
#     Edge 7, Type (0, 0), BuildingBlock: UVAHIK_clean_linker_0, # of connection points: 2
#     Edge 8, Type (0, 0), BuildingBlock: UVAHIK_clean_linker_0, # of connection points: 2
#     Edge 9, Type (0, 0), BuildingBlock: UVAHIK_clean_linker_0, # of connection points: 2
#     Edge 10, Type (0, 0), BuildingBlock: UVAHIK_clean_linker_0, # of connection points: 2
#     Edge 11, Type (0, 0), BuildingBlock: UVAHIK_clean_linker_0, # of connection points: 2
#     Edge 12, Type (0, 0), BuildingBlock: UVAHIK_clean_linker_0, # of connection points: 2
#     Edge 13, Type (0, 0), BuildingBlock: UVAHIK_clean_linker_0, # of connection points: 2
#     Edge 14, Type (0, 0), BuildingBlock: UVAHIK_clean_linker_0, # of connection points: 2
#     Edge 15, Type (0, 0), BuildingBlock: UVAHIK_clean_linker_0, # of connection points: 2
#     Edge 16, Type (0, 0), BuildingBlock: UVAHIK_clean_linker_0, # of connection points: 2
#     Edge 17, Type (0, 0), BuildingBlock: UVAHIK_clean_linker_0, # of connection points: 2
#     Edge 18, Type (0, 0), BuildingBlock: UVAHIK_clean_linker_0, # of connection points: 2
#     Edge 19, Type (0, 0), BuildingBlock: UVAHIK_clean_linker_0, # of connection points: 2
#     Edge 20, Type (0, 0), BuildingBlock: UVAHIK_clean_linker_0, # of connection points: 2
#     Edge 21, Type (0, 0), BuildingBlock: UVAHIK_clean_linker_0, # of connection points: 2
#     Edge 22, Type (0, 0), BuildingBlock: UVAHIK_clean_linker_0, # of connection points: 2
#     Edge 23, Type (0, 0), BuildingBlock: UVAHIK_clean_linker_0, # of connection points: 2
# Relax obj value: 0.635
# Max RMSD: 0.295
# Mean RMSD: 0.295
data_MOF--net-qtz-e--node1-JUFBIX_clean_sbu_0--edge1-UVAHIK_clean_linker_0
_symmetry_space_group_name_H-M    P1
_symmetry_Int_Tables_number       1
_symmetry_cell_setting            triclinic
loop_
_symmetry_equiv_pos_as_xyz
'x, y, z'
_cell_length_a     33.402007
_cell_length_b     33.43375
_cell_length_c     47.117585
_cell_angle_alpha  90.149647
_cell_angle_beta   89.93907
_cell_angle_gamma 120.03053
loop_
_atom_site_label
_atom_site_type_symbol
_atom_site_fract_x
_atom_site_fract_y
_atom_site_fract_z
_atom_type_partial_charge
Co0 Co 0.2208 0.3998 0.12671 0.0
C1 C 0.25927 0.3578 0.09598 0.0
Co2 Co 0.17939 0.36327 0.08912 0.0
C3 C 0.23773 0.43986 0.18233 0.0
C4 C 0.30064 0.45306 0.16229 0.0
N5 N 0.25442 0.4309 0.15858 0.0
N6 N 0.27156 0.46734 0.20061 0.0
C7 C 0.31129 0.47552 0.18809 0.0
H8 H 0.20147 0.42835 0.18543 0.0
H9 H 0.32512 0.45422 0.1468 0.0
C10 C 0.14352 0.40943 0.11826 0.0
N11 N 0.14567 0.33263 0.05718 0.0
C12 C 0.1437 0.29549 0.04451 0.0
C13 C 0.12076 0.34451 0.04028 0.0
N14 N 0.11919 0.28401 0.02014 0.0
C15 C 0.10446 0.31473 0.0175 0.0
C16 C 0.1526 0.30946 0.13721 0.0
O17 O 0.17911 0.42197 0.13356 0.0
O18 O 0.13533 0.38096 0.09821 0.0
O19 O 0.14606 0.30897 0.11063 0.0
O20 O 0.1836 0.34639 0.14891 0.0
O21 O 0.22492 0.34715 0.07985 0.0
H22 H 0.1162 0.37399 0.04369 0.0
H23 H 0.16213 0.27877 0.05225 0.0
O24 O 0.26254 0.37856 0.11919 0.0
O25 O 0.25774 0.45299 0.10413 0.0
O26 O 0.2125 0.41766 0.06778 0.0
C27 C 0.24666 0.45336 0.07837 0.0
H28 H 0.34571 0.49713 0.19655 0.0
H29 H 0.08461 0.31658 -7e-05 0.0
Co30 Co 0.74329 0.16593 0.34962 0.0
C31 C 0.71162 0.08214 0.37493 0.0
Co32 Co 0.79016 0.16896 0.38354 0.0
C33 C 0.71944 0.19659 0.29901 0.0
C34 C 0.66018 0.13772 0.31642 0.0
N35 N 0.70594 0.16621 0.32061 0.0
N36 N 0.68414 0.18852 0.28169 0.0
C37 C 0.6467 0.15128 0.29234 0.0
H38 H 0.75457 0.22445 0.29598 0.0
H39 H 0.63782 0.10946 0.33023 0.0
C40 C 0.81979 0.25363 0.35997 0.0
N41 N 0.82728 0.16813 0.41224 0.0
C42 C 0.81177 0.14287 0.43608 0.0
C43 C 0.87353 0.18603 0.41277 0.0
N44 N 0.84606 0.14294 0.45116 0.0
C45 C 0.88523 0.17061 0.43679 0.0
C46 C 0.81242 0.14961 0.33089 0.0
O47 O 0.78298 0.23081 0.34561 0.0
O48 O 0.83139 0.23262 0.37762 0.0
O49 O 0.82297 0.1541 0.35703 0.0
O50 O 0.77868 0.1542 0.32273 0.0
O51 O 0.74784 0.10504 0.38976 0.0
H52 H 0.89686 0.2069 0.39607 0.0
H53 H 0.77556 0.12343 0.44174 0.0
O54 O 0.70386 0.10194 0.3545 0.0
O55 O 0.70803 0.17745 0.37673 0.0
O56 O 0.75711 0.18418 0.40996 0.0
C57 C 0.72123 0.18548 0.40247 0.0
H58 H 0.61195 0.13615 0.28393 0.0
H59 H 0.91941 0.17712 0.44237 0.0
Co60 Co 0.58644 0.8196 0.79998 0.0
C61 C 0.63121 0.90713 0.77687 0.0
Co62 Co 0.63325 0.82716 0.76485 0.0
C63 C 0.53554 0.78887 0.85244 0.0
C64 C 0.51767 0.83184 0.82828 0.0
N65 N 0.54591 0.81384 0.82838 0.0
N66 N 0.50156 0.79017 0.86718 0.0
C67 C 0.49026 0.81722 0.85207 0.0
H68 H 0.55106 0.76837 0.85832 0.0
H69 H 0.51617 0.85313 0.81153 0.0
C70 C 0.5851 0.73852 0.78692 0.0
N71 N 0.67392 0.83407 0.73619 0.0
C72 C 0.68415 0.86235 0.71376 0.0
C73 C 0.70331 0.81752 0.73437 0.0
N74 N 0.71947 0.86524 0.69833 0.0
C75 C 0.73139 0.8366 0.71095 0.0
C76 C 0.67404 0.84511 0.81817 0.0
O77 O 0.56906 0.75676 0.80375 0.0
O78 O 0.6148 0.76358 0.76838 0.0
O79 O 0.68063 0.84281 0.79183 0.0
O80 O 0.63448 0.83652 0.82686 0.0
O81 O 0.65027 0.8906 0.76113 0.0
H82 H 0.70555 0.79473 0.74973 0.0
H83 H 0.66668 0.88151 0.70924 0.0
O84 O 0.60326 0.8818 0.79589 0.0
O85 O 0.53837 0.80245 0.77273 0.0
O86 O 0.58573 0.81132 0.73794 0.0
C87 C 0.54562 0.80115 0.74636 0.0
H88 H 0.46342 0.82505 0.85752 0.0
H89 H 0.75973 0.8316 0.70457 0.0
Co90 Co 0.81231 0.58113 0.02287 0.0
C91 C 0.89504 0.62251 0.05178 0.0
Co92 Co 0.81179 0.62079 0.06019 0.0
C93 C 0.77611 0.51059 0.97963 0.0
C94 C 0.84769 0.55953 0.97309 0.0
N95 N 0.81235 0.54822 0.99121 0.0
N96 N 0.78709 0.49839 0.95474 0.0
C97 C 0.83229 0.52901 0.95066 0.0
H98 H 0.74166 0.49402 0.98853 0.0
H99 H 0.88198 0.58918 0.97541 0.0
C100 C 0.72795 0.57619 0.03232 0.0
N101 N 0.81267 0.65466 0.09142 0.0
C102 C 0.83699 0.6605 0.11533 0.0
C103 C 0.79767 0.68523 0.09342 0.0
N104 N 0.83965 0.69485 0.13179 0.0
C105 C 0.81427 0.71007 0.11823 0.0
C106 C 0.83863 0.67222 0.01104 0.0
O107 O 0.75008 0.56397 0.01592 0.0
O108 O 0.74888 0.60282 0.05313 0.0
O109 O 0.83151 0.67331 0.03738 0.0
O110 O 0.83248 0.63484 -5e-05 0.0
O111 O 0.8745 0.63762 0.06737 0.0
H112 H 0.77891 0.69144 0.07694 0.0
H113 H 0.85462 0.64149 0.11967 0.0
O114 O 0.87406 0.59774 0.03041 0.0
O115 O 0.79176 0.52754 0.04611 0.0
O116 O 0.79208 0.56815 0.08292 0.0
C117 C 0.78505 0.53009 0.0725 0.0
H118 H 0.85251 0.53022 0.93238 0.0
H119 H 0.81091 0.73939 0.12455 0.0
Co120 Co 0.16961 0.74583 0.46633 0.0
C121 C 0.08473 0.71074 0.44098 0.0
Co122 Co 0.16989 0.78996 0.43159 0.0
C123 C 0.20249 0.72675 0.51725 0.0
C124 C 0.14883 0.66397 0.49922 0.0
N125 N 0.17211 0.71024 0.49559 0.0
N126 N 0.20003 0.69297 0.53386 0.0
C127 C 0.16595 0.65322 0.52292 0.0
H128 H 0.22717 0.76304 0.52041 0.0
H129 H 0.12254 0.63958 0.48495 0.0
C130 C 0.2558 0.82274 0.45517 0.0
N131 N 0.16829 0.82675 0.40306 0.0
C132 C 0.14582 0.81313 0.37808 0.0
C133 C 0.18505 0.87278 0.40417 0.0
N134 N 0.14721 0.84866 0.36379 0.0
C135 C 0.17179 0.88632 0.38008 0.0
C136 C 0.15091 0.81333 0.48433 0.0
O137 O 0.23388 0.78674 0.47013 0.0
O138 O 0.23385 0.83252 0.43712 0.0
O139 O 0.15421 0.82234 0.45803 0.0
O140 O 0.15712 0.78091 0.49303 0.0
O141 O 0.10632 0.74665 0.42572 0.0
H142 H 0.20405 0.89473 0.42189 0.0
H143 H 0.12659 0.77742 0.37124 0.0
O144 O 0.10559 0.70461 0.46158 0.0
O145 O 0.18239 0.7112 0.43952 0.0
O146 O 0.18533 0.75697 0.40522 0.0
C147 C 0.1886 0.72252 0.41345 0.0
H148 H 0.156 0.61897 0.53054 0.0
H149 H 0.17864 0.92082 0.37523 0.0
Co150 Co 0.40379 0.22455 0.69276 0.0
C151 C 0.36015 0.26831 0.71656 0.0
Co152 Co 0.35379 0.18396 0.7262 0.0
C153 C 0.45521 0.24522 0.64086 0.0
C154 C 0.47938 0.30511 0.6673 0.0
N155 N 0.44691 0.26 0.66565 0.0
N156 N 0.49193 0.2791 0.62714 0.0
C157 C 0.50733 0.3169 0.64369 0.0
H158 H 0.43604 0.20969 0.6337 0.0
H159 H 0.48332 0.32755 0.68496 0.0
C160 C 0.40097 0.1425 0.70341 0.0
N161 N 0.31051 0.14781 0.75305 0.0
C162 C 0.30079 0.16115 0.77789 0.0
C163 C 0.28012 0.10211 0.75121 0.0
N164 N 0.26528 0.12567 0.79156 0.0
C165 C 0.25217 0.08841 0.77482 0.0
C166 C 0.317 0.16643 0.67162 0.0
O167 O 0.42013 0.17873 0.68839 0.0
O168 O 0.36963 0.13697 0.72092 0.0
O169 O 0.3078 0.15702 0.69772 0.0
O170 O 0.35797 0.19593 0.66433 0.0
O171 O 0.33965 0.23219 0.73179 0.0
H172 H 0.27792 0.08032 0.73357 0.0
H173 H 0.31848 0.19657 0.78532 0.0
O174 O 0.38797 0.2706 0.69742 0.0
O175 O 0.44962 0.25275 0.72166 0.0
O176 O 0.39971 0.21076 0.7545 0.0
C177 C 0.4405 0.24122 0.74759 0.0
H178 H 0.53712 0.35037 0.63928 0.0
H179 H 0.22425 0.05383 0.77924 0.0
C180 C 0.21161 0.66355 0.40234 0.0
C181 C 0.19906 0.69561 0.39289 0.0
C182 C 0.22104 0.63777 0.38285 0.0
C183 C 0.195 0.59273 0.31049 0.0
H184 H 0.30444 0.58104 0.31754 0.0
C185 C 0.22323 0.46871 0.23997 0.0
C186 C 0.26612 0.48855 0.22593 0.0
C187 C 0.21602 0.49193 0.26227 0.0
C188 C 0.27377 0.58404 0.31537 0.0
H189 H 0.18654 0.72584 0.35565 0.0
H190 H 0.20251 0.68036 0.32165 0.0
H191 H 0.29005 0.62704 0.35231 0.0
H192 H 0.33578 0.54765 0.22547 0.0
H193 H 0.32332 0.58765 0.26477 0.0
H194 H 0.17873 0.55002 0.27355 0.0
C195 C 0.20507 0.67527 0.34413 0.0
C196 C 0.26541 0.61006 0.3353 0.0
C197 C 0.19617 0.70143 0.36358 0.0
C198 C 0.30241 0.53107 0.23582 0.0
C199 C 0.29529 0.55412 0.25833 0.0
C200 C 0.20305 0.56631 0.2908 0.0
C201 C 0.21752 0.64316 0.35358 0.0
C202 C 0.22611 0.61491 0.3329 0.0
C203 C 0.25169 0.53527 0.27128 0.0
C204 C 0.24261 0.56188 0.29296 0.0
H205 H 0.21422 0.65838 0.4248 0.0
H206 H 0.23027 0.61301 0.39068 0.0
H207 H 0.16426 0.59561 0.30829 0.0
H208 H 0.19483 0.43554 0.23344 0.0
H209 H 0.1823 0.47625 0.27225 0.0
C210 C 0.48579 0.24389 0.58014 0.0
C211 C 0.51307 0.27413 0.60181 0.0
C212 C 0.50644 0.23691 0.55628 0.0
C213 C 0.61934 0.28477 0.51819 0.0
H214 H 0.56415 0.16038 0.48779 0.0
C215 C 0.71749 0.21984 0.44877 0.0
C216 C 0.69572 0.19692 0.42349 0.0
C217 C 0.69376 0.23113 0.46868 0.0
C218 C 0.57962 0.19535 0.49591 0.0
H219 H 0.58318 0.32071 0.61566 0.0
H220 H 0.61946 0.3076 0.57465 0.0
H221 H 0.52546 0.17698 0.5261 0.0
H222 H 0.63196 0.1674 0.39931 0.0
H223 H 0.58996 0.18616 0.43468 0.0
H224 H 0.67461 0.3023 0.48873 0.0
C225 C 0.58208 0.29026 0.57543 0.0
C226 C 0.55741 0.20503 0.51776 0.0
C227 C 0.56137 0.29774 0.59904 0.0
C228 C 0.64961 0.1852 0.41858 0.0
C229 C 0.62557 0.19575 0.43879 0.0
C230 C 0.64187 0.27487 0.49667 0.0
C231 C 0.55492 0.25949 0.5538 0.0
C232 C 0.57718 0.2498 0.52938 0.0
C233 C 0.64756 0.21901 0.46393 0.0
C234 C 0.62237 0.23002 0.48551 0.0
H235 H 0.44844 0.22567 0.58169 0.0
H236 H 0.48434 0.21371 0.53984 0.0
H237 H 0.63515 0.31986 0.5261 0.0
H238 H 0.75305 0.22943 0.45309 0.0
H239 H 0.71129 0.24871 0.48803 0.0
C240 C 0.2519 0.50192 0.03724 0.0
C241 C 0.27339 0.49417 0.06042 0.0
C242 C 0.27748 0.53824 0.01865 0.0
C243 C 0.39092 0.64559 0.00869 0.0
H244 H 0.35725 0.61837 0.9293 0.0
C245 C 0.5021 0.75292 0.91222 0.0
C246 C 0.47806 0.76319 0.89172 0.0
C247 C 0.47842 0.72383 0.93496 0.0
C248 C 0.36678 0.62652 0.95143 0.0
H249 H 0.33805 0.51865 0.08294 0.0
H250 H 0.38352 0.58131 0.04969 0.0
H251 H 0.31372 0.56019 0.96493 0.0
H252 H 0.41072 0.75173 0.87909 0.0
H253 H 0.36933 0.7005 0.9186 0.0
H254 H 0.44534 0.71165 0.99453 0.0
C255 C 0.34664 0.56009 0.04623 0.0
C256 C 0.34171 0.59335 0.9719 0.0
C257 C 0.32073 0.52414 0.06522 0.0
C258 C 0.43017 0.74476 0.89472 0.0
C259 C 0.40647 0.71524 0.91716 0.0
C260 C 0.41654 0.67864 0.98804 0.0
C261 C 0.3254 0.56702 0.02243 0.0
C262 C 0.35305 0.60259 0.00084 0.0
C263 C 0.43029 0.70406 0.93723 0.0
C264 C 0.40427 0.66943 0.9593 0.0
H265 H 0.21524 0.47964 0.03335 0.0
H266 H 0.25966 0.54336 0.00108 0.0
H267 H 0.40037 0.65402 0.03078 0.0
H268 H 0.53908 0.76703 0.91045 0.0
H269 H 0.49741 0.71547 0.95018 0.0
C270 C 0.66213 0.19745 0.23308 0.0
C271 C 0.68587 0.21709 0.25852 0.0
C272 C 0.66543 0.22582 0.21032 0.0
C273 C 0.68536 0.34002 0.19393 0.0
H274 H 0.74338 0.33525 0.12362 0.0
C275 C 0.77111 0.4958 0.12079 0.0
C276 C 0.76888 0.48957 0.09124 0.0
C277 C 0.7548 0.45806 0.13893 0.0
C278 C 0.72621 0.33647 0.14284 0.0
H279 H 0.73029 0.28116 0.28063 0.0
H280 H 0.73506 0.33071 0.24123 0.0
H281 H 0.72368 0.27561 0.15969 0.0
H282 H 0.748 0.43885 0.05746 0.0
H283 H 0.71853 0.37231 0.08937 0.0
H284 H 0.68778 0.40063 0.17754 0.0
C285 C 0.71452 0.29355 0.23872 0.0
C286 C 0.71505 0.30239 0.16344 0.0
C287 C 0.71206 0.26532 0.26111 0.0
C288 C 0.75029 0.44466 0.08017 0.0
C289 C 0.7335 0.40662 0.09844 0.0
C290 C 0.69584 0.37359 0.17327 0.0
C291 C 0.6915 0.27408 0.21311 0.0
C292 C 0.69591 0.30486 0.18946 0.0
C293 C 0.73528 0.41294 0.12805 0.0
C294 C 0.71795 0.37323 0.14791 0.0
H295 H 0.64192 0.16028 0.2307 0.0
H296 H 0.64745 0.21021 0.19069 0.0
H297 H 0.67014 0.34222 0.21377 0.0
H298 H 0.78574 0.53 0.13002 0.0
H299 H 0.75802 0.46443 0.16159 0.0
C300 C 0.51806 0.79886 0.69685 0.0
C301 C 0.50788 0.78789 0.72568 0.0
C302 C 0.48252 0.7868 0.67724 0.0
C303 C 0.3617 0.70558 0.66263 0.0
H304 H 0.36963 0.80151 0.61294 0.0
C305 C 0.21764 0.67479 0.58144 0.0
C306 C 0.23245 0.69887 0.55572 0.0
C307 C 0.24946 0.68376 0.60333 0.0
C308 C 0.36713 0.77407 0.62632 0.0
H309 H 0.45259 0.75498 0.75656 0.0
H310 H 0.39024 0.73302 0.72195 0.0
H311 H 0.42889 0.82061 0.64878 0.0
H312 H 0.29193 0.74863 0.53179 0.0
H313 H 0.34751 0.76306 0.5692 0.0
H314 H 0.30075 0.65862 0.63955 0.0
C315 C 0.4258 0.75126 0.71472 0.0
C316 C 0.40098 0.78518 0.64695 0.0
C317 C 0.46143 0.76405 0.73447 0.0
C318 C 0.2796 0.73042 0.55172 0.0
C319 C 0.31135 0.73884 0.57326 0.0
C320 C 0.32805 0.69424 0.64164 0.0
C321 C 0.43612 0.76289 0.686 0.0
C322 C 0.39884 0.75101 0.6651 0.0
C323 C 0.29665 0.71649 0.5996 0.0
C324 C 0.33072 0.7283 0.62298 0.0
H325 H 0.55353 0.81726 0.68946 0.0
H326 H 0.49128 0.79587 0.65514 0.0
H327 H 0.35949 0.67863 0.67638 0.0
H328 H 0.18135 0.65033 0.58488 0.0
H329 H 0.23688 0.66604 0.62337 0.0
C330 C 0.71346 0.42697 0.94427 0.0
C331 C 0.75527 0.46469 0.93483 0.0
C332 C 0.68032 0.3972 0.92481 0.0
C333 C 0.66208 0.36179 0.84912 0.0
H334 H 0.53653 0.33425 0.86374 0.0
C335 C 0.52204 0.29689 0.76205 0.0
C336 C 0.4769 0.26286 0.76947 0.0
C337 C 0.55629 0.31754 0.78281 0.0
C338 C 0.57125 0.341 0.85952 0.0
H339 H 0.79544 0.49973 0.89744 0.0
H340 H 0.73782 0.44792 0.86361 0.0
H341 H 0.59628 0.37591 0.89918 0.0
H342 H 0.43241 0.22342 0.80448 0.0
H343 H 0.49227 0.25926 0.84064 0.0
H344 H 0.63707 0.32752 0.8092 0.0
C345 C 0.73084 0.44102 0.88606 0.0
C346 C 0.6055 0.36482 0.87986 0.0
C347 C 0.76395 0.47077 0.9055 0.0
C348 C 0.46681 0.24968 0.79807 0.0
C349 C 0.50105 0.27034 0.81882 0.0
C350 C 0.62779 0.33795 0.82876 0.0
C351 C 0.68828 0.40446 0.89548 0.0
C352 C 0.6514 0.37594 0.87477 0.0
C353 C 0.54612 0.30462 0.81144 0.0
C354 C 0.58211 0.32775 0.83361 0.0
H355 H 0.70606 0.42082 0.96671 0.0
H356 H 0.64818 0.36883 0.93273 0.0
H357 H 0.69701 0.36932 0.84475 0.0
H358 H 0.53091 0.30786 0.74021 0.0
H359 H 0.59052 0.3443 0.77651 0.0
C360 C 0.33668 0.36525 0.10321 0.0
C361 C 0.30024 0.35718 0.08487 0.0
C362 C 0.38067 0.37929 0.09234 0.0
C363 C 0.46846 0.39749 0.05809 0.0
H364 H 0.51004 0.51694 0.02295 0.0
C365 C 0.65292 0.51209 0.01432 0.0
C366 C 0.67715 0.55346 0.02989 0.0
C367 C 0.60492 0.48528 0.0163 0.0
C368 C 0.49866 0.48344 0.03242 0.0
H369 H 0.28015 0.35323 0.04067 0.0
H370 H 0.35738 0.37898 0.02189 0.0
H371 H 0.42815 0.46752 0.03508 0.0
H372 H 0.66983 0.60077 0.05808 0.0
H373 H 0.5853 0.55438 0.06064 0.0
H374 H 0.53913 0.41369 0.05565 0.0
C375 C 0.35168 0.37408 0.04457 0.0
C376 C 0.45201 0.45515 0.03917 0.0
C377 C 0.30749 0.35907 0.05537 0.0
C378 C 0.6521 0.56908 0.04587 0.0
C379 C 0.60388 0.54264 0.04735 0.0
C380 C 0.51494 0.42533 0.05071 0.0
C381 C 0.38888 0.38611 0.06306 0.0
C382 C 0.43677 0.41237 0.05252 0.0
C383 C 0.58021 0.49988 0.0333 0.0
C384 C 0.53045 0.46885 0.03834 0.0
H385 H 0.33206 0.36407 0.12602 0.0
H386 H 0.40902 0.38851 0.10696 0.0
H387 H 0.45737 0.36479 0.06858 0.0
H388 H 0.67115 0.49899 0.00186 0.0
H389 H 0.58718 0.45247 0.00522 0.0
C390 C 0.02839 0.66932 0.40211 0.0
C391 C 0.0404 0.67185 0.43094 0.0
C392 C 0.99551 0.62731 0.39018 0.0
C393 C 0.97023 0.52853 0.37343 0.0
H394 H 0.8488 0.43803 0.40116 0.0
C395 C 0.88987 0.33005 0.37019 0.0
C396 C 0.84487 0.30454 0.35919 0.0
C397 C 0.91068 0.37788 0.37352 0.0
C398 C 0.88245 0.46323 0.393 0.0
H399 H 0.0236 0.63389 0.47052 0.0
H400 H 0.96493 0.56077 0.44976 0.0
H401 H 0.8858 0.51786 0.41882 0.0
H402 H 0.78696 0.30915 0.3421 0.0
H403 H 0.82305 0.39271 0.34884 0.0
H404 H 0.9683 0.47324 0.34913 0.0
C405 C 0.98158 0.59113 0.43638 0.0
C406 C 0.90351 0.50864 0.4031 0.0
C407 C 0.01514 0.63294 0.44824 0.0
C408 C 0.8218 0.32795 0.35051 0.0
C409 C 0.84221 0.37561 0.35446 0.0
C410 C 0.94965 0.48295 0.36384 0.0
C411 C 0.97333 0.58752 0.40702 0.0
C412 C 0.9478 0.54145 0.39364 0.0
C413 C 0.88644 0.40073 0.36645 0.0
C414 C 0.90592 0.44988 0.37386 0.0
H415 H 0.04723 0.69866 0.38817 0.0
H416 H 0.98943 0.62525 0.3675 0.0
H417 H 0.00473 0.55316 0.36615 0.0
H418 H 0.90838 0.31286 0.37706 0.0
H419 H 0.94481 0.39671 0.38293 0.0
C420 C 0.45435 0.11737 0.68379 0.0
C421 C 0.42048 0.11152 0.70372 0.0
C422 C 0.48015 0.09538 0.68753 0.0
C423 C 0.48731 0.006 0.73058 0.0
H424 H 0.61971 0.08474 0.71989 0.0
C425 C 0.61158 0.96781 0.78772 0.0
C426 C 0.63134 0.94979 0.76896 0.0
C427 C 0.59389 0.99484 0.77747 0.0
C428 C 0.58281 0.0625 0.72277 0.0
H429 H 0.38492 0.07567 0.74211 0.0
H430 H 0.43021 0.03803 0.74894 0.0
H431 H 0.56696 0.11126 0.70417 0.0
H432 H 0.65431 0.95152 0.72563 0.0
H433 H 0.6238 -0.00026 0.70785 0.0
H434 H 0.5035 0.95829 0.75034 0.0
C435 C 0.43669 0.05909 0.7302 0.0
C436 C 0.55252 0.07731 0.71359 0.0
C437 C 0.41066 0.08076 0.72633 0.0
C438 C 0.63917 0.96484 0.74058 0.0
C439 C 0.62156 0.99221 0.73034 0.0
C440 C 0.51754 0.99163 0.74008 0.0
C441 C 0.47272 0.0673 0.71134 0.0
C442 C 0.50445 0.04951 0.71789 0.0
C443 C 0.59632 0.00479 0.74844 0.0
C444 C 0.56544 0.02011 0.73672 0.0
H445 H 0.46243 0.14062 0.66598 0.0
H446 H 0.50689 0.10157 0.67226 0.0
H447 H 0.45054 0.98328 0.73364 0.0
H448 H 0.60554 0.95719 0.80976 0.0
H449 H 0.57492 0.00476 0.79179 0.0
C450 C 0.57415 0.66654 0.7637 0.0
C451 C 0.56442 0.68779 0.78629 0.0
C452 C 0.5486 0.61873 0.76012 0.0
C453 C 0.43458 0.5189 0.77791 0.0
H454 H 0.48775 0.45116 0.74278 0.0
C455 C 0.35367 0.31898 0.75317 0.0
C456 C 0.36093 0.3113 0.72473 0.0
C457 C 0.37074 0.36413 0.7632 0.0
C458 C 0.47255 0.46978 0.75262 0.0
H459 H 0.52232 0.6753 0.82396 0.0
H460 H 0.47857 0.59157 0.81812 0.0
H461 H 0.53832 0.53055 0.7582 0.0
H462 H 0.38588 0.34384 0.68375 0.0
H463 H 0.41558 0.42226 0.70133 0.0
H464 H 0.36865 0.45705 0.77244 0.0
C465 C 0.50509 0.61201 0.80273 0.0
C466 C 0.5014 0.51523 0.76136 0.0
C467 C 0.53049 0.65995 0.80621 0.0
C468 C 0.38019 0.34876 0.70582 0.0
C469 C 0.39735 0.39362 0.71585 0.0
C470 C 0.40568 0.47297 0.76949 0.0
C471 C 0.51301 0.59097 0.77921 0.0
C472 C 0.48274 0.54082 0.77341 0.0
C473 C 0.39498 0.4017 0.74483 0.0
C474 C 0.42451 0.44865 0.75613 0.0
H475 H 0.59991 0.68697 0.7479 0.0
H476 H 0.55536 0.60388 0.74155 0.0
H477 H 0.41897 0.53771 0.78689 0.0
H478 H 0.33909 0.29078 0.76824 0.0
H479 H 0.36862 0.36983 0.78566 0.0
C480 C 0.12808 0.46817 0.14117 0.0
C481 C 0.11718 0.43401 0.12028 0.0
C482 C 0.11052 0.4983 0.13925 0.0
C483 C 0.08688 0.5589 0.08751 0.0
H484 H 0.98911 0.55815 0.13227 0.0
C485 C 0.96164 0.61036 0.04304 0.0
C486 C 0.93875 0.62581 0.06112 0.0
C487 C 0.99493 0.60098 0.05376 0.0
C488 C 0.01742 0.55994 0.12004 0.0
H489 H 0.0768 0.4027 0.08219 0.0
H490 H 0.04691 0.4557 0.07879 0.0
H491 H 0.02163 0.50997 0.14658 0.0
H492 H 0.93622 0.64829 0.10399 0.0
H493 H 0.99496 0.63235 0.12271 0.0
H494 H 0.08227 0.60771 0.06051 0.0
C495 C 0.06905 0.45903 0.09651 0.0
C496 C 0.03568 0.53209 0.12818 0.0
C497 C 0.086 0.42862 0.09859 0.0
C498 C 0.95311 0.63616 0.08955 0.0
C499 C 0.98645 0.62663 0.10034 0.0
C500 C 0.06913 0.58711 0.07957 0.0
C501 C 0.08229 0.49482 0.1163 0.0
C502 C 0.06922 0.53017 0.11131 0.0
C503 C 0.00613 0.60693 0.08282 0.0
C504 C 0.03276 0.58642 0.09501 0.0
H505 H 0.15198 0.47313 0.15816 0.0
H506 H 0.12086 0.52571 0.15477 0.0
H507 H 0.1131 0.55803 0.07439 0.0
H508 H 0.95153 0.60234 0.02099 0.0
H509 H 0.00907 0.58559 0.03962 0.0
C510 C 0.33068 0.82754 0.46721 0.0
C511 C 0.30677 0.84857 0.4559 0.0
C512 C 0.37837 0.84779 0.46359 0.0
C513 C 0.48532 0.95313 0.45092 0.0
H514 H 0.52024 0.88305 0.40095 0.0
C515 C 0.63503 0.01091 0.36828 0.0
C516 C 0.67384 0.03767 0.38545 0.0
C517 C 0.59341 0.9778 0.38047 0.0
C518 C 0.51101 0.90249 0.41532 0.0
H519 H 0.31432 0.90865 0.43367 0.0
H520 H 0.39836 0.94498 0.42828 0.0
H521 H 0.44019 0.8484 0.41797 0.0
H522 H 0.70099 0.04732 0.42834 0.0
H523 H 0.62784 0.99035 0.4496 0.0
H524 H 0.55576 0.00754 0.44788 0.0
C525 C 0.37978 0.91246 0.43951 0.0
C526 C 0.46549 0.88282 0.42502 0.0
C527 C 0.33186 0.89171 0.44256 0.0
C528 C 0.67169 0.02731 0.41453 0.0
C529 C 0.62982 0.9949 0.42678 0.0
C530 C 0.53102 0.97237 0.44178 0.0
C531 C 0.40304 0.88991 0.44926 0.0
C532 C 0.45218 0.90849 0.44228 0.0
C533 C 0.58997 0.97155 0.41 0.0
C534 C 0.54393 0.94761 0.42338 0.0
H535 H 0.31229 0.79419 0.47754 0.0
H536 H 0.39583 0.83001 0.4713 0.0
H537 H 0.47559 0.97343 0.46416 0.0
H538 H 0.63577 0.01808 0.34581 0.0
H539 H 0.56297 0.96018 0.36716 0.0
C540 C 0.19636 0.0983 0.82216 0.0
C541 C 0.2439 0.12805 0.81754 0.0
C542 C 0.17501 0.10293 0.84647 0.0
C543 C 0.19879 0.1553 0.91813 0.0
H544 H 0.08878 0.16415 0.90536 0.0
C545 C 0.11333 0.25899 0.97018 0.0
C546 C 0.11702 0.25152 -0.00083 0.0
C547 C 0.11867 0.23193 0.94961 0.0
C548 C 0.11926 0.16141 0.90929 0.0
H549 H 0.30666 0.18444 0.83535 0.0
H550 H 0.26943 0.19292 0.8776 0.0
H551 H 0.12046 0.13974 0.86668 0.0
H552 H 0.12493 0.20696 0.02925 0.0
H553 H 0.13471 0.15995 0.99324 0.0
H554 H 0.1991 0.17929 0.96024 0.0
C555 C 0.24866 0.16587 0.86252 0.0
C556 C 0.13718 0.14707 0.88724 0.0
C557 C 0.26991 0.16143 0.83817 0.0
C558 C 0.12303 0.21434 0.00711 0.0
C559 C 0.1285 0.18733 0.98651 0.0
C560 C 0.18081 0.16947 0.94018 0.0
C561 C 0.20087 0.13714 0.86673 0.0
C562 C 0.17795 0.14526 0.89121 0.0
C563 C 0.12779 0.19679 0.95754 0.0
C564 C 0.14166 0.17402 0.93574 0.0
H565 H 0.17535 0.07245 0.80656 0.0
H566 H 0.13817 0.08015 0.84925 0.0
H567 H 0.22992 0.15363 0.92187 0.0
H568 H 0.10909 0.28745 0.96323 0.0
H569 H 0.11844 0.24045 0.92747 0.0
C570 C 0.82489 0.12665 0.28256 0.0
C571 C 0.84115 0.14228 0.31013 0.0
C572 C 0.85413 0.12444 0.26217 0.0
C573 C 0.93096 0.16258 0.2194 0.0
H574 H 0.04055 0.15585 0.23795 0.0
C575 C 0.12569 0.27057 0.18426 0.0
C576 C 0.12049 0.2695 0.15464 0.0
C577 C 0.09028 0.23759 0.20121 0.0
C578 C 0.00979 0.15718 0.23238 0.0
H579 H 0.89988 0.16572 0.33844 0.0
H580 H 0.9514 0.1643 0.30278 0.0
H581 H 0.97659 0.12717 0.27177 0.0
H582 H 0.0762 0.23036 0.11937 0.0
H583 H 0.01418 0.17332 0.14908 0.0
H584 H 0.96454 0.1935 0.18036 0.0
C585 C 0.91585 0.15223 0.29685 0.0
C586 C 0.97329 0.14114 0.25178 0.0
C587 C 0.88638 0.15354 0.31733 0.0
C588 C 0.08106 0.23248 0.14217 0.0
C589 C 0.04553 0.19976 0.15912 0.0
C590 C 0.967 0.1778 0.19989 0.0
C591 C 0.90052 0.13883 0.26878 0.0
C592 C 0.93433 0.14563 0.24605 0.0
C593 C 0.04902 0.20322 0.18881 0.0
C594 C 0.0075 0.17701 0.20667 0.0
H595 H 0.78989 0.11705 0.27659 0.0
H596 H 0.84073 0.11285 0.24099 0.0
H597 H 0.90205 0.16733 0.21423 0.0
H598 H 0.15583 0.29845 0.19449 0.0
H599 H 0.09374 0.24122 0.22407 0.0
C600 C 0.74257 0.93851 0.67386 0.0
C601 C 0.74208 0.89629 0.67508 0.0
C602 C 0.76096 0.96727 0.65043 0.0
C603 C 0.76258 0.99598 0.58997 0.0
H604 H 0.87859 0.03078 0.552 0.0
C605 C 0.79893 0.07258 0.47917 0.0
C606 C 0.84041 0.11457 0.47544 0.0
C607 C 0.79182 0.04604 0.50331 0.0
C608 C 0.84626 0.0214 0.56255 0.0
H609 H 0.76287 0.85232 0.6535 0.0
H610 H 0.79513 0.90298 0.61204 0.0
H611 H 0.85841 0.98501 0.59591 0.0
H612 H 0.90794 0.16042 0.49348 0.0
H613 H 0.89539 0.11344 0.53611 0.0
H614 H 0.74997 0.03176 0.55689 0.0
C615 C 0.78124 0.91358 0.62941 0.0
C616 C 0.83461 0.99506 0.58744 0.0
C617 C 0.76271 0.8846 0.65301 0.0
C618 C 0.87561 0.12831 0.49585 0.0
C619 C 0.8685 0.10146 0.52013 0.0
C620 C 0.77394 0.02173 0.56514 0.0
C621 C 0.77935 0.95456 0.62766 0.0
C622 C 0.79268 0.98231 0.60137 0.0
C623 C 0.82608 0.06065 0.52429 0.0
C624 C 0.8157 0.03452 0.55111 0.0
H625 H 0.7283 0.94922 0.69094 0.0
H626 H 0.75995 -0.00084 0.64986 0.0
H627 H 0.72981 0.98619 0.60009 0.0
H628 H 0.77171 0.0601 0.46343 0.0
H629 H 0.75917 0.0142 0.50576 0.0
C630 C 0.71003 0.86829 0.86627 0.0
C631 C 0.71071 0.85322 0.83857 0.0
C632 C 0.74122 0.86977 0.88655 0.0
C633 C 0.77683 0.82852 0.92882 0.0
H634 H 0.89018 0.82882 0.91035 0.0
C635 C 0.85204 0.71064 0.96365 0.0
C636 C 0.84862 0.71249 0.99328 0.0
C637 C 0.85218 0.74489 0.94664 0.0
C638 C 0.85893 0.82929 0.91589 0.0
H639 H 0.74599 0.83043 0.80978 0.0
H640 H 0.79817 0.83014 0.84524 0.0
H641 H 0.85879 0.86198 0.87698 0.0
H642 H 0.84744 0.75402 0.02849 0.0
H643 H 0.84684 0.81313 -0.0013 0.0
H644 H 0.77665 0.79527 0.96745 0.0
C645 C 0.77504 0.84251 0.85143 0.0
C646 C 0.84066 0.84787 0.89675 0.0
C647 C 0.74469 0.84219 0.83104 0.0
C648 C 0.84948 0.75124 0.00568 0.0
C649 C 0.84926 0.7852 0.98869 0.0
C650 C 0.79559 0.81093 0.94811 0.0
C651 C 0.77273 0.85482 0.87972 0.0
C652 C 0.79817 0.84572 0.9024 0.0
C653 C 0.84863 0.78126 0.95904 0.0
C654 C 0.83572 0.80943 0.94133 0.0
H655 H 0.68459 0.87774 0.87247 0.0
H656 H 0.73927 0.88082 0.90787 0.0
H657 H 0.74379 0.82537 0.93396 0.0
H658 H 0.85181 0.68141 0.9535 0.0
H659 H 0.85141 0.74094 0.92379 0.0
C660 C 0.09895 0.87032 0.33552 0.0
C661 C 0.12234 0.84539 0.33829 0.0
C662 C 0.07091 0.86345 0.31192 0.0
C663 C 0.04914 0.82154 0.23877 0.0
H664 H 0.91958 0.77754 0.25433 0.0
C665 C 0.90966 0.71132 0.15877 0.0
C666 C 0.87079 0.71671 0.15532 0.0
C667 C 0.94137 0.7343 0.18038 0.0
C668 C 0.95576 0.79071 0.24953 0.0
H669 H 0.1366 0.79549 0.31838 0.0
H670 H 0.08837 0.78413 0.27672 0.0
H671 H 0.97573 0.8074 0.29311 0.0
H672 H 0.83476 0.75029 0.17242 0.0
H673 H 0.89106 0.79143 0.21005 0.0
H674 H 0.02957 0.80463 0.19537 0.0
C675 C 0.09145 0.80868 0.29285 0.0
C676 C 0.98782 0.80772 0.27172 0.0
C677 C 0.11872 0.81489 0.31666 0.0
C678 C 0.86441 0.74558 0.17432 0.0
C679 C 0.8965 0.76892 0.19598 0.0
C680 C 0.0173 0.80513 0.21658 0.0
C681 C 0.06671 0.8323 0.29053 0.0
C682 C 0.03446 0.82183 0.26661 0.0
C683 C 0.93557 0.7638 0.19904 0.0
C684 C 0.97 0.78792 0.22187 0.0
H685 H 0.10092 0.89367 0.35213 0.0
H686 H 0.05209 0.88199 0.31052 0.0
H687 H 0.08509 0.83287 0.23432 0.0
H688 H 0.91653 0.69016 0.14448 0.0
H689 H 0.97048 0.72869 0.1825 0.0
C690 C 0.23601 0.10808 0.65812 0.0
C691 C 0.28191 0.13879 0.65003 0.0
C692 C 0.2051 0.0752 0.63897 0.0
C693 C 0.19276 0.03499 0.56357 0.0
H694 H 0.1326 0.91378 0.59842 0.0
C695 C 0.12981 0.87372 0.4947 0.0
C696 C 0.14401 0.84312 0.50452 0.0
C697 C 0.13011 0.90695 0.51283 0.0
C698 C 0.14904 0.94735 0.58833 0.0
H699 H 0.33038 0.16171 0.61493 0.0
H700 H 0.27725 0.10379 0.58188 0.0
H701 H 0.16544 0.98222 0.62823 0.0
H702 H 0.1669 0.82132 0.54136 0.0
H703 H 0.16905 0.88011 0.57273 0.0
H704 H 0.18016 0.00021 0.52377 0.0
C705 C 0.26453 0.10529 0.60277 0.0
C706 C 0.16731 0.98674 0.60543 0.0
C707 C 0.29525 0.13845 0.62182 0.0
C708 C 0.15576 0.84445 0.53321 0.0
C709 C 0.15665 0.87806 0.55125 0.0
C710 C 0.17502 0.99561 0.54648 0.0
C711 C 0.21965 0.07208 0.61146 0.0
C712 C 0.19114 0.03107 0.59328 0.0
C713 C 0.14523 0.91066 0.54105 0.0
C714 C 0.15469 0.95136 0.55872 0.0
H715 H 0.22456 0.10794 0.67966 0.0
H716 H 0.17048 0.05085 0.64615 0.0
H717 H 0.20996 0.06858 0.5535 0.0
H718 H 0.11995 0.87306 0.47273 0.0
H719 H 0.12013 0.93082 0.50444 0.0
loop_
_geom_bond_atom_site_label_1
_geom_bond_atom_site_label_2
_geom_bond_distance
_geom_bond_site_symmetry_2
_ccdc_geom_bond_type
Co0 N5 2.057 . S
Co0 O17 2.021 . S
Co0 O20 2.062 . S
Co0 O24 2.117 . S
Co0 O25 2.020 . S
C1 O21 1.259 . S
C1 O24 1.258 . S
Co2 N11 2.057 . S
Co2 O18 2.117 . S
Co2 O19 2.020 . S
Co2 O21 2.021 . S
Co2 O26 2.062 . S
C3 N5 1.316 . S
C3 N6 1.347 . S
C3 H8 0.931 . S
C4 N5 1.375 . S
C4 C7 1.350 . S
C4 H9 0.930 . S
N5 Co0 2.057 . S
N5 C3 1.316 . S
N5 C4 1.375 . S
N6 C3 1.347 . S
N6 C7 1.373 . S
C7 C4 1.350 . S
C7 N6 1.373 . S
C7 H28 0.931 . S
H8 C3 0.931 . S
H9 C4 0.930 . S
C10 O17 1.259 . S
C10 O18 1.258 . S
N11 Co2 2.057 . S
N11 C12 1.316 . S
N11 C13 1.375 . S
C12 N11 1.316 . S
C12 N14 1.347 . S
C12 H23 0.931 . S
C13 N11 1.375 . S
C13 C15 1.350 . S
C13 H22 0.930 . S
N14 C12 1.347 . S
N14 C15 1.373 . S
C15 C13 1.350 . S
C15 N14 1.373 . S
C15 H29 0.931 . S
C16 O19 1.256 . S
C16 O20 1.255 . S
O17 Co0 2.021 . S
O17 C10 1.259 . S
O18 Co2 2.117 . S
O18 C10 1.258 . S
O19 Co2 2.020 . S
O19 C16 1.256 . S
O20 Co0 2.062 . S
O20 C16 1.255 . S
O21 C1 1.259 . S
O21 Co2 2.021 . S
H22 C13 0.930 . S
H23 C12 0.931 . S
O24 Co0 2.117 . S
O24 C1 1.258 . S
O25 Co0 2.020 . S
O25 C27 1.256 . S
O26 Co2 2.062 . S
O26 C27 1.255 . S
C27 O25 1.256 . S
C27 O26 1.255 . S
H28 C7 0.931 . S
H29 C15 0.931 . S
Co30 N35 2.057 . S
Co30 O47 2.021 . S
Co30 O50 2.062 . S
Co30 O54 2.117 . S
Co30 O55 2.020 . S
C31 O51 1.259 . S
C31 O54 1.258 . S
Co32 N41 2.057 . S
Co32 O48 2.117 . S
Co32 O49 2.020 . S
Co32 O51 2.021 . S
Co32 O56 2.062 . S
C33 N35 1.316 . S
C33 N36 1.347 . S
C33 H38 0.931 . S
C34 N35 1.375 . S
C34 C37 1.350 . S
C34 H39 0.930 . S
N35 Co30 2.057 . S
N35 C33 1.316 . S
N35 C34 1.375 . S
N36 C33 1.347 . S
N36 C37 1.373 . S
C37 C34 1.350 . S
C37 N36 1.373 . S
C37 H58 0.931 . S
H38 C33 0.931 . S
H39 C34 0.930 . S
C40 O47 1.259 . S
C40 O48 1.258 . S
N41 Co32 2.057 . S
N41 C42 1.316 . S
N41 C43 1.375 . S
C42 N41 1.316 . S
C42 N44 1.347 . S
C42 H53 0.931 . S
C43 N41 1.375 . S
C43 C45 1.350 . S
C43 H52 0.930 . S
N44 C42 1.347 . S
N44 C45 1.373 . S
C45 C43 1.350 . S
C45 N44 1.373 . S
C45 H59 0.931 . S
C46 O49 1.256 . S
C46 O50 1.255 . S
O47 Co30 2.021 . S
O47 C40 1.259 . S
O48 Co32 2.117 . S
O48 C40 1.258 . S
O49 Co32 2.020 . S
O49 C46 1.256 . S
O50 Co30 2.062 . S
O50 C46 1.255 . S
O51 C31 1.259 . S
O51 Co32 2.021 . S
H52 C43 0.930 . S
H53 C42 0.931 . S
O54 Co30 2.117 . S
O54 C31 1.258 . S
O55 Co30 2.020 . S
O55 C57 1.256 . S
O56 Co32 2.062 . S
O56 C57 1.255 . S
C57 O55 1.256 . S
C57 O56 1.255 . S
H58 C37 0.931 . S
H59 C45 0.931 . S
Co60 N65 2.057 . S
Co60 O77 2.021 . S
Co60 O80 2.062 . S
Co60 O84 2.117 . S
Co60 O85 2.020 . S
C61 O81 1.259 . S
C61 O84 1.258 . S
Co62 N71 2.057 . S
Co62 O78 2.117 . S
Co62 O79 2.020 . S
Co62 O81 2.021 . S
Co62 O86 2.062 . S
C63 N65 1.316 . S
C63 N66 1.347 . S
C63 H68 0.931 . S
C64 N65 1.375 . S
C64 C67 1.350 . S
C64 H69 0.930 . S
N65 Co60 2.057 . S
N65 C63 1.316 . S
N65 C64 1.375 . S
N66 C63 1.347 . S
N66 C67 1.373 . S
C67 C64 1.350 . S
C67 N66 1.373 . S
C67 H88 0.931 . S
H68 C63 0.931 . S
H69 C64 0.930 . S
C70 O77 1.259 . S
C70 O78 1.258 . S
N71 Co62 2.057 . S
N71 C72 1.316 . S
N71 C73 1.375 . S
C72 N71 1.316 . S
C72 N74 1.347 . S
C72 H83 0.931 . S
C73 N71 1.375 . S
C73 C75 1.350 . S
C73 H82 0.930 . S
N74 C72 1.347 . S
N74 C75 1.373 . S
C75 C73 1.350 . S
C75 N74 1.373 . S
C75 H89 0.931 . S
C76 O79 1.256 . S
C76 O80 1.255 . S
O77 Co60 2.021 . S
O77 C70 1.259 . S
O78 Co62 2.117 . S
O78 C70 1.258 . S
O79 Co62 2.020 . S
O79 C76 1.256 . S
O80 Co60 2.062 . S
O80 C76 1.255 . S
O81 C61 1.259 . S
O81 Co62 2.021 . S
H82 C73 0.930 . S
H83 C72 0.931 . S
O84 Co60 2.117 . S
O84 C61 1.258 . S
O85 Co60 2.020 . S
O85 C87 1.256 . S
O86 Co62 2.062 . S
O86 C87 1.255 . S
C87 O85 1.256 . S
C87 O86 1.255 . S
H88 C67 0.931 . S
H89 C75 0.931 . S
Co90 N95 2.057 . S
Co90 O107 2.021 . S
Co90 O110 2.062 . S
Co90 O114 2.117 . S
Co90 O115 2.020 . S
C91 O111 1.259 . S
C91 O114 1.258 . S
Co92 N101 2.057 . S
Co92 O108 2.117 . S
Co92 O109 2.020 . S
Co92 O111 2.021 . S
Co92 O116 2.062 . S
C93 N95 1.316 1_556 S
C93 N96 1.347 . S
C93 H98 0.931 . S
C94 N95 1.375 1_556 S
C94 C97 1.350 . S
C94 H99 0.930 . S
N95 Co90 2.057 . S
N95 C93 1.316 1_554 S
N95 C94 1.375 1_554 S
N96 C93 1.347 . S
N96 C97 1.373 . S
C97 C94 1.350 . S
C97 N96 1.373 . S
C97 H118 0.931 . S
H98 C93 0.931 . S
H99 C94 0.930 . S
C100 O107 1.259 . S
C100 O108 1.258 . S
N101 Co92 2.057 . S
N101 C102 1.316 . S
N101 C103 1.375 . S
C102 N101 1.316 . S
C102 N104 1.347 . S
C102 H113 0.931 . S
C103 N101 1.375 . S
C103 C105 1.350 . S
C103 H112 0.930 . S
N104 C102 1.347 . S
N104 C105 1.373 . S
C105 C103 1.350 . S
C105 N104 1.373 . S
C105 H119 0.931 . S
C106 O109 1.256 . S
C106 O110 1.255 . S
O107 Co90 2.021 . S
O107 C100 1.259 . S
O108 Co92 2.117 . S
O108 C100 1.258 . S
O109 Co92 2.020 . S
O109 C106 1.256 . S
O110 Co90 2.062 . S
O110 C106 1.255 . S
O111 C91 1.259 . S
O111 Co92 2.021 . S
H112 C103 0.930 . S
H113 C102 0.931 . S
O114 Co90 2.117 . S
O114 C91 1.258 . S
O115 Co90 2.020 . S
O115 C117 1.256 . S
O116 Co92 2.062 . S
O116 C117 1.255 . S
C117 O115 1.256 . S
C117 O116 1.255 . S
H118 C97 0.931 . S
H119 C105 0.931 . S
Co120 N125 2.057 . S
Co120 O137 2.021 . S
Co120 O140 2.062 . S
Co120 O144 2.117 . S
Co120 O145 2.020 . S
C121 O141 1.259 . S
C121 O144 1.258 . S
Co122 N131 2.057 . S
Co122 O138 2.117 . S
Co122 O139 2.020 . S
Co122 O141 2.021 . S
Co122 O146 2.062 . S
C123 N125 1.316 . S
C123 N126 1.347 . S
C123 H128 0.931 . S
C124 N125 1.375 . S
C124 C127 1.350 . S
C124 H129 0.930 . S
N125 Co120 2.057 . S
N125 C123 1.316 . S
N125 C124 1.375 . S
N126 C123 1.347 . S
N126 C127 1.373 . S
C127 C124 1.350 . S
C127 N126 1.373 . S
C127 H148 0.931 . S
H128 C123 0.931 . S
H129 C124 0.930 . S
C130 O137 1.259 . S
C130 O138 1.258 . S
N131 Co122 2.057 . S
N131 C132 1.316 . S
N131 C133 1.375 . S
C132 N131 1.316 . S
C132 N134 1.347 . S
C132 H143 0.931 . S
C133 N131 1.375 . S
C133 C135 1.350 . S
C133 H142 0.930 . S
N134 C132 1.347 . S
N134 C135 1.373 . S
C135 C133 1.350 . S
C135 N134 1.373 . S
C135 H149 0.931 . S
C136 O139 1.256 . S
C136 O140 1.255 . S
O137 Co120 2.021 . S
O137 C130 1.259 . S
O138 Co122 2.117 . S
O138 C130 1.258 . S
O139 Co122 2.020 . S
O139 C136 1.256 . S
O140 Co120 2.062 . S
O140 C136 1.255 . S
O141 C121 1.259 . S
O141 Co122 2.021 . S
H142 C133 0.930 . S
H143 C132 0.931 . S
O144 Co120 2.117 . S
O144 C121 1.258 . S
O145 Co120 2.020 . S
O145 C147 1.256 . S
O146 Co122 2.062 . S
O146 C147 1.255 . S
C147 O145 1.256 . S
C147 O146 1.255 . S
H148 C127 0.931 . S
H149 C135 0.931 . S
Co150 N155 2.057 . S
Co150 O167 2.021 . S
Co150 O170 2.062 . S
Co150 O174 2.117 . S
Co150 O175 2.020 . S
C151 O171 1.259 . S
C151 O174 1.258 . S
Co152 N161 2.057 . S
Co152 O168 2.117 . S
Co152 O169 2.020 . S
Co152 O171 2.021 . S
Co152 O176 2.062 . S
C153 N155 1.316 . S
C153 N156 1.347 . S
C153 H158 0.931 . S
C154 N155 1.375 . S
C154 C157 1.350 . S
C154 H159 0.930 . S
N155 Co150 2.057 . S
N155 C153 1.316 . S
N155 C154 1.375 . S
N156 C153 1.347 . S
N156 C157 1.373 . S
C157 C154 1.350 . S
C157 N156 1.373 . S
C157 H178 0.931 . S
H158 C153 0.931 . S
H159 C154 0.930 . S
C160 O167 1.259 . S
C160 O168 1.258 . S
N161 Co152 2.057 . S
N161 C162 1.316 . S
N161 C163 1.375 . S
C162 N161 1.316 . S
C162 N164 1.347 . S
C162 H173 0.931 . S
C163 N161 1.375 . S
C163 C165 1.350 . S
C163 H172 0.930 . S
N164 C162 1.347 . S
N164 C165 1.373 . S
C165 C163 1.350 . S
C165 N164 1.373 . S
C165 H179 0.931 . S
C166 O169 1.256 . S
C166 O170 1.255 . S
O167 Co150 2.021 . S
O167 C160 1.259 . S
O168 Co152 2.117 . S
O168 C160 1.258 . S
O169 Co152 2.020 . S
O169 C166 1.256 . S
O170 Co150 2.062 . S
O170 C166 1.255 . S
O171 C151 1.259 . S
O171 Co152 2.021 . S
H172 C163 0.930 . S
H173 C162 0.931 . S
O174 Co150 2.117 . S
O174 C151 1.258 . S
O175 Co150 2.020 . S
O175 C177 1.256 . S
O176 Co152 2.062 . S
O176 C177 1.255 . S
C177 O175 1.256 . S
C177 O176 1.255 . S
H178 C157 0.931 . S
H179 C165 0.931 . S
C180 C181 1.349 . S
C180 C182 1.327 . S
C180 H205 0.950 . S
C181 C180 1.349 . S
C181 C197 1.349 . S
C182 C180 1.327 . S
C182 C201 1.429 . S
C182 H206 0.950 . S
C183 C200 1.574 . S
C183 C202 1.368 . S
C183 H207 0.949 . S
H184 C188 0.949 . S
C185 C186 1.349 . S
C185 C187 1.327 . S
C185 H208 0.950 . S
C186 C185 1.349 . S
C186 C198 1.349 . S
C187 C185 1.327 . S
C187 C203 1.429 . S
C187 H209 0.950 . S
C188 H184 0.949 . S
C188 C196 1.574 . S
C188 C204 1.368 . S
H189 C197 0.950 . S
H190 C195 0.950 . S
H191 C196 0.949 . S
H192 C198 0.950 . S
H193 C199 0.950 . S
H194 C200 0.949 . S
C195 H190 0.950 . S
C195 C197 1.327 . S
C195 C201 1.429 . S
C196 C188 1.574 . S
C196 H191 0.949 . S
C196 C202 1.368 . S
C197 C181 1.349 . S
C197 H189 0.950 . S
C197 C195 1.327 . S
C198 C186 1.349 . S
C198 H192 0.950 . S
C198 C199 1.327 . S
C199 H193 0.950 . S
C199 C198 1.327 . S
C199 C203 1.429 . S
C200 C183 1.574 . S
C200 H194 0.949 . S
C200 C204 1.368 . S
C201 C182 1.429 . S
C201 C195 1.429 . S
C201 C202 1.523 . S
C202 C183 1.368 . S
C202 C196 1.368 . S
C202 C201 1.523 . S
C203 C187 1.429 . S
C203 C199 1.429 . S
C203 C204 1.523 . S
C204 C188 1.368 . S
C204 C200 1.368 . S
C204 C203 1.523 . S
H205 C180 0.950 . S
H206 C182 0.950 . S
H207 C183 0.949 . S
H208 C185 0.950 . S
H209 C187 0.950 . S
C210 C211 1.349 . S
C210 C212 1.327 . S
C210 H235 0.950 . S
C211 C210 1.349 . S
C211 C227 1.349 . S
C212 C210 1.327 . S
C212 C231 1.429 . S
C212 H236 0.950 . S
C213 C230 1.574 . S
C213 C232 1.368 . S
C213 H237 0.949 . S
H214 C218 0.949 . S
C215 C216 1.349 . S
C215 C217 1.327 . S
C215 H238 0.950 . S
C216 C215 1.349 . S
C216 C228 1.349 . S
C217 C215 1.327 . S
C217 C233 1.429 . S
C217 H239 0.950 . S
C218 H214 0.949 . S
C218 C226 1.574 . S
C218 C234 1.368 . S
H219 C227 0.950 . S
H220 C225 0.950 . S
H221 C226 0.949 . S
H222 C228 0.950 . S
H223 C229 0.950 . S
H224 C230 0.949 . S
C225 H220 0.950 . S
C225 C227 1.327 . S
C225 C231 1.429 . S
C226 C218 1.574 . S
C226 H221 0.949 . S
C226 C232 1.368 . S
C227 C211 1.349 . S
C227 H219 0.950 . S
C227 C225 1.327 . S
C228 C216 1.349 . S
C228 H222 0.950 . S
C228 C229 1.327 . S
C229 H223 0.950 . S
C229 C228 1.327 . S
C229 C233 1.429 . S
C230 C213 1.574 . S
C230 H224 0.949 . S
C230 C234 1.368 . S
C231 C212 1.429 . S
C231 C225 1.429 . S
C231 C232 1.523 . S
C232 C213 1.368 . S
C232 C226 1.368 . S
C232 C231 1.523 . S
C233 C217 1.429 . S
C233 C229 1.429 . S
C233 C234 1.523 . S
C234 C218 1.368 . S
C234 C230 1.368 . S
C234 C233 1.523 . S
H235 C210 0.950 . S
H236 C212 0.950 . S
H237 C213 0.949 . S
H238 C215 0.950 . S
H239 C217 0.950 . S
C240 C241 1.349 . S
C240 C242 1.327 . S
C240 H265 0.950 . S
C241 C240 1.349 . S
C241 C257 1.349 . S
C242 C240 1.327 . S
C242 C261 1.429 . S
C242 H266 0.950 1_554 S
C243 C260 1.574 . S
C243 C262 1.368 . S
C243 H267 0.949 1_556 S
H244 C248 0.949 . S
C245 C246 1.349 . S
C245 C247 1.327 . S
C245 H268 0.950 . S
C246 C245 1.349 . S
C246 C258 1.349 . S
C247 C245 1.327 . S
C247 C263 1.429 . S
C247 H269 0.950 . S
C248 H244 0.949 . S
C248 C256 1.574 . S
C248 C264 1.368 . S
H249 C257 0.950 . S
H250 C255 0.950 . S
H251 C256 0.949 . S
H252 C258 0.950 . S
H253 C259 0.950 . S
H254 C260 0.949 . S
C255 H250 0.950 . S
C255 C257 1.327 . S
C255 C261 1.429 . S
C256 C248 1.574 . S
C256 H251 0.949 . S
C256 C262 1.368 . S
C257 C241 1.349 . S
C257 H249 0.950 . S
C257 C255 1.327 . S
C258 C246 1.349 . S
C258 H252 0.950 . S
C258 C259 1.327 . S
C259 H253 0.950 . S
C259 C258 1.327 . S
C259 C263 1.429 . S
C260 C243 1.574 . S
C260 H254 0.949 . S
C260 C264 1.368 . S
C261 C242 1.429 . S
C261 C255 1.429 . S
C261 C262 1.523 1_554 S
C262 C243 1.368 . S
C262 C256 1.368 . S
C262 C261 1.523 1_556 S
C263 C247 1.429 . S
C263 C259 1.429 . S
C263 C264 1.523 . S
C264 C248 1.368 . S
C264 C260 1.368 . S
C264 C263 1.523 . S
H265 C240 0.950 . S
H266 C242 0.950 1_556 S
H267 C243 0.949 1_554 S
H268 C245 0.950 . S
H269 C247 0.950 . S
C270 C271 1.349 . S
C270 C272 1.327 . S
C270 H295 0.950 . S
C271 C270 1.349 . S
C271 C287 1.349 . S
C272 C270 1.327 . S
C272 C291 1.429 . S
C272 H296 0.950 . S
C273 C290 1.574 . S
C273 C292 1.368 . S
C273 H297 0.949 . S
H274 C278 0.949 . S
C275 C276 1.349 . S
C275 C277 1.327 . S
C275 H298 0.950 . S
C276 C275 1.349 . S
C276 C288 1.349 . S
C277 C275 1.327 . S
C277 C293 1.429 . S
C277 H299 0.950 . S
C278 H274 0.949 . S
C278 C286 1.574 . S
C278 C294 1.368 . S
H279 C287 0.950 . S
H280 C285 0.950 . S
H281 C286 0.949 . S
H282 C288 0.950 . S
H283 C289 0.950 . S
H284 C290 0.949 . S
C285 H280 0.950 . S
C285 C287 1.327 . S
C285 C291 1.429 . S
C286 C278 1.574 . S
C286 H281 0.949 . S
C286 C292 1.368 . S
C287 C271 1.349 . S
C287 H279 0.950 . S
C287 C285 1.327 . S
C288 C276 1.349 . S
C288 H282 0.950 . S
C288 C289 1.327 . S
C289 H283 0.950 . S
C289 C288 1.327 . S
C289 C293 1.429 . S
C290 C273 1.574 . S
C290 H284 0.949 . S
C290 C294 1.368 . S
C291 C272 1.429 . S
C291 C285 1.429 . S
C291 C292 1.523 . S
C292 C273 1.368 . S
C292 C286 1.368 . S
C292 C291 1.523 . S
C293 C277 1.429 . S
C293 C289 1.429 . S
C293 C294 1.523 . S
C294 C278 1.368 . S
C294 C290 1.368 . S
C294 C293 1.523 . S
H295 C270 0.950 . S
H296 C272 0.950 . S
H297 C273 0.949 . S
H298 C275 0.950 . S
H299 C277 0.950 . S
C300 C301 1.349 . S
C300 C302 1.327 . S
C300 H325 0.950 . S
C301 C300 1.349 . S
C301 C317 1.349 . S
C302 C300 1.327 . S
C302 C321 1.429 . S
C302 H326 0.950 . S
C303 C320 1.574 . S
C303 C322 1.368 . S
C303 H327 0.949 . S
H304 C308 0.949 . S
C305 C306 1.349 . S
C305 C307 1.327 . S
C305 H328 0.950 . S
C306 C305 1.349 . S
C306 C318 1.349 . S
C307 C305 1.327 . S
C307 C323 1.429 . S
C307 H329 0.950 . S
C308 H304 0.949 . S
C308 C316 1.574 . S
C308 C324 1.368 . S
H309 C317 0.950 . S
H310 C315 0.950 . S
H311 C316 0.949 . S
H312 C318 0.950 . S
H313 C319 0.950 . S
H314 C320 0.949 . S
C315 H310 0.950 . S
C315 C317 1.327 . S
C315 C321 1.429 . S
C316 C308 1.574 . S
C316 H311 0.949 . S
C316 C322 1.368 . S
C317 C301 1.349 . S
C317 H309 0.950 . S
C317 C315 1.327 . S
C318 C306 1.349 . S
C318 H312 0.950 . S
C318 C319 1.327 . S
C319 H313 0.950 . S
C319 C318 1.327 . S
C319 C323 1.429 . S
C320 C303 1.574 . S
C320 H314 0.949 . S
C320 C324 1.368 . S
C321 C302 1.429 . S
C321 C315 1.429 . S
C321 C322 1.523 . S
C322 C303 1.368 . S
C322 C316 1.368 . S
C322 C321 1.523 . S
C323 C307 1.429 . S
C323 C319 1.429 . S
C323 C324 1.523 . S
C324 C308 1.368 . S
C324 C320 1.368 . S
C324 C323 1.523 . S
H325 C300 0.950 . S
H326 C302 0.950 . S
H327 C303 0.949 . S
H328 C305 0.950 . S
H329 C307 0.950 . S
C330 C331 1.349 . S
C330 C332 1.327 . S
C330 H355 0.950 . S
C331 C330 1.349 . S
C331 C347 1.349 . S
C332 C330 1.327 . S
C332 C351 1.429 . S
C332 H356 0.950 . S
C333 C350 1.574 . S
C333 C352 1.368 . S
C333 H357 0.949 . S
H334 C338 0.949 . S
C335 C336 1.349 . S
C335 C337 1.327 . S
C335 H358 0.950 . S
C336 C335 1.349 . S
C336 C348 1.349 . S
C337 C335 1.327 . S
C337 C353 1.429 . S
C337 H359 0.950 . S
C338 H334 0.949 . S
C338 C346 1.574 . S
C338 C354 1.368 . S
H339 C347 0.950 . S
H340 C345 0.950 . S
H341 C346 0.949 . S
H342 C348 0.950 . S
H343 C349 0.950 . S
H344 C350 0.949 . S
C345 H340 0.950 . S
C345 C347 1.327 . S
C345 C351 1.429 . S
C346 C338 1.574 . S
C346 H341 0.949 . S
C346 C352 1.368 . S
C347 C331 1.349 . S
C347 H339 0.950 . S
C347 C345 1.327 . S
C348 C336 1.349 . S
C348 H342 0.950 . S
C348 C349 1.327 . S
C349 H343 0.950 . S
C349 C348 1.327 . S
C349 C353 1.429 . S
C350 C333 1.574 . S
C350 H344 0.949 . S
C350 C354 1.368 . S
C351 C332 1.429 . S
C351 C345 1.429 . S
C351 C352 1.523 . S
C352 C333 1.368 . S
C352 C346 1.368 . S
C352 C351 1.523 . S
C353 C337 1.429 . S
C353 C349 1.429 . S
C353 C354 1.523 . S
C354 C338 1.368 . S
C354 C350 1.368 . S
C354 C353 1.523 . S
H355 C330 0.950 . S
H356 C332 0.950 . S
H357 C333 0.949 . S
H358 C335 0.950 . S
H359 C337 0.950 . S
C360 C361 1.349 . S
C360 C362 1.327 . S
C360 H385 0.950 . S
C361 C360 1.349 . S
C361 C377 1.349 . S
C362 C360 1.327 . S
C362 C381 1.429 . S
C362 H386 0.950 . S
C363 C380 1.574 . S
C363 C382 1.368 . S
C363 H387 0.949 . S
H364 C368 0.949 . S
C365 C366 1.349 . S
C365 C367 1.327 . S
C365 H388 0.950 . S
C366 C365 1.349 . S
C366 C378 1.349 . S
C367 C365 1.327 . S
C367 C383 1.429 . S
C367 H389 0.950 . S
C368 H364 0.949 . S
C368 C376 1.574 . S
C368 C384 1.368 . S
H369 C377 0.950 . S
H370 C375 0.950 . S
H371 C376 0.949 . S
H372 C378 0.950 . S
H373 C379 0.950 . S
H374 C380 0.949 . S
C375 H370 0.950 . S
C375 C377 1.327 . S
C375 C381 1.429 . S
C376 C368 1.574 . S
C376 H371 0.949 . S
C376 C382 1.368 . S
C377 C361 1.349 . S
C377 H369 0.950 . S
C377 C375 1.327 . S
C378 C366 1.349 . S
C378 H372 0.950 . S
C378 C379 1.327 . S
C379 H373 0.950 . S
C379 C378 1.327 . S
C379 C383 1.429 . S
C380 C363 1.574 . S
C380 H374 0.949 . S
C380 C384 1.368 . S
C381 C362 1.429 . S
C381 C375 1.429 . S
C381 C382 1.523 . S
C382 C363 1.368 . S
C382 C376 1.368 . S
C382 C381 1.523 . S
C383 C367 1.429 . S
C383 C379 1.429 . S
C383 C384 1.523 . S
C384 C368 1.368 . S
C384 C380 1.368 . S
C384 C383 1.523 . S
H385 C360 0.950 . S
H386 C362 0.950 . S
H387 C363 0.949 . S
H388 C365 0.950 . S
H389 C367 0.950 . S
C390 C391 1.349 . S
C390 C392 1.327 . S
C390 H415 0.950 . S
C391 C390 1.349 . S
C391 C407 1.349 . S
C392 C390 1.327 . S
C392 C411 1.429 . S
C392 H416 0.950 . S
C393 C410 1.574 . S
C393 C412 1.368 1_655 S
C393 H417 0.949 . S
H394 C398 0.949 . S
C395 C396 1.349 . S
C395 C397 1.327 . S
C395 H418 0.950 . S
C396 C395 1.349 . S
C396 C408 1.349 . S
C397 C395 1.327 . S
C397 C413 1.429 . S
C397 H419 0.950 . S
C398 H394 0.949 . S
C398 C406 1.574 . S
C398 C414 1.368 1_455 S
H399 C407 0.950 . S
H400 C405 0.950 . S
H401 C406 0.949 . S
H402 C408 0.950 . S
H403 C409 0.950 1_455 S
H404 C410 0.949 . S
C405 H400 0.950 . S
C405 C407 1.327 . S
C405 C411 1.429 . S
C406 C398 1.574 . S
C406 H401 0.949 . S
C406 C412 1.368 . S
C407 C391 1.349 . S
C407 H399 0.950 . S
C407 C405 1.327 . S
C408 C396 1.349 . S
C408 H402 0.950 . S
C408 C409 1.327 . S
C409 H403 0.950 1_655 S
C409 C408 1.327 . S
C409 C413 1.429 . S
C410 C393 1.574 . S
C410 H404 0.949 . S
C410 C414 1.368 . S
C411 C392 1.429 . S
C411 C405 1.429 . S
C411 C412 1.523 . S
C412 C393 1.368 1_455 S
C412 C406 1.368 . S
C412 C411 1.523 . S
C413 C397 1.429 . S
C413 C409 1.429 . S
C413 C414 1.523 . S
C414 C398 1.368 1_655 S
C414 C410 1.368 . S
C414 C413 1.523 . S
H415 C390 0.950 . S
H416 C392 0.950 . S
H417 C393 0.949 . S
H418 C395 0.950 . S
H419 C397 0.950 . S
C420 C421 1.349 . S
C420 C422 1.327 . S
C420 H445 0.950 . S
C421 C420 1.349 . S
C421 C437 1.349 . S
C422 C420 1.327 . S
C422 C441 1.429 . S
C422 H446 0.950 . S
C423 C440 1.574 . S
C423 C442 1.368 . S
C423 H447 0.938 1_565 S
H424 C428 0.949 . S
C425 C426 1.349 . S
C425 C427 1.327 . S
C425 H448 0.950 . S
C426 C425 1.349 . S
C426 C438 1.349 . S
C427 C425 1.327 . S
C427 C443 1.429 . S
C427 H449 0.950 . S
C428 H424 0.949 . S
C428 C436 1.574 . S
C428 C444 1.368 . S
H429 C437 0.950 . S
H430 C435 0.950 . S
H431 C436 0.949 . S
H432 C438 0.950 . S
H433 C439 0.950 . S
H434 C440 0.949 . S
C435 H430 0.950 . S
C435 C437 1.327 . S
C435 C441 1.429 . S
C436 C428 1.574 . S
C436 H431 0.949 . S
C436 C442 1.368 . S
C437 C421 1.349 . S
C437 H429 0.950 . S
C437 C435 1.327 . S
C438 C426 1.349 . S
C438 H432 0.950 . S
C438 C439 1.327 . S
C439 H433 0.950 . S
C439 C438 1.327 . S
C439 C443 1.429 . S
C440 C423 1.574 . S
C440 H434 0.949 . S
C440 C444 1.368 . S
C441 C422 1.429 . S
C441 C435 1.429 . S
C441 C442 1.523 1_545 S
C442 C423 1.368 . S
C442 C436 1.368 . S
C442 C441 1.523 1_565 S
C443 C427 1.429 . S
C443 C439 1.429 . S
C443 C444 1.523 . S
C444 C428 1.368 . S
C444 C440 1.368 . S
C444 C443 1.523 . S
H445 C420 0.950 . S
H446 C422 0.950 . S
H447 C423 0.938 1_545 S
H448 C425 0.950 . S
H449 C427 0.950 . S
C450 C451 1.349 . S
C450 C452 1.327 . S
C450 H475 0.950 . S
C451 C450 1.349 . S
C451 C467 1.349 . S
C452 C450 1.327 . S
C452 C471 1.429 . S
C452 H476 0.950 . S
C453 C470 1.574 . S
C453 C472 1.368 . S
C453 H477 0.949 . S
H454 C458 0.949 . S
C455 C456 1.349 . S
C455 C457 1.327 . S
C455 H478 0.950 . S
C456 C455 1.349 . S
C456 C468 1.349 . S
C457 C455 1.327 . S
C457 C473 1.429 . S
C457 H479 0.950 . S
C458 H454 0.949 . S
C458 C466 1.574 . S
C458 C474 1.368 . S
H459 C467 0.950 . S
H460 C465 0.950 . S
H461 C466 0.949 . S
H462 C468 0.950 . S
H463 C469 0.950 . S
H464 C470 0.949 . S
C465 H460 0.950 . S
C465 C467 1.327 . S
C465 C471 1.429 . S
C466 C458 1.574 . S
C466 H461 0.949 . S
C466 C472 1.368 . S
C467 C451 1.349 . S
C467 H459 0.950 . S
C467 C465 1.327 . S
C468 C456 1.349 . S
C468 H462 0.950 . S
C468 C469 1.327 . S
C469 H463 0.950 . S
C469 C468 1.327 . S
C469 C473 1.429 . S
C470 C453 1.574 . S
C470 H464 0.949 . S
C470 C474 1.368 . S
C471 C452 1.429 . S
C471 C465 1.429 . S
C471 C472 1.523 . S
C472 C453 1.368 . S
C472 C466 1.368 . S
C472 C471 1.523 . S
C473 C457 1.429 . S
C473 C469 1.429 . S
C473 C474 1.523 . S
C474 C458 1.368 . S
C474 C470 1.368 . S
C474 C473 1.523 . S
H475 C450 0.950 . S
H476 C452 0.950 . S
H477 C453 0.949 . S
H478 C455 0.950 . S
H479 C457 0.950 . S
C480 C481 1.349 . S
C480 C482 1.327 . S
C480 H505 0.950 . S
C481 C480 1.349 . S
C481 C497 1.349 . S
C482 C480 1.327 . S
C482 C501 1.429 . S
C482 H506 0.950 . S
C483 C500 1.574 . S
C483 C502 1.368 . S
C483 H507 0.949 . S
H484 C488 0.951 1_455 S
C485 C486 1.349 . S
C485 C487 1.327 . S
C485 H508 0.950 . S
C486 C485 1.349 . S
C486 C498 1.349 . S
C487 C485 1.327 . S
C487 C503 1.429 . S
C487 H509 0.950 . S
C488 H484 0.951 1_655 S
C488 C496 1.574 1_655 S
C488 C504 1.368 . S
H489 C497 0.950 . S
H490 C495 0.950 1_655 S
H491 C496 0.949 . S
H492 C498 0.950 . S
H493 C499 0.950 . S
H494 C500 0.949 . S
C495 H490 0.950 1_455 S
C495 C497 1.327 . S
C495 C501 1.429 . S
C496 C488 1.574 1_455 S
C496 H491 0.949 . S
C496 C502 1.368 1_455 S
C497 C481 1.349 . S
C497 H489 0.950 . S
C497 C495 1.327 . S
C498 C486 1.349 . S
C498 H492 0.950 . S
C498 C499 1.327 . S
C499 H493 0.950 . S
C499 C498 1.327 . S
C499 C503 1.429 . S
C500 C483 1.574 . S
C500 H494 0.949 . S
C500 C504 1.368 . S
C501 C482 1.429 . S
C501 C495 1.429 . S
C501 C502 1.523 1_455 S
C502 C483 1.368 . S
C502 C496 1.368 1_655 S
C502 C501 1.523 1_655 S
C503 C487 1.429 . S
C503 C499 1.429 . S
C503 C504 1.523 . S
C504 C488 1.368 . S
C504 C500 1.368 . S
C504 C503 1.523 . S
H505 C480 0.950 . S
H506 C482 0.950 . S
H507 C483 0.949 . S
H508 C485 0.950 . S
H509 C487 0.950 . S
C510 C511 1.349 . S
C510 C512 1.327 . S
C510 H535 0.950 . S
C511 C510 1.349 . S
C511 C527 1.349 . S
C512 C510 1.327 . S
C512 C531 1.429 . S
C512 H536 0.950 . S
C513 C530 1.574 . S
C513 C532 1.368 1_545 S
C513 H537 0.949 . S
H514 C518 0.949 . S
C515 C516 1.349 . S
C515 C517 1.327 . S
C515 H538 0.950 . S
C516 C515 1.349 . S
C516 C528 1.349 . S
C517 C515 1.327 . S
C517 C533 1.429 . S
C517 H539 0.950 . S
C518 H514 0.949 . S
C518 C526 1.574 1_545 S
C518 C534 1.368 . S
H519 C527 0.950 . S
H520 C525 0.950 . S
H521 C526 0.949 . S
H522 C528 0.950 . S
H523 C529 0.950 . S
H524 C530 0.949 . S
C525 H520 0.950 . S
C525 C527 1.327 . S
C525 C531 1.429 . S
C526 C518 1.574 1_565 S
C526 H521 0.949 . S
C526 C532 1.368 . S
C527 C511 1.349 . S
C527 H519 0.950 . S
C527 C525 1.327 . S
C528 C516 1.349 . S
C528 H522 0.950 . S
C528 C529 1.327 . S
C529 H523 0.950 . S
C529 C528 1.327 . S
C529 C533 1.429 . S
C530 C513 1.574 . S
C530 H524 0.949 . S
C530 C534 1.368 . S
C531 C512 1.429 . S
C531 C525 1.429 . S
C531 C532 1.523 . S
C532 C513 1.368 1_565 S
C532 C526 1.368 . S
C532 C531 1.523 . S
C533 C517 1.429 . S
C533 C529 1.429 . S
C533 C534 1.523 . S
C534 C518 1.368 . S
C534 C530 1.368 . S
C534 C533 1.523 . S
H535 C510 0.950 . S
H536 C512 0.950 . S
H537 C513 0.949 . S
H538 C515 0.950 . S
H539 C517 0.950 . S
C540 C541 1.349 . S
C540 C542 1.327 . S
C540 H565 0.950 . S
C541 C540 1.349 . S
C541 C557 1.349 . S
C542 C540 1.327 . S
C542 C561 1.429 . S
C542 H566 0.950 . S
C543 C560 1.574 . S
C543 C562 1.368 . S
C543 H567 0.949 . S
H544 C548 0.949 . S
C545 C546 1.349 1_556 S
C545 C547 1.327 . S
C545 H568 0.950 . S
C546 C545 1.349 1_554 S
C546 C558 1.349 . S
C547 C545 1.327 . S
C547 C563 1.429 . S
C547 H569 0.950 . S
C548 H544 0.949 . S
C548 C556 1.574 . S
C548 C564 1.368 . S
H549 C557 0.950 . S
H550 C555 0.950 . S
H551 C556 0.949 . S
H552 C558 0.950 . S
H553 C559 0.950 . S
H554 C560 0.949 . S
C555 H550 0.950 . S
C555 C557 1.327 . S
C555 C561 1.429 . S
C556 C548 1.574 . S
C556 H551 0.949 . S
C556 C562 1.368 . S
C557 C541 1.349 . S
C557 H549 0.950 . S
C557 C555 1.327 . S
C558 C546 1.349 . S
C558 H552 0.950 . S
C558 C559 1.327 1_554 S
C559 H553 0.950 . S
C559 C558 1.327 1_556 S
C559 C563 1.429 . S
C560 C543 1.574 . S
C560 H554 0.949 . S
C560 C564 1.368 . S
C561 C542 1.429 . S
C561 C555 1.429 . S
C561 C562 1.523 . S
C562 C543 1.368 . S
C562 C556 1.368 . S
C562 C561 1.523 . S
C563 C547 1.429 . S
C563 C559 1.429 . S
C563 C564 1.523 . S
C564 C548 1.368 . S
C564 C560 1.368 . S
C564 C563 1.523 . S
H565 C540 0.950 . S
H566 C542 0.950 . S
H567 C543 0.949 . S
H568 C545 0.950 . S
H569 C547 0.950 . S
C570 C571 1.349 . S
C570 C572 1.327 . S
C570 H595 0.950 . S
C571 C570 1.349 . S
C571 C587 1.349 . S
C572 C570 1.327 . S
C572 C591 1.429 . S
C572 H596 0.950 . S
C573 C590 1.574 . S
C573 C592 1.368 1_455 S
C573 H597 0.949 . S
H574 C578 0.949 . S
C575 C576 1.349 . S
C575 C577 1.327 . S
C575 H598 0.950 . S
C576 C575 1.349 . S
C576 C588 1.349 . S
C577 C575 1.327 . S
C577 C593 1.429 . S
C577 H599 0.950 . S
C578 H574 0.949 . S
C578 C586 1.574 . S
C578 C594 1.368 1_655 S
H579 C587 0.950 . S
H580 C585 0.950 . S
H581 C586 0.949 . S
H582 C588 0.950 . S
H583 C589 0.950 . S
H584 C590 0.949 . S
C585 H580 0.950 . S
C585 C587 1.327 . S
C585 C591 1.429 . S
C586 C578 1.574 . S
C586 H581 0.949 . S
C586 C592 1.368 . S
C587 C571 1.349 . S
C587 H579 0.950 . S
C587 C585 1.327 . S
C588 C576 1.349 . S
C588 H582 0.950 . S
C588 C589 1.327 . S
C589 H583 0.950 . S
C589 C588 1.327 . S
C589 C593 1.429 . S
C590 C573 1.574 . S
C590 H584 0.949 . S
C590 C594 1.368 . S
C591 C572 1.429 . S
C591 C585 1.429 . S
C591 C592 1.523 . S
C592 C573 1.368 1_655 S
C592 C586 1.368 . S
C592 C591 1.523 . S
C593 C577 1.429 . S
C593 C589 1.429 . S
C593 C594 1.523 . S
C594 C578 1.368 1_455 S
C594 C590 1.368 . S
C594 C593 1.523 . S
H595 C570 0.950 . S
H596 C572 0.950 . S
H597 C573 0.949 . S
H598 C575 0.950 . S
H599 C577 0.950 . S
C600 C601 1.349 . S
C600 C602 1.327 . S
C600 H625 0.950 . S
C601 C600 1.349 . S
C601 C617 1.349 . S
C602 C600 1.327 . S
C602 C621 1.429 . S
C602 H626 0.950 . S
C603 C620 1.574 . S
C603 C622 1.368 . S
C603 H627 0.949 . S
H604 C608 0.949 . S
C605 C606 1.349 . S
C605 C607 1.327 . S
C605 H628 0.950 . S
C606 C605 1.349 . S
C606 C618 1.349 . S
C607 C605 1.327 . S
C607 C623 1.429 . S
C607 H629 0.950 . S
C608 H604 0.949 . S
C608 C616 1.574 . S
C608 C624 1.368 . S
H609 C617 0.950 . S
H610 C615 0.950 . S
H611 C616 0.949 . S
H612 C618 0.950 . S
H613 C619 0.950 . S
H614 C620 0.949 . S
C615 H610 0.950 . S
C615 C617 1.327 . S
C615 C621 1.429 . S
C616 C608 1.574 . S
C616 H611 0.949 . S
C616 C622 1.368 1_545 S
C617 C601 1.349 . S
C617 H609 0.950 . S
C617 C615 1.327 . S
C618 C606 1.349 . S
C618 H612 0.950 . S
C618 C619 1.327 . S
C619 H613 0.950 . S
C619 C618 1.327 . S
C619 C623 1.429 . S
C620 C603 1.574 . S
C620 H614 0.949 . S
C620 C624 1.368 1_565 S
C621 C602 1.429 . S
C621 C615 1.429 . S
C621 C622 1.523 . S
C622 C603 1.368 . S
C622 C616 1.368 1_565 S
C622 C621 1.523 . S
C623 C607 1.429 . S
C623 C619 1.429 . S
C623 C624 1.523 . S
C624 C608 1.368 . S
C624 C620 1.368 1_545 S
C624 C623 1.523 . S
H625 C600 0.950 . S
H626 C602 0.950 . S
H627 C603 0.949 . S
H628 C605 0.950 . S
H629 C607 0.950 . S
C630 C631 1.349 . S
C630 C632 1.327 . S
C630 H655 0.950 . S
C631 C630 1.349 . S
C631 C647 1.349 . S
C632 C630 1.327 . S
C632 C651 1.429 . S
C632 H656 0.950 . S
C633 C650 1.574 . S
C633 C652 1.368 . S
C633 H657 0.949 . S
H634 C638 0.949 . S
C635 C636 1.349 1_556 S
C635 C637 1.327 . S
C635 H658 0.950 . S
C636 C635 1.349 1_554 S
C636 C648 1.349 . S
C637 C635 1.327 . S
C637 C653 1.429 . S
C637 H659 0.950 . S
C638 H634 0.949 . S
C638 C646 1.574 . S
C638 C654 1.368 . S
H639 C647 0.950 . S
H640 C645 0.950 . S
H641 C646 0.949 . S
H642 C648 0.950 . S
H643 C649 0.950 . S
H644 C650 0.949 . S
C645 H640 0.950 . S
C645 C647 1.327 . S
C645 C651 1.429 . S
C646 C638 1.574 . S
C646 H641 0.949 . S
C646 C652 1.368 . S
C647 C631 1.349 . S
C647 H639 0.950 . S
C647 C645 1.327 . S
C648 C636 1.349 . S
C648 H642 0.950 . S
C648 C649 1.327 1_554 S
C649 H643 0.950 . S
C649 C648 1.327 1_556 S
C649 C653 1.429 . S
C650 C633 1.574 . S
C650 H644 0.949 . S
C650 C654 1.368 . S
C651 C632 1.429 . S
C651 C645 1.429 . S
C651 C652 1.523 . S
C652 C633 1.368 . S
C652 C646 1.368 . S
C652 C651 1.523 . S
C653 C637 1.429 . S
C653 C649 1.429 . S
C653 C654 1.523 . S
C654 C638 1.368 . S
C654 C650 1.368 . S
C654 C653 1.523 . S
H655 C630 0.950 . S
H656 C632 0.950 . S
H657 C633 0.949 . S
H658 C635 0.950 . S
H659 C637 0.950 . S
C660 C661 1.349 . S
C660 C662 1.327 . S
C660 H685 0.950 . S
C661 C660 1.349 . S
C661 C677 1.349 . S
C662 C660 1.327 . S
C662 C681 1.429 . S
C662 H686 0.950 1_455 S
C663 C680 1.574 . S
C663 C682 1.368 . S
C663 H687 0.949 . S
H664 C668 0.949 . S
C665 C666 1.349 . S
C665 C667 1.327 . S
C665 H688 0.950 . S
C666 C665 1.349 . S
C666 C678 1.349 . S
C667 C665 1.327 . S
C667 C683 1.429 . S
C667 H689 0.950 . S
C668 H664 0.949 . S
C668 C676 1.574 . S
C668 C684 1.368 . S
H669 C677 0.950 . S
H670 C675 0.950 . S
H671 C676 0.949 . S
H672 C678 0.950 . S
H673 C679 0.950 . S
H674 C680 0.949 . S
C675 H670 0.950 . S
C675 C677 1.327 . S
C675 C681 1.429 . S
C676 C668 1.574 . S
C676 H671 0.949 . S
C676 C682 1.368 1_655 S
C677 C661 1.349 . S
C677 H669 0.950 . S
C677 C675 1.327 . S
C678 C666 1.349 . S
C678 H672 0.950 . S
C678 C679 1.327 . S
C679 H673 0.950 . S
C679 C678 1.327 . S
C679 C683 1.429 . S
C680 C663 1.574 . S
C680 H674 0.949 . S
C680 C684 1.368 1_455 S
C681 C662 1.429 . S
C681 C675 1.429 . S
C681 C682 1.523 . S
C682 C663 1.368 . S
C682 C676 1.368 1_455 S
C682 C681 1.523 . S
C683 C667 1.429 . S
C683 C679 1.429 . S
C683 C684 1.523 . S
C684 C668 1.368 . S
C684 C680 1.368 1_655 S
C684 C683 1.523 . S
H685 C660 0.950 . S
H686 C662 0.950 1_655 S
H687 C663 0.949 . S
H688 C665 0.950 . S
H689 C667 0.950 . S
C690 C691 1.349 . S
C690 C692 1.327 . S
C690 H715 0.950 . S
C691 C690 1.349 . S
C691 C707 1.349 . S
C692 C690 1.327 . S
C692 C711 1.429 . S
C692 H716 0.950 . S
C693 C710 1.574 . S
C693 C712 1.368 . S
C693 H717 0.949 . S
H694 C698 0.949 . S
C695 C696 1.349 . S
C695 C697 1.327 . S
C695 H718 0.950 . S
C696 C695 1.349 . S
C696 C708 1.349 . S
C697 C695 1.327 . S
C697 C713 1.429 . S
C697 H719 0.950 . S
C698 H694 0.949 . S
C698 C706 1.574 . S
C698 C714 1.368 . S
H699 C707 0.950 . S
H700 C705 0.950 . S
H701 C706 0.949 . S
H702 C708 0.950 . S
H703 C709 0.950 . S
H704 C710 0.949 . S
C705 H700 0.950 . S
C705 C707 1.327 . S
C705 C711 1.429 . S
C706 C698 1.574 . S
C706 H701 0.949 . S
C706 C712 1.368 1_565 S
C707 C691 1.349 . S
C707 H699 0.950 . S
C707 C705 1.327 . S
C708 C696 1.349 . S
C708 H702 0.950 . S
C708 C709 1.327 . S
C709 H703 0.950 . S
C709 C708 1.327 . S
C709 C713 1.429 . S
C710 C693 1.574 . S
C710 H704 0.949 . S
C710 C714 1.368 1_545 S
C711 C692 1.429 . S
C711 C705 1.429 . S
C711 C712 1.523 . S
C712 C693 1.368 . S
C712 C706 1.368 1_545 S
C712 C711 1.523 . S
C713 C697 1.429 . S
C713 C709 1.429 . S
C713 C714 1.523 . S
C714 C698 1.368 . S
C714 C710 1.368 1_565 S
C714 C713 1.523 . S
H715 C690 0.950 . S
H716 C692 0.950 . S
H717 C693 0.949 . S
H718 C695 0.950 . S
H719 C697 0.950 . S
C181 C147 0.673 . S
C186 N6 0.677 . S
C211 N156 0.677 . S
C216 C57 0.673 . S
C241 C27 0.673 . S
C246 N66 0.677 . S
C271 N36 0.677 . S
C276 C117 0.673 . S
C301 C87 0.673 . S
C306 N126 0.677 . S
C331 N96 0.677 . S
C336 C177 0.673 . S
C361 C1 1.066 . S
C366 C100 1.065 . S
C391 C121 1.066 . S
C396 C40 1.065 . S
C421 C160 1.065 . S
C426 C61 1.066 . S
C451 C70 1.065 . S
C456 C151 1.066 . S
C481 C10 1.065 . S
C486 C91 1.066 . S
C511 C130 1.065 . S
C516 C31 1.066 . S
C541 N164 0.506 . S
C546 N14 0.506 . S
C571 C46 0.553 . S
C576 C16 0.552 . S
C601 N74 0.506 . S
C606 N44 0.506 . S
C631 C76 0.552 . S
C636 C106 0.552 . S
C661 N134 0.506 . S
C666 N104 0.506 . S
C691 C166 0.552 . S
C696 C136 0.552 . S
