# Generated by pormake.
# Topology wjk, (5)-cn, num edge types: 1
# Building blocks:
#     Node 0, Type 0, BuildingBlock: XOMCOT_clean_sbu_0, # of connection points: 5
#     Node 1, Type 0, BuildingBlock: XOMCOT_clean_sbu_0, # of connection points: 5
#     Node 2, Type 0, BuildingBlock: XOMCOT_clean_sbu_0, # of connection points: 5
#     Node 3, Type 0, BuildingBlock: XOMCOT_clean_sbu_0, # of connection points: 5
#     Node 4, Type 0, BuildingBlock: XOMCOT_clean_sbu_0, # of connection points: 5
#     Node 5, Type 0, BuildingBlock: XOMCOT_clean_sbu_0, # of connection points: 5
#     Node 6, Type 0, BuildingBlock: XOMCOT_clean_sbu_0, # of connection points: 5
#     Node 7, Type 0, BuildingBlock: XOMCOT_clean_sbu_0, # of connection points: 5
#     Node 8, Type 0, BuildingBlock: XOMCOT_clean_sbu_0, # of connection points: 5
#     Node 9, Type 0, BuildingBlock: XOMCOT_clean_sbu_0, # of connection points: 5
#     Node 10, Type 0, BuildingBlock: XOMCOT_clean_sbu_0, # of connection points: 5
#     Node 11, Type 0, BuildingBlock: XOMCOT_clean_sbu_0, # of connection points: 5
#     Edge 12, Type (0, 0), BuildingBlock: XIVTED_clean_linker_0, # of connection points: 2
#     Edge 13, Type (0, 0), BuildingBlock: XIVTED_clean_linker_0, # of connection points: 2
#     Edge 14, Type (0, 0), BuildingBlock: XIVTED_clean_linker_0, # of connection points: 2
#     Edge 15, Type (0, 0), BuildingBlock: XIVTED_clean_linker_0, # of connection points: 2
#     Edge 16, Type (0, 0), BuildingBlock: XIVTED_clean_linker_0, # of connection points: 2
#     Edge 17, Type (0, 0), BuildingBlock: XIVTED_clean_linker_0, # of connection points: 2
#     Edge 18, Type (0, 0), BuildingBlock: XIVTED_clean_linker_0, # of connection points: 2
#     Edge 19, Type (0, 0), BuildingBlock: XIVTED_clean_linker_0, # of connection points: 2
#     Edge 20, Type (0, 0), BuildingBlock: XIVTED_clean_linker_0, # of connection points: 2
#     Edge 21, Type (0, 0), BuildingBlock: XIVTED_clean_linker_0, # of connection points: 2
#     Edge 22, Type (0, 0), BuildingBlock: XIVTED_clean_linker_0, # of connection points: 2
#     Edge 23, Type (0, 0), BuildingBlock: XIVTED_clean_linker_0, # of connection points: 2
#     Edge 24, Type (0, 0), BuildingBlock: XIVTED_clean_linker_0, # of connection points: 2
#     Edge 25, Type (0, 0), BuildingBlock: XIVTED_clean_linker_0, # of connection points: 2
#     Edge 26, Type (0, 0), BuildingBlock: XIVTED_clean_linker_0, # of connection points: 2
#     Edge 27, Type (0, 0), BuildingBlock: XIVTED_clean_linker_0, # of connection points: 2
#     Edge 28, Type (0, 0), BuildingBlock: XIVTED_clean_linker_0, # of connection points: 2
#     Edge 29, Type (0, 0), BuildingBlock: XIVTED_clean_linker_0, # of connection points: 2
#     Edge 30, Type (0, 0), BuildingBlock: XIVTED_clean_linker_0, # of connection points: 2
#     Edge 31, Type (0, 0), BuildingBlock: XIVTED_clean_linker_0, # of connection points: 2
#     Edge 32, Type (0, 0), BuildingBlock: XIVTED_clean_linker_0, # of connection points: 2
#     Edge 33, Type (0, 0), BuildingBlock: XIVTED_clean_linker_0, # of connection points: 2
#     Edge 34, Type (0, 0), BuildingBlock: XIVTED_clean_linker_0, # of connection points: 2
#     Edge 35, Type (0, 0), BuildingBlock: XIVTED_clean_linker_0, # of connection points: 2
#     Edge 36, Type (0, 0), BuildingBlock: XIVTED_clean_linker_0, # of connection points: 2
#     Edge 37, Type (0, 0), BuildingBlock: XIVTED_clean_linker_0, # of connection points: 2
#     Edge 38, Type (0, 0), BuildingBlock: XIVTED_clean_linker_0, # of connection points: 2
#     Edge 39, Type (0, 0), BuildingBlock: XIVTED_clean_linker_0, # of connection points: 2
#     Edge 40, Type (0, 0), BuildingBlock: XIVTED_clean_linker_0, # of connection points: 2
#     Edge 41, Type (0, 0), BuildingBlock: XIVTED_clean_linker_0, # of connection points: 2
# Relax obj value: 0.574
# Max RMSD: 0.270
# Mean RMSD: 0.270
data_MOF--net-wjk--node1-XOMCOT_clean_sbu_0--edge1-XIVTED_clean_linker_0
_symmetry_space_group_name_H-M    P1
_symmetry_Int_Tables_number       1
_symmetry_cell_setting            triclinic
loop_
_symmetry_equiv_pos_as_xyz
'x, y, z'
_cell_length_a     32.885651
_cell_length_b     32.801739
_cell_length_c     68.490003
_cell_angle_alpha  90.082354
_cell_angle_beta   89.807515
_cell_angle_gamma 119.73068
loop_
_atom_site_label
_atom_site_type_symbol
_atom_site_fract_x
_atom_site_fract_y
_atom_site_fract_z
_atom_type_partial_charge
Co0 Co 0.22078 0.29027 0.27105 0.0
C1 C 0.30472 0.38475 0.27284 0.0
C2 C 0.26233 0.38113 0.24866 0.0
C3 C 0.3063 0.42018 0.24648 0.0
N4 N 0.2617 0.35742 0.26488 0.0
N5 N 0.33339 0.42146 0.26144 0.0
H6 H 0.31741 0.37503 0.28551 0.0
H7 H 0.2345 0.36965 0.23819 0.0
C8 C 0.16325 0.28189 0.23395 0.0
O9 O 0.19949 0.29186 0.22274 0.0
N10 N 0.18262 0.22446 0.27784 0.0
C11 C 0.19917 0.19803 0.28588 0.0
C12 C 0.1649 0.15179 0.28527 0.0
C13 C 0.13809 0.19381 0.27271 0.0
N14 N 0.12679 0.14913 0.27674 0.0
C15 C 0.29912 0.2922 0.25227 0.0
C16 C 0.24815 0.20811 0.23296 0.0
C17 C 0.29624 0.22641 0.23574 0.0
C18 C 0.32229 0.27025 0.24439 0.0
C19 C 0.22646 0.23192 0.24062 0.0
N20 N 0.25152 0.27239 0.2511 0.0
H21 H 0.31939 0.32188 0.26137 0.0
H22 H 0.18883 0.21514 0.23975 0.0
H23 H 0.23481 0.21092 0.29062 0.0
H24 H 0.11578 0.20328 0.26466 0.0
O25 O 0.26194 0.29629 0.2922 0.0
O26 O 0.20026 0.30602 0.29534 0.0
O27 O 0.16791 0.28381 0.25267 0.0
C28 C 0.23519 0.30437 0.30357 0.0
H29 H 0.31864 0.4429 0.23381 0.0
H30 H 0.16864 0.12224 0.28982 0.0
H31 H 0.22703 0.17403 0.22625 0.0
H32 H 0.35945 0.28495 0.24701 0.0
Co33 Co 0.92264 0.20399 0.59346 0.0
C34 C 0.95092 0.30266 0.58902 0.0
C35 C 0.87715 0.26103 0.58369 0.0
C36 C 0.89006 0.30824 0.58293 0.0
N37 N 0.91564 0.2579 0.58744 0.0
N38 N 0.93663 0.33426 0.58624 0.0
H39 H 0.98626 0.31179 0.59299 0.0
H40 H 0.84219 0.23136 0.58221 0.0
C41 C 0.84502 0.1234 0.57329 0.0
O42 O 0.83073 0.1082 0.59112 0.0
N43 N 0.93188 0.15147 0.59965 0.0
C44 C 0.93416 0.13494 0.61743 0.0
C45 C 0.95081 0.10428 0.61537 0.0
C46 C 0.94624 0.12959 0.58698 0.0
N47 N 0.95872 0.1014 0.59629 0.0
C48 C 0.01762 0.23922 0.58516 0.0
C49 C 0.01862 0.27956 0.54957 0.0
C50 C 0.06096 0.29326 0.55932 0.0
C51 C 0.06009 0.27072 0.57678 0.0
C52 C 0.97636 0.24707 0.55845 0.0
N53 N 0.97657 0.22941 0.57648 0.0
H54 H 0.01761 0.22513 0.59941 0.0
H55 H 0.94359 0.23944 0.55176 0.0
H56 H 0.92711 0.14594 0.63118 0.0
H57 H 0.95097 0.13697 0.57148 0.0
O58 O 0.95537 0.23662 0.61667 0.0
O59 O 0.87901 0.18815 0.61568 0.0
O60 O 0.88026 0.16477 0.57103 0.0
C61 C 0.91573 0.21743 0.62579 0.0
H62 H 0.86683 0.32219 0.58038 0.0
H63 H 0.95842 0.08692 0.62707 0.0
H64 H 0.01804 0.29562 0.53585 0.0
H65 H 0.09204 0.27863 0.58436 0.0
Co66 Co 0.7122 0.93882 0.92791 0.0
C67 C 0.61737 0.91605 0.94023 0.0
C68 C 0.61446 0.88098 0.91363 0.0
C69 C 0.57456 0.88477 0.91521 0.0
N70 N 0.64304 0.90306 0.92884 0.0
N71 N 0.57743 0.90888 0.93158 0.0
H72 H 0.63087 0.93764 0.95308 0.0
H73 H 0.62391 0.86844 0.90087 0.0
C74 C 0.71236 0.87942 0.89244 0.0
O75 O 0.69306 0.89736 0.88115 0.0
N76 N 0.77953 0.97608 0.92768 0.0
C77 C 0.80365 0.02319 0.92955 0.0
C78 C 0.85053 0.03797 0.92886 0.0
C79 C 0.81195 0.96261 0.92598 0.0
N80 N 0.85571 0.99996 0.92664 0.0
C81 C 0.68354 0.99611 0.90795 0.0
C82 C 0.75319 0.03005 0.88006 0.0
C83 C 0.72822 0.05368 0.88365 0.0
C84 C 0.69114 0.03454 0.89685 0.0
C85 C 0.744 0.99102 0.89143 0.0
N86 N 0.71049 0.97539 0.90576 0.0
H87 H 0.65992 0.98746 0.91993 0.0
H88 H 0.76709 0.97655 0.89003 0.0
H89 H 0.78808 0.04539 0.93095 0.0
H90 H 0.8038 0.92651 0.92445 0.0
O91 O 0.71296 0.98026 0.94818 0.0
O92 O 0.71547 0.91517 0.95375 0.0
O93 O 0.71742 0.88921 0.91083 0.0
C94 C 0.71687 0.95288 0.96077 0.0
H95 H 0.54903 0.87649 0.90375 0.0
H96 H 0.87861 0.07405 0.92944 0.0
H97 H 0.78292 0.0446 0.8702 0.0
H98 H 0.67174 0.05244 0.90023 0.0
Co99 Co 0.7771 0.70963 0.23687 0.0
C100 C 0.71304 0.62043 0.25642 0.0
C101 C 0.74323 0.6073 0.2313 0.0
C102 C 0.70237 0.56663 0.23613 0.0
N103 N 0.74884 0.64226 0.24341 0.0
N104 N 0.68232 0.57562 0.25148 0.0
H105 H 0.70468 0.63849 0.26749 0.0
H106 H 0.76317 0.61172 0.21824 0.0
C107 C 0.83768 0.69891 0.20484 0.0
O108 O 0.80032 0.6725 0.19438 0.0
N109 N 0.80308 0.7756 0.2314 0.0
C110 C 0.77832 0.79759 0.2281 0.0
C111 C 0.80833 0.84516 0.22833 0.0
C112 C 0.84758 0.80996 0.23401 0.0
N113 N 0.8518 0.85294 0.23224 0.0
C114 C 0.69104 0.66258 0.21575 0.0
C115 C 0.71972 0.72525 0.1852 0.0
C116 C 0.67169 0.69769 0.18936 0.0
C117 C 0.65775 0.6623 0.2033 0.0
C118 C 0.75228 0.72257 0.19744 0.0
N119 N 0.73761 0.69431 0.2136 0.0
H120 H 0.67789 0.64119 0.22848 0.0
H121 H 0.78899 0.74773 0.19539 0.0
H122 H 0.74067 0.78019 0.22649 0.0
H123 H 0.87539 0.80353 0.23854 0.0
O124 O 0.735 0.71581 0.25498 0.0
O125 O 0.80467 0.72597 0.26283 0.0
O126 O 0.83317 0.7121 0.22204 0.0
C127 C 0.76703 0.72687 0.26824 0.0
H128 H 0.6855 0.53525 0.22724 0.0
H129 H 0.79844 0.87184 0.22651 0.0
H130 H 0.73231 0.75298 0.17439 0.0
H131 H 0.62101 0.63954 0.20669 0.0
Co132 Co 0.10633 0.7864 0.59177 0.0
C133 C 0.12523 0.71267 0.6057 0.0
C134 C 0.1726 0.75195 0.58284 0.0
C135 C 0.17028 0.70886 0.58418 0.0
N136 N 0.14223 0.75363 0.59565 0.0
N137 N 0.13876 0.68318 0.59807 0.0
H138 H 0.09783 0.70145 0.61649 0.0
H139 H 0.19148 0.77757 0.57173 0.0
C140 C 0.17613 0.8479 0.55909 0.0
O141 O 0.16452 0.81173 0.54759 0.0
N142 N 0.06902 0.81615 0.58812 0.0
C143 C 0.02195 0.79307 0.58669 0.0
C144 C 1.0078 0.82448 0.58158 0.0
C145 C 0.08297 0.8614 0.58415 0.0
N146 N 0.04615 0.86725 0.57988 0.0
C147 C 0.05364 0.7009 0.57087 0.0
C148 C 0.03621 0.7393 0.53842 0.0
C149 C 1.01006 0.69072 0.54148 0.0
C150 C 0.02061 0.67135 0.55741 0.0
C151 C 0.06886 0.76772 0.55235 0.0
N152 N 0.07698 0.7486 0.56858 0.0
H153 H 0.05576 0.68517 0.58423 0.0
H154 H 0.08413 0.80529 0.55096 0.0
H155 H 0.9996 0.75562 0.58854 0.0
H156 H 0.11913 0.88917 0.58387 0.0
O157 O 0.0598 0.74549 0.61057 0.0
O158 O 0.12242 0.81298 0.61801 0.0
O159 O 0.15992 0.84159 0.57665 0.0
C160 C 0.08361 0.77652 0.62384 0.0
H161 H 0.18611 0.69562 0.57395 0.0
H162 H 0.972 0.81652 0.57944 0.0
H163 H 0.02774 0.75572 0.52661 0.0
H164 H 1.0 0.63413 0.56054 0.0
Co165 Co 0.30845 0.08791 0.91257 0.0
C166 C 0.39914 0.11335 0.93036 0.0
C167 C 0.40918 0.14849 0.90313 0.0
C168 C 0.44869 0.14533 0.90727 0.0
N169 N 0.37656 0.12592 0.91712 0.0
N170 N 0.44139 0.12117 0.92403 0.0
H171 H 0.38235 0.09149 0.94288 0.0
H172 H 0.40255 0.15946 0.88928 0.0
C173 C 0.31347 0.15429 0.87907 0.0
O174 O 0.33701 0.14134 0.86757 0.0
N175 N 0.24205 0.04865 0.90877 0.0
C176 C 0.21932 1.00147 0.90718 0.0
C177 C 0.17211 0.98544 0.90654 0.0
C178 C 0.20856 0.06076 0.90944 0.0
N179 N 0.16541 0.02269 0.90804 0.0
C180 C 0.34837 0.04017 0.89256 0.0
C181 C 0.28616 0.0085 0.86195 0.0
C182 C 0.31185 0.98593 0.86625 0.0
C183 C 0.34629 1.00511 0.88057 0.0
C184 C 0.29051 0.04489 0.87399 0.0
N185 N 0.31951 0.05853 0.88985 0.0
H186 H 0.36905 0.0477 0.90545 0.0
H187 H 0.26629 0.0578 0.87196 0.0
H188 H 0.23599 0.98015 0.907 0.0
H189 H 0.21565 0.09644 0.9114 0.0
O190 O 0.30367 0.04261 0.93186 0.0
O191 O 0.29595 0.10461 0.9383 0.0
O192 O 0.3051 0.1399 0.89688 0.0
C193 C 0.29458 0.06645 0.94462 0.0
H194 H 0.47704 0.15343 0.89713 0.0
H195 H 0.14479 0.94902 0.90597 0.0
H196 H 0.25866 0.99439 0.85109 0.0
H197 H 0.36678 0.98865 0.88434 0.0
Co198 Co 0.73984 0.81273 0.43973 0.0
C199 C 0.67162 0.71558 0.45037 0.0
C200 C 0.63688 0.7551 0.44512 0.0
C201 C 0.60353 0.70813 0.44696 0.0
N202 N 0.67969 0.7599 0.44757 0.0
N203 N 0.62556 0.68333 0.45026 0.0
H204 H 0.69913 0.70658 0.45077 0.0
H205 H 0.63048 0.78326 0.44102 0.0
C206 C 0.71263 0.85989 0.473 0.0
O207 O 0.67417 0.82093 0.47748 0.0
N208 N 0.79984 0.86462 0.43139 0.0
C209 C 0.81326 0.88314 0.41331 0.0
C210 C 0.85764 0.92112 0.41425 0.0
C211 C 0.83629 0.89221 0.44307 0.0
N212 N 0.87201 0.92657 0.43292 0.0
C213 C 0.80426 0.78603 0.45208 0.0
C214 C 0.76465 0.75169 0.48827 0.0
C215 C 0.7957 0.73849 0.48022 0.0
C216 C 0.81765 0.75844 0.46244 0.0
C217 C 0.75289 0.78057 0.47751 0.0
N218 N 0.77071 0.79498 0.45917 0.0
H219 H 0.81831 0.79724 0.43756 0.0
H220 H 0.72585 0.78681 0.48307 0.0
H221 H 0.79258 0.87099 0.4002 0.0
H222 H 0.83632 0.88783 0.45873 0.0
O223 O 0.74151 0.77337 0.41944 0.0
O224 O 0.71112 0.81948 0.41554 0.0
O225 O 0.73767 0.86069 0.45844 0.0
C226 C 0.72127 0.7889 0.40792 0.0
H227 H 0.56612 0.69323 0.44521 0.0
H228 H 0.87788 0.94299 0.40213 0.0
H229 H 0.74735 0.73754 0.5021 0.0
H230 H 0.84356 0.75113 0.45607 0.0
Co231 Co 0.93517 0.71644 0.79337 0.0
C232 C 0.91017 0.6214 0.77966 0.0
C233 C 0.86857 0.61734 0.80437 0.0
C234 C 0.86829 0.57529 0.8025 0.0
N235 N 0.89711 0.64762 0.79067 0.0
N236 N 0.89597 0.57848 0.78733 0.0
H237 H 0.93712 0.63598 0.76859 0.0
H238 H 0.85336 0.62621 0.8164 0.0
C239 C 0.87171 0.7147 0.82738 0.0
O240 O 0.88635 0.69222 0.8386 0.0
N241 N 0.97402 0.78371 0.7953 0.0
C242 C 0.02122 0.80758 0.79512 0.0
C243 C 0.0362 0.85467 0.79653 0.0
C244 C 0.9608 0.81645 0.79654 0.0
N245 N 0.99823 0.8602 0.79745 0.0
C246 C 0.98351 0.67931 0.81501 0.0
C247 C 0.01849 0.74817 0.84321 0.0
C248 C 0.03968 0.72064 0.84013 0.0
C249 C 0.01916 0.68339 0.82704 0.0
C250 C 0.98162 0.74198 0.83116 0.0
N251 N 0.96614 0.70943 0.81646 0.0
H252 H 0.97501 0.65569 0.80301 0.0
H253 H 0.96915 0.7668 0.83233 0.0
H254 H 0.04321 0.79173 0.79412 0.0
H255 H 0.92469 0.80839 0.7969 0.0
O256 O 0.97945 0.71786 0.77442 0.0
O257 O 0.9176 0.72444 0.76695 0.0
O258 O 0.88408 0.72177 0.80924 0.0
C259 C 0.9555 0.72456 0.76106 0.0
H260 H 0.85351 0.54682 0.81297 0.0
H261 H 0.0723 0.88265 0.79653 0.0
H262 H 0.03372 0.77779 0.85312 0.0
H263 H 0.03473 0.66155 0.82421 0.0
Co264 Co 0.23001 0.93334 0.11609 0.0
C265 C 0.31155 0.92771 0.10507 0.0
C266 C 0.26739 0.86929 0.12315 0.0
C267 C 0.31271 0.87658 0.12396 0.0
N268 N 0.26682 0.90239 0.11162 0.0
N269 N 0.34053 0.91425 0.11288 0.0
H270 H 0.32487 0.96008 0.09701 0.0
H271 H 0.23904 0.84622 0.13272 0.0
C272 C 0.14048 0.84591 0.12665 0.0
O273 O 0.13352 0.83779 0.10784 0.0
N274 N 0.19749 0.96773 0.12079 0.0
C275 C 0.21824 0.01463 0.12334 0.0
C276 C 0.18458 0.02748 0.12411 0.0
C277 C 0.15125 0.95269 0.11981 0.0
N278 N 0.14264 0.98863 0.12183 0.0
C279 C 0.30727 1.00459 0.13733 0.0
C280 C 0.28979 0.95705 0.17226 0.0
C281 C 0.32597 1.00397 0.17145 0.0
C282 C 0.33567 0.02692 0.15331 0.0
C283 C 0.26109 0.93667 0.15609 0.0
N284 N 0.26857 0.9613 0.13911 0.0
H285 H 0.31589 0.02311 0.12361 0.0
H286 H 0.23327 0.90092 0.15751 0.0
H287 H 0.25538 0.03866 0.12371 0.0
H288 H 0.12468 0.91694 0.11676 0.0
O289 O 0.26702 0.98048 0.09667 0.0
O290 O 0.20154 0.91528 0.09018 0.0
O291 O 0.17977 0.87978 0.13252 0.0
C292 C 0.23621 0.95453 0.08381 0.0
H293 H 0.32511 0.85955 0.13391 0.0
H294 H 0.19052 0.06282 0.12592 0.0
H295 H 0.28222 0.9365 0.18548 0.0
H296 H 0.36315 0.06292 0.15145 0.0
Co297 Co 0.329 0.24338 0.47044 0.0
C298 C 0.42107 0.30852 0.45317 0.0
C299 C 0.42892 0.26729 0.47528 0.0
C300 C 0.47206 0.3064 0.47166 0.0
N301 N 0.39607 0.26945 0.46428 0.0
N302 N 0.4668 0.33324 0.45812 0.0
H303 H 0.40518 0.32313 0.44388 0.0
H304 H 0.42221 0.24185 0.4865 0.0
C305 C 0.33577 0.1772 0.50107 0.0
O306 O 0.36428 0.2128 0.51205 0.0
N307 N 0.26356 0.22049 0.4759 0.0
C308 C 0.24517 0.24817 0.48019 0.0
C309 C 0.19736 0.2217 0.47967 0.0
C310 C 0.22663 0.17753 0.47252 0.0
N311 N 0.18574 0.17747 0.4747 0.0
C312 C 0.37387 0.3288 0.49204 0.0
C313 C 0.31595 0.29489 0.5242 0.0
C314 C 0.34015 0.34334 0.52053 0.0
C315 C 0.37235 0.36035 0.50519 0.0
C316 C 0.31852 0.26441 0.51067 0.0
N317 N 0.34516 0.28142 0.49414 0.0
H318 H 0.39335 0.34335 0.47885 0.0
H319 H 0.29409 0.2273 0.51219 0.0
H320 H 0.26528 0.28568 0.48256 0.0
H321 H 0.22968 0.14808 0.46716 0.0
O322 O 0.32641 0.28832 0.45291 0.0
O323 O 0.31185 0.21734 0.44419 0.0
O324 O 0.32297 0.18465 0.48432 0.0
C325 C 0.31398 0.25677 0.43929 0.0
H326 H 0.50384 0.31613 0.4797 0.0
H327 H 0.17301 0.23448 0.4819 0.0
H328 H 0.29004 0.28021 0.53575 0.0
H329 H 0.39139 0.39753 0.50184 0.0
Co330 Co 0.06968 0.30816 0.79122 0.0
C331 C 0.09348 0.40118 0.77554 0.0
C332 C 0.14279 0.40812 0.79729 0.0
C333 C 0.14401 0.45059 0.79526 0.0
N334 N 0.10896 0.3759 0.78571 0.0
N335 N 0.11158 0.44569 0.78205 0.0
H336 H 0.06296 0.38556 0.76631 0.0
H337 H 0.1618 0.40084 0.80815 0.0
C338 C 0.14275 0.31413 0.82135 0.0
O339 O 0.13415 0.34103 0.83285 0.0
N340 N 0.02945 0.24203 0.796 0.0
C341 C 0.9828 0.2203 0.79898 0.0
C342 C 0.96624 0.17294 0.80071 0.0
C343 C 0.04071 0.20781 0.79574 0.0
N344 N 1.00267 0.16519 0.79865 0.0
C345 C 0.03123 0.35275 0.81487 0.0
C346 C 1.00731 0.29209 0.84605 0.0
C347 C 0.98638 0.32016 0.84414 0.0
C348 C 1.0017 0.35343 0.82923 0.0
C349 C 0.03779 0.29331 0.83153 0.0
N350 N 0.04786 0.32195 0.81562 0.0
H351 H 0.03525 0.37308 0.80209 0.0
H352 H 0.0493 0.26767 0.83212 0.0
H353 H 0.9623 0.2378 0.79981 0.0
H354 H 0.07567 0.21384 0.79293 0.0
O355 O 0.02109 0.30573 0.7746 0.0
O356 O 0.07776 0.2929 0.76444 0.0
O357 O 0.12372 0.30292 0.80432 0.0
C358 C 0.03987 0.29459 0.76036 0.0
H359 H 0.1633 0.48097 0.80453 0.0
H360 H 0.93023 0.14632 0.80336 0.0
H361 H 0.99589 0.26528 0.85723 0.0
H362 H 0.98604 0.37543 0.82719 0.0
Co363 Co 0.78106 0.07756 0.13356 0.0
C364 C 0.72082 0.11171 0.11761 0.0
C365 C 0.74706 0.14234 0.14544 0.0
C366 C 0.70561 0.14224 0.14207 0.0
N367 N 0.75535 0.12027 0.1306 0.0
N368 N 0.68775 0.12059 0.12492 0.0
H369 H 0.71515 0.09182 0.10438 0.0
H370 H 0.76477 0.15078 0.15925 0.0
C371 C 0.84365 0.1379 0.16803 0.0
O372 O 0.80726 0.12499 0.17951 0.0
N373 N 0.80402 0.03404 0.13579 0.0
C374 C 0.77734 0.98684 0.13614 0.0
C375 C 0.80613 0.96771 0.13553 0.0
C376 C 0.84851 0.04312 0.13462 0.0
N377 N 0.85076 1.00312 0.13447 0.0
C378 C 0.69356 0.03203 0.1533 0.0
C379 C 0.72026 0.99075 0.18166 0.0
C380 C 0.67269 0.97089 0.17687 0.0
C381 C 0.65938 0.99496 0.164 0.0
C382 C 0.75361 0.02935 0.17102 0.0
N383 N 0.74011 0.04743 0.15601 0.0
H384 H 0.68167 0.04316 0.141 0.0
H385 H 0.79016 0.04012 0.17307 0.0
H386 H 0.73945 0.9677 0.13627 0.0
H387 H 0.87833 0.07814 0.1334 0.0
O388 O 0.73884 0.03615 0.11373 0.0
O389 O 0.80994 0.09523 0.10772 0.0
O390 O 0.83764 0.12516 0.14998 0.0
C391 C 0.77194 0.05921 0.10106 0.0
H392 H 0.68661 0.15034 0.1529 0.0
H393 H 0.79498 0.93065 0.13497 0.0
H394 H 0.73211 0.97298 0.19149 0.0
H395 H 0.62297 0.98077 0.15996 0.0
H396 H 0.62067 0.48164 0.25303 0.0
H397 H 0.39395 0.51064 0.2495 0.0
H398 H 0.62888 0.61667 0.25789 0.0
H399 H 0.38934 0.38691 0.27347 0.0
H400 H 0.48002 0.54867 0.2483 0.0
H401 H 0.53485 0.44383 0.25656 0.0
C402 C 0.60459 0.50324 0.25503 0.0
C403 C 0.63236 0.55236 0.2554 0.0
C404 C 0.45999 0.51325 0.25393 0.0
C405 C 0.53431 0.50962 0.25884 0.0
C406 C 0.41095 0.49161 0.25459 0.0
C407 C 0.38416 0.44567 0.26175 0.0
C408 C 0.48241 0.48836 0.25999 0.0
C409 C 0.40821 0.42251 0.26808 0.0
C410 C 0.55571 0.48176 0.25702 0.0
C411 C 0.60941 0.57873 0.25784 0.0
N412 N 0.45573 0.44386 0.26687 0.0
N413 N 0.56195 0.55712 0.25924 0.0
H414 H 0.1676 0.62125 0.58733 0.0
H415 H 0.90937 0.39723 0.59692 0.0
H416 H 0.04781 0.62691 0.61007 0.0
H417 H 0.03027 0.38728 0.57942 0.0
H418 H 0.95985 0.48204 0.60115 0.0
H419 H 0.11867 0.53579 0.58443 0.0
C420 C 0.13133 0.60478 0.59189 0.0
C421 C 0.11233 0.63213 0.59892 0.0
C422 C 0.97538 0.4613 0.5964 0.0
C423 C 0.05569 0.53384 0.59547 0.0
C424 C 0.94641 0.41283 0.59383 0.0
C425 C 0.96545 0.3848 0.58788 0.0
C426 C 0.02385 0.48222 0.59289 0.0
C427 C 0.01401 0.4072 0.58431 0.0
C428 C 0.10333 0.55587 0.5902 0.0
C429 C 0.06486 0.60819 0.60472 0.0
N430 N 0.04141 0.45441 0.58684 0.0
N431 N 0.03836 0.56082 0.60272 0.0
H432 H 0.39485 0.02933 0.93549 0.0
H433 H 0.61832 0.99884 0.94563 0.0
H434 H 0.53307 0.14353 0.92216 0.0
H435 H 0.48808 0.88736 0.9229 0.0
H436 H 0.58567 0.05122 0.94519 0.0
H437 H 0.42706 0.97697 0.93897 0.0
C438 C 0.43219 0.04388 0.93365 0.0
C439 C 0.46134 0.09146 0.92857 0.0
C440 C 0.56416 0.01518 0.94046 0.0
C441 C 0.49838 0.03079 0.93271 0.0
C442 C 0.58254 0.98482 0.94085 0.0
C443 C 0.556 0.93809 0.9342 0.0
C444 C 0.51833 0.99876 0.93392 0.0
C445 C 0.50989 0.92289 0.92809 0.0
C446 C 0.45039 0.01358 0.93547 0.0
C447 C 0.50935 0.10736 0.92611 0.0
N448 N 0.49245 0.95301 0.92818 0.0
N449 N 0.52644 0.07722 0.92832 0.0
H450 H 0.65729 0.63368 0.47063 0.0
H451 H 0.46406 0.38511 0.42753 0.0
H452 H 0.54765 0.61715 0.43155 0.0
H453 H 0.53827 0.39741 0.48106 0.0
H454 H 0.50422 0.47063 0.42525 0.0
H455 H 0.62304 0.54792 0.47138 0.0
C456 C 0.62609 0.61204 0.46217 0.0
C457 C 0.6052 0.63276 0.45109 0.0
C458 C 0.51191 0.45456 0.43743 0.0
C459 C 0.56614 0.53448 0.45168 0.0
C460 C 0.48897 0.40554 0.43877 0.0
C461 C 0.49688 0.38333 0.45471 0.0
C462 C 0.54382 0.48214 0.45195 0.0
C463 C 0.53076 0.41235 0.46847 0.0
C464 C 0.60651 0.5631 0.46265 0.0
C465 C 0.56463 0.60284 0.44049 0.0
N466 N 0.5527 0.46007 0.46682 0.0
N467 N 0.54665 0.55541 0.44096 0.0
H468 H 0.929 0.55975 0.75403 0.0
H469 H 0.09495 0.48841 0.81263 0.0
H470 H 0.92662 0.54465 0.81658 0.0
H471 H 0.06659 0.45822 0.75133 0.0
H472 H 0.04073 0.51897 0.81335 0.0
H473 H 0.98423 0.52965 0.7518 0.0
C474 C 0.93943 0.54931 0.76724 0.0
C475 C 0.9224 0.55402 0.78547 0.0
C476 C 0.04665 0.50614 0.79966 0.0
C477 C 0.98681 0.52107 0.78312 0.0
C478 C 0.07831 0.48933 0.79916 0.0
C479 C 0.08602 0.47122 0.7818 0.0
C480 C 0.02245 0.50533 0.78265 0.0
C481 C 0.06199 0.47212 0.76498 0.0
C482 C 0.97112 0.5324 0.76598 0.0
C483 C 0.93776 0.54066 0.80217 0.0
N484 N 0.03138 0.48886 0.7658 0.0
N485 N 0.96925 0.5253 0.8006 0.0
H486 H 0.38786 0.0085 0.11831 0.0
H487 H 0.64075 0.03317 0.10834 0.0
H488 H 0.40811 0.88914 0.11163 0.0
H489 H 0.61958 0.14282 0.13262 0.0
H490 H 0.55662 0.98316 0.10547 0.0
H491 H 0.47239 0.05988 0.12024 0.0
C492 C 0.41014 0.99305 0.11712 0.0
C493 C 0.39074 0.94431 0.11456 0.0
C494 C 0.5703 0.01826 0.11129 0.0
C495 C 0.48831 1.00351 0.11676 0.0
C496 C 0.61874 0.04747 0.1127 0.0
C497 C 0.638 0.09307 0.12062 0.0
C498 C 0.54026 0.03445 0.1176 0.0
C499 C 0.60662 0.10821 0.12642 0.0
C500 C 0.45853 0.02252 0.11834 0.0
C501 C 0.42157 0.92641 0.11354 0.0
N502 N 0.55942 0.07908 0.12477 0.0
N503 N 0.46885 0.95603 0.11447 0.0
H504 H 0.35014 0.34071 0.42041 0.0
H505 H 0.17177 0.24926 0.33121 0.0
H506 H 0.25007 0.19367 0.4134 0.0
H507 H 0.31533 0.35788 0.32378 0.0
H508 H 0.18969 0.23779 0.36503 0.0
H509 H 0.3283 0.35617 0.38816 0.0
C510 C 0.32357 0.31168 0.41206 0.0
C511 C 0.30219 0.26575 0.41947 0.0
C512 C 0.21694 0.26473 0.35607 0.0
C513 C 0.27604 0.28349 0.38291 0.0
C514 C 0.20657 0.27179 0.33695 0.0
C515 C 0.24197 0.30518 0.3249 0.0
C516 C 0.26274 0.29194 0.36323 0.0
C517 C 0.28696 0.33232 0.33275 0.0
C518 C 0.31114 0.32056 0.39371 0.0
C519 C 0.26782 0.22947 0.40808 0.0
N520 N 0.29605 0.32531 0.35144 0.0
N521 N 0.25546 0.23915 0.39042 0.0
H522 H 0.8823 0.15321 0.65593 0.0
H523 H 0.99745 0.337 0.742 0.0
H524 H 0.9539 0.30163 0.64374 0.0
H525 H 0.03036 0.22599 0.73473 0.0
H526 H 0.95735 0.31625 0.71029 0.0
H527 H 0.91045 0.17088 0.6899 0.0
C528 C 0.90247 0.18946 0.66054 0.0
C529 C 0.91606 0.22608 0.647 0.0
C530 C 0.97321 0.2964 0.71573 0.0
C531 C 0.94757 0.24629 0.68565 0.0
C532 C 0.99625 0.30828 0.73371 0.0
C533 C 0.01787 0.28361 0.74081 0.0
C534 C 0.97017 0.25841 0.70511 0.0
C535 C 0.01483 0.24637 0.72958 0.0
C536 C 0.91892 0.19943 0.67982 0.0
C537 C 0.94248 0.27243 0.65378 0.0
N538 N 0.99102 0.23456 0.71233 0.0
N539 N 0.95742 0.28128 0.6726 0.0
H540 H 0.81916 0.11084 0.06864 0.0
H541 H 0.70199 0.89688 0.99316 0.0
H542 H 0.71131 0.97281 0.08627 0.0
H543 H 0.75183 0.04045 0.97597 0.0
H544 H 0.71667 0.92249 0.02755 0.0
H545 H 0.80672 0.08413 0.03447 0.0
C546 C 0.79305 0.07493 0.06534 0.0
C547 C 0.76603 0.04413 0.0803 0.0
C548 C 0.72435 0.94826 1.01618 0.0
C549 C 0.7522 0.01312 0.04137 0.0
C550 C 0.71609 0.93368 0.9966 0.0
C551 C 0.72533 0.96649 0.9817 0.0
C552 C 0.74309 0.9961 1.0208 0.0
C553 C 0.7437 0.01384 0.98699 0.0
C554 C 0.78587 0.05974 0.04586 0.0
C555 C 0.73265 0.99788 0.07517 0.0
N556 N 0.75226 0.02723 1.00603 0.0
N557 N 0.72687 0.9837 0.05619 0.0
H558 H 0.70114 0.82848 0.37591 0.0
H559 H 0.81037 0.7224 0.30155 0.0
H560 H 0.73613 0.72224 0.39168 0.0
H561 H 0.70646 0.75589 0.28116 0.0
H562 H 0.79451 0.73661 0.33513 0.0
H563 H 0.7106 0.81412 0.34112 0.0
C564 C 0.70997 0.80175 0.37211 0.0
C565 C 0.7181 0.7768 0.3868 0.0
C566 C 0.77525 0.74096 0.32328 0.0
C567 C 0.73046 0.76148 0.34736 0.0
C568 C 0.78449 0.73309 0.30413 0.0
C569 C 0.75955 0.7377 0.28856 0.0
C570 C 0.7415 0.75452 0.32695 0.0
C571 C 0.72623 0.75159 0.29279 0.0
C572 C 0.71567 0.79381 0.35231 0.0
C573 C 0.72992 0.7428 0.38099 0.0
N574 N 0.71831 0.75979 0.31157 0.0
N575 N 0.73637 0.73671 0.36187 0.0
H576 H 0.13185 0.81999 0.65737 0.0
H577 H 0.90601 0.71385 0.72704 0.0
H578 H 0.99393 0.72055 0.63657 0.0
H579 H 0.04463 0.75645 0.74841 0.0
H580 H 0.93713 0.72786 0.69341 0.0
H581 H 0.10005 0.80889 0.69073 0.0
C582 C 0.09493 0.79595 0.6598 0.0
C583 C 0.06562 0.77091 0.64418 0.0
C584 C 0.96062 0.73416 0.70552 0.0
C585 C 0.02883 0.7587 0.68219 0.0
C586 C 0.94291 0.72633 0.72468 0.0
C587 C 0.97266 0.73367 0.74054 0.0
C588 C 1.00858 0.75048 0.70228 0.0
C589 C 0.02028 0.74988 0.73662 0.0
C590 C 0.07681 0.78956 0.67882 0.0
C591 C 0.01793 0.74025 0.6482 0.0
N592 N 0.03676 0.75797 0.71796 0.0
N593 N 1.00099 0.73522 0.66675 0.0
H594 H 0.29846 0.11784 0.97699 0.0
H595 H 0.1959 0.90073 0.05111 0.0
H596 H 0.26554 0.97873 0.95902 0.0
H597 H 0.28749 0.04341 0.06958 0.0
H598 H 0.20796 0.92784 1.01699 0.0
H599 H 0.28158 0.09021 1.01097 0.0
C600 C 0.28749 0.08149 0.98018 0.0
C601 C 0.28368 0.05061 0.96519 0.0
C602 C 0.22526 0.95313 0.02856 0.0
C603 C 0.26365 0.01866 1.00389 0.0
C604 C 0.21823 0.93773 0.048 0.0
C605 C 0.24093 0.96983 0.06317 0.0
C606 C 0.25435 1.00107 0.02434 0.0
C607 C 0.2696 0.0174 0.05831 0.0
C608 C 0.278 0.06579 0.99955 0.0
C609 C 0.2693 1.00382 0.97016 0.0
N610 N 0.27531 0.03161 0.03936 0.0
N611 N 0.25959 0.9892 0.98904 0.0
H612 H 0.03925 0.13526 0.27121 0.0
H613 H 0.94282 0.87478 0.23018 0.0
H614 H 0.12295 0.06787 0.26588 0.0
H615 H 0.85386 0.93283 0.24454 0.0
H616 H 1.01078 0.9485 0.2402 0.0
H617 H 0.97187 0.06405 0.25846 0.0
C618 C 0.04337 0.10547 0.26739 0.0
C619 C 0.08651 0.10723 0.26985 0.0
C620 C 0.97634 0.9451 0.24108 0.0
C621 C 1.01006 0.02603 0.25521 0.0
C622 C 0.93754 0.90297 0.23541 0.0
C623 C 0.89246 0.89736 0.23663 0.0
C624 C 0.97005 0.98193 0.24799 0.0
C625 C 0.88784 0.93552 0.24316 0.0
C626 C 1.005 0.06488 0.26016 0.0
C627 C 0.09009 0.06769 0.26467 0.0
N628 N 0.92614 0.97609 0.24868 0.0
N629 N 0.05237 0.02874 0.25759 0.0
H630 H 0.93676 0.05007 0.56317 0.0
H631 H 0.10807 0.9544 0.5928 0.0
H632 H 0.03454 0.10172 0.6109 0.0
H633 H 0.98542 0.87816 0.55693 0.0
H634 H 0.09874 0.02365 0.59054 0.0
H635 H 0.97095 1.00186 0.55242 0.0
C636 C 0.96599 0.05176 0.5711 0.0
C637 C 0.98223 0.0785 0.58817 0.0
C638 C 0.07436 0.99197 0.58287 0.0
C639 C 0.0215 0.02464 0.57608 0.0
C640 C 0.07981 0.95257 0.5841 0.0
C641 C 0.04657 0.91023 0.57555 0.0
C642 C 0.03541 0.98876 0.57308 0.0
C643 C 1.01078 0.90979 0.56431 0.0
C644 C 0.98543 0.02445 0.56503 0.0
C645 C 0.02035 0.08028 0.59798 0.0
N646 N 1.00561 0.94828 0.56366 0.0
N647 N 0.03842 0.05325 0.59191 0.0
H648 H 0.1473 0.08393 0.92754 0.0
H649 H 0.87216 0.93836 0.90638 0.0
H650 H 0.08224 0.95717 0.89305 0.0
H651 H 0.93887 0.0628 0.94221 0.0
H652 H 0.94841 0.94371 0.90136 0.0
H653 H 0.07091 0.07745 0.9323 0.0
C654 C 0.11702 0.05501 0.92078 0.0
C655 C 0.1211 0.02097 0.90992 0.0
C656 C 0.94627 0.96977 0.91035 0.0
C657 C 0.03337 0.01281 0.91558 0.0
C658 C 0.90276 0.9665 0.91333 0.0
C659 C 0.89936 1.0004 0.92461 0.0
C660 C 0.98642 1.00716 0.91875 0.0
C661 C 0.94011 0.03645 0.93312 0.0
C662 C 0.0733 0.05105 0.92365 0.0
C663 C 0.0805 0.98379 0.90176 0.0
N664 N 0.98195 0.03895 0.92997 0.0
N665 N 0.03824 0.98063 0.90478 0.0
H666 H 0.92329 0.91781 0.46181 0.0
H667 H 0.11832 0.18803 0.45713 0.0
H668 H 0.92132 0.01633 0.42077 0.0
H669 H 0.14863 0.08368 0.48011 0.0
H670 H 0.04032 0.12613 0.44815 0.0
H671 H 1.00078 0.97908 0.47309 0.0
C672 C 0.93909 0.95244 0.45532 0.0
C673 C 0.91625 0.96223 0.44032 0.0
C674 C 0.06393 0.11667 0.45518 0.0
C675 C 1.00396 0.03185 0.45305 0.0
C676 C 0.10831 0.15199 0.46044 0.0
C677 C 0.13974 0.14083 0.46946 0.0
C678 C 0.05057 0.06973 0.45908 0.0
C679 C 0.12531 0.09349 0.47308 0.0
C680 C 0.98325 0.98711 0.46162 0.0
C681 C 0.93812 1.00734 0.43221 0.0
N682 N 0.08148 0.05947 0.46795 0.0
N683 N 0.98068 0.04055 0.43873 0.0
H684 H 0.06653 0.94247 0.81233 0.0
H685 H 0.92937 0.08061 0.78872 0.0
H686 H 0.92969 0.87805 0.78575 0.0
H687 H 0.0719 0.1478 0.80942 0.0
H688 H 0.92694 1.00511 0.78949 0.0
H689 H 0.06733 0.01711 0.81319 0.0
C690 C 0.03671 0.944 0.80659 0.0
C691 C 0.99813 0.90393 0.7988 0.0
C692 C 0.95875 0.03635 0.79388 0.0
C693 C 0.99862 0.98928 0.79995 0.0
C694 C 0.96007 0.07943 0.79355 0.0
C695 C 1.00091 0.12055 0.79902 0.0
C696 C 0.99852 0.0343 0.79978 0.0
C697 C 0.03991 0.11705 0.80485 0.0
C698 C 0.03711 0.98663 0.80718 0.0
C699 C 0.96001 0.90786 0.79201 0.0
N700 N 0.03774 0.07463 0.8051 0.0
N701 N 0.96129 0.94985 0.79269 0.0
H702 H 0.86348 0.93177 0.14681 0.0
H703 H 0.12569 0.05429 0.10658 0.0
H704 H 0.93117 0.06393 0.11597 0.0
H705 H 0.05926 0.9196 0.13533 0.0
H706 H 0.05254 0.05573 0.10839 0.0
H707 H 0.93299 0.9242 0.1416 0.0
C708 C 0.89288 0.95908 0.13888 0.0
C709 C 0.89169 0.99867 0.13189 0.0
C710 C 0.0537 0.02567 0.11424 0.0
C711 C 0.97112 0.99035 0.12596 0.0
C712 C 0.09548 0.02496 0.11326 0.0
C713 C 0.09843 0.98709 0.12108 0.0
C714 C 0.01459 0.98835 0.12324 0.0
C715 C 0.05816 0.94939 0.12915 0.0
C716 C 0.93252 0.95478 0.13594 0.0
C717 C 0.93088 0.03327 0.12191 0.0
N718 N 0.01781 0.95116 0.13023 0.0
N719 N 0.96902 0.0283 0.11926 0.0
H720 H 0.93047 0.16767 0.15056 0.0
H721 H 0.07655 0.25333 0.25128 0.0
H722 H 0.8678 0.16602 0.20618 0.0
H723 H 0.1413 0.26966 0.19481 0.0
H724 H 1.00002 0.22101 0.23514 0.0
H725 H 1.00766 0.20462 0.16638 0.0
C726 C 0.93277 0.17534 0.16603 0.0
C727 C 0.892 0.16361 0.17691 0.0
C728 C 0.03101 0.2319 0.22626 0.0
C729 C 0.98104 0.20576 0.19535 0.0
C730 C 0.07493 0.25053 0.23551 0.0
C731 C 0.11604 0.26465 0.22452 0.0
C732 C 0.02763 0.22688 0.20577 0.0
C733 C 0.11102 0.25958 0.20405 0.0
C734 C 0.97704 0.19641 0.17512 0.0
C735 C 0.89782 0.17433 0.19703 0.0
N736 N 0.06801 0.24112 0.19544 0.0
N737 N 0.94106 0.19443 0.20552 0.0
H738 H 0.87996 0.12747 0.53579 0.0
H739 H 0.67089 0.86966 0.50626 0.0
H740 H 0.76202 0.04028 0.57273 0.0
H741 H 0.79455 0.94632 0.47069 0.0
H742 H 0.70146 0.93538 0.52916 0.0
H743 H 0.84729 0.06595 0.51044 0.0
C744 C 0.8469 0.09585 0.5385 0.0
C745 C 0.8238 0.08947 0.55655 0.0
C746 C 0.72196 0.93812 0.51631 0.0
C747 C 0.78619 0.01832 0.5275 0.0
C748 C 0.70435 0.90041 0.50311 0.0
C749 C 0.7299 0.90192 0.48633 0.0
C750 C 0.76575 0.97837 0.51295 0.0
C751 C 0.77329 0.94321 0.48332 0.0
C752 C 0.82839 0.06049 0.52404 0.0
C753 C 0.78132 0.04715 0.55917 0.0
N754 N 0.78978 0.9795 0.49645 0.0
N755 N 0.76415 0.01357 0.54496 0.0
H756 H 0.84884 0.71351 0.8661 0.0
H757 H 0.71481 0.86074 0.85342 0.0
H758 H 0.83295 0.76502 0.81038 0.0
H759 H 0.75715 0.83495 0.90946 0.0
H760 H 0.75135 0.82013 0.83758 0.0
H761 H 0.80946 0.75136 0.88188 0.0
C762 C 0.83678 0.73241 0.85705 0.0
C763 C 0.84441 0.73558 0.83669 0.0
C764 C 0.75258 0.82311 0.85334 0.0
C765 C 0.79864 0.77971 0.85506 0.0
C766 C 0.73142 0.84626 0.86252 0.0
C767 C 0.73239 0.85147 0.883 0.0
C768 C 0.77498 0.80425 0.86456 0.0
C769 C 0.75504 0.83187 0.89371 0.0
C770 C 0.81434 0.75432 0.8662 0.0
C771 C 0.82791 0.76116 0.82604 0.0
N772 N 0.7752 0.80921 0.88442 0.0
N773 N 0.80588 0.782 0.8353 0.0
H774 H 0.13055 0.86824 0.16494 0.0
H775 H 0.85855 0.66826 0.17108 0.0
H776 H 0.05582 0.767 0.11972 0.0
H777 H 0.92534 0.77125 0.21656 0.0
H778 H 0.93295 0.70131 0.15372 0.0
H779 H 0.05931 0.83112 0.18536 0.0
C780 C 0.09954 0.83782 0.15937 0.0
C781 C 0.09966 0.82082 0.14046 0.0
C782 C 0.93171 0.71671 0.16755 0.0
C783 C 0.01736 0.77821 0.16385 0.0
C784 C 0.88894 0.69767 0.17758 0.0
C785 C 0.88507 0.71673 0.19546 0.0
C786 C 0.97182 0.75568 0.17519 0.0
C787 C 0.92632 0.755 0.20293 0.0
C788 C 0.05867 0.81679 0.17104 0.0
C789 C 0.05787 0.78159 0.1341 0.0
N790 N 0.96772 0.77331 0.19275 0.0
N791 N 0.01884 0.76194 0.14566 0.0
H792 H 0.19753 0.87315 0.52056 0.0
H793 H 0.34031 0.15127 0.53876 0.0
H794 H 0.21566 0.93441 0.57786 0.0
H795 H 0.28231 0.09097 0.48266 0.0
H796 H 0.30333 0.07243 0.55286 0.0
H797 H 0.23655 0.95194 0.50631 0.0
C798 C 0.21011 0.90308 0.53025 0.0
C799 C 0.20325 0.89658 0.55059 0.0
C800 C 0.29875 0.07632 0.53746 0.0
C801 C 0.24849 0.98792 0.53408 0.0
C802 C 0.32015 0.12152 0.52929 0.0
C803 C 0.31485 0.12832 0.50934 0.0
C804 C 0.27205 0.03686 0.52567 0.0
C805 C 0.28771 0.08784 0.49804 0.0
C806 C 0.23221 0.94824 0.52201 0.0
C807 C 0.22014 0.93728 0.56217 0.0
N808 N 0.26763 0.04408 0.50631 0.0
N809 N 0.24203 0.98095 0.5538 0.0
H810 H 0.30801 0.17378 0.84037 0.0
H811 H 0.17416 0.31904 0.85883 0.0
H812 H 0.26755 0.1954 0.89773 0.0
H813 H 0.17547 0.2602 0.80263 0.0
H814 H 0.21615 0.282 0.8727 0.0
H815 H 0.26808 0.21278 0.82607 0.0
C816 C 0.2912 0.1871 0.85006 0.0
C817 C 0.29168 0.18125 0.87044 0.0
C818 C 0.20747 0.27724 0.85732 0.0
C819 C 0.2454 0.22648 0.85386 0.0
C820 C 0.18355 0.29868 0.84927 0.0
C821 C 0.1711 0.29323 0.82936 0.0
C822 C 0.22 0.2502 0.84548 0.0
C823 C 0.18428 0.26581 0.81798 0.0
C824 C 0.26806 0.2092 0.84178 0.0
C825 C 0.26855 0.19909 0.88201 0.0
N826 N 0.20806 0.24561 0.82615 0.0
N827 N 0.24669 0.22093 0.8736 0.0
H828 H 0.26977 0.14331 0.25313 0.0
H829 H 0.41166 0.08584 0.17694 0.0
H830 H 0.37219 0.2434 0.21328 0.0
H831 H 0.2883 0.98589 0.20871 0.0
H832 H 0.42231 0.14578 0.20068 0.0
H833 H 0.30047 0.09028 0.24708 0.0
C834 C 0.29882 0.15392 0.24307 0.0
C835 C 0.31732 0.19651 0.23297 0.0
C836 C 0.39379 0.11023 0.20268 0.0
C837 C 0.35254 0.13639 0.22596 0.0
C838 C 0.38727 0.07593 0.18902 0.0
C839 C 0.34644 0.03158 0.18966 0.0
C840 C 0.35982 0.0994 0.21722 0.0
C841 C 0.31893 0.01996 0.2067 0.0
C842 C 0.31675 0.12407 0.23983 0.0
C843 C 0.35619 0.20996 0.22079 0.0
N844 N 0.3253 0.0541 0.21947 0.0
N845 N 0.37186 0.17934 0.2172 0.0
H846 H 0.09392 0.3067 0.52168 0.0
H847 H 0.31935 0.3542 0.55837 0.0
H848 H 0.13199 0.36411 0.57977 0.0
H849 H 0.31222 0.39433 0.49908 0.0
H850 H 0.25785 0.37195 0.56742 0.0
H851 H 0.17626 0.35144 0.51213 0.0
C852 C 0.11938 0.32991 0.53224 0.0
C853 C 0.10661 0.3302 0.55173 0.0
C854 C 0.27119 0.37887 0.5526 0.0
C855 C 0.20049 0.38038 0.54112 0.0
C856 C 0.30632 0.36877 0.54749 0.0
C857 C 0.32005 0.37185 0.52793 0.0
C858 C 0.24884 0.39032 0.53788 0.0
C859 C 0.30222 0.39099 0.51433 0.0
C860 C 0.16642 0.35553 0.5268 0.0
C861 C 0.14093 0.36134 0.56478 0.0
N862 N 0.26613 0.39777 0.51938 0.0
N863 N 0.18667 0.38393 0.55946 0.0
H864 H 0.90718 0.30529 0.82581 0.0
H865 H 0.7523 0.12705 0.90795 0.0
H866 H 0.95952 0.2962 0.88242 0.0
H867 H 0.75244 0.09278 0.84713 0.0
H868 H 0.80456 0.2099 0.90033 0.0
H869 H 0.82794 0.25118 0.83681 0.0
C870 C 0.90192 0.29389 0.8409 0.0
C871 C 0.94011 0.30436 0.85315 0.0
C872 C 0.79156 0.18439 0.88859 0.0
C873 C 0.84965 0.24247 0.86556 0.0
C874 C 0.76179 0.13726 0.89285 0.0
C875 C 0.74861 0.10329 0.87809 0.0
C876 C 0.80756 0.19739 0.86945 0.0
C877 C 0.76232 0.11806 0.85886 0.0
C878 C 0.85661 0.26275 0.84705 0.0
C879 C 0.93104 0.28816 0.87245 0.0
N880 N 0.79169 0.16423 0.8551 0.0
N881 N 0.88656 0.25698 0.87798 0.0
H882 H 0.60996 0.70457 0.21389 0.0
H883 H 0.62018 0.9072 0.14924 0.0
H884 H 0.66204 0.73468 0.15462 0.0
H885 H 0.6557 0.91857 0.2104 0.0
H886 H 0.5907 0.82304 0.15079 0.0
H887 H 0.58122 0.75939 0.21048 0.0
C888 C 0.61346 0.72085 0.19978 0.0
C889 C 0.63962 0.71578 0.18459 0.0
C890 C 0.60311 0.84372 0.16402 0.0
C891 C 0.60689 0.77891 0.18091 0.0
C892 C 0.61976 0.89177 0.16326 0.0
C893 C 0.6411 0.92004 0.17973 0.0
C894 C 0.60752 0.82392 0.18136 0.0
C895 C 0.64016 0.89806 0.19735 0.0
C896 C 0.59718 0.75245 0.19798 0.0
C897 C 0.64312 0.73842 0.16682 0.0
N898 N 0.62441 0.85118 0.19764 0.0
N899 N 0.62788 0.76998 0.16559 0.0
H900 H 0.80766 0.66982 0.46295 0.0
H901 H 0.92505 0.64347 0.55875 0.0
H902 H 0.80517 0.72733 0.51942 0.0
H903 H 0.99192 0.67975 0.50223 0.0
H904 H 0.85132 0.62705 0.54362 0.0
H905 H 0.84433 0.62839 0.47778 0.0
C906 C 0.814 0.67308 0.47853 0.0
C907 C 0.80564 0.70402 0.48984 0.0
C908 C 0.88163 0.63642 0.53446 0.0
C909 C 0.84507 0.6549 0.50682 0.0
C910 C 0.92363 0.6456 0.543 0.0
C911 C 0.9646 0.66383 0.53166 0.0
C912 C 0.88088 0.64516 0.51451 0.0
C913 C 0.96107 0.66642 0.51141 0.0
C914 C 0.83421 0.64885 0.48695 0.0
C915 C 0.81209 0.70483 0.51007 0.0
N916 N 0.91993 0.65811 0.50346 0.0
N917 N 0.83243 0.68137 0.5179 0.0
H918 H 0.29509 0.9136 0.89036 0.0
H919 H 0.11093 0.73335 0.81627 0.0
H920 H 0.28259 0.94468 0.83015 0.0
H921 H 0.08106 0.75241 0.87595 0.0
H922 H 0.19401 0.78585 0.8222 0.0
H923 H 0.23934 0.83129 0.88441 0.0
C924 C 0.28245 0.90289 0.87561 0.0
C925 C 0.2928 0.93622 0.86074 0.0
C926 C 0.1694 0.7769 0.83417 0.0
C927 C 0.22898 0.84219 0.85409 0.0
C928 C 0.122 0.74683 0.8309 0.0
C929 C 0.08906 0.73913 0.84565 0.0
C930 C 0.18381 0.79894 0.8523 0.0
C931 C 0.10537 0.75807 0.86418 0.0
C932 C 0.25041 0.85586 0.87234 0.0
C933 C 0.27481 0.92017 0.84205 0.0
N934 N 0.15179 0.78789 0.86692 0.0
N935 N 0.24288 0.87418 0.83932 0.0
loop_
_geom_bond_atom_site_label_1
_geom_bond_atom_site_label_2
_geom_bond_distance
_geom_bond_site_symmetry_2
_ccdc_geom_bond_type
Co0 N4 2.148 . S
Co0 N10 2.128 . S
Co0 N20 2.194 . S
Co0 O25 2.351 . S
Co0 O26 2.155 . S
Co0 O27 2.096 . S
C1 N4 1.301 . S
C1 N5 1.328 . S
C1 H6 0.930 . S
C2 C3 1.333 . S
C2 N4 1.317 . S
C2 H7 0.930 . S
C3 C2 1.333 . S
C3 N5 1.350 . S
C3 H29 0.931 . S
N4 Co0 2.148 . S
N4 C1 1.301 . S
N4 C2 1.317 . S
N5 C1 1.328 . S
N5 C3 1.350 . S
H6 C1 0.930 . S
H7 C2 0.930 . S
C8 O9 1.224 . S
C8 O27 1.247 . S
O9 C8 1.224 . S
N10 Co0 2.128 . S
N10 C11 1.355 . S
N10 C13 1.311 . S
C11 N10 1.355 . S
C11 C12 1.363 . S
C11 H23 0.929 . S
C12 C11 1.363 . S
C12 N14 1.375 . S
C12 H30 0.931 . S
C13 N10 1.311 . S
C13 N14 1.347 . S
C13 H24 0.929 . S
N14 C12 1.375 . S
N14 C13 1.347 . S
C15 C18 1.365 . S
C15 N20 1.328 . S
C15 H21 0.929 . S
C16 C17 1.362 . S
C16 C19 1.378 . S
C16 H31 0.929 . S
C17 C16 1.362 . S
C17 C18 1.366 . S
C18 C15 1.365 . S
C18 C17 1.366 . S
C18 H32 0.930 . S
C19 C16 1.378 . S
C19 N20 1.315 . S
C19 H22 0.930 . S
N20 Co0 2.194 . S
N20 C15 1.328 . S
N20 C19 1.315 . S
H21 C15 0.929 . S
H22 C19 0.930 . S
H23 C11 0.929 . S
H24 C13 0.929 . S
O25 Co0 2.351 . S
O25 C28 1.244 . S
O26 Co0 2.155 . S
O26 C28 1.240 . S
O27 Co0 2.096 . S
O27 C8 1.247 . S
C28 O25 1.244 . S
C28 O26 1.240 . S
H29 C3 0.931 . S
H30 C12 0.931 . S
H31 C16 0.929 . S
H32 C18 0.930 . S
Co33 N37 2.148 . S
Co33 N43 2.128 . S
Co33 N53 2.194 . S
Co33 O58 2.351 . S
Co33 O59 2.155 . S
Co33 O60 2.096 . S
C34 N37 1.301 . S
C34 N38 1.328 . S
C34 H39 0.930 . S
C35 C36 1.333 . S
C35 N37 1.317 . S
C35 H40 0.930 . S
C36 C35 1.333 . S
C36 N38 1.350 . S
C36 H62 0.931 . S
N37 Co33 2.148 . S
N37 C34 1.301 . S
N37 C35 1.317 . S
N38 C34 1.328 . S
N38 C36 1.350 . S
H39 C34 0.930 . S
H40 C35 0.930 . S
C41 O42 1.224 . S
C41 O60 1.247 . S
O42 C41 1.224 . S
N43 Co33 2.128 . S
N43 C44 1.355 . S
N43 C46 1.311 . S
C44 N43 1.355 . S
C44 C45 1.363 . S
C44 H56 0.929 1_655 S
C45 C44 1.363 . S
C45 N47 1.375 . S
C45 H63 0.931 1_655 S
C46 N43 1.311 . S
C46 N47 1.347 . S
C46 H57 0.929 . S
N47 C45 1.375 . S
N47 C46 1.347 . S
C48 C51 1.365 . S
C48 N53 1.328 1_455 S
C48 H54 0.929 . S
C49 C50 1.362 . S
C49 C52 1.378 1_455 S
C49 H64 0.929 . S
C50 C49 1.362 . S
C50 C51 1.366 . S
C51 C48 1.365 . S
C51 C50 1.366 . S
C51 H65 0.930 . S
C52 C49 1.378 1_655 S
C52 N53 1.315 . S
C52 H55 0.930 . S
N53 Co33 2.194 . S
N53 C48 1.328 1_655 S
N53 C52 1.315 . S
H54 C48 0.929 . S
H55 C52 0.930 . S
H56 C44 0.929 1_455 S
H57 C46 0.929 . S
O58 Co33 2.351 . S
O58 C61 1.244 . S
O59 Co33 2.155 . S
O59 C61 1.240 . S
O60 Co33 2.096 . S
O60 C41 1.247 . S
C61 O58 1.244 . S
C61 O59 1.240 . S
H62 C36 0.931 . S
H63 C45 0.931 1_455 S
H64 C49 0.929 . S
H65 C51 0.930 . S
Co66 N70 2.148 . S
Co66 N76 2.128 . S
Co66 N86 2.194 . S
Co66 O91 2.351 . S
Co66 O92 2.155 . S
Co66 O93 2.096 . S
C67 N70 1.301 . S
C67 N71 1.328 . S
C67 H72 0.930 . S
C68 C69 1.333 . S
C68 N70 1.317 . S
C68 H73 0.930 . S
C69 C68 1.333 . S
C69 N71 1.350 . S
C69 H95 0.931 . S
N70 Co66 2.148 . S
N70 C67 1.301 . S
N70 C68 1.317 . S
N71 C67 1.328 . S
N71 C69 1.350 . S
H72 C67 0.930 . S
H73 C68 0.930 . S
C74 O75 1.224 . S
C74 O93 1.247 . S
O75 C74 1.224 . S
N76 Co66 2.128 . S
N76 C77 1.355 . S
N76 C79 1.311 . S
C77 N76 1.355 . S
C77 C78 1.363 . S
C77 H89 0.929 1_565 S
C78 C77 1.363 . S
C78 N80 1.375 . S
C78 H96 0.931 1_565 S
C79 N76 1.311 . S
C79 N80 1.347 . S
C79 H90 0.929 . S
N80 C78 1.375 . S
N80 C79 1.347 . S
C81 C84 1.365 . S
C81 N86 1.328 1_545 S
C81 H87 0.929 . S
C82 C83 1.362 . S
C82 C85 1.378 1_545 S
C82 H97 0.929 . S
C83 C82 1.362 . S
C83 C84 1.366 . S
C84 C81 1.365 . S
C84 C83 1.366 . S
C84 H98 0.930 . S
C85 C82 1.378 1_565 S
C85 N86 1.315 . S
C85 H88 0.930 . S
N86 Co66 2.194 . S
N86 C81 1.328 1_565 S
N86 C85 1.315 . S
H87 C81 0.929 . S
H88 C85 0.930 . S
H89 C77 0.929 1_545 S
H90 C79 0.929 . S
O91 Co66 2.351 . S
O91 C94 1.244 . S
O92 Co66 2.155 . S
O92 C94 1.240 . S
O93 Co66 2.096 . S
O93 C74 1.247 . S
C94 O91 1.244 . S
C94 O92 1.240 . S
H95 C69 0.931 . S
H96 C78 0.931 1_545 S
H97 C82 0.929 . S
H98 C84 0.930 . S
Co99 N103 2.148 . S
Co99 N109 2.128 . S
Co99 N119 2.194 . S
Co99 O124 2.351 . S
Co99 O125 2.155 . S
Co99 O126 2.096 . S
C100 N103 1.301 . S
C100 N104 1.328 . S
C100 H105 0.930 . S
C101 C102 1.333 . S
C101 N103 1.317 . S
C101 H106 0.930 . S
C102 C101 1.333 . S
C102 N104 1.350 . S
C102 H128 0.931 . S
N103 Co99 2.148 . S
N103 C100 1.301 . S
N103 C101 1.317 . S
N104 C100 1.328 . S
N104 C102 1.350 . S
H105 C100 0.930 . S
H106 C101 0.930 . S
C107 O108 1.224 . S
C107 O126 1.247 . S
O108 C107 1.224 . S
N109 Co99 2.128 . S
N109 C110 1.355 . S
N109 C112 1.311 . S
C110 N109 1.355 . S
C110 C111 1.363 . S
C110 H122 0.929 . S
C111 C110 1.363 . S
C111 N113 1.375 . S
C111 H129 0.931 . S
C112 N109 1.311 . S
C112 N113 1.347 . S
C112 H123 0.929 . S
N113 C111 1.375 . S
N113 C112 1.347 . S
C114 C117 1.365 . S
C114 N119 1.328 . S
C114 H120 0.929 . S
C115 C116 1.362 . S
C115 C118 1.378 . S
C115 H130 0.929 . S
C116 C115 1.362 . S
C116 C117 1.366 . S
C117 C114 1.365 . S
C117 C116 1.366 . S
C117 H131 0.930 . S
C118 C115 1.378 . S
C118 N119 1.315 . S
C118 H121 0.930 . S
N119 Co99 2.194 . S
N119 C114 1.328 . S
N119 C118 1.315 . S
H120 C114 0.929 . S
H121 C118 0.930 . S
H122 C110 0.929 . S
H123 C112 0.929 . S
O124 Co99 2.351 . S
O124 C127 1.244 . S
O125 Co99 2.155 . S
O125 C127 1.240 . S
O126 Co99 2.096 . S
O126 C107 1.247 . S
C127 O124 1.244 . S
C127 O125 1.240 . S
H128 C102 0.931 . S
H129 C111 0.931 . S
H130 C115 0.929 . S
H131 C117 0.930 . S
Co132 N136 2.148 . S
Co132 N142 2.128 . S
Co132 N152 2.194 . S
Co132 O157 2.351 . S
Co132 O158 2.155 . S
Co132 O159 2.096 . S
C133 N136 1.301 . S
C133 N137 1.328 . S
C133 H138 0.930 . S
C134 C135 1.333 . S
C134 N136 1.317 . S
C134 H139 0.930 . S
C135 C134 1.333 . S
C135 N137 1.350 . S
C135 H161 0.931 . S
N136 Co132 2.148 . S
N136 C133 1.301 . S
N136 C134 1.317 . S
N137 C133 1.328 . S
N137 C135 1.350 . S
H138 C133 0.930 . S
H139 C134 0.930 . S
C140 O141 1.224 . S
C140 O159 1.247 . S
O141 C140 1.224 . S
N142 Co132 2.128 . S
N142 C143 1.355 . S
N142 C145 1.311 . S
C143 N142 1.355 . S
C143 C144 1.363 . S
C143 H155 0.929 1_455 S
C144 C143 1.363 . S
C144 N146 1.375 . S
C144 H162 0.931 1_455 S
C145 N142 1.311 . S
C145 N146 1.347 . S
C145 H156 0.929 . S
N146 C144 1.375 . S
N146 C145 1.347 . S
C147 C150 1.365 . S
C147 N152 1.328 1_655 S
C147 H153 0.929 . S
C148 C149 1.362 . S
C148 C151 1.378 1_655 S
C148 H163 0.929 . S
C149 C148 1.362 . S
C149 C150 1.366 . S
C150 C147 1.365 . S
C150 C149 1.366 . S
C150 H164 0.930 . S
C151 C148 1.378 1_455 S
C151 N152 1.315 . S
C151 H154 0.930 . S
N152 Co132 2.194 . S
N152 C147 1.328 1_455 S
N152 C151 1.315 . S
H153 C147 0.929 . S
H154 C151 0.930 . S
H155 C143 0.929 1_655 S
H156 C145 0.929 . S
O157 Co132 2.351 . S
O157 C160 1.244 . S
O158 Co132 2.155 . S
O158 C160 1.240 . S
O159 Co132 2.096 . S
O159 C140 1.247 . S
C160 O157 1.244 . S
C160 O158 1.240 . S
H161 C135 0.931 . S
H162 C144 0.931 1_655 S
H163 C148 0.929 . S
H164 C150 0.930 . S
Co165 N169 2.148 . S
Co165 N175 2.128 . S
Co165 N185 2.194 . S
Co165 O190 2.351 . S
Co165 O191 2.155 . S
Co165 O192 2.096 . S
C166 N169 1.301 . S
C166 N170 1.328 . S
C166 H171 0.930 . S
C167 C168 1.333 . S
C167 N169 1.317 . S
C167 H172 0.930 . S
C168 C167 1.333 . S
C168 N170 1.350 . S
C168 H194 0.931 . S
N169 Co165 2.148 . S
N169 C166 1.301 . S
N169 C167 1.317 . S
N170 C166 1.328 . S
N170 C168 1.350 . S
H171 C166 0.930 . S
H172 C167 0.930 . S
C173 O174 1.224 . S
C173 O192 1.247 . S
O174 C173 1.224 . S
N175 Co165 2.128 . S
N175 C176 1.355 . S
N175 C178 1.311 . S
C176 N175 1.355 . S
C176 C177 1.363 . S
C176 H188 0.929 1_545 S
C177 C176 1.363 . S
C177 N179 1.375 . S
C177 H195 0.931 1_545 S
C178 N175 1.311 . S
C178 N179 1.347 . S
C178 H189 0.929 . S
N179 C177 1.375 . S
N179 C178 1.347 . S
C180 C183 1.365 . S
C180 N185 1.328 1_565 S
C180 H186 0.929 . S
C181 C182 1.362 . S
C181 C184 1.378 1_565 S
C181 H196 0.929 . S
C182 C181 1.362 . S
C182 C183 1.366 . S
C183 C180 1.365 . S
C183 C182 1.366 . S
C183 H197 0.930 . S
C184 C181 1.378 1_545 S
C184 N185 1.315 . S
C184 H187 0.930 . S
N185 Co165 2.194 . S
N185 C180 1.328 1_545 S
N185 C184 1.315 . S
H186 C180 0.929 . S
H187 C184 0.930 . S
H188 C176 0.929 1_565 S
H189 C178 0.929 . S
O190 Co165 2.351 . S
O190 C193 1.244 . S
O191 Co165 2.155 . S
O191 C193 1.240 . S
O192 Co165 2.096 . S
O192 C173 1.247 . S
C193 O190 1.244 . S
C193 O191 1.240 . S
H194 C168 0.931 . S
H195 C177 0.931 1_565 S
H196 C181 0.929 . S
H197 C183 0.930 . S
Co198 N202 2.148 . S
Co198 N208 2.128 . S
Co198 N218 2.194 . S
Co198 O223 2.351 . S
Co198 O224 2.155 . S
Co198 O225 2.096 . S
C199 N202 1.301 . S
C199 N203 1.328 . S
C199 H204 0.930 . S
C200 C201 1.333 . S
C200 N202 1.317 . S
C200 H205 0.930 . S
C201 C200 1.333 . S
C201 N203 1.350 . S
C201 H227 0.931 . S
N202 Co198 2.148 . S
N202 C199 1.301 . S
N202 C200 1.317 . S
N203 C199 1.328 . S
N203 C201 1.350 . S
H204 C199 0.930 . S
H205 C200 0.930 . S
C206 O207 1.224 . S
C206 O225 1.247 . S
O207 C206 1.224 . S
N208 Co198 2.128 . S
N208 C209 1.355 . S
N208 C211 1.311 . S
C209 N208 1.355 . S
C209 C210 1.363 . S
C209 H221 0.929 . S
C210 C209 1.363 . S
C210 N212 1.375 . S
C210 H228 0.931 . S
C211 N208 1.311 . S
C211 N212 1.347 . S
C211 H222 0.929 . S
N212 C210 1.375 . S
N212 C211 1.347 . S
C213 C216 1.365 . S
C213 N218 1.328 . S
C213 H219 0.929 . S
C214 C215 1.362 . S
C214 C217 1.378 . S
C214 H229 0.929 . S
C215 C214 1.362 . S
C215 C216 1.366 . S
C216 C213 1.365 . S
C216 C215 1.366 . S
C216 H230 0.930 . S
C217 C214 1.378 . S
C217 N218 1.315 . S
C217 H220 0.930 . S
N218 Co198 2.194 . S
N218 C213 1.328 . S
N218 C217 1.315 . S
H219 C213 0.929 . S
H220 C217 0.930 . S
H221 C209 0.929 . S
H222 C211 0.929 . S
O223 Co198 2.351 . S
O223 C226 1.244 . S
O224 Co198 2.155 . S
O224 C226 1.240 . S
O225 Co198 2.096 . S
O225 C206 1.247 . S
C226 O223 1.244 . S
C226 O224 1.240 . S
H227 C201 0.931 . S
H228 C210 0.931 . S
H229 C214 0.929 . S
H230 C216 0.930 . S
Co231 N235 2.148 . S
Co231 N241 2.128 . S
Co231 N251 2.194 . S
Co231 O256 2.351 . S
Co231 O257 2.155 . S
Co231 O258 2.096 . S
C232 N235 1.301 . S
C232 N236 1.328 . S
C232 H237 0.930 . S
C233 C234 1.333 . S
C233 N235 1.317 . S
C233 H238 0.930 . S
C234 C233 1.333 . S
C234 N236 1.350 . S
C234 H260 0.931 . S
N235 Co231 2.148 . S
N235 C232 1.301 . S
N235 C233 1.317 . S
N236 C232 1.328 . S
N236 C234 1.350 . S
H237 C232 0.930 . S
H238 C233 0.930 . S
C239 O240 1.224 . S
C239 O258 1.247 . S
O240 C239 1.224 . S
N241 Co231 2.128 . S
N241 C242 1.355 . S
N241 C244 1.311 . S
C242 N241 1.355 . S
C242 C243 1.363 . S
C242 H254 0.929 1_655 S
C243 C242 1.363 . S
C243 N245 1.375 . S
C243 H261 0.931 1_655 S
C244 N241 1.311 . S
C244 N245 1.347 . S
C244 H255 0.929 . S
N245 C243 1.375 . S
N245 C244 1.347 . S
C246 C249 1.365 . S
C246 N251 1.328 1_455 S
C246 H252 0.929 . S
C247 C248 1.362 . S
C247 C250 1.378 1_455 S
C247 H262 0.929 . S
C248 C247 1.362 . S
C248 C249 1.366 . S
C249 C246 1.365 . S
C249 C248 1.366 . S
C249 H263 0.930 . S
C250 C247 1.378 1_655 S
C250 N251 1.315 . S
C250 H253 0.930 . S
N251 Co231 2.194 . S
N251 C246 1.328 1_655 S
N251 C250 1.315 . S
H252 C246 0.929 . S
H253 C250 0.930 . S
H254 C242 0.929 1_455 S
H255 C244 0.929 . S
O256 Co231 2.351 . S
O256 C259 1.244 . S
O257 Co231 2.155 . S
O257 C259 1.240 . S
O258 Co231 2.096 . S
O258 C239 1.247 . S
C259 O256 1.244 . S
C259 O257 1.240 . S
H260 C234 0.931 . S
H261 C243 0.931 1_455 S
H262 C247 0.929 . S
H263 C249 0.930 . S
Co264 N268 2.148 . S
Co264 N274 2.128 . S
Co264 N284 2.194 . S
Co264 O289 2.351 . S
Co264 O290 2.155 . S
Co264 O291 2.096 . S
C265 N268 1.301 . S
C265 N269 1.328 . S
C265 H270 0.930 . S
C266 C267 1.333 . S
C266 N268 1.317 . S
C266 H271 0.930 . S
C267 C266 1.333 . S
C267 N269 1.350 . S
C267 H293 0.931 . S
N268 Co264 2.148 . S
N268 C265 1.301 . S
N268 C266 1.317 . S
N269 C265 1.328 . S
N269 C267 1.350 . S
H270 C265 0.930 . S
H271 C266 0.930 . S
C272 O273 1.224 . S
C272 O291 1.247 . S
O273 C272 1.224 . S
N274 Co264 2.128 . S
N274 C275 1.355 . S
N274 C277 1.311 . S
C275 N274 1.355 . S
C275 C276 1.363 . S
C275 H287 0.929 1_565 S
C276 C275 1.363 . S
C276 N278 1.375 . S
C276 H294 0.931 1_565 S
C277 N274 1.311 . S
C277 N278 1.347 . S
C277 H288 0.929 . S
N278 C276 1.375 . S
N278 C277 1.347 . S
C279 C282 1.365 . S
C279 N284 1.328 1_545 S
C279 H285 0.929 . S
C280 C281 1.362 . S
C280 C283 1.378 1_545 S
C280 H295 0.929 . S
C281 C280 1.362 . S
C281 C282 1.366 . S
C282 C279 1.365 . S
C282 C281 1.366 . S
C282 H296 0.930 . S
C283 C280 1.378 1_565 S
C283 N284 1.315 . S
C283 H286 0.930 . S
N284 Co264 2.194 . S
N284 C279 1.328 1_565 S
N284 C283 1.315 . S
H285 C279 0.929 . S
H286 C283 0.930 . S
H287 C275 0.929 1_545 S
H288 C277 0.929 . S
O289 Co264 2.351 . S
O289 C292 1.244 . S
O290 Co264 2.155 . S
O290 C292 1.240 . S
O291 Co264 2.096 . S
O291 C272 1.247 . S
C292 O289 1.244 . S
C292 O290 1.240 . S
H293 C267 0.931 . S
H294 C276 0.931 1_545 S
H295 C280 0.929 . S
H296 C282 0.930 . S
Co297 N301 2.148 . S
Co297 N307 2.128 . S
Co297 N317 2.194 . S
Co297 O322 2.351 . S
Co297 O323 2.155 . S
Co297 O324 2.096 . S
C298 N301 1.301 . S
C298 N302 1.328 . S
C298 H303 0.930 . S
C299 C300 1.333 . S
C299 N301 1.317 . S
C299 H304 0.930 . S
C300 C299 1.333 . S
C300 N302 1.350 . S
C300 H326 0.931 . S
N301 Co297 2.148 . S
N301 C298 1.301 . S
N301 C299 1.317 . S
N302 C298 1.328 . S
N302 C300 1.350 . S
H303 C298 0.930 . S
H304 C299 0.930 . S
C305 O306 1.224 . S
C305 O324 1.247 . S
O306 C305 1.224 . S
N307 Co297 2.128 . S
N307 C308 1.355 . S
N307 C310 1.311 . S
C308 N307 1.355 . S
C308 C309 1.363 . S
C308 H320 0.929 . S
C309 C308 1.363 . S
C309 N311 1.375 . S
C309 H327 0.931 . S
C310 N307 1.311 . S
C310 N311 1.347 . S
C310 H321 0.929 . S
N311 C309 1.375 . S
N311 C310 1.347 . S
C312 C315 1.365 . S
C312 N317 1.328 . S
C312 H318 0.929 . S
C313 C314 1.362 . S
C313 C316 1.378 . S
C313 H328 0.929 . S
C314 C313 1.362 . S
C314 C315 1.366 . S
C315 C312 1.365 . S
C315 C314 1.366 . S
C315 H329 0.930 . S
C316 C313 1.378 . S
C316 N317 1.315 . S
C316 H319 0.930 . S
N317 Co297 2.194 . S
N317 C312 1.328 . S
N317 C316 1.315 . S
H318 C312 0.929 . S
H319 C316 0.930 . S
H320 C308 0.929 . S
H321 C310 0.929 . S
O322 Co297 2.351 . S
O322 C325 1.244 . S
O323 Co297 2.155 . S
O323 C325 1.240 . S
O324 Co297 2.096 . S
O324 C305 1.247 . S
C325 O322 1.244 . S
C325 O323 1.240 . S
H326 C300 0.931 . S
H327 C309 0.931 . S
H328 C313 0.929 . S
H329 C315 0.930 . S
Co330 N334 2.148 . S
Co330 N340 2.128 . S
Co330 N350 2.194 . S
Co330 O355 2.351 . S
Co330 O356 2.155 . S
Co330 O357 2.096 . S
C331 N334 1.301 . S
C331 N335 1.328 . S
C331 H336 0.930 . S
C332 C333 1.333 . S
C332 N334 1.317 . S
C332 H337 0.930 . S
C333 C332 1.333 . S
C333 N335 1.350 . S
C333 H359 0.931 . S
N334 Co330 2.148 . S
N334 C331 1.301 . S
N334 C332 1.317 . S
N335 C331 1.328 . S
N335 C333 1.350 . S
H336 C331 0.930 . S
H337 C332 0.930 . S
C338 O339 1.224 . S
C338 O357 1.247 . S
O339 C338 1.224 . S
N340 Co330 2.128 . S
N340 C341 1.355 . S
N340 C343 1.311 . S
C341 N340 1.355 . S
C341 C342 1.363 . S
C341 H353 0.929 1_455 S
C342 C341 1.363 . S
C342 N344 1.375 . S
C342 H360 0.931 1_455 S
C343 N340 1.311 . S
C343 N344 1.347 . S
C343 H354 0.929 . S
N344 C342 1.375 . S
N344 C343 1.347 . S
C345 C348 1.365 . S
C345 N350 1.328 1_655 S
C345 H351 0.929 . S
C346 C347 1.362 . S
C346 C349 1.378 1_655 S
C346 H361 0.929 . S
C347 C346 1.362 . S
C347 C348 1.366 . S
C348 C345 1.365 . S
C348 C347 1.366 . S
C348 H362 0.930 . S
C349 C346 1.378 1_455 S
C349 N350 1.315 . S
C349 H352 0.930 . S
N350 Co330 2.194 . S
N350 C345 1.328 1_455 S
N350 C349 1.315 . S
H351 C345 0.929 . S
H352 C349 0.930 . S
H353 C341 0.929 1_655 S
H354 C343 0.929 . S
O355 Co330 2.351 . S
O355 C358 1.244 . S
O356 Co330 2.155 . S
O356 C358 1.240 . S
O357 Co330 2.096 . S
O357 C338 1.247 . S
C358 O355 1.244 . S
C358 O356 1.240 . S
H359 C333 0.931 . S
H360 C342 0.931 1_655 S
H361 C346 0.929 . S
H362 C348 0.930 . S
Co363 N367 2.148 . S
Co363 N373 2.128 . S
Co363 N383 2.194 . S
Co363 O388 2.351 . S
Co363 O389 2.155 . S
Co363 O390 2.096 . S
C364 N367 1.301 . S
C364 N368 1.328 . S
C364 H369 0.930 . S
C365 C366 1.333 . S
C365 N367 1.317 . S
C365 H370 0.930 . S
C366 C365 1.333 . S
C366 N368 1.350 . S
C366 H392 0.931 . S
N367 Co363 2.148 . S
N367 C364 1.301 . S
N367 C365 1.317 . S
N368 C364 1.328 . S
N368 C366 1.350 . S
H369 C364 0.930 . S
H370 C365 0.930 . S
C371 O372 1.224 . S
C371 O390 1.247 . S
O372 C371 1.224 . S
N373 Co363 2.128 . S
N373 C374 1.355 . S
N373 C376 1.311 . S
C374 N373 1.355 . S
C374 C375 1.363 . S
C374 H386 0.929 1_545 S
C375 C374 1.363 . S
C375 N377 1.375 . S
C375 H393 0.931 1_545 S
C376 N373 1.311 . S
C376 N377 1.347 . S
C376 H387 0.929 . S
N377 C375 1.375 . S
N377 C376 1.347 . S
C378 C381 1.365 . S
C378 N383 1.328 1_565 S
C378 H384 0.929 . S
C379 C380 1.362 . S
C379 C382 1.378 1_565 S
C379 H394 0.929 . S
C380 C379 1.362 . S
C380 C381 1.366 . S
C381 C378 1.365 . S
C381 C380 1.366 . S
C381 H395 0.930 . S
C382 C379 1.378 1_545 S
C382 N383 1.315 . S
C382 H385 0.930 . S
N383 Co363 2.194 . S
N383 C378 1.328 1_545 S
N383 C382 1.315 . S
H384 C378 0.929 . S
H385 C382 0.930 . S
H386 C374 0.929 1_565 S
H387 C376 0.929 . S
O388 Co363 2.351 . S
O388 C391 1.244 . S
O389 Co363 2.155 . S
O389 C391 1.240 . S
O390 Co363 2.096 . S
O390 C371 1.247 . S
C391 O388 1.244 . S
C391 O389 1.240 . S
H392 C366 0.931 . S
H393 C375 0.931 1_565 S
H394 C379 0.929 . S
H395 C381 0.930 . S
H396 C402 0.930 . S
H397 C406 0.930 . S
H398 C411 0.929 . S
H399 C409 0.929 . S
H400 C404 0.929 . S
H401 C410 0.929 . S
C402 H396 0.930 . S
C402 C403 1.367 . S
C402 C410 1.378 . S
C403 C402 1.367 . S
C403 C411 1.433 . S
C404 H400 0.929 . S
C404 C406 1.378 . S
C404 C408 1.350 . S
C405 C408 1.463 . S
C405 C410 1.350 . S
C405 N413 1.427 . S
C406 H397 0.930 . S
C406 C404 1.378 . S
C406 C407 1.367 . S
C407 C406 1.367 . S
C407 C409 1.433 . S
C408 C404 1.350 . S
C408 C405 1.463 . S
C408 N412 1.427 . S
C409 H399 0.929 . S
C409 C407 1.433 . S
C409 N412 1.384 . S
C410 H401 0.929 . S
C410 C402 1.378 . S
C410 C405 1.350 . S
C411 H398 0.929 . S
C411 C403 1.433 . S
C411 N413 1.384 . S
N412 C408 1.427 . S
N412 C409 1.384 . S
N413 C405 1.427 . S
N413 C411 1.384 . S
H414 C420 0.930 . S
H415 C424 0.930 . S
H416 C429 0.929 . S
H417 C427 0.929 . S
H418 C422 0.929 . S
H419 C428 0.929 . S
C420 H414 0.930 . S
C420 C421 1.367 . S
C420 C428 1.378 . S
C421 C420 1.367 . S
C421 C429 1.433 . S
C422 H418 0.929 . S
C422 C424 1.378 . S
C422 C426 1.350 . S
C423 C426 1.463 1_455 S
C423 C428 1.350 . S
C423 N431 1.427 1_455 S
C424 H415 0.930 . S
C424 C422 1.378 . S
C424 C425 1.367 . S
C425 C424 1.367 . S
C425 C427 1.433 . S
C426 C422 1.350 . S
C426 C423 1.463 1_655 S
C426 N430 1.427 1_655 S
C427 H417 0.929 . S
C427 C425 1.433 . S
C427 N430 1.384 1_655 S
C428 H419 0.929 . S
C428 C420 1.378 . S
C428 C423 1.350 . S
C429 H416 0.929 . S
C429 C421 1.433 . S
C429 N431 1.384 1_455 S
N430 C426 1.427 1_455 S
N430 C427 1.384 1_455 S
N431 C423 1.427 1_655 S
N431 C429 1.384 1_655 S
H432 C438 0.930 . S
H433 C442 0.930 . S
H434 C447 0.929 . S
H435 C445 0.929 . S
H436 C440 0.929 . S
H437 C446 0.929 . S
C438 H432 0.930 . S
C438 C439 1.367 . S
C438 C446 1.378 1_545 S
C439 C438 1.367 . S
C439 C447 1.433 . S
C440 H436 0.929 . S
C440 C442 1.378 1_545 S
C440 C444 1.350 1_545 S
C441 C444 1.463 1_545 S
C441 C446 1.350 1_545 S
C441 N449 1.427 . S
C442 H433 0.930 . S
C442 C440 1.378 1_565 S
C442 C443 1.367 . S
C443 C442 1.367 . S
C443 C445 1.433 . S
C444 C440 1.350 1_565 S
C444 C441 1.463 1_565 S
C444 N448 1.427 . S
C445 H435 0.929 . S
C445 C443 1.433 . S
C445 N448 1.384 . S
C446 H437 0.929 . S
C446 C438 1.378 1_565 S
C446 C441 1.350 1_565 S
C447 H434 0.929 . S
C447 C439 1.433 . S
C447 N449 1.384 . S
N448 C444 1.427 . S
N448 C445 1.384 . S
N449 C441 1.427 . S
N449 C447 1.384 . S
H450 C456 0.930 . S
H451 C460 0.930 . S
H452 C465 0.929 . S
H453 C463 0.929 . S
H454 C458 0.929 . S
H455 C464 0.929 . S
C456 H450 0.930 . S
C456 C457 1.367 . S
C456 C464 1.378 . S
C457 C456 1.367 . S
C457 C465 1.433 . S
C458 H454 0.929 . S
C458 C460 1.378 . S
C458 C462 1.350 . S
C459 C462 1.463 . S
C459 C464 1.350 . S
C459 N467 1.427 . S
C460 H451 0.930 . S
C460 C458 1.378 . S
C460 C461 1.367 . S
C461 C460 1.367 . S
C461 C463 1.433 . S
C462 C458 1.350 . S
C462 C459 1.463 . S
C462 N466 1.427 . S
C463 H453 0.929 . S
C463 C461 1.433 . S
C463 N466 1.384 . S
C464 H455 0.929 . S
C464 C456 1.378 . S
C464 C459 1.350 . S
C465 H452 0.929 . S
C465 C457 1.433 . S
C465 N467 1.384 . S
N466 C462 1.427 . S
N466 C463 1.384 . S
N467 C459 1.427 . S
N467 C465 1.384 . S
H468 C474 0.930 . S
H469 C478 0.930 . S
H470 C483 0.929 . S
H471 C481 0.929 . S
H472 C476 0.929 . S
H473 C482 0.929 . S
C474 H468 0.930 . S
C474 C475 1.367 . S
C474 C482 1.378 1_655 S
C475 C474 1.367 . S
C475 C483 1.433 . S
C476 H472 0.929 . S
C476 C478 1.378 1_655 S
C476 C480 1.350 1_655 S
C477 C480 1.463 1_655 S
C477 C482 1.350 1_655 S
C477 N485 1.427 . S
C478 H469 0.930 . S
C478 C476 1.378 1_455 S
C478 C479 1.367 . S
C479 C478 1.367 . S
C479 C481 1.433 . S
C480 C476 1.350 1_455 S
C480 C477 1.463 1_455 S
C480 N484 1.427 . S
C481 H471 0.929 . S
C481 C479 1.433 . S
C481 N484 1.384 . S
C482 H473 0.929 . S
C482 C474 1.378 1_455 S
C482 C477 1.350 1_455 S
C483 H470 0.929 . S
C483 C475 1.433 . S
C483 N485 1.384 . S
N484 C480 1.427 . S
N484 C481 1.384 . S
N485 C477 1.427 . S
N485 C483 1.384 . S
H486 C492 0.930 . S
H487 C496 0.930 . S
H488 C501 0.929 . S
H489 C499 0.929 . S
H490 C494 0.929 . S
H491 C500 0.929 . S
C492 H486 0.930 . S
C492 C493 1.367 . S
C492 C500 1.378 1_565 S
C493 C492 1.367 . S
C493 C501 1.433 . S
C494 H490 0.929 . S
C494 C496 1.378 1_565 S
C494 C498 1.350 1_565 S
C495 C498 1.463 1_565 S
C495 C500 1.350 1_565 S
C495 N503 1.427 . S
C496 H487 0.930 . S
C496 C494 1.378 1_545 S
C496 C497 1.367 . S
C497 C496 1.367 . S
C497 C499 1.433 . S
C498 C494 1.350 1_545 S
C498 C495 1.463 1_545 S
C498 N502 1.427 . S
C499 H489 0.929 . S
C499 C497 1.433 . S
C499 N502 1.384 . S
C500 H491 0.929 . S
C500 C492 1.378 1_545 S
C500 C495 1.350 1_545 S
C501 H488 0.929 . S
C501 C493 1.433 . S
C501 N503 1.384 . S
N502 C498 1.427 . S
N502 C499 1.384 . S
N503 C495 1.427 . S
N503 C501 1.384 . S
H504 C510 0.930 . S
H505 C514 0.930 . S
H506 C519 0.929 . S
H507 C517 0.929 . S
H508 C512 0.929 . S
H509 C518 0.929 . S
C510 H504 0.930 . S
C510 C511 1.367 . S
C510 C518 1.378 . S
C511 C510 1.367 . S
C511 C519 1.433 . S
C512 H508 0.929 . S
C512 C514 1.378 . S
C512 C516 1.350 . S
C513 C516 1.463 . S
C513 C518 1.350 . S
C513 N521 1.427 . S
C514 H505 0.930 . S
C514 C512 1.378 . S
C514 C515 1.367 . S
C515 C514 1.367 . S
C515 C517 1.433 . S
C516 C512 1.350 . S
C516 C513 1.463 . S
C516 N520 1.427 . S
C517 H507 0.929 . S
C517 C515 1.433 . S
C517 N520 1.384 . S
C518 H509 0.929 . S
C518 C510 1.378 . S
C518 C513 1.350 . S
C519 H506 0.929 . S
C519 C511 1.433 . S
C519 N521 1.384 . S
N520 C516 1.427 . S
N520 C517 1.384 . S
N521 C513 1.427 . S
N521 C519 1.384 . S
H522 C528 0.930 . S
H523 C532 0.930 . S
H524 C537 0.929 . S
H525 C535 0.929 . S
H526 C530 0.929 . S
H527 C536 0.929 . S
C528 H522 0.930 . S
C528 C529 1.367 . S
C528 C536 1.378 . S
C529 C528 1.367 . S
C529 C537 1.433 . S
C530 H526 0.929 . S
C530 C532 1.378 . S
C530 C534 1.350 . S
C531 C534 1.463 1_655 S
C531 C536 1.350 . S
C531 N539 1.427 . S
C532 H523 0.930 . S
C532 C530 1.378 . S
C532 C533 1.367 . S
C533 C532 1.367 . S
C533 C535 1.433 . S
C534 C530 1.350 . S
C534 C531 1.463 1_455 S
C534 N538 1.427 . S
C535 H525 0.929 . S
C535 C533 1.433 . S
C535 N538 1.384 . S
C536 H527 0.929 . S
C536 C528 1.378 . S
C536 C531 1.350 . S
C537 H524 0.929 . S
C537 C529 1.433 . S
C537 N539 1.384 . S
N538 C534 1.427 . S
N538 C535 1.384 . S
N539 C531 1.427 . S
N539 C537 1.384 . S
H540 C546 0.930 . S
H541 C550 0.930 . S
H542 C555 0.929 . S
H543 C553 0.929 . S
H544 C548 0.929 . S
H545 C554 0.929 . S
C546 H540 0.930 . S
C546 C547 1.367 . S
C546 C554 1.378 . S
C547 C546 1.367 . S
C547 C555 1.433 1_545 S
C548 H544 0.929 . S
C548 C550 1.378 . S
C548 C552 1.350 . S
C549 C552 1.463 1_544 S
C549 C554 1.350 . S
C549 N557 1.427 1_545 S
C550 H541 0.930 . S
C550 C548 1.378 . S
C550 C551 1.367 . S
C551 C550 1.367 . S
C551 C553 1.433 1_565 S
C552 C548 1.350 . S
C552 C549 1.463 1_566 S
C552 N556 1.427 1_565 S
C553 H543 0.929 . S
C553 C551 1.433 1_545 S
C553 N556 1.384 . S
C554 H545 0.929 . S
C554 C546 1.378 . S
C554 C549 1.350 . S
C555 H542 0.929 . S
C555 C547 1.433 1_565 S
C555 N557 1.384 . S
N556 C552 1.427 1_545 S
N556 C553 1.384 . S
N557 C549 1.427 1_565 S
N557 C555 1.384 . S
H558 C564 0.930 . S
H559 C568 0.930 . S
H560 C573 0.929 . S
H561 C571 0.929 . S
H562 C566 0.929 . S
H563 C572 0.929 . S
C564 H558 0.930 . S
C564 C565 1.367 . S
C564 C572 1.378 . S
C565 C564 1.367 . S
C565 C573 1.433 . S
C566 H562 0.929 . S
C566 C568 1.378 . S
C566 C570 1.350 . S
C567 C570 1.463 . S
C567 C572 1.350 . S
C567 N575 1.427 . S
C568 H559 0.930 . S
C568 C566 1.378 . S
C568 C569 1.367 . S
C569 C568 1.367 . S
C569 C571 1.433 . S
C570 C566 1.350 . S
C570 C567 1.463 . S
C570 N574 1.427 . S
C571 H561 0.929 . S
C571 C569 1.433 . S
C571 N574 1.384 . S
C572 H563 0.929 . S
C572 C564 1.378 . S
C572 C567 1.350 . S
C573 H560 0.929 . S
C573 C565 1.433 . S
C573 N575 1.384 . S
N574 C570 1.427 . S
N574 C571 1.384 . S
N575 C567 1.427 . S
N575 C573 1.384 . S
H576 C582 0.930 . S
H577 C586 0.930 . S
H578 C591 0.929 . S
H579 C589 0.929 . S
H580 C584 0.929 . S
H581 C590 0.929 . S
C582 H576 0.930 . S
C582 C583 1.367 . S
C582 C590 1.378 . S
C583 C582 1.367 . S
C583 C591 1.433 1_455 S
C584 H580 0.929 . S
C584 C586 1.378 . S
C584 C588 1.350 . S
C585 C588 1.463 1_455 S
C585 C590 1.350 . S
C585 N593 1.427 1_455 S
C586 H577 0.930 . S
C586 C584 1.378 . S
C586 C587 1.367 . S
C587 C586 1.367 . S
C587 C589 1.433 1_655 S
C588 C584 1.350 . S
C588 C585 1.463 1_655 S
C588 N592 1.427 1_655 S
C589 H579 0.929 . S
C589 C587 1.433 1_455 S
C589 N592 1.384 . S
C590 H581 0.929 . S
C590 C582 1.378 . S
C590 C585 1.350 . S
C591 H578 0.929 . S
C591 C583 1.433 1_655 S
C591 N593 1.384 . S
N592 C588 1.427 1_455 S
N592 C589 1.384 . S
N593 C585 1.427 1_655 S
N593 C591 1.384 . S
H594 C600 0.930 . S
H595 C604 0.930 . S
H596 C609 0.929 . S
H597 C607 0.929 . S
H598 C602 0.929 . S
H599 C608 0.929 . S
C600 H594 0.930 . S
C600 C601 1.367 . S
C600 C608 1.378 . S
C601 C600 1.367 . S
C601 C609 1.433 . S
C602 H598 0.929 . S
C602 C604 1.378 . S
C602 C606 1.350 . S
C603 C606 1.463 1_546 S
C603 C608 1.350 . S
C603 N611 1.427 . S
C604 H595 0.930 . S
C604 C602 1.378 . S
C604 C605 1.367 . S
C605 C604 1.367 . S
C605 C607 1.433 . S
C606 C602 1.350 . S
C606 C603 1.463 1_564 S
C606 N610 1.427 . S
C607 H597 0.929 . S
C607 C605 1.433 . S
C607 N610 1.384 . S
C608 H599 0.929 . S
C608 C600 1.378 . S
C608 C603 1.350 . S
C609 H596 0.929 . S
C609 C601 1.433 . S
C609 N611 1.384 . S
N610 C606 1.427 . S
N610 C607 1.384 . S
N611 C603 1.427 . S
N611 C609 1.384 . S
H612 C618 0.930 . S
H613 C622 0.930 . S
H614 C627 0.929 . S
H615 C625 0.929 . S
H616 C620 0.929 1_455 S
H617 C626 0.929 1_655 S
C618 H612 0.930 . S
C618 C619 1.367 . S
C618 C626 1.378 . S
C619 C618 1.367 . S
C619 C627 1.433 . S
C620 H616 0.929 1_655 S
C620 C622 1.378 . S
C620 C624 1.350 . S
C621 C624 1.463 1_445 S
C621 C626 1.350 . S
C621 N629 1.427 . S
C622 H613 0.930 . S
C622 C620 1.378 . S
C622 C623 1.367 . S
C623 C622 1.367 . S
C623 C625 1.433 . S
C624 C620 1.350 . S
C624 C621 1.463 1_665 S
C624 N628 1.427 . S
C625 H615 0.929 . S
C625 C623 1.433 . S
C625 N628 1.384 . S
C626 H617 0.929 1_455 S
C626 C618 1.378 . S
C626 C621 1.350 . S
C627 H614 0.929 . S
C627 C619 1.433 . S
C627 N629 1.384 . S
N628 C624 1.427 . S
N628 C625 1.384 . S
N629 C621 1.427 . S
N629 C627 1.384 . S
H630 C636 0.930 . S
H631 C640 0.930 . S
H632 C645 0.929 . S
H633 C643 0.929 . S
H634 C638 0.929 . S
H635 C644 0.929 . S
C636 H630 0.930 . S
C636 C637 1.367 . S
C636 C644 1.378 . S
C637 C636 1.367 . S
C637 C645 1.433 . S
C638 H634 0.929 . S
C638 C640 1.378 . S
C638 C642 1.350 . S
C639 C642 1.463 1_645 S
C639 C644 1.350 . S
C639 N647 1.427 . S
C640 H631 0.930 . S
C640 C638 1.378 . S
C640 C641 1.367 . S
C641 C640 1.367 . S
C641 C643 1.433 . S
C642 C638 1.350 . S
C642 C639 1.463 1_465 S
C642 N646 1.427 . S
C643 H633 0.929 . S
C643 C641 1.433 . S
C643 N646 1.384 . S
C644 H635 0.929 . S
C644 C636 1.378 . S
C644 C639 1.350 . S
C645 H632 0.929 . S
C645 C637 1.433 . S
C645 N647 1.384 . S
N646 C642 1.427 . S
N646 C643 1.384 . S
N647 C639 1.427 . S
N647 C645 1.384 . S
H648 C654 0.930 . S
H649 C658 0.930 . S
H650 C663 0.929 . S
H651 C661 0.929 . S
H652 C656 0.929 . S
H653 C662 0.929 . S
C654 H648 0.930 . S
C654 C655 1.367 . S
C654 C662 1.378 . S
C655 C654 1.367 . S
C655 C663 1.433 . S
C656 H652 0.929 . S
C656 C658 1.378 . S
C656 C660 1.350 . S
C657 C660 1.463 1_445 S
C657 C662 1.350 . S
C657 N665 1.427 1_545 S
C658 H649 0.930 . S
C658 C656 1.378 . S
C658 C659 1.367 . S
C659 C658 1.367 . S
C659 C661 1.433 . S
C660 C656 1.350 . S
C660 C657 1.463 1_665 S
C660 N664 1.427 1_565 S
C661 H651 0.929 . S
C661 C659 1.433 . S
C661 N664 1.384 1_565 S
C662 H653 0.929 . S
C662 C654 1.378 . S
C662 C657 1.350 . S
C663 H650 0.929 . S
C663 C655 1.433 . S
C663 N665 1.384 1_545 S
N664 C660 1.427 1_545 S
N664 C661 1.384 1_545 S
N665 C657 1.427 1_565 S
N665 C663 1.384 1_565 S
H666 C672 0.930 . S
H667 C676 0.930 . S
H668 C681 0.929 . S
H669 C679 0.929 . S
H670 C674 0.929 . S
H671 C680 0.929 . S
C672 H666 0.930 . S
C672 C673 1.367 . S
C672 C680 1.378 . S
C673 C672 1.367 . S
C673 C681 1.433 . S
C674 H670 0.929 . S
C674 C676 1.378 . S
C674 C678 1.350 . S
C675 C678 1.463 1_665 S
C675 C680 1.350 . S
C675 N683 1.427 1_565 S
C676 H667 0.930 . S
C676 C674 1.378 . S
C676 C677 1.367 . S
C677 C676 1.367 . S
C677 C679 1.433 . S
C678 C674 1.350 . S
C678 C675 1.463 1_445 S
C678 N682 1.427 1_545 S
C679 H669 0.929 . S
C679 C677 1.433 . S
C679 N682 1.384 1_545 S
C680 H671 0.929 . S
C680 C672 1.378 . S
C680 C675 1.350 . S
C681 H668 0.929 . S
C681 C673 1.433 . S
C681 N683 1.384 1_565 S
N682 C678 1.427 1_565 S
N682 C679 1.384 1_565 S
N683 C675 1.427 1_545 S
N683 C681 1.384 1_545 S
H684 C690 0.930 . S
H685 C694 0.930 . S
H686 C699 0.929 . S
H687 C697 0.929 . S
H688 C692 0.929 . S
H689 C698 0.929 . S
C690 H684 0.930 . S
C690 C691 1.367 . S
C690 C698 1.378 . S
C691 C690 1.367 . S
C691 C699 1.433 . S
C692 H688 0.929 . S
C692 C694 1.378 . S
C692 C696 1.350 . S
C693 C696 1.463 1_665 S
C693 C698 1.350 . S
C693 N701 1.427 . S
C694 H685 0.930 . S
C694 C692 1.378 . S
C694 C695 1.367 . S
C695 C694 1.367 . S
C695 C697 1.433 . S
C696 C692 1.350 . S
C696 C693 1.463 1_445 S
C696 N700 1.427 . S
C697 H687 0.929 . S
C697 C695 1.433 . S
C697 N700 1.384 . S
C698 H689 0.929 . S
C698 C690 1.378 . S
C698 C693 1.350 . S
C699 H686 0.929 . S
C699 C691 1.433 . S
C699 N701 1.384 . S
N700 C696 1.427 . S
N700 C697 1.384 . S
N701 C693 1.427 . S
N701 C699 1.384 . S
H702 C708 0.930 . S
H703 C712 0.930 . S
H704 C717 0.929 . S
H705 C715 0.929 . S
H706 C710 0.929 1_545 S
H707 C716 0.929 1_565 S
C708 H702 0.930 . S
C708 C709 1.367 . S
C708 C716 1.378 . S
C709 C708 1.367 . S
C709 C717 1.433 . S
C710 H706 0.929 1_565 S
C710 C712 1.378 . S
C710 C714 1.350 . S
C711 C714 1.463 1_645 S
C711 C716 1.350 . S
C711 N719 1.427 . S
C712 H703 0.930 . S
C712 C710 1.378 . S
C712 C713 1.367 . S
C713 C712 1.367 . S
C713 C715 1.433 . S
C714 C710 1.350 . S
C714 C711 1.463 1_465 S
C714 N718 1.427 . S
C715 H705 0.929 . S
C715 C713 1.433 . S
C715 N718 1.384 . S
C716 H707 0.929 1_545 S
C716 C708 1.378 . S
C716 C711 1.350 . S
C717 H704 0.929 . S
C717 C709 1.433 . S
C717 N719 1.384 . S
N718 C714 1.427 . S
N718 C715 1.384 . S
N719 C711 1.427 . S
N719 C717 1.384 . S
H720 C726 0.930 . S
H721 C730 0.930 . S
H722 C735 0.929 . S
H723 C733 0.929 . S
H724 C728 0.929 . S
H725 C734 0.929 . S
C726 H720 0.930 . S
C726 C727 1.367 . S
C726 C734 1.378 . S
C727 C726 1.367 . S
C727 C735 1.433 . S
C728 H724 0.929 . S
C728 C730 1.378 . S
C728 C732 1.350 . S
C729 C732 1.463 1_655 S
C729 C734 1.350 . S
C729 N737 1.427 . S
C730 H721 0.930 . S
C730 C728 1.378 . S
C730 C731 1.367 . S
C731 C730 1.367 . S
C731 C733 1.433 . S
C732 C728 1.350 . S
C732 C729 1.463 1_455 S
C732 N736 1.427 . S
C733 H723 0.929 . S
C733 C731 1.433 . S
C733 N736 1.384 . S
C734 H725 0.929 . S
C734 C726 1.378 . S
C734 C729 1.350 . S
C735 H722 0.929 . S
C735 C727 1.433 . S
C735 N737 1.384 . S
N736 C732 1.427 . S
N736 C733 1.384 . S
N737 C729 1.427 . S
N737 C735 1.384 . S
H738 C744 0.930 . S
H739 C748 0.930 . S
H740 C753 0.929 . S
H741 C751 0.929 . S
H742 C746 0.929 . S
H743 C752 0.929 . S
C744 H738 0.930 . S
C744 C745 1.367 . S
C744 C752 1.378 . S
C745 C744 1.367 . S
C745 C753 1.433 . S
C746 H742 0.929 . S
C746 C748 1.378 . S
C746 C750 1.350 . S
C747 C750 1.463 1_545 S
C747 C752 1.350 . S
C747 N755 1.427 . S
C748 H739 0.930 . S
C748 C746 1.378 . S
C748 C749 1.367 . S
C749 C748 1.367 . S
C749 C751 1.433 . S
C750 C746 1.350 . S
C750 C747 1.463 1_565 S
C750 N754 1.427 . S
C751 H741 0.929 . S
C751 C749 1.433 . S
C751 N754 1.384 . S
C752 H743 0.929 . S
C752 C744 1.378 . S
C752 C747 1.350 . S
C753 H740 0.929 . S
C753 C745 1.433 . S
C753 N755 1.384 . S
N754 C750 1.427 . S
N754 C751 1.384 . S
N755 C747 1.427 . S
N755 C753 1.384 . S
H756 C762 0.930 . S
H757 C766 0.930 . S
H758 C771 0.929 . S
H759 C769 0.929 . S
H760 C764 0.929 . S
H761 C770 0.929 . S
C762 H756 0.930 . S
C762 C763 1.367 . S
C762 C770 1.378 . S
C763 C762 1.367 . S
C763 C771 1.433 . S
C764 H760 0.929 . S
C764 C766 1.378 . S
C764 C768 1.350 . S
C765 C768 1.463 . S
C765 C770 1.350 . S
C765 N773 1.427 . S
C766 H757 0.930 . S
C766 C764 1.378 . S
C766 C767 1.367 . S
C767 C766 1.367 . S
C767 C769 1.433 . S
C768 C764 1.350 . S
C768 C765 1.463 . S
C768 N772 1.427 . S
C769 H759 0.929 . S
C769 C767 1.433 . S
C769 N772 1.384 . S
C770 H761 0.929 . S
C770 C762 1.378 . S
C770 C765 1.350 . S
C771 H758 0.929 . S
C771 C763 1.433 . S
C771 N773 1.384 . S
N772 C768 1.427 . S
N772 C769 1.384 . S
N773 C765 1.427 . S
N773 C771 1.384 . S
H774 C780 0.930 . S
H775 C784 0.930 . S
H776 C789 0.929 . S
H777 C787 0.929 . S
H778 C782 0.929 . S
H779 C788 0.929 . S
C780 H774 0.930 . S
C780 C781 1.367 . S
C780 C788 1.378 . S
C781 C780 1.367 . S
C781 C789 1.433 . S
C782 H778 0.929 . S
C782 C784 1.378 . S
C782 C786 1.350 . S
C783 C786 1.463 1_455 S
C783 C788 1.350 . S
C783 N791 1.427 . S
C784 H775 0.930 . S
C784 C782 1.378 . S
C784 C785 1.367 . S
C785 C784 1.367 . S
C785 C787 1.433 . S
C786 C782 1.350 . S
C786 C783 1.463 1_655 S
C786 N790 1.427 . S
C787 H777 0.929 . S
C787 C785 1.433 . S
C787 N790 1.384 . S
C788 H779 0.929 . S
C788 C780 1.378 . S
C788 C783 1.350 . S
C789 H776 0.929 . S
C789 C781 1.433 . S
C789 N791 1.384 . S
N790 C786 1.427 . S
N790 C787 1.384 . S
N791 C783 1.427 . S
N791 C789 1.384 . S
H792 C798 0.930 . S
H793 C802 0.930 . S
H794 C807 0.929 . S
H795 C805 0.929 . S
H796 C800 0.929 . S
H797 C806 0.929 . S
C798 H792 0.930 . S
C798 C799 1.367 . S
C798 C806 1.378 . S
C799 C798 1.367 . S
C799 C807 1.433 . S
C800 H796 0.929 . S
C800 C802 1.378 . S
C800 C804 1.350 . S
C801 C804 1.463 1_565 S
C801 C806 1.350 . S
C801 N809 1.427 . S
C802 H793 0.930 . S
C802 C800 1.378 . S
C802 C803 1.367 . S
C803 C802 1.367 . S
C803 C805 1.433 . S
C804 C800 1.350 . S
C804 C801 1.463 1_545 S
C804 N808 1.427 . S
C805 H795 0.929 . S
C805 C803 1.433 . S
C805 N808 1.384 . S
C806 H797 0.929 . S
C806 C798 1.378 . S
C806 C801 1.350 . S
C807 H794 0.929 . S
C807 C799 1.433 . S
C807 N809 1.384 . S
N808 C804 1.427 . S
N808 C805 1.384 . S
N809 C801 1.427 . S
N809 C807 1.384 . S
H810 C816 0.930 . S
H811 C820 0.930 . S
H812 C825 0.929 . S
H813 C823 0.929 . S
H814 C818 0.929 . S
H815 C824 0.929 . S
C816 H810 0.930 . S
C816 C817 1.367 . S
C816 C824 1.378 . S
C817 C816 1.367 . S
C817 C825 1.433 . S
C818 H814 0.929 . S
C818 C820 1.378 . S
C818 C822 1.350 . S
C819 C822 1.463 . S
C819 C824 1.350 . S
C819 N827 1.427 . S
C820 H811 0.930 . S
C820 C818 1.378 . S
C820 C821 1.367 . S
C821 C820 1.367 . S
C821 C823 1.433 . S
C822 C818 1.350 . S
C822 C819 1.463 . S
C822 N826 1.427 . S
C823 H813 0.929 . S
C823 C821 1.433 . S
C823 N826 1.384 . S
C824 H815 0.929 . S
C824 C816 1.378 . S
C824 C819 1.350 . S
C825 H812 0.929 . S
C825 C817 1.433 . S
C825 N827 1.384 . S
N826 C822 1.427 . S
N826 C823 1.384 . S
N827 C819 1.427 . S
N827 C825 1.384 . S
H828 C834 0.930 . S
H829 C838 0.930 . S
H830 C843 0.929 . S
H831 C841 0.929 . S
H832 C836 0.929 . S
H833 C842 0.929 . S
C834 H828 0.930 . S
C834 C835 1.367 . S
C834 C842 1.378 . S
C835 C834 1.367 . S
C835 C843 1.433 . S
C836 H832 0.929 . S
C836 C838 1.378 . S
C836 C840 1.350 . S
C837 C840 1.463 . S
C837 C842 1.350 . S
C837 N845 1.427 . S
C838 H829 0.930 . S
C838 C836 1.378 . S
C838 C839 1.367 . S
C839 C838 1.367 . S
C839 C841 1.433 . S
C840 C836 1.350 . S
C840 C837 1.463 . S
C840 N844 1.427 . S
C841 H831 0.929 . S
C841 C839 1.433 . S
C841 N844 1.384 . S
C842 H833 0.929 . S
C842 C834 1.378 . S
C842 C837 1.350 . S
C843 H830 0.929 . S
C843 C835 1.433 . S
C843 N845 1.384 . S
N844 C840 1.427 . S
N844 C841 1.384 . S
N845 C837 1.427 . S
N845 C843 1.384 . S
H846 C852 0.930 . S
H847 C856 0.930 . S
H848 C861 0.929 . S
H849 C859 0.929 . S
H850 C854 0.929 . S
H851 C860 0.929 . S
C852 H846 0.930 . S
C852 C853 1.367 . S
C852 C860 1.378 . S
C853 C852 1.367 . S
C853 C861 1.433 . S
C854 H850 0.929 . S
C854 C856 1.378 . S
C854 C858 1.350 . S
C855 C858 1.463 . S
C855 C860 1.350 . S
C855 N863 1.427 . S
C856 H847 0.930 . S
C856 C854 1.378 . S
C856 C857 1.367 . S
C857 C856 1.367 . S
C857 C859 1.433 . S
C858 C854 1.350 . S
C858 C855 1.463 . S
C858 N862 1.427 . S
C859 H849 0.929 . S
C859 C857 1.433 . S
C859 N862 1.384 . S
C860 H851 0.929 . S
C860 C852 1.378 . S
C860 C855 1.350 . S
C861 H848 0.929 . S
C861 C853 1.433 . S
C861 N863 1.384 . S
N862 C858 1.427 . S
N862 C859 1.384 . S
N863 C855 1.427 . S
N863 C861 1.384 . S
H864 C870 0.930 . S
H865 C874 0.930 . S
H866 C879 0.929 . S
H867 C877 0.929 . S
H868 C872 0.929 . S
H869 C878 0.929 . S
C870 H864 0.930 . S
C870 C871 1.367 . S
C870 C878 1.378 . S
C871 C870 1.367 . S
C871 C879 1.433 . S
C872 H868 0.929 . S
C872 C874 1.378 . S
C872 C876 1.350 . S
C873 C876 1.463 . S
C873 C878 1.350 . S
C873 N881 1.427 . S
C874 H865 0.930 . S
C874 C872 1.378 . S
C874 C875 1.367 . S
C875 C874 1.367 . S
C875 C877 1.433 . S
C876 C872 1.350 . S
C876 C873 1.463 . S
C876 N880 1.427 . S
C877 H867 0.929 . S
C877 C875 1.433 . S
C877 N880 1.384 . S
C878 H869 0.929 . S
C878 C870 1.378 . S
C878 C873 1.350 . S
C879 H866 0.929 . S
C879 C871 1.433 . S
C879 N881 1.384 . S
N880 C876 1.427 . S
N880 C877 1.384 . S
N881 C873 1.427 . S
N881 C879 1.384 . S
H882 C888 0.930 . S
H883 C892 0.930 . S
H884 C897 0.929 . S
H885 C895 0.929 . S
H886 C890 0.929 . S
H887 C896 0.929 . S
C888 H882 0.930 . S
C888 C889 1.367 . S
C888 C896 1.378 . S
C889 C888 1.367 . S
C889 C897 1.433 . S
C890 H886 0.929 . S
C890 C892 1.378 . S
C890 C894 1.350 . S
C891 C894 1.463 . S
C891 C896 1.350 . S
C891 N899 1.427 . S
C892 H883 0.930 . S
C892 C890 1.378 . S
C892 C893 1.367 . S
C893 C892 1.367 . S
C893 C895 1.433 . S
C894 C890 1.350 . S
C894 C891 1.463 . S
C894 N898 1.427 . S
C895 H885 0.929 . S
C895 C893 1.433 . S
C895 N898 1.384 . S
C896 H887 0.929 . S
C896 C888 1.378 . S
C896 C891 1.350 . S
C897 H884 0.929 . S
C897 C889 1.433 . S
C897 N899 1.384 . S
N898 C894 1.427 . S
N898 C895 1.384 . S
N899 C891 1.427 . S
N899 C897 1.384 . S
H900 C906 0.930 . S
H901 C910 0.930 . S
H902 C915 0.929 . S
H903 C913 0.929 . S
H904 C908 0.929 . S
H905 C914 0.929 . S
C906 H900 0.930 . S
C906 C907 1.367 . S
C906 C914 1.378 . S
C907 C906 1.367 . S
C907 C915 1.433 . S
C908 H904 0.929 . S
C908 C910 1.378 . S
C908 C912 1.350 . S
C909 C912 1.463 . S
C909 C914 1.350 . S
C909 N917 1.427 . S
C910 H901 0.930 . S
C910 C908 1.378 . S
C910 C911 1.367 . S
C911 C910 1.367 . S
C911 C913 1.433 . S
C912 C908 1.350 . S
C912 C909 1.463 . S
C912 N916 1.427 . S
C913 H903 0.929 . S
C913 C911 1.433 . S
C913 N916 1.384 . S
C914 H905 0.929 . S
C914 C906 1.378 . S
C914 C909 1.350 . S
C915 H902 0.929 . S
C915 C907 1.433 . S
C915 N917 1.384 . S
N916 C912 1.427 . S
N916 C913 1.384 . S
N917 C909 1.427 . S
N917 C915 1.384 . S
H918 C924 0.930 . S
H919 C928 0.930 . S
H920 C933 0.929 . S
H921 C931 0.929 . S
H922 C926 0.929 . S
H923 C932 0.929 . S
C924 H918 0.930 . S
C924 C925 1.367 . S
C924 C932 1.378 . S
C925 C924 1.367 . S
C925 C933 1.433 . S
C926 H922 0.929 . S
C926 C928 1.378 . S
C926 C930 1.350 . S
C927 C930 1.463 . S
C927 C932 1.350 . S
C927 N935 1.427 . S
C928 H919 0.930 . S
C928 C926 1.378 . S
C928 C929 1.367 . S
C929 C928 1.367 . S
C929 C931 1.433 . S
C930 C926 1.350 . S
C930 C927 1.463 . S
C930 N934 1.427 . S
C931 H921 0.929 . S
C931 C929 1.433 . S
C931 N934 1.384 . S
C932 H923 0.929 . S
C932 C924 1.378 . S
C932 C927 1.350 . S
C933 H920 0.929 . S
C933 C925 1.433 . S
C933 N935 1.384 . S
N934 C930 1.427 . S
N934 C931 1.384 . S
N935 C927 1.427 . S
N935 C933 1.384 . S
C403 N104 1.745 . S
C407 N5 1.743 . S
C421 N137 1.745 . S
C425 N38 1.744 . S
C439 N170 1.738 . S
C443 N71 1.737 . S
C457 N203 1.741 . S
C461 N302 1.744 . S
C475 N236 1.739 . S
C479 N335 1.737 . S
C493 N269 1.739 . S
C497 N368 1.737 . S
C511 C325 1.797 . S
C515 C28 1.790 . S
C529 C61 1.791 . S
C533 C358 1.798 . S
C547 C391 1.797 . S
C551 C94 1.797 . S
C565 C226 1.792 . S
C569 C127 1.799 . S
C583 C160 1.798 . S
C587 C259 1.796 . S
C601 C193 1.791 . S
C605 C292 1.798 . S
C619 N14 0.872 . S
C623 N113 0.876 . S
C637 N47 0.871 . S
C641 N146 0.866 . S
C655 N179 0.880 . S
C659 N80 0.882 . S
C673 N212 0.851 . S
C677 N311 0.848 . S
C691 N245 0.863 . S
C695 N344 0.858 . S
C709 N377 0.857 . S
C713 N278 0.853 . S
C727 C371 1.614 . S
C731 C8 1.630 . S
C745 C41 1.615 . S
C749 C206 1.629 . S
C763 C239 1.625 . S
C767 C74 1.618 . S
C781 C272 1.615 . S
C785 C107 1.629 . S
C799 C140 1.615 . S
C803 C305 1.630 . S
C817 C173 1.629 . S
C821 C338 1.615 . S
C835 C17 0.521 . S
C839 C281 0.542 . S
C853 C50 0.525 . S
C857 C314 0.548 . S
C871 C347 0.537 . S
C875 C83 0.523 . S
C889 C116 0.523 . S
C893 C380 0.538 . S
C907 C215 0.544 . S
C911 C149 0.520 . S
C925 C182 0.528 . S
C929 C248 0.531 . S
