# Generated by pormake.
# Topology ukj, (4)-cn, num edge types: 1
# Building blocks:
#     Node 0, Type 0, BuildingBlock: ICAMEG_clean_sbu_1, # of connection points: 4
#     Node 1, Type 0, BuildingBlock: ICAMEG_clean_sbu_1, # of connection points: 4
#     Node 2, Type 0, BuildingBlock: ICAMEG_clean_sbu_1, # of connection points: 4
#     Node 3, Type 0, BuildingBlock: ICAMEG_clean_sbu_1, # of connection points: 4
#     Node 4, Type 0, BuildingBlock: ICAMEG_clean_sbu_1, # of connection points: 4
#     Node 5, Type 0, BuildingBlock: ICAMEG_clean_sbu_1, # of connection points: 4
#     Node 6, Type 0, BuildingBlock: ICAMEG_clean_sbu_1, # of connection points: 4
#     Node 7, Type 0, BuildingBlock: ICAMEG_clean_sbu_1, # of connection points: 4
#     Node 8, Type 0, BuildingBlock: ICAMEG_clean_sbu_1, # of connection points: 4
#     Node 9, Type 0, BuildingBlock: ICAMEG_clean_sbu_1, # of connection points: 4
#     Node 10, Type 0, BuildingBlock: ICAMEG_clean_sbu_1, # of connection points: 4
#     Node 11, Type 0, BuildingBlock: ICAMEG_clean_sbu_1, # of connection points: 4
#     Node 12, Type 0, BuildingBlock: ICAMEG_clean_sbu_1, # of connection points: 4
#     Node 13, Type 0, BuildingBlock: ICAMEG_clean_sbu_1, # of connection points: 4
#     Node 14, Type 0, BuildingBlock: ICAMEG_clean_sbu_1, # of connection points: 4
#     Node 15, Type 0, BuildingBlock: ICAMEG_clean_sbu_1, # of connection points: 4
#     Node 16, Type 0, BuildingBlock: ICAMEG_clean_sbu_1, # of connection points: 4
#     Node 17, Type 0, BuildingBlock: ICAMEG_clean_sbu_1, # of connection points: 4
#     Node 18, Type 0, BuildingBlock: ICAMEG_clean_sbu_1, # of connection points: 4
#     Node 19, Type 0, BuildingBlock: ICAMEG_clean_sbu_1, # of connection points: 4
#     Node 20, Type 0, BuildingBlock: ICAMEG_clean_sbu_1, # of connection points: 4
#     Node 21, Type 0, BuildingBlock: ICAMEG_clean_sbu_1, # of connection points: 4
#     Node 22, Type 0, BuildingBlock: ICAMEG_clean_sbu_1, # of connection points: 4
#     Node 23, Type 0, BuildingBlock: ICAMEG_clean_sbu_1, # of connection points: 4
#     Node 24, Type 0, BuildingBlock: ICAMEG_clean_sbu_1, # of connection points: 4
#     Node 25, Type 0, BuildingBlock: ICAMEG_clean_sbu_1, # of connection points: 4
#     Node 26, Type 0, BuildingBlock: ICAMEG_clean_sbu_1, # of connection points: 4
#     Node 27, Type 0, BuildingBlock: ICAMEG_clean_sbu_1, # of connection points: 4
#     Node 28, Type 0, BuildingBlock: ICAMEG_clean_sbu_1, # of connection points: 4
#     Node 29, Type 0, BuildingBlock: ICAMEG_clean_sbu_1, # of connection points: 4
#     Node 30, Type 0, BuildingBlock: ICAMEG_clean_sbu_1, # of connection points: 4
#     Node 31, Type 0, BuildingBlock: ICAMEG_clean_sbu_1, # of connection points: 4
#     Edge 32, Type (0, 0), BuildingBlock: ZUJKAS_clean_linker_0, # of connection points: 2
#     Edge 33, Type (0, 0), BuildingBlock: ZUJKAS_clean_linker_0, # of connection points: 2
#     Edge 34, Type (0, 0), BuildingBlock: ZUJKAS_clean_linker_0, # of connection points: 2
#     Edge 35, Type (0, 0), BuildingBlock: ZUJKAS_clean_linker_0, # of connection points: 2
#     Edge 36, Type (0, 0), BuildingBlock: ZUJKAS_clean_linker_0, # of connection points: 2
#     Edge 37, Type (0, 0), BuildingBlock: ZUJKAS_clean_linker_0, # of connection points: 2
#     Edge 38, Type (0, 0), BuildingBlock: ZUJKAS_clean_linker_0, # of connection points: 2
#     Edge 39, Type (0, 0), BuildingBlock: ZUJKAS_clean_linker_0, # of connection points: 2
#     Edge 40, Type (0, 0), BuildingBlock: ZUJKAS_clean_linker_0, # of connection points: 2
#     Edge 41, Type (0, 0), BuildingBlock: ZUJKAS_clean_linker_0, # of connection points: 2
#     Edge 42, Type (0, 0), BuildingBlock: ZUJKAS_clean_linker_0, # of connection points: 2
#     Edge 43, Type (0, 0), BuildingBlock: ZUJKAS_clean_linker_0, # of connection points: 2
#     Edge 44, Type (0, 0), BuildingBlock: ZUJKAS_clean_linker_0, # of connection points: 2
#     Edge 45, Type (0, 0), BuildingBlock: ZUJKAS_clean_linker_0, # of connection points: 2
#     Edge 46, Type (0, 0), BuildingBlock: ZUJKAS_clean_linker_0, # of connection points: 2
#     Edge 47, Type (0, 0), BuildingBlock: ZUJKAS_clean_linker_0, # of connection points: 2
#     Edge 48, Type (0, 0), BuildingBlock: ZUJKAS_clean_linker_0, # of connection points: 2
#     Edge 49, Type (0, 0), BuildingBlock: ZUJKAS_clean_linker_0, # of connection points: 2
#     Edge 50, Type (0, 0), BuildingBlock: ZUJKAS_clean_linker_0, # of connection points: 2
#     Edge 51, Type (0, 0), BuildingBlock: ZUJKAS_clean_linker_0, # of connection points: 2
#     Edge 52, Type (0, 0), BuildingBlock: ZUJKAS_clean_linker_0, # of connection points: 2
#     Edge 53, Type (0, 0), BuildingBlock: ZUJKAS_clean_linker_0, # of connection points: 2
#     Edge 54, Type (0, 0), BuildingBlock: ZUJKAS_clean_linker_0, # of connection points: 2
#     Edge 55, Type (0, 0), BuildingBlock: ZUJKAS_clean_linker_0, # of connection points: 2
#     Edge 56, Type (0, 0), BuildingBlock: ZUJKAS_clean_linker_0, # of connection points: 2
#     Edge 57, Type (0, 0), BuildingBlock: ZUJKAS_clean_linker_0, # of connection points: 2
#     Edge 58, Type (0, 0), BuildingBlock: ZUJKAS_clean_linker_0, # of connection points: 2
#     Edge 59, Type (0, 0), BuildingBlock: ZUJKAS_clean_linker_0, # of connection points: 2
#     Edge 60, Type (0, 0), BuildingBlock: ZUJKAS_clean_linker_0, # of connection points: 2
#     Edge 61, Type (0, 0), BuildingBlock: ZUJKAS_clean_linker_0, # of connection points: 2
#     Edge 62, Type (0, 0), BuildingBlock: ZUJKAS_clean_linker_0, # of connection points: 2
#     Edge 63, Type (0, 0), BuildingBlock: ZUJKAS_clean_linker_0, # of connection points: 2
#     Edge 64, Type (0, 0), BuildingBlock: ZUJKAS_clean_linker_0, # of connection points: 2
#     Edge 65, Type (0, 0), BuildingBlock: ZUJKAS_clean_linker_0, # of connection points: 2
#     Edge 66, Type (0, 0), BuildingBlock: ZUJKAS_clean_linker_0, # of connection points: 2
#     Edge 67, Type (0, 0), BuildingBlock: ZUJKAS_clean_linker_0, # of connection points: 2
#     Edge 68, Type (0, 0), BuildingBlock: ZUJKAS_clean_linker_0, # of connection points: 2
#     Edge 69, Type (0, 0), BuildingBlock: ZUJKAS_clean_linker_0, # of connection points: 2
#     Edge 70, Type (0, 0), BuildingBlock: ZUJKAS_clean_linker_0, # of connection points: 2
#     Edge 71, Type (0, 0), BuildingBlock: ZUJKAS_clean_linker_0, # of connection points: 2
#     Edge 72, Type (0, 0), BuildingBlock: ZUJKAS_clean_linker_0, # of connection points: 2
#     Edge 73, Type (0, 0), BuildingBlock: ZUJKAS_clean_linker_0, # of connection points: 2
#     Edge 74, Type (0, 0), BuildingBlock: ZUJKAS_clean_linker_0, # of connection points: 2
#     Edge 75, Type (0, 0), BuildingBlock: ZUJKAS_clean_linker_0, # of connection points: 2
#     Edge 76, Type (0, 0), BuildingBlock: ZUJKAS_clean_linker_0, # of connection points: 2
#     Edge 77, Type (0, 0), BuildingBlock: ZUJKAS_clean_linker_0, # of connection points: 2
#     Edge 78, Type (0, 0), BuildingBlock: ZUJKAS_clean_linker_0, # of connection points: 2
#     Edge 79, Type (0, 0), BuildingBlock: ZUJKAS_clean_linker_0, # of connection points: 2
#     Edge 80, Type (0, 0), BuildingBlock: ZUJKAS_clean_linker_0, # of connection points: 2
#     Edge 81, Type (0, 0), BuildingBlock: ZUJKAS_clean_linker_0, # of connection points: 2
#     Edge 82, Type (0, 0), BuildingBlock: ZUJKAS_clean_linker_0, # of connection points: 2
#     Edge 83, Type (0, 0), BuildingBlock: ZUJKAS_clean_linker_0, # of connection points: 2
#     Edge 84, Type (0, 0), BuildingBlock: ZUJKAS_clean_linker_0, # of connection points: 2
#     Edge 85, Type (0, 0), BuildingBlock: ZUJKAS_clean_linker_0, # of connection points: 2
#     Edge 86, Type (0, 0), BuildingBlock: ZUJKAS_clean_linker_0, # of connection points: 2
#     Edge 87, Type (0, 0), BuildingBlock: ZUJKAS_clean_linker_0, # of connection points: 2
#     Edge 88, Type (0, 0), BuildingBlock: ZUJKAS_clean_linker_0, # of connection points: 2
#     Edge 89, Type (0, 0), BuildingBlock: ZUJKAS_clean_linker_0, # of connection points: 2
#     Edge 90, Type (0, 0), BuildingBlock: ZUJKAS_clean_linker_0, # of connection points: 2
#     Edge 91, Type (0, 0), BuildingBlock: ZUJKAS_clean_linker_0, # of connection points: 2
#     Edge 92, Type (0, 0), BuildingBlock: ZUJKAS_clean_linker_0, # of connection points: 2
#     Edge 93, Type (0, 0), BuildingBlock: ZUJKAS_clean_linker_0, # of connection points: 2
#     Edge 94, Type (0, 0), BuildingBlock: ZUJKAS_clean_linker_0, # of connection points: 2
#     Edge 95, Type (0, 0), BuildingBlock: ZUJKAS_clean_linker_0, # of connection points: 2
# Relax obj value: 0.064
# Max RMSD: 0.118
# Mean RMSD: 0.118
data_MOF--net-ukj--node1-ICAMEG_clean_sbu_1--edge1-ZUJKAS_clean_linker_0
_symmetry_space_group_name_H-M    P1
_symmetry_Int_Tables_number       1
_symmetry_cell_setting            triclinic
loop_
_symmetry_equiv_pos_as_xyz
'x, y, z'
_cell_length_a     41.403961
_cell_length_b     89.697653
_cell_length_c     78.208398
_cell_angle_alpha  89.995541
_cell_angle_beta   89.998948
_cell_angle_gamma 90.008439
loop_
_atom_site_label
_atom_site_type_symbol
_atom_site_fract_x
_atom_site_fract_y
_atom_site_fract_z
_atom_type_partial_charge
Co0 Co 0.14049 0.35925 0.25005 0.0
Co1 Co 0.1678 0.3261 0.26611 0.0
O2 O 0.14185 0.33753 0.24998 0.0
C3 C 0.15514 0.35147 0.21433 0.0
O4 O 0.17899 0.34337 0.22034 0.0
C5 C 0.10329 0.31238 0.26793 0.0
O6 O 0.0914 0.32582 0.27009 0.0
O7 O 0.14683 0.33648 0.28557 0.0
O8 O 0.14367 0.35998 0.27567 0.0
H9 H 0.23813 0.31906 0.31782 0.0
H10 H 0.08954 0.34234 0.23176 0.0
O11 O 0.13728 0.35888 0.22451 0.0
H12 H 0.03196 0.37221 0.27503 0.0
H13 H 0.10111 0.40923 0.22953 0.0
H14 H 0.17602 0.38312 0.26835 0.0
H15 H 0.09118 0.37391 0.27224 0.0
H16 H 0.10265 0.38174 0.23043 0.0
O17 O 0.13361 0.31049 0.26656 0.0
H18 H 0.20619 0.33348 0.29696 0.0
H19 H 0.18275 0.29377 0.27012 0.0
H20 H 0.17512 0.41062 0.26795 0.0
H21 H 0.03028 0.34041 0.23401 0.0
H22 H 0.13744 0.42385 0.24844 0.0
H23 H 0.0011 0.35539 0.25581 0.0
O24 O 0.18828 0.36016 0.24843 0.0
H25 H 0.16898 0.29937 0.20965 0.0
H26 H 0.23603 0.31931 0.25648 0.0
H27 H 0.26231 0.3073 0.23177 0.0
H28 H 0.22872 0.29721 0.20814 0.0
H29 H 0.14369 0.3116 0.23451 0.0
H30 H 0.21423 0.2789 0.29077 0.0
H31 H 0.24231 0.29156 0.31479 0.0
O32 O 0.20292 0.34141 0.26581 0.0
C33 C 0.14255 0.35041 0.28775 0.0
C34 C 0.2261 0.31342 0.30738 0.0
C35 C 0.21265 0.29087 0.29221 0.0
N36 N 0.19287 0.31449 0.28226 0.0
C37 C 0.20805 0.32153 0.2955 0.0
C38 C 0.19481 0.29935 0.28058 0.0
C39 C 0.22841 0.29799 0.30568 0.0
C40 C 0.07699 0.34901 0.24115 0.0
N41 N 0.09379 0.35827 0.2518 0.0
C42 C 0.04344 0.34782 0.24242 0.0
C43 C 0.02709 0.35621 0.25467 0.0
C44 C 0.0444 0.36564 0.26547 0.0
C45 C 0.07794 0.36653 0.26386 0.0
C46 C 0.11757 0.40359 0.23812 0.0
C47 C 0.15942 0.3888 0.2599 0.0
C48 C 0.11859 0.38803 0.23866 0.0
N49 N 0.1392 0.38085 0.24955 0.0
C50 C 0.15908 0.40437 0.2597 0.0
C51 C 0.13796 0.41179 0.24873 0.0
C52 C 0.20938 0.35301 0.257 0.0
C53 C 0.18387 0.30368 0.21989 0.0
C54 C 0.22123 0.31498 0.24623 0.0
C55 C 0.23626 0.30816 0.23229 0.0
C56 C 0.21739 0.30249 0.21904 0.0
N57 N 0.18833 0.31611 0.24698 0.0
C58 C 0.16968 0.31056 0.23404 0.0
Co59 Co 0.11008 0.88665 0.24894 0.0
Co60 Co 0.08795 0.92205 0.26151 0.0
O61 O 0.11239 0.9083 0.24726 0.0
C62 C 0.09266 0.89351 0.21346 0.0
O63 O 0.0722 0.90317 0.2199 0.0
C64 C 0.13989 0.94124 0.27511 0.0
O65 O 0.12824 0.93886 0.29049 0.0
O66 O 0.10293 0.91157 0.28251 0.0
O67 O 0.11042 0.88773 0.27445 0.0
H68 H 0.01449 0.93635 0.30994 0.0
H69 H 0.16093 0.9008 0.22769 0.0
O70 O 0.10973 0.88543 0.22336 0.0
H71 H 0.21936 0.87104 0.27075 0.0
H72 H 0.13852 0.83435 0.23118 0.0
H73 H 0.07401 0.86523 0.2706 0.0
H74 H 0.15981 0.87152 0.27037 0.0
H75 H 0.14131 0.8618 0.22982 0.0
O76 O 0.12691 0.93512 0.26212 0.0
H77 H 0.04497 0.91897 0.29158 0.0
H78 H 0.08005 0.95518 0.26192 0.0
H79 H 0.07068 0.83782 0.27251 0.0
H80 H 0.2205 0.90053 0.22751 0.0
H81 H 0.1031 0.82219 0.2527 0.0
H82 H 0.25011 0.88558 0.24916 0.0
O83 O 0.06202 0.88706 0.24908 0.0
H84 H 0.10263 0.94516 0.20347 0.0
H85 H 0.0238 0.9321 0.2483 0.0
H86 H 0.00485 0.94391 0.22168 0.0
H87 H 0.04439 0.95054 0.19903 0.0
H88 H 0.12052 0.93318 0.23021 0.0
H89 H 0.04997 0.97296 0.27997 0.0
H90 H 0.01688 0.96356 0.30417 0.0
O91 O 0.04897 0.90909 0.26085 0.0
C92 C 0.10898 0.89792 0.28584 0.0
C93 C 0.02878 0.94058 0.29942 0.0
C94 C 0.0487 0.96113 0.2826 0.0
N95 N 0.06416 0.93605 0.27567 0.0
C96 C 0.04607 0.93079 0.28898 0.0
C97 C 0.06565 0.95101 0.27242 0.0
C98 C 0.03014 0.95585 0.29618 0.0
C99 C 0.17364 0.89419 0.23708 0.0
N100 N 0.15691 0.88612 0.24896 0.0
C101 C 0.20738 0.89412 0.23695 0.0
C102 C 0.22397 0.88574 0.24911 0.0
C103 C 0.20674 0.87758 0.26123 0.0
C104 C 0.17302 0.87793 0.26098 0.0
C105 C 0.12433 0.84104 0.2399 0.0
C106 C 0.08834 0.8585 0.26202 0.0
C107 C 0.12576 0.85658 0.23917 0.0
N108 N 0.10803 0.86509 0.25021 0.0
C109 C 0.08628 0.84299 0.26312 0.0
C110 C 0.10446 0.83422 0.25198 0.0
C111 C 0.04146 0.89627 0.25506 0.0
C112 C 0.08518 0.94238 0.21327 0.0
C113 C 0.04117 0.93491 0.23851 0.0
C114 C 0.03029 0.94164 0.22347 0.0
C115 C 0.0525 0.94537 0.21078 0.0
N116 N 0.07328 0.93202 0.24088 0.0
C117 C 0.09519 0.93567 0.22849 0.0
Co118 Co 0.13893 0.89142 0.99715 0.0
Co119 Co 0.16582 0.9258 0.98358 0.0
O120 O 0.13955 0.91316 0.99838 0.0
C121 C 0.15476 0.89807 0.03298 0.0
O122 O 0.17635 0.90746 0.02705 0.0
C123 C 0.09978 0.93771 0.98017 0.0
O124 O 0.08971 0.92399 0.97774 0.0
O125 O 0.14928 0.91548 0.96285 0.0
O126 O 0.14041 0.89197 0.97162 0.0
H127 H 0.24203 0.93642 0.93509 0.0
H128 H 0.08884 0.90724 0.01727 0.0
O129 O 0.13748 0.89048 0.02269 0.0
H130 H 0.02918 0.87907 0.97329 0.0
H131 H 0.10199 0.84031 0.01517 0.0
H132 H 0.17386 0.86867 0.9768 0.0
H133 H 0.08857 0.87751 0.975 0.0
H134 H 0.1028 0.86781 0.01595 0.0
O135 O 0.12967 0.94039 0.98225 0.0
H136 H 0.20943 0.92048 0.95414 0.0
H137 H 0.17665 0.95861 0.98125 0.0
H138 H 0.17365 0.84119 0.97549 0.0
H139 H 0.02944 0.90904 0.01609 0.0
H140 H 0.13751 0.82683 0.99478 0.0
H141 H -0.00078 0.89492 0.99395 0.0
O142 O 0.1869 0.89056 0.99796 0.0
H143 H 0.15523 0.95078 0.04082 0.0
H144 H 0.23136 0.93434 0.99615 0.0
H145 H 0.25233 0.94633 0.02226 0.0
H146 H 0.21415 0.95465 0.04482 0.0
H147 H 0.13531 0.93861 0.01459 0.0
H148 H 0.20871 0.97498 0.96242 0.0
H149 H 0.2418 0.96389 0.93918 0.0
O150 O 0.20266 0.91159 0.98478 0.0
C151 C 0.14266 0.90183 0.95991 0.0
C152 C 0.22779 0.94139 0.94521 0.0
C153 C 0.20905 0.96303 0.96053 0.0
N154 N 0.19137 0.9386 0.96887 0.0
C155 C 0.20935 0.93241 0.95606 0.0
C156 C 0.1909 0.95371 0.97113 0.0
C157 C 0.22762 0.9568 0.9475 0.0
C158 C 0.07584 0.90094 0.00771 0.0
N159 N 0.09214 0.89222 0.99627 0.0
C160 C 0.04221 0.90205 0.00706 0.0
C161 C 0.02528 0.89415 0.99461 0.0
C162 C 0.04208 0.88526 0.98301 0.0
C163 C 0.07571 0.88445 0.98402 0.0
C164 C 0.11779 0.84645 0.00667 0.0
C165 C 0.15793 0.86249 0.98515 0.0
C166 C 0.11839 0.86201 0.00708 0.0
N167 N 0.13815 0.86982 0.99633 0.0
C168 C 0.15798 0.84694 0.98439 0.0
C169 C 0.13772 0.83889 0.99523 0.0
C170 C 0.2086 0.89894 0.99151 0.0
C171 C 0.1721 0.94724 0.03106 0.0
C172 C 0.21459 0.93789 0.00592 0.0
C173 C 0.22661 0.94471 0.02066 0.0
C174 C 0.20517 0.94939 0.03331 0.0
N175 N 0.18213 0.93582 0.00381 0.0
C176 C 0.16096 0.94041 0.01614 0.0
Co177 Co 0.11049 0.35683 0.99811 0.0
Co178 Co 0.08128 0.32296 0.98429 0.0
O179 O 0.10777 0.33516 0.99939 0.0
C180 C 0.09154 0.35066 0.03365 0.0
O181 O 0.06833 0.34238 0.02728 0.0
C182 C 0.14646 0.31015 0.98173 0.0
O183 O 0.15726 0.32372 0.97911 0.0
O184 O 0.09964 0.33292 0.96378 0.0
O185 O 0.11044 0.35628 0.97253 0.0
H186 H 0.00668 0.31344 0.93483 0.0
H187 H 0.15793 0.34003 0.01901 0.0
O188 O 0.11067 0.35763 0.0237 0.0
H189 H 0.22258 0.36699 0.97601 0.0
H190 H 0.15106 0.40714 0.01683 0.0
H191 H 0.07908 0.38026 0.97716 0.0
H192 H 0.16332 0.36972 0.97679 0.0
H193 H 0.14756 0.37969 0.01758 0.0
O194 O 0.11637 0.3078 0.98357 0.0
H195 H 0.03954 0.32891 0.95426 0.0
H196 H 0.0681 0.29035 0.98191 0.0
H197 H 0.08202 0.40771 0.97587 0.0
H198 H 0.21714 0.33706 0.01877 0.0
H199 H 0.11823 0.42133 0.99581 0.0
H200 H 0.24987 0.35057 0.99712 0.0
O201 O 0.06259 0.35866 0.99808 0.0
H202 H 0.08688 0.29819 0.04186 0.0
H203 H 0.0145 0.31557 0.99593 0.0
H204 H 0.99122 0.3041 0.02179 0.0
H205 H 0.02751 0.2953 0.04499 0.0
H206 H 0.10913 0.30984 0.01584 0.0
H207 H 0.03574 0.27445 0.9627 0.0
H208 H 0.00463 0.286 0.93899 0.0
O209 O 0.04562 0.33781 0.98493 0.0
C210 C 0.1078 0.3464 0.96086 0.0
C211 C 0.02004 0.30828 0.94514 0.0
C212 C 0.03638 0.28639 0.96077 0.0
N213 N 0.05549 0.31054 0.96928 0.0
C214 C 0.03862 0.31698 0.95621 0.0
C215 C 0.05472 0.29544 0.97159 0.0
C216 C 0.01893 0.29288 0.94748 0.0
C217 C 0.17203 0.34607 0.00967 0.0
N218 N 0.1572 0.3551 0.99799 0.0
C219 C 0.20554 0.34429 0.00954 0.0
C220 C 0.22388 0.35185 0.99737 0.0
C221 C 0.20858 0.36106 0.98552 0.0
C222 C 0.17502 0.36254 0.986 0.0
C223 C 0.13525 0.40133 0.00805 0.0
C224 C 0.09504 0.38611 0.9858 0.0
C225 C 0.13313 0.3858 0.00844 0.0
N226 N 0.11335 0.37839 0.99732 0.0
C227 C 0.09654 0.40165 0.98505 0.0
C228 C 0.11683 0.40929 0.99625 0.0
C229 C 0.04049 0.35063 0.9914 0.0
C230 C 0.07082 0.30193 0.03182 0.0
C231 C 0.03045 0.3118 0.00597 0.0
C232 C 0.01713 0.30528 0.02057 0.0
C233 C 0.03751 0.30034 0.03358 0.0
N234 N 0.06316 0.31332 0.00433 0.0
C235 C 0.08329 0.30848 0.01702 0.0
Co236 Co 0.85742 0.64191 0.74884 0.0
Co237 Co 0.82721 0.67556 0.73485 0.0
O238 O 0.85442 0.66361 0.7499 0.0
C239 C 0.84014 0.6486 0.78448 0.0
O240 O 0.81759 0.65731 0.77821 0.0
C241 C 0.8919 0.68895 0.73191 0.0
O242 O 0.90339 0.67546 0.72958 0.0
O243 O 0.8455 0.66558 0.71434 0.0
O244 O 0.85651 0.64228 0.72322 0.0
H245 H 0.75145 0.68419 0.68566 0.0
H246 H 0.90527 0.659 0.76915 0.0
O247 O 0.85837 0.64122 0.77446 0.0
H248 H 0.96892 0.63196 0.72581 0.0
H249 H 0.89936 0.59185 0.76761 0.0
H250 H 0.82561 0.61825 0.72842 0.0
H251 H 0.90974 0.62906 0.72714 0.0
H252 H 0.89553 0.6193 0.76814 0.0
O253 O 0.86171 0.691 0.73376 0.0
H254 H 0.78517 0.66911 0.70508 0.0
H255 H 0.8128 0.70806 0.73226 0.0
H256 H 0.82887 0.5908 0.72736 0.0
H257 H 0.96443 0.66214 0.76835 0.0
H258 H 0.86596 0.57742 0.74706 0.0
H259 H 0.99666 0.64859 0.74653 0.0
O260 O 0.80958 0.63992 0.74931 0.0
H261 H 0.83329 0.70098 0.79202 0.0
H262 H 0.76043 0.68253 0.74685 0.0
H263 H 0.73737 0.6941 0.77272 0.0
H264 H 0.77391 0.70343 0.79552 0.0
H265 H 0.85532 0.68921 0.76603 0.0
H266 H 0.77956 0.72358 0.71307 0.0
H267 H 0.74849 0.71163 0.6896 0.0
O268 O 0.79199 0.66047 0.73581 0.0
C269 C 0.85359 0.65209 0.71147 0.0
C270 C 0.76479 0.68952 0.69587 0.0
C271 C 0.7806 0.71163 0.71124 0.0
N272 N 0.80071 0.68768 0.71987 0.0
C273 C 0.78385 0.68103 0.70693 0.0
C274 C 0.79943 0.70279 0.72205 0.0
C275 C 0.76317 0.70492 0.69808 0.0
C276 C 0.91916 0.65295 0.75973 0.0
N277 N 0.90409 0.6438 0.74827 0.0
C278 C 0.95264 0.65482 0.75929 0.0
C279 C 0.9707 0.64724 0.74703 0.0
C280 C 0.95515 0.63791 0.73539 0.0
C281 C 0.92162 0.63634 0.73618 0.0
C282 C 0.88316 0.59755 0.75894 0.0
C283 C 0.84196 0.6125 0.73695 0.0
C284 C 0.88085 0.61309 0.7592 0.0
N285 N 0.86058 0.62036 0.74821 0.0
C286 C 0.84363 0.59696 0.73633 0.0
C287 C 0.86442 0.58946 0.7474 0.0
C288 C 0.78722 0.64773 0.74256 0.0
C289 C 0.81713 0.697 0.78215 0.0
C290 C 0.77649 0.68653 0.75673 0.0
C291 C 0.76329 0.6931 0.77133 0.0
C292 C 0.7838 0.69835 0.78412 0.0
N293 N 0.8092 0.68524 0.75489 0.0
C294 C 0.82946 0.69039 0.76736 0.0
Co295 Co 0.88889 0.10869 0.74802 0.0
Co296 Co 0.91741 0.0751 0.73286 0.0
O297 O 0.89068 0.08696 0.74824 0.0
C298 C 0.9055 0.10073 0.78339 0.0
O299 O 0.92752 0.0919 0.77683 0.0
C300 C 0.85182 0.06287 0.7291 0.0
O301 O 0.84148 0.0766 0.72707 0.0
O302 O 0.90039 0.086 0.71265 0.0
O303 O 0.89001 0.10907 0.72246 0.0
H304 H 0.99399 0.06687 0.68394 0.0
H305 H 0.83998 0.09156 0.76757 0.0
O306 O 0.88781 0.10864 0.77362 0.0
H307 H 0.77815 0.12057 0.72517 0.0
H308 H 0.84953 0.15864 0.76865 0.0
H309 H 0.92217 0.13257 0.72861 0.0
H310 H 0.83746 0.12279 0.72676 0.0
H311 H 0.85187 0.13115 0.76812 0.0
O312 O 0.88181 0.06027 0.73094 0.0
H313 H 0.96078 0.08184 0.70371 0.0
H314 H 0.92945 0.0425 0.72899 0.0
H315 H 0.92043 0.16007 0.72861 0.0
H316 H 0.78069 0.08908 0.7665 0.0
H317 H 0.88389 0.17328 0.74874 0.0
H318 H 0.74938 0.10362 0.74515 0.0
O319 O 0.93681 0.1101 0.74865 0.0
H320 H 0.90809 0.048 0.78889 0.0
H321 H 0.98334 0.06674 0.74499 0.0
H322 H 0.00492 0.05401 0.77049 0.0
H323 H 0.96718 0.04452 0.79266 0.0
H324 H 0.88756 0.06092 0.76328 0.0
H325 H 0.96213 0.02709 0.70941 0.0
H326 H 0.9948 0.03928 0.68674 0.0
O327 O 0.95362 0.08963 0.73469 0.0
C328 C 0.89291 0.09965 0.71031 0.0
C329 C 0.97994 0.06142 0.69381 0.0
C330 C 0.96202 0.0391 0.70809 0.0
N331 N 0.94342 0.06306 0.71756 0.0
C332 C 0.96116 0.06985 0.70506 0.0
C333 C 0.94352 0.04788 0.71911 0.0
C334 C 0.98036 0.04595 0.69537 0.0
C335 C 0.8265 0.09805 0.75836 0.0
N336 N 0.84215 0.10737 0.7473 0.0
C337 C 0.79294 0.09654 0.75777 0.0
C338 C 0.77539 0.10468 0.74577 0.0
C339 C 0.79152 0.11419 0.73455 0.0
C340 C 0.82511 0.11538 0.73548 0.0
C341 C 0.86549 0.15301 0.7598 0.0
C342 C 0.90607 0.13825 0.73733 0.0
C343 C 0.86696 0.13746 0.75946 0.0
N344 N 0.88693 0.13028 0.74824 0.0
C345 C 0.90525 0.15381 0.73731 0.0
C346 C 0.88477 0.16122 0.74862 0.0
C347 C 0.95891 0.10217 0.74183 0.0
C348 C 0.92477 0.05204 0.7793 0.0
C349 C 0.96676 0.06268 0.7546 0.0
C350 C 0.97912 0.05545 0.76899 0.0
C351 C 0.95793 0.05012 0.78142 0.0
N352 N 0.93421 0.06453 0.75261 0.0
C353 C 0.91328 0.0593 0.76472 0.0
Co354 Co 0.86151 0.10825 -0.00026 0.0
Co355 Co 0.83064 0.07569 0.01616 0.0
O356 O 0.85785 0.08657 5e-05 0.0
C357 C 0.84472 0.10016 0.96439 0.0
O358 O 0.82187 0.09176 0.97092 0.0
C359 C 0.89457 0.06159 0.01894 0.0
O360 O 0.90676 0.07501 0.02079 0.0
O361 O 0.85073 0.08625 0.03576 0.0
O362 O 0.86009 0.10918 0.02533 0.0
H363 H 0.7573 0.07019 0.06695 0.0
H364 H 0.90931 0.08996 0.9809 0.0
O365 O 0.86303 0.10775 0.97417 0.0
H366 H 0.97279 0.1188 0.02275 0.0
H367 H 0.9051 0.15714 0.97814 0.0
H368 H 0.82977 0.13301 0.0184 0.0
H369 H 0.91372 0.12194 0.02087 0.0
H370 H 0.9006 0.12973 0.9793 0.0
O371 O 0.86422 0.05982 0.01753 0.0
H372 H 0.79089 0.08396 0.04623 0.0
H373 H 0.81423 0.04356 0.02074 0.0
H374 H 0.83369 0.16045 0.01777 0.0
H375 H 0.96837 0.08655 0.98226 0.0
H376 H 0.87158 0.17269 0.99753 0.0
H377 H 0.0005 0.101 0.00334 0.0
O378 O 0.81376 0.11032 0.99874 0.0
H379 H 0.83143 0.04768 0.9605 0.0
H380 H 0.76271 0.06939 0.00558 0.0
H381 H 0.73728 0.05711 0.9808 0.0
H382 H 0.77172 0.04613 0.95805 0.0
H383 H 0.85588 0.0602 0.98541 0.0
H384 H 0.78107 0.02934 0.04126 0.0
H385 H 0.75222 0.04267 0.06453 0.0
O386 O 0.79632 0.09125 0.01493 0.0
C387 C 0.85821 0.09994 0.03771 0.0
C388 C 0.76966 0.06426 0.05683 0.0
C389 C 0.78304 0.04133 0.04242 0.0
N390 N 0.80425 0.06459 0.03221 0.0
C391 C 0.78863 0.072 0.04504 0.0
C392 C 0.80182 0.04944 0.03087 0.0
C393 C 0.76685 0.04882 0.05547 0.0
C394 C 0.92318 0.0964 0.98998 0.0
N395 N 0.90811 0.10619 0.00073 0.0
C396 C 0.95659 0.09438 0.99075 0.0
C397 C 0.97459 0.10247 0.0026 0.0
C398 C 0.95906 0.11245 0.0135 0.0
C399 C 0.92559 0.11416 0.0124 0.0
C400 C 0.88855 0.15194 0.98704 0.0
C401 C 0.84645 0.13826 0.00963 0.0
C402 C 0.88586 0.13643 0.98773 0.0
N403 N 0.86514 0.12979 0.99901 0.0
C404 C 0.8485 0.1538 0.0093 0.0
C405 C 0.86974 0.16066 0.99793 0.0
C406 C 0.79155 0.10329 0.00664 0.0
C407 C 0.81617 0.05237 0.97036 0.0
C408 C 0.77788 0.06468 0.99572 0.0
C409 C 0.76333 0.0577 0.98173 0.0
C410 C 0.78267 0.05153 0.96898 0.0
N411 N 0.81077 0.06547 0.99698 0.0
C412 C 0.82988 0.05942 0.98454 0.0
Co413 Co 0.88341 0.64329 0.00119 0.0
Co414 Co 0.91727 0.67655 0.01466 0.0
O415 O 0.88793 0.66495 0.00036 0.0
C416 C 0.90103 0.64999 0.96553 0.0
O417 O 0.92348 0.65878 0.97176 0.0
C418 C 0.85299 0.68958 0.02062 0.0
O419 O 0.8419 0.67597 0.02254 0.0
O420 O 0.90278 0.6659 0.03565 0.0
O421 O 0.88389 0.64364 0.02677 0.0
H422 H 0.00187 0.68406 0.05992 0.0
H423 H 0.83739 0.66158 0.98109 0.0
O424 O 0.88274 0.64266 0.97558 0.0
H425 H 0.77071 0.63475 0.02332 0.0
H426 H 0.83838 0.59394 0.98191 0.0
H427 H 0.9129 0.61911 0.02175 0.0
H428 H 0.82961 0.63077 0.02211 0.0
H429 H 0.84414 0.62132 0.98154 0.0
O430 O 0.8829 0.69181 0.01795 0.0
H431 H 0.96508 0.6694 0.0417 0.0
H432 H 0.93121 0.70903 0.01801 0.0
H433 H 0.90768 0.59172 0.02267 0.0
H434 H 0.77854 0.66582 0.98176 0.0
H435 H 0.8702 0.57896 0.00264 0.0
H436 H 0.7448 0.65239 0.00303 0.0
O437 O 0.93122 0.64045 0.00082 0.0
H438 H 0.90158 0.70347 0.95891 0.0
H439 H 0.98172 0.68409 -8e-05 0.0
H440 H 0.00036 0.69644 0.97353 0.0
H441 H 0.96014 0.70623 0.95281 0.0
H442 H 0.88399 0.69094 0.98539 0.0
H443 H 0.96747 0.72415 0.03607 0.0
H444 H 0.00321 0.71165 0.05717 0.0
O445 O 0.95203 0.66162 0.0115 0.0
C446 C 0.89127 0.65293 0.03851 0.0
C447 C 0.98645 0.68964 0.05076 0.0
C448 C 0.9671 0.71213 0.03739 0.0
N449 N 0.94609 0.68835 0.02878 0.0
C450 C 0.9656 0.68139 0.04039 0.0
C451 C 0.94655 0.70352 0.02724 0.0
C452 C 0.98717 0.70512 0.04922 0.0
C453 C 0.82283 0.6556 0.99029 0.0
N454 N 0.83691 0.64594 0.00156 0.0
C455 C 0.78953 0.65808 0.99064 0.0
C456 C 0.77063 0.65056 0.0026 0.0
C457 C 0.78515 0.64068 0.014 0.0
C458 C 0.81852 0.63851 0.0133 0.0
C459 C 0.85474 0.59937 0.99072 0.0
C460 C 0.89638 0.61364 0.01308 0.0
C461 C 0.85815 0.61487 0.99055 0.0
N462 N 0.87864 0.6218 0.00171 0.0
C463 C 0.8936 0.59813 0.01362 0.0
C464 C 0.8726 0.59098 0.00236 0.0
C465 C 0.95499 0.64841 0.00578 0.0
C466 C 0.91933 0.69929 0.96787 0.0
C467 C 0.96407 0.68831 0.99096 0.0
C468 C 0.97477 0.69531 0.97605 0.0
C469 C 0.9522 0.70081 0.96444 0.0
N470 N 0.93179 0.68686 0.99424 0.0
C471 C 0.90952 0.69225 0.98292 0.0
Co472 Co 0.14292 0.85685 0.74945 0.0
Co473 Co 0.16862 0.82293 0.76502 0.0
O474 O 0.14289 0.83508 0.74944 0.0
C475 C 0.15855 0.84853 0.71402 0.0
O476 O 0.17982 0.83924 0.72045 0.0
C477 C 0.10223 0.81149 0.76874 0.0
O478 O 0.09237 0.82533 0.77035 0.0
O479 O 0.15207 0.8342 0.78508 0.0
O480 O 0.14415 0.85738 0.77498 0.0
H481 H 0.24398 0.81398 0.81431 0.0
H482 H 0.09251 0.84049 0.73012 0.0
O483 O 0.14165 0.8567 0.72388 0.0
H484 H 0.03337 0.8709 0.7723 0.0
H485 H 0.10764 0.90735 0.72852 0.0
H486 H 0.17835 0.88022 0.7686 0.0
H487 H 0.09281 0.87201 0.77065 0.0
H488 H 0.10765 0.87985 0.72925 0.0
O489 O 0.13211 0.8086 0.76702 0.0
H490 H 0.21202 0.82926 0.79427 0.0
H491 H 0.17853 0.79019 0.76923 0.0
H492 H 0.17893 0.90772 0.76839 0.0
H493 H 0.03305 0.83912 0.73125 0.0
H494 H 0.14337 0.92147 0.74824 0.0
H495 H 0.00309 0.85437 0.75249 0.0
O496 O 0.19094 0.85737 0.7487 0.0
H497 H 0.15796 0.79561 0.70921 0.0
H498 H 0.23406 0.81342 0.75319 0.0
H499 H 0.25497 0.8002 0.72787 0.0
H500 H 0.2168 0.79118 0.70566 0.0
H501 H 0.13812 0.80901 0.73464 0.0
H502 H 0.20993 0.77448 0.78907 0.0
H503 H 0.24305 0.78637 0.81177 0.0
O504 O 0.20586 0.83686 0.76315 0.0
C505 C 0.14582 0.84801 0.78723 0.0
C506 C 0.22972 0.80866 0.80444 0.0
C507 C 0.21057 0.78649 0.79029 0.0
N508 N 0.19365 0.81063 0.78052 0.0
C509 C 0.21165 0.81726 0.79303 0.0
C510 C 0.19279 0.79545 0.77912 0.0
C511 C 0.22916 0.79318 0.80302 0.0
C512 C 0.07962 0.84728 0.73928 0.0
N513 N 0.0961 0.85637 0.75025 0.0
C514 C 0.04596 0.8464 0.73991 0.0
C515 C 0.02917 0.85494 0.75185 0.0
C516 C 0.04615 0.86421 0.76298 0.0
C517 C 0.07981 0.86477 0.76201 0.0
C518 C 0.12319 0.90149 0.73738 0.0
C519 C 0.16267 0.88613 0.75987 0.0
C520 C 0.12334 0.88592 0.73783 0.0
N521 N 0.14279 0.87846 0.74906 0.0
C522 C 0.16317 0.9017 0.75977 0.0
C523 C 0.14324 0.9094 0.74845 0.0
C524 C 0.2123 0.84915 0.75571 0.0
C525 C 0.17483 0.79945 0.71882 0.0
C526 C 0.2173 0.80958 0.74356 0.0
C527 C 0.22928 0.80206 0.72927 0.0
C528 C 0.20785 0.79699 0.71682 0.0
N529 N 0.18488 0.81197 0.74543 0.0
C530 C 0.16372 0.80699 0.73329 0.0
Co531 Co 0.11004 0.39083 0.74992 0.0
Co532 Co 0.07889 0.42319 0.76673 0.0
O533 O 0.10631 0.4125 0.75057 0.0
C534 C 0.09339 0.39942 0.71473 0.0
O535 O 0.07028 0.40757 0.7214 0.0
C536 C 0.14281 0.43722 0.77006 0.0
O537 O 0.15495 0.42377 0.77162 0.0
O538 O 0.09867 0.41238 0.78622 0.0
O539 O 0.1085 0.38958 0.77549 0.0
H540 H 0.00481 0.42807 0.8173 0.0
H541 H 0.1579 0.4094 0.73144 0.0
O542 O 0.11171 0.39169 0.72436 0.0
H543 H 0.22123 0.38008 0.77292 0.0
H544 H 0.15393 0.34227 0.72755 0.0
H545 H 0.07837 0.3658 0.76814 0.0
H546 H 0.16218 0.37693 0.77091 0.0
H547 H 0.14929 0.36966 0.72916 0.0
O548 O 0.11248 0.43902 0.76852 0.0
H549 H 0.03868 0.41456 0.79649 0.0
H550 H 0.06246 0.45526 0.77176 0.0
H551 H 0.08243 0.33838 0.76707 0.0
H552 H 0.21694 0.41282 0.73293 0.0
H553 H 0.12044 0.32644 0.74666 0.0
H554 H 0.249 0.39813 0.75383 0.0
O555 O 0.0623 0.38871 0.74882 0.0
H556 H 0.08066 0.45186 0.71152 0.0
H557 H 0.01115 0.42966 0.75595 0.0
H558 H 0.98616 0.44226 0.73125 0.0
H559 H 0.02099 0.45348 0.70882 0.0
H560 H 0.10466 0.43903 0.73634 0.0
H561 H 0.02904 0.46924 0.79237 0.0
H562 H -0.00018 0.45562 0.8153 0.0
O563 O 0.04456 0.40767 0.76508 0.0
C564 C 0.10636 0.3987 0.78799 0.0
C565 C 0.01733 0.43413 0.80733 0.0
C566 C 0.03096 0.45723 0.79335 0.0
N567 N 0.05228 0.4341 0.78284 0.0
C568 C 0.03646 0.42653 0.79548 0.0
C569 C 0.04989 0.44926 0.78174 0.0
C570 C 0.01457 0.44958 0.80621 0.0
C571 C 0.17173 0.40285 0.74044 0.0
N572 N 0.15663 0.39293 0.75101 0.0
C573 C 0.20513 0.40488 0.74128 0.0
C574 C 0.2231 0.39666 0.75303 0.0
C575 C 0.20753 0.38654 0.76375 0.0
C576 C 0.17407 0.38482 0.76258 0.0
C577 C 0.13733 0.34734 0.73652 0.0
C578 C 0.0951 0.36069 0.7593 0.0
C579 C 0.13455 0.36284 0.73746 0.0
N580 N 0.11377 0.36931 0.74883 0.0
C581 C 0.09723 0.34515 0.75872 0.0
C582 C 0.11854 0.33847 0.74725 0.0
C583 C 0.03995 0.39567 0.75669 0.0
C584 C 0.06523 0.44706 0.72124 0.0
C585 C 0.02649 0.43449 0.74623 0.0
C586 C 0.01219 0.44164 0.73229 0.0
C587 C 0.03175 0.44794 0.71972 0.0
N588 N 0.05935 0.43367 0.74763 0.0
C589 C 0.07868 0.43985 0.73537 0.0
Co590 Co 0.14356 0.3931 0.4987 0.0
Co591 Co 0.16642 0.42737 0.48329 0.0
O592 O 0.142 0.41485 0.49902 0.0
C593 C 0.15832 0.40144 0.53414 0.0
O594 O 0.17963 0.4107 0.52769 0.0
C595 C 0.09964 0.43862 0.4811 0.0
O596 O 0.08999 0.42478 0.47913 0.0
O597 O 0.14827 0.41639 0.46344 0.0
O598 O 0.14557 0.39276 0.47309 0.0
H599 H 0.23778 0.43747 0.43264 0.0
H600 H 0.09149 0.40839 0.51796 0.0
O601 O 0.14174 0.39311 0.52429 0.0
H602 H 0.03566 0.37753 0.47496 0.0
H603 H 0.11173 0.34194 0.51907 0.0
H604 H 0.18106 0.37042 0.47953 0.0
H605 H 0.09511 0.3774 0.47694 0.0
H606 H 0.10966 0.36943 0.51851 0.0
O607 O 0.12956 0.4416 0.48247 0.0
H608 H 0.20757 0.42171 0.45297 0.0
H609 H 0.17552 0.46021 0.47965 0.0
H610 H 0.18375 0.34294 0.47958 0.0
H611 H 0.032 0.40876 0.51652 0.0
H612 H 0.1489 0.32852 0.49945 0.0
H613 H 0.00369 0.39328 0.49486 0.0
O614 O 0.19143 0.39338 0.49965 0.0
H615 H 0.15988 0.45366 0.53992 0.0
H616 H 0.23264 0.43687 0.49387 0.0
H617 H 0.25537 0.4497 0.51902 0.0
H618 H 0.21888 0.45821 0.54226 0.0
H619 H 0.1382 0.44065 0.51463 0.0
H620 H 0.20517 0.47639 0.45953 0.0
H621 H 0.23669 0.46501 0.43587 0.0
O622 O 0.20418 0.4135 0.48397 0.0
C623 C 0.14449 0.40244 0.46114 0.0
C624 C 0.22422 0.44255 0.44293 0.0
C625 C 0.20587 0.4644 0.45801 0.0
N626 N 0.19002 0.44003 0.46755 0.0
C627 C 0.20713 0.43369 0.4545 0.0
C628 C 0.18908 0.45518 0.46934 0.0
C629 C 0.22357 0.45801 0.44474 0.0
C630 C 0.07934 0.4015 0.50863 0.0
N631 N 0.09675 0.39283 0.49761 0.0
C632 C 0.04565 0.40181 0.50782 0.0
C633 C 0.02979 0.39314 0.49564 0.0
C634 C 0.04771 0.38431 0.48446 0.0
C635 C 0.08137 0.38431 0.48562 0.0
C636 C 0.12698 0.3481 0.51032 0.0
C637 C 0.16567 0.36421 0.48814 0.0
C638 C 0.12595 0.36366 0.50997 0.0
N639 N 0.14502 0.3715 0.49889 0.0
C640 C 0.16737 0.34866 0.48814 0.0
C641 C 0.14783 0.34058 0.49931 0.0
C642 C 0.21183 0.40155 0.49184 0.0
C643 C 0.17601 0.45005 0.52985 0.0
C644 C 0.21661 0.44048 0.50395 0.0
C645 C 0.22962 0.44778 0.51814 0.0
C646 C 0.20913 0.45257 0.53117 0.0
N647 N 0.1841 0.43803 0.50276 0.0
C648 C 0.16386 0.44273 0.51546 0.0
Co649 Co 0.10947 0.8587 0.49815 0.0
Co650 Co 0.08202 0.82503 0.48295 0.0
O651 O 0.10806 0.83696 0.49857 0.0
C652 C 0.09304 0.85093 0.53358 0.0
O653 O 0.07081 0.84216 0.52711 0.0
C654 C 0.14748 0.81246 0.48033 0.0
O655 O 0.15816 0.82611 0.47814 0.0
O656 O 0.1007 0.83557 0.46298 0.0
O657 O 0.10823 0.85896 0.47252 0.0
H658 H 0.00918 0.81648 0.43252 0.0
H659 H 0.15891 0.84194 0.51772 0.0
O660 O 0.11075 0.85876 0.52374 0.0
H661 H 0.21979 0.87109 0.47506 0.0
H662 H 0.14779 0.90895 0.51836 0.0
H663 H 0.07557 0.8823 0.47861 0.0
H664 H 0.16044 0.87296 0.47669 0.0
H665 H 0.14605 0.88145 0.51804 0.0
O666 O 0.11738 0.81 0.48196 0.0
H667 H 0.04123 0.83156 0.45271 0.0
H668 H 0.06924 0.79246 0.4795 0.0
H669 H 0.07673 0.9098 0.47839 0.0
H670 H 0.21827 0.83981 0.51661 0.0
H671 H 0.11305 0.9233 0.49838 0.0
H672 H 0.2491 0.85443 0.49513 0.0
O673 O 0.06154 0.8598 0.49892 0.0
H674 H 0.08665 0.79854 0.53952 0.0
H675 H 0.01503 0.81733 0.49397 0.0
H676 H 0.99133 0.80506 0.51925 0.0
H677 H 0.02723 0.79556 0.54224 0.0
H678 H 0.10933 0.811 0.51411 0.0
H679 H 0.03768 0.77693 0.45953 0.0
H680 H 0.00726 0.78895 0.43587 0.0
O681 O 0.04596 0.83976 0.48378 0.0
C682 C 0.10706 0.84932 0.46051 0.0
C683 C 0.02223 0.81111 0.44281 0.0
C684 C 0.03826 0.78891 0.45796 0.0
N685 N 0.05681 0.81291 0.46736 0.0
C686 C 0.04033 0.8196 0.45431 0.0
C687 C 0.05612 0.79776 0.46921 0.0
C688 C 0.02119 0.79567 0.44469 0.0
C689 C 0.17219 0.84845 0.50846 0.0
N690 N 0.15624 0.85762 0.49734 0.0
C691 C 0.20578 0.84715 0.50784 0.0
C692 C 0.22306 0.85533 0.49576 0.0
C693 C 0.20663 0.86468 0.48449 0.0
C694 C 0.17301 0.86567 0.48545 0.0
C695 C 0.13192 0.90319 0.50957 0.0
C696 C 0.09158 0.8881 0.48726 0.0
C697 C 0.13079 0.88763 0.50935 0.0
N698 N 0.11093 0.8803 0.49821 0.0
C699 C 0.09206 0.90367 0.48712 0.0
C700 C 0.11242 0.91124 0.49835 0.0
C701 C 0.04004 0.85202 0.49141 0.0
C702 C 0.07076 0.80258 0.52956 0.0
C703 C 0.03082 0.81325 0.50394 0.0
C704 C 0.01726 0.80628 0.5182 0.0
C705 C 0.03742 0.80094 0.53109 0.0
N706 N 0.06356 0.81482 0.50253 0.0
C707 C 0.08348 0.80959 0.5151 0.0
Co708 Co 0.85793 0.14184 0.24786 0.0
Co709 Co 0.8302 0.17589 0.23384 0.0
O710 O 0.856 0.16353 0.24911 0.0
C711 C 0.83902 0.14812 0.2834 0.0
O712 O 0.81598 0.15652 0.27704 0.0
C713 C 0.89573 0.18852 0.23176 0.0
O714 O 0.90651 0.17493 0.22927 0.0
O715 O 0.8489 0.16585 0.21347 0.0
O716 O 0.85807 0.14237 0.22228 0.0
H717 H 0.75724 0.18581 0.18379 0.0
H718 H 0.90587 0.15828 0.26883 0.0
O719 O 0.85796 0.14106 0.27344 0.0
H720 H 0.96976 0.13075 0.226 0.0
H721 H 0.89648 0.09123 0.26671 0.0
H722 H 0.82578 0.11865 0.22688 0.0
H723 H 0.9104 0.12851 0.22665 0.0
H724 H 0.89401 0.11871 0.26743 0.0
O725 O 0.86561 0.19091 0.23339 0.0
H726 H 0.7892 0.17017 0.20347 0.0
H727 H 0.81776 0.20857 0.23142 0.0
H728 H 0.82769 0.09118 0.22563 0.0
H729 H 0.96519 0.16074 0.26871 0.0
H730 H 0.86325 0.07729 0.24565 0.0
H731 H 0.99754 0.14694 0.24715 0.0
O732 O 0.80995 0.14039 0.24776 0.0
H733 H 0.83485 0.20055 0.29148 0.0
H734 H 0.76328 0.18363 0.24497 0.0
H735 H 0.7396 0.19518 0.27068 0.0
H736 H 0.77548 0.20374 0.29416 0.0
H737 H 0.8575 0.18882 0.26561 0.0
H738 H 0.78631 0.22463 0.21198 0.0
H739 H 0.75566 0.21325 0.18799 0.0
O740 O 0.79414 0.16122 0.23418 0.0
C741 C 0.85633 0.15227 0.21059 0.0
C742 C 0.77041 0.1909 0.19422 0.0
C743 C 0.78676 0.21269 0.21003 0.0
N744 N 0.8051 0.18844 0.21865 0.0
C745 C 0.78847 0.1821 0.20543 0.0
C746 C 0.80458 0.20354 0.22098 0.0
C747 C 0.76956 0.20629 0.19658 0.0
C748 C 0.9198 0.15212 0.25951 0.0
N749 N 0.90469 0.14321 0.24782 0.0
C750 C 0.95337 0.15361 0.25947 0.0
C751 C 0.9715 0.14588 0.24735 0.0
C752 C 0.95593 0.1368 0.23547 0.0
C753 C 0.92231 0.13561 0.23588 0.0
C754 C 0.88095 0.09716 0.2579 0.0
C755 C 0.84146 0.11268 0.23556 0.0
C756 C 0.87941 0.11271 0.25827 0.0
N757 N 0.85998 0.12026 0.2471 0.0
C758 C 0.84237 0.09713 0.23483 0.0
C759 C 0.8623 0.08934 0.24607 0.0
C760 C 0.78833 0.14851 0.2408 0.0
C761 C 0.81897 0.1969 0.28131 0.0
C762 C 0.77906 0.18729 0.25514 0.0
C763 C 0.76551 0.19386 0.26966 0.0
C764 C 0.78566 0.19867 0.28282 0.0
N765 N 0.81176 0.18559 0.25375 0.0
C766 C 0.83167 0.19031 0.2666 0.0
Co767 Co 0.88452 0.60572 0.24839 0.0
Co768 Co 0.91626 0.57234 0.23397 0.0
O769 O 0.88774 0.58402 0.24863 0.0
C770 C 0.90187 0.59797 0.28379 0.0
O771 O 0.92401 0.5892 0.27723 0.0
C772 C 0.8511 0.56024 0.22792 0.0
O773 O 0.84087 0.57401 0.22623 0.0
O774 O 0.90217 0.58356 0.21332 0.0
O775 O 0.88491 0.60592 0.2228 0.0
H776 H -0.0001 0.56462 0.18826 0.0
H777 H 0.83747 0.58759 0.26802 0.0
O778 O 0.88394 0.60576 0.27402 0.0
H779 H 0.77231 0.61616 0.22665 0.0
H780 H 0.84253 0.65518 0.26915 0.0
H781 H 0.91535 0.62997 0.22848 0.0
H782 H 0.83144 0.61936 0.22791 0.0
H783 H 0.84668 0.62774 0.26874 0.0
O784 O 0.8809 0.55759 0.23045 0.0
H785 H 0.96419 0.5794 0.20697 0.0
H786 H 0.92818 0.53977 0.22977 0.0
H787 H 0.91175 0.65742 0.22834 0.0
H788 H 0.77839 0.58412 0.26731 0.0
H789 H 0.87513 0.6702 0.24879 0.0
H790 H 0.74541 0.59842 0.24646 0.0
O791 O 0.93248 0.60794 0.24877 0.0
H792 H 0.89953 0.54462 0.28913 0.0
H793 H 0.98037 0.5637 0.24831 0.0
H794 H 0.99854 0.55064 0.27434 0.0
H795 H 0.95797 0.541 0.29496 0.0
H796 H 0.88243 0.55784 0.26301 0.0
H797 H 0.96332 0.52455 0.21122 0.0
H798 H -0.0004 0.53699 0.19033 0.0
O799 O 0.95196 0.58677 0.2374 0.0
C800 C 0.89156 0.59675 0.2108 0.0
C801 C 0.98424 0.55907 0.19734 0.0
C802 C 0.96368 0.53658 0.21021 0.0
N803 N 0.9442 0.56046 0.21948 0.0
C804 C 0.96401 0.56738 0.20798 0.0
C805 C 0.94376 0.54525 0.22064 0.0
C806 C 0.98404 0.54357 0.19849 0.0
C807 C 0.82325 0.59395 0.25902 0.0
N808 N 0.83788 0.60367 0.24801 0.0
C809 C 0.78982 0.5919 0.25863 0.0
C810 C 0.77134 0.59991 0.24691 0.0
C811 C 0.78642 0.60985 0.23578 0.0
C812 C 0.81991 0.61158 0.23651 0.0
C813 C 0.85853 0.64974 0.26015 0.0
C814 C 0.8992 0.63545 0.23733 0.0
C815 C 0.86103 0.63421 0.25989 0.0
N816 N 0.88105 0.62727 0.2485 0.0
C817 C 0.89734 0.651 0.23724 0.0
C818 C 0.87681 0.65816 0.24872 0.0
C819 C 0.95575 0.59982 0.24349 0.0
C820 C 0.91744 0.54873 0.28021 0.0
C821 C 0.96257 0.55955 0.25722 0.0
C822 C 0.973 0.55214 0.27193 0.0
C823 C 0.95023 0.54672 0.28349 0.0
N824 N 0.93036 0.56147 0.25409 0.0
C825 C 0.90789 0.55617 0.26535 0.0
Co826 Co 0.85702 0.60773 0.50023 0.0
Co827 Co 0.8271 0.57506 0.51686 0.0
O828 O 0.85404 0.58603 0.50071 0.0
C829 C 0.84067 0.59922 0.46494 0.0
O830 O 0.81784 0.59087 0.47157 0.0
C831 C 0.89137 0.56131 0.5199 0.0
O832 O 0.90327 0.57481 0.52155 0.0
O833 O 0.84687 0.58584 0.53639 0.0
O834 O 0.85547 0.60881 0.52586 0.0
H835 H 0.7539 0.56937 0.56768 0.0
H836 H 0.90549 0.58964 0.48159 0.0
O837 O 0.8587 0.60704 0.47464 0.0
H838 H 0.96785 0.61916 0.5233 0.0
H839 H 0.89921 0.65674 0.47823 0.0
H840 H 0.8245 0.63241 0.51865 0.0
H841 H 0.90869 0.62188 0.52133 0.0
H842 H 0.89552 0.62931 0.47963 0.0
O843 O 0.86108 0.55939 0.51838 0.0
H844 H 0.78715 0.58324 0.54689 0.0
H845 H 0.81147 0.54287 0.5216 0.0
H846 H 0.8276 0.65987 0.51778 0.0
H847 H 0.96465 0.58666 0.48304 0.0
H848 H 0.86518 0.67221 0.49746 0.0
H849 H 0.99622 0.60145 0.50405 0.0
O850 O 0.8092 0.60951 0.49919 0.0
H851 H 0.8289 0.54679 0.46138 0.0
H852 H 0.75939 0.56831 0.50625 0.0
H853 H 0.73441 0.55574 0.48152 0.0
H854 H 0.76925 0.54486 0.45888 0.0
H855 H 0.85288 0.55958 0.48623 0.0
H856 H 0.77867 0.52855 0.54219 0.0
H857 H 0.7495 0.54182 0.56539 0.0
O858 O 0.79236 0.59041 0.51552 0.0
C859 C 0.8539 0.59958 0.53828 0.0
C860 C 0.7664 0.56347 0.55759 0.0
C861 C 0.78034 0.54055 0.54329 0.0
N862 N 0.80097 0.56388 0.53296 0.0
C863 C 0.78518 0.57126 0.54575 0.0
C864 C 0.79891 0.54872 0.53169 0.0
C865 C 0.76397 0.54801 0.55631 0.0
C866 C 0.9191 0.59623 0.49064 0.0
N867 N 0.90367 0.60598 0.5013 0.0
C868 C 0.95258 0.59445 0.49145 0.0
C869 C 0.97027 0.60273 0.50327 0.0
C870 C 0.95436 0.61266 0.51408 0.0
C871 C 0.92085 0.61413 0.51293 0.0
C872 C 0.8828 0.6515 0.48717 0.0
C873 C 0.84105 0.6377 0.50985 0.0
C874 C 0.88056 0.63598 0.48799 0.0
N875 N 0.86001 0.62928 0.49931 0.0
C876 C 0.84263 0.65325 0.50938 0.0
C877 C 0.8637 0.66017 0.49796 0.0
C878 C 0.78723 0.6024 0.50719 0.0
C879 C 0.81347 0.55144 0.4712 0.0
C880 C 0.77472 0.56363 0.49643 0.0
C881 C 0.76043 0.5565 0.48248 0.0
C882 C 0.77999 0.55038 0.46978 0.0
N883 N 0.80758 0.56463 0.49773 0.0
C884 C 0.82691 0.55863 0.48534 0.0
Co885 Co 0.89247 0.14162 0.49961 0.0
Co886 Co 0.92011 0.1759 0.51301 0.0
O887 O 0.89314 0.16333 0.49856 0.0
C888 C 0.90692 0.14845 0.46363 0.0
O889 O 0.93021 0.15704 0.46935 0.0
C890 C 0.85424 0.18752 0.51779 0.0
O891 O 0.84477 0.17374 0.52041 0.0
O892 O 0.9049 0.1654 0.5339 0.0
O893 O 0.89516 0.14195 0.52514 0.0
H894 H -0.00074 0.18636 0.56019 0.0
H895 H 0.84148 0.15773 0.48039 0.0
O896 O 0.88958 0.14104 0.47407 0.0
H897 H 0.78385 0.12923 0.52485 0.0
H898 H 0.85426 0.09076 0.48143 0.0
H899 H 0.92803 0.11861 0.51927 0.0
H900 H 0.84311 0.12757 0.52226 0.0
H901 H 0.85535 0.11827 0.48095 0.0
O902 O 0.88388 0.19039 0.51506 0.0
H903 H 0.9656 0.17047 0.5416 0.0
H904 H 0.93068 0.20871 0.51546 0.0
H905 H 0.92756 0.09111 0.52026 0.0
H906 H 0.78219 0.15963 0.48245 0.0
H907 H 0.89047 0.07701 0.50124 0.0
H908 H 0.75299 0.14534 0.50485 0.0
O909 O 0.94046 0.14066 0.49823 0.0
H910 H 0.90585 0.20097 0.45604 0.0
H911 H 0.98476 0.18476 0.49945 0.0
H912 H 0.00404 0.19688 0.47306 0.0
H913 H 0.96444 0.20509 0.45113 0.0
H914 H 0.88764 0.18869 0.48256 0.0
H915 H 0.96376 0.22503 0.53385 0.0
H916 H 0.99847 0.21385 0.55636 0.0
O917 O 0.9569 0.16174 0.51106 0.0
C918 C 0.89816 0.15176 0.53686 0.0
C919 C 0.98431 0.19136 0.5504 0.0
C920 C 0.96436 0.21307 0.53563 0.0
N921 N 0.94641 0.18866 0.52738 0.0
C922 C 0.96527 0.18242 0.5398 0.0
C923 C 0.94563 0.20378 0.52528 0.0
C924 C 0.98383 0.20679 0.54825 0.0
C925 C 0.82892 0.15135 0.49005 0.0
N926 N 0.84573 0.14249 0.50113 0.0
C927 C 0.79536 0.15252 0.49121 0.0
C928 C 0.779 0.14453 0.50379 0.0
C929 C 0.7963 0.13549 0.51503 0.0
C930 C 0.82986 0.13462 0.51352 0.0
C931 C 0.87048 0.09678 0.4898 0.0
C932 C 0.91168 0.11254 0.51103 0.0
C933 C 0.87124 0.11235 0.48956 0.0
N934 N 0.89154 0.12002 0.50018 0.0
C935 C 0.91159 0.09698 0.51161 0.0
C936 C 0.8908 0.08907 0.50092 0.0
C937 C 0.96249 0.14906 0.50435 0.0
C938 C 0.92333 0.19748 0.46552 0.0
C939 C 0.96739 0.18827 0.48997 0.0
C940 C 0.97844 0.19516 0.47506 0.0
C941 C 0.95621 0.19977 0.46276 0.0
N942 N 0.9351 0.18606 0.49258 0.0
C943 C 0.91316 0.19058 0.4806 0.0
Co944 Co 0.63761 0.35785 0.75032 0.0
Co945 Co 0.66817 0.32527 0.76688 0.0
O946 O 0.64076 0.33614 0.75086 0.0
C947 C 0.6532 0.34934 0.71495 0.0
O948 O 0.67595 0.34084 0.72141 0.0
C949 C 0.604 0.31149 0.77035 0.0
O950 O 0.59209 0.32498 0.77196 0.0
O951 O 0.6489 0.33611 0.7865 0.0
O952 O 0.63972 0.35899 0.77588 0.0
H953 H 0.74283 0.31989 0.81714 0.0
H954 H 0.58887 0.33965 0.73202 0.0
O955 O 0.63541 0.35714 0.72477 0.0
H956 H 0.5272 0.36915 0.77403 0.0
H957 H 0.5946 0.40676 0.72849 0.0
H958 H 0.67042 0.3826 0.76845 0.0
H959 H 0.58629 0.37197 0.77169 0.0
H960 H 0.59847 0.37934 0.72993 0.0
O961 O 0.63428 0.30958 0.76874 0.0
H962 H 0.70896 0.33362 0.79652 0.0
H963 H 0.68398 0.29311 0.77172 0.0
H964 H 0.66713 0.41006 0.76754 0.0
H965 H 0.52977 0.33657 0.73384 0.0
H966 H 0.629 0.42231 0.74745 0.0
H967 H 0.49855 0.35136 0.755 0.0
O968 O 0.68537 0.35968 0.74895 0.0
H969 H 0.66504 0.29672 0.71161 0.0
H970 H 0.73562 0.31853 0.75581 0.0
H971 H 0.76001 0.30587 0.73099 0.0
H972 H 0.72463 0.29484 0.70868 0.0
H973 H 0.64165 0.30962 0.73654 0.0
H974 H 0.71738 0.27891 0.79215 0.0
H975 H 0.7472 0.29233 0.81502 0.0
O976 O 0.70283 0.34064 0.76517 0.0
C977 C 0.64174 0.34984 0.78835 0.0
C978 C 0.73005 0.31392 0.8072 0.0
C979 C 0.71573 0.29092 0.79318 0.0
N980 N 0.69477 0.31419 0.78285 0.0
C981 C 0.71091 0.32164 0.79546 0.0
C982 C 0.69681 0.29902 0.78167 0.0
C983 C 0.73246 0.29846 0.80601 0.0
C984 C 0.5754 0.34624 0.74114 0.0
N985 N 0.59099 0.35602 0.75168 0.0
C986 C 0.54196 0.3444 0.74216 0.0
C987 C 0.52447 0.35268 0.75406 0.0
C988 C 0.54054 0.36266 0.76475 0.0
C989 C 0.57401 0.36418 0.76339 0.0
C990 C 0.61126 0.40156 0.73732 0.0
C991 C 0.65363 0.38786 0.75975 0.0
C992 C 0.6136 0.38604 0.73817 0.0
N993 N 0.63446 0.3794 0.74937 0.0
C994 C 0.65194 0.40341 0.75926 0.0
C995 C 0.63056 0.41027 0.74797 0.0
C996 C 0.70764 0.3526 0.75674 0.0
C997 C 0.6807 0.30143 0.72128 0.0
C998 C 0.72005 0.3138 0.74614 0.0
C999 C 0.734 0.30661 0.73213 0.0
C1000 C 0.71414 0.30041 0.71962 0.0
N1001 N 0.68722 0.31476 0.74767 0.0
C1002 C 0.66759 0.30869 0.73547 0.0
Co1003 Co 0.61242 0.89411 0.75174 0.0
Co1004 Co 0.57903 0.92704 0.76601 0.0
O1005 O 0.60766 0.91572 0.75108 0.0
C1006 C 0.59526 0.90067 0.71599 0.0
O1007 O 0.571 0.90848 0.72206 0.0
C1008 C 0.64285 0.94092 0.77026 0.0
O1009 O 0.65455 0.92748 0.77267 0.0
O1010 O 0.59649 0.91684 0.78661 0.0
O1011 O 0.61082 0.89406 0.7773 0.0
H1012 H 0.49969 0.93387 0.81398 0.0
H1013 H 0.65926 0.91245 0.73222 0.0
O1014 O 0.61423 0.89387 0.72617 0.0
H1015 H 0.72414 0.88572 0.7753 0.0
H1016 H 0.65888 0.84512 0.73227 0.0
H1017 H 0.58219 0.86959 0.77151 0.0
H1018 H 0.66531 0.88174 0.77343 0.0
H1019 H 0.65278 0.87248 0.73225 0.0
O1020 O 0.61271 0.9428 0.76802 0.0
H1021 H 0.53536 0.91953 0.7948 0.0
H1022 H 0.56296 0.95932 0.76922 0.0
H1023 H 0.5877 0.84221 0.77206 0.0
H1024 H 0.71806 0.91669 0.73356 0.0
H1025 H 0.62627 0.8298 0.75233 0.0
H1026 H 0.7509 0.9033 0.75525 0.0
O1027 O 0.56471 0.89129 0.75089 0.0
H1028 H 0.58699 0.95346 0.70949 0.0
H1029 H 0.51264 0.93353 0.75313 0.0
H1030 H 0.49043 0.9453 0.72718 0.0
H1031 H 0.52772 0.95538 0.70514 0.0
H1032 H 0.60818 0.9415 0.73557 0.0
H1033 H 0.52776 0.9741 0.7882 0.0
H1034 H 0.49572 0.96136 0.81073 0.0
O1035 O 0.54483 0.91157 0.76407 0.0
C1036 C 0.60597 0.9035 0.78925 0.0
C1037 C 0.51344 0.93954 0.80417 0.0
C1038 C 0.52924 0.96213 0.78972 0.0
N1039 N 0.55102 0.93857 0.78083 0.0
C1040 C 0.53362 0.93148 0.79325 0.0
C1041 C 0.54918 0.9537 0.77904 0.0
C1042 C 0.51126 0.95497 0.80236 0.0
C1043 C 0.67343 0.90647 0.74159 0.0
N1044 N 0.65888 0.89682 0.75269 0.0
C1045 C 0.7067 0.90896 0.74233 0.0
C1046 C 0.7251 0.90147 0.75452 0.0
C1047 C 0.7101 0.89161 0.76578 0.0
C1048 C 0.67676 0.88943 0.76469 0.0
C1049 C 0.64203 0.8504 0.74095 0.0
C1050 C 0.59917 0.86428 0.76296 0.0
C1051 C 0.63843 0.86588 0.74097 0.0
N1052 N 0.61734 0.87262 0.75196 0.0
C1053 C 0.60212 0.84877 0.7633 0.0
C1054 C 0.62374 0.84181 0.75221 0.0
C1055 C 0.5414 0.89876 0.75726 0.0
C1056 C 0.5705 0.94915 0.71903 0.0
C1057 C 0.52902 0.93786 0.74359 0.0
C1058 C 0.5163 0.94454 0.72894 0.0
C1059 C 0.53724 0.9502 0.71658 0.0
N1060 N 0.56168 0.93688 0.74591 0.0
C1061 C 0.58235 0.94242 0.73386 0.0
Co1062 Co 0.63621 0.88956 0.49966 0.0
Co1063 Co 0.66758 0.92202 0.48335 0.0
O1064 O 0.64072 0.91118 0.49959 0.0
C1065 C 0.65512 0.89699 0.53491 0.0
O1066 O 0.67919 0.90453 0.52823 0.0
C1067 C 0.60404 0.93653 0.48134 0.0
O1068 O 0.59156 0.92319 0.47928 0.0
O1069 O 0.6463 0.91184 0.46385 0.0
O1070 O 0.63669 0.88883 0.47403 0.0
H1071 H 0.73884 0.92763 0.43175 0.0
H1072 H 0.58978 0.9081 0.5192 0.0
O1073 O 0.63553 0.88998 0.52525 0.0
H1074 H 0.52374 0.88016 0.47765 0.0
H1075 H 0.59141 0.84092 0.52128 0.0
H1076 H 0.66615 0.86466 0.48041 0.0
H1077 H 0.58273 0.87651 0.4789 0.0
H1078 H 0.59706 0.86829 0.52033 0.0
O1079 O 0.63446 0.93814 0.48265 0.0
H1080 H 0.70567 0.91385 0.45265 0.0
H1081 H 0.68491 0.95407 0.4791 0.0
H1082 H 0.66106 0.83726 0.48082 0.0
H1083 H 0.53084 0.912 0.51846 0.0
H1084 H 0.62346 0.82522 0.50137 0.0
H1085 H 0.49742 0.89801 0.49754 0.0
O1086 O 0.68393 0.88705 0.50005 0.0
H1087 H 0.6702 0.94918 0.53954 0.0
H1088 H 0.73614 0.92771 0.49317 0.0
H1089 H 0.76309 0.93946 0.51784 0.0
H1090 H 0.73005 0.95031 0.54125 0.0
H1091 H 0.64423 0.93721 0.51471 0.0
H1092 H 0.71765 0.96832 0.45841 0.0
H1093 H 0.745 0.95507 0.43457 0.0
O1094 O 0.70133 0.90617 0.4839 0.0
C1095 C 0.63837 0.89822 0.46177 0.0
C1096 C 0.72714 0.93352 0.44212 0.0
C1097 C 0.71522 0.95636 0.45707 0.0
N1098 N 0.69365 0.93313 0.46716 0.0
C1099 C 0.70842 0.92577 0.45402 0.0
C1100 C 0.69667 0.94824 0.46872 0.0
C1101 C 0.73056 0.94892 0.4437 0.0
C1102 C 0.57536 0.90185 0.51018 0.0
N1103 N 0.58967 0.89204 0.49917 0.0
C1104 C 0.54201 0.90416 0.50977 0.0
C1105 C 0.52328 0.89632 0.498 0.0
C1106 C 0.53804 0.88632 0.48683 0.0
C1107 C 0.57146 0.88432 0.48758 0.0
C1108 C 0.60782 0.84604 0.51224 0.0
C1109 C 0.64959 0.8595 0.48931 0.0
C1110 C 0.61116 0.86152 0.51167 0.0
N1111 N 0.6317 0.86806 0.50023 0.0
C1112 C 0.64688 0.84398 0.48952 0.0
C1113 C 0.62581 0.83723 0.50106 0.0
C1114 C 0.70599 0.89396 0.49188 0.0
C1115 C 0.68485 0.94454 0.5294 0.0
C1116 C 0.72159 0.93239 0.50331 0.0
C1117 C 0.73699 0.93905 0.51724 0.0
C1118 C 0.71844 0.94515 0.53036 0.0
N1119 N 0.68863 0.93184 0.50245 0.0
C1120 C 0.67028 0.93781 0.51526 0.0
Co1121 Co 0.61141 0.35653 0.4987 0.0
Co1122 Co 0.57895 0.32357 0.4839 0.0
O1123 O 0.60652 0.33491 0.49938 0.0
C1124 C 0.59202 0.34974 0.534 0.0
O1125 O 0.56917 0.3414 0.52737 0.0
C1126 C 0.64295 0.30961 0.48111 0.0
O1127 O 0.65482 0.32304 0.47883 0.0
O1128 O 0.59822 0.33362 0.46366 0.0
O1129 O 0.61172 0.35645 0.47314 0.0
H1130 H 0.50355 0.31662 0.43421 0.0
H1131 H 0.65671 0.33832 0.51935 0.0
O1132 O 0.61116 0.35695 0.52429 0.0
H1133 H 0.72478 0.36463 0.47732 0.0
H1134 H 0.65665 0.4056 0.51875 0.0
H1135 H 0.58267 0.38097 0.4782 0.0
H1136 H 0.66587 0.36868 0.47795 0.0
H1137 H 0.65045 0.37823 0.51883 0.0
O1138 O 0.61265 0.30775 0.48276 0.0
H1139 H 0.53779 0.331 0.45408 0.0
H1140 H 0.56285 0.29131 0.48056 0.0
H1141 H 0.58831 0.40834 0.47758 0.0
H1142 H 0.71554 0.33401 0.51923 0.0
H1143 H 0.62553 0.42083 0.49797 0.0
H1144 H 0.74998 0.34719 0.49807 0.0
O1145 O 0.56378 0.35938 0.49855 0.0
H1146 H 0.58215 0.29723 0.5406 0.0
H1147 H 0.51153 0.31732 0.49536 0.0
H1148 H 0.48716 0.30567 0.52084 0.0
H1149 H 0.52256 0.29552 0.54368 0.0
H1150 H 0.60551 0.30909 0.51499 0.0
H1151 H 0.52907 0.27648 0.4609 0.0
H1152 H 0.49903 0.28916 0.43756 0.0
O1153 O 0.5447 0.33913 0.48496 0.0
C1154 C 0.60793 0.34694 0.46115 0.0
C1155 C 0.51644 0.31098 0.44436 0.0
C1156 C 0.5308 0.28845 0.45933 0.0
N1157 N 0.55207 0.31201 0.46854 0.0
C1158 C 0.53578 0.31906 0.45568 0.0
C1159 C 0.54993 0.29689 0.4704 0.0
C1160 C 0.51394 0.29557 0.44624 0.0
C1161 C 0.67158 0.34422 0.51022 0.0
N1162 N 0.65789 0.3538 0.49873 0.0
C1163 C 0.70486 0.34168 0.51017 0.0
C1164 C 0.72416 0.34906 0.49827 0.0
C1165 C 0.71003 0.35884 0.48661 0.0
C1166 C 0.67666 0.36107 0.48701 0.0
C1167 C 0.64041 0.40028 0.50978 0.0
C1168 C 0.59906 0.38632 0.48703 0.0
C1169 C 0.63676 0.3848 0.50979 0.0
N1170 N 0.61643 0.37802 0.49843 0.0
C1171 C 0.60209 0.40182 0.48666 0.0
C1172 C 0.62295 0.40882 0.49811 0.0
C1173 C 0.54091 0.35197 0.49166 0.0
C1174 C 0.56647 0.30157 0.53071 0.0
C1175 C 0.5271 0.31296 0.50526 0.0
C1176 C 0.51316 0.30634 0.51964 0.0
C1177 C 0.53303 0.30064 0.53245 0.0
N1178 N 0.55992 0.31384 0.50365 0.0
C1179 C 0.57956 0.30824 0.51614 0.0
Co1180 Co 0.35487 0.64272 0.2486 0.0
Co1181 Co 0.3269 0.67637 0.23355 0.0
O1182 O 0.35348 0.66444 0.24891 0.0
C1183 C 0.33891 0.65023 0.28426 0.0
O1184 O 0.31565 0.6586 0.27809 0.0
C1185 C 0.39246 0.68869 0.22986 0.0
O1186 O 0.40289 0.67499 0.22774 0.0
O1187 O 0.34413 0.66558 0.21331 0.0
O1188 O 0.35306 0.64236 0.22304 0.0
H1189 H 0.25093 0.68488 0.18442 0.0
H1190 H 0.40471 0.6596 0.26777 0.0
O1191 O 0.35687 0.64277 0.27418 0.0
H1192 H 0.46471 0.63032 0.22489 0.0
H1193 H 0.39383 0.59257 0.26883 0.0
H1194 H 0.3206 0.619 0.22941 0.0
H1195 H 0.40541 0.62841 0.22691 0.0
H1196 H 0.392 0.62007 0.26838 0.0
O1197 O 0.36247 0.69123 0.23182 0.0
H1198 H 0.28389 0.66979 0.20421 0.0
H1199 H 0.31482 0.70899 0.2299 0.0
H1200 H 0.32183 0.5915 0.22934 0.0
H1201 H 0.46403 0.66177 0.26627 0.0
H1202 H 0.35867 0.57811 0.24916 0.0
H1203 H 0.49441 0.64709 0.24468 0.0
O1204 O 0.3069 0.64154 0.2496 0.0
H1205 H 0.33559 0.70295 0.28993 0.0
H1206 H 0.26085 0.68475 0.2455 0.0
H1207 H 0.23899 0.69726 0.27108 0.0
H1208 H 0.27647 0.70647 0.29351 0.0
H1209 H 0.3564 0.69025 0.26423 0.0
H1210 H 0.28238 0.72451 0.21031 0.0
H1211 H 0.25004 0.71244 0.18742 0.0
O1212 O 0.29065 0.66186 0.2352 0.0
C1213 C 0.35089 0.65186 0.21093 0.0
C1214 C 0.26484 0.69026 0.19438 0.0
C1215 C 0.28253 0.71251 0.2089 0.0
N1216 N 0.30103 0.6885 0.21827 0.0
C1217 C 0.28347 0.68178 0.20565 0.0
C1218 C 0.30089 0.70367 0.21992 0.0
C1219 C 0.26438 0.70573 0.19606 0.0
C1220 C 0.41779 0.65306 0.25845 0.0
N1221 N 0.40162 0.64384 0.2475 0.0
C1222 C 0.45137 0.65438 0.25762 0.0
C1223 C 0.46839 0.64616 0.24548 0.0
C1224 C 0.45174 0.63676 0.23437 0.0
C1225 C 0.41815 0.63575 0.23555 0.0
C1226 C 0.37774 0.59828 0.26011 0.0
C1227 C 0.33682 0.61325 0.23799 0.0
C1228 C 0.37655 0.61384 0.25982 0.0
N1229 N 0.35641 0.62112 0.24877 0.0
C1230 C 0.33735 0.59768 0.23793 0.0
C1231 C 0.358 0.59018 0.24907 0.0
C1232 C 0.285 0.64948 0.24262 0.0
C1233 C 0.31902 0.69902 0.28022 0.0
C1234 C 0.27732 0.68869 0.25522 0.0
C1235 C 0.2648 0.6958 0.26966 0.0
C1236 C 0.28584 0.70097 0.28224 0.0
N1237 N 0.30989 0.68681 0.25333 0.0
C1238 C 0.33067 0.69188 0.2656 0.0
Co1239 Co 0.3866 0.10964 0.24913 0.0
Co1240 Co 0.41381 0.07546 0.2352 0.0
O1241 O 0.38826 0.08796 0.25043 0.0
C1242 C 0.40569 0.10326 0.28459 0.0
O1243 O 0.42862 0.09486 0.27816 0.0
C1244 C 0.34792 0.0633 0.23338 0.0
O1245 O 0.33758 0.07701 0.2312 0.0
O1246 O 0.39546 0.08557 0.21478 0.0
O1247 O 0.38623 0.10906 0.22356 0.0
H1248 H 0.48683 0.06512 0.18529 0.0
H1249 H 0.33864 0.09343 0.27033 0.0
O1250 O 0.38683 0.11044 0.2747 0.0
H1251 H 0.27469 0.12098 0.22755 0.0
H1252 H 0.34887 0.16038 0.26796 0.0
H1253 H 0.41881 0.13271 0.22799 0.0
H1254 H 0.33408 0.12303 0.228 0.0
H1255 H 0.35102 0.1329 0.26874 0.0
O1256 O 0.37799 0.06064 0.2347 0.0
H1257 H 0.45516 0.08094 0.2049 0.0
H1258 H 0.42536 0.04272 0.2328 0.0
H1259 H 0.41721 0.16018 0.22667 0.0
H1260 H 0.27929 0.09116 0.27043 0.0
H1261 H 0.38203 0.1742 0.24675 0.0
H1262 H 0.2469 0.10497 0.24889 0.0
O1263 O 0.43458 0.11096 0.24886 0.0
H1264 H 0.40831 0.05095 0.29291 0.0
H1265 H 0.48047 0.06737 0.24641 0.0
H1266 H 0.50377 0.05575 0.27219 0.0
H1267 H 0.46759 0.04745 0.29567 0.0
H1268 H 0.38605 0.06273 0.26697 0.0
H1269 H 0.45651 0.02647 0.21342 0.0
H1270 H 0.48764 0.03768 0.1895 0.0
O1271 O 0.45021 0.08996 0.23557 0.0
C1272 C 0.38807 0.09914 0.21188 0.0
C1273 C 0.47346 0.06011 0.1957 0.0
C1274 C 0.4564 0.03841 0.21147 0.0
N1275 N 0.43866 0.06276 0.22005 0.0
C1276 C 0.45555 0.06901 0.20687 0.0
C1277 C 0.43876 0.04766 0.22238 0.0
C1278 C 0.47387 0.04471 0.19806 0.0
C1279 C 0.32471 0.0996 0.26104 0.0
N1280 N 0.33981 0.10841 0.24923 0.0
C1281 C 0.29111 0.09822 0.26111 0.0
C1282 C 0.27296 0.10595 0.249 0.0
C1283 C 0.28853 0.11492 0.23701 0.0
C1284 C 0.32218 0.11601 0.2373 0.0
C1285 C 0.36423 0.1544 0.25911 0.0
C1286 C 0.40329 0.13874 0.2367 0.0
C1287 C 0.3656 0.13885 0.25952 0.0
N1288 N 0.38481 0.13122 0.24832 0.0
C1289 C 0.40256 0.15429 0.23592 0.0
C1290 C 0.38284 0.16215 0.24721 0.0
C1291 C 0.45612 0.10273 0.24201 0.0
C1292 C 0.42432 0.05448 0.28275 0.0
C1293 C 0.46456 0.06381 0.25658 0.0
C1294 C 0.47789 0.05721 0.27113 0.0
C1295 C 0.45758 0.05254 0.28429 0.0
N1296 N 0.43191 0.06567 0.25515 0.0
C1297 C 0.41184 0.0611 0.26799 0.0
Co1298 Co 0.3634 0.10733 0.50126 0.0
Co1299 Co 0.33358 0.07371 0.51549 0.0
O1300 O 0.36063 0.08565 0.50038 0.0
C1301 C 0.34589 0.10075 0.46561 0.0
O1302 O 0.32242 0.09252 0.47181 0.0
C1303 C 0.39859 0.06078 0.51879 0.0
O1304 O 0.40948 0.07435 0.52127 0.0
O1305 O 0.35142 0.08394 0.53596 0.0
O1306 O 0.36227 0.10717 0.52683 0.0
H1307 H 0.25742 0.06504 0.5645 0.0
H1308 H 0.41163 0.0902 0.48125 0.0
O1309 O 0.36466 0.10779 0.47569 0.0
H1310 H 0.47457 0.11774 0.52448 0.0
H1311 H 0.40494 0.15735 0.48208 0.0
H1312 H 0.33114 0.13108 0.52136 0.0
H1313 H 0.41538 0.1205 0.52295 0.0
H1314 H 0.4014 0.12989 0.48181 0.0
O1315 O 0.36851 0.05849 0.51679 0.0
H1316 H 0.29101 0.08016 0.54505 0.0
H1317 H 0.32003 0.04116 0.51838 0.0
H1318 H 0.3341 0.15854 0.52215 0.0
H1319 H 0.47081 0.0872 0.48226 0.0
H1320 H 0.37122 0.17185 0.5024 0.0
H1321 H 0.50268 0.10099 0.50402 0.0
O1322 O 0.31551 0.10917 0.50067 0.0
H1323 H 0.34063 0.04804 0.4585 0.0
H1324 H 0.26707 0.0663 0.50344 0.0
H1325 H 0.24444 0.05446 0.47763 0.0
H1326 H 0.28133 0.04522 0.45494 0.0
H1327 H 0.36222 0.06006 0.48444 0.0
H1328 H 0.28695 0.0256 0.53761 0.0
H1329 H 0.25524 0.03755 0.56083 0.0
O1330 O 0.29804 0.08863 0.51427 0.0
C1331 C 0.35934 0.09748 0.53868 0.0
C1332 C 0.27104 0.05971 0.5544 0.0
C1333 C 0.28765 0.03757 0.53932 0.0
N1334 N 0.30723 0.06156 0.53052 0.0
C1335 C 0.29003 0.06822 0.54332 0.0
C1336 C 0.30639 0.04643 0.52849 0.0
C1337 C 0.26986 0.04428 0.55234 0.0
C1338 C 0.42537 0.09636 0.49064 0.0
N1339 N 0.41008 0.10557 0.50197 0.0
C1340 C 0.45885 0.09457 0.4912 0.0
C1341 C 0.47671 0.10229 0.50343 0.0
C1342 C 0.46095 0.11168 0.51492 0.0
C1343 C 0.42742 0.11318 0.51402 0.0
C1344 C 0.38873 0.15167 0.49077 0.0
C1345 C 0.3475 0.13679 0.5128 0.0
C1346 C 0.38658 0.13613 0.49065 0.0
N1347 N 0.36629 0.1289 0.50167 0.0
C1348 C 0.349 0.15234 0.51327 0.0
C1349 C 0.36981 0.1598 0.50218 0.0
C1350 C 0.29316 0.10131 0.50737 0.0
C1351 C 0.32431 0.05198 0.46832 0.0
C1352 C 0.28328 0.06234 0.49362 0.0
C1353 C 0.27033 0.05562 0.47904 0.0
C1354 C 0.29104 0.05042 0.46632 0.0
N1355 N 0.31595 0.06382 0.49549 0.0
C1356 C 0.3364 0.05874 0.48308 0.0
Co1357 Co 0.38427 0.64139 0.50063 0.0
Co1358 Co 0.41608 0.67407 0.51616 0.0
O1359 O 0.3886 0.66302 0.5004 0.0
C1360 C 0.40192 0.64852 0.46511 0.0
O1361 O 0.42615 0.65615 0.47148 0.0
C1362 C 0.35246 0.68841 0.5189 0.0
O1363 O 0.3402 0.67505 0.52111 0.0
O1364 O 0.39593 0.66396 0.53605 0.0
O1365 O 0.38568 0.64089 0.52626 0.0
H1366 H 0.48977 0.68026 0.5667 0.0
H1367 H 0.337 0.65967 0.48134 0.0
O1368 O 0.38268 0.64159 0.47504 0.0
H1369 H 0.27269 0.63201 0.5239 0.0
H1370 H 0.33908 0.59249 0.48002 0.0
H1371 H 0.41507 0.61671 0.51986 0.0
H1372 H 0.33166 0.62845 0.52209 0.0
H1373 H 0.34455 0.61988 0.4806 0.0
O1374 O 0.38279 0.69009 0.5172 0.0
H1375 H 0.45581 0.66622 0.54639 0.0
H1376 H 0.43316 0.7062 0.51987 0.0
H1377 H 0.41018 0.58929 0.51982 0.0
H1378 H 0.27806 0.66348 0.48263 0.0
H1379 H 0.37195 0.57701 0.4998 0.0
H1380 H 0.24551 0.64962 0.50406 0.0
O1381 O 0.43199 0.63894 0.49977 0.0
H1382 H 0.41547 0.7008 0.45968 0.0
H1383 H 0.48405 0.67992 0.50534 0.0
H1384 H 0.50956 0.69157 0.48017 0.0
H1385 H 0.47519 0.70213 0.45713 0.0
H1386 H 0.39094 0.68894 0.48499 0.0
H1387 H 0.46669 0.72069 0.53997 0.0
H1388 H 0.49538 0.70769 0.56355 0.0
O1389 O 0.45004 0.65833 0.51527 0.0
C1390 C 0.388 0.65037 0.53838 0.0
C1391 C 0.47749 0.68604 0.55644 0.0
C1392 C 0.4645 0.70873 0.54145 0.0
N1393 N 0.44279 0.68537 0.53187 0.0
C1394 C 0.45831 0.67815 0.54487 0.0
C1395 C 0.44551 0.70048 0.53013 0.0
C1396 C 0.4806 0.70143 0.55468 0.0
C1397 C 0.32296 0.65348 0.49058 0.0
N1398 N 0.33774 0.6438 0.50157 0.0
C1399 C 0.28961 0.65573 0.4913 0.0
C1400 C 0.27137 0.64798 0.50335 0.0
C1401 C 0.28661 0.6381 0.51449 0.0
C1402 C 0.32002 0.63616 0.51343 0.0
C1403 C 0.35577 0.59771 0.48883 0.0
C1404 C 0.39824 0.61144 0.51119 0.0
C1405 C 0.35901 0.61321 0.48919 0.0
N1406 N 0.3799 0.61987 0.50036 0.0
C1407 C 0.39564 0.59592 0.51119 0.0
C1408 C 0.37421 0.58904 0.49993 0.0
C1409 C 0.4544 0.64602 0.50746 0.0
C1410 C 0.4307 0.69629 0.46967 0.0
C1411 C 0.46892 0.68447 0.49535 0.0
C1412 C 0.48351 0.69108 0.48115 0.0
C1413 C 0.46421 0.69701 0.46823 0.0
N1414 N 0.43602 0.68382 0.49668 0.0
C1415 C 0.41695 0.68962 0.48407 0.0
Co1416 Co 0.63831 0.85829 0.25095 0.0
Co1417 Co 0.66799 0.82448 0.26468 0.0
O1418 O 0.64125 0.83661 0.24959 0.0
C1419 C 0.65635 0.85198 0.21534 0.0
O1420 O 0.67883 0.84323 0.22161 0.0
C1421 C 0.6032 0.81112 0.26696 0.0
O1422 O 0.59181 0.82459 0.26955 0.0
O1423 O 0.64908 0.83421 0.28516 0.0
O1424 O 0.63864 0.85764 0.27655 0.0
H1425 H 0.74219 0.81523 0.31438 0.0
H1426 H 0.59084 0.84146 0.23012 0.0
O1427 O 0.63792 0.85926 0.22536 0.0
H1428 H 0.52635 0.86809 0.27344 0.0
H1429 H 0.59698 0.90858 0.23264 0.0
H1430 H 0.66977 0.8817 0.27189 0.0
H1431 H 0.58556 0.87096 0.2725 0.0
H1432 H 0.60072 0.88114 0.23174 0.0
O1433 O 0.63341 0.80905 0.26522 0.0
H1434 H 0.70909 0.83056 0.29491 0.0
H1435 H 0.68228 0.79194 0.26687 0.0
H1436 H 0.66659 0.90914 0.27333 0.0
H1437 H 0.53166 0.83834 0.23052 0.0
H1438 H 0.62997 0.92276 0.2536 0.0
H1439 H 0.49901 0.85168 0.25233 0.0
O1440 O 0.68616 0.86022 0.25079 0.0
H1441 H 0.66374 0.79972 0.20707 0.0
H1442 H 0.73515 0.81767 0.25315 0.0
H1443 H 0.75903 0.80642 0.22731 0.0
H1444 H 0.72323 0.79734 0.20405 0.0
H1445 H 0.64088 0.81118 0.23305 0.0
H1446 H 0.7149 0.77618 0.2861 0.0
H1447 H 0.74525 0.78783 0.31002 0.0
O1448 O 0.70326 0.83957 0.26426 0.0
C1449 C 0.64104 0.84769 0.28817 0.0
C1450 C 0.72917 0.81003 0.30397 0.0
C1451 C 0.71382 0.78811 0.28811 0.0
N1452 N 0.694 0.81216 0.2797 0.0
C1453 C 0.71046 0.81865 0.29288 0.0
C1454 C 0.69534 0.79709 0.27729 0.0
C1455 C 0.73085 0.79466 0.30153 0.0
C1456 C 0.57677 0.84742 0.23953 0.0
N1457 N 0.59163 0.85644 0.25121 0.0
C1458 C 0.54328 0.84556 0.23975 0.0
C1459 C 0.52498 0.85303 0.25201 0.0
C1460 C 0.54031 0.86223 0.26386 0.0
C1461 C 0.57385 0.86379 0.26329 0.0
C1462 C 0.61296 0.90278 0.24133 0.0
C1463 C 0.65363 0.88755 0.26335 0.0
C1464 C 0.61523 0.88724 0.24086 0.0
N1465 N 0.63523 0.87984 0.25186 0.0
C1466 C 0.652 0.90309 0.26418 0.0
C1467 C 0.63148 0.91072 0.2531 0.0
C1468 C 0.70829 0.85235 0.25765 0.0
C1469 C 0.67958 0.80359 0.21715 0.0
C1470 C 0.7194 0.81379 0.24307 0.0
C1471 C 0.73307 0.80739 0.22849 0.0
C1472 C 0.71297 0.80228 0.21545 0.0
N1473 N 0.68663 0.81504 0.24464 0.0
C1474 C 0.66677 0.81002 0.23193 0.0
Co1475 Co 0.61365 0.38946 0.25035 0.0
Co1476 Co 0.58254 0.42225 0.26584 0.0
O1477 O 0.60951 0.41109 0.24995 0.0
C1478 C 0.59571 0.39642 0.21482 0.0
O1479 O 0.57143 0.40404 0.22116 0.0
C1480 C 0.64622 0.43664 0.26776 0.0
O1481 O 0.65855 0.4233 0.27003 0.0
O1482 O 0.6034 0.41231 0.28563 0.0
O1483 O 0.61258 0.3891 0.27598 0.0
H1484 H 0.51059 0.4288 0.31703 0.0
H1485 H 0.66088 0.40752 0.23074 0.0
O1486 O 0.61496 0.38952 0.22476 0.0
H1487 H 0.72543 0.37996 0.27326 0.0
H1488 H 0.65805 0.34035 0.22995 0.0
H1489 H 0.58282 0.36495 0.26986 0.0
H1490 H 0.66641 0.37652 0.2717 0.0
H1491 H 0.65289 0.36775 0.23034 0.0
O1492 O 0.61583 0.4383 0.26638 0.0
H1493 H 0.54386 0.41463 0.29653 0.0
H1494 H 0.56554 0.4544 0.2694 0.0
H1495 H 0.5874 0.33753 0.27001 0.0
H1496 H 0.71987 0.4112 0.23177 0.0
H1497 H 0.62525 0.32505 0.24994 0.0
H1498 H 0.75255 0.39739 0.25318 0.0
O1499 O 0.56591 0.38712 0.2497 0.0
H1500 H 0.58114 0.4485 0.20907 0.0
H1501 H 0.5142 0.42801 0.25564 0.0
H1502 H 0.4878 0.43944 0.2306 0.0
H1503 H 0.52134 0.4498 0.2071 0.0
H1504 H 0.60656 0.43686 0.23427 0.0
H1505 H 0.53269 0.46904 0.28967 0.0
H1506 H 0.50483 0.45621 0.31365 0.0
O1507 O 0.54858 0.40649 0.26545 0.0
C1508 C 0.61097 0.39869 0.28803 0.0
C1509 C 0.52251 0.43451 0.30659 0.0
C1510 C 0.53495 0.45709 0.29125 0.0
N1511 N 0.55635 0.43366 0.2817 0.0
C1512 C 0.54129 0.42654 0.29492 0.0
C1513 C 0.55356 0.44876 0.27983 0.0
C1514 C 0.51932 0.44989 0.3047 0.0
C1515 C 0.67497 0.40135 0.23998 0.0
N1516 N 0.66022 0.39177 0.25109 0.0
C1517 C 0.70835 0.40353 0.24055 0.0
C1518 C 0.72666 0.3958 0.25259 0.0
C1519 C 0.71146 0.38603 0.26386 0.0
C1520 C 0.67802 0.38415 0.26295 0.0
C1521 C 0.64153 0.34565 0.23878 0.0
C1522 C 0.59948 0.3596 0.26117 0.0
C1523 C 0.63846 0.36116 0.23903 0.0
N1524 N 0.61778 0.36793 0.25022 0.0
C1525 C 0.60191 0.34407 0.26128 0.0
C1526 C 0.62312 0.33708 0.25 0.0
C1527 C 0.54382 0.39421 0.25764 0.0
C1528 C 0.56627 0.44407 0.21926 0.0
C1529 C 0.52897 0.43247 0.24546 0.0
C1530 C 0.51388 0.43896 0.23133 0.0
C1531 C 0.53271 0.44478 0.21815 0.0
N1532 N 0.56191 0.43183 0.24646 0.0
C1533 C 0.58053 0.43753 0.2336 0.0
Co1534 Co 0.64025 0.39295 0.99828 0.0
Co1535 Co 0.66953 0.42678 0.98435 0.0
O1536 O 0.6427 0.41464 0.99938 0.0
C1537 C 0.65792 0.39937 0.03396 0.0
O1538 O 0.6812 0.40772 0.02778 0.0
C1539 C 0.60442 0.43961 0.9812 0.0
O1540 O 0.59352 0.42602 0.97882 0.0
O1541 O 0.65173 0.41666 0.96381 0.0
O1542 O 0.64107 0.39333 0.97271 0.0
H1543 H 0.74543 0.436 0.93536 0.0
H1544 H 0.59201 0.40978 0.01862 0.0
O1545 O 0.63926 0.39229 0.02386 0.0
H1546 H 0.52895 0.3824 0.97533 0.0
H1547 H 0.59959 0.34267 0.01708 0.0
H1548 H 0.67253 0.36945 0.97782 0.0
H1549 H 0.5882 0.3798 0.97663 0.0
H1550 H 0.60279 0.37013 0.01762 0.0
O1551 O 0.63448 0.44192 0.98319 0.0
H1552 H 0.71206 0.42065 0.95468 0.0
H1553 H 0.68273 0.45938 0.98178 0.0
H1554 H 0.66991 0.34199 0.97674 0.0
H1555 H 0.53279 0.41262 0.01784 0.0
H1556 H 0.63322 0.32842 0.99648 0.0
H1557 H 0.50086 0.3989 0.99604 0.0
O1558 O 0.6882 0.39121 0.99869 0.0
H1559 H 0.6622 0.45193 0.04164 0.0
H1560 H 0.73596 0.43436 0.99642 0.0
H1561 H 0.75845 0.44603 0.02237 0.0
H1562 H 0.72146 0.45492 0.0452 0.0
H1563 H 0.64075 0.44007 0.01555 0.0
H1564 H 0.71558 0.47517 0.96267 0.0
H1565 H 0.74733 0.46346 0.9393 0.0
O1566 O 0.7052 0.41197 0.98539 0.0
C1567 C 0.64382 0.40313 0.96096 0.0
C1568 C 0.73178 0.44122 0.94553 0.0
C1569 C 0.715 0.46321 0.96084 0.0
N1570 N 0.69569 0.43911 0.96942 0.0
C1571 C 0.71292 0.43259 0.95653 0.0
C1572 C 0.69639 0.45422 0.9716 0.0
C1573 C 0.73281 0.45663 0.94774 0.0
C1574 C 0.57826 0.40366 0.00921 0.0
N1575 N 0.59354 0.39458 0.99774 0.0
C1576 C 0.54474 0.40536 0.00879 0.0
C1577 C 0.52685 0.39768 0.99653 0.0
C1578 C 0.5426 0.38842 0.98489 0.0
C1579 C 0.57616 0.38702 0.98567 0.0
C1580 C 0.61561 0.34845 0.00839 0.0
C1581 C 0.65637 0.36362 0.98637 0.0
C1582 C 0.61757 0.364 0.00867 0.0
N1583 N 0.63762 0.37138 0.99766 0.0
C1584 C 0.65506 0.34807 0.98574 0.0
C1585 C 0.63449 0.34047 0.99683 0.0
C1586 C 0.71035 0.39923 0.99205 0.0
C1587 C 0.67856 0.44814 0.03176 0.0
C1588 C 0.71971 0.43816 0.00631 0.0
C1589 C 0.73258 0.4448 0.02096 0.0
C1590 C 0.71181 0.44979 0.03376 0.0
N1591 N 0.68706 0.43658 0.00444 0.0
C1592 C 0.66655 0.44147 0.01692 0.0
Co1593 Co 0.61026 0.85873 0.99905 0.0
Co1594 Co 0.58106 0.8249 0.98484 0.0
O1595 O 0.60808 0.837 -0.00017 0.0
C1596 C 0.59315 0.8516 0.03463 0.0
O1597 O 0.57119 0.84259 0.02832 0.0
C1598 C 0.64651 0.81251 0.98102 0.0
O1599 O 0.65706 0.8262 0.97897 0.0
O1600 O 0.59763 0.83545 0.96427 0.0
O1601 O 0.60963 0.85855 0.97349 0.0
H1602 H 0.50337 0.81592 0.93657 0.0
H1603 H 0.65843 0.84175 0.01924 0.0
O1604 O 0.61095 0.85925 0.02465 0.0
H1605 H 0.72169 0.86974 0.97654 0.0
H1606 H 0.65018 0.90896 0.01847 0.0
H1607 H 0.57793 0.88231 0.97873 0.0
H1608 H 0.66243 0.87226 0.97778 0.0
H1609 H 0.6473 0.88149 0.01872 0.0
O1610 O 0.61652 0.81 0.98298 0.0
H1611 H 0.53705 0.83119 0.95582 0.0
H1612 H 0.56881 0.79225 0.98173 0.0
H1613 H 0.58024 0.90978 0.97794 0.0
H1614 H 0.71767 0.83897 0.01854 0.0
H1615 H 0.61658 0.92329 0.99792 0.0
H1616 H 0.74971 0.853 0.99704 0.0
O1617 O 0.56228 0.86037 0.99945 0.0
H1618 H 0.59147 0.79876 0.04141 0.0
H1619 H 0.51537 0.81676 0.99753 0.0
H1620 H 0.49428 0.80449 0.02344 0.0
H1621 H 0.53246 0.79538 0.0456 0.0
H1622 H 0.6115 0.81122 0.01538 0.0
H1623 H 0.53566 0.77654 0.96268 0.0
H1624 H 0.50254 0.78839 0.93995 0.0
O1625 O 0.54503 0.83945 0.98657 0.0
C1626 C 0.60596 0.84895 0.96159 0.0
C1627 C 0.51762 0.81063 0.94646 0.0
C1628 C 0.53578 0.78853 0.9611 0.0
N1629 N 0.55468 0.81263 0.96995 0.0
C1630 C 0.53667 0.81922 0.95742 0.0
C1631 C 0.55455 0.79747 0.97182 0.0
C1632 C 0.51719 0.79518 0.94836 0.0
C1633 C 0.67223 0.848 0.00996 0.0
N1634 N 0.65699 0.8572 0.99861 0.0
C1635 C 0.70576 0.84634 0.00958 0.0
C1636 C 0.72371 0.85419 0.99749 0.0
C1637 C 0.708 0.86358 0.98598 0.0
C1638 C 0.67443 0.86494 0.98671 0.0
C1639 C 0.6343 0.9032 0.00968 0.0
C1640 C 0.59394 0.88811 0.98739 0.0
C1641 C 0.63252 0.88765 0.00979 0.0
N1642 N 0.61265 0.88031 0.99866 0.0
C1643 C 0.59508 0.90366 0.98692 0.0
C1644 C 0.61545 0.91124 0.99814 0.0
C1645 C 0.53999 0.85224 0.99314 0.0
C1646 C 0.5746 0.80264 0.03182 0.0
C1647 C 0.53213 0.81286 0.00712 0.0
C1648 C 0.52005 0.80589 0.02176 0.0
C1649 C 0.54148 0.80077 0.03418 0.0
N1650 N 0.56465 0.81466 0.0049 0.0
C1651 C 0.58581 0.80964 0.01702 0.0
Co1652 Co 0.35928 0.14256 0.74906 0.0
Co1653 Co 0.33299 0.17622 0.73305 0.0
O1654 O 0.35857 0.16431 0.74894 0.0
C1655 C 0.3421 0.151 0.78423 0.0
O1656 O 0.32064 0.16002 0.77747 0.0
C1657 C 0.39919 0.18798 0.72996 0.0
O1658 O 0.4093 0.17417 0.72844 0.0
O1659 O 0.35051 0.16497 0.71322 0.0
O1660 O 0.35896 0.1419 0.72351 0.0
H1661 H 0.25904 0.18451 0.68302 0.0
H1662 H 0.40845 0.15937 0.76877 0.0
O1663 O 0.35964 0.14286 0.77465 0.0
H1664 H 0.47009 0.12918 0.72741 0.0
H1665 H 0.39541 0.09242 0.77073 0.0
H1666 H 0.32539 0.11884 0.72969 0.0
H1667 H 0.41065 0.12765 0.72846 0.0
H1668 H 0.39453 0.11991 0.76979 0.0
O1669 O 0.36919 0.19077 0.73134 0.0
H1670 H 0.29074 0.16951 0.70345 0.0
H1671 H 0.32232 0.20888 0.72856 0.0
H1672 H 0.32571 0.09134 0.7301 0.0
H1673 H 0.46788 0.16116 0.76824 0.0
H1674 H 0.36092 0.07795 0.75073 0.0
H1675 H 0.4991 0.14602 0.7474 0.0
O1676 O 0.31129 0.14169 0.74932 0.0
H1677 H 0.34085 0.20382 0.78882 0.0
H1678 H 0.26688 0.18532 0.7442 0.0
H1679 H 0.24467 0.19849 0.76924 0.0
H1680 H 0.28177 0.20786 0.79177 0.0
H1681 H 0.36201 0.19046 0.76365 0.0
H1682 H 0.29116 0.22432 0.70833 0.0
H1683 H 0.25913 0.21213 0.6854 0.0
O1684 O 0.29611 0.16204 0.73465 0.0
C1685 C 0.35729 0.15121 0.71119 0.0
C1686 C 0.27282 0.18995 0.69299 0.0
C1687 C 0.29088 0.2123 0.70718 0.0
N1688 N 0.30814 0.1883 0.71725 0.0
C1689 C 0.29074 0.18151 0.70462 0.0
C1690 C 0.30853 0.2035 0.71858 0.0
C1691 C 0.2729 0.20545 0.69432 0.0
C1692 C 0.42188 0.15263 0.75979 0.0
N1693 N 0.4061 0.14336 0.74873 0.0
C1694 C 0.45552 0.15374 0.7595 0.0
C1695 C 0.47302 0.14526 0.74779 0.0
C1696 C 0.45676 0.13582 0.73655 0.0
C1697 C 0.42309 0.13503 0.73719 0.0
C1698 C 0.38002 0.09812 0.76166 0.0
C1699 C 0.34092 0.11308 0.73863 0.0
C1700 C 0.37938 0.11368 0.76109 0.0
N1701 N 0.36013 0.12095 0.7496 0.0
C1702 C 0.34093 0.09752 0.73884 0.0
C1703 C 0.36067 0.09001 0.75043 0.0
C1704 C 0.28988 0.14972 0.74207 0.0
C1705 C 0.32445 0.19984 0.77907 0.0
C1706 C 0.28317 0.18932 0.75397 0.0
C1707 C 0.27046 0.19681 0.7681 0.0
C1708 C 0.29129 0.20207 0.78073 0.0
N1709 N 0.31572 0.18715 0.75243 0.0
C1710 C 0.3363 0.19232 0.76474 0.0
Co1711 Co 0.38725 0.60687 0.74897 0.0
Co1712 Co 0.41366 0.57289 0.73394 0.0
O1713 O 0.38792 0.58512 0.74942 0.0
C1714 C 0.40405 0.59914 0.78442 0.0
O1715 O 0.42559 0.59001 0.77796 0.0
C1716 C 0.3475 0.56108 0.73086 0.0
O1717 O 0.33739 0.57486 0.72901 0.0
O1718 O 0.39639 0.58374 0.71375 0.0
O1719 O 0.38782 0.60702 0.72339 0.0
H1720 H 0.48819 0.56359 0.68438 0.0
H1721 H 0.33784 0.59047 0.76897 0.0
O1722 O 0.38661 0.60708 0.77457 0.0
H1723 H 0.2767 0.61986 0.72664 0.0
H1724 H 0.35097 0.65745 0.76918 0.0
H1725 H 0.42136 0.63018 0.72906 0.0
H1726 H 0.33613 0.62138 0.72783 0.0
H1727 H 0.35183 0.62994 0.76899 0.0
O1728 O 0.37747 0.55832 0.73247 0.0
H1729 H 0.45626 0.579 0.70429 0.0
H1730 H 0.42437 0.54015 0.73035 0.0
H1731 H 0.42108 0.65769 0.72873 0.0
H1732 H 0.27841 0.58869 0.7683 0.0
H1733 H 0.38568 0.6715 0.7489 0.0
H1734 H 0.24744 0.60343 0.74698 0.0
O1735 O 0.43525 0.60774 0.74935 0.0
H1736 H 0.40508 0.54643 0.7904 0.0
H1737 H 0.47963 0.56401 0.74555 0.0
H1738 H 0.50151 0.55135 0.77102 0.0
H1739 H 0.46413 0.54245 0.79367 0.0
H1740 H 0.38425 0.55927 0.7648 0.0
H1741 H 0.45576 0.5243 0.71065 0.0
H1742 H 0.48807 0.53602 0.6875 0.0
O1743 O 0.45053 0.58708 0.73528 0.0
C1744 C 0.38961 0.59746 0.71133 0.0
C1745 C 0.47429 0.55835 0.69445 0.0
C1746 C 0.45606 0.5363 0.70918 0.0
N1747 N 0.43869 0.56049 0.71854 0.0
C1748 C 0.45624 0.56702 0.70579 0.0
C1749 C 0.43828 0.54533 0.72027 0.0
C1750 C 0.47419 0.54288 0.6962 0.0
C1751 C 0.32451 0.59704 0.75977 0.0
N1752 N 0.34043 0.60608 0.74851 0.0
C1753 C 0.29087 0.59593 0.75941 0.0
C1754 C 0.27352 0.60418 0.74742 0.0
C1755 C 0.28992 0.61339 0.73599 0.0
C1756 C 0.32358 0.61419 0.73671 0.0
C1757 C 0.36645 0.65155 0.76031 0.0
C1758 C 0.40575 0.63612 0.7378 0.0
C1759 C 0.36708 0.63599 0.76016 0.0
N1760 N 0.38643 0.62848 0.74893 0.0
C1761 C 0.40576 0.65169 0.73759 0.0
C1762 C 0.38592 0.65943 0.74892 0.0
C1763 C 0.45672 0.59955 0.74238 0.0
C1764 C 0.42161 0.55022 0.7806 0.0
C1765 C 0.4632 0.56021 0.75536 0.0
C1766 C 0.47573 0.55301 0.76974 0.0
C1767 C 0.45474 0.54801 0.78244 0.0
N1768 N 0.43068 0.56234 0.75365 0.0
C1769 C 0.40994 0.55743 0.76603 0.0
Co1770 Co 0.35358 0.60715 0.00054 0.0
Co1771 Co 0.32766 0.57305 0.01543 0.0
O1772 O 0.35365 0.58539 0.00019 0.0
C1773 C 0.33855 0.59916 0.96496 0.0
O1774 O 0.31696 0.58995 0.97126 0.0
C1775 C 0.39392 0.56159 0.01927 0.0
O1776 O 0.40368 0.57542 0.02119 0.0
O1777 O 0.34399 0.58405 0.03572 0.0
O1778 O 0.35183 0.6074 0.02613 0.0
H1779 H 0.25181 0.56348 0.06435 0.0
H1780 H 0.40443 0.59104 0.98126 0.0
O1781 O 0.35538 0.60726 0.97495 0.0
H1782 H 0.46264 0.62099 0.02422 0.0
H1783 H 0.38921 0.65789 0.98052 0.0
H1784 H 0.3178 0.6303 0.01985 0.0
H1785 H 0.40324 0.62209 0.02226 0.0
H1786 H 0.38918 0.63038 0.98086 0.0
O1787 O 0.3641 0.5587 0.01731 0.0
H1788 H 0.284 0.57901 0.04468 0.0
H1789 H 0.31754 0.54027 0.019 0.0
H1790 H 0.31723 0.65781 0.02005 0.0
H1791 H 0.46386 0.58969 0.98271 0.0
H1792 H 0.35314 0.67178 0.00028 0.0
H1793 H 0.49335 0.60471 0.00434 0.0
O1794 O 0.30558 0.60767 -0.00047 0.0
H1795 H 0.33884 0.54652 0.95915 0.0
H1796 H 0.26232 0.56381 0.00321 0.0
H1797 H 0.24163 0.551 0.97756 0.0
H1798 H 0.28001 0.54225 0.95531 0.0
H1799 H 0.35847 0.55951 0.98492 0.0
H1800 H 0.2859 0.52431 0.03847 0.0
H1801 H 0.25263 0.53591 0.06131 0.0
O1802 O 0.29051 0.58703 0.01369 0.0
C1803 C 0.35007 0.59782 0.03818 0.0
C1804 C 0.26612 0.55829 0.05442 0.0
C1805 C 0.28529 0.5363 0.03991 0.0
N1806 N 0.30241 0.56056 0.03063 0.0
C1807 C 0.28433 0.56703 0.04322 0.0
C1808 C 0.30321 0.5454 0.02894 0.0
C1809 C 0.26662 0.54283 0.05272 0.0
C1810 C 0.41711 0.59773 0.99059 0.0
N1811 N 0.40039 0.60669 0.0016 0.0
C1812 C 0.45076 0.59687 0.9914 0.0
C1813 C 0.46728 0.60528 0.00356 0.0
C1814 C 0.45006 0.61441 0.01473 0.0
C1815 C 0.41642 0.61496 0.01358 0.0
C1816 C 0.3735 0.65193 0.98922 0.0
C1817 C 0.33363 0.63631 0.01129 0.0
C1818 C 0.37334 0.63636 0.98944 0.0
N1819 N 0.3537 0.62877 0.00047 0.0
C1820 C 0.33314 0.65188 0.01142 0.0
C1821 C 0.35326 0.65972 0.00031 0.0
C1822 C 0.28414 0.59937 0.00636 0.0
C1823 C 0.32188 0.55024 0.96878 0.0
C1824 C 0.27917 0.56007 0.99357 0.0
C1825 C 0.26732 0.55279 0.97909 0.0
C1826 C 0.28887 0.54787 0.96662 0.0
N1827 N 0.31159 0.56237 0.99559 0.0
C1828 C 0.33287 0.55755 0.98344 0.0
Co1829 Co 0.38885 0.14071 0.00028 0.0
Co1830 Co 0.41961 0.17359 0.01596 0.0
O1831 O 0.39221 0.1624 0.00027 0.0
C1832 C 0.40532 0.14876 0.96495 0.0
O1833 O 0.42845 0.15697 0.97151 0.0
C1834 C 0.3554 0.18727 0.01927 0.0
O1835 O 0.34374 0.17378 0.02138 0.0
O1836 O 0.40039 0.16312 0.03582 0.0
O1837 O 0.3905 0.14004 0.0259 0.0
H1838 H 0.49423 0.18002 0.06607 0.0
H1839 H 0.34063 0.15872 0.98133 0.0
O1840 O 0.3871 0.14108 0.97469 0.0
H1841 H 0.27792 0.1301 0.02372 0.0
H1842 H 0.34565 0.09156 0.97928 0.0
H1843 H 0.4209 0.11618 0.01918 0.0
H1844 H 0.33701 0.1271 0.02171 0.0
H1845 H 0.34992 0.11899 0.98012 0.0
O1846 O 0.38562 0.18924 0.01744 0.0
H1847 H 0.46042 0.16585 0.04581 0.0
H1848 H 0.4353 0.20584 0.01996 0.0
H1849 H 0.41721 0.08872 0.01887 0.0
H1850 H 0.28155 0.16199 0.98281 0.0
H1851 H 0.37936 0.07625 0.99881 0.0
H1852 H 0.24981 0.14765 0.00416 0.0
O1853 O 0.43662 0.13871 0.99921 0.0
H1854 H 0.41624 0.20101 0.95994 0.0
H1855 H 0.48701 0.18017 0.00468 0.0
H1856 H 0.51129 0.19233 0.97949 0.0
H1857 H 0.47582 0.20287 0.95691 0.0
H1858 H 0.39296 0.18862 0.98525 0.0
H1859 H 0.46866 0.22047 0.04002 0.0
H1860 H 0.49851 0.20753 0.06323 0.0
O1861 O 0.45428 0.15822 0.01463 0.0
C1862 C 0.39273 0.14949 0.03807 0.0
C1863 C 0.48144 0.18578 0.05597 0.0
C1864 C 0.46705 0.20848 0.04136 0.0
N1865 N 0.44618 0.185 0.03163 0.0
C1866 C 0.46234 0.17781 0.04443 0.0
C1867 C 0.44816 0.20015 0.03006 0.0
C1868 C 0.4838 0.20121 0.05438 0.0
C1869 C 0.32694 0.15233 0.99053 0.0
N1870 N 0.34224 0.14268 0.00136 0.0
C1871 C 0.29351 0.15427 0.99136 0.0
C1872 C 0.27572 0.14624 0.00336 0.0
C1873 C 0.29149 0.13641 0.01435 0.0
C1874 C 0.32496 0.13477 0.01318 0.0
C1875 C 0.36218 0.09687 0.9881 0.0
C1876 C 0.40423 0.11082 0.01049 0.0
C1877 C 0.36474 0.11239 0.98861 0.0
N1878 N 0.38543 0.11916 -0.00021 0.0
C1879 C 0.40232 0.09528 0.01034 0.0
C1880 C 0.3811 0.08828 0.99907 0.0
C1881 C 0.45896 0.14598 0.00672 0.0
C1882 C 0.43194 0.19651 0.96973 0.0
C1883 C 0.47139 0.1847 0.99489 0.0
C1884 C 0.48529 0.1916 0.98068 0.0
C1885 C 0.46538 0.19753 0.96802 0.0
N1886 N 0.43858 0.18374 0.99647 0.0
C1887 C 0.4189 0.18955 0.98413 0.0
H1888 H 0.10396 0.3645 0.19812 0.0
H1889 H 0.09172 0.36425 0.16757 0.0
H1890 H 0.17849 0.33899 0.15797 0.0
H1891 H 0.19056 0.33886 0.18858 0.0
H1892 H 0.12548 0.37532 0.14079 0.0
H1893 H 0.11086 0.3142 0.13366 0.0
H1894 H 0.11269 0.32321 0.15427 0.0
H1895 H 0.14918 0.31942 0.14255 0.0
C1896 C 0.12044 0.35886 0.18953 0.0
C1897 C 0.14819 0.35164 0.19579 0.0
C1898 C 0.11339 0.35873 0.17207 0.0
C1899 C 0.1339 0.3514 0.16054 0.0
C1900 C 0.16192 0.34441 0.1667 0.0
H1901 H 0.14076 0.3643 0.05087 0.0
H1902 H 0.14996 0.36475 0.0817 0.0
C1903 C 0.1689 0.34444 0.18419 0.0
C1904 C 0.12623 0.35134 0.14203 0.0
H1905 H 0.11315 0.32836 0.10794 0.0
C1906 C 0.12263 0.36506 0.13361 0.0
C1907 C 0.12199 0.33793 0.13276 0.0
C1908 C 0.12354 0.32286 0.14129 0.0
C1909 C 0.11553 0.36575 0.11608 0.0
C1910 C 0.11269 0.35235 0.10666 0.0
C1911 C 0.11566 0.33862 0.11515 0.0
C1912 C 0.10679 0.35228 0.08798 0.0
C1913 C 0.11063 0.38082 0.10791 0.0
C1914 C 0.07989 0.34479 0.08122 0.0
C1915 C 0.07474 0.34436 0.06357 0.0
C1916 C 0.09644 0.35142 0.05235 0.0
C1917 C 0.1234 0.35889 0.05916 0.0
C1918 C 0.12861 0.35923 0.0768 0.0
H1919 H 0.10409 0.38942 0.11753 0.0
H1920 H 0.13345 0.38438 0.10168 0.0
H1921 H 0.0914 0.38042 0.09802 0.0
H1922 H 0.06286 0.33928 0.08963 0.0
H1923 H 0.05383 0.33846 0.05873 0.0
H1924 H 0.17696 0.91637 0.05833 0.0
H1925 H 0.16657 0.91433 0.08902 0.0
H1926 H 0.11104 0.87433 0.08038 0.0
H1927 H 0.12053 0.87652 0.04965 0.0
H1928 H 0.08013 0.89297 0.10135 0.0
H1929 H 0.20646 0.88639 0.12337 0.0
H1930 H 0.20069 0.90294 0.11087 0.0
H1931 H 0.19517 0.88493 0.10115 0.0
C1932 C 0.16277 0.90707 0.06298 0.0
C1933 C 0.14967 0.89657 0.05159 0.0
C1934 C 0.15701 0.90587 0.08054 0.0
C1935 C 0.13852 0.89402 0.08702 0.0
C1936 C 0.1255 0.88352 0.07566 0.0
H1937 H 0.12633 0.87252 0.19546 0.0
H1938 H 0.13591 0.87183 0.1646 0.0
C1939 C 0.13096 0.88479 0.05811 0.0
C1940 C 0.13155 0.89291 0.10557 0.0
H1941 H 0.16716 0.89161 0.14489 0.0
C1942 C 0.09916 0.89256 0.11087 0.0
C1943 C 0.15639 0.89214 0.11796 0.0
C1944 C 0.19161 0.89146 0.11306 0.0
C1945 C 0.0909 0.89179 0.12824 0.0
C1946 C 0.11574 0.89178 0.14066 0.0
C1947 C 0.14814 0.89179 0.13536 0.0
C1948 C 0.10871 0.8919 0.15924 0.0
C1949 C 0.05568 0.89079 0.13307 0.0
C1950 C 0.09034 0.90344 0.16647 0.0
C1951 C 0.08452 0.90378 0.18405 0.0
C1952 C 0.09745 0.8927 0.19477 0.0
C1953 C 0.11599 0.88119 0.18753 0.0
C1954 C 0.12153 0.88079 0.16991 0.0
H1955 H 0.04089 0.88628 0.12239 0.0
H1956 H 0.05213 0.8836 0.14447 0.0
H1957 H 0.04652 0.90211 0.13608 0.0
H1958 H 0.08094 0.91235 0.15856 0.0
H1959 H 0.0705 0.9129 0.18927 0.0
H1960 H 0.87591 0.6282 0.80222 0.0
H1961 H 0.88545 0.62731 0.83306 0.0
H1962 H 0.82731 0.66682 0.83965 0.0
H1963 H 0.8168 0.66749 0.80892 0.0
H1964 H 0.91487 0.64668 0.8534 0.0
H1965 H 0.78848 0.64005 0.87519 0.0
H1966 H 0.80005 0.638 0.85308 0.0
H1967 H 0.79371 0.65626 0.86205 0.0
C1968 C 0.86491 0.63662 0.81026 0.0
C1969 C 0.84537 0.64784 0.80316 0.0
C1970 C 0.87042 0.63611 0.82788 0.0
C1971 C 0.85664 0.64684 0.83873 0.0
C1972 C 0.83744 0.65816 0.83162 0.0
H1973 H 0.92401 0.66878 0.94086 0.0
H1974 H 0.91388 0.66763 0.91009 0.0
C1975 C 0.83159 0.65858 0.81403 0.0
C1976 C 0.86338 0.6465 0.85737 0.0
H1977 H 0.82714 0.64655 0.89658 0.0
C1978 C 0.89568 0.64654 0.86285 0.0
C1979 C 0.83837 0.64608 0.8697 0.0
C1980 C 0.80323 0.64493 0.86472 0.0
C1981 C 0.90367 0.64647 0.88029 0.0
C1982 C 0.87864 0.64681 0.89262 0.0
C1983 C 0.84634 0.64647 0.88714 0.0
C1984 C 0.8853 0.64743 0.91126 0.0
C1985 C 0.93884 0.64574 0.8853 0.0
C1986 C 0.87183 0.63672 0.92224 0.0
C1987 C 0.87709 0.6375 0.93987 0.0
C1988 C 0.8961 0.64898 0.94684 0.0
C1989 C 0.90963 0.65968 0.93584 0.0
C1990 C 0.90401 0.65899 0.91823 0.0
H1991 H 0.95382 0.64088 0.87491 0.0
H1992 H 0.94783 0.65719 0.88778 0.0
H1993 H 0.94233 0.63899 0.89705 0.0
H1994 H 0.8572 0.62773 0.91717 0.0
H1995 H 0.86632 0.62909 0.94801 0.0
H1996 H 0.88047 0.12024 0.94628 0.0
H1997 H 0.8897 0.12078 0.91544 0.0
H1998 H 0.83131 0.08127 0.90954 0.0
H1999 H 0.82109 0.08093 0.94034 0.0
H2000 H 0.91885 0.10103 0.89539 0.0
H2001 H 0.79227 0.10796 0.87384 0.0
H2002 H 0.80412 0.11016 0.89589 0.0
H2003 H 0.79775 0.09185 0.8871 0.0
C2004 C 0.86938 0.11172 0.9384 0.0
C2005 C 0.84986 0.10059 0.94571 0.0
C2006 C 0.87471 0.11204 0.92078 0.0
C2007 C 0.86078 0.10121 0.91013 0.0
C2008 C 0.84158 0.08998 0.91743 0.0
H2009 H 0.92745 0.08092 0.80722 0.0
H2010 H 0.91697 0.08107 0.83798 0.0
C2011 C 0.83591 0.08975 0.93505 0.0
C2012 C 0.86735 0.10143 0.89149 0.0
H2013 H 0.83093 0.10201 0.85235 0.0
C2014 C 0.89963 0.10132 0.88598 0.0
C2015 C 0.84227 0.10202 0.87922 0.0
C2016 C 0.80718 0.10316 0.88429 0.0
C2017 C 0.90753 0.10163 0.86853 0.0
C2018 C 0.88243 0.10159 0.85626 0.0
C2019 C 0.85016 0.10187 0.86177 0.0
C2020 C 0.88904 0.10148 0.83762 0.0
C2021 C 0.94269 0.10233 0.86349 0.0
C2022 C 0.87604 0.11265 0.8271 0.0
C2023 C 0.88153 0.11245 0.80948 0.0
C2024 C 0.90028 0.10111 0.80206 0.0
C2025 C 0.91328 0.08992 0.8126 0.0
C2026 C 0.90744 0.09003 0.8302 0.0
H2027 H 0.95789 0.10679 0.87402 0.0
H2028 H 0.95137 0.09092 0.8605 0.0
H2029 H 0.94624 0.10942 0.85201 0.0
H2030 H 0.86165 0.12156 0.83254 0.0
H2031 H 0.87115 0.12122 0.8017 0.0
H2032 H 0.17918 0.82878 0.68974 0.0
H2033 H 0.16826 0.8295 0.659 0.0
H2034 H 0.11541 0.87057 0.66544 0.0
H2035 H 0.12539 0.8697 0.69619 0.0
H2036 H 0.08299 0.85141 0.64571 0.0
H2037 H 0.20949 0.85536 0.62298 0.0
H2038 H 0.20253 0.83944 0.63637 0.0
H2039 H 0.19858 0.85791 0.64512 0.0
C2040 C 0.16547 0.83803 0.68457 0.0
C2041 C 0.15326 0.84922 0.69536 0.0
C2042 C 0.15939 0.83847 0.667 0.0
C2043 C 0.14149 0.85023 0.65988 0.0
C2044 C 0.12937 0.86142 0.67065 0.0
H2045 H 0.1293 0.87086 0.55168 0.0
H2046 H 0.13969 0.87096 0.58245 0.0
C2047 C 0.13513 0.86091 0.68822 0.0
C2048 C 0.13433 0.85065 0.64131 0.0
H2049 H 0.16945 0.85053 0.60184 0.0
C2050 C 0.1019 0.85129 0.63611 0.0
C2051 C 0.15903 0.85069 0.62882 0.0
C2052 C 0.19436 0.85097 0.63358 0.0
C2053 C 0.09346 0.85181 0.61875 0.0
C2054 C 0.11812 0.85126 0.60624 0.0
C2055 C 0.15056 0.8508 0.61144 0.0
C2056 C 0.11088 0.85135 0.58768 0.0
C2057 C 0.05825 0.85328 0.61402 0.0
C2058 C 0.09133 0.84024 0.58039 0.0
C2059 C 0.08503 0.84026 0.56284 0.0
C2060 C 0.09863 0.85124 0.55223 0.0
C2061 C 0.11843 0.86226 0.55953 0.0
C2062 C 0.12444 0.86232 0.5771 0.0
H2063 H 0.04382 0.85797 0.62473 0.0
H2064 H 0.05507 0.86053 0.60264 0.0
H2065 H 0.04838 0.84209 0.611 0.0
H2066 H 0.08131 0.83144 0.58824 0.0
H2067 H 0.07002 0.8315 0.55756 0.0
H2068 H 0.12467 0.38066 0.55242 0.0
H2069 H 0.11355 0.38068 0.58311 0.0
H2070 H 0.16617 0.42193 0.58852 0.0
H2071 H 0.17826 0.42175 0.55792 0.0
H2072 H 0.18143 0.40281 0.61338 0.0
H2073 H 0.04828 0.406 0.60774 0.0
H2074 H 0.06481 0.39024 0.59668 0.0
H2075 H 0.07479 0.40881 0.58972 0.0
C2076 C 0.13388 0.38974 0.56015 0.0
C2077 C 0.15226 0.40123 0.55275 0.0
C2078 C 0.12728 0.38979 0.57766 0.0
C2079 C 0.1384 0.40148 0.58804 0.0
C2080 C 0.15718 0.41285 0.58073 0.0
H2081 H 0.06926 0.41905 0.69125 0.0
H2082 H 0.08084 0.41996 0.66058 0.0
C2083 C 0.1641 0.41272 0.56324 0.0
C2084 C 0.13107 0.4017 0.6066 0.0
H2085 H 0.06921 0.40042 0.63543 0.0
C2086 C 0.15689 0.40237 0.61821 0.0
C2087 C 0.09901 0.4014 0.61288 0.0
C2088 C 0.07013 0.40173 0.6011 0.0
C2089 C 0.15157 0.40245 0.63592 0.0
C2090 C 0.11959 0.40139 0.6422 0.0
C2091 C 0.09373 0.40103 0.6306 0.0
C2092 C 0.1124 0.40071 0.66076 0.0
C2093 C 0.18028 0.40394 0.6477 0.0
C2094 C 0.12582 0.38944 0.67097 0.0
C2095 C 0.11952 0.38899 0.6885 0.0
C2096 C 0.09917 0.39964 0.69609 0.0
C2097 C 0.08501 0.41068 0.68577 0.0
C2098 C 0.09162 0.41122 0.66825 0.0
H2099 H 0.20118 0.40916 0.64109 0.0
H2100 H 0.17426 0.41072 0.65914 0.0
H2101 H 0.18788 0.3927 0.65203 0.0
H2102 H 0.14116 0.38096 0.66539 0.0
H2103 H 0.13052 0.38025 0.69609 0.0
H2104 H 0.88847 0.13458 0.3005 0.0
H2105 H 0.89805 0.13421 0.33129 0.0
H2106 H 0.8108 0.1595 0.33946 0.0
H2107 H 0.80141 0.16027 0.30858 0.0
H2108 H 0.86086 0.17059 0.35755 0.0
H2109 H 0.85346 0.10955 0.36745 0.0
H2110 H 0.88254 0.11461 0.35147 0.0
H2111 H 0.84038 0.1184 0.34792 0.0
C2112 C 0.87114 0.13996 0.30884 0.0
C2113 C 0.84406 0.14738 0.30209 0.0
C2114 C 0.87657 0.13966 0.32645 0.0
C2115 C 0.85483 0.14658 0.33769 0.0
C2116 C 0.82778 0.15401 0.33101 0.0
H2117 H 0.85606 0.13464 0.44798 0.0
H2118 H 0.84278 0.13459 0.41755 0.0
C2119 C 0.82242 0.15441 0.31337 0.0
C2120 C 0.86105 0.1466 0.35636 0.0
H2121 H 0.87556 0.1238 0.39044 0.0
C2122 C 0.86386 0.16036 0.36477 0.0
C2123 C 0.86452 0.13325 0.3658 0.0
C2124 C 0.85974 0.11812 0.35774 0.0
C2125 C 0.87072 0.16114 0.38232 0.0
C2126 C 0.87569 0.14779 0.3916 0.0
C2127 C 0.87218 0.13402 0.38326 0.0
C2128 C 0.88409 0.14783 0.41002 0.0
C2129 C 0.87204 0.17625 0.39079 0.0
C2130 C 0.91202 0.15511 0.41586 0.0
C2131 C 0.91958 0.15526 0.43328 0.0
C2132 C 0.89958 0.14793 0.44513 0.0
C2133 C 0.87201 0.14038 0.43919 0.0
C2134 C 0.86436 0.14034 0.4218 0.0
H2135 H 0.85868 0.18477 0.38329 0.0
H2136 H 0.86177 0.17584 0.4039 0.0
H2137 H 0.89758 0.17991 0.39172 0.0
H2138 H 0.92803 0.16065 0.40694 0.0
H2139 H 0.94109 0.1611 0.43743 0.0
H2140 H 0.92427 0.57819 0.30757 0.0
H2141 H 0.91318 0.57801 0.33829 0.0
H2142 H 0.85718 0.61831 0.33302 0.0
H2143 H 0.86728 0.6183 0.30223 0.0
H2144 H 0.92747 0.59732 0.36302 0.0
H2145 H 0.7945 0.59218 0.35826 0.0
H2146 H 0.82074 0.58977 0.34006 0.0
H2147 H 0.80962 0.60819 0.34708 0.0
C2148 C 0.90959 0.58702 0.31296 0.0
C2149 C 0.89647 0.59822 0.30247 0.0
C2150 C 0.90324 0.58689 0.33051 0.0
C2151 C 0.88379 0.59797 0.33792 0.0
C2152 C 0.87145 0.6094 0.32753 0.0
H2153 H 0.87694 0.6188 0.44633 0.0
H2154 H 0.88727 0.61836 0.41557 0.0
C2155 C 0.87745 0.60944 0.30995 0.0
C2156 C 0.87692 0.5977 0.35655 0.0
H2157 H 0.81566 0.59813 0.38578 0.0
C2158 C 0.90302 0.59742 0.368 0.0
C2159 C 0.845 0.59756 0.36304 0.0
C2160 C 0.81587 0.59678 0.35147 0.0
C2161 C 0.89811 0.59727 0.38576 0.0
C2162 C 0.86622 0.59787 0.39225 0.0
C2163 C 0.84011 0.59787 0.3808 0.0
C2164 C 0.85936 0.59836 0.41088 0.0
C2165 C 0.92718 0.59616 0.39734 0.0
C2166 C 0.83915 0.58761 0.41838 0.0
C2167 C 0.83268 0.58801 0.43592 0.0
C2168 C 0.84642 0.59913 0.44629 0.0
C2169 C 0.86626 0.61 0.43871 0.0
C2170 C 0.8724 0.6097 0.42115 0.0
H2171 H 0.94824 0.59122 0.39059 0.0
H2172 H 0.93418 0.60751 0.40162 0.0
H2173 H 0.92186 0.5893 0.40882 0.0
H2174 H 0.82867 0.57881 0.41069 0.0
H2175 H 0.81735 0.57945 0.44139 0.0
H2176 H 0.5677 0.33061 0.55793 0.0
H2177 H 0.57779 0.33078 0.58873 0.0
H2178 H 0.63655 0.37021 0.58315 0.0
H2179 H 0.62748 0.36982 0.55228 0.0
H2180 H 0.66561 0.35034 0.60295 0.0
H2181 H 0.5392 0.35709 0.62481 0.0
H2182 H 0.54447 0.34106 0.61139 0.0
H2183 H 0.55087 0.35944 0.60275 0.0
C2184 C 0.58251 0.3394 0.56329 0.0
C2185 C 0.59667 0.35024 0.55271 0.0
C2186 C 0.58813 0.33952 0.58091 0.0
C2187 C 0.60745 0.35066 0.5883 0.0
C2188 C 0.62147 0.36154 0.57774 0.0
H2189 H 0.61817 0.36969 0.69685 0.0
H2190 H 0.60844 0.37014 0.66605 0.0
C2191 C 0.61622 0.36131 0.56011 0.0
C2192 C 0.61412 0.3507 0.60694 0.0
H2193 H 0.57793 0.35078 0.64614 0.0
C2194 C 0.64643 0.35052 0.6124 0.0
C2195 C 0.58911 0.35113 0.61926 0.0
C2196 C 0.55399 0.35235 0.61427 0.0
C2197 C 0.65444 0.35062 0.62983 0.0
C2198 C 0.62941 0.35042 0.64215 0.0
C2199 C 0.5971 0.35076 0.63669 0.0
C2200 C 0.63611 0.35019 0.66078 0.0
C2201 C 0.68963 0.35129 0.63483 0.0
C2202 C 0.65475 0.33876 0.66809 0.0
C2203 C 0.66074 0.33859 0.68568 0.0
C2204 C 0.64764 0.34968 0.69631 0.0
C2205 C 0.62861 0.36098 0.689 0.0
C2206 C 0.62299 0.36125 0.6714 0.0
H2207 H 0.70476 0.35586 0.62433 0.0
H2208 H 0.69323 0.35827 0.64639 0.0
H2209 H 0.69835 0.33985 0.63765 0.0
H2210 H 0.66437 0.32988 0.66023 0.0
H2211 H 0.67514 0.32962 0.69098 0.0
H2212 H 0.64588 0.88746 0.69952 0.0
H2213 H 0.65683 0.88711 0.66884 0.0
H2214 H 0.56947 0.91203 0.65959 0.0
H2215 H 0.55864 0.91274 0.69033 0.0
H2216 H 0.62154 0.8754 0.64278 0.0
H2217 H 0.63634 0.93636 0.63382 0.0
H2218 H 0.63551 0.92776 0.65468 0.0
H2219 H 0.59847 0.93128 0.64336 0.0
C2220 C 0.62899 0.8929 0.69098 0.0
C2221 C 0.60142 0.90017 0.69738 0.0
C2222 C 0.6353 0.89269 0.67345 0.0
C2223 C 0.61425 0.89974 0.66196 0.0
C2224 C 0.58643 0.90681 0.66826 0.0
H2225 H 0.60504 0.88453 0.55262 0.0
H2226 H 0.59583 0.88506 0.58345 0.0
C2227 C 0.58015 0.9071 0.68583 0.0
C2228 C 0.62116 0.89941 0.64337 0.0
H2229 H 0.63377 0.92163 0.60857 0.0
C2230 C 0.62433 0.88551 0.6353 0.0
C2231 C 0.62529 0.9126 0.63371 0.0
C2232 C 0.62406 0.92785 0.64184 0.0
C2233 C 0.63099 0.88443 0.61776 0.0
C2234 C 0.63387 0.89763 0.60796 0.0
C2235 C 0.63125 0.91153 0.61608 0.0
C2236 C 0.63957 0.89726 0.58926 0.0
C2237 C 0.63543 0.86918 0.60995 0.0
C2238 C 0.6668 0.9043 0.58224 0.0
C2239 C 0.67199 0.90416 0.56458 0.0
C2240 C 0.65 0.89698 0.55363 0.0
C2241 C 0.62264 0.89003 0.56071 0.0
C2242 C 0.6174 0.89025 0.57834 0.0
H2243 H 0.64172 0.86072 0.61978 0.0
H2244 H 0.61251 0.86566 0.60381 0.0
H2245 H 0.65465 0.86929 0.60006 0.0
H2246 H 0.6841 0.90986 0.59044 0.0
H2247 H 0.69322 0.90968 0.55953 0.0
H2248 H 0.30356 0.66325 0.3098 0.0
H2249 H 0.31469 0.66281 0.34051 0.0
H2250 H 0.39991 0.6363 0.33148 0.0
H2251 H 0.38859 0.63636 0.30084 0.0
H2252 H 0.36454 0.62564 0.35793 0.0
H2253 H 0.38345 0.68649 0.36548 0.0
H2254 H 0.34503 0.68182 0.35629 0.0
H2255 H 0.38155 0.67758 0.34481 0.0
C2256 C 0.32466 0.65732 0.31434 0.0
C2257 C 0.34522 0.64986 0.30287 0.0
C2258 C 0.33112 0.65718 0.33189 0.0
C2259 C 0.35845 0.64975 0.33825 0.0
C2260 C 0.37877 0.64216 0.32684 0.0
H2261 H 0.43986 0.66052 0.43999 0.0
H2262 H 0.43 0.6603 0.40914 0.0
C2263 C 0.37225 0.64221 0.30932 0.0
C2264 C 0.36564 0.64962 0.35681 0.0
H2265 H 0.38022 0.67223 0.39107 0.0
C2266 C 0.36808 0.63582 0.36517 0.0
C2267 C 0.37076 0.66291 0.36617 0.0
C2268 C 0.3704 0.67804 0.35772 0.0
C2269 C 0.37501 0.63494 0.38271 0.0
C2270 C 0.37887 0.64825 0.3922 0.0
C2271 C 0.37694 0.66205 0.38379 0.0
C2272 C 0.38499 0.64812 0.41088 0.0
C2273 C 0.37871 0.61976 0.3908 0.0
C2274 C 0.36279 0.64148 0.42209 0.0
C2275 C 0.36847 0.64148 0.43969 0.0
C2276 C 0.39628 0.6483 0.44644 0.0
C2277 C 0.41828 0.65511 0.4352 0.0
C2278 C 0.41267 0.65502 0.41757 0.0
H2279 H 0.3844 0.61108 0.38113 0.0
H2280 H 0.39808 0.61979 0.40062 0.0
H2281 H 0.35569 0.61661 0.3971 0.0
H2282 H 0.34088 0.63641 0.41724 0.0
H2283 H 0.35086 0.63626 0.44801 0.0
H2284 H 0.39593 0.11413 0.4488 0.0
H2285 H 0.40553 0.11492 0.41802 0.0
H2286 H 0.31779 0.09011 0.40936 0.0
H2287 H 0.30836 0.08893 0.44022 0.0
H2288 H 0.36788 0.07927 0.39082 0.0
H2289 H 0.36039 0.14057 0.38284 0.0
H2290 H 0.38959 0.13501 0.39854 0.0
H2291 H 0.34744 0.13125 0.4021 0.0
C2292 C 0.37853 0.10892 0.44036 0.0
C2293 C 0.35125 0.10155 0.44695 0.0
C2294 C 0.38398 0.10946 0.42275 0.0
C2295 C 0.36206 0.10282 0.41139 0.0
C2296 C 0.3349 0.09539 0.41792 0.0
H2297 H 0.3563 0.1168 0.30176 0.0
H2298 H 0.34581 0.11639 0.33248 0.0
C2299 C 0.32952 0.09475 0.43555 0.0
C2300 C 0.36801 0.10322 0.39271 0.0
H2301 H 0.38092 0.12681 0.35915 0.0
C2302 C 0.37058 0.08966 0.38387 0.0
C2303 C 0.37111 0.1168 0.38364 0.0
C2304 C 0.36667 0.13173 0.39222 0.0
C2305 C 0.37665 0.08929 0.36623 0.0
C2306 C 0.38104 0.10286 0.35729 0.0
C2307 C 0.37796 0.11642 0.36608 0.0
C2308 C 0.38801 0.10324 0.33871 0.0
C2309 C 0.37765 0.07438 0.35729 0.0
C2310 C 0.41555 0.0962 0.33205 0.0
C2311 C 0.42153 0.09631 0.31447 0.0
C2312 C 0.40028 0.10366 0.30326 0.0
C2313 C 0.37316 0.11104 0.31003 0.0
C2314 C 0.36711 0.11082 0.32759 0.0
H2315 H 0.36509 0.06561 0.36481 0.0
H2316 H 0.36635 0.07504 0.34444 0.0
H2317 H 0.40318 0.07089 0.35568 0.0
H2318 H 0.43242 0.09059 0.34046 0.0
H2319 H 0.44271 0.0906 0.30966 0.0
H2320 H 0.68001 0.83327 0.1908 0.0
H2321 H 0.66931 0.83402 0.16008 0.0
H2322 H 0.61085 0.87339 0.16693 0.0
H2323 H 0.62059 0.87244 0.19774 0.0
H2324 H 0.5813 0.85382 0.14681 0.0
H2325 H 0.70719 0.86101 0.12438 0.0
H2326 H 0.70239 0.84479 0.13755 0.0
H2327 H 0.69595 0.86302 0.14655 0.0
C2328 C 0.66513 0.84218 0.18574 0.0
C2329 C 0.65127 0.85284 0.19667 0.0
C2330 C 0.65917 0.84264 0.16816 0.0
C2331 C 0.63977 0.85393 0.16115 0.0
C2332 C 0.62601 0.86462 0.17205 0.0
H2333 H 0.62728 0.87259 0.05229 0.0
H2334 H 0.63699 0.87363 0.08309 0.0
C2335 C 0.63164 0.86407 0.18965 0.0
C2336 C 0.6327 0.85427 0.14255 0.0
H2337 H 0.66818 0.8546 0.10316 0.0
C2338 C 0.60029 0.85409 0.13726 0.0
C2339 C 0.65747 0.85484 0.1301 0.0
C2340 C 0.69267 0.85608 0.13492 0.0
C2341 C 0.59197 0.85422 0.11986 0.0
C2342 C 0.61677 0.85409 0.10741 0.0
C2343 C 0.64917 0.85452 0.11271 0.0
C2344 C 0.60975 0.85364 0.08882 0.0
C2345 C 0.55669 0.8548 0.11505 0.0
C2346 C 0.59131 0.84202 0.08177 0.0
C2347 C 0.58536 0.84151 0.06419 0.0
C2348 C 0.59828 0.85245 0.0533 0.0
C2349 C 0.61698 0.864 0.06035 0.0
C2350 C 0.62258 0.8646 0.07795 0.0
H2351 H 0.54175 0.85944 0.12558 0.0
H2352 H 0.55282 0.86169 0.10343 0.0
H2353 H 0.54799 0.84333 0.1124 0.0
H2354 H 0.58191 0.83322 0.08983 0.0
H2355 H 0.57122 0.83236 0.0591 0.0
H2356 H 0.69443 0.41183 0.05938 0.0
H2357 H 0.68469 0.41074 0.09022 0.0
H2358 H 0.59877 0.38462 0.08151 0.0
H2359 H 0.60866 0.38534 0.05075 0.0
H2360 H 0.63328 0.42099 0.10848 0.0
H2361 H 0.64555 0.35991 0.11709 0.0
H2362 H 0.65814 0.36932 0.09781 0.0
H2363 H 0.61623 0.3649 0.1012 0.0
C2364 C 0.67361 0.40574 0.06404 0.0
C2365 C 0.65248 0.39856 0.05262 0.0
C2366 C 0.66805 0.40516 0.08165 0.0
C2367 C 0.64131 0.39739 0.08817 0.0
C2368 C 0.62 0.39036 0.07679 0.0
H2369 H 0.55822 0.40855 0.18956 0.0
H2370 H 0.56911 0.40881 0.15882 0.0
C2371 C 0.62561 0.39086 0.0592 0.0
C2372 C 0.63516 0.39704 0.10683 0.0
H2373 H 0.62386 0.37349 0.1406 0.0
C2374 C 0.63137 0.41061 0.11553 0.0
C2375 C 0.63307 0.38349 0.11603 0.0
C2376 C 0.63878 0.36858 0.1076 0.0
C2377 C 0.62506 0.41101 0.13315 0.0
C2378 C 0.62174 0.39744 0.14222 0.0
C2379 C 0.62603 0.38387 0.13357 0.0
C2380 C 0.61463 0.39706 0.16079 0.0
C2381 C 0.62264 0.42595 0.14193 0.0
C2382 C 0.63608 0.38995 0.17203 0.0
C2383 C 0.62973 0.3896 0.18955 0.0
C2384 C 0.60175 0.39636 0.19618 0.0
C2385 C 0.58006 0.40331 0.18487 0.0
C2386 C 0.58636 0.40356 0.16731 0.0
H2387 H 0.63442 0.4349 0.13435 0.0
H2388 H 0.5968 0.42894 0.14348 0.0
H2389 H 0.63391 0.42561 0.15481 0.0
H2390 H 0.65796 0.3848 0.16725 0.0
H2391 H 0.64695 0.38416 0.19791 0.0
H2392 H 0.32083 0.17125 0.8078 0.0
H2393 H 0.33193 0.17148 0.83854 0.0
H2394 H 0.38509 0.13034 0.83363 0.0
H2395 H 0.37498 0.13027 0.80287 0.0
H2396 H 0.31664 0.15235 0.86357 0.0
H2397 H 0.44975 0.15604 0.8582 0.0
H2398 H 0.42333 0.15871 0.84012 0.0
H2399 H 0.43368 0.14019 0.84711 0.0
C2400 C 0.33487 0.16225 0.81328 0.0
C2401 C 0.34724 0.1508 0.80291 0.0
C2402 C 0.34122 0.16241 0.83083 0.0
C2403 C 0.35993 0.1511 0.83832 0.0
C2404 C 0.37142 0.13941 0.82806 0.0
H2405 H 0.36776 0.12967 0.94637 0.0
H2406 H 0.35671 0.13052 0.91569 0.0
C2407 C 0.36542 0.13933 0.81049 0.0
C2408 C 0.36706 0.1514 0.85689 0.0
H2409 H 0.42875 0.15018 0.88581 0.0
C2410 C 0.34116 0.15197 0.86845 0.0
C2411 C 0.39909 0.15118 0.86323 0.0
C2412 C 0.42805 0.15166 0.85152 0.0
C2413 C 0.34636 0.15199 0.88618 0.0
C2414 C 0.37832 0.15099 0.89251 0.0
C2415 C 0.40424 0.15075 0.88095 0.0
C2416 C 0.38548 0.15028 0.91107 0.0
C2417 C 0.31757 0.15336 0.89791 0.0
C2418 C 0.40636 0.16074 0.91855 0.0
C2419 C 0.41323 0.16011 0.93603 0.0
C2420 C 0.39922 0.14903 0.94634 0.0
C2421 C 0.37868 0.13843 0.93878 0.0
C2422 C 0.37213 0.13897 0.92127 0.0
H2423 H 0.29667 0.15858 0.89131 0.0
H2424 H 0.31005 0.14208 0.90215 0.0
H2425 H 0.32346 0.1601 0.90941 0.0
H2426 H 0.41708 0.16951 0.9109 0.0
H2427 H 0.42909 0.16846 0.94149 0.0
H2428 H 0.36969 0.61988 0.80234 0.0
H2429 H 0.35983 0.62058 0.83313 0.0
H2430 H 0.41545 0.58028 0.83942 0.0
H2431 H 0.42622 0.57974 0.80869 0.0
H2432 H 0.32875 0.60095 0.85283 0.0
H2433 H 0.45491 0.60653 0.87558 0.0
H2434 H 0.44384 0.60901 0.85345 0.0
H2435 H 0.4491 0.59058 0.86211 0.0
C2436 C 0.38008 0.61124 0.8103 0.0
C2437 C 0.39892 0.59981 0.8031 0.0
C2438 C 0.37439 0.61165 0.82789 0.0
C2439 C 0.3873 0.60062 0.83863 0.0
C2440 C 0.40595 0.58913 0.83146 0.0
H2441 H 0.31711 0.57968 0.94061 0.0
H2442 H 0.32849 0.58021 0.90994 0.0
C2443 C 0.41195 0.58879 0.81387 0.0
C2444 C 0.38013 0.60085 0.85721 0.0
H2445 H 0.41528 0.60079 0.89668 0.0
C2446 C 0.34768 0.60099 0.86243 0.0
C2447 C 0.40482 0.60113 0.86971 0.0
C2448 C 0.44011 0.60196 0.86495 0.0
C2449 C 0.33922 0.60119 0.8798 0.0
C2450 C 0.36391 0.60082 0.8923 0.0
C2451 C 0.39637 0.6009 0.88709 0.0
C2452 C 0.35668 0.60053 0.91087 0.0
C2453 C 0.30395 0.60209 0.88455 0.0
C2454 C 0.36947 0.61154 0.92167 0.0
C2455 C 0.36341 0.61115 0.93924 0.0
C2456 C 0.34432 0.59975 0.94633 0.0
C2457 C 0.33154 0.58872 0.9355 0.0
C2458 C 0.3379 0.58904 0.91795 0.0
H2459 H 0.2892 0.60672 0.87394 0.0
H2460 H 0.29482 0.59072 0.88737 0.0
H2461 H 0.30029 0.60913 0.89607 0.0
H2462 H 0.38414 0.62047 0.9165 0.0
H2463 H 0.37364 0.6198 0.94724 0.0
H2464 H 0.96174 0.18751 0.23454 0.0
H2465 H 0.99806 0.20837 0.24107 0.0
H2466 H 0.917 0.23855 0.24113 0.0
H2467 H 0.88064 0.21793 0.23474 0.0
H2468 H 0.00768 0.23597 0.22288 0.0
H2469 H 0.95958 0.24479 0.28839 0.0
H2470 H 0.95231 0.22793 0.27639 0.0
H2471 H 0.92936 0.24448 0.27191 0.0
C2472 C 0.95172 0.19861 0.23582 0.0
C2473 C 0.91832 0.20106 0.23424 0.0
C2474 C 0.97245 0.21048 0.23958 0.0
C2475 C 0.96001 0.22489 0.2419 0.0
C2476 C 0.9269 0.22744 0.23975 0.0
H2477 H 0.03727 0.31225 0.26524 0.0
H2478 H 0.00256 0.29076 0.25905 0.0
C2479 C 0.90621 0.21564 0.23601 0.0
C2480 C 0.98148 0.23737 0.24659 0.0
H2481 H 0.99502 0.2634 0.2776 0.0
C2482 C 0.00514 0.24191 0.23488 0.0
C2483 C 0.97788 0.24508 0.26225 0.0
C2484 C 0.95361 0.24027 0.27555 0.0
C2485 C 0.02493 0.25425 0.23826 0.0
C2486 C 0.02118 0.26203 0.25388 0.0
C2487 C 0.99765 0.25742 0.26563 0.0
C2488 C 0.04184 0.27486 0.25833 0.0
C2489 C 0.04915 0.25909 0.22495 0.0
C2490 C 0.07516 0.27289 0.26041 0.0
C2491 C 0.09495 0.28506 0.26394 0.0
C2492 C 0.08173 0.29944 0.26558 0.0
C2493 C 0.04815 0.30132 0.26406 0.0
C2494 C 0.02833 0.28909 0.26049 0.0
H2495 H 0.04354 0.25434 0.21217 0.0
H2496 H 0.04994 0.27143 0.22389 0.0
H2497 H 0.07353 0.25515 0.22874 0.0
H2498 H 0.08589 0.26193 0.25914 0.0
H2499 H 0.1207 0.2832 0.26517 0.0
H2500 H 0.17512 0.9458 0.24623 0.0
H2501 H 0.21117 0.96661 0.24003 0.0
H2502 H 0.19579 0.98395 0.29084 0.0
H2503 H 0.16005 0.96294 0.29729 0.0
H2504 H 0.19339 0.99604 0.24006 0.0
H2505 H 0.29363 0.98608 0.28587 0.0
H2506 H 0.26405 0.97198 0.28075 0.0
H2507 H 0.25422 0.98671 0.29544 0.0
C2508 C 0.1798 0.9539 0.2562 0.0
C2509 C 0.16475 0.95275 0.27226 0.0
C2510 C 0.20033 0.96581 0.25261 0.0
C2511 C 0.20621 0.97677 0.26499 0.0
C2512 C 0.19196 0.97546 0.28121 0.0
H2513 H 0.28352 0.06516 0.24107 0.0
H2514 H 0.24743 0.04455 0.24869 0.0
C2515 C 0.17154 0.96346 0.28487 0.0
C2516 C 0.22579 0.98997 0.26046 0.0
H2517 H 0.29467 0.00885 0.27054 0.0
C2518 C 0.21556 0.99886 0.2467 0.0
C2519 C 0.25472 0.99353 0.26912 0.0
C2520 C 0.26754 0.98402 0.28352 0.0
C2521 C 0.23368 0.01118 0.24125 0.0
C2522 C 0.26241 0.01484 0.25005 0.0
C2523 C 0.2725 0.00603 0.2639 0.0
C2524 C 0.2833 0.02734 0.24464 0.0
C2525 C 0.22243 0.01987 0.22584 0.0
C2526 C 0.31536 0.02447 0.23993 0.0
C2527 C 0.336 0.03617 0.23573 0.0
C2528 C 0.32494 0.05098 0.23614 0.0
C2529 C 0.29258 0.05384 0.24046 0.0
C2530 C 0.27195 0.04209 0.2448 0.0
H2531 H 0.20456 0.0135 0.21816 0.0
H2532 H 0.2107 0.03033 0.23016 0.0
H2533 H 0.2431 0.02288 0.21748 0.0
H2534 H 0.32453 0.01316 0.2397 0.0
H2535 H 0.3608 0.03361 0.23242 0.0
H2536 H 0.11344 0.96731 0.98216 0.0
H2537 H 0.07629 0.98764 0.98838 0.0
H2538 H 0.99655 0.95671 0.98901 0.0
H2539 H 0.0338 0.93609 0.98298 0.0
H2540 H 0.02116 0.99762 0.97056 0.0
H2541 H 0.99205 0.97754 0.03611 0.0
H2542 H 0.02583 0.97044 0.024 0.0
H2543 H 0.98553 0.96439 0.01911 0.0
C2544 C 0.08799 0.96479 0.98352 0.0
C2545 C 0.07656 0.95006 0.9822 0.0
C2546 C 0.06681 0.97644 0.98705 0.0
C2547 C 0.03385 0.97362 0.9894 0.0
C2548 C 0.02206 0.95903 0.9875 0.0
H2549 H 0.87673 0.03241 0.01696 0.0
H2550 H 0.9108 0.01108 0.00997 0.0
C2551 C 0.0433 0.94731 0.98393 0.0
C2552 C 0.01222 0.98602 0.99419 0.0
H2553 H 0.96573 0.99942 0.02678 0.0
C2554 C 0.00895 0.99802 0.98283 0.0
C2555 C 0.99653 0.98648 0.01024 0.0
C2556 C 0.00026 0.9741 0.02317 0.0
C2557 C 0.99019 0.01049 0.98705 0.0
C2558 C 0.97482 0.01103 0.00318 0.0
C2559 C 0.97776 0.99896 0.01447 0.0
C2560 C 0.95492 0.02391 0.0084 0.0
C2561 C 0.98657 0.02289 0.97414 0.0
C2562 C 0.96871 0.03811 0.01028 0.0
C2563 C 0.94931 0.05038 0.01429 0.0
C2564 C 0.91586 0.04856 0.01652 0.0
C2565 C 0.90241 0.0342 0.01524 0.0
C2566 C 0.9218 0.02199 0.01126 0.0
H2567 H 0.99352 0.01923 0.96107 0.0
H2568 H 0.9613 0.02704 0.9738 0.0
H2569 H 0.00247 0.03232 0.97781 0.0
H2570 H 0.9944 0.03974 0.00841 0.0
H2571 H 0.96037 0.06129 0.0152 0.0
H2572 H 0.28939 0.18713 0.01682 0.0
H2573 H 0.25428 0.20845 0.01057 0.0
H2574 H 0.33701 0.23766 0.01069 0.0
H2575 H 0.37224 0.21654 0.0168 0.0
H2576 H 0.24615 0.2361 0.02885 0.0
H2577 H 0.29497 0.24435 0.96331 0.0
H2578 H 0.30137 0.22742 0.97534 0.0
H2579 H 0.32481 0.24379 0.97998 0.0
C2580 C 0.30005 0.19812 0.01567 0.0
C2581 C 0.33359 0.20014 0.01718 0.0
C2582 C 0.28 0.21025 0.01207 0.0
C2583 C 0.29325 0.22452 0.00986 0.0
C2584 C 0.3265 0.22666 0.012 0.0
H2585 H 0.21245 0.31123 0.9844 0.0
H2586 H 0.24882 0.29049 0.99126 0.0
C2587 C 0.34653 0.21458 0.01558 0.0
C2588 C 0.27241 0.2372 0.00514 0.0
H2589 H 0.25864 0.2627 0.97357 0.0
C2590 C 0.24874 0.2419 0.01675 0.0
C2591 C 0.2761 0.24473 0.98936 0.0
C2592 C 0.30049 0.23977 0.97619 0.0
C2593 C 0.22878 0.2541 0.01308 0.0
C2594 C 0.23234 0.26157 0.99726 0.0
C2595 C 0.25613 0.25693 0.98569 0.0
C2596 C 0.21083 0.27395 0.99232 0.0
C2597 C 0.20436 0.25904 0.02624 0.0
C2598 C 0.17773 0.27134 0.99018 0.0
C2599 C 0.15701 0.28307 0.98625 0.0
C2600 C 0.16907 0.29764 0.98428 0.0
C2601 C 0.20246 0.30013 0.98582 0.0
C2602 C 0.22322 0.28834 0.98978 0.0
H2603 H 0.21027 0.2547 0.03918 0.0
H2604 H 0.20294 0.27139 0.02685 0.0
H2605 H 0.18018 0.25473 0.02263 0.0
H2606 H 0.16788 0.26023 0.99173 0.0
H2607 H 0.13144 0.28075 0.98502 0.0
H2608 H 0.95772 0.68862 0.73565 0.0
H2609 H 0.99276 0.70992 0.74219 0.0
H2610 H 0.91061 0.7394 0.73982 0.0
H2611 H 0.87547 0.7183 0.73348 0.0
H2612 H 0.00338 0.73681 0.72375 0.0
H2613 H 0.94877 0.74735 0.78751 0.0
H2614 H 0.94245 0.73022 0.77586 0.0
H2615 H 0.92034 0.74674 0.77018 0.0
C2616 C 0.9472 0.69966 0.73637 0.0
C2617 C 0.91382 0.70177 0.73418 0.0
C2618 C 0.96719 0.71178 0.74016 0.0
C2619 C 0.95406 0.72613 0.74183 0.0
C2620 C 0.92102 0.72834 0.73898 0.0
H2621 H 0.03655 0.81328 0.76445 0.0
H2622 H -0.0005 0.79262 0.75815 0.0
C2623 C 0.90104 0.71627 0.73525 0.0
C2624 C 0.97481 0.73885 0.74662 0.0
H2625 H 0.98627 0.76532 0.77741 0.0
C2626 C -0.00023 0.74302 0.7355 0.0
C2627 C 0.96982 0.74692 0.76194 0.0
C2628 C 0.94409 0.74253 0.77466 0.0
C2629 C 0.01974 0.75521 0.73921 0.0
C2630 C 0.01484 0.76324 0.75456 0.0
C2631 C 0.98978 0.75914 0.76563 0.0
C2632 C 0.03639 0.77558 0.75957 0.0
C2633 C 0.0457 0.75953 0.72659 0.0
C2634 C 0.06898 0.77268 0.76299 0.0
C2635 C 0.09005 0.78436 0.7666 0.0
C2636 C 0.07886 0.79917 0.76695 0.0
C2637 C 0.04585 0.80199 0.76428 0.0
C2638 C 0.02472 0.79024 0.76064 0.0
H2639 H 0.04117 0.7547 0.71373 0.0
H2640 H 0.04745 0.77184 0.72539 0.0
H2641 H 0.06934 0.7553 0.73119 0.0
H2642 H 0.07823 0.76139 0.76255 0.0
H2643 H 0.11528 0.78178 0.76876 0.0
H2644 H 0.62609 0.97021 0.76811 0.0
H2645 H 0.66109 0.99127 0.76131 0.0
H2646 H 0.74361 0.96196 0.7601 0.0
H2647 H 0.70875 0.94072 0.76709 0.0
H2648 H 0.75376 0.98951 0.77755 0.0
H2649 H 0.69945 0.9977 0.71325 0.0
H2650 H 0.67099 0.99753 0.73059 0.0
H2651 H 0.6934 0.98093 0.72562 0.0
C2652 C 0.65172 0.96823 0.76653 0.0
C2653 C 0.66465 0.95378 0.76802 0.0
C2654 C 0.67162 0.98027 0.76255 0.0
C2655 C 0.70472 0.97807 0.75985 0.0
C2656 C 0.718 0.96381 0.76201 0.0
H2657 H 0.86572 0.03326 0.73083 0.0
H2658 H 0.82905 0.01294 0.73798 0.0
C2659 C 0.6981 0.95172 0.76605 0.0
C2660 C 0.72534 0.99068 0.75455 0.0
H2661 H 0.73695 0.01598 0.7225 0.0
C2662 C 0.7502 0.99528 0.76551 0.0
C2663 C 0.72045 0.99816 0.73883 0.0
C2664 C 0.69482 0.99328 0.7263 0.0
C2665 C 0.77016 0.00734 0.76124 0.0
C2666 C 0.76537 0.01477 0.74549 0.0
C2667 C 0.7404 0.01024 0.73458 0.0
C2668 C 0.78679 0.027 0.73995 0.0
C2669 C 0.79596 0.01216 0.7737 0.0
C2670 C 0.77477 0.04152 0.73798 0.0
C2671 C 0.79567 0.05322 0.73378 0.0
C2672 C 0.8288 0.05048 0.73144 0.0
C2673 C 0.84037 0.03577 0.73269 0.0
C2674 C 0.81952 0.02414 0.73686 0.0
H2675 H 0.7913 0.00783 0.78678 0.0
H2676 H 0.81967 0.00778 0.7694 0.0
H2677 H 0.79767 0.02451 0.77428 0.0
H2678 H 0.74945 0.04387 0.7402 0.0
H2679 H 0.78606 0.06443 0.73293 0.0
H2680 H 0.71205 0.81382 0.98573 0.0
H2681 H 0.74813 0.793 0.9926 0.0
H2682 H 0.66837 0.7623 0.98818 0.0
H2683 H 0.6322 0.78293 0.9815 0.0
H2684 H 0.70315 0.75964 0.01875 0.0
H2685 H 0.78403 0.75954 0.96201 0.0
H2686 H 0.77987 0.77724 0.97254 0.0
H2687 H 0.74553 0.769 0.96217 0.0
C2688 C 0.70235 0.8026 0.98591 0.0
C2689 C 0.6693 0.80001 0.98309 0.0
C2690 C 0.72297 0.79073 0.98982 0.0
C2691 C 0.71086 0.77614 0.99079 0.0
C2692 C 0.67811 0.7735 0.9875 0.0
H2693 H 0.78723 0.68899 0.01685 0.0
H2694 H 0.75186 0.71024 0.0108 0.0
C2695 C 0.65752 0.78531 0.98366 0.0
C2696 C 0.73174 0.76365 0.9962 0.0
H2697 H 0.79806 0.74345 0.98482 0.0
C2698 C 0.72388 0.75606 0.01134 0.0
C2699 C 0.75871 0.75907 0.98647 0.0
C2700 C 0.76749 0.76653 0.96981 0.0
C2701 C 0.74257 0.74405 0.01714 0.0
C2702 C 0.76946 0.73943 0.00738 0.0
C2703 C 0.77739 0.74706 0.99227 0.0
C2704 C 0.78992 0.72673 0.01256 0.0
C2705 C 0.73374 0.73658 0.03378 0.0
C2706 C 0.82289 0.729 0.01558 0.0
C2707 C 0.84309 0.71694 0.01895 0.0
C2708 C 0.83068 0.70235 0.01929 0.0
C2709 C 0.79741 0.70012 0.01682 0.0
C2710 C 0.77719 0.71223 0.01339 0.0
H2711 H 0.7177 0.7437 0.04171 0.0
H2712 H 0.72074 0.72603 0.03103 0.0
H2713 H 0.7557 0.73383 0.0413 0.0
H2714 H 0.83312 0.74011 0.01499 0.0
H2715 H 0.86861 0.71903 0.02084 0.0
H2716 H 0.36092 0.53141 0.73135 0.0
H2717 H 0.32416 0.511 0.73796 0.0
H2718 H 0.24527 0.54215 0.74245 0.0
H2719 H 0.28198 0.56278 0.73567 0.0
H2720 H 0.28884 0.50871 0.76871 0.0
H2721 H 0.20901 0.50874 0.7115 0.0
H2722 H 0.24789 0.51787 0.71172 0.0
H2723 H 0.21386 0.52641 0.72205 0.0
C2724 C 0.33567 0.53395 0.73352 0.0
C2725 C 0.32433 0.54872 0.733 0.0
C2726 C 0.31474 0.52226 0.73732 0.0
C2727 C 0.28207 0.52508 0.74061 0.0
C2728 C 0.27037 0.53975 0.73969 0.0
H2729 H 0.12511 0.46646 0.76939 0.0
H2730 H 0.15932 0.488 0.76352 0.0
C2731 C 0.29135 0.5515 0.73584 0.0
C2732 C 0.26088 0.51268 0.74594 0.0
H2733 H 0.19531 0.49222 0.73389 0.0
C2734 C 0.26837 0.50508 0.76112 0.0
C2735 C 0.23423 0.50806 0.73599 0.0
C2736 C 0.22579 0.51559 0.71933 0.0
C2737 C 0.24977 0.49296 0.76669 0.0
C2738 C 0.22337 0.48821 0.75663 0.0
C2739 C 0.21565 0.49592 0.74154 0.0
C2740 C 0.20343 0.47521 0.76144 0.0
C2741 C 0.25825 0.48549 0.78338 0.0
C2742 C 0.21704 0.4609 0.76237 0.0
C2743 C 0.19757 0.44852 0.7658 0.0
C2744 C 0.16415 0.4503 0.7682 0.0
C2745 C 0.15077 0.4647 0.76759 0.0
C2746 C 0.17024 0.47703 0.76421 0.0
H2747 H 0.27345 0.49277 0.79159 0.0
H2748 H 0.23614 0.48238 0.79059 0.0
H2749 H 0.27207 0.47515 0.78071 0.0
H2750 H 0.24255 0.45925 0.75996 0.0
H2751 H 0.20851 0.43756 0.76603 0.0
H2752 H 0.8741 0.53203 0.5189 0.0
H2753 H 0.90877 0.51061 0.51323 0.0
H2754 H 0.99168 0.53962 0.5104 0.0
H2755 H 0.95718 0.5612 0.51627 0.0
H2756 H 0.94575 0.50654 0.4839 0.0
H2757 H 0.02202 0.50613 0.54229 0.0
H2758 H 0.98458 0.51639 0.54098 0.0
H2759 H 0.02071 0.52378 0.53145 0.0
C2760 C 0.89978 0.53387 0.51729 0.0
C2761 C 0.91294 0.54832 0.51806 0.0
C2762 C 0.91951 0.52161 0.51403 0.0
C2763 C 0.95275 0.52353 0.51155 0.0
C2764 C 0.96613 0.53789 0.5126 0.0
H2765 H 0.11216 0.46837 0.48224 0.0
H2766 H 0.07468 0.48845 0.48896 0.0
C2767 C 0.94639 0.5502 0.51591 0.0
C2768 C 0.97302 0.5106 0.50689 0.0
H2769 H 0.03845 0.49032 0.5195 0.0
C2770 C 0.9659 0.5029 0.49172 0.0
C2771 C -0.00084 0.50592 0.51718 0.0
C2772 C 0.00697 0.51338 0.53397 0.0
C2773 C 0.98486 0.49084 0.4863 0.0
C2774 C 0.01128 0.4863 0.49646 0.0
C2775 C 0.01814 0.49388 0.51174 0.0
C2776 C 0.03298 0.47407 0.49122 0.0
C2777 C 0.9771 0.48333 0.46954 0.0
C2778 C 0.02176 0.45933 0.49008 0.0
C2779 C 0.04317 0.44775 0.48617 0.0
C2780 C 0.07609 0.45079 0.48348 0.0
C2781 C 0.08697 0.46563 0.48428 0.0
C2782 C 0.06563 0.47714 0.48814 0.0
H2783 H 0.96032 0.49009 0.46161 0.0
H2784 H -0.00052 0.48123 0.46209 0.0
H2785 H 0.96546 0.47241 0.4721 0.0
H2786 H 0.99668 0.45674 0.49267 0.0
H2787 H 0.03414 0.43642 0.48579 0.0
H2788 H 0.37046 0.71755 0.51644 0.0
H2789 H 0.33603 0.739 0.51054 0.0
H2790 H 0.25227 0.71041 0.50999 0.0
H2791 H 0.28653 0.68881 0.51609 0.0
H2792 H 0.29724 0.74262 0.48173 0.0
H2793 H 0.22483 0.74473 0.54145 0.0
H2794 H 0.26193 0.73424 0.53977 0.0
H2795 H 0.22505 0.72686 0.53108 0.0
C2796 C 0.34466 0.71581 0.51527 0.0
C2797 C 0.33118 0.70147 0.51677 0.0
C2798 C 0.32507 0.7281 0.51188 0.0
C2799 C 0.29165 0.72629 0.50999 0.0
C2800 C 0.27798 0.71205 0.51172 0.0
H2801 H 0.13278 0.78295 0.48255 0.0
H2802 H 0.16927 0.76237 0.48895 0.0
C2803 C 0.29759 0.69973 0.51516 0.0
C2804 C 0.27142 0.73923 0.50533 0.0
H2805 H 0.20765 0.7603 0.51863 0.0
C2806 C 0.27776 0.74657 0.48983 0.0
C2807 C 0.24612 0.74431 0.51596 0.0
C2808 C 0.23918 0.73723 0.53307 0.0
C2809 C 0.2589 0.75868 0.48446 0.0
C2810 C 0.2334 0.76365 0.49501 0.0
C2811 C 0.22724 0.7564 0.51058 0.0
C2812 C 0.21214 0.77612 0.48998 0.0
C2813 C 0.26583 0.76581 0.46737 0.0
C2814 C 0.22432 0.79065 0.4883 0.0
C2815 C 0.2035 0.80249 0.48457 0.0
C2816 C 0.1702 0.79994 0.48262 0.0
C2817 C 0.1583 0.7853 0.484 0.0
C2818 C 0.17907 0.77352 0.48768 0.0
H2819 H 0.28144 0.75866 0.45923 0.0
H2820 H 0.24304 0.76815 0.46038 0.0
H2821 H 0.27848 0.77656 0.46944 0.0
H2822 H 0.24974 0.79288 0.4903 0.0
H2823 H 0.21334 0.81366 0.48373 0.0
H2824 H 0.86488 0.53059 0.22799 0.0
H2825 H 0.82807 0.51004 0.23397 0.0
H2826 H 0.74856 0.54093 0.23752 0.0
H2827 H 0.78529 0.5617 0.2314 0.0
H2828 H 0.79177 0.50807 0.26457 0.0
H2829 H 0.71369 0.50702 0.20669 0.0
H2830 H 0.75253 0.51619 0.20704 0.0
H2831 H 0.71817 0.52486 0.21691 0.0
C2832 C 0.83948 0.53303 0.22977 0.0
C2833 C 0.82797 0.54778 0.22925 0.0
C2834 C 0.81852 0.52126 0.23321 0.0
C2835 C 0.78567 0.52398 0.23611 0.0
C2836 C 0.7738 0.53861 0.23506 0.0
H2837 H 0.62823 0.46578 0.26533 0.0
H2838 H 0.66243 0.48716 0.25866 0.0
C2839 C 0.7948 0.55045 0.23157 0.0
C2840 C 0.76452 0.51157 0.24145 0.0
H2841 H 0.69939 0.49085 0.22934 0.0
C2842 C 0.77158 0.50426 0.25687 0.0
C2843 C 0.7382 0.50675 0.23139 0.0
C2844 C 0.73021 0.51401 0.21451 0.0
C2845 C 0.75283 0.49225 0.26259 0.0
C2846 C 0.72675 0.48728 0.25242 0.0
C2847 C 0.71949 0.49469 0.23707 0.0
C2848 C 0.70666 0.47439 0.25743 0.0
C2849 C 0.76077 0.48514 0.27956 0.0
C2850 C 0.72033 0.46013 0.25904 0.0
C2851 C 0.70087 0.44786 0.26295 0.0
C2852 C 0.66742 0.44967 0.26514 0.0
C2853 C 0.65394 0.46401 0.26373 0.0
C2854 C 0.67339 0.47624 0.25988 0.0
H2855 H 0.7756 0.49263 0.28772 0.0
H2856 H 0.73843 0.48214 0.28663 0.0
H2857 H 0.77479 0.47478 0.27732 0.0
H2858 H 0.7459 0.45844 0.25687 0.0
H2859 H 0.71191 0.43693 0.26377 0.0
H2860 H 0.62585 0.28039 0.48403 0.0
H2861 H 0.66075 0.25934 0.49103 0.0
H2862 H 0.74365 0.28845 0.49107 0.0
H2863 H 0.70883 0.30972 0.48425 0.0
H2864 H 0.71514 0.24789 0.47353 0.0
H2865 H 0.74579 0.2683 0.53862 0.0
H2866 H 0.71267 0.27581 0.52631 0.0
H2867 H 0.75343 0.28135 0.52166 0.0
C2868 C 0.65154 0.28234 0.48543 0.0
C2869 C 0.66459 0.29674 0.48368 0.0
C2870 C 0.6714 0.27029 0.48943 0.0
C2871 C 0.70459 0.27242 0.49184 0.0
C2872 C 0.71793 0.28667 0.48955 0.0
H2873 H 0.86673 0.21722 0.51548 0.0
H2874 H 0.82838 0.23726 0.51 0.0
C2875 C 0.69807 0.29876 0.48552 0.0
C2876 C 0.72511 0.25971 0.49689 0.0
H2877 H 0.77384 0.24688 0.52884 0.0
C2878 C 0.72786 0.2476 0.48565 0.0
C2879 C 0.7414 0.25939 0.51277 0.0
C2880 C 0.73804 0.27184 0.52564 0.0
C2881 C 0.74738 0.23531 0.48965 0.0
C2882 C 0.76401 0.23508 0.50544 0.0
C2883 C 0.76091 0.24711 0.51677 0.0
C2884 C 0.78642 0.2229 0.50992 0.0
C2885 C 0.75087 0.2229 0.47675 0.0
C2886 C 0.77531 0.20824 0.51213 0.0
C2887 C 0.79722 0.19669 0.51527 0.0
C2888 C 0.83049 0.1997 0.51627 0.0
C2889 C 0.84127 0.21451 0.51468 0.0
C2890 C 0.81942 0.22599 0.51158 0.0
H2891 H 0.74172 0.22618 0.46394 0.0
H2892 H 0.77654 0.21948 0.4755 0.0
H2893 H 0.73685 0.21307 0.48113 0.0
H2894 H 0.7498 0.20571 0.51116 0.0
H2895 H 0.78821 0.1854 0.51645 0.0
H2896 H 0.38588 0.21767 0.72995 0.0
H2897 H 0.42249 0.2381 0.73674 0.0
H2898 H 0.50109 0.20692 0.74225 0.0
H2899 H 0.46455 0.18628 0.73531 0.0
H2900 H 0.45671 0.2405 0.76785 0.0
H2901 H 0.53862 0.24016 0.71147 0.0
H2902 H 0.49969 0.23107 0.71135 0.0
H2903 H 0.5333 0.22253 0.72204 0.0
C2904 C 0.41105 0.21513 0.73237 0.0
C2905 C 0.42235 0.20034 0.7321 0.0
C2906 C 0.43189 0.22683 0.73627 0.0
C2907 C 0.46443 0.22401 0.73991 0.0
C2908 C 0.4761 0.20932 0.73922 0.0
H2909 H 0.62114 0.28219 0.76996 0.0
H2910 H 0.58671 0.26078 0.76387 0.0
C2911 C 0.45521 0.19756 0.73527 0.0
C2912 C 0.48548 0.23641 0.74538 0.0
H2913 H 0.55173 0.25667 0.73397 0.0
C2914 C 0.4775 0.24407 0.76046 0.0
C2915 C 0.51255 0.24094 0.73571 0.0
C2916 C 0.52153 0.23335 0.71916 0.0
C2917 C 0.49604 0.25615 0.76619 0.0
C2918 C 0.5229 0.2608 0.75641 0.0
C2919 C 0.53106 0.25305 0.74142 0.0
C2920 C 0.5429 0.27373 0.76142 0.0
C2921 C 0.48704 0.26367 0.78278 0.0
C2922 C 0.52952 0.28809 0.76223 0.0
C2923 C 0.54912 0.3004 0.7658 0.0
C2924 C 0.58243 0.2985 0.76844 0.0
C2925 C 0.59556 0.28404 0.76797 0.0
C2926 C 0.57597 0.27178 0.76446 0.0
H2927 H 0.47144 0.25644 0.79084 0.0
H2928 H 0.50892 0.26672 0.79021 0.0
H2929 H 0.47346 0.27404 0.77994 0.0
H2930 H 0.50411 0.28984 0.75961 0.0
H2931 H 0.53837 0.31141 0.76592 0.0
H2932 H 0.46465 0.06169 0.51637 0.0
H2933 H 0.50088 0.04083 0.50977 0.0
H2934 H 0.41966 0.01074 0.50938 0.0
H2935 H 0.38336 0.03137 0.51584 0.0
H2936 H 0.51041 0.01296 0.52756 0.0
H2937 H 0.46212 0.00513 0.46191 0.0
H2938 H 0.45505 0.02185 0.47423 0.0
H2939 H 0.43195 0.00528 0.47842 0.0
C2940 C 0.45457 0.05061 0.51504 0.0
C2941 C 0.42113 0.04819 0.5165 0.0
C2942 C 0.47526 0.03874 0.51123 0.0
C2943 C 0.46275 0.02436 0.50877 0.0
C2944 C 0.42961 0.02183 0.51088 0.0
H2945 H 0.53809 0.93714 0.48402 0.0
H2946 H 0.50414 0.95879 0.49051 0.0
C2947 C 0.40896 0.03364 0.51466 0.0
C2948 C 0.48413 0.01192 0.50385 0.0
H2949 H 0.49742 0.98633 0.47234 0.0
C2950 C 0.50781 0.00719 0.51545 0.0
C2951 C 0.48048 0.00445 0.48804 0.0
C2952 C 0.45623 0.00949 0.47484 0.0
C2953 C 0.5275 0.99486 0.51182 0.0
C2954 C 0.52364 0.98731 0.49607 0.0
C2955 C 0.50015 0.99213 0.48442 0.0
C2956 C 0.54394 0.97441 0.49143 0.0
C2957 C 0.55169 0.9898 0.52503 0.0
C2958 C 0.57732 0.97617 0.48938 0.0
C2959 C 0.59671 0.96389 0.48566 0.0
C2960 C 0.58299 0.94963 0.48383 0.0
C2961 C 0.54936 0.94797 0.48534 0.0
C2962 C 0.52996 0.9603 0.48908 0.0
H2963 H 0.54628 0.99445 0.53788 0.0
H2964 H 0.5522 0.97744 0.52593 0.0
H2965 H 0.57614 0.99364 0.52124 0.0
H2966 H 0.58842 0.98704 0.4908 0.0
H2967 H 0.62252 0.96557 0.48447 0.0
H2968 H 0.61951 0.78183 0.26398 0.0
H2969 H 0.58398 0.7609 0.25751 0.0
H2970 H 0.50179 0.79043 0.25744 0.0
H2971 H 0.53722 0.81156 0.26409 0.0
H2972 H 0.49259 0.76305 0.27544 0.0
H2973 H 0.54244 0.75406 0.21029 0.0
H2974 H 0.57211 0.7544 0.22704 0.0
H2975 H 0.5494 0.77096 0.22228 0.0
C2976 C 0.59385 0.78391 0.26267 0.0
C2977 C 0.58117 0.79838 0.26444 0.0
C2978 C 0.57365 0.77194 0.25888 0.0
C2979 C 0.54045 0.77421 0.25666 0.0
C2980 C 0.52746 0.78852 0.25898 0.0
H2981 H 0.37813 0.71825 0.23172 0.0
H2982 H 0.41487 0.73877 0.23793 0.0
C2983 C 0.54769 0.80055 0.26282 0.0
C2984 C 0.51938 0.7616 0.25192 0.0
H2985 H 0.50589 0.73578 0.22064 0.0
C2986 C 0.49535 0.75712 0.26344 0.0
C2987 C 0.52327 0.75389 0.23627 0.0
C2988 C 0.548 0.75862 0.22317 0.0
C2989 C 0.47526 0.74494 0.25982 0.0
C2990 C 0.47907 0.73727 0.24415 0.0
C2991 C 0.50319 0.7417 0.23265 0.0
C2992 C 0.45749 0.72489 0.23929 0.0
C2993 C 0.45043 0.74024 0.27288 0.0
C2994 C 0.46962 0.71038 0.23733 0.0
C2995 C 0.44868 0.69857 0.23367 0.0
C2996 C 0.41537 0.70116 0.23187 0.0
C2997 C 0.40362 0.71584 0.23318 0.0
C2998 C 0.42452 0.72758 0.2368 0.0
H2999 H 0.45596 0.74479 0.28577 0.0
H3000 H 0.42637 0.7445 0.26897 0.0
H3001 H 0.44894 0.7279 0.27375 0.0
H3002 H 0.49513 0.70815 0.23909 0.0
H3003 H 0.45843 0.68739 0.23276 0.0
H3004 H 0.61961 0.46909 0.98257 0.0
H3005 H 0.58372 0.48985 0.98919 0.0
H3006 H 0.50273 0.45967 0.99143 0.0
H3007 H 0.53864 0.43867 0.98497 0.0
H3008 H 0.52706 0.50007 0.97216 0.0
H3009 H 0.50328 0.48089 0.03862 0.0
H3010 H 0.53602 0.47362 0.02585 0.0
H3011 H 0.49537 0.46744 0.0221 0.0
C3012 C 0.59413 0.46684 0.98436 0.0
C3013 C 0.58196 0.45222 0.98337 0.0
C3014 C 0.57369 0.47872 0.98811 0.0
C3015 C 0.54079 0.47621 0.99105 0.0
C3016 C 0.52824 0.46174 0.98946 0.0
H3017 H 0.381 0.53188 0.01868 0.0
H3018 H 0.41829 0.51162 0.01239 0.0
C3019 C 0.5487 0.4498 0.98565 0.0
C3020 C 0.51993 0.48878 0.99615 0.0
H3021 H 0.47479 0.50222 0.02921 0.0
C3022 C 0.51565 0.50059 0.98463 0.0
C3023 C 0.50539 0.48939 0.01249 0.0
C3024 C 0.51037 0.47723 0.02557 0.0
C3025 C 0.49648 0.51293 0.98889 0.0
C3026 C 0.48183 0.51351 0.00521 0.0
C3027 C 0.48626 0.50173 0.01675 0.0
C3028 C 0.46022 0.52586 0.01016 0.0
C3029 C 0.49134 0.52502 0.97575 0.0
C3030 C 0.47174 0.54054 0.01145 0.0
C3031 C 0.45043 0.55222 0.01506 0.0
C3032 C 0.41738 0.54932 0.01744 0.0
C3033 C 0.40629 0.53451 0.0168 0.0
C3034 C 0.42754 0.5229 0.01323 0.0
H3035 H 0.49861 0.52137 0.96273 0.0
H3036 H 0.46561 0.52851 0.9754 0.0
H3037 H 0.50609 0.5349 0.97922 0.0
H3038 H 0.49707 0.54298 0.0094 0.0
H3039 H 0.45966 0.56352 0.01547 0.0
H3040 H 0.18284 0.38277 0.44482 0.0
H3041 H 0.17877 0.37443 0.41513 0.0
H3042 H 0.09191 0.40058 0.40891 0.0
H3043 H 0.09777 0.40988 0.43825 0.0
H3044 H 0.13914 0.35889 0.39884 0.0
H3045 H 0.13749 0.41445 0.36808 0.0
H3046 H 0.14525 0.41215 0.39057 0.0
H3047 H 0.10438 0.4122 0.38257 0.0
C3048 C 0.16308 0.38679 0.43699 0.0
C3049 C 0.1408 0.39704 0.44357 0.0
C3050 C 0.16066 0.38201 0.42006 0.0
C3051 C 0.1354 0.3871 0.40955 0.0
C3052 C 0.11233 0.39692 0.41646 0.0
H3053 H 0.10401 0.33904 0.31279 0.0
H3054 H 0.09852 0.34814 0.34221 0.0
C3055 C 0.11543 0.40211 0.43324 0.0
C3056 C 0.1333 0.38189 0.39151 0.0
H3057 H 0.12572 0.39378 0.35024 0.0
C3058 C 0.13643 0.36656 0.38821 0.0
C3059 C 0.1301 0.39186 0.37755 0.0
C3060 C 0.12947 0.40858 0.37985 0.0
C3061 C 0.13721 0.36095 0.37147 0.0
C3062 C 0.13272 0.37085 0.35755 0.0
C3063 C 0.12888 0.38614 0.36086 0.0
C3064 C 0.13393 0.36579 0.33943 0.0
C3065 C 0.14441 0.34458 0.369 0.0
C3066 C 0.15407 0.37321 0.32772 0.0
C3067 C 0.15605 0.36844 0.31077 0.0
C3068 C 0.13854 0.35594 0.30531 0.0
C3069 C 0.11806 0.3486 0.31685 0.0
C3070 C 0.11521 0.3537 0.33368 0.0
H3071 H 0.15726 0.33982 0.38022 0.0
H3072 H 0.12138 0.33838 0.36755 0.0
H3073 H 0.15948 0.34265 0.35747 0.0
H3074 H 0.16874 0.38258 0.33174 0.0
H3075 H 0.17209 0.37423 0.30206 0.0
H3076 H 0.10809 0.9158 0.31434 0.0
H3077 H 0.11211 0.90801 0.34424 0.0
H3078 H 0.12331 0.86229 0.32834 0.0
H3079 H 0.11943 0.86986 0.29845 0.0
H3080 H 0.07281 0.86841 0.35348 0.0
H3081 H 0.19245 0.89197 0.37143 0.0
H3082 H 0.165 0.90424 0.36048 0.0
H3083 H 0.18119 0.88836 0.34949 0.0
C3084 C 0.11181 0.90411 0.31716 0.0
C3085 C 0.11343 0.89347 0.30394 0.0
C3086 C 0.11422 0.8997 0.33426 0.0
C3087 C 0.11829 0.88461 0.33843 0.0
C3088 C 0.12034 0.87401 0.32533 0.0
H3089 H 0.11106 0.83231 0.43151 0.0
H3090 H 0.11533 0.84096 0.40201 0.0
C3091 C 0.1181 0.87838 0.30825 0.0
C3092 C 0.11829 0.87972 0.35647 0.0
H3093 H 0.16152 0.88108 0.39359 0.0
C3094 C 0.09223 0.87112 0.36226 0.0
C3095 C 0.14355 0.88342 0.36784 0.0
C3096 C 0.17232 0.89242 0.36206 0.0
C3097 C 0.09055 0.8662 0.37925 0.0
C3098 C 0.11609 0.86967 0.39061 0.0
C3099 C 0.14208 0.87838 0.38483 0.0
C3100 C 0.11603 0.8644 0.40855 0.0
C3101 C 0.06105 0.85765 0.38497 0.0
C3102 C 0.11648 0.87469 0.42205 0.0
C3103 C 0.11444 0.86979 0.43897 0.0
C3104 C 0.11189 0.85448 0.4427 0.0
C3105 C 0.11264 0.84418 0.42913 0.0
C3106 C 0.11489 0.8491 0.41224 0.0
H3107 H 0.04019 0.85956 0.3763 0.0
H3108 H 0.06654 0.84554 0.38486 0.0
H3109 H 0.05387 0.86083 0.39815 0.0
H3110 H 0.11758 0.88655 0.41947 0.0
H3111 H 0.11408 0.87804 0.44909 0.0
H3112 H 0.14485 0.83196 0.81713 0.0
H3113 H 0.1399 0.84165 0.84626 0.0
H3114 H 0.13179 0.88636 0.82653 0.0
H3115 H 0.13661 0.8769 0.79739 0.0
H3116 H 0.18032 0.8814 0.85316 0.0
H3117 H 0.05841 0.8601 0.87036 0.0
H3118 H 0.08576 0.84684 0.86095 0.0
H3119 H 0.07149 0.86228 0.84846 0.0
C3120 C 0.1417 0.84385 0.81894 0.0
C3121 C 0.14114 0.85364 0.80487 0.0
C3122 C 0.13874 0.84934 0.83559 0.0
C3123 C 0.13519 0.86469 0.83847 0.0
C3124 C 0.13435 0.87447 0.82452 0.0
H3125 H 0.14199 0.91914 0.93096 0.0
H3126 H 0.13833 0.9107 0.90129 0.0
C3127 C 0.13711 0.86901 0.80787 0.0
C3128 C 0.1342 0.87065 0.85608 0.0
H3129 H 0.08903 0.87118 0.89255 0.0
C3130 C 0.16031 0.87927 0.86178 0.0
C3131 C 0.10809 0.86774 0.86721 0.0
C3132 C 0.07917 0.85883 0.86148 0.0
C3133 C 0.16141 0.8848 0.87854 0.0
C3134 C 0.13523 0.88195 0.88972 0.0
C3135 C 0.10898 0.8734 0.88394 0.0
C3136 C 0.13524 0.88726 0.90766 0.0
C3137 C 0.19109 0.89321 0.88427 0.0
C3138 C 0.13334 0.87693 0.92108 0.0
C3139 C 0.13498 0.88171 0.93804 0.0
C3140 C 0.1386 0.89695 0.94193 0.0
C3141 C 0.1395 0.90732 0.92844 0.0
C3142 C 0.13762 0.90251 0.91146 0.0
H3143 H 0.21208 0.89103 0.87578 0.0
H3144 H 0.18602 0.90536 0.88392 0.0
H3145 H 0.19785 0.89016 0.89756 0.0
H3146 H 0.13132 0.86511 0.91843 0.0
H3147 H 0.13407 0.87339 0.94807 0.0
H3148 H 0.11895 0.3699 0.79761 0.0
H3149 H 0.12433 0.36014 0.82665 0.0
H3150 H 0.11162 0.40437 0.84709 0.0
H3151 H 0.1061 0.41433 0.81813 0.0
H3152 H 0.1655 0.38527 0.86168 0.0
H3153 H 0.04393 0.3587 0.86031 0.0
H3154 H 0.07028 0.35516 0.84246 0.0
H3155 H 0.05501 0.37362 0.84595 0.0
C3156 C 0.11749 0.37761 0.80824 0.0
C3157 C 0.11186 0.39291 0.8055 0.0
C3158 C 0.12053 0.37199 0.82482 0.0
C3159 C 0.11808 0.38154 0.83893 0.0
C3160 C 0.11351 0.39685 0.8363 0.0
H3161 H 0.11966 0.37452 0.94876 0.0
H3162 H 0.12489 0.38236 0.91906 0.0
C3163 C 0.11031 0.4025 0.81974 0.0
C3164 C 0.11908 0.37549 0.85649 0.0
H3165 H 0.075 0.35534 0.88517 0.0
C3166 C 0.14582 0.37869 0.86685 0.0
C3167 C 0.09338 0.36687 0.86307 0.0
C3168 C 0.06385 0.36341 0.85248 0.0
C3169 C 0.14759 0.37342 0.88374 0.0
C3170 C 0.12151 0.36506 0.89048 0.0
C3171 C 0.09498 0.36172 0.87998 0.0
C3172 C 0.12053 0.36013 0.90856 0.0
C3173 C 0.17753 0.37668 0.89408 0.0
C3174 C 0.11572 0.34503 0.91255 0.0
C3175 C 0.11223 0.3405 0.92955 0.0
C3176 C 0.11345 0.35101 0.9429 0.0
C3177 C 0.11879 0.3661 0.93885 0.0
C3178 C 0.12205 0.37061 0.92185 0.0
H3179 H 0.1987 0.37883 0.8857 0.0
H3180 H 0.17341 0.38681 0.90191 0.0
H3181 H 0.18343 0.3673 0.9028 0.0
H3182 H 0.11426 0.33677 0.90248 0.0
H3183 H 0.10814 0.3288 0.93218 0.0
H3184 H 0.85501 0.66964 0.68276 0.0
H3185 H 0.85991 0.66155 0.65305 0.0
H3186 H 0.86747 0.61582 0.6696 0.0
H3187 H 0.86351 0.62379 0.69937 0.0
H3188 H 0.91017 0.6223 0.64402 0.0
H3189 H 0.78733 0.64198 0.62667 0.0
H3190 H 0.81287 0.65632 0.63521 0.0
H3191 H 0.80101 0.64091 0.64853 0.0
C3192 C 0.85788 0.65786 0.68012 0.0
C3193 C 0.85856 0.64736 0.69349 0.0
C3194 C 0.86048 0.65325 0.6631 0.0
C3195 C 0.86332 0.63805 0.65909 0.0
C3196 C 0.86508 0.6276 0.6724 0.0
H3197 H 0.85605 0.5836 0.56815 0.0
H3198 H 0.86119 0.59328 0.59724 0.0
C3199 C 0.86275 0.63219 0.68943 0.0
C3200 C 0.8639 0.63298 0.64104 0.0
H3201 H 0.81993 0.63291 0.60409 0.0
C3202 C 0.89044 0.62461 0.63529 0.0
C3203 C 0.83805 0.63595 0.62969 0.0
C3204 C 0.80806 0.64415 0.63534 0.0
C3205 C 0.89191 0.61924 0.61843 0.0
C3206 C 0.86611 0.62225 0.60713 0.0
C3207 C 0.83975 0.63071 0.61281 0.0
C3208 C 0.86542 0.61634 0.58947 0.0
C3209 C 0.92111 0.61048 0.61277 0.0
C3210 C 0.86597 0.62613 0.57551 0.0
C3211 C 0.86311 0.62066 0.55884 0.0
C3212 C 0.85921 0.60528 0.55586 0.0
C3213 C 0.85907 0.59549 0.56994 0.0
C3214 C 0.86215 0.60098 0.58658 0.0
H3215 H 0.94173 0.61186 0.62172 0.0
H3216 H 0.91481 0.59846 0.61224 0.0
H3217 H 0.92885 0.61397 0.59978 0.0
H3218 H 0.86829 0.63803 0.57752 0.0
H3219 H 0.86328 0.62854 0.54835 0.0
H3220 H 0.88283 0.12834 0.69961 0.0
H3221 H 0.87972 0.13748 0.67024 0.0
H3222 H 0.89051 0.09261 0.65134 0.0
H3223 H 0.89383 0.08328 0.68068 0.0
H3224 H 0.93096 0.13214 0.64464 0.0
H3225 H 0.8103 0.11067 0.62529 0.0
H3226 H 0.82158 0.11335 0.64741 0.0
H3227 H 0.83685 0.09765 0.63573 0.0
C3228 C 0.88423 0.12035 0.68925 0.0
C3229 C 0.88863 0.10505 0.69255 0.0
C3230 C 0.88246 0.12562 0.67248 0.0
C3231 C 0.88464 0.1157 0.6587 0.0
C3232 C 0.88838 0.10041 0.66186 0.0
H3233 H 0.88996 0.12333 0.54884 0.0
H3234 H 0.88622 0.11519 0.57853 0.0
C3235 C 0.89038 0.09512 0.67864 0.0
C3236 C 0.88496 0.12145 0.64099 0.0
H3237 H 0.84252 0.12152 0.6036 0.0
C3238 C 0.91157 0.12992 0.63566 0.0
C3239 C 0.85969 0.11841 0.62938 0.0
C3240 C 0.83031 0.10961 0.63468 0.0
C3241 C 0.91398 0.13519 0.61882 0.0
C3242 C 0.88861 0.13223 0.60717 0.0
C3243 C 0.86187 0.12382 0.61257 0.0
C3244 C 0.88982 0.13739 0.58918 0.0
C3245 C 0.94415 0.14345 0.61354 0.0
C3246 C 0.89248 0.15262 0.58529 0.0
C3247 C 0.89492 0.15734 0.5683 0.0
C3248 C 0.8943 0.14691 0.55486 0.0
C3249 C 0.89064 0.13169 0.55882 0.0
C3250 C 0.88844 0.127 0.57581 0.0
H3251 H 0.96454 0.14125 0.62243 0.0
H3252 H 0.95171 0.14028 0.60041 0.0
H3253 H 0.93928 0.15561 0.61369 0.0
H3254 H 0.89279 0.16087 0.5954 0.0
H3255 H 0.89742 0.16915 0.56573 0.0
H3256 H 0.86754 0.12405 0.19867 0.0
H3257 H 0.87331 0.11608 0.16905 0.0
H3258 H 0.86448 0.16169 0.15221 0.0
H3259 H 0.85784 0.16979 0.18184 0.0
H3260 H 0.82513 0.14323 0.13467 0.0
H3261 H 0.94825 0.11913 0.13629 0.0
H3262 H 0.92229 0.11136 0.15234 0.0
H3263 H 0.93279 0.13082 0.1532 0.0
C3264 C 0.86717 0.13245 0.18872 0.0
C3265 C 0.8622 0.14758 0.19268 0.0
C3266 C 0.87074 0.12786 0.17177 0.0
C3267 C 0.8699 0.13831 0.15843 0.0
C3268 C 0.86542 0.15345 0.16233 0.0
H3269 H 0.8711 0.12863 0.04757 0.0
H3270 H 0.87589 0.13825 0.07668 0.0
C3271 C 0.86164 0.15805 0.17928 0.0
C3272 C 0.87127 0.13331 0.14038 0.0
H3273 H 0.91566 0.11285 0.112 0.0
C3274 C 0.84512 0.13674 0.12966 0.0
C3275 C 0.89734 0.12482 0.13388 0.0
C3276 C 0.9269 0.12144 0.14448 0.0
C3277 C 0.8439 0.13157 0.11276 0.0
C3278 C 0.86961 0.12282 0.1064 0.0
C3279 C 0.89596 0.11952 0.117 0.0
C3280 C 0.86909 0.11683 0.08881 0.0
C3281 C 0.81475 0.13514 0.10192 0.0
C3282 C 0.86446 0.10153 0.08607 0.0
C3283 C 0.8616 0.09596 0.06945 0.0
C3284 C 0.86356 0.1056 0.05528 0.0
C3285 C 0.86932 0.12088 0.05814 0.0
C3286 C 0.87201 0.12642 0.07477 0.0
H3287 H 0.79462 0.13985 0.1096 0.0
H3288 H 0.82158 0.14343 0.09203 0.0
H3289 H 0.80601 0.12498 0.09524 0.0
H3290 H 0.86221 0.09397 0.09681 0.0
H3291 H 0.85727 0.08414 0.06775 0.0
H3292 H 0.92811 0.66105 0.06585 0.0
H3293 H 0.92549 0.65123 0.09494 0.0
H3294 H 0.84238 0.62479 0.08112 0.0
H3295 H 0.84628 0.63386 0.05173 0.0
H3296 H 0.88475 0.65242 0.11936 0.0
H3297 H 0.89601 0.59301 0.10129 0.0
H3298 H 0.90104 0.60784 0.086 0.0
H3299 H 0.8612 0.60145 0.09174 0.0
C3300 C 0.90929 0.65314 0.06902 0.0
C3301 C 0.88765 0.64808 0.05646 0.0
C3302 C 0.90779 0.64752 0.08566 0.0
C3303 C 0.88426 0.63693 0.09018 0.0
C3304 C 0.86155 0.63248 0.07784 0.0
H3305 H 0.8484 0.61705 0.19826 0.0
H3306 H 0.84443 0.62644 0.169 0.0
C3307 C 0.86359 0.63778 0.06107 0.0
C3308 C 0.88363 0.63064 0.10778 0.0
H3309 H 0.88228 0.59798 0.13023 0.0
C3310 C 0.88438 0.64051 0.12172 0.0
C3311 C 0.8837 0.61508 0.11093 0.0
C3312 C 0.88581 0.60375 0.0967 0.0
C3313 C 0.88531 0.63531 0.13865 0.0
C3314 C 0.88385 0.61976 0.14181 0.0
C3315 C 0.88299 0.60989 0.12787 0.0
C3316 C 0.88463 0.61343 0.1594 0.0
C3317 C 0.88914 0.64657 0.15286 0.0
C3318 C 0.90722 0.60232 0.16359 0.0
C3319 C 0.90872 0.59655 0.18016 0.0
C3320 C 0.88804 0.60196 0.19297 0.0
C3321 C 0.86497 0.61283 0.18871 0.0
C3322 C 0.8629 0.61831 0.17202 0.0
H3323 H 0.90019 0.65708 0.14814 0.0
H3324 H 0.865 0.64938 0.15811 0.0
H3325 H 0.9044 0.64215 0.16337 0.0
H3326 H 0.92415 0.59829 0.1541 0.0
H3327 H 0.92677 0.58819 0.18305 0.0
H3328 H 0.64425 0.42046 0.93205 0.0
H3329 H 0.63805 0.41224 0.90243 0.0
H3330 H 0.62647 0.36685 0.91956 0.0
H3331 H 0.6318 0.37494 0.94916 0.0
H3332 H 0.67671 0.39321 0.88521 0.0
H3333 H 0.55222 0.37062 0.88644 0.0
H3334 H 0.56806 0.38223 0.90332 0.0
H3335 H 0.57747 0.36265 0.90268 0.0
C3336 C 0.63996 0.40875 0.92955 0.0
C3337 C 0.63845 0.39838 0.94303 0.0
C3338 C 0.63644 0.40408 0.91261 0.0
C3339 C 0.63128 0.38897 0.9088 0.0
C3340 C 0.62958 0.37861 0.92221 0.0
H3341 H 0.64231 0.33422 0.81851 0.0
H3342 H 0.63787 0.34425 0.8475 0.0
C3343 C 0.6329 0.38327 0.93915 0.0
C3344 C 0.62993 0.38388 0.89078 0.0
H3345 H 0.58481 0.36382 0.86234 0.0
C3346 C 0.65644 0.38694 0.88015 0.0
C3347 C 0.60348 0.37567 0.88422 0.0
C3348 C 0.57356 0.37272 0.89471 0.0
C3349 C 0.65761 0.38166 0.86329 0.0
C3350 C 0.63151 0.3732 0.85689 0.0
C3351 C 0.60481 0.37027 0.86739 0.0
C3352 C 0.63192 0.36711 0.83934 0.0
C3353 C 0.68709 0.38483 0.85254 0.0
C3354 C 0.6294 0.37666 0.82523 0.0
C3355 C 0.63179 0.371 0.80865 0.0
C3356 C 0.63687 0.35566 0.80589 0.0
C3357 C 0.63851 0.34608 0.82013 0.0
C3358 C 0.63594 0.35177 0.83671 0.0
H3359 H 0.70732 0.38942 0.86024 0.0
H3360 H 0.69544 0.37452 0.84605 0.0
H3361 H 0.68081 0.39308 0.84249 0.0
H3362 H 0.62602 0.38853 0.82707 0.0
H3363 H 0.63028 0.37872 0.79802 0.0
H3364 H 0.59215 0.83361 0.93216 0.0
H3365 H 0.59623 0.84265 0.90273 0.0
H3366 H 0.63332 0.88465 0.92094 0.0
H3367 H 0.62932 0.87582 0.95039 0.0
H3368 H 0.56392 0.86934 0.89018 0.0
H3369 H 0.69736 0.87134 0.88236 0.0
H3370 H 0.67784 0.86012 0.89853 0.0
H3371 H 0.68161 0.87989 0.90143 0.0
C3372 C 0.60155 0.84471 0.92993 0.0
C3373 C 0.61047 0.85396 0.94368 0.0
C3374 C 0.60379 0.84985 0.91311 0.0
C3375 C 0.61535 0.86425 0.9097 0.0
C3376 C 0.62478 0.87343 0.92332 0.0
H3377 H 0.58984 0.91831 0.81873 0.0
H3378 H 0.59323 0.90896 0.84806 0.0
C3379 C 0.62235 0.86835 0.94015 0.0
C3380 C 0.61578 0.86999 0.89199 0.0
H3381 H 0.6659 0.88214 0.86022 0.0
C3382 C 0.58619 0.87211 0.8836 0.0
C3383 C 0.64491 0.87352 0.88347 0.0
C3384 C 0.67732 0.87102 0.8918 0.0
C3385 C 0.58493 0.87787 0.86694 0.0
C3386 C 0.61402 0.88167 0.85855 0.0
C3387 C 0.64366 0.87934 0.86682 0.0
C3388 C 0.61399 0.88772 0.84098 0.0
C3389 C 0.55256 0.87972 0.85833 0.0
C3390 C 0.62525 0.87897 0.82739 0.0
C3391 C 0.62328 0.88423 0.81062 0.0
C3392 C 0.61028 0.89841 0.80714 0.0
C3393 C 0.59999 0.90734 0.8209 0.0
C3394 C 0.60178 0.90201 0.83767 0.0
H3395 H 0.533 0.87383 0.86534 0.0
H3396 H 0.54638 0.89175 0.85776 0.0
H3397 H 0.55345 0.87544 0.84502 0.0
H3398 H 0.6348 0.86791 0.82974 0.0
H3399 H 0.63149 0.87704 0.80037 0.0
H3400 H 0.63683 0.91456 0.43215 0.0
H3401 H 0.63136 0.90522 0.40293 0.0
H3402 H 0.6216 0.86038 0.42208 0.0
H3403 H 0.62691 0.86953 0.45136 0.0
H3404 H 0.67121 0.86544 0.39602 0.0
H3405 H 0.55062 0.88747 0.37759 0.0
H3406 H 0.57766 0.90053 0.38758 0.0
H3407 H 0.56265 0.88496 0.39962 0.0
C3408 C 0.6331 0.90273 0.43021 0.0
C3409 C 0.6324 0.8928 0.44415 0.0
C3410 C 0.62983 0.89744 0.41349 0.0
C3411 C 0.62581 0.88215 0.41041 0.0
C3412 C 0.62451 0.87224 0.42425 0.0
H3413 H 0.63792 0.82978 0.31653 0.0
H3414 H 0.63197 0.83753 0.34631 0.0
C3415 C 0.62756 0.87751 0.44097 0.0
C3416 C 0.62542 0.87639 0.3927 0.0
H3417 H 0.5825 0.87695 0.35547 0.0
C3418 C 0.65172 0.86783 0.38716 0.0
C3419 C 0.60005 0.87967 0.38123 0.0
C3420 C 0.57096 0.88857 0.38676 0.0
C3421 C 0.65379 0.86274 0.37024 0.0
C3422 C 0.62837 0.86598 0.35871 0.0
C3423 C 0.60188 0.87444 0.36434 0.0
C3424 C 0.62944 0.86112 0.3406 0.0
C3425 C 0.68375 0.85443 0.36473 0.0
C3426 C 0.62853 0.87175 0.32746 0.0
C3427 C 0.63146 0.86735 0.3104 0.0
C3428 C 0.63545 0.85222 0.30615 0.0
C3429 C 0.63526 0.84154 0.31934 0.0
C3430 C 0.63204 0.84595 0.33639 0.0
H3431 H 0.70424 0.85638 0.37363 0.0
H3432 H 0.6786 0.84229 0.36462 0.0
H3433 H 0.69132 0.85779 0.35167 0.0
H3434 H 0.62635 0.8835 0.33043 0.0
H3435 H 0.63136 0.87589 0.3006 0.0
H3436 H 0.62528 0.37481 0.45021 0.0
H3437 H 0.63073 0.3835 0.42077 0.0
H3438 H 0.6095 0.33933 0.40224 0.0
H3439 H 0.60377 0.33042 0.43168 0.0
H3440 H 0.66668 0.35721 0.38633 0.0
H3441 H 0.54711 0.38563 0.38826 0.0
H3442 H 0.57408 0.38865 0.40599 0.0
H3443 H 0.55726 0.37048 0.4025 0.0
C3444 C 0.622 0.36686 0.43993 0.0
C3445 C 0.61384 0.35191 0.44335 0.0
C3446 C 0.62513 0.37188 0.42312 0.0
C3447 C 0.62029 0.36206 0.40943 0.0
C3448 C 0.61328 0.34704 0.41271 0.0
H3449 H 0.62105 0.3701 0.29914 0.0
H3450 H 0.62585 0.36144 0.32858 0.0
C3451 C 0.60997 0.342 0.42954 0.0
C3452 C 0.62104 0.36767 0.39169 0.0
H3453 H 0.57796 0.38847 0.36322 0.0
C3454 C 0.64735 0.36404 0.38121 0.0
C3455 C 0.5958 0.37661 0.3852 0.0
C3456 C 0.56679 0.38056 0.39597 0.0
C3457 C 0.64926 0.36931 0.36432 0.0
C3458 C 0.62376 0.37812 0.35772 0.0
C3459 C 0.59752 0.38176 0.3683 0.0
C3460 C 0.62325 0.38347 0.33979 0.0
C3461 C 0.67882 0.36565 0.35386 0.0
C3462 C 0.61968 0.39873 0.33629 0.0
C3463 C 0.61645 0.40373 0.31946 0.0
C3464 C 0.6167 0.39354 0.30577 0.0
C3465 C 0.62093 0.37828 0.30932 0.0
C3466 C 0.62393 0.37329 0.32617 0.0
H3467 H 0.69981 0.36291 0.36213 0.0
H3468 H 0.67369 0.35578 0.34576 0.0
H3469 H 0.68556 0.37508 0.34537 0.0
H3470 H 0.61893 0.40676 0.34662 0.0
H3471 H 0.61324 0.41555 0.31722 0.0
H3472 H 0.36118 0.62319 0.20022 0.0
H3473 H 0.36522 0.6141 0.17088 0.0
H3474 H 0.35448 0.65896 0.15196 0.0
H3475 H 0.35031 0.66826 0.18128 0.0
H3476 H 0.31528 0.61888 0.14509 0.0
H3477 H 0.43512 0.6416 0.12624 0.0
H3478 H 0.42339 0.63911 0.14831 0.0
H3479 H 0.40764 0.65448 0.13621 0.0
C3480 C 0.35997 0.63119 0.18987 0.0
C3481 C 0.35537 0.64648 0.19316 0.0
C3482 C 0.36228 0.62595 0.17311 0.0
C3483 C 0.36044 0.63588 0.15931 0.0
C3484 C 0.35642 0.65116 0.16248 0.0
H3485 H 0.35703 0.62661 0.0493 0.0
H3486 H 0.36029 0.63543 0.07878 0.0
C3487 C 0.35391 0.65643 0.17925 0.0
C3488 C 0.36072 0.63012 0.1416 0.0
H3489 H 0.40397 0.63023 0.10445 0.0
C3490 C 0.33472 0.62128 0.1362 0.0
C3491 C 0.38604 0.63339 0.13009 0.0
C3492 C 0.41481 0.64257 0.13546 0.0
C3493 C 0.33303 0.6158 0.11943 0.0
C3494 C 0.3585 0.61895 0.1079 0.0
C3495 C 0.38456 0.62779 0.11333 0.0
C3496 C 0.35813 0.61342 0.09004 0.0
C3497 C 0.30351 0.60708 0.11409 0.0
C3498 C 0.3566 0.59808 0.08657 0.0
C3499 C 0.35445 0.59298 0.06972 0.0
C3500 C 0.35423 0.60313 0.056 0.0
C3501 C 0.35699 0.61847 0.05953 0.0
C3502 C 0.35891 0.62355 0.07638 0.0
H3503 H 0.28276 0.60916 0.12277 0.0
H3504 H 0.29614 0.60996 0.10084 0.0
H3505 H 0.30909 0.59499 0.11453 0.0
H3506 H 0.35679 0.59005 0.09691 0.0
H3507 H 0.35268 0.58109 0.0675 0.0
H3508 H 0.37632 0.12733 0.19997 0.0
H3509 H 0.37212 0.1354 0.17025 0.0
H3510 H 0.38391 0.08999 0.15333 0.0
H3511 H 0.38827 0.08171 0.18304 0.0
H3512 H 0.42346 0.12953 0.14521 0.0
H3513 H 0.30385 0.10665 0.1261 0.0
H3514 H 0.31459 0.11004 0.14816 0.0
H3515 H 0.3308 0.09419 0.13712 0.0
C3516 C 0.37766 0.11899 0.18999 0.0
C3517 C 0.38275 0.10385 0.19394 0.0
C3518 C 0.37523 0.12364 0.17301 0.0
C3519 C 0.37745 0.11327 0.15967 0.0
C3520 C 0.38169 0.09813 0.1635 0.0
H3521 H 0.38447 0.12075 0.0492 0.0
H3522 H 0.37986 0.11209 0.07873 0.0
C3523 C 0.38432 0.09344 0.18049 0.0
C3524 C 0.37782 0.11847 0.14175 0.0
H3525 H 0.33556 0.11764 0.1043 0.0
C3526 C 0.40421 0.12701 0.13625 0.0
C3527 C 0.35278 0.11499 0.13015 0.0
C3528 C 0.32372 0.10605 0.13562 0.0
C3529 C 0.40647 0.13205 0.11933 0.0
C3530 C 0.38118 0.12879 0.10774 0.0
C3531 C 0.35481 0.12018 0.11324 0.0
C3532 C 0.38191 0.13416 0.08984 0.0
C3533 C 0.43635 0.14049 0.11394 0.0
C3534 C 0.38372 0.14946 0.08628 0.0
C3535 C 0.38666 0.15446 0.06945 0.0
C3536 C 0.38738 0.14424 0.05581 0.0
C3537 C 0.38415 0.12893 0.05938 0.0
C3538 C 0.38146 0.12395 0.07625 0.0
H3539 H 0.45691 0.13838 0.12274 0.0
H3540 H 0.44381 0.13738 0.10078 0.0
H3541 H 0.43117 0.15262 0.11415 0.0
H3542 H 0.38327 0.15755 0.09656 0.0
H3543 H 0.3887 0.16634 0.06717 0.0
H3544 H 0.35726 0.16709 0.68118 0.0
H3545 H 0.36214 0.15727 0.65209 0.0
H3546 H 0.37328 0.11281 0.67215 0.0
H3547 H 0.36858 0.12241 0.70125 0.0
H3548 H 0.41546 0.13764 0.63739 0.0
H3549 H 0.29266 0.11231 0.63849 0.0
H3550 H 0.30438 0.12713 0.65286 0.0
H3551 H 0.3186 0.1085 0.65643 0.0
C3552 C 0.36099 0.15523 0.67945 0.0
C3553 C 0.36232 0.14554 0.69359 0.0
C3554 C 0.36382 0.14966 0.66282 0.0
C3555 C 0.36777 0.13433 0.66006 0.0
C3556 C 0.36995 0.12467 0.67408 0.0
H3557 H 0.35814 0.08045 0.56782 0.0
H3558 H 0.36344 0.08899 0.59736 0.0
C3559 C 0.3673 0.13021 0.6907 0.0
C3560 C 0.36853 0.12835 0.64247 0.0
H3561 H 0.32414 0.10825 0.61388 0.0
C3562 C 0.39556 0.13121 0.63219 0.0
C3563 C 0.34257 0.1199 0.63588 0.0
C3564 C 0.31274 0.11681 0.64638 0.0
C3565 C 0.39743 0.12571 0.61541 0.0
C3566 C 0.37117 0.11747 0.60867 0.0
C3567 C 0.34427 0.11453 0.61907 0.0
C3568 C 0.37048 0.11219 0.59072 0.0
C3569 C 0.4277 0.12856 0.60518 0.0
C3570 C 0.37268 0.12239 0.57718 0.0
C3571 C 0.36989 0.11755 0.56028 0.0
C3572 C 0.36437 0.10241 0.55657 0.0
C3573 C 0.36242 0.09218 0.57018 0.0
C3574 C 0.36542 0.09704 0.58709 0.0
H3575 H 0.44875 0.13076 0.61363 0.0
H3576 H 0.43351 0.11897 0.59676 0.0
H3577 H 0.42406 0.13855 0.59703 0.0
H3578 H 0.37574 0.13418 0.57969 0.0
H3579 H 0.37132 0.12577 0.55017 0.0
H3580 H 0.39018 0.58097 0.68175 0.0
H3581 H 0.38546 0.59018 0.65238 0.0
H3582 H 0.37343 0.63499 0.67121 0.0
H3583 H 0.37801 0.62601 0.70057 0.0
H3584 H 0.33238 0.60911 0.6368 0.0
H3585 H 0.45425 0.63531 0.63795 0.0
H3586 H 0.44254 0.62082 0.65275 0.0
H3587 H 0.42793 0.63948 0.65563 0.0
C3588 C 0.3863 0.59278 0.67969 0.0
C3589 C 0.38469 0.60275 0.69356 0.0
C3590 C 0.38356 0.598 0.6629 0.0
C3591 C 0.37941 0.61326 0.65971 0.0
C3592 C 0.37693 0.62319 0.67347 0.0
H3593 H 0.38753 0.66705 0.56775 0.0
H3594 H 0.38226 0.65813 0.59711 0.0
C3595 C 0.37951 0.618 0.69024 0.0
C3596 C 0.3788 0.61891 0.64196 0.0
H3597 H 0.42268 0.63917 0.61329 0.0
C3598 C 0.35207 0.61567 0.6316 0.0
C3599 C 0.40453 0.62749 0.63534 0.0
C3600 C 0.43411 0.63094 0.64589 0.0
C3601 C 0.35018 0.62101 0.61474 0.0
C3602 C 0.37611 0.62949 0.60803 0.0
C3603 C 0.40279 0.63271 0.61847 0.0
C3604 C 0.37652 0.63493 0.59013 0.0
C3605 C 0.32019 0.6178 0.60442 0.0
C3606 C 0.37494 0.62486 0.57643 0.0
C3607 C 0.37771 0.62992 0.5596 0.0
C3608 C 0.3826 0.64516 0.55614 0.0
C3609 C 0.38378 0.65524 0.56991 0.0
C3610 C 0.3808 0.65017 0.58672 0.0
H3611 H 0.29922 0.61524 0.6128 0.0
H3612 H 0.31383 0.62737 0.59607 0.0
H3613 H 0.32457 0.60793 0.59619 0.0
H3614 H 0.37245 0.61301 0.57876 0.0
H3615 H 0.37686 0.62181 0.54934 0.0
H3616 H 0.25718 0.34604 0.27953 0.0
H3617 H 0.31392 0.35311 0.27811 0.0
H3618 H 0.29575 0.37762 0.23162 0.0
H3619 H 0.23847 0.37097 0.23325 0.0
H3620 H 0.35768 0.34662 0.25407 0.0
H3621 H 0.34419 0.40803 0.25948 0.0
H3622 H 0.31129 0.39535 0.2636 0.0
H3623 H 0.32219 0.40001 0.24198 0.0
C3624 C 0.26514 0.35306 0.26908 0.0
C3625 C 0.24331 0.35802 0.25654 0.0
C3626 C 0.29761 0.35706 0.26827 0.0
C3627 C 0.309 0.36601 0.25486 0.0
C3628 C 0.28733 0.37098 0.24229 0.0
H3629 H 0.51656 0.37519 0.23434 0.0
H3630 H 0.45969 0.36778 0.23258 0.0
C3631 C 0.25465 0.36714 0.24321 0.0
C3632 C 0.34377 0.36977 0.254 0.0
H3633 H 0.39672 0.39888 0.25396 0.0
C3634 C 0.36627 0.35805 0.25404 0.0
C3635 C 0.35483 0.38468 0.25409 0.0
C3636 C 0.33191 0.39775 0.25495 0.0
C3637 C 0.3996 0.36083 0.25446 0.0
C3638 C 0.41065 0.37574 0.25432 0.0
C3639 C 0.38814 0.38745 0.25398 0.0
C3640 C 0.44535 0.37956 0.25553 0.0
C3641 C 0.42251 0.34779 0.25568 0.0
C3642 C 0.45602 0.38877 0.26887 0.0
C3643 C 0.48821 0.39319 0.26974 0.0
C3644 C 0.51049 0.38841 0.25734 0.0
C3645 C 0.5 0.3789 0.24419 0.0
C3646 C 0.46756 0.37463 0.24319 0.0
H3647 H 0.41009 0.33752 0.26017 0.0
H3648 H 0.43274 0.34545 0.24284 0.0
H3649 H 0.44279 0.35026 0.26452 0.0
H3650 H 0.43931 0.39267 0.27855 0.0
H3651 H 0.49557 0.40049 0.28007 0.0
H3652 H 0.73159 0.87822 0.2434 0.0
H3653 H 0.78782 0.88671 0.24269 0.0
H3654 H 0.81703 0.84765 0.27085 0.0
H3655 H 0.76128 0.83916 0.27188 0.0
H3656 H 0.84339 0.87428 0.28327 0.0
H3657 H 0.86011 0.86815 0.21305 0.0
H3658 H 0.8263 0.87936 0.21958 0.0
H3659 H 0.82669 0.85979 0.22437 0.0
C3660 C 0.74996 0.87145 0.24947 0.0
C3661 C 0.74189 0.85796 0.2576 0.0
C3662 C 0.78207 0.87628 0.24896 0.0
C3663 C 0.80652 0.86768 0.2565 0.0
C3664 C 0.79847 0.85439 0.26489 0.0
H3665 H 0.014 0.87009 0.24413 0.0
H3666 H 0.95668 0.86341 0.24456 0.0
C3667 C 0.76652 0.84956 0.26542 0.0
C3668 C 0.84063 0.87244 0.25587 0.0
H3669 H 0.90387 0.87824 0.22868 0.0
C3670 C 0.85663 0.8752 0.27135 0.0
C3671 C 0.85781 0.87339 0.24028 0.0
C3672 C 0.84203 0.86991 0.22336 0.0
C3673 C 0.88948 0.87895 0.27168 0.0
C3674 C 0.90653 0.88017 0.25608 0.0
C3675 C 0.89058 0.87735 0.24059 0.0
C3676 C 0.94103 0.8843 0.25562 0.0
C3677 C 0.90583 0.88124 0.28873 0.0
C3678 C 0.95098 0.8983 0.26153 0.0
C3679 C 0.98359 0.90214 0.26138 0.0
C3680 C 0.0069 0.89208 0.25516 0.0
C3681 C 0.99674 0.8781 0.24903 0.0
C3682 C 0.96403 0.87427 0.24923 0.0
H3683 H 0.89164 0.87633 0.2994 0.0
H3684 H 0.93035 0.87623 0.28878 0.0
H3685 H 0.90836 0.89337 0.29119 0.0
H3686 H 0.93347 0.90628 0.26625 0.0
H3687 H 0.99044 0.91303 0.26614 0.0
H3688 H 0.26131 0.9137 0.97906 0.0
H3689 H 0.31756 0.90594 0.98017 0.0
H3690 H 0.29005 0.86543 0.00603 0.0
H3691 H 0.23332 0.87316 0.00523 0.0
H3692 H 0.34414 0.88077 0.02071 0.0
H3693 H 0.35705 0.87253 0.95065 0.0
H3694 H 0.34135 0.89043 0.95671 0.0
H3695 H 0.31823 0.8739 0.96105 0.0
C3696 C 0.26703 0.90312 0.985 0.0
C3697 C 0.24268 0.89402 0.99202 0.0
C3698 C 0.29925 0.89869 0.98554 0.0
C3699 C 0.3078 0.88506 0.99299 0.0
C3700 C 0.28378 0.87599 0.00018 0.0
H3701 H 0.48645 0.83787 0.98121 0.0
H3702 H 0.43071 0.84627 0.98214 0.0
C3703 C 0.25142 0.8804 -0.00034 0.0
C3704 C 0.34193 0.88033 0.99321 0.0
H3705 H 0.40511 0.87164 0.9671 0.0
C3706 C 0.35753 0.87871 0.00903 0.0
C3707 C 0.35909 0.8776 0.97791 0.0
C3708 C 0.34306 0.87856 0.96061 0.0
C3709 C 0.39015 0.87454 0.00993 0.0
C3710 C 0.40749 0.87214 0.9946 0.0
C3711 C 0.39176 0.87366 0.97881 0.0
C3712 C 0.44151 0.86721 0.99459 0.0
C3713 C 0.4056 0.87243 0.02723 0.0
C3714 C 0.46612 0.8763 0.0012 0.0
C3715 C 0.49827 0.87151 0.00075 0.0
C3716 C 0.50621 0.85759 0.9936 0.0
C3717 C 0.48135 0.84863 0.98688 0.0
C3718 C 0.44939 0.8534 0.98737 0.0
H3719 H 0.38731 0.87157 0.03758 0.0
H3720 H 0.42084 0.86224 0.0274 0.0
H3721 H 0.42137 0.88213 0.03005 0.0
H3722 H 0.4605 0.88713 0.00653 0.0
H3723 H 0.51682 0.87872 0.00595 0.0
H3724 H 0.98733 0.33682 0.97814 0.0
H3725 H 0.93161 0.34534 0.97882 0.0
H3726 H 0.96088 0.38528 0.0053 0.0
H3727 H 0.01712 0.37676 0.00495 0.0
H3728 H 0.90596 0.37059 0.01957 0.0
H3729 H 0.89396 0.37925 0.94957 0.0
H3730 H 0.90868 0.36112 0.95542 0.0
H3731 H 0.93262 0.37735 0.96002 0.0
C3732 C 0.98213 0.34745 0.9841 0.0
C3733 C 0.00682 0.35613 0.99147 0.0
C3734 C 0.95021 0.35231 0.98439 0.0
C3735 C 0.9423 0.366 0.99191 0.0
C3736 C 0.96667 0.3747 0.99938 0.0
H3737 H 0.76364 0.41345 0.97959 0.0
H3738 H 0.81943 0.40513 0.9805 0.0
C3739 C 0.99874 0.36983 0.99912 0.0
C3740 C 0.9084 0.37107 0.99207 0.0
H3741 H 0.84556 0.38001 0.96585 0.0
C3742 C 0.89272 0.37273 0.00786 0.0
C3743 C 0.89142 0.37392 0.97674 0.0
C3744 C 0.90756 0.37296 0.95947 0.0
C3745 C 0.86016 0.37701 0.0087 0.0
C3746 C 0.84294 0.37944 0.99335 0.0
C3747 C 0.85879 0.37795 0.97759 0.0
C3748 C 0.80887 0.38431 0.99327 0.0
C3749 C 0.84465 0.37915 0.02599 0.0
C3750 C 0.78436 0.37525 3e-05 0.0
C3751 C 0.75218 0.37999 -0.00038 0.0
C3752 C 0.74411 0.39384 0.99233 0.0
C3753 C 0.76885 0.40275 0.98539 0.0
C3754 C 0.80084 0.39803 0.98586 0.0
H3755 H 0.86294 0.38017 0.03632 0.0
H3756 H 0.82915 0.38925 0.02609 0.0
H3757 H 0.82918 0.36937 0.0289 0.0
H3758 H 0.79007 0.36447 0.00549 0.0
H3759 H 0.73372 0.37283 0.00498 0.0
H3760 H 0.76487 0.62137 0.75604 0.0
H3761 H 0.70902 0.61231 0.75625 0.0
H3762 H 0.67812 0.65212 0.73003 0.0
H3763 H 0.73345 0.66118 0.72949 0.0
H3764 H 0.65347 0.62619 0.77052 0.0
H3765 H 0.64188 0.61819 0.70044 0.0
H3766 H 0.68045 0.62039 0.71092 0.0
H3767 H 0.65579 0.63642 0.70643 0.0
C3768 C 0.74621 0.62817 0.75025 0.0
C3769 C 0.75373 0.64198 0.7427 0.0
C3770 C 0.71436 0.62299 0.75042 0.0
C3771 C 0.68965 0.63148 0.74296 0.0
C3772 C 0.69699 0.64529 0.73558 0.0
H3773 H 0.48183 0.6253 0.75602 0.0
H3774 H 0.53863 0.6329 0.75671 0.0
C3775 C 0.72869 0.65047 0.73538 0.0
C3776 C 0.65596 0.62609 0.74302 0.0
H3777 H 0.59322 0.61735 0.71662 0.0
C3778 C 0.64029 0.62415 0.75877 0.0
C3779 C 0.63905 0.62333 0.72764 0.0
C3780 C 0.6552 0.62455 0.71039 0.0
C3781 C 0.60777 0.6198 0.75953 0.0
C3782 C 0.59053 0.61759 0.74413 0.0
C3783 C 0.60644 0.61924 0.7284 0.0
C3784 C 0.55621 0.61308 0.74396 0.0
C3785 C 0.59227 0.61742 0.77678 0.0
C3786 C 0.54732 0.59963 0.73617 0.0
C3787 C 0.51502 0.59534 0.73558 0.0
C3788 C 0.49085 0.60442 0.74279 0.0
C3789 C 0.49982 0.618 0.75045 0.0
C3790 C 0.53226 0.62231 0.75097 0.0
H3791 H 0.6106 0.61595 0.78702 0.0
H3792 H 0.57737 0.6273 0.78003 0.0
H3793 H 0.57624 0.60749 0.77662 0.0
H3794 H 0.56546 0.59241 0.73059 0.0
H3795 H 0.5091 0.58485 0.72949 0.0
H3796 H 0.98191 0.12839 0.75531 0.0
H3797 H 0.038 0.13708 0.75572 0.0
H3798 H 0.06818 0.09682 0.73017 0.0
H3799 H 0.01255 0.08813 0.72942 0.0
H3800 H 0.09306 0.12327 0.7703 0.0
H3801 H 0.10531 0.13016 0.70009 0.0
H3802 H 0.06664 0.12818 0.71052 0.0
H3803 H 0.09122 0.11205 0.70642 0.0
C3804 C 0.00046 0.1214 0.74974 0.0
C3805 C 0.99264 0.10759 0.74227 0.0
C3806 C 0.03246 0.12637 0.75001 0.0
C3807 C 0.05704 0.11766 0.74276 0.0
C3808 C 0.04942 0.10382 0.73554 0.0
H3809 H 0.26484 0.12416 0.75621 0.0
H3810 H 0.20811 0.11648 0.75692 0.0
C3811 C 0.01755 0.09885 0.73522 0.0
C3812 C 0.09082 0.12292 0.7428 0.0
H3813 H 0.15377 0.13128 0.71637 0.0
C3814 C 0.10636 0.12512 0.75854 0.0
C3815 C 0.10786 0.12544 0.72741 0.0
C3816 C 0.09186 0.12398 0.71014 0.0
C3817 C 0.13885 0.1295 0.75929 0.0
C3818 C 0.15621 0.13149 0.74388 0.0
C3819 C 0.14045 0.12956 0.72816 0.0
C3820 C 0.19049 0.13606 0.7437 0.0
C3821 C 0.15418 0.13218 0.77652 0.0
C3822 C 0.19934 0.14939 0.73565 0.0
C3823 C 0.23162 0.15373 0.73505 0.0
C3824 C 0.25578 0.14481 0.7425 0.0
C3825 C 0.24685 0.13135 0.75044 0.0
C3826 C 0.21444 0.12699 0.75098 0.0
H3827 H 0.13575 0.13378 0.78669 0.0
H3828 H 0.16913 0.12238 0.78002 0.0
H3829 H 0.17013 0.14213 0.77619 0.0
H3830 H 0.1812 0.15649 0.72987 0.0
H3831 H 0.23751 0.16413 0.72874 0.0
H3832 H 0.509 0.15294 0.02779 0.0
H3833 H 0.56536 0.14561 0.02488 0.0
H3834 H 0.54173 0.11988 0.97997 0.0
H3835 H 0.48477 0.12682 0.98313 0.0
H3836 H 0.58258 0.10515 0.00011 0.0
H3837 H 0.62839 0.16244 0.99101 0.0
H3838 H 0.60596 0.16093 0.01053 0.0
H3839 H 0.58589 0.15803 0.99035 0.0
C3840 C 0.51573 0.14569 0.01731 0.0
C3841 C 0.4925 0.14054 0.00561 0.0
C3842 C 0.54802 0.14162 0.01557 0.0
C3843 C 0.55788 0.13259 0.0019 0.0
C3844 C 0.53463 0.12702 0.99049 0.0
H3845 H 0.76536 0.12185 0.98255 0.0
H3846 H 0.70837 0.12873 0.97944 0.0
C3847 C 0.50214 0.13093 0.99235 0.0
C3848 C 0.59241 0.12873 -0.00012 0.0
H3849 H 0.66786 0.14402 0.99922 0.0
C3850 C 0.60122 0.11364 -0.00032 0.0
C3851 C 0.61668 0.13982 0.99888 0.0
C3852 C 0.60871 0.1562 0.9975 0.0
C3853 C 0.63376 0.10934 0.99941 0.0
C3854 C 0.65804 0.12044 -9e-05 0.0
C3855 C 0.64922 0.13552 0.99918 0.0
C3856 C 0.6926 0.11664 0.00191 0.0
C3857 C 0.64171 0.09293 0.99861 0.0
C3858 C 0.7027 0.10799 0.01585 0.0
C3859 C 0.73502 0.10396 0.01757 0.0
C3860 C 0.75803 0.10876 0.00555 0.0
C3861 C 0.74817 0.11801 0.99201 0.0
C3862 C 0.71565 0.12189 0.99019 0.0
H3863 H 0.62193 0.08651 0.99244 0.0
H3864 H 0.66442 0.09089 0.99143 0.0
H3865 H 0.64468 0.08857 0.01179 0.0
H3866 H 0.68553 0.10427 0.02538 0.0
H3867 H 0.74192 0.09698 0.02827 0.0
H3868 H 0.23209 0.58458 0.01946 0.0
H3869 H 0.17548 0.59159 0.01769 0.0
H3870 H 0.20121 0.63143 0.99 0.0
H3871 H 0.25832 0.62441 0.9914 0.0
H3872 H 0.14736 0.61699 0.03067 0.0
H3873 H 0.12941 0.61294 0.96044 0.0
H3874 H 0.16386 0.60489 0.97119 0.0
H3875 H 0.16267 0.62455 0.96682 0.0
C3876 C 0.22589 0.59481 0.01287 0.0
C3877 C 0.24984 0.60391 0.00548 0.0
C3878 C 0.19344 0.59877 0.01189 0.0
C3879 C 0.18419 0.61188 0.0035 0.0
C3880 C 0.20789 0.62109 0.99622 0.0
H3881 H 0.01094 0.66205 0.01547 0.0
H3882 H 0.06544 0.6521 0.01446 0.0
C3883 C 0.2405 0.61712 0.99716 0.0
C3884 C 0.14977 0.61618 0.00317 0.0
H3885 H 0.08664 0.62389 0.97653 0.0
C3886 C 0.13403 0.61842 0.01884 0.0
C3887 C 0.1324 0.61779 0.98771 0.0
C3888 C 0.1478 0.61479 0.97057 0.0
C3889 C 0.10151 0.62263 0.01946 0.0
C3890 C 0.08451 0.62486 0.00401 0.0
C3891 C 0.09992 0.62222 0.98833 0.0
C3892 C 0.05131 0.63078 0.00397 0.0
C3893 C 0.08558 0.62471 0.03666 0.0
C3894 C 0.02541 0.62215 0.99799 0.0
C3895 C 0.99392 0.62781 0.9985 0.0
C3896 C 0.98807 0.64223 0.00488 0.0
C3897 C 0.01437 0.65088 0.01054 0.0
C3898 C 0.04562 0.64522 0.01004 0.0
H3899 H 0.099 0.61886 0.04697 0.0
H3900 H 0.08503 0.63677 0.03983 0.0
H3901 H 0.06032 0.62056 0.03648 0.0
H3902 H 0.02952 0.61098 0.99318 0.0
H3903 H 0.97426 0.62088 0.99399 0.0
H3904 H 0.48623 0.91135 0.76972 0.0
H3905 H 0.43161 0.90153 0.76848 0.0
H3906 H 0.46612 0.86237 0.74225 0.0
H3907 H 0.52138 0.8722 0.7432 0.0
H3908 H 0.40959 0.87585 0.72763 0.0
H3909 H 0.39738 0.8666 0.79747 0.0
H3910 H 0.4106 0.88505 0.79196 0.0
H3911 H 0.43599 0.86933 0.78719 0.0
C3912 C 0.48244 0.90063 0.76368 0.0
C3913 C 0.50833 0.89254 0.75659 0.0
C3914 C 0.45113 0.89502 0.76306 0.0
C3915 C 0.445 0.88116 0.7555 0.0
C3916 C 0.47054 0.87307 0.74823 0.0
H3917 H 0.26452 0.83407 0.76817 0.0
H3918 H 0.32103 0.84132 0.76687 0.0
C3919 C 0.50205 0.87869 0.74882 0.0
C3920 C 0.41169 0.87532 0.75514 0.0
H3921 H 0.34886 0.86586 0.78112 0.0
C3922 C 0.39632 0.87352 0.73929 0.0
C3923 C 0.39468 0.87219 0.77039 0.0
C3924 C 0.41056 0.87324 0.78772 0.0
C3925 C 0.36389 0.86903 0.73832 0.0
C3926 C 0.34649 0.86653 0.75361 0.0
C3927 C 0.36219 0.86796 0.76942 0.0
C3928 C 0.31213 0.86208 0.75361 0.0
C3929 C 0.34866 0.86688 0.72097 0.0
C3930 C 0.28832 0.87144 0.74668 0.0
C3931 C 0.25578 0.8673 0.7473 0.0
C3932 C 0.24657 0.85377 0.75501 0.0
C3933 C 0.27061 0.84453 0.76205 0.0
C3934 C 0.30301 0.84864 0.76134 0.0
H3935 H 0.36716 0.86548 0.7108 0.0
H3936 H 0.3325 0.857 0.7209 0.0
H3937 H 0.33397 0.87684 0.71778 0.0
H3938 H 0.29486 0.88203 0.74099 0.0
H3939 H 0.2379 0.87472 0.74186 0.0
H3940 H 0.73344 0.37135 0.73268 0.0
H3941 H 0.79037 0.37825 0.72934 0.0
H3942 H 0.81419 0.35318 0.77469 0.0
H3943 H 0.75786 0.34588 0.77782 0.0
H3944 H 0.83106 0.39334 0.74924 0.0
H3945 H 0.87746 0.33604 0.74115 0.0
H3946 H 0.83491 0.34035 0.74038 0.0
H3947 H 0.85495 0.33774 0.76062 0.0
C3948 C 0.75083 0.36736 0.74196 0.0
C3949 C 0.74124 0.35796 0.75542 0.0
C3950 C 0.78333 0.37126 0.73999 0.0
C3951 C 0.80662 0.36587 0.75149 0.0
C3952 C 0.79681 0.35702 0.76533 0.0
H3953 H 0.98983 0.40208 0.77796 0.0
H3954 H 0.93356 0.39466 0.77487 0.0
C3955 C 0.76453 0.35298 0.76718 0.0
C3956 C 0.84112 0.36977 0.74942 0.0
H3957 H 0.91673 0.35464 0.74916 0.0
C3958 C 0.84979 0.38488 0.74898 0.0
C3959 C 0.8655 0.35873 0.74863 0.0
C3960 C 0.8577 0.34232 0.74752 0.0
C3961 C 0.88228 0.38925 0.74873 0.0
C3962 C 0.90667 0.37821 0.74946 0.0
C3963 C 0.898 0.3631 0.74894 0.0
C3964 C 0.94116 0.38211 0.75156 0.0
C3965 C 0.89009 0.40567 0.74771 0.0
C3966 C 0.96445 0.37683 0.74001 0.0
C3967 C 0.99691 0.38079 0.74195 0.0
C3968 C 0.00646 0.39016 0.75545 0.0
C3969 C 0.98319 0.39501 0.76729 0.0
C3970 C 0.95094 0.3909 0.76546 0.0
H3971 H 0.87032 0.41198 0.74138 0.0
H3972 H 0.89286 0.41018 0.76083 0.0
H3973 H 0.91287 0.40767 0.74057 0.0
H3974 H 0.95742 0.36988 0.72931 0.0
H3975 H 0.0143 0.3769 0.73262 0.0
H3976 H 0.23903 0.37667 0.50627 0.0
H3977 H 0.29616 0.36978 0.50662 0.0
H3978 H 0.31969 0.40967 0.47845 0.0
H3979 H 0.26279 0.41652 0.47767 0.0
H3980 H 0.34862 0.3848 0.46533 0.0
H3981 H 0.36814 0.3882 0.53539 0.0
H3982 H 0.33518 0.37627 0.52942 0.0
H3983 H 0.33294 0.39593 0.52505 0.0
C3984 C 0.25634 0.38401 0.50019 0.0
C3985 C 0.24628 0.3972 0.49204 0.0
C3986 C 0.289 0.38011 0.50052 0.0
C3987 C 0.31215 0.38937 0.49285 0.0
C3988 C 0.30219 0.40244 0.48456 0.0
H3989 H 0.52093 0.37892 0.5046 0.0
H3990 H 0.46603 0.38909 0.50449 0.0
C3991 C 0.2696 0.40632 0.48416 0.0
C3992 C 0.34666 0.38519 0.49285 0.0
H3993 H 0.41001 0.37674 0.51903 0.0
C3994 C 0.36212 0.38314 0.47706 0.0
C3995 C 0.3643 0.38328 0.50818 0.0
C3996 C 0.34942 0.38617 0.52548 0.0
C3997 C 0.39457 0.37878 0.47619 0.0
C3998 C 0.41174 0.37615 0.49152 0.0
C3999 C 0.39662 0.37865 0.50731 0.0
C4000 C 0.44498 0.37019 0.49141 0.0
C4001 C 0.41019 0.37706 0.45887 0.0
C4002 C 0.45109 0.35616 0.48426 0.0
C4003 C 0.48227 0.35033 0.48425 0.0
C4004 C 0.50799 0.35838 0.49156 0.0
C4005 C 0.50172 0.37243 0.49885 0.0
C4006 C 0.47041 0.37826 0.49881 0.0
H4007 H 0.39719 0.38355 0.44891 0.0
H4008 H 0.4358 0.38073 0.45915 0.0
H4009 H 0.40957 0.36514 0.45508 0.0
H4010 H 0.43164 0.34963 0.47879 0.0
H4011 H 0.48608 0.33947 0.47857 0.0
H4012 H 0.99126 0.84372 0.4701 0.0
H4013 H 0.93462 0.85095 0.47159 0.0
H4014 H 0.95481 0.87815 0.51583 0.0
H4015 H 0.01199 0.87136 0.51406 0.0
H4016 H 0.89168 0.84601 0.49628 0.0
H4017 H 0.90552 0.90697 0.48644 0.0
H4018 H 0.93822 0.89404 0.48301 0.0
H4019 H 0.92797 0.89993 0.50432 0.0
C4020 C 0.98376 0.85136 0.48006 0.0
C4021 C 0.00612 0.85705 0.49191 0.0
C4022 C 0.95134 0.85545 0.48092 0.0
C4023 C 0.94054 0.86521 0.49371 0.0
C4024 C 0.96275 0.87088 0.50562 0.0
H4025 H 0.73388 0.87578 0.51581 0.0
H4026 H 0.7907 0.86827 0.51732 0.0
C4027 C 0.99538 0.86696 0.50462 0.0
C4028 C 0.90583 0.86909 0.49465 0.0
H4029 H 0.85316 0.89828 0.49331 0.0
C4030 C 0.88321 0.85744 0.49563 0.0
C4031 C 0.8949 0.884 0.49366 0.0
C4032 C 0.91788 0.89695 0.49163 0.0
C4033 C 0.8499 0.86027 0.49536 0.0
C4034 C 0.83898 0.87519 0.49463 0.0
C4035 C 0.86162 0.88685 0.49395 0.0
C4036 C 0.80427 0.87905 0.4936 0.0
C4037 C 0.82684 0.84724 0.49523 0.0
C4038 C 0.79316 0.88774 0.4799 0.0
C4039 C 0.76101 0.89224 0.47917 0.0
C4040 C 0.7392 0.88804 0.49207 0.0
C4041 C 0.75009 0.87902 0.50558 0.0
C4042 C 0.7825 0.87469 0.50644 0.0
H4043 H 0.83898 0.83677 0.49118 0.0
H4044 H 0.81726 0.8455 0.50833 0.0
H4045 H 0.80614 0.84934 0.48654 0.0
H4046 H 0.80952 0.89119 0.46983 0.0
H4047 H 0.75332 0.89915 0.46856 0.0
H4048 H 0.48081 0.12891 0.25473 0.0
H4049 H 0.53732 0.13703 0.25443 0.0
H4050 H 0.5645 0.09634 0.22884 0.0
H4051 H 0.50847 0.08822 0.22879 0.0
H4052 H 0.59173 0.12253 0.26875 0.0
H4053 H 0.60322 0.12903 0.19845 0.0
H4054 H 0.56462 0.1276 0.20906 0.0
H4055 H 0.58816 0.11114 0.20495 0.0
C4056 C 0.49878 0.12172 0.24896 0.0
C4057 C 0.49002 0.10794 0.24175 0.0
C4058 C 0.53102 0.12637 0.24884 0.0
C4059 C 0.5549 0.11735 0.24142 0.0
C4060 C 0.5463 0.10357 0.23434 0.0
H4061 H 0.76356 0.1226 0.25426 0.0
H4062 H 0.70686 0.11479 0.25474 0.0
C4063 C 0.5142 0.09893 0.23443 0.0
C4064 C 0.589 0.12216 0.24126 0.0
H4065 H 0.65195 0.12973 0.21452 0.0
C4066 C 0.60492 0.12419 0.25692 0.0
C4067 C 0.60593 0.12441 0.22578 0.0
C4068 C 0.58957 0.12307 0.2086 0.0
C4069 C 0.63765 0.12821 0.2575 0.0
C4070 C 0.65484 0.12998 0.24201 0.0
C4071 C 0.63875 0.12816 0.22637 0.0
C4072 C 0.68919 0.13444 0.24168 0.0
C4073 C 0.65339 0.13077 0.27465 0.0
C4074 C 0.698 0.14784 0.23376 0.0
C4075 C 0.73022 0.15225 0.23331 0.0
C4076 C 0.7544 0.14334 0.24078 0.0
C4077 C 0.74555 0.12977 0.24848 0.0
C4078 C 0.71317 0.12533 0.24888 0.0
H4079 H 0.63523 0.13238 0.28495 0.0
H4080 H 0.66831 0.12091 0.27801 0.0
H4081 H 0.66947 0.14067 0.27427 0.0
H4082 H 0.67983 0.15497 0.22805 0.0
H4083 H 0.73605 0.16274 0.22717 0.0
H4084 H 0.97644 0.62708 0.25537 0.0
H4085 H 0.03212 0.63643 0.2561 0.0
H4086 H 0.06604 0.59497 0.2348 0.0
H4087 H 0.01104 0.58557 0.23382 0.0
H4088 H 0.08858 0.62347 0.27259 0.0
H4089 H 0.10093 0.62752 0.20205 0.0
H4090 H 0.06224 0.62602 0.21258 0.0
H4091 H 0.08683 0.60973 0.20952 0.0
C4092 C 0.99575 0.61996 0.25085 0.0
C4093 C 0.98917 0.60561 0.24445 0.0
C4094 C 0.02749 0.6253 0.25131 0.0
C4095 C 0.05297 0.61643 0.24529 0.0
C4096 C 0.04657 0.60205 0.23924 0.0
H4097 H 0.26059 0.62422 0.25779 0.0
H4098 H 0.20391 0.61646 0.25917 0.0
C4099 C 0.01504 0.5967 0.23876 0.0
C4100 C 0.08641 0.6221 0.24513 0.0
H4101 H 0.14918 0.62975 0.21832 0.0
C4102 C 0.10185 0.62496 0.26076 0.0
C4103 C 0.1034 0.62412 0.22963 0.0
C4104 C 0.08747 0.62183 0.21247 0.0
C4105 C 0.13429 0.62949 0.26128 0.0
C4106 C 0.1516 0.63097 0.24579 0.0
C4107 C 0.13589 0.62842 0.23018 0.0
C4108 C 0.18581 0.63564 0.24537 0.0
C4109 C 0.14964 0.6328 0.27836 0.0
C4110 C 0.19435 0.64877 0.23681 0.0
C4111 C 0.22655 0.65316 0.23585 0.0
C4112 C 0.25099 0.64447 0.24343 0.0
C4113 C 0.24238 0.63121 0.25189 0.0
C4114 C 0.21002 0.62681 0.25281 0.0
H4115 H 0.13125 0.63457 0.2885 0.0
H4116 H 0.165 0.62323 0.2822 0.0
H4117 H 0.16523 0.64285 0.27758 0.0
H4118 H 0.176 0.65567 0.23089 0.0
H4119 H 0.23218 0.6634 0.22915 0.0
H4120 H 0.75997 0.62089 0.48333 0.0
H4121 H 0.70307 0.62815 0.4812 0.0
H4122 H 0.68214 0.60364 0.52737 0.0
H4123 H 0.73843 0.59596 0.52927 0.0
H4124 H 0.63913 0.59756 0.50294 0.0
H4125 H 0.65467 0.65886 0.50856 0.0
H4126 H 0.67681 0.65064 0.49124 0.0
H4127 H 0.68698 0.64594 0.51294 0.0
C4128 C 0.74327 0.6172 0.49312 0.0
C4129 C 0.75366 0.60788 0.50648 0.0
C4130 C 0.7108 0.62138 0.49191 0.0
C4131 C 0.68845 0.61656 0.50424 0.0
C4132 C 0.69896 0.60746 0.5177 0.0
H4133 H 0.50331 0.65209 0.52957 0.0
H4134 H 0.5594 0.64408 0.52764 0.0
C4135 C 0.73118 0.60311 0.51879 0.0
C4136 C 0.65386 0.6206 0.50305 0.0
H4137 H 0.60191 0.65009 0.50299 0.0
C4138 C 0.63094 0.60905 0.50293 0.0
C4139 C 0.64331 0.63559 0.50314 0.0
C4140 C 0.66668 0.64848 0.50414 0.0
C4141 C 0.59772 0.61206 0.50328 0.0
C4142 C 0.58718 0.62705 0.50323 0.0
C4143 C 0.61009 0.6386 0.50295 0.0
C4144 C 0.55262 0.63111 0.50457 0.0
C4145 C 0.57436 0.59917 0.50441 0.0
C4146 C 0.53005 0.62633 0.49233 0.0
C4147 C 0.49771 0.6307 0.49357 0.0
C4148 C 0.48767 0.64017 0.50687 0.0
C4149 C 0.51032 0.64483 0.51914 0.0
C4150 C 0.54241 0.6403 0.51803 0.0
H4151 H 0.58644 0.58879 0.5088 0.0
H4152 H 0.55421 0.60173 0.51331 0.0
H4153 H 0.56401 0.597 0.49157 0.0
H4154 H 0.53755 0.6195 0.48164 0.0
H4155 H 0.48085 0.62709 0.48382 0.0
H4156 H 0.01585 0.16447 0.51471 0.0
H4157 H 0.0719 0.15653 0.51374 0.0
H4158 H 0.04307 0.11442 0.49195 0.0
H4159 H 0.98646 0.12238 0.49252 0.0
H4160 H 0.09842 0.13243 0.53024 0.0
H4161 H 0.11571 0.12833 0.45993 0.0
H4162 H 0.08181 0.13791 0.46943 0.0
H4163 H 0.08208 0.11791 0.46819 0.0
C4164 C 0.02124 0.15355 0.50955 0.0
C4165 C 0.99654 0.14409 0.5036 0.0
C4166 C 0.05338 0.14904 0.50904 0.0
C4167 C 0.06163 0.13499 0.50258 0.0
C4168 C 0.03719 0.12544 0.49666 0.0
H4169 H 0.23967 0.08816 0.52115 0.0
H4170 H 0.18399 0.09672 0.51969 0.0
C4171 C 0.00487 0.12997 0.4971 0.0
C4172 C 0.09577 0.13021 0.50285 0.0
H4173 H 0.15875 0.11969 0.4774 0.0
C4174 C 0.11164 0.12966 0.51869 0.0
C4175 C 0.11297 0.12682 0.48773 0.0
C4176 C 0.09743 0.12788 0.47032 0.0
C4177 C 0.14424 0.12564 0.51985 0.0
C4178 C 0.16119 0.12183 0.50479 0.0
C4179 C 0.14551 0.12256 0.48891 0.0
C4180 C 0.19504 0.11671 0.50539 0.0
C4181 C 0.16038 0.12565 0.53716 0.0
C4182 C 0.2196 0.12503 0.49754 0.0
C4183 C 0.25165 0.12016 0.49829 0.0
C4184 C 0.25951 0.10682 0.5068 0.0
C4185 C 0.23463 0.0985 0.51453 0.0
C4186 C 0.20273 0.10339 0.51378 0.0
H4187 H 0.1467 0.13242 0.5466 0.0
H4188 H 0.16168 0.11405 0.54203 0.0
H4189 H 0.18538 0.13007 0.53628 0.0
H4190 H 0.21398 0.13533 0.49096 0.0
H4191 H 0.27017 0.1268 0.49215 0.0
loop_
_geom_bond_atom_site_label_1
_geom_bond_atom_site_label_2
_geom_bond_distance
_geom_bond_site_symmetry_2
_ccdc_geom_bond_type
Co0 O2 2.143 . S
Co0 O8 2.074 . S
Co0 O11 2.093 . S
Co0 O24 2.097 . S
Co0 N41 2.151 . S
Co0 N49 2.214 . S
Co1 O2 2.160 . S
Co1 O7 2.058 . S
Co1 O17 2.057 . S
Co1 O32 2.037 . S
Co1 N36 2.145 . S
Co1 N57 2.257 . S
O2 Co0 2.143 . S
O2 Co1 2.160 . S
C3 O4 1.278 . S
C3 O11 1.224 . S
O4 C3 1.278 . S
C5 O6 1.245 . S
C5 O17 1.232 . S
O6 C5 1.245 . S
O7 Co1 2.058 . S
O7 C33 1.269 . S
O8 Co0 2.074 . S
O8 C33 1.257 . S
H9 C34 0.930 . S
H10 C40 0.930 . S
O11 Co0 2.093 . S
O11 C3 1.224 . S
H12 C44 0.929 . S
H13 C46 0.930 . S
H14 C47 0.930 . S
H15 C45 0.929 . S
H16 C48 0.928 . S
O17 Co1 2.057 . S
O17 C5 1.232 . S
H18 C37 0.929 . S
H19 C38 0.929 . S
H20 C50 0.931 . S
H21 C42 0.929 . S
H22 C51 0.930 . S
H23 C43 0.931 . S
O24 Co0 2.097 . S
O24 C52 1.214 . S
H25 C53 0.929 . S
H26 C54 0.929 . S
H27 C55 0.930 . S
H28 C56 0.929 . S
H29 C58 0.930 . S
H30 C35 0.930 . S
H31 C39 0.930 . S
O32 Co1 2.037 . S
O32 C52 1.234 . S
C33 O7 1.269 . S
C33 O8 1.257 . S
C34 H9 0.930 . S
C34 C37 1.388 . S
C34 C39 1.418 . S
C35 H30 0.930 . S
C35 C38 1.404 . S
C35 C39 1.353 . S
N36 Co1 2.145 . S
N36 C37 1.397 . S
N36 C38 1.334 . S
C37 H18 0.929 . S
C37 C34 1.388 . S
C37 N36 1.397 . S
C38 H19 0.929 . S
C38 C35 1.404 . S
C38 N36 1.334 . S
C39 H31 0.930 . S
C39 C34 1.418 . S
C39 C35 1.353 . S
C40 H10 0.930 . S
C40 N41 1.330 . S
C40 C42 1.446 . S
N41 Co0 2.151 . S
N41 C40 1.330 . S
N41 C45 1.418 . S
C42 H21 0.929 . S
C42 C40 1.446 . S
C42 C43 1.332 . S
C43 H23 0.931 . S
C43 C42 1.332 . S
C43 C44 1.267 . S
C44 H12 0.929 . S
C44 C43 1.267 . S
C44 C45 1.251 . S
C45 H15 0.929 . S
C45 N41 1.418 . S
C45 C44 1.251 . S
C46 H13 0.930 . S
C46 C48 1.406 . S
C46 C51 1.261 . S
C47 H14 0.930 . S
C47 N49 1.325 . S
C47 C50 1.357 . S
C48 H16 0.928 . S
C48 C46 1.406 . S
C48 N49 1.261 . S
N49 Co0 2.214 . S
N49 C47 1.325 . S
N49 C48 1.261 . S
C50 H20 0.931 . S
C50 C47 1.357 . S
C50 C51 1.312 . S
C51 H22 0.930 . S
C51 C46 1.261 . S
C51 C50 1.312 . S
C52 O24 1.214 . S
C52 O32 1.234 . S
C53 H25 0.929 . S
C53 C56 1.391 . S
C53 C58 1.391 . S
C54 H26 0.929 . S
C54 C55 1.390 . S
C54 N57 1.391 . S
C55 H27 0.930 . S
C55 C54 1.390 . S
C55 C56 1.392 . S
C56 H28 0.929 . S
C56 C53 1.391 . S
C56 C55 1.392 . S
N57 Co1 2.257 . S
N57 C54 1.391 . S
N57 C58 1.388 . S
C58 H29 0.930 . S
C58 C53 1.391 . S
C58 N57 1.388 . S
Co59 O61 2.143 . S
Co59 O67 2.074 . S
Co59 O70 2.093 . S
Co59 O83 2.097 . S
Co59 N100 2.151 . S
Co59 N108 2.214 . S
Co60 O61 2.160 . S
Co60 O66 2.058 . S
Co60 O76 2.057 . S
Co60 O91 2.037 . S
Co60 N95 2.145 . S
Co60 N116 2.257 . S
O61 Co59 2.143 . S
O61 Co60 2.160 . S
C62 O63 1.278 . S
C62 O70 1.224 . S
O63 C62 1.278 . S
C64 O65 1.245 . S
C64 O76 1.232 . S
O65 C64 1.245 . S
O66 Co60 2.058 . S
O66 C92 1.269 . S
O67 Co59 2.074 . S
O67 C92 1.257 . S
H68 C93 0.930 . S
H69 C99 0.930 . S
O70 Co59 2.093 . S
O70 C62 1.224 . S
H71 C103 0.929 . S
H72 C105 0.930 . S
H73 C106 0.930 . S
H74 C104 0.929 . S
H75 C107 0.928 . S
O76 Co60 2.057 . S
O76 C64 1.232 . S
H77 C96 0.929 . S
H78 C97 0.929 . S
H79 C109 0.931 . S
H80 C101 0.929 . S
H81 C110 0.930 . S
H82 C102 0.931 . S
O83 Co59 2.097 . S
O83 C111 1.214 . S
H84 C112 0.929 . S
H85 C113 0.929 . S
H86 C114 0.930 . S
H87 C115 0.929 . S
H88 C117 0.930 . S
H89 C94 0.930 . S
H90 C98 0.930 . S
O91 Co60 2.037 . S
O91 C111 1.234 . S
C92 O66 1.269 . S
C92 O67 1.257 . S
C93 H68 0.930 . S
C93 C96 1.388 . S
C93 C98 1.418 . S
C94 H89 0.930 . S
C94 C97 1.404 . S
C94 C98 1.353 . S
N95 Co60 2.145 . S
N95 C96 1.397 . S
N95 C97 1.334 . S
C96 H77 0.929 . S
C96 C93 1.388 . S
C96 N95 1.397 . S
C97 H78 0.929 . S
C97 C94 1.404 . S
C97 N95 1.334 . S
C98 H90 0.930 . S
C98 C93 1.418 . S
C98 C94 1.353 . S
C99 H69 0.930 . S
C99 N100 1.330 . S
C99 C101 1.446 . S
N100 Co59 2.151 . S
N100 C99 1.330 . S
N100 C104 1.418 . S
C101 H80 0.929 . S
C101 C99 1.446 . S
C101 C102 1.332 . S
C102 H82 0.931 . S
C102 C101 1.332 . S
C102 C103 1.267 . S
C103 H71 0.929 . S
C103 C102 1.267 . S
C103 C104 1.251 . S
C104 H74 0.929 . S
C104 N100 1.418 . S
C104 C103 1.251 . S
C105 H72 0.930 . S
C105 C107 1.406 . S
C105 C110 1.261 . S
C106 H73 0.930 . S
C106 N108 1.325 . S
C106 C109 1.357 . S
C107 H75 0.928 . S
C107 C105 1.406 . S
C107 N108 1.261 . S
N108 Co59 2.214 . S
N108 C106 1.325 . S
N108 C107 1.261 . S
C109 H79 0.931 . S
C109 C106 1.357 . S
C109 C110 1.312 . S
C110 H81 0.930 . S
C110 C105 1.261 . S
C110 C109 1.312 . S
C111 O83 1.214 . S
C111 O91 1.234 . S
C112 H84 0.929 . S
C112 C115 1.391 . S
C112 C117 1.391 . S
C113 H85 0.929 . S
C113 C114 1.390 . S
C113 N116 1.391 . S
C114 H86 0.930 . S
C114 C113 1.390 . S
C114 C115 1.392 . S
C115 H87 0.929 . S
C115 C112 1.391 . S
C115 C114 1.392 . S
N116 Co60 2.257 . S
N116 C113 1.391 . S
N116 C117 1.388 . S
C117 H88 0.930 . S
C117 C112 1.391 . S
C117 N116 1.388 . S
Co118 O120 2.143 . S
Co118 O126 2.074 1_554 S
Co118 O129 2.093 . S
Co118 O142 2.097 . S
Co118 N159 2.151 . S
Co118 N167 2.214 . S
Co119 O120 2.160 1_556 S
Co119 O125 2.058 . S
Co119 O135 2.057 . S
Co119 O150 2.037 . S
Co119 N154 2.145 . S
Co119 N175 2.257 1_556 S
O120 Co118 2.143 . S
O120 Co119 2.160 1_554 S
C121 O122 1.278 . S
C121 O129 1.224 . S
O122 C121 1.278 . S
C123 O124 1.241 . S
C123 O135 1.232 . S
O124 C123 1.241 . S
O125 Co119 2.058 . S
O125 C151 1.269 . S
O126 Co118 2.074 1_556 S
O126 C151 1.257 . S
H127 C152 0.930 . S
H128 C158 0.930 . S
O129 Co118 2.093 . S
O129 C121 1.224 . S
H130 C162 0.929 . S
H131 C164 0.930 . S
H132 C165 0.930 . S
H133 C163 0.929 . S
H134 C166 0.928 . S
O135 Co119 2.057 . S
O135 C123 1.232 . S
H136 C155 0.929 . S
H137 C156 0.929 . S
H138 C168 0.931 . S
H139 C160 0.929 . S
H140 C169 0.925 1_556 S
H141 C161 0.931 . S
O142 Co118 2.097 . S
O142 C170 1.214 1_554 S
H143 C171 0.929 . S
H144 C172 0.932 1_556 S
H145 C173 0.930 . S
H146 C174 0.929 . S
H147 C176 0.930 . S
H148 C153 0.930 . S
H149 C157 0.930 . S
O150 Co119 2.037 . S
O150 C170 1.234 . S
C151 O125 1.269 . S
C151 O126 1.257 . S
C152 H127 0.930 . S
C152 C155 1.388 . S
C152 C157 1.418 . S
C153 H148 0.930 . S
C153 C156 1.404 . S
C153 C157 1.353 . S
N154 Co119 2.145 . S
N154 C155 1.397 . S
N154 C156 1.334 . S
C155 H136 0.929 . S
C155 C152 1.388 . S
C155 N154 1.397 . S
C156 H137 0.929 . S
C156 C153 1.404 . S
C156 N154 1.334 . S
C157 H149 0.930 . S
C157 C152 1.418 . S
C157 C153 1.353 . S
C158 H128 0.930 . S
C158 N159 1.330 . S
C158 C160 1.446 . S
N159 Co118 2.151 . S
N159 C158 1.330 . S
N159 C163 1.418 1_554 S
C160 H139 0.929 . S
C160 C158 1.446 . S
C160 C161 1.332 . S
C161 H141 0.931 . S
C161 C160 1.332 . S
C161 C162 1.267 1_554 S
C162 H130 0.929 . S
C162 C161 1.267 1_556 S
C162 C163 1.251 . S
C163 H133 0.929 . S
C163 N159 1.418 1_556 S
C163 C162 1.251 . S
C164 H131 0.930 . S
C164 C166 1.406 . S
C164 C169 1.282 . S
C165 H132 0.930 . S
C165 N167 1.325 1_556 S
C165 C168 1.357 . S
C166 H134 0.928 . S
C166 C164 1.406 . S
C166 N167 1.261 . S
N167 Co118 2.214 . S
N167 C165 1.325 1_554 S
N167 C166 1.261 . S
C168 H138 0.931 . S
C168 C165 1.357 . S
C168 C169 1.295 1_556 S
C169 H140 0.925 1_554 S
C169 C164 1.282 . S
C169 C168 1.295 1_554 S
C170 O142 1.214 1_556 S
C170 O150 1.234 . S
C171 H143 0.929 . S
C171 C174 1.391 . S
C171 C176 1.391 . S
C172 H144 0.932 1_554 S
C172 C173 1.390 . S
C172 N175 1.391 . S
C173 H145 0.930 . S
C173 C172 1.390 . S
C173 C174 1.392 . S
C174 H146 0.929 . S
C174 C171 1.391 . S
C174 C173 1.392 . S
N175 Co119 2.257 1_554 S
N175 C172 1.391 . S
N175 C176 1.388 . S
C176 H147 0.930 . S
C176 C171 1.391 . S
C176 N175 1.388 . S
Co177 O179 2.143 . S
Co177 O185 2.074 1_554 S
Co177 O188 2.093 . S
Co177 O201 2.097 . S
Co177 N218 2.151 . S
Co177 N226 2.214 . S
Co178 O179 2.160 1_556 S
Co178 O184 2.058 . S
Co178 O194 2.057 . S
Co178 O209 2.037 . S
Co178 N213 2.145 . S
Co178 N234 2.257 1_556 S
O179 Co177 2.143 . S
O179 Co178 2.160 1_554 S
C180 O181 1.278 . S
C180 O188 1.224 . S
O181 C180 1.278 . S
C182 O183 1.241 . S
C182 O194 1.232 . S
O183 C182 1.241 . S
O184 Co178 2.058 . S
O184 C210 1.269 . S
O185 Co177 2.074 1_556 S
O185 C210 1.257 . S
H186 C211 0.930 . S
H187 C217 0.930 . S
O188 Co177 2.093 . S
O188 C180 1.224 . S
H189 C221 0.929 . S
H190 C223 0.930 . S
H191 C224 0.930 . S
H192 C222 0.929 . S
H193 C225 0.928 . S
O194 Co178 2.057 . S
O194 C182 1.232 . S
H195 C214 0.929 . S
H196 C215 0.929 . S
H197 C227 0.931 . S
H198 C219 0.929 . S
H199 C228 0.925 1_556 S
H200 C220 0.931 . S
O201 Co177 2.097 . S
O201 C229 1.214 1_554 S
H202 C230 0.929 . S
H203 C231 0.932 1_556 S
H204 C232 0.930 . S
H205 C233 0.929 . S
H206 C235 0.930 . S
H207 C212 0.930 . S
H208 C216 0.930 . S
O209 Co178 2.037 . S
O209 C229 1.234 . S
C210 O184 1.269 . S
C210 O185 1.257 . S
C211 H186 0.930 . S
C211 C214 1.388 . S
C211 C216 1.418 . S
C212 H207 0.930 . S
C212 C215 1.404 . S
C212 C216 1.353 . S
N213 Co178 2.145 . S
N213 C214 1.397 . S
N213 C215 1.334 . S
C214 H195 0.929 . S
C214 C211 1.388 . S
C214 N213 1.397 . S
C215 H196 0.929 . S
C215 C212 1.404 . S
C215 N213 1.334 . S
C216 H208 0.930 . S
C216 C211 1.418 . S
C216 C212 1.353 . S
C217 H187 0.930 . S
C217 N218 1.330 . S
C217 C219 1.446 . S
N218 Co177 2.151 . S
N218 C217 1.330 . S
N218 C222 1.418 1_554 S
C219 H198 0.929 . S
C219 C217 1.446 . S
C219 C220 1.332 . S
C220 H200 0.931 . S
C220 C219 1.332 . S
C220 C221 1.267 1_554 S
C221 H189 0.929 . S
C221 C220 1.267 1_556 S
C221 C222 1.251 . S
C222 H192 0.929 . S
C222 N218 1.418 1_556 S
C222 C221 1.251 . S
C223 H190 0.930 . S
C223 C225 1.406 . S
C223 C228 1.282 . S
C224 H191 0.930 . S
C224 N226 1.325 1_556 S
C224 C227 1.357 . S
C225 H193 0.928 . S
C225 C223 1.406 . S
C225 N226 1.261 . S
N226 Co177 2.214 . S
N226 C224 1.325 1_554 S
N226 C225 1.261 . S
C227 H197 0.931 . S
C227 C224 1.357 . S
C227 C228 1.295 1_556 S
C228 H199 0.925 1_554 S
C228 C223 1.282 . S
C228 C227 1.295 1_554 S
C229 O201 1.214 1_556 S
C229 O209 1.234 . S
C230 H202 0.929 . S
C230 C233 1.391 . S
C230 C235 1.391 . S
C231 H203 0.932 1_554 S
C231 C232 1.390 . S
C231 N234 1.391 . S
C232 H204 0.930 . S
C232 C231 1.390 . S
C232 C233 1.392 . S
C233 H205 0.929 . S
C233 C230 1.391 . S
C233 C232 1.392 . S
N234 Co178 2.257 1_554 S
N234 C231 1.391 . S
N234 C235 1.388 . S
C235 H206 0.930 . S
C235 C230 1.391 . S
C235 N234 1.388 . S
Co236 O238 2.143 . S
Co236 O244 2.074 . S
Co236 O247 2.093 . S
Co236 O260 2.097 . S
Co236 N277 2.151 . S
Co236 N285 2.214 . S
Co237 O238 2.160 . S
Co237 O243 2.058 . S
Co237 O253 2.057 . S
Co237 O268 2.037 . S
Co237 N272 2.145 . S
Co237 N293 2.257 . S
O238 Co236 2.143 . S
O238 Co237 2.160 . S
C239 O240 1.278 . S
C239 O247 1.224 . S
O240 C239 1.278 . S
C241 O242 1.245 . S
C241 O253 1.232 . S
O242 C241 1.245 . S
O243 Co237 2.058 . S
O243 C269 1.269 . S
O244 Co236 2.074 . S
O244 C269 1.257 . S
H245 C270 0.930 . S
H246 C276 0.930 . S
O247 Co236 2.093 . S
O247 C239 1.224 . S
H248 C280 0.929 . S
H249 C282 0.930 . S
H250 C283 0.930 . S
H251 C281 0.929 . S
H252 C284 0.928 . S
O253 Co237 2.057 . S
O253 C241 1.232 . S
H254 C273 0.929 . S
H255 C274 0.929 . S
H256 C286 0.931 . S
H257 C278 0.929 . S
H258 C287 0.930 . S
H259 C279 0.931 . S
O260 Co236 2.097 . S
O260 C288 1.214 . S
H261 C289 0.929 . S
H262 C290 0.929 . S
H263 C291 0.930 . S
H264 C292 0.929 . S
H265 C294 0.930 . S
H266 C271 0.930 . S
H267 C275 0.930 . S
O268 Co237 2.037 . S
O268 C288 1.234 . S
C269 O243 1.269 . S
C269 O244 1.257 . S
C270 H245 0.930 . S
C270 C273 1.388 . S
C270 C275 1.418 . S
C271 H266 0.930 . S
C271 C274 1.404 . S
C271 C275 1.353 . S
N272 Co237 2.145 . S
N272 C273 1.397 . S
N272 C274 1.334 . S
C273 H254 0.929 . S
C273 C270 1.388 . S
C273 N272 1.397 . S
C274 H255 0.929 . S
C274 C271 1.404 . S
C274 N272 1.334 . S
C275 H267 0.930 . S
C275 C270 1.418 . S
C275 C271 1.353 . S
C276 H246 0.930 . S
C276 N277 1.330 . S
C276 C278 1.446 . S
N277 Co236 2.151 . S
N277 C276 1.330 . S
N277 C281 1.418 . S
C278 H257 0.929 . S
C278 C276 1.446 . S
C278 C279 1.332 . S
C279 H259 0.931 . S
C279 C278 1.332 . S
C279 C280 1.267 . S
C280 H248 0.929 . S
C280 C279 1.267 . S
C280 C281 1.251 . S
C281 H251 0.929 . S
C281 N277 1.418 . S
C281 C280 1.251 . S
C282 H249 0.930 . S
C282 C284 1.406 . S
C282 C287 1.261 . S
C283 H250 0.930 . S
C283 N285 1.325 . S
C283 C286 1.357 . S
C284 H252 0.928 . S
C284 C282 1.406 . S
C284 N285 1.261 . S
N285 Co236 2.214 . S
N285 C283 1.325 . S
N285 C284 1.261 . S
C286 H256 0.931 . S
C286 C283 1.357 . S
C286 C287 1.312 . S
C287 H258 0.930 . S
C287 C282 1.261 . S
C287 C286 1.312 . S
C288 O260 1.214 . S
C288 O268 1.234 . S
C289 H261 0.929 . S
C289 C292 1.391 . S
C289 C294 1.391 . S
C290 H262 0.929 . S
C290 C291 1.390 . S
C290 N293 1.391 . S
C291 H263 0.930 . S
C291 C290 1.390 . S
C291 C292 1.392 . S
C292 H264 0.929 . S
C292 C289 1.391 . S
C292 C291 1.392 . S
N293 Co237 2.257 . S
N293 C290 1.391 . S
N293 C294 1.388 . S
C294 H265 0.930 . S
C294 C289 1.391 . S
C294 N293 1.388 . S
Co295 O297 2.143 . S
Co295 O303 2.074 . S
Co295 O306 2.093 . S
Co295 O319 2.097 . S
Co295 N336 2.151 . S
Co295 N344 2.214 . S
Co296 O297 2.160 . S
Co296 O302 2.058 . S
Co296 O312 2.057 . S
Co296 O327 2.037 . S
Co296 N331 2.145 . S
Co296 N352 2.257 . S
O297 Co295 2.143 . S
O297 Co296 2.160 . S
C298 O299 1.278 . S
C298 O306 1.224 . S
O299 C298 1.278 . S
C300 O301 1.245 . S
C300 O312 1.232 . S
O301 C300 1.245 . S
O302 Co296 2.058 . S
O302 C328 1.269 . S
O303 Co295 2.074 . S
O303 C328 1.257 . S
H304 C329 0.930 . S
H305 C335 0.930 . S
O306 Co295 2.093 . S
O306 C298 1.224 . S
H307 C339 0.929 . S
H308 C341 0.930 . S
H309 C342 0.930 . S
H310 C340 0.929 . S
H311 C343 0.928 . S
O312 Co296 2.057 . S
O312 C300 1.232 . S
H313 C332 0.929 . S
H314 C333 0.929 . S
H315 C345 0.931 . S
H316 C337 0.929 . S
H317 C346 0.930 . S
H318 C338 0.931 . S
O319 Co295 2.097 . S
O319 C347 1.214 . S
H320 C348 0.929 . S
H321 C349 0.929 . S
H322 C350 0.930 . S
H323 C351 0.929 . S
H324 C353 0.930 . S
H325 C330 0.930 . S
H326 C334 0.930 . S
O327 Co296 2.037 . S
O327 C347 1.234 . S
C328 O302 1.269 . S
C328 O303 1.257 . S
C329 H304 0.930 . S
C329 C332 1.388 . S
C329 C334 1.418 . S
C330 H325 0.930 . S
C330 C333 1.404 . S
C330 C334 1.353 . S
N331 Co296 2.145 . S
N331 C332 1.397 . S
N331 C333 1.334 . S
C332 H313 0.929 . S
C332 C329 1.388 . S
C332 N331 1.397 . S
C333 H314 0.929 . S
C333 C330 1.404 . S
C333 N331 1.334 . S
C334 H326 0.930 . S
C334 C329 1.418 . S
C334 C330 1.353 . S
C335 H305 0.930 . S
C335 N336 1.330 . S
C335 C337 1.446 . S
N336 Co295 2.151 . S
N336 C335 1.330 . S
N336 C340 1.418 . S
C337 H316 0.929 . S
C337 C335 1.446 . S
C337 C338 1.332 . S
C338 H318 0.931 . S
C338 C337 1.332 . S
C338 C339 1.267 . S
C339 H307 0.929 . S
C339 C338 1.267 . S
C339 C340 1.251 . S
C340 H310 0.929 . S
C340 N336 1.418 . S
C340 C339 1.251 . S
C341 H308 0.930 . S
C341 C343 1.406 . S
C341 C346 1.261 . S
C342 H309 0.930 . S
C342 N344 1.325 . S
C342 C345 1.357 . S
C343 H311 0.928 . S
C343 C341 1.406 . S
C343 N344 1.261 . S
N344 Co295 2.214 . S
N344 C342 1.325 . S
N344 C343 1.261 . S
C345 H315 0.931 . S
C345 C342 1.357 . S
C345 C346 1.312 . S
C346 H317 0.930 . S
C346 C341 1.261 . S
C346 C345 1.312 . S
C347 O319 1.214 . S
C347 O327 1.234 . S
C348 H320 0.929 . S
C348 C351 1.391 . S
C348 C353 1.391 . S
C349 H321 0.929 . S
C349 C350 1.390 . S
C349 N352 1.391 . S
C350 H322 0.930 . S
C350 C349 1.390 . S
C350 C351 1.392 . S
C351 H323 0.929 . S
C351 C348 1.391 . S
C351 C350 1.392 . S
N352 Co296 2.257 . S
N352 C349 1.391 . S
N352 C353 1.388 . S
C353 H324 0.930 . S
C353 C348 1.391 . S
C353 N352 1.388 . S
Co354 O356 2.143 . S
Co354 O362 2.074 1_556 S
Co354 O365 2.093 . S
Co354 O378 2.097 . S
Co354 N395 2.151 . S
Co354 N403 2.214 . S
Co355 O356 2.160 1_554 S
Co355 O361 2.058 . S
Co355 O371 2.057 . S
Co355 O386 2.037 . S
Co355 N390 2.145 . S
Co355 N411 2.257 1_554 S
O356 Co354 2.143 . S
O356 Co355 2.160 1_556 S
C357 O358 1.278 . S
C357 O365 1.224 . S
O358 C357 1.278 . S
C359 O360 1.241 . S
C359 O371 1.232 . S
O360 C359 1.241 . S
O361 Co355 2.058 . S
O361 C387 1.269 . S
O362 Co354 2.074 1_554 S
O362 C387 1.257 . S
H363 C388 0.930 . S
H364 C394 0.930 . S
O365 Co354 2.093 . S
O365 C357 1.224 . S
H366 C398 0.929 . S
H367 C400 0.930 . S
H368 C401 0.930 . S
H369 C399 0.929 . S
H370 C402 0.928 . S
O371 Co355 2.057 . S
O371 C359 1.232 . S
H372 C391 0.929 . S
H373 C392 0.929 . S
H374 C404 0.931 . S
H375 C396 0.929 . S
H376 C405 0.925 1_554 S
H377 C397 0.931 . S
O378 Co354 2.097 . S
O378 C406 1.214 1_556 S
H379 C407 0.929 . S
H380 C408 0.932 1_554 S
H381 C409 0.930 . S
H382 C410 0.929 . S
H383 C412 0.930 . S
H384 C389 0.930 . S
H385 C393 0.930 . S
O386 Co355 2.037 . S
O386 C406 1.234 . S
C387 O361 1.269 . S
C387 O362 1.257 . S
C388 H363 0.930 . S
C388 C391 1.388 . S
C388 C393 1.418 . S
C389 H384 0.930 . S
C389 C392 1.404 . S
C389 C393 1.353 . S
N390 Co355 2.145 . S
N390 C391 1.397 . S
N390 C392 1.334 . S
C391 H372 0.929 . S
C391 C388 1.388 . S
C391 N390 1.397 . S
C392 H373 0.929 . S
C392 C389 1.404 . S
C392 N390 1.334 . S
C393 H385 0.930 . S
C393 C388 1.418 . S
C393 C389 1.353 . S
C394 H364 0.930 . S
C394 N395 1.330 . S
C394 C396 1.446 . S
N395 Co354 2.151 . S
N395 C394 1.330 . S
N395 C399 1.418 1_556 S
C396 H375 0.929 . S
C396 C394 1.446 . S
C396 C397 1.332 . S
C397 H377 0.931 . S
C397 C396 1.332 . S
C397 C398 1.267 1_556 S
C398 H366 0.929 . S
C398 C397 1.267 1_554 S
C398 C399 1.251 . S
C399 H369 0.929 . S
C399 N395 1.418 1_554 S
C399 C398 1.251 . S
C400 H367 0.930 . S
C400 C402 1.406 . S
C400 C405 1.282 . S
C401 H368 0.930 . S
C401 N403 1.325 1_554 S
C401 C404 1.357 . S
C402 H370 0.928 . S
C402 C400 1.406 . S
C402 N403 1.261 . S
N403 Co354 2.214 . S
N403 C401 1.325 1_556 S
N403 C402 1.261 . S
C404 H374 0.931 . S
C404 C401 1.357 . S
C404 C405 1.295 1_554 S
C405 H376 0.925 1_556 S
C405 C400 1.282 . S
C405 C404 1.295 1_556 S
C406 O378 1.214 1_554 S
C406 O386 1.234 . S
C407 H379 0.929 . S
C407 C410 1.391 . S
C407 C412 1.391 . S
C408 H380 0.932 1_556 S
C408 C409 1.390 . S
C408 N411 1.391 . S
C409 H381 0.930 . S
C409 C408 1.390 . S
C409 C410 1.392 . S
C410 H382 0.929 . S
C410 C407 1.391 . S
C410 C409 1.392 . S
N411 Co355 2.257 1_556 S
N411 C408 1.391 . S
N411 C412 1.388 . S
C412 H383 0.930 . S
C412 C407 1.391 . S
C412 N411 1.388 . S
Co413 O415 2.143 . S
Co413 O421 2.074 1_556 S
Co413 O424 2.093 . S
Co413 O437 2.097 . S
Co413 N454 2.151 . S
Co413 N462 2.214 . S
Co414 O415 2.160 1_554 S
Co414 O420 2.058 . S
Co414 O430 2.057 . S
Co414 O445 2.037 . S
Co414 N449 2.145 . S
Co414 N470 2.257 1_554 S
O415 Co413 2.143 . S
O415 Co414 2.160 1_556 S
C416 O417 1.278 . S
C416 O424 1.224 . S
O417 C416 1.278 . S
C418 O419 1.241 . S
C418 O430 1.232 . S
O419 C418 1.241 . S
O420 Co414 2.058 . S
O420 C446 1.269 . S
O421 Co413 2.074 1_554 S
O421 C446 1.257 . S
H422 C447 0.930 . S
H423 C453 0.930 . S
O424 Co413 2.093 . S
O424 C416 1.224 . S
H425 C457 0.929 . S
H426 C459 0.930 . S
H427 C460 0.930 . S
H428 C458 0.929 . S
H429 C461 0.928 . S
O430 Co414 2.057 . S
O430 C418 1.232 . S
H431 C450 0.929 . S
H432 C451 0.929 . S
H433 C463 0.931 . S
H434 C455 0.929 . S
H435 C464 0.925 1_554 S
H436 C456 0.931 . S
O437 Co413 2.097 . S
O437 C465 1.214 1_556 S
H438 C466 0.929 . S
H439 C467 0.932 1_554 S
H440 C468 0.930 . S
H441 C469 0.929 . S
H442 C471 0.930 . S
H443 C448 0.930 . S
H444 C452 0.930 . S
O445 Co414 2.037 . S
O445 C465 1.234 . S
C446 O420 1.269 . S
C446 O421 1.257 . S
C447 H422 0.930 . S
C447 C450 1.388 . S
C447 C452 1.418 . S
C448 H443 0.930 . S
C448 C451 1.404 . S
C448 C452 1.353 . S
N449 Co414 2.145 . S
N449 C450 1.397 . S
N449 C451 1.334 . S
C450 H431 0.929 . S
C450 C447 1.388 . S
C450 N449 1.397 . S
C451 H432 0.929 . S
C451 C448 1.404 . S
C451 N449 1.334 . S
C452 H444 0.930 . S
C452 C447 1.418 . S
C452 C448 1.353 . S
C453 H423 0.930 . S
C453 N454 1.330 . S
C453 C455 1.446 . S
N454 Co413 2.151 . S
N454 C453 1.330 . S
N454 C458 1.418 1_556 S
C455 H434 0.929 . S
C455 C453 1.446 . S
C455 C456 1.332 . S
C456 H436 0.931 . S
C456 C455 1.332 . S
C456 C457 1.267 1_556 S
C457 H425 0.929 . S
C457 C456 1.267 1_554 S
C457 C458 1.251 . S
C458 H428 0.929 . S
C458 N454 1.418 1_554 S
C458 C457 1.251 . S
C459 H426 0.930 . S
C459 C461 1.406 . S
C459 C464 1.282 . S
C460 H427 0.930 . S
C460 N462 1.325 1_554 S
C460 C463 1.357 . S
C461 H429 0.928 . S
C461 C459 1.406 . S
C461 N462 1.261 . S
N462 Co413 2.214 . S
N462 C460 1.325 1_556 S
N462 C461 1.261 . S
C463 H433 0.931 . S
C463 C460 1.357 . S
C463 C464 1.295 1_554 S
C464 H435 0.925 1_556 S
C464 C459 1.282 . S
C464 C463 1.295 1_556 S
C465 O437 1.214 1_554 S
C465 O445 1.234 . S
C466 H438 0.929 . S
C466 C469 1.391 . S
C466 C471 1.391 . S
C467 H439 0.932 1_556 S
C467 C468 1.390 . S
C467 N470 1.391 . S
C468 H440 0.930 . S
C468 C467 1.390 . S
C468 C469 1.392 . S
C469 H441 0.929 . S
C469 C466 1.391 . S
C469 C468 1.392 . S
N470 Co414 2.257 1_556 S
N470 C467 1.391 . S
N470 C471 1.388 . S
C471 H442 0.930 . S
C471 C466 1.391 . S
C471 N470 1.388 . S
Co472 O474 2.143 . S
Co472 O480 2.074 . S
Co472 O483 2.093 . S
Co472 O496 2.097 . S
Co472 N513 2.151 . S
Co472 N521 2.214 . S
Co473 O474 2.160 . S
Co473 O479 2.058 . S
Co473 O489 2.057 . S
Co473 O504 2.037 . S
Co473 N508 2.145 . S
Co473 N529 2.257 . S
O474 Co472 2.143 . S
O474 Co473 2.160 . S
C475 O476 1.278 . S
C475 O483 1.224 . S
O476 C475 1.278 . S
C477 O478 1.245 . S
C477 O489 1.232 . S
O478 C477 1.245 . S
O479 Co473 2.058 . S
O479 C505 1.269 . S
O480 Co472 2.074 . S
O480 C505 1.257 . S
H481 C506 0.930 . S
H482 C512 0.930 . S
O483 Co472 2.093 . S
O483 C475 1.224 . S
H484 C516 0.929 . S
H485 C518 0.930 . S
H486 C519 0.930 . S
H487 C517 0.929 . S
H488 C520 0.928 . S
O489 Co473 2.057 . S
O489 C477 1.232 . S
H490 C509 0.929 . S
H491 C510 0.929 . S
H492 C522 0.931 . S
H493 C514 0.929 . S
H494 C523 0.930 . S
H495 C515 0.931 . S
O496 Co472 2.097 . S
O496 C524 1.214 . S
H497 C525 0.929 . S
H498 C526 0.929 . S
H499 C527 0.930 . S
H500 C528 0.929 . S
H501 C530 0.930 . S
H502 C507 0.930 . S
H503 C511 0.930 . S
O504 Co473 2.037 . S
O504 C524 1.234 . S
C505 O479 1.269 . S
C505 O480 1.257 . S
C506 H481 0.930 . S
C506 C509 1.388 . S
C506 C511 1.418 . S
C507 H502 0.930 . S
C507 C510 1.404 . S
C507 C511 1.353 . S
N508 Co473 2.145 . S
N508 C509 1.397 . S
N508 C510 1.334 . S
C509 H490 0.929 . S
C509 C506 1.388 . S
C509 N508 1.397 . S
C510 H491 0.929 . S
C510 C507 1.404 . S
C510 N508 1.334 . S
C511 H503 0.930 . S
C511 C506 1.418 . S
C511 C507 1.353 . S
C512 H482 0.930 . S
C512 N513 1.330 . S
C512 C514 1.446 . S
N513 Co472 2.151 . S
N513 C512 1.330 . S
N513 C517 1.418 . S
C514 H493 0.929 . S
C514 C512 1.446 . S
C514 C515 1.332 . S
C515 H495 0.931 . S
C515 C514 1.332 . S
C515 C516 1.267 . S
C516 H484 0.929 . S
C516 C515 1.267 . S
C516 C517 1.251 . S
C517 H487 0.929 . S
C517 N513 1.418 . S
C517 C516 1.251 . S
C518 H485 0.930 . S
C518 C520 1.406 . S
C518 C523 1.261 . S
C519 H486 0.930 . S
C519 N521 1.325 . S
C519 C522 1.357 . S
C520 H488 0.928 . S
C520 C518 1.406 . S
C520 N521 1.261 . S
N521 Co472 2.214 . S
N521 C519 1.325 . S
N521 C520 1.261 . S
C522 H492 0.931 . S
C522 C519 1.357 . S
C522 C523 1.312 . S
C523 H494 0.930 . S
C523 C518 1.261 . S
C523 C522 1.312 . S
C524 O496 1.214 . S
C524 O504 1.234 . S
C525 H497 0.929 . S
C525 C528 1.391 . S
C525 C530 1.391 . S
C526 H498 0.929 . S
C526 C527 1.390 . S
C526 N529 1.391 . S
C527 H499 0.930 . S
C527 C526 1.390 . S
C527 C528 1.392 . S
C528 H500 0.929 . S
C528 C525 1.391 . S
C528 C527 1.392 . S
N529 Co473 2.257 . S
N529 C526 1.391 . S
N529 C530 1.388 . S
C530 H501 0.930 . S
C530 C525 1.391 . S
C530 N529 1.388 . S
Co531 O533 2.143 . S
Co531 O539 2.074 . S
Co531 O542 2.093 . S
Co531 O555 2.097 . S
Co531 N572 2.151 . S
Co531 N580 2.214 . S
Co532 O533 2.160 . S
Co532 O538 2.058 . S
Co532 O548 2.057 . S
Co532 O563 2.037 . S
Co532 N567 2.145 . S
Co532 N588 2.257 . S
O533 Co531 2.143 . S
O533 Co532 2.160 . S
C534 O535 1.278 . S
C534 O542 1.224 . S
O535 C534 1.278 . S
C536 O537 1.245 . S
C536 O548 1.232 . S
O537 C536 1.245 . S
O538 Co532 2.058 . S
O538 C564 1.269 . S
O539 Co531 2.074 . S
O539 C564 1.257 . S
H540 C565 0.930 . S
H541 C571 0.930 . S
O542 Co531 2.093 . S
O542 C534 1.224 . S
H543 C575 0.929 . S
H544 C577 0.930 . S
H545 C578 0.930 . S
H546 C576 0.929 . S
H547 C579 0.928 . S
O548 Co532 2.057 . S
O548 C536 1.232 . S
H549 C568 0.929 . S
H550 C569 0.929 . S
H551 C581 0.931 . S
H552 C573 0.929 . S
H553 C582 0.930 . S
H554 C574 0.931 . S
O555 Co531 2.097 . S
O555 C583 1.214 . S
H556 C584 0.929 . S
H557 C585 0.929 . S
H558 C586 0.930 . S
H559 C587 0.929 . S
H560 C589 0.930 . S
H561 C566 0.930 . S
H562 C570 0.930 . S
O563 Co532 2.037 . S
O563 C583 1.234 . S
C564 O538 1.269 . S
C564 O539 1.257 . S
C565 H540 0.930 . S
C565 C568 1.388 . S
C565 C570 1.418 . S
C566 H561 0.930 . S
C566 C569 1.404 . S
C566 C570 1.353 . S
N567 Co532 2.145 . S
N567 C568 1.397 . S
N567 C569 1.334 . S
C568 H549 0.929 . S
C568 C565 1.388 . S
C568 N567 1.397 . S
C569 H550 0.929 . S
C569 C566 1.404 . S
C569 N567 1.334 . S
C570 H562 0.930 . S
C570 C565 1.418 . S
C570 C566 1.353 . S
C571 H541 0.930 . S
C571 N572 1.330 . S
C571 C573 1.446 . S
N572 Co531 2.151 . S
N572 C571 1.330 . S
N572 C576 1.418 . S
C573 H552 0.929 . S
C573 C571 1.446 . S
C573 C574 1.332 . S
C574 H554 0.931 . S
C574 C573 1.332 . S
C574 C575 1.267 . S
C575 H543 0.929 . S
C575 C574 1.267 . S
C575 C576 1.251 . S
C576 H546 0.929 . S
C576 N572 1.418 . S
C576 C575 1.251 . S
C577 H544 0.930 . S
C577 C579 1.406 . S
C577 C582 1.261 . S
C578 H545 0.930 . S
C578 N580 1.325 . S
C578 C581 1.357 . S
C579 H547 0.928 . S
C579 C577 1.406 . S
C579 N580 1.261 . S
N580 Co531 2.214 . S
N580 C578 1.325 . S
N580 C579 1.261 . S
C581 H551 0.931 . S
C581 C578 1.357 . S
C581 C582 1.312 . S
C582 H553 0.930 . S
C582 C577 1.261 . S
C582 C581 1.312 . S
C583 O555 1.214 . S
C583 O563 1.234 . S
C584 H556 0.929 . S
C584 C587 1.391 . S
C584 C589 1.391 . S
C585 H557 0.929 . S
C585 C586 1.390 . S
C585 N588 1.391 . S
C586 H558 0.930 . S
C586 C585 1.390 . S
C586 C587 1.392 . S
C587 H559 0.929 . S
C587 C584 1.391 . S
C587 C586 1.392 . S
N588 Co532 2.257 . S
N588 C585 1.391 . S
N588 C589 1.388 . S
C589 H560 0.930 . S
C589 C584 1.391 . S
C589 N588 1.388 . S
Co590 O592 2.143 . S
Co590 O598 2.074 . S
Co590 O601 2.093 . S
Co590 O614 2.097 . S
Co590 N631 2.151 . S
Co590 N639 2.214 . S
Co591 O592 2.160 . S
Co591 O597 2.058 . S
Co591 O607 2.057 . S
Co591 O622 2.037 . S
Co591 N626 2.145 . S
Co591 N647 2.257 . S
O592 Co590 2.143 . S
O592 Co591 2.160 . S
C593 O594 1.278 . S
C593 O601 1.224 . S
O594 C593 1.278 . S
C595 O596 1.245 . S
C595 O607 1.232 . S
O596 C595 1.245 . S
O597 Co591 2.058 . S
O597 C623 1.269 . S
O598 Co590 2.074 . S
O598 C623 1.257 . S
H599 C624 0.930 . S
H600 C630 0.930 . S
O601 Co590 2.093 . S
O601 C593 1.224 . S
H602 C634 0.929 . S
H603 C636 0.930 . S
H604 C637 0.930 . S
H605 C635 0.929 . S
H606 C638 0.928 . S
O607 Co591 2.057 . S
O607 C595 1.232 . S
H608 C627 0.929 . S
H609 C628 0.929 . S
H610 C640 0.931 . S
H611 C632 0.929 . S
H612 C641 0.930 . S
H613 C633 0.931 . S
O614 Co590 2.097 . S
O614 C642 1.214 . S
H615 C643 0.929 . S
H616 C644 0.929 . S
H617 C645 0.930 . S
H618 C646 0.929 . S
H619 C648 0.930 . S
H620 C625 0.930 . S
H621 C629 0.930 . S
O622 Co591 2.037 . S
O622 C642 1.234 . S
C623 O597 1.269 . S
C623 O598 1.257 . S
C624 H599 0.930 . S
C624 C627 1.388 . S
C624 C629 1.418 . S
C625 H620 0.930 . S
C625 C628 1.404 . S
C625 C629 1.353 . S
N626 Co591 2.145 . S
N626 C627 1.397 . S
N626 C628 1.334 . S
C627 H608 0.929 . S
C627 C624 1.388 . S
C627 N626 1.397 . S
C628 H609 0.929 . S
C628 C625 1.404 . S
C628 N626 1.334 . S
C629 H621 0.930 . S
C629 C624 1.418 . S
C629 C625 1.353 . S
C630 H600 0.930 . S
C630 N631 1.330 . S
C630 C632 1.446 . S
N631 Co590 2.151 . S
N631 C630 1.330 . S
N631 C635 1.418 . S
C632 H611 0.929 . S
C632 C630 1.446 . S
C632 C633 1.332 . S
C633 H613 0.931 . S
C633 C632 1.332 . S
C633 C634 1.267 . S
C634 H602 0.929 . S
C634 C633 1.267 . S
C634 C635 1.251 . S
C635 H605 0.929 . S
C635 N631 1.418 . S
C635 C634 1.251 . S
C636 H603 0.930 . S
C636 C638 1.406 . S
C636 C641 1.261 . S
C637 H604 0.930 . S
C637 N639 1.325 . S
C637 C640 1.357 . S
C638 H606 0.928 . S
C638 C636 1.406 . S
C638 N639 1.261 . S
N639 Co590 2.214 . S
N639 C637 1.325 . S
N639 C638 1.261 . S
C640 H610 0.931 . S
C640 C637 1.357 . S
C640 C641 1.312 . S
C641 H612 0.930 . S
C641 C636 1.261 . S
C641 C640 1.312 . S
C642 O614 1.214 . S
C642 O622 1.234 . S
C643 H615 0.929 . S
C643 C646 1.391 . S
C643 C648 1.391 . S
C644 H616 0.929 . S
C644 C645 1.390 . S
C644 N647 1.391 . S
C645 H617 0.930 . S
C645 C644 1.390 . S
C645 C646 1.392 . S
C646 H618 0.929 . S
C646 C643 1.391 . S
C646 C645 1.392 . S
N647 Co591 2.257 . S
N647 C644 1.391 . S
N647 C648 1.388 . S
C648 H619 0.930 . S
C648 C643 1.391 . S
C648 N647 1.388 . S
Co649 O651 2.143 . S
Co649 O657 2.074 . S
Co649 O660 2.093 . S
Co649 O673 2.097 . S
Co649 N690 2.151 . S
Co649 N698 2.214 . S
Co650 O651 2.160 . S
Co650 O656 2.058 . S
Co650 O666 2.057 . S
Co650 O681 2.037 . S
Co650 N685 2.145 . S
Co650 N706 2.257 . S
O651 Co649 2.143 . S
O651 Co650 2.160 . S
C652 O653 1.278 . S
C652 O660 1.224 . S
O653 C652 1.278 . S
C654 O655 1.245 . S
C654 O666 1.232 . S
O655 C654 1.245 . S
O656 Co650 2.058 . S
O656 C682 1.269 . S
O657 Co649 2.074 . S
O657 C682 1.257 . S
H658 C683 0.930 . S
H659 C689 0.930 . S
O660 Co649 2.093 . S
O660 C652 1.224 . S
H661 C693 0.929 . S
H662 C695 0.930 . S
H663 C696 0.930 . S
H664 C694 0.929 . S
H665 C697 0.928 . S
O666 Co650 2.057 . S
O666 C654 1.232 . S
H667 C686 0.929 . S
H668 C687 0.929 . S
H669 C699 0.931 . S
H670 C691 0.929 . S
H671 C700 0.930 . S
H672 C692 0.931 . S
O673 Co649 2.097 . S
O673 C701 1.214 . S
H674 C702 0.929 . S
H675 C703 0.929 . S
H676 C704 0.930 . S
H677 C705 0.929 . S
H678 C707 0.930 . S
H679 C684 0.930 . S
H680 C688 0.930 . S
O681 Co650 2.037 . S
O681 C701 1.234 . S
C682 O656 1.269 . S
C682 O657 1.257 . S
C683 H658 0.930 . S
C683 C686 1.388 . S
C683 C688 1.418 . S
C684 H679 0.930 . S
C684 C687 1.404 . S
C684 C688 1.353 . S
N685 Co650 2.145 . S
N685 C686 1.397 . S
N685 C687 1.334 . S
C686 H667 0.929 . S
C686 C683 1.388 . S
C686 N685 1.397 . S
C687 H668 0.929 . S
C687 C684 1.404 . S
C687 N685 1.334 . S
C688 H680 0.930 . S
C688 C683 1.418 . S
C688 C684 1.353 . S
C689 H659 0.930 . S
C689 N690 1.330 . S
C689 C691 1.446 . S
N690 Co649 2.151 . S
N690 C689 1.330 . S
N690 C694 1.418 . S
C691 H670 0.929 . S
C691 C689 1.446 . S
C691 C692 1.332 . S
C692 H672 0.931 . S
C692 C691 1.332 . S
C692 C693 1.267 . S
C693 H661 0.929 . S
C693 C692 1.267 . S
C693 C694 1.251 . S
C694 H664 0.929 . S
C694 N690 1.418 . S
C694 C693 1.251 . S
C695 H662 0.930 . S
C695 C697 1.406 . S
C695 C700 1.261 . S
C696 H663 0.930 . S
C696 N698 1.325 . S
C696 C699 1.357 . S
C697 H665 0.928 . S
C697 C695 1.406 . S
C697 N698 1.261 . S
N698 Co649 2.214 . S
N698 C696 1.325 . S
N698 C697 1.261 . S
C699 H669 0.931 . S
C699 C696 1.357 . S
C699 C700 1.312 . S
C700 H671 0.930 . S
C700 C695 1.261 . S
C700 C699 1.312 . S
C701 O673 1.214 . S
C701 O681 1.234 . S
C702 H674 0.929 . S
C702 C705 1.391 . S
C702 C707 1.391 . S
C703 H675 0.929 . S
C703 C704 1.390 . S
C703 N706 1.391 . S
C704 H676 0.930 . S
C704 C703 1.390 . S
C704 C705 1.392 . S
C705 H677 0.929 . S
C705 C702 1.391 . S
C705 C704 1.392 . S
N706 Co650 2.257 . S
N706 C703 1.391 . S
N706 C707 1.388 . S
C707 H678 0.930 . S
C707 C702 1.391 . S
C707 N706 1.388 . S
Co708 O710 2.143 . S
Co708 O716 2.074 . S
Co708 O719 2.093 . S
Co708 O732 2.097 . S
Co708 N749 2.151 . S
Co708 N757 2.214 . S
Co709 O710 2.160 . S
Co709 O715 2.058 . S
Co709 O725 2.057 . S
Co709 O740 2.037 . S
Co709 N744 2.145 . S
Co709 N765 2.257 . S
O710 Co708 2.143 . S
O710 Co709 2.160 . S
C711 O712 1.278 . S
C711 O719 1.224 . S
O712 C711 1.278 . S
C713 O714 1.245 . S
C713 O725 1.232 . S
O714 C713 1.245 . S
O715 Co709 2.058 . S
O715 C741 1.269 . S
O716 Co708 2.074 . S
O716 C741 1.257 . S
H717 C742 0.930 . S
H718 C748 0.930 . S
O719 Co708 2.093 . S
O719 C711 1.224 . S
H720 C752 0.929 . S
H721 C754 0.930 . S
H722 C755 0.930 . S
H723 C753 0.929 . S
H724 C756 0.928 . S
O725 Co709 2.057 . S
O725 C713 1.232 . S
H726 C745 0.929 . S
H727 C746 0.929 . S
H728 C758 0.931 . S
H729 C750 0.929 . S
H730 C759 0.930 . S
H731 C751 0.931 . S
O732 Co708 2.097 . S
O732 C760 1.214 . S
H733 C761 0.929 . S
H734 C762 0.929 . S
H735 C763 0.930 . S
H736 C764 0.929 . S
H737 C766 0.930 . S
H738 C743 0.930 . S
H739 C747 0.930 . S
O740 Co709 2.037 . S
O740 C760 1.234 . S
C741 O715 1.269 . S
C741 O716 1.257 . S
C742 H717 0.930 . S
C742 C745 1.388 . S
C742 C747 1.418 . S
C743 H738 0.930 . S
C743 C746 1.404 . S
C743 C747 1.353 . S
N744 Co709 2.145 . S
N744 C745 1.397 . S
N744 C746 1.334 . S
C745 H726 0.929 . S
C745 C742 1.388 . S
C745 N744 1.397 . S
C746 H727 0.929 . S
C746 C743 1.404 . S
C746 N744 1.334 . S
C747 H739 0.930 . S
C747 C742 1.418 . S
C747 C743 1.353 . S
C748 H718 0.930 . S
C748 N749 1.330 . S
C748 C750 1.446 . S
N749 Co708 2.151 . S
N749 C748 1.330 . S
N749 C753 1.418 . S
C750 H729 0.929 . S
C750 C748 1.446 . S
C750 C751 1.332 . S
C751 H731 0.931 . S
C751 C750 1.332 . S
C751 C752 1.267 . S
C752 H720 0.929 . S
C752 C751 1.267 . S
C752 C753 1.251 . S
C753 H723 0.929 . S
C753 N749 1.418 . S
C753 C752 1.251 . S
C754 H721 0.930 . S
C754 C756 1.406 . S
C754 C759 1.261 . S
C755 H722 0.930 . S
C755 N757 1.325 . S
C755 C758 1.357 . S
C756 H724 0.928 . S
C756 C754 1.406 . S
C756 N757 1.261 . S
N757 Co708 2.214 . S
N757 C755 1.325 . S
N757 C756 1.261 . S
C758 H728 0.931 . S
C758 C755 1.357 . S
C758 C759 1.312 . S
C759 H730 0.930 . S
C759 C754 1.261 . S
C759 C758 1.312 . S
C760 O732 1.214 . S
C760 O740 1.234 . S
C761 H733 0.929 . S
C761 C764 1.391 . S
C761 C766 1.391 . S
C762 H734 0.929 . S
C762 C763 1.390 . S
C762 N765 1.391 . S
C763 H735 0.930 . S
C763 C762 1.390 . S
C763 C764 1.392 . S
C764 H736 0.929 . S
C764 C761 1.391 . S
C764 C763 1.392 . S
N765 Co709 2.257 . S
N765 C762 1.391 . S
N765 C766 1.388 . S
C766 H737 0.930 . S
C766 C761 1.391 . S
C766 N765 1.388 . S
Co767 O769 2.143 . S
Co767 O775 2.074 . S
Co767 O778 2.093 . S
Co767 O791 2.097 . S
Co767 N808 2.151 . S
Co767 N816 2.214 . S
Co768 O769 2.160 . S
Co768 O774 2.058 . S
Co768 O784 2.057 . S
Co768 O799 2.037 . S
Co768 N803 2.145 . S
Co768 N824 2.257 . S
O769 Co767 2.143 . S
O769 Co768 2.160 . S
C770 O771 1.278 . S
C770 O778 1.224 . S
O771 C770 1.278 . S
C772 O773 1.245 . S
C772 O784 1.232 . S
O773 C772 1.245 . S
O774 Co768 2.058 . S
O774 C800 1.269 . S
O775 Co767 2.074 . S
O775 C800 1.257 . S
H776 C801 0.930 . S
H777 C807 0.930 . S
O778 Co767 2.093 . S
O778 C770 1.224 . S
H779 C811 0.929 . S
H780 C813 0.930 . S
H781 C814 0.930 . S
H782 C812 0.929 . S
H783 C815 0.928 . S
O784 Co768 2.057 . S
O784 C772 1.232 . S
H785 C804 0.929 . S
H786 C805 0.929 . S
H787 C817 0.931 . S
H788 C809 0.929 . S
H789 C818 0.930 . S
H790 C810 0.931 . S
O791 Co767 2.097 . S
O791 C819 1.214 . S
H792 C820 0.929 . S
H793 C821 0.929 . S
H794 C822 0.930 . S
H795 C823 0.929 . S
H796 C825 0.930 . S
H797 C802 0.930 . S
H798 C806 0.930 . S
O799 Co768 2.037 . S
O799 C819 1.234 . S
C800 O774 1.269 . S
C800 O775 1.257 . S
C801 H776 0.930 . S
C801 C804 1.388 . S
C801 C806 1.418 . S
C802 H797 0.930 . S
C802 C805 1.404 . S
C802 C806 1.353 . S
N803 Co768 2.145 . S
N803 C804 1.397 . S
N803 C805 1.334 . S
C804 H785 0.929 . S
C804 C801 1.388 . S
C804 N803 1.397 . S
C805 H786 0.929 . S
C805 C802 1.404 . S
C805 N803 1.334 . S
C806 H798 0.930 . S
C806 C801 1.418 . S
C806 C802 1.353 . S
C807 H777 0.930 . S
C807 N808 1.330 . S
C807 C809 1.446 . S
N808 Co767 2.151 . S
N808 C807 1.330 . S
N808 C812 1.418 . S
C809 H788 0.929 . S
C809 C807 1.446 . S
C809 C810 1.332 . S
C810 H790 0.931 . S
C810 C809 1.332 . S
C810 C811 1.267 . S
C811 H779 0.929 . S
C811 C810 1.267 . S
C811 C812 1.251 . S
C812 H782 0.929 . S
C812 N808 1.418 . S
C812 C811 1.251 . S
C813 H780 0.930 . S
C813 C815 1.406 . S
C813 C818 1.261 . S
C814 H781 0.930 . S
C814 N816 1.325 . S
C814 C817 1.357 . S
C815 H783 0.928 . S
C815 C813 1.406 . S
C815 N816 1.261 . S
N816 Co767 2.214 . S
N816 C814 1.325 . S
N816 C815 1.261 . S
C817 H787 0.931 . S
C817 C814 1.357 . S
C817 C818 1.312 . S
C818 H789 0.930 . S
C818 C813 1.261 . S
C818 C817 1.312 . S
C819 O791 1.214 . S
C819 O799 1.234 . S
C820 H792 0.929 . S
C820 C823 1.391 . S
C820 C825 1.391 . S
C821 H793 0.929 . S
C821 C822 1.390 . S
C821 N824 1.391 . S
C822 H794 0.930 . S
C822 C821 1.390 . S
C822 C823 1.392 . S
C823 H795 0.929 . S
C823 C820 1.391 . S
C823 C822 1.392 . S
N824 Co768 2.257 . S
N824 C821 1.391 . S
N824 C825 1.388 . S
C825 H796 0.930 . S
C825 C820 1.391 . S
C825 N824 1.388 . S
Co826 O828 2.143 . S
Co826 O834 2.074 . S
Co826 O837 2.093 . S
Co826 O850 2.097 . S
Co826 N867 2.151 . S
Co826 N875 2.214 . S
Co827 O828 2.160 . S
Co827 O833 2.058 . S
Co827 O843 2.057 . S
Co827 O858 2.037 . S
Co827 N862 2.145 . S
Co827 N883 2.257 . S
O828 Co826 2.143 . S
O828 Co827 2.160 . S
C829 O830 1.278 . S
C829 O837 1.224 . S
O830 C829 1.278 . S
C831 O832 1.245 . S
C831 O843 1.232 . S
O832 C831 1.245 . S
O833 Co827 2.058 . S
O833 C859 1.269 . S
O834 Co826 2.074 . S
O834 C859 1.257 . S
H835 C860 0.930 . S
H836 C866 0.930 . S
O837 Co826 2.093 . S
O837 C829 1.224 . S
H838 C870 0.929 . S
H839 C872 0.930 . S
H840 C873 0.930 . S
H841 C871 0.929 . S
H842 C874 0.928 . S
O843 Co827 2.057 . S
O843 C831 1.232 . S
H844 C863 0.929 . S
H845 C864 0.929 . S
H846 C876 0.931 . S
H847 C868 0.929 . S
H848 C877 0.930 . S
H849 C869 0.931 . S
O850 Co826 2.097 . S
O850 C878 1.214 . S
H851 C879 0.929 . S
H852 C880 0.929 . S
H853 C881 0.930 . S
H854 C882 0.929 . S
H855 C884 0.930 . S
H856 C861 0.930 . S
H857 C865 0.930 . S
O858 Co827 2.037 . S
O858 C878 1.234 . S
C859 O833 1.269 . S
C859 O834 1.257 . S
C860 H835 0.930 . S
C860 C863 1.388 . S
C860 C865 1.418 . S
C861 H856 0.930 . S
C861 C864 1.404 . S
C861 C865 1.353 . S
N862 Co827 2.145 . S
N862 C863 1.397 . S
N862 C864 1.334 . S
C863 H844 0.929 . S
C863 C860 1.388 . S
C863 N862 1.397 . S
C864 H845 0.929 . S
C864 C861 1.404 . S
C864 N862 1.334 . S
C865 H857 0.930 . S
C865 C860 1.418 . S
C865 C861 1.353 . S
C866 H836 0.930 . S
C866 N867 1.330 . S
C866 C868 1.446 . S
N867 Co826 2.151 . S
N867 C866 1.330 . S
N867 C871 1.418 . S
C868 H847 0.929 . S
C868 C866 1.446 . S
C868 C869 1.332 . S
C869 H849 0.931 . S
C869 C868 1.332 . S
C869 C870 1.267 . S
C870 H838 0.929 . S
C870 C869 1.267 . S
C870 C871 1.251 . S
C871 H841 0.929 . S
C871 N867 1.418 . S
C871 C870 1.251 . S
C872 H839 0.930 . S
C872 C874 1.406 . S
C872 C877 1.261 . S
C873 H840 0.930 . S
C873 N875 1.325 . S
C873 C876 1.357 . S
C874 H842 0.928 . S
C874 C872 1.406 . S
C874 N875 1.261 . S
N875 Co826 2.214 . S
N875 C873 1.325 . S
N875 C874 1.261 . S
C876 H846 0.931 . S
C876 C873 1.357 . S
C876 C877 1.312 . S
C877 H848 0.930 . S
C877 C872 1.261 . S
C877 C876 1.312 . S
C878 O850 1.214 . S
C878 O858 1.234 . S
C879 H851 0.929 . S
C879 C882 1.391 . S
C879 C884 1.391 . S
C880 H852 0.929 . S
C880 C881 1.390 . S
C880 N883 1.391 . S
C881 H853 0.930 . S
C881 C880 1.390 . S
C881 C882 1.392 . S
C882 H854 0.929 . S
C882 C879 1.391 . S
C882 C881 1.392 . S
N883 Co827 2.257 . S
N883 C880 1.391 . S
N883 C884 1.388 . S
C884 H855 0.930 . S
C884 C879 1.391 . S
C884 N883 1.388 . S
Co885 O887 2.143 . S
Co885 O893 2.074 . S
Co885 O896 2.093 . S
Co885 O909 2.097 . S
Co885 N926 2.151 . S
Co885 N934 2.214 . S
Co886 O887 2.160 . S
Co886 O892 2.058 . S
Co886 O902 2.057 . S
Co886 O917 2.037 . S
Co886 N921 2.145 . S
Co886 N942 2.257 . S
O887 Co885 2.143 . S
O887 Co886 2.160 . S
C888 O889 1.278 . S
C888 O896 1.224 . S
O889 C888 1.278 . S
C890 O891 1.245 . S
C890 O902 1.232 . S
O891 C890 1.245 . S
O892 Co886 2.058 . S
O892 C918 1.269 . S
O893 Co885 2.074 . S
O893 C918 1.257 . S
H894 C919 0.930 . S
H895 C925 0.930 . S
O896 Co885 2.093 . S
O896 C888 1.224 . S
H897 C929 0.929 . S
H898 C931 0.930 . S
H899 C932 0.930 . S
H900 C930 0.929 . S
H901 C933 0.928 . S
O902 Co886 2.057 . S
O902 C890 1.232 . S
H903 C922 0.929 . S
H904 C923 0.929 . S
H905 C935 0.931 . S
H906 C927 0.929 . S
H907 C936 0.930 . S
H908 C928 0.931 . S
O909 Co885 2.097 . S
O909 C937 1.214 . S
H910 C938 0.929 . S
H911 C939 0.929 . S
H912 C940 0.930 . S
H913 C941 0.929 . S
H914 C943 0.930 . S
H915 C920 0.930 . S
H916 C924 0.930 . S
O917 Co886 2.037 . S
O917 C937 1.234 . S
C918 O892 1.269 . S
C918 O893 1.257 . S
C919 H894 0.930 . S
C919 C922 1.388 . S
C919 C924 1.418 . S
C920 H915 0.930 . S
C920 C923 1.404 . S
C920 C924 1.353 . S
N921 Co886 2.145 . S
N921 C922 1.397 . S
N921 C923 1.334 . S
C922 H903 0.929 . S
C922 C919 1.388 . S
C922 N921 1.397 . S
C923 H904 0.929 . S
C923 C920 1.404 . S
C923 N921 1.334 . S
C924 H916 0.930 . S
C924 C919 1.418 . S
C924 C920 1.353 . S
C925 H895 0.930 . S
C925 N926 1.330 . S
C925 C927 1.446 . S
N926 Co885 2.151 . S
N926 C925 1.330 . S
N926 C930 1.418 . S
C927 H906 0.929 . S
C927 C925 1.446 . S
C927 C928 1.332 . S
C928 H908 0.931 . S
C928 C927 1.332 . S
C928 C929 1.267 . S
C929 H897 0.929 . S
C929 C928 1.267 . S
C929 C930 1.251 . S
C930 H900 0.929 . S
C930 N926 1.418 . S
C930 C929 1.251 . S
C931 H898 0.930 . S
C931 C933 1.406 . S
C931 C936 1.261 . S
C932 H899 0.930 . S
C932 N934 1.325 . S
C932 C935 1.357 . S
C933 H901 0.928 . S
C933 C931 1.406 . S
C933 N934 1.261 . S
N934 Co885 2.214 . S
N934 C932 1.325 . S
N934 C933 1.261 . S
C935 H905 0.931 . S
C935 C932 1.357 . S
C935 C936 1.312 . S
C936 H907 0.930 . S
C936 C931 1.261 . S
C936 C935 1.312 . S
C937 O909 1.214 . S
C937 O917 1.234 . S
C938 H910 0.929 . S
C938 C941 1.391 . S
C938 C943 1.391 . S
C939 H911 0.929 . S
C939 C940 1.390 . S
C939 N942 1.391 . S
C940 H912 0.930 . S
C940 C939 1.390 . S
C940 C941 1.392 . S
C941 H913 0.929 . S
C941 C938 1.391 . S
C941 C940 1.392 . S
N942 Co886 2.257 . S
N942 C939 1.391 . S
N942 C943 1.388 . S
C943 H914 0.930 . S
C943 C938 1.391 . S
C943 N942 1.388 . S
Co944 O946 2.143 . S
Co944 O952 2.074 . S
Co944 O955 2.093 . S
Co944 O968 2.097 . S
Co944 N985 2.151 . S
Co944 N993 2.214 . S
Co945 O946 2.160 . S
Co945 O951 2.058 . S
Co945 O961 2.057 . S
Co945 O976 2.037 . S
Co945 N980 2.145 . S
Co945 N1001 2.257 . S
O946 Co944 2.143 . S
O946 Co945 2.160 . S
C947 O948 1.278 . S
C947 O955 1.224 . S
O948 C947 1.278 . S
C949 O950 1.245 . S
C949 O961 1.232 . S
O950 C949 1.245 . S
O951 Co945 2.058 . S
O951 C977 1.269 . S
O952 Co944 2.074 . S
O952 C977 1.257 . S
H953 C978 0.930 . S
H954 C984 0.930 . S
O955 Co944 2.093 . S
O955 C947 1.224 . S
H956 C988 0.929 . S
H957 C990 0.930 . S
H958 C991 0.930 . S
H959 C989 0.929 . S
H960 C992 0.928 . S
O961 Co945 2.057 . S
O961 C949 1.232 . S
H962 C981 0.929 . S
H963 C982 0.929 . S
H964 C994 0.931 . S
H965 C986 0.929 . S
H966 C995 0.930 . S
H967 C987 0.931 . S
O968 Co944 2.097 . S
O968 C996 1.214 . S
H969 C997 0.929 . S
H970 C998 0.929 . S
H971 C999 0.930 . S
H972 C1000 0.929 . S
H973 C1002 0.930 . S
H974 C979 0.930 . S
H975 C983 0.930 . S
O976 Co945 2.037 . S
O976 C996 1.234 . S
C977 O951 1.269 . S
C977 O952 1.257 . S
C978 H953 0.930 . S
C978 C981 1.388 . S
C978 C983 1.418 . S
C979 H974 0.930 . S
C979 C982 1.404 . S
C979 C983 1.353 . S
N980 Co945 2.145 . S
N980 C981 1.397 . S
N980 C982 1.334 . S
C981 H962 0.929 . S
C981 C978 1.388 . S
C981 N980 1.397 . S
C982 H963 0.929 . S
C982 C979 1.404 . S
C982 N980 1.334 . S
C983 H975 0.930 . S
C983 C978 1.418 . S
C983 C979 1.353 . S
C984 H954 0.930 . S
C984 N985 1.330 . S
C984 C986 1.446 . S
N985 Co944 2.151 . S
N985 C984 1.330 . S
N985 C989 1.418 . S
C986 H965 0.929 . S
C986 C984 1.446 . S
C986 C987 1.332 . S
C987 H967 0.931 . S
C987 C986 1.332 . S
C987 C988 1.267 . S
C988 H956 0.929 . S
C988 C987 1.267 . S
C988 C989 1.251 . S
C989 H959 0.929 . S
C989 N985 1.418 . S
C989 C988 1.251 . S
C990 H957 0.930 . S
C990 C992 1.406 . S
C990 C995 1.261 . S
C991 H958 0.930 . S
C991 N993 1.325 . S
C991 C994 1.357 . S
C992 H960 0.928 . S
C992 C990 1.406 . S
C992 N993 1.261 . S
N993 Co944 2.214 . S
N993 C991 1.325 . S
N993 C992 1.261 . S
C994 H964 0.931 . S
C994 C991 1.357 . S
C994 C995 1.312 . S
C995 H966 0.930 . S
C995 C990 1.261 . S
C995 C994 1.312 . S
C996 O968 1.214 . S
C996 O976 1.234 . S
C997 H969 0.929 . S
C997 C1000 1.391 . S
C997 C1002 1.391 . S
C998 H970 0.929 . S
C998 C999 1.390 . S
C998 N1001 1.391 . S
C999 H971 0.930 . S
C999 C998 1.390 . S
C999 C1000 1.392 . S
C1000 H972 0.929 . S
C1000 C997 1.391 . S
C1000 C999 1.392 . S
N1001 Co945 2.257 . S
N1001 C998 1.391 . S
N1001 C1002 1.388 . S
C1002 H973 0.930 . S
C1002 C997 1.391 . S
C1002 N1001 1.388 . S
Co1003 O1005 2.143 . S
Co1003 O1011 2.074 . S
Co1003 O1014 2.093 . S
Co1003 O1027 2.097 . S
Co1003 N1044 2.151 . S
Co1003 N1052 2.214 . S
Co1004 O1005 2.160 . S
Co1004 O1010 2.058 . S
Co1004 O1020 2.057 . S
Co1004 O1035 2.037 . S
Co1004 N1039 2.145 . S
Co1004 N1060 2.257 . S
O1005 Co1003 2.143 . S
O1005 Co1004 2.160 . S
C1006 O1007 1.278 . S
C1006 O1014 1.224 . S
O1007 C1006 1.278 . S
C1008 O1009 1.245 . S
C1008 O1020 1.232 . S
O1009 C1008 1.245 . S
O1010 Co1004 2.058 . S
O1010 C1036 1.269 . S
O1011 Co1003 2.074 . S
O1011 C1036 1.257 . S
H1012 C1037 0.930 . S
H1013 C1043 0.930 . S
O1014 Co1003 2.093 . S
O1014 C1006 1.224 . S
H1015 C1047 0.929 . S
H1016 C1049 0.930 . S
H1017 C1050 0.930 . S
H1018 C1048 0.929 . S
H1019 C1051 0.928 . S
O1020 Co1004 2.057 . S
O1020 C1008 1.232 . S
H1021 C1040 0.929 . S
H1022 C1041 0.929 . S
H1023 C1053 0.931 . S
H1024 C1045 0.929 . S
H1025 C1054 0.930 . S
H1026 C1046 0.931 . S
O1027 Co1003 2.097 . S
O1027 C1055 1.214 . S
H1028 C1056 0.929 . S
H1029 C1057 0.929 . S
H1030 C1058 0.930 . S
H1031 C1059 0.929 . S
H1032 C1061 0.930 . S
H1033 C1038 0.930 . S
H1034 C1042 0.930 . S
O1035 Co1004 2.037 . S
O1035 C1055 1.234 . S
C1036 O1010 1.269 . S
C1036 O1011 1.257 . S
C1037 H1012 0.930 . S
C1037 C1040 1.388 . S
C1037 C1042 1.418 . S
C1038 H1033 0.930 . S
C1038 C1041 1.404 . S
C1038 C1042 1.353 . S
N1039 Co1004 2.145 . S
N1039 C1040 1.397 . S
N1039 C1041 1.334 . S
C1040 H1021 0.929 . S
C1040 C1037 1.388 . S
C1040 N1039 1.397 . S
C1041 H1022 0.929 . S
C1041 C1038 1.404 . S
C1041 N1039 1.334 . S
C1042 H1034 0.930 . S
C1042 C1037 1.418 . S
C1042 C1038 1.353 . S
C1043 H1013 0.930 . S
C1043 N1044 1.330 . S
C1043 C1045 1.446 . S
N1044 Co1003 2.151 . S
N1044 C1043 1.330 . S
N1044 C1048 1.418 . S
C1045 H1024 0.929 . S
C1045 C1043 1.446 . S
C1045 C1046 1.332 . S
C1046 H1026 0.931 . S
C1046 C1045 1.332 . S
C1046 C1047 1.267 . S
C1047 H1015 0.929 . S
C1047 C1046 1.267 . S
C1047 C1048 1.251 . S
C1048 H1018 0.929 . S
C1048 N1044 1.418 . S
C1048 C1047 1.251 . S
C1049 H1016 0.930 . S
C1049 C1051 1.406 . S
C1049 C1054 1.261 . S
C1050 H1017 0.930 . S
C1050 N1052 1.325 . S
C1050 C1053 1.357 . S
C1051 H1019 0.928 . S
C1051 C1049 1.406 . S
C1051 N1052 1.261 . S
N1052 Co1003 2.214 . S
N1052 C1050 1.325 . S
N1052 C1051 1.261 . S
C1053 H1023 0.931 . S
C1053 C1050 1.357 . S
C1053 C1054 1.312 . S
C1054 H1025 0.930 . S
C1054 C1049 1.261 . S
C1054 C1053 1.312 . S
C1055 O1027 1.214 . S
C1055 O1035 1.234 . S
C1056 H1028 0.929 . S
C1056 C1059 1.391 . S
C1056 C1061 1.391 . S
C1057 H1029 0.929 . S
C1057 C1058 1.390 . S
C1057 N1060 1.391 . S
C1058 H1030 0.930 . S
C1058 C1057 1.390 . S
C1058 C1059 1.392 . S
C1059 H1031 0.929 . S
C1059 C1056 1.391 . S
C1059 C1058 1.392 . S
N1060 Co1004 2.257 . S
N1060 C1057 1.391 . S
N1060 C1061 1.388 . S
C1061 H1032 0.930 . S
C1061 C1056 1.391 . S
C1061 N1060 1.388 . S
Co1062 O1064 2.143 . S
Co1062 O1070 2.074 . S
Co1062 O1073 2.093 . S
Co1062 O1086 2.097 . S
Co1062 N1103 2.151 . S
Co1062 N1111 2.214 . S
Co1063 O1064 2.160 . S
Co1063 O1069 2.058 . S
Co1063 O1079 2.057 . S
Co1063 O1094 2.037 . S
Co1063 N1098 2.145 . S
Co1063 N1119 2.257 . S
O1064 Co1062 2.143 . S
O1064 Co1063 2.160 . S
C1065 O1066 1.278 . S
C1065 O1073 1.224 . S
O1066 C1065 1.278 . S
C1067 O1068 1.245 . S
C1067 O1079 1.232 . S
O1068 C1067 1.245 . S
O1069 Co1063 2.058 . S
O1069 C1095 1.269 . S
O1070 Co1062 2.074 . S
O1070 C1095 1.257 . S
H1071 C1096 0.930 . S
H1072 C1102 0.930 . S
O1073 Co1062 2.093 . S
O1073 C1065 1.224 . S
H1074 C1106 0.929 . S
H1075 C1108 0.930 . S
H1076 C1109 0.930 . S
H1077 C1107 0.929 . S
H1078 C1110 0.928 . S
O1079 Co1063 2.057 . S
O1079 C1067 1.232 . S
H1080 C1099 0.929 . S
H1081 C1100 0.929 . S
H1082 C1112 0.931 . S
H1083 C1104 0.929 . S
H1084 C1113 0.930 . S
H1085 C1105 0.931 . S
O1086 Co1062 2.097 . S
O1086 C1114 1.214 . S
H1087 C1115 0.929 . S
H1088 C1116 0.929 . S
H1089 C1117 0.930 . S
H1090 C1118 0.929 . S
H1091 C1120 0.930 . S
H1092 C1097 0.930 . S
H1093 C1101 0.930 . S
O1094 Co1063 2.037 . S
O1094 C1114 1.234 . S
C1095 O1069 1.269 . S
C1095 O1070 1.257 . S
C1096 H1071 0.930 . S
C1096 C1099 1.388 . S
C1096 C1101 1.418 . S
C1097 H1092 0.930 . S
C1097 C1100 1.404 . S
C1097 C1101 1.353 . S
N1098 Co1063 2.145 . S
N1098 C1099 1.397 . S
N1098 C1100 1.334 . S
C1099 H1080 0.929 . S
C1099 C1096 1.388 . S
C1099 N1098 1.397 . S
C1100 H1081 0.929 . S
C1100 C1097 1.404 . S
C1100 N1098 1.334 . S
C1101 H1093 0.930 . S
C1101 C1096 1.418 . S
C1101 C1097 1.353 . S
C1102 H1072 0.930 . S
C1102 N1103 1.330 . S
C1102 C1104 1.446 . S
N1103 Co1062 2.151 . S
N1103 C1102 1.330 . S
N1103 C1107 1.418 . S
C1104 H1083 0.929 . S
C1104 C1102 1.446 . S
C1104 C1105 1.332 . S
C1105 H1085 0.931 . S
C1105 C1104 1.332 . S
C1105 C1106 1.267 . S
C1106 H1074 0.929 . S
C1106 C1105 1.267 . S
C1106 C1107 1.251 . S
C1107 H1077 0.929 . S
C1107 N1103 1.418 . S
C1107 C1106 1.251 . S
C1108 H1075 0.930 . S
C1108 C1110 1.406 . S
C1108 C1113 1.261 . S
C1109 H1076 0.930 . S
C1109 N1111 1.325 . S
C1109 C1112 1.357 . S
C1110 H1078 0.928 . S
C1110 C1108 1.406 . S
C1110 N1111 1.261 . S
N1111 Co1062 2.214 . S
N1111 C1109 1.325 . S
N1111 C1110 1.261 . S
C1112 H1082 0.931 . S
C1112 C1109 1.357 . S
C1112 C1113 1.312 . S
C1113 H1084 0.930 . S
C1113 C1108 1.261 . S
C1113 C1112 1.312 . S
C1114 O1086 1.214 . S
C1114 O1094 1.234 . S
C1115 H1087 0.929 . S
C1115 C1118 1.391 . S
C1115 C1120 1.391 . S
C1116 H1088 0.929 . S
C1116 C1117 1.390 . S
C1116 N1119 1.391 . S
C1117 H1089 0.930 . S
C1117 C1116 1.390 . S
C1117 C1118 1.392 . S
C1118 H1090 0.929 . S
C1118 C1115 1.391 . S
C1118 C1117 1.392 . S
N1119 Co1063 2.257 . S
N1119 C1116 1.391 . S
N1119 C1120 1.388 . S
C1120 H1091 0.930 . S
C1120 C1115 1.391 . S
C1120 N1119 1.388 . S
Co1121 O1123 2.143 . S
Co1121 O1129 2.074 . S
Co1121 O1132 2.093 . S
Co1121 O1145 2.097 . S
Co1121 N1162 2.151 . S
Co1121 N1170 2.214 . S
Co1122 O1123 2.160 . S
Co1122 O1128 2.058 . S
Co1122 O1138 2.057 . S
Co1122 O1153 2.037 . S
Co1122 N1157 2.145 . S
Co1122 N1178 2.257 . S
O1123 Co1121 2.143 . S
O1123 Co1122 2.160 . S
C1124 O1125 1.278 . S
C1124 O1132 1.224 . S
O1125 C1124 1.278 . S
C1126 O1127 1.245 . S
C1126 O1138 1.232 . S
O1127 C1126 1.245 . S
O1128 Co1122 2.058 . S
O1128 C1154 1.269 . S
O1129 Co1121 2.074 . S
O1129 C1154 1.257 . S
H1130 C1155 0.930 . S
H1131 C1161 0.930 . S
O1132 Co1121 2.093 . S
O1132 C1124 1.224 . S
H1133 C1165 0.929 . S
H1134 C1167 0.930 . S
H1135 C1168 0.930 . S
H1136 C1166 0.929 . S
H1137 C1169 0.928 . S
O1138 Co1122 2.057 . S
O1138 C1126 1.232 . S
H1139 C1158 0.929 . S
H1140 C1159 0.929 . S
H1141 C1171 0.931 . S
H1142 C1163 0.929 . S
H1143 C1172 0.930 . S
H1144 C1164 0.931 . S
O1145 Co1121 2.097 . S
O1145 C1173 1.214 . S
H1146 C1174 0.929 . S
H1147 C1175 0.929 . S
H1148 C1176 0.930 . S
H1149 C1177 0.929 . S
H1150 C1179 0.930 . S
H1151 C1156 0.930 . S
H1152 C1160 0.930 . S
O1153 Co1122 2.037 . S
O1153 C1173 1.234 . S
C1154 O1128 1.269 . S
C1154 O1129 1.257 . S
C1155 H1130 0.930 . S
C1155 C1158 1.388 . S
C1155 C1160 1.418 . S
C1156 H1151 0.930 . S
C1156 C1159 1.404 . S
C1156 C1160 1.353 . S
N1157 Co1122 2.145 . S
N1157 C1158 1.397 . S
N1157 C1159 1.334 . S
C1158 H1139 0.929 . S
C1158 C1155 1.388 . S
C1158 N1157 1.397 . S
C1159 H1140 0.929 . S
C1159 C1156 1.404 . S
C1159 N1157 1.334 . S
C1160 H1152 0.930 . S
C1160 C1155 1.418 . S
C1160 C1156 1.353 . S
C1161 H1131 0.930 . S
C1161 N1162 1.330 . S
C1161 C1163 1.446 . S
N1162 Co1121 2.151 . S
N1162 C1161 1.330 . S
N1162 C1166 1.418 . S
C1163 H1142 0.929 . S
C1163 C1161 1.446 . S
C1163 C1164 1.332 . S
C1164 H1144 0.931 . S
C1164 C1163 1.332 . S
C1164 C1165 1.267 . S
C1165 H1133 0.929 . S
C1165 C1164 1.267 . S
C1165 C1166 1.251 . S
C1166 H1136 0.929 . S
C1166 N1162 1.418 . S
C1166 C1165 1.251 . S
C1167 H1134 0.930 . S
C1167 C1169 1.406 . S
C1167 C1172 1.261 . S
C1168 H1135 0.930 . S
C1168 N1170 1.325 . S
C1168 C1171 1.357 . S
C1169 H1137 0.928 . S
C1169 C1167 1.406 . S
C1169 N1170 1.261 . S
N1170 Co1121 2.214 . S
N1170 C1168 1.325 . S
N1170 C1169 1.261 . S
C1171 H1141 0.931 . S
C1171 C1168 1.357 . S
C1171 C1172 1.312 . S
C1172 H1143 0.930 . S
C1172 C1167 1.261 . S
C1172 C1171 1.312 . S
C1173 O1145 1.214 . S
C1173 O1153 1.234 . S
C1174 H1146 0.929 . S
C1174 C1177 1.391 . S
C1174 C1179 1.391 . S
C1175 H1147 0.929 . S
C1175 C1176 1.390 . S
C1175 N1178 1.391 . S
C1176 H1148 0.930 . S
C1176 C1175 1.390 . S
C1176 C1177 1.392 . S
C1177 H1149 0.929 . S
C1177 C1174 1.391 . S
C1177 C1176 1.392 . S
N1178 Co1122 2.257 . S
N1178 C1175 1.391 . S
N1178 C1179 1.388 . S
C1179 H1150 0.930 . S
C1179 C1174 1.391 . S
C1179 N1178 1.388 . S
Co1180 O1182 2.143 . S
Co1180 O1188 2.074 . S
Co1180 O1191 2.093 . S
Co1180 O1204 2.097 . S
Co1180 N1221 2.151 . S
Co1180 N1229 2.214 . S
Co1181 O1182 2.160 . S
Co1181 O1187 2.058 . S
Co1181 O1197 2.057 . S
Co1181 O1212 2.037 . S
Co1181 N1216 2.145 . S
Co1181 N1237 2.257 . S
O1182 Co1180 2.143 . S
O1182 Co1181 2.160 . S
C1183 O1184 1.278 . S
C1183 O1191 1.224 . S
O1184 C1183 1.278 . S
C1185 O1186 1.245 . S
C1185 O1197 1.232 . S
O1186 C1185 1.245 . S
O1187 Co1181 2.058 . S
O1187 C1213 1.269 . S
O1188 Co1180 2.074 . S
O1188 C1213 1.257 . S
H1189 C1214 0.930 . S
H1190 C1220 0.930 . S
O1191 Co1180 2.093 . S
O1191 C1183 1.224 . S
H1192 C1224 0.929 . S
H1193 C1226 0.930 . S
H1194 C1227 0.930 . S
H1195 C1225 0.929 . S
H1196 C1228 0.928 . S
O1197 Co1181 2.057 . S
O1197 C1185 1.232 . S
H1198 C1217 0.929 . S
H1199 C1218 0.929 . S
H1200 C1230 0.931 . S
H1201 C1222 0.929 . S
H1202 C1231 0.930 . S
H1203 C1223 0.931 . S
O1204 Co1180 2.097 . S
O1204 C1232 1.214 . S
H1205 C1233 0.929 . S
H1206 C1234 0.929 . S
H1207 C1235 0.930 . S
H1208 C1236 0.929 . S
H1209 C1238 0.930 . S
H1210 C1215 0.930 . S
H1211 C1219 0.930 . S
O1212 Co1181 2.037 . S
O1212 C1232 1.234 . S
C1213 O1187 1.269 . S
C1213 O1188 1.257 . S
C1214 H1189 0.930 . S
C1214 C1217 1.388 . S
C1214 C1219 1.418 . S
C1215 H1210 0.930 . S
C1215 C1218 1.404 . S
C1215 C1219 1.353 . S
N1216 Co1181 2.145 . S
N1216 C1217 1.397 . S
N1216 C1218 1.334 . S
C1217 H1198 0.929 . S
C1217 C1214 1.388 . S
C1217 N1216 1.397 . S
C1218 H1199 0.929 . S
C1218 C1215 1.404 . S
C1218 N1216 1.334 . S
C1219 H1211 0.930 . S
C1219 C1214 1.418 . S
C1219 C1215 1.353 . S
C1220 H1190 0.930 . S
C1220 N1221 1.330 . S
C1220 C1222 1.446 . S
N1221 Co1180 2.151 . S
N1221 C1220 1.330 . S
N1221 C1225 1.418 . S
C1222 H1201 0.929 . S
C1222 C1220 1.446 . S
C1222 C1223 1.332 . S
C1223 H1203 0.931 . S
C1223 C1222 1.332 . S
C1223 C1224 1.267 . S
C1224 H1192 0.929 . S
C1224 C1223 1.267 . S
C1224 C1225 1.251 . S
C1225 H1195 0.929 . S
C1225 N1221 1.418 . S
C1225 C1224 1.251 . S
C1226 H1193 0.930 . S
C1226 C1228 1.406 . S
C1226 C1231 1.261 . S
C1227 H1194 0.930 . S
C1227 N1229 1.325 . S
C1227 C1230 1.357 . S
C1228 H1196 0.928 . S
C1228 C1226 1.406 . S
C1228 N1229 1.261 . S
N1229 Co1180 2.214 . S
N1229 C1227 1.325 . S
N1229 C1228 1.261 . S
C1230 H1200 0.931 . S
C1230 C1227 1.357 . S
C1230 C1231 1.312 . S
C1231 H1202 0.930 . S
C1231 C1226 1.261 . S
C1231 C1230 1.312 . S
C1232 O1204 1.214 . S
C1232 O1212 1.234 . S
C1233 H1205 0.929 . S
C1233 C1236 1.391 . S
C1233 C1238 1.391 . S
C1234 H1206 0.929 . S
C1234 C1235 1.390 . S
C1234 N1237 1.391 . S
C1235 H1207 0.930 . S
C1235 C1234 1.390 . S
C1235 C1236 1.392 . S
C1236 H1208 0.929 . S
C1236 C1233 1.391 . S
C1236 C1235 1.392 . S
N1237 Co1181 2.257 . S
N1237 C1234 1.391 . S
N1237 C1238 1.388 . S
C1238 H1209 0.930 . S
C1238 C1233 1.391 . S
C1238 N1237 1.388 . S
Co1239 O1241 2.143 . S
Co1239 O1247 2.074 . S
Co1239 O1250 2.093 . S
Co1239 O1263 2.097 . S
Co1239 N1280 2.151 . S
Co1239 N1288 2.214 . S
Co1240 O1241 2.160 . S
Co1240 O1246 2.058 . S
Co1240 O1256 2.057 . S
Co1240 O1271 2.037 . S
Co1240 N1275 2.145 . S
Co1240 N1296 2.257 . S
O1241 Co1239 2.143 . S
O1241 Co1240 2.160 . S
C1242 O1243 1.278 . S
C1242 O1250 1.224 . S
O1243 C1242 1.278 . S
C1244 O1245 1.245 . S
C1244 O1256 1.232 . S
O1245 C1244 1.245 . S
O1246 Co1240 2.058 . S
O1246 C1272 1.269 . S
O1247 Co1239 2.074 . S
O1247 C1272 1.257 . S
H1248 C1273 0.930 . S
H1249 C1279 0.930 . S
O1250 Co1239 2.093 . S
O1250 C1242 1.224 . S
H1251 C1283 0.929 . S
H1252 C1285 0.930 . S
H1253 C1286 0.930 . S
H1254 C1284 0.929 . S
H1255 C1287 0.928 . S
O1256 Co1240 2.057 . S
O1256 C1244 1.232 . S
H1257 C1276 0.929 . S
H1258 C1277 0.929 . S
H1259 C1289 0.931 . S
H1260 C1281 0.929 . S
H1261 C1290 0.930 . S
H1262 C1282 0.931 . S
O1263 Co1239 2.097 . S
O1263 C1291 1.214 . S
H1264 C1292 0.929 . S
H1265 C1293 0.929 . S
H1266 C1294 0.930 . S
H1267 C1295 0.929 . S
H1268 C1297 0.930 . S
H1269 C1274 0.930 . S
H1270 C1278 0.930 . S
O1271 Co1240 2.037 . S
O1271 C1291 1.234 . S
C1272 O1246 1.269 . S
C1272 O1247 1.257 . S
C1273 H1248 0.930 . S
C1273 C1276 1.388 . S
C1273 C1278 1.418 . S
C1274 H1269 0.930 . S
C1274 C1277 1.404 . S
C1274 C1278 1.353 . S
N1275 Co1240 2.145 . S
N1275 C1276 1.397 . S
N1275 C1277 1.334 . S
C1276 H1257 0.929 . S
C1276 C1273 1.388 . S
C1276 N1275 1.397 . S
C1277 H1258 0.929 . S
C1277 C1274 1.404 . S
C1277 N1275 1.334 . S
C1278 H1270 0.930 . S
C1278 C1273 1.418 . S
C1278 C1274 1.353 . S
C1279 H1249 0.930 . S
C1279 N1280 1.330 . S
C1279 C1281 1.446 . S
N1280 Co1239 2.151 . S
N1280 C1279 1.330 . S
N1280 C1284 1.418 . S
C1281 H1260 0.929 . S
C1281 C1279 1.446 . S
C1281 C1282 1.332 . S
C1282 H1262 0.931 . S
C1282 C1281 1.332 . S
C1282 C1283 1.267 . S
C1283 H1251 0.929 . S
C1283 C1282 1.267 . S
C1283 C1284 1.251 . S
C1284 H1254 0.929 . S
C1284 N1280 1.418 . S
C1284 C1283 1.251 . S
C1285 H1252 0.930 . S
C1285 C1287 1.406 . S
C1285 C1290 1.261 . S
C1286 H1253 0.930 . S
C1286 N1288 1.325 . S
C1286 C1289 1.357 . S
C1287 H1255 0.928 . S
C1287 C1285 1.406 . S
C1287 N1288 1.261 . S
N1288 Co1239 2.214 . S
N1288 C1286 1.325 . S
N1288 C1287 1.261 . S
C1289 H1259 0.931 . S
C1289 C1286 1.357 . S
C1289 C1290 1.312 . S
C1290 H1261 0.930 . S
C1290 C1285 1.261 . S
C1290 C1289 1.312 . S
C1291 O1263 1.214 . S
C1291 O1271 1.234 . S
C1292 H1264 0.929 . S
C1292 C1295 1.391 . S
C1292 C1297 1.391 . S
C1293 H1265 0.929 . S
C1293 C1294 1.390 . S
C1293 N1296 1.391 . S
C1294 H1266 0.930 . S
C1294 C1293 1.390 . S
C1294 C1295 1.392 . S
C1295 H1267 0.929 . S
C1295 C1292 1.391 . S
C1295 C1294 1.392 . S
N1296 Co1240 2.257 . S
N1296 C1293 1.391 . S
N1296 C1297 1.388 . S
C1297 H1268 0.930 . S
C1297 C1292 1.391 . S
C1297 N1296 1.388 . S
Co1298 O1300 2.143 . S
Co1298 O1306 2.074 . S
Co1298 O1309 2.093 . S
Co1298 O1322 2.097 . S
Co1298 N1339 2.151 . S
Co1298 N1347 2.214 . S
Co1299 O1300 2.160 . S
Co1299 O1305 2.058 . S
Co1299 O1315 2.057 . S
Co1299 O1330 2.037 . S
Co1299 N1334 2.145 . S
Co1299 N1355 2.257 . S
O1300 Co1298 2.143 . S
O1300 Co1299 2.160 . S
C1301 O1302 1.278 . S
C1301 O1309 1.224 . S
O1302 C1301 1.278 . S
C1303 O1304 1.245 . S
C1303 O1315 1.232 . S
O1304 C1303 1.245 . S
O1305 Co1299 2.058 . S
O1305 C1331 1.269 . S
O1306 Co1298 2.074 . S
O1306 C1331 1.257 . S
H1307 C1332 0.930 . S
H1308 C1338 0.930 . S
O1309 Co1298 2.093 . S
O1309 C1301 1.224 . S
H1310 C1342 0.929 . S
H1311 C1344 0.930 . S
H1312 C1345 0.930 . S
H1313 C1343 0.929 . S
H1314 C1346 0.928 . S
O1315 Co1299 2.057 . S
O1315 C1303 1.232 . S
H1316 C1335 0.929 . S
H1317 C1336 0.929 . S
H1318 C1348 0.931 . S
H1319 C1340 0.929 . S
H1320 C1349 0.930 . S
H1321 C1341 0.931 . S
O1322 Co1298 2.097 . S
O1322 C1350 1.214 . S
H1323 C1351 0.929 . S
H1324 C1352 0.929 . S
H1325 C1353 0.930 . S
H1326 C1354 0.929 . S
H1327 C1356 0.930 . S
H1328 C1333 0.930 . S
H1329 C1337 0.930 . S
O1330 Co1299 2.037 . S
O1330 C1350 1.234 . S
C1331 O1305 1.269 . S
C1331 O1306 1.257 . S
C1332 H1307 0.930 . S
C1332 C1335 1.388 . S
C1332 C1337 1.418 . S
C1333 H1328 0.930 . S
C1333 C1336 1.404 . S
C1333 C1337 1.353 . S
N1334 Co1299 2.145 . S
N1334 C1335 1.397 . S
N1334 C1336 1.334 . S
C1335 H1316 0.929 . S
C1335 C1332 1.388 . S
C1335 N1334 1.397 . S
C1336 H1317 0.929 . S
C1336 C1333 1.404 . S
C1336 N1334 1.334 . S
C1337 H1329 0.930 . S
C1337 C1332 1.418 . S
C1337 C1333 1.353 . S
C1338 H1308 0.930 . S
C1338 N1339 1.330 . S
C1338 C1340 1.446 . S
N1339 Co1298 2.151 . S
N1339 C1338 1.330 . S
N1339 C1343 1.418 . S
C1340 H1319 0.929 . S
C1340 C1338 1.446 . S
C1340 C1341 1.332 . S
C1341 H1321 0.931 . S
C1341 C1340 1.332 . S
C1341 C1342 1.267 . S
C1342 H1310 0.929 . S
C1342 C1341 1.267 . S
C1342 C1343 1.251 . S
C1343 H1313 0.929 . S
C1343 N1339 1.418 . S
C1343 C1342 1.251 . S
C1344 H1311 0.930 . S
C1344 C1346 1.406 . S
C1344 C1349 1.261 . S
C1345 H1312 0.930 . S
C1345 N1347 1.325 . S
C1345 C1348 1.357 . S
C1346 H1314 0.928 . S
C1346 C1344 1.406 . S
C1346 N1347 1.261 . S
N1347 Co1298 2.214 . S
N1347 C1345 1.325 . S
N1347 C1346 1.261 . S
C1348 H1318 0.931 . S
C1348 C1345 1.357 . S
C1348 C1349 1.312 . S
C1349 H1320 0.930 . S
C1349 C1344 1.261 . S
C1349 C1348 1.312 . S
C1350 O1322 1.214 . S
C1350 O1330 1.234 . S
C1351 H1323 0.929 . S
C1351 C1354 1.391 . S
C1351 C1356 1.391 . S
C1352 H1324 0.929 . S
C1352 C1353 1.390 . S
C1352 N1355 1.391 . S
C1353 H1325 0.930 . S
C1353 C1352 1.390 . S
C1353 C1354 1.392 . S
C1354 H1326 0.929 . S
C1354 C1351 1.391 . S
C1354 C1353 1.392 . S
N1355 Co1299 2.257 . S
N1355 C1352 1.391 . S
N1355 C1356 1.388 . S
C1356 H1327 0.930 . S
C1356 C1351 1.391 . S
C1356 N1355 1.388 . S
Co1357 O1359 2.143 . S
Co1357 O1365 2.074 . S
Co1357 O1368 2.093 . S
Co1357 O1381 2.097 . S
Co1357 N1398 2.151 . S
Co1357 N1406 2.214 . S
Co1358 O1359 2.160 . S
Co1358 O1364 2.058 . S
Co1358 O1374 2.057 . S
Co1358 O1389 2.037 . S
Co1358 N1393 2.145 . S
Co1358 N1414 2.257 . S
O1359 Co1357 2.143 . S
O1359 Co1358 2.160 . S
C1360 O1361 1.278 . S
C1360 O1368 1.224 . S
O1361 C1360 1.278 . S
C1362 O1363 1.245 . S
C1362 O1374 1.232 . S
O1363 C1362 1.245 . S
O1364 Co1358 2.058 . S
O1364 C1390 1.269 . S
O1365 Co1357 2.074 . S
O1365 C1390 1.257 . S
H1366 C1391 0.930 . S
H1367 C1397 0.930 . S
O1368 Co1357 2.093 . S
O1368 C1360 1.224 . S
H1369 C1401 0.929 . S
H1370 C1403 0.930 . S
H1371 C1404 0.930 . S
H1372 C1402 0.929 . S
H1373 C1405 0.928 . S
O1374 Co1358 2.057 . S
O1374 C1362 1.232 . S
H1375 C1394 0.929 . S
H1376 C1395 0.929 . S
H1377 C1407 0.931 . S
H1378 C1399 0.929 . S
H1379 C1408 0.930 . S
H1380 C1400 0.931 . S
O1381 Co1357 2.097 . S
O1381 C1409 1.214 . S
H1382 C1410 0.929 . S
H1383 C1411 0.929 . S
H1384 C1412 0.930 . S
H1385 C1413 0.929 . S
H1386 C1415 0.930 . S
H1387 C1392 0.930 . S
H1388 C1396 0.930 . S
O1389 Co1358 2.037 . S
O1389 C1409 1.234 . S
C1390 O1364 1.269 . S
C1390 O1365 1.257 . S
C1391 H1366 0.930 . S
C1391 C1394 1.388 . S
C1391 C1396 1.418 . S
C1392 H1387 0.930 . S
C1392 C1395 1.404 . S
C1392 C1396 1.353 . S
N1393 Co1358 2.145 . S
N1393 C1394 1.397 . S
N1393 C1395 1.334 . S
C1394 H1375 0.929 . S
C1394 C1391 1.388 . S
C1394 N1393 1.397 . S
C1395 H1376 0.929 . S
C1395 C1392 1.404 . S
C1395 N1393 1.334 . S
C1396 H1388 0.930 . S
C1396 C1391 1.418 . S
C1396 C1392 1.353 . S
C1397 H1367 0.930 . S
C1397 N1398 1.330 . S
C1397 C1399 1.446 . S
N1398 Co1357 2.151 . S
N1398 C1397 1.330 . S
N1398 C1402 1.418 . S
C1399 H1378 0.929 . S
C1399 C1397 1.446 . S
C1399 C1400 1.332 . S
C1400 H1380 0.931 . S
C1400 C1399 1.332 . S
C1400 C1401 1.267 . S
C1401 H1369 0.929 . S
C1401 C1400 1.267 . S
C1401 C1402 1.251 . S
C1402 H1372 0.929 . S
C1402 N1398 1.418 . S
C1402 C1401 1.251 . S
C1403 H1370 0.930 . S
C1403 C1405 1.406 . S
C1403 C1408 1.261 . S
C1404 H1371 0.930 . S
C1404 N1406 1.325 . S
C1404 C1407 1.357 . S
C1405 H1373 0.928 . S
C1405 C1403 1.406 . S
C1405 N1406 1.261 . S
N1406 Co1357 2.214 . S
N1406 C1404 1.325 . S
N1406 C1405 1.261 . S
C1407 H1377 0.931 . S
C1407 C1404 1.357 . S
C1407 C1408 1.312 . S
C1408 H1379 0.930 . S
C1408 C1403 1.261 . S
C1408 C1407 1.312 . S
C1409 O1381 1.214 . S
C1409 O1389 1.234 . S
C1410 H1382 0.929 . S
C1410 C1413 1.391 . S
C1410 C1415 1.391 . S
C1411 H1383 0.929 . S
C1411 C1412 1.390 . S
C1411 N1414 1.391 . S
C1412 H1384 0.930 . S
C1412 C1411 1.390 . S
C1412 C1413 1.392 . S
C1413 H1385 0.929 . S
C1413 C1410 1.391 . S
C1413 C1412 1.392 . S
N1414 Co1358 2.257 . S
N1414 C1411 1.391 . S
N1414 C1415 1.388 . S
C1415 H1386 0.930 . S
C1415 C1410 1.391 . S
C1415 N1414 1.388 . S
Co1416 O1418 2.143 . S
Co1416 O1424 2.074 . S
Co1416 O1427 2.093 . S
Co1416 O1440 2.097 . S
Co1416 N1457 2.151 . S
Co1416 N1465 2.214 . S
Co1417 O1418 2.160 . S
Co1417 O1423 2.058 . S
Co1417 O1433 2.057 . S
Co1417 O1448 2.037 . S
Co1417 N1452 2.145 . S
Co1417 N1473 2.257 . S
O1418 Co1416 2.143 . S
O1418 Co1417 2.160 . S
C1419 O1420 1.278 . S
C1419 O1427 1.224 . S
O1420 C1419 1.278 . S
C1421 O1422 1.245 . S
C1421 O1433 1.232 . S
O1422 C1421 1.245 . S
O1423 Co1417 2.058 . S
O1423 C1449 1.269 . S
O1424 Co1416 2.074 . S
O1424 C1449 1.257 . S
H1425 C1450 0.930 . S
H1426 C1456 0.930 . S
O1427 Co1416 2.093 . S
O1427 C1419 1.224 . S
H1428 C1460 0.929 . S
H1429 C1462 0.930 . S
H1430 C1463 0.930 . S
H1431 C1461 0.929 . S
H1432 C1464 0.928 . S
O1433 Co1417 2.057 . S
O1433 C1421 1.232 . S
H1434 C1453 0.929 . S
H1435 C1454 0.929 . S
H1436 C1466 0.931 . S
H1437 C1458 0.929 . S
H1438 C1467 0.930 . S
H1439 C1459 0.931 . S
O1440 Co1416 2.097 . S
O1440 C1468 1.214 . S
H1441 C1469 0.929 . S
H1442 C1470 0.929 . S
H1443 C1471 0.930 . S
H1444 C1472 0.929 . S
H1445 C1474 0.930 . S
H1446 C1451 0.930 . S
H1447 C1455 0.930 . S
O1448 Co1417 2.037 . S
O1448 C1468 1.234 . S
C1449 O1423 1.269 . S
C1449 O1424 1.257 . S
C1450 H1425 0.930 . S
C1450 C1453 1.388 . S
C1450 C1455 1.418 . S
C1451 H1446 0.930 . S
C1451 C1454 1.404 . S
C1451 C1455 1.353 . S
N1452 Co1417 2.145 . S
N1452 C1453 1.397 . S
N1452 C1454 1.334 . S
C1453 H1434 0.929 . S
C1453 C1450 1.388 . S
C1453 N1452 1.397 . S
C1454 H1435 0.929 . S
C1454 C1451 1.404 . S
C1454 N1452 1.334 . S
C1455 H1447 0.930 . S
C1455 C1450 1.418 . S
C1455 C1451 1.353 . S
C1456 H1426 0.930 . S
C1456 N1457 1.330 . S
C1456 C1458 1.446 . S
N1457 Co1416 2.151 . S
N1457 C1456 1.330 . S
N1457 C1461 1.418 . S
C1458 H1437 0.929 . S
C1458 C1456 1.446 . S
C1458 C1459 1.332 . S
C1459 H1439 0.931 . S
C1459 C1458 1.332 . S
C1459 C1460 1.267 . S
C1460 H1428 0.929 . S
C1460 C1459 1.267 . S
C1460 C1461 1.251 . S
C1461 H1431 0.929 . S
C1461 N1457 1.418 . S
C1461 C1460 1.251 . S
C1462 H1429 0.930 . S
C1462 C1464 1.406 . S
C1462 C1467 1.261 . S
C1463 H1430 0.930 . S
C1463 N1465 1.325 . S
C1463 C1466 1.357 . S
C1464 H1432 0.928 . S
C1464 C1462 1.406 . S
C1464 N1465 1.261 . S
N1465 Co1416 2.214 . S
N1465 C1463 1.325 . S
N1465 C1464 1.261 . S
C1466 H1436 0.931 . S
C1466 C1463 1.357 . S
C1466 C1467 1.312 . S
C1467 H1438 0.930 . S
C1467 C1462 1.261 . S
C1467 C1466 1.312 . S
C1468 O1440 1.214 . S
C1468 O1448 1.234 . S
C1469 H1441 0.929 . S
C1469 C1472 1.391 . S
C1469 C1474 1.391 . S
C1470 H1442 0.929 . S
C1470 C1471 1.390 . S
C1470 N1473 1.391 . S
C1471 H1443 0.930 . S
C1471 C1470 1.390 . S
C1471 C1472 1.392 . S
C1472 H1444 0.929 . S
C1472 C1469 1.391 . S
C1472 C1471 1.392 . S
N1473 Co1417 2.257 . S
N1473 C1470 1.391 . S
N1473 C1474 1.388 . S
C1474 H1445 0.930 . S
C1474 C1469 1.391 . S
C1474 N1473 1.388 . S
Co1475 O1477 2.143 . S
Co1475 O1483 2.074 . S
Co1475 O1486 2.093 . S
Co1475 O1499 2.097 . S
Co1475 N1516 2.151 . S
Co1475 N1524 2.214 . S
Co1476 O1477 2.160 . S
Co1476 O1482 2.058 . S
Co1476 O1492 2.057 . S
Co1476 O1507 2.037 . S
Co1476 N1511 2.145 . S
Co1476 N1532 2.257 . S
O1477 Co1475 2.143 . S
O1477 Co1476 2.160 . S
C1478 O1479 1.278 . S
C1478 O1486 1.224 . S
O1479 C1478 1.278 . S
C1480 O1481 1.245 . S
C1480 O1492 1.232 . S
O1481 C1480 1.245 . S
O1482 Co1476 2.058 . S
O1482 C1508 1.269 . S
O1483 Co1475 2.074 . S
O1483 C1508 1.257 . S
H1484 C1509 0.930 . S
H1485 C1515 0.930 . S
O1486 Co1475 2.093 . S
O1486 C1478 1.224 . S
H1487 C1519 0.929 . S
H1488 C1521 0.930 . S
H1489 C1522 0.930 . S
H1490 C1520 0.929 . S
H1491 C1523 0.928 . S
O1492 Co1476 2.057 . S
O1492 C1480 1.232 . S
H1493 C1512 0.929 . S
H1494 C1513 0.929 . S
H1495 C1525 0.931 . S
H1496 C1517 0.929 . S
H1497 C1526 0.930 . S
H1498 C1518 0.931 . S
O1499 Co1475 2.097 . S
O1499 C1527 1.214 . S
H1500 C1528 0.929 . S
H1501 C1529 0.929 . S
H1502 C1530 0.930 . S
H1503 C1531 0.929 . S
H1504 C1533 0.930 . S
H1505 C1510 0.930 . S
H1506 C1514 0.930 . S
O1507 Co1476 2.037 . S
O1507 C1527 1.234 . S
C1508 O1482 1.269 . S
C1508 O1483 1.257 . S
C1509 H1484 0.930 . S
C1509 C1512 1.388 . S
C1509 C1514 1.418 . S
C1510 H1505 0.930 . S
C1510 C1513 1.404 . S
C1510 C1514 1.353 . S
N1511 Co1476 2.145 . S
N1511 C1512 1.397 . S
N1511 C1513 1.334 . S
C1512 H1493 0.929 . S
C1512 C1509 1.388 . S
C1512 N1511 1.397 . S
C1513 H1494 0.929 . S
C1513 C1510 1.404 . S
C1513 N1511 1.334 . S
C1514 H1506 0.930 . S
C1514 C1509 1.418 . S
C1514 C1510 1.353 . S
C1515 H1485 0.930 . S
C1515 N1516 1.330 . S
C1515 C1517 1.446 . S
N1516 Co1475 2.151 . S
N1516 C1515 1.330 . S
N1516 C1520 1.418 . S
C1517 H1496 0.929 . S
C1517 C1515 1.446 . S
C1517 C1518 1.332 . S
C1518 H1498 0.931 . S
C1518 C1517 1.332 . S
C1518 C1519 1.267 . S
C1519 H1487 0.929 . S
C1519 C1518 1.267 . S
C1519 C1520 1.251 . S
C1520 H1490 0.929 . S
C1520 N1516 1.418 . S
C1520 C1519 1.251 . S
C1521 H1488 0.930 . S
C1521 C1523 1.406 . S
C1521 C1526 1.261 . S
C1522 H1489 0.930 . S
C1522 N1524 1.325 . S
C1522 C1525 1.357 . S
C1523 H1491 0.928 . S
C1523 C1521 1.406 . S
C1523 N1524 1.261 . S
N1524 Co1475 2.214 . S
N1524 C1522 1.325 . S
N1524 C1523 1.261 . S
C1525 H1495 0.931 . S
C1525 C1522 1.357 . S
C1525 C1526 1.312 . S
C1526 H1497 0.930 . S
C1526 C1521 1.261 . S
C1526 C1525 1.312 . S
C1527 O1499 1.214 . S
C1527 O1507 1.234 . S
C1528 H1500 0.929 . S
C1528 C1531 1.391 . S
C1528 C1533 1.391 . S
C1529 H1501 0.929 . S
C1529 C1530 1.390 . S
C1529 N1532 1.391 . S
C1530 H1502 0.930 . S
C1530 C1529 1.390 . S
C1530 C1531 1.392 . S
C1531 H1503 0.929 . S
C1531 C1528 1.391 . S
C1531 C1530 1.392 . S
N1532 Co1476 2.257 . S
N1532 C1529 1.391 . S
N1532 C1533 1.388 . S
C1533 H1504 0.930 . S
C1533 C1528 1.391 . S
C1533 N1532 1.388 . S
Co1534 O1536 2.143 . S
Co1534 O1542 2.074 1_554 S
Co1534 O1545 2.093 . S
Co1534 O1558 2.097 . S
Co1534 N1575 2.151 . S
Co1534 N1583 2.214 . S
Co1535 O1536 2.160 1_556 S
Co1535 O1541 2.058 . S
Co1535 O1551 2.057 . S
Co1535 O1566 2.037 . S
Co1535 N1570 2.145 . S
Co1535 N1591 2.257 1_556 S
O1536 Co1534 2.143 . S
O1536 Co1535 2.160 1_554 S
C1537 O1538 1.278 . S
C1537 O1545 1.224 . S
O1538 C1537 1.278 . S
C1539 O1540 1.241 . S
C1539 O1551 1.232 . S
O1540 C1539 1.241 . S
O1541 Co1535 2.058 . S
O1541 C1567 1.269 . S
O1542 Co1534 2.074 1_556 S
O1542 C1567 1.257 . S
H1543 C1568 0.930 . S
H1544 C1574 0.930 . S
O1545 Co1534 2.093 . S
O1545 C1537 1.224 . S
H1546 C1578 0.929 . S
H1547 C1580 0.930 . S
H1548 C1581 0.930 . S
H1549 C1579 0.929 . S
H1550 C1582 0.928 . S
O1551 Co1535 2.057 . S
O1551 C1539 1.232 . S
H1552 C1571 0.929 . S
H1553 C1572 0.929 . S
H1554 C1584 0.931 . S
H1555 C1576 0.929 . S
H1556 C1585 0.925 1_556 S
H1557 C1577 0.931 . S
O1558 Co1534 2.097 . S
O1558 C1586 1.214 1_554 S
H1559 C1587 0.929 . S
H1560 C1588 0.932 1_556 S
H1561 C1589 0.930 . S
H1562 C1590 0.929 . S
H1563 C1592 0.930 . S
H1564 C1569 0.930 . S
H1565 C1573 0.930 . S
O1566 Co1535 2.037 . S
O1566 C1586 1.234 . S
C1567 O1541 1.269 . S
C1567 O1542 1.257 . S
C1568 H1543 0.930 . S
C1568 C1571 1.388 . S
C1568 C1573 1.418 . S
C1569 H1564 0.930 . S
C1569 C1572 1.404 . S
C1569 C1573 1.353 . S
N1570 Co1535 2.145 . S
N1570 C1571 1.397 . S
N1570 C1572 1.334 . S
C1571 H1552 0.929 . S
C1571 C1568 1.388 . S
C1571 N1570 1.397 . S
C1572 H1553 0.929 . S
C1572 C1569 1.404 . S
C1572 N1570 1.334 . S
C1573 H1565 0.930 . S
C1573 C1568 1.418 . S
C1573 C1569 1.353 . S
C1574 H1544 0.930 . S
C1574 N1575 1.330 . S
C1574 C1576 1.446 . S
N1575 Co1534 2.151 . S
N1575 C1574 1.330 . S
N1575 C1579 1.418 1_554 S
C1576 H1555 0.929 . S
C1576 C1574 1.446 . S
C1576 C1577 1.332 . S
C1577 H1557 0.931 . S
C1577 C1576 1.332 . S
C1577 C1578 1.267 1_554 S
C1578 H1546 0.929 . S
C1578 C1577 1.267 1_556 S
C1578 C1579 1.251 . S
C1579 H1549 0.929 . S
C1579 N1575 1.418 1_556 S
C1579 C1578 1.251 . S
C1580 H1547 0.930 . S
C1580 C1582 1.406 . S
C1580 C1585 1.282 . S
C1581 H1548 0.930 . S
C1581 N1583 1.325 1_556 S
C1581 C1584 1.357 . S
C1582 H1550 0.928 . S
C1582 C1580 1.406 . S
C1582 N1583 1.261 . S
N1583 Co1534 2.214 . S
N1583 C1581 1.325 1_554 S
N1583 C1582 1.261 . S
C1584 H1554 0.931 . S
C1584 C1581 1.357 . S
C1584 C1585 1.295 1_556 S
C1585 H1556 0.925 1_554 S
C1585 C1580 1.282 . S
C1585 C1584 1.295 1_554 S
C1586 O1558 1.214 1_556 S
C1586 O1566 1.234 . S
C1587 H1559 0.929 . S
C1587 C1590 1.391 . S
C1587 C1592 1.391 . S
C1588 H1560 0.932 1_554 S
C1588 C1589 1.390 . S
C1588 N1591 1.391 . S
C1589 H1561 0.930 . S
C1589 C1588 1.390 . S
C1589 C1590 1.392 . S
C1590 H1562 0.929 . S
C1590 C1587 1.391 . S
C1590 C1589 1.392 . S
N1591 Co1535 2.257 1_554 S
N1591 C1588 1.391 . S
N1591 C1592 1.388 . S
C1592 H1563 0.930 . S
C1592 C1587 1.391 . S
C1592 N1591 1.388 . S
Co1593 O1595 2.143 . S
Co1593 O1601 2.074 1_554 S
Co1593 O1604 2.093 . S
Co1593 O1617 2.097 . S
Co1593 N1634 2.151 . S
Co1593 N1642 2.214 . S
Co1594 O1595 2.160 1_556 S
Co1594 O1600 2.058 . S
Co1594 O1610 2.057 . S
Co1594 O1625 2.037 . S
Co1594 N1629 2.145 . S
Co1594 N1650 2.257 1_556 S
O1595 Co1593 2.143 . S
O1595 Co1594 2.160 1_554 S
C1596 O1597 1.278 . S
C1596 O1604 1.224 . S
O1597 C1596 1.278 . S
C1598 O1599 1.241 . S
C1598 O1610 1.232 . S
O1599 C1598 1.241 . S
O1600 Co1594 2.058 . S
O1600 C1626 1.269 . S
O1601 Co1593 2.074 1_556 S
O1601 C1626 1.257 . S
H1602 C1627 0.930 . S
H1603 C1633 0.930 . S
O1604 Co1593 2.093 . S
O1604 C1596 1.224 . S
H1605 C1637 0.929 . S
H1606 C1639 0.930 . S
H1607 C1640 0.930 . S
H1608 C1638 0.929 . S
H1609 C1641 0.928 . S
O1610 Co1594 2.057 . S
O1610 C1598 1.232 . S
H1611 C1630 0.929 . S
H1612 C1631 0.929 . S
H1613 C1643 0.931 . S
H1614 C1635 0.929 . S
H1615 C1644 0.925 1_556 S
H1616 C1636 0.931 . S
O1617 Co1593 2.097 . S
O1617 C1645 1.214 1_554 S
H1618 C1646 0.929 . S
H1619 C1647 0.932 1_556 S
H1620 C1648 0.930 . S
H1621 C1649 0.929 . S
H1622 C1651 0.930 . S
H1623 C1628 0.930 . S
H1624 C1632 0.930 . S
O1625 Co1594 2.037 . S
O1625 C1645 1.234 . S
C1626 O1600 1.269 . S
C1626 O1601 1.257 . S
C1627 H1602 0.930 . S
C1627 C1630 1.388 . S
C1627 C1632 1.418 . S
C1628 H1623 0.930 . S
C1628 C1631 1.404 . S
C1628 C1632 1.353 . S
N1629 Co1594 2.145 . S
N1629 C1630 1.397 . S
N1629 C1631 1.334 . S
C1630 H1611 0.929 . S
C1630 C1627 1.388 . S
C1630 N1629 1.397 . S
C1631 H1612 0.929 . S
C1631 C1628 1.404 . S
C1631 N1629 1.334 . S
C1632 H1624 0.930 . S
C1632 C1627 1.418 . S
C1632 C1628 1.353 . S
C1633 H1603 0.930 . S
C1633 N1634 1.330 . S
C1633 C1635 1.446 . S
N1634 Co1593 2.151 . S
N1634 C1633 1.330 . S
N1634 C1638 1.418 1_554 S
C1635 H1614 0.929 . S
C1635 C1633 1.446 . S
C1635 C1636 1.332 . S
C1636 H1616 0.931 . S
C1636 C1635 1.332 . S
C1636 C1637 1.267 1_554 S
C1637 H1605 0.929 . S
C1637 C1636 1.267 1_556 S
C1637 C1638 1.251 . S
C1638 H1608 0.929 . S
C1638 N1634 1.418 1_556 S
C1638 C1637 1.251 . S
C1639 H1606 0.930 . S
C1639 C1641 1.406 . S
C1639 C1644 1.282 . S
C1640 H1607 0.930 . S
C1640 N1642 1.325 1_556 S
C1640 C1643 1.357 . S
C1641 H1609 0.928 . S
C1641 C1639 1.406 . S
C1641 N1642 1.261 . S
N1642 Co1593 2.214 . S
N1642 C1640 1.325 1_554 S
N1642 C1641 1.261 . S
C1643 H1613 0.931 . S
C1643 C1640 1.357 . S
C1643 C1644 1.295 1_556 S
C1644 H1615 0.925 1_554 S
C1644 C1639 1.282 . S
C1644 C1643 1.295 1_554 S
C1645 O1617 1.214 1_556 S
C1645 O1625 1.234 . S
C1646 H1618 0.929 . S
C1646 C1649 1.391 . S
C1646 C1651 1.391 . S
C1647 H1619 0.932 1_554 S
C1647 C1648 1.390 . S
C1647 N1650 1.391 . S
C1648 H1620 0.930 . S
C1648 C1647 1.390 . S
C1648 C1649 1.392 . S
C1649 H1621 0.929 . S
C1649 C1646 1.391 . S
C1649 C1648 1.392 . S
N1650 Co1594 2.257 1_554 S
N1650 C1647 1.391 . S
N1650 C1651 1.388 . S
C1651 H1622 0.930 . S
C1651 C1646 1.391 . S
C1651 N1650 1.388 . S
Co1652 O1654 2.143 . S
Co1652 O1660 2.074 . S
Co1652 O1663 2.093 . S
Co1652 O1676 2.097 . S
Co1652 N1693 2.151 . S
Co1652 N1701 2.214 . S
Co1653 O1654 2.160 . S
Co1653 O1659 2.058 . S
Co1653 O1669 2.057 . S
Co1653 O1684 2.037 . S
Co1653 N1688 2.145 . S
Co1653 N1709 2.257 . S
O1654 Co1652 2.143 . S
O1654 Co1653 2.160 . S
C1655 O1656 1.278 . S
C1655 O1663 1.224 . S
O1656 C1655 1.278 . S
C1657 O1658 1.245 . S
C1657 O1669 1.232 . S
O1658 C1657 1.245 . S
O1659 Co1653 2.058 . S
O1659 C1685 1.269 . S
O1660 Co1652 2.074 . S
O1660 C1685 1.257 . S
H1661 C1686 0.930 . S
H1662 C1692 0.930 . S
O1663 Co1652 2.093 . S
O1663 C1655 1.224 . S
H1664 C1696 0.929 . S
H1665 C1698 0.930 . S
H1666 C1699 0.930 . S
H1667 C1697 0.929 . S
H1668 C1700 0.928 . S
O1669 Co1653 2.057 . S
O1669 C1657 1.232 . S
H1670 C1689 0.929 . S
H1671 C1690 0.929 . S
H1672 C1702 0.931 . S
H1673 C1694 0.929 . S
H1674 C1703 0.930 . S
H1675 C1695 0.931 . S
O1676 Co1652 2.097 . S
O1676 C1704 1.214 . S
H1677 C1705 0.929 . S
H1678 C1706 0.929 . S
H1679 C1707 0.930 . S
H1680 C1708 0.929 . S
H1681 C1710 0.930 . S
H1682 C1687 0.930 . S
H1683 C1691 0.930 . S
O1684 Co1653 2.037 . S
O1684 C1704 1.234 . S
C1685 O1659 1.269 . S
C1685 O1660 1.257 . S
C1686 H1661 0.930 . S
C1686 C1689 1.388 . S
C1686 C1691 1.418 . S
C1687 H1682 0.930 . S
C1687 C1690 1.404 . S
C1687 C1691 1.353 . S
N1688 Co1653 2.145 . S
N1688 C1689 1.397 . S
N1688 C1690 1.334 . S
C1689 H1670 0.929 . S
C1689 C1686 1.388 . S
C1689 N1688 1.397 . S
C1690 H1671 0.929 . S
C1690 C1687 1.404 . S
C1690 N1688 1.334 . S
C1691 H1683 0.930 . S
C1691 C1686 1.418 . S
C1691 C1687 1.353 . S
C1692 H1662 0.930 . S
C1692 N1693 1.330 . S
C1692 C1694 1.446 . S
N1693 Co1652 2.151 . S
N1693 C1692 1.330 . S
N1693 C1697 1.418 . S
C1694 H1673 0.929 . S
C1694 C1692 1.446 . S
C1694 C1695 1.332 . S
C1695 H1675 0.931 . S
C1695 C1694 1.332 . S
C1695 C1696 1.267 . S
C1696 H1664 0.929 . S
C1696 C1695 1.267 . S
C1696 C1697 1.251 . S
C1697 H1667 0.929 . S
C1697 N1693 1.418 . S
C1697 C1696 1.251 . S
C1698 H1665 0.930 . S
C1698 C1700 1.406 . S
C1698 C1703 1.261 . S
C1699 H1666 0.930 . S
C1699 N1701 1.325 . S
C1699 C1702 1.357 . S
C1700 H1668 0.928 . S
C1700 C1698 1.406 . S
C1700 N1701 1.261 . S
N1701 Co1652 2.214 . S
N1701 C1699 1.325 . S
N1701 C1700 1.261 . S
C1702 H1672 0.931 . S
C1702 C1699 1.357 . S
C1702 C1703 1.312 . S
C1703 H1674 0.930 . S
C1703 C1698 1.261 . S
C1703 C1702 1.312 . S
C1704 O1676 1.214 . S
C1704 O1684 1.234 . S
C1705 H1677 0.929 . S
C1705 C1708 1.391 . S
C1705 C1710 1.391 . S
C1706 H1678 0.929 . S
C1706 C1707 1.390 . S
C1706 N1709 1.391 . S
C1707 H1679 0.930 . S
C1707 C1706 1.390 . S
C1707 C1708 1.392 . S
C1708 H1680 0.929 . S
C1708 C1705 1.391 . S
C1708 C1707 1.392 . S
N1709 Co1653 2.257 . S
N1709 C1706 1.391 . S
N1709 C1710 1.388 . S
C1710 H1681 0.930 . S
C1710 C1705 1.391 . S
C1710 N1709 1.388 . S
Co1711 O1713 2.143 . S
Co1711 O1719 2.074 . S
Co1711 O1722 2.093 . S
Co1711 O1735 2.097 . S
Co1711 N1752 2.151 . S
Co1711 N1760 2.214 . S
Co1712 O1713 2.160 . S
Co1712 O1718 2.058 . S
Co1712 O1728 2.057 . S
Co1712 O1743 2.037 . S
Co1712 N1747 2.145 . S
Co1712 N1768 2.257 . S
O1713 Co1711 2.143 . S
O1713 Co1712 2.160 . S
C1714 O1715 1.278 . S
C1714 O1722 1.224 . S
O1715 C1714 1.278 . S
C1716 O1717 1.245 . S
C1716 O1728 1.232 . S
O1717 C1716 1.245 . S
O1718 Co1712 2.058 . S
O1718 C1744 1.269 . S
O1719 Co1711 2.074 . S
O1719 C1744 1.257 . S
H1720 C1745 0.930 . S
H1721 C1751 0.930 . S
O1722 Co1711 2.093 . S
O1722 C1714 1.224 . S
H1723 C1755 0.929 . S
H1724 C1757 0.930 . S
H1725 C1758 0.930 . S
H1726 C1756 0.929 . S
H1727 C1759 0.928 . S
O1728 Co1712 2.057 . S
O1728 C1716 1.232 . S
H1729 C1748 0.929 . S
H1730 C1749 0.929 . S
H1731 C1761 0.931 . S
H1732 C1753 0.929 . S
H1733 C1762 0.930 . S
H1734 C1754 0.931 . S
O1735 Co1711 2.097 . S
O1735 C1763 1.214 . S
H1736 C1764 0.929 . S
H1737 C1765 0.929 . S
H1738 C1766 0.930 . S
H1739 C1767 0.929 . S
H1740 C1769 0.930 . S
H1741 C1746 0.930 . S
H1742 C1750 0.930 . S
O1743 Co1712 2.037 . S
O1743 C1763 1.234 . S
C1744 O1718 1.269 . S
C1744 O1719 1.257 . S
C1745 H1720 0.930 . S
C1745 C1748 1.388 . S
C1745 C1750 1.418 . S
C1746 H1741 0.930 . S
C1746 C1749 1.404 . S
C1746 C1750 1.353 . S
N1747 Co1712 2.145 . S
N1747 C1748 1.397 . S
N1747 C1749 1.334 . S
C1748 H1729 0.929 . S
C1748 C1745 1.388 . S
C1748 N1747 1.397 . S
C1749 H1730 0.929 . S
C1749 C1746 1.404 . S
C1749 N1747 1.334 . S
C1750 H1742 0.930 . S
C1750 C1745 1.418 . S
C1750 C1746 1.353 . S
C1751 H1721 0.930 . S
C1751 N1752 1.330 . S
C1751 C1753 1.446 . S
N1752 Co1711 2.151 . S
N1752 C1751 1.330 . S
N1752 C1756 1.418 . S
C1753 H1732 0.929 . S
C1753 C1751 1.446 . S
C1753 C1754 1.332 . S
C1754 H1734 0.931 . S
C1754 C1753 1.332 . S
C1754 C1755 1.267 . S
C1755 H1723 0.929 . S
C1755 C1754 1.267 . S
C1755 C1756 1.251 . S
C1756 H1726 0.929 . S
C1756 N1752 1.418 . S
C1756 C1755 1.251 . S
C1757 H1724 0.930 . S
C1757 C1759 1.406 . S
C1757 C1762 1.261 . S
C1758 H1725 0.930 . S
C1758 N1760 1.325 . S
C1758 C1761 1.357 . S
C1759 H1727 0.928 . S
C1759 C1757 1.406 . S
C1759 N1760 1.261 . S
N1760 Co1711 2.214 . S
N1760 C1758 1.325 . S
N1760 C1759 1.261 . S
C1761 H1731 0.931 . S
C1761 C1758 1.357 . S
C1761 C1762 1.312 . S
C1762 H1733 0.930 . S
C1762 C1757 1.261 . S
C1762 C1761 1.312 . S
C1763 O1735 1.214 . S
C1763 O1743 1.234 . S
C1764 H1736 0.929 . S
C1764 C1767 1.391 . S
C1764 C1769 1.391 . S
C1765 H1737 0.929 . S
C1765 C1766 1.390 . S
C1765 N1768 1.391 . S
C1766 H1738 0.930 . S
C1766 C1765 1.390 . S
C1766 C1767 1.392 . S
C1767 H1739 0.929 . S
C1767 C1764 1.391 . S
C1767 C1766 1.392 . S
N1768 Co1712 2.257 . S
N1768 C1765 1.391 . S
N1768 C1769 1.388 . S
C1769 H1740 0.930 . S
C1769 C1764 1.391 . S
C1769 N1768 1.388 . S
Co1770 O1772 2.143 . S
Co1770 O1778 2.074 1_556 S
Co1770 O1781 2.093 . S
Co1770 O1794 2.097 . S
Co1770 N1811 2.151 . S
Co1770 N1819 2.214 . S
Co1771 O1772 2.160 1_554 S
Co1771 O1777 2.058 . S
Co1771 O1787 2.057 . S
Co1771 O1802 2.037 . S
Co1771 N1806 2.145 . S
Co1771 N1827 2.257 1_554 S
O1772 Co1770 2.143 . S
O1772 Co1771 2.160 1_556 S
C1773 O1774 1.278 . S
C1773 O1781 1.224 . S
O1774 C1773 1.278 . S
C1775 O1776 1.241 . S
C1775 O1787 1.232 . S
O1776 C1775 1.241 . S
O1777 Co1771 2.058 . S
O1777 C1803 1.269 . S
O1778 Co1770 2.074 1_554 S
O1778 C1803 1.257 . S
H1779 C1804 0.930 . S
H1780 C1810 0.930 . S
O1781 Co1770 2.093 . S
O1781 C1773 1.224 . S
H1782 C1814 0.929 . S
H1783 C1816 0.930 . S
H1784 C1817 0.930 . S
H1785 C1815 0.929 . S
H1786 C1818 0.928 . S
O1787 Co1771 2.057 . S
O1787 C1775 1.232 . S
H1788 C1807 0.929 . S
H1789 C1808 0.929 . S
H1790 C1820 0.931 . S
H1791 C1812 0.929 . S
H1792 C1821 0.925 1_554 S
H1793 C1813 0.931 . S
O1794 Co1770 2.097 . S
O1794 C1822 1.214 1_556 S
H1795 C1823 0.929 . S
H1796 C1824 0.932 1_554 S
H1797 C1825 0.930 . S
H1798 C1826 0.929 . S
H1799 C1828 0.930 . S
H1800 C1805 0.930 . S
H1801 C1809 0.930 . S
O1802 Co1771 2.037 . S
O1802 C1822 1.234 . S
C1803 O1777 1.269 . S
C1803 O1778 1.257 . S
C1804 H1779 0.930 . S
C1804 C1807 1.388 . S
C1804 C1809 1.418 . S
C1805 H1800 0.930 . S
C1805 C1808 1.404 . S
C1805 C1809 1.353 . S
N1806 Co1771 2.145 . S
N1806 C1807 1.397 . S
N1806 C1808 1.334 . S
C1807 H1788 0.929 . S
C1807 C1804 1.388 . S
C1807 N1806 1.397 . S
C1808 H1789 0.929 . S
C1808 C1805 1.404 . S
C1808 N1806 1.334 . S
C1809 H1801 0.930 . S
C1809 C1804 1.418 . S
C1809 C1805 1.353 . S
C1810 H1780 0.930 . S
C1810 N1811 1.330 . S
C1810 C1812 1.446 . S
N1811 Co1770 2.151 . S
N1811 C1810 1.330 . S
N1811 C1815 1.418 1_556 S
C1812 H1791 0.929 . S
C1812 C1810 1.446 . S
C1812 C1813 1.332 . S
C1813 H1793 0.931 . S
C1813 C1812 1.332 . S
C1813 C1814 1.267 1_556 S
C1814 H1782 0.929 . S
C1814 C1813 1.267 1_554 S
C1814 C1815 1.251 . S
C1815 H1785 0.929 . S
C1815 N1811 1.418 1_554 S
C1815 C1814 1.251 . S
C1816 H1783 0.930 . S
C1816 C1818 1.406 . S
C1816 C1821 1.282 . S
C1817 H1784 0.930 . S
C1817 N1819 1.325 1_554 S
C1817 C1820 1.357 . S
C1818 H1786 0.928 . S
C1818 C1816 1.406 . S
C1818 N1819 1.261 . S
N1819 Co1770 2.214 . S
N1819 C1817 1.325 1_556 S
N1819 C1818 1.261 . S
C1820 H1790 0.931 . S
C1820 C1817 1.357 . S
C1820 C1821 1.295 1_554 S
C1821 H1792 0.925 1_556 S
C1821 C1816 1.282 . S
C1821 C1820 1.295 1_556 S
C1822 O1794 1.214 1_554 S
C1822 O1802 1.234 . S
C1823 H1795 0.929 . S
C1823 C1826 1.391 . S
C1823 C1828 1.391 . S
C1824 H1796 0.932 1_556 S
C1824 C1825 1.390 . S
C1824 N1827 1.391 . S
C1825 H1797 0.930 . S
C1825 C1824 1.390 . S
C1825 C1826 1.392 . S
C1826 H1798 0.929 . S
C1826 C1823 1.391 . S
C1826 C1825 1.392 . S
N1827 Co1771 2.257 1_556 S
N1827 C1824 1.391 . S
N1827 C1828 1.388 . S
C1828 H1799 0.930 . S
C1828 C1823 1.391 . S
C1828 N1827 1.388 . S
Co1829 O1831 2.143 . S
Co1829 O1837 2.074 1_556 S
Co1829 O1840 2.093 . S
Co1829 O1853 2.097 . S
Co1829 N1870 2.151 . S
Co1829 N1878 2.214 . S
Co1830 O1831 2.160 1_554 S
Co1830 O1836 2.058 . S
Co1830 O1846 2.057 . S
Co1830 O1861 2.037 . S
Co1830 N1865 2.145 . S
Co1830 N1886 2.257 1_554 S
O1831 Co1829 2.143 . S
O1831 Co1830 2.160 1_556 S
C1832 O1833 1.278 . S
C1832 O1840 1.224 . S
O1833 C1832 1.278 . S
C1834 O1835 1.241 . S
C1834 O1846 1.232 . S
O1835 C1834 1.241 . S
O1836 Co1830 2.058 . S
O1836 C1862 1.269 . S
O1837 Co1829 2.074 1_554 S
O1837 C1862 1.257 . S
H1838 C1863 0.930 . S
H1839 C1869 0.930 . S
O1840 Co1829 2.093 . S
O1840 C1832 1.224 . S
H1841 C1873 0.929 . S
H1842 C1875 0.930 . S
H1843 C1876 0.930 . S
H1844 C1874 0.929 . S
H1845 C1877 0.928 . S
O1846 Co1830 2.057 . S
O1846 C1834 1.232 . S
H1847 C1866 0.929 . S
H1848 C1867 0.929 . S
H1849 C1879 0.931 . S
H1850 C1871 0.929 . S
H1851 C1880 0.925 1_554 S
H1852 C1872 0.931 . S
O1853 Co1829 2.097 . S
O1853 C1881 1.214 1_556 S
H1854 C1882 0.929 . S
H1855 C1883 0.932 1_554 S
H1856 C1884 0.930 . S
H1857 C1885 0.929 . S
H1858 C1887 0.930 . S
H1859 C1864 0.930 . S
H1860 C1868 0.930 . S
O1861 Co1830 2.037 . S
O1861 C1881 1.234 . S
C1862 O1836 1.269 . S
C1862 O1837 1.257 . S
C1863 H1838 0.930 . S
C1863 C1866 1.388 . S
C1863 C1868 1.418 . S
C1864 H1859 0.930 . S
C1864 C1867 1.404 . S
C1864 C1868 1.353 . S
N1865 Co1830 2.145 . S
N1865 C1866 1.397 . S
N1865 C1867 1.334 . S
C1866 H1847 0.929 . S
C1866 C1863 1.388 . S
C1866 N1865 1.397 . S
C1867 H1848 0.929 . S
C1867 C1864 1.404 . S
C1867 N1865 1.334 . S
C1868 H1860 0.930 . S
C1868 C1863 1.418 . S
C1868 C1864 1.353 . S
C1869 H1839 0.930 . S
C1869 N1870 1.330 . S
C1869 C1871 1.446 . S
N1870 Co1829 2.151 . S
N1870 C1869 1.330 . S
N1870 C1874 1.418 1_556 S
C1871 H1850 0.929 . S
C1871 C1869 1.446 . S
C1871 C1872 1.332 . S
C1872 H1852 0.931 . S
C1872 C1871 1.332 . S
C1872 C1873 1.267 1_556 S
C1873 H1841 0.929 . S
C1873 C1872 1.267 1_554 S
C1873 C1874 1.251 . S
C1874 H1844 0.929 . S
C1874 N1870 1.418 1_554 S
C1874 C1873 1.251 . S
C1875 H1842 0.930 . S
C1875 C1877 1.406 . S
C1875 C1880 1.282 . S
C1876 H1843 0.930 . S
C1876 N1878 1.325 1_554 S
C1876 C1879 1.357 . S
C1877 H1845 0.928 . S
C1877 C1875 1.406 . S
C1877 N1878 1.261 . S
N1878 Co1829 2.214 . S
N1878 C1876 1.325 1_556 S
N1878 C1877 1.261 . S
C1879 H1849 0.931 . S
C1879 C1876 1.357 . S
C1879 C1880 1.295 1_554 S
C1880 H1851 0.925 1_556 S
C1880 C1875 1.282 . S
C1880 C1879 1.295 1_556 S
C1881 O1853 1.214 1_554 S
C1881 O1861 1.234 . S
C1882 H1854 0.929 . S
C1882 C1885 1.391 . S
C1882 C1887 1.391 . S
C1883 H1855 0.932 1_556 S
C1883 C1884 1.390 . S
C1883 N1886 1.391 . S
C1884 H1856 0.930 . S
C1884 C1883 1.390 . S
C1884 C1885 1.392 . S
C1885 H1857 0.929 . S
C1885 C1882 1.391 . S
C1885 C1884 1.392 . S
N1886 Co1830 2.257 1_556 S
N1886 C1883 1.391 . S
N1886 C1887 1.388 . S
C1887 H1858 0.930 . S
C1887 C1882 1.391 . S
C1887 N1886 1.388 . S
H1888 C1896 0.929 . S
H1889 C1898 0.930 . S
H1890 C1900 0.930 . S
H1891 C1903 0.929 . S
H1892 C1906 0.930 . S
H1893 C1908 0.960 . S
H1894 C1908 0.960 . S
H1895 C1908 0.960 . S
C1896 H1888 0.929 . S
C1896 C1897 1.377 . S
C1896 C1898 1.384 . S
C1897 C1896 1.377 . S
C1897 C1903 1.390 . S
C1898 H1889 0.930 . S
C1898 C1896 1.384 . S
C1898 C1899 1.372 . S
C1899 C1898 1.372 . S
C1899 C1900 1.400 . S
C1899 C1904 1.490 . S
C1900 H1890 0.930 . S
C1900 C1899 1.400 . S
C1900 C1903 1.386 . S
H1901 C1917 0.930 . S
H1902 C1918 0.931 . S
C1903 H1891 0.929 . S
C1903 C1897 1.390 . S
C1903 C1900 1.386 . S
C1904 C1899 1.490 . S
C1904 C1906 1.395 . S
C1904 C1907 1.403 . S
H1905 C1911 0.930 . S
C1906 H1892 0.930 . S
C1906 C1904 1.395 . S
C1906 C1909 1.403 . S
C1907 C1904 1.403 . S
C1907 C1908 1.524 . S
C1907 C1911 1.400 . S
C1908 H1893 0.960 . S
C1908 H1894 0.960 . S
C1908 H1895 0.960 . S
C1908 C1907 1.524 . S
C1909 C1906 1.403 . S
C1909 C1910 1.392 . S
C1909 C1913 1.495 . S
C1910 C1909 1.392 . S
C1910 C1911 1.385 . S
C1910 C1912 1.478 . S
C1911 H1905 0.930 . S
C1911 C1907 1.400 . S
C1911 C1910 1.385 . S
C1912 C1910 1.478 . S
C1912 C1914 1.381 . S
C1912 C1918 1.383 . S
C1913 C1909 1.495 . S
C1913 H1919 0.959 . S
C1913 H1920 0.961 . S
C1913 H1921 0.960 . S
C1914 C1912 1.381 . S
C1914 C1915 1.394 . S
C1914 H1922 0.930 . S
C1915 C1914 1.394 . S
C1915 C1916 1.383 . S
C1915 H1923 0.929 . S
C1916 C1915 1.383 . S
C1916 C1917 1.377 . S
C1917 H1901 0.930 . S
C1917 C1916 1.377 . S
C1917 C1918 1.379 . S
C1918 H1902 0.931 . S
C1918 C1912 1.383 . S
C1918 C1917 1.379 . S
H1919 C1913 0.959 . S
H1920 C1913 0.961 . S
H1921 C1913 0.960 . S
H1922 C1914 0.930 . S
H1923 C1915 0.929 . S
H1924 C1932 0.929 . S
H1925 C1934 0.930 . S
H1926 C1936 0.930 . S
H1927 C1939 0.929 . S
H1928 C1942 0.930 . S
H1929 C1944 0.960 . S
H1930 C1944 0.960 . S
H1931 C1944 0.960 . S
C1932 H1924 0.929 . S
C1932 C1933 1.377 . S
C1932 C1934 1.384 . S
C1933 C1932 1.377 . S
C1933 C1939 1.390 . S
C1934 H1925 0.930 . S
C1934 C1932 1.384 . S
C1934 C1935 1.372 . S
C1935 C1934 1.372 . S
C1935 C1936 1.400 . S
C1935 C1940 1.490 . S
C1936 H1926 0.930 . S
C1936 C1935 1.400 . S
C1936 C1939 1.386 . S
H1937 C1953 0.930 . S
H1938 C1954 0.931 . S
C1939 H1927 0.929 . S
C1939 C1933 1.390 . S
C1939 C1936 1.386 . S
C1940 C1935 1.490 . S
C1940 C1942 1.395 . S
C1940 C1943 1.403 . S
H1941 C1947 0.930 . S
C1942 H1928 0.930 . S
C1942 C1940 1.395 . S
C1942 C1945 1.403 . S
C1943 C1940 1.403 . S
C1943 C1944 1.524 . S
C1943 C1947 1.400 . S
C1944 H1929 0.960 . S
C1944 H1930 0.960 . S
C1944 H1931 0.960 . S
C1944 C1943 1.524 . S
C1945 C1942 1.403 . S
C1945 C1946 1.392 . S
C1945 C1949 1.495 . S
C1946 C1945 1.392 . S
C1946 C1947 1.385 . S
C1946 C1948 1.478 . S
C1947 H1941 0.930 . S
C1947 C1943 1.400 . S
C1947 C1946 1.385 . S
C1948 C1946 1.478 . S
C1948 C1950 1.381 . S
C1948 C1954 1.383 . S
C1949 C1945 1.495 . S
C1949 H1955 0.959 . S
C1949 H1956 0.961 . S
C1949 H1957 0.960 . S
C1950 C1948 1.381 . S
C1950 C1951 1.394 . S
C1950 H1958 0.930 . S
C1951 C1950 1.394 . S
C1951 C1952 1.383 . S
C1951 H1959 0.929 . S
C1952 C1951 1.383 . S
C1952 C1953 1.377 . S
C1953 H1937 0.930 . S
C1953 C1952 1.377 . S
C1953 C1954 1.379 . S
C1954 H1938 0.931 . S
C1954 C1948 1.383 . S
C1954 C1953 1.379 . S
H1955 C1949 0.959 . S
H1956 C1949 0.961 . S
H1957 C1949 0.960 . S
H1958 C1950 0.930 . S
H1959 C1951 0.929 . S
H1960 C1968 0.929 . S
H1961 C1970 0.930 . S
H1962 C1972 0.930 . S
H1963 C1975 0.929 . S
H1964 C1978 0.930 . S
H1965 C1980 0.960 . S
H1966 C1980 0.960 . S
H1967 C1980 0.960 . S
C1968 H1960 0.929 . S
C1968 C1969 1.377 . S
C1968 C1970 1.384 . S
C1969 C1968 1.377 . S
C1969 C1975 1.390 . S
C1970 H1961 0.930 . S
C1970 C1968 1.384 . S
C1970 C1971 1.372 . S
C1971 C1970 1.372 . S
C1971 C1972 1.400 . S
C1971 C1976 1.490 . S
C1972 H1962 0.930 . S
C1972 C1971 1.400 . S
C1972 C1975 1.386 . S
H1973 C1989 0.930 . S
H1974 C1990 0.931 . S
C1975 H1963 0.929 . S
C1975 C1969 1.390 . S
C1975 C1972 1.386 . S
C1976 C1971 1.490 . S
C1976 C1978 1.395 . S
C1976 C1979 1.403 . S
H1977 C1983 0.930 . S
C1978 H1964 0.930 . S
C1978 C1976 1.395 . S
C1978 C1981 1.403 . S
C1979 C1976 1.403 . S
C1979 C1980 1.524 . S
C1979 C1983 1.400 . S
C1980 H1965 0.960 . S
C1980 H1966 0.960 . S
C1980 H1967 0.960 . S
C1980 C1979 1.524 . S
C1981 C1978 1.403 . S
C1981 C1982 1.392 . S
C1981 C1985 1.495 . S
C1982 C1981 1.392 . S
C1982 C1983 1.385 . S
C1982 C1984 1.478 . S
C1983 H1977 0.930 . S
C1983 C1979 1.400 . S
C1983 C1982 1.385 . S
C1984 C1982 1.478 . S
C1984 C1986 1.381 . S
C1984 C1990 1.383 . S
C1985 C1981 1.495 . S
C1985 H1991 0.959 . S
C1985 H1992 0.961 . S
C1985 H1993 0.960 . S
C1986 C1984 1.381 . S
C1986 C1987 1.394 . S
C1986 H1994 0.930 . S
C1987 C1986 1.394 . S
C1987 C1988 1.383 . S
C1987 H1995 0.929 . S
C1988 C1987 1.383 . S
C1988 C1989 1.377 . S
C1989 H1973 0.930 . S
C1989 C1988 1.377 . S
C1989 C1990 1.379 . S
C1990 H1974 0.931 . S
C1990 C1984 1.383 . S
C1990 C1989 1.379 . S
H1991 C1985 0.959 . S
H1992 C1985 0.961 . S
H1993 C1985 0.960 . S
H1994 C1986 0.930 . S
H1995 C1987 0.929 . S
H1996 C2004 0.929 . S
H1997 C2006 0.930 . S
H1998 C2008 0.930 . S
H1999 C2011 0.929 . S
H2000 C2014 0.930 . S
H2001 C2016 0.960 . S
H2002 C2016 0.960 . S
H2003 C2016 0.960 . S
C2004 H1996 0.929 . S
C2004 C2005 1.377 . S
C2004 C2006 1.384 . S
C2005 C2004 1.377 . S
C2005 C2011 1.390 . S
C2006 H1997 0.930 . S
C2006 C2004 1.384 . S
C2006 C2007 1.372 . S
C2007 C2006 1.372 . S
C2007 C2008 1.400 . S
C2007 C2012 1.490 . S
C2008 H1998 0.930 . S
C2008 C2007 1.400 . S
C2008 C2011 1.386 . S
H2009 C2025 0.930 . S
H2010 C2026 0.931 . S
C2011 H1999 0.929 . S
C2011 C2005 1.390 . S
C2011 C2008 1.386 . S
C2012 C2007 1.490 . S
C2012 C2014 1.395 . S
C2012 C2015 1.403 . S
H2013 C2019 0.930 . S
C2014 H2000 0.930 . S
C2014 C2012 1.395 . S
C2014 C2017 1.403 . S
C2015 C2012 1.403 . S
C2015 C2016 1.524 . S
C2015 C2019 1.400 . S
C2016 H2001 0.960 . S
C2016 H2002 0.960 . S
C2016 H2003 0.960 . S
C2016 C2015 1.524 . S
C2017 C2014 1.403 . S
C2017 C2018 1.392 . S
C2017 C2021 1.495 . S
C2018 C2017 1.392 . S
C2018 C2019 1.385 . S
C2018 C2020 1.478 . S
C2019 H2013 0.930 . S
C2019 C2015 1.400 . S
C2019 C2018 1.385 . S
C2020 C2018 1.478 . S
C2020 C2022 1.381 . S
C2020 C2026 1.383 . S
C2021 C2017 1.495 . S
C2021 H2027 0.959 . S
C2021 H2028 0.961 . S
C2021 H2029 0.960 . S
C2022 C2020 1.381 . S
C2022 C2023 1.394 . S
C2022 H2030 0.930 . S
C2023 C2022 1.394 . S
C2023 C2024 1.383 . S
C2023 H2031 0.929 . S
C2024 C2023 1.383 . S
C2024 C2025 1.377 . S
C2025 H2009 0.930 . S
C2025 C2024 1.377 . S
C2025 C2026 1.379 . S
C2026 H2010 0.931 . S
C2026 C2020 1.383 . S
C2026 C2025 1.379 . S
H2027 C2021 0.959 . S
H2028 C2021 0.961 . S
H2029 C2021 0.960 . S
H2030 C2022 0.930 . S
H2031 C2023 0.929 . S
H2032 C2040 0.929 . S
H2033 C2042 0.930 . S
H2034 C2044 0.930 . S
H2035 C2047 0.929 . S
H2036 C2050 0.930 . S
H2037 C2052 0.960 . S
H2038 C2052 0.960 . S
H2039 C2052 0.960 . S
C2040 H2032 0.929 . S
C2040 C2041 1.377 . S
C2040 C2042 1.384 . S
C2041 C2040 1.377 . S
C2041 C2047 1.390 . S
C2042 H2033 0.930 . S
C2042 C2040 1.384 . S
C2042 C2043 1.372 . S
C2043 C2042 1.372 . S
C2043 C2044 1.400 . S
C2043 C2048 1.490 . S
C2044 H2034 0.930 . S
C2044 C2043 1.400 . S
C2044 C2047 1.386 . S
H2045 C2061 0.930 . S
H2046 C2062 0.931 . S
C2047 H2035 0.929 . S
C2047 C2041 1.390 . S
C2047 C2044 1.386 . S
C2048 C2043 1.490 . S
C2048 C2050 1.395 . S
C2048 C2051 1.403 . S
H2049 C2055 0.930 . S
C2050 H2036 0.930 . S
C2050 C2048 1.395 . S
C2050 C2053 1.403 . S
C2051 C2048 1.403 . S
C2051 C2052 1.524 . S
C2051 C2055 1.400 . S
C2052 H2037 0.960 . S
C2052 H2038 0.960 . S
C2052 H2039 0.960 . S
C2052 C2051 1.524 . S
C2053 C2050 1.403 . S
C2053 C2054 1.392 . S
C2053 C2057 1.495 . S
C2054 C2053 1.392 . S
C2054 C2055 1.385 . S
C2054 C2056 1.478 . S
C2055 H2049 0.930 . S
C2055 C2051 1.400 . S
C2055 C2054 1.385 . S
C2056 C2054 1.478 . S
C2056 C2058 1.381 . S
C2056 C2062 1.383 . S
C2057 C2053 1.495 . S
C2057 H2063 0.959 . S
C2057 H2064 0.961 . S
C2057 H2065 0.960 . S
C2058 C2056 1.381 . S
C2058 C2059 1.394 . S
C2058 H2066 0.930 . S
C2059 C2058 1.394 . S
C2059 C2060 1.383 . S
C2059 H2067 0.929 . S
C2060 C2059 1.383 . S
C2060 C2061 1.377 . S
C2061 H2045 0.930 . S
C2061 C2060 1.377 . S
C2061 C2062 1.379 . S
C2062 H2046 0.931 . S
C2062 C2056 1.383 . S
C2062 C2061 1.379 . S
H2063 C2057 0.959 . S
H2064 C2057 0.961 . S
H2065 C2057 0.960 . S
H2066 C2058 0.930 . S
H2067 C2059 0.929 . S
H2068 C2076 0.929 . S
H2069 C2078 0.930 . S
H2070 C2080 0.930 . S
H2071 C2083 0.929 . S
H2072 C2086 0.930 . S
H2073 C2088 0.960 . S
H2074 C2088 0.960 . S
H2075 C2088 0.960 . S
C2076 H2068 0.929 . S
C2076 C2077 1.377 . S
C2076 C2078 1.384 . S
C2077 C2076 1.377 . S
C2077 C2083 1.390 . S
C2078 H2069 0.930 . S
C2078 C2076 1.384 . S
C2078 C2079 1.372 . S
C2079 C2078 1.372 . S
C2079 C2080 1.400 . S
C2079 C2084 1.490 . S
C2080 H2070 0.930 . S
C2080 C2079 1.400 . S
C2080 C2083 1.386 . S
H2081 C2097 0.930 . S
H2082 C2098 0.931 . S
C2083 H2071 0.929 . S
C2083 C2077 1.390 . S
C2083 C2080 1.386 . S
C2084 C2079 1.490 . S
C2084 C2086 1.395 . S
C2084 C2087 1.403 . S
H2085 C2091 0.930 . S
C2086 H2072 0.930 . S
C2086 C2084 1.395 . S
C2086 C2089 1.403 . S
C2087 C2084 1.403 . S
C2087 C2088 1.524 . S
C2087 C2091 1.400 . S
C2088 H2073 0.960 . S
C2088 H2074 0.960 . S
C2088 H2075 0.960 . S
C2088 C2087 1.524 . S
C2089 C2086 1.403 . S
C2089 C2090 1.392 . S
C2089 C2093 1.495 . S
C2090 C2089 1.392 . S
C2090 C2091 1.385 . S
C2090 C2092 1.478 . S
C2091 H2085 0.930 . S
C2091 C2087 1.400 . S
C2091 C2090 1.385 . S
C2092 C2090 1.478 . S
C2092 C2094 1.381 . S
C2092 C2098 1.383 . S
C2093 C2089 1.495 . S
C2093 H2099 0.959 . S
C2093 H2100 0.961 . S
C2093 H2101 0.960 . S
C2094 C2092 1.381 . S
C2094 C2095 1.394 . S
C2094 H2102 0.930 . S
C2095 C2094 1.394 . S
C2095 C2096 1.383 . S
C2095 H2103 0.929 . S
C2096 C2095 1.383 . S
C2096 C2097 1.377 . S
C2097 H2081 0.930 . S
C2097 C2096 1.377 . S
C2097 C2098 1.379 . S
C2098 H2082 0.931 . S
C2098 C2092 1.383 . S
C2098 C2097 1.379 . S
H2099 C2093 0.959 . S
H2100 C2093 0.961 . S
H2101 C2093 0.960 . S
H2102 C2094 0.930 . S
H2103 C2095 0.929 . S
H2104 C2112 0.929 . S
H2105 C2114 0.930 . S
H2106 C2116 0.930 . S
H2107 C2119 0.929 . S
H2108 C2122 0.930 . S
H2109 C2124 0.960 . S
H2110 C2124 0.960 . S
H2111 C2124 0.960 . S
C2112 H2104 0.929 . S
C2112 C2113 1.377 . S
C2112 C2114 1.384 . S
C2113 C2112 1.377 . S
C2113 C2119 1.390 . S
C2114 H2105 0.930 . S
C2114 C2112 1.384 . S
C2114 C2115 1.372 . S
C2115 C2114 1.372 . S
C2115 C2116 1.400 . S
C2115 C2120 1.490 . S
C2116 H2106 0.930 . S
C2116 C2115 1.400 . S
C2116 C2119 1.386 . S
H2117 C2133 0.930 . S
H2118 C2134 0.931 . S
C2119 H2107 0.929 . S
C2119 C2113 1.390 . S
C2119 C2116 1.386 . S
C2120 C2115 1.490 . S
C2120 C2122 1.395 . S
C2120 C2123 1.403 . S
H2121 C2127 0.930 . S
C2122 H2108 0.930 . S
C2122 C2120 1.395 . S
C2122 C2125 1.403 . S
C2123 C2120 1.403 . S
C2123 C2124 1.524 . S
C2123 C2127 1.400 . S
C2124 H2109 0.960 . S
C2124 H2110 0.960 . S
C2124 H2111 0.960 . S
C2124 C2123 1.524 . S
C2125 C2122 1.403 . S
C2125 C2126 1.392 . S
C2125 C2129 1.495 . S
C2126 C2125 1.392 . S
C2126 C2127 1.385 . S
C2126 C2128 1.478 . S
C2127 H2121 0.930 . S
C2127 C2123 1.400 . S
C2127 C2126 1.385 . S
C2128 C2126 1.478 . S
C2128 C2130 1.381 . S
C2128 C2134 1.383 . S
C2129 C2125 1.495 . S
C2129 H2135 0.959 . S
C2129 H2136 0.961 . S
C2129 H2137 0.960 . S
C2130 C2128 1.381 . S
C2130 C2131 1.394 . S
C2130 H2138 0.930 . S
C2131 C2130 1.394 . S
C2131 C2132 1.383 . S
C2131 H2139 0.929 . S
C2132 C2131 1.383 . S
C2132 C2133 1.377 . S
C2133 H2117 0.930 . S
C2133 C2132 1.377 . S
C2133 C2134 1.379 . S
C2134 H2118 0.931 . S
C2134 C2128 1.383 . S
C2134 C2133 1.379 . S
H2135 C2129 0.959 . S
H2136 C2129 0.961 . S
H2137 C2129 0.960 . S
H2138 C2130 0.930 . S
H2139 C2131 0.929 . S
H2140 C2148 0.929 . S
H2141 C2150 0.930 . S
H2142 C2152 0.930 . S
H2143 C2155 0.929 . S
H2144 C2158 0.930 . S
H2145 C2160 0.960 . S
H2146 C2160 0.960 . S
H2147 C2160 0.960 . S
C2148 H2140 0.929 . S
C2148 C2149 1.377 . S
C2148 C2150 1.384 . S
C2149 C2148 1.377 . S
C2149 C2155 1.390 . S
C2150 H2141 0.930 . S
C2150 C2148 1.384 . S
C2150 C2151 1.372 . S
C2151 C2150 1.372 . S
C2151 C2152 1.400 . S
C2151 C2156 1.490 . S
C2152 H2142 0.930 . S
C2152 C2151 1.400 . S
C2152 C2155 1.386 . S
H2153 C2169 0.930 . S
H2154 C2170 0.931 . S
C2155 H2143 0.929 . S
C2155 C2149 1.390 . S
C2155 C2152 1.386 . S
C2156 C2151 1.490 . S
C2156 C2158 1.395 . S
C2156 C2159 1.403 . S
H2157 C2163 0.930 . S
C2158 H2144 0.930 . S
C2158 C2156 1.395 . S
C2158 C2161 1.403 . S
C2159 C2156 1.403 . S
C2159 C2160 1.524 . S
C2159 C2163 1.400 . S
C2160 H2145 0.960 . S
C2160 H2146 0.960 . S
C2160 H2147 0.960 . S
C2160 C2159 1.524 . S
C2161 C2158 1.403 . S
C2161 C2162 1.392 . S
C2161 C2165 1.495 . S
C2162 C2161 1.392 . S
C2162 C2163 1.385 . S
C2162 C2164 1.478 . S
C2163 H2157 0.930 . S
C2163 C2159 1.400 . S
C2163 C2162 1.385 . S
C2164 C2162 1.478 . S
C2164 C2166 1.381 . S
C2164 C2170 1.383 . S
C2165 C2161 1.495 . S
C2165 H2171 0.959 . S
C2165 H2172 0.961 . S
C2165 H2173 0.960 . S
C2166 C2164 1.381 . S
C2166 C2167 1.394 . S
C2166 H2174 0.930 . S
C2167 C2166 1.394 . S
C2167 C2168 1.383 . S
C2167 H2175 0.929 . S
C2168 C2167 1.383 . S
C2168 C2169 1.377 . S
C2169 H2153 0.930 . S
C2169 C2168 1.377 . S
C2169 C2170 1.379 . S
C2170 H2154 0.931 . S
C2170 C2164 1.383 . S
C2170 C2169 1.379 . S
H2171 C2165 0.959 . S
H2172 C2165 0.961 . S
H2173 C2165 0.960 . S
H2174 C2166 0.930 . S
H2175 C2167 0.929 . S
H2176 C2184 0.929 . S
H2177 C2186 0.930 . S
H2178 C2188 0.930 . S
H2179 C2191 0.929 . S
H2180 C2194 0.930 . S
H2181 C2196 0.960 . S
H2182 C2196 0.960 . S
H2183 C2196 0.960 . S
C2184 H2176 0.929 . S
C2184 C2185 1.377 . S
C2184 C2186 1.384 . S
C2185 C2184 1.377 . S
C2185 C2191 1.390 . S
C2186 H2177 0.930 . S
C2186 C2184 1.384 . S
C2186 C2187 1.372 . S
C2187 C2186 1.372 . S
C2187 C2188 1.400 . S
C2187 C2192 1.490 . S
C2188 H2178 0.930 . S
C2188 C2187 1.400 . S
C2188 C2191 1.386 . S
H2189 C2205 0.930 . S
H2190 C2206 0.931 . S
C2191 H2179 0.929 . S
C2191 C2185 1.390 . S
C2191 C2188 1.386 . S
C2192 C2187 1.490 . S
C2192 C2194 1.395 . S
C2192 C2195 1.403 . S
H2193 C2199 0.930 . S
C2194 H2180 0.930 . S
C2194 C2192 1.395 . S
C2194 C2197 1.403 . S
C2195 C2192 1.403 . S
C2195 C2196 1.524 . S
C2195 C2199 1.400 . S
C2196 H2181 0.960 . S
C2196 H2182 0.960 . S
C2196 H2183 0.960 . S
C2196 C2195 1.524 . S
C2197 C2194 1.403 . S
C2197 C2198 1.392 . S
C2197 C2201 1.495 . S
C2198 C2197 1.392 . S
C2198 C2199 1.385 . S
C2198 C2200 1.478 . S
C2199 H2193 0.930 . S
C2199 C2195 1.400 . S
C2199 C2198 1.385 . S
C2200 C2198 1.478 . S
C2200 C2202 1.381 . S
C2200 C2206 1.383 . S
C2201 C2197 1.495 . S
C2201 H2207 0.959 . S
C2201 H2208 0.961 . S
C2201 H2209 0.960 . S
C2202 C2200 1.381 . S
C2202 C2203 1.394 . S
C2202 H2210 0.930 . S
C2203 C2202 1.394 . S
C2203 C2204 1.383 . S
C2203 H2211 0.929 . S
C2204 C2203 1.383 . S
C2204 C2205 1.377 . S
C2205 H2189 0.930 . S
C2205 C2204 1.377 . S
C2205 C2206 1.379 . S
C2206 H2190 0.931 . S
C2206 C2200 1.383 . S
C2206 C2205 1.379 . S
H2207 C2201 0.959 . S
H2208 C2201 0.961 . S
H2209 C2201 0.960 . S
H2210 C2202 0.930 . S
H2211 C2203 0.929 . S
H2212 C2220 0.929 . S
H2213 C2222 0.930 . S
H2214 C2224 0.930 . S
H2215 C2227 0.929 . S
H2216 C2230 0.930 . S
H2217 C2232 0.960 . S
H2218 C2232 0.960 . S
H2219 C2232 0.960 . S
C2220 H2212 0.929 . S
C2220 C2221 1.377 . S
C2220 C2222 1.384 . S
C2221 C2220 1.377 . S
C2221 C2227 1.390 . S
C2222 H2213 0.930 . S
C2222 C2220 1.384 . S
C2222 C2223 1.372 . S
C2223 C2222 1.372 . S
C2223 C2224 1.400 . S
C2223 C2228 1.490 . S
C2224 H2214 0.930 . S
C2224 C2223 1.400 . S
C2224 C2227 1.386 . S
H2225 C2241 0.930 . S
H2226 C2242 0.931 . S
C2227 H2215 0.929 . S
C2227 C2221 1.390 . S
C2227 C2224 1.386 . S
C2228 C2223 1.490 . S
C2228 C2230 1.395 . S
C2228 C2231 1.403 . S
H2229 C2235 0.930 . S
C2230 H2216 0.930 . S
C2230 C2228 1.395 . S
C2230 C2233 1.403 . S
C2231 C2228 1.403 . S
C2231 C2232 1.524 . S
C2231 C2235 1.400 . S
C2232 H2217 0.960 . S
C2232 H2218 0.960 . S
C2232 H2219 0.960 . S
C2232 C2231 1.524 . S
C2233 C2230 1.403 . S
C2233 C2234 1.392 . S
C2233 C2237 1.495 . S
C2234 C2233 1.392 . S
C2234 C2235 1.385 . S
C2234 C2236 1.478 . S
C2235 H2229 0.930 . S
C2235 C2231 1.400 . S
C2235 C2234 1.385 . S
C2236 C2234 1.478 . S
C2236 C2238 1.381 . S
C2236 C2242 1.383 . S
C2237 C2233 1.495 . S
C2237 H2243 0.959 . S
C2237 H2244 0.961 . S
C2237 H2245 0.960 . S
C2238 C2236 1.381 . S
C2238 C2239 1.394 . S
C2238 H2246 0.930 . S
C2239 C2238 1.394 . S
C2239 C2240 1.383 . S
C2239 H2247 0.929 . S
C2240 C2239 1.383 . S
C2240 C2241 1.377 . S
C2241 H2225 0.930 . S
C2241 C2240 1.377 . S
C2241 C2242 1.379 . S
C2242 H2226 0.931 . S
C2242 C2236 1.383 . S
C2242 C2241 1.379 . S
H2243 C2237 0.959 . S
H2244 C2237 0.961 . S
H2245 C2237 0.960 . S
H2246 C2238 0.930 . S
H2247 C2239 0.929 . S
H2248 C2256 0.929 . S
H2249 C2258 0.930 . S
H2250 C2260 0.930 . S
H2251 C2263 0.929 . S
H2252 C2266 0.930 . S
H2253 C2268 0.960 . S
H2254 C2268 0.960 . S
H2255 C2268 0.960 . S
C2256 H2248 0.929 . S
C2256 C2257 1.377 . S
C2256 C2258 1.384 . S
C2257 C2256 1.377 . S
C2257 C2263 1.390 . S
C2258 H2249 0.930 . S
C2258 C2256 1.384 . S
C2258 C2259 1.372 . S
C2259 C2258 1.372 . S
C2259 C2260 1.400 . S
C2259 C2264 1.490 . S
C2260 H2250 0.930 . S
C2260 C2259 1.400 . S
C2260 C2263 1.386 . S
H2261 C2277 0.930 . S
H2262 C2278 0.931 . S
C2263 H2251 0.929 . S
C2263 C2257 1.390 . S
C2263 C2260 1.386 . S
C2264 C2259 1.490 . S
C2264 C2266 1.395 . S
C2264 C2267 1.403 . S
H2265 C2271 0.930 . S
C2266 H2252 0.930 . S
C2266 C2264 1.395 . S
C2266 C2269 1.403 . S
C2267 C2264 1.403 . S
C2267 C2268 1.524 . S
C2267 C2271 1.400 . S
C2268 H2253 0.960 . S
C2268 H2254 0.960 . S
C2268 H2255 0.960 . S
C2268 C2267 1.524 . S
C2269 C2266 1.403 . S
C2269 C2270 1.392 . S
C2269 C2273 1.495 . S
C2270 C2269 1.392 . S
C2270 C2271 1.385 . S
C2270 C2272 1.478 . S
C2271 H2265 0.930 . S
C2271 C2267 1.400 . S
C2271 C2270 1.385 . S
C2272 C2270 1.478 . S
C2272 C2274 1.381 . S
C2272 C2278 1.383 . S
C2273 C2269 1.495 . S
C2273 H2279 0.959 . S
C2273 H2280 0.961 . S
C2273 H2281 0.960 . S
C2274 C2272 1.381 . S
C2274 C2275 1.394 . S
C2274 H2282 0.930 . S
C2275 C2274 1.394 . S
C2275 C2276 1.383 . S
C2275 H2283 0.929 . S
C2276 C2275 1.383 . S
C2276 C2277 1.377 . S
C2277 H2261 0.930 . S
C2277 C2276 1.377 . S
C2277 C2278 1.379 . S
C2278 H2262 0.931 . S
C2278 C2272 1.383 . S
C2278 C2277 1.379 . S
H2279 C2273 0.959 . S
H2280 C2273 0.961 . S
H2281 C2273 0.960 . S
H2282 C2274 0.930 . S
H2283 C2275 0.929 . S
H2284 C2292 0.929 . S
H2285 C2294 0.930 . S
H2286 C2296 0.930 . S
H2287 C2299 0.929 . S
H2288 C2302 0.930 . S
H2289 C2304 0.960 . S
H2290 C2304 0.960 . S
H2291 C2304 0.960 . S
C2292 H2284 0.929 . S
C2292 C2293 1.377 . S
C2292 C2294 1.384 . S
C2293 C2292 1.377 . S
C2293 C2299 1.390 . S
C2294 H2285 0.930 . S
C2294 C2292 1.384 . S
C2294 C2295 1.372 . S
C2295 C2294 1.372 . S
C2295 C2296 1.400 . S
C2295 C2300 1.490 . S
C2296 H2286 0.930 . S
C2296 C2295 1.400 . S
C2296 C2299 1.386 . S
H2297 C2313 0.930 . S
H2298 C2314 0.931 . S
C2299 H2287 0.929 . S
C2299 C2293 1.390 . S
C2299 C2296 1.386 . S
C2300 C2295 1.490 . S
C2300 C2302 1.395 . S
C2300 C2303 1.403 . S
H2301 C2307 0.930 . S
C2302 H2288 0.930 . S
C2302 C2300 1.395 . S
C2302 C2305 1.403 . S
C2303 C2300 1.403 . S
C2303 C2304 1.524 . S
C2303 C2307 1.400 . S
C2304 H2289 0.960 . S
C2304 H2290 0.960 . S
C2304 H2291 0.960 . S
C2304 C2303 1.524 . S
C2305 C2302 1.403 . S
C2305 C2306 1.392 . S
C2305 C2309 1.495 . S
C2306 C2305 1.392 . S
C2306 C2307 1.385 . S
C2306 C2308 1.478 . S
C2307 H2301 0.930 . S
C2307 C2303 1.400 . S
C2307 C2306 1.385 . S
C2308 C2306 1.478 . S
C2308 C2310 1.381 . S
C2308 C2314 1.383 . S
C2309 C2305 1.495 . S
C2309 H2315 0.959 . S
C2309 H2316 0.961 . S
C2309 H2317 0.960 . S
C2310 C2308 1.381 . S
C2310 C2311 1.394 . S
C2310 H2318 0.930 . S
C2311 C2310 1.394 . S
C2311 C2312 1.383 . S
C2311 H2319 0.929 . S
C2312 C2311 1.383 . S
C2312 C2313 1.377 . S
C2313 H2297 0.930 . S
C2313 C2312 1.377 . S
C2313 C2314 1.379 . S
C2314 H2298 0.931 . S
C2314 C2308 1.383 . S
C2314 C2313 1.379 . S
H2315 C2309 0.959 . S
H2316 C2309 0.961 . S
H2317 C2309 0.960 . S
H2318 C2310 0.930 . S
H2319 C2311 0.929 . S
H2320 C2328 0.929 . S
H2321 C2330 0.930 . S
H2322 C2332 0.930 . S
H2323 C2335 0.929 . S
H2324 C2338 0.930 . S
H2325 C2340 0.960 . S
H2326 C2340 0.960 . S
H2327 C2340 0.960 . S
C2328 H2320 0.929 . S
C2328 C2329 1.377 . S
C2328 C2330 1.384 . S
C2329 C2328 1.377 . S
C2329 C2335 1.390 . S
C2330 H2321 0.930 . S
C2330 C2328 1.384 . S
C2330 C2331 1.372 . S
C2331 C2330 1.372 . S
C2331 C2332 1.400 . S
C2331 C2336 1.490 . S
C2332 H2322 0.930 . S
C2332 C2331 1.400 . S
C2332 C2335 1.386 . S
H2333 C2349 0.930 . S
H2334 C2350 0.931 . S
C2335 H2323 0.929 . S
C2335 C2329 1.390 . S
C2335 C2332 1.386 . S
C2336 C2331 1.490 . S
C2336 C2338 1.395 . S
C2336 C2339 1.403 . S
H2337 C2343 0.930 . S
C2338 H2324 0.930 . S
C2338 C2336 1.395 . S
C2338 C2341 1.403 . S
C2339 C2336 1.403 . S
C2339 C2340 1.524 . S
C2339 C2343 1.400 . S
C2340 H2325 0.960 . S
C2340 H2326 0.960 . S
C2340 H2327 0.960 . S
C2340 C2339 1.524 . S
C2341 C2338 1.403 . S
C2341 C2342 1.392 . S
C2341 C2345 1.495 . S
C2342 C2341 1.392 . S
C2342 C2343 1.385 . S
C2342 C2344 1.478 . S
C2343 H2337 0.930 . S
C2343 C2339 1.400 . S
C2343 C2342 1.385 . S
C2344 C2342 1.478 . S
C2344 C2346 1.381 . S
C2344 C2350 1.383 . S
C2345 C2341 1.495 . S
C2345 H2351 0.959 . S
C2345 H2352 0.961 . S
C2345 H2353 0.960 . S
C2346 C2344 1.381 . S
C2346 C2347 1.394 . S
C2346 H2354 0.930 . S
C2347 C2346 1.394 . S
C2347 C2348 1.383 . S
C2347 H2355 0.929 . S
C2348 C2347 1.383 . S
C2348 C2349 1.377 . S
C2349 H2333 0.930 . S
C2349 C2348 1.377 . S
C2349 C2350 1.379 . S
C2350 H2334 0.931 . S
C2350 C2344 1.383 . S
C2350 C2349 1.379 . S
H2351 C2345 0.959 . S
H2352 C2345 0.961 . S
H2353 C2345 0.960 . S
H2354 C2346 0.930 . S
H2355 C2347 0.929 . S
H2356 C2364 0.929 . S
H2357 C2366 0.930 . S
H2358 C2368 0.930 . S
H2359 C2371 0.929 . S
H2360 C2374 0.930 . S
H2361 C2376 0.960 . S
H2362 C2376 0.960 . S
H2363 C2376 0.960 . S
C2364 H2356 0.929 . S
C2364 C2365 1.377 . S
C2364 C2366 1.384 . S
C2365 C2364 1.377 . S
C2365 C2371 1.390 . S
C2366 H2357 0.930 . S
C2366 C2364 1.384 . S
C2366 C2367 1.372 . S
C2367 C2366 1.372 . S
C2367 C2368 1.400 . S
C2367 C2372 1.490 . S
C2368 H2358 0.930 . S
C2368 C2367 1.400 . S
C2368 C2371 1.386 . S
H2369 C2385 0.930 . S
H2370 C2386 0.931 . S
C2371 H2359 0.929 . S
C2371 C2365 1.390 . S
C2371 C2368 1.386 . S
C2372 C2367 1.490 . S
C2372 C2374 1.395 . S
C2372 C2375 1.403 . S
H2373 C2379 0.930 . S
C2374 H2360 0.930 . S
C2374 C2372 1.395 . S
C2374 C2377 1.403 . S
C2375 C2372 1.403 . S
C2375 C2376 1.524 . S
C2375 C2379 1.400 . S
C2376 H2361 0.960 . S
C2376 H2362 0.960 . S
C2376 H2363 0.960 . S
C2376 C2375 1.524 . S
C2377 C2374 1.403 . S
C2377 C2378 1.392 . S
C2377 C2381 1.495 . S
C2378 C2377 1.392 . S
C2378 C2379 1.385 . S
C2378 C2380 1.478 . S
C2379 H2373 0.930 . S
C2379 C2375 1.400 . S
C2379 C2378 1.385 . S
C2380 C2378 1.478 . S
C2380 C2382 1.381 . S
C2380 C2386 1.383 . S
C2381 C2377 1.495 . S
C2381 H2387 0.959 . S
C2381 H2388 0.961 . S
C2381 H2389 0.960 . S
C2382 C2380 1.381 . S
C2382 C2383 1.394 . S
C2382 H2390 0.930 . S
C2383 C2382 1.394 . S
C2383 C2384 1.383 . S
C2383 H2391 0.929 . S
C2384 C2383 1.383 . S
C2384 C2385 1.377 . S
C2385 H2369 0.930 . S
C2385 C2384 1.377 . S
C2385 C2386 1.379 . S
C2386 H2370 0.931 . S
C2386 C2380 1.383 . S
C2386 C2385 1.379 . S
H2387 C2381 0.959 . S
H2388 C2381 0.961 . S
H2389 C2381 0.960 . S
H2390 C2382 0.930 . S
H2391 C2383 0.929 . S
H2392 C2400 0.929 . S
H2393 C2402 0.930 . S
H2394 C2404 0.930 . S
H2395 C2407 0.929 . S
H2396 C2410 0.930 . S
H2397 C2412 0.960 . S
H2398 C2412 0.960 . S
H2399 C2412 0.960 . S
C2400 H2392 0.929 . S
C2400 C2401 1.377 . S
C2400 C2402 1.384 . S
C2401 C2400 1.377 . S
C2401 C2407 1.390 . S
C2402 H2393 0.930 . S
C2402 C2400 1.384 . S
C2402 C2403 1.372 . S
C2403 C2402 1.372 . S
C2403 C2404 1.400 . S
C2403 C2408 1.490 . S
C2404 H2394 0.930 . S
C2404 C2403 1.400 . S
C2404 C2407 1.386 . S
H2405 C2421 0.930 . S
H2406 C2422 0.931 . S
C2407 H2395 0.929 . S
C2407 C2401 1.390 . S
C2407 C2404 1.386 . S
C2408 C2403 1.490 . S
C2408 C2410 1.395 . S
C2408 C2411 1.403 . S
H2409 C2415 0.930 . S
C2410 H2396 0.930 . S
C2410 C2408 1.395 . S
C2410 C2413 1.403 . S
C2411 C2408 1.403 . S
C2411 C2412 1.524 . S
C2411 C2415 1.400 . S
C2412 H2397 0.960 . S
C2412 H2398 0.960 . S
C2412 H2399 0.960 . S
C2412 C2411 1.524 . S
C2413 C2410 1.403 . S
C2413 C2414 1.392 . S
C2413 C2417 1.495 . S
C2414 C2413 1.392 . S
C2414 C2415 1.385 . S
C2414 C2416 1.478 . S
C2415 H2409 0.930 . S
C2415 C2411 1.400 . S
C2415 C2414 1.385 . S
C2416 C2414 1.478 . S
C2416 C2418 1.381 . S
C2416 C2422 1.383 . S
C2417 C2413 1.495 . S
C2417 H2423 0.959 . S
C2417 H2424 0.961 . S
C2417 H2425 0.960 . S
C2418 C2416 1.381 . S
C2418 C2419 1.394 . S
C2418 H2426 0.930 . S
C2419 C2418 1.394 . S
C2419 C2420 1.383 . S
C2419 H2427 0.929 . S
C2420 C2419 1.383 . S
C2420 C2421 1.377 . S
C2421 H2405 0.930 . S
C2421 C2420 1.377 . S
C2421 C2422 1.379 . S
C2422 H2406 0.931 . S
C2422 C2416 1.383 . S
C2422 C2421 1.379 . S
H2423 C2417 0.959 . S
H2424 C2417 0.961 . S
H2425 C2417 0.960 . S
H2426 C2418 0.930 . S
H2427 C2419 0.929 . S
H2428 C2436 0.929 . S
H2429 C2438 0.930 . S
H2430 C2440 0.930 . S
H2431 C2443 0.929 . S
H2432 C2446 0.930 . S
H2433 C2448 0.960 . S
H2434 C2448 0.960 . S
H2435 C2448 0.960 . S
C2436 H2428 0.929 . S
C2436 C2437 1.377 . S
C2436 C2438 1.384 . S
C2437 C2436 1.377 . S
C2437 C2443 1.390 . S
C2438 H2429 0.930 . S
C2438 C2436 1.384 . S
C2438 C2439 1.372 . S
C2439 C2438 1.372 . S
C2439 C2440 1.400 . S
C2439 C2444 1.490 . S
C2440 H2430 0.930 . S
C2440 C2439 1.400 . S
C2440 C2443 1.386 . S
H2441 C2457 0.930 . S
H2442 C2458 0.931 . S
C2443 H2431 0.929 . S
C2443 C2437 1.390 . S
C2443 C2440 1.386 . S
C2444 C2439 1.490 . S
C2444 C2446 1.395 . S
C2444 C2447 1.403 . S
H2445 C2451 0.930 . S
C2446 H2432 0.930 . S
C2446 C2444 1.395 . S
C2446 C2449 1.403 . S
C2447 C2444 1.403 . S
C2447 C2448 1.524 . S
C2447 C2451 1.400 . S
C2448 H2433 0.960 . S
C2448 H2434 0.960 . S
C2448 H2435 0.960 . S
C2448 C2447 1.524 . S
C2449 C2446 1.403 . S
C2449 C2450 1.392 . S
C2449 C2453 1.495 . S
C2450 C2449 1.392 . S
C2450 C2451 1.385 . S
C2450 C2452 1.478 . S
C2451 H2445 0.930 . S
C2451 C2447 1.400 . S
C2451 C2450 1.385 . S
C2452 C2450 1.478 . S
C2452 C2454 1.381 . S
C2452 C2458 1.383 . S
C2453 C2449 1.495 . S
C2453 H2459 0.959 . S
C2453 H2460 0.961 . S
C2453 H2461 0.960 . S
C2454 C2452 1.381 . S
C2454 C2455 1.394 . S
C2454 H2462 0.930 . S
C2455 C2454 1.394 . S
C2455 C2456 1.383 . S
C2455 H2463 0.929 . S
C2456 C2455 1.383 . S
C2456 C2457 1.377 . S
C2457 H2441 0.930 . S
C2457 C2456 1.377 . S
C2457 C2458 1.379 . S
C2458 H2442 0.931 . S
C2458 C2452 1.383 . S
C2458 C2457 1.379 . S
H2459 C2453 0.959 . S
H2460 C2453 0.961 . S
H2461 C2453 0.960 . S
H2462 C2454 0.930 . S
H2463 C2455 0.929 . S
H2464 C2472 0.929 . S
H2465 C2474 0.930 . S
H2466 C2476 0.930 . S
H2467 C2479 0.929 . S
H2468 C2482 0.930 . S
H2469 C2484 0.960 . S
H2470 C2484 0.960 . S
H2471 C2484 0.960 . S
C2472 H2464 0.929 . S
C2472 C2473 1.377 . S
C2472 C2474 1.384 . S
C2473 C2472 1.377 . S
C2473 C2479 1.390 . S
C2474 H2465 0.930 . S
C2474 C2472 1.384 . S
C2474 C2475 1.372 . S
C2475 C2474 1.372 . S
C2475 C2476 1.400 . S
C2475 C2480 1.490 . S
C2476 H2466 0.930 . S
C2476 C2475 1.400 . S
C2476 C2479 1.386 . S
H2477 C2493 0.930 . S
H2478 C2494 0.931 . S
C2479 H2467 0.929 . S
C2479 C2473 1.390 . S
C2479 C2476 1.386 . S
C2480 C2475 1.490 . S
C2480 C2482 1.395 1_655 S
C2480 C2483 1.403 . S
H2481 C2487 0.930 . S
C2482 H2468 0.930 . S
C2482 C2480 1.395 1_455 S
C2482 C2485 1.403 . S
C2483 C2480 1.403 . S
C2483 C2484 1.524 . S
C2483 C2487 1.400 . S
C2484 H2469 0.960 . S
C2484 H2470 0.960 . S
C2484 H2471 0.960 . S
C2484 C2483 1.524 . S
C2485 C2482 1.403 . S
C2485 C2486 1.392 . S
C2485 C2489 1.495 . S
C2486 C2485 1.392 . S
C2486 C2487 1.385 1_455 S
C2486 C2488 1.478 . S
C2487 H2481 0.930 . S
C2487 C2483 1.400 . S
C2487 C2486 1.385 1_655 S
C2488 C2486 1.478 . S
C2488 C2490 1.381 . S
C2488 C2494 1.383 . S
C2489 C2485 1.495 . S
C2489 H2495 0.959 . S
C2489 H2496 0.961 . S
C2489 H2497 0.960 . S
C2490 C2488 1.381 . S
C2490 C2491 1.394 . S
C2490 H2498 0.930 . S
C2491 C2490 1.394 . S
C2491 C2492 1.383 . S
C2491 H2499 0.929 . S
C2492 C2491 1.383 . S
C2492 C2493 1.377 . S
C2493 H2477 0.930 . S
C2493 C2492 1.377 . S
C2493 C2494 1.379 . S
C2494 H2478 0.931 . S
C2494 C2488 1.383 . S
C2494 C2493 1.379 . S
H2495 C2489 0.959 . S
H2496 C2489 0.961 . S
H2497 C2489 0.960 . S
H2498 C2490 0.930 . S
H2499 C2491 0.929 . S
H2500 C2508 0.929 . S
H2501 C2510 0.930 . S
H2502 C2512 0.930 . S
H2503 C2515 0.929 . S
H2504 C2518 0.928 1_565 S
H2505 C2520 0.960 . S
H2506 C2520 0.960 . S
H2507 C2520 0.960 . S
C2508 H2500 0.929 . S
C2508 C2509 1.377 . S
C2508 C2510 1.384 . S
C2509 C2508 1.377 . S
C2509 C2515 1.390 . S
C2510 H2501 0.930 . S
C2510 C2508 1.384 . S
C2510 C2511 1.372 . S
C2511 C2510 1.372 . S
C2511 C2512 1.400 . S
C2511 C2516 1.490 . S
C2512 H2502 0.930 . S
C2512 C2511 1.400 . S
C2512 C2515 1.386 . S
H2513 C2529 0.930 . S
H2514 C2530 0.931 . S
C2515 H2503 0.929 . S
C2515 C2509 1.390 . S
C2515 C2512 1.386 . S
C2516 C2511 1.490 . S
C2516 C2518 1.388 1_565 S
C2516 C2519 1.403 . S
H2517 C2523 0.930 . S
C2518 H2504 0.928 1_545 S
C2518 C2516 1.388 1_545 S
C2518 C2521 1.410 . S
C2519 C2516 1.403 . S
C2519 C2520 1.524 . S
C2519 C2523 1.400 1_565 S
C2520 H2505 0.960 . S
C2520 H2506 0.960 . S
C2520 H2507 0.960 . S
C2520 C2519 1.524 . S
C2521 C2518 1.410 . S
C2521 C2522 1.392 . S
C2521 C2525 1.495 . S
C2522 C2521 1.392 . S
C2522 C2523 1.385 . S
C2522 C2524 1.478 . S
C2523 H2517 0.930 . S
C2523 C2519 1.400 1_545 S
C2523 C2522 1.385 . S
C2524 C2522 1.478 . S
C2524 C2526 1.381 . S
C2524 C2530 1.383 . S
C2525 C2521 1.495 . S
C2525 H2531 0.959 . S
C2525 H2532 0.961 . S
C2525 H2533 0.960 . S
C2526 C2524 1.381 . S
C2526 C2527 1.394 . S
C2526 H2534 0.930 . S
C2527 C2526 1.394 . S
C2527 C2528 1.383 . S
C2527 H2535 0.929 . S
C2528 C2527 1.383 . S
C2528 C2529 1.377 . S
C2529 H2513 0.930 . S
C2529 C2528 1.377 . S
C2529 C2530 1.379 . S
C2530 H2514 0.931 . S
C2530 C2524 1.383 . S
C2530 C2529 1.379 . S
H2531 C2525 0.959 . S
H2532 C2525 0.961 . S
H2533 C2525 0.960 . S
H2534 C2526 0.930 . S
H2535 C2527 0.929 . S
H2536 C2544 0.929 . S
H2537 C2546 0.930 . S
H2538 C2548 0.930 . S
H2539 C2551 0.929 . S
H2540 C2554 0.928 1_565 S
H2541 C2556 0.960 . S
H2542 C2556 0.960 . S
H2543 C2556 0.960 . S
C2544 H2536 0.929 . S
C2544 C2545 1.377 1_554 S
C2544 C2546 1.384 . S
C2545 C2544 1.377 1_556 S
C2545 C2551 1.390 . S
C2546 H2537 0.930 . S
C2546 C2544 1.384 . S
C2546 C2547 1.372 1_554 S
C2547 C2546 1.372 1_556 S
C2547 C2548 1.400 . S
C2547 C2552 1.490 . S
C2548 H2538 0.930 . S
C2548 C2547 1.400 . S
C2548 C2551 1.386 . S
H2549 C2565 0.930 . S
H2550 C2566 0.931 . S
C2551 H2539 0.929 . S
C2551 C2545 1.390 . S
C2551 C2548 1.386 . S
C2552 C2547 1.490 . S
C2552 C2554 1.386 1_565 S
C2552 C2555 1.403 1_456 S
H2553 C2559 0.930 . S
C2554 H2540 0.928 1_545 S
C2554 C2552 1.386 1_545 S
C2554 C2557 1.412 . S
C2555 C2552 1.403 1_654 S
C2555 C2556 1.524 . S
C2555 C2559 1.400 1_565 S
C2556 H2541 0.960 . S
C2556 H2542 0.960 . S
C2556 H2543 0.960 . S
C2556 C2555 1.524 . S
C2557 C2554 1.412 . S
C2557 C2558 1.379 1_456 S
C2557 C2561 1.495 . S
C2558 C2557 1.379 1_654 S
C2558 C2559 1.397 . S
C2558 C2560 1.480 . S
C2559 H2553 0.930 . S
C2559 C2555 1.400 1_545 S
C2559 C2558 1.397 . S
C2560 C2558 1.480 . S
C2560 C2562 1.381 . S
C2560 C2566 1.383 1_554 S
C2561 C2557 1.495 . S
C2561 H2567 0.959 . S
C2561 H2568 0.961 . S
C2561 H2569 0.960 . S
C2562 C2560 1.381 . S
C2562 C2563 1.394 . S
C2562 H2570 0.930 . S
C2563 C2562 1.394 . S
C2563 C2564 1.383 . S
C2563 H2571 0.929 . S
C2564 C2563 1.383 . S
C2564 C2565 1.377 1_554 S
C2565 H2549 0.930 . S
C2565 C2564 1.377 1_556 S
C2565 C2566 1.379 . S
C2566 H2550 0.931 . S
C2566 C2560 1.383 1_556 S
C2566 C2565 1.379 . S
H2567 C2561 0.959 . S
H2568 C2561 0.961 . S
H2569 C2561 0.960 . S
H2570 C2562 0.930 . S
H2571 C2563 0.929 . S
H2572 C2580 0.929 . S
H2573 C2582 0.930 . S
H2574 C2584 0.930 . S
H2575 C2587 0.929 . S
H2576 C2590 0.930 . S
H2577 C2592 0.960 . S
H2578 C2592 0.960 . S
H2579 C2592 0.960 . S
C2580 H2572 0.929 . S
C2580 C2581 1.377 . S
C2580 C2582 1.384 . S
C2581 C2580 1.377 . S
C2581 C2587 1.390 1_554 S
C2582 H2573 0.930 . S
C2582 C2580 1.384 . S
C2582 C2583 1.372 . S
C2583 C2582 1.372 . S
C2583 C2584 1.400 1_554 S
C2583 C2588 1.490 . S
C2584 H2574 0.930 . S
C2584 C2583 1.400 1_556 S
C2584 C2587 1.386 . S
H2585 C2601 0.930 . S
H2586 C2602 0.931 . S
C2587 H2575 0.929 . S
C2587 C2581 1.390 1_556 S
C2587 C2584 1.386 . S
C2588 C2583 1.490 . S
C2588 C2590 1.395 . S
C2588 C2591 1.403 1_554 S
H2589 C2595 0.930 . S
C2590 H2576 0.930 . S
C2590 C2588 1.395 . S
C2590 C2593 1.403 . S
C2591 C2588 1.403 1_556 S
C2591 C2592 1.524 . S
C2591 C2595 1.400 . S
C2592 H2577 0.960 . S
C2592 H2578 0.960 . S
C2592 H2579 0.960 . S
C2592 C2591 1.524 . S
C2593 C2590 1.403 . S
C2593 C2594 1.392 . S
C2593 C2597 1.495 . S
C2594 C2593 1.392 . S
C2594 C2595 1.385 1_554 S
C2594 C2596 1.478 . S
C2595 H2589 0.930 . S
C2595 C2591 1.400 . S
C2595 C2594 1.385 1_556 S
C2596 C2594 1.478 . S
C2596 C2598 1.386 . S
C2596 C2602 1.377 1_554 S
C2597 C2593 1.495 . S
C2597 H2603 0.959 . S
C2597 H2604 0.961 . S
C2597 H2605 0.960 . S
C2598 C2596 1.386 . S
C2598 C2599 1.394 . S
C2598 H2606 0.930 . S
C2599 C2598 1.394 . S
C2599 C2600 1.383 1_554 S
C2599 H2607 0.929 . S
C2600 C2599 1.383 1_556 S
C2600 C2601 1.377 . S
C2601 H2585 0.930 . S
C2601 C2600 1.377 . S
C2601 C2602 1.379 . S
C2602 H2586 0.931 . S
C2602 C2596 1.377 1_556 S
C2602 C2601 1.379 . S
H2603 C2597 0.959 . S
H2604 C2597 0.961 . S
H2605 C2597 0.960 . S
H2606 C2598 0.930 . S
H2607 C2599 0.929 . S
H2608 C2616 0.929 . S
H2609 C2618 0.930 . S
H2610 C2620 0.930 . S
H2611 C2623 0.929 . S
H2612 C2626 0.930 . S
H2613 C2628 0.960 . S
H2614 C2628 0.960 . S
H2615 C2628 0.960 . S
C2616 H2608 0.929 . S
C2616 C2617 1.377 . S
C2616 C2618 1.384 . S
C2617 C2616 1.377 . S
C2617 C2623 1.390 . S
C2618 H2609 0.930 . S
C2618 C2616 1.384 . S
C2618 C2619 1.372 . S
C2619 C2618 1.372 . S
C2619 C2620 1.400 . S
C2619 C2624 1.490 . S
C2620 H2610 0.930 . S
C2620 C2619 1.400 . S
C2620 C2623 1.386 . S
H2621 C2637 0.930 . S
H2622 C2638 0.931 . S
C2623 H2611 0.929 . S
C2623 C2617 1.390 . S
C2623 C2620 1.386 . S
C2624 C2619 1.490 . S
C2624 C2626 1.395 1_655 S
C2624 C2627 1.403 . S
H2625 C2631 0.930 . S
C2626 H2612 0.930 . S
C2626 C2624 1.395 1_455 S
C2626 C2629 1.403 . S
C2627 C2624 1.403 . S
C2627 C2628 1.524 . S
C2627 C2631 1.400 . S
C2628 H2613 0.960 . S
C2628 H2614 0.960 . S
C2628 H2615 0.960 . S
C2628 C2627 1.524 . S
C2629 C2626 1.403 . S
C2629 C2630 1.392 . S
C2629 C2633 1.495 . S
C2630 C2629 1.392 . S
C2630 C2631 1.385 1_455 S
C2630 C2632 1.478 . S
C2631 H2625 0.930 . S
C2631 C2627 1.400 . S
C2631 C2630 1.385 1_655 S
C2632 C2630 1.478 . S
C2632 C2634 1.381 . S
C2632 C2638 1.383 . S
C2633 C2629 1.495 . S
C2633 H2639 0.959 . S
C2633 H2640 0.961 . S
C2633 H2641 0.960 . S
C2634 C2632 1.381 . S
C2634 C2635 1.394 . S
C2634 H2642 0.930 . S
C2635 C2634 1.394 . S
C2635 C2636 1.383 . S
C2635 H2643 0.929 . S
C2636 C2635 1.383 . S
C2636 C2637 1.377 . S
C2637 H2621 0.930 . S
C2637 C2636 1.377 . S
C2637 C2638 1.379 . S
C2638 H2622 0.931 . S
C2638 C2632 1.383 . S
C2638 C2637 1.379 . S
H2639 C2633 0.959 . S
H2640 C2633 0.961 . S
H2641 C2633 0.960 . S
H2642 C2634 0.930 . S
H2643 C2635 0.929 . S
H2644 C2652 0.929 . S
H2645 C2654 0.930 . S
H2646 C2656 0.930 . S
H2647 C2659 0.929 . S
H2648 C2662 0.930 . S
H2649 C2664 0.899 1_545 S
H2650 C2664 0.970 . S
H2651 C2664 1.015 . S
C2652 H2644 0.929 . S
C2652 C2653 1.377 . S
C2652 C2654 1.384 . S
C2653 C2652 1.377 . S
C2653 C2659 1.390 . S
C2654 H2645 0.930 . S
C2654 C2652 1.384 . S
C2654 C2655 1.372 . S
C2655 C2654 1.372 . S
C2655 C2656 1.400 . S
C2655 C2660 1.490 . S
C2656 H2646 0.930 . S
C2656 C2655 1.400 . S
C2656 C2659 1.386 . S
H2657 C2673 0.930 . S
H2658 C2674 0.931 . S
C2659 H2647 0.929 . S
C2659 C2653 1.390 . S
C2659 C2656 1.386 . S
C2660 C2655 1.490 . S
C2660 C2662 1.395 . S
C2660 C2663 1.403 . S
H2661 C2667 0.930 . S
C2662 H2648 0.930 . S
C2662 C2660 1.395 . S
C2662 C2665 1.368 1_565 S
C2663 C2660 1.403 . S
C2663 C2664 1.526 . S
C2663 C2667 1.400 1_565 S
C2664 H2649 0.899 1_565 S
C2664 H2650 0.970 . S
C2664 H2651 1.015 . S
C2664 C2663 1.526 . S
C2665 C2662 1.368 1_545 S
C2665 C2666 1.426 . S
C2665 C2669 1.495 . S
C2666 C2665 1.426 . S
C2666 C2667 1.385 . S
C2666 C2668 1.478 . S
C2667 H2661 0.930 . S
C2667 C2663 1.400 1_545 S
C2667 C2666 1.385 . S
C2668 C2666 1.478 . S
C2668 C2670 1.381 . S
C2668 C2674 1.383 . S
C2669 C2665 1.495 . S
C2669 H2675 0.900 1_545 S
C2669 H2676 0.972 . S
C2669 H2677 1.012 . S
C2670 C2668 1.381 . S
C2670 C2671 1.394 . S
C2670 H2678 0.930 . S
C2671 C2670 1.394 . S
C2671 C2672 1.383 . S
C2671 H2679 0.929 . S
C2672 C2671 1.383 . S
C2672 C2673 1.377 . S
C2673 H2657 0.930 . S
C2673 C2672 1.377 . S
C2673 C2674 1.379 . S
C2674 H2658 0.931 . S
C2674 C2668 1.383 . S
C2674 C2673 1.379 . S
H2675 C2669 0.900 1_565 S
H2676 C2669 0.972 . S
H2677 C2669 1.012 . S
H2678 C2670 0.930 . S
H2679 C2671 0.929 . S
H2680 C2688 0.929 . S
H2681 C2690 0.930 . S
H2682 C2692 0.930 . S
H2683 C2695 0.929 . S
H2684 C2698 0.930 . S
H2685 C2700 0.960 . S
H2686 C2700 0.960 . S
H2687 C2700 0.960 . S
C2688 H2680 0.929 . S
C2688 C2689 1.377 1_554 S
C2688 C2690 1.384 . S
C2689 C2688 1.377 1_556 S
C2689 C2695 1.390 . S
C2690 H2681 0.930 . S
C2690 C2688 1.384 . S
C2690 C2691 1.372 1_554 S
C2691 C2690 1.372 1_556 S
C2691 C2692 1.400 . S
C2691 C2696 1.491 . S
C2692 H2682 0.930 . S
C2692 C2691 1.400 . S
C2692 C2695 1.386 . S
H2693 C2709 0.930 . S
H2694 C2710 0.931 . S
C2695 H2683 0.929 . S
C2695 C2689 1.390 . S
C2695 C2692 1.386 . S
C2696 C2691 1.491 . S
C2696 C2698 1.389 1_556 S
C2696 C2699 1.407 . S
H2697 C2703 0.930 . S
C2698 H2684 0.930 . S
C2698 C2696 1.389 1_554 S
C2698 C2701 1.403 . S
C2699 C2696 1.407 . S
C2699 C2700 1.524 . S
C2699 C2703 1.400 . S
C2700 H2685 0.960 . S
C2700 H2686 0.960 . S
C2700 H2687 0.960 . S
C2700 C2699 1.524 . S
C2701 C2698 1.403 . S
C2701 C2702 1.392 . S
C2701 C2705 1.495 . S
C2702 C2701 1.392 . S
C2702 C2703 1.385 1_554 S
C2702 C2704 1.478 . S
C2703 H2697 0.930 . S
C2703 C2699 1.400 . S
C2703 C2702 1.385 1_556 S
C2704 C2702 1.478 . S
C2704 C2706 1.381 . S
C2704 C2710 1.383 1_554 S
C2705 C2701 1.495 . S
C2705 H2711 0.959 . S
C2705 H2712 0.961 . S
C2705 H2713 0.960 . S
C2706 C2704 1.381 . S
C2706 C2707 1.394 . S
C2706 H2714 0.930 . S
C2707 C2706 1.394 . S
C2707 C2708 1.383 . S
C2707 H2715 0.929 . S
C2708 C2707 1.383 . S
C2708 C2709 1.377 1_554 S
C2709 H2693 0.930 . S
C2709 C2708 1.377 1_556 S
C2709 C2710 1.379 . S
C2710 H2694 0.931 . S
C2710 C2704 1.383 1_556 S
C2710 C2709 1.379 . S
H2711 C2705 0.959 . S
H2712 C2705 0.961 . S
H2713 C2705 0.960 . S
H2714 C2706 0.930 . S
H2715 C2707 0.929 . S
H2716 C2724 0.929 . S
H2717 C2726 0.930 . S
H2718 C2728 0.930 . S
H2719 C2731 0.929 . S
H2720 C2734 0.930 . S
H2721 C2736 0.960 . S
H2722 C2736 0.960 . S
H2723 C2736 0.960 . S
C2724 H2716 0.929 . S
C2724 C2725 1.377 . S
C2724 C2726 1.384 . S
C2725 C2724 1.377 . S
C2725 C2731 1.390 . S
C2726 H2717 0.930 . S
C2726 C2724 1.384 . S
C2726 C2727 1.372 . S
C2727 C2726 1.372 . S
C2727 C2728 1.400 . S
C2727 C2732 1.490 . S
C2728 H2718 0.930 . S
C2728 C2727 1.400 . S
C2728 C2731 1.386 . S
H2729 C2745 0.930 . S
H2730 C2746 0.931 . S
C2731 H2719 0.929 . S
C2731 C2725 1.390 . S
C2731 C2728 1.386 . S
C2732 C2727 1.490 . S
C2732 C2734 1.395 . S
C2732 C2735 1.403 . S
H2733 C2739 0.930 . S
C2734 H2720 0.930 . S
C2734 C2732 1.395 . S
C2734 C2737 1.403 . S
C2735 C2732 1.403 . S
C2735 C2736 1.524 . S
C2735 C2739 1.400 . S
C2736 H2721 0.960 . S
C2736 H2722 0.960 . S
C2736 H2723 0.960 . S
C2736 C2735 1.524 . S
C2737 C2734 1.403 . S
C2737 C2738 1.392 . S
C2737 C2741 1.495 . S
C2738 C2737 1.392 . S
C2738 C2739 1.385 . S
C2738 C2740 1.478 . S
C2739 H2733 0.930 . S
C2739 C2735 1.400 . S
C2739 C2738 1.385 . S
C2740 C2738 1.478 . S
C2740 C2742 1.381 . S
C2740 C2746 1.383 . S
C2741 C2737 1.495 . S
C2741 H2747 0.959 . S
C2741 H2748 0.961 . S
C2741 H2749 0.960 . S
C2742 C2740 1.381 . S
C2742 C2743 1.394 . S
C2742 H2750 0.930 . S
C2743 C2742 1.394 . S
C2743 C2744 1.383 . S
C2743 H2751 0.929 . S
C2744 C2743 1.383 . S
C2744 C2745 1.377 . S
C2745 H2729 0.930 . S
C2745 C2744 1.377 . S
C2745 C2746 1.379 . S
C2746 H2730 0.931 . S
C2746 C2740 1.383 . S
C2746 C2745 1.379 . S
H2747 C2741 0.959 . S
H2748 C2741 0.961 . S
H2749 C2741 0.960 . S
H2750 C2742 0.930 . S
H2751 C2743 0.929 . S
H2752 C2760 0.929 . S
H2753 C2762 0.930 . S
H2754 C2764 0.930 1_455 S
H2755 C2767 0.929 . S
H2756 C2770 0.930 . S
H2757 C2772 0.960 . S
H2758 C2772 0.960 1_655 S
H2759 C2772 0.960 . S
C2760 H2752 0.929 . S
C2760 C2761 1.377 . S
C2760 C2762 1.384 . S
C2761 C2760 1.377 . S
C2761 C2767 1.390 . S
C2762 H2753 0.930 . S
C2762 C2760 1.384 . S
C2762 C2763 1.372 . S
C2763 C2762 1.372 . S
C2763 C2764 1.400 . S
C2763 C2768 1.490 . S
C2764 H2754 0.930 1_655 S
C2764 C2763 1.400 . S
C2764 C2767 1.386 . S
H2765 C2781 0.930 . S
H2766 C2782 0.931 . S
C2767 H2755 0.929 . S
C2767 C2761 1.390 . S
C2767 C2764 1.386 . S
C2768 C2763 1.490 . S
C2768 C2770 1.395 . S
C2768 C2771 1.403 1_655 S
H2769 C2775 0.930 . S
C2770 H2756 0.930 . S
C2770 C2768 1.395 . S
C2770 C2773 1.403 . S
C2771 C2768 1.403 1_455 S
C2771 C2772 1.524 . S
C2771 C2775 1.400 . S
C2772 H2757 0.960 . S
C2772 H2758 0.960 1_455 S
C2772 H2759 0.960 . S
C2772 C2771 1.524 . S
C2773 C2770 1.403 . S
C2773 C2774 1.392 1_655 S
C2773 C2777 1.495 . S
C2774 C2773 1.392 1_455 S
C2774 C2775 1.385 . S
C2774 C2776 1.478 . S
C2775 H2769 0.930 . S
C2775 C2771 1.400 . S
C2775 C2774 1.385 . S
C2776 C2774 1.478 . S
C2776 C2778 1.381 . S
C2776 C2782 1.383 . S
C2777 C2773 1.495 . S
C2777 H2783 0.959 . S
C2777 H2784 0.961 1_655 S
C2777 H2785 0.960 . S
C2778 C2776 1.381 . S
C2778 C2779 1.394 . S
C2778 H2786 0.930 1_455 S
C2779 C2778 1.394 . S
C2779 C2780 1.383 . S
C2779 H2787 0.929 . S
C2780 C2779 1.383 . S
C2780 C2781 1.377 . S
C2781 H2765 0.930 . S
C2781 C2780 1.377 . S
C2781 C2782 1.379 . S
C2782 H2766 0.931 . S
C2782 C2776 1.383 . S
C2782 C2781 1.379 . S
H2783 C2777 0.959 . S
H2784 C2777 0.961 1_455 S
H2785 C2777 0.960 . S
H2786 C2778 0.930 1_655 S
H2787 C2779 0.929 . S
H2788 C2796 0.929 . S
H2789 C2798 0.930 . S
H2790 C2800 0.930 . S
H2791 C2803 0.929 . S
H2792 C2806 0.930 . S
H2793 C2808 0.960 . S
H2794 C2808 0.960 . S
H2795 C2808 0.960 . S
C2796 H2788 0.929 . S
C2796 C2797 1.377 . S
C2796 C2798 1.384 . S
C2797 C2796 1.377 . S
C2797 C2803 1.390 . S
C2798 H2789 0.930 . S
C2798 C2796 1.384 . S
C2798 C2799 1.372 . S
C2799 C2798 1.372 . S
C2799 C2800 1.400 . S
C2799 C2804 1.490 . S
C2800 H2790 0.930 . S
C2800 C2799 1.400 . S
C2800 C2803 1.386 . S
H2801 C2817 0.930 . S
H2802 C2818 0.931 . S
C2803 H2791 0.929 . S
C2803 C2797 1.390 . S
C2803 C2800 1.386 . S
C2804 C2799 1.490 . S
C2804 C2806 1.395 . S
C2804 C2807 1.403 . S
H2805 C2811 0.930 . S
C2806 H2792 0.930 . S
C2806 C2804 1.395 . S
C2806 C2809 1.403 . S
C2807 C2804 1.403 . S
C2807 C2808 1.524 . S
C2807 C2811 1.400 . S
C2808 H2793 0.960 . S
C2808 H2794 0.960 . S
C2808 H2795 0.960 . S
C2808 C2807 1.524 . S
C2809 C2806 1.403 . S
C2809 C2810 1.392 . S
C2809 C2813 1.495 . S
C2810 C2809 1.392 . S
C2810 C2811 1.385 . S
C2810 C2812 1.478 . S
C2811 H2805 0.930 . S
C2811 C2807 1.400 . S
C2811 C2810 1.385 . S
C2812 C2810 1.478 . S
C2812 C2814 1.381 . S
C2812 C2818 1.383 . S
C2813 C2809 1.495 . S
C2813 H2819 0.959 . S
C2813 H2820 0.961 . S
C2813 H2821 0.960 . S
C2814 C2812 1.381 . S
C2814 C2815 1.394 . S
C2814 H2822 0.930 . S
C2815 C2814 1.394 . S
C2815 C2816 1.383 . S
C2815 H2823 0.929 . S
C2816 C2815 1.383 . S
C2816 C2817 1.377 . S
C2817 H2801 0.930 . S
C2817 C2816 1.377 . S
C2817 C2818 1.379 . S
C2818 H2802 0.931 . S
C2818 C2812 1.383 . S
C2818 C2817 1.379 . S
H2819 C2813 0.959 . S
H2820 C2813 0.961 . S
H2821 C2813 0.960 . S
H2822 C2814 0.930 . S
H2823 C2815 0.929 . S
H2824 C2832 0.929 . S
H2825 C2834 0.930 . S
H2826 C2836 0.930 . S
H2827 C2839 0.929 . S
H2828 C2842 0.930 . S
H2829 C2844 0.960 . S
H2830 C2844 0.960 . S
H2831 C2844 0.960 . S
C2832 H2824 0.929 . S
C2832 C2833 1.377 . S
C2832 C2834 1.384 . S
C2833 C2832 1.377 . S
C2833 C2839 1.390 . S
C2834 H2825 0.930 . S
C2834 C2832 1.384 . S
C2834 C2835 1.372 . S
C2835 C2834 1.372 . S
C2835 C2836 1.400 . S
C2835 C2840 1.490 . S
C2836 H2826 0.930 . S
C2836 C2835 1.400 . S
C2836 C2839 1.386 . S
H2837 C2853 0.930 . S
H2838 C2854 0.931 . S
C2839 H2827 0.929 . S
C2839 C2833 1.390 . S
C2839 C2836 1.386 . S
C2840 C2835 1.490 . S
C2840 C2842 1.395 . S
C2840 C2843 1.403 . S
H2841 C2847 0.930 . S
C2842 H2828 0.930 . S
C2842 C2840 1.395 . S
C2842 C2845 1.403 . S
C2843 C2840 1.403 . S
C2843 C2844 1.524 . S
C2843 C2847 1.400 . S
C2844 H2829 0.960 . S
C2844 H2830 0.960 . S
C2844 H2831 0.960 . S
C2844 C2843 1.524 . S
C2845 C2842 1.403 . S
C2845 C2846 1.392 . S
C2845 C2849 1.495 . S
C2846 C2845 1.392 . S
C2846 C2847 1.385 . S
C2846 C2848 1.478 . S
C2847 H2841 0.930 . S
C2847 C2843 1.400 . S
C2847 C2846 1.385 . S
C2848 C2846 1.478 . S
C2848 C2850 1.381 . S
C2848 C2854 1.383 . S
C2849 C2845 1.495 . S
C2849 H2855 0.959 . S
C2849 H2856 0.961 . S
C2849 H2857 0.960 . S
C2850 C2848 1.381 . S
C2850 C2851 1.394 . S
C2850 H2858 0.930 . S
C2851 C2850 1.394 . S
C2851 C2852 1.383 . S
C2851 H2859 0.929 . S
C2852 C2851 1.383 . S
C2852 C2853 1.377 . S
C2853 H2837 0.930 . S
C2853 C2852 1.377 . S
C2853 C2854 1.379 . S
C2854 H2838 0.931 . S
C2854 C2848 1.383 . S
C2854 C2853 1.379 . S
H2855 C2849 0.959 . S
H2856 C2849 0.961 . S
H2857 C2849 0.960 . S
H2858 C2850 0.930 . S
H2859 C2851 0.929 . S
H2860 C2868 0.929 . S
H2861 C2870 0.930 . S
H2862 C2872 0.930 . S
H2863 C2875 0.929 . S
H2864 C2878 0.930 . S
H2865 C2880 0.960 . S
H2866 C2880 0.960 . S
H2867 C2880 0.960 . S
C2868 H2860 0.929 . S
C2868 C2869 1.377 . S
C2868 C2870 1.384 . S
C2869 C2868 1.377 . S
C2869 C2875 1.390 . S
C2870 H2861 0.930 . S
C2870 C2868 1.384 . S
C2870 C2871 1.372 . S
C2871 C2870 1.372 . S
C2871 C2872 1.400 . S
C2871 C2876 1.490 . S
C2872 H2862 0.930 . S
C2872 C2871 1.400 . S
C2872 C2875 1.386 . S
H2873 C2889 0.930 . S
H2874 C2890 0.931 . S
C2875 H2863 0.929 . S
C2875 C2869 1.390 . S
C2875 C2872 1.386 . S
C2876 C2871 1.490 . S
C2876 C2878 1.395 . S
C2876 C2879 1.403 . S
H2877 C2883 0.930 . S
C2878 H2864 0.930 . S
C2878 C2876 1.395 . S
C2878 C2881 1.403 . S
C2879 C2876 1.403 . S
C2879 C2880 1.524 . S
C2879 C2883 1.400 . S
C2880 H2865 0.960 . S
C2880 H2866 0.960 . S
C2880 H2867 0.960 . S
C2880 C2879 1.524 . S
C2881 C2878 1.403 . S
C2881 C2882 1.392 . S
C2881 C2885 1.495 . S
C2882 C2881 1.392 . S
C2882 C2883 1.385 . S
C2882 C2884 1.478 . S
C2883 H2877 0.930 . S
C2883 C2879 1.400 . S
C2883 C2882 1.385 . S
C2884 C2882 1.478 . S
C2884 C2886 1.381 . S
C2884 C2890 1.383 . S
C2885 C2881 1.495 . S
C2885 H2891 0.959 . S
C2885 H2892 0.961 . S
C2885 H2893 0.960 . S
C2886 C2884 1.381 . S
C2886 C2887 1.394 . S
C2886 H2894 0.930 . S
C2887 C2886 1.394 . S
C2887 C2888 1.383 . S
C2887 H2895 0.929 . S
C2888 C2887 1.383 . S
C2888 C2889 1.377 . S
C2889 H2873 0.930 . S
C2889 C2888 1.377 . S
C2889 C2890 1.379 . S
C2890 H2874 0.931 . S
C2890 C2884 1.383 . S
C2890 C2889 1.379 . S
H2891 C2885 0.959 . S
H2892 C2885 0.961 . S
H2893 C2885 0.960 . S
H2894 C2886 0.930 . S
H2895 C2887 0.929 . S
H2896 C2904 0.929 . S
H2897 C2906 0.930 . S
H2898 C2908 0.930 . S
H2899 C2911 0.929 . S
H2900 C2914 0.930 . S
H2901 C2916 0.960 . S
H2902 C2916 0.960 . S
H2903 C2916 0.960 . S
C2904 H2896 0.929 . S
C2904 C2905 1.377 . S
C2904 C2906 1.384 . S
C2905 C2904 1.377 . S
C2905 C2911 1.390 . S
C2906 H2897 0.930 . S
C2906 C2904 1.384 . S
C2906 C2907 1.372 . S
C2907 C2906 1.372 . S
C2907 C2908 1.400 . S
C2907 C2912 1.490 . S
C2908 H2898 0.930 . S
C2908 C2907 1.400 . S
C2908 C2911 1.386 . S
H2909 C2925 0.930 . S
H2910 C2926 0.931 . S
C2911 H2899 0.929 . S
C2911 C2905 1.390 . S
C2911 C2908 1.386 . S
C2912 C2907 1.490 . S
C2912 C2914 1.395 . S
C2912 C2915 1.403 . S
H2913 C2919 0.930 . S
C2914 H2900 0.930 . S
C2914 C2912 1.395 . S
C2914 C2917 1.403 . S
C2915 C2912 1.403 . S
C2915 C2916 1.524 . S
C2915 C2919 1.400 . S
C2916 H2901 0.960 . S
C2916 H2902 0.960 . S
C2916 H2903 0.960 . S
C2916 C2915 1.524 . S
C2917 C2914 1.403 . S
C2917 C2918 1.392 . S
C2917 C2921 1.495 . S
C2918 C2917 1.392 . S
C2918 C2919 1.385 . S
C2918 C2920 1.478 . S
C2919 H2913 0.930 . S
C2919 C2915 1.400 . S
C2919 C2918 1.385 . S
C2920 C2918 1.478 . S
C2920 C2922 1.381 . S
C2920 C2926 1.383 . S
C2921 C2917 1.495 . S
C2921 H2927 0.959 . S
C2921 H2928 0.961 . S
C2921 H2929 0.960 . S
C2922 C2920 1.381 . S
C2922 C2923 1.394 . S
C2922 H2930 0.930 . S
C2923 C2922 1.394 . S
C2923 C2924 1.383 . S
C2923 H2931 0.929 . S
C2924 C2923 1.383 . S
C2924 C2925 1.377 . S
C2925 H2909 0.930 . S
C2925 C2924 1.377 . S
C2925 C2926 1.379 . S
C2926 H2910 0.931 . S
C2926 C2920 1.383 . S
C2926 C2925 1.379 . S
H2927 C2921 0.959 . S
H2928 C2921 0.961 . S
H2929 C2921 0.960 . S
H2930 C2922 0.930 . S
H2931 C2923 0.929 . S
H2932 C2940 0.929 . S
H2933 C2942 0.930 . S
H2934 C2944 0.930 . S
H2935 C2947 0.929 . S
H2936 C2950 0.930 . S
H2937 C2952 0.960 . S
H2938 C2952 0.960 . S
H2939 C2952 0.960 . S
C2940 H2932 0.929 . S
C2940 C2941 1.377 . S
C2940 C2942 1.384 . S
C2941 C2940 1.377 . S
C2941 C2947 1.390 . S
C2942 H2933 0.930 . S
C2942 C2940 1.384 . S
C2942 C2943 1.372 . S
C2943 C2942 1.372 . S
C2943 C2944 1.400 . S
C2943 C2948 1.490 . S
C2944 H2934 0.930 . S
C2944 C2943 1.400 . S
C2944 C2947 1.386 . S
H2945 C2961 0.930 . S
H2946 C2962 0.931 . S
C2947 H2935 0.929 . S
C2947 C2941 1.390 . S
C2947 C2944 1.386 . S
C2948 C2943 1.490 . S
C2948 C2950 1.395 . S
C2948 C2951 1.403 . S
H2949 C2955 0.930 . S
C2950 H2936 0.930 . S
C2950 C2948 1.395 . S
C2950 C2953 1.403 1_545 S
C2951 C2948 1.403 . S
C2951 C2952 1.524 . S
C2951 C2955 1.400 1_545 S
C2952 H2937 0.960 . S
C2952 H2938 0.960 . S
C2952 H2939 0.960 . S
C2952 C2951 1.524 . S
C2953 C2950 1.403 1_565 S
C2953 C2954 1.392 . S
C2953 C2957 1.495 . S
C2954 C2953 1.392 . S
C2954 C2955 1.385 . S
C2954 C2956 1.478 . S
C2955 H2949 0.930 . S
C2955 C2951 1.400 1_565 S
C2955 C2954 1.385 . S
C2956 C2954 1.478 . S
C2956 C2958 1.381 . S
C2956 C2962 1.383 . S
C2957 C2953 1.495 . S
C2957 H2963 0.959 . S
C2957 H2964 0.961 . S
C2957 H2965 0.960 . S
C2958 C2956 1.381 . S
C2958 C2959 1.394 . S
C2958 H2966 0.930 . S
C2959 C2958 1.394 . S
C2959 C2960 1.383 . S
C2959 H2967 0.929 . S
C2960 C2959 1.383 . S
C2960 C2961 1.377 . S
C2961 H2945 0.930 . S
C2961 C2960 1.377 . S
C2961 C2962 1.379 . S
C2962 H2946 0.931 . S
C2962 C2956 1.383 . S
C2962 C2961 1.379 . S
H2963 C2957 0.959 . S
H2964 C2957 0.961 . S
H2965 C2957 0.960 . S
H2966 C2958 0.930 . S
H2967 C2959 0.929 . S
H2968 C2976 0.929 . S
H2969 C2978 0.930 . S
H2970 C2980 0.930 . S
H2971 C2983 0.929 . S
H2972 C2986 0.930 . S
H2973 C2988 0.960 . S
H2974 C2988 0.960 . S
H2975 C2988 0.960 . S
C2976 H2968 0.929 . S
C2976 C2977 1.377 . S
C2976 C2978 1.384 . S
C2977 C2976 1.377 . S
C2977 C2983 1.390 . S
C2978 H2969 0.930 . S
C2978 C2976 1.384 . S
C2978 C2979 1.372 . S
C2979 C2978 1.372 . S
C2979 C2980 1.400 . S
C2979 C2984 1.490 . S
C2980 H2970 0.930 . S
C2980 C2979 1.400 . S
C2980 C2983 1.386 . S
H2981 C2997 0.930 . S
H2982 C2998 0.931 . S
C2983 H2971 0.929 . S
C2983 C2977 1.390 . S
C2983 C2980 1.386 . S
C2984 C2979 1.490 . S
C2984 C2986 1.395 . S
C2984 C2987 1.403 . S
H2985 C2991 0.930 . S
C2986 H2972 0.930 . S
C2986 C2984 1.395 . S
C2986 C2989 1.403 . S
C2987 C2984 1.403 . S
C2987 C2988 1.524 . S
C2987 C2991 1.400 . S
C2988 H2973 0.960 . S
C2988 H2974 0.960 . S
C2988 H2975 0.960 . S
C2988 C2987 1.524 . S
C2989 C2986 1.403 . S
C2989 C2990 1.392 . S
C2989 C2993 1.495 . S
C2990 C2989 1.392 . S
C2990 C2991 1.385 . S
C2990 C2992 1.478 . S
C2991 H2985 0.930 . S
C2991 C2987 1.400 . S
C2991 C2990 1.385 . S
C2992 C2990 1.478 . S
C2992 C2994 1.381 . S
C2992 C2998 1.383 . S
C2993 C2989 1.495 . S
C2993 H2999 0.959 . S
C2993 H3000 0.961 . S
C2993 H3001 0.960 . S
C2994 C2992 1.381 . S
C2994 C2995 1.394 . S
C2994 H3002 0.930 . S
C2995 C2994 1.394 . S
C2995 C2996 1.383 . S
C2995 H3003 0.929 . S
C2996 C2995 1.383 . S
C2996 C2997 1.377 . S
C2997 H2981 0.930 . S
C2997 C2996 1.377 . S
C2997 C2998 1.379 . S
C2998 H2982 0.931 . S
C2998 C2992 1.383 . S
C2998 C2997 1.379 . S
H2999 C2993 0.959 . S
H3000 C2993 0.961 . S
H3001 C2993 0.960 . S
H3002 C2994 0.930 . S
H3003 C2995 0.929 . S
H3004 C3012 0.929 . S
H3005 C3014 0.930 . S
H3006 C3016 0.930 . S
H3007 C3019 0.929 . S
H3008 C3022 0.930 . S
H3009 C3024 0.960 . S
H3010 C3024 0.960 . S
H3011 C3024 0.960 . S
C3012 H3004 0.929 . S
C3012 C3013 1.377 . S
C3012 C3014 1.384 . S
C3013 C3012 1.377 . S
C3013 C3019 1.390 1_556 S
C3014 H3005 0.930 . S
C3014 C3012 1.384 . S
C3014 C3015 1.372 . S
C3015 C3014 1.372 . S
C3015 C3016 1.400 1_556 S
C3015 C3020 1.490 . S
C3016 H3006 0.930 . S
C3016 C3015 1.400 1_554 S
C3016 C3019 1.386 . S
H3017 C3033 0.930 . S
H3018 C3034 0.931 . S
C3019 H3007 0.929 . S
C3019 C3013 1.390 1_554 S
C3019 C3016 1.386 . S
C3020 C3015 1.490 . S
C3020 C3022 1.395 . S
C3020 C3023 1.403 1_556 S
H3021 C3027 0.930 . S
C3022 H3008 0.930 . S
C3022 C3020 1.395 . S
C3022 C3025 1.403 . S
C3023 C3020 1.403 1_554 S
C3023 C3024 1.524 . S
C3023 C3027 1.400 . S
C3024 H3009 0.960 . S
C3024 H3010 0.960 . S
C3024 H3011 0.960 . S
C3024 C3023 1.524 . S
C3025 C3022 1.403 . S
C3025 C3026 1.392 . S
C3025 C3029 1.495 . S
C3026 C3025 1.392 . S
C3026 C3027 1.385 1_556 S
C3026 C3028 1.480 . S
C3027 H3021 0.930 . S
C3027 C3023 1.400 . S
C3027 C3026 1.385 1_554 S
C3028 C3026 1.480 . S
C3028 C3030 1.390 . S
C3028 C3034 1.371 1_556 S
C3029 C3025 1.495 . S
C3029 H3035 0.959 . S
C3029 H3036 0.961 . S
C3029 H3037 0.960 . S
C3030 C3028 1.390 . S
C3030 C3031 1.394 . S
C3030 H3038 0.930 . S
C3031 C3030 1.394 . S
C3031 C3032 1.383 1_556 S
C3031 H3039 0.929 . S
C3032 C3031 1.383 1_554 S
C3032 C3033 1.377 . S
C3033 H3017 0.930 . S
C3033 C3032 1.377 . S
C3033 C3034 1.379 . S
C3034 H3018 0.931 . S
C3034 C3028 1.371 1_554 S
C3034 C3033 1.379 . S
H3035 C3029 0.959 . S
H3036 C3029 0.961 . S
H3037 C3029 0.960 . S
H3038 C3030 0.930 . S
H3039 C3031 0.929 . S
H3040 C3048 0.929 . S
H3041 C3050 0.930 . S
H3042 C3052 0.930 . S
H3043 C3055 0.929 . S
H3044 C3058 0.930 . S
H3045 C3060 0.960 . S
H3046 C3060 0.960 . S
H3047 C3060 0.960 . S
C3048 H3040 0.929 . S
C3048 C3049 1.377 . S
C3048 C3050 1.384 . S
C3049 C3048 1.377 . S
C3049 C3055 1.390 . S
C3050 H3041 0.930 . S
C3050 C3048 1.384 . S
C3050 C3051 1.372 . S
C3051 C3050 1.372 . S
C3051 C3052 1.400 . S
C3051 C3056 1.490 . S
C3052 H3042 0.930 . S
C3052 C3051 1.400 . S
C3052 C3055 1.386 . S
H3053 C3069 0.930 . S
H3054 C3070 0.931 . S
C3055 H3043 0.929 . S
C3055 C3049 1.390 . S
C3055 C3052 1.386 . S
C3056 C3051 1.490 . S
C3056 C3058 1.395 . S
C3056 C3059 1.403 . S
H3057 C3063 0.930 . S
C3058 H3044 0.930 . S
C3058 C3056 1.395 . S
C3058 C3061 1.403 . S
C3059 C3056 1.403 . S
C3059 C3060 1.524 . S
C3059 C3063 1.400 . S
C3060 H3045 0.960 . S
C3060 H3046 0.960 . S
C3060 H3047 0.960 . S
C3060 C3059 1.524 . S
C3061 C3058 1.403 . S
C3061 C3062 1.392 . S
C3061 C3065 1.495 . S
C3062 C3061 1.392 . S
C3062 C3063 1.385 . S
C3062 C3064 1.478 . S
C3063 H3057 0.930 . S
C3063 C3059 1.400 . S
C3063 C3062 1.385 . S
C3064 C3062 1.478 . S
C3064 C3066 1.381 . S
C3064 C3070 1.383 . S
C3065 C3061 1.495 . S
C3065 H3071 0.959 . S
C3065 H3072 0.961 . S
C3065 H3073 0.960 . S
C3066 C3064 1.381 . S
C3066 C3067 1.394 . S
C3066 H3074 0.930 . S
C3067 C3066 1.394 . S
C3067 C3068 1.383 . S
C3067 H3075 0.929 . S
C3068 C3067 1.383 . S
C3068 C3069 1.377 . S
C3069 H3053 0.930 . S
C3069 C3068 1.377 . S
C3069 C3070 1.379 . S
C3070 H3054 0.931 . S
C3070 C3064 1.383 . S
C3070 C3069 1.379 . S
H3071 C3065 0.959 . S
H3072 C3065 0.961 . S
H3073 C3065 0.960 . S
H3074 C3066 0.930 . S
H3075 C3067 0.929 . S
H3076 C3084 0.929 . S
H3077 C3086 0.930 . S
H3078 C3088 0.930 . S
H3079 C3091 0.929 . S
H3080 C3094 0.930 . S
H3081 C3096 0.960 . S
H3082 C3096 0.960 . S
H3083 C3096 0.960 . S
C3084 H3076 0.929 . S
C3084 C3085 1.377 . S
C3084 C3086 1.384 . S
C3085 C3084 1.377 . S
C3085 C3091 1.390 . S
C3086 H3077 0.930 . S
C3086 C3084 1.384 . S
C3086 C3087 1.372 . S
C3087 C3086 1.372 . S
C3087 C3088 1.400 . S
C3087 C3092 1.490 . S
C3088 H3078 0.930 . S
C3088 C3087 1.400 . S
C3088 C3091 1.386 . S
H3089 C3105 0.930 . S
H3090 C3106 0.931 . S
C3091 H3079 0.929 . S
C3091 C3085 1.390 . S
C3091 C3088 1.386 . S
C3092 C3087 1.490 . S
C3092 C3094 1.395 . S
C3092 C3095 1.403 . S
H3093 C3099 0.930 . S
C3094 H3080 0.930 . S
C3094 C3092 1.395 . S
C3094 C3097 1.403 . S
C3095 C3092 1.403 . S
C3095 C3096 1.524 . S
C3095 C3099 1.400 . S
C3096 H3081 0.960 . S
C3096 H3082 0.960 . S
C3096 H3083 0.960 . S
C3096 C3095 1.524 . S
C3097 C3094 1.403 . S
C3097 C3098 1.392 . S
C3097 C3101 1.495 . S
C3098 C3097 1.392 . S
C3098 C3099 1.385 . S
C3098 C3100 1.478 . S
C3099 H3093 0.930 . S
C3099 C3095 1.400 . S
C3099 C3098 1.385 . S
C3100 C3098 1.478 . S
C3100 C3102 1.381 . S
C3100 C3106 1.383 . S
C3101 C3097 1.495 . S
C3101 H3107 0.959 . S
C3101 H3108 0.961 . S
C3101 H3109 0.960 . S
C3102 C3100 1.381 . S
C3102 C3103 1.394 . S
C3102 H3110 0.930 . S
C3103 C3102 1.394 . S
C3103 C3104 1.383 . S
C3103 H3111 0.929 . S
C3104 C3103 1.383 . S
C3104 C3105 1.377 . S
C3105 H3089 0.930 . S
C3105 C3104 1.377 . S
C3105 C3106 1.379 . S
C3106 H3090 0.931 . S
C3106 C3100 1.383 . S
C3106 C3105 1.379 . S
H3107 C3101 0.959 . S
H3108 C3101 0.961 . S
H3109 C3101 0.960 . S
H3110 C3102 0.930 . S
H3111 C3103 0.929 . S
H3112 C3120 0.929 . S
H3113 C3122 0.930 . S
H3114 C3124 0.930 . S
H3115 C3127 0.929 . S
H3116 C3130 0.930 . S
H3117 C3132 0.960 . S
H3118 C3132 0.960 . S
H3119 C3132 0.960 . S
C3120 H3112 0.929 . S
C3120 C3121 1.377 . S
C3120 C3122 1.384 . S
C3121 C3120 1.377 . S
C3121 C3127 1.390 . S
C3122 H3113 0.930 . S
C3122 C3120 1.384 . S
C3122 C3123 1.372 . S
C3123 C3122 1.372 . S
C3123 C3124 1.400 . S
C3123 C3128 1.490 . S
C3124 H3114 0.930 . S
C3124 C3123 1.400 . S
C3124 C3127 1.386 . S
H3125 C3141 0.930 . S
H3126 C3142 0.931 . S
C3127 H3115 0.929 . S
C3127 C3121 1.390 . S
C3127 C3124 1.386 . S
C3128 C3123 1.490 . S
C3128 C3130 1.395 . S
C3128 C3131 1.403 . S
H3129 C3135 0.930 . S
C3130 H3116 0.930 . S
C3130 C3128 1.395 . S
C3130 C3133 1.403 . S
C3131 C3128 1.403 . S
C3131 C3132 1.524 . S
C3131 C3135 1.400 . S
C3132 H3117 0.960 . S
C3132 H3118 0.960 . S
C3132 H3119 0.960 . S
C3132 C3131 1.524 . S
C3133 C3130 1.403 . S
C3133 C3134 1.392 . S
C3133 C3137 1.495 . S
C3134 C3133 1.392 . S
C3134 C3135 1.385 . S
C3134 C3136 1.478 . S
C3135 H3129 0.930 . S
C3135 C3131 1.400 . S
C3135 C3134 1.385 . S
C3136 C3134 1.478 . S
C3136 C3138 1.381 . S
C3136 C3142 1.383 . S
C3137 C3133 1.495 . S
C3137 H3143 0.959 . S
C3137 H3144 0.961 . S
C3137 H3145 0.960 . S
C3138 C3136 1.381 . S
C3138 C3139 1.394 . S
C3138 H3146 0.930 . S
C3139 C3138 1.394 . S
C3139 C3140 1.383 . S
C3139 H3147 0.929 . S
C3140 C3139 1.383 . S
C3140 C3141 1.377 . S
C3141 H3125 0.930 . S
C3141 C3140 1.377 . S
C3141 C3142 1.379 . S
C3142 H3126 0.931 . S
C3142 C3136 1.383 . S
C3142 C3141 1.379 . S
H3143 C3137 0.959 . S
H3144 C3137 0.961 . S
H3145 C3137 0.960 . S
H3146 C3138 0.930 . S
H3147 C3139 0.929 . S
H3148 C3156 0.929 . S
H3149 C3158 0.930 . S
H3150 C3160 0.930 . S
H3151 C3163 0.929 . S
H3152 C3166 0.930 . S
H3153 C3168 0.960 . S
H3154 C3168 0.960 . S
H3155 C3168 0.960 . S
C3156 H3148 0.929 . S
C3156 C3157 1.377 . S
C3156 C3158 1.384 . S
C3157 C3156 1.377 . S
C3157 C3163 1.390 . S
C3158 H3149 0.930 . S
C3158 C3156 1.384 . S
C3158 C3159 1.372 . S
C3159 C3158 1.372 . S
C3159 C3160 1.400 . S
C3159 C3164 1.490 . S
C3160 H3150 0.930 . S
C3160 C3159 1.400 . S
C3160 C3163 1.386 . S
H3161 C3177 0.930 . S
H3162 C3178 0.931 . S
C3163 H3151 0.929 . S
C3163 C3157 1.390 . S
C3163 C3160 1.386 . S
C3164 C3159 1.490 . S
C3164 C3166 1.395 . S
C3164 C3167 1.403 . S
H3165 C3171 0.930 . S
C3166 H3152 0.930 . S
C3166 C3164 1.395 . S
C3166 C3169 1.403 . S
C3167 C3164 1.403 . S
C3167 C3168 1.524 . S
C3167 C3171 1.400 . S
C3168 H3153 0.960 . S
C3168 H3154 0.960 . S
C3168 H3155 0.960 . S
C3168 C3167 1.524 . S
C3169 C3166 1.403 . S
C3169 C3170 1.392 . S
C3169 C3173 1.495 . S
C3170 C3169 1.392 . S
C3170 C3171 1.385 . S
C3170 C3172 1.478 . S
C3171 H3165 0.930 . S
C3171 C3167 1.400 . S
C3171 C3170 1.385 . S
C3172 C3170 1.478 . S
C3172 C3174 1.381 . S
C3172 C3178 1.383 . S
C3173 C3169 1.495 . S
C3173 H3179 0.959 . S
C3173 H3180 0.961 . S
C3173 H3181 0.960 . S
C3174 C3172 1.381 . S
C3174 C3175 1.394 . S
C3174 H3182 0.930 . S
C3175 C3174 1.394 . S
C3175 C3176 1.383 . S
C3175 H3183 0.929 . S
C3176 C3175 1.383 . S
C3176 C3177 1.377 . S
C3177 H3161 0.930 . S
C3177 C3176 1.377 . S
C3177 C3178 1.379 . S
C3178 H3162 0.931 . S
C3178 C3172 1.383 . S
C3178 C3177 1.379 . S
H3179 C3173 0.959 . S
H3180 C3173 0.961 . S
H3181 C3173 0.960 . S
H3182 C3174 0.930 . S
H3183 C3175 0.929 . S
H3184 C3192 0.929 . S
H3185 C3194 0.930 . S
H3186 C3196 0.930 . S
H3187 C3199 0.929 . S
H3188 C3202 0.930 . S
H3189 C3204 0.960 . S
H3190 C3204 0.960 . S
H3191 C3204 0.960 . S
C3192 H3184 0.929 . S
C3192 C3193 1.377 . S
C3192 C3194 1.384 . S
C3193 C3192 1.377 . S
C3193 C3199 1.390 . S
C3194 H3185 0.930 . S
C3194 C3192 1.384 . S
C3194 C3195 1.372 . S
C3195 C3194 1.372 . S
C3195 C3196 1.400 . S
C3195 C3200 1.490 . S
C3196 H3186 0.930 . S
C3196 C3195 1.400 . S
C3196 C3199 1.386 . S
H3197 C3213 0.930 . S
H3198 C3214 0.931 . S
C3199 H3187 0.929 . S
C3199 C3193 1.390 . S
C3199 C3196 1.386 . S
C3200 C3195 1.490 . S
C3200 C3202 1.395 . S
C3200 C3203 1.403 . S
H3201 C3207 0.930 . S
C3202 H3188 0.930 . S
C3202 C3200 1.395 . S
C3202 C3205 1.403 . S
C3203 C3200 1.403 . S
C3203 C3204 1.524 . S
C3203 C3207 1.400 . S
C3204 H3189 0.960 . S
C3204 H3190 0.960 . S
C3204 H3191 0.960 . S
C3204 C3203 1.524 . S
C3205 C3202 1.403 . S
C3205 C3206 1.392 . S
C3205 C3209 1.495 . S
C3206 C3205 1.392 . S
C3206 C3207 1.385 . S
C3206 C3208 1.478 . S
C3207 H3201 0.930 . S
C3207 C3203 1.400 . S
C3207 C3206 1.385 . S
C3208 C3206 1.478 . S
C3208 C3210 1.381 . S
C3208 C3214 1.383 . S
C3209 C3205 1.495 . S
C3209 H3215 0.959 . S
C3209 H3216 0.961 . S
C3209 H3217 0.960 . S
C3210 C3208 1.381 . S
C3210 C3211 1.394 . S
C3210 H3218 0.930 . S
C3211 C3210 1.394 . S
C3211 C3212 1.383 . S
C3211 H3219 0.929 . S
C3212 C3211 1.383 . S
C3212 C3213 1.377 . S
C3213 H3197 0.930 . S
C3213 C3212 1.377 . S
C3213 C3214 1.379 . S
C3214 H3198 0.931 . S
C3214 C3208 1.383 . S
C3214 C3213 1.379 . S
H3215 C3209 0.959 . S
H3216 C3209 0.961 . S
H3217 C3209 0.960 . S
H3218 C3210 0.930 . S
H3219 C3211 0.929 . S
H3220 C3228 0.929 . S
H3221 C3230 0.930 . S
H3222 C3232 0.930 . S
H3223 C3235 0.929 . S
H3224 C3238 0.930 . S
H3225 C3240 0.960 . S
H3226 C3240 0.960 . S
H3227 C3240 0.960 . S
C3228 H3220 0.929 . S
C3228 C3229 1.377 . S
C3228 C3230 1.384 . S
C3229 C3228 1.377 . S
C3229 C3235 1.390 . S
C3230 H3221 0.930 . S
C3230 C3228 1.384 . S
C3230 C3231 1.372 . S
C3231 C3230 1.372 . S
C3231 C3232 1.400 . S
C3231 C3236 1.490 . S
C3232 H3222 0.930 . S
C3232 C3231 1.400 . S
C3232 C3235 1.386 . S
H3233 C3249 0.930 . S
H3234 C3250 0.931 . S
C3235 H3223 0.929 . S
C3235 C3229 1.390 . S
C3235 C3232 1.386 . S
C3236 C3231 1.490 . S
C3236 C3238 1.395 . S
C3236 C3239 1.403 . S
H3237 C3243 0.930 . S
C3238 H3224 0.930 . S
C3238 C3236 1.395 . S
C3238 C3241 1.403 . S
C3239 C3236 1.403 . S
C3239 C3240 1.524 . S
C3239 C3243 1.400 . S
C3240 H3225 0.960 . S
C3240 H3226 0.960 . S
C3240 H3227 0.960 . S
C3240 C3239 1.524 . S
C3241 C3238 1.403 . S
C3241 C3242 1.392 . S
C3241 C3245 1.495 . S
C3242 C3241 1.392 . S
C3242 C3243 1.385 . S
C3242 C3244 1.478 . S
C3243 H3237 0.930 . S
C3243 C3239 1.400 . S
C3243 C3242 1.385 . S
C3244 C3242 1.478 . S
C3244 C3246 1.381 . S
C3244 C3250 1.383 . S
C3245 C3241 1.495 . S
C3245 H3251 0.959 . S
C3245 H3252 0.961 . S
C3245 H3253 0.960 . S
C3246 C3244 1.381 . S
C3246 C3247 1.394 . S
C3246 H3254 0.930 . S
C3247 C3246 1.394 . S
C3247 C3248 1.383 . S
C3247 H3255 0.929 . S
C3248 C3247 1.383 . S
C3248 C3249 1.377 . S
C3249 H3233 0.930 . S
C3249 C3248 1.377 . S
C3249 C3250 1.379 . S
C3250 H3234 0.931 . S
C3250 C3244 1.383 . S
C3250 C3249 1.379 . S
H3251 C3245 0.959 . S
H3252 C3245 0.961 . S
H3253 C3245 0.960 . S
H3254 C3246 0.930 . S
H3255 C3247 0.929 . S
H3256 C3264 0.929 . S
H3257 C3266 0.930 . S
H3258 C3268 0.930 . S
H3259 C3271 0.929 . S
H3260 C3274 0.930 . S
H3261 C3276 0.960 . S
H3262 C3276 0.960 . S
H3263 C3276 0.960 . S
C3264 H3256 0.929 . S
C3264 C3265 1.377 . S
C3264 C3266 1.384 . S
C3265 C3264 1.377 . S
C3265 C3271 1.390 . S
C3266 H3257 0.930 . S
C3266 C3264 1.384 . S
C3266 C3267 1.372 . S
C3267 C3266 1.372 . S
C3267 C3268 1.400 . S
C3267 C3272 1.490 . S
C3268 H3258 0.930 . S
C3268 C3267 1.400 . S
C3268 C3271 1.386 . S
H3269 C3285 0.930 . S
H3270 C3286 0.931 . S
C3271 H3259 0.929 . S
C3271 C3265 1.390 . S
C3271 C3268 1.386 . S
C3272 C3267 1.490 . S
C3272 C3274 1.395 . S
C3272 C3275 1.403 . S
H3273 C3279 0.930 . S
C3274 H3260 0.930 . S
C3274 C3272 1.395 . S
C3274 C3277 1.403 . S
C3275 C3272 1.403 . S
C3275 C3276 1.524 . S
C3275 C3279 1.400 . S
C3276 H3261 0.960 . S
C3276 H3262 0.960 . S
C3276 H3263 0.960 . S
C3276 C3275 1.524 . S
C3277 C3274 1.403 . S
C3277 C3278 1.392 . S
C3277 C3281 1.495 . S
C3278 C3277 1.392 . S
C3278 C3279 1.385 . S
C3278 C3280 1.478 . S
C3279 H3273 0.930 . S
C3279 C3275 1.400 . S
C3279 C3278 1.385 . S
C3280 C3278 1.478 . S
C3280 C3282 1.381 . S
C3280 C3286 1.383 . S
C3281 C3277 1.495 . S
C3281 H3287 0.959 . S
C3281 H3288 0.961 . S
C3281 H3289 0.960 . S
C3282 C3280 1.381 . S
C3282 C3283 1.394 . S
C3282 H3290 0.930 . S
C3283 C3282 1.394 . S
C3283 C3284 1.383 . S
C3283 H3291 0.929 . S
C3284 C3283 1.383 . S
C3284 C3285 1.377 . S
C3285 H3269 0.930 . S
C3285 C3284 1.377 . S
C3285 C3286 1.379 . S
C3286 H3270 0.931 . S
C3286 C3280 1.383 . S
C3286 C3285 1.379 . S
H3287 C3281 0.959 . S
H3288 C3281 0.961 . S
H3289 C3281 0.960 . S
H3290 C3282 0.930 . S
H3291 C3283 0.929 . S
H3292 C3300 0.929 . S
H3293 C3302 0.930 . S
H3294 C3304 0.930 . S
H3295 C3307 0.929 . S
H3296 C3310 0.930 . S
H3297 C3312 0.960 . S
H3298 C3312 0.960 . S
H3299 C3312 0.960 . S
C3300 H3292 0.929 . S
C3300 C3301 1.377 . S
C3300 C3302 1.384 . S
C3301 C3300 1.377 . S
C3301 C3307 1.390 . S
C3302 H3293 0.930 . S
C3302 C3300 1.384 . S
C3302 C3303 1.372 . S
C3303 C3302 1.372 . S
C3303 C3304 1.400 . S
C3303 C3308 1.490 . S
C3304 H3294 0.930 . S
C3304 C3303 1.400 . S
C3304 C3307 1.386 . S
H3305 C3321 0.930 . S
H3306 C3322 0.931 . S
C3307 H3295 0.929 . S
C3307 C3301 1.390 . S
C3307 C3304 1.386 . S
C3308 C3303 1.490 . S
C3308 C3310 1.395 . S
C3308 C3311 1.403 . S
H3309 C3315 0.930 . S
C3310 H3296 0.930 . S
C3310 C3308 1.395 . S
C3310 C3313 1.403 . S
C3311 C3308 1.403 . S
C3311 C3312 1.524 . S
C3311 C3315 1.400 . S
C3312 H3297 0.960 . S
C3312 H3298 0.960 . S
C3312 H3299 0.960 . S
C3312 C3311 1.524 . S
C3313 C3310 1.403 . S
C3313 C3314 1.392 . S
C3313 C3317 1.495 . S
C3314 C3313 1.392 . S
C3314 C3315 1.385 . S
C3314 C3316 1.478 . S
C3315 H3309 0.930 . S
C3315 C3311 1.400 . S
C3315 C3314 1.385 . S
C3316 C3314 1.478 . S
C3316 C3318 1.381 . S
C3316 C3322 1.383 . S
C3317 C3313 1.495 . S
C3317 H3323 0.959 . S
C3317 H3324 0.961 . S
C3317 H3325 0.960 . S
C3318 C3316 1.381 . S
C3318 C3319 1.394 . S
C3318 H3326 0.930 . S
C3319 C3318 1.394 . S
C3319 C3320 1.383 . S
C3319 H3327 0.929 . S
C3320 C3319 1.383 . S
C3320 C3321 1.377 . S
C3321 H3305 0.930 . S
C3321 C3320 1.377 . S
C3321 C3322 1.379 . S
C3322 H3306 0.931 . S
C3322 C3316 1.383 . S
C3322 C3321 1.379 . S
H3323 C3317 0.959 . S
H3324 C3317 0.961 . S
H3325 C3317 0.960 . S
H3326 C3318 0.930 . S
H3327 C3319 0.929 . S
H3328 C3336 0.929 . S
H3329 C3338 0.930 . S
H3330 C3340 0.930 . S
H3331 C3343 0.929 . S
H3332 C3346 0.930 . S
H3333 C3348 0.960 . S
H3334 C3348 0.960 . S
H3335 C3348 0.960 . S
C3336 H3328 0.929 . S
C3336 C3337 1.377 . S
C3336 C3338 1.384 . S
C3337 C3336 1.377 . S
C3337 C3343 1.390 . S
C3338 H3329 0.930 . S
C3338 C3336 1.384 . S
C3338 C3339 1.372 . S
C3339 C3338 1.372 . S
C3339 C3340 1.400 . S
C3339 C3344 1.490 . S
C3340 H3330 0.930 . S
C3340 C3339 1.400 . S
C3340 C3343 1.386 . S
H3341 C3357 0.930 . S
H3342 C3358 0.931 . S
C3343 H3331 0.929 . S
C3343 C3337 1.390 . S
C3343 C3340 1.386 . S
C3344 C3339 1.490 . S
C3344 C3346 1.395 . S
C3344 C3347 1.403 . S
H3345 C3351 0.930 . S
C3346 H3332 0.930 . S
C3346 C3344 1.395 . S
C3346 C3349 1.403 . S
C3347 C3344 1.403 . S
C3347 C3348 1.524 . S
C3347 C3351 1.400 . S
C3348 H3333 0.960 . S
C3348 H3334 0.960 . S
C3348 H3335 0.960 . S
C3348 C3347 1.524 . S
C3349 C3346 1.403 . S
C3349 C3350 1.392 . S
C3349 C3353 1.495 . S
C3350 C3349 1.392 . S
C3350 C3351 1.385 . S
C3350 C3352 1.478 . S
C3351 H3345 0.930 . S
C3351 C3347 1.400 . S
C3351 C3350 1.385 . S
C3352 C3350 1.478 . S
C3352 C3354 1.381 . S
C3352 C3358 1.383 . S
C3353 C3349 1.495 . S
C3353 H3359 0.959 . S
C3353 H3360 0.961 . S
C3353 H3361 0.960 . S
C3354 C3352 1.381 . S
C3354 C3355 1.394 . S
C3354 H3362 0.930 . S
C3355 C3354 1.394 . S
C3355 C3356 1.383 . S
C3355 H3363 0.929 . S
C3356 C3355 1.383 . S
C3356 C3357 1.377 . S
C3357 H3341 0.930 . S
C3357 C3356 1.377 . S
C3357 C3358 1.379 . S
C3358 H3342 0.931 . S
C3358 C3352 1.383 . S
C3358 C3357 1.379 . S
H3359 C3353 0.959 . S
H3360 C3353 0.961 . S
H3361 C3353 0.960 . S
H3362 C3354 0.930 . S
H3363 C3355 0.929 . S
H3364 C3372 0.929 . S
H3365 C3374 0.930 . S
H3366 C3376 0.930 . S
H3367 C3379 0.929 . S
H3368 C3382 0.930 . S
H3369 C3384 0.960 . S
H3370 C3384 0.960 . S
H3371 C3384 0.960 . S
C3372 H3364 0.929 . S
C3372 C3373 1.377 . S
C3372 C3374 1.384 . S
C3373 C3372 1.377 . S
C3373 C3379 1.390 . S
C3374 H3365 0.930 . S
C3374 C3372 1.384 . S
C3374 C3375 1.372 . S
C3375 C3374 1.372 . S
C3375 C3376 1.400 . S
C3375 C3380 1.490 . S
C3376 H3366 0.930 . S
C3376 C3375 1.400 . S
C3376 C3379 1.386 . S
H3377 C3393 0.930 . S
H3378 C3394 0.931 . S
C3379 H3367 0.929 . S
C3379 C3373 1.390 . S
C3379 C3376 1.386 . S
C3380 C3375 1.490 . S
C3380 C3382 1.395 . S
C3380 C3383 1.403 . S
H3381 C3387 0.930 . S
C3382 H3368 0.930 . S
C3382 C3380 1.395 . S
C3382 C3385 1.403 . S
C3383 C3380 1.403 . S
C3383 C3384 1.524 . S
C3383 C3387 1.400 . S
C3384 H3369 0.960 . S
C3384 H3370 0.960 . S
C3384 H3371 0.960 . S
C3384 C3383 1.524 . S
C3385 C3382 1.403 . S
C3385 C3386 1.392 . S
C3385 C3389 1.495 . S
C3386 C3385 1.392 . S
C3386 C3387 1.385 . S
C3386 C3388 1.478 . S
C3387 H3381 0.930 . S
C3387 C3383 1.400 . S
C3387 C3386 1.385 . S
C3388 C3386 1.478 . S
C3388 C3390 1.381 . S
C3388 C3394 1.383 . S
C3389 C3385 1.495 . S
C3389 H3395 0.959 . S
C3389 H3396 0.961 . S
C3389 H3397 0.960 . S
C3390 C3388 1.381 . S
C3390 C3391 1.394 . S
C3390 H3398 0.930 . S
C3391 C3390 1.394 . S
C3391 C3392 1.383 . S
C3391 H3399 0.929 . S
C3392 C3391 1.383 . S
C3392 C3393 1.377 . S
C3393 H3377 0.930 . S
C3393 C3392 1.377 . S
C3393 C3394 1.379 . S
C3394 H3378 0.931 . S
C3394 C3388 1.383 . S
C3394 C3393 1.379 . S
H3395 C3389 0.959 . S
H3396 C3389 0.961 . S
H3397 C3389 0.960 . S
H3398 C3390 0.930 . S
H3399 C3391 0.929 . S
H3400 C3408 0.929 . S
H3401 C3410 0.930 . S
H3402 C3412 0.930 . S
H3403 C3415 0.929 . S
H3404 C3418 0.930 . S
H3405 C3420 0.960 . S
H3406 C3420 0.960 . S
H3407 C3420 0.960 . S
C3408 H3400 0.929 . S
C3408 C3409 1.377 . S
C3408 C3410 1.384 . S
C3409 C3408 1.377 . S
C3409 C3415 1.390 . S
C3410 H3401 0.930 . S
C3410 C3408 1.384 . S
C3410 C3411 1.372 . S
C3411 C3410 1.372 . S
C3411 C3412 1.400 . S
C3411 C3416 1.490 . S
C3412 H3402 0.930 . S
C3412 C3411 1.400 . S
C3412 C3415 1.386 . S
H3413 C3429 0.930 . S
H3414 C3430 0.931 . S
C3415 H3403 0.929 . S
C3415 C3409 1.390 . S
C3415 C3412 1.386 . S
C3416 C3411 1.490 . S
C3416 C3418 1.395 . S
C3416 C3419 1.403 . S
H3417 C3423 0.930 . S
C3418 H3404 0.930 . S
C3418 C3416 1.395 . S
C3418 C3421 1.403 . S
C3419 C3416 1.403 . S
C3419 C3420 1.524 . S
C3419 C3423 1.400 . S
C3420 H3405 0.960 . S
C3420 H3406 0.960 . S
C3420 H3407 0.960 . S
C3420 C3419 1.524 . S
C3421 C3418 1.403 . S
C3421 C3422 1.392 . S
C3421 C3425 1.495 . S
C3422 C3421 1.392 . S
C3422 C3423 1.385 . S
C3422 C3424 1.478 . S
C3423 H3417 0.930 . S
C3423 C3419 1.400 . S
C3423 C3422 1.385 . S
C3424 C3422 1.478 . S
C3424 C3426 1.381 . S
C3424 C3430 1.383 . S
C3425 C3421 1.495 . S
C3425 H3431 0.959 . S
C3425 H3432 0.961 . S
C3425 H3433 0.960 . S
C3426 C3424 1.381 . S
C3426 C3427 1.394 . S
C3426 H3434 0.930 . S
C3427 C3426 1.394 . S
C3427 C3428 1.383 . S
C3427 H3435 0.929 . S
C3428 C3427 1.383 . S
C3428 C3429 1.377 . S
C3429 H3413 0.930 . S
C3429 C3428 1.377 . S
C3429 C3430 1.379 . S
C3430 H3414 0.931 . S
C3430 C3424 1.383 . S
C3430 C3429 1.379 . S
H3431 C3425 0.959 . S
H3432 C3425 0.961 . S
H3433 C3425 0.960 . S
H3434 C3426 0.930 . S
H3435 C3427 0.929 . S
H3436 C3444 0.929 . S
H3437 C3446 0.930 . S
H3438 C3448 0.930 . S
H3439 C3451 0.929 . S
H3440 C3454 0.930 . S
H3441 C3456 0.960 . S
H3442 C3456 0.960 . S
H3443 C3456 0.960 . S
C3444 H3436 0.929 . S
C3444 C3445 1.377 . S
C3444 C3446 1.384 . S
C3445 C3444 1.377 . S
C3445 C3451 1.390 . S
C3446 H3437 0.930 . S
C3446 C3444 1.384 . S
C3446 C3447 1.372 . S
C3447 C3446 1.372 . S
C3447 C3448 1.400 . S
C3447 C3452 1.490 . S
C3448 H3438 0.930 . S
C3448 C3447 1.400 . S
C3448 C3451 1.386 . S
H3449 C3465 0.930 . S
H3450 C3466 0.931 . S
C3451 H3439 0.929 . S
C3451 C3445 1.390 . S
C3451 C3448 1.386 . S
C3452 C3447 1.490 . S
C3452 C3454 1.395 . S
C3452 C3455 1.403 . S
H3453 C3459 0.930 . S
C3454 H3440 0.930 . S
C3454 C3452 1.395 . S
C3454 C3457 1.403 . S
C3455 C3452 1.403 . S
C3455 C3456 1.524 . S
C3455 C3459 1.400 . S
C3456 H3441 0.960 . S
C3456 H3442 0.960 . S
C3456 H3443 0.960 . S
C3456 C3455 1.524 . S
C3457 C3454 1.403 . S
C3457 C3458 1.392 . S
C3457 C3461 1.495 . S
C3458 C3457 1.392 . S
C3458 C3459 1.385 . S
C3458 C3460 1.478 . S
C3459 H3453 0.930 . S
C3459 C3455 1.400 . S
C3459 C3458 1.385 . S
C3460 C3458 1.478 . S
C3460 C3462 1.381 . S
C3460 C3466 1.383 . S
C3461 C3457 1.495 . S
C3461 H3467 0.959 . S
C3461 H3468 0.961 . S
C3461 H3469 0.960 . S
C3462 C3460 1.381 . S
C3462 C3463 1.394 . S
C3462 H3470 0.930 . S
C3463 C3462 1.394 . S
C3463 C3464 1.383 . S
C3463 H3471 0.929 . S
C3464 C3463 1.383 . S
C3464 C3465 1.377 . S
C3465 H3449 0.930 . S
C3465 C3464 1.377 . S
C3465 C3466 1.379 . S
C3466 H3450 0.931 . S
C3466 C3460 1.383 . S
C3466 C3465 1.379 . S
H3467 C3461 0.959 . S
H3468 C3461 0.961 . S
H3469 C3461 0.960 . S
H3470 C3462 0.930 . S
H3471 C3463 0.929 . S
H3472 C3480 0.929 . S
H3473 C3482 0.930 . S
H3474 C3484 0.930 . S
H3475 C3487 0.929 . S
H3476 C3490 0.930 . S
H3477 C3492 0.960 . S
H3478 C3492 0.960 . S
H3479 C3492 0.960 . S
C3480 H3472 0.929 . S
C3480 C3481 1.377 . S
C3480 C3482 1.384 . S
C3481 C3480 1.377 . S
C3481 C3487 1.390 . S
C3482 H3473 0.930 . S
C3482 C3480 1.384 . S
C3482 C3483 1.372 . S
C3483 C3482 1.372 . S
C3483 C3484 1.400 . S
C3483 C3488 1.490 . S
C3484 H3474 0.930 . S
C3484 C3483 1.400 . S
C3484 C3487 1.386 . S
H3485 C3501 0.930 . S
H3486 C3502 0.931 . S
C3487 H3475 0.929 . S
C3487 C3481 1.390 . S
C3487 C3484 1.386 . S
C3488 C3483 1.490 . S
C3488 C3490 1.395 . S
C3488 C3491 1.403 . S
H3489 C3495 0.930 . S
C3490 H3476 0.930 . S
C3490 C3488 1.395 . S
C3490 C3493 1.403 . S
C3491 C3488 1.403 . S
C3491 C3492 1.524 . S
C3491 C3495 1.400 . S
C3492 H3477 0.960 . S
C3492 H3478 0.960 . S
C3492 H3479 0.960 . S
C3492 C3491 1.524 . S
C3493 C3490 1.403 . S
C3493 C3494 1.392 . S
C3493 C3497 1.495 . S
C3494 C3493 1.392 . S
C3494 C3495 1.385 . S
C3494 C3496 1.478 . S
C3495 H3489 0.930 . S
C3495 C3491 1.400 . S
C3495 C3494 1.385 . S
C3496 C3494 1.478 . S
C3496 C3498 1.381 . S
C3496 C3502 1.383 . S
C3497 C3493 1.495 . S
C3497 H3503 0.959 . S
C3497 H3504 0.961 . S
C3497 H3505 0.960 . S
C3498 C3496 1.381 . S
C3498 C3499 1.394 . S
C3498 H3506 0.930 . S
C3499 C3498 1.394 . S
C3499 C3500 1.383 . S
C3499 H3507 0.929 . S
C3500 C3499 1.383 . S
C3500 C3501 1.377 . S
C3501 H3485 0.930 . S
C3501 C3500 1.377 . S
C3501 C3502 1.379 . S
C3502 H3486 0.931 . S
C3502 C3496 1.383 . S
C3502 C3501 1.379 . S
H3503 C3497 0.959 . S
H3504 C3497 0.961 . S
H3505 C3497 0.960 . S
H3506 C3498 0.930 . S
H3507 C3499 0.929 . S
H3508 C3516 0.929 . S
H3509 C3518 0.930 . S
H3510 C3520 0.930 . S
H3511 C3523 0.929 . S
H3512 C3526 0.930 . S
H3513 C3528 0.960 . S
H3514 C3528 0.960 . S
H3515 C3528 0.960 . S
C3516 H3508 0.929 . S
C3516 C3517 1.377 . S
C3516 C3518 1.384 . S
C3517 C3516 1.377 . S
C3517 C3523 1.390 . S
C3518 H3509 0.930 . S
C3518 C3516 1.384 . S
C3518 C3519 1.372 . S
C3519 C3518 1.372 . S
C3519 C3520 1.400 . S
C3519 C3524 1.490 . S
C3520 H3510 0.930 . S
C3520 C3519 1.400 . S
C3520 C3523 1.386 . S
H3521 C3537 0.930 . S
H3522 C3538 0.931 . S
C3523 H3511 0.929 . S
C3523 C3517 1.390 . S
C3523 C3520 1.386 . S
C3524 C3519 1.490 . S
C3524 C3526 1.395 . S
C3524 C3527 1.403 . S
H3525 C3531 0.930 . S
C3526 H3512 0.930 . S
C3526 C3524 1.395 . S
C3526 C3529 1.403 . S
C3527 C3524 1.403 . S
C3527 C3528 1.524 . S
C3527 C3531 1.400 . S
C3528 H3513 0.960 . S
C3528 H3514 0.960 . S
C3528 H3515 0.960 . S
C3528 C3527 1.524 . S
C3529 C3526 1.403 . S
C3529 C3530 1.392 . S
C3529 C3533 1.495 . S
C3530 C3529 1.392 . S
C3530 C3531 1.385 . S
C3530 C3532 1.478 . S
C3531 H3525 0.930 . S
C3531 C3527 1.400 . S
C3531 C3530 1.385 . S
C3532 C3530 1.478 . S
C3532 C3534 1.381 . S
C3532 C3538 1.383 . S
C3533 C3529 1.495 . S
C3533 H3539 0.959 . S
C3533 H3540 0.961 . S
C3533 H3541 0.960 . S
C3534 C3532 1.381 . S
C3534 C3535 1.394 . S
C3534 H3542 0.930 . S
C3535 C3534 1.394 . S
C3535 C3536 1.383 . S
C3535 H3543 0.929 . S
C3536 C3535 1.383 . S
C3536 C3537 1.377 . S
C3537 H3521 0.930 . S
C3537 C3536 1.377 . S
C3537 C3538 1.379 . S
C3538 H3522 0.931 . S
C3538 C3532 1.383 . S
C3538 C3537 1.379 . S
H3539 C3533 0.959 . S
H3540 C3533 0.961 . S
H3541 C3533 0.960 . S
H3542 C3534 0.930 . S
H3543 C3535 0.929 . S
H3544 C3552 0.929 . S
H3545 C3554 0.930 . S
H3546 C3556 0.930 . S
H3547 C3559 0.929 . S
H3548 C3562 0.930 . S
H3549 C3564 0.960 . S
H3550 C3564 0.960 . S
H3551 C3564 0.960 . S
C3552 H3544 0.929 . S
C3552 C3553 1.377 . S
C3552 C3554 1.384 . S
C3553 C3552 1.377 . S
C3553 C3559 1.390 . S
C3554 H3545 0.930 . S
C3554 C3552 1.384 . S
C3554 C3555 1.372 . S
C3555 C3554 1.372 . S
C3555 C3556 1.400 . S
C3555 C3560 1.490 . S
C3556 H3546 0.930 . S
C3556 C3555 1.400 . S
C3556 C3559 1.386 . S
H3557 C3573 0.930 . S
H3558 C3574 0.931 . S
C3559 H3547 0.929 . S
C3559 C3553 1.390 . S
C3559 C3556 1.386 . S
C3560 C3555 1.490 . S
C3560 C3562 1.395 . S
C3560 C3563 1.403 . S
H3561 C3567 0.930 . S
C3562 H3548 0.930 . S
C3562 C3560 1.395 . S
C3562 C3565 1.403 . S
C3563 C3560 1.403 . S
C3563 C3564 1.524 . S
C3563 C3567 1.400 . S
C3564 H3549 0.960 . S
C3564 H3550 0.960 . S
C3564 H3551 0.960 . S
C3564 C3563 1.524 . S
C3565 C3562 1.403 . S
C3565 C3566 1.392 . S
C3565 C3569 1.495 . S
C3566 C3565 1.392 . S
C3566 C3567 1.385 . S
C3566 C3568 1.478 . S
C3567 H3561 0.930 . S
C3567 C3563 1.400 . S
C3567 C3566 1.385 . S
C3568 C3566 1.478 . S
C3568 C3570 1.381 . S
C3568 C3574 1.383 . S
C3569 C3565 1.495 . S
C3569 H3575 0.959 . S
C3569 H3576 0.961 . S
C3569 H3577 0.960 . S
C3570 C3568 1.381 . S
C3570 C3571 1.394 . S
C3570 H3578 0.930 . S
C3571 C3570 1.394 . S
C3571 C3572 1.383 . S
C3571 H3579 0.929 . S
C3572 C3571 1.383 . S
C3572 C3573 1.377 . S
C3573 H3557 0.930 . S
C3573 C3572 1.377 . S
C3573 C3574 1.379 . S
C3574 H3558 0.931 . S
C3574 C3568 1.383 . S
C3574 C3573 1.379 . S
H3575 C3569 0.959 . S
H3576 C3569 0.961 . S
H3577 C3569 0.960 . S
H3578 C3570 0.930 . S
H3579 C3571 0.929 . S
H3580 C3588 0.929 . S
H3581 C3590 0.930 . S
H3582 C3592 0.930 . S
H3583 C3595 0.929 . S
H3584 C3598 0.930 . S
H3585 C3600 0.960 . S
H3586 C3600 0.960 . S
H3587 C3600 0.960 . S
C3588 H3580 0.929 . S
C3588 C3589 1.377 . S
C3588 C3590 1.384 . S
C3589 C3588 1.377 . S
C3589 C3595 1.390 . S
C3590 H3581 0.930 . S
C3590 C3588 1.384 . S
C3590 C3591 1.372 . S
C3591 C3590 1.372 . S
C3591 C3592 1.400 . S
C3591 C3596 1.490 . S
C3592 H3582 0.930 . S
C3592 C3591 1.400 . S
C3592 C3595 1.386 . S
H3593 C3609 0.930 . S
H3594 C3610 0.931 . S
C3595 H3583 0.929 . S
C3595 C3589 1.390 . S
C3595 C3592 1.386 . S
C3596 C3591 1.490 . S
C3596 C3598 1.395 . S
C3596 C3599 1.403 . S
H3597 C3603 0.930 . S
C3598 H3584 0.930 . S
C3598 C3596 1.395 . S
C3598 C3601 1.403 . S
C3599 C3596 1.403 . S
C3599 C3600 1.524 . S
C3599 C3603 1.400 . S
C3600 H3585 0.960 . S
C3600 H3586 0.960 . S
C3600 H3587 0.960 . S
C3600 C3599 1.524 . S
C3601 C3598 1.403 . S
C3601 C3602 1.392 . S
C3601 C3605 1.495 . S
C3602 C3601 1.392 . S
C3602 C3603 1.385 . S
C3602 C3604 1.478 . S
C3603 H3597 0.930 . S
C3603 C3599 1.400 . S
C3603 C3602 1.385 . S
C3604 C3602 1.478 . S
C3604 C3606 1.381 . S
C3604 C3610 1.383 . S
C3605 C3601 1.495 . S
C3605 H3611 0.959 . S
C3605 H3612 0.961 . S
C3605 H3613 0.960 . S
C3606 C3604 1.381 . S
C3606 C3607 1.394 . S
C3606 H3614 0.930 . S
C3607 C3606 1.394 . S
C3607 C3608 1.383 . S
C3607 H3615 0.929 . S
C3608 C3607 1.383 . S
C3608 C3609 1.377 . S
C3609 H3593 0.930 . S
C3609 C3608 1.377 . S
C3609 C3610 1.379 . S
C3610 H3594 0.931 . S
C3610 C3604 1.383 . S
C3610 C3609 1.379 . S
H3611 C3605 0.959 . S
H3612 C3605 0.961 . S
H3613 C3605 0.960 . S
H3614 C3606 0.930 . S
H3615 C3607 0.929 . S
H3616 C3624 0.929 . S
H3617 C3626 0.930 . S
H3618 C3628 0.930 . S
H3619 C3631 0.929 . S
H3620 C3634 0.930 . S
H3621 C3636 0.960 . S
H3622 C3636 0.960 . S
H3623 C3636 0.960 . S
C3624 H3616 0.929 . S
C3624 C3625 1.377 . S
C3624 C3626 1.384 . S
C3625 C3624 1.377 . S
C3625 C3631 1.390 . S
C3626 H3617 0.930 . S
C3626 C3624 1.384 . S
C3626 C3627 1.372 . S
C3627 C3626 1.372 . S
C3627 C3628 1.400 . S
C3627 C3632 1.490 . S
C3628 H3618 0.930 . S
C3628 C3627 1.400 . S
C3628 C3631 1.386 . S
H3629 C3645 0.930 . S
H3630 C3646 0.931 . S
C3631 H3619 0.929 . S
C3631 C3625 1.390 . S
C3631 C3628 1.386 . S
C3632 C3627 1.490 . S
C3632 C3634 1.395 . S
C3632 C3635 1.403 . S
H3633 C3639 0.930 . S
C3634 H3620 0.930 . S
C3634 C3632 1.395 . S
C3634 C3637 1.403 . S
C3635 C3632 1.403 . S
C3635 C3636 1.524 . S
C3635 C3639 1.400 . S
C3636 H3621 0.960 . S
C3636 H3622 0.960 . S
C3636 H3623 0.960 . S
C3636 C3635 1.524 . S
C3637 C3634 1.403 . S
C3637 C3638 1.392 . S
C3637 C3641 1.495 . S
C3638 C3637 1.392 . S
C3638 C3639 1.385 . S
C3638 C3640 1.478 . S
C3639 H3633 0.930 . S
C3639 C3635 1.400 . S
C3639 C3638 1.385 . S
C3640 C3638 1.478 . S
C3640 C3642 1.381 . S
C3640 C3646 1.383 . S
C3641 C3637 1.495 . S
C3641 H3647 0.959 . S
C3641 H3648 0.961 . S
C3641 H3649 0.960 . S
C3642 C3640 1.381 . S
C3642 C3643 1.394 . S
C3642 H3650 0.930 . S
C3643 C3642 1.394 . S
C3643 C3644 1.383 . S
C3643 H3651 0.929 . S
C3644 C3643 1.383 . S
C3644 C3645 1.377 . S
C3645 H3629 0.930 . S
C3645 C3644 1.377 . S
C3645 C3646 1.379 . S
C3646 H3630 0.931 . S
C3646 C3640 1.383 . S
C3646 C3645 1.379 . S
H3647 C3641 0.959 . S
H3648 C3641 0.961 . S
H3649 C3641 0.960 . S
H3650 C3642 0.930 . S
H3651 C3643 0.929 . S
H3652 C3660 0.929 . S
H3653 C3662 0.930 . S
H3654 C3664 0.930 . S
H3655 C3667 0.929 . S
H3656 C3670 0.930 . S
H3657 C3672 0.960 . S
H3658 C3672 0.960 . S
H3659 C3672 0.960 . S
C3660 H3652 0.929 . S
C3660 C3661 1.377 . S
C3660 C3662 1.384 . S
C3661 C3660 1.377 . S
C3661 C3667 1.390 . S
C3662 H3653 0.930 . S
C3662 C3660 1.384 . S
C3662 C3663 1.372 . S
C3663 C3662 1.372 . S
C3663 C3664 1.400 . S
C3663 C3668 1.490 . S
C3664 H3654 0.930 . S
C3664 C3663 1.400 . S
C3664 C3667 1.386 . S
H3665 C3681 0.930 1_455 S
H3666 C3682 0.931 . S
C3667 H3655 0.929 . S
C3667 C3661 1.390 . S
C3667 C3664 1.386 . S
C3668 C3663 1.490 . S
C3668 C3670 1.395 . S
C3668 C3671 1.403 . S
H3669 C3675 0.930 . S
C3670 H3656 0.930 . S
C3670 C3668 1.395 . S
C3670 C3673 1.403 . S
C3671 C3668 1.403 . S
C3671 C3672 1.524 . S
C3671 C3675 1.400 . S
C3672 H3657 0.960 . S
C3672 H3658 0.960 . S
C3672 H3659 0.960 . S
C3672 C3671 1.524 . S
C3673 C3670 1.403 . S
C3673 C3674 1.392 . S
C3673 C3677 1.495 . S
C3674 C3673 1.392 . S
C3674 C3675 1.385 . S
C3674 C3676 1.478 . S
C3675 H3669 0.930 . S
C3675 C3671 1.400 . S
C3675 C3674 1.385 . S
C3676 C3674 1.478 . S
C3676 C3678 1.381 . S
C3676 C3682 1.383 . S
C3677 C3673 1.495 . S
C3677 H3683 0.959 . S
C3677 H3684 0.961 . S
C3677 H3685 0.960 . S
C3678 C3676 1.381 . S
C3678 C3679 1.394 . S
C3678 H3686 0.930 . S
C3679 C3678 1.394 . S
C3679 C3680 1.383 1_655 S
C3679 H3687 0.924 1_655 S
C3680 C3679 1.383 1_455 S
C3680 C3681 1.377 1_455 S
C3681 H3665 0.930 1_655 S
C3681 C3680 1.377 1_655 S
C3681 C3682 1.379 . S
C3682 H3666 0.931 . S
C3682 C3676 1.383 . S
C3682 C3681 1.379 . S
H3683 C3677 0.959 . S
H3684 C3677 0.961 . S
H3685 C3677 0.960 . S
H3686 C3678 0.930 . S
H3687 C3679 0.924 1_455 S
H3688 C3696 0.929 . S
H3689 C3698 0.930 . S
H3690 C3700 0.930 . S
H3691 C3703 0.929 . S
H3692 C3706 0.925 1_554 S
H3693 C3708 0.960 . S
H3694 C3708 0.960 . S
H3695 C3708 0.960 . S
C3696 H3688 0.929 . S
C3696 C3697 1.377 . S
C3696 C3698 1.384 . S
C3697 C3696 1.377 . S
C3697 C3703 1.390 1_556 S
C3698 H3689 0.930 . S
C3698 C3696 1.384 . S
C3698 C3699 1.372 . S
C3699 C3698 1.372 . S
C3699 C3700 1.400 1_556 S
C3699 C3704 1.490 . S
C3700 H3690 0.930 . S
C3700 C3699 1.400 1_554 S
C3700 C3703 1.386 . S
H3701 C3717 0.930 . S
H3702 C3718 0.931 . S
C3703 H3691 0.929 . S
C3703 C3697 1.390 1_554 S
C3703 C3700 1.386 . S
C3704 C3699 1.490 . S
C3704 C3706 1.395 . S
C3704 C3707 1.403 . S
H3705 C3711 0.930 . S
C3706 H3692 0.925 1_556 S
C3706 C3704 1.395 . S
C3706 C3709 1.406 . S
C3707 C3704 1.403 . S
C3707 C3708 1.524 . S
C3707 C3711 1.400 . S
C3708 H3693 0.960 . S
C3708 H3694 0.960 . S
C3708 H3695 0.960 . S
C3708 C3707 1.524 . S
C3709 C3706 1.406 . S
C3709 C3710 1.401 . S
C3709 C3713 1.486 1_556 S
C3710 C3709 1.401 . S
C3710 C3711 1.385 . S
C3710 C3712 1.478 . S
C3711 H3705 0.930 . S
C3711 C3707 1.400 . S
C3711 C3710 1.385 . S
C3712 C3710 1.478 . S
C3712 C3714 1.381 . S
C3712 C3718 1.383 1_556 S
C3713 C3709 1.486 1_554 S
C3713 H3719 0.959 . S
C3713 H3720 0.961 . S
C3713 H3721 0.960 1_554 S
C3714 C3712 1.381 . S
C3714 C3715 1.394 . S
C3714 H3722 0.930 . S
C3715 C3714 1.394 . S
C3715 C3716 1.383 . S
C3715 H3723 0.929 . S
C3716 C3715 1.383 . S
C3716 C3717 1.377 1_556 S
C3717 H3701 0.930 . S
C3717 C3716 1.377 1_554 S
C3717 C3718 1.379 . S
C3718 H3702 0.931 . S
C3718 C3712 1.383 1_554 S
C3718 C3717 1.379 . S
H3719 C3713 0.959 . S
H3720 C3713 0.961 . S
H3721 C3713 0.960 1_556 S
H3722 C3714 0.930 . S
H3723 C3715 0.929 . S
H3724 C3732 0.935 . S
H3725 C3734 0.930 . S
H3726 C3736 0.930 . S
H3727 C3739 0.929 1_455 S
H3728 C3742 0.930 . S
H3729 C3744 0.960 . S
H3730 C3744 0.960 . S
H3731 C3744 0.981 . S
C3732 H3724 0.935 . S
C3732 C3733 1.377 1_655 S
C3732 C3734 1.384 . S
C3733 C3732 1.377 1_455 S
C3733 C3739 1.390 1_456 S
C3734 H3725 0.930 . S
C3734 C3732 1.384 . S
C3734 C3735 1.372 . S
C3735 C3734 1.372 . S
C3735 C3736 1.400 1_556 S
C3735 C3740 1.490 . S
C3736 H3726 0.930 . S
C3736 C3735 1.400 1_554 S
C3736 C3739 1.386 . S
H3737 C3753 0.930 . S
H3738 C3754 0.931 . S
C3739 H3727 0.929 1_655 S
C3739 C3733 1.390 1_654 S
C3739 C3736 1.386 . S
C3740 C3735 1.490 . S
C3740 C3742 1.395 . S
C3740 C3743 1.403 . S
H3741 C3747 0.930 . S
C3742 H3728 0.930 . S
C3742 C3740 1.395 . S
C3742 C3745 1.403 . S
C3743 C3740 1.403 . S
C3743 C3744 1.524 . S
C3743 C3747 1.400 . S
C3744 H3729 0.960 . S
C3744 H3730 0.960 . S
C3744 H3731 0.981 . S
C3744 C3743 1.524 . S
C3745 C3742 1.403 . S
C3745 C3746 1.392 . S
C3745 C3749 1.494 1_556 S
C3746 C3745 1.392 . S
C3746 C3747 1.385 . S
C3746 C3748 1.478 . S
C3747 H3741 0.930 . S
C3747 C3743 1.400 . S
C3747 C3746 1.385 . S
C3748 C3746 1.478 . S
C3748 C3750 1.381 . S
C3748 C3754 1.383 1_556 S
C3749 C3745 1.494 1_554 S
C3749 H3755 0.960 . S
C3749 H3756 0.968 . S
C3749 H3757 0.954 1_554 S
C3750 C3748 1.381 . S
C3750 C3751 1.394 . S
C3750 H3758 0.930 . S
C3751 C3750 1.394 . S
C3751 C3752 1.383 . S
C3751 H3759 0.929 . S
C3752 C3751 1.383 . S
C3752 C3753 1.377 1_556 S
C3753 H3737 0.930 . S
C3753 C3752 1.377 1_554 S
C3753 C3754 1.379 . S
C3754 H3738 0.931 . S
C3754 C3748 1.383 1_554 S
C3754 C3753 1.379 . S
H3755 C3749 0.960 . S
H3756 C3749 0.968 . S
H3757 C3749 0.954 1_556 S
H3758 C3750 0.930 . S
H3759 C3751 0.929 . S
H3760 C3768 0.929 . S
H3761 C3770 0.930 . S
H3762 C3772 0.930 . S
H3763 C3775 0.929 . S
H3764 C3778 0.930 . S
H3765 C3780 0.960 . S
H3766 C3780 0.960 . S
H3767 C3780 0.960 . S
C3768 H3760 0.929 . S
C3768 C3769 1.377 . S
C3768 C3770 1.384 . S
C3769 C3768 1.377 . S
C3769 C3775 1.390 . S
C3770 H3761 0.930 . S
C3770 C3768 1.384 . S
C3770 C3771 1.372 . S
C3771 C3770 1.372 . S
C3771 C3772 1.400 . S
C3771 C3776 1.490 . S
C3772 H3762 0.930 . S
C3772 C3771 1.400 . S
C3772 C3775 1.386 . S
H3773 C3789 0.930 . S
H3774 C3790 0.931 . S
C3775 H3763 0.929 . S
C3775 C3769 1.390 . S
C3775 C3772 1.386 . S
C3776 C3771 1.490 . S
C3776 C3778 1.395 . S
C3776 C3779 1.403 . S
H3777 C3783 0.930 . S
C3778 H3764 0.930 . S
C3778 C3776 1.395 . S
C3778 C3781 1.403 . S
C3779 C3776 1.403 . S
C3779 C3780 1.524 . S
C3779 C3783 1.400 . S
C3780 H3765 0.960 . S
C3780 H3766 0.960 . S
C3780 H3767 0.960 . S
C3780 C3779 1.524 . S
C3781 C3778 1.403 . S
C3781 C3782 1.392 . S
C3781 C3785 1.495 . S
C3782 C3781 1.392 . S
C3782 C3783 1.385 . S
C3782 C3784 1.478 . S
C3783 H3777 0.930 . S
C3783 C3779 1.400 . S
C3783 C3782 1.385 . S
C3784 C3782 1.478 . S
C3784 C3786 1.381 . S
C3784 C3790 1.383 . S
C3785 C3781 1.495 . S
C3785 H3791 0.959 . S
C3785 H3792 0.961 . S
C3785 H3793 0.960 . S
C3786 C3784 1.381 . S
C3786 C3787 1.394 . S
C3786 H3794 0.930 . S
C3787 C3786 1.394 . S
C3787 C3788 1.383 . S
C3787 H3795 0.929 . S
C3788 C3787 1.383 . S
C3788 C3789 1.377 . S
C3789 H3773 0.930 . S
C3789 C3788 1.377 . S
C3789 C3790 1.379 . S
C3790 H3774 0.931 . S
C3790 C3784 1.383 . S
C3790 C3789 1.379 . S
H3791 C3785 0.959 . S
H3792 C3785 0.961 . S
H3793 C3785 0.960 . S
H3794 C3786 0.930 . S
H3795 C3787 0.929 . S
H3796 C3804 0.929 1_655 S
H3797 C3806 0.930 . S
H3798 C3808 0.930 . S
H3799 C3811 0.929 . S
H3800 C3814 0.930 . S
H3801 C3816 0.960 . S
H3802 C3816 0.960 . S
H3803 C3816 0.960 . S
C3804 H3796 0.929 1_455 S
C3804 C3805 1.377 1_455 S
C3804 C3806 1.384 . S
C3805 C3804 1.377 1_655 S
C3805 C3811 1.390 1_655 S
C3806 H3797 0.930 . S
C3806 C3804 1.384 . S
C3806 C3807 1.372 . S
C3807 C3806 1.372 . S
C3807 C3808 1.400 . S
C3807 C3812 1.490 . S
C3808 H3798 0.930 . S
C3808 C3807 1.400 . S
C3808 C3811 1.386 . S
H3809 C3825 0.930 . S
H3810 C3826 0.931 . S
C3811 H3799 0.929 . S
C3811 C3805 1.390 1_455 S
C3811 C3808 1.386 . S
C3812 C3807 1.490 . S
C3812 C3814 1.395 . S
C3812 C3815 1.403 . S
H3813 C3819 0.930 . S
C3814 H3800 0.930 . S
C3814 C3812 1.395 . S
C3814 C3817 1.403 . S
C3815 C3812 1.403 . S
C3815 C3816 1.524 . S
C3815 C3819 1.400 . S
C3816 H3801 0.960 . S
C3816 H3802 0.960 . S
C3816 H3803 0.960 . S
C3816 C3815 1.524 . S
C3817 C3814 1.403 . S
C3817 C3818 1.392 . S
C3817 C3821 1.495 . S
C3818 C3817 1.392 . S
C3818 C3819 1.385 . S
C3818 C3820 1.478 . S
C3819 H3813 0.930 . S
C3819 C3815 1.400 . S
C3819 C3818 1.385 . S
C3820 C3818 1.478 . S
C3820 C3822 1.381 . S
C3820 C3826 1.383 . S
C3821 C3817 1.495 . S
C3821 H3827 0.959 . S
C3821 H3828 0.961 . S
C3821 H3829 0.960 . S
C3822 C3820 1.381 . S
C3822 C3823 1.394 . S
C3822 H3830 0.930 . S
C3823 C3822 1.394 . S
C3823 C3824 1.383 . S
C3823 H3831 0.929 . S
C3824 C3823 1.383 . S
C3824 C3825 1.377 . S
C3825 H3809 0.930 . S
C3825 C3824 1.377 . S
C3825 C3826 1.379 . S
C3826 H3810 0.931 . S
C3826 C3820 1.383 . S
C3826 C3825 1.379 . S
H3827 C3821 0.959 . S
H3828 C3821 0.961 . S
H3829 C3821 0.960 . S
H3830 C3822 0.930 . S
H3831 C3823 0.929 . S
H3832 C3840 0.929 . S
H3833 C3842 0.930 . S
H3834 C3844 0.930 . S
H3835 C3847 0.929 . S
H3836 C3850 0.930 . S
H3837 C3852 0.960 . S
H3838 C3852 0.960 . S
H3839 C3852 0.960 . S
C3840 H3832 0.929 . S
C3840 C3841 1.377 . S
C3840 C3842 1.384 . S
C3841 C3840 1.377 . S
C3841 C3847 1.390 1_554 S
C3842 H3833 0.930 . S
C3842 C3840 1.384 . S
C3842 C3843 1.372 . S
C3843 C3842 1.372 . S
C3843 C3844 1.400 1_554 S
C3843 C3848 1.490 . S
C3844 H3834 0.930 . S
C3844 C3843 1.400 1_556 S
C3844 C3847 1.386 . S
H3845 C3861 0.930 . S
H3846 C3862 0.931 . S
C3847 H3835 0.929 . S
C3847 C3841 1.390 1_556 S
C3847 C3844 1.386 . S
C3848 C3843 1.490 . S
C3848 C3850 1.395 . S
C3848 C3851 1.403 1_554 S
H3849 C3855 0.930 . S
C3850 H3836 0.930 . S
C3850 C3848 1.395 . S
C3850 C3853 1.403 . S
C3851 C3848 1.403 1_556 S
C3851 C3852 1.524 . S
C3851 C3855 1.400 . S
C3852 H3837 0.960 . S
C3852 H3838 0.960 . S
C3852 H3839 0.960 . S
C3852 C3851 1.524 . S
C3853 C3850 1.403 . S
C3853 C3854 1.392 . S
C3853 C3857 1.495 . S
C3854 C3853 1.392 . S
C3854 C3855 1.385 1_554 S
C3854 C3856 1.478 . S
C3855 H3849 0.930 . S
C3855 C3851 1.400 . S
C3855 C3854 1.385 1_556 S
C3856 C3854 1.478 . S
C3856 C3858 1.381 . S
C3856 C3862 1.383 1_554 S
C3857 C3853 1.495 . S
C3857 H3863 0.959 . S
C3857 H3864 0.961 . S
C3857 H3865 0.960 . S
C3858 C3856 1.381 . S
C3858 C3859 1.394 . S
C3858 H3866 0.930 . S
C3859 C3858 1.394 . S
C3859 C3860 1.383 . S
C3859 H3867 0.929 . S
C3860 C3859 1.383 . S
C3860 C3861 1.377 1_554 S
C3861 H3845 0.930 . S
C3861 C3860 1.377 1_556 S
C3861 C3862 1.379 . S
C3862 H3846 0.931 . S
C3862 C3856 1.383 1_556 S
C3862 C3861 1.379 . S
H3863 C3857 0.959 . S
H3864 C3857 0.961 . S
H3865 C3857 0.960 . S
H3866 C3858 0.930 . S
H3867 C3859 0.929 . S
H3868 C3876 0.929 . S
H3869 C3878 0.930 . S
H3870 C3880 0.930 . S
H3871 C3883 0.929 . S
H3872 C3886 0.930 . S
H3873 C3888 0.960 . S
H3874 C3888 0.960 . S
H3875 C3888 0.960 . S
C3876 H3868 0.929 . S
C3876 C3877 1.377 . S
C3876 C3878 1.384 . S
C3877 C3876 1.377 . S
C3877 C3883 1.390 1_554 S
C3878 H3869 0.930 . S
C3878 C3876 1.384 . S
C3878 C3879 1.372 . S
C3879 C3878 1.372 . S
C3879 C3880 1.400 1_554 S
C3879 C3884 1.490 . S
C3880 H3870 0.930 . S
C3880 C3879 1.400 1_556 S
C3880 C3883 1.386 . S
H3881 C3897 0.930 . S
H3882 C3898 0.931 . S
C3883 H3871 0.929 . S
C3883 C3877 1.390 1_556 S
C3883 C3880 1.386 . S
C3884 C3879 1.490 . S
C3884 C3886 1.395 . S
C3884 C3887 1.403 1_554 S
H3885 C3891 0.930 . S
C3886 H3872 0.930 . S
C3886 C3884 1.395 . S
C3886 C3889 1.403 . S
C3887 C3884 1.403 1_556 S
C3887 C3888 1.524 . S
C3887 C3891 1.400 . S
C3888 H3873 0.960 . S
C3888 H3874 0.960 . S
C3888 H3875 0.960 . S
C3888 C3887 1.524 . S
C3889 C3886 1.403 . S
C3889 C3890 1.392 . S
C3889 C3893 1.495 . S
C3890 C3889 1.392 . S
C3890 C3891 1.385 1_554 S
C3890 C3892 1.478 . S
C3891 H3885 0.930 . S
C3891 C3887 1.400 . S
C3891 C3890 1.385 1_556 S
C3892 C3890 1.478 . S
C3892 C3894 1.381 . S
C3892 C3898 1.383 1_554 S
C3893 C3889 1.495 . S
C3893 H3899 0.959 . S
C3893 H3900 0.961 . S
C3893 H3901 0.960 . S
C3894 C3892 1.381 . S
C3894 C3895 1.394 . S
C3894 H3902 0.930 . S
C3895 C3894 1.394 . S
C3895 C3896 1.383 1_455 S
C3895 H3903 0.929 1_455 S
C3896 C3895 1.383 1_655 S
C3896 C3897 1.377 1_654 S
C3897 H3881 0.930 . S
C3897 C3896 1.377 1_456 S
C3897 C3898 1.379 . S
C3898 H3882 0.931 . S
C3898 C3892 1.383 1_556 S
C3898 C3897 1.379 . S
H3899 C3893 0.959 . S
H3900 C3893 0.961 . S
H3901 C3893 0.960 . S
H3902 C3894 0.930 . S
H3903 C3895 0.929 1_655 S
H3904 C3912 0.929 . S
H3905 C3914 0.930 . S
H3906 C3916 0.930 . S
H3907 C3919 0.929 . S
H3908 C3922 0.930 . S
H3909 C3924 0.960 . S
H3910 C3924 0.960 . S
H3911 C3924 0.960 . S
C3912 H3904 0.929 . S
C3912 C3913 1.377 . S
C3912 C3914 1.384 . S
C3913 C3912 1.377 . S
C3913 C3919 1.390 . S
C3914 H3905 0.930 . S
C3914 C3912 1.384 . S
C3914 C3915 1.372 . S
C3915 C3914 1.372 . S
C3915 C3916 1.400 . S
C3915 C3920 1.490 . S
C3916 H3906 0.930 . S
C3916 C3915 1.400 . S
C3916 C3919 1.386 . S
H3917 C3933 0.930 . S
H3918 C3934 0.931 . S
C3919 H3907 0.929 . S
C3919 C3913 1.390 . S
C3919 C3916 1.386 . S
C3920 C3915 1.490 . S
C3920 C3922 1.395 . S
C3920 C3923 1.403 . S
H3921 C3927 0.930 . S
C3922 H3908 0.930 . S
C3922 C3920 1.395 . S
C3922 C3925 1.403 . S
C3923 C3920 1.403 . S
C3923 C3924 1.524 . S
C3923 C3927 1.400 . S
C3924 H3909 0.960 . S
C3924 H3910 0.960 . S
C3924 H3911 0.960 . S
C3924 C3923 1.524 . S
C3925 C3922 1.403 . S
C3925 C3926 1.392 . S
C3925 C3929 1.495 . S
C3926 C3925 1.392 . S
C3926 C3927 1.385 . S
C3926 C3928 1.478 . S
C3927 H3921 0.930 . S
C3927 C3923 1.400 . S
C3927 C3926 1.385 . S
C3928 C3926 1.478 . S
C3928 C3930 1.381 . S
C3928 C3934 1.383 . S
C3929 C3925 1.495 . S
C3929 H3935 0.959 . S
C3929 H3936 0.961 . S
C3929 H3937 0.960 . S
C3930 C3928 1.381 . S
C3930 C3931 1.394 . S
C3930 H3938 0.930 . S
C3931 C3930 1.394 . S
C3931 C3932 1.383 . S
C3931 H3939 0.929 . S
C3932 C3931 1.383 . S
C3932 C3933 1.377 . S
C3933 H3917 0.930 . S
C3933 C3932 1.377 . S
C3933 C3934 1.379 . S
C3934 H3918 0.931 . S
C3934 C3928 1.383 . S
C3934 C3933 1.379 . S
H3935 C3929 0.959 . S
H3936 C3929 0.961 . S
H3937 C3929 0.960 . S
H3938 C3930 0.930 . S
H3939 C3931 0.929 . S
H3940 C3948 0.929 . S
H3941 C3950 0.930 . S
H3942 C3952 0.930 . S
H3943 C3955 0.929 . S
H3944 C3958 0.930 . S
H3945 C3960 0.960 . S
H3946 C3960 0.960 . S
H3947 C3960 0.960 . S
C3948 H3940 0.929 . S
C3948 C3949 1.377 . S
C3948 C3950 1.384 . S
C3949 C3948 1.377 . S
C3949 C3955 1.390 . S
C3950 H3941 0.930 . S
C3950 C3948 1.384 . S
C3950 C3951 1.372 . S
C3951 C3950 1.372 . S
C3951 C3952 1.400 . S
C3951 C3956 1.490 . S
C3952 H3942 0.930 . S
C3952 C3951 1.400 . S
C3952 C3955 1.386 . S
H3953 C3969 0.917 1_455 S
H3954 C3970 0.931 . S
C3955 H3943 0.929 . S
C3955 C3949 1.390 . S
C3955 C3952 1.386 . S
C3956 C3951 1.490 . S
C3956 C3958 1.395 . S
C3956 C3959 1.403 . S
H3957 C3963 0.930 . S
C3958 H3944 0.930 . S
C3958 C3956 1.395 . S
C3958 C3961 1.403 . S
C3959 C3956 1.403 . S
C3959 C3960 1.524 . S
C3959 C3963 1.400 . S
C3960 H3945 0.960 . S
C3960 H3946 0.960 . S
C3960 H3947 0.960 . S
C3960 C3959 1.524 . S
C3961 C3958 1.403 . S
C3961 C3962 1.392 . S
C3961 C3965 1.495 . S
C3962 C3961 1.392 . S
C3962 C3963 1.385 . S
C3962 C3964 1.478 . S
C3963 H3957 0.930 . S
C3963 C3959 1.400 . S
C3963 C3962 1.385 . S
C3964 C3962 1.478 . S
C3964 C3966 1.381 . S
C3964 C3970 1.383 . S
C3965 C3961 1.495 . S
C3965 H3971 0.959 . S
C3965 H3972 0.961 . S
C3965 H3973 0.960 . S
C3966 C3964 1.381 . S
C3966 C3967 1.394 . S
C3966 H3974 0.930 . S
C3967 C3966 1.394 . S
C3967 C3968 1.383 1_655 S
C3967 H3975 0.929 1_655 S
C3968 C3967 1.383 1_455 S
C3968 C3969 1.377 1_455 S
C3969 H3953 0.917 1_655 S
C3969 C3968 1.377 1_655 S
C3969 C3970 1.379 . S
C3970 H3954 0.931 . S
C3970 C3964 1.383 . S
C3970 C3969 1.379 . S
H3971 C3965 0.959 . S
H3972 C3965 0.961 . S
H3973 C3965 0.960 . S
H3974 C3966 0.930 . S
H3975 C3967 0.929 1_455 S
H3976 C3984 0.929 . S
H3977 C3986 0.930 . S
H3978 C3988 0.930 . S
H3979 C3991 0.929 . S
H3980 C3994 0.930 . S
H3981 C3996 0.960 . S
H3982 C3996 0.960 . S
H3983 C3996 0.960 . S
C3984 H3976 0.929 . S
C3984 C3985 1.377 . S
C3984 C3986 1.384 . S
C3985 C3984 1.377 . S
C3985 C3991 1.390 . S
C3986 H3977 0.930 . S
C3986 C3984 1.384 . S
C3986 C3987 1.372 . S
C3987 C3986 1.372 . S
C3987 C3988 1.400 . S
C3987 C3992 1.490 . S
C3988 H3978 0.930 . S
C3988 C3987 1.400 . S
C3988 C3991 1.386 . S
H3989 C4005 0.930 . S
H3990 C4006 0.931 . S
C3991 H3979 0.929 . S
C3991 C3985 1.390 . S
C3991 C3988 1.386 . S
C3992 C3987 1.490 . S
C3992 C3994 1.395 . S
C3992 C3995 1.403 . S
H3993 C3999 0.930 . S
C3994 H3980 0.930 . S
C3994 C3992 1.395 . S
C3994 C3997 1.403 . S
C3995 C3992 1.403 . S
C3995 C3996 1.524 . S
C3995 C3999 1.400 . S
C3996 H3981 0.960 . S
C3996 H3982 0.960 . S
C3996 H3983 0.960 . S
C3996 C3995 1.524 . S
C3997 C3994 1.403 . S
C3997 C3998 1.392 . S
C3997 C4001 1.495 . S
C3998 C3997 1.392 . S
C3998 C3999 1.385 . S
C3998 C4000 1.478 . S
C3999 H3993 0.930 . S
C3999 C3995 1.400 . S
C3999 C3998 1.385 . S
C4000 C3998 1.478 . S
C4000 C4002 1.381 . S
C4000 C4006 1.383 . S
C4001 C3997 1.495 . S
C4001 H4007 0.959 . S
C4001 H4008 0.961 . S
C4001 H4009 0.960 . S
C4002 C4000 1.381 . S
C4002 C4003 1.394 . S
C4002 H4010 0.930 . S
C4003 C4002 1.394 . S
C4003 C4004 1.383 . S
C4003 H4011 0.929 . S
C4004 C4003 1.383 . S
C4004 C4005 1.377 . S
C4005 H3989 0.930 . S
C4005 C4004 1.377 . S
C4005 C4006 1.379 . S
C4006 H3990 0.931 . S
C4006 C4000 1.383 . S
C4006 C4005 1.379 . S
H4007 C4001 0.959 . S
H4008 C4001 0.961 . S
H4009 C4001 0.960 . S
H4010 C4002 0.930 . S
H4011 C4003 0.929 . S
H4012 C4020 0.929 1_455 S
H4013 C4022 0.930 . S
H4014 C4024 0.930 . S
H4015 C4027 0.929 1_455 S
H4016 C4030 0.930 . S
H4017 C4032 0.960 . S
H4018 C4032 0.960 . S
H4019 C4032 0.960 . S
C4020 H4012 0.929 1_655 S
C4020 C4021 1.377 1_655 S
C4020 C4022 1.384 . S
C4021 C4020 1.377 1_455 S
C4021 C4027 1.390 1_455 S
C4022 H4013 0.930 . S
C4022 C4020 1.384 . S
C4022 C4023 1.372 . S
C4023 C4022 1.372 . S
C4023 C4024 1.400 . S
C4023 C4028 1.490 . S
C4024 H4014 0.930 . S
C4024 C4023 1.400 . S
C4024 C4027 1.386 . S
H4025 C4041 0.930 . S
H4026 C4042 0.931 . S
C4027 H4015 0.929 1_655 S
C4027 C4021 1.390 1_655 S
C4027 C4024 1.386 . S
C4028 C4023 1.490 . S
C4028 C4030 1.395 . S
C4028 C4031 1.403 . S
H4029 C4035 0.930 . S
C4030 H4016 0.930 . S
C4030 C4028 1.395 . S
C4030 C4033 1.403 . S
C4031 C4028 1.403 . S
C4031 C4032 1.524 . S
C4031 C4035 1.400 . S
C4032 H4017 0.960 . S
C4032 H4018 0.960 . S
C4032 H4019 0.960 . S
C4032 C4031 1.524 . S
C4033 C4030 1.403 . S
C4033 C4034 1.392 . S
C4033 C4037 1.495 . S
C4034 C4033 1.392 . S
C4034 C4035 1.385 . S
C4034 C4036 1.478 . S
C4035 H4029 0.930 . S
C4035 C4031 1.400 . S
C4035 C4034 1.385 . S
C4036 C4034 1.478 . S
C4036 C4038 1.381 . S
C4036 C4042 1.383 . S
C4037 C4033 1.495 . S
C4037 H4043 0.959 . S
C4037 H4044 0.961 . S
C4037 H4045 0.960 . S
C4038 C4036 1.381 . S
C4038 C4039 1.394 . S
C4038 H4046 0.930 . S
C4039 C4038 1.394 . S
C4039 C4040 1.383 . S
C4039 H4047 0.929 . S
C4040 C4039 1.383 . S
C4040 C4041 1.377 . S
C4041 H4025 0.930 . S
C4041 C4040 1.377 . S
C4041 C4042 1.379 . S
C4042 H4026 0.931 . S
C4042 C4036 1.383 . S
C4042 C4041 1.379 . S
H4043 C4037 0.959 . S
H4044 C4037 0.961 . S
H4045 C4037 0.960 . S
H4046 C4038 0.930 . S
H4047 C4039 0.929 . S
H4048 C4056 0.929 . S
H4049 C4058 0.930 . S
H4050 C4060 0.930 . S
H4051 C4063 0.929 . S
H4052 C4066 0.930 . S
H4053 C4068 0.960 . S
H4054 C4068 0.960 . S
H4055 C4068 0.960 . S
C4056 H4048 0.929 . S
C4056 C4057 1.377 . S
C4056 C4058 1.384 . S
C4057 C4056 1.377 . S
C4057 C4063 1.390 . S
C4058 H4049 0.930 . S
C4058 C4056 1.384 . S
C4058 C4059 1.372 . S
C4059 C4058 1.372 . S
C4059 C4060 1.400 . S
C4059 C4064 1.490 . S
C4060 H4050 0.930 . S
C4060 C4059 1.400 . S
C4060 C4063 1.386 . S
H4061 C4077 0.930 . S
H4062 C4078 0.931 . S
C4063 H4051 0.929 . S
C4063 C4057 1.390 . S
C4063 C4060 1.386 . S
C4064 C4059 1.490 . S
C4064 C4066 1.395 . S
C4064 C4067 1.403 . S
H4065 C4071 0.930 . S
C4066 H4052 0.930 . S
C4066 C4064 1.395 . S
C4066 C4069 1.403 . S
C4067 C4064 1.403 . S
C4067 C4068 1.524 . S
C4067 C4071 1.400 . S
C4068 H4053 0.960 . S
C4068 H4054 0.960 . S
C4068 H4055 0.960 . S
C4068 C4067 1.524 . S
C4069 C4066 1.403 . S
C4069 C4070 1.392 . S
C4069 C4073 1.495 . S
C4070 C4069 1.392 . S
C4070 C4071 1.385 . S
C4070 C4072 1.478 . S
C4071 H4065 0.930 . S
C4071 C4067 1.400 . S
C4071 C4070 1.385 . S
C4072 C4070 1.478 . S
C4072 C4074 1.381 . S
C4072 C4078 1.383 . S
C4073 C4069 1.495 . S
C4073 H4079 0.959 . S
C4073 H4080 0.961 . S
C4073 H4081 0.960 . S
C4074 C4072 1.381 . S
C4074 C4075 1.394 . S
C4074 H4082 0.930 . S
C4075 C4074 1.394 . S
C4075 C4076 1.383 . S
C4075 H4083 0.929 . S
C4076 C4075 1.383 . S
C4076 C4077 1.377 . S
C4077 H4061 0.930 . S
C4077 C4076 1.377 . S
C4077 C4078 1.379 . S
C4078 H4062 0.931 . S
C4078 C4072 1.383 . S
C4078 C4077 1.379 . S
H4079 C4073 0.959 . S
H4080 C4073 0.961 . S
H4081 C4073 0.960 . S
H4082 C4074 0.930 . S
H4083 C4075 0.929 . S
H4084 C4092 0.929 1_655 S
H4085 C4094 0.930 . S
H4086 C4096 0.930 . S
H4087 C4099 0.929 . S
H4088 C4102 0.930 . S
H4089 C4104 0.960 . S
H4090 C4104 0.960 . S
H4091 C4104 0.960 . S
C4092 H4084 0.929 1_455 S
C4092 C4093 1.377 1_455 S
C4092 C4094 1.384 . S
C4093 C4092 1.377 1_655 S
C4093 C4099 1.390 1_655 S
C4094 H4085 0.930 . S
C4094 C4092 1.384 . S
C4094 C4095 1.372 . S
C4095 C4094 1.372 . S
C4095 C4096 1.400 . S
C4095 C4100 1.490 . S
C4096 H4086 0.930 . S
C4096 C4095 1.400 . S
C4096 C4099 1.386 . S
H4097 C4113 0.930 . S
H4098 C4114 0.931 . S
C4099 H4087 0.929 . S
C4099 C4093 1.390 1_455 S
C4099 C4096 1.386 . S
C4100 C4095 1.490 . S
C4100 C4102 1.395 . S
C4100 C4103 1.403 . S
H4101 C4107 0.930 . S
C4102 H4088 0.930 . S
C4102 C4100 1.395 . S
C4102 C4105 1.403 . S
C4103 C4100 1.403 . S
C4103 C4104 1.524 . S
C4103 C4107 1.400 . S
C4104 H4089 0.960 . S
C4104 H4090 0.960 . S
C4104 H4091 0.960 . S
C4104 C4103 1.524 . S
C4105 C4102 1.403 . S
C4105 C4106 1.392 . S
C4105 C4109 1.495 . S
C4106 C4105 1.392 . S
C4106 C4107 1.385 . S
C4106 C4108 1.478 . S
C4107 H4101 0.930 . S
C4107 C4103 1.400 . S
C4107 C4106 1.385 . S
C4108 C4106 1.478 . S
C4108 C4110 1.381 . S
C4108 C4114 1.383 . S
C4109 C4105 1.495 . S
C4109 H4115 0.959 . S
C4109 H4116 0.961 . S
C4109 H4117 0.960 . S
C4110 C4108 1.381 . S
C4110 C4111 1.394 . S
C4110 H4118 0.930 . S
C4111 C4110 1.394 . S
C4111 C4112 1.383 . S
C4111 H4119 0.929 . S
C4112 C4111 1.383 . S
C4112 C4113 1.377 . S
C4113 H4097 0.930 . S
C4113 C4112 1.377 . S
C4113 C4114 1.379 . S
C4114 H4098 0.931 . S
C4114 C4108 1.383 . S
C4114 C4113 1.379 . S
H4115 C4109 0.959 . S
H4116 C4109 0.961 . S
H4117 C4109 0.960 . S
H4118 C4110 0.930 . S
H4119 C4111 0.929 . S
H4120 C4128 0.929 . S
H4121 C4130 0.930 . S
H4122 C4132 0.930 . S
H4123 C4135 0.929 . S
H4124 C4138 0.930 . S
H4125 C4140 0.960 . S
H4126 C4140 0.960 . S
H4127 C4140 0.960 . S
C4128 H4120 0.929 . S
C4128 C4129 1.377 . S
C4128 C4130 1.384 . S
C4129 C4128 1.377 . S
C4129 C4135 1.390 . S
C4130 H4121 0.930 . S
C4130 C4128 1.384 . S
C4130 C4131 1.372 . S
C4131 C4130 1.372 . S
C4131 C4132 1.400 . S
C4131 C4136 1.490 . S
C4132 H4122 0.930 . S
C4132 C4131 1.400 . S
C4132 C4135 1.386 . S
H4133 C4149 0.930 . S
H4134 C4150 0.931 . S
C4135 H4123 0.929 . S
C4135 C4129 1.390 . S
C4135 C4132 1.386 . S
C4136 C4131 1.490 . S
C4136 C4138 1.395 . S
C4136 C4139 1.403 . S
H4137 C4143 0.930 . S
C4138 H4124 0.930 . S
C4138 C4136 1.395 . S
C4138 C4141 1.403 . S
C4139 C4136 1.403 . S
C4139 C4140 1.524 . S
C4139 C4143 1.400 . S
C4140 H4125 0.960 . S
C4140 H4126 0.960 . S
C4140 H4127 0.960 . S
C4140 C4139 1.524 . S
C4141 C4138 1.403 . S
C4141 C4142 1.392 . S
C4141 C4145 1.495 . S
C4142 C4141 1.392 . S
C4142 C4143 1.385 . S
C4142 C4144 1.478 . S
C4143 H4137 0.930 . S
C4143 C4139 1.400 . S
C4143 C4142 1.385 . S
C4144 C4142 1.478 . S
C4144 C4146 1.381 . S
C4144 C4150 1.383 . S
C4145 C4141 1.495 . S
C4145 H4151 0.959 . S
C4145 H4152 0.961 . S
C4145 H4153 0.960 . S
C4146 C4144 1.381 . S
C4146 C4147 1.394 . S
C4146 H4154 0.930 . S
C4147 C4146 1.394 . S
C4147 C4148 1.383 . S
C4147 H4155 0.929 . S
C4148 C4147 1.383 . S
C4148 C4149 1.377 . S
C4149 H4133 0.930 . S
C4149 C4148 1.377 . S
C4149 C4150 1.379 . S
C4150 H4134 0.931 . S
C4150 C4144 1.383 . S
C4150 C4149 1.379 . S
H4151 C4145 0.959 . S
H4152 C4145 0.961 . S
H4153 C4145 0.960 . S
H4154 C4146 0.930 . S
H4155 C4147 0.929 . S
H4156 C4164 0.928 1_655 S
H4157 C4166 0.930 . S
H4158 C4168 0.930 . S
H4159 C4171 0.929 1_655 S
H4160 C4174 0.930 . S
H4161 C4176 0.960 . S
H4162 C4176 0.960 . S
H4163 C4176 0.960 . S
C4164 H4156 0.928 1_455 S
C4164 C4165 1.377 1_455 S
C4164 C4166 1.384 . S
C4165 C4164 1.377 1_655 S
C4165 C4171 1.390 1_655 S
C4166 H4157 0.930 . S
C4166 C4164 1.384 . S
C4166 C4167 1.372 . S
C4167 C4166 1.372 . S
C4167 C4168 1.400 . S
C4167 C4172 1.490 . S
C4168 H4158 0.930 . S
C4168 C4167 1.400 . S
C4168 C4171 1.386 . S
H4169 C4185 0.930 . S
H4170 C4186 0.931 . S
C4171 H4159 0.929 1_455 S
C4171 C4165 1.390 1_455 S
C4171 C4168 1.386 . S
C4172 C4167 1.490 . S
C4172 C4174 1.395 . S
C4172 C4175 1.403 . S
H4173 C4179 0.930 . S
C4174 H4160 0.930 . S
C4174 C4172 1.395 . S
C4174 C4177 1.403 . S
C4175 C4172 1.403 . S
C4175 C4176 1.524 . S
C4175 C4179 1.400 . S
C4176 H4161 0.960 . S
C4176 H4162 0.960 . S
C4176 H4163 0.960 . S
C4176 C4175 1.524 . S
C4177 C4174 1.403 . S
C4177 C4178 1.392 . S
C4177 C4181 1.495 . S
C4178 C4177 1.392 . S
C4178 C4179 1.385 . S
C4178 C4180 1.478 . S
C4179 H4173 0.930 . S
C4179 C4175 1.400 . S
C4179 C4178 1.385 . S
C4180 C4178 1.478 . S
C4180 C4182 1.381 . S
C4180 C4186 1.383 . S
C4181 C4177 1.495 . S
C4181 H4187 0.959 . S
C4181 H4188 0.961 . S
C4181 H4189 0.960 . S
C4182 C4180 1.381 . S
C4182 C4183 1.394 . S
C4182 H4190 0.930 . S
C4183 C4182 1.394 . S
C4183 C4184 1.383 . S
C4183 H4191 0.929 . S
C4184 C4183 1.383 . S
C4184 C4185 1.377 . S
C4185 H4169 0.930 . S
C4185 C4184 1.377 . S
C4185 C4186 1.379 . S
C4186 H4170 0.931 . S
C4186 C4180 1.383 . S
C4186 C4185 1.379 . S
H4187 C4181 0.959 . S
H4188 C4181 0.961 . S
H4189 C4181 0.960 . S
H4190 C4182 0.930 . S
H4191 C4183 0.929 . S
C1897 C3 0.869 . S
C1916 C180 0.853 . S
C1933 C121 0.865 . S
C1952 C62 0.839 . S
C1969 C239 0.863 . S
C1988 C416 0.859 . S
C2005 C357 0.863 . S
C2024 C298 0.860 . S
C2041 C475 0.865 . S
C2060 C652 0.839 . S
C2077 C593 0.874 . S
C2096 C534 0.898 . S
C2113 C711 0.875 . S
C2132 C888 0.843 . S
C2149 C770 0.875 . S
C2168 C829 0.881 . S
C2185 C1124 0.862 . S
C2204 C947 0.839 . S
C2221 C1006 0.870 . S
C2240 C1065 0.858 . S
C2257 C1183 0.865 . S
C2276 C1360 0.898 . S
C2293 C1301 0.873 . S
C2312 C1242 0.836 . S
C2329 C1419 0.867 . S
C2348 C1596 0.845 . S
C2365 C1537 0.866 . S
C2384 C1478 0.869 . S
C2401 C1655 0.876 . S
C2420 C1832 0.873 . S
C2437 C1714 0.863 . S
C2456 C1773 0.860 . S
C2473 C713 1.559 . S
C2492 C5 1.557 . S
C2509 C64 1.559 . S
C2528 C1244 1.558 . S
C2545 C123 1.559 . S
C2564 C359 1.555 . S
C2581 C1834 1.560 . S
C2600 C182 1.552 . S
C2617 C241 1.558 . S
C2636 C477 1.554 . S
C2653 C1008 1.560 . S
C2672 C300 1.552 . S
C2689 C1598 1.559 . S
C2708 C418 1.560 . S
C2725 C1716 1.561 . S
C2744 C536 1.562 . S
C2761 C831 1.561 . S
C2780 C595 1.563 . S
C2797 C1362 1.561 . S
C2816 C654 1.563 . S
C2833 C772 1.561 . S
C2852 C1480 1.561 . S
C2869 C1126 1.559 . S
C2888 C890 1.553 . S
C2905 C1657 1.561 . S
C2924 C949 1.560 . S
C2941 C1303 1.560 . S
C2960 C1067 1.551 . S
C2977 C1421 1.560 . S
C2996 C1185 1.552 . S
C3013 C1539 1.559 . S
C3032 C1775 1.550 . S
C3049 C623 1.638 . S
C3068 C33 1.623 . S
C3085 C92 1.638 . S
C3104 C682 1.622 . S
C3121 C505 1.638 . S
C3140 C151 1.623 . S
C3157 C564 1.644 . S
C3176 C210 1.653 . S
C3193 C269 1.640 . S
C3212 C859 1.628 . S
C3229 C328 1.643 . S
C3248 C918 1.622 . S
C3265 C741 1.643 . S
C3284 C387 1.645 . S
C3301 C446 1.642 . S
C3320 C800 1.647 . S
C3337 C1567 1.644 . S
C3356 C977 1.652 . S
C3373 C1626 1.639 . S
C3392 C1036 1.627 . S
C3409 C1095 1.638 . S
C3428 C1449 1.623 . S
C3445 C1154 1.644 . S
C3464 C1508 1.653 . S
C3481 C1213 1.644 . S
C3500 C1803 1.631 . S
C3517 C1272 1.642 . S
C3536 C1862 1.624 . S
C3553 C1685 1.638 . S
C3572 C1331 1.643 . S
C3589 C1744 1.638 . S
C3608 C1390 1.646 . S
C3625 C52 1.656 . S
C3644 C1527 1.658 . S
C3661 C1468 1.653 . S
C3680 C111 1.648 . S
C3697 C170 1.656 . S
C3716 C1645 1.654 . S
C3733 C229 1.656 . S
C3752 C1586 1.655 . S
C3769 C288 1.656 . S
C3788 C1763 1.648 . S
C3805 C347 1.656 . S
C3824 C1704 1.645 . S
C3841 C1881 1.654 . S
C3860 C406 1.651 . S
C3877 C1822 1.654 . S
C3896 C465 1.655 . S
C3913 C1055 1.656 . S
C3932 C524 1.654 . S
C3949 C996 1.653 . S
C3968 C583 1.644 . S
C3985 C642 1.654 . S
C4004 C1173 1.651 . S
C4021 C701 1.656 . S
C4040 C1114 1.657 . S
C4057 C1291 1.656 . S
C4076 C760 1.646 . S
C4093 C819 1.656 . S
C4112 C1232 1.646 . S
C4129 C878 1.654 . S
C4148 C1409 1.655 . S
C4165 C937 1.654 . S
C4184 C1350 1.657 . S
