# Generated by pormake.
# Topology vby, (6)-cn, num edge types: 1
# Building blocks:
#     Node 0, Type 0, BuildingBlock: BETGAK_clean_sbu_0, # of connection points: 6
#     Node 1, Type 0, BuildingBlock: BETGAK_clean_sbu_0, # of connection points: 6
#     Node 2, Type 0, BuildingBlock: BETGAK_clean_sbu_0, # of connection points: 6
#     Node 3, Type 0, BuildingBlock: BETGAK_clean_sbu_0, # of connection points: 6
#     Node 4, Type 0, BuildingBlock: BETGAK_clean_sbu_0, # of connection points: 6
#     Node 5, Type 0, BuildingBlock: BETGAK_clean_sbu_0, # of connection points: 6
#     Node 6, Type 0, BuildingBlock: BETGAK_clean_sbu_0, # of connection points: 6
#     Node 7, Type 0, BuildingBlock: BETGAK_clean_sbu_0, # of connection points: 6
#     Edge 8, Type (0, 0), BuildingBlock: UVAHIK_clean_linker_0, # of connection points: 2
#     Edge 9, Type (0, 0), BuildingBlock: UVAHIK_clean_linker_0, # of connection points: 2
#     Edge 10, Type (0, 0), BuildingBlock: UVAHIK_clean_linker_0, # of connection points: 2
#     Edge 11, Type (0, 0), BuildingBlock: UVAHIK_clean_linker_0, # of connection points: 2
#     Edge 12, Type (0, 0), BuildingBlock: UVAHIK_clean_linker_0, # of connection points: 2
#     Edge 13, Type (0, 0), BuildingBlock: UVAHIK_clean_linker_0, # of connection points: 2
#     Edge 14, Type (0, 0), BuildingBlock: UVAHIK_clean_linker_0, # of connection points: 2
#     Edge 15, Type (0, 0), BuildingBlock: UVAHIK_clean_linker_0, # of connection points: 2
#     Edge 16, Type (0, 0), BuildingBlock: UVAHIK_clean_linker_0, # of connection points: 2
#     Edge 17, Type (0, 0), BuildingBlock: UVAHIK_clean_linker_0, # of connection points: 2
#     Edge 18, Type (0, 0), BuildingBlock: UVAHIK_clean_linker_0, # of connection points: 2
#     Edge 19, Type (0, 0), BuildingBlock: UVAHIK_clean_linker_0, # of connection points: 2
#     Edge 20, Type (0, 0), BuildingBlock: UVAHIK_clean_linker_0, # of connection points: 2
#     Edge 21, Type (0, 0), BuildingBlock: UVAHIK_clean_linker_0, # of connection points: 2
#     Edge 22, Type (0, 0), BuildingBlock: UVAHIK_clean_linker_0, # of connection points: 2
#     Edge 23, Type (0, 0), BuildingBlock: UVAHIK_clean_linker_0, # of connection points: 2
#     Edge 24, Type (0, 0), BuildingBlock: UVAHIK_clean_linker_0, # of connection points: 2
#     Edge 25, Type (0, 0), BuildingBlock: UVAHIK_clean_linker_0, # of connection points: 2
#     Edge 26, Type (0, 0), BuildingBlock: UVAHIK_clean_linker_0, # of connection points: 2
#     Edge 27, Type (0, 0), BuildingBlock: UVAHIK_clean_linker_0, # of connection points: 2
#     Edge 28, Type (0, 0), BuildingBlock: UVAHIK_clean_linker_0, # of connection points: 2
#     Edge 29, Type (0, 0), BuildingBlock: UVAHIK_clean_linker_0, # of connection points: 2
#     Edge 30, Type (0, 0), BuildingBlock: UVAHIK_clean_linker_0, # of connection points: 2
#     Edge 31, Type (0, 0), BuildingBlock: UVAHIK_clean_linker_0, # of connection points: 2
# Relax obj value: 0.189
# Max RMSD: 0.207
# Mean RMSD: 0.207
data_MOF--net-vby--node1-BETGAK_clean_sbu_0--edge1-UVAHIK_clean_linker_0
_symmetry_space_group_name_H-M    P1
_symmetry_Int_Tables_number       1
_symmetry_cell_setting            triclinic
loop_
_symmetry_equiv_pos_as_xyz
'x, y, z'
_cell_length_a     19.934456
_cell_length_b     119.97371
_cell_length_c     37.810247
_cell_angle_alpha  90.249982
_cell_angle_beta   86.14508
_cell_angle_gamma 90.341673
loop_
_atom_site_label
_atom_site_type_symbol
_atom_site_fract_x
_atom_site_fract_y
_atom_site_fract_z
_atom_type_partial_charge
La0 La 0.06405 0.40535 0.0259 0.0
La1 La 0.05548 0.38059 0.02656 0.0
C2 C 0.05356 0.42611 0.01969 0.0
C3 C 0.04601 0.4384 0.01746 0.0
C4 C 1.01398 0.44431 0.04594 0.0
C5 C 1.01023 0.45594 0.04532 0.0
C6 C 0.03849 0.46202 0.01621 0.0
C7 C 0.06975 0.45608 0.98743 0.0
C8 C 0.07335 0.4444 0.98802 0.0
C9 C 0.07604 0.39587 0.08817 0.0
C10 C 0.92219 0.39332 0.02976 0.0
C11 C 0.06307 0.36009 0.0415 0.0
C12 C 0.10532 0.34995 0.03736 0.0
C13 C 0.11821 0.34472 1.00424 0.0
C14 C 0.14879 0.33422 1.00186 0.0
C15 C 0.16691 0.32867 0.03253 0.0
C16 C 0.15636 0.33414 0.06543 0.0
C17 C 0.12582 0.34462 0.06779 0.0
C18 C 0.04252 0.38956 0.96376 0.0
C19 C 0.19991 0.39278 0.01876 0.0
O20 O 1.03325 0.42064 0.04827 0.0
O21 O 0.07888 0.4198 0.99378 0.0
O22 O 0.11091 0.40436 0.0765 0.0
O23 O 0.03536 0.39314 0.0656 0.0
O24 O 0.95819 0.40183 0.01657 0.0
O25 O 0.95193 0.38455 0.04255 0.0
O26 O 0.036 0.36393 0.01346 0.0
O27 O 0.08281 0.36812 0.06202 0.0
O28 O 1.01233 0.38055 0.97502 0.0
O29 O 0.08255 0.39275 0.98623 0.0
O30 O 0.16495 0.38347 0.02514 0.0
O31 O 0.17026 0.40245 0.0144 0.0
H32 H 0.99262 0.43996 0.06912 0.0
H33 H 0.98665 0.46019 0.06819 0.0
H34 H 0.09142 0.46047 0.96439 0.0
H35 H 0.09844 0.44009 0.96569 0.0
H36 H 0.10255 0.34854 0.98025 0.0
H37 H 0.15555 0.33025 0.9761 0.0
H38 H 0.17067 0.33024 0.08954 0.0
H39 H 0.1161 0.3484 0.0937 0.0
La40 La 1.01467 0.66418 0.02678 0.0
La41 La 1.00588 0.63945 0.02826 0.0
C42 C 1.00666 0.68462 0.01115 0.0
C43 C 0.96455 0.69478 0.01555 0.0
C44 C 0.95747 0.70056 0.04805 0.0
C45 C 0.92682 0.71106 0.05024 0.0
C46 C 0.90278 0.71607 0.01997 0.0
C47 C 0.90766 0.71007 0.98783 0.0
C48 C 0.93832 0.69959 0.98565 0.0
C49 C 1.0282 0.65548 0.08988 0.0
C50 C 0.87014 0.65203 0.03576 0.0
C51 C 1.01646 0.61869 0.03458 0.0
C52 C 1.02409 0.60641 0.03688 0.0
C53 C 0.05614 0.60049 1.00843 0.0
C54 C 0.05993 0.58886 1.0091 0.0
C55 C 1.03168 0.58279 0.03824 0.0
C56 C 1.00041 0.58874 0.06699 0.0
C57 C 0.99677 0.60042 0.06634 0.0
C58 C 0.99234 0.64882 0.96594 0.0
C59 C 0.14782 0.65143 0.02371 0.0
O60 O 0.03527 0.68089 0.03884 0.0
O61 O 0.98578 0.67651 0.99127 0.0
O62 O 0.05812 0.66446 0.07821 0.0
O63 O 0.98803 0.65215 0.06767 0.0
O64 O 0.90507 0.66132 0.02885 0.0
O65 O 0.89987 0.64238 0.04036 0.0
O66 O 0.03665 0.62415 1.00595 0.0
O67 O 0.99123 0.62502 0.06048 0.0
O68 O 0.95738 0.64039 0.9781 0.0
O69 O 1.03399 0.65152 0.98803 0.0
O70 O 0.11177 0.643 0.03734 0.0
O71 O 0.11808 0.66015 0.01059 0.0
H72 H 0.97772 0.69718 0.07159 0.0
H73 H 0.92462 0.71544 0.07538 0.0
H74 H 0.88877 0.71355 0.96409 0.0
H75 H 0.94354 0.6954 0.96017 0.0
H76 H 0.07747 0.60483 0.98522 0.0
H77 H 0.08352 0.5846 0.98625 0.0
H78 H 0.97875 0.58436 0.09005 0.0
H79 H 0.97166 0.60474 0.08865 0.0
La80 La 0.05364 0.66485 0.52728 0.0
La81 La 0.06115 0.64013 0.52609 0.0
C82 C 0.06186 0.68534 0.54285 0.0
C83 C 0.10452 0.69547 0.53891 0.0
C84 C 0.13079 0.69924 0.5056 0.0
C85 C 0.16259 0.70968 0.50229 0.0
C86 C 0.16882 0.71659 0.53216 0.0
C87 C 0.14458 0.71257 0.56558 0.0
C88 C 0.11279 0.70216 0.56885 0.0
C89 C 0.0384 0.65593 0.4645 0.0
C90 C 0.19751 0.65278 0.51829 0.0
C91 C 0.05029 0.61933 0.52023 0.0
C92 C 0.04244 0.60703 0.5182 0.0
C93 C 1.00925 0.60123 0.54654 0.0
C94 C 1.00665 0.58958 0.5466 0.0
C95 C 0.03735 0.58338 0.51836 0.0
C96 C 0.0689 0.5892 0.48945 0.0
C97 C 0.07146 0.6009 0.4894 0.0
C98 C 0.07467 0.64975 0.58844 0.0
C99 C 0.91976 0.65201 0.5305 0.0
O100 O 0.03498 0.68149 0.51461 0.0
O101 O 0.08142 0.67733 0.56313 0.0
O102 O 1.0089 0.6649 0.47627 0.0
O103 O 0.07914 0.65268 0.48638 0.0
O104 O 0.16313 0.66208 0.52512 0.0
O105 O 0.16723 0.6431 0.51389 0.0
O106 O 1.02956 0.62491 0.5486 0.0
O107 O 0.07594 0.62556 0.49425 0.0
O108 O 0.10934 0.64131 0.57641 0.0
O109 O 1.03354 0.65233 0.56612 0.0
O110 O 0.95532 0.64353 0.51702 0.0
O111 O 0.95001 0.66079 0.54348 0.0
H112 H 0.12518 0.69427 0.482 0.0
H113 H 0.18153 0.71241 0.47622 0.0
H114 H 0.14762 0.71767 0.58913 0.0
H115 H 0.09236 0.6995 0.59475 0.0
H116 H 0.98608 0.60569 0.56911 0.0
H117 H 0.98071 0.58542 0.56897 0.0
H118 H 0.09347 0.58471 0.46734 0.0
H119 H 0.09767 0.60513 0.46725 0.0
La120 La 1.01007 0.40581 0.52795 0.0
La121 La 1.01797 0.38113 0.52644 0.0
C122 C 1.02094 0.42661 0.53402 0.0
C123 C 1.02882 0.4389 0.53613 0.0
C124 C 0.06192 0.44472 0.50781 0.0
C125 C 0.0645 0.45637 0.50783 0.0
C126 C 1.03386 0.46256 0.53613 0.0
C127 C 1.00243 0.45672 0.56503 0.0
C128 C 0.99989 0.44501 0.56501 0.0
C129 C 0.99495 0.39633 0.46568 0.0
C130 C 0.1517 0.39399 0.5226 0.0
C131 C 1.00941 0.36061 0.5112 0.0
C132 C 0.96666 0.35045 0.51529 0.0
C133 C 0.95677 0.34493 0.54802 0.0
C134 C 0.9257 0.33441 0.55011 0.0
C135 C 0.90404 0.32912 0.51953 0.0
C136 C 0.91163 0.33487 0.4871 0.0
C137 C 0.94271 0.34537 0.48502 0.0
C138 C 1.03414 0.39006 0.58921 0.0
C139 C 0.87391 0.39313 0.53608 0.0
O140 O 0.04117 0.42106 0.50549 0.0
O141 O 0.99578 0.42034 0.56003 0.0
O142 O 0.96043 0.40472 0.47815 0.0
O143 O 0.03692 0.39367 0.48749 0.0
O144 O 0.11621 0.40244 0.53637 0.0
O145 O 0.12132 0.38521 0.50968 0.0
O146 O 0.03683 0.36449 0.53923 0.0
O147 O 0.98998 0.3686 0.49083 0.0
O148 O 0.06395 0.38114 0.57718 0.0
O149 O 0.99279 0.39321 0.56756 0.0
O150 O 0.9084 0.38386 0.52891 0.0
O151 O 0.90415 0.4028 0.54065 0.0
H152 H 0.08503 0.44028 0.48519 0.0
H153 H 0.09037 0.46054 0.48547 0.0
H154 H 0.97791 0.46119 0.58718 0.0
H155 H 0.97376 0.44077 0.58714 0.0
H156 H 0.97519 0.34853 0.57185 0.0
H157 H 0.92136 0.33023 0.57548 0.0
H158 H 0.89459 0.33116 0.4631 0.0
H159 H 0.95011 0.34935 0.45939 0.0
La160 La 0.56901 0.90691 0.02655 0.0
La161 La 0.55932 0.88237 0.03199 0.0
C162 C 0.55993 0.92759 0.01754 0.0
C163 C 0.55413 0.93989 0.01481 0.0
C164 C 0.54189 0.94628 0.04577 0.0
C165 C 0.53913 0.9579 0.04425 0.0
C166 C 0.54812 0.96352 0.01166 0.0
C167 C 0.56018 0.95711 0.98055 0.0
C168 C 0.56322 0.94541 0.98212 0.0
C169 C 0.58407 0.89876 0.09054 0.0
C170 C 0.4266 0.89519 0.03441 0.0
C171 C 0.56694 0.86211 0.04989 0.0
C172 C 0.60758 0.85181 0.04502 0.0
C173 C 0.6141 0.84616 0.01228 0.0
C174 C 0.64373 0.83559 0.00967 0.0
C175 C 0.66731 0.83038 0.03974 0.0
C176 C 0.66299 0.83626 0.07212 0.0
C177 C 0.63334 0.84681 0.07472 0.0
C178 C 0.54488 0.8901 0.96754 0.0
C179 C 0.70433 0.8942 0.02042 0.0
O180 O 0.54185 0.92251 0.04717 0.0
O181 O 0.58162 0.92089 0.9918 0.0
O182 O 0.6188 0.90688 0.07616 0.0
O183 O 0.54172 0.89553 0.06935 0.0
O184 O 0.46254 0.90335 0.01902 0.0
O185 O 0.45663 0.88673 0.04882 0.0
O186 O 0.53488 0.86562 0.02306 0.0
O187 O 0.59149 0.87038 0.0678 0.0
O188 O 0.51438 0.88141 0.98095 0.0
O189 O 0.58594 0.89366 0.98893 0.0
O190 O 0.66903 0.88507 0.02902 0.0
O191 O 0.67484 0.90376 0.01425 0.0
H192 H 0.53548 0.94232 0.07148 0.0
H193 H 0.53129 0.96249 0.06889 0.0
H194 H 0.56681 0.96111 0.95493 0.0
H195 H 0.57292 0.94071 0.95782 0.0
H196 H 0.59429 0.84972 0.98889 0.0
H197 H 0.64557 0.8313 0.98436 0.0
H198 H 0.68162 0.83263 0.09571 0.0
H199 H 0.62859 0.85092 0.10034 0.0
La200 La 0.5039 0.16264 0.02391 0.0
La201 La 0.49017 0.13825 0.03766 0.0
C202 C 0.49937 0.18237 1.0007 0.0
C203 C 0.46033 0.19285 1.0045 0.0
C204 C 0.446 0.19795 0.0377 0.0
C205 C 0.4172 0.20859 0.04003 0.0
C206 C 0.4021 0.21438 1.00924 0.0
C207 C 0.41421 0.20904 0.9762 0.0
C208 C 0.44311 0.19843 0.9739 0.0
C209 C 0.51279 0.15679 0.0909 0.0
C210 C 0.35856 0.15195 0.03942 0.0
C211 C 0.49116 0.11849 0.06102 0.0
C212 C 0.51537 0.10705 0.05322 0.0
C213 C 0.51934 0.10262 0.01865 0.0
C214 C 0.53094 0.09119 0.01296 0.0
C215 C 0.53824 0.08399 0.04176 0.0
C216 C 0.53757 0.0886 0.07607 0.0
C217 C 0.52624 0.09999 0.08169 0.0
C218 C 0.48551 0.14396 0.96997 0.0
C219 C 0.63582 0.14917 0.02419 0.0
O220 O 0.53322 0.17938 0.02748 0.0
O221 O 0.47167 0.17383 0.98557 0.0
O222 O 0.54485 0.16504 0.07573 0.0
O223 O 0.47299 0.15272 0.06981 0.0
O224 O 0.39448 0.16003 0.02353 0.0
O225 O 0.38848 0.14351 0.05408 0.0
O226 O 0.44618 0.12238 0.04085 0.0
O227 O 0.53465 0.12614 0.06914 0.0
O228 O 0.45532 0.13543 0.9845 0.0
O229 O 0.52256 0.14815 0.9921 0.0
O230 O 0.59934 0.14108 0.03984 0.0
O231 O 0.60661 0.15762 1.00911 0.0
H232 H 0.45889 0.19388 0.06182 0.0
H233 H 0.40919 0.21244 0.06592 0.0
H234 H 0.40212 0.21312 0.95196 0.0
H235 H 0.45379 0.1947 0.94799 0.0
H236 H 0.5108 0.10789 0.99622 0.0
H237 H 0.53095 0.08792 0.98622 0.0
H238 H 0.54422 0.08335 0.09878 0.0
H239 H 0.5232 0.1032 0.10858 0.0
La240 La 0.55618 0.16253 0.53206 0.0
La241 La 0.5644 0.13799 0.52606 0.0
C242 C 0.56491 0.18278 0.55059 0.0
C243 C 0.60593 0.1931 0.54587 0.0
C244 C 0.61513 0.19846 0.51285 0.0
C245 C 0.64503 0.20906 0.51021 0.0
C246 C 0.66623 0.21458 0.54052 0.0
C247 C 0.65934 0.20899 0.57323 0.0
C248 C 0.62941 0.19841 0.57586 0.0
C249 C 0.54007 0.15485 0.46763 0.0
C250 C 0.70045 0.15075 0.51975 0.0
C251 C 0.55443 0.1173 0.51664 0.0
C252 C 0.54785 0.105 0.51336 0.0
C253 C 0.53223 0.09857 0.54382 0.0
C254 C 0.52928 0.08695 0.5418 0.0
C255 C 0.54155 0.08137 0.50922 0.0
C256 C 0.55681 0.08782 0.4786 0.0
C257 C 0.55998 0.09951 0.48066 0.0
C258 C 0.5805 0.14625 0.59014 0.0
C259 C 0.4227 0.14965 0.53437 0.0
O260 O 0.53241 0.17927 0.52375 0.0
O261 O 0.58938 0.17452 0.56815 0.0
O262 O 0.51045 0.16354 0.4814 0.0
O263 O 0.5814 0.15122 0.48858 0.0
O264 O 0.66581 0.15988 0.52859 0.0
O265 O 0.67028 0.14118 0.51355 0.0
O266 O 0.53613 0.12238 0.54633 0.0
O267 O 0.57674 0.124 0.49113 0.0
O268 O 0.61462 0.13811 0.57563 0.0
O269 O 0.53811 0.14937 0.56906 0.0
O270 O 0.45809 0.1415 0.51875 0.0
O271 O 0.45331 0.15812 0.54897 0.0
H272 H 0.59719 0.19465 0.48922 0.0
H273 H 0.64894 0.21312 0.48463 0.0
H274 H 0.67612 0.21286 0.59703 0.0
H275 H 0.62261 0.19452 0.60167 0.0
H276 H 0.52336 0.10251 0.56953 0.0
H277 H 0.51878 0.08232 0.5661 0.0
H278 H 0.56592 0.08385 0.45297 0.0
H279 H 0.57232 0.10424 0.45674 0.0
La280 La 0.49657 0.90695 0.53903 0.0
La281 La 0.50893 0.88267 0.52324 0.0
C282 C 0.49888 0.92659 0.56405 0.0
C283 C 0.51975 0.93815 0.55549 0.0
C284 C 0.52581 0.94208 0.52044 0.0
C285 C 0.53507 0.95351 0.51364 0.0
C286 C 0.5378 0.9612 0.54178 0.0
C287 C 0.53471 0.95712 0.57669 0.0
C288 C 0.52581 0.94573 0.58342 0.0
C289 C 0.49159 0.90171 0.47082 0.0
C290 C 0.64136 0.8961 0.52489 0.0
C291 C 0.50378 0.86304 0.49851 0.0
C292 C 0.46436 0.85257 0.50203 0.0
C293 C 0.4373 0.84874 0.53509 0.0
C294 C 0.40742 0.83814 0.53816 0.0
C295 C 0.4038 0.83117 0.50825 0.0
C296 C 0.42901 0.83523 0.47505 0.0
C297 C 0.459 0.84579 0.47204 0.0
C298 C 0.51949 0.88817 0.59059 0.0
C299 C 0.36424 0.89317 0.54005 0.0
O300 O 0.45034 0.92248 0.5464 0.0
O301 O 0.54541 0.9192 0.56871 0.0
O302 O 0.46255 0.91021 0.48604 0.0
O303 O 0.52809 0.89732 0.49256 0.0
O304 O 0.60527 0.90397 0.54181 0.0
O305 O 0.61162 0.88786 0.50851 0.0
O306 O 0.53791 0.86594 0.52543 0.0
O307 O 0.4758 0.87162 0.48426 0.0
O308 O 0.55106 0.88004 0.57456 0.0
O309 O 0.47925 0.8923 0.5701 0.0
O310 O 0.39961 0.88521 0.52338 0.0
O311 O 0.39477 0.90153 0.55534 0.0
H312 H 0.52087 0.93638 0.49845 0.0
H313 H 0.53698 0.95637 0.48647 0.0
H314 H 0.53776 0.96277 0.59895 0.0
H315 H 0.52108 0.94289 0.61065 0.0
H316 H 0.44068 0.85383 0.55866 0.0
H317 H 0.38768 0.83537 0.56404 0.0
H318 H 0.42789 0.83008 0.45151 0.0
H319 H 0.47996 0.84854 0.44633 0.0
C320 C 0.31259 0.40197 1.00736 0.0
C321 C 0.27443 0.39243 0.01709 0.0
C322 C 0.38266 0.40188 1.00765 0.0
C323 C 0.52037 0.38754 0.04851 0.0
H324 H 0.63282 0.40157 0.97354 0.0
C325 C 0.8098 0.38402 0.04037 0.0
C326 C 0.8479 0.39341 0.02924 0.0
C327 C 0.73997 0.38389 0.03874 0.0
C328 C 0.60215 0.39774 0.99494 0.0
H329 H 0.2804 0.37525 0.03424 0.0
H330 H 0.4028 0.37511 0.03465 0.0
H331 H 0.51109 0.40116 0.97007 0.0
H332 H 0.84217 0.41013 1.00803 0.0
H333 H 0.72017 0.40999 1.00579 0.0
H334 H 0.61113 0.38423 0.07363 0.0
C335 C 0.37829 0.38268 0.02708 0.0
C336 C 0.53236 0.39748 0.99288 0.0
C337 C 0.30815 0.38275 0.02659 0.0
C338 C 0.8144 0.40274 0.01674 0.0
C339 C 0.74444 0.40262 0.01521 0.0
C340 C 0.59011 0.38785 0.05066 0.0
C341 C 0.41632 0.39228 0.01785 0.0
C342 C 0.49065 0.39237 0.01964 0.0
C343 C 0.70634 0.39318 0.02605 0.0
C344 C 0.63195 0.39295 0.0239 0.0
H345 H 0.28837 0.40958 0.9999 0.0
H346 H 0.41038 0.40944 1.00073 0.0
H347 H 0.48959 0.3837 0.06986 0.0
H348 H 0.83392 0.37666 0.04997 0.0
H349 H 0.7125 0.37641 0.04682 0.0
C350 C 0.25537 0.64207 0.03738 0.0
C351 C 0.22212 0.65133 0.02429 0.0
C352 C 0.32529 0.64217 0.03907 0.0
C353 C 0.47037 0.66135 0.04217 0.0
H354 H 0.57485 0.63525 0.01411 0.0
C355 C 0.76165 0.66193 0.02732 0.0
C356 C 0.79559 0.65235 0.03754 0.0
C357 C 0.69149 0.66193 0.02675 0.0
C358 C 0.54642 0.64256 0.02253 0.0
H359 H 0.2366 0.66794 1.00245 0.0
H360 H 0.35835 0.66807 1.00528 0.0
H361 H 0.45323 0.63489 0.0107 0.0
H362 H 0.78198 0.63535 0.05621 0.0
H363 H 0.66003 0.63543 0.05587 0.0
H364 H 0.56344 0.66902 0.05419 0.0
C365 C 0.3303 0.66078 0.01455 0.0
C366 C 0.47664 0.64236 0.0205 0.0
C367 C 0.26048 0.66066 0.01271 0.0
C368 C 0.75763 0.64286 0.04795 0.0
C369 C 0.68758 0.64287 0.04752 0.0
C370 C 0.54016 0.66155 0.04434 0.0
C371 C 0.36354 0.65155 0.02788 0.0
C372 C 0.43777 0.65175 0.03023 0.0
C373 C 0.65359 0.65236 0.03649 0.0
C374 C 0.57914 0.65216 0.03452 0.0
H375 H 0.22739 0.63475 0.04661 0.0
H376 H 0.34928 0.63496 0.04978 0.0
H377 H 0.44178 0.66868 0.05035 0.0
H378 H 0.78929 0.66937 0.01897 0.0
H379 H 0.66715 0.66934 0.01775 0.0
C380 C 0.81156 0.64264 0.51653 0.0
C381 C 0.84546 0.6519 0.52983 0.0
C382 C 0.74165 0.64276 0.51474 0.0
C383 C 0.59813 0.662 0.51183 0.0
H384 H 0.49138 0.63597 0.53947 0.0
C385 C 0.3068 0.66271 0.52665 0.0
C386 C 0.27209 0.65312 0.51638 0.0
C387 C 0.37698 0.66269 0.52719 0.0
C388 C 0.52045 0.64327 0.53116 0.0
H389 H 0.83215 0.66853 0.55196 0.0
H390 H 0.71049 0.6687 0.54896 0.0
H391 H 0.61296 0.63555 0.54287 0.0
H392 H 0.28438 0.63609 0.4975 0.0
H393 H 0.4063 0.63614 0.49775 0.0
H394 H 0.50573 0.6697 0.49992 0.0
C395 C 0.738 0.66139 0.53958 0.0
C396 C 0.59021 0.64303 0.53318 0.0
C397 C 0.80777 0.66125 0.54153 0.0
C398 C 0.30932 0.64361 0.50582 0.0
C399 C 0.37937 0.64361 0.5062 0.0
C400 C 0.52836 0.66223 0.50965 0.0
C401 C 0.7041 0.65217 0.52604 0.0
C402 C 0.62989 0.65239 0.52361 0.0
C403 C 0.41412 0.65309 0.51733 0.0
C404 C 0.48856 0.65286 0.51932 0.0
H405 H 0.83901 0.63532 0.50719 0.0
H406 H 0.71714 0.63556 0.50387 0.0
H407 H 0.62736 0.66931 0.50377 0.0
H408 H 0.27973 0.67016 0.5351 0.0
H409 H 0.40192 0.67011 0.53625 0.0
C410 C 0.76197 0.40226 0.54869 0.0
C411 C 0.79932 0.39278 0.53795 0.0
C412 C 0.69194 0.40226 0.54812 0.0
C413 C 0.54298 0.38367 0.54361 0.0
H414 H 0.45882 0.41045 0.51092 0.0
C415 C 0.26375 0.38477 0.51124 0.0
C416 C 0.22605 0.3941 0.52312 0.0
C417 C 0.33354 0.38462 0.51323 0.0
C418 C 0.48144 0.40295 0.52045 0.0
H419 H 0.79187 0.37579 0.51871 0.0
H420 H 0.66973 0.37585 0.51726 0.0
H421 H 0.5803 0.41001 0.51474 0.0
H422 H 0.23252 0.41064 0.54611 0.0
H423 H 0.35435 0.41037 0.5495 0.0
H424 H 0.44395 0.37658 0.54894 0.0
C425 C 0.69456 0.38324 0.52661 0.0
C426 C 0.55115 0.40269 0.52272 0.0
C427 C 0.76472 0.38322 0.52733 0.0
C428 C 0.25997 0.40333 0.53661 0.0
C429 C 0.32987 0.4032 0.53845 0.0
C430 C 0.47326 0.38391 0.5412 0.0
C431 C 0.65731 0.39281 0.53662 0.0
C432 C 0.58289 0.39306 0.53438 0.0
C433 C 0.36744 0.39381 0.52701 0.0
C434 C 0.44163 0.39355 0.5296 0.0
H435 H 0.78682 0.40975 0.55728 0.0
H436 H 0.66492 0.40971 0.55671 0.0
H437 H 0.56547 0.37616 0.55319 0.0
H438 H 0.23937 0.37751 0.50067 0.0
H439 H 0.36104 0.37732 0.50374 0.0
C440 C 0.81746 0.90312 1.00741 0.0
C441 C 0.77889 0.89379 0.01872 0.0
C442 C 0.88753 0.90304 1.00804 0.0
C443 C 1.0241 0.88944 0.05232 0.0
H444 H 0.1384 0.90228 0.97586 0.0
C445 C 0.31396 0.88606 0.04688 0.0
C446 C 0.35221 0.89526 0.03406 0.0
C447 C 0.24413 0.88585 0.04497 0.0
C448 C 0.10723 0.89879 0.99768 0.0
H449 H 0.78422 0.87694 0.03899 0.0
H450 H 0.90652 0.8768 0.03998 0.0
H451 H 1.0169 0.90175 0.97161 0.0
H452 H 0.34666 0.91153 0.00969 0.0
H453 H 0.22481 0.91126 1.00701 0.0
H454 H 0.11414 0.88658 0.07863 0.0
C455 C 0.88237 0.88423 0.0309 0.0
C456 C 0.03753 0.89846 0.99517 0.0
C457 C 0.81226 0.88428 0.03008 0.0
C458 C 0.31882 0.9043 0.01973 0.0
C459 C 0.2489 0.9041 0.01794 0.0
C460 C 0.09376 0.88981 0.05491 0.0
C461 C 0.9208 0.89364 0.02018 0.0
C462 C 0.9951 0.89378 0.02246 0.0
C463 C 0.21065 0.89484 0.03031 0.0
C464 C 0.13631 0.8945 0.02764 0.0
H465 H 0.79355 0.91059 0.99851 0.0
H466 H 0.91552 0.91047 0.9999 0.0
H467 H 0.99279 0.88594 0.07407 0.0
H468 H 0.338 0.87892 0.05791 0.0
H469 H 0.21659 0.87851 0.05433 0.0
C470 C 0.25053 0.16074 0.02328 0.0
C471 C 0.28393 0.15226 0.04057 0.0
C472 C 0.18046 0.16049 0.02203 0.0
C473 C 1.02474 0.1478 0.06445 0.0
H474 H 0.94947 0.15526 0.9757 0.0
C475 C 0.7433 0.14047 0.04164 0.0
C476 C 0.71038 0.1489 0.02389 0.0
C477 C 0.81333 0.1407 0.04326 0.0
C478 C 0.96951 0.15326 1.00081 0.0
H479 H 0.26932 0.13698 0.07073 0.0
H480 H 0.1476 0.13655 0.06841 0.0
H481 H 0.07064 0.15641 0.98044 0.0
H482 H 0.7258 0.16412 0.99349 0.0
H483 H 0.84728 0.16454 0.99653 0.0
H484 H 0.92357 0.14466 0.08482 0.0
C485 C 0.17538 0.14345 0.05606 0.0
C486 C 0.0391 0.15394 1.00355 0.0
C487 C 0.24538 0.14368 0.05726 0.0
C488 C 0.74934 0.15745 1.00729 0.0
C489 C 0.81924 0.15767 1.00889 0.0
C490 C 0.95512 0.14713 0.06171 0.0
C491 C 0.14201 0.15178 0.03809 0.0
C492 C 0.06768 0.15123 0.03541 0.0
C493 C 0.85218 0.14935 0.02715 0.0
C494 C 0.92653 0.14985 0.02986 0.0
H495 H 0.27855 0.16748 0.01016 0.0
H496 H 0.15639 0.16714 1.00841 0.0
H497 H 0.04483 0.14579 0.08954 0.0
H498 H 0.71495 0.13376 0.05473 0.0
H499 H 0.83705 0.13406 0.05713 0.0
C500 C 0.31439 0.14056 0.51919 0.0
C501 C 0.34829 0.14958 0.534 0.0
C502 C 0.2445 0.14075 0.51738 0.0
C503 C 0.10097 0.16009 0.5172 0.0
H504 H 0.99418 0.13362 0.53945 0.0
C505 C 0.80937 0.16056 0.52994 0.0
C506 C 0.77507 0.15114 0.51798 0.0
C507 C 0.87949 0.16053 0.53086 0.0
C508 C 1.02325 0.14105 0.53264 0.0
H509 H 0.33491 0.16583 0.55881 0.0
H510 H 0.21315 0.16612 0.55576 0.0
H511 H 0.11554 0.13314 0.54366 0.0
H512 H 0.78813 0.13443 0.49647 0.0
H513 H 0.91002 0.13448 0.49739 0.0
H514 H 1.00879 0.16799 0.50595 0.0
C515 C 0.24071 0.15895 0.54525 0.0
C516 C 0.09291 0.14077 0.53515 0.0
C517 C 0.31053 0.15874 0.54724 0.0
C518 C 0.81273 0.14181 0.50608 0.0
C519 C 0.88276 0.14181 0.50686 0.0
C520 C 1.03129 0.16036 0.51454 0.0
C521 C 0.20685 0.14998 0.53015 0.0
C522 C 0.13265 0.15028 0.5275 0.0
C523 C 0.91707 0.1511 0.51972 0.0
C524 C 0.99145 0.15084 0.52223 0.0
H525 H 0.34187 0.13339 0.50863 0.0
H526 H 0.2201 0.13375 0.50528 0.0
H527 H 0.13021 0.16752 0.51062 0.0
H528 H 0.78199 0.16787 0.53947 0.0
H529 H 0.90402 0.1678 0.54127 0.0
C530 C 0.74932 0.90458 0.54365 0.0
C531 C 0.71595 0.89633 0.52483 0.0
C532 C 0.81932 0.90432 0.54536 0.0
C533 C 0.97492 0.89209 0.50159 0.0
H534 H 0.05069 0.89896 0.59097 0.0
C535 C 0.2556 0.88448 0.52329 0.0
C536 C 0.28955 0.89285 0.54131 0.0
C537 C 0.18552 0.88472 0.5221 0.0
C538 C 1.03048 0.89711 0.56571 0.0
H539 H 0.73056 0.8814 0.49267 0.0
H540 H 0.85196 0.88091 0.49586 0.0
H541 H 0.92948 0.9001 0.58639 0.0
H542 H 0.27587 0.90792 0.57285 0.0
H543 H 0.15411 0.90835 0.57068 0.0
H544 H 0.07588 0.88909 0.48092 0.0
C545 C 0.82432 0.88767 0.50899 0.0
C546 C 0.96087 0.89779 0.56305 0.0
C547 C 0.75444 0.88793 0.5073 0.0
C548 C 0.25151 0.90131 0.55881 0.0
C549 C 0.18148 0.90154 0.55769 0.0
C550 C 0.04448 0.8914 0.50426 0.0
C551 C 0.85773 0.89581 0.52827 0.0
C552 C 0.9321 0.89528 0.53095 0.0
C553 C 0.14757 0.89333 0.53897 0.0
C554 C 0.07324 0.89389 0.53636 0.0
H555 H 0.72134 0.91117 0.55748 0.0
H556 H 0.84337 0.91081 0.56003 0.0
H557 H 0.95479 0.89026 0.47629 0.0
H558 H 0.28319 0.87783 0.50953 0.0
H559 H 0.16104 0.87817 0.50789 0.0
C560 C 0.09075 0.56462 0.02374 0.0
C561 C 1.03353 0.57033 0.03796 0.0
C562 C 0.09138 0.55296 0.02173 0.0
C563 C 0.97725 0.52841 0.02105 0.0
H564 H 0.13806 0.51194 0.03913 0.0
C565 C 0.97944 0.48018 0.03078 0.0
C566 C 0.03666 0.47448 0.01654 0.0
C567 C 0.97883 0.49184 0.03281 0.0
C568 C 0.09295 0.5164 0.03353 0.0
H569 H 0.93213 0.56809 0.06148 0.0
H570 H 0.93368 0.54777 0.05865 0.0
H571 H 0.13767 0.53218 0.04491 0.0
H572 H 0.13806 0.47672 0.99302 0.0
H573 H 0.13652 0.49704 0.99591 0.0
H574 H 0.93253 0.51262 0.00967 0.0
C575 C 0.9779 0.55234 0.0486 0.0
C576 C 0.09269 0.52804 0.0369 0.0
C577 C 0.97732 0.56401 0.05066 0.0
C578 C 0.09288 0.4808 1.00386 0.0
C579 C 0.0923 0.49247 1.00595 0.0
C580 C 0.97751 0.51677 0.01768 0.0
C581 C 0.03478 0.54665 0.03387 0.0
C582 C 0.03484 0.53421 0.03071 0.0
C583 C 0.03542 0.49816 0.02069 0.0
C584 C 0.03536 0.51059 0.02387 0.0
H585 H 0.13529 0.56918 0.01406 0.0
H586 H 0.1359 0.54891 0.00996 0.0
H587 H 0.93213 0.53287 0.01545 0.0
H588 H 0.93491 0.47563 0.04044 0.0
H589 H 0.93431 0.49589 0.0446 0.0
C590 C 1.02364 0.48055 0.50283 0.0
C591 C 1.03339 0.47501 0.53482 0.0
C592 C 1.02377 0.49221 0.50122 0.0
C593 C 0.0804 0.51747 0.54801 0.0
H594 H 0.95445 0.53253 0.49097 0.0
C595 C 0.04741 0.56539 0.55174 0.0
C596 C 0.03776 0.57092 0.51973 0.0
C597 C 0.04723 0.55374 0.55341 0.0
C598 C 0.99056 0.52847 0.50668 0.0
H599 H 0.05083 0.47752 0.59028 0.0
H600 H 0.04999 0.49786 0.58761 0.0
H601 H 0.95246 0.51225 0.49475 0.0
H602 H 1.0204 0.56839 0.46426 0.0
H603 H 1.02114 0.54805 0.46701 0.0
H604 H 0.11851 0.53369 0.55994 0.0
C605 C 0.04301 0.49316 0.56361 0.0
C606 C 0.98938 0.51681 0.50889 0.0
C607 C 0.04275 0.48148 0.56525 0.0
C608 C 1.02841 0.56444 0.48932 0.0
C609 C 1.0281 0.55276 0.491 0.0
C610 C 0.08158 0.52913 0.5458 0.0
C611 C 1.03359 0.49869 0.53154 0.0
C612 C 1.03432 0.51114 0.52957 0.0
C613 C 0.03744 0.54725 0.5231 0.0
C614 C 0.03666 0.5348 0.52511 0.0
H615 H 1.01529 0.47588 0.47895 0.0
H616 H 1.01704 0.49613 0.47597 0.0
H617 H 0.11652 0.51341 0.56371 0.0
H618 H 0.05573 0.57008 0.57562 0.0
H619 H 0.05391 0.54982 0.57867 0.0
C620 C 0.59018 0.98217 0.98767 0.0
C621 C 0.54584 0.97599 0.01074 0.0
C622 C 0.59081 0.99387 0.98888 0.0
C623 C 0.54793 1.01717 0.05012 0.0
H624 H 0.5561 0.03559 0.96595 0.0
C625 C 0.50489 0.0645 0.05996 0.0
C626 C 0.54218 0.07164 0.03659 0.0
C627 C 0.50752 0.05294 0.05546 0.0
C628 C 0.55482 0.03059 0.98975 0.0
H629 H 0.46476 0.97745 0.05177 0.0
H630 H 0.4668 0.99771 0.05422 0.0
H631 H 0.55644 1.01527 0.96003 0.0
H632 H 0.61145 0.07213 0.98994 0.0
H633 H 0.61707 0.05188 0.98236 0.0
H634 H 0.54726 0.03234 0.07996 0.0
C635 C 0.5019 0.99351 0.03561 0.0
C636 C 0.55482 1.01893 0.98631 0.0
C637 C 0.50087 0.98186 0.03422 0.0
C638 C 0.58185 0.06688 1.00833 0.0
C639 C 0.58487 0.05526 1.00395 0.0
C640 C 0.54849 0.02878 0.05355 0.0
C641 C 0.54746 0.99968 0.01333 0.0
C642 C 0.55043 1.01208 0.0165 0.0
C643 C 0.54789 0.04811 0.02757 0.0
C644 C 0.55096 0.03569 0.02347 0.0
H645 H 0.62596 0.97798 0.96945 0.0
H646 H 0.62674 0.99837 0.97145 0.0
H647 H 0.54596 1.01215 0.07392 0.0
H648 H 0.47253 0.06787 0.08152 0.0
H649 H 0.4769 0.04779 0.0737 0.0
C650 C 0.58579 0.06283 0.48569 0.0
C651 C 0.53921 0.0689 0.5077 0.0
C652 C 0.58551 0.05113 0.48593 0.0
C653 C 0.47887 0.02659 0.51457 0.0
H654 H 0.64861 1.01086 0.50989 0.0
C655 C 0.49807 0.98062 0.55641 0.0
C656 C 0.5396 0.97347 0.53518 0.0
C657 C 0.49838 0.99212 0.55033 0.0
C658 C 0.60076 1.01512 0.51082 0.0
H659 H 0.45423 0.06725 0.54633 0.0
H660 H 0.4551 0.04703 0.54761 0.0
H661 H 0.64797 0.03113 0.50403 0.0
H662 H 0.61439 0.97288 0.4909 0.0
H663 H 0.61519 0.99304 0.48035 0.0
H664 H 0.43182 1.01061 0.52223 0.0
C665 C 0.49149 0.05126 0.52975 0.0
C666 C 0.60031 0.02676 0.50737 0.0
C667 C 0.4916 0.06292 0.52939 0.0
C668 C 0.58162 0.97814 0.50766 0.0
C669 C 0.58242 0.98969 0.50178 0.0
C670 C 0.47938 1.01499 0.51827 0.0
C671 C 0.53863 0.04517 0.50818 0.0
C672 C 0.53933 0.03269 0.50963 0.0
C673 C 0.54049 0.99682 0.52296 0.0
C674 C 0.54031 1.00911 0.51687 0.0
H675 H 0.6236 0.06712 0.46882 0.0
H676 H 0.62209 0.04677 0.4686 0.0
H677 H 0.43081 0.03078 0.51561 0.0
H678 H 0.46444 0.97732 0.57755 0.0
H679 H 0.46596 0.99735 0.5674 0.0
C680 C 0.17197 0.30911 0.05633 0.0
C681 C 0.19335 0.31702 0.03051 0.0
C682 C 0.19477 0.2981 0.05405 0.0
C683 C 0.33023 0.28032 0.01239 0.0
H684 H 0.20433 0.25627 0.03568 0.0
C685 C 0.39928 0.23405 0.986 0.0
C686 C 0.37653 0.22609 0.01139 0.0
C687 C 0.37682 0.24509 0.98828 0.0
C688 C 0.24045 0.26287 0.02949 0.0
H689 H 0.25657 0.31945 0.98219 0.0
H690 H 0.29566 0.30021 0.97795 0.0
H691 H 0.16627 0.27553 0.03973 0.0
H692 H 0.3113 0.22362 0.05899 0.0
H693 H 0.27319 0.24289 0.06338 0.0
H694 H 0.40447 0.26767 1.00223 0.0
C695 C 0.26156 0.30257 1.00019 0.0
C696 C 0.21856 0.27394 0.03179 0.0
C697 C 0.23859 0.31359 1.00242 0.0
C698 C 0.33044 0.22951 0.0391 0.0
C699 C 0.30795 0.24056 0.0414 0.0
C700 C 0.35216 0.26924 0.01012 0.0
C701 C 0.23969 0.29465 0.02589 0.0
C702 C 0.26313 0.28283 0.02329 0.0
C703 C 0.33098 0.24852 0.01607 0.0
C704 C 0.30758 0.26035 0.01862 0.0
H705 H 0.13648 0.31137 0.07809 0.0
H706 H 0.17739 0.29229 0.07457 0.0
H707 H 0.36628 0.28692 1.00615 0.0
H708 H 0.43547 0.23181 0.96454 0.0
H709 H 0.39513 0.25091 0.96803 0.0
C710 C 0.73292 0.81489 1.00797 0.0
C711 C 0.69326 0.81869 0.03776 0.0
C712 C 0.75544 0.80384 1.0059 0.0
C713 C 0.7195 0.77565 0.04359 0.0
H714 H 0.89925 0.76901 1.00398 0.0
C715 C 0.83605 0.73154 0.05113 0.0
C716 C 0.87598 0.7277 0.02149 0.0
C717 C 0.81305 0.74257 0.05289 0.0
C718 C 0.84858 0.77068 0.01474 0.0
H719 H 0.64583 0.81367 0.08859 0.0
H720 H 0.68619 0.79457 0.08532 0.0
H721 H 0.86136 0.78828 1.00741 0.0
H722 H 0.92324 0.73263 0.97053 0.0
H723 H 0.88208 0.7517 0.97325 0.0
H724 H 0.70675 0.75805 0.05095 0.0
C725 C 0.69943 0.80009 0.06334 0.0
C726 C 0.82681 0.78177 0.01671 0.0
C727 C 0.67701 0.81113 0.06544 0.0
C728 C 0.89189 0.7352 0.99359 0.0
C729 C 0.86901 0.74622 0.99536 0.0
C730 C 0.74127 0.76457 0.04163 0.0
C731 C 0.73877 0.79626 0.03351 0.0
C732 C 0.76197 0.78442 0.0312 0.0
C733 C 0.82951 0.75008 0.0251 0.0
C734 C 0.80614 0.76192 0.02718 0.0
H735 H 0.74693 0.82047 0.98626 0.0
H736 H 0.78509 0.80119 0.98235 0.0
H737 H 0.66884 0.77733 0.05437 0.0
H738 H 0.82228 0.726 0.07301 0.0
H739 H 0.78329 0.74525 0.07636 0.0
C740 C 0.23763 0.73262 0.55421 0.0
C741 C 0.19723 0.72813 0.52848 0.0
C742 C 0.26073 0.74366 0.55187 0.0
C743 C 0.28819 0.76732 0.48918 0.0
H744 H 0.28568 0.78511 0.57512 0.0
C745 C 0.33731 0.81495 0.48565 0.0
C746 C 0.37661 0.81955 0.51169 0.0
C747 C 0.31485 0.80387 0.48794 0.0
C748 C 0.28748 0.78024 0.55089 0.0
H749 H 0.14973 0.73186 0.47998 0.0
H750 H 0.19017 0.75105 0.47582 0.0
H751 H 0.24979 0.76566 0.57819 0.0
H752 H 0.42299 0.81597 0.56062 0.0
H753 H 0.38392 0.7967 0.56462 0.0
H754 H 0.32595 0.7819 0.46186 0.0
C755 C 0.20476 0.74598 0.49763 0.0
C756 C 0.2669 0.76906 0.55266 0.0
C757 C 0.18162 0.73494 0.49999 0.0
C758 C 0.39196 0.81279 0.54036 0.0
C759 C 0.36956 0.80171 0.54263 0.0
C760 C 0.30883 0.77851 0.48741 0.0
C761 C 0.24416 0.75054 0.5237 0.0
C762 C 0.26691 0.76244 0.52182 0.0
C763 C 0.33108 0.79706 0.51632 0.0
C764 C 0.30872 0.78514 0.51823 0.0
H765 H 0.2516 0.72759 0.57623 0.0
H766 H 0.29197 0.7468 0.57209 0.0
H767 H 0.28988 0.76246 0.46494 0.0
H768 H 0.32361 0.81994 0.46347 0.0
H769 H 0.28428 0.80067 0.46752 0.0
C770 C 0.89501 0.30977 0.4939 0.0
C771 C 0.87698 0.31746 0.52107 0.0
C772 C 0.87188 0.29873 0.49576 0.0
C773 C 0.74049 0.28053 0.54013 0.0
H774 H 0.86269 0.25676 0.5101 0.0
C775 C 0.67394 0.23407 0.56528 0.0
C776 C 0.69233 0.2263 0.53839 0.0
C777 C 0.69657 0.24513 0.56303 0.0
C778 C 0.82758 0.26329 0.5182 0.0
H779 H 0.81925 0.31948 0.57135 0.0
H780 H 0.77977 0.3002 0.57487 0.0
H781 H 0.90101 0.27608 0.50645 0.0
H782 H 0.74999 0.22418 0.48813 0.0
H783 H 0.78856 0.24351 0.48392 0.0
H784 H 0.66706 0.26774 0.5519 0.0
C785 C 0.81142 0.30274 0.55189 0.0
C786 C 0.84959 0.2744 0.51611 0.0
C787 C 0.83467 0.3138 0.55006 0.0
C788 C 0.73432 0.22992 0.50922 0.0
C789 C 0.75705 0.241 0.50699 0.0
C790 C 0.71847 0.26942 0.54221 0.0
C791 C 0.83001 0.29503 0.52485 0.0
C792 C 0.80638 0.28318 0.52705 0.0
C793 C 0.73826 0.24878 0.53381 0.0
C794 C 0.76171 0.26064 0.53133 0.0
H795 H 0.92821 0.31221 0.47138 0.0
H796 H 0.88665 0.29309 0.47421 0.0
H797 H 0.7054 0.28706 0.54827 0.0
H798 H 0.64095 0.23166 0.58792 0.0
H799 H 0.68164 0.25082 0.58441 0.0
C800 C 0.12129 0.39498 0.14807 0.0
C801 C 0.06891 0.39275 0.12597 0.0
C802 C 0.11226 0.39316 0.18463 0.0
C803 C 0.98858 0.39559 0.25582 0.0
H804 H 0.09765 0.37656 0.31112 0.0
C805 C 0.94355 0.3945 0.40766 0.0
C806 C 0.99941 0.3932 0.42782 0.0
C807 C 0.94907 0.39266 0.37103 0.0
C808 C 0.06725 0.38206 0.2963 0.0
H809 H 0.96664 0.38662 0.12444 0.0
H810 H 0.95002 0.38386 0.18871 0.0
H811 H 0.11545 0.37672 0.24655 0.0
H812 H 0.1046 0.38873 0.42593 0.0
H813 H 0.11579 0.38614 0.36192 0.0
H814 H 0.94331 0.4016 0.30481 0.0
C815 C 0.99832 0.38682 0.17756 0.0
C816 C 0.07719 0.38205 0.25925 0.0
C817 C 1.00792 0.38837 0.14089 0.0
C818 C 0.06059 0.38972 0.41094 0.0
C819 C 0.06673 0.38818 0.37413 0.0
C820 C 0.97974 0.39584 0.2928 0.0
C821 C 0.05016 0.38932 0.19975 0.0
C822 C 0.03792 0.38881 0.23876 0.0
C823 C 1.01128 0.38979 0.35344 0.0
C824 C 1.01899 0.38909 0.31375 0.0
H825 H 0.16878 0.39835 0.13717 0.0
H826 H 0.15277 0.3952 0.20129 0.0
H827 H 0.95831 0.401 0.24053 0.0
H828 H 0.89561 0.39707 0.42021 0.0
H829 H 0.90448 0.39363 0.35656 0.0
C830 C 0.9719 0.647 0.14485 0.0
C831 C 1.02903 0.65179 0.12704 0.0
C832 C 0.9708 0.64498 0.18141 0.0
C833 C 0.07254 0.64046 0.25674 0.0
H834 H 0.94102 0.65819 0.31159 0.0
C835 C 0.09304 0.649 0.40694 0.0
C836 C 0.03495 0.65197 0.4277 0.0
C837 C 0.09 0.64706 0.37044 0.0
C838 C 0.97709 0.6529 0.29709 0.0
H839 H 0.13085 0.65759 0.13264 0.0
H840 H 0.12978 0.65365 0.19617 0.0
H841 H 0.93916 0.65754 0.24754 0.0
H842 H 0.92762 0.65442 0.42773 0.0
H843 H 0.92088 0.65019 0.36514 0.0
H844 H 0.10992 0.63556 0.30603 0.0
C845 C 0.08567 0.65163 0.18209 0.0
C846 C 0.97609 0.65261 0.26016 0.0
C847 C 0.08615 0.65392 0.14586 0.0
C848 C 0.97325 0.65226 0.41206 0.0
C849 C 0.96974 0.64998 0.37596 0.0
C850 C 0.07259 0.6405 0.29384 0.0
C851 C 1.02747 0.64741 0.2004 0.0
C852 C 1.0244 0.64655 0.23961 0.0
C853 C 1.02837 0.64775 0.35418 0.0
C854 C 1.02553 0.64688 0.31466 0.0
H855 H 0.92716 0.64533 0.13092 0.0
H856 H 0.92531 0.64174 0.19501 0.0
H857 H 0.11034 0.6357 0.24139 0.0
H858 H 0.14134 0.64882 0.41846 0.0
H859 H 0.13659 0.64551 0.3549 0.0
C860 C 0.94154 0.65066 0.90787 0.0
C861 C 0.99731 0.65198 0.92819 0.0
C862 C 0.94742 0.65254 0.87131 0.0
C863 C 0.06658 0.66325 0.79714 0.0
H864 H 0.95688 0.64433 0.74055 0.0
C865 C 0.1202 0.65065 0.64832 0.0
C866 C 0.06775 0.65282 0.62636 0.0
C867 C 0.11129 0.65241 0.68495 0.0
C868 C 0.98738 0.64973 0.75607 0.0
H869 H 0.10271 0.65649 0.92668 0.0
H870 H 0.11451 0.65913 0.86275 0.0
H871 H 0.94167 0.64364 0.80479 0.0
H872 H 0.96553 0.65879 0.62515 0.0
H873 H 0.94913 0.66145 0.68952 0.0
H874 H 0.11516 0.66868 0.74763 0.0
C875 C 0.06527 0.65707 0.8748 0.0
C876 C 0.97842 0.64944 0.79304 0.0
C877 C 0.05878 0.65549 0.91156 0.0
C878 C 1.00685 0.65708 0.64149 0.0
C879 C 0.99738 0.65858 0.67822 0.0
C880 C 0.07663 0.66332 0.76009 0.0
C881 C 1.00989 0.65544 0.85394 0.0
C882 C 1.0179 0.65618 0.81428 0.0
C883 C 0.04926 0.65613 0.70027 0.0
C884 C 0.03707 0.65656 0.73931 0.0
H885 H 0.89339 0.64807 0.92023 0.0
H886 H 0.9029 0.65156 0.85671 0.0
H887 H 0.09719 0.66875 0.81221 0.0
H888 H 0.16762 0.64737 0.63724 0.0
H889 H 0.15183 0.65041 0.7015 0.0
C890 C 0.09921 0.39361 0.64177 0.0
C891 C 0.03753 0.39393 0.62611 0.0
C892 C 0.10268 0.39583 0.67791 0.0
C893 C 0.99972 0.40516 0.76017 0.0
H894 H 0.13288 0.38799 0.80623 0.0
C895 C 0.985 0.39142 0.90777 0.0
C896 C 0.04209 0.39341 0.92675 0.0
C897 C 0.98582 0.39382 0.8716 0.0
C898 C 0.09604 0.39296 0.79368 0.0
H899 H 0.93113 0.39706 0.63538 0.0
H900 H 0.9358 0.40025 0.699 0.0
H901 H 0.13127 0.38749 0.74216 0.0
H902 H 0.14427 0.39973 0.92324 0.0
H903 H 0.14669 0.40353 0.85925 0.0
H904 H 0.9618 0.40985 0.81268 0.0
C905 C 0.98241 0.39873 0.68345 0.0
C906 C 0.09517 0.39275 0.75674 0.0
C907 C 0.97941 0.39686 0.64692 0.0
C908 C 0.09954 0.39817 0.90918 0.0
C909 C 0.10097 0.4003 0.87268 0.0
C910 C 0.99964 0.40513 0.79726 0.0
C911 C 0.04401 0.39801 0.69972 0.0
C912 C 0.0468 0.39881 0.73925 0.0
C913 C 0.04432 0.39802 0.85351 0.0
C914 C 0.04767 0.39898 0.81432 0.0
H915 H 0.14487 0.39148 0.62606 0.0
H916 H 0.15152 0.39559 0.68874 0.0
H917 H 0.96245 0.41013 0.74804 0.0
H918 H 0.94007 0.38777 0.92079 0.0
H919 H 0.94172 0.39191 0.8574 0.0
C920 C 0.52904 0.88979 0.14531 0.0
C921 C 0.57899 0.89679 0.12928 0.0
C922 C 0.52037 0.88906 0.18241 0.0
C923 C 0.53569 0.88584 0.26301 0.0
H924 H 0.53757 0.91442 0.31134 0.0
C925 C 0.53733 0.89125 0.41675 0.0
C926 C 0.49693 0.8998 0.43202 0.0
C927 C 0.54489 0.88996 0.37978 0.0
C928 C 0.53648 0.90637 0.2983 0.0
H929 H 0.66117 0.90802 0.13937 0.0
H930 H 0.64605 0.90676 0.20369 0.0
H931 H 0.5569 0.91363 0.24713 0.0
H932 H 0.43095 0.91343 0.42074 0.0
H933 H 0.4443 0.91124 0.3565 0.0
H934 H 0.51517 0.87861 0.31456 0.0
C935 C 0.61294 0.90196 0.18781 0.0
C936 C 0.54826 0.9059 0.26149 0.0
C937 C 0.62182 0.90263 0.15092 0.0
C938 C 0.46288 0.90682 0.40974 0.0
C939 C 0.47074 0.90559 0.37291 0.0
C940 C 0.52456 0.88629 0.30007 0.0
C941 C 0.56122 0.89537 0.20406 0.0
C942 C 0.54815 0.89565 0.24334 0.0
C943 C 0.51258 0.89726 0.35742 0.0
C944 C 0.52458 0.89658 0.31811 0.0
H945 H 0.49541 0.88516 0.12925 0.0
H946 H 0.48002 0.88391 0.19414 0.0
H947 H 0.53551 0.87781 0.24981 0.0
H948 H 0.564 0.88569 0.43332 0.0
H949 H 0.57771 0.88349 0.36869 0.0
C950 C 0.57297 0.15674 0.14662 0.0
C951 C 0.51569 0.1539 0.12874 0.0
C952 C 0.57514 0.15469 0.18293 0.0
C953 C 0.47138 0.1547 0.2632 0.0
H954 H 0.60984 0.13763 0.30526 0.0
C955 C 0.47405 0.1522 0.41489 0.0
C956 C 0.53615 0.15167 0.43007 0.0
C957 C 0.46982 0.15059 0.37847 0.0
C958 C 0.57129 0.14258 0.29417 0.0
H959 H 0.41616 0.14653 0.13454 0.0
H960 H 0.4188 0.14339 0.1987 0.0
H961 H 0.60706 0.13845 0.24081 0.0
H962 H 0.64261 0.14885 0.41953 0.0
H963 H 0.63656 0.14673 0.35554 0.0
H964 H 0.43794 0.15959 0.3156 0.0
C965 C 0.4624 0.14701 0.18432 0.0
C966 C 0.56944 0.14294 0.25716 0.0
C967 C 0.46093 0.14879 0.14772 0.0
C968 C 0.594 0.1492 0.40838 0.0
C969 C 0.59021 0.14794 0.37162 0.0
C970 C 0.47416 0.1546 0.30007 0.0
C971 C 0.51942 0.15001 0.20226 0.0
C972 C 0.51944 0.149 0.24138 0.0
C973 C 0.52809 0.14883 0.35591 0.0
C974 C 0.52416 0.14854 0.31632 0.0
H975 H 0.61598 0.16065 0.13254 0.0
H976 H 0.61947 0.15714 0.1962 0.0
H977 H 0.43295 0.15959 0.25164 0.0
H978 H 0.42859 0.15399 0.43123 0.0
H979 H 0.42061 0.15092 0.36808 0.0
C980 C 0.45438 0.13938 0.90878 0.0
C981 C 0.49115 0.14603 0.93132 0.0
C982 C 0.4626 0.14065 0.87202 0.0
C983 C 0.52414 0.15947 0.79963 0.0
H984 H 0.54672 0.13188 0.74645 0.0
C985 C 0.61685 0.14231 0.65061 0.0
C986 C 0.57572 0.14833 0.62887 0.0
C987 C 0.60796 0.14312 0.68749 0.0
C988 C 0.54081 0.13967 0.76088 0.0
H989 H 0.5633 0.15956 0.93318 0.0
H990 H 0.57778 0.1618 0.86859 0.0
H991 H 0.52662 0.13129 0.81062 0.0
H992 H 0.49539 0.1604 0.62864 0.0
H993 H 0.48013 0.16192 0.69352 0.0
H994 H 0.53852 0.16782 0.74944 0.0
C995 C 0.54255 0.1556 0.87946 0.0
C996 C 0.52862 0.13933 0.79766 0.0
C997 C 0.53454 0.15429 0.91639 0.0
C998 C 0.52764 0.15563 0.64478 0.0
C999 C 0.51906 0.15652 0.68187 0.0
C1000 C 0.53566 0.15982 0.76259 0.0
C1001 C 0.5076 0.14863 0.85683 0.0
C1002 C 0.5202 0.14921 0.81756 0.0
C1003 C 0.55805 0.15004 0.70361 0.0
C1004 C 0.5446 0.1499 0.74285 0.0
H1005 H 0.42006 0.13303 0.91952 0.0
H1006 H 0.43406 0.13528 0.8554 0.0
H1007 H 0.51753 0.16723 0.8142 0.0
H1008 H 0.65474 0.13668 0.63916 0.0
H1009 H 0.63958 0.13817 0.70346 0.0
C1010 C 0.46977 0.89504 0.64946 0.0
C1011 C 0.52502 0.89104 0.62832 0.0
C1012 C 0.47443 0.89664 0.68602 0.0
C1013 C 0.58399 0.88877 0.75934 0.0
H1014 H 0.46655 0.90894 0.81432 0.0
C1015 C 0.60143 0.89711 0.91042 0.0
C1016 C 0.54364 0.89312 0.92975 0.0
C1017 C 0.60148 0.89848 0.87356 0.0
C1018 C 0.49994 0.90334 0.79916 0.0
H1019 H 0.62951 0.88629 0.62801 0.0
H1020 H 0.63956 0.88983 0.69073 0.0
H1021 H 0.46413 0.90852 0.74981 0.0
H1022 H 0.43987 0.88804 0.92634 0.0
H1023 H 0.43917 0.89091 0.86225 0.0
H1024 H 0.62084 0.8839 0.80899 0.0
C1025 C 0.59119 0.89114 0.68011 0.0
C1026 C 0.49815 0.90297 0.76214 0.0
C1027 C 0.58583 0.88922 0.64391 0.0
C1028 C 0.48507 0.89111 0.91199 0.0
C1029 C 0.48457 0.89278 0.87542 0.0
C1030 C 0.58695 0.88937 0.79617 0.0
C1031 C 0.53511 0.89458 0.7021 0.0
C1032 C 0.53948 0.89555 0.74157 0.0
C1033 C 0.54316 0.89622 0.85573 0.0
C1034 C 0.54437 0.89654 0.81646 0.0
H1035 H 0.42219 0.89647 0.63802 0.0
H1036 H 0.4296 0.89915 0.70169 0.0
H1037 H 0.61549 0.88271 0.74511 0.0
H1038 H 0.64731 0.89866 0.9235 0.0
H1039 H 0.6473 0.90113 0.85887 0.0
loop_
_geom_bond_atom_site_label_1
_geom_bond_atom_site_label_2
_geom_bond_distance
_geom_bond_site_symmetry_2
_ccdc_geom_bond_type
La0 C2 2.928 . S
La0 O20 2.521 . S
La0 O21 2.628 1_554 S
La0 O22 2.554 . S
La0 O23 2.757 . S
La0 O24 2.470 1_455 S
La0 O29 2.482 1_554 S
La0 O31 2.503 . S
La1 C11 2.928 . S
La1 O23 2.482 . S
La1 O25 2.503 1_455 S
La1 O26 2.521 1_554 S
La1 O27 2.628 . S
La1 O28 2.554 1_554 S
La1 O29 2.757 1_554 S
La1 O30 2.468 1_554 S
C2 La0 2.928 . S
C2 C3 1.503 1_455 S
C2 O20 1.261 . S
C2 O21 1.243 1_554 S
C3 C2 1.503 1_655 S
C3 C4 1.394 . S
C3 C8 1.373 1_554 S
C4 C3 1.394 . S
C4 C5 1.380 . S
C4 H32 0.930 . S
C5 C4 1.380 . S
C5 C6 1.376 . S
C5 H33 0.930 . S
C6 C5 1.376 . S
C6 C7 1.370 1_554 S
C7 C6 1.370 1_556 S
C7 C8 1.396 . S
C7 H34 0.929 . S
C8 C3 1.373 1_556 S
C8 C7 1.396 . S
C8 H35 0.929 . S
C9 O22 1.240 . S
C9 O23 1.289 . S
C10 O24 1.258 . S
C10 O25 1.256 . S
C11 La1 2.928 . S
C11 C12 1.503 . S
C11 O26 1.261 1_554 S
C11 O27 1.243 . S
C12 C11 1.503 . S
C12 C13 1.394 1_554 S
C12 C17 1.373 . S
C13 C12 1.394 1_556 S
C13 C14 1.380 . S
C13 H36 0.930 . S
C14 C13 1.380 . S
C14 C15 1.376 1_556 S
C14 H37 0.930 . S
C15 C14 1.376 1_554 S
C15 C16 1.370 . S
C16 C15 1.370 . S
C16 C17 1.396 . S
C16 H38 0.929 . S
C17 C12 1.373 . S
C17 C16 1.396 . S
C17 H39 0.929 . S
C18 O28 1.240 . S
C18 O29 1.289 . S
C19 O30 1.250 1_554 S
C19 O31 1.256 . S
O20 La0 2.521 . S
O20 C2 1.261 . S
O21 La0 2.628 1_556 S
O21 C2 1.243 1_556 S
O22 La0 2.554 . S
O22 C9 1.240 . S
O23 La0 2.757 . S
O23 La1 2.482 . S
O23 C9 1.289 . S
O24 La0 2.470 1_655 S
O24 C10 1.258 . S
O25 La1 2.503 1_655 S
O25 C10 1.256 . S
O26 La1 2.521 1_556 S
O26 C11 1.261 1_556 S
O27 La1 2.628 . S
O27 C11 1.243 . S
O28 La1 2.554 1_556 S
O28 C18 1.240 . S
O29 La0 2.482 1_556 S
O29 La1 2.757 1_556 S
O29 C18 1.289 . S
O30 La1 2.468 1_556 S
O30 C19 1.250 1_556 S
O31 La0 2.503 . S
O31 C19 1.256 . S
H32 C4 0.930 . S
H33 C5 0.930 . S
H34 C7 0.929 . S
H35 C8 0.929 . S
H36 C13 0.930 . S
H37 C14 0.930 . S
H38 C16 0.929 . S
H39 C17 0.929 . S
La40 C42 2.928 . S
La40 O60 2.521 . S
La40 O61 2.628 1_554 S
La40 O62 2.554 . S
La40 O63 2.757 . S
La40 O64 2.470 . S
La40 O69 2.482 1_554 S
La40 O71 2.503 1_655 S
La41 C51 2.928 . S
La41 O63 2.482 . S
La41 O65 2.503 . S
La41 O66 2.521 1_554 S
La41 O67 2.628 . S
La41 O68 2.554 1_554 S
La41 O69 2.757 1_554 S
La41 O70 2.470 1_655 S
C42 La40 2.928 . S
C42 C43 1.503 . S
C42 O60 1.261 . S
C42 O61 1.243 1_554 S
C43 C42 1.503 . S
C43 C44 1.394 . S
C43 C48 1.373 1_554 S
C44 C43 1.394 . S
C44 C45 1.380 . S
C44 H72 0.930 . S
C45 C44 1.380 . S
C45 C46 1.376 . S
C45 H73 0.930 . S
C46 C45 1.376 . S
C46 C47 1.370 1_554 S
C47 C46 1.370 1_556 S
C47 C48 1.396 . S
C47 H74 0.929 . S
C48 C43 1.373 1_556 S
C48 C47 1.396 . S
C48 H75 0.929 . S
C49 O62 1.240 . S
C49 O63 1.289 . S
C50 O64 1.258 . S
C50 O65 1.256 . S
C51 La41 2.928 . S
C51 C52 1.503 1_655 S
C51 O66 1.261 1_554 S
C51 O67 1.243 . S
C52 C51 1.503 1_455 S
C52 C53 1.394 1_554 S
C52 C57 1.373 . S
C53 C52 1.394 1_556 S
C53 C54 1.380 . S
C53 H76 0.930 . S
C54 C53 1.380 . S
C54 C55 1.376 1_556 S
C54 H77 0.930 . S
C55 C54 1.376 1_554 S
C55 C56 1.370 . S
C56 C55 1.370 . S
C56 C57 1.396 . S
C56 H78 0.929 . S
C57 C52 1.373 . S
C57 C56 1.396 . S
C57 H79 0.929 . S
C58 O68 1.240 . S
C58 O69 1.289 . S
C59 O70 1.258 . S
C59 O71 1.256 . S
O60 La40 2.521 . S
O60 C42 1.261 . S
O61 La40 2.628 1_556 S
O61 C42 1.243 1_556 S
O62 La40 2.554 . S
O62 C49 1.240 . S
O63 La40 2.757 . S
O63 La41 2.482 . S
O63 C49 1.289 . S
O64 La40 2.470 . S
O64 C50 1.258 . S
O65 La41 2.503 . S
O65 C50 1.256 . S
O66 La41 2.521 1_556 S
O66 C51 1.261 1_556 S
O67 La41 2.628 . S
O67 C51 1.243 . S
O68 La41 2.554 1_556 S
O68 C58 1.240 . S
O69 La40 2.482 1_556 S
O69 La41 2.757 1_556 S
O69 C58 1.289 . S
O70 La41 2.470 1_455 S
O70 C59 1.258 . S
O71 La40 2.503 1_455 S
O71 C59 1.256 . S
H72 C44 0.930 . S
H73 C45 0.930 . S
H74 C47 0.929 . S
H75 C48 0.929 . S
H76 C53 0.930 . S
H77 C54 0.930 . S
H78 C56 0.929 . S
H79 C57 0.929 . S
La80 C82 2.928 . S
La80 O100 2.521 . S
La80 O101 2.628 . S
La80 O102 2.554 . S
La80 O103 2.757 . S
La80 O104 2.470 . S
La80 O109 2.482 . S
La80 O111 2.503 1_455 S
La81 C91 2.928 . S
La81 O103 2.482 . S
La81 O105 2.503 . S
La81 O106 2.521 . S
La81 O107 2.628 . S
La81 O108 2.554 . S
La81 O109 2.757 . S
La81 O110 2.470 1_455 S
C82 La80 2.928 . S
C82 C83 1.503 . S
C82 O100 1.261 . S
C82 O101 1.243 . S
C83 C82 1.503 . S
C83 C84 1.394 . S
C83 C88 1.373 . S
C84 C83 1.394 . S
C84 C85 1.380 . S
C84 H112 0.930 . S
C85 C84 1.380 . S
C85 C86 1.376 . S
C85 H113 0.930 . S
C86 C85 1.376 . S
C86 C87 1.370 . S
C87 C86 1.370 . S
C87 C88 1.396 . S
C87 H114 0.929 . S
C88 C83 1.373 . S
C88 C87 1.396 . S
C88 H115 0.929 . S
C89 O102 1.240 . S
C89 O103 1.289 . S
C90 O104 1.258 . S
C90 O105 1.256 . S
C91 La81 2.928 . S
C91 C92 1.503 1_455 S
C91 O106 1.261 . S
C91 O107 1.243 . S
C92 C91 1.503 1_655 S
C92 C93 1.394 . S
C92 C97 1.373 . S
C93 C92 1.394 . S
C93 C94 1.380 . S
C93 H116 0.930 . S
C94 C93 1.380 . S
C94 C95 1.376 . S
C94 H117 0.930 . S
C95 C94 1.376 . S
C95 C96 1.370 . S
C96 C95 1.370 . S
C96 C97 1.396 . S
C96 H118 0.929 . S
C97 C92 1.373 . S
C97 C96 1.396 . S
C97 H119 0.929 . S
C98 O108 1.240 . S
C98 O109 1.289 . S
C99 O110 1.258 . S
C99 O111 1.256 . S
O100 La80 2.521 . S
O100 C82 1.261 . S
O101 La80 2.628 . S
O101 C82 1.243 . S
O102 La80 2.554 . S
O102 C89 1.240 . S
O103 La80 2.757 . S
O103 La81 2.482 . S
O103 C89 1.289 . S
O104 La80 2.470 . S
O104 C90 1.258 . S
O105 La81 2.503 . S
O105 C90 1.256 . S
O106 La81 2.521 . S
O106 C91 1.261 . S
O107 La81 2.628 . S
O107 C91 1.243 . S
O108 La81 2.554 . S
O108 C98 1.240 . S
O109 La80 2.482 . S
O109 La81 2.757 . S
O109 C98 1.289 . S
O110 La81 2.470 1_655 S
O110 C99 1.258 . S
O111 La80 2.503 1_655 S
O111 C99 1.256 . S
H112 C84 0.930 . S
H113 C85 0.930 . S
H114 C87 0.929 . S
H115 C88 0.929 . S
H116 C93 0.930 . S
H117 C94 0.930 . S
H118 C96 0.929 . S
H119 C97 0.929 . S
La120 C122 2.928 . S
La120 O140 2.521 . S
La120 O141 2.628 . S
La120 O142 2.554 . S
La120 O143 2.757 . S
La120 O144 2.470 1_655 S
La120 O149 2.482 . S
La120 O151 2.503 . S
La121 C131 2.928 . S
La121 O143 2.482 . S
La121 O145 2.503 1_655 S
La121 O146 2.521 . S
La121 O147 2.628 . S
La121 O148 2.554 . S
La121 O149 2.757 . S
La121 O150 2.470 . S
C122 La120 2.928 . S
C122 C123 1.503 1_655 S
C122 O140 1.261 . S
C122 O141 1.243 . S
C123 C122 1.503 1_455 S
C123 C124 1.394 . S
C123 C128 1.373 . S
C124 C123 1.394 . S
C124 C125 1.380 . S
C124 H152 0.930 . S
C125 C124 1.380 . S
C125 C126 1.376 . S
C125 H153 0.930 . S
C126 C125 1.376 . S
C126 C127 1.370 . S
C127 C126 1.370 . S
C127 C128 1.396 . S
C127 H154 0.929 . S
C128 C123 1.373 . S
C128 C127 1.396 . S
C128 H155 0.929 . S
C129 O142 1.240 . S
C129 O143 1.289 . S
C130 O144 1.258 . S
C130 O145 1.256 . S
C131 La121 2.928 . S
C131 C132 1.503 . S
C131 O146 1.261 . S
C131 O147 1.243 . S
C132 C131 1.503 . S
C132 C133 1.394 . S
C132 C137 1.373 . S
C133 C132 1.394 . S
C133 C134 1.380 . S
C133 H156 0.930 . S
C134 C133 1.380 . S
C134 C135 1.376 . S
C134 H157 0.930 . S
C135 C134 1.376 . S
C135 C136 1.370 . S
C136 C135 1.370 . S
C136 C137 1.396 . S
C136 H158 0.929 . S
C137 C132 1.373 . S
C137 C136 1.396 . S
C137 H159 0.929 . S
C138 O148 1.240 . S
C138 O149 1.289 . S
C139 O150 1.258 . S
C139 O151 1.256 . S
O140 La120 2.521 . S
O140 C122 1.261 . S
O141 La120 2.628 . S
O141 C122 1.243 . S
O142 La120 2.554 . S
O142 C129 1.240 . S
O143 La120 2.757 . S
O143 La121 2.482 . S
O143 C129 1.289 . S
O144 La120 2.470 1_455 S
O144 C130 1.258 . S
O145 La121 2.503 1_455 S
O145 C130 1.256 . S
O146 La121 2.521 . S
O146 C131 1.261 . S
O147 La121 2.628 . S
O147 C131 1.243 . S
O148 La121 2.554 . S
O148 C138 1.240 . S
O149 La120 2.482 . S
O149 La121 2.757 . S
O149 C138 1.289 . S
O150 La121 2.470 . S
O150 C139 1.258 . S
O151 La120 2.503 . S
O151 C139 1.256 . S
H152 C124 0.930 . S
H153 C125 0.930 . S
H154 C127 0.929 . S
H155 C128 0.929 . S
H156 C133 0.930 . S
H157 C134 0.930 . S
H158 C136 0.929 . S
H159 C137 0.929 . S
La160 C162 2.928 . S
La160 O180 2.521 . S
La160 O181 2.628 1_554 S
La160 O182 2.554 . S
La160 O183 2.757 . S
La160 O184 2.470 . S
La160 O189 2.482 1_554 S
La160 O191 2.503 . S
La161 C171 2.928 . S
La161 O183 2.482 . S
La161 O185 2.503 . S
La161 O186 2.521 1_554 S
La161 O187 2.628 . S
La161 O188 2.554 1_554 S
La161 O189 2.757 1_554 S
La161 O190 2.468 1_554 S
C162 La160 2.928 . S
C162 C163 1.503 . S
C162 O180 1.261 . S
C162 O181 1.243 1_554 S
C163 C162 1.503 . S
C163 C164 1.394 . S
C163 C168 1.373 1_554 S
C164 C163 1.394 . S
C164 C165 1.380 . S
C164 H192 0.930 . S
C165 C164 1.380 . S
C165 C166 1.376 . S
C165 H193 0.930 . S
C166 C165 1.376 . S
C166 C167 1.370 1_554 S
C167 C166 1.370 1_556 S
C167 C168 1.396 . S
C167 H194 0.929 . S
C168 C163 1.373 1_556 S
C168 C167 1.396 . S
C168 H195 0.929 . S
C169 O182 1.240 . S
C169 O183 1.289 . S
C170 O184 1.258 . S
C170 O185 1.256 . S
C171 La161 2.928 . S
C171 C172 1.503 . S
C171 O186 1.261 1_554 S
C171 O187 1.243 . S
C172 C171 1.503 . S
C172 C173 1.394 1_554 S
C172 C177 1.373 . S
C173 C172 1.394 1_556 S
C173 C174 1.380 . S
C173 H196 0.930 . S
C174 C173 1.380 . S
C174 C175 1.376 1_556 S
C174 H197 0.930 . S
C175 C174 1.376 1_554 S
C175 C176 1.370 . S
C176 C175 1.370 . S
C176 C177 1.396 . S
C176 H198 0.929 . S
C177 C172 1.373 . S
C177 C176 1.396 . S
C177 H199 0.929 . S
C178 O188 1.240 . S
C178 O189 1.289 . S
C179 O190 1.250 1_554 S
C179 O191 1.256 . S
O180 La160 2.521 . S
O180 C162 1.261 . S
O181 La160 2.628 1_556 S
O181 C162 1.243 1_556 S
O182 La160 2.554 . S
O182 C169 1.240 . S
O183 La160 2.757 . S
O183 La161 2.482 . S
O183 C169 1.289 . S
O184 La160 2.470 . S
O184 C170 1.258 . S
O185 La161 2.503 . S
O185 C170 1.256 . S
O186 La161 2.521 1_556 S
O186 C171 1.261 1_556 S
O187 La161 2.628 . S
O187 C171 1.243 . S
O188 La161 2.554 1_556 S
O188 C178 1.240 . S
O189 La160 2.482 1_556 S
O189 La161 2.757 1_556 S
O189 C178 1.289 . S
O190 La161 2.468 1_556 S
O190 C179 1.250 1_556 S
O191 La160 2.503 . S
O191 C179 1.256 . S
H192 C164 0.930 . S
H193 C165 0.930 . S
H194 C167 0.929 . S
H195 C168 0.929 . S
H196 C173 0.930 . S
H197 C174 0.930 . S
H198 C176 0.929 . S
H199 C177 0.929 . S
La200 C202 2.928 . S
La200 O220 2.521 . S
La200 O221 2.628 1_554 S
La200 O222 2.554 . S
La200 O223 2.757 . S
La200 O224 2.470 . S
La200 O229 2.482 1_554 S
La200 O231 2.503 . S
La201 C211 2.928 . S
La201 O223 2.482 . S
La201 O225 2.503 . S
La201 O226 2.521 1_554 S
La201 O227 2.628 . S
La201 O228 2.554 1_554 S
La201 O229 2.757 1_554 S
La201 O230 2.470 . S
C202 La200 2.928 . S
C202 C203 1.503 . S
C202 O220 1.261 . S
C202 O221 1.243 1_554 S
C203 C202 1.503 . S
C203 C204 1.394 . S
C203 C208 1.373 1_554 S
C204 C203 1.394 . S
C204 C205 1.380 . S
C204 H232 0.930 . S
C205 C204 1.380 . S
C205 C206 1.376 . S
C205 H233 0.930 . S
C206 C205 1.376 . S
C206 C207 1.370 1_554 S
C207 C206 1.370 1_556 S
C207 C208 1.396 . S
C207 H234 0.929 . S
C208 C203 1.373 1_556 S
C208 C207 1.396 . S
C208 H235 0.929 . S
C209 O222 1.240 . S
C209 O223 1.289 . S
C210 O224 1.258 . S
C210 O225 1.256 . S
C211 La201 2.928 . S
C211 C212 1.503 . S
C211 O226 1.261 1_554 S
C211 O227 1.243 . S
C212 C211 1.503 . S
C212 C213 1.394 1_554 S
C212 C217 1.373 . S
C213 C212 1.394 1_556 S
C213 C214 1.380 . S
C213 H236 0.930 . S
C214 C213 1.380 . S
C214 C215 1.376 1_556 S
C214 H237 0.930 . S
C215 C214 1.376 1_554 S
C215 C216 1.370 . S
C216 C215 1.370 . S
C216 C217 1.396 . S
C216 H238 0.929 . S
C217 C212 1.373 . S
C217 C216 1.396 . S
C217 H239 0.929 . S
C218 O228 1.240 . S
C218 O229 1.289 . S
C219 O230 1.258 . S
C219 O231 1.256 . S
O220 La200 2.521 . S
O220 C202 1.261 . S
O221 La200 2.628 1_556 S
O221 C202 1.243 1_556 S
O222 La200 2.554 . S
O222 C209 1.240 . S
O223 La200 2.757 . S
O223 La201 2.482 . S
O223 C209 1.289 . S
O224 La200 2.470 . S
O224 C210 1.258 . S
O225 La201 2.503 . S
O225 C210 1.256 . S
O226 La201 2.521 1_556 S
O226 C211 1.261 1_556 S
O227 La201 2.628 . S
O227 C211 1.243 . S
O228 La201 2.554 1_556 S
O228 C218 1.240 . S
O229 La200 2.482 1_556 S
O229 La201 2.757 1_556 S
O229 C218 1.289 . S
O230 La201 2.470 . S
O230 C219 1.258 . S
O231 La200 2.503 . S
O231 C219 1.256 . S
H232 C204 0.930 . S
H233 C205 0.930 . S
H234 C207 0.929 . S
H235 C208 0.929 . S
H236 C213 0.930 . S
H237 C214 0.930 . S
H238 C216 0.929 . S
H239 C217 0.929 . S
La240 C242 2.928 . S
La240 O260 2.521 . S
La240 O261 2.628 . S
La240 O262 2.554 . S
La240 O263 2.757 . S
La240 O264 2.470 . S
La240 O269 2.482 . S
La240 O271 2.503 . S
La241 C251 2.928 . S
La241 O263 2.482 . S
La241 O265 2.503 . S
La241 O266 2.521 . S
La241 O267 2.628 . S
La241 O268 2.554 . S
La241 O269 2.757 . S
La241 O270 2.470 . S
C242 La240 2.928 . S
C242 C243 1.503 . S
C242 O260 1.261 . S
C242 O261 1.243 . S
C243 C242 1.503 . S
C243 C244 1.394 . S
C243 C248 1.373 . S
C244 C243 1.394 . S
C244 C245 1.380 . S
C244 H272 0.930 . S
C245 C244 1.380 . S
C245 C246 1.376 . S
C245 H273 0.930 . S
C246 C245 1.376 . S
C246 C247 1.370 . S
C247 C246 1.370 . S
C247 C248 1.396 . S
C247 H274 0.929 . S
C248 C243 1.373 . S
C248 C247 1.396 . S
C248 H275 0.929 . S
C249 O262 1.240 . S
C249 O263 1.289 . S
C250 O264 1.258 . S
C250 O265 1.256 . S
C251 La241 2.928 . S
C251 C252 1.503 . S
C251 O266 1.261 . S
C251 O267 1.243 . S
C252 C251 1.503 . S
C252 C253 1.394 . S
C252 C257 1.373 . S
C253 C252 1.394 . S
C253 C254 1.380 . S
C253 H276 0.930 . S
C254 C253 1.380 . S
C254 C255 1.376 . S
C254 H277 0.930 . S
C255 C254 1.376 . S
C255 C256 1.370 . S
C256 C255 1.370 . S
C256 C257 1.396 . S
C256 H278 0.929 . S
C257 C252 1.373 . S
C257 C256 1.396 . S
C257 H279 0.929 . S
C258 O268 1.240 . S
C258 O269 1.289 . S
C259 O270 1.258 . S
C259 O271 1.256 . S
O260 La240 2.521 . S
O260 C242 1.261 . S
O261 La240 2.628 . S
O261 C242 1.243 . S
O262 La240 2.554 . S
O262 C249 1.240 . S
O263 La240 2.757 . S
O263 La241 2.482 . S
O263 C249 1.289 . S
O264 La240 2.470 . S
O264 C250 1.258 . S
O265 La241 2.503 . S
O265 C250 1.256 . S
O266 La241 2.521 . S
O266 C251 1.261 . S
O267 La241 2.628 . S
O267 C251 1.243 . S
O268 La241 2.554 . S
O268 C258 1.240 . S
O269 La240 2.482 . S
O269 La241 2.757 . S
O269 C258 1.289 . S
O270 La241 2.470 . S
O270 C259 1.258 . S
O271 La240 2.503 . S
O271 C259 1.256 . S
H272 C244 0.930 . S
H273 C245 0.930 . S
H274 C247 0.929 . S
H275 C248 0.929 . S
H276 C253 0.930 . S
H277 C254 0.930 . S
H278 C256 0.929 . S
H279 C257 0.929 . S
La280 C282 2.928 . S
La280 O300 2.521 . S
La280 O301 2.628 . S
La280 O302 2.554 . S
La280 O303 2.757 . S
La280 O304 2.470 . S
La280 O309 2.482 . S
La280 O311 2.503 . S
La281 C291 2.928 . S
La281 O303 2.482 . S
La281 O305 2.503 . S
La281 O306 2.521 . S
La281 O307 2.628 . S
La281 O308 2.554 . S
La281 O309 2.757 . S
La281 O310 2.470 . S
C282 La280 2.928 . S
C282 C283 1.503 . S
C282 O300 1.261 . S
C282 O301 1.243 . S
C283 C282 1.503 . S
C283 C284 1.394 . S
C283 C288 1.373 . S
C284 C283 1.394 . S
C284 C285 1.380 . S
C284 H312 0.930 . S
C285 C284 1.380 . S
C285 C286 1.376 . S
C285 H313 0.930 . S
C286 C285 1.376 . S
C286 C287 1.370 . S
C287 C286 1.370 . S
C287 C288 1.396 . S
C287 H314 0.929 . S
C288 C283 1.373 . S
C288 C287 1.396 . S
C288 H315 0.929 . S
C289 O302 1.240 . S
C289 O303 1.289 . S
C290 O304 1.258 . S
C290 O305 1.256 . S
C291 La281 2.928 . S
C291 C292 1.503 . S
C291 O306 1.261 . S
C291 O307 1.243 . S
C292 C291 1.503 . S
C292 C293 1.394 . S
C292 C297 1.373 . S
C293 C292 1.394 . S
C293 C294 1.380 . S
C293 H316 0.930 . S
C294 C293 1.380 . S
C294 C295 1.376 . S
C294 H317 0.930 . S
C295 C294 1.376 . S
C295 C296 1.370 . S
C296 C295 1.370 . S
C296 C297 1.396 . S
C296 H318 0.929 . S
C297 C292 1.373 . S
C297 C296 1.396 . S
C297 H319 0.929 . S
C298 O308 1.240 . S
C298 O309 1.289 . S
C299 O310 1.258 . S
C299 O311 1.256 . S
O300 La280 2.521 . S
O300 C282 1.261 . S
O301 La280 2.628 . S
O301 C282 1.243 . S
O302 La280 2.554 . S
O302 C289 1.240 . S
O303 La280 2.757 . S
O303 La281 2.482 . S
O303 C289 1.289 . S
O304 La280 2.470 . S
O304 C290 1.258 . S
O305 La281 2.503 . S
O305 C290 1.256 . S
O306 La281 2.521 . S
O306 C291 1.261 . S
O307 La281 2.628 . S
O307 C291 1.243 . S
O308 La281 2.554 . S
O308 C298 1.240 . S
O309 La280 2.482 . S
O309 La281 2.757 . S
O309 C298 1.289 . S
O310 La281 2.470 . S
O310 C299 1.258 . S
O311 La280 2.503 . S
O311 C299 1.256 . S
H312 C284 0.930 . S
H313 C285 0.930 . S
H314 C287 0.929 . S
H315 C288 0.929 . S
H316 C293 0.930 . S
H317 C294 0.930 . S
H318 C296 0.929 . S
H319 C297 0.929 . S
C320 C321 1.358 . S
C320 C322 1.327 . S
C320 H345 0.939 1_554 S
C321 C320 1.358 . S
C321 C337 1.349 . S
C322 C320 1.327 . S
C322 C341 1.437 . S
C322 H346 0.942 1_554 S
C323 C340 1.574 . S
C323 C342 1.368 . S
C323 H347 0.949 . S
H324 C328 0.941 1_556 S
C325 C326 1.349 . S
C325 C327 1.327 . S
C325 H348 0.950 . S
C326 C325 1.349 . S
C326 C338 1.349 . S
C327 C325 1.327 . S
C327 C343 1.429 . S
C327 H349 0.950 . S
C328 H324 0.941 1_554 S
C328 C336 1.573 . S
C328 C344 1.379 . S
H329 C337 0.950 . S
H330 C335 0.950 . S
H331 C336 0.945 1_556 S
H332 C338 0.950 1_556 S
H333 C339 0.950 1_556 S
H334 C340 0.949 . S
C335 H330 0.950 . S
C335 C337 1.327 . S
C335 C341 1.429 . S
C336 C328 1.573 . S
C336 H331 0.945 1_554 S
C336 C342 1.372 . S
C337 C321 1.349 . S
C337 H329 0.950 . S
C337 C335 1.327 . S
C338 C326 1.349 . S
C338 H332 0.950 1_554 S
C338 C339 1.327 . S
C339 H333 0.950 1_554 S
C339 C338 1.327 . S
C339 C343 1.429 . S
C340 C323 1.574 . S
C340 H334 0.949 . S
C340 C344 1.368 . S
C341 C322 1.437 . S
C341 C335 1.429 . S
C341 C342 1.523 . S
C342 C323 1.368 . S
C342 C336 1.372 . S
C342 C341 1.523 . S
C343 C327 1.429 . S
C343 C339 1.429 . S
C343 C344 1.523 . S
C344 C328 1.379 . S
C344 C340 1.368 . S
C344 C343 1.523 . S
H345 C320 0.939 1_556 S
H346 C322 0.942 1_556 S
H347 C323 0.949 . S
H348 C325 0.950 . S
H349 C327 0.950 . S
C350 C351 1.349 . S
C350 C352 1.327 . S
C350 H375 0.950 . S
C351 C350 1.349 . S
C351 C367 1.349 . S
C352 C350 1.327 . S
C352 C371 1.429 . S
C352 H376 0.950 . S
C353 C370 1.574 . S
C353 C372 1.368 . S
C353 H377 0.949 . S
H354 C358 0.949 . S
C355 C356 1.349 . S
C355 C357 1.327 . S
C355 H378 0.950 . S
C356 C355 1.349 . S
C356 C368 1.349 . S
C357 C355 1.327 . S
C357 C373 1.429 . S
C357 H379 0.950 . S
C358 H354 0.949 . S
C358 C366 1.574 . S
C358 C374 1.368 . S
H359 C367 0.950 . S
H360 C365 0.950 . S
H361 C366 0.949 . S
H362 C368 0.950 . S
H363 C369 0.950 . S
H364 C370 0.949 . S
C365 H360 0.950 . S
C365 C367 1.327 . S
C365 C371 1.429 . S
C366 C358 1.574 . S
C366 H361 0.949 . S
C366 C372 1.368 . S
C367 C351 1.349 . S
C367 H359 0.950 . S
C367 C365 1.327 . S
C368 C356 1.349 . S
C368 H362 0.950 . S
C368 C369 1.327 . S
C369 H363 0.950 . S
C369 C368 1.327 . S
C369 C373 1.429 . S
C370 C353 1.574 . S
C370 H364 0.949 . S
C370 C374 1.368 . S
C371 C352 1.429 . S
C371 C365 1.429 . S
C371 C372 1.523 . S
C372 C353 1.368 . S
C372 C366 1.368 . S
C372 C371 1.523 . S
C373 C357 1.429 . S
C373 C369 1.429 . S
C373 C374 1.523 . S
C374 C358 1.368 . S
C374 C370 1.368 . S
C374 C373 1.523 . S
H375 C350 0.950 . S
H376 C352 0.950 . S
H377 C353 0.949 . S
H378 C355 0.950 . S
H379 C357 0.950 . S
C380 C381 1.349 . S
C380 C382 1.327 . S
C380 H405 0.950 . S
C381 C380 1.349 . S
C381 C397 1.349 . S
C382 C380 1.327 . S
C382 C401 1.429 . S
C382 H406 0.950 . S
C383 C400 1.574 . S
C383 C402 1.368 . S
C383 H407 0.949 . S
H384 C388 0.949 . S
C385 C386 1.349 . S
C385 C387 1.327 . S
C385 H408 0.950 . S
C386 C385 1.349 . S
C386 C398 1.349 . S
C387 C385 1.327 . S
C387 C403 1.429 . S
C387 H409 0.950 . S
C388 H384 0.949 . S
C388 C396 1.574 . S
C388 C404 1.368 . S
H389 C397 0.950 . S
H390 C395 0.950 . S
H391 C396 0.949 . S
H392 C398 0.950 . S
H393 C399 0.950 . S
H394 C400 0.949 . S
C395 H390 0.950 . S
C395 C397 1.327 . S
C395 C401 1.429 . S
C396 C388 1.574 . S
C396 H391 0.949 . S
C396 C402 1.368 . S
C397 C381 1.349 . S
C397 H389 0.950 . S
C397 C395 1.327 . S
C398 C386 1.349 . S
C398 H392 0.950 . S
C398 C399 1.327 . S
C399 H393 0.950 . S
C399 C398 1.327 . S
C399 C403 1.429 . S
C400 C383 1.574 . S
C400 H394 0.949 . S
C400 C404 1.368 . S
C401 C382 1.429 . S
C401 C395 1.429 . S
C401 C402 1.523 . S
C402 C383 1.368 . S
C402 C396 1.368 . S
C402 C401 1.523 . S
C403 C387 1.429 . S
C403 C399 1.429 . S
C403 C404 1.523 . S
C404 C388 1.368 . S
C404 C400 1.368 . S
C404 C403 1.523 . S
H405 C380 0.950 . S
H406 C382 0.950 . S
H407 C383 0.949 . S
H408 C385 0.950 . S
H409 C387 0.950 . S
C410 C411 1.349 . S
C410 C412 1.327 . S
C410 H435 0.950 . S
C411 C410 1.349 . S
C411 C427 1.349 . S
C412 C410 1.327 . S
C412 C431 1.429 . S
C412 H436 0.950 . S
C413 C430 1.574 . S
C413 C432 1.368 . S
C413 H437 0.949 . S
H414 C418 0.949 . S
C415 C416 1.349 . S
C415 C417 1.327 . S
C415 H438 0.950 . S
C416 C415 1.349 . S
C416 C428 1.349 . S
C417 C415 1.327 . S
C417 C433 1.429 . S
C417 H439 0.950 . S
C418 H414 0.949 . S
C418 C426 1.574 . S
C418 C434 1.368 . S
H419 C427 0.950 . S
H420 C425 0.950 . S
H421 C426 0.949 . S
H422 C428 0.950 . S
H423 C429 0.950 . S
H424 C430 0.949 . S
C425 H420 0.950 . S
C425 C427 1.327 . S
C425 C431 1.429 . S
C426 C418 1.574 . S
C426 H421 0.949 . S
C426 C432 1.368 . S
C427 C411 1.349 . S
C427 H419 0.950 . S
C427 C425 1.327 . S
C428 C416 1.349 . S
C428 H422 0.950 . S
C428 C429 1.327 . S
C429 H423 0.950 . S
C429 C428 1.327 . S
C429 C433 1.429 . S
C430 C413 1.574 . S
C430 H424 0.949 . S
C430 C434 1.368 . S
C431 C412 1.429 . S
C431 C425 1.429 . S
C431 C432 1.523 . S
C432 C413 1.368 . S
C432 C426 1.368 . S
C432 C431 1.523 . S
C433 C417 1.429 . S
C433 C429 1.429 . S
C433 C434 1.523 . S
C434 C418 1.368 . S
C434 C430 1.368 . S
C434 C433 1.523 . S
H435 C410 0.950 . S
H436 C412 0.950 . S
H437 C413 0.949 . S
H438 C415 0.950 . S
H439 C417 0.950 . S
C440 C441 1.349 1_556 S
C440 C442 1.327 . S
C440 H465 0.950 . S
C441 C440 1.349 1_554 S
C441 C457 1.349 . S
C442 C440 1.327 . S
C442 C461 1.429 1_556 S
C442 H466 0.950 . S
C443 C460 1.574 . S
C443 C462 1.366 1_455 S
C443 H467 0.949 . S
H444 C448 0.949 . S
C445 C446 1.349 . S
C445 C447 1.327 . S
C445 H468 0.950 . S
C446 C445 1.349 . S
C446 C458 1.349 1_554 S
C447 C445 1.327 . S
C447 C463 1.429 . S
C447 H469 0.950 . S
C448 H444 0.949 . S
C448 C456 1.574 . S
C448 C464 1.368 1_556 S
H449 C457 0.950 . S
H450 C455 0.950 . S
H451 C456 0.949 1_655 S
H452 C458 0.950 . S
H453 C459 0.950 . S
H454 C460 0.949 . S
C455 H450 0.950 . S
C455 C457 1.327 . S
C455 C461 1.429 . S
C456 C448 1.574 . S
C456 H451 0.949 1_455 S
C456 C462 1.367 1_456 S
C457 C441 1.349 . S
C457 H449 0.950 . S
C457 C455 1.327 . S
C458 C446 1.349 1_556 S
C458 H452 0.950 . S
C458 C459 1.327 . S
C459 H453 0.950 . S
C459 C458 1.327 . S
C459 C463 1.429 1_556 S
C460 C443 1.574 . S
C460 H454 0.949 . S
C460 C464 1.368 . S
C461 C442 1.429 1_554 S
C461 C455 1.429 . S
C461 C462 1.527 . S
C462 C443 1.366 1_655 S
C462 C456 1.367 1_654 S
C462 C461 1.527 . S
C463 C447 1.429 . S
C463 C459 1.429 1_554 S
C463 C464 1.523 . S
C464 C448 1.368 1_554 S
C464 C460 1.368 . S
C464 C463 1.523 . S
H465 C440 0.950 . S
H466 C442 0.950 . S
H467 C443 0.949 . S
H468 C445 0.950 . S
H469 C447 0.950 . S
C470 C471 1.349 1_556 S
C470 C472 1.327 . S
C470 H495 0.950 . S
C471 C470 1.349 1_554 S
C471 C487 1.349 . S
C472 C470 1.327 . S
C472 C491 1.429 1_556 S
C472 H496 0.950 . S
C473 C490 1.574 . S
C473 C492 1.366 1_655 S
C473 H497 0.949 . S
H474 C478 0.949 . S
C475 C476 1.349 . S
C475 C477 1.327 . S
C475 H498 0.950 . S
C476 C475 1.349 . S
C476 C488 1.349 1_554 S
C477 C475 1.327 . S
C477 C493 1.429 . S
C477 H499 0.950 . S
C478 H474 0.949 . S
C478 C486 1.574 . S
C478 C494 1.368 1_556 S
H479 C487 0.950 . S
H480 C485 0.950 . S
H481 C486 0.949 1_455 S
H482 C488 0.950 . S
H483 C489 0.950 . S
H484 C490 0.949 . S
C485 H480 0.950 . S
C485 C487 1.327 . S
C485 C491 1.429 . S
C486 C478 1.574 . S
C486 H481 0.949 1_655 S
C486 C492 1.366 1_656 S
C487 C471 1.349 . S
C487 H479 0.950 . S
C487 C485 1.327 . S
C488 C476 1.349 1_556 S
C488 H482 0.950 . S
C488 C489 1.327 . S
C489 H483 0.950 . S
C489 C488 1.327 . S
C489 C493 1.429 1_556 S
C490 C473 1.574 . S
C490 H484 0.949 . S
C490 C494 1.368 . S
C491 C472 1.429 1_554 S
C491 C485 1.429 . S
C491 C492 1.529 . S
C492 C473 1.366 1_455 S
C492 C486 1.366 1_454 S
C492 C491 1.529 . S
C493 C477 1.429 . S
C493 C489 1.429 1_554 S
C493 C494 1.523 . S
C494 C478 1.368 1_554 S
C494 C490 1.368 . S
C494 C493 1.523 . S
H495 C470 0.950 . S
H496 C472 0.950 . S
H497 C473 0.949 . S
H498 C475 0.950 . S
H499 C477 0.950 . S
C500 C501 1.349 . S
C500 C502 1.327 . S
C500 H525 0.950 . S
C501 C500 1.349 . S
C501 C517 1.349 . S
C502 C500 1.327 . S
C502 C521 1.429 . S
C502 H526 0.950 . S
C503 C520 1.574 . S
C503 C522 1.368 . S
C503 H527 0.949 . S
H504 C508 0.949 1_655 S
C505 C506 1.349 . S
C505 C507 1.327 . S
C505 H528 0.950 . S
C506 C505 1.349 . S
C506 C518 1.349 . S
C507 C505 1.327 . S
C507 C523 1.429 . S
C507 H529 0.950 . S
C508 H504 0.949 1_455 S
C508 C516 1.574 . S
C508 C524 1.366 1_455 S
H509 C517 0.950 . S
H510 C515 0.950 . S
H511 C516 0.949 . S
H512 C518 0.950 . S
H513 C519 0.950 . S
H514 C520 0.949 . S
C515 H510 0.950 . S
C515 C517 1.327 . S
C515 C521 1.429 . S
C516 C508 1.574 . S
C516 H511 0.949 . S
C516 C522 1.368 . S
C517 C501 1.349 . S
C517 H509 0.950 . S
C517 C515 1.327 . S
C518 C506 1.349 . S
C518 H512 0.950 . S
C518 C519 1.327 . S
C519 H513 0.950 . S
C519 C518 1.327 . S
C519 C523 1.429 . S
C520 C503 1.574 . S
C520 H514 0.949 . S
C520 C524 1.365 1_455 S
C521 C502 1.429 . S
C521 C515 1.429 . S
C521 C522 1.523 . S
C522 C503 1.368 . S
C522 C516 1.368 . S
C522 C521 1.523 . S
C523 C507 1.429 . S
C523 C519 1.429 . S
C523 C524 1.531 . S
C524 C508 1.366 1_655 S
C524 C520 1.365 1_655 S
C524 C523 1.531 . S
H525 C500 0.950 . S
H526 C502 0.950 . S
H527 C503 0.949 . S
H528 C505 0.950 . S
H529 C507 0.950 . S
C530 C531 1.349 . S
C530 C532 1.327 . S
C530 H555 0.950 . S
C531 C530 1.349 . S
C531 C547 1.349 . S
C532 C530 1.327 . S
C532 C551 1.429 . S
C532 H556 0.950 . S
C533 C550 1.574 . S
C533 C552 1.368 . S
C533 H557 0.949 . S
H534 C538 0.949 . S
C535 C536 1.349 . S
C535 C537 1.327 . S
C535 H558 0.950 . S
C536 C535 1.349 . S
C536 C548 1.349 . S
C537 C535 1.327 . S
C537 C553 1.429 . S
C537 H559 0.950 . S
C538 H534 0.949 . S
C538 C546 1.574 . S
C538 C554 1.365 1_655 S
H539 C547 0.950 . S
H540 C545 0.950 . S
H541 C546 0.949 . S
H542 C548 0.950 . S
H543 C549 0.950 . S
H544 C550 0.949 1_455 S
C545 H540 0.950 . S
C545 C547 1.327 . S
C545 C551 1.429 . S
C546 C538 1.574 . S
C546 H541 0.949 . S
C546 C552 1.368 . S
C547 C531 1.349 . S
C547 H539 0.950 . S
C547 C545 1.327 . S
C548 C536 1.349 . S
C548 H542 0.950 . S
C548 C549 1.327 . S
C549 H543 0.950 . S
C549 C548 1.327 . S
C549 C553 1.429 . S
C550 C533 1.574 . S
C550 H544 0.949 1_655 S
C550 C554 1.366 1_655 S
C551 C532 1.429 . S
C551 C545 1.429 . S
C551 C552 1.523 . S
C552 C533 1.368 . S
C552 C546 1.368 . S
C552 C551 1.523 . S
C553 C537 1.429 . S
C553 C549 1.429 . S
C553 C554 1.530 . S
C554 C538 1.365 1_455 S
C554 C550 1.366 1_455 S
C554 C553 1.530 . S
H555 C530 0.950 . S
H556 C532 0.950 . S
H557 C533 0.949 . S
H558 C535 0.950 . S
H559 C537 0.950 . S
C560 C561 1.349 1_556 S
C560 C562 1.327 . S
C560 H585 0.950 . S
C561 C560 1.349 1_554 S
C561 C577 1.349 . S
C562 C560 1.327 . S
C562 C581 1.429 1_556 S
C562 H586 0.950 . S
C563 C580 1.574 . S
C563 C582 1.368 1_655 S
C563 H587 0.949 . S
H564 C568 0.949 . S
C565 C566 1.349 . S
C565 C567 1.327 . S
C565 H588 0.950 . S
C566 C565 1.349 . S
C566 C578 1.349 1_554 S
C567 C565 1.327 . S
C567 C583 1.429 . S
C567 H589 0.950 . S
C568 H564 0.949 . S
C568 C576 1.574 . S
C568 C584 1.368 1_456 S
H569 C577 0.950 . S
H570 C575 0.950 1_655 S
H571 C576 0.949 . S
H572 C578 0.950 . S
H573 C579 0.950 1_455 S
H574 C580 0.949 . S
C575 H570 0.950 1_455 S
C575 C577 1.327 . S
C575 C581 1.429 . S
C576 C568 1.574 . S
C576 H571 0.949 . S
C576 C582 1.368 1_556 S
C577 C561 1.349 . S
C577 H569 0.950 . S
C577 C575 1.327 . S
C578 C566 1.349 1_556 S
C578 H572 0.950 . S
C578 C579 1.327 . S
C579 H573 0.950 1_655 S
C579 C578 1.327 . S
C579 C583 1.429 1_556 S
C580 C563 1.574 . S
C580 H574 0.949 . S
C580 C584 1.368 . S
C581 C562 1.429 1_554 S
C581 C575 1.429 . S
C581 C582 1.523 . S
C582 C563 1.368 1_455 S
C582 C576 1.368 1_554 S
C582 C581 1.523 . S
C583 C567 1.429 . S
C583 C579 1.429 1_554 S
C583 C584 1.523 . S
C584 C568 1.368 1_654 S
C584 C580 1.368 . S
C584 C583 1.523 . S
H585 C560 0.950 . S
H586 C562 0.950 . S
H587 C563 0.949 . S
H588 C565 0.950 . S
H589 C567 0.950 . S
C590 C591 1.349 . S
C590 C592 1.327 . S
C590 H615 0.950 . S
C591 C590 1.349 . S
C591 C607 1.349 . S
C592 C590 1.327 . S
C592 C611 1.429 . S
C592 H616 0.950 1_455 S
C593 C610 1.574 . S
C593 C612 1.368 . S
C593 H617 0.949 . S
H594 C598 0.949 . S
C595 C596 1.349 . S
C595 C597 1.327 . S
C595 H618 0.950 . S
C596 C595 1.349 . S
C596 C608 1.349 . S
C597 C595 1.327 . S
C597 C613 1.429 . S
C597 H619 0.950 1_655 S
C598 H594 0.949 . S
C598 C606 1.574 . S
C598 C614 1.368 . S
H599 C607 0.950 . S
H600 C605 0.950 . S
H601 C606 0.949 . S
H602 C608 0.950 . S
H603 C609 0.950 . S
H604 C610 0.949 . S
C605 H600 0.950 . S
C605 C607 1.327 . S
C605 C611 1.429 . S
C606 C598 1.574 . S
C606 H601 0.949 . S
C606 C612 1.368 1_655 S
C607 C591 1.349 . S
C607 H599 0.950 . S
C607 C605 1.327 . S
C608 C596 1.349 . S
C608 H602 0.950 . S
C608 C609 1.327 . S
C609 H603 0.950 . S
C609 C608 1.327 . S
C609 C613 1.429 . S
C610 C593 1.574 . S
C610 H604 0.949 . S
C610 C614 1.368 1_455 S
C611 C592 1.429 . S
C611 C605 1.429 . S
C611 C612 1.523 . S
C612 C593 1.368 . S
C612 C606 1.368 1_455 S
C612 C611 1.523 . S
C613 C597 1.429 . S
C613 C609 1.429 . S
C613 C614 1.523 . S
C614 C598 1.368 . S
C614 C610 1.368 1_655 S
C614 C613 1.523 . S
H615 C590 0.950 . S
H616 C592 0.950 1_655 S
H617 C593 0.949 . S
H618 C595 0.950 . S
H619 C597 0.950 1_455 S
C620 C621 1.349 1_556 S
C620 C622 1.327 . S
C620 H645 0.950 . S
C621 C620 1.349 1_554 S
C621 C637 1.349 . S
C622 C620 1.327 . S
C622 C641 1.429 1_556 S
C622 H646 0.950 . S
C623 C640 1.574 1_565 S
C623 C642 1.368 . S
C623 H647 0.949 . S
H624 C628 0.949 . S
C625 C626 1.349 . S
C625 C627 1.327 . S
C625 H648 0.950 . S
C626 C625 1.349 . S
C626 C638 1.349 1_554 S
C627 C625 1.327 . S
C627 C643 1.429 . S
C627 H649 0.950 . S
C628 H624 0.949 . S
C628 C636 1.574 1_545 S
C628 C644 1.368 1_556 S
H629 C637 0.950 . S
H630 C635 0.950 . S
H631 C636 0.949 . S
H632 C638 0.950 . S
H633 C639 0.950 . S
H634 C640 0.949 . S
C635 H630 0.950 . S
C635 C637 1.327 . S
C635 C641 1.429 . S
C636 C628 1.574 1_565 S
C636 H631 0.949 . S
C636 C642 1.368 1_556 S
C637 C621 1.349 . S
C637 H629 0.950 . S
C637 C635 1.327 . S
C638 C626 1.349 1_556 S
C638 H632 0.950 . S
C638 C639 1.327 . S
C639 H633 0.950 . S
C639 C638 1.327 . S
C639 C643 1.429 1_556 S
C640 C623 1.574 1_545 S
C640 H634 0.949 . S
C640 C644 1.368 . S
C641 C622 1.429 1_554 S
C641 C635 1.429 . S
C641 C642 1.523 . S
C642 C623 1.368 . S
C642 C636 1.368 1_554 S
C642 C641 1.523 . S
C643 C627 1.429 . S
C643 C639 1.429 1_554 S
C643 C644 1.523 . S
C644 C628 1.368 1_554 S
C644 C640 1.368 . S
C644 C643 1.523 . S
H645 C620 0.950 . S
H646 C622 0.950 . S
H647 C623 0.949 . S
H648 C625 0.950 . S
H649 C627 0.950 . S
C650 C651 1.349 . S
C650 C652 1.327 . S
C650 H675 0.950 . S
C651 C650 1.349 . S
C651 C667 1.349 . S
C652 C650 1.327 . S
C652 C671 1.429 . S
C652 H676 0.950 . S
C653 C670 1.574 1_545 S
C653 C672 1.368 . S
C653 H677 0.949 . S
H654 C658 0.949 . S
C655 C656 1.349 . S
C655 C657 1.327 . S
C655 H678 0.950 . S
C656 C655 1.349 . S
C656 C668 1.349 . S
C657 C655 1.327 . S
C657 C673 1.429 . S
C657 H679 0.950 . S
C658 H654 0.949 . S
C658 C666 1.574 1_565 S
C658 C674 1.368 . S
H659 C667 0.950 . S
H660 C665 0.950 . S
H661 C666 0.949 . S
H662 C668 0.950 . S
H663 C669 0.950 . S
H664 C670 0.949 . S
C665 H660 0.950 . S
C665 C667 1.327 . S
C665 C671 1.429 . S
C666 C658 1.574 1_545 S
C666 H661 0.949 . S
C666 C672 1.368 . S
C667 C651 1.349 . S
C667 H659 0.950 . S
C667 C665 1.327 . S
C668 C656 1.349 . S
C668 H662 0.950 . S
C668 C669 1.327 . S
C669 H663 0.950 . S
C669 C668 1.327 . S
C669 C673 1.429 . S
C670 C653 1.574 1_565 S
C670 H664 0.949 . S
C670 C674 1.368 . S
C671 C652 1.429 . S
C671 C665 1.429 . S
C671 C672 1.523 . S
C672 C653 1.368 . S
C672 C666 1.368 . S
C672 C671 1.523 . S
C673 C657 1.429 . S
C673 C669 1.429 . S
C673 C674 1.523 . S
C674 C658 1.368 . S
C674 C670 1.368 . S
C674 C673 1.523 . S
H675 C650 0.950 . S
H676 C652 0.950 . S
H677 C653 0.949 . S
H678 C655 0.950 . S
H679 C657 0.950 . S
C680 C681 1.349 . S
C680 C682 1.327 . S
C680 H705 0.950 . S
C681 C680 1.349 . S
C681 C697 1.349 1_554 S
C682 C680 1.327 . S
C682 C701 1.429 . S
C682 H706 0.950 . S
C683 C700 1.574 . S
C683 C702 1.368 1_556 S
C683 H707 0.949 . S
H684 C688 0.949 . S
C685 C686 1.349 1_556 S
C685 C687 1.327 . S
C685 H708 0.950 . S
C686 C685 1.349 1_554 S
C686 C698 1.349 . S
C687 C685 1.327 . S
C687 C703 1.429 1_556 S
C687 H709 0.950 . S
C688 H684 0.949 . S
C688 C696 1.574 . S
C688 C704 1.368 . S
H689 C697 0.950 . S
H690 C695 0.950 . S
H691 C696 0.949 . S
H692 C698 0.950 . S
H693 C699 0.950 . S
H694 C700 0.949 . S
C695 H690 0.950 . S
C695 C697 1.327 . S
C695 C701 1.429 1_556 S
C696 C688 1.574 . S
C696 H691 0.949 . S
C696 C702 1.368 . S
C697 C681 1.349 1_556 S
C697 H689 0.950 . S
C697 C695 1.327 . S
C698 C686 1.349 . S
C698 H692 0.950 . S
C698 C699 1.327 . S
C699 H693 0.950 . S
C699 C698 1.327 . S
C699 C703 1.429 . S
C700 C683 1.574 . S
C700 H694 0.949 . S
C700 C704 1.368 1_556 S
C701 C682 1.429 . S
C701 C695 1.429 1_554 S
C701 C702 1.523 . S
C702 C683 1.368 1_554 S
C702 C696 1.368 . S
C702 C701 1.523 . S
C703 C687 1.429 1_554 S
C703 C699 1.429 . S
C703 C704 1.523 . S
C704 C688 1.368 . S
C704 C700 1.368 1_554 S
C704 C703 1.523 . S
H705 C680 0.950 . S
H706 C682 0.950 . S
H707 C683 0.949 . S
H708 C685 0.950 . S
H709 C687 0.950 . S
C710 C711 1.349 1_556 S
C710 C712 1.327 . S
C710 H735 0.950 . S
C711 C710 1.349 1_554 S
C711 C727 1.349 . S
C712 C710 1.327 . S
C712 C731 1.429 1_556 S
C712 H736 0.950 . S
C713 C730 1.574 . S
C713 C732 1.368 . S
C713 H737 0.949 . S
H714 C718 0.949 . S
C715 C716 1.349 . S
C715 C717 1.327 . S
C715 H738 0.950 . S
C716 C715 1.349 . S
C716 C728 1.349 1_554 S
C717 C715 1.327 . S
C717 C733 1.429 . S
C717 H739 0.950 . S
C718 H714 0.949 . S
C718 C726 1.574 . S
C718 C734 1.368 1_556 S
H719 C727 0.950 . S
H720 C725 0.950 . S
H721 C726 0.949 . S
H722 C728 0.950 . S
H723 C729 0.950 . S
H724 C730 0.949 . S
C725 H720 0.950 . S
C725 C727 1.327 . S
C725 C731 1.429 . S
C726 C718 1.574 . S
C726 H721 0.949 . S
C726 C732 1.368 1_556 S
C727 C711 1.349 . S
C727 H719 0.950 . S
C727 C725 1.327 . S
C728 C716 1.349 1_556 S
C728 H722 0.950 . S
C728 C729 1.327 . S
C729 H723 0.950 . S
C729 C728 1.327 . S
C729 C733 1.429 1_556 S
C730 C713 1.574 . S
C730 H724 0.949 . S
C730 C734 1.368 . S
C731 C712 1.429 1_554 S
C731 C725 1.429 . S
C731 C732 1.523 . S
C732 C713 1.368 . S
C732 C726 1.368 1_554 S
C732 C731 1.523 . S
C733 C717 1.429 . S
C733 C729 1.429 1_554 S
C733 C734 1.523 . S
C734 C718 1.368 1_554 S
C734 C730 1.368 . S
C734 C733 1.523 . S
H735 C710 0.950 . S
H736 C712 0.950 . S
H737 C713 0.949 . S
H738 C715 0.950 . S
H739 C717 0.950 . S
C740 C741 1.349 . S
C740 C742 1.327 . S
C740 H765 0.950 . S
C741 C740 1.349 . S
C741 C757 1.349 . S
C742 C740 1.327 . S
C742 C761 1.429 . S
C742 H766 0.950 . S
C743 C760 1.574 . S
C743 C762 1.368 . S
C743 H767 0.949 . S
H744 C748 0.949 . S
C745 C746 1.349 . S
C745 C747 1.327 . S
C745 H768 0.950 . S
C746 C745 1.349 . S
C746 C758 1.349 . S
C747 C745 1.327 . S
C747 C763 1.429 . S
C747 H769 0.950 . S
C748 H744 0.949 . S
C748 C756 1.574 . S
C748 C764 1.368 . S
H749 C757 0.950 . S
H750 C755 0.950 . S
H751 C756 0.949 . S
H752 C758 0.950 . S
H753 C759 0.950 . S
H754 C760 0.949 . S
C755 H750 0.950 . S
C755 C757 1.327 . S
C755 C761 1.429 . S
C756 C748 1.574 . S
C756 H751 0.949 . S
C756 C762 1.368 . S
C757 C741 1.349 . S
C757 H749 0.950 . S
C757 C755 1.327 . S
C758 C746 1.349 . S
C758 H752 0.950 . S
C758 C759 1.327 . S
C759 H753 0.950 . S
C759 C758 1.327 . S
C759 C763 1.429 . S
C760 C743 1.574 . S
C760 H754 0.949 . S
C760 C764 1.368 . S
C761 C742 1.429 . S
C761 C755 1.429 . S
C761 C762 1.523 . S
C762 C743 1.368 . S
C762 C756 1.368 . S
C762 C761 1.523 . S
C763 C747 1.429 . S
C763 C759 1.429 . S
C763 C764 1.523 . S
C764 C748 1.368 . S
C764 C760 1.368 . S
C764 C763 1.523 . S
H765 C740 0.950 . S
H766 C742 0.950 . S
H767 C743 0.949 . S
H768 C745 0.950 . S
H769 C747 0.950 . S
C770 C771 1.349 . S
C770 C772 1.327 . S
C770 H795 0.950 . S
C771 C770 1.349 . S
C771 C787 1.349 . S
C772 C770 1.327 . S
C772 C791 1.429 . S
C772 H796 0.950 . S
C773 C790 1.574 . S
C773 C792 1.368 . S
C773 H797 0.949 . S
H774 C778 0.949 . S
C775 C776 1.349 . S
C775 C777 1.327 . S
C775 H798 0.950 . S
C776 C775 1.349 . S
C776 C788 1.349 . S
C777 C775 1.327 . S
C777 C793 1.429 . S
C777 H799 0.950 . S
C778 H774 0.949 . S
C778 C786 1.574 . S
C778 C794 1.368 . S
H779 C787 0.950 . S
H780 C785 0.950 . S
H781 C786 0.949 . S
H782 C788 0.950 . S
H783 C789 0.950 . S
H784 C790 0.949 . S
C785 H780 0.950 . S
C785 C787 1.327 . S
C785 C791 1.429 . S
C786 C778 1.574 . S
C786 H781 0.949 . S
C786 C792 1.368 . S
C787 C771 1.349 . S
C787 H779 0.950 . S
C787 C785 1.327 . S
C788 C776 1.349 . S
C788 H782 0.950 . S
C788 C789 1.327 . S
C789 H783 0.950 . S
C789 C788 1.327 . S
C789 C793 1.429 . S
C790 C773 1.574 . S
C790 H784 0.949 . S
C790 C794 1.368 . S
C791 C772 1.429 . S
C791 C785 1.429 . S
C791 C792 1.523 . S
C792 C773 1.368 . S
C792 C786 1.368 . S
C792 C791 1.523 . S
C793 C777 1.429 . S
C793 C789 1.429 . S
C793 C794 1.523 . S
C794 C778 1.368 . S
C794 C790 1.368 . S
C794 C793 1.523 . S
H795 C770 0.950 . S
H796 C772 0.950 . S
H797 C773 0.949 . S
H798 C775 0.950 . S
H799 C777 0.950 . S
C800 C801 1.349 . S
C800 C802 1.327 . S
C800 H825 0.950 . S
C801 C800 1.349 . S
C801 C817 1.349 . S
C802 C800 1.327 . S
C802 C821 1.429 . S
C802 H826 0.950 . S
C803 C820 1.574 . S
C803 C822 1.368 1_655 S
C803 H827 0.949 . S
H804 C808 0.949 . S
C805 C806 1.349 . S
C805 C807 1.327 . S
C805 H828 0.950 . S
C806 C805 1.349 . S
C806 C818 1.349 . S
C807 C805 1.327 . S
C807 C823 1.429 . S
C807 H829 0.950 . S
C808 H804 0.949 . S
C808 C816 1.574 . S
C808 C824 1.368 1_455 S
H809 C817 0.950 1_655 S
H810 C815 0.950 1_655 S
H811 C816 0.949 . S
H812 C818 0.950 1_455 S
H813 C819 0.950 1_455 S
H814 C820 0.949 . S
C815 H810 0.950 1_455 S
C815 C817 1.327 . S
C815 C821 1.429 . S
C816 C808 1.574 . S
C816 H811 0.949 . S
C816 C822 1.368 . S
C817 C801 1.349 . S
C817 H809 0.950 1_455 S
C817 C815 1.327 . S
C818 C806 1.349 . S
C818 H812 0.950 1_655 S
C818 C819 1.327 . S
C819 H813 0.950 1_655 S
C819 C818 1.327 . S
C819 C823 1.429 . S
C820 C803 1.574 . S
C820 H814 0.949 . S
C820 C824 1.368 . S
C821 C802 1.429 . S
C821 C815 1.429 . S
C821 C822 1.523 . S
C822 C803 1.368 1_455 S
C822 C816 1.368 . S
C822 C821 1.523 . S
C823 C807 1.429 . S
C823 C819 1.429 . S
C823 C824 1.523 . S
C824 C808 1.368 1_655 S
C824 C820 1.368 . S
C824 C823 1.523 . S
H825 C800 0.950 . S
H826 C802 0.950 . S
H827 C803 0.949 . S
H828 C805 0.950 . S
H829 C807 0.950 . S
C830 C831 1.349 . S
C830 C832 1.327 . S
C830 H855 0.950 . S
C831 C830 1.349 . S
C831 C847 1.349 . S
C832 C830 1.327 . S
C832 C851 1.429 . S
C832 H856 0.950 . S
C833 C850 1.574 . S
C833 C852 1.368 1_455 S
C833 H857 0.949 . S
H834 C838 0.949 . S
C835 C836 1.349 . S
C835 C837 1.327 . S
C835 H858 0.950 . S
C836 C835 1.349 . S
C836 C848 1.349 . S
C837 C835 1.327 . S
C837 C853 1.429 . S
C837 H859 0.950 . S
C838 H834 0.949 . S
C838 C846 1.574 . S
C838 C854 1.368 1_655 S
H839 C847 0.944 1_455 S
H840 C845 0.950 1_455 S
H841 C846 0.949 . S
H842 C848 0.945 1_655 S
H843 C849 0.950 1_655 S
H844 C850 0.949 . S
C845 H840 0.950 1_655 S
C845 C847 1.327 . S
C845 C851 1.429 . S
C846 C838 1.574 . S
C846 H841 0.949 . S
C846 C852 1.368 . S
C847 C831 1.349 . S
C847 H839 0.944 1_655 S
C847 C845 1.327 . S
C848 C836 1.349 . S
C848 H842 0.945 1_455 S
C848 C849 1.327 . S
C849 H843 0.950 1_455 S
C849 C848 1.327 . S
C849 C853 1.429 . S
C850 C833 1.574 . S
C850 H844 0.949 . S
C850 C854 1.368 . S
C851 C832 1.429 . S
C851 C845 1.429 . S
C851 C852 1.523 . S
C852 C833 1.368 1_655 S
C852 C846 1.368 . S
C852 C851 1.523 . S
C853 C837 1.429 . S
C853 C849 1.429 . S
C853 C854 1.523 . S
C854 C838 1.368 1_455 S
C854 C850 1.368 . S
C854 C853 1.523 . S
H855 C830 0.950 . S
H856 C832 0.950 . S
H857 C833 0.949 . S
H858 C835 0.950 . S
H859 C837 0.950 . S
C860 C861 1.349 . S
C860 C862 1.327 . S
C860 H885 0.950 . S
C861 C860 1.349 . S
C861 C877 1.349 . S
C862 C860 1.327 . S
C862 C881 1.429 . S
C862 H886 0.950 . S
C863 C880 1.574 . S
C863 C882 1.368 1_455 S
C863 H887 0.949 . S
H864 C868 0.949 . S
C865 C866 1.349 . S
C865 C867 1.327 . S
C865 H888 0.950 . S
C866 C865 1.349 . S
C866 C878 1.349 . S
C867 C865 1.327 . S
C867 C883 1.429 . S
C867 H889 0.950 . S
C868 H864 0.949 . S
C868 C876 1.574 . S
C868 C884 1.368 1_655 S
H869 C877 0.950 1_455 S
H870 C875 0.950 1_455 S
H871 C876 0.949 . S
H872 C878 0.950 1_655 S
H873 C879 0.950 1_655 S
H874 C880 0.949 . S
C875 H870 0.950 1_655 S
C875 C877 1.327 . S
C875 C881 1.429 . S
C876 C868 1.574 . S
C876 H871 0.949 . S
C876 C882 1.368 . S
C877 C861 1.349 . S
C877 H869 0.950 1_655 S
C877 C875 1.327 . S
C878 C866 1.349 . S
C878 H872 0.950 1_455 S
C878 C879 1.327 . S
C879 H873 0.950 1_455 S
C879 C878 1.327 . S
C879 C883 1.429 . S
C880 C863 1.574 . S
C880 H874 0.949 . S
C880 C884 1.368 . S
C881 C862 1.429 . S
C881 C875 1.429 . S
C881 C882 1.523 . S
C882 C863 1.368 1_655 S
C882 C876 1.368 . S
C882 C881 1.523 . S
C883 C867 1.429 . S
C883 C879 1.429 . S
C883 C884 1.523 . S
C884 C868 1.368 1_455 S
C884 C880 1.368 . S
C884 C883 1.523 . S
H885 C860 0.950 . S
H886 C862 0.950 . S
H887 C863 0.949 . S
H888 C865 0.950 . S
H889 C867 0.950 . S
C890 C891 1.349 . S
C890 C892 1.327 . S
C890 H915 0.945 1_655 S
C891 C890 1.349 . S
C891 C907 1.349 . S
C892 C890 1.327 . S
C892 C911 1.429 . S
C892 H916 0.950 1_655 S
C893 C910 1.574 . S
C893 C912 1.368 . S
C893 H917 0.949 . S
H894 C898 0.949 . S
C895 C896 1.349 . S
C895 C897 1.327 . S
C895 H918 0.944 1_455 S
C896 C895 1.349 . S
C896 C908 1.349 . S
C897 C895 1.327 . S
C897 C913 1.429 . S
C897 H919 0.950 1_455 S
C898 H894 0.949 . S
C898 C906 1.574 . S
C898 C914 1.368 . S
H899 C907 0.950 . S
H900 C905 0.950 . S
H901 C906 0.949 . S
H902 C908 0.950 . S
H903 C909 0.950 . S
H904 C910 0.949 . S
C905 H900 0.950 . S
C905 C907 1.327 . S
C905 C911 1.429 . S
C906 C898 1.574 . S
C906 H901 0.949 . S
C906 C912 1.368 1_455 S
C907 C891 1.349 . S
C907 H899 0.950 . S
C907 C905 1.327 . S
C908 C896 1.349 . S
C908 H902 0.950 . S
C908 C909 1.327 . S
C909 H903 0.950 . S
C909 C908 1.327 . S
C909 C913 1.429 . S
C910 C893 1.574 . S
C910 H904 0.949 . S
C910 C914 1.368 1_655 S
C911 C892 1.429 . S
C911 C905 1.429 . S
C911 C912 1.523 . S
C912 C893 1.368 . S
C912 C906 1.368 1_655 S
C912 C911 1.523 . S
C913 C897 1.429 . S
C913 C909 1.429 . S
C913 C914 1.523 . S
C914 C898 1.368 . S
C914 C910 1.368 1_455 S
C914 C913 1.523 . S
H915 C890 0.945 1_455 S
H916 C892 0.950 1_455 S
H917 C893 0.949 . S
H918 C895 0.944 1_655 S
H919 C897 0.950 1_655 S
C920 C921 1.349 . S
C920 C922 1.327 . S
C920 H945 0.950 . S
C921 C920 1.349 . S
C921 C937 1.349 . S
C922 C920 1.327 . S
C922 C941 1.429 . S
C922 H946 0.950 . S
C923 C940 1.574 . S
C923 C942 1.368 . S
C923 H947 0.949 . S
H924 C928 0.949 . S
C925 C926 1.349 . S
C925 C927 1.327 . S
C925 H948 0.950 . S
C926 C925 1.349 . S
C926 C938 1.349 . S
C927 C925 1.327 . S
C927 C943 1.429 . S
C927 H949 0.950 . S
C928 H924 0.949 . S
C928 C936 1.574 . S
C928 C944 1.368 . S
H929 C937 0.950 . S
H930 C935 0.950 . S
H931 C936 0.949 . S
H932 C938 0.950 . S
H933 C939 0.950 . S
H934 C940 0.949 . S
C935 H930 0.950 . S
C935 C937 1.327 . S
C935 C941 1.429 . S
C936 C928 1.574 . S
C936 H931 0.949 . S
C936 C942 1.368 . S
C937 C921 1.349 . S
C937 H929 0.950 . S
C937 C935 1.327 . S
C938 C926 1.349 . S
C938 H932 0.950 . S
C938 C939 1.327 . S
C939 H933 0.950 . S
C939 C938 1.327 . S
C939 C943 1.429 . S
C940 C923 1.574 . S
C940 H934 0.949 . S
C940 C944 1.368 . S
C941 C922 1.429 . S
C941 C935 1.429 . S
C941 C942 1.523 . S
C942 C923 1.368 . S
C942 C936 1.368 . S
C942 C941 1.523 . S
C943 C927 1.429 . S
C943 C939 1.429 . S
C943 C944 1.523 . S
C944 C928 1.368 . S
C944 C940 1.368 . S
C944 C943 1.523 . S
H945 C920 0.950 . S
H946 C922 0.950 . S
H947 C923 0.949 . S
H948 C925 0.950 . S
H949 C927 0.950 . S
C950 C951 1.349 . S
C950 C952 1.327 . S
C950 H975 0.950 . S
C951 C950 1.349 . S
C951 C967 1.349 . S
C952 C950 1.327 . S
C952 C971 1.429 . S
C952 H976 0.950 . S
C953 C970 1.574 . S
C953 C972 1.368 . S
C953 H977 0.949 . S
H954 C958 0.949 . S
C955 C956 1.349 . S
C955 C957 1.327 . S
C955 H978 0.950 . S
C956 C955 1.349 . S
C956 C968 1.349 . S
C957 C955 1.327 . S
C957 C973 1.429 . S
C957 H979 0.950 . S
C958 H954 0.949 . S
C958 C966 1.574 . S
C958 C974 1.368 . S
H959 C967 0.950 . S
H960 C965 0.950 . S
H961 C966 0.949 . S
H962 C968 0.950 . S
H963 C969 0.950 . S
H964 C970 0.949 . S
C965 H960 0.950 . S
C965 C967 1.327 . S
C965 C971 1.429 . S
C966 C958 1.574 . S
C966 H961 0.949 . S
C966 C972 1.368 . S
C967 C951 1.349 . S
C967 H959 0.950 . S
C967 C965 1.327 . S
C968 C956 1.349 . S
C968 H962 0.950 . S
C968 C969 1.327 . S
C969 H963 0.950 . S
C969 C968 1.327 . S
C969 C973 1.429 . S
C970 C953 1.574 . S
C970 H964 0.949 . S
C970 C974 1.368 . S
C971 C952 1.429 . S
C971 C965 1.429 . S
C971 C972 1.523 . S
C972 C953 1.368 . S
C972 C966 1.368 . S
C972 C971 1.523 . S
C973 C957 1.429 . S
C973 C969 1.429 . S
C973 C974 1.523 . S
C974 C958 1.368 . S
C974 C970 1.368 . S
C974 C973 1.523 . S
H975 C950 0.950 . S
H976 C952 0.950 . S
H977 C953 0.949 . S
H978 C955 0.950 . S
H979 C957 0.950 . S
C980 C981 1.349 . S
C980 C982 1.327 . S
C980 H1005 0.950 . S
C981 C980 1.349 . S
C981 C997 1.349 . S
C982 C980 1.327 . S
C982 C1001 1.429 . S
C982 H1006 0.950 . S
C983 C1000 1.574 . S
C983 C1002 1.368 . S
C983 H1007 0.949 . S
H984 C988 0.949 . S
C985 C986 1.349 . S
C985 C987 1.327 . S
C985 H1008 0.950 . S
C986 C985 1.349 . S
C986 C998 1.349 . S
C987 C985 1.327 . S
C987 C1003 1.429 . S
C987 H1009 0.950 . S
C988 H984 0.949 . S
C988 C996 1.574 . S
C988 C1004 1.368 . S
H989 C997 0.950 . S
H990 C995 0.950 . S
H991 C996 0.949 . S
H992 C998 0.950 . S
H993 C999 0.950 . S
H994 C1000 0.949 . S
C995 H990 0.950 . S
C995 C997 1.327 . S
C995 C1001 1.429 . S
C996 C988 1.574 . S
C996 H991 0.949 . S
C996 C1002 1.368 . S
C997 C981 1.349 . S
C997 H989 0.950 . S
C997 C995 1.327 . S
C998 C986 1.349 . S
C998 H992 0.950 . S
C998 C999 1.327 . S
C999 H993 0.950 . S
C999 C998 1.327 . S
C999 C1003 1.429 . S
C1000 C983 1.574 . S
C1000 H994 0.949 . S
C1000 C1004 1.368 . S
C1001 C982 1.429 . S
C1001 C995 1.429 . S
C1001 C1002 1.523 . S
C1002 C983 1.368 . S
C1002 C996 1.368 . S
C1002 C1001 1.523 . S
C1003 C987 1.429 . S
C1003 C999 1.429 . S
C1003 C1004 1.523 . S
C1004 C988 1.368 . S
C1004 C1000 1.368 . S
C1004 C1003 1.523 . S
H1005 C980 0.950 . S
H1006 C982 0.950 . S
H1007 C983 0.949 . S
H1008 C985 0.950 . S
H1009 C987 0.950 . S
C1010 C1011 1.349 . S
C1010 C1012 1.327 . S
C1010 H1035 0.950 . S
C1011 C1010 1.349 . S
C1011 C1027 1.349 . S
C1012 C1010 1.327 . S
C1012 C1031 1.429 . S
C1012 H1036 0.950 . S
C1013 C1030 1.574 . S
C1013 C1032 1.368 . S
C1013 H1037 0.949 . S
H1014 C1018 0.949 . S
C1015 C1016 1.349 . S
C1015 C1017 1.327 . S
C1015 H1038 0.950 . S
C1016 C1015 1.349 . S
C1016 C1028 1.349 . S
C1017 C1015 1.327 . S
C1017 C1033 1.429 . S
C1017 H1039 0.950 . S
C1018 H1014 0.949 . S
C1018 C1026 1.574 . S
C1018 C1034 1.368 . S
H1019 C1027 0.950 . S
H1020 C1025 0.950 . S
H1021 C1026 0.949 . S
H1022 C1028 0.950 . S
H1023 C1029 0.950 . S
H1024 C1030 0.949 . S
C1025 H1020 0.950 . S
C1025 C1027 1.327 . S
C1025 C1031 1.429 . S
C1026 C1018 1.574 . S
C1026 H1021 0.949 . S
C1026 C1032 1.368 . S
C1027 C1011 1.349 . S
C1027 H1019 0.950 . S
C1027 C1025 1.327 . S
C1028 C1016 1.349 . S
C1028 H1022 0.950 . S
C1028 C1029 1.327 . S
C1029 H1023 0.950 . S
C1029 C1028 1.327 . S
C1029 C1033 1.429 . S
C1030 C1013 1.574 . S
C1030 H1024 0.949 . S
C1030 C1034 1.368 . S
C1031 C1012 1.429 . S
C1031 C1025 1.429 . S
C1031 C1032 1.523 . S
C1032 C1013 1.368 . S
C1032 C1026 1.368 . S
C1032 C1031 1.523 . S
C1033 C1017 1.429 . S
C1033 C1029 1.429 . S
C1033 C1034 1.523 . S
C1034 C1018 1.368 . S
C1034 C1030 1.368 . S
C1034 C1033 1.523 . S
H1035 C1010 0.950 . S
H1036 C1012 0.950 . S
H1037 C1013 0.949 . S
H1038 C1015 0.950 . S
H1039 C1017 0.950 . S
C321 C19 2.338 . S
C326 C10 2.338 . S
C351 C59 2.338 . S
C356 C50 2.338 . S
C381 C99 2.338 . S
C386 C90 2.338 . S
C411 C139 2.338 . S
C416 C130 2.338 . S
C441 C179 2.338 . S
C446 C170 2.338 . S
C471 C210 2.338 . S
C476 C219 2.338 . S
C501 C259 2.338 . S
C506 C250 2.338 . S
C531 C290 2.338 . S
C536 C299 2.338 . S
C561 C55 2.467 . S
C566 C6 2.467 . S
C591 C126 2.466 . S
C596 C95 2.466 . S
C621 C166 2.466 . S
C626 C215 2.466 . S
C651 C255 2.467 . S
C656 C286 2.467 . S
C681 C15 1.745 . S
C686 C206 1.745 . S
C711 C175 1.745 . S
C716 C46 1.745 . S
C741 C86 1.745 . S
C746 C295 1.745 . S
C771 C135 1.745 . S
C776 C246 1.745 . S
C801 C9 1.466 . S
C806 C129 1.466 . S
C831 C49 1.604 . S
C836 C89 1.604 . S
C861 C58 1.466 . S
C866 C98 1.466 . S
C891 C138 1.604 . S
C896 C18 1.604 . S
C921 C169 1.465 . S
C926 C289 1.465 . S
C951 C209 1.604 . S
C956 C249 1.604 . S
C981 C218 1.465 . S
C986 C258 1.465 . S
C1011 C298 1.604 . S
C1016 C178 1.604 . S
