# Generated by pormake.
# Topology uos, (4)-cn, num edge types: 1
# Building blocks:
#     Node 0, Type 0, BuildingBlock: CEKHIL_clean_sbu_0, # of connection points: 4
#     Node 1, Type 0, BuildingBlock: CEKHIL_clean_sbu_0, # of connection points: 4
#     Node 2, Type 0, BuildingBlock: CEKHIL_clean_sbu_0, # of connection points: 4
#     Node 3, Type 0, BuildingBlock: CEKHIL_clean_sbu_0, # of connection points: 4
#     Node 4, Type 0, BuildingBlock: CEKHIL_clean_sbu_0, # of connection points: 4
#     Node 5, Type 0, BuildingBlock: CEKHIL_clean_sbu_0, # of connection points: 4
#     Node 6, Type 0, BuildingBlock: CEKHIL_clean_sbu_0, # of connection points: 4
#     Node 7, Type 0, BuildingBlock: CEKHIL_clean_sbu_0, # of connection points: 4
#     Node 8, Type 0, BuildingBlock: CEKHIL_clean_sbu_0, # of connection points: 4
#     Node 9, Type 0, BuildingBlock: CEKHIL_clean_sbu_0, # of connection points: 4
#     Node 10, Type 0, BuildingBlock: CEKHIL_clean_sbu_0, # of connection points: 4
#     Node 11, Type 0, BuildingBlock: CEKHIL_clean_sbu_0, # of connection points: 4
#     Node 12, Type 0, BuildingBlock: CEKHIL_clean_sbu_0, # of connection points: 4
#     Node 13, Type 0, BuildingBlock: CEKHIL_clean_sbu_0, # of connection points: 4
#     Node 14, Type 0, BuildingBlock: CEKHIL_clean_sbu_0, # of connection points: 4
#     Node 15, Type 0, BuildingBlock: CEKHIL_clean_sbu_0, # of connection points: 4
#     Node 16, Type 0, BuildingBlock: CEKHIL_clean_sbu_0, # of connection points: 4
#     Node 17, Type 0, BuildingBlock: CEKHIL_clean_sbu_0, # of connection points: 4
#     Node 18, Type 0, BuildingBlock: CEKHIL_clean_sbu_0, # of connection points: 4
#     Node 19, Type 0, BuildingBlock: CEKHIL_clean_sbu_0, # of connection points: 4
#     Node 20, Type 0, BuildingBlock: CEKHIL_clean_sbu_0, # of connection points: 4
#     Node 21, Type 0, BuildingBlock: CEKHIL_clean_sbu_0, # of connection points: 4
#     Node 22, Type 0, BuildingBlock: CEKHIL_clean_sbu_0, # of connection points: 4
#     Node 23, Type 0, BuildingBlock: CEKHIL_clean_sbu_0, # of connection points: 4
#     Node 24, Type 0, BuildingBlock: CEKHIL_clean_sbu_0, # of connection points: 4
#     Node 25, Type 0, BuildingBlock: CEKHIL_clean_sbu_0, # of connection points: 4
#     Node 26, Type 0, BuildingBlock: CEKHIL_clean_sbu_0, # of connection points: 4
#     Node 27, Type 0, BuildingBlock: CEKHIL_clean_sbu_0, # of connection points: 4
#     Node 28, Type 0, BuildingBlock: CEKHIL_clean_sbu_0, # of connection points: 4
#     Node 29, Type 0, BuildingBlock: CEKHIL_clean_sbu_0, # of connection points: 4
#     Node 30, Type 0, BuildingBlock: CEKHIL_clean_sbu_0, # of connection points: 4
#     Node 31, Type 0, BuildingBlock: CEKHIL_clean_sbu_0, # of connection points: 4
#     Edge 32, Type (0, 0), BuildingBlock: UVAHIK_clean_linker_0, # of connection points: 2
#     Edge 33, Type (0, 0), BuildingBlock: UVAHIK_clean_linker_0, # of connection points: 2
#     Edge 34, Type (0, 0), BuildingBlock: UVAHIK_clean_linker_0, # of connection points: 2
#     Edge 35, Type (0, 0), BuildingBlock: UVAHIK_clean_linker_0, # of connection points: 2
#     Edge 36, Type (0, 0), BuildingBlock: UVAHIK_clean_linker_0, # of connection points: 2
#     Edge 37, Type (0, 0), BuildingBlock: UVAHIK_clean_linker_0, # of connection points: 2
#     Edge 38, Type (0, 0), BuildingBlock: UVAHIK_clean_linker_0, # of connection points: 2
#     Edge 39, Type (0, 0), BuildingBlock: UVAHIK_clean_linker_0, # of connection points: 2
#     Edge 40, Type (0, 0), BuildingBlock: UVAHIK_clean_linker_0, # of connection points: 2
#     Edge 41, Type (0, 0), BuildingBlock: UVAHIK_clean_linker_0, # of connection points: 2
#     Edge 42, Type (0, 0), BuildingBlock: UVAHIK_clean_linker_0, # of connection points: 2
#     Edge 43, Type (0, 0), BuildingBlock: UVAHIK_clean_linker_0, # of connection points: 2
#     Edge 44, Type (0, 0), BuildingBlock: UVAHIK_clean_linker_0, # of connection points: 2
#     Edge 45, Type (0, 0), BuildingBlock: UVAHIK_clean_linker_0, # of connection points: 2
#     Edge 46, Type (0, 0), BuildingBlock: UVAHIK_clean_linker_0, # of connection points: 2
#     Edge 47, Type (0, 0), BuildingBlock: UVAHIK_clean_linker_0, # of connection points: 2
#     Edge 48, Type (0, 0), BuildingBlock: UVAHIK_clean_linker_0, # of connection points: 2
#     Edge 49, Type (0, 0), BuildingBlock: UVAHIK_clean_linker_0, # of connection points: 2
#     Edge 50, Type (0, 0), BuildingBlock: UVAHIK_clean_linker_0, # of connection points: 2
#     Edge 51, Type (0, 0), BuildingBlock: UVAHIK_clean_linker_0, # of connection points: 2
#     Edge 52, Type (0, 0), BuildingBlock: UVAHIK_clean_linker_0, # of connection points: 2
#     Edge 53, Type (0, 0), BuildingBlock: UVAHIK_clean_linker_0, # of connection points: 2
#     Edge 54, Type (0, 0), BuildingBlock: UVAHIK_clean_linker_0, # of connection points: 2
#     Edge 55, Type (0, 0), BuildingBlock: UVAHIK_clean_linker_0, # of connection points: 2
#     Edge 56, Type (0, 0), BuildingBlock: UVAHIK_clean_linker_0, # of connection points: 2
#     Edge 57, Type (0, 0), BuildingBlock: UVAHIK_clean_linker_0, # of connection points: 2
#     Edge 58, Type (0, 0), BuildingBlock: UVAHIK_clean_linker_0, # of connection points: 2
#     Edge 59, Type (0, 0), BuildingBlock: UVAHIK_clean_linker_0, # of connection points: 2
#     Edge 60, Type (0, 0), BuildingBlock: UVAHIK_clean_linker_0, # of connection points: 2
#     Edge 61, Type (0, 0), BuildingBlock: UVAHIK_clean_linker_0, # of connection points: 2
#     Edge 62, Type (0, 0), BuildingBlock: UVAHIK_clean_linker_0, # of connection points: 2
#     Edge 63, Type (0, 0), BuildingBlock: UVAHIK_clean_linker_0, # of connection points: 2
#     Edge 64, Type (0, 0), BuildingBlock: UVAHIK_clean_linker_0, # of connection points: 2
#     Edge 65, Type (0, 0), BuildingBlock: UVAHIK_clean_linker_0, # of connection points: 2
#     Edge 66, Type (0, 0), BuildingBlock: UVAHIK_clean_linker_0, # of connection points: 2
#     Edge 67, Type (0, 0), BuildingBlock: UVAHIK_clean_linker_0, # of connection points: 2
#     Edge 68, Type (0, 0), BuildingBlock: UVAHIK_clean_linker_0, # of connection points: 2
#     Edge 69, Type (0, 0), BuildingBlock: UVAHIK_clean_linker_0, # of connection points: 2
#     Edge 70, Type (0, 0), BuildingBlock: UVAHIK_clean_linker_0, # of connection points: 2
#     Edge 71, Type (0, 0), BuildingBlock: UVAHIK_clean_linker_0, # of connection points: 2
#     Edge 72, Type (0, 0), BuildingBlock: UVAHIK_clean_linker_0, # of connection points: 2
#     Edge 73, Type (0, 0), BuildingBlock: UVAHIK_clean_linker_0, # of connection points: 2
#     Edge 74, Type (0, 0), BuildingBlock: UVAHIK_clean_linker_0, # of connection points: 2
#     Edge 75, Type (0, 0), BuildingBlock: UVAHIK_clean_linker_0, # of connection points: 2
#     Edge 76, Type (0, 0), BuildingBlock: UVAHIK_clean_linker_0, # of connection points: 2
#     Edge 77, Type (0, 0), BuildingBlock: UVAHIK_clean_linker_0, # of connection points: 2
#     Edge 78, Type (0, 0), BuildingBlock: UVAHIK_clean_linker_0, # of connection points: 2
#     Edge 79, Type (0, 0), BuildingBlock: UVAHIK_clean_linker_0, # of connection points: 2
#     Edge 80, Type (0, 0), BuildingBlock: UVAHIK_clean_linker_0, # of connection points: 2
#     Edge 81, Type (0, 0), BuildingBlock: UVAHIK_clean_linker_0, # of connection points: 2
#     Edge 82, Type (0, 0), BuildingBlock: UVAHIK_clean_linker_0, # of connection points: 2
#     Edge 83, Type (0, 0), BuildingBlock: UVAHIK_clean_linker_0, # of connection points: 2
#     Edge 84, Type (0, 0), BuildingBlock: UVAHIK_clean_linker_0, # of connection points: 2
#     Edge 85, Type (0, 0), BuildingBlock: UVAHIK_clean_linker_0, # of connection points: 2
#     Edge 86, Type (0, 0), BuildingBlock: UVAHIK_clean_linker_0, # of connection points: 2
#     Edge 87, Type (0, 0), BuildingBlock: UVAHIK_clean_linker_0, # of connection points: 2
#     Edge 88, Type (0, 0), BuildingBlock: UVAHIK_clean_linker_0, # of connection points: 2
#     Edge 89, Type (0, 0), BuildingBlock: UVAHIK_clean_linker_0, # of connection points: 2
#     Edge 90, Type (0, 0), BuildingBlock: UVAHIK_clean_linker_0, # of connection points: 2
#     Edge 91, Type (0, 0), BuildingBlock: UVAHIK_clean_linker_0, # of connection points: 2
#     Edge 92, Type (0, 0), BuildingBlock: UVAHIK_clean_linker_0, # of connection points: 2
#     Edge 93, Type (0, 0), BuildingBlock: UVAHIK_clean_linker_0, # of connection points: 2
#     Edge 94, Type (0, 0), BuildingBlock: UVAHIK_clean_linker_0, # of connection points: 2
#     Edge 95, Type (0, 0), BuildingBlock: UVAHIK_clean_linker_0, # of connection points: 2
# Relax obj value: 0.050
# Max RMSD: 0.069
# Mean RMSD: 0.069
data_MOF--net-uos--node1-CEKHIL_clean_sbu_0--edge1-UVAHIK_clean_linker_0
_symmetry_space_group_name_H-M    P1
_symmetry_Int_Tables_number       1
_symmetry_cell_setting            triclinic
loop_
_symmetry_equiv_pos_as_xyz
'x, y, z'
_cell_length_a     109.9175
_cell_length_b     109.93736
_cell_length_c     29.571754
_cell_angle_alpha  89.999846
_cell_angle_beta   90.000711
_cell_angle_gamma 89.996921
loop_
_atom_site_label
_atom_site_type_symbol
_atom_site_fract_x
_atom_site_fract_y
_atom_site_fract_z
_atom_type_partial_charge
Co0 Co 0.16839 0.16539 0.11755 0.0
O1 O 0.15368 0.16154 0.08504 0.0
O2 O 0.17056 0.15069 0.08159 0.0
C3 C 0.16827 0.18544 0.09946 0.0
O4 O 0.1855 0.16683 0.14479 0.0
Co5 Co 0.16843 0.18423 0.19657 0.0
O6 O 0.18624 0.18385 0.18703 0.0
C7 C 0.15999 0.1589 0.21277 0.0
C8 C 0.15944 0.15236 0.06771 0.0
C9 C 0.19142 0.17486 0.1678 0.0
O10 O 0.16267 0.15568 0.17196 0.0
O11 O 0.16099 0.16984 0.2273 0.0
O12 O 0.17268 0.17753 0.07124 0.0
O13 O 0.16344 0.18095 0.13542 0.0
Co14 Co 0.0866 0.91912 0.362 0.0
O15 O 0.08938 0.90524 0.32356 0.0
O16 O 0.10101 0.92161 0.32471 0.0
C17 C 0.06635 0.92052 0.34834 0.0
O18 O 0.08621 0.93536 0.39592 0.0
Co19 Co 0.06915 0.91676 0.44506 0.0
O20 O 0.07238 0.93438 0.45218 0.0
C21 C 0.09346 0.90559 0.44775 0.0
C22 C 0.09875 0.91095 0.30747 0.0
C23 C 0.08028 0.94017 0.42909 0.0
O24 O 0.09669 0.91144 0.41188 0.0
O25 O 0.08255 0.90541 0.4628 0.0
O26 O 0.07408 0.92524 0.32006 0.0
O27 O 0.07111 0.91438 0.38089 0.0
Co28 Co 0.33485 0.83668 0.61497 0.0
O29 O 0.34914 0.84029 0.5797 0.0
O30 O 0.3325 0.85153 0.57996 0.0
C31 C 0.33408 0.81662 0.59663 0.0
O32 O 0.31819 0.83553 0.64612 0.0
Co33 Co 0.3362 0.81758 0.69356 0.0
O34 O 0.31835 0.81972 0.69466 0.0
C35 C 0.34454 0.84293 0.7088 0.0
C36 C 0.3434 0.8497 0.5641 0.0
C37 C 0.31288 0.82846 0.67491 0.0
O38 O 0.3415 0.84623 0.66845 0.0
O39 O 0.34381 0.83198 0.72324 0.0
O40 O 0.32955 0.82471 0.56936 0.0
O41 O 0.3397 0.82096 0.63121 0.0
Co42 Co 0.41642 0.08508 0.86913 0.0
O43 O 0.4129 0.09947 0.83428 0.0
O44 O 0.40167 0.08283 0.83351 0.0
C45 C 0.4365 0.08436 0.85146 0.0
O46 O 0.41752 0.06829 0.89936 0.0
Co47 Co 0.43519 0.08604 0.94865 0.0
O48 O 0.43358 0.06815 0.94661 0.0
C49 C 0.40987 0.09452 0.96316 0.0
C50 C 0.40356 0.09375 0.81802 0.0
C51 C 0.42482 0.06275 0.92676 0.0
O52 O 0.40676 0.0916 0.92248 0.0
O53 O 0.42074 0.0936 0.97837 0.0
O54 O 0.42847 0.07994 0.82371 0.0
O55 O 0.4321 0.08987 0.88623 0.0
Co56 Co 0.16755 0.83714 0.88618 0.0
O57 O 0.15322 0.84099 0.92083 0.0
O58 O 0.17006 0.85192 0.92145 0.0
C59 C 0.16786 0.81708 0.90456 0.0
O60 O 0.18431 0.83566 0.85594 0.0
Co61 Co 0.16629 0.81808 0.80759 0.0
O62 O 0.18422 0.81931 0.81007 0.0
C63 C 0.15846 0.84359 0.79177 0.0
C64 C 0.1591 0.85024 0.93698 0.0
C65 C 0.18974 0.82812 0.82919 0.0
O66 O 0.16127 0.84681 0.83243 0.0
O67 O 0.15918 0.83265 0.77723 0.0
O68 O 0.17245 0.82508 0.93202 0.0
O69 O 0.16246 0.82151 0.86964 0.0
Co70 Co 0.41659 0.9179 0.13966 0.0
O71 O 0.41376 0.9043 0.17937 0.0
O72 O 0.40202 0.92057 0.17596 0.0
C73 C 0.43677 0.91958 0.1543 0.0
O74 O 0.41703 0.93388 0.10394 0.0
Co75 Co 0.43448 0.915 0.05807 0.0
O76 O 0.43196 0.93277 0.05186 0.0
C77 C 0.41007 0.90399 0.05422 0.0
C78 C 0.40431 0.91007 0.19449 0.0
C79 C 0.42361 0.93865 0.07237 0.0
O80 O 0.40675 0.90984 0.08998 0.0
O81 O 0.42101 0.90383 0.03949 0.0
O82 O 0.42889 0.92442 0.18169 0.0
O83 O 0.43219 0.91313 0.12223 0.0
Co84 Co 0.33543 0.16679 0.39338 0.0
O85 O 0.34978 0.1631 0.42825 0.0
O86 O 0.33302 0.15203 0.4288 0.0
C87 C 0.33494 0.18684 0.41137 0.0
O88 O 0.31864 0.16808 0.36321 0.0
Co89 Co 0.33634 0.1856 0.31423 0.0
O90 O 0.31844 0.18509 0.32084 0.0
C91 C 0.34496 0.16032 0.2994 0.0
C92 C 0.34395 0.15382 0.44448 0.0
C93 C 0.31302 0.17609 0.33911 0.0
O94 O 0.34188 0.15716 0.33989 0.0
O95 O 0.34408 0.17122 0.28448 0.0
O96 O 0.33041 0.17884 0.43899 0.0
O97 O 0.34035 0.18242 0.37644 0.0
Co98 Co 0.08579 0.08549 0.64082 0.0
O99 O 0.08869 0.09927 0.67958 0.0
O100 O 0.10034 0.08292 0.67731 0.0
C101 C 0.06559 0.08403 0.65559 0.0
O102 O 0.08531 0.06933 0.60634 0.0
Co103 Co 0.06792 0.08804 0.55902 0.0
O104 O 0.07128 0.07048 0.55074 0.0
C105 C 0.09241 0.09888 0.55418 0.0
C106 C 0.09811 0.09352 0.69509 0.0
C107 C 0.0793 0.06465 0.57312 0.0
O108 O 0.0957 0.09326 0.59052 0.0
O109 O 0.08144 0.09901 0.53964 0.0
O110 O 0.07344 0.07925 0.68326 0.0
O111 O 0.07021 0.09026 0.62302 0.0
Co112 Co 0.83499 0.83558 0.88785 0.0
O113 O 0.84854 0.83835 0.92777 0.0
O114 O 0.83253 0.85042 0.92276 0.0
C115 C 0.83279 0.81553 0.9041 0.0
O116 O 0.8191 0.83526 0.85156 0.0
Co117 Co 0.8378 0.81713 0.80797 0.0
O118 O 0.82019 0.82029 0.7996 0.0
C119 C 0.84945 0.84122 0.80291 0.0
C120 C 0.84294 0.84802 0.94181 0.0
C121 C 0.81439 0.82877 0.81962 0.0
O122 O 0.84341 0.84495 0.83765 0.0
O123 O 0.8495 0.83015 0.78957 0.0
O124 O 0.82807 0.82369 0.93066 0.0
O125 O 0.83945 0.81977 0.87198 0.0
Co126 Co 0.91481 0.08425 0.64181 0.0
O127 O 0.91233 0.09802 0.68103 0.0
O128 O 0.90051 0.08178 0.67962 0.0
C129 C 0.93508 0.08258 0.65453 0.0
O130 O 0.9149 0.06812 0.60724 0.0
Co131 Co 0.93192 0.08668 0.55801 0.0
O132 O 0.92857 0.06908 0.55045 0.0
C133 C 0.90784 0.09833 0.5576 0.0
C134 C 0.90296 0.09235 0.6973 0.0
C135 C 0.92069 0.06331 0.57374 0.0
O136 O 0.90463 0.09224 0.59289 0.0
O137 O 0.91871 0.09845 0.5421 0.0
O138 O 0.92737 0.07785 0.68288 0.0
O139 O 0.9303 0.08888 0.62242 0.0
Co140 Co 0.66887 0.16594 0.39161 0.0
O141 O 0.65414 0.16229 0.42431 0.0
O142 O 0.67085 0.15118 0.42731 0.0
C143 C 0.6691 0.18596 0.40994 0.0
O144 O 0.68599 0.16712 0.36432 0.0
Co145 Co 0.66923 0.18476 0.3127 0.0
O146 O 0.68703 0.18423 0.32275 0.0
C147 C 0.66029 0.15965 0.29636 0.0
C148 C 0.65978 0.15301 0.44144 0.0
C149 C 0.69206 0.17514 0.34181 0.0
O150 O 0.66292 0.15639 0.33717 0.0
O151 O 0.66154 0.17054 0.2817 0.0
O152 O 0.6734 0.17794 0.43799 0.0
O153 O 0.66417 0.18159 0.37392 0.0
Co154 Co 0.58709 0.91798 0.13899 0.0
O155 O 0.59018 0.90404 0.17689 0.0
O156 O 0.60151 0.92065 0.17588 0.0
C157 C 0.56688 0.9193 0.15339 0.0
O158 O 0.58644 0.93424 0.1053 0.0
Co159 Co 0.56947 0.91546 0.05651 0.0
O160 O 0.57253 0.93312 0.04934 0.0
C161 C 0.59392 0.90463 0.05276 0.0
C162 C 0.5995 0.90989 0.1927 0.0
C163 C 0.58042 0.93899 0.07222 0.0
O164 O 0.59713 0.91047 0.08865 0.0
O165 O 0.58298 0.90433 0.03801 0.0
O166 O 0.57469 0.92395 0.18152 0.0
O167 O 0.57155 0.91314 0.12066 0.0
Co168 Co 0.83578 0.16798 0.11673 0.0
O169 O 0.84966 0.16445 0.0793 0.0
O170 O 0.83319 0.15298 0.08297 0.0
C171 C 0.8345 0.18795 0.09795 0.0
O172 O 0.81952 0.16911 0.15048 0.0
Co173 Co 0.83807 0.18707 0.19472 0.0
O174 O 0.82009 0.18572 0.19508 0.0
C175 C 0.8488 0.16258 0.20511 0.0
C176 C 0.84388 0.15488 0.06532 0.0
C177 C 0.81437 0.17685 0.17718 0.0
O178 O 0.84334 0.15876 0.16918 0.0
O179 O 0.84878 0.17372 0.21776 0.0
O180 O 0.82976 0.17976 0.07162 0.0
O181 O 0.84061 0.18374 0.1316 0.0
Co182 Co 0.58649 0.08546 0.86753 0.0
O183 O 0.58971 0.09975 0.83167 0.0
O184 O 0.60116 0.08325 0.83151 0.0
C185 C 0.56636 0.08434 0.85089 0.0
O186 O 0.58577 0.0688 0.89866 0.0
Co187 Co 0.568 0.08663 0.94808 0.0
O188 O 0.5711 0.06896 0.95208 0.0
C189 C 0.59323 0.09551 0.96057 0.0
C190 C 0.5991 0.09408 0.81547 0.0
C191 C 0.57943 0.06355 0.9298 0.0
O192 O 0.59627 0.09231 0.92009 0.0
O193 O 0.58241 0.09468 0.97618 0.0
O194 O 0.57437 0.07995 0.82298 0.0
O195 O 0.57079 0.09007 0.88511 0.0
Co196 Co 0.66816 0.83653 0.6153 0.0
O197 O 0.65358 0.84099 0.58302 0.0
O198 O 0.67088 0.85121 0.57995 0.0
C199 C 0.66765 0.8165 0.59657 0.0
O200 O 0.68518 0.8345 0.64293 0.0
Co201 Co 0.66733 0.81743 0.69369 0.0
O202 O 0.68525 0.81815 0.6887 0.0
C203 C 0.66006 0.84305 0.71084 0.0
C204 C 0.65967 0.85005 0.56637 0.0
C205 C 0.69075 0.82683 0.66873 0.0
O206 O 0.66271 0.84629 0.67004 0.0
O207 O 0.66065 0.83206 0.72503 0.0
O208 O 0.67218 0.8244 0.56858 0.0
O209 O 0.66277 0.82103 0.63238 0.0
Co210 Co 0.91561 0.91799 0.36324 0.0
O211 O 0.91301 0.90426 0.324 0.0
O212 O 0.90113 0.92045 0.32633 0.0
C213 C 0.93583 0.91976 0.34951 0.0
O214 O 0.91579 0.93405 0.39834 0.0
Co215 Co 0.93312 0.91532 0.44599 0.0
O216 O 0.92951 0.93281 0.45496 0.0
C217 C 0.90903 0.90371 0.44747 0.0
C218 C 0.90351 0.90988 0.30853 0.0
C219 C 0.92159 0.93867 0.43218 0.0
O220 O 0.90566 0.90989 0.41259 0.0
O221 O 0.91997 0.90353 0.46223 0.0
O222 O 0.92801 0.92451 0.32163 0.0
O223 O 0.93118 0.91338 0.38162 0.0
Co224 Co 0.66795 0.66634 0.61911 0.0
O225 O 0.65343 0.66248 0.58552 0.0
O226 O 0.67026 0.65153 0.58393 0.0
C227 C 0.66816 0.68637 0.60034 0.0
O228 O 0.6849 0.66777 0.64788 0.0
Co229 Co 0.6674 0.68547 0.69742 0.0
O230 O 0.6853 0.68421 0.69317 0.0
C231 C 0.65923 0.6601 0.71419 0.0
C232 C 0.65923 0.65321 0.56908 0.0
C233 C 0.69061 0.67533 0.67372 0.0
O234 O 0.6619 0.65677 0.6735 0.0
O235 O 0.66013 0.67106 0.72838 0.0
O236 O 0.67261 0.67834 0.57271 0.0
O237 O 0.66301 0.682 0.63586 0.0
Co238 Co 0.58704 0.41845 0.86545 0.0
O239 O 0.58957 0.40473 0.82601 0.0
O240 O 0.60145 0.42093 0.82829 0.0
C241 C 0.56682 0.42033 0.85215 0.0
O242 O 0.58693 0.43454 0.90032 0.0
Co243 Co 0.56973 0.41598 0.9487 0.0
O244 O 0.57311 0.43356 0.95659 0.0
C245 C 0.5938 0.40431 0.9499 0.0
C246 C 0.59901 0.4104 0.81026 0.0
C247 C 0.58106 0.43933 0.93368 0.0
O248 O 0.59707 0.41037 0.91459 0.0
O249 O 0.58291 0.40422 0.96517 0.0
O250 O 0.57464 0.42498 0.82405 0.0
O251 O 0.57146 0.41391 0.88424 0.0
Co252 Co 0.83407 0.33789 0.11335 0.0
O253 O 0.84833 0.3415 0.07793 0.0
O254 O 0.83152 0.35254 0.07768 0.0
C255 C 0.83333 0.31779 0.09636 0.0
O256 O 0.81744 0.3367 0.14444 0.0
Co257 Co 0.83564 0.31949 0.1937 0.0
O258 O 0.81764 0.32036 0.19051 0.0
C259 C 0.84632 0.34403 0.20226 0.0
C260 C 0.84248 0.35082 0.06221 0.0
C261 C 0.81205 0.32902 0.17067 0.0
O262 O 0.84094 0.34758 0.16583 0.0
O263 O 0.8463 0.33299 0.21605 0.0
O264 O 0.82878 0.32574 0.06854 0.0
O265 O 0.83898 0.32231 0.13062 0.0
Co266 Co 0.91759 0.58538 0.36682 0.0
O267 O 0.91446 0.5992 0.32849 0.0
O268 O 0.90266 0.58298 0.33238 0.0
C269 C 0.93762 0.58363 0.34938 0.0
O270 O 0.91823 0.56922 0.40132 0.0
Co271 Co 0.93627 0.58765 0.44609 0.0
O272 O 0.93369 0.56987 0.45128 0.0
C273 C 0.91211 0.59913 0.4535 0.0
C274 C 0.90482 0.59357 0.31438 0.0
C275 C 0.92508 0.56419 0.43149 0.0
O276 O 0.90829 0.59333 0.41833 0.0
O277 O 0.92323 0.5991 0.46642 0.0
O278 O 0.92944 0.57898 0.32273 0.0
O279 O 0.93338 0.58994 0.38248 0.0
Co280 Co 0.66737 0.33592 0.39076 0.0
O281 O 0.65332 0.33951 0.4272 0.0
O282 O 0.66984 0.35092 0.42474 0.0
C283 C 0.6683 0.31596 0.40999 0.0
O284 O 0.6838 0.33471 0.3582 0.0
Co285 Co 0.66551 0.31674 0.31298 0.0
O286 O 0.6835 0.31797 0.31422 0.0
C287 C 0.65468 0.34119 0.30183 0.0
C288 C 0.65907 0.34904 0.44168 0.0
C289 C 0.68911 0.32689 0.33228 0.0
O290 O 0.66006 0.34511 0.33777 0.0
O291 O 0.65479 0.33002 0.28946 0.0
O292 O 0.67308 0.32412 0.43639 0.0
O293 O 0.66249 0.3202 0.37569 0.0
Co294 Co 0.91658 0.4184 0.63856 0.0
O295 O 0.91309 0.40445 0.6758 0.0
O296 O 0.90186 0.42112 0.67368 0.0
C297 C 0.93667 0.41952 0.65565 0.0
O298 O 0.91761 0.43471 0.60513 0.0
Co299 Co 0.93506 0.41603 0.55869 0.0
O300 O 0.93279 0.43386 0.55405 0.0
C301 C 0.91062 0.40512 0.55147 0.0
C302 C 0.90367 0.41034 0.69056 0.0
C303 C 0.92442 0.43967 0.57468 0.0
O304 O 0.90698 0.41096 0.58683 0.0
O305 O 0.92172 0.40492 0.53836 0.0
O306 O 0.92866 0.42425 0.68277 0.0
O307 O 0.93224 0.41348 0.62221 0.0
Co308 Co 0.83484 0.66575 0.89192 0.0
O309 O 0.84834 0.66332 0.93239 0.0
O310 O 0.83241 0.65113 0.92815 0.0
C311 C 0.83251 0.68588 0.90627 0.0
O312 O 0.81902 0.66578 0.85524 0.0
Co313 Co 0.83781 0.68358 0.81027 0.0
O314 O 0.8202 0.68043 0.80205 0.0
C315 C 0.84955 0.65953 0.80805 0.0
C316 C 0.84279 0.65371 0.94718 0.0
C317 C 0.81435 0.67209 0.82271 0.0
O318 O 0.84341 0.65608 0.84293 0.0
O319 O 0.8496 0.67048 0.79337 0.0
O320 O 0.82779 0.67787 0.93344 0.0
O321 O 0.83926 0.68148 0.87469 0.0
Co322 Co 0.58647 0.58486 0.1435 0.0
O323 O 0.58927 0.59867 0.18222 0.0
O324 O 0.60095 0.58233 0.18044 0.0
C325 C 0.56624 0.58342 0.15776 0.0
O326 O 0.58607 0.56868 0.10912 0.0
Co327 Co 0.56886 0.58741 0.06102 0.0
O328 O 0.57228 0.56986 0.05274 0.0
C329 C 0.59319 0.59853 0.05783 0.0
C330 C 0.59868 0.59296 0.198 0.0
C331 C 0.58019 0.56401 0.07559 0.0
O332 O 0.59646 0.59265 0.09357 0.0
O333 O 0.58225 0.59874 0.04304 0.0
O334 O 0.57404 0.57864 0.18561 0.0
O335 O 0.57093 0.58962 0.12521 0.0
Co336 Co 0.335 0.33678 0.3909 0.0
O337 O 0.34975 0.34042 0.42352 0.0
O338 O 0.33303 0.35152 0.42668 0.0
C339 C 0.33466 0.31673 0.4089 0.0
O340 O 0.31786 0.33559 0.36362 0.0
Co341 Co 0.33469 0.31799 0.31169 0.0
O342 O 0.3169 0.31851 0.32183 0.0
C343 C 0.3432 0.34325 0.2953 0.0
C344 C 0.34411 0.34971 0.44067 0.0
C345 C 0.31183 0.32757 0.34093 0.0
O346 O 0.34087 0.3464 0.33647 0.0
O347 O 0.34189 0.3324 0.28032 0.0
O348 O 0.33048 0.32475 0.43722 0.0
O349 O 0.33965 0.32113 0.37304 0.0
Co350 Co 0.41582 0.58511 0.13982 0.0
O351 O 0.41183 0.59961 0.17329 0.0
O352 O 0.40105 0.58268 0.17519 0.0
C353 C 0.43585 0.58518 0.15839 0.0
O354 O 0.41745 0.56819 0.11109 0.0
Co355 Co 0.43483 0.58585 0.06128 0.0
O356 O 0.43455 0.56798 0.06916 0.0
C357 C 0.40945 0.59408 0.04512 0.0
C358 C 0.40261 0.59374 0.1898 0.0
C359 C 0.42559 0.56254 0.0876 0.0
O360 O 0.40618 0.59109 0.08558 0.0
O361 O 0.42042 0.59334 0.03085 0.0
O362 O 0.4279 0.58059 0.1861 0.0
O363 O 0.43138 0.59026 0.12287 0.0
Co364 Co 0.16813 0.66685 0.88981 0.0
O365 O 0.15427 0.66386 0.92805 0.0
O366 O 0.17066 0.65227 0.92623 0.0
C367 C 0.1695 0.68702 0.90498 0.0
O368 O 0.18437 0.66747 0.85574 0.0
Co369 Co 0.16566 0.68476 0.80821 0.0
O370 O 0.18354 0.68262 0.80452 0.0
C371 C 0.15488 0.66026 0.80292 0.0
C372 C 0.16 0.65445 0.94367 0.0
C373 C 0.18935 0.67426 0.82524 0.0
O374 O 0.1605 0.65697 0.83923 0.0
O375 O 0.15475 0.67121 0.78822 0.0
O376 O 0.17423 0.67914 0.93267 0.0
O377 O 0.16334 0.68242 0.87215 0.0
Co378 Co 0.08677 0.41743 0.64174 0.0
O379 O 0.09042 0.403 0.67625 0.0
O380 O 0.10146 0.41978 0.67758 0.0
C381 C 0.06667 0.41785 0.65929 0.0
O382 O 0.0855 0.43428 0.61213 0.0
Co383 Co 0.06805 0.41674 0.56221 0.0
O384 O 0.06848 0.43461 0.56984 0.0
C385 C 0.09347 0.40853 0.54719 0.0
C386 C 0.09966 0.40882 0.69289 0.0
C387 C 0.07748 0.43998 0.58828 0.0
O388 O 0.09652 0.41114 0.58824 0.0
O389 O 0.08264 0.4096 0.5318 0.0
O390 O 0.07463 0.42231 0.68721 0.0
O391 O 0.07115 0.41251 0.62427 0.0
Co392 Co 0.33496 0.66673 0.61568 0.0
O393 O 0.34876 0.66372 0.57708 0.0
O394 O 0.33251 0.65195 0.58041 0.0
C395 C 0.33328 0.68681 0.59902 0.0
O396 O 0.31878 0.66731 0.65018 0.0
Co397 Co 0.33723 0.68519 0.69568 0.0
O398 O 0.31945 0.68262 0.70076 0.0
C399 C 0.34814 0.66074 0.70353 0.0
C400 C 0.34306 0.6542 0.56221 0.0
C401 C 0.31377 0.67407 0.68068 0.0
O402 O 0.34282 0.65722 0.66686 0.0
O403 O 0.348 0.67176 0.71748 0.0
O404 O 0.3286 0.67872 0.5721 0.0
O405 O 0.33957 0.68248 0.632 0.0
Co406 Co 0.08753 0.58448 0.36568 0.0
O407 O 0.09117 0.59916 0.33262 0.0
O408 O 0.1023 0.58246 0.33006 0.0
C409 C 0.06746 0.58406 0.34755 0.0
O410 O 0.08637 0.56741 0.39345 0.0
Co411 Co 0.0686 0.58424 0.44453 0.0
O412 O 0.06925 0.56644 0.43509 0.0
C413 C 0.09387 0.59282 0.46113 0.0
C414 C 0.10046 0.5935 0.31568 0.0
C415 C 0.07837 0.56138 0.41628 0.0
O416 O 0.09713 0.59047 0.42009 0.0
O417 O 0.08298 0.59153 0.47574 0.0
O418 O 0.0755 0.57984 0.31941 0.0
O419 O 0.07185 0.58913 0.38326 0.0
Co420 Co 0.16761 0.33577 0.11773 0.0
O421 O 0.15321 0.3396 0.0834 0.0
O422 O 0.17008 0.35049 0.08212 0.0
C423 C 0.16772 0.31572 0.09964 0.0
O424 O 0.18444 0.33431 0.14735 0.0
Co425 Co 0.16669 0.31699 0.19687 0.0
O426 O 0.18459 0.31736 0.19007 0.0
C427 C 0.15829 0.34234 0.21185 0.0
C428 C 0.15908 0.34883 0.06696 0.0
C429 C 0.19005 0.32629 0.17154 0.0
O430 O 0.16137 0.34548 0.17134 0.0
O431 O 0.15909 0.33143 0.22675 0.0
O432 O 0.17236 0.32364 0.07201 0.0
O433 O 0.16249 0.32021 0.13485 0.0
Co434 Co 0.4166 0.41768 0.86755 0.0
O435 O 0.41317 0.40318 0.83305 0.0
O436 O 0.40202 0.41988 0.83107 0.0
C437 C 0.43674 0.41827 0.85106 0.0
O438 O 0.4176 0.43459 0.89667 0.0
Co439 Co 0.43495 0.41737 0.94817 0.0
O440 O 0.43441 0.43523 0.94009 0.0
C441 C 0.40971 0.40845 0.9615 0.0
C442 C 0.40394 0.40893 0.81597 0.0
C443 C 0.42547 0.44044 0.92067 0.0
O444 O 0.40674 0.41134 0.92063 0.0
O445 O 0.42051 0.40954 0.97723 0.0
O446 O 0.42885 0.42261 0.8226 0.0
O447 O 0.43219 0.41295 0.88599 0.0
C448 C 0.2931 0.18467 0.31467 0.0
C449 C 0.29997 0.17449 0.32782 0.0
C450 C 0.2815 0.18328 0.29636 0.0
C451 C 0.25561 0.16221 0.2808 0.0
H452 H 0.24918 0.18337 0.17852 0.0
C453 C 0.20989 0.16172 0.18015 0.0
C454 C 0.20462 0.17333 0.17605 0.0
C455 C 0.22197 0.16046 0.19485 0.0
C456 C 0.25083 0.17739 0.207 0.0
H457 H 0.29975 0.15486 0.3343 0.0
H458 H 0.27935 0.15239 0.30182 0.0
H459 H 0.26906 0.18377 0.21464 0.0
H460 H 0.20802 0.19268 0.18204 0.0
H461 H 0.22903 0.19051 0.20654 0.0
H462 H 0.23721 0.15596 0.27307 0.0
C463 C 0.28299 0.16147 0.30591 0.0
C464 C 0.2622 0.17766 0.22792 0.0
C465 C 0.29466 0.16288 0.32464 0.0
C466 C 0.21182 0.18362 0.18487 0.0
C467 C 0.22388 0.18237 0.19878 0.0
C468 C 0.24418 0.16191 0.25964 0.0
C469 C 0.27645 0.17165 0.29024 0.0
C470 C 0.26465 0.17034 0.26588 0.0
C471 C 0.22904 0.17079 0.20478 0.0
C472 C 0.24159 0.16973 0.22324 0.0
H473 H 0.29685 0.19376 0.31727 0.0
H474 H 0.27657 0.19135 0.28603 0.0
H475 H 0.25719 0.15645 0.30991 0.0
H476 H 0.20453 0.15362 0.17397 0.0
H477 H 0.22575 0.15142 0.19894 0.0
C478 C 0.08618 0.96172 0.4103 0.0
C479 C 0.08278 0.95292 0.44237 0.0
C480 C 0.08757 0.97392 0.42317 0.0
C481 C 0.09329 0.99412 0.51971 0.0
H482 H 0.07308 0.01739 0.45625 0.0
C483 C 0.08445 0.04276 0.58934 0.0
C484 C 0.08197 0.05208 0.55826 0.0
C485 C 0.08589 0.03072 0.57442 0.0
C486 C 0.07903 0.01115 0.47389 0.0
H487 H 0.07878 0.94987 0.51333 0.0
H488 H 0.08153 0.97104 0.53578 0.0
H489 H 0.07389 0.99644 0.43031 0.0
H490 H 0.07985 0.05632 0.48715 0.0
H491 H 0.08302 0.03566 0.46097 0.0
H492 H 0.09864 0.0088 0.56291 0.0
C493 C 0.08296 0.96856 0.50072 0.0
C494 C 0.07943 0.99909 0.45897 0.0
C495 C 0.0813 0.95646 0.48775 0.0
C496 C 0.08153 0.04926 0.51198 0.0
C497 C 0.08325 0.03736 0.49701 0.0
C498 C 0.09309 0.00626 0.53418 0.0
C499 C 0.0859 0.97745 0.46849 0.0
C500 C 0.08644 0.99043 0.48201 0.0
C501 C 0.08514 0.02782 0.52798 0.0
C502 C 0.08585 0.01494 0.51176 0.0
H503 H 0.08736 0.95924 0.37511 0.0
H504 H 0.08986 0.98062 0.3977 0.0
H505 H 0.09881 0.98761 0.538 0.0
H506 H 0.0848 0.0447 0.62524 0.0
H507 H 0.08719 0.02367 0.5995 0.0
C508 C 0.20824 0.82222 0.785 0.0
C509 C 0.20269 0.8301 0.8164 0.0
C510 C 0.21998 0.82442 0.76923 0.0
C511 C 0.24878 0.83901 0.7967 0.0
H512 H 0.25528 0.83391 0.66904 0.0
C513 C 0.29572 0.82568 0.72929 0.0
C514 C 0.30012 0.8309 0.68901 0.0
C515 C 0.28392 0.82797 0.74423 0.0
C516 C 0.2536 0.83556 0.70461 0.0
H517 H 0.20544 0.84637 0.85664 0.0
H518 H 0.22622 0.85008 0.82946 0.0
H519 H 0.23434 0.83354 0.69673 0.0
H520 H 0.29547 0.84272 0.63295 0.0
H521 H 0.27454 0.84652 0.65877 0.0
H522 H 0.26809 0.84065 0.80476 0.0
C523 C 0.22129 0.84225 0.81693 0.0
C524 C 0.24163 0.83524 0.72057 0.0
C525 C 0.20941 0.8401 0.83255 0.0
C526 C 0.29235 0.83853 0.66401 0.0
C527 C 0.2804 0.8407 0.67877 0.0
C528 C 0.26077 0.83924 0.78078 0.0
C529 C 0.22661 0.83452 0.78451 0.0
C530 C 0.23911 0.83662 0.76697 0.0
C531 C 0.27609 0.83547 0.71922 0.0
C532 C 0.26334 0.83718 0.73476 0.0
H533 H 0.20345 0.81437 0.77181 0.0
H534 H 0.22391 0.81813 0.74509 0.0
H535 H 0.24714 0.8401 0.83259 0.0
H536 H 0.30142 0.81983 0.74977 0.0
H537 H 0.28083 0.82364 0.77507 0.0
C538 C 0.42955 0.04445 0.97385 0.0
C539 C 0.42265 0.0498 0.93896 0.0
C540 C 0.42732 0.03256 0.98788 0.0
C541 C 0.41516 0.00332 0.9512 0.0
H542 H 0.41654 0.99602 0.07954 0.0
C543 C 0.42727 0.95595 0.01895 0.0
C544 C 0.42129 0.95137 0.0575 0.0
C545 C 0.42522 0.9678 0.00404 0.0
C546 C 0.41594 0.99789 0.04365 0.0
H547 H 0.40805 0.0466 0.89107 0.0
H548 H 0.40429 0.02556 0.91533 0.0
H549 H 0.4168 0.01714 0.0542 0.0
H550 H 0.40835 0.95582 0.11035 0.0
H551 H 0.40486 0.97671 0.08436 0.0
H552 H 0.41457 0.98405 0.94063 0.0
C553 C 0.41139 0.03075 0.93185 0.0
C554 C 0.41621 0.01 0.02908 0.0
C555 C 0.41355 0.04278 0.91797 0.0
C556 C 0.41314 0.95903 0.08064 0.0
C557 C 0.41115 0.971 0.0658 0.0
C558 C 0.41496 0.9912 0.96577 0.0
C559 C 0.41818 0.02557 0.96735 0.0
C560 C 0.41615 0.01284 0.98267 0.0
C561 C 0.41717 0.97551 0.02724 0.0
C562 C 0.41566 0.98834 0.01212 0.0
H563 H 0.43665 0.04949 0.99098 0.0
H564 H 0.43288 0.02878 0.01465 0.0
H565 H 0.41512 0.0052 0.91525 0.0
H566 H 0.4336 0.95037 1.00005 0.0
H567 H 0.43019 0.97103 0.97476 0.0
C568 C 0.79354 0.83806 0.83009 0.0
C569 C 0.8018 0.8313 0.80388 0.0
C570 C 0.78156 0.83989 0.81504 0.0
C571 C 0.76203 0.83868 0.71241 0.0
H572 H 0.73612 0.83079 0.79628 0.0
C573 C 0.71038 0.83881 0.66429 0.0
C574 C 0.70385 0.82858 0.67959 0.0
C575 C 0.72237 0.84086 0.67886 0.0
C576 C 0.74326 0.83307 0.77248 0.0
H577 H 0.80401 0.82155 0.74049 0.0
H578 H 0.78333 0.82473 0.71463 0.0
H579 H 0.75708 0.83174 0.82329 0.0
H580 H 0.7051 0.81229 0.72106 0.0
H581 H 0.72578 0.81588 0.74599 0.0
H582 H 0.74821 0.8396 0.66128 0.0
C583 C 0.78605 0.82866 0.74668 0.0
C584 C 0.75525 0.83374 0.78807 0.0
C585 C 0.7979 0.82672 0.76185 0.0
C586 C 0.70974 0.82033 0.70871 0.0
C587 C 0.7216 0.82242 0.72341 0.0
C588 C 0.75001 0.8381 0.69686 0.0
C589 C 0.77768 0.83515 0.77319 0.0
C590 C 0.76482 0.83623 0.75799 0.0
C591 C 0.72801 0.83279 0.7093 0.0
C592 C 0.74054 0.83495 0.7265 0.0
H593 H 0.79624 0.84173 0.86256 0.0
H594 H 0.77532 0.84497 0.83617 0.0
H595 H 0.7692 0.84076 0.68849 0.0
H596 H 0.70615 0.84537 0.64196 0.0
H597 H 0.72711 0.84891 0.6673 0.0
C598 C 0.91642 0.96052 0.41567 0.0
C599 C 0.91887 0.95124 0.44693 0.0
C600 C 0.91497 0.97258 0.43038 0.0
C601 C 0.92178 0.99228 0.53055 0.0
H602 H 0.90207 0.01574 0.46574 0.0
C603 C 0.91474 0.04182 0.59289 0.0
C604 C 0.91814 0.05057 0.56063 0.0
C605 C 0.91333 0.0296 0.58029 0.0
C606 C 0.90757 0.00925 0.48422 0.0
H607 H 0.92092 0.94708 0.51812 0.0
H608 H 0.91774 0.96777 0.54395 0.0
H609 H 0.90221 0.9945 0.44138 0.0
H610 H 0.92212 0.0535 0.4896 0.0
H611 H 0.91934 0.0323 0.4676 0.0
H612 H 0.92694 0.00705 0.57375 0.0
C613 C 0.91753 0.96603 0.50793 0.0
C614 C 0.90775 0.99709 0.47007 0.0
C615 C 0.91926 0.9541 0.49317 0.0
C616 C 0.91959 0.04695 0.51532 0.0
C617 C 0.91792 0.03484 0.5026 0.0
C618 C 0.92141 0.00436 0.54514 0.0
C619 C 0.91568 0.97553 0.47678 0.0
C620 C 0.91497 0.98843 0.49273 0.0
C621 C 0.91498 0.026 0.53504 0.0
C622 C 0.91442 0.01299 0.52184 0.0
H623 H 0.91612 0.95856 0.37979 0.0
H624 H 0.91369 0.9796 0.40517 0.0
H625 H 0.92771 0.98605 0.54837 0.0
H626 H 0.91359 0.04434 0.62804 0.0
H627 H 0.91104 0.02294 0.60592 0.0
C628 C 0.71266 0.18378 0.3276 0.0
C629 C 0.70527 0.17351 0.33427 0.0
C630 C 0.72481 0.18249 0.31483 0.0
C631 C 0.74522 0.16264 0.25258 0.0
H632 H 0.77023 0.18292 0.306 0.0
C633 C 0.79584 0.16373 0.19019 0.0
C634 C 0.80146 0.17522 0.19057 0.0
C635 C 0.78417 0.16219 0.20878 0.0
C636 C 0.76335 0.17726 0.29036 0.0
H637 H 0.70488 0.1538 0.33355 0.0
H638 H 0.72624 0.15154 0.31032 0.0
H639 H 0.75002 0.18242 0.33952 0.0
H640 H 0.79891 0.19423 0.2079 0.0
H641 H 0.77866 0.19163 0.23886 0.0
H642 H 0.75847 0.15782 0.20237 0.0
C643 C 0.72256 0.16058 0.31537 0.0
C644 C 0.75178 0.17693 0.30982 0.0
C645 C 0.7104 0.16187 0.32904 0.0
C646 C 0.79494 0.18521 0.20773 0.0
C647 C 0.78334 0.18369 0.22587 0.0
C648 C 0.75681 0.16304 0.2328 0.0
C649 C 0.72985 0.1709 0.30775 0.0
C650 C 0.74251 0.16984 0.29059 0.0
C651 C 0.77792 0.17213 0.22787 0.0
C652 C 0.76593 0.17062 0.25082 0.0
H653 H 0.70896 0.19286 0.33136 0.0
H654 H 0.73015 0.19062 0.30886 0.0
H655 H 0.73821 0.15715 0.23688 0.0
H656 H 0.80063 0.15585 0.17731 0.0
H657 H 0.78026 0.15315 0.20968 0.0
C658 C 0.58426 0.04169 0.91184 0.0
C659 C 0.58229 0.05096 0.94358 0.0
C660 C 0.58572 0.0296 0.92625 0.0
C661 C 0.57963 0.01003 0.02744 0.0
H662 H 0.59829 0.98616 0.96044 0.0
C663 C 0.58655 0.96053 0.09027 0.0
C664 C 0.58283 0.95174 0.05866 0.0
C665 C 0.58797 0.9727 0.07712 0.0
C666 C 0.59308 0.99277 0.97952 0.0
H667 H 0.58117 0.05512 0.01503 0.0
H668 H 0.5844 0.03438 0.0402 0.0
H669 H 0.59821 0.00737 0.93553 0.0
H670 H 0.57827 0.9487 0.98816 0.0
H671 H 0.58102 0.96982 0.96524 0.0
H672 H 0.5747 0.99542 0.07173 0.0
C673 C 0.58419 0.03613 0.0042 0.0
C674 C 0.59294 0.00491 0.96508 0.0
C675 C 0.58245 0.04808 0.9898 0.0
C676 C 0.58103 0.95527 0.01342 0.0
C677 C 0.5827 0.96735 1.00016 0.0
C678 C 0.57997 0.99797 0.04227 0.0
C679 C 0.5855 0.02663 0.97272 0.0
C680 C 0.58611 0.01372 0.98861 0.0
C681 C 0.58599 0.97622 0.03195 0.0
C682 C 0.58659 0.98919 0.01824 0.0
H683 H 0.58415 0.04369 0.87598 0.0
H684 H 0.5866 0.02257 0.90084 0.0
H685 H 0.57399 0.01638 0.04596 0.0
H686 H 0.58799 0.95807 0.12533 0.0
H687 H 0.59053 0.97939 0.10227 0.0
C688 C 0.71002 0.66297 0.66954 0.0
C689 C 0.70365 0.67328 0.68498 0.0
C690 C 0.72198 0.66073 0.68405 0.0
C691 C 0.74312 0.66825 0.77737 0.0
H692 H 0.76881 0.66024 0.69274 0.0
C693 C 0.79345 0.66296 0.83386 0.0
C694 C 0.80173 0.66956 0.8072 0.0
C695 C 0.78143 0.6612 0.81912 0.0
C696 C 0.76172 0.66241 0.71684 0.0
H697 H 0.70514 0.68949 0.72681 0.0
H698 H 0.72575 0.68558 0.7516 0.0
H699 H 0.74779 0.66162 0.6661 0.0
H700 H 0.80394 0.67908 0.74332 0.0
H701 H 0.7832 0.67602 0.71803 0.0
H702 H 0.75705 0.66949 0.82778 0.0
C703 C 0.72148 0.67912 0.72896 0.0
C704 C 0.74967 0.66311 0.70162 0.0
C705 C 0.70964 0.6814 0.71432 0.0
C706 C 0.79782 0.67403 0.76502 0.0
C707 C 0.78592 0.67216 0.75018 0.0
C708 C 0.75514 0.66748 0.79264 0.0
C709 C 0.72775 0.66869 0.71459 0.0
C710 C 0.74029 0.66637 0.73148 0.0
C711 C 0.77753 0.66584 0.77715 0.0
C712 C 0.76462 0.66487 0.76232 0.0
H713 H 0.70569 0.65652 0.64702 0.0
H714 H 0.7266 0.65263 0.6723 0.0
H715 H 0.73606 0.67061 0.80136 0.0
H716 H 0.79616 0.65938 0.86646 0.0
H717 H 0.77518 0.65624 0.84061 0.0
C718 C 0.58711 0.46083 0.91502 0.0
C719 C 0.58361 0.45206 0.94705 0.0
C720 C 0.5885 0.47304 0.92782 0.0
C721 C 0.59401 0.49333 0.02427 0.0
H722 H 0.57407 0.51658 0.95954 0.0
C723 C 0.58521 0.54213 0.09244 0.0
C724 C 0.58285 0.55141 0.06106 0.0
C725 C 0.58663 0.53006 0.07784 0.0
C726 C 0.57994 0.51034 0.97754 0.0
H727 H 0.57943 0.44907 0.01789 0.0
H728 H 0.58218 0.47026 0.04024 0.0
H729 H 0.57486 0.49559 0.93409 0.0
H730 H 0.58092 0.55553 0.98979 0.0
H731 H 0.58406 0.53481 0.96419 0.0
H732 H 0.5993 0.50806 0.06733 0.0
C733 C 0.58369 0.46775 0.00526 0.0
C734 C 0.58033 0.49826 0.96291 0.0
C735 C 0.58204 0.45564 0.99235 0.0
C736 C 0.58252 0.54851 0.01483 0.0
C737 C 0.58422 0.53657 1.0002 0.0
C738 C 0.59382 0.50549 0.03846 0.0
C739 C 0.58672 0.47661 0.97304 0.0
C740 C 0.58725 0.48961 0.98639 0.0
C741 C 0.58599 0.52708 0.03146 0.0
C742 C 0.58668 0.51417 0.01557 0.0
H743 H 0.58835 0.45834 0.87989 0.0
H744 H 0.59087 0.47971 0.90235 0.0
H745 H 0.59946 0.48682 0.0429 0.0
H746 H 0.58548 0.54412 0.1283 0.0
H747 H 0.58785 0.52305 0.10313 0.0
C748 C 0.70758 0.34003 0.31857 0.0
C749 C 0.7021 0.32847 0.32002 0.0
C750 C 0.71934 0.34145 0.30078 0.0
C751 C 0.74099 0.32535 0.22477 0.0
H752 H 0.76521 0.34729 0.27405 0.0
C753 C 0.792 0.31997 0.19118 0.0
C754 C 0.79889 0.33033 0.18024 0.0
C755 C 0.77986 0.32105 0.20423 0.0
C756 C 0.75846 0.34126 0.25956 0.0
H757 H 0.70499 0.30928 0.30695 0.0
H758 H 0.72545 0.31167 0.27764 0.0
H759 H 0.74481 0.34662 0.30749 0.0
H760 H 0.79839 0.34997 0.17402 0.0
H761 H 0.77703 0.35187 0.19792 0.0
H762 H 0.75472 0.31967 0.17803 0.0
C763 C 0.72058 0.31973 0.28841 0.0
C764 C 0.74678 0.34087 0.2787 0.0
C765 C 0.70885 0.31834 0.30564 0.0
C766 C 0.79327 0.34182 0.18194 0.0
C767 C 0.78111 0.34292 0.19594 0.0
C768 C 0.75263 0.32567 0.20605 0.0
C769 C 0.72587 0.33133 0.28444 0.0
C770 C 0.73798 0.33268 0.26219 0.0
C771 C 0.77431 0.33252 0.20737 0.0
C772 C 0.76157 0.33343 0.22378 0.0
H773 H 0.70258 0.34802 0.32926 0.0
H774 H 0.72313 0.35052 0.29828 0.0
H775 H 0.73436 0.31921 0.21018 0.0
H776 H 0.79606 0.31099 0.19013 0.0
H777 H 0.77488 0.31288 0.21317 0.0
C778 C 0.92843 0.45733 0.52328 0.0
C779 C 0.92229 0.45253 0.56108 0.0
C780 C 0.92647 0.46928 0.50929 0.0
C781 C 0.91687 0.4992 0.55012 0.0
H782 H 0.91617 0.50686 0.42203 0.0
C783 C 0.92937 0.54642 0.48205 0.0
C784 C 0.92279 0.55139 0.44562 0.0
C785 C 0.9273 0.53452 0.49647 0.0
C786 C 0.91618 0.50489 0.45792 0.0
H787 H 0.9092 0.4567 0.61374 0.0
H788 H 0.90586 0.47776 0.58938 0.0
H789 H 0.91589 0.48566 0.44649 0.0
H790 H 0.9088 0.5476 0.39587 0.0
H791 H 0.90524 0.52665 0.42102 0.0
H792 H 0.91734 0.51843 0.56153 0.0
C793 C 0.91221 0.47215 0.57066 0.0
C794 C 0.91614 0.49274 0.47195 0.0
C795 C 0.91411 0.46008 0.58457 0.0
C796 C 0.91405 0.54408 0.42395 0.0
C797 C 0.91203 0.53207 0.4383 0.0
C798 C 0.91695 0.51136 0.53608 0.0
C799 C 0.91835 0.47686 0.53271 0.0
C800 C 0.91679 0.48974 0.51818 0.0
C801 C 0.91861 0.52718 0.47487 0.0
C802 C 0.91692 0.51435 0.48978 0.0
H803 H 0.93479 0.45184 0.50416 0.0
H804 H 0.93153 0.47266 0.48047 0.0
H805 H 0.91741 0.49722 0.58594 0.0
H806 H 0.93619 0.55171 0.49973 0.0
H807 H 0.93271 0.53099 0.52414 0.0
C808 C 0.29346 0.34081 0.328 0.0
C809 C 0.29863 0.32919 0.33293 0.0
C810 C 0.28136 0.34209 0.31344 0.0
C811 C 0.25235 0.32533 0.3032 0.0
H812 H 0.24603 0.34568 0.19863 0.0
C813 C 0.20992 0.31771 0.19665 0.0
C814 C 0.20311 0.32786 0.18269 0.0
C815 C 0.22154 0.31913 0.21476 0.0
C816 C 0.2476 0.34009 0.22821 0.0
H817 H 0.29505 0.30983 0.32863 0.0
H818 H 0.27403 0.31204 0.30441 0.0
H819 H 0.26606 0.34625 0.23514 0.0
H820 H 0.20348 0.34745 0.17457 0.0
H821 H 0.22392 0.34996 0.20667 0.0
H822 H 0.23406 0.31904 0.29636 0.0
C823 C 0.27926 0.32018 0.31139 0.0
C824 C 0.25905 0.34044 0.24918 0.0
C825 C 0.29133 0.31891 0.32514 0.0
C826 C 0.20852 0.33944 0.18488 0.0
C827 C 0.2202 0.34088 0.20339 0.0
C828 C 0.24095 0.32502 0.28248 0.0
C829 C 0.27419 0.33176 0.30452 0.0
C830 C 0.26163 0.33281 0.28619 0.0
C831 C 0.22668 0.33075 0.21984 0.0
C832 C 0.23852 0.33212 0.24394 0.0
H833 H 0.29891 0.3489 0.33337 0.0
H834 H 0.27766 0.35113 0.30866 0.0
H835 H 0.25398 0.31952 0.33215 0.0
H836 H 0.2061 0.30863 0.19483 0.0
H837 H 0.22641 0.31109 0.22573 0.0
C838 C 0.43442 0.5426 0.06477 0.0
C839 C 0.42415 0.54943 0.07713 0.0
C840 C 0.43317 0.53091 0.04712 0.0
C841 C 0.41228 0.50483 0.03204 0.0
H842 H 0.43384 0.49811 0.93117 0.0
C843 C 0.41225 0.45889 0.93253 0.0
C844 C 0.42388 0.45362 0.92933 0.0
C845 C 0.41091 0.47098 0.94704 0.0
C846 C 0.42775 0.49984 0.95926 0.0
H847 H 0.40449 0.54908 0.08291 0.0
H848 H 0.40228 0.52853 0.05155 0.0
H849 H 0.43405 0.51811 0.96632 0.0
H850 H 0.4432 0.45701 0.93679 0.0
H851 H 0.4409 0.47802 0.96094 0.0
H852 H 0.4061 0.48639 0.02481 0.0
C853 C 0.41132 0.53226 0.05577 0.0
C854 C 0.42791 0.51128 0.97964 0.0
C855 C 0.41259 0.54401 0.07386 0.0
C856 C 0.43412 0.4608 0.93896 0.0
C857 C 0.4328 0.47287 0.95266 0.0
C858 C 0.41209 0.49333 0.01139 0.0
C859 C 0.4216 0.52574 0.04086 0.0
C860 C 0.42044 0.51383 0.01709 0.0
C861 C 0.4212 0.47805 0.95762 0.0
C862 C 0.42005 0.49064 0.97552 0.0
H863 H 0.44347 0.54644 0.06746 0.0
H864 H 0.44131 0.52601 0.03738 0.0
H865 H 0.40641 0.50649 0.06077 0.0
H866 H 0.40419 0.45353 0.92568 0.0
H867 H 0.40186 0.47476 0.95035 0.0
C868 C 0.29635 0.67752 0.73372 0.0
C869 C 0.301 0.67172 0.69493 0.0
C870 C 0.28444 0.67548 0.74801 0.0
C871 C 0.25437 0.66655 0.70677 0.0
H872 H 0.24682 0.665 0.83486 0.0
C873 C 0.20731 0.67903 0.7762 0.0
C874 C 0.20222 0.67216 0.81168 0.0
C875 C 0.21923 0.67702 0.76185 0.0
C876 C 0.24876 0.66525 0.79896 0.0
H877 H 0.29663 0.6591 0.64097 0.0
H878 H 0.27563 0.65562 0.66587 0.0
H879 H 0.26801 0.6646 0.81003 0.0
H880 H 0.20588 0.65777 0.86 0.0
H881 H 0.22687 0.65432 0.83497 0.0
H882 H 0.23513 0.66739 0.69572 0.0
C883 C 0.28133 0.66177 0.68511 0.0
C884 C 0.2609 0.66514 0.78472 0.0
C885 C 0.29336 0.66374 0.67091 0.0
C886 C 0.20948 0.66325 0.83266 0.0
C887 C 0.22151 0.66128 0.81836 0.0
C888 C 0.24223 0.66671 0.72101 0.0
C889 C 0.27675 0.66762 0.72391 0.0
C890 C 0.26386 0.66609 0.73852 0.0
C891 C 0.22648 0.66811 0.78255 0.0
C892 C 0.23929 0.66636 0.76733 0.0
H893 H 0.30193 0.6837 0.75333 0.0
H894 H 0.28117 0.6803 0.77755 0.0
H895 H 0.25632 0.66734 0.67099 0.0
H896 H 0.20208 0.686 0.75914 0.0
H897 H 0.22282 0.68262 0.73486 0.0
C898 C 0.09073 0.45835 0.57448 0.0
C899 C 0.0791 0.45304 0.57731 0.0
C900 C 0.09218 0.47002 0.55585 0.0
C901 C 0.09137 0.49744 0.5307 0.0
H902 H 0.07063 0.50357 0.42697 0.0
C903 C 0.09174 0.54313 0.42969 0.0
C904 C 0.08008 0.54822 0.42477 0.0
C905 C 0.09311 0.53108 0.4446 0.0
C906 C 0.07649 0.50201 0.45585 0.0
H907 H 0.05985 0.45619 0.56632 0.0
H908 H 0.06234 0.47645 0.53513 0.0
H909 H 0.07024 0.48373 0.46338 0.0
H910 H 0.06074 0.54454 0.42952 0.0
H911 H 0.0631 0.5236 0.45439 0.0
H912 H 0.09747 0.5159 0.52315 0.0
C913 C 0.07039 0.47152 0.54572 0.0
C914 C 0.07623 0.49066 0.47691 0.0
C915 C 0.06895 0.45993 0.56398 0.0
C916 C 0.06985 0.54088 0.43299 0.0
C917 C 0.07121 0.52886 0.44711 0.0
C918 C 0.09166 0.50886 0.50941 0.0
C919 C 0.08203 0.47656 0.53989 0.0
C920 C 0.08339 0.48833 0.51539 0.0
C921 C 0.08283 0.52386 0.4539 0.0
C922 C 0.08397 0.51134 0.47249 0.0
H923 H 0.09873 0.45325 0.58431 0.0
H924 H 0.10127 0.47367 0.552 0.0
H925 H 0.09701 0.49594 0.5602 0.0
H926 H 0.09979 0.54861 0.424 0.0
H927 H 0.10218 0.52744 0.44933 0.0
C928 C 0.15984 0.13492 0.01191 0.0
C929 C 0.15376 0.14488 0.03148 0.0
C930 C 0.15464 0.12859 0.97537 0.0
C931 C 0.13298 0.13321 0.88185 0.0
H932 H 0.13108 0.09805 0.87506 0.0
C933 C 0.10191 0.10981 0.7524 0.0
C934 C 0.10557 0.09884 0.73212 0.0
C935 C 0.10859 0.11492 0.7878 0.0
C936 C 0.1317 0.10788 0.876 0.0
H937 H 0.1373 0.15577 0.02859 0.0
H938 H 0.12838 0.14485 0.96527 0.0
H939 H 0.14129 0.1077 0.93938 0.0
H940 H 0.11923 0.08464 0.73335 0.0
H941 H 0.13112 0.09371 0.7949 0.0
H942 H 0.12355 0.13353 0.8187 0.0
C943 C 0.13718 0.14196 0.97778 0.0
C944 C 0.13753 0.1134 0.91298 0.0
C945 C 0.14228 0.14818 0.01436 0.0
C946 C 0.11616 0.0931 0.74821 0.0
C947 C 0.12293 0.09827 0.78371 0.0
C948 C 0.12727 0.12773 0.84487 0.0
C949 C 0.14334 0.1322 0.95737 0.0
C950 C 0.13802 0.12614 0.91675 0.0
C951 C 0.11924 0.10929 0.80392 0.0
C952 C 0.1263 0.11498 0.84177 0.0
H953 H 0.16869 0.13215 0.02427 0.0
H954 H 0.15962 0.12111 0.96034 0.0
H955 H 0.13342 0.14305 0.88318 0.0
H956 H 0.09375 0.11445 0.74124 0.0
H957 H 0.10526 0.12324 0.80299 0.0
C958 C 0.15982 0.86796 0.99159 0.0
C959 C 0.15369 0.85784 0.97343 0.0
C960 C 0.15483 0.87449 0.02807 0.0
C961 C 0.13371 0.87036 0.12374 0.0
H962 H 0.13136 0.90553 0.12685 0.0
C963 C 0.10259 0.89436 0.25142 0.0
C964 C 0.10618 0.90549 0.27063 0.0
C965 C 0.10927 0.88907 0.21638 0.0
C966 C 0.13211 0.89571 0.12692 0.0
H967 H 0.13735 0.84685 0.9789 0.0
H968 H 0.12878 0.85808 0.04206 0.0
H969 H 0.14148 0.89552 0.06307 0.0
H970 H 0.11969 0.91981 0.2678 0.0
H971 H 0.13157 0.91045 0.2068 0.0
H972 H 0.12448 0.87042 0.18731 0.0
C973 C 0.13747 0.86096 0.02851 0.0
C974 C 0.1379 0.88998 0.09027 0.0
C975 C 0.14238 0.85456 0.992 0.0
C976 C 0.11668 0.91122 0.25377 0.0
C977 C 0.12345 0.90588 0.21861 0.0
C978 C 0.12805 0.87606 0.16038 0.0
C979 C 0.14368 0.87091 0.04743 0.0
C980 C 0.13852 0.87721 0.08783 0.0
C981 C 0.11985 0.89469 0.19953 0.0
C982 C 0.12691 0.88881 0.16211 0.0
H983 H 0.16855 0.87073 0.97809 0.0
H984 H 0.15984 0.8821 0.04193 0.0
H985 H 0.13427 0.86052 0.12343 0.0
H986 H 0.0945 0.88971 0.26319 0.0
H987 H 0.10601 0.88062 0.20204 0.0
C988 C 0.38629 0.91065 0.24781 0.0
C989 C 0.39696 0.90495 0.23224 0.0
C990 C 0.37978 0.9058 0.28462 0.0
C991 C 0.38418 0.88624 0.38493 0.0
H992 H 0.34922 0.88159 0.38273 0.0
C993 C 0.36062 0.85455 0.51184 0.0
C994 C 0.34902 0.85749 0.52862 0.0
C995 C 0.36595 0.86141 0.47734 0.0
C996 C 0.35896 0.883 0.38428 0.0
H997 H 0.40903 0.88959 0.2429 0.0
H998 H 0.39783 0.88129 0.30662 0.0
H999 H 0.35934 0.89166 0.3191 0.0
H1000 H 0.33393 0.87005 0.52215 0.0
H1001 H 0.34335 0.88222 0.46204 0.0
H1002 H 0.38393 0.87767 0.44976 0.0
C1003 C 0.39449 0.88952 0.29079 0.0
C1004 C 0.36476 0.88876 0.34772 0.0
C1005 C 0.40089 0.89427 0.25397 0.0
C1006 C 0.34289 0.86756 0.51007 0.0
C1007 C 0.34827 0.87448 0.47539 0.0
C1008 C 0.37841 0.88059 0.42145 0.0
C1009 C 0.38392 0.89526 0.30692 0.0
C1010 C 0.37748 0.8902 0.3472 0.0
C1011 C 0.35989 0.87149 0.45857 0.0
C1012 C 0.36575 0.87862 0.42129 0.0
H1013 H 0.38301 0.91888 0.23181 0.0
H1014 H 0.37168 0.91045 0.29629 0.0
H1015 H 0.39395 0.88745 0.3861 0.0
H1016 H 0.36559 0.84681 0.52497 0.0
H1017 H 0.37477 0.85862 0.4648 0.0
C1018 C 0.39924 0.11076 0.76418 0.0
C1019 C 0.39596 0.09937 0.78198 0.0
C1020 C 0.3926 0.11602 0.72895 0.0
C1021 C 0.37076 0.10889 0.63648 0.0
H1022 H 0.36773 0.14402 0.63319 0.0
C1023 C 0.34331 0.13607 0.49893 0.0
C1024 C 0.34933 0.14633 0.4813 0.0
C1025 C 0.34823 0.12965 0.53579 0.0
C1026 C 0.36854 0.1342 0.63346 0.0
H1027 H 0.38298 0.0846 0.77668 0.0
H1028 H 0.37116 0.09393 0.71551 0.0
H1029 H 0.37721 0.1343 0.6981 0.0
H1030 H 0.36538 0.15769 0.48815 0.0
H1031 H 0.3738 0.14663 0.55208 0.0
H1032 H 0.36192 0.10892 0.57159 0.0
C1033 C 0.37903 0.09871 0.72848 0.0
C1034 C 0.37402 0.1286 0.67069 0.0
C1035 C 0.38575 0.09339 0.76379 0.0
C1036 C 0.36045 0.14986 0.50081 0.0
C1037 C 0.36527 0.14356 0.53774 0.0
C1038 C 0.36514 0.11452 0.59926 0.0
C1039 C 0.38238 0.11012 0.71051 0.0
C1040 C 0.37548 0.11588 0.6724 0.0
C1041 C 0.35917 0.13347 0.5561 0.0
C1042 C 0.3642 0.12726 0.59693 0.0
H1043 H 0.4071 0.11559 0.77699 0.0
H1044 H 0.39568 0.12465 0.71557 0.0
H1045 H 0.37177 0.0991 0.6363 0.0
H1046 H 0.33473 0.13311 0.48469 0.0
H1047 H 0.34331 0.12192 0.5492 0.0
C1048 C 0.85895 0.85172 1.00022 0.0
C1049 C 0.84816 0.85551 0.97893 0.0
C1050 C 0.86379 0.85824 0.03652 0.0
C1051 C 0.86436 0.88812 0.09272 0.0
H1052 H 0.87643 0.86924 0.19398 0.0
C1053 C 0.88564 0.91021 0.25462 0.0
C1054 C 0.89601 0.90436 0.27208 0.0
C1055 C 0.87877 0.90478 0.21995 0.0
C1056 C 0.87322 0.87467 0.16587 0.0
H1057 H 0.83413 0.86936 0.97867 0.0
H1058 H 0.8427 0.8809 0.04234 0.0
H1059 H 0.86646 0.85898 0.13126 0.0
H1060 H 0.90732 0.88826 0.26633 0.0
H1061 H 0.89557 0.87897 0.20619 0.0
H1062 H 0.87139 0.90381 0.12718 0.0
C1063 C 0.84737 0.87281 0.03071 0.0
C1064 C 0.86747 0.86878 0.12988 0.0
C1065 C 0.84245 0.86619 0.99436 0.0
C1066 C 0.89935 0.89301 0.25402 0.0
C1067 C 0.89253 0.88762 0.21958 0.0
C1068 C 0.87019 0.89405 0.12881 0.0
C1069 C 0.85803 0.8688 0.0526 0.0
C1070 C 0.86317 0.87537 0.09242 0.0
C1071 C 0.88211 0.89337 0.20214 0.0
C1072 C 0.87492 0.88736 0.16546 0.0
H1073 H 0.86365 0.84358 0.9892 0.0
H1074 H 0.87212 0.85501 0.05199 0.0
H1075 H 0.86119 0.89347 0.0643 0.0
H1076 H 0.88282 0.91897 0.26777 0.0
H1077 H 0.87076 0.90945 0.20754 0.0
C1078 C 0.84312 0.13665 0.01317 0.0
C1079 C 0.84928 0.14691 0.02999 0.0
C1080 C 0.84832 0.12949 0.97882 0.0
C1081 C 0.87815 0.12308 0.92348 0.0
H1082 H 0.85866 0.11138 0.82322 0.0
C1083 C 0.8999 0.10844 0.75591 0.0
C1084 C 0.89585 0.09766 0.73522 0.0
C1085 C 0.89368 0.11338 0.79278 0.0
C1086 C 0.86419 0.11446 0.85128 0.0
H1087 H 0.86572 0.1577 0.02361 0.0
H1088 H 0.87461 0.14547 0.96401 0.0
H1089 H 0.84881 0.12184 0.88657 0.0
H1090 H 0.88188 0.08375 0.73667 0.0
H1091 H 0.87088 0.09252 0.80125 0.0
H1092 H 0.89355 0.11601 0.88787 0.0
C1093 C 0.86589 0.14273 0.97766 0.0
C1094 C 0.85855 0.12044 0.88765 0.0
C1095 C 0.86073 0.14982 0.0118 0.0
C1096 C 0.88525 0.09205 0.75188 0.0
C1097 C 0.87893 0.09709 0.78874 0.0
C1098 C 0.88377 0.1172 0.88715 0.0
C1099 C 0.85981 0.13244 0.96067 0.0
C1100 C 0.8655 0.12505 0.92383 0.0
C1101 C 0.88318 0.10774 0.80996 0.0
C1102 C 0.87691 0.11302 0.85017 0.0
H1103 H 0.83427 0.13417 0.0264 0.0
H1104 H 0.8434 0.1216 0.96679 0.0
H1105 H 0.88379 0.1262 0.9512 0.0
H1106 H 0.90799 0.11304 0.74396 0.0
H1107 H 0.8971 0.12169 0.80779 0.0
C1108 C 0.60307 0.11081 0.76005 0.0
C1109 C 0.60659 0.09963 0.779 0.0
C1110 C 0.60966 0.116 0.72452 0.0
C1111 C 0.63201 0.10877 0.63375 0.0
H1112 H 0.63432 0.14392 0.62738 0.0
C1113 C 0.66002 0.13549 0.49683 0.0
C1114 C 0.65407 0.14561 0.47781 0.0
C1115 C 0.65484 0.12921 0.53352 0.0
C1116 C 0.6337 0.13409 0.62848 0.0
H1117 H 0.61994 0.08516 0.77548 0.0
H1118 H 0.63167 0.09436 0.71389 0.0
H1119 H 0.62466 0.13445 0.69241 0.0
H1120 H 0.63788 0.15684 0.48189 0.0
H1121 H 0.62899 0.14602 0.54555 0.0
H1122 H 0.64124 0.10855 0.56965 0.0
C1123 C 0.62365 0.09903 0.72611 0.0
C1124 C 0.62811 0.12863 0.66579 0.0
C1125 C 0.61698 0.09379 0.76167 0.0
C1126 C 0.64275 0.14912 0.49567 0.0
C1127 C 0.63767 0.14296 0.53245 0.0
C1128 C 0.63773 0.11427 0.59648 0.0
C1129 C 0.62007 0.11023 0.70698 0.0
C1130 C 0.62695 0.1159 0.66865 0.0
C1131 C 0.6437 0.13303 0.55227 0.0
C1132 C 0.63843 0.12701 0.59304 0.0
H1133 H 0.59506 0.11554 0.77219 0.0
H1134 H 0.6064 0.12446 0.71025 0.0
H1135 H 0.63122 0.09896 0.63443 0.0
H1136 H 0.66875 0.13255 0.4839 0.0
H1137 H 0.65973 0.12161 0.54809 0.0
C1138 C 0.66136 0.86434 0.50006 0.0
C1139 C 0.65415 0.85812 0.53174 0.0
C1140 C 0.65595 0.87076 0.46424 0.0
C1141 C 0.62639 0.87263 0.40166 0.0
H1142 H 0.64133 0.90073 0.34543 0.0
C1143 C 0.60698 0.89186 0.23602 0.0
C1144 C 0.60713 0.90449 0.22896 0.0
C1145 C 0.61339 0.88665 0.27193 0.0
C1146 C 0.63693 0.89297 0.36094 0.0
H1147 H 0.63562 0.85434 0.55229 0.0
H1148 H 0.62621 0.86597 0.49183 0.0
H1149 H 0.65076 0.89156 0.41175 0.0
H1150 H 0.61434 0.92157 0.2537 0.0
H1151 H 0.62519 0.91255 0.3177 0.0
H1152 H 0.61227 0.87432 0.35264 0.0
C1153 C 0.63604 0.86551 0.49298 0.0
C1154 C 0.64246 0.88758 0.39878 0.0
C1155 C 0.64144 0.85892 0.52811 0.0
C1156 C 0.61409 0.91179 0.25818 0.0
C1157 C 0.62036 0.90659 0.2948 0.0
C1158 C 0.62079 0.8781 0.36441 0.0
C1159 C 0.64318 0.87127 0.45969 0.0
C1160 C 0.63729 0.87729 0.41971 0.0
C1161 C 0.61996 0.89393 0.30263 0.0
C1162 C 0.626 0.8883 0.34309 0.0
H1163 H 0.67119 0.86382 0.50182 0.0
H1164 H 0.66182 0.87493 0.43928 0.0
H1165 H 0.62216 0.8646 0.41587 0.0
H1166 H 0.60183 0.88596 0.21377 0.0
H1167 H 0.61313 0.87686 0.27561 0.0
C1168 C 0.64233 0.64889 0.51476 0.0
C1169 C 0.6537 0.64561 0.53287 0.0
C1170 C 0.63736 0.64253 0.47828 0.0
C1171 C 0.63779 0.61362 0.41565 0.0
H1172 H 0.62423 0.63334 0.31932 0.0
C1173 C 0.61664 0.59265 0.25156 0.0
C1174 C 0.6061 0.59837 0.23494 0.0
C1175 C 0.62339 0.59794 0.28687 0.0
C1176 C 0.62784 0.62765 0.34605 0.0
H1177 H 0.66858 0.63276 0.52749 0.0
H1178 H 0.65975 0.62146 0.46373 0.0
H1179 H 0.634 0.64314 0.38345 0.0
H1180 H 0.59435 0.61408 0.24294 0.0
H1181 H 0.60583 0.62308 0.30432 0.0
H1182 H 0.63134 0.59812 0.37861 0.0
C1183 C 0.65474 0.62904 0.47792 0.0
C1184 C 0.63348 0.6333 0.38284 0.0
C1185 C 0.65981 0.63552 0.51435 0.0
C1186 C 0.60247 0.60944 0.25452 0.0
C1187 C 0.60914 0.61467 0.2897 0.0
C1188 C 0.63203 0.60794 0.37885 0.0
C1189 C 0.64355 0.63263 0.45896 0.0
C1190 C 0.63836 0.62639 0.41849 0.0
C1191 C 0.61974 0.60907 0.30633 0.0
C1192 C 0.62677 0.6149 0.34391 0.0
H1193 H 0.63733 0.65658 0.52816 0.0
H1194 H 0.62863 0.64541 0.46503 0.0
H1195 H 0.64143 0.60804 0.44264 0.0
H1196 H 0.61969 0.58411 0.23725 0.0
H1197 H 0.63154 0.59339 0.29851 0.0
C1198 C 0.6022 0.39446 0.75113 0.0
C1199 C 0.60622 0.40516 0.77246 0.0
C1200 C 0.60851 0.38962 0.71429 0.0
C1201 C 0.63817 0.38865 0.65692 0.0
H1202 H 0.61884 0.37745 0.55545 0.0
C1203 C 0.6597 0.3671 0.49468 0.0
C1204 C 0.65356 0.35694 0.47697 0.0
C1205 C 0.6544 0.37414 0.52918 0.0
C1206 C 0.6244 0.38042 0.5836 0.0
H1207 H 0.62025 0.41902 0.77224 0.0
H1208 H 0.63142 0.41042 0.70775 0.0
H1209 H 0.60892 0.38736 0.61904 0.0
H1210 H 0.63703 0.34623 0.48185 0.0
H1211 H 0.62798 0.35824 0.54168 0.0
H1212 H 0.65364 0.38139 0.6218 0.0
C1213 C 0.62331 0.40584 0.71971 0.0
C1214 C 0.61869 0.38614 0.62007 0.0
C1215 C 0.6169 0.41078 0.75652 0.0
C1216 C 0.64202 0.35403 0.49436 0.0
C1217 C 0.63676 0.361 0.52864 0.0
C1218 C 0.6439 0.38283 0.6204 0.0
C1219 C 0.61908 0.39528 0.69782 0.0
C1220 C 0.62545 0.39013 0.65759 0.0
C1221 C 0.64284 0.37117 0.54657 0.0
C1222 C 0.63705 0.37841 0.58363 0.0
H1223 H 0.59405 0.38986 0.76252 0.0
H1224 H 0.60511 0.38137 0.69874 0.0
H1225 H 0.64363 0.39159 0.68539 0.0
H1226 H 0.66862 0.36958 0.4821 0.0
H1227 H 0.65932 0.38195 0.54194 0.0
C1228 C 0.89553 0.3923 0.73195 0.0
C1229 C 0.89575 0.40496 0.72592 0.0
C1230 C 0.88892 0.38707 0.76734 0.0
C1231 C 0.86565 0.3936 0.85715 0.0
H1232 H 0.87973 0.36457 0.9098 0.0
C1233 C 0.84088 0.36521 0.99618 0.0
C1234 C 0.84805 0.35871 0.02717 0.0
C1235 C 0.84632 0.37156 0.96024 0.0
C1236 C 0.87571 0.37278 0.89623 0.0
H1237 H 0.889 0.4221 0.75182 0.0
H1238 H 0.87784 0.41305 0.81499 0.0
H1239 H 0.88976 0.37429 0.84692 0.0
H1240 H 0.86654 0.35433 0.04648 0.0
H1241 H 0.87603 0.36582 0.98591 0.0
H1242 H 0.85192 0.39237 0.90837 0.0
C1243 C 0.88251 0.40707 0.79166 0.0
C1244 C 0.88137 0.37826 0.85917 0.0
C1245 C 0.88895 0.4123 0.75552 0.0
C1246 C 0.86076 0.35913 0.02277 0.0
C1247 C 0.8662 0.36564 0.98759 0.0
C1248 C 0.86006 0.3882 0.89485 0.0
C1249 C 0.88255 0.39437 0.79855 0.0
C1250 C 0.87641 0.3887 0.83869 0.0
C1251 C 0.85908 0.3717 0.95496 0.0
C1252 C 0.865 0.37768 0.91498 0.0
H1253 H 0.90055 0.38639 0.70935 0.0
H1254 H 0.88891 0.37726 0.77026 0.0
H1255 H 0.86144 0.40155 0.84227 0.0
H1256 H 0.83105 0.365 0.9986 0.0
H1257 H 0.84048 0.37598 0.9358 0.0
C1258 C 0.88666 0.59299 0.2618 0.0
C1259 C 0.89697 0.59904 0.27878 0.0
C1260 C 0.87958 0.59827 0.2274 0.0
C1261 C 0.87334 0.6282 0.17278 0.0
H1262 H 0.86162 0.60899 0.07182 0.0
C1263 C 0.85873 0.6505 0.00627 0.0
C1264 C 0.84803 0.64646 0.98492 0.0
C1265 C 0.86362 0.64418 0.04294 0.0
C1266 C 0.86469 0.61445 0.10007 0.0
H1267 H 0.90792 0.61538 0.27264 0.0
H1268 H 0.89579 0.62443 0.21302 0.0
H1269 H 0.87203 0.59896 0.13488 0.0
H1270 H 0.83423 0.63238 0.98504 0.0
H1271 H 0.84291 0.62119 0.04937 0.0
H1272 H 0.86628 0.6437 0.13776 0.0
C1273 C 0.89297 0.61572 0.22653 0.0
C1274 C 0.87065 0.6087 0.13628 0.0
C1275 C 0.9 0.61047 0.26068 0.0
C1276 C 0.84247 0.63575 1.00076 0.0
C1277 C 0.84746 0.62932 0.03748 0.0
C1278 C 0.86746 0.63392 0.13667 0.0
C1279 C 0.88264 0.60975 0.20941 0.0
C1280 C 0.87528 0.61555 0.1727 0.0
C1281 C 0.85802 0.63357 0.05935 0.0
C1282 C 0.86327 0.62717 0.0994 0.0
H1283 H 0.88409 0.58416 0.27495 0.0
H1284 H 0.87165 0.59344 0.21527 0.0
H1285 H 0.87647 0.63376 0.2007 0.0
H1286 H 0.86331 0.65868 0.99496 0.0
H1287 H 0.87188 0.64759 0.05838 0.0
C1288 C 0.34398 0.36738 0.49536 0.0
C1289 C 0.34991 0.35725 0.47645 0.0
C1290 C 0.34938 0.37397 0.53081 0.0
C1291 C 0.37931 0.37868 0.58886 0.0
H1292 H 0.35952 0.3906 0.68798 0.0
C1293 C 0.40034 0.39238 0.75939 0.0
C1294 C 0.39663 0.40344 0.77887 0.0
C1295 C 0.39417 0.3875 0.72226 0.0
C1296 C 0.36515 0.38743 0.66032 0.0
H1297 H 0.36618 0.34612 0.48018 0.0
H1298 H 0.37538 0.35731 0.54194 0.0
H1299 H 0.34977 0.38088 0.62294 0.0
H1300 H 0.38323 0.41788 0.77518 0.0
H1301 H 0.37227 0.40919 0.71041 0.0
H1302 H 0.39469 0.38491 0.62677 0.0
C1303 C 0.36671 0.36044 0.52901 0.0
C1304 C 0.35956 0.38188 0.6229 0.0
C1305 C 0.36137 0.35393 0.49357 0.0
C1306 C 0.38633 0.40934 0.76099 0.0
C1307 C 0.38004 0.40436 0.72397 0.0
C1308 C 0.38487 0.38409 0.62635 0.0
C1309 C 0.36082 0.37056 0.54829 0.0
C1310 C 0.36659 0.37727 0.58687 0.0
C1311 C 0.38402 0.39347 0.70372 0.0
C1312 C 0.37789 0.38839 0.66284 0.0
H1313 H 0.33514 0.37017 0.48299 0.0
H1314 H 0.3446 0.38178 0.54434 0.0
H1315 H 0.38504 0.37557 0.56143 0.0
H1316 H 0.40821 0.38756 0.77224 0.0
H1317 H 0.39737 0.37901 0.70795 0.0
C1318 C 0.35885 0.6508 0.50261 0.0
C1319 C 0.34823 0.64681 0.52467 0.0
C1320 C 0.36353 0.64445 0.46559 0.0
C1321 C 0.36439 0.61479 0.40841 0.0
H1322 H 0.37454 0.6341 0.30539 0.0
C1323 C 0.38501 0.59308 0.24493 0.0
C1324 C 0.39482 0.59936 0.22527 0.0
C1325 C 0.37818 0.59841 0.27995 0.0
C1326 C 0.37189 0.62854 0.33396 0.0
H1327 H 0.3344 0.63278 0.52556 0.0
H1328 H 0.34275 0.6215 0.46082 0.0
H1329 H 0.36504 0.64399 0.36991 0.0
H1330 H 0.40513 0.61619 0.2272 0.0
H1331 H 0.39351 0.62529 0.28802 0.0
H1332 H 0.37159 0.59937 0.37287 0.0
C1333 C 0.34738 0.62963 0.47234 0.0
C1334 C 0.36639 0.63424 0.37097 0.0
C1335 C 0.34258 0.6361 0.50932 0.0
C1336 C 0.39758 0.61109 0.2412 0.0
C1337 C 0.39083 0.61637 0.27608 0.0
C1338 C 0.37002 0.60908 0.37138 0.0
C1339 C 0.35782 0.63385 0.44964 0.0
C1340 C 0.36276 0.62748 0.40901 0.0
C1341 C 0.38102 0.61014 0.29607 0.0
C1342 C 0.37405 0.61592 0.33396 0.0
H1343 H 0.36348 0.65899 0.51348 0.0
H1344 H 0.37169 0.64785 0.4494 0.0
H1345 H 0.36174 0.60934 0.43727 0.0
H1346 H 0.38266 0.58402 0.23352 0.0
H1347 H 0.37064 0.59336 0.29419 0.0
C1348 C 0.14344 0.65049 0.99972 0.0
C1349 C 0.15459 0.64697 0.98046 0.0
C1350 C 0.13825 0.64382 0.03498 0.0
C1351 C 0.14523 0.62124 0.12496 0.0
H1352 H 0.11006 0.61884 0.12961 0.0
C1353 C 0.11813 0.59324 0.26089 0.0
C1354 C 0.10792 0.59917 0.27936 0.0
C1355 C 0.1245 0.59839 0.22438 0.0
C1356 C 0.11989 0.61948 0.12899 0.0
H1357 H 0.16903 0.63357 0.98338 0.0
H1358 H 0.15982 0.62171 0.04476 0.0
H1359 H 0.11974 0.6286 0.0652 0.0
H1360 H 0.09662 0.61529 0.27443 0.0
H1361 H 0.10761 0.62415 0.2111 0.0
H1362 H 0.14525 0.61196 0.18897 0.0
C1363 C 0.15517 0.62978 0.03282 0.0
C1364 C 0.12547 0.62512 0.09204 0.0
C1365 C 0.16042 0.63653 0.99743 0.0
C1366 C 0.10441 0.61044 0.26108 0.0
C1367 C 0.11067 0.6155 0.2245 0.0
C1368 C 0.13962 0.61548 0.1619 0.0
C1369 C 0.14397 0.63333 0.05202 0.0
C1370 C 0.13821 0.62632 0.08984 0.0
C1371 C 0.1207 0.60949 0.20526 0.0
C1372 C 0.12686 0.61475 0.16475 0.0
H1373 H 0.13872 0.65853 0.98787 0.0
H1374 H 0.12978 0.64705 0.04938 0.0
H1375 H 0.15505 0.62205 0.12471 0.0
H1376 H 0.12107 0.58454 0.27414 0.0
H1377 H 0.13218 0.59352 0.21026 0.0
C1378 C 0.11738 0.40934 0.74748 0.0
C1379 C 0.10709 0.40339 0.72978 0.0
C1380 C 0.12375 0.40439 0.78439 0.0
C1381 C 0.11902 0.38422 0.8822 0.0
H1382 H 0.15408 0.38055 0.88501 0.0
C1383 C 0.14208 0.3534 0.01339 0.0
C1384 C 0.15355 0.35651 0.03098 0.0
C1385 C 0.13689 0.36007 0.97813 0.0
C1386 C 0.1443 0.38169 0.8852 0.0
H1387 H 0.09562 0.38743 0.73659 0.0
H1388 H 0.10659 0.37894 0.80066 0.0
H1389 H 0.14436 0.39045 0.82017 0.0
H1390 H 0.16852 0.36923 0.02527 0.0
H1391 H 0.15932 0.38114 0.96405 0.0
H1392 H 0.11881 0.37565 0.947 0.0
C1393 C 0.10972 0.38745 0.7863 0.0
C1394 C 0.13873 0.38733 0.84791 0.0
C1395 C 0.10348 0.3923 0.7493 0.0
C1396 C 0.15966 0.3666 0.01255 0.0
C1397 C 0.15442 0.37336 0.97721 0.0
C1398 C 0.12455 0.37872 0.91952 0.0
C1399 C 0.11985 0.39348 0.8047 0.0
C1400 C 0.126 0.38843 0.84559 0.0
C1401 C 0.14294 0.37017 0.95944 0.0
C1402 C 0.13726 0.37711 0.92123 0.0
H1403 H 0.12041 0.4179 0.73325 0.0
H1404 H 0.13151 0.40926 0.79784 0.0
H1405 H 0.1092 0.38515 0.88192 0.0
H1406 H 0.13713 0.34563 0.02638 0.0
H1407 H 0.1282 0.35711 0.9649 0.0
C1408 C 0.17481 0.29731 0.05597 0.0
C1409 C 0.1686 0.3024 0.09301 0.0
C1410 C 0.17522 0.28463 0.05017 0.0
C1411 C 0.15852 0.25688 0.08306 0.0
H1412 H 0.18849 0.23949 0.0582 0.0
C1413 C 0.16346 0.20653 0.12426 0.0
C1414 C 0.16902 0.19877 0.09271 0.0
C1415 C 0.16371 0.2191 0.11838 0.0
C1416 C 0.18002 0.24424 0.06443 0.0
H1417 H 0.15818 0.29819 0.15334 0.0
H1418 H 0.15894 0.27631 0.14335 0.0
H1419 H 0.18841 0.26182 0.05838 0.0
H1420 H 0.17945 0.19814 0.03056 0.0
H1421 H 0.17994 0.22033 0.02029 0.0
H1422 H 0.15016 0.23943 0.09016 0.0
C1423 C 0.16334 0.28203 0.1184 0.0
C1424 C 0.17997 0.25701 0.06454 0.0
C1425 C 0.16298 0.29459 0.12427 0.0
C1426 C 0.17505 0.2039 0.05535 0.0
C1427 C 0.17537 0.21658 0.04957 0.0
C1428 C 0.15857 0.2442 0.08298 0.0
C1429 C 0.16935 0.27688 0.0811 0.0
C1430 C 0.16928 0.26344 0.07513 0.0
C1431 C 0.16956 0.22429 0.08082 0.0
C1432 C 0.16938 0.23772 0.07494 0.0
H1433 H 0.17925 0.3031 0.0314 0.0
H1434 H 0.17992 0.28092 0.02108 0.0
H1435 H 0.15007 0.26156 0.09026 0.0
H1436 H 0.15879 0.2029 0.15356 0.0
H1437 H 0.15935 0.22478 0.14354 0.0
C1438 C 0.9544 0.92777 0.30924 0.0
C1439 C 0.94916 0.9213 0.34534 0.0
C1440 C 0.96711 0.92849 0.30492 0.0
C1441 C 0.99479 0.91197 0.33951 0.0
H1442 H 0.01212 0.94194 0.31431 0.0
C1443 C 0.04544 0.91636 0.37661 0.0
C1444 C 0.053 0.92186 0.34426 0.0
C1445 C 0.03282 0.9169 0.37246 0.0
C1446 C 0.00738 0.93348 0.32074 0.0
H1447 H 0.9531 0.91086 0.40588 0.0
H1448 H 0.97503 0.91218 0.39853 0.0
H1449 H 0.98978 0.94183 0.31461 0.0
H1450 H 0.05324 0.93257 0.28272 0.0
H1451 H 0.03098 0.93352 0.27541 0.0
H1452 H 0.01223 0.90362 0.34635 0.0
C1453 C 0.96942 0.91653 0.3731 0.0
C1454 C 0.99461 0.93341 0.32091 0.0
C1455 C 0.95682 0.91584 0.37745 0.0
C1456 C 0.04763 0.92822 0.30812 0.0
C1457 C 0.03492 0.92879 0.30402 0.0
C1458 C 0.00747 0.91204 0.33935 0.0
C1459 C 0.97474 0.92269 0.33647 0.0
C1460 C 0.9882 0.92271 0.33143 0.0
C1461 C 0.02739 0.92295 0.33583 0.0
C1462 C 0.01393 0.92284 0.33109 0.0
H1463 H 0.94871 0.93209 0.28401 0.0
H1464 H 0.97095 0.93329 0.27631 0.0
H1465 H 0.99012 0.90351 0.34662 0.0
H1466 H 0.04925 0.91146 0.40506 0.0
H1467 H 0.0273 0.91253 0.39807 0.0
C1468 C 0.33649 0.79547 0.62525 0.0
C1469 C 0.33209 0.80337 0.59169 0.0
C1470 C 0.33457 0.78297 0.62219 0.0
C1471 C 0.32884 0.75799 0.54361 0.0
H1472 H 0.32042 0.74092 0.65407 0.0
C1473 C 0.32498 0.70498 0.55698 0.0
C1474 C 0.33115 0.70005 0.59441 0.0
C1475 C 0.32328 0.7176 0.55327 0.0
C1476 C 0.32278 0.74554 0.62292 0.0
H1477 H 0.32236 0.80429 0.52804 0.0
H1478 H 0.31908 0.78221 0.52242 0.0
H1479 H 0.3207 0.76306 0.65327 0.0
H1480 H 0.34038 0.70451 0.65714 0.0
H1481 H 0.33739 0.72629 0.65081 0.0
H1482 H 0.33126 0.74034 0.51374 0.0
C1483 C 0.32398 0.78581 0.55121 0.0
C1484 C 0.32293 0.75822 0.62246 0.0
C1485 C 0.32583 0.79843 0.55448 0.0
C1486 C 0.33552 0.70796 0.62799 0.0
C1487 C 0.33374 0.72048 0.6245 0.0
C1488 C 0.32869 0.74523 0.54408 0.0
C1489 C 0.32824 0.77798 0.58537 0.0
C1490 C 0.32633 0.7646 0.58326 0.0
C1491 C 0.3276 0.72547 0.58722 0.0
C1492 C 0.32602 0.73888 0.58419 0.0
H1493 H 0.34145 0.79892 0.65418 0.0
H1494 H 0.3382 0.77718 0.6486 0.0
H1495 H 0.33152 0.76265 0.51294 0.0
H1496 H 0.32154 0.6991 0.53052 0.0
H1497 H 0.3185 0.72119 0.52417 0.0
C1498 C 0.45472 0.07662 0.8083 0.0
C1499 C 0.44976 0.08245 0.84642 0.0
C1500 C 0.46734 0.07491 0.80463 0.0
C1501 C 0.49507 0.07345 0.87504 0.0
H1502 H 0.5126 0.08301 0.76692 0.0
C1503 C 0.54525 0.08637 0.88054 0.0
C1504 C 0.5531 0.08233 0.84622 0.0
C1505 C 0.53274 0.08459 0.87719 0.0
C1506 C 0.50782 0.0801 0.79705 0.0
H1507 H 0.45417 0.09114 0.91024 0.0
H1508 H 0.47595 0.08813 0.90396 0.0
H1509 H 0.49029 0.08306 0.7669 0.0
H1510 H 0.55395 0.07334 0.78107 0.0
H1511 H 0.53186 0.07028 0.77498 0.0
H1512 H 0.51249 0.0708 0.9057 0.0
C1513 C 0.47016 0.08475 0.87711 0.0
C1514 C 0.49505 0.08013 0.79704 0.0
C1515 C 0.45765 0.08653 0.88057 0.0
C1516 C 0.54812 0.07652 0.80812 0.0
C1517 C 0.5355 0.07481 0.80456 0.0
C1518 C 0.50776 0.07342 0.87505 0.0
C1519 C 0.47517 0.07887 0.83927 0.0
C1520 C 0.48857 0.07716 0.83653 0.0
C1521 C 0.52769 0.07876 0.83931 0.0
C1522 C 0.51429 0.0771 0.83656 0.0
H1523 H 0.44887 0.0734 0.78139 0.0
H1524 H 0.47096 0.07035 0.77508 0.0
H1525 H 0.49033 0.07085 0.90568 0.0
H1526 H 0.54876 0.09096 0.91021 0.0
H1527 H 0.52697 0.08795 0.90413 0.0
C1528 C 0.17588 0.7988 0.94675 0.0
C1529 C 0.16964 0.8038 0.9096 0.0
C1530 C 0.17761 0.78618 0.95001 0.0
C1531 C 0.17839 0.75859 0.87872 0.0
H1532 H 0.17062 0.74079 0.98818 0.0
C1533 C 0.16682 0.70802 0.87497 0.0
C1534 C 0.17136 0.70031 0.9089 0.0
C1535 C 0.16831 0.72058 0.87794 0.0
C1536 C 0.17303 0.74565 0.95761 0.0
H1537 H 0.16017 0.79944 0.84725 0.0
H1538 H 0.16321 0.77766 0.85287 0.0
H1539 H 0.17016 0.76309 0.98858 0.0
H1540 H 0.18098 0.69977 0.97283 0.0
H1541 H 0.18355 0.72193 0.97819 0.0
H1542 H 0.18098 0.74127 0.84733 0.0
C1543 C 0.16691 0.78342 0.87921 0.0
C1544 C 0.17276 0.75841 0.95784 0.0
C1545 C 0.16511 0.79594 0.87614 0.0
C1546 C 0.17741 0.70549 0.94611 0.0
C1547 C 0.17884 0.71815 0.94926 0.0
C1548 C 0.17866 0.74591 0.87849 0.0
C1549 C 0.17324 0.77838 0.91593 0.0
C1550 C 0.1751 0.76499 0.918 0.0
C1551 C 0.17434 0.72582 0.91501 0.0
C1552 C 0.17565 0.73927 0.91752 0.0
H1553 H 0.17945 0.80464 0.9731 0.0
H1554 H 0.18253 0.78253 0.97871 0.0
H1555 H 0.1805 0.76341 0.84773 0.0
H1556 H 0.16204 0.70436 0.84597 0.0
H1557 H 0.16453 0.72622 0.85139 0.0
C1558 C 0.45524 0.92809 0.19375 0.0
C1559 C 0.45005 0.92165 0.15748 0.0
C1560 C 0.4679 0.92972 0.19616 0.0
C1561 C 0.49548 0.92935 0.12437 0.0
H1562 H 0.513 0.92192 0.23478 0.0
C1563 C 0.54591 0.91675 0.12277 0.0
C1564 C 0.5536 0.92132 0.15669 0.0
C1565 C 0.53336 0.91848 0.12516 0.0
C1566 C 0.50822 0.92423 0.20391 0.0
H1567 H 0.45405 0.91189 0.09545 0.0
H1568 H 0.47589 0.91476 0.09958 0.0
H1569 H 0.49071 0.92207 0.23501 0.0
H1570 H 0.55413 0.93125 0.21997 0.0
H1571 H 0.53203 0.93426 0.22428 0.0
H1572 H 0.51289 0.93123 0.09291 0.0
C1573 C 0.47027 0.91866 0.12594 0.0
C1574 C 0.49547 0.92431 0.20405 0.0
C1575 C 0.45772 0.91696 0.12372 0.0
C1576 C 0.54843 0.92764 0.19328 0.0
C1577 C 0.53579 0.92932 0.19584 0.0
C1578 C 0.50817 0.92927 0.12423 0.0
C1579 C 0.47553 0.92507 0.16208 0.0
C1580 C 0.48897 0.92655 0.16393 0.0
C1581 C 0.52813 0.9248 0.16162 0.0
C1582 C 0.5147 0.92638 0.16365 0.0
H1583 H 0.44956 0.93178 0.22031 0.0
H1584 H 0.4717 0.93472 0.22439 0.0
H1585 H 0.49073 0.93137 0.09314 0.0
H1586 H 0.54957 0.91177 0.09423 0.0
H1587 H 0.52771 0.91468 0.09866 0.0
C1588 C 0.3372 0.20797 0.38222 0.0
C1589 C 0.33311 0.20011 0.41647 0.0
C1590 C 0.33546 0.22048 0.38562 0.0
C1591 C 0.33107 0.24547 0.46529 0.0
H1592 H 0.32132 0.26273 0.3568 0.0
C1593 C 0.32738 0.29852 0.45322 0.0
C1594 C 0.3329 0.30346 0.41445 0.0
C1595 C 0.32577 0.2859 0.45728 0.0
C1596 C 0.32406 0.25806 0.38739 0.0
H1597 H 0.32414 0.19928 0.48166 0.0
H1598 H 0.32119 0.22139 0.48789 0.0
H1599 H 0.32137 0.24059 0.35727 0.0
H1600 H 0.34116 0.29903 0.34986 0.0
H1601 H 0.33836 0.27725 0.35687 0.0
H1602 H 0.3341 0.26305 0.49488 0.0
C1603 C 0.3257 0.21774 0.4583 0.0
C1604 C 0.32409 0.24537 0.38766 0.0
C1605 C 0.32735 0.20511 0.45467 0.0
C1606 C 0.3368 0.29556 0.38005 0.0
C1607 C 0.33512 0.28305 0.38394 0.0
C1608 C 0.33106 0.25823 0.46501 0.0
C1609 C 0.32964 0.22553 0.42351 0.0
C1610 C 0.32795 0.23893 0.4261 0.0
C1611 C 0.32954 0.27804 0.42241 0.0
C1612 C 0.32791 0.26464 0.42554 0.0
H1613 H 0.34175 0.20446 0.35248 0.0
H1614 H 0.33881 0.22625 0.35866 0.0
H1615 H 0.33412 0.24074 0.49536 0.0
H1616 H 0.32431 0.30439 0.48032 0.0
H1617 H 0.32143 0.2823 0.48732 0.0
C1618 C 0.956 0.08677 0.62634 0.0
C1619 C 0.94843 0.08121 0.65852 0.0
C1620 C 0.96862 0.08628 0.63072 0.0
C1621 C 0.9941 0.06988 0.68299 0.0
H1622 H 0.01113 0.10006 0.65851 0.0
C1623 C 0.04702 0.07597 0.69588 0.0
C1624 C 0.05226 0.08252 0.65997 0.0
C1625 C 0.03432 0.07519 0.70007 0.0
C1626 C 0.00653 0.09154 0.66523 0.0
H1627 H 0.94816 0.07045 0.71993 0.0
H1628 H 0.97041 0.06959 0.72763 0.0
H1629 H 0.98902 0.09973 0.65786 0.0
H1630 H 0.04829 0.09309 0.59973 0.0
H1631 H 0.02638 0.09165 0.60684 0.0
H1632 H 0.01176 0.06169 0.6896 0.0
C1633 C 0.96649 0.07432 0.69898 0.0
C1634 C 0.99385 0.09135 0.66486 0.0
C1635 C 0.95378 0.07484 0.69465 0.0
C1636 C 0.04458 0.08804 0.628 0.0
C1637 C 0.03199 0.08728 0.63223 0.0
C1638 C 0.00687 0.07007 0.68332 0.0
C1639 C 0.97402 0.08023 0.66742 0.0
C1640 C 0.98748 0.08047 0.6726 0.0
C1641 C 0.02668 0.08101 0.66859 0.0
C1642 C 0.01321 0.08085 0.67331 0.0
H1643 H 0.9522 0.09167 0.59789 0.0
H1644 H 0.97416 0.09072 0.6053 0.0
H1645 H 0.98943 0.06136 0.68905 0.0
H1646 H 0.05272 0.07161 0.72097 0.0
H1647 H 0.03048 0.07029 0.72848 0.0
C1648 C 0.83444 0.70689 0.87554 0.0
C1649 C 0.83007 0.6991 0.90947 0.0
C1650 C 0.83243 0.71939 0.87799 0.0
C1651 C 0.82671 0.74439 0.95676 0.0
H1652 H 0.81912 0.76178 0.84619 0.0
C1653 C 0.82381 0.79746 0.94475 0.0
C1654 C 0.83033 0.80233 0.90806 0.0
C1655 C 0.82183 0.78486 0.94786 0.0
C1656 C 0.82124 0.75707 0.87738 0.0
H1657 H 0.82018 0.69832 0.97281 0.0
H1658 H 0.81673 0.72037 0.97732 0.0
H1659 H 0.81908 0.73963 0.84639 0.0
H1660 H 0.83986 0.79782 0.846 0.0
H1661 H 0.83636 0.77611 0.85127 0.0
H1662 H 0.82921 0.76193 0.9873 0.0
C1663 C 0.8217 0.71671 0.94876 0.0
C1664 C 0.82122 0.74438 0.8775 0.0
C1665 C 0.82363 0.70411 0.9461 0.0
C1666 C 0.83474 0.79441 0.87458 0.0
C1667 C 0.83267 0.78193 0.87745 0.0
C1668 C 0.82673 0.75714 0.95665 0.0
C1669 C 0.82605 0.72448 0.91456 0.0
C1670 C 0.82432 0.73788 0.91677 0.0
C1671 C 0.82619 0.77699 0.91402 0.0
C1672 C 0.82436 0.7636 0.91654 0.0
H1673 H 0.83949 0.70336 0.84698 0.0
H1674 H 0.8361 0.72513 0.8515 0.0
H1675 H 0.82917 0.73963 0.98751 0.0
H1676 H 0.82034 0.80334 0.97112 0.0
H1677 H 0.81679 0.7813 0.97642 0.0
C1678 C 0.67628 0.20423 0.4542 0.0
C1679 C 0.67 0.19925 0.41713 0.0
C1680 C 0.67672 0.21688 0.46051 0.0
C1681 C 0.65973 0.24458 0.43069 0.0
H1682 H 0.68983 0.26221 0.45028 0.0
C1683 C 0.66366 0.29473 0.3869 0.0
C1684 C 0.66948 0.30269 0.4171 0.0
C1685 C 0.66418 0.28219 0.39333 0.0
C1686 C 0.68133 0.25739 0.4456 0.0
H1687 H 0.65943 0.20364 0.35731 0.0
H1688 H 0.66015 0.22548 0.36836 0.0
H1689 H 0.68992 0.23987 0.45029 0.0
H1690 H 0.68067 0.30371 0.4773 0.0
H1691 H 0.68161 0.28154 0.48859 0.0
H1692 H 0.65114 0.26194 0.42495 0.0
C1693 C 0.66465 0.21969 0.39283 0.0
C1694 C 0.68138 0.24462 0.44558 0.0
C1695 C 0.6643 0.20714 0.38637 0.0
C1696 C 0.67607 0.29779 0.45357 0.0
C1697 C 0.67664 0.28513 0.45993 0.0
C1698 C 0.65967 0.25726 0.43077 0.0
C1699 C 0.67074 0.22472 0.43014 0.0
C1700 C 0.67062 0.23811 0.43672 0.0
C1701 C 0.67053 0.27723 0.43016 0.0
C1702 C 0.67052 0.26382 0.43679 0.0
H1703 H 0.6808 0.19836 0.47837 0.0
H1704 H 0.68149 0.22052 0.48956 0.0
H1705 H 0.65125 0.23982 0.42477 0.0
H1706 H 0.65857 0.29816 0.35827 0.0
H1707 H 0.65959 0.27636 0.36922 0.0
C1708 C 0.82547 0.29945 0.05425 0.0
C1709 C 0.83147 0.30451 0.09181 0.0
C1710 C 0.82384 0.28681 0.05095 0.0
C1711 C 0.82315 0.25911 0.12191 0.0
H1712 H 0.83189 0.24162 0.01273 0.0
C1713 C 0.8368 0.20917 0.12606 0.0
C1714 C 0.83236 0.20118 0.09285 0.0
C1715 C 0.83485 0.22165 0.12263 0.0
C1716 C 0.82921 0.2464 0.04318 0.0
H1717 H 0.84053 0.30027 0.15509 0.0
H1718 H 0.83769 0.27846 0.1494 0.0
H1719 H 0.83176 0.26394 0.01262 0.0
H1720 H 0.82252 0.20008 0.02949 0.0
H1721 H 0.81921 0.22215 0.02316 0.0
H1722 H 0.82096 0.24169 0.15295 0.0
C1723 C 0.8341 0.28418 0.12271 0.0
C1724 C 0.82913 0.25916 0.04313 0.0
C1725 C 0.8358 0.29671 0.12583 0.0
C1726 C 0.82601 0.20601 0.05567 0.0
C1727 C 0.82415 0.21862 0.05199 0.0
C1728 C 0.82324 0.24643 0.12196 0.0
C1729 C 0.82807 0.27906 0.0854 0.0
C1730 C 0.82647 0.26564 0.08295 0.0
C1731 C 0.82848 0.22654 0.08574 0.0
C1732 C 0.82663 0.23992 0.08305 0.0
H1733 H 0.82206 0.30524 0.02747 0.0
H1734 H 0.81915 0.28313 0.02181 0.0
H1735 H 0.82079 0.26383 0.15284 0.0
H1736 H 0.84182 0.2058 0.15498 0.0
H1737 H 0.83851 0.22752 0.14875 0.0
C1738 C 0.67544 0.70464 0.55621 0.0
C1739 C 0.6697 0.69967 0.59448 0.0
C1740 C 0.67683 0.7173 0.55198 0.0
C1741 C 0.67756 0.74522 0.62156 0.0
H1742 H 0.66824 0.76236 0.5123 0.0
C1743 C 0.66467 0.7954 0.62507 0.0
C1744 C 0.66907 0.80318 0.59115 0.0
C1745 C 0.66621 0.78285 0.62176 0.0
C1746 C 0.67107 0.75768 0.54278 0.0
H1747 H 0.66079 0.70407 0.6579 0.0
H1748 H 0.66323 0.72589 0.65061 0.0
H1749 H 0.66844 0.74004 0.51308 0.0
H1750 H 0.67834 0.80386 0.52652 0.0
H1751 H 0.68098 0.78171 0.5205 0.0
H1752 H 0.67989 0.76273 0.65173 0.0
C1753 C 0.6668 0.7201 0.6241 0.0
C1754 C 0.67119 0.74492 0.54322 0.0
C1755 C 0.66535 0.70756 0.62814 0.0
C1756 C 0.67488 0.79809 0.55324 0.0
C1757 C 0.67636 0.78543 0.54974 0.0
C1758 C 0.67743 0.7579 0.62113 0.0
C1759 C 0.67262 0.72514 0.58619 0.0
C1760 C 0.67409 0.73857 0.58309 0.0
C1761 C 0.67216 0.7777 0.58433 0.0
C1762 C 0.67384 0.76429 0.5822 0.0
H1763 H 0.67886 0.69878 0.52966 0.0
H1764 H 0.68136 0.72093 0.52238 0.0
H1765 H 0.68011 0.7406 0.6525 0.0
H1766 H 0.66005 0.79898 0.65455 0.0
H1767 H 0.66265 0.77714 0.64853 0.0
C1768 C 0.54589 0.418 0.88332 0.0
C1769 C 0.55354 0.42233 0.84886 0.0
C1770 C 0.53331 0.41951 0.88055 0.0
C1771 C 0.50823 0.42372 0.80049 0.0
H1772 H 0.49032 0.4316 0.90963 0.0
C1773 C 0.45511 0.42623 0.80937 0.0
C1774 C 0.45002 0.42022 0.84685 0.0
C1775 C 0.46773 0.42806 0.80662 0.0
C1776 C 0.49518 0.42936 0.87886 0.0
H1777 H 0.55399 0.43166 0.78432 0.0
H1778 H 0.53183 0.43426 0.7793 0.0
H1779 H 0.51247 0.43216 0.91033 0.0
H1780 H 0.4542 0.41131 0.91047 0.0
H1781 H 0.47599 0.41449 0.9057 0.0
H1782 H 0.49084 0.42064 0.76942 0.0
C1783 C 0.53565 0.42969 0.80848 0.0
C1784 C 0.50787 0.42969 0.87926 0.0
C1785 C 0.54831 0.42825 0.81145 0.0
C1786 C 0.45778 0.41605 0.88127 0.0
C1787 C 0.4703 0.41794 0.87868 0.0
C1788 C 0.49547 0.42339 0.80008 0.0
C1789 C 0.52802 0.42534 0.84313 0.0
C1790 C 0.51456 0.42654 0.84049 0.0
C1791 C 0.47544 0.42402 0.84152 0.0
C1792 C 0.48883 0.42588 0.83968 0.0
H1793 H 0.54959 0.41335 0.91252 0.0
H1794 H 0.5277 0.41586 0.90744 0.0
H1795 H 0.51313 0.4212 0.77012 0.0
H1796 H 0.44935 0.42953 0.78229 0.0
H1797 H 0.47143 0.43279 0.77758 0.0
C1798 C 0.95573 0.57542 0.30668 0.0
C1799 C 0.95085 0.58143 0.34453 0.0
C1800 C 0.96835 0.57369 0.30279 0.0
C1801 C 0.9963 0.57264 0.37225 0.0
H1802 H 0.01348 0.58229 0.26347 0.0
C1803 C 0.04631 0.58616 0.37668 0.0
C1804 C 0.05419 0.58216 0.34237 0.0
C1805 C 0.0338 0.58428 0.37339 0.0
C1806 C 0.0088 0.57935 0.29379 0.0
H1807 H 0.95538 0.59034 0.40784 0.0
H1808 H 0.97713 0.58726 0.40126 0.0
H1809 H 0.99116 0.58201 0.26405 0.0
H1810 H 0.05508 0.57318 0.27722 0.0
H1811 H 0.033 0.56996 0.27122 0.0
H1812 H 0.0138 0.5703 0.4025 0.0
C1813 C 0.9713 0.58378 0.37472 0.0
C1814 C 0.99603 0.57919 0.29412 0.0
C1815 C 0.95879 0.5856 0.37836 0.0
C1816 C 0.04923 0.57634 0.30423 0.0
C1817 C 0.03661 0.57453 0.30075 0.0
C1818 C 0.00899 0.5728 0.37192 0.0
C1819 C 0.97625 0.5778 0.337 0.0
C1820 C 0.98966 0.5762 0.33385 0.0
C1821 C 0.02878 0.57839 0.3356 0.0
C1822 C 0.01539 0.57652 0.33319 0.0
H1823 H 0.94983 0.57214 0.28001 0.0
H1824 H 0.97192 0.56905 0.27334 0.0
H1825 H 0.99165 0.57004 0.40309 0.0
H1826 H 0.04978 0.59076 0.40638 0.0
H1827 H 0.02803 0.5876 0.40039 0.0
C1828 C 0.95497 0.42735 0.69815 0.0
C1829 C 0.94995 0.42138 0.66043 0.0
C1830 C 0.96762 0.42884 0.70193 0.0
C1831 C 0.99556 0.4292 0.63226 0.0
H1832 H 0.01257 0.42001 0.74198 0.0
C1833 C 0.04557 0.41551 0.62985 0.0
C1834 C 0.05339 0.41974 0.66397 0.0
C1835 C 0.03305 0.41739 0.63272 0.0
C1836 C 0.00793 0.42281 0.71137 0.0
H1837 H 0.95427 0.41229 0.59729 0.0
H1838 H 0.9761 0.41493 0.60375 0.0
H1839 H 0.99026 0.42046 0.74109 0.0
H1840 H 0.05416 0.42911 0.72838 0.0
H1841 H 0.03207 0.43233 0.73364 0.0
H1842 H 0.01311 0.43125 0.60208 0.0
C1843 C 0.97034 0.41857 0.63024 0.0
C1844 C 0.99517 0.42307 0.71086 0.0
C1845 C 0.9578 0.417 0.62667 0.0
C1846 C 0.04836 0.42577 0.70151 0.0
C1847 C 0.03574 0.42758 0.70458 0.0
C1848 C 0.00825 0.42894 0.63277 0.0
C1849 C 0.97542 0.42452 0.66778 0.0
C1850 C 0.98886 0.42591 0.67085 0.0
C1851 C 0.02797 0.4235 0.6699 0.0
C1852 C 0.01458 0.42539 0.67188 0.0
H1853 H 0.94914 0.43079 0.72476 0.0
H1854 H 0.97128 0.43347 0.73123 0.0
H1855 H 0.99097 0.43169 0.60119 0.0
H1856 H 0.0491 0.41074 0.60061 0.0
H1857 H 0.02732 0.41391 0.60588 0.0
C1858 C 0.45428 0.57776 0.20125 0.0
C1859 C 0.44917 0.58418 0.16475 0.0
C1860 C 0.46697 0.57709 0.20639 0.0
C1861 C 0.49495 0.59332 0.17267 0.0
H1862 H 0.51178 0.56292 0.19522 0.0
C1863 C 0.54524 0.58795 0.13114 0.0
C1864 C 0.55289 0.58225 0.16273 0.0
C1865 C 0.53265 0.58766 0.13638 0.0
C1866 C 0.50719 0.5715 0.18956 0.0
H1867 H 0.45336 0.59477 0.10481 0.0
H1868 H 0.47525 0.59359 0.11367 0.0
H1869 H 0.48945 0.56347 0.19616 0.0
H1870 H 0.5533 0.57144 0.224 0.0
H1871 H 0.53108 0.57089 0.23317 0.0
H1872 H 0.51253 0.60134 0.16514 0.0
C1873 C 0.46955 0.58919 0.13869 0.0
C1874 C 0.49442 0.57182 0.19014 0.0
C1875 C 0.45697 0.5898 0.13347 0.0
C1876 C 0.54763 0.57593 0.19917 0.0
C1877 C 0.53493 0.5756 0.20434 0.0
C1878 C 0.50762 0.593 0.17206 0.0
C1879 C 0.47472 0.58293 0.17535 0.0
C1880 C 0.48818 0.58269 0.18048 0.0
C1881 C 0.52733 0.58165 0.17335 0.0
C1882 C 0.5139 0.58204 0.17928 0.0
H1883 H 0.44849 0.5733 0.22581 0.0
H1884 H 0.4707 0.57221 0.23501 0.0
H1885 H 0.49042 0.6019 0.16617 0.0
H1886 H 0.54897 0.59282 0.10249 0.0
H1887 H 0.52705 0.59219 0.11138 0.0
C1888 C 0.14995 0.13892 0.23245 0.0
C1889 C 0.15573 0.14973 0.2459 0.0
C1890 C 0.145 0.13104 0.26498 0.0
C1891 C 0.14467 0.12441 0.38906 0.0
H1892 H 0.1111 0.11539 0.36754 0.0
C1893 C 0.11368 0.10036 0.52293 0.0
C1894 C 0.10164 0.10464 0.52465 0.0
C1895 C 0.12161 0.10439 0.48887 0.0
C1896 C 0.12048 0.11784 0.3741 0.0
H1897 H 0.16155 0.16032 0.30403 0.0
H1898 H 0.15294 0.14678 0.35994 0.0
H1899 H 0.123 0.12425 0.30647 0.0
H1900 H 0.08877 0.11717 0.49421 0.0
H1901 H 0.10256 0.12434 0.436 0.0
H1902 H 0.14191 0.11854 0.45744 0.0
C1903 C 0.1522 0.14429 0.32462 0.0
C1904 C 0.12736 0.12276 0.33885 0.0
C1905 C 0.15701 0.15215 0.29237 0.0
C1906 C 0.09793 0.11355 0.49346 0.0
C1907 C 0.10581 0.11758 0.45976 0.0
C1908 C 0.13777 0.11949 0.42438 0.0
C1909 C 0.14591 0.13376 0.31144 0.0
C1910 C 0.13942 0.12646 0.34627 0.0
C1911 C 0.11761 0.11279 0.45611 0.0
C1912 C 0.12548 0.11653 0.41765 0.0
H1913 H 0.14886 0.13678 0.19692 0.0
H1914 H 0.14027 0.12294 0.25378 0.0
H1915 H 0.15401 0.12701 0.39568 0.0
H1916 H 0.11678 0.09344 0.54635 0.0
H1917 H 0.13068 0.10058 0.48707 0.0
C1918 C 0.09946 0.88859 0.49825 0.0
C1919 C 0.10268 0.89931 0.47545 0.0
C1920 C 0.10727 0.88347 0.53011 0.0
C1921 C 0.13041 0.89114 0.6125 0.0
H1922 H 0.13633 0.85638 0.61284 0.0
C1923 C 0.14677 0.86232 0.76807 0.0
C1924 C 0.15484 0.85279 0.75796 0.0
C1925 C 0.14201 0.86955 0.73305 0.0
C1926 C 0.13487 0.86612 0.61311 0.0
H1927 H 0.11667 0.91303 0.46746 0.0
H1928 H 0.1304 0.90407 0.52417 0.0
H1929 H 0.12537 0.86554 0.55005 0.0
H1930 H 0.16522 0.84413 0.70453 0.0
H1931 H 0.15716 0.85675 0.64424 0.0
H1932 H 0.13975 0.89159 0.67639 0.0
C1933 C 0.12181 0.89964 0.51692 0.0
C1934 C 0.12854 0.87135 0.57723 0.0
C1935 C 0.11405 0.90466 0.48421 0.0
C1936 C 0.15879 0.85124 0.71316 0.0
C1937 C 0.15417 0.85846 0.67858 0.0
C1938 C 0.13668 0.88586 0.64887 0.0
C1939 C 0.1184 0.88906 0.54047 0.0
C1940 C 0.12615 0.88388 0.57666 0.0
C1941 C 0.14537 0.86735 0.68777 0.0
C1942 C 0.13894 0.87328 0.64949 0.0
H1943 H 0.09073 0.88431 0.49225 0.0
H1944 H 0.10438 0.87535 0.54791 0.0
H1945 H 0.12856 0.90082 0.61304 0.0
H1946 H 0.14362 0.8637 0.80239 0.0
H1947 H 0.13524 0.87636 0.74106 0.0
C1948 C 0.40417 0.88711 1.00295 0.0
C1949 C 0.4009 0.89776 0.02614 0.0
C1950 C 0.39641 0.88208 0.97074 0.0
C1951 C 0.37332 0.88996 0.88838 0.0
H1952 H 0.36729 0.85522 0.88691 0.0
C1953 C 0.35654 0.86147 0.73236 0.0
C1954 C 0.34835 0.85206 0.74255 0.0
C1955 C 0.36146 0.86861 0.76735 0.0
C1956 C 0.36879 0.86496 0.88695 0.0
H1957 H 0.38688 0.91144 0.03442 0.0
H1958 H 0.37324 0.90263 0.97714 0.0
H1959 H 0.37833 0.8642 0.9499 0.0
H1960 H 0.33793 0.84352 0.79612 0.0
H1961 H 0.34628 0.85596 0.85636 0.0
H1962 H 0.36392 0.8906 0.8246 0.0
C1963 C 0.38182 0.89819 0.98434 0.0
C1964 C 0.37517 0.87008 0.92294 0.0
C1965 C 0.38953 0.90312 0.01739 0.0
C1966 C 0.34444 0.85054 0.78743 0.0
C1967 C 0.34923 0.85765 0.82197 0.0
C1968 C 0.36701 0.8848 0.85188 0.0
C1969 C 0.38528 0.88769 0.96042 0.0
C1970 C 0.37757 0.8826 0.92394 0.0
C1971 C 0.35814 0.86642 0.81268 0.0
C1972 C 0.3647 0.87223 0.85089 0.0
H1973 H 0.4129 0.88283 0.00893 0.0
H1974 H 0.39933 0.87401 0.95267 0.0
H1975 H 0.37518 0.89964 0.88818 0.0
H1976 H 0.35965 0.86284 0.69797 0.0
H1977 H 0.36831 0.87534 0.75928 0.0
C1978 C 0.39125 0.10667 0.98404 0.0
C1979 C 0.40059 0.09858 0.99595 0.0
C1980 C 0.38363 0.11155 0.01757 0.0
C1981 C 0.3838 0.11722 0.14136 0.0
H1982 H 0.35013 0.12631 0.12234 0.0
C1983 C 0.35525 0.14038 0.28147 0.0
C1984 C 0.34943 0.15107 0.26701 0.0
C1985 C 0.3602 0.13229 0.24969 0.0
C1986 C 0.35953 0.12378 0.12813 0.0
H1987 H 0.40864 0.08842 0.0512 0.0
H1988 H 0.39517 0.09646 0.10887 0.0
H1989 H 0.36109 0.11533 0.06308 0.0
H1990 H 0.34361 0.16128 0.20796 0.0
H1991 H 0.35212 0.14725 0.15317 0.0
H1992 H 0.38229 0.12579 0.2061 0.0
C1993 C 0.39399 0.09952 0.07435 0.0
C1994 C 0.36583 0.11756 0.09409 0.0
C1995 C 0.40167 0.09485 0.04121 0.0
C1996 C 0.34818 0.15321 0.22032 0.0
C1997 C 0.35294 0.14509 0.18878 0.0
C1998 C 0.37749 0.12334 0.17542 0.0
C1999 C 0.38513 0.10824 0.06336 0.0
C2000 C 0.3781 0.11432 0.10007 0.0
C2001 C 0.35919 0.13465 0.20301 0.0
C2002 C 0.36535 0.12686 0.16897 0.0
H2003 H 0.39025 0.10968 0.94935 0.0
H2004 H 0.37693 0.11828 0.00786 0.0
H2005 H 0.39331 0.11513 0.14695 0.0
H2006 H 0.35632 0.13847 0.31718 0.0
H2007 H 0.36492 0.12425 0.26159 0.0
C2008 C 0.90323 0.88592 0.49423 0.0
C2009 C 0.89995 0.89705 0.47453 0.0
C2010 C 0.89579 0.88048 0.52653 0.0
C2011 C 0.87469 0.88808 0.61609 0.0
H2012 H 0.86984 0.85317 0.61963 0.0
C2013 C 0.85059 0.86136 0.76308 0.0
C2014 C 0.85579 0.85002 0.77343 0.0
C2015 C 0.85505 0.86825 0.72668 0.0
C2016 C 0.87119 0.86293 0.61934 0.0
H2017 H 0.88616 0.91111 0.47206 0.0
H2018 H 0.87308 0.90159 0.52963 0.0
H2019 H 0.87819 0.86256 0.55187 0.0
H2020 H 0.87037 0.83752 0.75694 0.0
H2021 H 0.87834 0.8496 0.69485 0.0
H2022 H 0.86802 0.88835 0.68437 0.0
C2023 C 0.88141 0.89708 0.51959 0.0
C2024 C 0.87589 0.8683 0.58039 0.0
C2025 C 0.8888 0.90244 0.48641 0.0
C2026 C 0.8661 0.84616 0.74935 0.0
C2027 C 0.87058 0.85303 0.71348 0.0
C2028 C 0.87 0.88268 0.65535 0.0
C2029 C 0.88496 0.88614 0.54045 0.0
C2030 C 0.87801 0.88088 0.57875 0.0
C2031 C 0.86479 0.86387 0.70039 0.0
C2032 C 0.86856 0.86998 0.65781 0.0
H2033 H 0.91181 0.88162 0.48577 0.0
H2034 H 0.89883 0.87211 0.54227 0.0
H2035 H 0.87632 0.8978 0.61583 0.0
H2036 H 0.84258 0.8645 0.78094 0.0
H2037 H 0.85045 0.8766 0.71755 0.0
C2038 C 0.84974 0.14231 0.24446 0.0
C2039 C 0.85475 0.15386 0.23607 0.0
C2040 C 0.85396 0.13528 0.2809 0.0
C2041 C 0.8692 0.1399 0.39089 0.0
H2042 H 0.87536 0.10519 0.38931 0.0
C2043 C 0.9018 0.11638 0.51266 0.0
C2044 C 0.89867 0.10506 0.53122 0.0
C2045 C 0.89426 0.12197 0.48104 0.0
C2046 C 0.87344 0.11485 0.39045 0.0
H2047 H 0.86873 0.16663 0.25642 0.0
H2048 H 0.87627 0.15432 0.31854 0.0
H2049 H 0.86702 0.11515 0.32184 0.0
H2050 H 0.88509 0.09079 0.53227 0.0
H2051 H 0.87186 0.10056 0.47573 0.0
H2052 H 0.87603 0.13973 0.45863 0.0
C2053 C 0.86882 0.15083 0.29838 0.0
C2054 C 0.86872 0.12055 0.35182 0.0
C2055 C 0.86458 0.15784 0.26248 0.0
C2056 C 0.8876 0.09961 0.51882 0.0
C2057 C 0.88013 0.10511 0.48625 0.0
C2058 C 0.87396 0.13424 0.42919 0.0
C2059 C 0.86326 0.1397 0.30922 0.0
C2060 C 0.86692 0.13322 0.35122 0.0
C2061 C 0.8835 0.11627 0.4666 0.0
C2062 C 0.87645 0.12173 0.42897 0.0
H2063 H 0.8421 0.13905 0.22474 0.0
H2064 H 0.84954 0.1267 0.28826 0.0
H2065 H 0.86757 0.14962 0.39203 0.0
H2066 H 0.91033 0.12072 0.52151 0.0
H2067 H 0.89715 0.1305 0.4662 0.0
C2068 C 0.65716 0.15271 0.21695 0.0
C2069 C 0.65571 0.15055 0.26355 0.0
C2070 C 0.65212 0.14485 0.18507 0.0
C2071 C 0.62665 0.12415 0.17119 0.0
H2072 H 0.6426 0.11563 0.05847 0.0
C2073 C 0.60155 0.09604 0.03837 0.0
C2074 C 0.60261 0.09962 0.99294 0.0
C2075 C 0.60938 0.10067 0.07111 0.0
C2076 C 0.63799 0.11802 0.08959 0.0
H2077 H 0.64821 0.13815 0.31321 0.0
H2078 H 0.63918 0.12438 0.25708 0.0
H2079 H 0.65402 0.12619 0.11762 0.0
H2080 H 0.61305 0.11039 0.9456 0.0
H2081 H 0.62665 0.11892 0.00344 0.0
H2082 H 0.61052 0.11648 0.14301 0.0
C2083 C 0.64425 0.13223 0.24548 0.0
C2084 C 0.64454 0.12401 0.12356 0.0
C2085 C 0.64945 0.14006 0.27757 0.0
C2086 C 0.61205 0.10752 0.98044 0.0
C2087 C 0.61983 0.11235 0.01358 0.0
C2088 C 0.62008 0.11827 0.13722 0.0
C2089 C 0.64541 0.13466 0.19888 0.0
C2090 C 0.6389 0.12722 0.1646 0.0
C2091 C 0.61838 0.10919 0.05953 0.0
C2092 C 0.62563 0.11517 0.09586 0.0
H2093 H 0.66205 0.16063 0.20493 0.0
H2094 H 0.65308 0.14704 0.14954 0.0
H2095 H 0.62197 0.12673 0.20199 0.0
H2096 H 0.59451 0.08975 0.04883 0.0
H2097 H 0.60822 0.09771 0.10577 0.0
C2098 C 0.64868 0.86194 0.73464 0.0
C2099 C 0.65653 0.85224 0.74485 0.0
C2100 C 0.64387 0.86913 0.76963 0.0
C2101 C 0.63598 0.86542 0.88879 0.0
H2102 H 0.63 0.90017 0.88955 0.0
C2103 C 0.59999 0.88789 1.00107 0.0
C2104 C 0.60319 0.89847 0.02485 0.0
C2105 C 0.60795 0.88282 0.9696 0.0
C2106 C 0.63176 0.89047 0.88991 0.0
H2107 H 0.66647 0.84322 0.79861 0.0
H2108 H 0.65831 0.85578 0.85891 0.0
H2109 H 0.64154 0.891 0.82695 0.0
H2110 H 0.61727 0.91198 0.03489 0.0
H2111 H 0.63125 0.90313 0.97884 0.0
H2112 H 0.62603 0.86477 0.95086 0.0
C2113 C 0.65554 0.85766 0.82443 0.0
C2114 C 0.63823 0.88523 0.85396 0.0
C2115 C 0.66023 0.85048 0.78986 0.0
C2116 C 0.61466 0.90374 0.01735 0.0
C2117 C 0.62257 0.89877 0.98503 0.0
C2118 C 0.62945 0.87061 0.92423 0.0
C2119 C 0.64694 0.86673 0.81504 0.0
C2120 C 0.64038 0.87263 0.85306 0.0
C2121 C 0.61921 0.88832 0.96061 0.0
C2122 C 0.62717 0.88316 0.92502 0.0
H2123 H 0.64572 0.86348 0.70018 0.0
H2124 H 0.63725 0.87609 0.76143 0.0
H2125 H 0.63734 0.85566 0.88882 0.0
H2126 H 0.59119 0.88366 0.00613 0.0
H2127 H 0.60509 0.8748 0.95111 0.0
C2128 C 0.59909 0.61543 0.00654 0.0
C2129 C 0.60239 0.60481 0.02992 0.0
C2130 C 0.6069 0.62054 0.97467 0.0
C2131 C 0.63048 0.61293 0.89362 0.0
H2132 H 0.63585 0.64778 0.89193 0.0
C2133 C 0.64749 0.64139 0.73794 0.0
C2134 C 0.65541 0.65103 0.74826 0.0
C2135 C 0.64254 0.63427 0.77289 0.0
C2136 C 0.63454 0.63801 0.89204 0.0
H2137 H 0.61652 0.59129 0.03888 0.0
H2138 H 0.63026 0.60024 0.98221 0.0
H2139 H 0.62471 0.63866 0.95439 0.0
H2140 H 0.66531 0.66 0.80227 0.0
H2141 H 0.65689 0.64758 0.86243 0.0
H2142 H 0.64017 0.6124 0.83046 0.0
C2143 C 0.62161 0.60459 0.98898 0.0
C2144 C 0.6281 0.63282 0.92772 0.0
C2145 C 0.61384 0.59957 0.02168 0.0
C2146 C 0.659 0.6528 0.79338 0.0
C2147 C 0.65417 0.6457 0.8279 0.0
C2148 C 0.63685 0.61818 0.85744 0.0
C2149 C 0.61813 0.61505 0.96488 0.0
C2150 C 0.62592 0.62025 0.9288 0.0
C2151 C 0.64553 0.63668 0.81836 0.0
C2152 C 0.63893 0.63079 0.85634 0.0
H2153 H 0.5903 0.61963 0.01213 0.0
H2154 H 0.60395 0.62857 0.95646 0.0
H2155 H 0.6288 0.60322 0.89345 0.0
H2156 H 0.64461 0.63982 0.7034 0.0
H2157 H 0.63589 0.62734 0.76459 0.0
C2158 C 0.65354 0.36127 0.26123 0.0
C2159 C 0.64857 0.34978 0.27083 0.0
C2160 C 0.64907 0.36815 0.22481 0.0
C2161 C 0.63285 0.36312 0.11687 0.0
H2162 H 0.62715 0.39791 0.11675 0.0
C2163 C 0.59971 0.38652 0.99659 0.0
C2164 C 0.60295 0.39763 0.97661 0.0
C2165 C 0.60734 0.381 0.02814 0.0
C2166 C 0.62893 0.38822 0.11608 0.0
H2167 H 0.63442 0.33695 0.25272 0.0
H2168 H 0.62642 0.34902 0.19072 0.0
H2169 H 0.63592 0.38817 0.18391 0.0
H2170 H 0.61681 0.4116 0.97304 0.0
H2171 H 0.63018 0.40198 0.02943 0.0
H2172 H 0.62545 0.36305 0.04995 0.0
C2173 C 0.63404 0.35257 0.20984 0.0
C2174 C 0.63391 0.38264 0.15453 0.0
C2175 C 0.63854 0.34571 0.24568 0.0
C2176 C 0.6142 0.40295 0.98761 0.0
C2177 C 0.62176 0.39753 0.02009 0.0
C2178 C 0.62784 0.36865 0.07878 0.0
C2179 C 0.63954 0.36364 0.19775 0.0
C2180 C 0.63556 0.36996 0.1558 0.0
C2181 C 0.61829 0.38658 0.04108 0.0
C2182 C 0.62552 0.38119 0.0784 0.0
H2183 H 0.66133 0.36459 0.27998 0.0
H2184 H 0.65346 0.37668 0.21648 0.0
H2185 H 0.63436 0.35338 0.11618 0.0
H2186 H 0.59106 0.38227 0.98882 0.0
H2187 H 0.60438 0.37263 0.04402 0.0
C2188 C 0.89034 0.40412 0.51222 0.0
C2189 C 0.90175 0.39895 0.5218 0.0
C2190 C 0.88323 0.39955 0.4766 0.0
C2191 C 0.88764 0.38263 0.36999 0.0
H2192 H 0.85272 0.37766 0.37103 0.0
C2193 C 0.86357 0.34939 0.25249 0.0
C2194 C 0.85275 0.35292 0.23097 0.0
C2195 C 0.86907 0.35695 0.28425 0.0
C2196 C 0.86245 0.37923 0.37006 0.0
H2197 H 0.91416 0.38435 0.50465 0.0
H2198 H 0.90169 0.37619 0.44405 0.0
H2199 H 0.86277 0.38657 0.43739 0.0
H2200 H 0.83926 0.36719 0.22515 0.0
H2201 H 0.84885 0.38046 0.28211 0.0
H2202 H 0.88743 0.37488 0.30364 0.0
C2203 C 0.89838 0.38402 0.46256 0.0
C2204 C 0.8682 0.38428 0.40803 0.0
C2205 C 0.90548 0.38862 0.49759 0.0
C2206 C 0.84767 0.36434 0.24101 0.0
C2207 C 0.85308 0.37185 0.27375 0.0
C2208 C 0.88193 0.37754 0.3324 0.0
C2209 C 0.88742 0.38973 0.45034 0.0
C2210 C 0.88092 0.38567 0.40887 0.0
C2211 C 0.86378 0.36814 0.29586 0.0
C2212 C 0.86934 0.37548 0.3325 0.0
H2213 H 0.88729 0.41214 0.53025 0.0
H2214 H 0.87478 0.4041 0.46815 0.0
H2215 H 0.8974 0.38392 0.36895 0.0
H2216 H 0.86766 0.34062 0.24539 0.0
H2217 H 0.87726 0.35381 0.30102 0.0
C2218 C 0.85112 0.63922 0.76988 0.0
C2219 C 0.85629 0.65053 0.78088 0.0
C2220 C 0.85652 0.63181 0.73687 0.0
C2221 C 0.88524 0.62648 0.6757 0.0
H2222 H 0.86518 0.61773 0.57272 0.0
C2223 C 0.90735 0.61577 0.50726 0.0
C2224 C 0.90342 0.60544 0.48351 0.0
C2225 C 0.90054 0.62037 0.5431 0.0
C2226 C 0.87086 0.61995 0.60147 0.0
H2227 H 0.87143 0.66267 0.76815 0.0
H2228 H 0.88103 0.64965 0.71196 0.0
H2229 H 0.8557 0.62631 0.64071 0.0
H2230 H 0.8889 0.59225 0.4767 0.0
H2231 H 0.87691 0.60029 0.54014 0.0
H2232 H 0.9004 0.62035 0.63682 0.0
C2233 C 0.87278 0.64651 0.72826 0.0
C2234 C 0.86544 0.62482 0.64041 0.0
C2235 C 0.86728 0.65397 0.76039 0.0
C2236 C 0.89209 0.60028 0.49431 0.0
C2237 C 0.88527 0.60485 0.53073 0.0
C2238 C 0.89063 0.6216 0.63709 0.0
C2239 C 0.86731 0.6355 0.71529 0.0
C2240 C 0.87264 0.62845 0.67736 0.0
C2241 C 0.88969 0.61466 0.55657 0.0
C2242 C 0.88357 0.61864 0.59894 0.0
H2243 H 0.84256 0.63644 0.78484 0.0
H2244 H 0.85216 0.62334 0.72757 0.0
H2245 H 0.89098 0.62903 0.70393 0.0
H2246 H 0.91599 0.62002 0.49931 0.0
H2247 H 0.90401 0.62818 0.56131 0.0
C2248 C 0.34381 0.35114 0.21665 0.0
C2249 C 0.34729 0.35244 0.26212 0.0
C2250 C 0.34852 0.35879 0.18346 0.0
C2251 C 0.36613 0.38724 0.16392 0.0
H2252 H 0.37523 0.37071 0.05299 0.0
C2253 C 0.40219 0.40526 0.04009 0.0
C2254 C 0.40034 0.4039 0.99327 0.0
C2255 C 0.39398 0.4004 0.07109 0.0
C2256 C 0.37255 0.37552 0.08336 0.0
H2257 H 0.35803 0.36311 0.30889 0.0
H2258 H 0.36668 0.37636 0.25039 0.0
H2259 H 0.36443 0.35963 0.11165 0.0
H2260 H 0.38815 0.39671 0.94228 0.0
H2261 H 0.37376 0.38796 0.99694 0.0
H2262 H 0.37477 0.40302 0.13591 0.0
C2263 C 0.3601 0.36952 0.24053 0.0
C2264 C 0.36634 0.36918 0.11713 0.0
C2265 C 0.3552 0.36193 0.27408 0.0
C2266 C 0.38983 0.39787 0.97812 0.0
C2267 C 0.38165 0.39284 0.00936 0.0
C2268 C 0.37244 0.39357 0.13019 0.0
C2269 C 0.35703 0.36784 0.19462 0.0
C2270 C 0.36314 0.37491 0.15806 0.0
C2271 C 0.38373 0.39396 0.05619 0.0
C2272 C 0.37583 0.38773 0.08976 0.0
H2273 H 0.33753 0.34405 0.20654 0.0
H2274 H 0.34564 0.35745 0.14879 0.0
H2275 H 0.36366 0.392 0.19463 0.0
H2276 H 0.41012 0.40997 0.05298 0.0
H2277 H 0.39592 0.40131 0.10685 0.0
C2278 C 0.38921 0.60366 0.02545 0.0
C2279 C 0.40026 0.59835 0.01198 0.0
C2280 C 0.38124 0.60851 0.99299 0.0
C2281 C 0.37488 0.60911 0.86874 0.0
H2282 H 0.36437 0.64216 0.89177 0.0
C2283 C 0.35015 0.6395 0.73487 0.0
C2284 C 0.35395 0.65171 0.73386 0.0
C2285 C 0.35429 0.63167 0.76905 0.0
C2286 C 0.36724 0.63293 0.88478 0.0
H2287 H 0.41122 0.59328 0.9538 0.0
H2288 H 0.39753 0.60171 0.89807 0.0
H2289 H 0.3736 0.6304 0.9525 0.0
H2290 H 0.36571 0.66502 0.76596 0.0
H2291 H 0.37306 0.65139 0.82435 0.0
H2292 H 0.36907 0.61189 0.80031 0.0
C2293 C 0.39492 0.60216 0.93334 0.0
C2294 C 0.37237 0.62612 0.91983 0.0
C2295 C 0.40287 0.59746 0.96552 0.0
C2296 C 0.36245 0.65571 0.7661 0.0
C2297 C 0.36659 0.64793 0.79992 0.0
C2298 C 0.36975 0.61593 0.83362 0.0
C2299 C 0.38411 0.60795 0.94657 0.0
C2300 C 0.37661 0.61427 0.91188 0.0
C2301 C 0.36231 0.63592 0.80267 0.0
C2302 C 0.36625 0.62806 0.84091 0.0
H2303 H 0.38693 0.60444 0.06096 0.0
H2304 H 0.37293 0.61286 0.00422 0.0
H2305 H 0.3779 0.59992 0.8617 0.0
H2306 H 0.34355 0.63617 0.71064 0.0
H2307 H 0.35087 0.62243 0.77014 0.0
C2308 C 0.15411 0.63966 0.7664 0.0
C2309 C 0.14876 0.65107 0.77453 0.0
C2310 C 0.14919 0.63184 0.73366 0.0
C2311 C 0.12103 0.62489 0.6731 0.0
H2312 H 0.14141 0.6131 0.57524 0.0
C2313 C 0.10135 0.59332 0.54015 0.0
C2314 C 0.10293 0.59688 0.49488 0.0
C2315 C 0.10843 0.59837 0.57432 0.0
C2316 C 0.13565 0.61634 0.6024 0.0
H2317 H 0.13388 0.66305 0.75643 0.0
H2318 H 0.12508 0.64928 0.70075 0.0
H2319 H 0.15054 0.62475 0.63767 0.0
H2320 H 0.11376 0.60789 0.44943 0.0
H2321 H 0.12618 0.61698 0.50997 0.0
H2322 H 0.10613 0.61676 0.6381 0.0
C2323 C 0.13313 0.64642 0.71904 0.0
C2324 C 0.14087 0.62287 0.63824 0.0
C2325 C 0.13816 0.65429 0.75091 0.0
C2326 C 0.11235 0.60501 0.48408 0.0
C2327 C 0.11944 0.61018 0.51866 0.0
C2328 C 0.11587 0.61829 0.63777 0.0
C2329 C 0.13871 0.63522 0.70946 0.0
C2330 C 0.13356 0.62732 0.67363 0.0
C2331 C 0.11722 0.6072 0.56427 0.0
C2332 C 0.12308 0.61398 0.60188 0.0
H2333 H 0.16238 0.63704 0.78378 0.0
H2334 H 0.1536 0.62322 0.72702 0.0
H2335 H 0.1152 0.62821 0.69994 0.0
H2336 H 0.09433 0.58686 0.54942 0.0
H2337 H 0.10671 0.59566 0.60897 0.0
C2338 C 0.15501 0.34948 0.2909 0.0
C2339 C 0.15387 0.35164 0.24419 0.0
C2340 C 0.15027 0.35765 0.32233 0.0
C2341 C 0.12595 0.37969 0.33512 0.0
H2342 H 0.14225 0.38752 0.44783 0.0
C2343 C 0.10177 0.40828 0.46921 0.0
C2344 C 0.10279 0.40451 0.51444 0.0
C2345 C 0.10947 0.40359 0.43612 0.0
C2346 C 0.13754 0.38534 0.41672 0.0
H2347 H 0.1472 0.36432 0.19387 0.0
H2348 H 0.13865 0.37862 0.24925 0.0
H2349 H 0.15318 0.37642 0.38883 0.0
H2350 H 0.11302 0.3933 0.56103 0.0
H2351 H 0.12635 0.38469 0.50265 0.0
H2352 H 0.11018 0.38808 0.36323 0.0
C2353 C 0.14327 0.37054 0.26126 0.0
C2354 C 0.14382 0.37905 0.38282 0.0
C2355 C 0.14818 0.36239 0.22961 0.0
C2356 C 0.11207 0.39635 0.52638 0.0
C2357 C 0.11971 0.39147 0.49291 0.0
C2358 C 0.11965 0.38588 0.36904 0.0
C2359 C 0.14417 0.36816 0.30797 0.0
C2360 C 0.13804 0.37603 0.34186 0.0
C2361 C 0.11828 0.39482 0.44713 0.0
C2362 C 0.12532 0.38872 0.41048 0.0
H2363 H 0.15946 0.34136 0.30337 0.0
H2364 H 0.15101 0.35548 0.35797 0.0
H2365 H 0.12117 0.3773 0.30433 0.0
H2366 H 0.09484 0.41474 0.45919 0.0
H2367 H 0.10834 0.40669 0.40161 0.0
loop_
_geom_bond_atom_site_label_1
_geom_bond_atom_site_label_2
_geom_bond_distance
_geom_bond_site_symmetry_2
_ccdc_geom_bond_type
Co0 O1 2.216 . S
Co0 O2 2.091 . S
Co0 O4 2.004 . S
Co0 O10 2.021 . S
Co0 O12 2.137 . S
Co0 O13 2.244 . S
O1 Co0 2.216 . S
O1 C8 1.247 . S
O2 Co0 2.091 . S
O2 C8 1.261 . S
C3 O12 1.247 . S
C3 O13 1.272 . S
O4 Co0 2.004 . S
O4 C9 1.259 . S
Co5 O6 2.061 . S
Co5 O11 2.052 . S
Co5 O13 2.135 . S
O6 Co5 2.061 . S
O6 C9 1.235 . S
C7 O10 1.238 . S
C7 O11 1.241 . S
C8 O1 1.247 . S
C8 O2 1.261 . S
C9 O4 1.259 . S
C9 O6 1.235 . S
O10 Co0 2.021 . S
O10 C7 1.238 . S
O11 Co5 2.052 . S
O11 C7 1.241 . S
O12 Co0 2.137 . S
O12 C3 1.247 . S
O13 Co0 2.244 . S
O13 C3 1.272 . S
O13 Co5 2.135 . S
Co14 O15 2.216 . S
Co14 O16 2.091 . S
Co14 O18 2.004 . S
Co14 O24 2.021 . S
Co14 O26 2.137 . S
Co14 O27 2.244 . S
O15 Co14 2.216 . S
O15 C22 1.247 . S
O16 Co14 2.091 . S
O16 C22 1.261 . S
C17 O26 1.247 . S
C17 O27 1.272 . S
O18 Co14 2.004 . S
O18 C23 1.259 . S
Co19 O20 2.061 . S
Co19 O25 2.052 . S
Co19 O27 2.135 . S
O20 Co19 2.061 . S
O20 C23 1.235 . S
C21 O24 1.238 . S
C21 O25 1.241 . S
C22 O15 1.247 . S
C22 O16 1.261 . S
C23 O18 1.259 . S
C23 O20 1.235 . S
O24 Co14 2.021 . S
O24 C21 1.238 . S
O25 Co19 2.052 . S
O25 C21 1.241 . S
O26 Co14 2.137 . S
O26 C17 1.247 . S
O27 Co14 2.244 . S
O27 C17 1.272 . S
O27 Co19 2.135 . S
Co28 O29 2.216 . S
Co28 O30 2.091 . S
Co28 O32 2.004 . S
Co28 O38 2.021 . S
Co28 O40 2.137 . S
Co28 O41 2.244 . S
O29 Co28 2.216 . S
O29 C36 1.247 . S
O30 Co28 2.091 . S
O30 C36 1.261 . S
C31 O40 1.247 . S
C31 O41 1.272 . S
O32 Co28 2.004 . S
O32 C37 1.259 . S
Co33 O34 2.061 . S
Co33 O39 2.052 . S
Co33 O41 2.135 . S
O34 Co33 2.061 . S
O34 C37 1.235 . S
C35 O38 1.238 . S
C35 O39 1.241 . S
C36 O29 1.247 . S
C36 O30 1.261 . S
C37 O32 1.259 . S
C37 O34 1.235 . S
O38 Co28 2.021 . S
O38 C35 1.238 . S
O39 Co33 2.052 . S
O39 C35 1.241 . S
O40 Co28 2.137 . S
O40 C31 1.247 . S
O41 Co28 2.244 . S
O41 C31 1.272 . S
O41 Co33 2.135 . S
Co42 O43 2.216 . S
Co42 O44 2.091 . S
Co42 O46 2.004 . S
Co42 O52 2.021 . S
Co42 O54 2.137 . S
Co42 O55 2.244 . S
O43 Co42 2.216 . S
O43 C50 1.247 . S
O44 Co42 2.091 . S
O44 C50 1.261 . S
C45 O54 1.247 . S
C45 O55 1.272 . S
O46 Co42 2.004 . S
O46 C51 1.259 . S
Co47 O48 2.061 . S
Co47 O53 2.052 . S
Co47 O55 2.135 . S
O48 Co47 2.061 . S
O48 C51 1.235 . S
C49 O52 1.238 . S
C49 O53 1.241 . S
C50 O43 1.247 . S
C50 O44 1.261 . S
C51 O46 1.259 . S
C51 O48 1.235 . S
O52 Co42 2.021 . S
O52 C49 1.238 . S
O53 Co47 2.052 . S
O53 C49 1.241 . S
O54 Co42 2.137 . S
O54 C45 1.247 . S
O55 Co42 2.244 . S
O55 C45 1.272 . S
O55 Co47 2.135 . S
Co56 O57 2.216 . S
Co56 O58 2.091 . S
Co56 O60 2.004 . S
Co56 O66 2.021 . S
Co56 O68 2.137 . S
Co56 O69 2.244 . S
O57 Co56 2.216 . S
O57 C64 1.247 . S
O58 Co56 2.091 . S
O58 C64 1.261 . S
C59 O68 1.247 . S
C59 O69 1.272 . S
O60 Co56 2.004 . S
O60 C65 1.259 . S
Co61 O62 2.061 . S
Co61 O67 2.052 . S
Co61 O69 2.135 . S
O62 Co61 2.061 . S
O62 C65 1.235 . S
C63 O66 1.238 . S
C63 O67 1.241 . S
C64 O57 1.247 . S
C64 O58 1.261 . S
C65 O60 1.259 . S
C65 O62 1.235 . S
O66 Co56 2.021 . S
O66 C63 1.238 . S
O67 Co61 2.052 . S
O67 C63 1.241 . S
O68 Co56 2.137 . S
O68 C59 1.247 . S
O69 Co56 2.244 . S
O69 C59 1.272 . S
O69 Co61 2.135 . S
Co70 O71 2.216 . S
Co70 O72 2.091 . S
Co70 O74 2.004 . S
Co70 O80 2.021 . S
Co70 O82 2.137 . S
Co70 O83 2.244 . S
O71 Co70 2.216 . S
O71 C78 1.247 . S
O72 Co70 2.091 . S
O72 C78 1.261 . S
C73 O82 1.247 . S
C73 O83 1.272 . S
O74 Co70 2.004 . S
O74 C79 1.259 . S
Co75 O76 2.061 . S
Co75 O81 2.052 . S
Co75 O83 2.135 . S
O76 Co75 2.061 . S
O76 C79 1.235 . S
C77 O80 1.238 . S
C77 O81 1.241 . S
C78 O71 1.247 . S
C78 O72 1.261 . S
C79 O74 1.259 . S
C79 O76 1.235 . S
O80 Co70 2.021 . S
O80 C77 1.238 . S
O81 Co75 2.052 . S
O81 C77 1.241 . S
O82 Co70 2.137 . S
O82 C73 1.247 . S
O83 Co70 2.244 . S
O83 C73 1.272 . S
O83 Co75 2.135 . S
Co84 O85 2.216 . S
Co84 O86 2.091 . S
Co84 O88 2.004 . S
Co84 O94 2.021 . S
Co84 O96 2.137 . S
Co84 O97 2.244 . S
O85 Co84 2.216 . S
O85 C92 1.247 . S
O86 Co84 2.091 . S
O86 C92 1.261 . S
C87 O96 1.247 . S
C87 O97 1.272 . S
O88 Co84 2.004 . S
O88 C93 1.259 . S
Co89 O90 2.061 . S
Co89 O95 2.052 . S
Co89 O97 2.135 . S
O90 Co89 2.061 . S
O90 C93 1.235 . S
C91 O94 1.238 . S
C91 O95 1.241 . S
C92 O85 1.247 . S
C92 O86 1.261 . S
C93 O88 1.259 . S
C93 O90 1.235 . S
O94 Co84 2.021 . S
O94 C91 1.238 . S
O95 Co89 2.052 . S
O95 C91 1.241 . S
O96 Co84 2.137 . S
O96 C87 1.247 . S
O97 Co84 2.244 . S
O97 C87 1.272 . S
O97 Co89 2.135 . S
Co98 O99 2.216 . S
Co98 O100 2.091 . S
Co98 O102 2.004 . S
Co98 O108 2.021 . S
Co98 O110 2.137 . S
Co98 O111 2.244 . S
O99 Co98 2.216 . S
O99 C106 1.247 . S
O100 Co98 2.091 . S
O100 C106 1.261 . S
C101 O110 1.247 . S
C101 O111 1.272 . S
O102 Co98 2.004 . S
O102 C107 1.259 . S
Co103 O104 2.061 . S
Co103 O109 2.052 . S
Co103 O111 2.135 . S
O104 Co103 2.061 . S
O104 C107 1.235 . S
C105 O108 1.238 . S
C105 O109 1.241 . S
C106 O99 1.247 . S
C106 O100 1.261 . S
C107 O102 1.259 . S
C107 O104 1.235 . S
O108 Co98 2.021 . S
O108 C105 1.238 . S
O109 Co103 2.052 . S
O109 C105 1.241 . S
O110 Co98 2.137 . S
O110 C101 1.247 . S
O111 Co98 2.244 . S
O111 C101 1.272 . S
O111 Co103 2.135 . S
Co112 O113 2.216 . S
Co112 O114 2.091 . S
Co112 O116 2.004 . S
Co112 O122 2.021 . S
Co112 O124 2.137 . S
Co112 O125 2.244 . S
O113 Co112 2.216 . S
O113 C120 1.247 . S
O114 Co112 2.091 . S
O114 C120 1.261 . S
C115 O124 1.247 . S
C115 O125 1.272 . S
O116 Co112 2.004 . S
O116 C121 1.259 . S
Co117 O118 2.061 . S
Co117 O123 2.052 . S
Co117 O125 2.135 . S
O118 Co117 2.061 . S
O118 C121 1.235 . S
C119 O122 1.238 . S
C119 O123 1.241 . S
C120 O113 1.247 . S
C120 O114 1.261 . S
C121 O116 1.259 . S
C121 O118 1.235 . S
O122 Co112 2.021 . S
O122 C119 1.238 . S
O123 Co117 2.052 . S
O123 C119 1.241 . S
O124 Co112 2.137 . S
O124 C115 1.247 . S
O125 Co112 2.244 . S
O125 C115 1.272 . S
O125 Co117 2.135 . S
Co126 O127 2.216 . S
Co126 O128 2.091 . S
Co126 O130 2.004 . S
Co126 O136 2.021 . S
Co126 O138 2.137 . S
Co126 O139 2.244 . S
O127 Co126 2.216 . S
O127 C134 1.247 . S
O128 Co126 2.091 . S
O128 C134 1.261 . S
C129 O138 1.247 . S
C129 O139 1.272 . S
O130 Co126 2.004 . S
O130 C135 1.259 . S
Co131 O132 2.061 . S
Co131 O137 2.052 . S
Co131 O139 2.135 . S
O132 Co131 2.061 . S
O132 C135 1.235 . S
C133 O136 1.238 . S
C133 O137 1.241 . S
C134 O127 1.247 . S
C134 O128 1.261 . S
C135 O130 1.259 . S
C135 O132 1.235 . S
O136 Co126 2.021 . S
O136 C133 1.238 . S
O137 Co131 2.052 . S
O137 C133 1.241 . S
O138 Co126 2.137 . S
O138 C129 1.247 . S
O139 Co126 2.244 . S
O139 C129 1.272 . S
O139 Co131 2.135 . S
Co140 O141 2.216 . S
Co140 O142 2.091 . S
Co140 O144 2.004 . S
Co140 O150 2.021 . S
Co140 O152 2.137 . S
Co140 O153 2.244 . S
O141 Co140 2.216 . S
O141 C148 1.247 . S
O142 Co140 2.091 . S
O142 C148 1.261 . S
C143 O152 1.247 . S
C143 O153 1.272 . S
O144 Co140 2.004 . S
O144 C149 1.259 . S
Co145 O146 2.061 . S
Co145 O151 2.052 . S
Co145 O153 2.135 . S
O146 Co145 2.061 . S
O146 C149 1.235 . S
C147 O150 1.238 . S
C147 O151 1.241 . S
C148 O141 1.247 . S
C148 O142 1.261 . S
C149 O144 1.259 . S
C149 O146 1.235 . S
O150 Co140 2.021 . S
O150 C147 1.238 . S
O151 Co145 2.052 . S
O151 C147 1.241 . S
O152 Co140 2.137 . S
O152 C143 1.247 . S
O153 Co140 2.244 . S
O153 C143 1.272 . S
O153 Co145 2.135 . S
Co154 O155 2.216 . S
Co154 O156 2.091 . S
Co154 O158 2.004 . S
Co154 O164 2.021 . S
Co154 O166 2.137 . S
Co154 O167 2.244 . S
O155 Co154 2.216 . S
O155 C162 1.247 . S
O156 Co154 2.091 . S
O156 C162 1.261 . S
C157 O166 1.247 . S
C157 O167 1.272 . S
O158 Co154 2.004 . S
O158 C163 1.259 . S
Co159 O160 2.061 . S
Co159 O165 2.052 . S
Co159 O167 2.135 . S
O160 Co159 2.061 . S
O160 C163 1.235 . S
C161 O164 1.238 . S
C161 O165 1.241 . S
C162 O155 1.247 . S
C162 O156 1.261 . S
C163 O158 1.259 . S
C163 O160 1.235 . S
O164 Co154 2.021 . S
O164 C161 1.238 . S
O165 Co159 2.052 . S
O165 C161 1.241 . S
O166 Co154 2.137 . S
O166 C157 1.247 . S
O167 Co154 2.244 . S
O167 C157 1.272 . S
O167 Co159 2.135 . S
Co168 O169 2.216 . S
Co168 O170 2.091 . S
Co168 O172 2.004 . S
Co168 O178 2.021 . S
Co168 O180 2.137 . S
Co168 O181 2.244 . S
O169 Co168 2.216 . S
O169 C176 1.247 . S
O170 Co168 2.091 . S
O170 C176 1.261 . S
C171 O180 1.247 . S
C171 O181 1.272 . S
O172 Co168 2.004 . S
O172 C177 1.259 . S
Co173 O174 2.061 . S
Co173 O179 2.052 . S
Co173 O181 2.135 . S
O174 Co173 2.061 . S
O174 C177 1.235 . S
C175 O178 1.238 . S
C175 O179 1.241 . S
C176 O169 1.247 . S
C176 O170 1.261 . S
C177 O172 1.259 . S
C177 O174 1.235 . S
O178 Co168 2.021 . S
O178 C175 1.238 . S
O179 Co173 2.052 . S
O179 C175 1.241 . S
O180 Co168 2.137 . S
O180 C171 1.247 . S
O181 Co168 2.244 . S
O181 C171 1.272 . S
O181 Co173 2.135 . S
Co182 O183 2.216 . S
Co182 O184 2.091 . S
Co182 O186 2.004 . S
Co182 O192 2.021 . S
Co182 O194 2.137 . S
Co182 O195 2.244 . S
O183 Co182 2.216 . S
O183 C190 1.247 . S
O184 Co182 2.091 . S
O184 C190 1.261 . S
C185 O194 1.247 . S
C185 O195 1.272 . S
O186 Co182 2.004 . S
O186 C191 1.259 . S
Co187 O188 2.061 . S
Co187 O193 2.052 . S
Co187 O195 2.135 . S
O188 Co187 2.061 . S
O188 C191 1.235 . S
C189 O192 1.238 . S
C189 O193 1.241 . S
C190 O183 1.247 . S
C190 O184 1.261 . S
C191 O186 1.259 . S
C191 O188 1.235 . S
O192 Co182 2.021 . S
O192 C189 1.238 . S
O193 Co187 2.052 . S
O193 C189 1.241 . S
O194 Co182 2.137 . S
O194 C185 1.247 . S
O195 Co182 2.244 . S
O195 C185 1.272 . S
O195 Co187 2.135 . S
Co196 O197 2.216 . S
Co196 O198 2.091 . S
Co196 O200 2.004 . S
Co196 O206 2.021 . S
Co196 O208 2.137 . S
Co196 O209 2.244 . S
O197 Co196 2.216 . S
O197 C204 1.247 . S
O198 Co196 2.091 . S
O198 C204 1.261 . S
C199 O208 1.247 . S
C199 O209 1.272 . S
O200 Co196 2.004 . S
O200 C205 1.259 . S
Co201 O202 2.061 . S
Co201 O207 2.052 . S
Co201 O209 2.135 . S
O202 Co201 2.061 . S
O202 C205 1.235 . S
C203 O206 1.238 . S
C203 O207 1.241 . S
C204 O197 1.247 . S
C204 O198 1.261 . S
C205 O200 1.259 . S
C205 O202 1.235 . S
O206 Co196 2.021 . S
O206 C203 1.238 . S
O207 Co201 2.052 . S
O207 C203 1.241 . S
O208 Co196 2.137 . S
O208 C199 1.247 . S
O209 Co196 2.244 . S
O209 C199 1.272 . S
O209 Co201 2.135 . S
Co210 O211 2.216 . S
Co210 O212 2.091 . S
Co210 O214 2.004 . S
Co210 O220 2.021 . S
Co210 O222 2.137 . S
Co210 O223 2.244 . S
O211 Co210 2.216 . S
O211 C218 1.247 . S
O212 Co210 2.091 . S
O212 C218 1.261 . S
C213 O222 1.247 . S
C213 O223 1.272 . S
O214 Co210 2.004 . S
O214 C219 1.259 . S
Co215 O216 2.061 . S
Co215 O221 2.052 . S
Co215 O223 2.135 . S
O216 Co215 2.061 . S
O216 C219 1.235 . S
C217 O220 1.238 . S
C217 O221 1.241 . S
C218 O211 1.247 . S
C218 O212 1.261 . S
C219 O214 1.259 . S
C219 O216 1.235 . S
O220 Co210 2.021 . S
O220 C217 1.238 . S
O221 Co215 2.052 . S
O221 C217 1.241 . S
O222 Co210 2.137 . S
O222 C213 1.247 . S
O223 Co210 2.244 . S
O223 C213 1.272 . S
O223 Co215 2.135 . S
Co224 O225 2.216 . S
Co224 O226 2.091 . S
Co224 O228 2.004 . S
Co224 O234 2.021 . S
Co224 O236 2.137 . S
Co224 O237 2.244 . S
O225 Co224 2.216 . S
O225 C232 1.247 . S
O226 Co224 2.091 . S
O226 C232 1.261 . S
C227 O236 1.247 . S
C227 O237 1.272 . S
O228 Co224 2.004 . S
O228 C233 1.259 . S
Co229 O230 2.061 . S
Co229 O235 2.052 . S
Co229 O237 2.135 . S
O230 Co229 2.061 . S
O230 C233 1.235 . S
C231 O234 1.238 . S
C231 O235 1.241 . S
C232 O225 1.247 . S
C232 O226 1.261 . S
C233 O228 1.259 . S
C233 O230 1.235 . S
O234 Co224 2.021 . S
O234 C231 1.238 . S
O235 Co229 2.052 . S
O235 C231 1.241 . S
O236 Co224 2.137 . S
O236 C227 1.247 . S
O237 Co224 2.244 . S
O237 C227 1.272 . S
O237 Co229 2.135 . S
Co238 O239 2.216 . S
Co238 O240 2.091 . S
Co238 O242 2.004 . S
Co238 O248 2.021 . S
Co238 O250 2.137 . S
Co238 O251 2.244 . S
O239 Co238 2.216 . S
O239 C246 1.247 . S
O240 Co238 2.091 . S
O240 C246 1.261 . S
C241 O250 1.247 . S
C241 O251 1.272 . S
O242 Co238 2.004 . S
O242 C247 1.259 . S
Co243 O244 2.061 . S
Co243 O249 2.052 . S
Co243 O251 2.135 . S
O244 Co243 2.061 . S
O244 C247 1.235 . S
C245 O248 1.238 . S
C245 O249 1.241 . S
C246 O239 1.247 . S
C246 O240 1.261 . S
C247 O242 1.259 . S
C247 O244 1.235 . S
O248 Co238 2.021 . S
O248 C245 1.238 . S
O249 Co243 2.052 . S
O249 C245 1.241 . S
O250 Co238 2.137 . S
O250 C241 1.247 . S
O251 Co238 2.244 . S
O251 C241 1.272 . S
O251 Co243 2.135 . S
Co252 O253 2.216 . S
Co252 O254 2.091 . S
Co252 O256 2.004 . S
Co252 O262 2.021 . S
Co252 O264 2.137 . S
Co252 O265 2.244 . S
O253 Co252 2.216 . S
O253 C260 1.247 . S
O254 Co252 2.091 . S
O254 C260 1.261 . S
C255 O264 1.247 . S
C255 O265 1.272 . S
O256 Co252 2.004 . S
O256 C261 1.259 . S
Co257 O258 2.061 . S
Co257 O263 2.052 . S
Co257 O265 2.135 . S
O258 Co257 2.061 . S
O258 C261 1.235 . S
C259 O262 1.238 . S
C259 O263 1.241 . S
C260 O253 1.247 . S
C260 O254 1.261 . S
C261 O256 1.259 . S
C261 O258 1.235 . S
O262 Co252 2.021 . S
O262 C259 1.238 . S
O263 Co257 2.052 . S
O263 C259 1.241 . S
O264 Co252 2.137 . S
O264 C255 1.247 . S
O265 Co252 2.244 . S
O265 C255 1.272 . S
O265 Co257 2.135 . S
Co266 O267 2.216 . S
Co266 O268 2.091 . S
Co266 O270 2.004 . S
Co266 O276 2.021 . S
Co266 O278 2.137 . S
Co266 O279 2.244 . S
O267 Co266 2.216 . S
O267 C274 1.247 . S
O268 Co266 2.091 . S
O268 C274 1.261 . S
C269 O278 1.247 . S
C269 O279 1.272 . S
O270 Co266 2.004 . S
O270 C275 1.259 . S
Co271 O272 2.061 . S
Co271 O277 2.052 . S
Co271 O279 2.135 . S
O272 Co271 2.061 . S
O272 C275 1.235 . S
C273 O276 1.238 . S
C273 O277 1.241 . S
C274 O267 1.247 . S
C274 O268 1.261 . S
C275 O270 1.259 . S
C275 O272 1.235 . S
O276 Co266 2.021 . S
O276 C273 1.238 . S
O277 Co271 2.052 . S
O277 C273 1.241 . S
O278 Co266 2.137 . S
O278 C269 1.247 . S
O279 Co266 2.244 . S
O279 C269 1.272 . S
O279 Co271 2.135 . S
Co280 O281 2.216 . S
Co280 O282 2.091 . S
Co280 O284 2.004 . S
Co280 O290 2.021 . S
Co280 O292 2.137 . S
Co280 O293 2.244 . S
O281 Co280 2.216 . S
O281 C288 1.247 . S
O282 Co280 2.091 . S
O282 C288 1.261 . S
C283 O292 1.247 . S
C283 O293 1.272 . S
O284 Co280 2.004 . S
O284 C289 1.259 . S
Co285 O286 2.061 . S
Co285 O291 2.052 . S
Co285 O293 2.135 . S
O286 Co285 2.061 . S
O286 C289 1.235 . S
C287 O290 1.238 . S
C287 O291 1.241 . S
C288 O281 1.247 . S
C288 O282 1.261 . S
C289 O284 1.259 . S
C289 O286 1.235 . S
O290 Co280 2.021 . S
O290 C287 1.238 . S
O291 Co285 2.052 . S
O291 C287 1.241 . S
O292 Co280 2.137 . S
O292 C283 1.247 . S
O293 Co280 2.244 . S
O293 C283 1.272 . S
O293 Co285 2.135 . S
Co294 O295 2.216 . S
Co294 O296 2.091 . S
Co294 O298 2.004 . S
Co294 O304 2.021 . S
Co294 O306 2.137 . S
Co294 O307 2.244 . S
O295 Co294 2.216 . S
O295 C302 1.247 . S
O296 Co294 2.091 . S
O296 C302 1.261 . S
C297 O306 1.247 . S
C297 O307 1.272 . S
O298 Co294 2.004 . S
O298 C303 1.259 . S
Co299 O300 2.061 . S
Co299 O305 2.052 . S
Co299 O307 2.135 . S
O300 Co299 2.061 . S
O300 C303 1.235 . S
C301 O304 1.238 . S
C301 O305 1.241 . S
C302 O295 1.247 . S
C302 O296 1.261 . S
C303 O298 1.259 . S
C303 O300 1.235 . S
O304 Co294 2.021 . S
O304 C301 1.238 . S
O305 Co299 2.052 . S
O305 C301 1.241 . S
O306 Co294 2.137 . S
O306 C297 1.247 . S
O307 Co294 2.244 . S
O307 C297 1.272 . S
O307 Co299 2.135 . S
Co308 O309 2.216 . S
Co308 O310 2.091 . S
Co308 O312 2.004 . S
Co308 O318 2.021 . S
Co308 O320 2.137 . S
Co308 O321 2.244 . S
O309 Co308 2.216 . S
O309 C316 1.247 . S
O310 Co308 2.091 . S
O310 C316 1.261 . S
C311 O320 1.247 . S
C311 O321 1.272 . S
O312 Co308 2.004 . S
O312 C317 1.259 . S
Co313 O314 2.061 . S
Co313 O319 2.052 . S
Co313 O321 2.135 . S
O314 Co313 2.061 . S
O314 C317 1.235 . S
C315 O318 1.238 . S
C315 O319 1.241 . S
C316 O309 1.247 . S
C316 O310 1.261 . S
C317 O312 1.259 . S
C317 O314 1.235 . S
O318 Co308 2.021 . S
O318 C315 1.238 . S
O319 Co313 2.052 . S
O319 C315 1.241 . S
O320 Co308 2.137 . S
O320 C311 1.247 . S
O321 Co308 2.244 . S
O321 C311 1.272 . S
O321 Co313 2.135 . S
Co322 O323 2.216 . S
Co322 O324 2.091 . S
Co322 O326 2.004 . S
Co322 O332 2.021 . S
Co322 O334 2.137 . S
Co322 O335 2.244 . S
O323 Co322 2.216 . S
O323 C330 1.247 . S
O324 Co322 2.091 . S
O324 C330 1.261 . S
C325 O334 1.247 . S
C325 O335 1.272 . S
O326 Co322 2.004 . S
O326 C331 1.259 . S
Co327 O328 2.061 . S
Co327 O333 2.052 . S
Co327 O335 2.135 . S
O328 Co327 2.061 . S
O328 C331 1.235 . S
C329 O332 1.238 . S
C329 O333 1.241 . S
C330 O323 1.247 . S
C330 O324 1.261 . S
C331 O326 1.259 . S
C331 O328 1.235 . S
O332 Co322 2.021 . S
O332 C329 1.238 . S
O333 Co327 2.052 . S
O333 C329 1.241 . S
O334 Co322 2.137 . S
O334 C325 1.247 . S
O335 Co322 2.244 . S
O335 C325 1.272 . S
O335 Co327 2.135 . S
Co336 O337 2.216 . S
Co336 O338 2.091 . S
Co336 O340 2.004 . S
Co336 O346 2.021 . S
Co336 O348 2.137 . S
Co336 O349 2.244 . S
O337 Co336 2.216 . S
O337 C344 1.247 . S
O338 Co336 2.091 . S
O338 C344 1.261 . S
C339 O348 1.247 . S
C339 O349 1.272 . S
O340 Co336 2.004 . S
O340 C345 1.259 . S
Co341 O342 2.061 . S
Co341 O347 2.052 . S
Co341 O349 2.135 . S
O342 Co341 2.061 . S
O342 C345 1.235 . S
C343 O346 1.238 . S
C343 O347 1.241 . S
C344 O337 1.247 . S
C344 O338 1.261 . S
C345 O340 1.259 . S
C345 O342 1.235 . S
O346 Co336 2.021 . S
O346 C343 1.238 . S
O347 Co341 2.052 . S
O347 C343 1.241 . S
O348 Co336 2.137 . S
O348 C339 1.247 . S
O349 Co336 2.244 . S
O349 C339 1.272 . S
O349 Co341 2.135 . S
Co350 O351 2.216 . S
Co350 O352 2.091 . S
Co350 O354 2.004 . S
Co350 O360 2.021 . S
Co350 O362 2.137 . S
Co350 O363 2.244 . S
O351 Co350 2.216 . S
O351 C358 1.247 . S
O352 Co350 2.091 . S
O352 C358 1.261 . S
C353 O362 1.247 . S
C353 O363 1.272 . S
O354 Co350 2.004 . S
O354 C359 1.259 . S
Co355 O356 2.061 . S
Co355 O361 2.052 . S
Co355 O363 2.135 . S
O356 Co355 2.061 . S
O356 C359 1.235 . S
C357 O360 1.238 . S
C357 O361 1.241 . S
C358 O351 1.247 . S
C358 O352 1.261 . S
C359 O354 1.259 . S
C359 O356 1.235 . S
O360 Co350 2.021 . S
O360 C357 1.238 . S
O361 Co355 2.052 . S
O361 C357 1.241 . S
O362 Co350 2.137 . S
O362 C353 1.247 . S
O363 Co350 2.244 . S
O363 C353 1.272 . S
O363 Co355 2.135 . S
Co364 O365 2.216 . S
Co364 O366 2.091 . S
Co364 O368 2.004 . S
Co364 O374 2.021 . S
Co364 O376 2.137 . S
Co364 O377 2.244 . S
O365 Co364 2.216 . S
O365 C372 1.247 . S
O366 Co364 2.091 . S
O366 C372 1.261 . S
C367 O376 1.247 . S
C367 O377 1.272 . S
O368 Co364 2.004 . S
O368 C373 1.259 . S
Co369 O370 2.061 . S
Co369 O375 2.052 . S
Co369 O377 2.135 . S
O370 Co369 2.061 . S
O370 C373 1.235 . S
C371 O374 1.238 . S
C371 O375 1.241 . S
C372 O365 1.247 . S
C372 O366 1.261 . S
C373 O368 1.259 . S
C373 O370 1.235 . S
O374 Co364 2.021 . S
O374 C371 1.238 . S
O375 Co369 2.052 . S
O375 C371 1.241 . S
O376 Co364 2.137 . S
O376 C367 1.247 . S
O377 Co364 2.244 . S
O377 C367 1.272 . S
O377 Co369 2.135 . S
Co378 O379 2.216 . S
Co378 O380 2.091 . S
Co378 O382 2.004 . S
Co378 O388 2.021 . S
Co378 O390 2.137 . S
Co378 O391 2.244 . S
O379 Co378 2.216 . S
O379 C386 1.247 . S
O380 Co378 2.091 . S
O380 C386 1.261 . S
C381 O390 1.247 . S
C381 O391 1.272 . S
O382 Co378 2.004 . S
O382 C387 1.259 . S
Co383 O384 2.061 . S
Co383 O389 2.052 . S
Co383 O391 2.135 . S
O384 Co383 2.061 . S
O384 C387 1.235 . S
C385 O388 1.238 . S
C385 O389 1.241 . S
C386 O379 1.247 . S
C386 O380 1.261 . S
C387 O382 1.259 . S
C387 O384 1.235 . S
O388 Co378 2.021 . S
O388 C385 1.238 . S
O389 Co383 2.052 . S
O389 C385 1.241 . S
O390 Co378 2.137 . S
O390 C381 1.247 . S
O391 Co378 2.244 . S
O391 C381 1.272 . S
O391 Co383 2.135 . S
Co392 O393 2.216 . S
Co392 O394 2.091 . S
Co392 O396 2.004 . S
Co392 O402 2.021 . S
Co392 O404 2.137 . S
Co392 O405 2.244 . S
O393 Co392 2.216 . S
O393 C400 1.247 . S
O394 Co392 2.091 . S
O394 C400 1.261 . S
C395 O404 1.247 . S
C395 O405 1.272 . S
O396 Co392 2.004 . S
O396 C401 1.259 . S
Co397 O398 2.061 . S
Co397 O403 2.052 . S
Co397 O405 2.135 . S
O398 Co397 2.061 . S
O398 C401 1.235 . S
C399 O402 1.238 . S
C399 O403 1.241 . S
C400 O393 1.247 . S
C400 O394 1.261 . S
C401 O396 1.259 . S
C401 O398 1.235 . S
O402 Co392 2.021 . S
O402 C399 1.238 . S
O403 Co397 2.052 . S
O403 C399 1.241 . S
O404 Co392 2.137 . S
O404 C395 1.247 . S
O405 Co392 2.244 . S
O405 C395 1.272 . S
O405 Co397 2.135 . S
Co406 O407 2.216 . S
Co406 O408 2.091 . S
Co406 O410 2.004 . S
Co406 O416 2.021 . S
Co406 O418 2.137 . S
Co406 O419 2.244 . S
O407 Co406 2.216 . S
O407 C414 1.247 . S
O408 Co406 2.091 . S
O408 C414 1.261 . S
C409 O418 1.247 . S
C409 O419 1.272 . S
O410 Co406 2.004 . S
O410 C415 1.259 . S
Co411 O412 2.061 . S
Co411 O417 2.052 . S
Co411 O419 2.135 . S
O412 Co411 2.061 . S
O412 C415 1.235 . S
C413 O416 1.238 . S
C413 O417 1.241 . S
C414 O407 1.247 . S
C414 O408 1.261 . S
C415 O410 1.259 . S
C415 O412 1.235 . S
O416 Co406 2.021 . S
O416 C413 1.238 . S
O417 Co411 2.052 . S
O417 C413 1.241 . S
O418 Co406 2.137 . S
O418 C409 1.247 . S
O419 Co406 2.244 . S
O419 C409 1.272 . S
O419 Co411 2.135 . S
Co420 O421 2.216 . S
Co420 O422 2.091 . S
Co420 O424 2.004 . S
Co420 O430 2.021 . S
Co420 O432 2.137 . S
Co420 O433 2.244 . S
O421 Co420 2.216 . S
O421 C428 1.247 . S
O422 Co420 2.091 . S
O422 C428 1.261 . S
C423 O432 1.247 . S
C423 O433 1.272 . S
O424 Co420 2.004 . S
O424 C429 1.259 . S
Co425 O426 2.061 . S
Co425 O431 2.052 . S
Co425 O433 2.135 . S
O426 Co425 2.061 . S
O426 C429 1.235 . S
C427 O430 1.238 . S
C427 O431 1.241 . S
C428 O421 1.247 . S
C428 O422 1.261 . S
C429 O424 1.259 . S
C429 O426 1.235 . S
O430 Co420 2.021 . S
O430 C427 1.238 . S
O431 Co425 2.052 . S
O431 C427 1.241 . S
O432 Co420 2.137 . S
O432 C423 1.247 . S
O433 Co420 2.244 . S
O433 C423 1.272 . S
O433 Co425 2.135 . S
Co434 O435 2.216 . S
Co434 O436 2.091 . S
Co434 O438 2.004 . S
Co434 O444 2.021 . S
Co434 O446 2.137 . S
Co434 O447 2.244 . S
O435 Co434 2.216 . S
O435 C442 1.247 . S
O436 Co434 2.091 . S
O436 C442 1.261 . S
C437 O446 1.247 . S
C437 O447 1.272 . S
O438 Co434 2.004 . S
O438 C443 1.259 . S
Co439 O440 2.061 . S
Co439 O445 2.052 . S
Co439 O447 2.135 . S
O440 Co439 2.061 . S
O440 C443 1.235 . S
C441 O444 1.238 . S
C441 O445 1.241 . S
C442 O435 1.247 . S
C442 O436 1.261 . S
C443 O438 1.259 . S
C443 O440 1.235 . S
O444 Co434 2.021 . S
O444 C441 1.238 . S
O445 Co439 2.052 . S
O445 C441 1.241 . S
O446 Co434 2.137 . S
O446 C437 1.247 . S
O447 Co434 2.244 . S
O447 C437 1.272 . S
O447 Co439 2.135 . S
C448 C449 1.349 . S
C448 C450 1.327 . S
C448 H473 0.950 . S
C449 C448 1.349 . S
C449 C465 1.349 . S
C450 C448 1.327 . S
C450 C469 1.429 . S
C450 H474 0.950 . S
C451 C468 1.574 . S
C451 C470 1.368 . S
C451 H475 0.949 . S
H452 C456 0.949 . S
C453 C454 1.349 . S
C453 C455 1.327 . S
C453 H476 0.950 . S
C454 C453 1.349 . S
C454 C466 1.349 . S
C455 C453 1.327 . S
C455 C471 1.429 . S
C455 H477 0.950 . S
C456 H452 0.949 . S
C456 C464 1.574 . S
C456 C472 1.368 . S
H457 C465 0.950 . S
H458 C463 0.950 . S
H459 C464 0.949 . S
H460 C466 0.950 . S
H461 C467 0.950 . S
H462 C468 0.949 . S
C463 H458 0.950 . S
C463 C465 1.327 . S
C463 C469 1.429 . S
C464 C456 1.574 . S
C464 H459 0.949 . S
C464 C470 1.368 . S
C465 C449 1.349 . S
C465 H457 0.950 . S
C465 C463 1.327 . S
C466 C454 1.349 . S
C466 H460 0.950 . S
C466 C467 1.327 . S
C467 H461 0.950 . S
C467 C466 1.327 . S
C467 C471 1.429 . S
C468 C451 1.574 . S
C468 H462 0.949 . S
C468 C472 1.368 . S
C469 C450 1.429 . S
C469 C463 1.429 . S
C469 C470 1.523 . S
C470 C451 1.368 . S
C470 C464 1.368 . S
C470 C469 1.523 . S
C471 C455 1.429 . S
C471 C467 1.429 . S
C471 C472 1.523 . S
C472 C456 1.368 . S
C472 C468 1.368 . S
C472 C471 1.523 . S
H473 C448 0.950 . S
H474 C450 0.950 . S
H475 C451 0.949 . S
H476 C453 0.950 . S
H477 C455 0.950 . S
C478 C479 1.349 . S
C478 C480 1.327 . S
C478 H503 0.950 . S
C479 C478 1.349 . S
C479 C495 1.349 . S
C480 C478 1.327 . S
C480 C499 1.429 . S
C480 H504 0.950 . S
C481 C498 1.574 1_565 S
C481 C500 1.368 . S
C481 H505 0.949 . S
H482 C486 0.949 . S
C483 C484 1.349 . S
C483 C485 1.327 . S
C483 H506 0.950 . S
C484 C483 1.349 . S
C484 C496 1.349 . S
C485 C483 1.327 . S
C485 C501 1.429 . S
C485 H507 0.950 . S
C486 H482 0.949 . S
C486 C494 1.574 1_545 S
C486 C502 1.368 . S
H487 C495 0.950 . S
H488 C493 0.950 . S
H489 C494 0.949 . S
H490 C496 0.950 . S
H491 C497 0.950 . S
H492 C498 0.949 . S
C493 H488 0.950 . S
C493 C495 1.327 . S
C493 C499 1.429 . S
C494 C486 1.574 1_565 S
C494 H489 0.949 . S
C494 C500 1.368 . S
C495 C479 1.349 . S
C495 H487 0.950 . S
C495 C493 1.327 . S
C496 C484 1.349 . S
C496 H490 0.950 . S
C496 C497 1.327 . S
C497 H491 0.950 . S
C497 C496 1.327 . S
C497 C501 1.429 . S
C498 C481 1.574 1_545 S
C498 H492 0.949 . S
C498 C502 1.368 . S
C499 C480 1.429 . S
C499 C493 1.429 . S
C499 C500 1.523 . S
C500 C481 1.368 . S
C500 C494 1.368 . S
C500 C499 1.523 . S
C501 C485 1.429 . S
C501 C497 1.429 . S
C501 C502 1.523 . S
C502 C486 1.368 . S
C502 C498 1.368 . S
C502 C501 1.523 . S
H503 C478 0.950 . S
H504 C480 0.950 . S
H505 C481 0.949 . S
H506 C483 0.950 . S
H507 C485 0.950 . S
C508 C509 1.349 . S
C508 C510 1.327 . S
C508 H533 0.950 . S
C509 C508 1.349 . S
C509 C525 1.349 . S
C510 C508 1.327 . S
C510 C529 1.429 . S
C510 H534 0.950 . S
C511 C528 1.574 . S
C511 C530 1.368 . S
C511 H535 0.949 . S
H512 C516 0.949 . S
C513 C514 1.349 . S
C513 C515 1.327 . S
C513 H536 0.950 . S
C514 C513 1.349 . S
C514 C526 1.349 . S
C515 C513 1.327 . S
C515 C531 1.429 . S
C515 H537 0.950 . S
C516 H512 0.949 . S
C516 C524 1.574 . S
C516 C532 1.368 . S
H517 C525 0.950 . S
H518 C523 0.950 . S
H519 C524 0.949 . S
H520 C526 0.950 . S
H521 C527 0.950 . S
H522 C528 0.949 . S
C523 H518 0.950 . S
C523 C525 1.327 . S
C523 C529 1.429 . S
C524 C516 1.574 . S
C524 H519 0.949 . S
C524 C530 1.368 . S
C525 C509 1.349 . S
C525 H517 0.950 . S
C525 C523 1.327 . S
C526 C514 1.349 . S
C526 H520 0.950 . S
C526 C527 1.327 . S
C527 H521 0.950 . S
C527 C526 1.327 . S
C527 C531 1.429 . S
C528 C511 1.574 . S
C528 H522 0.949 . S
C528 C532 1.368 . S
C529 C510 1.429 . S
C529 C523 1.429 . S
C529 C530 1.523 . S
C530 C511 1.368 . S
C530 C524 1.368 . S
C530 C529 1.523 . S
C531 C515 1.429 . S
C531 C527 1.429 . S
C531 C532 1.523 . S
C532 C516 1.368 . S
C532 C528 1.368 . S
C532 C531 1.523 . S
H533 C508 0.950 . S
H534 C510 0.950 . S
H535 C511 0.949 . S
H536 C513 0.950 . S
H537 C515 0.950 . S
C538 C539 1.349 . S
C538 C540 1.327 . S
C538 H563 0.950 . S
C539 C538 1.349 . S
C539 C555 1.349 . S
C540 C538 1.327 . S
C540 C559 1.429 . S
C540 H564 0.950 1_556 S
C541 C558 1.574 1_545 S
C541 C560 1.368 . S
C541 H565 0.949 . S
H542 C546 0.949 . S
C543 C544 1.349 . S
C543 C545 1.327 . S
C543 H566 0.950 . S
C544 C543 1.349 . S
C544 C556 1.349 . S
C545 C543 1.327 . S
C545 C561 1.429 . S
C545 H567 0.950 1_554 S
C546 H542 0.949 . S
C546 C554 1.574 1_565 S
C546 C562 1.368 . S
H547 C555 0.950 . S
H548 C553 0.950 . S
H549 C554 0.949 . S
H550 C556 0.950 . S
H551 C557 0.950 . S
H552 C558 0.949 . S
C553 H548 0.950 . S
C553 C555 1.327 . S
C553 C559 1.429 . S
C554 C546 1.574 1_545 S
C554 H549 0.949 . S
C554 C560 1.368 1_554 S
C555 C539 1.349 . S
C555 H547 0.950 . S
C555 C553 1.327 . S
C556 C544 1.349 . S
C556 H550 0.950 . S
C556 C557 1.327 . S
C557 H551 0.950 . S
C557 C556 1.327 . S
C557 C561 1.429 . S
C558 C541 1.574 1_565 S
C558 H552 0.949 . S
C558 C562 1.368 1_556 S
C559 C540 1.429 . S
C559 C553 1.429 . S
C559 C560 1.523 . S
C560 C541 1.368 . S
C560 C554 1.368 1_556 S
C560 C559 1.523 . S
C561 C545 1.429 . S
C561 C557 1.429 . S
C561 C562 1.523 . S
C562 C546 1.368 . S
C562 C558 1.368 1_554 S
C562 C561 1.523 . S
H563 C538 0.950 . S
H564 C540 0.950 1_554 S
H565 C541 0.949 . S
H566 C543 0.950 . S
H567 C545 0.950 1_556 S
C568 C569 1.349 . S
C568 C570 1.327 . S
C568 H593 0.950 . S
C569 C568 1.349 . S
C569 C585 1.349 . S
C570 C568 1.327 . S
C570 C589 1.429 . S
C570 H594 0.950 . S
C571 C588 1.574 . S
C571 C590 1.368 . S
C571 H595 0.949 . S
H572 C576 0.949 . S
C573 C574 1.349 . S
C573 C575 1.327 . S
C573 H596 0.950 . S
C574 C573 1.349 . S
C574 C586 1.349 . S
C575 C573 1.327 . S
C575 C591 1.429 . S
C575 H597 0.950 . S
C576 H572 0.949 . S
C576 C584 1.574 . S
C576 C592 1.368 . S
H577 C585 0.950 . S
H578 C583 0.950 . S
H579 C584 0.949 . S
H580 C586 0.950 . S
H581 C587 0.950 . S
H582 C588 0.949 . S
C583 H578 0.950 . S
C583 C585 1.327 . S
C583 C589 1.429 . S
C584 C576 1.574 . S
C584 H579 0.949 . S
C584 C590 1.368 . S
C585 C569 1.349 . S
C585 H577 0.950 . S
C585 C583 1.327 . S
C586 C574 1.349 . S
C586 H580 0.950 . S
C586 C587 1.327 . S
C587 H581 0.950 . S
C587 C586 1.327 . S
C587 C591 1.429 . S
C588 C571 1.574 . S
C588 H582 0.949 . S
C588 C592 1.368 . S
C589 C570 1.429 . S
C589 C583 1.429 . S
C589 C590 1.523 . S
C590 C571 1.368 . S
C590 C584 1.368 . S
C590 C589 1.523 . S
C591 C575 1.429 . S
C591 C587 1.429 . S
C591 C592 1.523 . S
C592 C576 1.368 . S
C592 C588 1.368 . S
C592 C591 1.523 . S
H593 C568 0.950 . S
H594 C570 0.950 . S
H595 C571 0.949 . S
H596 C573 0.950 . S
H597 C575 0.950 . S
C598 C599 1.349 . S
C598 C600 1.327 . S
C598 H623 0.950 . S
C599 C598 1.349 . S
C599 C615 1.349 . S
C600 C598 1.327 . S
C600 C619 1.429 . S
C600 H624 0.950 . S
C601 C618 1.574 1_565 S
C601 C620 1.368 . S
C601 H625 0.949 . S
H602 C606 0.949 . S
C603 C604 1.349 . S
C603 C605 1.327 . S
C603 H626 0.950 . S
C604 C603 1.349 . S
C604 C616 1.349 . S
C605 C603 1.327 . S
C605 C621 1.429 . S
C605 H627 0.950 . S
C606 H602 0.949 . S
C606 C614 1.574 1_545 S
C606 C622 1.368 . S
H607 C615 0.950 . S
H608 C613 0.950 . S
H609 C614 0.949 . S
H610 C616 0.950 . S
H611 C617 0.950 . S
H612 C618 0.949 . S
C613 H608 0.950 . S
C613 C615 1.327 . S
C613 C619 1.429 . S
C614 C606 1.574 1_565 S
C614 H609 0.949 . S
C614 C620 1.368 . S
C615 C599 1.349 . S
C615 H607 0.950 . S
C615 C613 1.327 . S
C616 C604 1.349 . S
C616 H610 0.950 . S
C616 C617 1.327 . S
C617 H611 0.950 . S
C617 C616 1.327 . S
C617 C621 1.429 . S
C618 C601 1.574 1_545 S
C618 H612 0.949 . S
C618 C622 1.368 . S
C619 C600 1.429 . S
C619 C613 1.429 . S
C619 C620 1.523 . S
C620 C601 1.368 . S
C620 C614 1.368 . S
C620 C619 1.523 . S
C621 C605 1.429 . S
C621 C617 1.429 . S
C621 C622 1.523 . S
C622 C606 1.368 . S
C622 C618 1.368 . S
C622 C621 1.523 . S
H623 C598 0.950 . S
H624 C600 0.950 . S
H625 C601 0.949 . S
H626 C603 0.950 . S
H627 C605 0.950 . S
C628 C629 1.349 . S
C628 C630 1.327 . S
C628 H653 0.950 . S
C629 C628 1.349 . S
C629 C645 1.349 . S
C630 C628 1.327 . S
C630 C649 1.429 . S
C630 H654 0.950 . S
C631 C648 1.574 . S
C631 C650 1.368 . S
C631 H655 0.949 . S
H632 C636 0.949 . S
C633 C634 1.349 . S
C633 C635 1.327 . S
C633 H656 0.950 . S
C634 C633 1.349 . S
C634 C646 1.349 . S
C635 C633 1.327 . S
C635 C651 1.429 . S
C635 H657 0.950 . S
C636 H632 0.949 . S
C636 C644 1.574 . S
C636 C652 1.368 . S
H637 C645 0.950 . S
H638 C643 0.950 . S
H639 C644 0.949 . S
H640 C646 0.950 . S
H641 C647 0.950 . S
H642 C648 0.949 . S
C643 H638 0.950 . S
C643 C645 1.327 . S
C643 C649 1.429 . S
C644 C636 1.574 . S
C644 H639 0.949 . S
C644 C650 1.368 . S
C645 C629 1.349 . S
C645 H637 0.950 . S
C645 C643 1.327 . S
C646 C634 1.349 . S
C646 H640 0.950 . S
C646 C647 1.327 . S
C647 H641 0.950 . S
C647 C646 1.327 . S
C647 C651 1.429 . S
C648 C631 1.574 . S
C648 H642 0.949 . S
C648 C652 1.368 . S
C649 C630 1.429 . S
C649 C643 1.429 . S
C649 C650 1.523 . S
C650 C631 1.368 . S
C650 C644 1.368 . S
C650 C649 1.523 . S
C651 C635 1.429 . S
C651 C647 1.429 . S
C651 C652 1.523 . S
C652 C636 1.368 . S
C652 C648 1.368 . S
C652 C651 1.523 . S
H653 C628 0.950 . S
H654 C630 0.950 . S
H655 C631 0.949 . S
H656 C633 0.950 . S
H657 C635 0.950 . S
C658 C659 1.349 . S
C658 C660 1.327 . S
C658 H683 0.950 . S
C659 C658 1.349 . S
C659 C675 1.349 . S
C660 C658 1.327 . S
C660 C679 1.429 . S
C660 H684 0.950 . S
C661 C678 1.574 1_545 S
C661 C680 1.368 1_554 S
C661 H685 0.949 . S
H662 C666 0.949 . S
C663 C664 1.349 . S
C663 C665 1.327 . S
C663 H686 0.950 . S
C664 C663 1.349 . S
C664 C676 1.349 . S
C665 C663 1.327 . S
C665 C681 1.429 . S
C665 H687 0.950 . S
C666 H662 0.949 . S
C666 C674 1.574 1_565 S
C666 C682 1.368 1_556 S
H667 C675 0.950 . S
H668 C673 0.950 1_554 S
H669 C674 0.949 . S
H670 C676 0.950 . S
H671 C677 0.950 1_556 S
H672 C678 0.949 . S
C673 H668 0.950 1_556 S
C673 C675 1.327 . S
C673 C679 1.429 . S
C674 C666 1.574 1_545 S
C674 H669 0.949 . S
C674 C680 1.368 . S
C675 C659 1.349 . S
C675 H667 0.950 . S
C675 C673 1.327 . S
C676 C664 1.349 . S
C676 H670 0.950 . S
C676 C677 1.327 . S
C677 H671 0.950 1_554 S
C677 C676 1.327 . S
C677 C681 1.429 . S
C678 C661 1.574 1_565 S
C678 H672 0.949 . S
C678 C682 1.368 . S
C679 C660 1.429 . S
C679 C673 1.429 . S
C679 C680 1.523 . S
C680 C661 1.368 1_556 S
C680 C674 1.368 . S
C680 C679 1.523 . S
C681 C665 1.429 . S
C681 C677 1.429 . S
C681 C682 1.523 . S
C682 C666 1.368 1_554 S
C682 C678 1.368 . S
C682 C681 1.523 . S
H683 C658 0.950 . S
H684 C660 0.950 . S
H685 C661 0.949 . S
H686 C663 0.950 . S
H687 C665 0.950 . S
C688 C689 1.349 . S
C688 C690 1.327 . S
C688 H713 0.950 . S
C689 C688 1.349 . S
C689 C705 1.349 . S
C690 C688 1.327 . S
C690 C709 1.429 . S
C690 H714 0.950 . S
C691 C708 1.574 . S
C691 C710 1.368 . S
C691 H715 0.949 . S
H692 C696 0.949 . S
C693 C694 1.349 . S
C693 C695 1.327 . S
C693 H716 0.950 . S
C694 C693 1.349 . S
C694 C706 1.349 . S
C695 C693 1.327 . S
C695 C711 1.429 . S
C695 H717 0.950 . S
C696 H692 0.949 . S
C696 C704 1.574 . S
C696 C712 1.368 . S
H697 C705 0.950 . S
H698 C703 0.950 . S
H699 C704 0.949 . S
H700 C706 0.950 . S
H701 C707 0.950 . S
H702 C708 0.949 . S
C703 H698 0.950 . S
C703 C705 1.327 . S
C703 C709 1.429 . S
C704 C696 1.574 . S
C704 H699 0.949 . S
C704 C710 1.368 . S
C705 C689 1.349 . S
C705 H697 0.950 . S
C705 C703 1.327 . S
C706 C694 1.349 . S
C706 H700 0.950 . S
C706 C707 1.327 . S
C707 H701 0.950 . S
C707 C706 1.327 . S
C707 C711 1.429 . S
C708 C691 1.574 . S
C708 H702 0.949 . S
C708 C712 1.368 . S
C709 C690 1.429 . S
C709 C703 1.429 . S
C709 C710 1.523 . S
C710 C691 1.368 . S
C710 C704 1.368 . S
C710 C709 1.523 . S
C711 C695 1.429 . S
C711 C707 1.429 . S
C711 C712 1.523 . S
C712 C696 1.368 . S
C712 C708 1.368 . S
C712 C711 1.523 . S
H713 C688 0.950 . S
H714 C690 0.950 . S
H715 C691 0.949 . S
H716 C693 0.950 . S
H717 C695 0.950 . S
C718 C719 1.349 . S
C718 C720 1.327 . S
C718 H743 0.950 . S
C719 C718 1.349 . S
C719 C735 1.349 . S
C720 C718 1.327 . S
C720 C739 1.429 . S
C720 H744 0.950 . S
C721 C738 1.574 . S
C721 C740 1.368 1_554 S
C721 H745 0.949 . S
H722 C726 0.949 . S
C723 C724 1.349 . S
C723 C725 1.327 . S
C723 H746 0.950 . S
C724 C723 1.349 . S
C724 C736 1.349 . S
C725 C723 1.327 . S
C725 C741 1.429 . S
C725 H747 0.950 . S
C726 H722 0.949 . S
C726 C734 1.574 . S
C726 C742 1.368 1_556 S
H727 C735 0.950 . S
H728 C733 0.950 1_554 S
H729 C734 0.949 . S
H730 C736 0.950 . S
H731 C737 0.950 1_556 S
H732 C738 0.949 . S
C733 H728 0.950 1_556 S
C733 C735 1.327 . S
C733 C739 1.429 . S
C734 C726 1.574 . S
C734 H729 0.949 . S
C734 C740 1.368 . S
C735 C719 1.349 . S
C735 H727 0.950 . S
C735 C733 1.327 . S
C736 C724 1.349 . S
C736 H730 0.950 . S
C736 C737 1.327 . S
C737 H731 0.950 1_554 S
C737 C736 1.327 . S
C737 C741 1.429 . S
C738 C721 1.574 . S
C738 H732 0.949 . S
C738 C742 1.368 . S
C739 C720 1.429 . S
C739 C733 1.429 . S
C739 C740 1.523 . S
C740 C721 1.368 1_556 S
C740 C734 1.368 . S
C740 C739 1.523 . S
C741 C725 1.429 . S
C741 C737 1.429 . S
C741 C742 1.523 . S
C742 C726 1.368 1_554 S
C742 C738 1.368 . S
C742 C741 1.523 . S
H743 C718 0.950 . S
H744 C720 0.950 . S
H745 C721 0.949 . S
H746 C723 0.950 . S
H747 C725 0.950 . S
C748 C749 1.349 . S
C748 C750 1.327 . S
C748 H773 0.950 . S
C749 C748 1.349 . S
C749 C765 1.349 . S
C750 C748 1.327 . S
C750 C769 1.429 . S
C750 H774 0.950 . S
C751 C768 1.574 . S
C751 C770 1.368 . S
C751 H775 0.949 . S
H752 C756 0.949 . S
C753 C754 1.349 . S
C753 C755 1.327 . S
C753 H776 0.950 . S
C754 C753 1.349 . S
C754 C766 1.349 . S
C755 C753 1.327 . S
C755 C771 1.429 . S
C755 H777 0.950 . S
C756 H752 0.949 . S
C756 C764 1.574 . S
C756 C772 1.368 . S
H757 C765 0.950 . S
H758 C763 0.950 . S
H759 C764 0.949 . S
H760 C766 0.950 . S
H761 C767 0.950 . S
H762 C768 0.949 . S
C763 H758 0.950 . S
C763 C765 1.327 . S
C763 C769 1.429 . S
C764 C756 1.574 . S
C764 H759 0.949 . S
C764 C770 1.368 . S
C765 C749 1.349 . S
C765 H757 0.950 . S
C765 C763 1.327 . S
C766 C754 1.349 . S
C766 H760 0.950 . S
C766 C767 1.327 . S
C767 H761 0.950 . S
C767 C766 1.327 . S
C767 C771 1.429 . S
C768 C751 1.574 . S
C768 H762 0.949 . S
C768 C772 1.368 . S
C769 C750 1.429 . S
C769 C763 1.429 . S
C769 C770 1.523 . S
C770 C751 1.368 . S
C770 C764 1.368 . S
C770 C769 1.523 . S
C771 C755 1.429 . S
C771 C767 1.429 . S
C771 C772 1.523 . S
C772 C756 1.368 . S
C772 C768 1.368 . S
C772 C771 1.523 . S
H773 C748 0.950 . S
H774 C750 0.950 . S
H775 C751 0.949 . S
H776 C753 0.950 . S
H777 C755 0.950 . S
C778 C779 1.349 . S
C778 C780 1.327 . S
C778 H803 0.950 . S
C779 C778 1.349 . S
C779 C795 1.349 . S
C780 C778 1.327 . S
C780 C799 1.429 . S
C780 H804 0.950 . S
C781 C798 1.574 . S
C781 C800 1.368 . S
C781 H805 0.949 . S
H782 C786 0.949 . S
C783 C784 1.349 . S
C783 C785 1.327 . S
C783 H806 0.950 . S
C784 C783 1.349 . S
C784 C796 1.349 . S
C785 C783 1.327 . S
C785 C801 1.429 . S
C785 H807 0.950 . S
C786 H782 0.949 . S
C786 C794 1.574 . S
C786 C802 1.368 . S
H787 C795 0.950 . S
H788 C793 0.950 . S
H789 C794 0.949 . S
H790 C796 0.950 . S
H791 C797 0.950 . S
H792 C798 0.949 . S
C793 H788 0.950 . S
C793 C795 1.327 . S
C793 C799 1.429 . S
C794 C786 1.574 . S
C794 H789 0.949 . S
C794 C800 1.368 . S
C795 C779 1.349 . S
C795 H787 0.950 . S
C795 C793 1.327 . S
C796 C784 1.349 . S
C796 H790 0.950 . S
C796 C797 1.327 . S
C797 H791 0.950 . S
C797 C796 1.327 . S
C797 C801 1.429 . S
C798 C781 1.574 . S
C798 H792 0.949 . S
C798 C802 1.368 . S
C799 C780 1.429 . S
C799 C793 1.429 . S
C799 C800 1.523 . S
C800 C781 1.368 . S
C800 C794 1.368 . S
C800 C799 1.523 . S
C801 C785 1.429 . S
C801 C797 1.429 . S
C801 C802 1.523 . S
C802 C786 1.368 . S
C802 C798 1.368 . S
C802 C801 1.523 . S
H803 C778 0.950 . S
H804 C780 0.950 . S
H805 C781 0.949 . S
H806 C783 0.950 . S
H807 C785 0.950 . S
C808 C809 1.349 . S
C808 C810 1.327 . S
C808 H833 0.950 . S
C809 C808 1.349 . S
C809 C825 1.349 . S
C810 C808 1.327 . S
C810 C829 1.429 . S
C810 H834 0.950 . S
C811 C828 1.574 . S
C811 C830 1.368 . S
C811 H835 0.949 . S
H812 C816 0.949 . S
C813 C814 1.349 . S
C813 C815 1.327 . S
C813 H836 0.950 . S
C814 C813 1.349 . S
C814 C826 1.349 . S
C815 C813 1.327 . S
C815 C831 1.429 . S
C815 H837 0.950 . S
C816 H812 0.949 . S
C816 C824 1.574 . S
C816 C832 1.368 . S
H817 C825 0.950 . S
H818 C823 0.950 . S
H819 C824 0.949 . S
H820 C826 0.950 . S
H821 C827 0.950 . S
H822 C828 0.949 . S
C823 H818 0.950 . S
C823 C825 1.327 . S
C823 C829 1.429 . S
C824 C816 1.574 . S
C824 H819 0.949 . S
C824 C830 1.368 . S
C825 C809 1.349 . S
C825 H817 0.950 . S
C825 C823 1.327 . S
C826 C814 1.349 . S
C826 H820 0.950 . S
C826 C827 1.327 . S
C827 H821 0.950 . S
C827 C826 1.327 . S
C827 C831 1.429 . S
C828 C811 1.574 . S
C828 H822 0.949 . S
C828 C832 1.368 . S
C829 C810 1.429 . S
C829 C823 1.429 . S
C829 C830 1.523 . S
C830 C811 1.368 . S
C830 C824 1.368 . S
C830 C829 1.523 . S
C831 C815 1.429 . S
C831 C827 1.429 . S
C831 C832 1.523 . S
C832 C816 1.368 . S
C832 C828 1.368 . S
C832 C831 1.523 . S
H833 C808 0.950 . S
H834 C810 0.950 . S
H835 C811 0.949 . S
H836 C813 0.950 . S
H837 C815 0.950 . S
C838 C839 1.349 . S
C838 C840 1.327 . S
C838 H863 0.950 . S
C839 C838 1.349 . S
C839 C855 1.349 . S
C840 C838 1.327 . S
C840 C859 1.429 . S
C840 H864 0.950 1_554 S
C841 C858 1.574 . S
C841 C860 1.368 . S
C841 H865 0.949 . S
H842 C846 0.949 . S
C843 C844 1.349 . S
C843 C845 1.327 . S
C843 H866 0.950 . S
C844 C843 1.349 . S
C844 C856 1.349 . S
C845 C843 1.327 . S
C845 C861 1.429 . S
C845 H867 0.950 1_556 S
C846 H842 0.949 . S
C846 C854 1.574 . S
C846 C862 1.368 . S
H847 C855 0.950 . S
H848 C853 0.950 . S
H849 C854 0.949 . S
H850 C856 0.950 . S
H851 C857 0.950 . S
H852 C858 0.949 . S
C853 H848 0.950 . S
C853 C855 1.327 . S
C853 C859 1.429 . S
C854 C846 1.574 . S
C854 H849 0.949 . S
C854 C860 1.368 1_556 S
C855 C839 1.349 . S
C855 H847 0.950 . S
C855 C853 1.327 . S
C856 C844 1.349 . S
C856 H850 0.950 . S
C856 C857 1.327 . S
C857 H851 0.950 . S
C857 C856 1.327 . S
C857 C861 1.429 . S
C858 C841 1.574 . S
C858 H852 0.949 . S
C858 C862 1.368 1_554 S
C859 C840 1.429 . S
C859 C853 1.429 . S
C859 C860 1.523 . S
C860 C841 1.368 . S
C860 C854 1.368 1_554 S
C860 C859 1.523 . S
C861 C845 1.429 . S
C861 C857 1.429 . S
C861 C862 1.523 . S
C862 C846 1.368 . S
C862 C858 1.368 1_556 S
C862 C861 1.523 . S
H863 C838 0.950 . S
H864 C840 0.950 1_556 S
H865 C841 0.949 . S
H866 C843 0.950 . S
H867 C845 0.950 1_554 S
C868 C869 1.349 . S
C868 C870 1.327 . S
C868 H893 0.950 . S
C869 C868 1.349 . S
C869 C885 1.349 . S
C870 C868 1.327 . S
C870 C889 1.429 . S
C870 H894 0.950 . S
C871 C888 1.574 . S
C871 C890 1.368 . S
C871 H895 0.949 . S
H872 C876 0.949 . S
C873 C874 1.349 . S
C873 C875 1.327 . S
C873 H896 0.950 . S
C874 C873 1.349 . S
C874 C886 1.349 . S
C875 C873 1.327 . S
C875 C891 1.429 . S
C875 H897 0.950 . S
C876 H872 0.949 . S
C876 C884 1.574 . S
C876 C892 1.368 . S
H877 C885 0.950 . S
H878 C883 0.950 . S
H879 C884 0.949 . S
H880 C886 0.950 . S
H881 C887 0.950 . S
H882 C888 0.949 . S
C883 H878 0.950 . S
C883 C885 1.327 . S
C883 C889 1.429 . S
C884 C876 1.574 . S
C884 H879 0.949 . S
C884 C890 1.368 . S
C885 C869 1.349 . S
C885 H877 0.950 . S
C885 C883 1.327 . S
C886 C874 1.349 . S
C886 H880 0.950 . S
C886 C887 1.327 . S
C887 H881 0.950 . S
C887 C886 1.327 . S
C887 C891 1.429 . S
C888 C871 1.574 . S
C888 H882 0.949 . S
C888 C892 1.368 . S
C889 C870 1.429 . S
C889 C883 1.429 . S
C889 C890 1.523 . S
C890 C871 1.368 . S
C890 C884 1.368 . S
C890 C889 1.523 . S
C891 C875 1.429 . S
C891 C887 1.429 . S
C891 C892 1.523 . S
C892 C876 1.368 . S
C892 C888 1.368 . S
C892 C891 1.523 . S
H893 C868 0.950 . S
H894 C870 0.950 . S
H895 C871 0.949 . S
H896 C873 0.950 . S
H897 C875 0.950 . S
C898 C899 1.349 . S
C898 C900 1.327 . S
C898 H923 0.950 . S
C899 C898 1.349 . S
C899 C915 1.349 . S
C900 C898 1.327 . S
C900 C919 1.429 . S
C900 H924 0.950 . S
C901 C918 1.574 . S
C901 C920 1.368 . S
C901 H925 0.949 . S
H902 C906 0.949 . S
C903 C904 1.349 . S
C903 C905 1.327 . S
C903 H926 0.950 . S
C904 C903 1.349 . S
C904 C916 1.349 . S
C905 C903 1.327 . S
C905 C921 1.429 . S
C905 H927 0.950 . S
C906 H902 0.949 . S
C906 C914 1.574 . S
C906 C922 1.368 . S
H907 C915 0.950 . S
H908 C913 0.950 . S
H909 C914 0.949 . S
H910 C916 0.950 . S
H911 C917 0.950 . S
H912 C918 0.949 . S
C913 H908 0.950 . S
C913 C915 1.327 . S
C913 C919 1.429 . S
C914 C906 1.574 . S
C914 H909 0.949 . S
C914 C920 1.368 . S
C915 C899 1.349 . S
C915 H907 0.950 . S
C915 C913 1.327 . S
C916 C904 1.349 . S
C916 H910 0.950 . S
C916 C917 1.327 . S
C917 H911 0.950 . S
C917 C916 1.327 . S
C917 C921 1.429 . S
C918 C901 1.574 . S
C918 H912 0.949 . S
C918 C922 1.368 . S
C919 C900 1.429 . S
C919 C913 1.429 . S
C919 C920 1.523 . S
C920 C901 1.368 . S
C920 C914 1.368 . S
C920 C919 1.523 . S
C921 C905 1.429 . S
C921 C917 1.429 . S
C921 C922 1.523 . S
C922 C906 1.368 . S
C922 C918 1.368 . S
C922 C921 1.523 . S
H923 C898 0.950 . S
H924 C900 0.950 . S
H925 C901 0.949 . S
H926 C903 0.950 . S
H927 C905 0.950 . S
C928 C929 1.349 . S
C928 C930 1.327 1_554 S
C928 H953 0.950 . S
C929 C928 1.349 . S
C929 C945 1.349 1_554 S
C930 C928 1.327 1_556 S
C930 C949 1.429 . S
C930 H954 0.950 . S
C931 C948 1.574 . S
C931 C950 1.368 . S
C931 H955 0.949 . S
H932 C936 0.949 . S
C933 C934 1.349 . S
C933 C935 1.327 . S
C933 H956 0.950 . S
C934 C933 1.349 . S
C934 C946 1.349 . S
C935 C933 1.327 . S
C935 C951 1.429 . S
C935 H957 0.950 . S
C936 H932 0.949 . S
C936 C944 1.574 . S
C936 C952 1.368 . S
H937 C945 0.950 . S
H938 C943 0.950 . S
H939 C944 0.949 . S
H940 C946 0.950 . S
H941 C947 0.950 . S
H942 C948 0.949 . S
C943 H938 0.950 . S
C943 C945 1.327 . S
C943 C949 1.429 . S
C944 C936 1.574 . S
C944 H939 0.949 . S
C944 C950 1.368 . S
C945 C929 1.349 1_556 S
C945 H937 0.950 . S
C945 C943 1.327 . S
C946 C934 1.349 . S
C946 H940 0.950 . S
C946 C947 1.327 . S
C947 H941 0.950 . S
C947 C946 1.327 . S
C947 C951 1.429 . S
C948 C931 1.574 . S
C948 H942 0.949 . S
C948 C952 1.368 . S
C949 C930 1.429 . S
C949 C943 1.429 . S
C949 C950 1.523 . S
C950 C931 1.368 . S
C950 C944 1.368 . S
C950 C949 1.523 . S
C951 C935 1.429 . S
C951 C947 1.429 . S
C951 C952 1.523 . S
C952 C936 1.368 . S
C952 C948 1.368 . S
C952 C951 1.523 . S
H953 C928 0.950 . S
H954 C930 0.950 . S
H955 C931 0.949 . S
H956 C933 0.950 . S
H957 C935 0.950 . S
C958 C959 1.349 . S
C958 C960 1.327 1_556 S
C958 H983 0.950 . S
C959 C958 1.349 . S
C959 C975 1.349 1_556 S
C960 C958 1.327 1_554 S
C960 C979 1.429 . S
C960 H984 0.950 . S
C961 C978 1.574 . S
C961 C980 1.368 . S
C961 H985 0.949 . S
H962 C966 0.949 . S
C963 C964 1.349 . S
C963 C965 1.327 . S
C963 H986 0.950 . S
C964 C963 1.349 . S
C964 C976 1.349 . S
C965 C963 1.327 . S
C965 C981 1.429 . S
C965 H987 0.950 . S
C966 H962 0.949 . S
C966 C974 1.574 . S
C966 C982 1.368 . S
H967 C975 0.950 . S
H968 C973 0.950 . S
H969 C974 0.949 . S
H970 C976 0.950 . S
H971 C977 0.950 . S
H972 C978 0.949 . S
C973 H968 0.950 . S
C973 C975 1.327 . S
C973 C979 1.429 . S
C974 C966 1.574 . S
C974 H969 0.949 . S
C974 C980 1.368 . S
C975 C959 1.349 1_554 S
C975 H967 0.950 . S
C975 C973 1.327 . S
C976 C964 1.349 . S
C976 H970 0.950 . S
C976 C977 1.327 . S
C977 H971 0.950 . S
C977 C976 1.327 . S
C977 C981 1.429 . S
C978 C961 1.574 . S
C978 H972 0.949 . S
C978 C982 1.368 . S
C979 C960 1.429 . S
C979 C973 1.429 . S
C979 C980 1.523 . S
C980 C961 1.368 . S
C980 C974 1.368 . S
C980 C979 1.523 . S
C981 C965 1.429 . S
C981 C977 1.429 . S
C981 C982 1.523 . S
C982 C966 1.368 . S
C982 C978 1.368 . S
C982 C981 1.523 . S
H983 C958 0.950 . S
H984 C960 0.950 . S
H985 C961 0.949 . S
H986 C963 0.950 . S
H987 C965 0.950 . S
C988 C989 1.349 . S
C988 C990 1.327 . S
C988 H1013 0.950 . S
C989 C988 1.349 . S
C989 C1005 1.349 . S
C990 C988 1.327 . S
C990 C1009 1.429 . S
C990 H1014 0.950 . S
C991 C1008 1.574 . S
C991 C1010 1.368 . S
C991 H1015 0.949 . S
H992 C996 0.949 . S
C993 C994 1.349 . S
C993 C995 1.327 . S
C993 H1016 0.950 . S
C994 C993 1.349 . S
C994 C1006 1.349 . S
C995 C993 1.327 . S
C995 C1011 1.429 . S
C995 H1017 0.950 . S
C996 H992 0.949 . S
C996 C1004 1.574 . S
C996 C1012 1.368 . S
H997 C1005 0.950 . S
H998 C1003 0.950 . S
H999 C1004 0.949 . S
H1000 C1006 0.950 . S
H1001 C1007 0.950 . S
H1002 C1008 0.949 . S
C1003 H998 0.950 . S
C1003 C1005 1.327 . S
C1003 C1009 1.429 . S
C1004 C996 1.574 . S
C1004 H999 0.949 . S
C1004 C1010 1.368 . S
C1005 C989 1.349 . S
C1005 H997 0.950 . S
C1005 C1003 1.327 . S
C1006 C994 1.349 . S
C1006 H1000 0.950 . S
C1006 C1007 1.327 . S
C1007 H1001 0.950 . S
C1007 C1006 1.327 . S
C1007 C1011 1.429 . S
C1008 C991 1.574 . S
C1008 H1002 0.949 . S
C1008 C1012 1.368 . S
C1009 C990 1.429 . S
C1009 C1003 1.429 . S
C1009 C1010 1.523 . S
C1010 C991 1.368 . S
C1010 C1004 1.368 . S
C1010 C1009 1.523 . S
C1011 C995 1.429 . S
C1011 C1007 1.429 . S
C1011 C1012 1.523 . S
C1012 C996 1.368 . S
C1012 C1008 1.368 . S
C1012 C1011 1.523 . S
H1013 C988 0.950 . S
H1014 C990 0.950 . S
H1015 C991 0.949 . S
H1016 C993 0.950 . S
H1017 C995 0.950 . S
C1018 C1019 1.349 . S
C1018 C1020 1.327 . S
C1018 H1043 0.950 . S
C1019 C1018 1.349 . S
C1019 C1035 1.349 . S
C1020 C1018 1.327 . S
C1020 C1039 1.429 . S
C1020 H1044 0.950 . S
C1021 C1038 1.574 . S
C1021 C1040 1.368 . S
C1021 H1045 0.949 . S
H1022 C1026 0.949 . S
C1023 C1024 1.349 . S
C1023 C1025 1.327 . S
C1023 H1046 0.950 . S
C1024 C1023 1.349 . S
C1024 C1036 1.349 . S
C1025 C1023 1.327 . S
C1025 C1041 1.429 . S
C1025 H1047 0.950 . S
C1026 H1022 0.949 . S
C1026 C1034 1.574 . S
C1026 C1042 1.368 . S
H1027 C1035 0.950 . S
H1028 C1033 0.950 . S
H1029 C1034 0.949 . S
H1030 C1036 0.950 . S
H1031 C1037 0.950 . S
H1032 C1038 0.949 . S
C1033 H1028 0.950 . S
C1033 C1035 1.327 . S
C1033 C1039 1.429 . S
C1034 C1026 1.574 . S
C1034 H1029 0.949 . S
C1034 C1040 1.368 . S
C1035 C1019 1.349 . S
C1035 H1027 0.950 . S
C1035 C1033 1.327 . S
C1036 C1024 1.349 . S
C1036 H1030 0.950 . S
C1036 C1037 1.327 . S
C1037 H1031 0.950 . S
C1037 C1036 1.327 . S
C1037 C1041 1.429 . S
C1038 C1021 1.574 . S
C1038 H1032 0.949 . S
C1038 C1042 1.368 . S
C1039 C1020 1.429 . S
C1039 C1033 1.429 . S
C1039 C1040 1.523 . S
C1040 C1021 1.368 . S
C1040 C1034 1.368 . S
C1040 C1039 1.523 . S
C1041 C1025 1.429 . S
C1041 C1037 1.429 . S
C1041 C1042 1.523 . S
C1042 C1026 1.368 . S
C1042 C1038 1.368 . S
C1042 C1041 1.523 . S
H1043 C1018 0.950 . S
H1044 C1020 0.950 . S
H1045 C1021 0.949 . S
H1046 C1023 0.950 . S
H1047 C1025 0.950 . S
C1048 C1049 1.349 1_554 S
C1048 C1050 1.327 . S
C1048 H1073 0.950 . S
C1049 C1048 1.349 1_556 S
C1049 C1065 1.349 . S
C1050 C1048 1.327 . S
C1050 C1069 1.429 . S
C1050 H1074 0.950 . S
C1051 C1068 1.574 . S
C1051 C1070 1.368 . S
C1051 H1075 0.949 . S
H1052 C1056 0.949 . S
C1053 C1054 1.349 . S
C1053 C1055 1.327 . S
C1053 H1076 0.950 . S
C1054 C1053 1.349 . S
C1054 C1066 1.349 . S
C1055 C1053 1.327 . S
C1055 C1071 1.429 . S
C1055 H1077 0.950 . S
C1056 H1052 0.949 . S
C1056 C1064 1.574 . S
C1056 C1072 1.368 . S
H1057 C1065 0.950 . S
H1058 C1063 0.950 . S
H1059 C1064 0.949 . S
H1060 C1066 0.950 . S
H1061 C1067 0.950 . S
H1062 C1068 0.949 . S
C1063 H1058 0.950 . S
C1063 C1065 1.327 1_554 S
C1063 C1069 1.429 . S
C1064 C1056 1.574 . S
C1064 H1059 0.949 . S
C1064 C1070 1.368 . S
C1065 C1049 1.349 . S
C1065 H1057 0.950 . S
C1065 C1063 1.327 1_556 S
C1066 C1054 1.349 . S
C1066 H1060 0.950 . S
C1066 C1067 1.327 . S
C1067 H1061 0.950 . S
C1067 C1066 1.327 . S
C1067 C1071 1.429 . S
C1068 C1051 1.574 . S
C1068 H1062 0.949 . S
C1068 C1072 1.368 . S
C1069 C1050 1.429 . S
C1069 C1063 1.429 . S
C1069 C1070 1.523 . S
C1070 C1051 1.368 . S
C1070 C1064 1.368 . S
C1070 C1069 1.523 . S
C1071 C1055 1.429 . S
C1071 C1067 1.429 . S
C1071 C1072 1.523 . S
C1072 C1056 1.368 . S
C1072 C1068 1.368 . S
C1072 C1071 1.523 . S
H1073 C1048 0.950 . S
H1074 C1050 0.950 . S
H1075 C1051 0.949 . S
H1076 C1053 0.950 . S
H1077 C1055 0.950 . S
C1078 C1079 1.349 1_556 S
C1078 C1080 1.327 . S
C1078 H1103 0.950 . S
C1079 C1078 1.349 1_554 S
C1079 C1095 1.349 . S
C1080 C1078 1.327 . S
C1080 C1099 1.429 . S
C1080 H1104 0.950 . S
C1081 C1098 1.574 . S
C1081 C1100 1.368 . S
C1081 H1105 0.949 . S
H1082 C1086 0.949 . S
C1083 C1084 1.349 . S
C1083 C1085 1.327 . S
C1083 H1106 0.950 . S
C1084 C1083 1.349 . S
C1084 C1096 1.349 . S
C1085 C1083 1.327 . S
C1085 C1101 1.429 . S
C1085 H1107 0.950 . S
C1086 H1082 0.949 . S
C1086 C1094 1.574 . S
C1086 C1102 1.368 . S
H1087 C1095 0.950 . S
H1088 C1093 0.950 . S
H1089 C1094 0.949 . S
H1090 C1096 0.950 . S
H1091 C1097 0.950 . S
H1092 C1098 0.949 . S
C1093 H1088 0.950 . S
C1093 C1095 1.327 1_556 S
C1093 C1099 1.429 . S
C1094 C1086 1.574 . S
C1094 H1089 0.949 . S
C1094 C1100 1.368 . S
C1095 C1079 1.349 . S
C1095 H1087 0.950 . S
C1095 C1093 1.327 1_554 S
C1096 C1084 1.349 . S
C1096 H1090 0.950 . S
C1096 C1097 1.327 . S
C1097 H1091 0.950 . S
C1097 C1096 1.327 . S
C1097 C1101 1.429 . S
C1098 C1081 1.574 . S
C1098 H1092 0.949 . S
C1098 C1102 1.368 . S
C1099 C1080 1.429 . S
C1099 C1093 1.429 . S
C1099 C1100 1.523 . S
C1100 C1081 1.368 . S
C1100 C1094 1.368 . S
C1100 C1099 1.523 . S
C1101 C1085 1.429 . S
C1101 C1097 1.429 . S
C1101 C1102 1.523 . S
C1102 C1086 1.368 . S
C1102 C1098 1.368 . S
C1102 C1101 1.523 . S
H1103 C1078 0.950 . S
H1104 C1080 0.950 . S
H1105 C1081 0.949 . S
H1106 C1083 0.950 . S
H1107 C1085 0.950 . S
C1108 C1109 1.349 . S
C1108 C1110 1.327 . S
C1108 H1133 0.950 . S
C1109 C1108 1.349 . S
C1109 C1125 1.349 . S
C1110 C1108 1.327 . S
C1110 C1129 1.429 . S
C1110 H1134 0.950 . S
C1111 C1128 1.574 . S
C1111 C1130 1.368 . S
C1111 H1135 0.949 . S
H1112 C1116 0.949 . S
C1113 C1114 1.349 . S
C1113 C1115 1.327 . S
C1113 H1136 0.950 . S
C1114 C1113 1.349 . S
C1114 C1126 1.349 . S
C1115 C1113 1.327 . S
C1115 C1131 1.429 . S
C1115 H1137 0.950 . S
C1116 H1112 0.949 . S
C1116 C1124 1.574 . S
C1116 C1132 1.368 . S
H1117 C1125 0.950 . S
H1118 C1123 0.950 . S
H1119 C1124 0.949 . S
H1120 C1126 0.950 . S
H1121 C1127 0.950 . S
H1122 C1128 0.949 . S
C1123 H1118 0.950 . S
C1123 C1125 1.327 . S
C1123 C1129 1.429 . S
C1124 C1116 1.574 . S
C1124 H1119 0.949 . S
C1124 C1130 1.368 . S
C1125 C1109 1.349 . S
C1125 H1117 0.950 . S
C1125 C1123 1.327 . S
C1126 C1114 1.349 . S
C1126 H1120 0.950 . S
C1126 C1127 1.327 . S
C1127 H1121 0.950 . S
C1127 C1126 1.327 . S
C1127 C1131 1.429 . S
C1128 C1111 1.574 . S
C1128 H1122 0.949 . S
C1128 C1132 1.368 . S
C1129 C1110 1.429 . S
C1129 C1123 1.429 . S
C1129 C1130 1.523 . S
C1130 C1111 1.368 . S
C1130 C1124 1.368 . S
C1130 C1129 1.523 . S
C1131 C1115 1.429 . S
C1131 C1127 1.429 . S
C1131 C1132 1.523 . S
C1132 C1116 1.368 . S
C1132 C1128 1.368 . S
C1132 C1131 1.523 . S
H1133 C1108 0.950 . S
H1134 C1110 0.950 . S
H1135 C1111 0.949 . S
H1136 C1113 0.950 . S
H1137 C1115 0.950 . S
C1138 C1139 1.349 . S
C1138 C1140 1.327 . S
C1138 H1163 0.950 . S
C1139 C1138 1.349 . S
C1139 C1155 1.349 . S
C1140 C1138 1.327 . S
C1140 C1159 1.429 . S
C1140 H1164 0.950 . S
C1141 C1158 1.574 . S
C1141 C1160 1.368 . S
C1141 H1165 0.949 . S
H1142 C1146 0.949 . S
C1143 C1144 1.349 . S
C1143 C1145 1.327 . S
C1143 H1166 0.950 . S
C1144 C1143 1.349 . S
C1144 C1156 1.349 . S
C1145 C1143 1.327 . S
C1145 C1161 1.429 . S
C1145 H1167 0.950 . S
C1146 H1142 0.949 . S
C1146 C1154 1.574 . S
C1146 C1162 1.368 . S
H1147 C1155 0.950 . S
H1148 C1153 0.950 . S
H1149 C1154 0.949 . S
H1150 C1156 0.950 . S
H1151 C1157 0.950 . S
H1152 C1158 0.949 . S
C1153 H1148 0.950 . S
C1153 C1155 1.327 . S
C1153 C1159 1.429 . S
C1154 C1146 1.574 . S
C1154 H1149 0.949 . S
C1154 C1160 1.368 . S
C1155 C1139 1.349 . S
C1155 H1147 0.950 . S
C1155 C1153 1.327 . S
C1156 C1144 1.349 . S
C1156 H1150 0.950 . S
C1156 C1157 1.327 . S
C1157 H1151 0.950 . S
C1157 C1156 1.327 . S
C1157 C1161 1.429 . S
C1158 C1141 1.574 . S
C1158 H1152 0.949 . S
C1158 C1162 1.368 . S
C1159 C1140 1.429 . S
C1159 C1153 1.429 . S
C1159 C1160 1.523 . S
C1160 C1141 1.368 . S
C1160 C1154 1.368 . S
C1160 C1159 1.523 . S
C1161 C1145 1.429 . S
C1161 C1157 1.429 . S
C1161 C1162 1.523 . S
C1162 C1146 1.368 . S
C1162 C1158 1.368 . S
C1162 C1161 1.523 . S
H1163 C1138 0.950 . S
H1164 C1140 0.950 . S
H1165 C1141 0.949 . S
H1166 C1143 0.950 . S
H1167 C1145 0.950 . S
C1168 C1169 1.349 . S
C1168 C1170 1.327 . S
C1168 H1193 0.950 . S
C1169 C1168 1.349 . S
C1169 C1185 1.349 . S
C1170 C1168 1.327 . S
C1170 C1189 1.429 . S
C1170 H1194 0.950 . S
C1171 C1188 1.574 . S
C1171 C1190 1.368 . S
C1171 H1195 0.949 . S
H1172 C1176 0.949 . S
C1173 C1174 1.349 . S
C1173 C1175 1.327 . S
C1173 H1196 0.950 . S
C1174 C1173 1.349 . S
C1174 C1186 1.349 . S
C1175 C1173 1.327 . S
C1175 C1191 1.429 . S
C1175 H1197 0.950 . S
C1176 H1172 0.949 . S
C1176 C1184 1.574 . S
C1176 C1192 1.368 . S
H1177 C1185 0.950 . S
H1178 C1183 0.950 . S
H1179 C1184 0.949 . S
H1180 C1186 0.950 . S
H1181 C1187 0.950 . S
H1182 C1188 0.949 . S
C1183 H1178 0.950 . S
C1183 C1185 1.327 . S
C1183 C1189 1.429 . S
C1184 C1176 1.574 . S
C1184 H1179 0.949 . S
C1184 C1190 1.368 . S
C1185 C1169 1.349 . S
C1185 H1177 0.950 . S
C1185 C1183 1.327 . S
C1186 C1174 1.349 . S
C1186 H1180 0.950 . S
C1186 C1187 1.327 . S
C1187 H1181 0.950 . S
C1187 C1186 1.327 . S
C1187 C1191 1.429 . S
C1188 C1171 1.574 . S
C1188 H1182 0.949 . S
C1188 C1192 1.368 . S
C1189 C1170 1.429 . S
C1189 C1183 1.429 . S
C1189 C1190 1.523 . S
C1190 C1171 1.368 . S
C1190 C1184 1.368 . S
C1190 C1189 1.523 . S
C1191 C1175 1.429 . S
C1191 C1187 1.429 . S
C1191 C1192 1.523 . S
C1192 C1176 1.368 . S
C1192 C1188 1.368 . S
C1192 C1191 1.523 . S
H1193 C1168 0.950 . S
H1194 C1170 0.950 . S
H1195 C1171 0.949 . S
H1196 C1173 0.950 . S
H1197 C1175 0.950 . S
C1198 C1199 1.349 . S
C1198 C1200 1.327 . S
C1198 H1223 0.950 . S
C1199 C1198 1.349 . S
C1199 C1215 1.349 . S
C1200 C1198 1.327 . S
C1200 C1219 1.429 . S
C1200 H1224 0.950 . S
C1201 C1218 1.574 . S
C1201 C1220 1.368 . S
C1201 H1225 0.949 . S
H1202 C1206 0.949 . S
C1203 C1204 1.349 . S
C1203 C1205 1.327 . S
C1203 H1226 0.950 . S
C1204 C1203 1.349 . S
C1204 C1216 1.349 . S
C1205 C1203 1.327 . S
C1205 C1221 1.429 . S
C1205 H1227 0.950 . S
C1206 H1202 0.949 . S
C1206 C1214 1.574 . S
C1206 C1222 1.368 . S
H1207 C1215 0.950 . S
H1208 C1213 0.950 . S
H1209 C1214 0.949 . S
H1210 C1216 0.950 . S
H1211 C1217 0.950 . S
H1212 C1218 0.949 . S
C1213 H1208 0.950 . S
C1213 C1215 1.327 . S
C1213 C1219 1.429 . S
C1214 C1206 1.574 . S
C1214 H1209 0.949 . S
C1214 C1220 1.368 . S
C1215 C1199 1.349 . S
C1215 H1207 0.950 . S
C1215 C1213 1.327 . S
C1216 C1204 1.349 . S
C1216 H1210 0.950 . S
C1216 C1217 1.327 . S
C1217 H1211 0.950 . S
C1217 C1216 1.327 . S
C1217 C1221 1.429 . S
C1218 C1201 1.574 . S
C1218 H1212 0.949 . S
C1218 C1222 1.368 . S
C1219 C1200 1.429 . S
C1219 C1213 1.429 . S
C1219 C1220 1.523 . S
C1220 C1201 1.368 . S
C1220 C1214 1.368 . S
C1220 C1219 1.523 . S
C1221 C1205 1.429 . S
C1221 C1217 1.429 . S
C1221 C1222 1.523 . S
C1222 C1206 1.368 . S
C1222 C1218 1.368 . S
C1222 C1221 1.523 . S
H1223 C1198 0.950 . S
H1224 C1200 0.950 . S
H1225 C1201 0.949 . S
H1226 C1203 0.950 . S
H1227 C1205 0.950 . S
C1228 C1229 1.349 . S
C1228 C1230 1.327 . S
C1228 H1253 0.950 . S
C1229 C1228 1.349 . S
C1229 C1245 1.349 . S
C1230 C1228 1.327 . S
C1230 C1249 1.429 . S
C1230 H1254 0.950 . S
C1231 C1248 1.574 . S
C1231 C1250 1.368 . S
C1231 H1255 0.949 . S
H1232 C1236 0.949 . S
C1233 C1234 1.352 . S
C1233 C1235 1.321 1_554 S
C1233 H1256 0.953 . S
C1234 C1233 1.352 . S
C1234 C1246 1.349 . S
C1235 C1233 1.321 1_556 S
C1235 C1251 1.429 . S
C1235 H1257 0.950 . S
C1236 H1232 0.949 . S
C1236 C1244 1.574 . S
C1236 C1252 1.368 . S
H1237 C1245 0.950 . S
H1238 C1243 0.950 . S
H1239 C1244 0.949 . S
H1240 C1246 0.950 . S
H1241 C1247 0.950 . S
H1242 C1248 0.949 . S
C1243 H1238 0.950 . S
C1243 C1245 1.327 . S
C1243 C1249 1.429 . S
C1244 C1236 1.574 . S
C1244 H1239 0.949 . S
C1244 C1250 1.368 . S
C1245 C1229 1.349 . S
C1245 H1237 0.950 . S
C1245 C1243 1.327 . S
C1246 C1234 1.349 . S
C1246 H1240 0.950 . S
C1246 C1247 1.327 1_554 S
C1247 H1241 0.950 . S
C1247 C1246 1.327 1_556 S
C1247 C1251 1.429 . S
C1248 C1231 1.574 . S
C1248 H1242 0.949 . S
C1248 C1252 1.368 . S
C1249 C1230 1.429 . S
C1249 C1243 1.429 . S
C1249 C1250 1.523 . S
C1250 C1231 1.368 . S
C1250 C1244 1.368 . S
C1250 C1249 1.523 . S
C1251 C1235 1.429 . S
C1251 C1247 1.429 . S
C1251 C1252 1.523 . S
C1252 C1236 1.368 . S
C1252 C1248 1.368 . S
C1252 C1251 1.523 . S
H1253 C1228 0.950 . S
H1254 C1230 0.950 . S
H1255 C1231 0.949 . S
H1256 C1233 0.953 . S
H1257 C1235 0.950 . S
C1258 C1259 1.349 . S
C1258 C1260 1.327 . S
C1258 H1283 0.950 . S
C1259 C1258 1.349 . S
C1259 C1275 1.349 . S
C1260 C1258 1.327 . S
C1260 C1279 1.429 . S
C1260 H1284 0.950 . S
C1261 C1278 1.574 . S
C1261 C1280 1.368 . S
C1261 H1285 0.949 . S
H1262 C1266 0.949 . S
C1263 C1264 1.349 1_554 S
C1263 C1265 1.327 . S
C1263 H1286 0.950 1_554 S
C1264 C1263 1.349 1_556 S
C1264 C1276 1.349 . S
C1265 C1263 1.327 . S
C1265 C1281 1.429 . S
C1265 H1287 0.950 . S
C1266 H1262 0.949 . S
C1266 C1274 1.574 . S
C1266 C1282 1.368 . S
H1267 C1275 0.950 . S
H1268 C1273 0.950 . S
H1269 C1274 0.949 . S
H1270 C1276 0.950 . S
H1271 C1277 0.950 . S
H1272 C1278 0.949 . S
C1273 H1268 0.950 . S
C1273 C1275 1.327 . S
C1273 C1279 1.429 . S
C1274 C1266 1.574 . S
C1274 H1269 0.949 . S
C1274 C1280 1.368 . S
C1275 C1259 1.349 . S
C1275 H1267 0.950 . S
C1275 C1273 1.327 . S
C1276 C1264 1.349 . S
C1276 H1270 0.950 . S
C1276 C1277 1.327 1_556 S
C1277 H1271 0.950 . S
C1277 C1276 1.327 1_554 S
C1277 C1281 1.429 . S
C1278 C1261 1.574 . S
C1278 H1272 0.949 . S
C1278 C1282 1.368 . S
C1279 C1260 1.429 . S
C1279 C1273 1.429 . S
C1279 C1280 1.523 . S
C1280 C1261 1.368 . S
C1280 C1274 1.368 . S
C1280 C1279 1.523 . S
C1281 C1265 1.429 . S
C1281 C1277 1.429 . S
C1281 C1282 1.523 . S
C1282 C1266 1.368 . S
C1282 C1278 1.368 . S
C1282 C1281 1.523 . S
H1283 C1258 0.950 . S
H1284 C1260 0.950 . S
H1285 C1261 0.949 . S
H1286 C1263 0.950 1_556 S
H1287 C1265 0.950 . S
C1288 C1289 1.349 . S
C1288 C1290 1.327 . S
C1288 H1313 0.950 . S
C1289 C1288 1.349 . S
C1289 C1305 1.349 . S
C1290 C1288 1.327 . S
C1290 C1309 1.429 . S
C1290 H1314 0.950 . S
C1291 C1308 1.574 . S
C1291 C1310 1.368 . S
C1291 H1315 0.949 . S
H1292 C1296 0.949 . S
C1293 C1294 1.349 . S
C1293 C1295 1.327 . S
C1293 H1316 0.950 . S
C1294 C1293 1.349 . S
C1294 C1306 1.349 . S
C1295 C1293 1.327 . S
C1295 C1311 1.429 . S
C1295 H1317 0.950 . S
C1296 H1292 0.949 . S
C1296 C1304 1.574 . S
C1296 C1312 1.368 . S
H1297 C1305 0.950 . S
H1298 C1303 0.950 . S
H1299 C1304 0.949 . S
H1300 C1306 0.950 . S
H1301 C1307 0.950 . S
H1302 C1308 0.949 . S
C1303 H1298 0.950 . S
C1303 C1305 1.327 . S
C1303 C1309 1.429 . S
C1304 C1296 1.574 . S
C1304 H1299 0.949 . S
C1304 C1310 1.368 . S
C1305 C1289 1.349 . S
C1305 H1297 0.950 . S
C1305 C1303 1.327 . S
C1306 C1294 1.349 . S
C1306 H1300 0.950 . S
C1306 C1307 1.327 . S
C1307 H1301 0.950 . S
C1307 C1306 1.327 . S
C1307 C1311 1.429 . S
C1308 C1291 1.574 . S
C1308 H1302 0.949 . S
C1308 C1312 1.368 . S
C1309 C1290 1.429 . S
C1309 C1303 1.429 . S
C1309 C1310 1.523 . S
C1310 C1291 1.368 . S
C1310 C1304 1.368 . S
C1310 C1309 1.523 . S
C1311 C1295 1.429 . S
C1311 C1307 1.429 . S
C1311 C1312 1.523 . S
C1312 C1296 1.368 . S
C1312 C1308 1.368 . S
C1312 C1311 1.523 . S
H1313 C1288 0.950 . S
H1314 C1290 0.950 . S
H1315 C1291 0.949 . S
H1316 C1293 0.950 . S
H1317 C1295 0.950 . S
C1318 C1319 1.349 . S
C1318 C1320 1.327 . S
C1318 H1343 0.950 . S
C1319 C1318 1.349 . S
C1319 C1335 1.349 . S
C1320 C1318 1.327 . S
C1320 C1339 1.429 . S
C1320 H1344 0.950 . S
C1321 C1338 1.574 . S
C1321 C1340 1.368 . S
C1321 H1345 0.949 . S
H1322 C1326 0.949 . S
C1323 C1324 1.349 . S
C1323 C1325 1.327 . S
C1323 H1346 0.950 . S
C1324 C1323 1.349 . S
C1324 C1336 1.349 . S
C1325 C1323 1.327 . S
C1325 C1341 1.429 . S
C1325 H1347 0.950 . S
C1326 H1322 0.949 . S
C1326 C1334 1.574 . S
C1326 C1342 1.368 . S
H1327 C1335 0.950 . S
H1328 C1333 0.950 . S
H1329 C1334 0.949 . S
H1330 C1336 0.950 . S
H1331 C1337 0.950 . S
H1332 C1338 0.949 . S
C1333 H1328 0.950 . S
C1333 C1335 1.327 . S
C1333 C1339 1.429 . S
C1334 C1326 1.574 . S
C1334 H1329 0.949 . S
C1334 C1340 1.368 . S
C1335 C1319 1.349 . S
C1335 H1327 0.950 . S
C1335 C1333 1.327 . S
C1336 C1324 1.349 . S
C1336 H1330 0.950 . S
C1336 C1337 1.327 . S
C1337 H1331 0.950 . S
C1337 C1336 1.327 . S
C1337 C1341 1.429 . S
C1338 C1321 1.574 . S
C1338 H1332 0.949 . S
C1338 C1342 1.368 . S
C1339 C1320 1.429 . S
C1339 C1333 1.429 . S
C1339 C1340 1.523 . S
C1340 C1321 1.368 . S
C1340 C1334 1.368 . S
C1340 C1339 1.523 . S
C1341 C1325 1.429 . S
C1341 C1337 1.429 . S
C1341 C1342 1.523 . S
C1342 C1326 1.368 . S
C1342 C1338 1.368 . S
C1342 C1341 1.523 . S
H1343 C1318 0.950 . S
H1344 C1320 0.950 . S
H1345 C1321 0.949 . S
H1346 C1323 0.950 . S
H1347 C1325 0.950 . S
C1348 C1349 1.349 . S
C1348 C1350 1.327 1_556 S
C1348 H1373 0.950 . S
C1349 C1348 1.349 . S
C1349 C1365 1.345 1_556 S
C1350 C1348 1.327 1_554 S
C1350 C1369 1.429 . S
C1350 H1374 0.950 . S
C1351 C1368 1.574 . S
C1351 C1370 1.368 . S
C1351 H1375 0.949 . S
H1352 C1356 0.949 . S
C1353 C1354 1.349 . S
C1353 C1355 1.327 . S
C1353 H1376 0.950 . S
C1354 C1353 1.349 . S
C1354 C1366 1.349 . S
C1355 C1353 1.327 . S
C1355 C1371 1.429 . S
C1355 H1377 0.950 . S
C1356 H1352 0.949 . S
C1356 C1364 1.574 . S
C1356 C1372 1.368 . S
H1357 C1365 0.946 1_556 S
H1358 C1363 0.950 . S
H1359 C1364 0.949 . S
H1360 C1366 0.950 . S
H1361 C1367 0.950 . S
H1362 C1368 0.949 . S
C1363 H1358 0.950 . S
C1363 C1365 1.335 . S
C1363 C1369 1.429 . S
C1364 C1356 1.574 . S
C1364 H1359 0.949 . S
C1364 C1370 1.368 . S
C1365 C1349 1.345 1_554 S
C1365 H1357 0.946 1_554 S
C1365 C1363 1.335 . S
C1366 C1354 1.349 . S
C1366 H1360 0.950 . S
C1366 C1367 1.327 . S
C1367 H1361 0.950 . S
C1367 C1366 1.327 . S
C1367 C1371 1.429 . S
C1368 C1351 1.574 . S
C1368 H1362 0.949 . S
C1368 C1372 1.368 . S
C1369 C1350 1.429 . S
C1369 C1363 1.429 . S
C1369 C1370 1.523 . S
C1370 C1351 1.368 . S
C1370 C1364 1.368 . S
C1370 C1369 1.523 . S
C1371 C1355 1.429 . S
C1371 C1367 1.429 . S
C1371 C1372 1.523 . S
C1372 C1356 1.368 . S
C1372 C1368 1.368 . S
C1372 C1371 1.523 . S
H1373 C1348 0.950 . S
H1374 C1350 0.950 . S
H1375 C1351 0.949 . S
H1376 C1353 0.950 . S
H1377 C1355 0.950 . S
C1378 C1379 1.349 . S
C1378 C1380 1.327 . S
C1378 H1403 0.950 . S
C1379 C1378 1.349 . S
C1379 C1395 1.349 . S
C1380 C1378 1.327 . S
C1380 C1399 1.429 . S
C1380 H1404 0.950 . S
C1381 C1398 1.574 . S
C1381 C1400 1.368 . S
C1381 H1405 0.949 . S
H1382 C1386 0.949 . S
C1383 C1384 1.349 . S
C1383 C1385 1.327 1_554 S
C1383 H1406 0.950 . S
C1384 C1383 1.349 . S
C1384 C1396 1.349 1_554 S
C1385 C1383 1.327 1_556 S
C1385 C1401 1.429 . S
C1385 H1407 0.950 1_556 S
C1386 H1382 0.949 . S
C1386 C1394 1.574 . S
C1386 C1402 1.368 . S
H1387 C1395 0.950 . S
H1388 C1393 0.950 . S
H1389 C1394 0.949 . S
H1390 C1396 0.950 . S
H1391 C1397 0.950 . S
H1392 C1398 0.949 . S
C1393 H1388 0.950 . S
C1393 C1395 1.327 . S
C1393 C1399 1.429 . S
C1394 C1386 1.574 . S
C1394 H1389 0.949 . S
C1394 C1400 1.368 . S
C1395 C1379 1.349 . S
C1395 H1387 0.950 . S
C1395 C1393 1.327 . S
C1396 C1384 1.349 1_556 S
C1396 H1390 0.950 . S
C1396 C1397 1.327 . S
C1397 H1391 0.950 . S
C1397 C1396 1.327 . S
C1397 C1401 1.429 . S
C1398 C1381 1.574 . S
C1398 H1392 0.949 . S
C1398 C1402 1.368 . S
C1399 C1380 1.429 . S
C1399 C1393 1.429 . S
C1399 C1400 1.523 . S
C1400 C1381 1.368 . S
C1400 C1394 1.368 . S
C1400 C1399 1.523 . S
C1401 C1385 1.429 . S
C1401 C1397 1.429 . S
C1401 C1402 1.523 . S
C1402 C1386 1.368 . S
C1402 C1398 1.368 . S
C1402 C1401 1.523 . S
H1403 C1378 0.950 . S
H1404 C1380 0.950 . S
H1405 C1381 0.949 . S
H1406 C1383 0.950 . S
H1407 C1385 0.950 1_554 S
C1408 C1409 1.349 . S
C1408 C1410 1.327 . S
C1408 H1433 0.950 . S
C1409 C1408 1.349 . S
C1409 C1425 1.349 . S
C1410 C1408 1.327 . S
C1410 C1429 1.429 . S
C1410 H1434 0.950 . S
C1411 C1428 1.574 . S
C1411 C1430 1.368 . S
C1411 H1435 0.949 . S
H1412 C1416 0.949 . S
C1413 C1414 1.349 . S
C1413 C1415 1.327 . S
C1413 H1436 0.950 . S
C1414 C1413 1.349 . S
C1414 C1426 1.349 . S
C1415 C1413 1.327 . S
C1415 C1431 1.429 . S
C1415 H1437 0.950 . S
C1416 H1412 0.949 . S
C1416 C1424 1.574 . S
C1416 C1432 1.368 . S
H1417 C1425 0.950 . S
H1418 C1423 0.950 . S
H1419 C1424 0.949 . S
H1420 C1426 0.950 . S
H1421 C1427 0.950 . S
H1422 C1428 0.949 . S
C1423 H1418 0.950 . S
C1423 C1425 1.327 . S
C1423 C1429 1.429 . S
C1424 C1416 1.574 . S
C1424 H1419 0.949 . S
C1424 C1430 1.368 . S
C1425 C1409 1.349 . S
C1425 H1417 0.950 . S
C1425 C1423 1.327 . S
C1426 C1414 1.349 . S
C1426 H1420 0.950 . S
C1426 C1427 1.327 . S
C1427 H1421 0.950 . S
C1427 C1426 1.327 . S
C1427 C1431 1.429 . S
C1428 C1411 1.574 . S
C1428 H1422 0.949 . S
C1428 C1432 1.368 . S
C1429 C1410 1.429 . S
C1429 C1423 1.429 . S
C1429 C1430 1.523 . S
C1430 C1411 1.368 . S
C1430 C1424 1.368 . S
C1430 C1429 1.523 . S
C1431 C1415 1.429 . S
C1431 C1427 1.429 . S
C1431 C1432 1.523 . S
C1432 C1416 1.368 . S
C1432 C1428 1.368 . S
C1432 C1431 1.523 . S
H1433 C1408 0.950 . S
H1434 C1410 0.950 . S
H1435 C1411 0.949 . S
H1436 C1413 0.950 . S
H1437 C1415 0.950 . S
C1438 C1439 1.349 . S
C1438 C1440 1.327 . S
C1438 H1463 0.950 . S
C1439 C1438 1.349 . S
C1439 C1455 1.349 . S
C1440 C1438 1.327 . S
C1440 C1459 1.429 . S
C1440 H1464 0.950 . S
C1441 C1458 1.574 1_655 S
C1441 C1460 1.368 . S
C1441 H1465 0.949 . S
H1442 C1446 0.949 . S
C1443 C1444 1.349 . S
C1443 C1445 1.327 . S
C1443 H1466 0.950 . S
C1444 C1443 1.349 . S
C1444 C1456 1.349 . S
C1445 C1443 1.327 . S
C1445 C1461 1.429 . S
C1445 H1467 0.950 . S
C1446 H1442 0.949 . S
C1446 C1454 1.574 1_455 S
C1446 C1462 1.368 . S
H1447 C1455 0.950 . S
H1448 C1453 0.950 . S
H1449 C1454 0.949 . S
H1450 C1456 0.950 . S
H1451 C1457 0.950 . S
H1452 C1458 0.949 . S
C1453 H1448 0.950 . S
C1453 C1455 1.327 . S
C1453 C1459 1.429 . S
C1454 C1446 1.574 1_655 S
C1454 H1449 0.949 . S
C1454 C1460 1.368 . S
C1455 C1439 1.349 . S
C1455 H1447 0.950 . S
C1455 C1453 1.327 . S
C1456 C1444 1.349 . S
C1456 H1450 0.950 . S
C1456 C1457 1.327 . S
C1457 H1451 0.950 . S
C1457 C1456 1.327 . S
C1457 C1461 1.429 . S
C1458 C1441 1.574 1_455 S
C1458 H1452 0.949 . S
C1458 C1462 1.368 . S
C1459 C1440 1.429 . S
C1459 C1453 1.429 . S
C1459 C1460 1.523 . S
C1460 C1441 1.368 . S
C1460 C1454 1.368 . S
C1460 C1459 1.523 . S
C1461 C1445 1.429 . S
C1461 C1457 1.429 . S
C1461 C1462 1.523 . S
C1462 C1446 1.368 . S
C1462 C1458 1.368 . S
C1462 C1461 1.523 . S
H1463 C1438 0.950 . S
H1464 C1440 0.950 . S
H1465 C1441 0.949 . S
H1466 C1443 0.950 . S
H1467 C1445 0.950 . S
C1468 C1469 1.349 . S
C1468 C1470 1.327 . S
C1468 H1493 0.950 . S
C1469 C1468 1.349 . S
C1469 C1485 1.349 . S
C1470 C1468 1.327 . S
C1470 C1489 1.429 . S
C1470 H1494 0.950 . S
C1471 C1488 1.574 . S
C1471 C1490 1.368 . S
C1471 H1495 0.949 . S
H1472 C1476 0.949 . S
C1473 C1474 1.349 . S
C1473 C1475 1.327 . S
C1473 H1496 0.950 . S
C1474 C1473 1.349 . S
C1474 C1486 1.349 . S
C1475 C1473 1.327 . S
C1475 C1491 1.429 . S
C1475 H1497 0.950 . S
C1476 H1472 0.949 . S
C1476 C1484 1.574 . S
C1476 C1492 1.368 . S
H1477 C1485 0.950 . S
H1478 C1483 0.950 . S
H1479 C1484 0.949 . S
H1480 C1486 0.950 . S
H1481 C1487 0.950 . S
H1482 C1488 0.949 . S
C1483 H1478 0.950 . S
C1483 C1485 1.327 . S
C1483 C1489 1.429 . S
C1484 C1476 1.574 . S
C1484 H1479 0.949 . S
C1484 C1490 1.368 . S
C1485 C1469 1.349 . S
C1485 H1477 0.950 . S
C1485 C1483 1.327 . S
C1486 C1474 1.349 . S
C1486 H1480 0.950 . S
C1486 C1487 1.327 . S
C1487 H1481 0.950 . S
C1487 C1486 1.327 . S
C1487 C1491 1.429 . S
C1488 C1471 1.574 . S
C1488 H1482 0.949 . S
C1488 C1492 1.368 . S
C1489 C1470 1.429 . S
C1489 C1483 1.429 . S
C1489 C1490 1.523 . S
C1490 C1471 1.368 . S
C1490 C1484 1.368 . S
C1490 C1489 1.523 . S
C1491 C1475 1.429 . S
C1491 C1487 1.429 . S
C1491 C1492 1.523 . S
C1492 C1476 1.368 . S
C1492 C1488 1.368 . S
C1492 C1491 1.523 . S
H1493 C1468 0.950 . S
H1494 C1470 0.950 . S
H1495 C1471 0.949 . S
H1496 C1473 0.950 . S
H1497 C1475 0.950 . S
C1498 C1499 1.349 . S
C1498 C1500 1.327 . S
C1498 H1523 0.950 . S
C1499 C1498 1.349 . S
C1499 C1515 1.349 . S
C1500 C1498 1.327 . S
C1500 C1519 1.429 . S
C1500 H1524 0.950 . S
C1501 C1518 1.574 . S
C1501 C1520 1.368 . S
C1501 H1525 0.949 . S
H1502 C1506 0.949 . S
C1503 C1504 1.349 . S
C1503 C1505 1.327 . S
C1503 H1526 0.950 . S
C1504 C1503 1.349 . S
C1504 C1516 1.349 . S
C1505 C1503 1.327 . S
C1505 C1521 1.429 . S
C1505 H1527 0.950 . S
C1506 H1502 0.949 . S
C1506 C1514 1.574 . S
C1506 C1522 1.368 . S
H1507 C1515 0.950 . S
H1508 C1513 0.950 . S
H1509 C1514 0.949 . S
H1510 C1516 0.950 . S
H1511 C1517 0.950 . S
H1512 C1518 0.949 . S
C1513 H1508 0.950 . S
C1513 C1515 1.327 . S
C1513 C1519 1.429 . S
C1514 C1506 1.574 . S
C1514 H1509 0.949 . S
C1514 C1520 1.368 . S
C1515 C1499 1.349 . S
C1515 H1507 0.950 . S
C1515 C1513 1.327 . S
C1516 C1504 1.349 . S
C1516 H1510 0.950 . S
C1516 C1517 1.327 . S
C1517 H1511 0.950 . S
C1517 C1516 1.327 . S
C1517 C1521 1.429 . S
C1518 C1501 1.574 . S
C1518 H1512 0.949 . S
C1518 C1522 1.368 . S
C1519 C1500 1.429 . S
C1519 C1513 1.429 . S
C1519 C1520 1.523 . S
C1520 C1501 1.368 . S
C1520 C1514 1.368 . S
C1520 C1519 1.523 . S
C1521 C1505 1.429 . S
C1521 C1517 1.429 . S
C1521 C1522 1.523 . S
C1522 C1506 1.368 . S
C1522 C1518 1.368 . S
C1522 C1521 1.523 . S
H1523 C1498 0.950 . S
H1524 C1500 0.950 . S
H1525 C1501 0.949 . S
H1526 C1503 0.950 . S
H1527 C1505 0.950 . S
C1528 C1529 1.349 . S
C1528 C1530 1.327 . S
C1528 H1553 0.950 . S
C1529 C1528 1.349 . S
C1529 C1545 1.349 . S
C1530 C1528 1.327 . S
C1530 C1549 1.429 . S
C1530 H1554 0.950 . S
C1531 C1548 1.574 . S
C1531 C1550 1.368 . S
C1531 H1555 0.949 . S
H1532 C1536 0.949 . S
C1533 C1534 1.349 . S
C1533 C1535 1.327 . S
C1533 H1556 0.950 . S
C1534 C1533 1.349 . S
C1534 C1546 1.349 . S
C1535 C1533 1.327 . S
C1535 C1551 1.429 . S
C1535 H1557 0.950 . S
C1536 H1532 0.949 . S
C1536 C1544 1.574 . S
C1536 C1552 1.368 . S
H1537 C1545 0.950 . S
H1538 C1543 0.950 . S
H1539 C1544 0.949 . S
H1540 C1546 0.950 . S
H1541 C1547 0.950 . S
H1542 C1548 0.949 . S
C1543 H1538 0.950 . S
C1543 C1545 1.327 . S
C1543 C1549 1.429 . S
C1544 C1536 1.574 . S
C1544 H1539 0.949 . S
C1544 C1550 1.368 . S
C1545 C1529 1.349 . S
C1545 H1537 0.950 . S
C1545 C1543 1.327 . S
C1546 C1534 1.349 . S
C1546 H1540 0.950 . S
C1546 C1547 1.327 . S
C1547 H1541 0.950 . S
C1547 C1546 1.327 . S
C1547 C1551 1.429 . S
C1548 C1531 1.574 . S
C1548 H1542 0.949 . S
C1548 C1552 1.368 . S
C1549 C1530 1.429 . S
C1549 C1543 1.429 . S
C1549 C1550 1.523 . S
C1550 C1531 1.368 . S
C1550 C1544 1.368 . S
C1550 C1549 1.523 . S
C1551 C1535 1.429 . S
C1551 C1547 1.429 . S
C1551 C1552 1.523 . S
C1552 C1536 1.368 . S
C1552 C1548 1.368 . S
C1552 C1551 1.523 . S
H1553 C1528 0.950 . S
H1554 C1530 0.950 . S
H1555 C1531 0.949 . S
H1556 C1533 0.950 . S
H1557 C1535 0.950 . S
C1558 C1559 1.349 . S
C1558 C1560 1.327 . S
C1558 H1583 0.950 . S
C1559 C1558 1.349 . S
C1559 C1575 1.349 . S
C1560 C1558 1.327 . S
C1560 C1579 1.429 . S
C1560 H1584 0.950 . S
C1561 C1578 1.574 . S
C1561 C1580 1.368 . S
C1561 H1585 0.949 . S
H1562 C1566 0.949 . S
C1563 C1564 1.349 . S
C1563 C1565 1.327 . S
C1563 H1586 0.950 . S
C1564 C1563 1.349 . S
C1564 C1576 1.349 . S
C1565 C1563 1.327 . S
C1565 C1581 1.429 . S
C1565 H1587 0.950 . S
C1566 H1562 0.949 . S
C1566 C1574 1.574 . S
C1566 C1582 1.368 . S
H1567 C1575 0.950 . S
H1568 C1573 0.950 . S
H1569 C1574 0.949 . S
H1570 C1576 0.950 . S
H1571 C1577 0.950 . S
H1572 C1578 0.949 . S
C1573 H1568 0.950 . S
C1573 C1575 1.327 . S
C1573 C1579 1.429 . S
C1574 C1566 1.574 . S
C1574 H1569 0.949 . S
C1574 C1580 1.368 . S
C1575 C1559 1.349 . S
C1575 H1567 0.950 . S
C1575 C1573 1.327 . S
C1576 C1564 1.349 . S
C1576 H1570 0.950 . S
C1576 C1577 1.327 . S
C1577 H1571 0.950 . S
C1577 C1576 1.327 . S
C1577 C1581 1.429 . S
C1578 C1561 1.574 . S
C1578 H1572 0.949 . S
C1578 C1582 1.368 . S
C1579 C1560 1.429 . S
C1579 C1573 1.429 . S
C1579 C1580 1.523 . S
C1580 C1561 1.368 . S
C1580 C1574 1.368 . S
C1580 C1579 1.523 . S
C1581 C1565 1.429 . S
C1581 C1577 1.429 . S
C1581 C1582 1.523 . S
C1582 C1566 1.368 . S
C1582 C1578 1.368 . S
C1582 C1581 1.523 . S
H1583 C1558 0.950 . S
H1584 C1560 0.950 . S
H1585 C1561 0.949 . S
H1586 C1563 0.950 . S
H1587 C1565 0.950 . S
C1588 C1589 1.349 . S
C1588 C1590 1.327 . S
C1588 H1613 0.950 . S
C1589 C1588 1.349 . S
C1589 C1605 1.349 . S
C1590 C1588 1.327 . S
C1590 C1609 1.429 . S
C1590 H1614 0.950 . S
C1591 C1608 1.574 . S
C1591 C1610 1.368 . S
C1591 H1615 0.949 . S
H1592 C1596 0.949 . S
C1593 C1594 1.349 . S
C1593 C1595 1.327 . S
C1593 H1616 0.950 . S
C1594 C1593 1.349 . S
C1594 C1606 1.349 . S
C1595 C1593 1.327 . S
C1595 C1611 1.429 . S
C1595 H1617 0.950 . S
C1596 H1592 0.949 . S
C1596 C1604 1.574 . S
C1596 C1612 1.368 . S
H1597 C1605 0.950 . S
H1598 C1603 0.950 . S
H1599 C1604 0.949 . S
H1600 C1606 0.950 . S
H1601 C1607 0.950 . S
H1602 C1608 0.949 . S
C1603 H1598 0.950 . S
C1603 C1605 1.327 . S
C1603 C1609 1.429 . S
C1604 C1596 1.574 . S
C1604 H1599 0.949 . S
C1604 C1610 1.368 . S
C1605 C1589 1.349 . S
C1605 H1597 0.950 . S
C1605 C1603 1.327 . S
C1606 C1594 1.349 . S
C1606 H1600 0.950 . S
C1606 C1607 1.327 . S
C1607 H1601 0.950 . S
C1607 C1606 1.327 . S
C1607 C1611 1.429 . S
C1608 C1591 1.574 . S
C1608 H1602 0.949 . S
C1608 C1612 1.368 . S
C1609 C1590 1.429 . S
C1609 C1603 1.429 . S
C1609 C1610 1.523 . S
C1610 C1591 1.368 . S
C1610 C1604 1.368 . S
C1610 C1609 1.523 . S
C1611 C1595 1.429 . S
C1611 C1607 1.429 . S
C1611 C1612 1.523 . S
C1612 C1596 1.368 . S
C1612 C1608 1.368 . S
C1612 C1611 1.523 . S
H1613 C1588 0.950 . S
H1614 C1590 0.950 . S
H1615 C1591 0.949 . S
H1616 C1593 0.950 . S
H1617 C1595 0.950 . S
C1618 C1619 1.349 . S
C1618 C1620 1.327 . S
C1618 H1643 0.950 . S
C1619 C1618 1.349 . S
C1619 C1635 1.349 . S
C1620 C1618 1.327 . S
C1620 C1639 1.429 . S
C1620 H1644 0.950 . S
C1621 C1638 1.574 1_655 S
C1621 C1640 1.368 . S
C1621 H1645 0.949 . S
H1622 C1626 0.949 . S
C1623 C1624 1.349 . S
C1623 C1625 1.327 . S
C1623 H1646 0.950 . S
C1624 C1623 1.349 . S
C1624 C1636 1.349 . S
C1625 C1623 1.327 . S
C1625 C1641 1.429 . S
C1625 H1647 0.950 . S
C1626 H1622 0.949 . S
C1626 C1634 1.574 1_455 S
C1626 C1642 1.368 . S
H1627 C1635 0.950 . S
H1628 C1633 0.950 . S
H1629 C1634 0.949 . S
H1630 C1636 0.950 . S
H1631 C1637 0.950 . S
H1632 C1638 0.949 . S
C1633 H1628 0.950 . S
C1633 C1635 1.327 . S
C1633 C1639 1.429 . S
C1634 C1626 1.574 1_655 S
C1634 H1629 0.949 . S
C1634 C1640 1.368 . S
C1635 C1619 1.349 . S
C1635 H1627 0.950 . S
C1635 C1633 1.327 . S
C1636 C1624 1.349 . S
C1636 H1630 0.950 . S
C1636 C1637 1.327 . S
C1637 H1631 0.950 . S
C1637 C1636 1.327 . S
C1637 C1641 1.429 . S
C1638 C1621 1.574 1_455 S
C1638 H1632 0.949 . S
C1638 C1642 1.368 . S
C1639 C1620 1.429 . S
C1639 C1633 1.429 . S
C1639 C1640 1.523 . S
C1640 C1621 1.368 . S
C1640 C1634 1.368 . S
C1640 C1639 1.523 . S
C1641 C1625 1.429 . S
C1641 C1637 1.429 . S
C1641 C1642 1.523 . S
C1642 C1626 1.368 . S
C1642 C1638 1.368 . S
C1642 C1641 1.523 . S
H1643 C1618 0.950 . S
H1644 C1620 0.950 . S
H1645 C1621 0.949 . S
H1646 C1623 0.950 . S
H1647 C1625 0.950 . S
C1648 C1649 1.349 . S
C1648 C1650 1.327 . S
C1648 H1673 0.950 . S
C1649 C1648 1.349 . S
C1649 C1665 1.349 . S
C1650 C1648 1.327 . S
C1650 C1669 1.429 . S
C1650 H1674 0.950 . S
C1651 C1668 1.574 . S
C1651 C1670 1.368 . S
C1651 H1675 0.949 . S
H1652 C1656 0.949 . S
C1653 C1654 1.349 . S
C1653 C1655 1.327 . S
C1653 H1676 0.950 . S
C1654 C1653 1.349 . S
C1654 C1666 1.349 . S
C1655 C1653 1.327 . S
C1655 C1671 1.429 . S
C1655 H1677 0.950 . S
C1656 H1652 0.949 . S
C1656 C1664 1.574 . S
C1656 C1672 1.368 . S
H1657 C1665 0.950 . S
H1658 C1663 0.950 . S
H1659 C1664 0.949 . S
H1660 C1666 0.950 . S
H1661 C1667 0.950 . S
H1662 C1668 0.949 . S
C1663 H1658 0.950 . S
C1663 C1665 1.327 . S
C1663 C1669 1.429 . S
C1664 C1656 1.574 . S
C1664 H1659 0.949 . S
C1664 C1670 1.368 . S
C1665 C1649 1.349 . S
C1665 H1657 0.950 . S
C1665 C1663 1.327 . S
C1666 C1654 1.349 . S
C1666 H1660 0.950 . S
C1666 C1667 1.327 . S
C1667 H1661 0.950 . S
C1667 C1666 1.327 . S
C1667 C1671 1.429 . S
C1668 C1651 1.574 . S
C1668 H1662 0.949 . S
C1668 C1672 1.368 . S
C1669 C1650 1.429 . S
C1669 C1663 1.429 . S
C1669 C1670 1.523 . S
C1670 C1651 1.368 . S
C1670 C1664 1.368 . S
C1670 C1669 1.523 . S
C1671 C1655 1.429 . S
C1671 C1667 1.429 . S
C1671 C1672 1.523 . S
C1672 C1656 1.368 . S
C1672 C1668 1.368 . S
C1672 C1671 1.523 . S
H1673 C1648 0.950 . S
H1674 C1650 0.950 . S
H1675 C1651 0.949 . S
H1676 C1653 0.950 . S
H1677 C1655 0.950 . S
C1678 C1679 1.349 . S
C1678 C1680 1.327 . S
C1678 H1703 0.950 . S
C1679 C1678 1.349 . S
C1679 C1695 1.349 . S
C1680 C1678 1.327 . S
C1680 C1699 1.429 . S
C1680 H1704 0.950 . S
C1681 C1698 1.574 . S
C1681 C1700 1.368 . S
C1681 H1705 0.949 . S
H1682 C1686 0.949 . S
C1683 C1684 1.349 . S
C1683 C1685 1.327 . S
C1683 H1706 0.950 . S
C1684 C1683 1.349 . S
C1684 C1696 1.349 . S
C1685 C1683 1.327 . S
C1685 C1701 1.429 . S
C1685 H1707 0.950 . S
C1686 H1682 0.949 . S
C1686 C1694 1.574 . S
C1686 C1702 1.368 . S
H1687 C1695 0.950 . S
H1688 C1693 0.950 . S
H1689 C1694 0.949 . S
H1690 C1696 0.950 . S
H1691 C1697 0.950 . S
H1692 C1698 0.949 . S
C1693 H1688 0.950 . S
C1693 C1695 1.327 . S
C1693 C1699 1.429 . S
C1694 C1686 1.574 . S
C1694 H1689 0.949 . S
C1694 C1700 1.368 . S
C1695 C1679 1.349 . S
C1695 H1687 0.950 . S
C1695 C1693 1.327 . S
C1696 C1684 1.349 . S
C1696 H1690 0.950 . S
C1696 C1697 1.327 . S
C1697 H1691 0.950 . S
C1697 C1696 1.327 . S
C1697 C1701 1.429 . S
C1698 C1681 1.574 . S
C1698 H1692 0.949 . S
C1698 C1702 1.368 . S
C1699 C1680 1.429 . S
C1699 C1693 1.429 . S
C1699 C1700 1.523 . S
C1700 C1681 1.368 . S
C1700 C1694 1.368 . S
C1700 C1699 1.523 . S
C1701 C1685 1.429 . S
C1701 C1697 1.429 . S
C1701 C1702 1.523 . S
C1702 C1686 1.368 . S
C1702 C1698 1.368 . S
C1702 C1701 1.523 . S
H1703 C1678 0.950 . S
H1704 C1680 0.950 . S
H1705 C1681 0.949 . S
H1706 C1683 0.950 . S
H1707 C1685 0.950 . S
C1708 C1709 1.349 . S
C1708 C1710 1.327 . S
C1708 H1733 0.950 . S
C1709 C1708 1.349 . S
C1709 C1725 1.349 . S
C1710 C1708 1.327 . S
C1710 C1729 1.429 . S
C1710 H1734 0.950 . S
C1711 C1728 1.574 . S
C1711 C1730 1.368 . S
C1711 H1735 0.949 . S
H1712 C1716 0.949 . S
C1713 C1714 1.349 . S
C1713 C1715 1.327 . S
C1713 H1736 0.950 . S
C1714 C1713 1.349 . S
C1714 C1726 1.349 . S
C1715 C1713 1.327 . S
C1715 C1731 1.429 . S
C1715 H1737 0.950 . S
C1716 H1712 0.949 . S
C1716 C1724 1.574 . S
C1716 C1732 1.368 . S
H1717 C1725 0.950 . S
H1718 C1723 0.950 . S
H1719 C1724 0.949 . S
H1720 C1726 0.950 . S
H1721 C1727 0.950 . S
H1722 C1728 0.949 . S
C1723 H1718 0.950 . S
C1723 C1725 1.327 . S
C1723 C1729 1.429 . S
C1724 C1716 1.574 . S
C1724 H1719 0.949 . S
C1724 C1730 1.368 . S
C1725 C1709 1.349 . S
C1725 H1717 0.950 . S
C1725 C1723 1.327 . S
C1726 C1714 1.349 . S
C1726 H1720 0.950 . S
C1726 C1727 1.327 . S
C1727 H1721 0.950 . S
C1727 C1726 1.327 . S
C1727 C1731 1.429 . S
C1728 C1711 1.574 . S
C1728 H1722 0.949 . S
C1728 C1732 1.368 . S
C1729 C1710 1.429 . S
C1729 C1723 1.429 . S
C1729 C1730 1.523 . S
C1730 C1711 1.368 . S
C1730 C1724 1.368 . S
C1730 C1729 1.523 . S
C1731 C1715 1.429 . S
C1731 C1727 1.429 . S
C1731 C1732 1.523 . S
C1732 C1716 1.368 . S
C1732 C1728 1.368 . S
C1732 C1731 1.523 . S
H1733 C1708 0.950 . S
H1734 C1710 0.950 . S
H1735 C1711 0.949 . S
H1736 C1713 0.950 . S
H1737 C1715 0.950 . S
C1738 C1739 1.349 . S
C1738 C1740 1.327 . S
C1738 H1763 0.950 . S
C1739 C1738 1.349 . S
C1739 C1755 1.349 . S
C1740 C1738 1.327 . S
C1740 C1759 1.429 . S
C1740 H1764 0.950 . S
C1741 C1758 1.574 . S
C1741 C1760 1.368 . S
C1741 H1765 0.949 . S
H1742 C1746 0.949 . S
C1743 C1744 1.349 . S
C1743 C1745 1.327 . S
C1743 H1766 0.950 . S
C1744 C1743 1.349 . S
C1744 C1756 1.349 . S
C1745 C1743 1.327 . S
C1745 C1761 1.429 . S
C1745 H1767 0.950 . S
C1746 H1742 0.949 . S
C1746 C1754 1.574 . S
C1746 C1762 1.368 . S
H1747 C1755 0.950 . S
H1748 C1753 0.950 . S
H1749 C1754 0.949 . S
H1750 C1756 0.950 . S
H1751 C1757 0.950 . S
H1752 C1758 0.949 . S
C1753 H1748 0.950 . S
C1753 C1755 1.327 . S
C1753 C1759 1.429 . S
C1754 C1746 1.574 . S
C1754 H1749 0.949 . S
C1754 C1760 1.368 . S
C1755 C1739 1.349 . S
C1755 H1747 0.950 . S
C1755 C1753 1.327 . S
C1756 C1744 1.349 . S
C1756 H1750 0.950 . S
C1756 C1757 1.327 . S
C1757 H1751 0.950 . S
C1757 C1756 1.327 . S
C1757 C1761 1.429 . S
C1758 C1741 1.574 . S
C1758 H1752 0.949 . S
C1758 C1762 1.368 . S
C1759 C1740 1.429 . S
C1759 C1753 1.429 . S
C1759 C1760 1.523 . S
C1760 C1741 1.368 . S
C1760 C1754 1.368 . S
C1760 C1759 1.523 . S
C1761 C1745 1.429 . S
C1761 C1757 1.429 . S
C1761 C1762 1.523 . S
C1762 C1746 1.368 . S
C1762 C1758 1.368 . S
C1762 C1761 1.523 . S
H1763 C1738 0.950 . S
H1764 C1740 0.950 . S
H1765 C1741 0.949 . S
H1766 C1743 0.950 . S
H1767 C1745 0.950 . S
C1768 C1769 1.349 . S
C1768 C1770 1.327 . S
C1768 H1793 0.950 . S
C1769 C1768 1.349 . S
C1769 C1785 1.349 . S
C1770 C1768 1.327 . S
C1770 C1789 1.429 . S
C1770 H1794 0.950 . S
C1771 C1788 1.574 . S
C1771 C1790 1.368 . S
C1771 H1795 0.949 . S
H1772 C1776 0.949 . S
C1773 C1774 1.349 . S
C1773 C1775 1.327 . S
C1773 H1796 0.950 . S
C1774 C1773 1.349 . S
C1774 C1786 1.349 . S
C1775 C1773 1.327 . S
C1775 C1791 1.429 . S
C1775 H1797 0.950 . S
C1776 H1772 0.949 . S
C1776 C1784 1.574 . S
C1776 C1792 1.368 . S
H1777 C1785 0.950 . S
H1778 C1783 0.950 . S
H1779 C1784 0.949 . S
H1780 C1786 0.950 . S
H1781 C1787 0.950 . S
H1782 C1788 0.949 . S
C1783 H1778 0.950 . S
C1783 C1785 1.327 . S
C1783 C1789 1.429 . S
C1784 C1776 1.574 . S
C1784 H1779 0.949 . S
C1784 C1790 1.368 . S
C1785 C1769 1.349 . S
C1785 H1777 0.950 . S
C1785 C1783 1.327 . S
C1786 C1774 1.349 . S
C1786 H1780 0.950 . S
C1786 C1787 1.327 . S
C1787 H1781 0.950 . S
C1787 C1786 1.327 . S
C1787 C1791 1.429 . S
C1788 C1771 1.574 . S
C1788 H1782 0.949 . S
C1788 C1792 1.368 . S
C1789 C1770 1.429 . S
C1789 C1783 1.429 . S
C1789 C1790 1.523 . S
C1790 C1771 1.368 . S
C1790 C1784 1.368 . S
C1790 C1789 1.523 . S
C1791 C1775 1.429 . S
C1791 C1787 1.429 . S
C1791 C1792 1.523 . S
C1792 C1776 1.368 . S
C1792 C1788 1.368 . S
C1792 C1791 1.523 . S
H1793 C1768 0.950 . S
H1794 C1770 0.950 . S
H1795 C1771 0.949 . S
H1796 C1773 0.950 . S
H1797 C1775 0.950 . S
C1798 C1799 1.349 . S
C1798 C1800 1.327 . S
C1798 H1823 0.950 . S
C1799 C1798 1.349 . S
C1799 C1815 1.349 . S
C1800 C1798 1.327 . S
C1800 C1819 1.429 . S
C1800 H1824 0.950 . S
C1801 C1818 1.574 1_655 S
C1801 C1820 1.368 . S
C1801 H1825 0.949 . S
H1802 C1806 0.949 . S
C1803 C1804 1.349 . S
C1803 C1805 1.327 . S
C1803 H1826 0.950 . S
C1804 C1803 1.349 . S
C1804 C1816 1.349 . S
C1805 C1803 1.327 . S
C1805 C1821 1.429 . S
C1805 H1827 0.950 . S
C1806 H1802 0.949 . S
C1806 C1814 1.574 1_455 S
C1806 C1822 1.368 . S
H1807 C1815 0.950 . S
H1808 C1813 0.950 . S
H1809 C1814 0.949 . S
H1810 C1816 0.950 . S
H1811 C1817 0.950 . S
H1812 C1818 0.949 . S
C1813 H1808 0.950 . S
C1813 C1815 1.327 . S
C1813 C1819 1.429 . S
C1814 C1806 1.574 1_655 S
C1814 H1809 0.949 . S
C1814 C1820 1.368 . S
C1815 C1799 1.349 . S
C1815 H1807 0.950 . S
C1815 C1813 1.327 . S
C1816 C1804 1.349 . S
C1816 H1810 0.950 . S
C1816 C1817 1.327 . S
C1817 H1811 0.950 . S
C1817 C1816 1.327 . S
C1817 C1821 1.429 . S
C1818 C1801 1.574 1_455 S
C1818 H1812 0.949 . S
C1818 C1822 1.368 . S
C1819 C1800 1.429 . S
C1819 C1813 1.429 . S
C1819 C1820 1.523 . S
C1820 C1801 1.368 . S
C1820 C1814 1.368 . S
C1820 C1819 1.523 . S
C1821 C1805 1.429 . S
C1821 C1817 1.429 . S
C1821 C1822 1.523 . S
C1822 C1806 1.368 . S
C1822 C1818 1.368 . S
C1822 C1821 1.523 . S
H1823 C1798 0.950 . S
H1824 C1800 0.950 . S
H1825 C1801 0.949 . S
H1826 C1803 0.950 . S
H1827 C1805 0.950 . S
C1828 C1829 1.349 . S
C1828 C1830 1.327 . S
C1828 H1853 0.950 . S
C1829 C1828 1.349 . S
C1829 C1845 1.349 . S
C1830 C1828 1.327 . S
C1830 C1849 1.429 . S
C1830 H1854 0.950 . S
C1831 C1848 1.574 1_655 S
C1831 C1850 1.368 . S
C1831 H1855 0.949 . S
H1832 C1836 0.949 . S
C1833 C1834 1.349 . S
C1833 C1835 1.327 . S
C1833 H1856 0.950 . S
C1834 C1833 1.349 . S
C1834 C1846 1.349 . S
C1835 C1833 1.327 . S
C1835 C1851 1.429 . S
C1835 H1857 0.950 . S
C1836 H1832 0.949 . S
C1836 C1844 1.574 1_455 S
C1836 C1852 1.368 . S
H1837 C1845 0.950 . S
H1838 C1843 0.950 . S
H1839 C1844 0.949 . S
H1840 C1846 0.950 . S
H1841 C1847 0.950 . S
H1842 C1848 0.949 . S
C1843 H1838 0.950 . S
C1843 C1845 1.327 . S
C1843 C1849 1.429 . S
C1844 C1836 1.574 1_655 S
C1844 H1839 0.949 . S
C1844 C1850 1.368 . S
C1845 C1829 1.349 . S
C1845 H1837 0.950 . S
C1845 C1843 1.327 . S
C1846 C1834 1.349 . S
C1846 H1840 0.950 . S
C1846 C1847 1.327 . S
C1847 H1841 0.950 . S
C1847 C1846 1.327 . S
C1847 C1851 1.429 . S
C1848 C1831 1.574 1_455 S
C1848 H1842 0.949 . S
C1848 C1852 1.368 . S
C1849 C1830 1.429 . S
C1849 C1843 1.429 . S
C1849 C1850 1.523 . S
C1850 C1831 1.368 . S
C1850 C1844 1.368 . S
C1850 C1849 1.523 . S
C1851 C1835 1.429 . S
C1851 C1847 1.429 . S
C1851 C1852 1.523 . S
C1852 C1836 1.368 . S
C1852 C1848 1.368 . S
C1852 C1851 1.523 . S
H1853 C1828 0.950 . S
H1854 C1830 0.950 . S
H1855 C1831 0.949 . S
H1856 C1833 0.950 . S
H1857 C1835 0.950 . S
C1858 C1859 1.349 . S
C1858 C1860 1.327 . S
C1858 H1883 0.950 . S
C1859 C1858 1.349 . S
C1859 C1875 1.349 . S
C1860 C1858 1.327 . S
C1860 C1879 1.429 . S
C1860 H1884 0.950 . S
C1861 C1878 1.574 . S
C1861 C1880 1.368 . S
C1861 H1885 0.949 . S
H1862 C1866 0.949 . S
C1863 C1864 1.349 . S
C1863 C1865 1.327 . S
C1863 H1886 0.950 . S
C1864 C1863 1.349 . S
C1864 C1876 1.349 . S
C1865 C1863 1.327 . S
C1865 C1881 1.429 . S
C1865 H1887 0.950 . S
C1866 H1862 0.949 . S
C1866 C1874 1.574 . S
C1866 C1882 1.368 . S
H1867 C1875 0.950 . S
H1868 C1873 0.950 . S
H1869 C1874 0.949 . S
H1870 C1876 0.950 . S
H1871 C1877 0.950 . S
H1872 C1878 0.949 . S
C1873 H1868 0.950 . S
C1873 C1875 1.327 . S
C1873 C1879 1.429 . S
C1874 C1866 1.574 . S
C1874 H1869 0.949 . S
C1874 C1880 1.368 . S
C1875 C1859 1.349 . S
C1875 H1867 0.950 . S
C1875 C1873 1.327 . S
C1876 C1864 1.349 . S
C1876 H1870 0.950 . S
C1876 C1877 1.327 . S
C1877 H1871 0.950 . S
C1877 C1876 1.327 . S
C1877 C1881 1.429 . S
C1878 C1861 1.574 . S
C1878 H1872 0.949 . S
C1878 C1882 1.368 . S
C1879 C1860 1.429 . S
C1879 C1873 1.429 . S
C1879 C1880 1.523 . S
C1880 C1861 1.368 . S
C1880 C1874 1.368 . S
C1880 C1879 1.523 . S
C1881 C1865 1.429 . S
C1881 C1877 1.429 . S
C1881 C1882 1.523 . S
C1882 C1866 1.368 . S
C1882 C1878 1.368 . S
C1882 C1881 1.523 . S
H1883 C1858 0.950 . S
H1884 C1860 0.950 . S
H1885 C1861 0.949 . S
H1886 C1863 0.950 . S
H1887 C1865 0.950 . S
C1888 C1889 1.349 . S
C1888 C1890 1.327 . S
C1888 H1913 0.950 . S
C1889 C1888 1.349 . S
C1889 C1905 1.349 . S
C1890 C1888 1.327 . S
C1890 C1909 1.429 . S
C1890 H1914 0.950 . S
C1891 C1908 1.574 . S
C1891 C1910 1.368 . S
C1891 H1915 0.949 . S
H1892 C1896 0.949 . S
C1893 C1894 1.349 . S
C1893 C1895 1.327 . S
C1893 H1916 0.950 . S
C1894 C1893 1.349 . S
C1894 C1906 1.349 . S
C1895 C1893 1.327 . S
C1895 C1911 1.429 . S
C1895 H1917 0.950 . S
C1896 H1892 0.949 . S
C1896 C1904 1.574 . S
C1896 C1912 1.368 . S
H1897 C1905 0.950 . S
H1898 C1903 0.950 . S
H1899 C1904 0.949 . S
H1900 C1906 0.950 . S
H1901 C1907 0.950 . S
H1902 C1908 0.949 . S
C1903 H1898 0.950 . S
C1903 C1905 1.327 . S
C1903 C1909 1.429 . S
C1904 C1896 1.574 . S
C1904 H1899 0.949 . S
C1904 C1910 1.368 . S
C1905 C1889 1.349 . S
C1905 H1897 0.950 . S
C1905 C1903 1.327 . S
C1906 C1894 1.349 . S
C1906 H1900 0.950 . S
C1906 C1907 1.327 . S
C1907 H1901 0.950 . S
C1907 C1906 1.327 . S
C1907 C1911 1.429 . S
C1908 C1891 1.574 . S
C1908 H1902 0.949 . S
C1908 C1912 1.368 . S
C1909 C1890 1.429 . S
C1909 C1903 1.429 . S
C1909 C1910 1.523 . S
C1910 C1891 1.368 . S
C1910 C1904 1.368 . S
C1910 C1909 1.523 . S
C1911 C1895 1.429 . S
C1911 C1907 1.429 . S
C1911 C1912 1.523 . S
C1912 C1896 1.368 . S
C1912 C1908 1.368 . S
C1912 C1911 1.523 . S
H1913 C1888 0.950 . S
H1914 C1890 0.950 . S
H1915 C1891 0.949 . S
H1916 C1893 0.950 . S
H1917 C1895 0.950 . S
C1918 C1919 1.349 . S
C1918 C1920 1.327 . S
C1918 H1943 0.950 . S
C1919 C1918 1.349 . S
C1919 C1935 1.349 . S
C1920 C1918 1.327 . S
C1920 C1939 1.429 . S
C1920 H1944 0.950 . S
C1921 C1938 1.574 . S
C1921 C1940 1.368 . S
C1921 H1945 0.949 . S
H1922 C1926 0.949 . S
C1923 C1924 1.349 . S
C1923 C1925 1.327 . S
C1923 H1946 0.950 . S
C1924 C1923 1.349 . S
C1924 C1936 1.349 . S
C1925 C1923 1.327 . S
C1925 C1941 1.429 . S
C1925 H1947 0.950 . S
C1926 H1922 0.949 . S
C1926 C1934 1.574 . S
C1926 C1942 1.368 . S
H1927 C1935 0.950 . S
H1928 C1933 0.950 . S
H1929 C1934 0.949 . S
H1930 C1936 0.950 . S
H1931 C1937 0.950 . S
H1932 C1938 0.949 . S
C1933 H1928 0.950 . S
C1933 C1935 1.327 . S
C1933 C1939 1.429 . S
C1934 C1926 1.574 . S
C1934 H1929 0.949 . S
C1934 C1940 1.368 . S
C1935 C1919 1.349 . S
C1935 H1927 0.950 . S
C1935 C1933 1.327 . S
C1936 C1924 1.349 . S
C1936 H1930 0.950 . S
C1936 C1937 1.327 . S
C1937 H1931 0.950 . S
C1937 C1936 1.327 . S
C1937 C1941 1.429 . S
C1938 C1921 1.574 . S
C1938 H1932 0.949 . S
C1938 C1942 1.368 . S
C1939 C1920 1.429 . S
C1939 C1933 1.429 . S
C1939 C1940 1.523 . S
C1940 C1921 1.368 . S
C1940 C1934 1.368 . S
C1940 C1939 1.523 . S
C1941 C1925 1.429 . S
C1941 C1937 1.429 . S
C1941 C1942 1.523 . S
C1942 C1926 1.368 . S
C1942 C1938 1.368 . S
C1942 C1941 1.523 . S
H1943 C1918 0.950 . S
H1944 C1920 0.950 . S
H1945 C1921 0.949 . S
H1946 C1923 0.950 . S
H1947 C1925 0.950 . S
C1948 C1949 1.349 . S
C1948 C1950 1.327 1_554 S
C1948 H1973 0.950 . S
C1949 C1948 1.349 . S
C1949 C1965 1.349 1_554 S
C1950 C1948 1.327 1_556 S
C1950 C1969 1.429 . S
C1950 H1974 0.948 1_556 S
C1951 C1968 1.574 . S
C1951 C1970 1.368 . S
C1951 H1975 0.949 . S
H1952 C1956 0.949 . S
C1953 C1954 1.349 . S
C1953 C1955 1.327 . S
C1953 H1976 0.950 . S
C1954 C1953 1.349 . S
C1954 C1966 1.349 . S
C1955 C1953 1.327 . S
C1955 C1971 1.429 . S
C1955 H1977 0.950 . S
C1956 H1952 0.949 . S
C1956 C1964 1.574 . S
C1956 C1972 1.368 . S
H1957 C1965 0.950 . S
H1958 C1963 0.950 . S
H1959 C1964 0.949 . S
H1960 C1966 0.950 . S
H1961 C1967 0.950 . S
H1962 C1968 0.949 . S
C1963 H1958 0.950 . S
C1963 C1965 1.327 . S
C1963 C1969 1.429 . S
C1964 C1956 1.574 . S
C1964 H1959 0.949 . S
C1964 C1970 1.368 . S
C1965 C1949 1.349 1_556 S
C1965 H1957 0.950 . S
C1965 C1963 1.327 . S
C1966 C1954 1.349 . S
C1966 H1960 0.950 . S
C1966 C1967 1.327 . S
C1967 H1961 0.950 . S
C1967 C1966 1.327 . S
C1967 C1971 1.429 . S
C1968 C1951 1.574 . S
C1968 H1962 0.949 . S
C1968 C1972 1.368 . S
C1969 C1950 1.429 . S
C1969 C1963 1.429 . S
C1969 C1970 1.523 . S
C1970 C1951 1.368 . S
C1970 C1964 1.368 . S
C1970 C1969 1.523 . S
C1971 C1955 1.429 . S
C1971 C1967 1.429 . S
C1971 C1972 1.523 . S
C1972 C1956 1.368 . S
C1972 C1968 1.368 . S
C1972 C1971 1.523 . S
H1973 C1948 0.950 . S
H1974 C1950 0.948 1_554 S
H1975 C1951 0.949 . S
H1976 C1953 0.950 . S
H1977 C1955 0.950 . S
C1978 C1979 1.349 . S
C1978 C1980 1.327 1_556 S
C1978 H2003 0.950 . S
C1979 C1978 1.349 . S
C1979 C1995 1.349 1_556 S
C1980 C1978 1.327 1_554 S
C1980 C1999 1.429 . S
C1980 H2004 0.950 . S
C1981 C1998 1.574 . S
C1981 C2000 1.368 . S
C1981 H2005 0.949 . S
H1982 C1986 0.949 . S
C1983 C1984 1.349 . S
C1983 C1985 1.327 . S
C1983 H2006 0.950 . S
C1984 C1983 1.349 . S
C1984 C1996 1.349 . S
C1985 C1983 1.327 . S
C1985 C2001 1.429 . S
C1985 H2007 0.950 . S
C1986 H1982 0.949 . S
C1986 C1994 1.574 . S
C1986 C2002 1.368 . S
H1987 C1995 0.950 . S
H1988 C1993 0.950 . S
H1989 C1994 0.949 . S
H1990 C1996 0.950 . S
H1991 C1997 0.950 . S
H1992 C1998 0.949 . S
C1993 H1988 0.950 . S
C1993 C1995 1.327 . S
C1993 C1999 1.429 . S
C1994 C1986 1.574 . S
C1994 H1989 0.949 . S
C1994 C2000 1.368 . S
C1995 C1979 1.349 1_554 S
C1995 H1987 0.950 . S
C1995 C1993 1.327 . S
C1996 C1984 1.349 . S
C1996 H1990 0.950 . S
C1996 C1997 1.327 . S
C1997 H1991 0.950 . S
C1997 C1996 1.327 . S
C1997 C2001 1.429 . S
C1998 C1981 1.574 . S
C1998 H1992 0.949 . S
C1998 C2002 1.368 . S
C1999 C1980 1.429 . S
C1999 C1993 1.429 . S
C1999 C2000 1.523 . S
C2000 C1981 1.368 . S
C2000 C1994 1.368 . S
C2000 C1999 1.523 . S
C2001 C1985 1.429 . S
C2001 C1997 1.429 . S
C2001 C2002 1.523 . S
C2002 C1986 1.368 . S
C2002 C1998 1.368 . S
C2002 C2001 1.523 . S
H2003 C1978 0.950 . S
H2004 C1980 0.950 . S
H2005 C1981 0.949 . S
H2006 C1983 0.950 . S
H2007 C1985 0.950 . S
C2008 C2009 1.349 . S
C2008 C2010 1.327 . S
C2008 H2033 0.950 . S
C2009 C2008 1.349 . S
C2009 C2025 1.349 . S
C2010 C2008 1.327 . S
C2010 C2029 1.429 . S
C2010 H2034 0.950 . S
C2011 C2028 1.574 . S
C2011 C2030 1.368 . S
C2011 H2035 0.949 . S
H2012 C2016 0.949 . S
C2013 C2014 1.349 . S
C2013 C2015 1.327 . S
C2013 H2036 0.950 . S
C2014 C2013 1.349 . S
C2014 C2026 1.349 . S
C2015 C2013 1.327 . S
C2015 C2031 1.429 . S
C2015 H2037 0.950 . S
C2016 H2012 0.949 . S
C2016 C2024 1.574 . S
C2016 C2032 1.368 . S
H2017 C2025 0.950 . S
H2018 C2023 0.950 . S
H2019 C2024 0.949 . S
H2020 C2026 0.950 . S
H2021 C2027 0.950 . S
H2022 C2028 0.949 . S
C2023 H2018 0.950 . S
C2023 C2025 1.327 . S
C2023 C2029 1.429 . S
C2024 C2016 1.574 . S
C2024 H2019 0.949 . S
C2024 C2030 1.368 . S
C2025 C2009 1.349 . S
C2025 H2017 0.950 . S
C2025 C2023 1.327 . S
C2026 C2014 1.349 . S
C2026 H2020 0.950 . S
C2026 C2027 1.327 . S
C2027 H2021 0.950 . S
C2027 C2026 1.327 . S
C2027 C2031 1.429 . S
C2028 C2011 1.574 . S
C2028 H2022 0.949 . S
C2028 C2032 1.368 . S
C2029 C2010 1.429 . S
C2029 C2023 1.429 . S
C2029 C2030 1.523 . S
C2030 C2011 1.368 . S
C2030 C2024 1.368 . S
C2030 C2029 1.523 . S
C2031 C2015 1.429 . S
C2031 C2027 1.429 . S
C2031 C2032 1.523 . S
C2032 C2016 1.368 . S
C2032 C2028 1.368 . S
C2032 C2031 1.523 . S
H2033 C2008 0.950 . S
H2034 C2010 0.950 . S
H2035 C2011 0.949 . S
H2036 C2013 0.950 . S
H2037 C2015 0.950 . S
C2038 C2039 1.349 . S
C2038 C2040 1.327 . S
C2038 H2063 0.950 . S
C2039 C2038 1.349 . S
C2039 C2055 1.349 . S
C2040 C2038 1.327 . S
C2040 C2059 1.429 . S
C2040 H2064 0.950 . S
C2041 C2058 1.574 . S
C2041 C2060 1.368 . S
C2041 H2065 0.949 . S
H2042 C2046 0.949 . S
C2043 C2044 1.349 . S
C2043 C2045 1.327 . S
C2043 H2066 0.950 . S
C2044 C2043 1.349 . S
C2044 C2056 1.349 . S
C2045 C2043 1.327 . S
C2045 C2061 1.429 . S
C2045 H2067 0.950 . S
C2046 H2042 0.949 . S
C2046 C2054 1.574 . S
C2046 C2062 1.368 . S
H2047 C2055 0.950 . S
H2048 C2053 0.950 . S
H2049 C2054 0.949 . S
H2050 C2056 0.950 . S
H2051 C2057 0.950 . S
H2052 C2058 0.949 . S
C2053 H2048 0.950 . S
C2053 C2055 1.327 . S
C2053 C2059 1.429 . S
C2054 C2046 1.574 . S
C2054 H2049 0.949 . S
C2054 C2060 1.368 . S
C2055 C2039 1.349 . S
C2055 H2047 0.950 . S
C2055 C2053 1.327 . S
C2056 C2044 1.349 . S
C2056 H2050 0.950 . S
C2056 C2057 1.327 . S
C2057 H2051 0.950 . S
C2057 C2056 1.327 . S
C2057 C2061 1.429 . S
C2058 C2041 1.574 . S
C2058 H2052 0.949 . S
C2058 C2062 1.368 . S
C2059 C2040 1.429 . S
C2059 C2053 1.429 . S
C2059 C2060 1.523 . S
C2060 C2041 1.368 . S
C2060 C2054 1.368 . S
C2060 C2059 1.523 . S
C2061 C2045 1.429 . S
C2061 C2057 1.429 . S
C2061 C2062 1.523 . S
C2062 C2046 1.368 . S
C2062 C2058 1.368 . S
C2062 C2061 1.523 . S
H2063 C2038 0.950 . S
H2064 C2040 0.950 . S
H2065 C2041 0.949 . S
H2066 C2043 0.950 . S
H2067 C2045 0.950 . S
C2068 C2069 1.349 . S
C2068 C2070 1.327 . S
C2068 H2093 0.950 . S
C2069 C2068 1.349 . S
C2069 C2085 1.349 . S
C2070 C2068 1.327 . S
C2070 C2089 1.429 . S
C2070 H2094 0.950 . S
C2071 C2088 1.574 . S
C2071 C2090 1.368 . S
C2071 H2095 0.949 . S
H2072 C2076 0.949 . S
C2073 C2074 1.349 1_554 S
C2073 C2075 1.327 . S
C2073 H2096 0.950 . S
C2074 C2073 1.349 1_556 S
C2074 C2086 1.349 . S
C2075 C2073 1.327 . S
C2075 C2091 1.429 . S
C2075 H2097 0.950 . S
C2076 H2072 0.949 . S
C2076 C2084 1.574 . S
C2076 C2092 1.368 . S
H2077 C2085 0.950 . S
H2078 C2083 0.950 . S
H2079 C2084 0.949 . S
H2080 C2086 0.950 . S
H2081 C2087 0.950 . S
H2082 C2088 0.949 . S
C2083 H2078 0.950 . S
C2083 C2085 1.327 . S
C2083 C2089 1.429 . S
C2084 C2076 1.574 . S
C2084 H2079 0.949 . S
C2084 C2090 1.368 . S
C2085 C2069 1.349 . S
C2085 H2077 0.950 . S
C2085 C2083 1.327 . S
C2086 C2074 1.349 . S
C2086 H2080 0.950 . S
C2086 C2087 1.327 1_556 S
C2087 H2081 0.950 . S
C2087 C2086 1.327 1_554 S
C2087 C2091 1.429 . S
C2088 C2071 1.574 . S
C2088 H2082 0.949 . S
C2088 C2092 1.368 . S
C2089 C2070 1.429 . S
C2089 C2083 1.429 . S
C2089 C2090 1.523 . S
C2090 C2071 1.368 . S
C2090 C2084 1.368 . S
C2090 C2089 1.523 . S
C2091 C2075 1.429 . S
C2091 C2087 1.429 . S
C2091 C2092 1.523 . S
C2092 C2076 1.368 . S
C2092 C2088 1.368 . S
C2092 C2091 1.523 . S
H2093 C2068 0.950 . S
H2094 C2070 0.950 . S
H2095 C2071 0.949 . S
H2096 C2073 0.950 . S
H2097 C2075 0.950 . S
C2098 C2099 1.349 . S
C2098 C2100 1.327 . S
C2098 H2123 0.950 . S
C2099 C2098 1.349 . S
C2099 C2115 1.349 . S
C2100 C2098 1.327 . S
C2100 C2119 1.429 . S
C2100 H2124 0.950 . S
C2101 C2118 1.574 . S
C2101 C2120 1.368 . S
C2101 H2125 0.949 . S
H2102 C2106 0.949 . S
C2103 C2104 1.349 . S
C2103 C2105 1.327 1_554 S
C2103 H2126 0.950 . S
C2104 C2103 1.349 . S
C2104 C2116 1.349 1_554 S
C2105 C2103 1.327 1_556 S
C2105 C2121 1.429 . S
C2105 H2127 0.946 1_556 S
C2106 H2102 0.949 . S
C2106 C2114 1.574 . S
C2106 C2122 1.368 . S
H2107 C2115 0.950 . S
H2108 C2113 0.950 . S
H2109 C2114 0.949 . S
H2110 C2116 0.950 . S
H2111 C2117 0.950 . S
H2112 C2118 0.949 . S
C2113 H2108 0.950 . S
C2113 C2115 1.327 . S
C2113 C2119 1.429 . S
C2114 C2106 1.574 . S
C2114 H2109 0.949 . S
C2114 C2120 1.368 . S
C2115 C2099 1.349 . S
C2115 H2107 0.950 . S
C2115 C2113 1.327 . S
C2116 C2104 1.349 1_556 S
C2116 H2110 0.950 . S
C2116 C2117 1.327 . S
C2117 H2111 0.950 . S
C2117 C2116 1.327 . S
C2117 C2121 1.429 . S
C2118 C2101 1.574 . S
C2118 H2112 0.949 . S
C2118 C2122 1.368 . S
C2119 C2100 1.429 . S
C2119 C2113 1.429 . S
C2119 C2120 1.523 . S
C2120 C2101 1.368 . S
C2120 C2114 1.368 . S
C2120 C2119 1.523 . S
C2121 C2105 1.429 . S
C2121 C2117 1.429 . S
C2121 C2122 1.523 . S
C2122 C2106 1.368 . S
C2122 C2118 1.368 . S
C2122 C2121 1.523 . S
H2123 C2098 0.950 . S
H2124 C2100 0.950 . S
H2125 C2101 0.949 . S
H2126 C2103 0.950 . S
H2127 C2105 0.946 1_554 S
C2128 C2129 1.349 . S
C2128 C2130 1.327 1_554 S
C2128 H2153 0.950 . S
C2129 C2128 1.349 . S
C2129 C2145 1.349 1_554 S
C2130 C2128 1.327 1_556 S
C2130 C2149 1.429 . S
C2130 H2154 0.947 1_556 S
C2131 C2148 1.574 . S
C2131 C2150 1.368 . S
C2131 H2155 0.949 . S
H2132 C2136 0.949 . S
C2133 C2134 1.349 . S
C2133 C2135 1.327 . S
C2133 H2156 0.950 . S
C2134 C2133 1.349 . S
C2134 C2146 1.349 . S
C2135 C2133 1.327 . S
C2135 C2151 1.429 . S
C2135 H2157 0.950 . S
C2136 H2132 0.949 . S
C2136 C2144 1.574 . S
C2136 C2152 1.368 . S
H2137 C2145 0.950 . S
H2138 C2143 0.950 . S
H2139 C2144 0.949 . S
H2140 C2146 0.950 . S
H2141 C2147 0.950 . S
H2142 C2148 0.949 . S
C2143 H2138 0.950 . S
C2143 C2145 1.327 . S
C2143 C2149 1.429 . S
C2144 C2136 1.574 . S
C2144 H2139 0.949 . S
C2144 C2150 1.368 . S
C2145 C2129 1.349 1_556 S
C2145 H2137 0.950 . S
C2145 C2143 1.327 . S
C2146 C2134 1.349 . S
C2146 H2140 0.950 . S
C2146 C2147 1.327 . S
C2147 H2141 0.950 . S
C2147 C2146 1.327 . S
C2147 C2151 1.429 . S
C2148 C2131 1.574 . S
C2148 H2142 0.949 . S
C2148 C2152 1.368 . S
C2149 C2130 1.429 . S
C2149 C2143 1.429 . S
C2149 C2150 1.523 . S
C2150 C2131 1.368 . S
C2150 C2144 1.368 . S
C2150 C2149 1.523 . S
C2151 C2135 1.429 . S
C2151 C2147 1.429 . S
C2151 C2152 1.523 . S
C2152 C2136 1.368 . S
C2152 C2148 1.368 . S
C2152 C2151 1.523 . S
H2153 C2128 0.950 . S
H2154 C2130 0.947 1_554 S
H2155 C2131 0.949 . S
H2156 C2133 0.950 . S
H2157 C2135 0.950 . S
C2158 C2159 1.349 . S
C2158 C2160 1.327 . S
C2158 H2183 0.950 . S
C2159 C2158 1.349 . S
C2159 C2175 1.349 . S
C2160 C2158 1.327 . S
C2160 C2179 1.429 . S
C2160 H2184 0.950 . S
C2161 C2178 1.574 . S
C2161 C2180 1.368 . S
C2161 H2185 0.949 . S
H2162 C2166 0.949 . S
C2163 C2164 1.349 . S
C2163 C2165 1.327 1_556 S
C2163 H2186 0.950 . S
C2164 C2163 1.349 . S
C2164 C2176 1.349 1_556 S
C2165 C2163 1.327 1_554 S
C2165 C2181 1.429 . S
C2165 H2187 0.950 . S
C2166 H2162 0.949 . S
C2166 C2174 1.574 . S
C2166 C2182 1.368 . S
H2167 C2175 0.950 . S
H2168 C2173 0.950 . S
H2169 C2174 0.949 . S
H2170 C2176 0.950 . S
H2171 C2177 0.950 . S
H2172 C2178 0.949 . S
C2173 H2168 0.950 . S
C2173 C2175 1.327 . S
C2173 C2179 1.429 . S
C2174 C2166 1.574 . S
C2174 H2169 0.949 . S
C2174 C2180 1.368 . S
C2175 C2159 1.349 . S
C2175 H2167 0.950 . S
C2175 C2173 1.327 . S
C2176 C2164 1.349 1_554 S
C2176 H2170 0.950 . S
C2176 C2177 1.327 . S
C2177 H2171 0.950 . S
C2177 C2176 1.327 . S
C2177 C2181 1.429 . S
C2178 C2161 1.574 . S
C2178 H2172 0.949 . S
C2178 C2182 1.368 . S
C2179 C2160 1.429 . S
C2179 C2173 1.429 . S
C2179 C2180 1.523 . S
C2180 C2161 1.368 . S
C2180 C2174 1.368 . S
C2180 C2179 1.523 . S
C2181 C2165 1.429 . S
C2181 C2177 1.429 . S
C2181 C2182 1.523 . S
C2182 C2166 1.368 . S
C2182 C2178 1.368 . S
C2182 C2181 1.523 . S
H2183 C2158 0.950 . S
H2184 C2160 0.950 . S
H2185 C2161 0.949 . S
H2186 C2163 0.950 . S
H2187 C2165 0.950 . S
C2188 C2189 1.349 . S
C2188 C2190 1.327 . S
C2188 H2213 0.950 . S
C2189 C2188 1.349 . S
C2189 C2205 1.349 . S
C2190 C2188 1.327 . S
C2190 C2209 1.429 . S
C2190 H2214 0.950 . S
C2191 C2208 1.574 . S
C2191 C2210 1.368 . S
C2191 H2215 0.949 . S
H2192 C2196 0.949 . S
C2193 C2194 1.349 . S
C2193 C2195 1.327 . S
C2193 H2216 0.950 . S
C2194 C2193 1.349 . S
C2194 C2206 1.349 . S
C2195 C2193 1.327 . S
C2195 C2211 1.429 . S
C2195 H2217 0.950 . S
C2196 H2192 0.949 . S
C2196 C2204 1.574 . S
C2196 C2212 1.368 . S
H2197 C2205 0.950 . S
H2198 C2203 0.950 . S
H2199 C2204 0.949 . S
H2200 C2206 0.950 . S
H2201 C2207 0.950 . S
H2202 C2208 0.949 . S
C2203 H2198 0.950 . S
C2203 C2205 1.327 . S
C2203 C2209 1.429 . S
C2204 C2196 1.574 . S
C2204 H2199 0.949 . S
C2204 C2210 1.368 . S
C2205 C2189 1.349 . S
C2205 H2197 0.950 . S
C2205 C2203 1.327 . S
C2206 C2194 1.349 . S
C2206 H2200 0.950 . S
C2206 C2207 1.327 . S
C2207 H2201 0.950 . S
C2207 C2206 1.327 . S
C2207 C2211 1.429 . S
C2208 C2191 1.574 . S
C2208 H2202 0.949 . S
C2208 C2212 1.368 . S
C2209 C2190 1.429 . S
C2209 C2203 1.429 . S
C2209 C2210 1.523 . S
C2210 C2191 1.368 . S
C2210 C2204 1.368 . S
C2210 C2209 1.523 . S
C2211 C2195 1.429 . S
C2211 C2207 1.429 . S
C2211 C2212 1.523 . S
C2212 C2196 1.368 . S
C2212 C2208 1.368 . S
C2212 C2211 1.523 . S
H2213 C2188 0.950 . S
H2214 C2190 0.950 . S
H2215 C2191 0.949 . S
H2216 C2193 0.950 . S
H2217 C2195 0.950 . S
C2218 C2219 1.349 . S
C2218 C2220 1.327 . S
C2218 H2243 0.950 . S
C2219 C2218 1.349 . S
C2219 C2235 1.349 . S
C2220 C2218 1.327 . S
C2220 C2239 1.429 . S
C2220 H2244 0.950 . S
C2221 C2238 1.574 . S
C2221 C2240 1.368 . S
C2221 H2245 0.949 . S
H2222 C2226 0.949 . S
C2223 C2224 1.349 . S
C2223 C2225 1.327 . S
C2223 H2246 0.950 . S
C2224 C2223 1.349 . S
C2224 C2236 1.349 . S
C2225 C2223 1.327 . S
C2225 C2241 1.429 . S
C2225 H2247 0.950 . S
C2226 H2222 0.949 . S
C2226 C2234 1.574 . S
C2226 C2242 1.368 . S
H2227 C2235 0.950 . S
H2228 C2233 0.950 . S
H2229 C2234 0.949 . S
H2230 C2236 0.950 . S
H2231 C2237 0.950 . S
H2232 C2238 0.949 . S
C2233 H2228 0.950 . S
C2233 C2235 1.327 . S
C2233 C2239 1.429 . S
C2234 C2226 1.574 . S
C2234 H2229 0.949 . S
C2234 C2240 1.368 . S
C2235 C2219 1.349 . S
C2235 H2227 0.950 . S
C2235 C2233 1.327 . S
C2236 C2224 1.349 . S
C2236 H2230 0.950 . S
C2236 C2237 1.327 . S
C2237 H2231 0.950 . S
C2237 C2236 1.327 . S
C2237 C2241 1.429 . S
C2238 C2221 1.574 . S
C2238 H2232 0.949 . S
C2238 C2242 1.368 . S
C2239 C2220 1.429 . S
C2239 C2233 1.429 . S
C2239 C2240 1.523 . S
C2240 C2221 1.368 . S
C2240 C2234 1.368 . S
C2240 C2239 1.523 . S
C2241 C2225 1.429 . S
C2241 C2237 1.429 . S
C2241 C2242 1.523 . S
C2242 C2226 1.368 . S
C2242 C2238 1.368 . S
C2242 C2241 1.523 . S
H2243 C2218 0.950 . S
H2244 C2220 0.950 . S
H2245 C2221 0.949 . S
H2246 C2223 0.950 . S
H2247 C2225 0.950 . S
C2248 C2249 1.349 . S
C2248 C2250 1.327 . S
C2248 H2273 0.950 . S
C2249 C2248 1.349 . S
C2249 C2265 1.349 . S
C2250 C2248 1.327 . S
C2250 C2269 1.429 . S
C2250 H2274 0.950 . S
C2251 C2268 1.574 . S
C2251 C2270 1.368 . S
C2251 H2275 0.949 . S
H2252 C2256 0.949 . S
C2253 C2254 1.349 1_554 S
C2253 C2255 1.327 . S
C2253 H2276 0.950 . S
C2254 C2253 1.349 1_556 S
C2254 C2266 1.349 . S
C2255 C2253 1.327 . S
C2255 C2271 1.429 . S
C2255 H2277 0.950 . S
C2256 H2252 0.949 . S
C2256 C2264 1.574 . S
C2256 C2272 1.368 . S
H2257 C2265 0.950 . S
H2258 C2263 0.950 . S
H2259 C2264 0.949 . S
H2260 C2266 0.950 . S
H2261 C2267 0.950 . S
H2262 C2268 0.949 . S
C2263 H2258 0.950 . S
C2263 C2265 1.327 . S
C2263 C2269 1.429 . S
C2264 C2256 1.574 . S
C2264 H2259 0.949 . S
C2264 C2270 1.368 . S
C2265 C2249 1.349 . S
C2265 H2257 0.950 . S
C2265 C2263 1.327 . S
C2266 C2254 1.349 . S
C2266 H2260 0.950 . S
C2266 C2267 1.327 1_556 S
C2267 H2261 0.950 . S
C2267 C2266 1.327 1_554 S
C2267 C2271 1.429 . S
C2268 C2251 1.574 . S
C2268 H2262 0.949 . S
C2268 C2272 1.368 . S
C2269 C2250 1.429 . S
C2269 C2263 1.429 . S
C2269 C2270 1.523 . S
C2270 C2251 1.368 . S
C2270 C2264 1.368 . S
C2270 C2269 1.523 . S
C2271 C2255 1.429 . S
C2271 C2267 1.429 . S
C2271 C2272 1.523 . S
C2272 C2256 1.368 . S
C2272 C2268 1.368 . S
C2272 C2271 1.523 . S
H2273 C2248 0.950 . S
H2274 C2250 0.950 . S
H2275 C2251 0.949 . S
H2276 C2253 0.950 . S
H2277 C2255 0.950 . S
C2278 C2279 1.349 . S
C2278 C2280 1.327 1_554 S
C2278 H2303 0.950 . S
C2279 C2278 1.349 . S
C2279 C2295 1.352 . S
C2280 C2278 1.327 1_556 S
C2280 C2299 1.429 . S
C2280 H2304 0.950 . S
C2281 C2298 1.574 . S
C2281 C2300 1.368 . S
C2281 H2305 0.949 . S
H2282 C2286 0.949 . S
C2283 C2284 1.349 . S
C2283 C2285 1.327 . S
C2283 H2306 0.950 . S
C2284 C2283 1.349 . S
C2284 C2296 1.349 . S
C2285 C2283 1.327 . S
C2285 C2301 1.429 . S
C2285 H2307 0.950 . S
C2286 H2282 0.949 . S
C2286 C2294 1.574 . S
C2286 C2302 1.368 . S
H2287 C2295 0.952 . S
H2288 C2293 0.950 . S
H2289 C2294 0.949 . S
H2290 C2296 0.950 . S
H2291 C2297 0.950 . S
H2292 C2298 0.949 . S
C2293 H2288 0.950 . S
C2293 C2295 1.321 1_556 S
C2293 C2299 1.429 . S
C2294 C2286 1.574 . S
C2294 H2289 0.949 . S
C2294 C2300 1.368 . S
C2295 C2279 1.352 . S
C2295 H2287 0.952 . S
C2295 C2293 1.321 1_554 S
C2296 C2284 1.349 . S
C2296 H2290 0.950 . S
C2296 C2297 1.327 . S
C2297 H2291 0.950 . S
C2297 C2296 1.327 . S
C2297 C2301 1.429 . S
C2298 C2281 1.574 . S
C2298 H2292 0.949 . S
C2298 C2302 1.368 . S
C2299 C2280 1.429 . S
C2299 C2293 1.429 . S
C2299 C2300 1.523 . S
C2300 C2281 1.368 . S
C2300 C2294 1.368 . S
C2300 C2299 1.523 . S
C2301 C2285 1.429 . S
C2301 C2297 1.429 . S
C2301 C2302 1.523 . S
C2302 C2286 1.368 . S
C2302 C2298 1.368 . S
C2302 C2301 1.523 . S
H2303 C2278 0.950 . S
H2304 C2280 0.950 . S
H2305 C2281 0.949 . S
H2306 C2283 0.950 . S
H2307 C2285 0.950 . S
C2308 C2309 1.349 . S
C2308 C2310 1.327 . S
C2308 H2333 0.950 . S
C2309 C2308 1.349 . S
C2309 C2325 1.349 . S
C2310 C2308 1.327 . S
C2310 C2329 1.429 . S
C2310 H2334 0.950 . S
C2311 C2328 1.574 . S
C2311 C2330 1.368 . S
C2311 H2335 0.949 . S
H2312 C2316 0.949 . S
C2313 C2314 1.349 . S
C2313 C2315 1.327 . S
C2313 H2336 0.950 . S
C2314 C2313 1.349 . S
C2314 C2326 1.349 . S
C2315 C2313 1.327 . S
C2315 C2331 1.429 . S
C2315 H2337 0.950 . S
C2316 H2312 0.949 . S
C2316 C2324 1.574 . S
C2316 C2332 1.368 . S
H2317 C2325 0.950 . S
H2318 C2323 0.950 . S
H2319 C2324 0.949 . S
H2320 C2326 0.950 . S
H2321 C2327 0.950 . S
H2322 C2328 0.949 . S
C2323 H2318 0.950 . S
C2323 C2325 1.327 . S
C2323 C2329 1.429 . S
C2324 C2316 1.574 . S
C2324 H2319 0.949 . S
C2324 C2330 1.368 . S
C2325 C2309 1.349 . S
C2325 H2317 0.950 . S
C2325 C2323 1.327 . S
C2326 C2314 1.349 . S
C2326 H2320 0.950 . S
C2326 C2327 1.327 . S
C2327 H2321 0.950 . S
C2327 C2326 1.327 . S
C2327 C2331 1.429 . S
C2328 C2311 1.574 . S
C2328 H2322 0.949 . S
C2328 C2332 1.368 . S
C2329 C2310 1.429 . S
C2329 C2323 1.429 . S
C2329 C2330 1.523 . S
C2330 C2311 1.368 . S
C2330 C2324 1.368 . S
C2330 C2329 1.523 . S
C2331 C2315 1.429 . S
C2331 C2327 1.429 . S
C2331 C2332 1.523 . S
C2332 C2316 1.368 . S
C2332 C2328 1.368 . S
C2332 C2331 1.523 . S
H2333 C2308 0.950 . S
H2334 C2310 0.950 . S
H2335 C2311 0.949 . S
H2336 C2313 0.950 . S
H2337 C2315 0.950 . S
C2338 C2339 1.349 . S
C2338 C2340 1.327 . S
C2338 H2363 0.950 . S
C2339 C2338 1.349 . S
C2339 C2355 1.349 . S
C2340 C2338 1.327 . S
C2340 C2359 1.429 . S
C2340 H2364 0.950 . S
C2341 C2358 1.574 . S
C2341 C2360 1.368 . S
C2341 H2365 0.949 . S
H2342 C2346 0.949 . S
C2343 C2344 1.349 . S
C2343 C2345 1.327 . S
C2343 H2366 0.950 . S
C2344 C2343 1.349 . S
C2344 C2356 1.349 . S
C2345 C2343 1.327 . S
C2345 C2361 1.429 . S
C2345 H2367 0.950 . S
C2346 H2342 0.949 . S
C2346 C2354 1.574 . S
C2346 C2362 1.368 . S
H2347 C2355 0.950 . S
H2348 C2353 0.950 . S
H2349 C2354 0.949 . S
H2350 C2356 0.950 . S
H2351 C2357 0.950 . S
H2352 C2358 0.949 . S
C2353 H2348 0.950 . S
C2353 C2355 1.327 . S
C2353 C2359 1.429 . S
C2354 C2346 1.574 . S
C2354 H2349 0.949 . S
C2354 C2360 1.368 . S
C2355 C2339 1.349 . S
C2355 H2347 0.950 . S
C2355 C2353 1.327 . S
C2356 C2344 1.349 . S
C2356 H2350 0.950 . S
C2356 C2357 1.327 . S
C2357 H2351 0.950 . S
C2357 C2356 1.327 . S
C2357 C2361 1.429 . S
C2358 C2341 1.574 . S
C2358 H2352 0.949 . S
C2358 C2362 1.368 . S
C2359 C2340 1.429 . S
C2359 C2353 1.429 . S
C2359 C2360 1.523 . S
C2360 C2341 1.368 . S
C2360 C2354 1.368 . S
C2360 C2359 1.523 . S
C2361 C2345 1.429 . S
C2361 C2357 1.429 . S
C2361 C2362 1.523 . S
C2362 C2346 1.368 . S
C2362 C2358 1.368 . S
C2362 C2361 1.523 . S
H2363 C2338 0.950 . S
H2364 C2340 0.950 . S
H2365 C2341 0.949 . S
H2366 C2343 0.950 . S
H2367 C2345 0.950 . S
C449 C93 1.491 . S
C454 C9 1.491 . S
C479 C23 1.491 . S
C484 C107 1.491 . S
C509 C65 1.491 . S
C514 C37 1.491 . S
C539 C51 1.491 . S
C544 C79 1.491 . S
C569 C121 1.491 . S
C574 C205 1.491 . S
C599 C219 1.491 . S
C604 C135 1.491 . S
C629 C149 1.491 . S
C634 C177 1.491 . S
C659 C191 1.491 . S
C664 C163 1.491 . S
C689 C233 1.491 . S
C694 C317 1.491 . S
C719 C247 1.491 . S
C724 C331 1.491 . S
C749 C289 1.491 . S
C754 C261 1.491 . S
C779 C303 1.491 . S
C784 C275 1.491 . S
C809 C345 1.491 . S
C814 C429 1.491 . S
C839 C359 1.491 . S
C844 C443 1.491 . S
C869 C401 1.491 . S
C874 C373 1.491 . S
C899 C387 1.491 . S
C904 C415 1.491 . S
C929 C8 1.492 . S
C934 C106 1.492 . S
C959 C64 1.492 . S
C964 C22 1.492 . S
C989 C78 1.492 . S
C994 C36 1.492 . S
C1019 C50 1.492 . S
C1024 C92 1.492 . S
C1049 C120 1.492 . S
C1054 C218 1.492 . S
C1079 C176 1.492 . S
C1084 C134 1.492 . S
C1109 C190 1.492 . S
C1114 C148 1.492 . S
C1139 C204 1.492 . S
C1144 C162 1.492 . S
C1169 C232 1.492 . S
C1174 C330 1.492 . S
C1199 C246 1.492 . S
C1204 C288 1.492 . S
C1229 C302 1.492 . S
C1234 C260 1.492 . S
C1259 C274 1.492 . S
C1264 C316 1.492 . S
C1289 C344 1.492 . S
C1294 C442 1.492 . S
C1319 C400 1.492 . S
C1324 C358 1.492 . S
C1349 C372 1.492 . S
C1354 C414 1.492 . S
C1379 C386 1.492 . S
C1384 C428 1.492 . S
C1409 C423 1.470 . S
C1414 C3 1.470 . S
C1439 C213 1.470 . S
C1444 C17 1.470 . S
C1469 C31 1.470 . S
C1474 C395 1.470 . S
C1499 C45 1.470 . S
C1504 C185 1.470 . S
C1529 C59 1.470 . S
C1534 C367 1.470 . S
C1559 C73 1.470 . S
C1564 C157 1.470 . S
C1589 C87 1.470 . S
C1594 C339 1.470 . S
C1619 C129 1.470 . S
C1624 C101 1.470 . S
C1649 C311 1.470 . S
C1654 C115 1.470 . S
C1679 C143 1.470 . S
C1684 C283 1.470 . S
C1709 C255 1.470 . S
C1714 C171 1.470 . S
C1739 C227 1.470 . S
C1744 C199 1.470 . S
C1769 C241 1.470 . S
C1774 C437 1.470 . S
C1799 C269 1.470 . S
C1804 C409 1.470 . S
C1829 C297 1.470 . S
C1834 C381 1.470 . S
C1859 C353 1.470 . S
C1864 C325 1.470 . S
C1889 C7 1.398 . S
C1894 C105 1.398 . S
C1919 C21 1.398 . S
C1924 C63 1.398 . S
C1949 C77 1.397 . S
C1954 C35 1.397 . S
C1979 C49 1.398 . S
C1984 C91 1.398 . S
C2009 C217 1.398 . S
C2014 C119 1.398 . S
C2039 C175 1.398 . S
C2044 C133 1.398 . S
C2069 C147 1.397 . S
C2074 C189 1.397 . S
C2099 C203 1.398 . S
C2104 C161 1.398 . S
C2129 C329 1.398 . S
C2134 C231 1.398 . S
C2159 C287 1.398 . S
C2164 C245 1.398 . S
C2189 C301 1.397 . S
C2194 C259 1.397 . S
C2219 C315 1.398 . S
C2224 C273 1.398 . S
C2249 C343 1.398 . S
C2254 C441 1.398 . S
C2279 C357 1.398 . S
C2284 C399 1.398 . S
C2309 C371 1.397 . S
C2314 C413 1.397 . S
C2339 C427 1.398 . S
C2344 C385 1.398 . S
