# Generated by pormake.
# Topology umv, (4)-cn, num edge types: 1
# Building blocks:
#     Node 0, Type 0, BuildingBlock: NAHDIM_clean_sbu_0, # of connection points: 4
#     Node 1, Type 0, BuildingBlock: NAHDIM_clean_sbu_0, # of connection points: 4
#     Node 2, Type 0, BuildingBlock: NAHDIM_clean_sbu_0, # of connection points: 4
#     Node 3, Type 0, BuildingBlock: NAHDIM_clean_sbu_0, # of connection points: 4
#     Node 4, Type 0, BuildingBlock: NAHDIM_clean_sbu_0, # of connection points: 4
#     Node 5, Type 0, BuildingBlock: NAHDIM_clean_sbu_0, # of connection points: 4
#     Node 6, Type 0, BuildingBlock: NAHDIM_clean_sbu_0, # of connection points: 4
#     Node 7, Type 0, BuildingBlock: NAHDIM_clean_sbu_0, # of connection points: 4
#     Node 8, Type 0, BuildingBlock: NAHDIM_clean_sbu_0, # of connection points: 4
#     Node 9, Type 0, BuildingBlock: NAHDIM_clean_sbu_0, # of connection points: 4
#     Node 10, Type 0, BuildingBlock: NAHDIM_clean_sbu_0, # of connection points: 4
#     Node 11, Type 0, BuildingBlock: NAHDIM_clean_sbu_0, # of connection points: 4
#     Node 12, Type 0, BuildingBlock: NAHDIM_clean_sbu_0, # of connection points: 4
#     Node 13, Type 0, BuildingBlock: NAHDIM_clean_sbu_0, # of connection points: 4
#     Node 14, Type 0, BuildingBlock: NAHDIM_clean_sbu_0, # of connection points: 4
#     Node 15, Type 0, BuildingBlock: NAHDIM_clean_sbu_0, # of connection points: 4
#     Node 16, Type 0, BuildingBlock: NAHDIM_clean_sbu_0, # of connection points: 4
#     Node 17, Type 0, BuildingBlock: NAHDIM_clean_sbu_0, # of connection points: 4
#     Node 18, Type 0, BuildingBlock: NAHDIM_clean_sbu_0, # of connection points: 4
#     Node 19, Type 0, BuildingBlock: NAHDIM_clean_sbu_0, # of connection points: 4
#     Node 20, Type 0, BuildingBlock: NAHDIM_clean_sbu_0, # of connection points: 4
#     Node 21, Type 0, BuildingBlock: NAHDIM_clean_sbu_0, # of connection points: 4
#     Node 22, Type 0, BuildingBlock: NAHDIM_clean_sbu_0, # of connection points: 4
#     Node 23, Type 0, BuildingBlock: NAHDIM_clean_sbu_0, # of connection points: 4
#     Node 24, Type 0, BuildingBlock: NAHDIM_clean_sbu_0, # of connection points: 4
#     Node 25, Type 0, BuildingBlock: NAHDIM_clean_sbu_0, # of connection points: 4
#     Node 26, Type 0, BuildingBlock: NAHDIM_clean_sbu_0, # of connection points: 4
#     Node 27, Type 0, BuildingBlock: NAHDIM_clean_sbu_0, # of connection points: 4
#     Node 28, Type 0, BuildingBlock: NAHDIM_clean_sbu_0, # of connection points: 4
#     Node 29, Type 0, BuildingBlock: NAHDIM_clean_sbu_0, # of connection points: 4
#     Node 30, Type 0, BuildingBlock: NAHDIM_clean_sbu_0, # of connection points: 4
#     Node 31, Type 0, BuildingBlock: NAHDIM_clean_sbu_0, # of connection points: 4
#     Edge 32, Type (0, 0), None
#     Edge 33, Type (0, 0), None
#     Edge 34, Type (0, 0), None
#     Edge 35, Type (0, 0), None
#     Edge 36, Type (0, 0), None
#     Edge 37, Type (0, 0), None
#     Edge 38, Type (0, 0), None
#     Edge 39, Type (0, 0), None
#     Edge 40, Type (0, 0), None
#     Edge 41, Type (0, 0), None
#     Edge 42, Type (0, 0), None
#     Edge 43, Type (0, 0), None
#     Edge 44, Type (0, 0), None
#     Edge 45, Type (0, 0), None
#     Edge 46, Type (0, 0), None
#     Edge 47, Type (0, 0), None
#     Edge 48, Type (0, 0), None
#     Edge 49, Type (0, 0), None
#     Edge 50, Type (0, 0), None
#     Edge 51, Type (0, 0), None
#     Edge 52, Type (0, 0), None
#     Edge 53, Type (0, 0), None
#     Edge 54, Type (0, 0), None
#     Edge 55, Type (0, 0), None
#     Edge 56, Type (0, 0), None
#     Edge 57, Type (0, 0), None
#     Edge 58, Type (0, 0), None
#     Edge 59, Type (0, 0), None
#     Edge 60, Type (0, 0), None
#     Edge 61, Type (0, 0), None
#     Edge 62, Type (0, 0), None
#     Edge 63, Type (0, 0), None
#     Edge 64, Type (0, 0), None
#     Edge 65, Type (0, 0), None
#     Edge 66, Type (0, 0), None
#     Edge 67, Type (0, 0), None
#     Edge 68, Type (0, 0), None
#     Edge 69, Type (0, 0), None
#     Edge 70, Type (0, 0), None
#     Edge 71, Type (0, 0), None
#     Edge 72, Type (0, 0), None
#     Edge 73, Type (0, 0), None
#     Edge 74, Type (0, 0), None
#     Edge 75, Type (0, 0), None
#     Edge 76, Type (0, 0), None
#     Edge 77, Type (0, 0), None
#     Edge 78, Type (0, 0), None
#     Edge 79, Type (0, 0), None
#     Edge 80, Type (0, 0), None
#     Edge 81, Type (0, 0), None
#     Edge 82, Type (0, 0), None
#     Edge 83, Type (0, 0), None
#     Edge 84, Type (0, 0), None
#     Edge 85, Type (0, 0), None
#     Edge 86, Type (0, 0), None
#     Edge 87, Type (0, 0), None
#     Edge 88, Type (0, 0), None
#     Edge 89, Type (0, 0), None
#     Edge 90, Type (0, 0), None
#     Edge 91, Type (0, 0), None
#     Edge 92, Type (0, 0), None
#     Edge 93, Type (0, 0), None
#     Edge 94, Type (0, 0), None
#     Edge 95, Type (0, 0), None
# Relax obj value: 0.128
# Max RMSD: 0.097
# Mean RMSD: 0.097
data_MOF--net-umv--node1-NAHDIM_clean_sbu_0--edge1-none
_symmetry_space_group_name_H-M    P1
_symmetry_Int_Tables_number       1
_symmetry_cell_setting            triclinic
loop_
_symmetry_equiv_pos_as_xyz
'x, y, z'
_cell_length_a     44.533055
_cell_length_b     9.8473878
_cell_length_c     39.840066
_cell_angle_alpha  89.995478
_cell_angle_beta   90.00172
_cell_angle_gamma 90.000608
loop_
_atom_site_label
_atom_site_type_symbol
_atom_site_fract_x
_atom_site_fract_y
_atom_site_fract_z
_atom_type_partial_charge
C0 C 0.00696 0.27084 0.21749 0.0
O1 O 0.01993 0.38072 0.22919 0.0
O2 O 0.03613 0.98901 0.30219 0.0
Zn3 Zn 0.0436 0.14375 0.26833 0.0
O4 O 0.03781 0.31989 0.29141 0.0
C5 C 0.10386 0.14884 0.28255 0.0
O6 O 0.09008 0.14862 0.31166 0.0
O7 O 0.01446 0.15431 0.22893 0.0
C8 C 0.03355 0.33423 0.32252 0.0
O9 O 0.0328 0.22791 0.34237 0.0
C10 C 0.01154 0.95395 0.31606 0.0
O11 O 0.98635 1.0128 0.30701 0.0
O12 O 0.08817 0.14248 0.25588 0.0
C13 C 0.23375 0.03366 0.21748 0.0
O14 O 0.2208 0.92375 0.22918 0.0
O15 O 0.20458 0.31536 0.30219 0.0
Zn16 Zn 0.1971 0.16071 0.26831 0.0
O17 O 0.20287 0.98451 0.29138 0.0
C18 C 0.13684 0.15562 0.28254 0.0
O19 O 0.15064 0.15572 0.31165 0.0
O20 O 0.22624 0.15017 0.22891 0.0
C21 C 0.20718 0.97012 0.32248 0.0
O22 O 0.20798 0.07643 0.34232 0.0
C23 C 0.22918 0.35056 0.31601 0.0
O24 O 0.25438 0.29191 0.30691 0.0
O25 O 0.15253 0.16206 0.25587 0.0
C26 C 0.00695 0.03364 0.94148 0.0
O27 O 0.01988 0.9237 0.92977 0.0
O28 O 0.03616 0.31532 0.85677 0.0
Zn29 Zn 0.04363 0.16065 0.89065 0.0
O30 O 0.03786 0.98446 0.86759 0.0
C31 C 0.10389 0.15557 0.87642 0.0
O32 O 0.09009 0.15567 0.84732 0.0
O33 O 0.01449 0.15014 0.93004 0.0
C34 C 0.03355 0.97009 0.83648 0.0
O35 O 0.03274 0.07641 0.81664 0.0
C36 C 0.01155 0.35054 0.84295 0.0
O37 O 0.98636 0.29189 0.85206 0.0
O38 O 0.0882 0.16201 0.9031 0.0
C39 C 0.23379 0.27085 0.94147 0.0
O40 O 0.22082 0.38074 0.92977 0.0
O41 O 0.2046 0.98908 0.85677 0.0
Zn42 Zn 0.19713 0.14377 0.89064 0.0
O43 O 0.20291 0.31994 0.86756 0.0
C44 C 0.13687 0.14882 0.87642 0.0
O45 O 0.15066 0.14864 0.84731 0.0
O46 O 0.22628 0.15433 0.93004 0.0
C47 C 0.20718 0.33431 0.83645 0.0
O48 O 0.20794 0.228 0.81661 0.0
C49 C 0.2292 0.95399 0.84292 0.0
O50 O 0.25439 1.0128 0.85197 0.0
O51 O 0.15257 0.14245 0.90309 0.0
C52 C 0.98377 0.78367 0.69148 0.0
O53 O 0.97081 0.67378 0.67978 0.0
O54 O 0.95459 0.06547 0.60678 0.0
Zn55 Zn 0.94712 0.91075 0.64065 0.0
O56 O 0.95291 0.7346 0.61757 0.0
C57 C 0.88685 0.90567 0.62643 0.0
O58 O 0.90064 0.90587 0.59732 0.0
O59 O 0.97626 0.90019 0.68004 0.0
C60 C 0.95717 0.72025 0.58645 0.0
O61 O 0.95792 0.82657 0.56661 0.0
C62 C 0.97918 0.10056 0.59292 0.0
O63 O 0.00437 0.04173 0.60197 0.0
O64 O 0.90255 0.91203 0.6531 0.0
C65 C 0.75697 1.02086 0.69151 0.0
O66 O 0.76992 0.13076 0.6798 0.0
O67 O 0.78614 0.73915 0.60679 0.0
Zn68 Zn 0.79362 0.89381 0.64067 0.0
O69 O 0.78785 0.07001 0.61761 0.0
C70 C 0.85388 0.89889 0.62644 0.0
O71 O 0.84008 0.89879 0.59733 0.0
O72 O 0.76448 0.90435 0.68007 0.0
C73 C 0.78354 0.0844 0.5865 0.0
O74 O 0.78274 0.97809 0.56666 0.0
C75 C 0.76153 0.70395 0.59297 0.0
O76 O 0.73634 0.76261 0.60207 0.0
O77 O 0.83819 0.89245 0.65311 0.0
C78 C 0.98376 1.0209 -0.03251 0.0
O79 O 0.97082 0.13084 -0.0208 0.0
O80 O 0.95456 0.73924 0.0522 0.0
Zn81 Zn 0.94708 0.89389 0.01832 0.0
O82 O 0.95285 0.0701 0.04138 0.0
C83 C 0.88683 0.89901 0.03255 0.0
O84 O 0.90063 0.89894 0.06165 0.0
O85 O 0.97622 0.9044 -0.02108 0.0
C86 C 0.95718 0.08447 0.07248 0.0
O87 O 0.958 0.97815 0.09232 0.0
C88 C 0.97917 0.70398 0.066 0.0
O89 O 0.00436 0.76258 0.05688 0.0
O90 O 0.90251 0.89252 0.00588 0.0
C91 C 0.75694 0.7837 -0.03248 0.0
O92 O 0.76991 0.67382 -0.02078 0.0
O93 O 0.78612 0.06552 0.05221 0.0
Zn94 Zn 0.79358 0.9108 0.01835 0.0
O95 O 0.78779 0.73465 0.04143 0.0
C96 C 0.85385 0.90577 0.03256 0.0
O97 O 0.84006 0.906 0.06167 0.0
O98 O 0.76444 0.90022 -0.02104 0.0
C99 C 0.78354 0.72029 0.07255 0.0
O100 O 0.78281 0.8266 0.09239 0.0
C101 C 0.76152 0.10055 0.06609 0.0
O102 O 0.73634 0.04165 0.05706 0.0
O103 O 0.83815 0.91209 0.0059 0.0
C104 C 0.00696 0.77084 0.71749 0.0
O105 O 0.01992 0.88073 0.7292 0.0
O106 O 0.03614 0.48903 0.8022 0.0
Zn107 Zn 0.04361 0.64376 0.76833 0.0
O108 O 0.03782 0.81991 0.79141 0.0
C109 C 0.10388 0.64884 0.78256 0.0
O110 O 0.09009 0.64862 0.81166 0.0
O111 O 0.01447 0.65432 0.72893 0.0
C112 C 0.03356 0.83424 0.82253 0.0
O113 O 0.03281 0.72793 0.84237 0.0
C114 C 0.01155 0.45395 0.81606 0.0
O115 O 0.98636 0.51279 0.80701 0.0
O116 O 0.08818 0.64248 0.75589 0.0
C117 C 0.23376 0.53369 0.71748 0.0
O118 O 0.2208 0.42379 0.72918 0.0
O119 O 0.20459 0.8154 0.8022 0.0
Zn120 Zn 0.19711 0.66074 0.76832 0.0
O121 O 0.20289 0.48454 0.79139 0.0
C122 C 0.13685 0.65563 0.78255 0.0
O123 O 0.15065 0.65573 0.81166 0.0
O124 O 0.22625 0.6502 0.72892 0.0
C125 C 0.20719 0.47017 0.8225 0.0
O126 O 0.20798 0.57647 0.84234 0.0
C127 C 0.22919 0.85058 0.81602 0.0
O128 O 0.25438 0.79191 0.80693 0.0
O129 O 0.15254 0.66208 0.75588 0.0
C130 C 0.00695 0.53362 0.44148 0.0
O131 O 0.01989 0.42369 0.42977 0.0
O132 O 0.03615 0.8153 0.35677 0.0
Zn133 Zn 0.04362 0.66064 0.39065 0.0
O134 O 0.03785 0.48444 0.36758 0.0
C135 C 0.10388 0.65553 0.37642 0.0
O136 O 0.09008 0.65561 0.34731 0.0
O137 O 0.01448 0.65012 0.43004 0.0
C138 C 0.03353 0.47008 0.33648 0.0
O139 O 0.03273 0.57639 0.31664 0.0
C140 C 0.01154 0.85053 0.34295 0.0
O141 O 0.98635 0.79189 0.35206 0.0
O142 O 0.08819 0.66199 0.40309 0.0
C143 C 0.23377 0.77084 0.44147 0.0
O144 O 0.2208 0.88072 0.42977 0.0
O145 O 0.2046 0.48904 0.35676 0.0
Zn146 Zn 0.19713 0.64374 0.39063 0.0
O147 O 0.20291 0.8199 0.36755 0.0
C148 C 0.13686 0.64877 0.37641 0.0
O149 O 0.15065 0.64857 0.3473 0.0
O150 O 0.22627 0.65431 0.43003 0.0
C151 C 0.20717 0.83427 0.33644 0.0
O152 O 0.20792 0.72796 0.31659 0.0
C153 C 0.22919 0.45397 0.3429 0.0
O154 O 0.25438 0.51281 0.35195 0.0
O155 O 0.15256 0.64242 0.40308 0.0
C156 C 0.98377 0.28369 0.19147 0.0
O157 O 0.9708 0.17381 0.17977 0.0
O158 O 0.95459 0.56553 0.10677 0.0
Zn159 Zn 0.94713 0.41078 0.14064 0.0
O160 O 0.95292 0.23465 0.11755 0.0
C161 C 0.88686 0.40571 0.12642 0.0
O162 O 0.90064 0.40596 0.09731 0.0
O163 O 0.97627 0.40021 0.18003 0.0
C164 C 0.95717 0.22032 0.08643 0.0
O165 O 0.9579 0.32663 0.06659 0.0
C166 C 0.97918 0.60056 0.0929 0.0
O167 O 0.00437 0.54167 0.10193 0.0
O168 O 0.90256 0.41205 0.15309 0.0
C169 C 0.75697 0.52086 0.19151 0.0
O170 O 0.76992 0.63078 0.1798 0.0
O171 O 0.78614 0.23919 0.10679 0.0
Zn172 Zn 0.79363 0.39383 0.14067 0.0
O173 O 0.78786 0.57005 0.11761 0.0
C174 C 0.85388 0.39894 0.12643 0.0
O175 O 0.84008 0.39888 0.09733 0.0
O176 O 0.76449 0.40436 0.18007 0.0
C177 C 0.78353 0.58443 0.08651 0.0
O178 O 0.78271 0.47814 0.06666 0.0
C179 C 0.76153 0.20395 0.09298 0.0
O180 O 0.73634 0.26254 0.10211 0.0
O181 O 0.8382 0.39246 0.15311 0.0
C182 C 0.98377 0.52087 0.46749 0.0
O183 O 0.97083 0.6308 0.4792 0.0
O184 O 0.95457 0.23918 0.55221 0.0
Zn185 Zn 0.9471 0.39386 0.51833 0.0
O186 O 0.95287 0.57005 0.54139 0.0
C187 C 0.88684 0.39896 0.53256 0.0
O188 O 0.90064 0.39885 0.56167 0.0
O189 O 0.97623 0.40437 0.47893 0.0
C190 C 0.95718 0.58441 0.5725 0.0
O191 O 0.95798 0.47809 0.59234 0.0
C192 C 0.97918 0.20398 0.56603 0.0
O193 O 0.00437 0.26264 0.55693 0.0
O194 O 0.90253 0.39251 0.50589 0.0
C195 C 0.75695 0.28367 0.46751 0.0
O196 O 0.76993 0.1738 0.47921 0.0
O197 O 0.78612 0.56548 0.55222 0.0
Zn198 Zn 0.79359 0.41077 0.51835 0.0
O199 O 0.78781 0.23461 0.54143 0.0
C200 C 0.85386 0.40572 0.53257 0.0
O201 O 0.84007 0.40592 0.56168 0.0
O202 O 0.76445 0.4002 0.47895 0.0
C203 C 0.78354 0.22025 0.57255 0.0
O204 O 0.78279 0.32655 0.59239 0.0
C205 C 0.76153 0.60055 0.56608 0.0
O206 O 0.73634 0.54171 0.55703 0.0
O207 O 0.83816 0.41208 0.5059 0.0
C208 C 0.50695 0.27089 0.7175 0.0
O209 O 0.5199 0.3808 0.7292 0.0
O210 O 0.53614 0.98914 0.80221 0.0
Zn211 Zn 0.54361 0.14384 0.76833 0.0
O212 O 0.53783 0.32001 0.7914 0.0
C213 C 0.60387 0.14892 0.78256 0.0
O214 O 0.59008 0.14877 0.81167 0.0
O215 O 0.51447 0.15438 0.72893 0.0
C216 C 0.53354 0.33437 0.82251 0.0
O217 O 0.53276 0.22805 0.84235 0.0
C218 C 0.51154 0.95398 0.81604 0.0
O219 O 0.48635 1.01271 0.80696 0.0
O220 O 0.58818 0.14251 0.75589 0.0
C221 C 0.73377 0.03366 0.71751 0.0
O222 O 0.72082 0.92375 0.72922 0.0
O223 O 0.70459 0.31537 0.80222 0.0
Zn224 Zn 0.69711 0.16071 0.76834 0.0
O225 O 0.70288 0.98451 0.79141 0.0
C226 C 0.63685 0.15566 0.78256 0.0
O227 O 0.65065 0.15578 0.81167 0.0
O228 O 0.72626 0.15017 0.72895 0.0
C229 C 0.70718 0.97013 0.82252 0.0
O230 O 0.70797 0.07643 0.84236 0.0
C231 C 0.72919 0.35055 0.81605 0.0
O232 O 0.75438 0.29186 0.80697 0.0
O233 O 0.65255 0.16208 0.75589 0.0
C234 C 0.50696 0.03364 0.4415 0.0
O235 O 0.5199 0.92372 0.42979 0.0
O236 O 0.53616 0.31536 0.35679 0.0
Zn237 Zn 0.54363 0.16067 0.39067 0.0
O238 O 0.53785 0.98449 0.3676 0.0
C239 C 0.60389 0.15556 0.37644 0.0
O240 O 0.59009 0.15569 0.34733 0.0
O241 O 0.51449 0.15015 0.43006 0.0
C242 C 0.53355 0.97013 0.33649 0.0
O243 O 0.53276 0.07645 0.31665 0.0
C244 C 0.51155 0.35054 0.34296 0.0
O245 O 0.48636 0.29185 0.35206 0.0
O246 O 0.5882 0.162 0.40311 0.0
C247 C 0.73377 0.27081 0.4415 0.0
O248 O 0.72079 0.38068 0.4298 0.0
O249 O 0.7046 0.98899 0.3568 0.0
Zn250 Zn 0.69713 0.1437 0.39066 0.0
O251 O 0.70292 0.31986 0.36758 0.0
C252 C 0.63687 0.14877 0.37644 0.0
O253 O 0.65066 0.14856 0.34733 0.0
O254 O 0.72627 0.15428 0.43006 0.0
C255 C 0.70718 0.33422 0.33647 0.0
O256 O 0.70792 0.22791 0.31662 0.0
C257 C 0.7292 0.95394 0.34294 0.0
O258 O 0.75438 1.01281 0.35198 0.0
O259 O 0.65256 0.14242 0.40311 0.0
C260 C 0.48376 0.78364 0.1915 0.0
O261 O 0.47081 0.67374 0.1798 0.0
O262 O 0.45458 0.06539 0.10679 0.0
Zn263 Zn 0.44711 0.9107 0.14066 0.0
O264 O 0.45289 0.73452 0.11759 0.0
C265 C 0.38685 0.9056 0.12643 0.0
O266 O 0.40065 0.90573 0.09733 0.0
O267 O 0.47625 0.90016 0.18006 0.0
C268 C 0.45719 0.72017 0.08648 0.0
O269 O 0.45797 0.82648 0.06664 0.0
C270 C 0.47919 0.10055 0.09296 0.0
O271 O 0.50437 0.04183 0.10204 0.0
O272 O 0.40254 0.91202 0.1531 0.0
C273 C 0.25695 1.02085 0.19147 0.0
O274 O 0.2699 0.13076 0.17976 0.0
O275 O 0.28614 0.73912 0.10677 0.0
Zn276 Zn 0.29361 0.8938 0.14064 0.0
O277 O 0.28784 0.06999 0.11757 0.0
C278 C 0.35387 0.89884 0.12643 0.0
O279 O 0.34008 0.8987 0.09732 0.0
O280 O 0.26446 0.90434 0.18003 0.0
C281 C 0.28355 0.08437 0.08646 0.0
O282 O 0.28277 0.97806 0.06662 0.0
C283 C 0.26154 0.70397 0.09293 0.0
O284 O 0.23635 0.76269 0.102 0.0
O285 O 0.33817 0.89244 0.15309 0.0
C286 C 0.48377 1.02088 0.4675 0.0
O287 O 0.47083 0.1308 0.47921 0.0
O288 O 0.45457 0.73916 0.55221 0.0
Zn289 Zn 0.44709 0.89384 0.51833 0.0
O290 O 0.45287 0.07002 0.5414 0.0
C291 C 0.38683 0.89894 0.53255 0.0
O292 O 0.40063 0.89881 0.56166 0.0
O293 O 0.47624 0.90437 0.47894 0.0
C294 C 0.45716 0.08439 0.57251 0.0
O295 O 0.45795 0.97807 0.59235 0.0
C296 C 0.47917 0.70398 0.56604 0.0
O297 O 0.50436 0.76268 0.55694 0.0
O298 O 0.40253 0.89251 0.50588 0.0
C299 C 0.25695 0.78369 0.46748 0.0
O300 O 0.26993 0.67382 0.47918 0.0
O301 O 0.28612 0.06549 0.55219 0.0
Zn302 Zn 0.29359 0.91079 0.51832 0.0
O303 O 0.2878 0.73462 0.5414 0.0
C304 C 0.35385 0.90571 0.53255 0.0
O305 O 0.34006 0.90591 0.56166 0.0
O306 O 0.26445 0.90022 0.47892 0.0
C307 C 0.28353 0.72026 0.57251 0.0
O308 O 0.28278 0.82656 0.59235 0.0
C309 C 0.26152 0.10056 0.56604 0.0
O310 O 0.23634 0.04173 0.55699 0.0
O311 O 0.33816 0.91209 0.50588 0.0
C312 C 0.50695 0.77084 0.21751 0.0
O313 O 0.5199 0.88075 0.22922 0.0
O314 O 0.53614 0.48907 0.30222 0.0
Zn315 Zn 0.54361 0.64378 0.26835 0.0
O316 O 0.53783 0.81994 0.29142 0.0
C317 C 0.60388 0.64883 0.28257 0.0
O318 O 0.59009 0.64864 0.31168 0.0
O319 O 0.51447 0.65433 0.22895 0.0
C320 C 0.53355 0.83428 0.32254 0.0
O321 O 0.5328 0.72797 0.34238 0.0
C322 C 0.51155 0.45396 0.31607 0.0
O323 O 0.48636 0.51276 0.30701 0.0
O324 O 0.58818 0.64247 0.2559 0.0
C325 C 0.73378 0.53364 0.21751 0.0
O326 O 0.72083 0.42372 0.22922 0.0
O327 O 0.70459 0.81531 0.30222 0.0
Zn328 Zn 0.69711 0.66067 0.26834 0.0
O329 O 0.70288 0.48446 0.29141 0.0
C330 C 0.63685 0.65558 0.28257 0.0
O331 O 0.65065 0.65565 0.31167 0.0
O332 O 0.72626 0.65014 0.22895 0.0
C333 C 0.70719 0.47008 0.32251 0.0
O334 O 0.70801 0.57637 0.34235 0.0
C335 C 0.72919 0.85054 0.31604 0.0
O336 O 0.75439 0.79192 0.30693 0.0
O337 O 0.65255 0.66204 0.2559 0.0
C338 C 0.50696 0.53367 0.94149 0.0
O339 O 0.51992 0.42377 0.92979 0.0
O340 O 0.53614 0.81543 0.85678 0.0
Zn341 Zn 0.54361 0.66073 0.89065 0.0
O342 O 0.53782 0.48456 0.86758 0.0
C343 C 0.60387 0.6556 0.87643 0.0
O344 O 0.59008 0.65576 0.84732 0.0
O345 O 0.51447 0.65019 0.93005 0.0
C346 C 0.53354 0.47021 0.83647 0.0
O347 O 0.53277 0.57653 0.81662 0.0
C348 C 0.51154 0.85056 0.84294 0.0
O349 O 0.48635 0.7918 0.85201 0.0
O350 O 0.58818 0.66202 0.9031 0.0
C351 C 0.73375 0.77084 0.94151 0.0
O352 O 0.72078 0.88072 0.9298 0.0
O353 O 0.70459 0.48904 0.8568 0.0
Zn354 Zn 0.69711 0.64374 0.89066 0.0
O355 O 0.7029 0.81991 0.86759 0.0
C356 C 0.63685 0.64881 0.87643 0.0
O357 O 0.65064 0.64863 0.84732 0.0
O358 O 0.72625 0.65432 0.93006 0.0
C359 C 0.70717 0.83427 0.83647 0.0
O360 O 0.70793 0.72797 0.81663 0.0
C361 C 0.72919 0.45396 0.84295 0.0
O362 O 0.75437 0.51276 0.85201 0.0
O363 O 0.65254 0.64243 0.9031 0.0
C364 C 0.48376 0.28368 0.69148 0.0
O365 O 0.47081 0.17377 0.67978 0.0
O366 O 0.45457 0.56545 0.60678 0.0
Zn367 Zn 0.4471 0.41074 0.64065 0.0
O368 O 0.45289 0.23458 0.61757 0.0
C369 C 0.38684 0.40568 0.62642 0.0
O370 O 0.40063 0.40588 0.59731 0.0
O371 O 0.47624 0.4002 0.68005 0.0
C372 C 0.45716 0.22023 0.58646 0.0
O373 O 0.45792 0.32655 0.56662 0.0
C374 C 0.47917 0.60056 0.59293 0.0
O375 O 0.50436 0.54177 0.60199 0.0
O376 O 0.40254 0.41205 0.65309 0.0
C377 C 0.25695 0.52087 0.69148 0.0
O378 O 0.26991 0.63077 0.67978 0.0
O379 O 0.28613 0.23917 0.60676 0.0
Zn380 Zn 0.2936 0.39383 0.64064 0.0
O381 O 0.28783 0.57002 0.61757 0.0
C382 C 0.35386 0.39892 0.62642 0.0
O383 O 0.34007 0.39884 0.59731 0.0
O384 O 0.26446 0.40436 0.68003 0.0
C385 C 0.28352 0.5844 0.58647 0.0
O386 O 0.28272 0.4781 0.56663 0.0
C387 C 0.26152 0.20397 0.59294 0.0
O388 O 0.23633 0.26263 0.60204 0.0
O389 O 0.33817 0.39247 0.65309 0.0
C390 C 0.48377 0.52086 -0.0325 0.0
O391 O 0.47082 0.63076 -0.02079 0.0
O392 O 0.45459 0.2391 0.05221 0.0
Zn393 Zn 0.44712 0.39381 0.01834 0.0
O394 O 0.45291 0.56997 0.04142 0.0
C395 C 0.38686 0.39893 0.03256 0.0
O396 O 0.40065 0.39877 0.06167 0.0
O397 O 0.47626 0.40435 -0.02105 0.0
C398 C 0.45719 0.58432 0.07253 0.0
O399 O 0.45795 0.47801 0.09237 0.0
C400 C 0.47919 0.20397 0.06606 0.0
O401 O 0.50438 0.26274 0.05699 0.0
O402 O 0.40255 0.39251 0.00589 0.0
C403 C 0.25697 0.28368 -0.03252 0.0
O404 O 0.26994 0.1738 -0.02081 0.0
O405 O 0.28614 0.56545 0.05219 0.0
Zn406 Zn 0.29362 0.41077 0.01832 0.0
O407 O 0.28784 0.23459 0.0414 0.0
C408 C 0.35388 0.40571 0.03256 0.0
O409 O 0.34008 0.40587 0.06166 0.0
O410 O 0.26448 0.4002 -0.02108 0.0
C411 C 0.28355 0.22022 0.07251 0.0
O412 O 0.28278 0.32652 0.09235 0.0
C413 C 0.26154 0.60057 0.06603 0.0
O414 O 0.23635 0.5418 0.05696 0.0
O415 O 0.33819 0.4121 0.00588 0.0
loop_
_geom_bond_atom_site_label_1
_geom_bond_atom_site_label_2
_geom_bond_distance
_geom_bond_site_symmetry_2
_ccdc_geom_bond_type
C0 O1 1.160 1_455 S
C0 O7 1.185 . S
O1 C0 1.160 1_655 S
O2 Zn3 1.899 1_565 S
O2 C10 1.284 . S
Zn3 O2 1.899 1_545 S
Zn3 O4 2.032 . S
Zn3 O7 2.086 . S
Zn3 O12 1.977 . S
O4 Zn3 2.032 . S
O4 C8 1.278 . S
C5 O6 1.203 . S
C5 O12 1.267 . S
O6 C5 1.203 . S
O7 C0 1.185 . S
O7 Zn3 2.086 . S
C8 O4 1.278 . S
C8 O9 1.211 . S
O9 C8 1.211 . S
C10 O2 1.284 . S
C10 O11 1.273 1_565 S
O11 C10 1.273 1_545 S
O12 Zn3 1.977 . S
O12 C5 1.267 . S
C13 O14 1.160 . S
C13 O20 1.185 . S
O14 C13 1.160 . S
O15 Zn16 1.899 . S
O15 C23 1.284 . S
Zn16 O15 1.899 . S
Zn16 O17 2.032 1_545 S
Zn16 O20 2.086 . S
Zn16 O25 1.977 . S
O17 Zn16 2.032 1_565 S
O17 C21 1.278 . S
C18 O19 1.203 . S
C18 O25 1.267 . S
O19 C18 1.203 . S
O20 C13 1.185 . S
O20 Zn16 2.086 . S
C21 O17 1.278 . S
C21 O22 1.211 . S
O22 C21 1.211 . S
C23 O15 1.284 . S
C23 O24 1.273 . S
O24 C23 1.273 . S
O25 Zn16 1.977 . S
O25 C18 1.267 . S
C26 O27 1.160 1_455 S
C26 O33 1.185 . S
O27 C26 1.160 1_655 S
O28 Zn29 1.899 . S
O28 C36 1.284 . S
Zn29 O28 1.899 . S
Zn29 O30 2.032 1_545 S
Zn29 O33 2.086 . S
Zn29 O38 1.977 . S
O30 Zn29 2.032 1_565 S
O30 C34 1.278 . S
C31 O32 1.203 . S
C31 O38 1.267 . S
O32 C31 1.203 . S
O33 C26 1.185 . S
O33 Zn29 2.086 . S
C34 O30 1.278 . S
C34 O35 1.211 . S
O35 C34 1.211 . S
C36 O28 1.284 . S
C36 O37 1.273 . S
O37 C36 1.273 . S
O38 Zn29 1.977 . S
O38 C31 1.267 . S
C39 O40 1.160 . S
C39 O46 1.185 . S
O40 C39 1.160 . S
O41 Zn42 1.899 1_565 S
O41 C49 1.284 . S
Zn42 O41 1.899 1_545 S
Zn42 O43 2.032 . S
Zn42 O46 2.086 . S
Zn42 O51 1.977 . S
O43 Zn42 2.032 . S
O43 C47 1.278 . S
C44 O45 1.203 . S
C44 O51 1.267 . S
O45 C44 1.203 . S
O46 C39 1.185 . S
O46 Zn42 2.086 . S
C47 O43 1.278 . S
C47 O48 1.211 . S
O48 C47 1.211 . S
C49 O41 1.284 . S
C49 O50 1.273 1_565 S
O50 C49 1.273 1_545 S
O51 Zn42 1.977 . S
O51 C44 1.267 . S
C52 O53 1.160 1_655 S
C52 O59 1.185 . S
O53 C52 1.160 1_455 S
O54 Zn55 1.899 1_545 S
O54 C62 1.284 . S
Zn55 O54 1.899 1_565 S
Zn55 O56 2.032 . S
Zn55 O59 2.086 . S
Zn55 O64 1.977 . S
O56 Zn55 2.032 . S
O56 C60 1.278 . S
C57 O58 1.203 . S
C57 O64 1.267 . S
O58 C57 1.203 . S
O59 C52 1.185 . S
O59 Zn55 2.086 . S
C60 O56 1.278 . S
C60 O61 1.211 . S
O61 C60 1.211 . S
C62 O54 1.284 . S
C62 O63 1.273 1_545 S
O63 C62 1.273 1_565 S
O64 Zn55 1.977 . S
O64 C57 1.267 . S
C65 O66 1.160 . S
C65 O72 1.185 . S
O66 C65 1.160 . S
O67 Zn68 1.899 . S
O67 C75 1.284 . S
Zn68 O67 1.899 . S
Zn68 O69 2.032 1_565 S
Zn68 O72 2.086 . S
Zn68 O77 1.977 . S
O69 Zn68 2.032 1_545 S
O69 C73 1.278 . S
C70 O71 1.203 . S
C70 O77 1.267 . S
O71 C70 1.203 . S
O72 C65 1.185 . S
O72 Zn68 2.086 . S
C73 O69 1.278 . S
C73 O74 1.211 . S
O74 C73 1.211 . S
C75 O67 1.284 . S
C75 O76 1.273 . S
O76 C75 1.273 . S
O77 Zn68 1.977 . S
O77 C70 1.267 . S
C78 O79 1.160 1_655 S
C78 O85 1.185 . S
O79 C78 1.160 1_455 S
O80 Zn81 1.899 . S
O80 C88 1.284 . S
Zn81 O80 1.899 . S
Zn81 O82 2.032 1_565 S
Zn81 O85 2.086 . S
Zn81 O90 1.977 . S
O82 Zn81 2.032 1_545 S
O82 C86 1.278 . S
C83 O84 1.203 . S
C83 O90 1.267 . S
O84 C83 1.203 . S
O85 C78 1.185 . S
O85 Zn81 2.086 . S
C86 O82 1.278 . S
C86 O87 1.211 . S
O87 C86 1.211 . S
C88 O80 1.284 . S
C88 O89 1.273 . S
O89 C88 1.273 . S
O90 Zn81 1.977 . S
O90 C83 1.267 . S
C91 O92 1.160 . S
C91 O98 1.185 . S
O92 C91 1.160 . S
O93 Zn94 1.899 1_545 S
O93 C101 1.284 . S
Zn94 O93 1.899 1_565 S
Zn94 O95 2.032 . S
Zn94 O98 2.086 . S
Zn94 O103 1.977 . S
O95 Zn94 2.032 . S
O95 C99 1.278 . S
C96 O97 1.203 . S
C96 O103 1.267 . S
O97 C96 1.203 . S
O98 C91 1.185 . S
O98 Zn94 2.086 . S
C99 O95 1.278 . S
C99 O100 1.211 . S
O100 C99 1.211 . S
C101 O93 1.284 . S
C101 O102 1.273 1_545 S
O102 C101 1.273 1_565 S
O103 Zn94 1.977 . S
O103 C96 1.267 . S
C104 O105 1.160 1_455 S
C104 O111 1.185 . S
O105 C104 1.160 1_655 S
O106 Zn107 1.899 . S
O106 C114 1.284 . S
Zn107 O106 1.899 . S
Zn107 O108 2.032 . S
Zn107 O111 2.086 . S
Zn107 O116 1.977 . S
O108 Zn107 2.032 . S
O108 C112 1.278 . S
C109 O110 1.203 . S
C109 O116 1.267 . S
O110 C109 1.203 . S
O111 C104 1.185 . S
O111 Zn107 2.086 . S
C112 O108 1.278 . S
C112 O113 1.211 . S
O113 C112 1.211 . S
C114 O106 1.284 . S
C114 O115 1.273 . S
O115 C114 1.273 . S
O116 Zn107 1.977 . S
O116 C109 1.267 . S
C117 O118 1.160 . S
C117 O124 1.185 . S
O118 C117 1.160 . S
O119 Zn120 1.899 . S
O119 C127 1.284 . S
Zn120 O119 1.899 . S
Zn120 O121 2.032 . S
Zn120 O124 2.086 . S
Zn120 O129 1.977 . S
O121 Zn120 2.032 . S
O121 C125 1.278 . S
C122 O123 1.203 . S
C122 O129 1.267 . S
O123 C122 1.203 . S
O124 C117 1.185 . S
O124 Zn120 2.086 . S
C125 O121 1.278 . S
C125 O126 1.211 . S
O126 C125 1.211 . S
C127 O119 1.284 . S
C127 O128 1.273 . S
O128 C127 1.273 . S
O129 Zn120 1.977 . S
O129 C122 1.267 . S
C130 O131 1.160 1_455 S
C130 O137 1.185 . S
O131 C130 1.160 1_655 S
O132 Zn133 1.899 . S
O132 C140 1.284 . S
Zn133 O132 1.899 . S
Zn133 O134 2.032 . S
Zn133 O137 2.086 . S
Zn133 O142 1.977 . S
O134 Zn133 2.032 . S
O134 C138 1.278 . S
C135 O136 1.203 . S
C135 O142 1.267 . S
O136 C135 1.203 . S
O137 C130 1.185 . S
O137 Zn133 2.086 . S
C138 O134 1.278 . S
C138 O139 1.211 . S
O139 C138 1.211 . S
C140 O132 1.284 . S
C140 O141 1.273 . S
O141 C140 1.273 . S
O142 Zn133 1.977 . S
O142 C135 1.267 . S
C143 O144 1.160 . S
C143 O150 1.185 . S
O144 C143 1.160 . S
O145 Zn146 1.899 . S
O145 C153 1.284 . S
Zn146 O145 1.899 . S
Zn146 O147 2.032 . S
Zn146 O150 2.086 . S
Zn146 O155 1.977 . S
O147 Zn146 2.032 . S
O147 C151 1.278 . S
C148 O149 1.203 . S
C148 O155 1.267 . S
O149 C148 1.203 . S
O150 C143 1.185 . S
O150 Zn146 2.086 . S
C151 O147 1.278 . S
C151 O152 1.211 . S
O152 C151 1.211 . S
C153 O145 1.284 . S
C153 O154 1.273 . S
O154 C153 1.273 . S
O155 Zn146 1.977 . S
O155 C148 1.267 . S
C156 O157 1.160 1_655 S
C156 O163 1.185 . S
O157 C156 1.160 1_455 S
O158 Zn159 1.899 . S
O158 C166 1.284 . S
Zn159 O158 1.899 . S
Zn159 O160 2.032 . S
Zn159 O163 2.086 . S
Zn159 O168 1.977 . S
O160 Zn159 2.032 . S
O160 C164 1.278 . S
C161 O162 1.203 . S
C161 O168 1.267 . S
O162 C161 1.203 . S
O163 C156 1.185 . S
O163 Zn159 2.086 . S
C164 O160 1.278 . S
C164 O165 1.211 . S
O165 C164 1.211 . S
C166 O158 1.284 . S
C166 O167 1.273 . S
O167 C166 1.273 . S
O168 Zn159 1.977 . S
O168 C161 1.267 . S
C169 O170 1.160 . S
C169 O176 1.185 . S
O170 C169 1.160 . S
O171 Zn172 1.899 . S
O171 C179 1.284 . S
Zn172 O171 1.899 . S
Zn172 O173 2.032 . S
Zn172 O176 2.086 . S
Zn172 O181 1.977 . S
O173 Zn172 2.032 . S
O173 C177 1.278 . S
C174 O175 1.203 . S
C174 O181 1.267 . S
O175 C174 1.203 . S
O176 C169 1.185 . S
O176 Zn172 2.086 . S
C177 O173 1.278 . S
C177 O178 1.211 . S
O178 C177 1.211 . S
C179 O171 1.284 . S
C179 O180 1.273 . S
O180 C179 1.273 . S
O181 Zn172 1.977 . S
O181 C174 1.267 . S
C182 O183 1.160 1_655 S
C182 O189 1.185 . S
O183 C182 1.160 1_455 S
O184 Zn185 1.899 . S
O184 C192 1.284 . S
Zn185 O184 1.899 . S
Zn185 O186 2.032 . S
Zn185 O189 2.086 . S
Zn185 O194 1.977 . S
O186 Zn185 2.032 . S
O186 C190 1.278 . S
C187 O188 1.203 . S
C187 O194 1.267 . S
O188 C187 1.203 . S
O189 C182 1.185 . S
O189 Zn185 2.086 . S
C190 O186 1.278 . S
C190 O191 1.211 . S
O191 C190 1.211 . S
C192 O184 1.284 . S
C192 O193 1.273 . S
O193 C192 1.273 . S
O194 Zn185 1.977 . S
O194 C187 1.267 . S
C195 O196 1.160 . S
C195 O202 1.185 . S
O196 C195 1.160 . S
O197 Zn198 1.899 . S
O197 C205 1.284 . S
Zn198 O197 1.899 . S
Zn198 O199 2.032 . S
Zn198 O202 2.086 . S
Zn198 O207 1.977 . S
O199 Zn198 2.032 . S
O199 C203 1.278 . S
C200 O201 1.203 . S
C200 O207 1.267 . S
O201 C200 1.203 . S
O202 C195 1.185 . S
O202 Zn198 2.086 . S
C203 O199 1.278 . S
C203 O204 1.211 . S
O204 C203 1.211 . S
C205 O197 1.284 . S
C205 O206 1.273 . S
O206 C205 1.273 . S
O207 Zn198 1.977 . S
O207 C200 1.267 . S
C208 O209 1.160 . S
C208 O215 1.185 . S
O209 C208 1.160 . S
O210 Zn211 1.899 1_565 S
O210 C218 1.284 . S
Zn211 O210 1.899 1_545 S
Zn211 O212 2.032 . S
Zn211 O215 2.086 . S
Zn211 O220 1.977 . S
O212 Zn211 2.032 . S
O212 C216 1.278 . S
C213 O214 1.203 . S
C213 O220 1.267 . S
O214 C213 1.203 . S
O215 C208 1.185 . S
O215 Zn211 2.086 . S
C216 O212 1.278 . S
C216 O217 1.211 . S
O217 C216 1.211 . S
C218 O210 1.284 . S
C218 O219 1.273 1_565 S
O219 C218 1.273 1_545 S
O220 Zn211 1.977 . S
O220 C213 1.267 . S
C221 O222 1.160 . S
C221 O228 1.185 . S
O222 C221 1.160 . S
O223 Zn224 1.899 . S
O223 C231 1.284 . S
Zn224 O223 1.899 . S
Zn224 O225 2.032 1_545 S
Zn224 O228 2.086 . S
Zn224 O233 1.977 . S
O225 Zn224 2.032 1_565 S
O225 C229 1.278 . S
C226 O227 1.203 . S
C226 O233 1.267 . S
O227 C226 1.203 . S
O228 C221 1.185 . S
O228 Zn224 2.086 . S
C229 O225 1.278 . S
C229 O230 1.211 . S
O230 C229 1.211 . S
C231 O223 1.284 . S
C231 O232 1.273 . S
O232 C231 1.273 . S
O233 Zn224 1.977 . S
O233 C226 1.267 . S
C234 O235 1.160 . S
C234 O241 1.185 . S
O235 C234 1.160 . S
O236 Zn237 1.899 . S
O236 C244 1.284 . S
Zn237 O236 1.899 . S
Zn237 O238 2.032 1_545 S
Zn237 O241 2.086 . S
Zn237 O246 1.977 . S
O238 Zn237 2.032 1_565 S
O238 C242 1.278 . S
C239 O240 1.203 . S
C239 O246 1.267 . S
O240 C239 1.203 . S
O241 C234 1.185 . S
O241 Zn237 2.086 . S
C242 O238 1.278 . S
C242 O243 1.211 . S
O243 C242 1.211 . S
C244 O236 1.284 . S
C244 O245 1.273 . S
O245 C244 1.273 . S
O246 Zn237 1.977 . S
O246 C239 1.267 . S
C247 O248 1.160 . S
C247 O254 1.185 . S
O248 C247 1.160 . S
O249 Zn250 1.899 1_565 S
O249 C257 1.284 . S
Zn250 O249 1.899 1_545 S
Zn250 O251 2.032 . S
Zn250 O254 2.086 . S
Zn250 O259 1.977 . S
O251 Zn250 2.032 . S
O251 C255 1.278 . S
C252 O253 1.203 . S
C252 O259 1.267 . S
O253 C252 1.203 . S
O254 C247 1.185 . S
O254 Zn250 2.086 . S
C255 O251 1.278 . S
C255 O256 1.211 . S
O256 C255 1.211 . S
C257 O249 1.284 . S
C257 O258 1.273 1_565 S
O258 C257 1.273 1_545 S
O259 Zn250 1.977 . S
O259 C252 1.267 . S
C260 O261 1.160 . S
C260 O267 1.185 . S
O261 C260 1.160 . S
O262 Zn263 1.899 1_545 S
O262 C270 1.284 . S
Zn263 O262 1.899 1_565 S
Zn263 O264 2.032 . S
Zn263 O267 2.086 . S
Zn263 O272 1.977 . S
O264 Zn263 2.032 . S
O264 C268 1.278 . S
C265 O266 1.203 . S
C265 O272 1.267 . S
O266 C265 1.203 . S
O267 C260 1.185 . S
O267 Zn263 2.086 . S
C268 O264 1.278 . S
C268 O269 1.211 . S
O269 C268 1.211 . S
C270 O262 1.284 . S
C270 O271 1.273 1_545 S
O271 C270 1.273 1_565 S
O272 Zn263 1.977 . S
O272 C265 1.267 . S
C273 O274 1.160 . S
C273 O280 1.185 . S
O274 C273 1.160 . S
O275 Zn276 1.899 . S
O275 C283 1.284 . S
Zn276 O275 1.899 . S
Zn276 O277 2.032 1_565 S
Zn276 O280 2.086 . S
Zn276 O285 1.977 . S
O277 Zn276 2.032 1_545 S
O277 C281 1.278 . S
C278 O279 1.203 . S
C278 O285 1.267 . S
O279 C278 1.203 . S
O280 C273 1.185 . S
O280 Zn276 2.086 . S
C281 O277 1.278 . S
C281 O282 1.211 . S
O282 C281 1.211 . S
C283 O275 1.284 . S
C283 O284 1.273 . S
O284 C283 1.273 . S
O285 Zn276 1.977 . S
O285 C278 1.267 . S
C286 O287 1.160 . S
C286 O293 1.185 . S
O287 C286 1.160 . S
O288 Zn289 1.899 . S
O288 C296 1.284 . S
Zn289 O288 1.899 . S
Zn289 O290 2.032 1_565 S
Zn289 O293 2.086 . S
Zn289 O298 1.977 . S
O290 Zn289 2.032 1_545 S
O290 C294 1.278 . S
C291 O292 1.203 . S
C291 O298 1.267 . S
O292 C291 1.203 . S
O293 C286 1.185 . S
O293 Zn289 2.086 . S
C294 O290 1.278 . S
C294 O295 1.211 . S
O295 C294 1.211 . S
C296 O288 1.284 . S
C296 O297 1.273 . S
O297 C296 1.273 . S
O298 Zn289 1.977 . S
O298 C291 1.267 . S
C299 O300 1.160 . S
C299 O306 1.185 . S
O300 C299 1.160 . S
O301 Zn302 1.899 1_545 S
O301 C309 1.284 . S
Zn302 O301 1.899 1_565 S
Zn302 O303 2.032 . S
Zn302 O306 2.086 . S
Zn302 O311 1.977 . S
O303 Zn302 2.032 . S
O303 C307 1.278 . S
C304 O305 1.203 . S
C304 O311 1.267 . S
O305 C304 1.203 . S
O306 C299 1.185 . S
O306 Zn302 2.086 . S
C307 O303 1.278 . S
C307 O308 1.211 . S
O308 C307 1.211 . S
C309 O301 1.284 . S
C309 O310 1.273 1_545 S
O310 C309 1.273 1_565 S
O311 Zn302 1.977 . S
O311 C304 1.267 . S
C312 O313 1.160 . S
C312 O319 1.185 . S
O313 C312 1.160 . S
O314 Zn315 1.899 . S
O314 C322 1.284 . S
Zn315 O314 1.899 . S
Zn315 O316 2.032 . S
Zn315 O319 2.086 . S
Zn315 O324 1.977 . S
O316 Zn315 2.032 . S
O316 C320 1.278 . S
C317 O318 1.203 . S
C317 O324 1.267 . S
O318 C317 1.203 . S
O319 C312 1.185 . S
O319 Zn315 2.086 . S
C320 O316 1.278 . S
C320 O321 1.211 . S
O321 C320 1.211 . S
C322 O314 1.284 . S
C322 O323 1.273 . S
O323 C322 1.273 . S
O324 Zn315 1.977 . S
O324 C317 1.267 . S
C325 O326 1.160 . S
C325 O332 1.185 . S
O326 C325 1.160 . S
O327 Zn328 1.899 . S
O327 C335 1.284 . S
Zn328 O327 1.899 . S
Zn328 O329 2.032 . S
Zn328 O332 2.086 . S
Zn328 O337 1.977 . S
O329 Zn328 2.032 . S
O329 C333 1.278 . S
C330 O331 1.203 . S
C330 O337 1.267 . S
O331 C330 1.203 . S
O332 C325 1.185 . S
O332 Zn328 2.086 . S
C333 O329 1.278 . S
C333 O334 1.211 . S
O334 C333 1.211 . S
C335 O327 1.284 . S
C335 O336 1.273 . S
O336 C335 1.273 . S
O337 Zn328 1.977 . S
O337 C330 1.267 . S
C338 O339 1.160 . S
C338 O345 1.185 . S
O339 C338 1.160 . S
O340 Zn341 1.899 . S
O340 C348 1.284 . S
Zn341 O340 1.899 . S
Zn341 O342 2.032 . S
Zn341 O345 2.086 . S
Zn341 O350 1.977 . S
O342 Zn341 2.032 . S
O342 C346 1.278 . S
C343 O344 1.203 . S
C343 O350 1.267 . S
O344 C343 1.203 . S
O345 C338 1.185 . S
O345 Zn341 2.086 . S
C346 O342 1.278 . S
C346 O347 1.211 . S
O347 C346 1.211 . S
C348 O340 1.284 . S
C348 O349 1.273 . S
O349 C348 1.273 . S
O350 Zn341 1.977 . S
O350 C343 1.267 . S
C351 O352 1.160 . S
C351 O358 1.185 . S
O352 C351 1.160 . S
O353 Zn354 1.899 . S
O353 C361 1.284 . S
Zn354 O353 1.899 . S
Zn354 O355 2.032 . S
Zn354 O358 2.086 . S
Zn354 O363 1.977 . S
O355 Zn354 2.032 . S
O355 C359 1.278 . S
C356 O357 1.203 . S
C356 O363 1.267 . S
O357 C356 1.203 . S
O358 C351 1.185 . S
O358 Zn354 2.086 . S
C359 O355 1.278 . S
C359 O360 1.211 . S
O360 C359 1.211 . S
C361 O353 1.284 . S
C361 O362 1.273 . S
O362 C361 1.273 . S
O363 Zn354 1.977 . S
O363 C356 1.267 . S
C364 O365 1.160 . S
C364 O371 1.185 . S
O365 C364 1.160 . S
O366 Zn367 1.899 . S
O366 C374 1.284 . S
Zn367 O366 1.899 . S
Zn367 O368 2.032 . S
Zn367 O371 2.086 . S
Zn367 O376 1.977 . S
O368 Zn367 2.032 . S
O368 C372 1.278 . S
C369 O370 1.203 . S
C369 O376 1.267 . S
O370 C369 1.203 . S
O371 C364 1.185 . S
O371 Zn367 2.086 . S
C372 O368 1.278 . S
C372 O373 1.211 . S
O373 C372 1.211 . S
C374 O366 1.284 . S
C374 O375 1.273 . S
O375 C374 1.273 . S
O376 Zn367 1.977 . S
O376 C369 1.267 . S
C377 O378 1.160 . S
C377 O384 1.185 . S
O378 C377 1.160 . S
O379 Zn380 1.899 . S
O379 C387 1.284 . S
Zn380 O379 1.899 . S
Zn380 O381 2.032 . S
Zn380 O384 2.086 . S
Zn380 O389 1.977 . S
O381 Zn380 2.032 . S
O381 C385 1.278 . S
C382 O383 1.203 . S
C382 O389 1.267 . S
O383 C382 1.203 . S
O384 C377 1.185 . S
O384 Zn380 2.086 . S
C385 O381 1.278 . S
C385 O386 1.211 . S
O386 C385 1.211 . S
C387 O379 1.284 . S
C387 O388 1.273 . S
O388 C387 1.273 . S
O389 Zn380 1.977 . S
O389 C382 1.267 . S
C390 O391 1.160 . S
C390 O397 1.185 . S
O391 C390 1.160 . S
O392 Zn393 1.899 . S
O392 C400 1.284 . S
Zn393 O392 1.899 . S
Zn393 O394 2.032 . S
Zn393 O397 2.086 . S
Zn393 O402 1.977 . S
O394 Zn393 2.032 . S
O394 C398 1.278 . S
C395 O396 1.203 . S
C395 O402 1.267 . S
O396 C395 1.203 . S
O397 C390 1.185 . S
O397 Zn393 2.086 . S
C398 O394 1.278 . S
C398 O399 1.211 . S
O399 C398 1.211 . S
C400 O392 1.284 . S
C400 O401 1.273 . S
O401 C400 1.273 . S
O402 Zn393 1.977 . S
O402 C395 1.267 . S
C403 O404 1.160 . S
C403 O410 1.185 . S
O404 C403 1.160 . S
O405 Zn406 1.899 . S
O405 C413 1.284 . S
Zn406 O405 1.899 . S
Zn406 O407 2.032 . S
Zn406 O410 2.086 . S
Zn406 O415 1.977 . S
O407 Zn406 2.032 . S
O407 C411 1.278 . S
C408 O409 1.203 . S
C408 O415 1.267 . S
O409 C408 1.203 . S
O410 C403 1.185 . S
O410 Zn406 2.086 . S
C411 O407 1.278 . S
C411 O412 1.211 . S
O412 C411 1.211 . S
C413 O405 1.284 . S
C413 O414 1.273 . S
O414 C413 1.273 . S
O415 Zn406 1.977 . S
O415 C408 1.267 . S
C5 C18 1.427 . S
C44 C31 1.427 . S
C57 C70 1.427 . S
C83 C96 1.427 . S
C109 C122 1.427 . S
C135 C148 1.427 . S
C161 C174 1.427 . S
C187 C200 1.427 . S
C226 C213 1.427 . S
C252 C239 1.427 . S
C278 C265 1.427 . S
C304 C291 1.427 . S
C330 C317 1.427 . S
C356 C343 1.427 . S
C382 C369 1.427 . S
C408 C395 1.427 . S
C0 C156 2.032 1_455 S
C13 C273 2.032 1_545 S
C26 C78 2.032 1_446 S
C39 C403 2.032 1_556 S
C52 C104 2.032 1_655 S
C221 C65 2.032 1_545 S
C351 C91 2.032 1_556 S
C117 C377 2.032 . S
C130 C182 2.032 1_455 S
C143 C299 2.032 . S
C169 C325 2.032 . S
C195 C247 2.032 . S
C364 C208 2.032 . S
C286 C234 2.032 1_565 S
C260 C312 2.032 . S
C390 C338 2.032 1_554 S
C138 C8 0.908 . S
C151 C21 0.908 . S
C34 C112 0.908 . S
C125 C47 0.908 . S
C60 C190 0.908 . S
C73 C203 0.908 . S
C164 C86 0.908 . S
C177 C99 0.908 . S
C216 C346 0.908 . S
C359 C229 0.908 . S
C320 C242 0.908 . S
C255 C333 0.908 . S
C398 C268 0.908 . S
C281 C411 0.908 . S
C372 C294 0.908 . S
C385 C307 0.908 . S
C140 C10 1.455 . S
C153 C23 1.455 . S
C114 C36 1.455 . S
C49 C127 1.455 . S
C192 C62 1.455 . S
C205 C75 1.455 . S
C166 C88 1.455 . S
C179 C101 1.455 . S
C348 C218 1.455 . S
C361 C231 1.455 . S
C322 C244 1.455 . S
C257 C335 1.455 . S
C400 C270 1.455 . S
C283 C413 1.455 . S
C374 C296 1.455 . S
C309 C387 1.455 . S
