# Generated by pormake.
# Topology dft, (4)-cn, num edge types: 1
# Building blocks:
#     Node 0, Type 0, BuildingBlock: KUFVIS_clean_sbu_0, # of connection points: 4
#     Node 1, Type 0, BuildingBlock: KUFVIS_clean_sbu_0, # of connection points: 4
#     Node 2, Type 0, BuildingBlock: KUFVIS_clean_sbu_0, # of connection points: 4
#     Node 3, Type 0, BuildingBlock: KUFVIS_clean_sbu_0, # of connection points: 4
#     Node 4, Type 0, BuildingBlock: KUFVIS_clean_sbu_0, # of connection points: 4
#     Node 5, Type 0, BuildingBlock: KUFVIS_clean_sbu_0, # of connection points: 4
#     Node 6, Type 0, BuildingBlock: KUFVIS_clean_sbu_0, # of connection points: 4
#     Node 7, Type 0, BuildingBlock: KUFVIS_clean_sbu_0, # of connection points: 4
#     Edge 8, Type (0, 0), BuildingBlock: XIVTED_clean_linker_0, # of connection points: 2
#     Edge 9, Type (0, 0), BuildingBlock: XIVTED_clean_linker_0, # of connection points: 2
#     Edge 10, Type (0, 0), BuildingBlock: XIVTED_clean_linker_0, # of connection points: 2
#     Edge 11, Type (0, 0), BuildingBlock: XIVTED_clean_linker_0, # of connection points: 2
#     Edge 12, Type (0, 0), BuildingBlock: XIVTED_clean_linker_0, # of connection points: 2
#     Edge 13, Type (0, 0), BuildingBlock: XIVTED_clean_linker_0, # of connection points: 2
#     Edge 14, Type (0, 0), BuildingBlock: XIVTED_clean_linker_0, # of connection points: 2
#     Edge 15, Type (0, 0), BuildingBlock: XIVTED_clean_linker_0, # of connection points: 2
#     Edge 16, Type (0, 0), BuildingBlock: XIVTED_clean_linker_0, # of connection points: 2
#     Edge 17, Type (0, 0), BuildingBlock: XIVTED_clean_linker_0, # of connection points: 2
#     Edge 18, Type (0, 0), BuildingBlock: XIVTED_clean_linker_0, # of connection points: 2
#     Edge 19, Type (0, 0), BuildingBlock: XIVTED_clean_linker_0, # of connection points: 2
#     Edge 20, Type (0, 0), BuildingBlock: XIVTED_clean_linker_0, # of connection points: 2
#     Edge 21, Type (0, 0), BuildingBlock: XIVTED_clean_linker_0, # of connection points: 2
#     Edge 22, Type (0, 0), BuildingBlock: XIVTED_clean_linker_0, # of connection points: 2
#     Edge 23, Type (0, 0), BuildingBlock: XIVTED_clean_linker_0, # of connection points: 2
# Relax obj value: 0.171
# Max RMSD: 0.158
# Mean RMSD: 0.158
data_MOF--net-dft--node1-KUFVIS_clean_sbu_0--edge1-XIVTED_clean_linker_0
_symmetry_space_group_name_H-M    P1
_symmetry_Int_Tables_number       1
_symmetry_cell_setting            triclinic
loop_
_symmetry_equiv_pos_as_xyz
'x, y, z'
_cell_length_a     34.341588
_cell_length_b     34.292117
_cell_length_c     40.88578
_cell_angle_alpha  89.99602
_cell_angle_beta   89.888519
_cell_angle_gamma 90.009363
loop_
_atom_site_label
_atom_site_type_symbol
_atom_site_fract_x
_atom_site_fract_y
_atom_site_fract_z
_atom_type_partial_charge
Mn0 Mn 0.32699 0.05783 0.18954 0.0
Mn1 Mn 0.35844 0.14284 0.15649 0.0
C2 C 0.31096 0.11728 0.21256 0.0
C3 C 0.2819 0.00782 0.1988 0.0
C4 C 0.41102 0.0881 0.19347 0.0
O5 O 0.33868 0.04228 0.14224 0.0
O6 O 0.36019 0.10079 0.1234 0.0
C7 C 0.29545 0.15661 0.10845 0.0
N8 N 0.31646 0.16868 0.13479 0.0
C9 C 0.2812 0.22928 0.13722 0.0
C10 C 0.25925 0.21752 0.11007 0.0
C11 C 0.26638 0.181 0.09567 0.0
C12 C 0.30994 0.20384 0.14877 0.0
H13 H 0.30081 0.12857 0.09731 0.0
C14 C 0.35217 0.06454 0.1197 0.0
O15 O 0.3188 0.00309 0.20407 0.0
O16 O 0.27132 0.04086 0.18602 0.0
N17 N 0.35713 0.18559 0.18654 0.0
C18 C 0.37885 0.19124 0.21399 0.0
C19 C 0.3743 0.22581 0.23199 0.0
C20 C 0.34758 0.25417 0.22155 0.0
C21 C 0.32538 0.2476 0.19334 0.0
C22 C 0.33143 0.21276 0.17622 0.0
H23 H 0.39942 0.1695 0.2221 0.0
O24 O 0.31258 0.08629 0.23081 0.0
O25 O 0.32096 0.11281 0.18232 0.0
O26 O 0.38519 0.06239 0.19919 0.0
O27 O 0.40399 0.11971 0.17825 0.0
C28 C 0.29712 0.27398 0.1818 0.0
C29 C 0.27505 0.26483 0.15375 0.0
H30 H 0.23661 0.23612 0.10027 0.0
H31 H 0.24946 0.17167 0.07478 0.0
H32 H 0.39139 0.23061 0.25383 0.0
H33 H 0.34434 0.28086 0.23539 0.0
H34 H 0.2917 0.3011 0.19461 0.0
H35 H 0.25298 0.28507 0.14541 0.0
Mn36 Mn 0.03949 0.3217 0.68691 0.0
Mn37 Mn 0.95222 0.35395 0.65974 0.0
C38 C 0.98238 0.30594 0.71369 0.0
C39 C 0.08956 0.27621 0.69331 0.0
C40 C 0.01034 0.40598 0.69345 0.0
O41 O 0.0509 0.3337 0.63883 0.0
O42 O 0.99135 0.35624 0.62424 0.0
C43 C 0.93478 0.29174 0.61168 0.0
N44 N 0.92484 0.31218 0.63902 0.0
C45 C 0.86506 0.27617 0.64468 0.0
C46 C 0.8746 0.25483 0.61653 0.0
C47 C 0.90964 0.26262 0.6 0.0
C48 C 0.89111 0.30503 0.65504 0.0
H49 H 0.96169 0.29756 0.59889 0.0
C50 C 0.02695 0.3478 0.61786 0.0
O51 O 0.09512 0.31316 0.69804 0.0
O52 O 0.05563 0.26586 0.68229 0.0
N53 N 0.91203 0.35195 0.6922 0.0
C54 C 0.90856 0.3731 0.72025 0.0
C55 C 0.87583 0.36764 0.74039 0.0
C56 C 0.84701 0.34062 0.73142 0.0
C57 C 0.85126 0.31916 0.70245 0.0
C58 C 0.88437 0.32602 0.68325 0.0
H59 H 0.93071 0.39382 0.72727 0.0
O60 O 0.01487 0.30742 0.72986 0.0
O61 O 0.9841 0.31597 0.68325 0.0
O62 O 0.0362 0.37981 0.69698 0.0
O63 O 0.97717 0.39935 0.68069 0.0
C64 C 0.82428 0.29079 0.69213 0.0
C65 C 0.83113 0.26936 0.66324 0.0
H66 H 0.85542 0.23216 0.60757 0.0
H67 H 0.91729 0.24618 0.57833 0.0
H68 H 0.87283 0.38417 0.7628 0.0
H69 H 0.82185 0.33645 0.74702 0.0
H70 H 0.79839 0.28486 0.70642 0.0
H71 H 0.81042 0.24726 0.65581 0.0
Mn72 Mn 0.7748 0.04879 0.18427 0.0
Mn73 Mn 0.74201 0.96192 0.1562 0.0
C74 C 0.79107 0.99101 0.21001 0.0
C75 C 0.82028 0.099 0.19033 0.0
C76 C 0.69067 0.01976 0.19123 0.0
O77 O 0.76212 0.06103 0.1365 0.0
O78 O 0.74011 0.00139 0.12098 0.0
C79 C 0.80383 0.94357 0.10799 0.0
N80 N 0.7832 0.93388 0.13529 0.0
C81 C 0.81761 0.87305 0.14042 0.0
C82 C 0.83916 0.88233 0.11232 0.0
C83 C 0.83227 0.91778 0.09607 0.0
C84 C 0.78949 0.89978 0.15104 0.0
H85 H 0.79863 0.97077 0.09543 0.0
C86 C 0.74817 0.03727 0.11531 0.0
O87 O 0.78352 0.10436 0.1959 0.0
O88 O 0.83044 0.0651 0.17892 0.0
N89 N 0.74332 0.92162 0.18849 0.0
C90 C 0.72208 0.91852 0.21654 0.0
C91 C 0.72642 0.88538 0.23632 0.0
C92 C 0.75243 0.85581 0.227 0.0
C93 C 0.77422 0.85978 0.19814 0.0
C94 C 0.7684 0.89332 0.17927 0.0
H95 H 0.70204 0.9412 0.2238 0.0
O96 O 0.78993 0.02329 0.22663 0.0
O97 O 0.78044 0.99328 0.17976 0.0
O98 O 0.71685 0.0455 0.19532 0.0
O99 O 0.6971 0.98716 0.17736 0.0
C100 C 0.8018 0.83207 0.18754 0.0
C101 C 0.82347 0.83871 0.15871 0.0
H102 H 0.86129 0.86264 0.10316 0.0
H103 H 0.84889 0.9252 0.07443 0.0
H104 H 0.70969 0.88258 0.25865 0.0
H105 H 0.75535 0.83027 0.24227 0.0
H106 H 0.80695 0.80579 0.20155 0.0
H107 H 0.84498 0.81746 0.15108 0.0
Mn108 Mn 0.05732 0.77029 0.68861 0.0
Mn109 Mn 0.14526 0.7379 0.66293 0.0
C110 C 0.11358 0.78503 0.71701 0.0
C111 C 0.00746 0.81617 0.69393 0.0
C112 C 0.08466 0.68552 0.69366 0.0
O113 O 0.04791 0.75935 0.64006 0.0
O114 O 0.10842 0.73904 0.62584 0.0
C115 C 0.1678 0.80201 0.61818 0.0
N116 N 0.17515 0.77993 0.64517 0.0
C117 C 0.23552 0.81361 0.65482 0.0
C118 C 0.22864 0.83665 0.62711 0.0
C119 C 0.19459 0.83086 0.60874 0.0
C120 C 0.20791 0.78514 0.66293 0.0
H121 H 0.14169 0.7977 0.60397 0.0
C122 C 0.07302 0.74761 0.61892 0.0
O123 O 0.00136 0.77923 0.69824 0.0
O124 O 0.04201 0.82635 0.68409 0.0
N125 N 0.18311 0.73694 0.69722 0.0
C126 C 0.18387 0.71442 0.72466 0.0
C127 C 0.21515 0.71796 0.74654 0.0
C128 C 0.24532 0.7445 0.73992 0.0
C129 C 0.24385 0.76739 0.71154 0.0
C130 C 0.21203 0.76251 0.69059 0.0
H131 H 0.16067 0.69408 0.72989 0.0
O132 O 0.08044 0.78374 0.73236 0.0
O133 O 0.11282 0.77537 0.68648 0.0
O134 O 0.05945 0.71208 0.69822 0.0
O135 O 0.11791 0.69198 0.68088 0.0
C136 C 0.27238 0.79529 0.70347 0.0
C137 C 0.2683 0.81831 0.6751 0.0
H138 H 0.2491 0.8591 0.61987 0.0
H139 H 0.189 0.84861 0.58738 0.0
H140 H 0.21597 0.70032 0.76848 0.0
H141 H 0.26932 0.74723 0.75691 0.0
H142 H 0.2974 0.79955 0.71907 0.0
H143 H 0.29023 0.83999 0.6694 0.0
Mn144 Mn 0.32201 0.04214 0.81011 0.0
Mn145 Mn 0.35296 0.95619 0.84144 0.0
C146 C 0.30712 0.98358 0.78518 0.0
C147 C 0.27697 0.09205 0.80092 0.0
C148 C 0.40625 0.01226 0.8065 0.0
O149 O 0.33226 0.05616 0.85793 0.0
O150 O 0.35426 0.99729 0.87537 0.0
C151 C 0.28886 0.94142 0.88843 0.0
N152 N 0.31043 0.92993 0.86215 0.0
C153 C 0.27462 0.8698 0.85791 0.0
C154 C 0.25211 0.88094 0.88499 0.0
C155 C 0.25924 0.91693 0.90027 0.0
C156 C 0.3039 0.89529 0.84733 0.0
H157 H 0.29417 0.96908 0.90022 0.0
C158 C 0.34584 0.0333 0.87995 0.0
O159 O 0.31402 0.09725 0.7967 0.0
O160 O 0.26615 0.05863 0.81286 0.0
N161 N 0.35218 0.91422 0.81061 0.0
C162 C 0.37471 0.90906 0.78349 0.0
C163 C 0.37051 0.87494 0.76486 0.0
C164 C 0.34327 0.84653 0.77433 0.0
C165 C 0.32022 0.85262 0.8022 0.0
C166 C 0.32603 0.88697 0.82003 0.0
H167 H 0.39569 0.93083 0.77613 0.0
O168 O 0.30922 0.01527 0.76785 0.0
O169 O 0.31597 0.98686 0.81577 0.0
O170 O 0.38048 0.03819 0.80145 0.0
O171 O 0.39897 0.97989 0.82053 0.0
C172 C 0.29139 0.8262 0.81275 0.0
C173 C 0.2686 0.83479 0.84057 0.0
H174 H 0.22907 0.86226 0.89407 0.0
H175 H 0.24189 0.9258 0.92111 0.0
H176 H 0.38827 0.8705 0.74329 0.0
H177 H 0.34034 0.82015 0.76004 0.0
H178 H 0.28615 0.79946 0.79939 0.0
H179 H 0.24615 0.81451 0.84817 0.0
Mn180 Mn 0.05848 0.3294 0.30505 0.0
Mn181 Mn 0.14538 0.35134 0.33879 0.0
C182 C 0.11599 0.31499 0.27808 0.0
C183 C 0.0074 0.28609 0.29468 0.0
C184 C 0.0888 0.41184 0.31275 0.0
O185 O 0.04593 0.33638 0.35396 0.0
O186 O 0.10744 0.34114 0.37414 0.0
C187 C 0.16684 0.27696 0.37089 0.0
N188 N 0.1749 0.30558 0.34882 0.0
C189 C 0.23526 0.27464 0.33377 0.0
C190 C 0.22772 0.24504 0.35657 0.0
C191 C 0.1933 0.24617 0.37515 0.0
C192 C 0.20798 0.30481 0.33084 0.0
H193 H 0.14027 0.27746 0.38486 0.0
C194 C 0.07044 0.33785 0.37764 0.0
O195 O 0.00281 0.32354 0.29221 0.0
O196 O 0.04079 0.27397 0.30548 0.0
N197 N 0.18386 0.36066 0.30569 0.0
C198 C 0.18507 0.38944 0.28274 0.0
C199 C 0.21657 0.39117 0.26083 0.0
C200 C 0.24651 0.36338 0.26278 0.0
C201 C 0.24462 0.33401 0.28659 0.0
C202 C 0.21259 0.33384 0.30784 0.0
H203 H 0.1621 0.41081 0.28103 0.0
O204 O 0.08403 0.31902 0.2615 0.0
O205 O 0.11312 0.32105 0.30913 0.0
O206 O 0.06507 0.38812 0.29958 0.0
O207 O 0.11832 0.40109 0.32939 0.0
C208 C 0.27282 0.30443 0.28959 0.0
C209 C 0.2682 0.27479 0.31318 0.0
H210 H 0.24787 0.22103 0.35968 0.0
H211 H 0.18707 0.22324 0.39259 0.0
H212 H 0.21773 0.41382 0.24243 0.0
H213 H 0.27061 0.36462 0.24568 0.0
H214 H 0.29791 0.30394 0.27358 0.0
H215 H 0.28978 0.25184 0.31486 0.0
Mn216 Mn 0.77085 0.05052 0.80515 0.0
Mn217 Mn 0.74044 0.13683 0.83613 0.0
C218 C 0.78618 0.10876 0.77995 0.0
C219 C 0.81592 0.00056 0.79632 0.0
C220 C 0.68682 0.08097 0.80154 0.0
O221 O 0.76045 0.03682 0.85299 0.0
O222 O 0.73839 0.09581 0.87016 0.0
C223 C 0.80416 0.15088 0.88342 0.0
N224 N 0.78309 0.16257 0.85698 0.0
C225 C 0.81986 0.22212 0.85276 0.0
C226 C 0.84185 0.21078 0.88001 0.0
C227 C 0.83399 0.17498 0.89536 0.0
C228 C 0.79031 0.19705 0.8421 0.0
H229 H 0.79831 0.12338 0.89528 0.0
C230 C 0.74672 0.05981 0.87487 0.0
O231 O 0.7789 0.99528 0.79199 0.0
O232 O 0.8266 0.03408 0.80809 0.0
N233 N 0.7421 0.17873 0.80523 0.0
C234 C 0.72017 0.18403 0.77786 0.0
C235 C 0.72546 0.21779 0.75893 0.0
C236 C 0.75313 0.24576 0.76839 0.0
C237 C 0.77541 0.23963 0.79662 0.0
C238 C 0.76864 0.20558 0.81466 0.0
H239 H 0.69894 0.16254 0.77047 0.0
O240 O 0.78387 0.077 0.76274 0.0
O241 O 0.7772 0.10572 0.81056 0.0
O242 O 0.71237 0.05473 0.79669 0.0
O243 O 0.69437 0.11355 0.81513 0.0
C244 C 0.8045 0.26564 0.80727 0.0
C245 C 0.82668 0.25692 0.83533 0.0
H246 H 0.86506 0.22914 0.88915 0.0
H247 H 0.85093 0.16594 0.91633 0.0
H248 H 0.70829 0.22225 0.73708 0.0
H249 H 0.75713 0.27175 0.75374 0.0
H250 H 0.81042 0.29218 0.79382 0.0
H251 H 0.84933 0.27689 0.843 0.0
Mn252 Mn 0.03983 0.77701 0.30702 0.0
Mn253 Mn 0.95138 0.74992 0.33466 0.0
C254 C 0.98404 0.79085 0.27729 0.0
C255 C 0.09005 0.8225 0.30052 0.0
C256 C 0.01332 0.69307 0.31176 0.0
O257 O 0.04791 0.76891 0.35655 0.0
O258 O 0.98496 0.76095 0.37253 0.0
C259 C 0.92205 0.82151 0.36687 0.0
N260 N 0.91838 0.79359 0.34339 0.0
C261 C 0.85785 0.82113 0.32481 0.0
C262 C 0.86097 0.85015 0.34882 0.0
C263 C 0.89327 0.85039 0.36988 0.0
C264 C 0.8874 0.79307 0.32303 0.0
H265 H 0.94689 0.82185 0.383 0.0
C266 C 0.0213 0.76566 0.37864 0.0
O267 O 0.09618 0.78533 0.29768 0.0
O268 O 0.05539 0.83312 0.30964 0.0
N269 N 0.91732 0.73952 0.29872 0.0
C270 C 0.92023 0.71139 0.2753 0.0
C271 C 0.89121 0.70836 0.2513 0.0
C272 C 0.85944 0.73414 0.25172 0.0
C273 C 0.85716 0.76288 0.27603 0.0
C274 C 0.88698 0.76457 0.29925 0.0
H275 H 0.94453 0.69146 0.27487 0.0
O276 O 0.01737 0.78841 0.26235 0.0
O277 O 0.98476 0.78295 0.30809 0.0
O278 O 0.03658 0.71817 0.29982 0.0
O279 O 0.98197 0.70207 0.32667 0.0
C280 C 0.82667 0.79019 0.27787 0.0
C281 C 0.82697 0.81933 0.30221 0.0
H282 H 0.83894 0.87259 0.35111 0.0
H283 H 0.89598 0.87281 0.38836 0.0
H284 H 0.89329 0.68619 0.23254 0.0
H285 H 0.83714 0.73179 0.23312 0.0
H286 H 0.80299 0.78899 0.26057 0.0
H287 H 0.80354 0.84045 0.30308 0.0
H288 H 0.41584 0.06479 0.0807 0.0
H289 H 0.28801 0.06047 0.91914 0.0
H290 H 0.29348 0.03712 0.08192 0.0
H291 H 0.41017 0.0319 0.91786 0.0
H292 H 0.29035 0.0638 0.97919 0.0
H293 H 0.41555 0.06044 0.02086 0.0
C294 C 0.38925 0.05648 0.06829 0.0
C295 C 0.35484 0.05038 0.08601 0.0
C296 C 0.31674 0.05743 0.96566 0.0
C297 C 0.3537 0.04769 0.01794 0.0
C298 C 0.31557 0.05636 0.93152 0.0
C299 C 0.34912 0.04663 0.91383 0.0
C300 C 0.35181 0.04912 0.98189 0.0
C301 C 0.3839 0.04011 0.93084 0.0
C302 C 0.38895 0.05453 0.03425 0.0
C303 C 0.32076 0.04099 0.06898 0.0
N304 N 0.38439 0.04148 0.96401 0.0
N305 N 0.32087 0.04051 0.03573 0.0
H306 H 0.08286 0.30615 0.585 0.0
H307 H 0.01782 0.38512 0.40863 0.0
H308 H 0.99535 0.39504 0.57145 0.0
H309 H 0.09428 0.28725 0.424 0.0
H310 H 0.00889 0.3902 0.46821 0.0
H311 H 0.09073 0.30231 0.5256 0.0
C312 C 0.06595 0.32543 0.56958 0.0
C313 C 0.0383 0.35076 0.58314 0.0
C314 C 0.02728 0.36733 0.45845 0.0
C315 C 0.04633 0.34592 0.51527 0.0
C316 C 0.03185 0.36413 0.42453 0.0
C317 C 0.05681 0.33577 0.41162 0.0
C318 C 0.04802 0.34204 0.47924 0.0
C319 C 0.07511 0.30975 0.43309 0.0
C320 C 0.07 0.32288 0.53566 0.0
C321 C 0.01679 0.37481 0.56196 0.0
N322 N 0.07058 0.31366 0.46584 0.0
N323 N 0.02106 0.37162 0.52909 0.0
H324 H 0.68185 0.0561 0.91233 0.0
H325 H 0.80391 0.06966 0.07662 0.0
H326 H 0.80612 0.03944 0.91468 0.0
H327 H 0.68547 0.0281 0.07613 0.0
H328 H 0.80296 0.07125 0.0165 0.0
H329 H 0.68042 0.05413 0.9723 0.0
C330 C 0.7086 0.05068 0.92559 0.0
C331 C 0.74401 0.04689 0.90886 0.0
C332 C 0.77703 0.06237 0.02966 0.0
C333 C 0.74301 0.04708 0.97694 0.0
C334 C 0.77732 0.06224 0.06382 0.0
C335 C 0.74455 0.04923 0.08106 0.0
C336 C 0.74356 0.04988 0.01295 0.0
C337 C 0.71113 0.03871 0.06351 0.0
C338 C 0.70788 0.05011 0.95967 0.0
C339 C 0.77817 0.04136 0.9269 0.0
N340 N 0.71145 0.03923 0.03033 0.0
N341 N 0.77696 0.0422 0.96012 0.0
H342 H 0.09159 0.74813 0.40781 0.0
H343 H 0.00604 0.7741 0.58929 0.0
H344 H 0.97394 0.78457 0.42943 0.0
H345 H 0.11759 0.72136 0.56805 0.0
H346 H 0.99468 0.78064 0.53052 0.0
H347 H 0.10385 0.74277 0.46683 0.0
C348 C 0.06858 0.75545 0.42489 0.0
C349 C 0.03167 0.76651 0.41367 0.0
C350 C 0.02156 0.76745 0.53881 0.0
C351 C 0.04518 0.76014 0.48084 0.0
C352 C 0.0279 0.76346 0.57237 0.0
C353 C 0.06282 0.74728 0.58376 0.0
C354 C 0.0504 0.75533 0.51652 0.0
C355 C 0.09024 0.73422 0.56055 0.0
C356 C 0.07542 0.75209 0.45851 0.0
C357 C 0.00277 0.77552 0.43689 0.0
N358 N 0.08354 0.73875 0.52811 0.0
N359 N 0.0101 0.77202 0.46927 0.0
H360 H 0.47254 0.13893 0.1962 0.0
H361 H 0.62921 0.96948 0.1983 0.0
H362 H 0.44277 0.01784 0.21105 0.0
H363 H 0.65961 0.09137 0.20569 0.0
H364 H 0.56098 0.98658 0.20686 0.0
H365 H 0.54113 0.12253 0.20359 0.0
C366 C 0.48036 0.10895 0.20137 0.0
C367 C 0.45185 0.07963 0.20255 0.0
C368 C 0.58262 0.00955 0.20705 0.0
C369 C 0.53042 0.06061 0.21074 0.0
C370 C 0.62161 -0.00019 0.20206 0.0
C371 C 0.65016 0.02909 0.20083 0.0
C372 C 0.57197 0.04889 0.21038 0.0
C373 C 0.6386 0.06784 0.20626 0.0
C374 C 0.51955 0.09963 0.20567 0.0
C375 C 0.46372 0.04138 0.20972 0.0
N376 N 0.60032 0.07667 0.21031 0.0
N377 N 0.50214 0.03289 0.21306 0.0
H378 H 0.08193 0.43476 0.7105 0.0
H379 H 0.01229 0.657 0.70881 0.0
H380 H 0.96251 0.47017 0.69572 0.0
H381 H 0.13199 0.62108 0.69644 0.0
H382 H 0.99366 0.58882 0.7158 0.0
H383 H 0.10013 0.50301 0.71735 0.0
C384 C 0.05938 0.45677 0.70912 0.0
C385 C 0.02064 0.44664 0.70207 0.0
C386 C 0.02403 0.59593 0.71184 0.0
C387 C 0.0415 0.52493 0.70984 0.0
C388 C 0.03478 0.63488 0.70795 0.0
C389 C 0.07377 0.64482 0.70161 0.0
C390 C 0.05246 0.56668 0.70963 0.0
C391 C 0.10154 0.61479 0.70087 0.0
C392 C 0.0699 0.49578 0.71291 0.0
C393 C 0.99279 0.47658 0.70072 0.0
N394 N 0.0903 0.57705 0.70463 0.0
N395 N 0.00382 0.5144 0.70432 0.0
H396 H 0.62504 0.13151 0.79816 0.0
H397 H 0.4681 0.96184 0.80291 0.0
H398 H 0.65474 0.00981 0.78728 0.0
H399 H 0.43777 0.08313 0.7903 0.0
H400 H 0.53651 0.97862 0.79456 0.0
H401 H 0.55631 0.11457 0.79247 0.0
C402 C 0.61718 0.10128 0.79421 0.0
C403 C 0.64574 0.072 0.79358 0.0
C404 C 0.51483 0.00149 0.79323 0.0
C405 C 0.56702 0.05238 0.78737 0.0
C406 C 0.47575 0.99195 0.79809 0.0
C407 C 0.44713 0.02117 0.79768 0.0
C408 C 0.52549 0.04061 0.78833 0.0
C409 C 0.4588 0.05963 0.79099 0.0
C410 C 0.5779 0.09164 0.79091 0.0
C411 C 0.63378 0.03337 0.78809 0.0
N412 N 0.49712 0.0683 0.78702 0.0
N413 N 0.59531 0.02462 0.78566 0.0
H414 H 0.05915 0.45177 0.26042 0.0
H415 H 0.00272 0.63868 0.35905 0.0
H416 H 0.099 0.46714 0.35958 0.0
H417 H 0.04909 0.6534 0.26169 0.0
H418 H 0.02355 0.57034 0.35812 0.0
H419 H 0.04206 0.52153 0.25848 0.0
C420 C 0.0644 0.46988 0.28166 0.0
C421 C 0.08055 0.4539 0.31018 0.0
C422 C 0.02901 0.58859 0.33697 0.0
C423 C 0.06024 0.53263 0.30836 0.0
C424 C 0.01694 0.62736 0.33735 0.0
C425 C 0.02424 0.65154 0.31038 0.0
C426 C 0.04749 0.57365 0.30909 0.0
C427 C 0.04311 0.6356 0.28299 0.0
C428 C 0.05482 0.50948 0.28048 0.0
C429 C 0.08687 0.47847 0.33707 0.0
N430 N 0.05378 0.59735 0.28285 0.0
N431 N 0.07611 0.51654 0.3357 0.0
H432 H 0.15976 0.32179 0.22185 0.0
H433 H 0.25394 0.1473 0.17548 0.0
H434 H 0.14031 0.2491 0.30637 0.0
H435 H 0.30724 0.15827 0.27043 0.0
H436 H 0.21064 0.20154 0.18854 0.0
H437 H 0.21189 0.27659 0.20424 0.0
C438 C 0.16674 0.29658 0.23667 0.0
C439 C 0.1469 0.28948 0.26597 0.0
C440 C 0.23237 0.19259 0.20619 0.0
C441 C 0.20565 0.23894 0.24663 0.0
C442 C 0.25703 0.16178 0.19887 0.0
C443 C 0.28525 0.1497 0.22144 0.0
C444 C 0.2348 0.21019 0.23688 0.0
C445 C 0.28645 0.16759 0.25216 0.0
C446 C 0.19635 0.27114 0.22684 0.0
C447 C 0.15611 0.25613 0.2842 0.0
N448 N 0.26111 0.19693 0.25921 0.0
N449 N 0.18523 0.23225 0.27446 0.0
H450 H 0.94681 0.30273 0.77394 0.0
H451 H 0.78756 0.14678 0.72078 0.0
H452 H 0.9489 0.2489 0.67865 0.0
H453 H 0.84458 0.1405 0.8145 0.0
H454 H 0.83321 0.19907 0.7048 0.0
H455 H 0.89473 0.25695 0.79022 0.0
C456 C 0.93589 0.2817 0.75645 0.0
C457 C 0.95091 0.28023 0.72467 0.0
C458 C 0.83497 0.18659 0.72906 0.0
C459 C 0.89196 0.22901 0.74262 0.0
C460 C 0.80924 0.15686 0.73802 0.0
C461 C 0.81167 0.14058 0.7693 0.0
C462 C 0.86277 0.19979 0.75169 0.0
C463 C 0.84084 0.15362 0.79063 0.0
C464 C 0.90629 0.25591 0.76559 0.0
C465 C 0.93678 0.2519 0.70298 0.0
N466 N 0.86505 0.18285 0.78161 0.0
N467 N 0.90772 0.22762 0.7122 0.0
H468 H 0.94404 0.78965 0.21871 0.0
H469 H 0.79533 0.95585 0.27028 0.0
H470 H 0.95804 0.85433 0.30835 0.0
H471 H 0.84651 0.95587 0.17392 0.0
H472 H 0.84086 0.90349 0.2861 0.0
H473 H 0.89309 0.8366 0.20193 0.0
C474 C 0.93613 0.81344 0.23482 0.0
C475 C 0.95408 0.81769 0.26529 0.0
C476 C 0.8412 0.91447 0.26128 0.0
C477 C 0.89636 0.87006 0.24692 0.0
C478 C 0.81558 0.94429 0.25241 0.0
C479 C 0.81637 0.95889 0.22049 0.0
C480 C 0.86717 0.8993 0.2379 0.0
C481 C 0.84388 0.94398 0.19835 0.0
C482 C 0.90715 0.83988 0.22544 0.0
C483 C 0.94366 0.84935 0.28518 0.0
N484 N 0.86793 0.91458 0.2073 0.0
N485 N 0.91511 0.8741 0.27587 0.0
H486 H 0.14834 0.78758 0.77765 0.0
H487 H 0.30684 0.9455 0.72608 0.0
H488 H 0.14713 0.84278 0.68289 0.0
H489 H 0.24901 0.95079 0.81966 0.0
H490 H 0.262 0.8927 0.7099 0.0
H491 H 0.20005 0.83344 0.79465 0.0
C492 C 0.15933 0.80895 0.76044 0.0
C493 C 0.14467 0.8108 0.72859 0.0
C494 C 0.25995 0.90501 0.73421 0.0
C495 C 0.20316 0.86209 0.74735 0.0
C496 C 0.28519 0.93506 0.74327 0.0
C497 C 0.28227 0.95127 0.77454 0.0
C498 C 0.23212 0.89137 0.75674 0.0
C499 C 0.25314 0.93774 0.7958 0.0
C500 C 0.18871 0.83478 0.76999 0.0
C501 C 0.15892 0.83951 0.70727 0.0
N502 N 0.22939 0.9082 0.78668 0.0
N503 N 0.18773 0.8638 0.71688 0.0
H504 H 0.8022 0.92596 0.77578 0.0
H505 H 0.01726 0.89473 0.70391 0.0
H506 H 0.89457 0.0101 0.78743 0.0
H507 H 0.93122 0.80328 0.70978 0.0
H508 H 0.97098 0.93954 0.72991 0.0
H509 H 0.848 0.88194 0.74873 0.0
C510 C 0.83225 0.935 0.77301 0.0
C511 C 0.84458 0.97174 0.78402 0.0
C512 C 0.96217 0.90973 0.72529 0.0
C513 C 0.8971 0.92172 0.75237 0.0
C514 C 0.98843 0.88424 0.71013 0.0
C515 C 0.9781 0.84518 0.70464 0.0
C516 C 0.92524 0.89612 0.73485 0.0
C517 C 0.94047 0.83312 0.71356 0.0
C518 C 0.85837 0.90991 0.7574 0.0
C519 C 0.88385 0.98195 0.77956 0.0
N520 N 0.91549 0.85842 0.72826 0.0
N521 N 0.90864 0.9572 0.76388 0.0
H522 H 0.29584 0.93337 0.2196 0.0
H523 H 0.08046 0.90094 0.29016 0.0
H524 H 0.20297 0.01664 0.20677 0.0
H525 H 0.16615 0.80924 0.28371 0.0
H526 H 0.12666 0.94571 0.2641 0.0
H527 H 0.24992 0.88882 0.24596 0.0
C528 C 0.26566 0.94213 0.22199 0.0
C529 C 0.25323 0.97878 0.21083 0.0
C530 C 0.13542 0.91585 0.26855 0.0
C531 C 0.20054 0.92811 0.24168 0.0
C532 C 0.10919 0.89035 0.28374 0.0
C533 C 0.11944 0.85124 0.2892 0.0
C534 C 0.17231 0.90226 0.25893 0.0
C535 C 0.15697 0.83912 0.28002 0.0
C536 C 0.23947 0.91671 0.23718 0.0
C537 C 0.21378 0.98858 0.21477 0.0
N538 N 0.18197 0.86447 0.26533 0.0
N539 N 0.18892 0.96354 0.23008 0.0
H540 H 0.07974 0.1975 0.70261 0.0
H541 H 0.29099 0.16699 0.78155 0.0
H542 H 0.16476 0.28943 0.71204 0.0
H543 H 0.19872 0.08215 0.78986 0.0
H544 H 0.24625 0.21098 0.75343 0.0
H545 H 0.12476 0.1528 0.73014 0.0
C546 C 0.10811 0.20812 0.70994 0.0
C547 C 0.1185 0.24729 0.70496 0.0
C548 C 0.23564 0.18288 0.7616 0.0
C549 C 0.1699 0.19645 0.73693 0.0
C550 C 0.26115 0.15779 0.77783 0.0
C551 C 0.24857 0.12085 0.78821 0.0
C552 C 0.19726 0.17088 0.75529 0.0
C553 C 0.2096 0.11047 0.78252 0.0
C554 C 0.13363 0.18269 0.72597 0.0
C555 C 0.1555 0.25951 0.71534 0.0
N556 N 0.18541 0.13521 0.76622 0.0
N557 N 0.17976 0.23426 0.73086 0.0
H558 H 0.93313 0.30208 0.2742 0.0
H559 H 0.89913 0.08965 0.19764 0.0
H560 H 0.01538 0.20769 0.28386 0.0
H561 H 0.8073 0.17446 0.20902 0.0
H562 H 0.94448 0.13521 0.22367 0.0
H563 H 0.8882 0.25768 0.24644 0.0
C564 C 0.94157 0.27192 0.27082 0.0
C565 C 0.97803 0.25857 0.28153 0.0
C566 C 0.91446 0.14393 0.22026 0.0
C567 C 0.92704 0.20775 0.2491 0.0
C568 C 0.88864 0.11809 0.20509 0.0
C569 C 0.84934 0.12823 0.20115 0.0
C570 C 0.90096 0.18032 0.23136 0.0
C571 C 0.83733 0.16537 0.2116 0.0
C572 C 0.91597 0.24662 0.25483 0.0
C573 C 0.98748 0.21921 0.27624 0.0
N574 N 0.86298 0.18999 0.22627 0.0
N575 N 0.9623 0.19529 0.26022 0.0
loop_
_geom_bond_atom_site_label_1
_geom_bond_atom_site_label_2
_geom_bond_distance
_geom_bond_site_symmetry_2
_ccdc_geom_bond_type
Mn0 O5 2.095 . S
Mn0 O15 2.141 1_545 S
Mn0 O16 2.297 . S
Mn0 O24 2.385 . S
Mn0 O25 2.209 . S
Mn0 O26 2.094 . S
Mn1 O6 2.121 . S
Mn1 N8 2.257 . S
Mn1 N17 2.282 . S
Mn1 O25 2.215 . S
Mn1 O27 2.117 . S
C2 O24 1.234 . S
C2 O25 1.283 . S
C3 O15 1.278 1_545 S
C3 O16 1.236 . S
C4 O26 1.240 . S
C4 O27 1.264 . S
O5 Mn0 2.095 . S
O5 C14 1.250 . S
O6 Mn1 2.121 . S
O6 C14 1.258 . S
C7 N8 1.326 . S
C7 C11 1.460 . S
C7 H13 0.929 . S
N8 Mn1 2.257 . S
N8 C7 1.326 . S
N8 C12 1.362 . S
C9 C10 1.258 . S
C9 C12 1.431 . S
C9 C29 1.449 . S
C10 C9 1.258 . S
C10 C11 1.477 . S
C10 H30 0.931 . S
C11 C7 1.460 . S
C11 C10 1.477 . S
C11 H31 0.930 . S
C12 N8 1.362 . S
C12 C9 1.431 . S
C12 C22 1.476 . S
H13 C7 0.929 . S
C14 O5 1.250 . S
C14 O6 1.258 . S
O15 Mn0 2.141 1_565 S
O15 C3 1.278 1_565 S
O16 Mn0 2.297 . S
O16 C3 1.236 . S
N17 Mn1 2.282 . S
N17 C18 1.328 . S
N17 C22 1.318 . S
C18 N17 1.328 . S
C18 C19 1.457 . S
C18 H23 0.929 . S
C19 C18 1.457 . S
C19 C20 1.291 . S
C19 H32 0.931 . S
C20 C19 1.291 . S
C20 C21 1.373 . S
C20 H33 0.929 . S
C21 C20 1.373 . S
C21 C22 1.396 . S
C21 C28 1.403 . S
C22 C12 1.476 . S
C22 N17 1.318 . S
C22 C21 1.396 . S
H23 C18 0.929 . S
O24 Mn0 2.385 . S
O24 C2 1.234 . S
O25 Mn0 2.209 . S
O25 Mn1 2.215 . S
O25 C2 1.283 . S
O26 Mn0 2.094 . S
O26 C4 1.240 . S
O27 Mn1 2.117 . S
O27 C4 1.264 . S
C28 C21 1.403 . S
C28 C29 1.399 . S
C28 H34 0.929 . S
C29 C9 1.449 . S
C29 C28 1.399 . S
C29 H35 0.930 . S
H30 C10 0.931 . S
H31 C11 0.930 . S
H32 C19 0.931 . S
H33 C20 0.929 . S
H34 C28 0.929 . S
H35 C29 0.930 . S
Mn36 O41 2.095 . S
Mn36 O51 2.162 . S
Mn36 O52 2.297 . S
Mn36 O60 2.385 . S
Mn36 O61 2.209 1_455 S
Mn36 O62 2.094 . S
Mn37 O42 2.121 . S
Mn37 N44 2.257 . S
Mn37 N53 2.282 . S
Mn37 O61 2.215 . S
Mn37 O63 2.117 . S
C38 O60 1.234 1_655 S
C38 O61 1.283 . S
C39 O51 1.281 . S
C39 O52 1.236 . S
C40 O62 1.240 . S
C40 O63 1.264 1_455 S
O41 Mn36 2.095 . S
O41 C50 1.250 . S
O42 Mn37 2.121 . S
O42 C50 1.258 1_655 S
C43 N44 1.326 . S
C43 C47 1.460 . S
C43 H49 0.929 . S
N44 Mn37 2.257 . S
N44 C43 1.326 . S
N44 C48 1.362 . S
C45 C46 1.258 . S
C45 C48 1.431 . S
C45 C65 1.449 . S
C46 C45 1.258 . S
C46 C47 1.477 . S
C46 H66 0.931 . S
C47 C43 1.460 . S
C47 C46 1.477 . S
C47 H67 0.930 . S
C48 N44 1.362 . S
C48 C45 1.431 . S
C48 C58 1.476 . S
H49 C43 0.929 . S
C50 O41 1.250 . S
C50 O42 1.258 1_455 S
O51 Mn36 2.162 . S
O51 C39 1.281 . S
O52 Mn36 2.297 . S
O52 C39 1.236 . S
N53 Mn37 2.282 . S
N53 C54 1.328 . S
N53 C58 1.318 . S
C54 N53 1.328 . S
C54 C55 1.457 . S
C54 H59 0.929 . S
C55 C54 1.457 . S
C55 C56 1.291 . S
C55 H68 0.931 . S
C56 C55 1.291 . S
C56 C57 1.373 . S
C56 H69 0.929 . S
C57 C56 1.373 . S
C57 C58 1.396 . S
C57 C64 1.403 . S
C58 C48 1.476 . S
C58 N53 1.318 . S
C58 C57 1.396 . S
H59 C54 0.929 . S
O60 Mn36 2.385 . S
O60 C38 1.234 1_455 S
O61 Mn36 2.209 1_655 S
O61 Mn37 2.215 . S
O61 C38 1.283 . S
O62 Mn36 2.094 . S
O62 C40 1.240 . S
O63 Mn37 2.117 . S
O63 C40 1.264 1_655 S
C64 C57 1.403 . S
C64 C65 1.399 . S
C64 H70 0.929 . S
C65 C45 1.449 . S
C65 C64 1.399 . S
C65 H71 0.930 . S
H66 C46 0.931 . S
H67 C47 0.930 . S
H68 C55 0.931 . S
H69 C56 0.929 . S
H70 C64 0.929 . S
H71 C65 0.930 . S
Mn72 O77 2.095 . S
Mn72 O87 2.162 . S
Mn72 O88 2.297 . S
Mn72 O96 2.385 . S
Mn72 O97 2.209 1_545 S
Mn72 O98 2.094 . S
Mn73 O78 2.121 . S
Mn73 N80 2.257 . S
Mn73 N89 2.282 . S
Mn73 O97 2.215 . S
Mn73 O99 2.117 . S
C74 O96 1.234 1_565 S
C74 O97 1.283 . S
C75 O87 1.281 . S
C75 O88 1.236 . S
C76 O98 1.240 . S
C76 O99 1.264 1_545 S
O77 Mn72 2.095 . S
O77 C86 1.250 . S
O78 Mn73 2.121 . S
O78 C86 1.258 1_565 S
C79 N80 1.326 . S
C79 C83 1.460 . S
C79 H85 0.929 . S
N80 Mn73 2.257 . S
N80 C79 1.326 . S
N80 C84 1.362 . S
C81 C82 1.258 . S
C81 C84 1.431 . S
C81 C101 1.449 . S
C82 C81 1.258 . S
C82 C83 1.477 . S
C82 H102 0.931 . S
C83 C79 1.460 . S
C83 C82 1.477 . S
C83 H103 0.930 . S
C84 N80 1.362 . S
C84 C81 1.431 . S
C84 C94 1.476 . S
H85 C79 0.929 . S
C86 O77 1.250 . S
C86 O78 1.258 1_545 S
O87 Mn72 2.162 . S
O87 C75 1.281 . S
O88 Mn72 2.297 . S
O88 C75 1.236 . S
N89 Mn73 2.282 . S
N89 C90 1.328 . S
N89 C94 1.318 . S
C90 N89 1.328 . S
C90 C91 1.457 . S
C90 H95 0.929 . S
C91 C90 1.457 . S
C91 C92 1.291 . S
C91 H104 0.931 . S
C92 C91 1.291 . S
C92 C93 1.373 . S
C92 H105 0.929 . S
C93 C92 1.373 . S
C93 C94 1.396 . S
C93 C100 1.403 . S
C94 C84 1.476 . S
C94 N89 1.318 . S
C94 C93 1.396 . S
H95 C90 0.929 . S
O96 Mn72 2.385 . S
O96 C74 1.234 1_545 S
O97 Mn72 2.209 1_565 S
O97 Mn73 2.215 . S
O97 C74 1.283 . S
O98 Mn72 2.094 . S
O98 C76 1.240 . S
O99 Mn73 2.117 . S
O99 C76 1.264 1_565 S
C100 C93 1.403 . S
C100 C101 1.399 . S
C100 H106 0.929 . S
C101 C81 1.449 . S
C101 C100 1.399 . S
C101 H107 0.930 . S
H102 C82 0.931 . S
H103 C83 0.930 . S
H104 C91 0.931 . S
H105 C92 0.929 . S
H106 C100 0.929 . S
H107 C101 0.930 . S
Mn108 O113 2.095 . S
Mn108 O123 2.141 1_455 S
Mn108 O124 2.297 . S
Mn108 O132 2.385 . S
Mn108 O133 2.209 . S
Mn108 O134 2.094 . S
Mn109 O114 2.121 . S
Mn109 N116 2.257 . S
Mn109 N125 2.282 . S
Mn109 O133 2.215 . S
Mn109 O135 2.117 . S
C110 O132 1.234 . S
C110 O133 1.283 . S
C111 O123 1.278 1_455 S
C111 O124 1.236 . S
C112 O134 1.240 . S
C112 O135 1.264 . S
O113 Mn108 2.095 . S
O113 C122 1.250 . S
O114 Mn109 2.121 . S
O114 C122 1.258 . S
C115 N116 1.326 . S
C115 C119 1.460 . S
C115 H121 0.929 . S
N116 Mn109 2.257 . S
N116 C115 1.326 . S
N116 C120 1.362 . S
C117 C118 1.258 . S
C117 C120 1.431 . S
C117 C137 1.449 . S
C118 C117 1.258 . S
C118 C119 1.477 . S
C118 H138 0.931 . S
C119 C115 1.460 . S
C119 C118 1.477 . S
C119 H139 0.930 . S
C120 N116 1.362 . S
C120 C117 1.431 . S
C120 C130 1.476 . S
H121 C115 0.929 . S
C122 O113 1.250 . S
C122 O114 1.258 . S
O123 Mn108 2.141 1_655 S
O123 C111 1.278 1_655 S
O124 Mn108 2.297 . S
O124 C111 1.236 . S
N125 Mn109 2.282 . S
N125 C126 1.328 . S
N125 C130 1.318 . S
C126 N125 1.328 . S
C126 C127 1.457 . S
C126 H131 0.929 . S
C127 C126 1.457 . S
C127 C128 1.291 . S
C127 H140 0.931 . S
C128 C127 1.291 . S
C128 C129 1.373 . S
C128 H141 0.929 . S
C129 C128 1.373 . S
C129 C130 1.396 . S
C129 C136 1.403 . S
C130 C120 1.476 . S
C130 N125 1.318 . S
C130 C129 1.396 . S
H131 C126 0.929 . S
O132 Mn108 2.385 . S
O132 C110 1.234 . S
O133 Mn108 2.209 . S
O133 Mn109 2.215 . S
O133 C110 1.283 . S
O134 Mn108 2.094 . S
O134 C112 1.240 . S
O135 Mn109 2.117 . S
O135 C112 1.264 . S
C136 C129 1.403 . S
C136 C137 1.399 . S
C136 H142 0.929 . S
C137 C117 1.449 . S
C137 C136 1.399 . S
C137 H143 0.930 . S
H138 C118 0.931 . S
H139 C119 0.930 . S
H140 C127 0.931 . S
H141 C128 0.929 . S
H142 C136 0.929 . S
H143 C137 0.930 . S
Mn144 O149 2.095 . S
Mn144 O159 2.162 . S
Mn144 O160 2.297 . S
Mn144 O168 2.385 . S
Mn144 O169 2.209 1_545 S
Mn144 O170 2.094 . S
Mn145 O150 2.121 . S
Mn145 N152 2.257 . S
Mn145 N161 2.282 . S
Mn145 O169 2.215 . S
Mn145 O171 2.117 . S
C146 O168 1.234 1_565 S
C146 O169 1.283 . S
C147 O159 1.281 . S
C147 O160 1.236 . S
C148 O170 1.240 . S
C148 O171 1.264 1_545 S
O149 Mn144 2.095 . S
O149 C158 1.250 . S
O150 Mn145 2.121 . S
O150 C158 1.258 1_565 S
C151 N152 1.326 . S
C151 C155 1.460 . S
C151 H157 0.929 . S
N152 Mn145 2.257 . S
N152 C151 1.326 . S
N152 C156 1.362 . S
C153 C154 1.258 . S
C153 C156 1.431 . S
C153 C173 1.449 . S
C154 C153 1.258 . S
C154 C155 1.477 . S
C154 H174 0.931 . S
C155 C151 1.460 . S
C155 C154 1.477 . S
C155 H175 0.930 . S
C156 N152 1.362 . S
C156 C153 1.431 . S
C156 C166 1.476 . S
H157 C151 0.929 . S
C158 O149 1.250 . S
C158 O150 1.258 1_545 S
O159 Mn144 2.162 . S
O159 C147 1.281 . S
O160 Mn144 2.297 . S
O160 C147 1.236 . S
N161 Mn145 2.282 . S
N161 C162 1.328 . S
N161 C166 1.318 . S
C162 N161 1.328 . S
C162 C163 1.457 . S
C162 H167 0.929 . S
C163 C162 1.457 . S
C163 C164 1.291 . S
C163 H176 0.931 . S
C164 C163 1.291 . S
C164 C165 1.373 . S
C164 H177 0.929 . S
C165 C164 1.373 . S
C165 C166 1.396 . S
C165 C172 1.403 . S
C166 C156 1.476 . S
C166 N161 1.318 . S
C166 C165 1.396 . S
H167 C162 0.929 . S
O168 Mn144 2.385 . S
O168 C146 1.234 1_545 S
O169 Mn144 2.209 1_565 S
O169 Mn145 2.215 . S
O169 C146 1.283 . S
O170 Mn144 2.094 . S
O170 C148 1.240 . S
O171 Mn145 2.117 . S
O171 C148 1.264 1_565 S
C172 C165 1.403 . S
C172 C173 1.399 . S
C172 H178 0.929 . S
C173 C153 1.449 . S
C173 C172 1.399 . S
C173 H179 0.930 . S
H174 C154 0.931 . S
H175 C155 0.930 . S
H176 C163 0.931 . S
H177 C164 0.929 . S
H178 C172 0.929 . S
H179 C173 0.930 . S
Mn180 O185 2.095 . S
Mn180 O195 2.141 1_455 S
Mn180 O196 2.297 . S
Mn180 O204 2.385 . S
Mn180 O205 2.209 . S
Mn180 O206 2.094 . S
Mn181 O186 2.121 . S
Mn181 N188 2.257 . S
Mn181 N197 2.282 . S
Mn181 O205 2.215 . S
Mn181 O207 2.117 . S
C182 O204 1.234 . S
C182 O205 1.283 . S
C183 O195 1.278 1_455 S
C183 O196 1.236 . S
C184 O206 1.240 . S
C184 O207 1.264 . S
O185 Mn180 2.095 . S
O185 C194 1.250 . S
O186 Mn181 2.121 . S
O186 C194 1.258 . S
C187 N188 1.326 . S
C187 C191 1.460 . S
C187 H193 0.929 . S
N188 Mn181 2.257 . S
N188 C187 1.326 . S
N188 C192 1.362 . S
C189 C190 1.258 . S
C189 C192 1.431 . S
C189 C209 1.449 . S
C190 C189 1.258 . S
C190 C191 1.477 . S
C190 H210 0.931 . S
C191 C187 1.460 . S
C191 C190 1.477 . S
C191 H211 0.930 . S
C192 N188 1.362 . S
C192 C189 1.431 . S
C192 C202 1.476 . S
H193 C187 0.929 . S
C194 O185 1.250 . S
C194 O186 1.258 . S
O195 Mn180 2.141 1_655 S
O195 C183 1.278 1_655 S
O196 Mn180 2.297 . S
O196 C183 1.236 . S
N197 Mn181 2.282 . S
N197 C198 1.328 . S
N197 C202 1.318 . S
C198 N197 1.328 . S
C198 C199 1.457 . S
C198 H203 0.929 . S
C199 C198 1.457 . S
C199 C200 1.291 . S
C199 H212 0.931 . S
C200 C199 1.291 . S
C200 C201 1.373 . S
C200 H213 0.929 . S
C201 C200 1.373 . S
C201 C202 1.396 . S
C201 C208 1.403 . S
C202 C192 1.476 . S
C202 N197 1.318 . S
C202 C201 1.396 . S
H203 C198 0.929 . S
O204 Mn180 2.385 . S
O204 C182 1.234 . S
O205 Mn180 2.209 . S
O205 Mn181 2.215 . S
O205 C182 1.283 . S
O206 Mn180 2.094 . S
O206 C184 1.240 . S
O207 Mn181 2.117 . S
O207 C184 1.264 . S
C208 C201 1.403 . S
C208 C209 1.399 . S
C208 H214 0.929 . S
C209 C189 1.449 . S
C209 C208 1.399 . S
C209 H215 0.930 . S
H210 C190 0.931 . S
H211 C191 0.930 . S
H212 C199 0.931 . S
H213 C200 0.929 . S
H214 C208 0.929 . S
H215 C209 0.930 . S
Mn216 O221 2.095 . S
Mn216 O231 2.141 1_545 S
Mn216 O232 2.297 . S
Mn216 O240 2.385 . S
Mn216 O241 2.209 . S
Mn216 O242 2.094 . S
Mn217 O222 2.121 . S
Mn217 N224 2.257 . S
Mn217 N233 2.282 . S
Mn217 O241 2.215 . S
Mn217 O243 2.117 . S
C218 O240 1.234 . S
C218 O241 1.283 . S
C219 O231 1.278 1_545 S
C219 O232 1.236 . S
C220 O242 1.240 . S
C220 O243 1.264 . S
O221 Mn216 2.095 . S
O221 C230 1.250 . S
O222 Mn217 2.121 . S
O222 C230 1.258 . S
C223 N224 1.326 . S
C223 C227 1.460 . S
C223 H229 0.929 . S
N224 Mn217 2.257 . S
N224 C223 1.326 . S
N224 C228 1.362 . S
C225 C226 1.258 . S
C225 C228 1.431 . S
C225 C245 1.449 . S
C226 C225 1.258 . S
C226 C227 1.477 . S
C226 H246 0.931 . S
C227 C223 1.460 . S
C227 C226 1.477 . S
C227 H247 0.930 . S
C228 N224 1.362 . S
C228 C225 1.431 . S
C228 C238 1.476 . S
H229 C223 0.929 . S
C230 O221 1.250 . S
C230 O222 1.258 . S
O231 Mn216 2.141 1_565 S
O231 C219 1.278 1_565 S
O232 Mn216 2.297 . S
O232 C219 1.236 . S
N233 Mn217 2.282 . S
N233 C234 1.328 . S
N233 C238 1.318 . S
C234 N233 1.328 . S
C234 C235 1.457 . S
C234 H239 0.929 . S
C235 C234 1.457 . S
C235 C236 1.291 . S
C235 H248 0.931 . S
C236 C235 1.291 . S
C236 C237 1.373 . S
C236 H249 0.929 . S
C237 C236 1.373 . S
C237 C238 1.396 . S
C237 C244 1.403 . S
C238 C228 1.476 . S
C238 N233 1.318 . S
C238 C237 1.396 . S
H239 C234 0.929 . S
O240 Mn216 2.385 . S
O240 C218 1.234 . S
O241 Mn216 2.209 . S
O241 Mn217 2.215 . S
O241 C218 1.283 . S
O242 Mn216 2.094 . S
O242 C220 1.240 . S
O243 Mn217 2.117 . S
O243 C220 1.264 . S
C244 C237 1.403 . S
C244 C245 1.399 . S
C244 H250 0.929 . S
C245 C225 1.449 . S
C245 C244 1.399 . S
C245 H251 0.930 . S
H246 C226 0.931 . S
H247 C227 0.930 . S
H248 C235 0.931 . S
H249 C236 0.929 . S
H250 C244 0.929 . S
H251 C245 0.930 . S
Mn252 O257 2.095 . S
Mn252 O267 2.162 . S
Mn252 O268 2.297 . S
Mn252 O276 2.385 . S
Mn252 O277 2.209 1_455 S
Mn252 O278 2.094 . S
Mn253 O258 2.121 . S
Mn253 N260 2.257 . S
Mn253 N269 2.282 . S
Mn253 O277 2.215 . S
Mn253 O279 2.117 . S
C254 O276 1.234 1_655 S
C254 O277 1.283 . S
C255 O267 1.281 . S
C255 O268 1.236 . S
C256 O278 1.240 . S
C256 O279 1.264 1_455 S
O257 Mn252 2.095 . S
O257 C266 1.250 . S
O258 Mn253 2.121 . S
O258 C266 1.258 1_655 S
C259 N260 1.326 . S
C259 C263 1.460 . S
C259 H265 0.929 . S
N260 Mn253 2.257 . S
N260 C259 1.326 . S
N260 C264 1.362 . S
C261 C262 1.258 . S
C261 C264 1.431 . S
C261 C281 1.449 . S
C262 C261 1.258 . S
C262 C263 1.477 . S
C262 H282 0.931 . S
C263 C259 1.460 . S
C263 C262 1.477 . S
C263 H283 0.930 . S
C264 N260 1.362 . S
C264 C261 1.431 . S
C264 C274 1.476 . S
H265 C259 0.929 . S
C266 O257 1.250 . S
C266 O258 1.258 1_455 S
O267 Mn252 2.162 . S
O267 C255 1.281 . S
O268 Mn252 2.297 . S
O268 C255 1.236 . S
N269 Mn253 2.282 . S
N269 C270 1.328 . S
N269 C274 1.318 . S
C270 N269 1.328 . S
C270 C271 1.457 . S
C270 H275 0.929 . S
C271 C270 1.457 . S
C271 C272 1.291 . S
C271 H284 0.931 . S
C272 C271 1.291 . S
C272 C273 1.373 . S
C272 H285 0.929 . S
C273 C272 1.373 . S
C273 C274 1.396 . S
C273 C280 1.403 . S
C274 C264 1.476 . S
C274 N269 1.318 . S
C274 C273 1.396 . S
H275 C270 0.929 . S
O276 Mn252 2.385 . S
O276 C254 1.234 1_455 S
O277 Mn252 2.209 1_655 S
O277 Mn253 2.215 . S
O277 C254 1.283 . S
O278 Mn252 2.094 . S
O278 C256 1.240 . S
O279 Mn253 2.117 . S
O279 C256 1.264 1_655 S
C280 C273 1.403 . S
C280 C281 1.399 . S
C280 H286 0.929 . S
C281 C261 1.449 . S
C281 C280 1.399 . S
C281 H287 0.930 . S
H282 C262 0.931 . S
H283 C263 0.930 . S
H284 C271 0.931 . S
H285 C272 0.929 . S
H286 C280 0.929 . S
H287 C281 0.930 . S
H288 C294 0.930 . S
H289 C298 0.930 . S
H290 C303 0.929 . S
H291 C301 0.929 . S
H292 C296 0.929 . S
H293 C302 0.929 . S
C294 H288 0.930 . S
C294 C295 1.367 . S
C294 C302 1.378 . S
C295 C294 1.367 . S
C295 C303 1.433 . S
C296 H292 0.929 . S
C296 C298 1.378 . S
C296 C300 1.350 . S
C297 C300 1.463 1_554 S
C297 C302 1.350 . S
C297 N305 1.427 . S
C298 H289 0.930 . S
C298 C296 1.378 . S
C298 C299 1.367 . S
C299 C298 1.367 . S
C299 C301 1.433 . S
C300 C296 1.350 . S
C300 C297 1.463 1_556 S
C300 N304 1.427 . S
C301 H291 0.929 . S
C301 C299 1.433 . S
C301 N304 1.384 . S
C302 H293 0.929 . S
C302 C294 1.378 . S
C302 C297 1.350 . S
C303 H290 0.929 . S
C303 C295 1.433 . S
C303 N305 1.384 . S
N304 C300 1.427 . S
N304 C301 1.384 . S
N305 C297 1.427 . S
N305 C303 1.384 . S
H306 C312 0.930 . S
H307 C316 0.930 . S
H308 C321 0.929 . S
H309 C319 0.929 . S
H310 C314 0.929 . S
H311 C320 0.929 . S
C312 H306 0.930 . S
C312 C313 1.367 . S
C312 C320 1.378 . S
C313 C312 1.367 . S
C313 C321 1.433 . S
C314 H310 0.929 . S
C314 C316 1.378 . S
C314 C318 1.350 . S
C315 C318 1.463 . S
C315 C320 1.350 . S
C315 N323 1.427 . S
C316 H307 0.930 . S
C316 C314 1.378 . S
C316 C317 1.367 . S
C317 C316 1.367 . S
C317 C319 1.433 . S
C318 C314 1.350 . S
C318 C315 1.463 . S
C318 N322 1.427 . S
C319 H309 0.929 . S
C319 C317 1.433 . S
C319 N322 1.384 . S
C320 H311 0.929 . S
C320 C312 1.378 . S
C320 C315 1.350 . S
C321 H308 0.929 . S
C321 C313 1.433 . S
C321 N323 1.384 . S
N322 C318 1.427 . S
N322 C319 1.384 . S
N323 C315 1.427 . S
N323 C321 1.384 . S
H324 C330 0.930 . S
H325 C334 0.930 1_565 S
H326 C339 0.929 . S
H327 C337 0.929 . S
H328 C332 0.945 . S
H329 C338 0.929 . S
C330 H324 0.930 . S
C330 C331 1.367 . S
C330 C338 1.378 . S
C331 C330 1.367 . S
C331 C339 1.433 . S
C332 H328 0.945 . S
C332 C334 1.378 . S
C332 C336 1.350 . S
C333 C336 1.463 1_556 S
C333 C338 1.350 . S
C333 N341 1.427 . S
C334 H325 0.930 1_545 S
C334 C332 1.378 . S
C334 C335 1.367 . S
C335 C334 1.367 . S
C335 C337 1.433 . S
C336 C332 1.350 . S
C336 C333 1.463 1_554 S
C336 N340 1.427 . S
C337 H327 0.929 . S
C337 C335 1.433 . S
C337 N340 1.384 . S
C338 H329 0.929 . S
C338 C330 1.378 . S
C338 C333 1.350 . S
C339 H326 0.929 . S
C339 C331 1.433 . S
C339 N341 1.384 . S
N340 C336 1.427 . S
N340 C337 1.384 . S
N341 C333 1.427 . S
N341 C339 1.384 . S
H342 C348 0.930 . S
H343 C352 0.930 . S
H344 C357 0.929 . S
H345 C355 0.929 . S
H346 C350 0.929 . S
H347 C356 0.929 . S
C348 H342 0.930 . S
C348 C349 1.367 . S
C348 C356 1.378 . S
C349 C348 1.367 . S
C349 C357 1.433 . S
C350 H346 0.929 . S
C350 C352 1.378 . S
C350 C354 1.350 . S
C351 C354 1.463 . S
C351 C356 1.350 . S
C351 N359 1.427 . S
C352 H343 0.930 . S
C352 C350 1.378 . S
C352 C353 1.367 . S
C353 C352 1.367 . S
C353 C355 1.433 . S
C354 C350 1.350 . S
C354 C351 1.463 . S
C354 N358 1.427 . S
C355 H345 0.929 . S
C355 C353 1.433 . S
C355 N358 1.384 . S
C356 H347 0.929 . S
C356 C348 1.378 . S
C356 C351 1.350 . S
C357 H344 0.929 . S
C357 C349 1.433 . S
C357 N359 1.384 . S
N358 C354 1.427 . S
N358 C355 1.384 . S
N359 C351 1.427 . S
N359 C357 1.384 . S
H360 C366 0.930 . S
H361 C370 0.930 . S
H362 C375 0.929 . S
H363 C373 0.929 . S
H364 C368 0.929 . S
H365 C374 0.929 . S
C366 H360 0.930 . S
C366 C367 1.367 . S
C366 C374 1.378 . S
C367 C366 1.367 . S
C367 C375 1.433 . S
C368 H364 0.929 . S
C368 C370 1.378 . S
C368 C372 1.350 . S
C369 C372 1.463 . S
C369 C374 1.350 . S
C369 N377 1.427 . S
C370 H361 0.930 . S
C370 C368 1.378 . S
C370 C371 1.367 . S
C371 C370 1.367 . S
C371 C373 1.433 . S
C372 C368 1.350 . S
C372 C369 1.463 . S
C372 N376 1.427 . S
C373 H363 0.929 . S
C373 C371 1.433 . S
C373 N376 1.384 . S
C374 H365 0.929 . S
C374 C366 1.378 . S
C374 C369 1.350 . S
C375 H362 0.929 . S
C375 C367 1.433 . S
C375 N377 1.384 . S
N376 C372 1.427 . S
N376 C373 1.384 . S
N377 C369 1.427 . S
N377 C375 1.384 . S
H378 C384 0.930 . S
H379 C388 0.930 . S
H380 C393 0.926 . S
H381 C391 0.929 . S
H382 C386 0.929 . S
H383 C392 0.929 . S
C384 H378 0.930 . S
C384 C385 1.367 . S
C384 C392 1.378 . S
C385 C384 1.367 . S
C385 C393 1.435 1_455 S
C386 H382 0.929 . S
C386 C388 1.378 . S
C386 C390 1.350 . S
C387 C390 1.463 . S
C387 C392 1.350 . S
C387 N395 1.427 . S
C388 H379 0.930 . S
C388 C386 1.378 . S
C388 C389 1.367 . S
C389 C388 1.367 . S
C389 C391 1.433 . S
C390 C386 1.350 . S
C390 C387 1.463 . S
C390 N394 1.427 . S
C391 H381 0.929 . S
C391 C389 1.433 . S
C391 N394 1.384 . S
C392 H383 0.929 . S
C392 C384 1.378 . S
C392 C387 1.350 . S
C393 H380 0.926 . S
C393 C385 1.435 1_655 S
C393 N395 1.384 1_655 S
N394 C390 1.427 . S
N394 C391 1.384 . S
N395 C387 1.427 . S
N395 C393 1.384 1_455 S
H396 C402 0.930 . S
H397 C406 0.930 . S
H398 C411 0.929 . S
H399 C409 0.929 . S
H400 C404 0.929 . S
H401 C410 0.929 . S
C402 H396 0.930 . S
C402 C403 1.367 . S
C402 C410 1.378 . S
C403 C402 1.367 . S
C403 C411 1.433 . S
C404 H400 0.929 . S
C404 C406 1.378 . S
C404 C408 1.350 . S
C405 C408 1.463 . S
C405 C410 1.350 . S
C405 N413 1.427 . S
C406 H397 0.930 . S
C406 C404 1.378 . S
C406 C407 1.367 . S
C407 C406 1.367 . S
C407 C409 1.433 . S
C408 C404 1.350 . S
C408 C405 1.463 . S
C408 N412 1.427 . S
C409 H399 0.929 . S
C409 C407 1.433 . S
C409 N412 1.384 . S
C410 H401 0.929 . S
C410 C402 1.378 . S
C410 C405 1.350 . S
C411 H398 0.929 . S
C411 C403 1.433 . S
C411 N413 1.384 . S
N412 C408 1.427 . S
N412 C409 1.384 . S
N413 C405 1.427 . S
N413 C411 1.384 . S
H414 C420 0.930 . S
H415 C424 0.930 . S
H416 C429 0.929 . S
H417 C427 0.929 . S
H418 C422 0.929 . S
H419 C428 0.929 . S
C420 H414 0.930 . S
C420 C421 1.367 . S
C420 C428 1.378 . S
C421 C420 1.367 . S
C421 C429 1.433 . S
C422 H418 0.929 . S
C422 C424 1.378 . S
C422 C426 1.350 . S
C423 C426 1.463 . S
C423 C428 1.350 . S
C423 N431 1.427 . S
C424 H415 0.930 . S
C424 C422 1.378 . S
C424 C425 1.367 . S
C425 C424 1.367 . S
C425 C427 1.433 . S
C426 C422 1.350 . S
C426 C423 1.463 . S
C426 N430 1.427 . S
C427 H417 0.929 . S
C427 C425 1.433 . S
C427 N430 1.384 . S
C428 H419 0.929 . S
C428 C420 1.378 . S
C428 C423 1.350 . S
C429 H416 0.929 . S
C429 C421 1.433 . S
C429 N431 1.384 . S
N430 C426 1.427 . S
N430 C427 1.384 . S
N431 C423 1.427 . S
N431 C429 1.384 . S
H432 C438 0.930 . S
H433 C442 0.930 . S
H434 C447 0.929 . S
H435 C445 0.929 . S
H436 C440 0.929 . S
H437 C446 0.929 . S
C438 H432 0.930 . S
C438 C439 1.367 . S
C438 C446 1.378 . S
C439 C438 1.367 . S
C439 C447 1.433 . S
C440 H436 0.929 . S
C440 C442 1.378 . S
C440 C444 1.350 . S
C441 C444 1.463 . S
C441 C446 1.350 . S
C441 N449 1.427 . S
C442 H433 0.930 . S
C442 C440 1.378 . S
C442 C443 1.367 . S
C443 C442 1.367 . S
C443 C445 1.433 . S
C444 C440 1.350 . S
C444 C441 1.463 . S
C444 N448 1.427 . S
C445 H435 0.929 . S
C445 C443 1.433 . S
C445 N448 1.384 . S
C446 H437 0.929 . S
C446 C438 1.378 . S
C446 C441 1.350 . S
C447 H434 0.929 . S
C447 C439 1.433 . S
C447 N449 1.384 . S
N448 C444 1.427 . S
N448 C445 1.384 . S
N449 C441 1.427 . S
N449 C447 1.384 . S
H450 C456 0.930 . S
H451 C460 0.930 . S
H452 C465 0.929 . S
H453 C463 0.929 . S
H454 C458 0.929 . S
H455 C464 0.929 . S
C456 H450 0.930 . S
C456 C457 1.367 . S
C456 C464 1.378 . S
C457 C456 1.367 . S
C457 C465 1.433 . S
C458 H454 0.929 . S
C458 C460 1.378 . S
C458 C462 1.350 . S
C459 C462 1.463 . S
C459 C464 1.350 . S
C459 N467 1.427 . S
C460 H451 0.930 . S
C460 C458 1.378 . S
C460 C461 1.367 . S
C461 C460 1.367 . S
C461 C463 1.433 . S
C462 C458 1.350 . S
C462 C459 1.463 . S
C462 N466 1.427 . S
C463 H453 0.929 . S
C463 C461 1.433 . S
C463 N466 1.384 . S
C464 H455 0.929 . S
C464 C456 1.378 . S
C464 C459 1.350 . S
C465 H452 0.929 . S
C465 C457 1.433 . S
C465 N467 1.384 . S
N466 C462 1.427 . S
N466 C463 1.384 . S
N467 C459 1.427 . S
N467 C465 1.384 . S
H468 C474 0.930 . S
H469 C478 0.930 . S
H470 C483 0.929 . S
H471 C481 0.929 . S
H472 C476 0.929 . S
H473 C482 0.929 . S
C474 H468 0.930 . S
C474 C475 1.367 . S
C474 C482 1.378 . S
C475 C474 1.367 . S
C475 C483 1.433 . S
C476 H472 0.929 . S
C476 C478 1.378 . S
C476 C480 1.350 . S
C477 C480 1.463 . S
C477 C482 1.350 . S
C477 N485 1.427 . S
C478 H469 0.930 . S
C478 C476 1.378 . S
C478 C479 1.367 . S
C479 C478 1.367 . S
C479 C481 1.433 . S
C480 C476 1.350 . S
C480 C477 1.463 . S
C480 N484 1.427 . S
C481 H471 0.929 . S
C481 C479 1.433 . S
C481 N484 1.384 . S
C482 H473 0.929 . S
C482 C474 1.378 . S
C482 C477 1.350 . S
C483 H470 0.929 . S
C483 C475 1.433 . S
C483 N485 1.384 . S
N484 C480 1.427 . S
N484 C481 1.384 . S
N485 C477 1.427 . S
N485 C483 1.384 . S
H486 C492 0.930 . S
H487 C496 0.930 . S
H488 C501 0.929 . S
H489 C499 0.929 . S
H490 C494 0.929 . S
H491 C500 0.929 . S
C492 H486 0.930 . S
C492 C493 1.367 . S
C492 C500 1.378 . S
C493 C492 1.367 . S
C493 C501 1.433 . S
C494 H490 0.929 . S
C494 C496 1.378 . S
C494 C498 1.350 . S
C495 C498 1.463 . S
C495 C500 1.350 . S
C495 N503 1.427 . S
C496 H487 0.930 . S
C496 C494 1.378 . S
C496 C497 1.367 . S
C497 C496 1.367 . S
C497 C499 1.433 . S
C498 C494 1.350 . S
C498 C495 1.463 . S
C498 N502 1.427 . S
C499 H489 0.929 . S
C499 C497 1.433 . S
C499 N502 1.384 . S
C500 H491 0.929 . S
C500 C492 1.378 . S
C500 C495 1.350 . S
C501 H488 0.929 . S
C501 C493 1.433 . S
C501 N503 1.384 . S
N502 C498 1.427 . S
N502 C499 1.384 . S
N503 C495 1.427 . S
N503 C501 1.384 . S
H504 C510 0.930 . S
H505 C514 0.930 1_455 S
H506 C519 0.929 1_545 S
H507 C517 0.929 . S
H508 C512 0.929 . S
H509 C518 0.929 . S
C510 H504 0.930 . S
C510 C511 1.367 . S
C510 C518 1.378 . S
C511 C510 1.367 . S
C511 C519 1.433 . S
C512 H508 0.929 . S
C512 C514 1.378 . S
C512 C516 1.350 . S
C513 C516 1.463 . S
C513 C518 1.350 . S
C513 N521 1.427 . S
C514 H505 0.930 1_655 S
C514 C512 1.378 . S
C514 C515 1.367 . S
C515 C514 1.367 . S
C515 C517 1.433 . S
C516 C512 1.350 . S
C516 C513 1.463 . S
C516 N520 1.427 . S
C517 H507 0.929 . S
C517 C515 1.433 . S
C517 N520 1.384 . S
C518 H509 0.929 . S
C518 C510 1.378 . S
C518 C513 1.350 . S
C519 H506 0.929 1_565 S
C519 C511 1.433 . S
C519 N521 1.384 . S
N520 C516 1.427 . S
N520 C517 1.384 . S
N521 C513 1.427 . S
N521 C519 1.384 . S
H522 C528 0.930 . S
H523 C532 0.930 . S
H524 C537 0.929 1_545 S
H525 C535 0.929 . S
H526 C530 0.929 . S
H527 C536 0.929 . S
C528 H522 0.930 . S
C528 C529 1.367 . S
C528 C536 1.378 . S
C529 C528 1.367 . S
C529 C537 1.433 . S
C530 H526 0.929 . S
C530 C532 1.378 . S
C530 C534 1.350 . S
C531 C534 1.463 . S
C531 C536 1.350 . S
C531 N539 1.427 . S
C532 H523 0.930 . S
C532 C530 1.378 . S
C532 C533 1.367 . S
C533 C532 1.367 . S
C533 C535 1.433 . S
C534 C530 1.350 . S
C534 C531 1.463 . S
C534 N538 1.427 . S
C535 H525 0.929 . S
C535 C533 1.433 . S
C535 N538 1.384 . S
C536 H527 0.929 . S
C536 C528 1.378 . S
C536 C531 1.350 . S
C537 H524 0.929 1_565 S
C537 C529 1.433 . S
C537 N539 1.384 . S
N538 C534 1.427 . S
N538 C535 1.384 . S
N539 C531 1.427 . S
N539 C537 1.384 . S
H540 C546 0.930 . S
H541 C550 0.930 . S
H542 C555 0.929 . S
H543 C553 0.929 . S
H544 C548 0.929 . S
H545 C554 0.929 . S
C546 H540 0.930 . S
C546 C547 1.367 . S
C546 C554 1.378 . S
C547 C546 1.367 . S
C547 C555 1.433 . S
C548 H544 0.929 . S
C548 C550 1.378 . S
C548 C552 1.350 . S
C549 C552 1.463 . S
C549 C554 1.350 . S
C549 N557 1.427 . S
C550 H541 0.930 . S
C550 C548 1.378 . S
C550 C551 1.367 . S
C551 C550 1.367 . S
C551 C553 1.433 . S
C552 C548 1.350 . S
C552 C549 1.463 . S
C552 N556 1.427 . S
C553 H543 0.929 . S
C553 C551 1.433 . S
C553 N556 1.384 . S
C554 H545 0.929 . S
C554 C546 1.378 . S
C554 C549 1.350 . S
C555 H542 0.929 . S
C555 C547 1.433 . S
C555 N557 1.384 . S
N556 C552 1.427 . S
N556 C553 1.384 . S
N557 C549 1.427 . S
N557 C555 1.384 . S
H558 C564 0.930 . S
H559 C568 0.930 . S
H560 C573 0.929 . S
H561 C571 0.929 . S
H562 C566 0.929 . S
H563 C572 0.929 . S
C564 H558 0.930 . S
C564 C565 1.367 . S
C564 C572 1.378 . S
C565 C564 1.367 . S
C565 C573 1.433 . S
C566 H562 0.929 . S
C566 C568 1.378 . S
C566 C570 1.350 . S
C567 C570 1.463 . S
C567 C572 1.350 . S
C567 N575 1.427 . S
C568 H559 0.930 . S
C568 C566 1.378 . S
C568 C569 1.367 . S
C569 C568 1.367 . S
C569 C571 1.433 . S
C570 C566 1.350 . S
C570 C567 1.463 . S
C570 N574 1.427 . S
C571 H561 0.929 . S
C571 C569 1.433 . S
C571 N574 1.384 . S
C572 H563 0.929 . S
C572 C564 1.378 . S
C572 C567 1.350 . S
C573 H560 0.929 . S
C573 C565 1.433 . S
C573 N575 1.384 . S
N574 C570 1.427 . S
N574 C571 1.384 . S
N575 C567 1.427 . S
N575 C573 1.384 . S
C295 C14 1.497 . S
C299 C158 1.505 . S
C313 C50 1.503 . S
C317 C194 1.496 . S
C331 C230 1.496 . S
C335 C86 1.500 . S
C349 C266 1.503 . S
C353 C122 1.510 . S
C367 C4 1.269 . S
C371 C76 1.275 . S
C385 C40 1.270 . S
C389 C112 1.267 . S
C403 C220 1.275 . S
C407 C148 1.268 . S
C421 C184 1.275 . S
C425 C256 1.267 . S
C439 C182 1.276 . S
C443 C2 1.267 . S
C457 C38 1.270 . S
C461 C218 1.274 . S
C475 C254 1.274 . S
C479 C74 1.269 . S
C493 C110 1.268 . S
C497 C146 1.276 . S
C511 C219 1.331 1_565 S
C515 C111 1.331 1_655 S
C529 C3 1.331 1_565 S
C533 C255 1.331 . S
C547 C39 1.331 . S
C551 C147 1.331 . S
C565 C183 1.331 1_655 S
C569 C75 1.331 . S
