# Generated by pormake.
# Topology loh, (5)-cn, num edge types: 1
# Building blocks:
#     Node 0, Type 0, BuildingBlock: XOMCOT_clean_sbu_1, # of connection points: 5
#     Node 1, Type 0, BuildingBlock: XOMCOT_clean_sbu_1, # of connection points: 5
#     Node 2, Type 0, BuildingBlock: XOMCOT_clean_sbu_1, # of connection points: 5
#     Node 3, Type 0, BuildingBlock: XOMCOT_clean_sbu_1, # of connection points: 5
#     Node 4, Type 0, BuildingBlock: XOMCOT_clean_sbu_1, # of connection points: 5
#     Node 5, Type 0, BuildingBlock: XOMCOT_clean_sbu_1, # of connection points: 5
#     Node 6, Type 0, BuildingBlock: XOMCOT_clean_sbu_1, # of connection points: 5
#     Node 7, Type 0, BuildingBlock: XOMCOT_clean_sbu_1, # of connection points: 5
#     Edge 8, Type (0, 0), BuildingBlock: KIFKEQ_clean_linker_1, # of connection points: 2
#     Edge 9, Type (0, 0), BuildingBlock: KIFKEQ_clean_linker_1, # of connection points: 2
#     Edge 10, Type (0, 0), BuildingBlock: KIFKEQ_clean_linker_1, # of connection points: 2
#     Edge 11, Type (0, 0), BuildingBlock: KIFKEQ_clean_linker_1, # of connection points: 2
#     Edge 12, Type (0, 0), BuildingBlock: KIFKEQ_clean_linker_1, # of connection points: 2
#     Edge 13, Type (0, 0), BuildingBlock: KIFKEQ_clean_linker_1, # of connection points: 2
#     Edge 14, Type (0, 0), BuildingBlock: KIFKEQ_clean_linker_1, # of connection points: 2
#     Edge 15, Type (0, 0), BuildingBlock: KIFKEQ_clean_linker_1, # of connection points: 2
#     Edge 16, Type (0, 0), BuildingBlock: KIFKEQ_clean_linker_1, # of connection points: 2
#     Edge 17, Type (0, 0), BuildingBlock: KIFKEQ_clean_linker_1, # of connection points: 2
#     Edge 18, Type (0, 0), BuildingBlock: KIFKEQ_clean_linker_1, # of connection points: 2
#     Edge 19, Type (0, 0), BuildingBlock: KIFKEQ_clean_linker_1, # of connection points: 2
#     Edge 20, Type (0, 0), BuildingBlock: KIFKEQ_clean_linker_1, # of connection points: 2
#     Edge 21, Type (0, 0), BuildingBlock: KIFKEQ_clean_linker_1, # of connection points: 2
#     Edge 22, Type (0, 0), BuildingBlock: KIFKEQ_clean_linker_1, # of connection points: 2
#     Edge 23, Type (0, 0), BuildingBlock: KIFKEQ_clean_linker_1, # of connection points: 2
#     Edge 24, Type (0, 0), BuildingBlock: KIFKEQ_clean_linker_1, # of connection points: 2
#     Edge 25, Type (0, 0), BuildingBlock: KIFKEQ_clean_linker_1, # of connection points: 2
#     Edge 26, Type (0, 0), BuildingBlock: KIFKEQ_clean_linker_1, # of connection points: 2
#     Edge 27, Type (0, 0), BuildingBlock: KIFKEQ_clean_linker_1, # of connection points: 2
# Relax obj value: 0.206
# Max RMSD: 0.136
# Mean RMSD: 0.136
data_MOF--net-loh--node1-XOMCOT_clean_sbu_1--edge1-KIFKEQ_clean_linker_1
_symmetry_space_group_name_H-M    P1
_symmetry_Int_Tables_number       1
_symmetry_cell_setting            triclinic
loop_
_symmetry_equiv_pos_as_xyz
'x, y, z'
_cell_length_a     26.984429
_cell_length_b     24.973549
_cell_length_c     41.471216
_cell_angle_alpha  90.022152
_cell_angle_beta   89.872435
_cell_angle_gamma 90.292454
loop_
_atom_site_label
_atom_site_type_symbol
_atom_site_fract_x
_atom_site_fract_y
_atom_site_fract_z
_atom_type_partial_charge
C0 C 1.05054 0.1416 0.13887 0.0
C1 C 1.05553 0.09094 0.15117 0.0
N2 N 1.04276 0.09174 0.1826 0.0
N3 N 1.03513 0.17504 0.16237 0.0
C4 C 1.0306 0.1434 0.18879 0.0
H5 H 0.05757 0.15317 0.11417 0.0
Co6 Co 1.01883 0.24764 0.15668 0.0
C7 C 1.03481 0.27879 0.21898 0.0
O8 O 0.9894 0.26004 0.2217 0.0
N9 N 1.00115 0.31868 0.15116 0.0
C10 C 0.95765 0.39383 0.15373 0.0
C11 C 0.96423 0.34388 0.16694 0.0
C12 C 1.01642 0.35387 0.12852 0.0
N13 N 0.99062 0.39986 0.12959 0.0
O14 O 0.07659 0.25807 0.12825 0.0
H15 H 0.94174 0.32611 0.18572 0.0
H16 H 1.04338 0.34477 0.11005 0.0
O17 O 0.0585 0.26931 0.19301 0.0
C18 C 0.12168 0.24474 0.133 0.0
O19 O 0.13377 0.21949 0.15961 0.0
N20 N 0.97664 0.22969 0.12226 0.0
C21 C 0.90036 0.22906 0.07633 0.0
C22 C 0.88993 0.22588 0.10954 0.0
C23 C 0.92854 0.22569 0.13195 0.0
C24 C 0.98818 0.23033 0.09019 0.0
C25 C 0.9506 0.22924 0.06688 0.0
H26 H 0.91997 0.22627 0.15744 0.0
H27 H 1.02619 0.23386 0.08227 0.0
H28 H 1.01743 0.15765 0.21188 0.0
H29 H 0.06805 0.05624 0.13788 0.0
H30 H 0.92968 0.42264 0.16055 0.0
H31 H 0.85229 0.22657 0.11854 0.0
H32 H 0.96109 0.23018 0.04169 0.0
C33 C 0.59526 0.89645 0.64073 0.0
C34 C 0.59106 0.94651 0.65394 0.0
N35 N 0.60528 0.94428 0.68501 0.0
N36 N 0.61166 0.86183 0.66325 0.0
C37 C 0.61747 0.89229 0.69012 0.0
H38 H 0.58712 0.88618 0.61599 0.0
Co39 Co 0.62771 0.78962 0.65492 0.0
C40 C 0.61274 0.75477 0.71675 0.0
O41 O 0.65812 0.77361 0.71933 0.0
N42 N 0.64479 0.71898 0.64626 0.0
C43 C 0.68505 0.64159 0.64521 0.0
C44 C 0.67704 0.68791 0.66246 0.0
C45 C 0.63393 0.69097 0.61935 0.0
N46 N 0.65787 0.64382 0.61806 0.0
O47 O 0.56943 0.78174 0.62694 0.0
H48 H 0.6957 0.69923 0.68446 0.0
H49 H 0.6118 0.7065 0.59982 0.0
O50 O 0.58877 0.76474 0.69101 0.0
C51 C 0.52432 0.79407 0.63262 0.0
O52 O 0.51254 0.81718 0.66004 0.0
N53 N 0.66932 0.81075 0.62083 0.0
C54 C 0.74514 0.81378 0.5745 0.0
C55 C 0.75593 0.8131 0.60766 0.0
C56 C 0.71755 0.81212 0.6303 0.0
C57 C 0.65746 0.81416 0.58891 0.0
C58 C 0.69489 0.81639 0.5654 0.0
H59 H 0.72627 0.80826 0.65564 0.0
H60 H 0.61928 0.81256 0.58121 0.0
H61 H 0.63172 0.87709 0.71266 0.0
H62 H 0.57818 0.98189 0.64151 0.0
H63 H 0.71011 0.60965 0.65167 0.0
H64 H 0.79359 0.81009 0.61633 0.0
H65 H 0.68426 0.81833 0.54029 0.0
C66 C 0.11213 0.85451 0.86302 0.0
C67 C 0.11733 0.90063 0.84541 0.0
N68 N 0.07527 0.92881 0.84821 0.0
N69 N 0.06687 0.85328 0.87705 0.0
C70 C 1.04513 0.89944 0.86747 0.0
H71 H 0.13911 0.82272 0.86447 0.0
Co72 Co 1.04065 0.79216 0.89745 0.0
C73 C 1.04487 0.73466 0.84168 0.0
O74 O 1.00065 0.75594 0.83893 0.0
N75 N 1.01371 0.73154 0.91615 0.0
C76 C 0.95742 0.66988 0.9282 0.0
C77 C 0.96892 0.71177 0.90813 0.0
C78 C 1.02901 0.70106 0.94102 0.0
N79 N 0.99524 0.66312 0.94899 0.0
O80 O 0.10074 0.7857 0.92424 0.0
H81 H 0.94523 0.72825 0.88968 0.0
H82 H 0.06371 0.70731 0.95344 0.0
O83 O 0.07162 0.74775 0.86568 0.0
C84 C 0.13016 0.82049 0.93652 0.0
O85 O 0.12023 0.87172 0.93348 0.0
N86 N 1.00562 0.83293 0.9283 0.0
C87 C 0.92793 0.84404 0.97298 0.0
C88 C 0.9192 0.84731 0.93961 0.0
C89 C 0.95861 0.84231 0.91779 0.0
C90 C 1.01558 0.8342 0.9606 0.0
C91 C 0.97758 0.84142 0.98314 0.0
H92 H 0.95046 0.83863 0.89236 0.0
H93 H 1.05142 0.8239 0.96986 0.0
H94 H 1.00714 0.90991 0.87275 0.0
H95 H 0.149 0.91196 0.83079 0.0
H96 H 0.92285 0.64776 0.92822 0.0
H97 H 0.88197 0.84874 0.93005 0.0
H98 H 0.98707 0.84068 1.00846 0.0
C99 C 0.60725 0.14451 0.40665 0.0
C100 C 0.59925 0.09526 0.393 0.0
N101 N 0.61219 0.09787 0.36171 0.0
N102 N 0.62457 0.17892 0.3841 0.0
C103 C 0.6279 0.14888 0.35691 0.0
H104 H 0.60028 0.15455 0.43158 0.0
Co105 Co 0.64082 0.25131 0.39215 0.0
C106 C 0.62278 0.28251 0.32919 0.0
O107 O 0.66733 0.26282 0.32473 0.0
N108 N 0.65762 0.32207 0.40049 0.0
C109 C 0.69359 0.40229 0.39976 0.0
C110 C 0.68749 0.35475 0.38325 0.0
C111 C 0.64623 0.3502 0.42722 0.0
N112 N 0.66737 0.39913 0.42738 0.0
O113 O 0.58268 0.25852 0.42032 0.0
H114 H 0.70494 0.34416 0.36066 0.0
H115 H 0.62502 0.3341 0.44715 0.0
O116 O 0.60174 0.27572 0.35642 0.0
C117 C 0.53759 0.24588 0.41461 0.0
O118 O 0.52584 0.22312 0.38707 0.0
N119 N 0.68247 0.23076 0.42605 0.0
C120 C 0.75803 0.22673 0.47223 0.0
C121 C 0.769 0.22846 0.43908 0.0
C122 C 0.73072 0.22995 0.4165 0.0
C123 C 0.67046 0.22659 0.45796 0.0
C124 C 0.70774 0.22382 0.48138 0.0
H125 H 0.73955 0.2344 0.39118 0.0
H126 H 0.63227 0.22778 0.46573 0.0
H127 H 0.64085 0.16402 0.33397 0.0
H128 H 0.58537 0.05995 0.40525 0.0
H129 H 0.71604 0.43612 0.39226 0.0
H130 H 0.80674 0.23178 0.43042 0.0
H131 H 0.69701 0.22113 0.50648 0.0
C132 C 0.58282 0.64471 0.13654 0.0
C133 C 0.59173 0.5953 0.14972 0.0
N134 N 0.579 0.59676 0.1811 0.0
N135 N 0.5654 0.67796 0.15957 0.0
C136 C 0.56271 0.64719 0.18644 0.0
H137 H 0.5883 0.65556 0.11154 0.0
Co138 Co 0.54547 0.74906 0.15266 0.0
C139 C 0.56609 0.78155 0.21517 0.0
O140 O 0.52246 0.75991 0.22083 0.0
N141 N 0.52442 0.8185 0.14572 0.0
C142 C 0.47996 0.89308 0.14717 0.0
C143 C 0.48984 0.84544 0.16262 0.0
C144 C 0.53506 0.85022 0.12035 0.0
N145 N 0.50863 0.89576 0.12058 0.0
O146 O 0.60158 0.76094 0.12308 0.0
H147 H 0.47141 0.83038 0.18396 0.0
H148 H 0.55916 0.83865 0.10073 0.0
O149 O 0.58569 0.77533 0.18747 0.0
C150 C 0.64742 0.75084 0.12764 0.0
O151 O 0.66148 0.72728 0.1544 0.0
N152 N 0.50283 0.72642 0.11969 0.0
C153 C 0.42199 0.72319 0.0778 0.0
C154 C 0.41594 0.71267 0.11083 0.0
C155 C 0.4569 0.71447 0.13132 0.0
C156 C 0.51045 0.73248 0.0873 0.0
C157 C 0.47032 0.73077 0.06587 0.0
H158 H 0.45147 0.71057 0.15707 0.0
H159 H 0.54669 0.74259 0.07799 0.0
H160 H 0.54914 0.66128 0.20945 0.0
H161 H 0.60543 0.5605 0.137 0.0
H162 H 0.45292 0.92262 0.15442 0.0
H163 H 0.37947 0.70584 0.12104 0.0
H164 H 0.47668 0.73928 0.04059 0.0
C165 C 0.12036 0.39548 0.64114 0.0
C166 C 0.11634 0.44441 0.65603 0.0
N167 N 0.1202 0.43682 0.688 0.0
N168 N 0.12713 0.35696 0.66359 0.0
C169 C 0.12659 0.38364 0.69201 0.0
H170 H 0.118 0.38867 0.61549 0.0
Co171 Co 0.13834 0.28388 0.65567 0.0
C172 C 0.11483 0.25371 0.71839 0.0
O173 O 0.16097 0.26833 0.72362 0.0
N174 N 0.15056 0.21221 0.64776 0.0
C175 C 0.18294 0.13063 0.64887 0.0
C176 C 0.1784 0.17835 0.66532 0.0
C177 C 0.13875 0.18458 0.62093 0.0
N178 N 0.15776 0.13489 0.621 0.0
O179 O 0.08111 0.28062 0.62681 0.0
H180 H 0.196 0.18837 0.68793 0.0
H181 H 0.11933 0.20166 0.60066 0.0
O182 O 0.09592 0.2628 0.69081 0.0
C183 C 1.03726 0.29837 0.63104 0.0
O184 O 1.02649 0.32531 0.65733 0.0
N185 N 0.1827 0.30119 0.62221 0.0
C186 C 0.2595 0.30466 0.57656 0.0
C187 C 0.26959 0.30044 0.60973 0.0
C188 C 0.23073 0.2993 0.63205 0.0
C189 C 0.17168 0.30688 0.59027 0.0
C190 C 0.20957 0.3096 0.56718 0.0
H191 H 0.23877 0.29363 0.65736 0.0
H192 H 0.13368 0.30789 0.58222 0.0
H193 H 0.1314 0.36488 0.71523 0.0
H194 H 0.10999 0.48251 0.64433 0.0
H195 H 0.204 0.09609 0.65643 0.0
H196 H 0.30697 0.29541 0.61854 0.0
H197 H 0.19946 0.3143 0.54211 0.0
C198 C 0.5376 0.39989 0.90721 0.0
C199 C 0.54116 0.44912 0.89267 0.0
N200 N 0.53736 0.44214 0.86064 0.0
N201 N 0.53109 0.36153 0.88457 0.0
C202 C 0.53156 0.38874 0.85625 0.0
H203 H 0.53956 0.39277 0.93285 0.0
Co204 Co 0.5187 0.28843 0.89353 0.0
C205 C 0.54092 0.25481 0.83184 0.0
O206 O 0.49529 0.27101 0.82695 0.0
N207 N 0.50532 0.21714 0.90257 0.0
C208 C 0.47236 0.13543 0.90279 0.0
C209 C 0.47735 0.18234 0.88553 0.0
C210 C 0.51663 0.19088 0.92993 0.0
N211 N 0.49727 0.14113 0.9307 0.0
O212 O 0.57558 0.28613 0.92291 0.0
H213 H 0.46011 0.19111 0.86266 0.0
H214 H 0.53614 0.20898 0.94991 0.0
O215 O 0.56121 0.26517 0.85888 0.0
C216 C 0.61974 0.3036 0.91882 0.0
O217 O 0.63123 0.32979 0.89235 0.0
N218 N 0.4738 0.30735 0.92638 0.0
C219 C 0.39525 0.30893 0.97036 0.0
C220 C 0.38634 0.30672 0.93711 0.0
C221 C 0.42619 0.3065 0.91554 0.0
C222 C 0.48343 0.31158 0.95864 0.0
C223 C 0.44444 0.31318 0.98106 0.0
H224 H 0.41923 0.30207 0.88999 0.0
H225 H 0.52106 0.31125 0.96744 0.0
H226 H 0.52661 0.37022 0.83291 0.0
H227 H 0.54673 0.48718 0.90467 0.0
H228 H 0.45133 0.10039 0.89564 0.0
H229 H 0.3489 0.30342 0.92793 0.0
H230 H 0.45273 0.31451 1.0066 0.0
C231 C 0.10414 0.63828 0.40647 0.0
C232 C 0.10064 0.5887 0.39234 0.0
N233 N 0.10719 0.59461 0.36041 0.0
N234 N 0.11331 0.67575 0.38367 0.0
C235 C 0.11455 0.64769 0.35566 0.0
H236 H 0.10028 0.64621 0.43193 0.0
Co237 Co 0.12692 0.74875 0.39199 0.0
C238 C 0.10694 0.78122 0.32963 0.0
O239 O 0.1525 0.76439 0.32512 0.0
N240 N 0.14153 0.81993 0.4004 0.0
C241 C 0.17799 0.89988 0.40044 0.0
C242 C 0.17141 0.85298 0.38341 0.0
C243 C 0.1305 0.84728 0.42747 0.0
N244 N 0.15208 0.89596 0.42813 0.0
O245 O 0.06919 0.7534 0.42065 0.0
H246 H 0.18924 0.84275 0.36089 0.0
H247 H 0.10996 0.83046 0.44748 0.0
O248 O 0.08603 0.77184 0.35665 0.0
C249 C 1.02477 0.73714 0.41613 0.0
O250 O 1.01352 0.71096 0.38963 0.0
N251 N 0.17017 0.72977 0.42564 0.0
C252 C 0.24642 0.72698 0.47155 0.0
C253 C 0.25694 0.72987 0.43834 0.0
C254 C 0.21837 0.73067 0.41591 0.0
C255 C 0.15868 0.725 0.4576 0.0
C256 C 0.19627 0.72265 0.48084 0.0
H257 H 0.22684 0.73571 0.39058 0.0
H258 H 0.12057 0.72489 0.46558 0.0
H259 H 0.12187 0.66534 0.33233 0.0
H260 H 0.09328 0.55115 0.40453 0.0
H261 H 0.2011 0.93349 0.39344 0.0
H262 H 0.29449 0.73437 0.42954 0.0
H263 H 0.18575 0.71893 0.50593 0.0
H264 H 0.36799 0.37493 1.0202 0.0
H265 H 0.3293 0.22654 0.97304 0.0
H266 H 0.29947 0.36138 0.05877 0.0
H267 H 0.26214 0.21228 1.01208 0.0
H268 H 0.20475 0.18662 0.12116 0.0
H269 H 0.26957 0.20388 0.08104 0.0
H270 H 0.1923 0.34512 0.04955 0.0
H271 H 0.12624 0.32698 0.08905 0.0
C272 C 0.34484 0.33954 1.01813 0.0
C273 C 0.3537 0.3019 0.9936 0.0
C274 C 0.30566 0.33192 0.04002 0.0
C275 C 0.27561 0.28586 0.03825 0.0
C276 C 0.28475 0.24813 1.01388 0.0
C277 C 0.32301 0.25637 0.99156 0.0
C278 C 0.20144 0.2213 0.10565 0.0
C279 C 0.1603 0.25539 0.10824 0.0
C280 C 0.23849 0.23106 0.08269 0.0
C281 C 0.23592 0.27589 0.06239 0.0
C282 C 0.19514 0.31039 0.06507 0.0
C283 C 0.15729 0.29983 0.08751 0.0
H284 H 0.52032 0.7138 0.58758 0.0
H285 H 0.43963 0.85032 0.62308 0.0
H286 H 0.45319 0.69371 0.55016 0.0
H287 H 0.37416 0.83315 0.58435 0.0
H288 H 0.24169 0.77032 0.53277 0.0
H289 H 0.30752 0.78207 0.57143 0.0
H290 H 0.41168 0.71349 0.50385 0.0
H291 H 0.34464 0.69602 0.4666 0.0
C292 C 0.48851 0.74003 0.58698 0.0
C293 C 0.48514 0.78346 0.60838 0.0
C294 C 0.4499 0.72875 0.56535 0.0
C295 C 0.4074 0.76144 0.56401 0.0
C296 C 0.4051 0.80579 0.58502 0.0
C297 C 0.44304 0.81615 0.60714 0.0
C298 C 0.27821 0.7562 0.52629 0.0
C299 C 0.28713 0.73214 0.49611 0.0
C300 C 0.31666 0.7642 0.54842 0.0
C301 C 0.36579 0.74976 0.54093 0.0
C302 C 0.37462 0.72494 0.51096 0.0
C303 C 0.33591 0.71574 0.48912 0.0
H304 H 0.40521 0.68806 1.01567 0.0
H305 H 0.33936 0.78051 0.09249 0.0
H306 H 0.33427 0.70897 0.98094 0.0
H307 H 0.26891 0.80081 0.05812 0.0
H308 H 0.18831 0.88326 0.97493 0.0
H309 H 0.25792 0.85651 1.00836 0.0
H310 H 0.23978 0.69284 0.97691 0.0
H311 H 0.1694 0.71958 0.94329 0.0
C312 C 0.37552 0.71248 0.0252 0.0
C313 C 0.37788 0.73235 0.05692 0.0
C314 C 0.33481 0.72417 1.0054 0.0
C315 C 0.29609 0.75674 1.01675 0.0
C316 C 0.2983 0.77599 0.04855 0.0
C317 C 0.3385 0.76384 0.06838 0.0
C318 C 0.19902 0.84152 0.97502 0.0
C319 C 0.17307 0.80357 0.95644 0.0
C320 C 0.23886 0.82616 0.99435 0.0
C321 C 0.25425 0.77251 0.99542 0.0
C322 C 0.22893 0.73453 0.97646 0.0
C323 C 0.18851 0.74982 0.95735 0.0
H324 H 0.53333 0.32505 0.46026 0.0
H325 H 0.45347 0.18775 0.42403 0.0
H326 H 0.46618 0.34302 0.49814 0.0
H327 H 0.38802 0.20284 0.46316 0.0
H328 H 0.35769 0.33608 0.58208 0.0
H329 H 0.425 0.32059 0.54457 0.0
H330 H 0.32117 0.25334 0.47617 0.0
H331 H 0.2551 0.26316 0.51496 0.0
C332 C 0.50169 0.29822 0.46079 0.0
C333 C 0.49849 0.25522 0.43906 0.0
C334 C 0.46311 0.30827 0.48267 0.0
C335 C 0.42087 0.27475 0.48388 0.0
C336 C 0.41877 0.23079 0.46256 0.0
C337 C 0.45667 0.22165 0.44022 0.0
C338 C 0.34913 0.31708 0.5593 0.0
C339 C 0.30039 0.30049 0.55206 0.0
C340 C 0.38795 0.30903 0.53735 0.0
C341 C 0.37922 0.28518 0.50709 0.0
C342 C 0.33016 0.2705 0.4994 0.0
C343 C 0.29161 0.27737 0.52161 0.0
H344 H 0.6508 0.83869 0.088 0.0
H345 H 0.7294 0.69431 0.11195 0.0
H346 H 0.7178 0.86505 0.0515 0.0
H347 H 0.7944 0.71784 0.07396 0.0
H348 H 0.92876 0.78873 0.03054 0.0
H349 H 0.86151 0.77083 0.06694 0.0
H350 H 0.76135 0.8557 1.00405 0.0
H351 H 0.83047 0.87943 0.96922 0.0
C352 C 0.68202 0.8121 0.08491 0.0
C353 C 0.68515 0.76469 0.10299 0.0
C354 C 0.72054 0.82704 0.06386 0.0
C355 C 0.76256 0.79422 0.05984 0.0
C356 C 0.76404 0.74552 0.07704 0.0
C357 C 0.72635 0.73148 0.09865 0.0
C358 C 0.89301 0.80548 0.02468 0.0
C359 C 0.88599 0.83611 0.99653 0.0
C360 C 0.85358 0.79371 0.04542 0.0
C361 C 0.80506 0.81049 0.03841 0.0
C362 C 0.79793 0.84201 1.01063 0.0
C363 C 0.83781 0.85504 0.9902 0.0
H364 H 1.03014 0.21371 0.58931 0.0
H365 H 0.95499 0.35763 0.61893 0.0
H366 H 0.96244 0.19257 0.55265 0.0
H367 H 0.88877 0.33888 0.58089 0.0
H368 H 0.75395 0.27446 0.53217 0.0
H369 H 0.82022 0.28784 0.57047 0.0
H370 H 0.92252 0.21049 0.50519 0.0
H371 H 0.85505 0.19196 0.4684 0.0
C372 C 0.99949 0.24134 0.58753 0.0
C373 C 0.99786 0.28727 0.60705 0.0
C374 C 0.96055 0.22939 0.56635 0.0
C375 C 0.9194 0.26372 0.56362 0.0
C376 C 0.91874 0.31043 0.58273 0.0
C377 C 0.95709 0.32165 0.6044 0.0
C378 C 0.79015 0.25882 0.5262 0.0
C379 C 0.79855 0.23211 0.4968 0.0
C380 C 0.82879 0.26768 0.54806 0.0
C381 C 0.8775 0.25123 0.54101 0.0
C382 C 0.88574 0.22357 0.5119 0.0
C383 C 0.84685 0.21368 0.49034 0.0
H384 H 0.80357 0.19166 0.07931 0.0
H385 H 0.90283 0.28275 1.0181 0.0
H386 H 0.7356 0.21138 0.04336 0.0
H387 H 0.83623 0.29722 0.9804 0.0
H388 H 0.70108 0.36444 0.93233 0.0
H389 H 0.76719 0.34579 0.97033 0.0
H390 H 0.69491 0.19663 0.99607 0.0
H391 H 0.6272 0.21779 0.95958 0.0
C392 C 0.8113 0.21558 0.05813 0.0
C393 C 0.85931 0.2359 0.05219 0.0
C394 C 0.77207 0.22617 0.03698 0.0
C395 C 0.77962 0.25643 1.00871 0.0
C396 C 0.82803 0.275 1.00217 0.0
C397 C 0.86697 0.26549 1.02368 0.0
C398 C 0.69924 0.32788 0.94636 0.0
C399 C 0.65883 0.29272 0.94304 0.0
C400 C 0.73757 0.3167 0.968 0.0
C401 C 0.73741 0.26915 0.98637 0.0
C402 C 0.69653 0.23409 0.98301 0.0
C403 C 0.65753 0.24605 0.96191 0.0
H404 H 0.84272 0.84803 0.578 0.0
H405 H 0.74085 0.76481 0.51487 0.0
H406 H 0.91016 0.82821 0.54143 0.0
H407 H 0.80717 0.75025 0.47668 0.0
H408 H 0.94097 0.67928 0.42812 0.0
H409 H 0.87475 0.69908 0.46602 0.0
H410 H 0.95141 0.84431 0.4943 0.0
H411 H 1.0191 0.82196 0.45785 0.0
C412 C 0.83434 0.82588 0.55624 0.0
C413 C 0.78578 0.80763 0.54994 0.0
C414 C 0.87326 0.81524 0.53478 0.0
C415 C 0.86486 0.78704 0.50585 0.0
C416 C 0.81592 0.77079 0.49894 0.0
C417 C 0.77723 0.78035 0.52073 0.0
C418 C 0.94372 0.71524 0.44264 0.0
C419 C 0.98534 0.74892 0.44006 0.0
C420 C 0.90535 0.72709 0.46423 0.0
C421 C 0.9068 0.77383 0.48332 0.0
C422 C 0.94881 0.80748 0.48065 0.0
C423 C 0.98778 0.79484 0.45957 0.0
H424 H 0.97697 0.33908 0.2584 0.0
H425 H 0.12901 0.31972 0.2278 0.0
H426 H 1.00035 0.41813 0.28935 0.0
H427 H 0.15259 0.39863 0.26012 0.0
H428 H 0.15167 0.49855 0.36452 0.0
H429 H 0.13981 0.4215 0.32848 0.0
H430 H 1.04413 0.51644 0.26838 0.0
H431 H 1.05735 0.59409 0.30398 0.0
C432 C 1.0156 0.35104 0.2587 0.0
C433 C 1.05122 0.3227 0.24075 0.0
C434 C 1.02878 0.39672 0.2762 0.0
C435 C 0.07807 0.41466 0.27681 0.0
C436 C 0.11424 0.38561 0.25984 0.0
C437 C 0.1008 0.34042 0.24154 0.0
C438 C 0.12897 0.50311 0.3432 0.0
C439 C 0.10539 0.5521 0.33693 0.0
C440 C 0.12236 0.45922 0.3226 0.0
C441 C 0.09105 0.46315 0.29576 0.0
C442 C 0.06856 0.51257 0.28892 0.0
C443 C 0.07623 0.55691 0.30911 0.0
H444 H 0.67033 0.6951 0.7565 0.0
H445 H 0.51849 0.71388 0.72582 0.0
H446 H 0.64673 0.61681 0.7881 0.0
H447 H 0.49466 0.63574 0.75875 0.0
H448 H 0.49126 0.53755 0.86252 0.0
H449 H 0.50428 0.61363 0.82592 0.0
H450 H 0.60537 0.51861 0.76939 0.0
H451 H 0.59106 0.44194 0.80555 0.0
C452 C 0.63169 0.68314 0.75688 0.0
C453 C 0.59621 0.71111 0.73872 0.0
C454 C 0.61837 0.63788 0.77476 0.0
C455 C 0.56906 0.61999 0.77557 0.0
C456 C 0.53303 0.6487 0.75835 0.0
C457 C 0.54661 0.69345 0.73969 0.0
C458 C 0.51547 0.53275 0.84187 0.0
C459 C 0.54021 0.48401 0.83678 0.0
C460 C 0.52275 0.57609 0.82093 0.0
C461 C 0.55588 0.57194 0.79494 0.0
C462 C 0.57959 0.52273 0.78928 0.0
C463 C 0.5713 0.47891 0.80979 0.0
H464 H 0.15874 0.53665 0.68638 0.0
H465 H 0.07122 0.42865 0.7446 0.0
H466 H 0.14497 0.60852 0.72574 0.0
H467 H 1.05644 0.50085 0.78361 0.0
H468 H 0.98446 0.67011 0.80658 0.0
H469 H 1.0076 0.59546 0.77179 0.0
H470 H 0.16207 0.62581 0.79156 0.0
H471 H 0.1389 0.70015 0.82745 0.0
C472 C 0.13691 0.52832 0.70775 0.0
C473 C 0.11588 0.47731 0.71251 0.0
C474 C 0.12931 0.5692 0.73027 0.0
C475 C 0.09963 0.56005 0.75756 0.0
C476 C 0.07948 0.50874 0.7627 0.0
C477 C 0.08806 0.46752 0.74055 0.0
C478 C 1.0234 0.66107 0.80351 0.0
C479 C 0.05992 0.69109 0.81964 0.0
C480 C 1.03653 0.61809 0.78381 0.0
C481 C 0.0865 0.60487 0.77924 0.0
C482 C 0.12326 0.63531 0.79484 0.0
C483 C 0.11003 0.67768 0.81528 0.0
H484 H 0.63717 0.28632 0.26433 0.0
H485 H 0.5694 0.37257 0.34287 0.0
H486 H 0.62128 0.36122 0.22833 0.0
H487 H 0.55592 0.44911 0.30746 0.0
H488 H 0.5144 0.57108 0.22909 0.0
H489 H 0.5171 0.49189 0.26392 0.0
H490 H 0.65494 0.445 0.21884 0.0
H491 H 0.65061 0.52235 0.18358 0.0
C492 C 0.6183 0.32119 0.27377 0.0
C493 C 0.60446 0.32348 0.30636 0.0
C494 C 0.60979 0.36462 0.25327 0.0
C495 C 0.58839 0.41223 0.26499 0.0
C496 C 0.57221 0.41333 0.29733 0.0
C497 C 0.57985 0.3693 0.31771 0.0
C498 C 0.54524 0.54377 0.22689 0.0
C499 C 0.58208 0.55261 0.20346 0.0
C500 C 0.5469 0.49831 0.24682 0.0
C501 C 0.58585 0.46108 0.24404 0.0
C502 C 0.62338 0.47132 0.22116 0.0
C503 C 0.62125 0.51607 0.20103 0.0
H504 H 0.55303 0.78694 0.2801 0.0
H505 H 0.61918 0.87201 0.20024 0.0
H506 H 0.56936 0.86302 0.31525 0.0
H507 H 0.63334 0.94962 0.23493 0.0
H508 H 0.67665 0.07276 0.31358 0.0
H509 H 0.67335 0.9934 0.27866 0.0
H510 H 0.53453 0.94699 0.32313 0.0
H511 H 0.53925 0.02448 0.3583 0.0
C512 C 0.57164 0.82179 0.27017 0.0
C513 C 0.58478 0.82344 0.23744 0.0
C514 C 0.58044 0.86586 0.2902 0.0
C515 C 0.60154 0.91341 0.27788 0.0
C516 C 0.6172 0.91389 0.24544 0.0
C517 C 0.60917 0.86926 0.2255 0.0
C518 C 0.64543 0.04555 0.31557 0.0
C519 C 0.60849 0.05443 0.33887 0.0
C520 C 0.64346 1.00002 0.29563 0.0
C521 C 0.60415 0.96279 0.29838 0.0
C522 C 0.56636 0.97331 0.32093 0.0
C523 C 0.56873 1.01812 0.34099 0.0
H524 H 0.08289 0.94275 0.78439 0.0
H525 H 1.04467 0.02337 0.87273 0.0
H526 H 0.07745 0.0272 0.75494 0.0
H527 H 1.04004 0.10906 0.84338 0.0
H528 H 0.13464 0.23947 0.78226 0.0
H529 H 0.11061 0.16302 0.81563 0.0
H530 H 1.0191 0.10281 0.73835 0.0
H531 H 1.04271 0.17957 0.70501 0.0
C532 C 0.07231 0.97866 0.79728 0.0
C533 C 0.06416 0.97689 0.83069 0.0
C534 C 0.06893 0.02691 0.78048 0.0
C535 C 0.05825 0.07479 0.79683 0.0
C536 C 1.04829 0.07275 0.83017 0.0
C537 C 1.05067 0.02395 0.84691 0.0
C538 C 0.10819 0.21078 0.77274 0.0
C539 C 0.09089 0.21538 0.74091 0.0
C540 C 0.09427 0.16709 0.79192 0.0
C541 C 0.06334 0.12667 0.77949 0.0
C542 C 1.04325 0.13321 0.74848 0.0
C543 C 1.05656 0.17737 0.72947 0.0
H544 H 0.62023 0.04862 0.66998 0.0
H545 H 0.59435 0.9424 0.75042 0.0
H546 H 0.61308 0.12557 0.70552 0.0
H547 H 0.58752 0.02014 0.78637 0.0
H548 H 0.60832 0.17576 0.84532 0.0
H549 H 0.63141 0.10028 0.81058 0.0
H550 H 0.54261 0.16606 0.73386 0.0
H551 H 0.51971 0.2409 0.76836 0.0
C552 C 0.613 0.04159 0.69531 0.0
C553 C 0.60686 0.98914 0.70716 0.0
C554 C 0.60905 0.08587 0.71573 0.0
C555 C 0.59904 0.07921 0.74875 0.0
C556 C 0.59548 0.02672 0.76107 0.0
C557 C 0.59935 0.98214 0.74048 0.0
C558 C 0.59476 0.17469 0.82076 0.0
C559 C 0.56242 0.21457 0.8095 0.0
C560 C 0.60748 0.13109 0.80101 0.0
C561 C 0.58876 0.12693 0.76944 0.0
C562 C 0.55815 0.16812 0.75789 0.0
C563 C 0.54496 0.21112 0.77769 0.0
H564 H 1.0524 0.09251 0.24808 0.0
H565 H 1.03213 0.98694 0.16663 0.0
H566 H 0.05953 1.01459 0.28359 0.0
H567 H 1.03976 0.90971 0.20183 0.0
H568 H 0.13117 0.79529 0.2665 0.0
H569 H 0.10898 0.86972 0.23155 0.0
H570 H 1.01545 0.93412 0.30659 0.0
H571 H 1.03785 0.85919 0.34177 0.0
C572 C 1.04879 0.05288 0.23777 0.0
C573 C 1.04256 0.04626 0.20431 0.0
C574 C 1.05282 1.00815 0.25814 0.0
C575 C 1.0508 0.9558 0.24551 0.0
C576 C 1.04251 0.94935 0.2123 0.0
C577 C 1.03831 0.99384 0.19205 0.0
C578 C 0.10508 0.8247 0.27535 0.0
C579 C 0.08613 0.82109 0.30686 0.0
C580 C 0.09228 0.86743 0.25528 0.0
C581 C 0.06058 0.90815 0.26628 0.0
C582 C 1.04031 0.90371 0.29748 0.0
C583 C 1.05265 0.86042 0.31748 0.0
H584 H 0.94044 0.57246 0.95637 0.0
H585 H 1.05438 0.66826 1.00221 0.0
H586 H 0.94002 0.51222 1.00232 0.0
H587 H 1.05491 0.60634 0.04759 0.0
H588 H 0.07244 0.43823 0.09994 0.0
H589 H 0.07536 0.50465 0.05647 0.0
H590 H 0.91658 0.52258 0.06283 0.0
H591 H 0.91372 0.45639 0.10618 0.0
C592 C 0.96525 0.58101 0.97617 0.0
C593 C 0.9971 0.62578 0.97549 0.0
C594 C 0.96503 0.5463 1.00246 0.0
C595 C 0.99713 0.55505 0.02849 0.0
C596 C 1.02992 0.59878 0.02768 0.0
C597 C 1.02969 0.63405 1.00153 0.0
C598 C 1.03834 0.45683 0.09216 0.0
C599 C 0.99288 0.44232 0.10632 0.0
C600 C 1.04003 0.49487 0.06751 0.0
C601 C 0.99615 0.51829 0.05632 0.0
C602 C 0.95085 0.5047 0.07096 0.0
C603 C 0.94927 0.4673 0.09591 0.0
H604 H 0.73377 0.58059 0.59878 0.0
H605 H 0.58344 0.62523 0.57606 0.0
H606 H 0.7357 0.52242 0.55145 0.0
H607 H 0.58584 0.56848 0.52829 0.0
H608 H 0.59082 0.41426 0.46827 0.0
H609 H 0.58871 0.47311 0.51503 0.0
H610 H 0.73583 0.53051 0.49181 0.0
H611 H 0.73843 0.47014 0.44538 0.0
C612 C 0.70106 0.57768 0.58383 0.0
C613 C 0.65843 0.60743 0.59115 0.0
C614 C 0.7024 0.54498 0.55649 0.0
C615 C 0.66103 0.54115 0.53607 0.0
C616 C 0.61821 0.57036 0.54366 0.0
C617 C 0.61695 0.60315 0.57088 0.0
C618 C 0.62276 0.43933 0.47318 0.0
C619 C 0.66492 0.43736 0.45328 0.0
C620 C 0.62138 0.47339 0.4998 0.0
C621 C 0.66219 0.50625 0.50717 0.0
C622 C 0.70406 0.50512 0.48693 0.0
C623 C 0.70534 0.47111 0.46015 0.0
H624 H 0.42843 0.06718 0.94835 0.0
H625 H 0.57148 0.13275 0.97384 0.0
H626 H 0.43119 1.00886 0.99563 0.0
H627 H 0.57342 0.07633 1.02155 0.0
H628 H 0.43023 0.95516 0.10134 0.0
H629 H 0.42743 1.01557 0.055 0.0
H630 H 0.58156 0.98261 0.0351 0.0
H631 H 0.58471 0.92412 0.0819 0.0
C632 C 0.46052 0.0689 0.96392 0.0
C633 C 0.49968 0.10459 0.95743 0.0
C634 C 0.4618 0.03612 0.99122 0.0
C635 C 0.50238 0.03829 1.0124 0.0
C636 C 0.54178 0.07346 1.0056 0.0
C637 C 0.54048 0.10613 0.97841 0.0
C638 C 0.46364 0.96167 0.08738 0.0
C639 C 0.50765 0.93485 0.09516 0.0
C640 C 0.46188 0.99561 0.06061 0.0
C641 C 0.50417 1.0035 0.04129 0.0
C642 C 0.54843 0.97766 0.04962 0.0
C643 C 0.55015 0.94381 0.07627 0.0
H644 H 0.07713 0.91164 0.47007 0.0
H645 H 0.22646 0.96184 0.44722 0.0
H646 H 0.07838 0.9675 0.51828 0.0
H647 H 0.22738 1.01889 0.49517 0.0
H648 H 0.08193 0.12093 0.57969 0.0
H649 H 0.08048 0.06377 0.53205 0.0
H650 H 0.22696 1.00652 0.55523 0.0
H651 H 0.22873 0.06485 0.60265 0.0
C652 C 0.11013 0.93485 0.47532 0.0
C653 C 0.15172 0.93238 0.45496 0.0
C654 C 0.11074 0.96704 0.50278 0.0
C655 C 0.15307 0.99729 0.51052 0.0
C656 C 0.19448 0.99544 0.48995 0.0
C657 C 0.19373 0.96343 0.46231 0.0
C658 C 0.11376 0.09609 0.57459 0.0
C659 C 0.15551 0.09742 0.59475 0.0
C660 C 0.11282 0.06315 0.54748 0.0
C661 C 0.15372 0.03097 0.53987 0.0
C662 C 0.19516 0.03145 0.56035 0.0
C663 C 0.19595 0.06423 0.58767 0.0
loop_
_geom_bond_atom_site_label_1
_geom_bond_atom_site_label_2
_geom_bond_distance
_geom_bond_site_symmetry_2
_ccdc_geom_bond_type
C0 C1 1.351 . S
C0 N3 1.368 . S
C0 H5 0.931 . S
C1 C0 1.351 . S
C1 N2 1.373 . S
C1 H29 0.930 . S
N2 C1 1.373 . S
N2 C4 1.340 . S
N3 C0 1.368 . S
N3 C4 1.321 . S
N3 Co6 2.135 . S
C4 N2 1.340 . S
C4 N3 1.321 . S
C4 H28 0.930 . S
H5 C0 0.931 . S
Co6 N3 2.135 . S
Co6 N9 2.121 . S
Co6 O14 2.055 . S
Co6 O17 2.039 . S
Co6 N20 2.140 1_455 S
C7 O8 1.227 1_455 S
C7 O17 1.265 . S
O8 C7 1.227 1_655 S
N9 Co6 2.121 . S
N9 C11 1.375 . S
N9 C12 1.313 . S
C10 C11 1.338 . S
C10 N13 1.377 . S
C10 H30 0.930 . S
C11 N9 1.375 . S
C11 C10 1.338 . S
C11 H15 0.915 1_455 S
C12 N9 1.313 . S
C12 N13 1.344 . S
C12 H16 0.930 . S
N13 C10 1.377 . S
N13 C12 1.344 . S
O14 Co6 2.055 . S
O14 C18 1.253 . S
H15 C11 0.915 1_655 S
H16 C12 0.930 . S
O17 Co6 2.039 . S
O17 C7 1.265 . S
C18 O14 1.253 . S
C18 O19 1.227 . S
O19 C18 1.227 . S
N20 Co6 2.140 1_655 S
N20 C23 1.346 . S
N20 C24 1.345 . S
C21 C22 1.387 . S
C21 C25 1.391 . S
C22 C21 1.387 . S
C22 C23 1.369 . S
C22 H31 0.929 . S
C23 N20 1.346 . S
C23 C22 1.369 . S
C23 H26 0.928 . S
C24 N20 1.345 . S
C24 C25 1.371 . S
C24 H27 0.931 1_655 S
C25 C21 1.391 . S
C25 C24 1.371 . S
C25 H32 0.930 . S
H26 C23 0.928 . S
H27 C24 0.931 1_455 S
H28 C4 0.930 . S
H29 C1 0.930 . S
H30 C10 0.930 . S
H31 C22 0.929 . S
H32 C25 0.930 . S
C33 C34 1.351 . S
C33 N36 1.368 . S
C33 H38 0.931 . S
C34 C33 1.351 . S
C34 N35 1.373 . S
C34 H62 0.930 . S
N35 C34 1.373 . S
N35 C37 1.340 . S
N36 C33 1.368 . S
N36 C37 1.321 . S
N36 Co39 2.135 . S
C37 N35 1.340 . S
C37 N36 1.321 . S
C37 H61 0.930 . S
H38 C33 0.931 . S
Co39 N36 2.135 . S
Co39 N42 2.121 . S
Co39 O47 2.055 . S
Co39 O50 2.039 . S
Co39 N53 2.140 . S
C40 O41 1.227 . S
C40 O50 1.265 . S
O41 C40 1.227 . S
N42 Co39 2.121 . S
N42 C44 1.375 . S
N42 C45 1.313 . S
C43 C44 1.338 . S
C43 N46 1.377 . S
C43 H63 0.930 . S
C44 N42 1.375 . S
C44 C43 1.338 . S
C44 H48 0.931 . S
C45 N42 1.313 . S
C45 N46 1.344 . S
C45 H49 0.930 . S
N46 C43 1.377 . S
N46 C45 1.344 . S
O47 Co39 2.055 . S
O47 C51 1.253 . S
H48 C44 0.931 . S
H49 C45 0.930 . S
O50 Co39 2.039 . S
O50 C40 1.265 . S
C51 O47 1.253 . S
C51 O52 1.227 . S
O52 C51 1.227 . S
N53 Co39 2.140 . S
N53 C56 1.346 . S
N53 C57 1.345 . S
C54 C55 1.387 . S
C54 C58 1.391 . S
C55 C54 1.387 . S
C55 C56 1.369 . S
C55 H64 0.929 . S
C56 N53 1.346 . S
C56 C55 1.369 . S
C56 H59 0.928 . S
C57 N53 1.345 . S
C57 C58 1.371 . S
C57 H60 0.931 . S
C58 C54 1.391 . S
C58 C57 1.371 . S
C58 H65 0.930 . S
H59 C56 0.928 . S
H60 C57 0.931 . S
H61 C37 0.930 . S
H62 C34 0.930 . S
H63 C43 0.930 . S
H64 C55 0.929 . S
H65 C58 0.930 . S
C66 C67 1.351 . S
C66 N69 1.368 . S
C66 H71 0.931 . S
C67 C66 1.351 . S
C67 N68 1.373 . S
C67 H95 0.930 . S
N68 C67 1.373 . S
N68 C70 1.340 . S
N69 C66 1.368 . S
N69 C70 1.321 . S
N69 Co72 2.135 . S
C70 N68 1.340 . S
C70 N69 1.321 . S
C70 H94 0.930 . S
H71 C66 0.931 . S
Co72 N69 2.135 . S
Co72 N75 2.121 . S
Co72 O80 2.055 . S
Co72 O83 2.039 . S
Co72 N86 2.140 1_455 S
C73 O74 1.227 1_455 S
C73 O83 1.265 . S
O74 C73 1.227 1_655 S
N75 Co72 2.121 . S
N75 C77 1.375 . S
N75 C78 1.313 . S
C76 C77 1.338 . S
C76 N79 1.377 . S
C76 H96 0.930 . S
C77 N75 1.375 . S
C77 C76 1.338 . S
C77 H81 0.915 1_455 S
C78 N75 1.313 . S
C78 N79 1.344 . S
C78 H82 0.930 . S
N79 C76 1.377 . S
N79 C78 1.344 . S
O80 Co72 2.055 . S
O80 C84 1.253 . S
H81 C77 0.915 1_655 S
H82 C78 0.930 . S
O83 Co72 2.039 . S
O83 C73 1.265 . S
C84 O80 1.253 . S
C84 O85 1.227 . S
O85 C84 1.227 . S
N86 Co72 2.140 1_655 S
N86 C89 1.346 . S
N86 C90 1.345 . S
C87 C88 1.387 . S
C87 C91 1.391 . S
C88 C87 1.387 . S
C88 C89 1.369 . S
C88 H97 0.929 . S
C89 N86 1.346 . S
C89 C88 1.369 . S
C89 H92 0.928 . S
C90 N86 1.345 . S
C90 C91 1.371 . S
C90 H93 0.931 1_655 S
C91 C87 1.391 . S
C91 C90 1.371 . S
C91 H98 0.930 . S
H92 C89 0.928 . S
H93 C90 0.931 1_455 S
H94 C70 0.930 . S
H95 C67 0.930 . S
H96 C76 0.930 . S
H97 C88 0.929 . S
H98 C91 0.930 . S
C99 C100 1.351 . S
C99 N102 1.368 . S
C99 H104 0.931 . S
C100 C99 1.351 . S
C100 N101 1.373 . S
C100 H128 0.930 . S
N101 C100 1.373 . S
N101 C103 1.340 . S
N102 C99 1.368 . S
N102 C103 1.321 . S
N102 Co105 2.135 . S
C103 N101 1.340 . S
C103 N102 1.321 . S
C103 H127 0.930 . S
H104 C99 0.931 . S
Co105 N102 2.135 . S
Co105 N108 2.121 . S
Co105 O113 2.055 . S
Co105 O116 2.039 . S
Co105 N119 2.140 . S
C106 O107 1.227 . S
C106 O116 1.265 . S
O107 C106 1.227 . S
N108 Co105 2.121 . S
N108 C110 1.375 . S
N108 C111 1.313 . S
C109 C110 1.338 . S
C109 N112 1.377 . S
C109 H129 0.930 . S
C110 N108 1.375 . S
C110 C109 1.338 . S
C110 H114 0.931 . S
C111 N108 1.313 . S
C111 N112 1.344 . S
C111 H115 0.930 . S
N112 C109 1.377 . S
N112 C111 1.344 . S
O113 Co105 2.055 . S
O113 C117 1.253 . S
H114 C110 0.931 . S
H115 C111 0.930 . S
O116 Co105 2.039 . S
O116 C106 1.265 . S
C117 O113 1.253 . S
C117 O118 1.227 . S
O118 C117 1.227 . S
N119 Co105 2.140 . S
N119 C122 1.346 . S
N119 C123 1.345 . S
C120 C121 1.387 . S
C120 C124 1.391 . S
C121 C120 1.387 . S
C121 C122 1.369 . S
C121 H130 0.929 . S
C122 N119 1.346 . S
C122 C121 1.369 . S
C122 H125 0.928 . S
C123 N119 1.345 . S
C123 C124 1.371 . S
C123 H126 0.931 . S
C124 C120 1.391 . S
C124 C123 1.371 . S
C124 H131 0.930 . S
H125 C122 0.928 . S
H126 C123 0.931 . S
H127 C103 0.930 . S
H128 C100 0.930 . S
H129 C109 0.930 . S
H130 C121 0.929 . S
H131 C124 0.930 . S
C132 C133 1.351 . S
C132 N135 1.368 . S
C132 H137 0.931 . S
C133 C132 1.351 . S
C133 N134 1.373 . S
C133 H161 0.930 . S
N134 C133 1.373 . S
N134 C136 1.340 . S
N135 C132 1.368 . S
N135 C136 1.321 . S
N135 Co138 2.135 . S
C136 N134 1.340 . S
C136 N135 1.321 . S
C136 H160 0.930 . S
H137 C132 0.931 . S
Co138 N135 2.135 . S
Co138 N141 2.121 . S
Co138 O146 2.055 . S
Co138 O149 2.039 . S
Co138 N152 2.140 . S
C139 O140 1.227 . S
C139 O149 1.265 . S
O140 C139 1.227 . S
N141 Co138 2.121 . S
N141 C143 1.375 . S
N141 C144 1.313 . S
C142 C143 1.338 . S
C142 N145 1.377 . S
C142 H162 0.930 . S
C143 N141 1.375 . S
C143 C142 1.338 . S
C143 H147 0.931 . S
C144 N141 1.313 . S
C144 N145 1.344 . S
C144 H148 0.930 . S
N145 C142 1.377 . S
N145 C144 1.344 . S
O146 Co138 2.055 . S
O146 C150 1.253 . S
H147 C143 0.931 . S
H148 C144 0.930 . S
O149 Co138 2.039 . S
O149 C139 1.265 . S
C150 O146 1.253 . S
C150 O151 1.227 . S
O151 C150 1.227 . S
N152 Co138 2.140 . S
N152 C155 1.346 . S
N152 C156 1.345 . S
C153 C154 1.387 . S
C153 C157 1.391 . S
C154 C153 1.387 . S
C154 C155 1.369 . S
C154 H163 0.929 . S
C155 N152 1.346 . S
C155 C154 1.369 . S
C155 H158 0.928 . S
C156 N152 1.345 . S
C156 C157 1.371 . S
C156 H159 0.931 . S
C157 C153 1.391 . S
C157 C156 1.371 . S
C157 H164 0.930 . S
H158 C155 0.928 . S
H159 C156 0.931 . S
H160 C136 0.930 . S
H161 C133 0.930 . S
H162 C142 0.930 . S
H163 C154 0.929 . S
H164 C157 0.930 . S
C165 C166 1.351 . S
C165 N168 1.368 . S
C165 H170 0.931 . S
C166 C165 1.351 . S
C166 N167 1.373 . S
C166 H194 0.930 . S
N167 C166 1.373 . S
N167 C169 1.341 . S
N168 C165 1.368 . S
N168 C169 1.328 . S
N168 Co171 2.135 . S
C169 N167 1.341 . S
C169 N168 1.328 . S
C169 H193 0.924 1_655 S
H170 C165 0.931 . S
Co171 N168 2.135 . S
Co171 N174 2.121 . S
Co171 O179 2.055 . S
Co171 O182 2.039 . S
Co171 N185 2.140 1_655 S
C172 O173 1.227 . S
C172 O182 1.265 1_455 S
O173 C172 1.227 . S
N174 Co171 2.121 . S
N174 C176 1.375 1_655 S
N174 C177 1.313 . S
C175 C176 1.338 . S
C175 N178 1.377 1_455 S
C175 H195 0.930 . S
C176 N174 1.375 1_455 S
C176 C175 1.338 . S
C176 H180 0.931 . S
C177 N174 1.313 . S
C177 N178 1.344 . S
C177 H181 0.930 . S
N178 C175 1.377 1_655 S
N178 C177 1.344 . S
O179 Co171 2.055 . S
O179 C183 1.253 . S
H180 C176 0.931 . S
H181 C177 0.930 . S
O182 Co171 2.039 . S
O182 C172 1.265 1_655 S
C183 O179 1.253 . S
C183 O184 1.227 . S
O184 C183 1.227 . S
N185 Co171 2.140 1_455 S
N185 C188 1.346 . S
N185 C189 1.345 . S
C186 C187 1.387 . S
C186 C190 1.391 . S
C187 C186 1.387 . S
C187 C188 1.369 . S
C187 H196 0.929 . S
C188 N185 1.346 . S
C188 C187 1.369 . S
C188 H191 0.928 . S
C189 N185 1.345 . S
C189 C190 1.371 . S
C189 H192 0.931 . S
C190 C186 1.391 . S
C190 C189 1.371 . S
C190 H197 0.930 . S
H191 C188 0.928 . S
H192 C189 0.931 . S
H193 C169 0.924 1_455 S
H194 C166 0.930 . S
H195 C175 0.930 . S
H196 C187 0.929 . S
H197 C190 0.930 . S
C198 C199 1.351 . S
C198 N201 1.368 . S
C198 H203 0.931 . S
C199 C198 1.351 . S
C199 N200 1.373 . S
C199 H227 0.930 . S
N200 C199 1.373 . S
N200 C202 1.340 . S
N201 C198 1.368 . S
N201 C202 1.321 . S
N201 Co204 2.135 . S
C202 N200 1.340 . S
C202 N201 1.321 . S
C202 H226 0.930 . S
H203 C198 0.931 . S
Co204 N201 2.135 . S
Co204 N207 2.121 . S
Co204 O212 2.055 . S
Co204 O215 2.039 . S
Co204 N218 2.140 . S
C205 O206 1.227 . S
C205 O215 1.265 . S
O206 C205 1.227 . S
N207 Co204 2.121 . S
N207 C209 1.375 . S
N207 C210 1.313 . S
C208 C209 1.338 . S
C208 N211 1.377 . S
C208 H228 0.930 . S
C209 N207 1.375 . S
C209 C208 1.338 . S
C209 H213 0.931 . S
C210 N207 1.313 . S
C210 N211 1.344 . S
C210 H214 0.930 . S
N211 C208 1.377 . S
N211 C210 1.344 . S
O212 Co204 2.055 . S
O212 C216 1.253 . S
H213 C209 0.931 . S
H214 C210 0.930 . S
O215 Co204 2.039 . S
O215 C205 1.265 . S
C216 O212 1.253 . S
C216 O217 1.227 . S
O217 C216 1.227 . S
N218 Co204 2.140 . S
N218 C221 1.346 . S
N218 C222 1.345 . S
C219 C220 1.387 . S
C219 C223 1.391 . S
C220 C219 1.387 . S
C220 C221 1.369 . S
C220 H229 0.929 . S
C221 N218 1.346 . S
C221 C220 1.369 . S
C221 H224 0.928 . S
C222 N218 1.345 . S
C222 C223 1.371 . S
C222 H225 0.931 . S
C223 C219 1.391 . S
C223 C222 1.371 . S
C223 H230 0.930 . S
H224 C221 0.928 . S
H225 C222 0.931 . S
H226 C202 0.930 . S
H227 C199 0.930 . S
H228 C208 0.930 . S
H229 C220 0.929 . S
H230 C223 0.930 . S
C231 C232 1.351 . S
C231 N234 1.368 . S
C231 H236 0.931 . S
C232 C231 1.351 . S
C232 N233 1.373 . S
C232 H260 0.930 . S
N233 C232 1.373 . S
N233 C235 1.341 . S
N234 C231 1.368 . S
N234 C235 1.328 . S
N234 Co237 2.135 . S
C235 N233 1.341 . S
C235 N234 1.328 . S
C235 H259 0.924 1_655 S
H236 C231 0.931 . S
Co237 N234 2.135 . S
Co237 N240 2.121 . S
Co237 O245 2.055 . S
Co237 O248 2.039 . S
Co237 N251 2.140 1_655 S
C238 O239 1.227 . S
C238 O248 1.265 1_455 S
O239 C238 1.227 . S
N240 Co237 2.121 . S
N240 C242 1.375 1_655 S
N240 C243 1.313 . S
C241 C242 1.338 . S
C241 N244 1.377 1_455 S
C241 H261 0.930 . S
C242 N240 1.375 1_455 S
C242 C241 1.338 . S
C242 H246 0.931 . S
C243 N240 1.313 . S
C243 N244 1.344 . S
C243 H247 0.930 . S
N244 C241 1.377 1_655 S
N244 C243 1.344 . S
O245 Co237 2.055 . S
O245 C249 1.253 . S
H246 C242 0.931 . S
H247 C243 0.930 . S
O248 Co237 2.039 . S
O248 C238 1.265 1_655 S
C249 O245 1.253 . S
C249 O250 1.227 . S
O250 C249 1.227 . S
N251 Co237 2.140 1_455 S
N251 C254 1.346 . S
N251 C255 1.345 . S
C252 C253 1.387 . S
C252 C256 1.391 . S
C253 C252 1.387 . S
C253 C254 1.369 . S
C253 H262 0.929 . S
C254 N251 1.346 . S
C254 C253 1.369 . S
C254 H257 0.928 . S
C255 N251 1.345 . S
C255 C256 1.371 . S
C255 H258 0.931 . S
C256 C252 1.391 . S
C256 C255 1.371 . S
C256 H263 0.930 . S
H257 C254 0.928 . S
H258 C255 0.931 . S
H259 C235 0.924 1_455 S
H260 C232 0.930 . S
H261 C241 0.930 . S
H262 C253 0.929 . S
H263 C256 0.930 . S
H264 C272 0.950 . S
H265 C277 0.950 . S
H266 C274 0.950 . S
H267 C276 0.950 . S
H268 C278 0.950 . S
H269 C280 0.950 1_556 S
H270 C282 0.950 . S
H271 C283 0.950 . S
C272 H264 0.950 . S
C272 C273 1.386 . S
C272 C274 1.391 1_556 S
C273 C272 1.386 . S
C273 C277 1.393 . S
C274 H266 0.950 . S
C274 C272 1.391 1_554 S
C274 C275 1.400 1_554 S
C275 C274 1.400 1_556 S
C275 C276 1.398 . S
C275 C281 1.491 1_556 S
C276 H267 0.950 . S
C276 C275 1.398 . S
C276 C277 1.391 . S
C277 H265 0.950 . S
C277 C273 1.393 . S
C277 C276 1.391 . S
C278 H268 0.950 . S
C278 C279 1.386 . S
C278 C280 1.391 . S
C279 C278 1.386 . S
C279 C283 1.393 . S
C280 H269 0.950 1_554 S
C280 C278 1.391 . S
C280 C281 1.400 . S
C281 C275 1.491 1_554 S
C281 C280 1.400 . S
C281 C282 1.398 . S
C282 H270 0.950 . S
C282 C281 1.398 . S
C282 C283 1.391 . S
C283 H271 0.950 . S
C283 C279 1.393 . S
C283 C282 1.391 . S
H284 C292 0.950 . S
H285 C297 0.950 . S
H286 C294 0.950 . S
H287 C296 0.950 . S
H288 C298 0.950 . S
H289 C300 0.950 . S
H290 C302 0.950 . S
H291 C303 0.950 . S
C292 H284 0.950 . S
C292 C293 1.386 . S
C292 C294 1.391 . S
C293 C292 1.386 . S
C293 C297 1.393 . S
C294 H286 0.950 . S
C294 C292 1.391 . S
C294 C295 1.400 . S
C295 C294 1.400 . S
C295 C296 1.398 . S
C295 C301 1.491 . S
C296 H287 0.950 . S
C296 C295 1.398 . S
C296 C297 1.391 . S
C297 H285 0.950 . S
C297 C293 1.393 . S
C297 C296 1.391 . S
C298 H288 0.950 . S
C298 C299 1.386 . S
C298 C300 1.391 . S
C299 C298 1.386 . S
C299 C303 1.393 . S
C300 H289 0.950 . S
C300 C298 1.391 . S
C300 C301 1.400 . S
C301 C295 1.491 . S
C301 C300 1.400 . S
C301 C302 1.398 . S
C302 H290 0.950 . S
C302 C301 1.398 . S
C302 C303 1.391 . S
C303 H291 0.950 . S
C303 C299 1.393 . S
C303 C302 1.391 . S
H304 C312 0.950 . S
H305 C317 0.950 . S
H306 C314 0.950 1_556 S
H307 C316 0.950 . S
H308 C318 0.950 . S
H309 C320 0.950 1_554 S
H310 C322 0.950 . S
H311 C323 0.950 . S
C312 H304 0.950 . S
C312 C313 1.386 . S
C312 C314 1.391 . S
C313 C312 1.386 . S
C313 C317 1.393 . S
C314 H306 0.950 1_554 S
C314 C312 1.391 . S
C314 C315 1.400 . S
C315 C314 1.400 . S
C315 C316 1.398 . S
C315 C321 1.491 1_554 S
C316 H307 0.950 . S
C316 C315 1.398 . S
C316 C317 1.391 . S
C317 H305 0.950 . S
C317 C313 1.393 . S
C317 C316 1.391 . S
C318 H308 0.950 . S
C318 C319 1.386 . S
C318 C320 1.391 . S
C319 C318 1.386 . S
C319 C323 1.393 . S
C320 H309 0.950 1_556 S
C320 C318 1.391 . S
C320 C321 1.400 . S
C321 C315 1.491 1_556 S
C321 C320 1.400 . S
C321 C322 1.398 . S
C322 H310 0.950 . S
C322 C321 1.398 . S
C322 C323 1.391 . S
C323 H311 0.950 . S
C323 C319 1.393 . S
C323 C322 1.391 . S
H324 C332 0.950 . S
H325 C337 0.950 . S
H326 C334 0.950 . S
H327 C336 0.950 . S
H328 C338 0.950 . S
H329 C340 0.950 . S
H330 C342 0.950 . S
H331 C343 0.950 . S
C332 H324 0.950 . S
C332 C333 1.386 . S
C332 C334 1.391 . S
C333 C332 1.386 . S
C333 C337 1.393 . S
C334 H326 0.950 . S
C334 C332 1.391 . S
C334 C335 1.400 . S
C335 C334 1.400 . S
C335 C336 1.398 . S
C335 C341 1.491 . S
C336 H327 0.950 . S
C336 C335 1.398 . S
C336 C337 1.391 . S
C337 H325 0.950 . S
C337 C333 1.393 . S
C337 C336 1.391 . S
C338 H328 0.950 . S
C338 C339 1.386 . S
C338 C340 1.391 . S
C339 C338 1.386 . S
C339 C343 1.393 . S
C340 H329 0.950 . S
C340 C338 1.391 . S
C340 C341 1.400 . S
C341 C335 1.491 . S
C341 C340 1.400 . S
C341 C342 1.398 . S
C342 H330 0.950 . S
C342 C341 1.398 . S
C342 C343 1.391 . S
C343 H331 0.950 . S
C343 C339 1.393 . S
C343 C342 1.391 . S
H344 C352 0.950 . S
H345 C357 0.950 . S
H346 C354 0.950 1_556 S
H347 C356 0.950 . S
H348 C358 0.950 . S
H349 C360 0.950 1_554 S
H350 C362 0.950 . S
H351 C363 0.950 . S
C352 H344 0.950 . S
C352 C353 1.386 . S
C352 C354 1.391 . S
C353 C352 1.386 . S
C353 C357 1.393 . S
C354 H346 0.950 1_554 S
C354 C352 1.391 . S
C354 C355 1.400 . S
C355 C354 1.400 . S
C355 C356 1.398 . S
C355 C361 1.491 1_554 S
C356 H347 0.950 . S
C356 C355 1.398 . S
C356 C357 1.391 . S
C357 H345 0.950 . S
C357 C353 1.393 . S
C357 C356 1.391 . S
C358 H348 0.950 . S
C358 C359 1.386 . S
C358 C360 1.391 . S
C359 C358 1.386 . S
C359 C363 1.393 . S
C360 H349 0.950 1_556 S
C360 C358 1.391 . S
C360 C361 1.400 . S
C361 C355 1.491 1_556 S
C361 C360 1.400 . S
C361 C362 1.398 . S
C362 H350 0.950 . S
C362 C361 1.398 . S
C362 C363 1.391 . S
C363 H351 0.950 . S
C363 C359 1.393 . S
C363 C362 1.391 . S
H364 C372 0.950 . S
H365 C377 0.950 . S
H366 C374 0.950 . S
H367 C376 0.950 . S
H368 C378 0.950 . S
H369 C380 0.950 . S
H370 C382 0.950 . S
H371 C383 0.950 . S
C372 H364 0.950 . S
C372 C373 1.386 . S
C372 C374 1.391 . S
C373 C372 1.386 . S
C373 C377 1.393 . S
C374 H366 0.950 . S
C374 C372 1.391 . S
C374 C375 1.400 . S
C375 C374 1.400 . S
C375 C376 1.398 . S
C375 C381 1.491 . S
C376 H367 0.950 . S
C376 C375 1.398 . S
C376 C377 1.391 . S
C377 H365 0.950 . S
C377 C373 1.393 . S
C377 C376 1.391 . S
C378 H368 0.950 . S
C378 C379 1.386 . S
C378 C380 1.391 . S
C379 C378 1.386 . S
C379 C383 1.393 . S
C380 H369 0.950 . S
C380 C378 1.391 . S
C380 C381 1.400 . S
C381 C375 1.491 . S
C381 C380 1.400 . S
C381 C382 1.398 . S
C382 H370 0.950 . S
C382 C381 1.398 . S
C382 C383 1.391 . S
C383 H371 0.950 . S
C383 C379 1.393 . S
C383 C382 1.391 . S
H384 C392 0.950 . S
H385 C397 0.950 . S
H386 C394 0.950 . S
H387 C396 0.950 . S
H388 C398 0.950 . S
H389 C400 0.950 . S
H390 C402 0.950 . S
H391 C403 0.950 . S
C392 H384 0.950 . S
C392 C393 1.386 . S
C392 C394 1.391 . S
C393 C392 1.386 . S
C393 C397 1.393 . S
C394 H386 0.950 . S
C394 C392 1.391 . S
C394 C395 1.400 . S
C395 C394 1.400 . S
C395 C396 1.398 . S
C395 C401 1.491 1_554 S
C396 H387 0.950 . S
C396 C395 1.398 . S
C396 C397 1.391 . S
C397 H385 0.950 . S
C397 C393 1.393 . S
C397 C396 1.391 . S
C398 H388 0.950 . S
C398 C399 1.386 . S
C398 C400 1.391 . S
C399 C398 1.386 . S
C399 C403 1.393 . S
C400 H389 0.950 . S
C400 C398 1.391 . S
C400 C401 1.400 . S
C401 C395 1.491 1_556 S
C401 C400 1.400 . S
C401 C402 1.398 . S
C402 H390 0.950 . S
C402 C401 1.398 . S
C402 C403 1.391 . S
C403 H391 0.950 . S
C403 C399 1.393 . S
C403 C402 1.391 . S
H404 C412 0.950 . S
H405 C417 0.950 . S
H406 C414 0.950 . S
H407 C416 0.950 . S
H408 C418 0.950 . S
H409 C420 0.950 . S
H410 C422 0.950 . S
H411 C423 0.950 . S
C412 H404 0.950 . S
C412 C413 1.386 . S
C412 C414 1.391 . S
C413 C412 1.386 . S
C413 C417 1.393 . S
C414 H406 0.950 . S
C414 C412 1.391 . S
C414 C415 1.400 . S
C415 C414 1.400 . S
C415 C416 1.398 . S
C415 C421 1.491 . S
C416 H407 0.950 . S
C416 C415 1.398 . S
C416 C417 1.391 . S
C417 H405 0.950 . S
C417 C413 1.393 . S
C417 C416 1.391 . S
C418 H408 0.950 . S
C418 C419 1.386 . S
C418 C420 1.391 . S
C419 C418 1.386 . S
C419 C423 1.393 . S
C420 H409 0.950 . S
C420 C418 1.391 . S
C420 C421 1.400 . S
C421 C415 1.491 . S
C421 C420 1.400 . S
C421 C422 1.398 . S
C422 H410 0.950 . S
C422 C421 1.398 . S
C422 C423 1.391 . S
C423 H411 0.950 . S
C423 C419 1.393 . S
C423 C422 1.391 . S
H424 C432 0.950 . S
H425 C437 0.950 . S
H426 C434 0.950 . S
H427 C436 0.950 . S
H428 C438 0.950 . S
H429 C440 0.950 . S
H430 C442 0.950 . S
H431 C443 0.950 . S
C432 H424 0.950 . S
C432 C433 1.386 1_655 S
C432 C434 1.391 . S
C433 C432 1.386 1_455 S
C433 C437 1.393 . S
C434 H426 0.950 . S
C434 C432 1.391 . S
C434 C435 1.400 1_655 S
C435 C434 1.400 1_455 S
C435 C436 1.398 . S
C435 C441 1.491 . S
C436 H427 0.950 . S
C436 C435 1.398 . S
C436 C437 1.391 . S
C437 H425 0.950 . S
C437 C433 1.393 . S
C437 C436 1.391 . S
C438 H428 0.950 . S
C438 C439 1.386 . S
C438 C440 1.391 . S
C439 C438 1.386 . S
C439 C443 1.393 1_455 S
C440 H429 0.950 . S
C440 C438 1.391 . S
C440 C441 1.400 . S
C441 C435 1.491 . S
C441 C440 1.400 . S
C441 C442 1.398 1_455 S
C442 H430 0.950 . S
C442 C441 1.398 1_655 S
C442 C443 1.391 . S
C443 H431 0.950 . S
C443 C439 1.393 1_655 S
C443 C442 1.391 . S
H444 C452 0.950 . S
H445 C457 0.950 . S
H446 C454 0.950 . S
H447 C456 0.950 . S
H448 C458 0.950 . S
H449 C460 0.950 . S
H450 C462 0.950 . S
H451 C463 0.950 . S
C452 H444 0.950 . S
C452 C453 1.386 . S
C452 C454 1.391 . S
C453 C452 1.386 . S
C453 C457 1.393 . S
C454 H446 0.950 . S
C454 C452 1.391 . S
C454 C455 1.400 . S
C455 C454 1.400 . S
C455 C456 1.398 . S
C455 C461 1.491 . S
C456 H447 0.950 . S
C456 C455 1.398 . S
C456 C457 1.391 . S
C457 H445 0.950 . S
C457 C453 1.393 . S
C457 C456 1.391 . S
C458 H448 0.950 . S
C458 C459 1.386 . S
C458 C460 1.391 . S
C459 C458 1.386 . S
C459 C463 1.393 . S
C460 H449 0.950 . S
C460 C458 1.391 . S
C460 C461 1.400 . S
C461 C455 1.491 . S
C461 C460 1.400 . S
C461 C462 1.398 . S
C462 H450 0.950 . S
C462 C461 1.398 . S
C462 C463 1.391 . S
C463 H451 0.950 . S
C463 C459 1.393 . S
C463 C462 1.391 . S
H464 C472 0.950 . S
H465 C477 0.950 . S
H466 C474 0.950 . S
H467 C476 0.950 . S
H468 C478 0.950 . S
H469 C480 0.950 1_655 S
H470 C482 0.950 . S
H471 C483 0.950 . S
C472 H464 0.950 . S
C472 C473 1.386 . S
C472 C474 1.391 . S
C473 C472 1.386 . S
C473 C477 1.393 1_455 S
C474 H466 0.950 . S
C474 C472 1.391 . S
C474 C475 1.400 . S
C475 C474 1.400 . S
C475 C476 1.398 1_455 S
C475 C481 1.491 . S
C476 H467 0.950 . S
C476 C475 1.398 1_655 S
C476 C477 1.391 . S
C477 H465 0.950 . S
C477 C473 1.393 1_655 S
C477 C476 1.391 . S
C478 H468 0.950 . S
C478 C479 1.386 . S
C478 C480 1.391 . S
C479 C478 1.386 . S
C479 C483 1.393 . S
C480 H469 0.950 1_455 S
C480 C478 1.391 . S
C480 C481 1.400 . S
C481 C475 1.491 . S
C481 C480 1.400 . S
C481 C482 1.398 . S
C482 H470 0.950 . S
C482 C481 1.398 . S
C482 C483 1.391 . S
C483 H471 0.950 . S
C483 C479 1.393 . S
C483 C482 1.391 . S
H484 C492 0.950 . S
H485 C497 0.950 . S
H486 C494 0.950 . S
H487 C496 0.950 . S
H488 C498 0.950 . S
H489 C500 0.950 . S
H490 C502 0.950 . S
H491 C503 0.950 . S
C492 H484 0.950 . S
C492 C493 1.386 . S
C492 C494 1.391 . S
C493 C492 1.386 . S
C493 C497 1.393 . S
C494 H486 0.950 . S
C494 C492 1.391 . S
C494 C495 1.400 . S
C495 C494 1.400 . S
C495 C496 1.398 . S
C495 C501 1.491 . S
C496 H487 0.950 . S
C496 C495 1.398 . S
C496 C497 1.391 . S
C497 H485 0.950 . S
C497 C493 1.393 . S
C497 C496 1.391 . S
C498 H488 0.950 . S
C498 C499 1.386 . S
C498 C500 1.391 . S
C499 C498 1.386 . S
C499 C503 1.393 . S
C500 H489 0.950 . S
C500 C498 1.391 . S
C500 C501 1.400 . S
C501 C495 1.491 . S
C501 C500 1.400 . S
C501 C502 1.398 . S
C502 H490 0.950 . S
C502 C501 1.398 . S
C502 C503 1.391 . S
C503 H491 0.950 . S
C503 C499 1.393 . S
C503 C502 1.391 . S
H504 C512 0.950 . S
H505 C517 0.950 . S
H506 C514 0.950 . S
H507 C516 0.950 1_545 S
H508 C518 0.950 . S
H509 C520 0.950 . S
H510 C522 0.950 1_565 S
H511 C523 0.950 . S
C512 H504 0.950 . S
C512 C513 1.386 . S
C512 C514 1.391 . S
C513 C512 1.386 . S
C513 C517 1.393 . S
C514 H506 0.950 . S
C514 C512 1.391 . S
C514 C515 1.400 . S
C515 C514 1.400 . S
C515 C516 1.398 . S
C515 C521 1.491 1_565 S
C516 H507 0.950 1_565 S
C516 C515 1.398 . S
C516 C517 1.391 . S
C517 H505 0.950 . S
C517 C513 1.393 . S
C517 C516 1.391 . S
C518 H508 0.950 . S
C518 C519 1.386 . S
C518 C520 1.391 . S
C519 C518 1.386 . S
C519 C523 1.393 . S
C520 H509 0.950 . S
C520 C518 1.391 . S
C520 C521 1.400 . S
C521 C515 1.491 1_545 S
C521 C520 1.400 . S
C521 C522 1.398 . S
C522 H510 0.950 1_545 S
C522 C521 1.398 . S
C522 C523 1.391 . S
C523 H511 0.950 . S
C523 C519 1.393 . S
C523 C522 1.391 . S
H524 C532 0.950 . S
H525 C537 0.950 . S
H526 C534 0.950 . S
H527 C536 0.950 1_545 S
H528 C538 0.950 . S
H529 C540 0.950 . S
H530 C542 0.950 1_565 S
H531 C543 0.950 . S
C532 H524 0.950 . S
C532 C533 1.386 . S
C532 C534 1.391 . S
C533 C532 1.386 . S
C533 C537 1.393 . S
C534 H526 0.950 . S
C534 C532 1.391 . S
C534 C535 1.400 . S
C535 C534 1.400 . S
C535 C536 1.398 . S
C535 C541 1.491 1_565 S
C536 H527 0.950 1_565 S
C536 C535 1.398 . S
C536 C537 1.391 . S
C537 H525 0.950 . S
C537 C533 1.393 . S
C537 C536 1.391 . S
C538 H528 0.950 . S
C538 C539 1.386 . S
C538 C540 1.391 . S
C539 C538 1.386 . S
C539 C543 1.393 . S
C540 H529 0.950 . S
C540 C538 1.391 . S
C540 C541 1.400 . S
C541 C535 1.491 1_545 S
C541 C540 1.400 . S
C541 C542 1.398 . S
C542 H530 0.950 1_545 S
C542 C541 1.398 . S
C542 C543 1.391 . S
C543 H531 0.950 . S
C543 C539 1.393 . S
C543 C542 1.391 . S
H544 C552 0.950 . S
H545 C557 0.950 . S
H546 C554 0.950 1_545 S
H547 C556 0.950 . S
H548 C558 0.950 . S
H549 C560 0.950 1_565 S
H550 C562 0.950 . S
H551 C563 0.950 . S
C552 H544 0.950 . S
C552 C553 1.386 . S
C552 C554 1.391 . S
C553 C552 1.386 . S
C553 C557 1.393 . S
C554 H546 0.950 1_565 S
C554 C552 1.391 . S
C554 C555 1.400 . S
C555 C554 1.400 . S
C555 C556 1.398 . S
C555 C561 1.491 1_565 S
C556 H547 0.950 . S
C556 C555 1.398 . S
C556 C557 1.391 . S
C557 H545 0.950 . S
C557 C553 1.393 . S
C557 C556 1.391 . S
C558 H548 0.950 . S
C558 C559 1.386 . S
C558 C560 1.391 . S
C559 C558 1.386 . S
C559 C563 1.393 . S
C560 H549 0.950 1_545 S
C560 C558 1.391 . S
C560 C561 1.400 . S
C561 C555 1.491 1_545 S
C561 C560 1.400 . S
C561 C562 1.398 . S
C562 H550 0.950 . S
C562 C561 1.398 . S
C562 C563 1.391 . S
C563 H551 0.950 . S
C563 C559 1.393 . S
C563 C562 1.391 . S
H564 C572 0.952 . S
H565 C577 0.950 . S
H566 C574 0.950 . S
H567 C576 0.950 . S
H568 C578 0.950 . S
H569 C580 0.950 . S
H570 C582 0.950 . S
H571 C583 0.950 . S
C572 H564 0.952 . S
C572 C573 1.383 1_655 S
C572 C574 1.392 . S
C573 C572 1.383 1_455 S
C573 C577 1.393 . S
C574 H566 0.950 . S
C574 C572 1.392 . S
C574 C575 1.400 1_655 S
C575 C574 1.400 1_455 S
C575 C576 1.398 . S
C575 C581 1.491 1_545 S
C576 H567 0.950 . S
C576 C575 1.398 . S
C576 C577 1.391 . S
C577 H565 0.950 . S
C577 C573 1.393 . S
C577 C576 1.391 . S
C578 H568 0.950 . S
C578 C579 1.386 . S
C578 C580 1.391 . S
C579 C578 1.386 . S
C579 C583 1.393 1_455 S
C580 H569 0.950 . S
C580 C578 1.391 . S
C580 C581 1.400 . S
C581 C575 1.491 1_565 S
C581 C580 1.400 . S
C581 C582 1.398 1_455 S
C582 H570 0.950 . S
C582 C581 1.398 1_655 S
C582 C583 1.391 . S
C583 H571 0.950 . S
C583 C579 1.393 1_655 S
C583 C582 1.391 . S
H584 C592 0.950 . S
H585 C597 0.950 . S
H586 C594 0.950 . S
H587 C596 0.950 1_554 S
H588 C598 0.950 . S
H589 C600 0.950 . S
H590 C602 0.950 1_556 S
H591 C603 0.950 . S
C592 H584 0.950 . S
C592 C593 1.386 . S
C592 C594 1.391 . S
C593 C592 1.386 . S
C593 C597 1.393 . S
C594 H586 0.950 . S
C594 C592 1.391 . S
C594 C595 1.400 . S
C595 C594 1.400 . S
C595 C596 1.398 . S
C595 C601 1.491 1_556 S
C596 H587 0.950 1_556 S
C596 C595 1.398 . S
C596 C597 1.391 . S
C597 H585 0.950 . S
C597 C593 1.393 . S
C597 C596 1.391 . S
C598 H588 0.950 . S
C598 C599 1.386 . S
C598 C600 1.391 . S
C599 C598 1.386 . S
C599 C603 1.393 . S
C600 H589 0.950 . S
C600 C598 1.391 . S
C600 C601 1.400 . S
C601 C595 1.491 1_554 S
C601 C600 1.400 . S
C601 C602 1.398 . S
C602 H590 0.950 1_554 S
C602 C601 1.398 . S
C602 C603 1.391 . S
C603 H591 0.950 . S
C603 C599 1.393 . S
C603 C602 1.391 . S
H604 C612 0.950 . S
H605 C617 0.950 . S
H606 C614 0.950 . S
H607 C616 0.950 . S
H608 C618 0.950 . S
H609 C620 0.950 . S
H610 C622 0.950 . S
H611 C623 0.950 . S
C612 H604 0.950 . S
C612 C613 1.386 . S
C612 C614 1.391 . S
C613 C612 1.386 . S
C613 C617 1.393 . S
C614 H606 0.950 . S
C614 C612 1.391 . S
C614 C615 1.400 . S
C615 C614 1.400 . S
C615 C616 1.398 . S
C615 C621 1.491 . S
C616 H607 0.950 . S
C616 C615 1.398 . S
C616 C617 1.391 . S
C617 H605 0.950 . S
C617 C613 1.393 . S
C617 C616 1.391 . S
C618 H608 0.950 . S
C618 C619 1.386 . S
C618 C620 1.391 . S
C619 C618 1.386 . S
C619 C623 1.393 . S
C620 H609 0.950 . S
C620 C618 1.391 . S
C620 C621 1.400 . S
C621 C615 1.491 . S
C621 C620 1.400 . S
C621 C622 1.398 . S
C622 H610 0.950 . S
C622 C621 1.398 . S
C622 C623 1.391 . S
C623 H611 0.950 . S
C623 C619 1.393 . S
C623 C622 1.391 . S
H624 C632 0.950 . S
H625 C637 0.950 . S
H626 C634 0.950 . S
H627 C636 0.950 . S
H628 C638 0.950 . S
H629 C640 0.950 . S
H630 C642 0.950 . S
H631 C643 0.950 . S
C632 H624 0.950 . S
C632 C633 1.386 . S
C632 C634 1.391 . S
C633 C632 1.386 . S
C633 C637 1.393 . S
C634 H626 0.950 . S
C634 C632 1.391 . S
C634 C635 1.400 . S
C635 C634 1.400 . S
C635 C636 1.398 . S
C635 C641 1.491 1_546 S
C636 H627 0.950 . S
C636 C635 1.398 . S
C636 C637 1.391 . S
C637 H625 0.950 . S
C637 C633 1.393 . S
C637 C636 1.391 . S
C638 H628 0.950 . S
C638 C639 1.386 . S
C638 C640 1.391 . S
C639 C638 1.386 . S
C639 C643 1.393 . S
C640 H629 0.950 . S
C640 C638 1.391 . S
C640 C641 1.400 . S
C641 C635 1.491 1_564 S
C641 C640 1.400 . S
C641 C642 1.398 . S
C642 H630 0.950 . S
C642 C641 1.398 . S
C642 C643 1.391 . S
C643 H631 0.950 . S
C643 C639 1.393 . S
C643 C642 1.391 . S
H644 C652 0.950 . S
H645 C657 0.950 . S
H646 C654 0.950 . S
H647 C656 0.950 . S
H648 C658 0.950 . S
H649 C660 0.950 . S
H650 C662 0.950 . S
H651 C663 0.950 . S
C652 H644 0.950 . S
C652 C653 1.386 1_455 S
C652 C654 1.391 . S
C653 C652 1.386 1_655 S
C653 C657 1.393 . S
C654 H646 0.950 . S
C654 C652 1.391 . S
C654 C655 1.400 1_455 S
C655 C654 1.400 1_655 S
C655 C656 1.398 . S
C655 C661 1.491 1_565 S
C656 H647 0.950 . S
C656 C655 1.398 . S
C656 C657 1.391 . S
C657 H645 0.950 . S
C657 C653 1.393 . S
C657 C656 1.391 . S
C658 H648 0.950 . S
C658 C659 1.386 . S
C658 C660 1.391 . S
C659 C658 1.386 . S
C659 C663 1.393 1_655 S
C660 H649 0.950 . S
C660 C658 1.391 . S
C660 C661 1.400 . S
C661 C655 1.491 1_545 S
C661 C660 1.400 . S
C661 C662 1.398 1_655 S
C662 H650 0.950 . S
C662 C661 1.398 1_455 S
C662 C663 1.391 . S
C663 H651 0.950 . S
C663 C659 1.393 1_455 S
C663 C662 1.391 . S
C273 C219 1.786 . S
C279 C18 1.794 . S
C293 C51 1.792 . S
C299 C252 1.784 . S
C313 C153 1.788 . S
C319 C84 1.796 . S
C333 C117 1.789 . S
C339 C186 1.781 . S
C353 C150 1.789 . S
C359 C87 1.781 . S
C373 C183 1.795 . S
C379 C120 1.787 . S
C393 C21 1.784 . S
C399 C216 1.792 . S
C413 C54 1.785 . S
C419 C249 1.792 . S
C433 C7 1.988 . S
C439 N233 1.953 1_455 S
C453 C40 1.990 . S
C459 N200 1.941 . S
C473 N167 1.939 1_455 S
C479 C73 1.989 . S
C493 C106 1.990 . S
C499 N134 1.942 . S
C513 C139 1.990 . S
C519 N101 1.946 . S
C533 N68 1.951 . S
C539 C172 1.986 . S
C553 N35 1.941 . S
C559 C205 1.990 . S
C573 N2 1.937 . S
C579 C238 1.986 . S
C593 N79 0.676 . S
C599 N13 0.643 . S
C613 N46 0.678 . S
C619 N112 0.644 . S
C633 N211 0.649 . S
C639 N145 0.640 . S
C653 N244 0.644 . S
C659 N178 0.644 . S
