# Generated by pormake.
# Topology sxg, (6)-cn, num edge types: 1
# Building blocks:
#     Node 0, Type 0, BuildingBlock: MIFKUJ_clean_sbu_0, # of connection points: 6
#     Node 1, Type 0, BuildingBlock: MIFKUJ_clean_sbu_0, # of connection points: 6
#     Node 2, Type 0, BuildingBlock: MIFKUJ_clean_sbu_0, # of connection points: 6
#     Node 3, Type 0, BuildingBlock: MIFKUJ_clean_sbu_0, # of connection points: 6
#     Node 4, Type 0, BuildingBlock: MIFKUJ_clean_sbu_0, # of connection points: 6
#     Node 5, Type 0, BuildingBlock: MIFKUJ_clean_sbu_0, # of connection points: 6
#     Node 6, Type 0, BuildingBlock: MIFKUJ_clean_sbu_0, # of connection points: 6
#     Node 7, Type 0, BuildingBlock: MIFKUJ_clean_sbu_0, # of connection points: 6
#     Node 8, Type 0, BuildingBlock: MIFKUJ_clean_sbu_0, # of connection points: 6
#     Node 9, Type 0, BuildingBlock: MIFKUJ_clean_sbu_0, # of connection points: 6
#     Node 10, Type 0, BuildingBlock: MIFKUJ_clean_sbu_0, # of connection points: 6
#     Node 11, Type 0, BuildingBlock: MIFKUJ_clean_sbu_0, # of connection points: 6
#     Node 12, Type 0, BuildingBlock: MIFKUJ_clean_sbu_0, # of connection points: 6
#     Node 13, Type 0, BuildingBlock: MIFKUJ_clean_sbu_0, # of connection points: 6
#     Node 14, Type 0, BuildingBlock: MIFKUJ_clean_sbu_0, # of connection points: 6
#     Node 15, Type 0, BuildingBlock: MIFKUJ_clean_sbu_0, # of connection points: 6
#     Node 16, Type 0, BuildingBlock: MIFKUJ_clean_sbu_0, # of connection points: 6
#     Node 17, Type 0, BuildingBlock: MIFKUJ_clean_sbu_0, # of connection points: 6
#     Node 18, Type 0, BuildingBlock: MIFKUJ_clean_sbu_0, # of connection points: 6
#     Node 19, Type 0, BuildingBlock: MIFKUJ_clean_sbu_0, # of connection points: 6
#     Node 20, Type 0, BuildingBlock: MIFKUJ_clean_sbu_0, # of connection points: 6
#     Node 21, Type 0, BuildingBlock: MIFKUJ_clean_sbu_0, # of connection points: 6
#     Node 22, Type 0, BuildingBlock: MIFKUJ_clean_sbu_0, # of connection points: 6
#     Node 23, Type 0, BuildingBlock: MIFKUJ_clean_sbu_0, # of connection points: 6
#     Edge 24, Type (0, 0), BuildingBlock: XUDNAN_clean_linker_2, # of connection points: 2
#     Edge 25, Type (0, 0), BuildingBlock: XUDNAN_clean_linker_2, # of connection points: 2
#     Edge 26, Type (0, 0), BuildingBlock: XUDNAN_clean_linker_2, # of connection points: 2
#     Edge 27, Type (0, 0), BuildingBlock: XUDNAN_clean_linker_2, # of connection points: 2
#     Edge 28, Type (0, 0), BuildingBlock: XUDNAN_clean_linker_2, # of connection points: 2
#     Edge 29, Type (0, 0), BuildingBlock: XUDNAN_clean_linker_2, # of connection points: 2
#     Edge 30, Type (0, 0), BuildingBlock: XUDNAN_clean_linker_2, # of connection points: 2
#     Edge 31, Type (0, 0), BuildingBlock: XUDNAN_clean_linker_2, # of connection points: 2
#     Edge 32, Type (0, 0), BuildingBlock: XUDNAN_clean_linker_2, # of connection points: 2
#     Edge 33, Type (0, 0), BuildingBlock: XUDNAN_clean_linker_2, # of connection points: 2
#     Edge 34, Type (0, 0), BuildingBlock: XUDNAN_clean_linker_2, # of connection points: 2
#     Edge 35, Type (0, 0), BuildingBlock: XUDNAN_clean_linker_2, # of connection points: 2
#     Edge 36, Type (0, 0), BuildingBlock: XUDNAN_clean_linker_2, # of connection points: 2
#     Edge 37, Type (0, 0), BuildingBlock: XUDNAN_clean_linker_2, # of connection points: 2
#     Edge 38, Type (0, 0), BuildingBlock: XUDNAN_clean_linker_2, # of connection points: 2
#     Edge 39, Type (0, 0), BuildingBlock: XUDNAN_clean_linker_2, # of connection points: 2
#     Edge 40, Type (0, 0), BuildingBlock: XUDNAN_clean_linker_2, # of connection points: 2
#     Edge 41, Type (0, 0), BuildingBlock: XUDNAN_clean_linker_2, # of connection points: 2
#     Edge 42, Type (0, 0), BuildingBlock: XUDNAN_clean_linker_2, # of connection points: 2
#     Edge 43, Type (0, 0), BuildingBlock: XUDNAN_clean_linker_2, # of connection points: 2
#     Edge 44, Type (0, 0), BuildingBlock: XUDNAN_clean_linker_2, # of connection points: 2
#     Edge 45, Type (0, 0), BuildingBlock: XUDNAN_clean_linker_2, # of connection points: 2
#     Edge 46, Type (0, 0), BuildingBlock: XUDNAN_clean_linker_2, # of connection points: 2
#     Edge 47, Type (0, 0), BuildingBlock: XUDNAN_clean_linker_2, # of connection points: 2
#     Edge 48, Type (0, 0), BuildingBlock: XUDNAN_clean_linker_2, # of connection points: 2
#     Edge 49, Type (0, 0), BuildingBlock: XUDNAN_clean_linker_2, # of connection points: 2
#     Edge 50, Type (0, 0), BuildingBlock: XUDNAN_clean_linker_2, # of connection points: 2
#     Edge 51, Type (0, 0), BuildingBlock: XUDNAN_clean_linker_2, # of connection points: 2
#     Edge 52, Type (0, 0), BuildingBlock: XUDNAN_clean_linker_2, # of connection points: 2
#     Edge 53, Type (0, 0), BuildingBlock: XUDNAN_clean_linker_2, # of connection points: 2
#     Edge 54, Type (0, 0), BuildingBlock: XUDNAN_clean_linker_2, # of connection points: 2
#     Edge 55, Type (0, 0), BuildingBlock: XUDNAN_clean_linker_2, # of connection points: 2
#     Edge 56, Type (0, 0), BuildingBlock: XUDNAN_clean_linker_2, # of connection points: 2
#     Edge 57, Type (0, 0), BuildingBlock: XUDNAN_clean_linker_2, # of connection points: 2
#     Edge 58, Type (0, 0), BuildingBlock: XUDNAN_clean_linker_2, # of connection points: 2
#     Edge 59, Type (0, 0), BuildingBlock: XUDNAN_clean_linker_2, # of connection points: 2
#     Edge 60, Type (0, 0), BuildingBlock: XUDNAN_clean_linker_2, # of connection points: 2
#     Edge 61, Type (0, 0), BuildingBlock: XUDNAN_clean_linker_2, # of connection points: 2
#     Edge 62, Type (0, 0), BuildingBlock: XUDNAN_clean_linker_2, # of connection points: 2
#     Edge 63, Type (0, 0), BuildingBlock: XUDNAN_clean_linker_2, # of connection points: 2
#     Edge 64, Type (0, 0), BuildingBlock: XUDNAN_clean_linker_2, # of connection points: 2
#     Edge 65, Type (0, 0), BuildingBlock: XUDNAN_clean_linker_2, # of connection points: 2
#     Edge 66, Type (0, 0), BuildingBlock: XUDNAN_clean_linker_2, # of connection points: 2
#     Edge 67, Type (0, 0), BuildingBlock: XUDNAN_clean_linker_2, # of connection points: 2
#     Edge 68, Type (0, 0), BuildingBlock: XUDNAN_clean_linker_2, # of connection points: 2
#     Edge 69, Type (0, 0), BuildingBlock: XUDNAN_clean_linker_2, # of connection points: 2
#     Edge 70, Type (0, 0), BuildingBlock: XUDNAN_clean_linker_2, # of connection points: 2
#     Edge 71, Type (0, 0), BuildingBlock: XUDNAN_clean_linker_2, # of connection points: 2
#     Edge 72, Type (0, 0), BuildingBlock: XUDNAN_clean_linker_2, # of connection points: 2
#     Edge 73, Type (0, 0), BuildingBlock: XUDNAN_clean_linker_2, # of connection points: 2
#     Edge 74, Type (0, 0), BuildingBlock: XUDNAN_clean_linker_2, # of connection points: 2
#     Edge 75, Type (0, 0), BuildingBlock: XUDNAN_clean_linker_2, # of connection points: 2
#     Edge 76, Type (0, 0), BuildingBlock: XUDNAN_clean_linker_2, # of connection points: 2
#     Edge 77, Type (0, 0), BuildingBlock: XUDNAN_clean_linker_2, # of connection points: 2
#     Edge 78, Type (0, 0), BuildingBlock: XUDNAN_clean_linker_2, # of connection points: 2
#     Edge 79, Type (0, 0), BuildingBlock: XUDNAN_clean_linker_2, # of connection points: 2
#     Edge 80, Type (0, 0), BuildingBlock: XUDNAN_clean_linker_2, # of connection points: 2
#     Edge 81, Type (0, 0), BuildingBlock: XUDNAN_clean_linker_2, # of connection points: 2
#     Edge 82, Type (0, 0), BuildingBlock: XUDNAN_clean_linker_2, # of connection points: 2
#     Edge 83, Type (0, 0), BuildingBlock: XUDNAN_clean_linker_2, # of connection points: 2
#     Edge 84, Type (0, 0), BuildingBlock: XUDNAN_clean_linker_2, # of connection points: 2
#     Edge 85, Type (0, 0), BuildingBlock: XUDNAN_clean_linker_2, # of connection points: 2
#     Edge 86, Type (0, 0), BuildingBlock: XUDNAN_clean_linker_2, # of connection points: 2
#     Edge 87, Type (0, 0), BuildingBlock: XUDNAN_clean_linker_2, # of connection points: 2
#     Edge 88, Type (0, 0), BuildingBlock: XUDNAN_clean_linker_2, # of connection points: 2
#     Edge 89, Type (0, 0), BuildingBlock: XUDNAN_clean_linker_2, # of connection points: 2
#     Edge 90, Type (0, 0), BuildingBlock: XUDNAN_clean_linker_2, # of connection points: 2
#     Edge 91, Type (0, 0), BuildingBlock: XUDNAN_clean_linker_2, # of connection points: 2
#     Edge 92, Type (0, 0), BuildingBlock: XUDNAN_clean_linker_2, # of connection points: 2
#     Edge 93, Type (0, 0), BuildingBlock: XUDNAN_clean_linker_2, # of connection points: 2
#     Edge 94, Type (0, 0), BuildingBlock: XUDNAN_clean_linker_2, # of connection points: 2
#     Edge 95, Type (0, 0), BuildingBlock: XUDNAN_clean_linker_2, # of connection points: 2
# Relax obj value: 0.175
# Max RMSD: 0.247
# Mean RMSD: 0.247
data_MOF--net-sxg--node1-MIFKUJ_clean_sbu_0--edge1-XUDNAN_clean_linker_2
_symmetry_space_group_name_H-M    P1
_symmetry_Int_Tables_number       1
_symmetry_cell_setting            triclinic
loop_
_symmetry_equiv_pos_as_xyz
'x, y, z'
_cell_length_a     47.124216
_cell_length_b     47.108491
_cell_length_c     47.020221
_cell_angle_alpha  89.853971
_cell_angle_beta   89.907372
_cell_angle_gamma 90.024043
loop_
_atom_site_label
_atom_site_type_symbol
_atom_site_fract_x
_atom_site_fract_y
_atom_site_fract_z
_atom_type_partial_charge
Zn0 Zn 0.02736 0.26526 0.25144 0.0
Zn1 Zn 0.9787 0.31713 0.25319 0.0
C2 C 0.06321 0.26737 0.20344 0.0
O3 O 0.0545 0.24088 0.20287 0.0
C4 C 0.95119 0.30917 0.30478 0.0
O5 O 0.95789 0.33625 0.30532 0.0
O6 O 0.05 0.23028 0.26331 0.0
O7 O 0.0268 0.29069 0.28651 0.0
O8 O 0.01585 0.33107 0.2653 0.0
C9 C 0.07518 0.23637 0.27102 0.0
O10 O 0.08257 0.26324 0.27221 0.0
O11 O 0.05312 0.28388 0.22228 0.0
C12 C 0.9271 0.34644 0.24158 0.0
O13 O 0.91839 0.32037 0.23707 0.0
O14 O 0.95283 0.35093 0.24823 0.0
O15 O 0.97977 0.29738 0.21658 0.0
O16 O 0.99109 0.25384 0.23008 0.0
O17 O 0.95987 0.29407 0.28414 0.0
C18 C 0.02958 0.3174 0.28389 0.0
C19 C 0.97829 0.27076 0.2132 0.0
Zn20 Zn 0.45635 0.72461 0.74967 0.0
Zn21 Zn 0.51696 0.67661 0.76394 0.0
C22 C 0.42189 0.72605 0.70136 0.0
O23 O 0.4345 0.75085 0.69933 0.0
C24 C 0.52537 0.67224 0.822 0.0
O25 O 0.51217 0.64831 0.81646 0.0
O26 O 0.43925 0.76178 0.76139 0.0
O27 O 0.45728 0.69585 0.78179 0.0
O28 O 0.4782 0.66001 0.7608 0.0
C29 C 0.41661 0.76398 0.77591 0.0
O30 O 0.40519 0.7412 0.78731 0.0
O31 O 0.42834 0.70959 0.72177 0.0
C32 C 0.56196 0.64086 0.74029 0.0
O33 O 0.56298 0.65908 0.71912 0.0
O34 O 0.54377 0.64409 0.75996 0.0
O35 O 0.52731 0.7041 0.7338 0.0
O36 O 0.49129 0.73321 0.72562 0.0
O37 O 0.52664 0.69109 0.80266 0.0
C38 C 0.45667 0.67035 0.77312 0.0
C39 C 0.51646 0.72486 0.72054 0.0
Zn40 Zn 0.53148 0.22632 0.74558 0.0
Zn41 Zn 0.47803 0.1801 0.73967 0.0
C42 C 0.56565 0.22942 0.79587 0.0
O43 O 0.55686 0.25589 0.79566 0.0
C44 C 0.47088 0.18152 0.68307 0.0
O45 O 0.48272 0.15691 0.68864 0.0
O46 O 0.55238 0.26022 0.73037 0.0
O47 O 0.53536 0.1946 0.71628 0.0
O48 O 0.51445 0.15975 0.73949 0.0
C49 C 0.57844 0.2553 0.72574 0.0
O50 O 0.58779 0.22914 0.72799 0.0
O51 O 0.55655 0.21242 0.77705 0.0
C52 C 0.43465 0.14072 0.75971 0.0
O53 O 0.44266 0.14777 0.7855 0.0
O54 O 0.44745 0.15106 0.73842 0.0
O55 O 0.47218 0.20177 0.77472 0.0
O56 O 0.49665 0.24105 0.76679 0.0
O57 O 0.46992 0.19998 0.70279 0.0
C58 C 0.53438 0.16865 0.72381 0.0
C59 C 0.47877 0.2269 0.78126 0.0
Zn60 Zn 0.96796 0.7671 0.2431 0.0
Zn61 Zn 0.01014 0.81962 0.24408 0.0
C62 C 0.93444 0.76491 0.29514 0.0
O63 O 0.94243 0.73819 0.29483 0.0
C64 C 0.03017 0.8242 0.18942 0.0
O65 O 0.01698 0.84829 0.19423 0.0
O66 O 0.94583 0.7334 0.23024 0.0
O67 O 0.96317 0.79609 0.21108 0.0
O68 O 0.97183 0.8335 0.23733 0.0
C69 C 0.91986 0.73956 0.22661 0.0
O70 O 0.91163 0.76606 0.22919 0.0
O71 O 0.94432 0.7818 0.27636 0.0
C72 C 0.06121 0.85033 0.25173 0.0
O73 O 0.07216 0.82633 0.24272 0.0
O74 O 0.03446 0.85262 0.25444 0.0
O75 O 0.01179 0.79544 0.27768 0.0
O76 O 0.00632 0.75348 0.25854 0.0
O77 O 0.02837 0.80462 0.20808 0.0
C78 C 0.95712 0.82133 0.21851 0.0
C79 C 0.0174 0.76926 0.27736 0.0
Zn80 Zn 0.24902 0.03478 0.272 0.0
Zn81 Zn 0.2542 0.99139 0.32642 0.0
C82 C 0.19553 0.06671 0.28057 0.0
O83 O 0.18301 0.04716 0.26518 0.0
C84 C 0.30416 0.96296 0.32201 0.0
O85 O 0.30486 0.97547 0.34694 0.0
O86 O 0.25596 0.05165 0.23369 0.0
O87 O 0.28447 0.04094 0.29599 0.0
O88 O 0.26782 0.02871 0.3381 0.0
C89 C 0.27756 0.06604 0.22642 0.0
O90 O 0.29963 0.06742 0.24336 0.0
O91 O 0.22149 0.06378 0.2873 0.0
C92 C 0.24567 0.9417 0.3574 0.0
O93 O 0.246 0.93154 0.3314 0.0
O94 O 0.24815 0.96826 0.36129 0.0
O95 O 0.21591 0.99241 0.30988 0.0
O96 O 0.22895 0.99671 0.26526 0.0
O97 O 0.2841 0.96906 0.30496 0.0
C98 C 0.28297 0.04478 0.32275 0.0
C99 C 0.21125 0.9883 0.28382 0.0
Zn100 Zn 0.23939 0.96164 0.76278 0.0
Zn101 Zn 0.24206 0.00238 0.82136 0.0
C102 C 0.28901 0.92786 0.78261 0.0
O103 O 0.28123 0.93325 0.80887 0.0
C104 C 0.18818 0.02233 0.82207 0.0
O105 O 0.19103 0.00737 0.84551 0.0
O106 O 0.22049 0.94756 0.72684 0.0
O107 O 0.21633 0.94519 0.79618 0.0
O108 O 0.23126 0.96546 0.83587 0.0
C109 C 0.21912 0.92058 0.72555 0.0
O110 O 0.22716 0.90566 0.74777 0.0
O111 O 0.27524 0.93862 0.76204 0.0
C112 C 0.25571 0.05297 0.85033 0.0
O113 O 0.25867 0.06176 0.82395 0.0
O114 O 0.2506 0.0269 0.855 0.0
O115 O 0.27619 2e-05 0.79772 0.0
O116 O 0.25317 0.00282 0.75748 0.0
O117 O 0.20842 0.02235 0.80412 0.0
C118 C 0.21801 0.94587 0.82322 0.0
C119 C 0.27414 0.00998 0.77288 0.0
Zn120 Zn 0.75244 0.45485 0.73486 0.0
Zn121 Zn 0.75909 0.51583 0.67864 0.0
C122 C 0.70211 0.42211 0.7148 0.0
O123 O 0.68905 0.44572 0.70778 0.0
C124 C 0.80499 0.55141 0.68773 0.0
O125 O 0.80571 0.54827 0.65997 0.0
O126 O 0.77522 0.43862 0.76703 0.0
O127 O 0.77469 0.47133 0.70415 0.0
O128 O 0.77918 0.483 0.66035 0.0
C129 C 0.78614 0.41459 0.76137 0.0
O130 O 0.78576 0.40565 0.73491 0.0
O131 O 0.72758 0.42274 0.72347 0.0
C132 C 0.74223 0.56706 0.64996 0.0
O133 O 0.74583 0.57857 0.67512 0.0
O134 O 0.74554 0.5405 0.64699 0.0
O135 O 0.72464 0.50167 0.70145 0.0
O136 O 0.72803 0.48748 0.74619 0.0
O137 O 0.78639 0.53809 0.70208 0.0
C138 C 0.77975 0.46373 0.67898 0.0
C139 C 0.71898 0.50524 0.72776 0.0
Zn140 Zn 0.74626 0.54416 0.22232 0.0
Zn141 Zn 0.72505 0.4784 0.17566 0.0
C142 C 0.79735 0.57388 0.20645 0.0
O143 O 0.81053 0.54953 0.20951 0.0
C144 C 0.67356 0.45398 0.18672 0.0
O145 O 0.67306 0.45612 0.15886 0.0
O146 O 0.72785 0.56193 0.2569 0.0
O147 O 0.71951 0.53141 0.19336 0.0
O148 O 0.71833 0.51285 0.15186 0.0
C149 C 0.71903 0.58693 0.25175 0.0
O150 O 0.71877 0.59577 0.22525 0.0
O151 O 0.77051 0.57487 0.20732 0.0
C152 C 0.74966 0.43189 0.14311 0.0
O153 O 0.77348 0.43717 0.15652 0.0
O154 O 0.728 0.44696 0.14788 0.0
O155 O 0.76082 0.47808 0.20012 0.0
O156 O 0.77183 0.51116 0.23244 0.0
O157 O 0.69276 0.46688 0.20041 0.0
C158 C 0.72005 0.535 0.16663 0.0
C159 C 0.77682 0.48776 0.21972 0.0
Zn160 Zn 0.25633 0.25012 0.03354 0.0
Zn161 Zn 0.31532 0.24931 0.98482 0.0
C162 C 0.27952 0.20223 0.06848 0.0
O163 O 0.29493 0.19348 0.04692 0.0
C164 C 0.33007 0.30364 0.96626 0.0
O165 O 0.35455 0.29431 0.97578 0.0
O166 O 0.22027 0.2676 0.04887 0.0
O167 O 0.28794 0.27954 0.03251 0.0
O168 O 0.32311 0.24965 0.02617 0.0
C169 C 0.22172 0.28566 0.06893 0.0
O170 O 0.24651 0.29621 0.07602 0.0
O171 O 0.26453 0.22446 0.06613 0.0
C172 C 0.34925 0.24212 0.93694 0.0
O173 O 0.32508 0.25058 0.92589 0.0
O174 O 0.35059 0.23762 0.96359 0.0
O175 O 0.28579 0.2227 0.97266 0.0
O176 O 0.2476 0.22367 0.00032 0.0
O177 O 0.30786 0.28878 0.97029 0.0
C178 C 0.31209 0.27003 0.03971 0.0
C179 C 0.26099 0.21432 0.97875 0.0
Zn180 Zn 0.76895 0.23877 0.95943 0.0
Zn181 Zn 0.82158 0.24119 0.00055 0.0
C182 C 0.77754 0.29131 0.92774 0.0
O183 O 0.75741 0.30146 0.94418 0.0
C184 C 0.81207 0.19056 0.03041 0.0
O185 O 0.83765 0.18634 0.0201 0.0
O186 O 0.73158 0.22973 0.94064 0.0
O187 O 0.79413 0.20358 0.95724 0.0
O188 O 0.8329 0.22899 0.96248 0.0
C189 C 0.7311 0.21199 0.92032 0.0
O190 O 0.75448 0.19852 0.91337 0.0
O191 O 0.78645 0.26618 0.93177 0.0
C192 C 0.85304 0.25413 0.04904 0.0
O193 O 0.82821 0.26471 0.05602 0.0
O194 O 0.85658 0.24382 0.0244 0.0
O195 O 0.80296 0.27845 0.00049 0.0
O196 O 0.76048 0.2595 0.9966 0.0
O197 O 0.79837 0.21243 0.02242 0.0
C198 C 0.81972 0.20897 0.95053 0.0
C199 C 0.77666 0.27901 0.00593 0.0
Zn200 Zn 0.72834 0.75341 0.45842 0.0
Zn201 Zn 0.6738 0.75377 0.50663 0.0
C202 C 0.7222 0.70111 0.42516 0.0
O203 O 0.73971 0.68913 0.44326 0.0
C204 C 0.68698 0.80773 0.52862 0.0
O205 O 0.6639 0.81404 0.51432 0.0
O206 O 0.76649 0.7647 0.44099 0.0
O207 O 0.70013 0.78644 0.45508 0.0
O208 O 0.6608 0.76496 0.46864 0.0
C209 C 0.76628 0.77913 0.41805 0.0
O210 O 0.7419 0.78817 0.40805 0.0
O211 O 0.71403 0.72645 0.42915 0.0
C212 C 0.64447 0.74466 0.5582 0.0
O213 O 0.67056 0.73877 0.5661 0.0
O214 O 0.63974 0.75083 0.5323 0.0
O215 O 0.69243 0.71646 0.5065 0.0
O216 O 0.73584 0.73094 0.49518 0.0
O217 O 0.69763 0.78309 0.52612 0.0
C218 C 0.67381 0.78117 0.45152 0.0
C219 C 0.71905 0.71299 0.50653 0.0
Zn220 Zn 0.22542 0.74424 0.53117 0.0
Zn221 Zn 0.17328 0.74413 0.49014 0.0
C222 C 0.22011 0.79761 0.55948 0.0
O223 O 0.24191 0.80348 0.54308 0.0
C224 C 0.18808 0.69175 0.46696 0.0
O225 O 0.16438 0.68519 0.48018 0.0
O226 O 0.26269 0.73469 0.55006 0.0
O227 O 0.20067 0.70873 0.53349 0.0
O228 O 0.16098 0.73245 0.52814 0.0
C229 C 0.26423 0.71359 0.56692 0.0
O230 O 0.2421 0.69699 0.57027 0.0
O231 O 0.20864 0.77321 0.5582 0.0
C232 C 0.14433 0.75309 0.43969 0.0
O233 O 0.16861 0.76554 0.43396 0.0
O234 O 0.13973 0.74336 0.46444 0.0
O235 O 0.19004 0.78214 0.48988 0.0
O236 O 0.23341 0.76485 0.49344 0.0
O237 O 0.19871 0.71627 0.47043 0.0
C238 C 0.17492 0.71294 0.54012 0.0
C239 C 0.21644 0.78429 0.4854 0.0
Zn240 Zn 0.01888 0.66859 0.7372 0.0
Zn241 Zn 0.9589 0.72772 0.74606 0.0
C242 C 0.03603 0.66004 0.6822 0.0
O243 O 0.0266 0.63488 0.68979 0.0
C244 C 0.92297 0.71159 0.79339 0.0
O245 O 0.94595 0.70037 0.80447 0.0
O246 O 0.04892 0.64203 0.75023 0.0
O247 O 0.01793 0.70098 0.76518 0.0
O248 O 0.98959 0.73744 0.77431 0.0
C249 C 0.07369 0.65176 0.74591 0.0
O250 O 0.07684 0.6777 0.73612 0.0
O251 O 0.03194 0.68088 0.69878 0.0
C252 C 0.92758 0.76788 0.71322 0.0
O253 O 0.90832 0.7477 0.71318 0.0
O254 O 0.95235 0.76229 0.72228 0.0
O255 O 0.97177 0.69336 0.72602 0.0
O256 O 0.98163 0.64921 0.73394 0.0
O257 O 0.92369 0.72181 0.76841 0.0
C258 C 0.01186 0.72303 0.77951 0.0
C259 C 0.96311 0.66818 0.73005 0.0
Zn260 Zn 0.46885 0.32674 0.23183 0.0
Zn261 Zn 0.53402 0.27267 0.24556 0.0
C262 C 0.4588 0.32496 0.17301 0.0
O263 O 0.47402 0.3483 0.17406 0.0
C264 C 0.57429 0.27199 0.28947 0.0
O265 O 0.55871 0.24985 0.2963 0.0
O266 O 0.43923 0.35463 0.24299 0.0
O267 O 0.47223 0.29648 0.26283 0.0
O268 O 0.50408 0.26336 0.27424 0.0
C269 C 0.42077 0.34811 0.26154 0.0
O270 O 0.42175 0.32318 0.27404 0.0
O271 O 0.45552 0.31031 0.19547 0.0
C272 C 0.56681 0.23215 0.21438 0.0
O273 O 0.58572 0.25265 0.21389 0.0
O274 O 0.5424 0.23705 0.22463 0.0
O275 O 0.51696 0.303 0.22302 0.0
O276 O 0.50519 0.34721 0.22621 0.0
O277 O 0.56828 0.28585 0.2671 0.0
C278 C 0.48064 0.27606 0.27851 0.0
C279 C 0.52446 0.32872 0.22464 0.0
Zn280 Zn 0.51094 0.82991 0.24885 0.0
Zn281 Zn 0.46635 0.77849 0.25347 0.0
C282 C 0.53806 0.82741 0.30077 0.0
O283 O 0.53084 0.8542 0.29804 0.0
C284 C 0.431 0.77065 0.20471 0.0
O285 O 0.43799 0.7443 0.2106 0.0
O286 O 0.54102 0.85923 0.2391 0.0
O287 O 0.50795 0.80595 0.21445 0.0
O288 O 0.50394 0.76538 0.23708 0.0
C289 C 0.56474 0.84744 0.23364 0.0
O290 O 0.56587 0.81958 0.23286 0.0
O291 O 0.52905 0.8097 0.28249 0.0
C292 C 0.42024 0.75041 0.27558 0.0
O293 O 0.41176 0.77691 0.27369 0.0
O294 O 0.44589 0.74462 0.26969 0.0
O295 O 0.46429 0.80882 0.28405 0.0
O296 O 0.47363 0.84688 0.25861 0.0
O297 O 0.44151 0.79058 0.21967 0.0
C298 C 0.51249 0.77951 0.21568 0.0
C299 C 0.45831 0.83412 0.27679 0.0
Zn300 Zn 0.98845 0.16573 0.75938 0.0
Zn301 Zn 0.03694 0.22372 0.75096 0.0
C302 C 0.96478 0.16684 0.81072 0.0
O303 O 0.97834 0.14267 0.8077 0.0
C304 C 0.05531 0.22315 0.69131 0.0
O305 O 0.03212 0.23767 0.68599 0.0
O306 O 0.96049 0.1344 0.75005 0.0
O307 O 0.99728 0.18543 0.72371 0.0
O308 O 0.99584 0.2296 0.73641 0.0
C309 C 0.93503 0.14328 0.74802 0.0
O310 O 0.92988 0.17058 0.74999 0.0
O311 O 0.96779 0.18576 0.79147 0.0
C312 C 0.07424 0.26854 0.77739 0.0
O313 O 0.08484 0.24923 0.79453 0.0
O314 O 0.0537 0.26213 0.761 0.0
O315 O 0.04982 0.1919 0.7787 0.0
O316 O 0.02404 0.15207 0.77531 0.0
O317 O 0.0604 0.21472 0.71646 0.0
C318 C 0.98577 0.20939 0.72174 0.0
C319 C 0.04537 0.16569 0.7845 0.0
Zn320 Zn 0.74162 0.01672 0.6727 0.0
Zn321 Zn 0.75362 0.95549 0.72993 0.0
C322 C 0.68905 0.03976 0.67533 0.0
O323 O 0.6913 0.0298 0.64937 0.0
C324 C 0.81182 0.93604 0.73667 0.0
O325 O 0.8135 0.95555 0.75651 0.0
O326 O 0.75499 0.04566 0.64414 0.0
O327 O 0.77431 0.00519 0.69825 0.0
O328 O 0.76615 0.99453 0.74288 0.0
C329 C 0.76229 0.06945 0.65452 0.0
O330 O 0.76266 0.07247 0.68228 0.0
O331 O 0.70943 0.03627 0.69266 0.0
C332 C 0.7327 0.90589 0.75728 0.0
O333 O 0.7458 0.89549 0.73497 0.0
O334 O 0.73142 0.93278 0.76004 0.0
O335 O 0.73651 0.95753 0.6908 0.0
O336 O 0.72576 0.9823 0.65297 0.0
O337 O 0.78888 0.93305 0.72297 0.0
C338 C 0.77562 0.01192 0.72436 0.0
C339 C 0.7257 0.95873 0.6661 0.0
Zn340 Zn 0.75806 0.98467 0.17069 0.0
Zn341 Zn 0.73676 0.04203 0.23014 0.0
C342 C 0.80722 0.95511 0.16905 0.0
O343 O 0.80411 0.96528 0.1432 0.0
C344 C 0.67914 0.06246 0.23303 0.0
O345 O 0.67444 0.0394 0.24806 0.0
O346 O 0.74416 0.96152 0.13804 0.0
O347 O 0.72467 0.9932 0.19644 0.0
O348 O 0.72247 0.00312 0.24147 0.0
C349 C 0.74458 0.9347 0.1407 0.0
O350 O 0.75151 0.92342 0.16527 0.0
O351 O 0.78965 0.96228 0.18828 0.0
C352 C 0.77851 0.07837 0.25479 0.0
O353 O 0.78146 0.08702 0.22836 0.0
O354 O 0.7612 0.05846 0.26037 0.0
O355 O 0.757 0.04021 0.19286 0.0
O356 O 0.77445 0.02078 0.15486 0.0
O357 O 0.70398 0.06772 0.22405 0.0
C358 C 0.72065 0.98483 0.2218 0.0
C359 C 0.76989 0.04293 0.16935 0.0
Zn360 Zn 0.22543 0.47881 0.32298 0.0
Zn361 Zn 0.24984 0.5454 0.26725 0.0
C362 C 0.17201 0.45746 0.33076 0.0
O363 O 0.17772 0.46936 0.35533 0.0
C364 C 0.29923 0.58128 0.28428 0.0
O365 O 0.31003 0.56033 0.29924 0.0
O366 O 0.24329 0.4498 0.34928 0.0
O367 O 0.24967 0.49166 0.2902 0.0
O368 O 0.27469 0.51157 0.25704 0.0
C369 C 0.24685 0.42516 0.33881 0.0
O370 O 0.24123 0.42104 0.31177 0.0
O371 O 0.18968 0.4601 0.31049 0.0
C372 C 0.21887 0.58356 0.23284 0.0
O373 O 0.22486 0.59984 0.25465 0.0
O374 O 0.2244 0.55713 0.23449 0.0
O375 O 0.23113 0.53853 0.30593 0.0
O376 O 0.21501 0.51527 0.34299 0.0
O377 O 0.27589 0.57804 0.27134 0.0
C378 C 0.27089 0.4907 0.2737 0.0
C379 C 0.21967 0.53885 0.33044 0.0
Zn380 Zn 0.2537 0.50491 0.82512 0.0
Zn381 Zn 0.25513 0.45931 0.77168 0.0
C382 C 0.30378 0.53717 0.81725 0.0
O383 O 0.30401 0.53314 0.84491 0.0
C384 C 0.20302 0.43296 0.76144 0.0
O385 O 0.206 0.4503 0.73969 0.0
O386 O 0.24571 0.53053 0.85829 0.0
O387 O 0.21753 0.50124 0.80455 0.0
O388 O 0.24025 0.49937 0.76407 0.0
C389 C 0.24238 0.55698 0.85388 0.0
O390 O 0.24258 0.56662 0.82763 0.0
O391 O 0.28446 0.5253 0.80252 0.0
C392 C 0.27534 0.41954 0.7284 0.0
O393 O 0.27944 0.4023 0.75001 0.0
O394 O 0.26726 0.44488 0.73308 0.0
O395 O 0.28625 0.45052 0.80057 0.0
O396 O 0.26708 0.46827 0.83976 0.0
O397 O 0.2215 0.43375 0.78108 0.0
C398 C 0.21952 0.50845 0.77877 0.0
C399 C 0.28311 0.4505 0.82748 0.0
Zn400 Zn 0.67406 0.73979 0.01055 0.0
Zn401 Zn 0.72456 0.74007 0.96502 0.0
C402 C 0.69007 0.69157 0.04296 0.0
O403 O 0.66237 0.68874 0.04228 0.0
C404 C 0.71682 0.79244 0.93002 0.0
O405 O 0.73455 0.80482 0.94757 0.0
O406 O 0.64134 0.7439 0.03743 0.0
O407 O 0.68918 0.77846 0.00527 0.0
O408 O 0.73266 0.76224 0.00144 0.0
C409 C 0.64738 0.74763 0.06343 0.0
O410 O 0.67404 0.74948 0.07128 0.0
O411 O 0.70166 0.71195 0.02937 0.0
C412 C 0.76129 0.72155 0.92308 0.0
O413 O 0.73629 0.71757 0.91146 0.0
O414 O 0.76255 0.73 0.94863 0.0
O415 O 0.69952 0.70462 0.96212 0.0
O416 O 0.65908 0.72434 0.97523 0.0
O417 O 0.70906 0.76696 0.93476 0.0
C418 C 0.71558 0.78202 0.00791 0.0
C419 C 0.67261 0.70631 0.96072 0.0
Zn420 Zn 0.17214 0.74952 0.99214 0.0
Zn421 Zn 0.22607 0.75383 0.0331 0.0
C422 C 0.18409 0.80358 0.97038 0.0
O423 O 0.16115 0.80932 0.98514 0.0
C424 C 0.2255 0.6993 0.0611 0.0
O425 O 0.24791 0.69493 0.0451 0.0
O426 O 0.13876 0.74813 0.96548 0.0
O427 O 0.19195 0.71291 0.99165 0.0
O428 O 0.23393 0.73354 0.99468 0.0
C429 C 0.13779 0.73078 0.94484 0.0
O430 O 0.15698 0.71067 0.94286 0.0
O431 O 0.19545 0.77927 0.97278 0.0
C432 C 0.26645 0.76647 0.07699 0.0
O433 O 0.24473 0.75825 0.09247 0.0
O434 O 0.26391 0.76733 0.05001 0.0
O435 O 0.19725 0.78608 0.03899 0.0
O436 O 0.15909 0.76035 0.03042 0.0
O437 O 0.2125 0.72286 0.05965 0.0
C438 C 0.21826 0.71309 0.98631 0.0
C439 C 0.17146 0.77978 0.04417 0.0
Zn440 Zn 0.32078 0.24201 0.48935 0.0
Zn441 Zn 0.26784 0.24604 0.53441 0.0
C442 C 0.30644 0.18986 0.46652 0.0
O443 O 0.32969 0.18396 0.48076 0.0
C444 C 0.26133 0.30162 0.55803 0.0
O445 O 0.24071 0.30244 0.53927 0.0
O446 O 0.35243 0.24269 0.46148 0.0
O447 O 0.30465 0.28067 0.49263 0.0
O448 O 0.26286 0.26079 0.49351 0.0
C449 C 0.36162 0.26413 0.44803 0.0
O450 O 0.35211 0.28957 0.4543 0.0
O451 O 0.29508 0.21412 0.46978 0.0
C452 C 0.2265 0.22806 0.57434 0.0
O453 O 0.24864 0.2304 0.59113 0.0
O454 O 0.22952 0.23301 0.54792 0.0
O455 O 0.29609 0.2156 0.5469 0.0
O456 O 0.33608 0.22704 0.52474 0.0
O457 O 0.27688 0.27965 0.55936 0.0
C458 C 0.27911 0.28049 0.48467 0.0
C459 C 0.32287 0.21384 0.54408 0.0
Zn460 Zn 0.81824 0.26751 0.52019 0.0
Zn461 Zn 0.76915 0.24023 0.4523 0.0
C462 C 0.80538 0.32221 0.54087 0.0
O463 O 0.82903 0.32885 0.52759 0.0
C464 C 0.78941 0.19148 0.42303 0.0
O465 O 0.77862 0.17825 0.44516 0.0
O466 O 0.84589 0.24934 0.54763 0.0
O467 O 0.78963 0.23904 0.5077 0.0
O468 O 0.75885 0.21309 0.4859 0.0
C469 C 0.85602 0.26366 0.56815 0.0
O470 O 0.84968 0.29065 0.57032 0.0
O471 O 0.79623 0.29702 0.53988 0.0
C472 C 0.73628 0.27854 0.41781 0.0
O473 O 0.76129 0.28993 0.41295 0.0
O474 O 0.73432 0.25795 0.43523 0.0
O475 O 0.79694 0.26911 0.46734 0.0
O476 O 0.83698 0.28347 0.48438 0.0
O477 O 0.78809 0.21831 0.42165 0.0
C478 C 0.77301 0.21811 0.50835 0.0
C479 C 0.82175 0.27845 0.4627 0.0
H480 H 0.08243 0.32977 0.26661 0.0
H481 H 0.0226 0.3419 0.33544 0.0
H482 H 0.05391 0.3787 0.35622 0.0
H483 H 0.14877 0.34382 0.30871 0.0
H484 H 0.16502 0.36179 0.27897 0.0
H485 H 0.14025 0.33329 0.27289 0.0
H486 H 0.11053 0.36686 0.24103 0.0
H487 H 0.13454 0.39576 0.24775 0.0
H488 H 0.09729 0.39969 0.25555 0.0
H489 H 0.08852 0.41769 0.3658 0.0
H490 H 0.12663 0.45363 0.36653 0.0
H491 H 0.16312 0.41676 0.29024 0.0
C492 C 0.07673 0.33935 0.28676 0.0
C493 C 0.05083 0.33274 0.30012 0.0
C494 C 0.04296 0.34632 0.32565 0.0
C495 C 0.06045 0.36731 0.33736 0.0
C496 C 0.08549 0.37424 0.32308 0.0
C497 C 0.09388 0.36033 0.2986 0.0
C498 C 0.12054 0.37324 0.28613 0.0
C499 C 0.1451 0.35176 0.28673 0.0
C500 C 0.11539 0.38456 0.25583 0.0
C501 C 0.12538 0.39714 0.30695 0.0
C502 C 0.10506 0.39721 0.32819 0.0
C503 C 0.10479 0.41763 0.34952 0.0
C504 C 0.12639 0.43803 0.34966 0.0
C505 C 0.14776 0.43794 0.32845 0.0
C506 C 0.14695 0.41746 0.30662 0.0
H507 H 0.33501 0.57775 0.84437 0.0
H508 H 0.31826 0.54251 0.76088 0.0
H509 H 0.35283 0.57615 0.73979 0.0
H510 H 0.34298 0.65149 0.82068 0.0
H511 H 0.37065 0.65891 0.84602 0.0
H512 H 0.34373 0.63295 0.85425 0.0
H513 H 0.38265 0.59517 0.86347 0.0
H514 H 0.40962 0.62103 0.85543 0.0
H515 H 0.40859 0.58799 0.8362 0.0
H516 H 0.39234 0.61034 0.72873 0.0
H517 H 0.43309 0.64341 0.72819 0.0
H518 H 0.42178 0.6589 0.81828 0.0
C519 C 0.33855 0.57711 0.82162 0.0
C520 C 0.32414 0.55733 0.80424 0.0
C521 C 0.32912 0.55743 0.77456 0.0
C522 C 0.34864 0.5765 0.76242 0.0
C523 C 0.36256 0.59565 0.7802 0.0
C524 C 0.35757 0.59627 0.80914 0.0
C525 C 0.37571 0.61851 0.82366 0.0
C526 C 0.35716 0.64185 0.83693 0.0
C527 C 0.3953 0.60485 0.846 0.0
C528 C 0.39242 0.62975 0.79849 0.0
C529 C 0.38442 0.61632 0.7736 0.0
C530 C 0.3984 0.62135 0.74795 0.0
C531 C 0.42148 0.64012 0.74784 0.0
C532 C 0.43007 0.65395 0.77307 0.0
C533 C 0.41502 0.64915 0.79858 0.0
H534 H 0.59241 0.17138 0.72106 0.0
H535 H 0.52019 0.11778 0.70157 0.0
H536 H 0.55238 0.07945 0.6868 0.0
H537 H 0.64037 0.1452 0.66451 0.0
H538 H 0.67114 0.14626 0.6872 0.0
H539 H 0.64244 0.17089 0.69278 0.0
H540 H 0.63857 0.15404 0.7451 0.0
H541 H 0.66684 0.12893 0.73954 0.0
H542 H 0.63291 0.11693 0.75264 0.0
H543 H 0.59124 0.04676 0.67547 0.0
H544 H 0.63594 0.02052 0.66799 0.0
H545 H 0.68384 0.0927 0.69893 0.0
C546 C 0.58355 0.15184 0.71288 0.0
C547 C 0.55391 0.14765 0.71173 0.0
C548 C 0.54285 0.1215 0.70205 0.0
C549 C 0.56095 0.09959 0.69374 0.0
C550 C 0.59004 0.10399 0.69581 0.0
C551 C 0.60142 0.12937 0.70512 0.0
C552 C 0.6335 0.12753 0.70718 0.0
C553 C 0.6477 0.14873 0.68669 0.0
C554 C 0.64354 0.13212 0.73795 0.0
C555 C 0.63819 0.0971 0.69773 0.0
C556 C 0.61275 0.08416 0.691 0.0
C557 C 0.61133 0.0565 0.6808 0.0
C558 C 0.6367 0.04175 0.67676 0.0
C559 C 0.66296 0.0545 0.68345 0.0
C560 C 0.66381 0.08236 0.69442 0.0
H561 H 0.9345 0.87036 0.23828 0.0
H562 H 0.92333 0.80606 0.17321 0.0
H563 H 0.88175 0.83252 0.15469 0.0
H564 H 0.86032 0.88277 0.25198 0.0
H565 H 0.86532 0.9203 0.25751 0.0
H566 H 0.89354 0.89585 0.26568 0.0
H567 H 0.9275 0.92375 0.23236 0.0
H568 H 0.89946 0.94833 0.22412 0.0
H569 H 0.91746 0.92979 0.19587 0.0
H570 H 0.84402 0.8681 0.14146 0.0
H571 H 0.81131 0.90874 0.13576 0.0
H572 H 0.84579 0.94764 0.21166 0.0
C573 C 0.92339 0.86171 0.22011 0.0
C574 C 0.93225 0.8363 0.20696 0.0
C575 C 0.91692 0.8256 0.18346 0.0
C576 C 0.89332 0.84043 0.17289 0.0
C577 C 0.88534 0.86557 0.18636 0.0
C578 C 0.89982 0.87596 0.20959 0.0
C579 C 0.88739 0.90357 0.22013 0.0
C580 C 0.87595 0.90042 0.25063 0.0
C581 C 0.90925 0.92778 0.21798 0.0
C582 C 0.86366 0.90742 0.19896 0.0
C583 C 0.86295 0.88536 0.17953 0.0
C584 C 0.84416 0.88525 0.15674 0.0
C585 C 0.82582 0.90839 0.15361 0.0
C586 C 0.82617 0.93095 0.17342 0.0
C587 C 0.84498 0.93031 0.19657 0.0
H588 H 0.32108 0.13452 0.45814 0.0
H589 H 0.27496 0.20441 0.41961 0.0
H590 H 0.2693 0.17635 0.37557 0.0
H591 H 0.3586 0.11259 0.39598 0.0
H592 H 0.35584 0.0752 0.40374 0.0
H593 H 0.35632 0.10058 0.43234 0.0
H594 H 0.30847 0.08114 0.45166 0.0
H595 H 0.30848 0.0551 0.42375 0.0
H596 H 0.27852 0.0785 0.42799 0.0
H597 H 0.27076 0.14113 0.33481 0.0
H598 H 0.27012 0.09804 0.30471 0.0
H599 H 0.31346 0.05114 0.37097 0.0
C600 C 0.30949 0.14382 0.44057 0.0
C601 C 0.29852 0.17165 0.44226 0.0
C602 C 0.28339 0.18303 0.41885 0.0
C603 C 0.2804 0.16741 0.39362 0.0
C604 C 0.2925 0.14044 0.39228 0.0
C605 C 0.30612 0.12849 0.41541 0.0
C606 C 0.3161 0.09866 0.40908 0.0
C607 C 0.34865 0.09666 0.41036 0.0
C608 C 0.30204 0.07708 0.42931 0.0
C609 C 0.30556 0.09544 0.37891 0.0
C610 C 0.29266 0.12001 0.36927 0.0
C611 C 0.28086 0.12183 0.34212 0.0
C612 C 0.28092 0.09742 0.32503 0.0
C613 C 0.29212 0.0716 0.33552 0.0
C614 C 0.30533 0.07088 0.36236 0.0
H615 H 0.21809 0.94211 0.88092 0.0
H616 H 0.19481 0.89537 0.8049 0.0
H617 H 0.18379 0.85335 0.83471 0.0
H618 H 0.25337 0.88548 0.91436 0.0
H619 H 0.24234 0.89508 0.94978 0.0
H620 H 0.24609 0.92205 0.92283 0.0
H621 H 0.19412 0.93813 0.93082 0.0
H622 H 0.19031 0.91166 0.95825 0.0
H623 H 0.1659 0.91236 0.92876 0.0
H624 H 0.17963 0.81544 0.87264 0.0
H625 H 0.17698 0.78609 0.91633 0.0
H626 H 0.20208 0.85855 0.967 0.0
C627 C 0.21026 0.92324 0.87041 0.0
C628 C 0.20739 0.92197 0.84054 0.0
C629 C 0.19712 0.89681 0.82777 0.0
C630 C 0.19097 0.87284 0.8445 0.0
C631 C 0.19518 0.87457 0.87382 0.0
C632 C 0.20422 0.89927 0.88665 0.0
C633 C 0.20805 0.89557 0.91835 0.0
C634 C 0.23931 0.8998 0.92682 0.0
C635 C 0.18841 0.91561 0.93502 0.0
C636 C 0.19924 0.86493 0.9216 0.0
C637 C 0.19238 0.85302 0.8956 0.0
C638 C 0.18477 0.82459 0.89308 0.0
C639 C 0.18359 0.80807 0.91787 0.0
C640 C 0.18961 0.82023 0.94468 0.0
C641 C 0.19755 0.84892 0.94661 0.0
H642 H 0.83668 0.34716 0.58156 0.0
H643 H 0.75042 0.33553 0.55215 0.0
H644 H 0.73262 0.36298 0.59343 0.0
H645 H 0.81737 0.34217 0.65961 0.0
H646 H 0.84449 0.36744 0.66893 0.0
H647 H 0.84975 0.34384 0.63923 0.0
H648 H 0.85895 0.38685 0.60589 0.0
H649 H 0.85439 0.41033 0.63547 0.0
H650 H 0.83301 0.41493 0.60402 0.0
H651 H 0.72578 0.39816 0.63165 0.0
H652 H 0.73048 0.44024 0.66237 0.0
H653 H 0.82045 0.42477 0.67071 0.0
C654 C 0.81405 0.35046 0.58394 0.0
C655 C 0.79479 0.34011 0.56369 0.0
C656 C 0.76533 0.34394 0.56749 0.0
C657 C 0.75511 0.359 0.591 0.0
C658 C 0.7747 0.36887 0.61088 0.0
C659 C 0.80353 0.36449 0.60773 0.0
C660 C 0.82032 0.37887 0.63088 0.0
C661 C 0.83377 0.35677 0.65084 0.0
C662 C 0.84296 0.39895 0.6183 0.0
C663 C 0.79672 0.39479 0.64567 0.0
C664 C 0.77039 0.38785 0.63451 0.0
C665 C 0.74597 0.40297 0.64146 0.0
C666 C 0.74874 0.42669 0.65904 0.0
C667 C 0.77561 0.43464 0.66959 0.0
C668 C 0.7996 0.41799 0.66382 0.0
H669 H 0.69921 0.58895 0.17396 0.0
H670 H 0.75898 0.53953 0.12468 0.0
H671 H 0.76444 0.57916 0.09092 0.0
H672 H 0.66252 0.61724 0.12237 0.0
H673 H 0.65829 0.65291 0.13554 0.0
H674 H 0.66446 0.62431 0.16002 0.0
H675 H 0.70839 0.65024 0.18026 0.0
H676 H 0.70209 0.67933 0.15604 0.0
H677 H 0.7361 0.66188 0.15649 0.0
H678 H 0.75559 0.61901 0.05726 0.0
H679 H 0.73437 0.65731 0.0279 0.0
H680 H 0.68169 0.6819 0.09912 0.0
C681 C 0.71484 0.5873 0.15717 0.0
C682 C 0.72919 0.56147 0.15233 0.0
C683 C 0.74814 0.55934 0.12901 0.0
C684 C 0.75143 0.58177 0.10972 0.0
C685 C 0.73603 0.60655 0.11422 0.0
C686 C 0.71863 0.60981 0.13779 0.0
C687 C 0.7022 0.63746 0.13594 0.0
C688 C 0.66997 0.63265 0.13859 0.0
C689 C 0.71282 0.65847 0.15852 0.0
C690 C 0.71057 0.64731 0.10634 0.0
C691 C 0.73096 0.62984 0.0946 0.0
C692 C 0.74027 0.63338 0.06655 0.0
C693 C 0.72817 0.65512 0.05 0.0
C694 C 0.70661 0.67249 0.06143 0.0
C695 C 0.69824 0.66889 0.09004 0.0
H696 H 0.32671 0.25743 0.09353 0.0
H697 H 0.34053 0.31822 0.02572 0.0
H698 H 0.38135 0.33841 0.05198 0.0
H699 H 0.34629 0.30787 0.15207 0.0
H700 H 0.36162 0.2796 0.17285 0.0
H701 H 0.33218 0.2724 0.14955 0.0
H702 H 0.36201 0.23316 0.12512 0.0
H703 H 0.39188 0.24092 0.14757 0.0
H704 H 0.3958 0.24219 0.10944 0.0
H705 H 0.42346 0.34809 0.0834 0.0
H706 H 0.45929 0.3523 0.12151 0.0
H707 H 0.41648 0.28564 0.16904 0.0
C708 C 0.33784 0.27561 0.08479 0.0
C709 C 0.33083 0.28651 0.05788 0.0
C710 C 0.34582 0.30988 0.0465 0.0
C711 C 0.369 0.32132 0.06117 0.0
C712 C 0.37626 0.30933 0.08729 0.0
C713 C 0.36059 0.28758 0.0994 0.0
C714 C 0.37281 0.27838 0.12761 0.0
C715 C 0.35199 0.28496 0.15196 0.0
C716 C 0.38112 0.24679 0.12739 0.0
C717 C 0.39859 0.29738 0.12883 0.0
C718 C 0.40017 0.31518 0.10549 0.0
C719 C 0.42225 0.33455 0.10199 0.0
C720 C 0.44258 0.33664 0.12361 0.0
C721 C 0.44058 0.31939 0.14825 0.0
C722 C 0.41868 0.29906 0.15043 0.0
H723 H 0.83897 0.23361 0.9027 0.0
H724 H 0.83455 0.1533 0.94746 0.0
H725 H 0.8704 0.13326 0.91448 0.0
H726 H 0.85147 0.2027 0.82946 0.0
H727 H 0.87484 0.23156 0.82009 0.0
H728 H 0.84566 0.23753 0.84417 0.0
H729 H 0.8809 0.25751 0.88113 0.0
H730 H 0.91037 0.25076 0.85776 0.0
H731 H 0.91005 0.23578 0.89307 0.0
H732 H 0.91189 0.1254 0.88314 0.0
H733 H 0.95146 0.12609 0.84934 0.0
H734 H 0.92803 0.21132 0.82264 0.0
C735 C 0.84469 0.21142 0.9046 0.0
C736 C 0.83388 0.19462 0.92701 0.0
C737 C 0.84223 0.16603 0.92983 0.0
C738 C 0.86269 0.15468 0.91141 0.0
C739 C 0.87399 0.17223 0.89025 0.0
C740 C 0.86473 0.19974 0.88619 0.0
C741 C 0.88149 0.21465 0.86298 0.0
C742 C 0.86221 0.22203 0.83767 0.0
C743 C 0.89659 0.24124 0.87444 0.0
C744 C 0.90249 0.19156 0.85538 0.0
C745 C 0.89771 0.16737 0.87146 0.0
C746 C 0.9154 0.14389 0.86989 0.0
C747 C 0.93802 0.14467 0.85072 0.0
C748 C 0.94275 0.1687 0.83305 0.0
C749 C 0.92486 0.1926 0.83568 0.0
H750 H 0.5412 0.79062 0.34629 0.0
H751 H 0.59016 0.85002 0.29561 0.0
H752 H 0.63133 0.84347 0.32741 0.0
H753 H 0.56591 0.81492 0.41257 0.0
H754 H 0.56709 0.78053 0.42942 0.0
H755 H 0.54243 0.78704 0.40095 0.0
H756 H 0.56298 0.74446 0.37281 0.0
H757 H 0.58743 0.73761 0.40144 0.0
H758 H 0.60058 0.74291 0.36581 0.0
H759 H 0.66617 0.83302 0.36658 0.0
H760 H 0.69227 0.81836 0.40988 0.0
H761 H 0.61994 0.76719 0.4357 0.0
C762 C 0.56084 0.80168 0.34168 0.0
C763 C 0.56281 0.8206 0.3185 0.0
C764 C 0.58848 0.83533 0.3133 0.0
C765 C 0.61193 0.83174 0.33119 0.0
C766 C 0.60925 0.81353 0.35438 0.0
C767 C 0.58441 0.79864 0.35966 0.0
C768 C 0.58657 0.78187 0.38708 0.0
C769 C 0.56417 0.79169 0.40878 0.0
C770 C 0.58426 0.74981 0.38143 0.0
C771 C 0.61624 0.78997 0.39644 0.0
C772 C 0.6291 0.80805 0.37724 0.0
C773 C 0.6564 0.81867 0.38171 0.0
C774 C 0.67106 0.8103 0.40636 0.0
C775 C 0.65828 0.7916 0.4262 0.0
C776 C 0.63042 0.78156 0.42106 0.0
H777 H 0.15305 0.73582 0.58728 0.0
H778 H 0.16483 0.65603 0.54334 0.0
H779 H 0.13129 0.63273 0.57687 0.0
H780 H 0.14405 0.7043 0.66069 0.0
H781 H 0.11828 0.73103 0.66986 0.0
H782 H 0.14668 0.73939 0.64552 0.0
H783 H 0.1095 0.75589 0.60852 0.0
H784 H 0.08096 0.74672 0.63223 0.0
H785 H 0.0823 0.73152 0.59711 0.0
H786 H 0.0912 0.62076 0.61004 0.0
H787 H 0.05217 0.61856 0.64502 0.0
H788 H 0.06737 0.70672 0.66719 0.0
C789 C 0.14929 0.71319 0.58552 0.0
C790 C 0.16142 0.69741 0.56326 0.0
C791 C 0.15593 0.66808 0.5608 0.0
C792 C 0.13685 0.65485 0.57956 0.0
C793 C 0.1241 0.67137 0.60063 0.0
C794 C 0.13067 0.69974 0.60416 0.0
C795 C 0.11289 0.71328 0.6272 0.0
C796 C 0.13159 0.72253 0.65231 0.0
C797 C 0.09538 0.73831 0.61554 0.0
C798 C 0.0942 0.68845 0.63515 0.0
C799 C 0.10112 0.66443 0.61978 0.0
C800 C 0.08593 0.63925 0.62259 0.0
C801 C 0.06363 0.63832 0.6423 0.0
C802 C 0.05674 0.66246 0.65882 0.0
C803 C 0.07205 0.68792 0.65485 0.0
H804 H 0.9222 0.67103 0.69007 0.0
H805 H 0.93872 0.64533 0.77684 0.0
H806 H 0.89392 0.61825 0.77773 0.0
H807 H 0.83965 0.66886 0.69431 0.0
H808 H 0.83806 0.65429 0.65895 0.0
H809 H 0.86562 0.67922 0.66806 0.0
H810 H 0.90321 0.64285 0.65127 0.0
H811 H 0.87599 0.61754 0.64298 0.0
H812 H 0.90402 0.60799 0.66723 0.0
H813 H 0.8543 0.586 0.76619 0.0
H814 H 0.82098 0.55245 0.74353 0.0
H815 H 0.83203 0.5962 0.66297 0.0
C816 C 0.91529 0.66116 0.70973 0.0
C817 C 0.93314 0.66088 0.73372 0.0
C818 C 0.92469 0.64636 0.75864 0.0
C819 C 0.89935 0.63088 0.75926 0.0
C820 C 0.88297 0.62994 0.73464 0.0
C821 C 0.89031 0.64504 0.71038 0.0
C822 C 0.87192 0.6365 0.68537 0.0
C823 C 0.85267 0.66119 0.67614 0.0
C824 C 0.88987 0.62556 0.66027 0.0
C825 C 0.85472 0.61292 0.69886 0.0
C826 C 0.86074 0.61007 0.72747 0.0
C827 C 0.84886 0.58846 0.74397 0.0
C828 C 0.83013 0.56942 0.73093 0.0
C829 C 0.82406 0.57181 0.70158 0.0
C830 C 0.83638 0.59392 0.68547 0.0
H831 H 0.56691 0.32709 0.18683 0.0
H832 H 0.54575 0.35217 0.2726 0.0
H833 H 0.59028 0.37963 0.2757 0.0
H834 H 0.6494 0.3321 0.19332 0.0
H835 H 0.6512 0.34742 0.15819 0.0
H836 H 0.62465 0.32103 0.16635 0.0
H837 H 0.58556 0.35566 0.14927 0.0
H838 H 0.61168 0.38224 0.14158 0.0
H839 H 0.5828 0.39024 0.16545 0.0
H840 H 0.6293 0.41309 0.26567 0.0
H841 H 0.6588 0.45036 0.24306 0.0
H842 H 0.6517 0.4069 0.16219 0.0
C843 C 0.57278 0.33695 0.20676 0.0
C844 C 0.55376 0.33711 0.22976 0.0
C845 C 0.56071 0.35148 0.2551 0.0
C846 C 0.58593 0.36702 0.257 0.0
C847 C 0.60361 0.36816 0.23322 0.0
C848 C 0.59746 0.35327 0.20855 0.0
C849 C 0.61585 0.36305 0.18401 0.0
C850 C 0.63651 0.3395 0.17495 0.0
C851 C 0.59788 0.37342 0.15863 0.0
C852 C 0.63138 0.38728 0.19806 0.0
C853 C 0.62505 0.38914 0.22669 0.0
C854 C 0.63486 0.41154 0.24339 0.0
C855 C 0.65125 0.43276 0.23036 0.0
C856 C 0.65684 0.43172 0.20084 0.0
C857 C 0.64731 0.4084 0.18475 0.0
H858 H 0.42593 0.87313 0.2491 0.0
H859 H 0.43111 0.82456 0.3274 0.0
H860 H 0.38767 0.84835 0.34501 0.0
H861 H 0.40535 0.93688 0.27669 0.0
H862 H 0.38055 0.94607 0.24899 0.0
H863 H 0.40972 0.92273 0.24135 0.0
H864 H 0.37471 0.88439 0.22326 0.0
H865 H 0.34531 0.90771 0.23074 0.0
H866 H 0.34622 0.87259 0.24601 0.0
H867 H 0.34857 0.88211 0.35651 0.0
H868 H 0.31532 0.92226 0.3608 0.0
H869 H 0.33324 0.94711 0.27377 0.0
C870 C 0.41779 0.86741 0.2699 0.0
C871 C 0.43203 0.84747 0.28718 0.0
C872 C 0.42055 0.84001 0.314 0.0
C873 C 0.39585 0.85325 0.32404 0.0
C874 C 0.38256 0.87324 0.30663 0.0
C875 C 0.39285 0.87992 0.27992 0.0
C876 C 0.37534 0.90298 0.26591 0.0
C877 C 0.39385 0.92868 0.25778 0.0
C878 C 0.35945 0.89121 0.23994 0.0
C879 C 0.35496 0.90994 0.28981 0.0
C880 C 0.35915 0.89207 0.31288 0.0
C881 C 0.34476 0.89586 0.33844 0.0
C882 C 0.32613 0.91885 0.34074 0.0
C883 C 0.32193 0.93768 0.3176 0.0
C884 C 0.33589 0.93273 0.29157 0.0
H885 H 0.1827 0.06955 0.78747 0.0
H886 H 0.13893 0.01949 0.85168 0.0
H887 H 0.10054 0.05477 0.85314 0.0
H888 H 0.16443 0.13837 0.81589 0.0
H889 H 0.15902 0.15478 0.78166 0.0
H890 H 0.18375 0.12582 0.78529 0.0
H891 H 0.15727 0.09747 0.74627 0.0
H892 H 0.13306 0.12671 0.74201 0.0
H893 H 0.11959 0.0917 0.7497 0.0
H894 H 0.06673 0.09405 0.84758 0.0
H895 H 0.03594 0.13282 0.83047 0.0
H896 H 0.10113 0.15894 0.7708 0.0
C897 C 0.16486 0.0659 0.80156 0.0
C898 C 0.16382 0.04181 0.81954 0.0
C899 C 0.14023 0.03785 0.83783 0.0
C900 C 0.1184 0.05786 0.83897 0.0
C901 C 0.12048 0.08181 0.82177 0.0
C902 C 0.14279 0.08582 0.80307 0.0
C903 C 0.13906 0.11306 0.78621 0.0
C904 C 0.16299 0.13426 0.79266 0.0
C905 C 0.13712 0.10685 0.75415 0.0
C906 C 0.11092 0.12333 0.79805 0.0
C907 C 0.10086 0.10509 0.81883 0.0
C908 C 0.07447 0.10875 0.83163 0.0
C909 C 0.05724 0.13089 0.82198 0.0
C910 C 0.06659 0.14907 0.79993 0.0
C911 C 0.09408 0.14589 0.78845 0.0
H912 H 0.70064 0.95346 0.61358 0.0
H913 H 0.73466 0.90434 0.68379 0.0
H914 H 0.7282 0.8604 0.65639 0.0
H915 H 0.64769 0.90046 0.59086 0.0
H916 H 0.65293 0.90843 0.5537 0.0
H917 H 0.65809 0.93569 0.57999 0.0
H918 H 0.70887 0.94422 0.56058 0.0
H919 H 0.70416 0.91657 0.53464 0.0
H920 H 0.73354 0.91502 0.55909 0.0
H921 H 0.72301 0.82257 0.61956 0.0
H922 H 0.71307 0.79221 0.57802 0.0
H923 H 0.68092 0.86541 0.53203 0.0
C924 C 0.70626 0.93341 0.62338 0.0
C925 C 0.71815 0.93232 0.65094 0.0
C926 C 0.7253 0.90567 0.66291 0.0
C927 C 0.72188 0.88059 0.6474 0.0
C928 C 0.71104 0.88249 0.61996 0.0
C929 C 0.70281 0.90812 0.60821 0.0
C930 C 0.69231 0.9043 0.57803 0.0
C931 C 0.66088 0.91271 0.57551 0.0
C932 C 0.71083 0.92102 0.55684 0.0
C933 C 0.69632 0.87261 0.57455 0.0
C934 C 0.70738 0.86049 0.59891 0.0
C935 C 0.71406 0.83173 0.60045 0.0
C936 C 0.70863 0.81473 0.57665 0.0
C937 C 0.69632 0.82653 0.55183 0.0
C938 C 0.6903 0.85587 0.55077 0.0
H939 H 0.83569 0.14154 0.05044 0.0
H940 H 0.76536 0.19931 0.06449 0.0
H941 H 0.75051 0.17085 0.10627 0.0
H942 H 0.79931 0.07855 0.06628 0.0
H943 H 0.8291 0.06179 0.0835 0.0
H944 H 0.83505 0.08819 0.05648 0.0
H945 H 0.86578 0.11698 0.09193 0.0
H946 H 0.85941 0.09082 0.11924 0.0
H947 H 0.85085 0.12754 0.12559 0.0
H948 H 0.74284 0.13508 0.14607 0.0
H949 H 0.7389 0.09159 0.17554 0.0
H950 H 0.81324 0.05694 0.13381 0.0
C951 C 0.81717 0.14829 0.06228 0.0
C952 C 0.80166 0.17264 0.05415 0.0
C953 C 0.77749 0.18064 0.07021 0.0
C954 C 0.76909 0.16479 0.09416 0.0
C955 C 0.78511 0.14108 0.10178 0.0
C956 C 0.80848 0.13273 0.08608 0.0
C957 C 0.82105 0.10544 0.09745 0.0
C958 C 0.8211 0.08212 0.07457 0.0
C959 C 0.85105 0.11051 0.10925 0.0
C960 C 0.80029 0.09892 0.12113 0.0
C961 C 0.78025 0.12017 0.12398 0.0
C962 C 0.75849 0.11839 0.14407 0.0
C963 C 0.75649 0.09371 0.16081 0.0
C964 C 0.77574 0.07102 0.15677 0.0
C965 C 0.79831 0.07406 0.13728 0.0
H966 H 0.18756 0.63412 0.46607 0.0
H967 H 0.20985 0.70801 0.41563 0.0
H968 H 0.21963 0.67703 0.37427 0.0
H969 H 0.24224 0.58758 0.43497 0.0
H970 H 0.21969 0.55675 0.43725 0.0
H971 H 0.21598 0.58496 0.46278 0.0
H972 H 0.16261 0.5891 0.44993 0.0
H973 H 0.16631 0.56133 0.42398 0.0
H974 H 0.15251 0.59547 0.41349 0.0
H975 H 0.22446 0.63771 0.33779 0.0
H976 H 0.22805 0.59303 0.31052 0.0
H977 H 0.20281 0.54547 0.38558 0.0
C978 C 0.195 0.64366 0.44645 0.0
C979 C 0.19825 0.67327 0.44397 0.0
C980 C 0.20781 0.68521 0.418 0.0
C981 C 0.21315 0.66784 0.39437 0.0
C982 C 0.20922 0.63866 0.39735 0.0
C983 C 0.20088 0.62664 0.42291 0.0
C984 C 0.19848 0.59474 0.42073 0.0
C985 C 0.2204 0.58015 0.44008 0.0
C986 C 0.16817 0.58458 0.42742 0.0
C987 C 0.20579 0.59071 0.38971 0.0
C988 C 0.21208 0.61622 0.37656 0.0
C989 C 0.21971 0.61761 0.34793 0.0
C990 C 0.22156 0.59217 0.33258 0.0
C991 C 0.21564 0.5658 0.34587 0.0
C992 C 0.20734 0.56527 0.37472 0.0
H993 H 0.28922 0.34393 0.95824 0.0
H994 H 0.36981 0.3136 0.92568 0.0
H995 H 0.36707 0.34805 0.88605 0.0
H996 H 0.25511 0.35622 0.89265 0.0
H997 H 0.23796 0.38862 0.90354 0.0
H998 H 0.24648 0.36189 0.92958 0.0
H999 H 0.27513 0.39887 0.95857 0.0
H1000 H 0.26649 0.42576 0.93269 0.0
H1001 H 0.30305 0.41868 0.94135 0.0
H1002 H 0.35299 0.38275 0.84738 0.0
H1003 H 0.33189 0.42017 0.8167 0.0
H1004 H 0.26307 0.42994 0.87732 0.0
C1005 C 0.30637 0.34484 0.9429 0.0
C1006 C 0.3297 0.32634 0.94488 0.0
C1007 C 0.35189 0.32796 0.92458 0.0
C1008 C 0.35042 0.34722 0.90189 0.0
C1009 C 0.32691 0.365 0.90025 0.0
C1010 C 0.30561 0.36443 0.92056 0.0
C1011 C 0.2831 0.38638 0.91442 0.0
C1012 C 0.25395 0.37243 0.90976 0.0
C1013 C 0.28189 0.40875 0.93817 0.0
C1014 C 0.29471 0.39885 0.88716 0.0
C1015 C 0.31983 0.38612 0.87908 0.0
C1016 C 0.3336 0.39329 0.85374 0.0
C1017 C 0.32149 0.4144 0.83645 0.0
C1018 C 0.29623 0.4282 0.84497 0.0
C1019 C 0.28278 0.42018 0.87059 0.0
H1020 H 0.56798 0.71085 0.83154 0.0
H1021 H 0.5275 0.63602 0.8674 0.0
H1022 H 0.56501 0.63313 0.90386 0.0
H1023 H 0.63946 0.6878 0.84092 0.0
H1024 H 0.6529 0.72235 0.85036 0.0
H1025 H 0.62254 0.71934 0.82731 0.0
H1026 H 0.59264 0.75072 0.86129 0.0
H1027 H 0.62326 0.75461 0.88374 0.0
H1028 H 0.59045 0.74141 0.89845 0.0
H1029 H 0.60676 0.63834 0.93643 0.0
H1030 H 0.6463 0.65545 0.96658 0.0
H1031 H 0.66041 0.72535 0.90835 0.0
C1032 C 0.56671 0.69411 0.84732 0.0
C1033 C 0.5448 0.67362 0.8466 0.0
C1034 C 0.54408 0.65195 0.86754 0.0
C1035 C 0.56542 0.64998 0.88817 0.0
C1036 C 0.58736 0.66977 0.88751 0.0
C1037 C 0.58792 0.6917 0.86793 0.0
C1038 C 0.61354 0.71059 0.87222 0.0
C1039 C 0.63327 0.70996 0.84614 0.0
C1040 C 0.60442 0.74113 0.87936 0.0
C1041 C 0.62709 0.69604 0.89751 0.0
C1042 C 0.61185 0.67233 0.90583 0.0
C1043 C 0.61914 0.65658 0.92989 0.0
C1044 C 0.64177 0.66616 0.94668 0.0
C1045 C 0.65673 0.691 0.93904 0.0
C1046 C 0.64988 0.7056 0.91381 0.0
H1047 H 0.06374 0.7788 0.17366 0.0
H1048 H 0.04335 0.86598 0.15143 0.0
H1049 H 0.08059 0.86558 0.11469 0.0
H1050 H 0.13947 0.78415 0.16329 0.0
H1051 H 0.14294 0.74936 0.14783 0.0
H1052 H 0.11508 0.75631 0.17317 0.0
H1053 H 0.07725 0.73953 0.13689 0.0
H1054 H 0.10505 0.73199 0.11174 0.0
H1055 H 0.07639 0.75536 0.10194 0.0
H1056 H 0.12078 0.85619 0.08062 0.0
H1057 H 0.15632 0.83568 0.04742 0.0
H1058 H 0.14911 0.75463 0.09048 0.0
C1059 C 0.067 0.79773 0.16095 0.0
C1060 C 0.05065 0.82244 0.16556 0.0
C1061 C 0.05557 0.84676 0.14838 0.0
C1062 C 0.07684 0.84685 0.12755 0.0
C1063 C 0.093 0.82242 0.12396 0.0
C1064 C 0.08805 0.79815 0.13985 0.0
C1065 C 0.10759 0.77431 0.13082 0.0
C1066 C 0.12744 0.76553 0.15524 0.0
C1067 C 0.09055 0.7488 0.11968 0.0
C1068 C 0.12392 0.78888 0.10717 0.0
C1069 C 0.11563 0.81681 0.10388 0.0
C1070 C 0.12754 0.83437 0.08304 0.0
C1071 C 0.14782 0.82272 0.06449 0.0
C1072 C 0.15546 0.79383 0.06685 0.0
C1073 C 0.14374 0.77692 0.08867 0.0
H1074 H 0.43115 0.2227 0.67095 0.0
H1075 H 0.4672 0.14391 0.63947 0.0
H1076 H 0.42955 0.14097 0.60346 0.0
H1077 H 0.35884 0.20456 0.66315 0.0
H1078 H 0.34763 0.23901 0.65072 0.0
H1079 H 0.37798 0.23594 0.67375 0.0
H1080 H 0.40945 0.26229 0.63685 0.0
H1081 H 0.37893 0.26622 0.6142 0.0
H1082 H 0.41068 0.24967 0.6007 0.0
H1083 H 0.38778 0.14579 0.57145 0.0
H1084 H 0.34807 0.16222 0.54105 0.0
H1085 H 0.33854 0.23684 0.59375 0.0
C1086 C 0.43146 0.20515 0.65612 0.0
C1087 C 0.45204 0.18348 0.65814 0.0
C1088 C 0.45162 0.16077 0.63839 0.0
C1089 C 0.43019 0.15874 0.61798 0.0
C1090 C 0.40947 0.17971 0.61742 0.0
C1091 C 0.41024 0.20282 0.63549 0.0
C1092 C 0.38582 0.22285 0.62975 0.0
C1093 C 0.36643 0.22574 0.65591 0.0
C1094 C 0.39688 0.25198 0.61977 0.0
C1095 C 0.37108 0.20718 0.60592 0.0
C1096 C 0.38501 0.18227 0.59919 0.0
C1097 C 0.37645 0.16507 0.57668 0.0
C1098 C 0.35378 0.1743 0.55977 0.0
C1099 C 0.33995 0.20014 0.5659 0.0
C1100 C 0.3482 0.2164 0.58956 0.0
H1101 H 0.83459 0.32098 0.42635 0.0
H1102 H 0.8427 0.23035 0.43896 0.0
H1103 H 0.87427 0.22733 0.39685 0.0
H1104 H 0.83888 0.32045 0.34635 0.0
H1105 H 0.85924 0.35284 0.34593 0.0
H1106 H 0.83345 0.34672 0.37363 0.0
H1107 H 0.87246 0.35496 0.41147 0.0
H1108 H 0.89848 0.36053 0.38401 0.0
H1109 H 0.90419 0.3336 0.41071 0.0
H1110 H 0.90848 0.23524 0.35603 0.0
H1111 H 0.94274 0.25349 0.32028 0.0
H1112 H 0.91381 0.33931 0.33681 0.0
C1113 C 0.84221 0.30042 0.41945 0.0
C1114 C 0.83566 0.27572 0.435 0.0
C1115 C 0.84682 0.24926 0.42646 0.0
C1116 C 0.86486 0.24743 0.40275 0.0
C1117 C 0.87141 0.27231 0.38799 0.0
C1118 C 0.86023 0.2983 0.3959 0.0
C1119 C 0.87268 0.32223 0.37836 0.0
C1120 C 0.84969 0.33639 0.35998 0.0
C1121 C 0.88786 0.3441 0.39727 0.0
C1122 C 0.89347 0.30583 0.36022 0.0
C1123 C 0.89204 0.27701 0.36557 0.0
C1124 C 0.90963 0.25775 0.35151 0.0
C1125 C 0.92905 0.26827 0.33136 0.0
C1126 C 0.93105 0.29777 0.32599 0.0
C1127 C 0.91297 0.31664 0.34064 0.0
H1128 H 0.13843 0.07883 0.28435 0.0
H1129 H 0.22187 0.11789 0.28437 0.0
H1130 H 0.19982 0.16525 0.28457 0.0
H1131 H 0.10411 0.12584 0.23933 0.0
H1132 H 0.07107 0.12744 0.25866 0.0
H1133 H 0.09308 0.09635 0.26126 0.0
H1134 H 0.09438 0.10127 0.31609 0.0
H1135 H 0.0721 0.1323 0.31372 0.0
H1136 H 0.10579 0.13426 0.33168 0.0
H1137 H 0.16939 0.20799 0.28039 0.0
H1138 H 0.13223 0.2441 0.27448 0.0
H1139 H 0.06762 0.17839 0.27814 0.0
C1140 C 0.15196 0.0974 0.28494 0.0
C1141 C 0.18184 0.09468 0.28452 0.0
C1142 C 0.19894 0.11942 0.28515 0.0
C1143 C 0.18662 0.14645 0.28514 0.0
C1144 C 0.15714 0.14845 0.28512 0.0
C1145 C 0.13997 0.12467 0.28555 0.0
C1146 C 0.10883 0.13299 0.28513 0.0
C1147 C 0.09338 0.11988 0.25956 0.0
C1148 C 0.09442 0.12471 0.31332 0.0
C1149 C 0.11128 0.16501 0.28238 0.0
C1150 C 0.13938 0.17341 0.28301 0.0
C1151 C 0.14729 0.20173 0.28029 0.0
C1152 C 0.12594 0.22211 0.27692 0.0
C1153 C 0.09693 0.21415 0.27597 0.0
C1154 C 0.08957 0.18515 0.27884 0.0
H1155 H 0.32086 0.89678 0.82078 0.0
H1156 H 0.30616 0.90955 0.73041 0.0
H1157 H 0.33855 0.8702 0.71955 0.0
H1158 H 0.39681 0.87687 0.81328 0.0
H1159 H 0.39485 0.85097 0.84149 0.0
H1160 H 0.37236 0.88191 0.84235 0.0
H1161 H 0.32816 0.84947 0.84655 0.0
H1162 H 0.35041 0.81844 0.84537 0.0
H1163 H 0.32205 0.8226 0.82 0.0
H1164 H 0.36992 0.82842 0.71802 0.0
H1165 H 0.39985 0.7863 0.72605 0.0
H1166 H 0.39391 0.79866 0.81721 0.0
C1167 C 0.32486 0.89161 0.79871 0.0
C1168 C 0.31099 0.90634 0.77647 0.0
C1169 C 0.3166 0.89874 0.74785 0.0
C1170 C 0.33497 0.87637 0.74142 0.0
C1171 C 0.3478 0.86193 0.76378 0.0
C1172 C 0.34328 0.86929 0.79185 0.0
C1173 C 0.35916 0.8495 0.81176 0.0
C1174 C 0.38216 0.86579 0.82819 0.0
C1175 C 0.33871 0.83409 0.83211 0.0
C1176 C 0.37233 0.82924 0.79048 0.0
C1177 C 0.36584 0.83724 0.76292 0.0
C1178 C 0.37545 0.82211 0.73945 0.0
C1179 C 0.39246 0.7983 0.7442 0.0
C1180 C 0.39932 0.78961 0.77217 0.0
C1181 C 0.38895 0.80507 0.79564 0.0
H1182 H 0.65529 0.40205 0.68546 0.0
H1183 H 0.7126 0.38296 0.75526 0.0
H1184 H 0.68609 0.33943 0.76565 0.0
H1185 H 0.59099 0.37549 0.71771 0.0
H1186 H 0.5775 0.35948 0.68567 0.0
H1187 H 0.60048 0.38997 0.68345 0.0
H1188 H 0.63479 0.36211 0.65079 0.0
H1189 H 0.61191 0.33151 0.65284 0.0
H1190 H 0.64875 0.32848 0.66263 0.0
H1191 H 0.65532 0.29821 0.76863 0.0
H1192 H 0.6206 0.25948 0.76356 0.0
H1193 H 0.58173 0.30343 0.69238 0.0
C1194 C 0.6621 0.38861 0.70288 0.0
C1195 C 0.68605 0.39574 0.71945 0.0
C1196 C 0.69456 0.3777 0.74202 0.0
C1197 C 0.67956 0.35299 0.74825 0.0
C1198 C 0.65624 0.34638 0.73153 0.0
C1199 C 0.64752 0.36338 0.70919 0.0
C1200 C 0.62223 0.35029 0.69413 0.0
C1201 C 0.59626 0.36999 0.69533 0.0
C1202 C 0.62988 0.34265 0.66327 0.0
C1203 C 0.61787 0.32376 0.71206 0.0
C1204 C 0.63802 0.32201 0.73331 0.0
C1205 C 0.63941 0.29921 0.75209 0.0
C1206 C 0.61976 0.27732 0.74897 0.0
C1207 C 0.59885 0.27861 0.72752 0.0
C1208 C 0.5976 0.3022 0.70897 0.0
H1209 H 0.84743 0.5926 0.18307 0.0
H1210 H 0.78139 0.61382 0.24388 0.0
H1211 H 0.80626 0.65809 0.25579 0.0
H1212 H 0.90695 0.62062 0.22159 0.0
H1213 H 0.92419 0.63525 0.19058 0.0
H1214 H 0.90158 0.60462 0.18721 0.0
H1215 H 0.8716 0.63106 0.14938 0.0
H1216 H 0.89397 0.6619 0.15274 0.0
H1217 H 0.8562 0.66499 0.15795 0.0
H1218 H 0.83658 0.69992 0.26042 0.0
H1219 H 0.87242 0.73801 0.25837 0.0
H1220 H 0.91968 0.69076 0.19491 0.0
C1221 C 0.83839 0.60669 0.19883 0.0
C1222 C 0.8125 0.60023 0.21234 0.0
C1223 C 0.80101 0.61888 0.23292 0.0
C1224 C 0.81502 0.64392 0.23996 0.0
C1225 C 0.84027 0.65006 0.22598 0.0
C1226 C 0.8519 0.63218 0.2058 0.0
C1227 C 0.8788 0.64467 0.19333 0.0
C1228 C 0.90439 0.62512 0.19851 0.0
C1229 C 0.87491 0.65103 0.16146 0.0
C1230 C 0.88087 0.67182 0.21042 0.0
C1231 C 0.85813 0.67456 0.2288 0.0
C1232 C 0.85454 0.69813 0.24617 0.0
C1233 C 0.87484 0.71964 0.24474 0.0
C1234 C 0.89851 0.7171 0.22644 0.0
C1235 C 0.90172 0.69291 0.20915 0.0
H1236 H 0.31262 0.07825 0.18108 0.0
H1237 H 0.23403 0.10256 0.22259 0.0
H1238 H 0.22716 0.14076 0.18736 0.0
H1239 H 0.33609 0.14801 0.16062 0.0
H1240 H 0.34912 0.13748 0.12617 0.0
H1241 H 0.34864 0.1123 0.15506 0.0
H1242 H 0.31876 0.07762 0.12462 0.0
H1243 H 0.31929 0.10264 0.09558 0.0
H1244 H 0.28591 0.08971 0.10918 0.0
H1245 H 0.22945 0.17691 0.14985 0.0
H1246 H 0.23777 0.20697 0.10804 0.0
H1247 H 0.31314 0.15792 0.08733 0.0
C1248 C 0.29404 0.09168 0.18255 0.0
C1249 C 0.2738 0.08767 0.20433 0.0
C1250 C 0.24957 0.10532 0.20577 0.0
C1251 C 0.24558 0.1271 0.18602 0.0
C1252 C 0.2658 0.13059 0.16473 0.0
C1253 C 0.2893 0.11319 0.16245 0.0
C1254 C 0.30691 0.12097 0.13652 0.0
C1255 C 0.33697 0.13025 0.14512 0.0
C1256 C 0.30775 0.09627 0.11521 0.0
C1257 C 0.28983 0.14574 0.12501 0.0
C1258 C 0.26639 0.15096 0.14189 0.0
C1259 C 0.2476 0.17297 0.13629 0.0
C1260 C 0.25264 0.19001 0.11251 0.0
C1261 C 0.2761 0.18474 0.09433 0.0
C1262 C 0.29499 0.16234 0.10076 0.0
H1263 H 0.22731 0.86456 0.71339 0.0
H1264 H 0.19628 0.94327 0.6767 0.0
H1265 H 0.18855 0.91871 0.63087 0.0
H1266 H 0.26621 0.84331 0.65339 0.0
H1267 H 0.25914 0.80597 0.65782 0.0
H1268 H 0.25937 0.82897 0.68831 0.0
H1269 H 0.20843 0.81255 0.70132 0.0
H1270 H 0.20805 0.78951 0.67079 0.0
H1271 H 0.1805 0.81565 0.67533 0.0
H1272 H 0.18875 0.88674 0.58803 0.0
H1273 H 0.19664 0.84987 0.55161 0.0
H1274 H 0.22671 0.79191 0.61648 0.0
C1275 C 0.2183 0.87657 0.69593 0.0
C1276 C 0.21212 0.90582 0.6987 0.0
C1277 C 0.20101 0.92084 0.67511 0.0
C1278 C 0.19651 0.90704 0.64904 0.0
C1279 C 0.20325 0.87827 0.64696 0.0
C1280 C 0.21389 0.86321 0.66981 0.0
C1281 C 0.22146 0.83307 0.66155 0.0
C1282 C 0.25343 0.82752 0.6655 0.0
C1283 C 0.20352 0.81142 0.67824 0.0
C1284 C 0.21347 0.83349 0.63041 0.0
C1285 C 0.20303 0.85976 0.62239 0.0
C1286 C 0.19641 0.86596 0.59418 0.0
C1287 C 0.20098 0.84493 0.57361 0.0
C1288 C 0.2117 0.81802 0.58145 0.0
C1289 C 0.21763 0.8121 0.61021 0.0
H1290 H 0.77691 0.42075 0.81873 0.0
H1291 H 0.81049 0.36229 0.75588 0.0
H1292 H 0.81618 0.3258 0.79309 0.0
H1293 H 0.82168 0.39588 0.8792 0.0
H1294 H 0.79317 0.40029 0.9044 0.0
H1295 H 0.79541 0.42313 0.87365 0.0
H1296 H 0.74423 0.4089 0.85943 0.0
H1297 H 0.74189 0.38599 0.88999 0.0
H1298 H 0.73562 0.37188 0.85495 0.0
H1299 H 0.81468 0.29449 0.83593 0.0
H1300 H 0.80442 0.26989 0.88106 0.0
H1301 H 0.77025 0.34801 0.91598 0.0
C1302 C 0.78626 0.40058 0.81294 0.0
C1303 C 0.79362 0.39454 0.78444 0.0
C1304 C 0.80503 0.36757 0.77762 0.0
C1305 C 0.80835 0.34667 0.79861 0.0
C1306 C 0.8003 0.3531 0.82637 0.0
C1307 C 0.78957 0.37941 0.83362 0.0
C1308 C 0.78044 0.3801 0.86453 0.0
C1309 C 0.79877 0.4011 0.88145 0.0
C1310 C 0.74866 0.38712 0.86737 0.0
C1311 C 0.78665 0.34974 0.87319 0.0
C1312 C 0.79868 0.33473 0.85101 0.0
C1313 C 0.80558 0.3061 0.85355 0.0
C1314 C 0.79973 0.29233 0.87933 0.0
C1315 C 0.78665 0.30708 0.90209 0.0
C1316 C 0.78037 0.33624 0.89901 0.0
H1317 H 0.71416 0.57696 0.30966 0.0
H1318 H 0.71469 0.64411 0.2461 0.0
H1319 H 0.71232 0.67986 0.28385 0.0
H1320 H 0.66504 0.61523 0.35944 0.0
H1321 H 0.68282 0.60178 0.39058 0.0
H1322 H 0.68176 0.58084 0.35853 0.0
H1323 H 0.73666 0.57749 0.35891 0.0
H1324 H 0.73782 0.59846 0.39081 0.0
H1325 H 0.75744 0.60964 0.35978 0.0
H1326 H 0.71268 0.7085 0.32732 0.0
H1327 H 0.71682 0.72895 0.37518 0.0
H1328 H 0.7172 0.6443 0.41194 0.0
C1329 C 0.71323 0.59917 0.30374 0.0
C1330 C 0.71437 0.60766 0.27487 0.0
C1331 C 0.71343 0.63696 0.26798 0.0
C1332 C 0.71212 0.65752 0.28929 0.0
C1333 C 0.71132 0.64852 0.31745 0.0
C1334 C 0.71161 0.62012 0.32485 0.0
C1335 C 0.71152 0.61656 0.35697 0.0
C1336 C 0.68363 0.60278 0.36697 0.0
C1337 C 0.73742 0.59954 0.3672 0.0
C1338 C 0.71303 0.64736 0.36623 0.0
C1339 C 0.71205 0.66534 0.34299 0.0
C1340 C 0.71314 0.6947 0.34575 0.0
C1341 C 0.7154 0.7061 0.37303 0.0
C1342 C 0.71714 0.68816 0.39718 0.0
C1343 C 0.71586 0.6584 0.39376 0.0
H1344 H 0.18486 0.24533 0.08767 0.0
H1345 H 0.20505 0.33474 0.09509 0.0
H1346 H 0.16608 0.34048 0.13021 0.0
H1347 H 0.10973 0.2486 0.09464 0.0
H1348 H 0.1073 0.21736 0.11675 0.0
H1349 H 0.13595 0.22089 0.09163 0.0
H1350 H 0.17246 0.21363 0.13222 0.0
H1351 H 0.14386 0.21002 0.15744 0.0
H1352 H 0.17108 0.23629 0.16301 0.0
H1353 H 0.12436 0.33591 0.16471 0.0
H1354 H 0.08492 0.32125 0.19642 0.0
H1355 H 0.09418 0.23441 0.16719 0.0
C1356 C 0.18064 0.26624 0.09624 0.0
C1357 C 0.19726 0.28983 0.08811 0.0
C1358 C 0.19208 0.31658 0.10071 0.0
C1359 C 0.17011 0.31997 0.12071 0.0
C1360 C 0.15408 0.29622 0.12833 0.0
C1361 C 0.15938 0.2698 0.11671 0.0
C1362 C 0.1404 0.24729 0.12964 0.0
C1363 C 0.12226 0.2327 0.10679 0.0
C1364 C 0.158 0.22553 0.14657 0.0
C1365 C 0.12251 0.26536 0.14927 0.0
C1366 C 0.1309 0.29347 0.14858 0.0
C1367 C 0.11762 0.31396 0.16536 0.0
C1368 C 0.0952 0.30546 0.18324 0.0
C1369 C 0.08623 0.27675 0.18407 0.0
C1370 C 0.10022 0.25659 0.16683 0.0
H1371 H 0.68947 0.25109 0.9094 0.0
H1372 H 0.71542 0.16465 0.89131 0.0
H1373 H 0.67394 0.15881 0.85977 0.0
H1374 H 0.61299 0.24035 0.90788 0.0
H1375 H 0.6061 0.2734 0.88977 0.0
H1376 H 0.6365 0.27016 0.91274 0.0
H1377 H 0.66945 0.28581 0.87134 0.0
H1378 H 0.63913 0.28914 0.84832 0.0
H1379 H 0.66839 0.26671 0.83818 0.0
H1380 H 0.63088 0.16277 0.82914 0.0
H1381 H 0.59023 0.17696 0.79942 0.0
H1382 H 0.59316 0.26155 0.8359 0.0
C1383 C 0.68604 0.23077 0.89924 0.0
C1384 C 0.70529 0.2081 0.9031 0.0
C1385 C 0.70072 0.18214 0.88876 0.0
C1386 C 0.67723 0.17863 0.87088 0.0
C1387 C 0.65876 0.20143 0.8673 0.0
C1388 C 0.66299 0.22709 0.88086 0.0
C1389 C 0.64114 0.24884 0.87165 0.0
C1390 C 0.62312 0.25876 0.89703 0.0
C1391 C 0.65538 0.27411 0.85648 0.0
C1392 C 0.6238 0.23127 0.85109 0.0
C1393 C 0.63429 0.20397 0.84898 0.0
C1394 C 0.62236 0.18404 0.83073 0.0
C1395 C 0.59924 0.19231 0.81396 0.0
C1396 C 0.58839 0.22032 0.81546 0.0
C1397 C 0.60076 0.23991 0.83448 0.0
H1398 H 0.81257 0.74382 0.41243 0.0
H1399 H 0.77825 0.82455 0.38442 0.0
H1400 H 0.81948 0.83127 0.35259 0.0
H1401 H 0.88828 0.76261 0.40899 0.0
H1402 H 0.8986 0.72855 0.39499 0.0
H1403 H 0.868 0.73134 0.41785 0.0
H1404 H 0.83698 0.70752 0.3792 0.0
H1405 H 0.86747 0.7047 0.35628 0.0
H1406 H 0.836 0.72258 0.34392 0.0
H1407 H 0.8633 0.8285 0.32233 0.0
H1408 H 0.90515 0.81515 0.29374 0.0
H1409 H 0.91012 0.73501 0.33929 0.0
C1410 C 0.81417 0.76321 0.40011 0.0
C1411 C 0.79251 0.78398 0.40128 0.0
C1412 C 0.79477 0.80857 0.38407 0.0
C1413 C 0.81812 0.81258 0.36595 0.0
C1414 C 0.83894 0.7916 0.36495 0.0
C1415 C 0.83713 0.76729 0.38141 0.0
C1416 C 0.86121 0.74702 0.3745 0.0
C1417 C 0.88014 0.7421 0.40064 0.0
C1418 C 0.84972 0.71879 0.36278 0.0
C1419 C 0.87677 0.76374 0.35165 0.0
C1420 C 0.86371 0.78952 0.34669 0.0
C1421 C 0.87381 0.80843 0.32616 0.0
C1422 C 0.89769 0.80068 0.31007 0.0
C1423 C 0.91112 0.7741 0.31433 0.0
C1424 C 0.90053 0.75557 0.33562 0.0
H1425 H 0.39331 0.76105 0.66493 0.0
H1426 H 0.39976 0.6732 0.69231 0.0
H1427 H 0.36162 0.66012 0.65883 0.0
H1428 H 0.31754 0.76131 0.6591 0.0
H1429 H 0.31707 0.78462 0.62866 0.0
H1430 H 0.34565 0.78676 0.65394 0.0
H1431 H 0.3821 0.77909 0.61336 0.0
H1432 H 0.35364 0.77679 0.58794 0.0
H1433 H 0.37903 0.74831 0.59086 0.0
H1434 H 0.32177 0.65696 0.62402 0.0
H1435 H 0.28219 0.6639 0.59033 0.0
H1436 H 0.30211 0.75371 0.58513 0.0
C1437 C 0.38694 0.73899 0.66363 0.0
C1438 C 0.39963 0.71805 0.68096 0.0
C1439 C 0.39034 0.68953 0.67912 0.0
C1440 C 0.36876 0.68191 0.66016 0.0
C1441 C 0.35665 0.70309 0.64338 0.0
C1442 C 0.36529 0.73107 0.64502 0.0
C1443 C 0.34794 0.74993 0.62557 0.0
C1444 C 0.33105 0.77194 0.64285 0.0
C1445 C 0.36681 0.76437 0.60309 0.0
C1446 C 0.3285 0.72807 0.61235 0.0
C1447 C 0.33377 0.70123 0.62308 0.0
C1448 C 0.3176 0.67779 0.61523 0.0
C1449 C 0.29521 0.68194 0.59612 0.0
C1450 C 0.28943 0.70922 0.58489 0.0
C1451 C 0.30651 0.7325 0.59289 0.0
H1452 H 0.81178 0.88907 0.70251 0.0
H1453 H 0.86497 0.93762 0.75998 0.0
H1454 H 0.90324 0.90238 0.75406 0.0
H1455 H 0.82897 0.82297 0.72814 0.0
H1456 H 0.82906 0.8051 0.69427 0.0
H1457 H 0.80767 0.83627 0.69921 0.0
H1458 H 0.83227 0.86032 0.65617 0.0
H1459 H 0.85381 0.82912 0.65103 0.0
H1460 H 0.8704 0.8633 0.65545 0.0
H1461 H 0.93411 0.86081 0.74486 0.0
H1462 H 0.95394 0.8132 0.7374 0.0
H1463 H 0.87973 0.7899 0.68803 0.0
C1464 C 0.83171 0.89265 0.71338 0.0
C1465 C 0.83553 0.91624 0.73154 0.0
C1466 C 0.86168 0.91984 0.74581 0.0
C1467 C 0.88358 0.90002 0.74245 0.0
C1468 C 0.87901 0.87685 0.72465 0.0
C1469 C 0.8537 0.873 0.71041 0.0
C1470 C 0.85322 0.84489 0.69479 0.0
C1471 C 0.82827 0.82621 0.70473 0.0
C1472 C 0.85238 0.8497 0.66244 0.0
C1473 C 0.88159 0.8328 0.70388 0.0
C1474 C 0.89649 0.85207 0.72022 0.0
C1475 C 0.92284 0.84565 0.73182 0.0
C1476 C 0.93398 0.81852 0.72732 0.0
C1477 C 0.91844 0.79785 0.71197 0.0
C1478 C 0.89218 0.80535 0.69959 0.0
H1479 H 0.68341 0.11326 0.20547 0.0
H1480 H 0.62292 0.05741 0.24726 0.0
H1481 H 0.58507 0.09277 0.23919 0.0
H1482 H 0.66064 0.17493 0.23574 0.0
H1483 H 0.66592 0.19708 0.20485 0.0
H1484 H 0.68682 0.16553 0.20938 0.0
H1485 H 0.67031 0.14735 0.16017 0.0
H1486 H 0.6492 0.17892 0.15543 0.0
H1487 H 0.63291 0.14441 0.15273 0.0
H1488 H 0.55536 0.13563 0.23103 0.0
H1489 H 0.53683 0.1843 0.22785 0.0
H1490 H 0.61728 0.21287 0.1928 0.0
C1491 C 0.66208 0.10817 0.21244 0.0
C1492 C 0.65603 0.08257 0.2269 0.0
C1493 C 0.62797 0.07688 0.23604 0.0
C1494 C 0.60632 0.09672 0.23135 0.0
C1495 C 0.61311 0.12194 0.21732 0.0
C1496 C 0.64034 0.12772 0.20804 0.0
C1497 C 0.64283 0.15756 0.19633 0.0
C1498 C 0.66537 0.17478 0.21257 0.0
C1499 C 0.64919 0.15702 0.16426 0.0
C1500 C 0.61314 0.16829 0.20208 0.0
C1501 C 0.5961 0.14711 0.21329 0.0
C1502 C 0.56834 0.15229 0.2219 0.0
C1503 C 0.55802 0.18007 0.21997 0.0
C1504 C 0.57566 0.20242 0.2101 0.0
C1505 C 0.60324 0.19619 0.2002 0.0
H1506 H 0.42102 0.69914 0.30435 0.0
H1507 H 0.37161 0.75083 0.24606 0.0
H1508 H 0.33597 0.71285 0.24258 0.0
H1509 H 0.40789 0.63111 0.27364 0.0
H1510 H 0.40317 0.61259 0.30691 0.0
H1511 H 0.42542 0.64364 0.30528 0.0
H1512 H 0.39567 0.66702 0.34525 0.0
H1513 H 0.37337 0.63596 0.34697 0.0
H1514 H 0.35781 0.67039 0.34098 0.0
H1515 H 0.30756 0.67014 0.24247 0.0
H1516 H 0.28367 0.62467 0.24973 0.0
H1517 H 0.34876 0.59955 0.31033 0.0
C1518 C 0.40263 0.70228 0.29093 0.0
C1519 C 0.39888 0.72778 0.27547 0.0
C1520 C 0.3746 0.73151 0.25825 0.0
C1521 C 0.35442 0.71004 0.25591 0.0
C1522 C 0.35861 0.68517 0.27123 0.0
C1523 C 0.38171 0.68118 0.28884 0.0
C1524 C 0.37985 0.65266 0.30392 0.0
C1525 C 0.40562 0.63389 0.297 0.0
C1526 C 0.37648 0.65675 0.33619 0.0
C1527 C 0.3528 0.64096 0.29091 0.0
C1528 C 0.34102 0.66033 0.27225 0.0
C1529 C 0.3163 0.65484 0.25726 0.0
C1530 C 0.3029 0.62885 0.2616 0.0
C1531 C 0.31424 0.60853 0.28076 0.0
C1532 C 0.33959 0.61467 0.29561 0.0
H1533 H 0.10799 0.30012 0.81424 0.0
H1534 H 0.07728 0.29653 0.72725 0.0
H1535 H 0.10598 0.33829 0.71507 0.0
H1536 H 0.10818 0.37896 0.81712 0.0
H1537 H 0.13955 0.38074 0.8389 0.0
H1538 H 0.11604 0.35066 0.84175 0.0
H1539 H 0.15798 0.3168 0.83137 0.0
H1540 H 0.18157 0.34675 0.8285 0.0
H1541 H 0.17886 0.32186 0.79957 0.0
H1542 H 0.13812 0.37864 0.71103 0.0
H1543 H 0.17272 0.41722 0.71529 0.0
H1544 H 0.18384 0.39733 0.8049 0.0
C1545 C 0.10714 0.3084 0.79276 0.0
C1546 C 0.09009 0.29519 0.77176 0.0
C1547 C 0.08966 0.30653 0.74384 0.0
C1548 C 0.10603 0.3302 0.73663 0.0
C1549 C 0.12249 0.34276 0.75764 0.0
C1550 C 0.12309 0.33262 0.78522 0.0
C1551 C 0.14264 0.35078 0.80348 0.0
C1552 C 0.12559 0.36619 0.82669 0.0
C1553 C 0.1667 0.33297 0.81648 0.0
C1554 C 0.1538 0.37172 0.7814 0.0
C1555 C 0.14141 0.36675 0.75528 0.0
C1556 C 0.14786 0.38296 0.73139 0.0
C1557 C 0.16754 0.40494 0.7341 0.0
C1558 C 0.18096 0.41049 0.76044 0.0
C1559 C 0.17392 0.39363 0.78448 0.0
H1560 H 0.71362 0.84937 0.91634 0.0
H1561 H 0.708 0.76493 0.88012 0.0
H1562 H 0.70624 0.78565 0.83204 0.0
H1563 H 0.66456 0.88224 0.86043 0.0
H1564 H 0.68379 0.9153 0.86085 0.0
H1565 H 0.6811 0.89416 0.8928 0.0
H1566 H 0.73585 0.89366 0.89691 0.0
H1567 H 0.73876 0.91454 0.86499 0.0
H1568 H 0.75684 0.8809 0.86749 0.0
H1569 H 0.71251 0.8143 0.78837 0.0
H1570 H 0.72272 0.84956 0.75113 0.0
H1571 H 0.72118 0.9167 0.81418 0.0
C1572 C 0.71128 0.83537 0.89827 0.0
C1573 C 0.71096 0.80553 0.90196 0.0
C1574 C 0.70798 0.78782 0.87786 0.0
C1575 C 0.70701 0.7994 0.85042 0.0
C1576 C 0.70806 0.82881 0.8474 0.0
C1577 C 0.70938 0.84668 0.87062 0.0
C1578 C 0.71088 0.87754 0.86113 0.0
C1579 C 0.68346 0.89324 0.86929 0.0
C1580 C 0.73716 0.89252 0.87335 0.0
C1581 C 0.71291 0.87398 0.82907 0.0
C1582 C 0.71057 0.84568 0.82172 0.0
C1583 C 0.71368 0.83659 0.79376 0.0
C1584 C 0.71959 0.85685 0.77274 0.0
C1585 C 0.72249 0.88598 0.77962 0.0
C1586 C 0.71853 0.89469 0.80816 0.0
H1587 H 0.77021 0.07016 0.31157 0.0
H1588 H 0.81489 0.12371 0.25101 0.0
H1589 H 0.82972 0.15517 0.29019 0.0
H1590 H 0.7411 0.12428 0.34894 0.0
H1591 H 0.74298 0.10749 0.38337 0.0
H1592 H 0.74101 0.08611 0.35189 0.0
H1593 H 0.78734 0.06011 0.36638 0.0
H1594 H 0.78934 0.08145 0.39808 0.0
H1595 H 0.81889 0.08047 0.37372 0.0
H1596 H 0.83164 0.18522 0.33373 0.0
H1597 H 0.82167 0.21056 0.37852 0.0
H1598 H 0.77699 0.13665 0.41073 0.0
C1599 C 0.78394 0.08793 0.30661 0.0
C1600 C 0.79152 0.09443 0.27828 0.0
C1601 C 0.80897 0.11825 0.27261 0.0
C1602 C 0.81758 0.13619 0.29473 0.0
C1603 C 0.80876 0.12977 0.32232 0.0
C1604 C 0.79256 0.10603 0.32834 0.0
C1605 C 0.78271 0.10575 0.35895 0.0
C1606 C 0.75003 0.10593 0.36087 0.0
C1607 C 0.79534 0.08044 0.37524 0.0
C1608 C 0.79517 0.13347 0.369 0.0
C1609 C 0.81031 0.14696 0.34767 0.0
C1610 C 0.8206 0.17451 0.35087 0.0
C1611 C 0.81481 0.18875 0.37633 0.0
C1612 C 0.79904 0.17531 0.39819 0.0
C1613 C 0.78981 0.14711 0.39469 0.0
H1614 H 0.22829 0.70721 0.11802 0.0
H1615 H 0.20735 0.6448 0.05393 0.0
H1616 H 0.19838 0.60909 0.09163 0.0
H1617 H 0.26725 0.65945 0.16071 0.0
H1618 H 0.25698 0.67544 0.19394 0.0
H1619 H 0.25825 0.69659 0.16204 0.0
H1620 H 0.20585 0.7114 0.16968 0.0
H1621 H 0.20433 0.69021 0.2016 0.0
H1622 H 0.17896 0.68442 0.17354 0.0
H1623 H 0.19526 0.5794 0.13632 0.0
H1624 H 0.2001 0.55758 0.18403 0.0
H1625 H 0.22407 0.63953 0.21853 0.0
C1626 C 0.22117 0.68619 0.11207 0.0
C1627 C 0.21803 0.67868 0.08329 0.0
C1628 C 0.20966 0.65084 0.07598 0.0
C1629 C 0.20443 0.63052 0.09724 0.0
C1630 C 0.20808 0.63841 0.12557 0.0
C1631 C 0.21644 0.66556 0.13298 0.0
C1632 C 0.22158 0.66795 0.16462 0.0
C1633 C 0.25286 0.67527 0.17068 0.0
C1634 C 0.20147 0.68978 0.17815 0.0
C1635 C 0.21448 0.63798 0.17397 0.0
C1636 C 0.20671 0.62125 0.15118 0.0
C1637 C 0.20097 0.59236 0.1544 0.0
C1638 C 0.20374 0.58015 0.18155 0.0
C1639 C 0.21208 0.59686 0.20509 0.0
C1640 C 0.21701 0.62624 0.20116 0.0
H1641 H 0.29927 0.37001 0.70847 0.0
H1642 H 0.25004 0.44333 0.68201 0.0
H1643 H 0.24448 0.42254 0.63437 0.0
H1644 H 0.33521 0.35975 0.63823 0.0
H1645 H 0.33456 0.32162 0.64148 0.0
H1646 H 0.33703 0.34338 0.67287 0.0
H1647 H 0.29247 0.31863 0.69367 0.0
H1648 H 0.28988 0.29693 0.66236 0.0
H1649 H 0.26007 0.31827 0.67331 0.0
H1650 H 0.23962 0.39202 0.59166 0.0
H1651 H 0.23777 0.35437 0.5554 0.0
H1652 H 0.29168 0.3012 0.60807 0.0
C1653 C 0.28781 0.38191 0.69245 0.0
C1654 C 0.27523 0.4084 0.69896 0.0
C1655 C 0.26019 0.42322 0.67749 0.0
C1656 C 0.25684 0.41154 0.65034 0.0
C1657 C 0.26908 0.38525 0.64474 0.0
C1658 C 0.28463 0.37075 0.665 0.0
C1659 C 0.29477 0.34238 0.65357 0.0
C1660 C 0.32732 0.34175 0.65141 0.0
C1661 C 0.28361 0.3176 0.67181 0.0
C1662 C 0.28127 0.34269 0.62429 0.0
C1663 C 0.26681 0.36777 0.61959 0.0
C1664 C 0.25125 0.37248 0.59486 0.0
C1665 C 0.25025 0.35092 0.57442 0.0
C1666 C 0.26471 0.32494 0.57878 0.0
C1667 C 0.28075 0.321 0.60392 0.0
H1668 H 0.90528 0.68332 0.84172 0.0
H1669 H 0.88463 0.7536 0.78542 0.0
H1670 H 0.84385 0.76573 0.81552 0.0
H1671 H 0.83357 0.66215 0.85365 0.0
H1672 H 0.83861 0.65251 0.89042 0.0
H1673 H 0.86786 0.65039 0.86584 0.0
H1674 H 0.89761 0.68314 0.89837 0.0
H1675 H 0.8684 0.6855 0.92304 0.0
H1676 H 0.88379 0.71738 0.90835 0.0
H1677 H 0.80468 0.76946 0.84918 0.0
H1678 H 0.76631 0.76273 0.88426 0.0
H1679 H 0.81039 0.69001 0.91958 0.0
C1680 C 0.89218 0.7013 0.83592 0.0
C1681 C 0.89802 0.71747 0.81125 0.0
C1682 C 0.88036 0.74072 0.80407 0.0
C1683 C 0.8573 0.74798 0.82117 0.0
C1684 C 0.85202 0.73168 0.84526 0.0
C1685 C 0.86867 0.70868 0.85264 0.0
C1686 C 0.85684 0.69371 0.8787 0.0
C1687 C 0.84873 0.66287 0.87173 0.0
C1688 C 0.87792 0.69503 0.90359 0.0
C1689 C 0.83077 0.71174 0.88444 0.0
C1690 C 0.82875 0.73369 0.86497 0.0
C1691 C 0.80603 0.75251 0.8647 0.0
C1692 C 0.78436 0.7485 0.88455 0.0
C1693 C 0.78567 0.72595 0.90434 0.0
C1694 C 0.80929 0.70757 0.90472 0.0
H1695 H 0.28997 0.73546 0.11922 0.0
H1696 H 0.30446 0.80991 0.06695 0.0
H1697 H 0.34842 0.82034 0.09432 0.0
H1698 H 0.3144 0.76303 0.18488 0.0
H1699 H 0.33095 0.73031 0.19576 0.0
H1700 H 0.30087 0.72952 0.1723 0.0
H1701 H 0.33013 0.70065 0.1357 0.0
H1702 H 0.36022 0.7013 0.15925 0.0
H1703 H 0.36371 0.71435 0.12334 0.0
H1704 H 0.3893 0.82394 0.13126 0.0
H1705 H 0.42595 0.81667 0.16862 0.0
H1706 H 0.38595 0.73718 0.19223 0.0
C1707 C 0.30249 0.7539 0.11345 0.0
C1708 C 0.29386 0.77203 0.09118 0.0
C1709 C 0.31087 0.79575 0.08395 0.0
C1710 C 0.33573 0.80187 0.09947 0.0
C1711 C 0.3435 0.78364 0.12166 0.0
C1712 C 0.32758 0.7598 0.1281 0.0
C1713 C 0.34066 0.74287 0.15206 0.0
C1714 C 0.32049 0.74137 0.17777 0.0
C1715 C 0.34919 0.71303 0.14197 0.0
C1716 C 0.36639 0.76092 0.15844 0.0
C1717 C 0.36756 0.78466 0.14113 0.0
C1718 C 0.38876 0.80515 0.14454 0.0
C1719 C 0.40941 0.80096 0.16585 0.0
C1720 C 0.40898 0.77619 0.18297 0.0
C1721 C 0.38712 0.75608 0.17911 0.0
H1722 H 0.21243 0.22148 0.63051 0.0
H1723 H 0.17619 0.22258 0.54567 0.0
H1724 H 0.12824 0.21765 0.56637 0.0
H1725 H 0.16214 0.17058 0.66216 0.0
H1726 H 0.16126 0.1891 0.69565 0.0
H1727 H 0.19285 0.19004 0.67403 0.0
H1728 H 0.1916 0.24505 0.67443 0.0
H1729 H 0.15998 0.24427 0.69591 0.0
H1730 H 0.16009 0.26321 0.66255 0.0
H1731 H 0.08408 0.21805 0.59642 0.0
H1732 H 0.04712 0.22114 0.63379 0.0
H1733 H 0.1124 0.21799 0.69865 0.0
C1734 C 0.19449 0.22016 0.61622 0.0
C1735 C 0.19807 0.22239 0.58645 0.0
C1736 C 0.17397 0.22089 0.56854 0.0
C1737 C 0.14665 0.21805 0.58009 0.0
C1738 C 0.14383 0.21654 0.60956 0.0
C1739 C 0.16712 0.21728 0.62738 0.0
C1740 C 0.15825 0.21684 0.65834 0.0
C1741 C 0.16928 0.19004 0.67342 0.0
C1742 C 0.16806 0.24395 0.67369 0.0
C1743 C 0.12632 0.21612 0.65513 0.0
C1744 C 0.11839 0.21602 0.62684 0.0
C1745 C 0.09 0.21759 0.61865 0.0
C1746 C 0.06919 0.21944 0.63994 0.0
C1747 C 0.07694 0.21937 0.66899 0.0
C1748 C 0.10585 0.21737 0.67659 0.0
H1749 H 0.59208 0.24618 0.33827 0.0
H1750 H 0.61105 0.31663 0.28171 0.0
H1751 H 0.65188 0.32967 0.31193 0.0
H1752 H 0.613 0.28038 0.40499 0.0
H1753 H 0.62814 0.24813 0.41901 0.0
H1754 H 0.59875 0.24644 0.3946 0.0
H1755 H 0.62803 0.21382 0.36134 0.0
H1756 H 0.65747 0.21535 0.38557 0.0
H1757 H 0.66231 0.22553 0.3489 0.0
H1758 H 0.69317 0.33215 0.34614 0.0
H1759 H 0.73195 0.32313 0.38036 0.0
H1760 H 0.68531 0.25105 0.41417 0.0
C1761 C 0.60455 0.2646 0.33239 0.0
C1762 C 0.59827 0.28052 0.30774 0.0
C1763 C 0.61534 0.30427 0.30065 0.0
C1764 C 0.63854 0.31187 0.31772 0.0
C1765 C 0.64428 0.29551 0.34179 0.0
C1766 C 0.62773 0.27237 0.34909 0.0
C1767 C 0.6395 0.25692 0.37469 0.0
C1768 C 0.6186 0.25805 0.39981 0.0
C1769 C 0.64729 0.22609 0.36716 0.0
C1770 C 0.66564 0.27461 0.3804 0.0
C1771 C 0.66794 0.29693 0.36139 0.0
C1772 C 0.6914 0.31497 0.36136 0.0
C1773 C 0.71332 0.30967 0.38086 0.0
C1774 C 0.71162 0.28648 0.40005 0.0
C1775 C 0.68711 0.2692 0.40011 0.0
H1776 H 0.93737 0.30027 0.18609 0.0
H1777 H 0.98016 0.21871 0.18581 0.0
H1778 H 0.95304 0.20524 0.14251 0.0
H1779 H 0.86891 0.27586 0.16386 0.0
H1780 H 0.8623 0.3072 0.1428 0.0
H1781 H 0.88465 0.3093 0.17373 0.0
H1782 H 0.92496 0.33049 0.14279 0.0
H1783 H 0.90292 0.3281 0.11165 0.0
H1784 H 0.93728 0.3113 0.11202 0.0
H1785 H 0.92299 0.20293 0.09695 0.0
H1786 H 0.88918 0.2095 0.05705 0.0
H1787 H 0.86585 0.29197 0.09029 0.0
C1788 C 0.94101 0.27941 0.17721 0.0
C1789 C 0.96096 0.26053 0.18921 0.0
C1790 C 0.96489 0.23342 0.17693 0.0
C1791 C 0.94972 0.22573 0.15232 0.0
C1792 C 0.93067 0.24533 0.1407 0.0
C1793 C 0.92608 0.27145 0.15311 0.0
C1794 C 0.90469 0.28899 0.13692 0.0
C1795 C 0.87859 0.2957 0.15543 0.0
C1796 C 0.91829 0.31633 0.12515 0.0
C1797 C 0.89759 0.2686 0.11336 0.0
C1798 C 0.91305 0.24369 0.11549 0.0
C1799 C 0.91068 0.22225 0.09525 0.0
C1800 C 0.89167 0.22624 0.0726 0.0
C1801 C 0.8751 0.25125 0.07082 0.0
C1802 C 0.87822 0.27263 0.09136 0.0
H1803 H 0.64678 0.72785 0.61392 0.0
H1804 H 0.5902 0.76446 0.55097 0.0
H1805 H 0.55248 0.76812 0.58736 0.0
H1806 H 0.59501 0.68525 0.64858 0.0
H1807 H 0.60972 0.69036 0.68355 0.0
H1808 H 0.63239 0.69224 0.6528 0.0
H1809 H 0.64883 0.74243 0.66828 0.0
H1810 H 0.62576 0.74083 0.69885 0.0
H1811 H 0.62279 0.76986 0.67399 0.0
H1812 H 0.52052 0.76666 0.63055 0.0
H1813 H 0.4955 0.75551 0.67547 0.0
H1814 H 0.57319 0.71967 0.70965 0.0
C1815 C 0.62651 0.73677 0.60777 0.0
C1816 C 0.62147 0.74598 0.57961 0.0
C1817 C 0.59455 0.75726 0.57241 0.0
C1818 C 0.57306 0.7596 0.59298 0.0
C1819 C 0.57883 0.75056 0.62062 0.0
C1820 C 0.60483 0.73912 0.62795 0.0
C1821 C 0.6052 0.72957 0.6587 0.0
C1822 C 0.6109 0.69746 0.66103 0.0
C1823 C 0.62694 0.7467 0.67597 0.0
C1824 C 0.57515 0.73686 0.66736 0.0
C1825 C 0.56038 0.74938 0.64529 0.0
C1826 C 0.53191 0.75701 0.64804 0.0
C1827 C 0.51792 0.75075 0.6737 0.0
C1828 C 0.53236 0.73667 0.69605 0.0
C1829 C 0.56154 0.73046 0.69298 0.0
H1830 H 0.35683 0.26774 0.88549 0.0
H1831 H 0.39987 0.21585 0.9484 0.0
H1832 H 0.44256 0.21467 0.91773 0.0
H1833 H 0.3798 0.23365 0.82597 0.0
H1834 H 0.38439 0.265 0.80435 0.0
H1835 H 0.35938 0.26521 0.83318 0.0
H1836 H 0.38443 0.30923 0.85402 0.0
H1837 H 0.41033 0.30885 0.82576 0.0
H1838 H 0.42173 0.30778 0.86232 0.0
H1839 H 0.47746 0.21374 0.87803 0.0
H1840 H 0.50054 0.21001 0.83103 0.0
H1841 H 0.43524 0.26292 0.79398 0.0
C1842 C 0.37534 0.25634 0.89296 0.0
C1843 C 0.37507 0.2417 0.9192 0.0
C1844 C 0.39972 0.22722 0.92835 0.0
C1845 C 0.42409 0.22666 0.91119 0.0
C1846 C 0.4236 0.24121 0.88531 0.0
C1847 C 0.39989 0.2559 0.8763 0.0
C1848 C 0.40389 0.26774 0.84659 0.0
C1849 C 0.38049 0.25724 0.82635 0.0
C1850 C 0.40518 0.30034 0.84722 0.0
C1851 C 0.43258 0.25529 0.83926 0.0
C1852 C 0.44405 0.24098 0.86232 0.0
C1853 C 0.46909 0.22547 0.86009 0.0
C1854 C 0.48208 0.22353 0.83339 0.0
C1855 C 0.46987 0.23678 0.80935 0.0
C1856 C 0.44537 0.25355 0.8124 0.0
H1857 H 0.12001 0.79342 0.40727 0.0
H1858 H 0.12356 0.70257 0.42078 0.0
H1859 H 0.09201 0.69511 0.37908 0.0
H1860 H 0.04523 0.79417 0.3877 0.0
H1861 H 0.05014 0.82287 0.36277 0.0
H1862 H 0.07272 0.82013 0.3935 0.0
H1863 H 0.11703 0.82055 0.36056 0.0
H1864 H 0.09454 0.82298 0.32978 0.0
H1865 H 0.11996 0.79453 0.33263 0.0
H1866 H 0.06053 0.69872 0.33382 0.0
H1867 H 0.03 0.71344 0.2931 0.0
H1868 H 0.0483 0.80163 0.31259 0.0
C1869 C 0.11391 0.77201 0.40149 0.0
C1870 C 0.12383 0.74856 0.4169 0.0
C1871 C 0.11561 0.72076 0.4091 0.0
C1872 C 0.09794 0.71636 0.38545 0.0
C1873 C 0.08849 0.74008 0.3704 0.0
C1874 C 0.09592 0.76736 0.37853 0.0
C1875 C 0.0824 0.78946 0.35984 0.0
C1876 C 0.06138 0.80772 0.37697 0.0
C1877 C 0.10483 0.80794 0.34481 0.0
C1878 C 0.0671 0.77047 0.33923 0.0
C1879 C 0.07049 0.74205 0.34544 0.0
C1880 C 0.05765 0.72098 0.3289 0.0
C1881 C 0.04049 0.72945 0.30579 0.0
C1882 C 0.03657 0.75864 0.29977 0.0
C1883 C 0.05052 0.77908 0.31659 0.0
H1884 H 0.20259 0.94406 0.24672 0.0
H1885 H 0.1601 0.00075 0.30552 0.0
H1886 H 0.11618 0.9728 0.30124 0.0
H1887 H 0.13828 0.92801 0.2017 0.0
H1888 H 0.14849 0.89141 0.19735 0.0
H1889 H 0.17531 0.91842 0.20122 0.0
H1890 H 0.19655 0.89057 0.24372 0.0
H1891 H 0.1695 0.86382 0.24032 0.0
H1892 H 0.17425 0.88191 0.27372 0.0
H1893 H 0.07898 0.93705 0.29505 0.0
H1894 H 0.04881 0.89547 0.28531 0.0
H1895 H 0.11509 0.86008 0.23182 0.0
C1896 C 0.18365 0.95107 0.25773 0.0
C1897 C 0.18437 0.97471 0.27608 0.0
C1898 C 0.15967 0.98282 0.29112 0.0
C1899 C 0.13469 0.96711 0.28886 0.0
C1900 C 0.13482 0.94328 0.27151 0.0
C1901 C 0.15844 0.93531 0.25593 0.0
C1902 C 0.15327 0.90739 0.24077 0.0
C1903 C 0.15387 0.91157 0.20834 0.0
C1904 C 0.17466 0.88458 0.25022 0.0
C1905 C 0.12352 0.90063 0.25115 0.0
C1906 C 0.11323 0.92188 0.2685 0.0
C1907 C 0.08656 0.92041 0.28117 0.0
C1908 C 0.06962 0.89673 0.27557 0.0
C1909 C 0.07962 0.87473 0.25779 0.0
C1910 C 0.10699 0.87662 0.24557 0.0
H1911 H 0.40932 0.1058 0.79838 0.0
H1912 H 0.40428 0.13388 0.71056 0.0
H1913 H 0.36207 0.10356 0.70335 0.0
H1914 H 0.38982 0.03337 0.78456 0.0
H1915 H 0.37026 0.02981 0.81734 0.0
H1916 H 0.39981 0.05395 0.81522 0.0
H1917 H 0.36734 0.09528 0.83183 0.0
H1918 H 0.33769 0.07128 0.83399 0.0
H1919 H 0.33523 0.10287 0.81245 0.0
H1920 H 0.3189 0.07026 0.70669 0.0
H1921 H 0.28088 0.03606 0.72017 0.0
H1922 H 0.31688 0.03051 0.80499 0.0
C1923 C 0.39935 0.10561 0.77765 0.0
C1924 C 0.40996 0.12216 0.75512 0.0
C1925 C 0.39648 0.12118 0.72816 0.0
C1926 C 0.37246 0.10412 0.72385 0.0
C1927 C 0.36245 0.08803 0.74663 0.0
C1928 C 0.37567 0.08855 0.77291 0.0
C1929 C 0.36132 0.06904 0.79386 0.0
C1930 C 0.3815 0.04513 0.80329 0.0
C1931 C 0.34971 0.08562 0.81953 0.0
C1932 C 0.33769 0.05781 0.77549 0.0
C1933 C 0.33845 0.06883 0.7483 0.0
C1934 C 0.31819 0.06139 0.72793 0.0
C1935 C 0.29669 0.04205 0.73573 0.0
C1936 C 0.29591 0.03055 0.76356 0.0
C1937 C 0.31676 0.03872 0.78345 0.0
H1938 H 0.69642 0.54811 0.69568 0.0
H1939 H 0.68786 0.50493 0.77702 0.0
H1940 H 0.64638 0.53467 0.78839 0.0
H1941 H 0.6774 0.61797 0.72145 0.0
H1942 H 0.65843 0.62757 0.68958 0.0
H1943 H 0.68766 0.60302 0.6877 0.0
H1944 H 0.6552 0.56595 0.66363 0.0
H1945 H 0.62577 0.59025 0.66544 0.0
H1946 H 0.62267 0.55531 0.68087 0.0
H1947 H 0.60526 0.56736 0.79035 0.0
H1948 H 0.5683 0.60373 0.78441 0.0
H1949 H 0.60403 0.62681 0.70224 0.0
C1950 C 0.68591 0.54502 0.71595 0.0
C1951 C 0.6953 0.52416 0.73544 0.0
C1952 C 0.68109 0.52082 0.76179 0.0
C1953 C 0.65745 0.53752 0.76841 0.0
C1954 C 0.64855 0.5576 0.74858 0.0
C1955 C 0.66246 0.56167 0.72302 0.0
C1956 C 0.64864 0.58496 0.70562 0.0
C1957 C 0.66926 0.60986 0.70082 0.0
C1958 C 0.6374 0.57341 0.67721 0.0
C1959 C 0.6246 0.59313 0.72537 0.0
C1960 C 0.62494 0.57697 0.74994 0.0
C1961 C 0.60478 0.58027 0.77129 0.0
C1962 C 0.58383 0.60093 0.76763 0.0
C1963 C 0.58327 0.61811 0.74284 0.0
C1964 C 0.60389 0.614 0.7214 0.0
H1965 H 0.90235 0.37638 0.19858 0.0
H1966 H 0.90445 0.36689 0.29018 0.0
H1967 H 0.86739 0.4039 0.29502 0.0
H1968 H 0.89174 0.45367 0.19901 0.0
H1969 H 0.86891 0.45315 0.1683 0.0
H1970 H 0.89625 0.4267 0.17225 0.0
H1971 H 0.85862 0.38676 0.16757 0.0
H1972 H 0.83135 0.41314 0.16337 0.0
H1973 H 0.82827 0.38669 0.19097 0.0
H1974 H 0.82968 0.44148 0.28961 0.0
H1975 H 0.79235 0.47524 0.27422 0.0
H1976 H 0.81498 0.46018 0.18618 0.0
C1977 C 0.8951 0.38243 0.21958 0.0
C1978 C 0.90619 0.3693 0.24408 0.0
C1979 C 0.89626 0.37723 0.27129 0.0
C1980 C 0.87528 0.39813 0.2742 0.0
C1981 C 0.86477 0.41096 0.24963 0.0
C1982 C 0.87436 0.40347 0.22283 0.0
C1983 C 0.8593 0.42025 0.19987 0.0
C1984 C 0.8803 0.43959 0.18392 0.0
C1985 C 0.84344 0.40053 0.17925 0.0
C1986 C 0.83898 0.43751 0.21785 0.0
C1987 C 0.84281 0.43225 0.24652 0.0
C1988 C 0.82654 0.44584 0.26723 0.0
C1989 C 0.80553 0.46503 0.25836 0.0
C1990 C 0.80076 0.46998 0.22908 0.0
C1991 C 0.81794 0.45632 0.20868 0.0
H1992 H 0.26957 0.20462 0.92266 0.0
H1993 H 0.22961 0.16921 0.99791 0.0
H1994 H 0.22276 0.12363 0.97263 0.0
H1995 H 0.22521 0.16609 0.86945 0.0
H1996 H 0.25504 0.16218 0.84573 0.0
H1997 H 0.25275 0.19267 0.86869 0.0
H1998 H 0.30252 0.1806 0.88875 0.0
H1999 H 0.30462 0.14961 0.86656 0.0
H2000 H 0.3086 0.14622 0.90454 0.0
H2001 H 0.22692 0.08021 0.94133 0.0
H2002 H 0.23481 0.04422 0.90403 0.0
H2003 H 0.27156 0.10884 0.84923 0.0
C2004 C 0.25847 0.18756 0.93347 0.0
C2005 C 0.24987 0.19038 0.96209 0.0
C2006 C 0.23582 0.16758 0.97578 0.0
C2007 C 0.23215 0.14157 0.96169 0.0
C2008 C 0.24225 0.13906 0.93388 0.0
C2009 C 0.25447 0.1617 0.91969 0.0
C2010 C 0.26478 0.1533 0.89041 0.0
C2011 C 0.24846 0.16952 0.8672 0.0
C2012 C 0.29704 0.15769 0.88741 0.0
C2013 C 0.25717 0.12214 0.89054 0.0
C2014 C 0.24426 0.11428 0.9158 0.0
C2015 C 0.23654 0.08625 0.92129 0.0
C2016 C 0.24136 0.06592 0.90008 0.0
C2017 C 0.25367 0.07378 0.87368 0.0
C2018 C 0.26191 0.10222 0.86909 0.0
H2019 H 0.80823 0.31644 0.03625 0.0
H2020 H 0.7211 0.29181 0.01901 0.0
H2021 H 0.70436 0.32893 0.05235 0.0
H2022 H 0.79925 0.32793 0.11038 0.0
H2023 H 0.82345 0.35756 0.11143 0.0
H2024 H 0.82822 0.33003 0.08538 0.0
H2025 H 0.82671 0.36745 0.04493 0.0
H2026 H 0.82203 0.39517 0.0708 0.0
H2027 H 0.79677 0.39113 0.04235 0.0
H2028 H 0.69768 0.36898 0.08735 0.0
H2029 H 0.70129 0.40775 0.12236 0.0
H2030 H 0.79324 0.40359 0.11756 0.0
C2031 C 0.78558 0.31876 0.03932 0.0
C2032 C 0.76591 0.30127 0.02503 0.0
C2033 C 0.73649 0.30503 0.02979 0.0
C2034 C 0.72683 0.32601 0.04862 0.0
C2035 C 0.74694 0.34268 0.06253 0.0
C2036 C 0.77569 0.33914 0.05817 0.0
C2037 C 0.79312 0.35912 0.07615 0.0
C2038 C 0.81211 0.34267 0.09708 0.0
C2039 C 0.81068 0.37942 0.05743 0.0
C2040 C 0.76966 0.3746 0.09142 0.0
C2041 C 0.74318 0.36501 0.08316 0.0
C2042 C 0.71829 0.37659 0.09403 0.0
C2043 C 0.72059 0.3986 0.11383 0.0
C2044 C 0.7476 0.40854 0.12262 0.0
C2045 C 0.77236 0.39625 0.11136 0.0
H2046 H 0.74147 0.71041 0.55955 0.0
H2047 H 0.71692 0.65936 0.48722 0.0
H2048 H 0.72313 0.61575 0.51576 0.0
H2049 H 0.79311 0.65808 0.59199 0.0
H2050 H 0.78182 0.66692 0.62751 0.0
H2051 H 0.78106 0.69351 0.59989 0.0
H2052 H 0.7278 0.70225 0.61055 0.0
H2053 H 0.72814 0.6752 0.63762 0.0
H2054 H 0.7032 0.67299 0.60868 0.0
H2055 H 0.72566 0.57881 0.55308 0.0
H2056 H 0.72786 0.54968 0.59663 0.0
H2057 H 0.74884 0.62474 0.64578 0.0
C2058 C 0.73886 0.6899 0.54952 0.0
C2059 C 0.72988 0.68785 0.52104 0.0
C2060 C 0.7249 0.661 0.50874 0.0
C2061 C 0.72813 0.63623 0.52485 0.0
C2062 C 0.73604 0.63888 0.55323 0.0
C2063 C 0.7417 0.66496 0.56546 0.0
C2064 C 0.74699 0.66202 0.59711 0.0
C2065 C 0.77757 0.67064 0.60456 0.0
C2066 C 0.72523 0.67913 0.6145 0.0
C2067 C 0.74258 0.6304 0.60081 0.0
C2068 C 0.73656 0.61747 0.57518 0.0
C2069 C 0.73078 0.58857 0.57324 0.0
C2070 C 0.73192 0.57226 0.5981 0.0
C2071 C 0.73855 0.58496 0.62454 0.0
C2072 C 0.74363 0.61447 0.62589 0.0
H2073 H 0.24707 0.79242 0.43663 0.0
H2074 H 0.20605 0.83579 0.50641 0.0
H2075 H 0.21525 0.88194 0.48359 0.0
H2076 H 0.29992 0.85046 0.41715 0.0
H2077 H 0.29501 0.84431 0.37967 0.0
H2078 H 0.29186 0.81527 0.40454 0.0
H2079 H 0.24167 0.80433 0.38502 0.0
H2080 H 0.24441 0.83353 0.36048 0.0
H2081 H 0.21509 0.83185 0.38509 0.0
H2082 H 0.22279 0.92201 0.45148 0.0
H2083 H 0.22726 0.95457 0.41058 0.0
H2084 H 0.25971 0.88546 0.35898 0.0
C2085 C 0.24137 0.81183 0.44752 0.0
C2086 C 0.22698 0.81103 0.47378 0.0
C2087 C 0.21811 0.83644 0.48687 0.0
C2088 C 0.22314 0.86263 0.474 0.0
C2089 C 0.23662 0.86289 0.4477 0.0
C2090 C 0.24563 0.83825 0.43446 0.0
C2091 C 0.25559 0.8443 0.40439 0.0
C2092 C 0.28749 0.83822 0.40126 0.0
C2093 C 0.23813 0.82751 0.38247 0.0
C2094 C 0.24958 0.87584 0.4026 0.0
C2095 C 0.23935 0.88617 0.42808 0.0
C2096 C 0.2312 0.91436 0.43149 0.0
C2097 C 0.23371 0.93264 0.40819 0.0
C2098 C 0.24373 0.92241 0.3818 0.0
C2099 C 0.25186 0.89371 0.37899 0.0
H2100 H 0.04158 0.68694 0.81317 0.0
H2101 H 0.02338 0.77626 0.80011 0.0
H2102 H 0.05435 0.78831 0.84098 0.0
H2103 H 0.03953 0.69071 0.88953 0.0
H2104 H 0.06686 0.66438 0.89427 0.0
H2105 H 0.04429 0.66318 0.86341 0.0
H2106 H 0.08849 0.66429 0.83054 0.0
H2107 H 0.11123 0.66536 0.86124 0.0
H2108 H 0.11405 0.69252 0.83429 0.0
H2109 H 0.08645 0.79004 0.88418 0.0
H2110 H 0.11742 0.78158 0.92581 0.0
H2111 H 0.11397 0.69095 0.9102 0.0
C2112 C 0.04434 0.70907 0.81875 0.0
C2113 C 0.03035 0.73076 0.80349 0.0
C2114 C 0.03393 0.7594 0.81169 0.0
C2115 C 0.05149 0.76639 0.83477 0.0
C2116 C 0.0648 0.7444 0.84956 0.0
C2117 C 0.06127 0.71632 0.84193 0.0
C2118 C 0.07675 0.69653 0.86197 0.0
C2119 C 0.0556 0.67758 0.87825 0.0
C2120 C 0.09895 0.67864 0.84605 0.0
C2121 C 0.09044 0.71788 0.8816 0.0
C2122 C 0.083 0.74537 0.87436 0.0
C2123 C 0.09234 0.76861 0.89005 0.0
C2124 C 0.10973 0.7636 0.91375 0.0
C2125 C 0.11784 0.7356 0.92122 0.0
C2126 C 0.1081 0.71254 0.90486 0.0
H2127 H 0.46495 0.30978 0.32211 0.0
H2128 H 0.45779 0.22413 0.28956 0.0
H2129 H 0.4271 0.21109 0.33054 0.0
H2130 H 0.46906 0.28775 0.39682 0.0
H2131 H 0.45007 0.31849 0.40931 0.0
H2132 H 0.47146 0.32081 0.37758 0.0
H2133 H 0.42782 0.33871 0.34904 0.0
H2134 H 0.40666 0.33682 0.38087 0.0
H2135 H 0.39552 0.318 0.3495 0.0
H2136 H 0.39601 0.20838 0.37395 0.0
H2137 H 0.36749 0.21546 0.41738 0.0
H2138 H 0.39656 0.30277 0.42219 0.0
C2139 C 0.45687 0.2883 0.32376 0.0
C2140 C 0.46328 0.26788 0.30293 0.0
C2141 C 0.4529 0.23988 0.30559 0.0
C2142 C 0.43555 0.23237 0.32867 0.0
C2143 C 0.42953 0.25305 0.34899 0.0
C2144 C 0.44015 0.28033 0.34694 0.0
C2145 C 0.43114 0.29835 0.37194 0.0
C2146 C 0.45697 0.30685 0.38998 0.0
C2147 C 0.41428 0.32452 0.36222 0.0
C2148 C 0.41253 0.27743 0.38764 0.0
C2149 C 0.41222 0.25129 0.3743 0.0
C2150 C 0.39631 0.22866 0.38473 0.0
C2151 C 0.38027 0.23289 0.40943 0.0
C2152 C 0.38003 0.25966 0.42317 0.0
C2153 C 0.39642 0.28213 0.41212 0.0
H2154 H 0.60772 0.78692 0.07736 0.0
H2155 H 0.63789 0.70259 0.09782 0.0
H2156 H 0.60288 0.69903 0.13693 0.0
H2157 H 0.59939 0.80943 0.14761 0.0
H2158 H 0.56796 0.83023 0.14116 0.0
H2159 H 0.5931 0.82459 0.11293 0.0
H2160 H 0.55309 0.80379 0.08131 0.0
H2161 H 0.52783 0.80934 0.10956 0.0
H2162 H 0.53211 0.77451 0.09438 0.0
H2163 H 0.56737 0.70668 0.17634 0.0
H2164 H 0.53504 0.72548 0.21344 0.0
H2165 H 0.52846 0.80458 0.16627 0.0
C2166 C 0.60644 0.76758 0.08982 0.0
C2167 C 0.62526 0.745 0.08499 0.0
C2168 C 0.62364 0.72011 0.1017 0.0
C2169 C 0.60371 0.71785 0.1237 0.0
C2170 C 0.58563 0.74072 0.12845 0.0
C2171 C 0.58678 0.7651 0.11193 0.0
C2172 C 0.56664 0.78748 0.12278 0.0
C2173 C 0.58274 0.81451 0.13165 0.0
C2174 C 0.54355 0.79416 0.10069 0.0
C2175 C 0.55446 0.77213 0.14826 0.0
C2176 C 0.56536 0.74509 0.15111 0.0
C2177 C 0.55837 0.7277 0.17416 0.0
C2178 C 0.54005 0.73851 0.1951 0.0
C2179 C 0.5293 0.76645 0.19276 0.0
C2180 C 0.53624 0.78308 0.16871 0.0
H2181 H 0.88754 0.29003 0.60903 0.0
H2182 H 0.86396 0.20676 0.57737 0.0
H2183 H 0.89241 0.1844 0.61539 0.0
H2184 H 0.95928 0.27239 0.62607 0.0
H2185 H 0.96036 0.29426 0.65745 0.0
H2186 H 0.93726 0.30359 0.62844 0.0
H2187 H 0.89424 0.30368 0.66288 0.0
H2188 H 0.91721 0.29419 0.692 0.0
H2189 H 0.88677 0.27249 0.68389 0.0
H2190 H 0.92363 0.1713 0.65554 0.0
H2191 H 0.9582 0.16733 0.69408 0.0
H2192 H 0.96234 0.25927 0.70041 0.0
C2193 C 0.8883 0.26708 0.61012 0.0
C2194 C 0.87359 0.25008 0.59024 0.0
C2195 C 0.87522 0.22015 0.59226 0.0
C2196 C 0.89116 0.20729 0.61387 0.0
C2197 C 0.90532 0.2247 0.63314 0.0
C2198 C 0.90424 0.25391 0.6314 0.0
C2199 C 0.92235 0.26768 0.65417 0.0
C2200 C 0.94623 0.28553 0.64072 0.0
C2201 C 0.90404 0.28557 0.67443 0.0
C2202 C 0.934 0.24158 0.66895 0.0
C2203 C 0.92364 0.21709 0.65649 0.0
C2204 C 0.93179 0.19028 0.66555 0.0
C2205 C 0.95148 0.18833 0.68757 0.0
C2206 C 0.96293 0.21303 0.70049 0.0
C2207 C 0.95373 0.24005 0.69125 0.0
H2208 H 0.81626 0.03756 0.69145 0.0
H2209 H 0.78215 0.03552 0.77727 0.0
H2210 H 0.81925 0.06943 0.79249 0.0
H2211 H 0.88832 0.03808 0.71087 0.0
H2212 H 0.89948 0.06158 0.68267 0.0
H2213 H 0.86892 0.03915 0.67786 0.0
H2214 H 0.83764 0.08315 0.66624 0.0
H2215 H 0.86853 0.10534 0.67014 0.0
H2216 H 0.8371 0.11255 0.69072 0.0
H2217 H 0.86062 0.10275 0.79841 0.0
H2218 H 0.90355 0.13287 0.7947 0.0
H2219 H 0.9119 0.11111 0.70564 0.0
C2220 C 0.81625 0.04451 0.71338 0.0
C2221 C 0.79618 0.03397 0.73319 0.0
C2222 C 0.79726 0.04336 0.76175 0.0
C2223 C 0.81823 0.0626 0.77056 0.0
C2224 C 0.83801 0.07209 0.75057 0.0
C2225 C 0.83715 0.06342 0.72256 0.0
C2226 C 0.86155 0.0758 0.70553 0.0
C2227 C 0.88069 0.05224 0.69354 0.0
C2228 C 0.85054 0.09536 0.68175 0.0
C2229 C 0.87655 0.09255 0.72844 0.0
C2230 C 0.86245 0.09036 0.7542 0.0
C2231 C 0.87191 0.10444 0.77842 0.0
C2232 C 0.89631 0.12131 0.77619 0.0
C2233 C 0.9111 0.12355 0.7501 0.0
C2234 C 0.90118 0.10905 0.72594 0.0
H2235 H 0.66494 0.98461 0.23719 0.0
H2236 H 0.73521 0.92933 0.21628 0.0
H2237 H 0.70277 0.8878 0.21717 0.0
H2238 H 0.62877 0.93435 0.2857 0.0
H2239 H 0.59396 0.94563 0.27458 0.0
H2240 H 0.62314 0.97036 0.27391 0.0
H2241 H 0.61348 0.98033 0.22059 0.0
H2242 H 0.58453 0.95539 0.22099 0.0
H2243 H 0.61309 0.95119 0.1958 0.0
H2244 H 0.6622 0.85332 0.21741 0.0
H2245 H 0.61705 0.82714 0.21967 0.0
H2246 H 0.57285 0.90496 0.24167 0.0
C2247 C 0.67353 0.96366 0.23343 0.0
C2248 C 0.70242 0.9599 0.22639 0.0
C2249 C 0.71298 0.9324 0.22112 0.0
C2250 C 0.69477 0.90882 0.22181 0.0
C2251 C 0.66615 0.91327 0.22805 0.0
C2252 C 0.65563 0.93995 0.23415 0.0
C2253 C 0.6239 0.93906 0.23954 0.0
C2254 C 0.61705 0.94787 0.27026 0.0
C2255 C 0.60781 0.95759 0.21794 0.0
C2256 C 0.61806 0.9078 0.23487 0.0
C2257 C 0.64276 0.89333 0.22841 0.0
C2258 C 0.64277 0.86438 0.22268 0.0
C2259 C 0.61693 0.84972 0.22393 0.0
C2260 C 0.59133 0.86398 0.23081 0.0
C2261 C 0.59199 0.89347 0.23623 0.0
H2262 H 0.39717 0.38825 0.22697 0.0
H2263 H 0.39338 0.35284 0.31205 0.0
H2264 H 0.35596 0.38718 0.32488 0.0
H2265 H 0.38387 0.46154 0.24534 0.0
H2266 H 0.36156 0.46816 0.21493 0.0
H2267 H 0.38938 0.44202 0.21287 0.0
H2268 H 0.3528 0.40385 0.19781 0.0
H2269 H 0.32489 0.42988 0.19964 0.0
H2270 H 0.32212 0.39743 0.21987 0.0
H2271 H 0.32156 0.42686 0.32911 0.0
H2272 H 0.28653 0.46523 0.32263 0.0
H2273 H 0.3075 0.47041 0.23317 0.0
C2274 C 0.3886 0.38799 0.24837 0.0
C2275 C 0.39833 0.36834 0.26883 0.0
C2276 C 0.38626 0.36797 0.29633 0.0
C2277 C 0.36514 0.38742 0.30377 0.0
C2278 C 0.35608 0.40663 0.28318 0.0
C2279 C 0.36701 0.40679 0.2559 0.0
C2280 C 0.35213 0.42843 0.23732 0.0
C2281 C 0.37298 0.4514 0.22702 0.0
C2282 C 0.33709 0.41403 0.21218 0.0
C2283 C 0.33103 0.44029 0.25846 0.0
C2284 C 0.33415 0.42777 0.2849 0.0
C2285 C 0.31819 0.43612 0.3083 0.0
C2286 C 0.29791 0.45736 0.30435 0.0
C2287 C 0.29293 0.46901 0.27713 0.0
C2288 C 0.31024 0.46098 0.25402 0.0
H2289 H 0.17543 0.53277 0.8071 0.0
H2290 H 0.21883 0.53279 0.72551 0.0
H2291 H 0.1863 0.5704 0.70843 0.0
H2292 H 0.10513 0.54282 0.78076 0.0
H2293 H 0.0947 0.56559 0.80971 0.0
H2294 H 0.12145 0.53887 0.81521 0.0
H2295 H 0.15629 0.57752 0.83311 0.0
H2296 H 0.12969 0.6044 0.82746 0.0
H2297 H 0.16399 0.60772 0.81079 0.0
H2298 H 0.15042 0.6093 0.70128 0.0
H2299 H 0.11101 0.64399 0.70305 0.0
H2300 H 0.0902 0.61637 0.78858 0.0
C2301 C 0.17813 0.54052 0.78556 0.0
C2302 C 0.19972 0.52994 0.76761 0.0
C2303 C 0.20246 0.54068 0.73961 0.0
C2304 C 0.18416 0.56204 0.72978 0.0
C2305 C 0.16335 0.57222 0.74825 0.0
C2306 C 0.16013 0.56165 0.77547 0.0
C2307 C 0.13609 0.57601 0.79115 0.0
C2308 C 0.11297 0.55454 0.79969 0.0
C2309 C 0.14718 0.59238 0.81716 0.0
C2310 C 0.12586 0.59604 0.76827 0.0
C2311 C 0.14218 0.5939 0.74386 0.0
C2312 C 0.13742 0.61105 0.72018 0.0
C2313 C 0.11521 0.63071 0.72143 0.0
C2314 C 0.09789 0.63251 0.74594 0.0
C2315 C 0.1032 0.61504 0.7696 0.0
H2316 H 0.74791 0.78979 0.05514 0.0
H2317 H 0.70278 0.83416 0.98831 0.0
H2318 H 0.71074 0.8797 0.01281 0.0
H2319 H 0.71632 0.82527 0.10922 0.0
H2320 H 0.74645 0.82712 0.13272 0.0
H2321 H 0.74404 0.79897 0.1071 0.0
H2322 H 0.79297 0.81306 0.08612 0.0
H2323 H 0.79576 0.84104 0.11206 0.0
H2324 H 0.79903 0.84913 0.07472 0.0
H2325 H 0.71726 0.91874 0.04697 0.0
H2326 H 0.7221 0.94935 0.08924 0.0
H2327 H 0.75989 0.87914 0.13569 0.0
C2328 C 0.74099 0.80935 0.04517 0.0
C2329 C 0.72556 0.80892 0.01958 0.0
C2330 C 0.71529 0.83446 0.00763 0.0
C2331 C 0.7197 0.86033 0.02137 0.0
C2332 C 0.73405 0.86009 0.04719 0.0
C2333 C 0.74467 0.83533 0.05902 0.0
C2334 C 0.7555 0.84038 0.08889 0.0
C2335 C 0.73961 0.82184 0.11075 0.0
C2336 C 0.78773 0.83562 0.09053 0.0
C2337 C 0.74817 0.87144 0.09229 0.0
C2338 C 0.73643 0.88254 0.06779 0.0
C2339 C 0.7268 0.91045 0.06619 0.0
C2340 C 0.72946 0.92759 0.0903 0.0
C2341 C 0.74118 0.91651 0.11566 0.0
C2342 C 0.75068 0.88811 0.11659 0.0
H2343 H 0.24537 0.61528 0.85239 0.0
H2344 H 0.23627 0.54365 0.91006 0.0
H2345 H 0.23522 0.57647 0.95075 0.0
H2346 H 0.29063 0.65804 0.89897 0.0
H2347 H 0.27429 0.6911 0.88872 0.0
H2348 H 0.27584 0.66205 0.86387 0.0
H2349 H 0.22121 0.664 0.85765 0.0
H2350 H 0.21959 0.69326 0.88212 0.0
H2351 H 0.1987 0.66185 0.88863 0.0
H2352 H 0.23115 0.6162 0.98441 0.0
H2353 H 0.22242 0.66121 0.00932 0.0
H2354 H 0.23648 0.70794 0.93125 0.0
C2355 C 0.24323 0.6065 0.87359 0.0
C2356 C 0.24093 0.57687 0.87808 0.0
C2357 C 0.23816 0.56623 0.90612 0.0
C2358 C 0.23769 0.5847 0.92938 0.0
C2359 C 0.2403 0.61371 0.92428 0.0
C2360 C 0.24294 0.62465 0.89713 0.0
C2361 C 0.24412 0.65685 0.8976 0.0
C2362 C 0.27294 0.66764 0.88664 0.0
C2363 C 0.21943 0.66974 0.8805 0.0
C2364 C 0.2408 0.66227 0.92922 0.0
C2365 C 0.23898 0.63697 0.94414 0.0
C2366 C 0.23338 0.63616 0.97317 0.0
C2367 C 0.22875 0.66181 0.98725 0.0
C2368 C 0.23021 0.68792 0.97251 0.0
C2369 C 0.2367 0.68825 0.9432 0.0
H2370 H 0.25458 0.33261 0.48126 0.0
H2371 H 0.29092 0.26503 0.43067 0.0
H2372 H 0.28755 0.2952 0.38756 0.0
H2373 H 0.20511 0.35909 0.42656 0.0
H2374 H 0.21007 0.39559 0.43682 0.0
H2375 H 0.21355 0.36774 0.46291 0.0
H2376 H 0.26387 0.38609 0.47522 0.0
H2377 H 0.26085 0.41361 0.44875 0.0
H2378 H 0.29016 0.38907 0.44746 0.0
H2379 H 0.28207 0.33343 0.35066 0.0
H2380 H 0.2721 0.37605 0.32161 0.0
H2381 H 0.24027 0.41933 0.39651 0.0
C2382 C 0.26103 0.32404 0.46089 0.0
C2383 C 0.27234 0.29646 0.45883 0.0
C2384 C 0.28154 0.28598 0.43224 0.0
C2385 C 0.27992 0.30301 0.4078 0.0
C2386 C 0.26911 0.33042 0.41051 0.0
C2387 C 0.25952 0.34079 0.43629 0.0
C2388 C 0.24951 0.37122 0.43351 0.0
C2389 C 0.21767 0.37354 0.44035 0.0
C2390 C 0.26716 0.39117 0.45236 0.0
C2391 C 0.25525 0.37647 0.40223 0.0
C2392 C 0.26649 0.35264 0.38935 0.0
C2393 C 0.27315 0.35217 0.36048 0.0
C2394 C 0.26744 0.37647 0.34417 0.0
C2395 C 0.25543 0.40093 0.35683 0.0
C2396 C 0.24974 0.40103 0.38634 0.0
H2397 H 0.74937 0.16483 0.51411 0.0
H2398 H 0.79346 0.23089 0.56074 0.0
H2399 H 0.79608 0.19977 0.60271 0.0
H2400 H 0.70797 0.13871 0.57529 0.0
H2401 H 0.71022 0.10221 0.56414 0.0
H2402 H 0.71063 0.13026 0.53801 0.0
H2403 H 0.75804 0.11087 0.51796 0.0
H2404 H 0.758 0.08298 0.54423 0.0
H2405 H 0.78798 0.10661 0.54142 0.0
H2406 H 0.795 0.16159 0.63924 0.0
H2407 H 0.78887 0.1187 0.66884 0.0
H2408 H 0.74637 0.07664 0.59876 0.0
C2409 C 0.75917 0.17283 0.5333 0.0
C2410 C 0.77142 0.20018 0.53409 0.0
C2411 C 0.78424 0.20988 0.55953 0.0
C2412 C 0.78576 0.19241 0.58355 0.0
C2413 C 0.77414 0.16533 0.58191 0.0
C2414 C 0.76084 0.15562 0.5576 0.0
C2415 C 0.75044 0.12541 0.56155 0.0
C2416 C 0.71789 0.12408 0.55963 0.0
C2417 C 0.76447 0.10529 0.54001 0.0
C2418 C 0.76057 0.11954 0.59158 0.0
C2419 C 0.77394 0.14299 0.60298 0.0
C2420 C 0.7846 0.14304 0.63057 0.0
C2421 C 0.78113 0.11856 0.64717 0.0
C2422 C 0.76749 0.09426 0.63599 0.0
C2423 C 0.7573 0.09475 0.60773 0.0
loop_
_geom_bond_atom_site_label_1
_geom_bond_atom_site_label_2
_geom_bond_distance
_geom_bond_site_symmetry_2
_ccdc_geom_bond_type
Zn0 O6 1.969 . S
Zn0 O7 1.965 . S
Zn0 O11 2.024 . S
Zn0 O16 1.969 . S
Zn1 O8 1.969 1_655 S
Zn1 O14 1.969 . S
Zn1 O15 1.965 . S
Zn1 O17 2.024 . S
C2 O3 1.229 . S
C2 O11 1.058 . S
O3 C2 1.229 . S
C4 O5 1.229 . S
C4 O17 1.058 . S
O5 C4 1.229 . S
O6 Zn0 1.969 . S
O6 C9 1.267 . S
O7 Zn0 1.965 . S
O7 C18 1.260 . S
O8 Zn1 1.969 1_455 S
O8 C18 1.258 . S
C9 O6 1.267 . S
C9 O10 1.228 . S
O10 C9 1.228 . S
O11 Zn0 2.024 . S
O11 C2 1.058 . S
C12 O13 1.228 . S
C12 O14 1.267 . S
O13 C12 1.228 . S
O14 Zn1 1.969 . S
O14 C12 1.267 . S
O15 Zn1 1.965 . S
O15 C19 1.260 . S
O16 Zn0 1.969 . S
O16 C19 1.258 1_455 S
O17 Zn1 2.024 . S
O17 C4 1.058 . S
C18 O7 1.260 . S
C18 O8 1.258 . S
C19 O15 1.260 . S
C19 O16 1.258 1_655 S
Zn20 O26 1.969 . S
Zn20 O27 1.965 . S
Zn20 O31 2.024 . S
Zn20 O36 1.969 . S
Zn21 O28 1.969 . S
Zn21 O34 1.969 . S
Zn21 O35 1.965 . S
Zn21 O37 2.024 . S
C22 O23 1.229 . S
C22 O31 1.058 . S
O23 C22 1.229 . S
C24 O25 1.229 . S
C24 O37 1.058 . S
O25 C24 1.229 . S
O26 Zn20 1.969 . S
O26 C29 1.267 . S
O27 Zn20 1.965 . S
O27 C38 1.260 . S
O28 Zn21 1.969 . S
O28 C38 1.258 . S
C29 O26 1.267 . S
C29 O30 1.228 . S
O30 C29 1.228 . S
O31 Zn20 2.024 . S
O31 C22 1.058 . S
C32 O33 1.228 . S
C32 O34 1.267 . S
O33 C32 1.228 . S
O34 Zn21 1.969 . S
O34 C32 1.267 . S
O35 Zn21 1.965 . S
O35 C39 1.260 . S
O36 Zn20 1.969 . S
O36 C39 1.258 . S
O37 Zn21 2.024 . S
O37 C24 1.058 . S
C38 O27 1.260 . S
C38 O28 1.258 . S
C39 O35 1.260 . S
C39 O36 1.258 . S
Zn40 O46 1.969 . S
Zn40 O47 1.965 . S
Zn40 O51 2.024 . S
Zn40 O56 1.969 . S
Zn41 O48 1.969 . S
Zn41 O54 1.969 . S
Zn41 O55 1.965 . S
Zn41 O57 2.024 . S
C42 O43 1.229 . S
C42 O51 1.058 . S
O43 C42 1.229 . S
C44 O45 1.229 . S
C44 O57 1.058 . S
O45 C44 1.229 . S
O46 Zn40 1.969 . S
O46 C49 1.267 . S
O47 Zn40 1.965 . S
O47 C58 1.260 . S
O48 Zn41 1.969 . S
O48 C58 1.258 . S
C49 O46 1.267 . S
C49 O50 1.228 . S
O50 C49 1.228 . S
O51 Zn40 2.024 . S
O51 C42 1.058 . S
C52 O53 1.228 . S
C52 O54 1.267 . S
O53 C52 1.228 . S
O54 Zn41 1.969 . S
O54 C52 1.267 . S
O55 Zn41 1.965 . S
O55 C59 1.260 . S
O56 Zn40 1.969 . S
O56 C59 1.258 . S
O57 Zn41 2.024 . S
O57 C44 1.058 . S
C58 O47 1.260 . S
C58 O48 1.258 . S
C59 O55 1.260 . S
C59 O56 1.258 . S
Zn60 O66 1.969 . S
Zn60 O67 1.965 . S
Zn60 O71 2.024 . S
Zn60 O76 1.969 . S
Zn61 O68 1.969 1_455 S
Zn61 O74 1.969 . S
Zn61 O75 1.965 . S
Zn61 O77 2.024 . S
C62 O63 1.229 . S
C62 O71 1.058 . S
O63 C62 1.229 . S
C64 O65 1.229 . S
C64 O77 1.058 . S
O65 C64 1.229 . S
O66 Zn60 1.969 . S
O66 C69 1.267 . S
O67 Zn60 1.965 . S
O67 C78 1.260 . S
O68 Zn61 1.969 1_655 S
O68 C78 1.258 . S
C69 O66 1.267 . S
C69 O70 1.228 . S
O70 C69 1.228 . S
O71 Zn60 2.024 . S
O71 C62 1.058 . S
C72 O73 1.228 . S
C72 O74 1.267 . S
O73 C72 1.228 . S
O74 Zn61 1.969 . S
O74 C72 1.267 . S
O75 Zn61 1.965 . S
O75 C79 1.260 . S
O76 Zn60 1.969 . S
O76 C79 1.258 1_655 S
O77 Zn61 2.024 . S
O77 C64 1.058 . S
C78 O67 1.260 . S
C78 O68 1.258 . S
C79 O75 1.260 . S
C79 O76 1.258 1_455 S
Zn80 O86 1.969 . S
Zn80 O87 1.965 . S
Zn80 O91 2.024 . S
Zn80 O96 1.969 . S
Zn81 O88 1.969 1_565 S
Zn81 O94 1.969 . S
Zn81 O95 1.965 . S
Zn81 O97 2.024 . S
C82 O83 1.229 . S
C82 O91 1.058 . S
O83 C82 1.229 . S
C84 O85 1.229 . S
C84 O97 1.058 . S
O85 C84 1.229 . S
O86 Zn80 1.969 . S
O86 C89 1.267 . S
O87 Zn80 1.965 . S
O87 C98 1.260 . S
O88 Zn81 1.969 1_545 S
O88 C98 1.258 . S
C89 O86 1.267 . S
C89 O90 1.228 . S
O90 C89 1.228 . S
O91 Zn80 2.024 . S
O91 C82 1.058 . S
C92 O93 1.228 . S
C92 O94 1.267 . S
O93 C92 1.228 . S
O94 Zn81 1.969 . S
O94 C92 1.267 . S
O95 Zn81 1.965 . S
O95 C99 1.260 . S
O96 Zn80 1.969 . S
O96 C99 1.258 1_545 S
O97 Zn81 2.024 . S
O97 C84 1.058 . S
C98 O87 1.260 . S
C98 O88 1.258 . S
C99 O95 1.260 . S
C99 O96 1.258 1_565 S
Zn100 O106 1.969 . S
Zn100 O107 1.965 . S
Zn100 O111 2.024 . S
Zn100 O116 1.969 . S
Zn101 O108 1.969 1_545 S
Zn101 O114 1.969 . S
Zn101 O115 1.965 . S
Zn101 O117 2.024 . S
C102 O103 1.229 . S
C102 O111 1.058 . S
O103 C102 1.229 . S
C104 O105 1.229 . S
C104 O117 1.058 . S
O105 C104 1.229 . S
O106 Zn100 1.969 . S
O106 C109 1.267 . S
O107 Zn100 1.965 . S
O107 C118 1.260 . S
O108 Zn101 1.969 1_565 S
O108 C118 1.258 . S
C109 O106 1.267 . S
C109 O110 1.228 . S
O110 C109 1.228 . S
O111 Zn100 2.024 . S
O111 C102 1.058 . S
C112 O113 1.228 . S
C112 O114 1.267 . S
O113 C112 1.228 . S
O114 Zn101 1.969 . S
O114 C112 1.267 . S
O115 Zn101 1.965 . S
O115 C119 1.260 . S
O116 Zn100 1.969 . S
O116 C119 1.258 1_565 S
O117 Zn101 2.024 . S
O117 C104 1.058 . S
C118 O107 1.260 . S
C118 O108 1.258 . S
C119 O115 1.260 . S
C119 O116 1.258 1_545 S
Zn120 O126 1.969 . S
Zn120 O127 1.965 . S
Zn120 O131 2.024 . S
Zn120 O136 1.969 . S
Zn121 O128 1.969 . S
Zn121 O134 1.969 . S
Zn121 O135 1.965 . S
Zn121 O137 2.024 . S
C122 O123 1.229 . S
C122 O131 1.058 . S
O123 C122 1.229 . S
C124 O125 1.229 . S
C124 O137 1.058 . S
O125 C124 1.229 . S
O126 Zn120 1.969 . S
O126 C129 1.267 . S
O127 Zn120 1.965 . S
O127 C138 1.260 . S
O128 Zn121 1.969 . S
O128 C138 1.258 . S
C129 O126 1.267 . S
C129 O130 1.228 . S
O130 C129 1.228 . S
O131 Zn120 2.024 . S
O131 C122 1.058 . S
C132 O133 1.228 . S
C132 O134 1.267 . S
O133 C132 1.228 . S
O134 Zn121 1.969 . S
O134 C132 1.267 . S
O135 Zn121 1.965 . S
O135 C139 1.260 . S
O136 Zn120 1.969 . S
O136 C139 1.258 . S
O137 Zn121 2.024 . S
O137 C124 1.058 . S
C138 O127 1.260 . S
C138 O128 1.258 . S
C139 O135 1.260 . S
C139 O136 1.258 . S
Zn140 O146 1.969 . S
Zn140 O147 1.965 . S
Zn140 O151 2.024 . S
Zn140 O156 1.969 . S
Zn141 O148 1.969 . S
Zn141 O154 1.969 . S
Zn141 O155 1.965 . S
Zn141 O157 2.024 . S
C142 O143 1.229 . S
C142 O151 1.058 . S
O143 C142 1.229 . S
C144 O145 1.229 . S
C144 O157 1.058 . S
O145 C144 1.229 . S
O146 Zn140 1.969 . S
O146 C149 1.267 . S
O147 Zn140 1.965 . S
O147 C158 1.260 . S
O148 Zn141 1.969 . S
O148 C158 1.258 . S
C149 O146 1.267 . S
C149 O150 1.228 . S
O150 C149 1.228 . S
O151 Zn140 2.024 . S
O151 C142 1.058 . S
C152 O153 1.228 . S
C152 O154 1.267 . S
O153 C152 1.228 . S
O154 Zn141 1.969 . S
O154 C152 1.267 . S
O155 Zn141 1.965 . S
O155 C159 1.260 . S
O156 Zn140 1.969 . S
O156 C159 1.258 . S
O157 Zn141 2.024 . S
O157 C144 1.058 . S
C158 O147 1.260 . S
C158 O148 1.258 . S
C159 O155 1.260 . S
C159 O156 1.258 . S
Zn160 O166 1.969 . S
Zn160 O167 1.965 . S
Zn160 O171 2.024 . S
Zn160 O176 1.969 . S
Zn161 O168 1.969 1_556 S
Zn161 O174 1.969 . S
Zn161 O175 1.965 . S
Zn161 O177 2.024 . S
C162 O163 1.229 . S
C162 O171 1.058 . S
O163 C162 1.229 . S
C164 O165 1.229 . S
C164 O177 1.058 . S
O165 C164 1.229 . S
O166 Zn160 1.969 . S
O166 C169 1.267 . S
O167 Zn160 1.965 . S
O167 C178 1.260 . S
O168 Zn161 1.969 1_554 S
O168 C178 1.258 . S
C169 O166 1.267 . S
C169 O170 1.228 . S
O170 C169 1.228 . S
O171 Zn160 2.024 . S
O171 C162 1.058 . S
C172 O173 1.228 . S
C172 O174 1.267 . S
O173 C172 1.228 . S
O174 Zn161 1.969 . S
O174 C172 1.267 . S
O175 Zn161 1.965 . S
O175 C179 1.260 . S
O176 Zn160 1.969 . S
O176 C179 1.258 1_554 S
O177 Zn161 2.024 . S
O177 C164 1.058 . S
C178 O167 1.260 . S
C178 O168 1.258 . S
C179 O175 1.260 . S
C179 O176 1.258 1_556 S
Zn180 O186 1.969 . S
Zn180 O187 1.965 . S
Zn180 O191 2.024 . S
Zn180 O196 1.969 . S
Zn181 O188 1.969 1_554 S
Zn181 O194 1.969 . S
Zn181 O195 1.965 . S
Zn181 O197 2.024 . S
C182 O183 1.229 . S
C182 O191 1.058 . S
O183 C182 1.229 . S
C184 O185 1.229 . S
C184 O197 1.058 . S
O185 C184 1.229 . S
O186 Zn180 1.969 . S
O186 C189 1.267 . S
O187 Zn180 1.965 . S
O187 C198 1.260 . S
O188 Zn181 1.969 1_556 S
O188 C198 1.258 . S
C189 O186 1.267 . S
C189 O190 1.228 . S
O190 C189 1.228 . S
O191 Zn180 2.024 . S
O191 C182 1.058 . S
C192 O193 1.228 . S
C192 O194 1.267 . S
O193 C192 1.228 . S
O194 Zn181 1.969 . S
O194 C192 1.267 . S
O195 Zn181 1.965 . S
O195 C199 1.260 . S
O196 Zn180 1.969 . S
O196 C199 1.258 1_556 S
O197 Zn181 2.024 . S
O197 C184 1.058 . S
C198 O187 1.260 . S
C198 O188 1.258 . S
C199 O195 1.260 . S
C199 O196 1.258 1_554 S
Zn200 O206 1.969 . S
Zn200 O207 1.965 . S
Zn200 O211 2.024 . S
Zn200 O216 1.969 . S
Zn201 O208 1.969 . S
Zn201 O214 1.969 . S
Zn201 O215 1.965 . S
Zn201 O217 2.024 . S
C202 O203 1.229 . S
C202 O211 1.058 . S
O203 C202 1.229 . S
C204 O205 1.229 . S
C204 O217 1.058 . S
O205 C204 1.229 . S
O206 Zn200 1.969 . S
O206 C209 1.267 . S
O207 Zn200 1.965 . S
O207 C218 1.260 . S
O208 Zn201 1.969 . S
O208 C218 1.258 . S
C209 O206 1.267 . S
C209 O210 1.228 . S
O210 C209 1.228 . S
O211 Zn200 2.024 . S
O211 C202 1.058 . S
C212 O213 1.228 . S
C212 O214 1.267 . S
O213 C212 1.228 . S
O214 Zn201 1.969 . S
O214 C212 1.267 . S
O215 Zn201 1.965 . S
O215 C219 1.260 . S
O216 Zn200 1.969 . S
O216 C219 1.258 . S
O217 Zn201 2.024 . S
O217 C204 1.058 . S
C218 O207 1.260 . S
C218 O208 1.258 . S
C219 O215 1.260 . S
C219 O216 1.258 . S
Zn220 O226 1.969 . S
Zn220 O227 1.965 . S
Zn220 O231 2.024 . S
Zn220 O236 1.969 . S
Zn221 O228 1.969 . S
Zn221 O234 1.969 . S
Zn221 O235 1.965 . S
Zn221 O237 2.024 . S
C222 O223 1.229 . S
C222 O231 1.058 . S
O223 C222 1.229 . S
C224 O225 1.229 . S
C224 O237 1.058 . S
O225 C224 1.229 . S
O226 Zn220 1.969 . S
O226 C229 1.267 . S
O227 Zn220 1.965 . S
O227 C238 1.260 . S
O228 Zn221 1.969 . S
O228 C238 1.258 . S
C229 O226 1.267 . S
C229 O230 1.228 . S
O230 C229 1.228 . S
O231 Zn220 2.024 . S
O231 C222 1.058 . S
C232 O233 1.228 . S
C232 O234 1.267 . S
O233 C232 1.228 . S
O234 Zn221 1.969 . S
O234 C232 1.267 . S
O235 Zn221 1.965 . S
O235 C239 1.260 . S
O236 Zn220 1.969 . S
O236 C239 1.258 . S
O237 Zn221 2.024 . S
O237 C224 1.058 . S
C238 O227 1.260 . S
C238 O228 1.258 . S
C239 O235 1.260 . S
C239 O236 1.258 . S
Zn240 O246 1.969 . S
Zn240 O247 1.965 . S
Zn240 O251 2.024 . S
Zn240 O256 1.969 1_455 S
Zn241 O248 1.969 . S
Zn241 O254 1.969 . S
Zn241 O255 1.965 . S
Zn241 O257 2.024 . S
C242 O243 1.229 . S
C242 O251 1.058 . S
O243 C242 1.229 . S
C244 O245 1.229 . S
C244 O257 1.058 . S
O245 C244 1.229 . S
O246 Zn240 1.969 . S
O246 C249 1.267 . S
O247 Zn240 1.965 . S
O247 C258 1.260 . S
O248 Zn241 1.969 . S
O248 C258 1.258 1_655 S
C249 O246 1.267 . S
C249 O250 1.228 . S
O250 C249 1.228 . S
O251 Zn240 2.024 . S
O251 C242 1.058 . S
C252 O253 1.228 . S
C252 O254 1.267 . S
O253 C252 1.228 . S
O254 Zn241 1.969 . S
O254 C252 1.267 . S
O255 Zn241 1.965 . S
O255 C259 1.260 . S
O256 Zn240 1.969 1_655 S
O256 C259 1.258 . S
O257 Zn241 2.024 . S
O257 C244 1.058 . S
C258 O247 1.260 . S
C258 O248 1.258 1_455 S
C259 O255 1.260 . S
C259 O256 1.258 . S
Zn260 O266 1.969 . S
Zn260 O267 1.965 . S
Zn260 O271 2.024 . S
Zn260 O276 1.969 . S
Zn261 O268 1.969 . S
Zn261 O274 1.969 . S
Zn261 O275 1.965 . S
Zn261 O277 2.024 . S
C262 O263 1.229 . S
C262 O271 1.058 . S
O263 C262 1.229 . S
C264 O265 1.229 . S
C264 O277 1.058 . S
O265 C264 1.229 . S
O266 Zn260 1.969 . S
O266 C269 1.267 . S
O267 Zn260 1.965 . S
O267 C278 1.260 . S
O268 Zn261 1.969 . S
O268 C278 1.258 . S
C269 O266 1.267 . S
C269 O270 1.228 . S
O270 C269 1.228 . S
O271 Zn260 2.024 . S
O271 C262 1.058 . S
C272 O273 1.228 . S
C272 O274 1.267 . S
O273 C272 1.228 . S
O274 Zn261 1.969 . S
O274 C272 1.267 . S
O275 Zn261 1.965 . S
O275 C279 1.260 . S
O276 Zn260 1.969 . S
O276 C279 1.258 . S
O277 Zn261 2.024 . S
O277 C264 1.058 . S
C278 O267 1.260 . S
C278 O268 1.258 . S
C279 O275 1.260 . S
C279 O276 1.258 . S
Zn280 O286 1.969 . S
Zn280 O287 1.965 . S
Zn280 O291 2.024 . S
Zn280 O296 1.969 . S
Zn281 O288 1.969 . S
Zn281 O294 1.969 . S
Zn281 O295 1.965 . S
Zn281 O297 2.024 . S
C282 O283 1.229 . S
C282 O291 1.058 . S
O283 C282 1.229 . S
C284 O285 1.229 . S
C284 O297 1.058 . S
O285 C284 1.229 . S
O286 Zn280 1.969 . S
O286 C289 1.267 . S
O287 Zn280 1.965 . S
O287 C298 1.260 . S
O288 Zn281 1.969 . S
O288 C298 1.258 . S
C289 O286 1.267 . S
C289 O290 1.228 . S
O290 C289 1.228 . S
O291 Zn280 2.024 . S
O291 C282 1.058 . S
C292 O293 1.228 . S
C292 O294 1.267 . S
O293 C292 1.228 . S
O294 Zn281 1.969 . S
O294 C292 1.267 . S
O295 Zn281 1.965 . S
O295 C299 1.260 . S
O296 Zn280 1.969 . S
O296 C299 1.258 . S
O297 Zn281 2.024 . S
O297 C284 1.058 . S
C298 O287 1.260 . S
C298 O288 1.258 . S
C299 O295 1.260 . S
C299 O296 1.258 . S
Zn300 O306 1.969 . S
Zn300 O307 1.965 . S
Zn300 O311 2.024 . S
Zn300 O316 1.969 1_655 S
Zn301 O308 1.969 . S
Zn301 O314 1.969 . S
Zn301 O315 1.965 . S
Zn301 O317 2.024 . S
C302 O303 1.229 . S
C302 O311 1.058 . S
O303 C302 1.229 . S
C304 O305 1.229 . S
C304 O317 1.058 . S
O305 C304 1.229 . S
O306 Zn300 1.969 . S
O306 C309 1.267 . S
O307 Zn300 1.965 . S
O307 C318 1.260 . S
O308 Zn301 1.969 . S
O308 C318 1.258 1_455 S
C309 O306 1.267 . S
C309 O310 1.228 . S
O310 C309 1.228 . S
O311 Zn300 2.024 . S
O311 C302 1.058 . S
C312 O313 1.228 . S
C312 O314 1.267 . S
O313 C312 1.228 . S
O314 Zn301 1.969 . S
O314 C312 1.267 . S
O315 Zn301 1.965 . S
O315 C319 1.260 . S
O316 Zn300 1.969 1_455 S
O316 C319 1.258 . S
O317 Zn301 2.024 . S
O317 C304 1.058 . S
C318 O307 1.260 . S
C318 O308 1.258 1_655 S
C319 O315 1.260 . S
C319 O316 1.258 . S
Zn320 O326 1.969 . S
Zn320 O327 1.965 . S
Zn320 O331 2.024 . S
Zn320 O336 1.969 1_545 S
Zn321 O328 1.969 . S
Zn321 O334 1.969 . S
Zn321 O335 1.965 . S
Zn321 O337 2.024 . S
C322 O323 1.229 . S
C322 O331 1.058 . S
O323 C322 1.229 . S
C324 O325 1.229 . S
C324 O337 1.058 . S
O325 C324 1.229 . S
O326 Zn320 1.969 . S
O326 C329 1.267 . S
O327 Zn320 1.965 . S
O327 C338 1.260 . S
O328 Zn321 1.969 . S
O328 C338 1.258 1_565 S
C329 O326 1.267 . S
C329 O330 1.228 . S
O330 C329 1.228 . S
O331 Zn320 2.024 . S
O331 C322 1.058 . S
C332 O333 1.228 . S
C332 O334 1.267 . S
O333 C332 1.228 . S
O334 Zn321 1.969 . S
O334 C332 1.267 . S
O335 Zn321 1.965 . S
O335 C339 1.260 . S
O336 Zn320 1.969 1_565 S
O336 C339 1.258 . S
O337 Zn321 2.024 . S
O337 C324 1.058 . S
C338 O327 1.260 . S
C338 O328 1.258 1_545 S
C339 O335 1.260 . S
C339 O336 1.258 . S
Zn340 O346 1.969 . S
Zn340 O347 1.965 . S
Zn340 O351 2.024 . S
Zn340 O356 1.969 1_565 S
Zn341 O348 1.969 . S
Zn341 O354 1.969 . S
Zn341 O355 1.965 . S
Zn341 O357 2.024 . S
C342 O343 1.229 . S
C342 O351 1.058 . S
O343 C342 1.229 . S
C344 O345 1.229 . S
C344 O357 1.058 . S
O345 C344 1.229 . S
O346 Zn340 1.969 . S
O346 C349 1.267 . S
O347 Zn340 1.965 . S
O347 C358 1.260 . S
O348 Zn341 1.969 . S
O348 C358 1.258 1_545 S
C349 O346 1.267 . S
C349 O350 1.228 . S
O350 C349 1.228 . S
O351 Zn340 2.024 . S
O351 C342 1.058 . S
C352 O353 1.228 . S
C352 O354 1.267 . S
O353 C352 1.228 . S
O354 Zn341 1.969 . S
O354 C352 1.267 . S
O355 Zn341 1.965 . S
O355 C359 1.260 . S
O356 Zn340 1.969 1_545 S
O356 C359 1.258 . S
O357 Zn341 2.024 . S
O357 C344 1.058 . S
C358 O347 1.260 . S
C358 O348 1.258 1_565 S
C359 O355 1.260 . S
C359 O356 1.258 . S
Zn360 O366 1.969 . S
Zn360 O367 1.965 . S
Zn360 O371 2.024 . S
Zn360 O376 1.969 . S
Zn361 O368 1.969 . S
Zn361 O374 1.969 . S
Zn361 O375 1.965 . S
Zn361 O377 2.024 . S
C362 O363 1.229 . S
C362 O371 1.058 . S
O363 C362 1.229 . S
C364 O365 1.229 . S
C364 O377 1.058 . S
O365 C364 1.229 . S
O366 Zn360 1.969 . S
O366 C369 1.267 . S
O367 Zn360 1.965 . S
O367 C378 1.260 . S
O368 Zn361 1.969 . S
O368 C378 1.258 . S
C369 O366 1.267 . S
C369 O370 1.228 . S
O370 C369 1.228 . S
O371 Zn360 2.024 . S
O371 C362 1.058 . S
C372 O373 1.228 . S
C372 O374 1.267 . S
O373 C372 1.228 . S
O374 Zn361 1.969 . S
O374 C372 1.267 . S
O375 Zn361 1.965 . S
O375 C379 1.260 . S
O376 Zn360 1.969 . S
O376 C379 1.258 . S
O377 Zn361 2.024 . S
O377 C364 1.058 . S
C378 O367 1.260 . S
C378 O368 1.258 . S
C379 O375 1.260 . S
C379 O376 1.258 . S
Zn380 O386 1.969 . S
Zn380 O387 1.965 . S
Zn380 O391 2.024 . S
Zn380 O396 1.969 . S
Zn381 O388 1.969 . S
Zn381 O394 1.969 . S
Zn381 O395 1.965 . S
Zn381 O397 2.024 . S
C382 O383 1.229 . S
C382 O391 1.058 . S
O383 C382 1.229 . S
C384 O385 1.229 . S
C384 O397 1.058 . S
O385 C384 1.229 . S
O386 Zn380 1.969 . S
O386 C389 1.267 . S
O387 Zn380 1.965 . S
O387 C398 1.260 . S
O388 Zn381 1.969 . S
O388 C398 1.258 . S
C389 O386 1.267 . S
C389 O390 1.228 . S
O390 C389 1.228 . S
O391 Zn380 2.024 . S
O391 C382 1.058 . S
C392 O393 1.228 . S
C392 O394 1.267 . S
O393 C392 1.228 . S
O394 Zn381 1.969 . S
O394 C392 1.267 . S
O395 Zn381 1.965 . S
O395 C399 1.260 . S
O396 Zn380 1.969 . S
O396 C399 1.258 . S
O397 Zn381 2.024 . S
O397 C384 1.058 . S
C398 O387 1.260 . S
C398 O388 1.258 . S
C399 O395 1.260 . S
C399 O396 1.258 . S
Zn400 O406 1.969 . S
Zn400 O407 1.965 . S
Zn400 O411 2.024 . S
Zn400 O416 1.969 1_554 S
Zn401 O408 1.969 . S
Zn401 O414 1.969 . S
Zn401 O415 1.965 . S
Zn401 O417 2.024 . S
C402 O403 1.229 . S
C402 O411 1.058 . S
O403 C402 1.229 . S
C404 O405 1.229 . S
C404 O417 1.058 . S
O405 C404 1.229 . S
O406 Zn400 1.969 . S
O406 C409 1.267 . S
O407 Zn400 1.965 . S
O407 C418 1.260 . S
O408 Zn401 1.969 . S
O408 C418 1.258 1_556 S
C409 O406 1.267 . S
C409 O410 1.228 . S
O410 C409 1.228 . S
O411 Zn400 2.024 . S
O411 C402 1.058 . S
C412 O413 1.228 . S
C412 O414 1.267 . S
O413 C412 1.228 . S
O414 Zn401 1.969 . S
O414 C412 1.267 . S
O415 Zn401 1.965 . S
O415 C419 1.260 . S
O416 Zn400 1.969 1_556 S
O416 C419 1.258 . S
O417 Zn401 2.024 . S
O417 C404 1.058 . S
C418 O407 1.260 . S
C418 O408 1.258 1_554 S
C419 O415 1.260 . S
C419 O416 1.258 . S
Zn420 O426 1.969 . S
Zn420 O427 1.965 . S
Zn420 O431 2.024 . S
Zn420 O436 1.969 1_556 S
Zn421 O428 1.969 . S
Zn421 O434 1.969 . S
Zn421 O435 1.965 . S
Zn421 O437 2.024 . S
C422 O423 1.229 . S
C422 O431 1.058 . S
O423 C422 1.229 . S
C424 O425 1.229 . S
C424 O437 1.058 . S
O425 C424 1.229 . S
O426 Zn420 1.969 . S
O426 C429 1.267 . S
O427 Zn420 1.965 . S
O427 C438 1.260 . S
O428 Zn421 1.969 . S
O428 C438 1.258 1_554 S
C429 O426 1.267 . S
C429 O430 1.228 . S
O430 C429 1.228 . S
O431 Zn420 2.024 . S
O431 C422 1.058 . S
C432 O433 1.228 . S
C432 O434 1.267 . S
O433 C432 1.228 . S
O434 Zn421 1.969 . S
O434 C432 1.267 . S
O435 Zn421 1.965 . S
O435 C439 1.260 . S
O436 Zn420 1.969 1_554 S
O436 C439 1.258 . S
O437 Zn421 2.024 . S
O437 C424 1.058 . S
C438 O427 1.260 . S
C438 O428 1.258 1_556 S
C439 O435 1.260 . S
C439 O436 1.258 . S
Zn440 O446 1.969 . S
Zn440 O447 1.965 . S
Zn440 O451 2.024 . S
Zn440 O456 1.969 . S
Zn441 O448 1.969 . S
Zn441 O454 1.969 . S
Zn441 O455 1.965 . S
Zn441 O457 2.024 . S
C442 O443 1.229 . S
C442 O451 1.058 . S
O443 C442 1.229 . S
C444 O445 1.229 . S
C444 O457 1.058 . S
O445 C444 1.229 . S
O446 Zn440 1.969 . S
O446 C449 1.267 . S
O447 Zn440 1.965 . S
O447 C458 1.260 . S
O448 Zn441 1.969 . S
O448 C458 1.258 . S
C449 O446 1.267 . S
C449 O450 1.228 . S
O450 C449 1.228 . S
O451 Zn440 2.024 . S
O451 C442 1.058 . S
C452 O453 1.228 . S
C452 O454 1.267 . S
O453 C452 1.228 . S
O454 Zn441 1.969 . S
O454 C452 1.267 . S
O455 Zn441 1.965 . S
O455 C459 1.260 . S
O456 Zn440 1.969 . S
O456 C459 1.258 . S
O457 Zn441 2.024 . S
O457 C444 1.058 . S
C458 O447 1.260 . S
C458 O448 1.258 . S
C459 O455 1.260 . S
C459 O456 1.258 . S
Zn460 O466 1.969 . S
Zn460 O467 1.965 . S
Zn460 O471 2.024 . S
Zn460 O476 1.969 . S
Zn461 O468 1.969 . S
Zn461 O474 1.969 . S
Zn461 O475 1.965 . S
Zn461 O477 2.024 . S
C462 O463 1.229 . S
C462 O471 1.058 . S
O463 C462 1.229 . S
C464 O465 1.229 . S
C464 O477 1.058 . S
O465 C464 1.229 . S
O466 Zn460 1.969 . S
O466 C469 1.267 . S
O467 Zn460 1.965 . S
O467 C478 1.260 . S
O468 Zn461 1.969 . S
O468 C478 1.258 . S
C469 O466 1.267 . S
C469 O470 1.228 . S
O470 C469 1.228 . S
O471 Zn460 2.024 . S
O471 C462 1.058 . S
C472 O473 1.228 . S
C472 O474 1.267 . S
O473 C472 1.228 . S
O474 Zn461 1.969 . S
O474 C472 1.267 . S
O475 Zn461 1.965 . S
O475 C479 1.260 . S
O476 Zn460 1.969 . S
O476 C479 1.258 . S
O477 Zn461 2.024 . S
O477 C464 1.058 . S
C478 O467 1.260 . S
C478 O468 1.258 . S
C479 O475 1.260 . S
C479 O476 1.258 . S
H480 C492 0.930 . S
H481 C494 0.930 . S
H482 C495 0.930 . S
H483 C499 0.959 . S
H484 C499 0.959 . S
H485 C499 0.961 . S
H486 C500 0.960 . S
H487 C500 0.961 . S
H488 C500 0.959 . S
H489 C503 0.929 . S
H490 C504 0.931 . S
H491 C506 0.930 . S
C492 H480 0.930 . S
C492 C493 1.399 . S
C492 C497 1.399 . S
C493 C492 1.399 . S
C493 C494 1.376 . S
C494 H481 0.930 . S
C494 C493 1.376 . S
C494 C495 1.388 . S
C495 H482 0.930 . S
C495 C494 1.388 . S
C495 C496 1.390 . S
C496 C495 1.390 . S
C496 C497 1.394 . S
C496 C502 1.465 . S
C497 C492 1.399 . S
C497 C496 1.394 . S
C497 C498 1.516 . S
C498 C497 1.516 . S
C498 C499 1.502 . S
C498 C500 1.561 . S
C498 C501 1.526 . S
C499 H483 0.959 . S
C499 H484 0.959 . S
C499 H485 0.961 . S
C499 C498 1.502 . S
C500 H486 0.960 . S
C500 H487 0.961 . S
C500 H488 0.959 . S
C500 C498 1.561 . S
C501 C498 1.526 . S
C501 C502 1.396 . S
C501 C506 1.390 . S
C502 C496 1.465 . S
C502 C501 1.396 . S
C502 C503 1.399 . S
C503 H489 0.929 . S
C503 C502 1.399 . S
C503 C504 1.385 . S
C504 H490 0.931 . S
C504 C503 1.385 . S
C504 C505 1.389 . S
C505 C504 1.389 . S
C505 C506 1.387 . S
C506 H491 0.930 . S
C506 C501 1.390 . S
C506 C505 1.387 . S
H507 C519 0.930 . S
H508 C521 0.930 . S
H509 C522 0.930 . S
H510 C526 0.959 . S
H511 C526 0.959 . S
H512 C526 0.961 . S
H513 C527 0.960 . S
H514 C527 0.961 . S
H515 C527 0.959 . S
H516 C530 0.929 . S
H517 C531 0.931 . S
H518 C533 0.930 . S
C519 H507 0.930 . S
C519 C520 1.399 . S
C519 C524 1.399 . S
C520 C519 1.399 . S
C520 C521 1.376 . S
C521 H508 0.930 . S
C521 C520 1.376 . S
C521 C522 1.388 . S
C522 H509 0.930 . S
C522 C521 1.388 . S
C522 C523 1.390 . S
C523 C522 1.390 . S
C523 C524 1.394 . S
C523 C529 1.465 . S
C524 C519 1.399 . S
C524 C523 1.394 . S
C524 C525 1.516 . S
C525 C524 1.516 . S
C525 C526 1.502 . S
C525 C527 1.561 . S
C525 C528 1.526 . S
C526 H510 0.959 . S
C526 H511 0.959 . S
C526 H512 0.961 . S
C526 C525 1.502 . S
C527 H513 0.960 . S
C527 H514 0.961 . S
C527 H515 0.959 . S
C527 C525 1.561 . S
C528 C525 1.526 . S
C528 C529 1.396 . S
C528 C533 1.390 . S
C529 C523 1.465 . S
C529 C528 1.396 . S
C529 C530 1.399 . S
C530 H516 0.929 . S
C530 C529 1.399 . S
C530 C531 1.385 . S
C531 H517 0.931 . S
C531 C530 1.385 . S
C531 C532 1.389 . S
C532 C531 1.389 . S
C532 C533 1.387 . S
C533 H518 0.930 . S
C533 C528 1.390 . S
C533 C532 1.387 . S
H534 C546 0.930 . S
H535 C548 0.930 . S
H536 C549 0.930 . S
H537 C553 0.959 . S
H538 C553 0.959 . S
H539 C553 0.961 . S
H540 C554 0.960 . S
H541 C554 0.961 . S
H542 C554 0.959 . S
H543 C557 0.929 . S
H544 C558 0.931 . S
H545 C560 0.930 . S
C546 H534 0.930 . S
C546 C547 1.399 . S
C546 C551 1.399 . S
C547 C546 1.399 . S
C547 C548 1.376 . S
C548 H535 0.930 . S
C548 C547 1.376 . S
C548 C549 1.388 . S
C549 H536 0.930 . S
C549 C548 1.388 . S
C549 C550 1.390 . S
C550 C549 1.390 . S
C550 C551 1.394 . S
C550 C556 1.465 . S
C551 C546 1.399 . S
C551 C550 1.394 . S
C551 C552 1.516 . S
C552 C551 1.516 . S
C552 C553 1.502 . S
C552 C554 1.561 . S
C552 C555 1.526 . S
C553 H537 0.959 . S
C553 H538 0.959 . S
C553 H539 0.961 . S
C553 C552 1.502 . S
C554 H540 0.960 . S
C554 H541 0.961 . S
C554 H542 0.959 . S
C554 C552 1.561 . S
C555 C552 1.526 . S
C555 C556 1.396 . S
C555 C560 1.390 . S
C556 C550 1.465 . S
C556 C555 1.396 . S
C556 C557 1.399 . S
C557 H543 0.929 . S
C557 C556 1.399 . S
C557 C558 1.385 . S
C558 H544 0.931 . S
C558 C557 1.385 . S
C558 C559 1.389 . S
C559 C558 1.389 . S
C559 C560 1.387 . S
C560 H545 0.930 . S
C560 C555 1.390 . S
C560 C559 1.387 . S
H561 C573 0.930 . S
H562 C575 0.930 . S
H563 C576 0.930 . S
H564 C580 0.959 . S
H565 C580 0.959 . S
H566 C580 0.961 . S
H567 C581 0.960 . S
H568 C581 0.961 . S
H569 C581 0.959 . S
H570 C584 0.929 . S
H571 C585 0.931 . S
H572 C587 0.930 . S
C573 H561 0.930 . S
C573 C574 1.399 . S
C573 C578 1.399 . S
C574 C573 1.399 . S
C574 C575 1.376 . S
C575 H562 0.930 . S
C575 C574 1.376 . S
C575 C576 1.388 . S
C576 H563 0.930 . S
C576 C575 1.388 . S
C576 C577 1.390 . S
C577 C576 1.390 . S
C577 C578 1.394 . S
C577 C583 1.465 . S
C578 C573 1.399 . S
C578 C577 1.394 . S
C578 C579 1.516 . S
C579 C578 1.516 . S
C579 C580 1.502 . S
C579 C581 1.561 . S
C579 C582 1.526 . S
C580 H564 0.959 . S
C580 H565 0.959 . S
C580 H566 0.961 . S
C580 C579 1.502 . S
C581 H567 0.960 . S
C581 H568 0.961 . S
C581 H569 0.959 . S
C581 C579 1.561 . S
C582 C579 1.526 . S
C582 C583 1.396 . S
C582 C587 1.390 . S
C583 C577 1.465 . S
C583 C582 1.396 . S
C583 C584 1.399 . S
C584 H570 0.929 . S
C584 C583 1.399 . S
C584 C585 1.385 . S
C585 H571 0.931 . S
C585 C584 1.385 . S
C585 C586 1.389 . S
C586 C585 1.389 . S
C586 C587 1.387 . S
C587 H572 0.930 . S
C587 C582 1.390 . S
C587 C586 1.387 . S
H588 C600 0.930 . S
H589 C602 0.930 . S
H590 C603 0.930 . S
H591 C607 0.959 . S
H592 C607 0.959 . S
H593 C607 0.961 . S
H594 C608 0.960 . S
H595 C608 0.961 . S
H596 C608 0.959 . S
H597 C611 0.929 . S
H598 C612 0.931 . S
H599 C614 0.930 . S
C600 H588 0.930 . S
C600 C601 1.399 . S
C600 C605 1.399 . S
C601 C600 1.399 . S
C601 C602 1.376 . S
C602 H589 0.930 . S
C602 C601 1.376 . S
C602 C603 1.388 . S
C603 H590 0.930 . S
C603 C602 1.388 . S
C603 C604 1.390 . S
C604 C603 1.390 . S
C604 C605 1.394 . S
C604 C610 1.465 . S
C605 C600 1.399 . S
C605 C604 1.394 . S
C605 C606 1.516 . S
C606 C605 1.516 . S
C606 C607 1.502 . S
C606 C608 1.561 . S
C606 C609 1.526 . S
C607 H591 0.959 . S
C607 H592 0.959 . S
C607 H593 0.961 . S
C607 C606 1.502 . S
C608 H594 0.960 . S
C608 H595 0.961 . S
C608 H596 0.959 . S
C608 C606 1.561 . S
C609 C606 1.526 . S
C609 C610 1.396 . S
C609 C614 1.390 . S
C610 C604 1.465 . S
C610 C609 1.396 . S
C610 C611 1.399 . S
C611 H597 0.929 . S
C611 C610 1.399 . S
C611 C612 1.385 . S
C612 H598 0.931 . S
C612 C611 1.385 . S
C612 C613 1.389 . S
C613 C612 1.389 . S
C613 C614 1.387 . S
C614 H599 0.930 . S
C614 C609 1.390 . S
C614 C613 1.387 . S
H615 C627 0.930 . S
H616 C629 0.930 . S
H617 C630 0.930 . S
H618 C634 0.959 . S
H619 C634 0.959 . S
H620 C634 0.961 . S
H621 C635 0.960 . S
H622 C635 0.961 . S
H623 C635 0.959 . S
H624 C638 0.929 . S
H625 C639 0.931 . S
H626 C641 0.930 . S
C627 H615 0.930 . S
C627 C628 1.399 . S
C627 C632 1.399 . S
C628 C627 1.399 . S
C628 C629 1.376 . S
C629 H616 0.930 . S
C629 C628 1.376 . S
C629 C630 1.388 . S
C630 H617 0.930 . S
C630 C629 1.388 . S
C630 C631 1.390 . S
C631 C630 1.390 . S
C631 C632 1.394 . S
C631 C637 1.465 . S
C632 C627 1.399 . S
C632 C631 1.394 . S
C632 C633 1.516 . S
C633 C632 1.516 . S
C633 C634 1.502 . S
C633 C635 1.561 . S
C633 C636 1.526 . S
C634 H618 0.959 . S
C634 H619 0.959 . S
C634 H620 0.961 . S
C634 C633 1.502 . S
C635 H621 0.960 . S
C635 H622 0.961 . S
C635 H623 0.959 . S
C635 C633 1.561 . S
C636 C633 1.526 . S
C636 C637 1.396 . S
C636 C641 1.390 . S
C637 C631 1.465 . S
C637 C636 1.396 . S
C637 C638 1.399 . S
C638 H624 0.929 . S
C638 C637 1.399 . S
C638 C639 1.385 . S
C639 H625 0.931 . S
C639 C638 1.385 . S
C639 C640 1.389 . S
C640 C639 1.389 . S
C640 C641 1.387 . S
C641 H626 0.930 . S
C641 C636 1.390 . S
C641 C640 1.387 . S
H642 C654 0.930 . S
H643 C656 0.930 . S
H644 C657 0.930 . S
H645 C661 0.959 . S
H646 C661 0.959 . S
H647 C661 0.961 . S
H648 C662 0.960 . S
H649 C662 0.961 . S
H650 C662 0.959 . S
H651 C665 0.929 . S
H652 C666 0.931 . S
H653 C668 0.930 . S
C654 H642 0.930 . S
C654 C655 1.399 . S
C654 C659 1.399 . S
C655 C654 1.399 . S
C655 C656 1.376 . S
C656 H643 0.930 . S
C656 C655 1.376 . S
C656 C657 1.388 . S
C657 H644 0.930 . S
C657 C656 1.388 . S
C657 C658 1.390 . S
C658 C657 1.390 . S
C658 C659 1.394 . S
C658 C664 1.465 . S
C659 C654 1.399 . S
C659 C658 1.394 . S
C659 C660 1.516 . S
C660 C659 1.516 . S
C660 C661 1.502 . S
C660 C662 1.561 . S
C660 C663 1.526 . S
C661 H645 0.959 . S
C661 H646 0.959 . S
C661 H647 0.961 . S
C661 C660 1.502 . S
C662 H648 0.960 . S
C662 H649 0.961 . S
C662 H650 0.959 . S
C662 C660 1.561 . S
C663 C660 1.526 . S
C663 C664 1.396 . S
C663 C668 1.390 . S
C664 C658 1.465 . S
C664 C663 1.396 . S
C664 C665 1.399 . S
C665 H651 0.929 . S
C665 C664 1.399 . S
C665 C666 1.385 . S
C666 H652 0.931 . S
C666 C665 1.385 . S
C666 C667 1.389 . S
C667 C666 1.389 . S
C667 C668 1.387 . S
C668 H653 0.930 . S
C668 C663 1.390 . S
C668 C667 1.387 . S
H669 C681 0.930 . S
H670 C683 0.930 . S
H671 C684 0.930 . S
H672 C688 0.959 . S
H673 C688 0.959 . S
H674 C688 0.961 . S
H675 C689 0.960 . S
H676 C689 0.961 . S
H677 C689 0.959 . S
H678 C692 0.929 . S
H679 C693 0.931 . S
H680 C695 0.930 . S
C681 H669 0.930 . S
C681 C682 1.399 . S
C681 C686 1.399 . S
C682 C681 1.399 . S
C682 C683 1.376 . S
C683 H670 0.930 . S
C683 C682 1.376 . S
C683 C684 1.388 . S
C684 H671 0.930 . S
C684 C683 1.388 . S
C684 C685 1.390 . S
C685 C684 1.390 . S
C685 C686 1.394 . S
C685 C691 1.465 . S
C686 C681 1.399 . S
C686 C685 1.394 . S
C686 C687 1.516 . S
C687 C686 1.516 . S
C687 C688 1.502 . S
C687 C689 1.561 . S
C687 C690 1.526 . S
C688 H672 0.959 . S
C688 H673 0.959 . S
C688 H674 0.961 . S
C688 C687 1.502 . S
C689 H675 0.960 . S
C689 H676 0.961 . S
C689 H677 0.959 . S
C689 C687 1.561 . S
C690 C687 1.526 . S
C690 C691 1.396 . S
C690 C695 1.390 . S
C691 C685 1.465 . S
C691 C690 1.396 . S
C691 C692 1.399 . S
C692 H678 0.929 . S
C692 C691 1.399 . S
C692 C693 1.385 . S
C693 H679 0.931 . S
C693 C692 1.385 . S
C693 C694 1.389 . S
C694 C693 1.389 . S
C694 C695 1.387 . S
C695 H680 0.930 . S
C695 C690 1.390 . S
C695 C694 1.387 . S
H696 C708 0.930 . S
H697 C710 0.930 . S
H698 C711 0.930 . S
H699 C715 0.959 . S
H700 C715 0.959 . S
H701 C715 0.961 . S
H702 C716 0.960 . S
H703 C716 0.961 . S
H704 C716 0.959 . S
H705 C719 0.929 . S
H706 C720 0.931 . S
H707 C722 0.930 . S
C708 H696 0.930 . S
C708 C709 1.399 . S
C708 C713 1.399 . S
C709 C708 1.399 . S
C709 C710 1.376 . S
C710 H697 0.930 . S
C710 C709 1.376 . S
C710 C711 1.388 . S
C711 H698 0.930 . S
C711 C710 1.388 . S
C711 C712 1.390 . S
C712 C711 1.390 . S
C712 C713 1.394 . S
C712 C718 1.465 . S
C713 C708 1.399 . S
C713 C712 1.394 . S
C713 C714 1.516 . S
C714 C713 1.516 . S
C714 C715 1.502 . S
C714 C716 1.561 . S
C714 C717 1.526 . S
C715 H699 0.959 . S
C715 H700 0.959 . S
C715 H701 0.961 . S
C715 C714 1.502 . S
C716 H702 0.960 . S
C716 H703 0.961 . S
C716 H704 0.959 . S
C716 C714 1.561 . S
C717 C714 1.526 . S
C717 C718 1.396 . S
C717 C722 1.390 . S
C718 C712 1.465 . S
C718 C717 1.396 . S
C718 C719 1.399 . S
C719 H705 0.929 . S
C719 C718 1.399 . S
C719 C720 1.385 . S
C720 H706 0.931 . S
C720 C719 1.385 . S
C720 C721 1.389 . S
C721 C720 1.389 . S
C721 C722 1.387 . S
C722 H707 0.930 . S
C722 C717 1.390 . S
C722 C721 1.387 . S
H723 C735 0.930 . S
H724 C737 0.930 . S
H725 C738 0.930 . S
H726 C742 0.959 . S
H727 C742 0.959 . S
H728 C742 0.961 . S
H729 C743 0.960 . S
H730 C743 0.961 . S
H731 C743 0.959 . S
H732 C746 0.929 . S
H733 C747 0.931 . S
H734 C749 0.930 . S
C735 H723 0.930 . S
C735 C736 1.399 . S
C735 C740 1.399 . S
C736 C735 1.399 . S
C736 C737 1.376 . S
C737 H724 0.930 . S
C737 C736 1.376 . S
C737 C738 1.388 . S
C738 H725 0.930 . S
C738 C737 1.388 . S
C738 C739 1.390 . S
C739 C738 1.390 . S
C739 C740 1.394 . S
C739 C745 1.465 . S
C740 C735 1.399 . S
C740 C739 1.394 . S
C740 C741 1.516 . S
C741 C740 1.516 . S
C741 C742 1.502 . S
C741 C743 1.561 . S
C741 C744 1.526 . S
C742 H726 0.959 . S
C742 H727 0.959 . S
C742 H728 0.961 . S
C742 C741 1.502 . S
C743 H729 0.960 . S
C743 H730 0.961 . S
C743 H731 0.959 . S
C743 C741 1.561 . S
C744 C741 1.526 . S
C744 C745 1.396 . S
C744 C749 1.390 . S
C745 C739 1.465 . S
C745 C744 1.396 . S
C745 C746 1.399 . S
C746 H732 0.929 . S
C746 C745 1.399 . S
C746 C747 1.385 . S
C747 H733 0.931 . S
C747 C746 1.385 . S
C747 C748 1.389 . S
C748 C747 1.389 . S
C748 C749 1.387 . S
C749 H734 0.930 . S
C749 C744 1.390 . S
C749 C748 1.387 . S
H750 C762 0.930 . S
H751 C764 0.930 . S
H752 C765 0.930 . S
H753 C769 0.959 . S
H754 C769 0.959 . S
H755 C769 0.961 . S
H756 C770 0.960 . S
H757 C770 0.961 . S
H758 C770 0.959 . S
H759 C773 0.929 . S
H760 C774 0.931 . S
H761 C776 0.930 . S
C762 H750 0.930 . S
C762 C763 1.399 . S
C762 C767 1.399 . S
C763 C762 1.399 . S
C763 C764 1.376 . S
C764 H751 0.930 . S
C764 C763 1.376 . S
C764 C765 1.388 . S
C765 H752 0.930 . S
C765 C764 1.388 . S
C765 C766 1.390 . S
C766 C765 1.390 . S
C766 C767 1.394 . S
C766 C772 1.465 . S
C767 C762 1.399 . S
C767 C766 1.394 . S
C767 C768 1.516 . S
C768 C767 1.516 . S
C768 C769 1.502 . S
C768 C770 1.561 . S
C768 C771 1.526 . S
C769 H753 0.959 . S
C769 H754 0.959 . S
C769 H755 0.961 . S
C769 C768 1.502 . S
C770 H756 0.960 . S
C770 H757 0.961 . S
C770 H758 0.959 . S
C770 C768 1.561 . S
C771 C768 1.526 . S
C771 C772 1.396 . S
C771 C776 1.390 . S
C772 C766 1.465 . S
C772 C771 1.396 . S
C772 C773 1.399 . S
C773 H759 0.929 . S
C773 C772 1.399 . S
C773 C774 1.385 . S
C774 H760 0.931 . S
C774 C773 1.385 . S
C774 C775 1.389 . S
C775 C774 1.389 . S
C775 C776 1.387 . S
C776 H761 0.930 . S
C776 C771 1.390 . S
C776 C775 1.387 . S
H777 C789 0.930 . S
H778 C791 0.930 . S
H779 C792 0.930 . S
H780 C796 0.959 . S
H781 C796 0.959 . S
H782 C796 0.961 . S
H783 C797 0.960 . S
H784 C797 0.961 . S
H785 C797 0.959 . S
H786 C800 0.929 . S
H787 C801 0.931 . S
H788 C803 0.930 . S
C789 H777 0.930 . S
C789 C790 1.399 . S
C789 C794 1.399 . S
C790 C789 1.399 . S
C790 C791 1.376 . S
C791 H778 0.930 . S
C791 C790 1.376 . S
C791 C792 1.388 . S
C792 H779 0.930 . S
C792 C791 1.388 . S
C792 C793 1.390 . S
C793 C792 1.390 . S
C793 C794 1.394 . S
C793 C799 1.465 . S
C794 C789 1.399 . S
C794 C793 1.394 . S
C794 C795 1.516 . S
C795 C794 1.516 . S
C795 C796 1.502 . S
C795 C797 1.561 . S
C795 C798 1.526 . S
C796 H780 0.959 . S
C796 H781 0.959 . S
C796 H782 0.961 . S
C796 C795 1.502 . S
C797 H783 0.960 . S
C797 H784 0.961 . S
C797 H785 0.959 . S
C797 C795 1.561 . S
C798 C795 1.526 . S
C798 C799 1.396 . S
C798 C803 1.390 . S
C799 C793 1.465 . S
C799 C798 1.396 . S
C799 C800 1.399 . S
C800 H786 0.929 . S
C800 C799 1.399 . S
C800 C801 1.385 . S
C801 H787 0.931 . S
C801 C800 1.385 . S
C801 C802 1.389 . S
C802 C801 1.389 . S
C802 C803 1.387 . S
C803 H788 0.930 . S
C803 C798 1.390 . S
C803 C802 1.387 . S
H804 C816 0.930 . S
H805 C818 0.930 . S
H806 C819 0.930 . S
H807 C823 0.959 . S
H808 C823 0.959 . S
H809 C823 0.961 . S
H810 C824 0.960 . S
H811 C824 0.961 . S
H812 C824 0.959 . S
H813 C827 0.929 . S
H814 C828 0.931 . S
H815 C830 0.930 . S
C816 H804 0.930 . S
C816 C817 1.399 . S
C816 C821 1.399 . S
C817 C816 1.399 . S
C817 C818 1.376 . S
C818 H805 0.930 . S
C818 C817 1.376 . S
C818 C819 1.388 . S
C819 H806 0.930 . S
C819 C818 1.388 . S
C819 C820 1.390 . S
C820 C819 1.390 . S
C820 C821 1.394 . S
C820 C826 1.465 . S
C821 C816 1.399 . S
C821 C820 1.394 . S
C821 C822 1.516 . S
C822 C821 1.516 . S
C822 C823 1.502 . S
C822 C824 1.561 . S
C822 C825 1.526 . S
C823 H807 0.959 . S
C823 H808 0.959 . S
C823 H809 0.961 . S
C823 C822 1.502 . S
C824 H810 0.960 . S
C824 H811 0.961 . S
C824 H812 0.959 . S
C824 C822 1.561 . S
C825 C822 1.526 . S
C825 C826 1.396 . S
C825 C830 1.390 . S
C826 C820 1.465 . S
C826 C825 1.396 . S
C826 C827 1.399 . S
C827 H813 0.929 . S
C827 C826 1.399 . S
C827 C828 1.385 . S
C828 H814 0.931 . S
C828 C827 1.385 . S
C828 C829 1.389 . S
C829 C828 1.389 . S
C829 C830 1.387 . S
C830 H815 0.930 . S
C830 C825 1.390 . S
C830 C829 1.387 . S
H831 C843 0.930 . S
H832 C845 0.930 . S
H833 C846 0.930 . S
H834 C850 0.959 . S
H835 C850 0.959 . S
H836 C850 0.961 . S
H837 C851 0.960 . S
H838 C851 0.961 . S
H839 C851 0.959 . S
H840 C854 0.929 . S
H841 C855 0.931 . S
H842 C857 0.930 . S
C843 H831 0.930 . S
C843 C844 1.399 . S
C843 C848 1.399 . S
C844 C843 1.399 . S
C844 C845 1.376 . S
C845 H832 0.930 . S
C845 C844 1.376 . S
C845 C846 1.388 . S
C846 H833 0.930 . S
C846 C845 1.388 . S
C846 C847 1.390 . S
C847 C846 1.390 . S
C847 C848 1.394 . S
C847 C853 1.465 . S
C848 C843 1.399 . S
C848 C847 1.394 . S
C848 C849 1.516 . S
C849 C848 1.516 . S
C849 C850 1.502 . S
C849 C851 1.561 . S
C849 C852 1.526 . S
C850 H834 0.959 . S
C850 H835 0.959 . S
C850 H836 0.961 . S
C850 C849 1.502 . S
C851 H837 0.960 . S
C851 H838 0.961 . S
C851 H839 0.959 . S
C851 C849 1.561 . S
C852 C849 1.526 . S
C852 C853 1.396 . S
C852 C857 1.390 . S
C853 C847 1.465 . S
C853 C852 1.396 . S
C853 C854 1.399 . S
C854 H840 0.929 . S
C854 C853 1.399 . S
C854 C855 1.385 . S
C855 H841 0.931 . S
C855 C854 1.385 . S
C855 C856 1.389 . S
C856 C855 1.389 . S
C856 C857 1.387 . S
C857 H842 0.930 . S
C857 C852 1.390 . S
C857 C856 1.387 . S
H858 C870 0.930 . S
H859 C872 0.930 . S
H860 C873 0.930 . S
H861 C877 0.959 . S
H862 C877 0.959 . S
H863 C877 0.961 . S
H864 C878 0.960 . S
H865 C878 0.961 . S
H866 C878 0.959 . S
H867 C881 0.929 . S
H868 C882 0.931 . S
H869 C884 0.930 . S
C870 H858 0.930 . S
C870 C871 1.399 . S
C870 C875 1.399 . S
C871 C870 1.399 . S
C871 C872 1.376 . S
C872 H859 0.930 . S
C872 C871 1.376 . S
C872 C873 1.388 . S
C873 H860 0.930 . S
C873 C872 1.388 . S
C873 C874 1.390 . S
C874 C873 1.390 . S
C874 C875 1.394 . S
C874 C880 1.465 . S
C875 C870 1.399 . S
C875 C874 1.394 . S
C875 C876 1.516 . S
C876 C875 1.516 . S
C876 C877 1.502 . S
C876 C878 1.561 . S
C876 C879 1.526 . S
C877 H861 0.959 . S
C877 H862 0.959 . S
C877 H863 0.961 . S
C877 C876 1.502 . S
C878 H864 0.960 . S
C878 H865 0.961 . S
C878 H866 0.959 . S
C878 C876 1.561 . S
C879 C876 1.526 . S
C879 C880 1.396 . S
C879 C884 1.390 . S
C880 C874 1.465 . S
C880 C879 1.396 . S
C880 C881 1.399 . S
C881 H867 0.929 . S
C881 C880 1.399 . S
C881 C882 1.385 . S
C882 H868 0.931 . S
C882 C881 1.385 . S
C882 C883 1.389 . S
C883 C882 1.389 . S
C883 C884 1.387 . S
C884 H869 0.930 . S
C884 C879 1.390 . S
C884 C883 1.387 . S
H885 C897 0.930 . S
H886 C899 0.930 . S
H887 C900 0.930 . S
H888 C904 0.959 . S
H889 C904 0.959 . S
H890 C904 0.961 . S
H891 C905 0.960 . S
H892 C905 0.961 . S
H893 C905 0.959 . S
H894 C908 0.929 . S
H895 C909 0.931 . S
H896 C911 0.930 . S
C897 H885 0.930 . S
C897 C898 1.399 . S
C897 C902 1.399 . S
C898 C897 1.399 . S
C898 C899 1.376 . S
C899 H886 0.930 . S
C899 C898 1.376 . S
C899 C900 1.388 . S
C900 H887 0.930 . S
C900 C899 1.388 . S
C900 C901 1.390 . S
C901 C900 1.390 . S
C901 C902 1.394 . S
C901 C907 1.465 . S
C902 C897 1.399 . S
C902 C901 1.394 . S
C902 C903 1.516 . S
C903 C902 1.516 . S
C903 C904 1.502 . S
C903 C905 1.561 . S
C903 C906 1.526 . S
C904 H888 0.959 . S
C904 H889 0.959 . S
C904 H890 0.961 . S
C904 C903 1.502 . S
C905 H891 0.960 . S
C905 H892 0.961 . S
C905 H893 0.959 . S
C905 C903 1.561 . S
C906 C903 1.526 . S
C906 C907 1.396 . S
C906 C911 1.390 . S
C907 C901 1.465 . S
C907 C906 1.396 . S
C907 C908 1.399 . S
C908 H894 0.929 . S
C908 C907 1.399 . S
C908 C909 1.385 . S
C909 H895 0.931 . S
C909 C908 1.385 . S
C909 C910 1.389 . S
C910 C909 1.389 . S
C910 C911 1.387 . S
C911 H896 0.930 . S
C911 C906 1.390 . S
C911 C910 1.387 . S
H912 C924 0.930 . S
H913 C926 0.930 . S
H914 C927 0.930 . S
H915 C931 0.959 . S
H916 C931 0.959 . S
H917 C931 0.961 . S
H918 C932 0.960 . S
H919 C932 0.961 . S
H920 C932 0.959 . S
H921 C935 0.929 . S
H922 C936 0.931 . S
H923 C938 0.930 . S
C924 H912 0.930 . S
C924 C925 1.399 . S
C924 C929 1.399 . S
C925 C924 1.399 . S
C925 C926 1.376 . S
C926 H913 0.930 . S
C926 C925 1.376 . S
C926 C927 1.388 . S
C927 H914 0.930 . S
C927 C926 1.388 . S
C927 C928 1.390 . S
C928 C927 1.390 . S
C928 C929 1.394 . S
C928 C934 1.465 . S
C929 C924 1.399 . S
C929 C928 1.394 . S
C929 C930 1.516 . S
C930 C929 1.516 . S
C930 C931 1.502 . S
C930 C932 1.561 . S
C930 C933 1.526 . S
C931 H915 0.959 . S
C931 H916 0.959 . S
C931 H917 0.961 . S
C931 C930 1.502 . S
C932 H918 0.960 . S
C932 H919 0.961 . S
C932 H920 0.959 . S
C932 C930 1.561 . S
C933 C930 1.526 . S
C933 C934 1.396 . S
C933 C938 1.390 . S
C934 C928 1.465 . S
C934 C933 1.396 . S
C934 C935 1.399 . S
C935 H921 0.929 . S
C935 C934 1.399 . S
C935 C936 1.385 . S
C936 H922 0.931 . S
C936 C935 1.385 . S
C936 C937 1.389 . S
C937 C936 1.389 . S
C937 C938 1.387 . S
C938 H923 0.930 . S
C938 C933 1.390 . S
C938 C937 1.387 . S
H939 C951 0.930 . S
H940 C953 0.930 . S
H941 C954 0.930 . S
H942 C958 0.959 . S
H943 C958 0.959 . S
H944 C958 0.961 . S
H945 C959 0.960 . S
H946 C959 0.961 . S
H947 C959 0.959 . S
H948 C962 0.929 . S
H949 C963 0.931 . S
H950 C965 0.930 . S
C951 H939 0.930 . S
C951 C952 1.399 . S
C951 C956 1.399 . S
C952 C951 1.399 . S
C952 C953 1.376 . S
C953 H940 0.930 . S
C953 C952 1.376 . S
C953 C954 1.388 . S
C954 H941 0.930 . S
C954 C953 1.388 . S
C954 C955 1.390 . S
C955 C954 1.390 . S
C955 C956 1.394 . S
C955 C961 1.465 . S
C956 C951 1.399 . S
C956 C955 1.394 . S
C956 C957 1.516 . S
C957 C956 1.516 . S
C957 C958 1.502 . S
C957 C959 1.561 . S
C957 C960 1.526 . S
C958 H942 0.959 . S
C958 H943 0.959 . S
C958 H944 0.961 . S
C958 C957 1.502 . S
C959 H945 0.960 . S
C959 H946 0.961 . S
C959 H947 0.959 . S
C959 C957 1.561 . S
C960 C957 1.526 . S
C960 C961 1.396 . S
C960 C965 1.390 . S
C961 C955 1.465 . S
C961 C960 1.396 . S
C961 C962 1.399 . S
C962 H948 0.929 . S
C962 C961 1.399 . S
C962 C963 1.385 . S
C963 H949 0.931 . S
C963 C962 1.385 . S
C963 C964 1.389 . S
C964 C963 1.389 . S
C964 C965 1.387 . S
C965 H950 0.930 . S
C965 C960 1.390 . S
C965 C964 1.387 . S
H966 C978 0.930 . S
H967 C980 0.930 . S
H968 C981 0.930 . S
H969 C985 0.959 . S
H970 C985 0.959 . S
H971 C985 0.961 . S
H972 C986 0.960 . S
H973 C986 0.961 . S
H974 C986 0.959 . S
H975 C989 0.929 . S
H976 C990 0.931 . S
H977 C992 0.930 . S
C978 H966 0.930 . S
C978 C979 1.399 . S
C978 C983 1.399 . S
C979 C978 1.399 . S
C979 C980 1.376 . S
C980 H967 0.930 . S
C980 C979 1.376 . S
C980 C981 1.388 . S
C981 H968 0.930 . S
C981 C980 1.388 . S
C981 C982 1.390 . S
C982 C981 1.390 . S
C982 C983 1.394 . S
C982 C988 1.465 . S
C983 C978 1.399 . S
C983 C982 1.394 . S
C983 C984 1.516 . S
C984 C983 1.516 . S
C984 C985 1.502 . S
C984 C986 1.561 . S
C984 C987 1.526 . S
C985 H969 0.959 . S
C985 H970 0.959 . S
C985 H971 0.961 . S
C985 C984 1.502 . S
C986 H972 0.960 . S
C986 H973 0.961 . S
C986 H974 0.959 . S
C986 C984 1.561 . S
C987 C984 1.526 . S
C987 C988 1.396 . S
C987 C992 1.390 . S
C988 C982 1.465 . S
C988 C987 1.396 . S
C988 C989 1.399 . S
C989 H975 0.929 . S
C989 C988 1.399 . S
C989 C990 1.385 . S
C990 H976 0.931 . S
C990 C989 1.385 . S
C990 C991 1.389 . S
C991 C990 1.389 . S
C991 C992 1.387 . S
C992 H977 0.930 . S
C992 C987 1.390 . S
C992 C991 1.387 . S
H993 C1005 0.930 . S
H994 C1007 0.930 . S
H995 C1008 0.930 . S
H996 C1012 0.959 . S
H997 C1012 0.959 . S
H998 C1012 0.961 . S
H999 C1013 0.960 . S
H1000 C1013 0.961 . S
H1001 C1013 0.959 . S
H1002 C1016 0.929 . S
H1003 C1017 0.931 . S
H1004 C1019 0.930 . S
C1005 H993 0.930 . S
C1005 C1006 1.399 . S
C1005 C1010 1.399 . S
C1006 C1005 1.399 . S
C1006 C1007 1.376 . S
C1007 H994 0.930 . S
C1007 C1006 1.376 . S
C1007 C1008 1.388 . S
C1008 H995 0.930 . S
C1008 C1007 1.388 . S
C1008 C1009 1.390 . S
C1009 C1008 1.390 . S
C1009 C1010 1.394 . S
C1009 C1015 1.465 . S
C1010 C1005 1.399 . S
C1010 C1009 1.394 . S
C1010 C1011 1.516 . S
C1011 C1010 1.516 . S
C1011 C1012 1.502 . S
C1011 C1013 1.561 . S
C1011 C1014 1.526 . S
C1012 H996 0.959 . S
C1012 H997 0.959 . S
C1012 H998 0.961 . S
C1012 C1011 1.502 . S
C1013 H999 0.960 . S
C1013 H1000 0.961 . S
C1013 H1001 0.959 . S
C1013 C1011 1.561 . S
C1014 C1011 1.526 . S
C1014 C1015 1.396 . S
C1014 C1019 1.390 . S
C1015 C1009 1.465 . S
C1015 C1014 1.396 . S
C1015 C1016 1.399 . S
C1016 H1002 0.929 . S
C1016 C1015 1.399 . S
C1016 C1017 1.385 . S
C1017 H1003 0.931 . S
C1017 C1016 1.385 . S
C1017 C1018 1.389 . S
C1018 C1017 1.389 . S
C1018 C1019 1.387 . S
C1019 H1004 0.930 . S
C1019 C1014 1.390 . S
C1019 C1018 1.387 . S
H1020 C1032 0.930 . S
H1021 C1034 0.930 . S
H1022 C1035 0.930 . S
H1023 C1039 0.959 . S
H1024 C1039 0.959 . S
H1025 C1039 0.961 . S
H1026 C1040 0.960 . S
H1027 C1040 0.961 . S
H1028 C1040 0.959 . S
H1029 C1043 0.929 . S
H1030 C1044 0.931 . S
H1031 C1046 0.930 . S
C1032 H1020 0.930 . S
C1032 C1033 1.399 . S
C1032 C1037 1.399 . S
C1033 C1032 1.399 . S
C1033 C1034 1.376 . S
C1034 H1021 0.930 . S
C1034 C1033 1.376 . S
C1034 C1035 1.388 . S
C1035 H1022 0.930 . S
C1035 C1034 1.388 . S
C1035 C1036 1.390 . S
C1036 C1035 1.390 . S
C1036 C1037 1.394 . S
C1036 C1042 1.465 . S
C1037 C1032 1.399 . S
C1037 C1036 1.394 . S
C1037 C1038 1.516 . S
C1038 C1037 1.516 . S
C1038 C1039 1.502 . S
C1038 C1040 1.561 . S
C1038 C1041 1.526 . S
C1039 H1023 0.959 . S
C1039 H1024 0.959 . S
C1039 H1025 0.961 . S
C1039 C1038 1.502 . S
C1040 H1026 0.960 . S
C1040 H1027 0.961 . S
C1040 H1028 0.959 . S
C1040 C1038 1.561 . S
C1041 C1038 1.526 . S
C1041 C1042 1.396 . S
C1041 C1046 1.390 . S
C1042 C1036 1.465 . S
C1042 C1041 1.396 . S
C1042 C1043 1.399 . S
C1043 H1029 0.929 . S
C1043 C1042 1.399 . S
C1043 C1044 1.385 . S
C1044 H1030 0.931 . S
C1044 C1043 1.385 . S
C1044 C1045 1.389 . S
C1045 C1044 1.389 . S
C1045 C1046 1.387 . S
C1046 H1031 0.930 . S
C1046 C1041 1.390 . S
C1046 C1045 1.387 . S
H1047 C1059 0.930 . S
H1048 C1061 0.930 . S
H1049 C1062 0.930 . S
H1050 C1066 0.959 . S
H1051 C1066 0.959 . S
H1052 C1066 0.961 . S
H1053 C1067 0.960 . S
H1054 C1067 0.961 . S
H1055 C1067 0.959 . S
H1056 C1070 0.929 . S
H1057 C1071 0.931 . S
H1058 C1073 0.930 . S
C1059 H1047 0.930 . S
C1059 C1060 1.399 . S
C1059 C1064 1.399 . S
C1060 C1059 1.399 . S
C1060 C1061 1.376 . S
C1061 H1048 0.930 . S
C1061 C1060 1.376 . S
C1061 C1062 1.388 . S
C1062 H1049 0.930 . S
C1062 C1061 1.388 . S
C1062 C1063 1.390 . S
C1063 C1062 1.390 . S
C1063 C1064 1.394 . S
C1063 C1069 1.465 . S
C1064 C1059 1.399 . S
C1064 C1063 1.394 . S
C1064 C1065 1.516 . S
C1065 C1064 1.516 . S
C1065 C1066 1.502 . S
C1065 C1067 1.561 . S
C1065 C1068 1.526 . S
C1066 H1050 0.959 . S
C1066 H1051 0.959 . S
C1066 H1052 0.961 . S
C1066 C1065 1.502 . S
C1067 H1053 0.960 . S
C1067 H1054 0.961 . S
C1067 H1055 0.959 . S
C1067 C1065 1.561 . S
C1068 C1065 1.526 . S
C1068 C1069 1.396 . S
C1068 C1073 1.390 . S
C1069 C1063 1.465 . S
C1069 C1068 1.396 . S
C1069 C1070 1.399 . S
C1070 H1056 0.929 . S
C1070 C1069 1.399 . S
C1070 C1071 1.385 . S
C1071 H1057 0.931 . S
C1071 C1070 1.385 . S
C1071 C1072 1.389 . S
C1072 C1071 1.389 . S
C1072 C1073 1.387 . S
C1073 H1058 0.930 . S
C1073 C1068 1.390 . S
C1073 C1072 1.387 . S
H1074 C1086 0.930 . S
H1075 C1088 0.930 . S
H1076 C1089 0.930 . S
H1077 C1093 0.959 . S
H1078 C1093 0.959 . S
H1079 C1093 0.961 . S
H1080 C1094 0.960 . S
H1081 C1094 0.961 . S
H1082 C1094 0.959 . S
H1083 C1097 0.929 . S
H1084 C1098 0.931 . S
H1085 C1100 0.930 . S
C1086 H1074 0.930 . S
C1086 C1087 1.399 . S
C1086 C1091 1.399 . S
C1087 C1086 1.399 . S
C1087 C1088 1.376 . S
C1088 H1075 0.930 . S
C1088 C1087 1.376 . S
C1088 C1089 1.388 . S
C1089 H1076 0.930 . S
C1089 C1088 1.388 . S
C1089 C1090 1.390 . S
C1090 C1089 1.390 . S
C1090 C1091 1.394 . S
C1090 C1096 1.465 . S
C1091 C1086 1.399 . S
C1091 C1090 1.394 . S
C1091 C1092 1.516 . S
C1092 C1091 1.516 . S
C1092 C1093 1.502 . S
C1092 C1094 1.561 . S
C1092 C1095 1.526 . S
C1093 H1077 0.959 . S
C1093 H1078 0.959 . S
C1093 H1079 0.961 . S
C1093 C1092 1.502 . S
C1094 H1080 0.960 . S
C1094 H1081 0.961 . S
C1094 H1082 0.959 . S
C1094 C1092 1.561 . S
C1095 C1092 1.526 . S
C1095 C1096 1.396 . S
C1095 C1100 1.390 . S
C1096 C1090 1.465 . S
C1096 C1095 1.396 . S
C1096 C1097 1.399 . S
C1097 H1083 0.929 . S
C1097 C1096 1.399 . S
C1097 C1098 1.385 . S
C1098 H1084 0.931 . S
C1098 C1097 1.385 . S
C1098 C1099 1.389 . S
C1099 C1098 1.389 . S
C1099 C1100 1.387 . S
C1100 H1085 0.930 . S
C1100 C1095 1.390 . S
C1100 C1099 1.387 . S
H1101 C1113 0.930 . S
H1102 C1115 0.930 . S
H1103 C1116 0.930 . S
H1104 C1120 0.959 . S
H1105 C1120 0.959 . S
H1106 C1120 0.961 . S
H1107 C1121 0.960 . S
H1108 C1121 0.961 . S
H1109 C1121 0.959 . S
H1110 C1124 0.929 . S
H1111 C1125 0.931 . S
H1112 C1127 0.930 . S
C1113 H1101 0.930 . S
C1113 C1114 1.399 . S
C1113 C1118 1.399 . S
C1114 C1113 1.399 . S
C1114 C1115 1.376 . S
C1115 H1102 0.930 . S
C1115 C1114 1.376 . S
C1115 C1116 1.388 . S
C1116 H1103 0.930 . S
C1116 C1115 1.388 . S
C1116 C1117 1.390 . S
C1117 C1116 1.390 . S
C1117 C1118 1.394 . S
C1117 C1123 1.465 . S
C1118 C1113 1.399 . S
C1118 C1117 1.394 . S
C1118 C1119 1.516 . S
C1119 C1118 1.516 . S
C1119 C1120 1.502 . S
C1119 C1121 1.561 . S
C1119 C1122 1.526 . S
C1120 H1104 0.959 . S
C1120 H1105 0.959 . S
C1120 H1106 0.961 . S
C1120 C1119 1.502 . S
C1121 H1107 0.960 . S
C1121 H1108 0.961 . S
C1121 H1109 0.959 . S
C1121 C1119 1.561 . S
C1122 C1119 1.526 . S
C1122 C1123 1.396 . S
C1122 C1127 1.390 . S
C1123 C1117 1.465 . S
C1123 C1122 1.396 . S
C1123 C1124 1.399 . S
C1124 H1110 0.929 . S
C1124 C1123 1.399 . S
C1124 C1125 1.385 . S
C1125 H1111 0.931 . S
C1125 C1124 1.385 . S
C1125 C1126 1.389 . S
C1126 C1125 1.389 . S
C1126 C1127 1.387 . S
C1127 H1112 0.930 . S
C1127 C1122 1.390 . S
C1127 C1126 1.387 . S
H1128 C1140 0.930 . S
H1129 C1142 0.930 . S
H1130 C1143 0.930 . S
H1131 C1147 0.959 . S
H1132 C1147 0.959 . S
H1133 C1147 0.961 . S
H1134 C1148 0.960 . S
H1135 C1148 0.961 . S
H1136 C1148 0.959 . S
H1137 C1151 0.929 . S
H1138 C1152 0.931 . S
H1139 C1154 0.930 . S
C1140 H1128 0.930 . S
C1140 C1141 1.399 . S
C1140 C1145 1.399 . S
C1141 C1140 1.399 . S
C1141 C1142 1.376 . S
C1142 H1129 0.930 . S
C1142 C1141 1.376 . S
C1142 C1143 1.388 . S
C1143 H1130 0.930 . S
C1143 C1142 1.388 . S
C1143 C1144 1.390 . S
C1144 C1143 1.390 . S
C1144 C1145 1.394 . S
C1144 C1150 1.465 . S
C1145 C1140 1.399 . S
C1145 C1144 1.394 . S
C1145 C1146 1.516 . S
C1146 C1145 1.516 . S
C1146 C1147 1.502 . S
C1146 C1148 1.561 . S
C1146 C1149 1.526 . S
C1147 H1131 0.959 . S
C1147 H1132 0.959 . S
C1147 H1133 0.961 . S
C1147 C1146 1.502 . S
C1148 H1134 0.960 . S
C1148 H1135 0.961 . S
C1148 H1136 0.959 . S
C1148 C1146 1.561 . S
C1149 C1146 1.526 . S
C1149 C1150 1.396 . S
C1149 C1154 1.390 . S
C1150 C1144 1.465 . S
C1150 C1149 1.396 . S
C1150 C1151 1.399 . S
C1151 H1137 0.929 . S
C1151 C1150 1.399 . S
C1151 C1152 1.385 . S
C1152 H1138 0.931 . S
C1152 C1151 1.385 . S
C1152 C1153 1.389 . S
C1153 C1152 1.389 . S
C1153 C1154 1.387 . S
C1154 H1139 0.930 . S
C1154 C1149 1.390 . S
C1154 C1153 1.387 . S
H1155 C1167 0.930 . S
H1156 C1169 0.930 . S
H1157 C1170 0.930 . S
H1158 C1174 0.959 . S
H1159 C1174 0.959 . S
H1160 C1174 0.961 . S
H1161 C1175 0.960 . S
H1162 C1175 0.961 . S
H1163 C1175 0.959 . S
H1164 C1178 0.929 . S
H1165 C1179 0.931 . S
H1166 C1181 0.930 . S
C1167 H1155 0.930 . S
C1167 C1168 1.399 . S
C1167 C1172 1.399 . S
C1168 C1167 1.399 . S
C1168 C1169 1.376 . S
C1169 H1156 0.930 . S
C1169 C1168 1.376 . S
C1169 C1170 1.388 . S
C1170 H1157 0.930 . S
C1170 C1169 1.388 . S
C1170 C1171 1.390 . S
C1171 C1170 1.390 . S
C1171 C1172 1.394 . S
C1171 C1177 1.465 . S
C1172 C1167 1.399 . S
C1172 C1171 1.394 . S
C1172 C1173 1.516 . S
C1173 C1172 1.516 . S
C1173 C1174 1.502 . S
C1173 C1175 1.561 . S
C1173 C1176 1.526 . S
C1174 H1158 0.959 . S
C1174 H1159 0.959 . S
C1174 H1160 0.961 . S
C1174 C1173 1.502 . S
C1175 H1161 0.960 . S
C1175 H1162 0.961 . S
C1175 H1163 0.959 . S
C1175 C1173 1.561 . S
C1176 C1173 1.526 . S
C1176 C1177 1.396 . S
C1176 C1181 1.390 . S
C1177 C1171 1.465 . S
C1177 C1176 1.396 . S
C1177 C1178 1.399 . S
C1178 H1164 0.929 . S
C1178 C1177 1.399 . S
C1178 C1179 1.385 . S
C1179 H1165 0.931 . S
C1179 C1178 1.385 . S
C1179 C1180 1.389 . S
C1180 C1179 1.389 . S
C1180 C1181 1.387 . S
C1181 H1166 0.930 . S
C1181 C1176 1.390 . S
C1181 C1180 1.387 . S
H1182 C1194 0.930 . S
H1183 C1196 0.930 . S
H1184 C1197 0.930 . S
H1185 C1201 0.959 . S
H1186 C1201 0.959 . S
H1187 C1201 0.961 . S
H1188 C1202 0.960 . S
H1189 C1202 0.961 . S
H1190 C1202 0.959 . S
H1191 C1205 0.929 . S
H1192 C1206 0.931 . S
H1193 C1208 0.930 . S
C1194 H1182 0.930 . S
C1194 C1195 1.399 . S
C1194 C1199 1.399 . S
C1195 C1194 1.399 . S
C1195 C1196 1.376 . S
C1196 H1183 0.930 . S
C1196 C1195 1.376 . S
C1196 C1197 1.388 . S
C1197 H1184 0.930 . S
C1197 C1196 1.388 . S
C1197 C1198 1.390 . S
C1198 C1197 1.390 . S
C1198 C1199 1.394 . S
C1198 C1204 1.465 . S
C1199 C1194 1.399 . S
C1199 C1198 1.394 . S
C1199 C1200 1.516 . S
C1200 C1199 1.516 . S
C1200 C1201 1.502 . S
C1200 C1202 1.561 . S
C1200 C1203 1.526 . S
C1201 H1185 0.959 . S
C1201 H1186 0.959 . S
C1201 H1187 0.961 . S
C1201 C1200 1.502 . S
C1202 H1188 0.960 . S
C1202 H1189 0.961 . S
C1202 H1190 0.959 . S
C1202 C1200 1.561 . S
C1203 C1200 1.526 . S
C1203 C1204 1.396 . S
C1203 C1208 1.390 . S
C1204 C1198 1.465 . S
C1204 C1203 1.396 . S
C1204 C1205 1.399 . S
C1205 H1191 0.929 . S
C1205 C1204 1.399 . S
C1205 C1206 1.385 . S
C1206 H1192 0.931 . S
C1206 C1205 1.385 . S
C1206 C1207 1.389 . S
C1207 C1206 1.389 . S
C1207 C1208 1.387 . S
C1208 H1193 0.930 . S
C1208 C1203 1.390 . S
C1208 C1207 1.387 . S
H1209 C1221 0.930 . S
H1210 C1223 0.930 . S
H1211 C1224 0.930 . S
H1212 C1228 0.959 . S
H1213 C1228 0.959 . S
H1214 C1228 0.961 . S
H1215 C1229 0.960 . S
H1216 C1229 0.961 . S
H1217 C1229 0.959 . S
H1218 C1232 0.929 . S
H1219 C1233 0.931 . S
H1220 C1235 0.930 . S
C1221 H1209 0.930 . S
C1221 C1222 1.399 . S
C1221 C1226 1.399 . S
C1222 C1221 1.399 . S
C1222 C1223 1.376 . S
C1223 H1210 0.930 . S
C1223 C1222 1.376 . S
C1223 C1224 1.388 . S
C1224 H1211 0.930 . S
C1224 C1223 1.388 . S
C1224 C1225 1.390 . S
C1225 C1224 1.390 . S
C1225 C1226 1.394 . S
C1225 C1231 1.465 . S
C1226 C1221 1.399 . S
C1226 C1225 1.394 . S
C1226 C1227 1.516 . S
C1227 C1226 1.516 . S
C1227 C1228 1.502 . S
C1227 C1229 1.561 . S
C1227 C1230 1.526 . S
C1228 H1212 0.959 . S
C1228 H1213 0.959 . S
C1228 H1214 0.961 . S
C1228 C1227 1.502 . S
C1229 H1215 0.960 . S
C1229 H1216 0.961 . S
C1229 H1217 0.959 . S
C1229 C1227 1.561 . S
C1230 C1227 1.526 . S
C1230 C1231 1.396 . S
C1230 C1235 1.390 . S
C1231 C1225 1.465 . S
C1231 C1230 1.396 . S
C1231 C1232 1.399 . S
C1232 H1218 0.929 . S
C1232 C1231 1.399 . S
C1232 C1233 1.385 . S
C1233 H1219 0.931 . S
C1233 C1232 1.385 . S
C1233 C1234 1.389 . S
C1234 C1233 1.389 . S
C1234 C1235 1.387 . S
C1235 H1220 0.930 . S
C1235 C1230 1.390 . S
C1235 C1234 1.387 . S
H1236 C1248 0.930 . S
H1237 C1250 0.930 . S
H1238 C1251 0.930 . S
H1239 C1255 0.959 . S
H1240 C1255 0.959 . S
H1241 C1255 0.961 . S
H1242 C1256 0.960 . S
H1243 C1256 0.961 . S
H1244 C1256 0.959 . S
H1245 C1259 0.929 . S
H1246 C1260 0.931 . S
H1247 C1262 0.930 . S
C1248 H1236 0.930 . S
C1248 C1249 1.399 . S
C1248 C1253 1.399 . S
C1249 C1248 1.399 . S
C1249 C1250 1.376 . S
C1250 H1237 0.930 . S
C1250 C1249 1.376 . S
C1250 C1251 1.388 . S
C1251 H1238 0.930 . S
C1251 C1250 1.388 . S
C1251 C1252 1.390 . S
C1252 C1251 1.390 . S
C1252 C1253 1.394 . S
C1252 C1258 1.465 . S
C1253 C1248 1.399 . S
C1253 C1252 1.394 . S
C1253 C1254 1.516 . S
C1254 C1253 1.516 . S
C1254 C1255 1.502 . S
C1254 C1256 1.561 . S
C1254 C1257 1.526 . S
C1255 H1239 0.959 . S
C1255 H1240 0.959 . S
C1255 H1241 0.961 . S
C1255 C1254 1.502 . S
C1256 H1242 0.960 . S
C1256 H1243 0.961 . S
C1256 H1244 0.959 . S
C1256 C1254 1.561 . S
C1257 C1254 1.526 . S
C1257 C1258 1.396 . S
C1257 C1262 1.390 . S
C1258 C1252 1.465 . S
C1258 C1257 1.396 . S
C1258 C1259 1.399 . S
C1259 H1245 0.929 . S
C1259 C1258 1.399 . S
C1259 C1260 1.385 . S
C1260 H1246 0.931 . S
C1260 C1259 1.385 . S
C1260 C1261 1.389 . S
C1261 C1260 1.389 . S
C1261 C1262 1.387 . S
C1262 H1247 0.930 . S
C1262 C1257 1.390 . S
C1262 C1261 1.387 . S
H1263 C1275 0.930 . S
H1264 C1277 0.930 . S
H1265 C1278 0.930 . S
H1266 C1282 0.959 . S
H1267 C1282 0.959 . S
H1268 C1282 0.961 . S
H1269 C1283 0.960 . S
H1270 C1283 0.961 . S
H1271 C1283 0.959 . S
H1272 C1286 0.929 . S
H1273 C1287 0.931 . S
H1274 C1289 0.930 . S
C1275 H1263 0.930 . S
C1275 C1276 1.399 . S
C1275 C1280 1.399 . S
C1276 C1275 1.399 . S
C1276 C1277 1.376 . S
C1277 H1264 0.930 . S
C1277 C1276 1.376 . S
C1277 C1278 1.388 . S
C1278 H1265 0.930 . S
C1278 C1277 1.388 . S
C1278 C1279 1.390 . S
C1279 C1278 1.390 . S
C1279 C1280 1.394 . S
C1279 C1285 1.465 . S
C1280 C1275 1.399 . S
C1280 C1279 1.394 . S
C1280 C1281 1.516 . S
C1281 C1280 1.516 . S
C1281 C1282 1.502 . S
C1281 C1283 1.561 . S
C1281 C1284 1.526 . S
C1282 H1266 0.959 . S
C1282 H1267 0.959 . S
C1282 H1268 0.961 . S
C1282 C1281 1.502 . S
C1283 H1269 0.960 . S
C1283 H1270 0.961 . S
C1283 H1271 0.959 . S
C1283 C1281 1.561 . S
C1284 C1281 1.526 . S
C1284 C1285 1.396 . S
C1284 C1289 1.390 . S
C1285 C1279 1.465 . S
C1285 C1284 1.396 . S
C1285 C1286 1.399 . S
C1286 H1272 0.929 . S
C1286 C1285 1.399 . S
C1286 C1287 1.385 . S
C1287 H1273 0.931 . S
C1287 C1286 1.385 . S
C1287 C1288 1.389 . S
C1288 C1287 1.389 . S
C1288 C1289 1.387 . S
C1289 H1274 0.930 . S
C1289 C1284 1.390 . S
C1289 C1288 1.387 . S
H1290 C1302 0.930 . S
H1291 C1304 0.930 . S
H1292 C1305 0.930 . S
H1293 C1309 0.959 . S
H1294 C1309 0.959 . S
H1295 C1309 0.961 . S
H1296 C1310 0.960 . S
H1297 C1310 0.961 . S
H1298 C1310 0.959 . S
H1299 C1313 0.929 . S
H1300 C1314 0.931 . S
H1301 C1316 0.930 . S
C1302 H1290 0.930 . S
C1302 C1303 1.399 . S
C1302 C1307 1.399 . S
C1303 C1302 1.399 . S
C1303 C1304 1.376 . S
C1304 H1291 0.930 . S
C1304 C1303 1.376 . S
C1304 C1305 1.388 . S
C1305 H1292 0.930 . S
C1305 C1304 1.388 . S
C1305 C1306 1.390 . S
C1306 C1305 1.390 . S
C1306 C1307 1.394 . S
C1306 C1312 1.465 . S
C1307 C1302 1.399 . S
C1307 C1306 1.394 . S
C1307 C1308 1.516 . S
C1308 C1307 1.516 . S
C1308 C1309 1.502 . S
C1308 C1310 1.561 . S
C1308 C1311 1.526 . S
C1309 H1293 0.959 . S
C1309 H1294 0.959 . S
C1309 H1295 0.961 . S
C1309 C1308 1.502 . S
C1310 H1296 0.960 . S
C1310 H1297 0.961 . S
C1310 H1298 0.959 . S
C1310 C1308 1.561 . S
C1311 C1308 1.526 . S
C1311 C1312 1.396 . S
C1311 C1316 1.390 . S
C1312 C1306 1.465 . S
C1312 C1311 1.396 . S
C1312 C1313 1.399 . S
C1313 H1299 0.929 . S
C1313 C1312 1.399 . S
C1313 C1314 1.385 . S
C1314 H1300 0.931 . S
C1314 C1313 1.385 . S
C1314 C1315 1.389 . S
C1315 C1314 1.389 . S
C1315 C1316 1.387 . S
C1316 H1301 0.930 . S
C1316 C1311 1.390 . S
C1316 C1315 1.387 . S
H1317 C1329 0.930 . S
H1318 C1331 0.930 . S
H1319 C1332 0.930 . S
H1320 C1336 0.959 . S
H1321 C1336 0.959 . S
H1322 C1336 0.961 . S
H1323 C1337 0.960 . S
H1324 C1337 0.961 . S
H1325 C1337 0.959 . S
H1326 C1340 0.929 . S
H1327 C1341 0.931 . S
H1328 C1343 0.930 . S
C1329 H1317 0.930 . S
C1329 C1330 1.399 . S
C1329 C1334 1.399 . S
C1330 C1329 1.399 . S
C1330 C1331 1.376 . S
C1331 H1318 0.930 . S
C1331 C1330 1.376 . S
C1331 C1332 1.388 . S
C1332 H1319 0.930 . S
C1332 C1331 1.388 . S
C1332 C1333 1.390 . S
C1333 C1332 1.390 . S
C1333 C1334 1.394 . S
C1333 C1339 1.465 . S
C1334 C1329 1.399 . S
C1334 C1333 1.394 . S
C1334 C1335 1.516 . S
C1335 C1334 1.516 . S
C1335 C1336 1.502 . S
C1335 C1337 1.561 . S
C1335 C1338 1.526 . S
C1336 H1320 0.959 . S
C1336 H1321 0.959 . S
C1336 H1322 0.961 . S
C1336 C1335 1.502 . S
C1337 H1323 0.960 . S
C1337 H1324 0.961 . S
C1337 H1325 0.959 . S
C1337 C1335 1.561 . S
C1338 C1335 1.526 . S
C1338 C1339 1.396 . S
C1338 C1343 1.390 . S
C1339 C1333 1.465 . S
C1339 C1338 1.396 . S
C1339 C1340 1.399 . S
C1340 H1326 0.929 . S
C1340 C1339 1.399 . S
C1340 C1341 1.385 . S
C1341 H1327 0.931 . S
C1341 C1340 1.385 . S
C1341 C1342 1.389 . S
C1342 C1341 1.389 . S
C1342 C1343 1.387 . S
C1343 H1328 0.930 . S
C1343 C1338 1.390 . S
C1343 C1342 1.387 . S
H1344 C1356 0.930 . S
H1345 C1358 0.930 . S
H1346 C1359 0.930 . S
H1347 C1363 0.959 . S
H1348 C1363 0.959 . S
H1349 C1363 0.961 . S
H1350 C1364 0.960 . S
H1351 C1364 0.961 . S
H1352 C1364 0.959 . S
H1353 C1367 0.929 . S
H1354 C1368 0.931 . S
H1355 C1370 0.930 . S
C1356 H1344 0.930 . S
C1356 C1357 1.399 . S
C1356 C1361 1.399 . S
C1357 C1356 1.399 . S
C1357 C1358 1.376 . S
C1358 H1345 0.930 . S
C1358 C1357 1.376 . S
C1358 C1359 1.388 . S
C1359 H1346 0.930 . S
C1359 C1358 1.388 . S
C1359 C1360 1.390 . S
C1360 C1359 1.390 . S
C1360 C1361 1.394 . S
C1360 C1366 1.465 . S
C1361 C1356 1.399 . S
C1361 C1360 1.394 . S
C1361 C1362 1.516 . S
C1362 C1361 1.516 . S
C1362 C1363 1.502 . S
C1362 C1364 1.561 . S
C1362 C1365 1.526 . S
C1363 H1347 0.959 . S
C1363 H1348 0.959 . S
C1363 H1349 0.961 . S
C1363 C1362 1.502 . S
C1364 H1350 0.960 . S
C1364 H1351 0.961 . S
C1364 H1352 0.959 . S
C1364 C1362 1.561 . S
C1365 C1362 1.526 . S
C1365 C1366 1.396 . S
C1365 C1370 1.390 . S
C1366 C1360 1.465 . S
C1366 C1365 1.396 . S
C1366 C1367 1.399 . S
C1367 H1353 0.929 . S
C1367 C1366 1.399 . S
C1367 C1368 1.385 . S
C1368 H1354 0.931 . S
C1368 C1367 1.385 . S
C1368 C1369 1.389 . S
C1369 C1368 1.389 . S
C1369 C1370 1.387 . S
C1370 H1355 0.930 . S
C1370 C1365 1.390 . S
C1370 C1369 1.387 . S
H1371 C1383 0.930 . S
H1372 C1385 0.930 . S
H1373 C1386 0.930 . S
H1374 C1390 0.959 . S
H1375 C1390 0.959 . S
H1376 C1390 0.961 . S
H1377 C1391 0.960 . S
H1378 C1391 0.961 . S
H1379 C1391 0.959 . S
H1380 C1394 0.929 . S
H1381 C1395 0.931 . S
H1382 C1397 0.930 . S
C1383 H1371 0.930 . S
C1383 C1384 1.399 . S
C1383 C1388 1.399 . S
C1384 C1383 1.399 . S
C1384 C1385 1.376 . S
C1385 H1372 0.930 . S
C1385 C1384 1.376 . S
C1385 C1386 1.388 . S
C1386 H1373 0.930 . S
C1386 C1385 1.388 . S
C1386 C1387 1.390 . S
C1387 C1386 1.390 . S
C1387 C1388 1.394 . S
C1387 C1393 1.465 . S
C1388 C1383 1.399 . S
C1388 C1387 1.394 . S
C1388 C1389 1.516 . S
C1389 C1388 1.516 . S
C1389 C1390 1.502 . S
C1389 C1391 1.561 . S
C1389 C1392 1.526 . S
C1390 H1374 0.959 . S
C1390 H1375 0.959 . S
C1390 H1376 0.961 . S
C1390 C1389 1.502 . S
C1391 H1377 0.960 . S
C1391 H1378 0.961 . S
C1391 H1379 0.959 . S
C1391 C1389 1.561 . S
C1392 C1389 1.526 . S
C1392 C1393 1.396 . S
C1392 C1397 1.390 . S
C1393 C1387 1.465 . S
C1393 C1392 1.396 . S
C1393 C1394 1.399 . S
C1394 H1380 0.929 . S
C1394 C1393 1.399 . S
C1394 C1395 1.385 . S
C1395 H1381 0.931 . S
C1395 C1394 1.385 . S
C1395 C1396 1.389 . S
C1396 C1395 1.389 . S
C1396 C1397 1.387 . S
C1397 H1382 0.930 . S
C1397 C1392 1.390 . S
C1397 C1396 1.387 . S
H1398 C1410 0.930 . S
H1399 C1412 0.930 . S
H1400 C1413 0.930 . S
H1401 C1417 0.959 . S
H1402 C1417 0.959 . S
H1403 C1417 0.961 . S
H1404 C1418 0.960 . S
H1405 C1418 0.961 . S
H1406 C1418 0.959 . S
H1407 C1421 0.929 . S
H1408 C1422 0.931 . S
H1409 C1424 0.930 . S
C1410 H1398 0.930 . S
C1410 C1411 1.399 . S
C1410 C1415 1.399 . S
C1411 C1410 1.399 . S
C1411 C1412 1.376 . S
C1412 H1399 0.930 . S
C1412 C1411 1.376 . S
C1412 C1413 1.388 . S
C1413 H1400 0.930 . S
C1413 C1412 1.388 . S
C1413 C1414 1.390 . S
C1414 C1413 1.390 . S
C1414 C1415 1.394 . S
C1414 C1420 1.465 . S
C1415 C1410 1.399 . S
C1415 C1414 1.394 . S
C1415 C1416 1.516 . S
C1416 C1415 1.516 . S
C1416 C1417 1.502 . S
C1416 C1418 1.561 . S
C1416 C1419 1.526 . S
C1417 H1401 0.959 . S
C1417 H1402 0.959 . S
C1417 H1403 0.961 . S
C1417 C1416 1.502 . S
C1418 H1404 0.960 . S
C1418 H1405 0.961 . S
C1418 H1406 0.959 . S
C1418 C1416 1.561 . S
C1419 C1416 1.526 . S
C1419 C1420 1.396 . S
C1419 C1424 1.390 . S
C1420 C1414 1.465 . S
C1420 C1419 1.396 . S
C1420 C1421 1.399 . S
C1421 H1407 0.929 . S
C1421 C1420 1.399 . S
C1421 C1422 1.385 . S
C1422 H1408 0.931 . S
C1422 C1421 1.385 . S
C1422 C1423 1.389 . S
C1423 C1422 1.389 . S
C1423 C1424 1.387 . S
C1424 H1409 0.930 . S
C1424 C1419 1.390 . S
C1424 C1423 1.387 . S
H1425 C1437 0.930 . S
H1426 C1439 0.930 . S
H1427 C1440 0.930 . S
H1428 C1444 0.959 . S
H1429 C1444 0.959 . S
H1430 C1444 0.961 . S
H1431 C1445 0.960 . S
H1432 C1445 0.961 . S
H1433 C1445 0.959 . S
H1434 C1448 0.929 . S
H1435 C1449 0.931 . S
H1436 C1451 0.930 . S
C1437 H1425 0.930 . S
C1437 C1438 1.399 . S
C1437 C1442 1.399 . S
C1438 C1437 1.399 . S
C1438 C1439 1.376 . S
C1439 H1426 0.930 . S
C1439 C1438 1.376 . S
C1439 C1440 1.388 . S
C1440 H1427 0.930 . S
C1440 C1439 1.388 . S
C1440 C1441 1.390 . S
C1441 C1440 1.390 . S
C1441 C1442 1.394 . S
C1441 C1447 1.465 . S
C1442 C1437 1.399 . S
C1442 C1441 1.394 . S
C1442 C1443 1.516 . S
C1443 C1442 1.516 . S
C1443 C1444 1.502 . S
C1443 C1445 1.561 . S
C1443 C1446 1.526 . S
C1444 H1428 0.959 . S
C1444 H1429 0.959 . S
C1444 H1430 0.961 . S
C1444 C1443 1.502 . S
C1445 H1431 0.960 . S
C1445 H1432 0.961 . S
C1445 H1433 0.959 . S
C1445 C1443 1.561 . S
C1446 C1443 1.526 . S
C1446 C1447 1.396 . S
C1446 C1451 1.390 . S
C1447 C1441 1.465 . S
C1447 C1446 1.396 . S
C1447 C1448 1.399 . S
C1448 H1434 0.929 . S
C1448 C1447 1.399 . S
C1448 C1449 1.385 . S
C1449 H1435 0.931 . S
C1449 C1448 1.385 . S
C1449 C1450 1.389 . S
C1450 C1449 1.389 . S
C1450 C1451 1.387 . S
C1451 H1436 0.930 . S
C1451 C1446 1.390 . S
C1451 C1450 1.387 . S
H1452 C1464 0.930 . S
H1453 C1466 0.930 . S
H1454 C1467 0.930 . S
H1455 C1471 0.959 . S
H1456 C1471 0.959 . S
H1457 C1471 0.961 . S
H1458 C1472 0.960 . S
H1459 C1472 0.961 . S
H1460 C1472 0.959 . S
H1461 C1475 0.929 . S
H1462 C1476 0.931 . S
H1463 C1478 0.930 . S
C1464 H1452 0.930 . S
C1464 C1465 1.399 . S
C1464 C1469 1.399 . S
C1465 C1464 1.399 . S
C1465 C1466 1.376 . S
C1466 H1453 0.930 . S
C1466 C1465 1.376 . S
C1466 C1467 1.388 . S
C1467 H1454 0.930 . S
C1467 C1466 1.388 . S
C1467 C1468 1.390 . S
C1468 C1467 1.390 . S
C1468 C1469 1.394 . S
C1468 C1474 1.465 . S
C1469 C1464 1.399 . S
C1469 C1468 1.394 . S
C1469 C1470 1.516 . S
C1470 C1469 1.516 . S
C1470 C1471 1.502 . S
C1470 C1472 1.561 . S
C1470 C1473 1.526 . S
C1471 H1455 0.959 . S
C1471 H1456 0.959 . S
C1471 H1457 0.961 . S
C1471 C1470 1.502 . S
C1472 H1458 0.960 . S
C1472 H1459 0.961 . S
C1472 H1460 0.959 . S
C1472 C1470 1.561 . S
C1473 C1470 1.526 . S
C1473 C1474 1.396 . S
C1473 C1478 1.390 . S
C1474 C1468 1.465 . S
C1474 C1473 1.396 . S
C1474 C1475 1.399 . S
C1475 H1461 0.929 . S
C1475 C1474 1.399 . S
C1475 C1476 1.385 . S
C1476 H1462 0.931 . S
C1476 C1475 1.385 . S
C1476 C1477 1.389 . S
C1477 C1476 1.389 . S
C1477 C1478 1.387 . S
C1478 H1463 0.930 . S
C1478 C1473 1.390 . S
C1478 C1477 1.387 . S
H1479 C1491 0.930 . S
H1480 C1493 0.930 . S
H1481 C1494 0.930 . S
H1482 C1498 0.959 . S
H1483 C1498 0.959 . S
H1484 C1498 0.961 . S
H1485 C1499 0.960 . S
H1486 C1499 0.961 . S
H1487 C1499 0.959 . S
H1488 C1502 0.929 . S
H1489 C1503 0.931 . S
H1490 C1505 0.930 . S
C1491 H1479 0.930 . S
C1491 C1492 1.399 . S
C1491 C1496 1.399 . S
C1492 C1491 1.399 . S
C1492 C1493 1.376 . S
C1493 H1480 0.930 . S
C1493 C1492 1.376 . S
C1493 C1494 1.388 . S
C1494 H1481 0.930 . S
C1494 C1493 1.388 . S
C1494 C1495 1.390 . S
C1495 C1494 1.390 . S
C1495 C1496 1.394 . S
C1495 C1501 1.465 . S
C1496 C1491 1.399 . S
C1496 C1495 1.394 . S
C1496 C1497 1.516 . S
C1497 C1496 1.516 . S
C1497 C1498 1.502 . S
C1497 C1499 1.561 . S
C1497 C1500 1.526 . S
C1498 H1482 0.959 . S
C1498 H1483 0.959 . S
C1498 H1484 0.961 . S
C1498 C1497 1.502 . S
C1499 H1485 0.960 . S
C1499 H1486 0.961 . S
C1499 H1487 0.959 . S
C1499 C1497 1.561 . S
C1500 C1497 1.526 . S
C1500 C1501 1.396 . S
C1500 C1505 1.390 . S
C1501 C1495 1.465 . S
C1501 C1500 1.396 . S
C1501 C1502 1.399 . S
C1502 H1488 0.929 . S
C1502 C1501 1.399 . S
C1502 C1503 1.385 . S
C1503 H1489 0.931 . S
C1503 C1502 1.385 . S
C1503 C1504 1.389 . S
C1504 C1503 1.389 . S
C1504 C1505 1.387 . S
C1505 H1490 0.930 . S
C1505 C1500 1.390 . S
C1505 C1504 1.387 . S
H1506 C1518 0.930 . S
H1507 C1520 0.930 . S
H1508 C1521 0.930 . S
H1509 C1525 0.959 . S
H1510 C1525 0.959 . S
H1511 C1525 0.961 . S
H1512 C1526 0.960 . S
H1513 C1526 0.961 . S
H1514 C1526 0.959 . S
H1515 C1529 0.929 . S
H1516 C1530 0.931 . S
H1517 C1532 0.930 . S
C1518 H1506 0.930 . S
C1518 C1519 1.399 . S
C1518 C1523 1.399 . S
C1519 C1518 1.399 . S
C1519 C1520 1.376 . S
C1520 H1507 0.930 . S
C1520 C1519 1.376 . S
C1520 C1521 1.388 . S
C1521 H1508 0.930 . S
C1521 C1520 1.388 . S
C1521 C1522 1.390 . S
C1522 C1521 1.390 . S
C1522 C1523 1.394 . S
C1522 C1528 1.465 . S
C1523 C1518 1.399 . S
C1523 C1522 1.394 . S
C1523 C1524 1.516 . S
C1524 C1523 1.516 . S
C1524 C1525 1.502 . S
C1524 C1526 1.561 . S
C1524 C1527 1.526 . S
C1525 H1509 0.959 . S
C1525 H1510 0.959 . S
C1525 H1511 0.961 . S
C1525 C1524 1.502 . S
C1526 H1512 0.960 . S
C1526 H1513 0.961 . S
C1526 H1514 0.959 . S
C1526 C1524 1.561 . S
C1527 C1524 1.526 . S
C1527 C1528 1.396 . S
C1527 C1532 1.390 . S
C1528 C1522 1.465 . S
C1528 C1527 1.396 . S
C1528 C1529 1.399 . S
C1529 H1515 0.929 . S
C1529 C1528 1.399 . S
C1529 C1530 1.385 . S
C1530 H1516 0.931 . S
C1530 C1529 1.385 . S
C1530 C1531 1.389 . S
C1531 C1530 1.389 . S
C1531 C1532 1.387 . S
C1532 H1517 0.930 . S
C1532 C1527 1.390 . S
C1532 C1531 1.387 . S
H1533 C1545 0.930 . S
H1534 C1547 0.930 . S
H1535 C1548 0.930 . S
H1536 C1552 0.959 . S
H1537 C1552 0.959 . S
H1538 C1552 0.961 . S
H1539 C1553 0.960 . S
H1540 C1553 0.961 . S
H1541 C1553 0.959 . S
H1542 C1556 0.929 . S
H1543 C1557 0.931 . S
H1544 C1559 0.930 . S
C1545 H1533 0.930 . S
C1545 C1546 1.399 . S
C1545 C1550 1.399 . S
C1546 C1545 1.399 . S
C1546 C1547 1.376 . S
C1547 H1534 0.930 . S
C1547 C1546 1.376 . S
C1547 C1548 1.388 . S
C1548 H1535 0.930 . S
C1548 C1547 1.388 . S
C1548 C1549 1.390 . S
C1549 C1548 1.390 . S
C1549 C1550 1.394 . S
C1549 C1555 1.465 . S
C1550 C1545 1.399 . S
C1550 C1549 1.394 . S
C1550 C1551 1.516 . S
C1551 C1550 1.516 . S
C1551 C1552 1.502 . S
C1551 C1553 1.561 . S
C1551 C1554 1.526 . S
C1552 H1536 0.959 . S
C1552 H1537 0.959 . S
C1552 H1538 0.961 . S
C1552 C1551 1.502 . S
C1553 H1539 0.960 . S
C1553 H1540 0.961 . S
C1553 H1541 0.959 . S
C1553 C1551 1.561 . S
C1554 C1551 1.526 . S
C1554 C1555 1.396 . S
C1554 C1559 1.390 . S
C1555 C1549 1.465 . S
C1555 C1554 1.396 . S
C1555 C1556 1.399 . S
C1556 H1542 0.929 . S
C1556 C1555 1.399 . S
C1556 C1557 1.385 . S
C1557 H1543 0.931 . S
C1557 C1556 1.385 . S
C1557 C1558 1.389 . S
C1558 C1557 1.389 . S
C1558 C1559 1.387 . S
C1559 H1544 0.930 . S
C1559 C1554 1.390 . S
C1559 C1558 1.387 . S
H1560 C1572 0.930 . S
H1561 C1574 0.930 . S
H1562 C1575 0.930 . S
H1563 C1579 0.959 . S
H1564 C1579 0.959 . S
H1565 C1579 0.961 . S
H1566 C1580 0.960 . S
H1567 C1580 0.961 . S
H1568 C1580 0.959 . S
H1569 C1583 0.929 . S
H1570 C1584 0.931 . S
H1571 C1586 0.930 . S
C1572 H1560 0.930 . S
C1572 C1573 1.399 . S
C1572 C1577 1.399 . S
C1573 C1572 1.399 . S
C1573 C1574 1.376 . S
C1574 H1561 0.930 . S
C1574 C1573 1.376 . S
C1574 C1575 1.388 . S
C1575 H1562 0.930 . S
C1575 C1574 1.388 . S
C1575 C1576 1.390 . S
C1576 C1575 1.390 . S
C1576 C1577 1.394 . S
C1576 C1582 1.465 . S
C1577 C1572 1.399 . S
C1577 C1576 1.394 . S
C1577 C1578 1.516 . S
C1578 C1577 1.516 . S
C1578 C1579 1.502 . S
C1578 C1580 1.561 . S
C1578 C1581 1.526 . S
C1579 H1563 0.959 . S
C1579 H1564 0.959 . S
C1579 H1565 0.961 . S
C1579 C1578 1.502 . S
C1580 H1566 0.960 . S
C1580 H1567 0.961 . S
C1580 H1568 0.959 . S
C1580 C1578 1.561 . S
C1581 C1578 1.526 . S
C1581 C1582 1.396 . S
C1581 C1586 1.390 . S
C1582 C1576 1.465 . S
C1582 C1581 1.396 . S
C1582 C1583 1.399 . S
C1583 H1569 0.929 . S
C1583 C1582 1.399 . S
C1583 C1584 1.385 . S
C1584 H1570 0.931 . S
C1584 C1583 1.385 . S
C1584 C1585 1.389 . S
C1585 C1584 1.389 . S
C1585 C1586 1.387 . S
C1586 H1571 0.930 . S
C1586 C1581 1.390 . S
C1586 C1585 1.387 . S
H1587 C1599 0.930 . S
H1588 C1601 0.930 . S
H1589 C1602 0.930 . S
H1590 C1606 0.959 . S
H1591 C1606 0.959 . S
H1592 C1606 0.961 . S
H1593 C1607 0.960 . S
H1594 C1607 0.961 . S
H1595 C1607 0.959 . S
H1596 C1610 0.929 . S
H1597 C1611 0.931 . S
H1598 C1613 0.930 . S
C1599 H1587 0.930 . S
C1599 C1600 1.399 . S
C1599 C1604 1.399 . S
C1600 C1599 1.399 . S
C1600 C1601 1.376 . S
C1601 H1588 0.930 . S
C1601 C1600 1.376 . S
C1601 C1602 1.388 . S
C1602 H1589 0.930 . S
C1602 C1601 1.388 . S
C1602 C1603 1.390 . S
C1603 C1602 1.390 . S
C1603 C1604 1.394 . S
C1603 C1609 1.465 . S
C1604 C1599 1.399 . S
C1604 C1603 1.394 . S
C1604 C1605 1.516 . S
C1605 C1604 1.516 . S
C1605 C1606 1.502 . S
C1605 C1607 1.561 . S
C1605 C1608 1.526 . S
C1606 H1590 0.959 . S
C1606 H1591 0.959 . S
C1606 H1592 0.961 . S
C1606 C1605 1.502 . S
C1607 H1593 0.960 . S
C1607 H1594 0.961 . S
C1607 H1595 0.959 . S
C1607 C1605 1.561 . S
C1608 C1605 1.526 . S
C1608 C1609 1.396 . S
C1608 C1613 1.390 . S
C1609 C1603 1.465 . S
C1609 C1608 1.396 . S
C1609 C1610 1.399 . S
C1610 H1596 0.929 . S
C1610 C1609 1.399 . S
C1610 C1611 1.385 . S
C1611 H1597 0.931 . S
C1611 C1610 1.385 . S
C1611 C1612 1.389 . S
C1612 C1611 1.389 . S
C1612 C1613 1.387 . S
C1613 H1598 0.930 . S
C1613 C1608 1.390 . S
C1613 C1612 1.387 . S
H1614 C1626 0.930 . S
H1615 C1628 0.930 . S
H1616 C1629 0.930 . S
H1617 C1633 0.959 . S
H1618 C1633 0.959 . S
H1619 C1633 0.961 . S
H1620 C1634 0.960 . S
H1621 C1634 0.961 . S
H1622 C1634 0.959 . S
H1623 C1637 0.929 . S
H1624 C1638 0.931 . S
H1625 C1640 0.930 . S
C1626 H1614 0.930 . S
C1626 C1627 1.399 . S
C1626 C1631 1.399 . S
C1627 C1626 1.399 . S
C1627 C1628 1.376 . S
C1628 H1615 0.930 . S
C1628 C1627 1.376 . S
C1628 C1629 1.388 . S
C1629 H1616 0.930 . S
C1629 C1628 1.388 . S
C1629 C1630 1.390 . S
C1630 C1629 1.390 . S
C1630 C1631 1.394 . S
C1630 C1636 1.465 . S
C1631 C1626 1.399 . S
C1631 C1630 1.394 . S
C1631 C1632 1.516 . S
C1632 C1631 1.516 . S
C1632 C1633 1.502 . S
C1632 C1634 1.561 . S
C1632 C1635 1.526 . S
C1633 H1617 0.959 . S
C1633 H1618 0.959 . S
C1633 H1619 0.961 . S
C1633 C1632 1.502 . S
C1634 H1620 0.960 . S
C1634 H1621 0.961 . S
C1634 H1622 0.959 . S
C1634 C1632 1.561 . S
C1635 C1632 1.526 . S
C1635 C1636 1.396 . S
C1635 C1640 1.390 . S
C1636 C1630 1.465 . S
C1636 C1635 1.396 . S
C1636 C1637 1.399 . S
C1637 H1623 0.929 . S
C1637 C1636 1.399 . S
C1637 C1638 1.385 . S
C1638 H1624 0.931 . S
C1638 C1637 1.385 . S
C1638 C1639 1.389 . S
C1639 C1638 1.389 . S
C1639 C1640 1.387 . S
C1640 H1625 0.930 . S
C1640 C1635 1.390 . S
C1640 C1639 1.387 . S
H1641 C1653 0.930 . S
H1642 C1655 0.930 . S
H1643 C1656 0.930 . S
H1644 C1660 0.959 . S
H1645 C1660 0.959 . S
H1646 C1660 0.961 . S
H1647 C1661 0.960 . S
H1648 C1661 0.961 . S
H1649 C1661 0.959 . S
H1650 C1664 0.929 . S
H1651 C1665 0.931 . S
H1652 C1667 0.930 . S
C1653 H1641 0.930 . S
C1653 C1654 1.399 . S
C1653 C1658 1.399 . S
C1654 C1653 1.399 . S
C1654 C1655 1.376 . S
C1655 H1642 0.930 . S
C1655 C1654 1.376 . S
C1655 C1656 1.388 . S
C1656 H1643 0.930 . S
C1656 C1655 1.388 . S
C1656 C1657 1.390 . S
C1657 C1656 1.390 . S
C1657 C1658 1.394 . S
C1657 C1663 1.465 . S
C1658 C1653 1.399 . S
C1658 C1657 1.394 . S
C1658 C1659 1.516 . S
C1659 C1658 1.516 . S
C1659 C1660 1.502 . S
C1659 C1661 1.561 . S
C1659 C1662 1.526 . S
C1660 H1644 0.959 . S
C1660 H1645 0.959 . S
C1660 H1646 0.961 . S
C1660 C1659 1.502 . S
C1661 H1647 0.960 . S
C1661 H1648 0.961 . S
C1661 H1649 0.959 . S
C1661 C1659 1.561 . S
C1662 C1659 1.526 . S
C1662 C1663 1.396 . S
C1662 C1667 1.390 . S
C1663 C1657 1.465 . S
C1663 C1662 1.396 . S
C1663 C1664 1.399 . S
C1664 H1650 0.929 . S
C1664 C1663 1.399 . S
C1664 C1665 1.385 . S
C1665 H1651 0.931 . S
C1665 C1664 1.385 . S
C1665 C1666 1.389 . S
C1666 C1665 1.389 . S
C1666 C1667 1.387 . S
C1667 H1652 0.930 . S
C1667 C1662 1.390 . S
C1667 C1666 1.387 . S
H1668 C1680 0.930 . S
H1669 C1682 0.930 . S
H1670 C1683 0.930 . S
H1671 C1687 0.959 . S
H1672 C1687 0.959 . S
H1673 C1687 0.961 . S
H1674 C1688 0.960 . S
H1675 C1688 0.961 . S
H1676 C1688 0.959 . S
H1677 C1691 0.929 . S
H1678 C1692 0.931 . S
H1679 C1694 0.930 . S
C1680 H1668 0.930 . S
C1680 C1681 1.399 . S
C1680 C1685 1.399 . S
C1681 C1680 1.399 . S
C1681 C1682 1.376 . S
C1682 H1669 0.930 . S
C1682 C1681 1.376 . S
C1682 C1683 1.388 . S
C1683 H1670 0.930 . S
C1683 C1682 1.388 . S
C1683 C1684 1.390 . S
C1684 C1683 1.390 . S
C1684 C1685 1.394 . S
C1684 C1690 1.465 . S
C1685 C1680 1.399 . S
C1685 C1684 1.394 . S
C1685 C1686 1.516 . S
C1686 C1685 1.516 . S
C1686 C1687 1.502 . S
C1686 C1688 1.561 . S
C1686 C1689 1.526 . S
C1687 H1671 0.959 . S
C1687 H1672 0.959 . S
C1687 H1673 0.961 . S
C1687 C1686 1.502 . S
C1688 H1674 0.960 . S
C1688 H1675 0.961 . S
C1688 H1676 0.959 . S
C1688 C1686 1.561 . S
C1689 C1686 1.526 . S
C1689 C1690 1.396 . S
C1689 C1694 1.390 . S
C1690 C1684 1.465 . S
C1690 C1689 1.396 . S
C1690 C1691 1.399 . S
C1691 H1677 0.929 . S
C1691 C1690 1.399 . S
C1691 C1692 1.385 . S
C1692 H1678 0.931 . S
C1692 C1691 1.385 . S
C1692 C1693 1.389 . S
C1693 C1692 1.389 . S
C1693 C1694 1.387 . S
C1694 H1679 0.930 . S
C1694 C1689 1.390 . S
C1694 C1693 1.387 . S
H1695 C1707 0.930 . S
H1696 C1709 0.930 . S
H1697 C1710 0.930 . S
H1698 C1714 0.959 . S
H1699 C1714 0.959 . S
H1700 C1714 0.961 . S
H1701 C1715 0.960 . S
H1702 C1715 0.961 . S
H1703 C1715 0.959 . S
H1704 C1718 0.929 . S
H1705 C1719 0.931 . S
H1706 C1721 0.930 . S
C1707 H1695 0.930 . S
C1707 C1708 1.399 . S
C1707 C1712 1.399 . S
C1708 C1707 1.399 . S
C1708 C1709 1.376 . S
C1709 H1696 0.930 . S
C1709 C1708 1.376 . S
C1709 C1710 1.388 . S
C1710 H1697 0.930 . S
C1710 C1709 1.388 . S
C1710 C1711 1.390 . S
C1711 C1710 1.390 . S
C1711 C1712 1.394 . S
C1711 C1717 1.465 . S
C1712 C1707 1.399 . S
C1712 C1711 1.394 . S
C1712 C1713 1.516 . S
C1713 C1712 1.516 . S
C1713 C1714 1.502 . S
C1713 C1715 1.561 . S
C1713 C1716 1.526 . S
C1714 H1698 0.959 . S
C1714 H1699 0.959 . S
C1714 H1700 0.961 . S
C1714 C1713 1.502 . S
C1715 H1701 0.960 . S
C1715 H1702 0.961 . S
C1715 H1703 0.959 . S
C1715 C1713 1.561 . S
C1716 C1713 1.526 . S
C1716 C1717 1.396 . S
C1716 C1721 1.390 . S
C1717 C1711 1.465 . S
C1717 C1716 1.396 . S
C1717 C1718 1.399 . S
C1718 H1704 0.929 . S
C1718 C1717 1.399 . S
C1718 C1719 1.385 . S
C1719 H1705 0.931 . S
C1719 C1718 1.385 . S
C1719 C1720 1.389 . S
C1720 C1719 1.389 . S
C1720 C1721 1.387 . S
C1721 H1706 0.930 . S
C1721 C1716 1.390 . S
C1721 C1720 1.387 . S
H1722 C1734 0.930 . S
H1723 C1736 0.930 . S
H1724 C1737 0.930 . S
H1725 C1741 0.959 . S
H1726 C1741 0.959 . S
H1727 C1741 0.961 . S
H1728 C1742 0.960 . S
H1729 C1742 0.961 . S
H1730 C1742 0.959 . S
H1731 C1745 0.929 . S
H1732 C1746 0.931 . S
H1733 C1748 0.930 . S
C1734 H1722 0.930 . S
C1734 C1735 1.399 . S
C1734 C1739 1.399 . S
C1735 C1734 1.399 . S
C1735 C1736 1.376 . S
C1736 H1723 0.930 . S
C1736 C1735 1.376 . S
C1736 C1737 1.388 . S
C1737 H1724 0.930 . S
C1737 C1736 1.388 . S
C1737 C1738 1.390 . S
C1738 C1737 1.390 . S
C1738 C1739 1.394 . S
C1738 C1744 1.465 . S
C1739 C1734 1.399 . S
C1739 C1738 1.394 . S
C1739 C1740 1.516 . S
C1740 C1739 1.516 . S
C1740 C1741 1.502 . S
C1740 C1742 1.561 . S
C1740 C1743 1.526 . S
C1741 H1725 0.959 . S
C1741 H1726 0.959 . S
C1741 H1727 0.961 . S
C1741 C1740 1.502 . S
C1742 H1728 0.960 . S
C1742 H1729 0.961 . S
C1742 H1730 0.959 . S
C1742 C1740 1.561 . S
C1743 C1740 1.526 . S
C1743 C1744 1.396 . S
C1743 C1748 1.390 . S
C1744 C1738 1.465 . S
C1744 C1743 1.396 . S
C1744 C1745 1.399 . S
C1745 H1731 0.929 . S
C1745 C1744 1.399 . S
C1745 C1746 1.385 . S
C1746 H1732 0.931 . S
C1746 C1745 1.385 . S
C1746 C1747 1.389 . S
C1747 C1746 1.389 . S
C1747 C1748 1.387 . S
C1748 H1733 0.930 . S
C1748 C1743 1.390 . S
C1748 C1747 1.387 . S
H1749 C1761 0.930 . S
H1750 C1763 0.930 . S
H1751 C1764 0.930 . S
H1752 C1768 0.959 . S
H1753 C1768 0.959 . S
H1754 C1768 0.961 . S
H1755 C1769 0.960 . S
H1756 C1769 0.961 . S
H1757 C1769 0.959 . S
H1758 C1772 0.929 . S
H1759 C1773 0.931 . S
H1760 C1775 0.930 . S
C1761 H1749 0.930 . S
C1761 C1762 1.399 . S
C1761 C1766 1.399 . S
C1762 C1761 1.399 . S
C1762 C1763 1.376 . S
C1763 H1750 0.930 . S
C1763 C1762 1.376 . S
C1763 C1764 1.388 . S
C1764 H1751 0.930 . S
C1764 C1763 1.388 . S
C1764 C1765 1.390 . S
C1765 C1764 1.390 . S
C1765 C1766 1.394 . S
C1765 C1771 1.465 . S
C1766 C1761 1.399 . S
C1766 C1765 1.394 . S
C1766 C1767 1.516 . S
C1767 C1766 1.516 . S
C1767 C1768 1.502 . S
C1767 C1769 1.561 . S
C1767 C1770 1.526 . S
C1768 H1752 0.959 . S
C1768 H1753 0.959 . S
C1768 H1754 0.961 . S
C1768 C1767 1.502 . S
C1769 H1755 0.960 . S
C1769 H1756 0.961 . S
C1769 H1757 0.959 . S
C1769 C1767 1.561 . S
C1770 C1767 1.526 . S
C1770 C1771 1.396 . S
C1770 C1775 1.390 . S
C1771 C1765 1.465 . S
C1771 C1770 1.396 . S
C1771 C1772 1.399 . S
C1772 H1758 0.929 . S
C1772 C1771 1.399 . S
C1772 C1773 1.385 . S
C1773 H1759 0.931 . S
C1773 C1772 1.385 . S
C1773 C1774 1.389 . S
C1774 C1773 1.389 . S
C1774 C1775 1.387 . S
C1775 H1760 0.930 . S
C1775 C1770 1.390 . S
C1775 C1774 1.387 . S
H1776 C1788 0.930 . S
H1777 C1790 0.930 . S
H1778 C1791 0.930 . S
H1779 C1795 0.959 . S
H1780 C1795 0.959 . S
H1781 C1795 0.961 . S
H1782 C1796 0.960 . S
H1783 C1796 0.961 . S
H1784 C1796 0.959 . S
H1785 C1799 0.929 . S
H1786 C1800 0.931 . S
H1787 C1802 0.930 . S
C1788 H1776 0.930 . S
C1788 C1789 1.399 . S
C1788 C1793 1.399 . S
C1789 C1788 1.399 . S
C1789 C1790 1.376 . S
C1790 H1777 0.930 . S
C1790 C1789 1.376 . S
C1790 C1791 1.388 . S
C1791 H1778 0.930 . S
C1791 C1790 1.388 . S
C1791 C1792 1.390 . S
C1792 C1791 1.390 . S
C1792 C1793 1.394 . S
C1792 C1798 1.465 . S
C1793 C1788 1.399 . S
C1793 C1792 1.394 . S
C1793 C1794 1.516 . S
C1794 C1793 1.516 . S
C1794 C1795 1.502 . S
C1794 C1796 1.561 . S
C1794 C1797 1.526 . S
C1795 H1779 0.959 . S
C1795 H1780 0.959 . S
C1795 H1781 0.961 . S
C1795 C1794 1.502 . S
C1796 H1782 0.960 . S
C1796 H1783 0.961 . S
C1796 H1784 0.959 . S
C1796 C1794 1.561 . S
C1797 C1794 1.526 . S
C1797 C1798 1.396 . S
C1797 C1802 1.390 . S
C1798 C1792 1.465 . S
C1798 C1797 1.396 . S
C1798 C1799 1.399 . S
C1799 H1785 0.929 . S
C1799 C1798 1.399 . S
C1799 C1800 1.385 . S
C1800 H1786 0.931 . S
C1800 C1799 1.385 . S
C1800 C1801 1.389 . S
C1801 C1800 1.389 . S
C1801 C1802 1.387 . S
C1802 H1787 0.930 . S
C1802 C1797 1.390 . S
C1802 C1801 1.387 . S
H1803 C1815 0.930 . S
H1804 C1817 0.930 . S
H1805 C1818 0.930 . S
H1806 C1822 0.959 . S
H1807 C1822 0.959 . S
H1808 C1822 0.961 . S
H1809 C1823 0.960 . S
H1810 C1823 0.961 . S
H1811 C1823 0.959 . S
H1812 C1826 0.929 . S
H1813 C1827 0.931 . S
H1814 C1829 0.930 . S
C1815 H1803 0.930 . S
C1815 C1816 1.399 . S
C1815 C1820 1.399 . S
C1816 C1815 1.399 . S
C1816 C1817 1.376 . S
C1817 H1804 0.930 . S
C1817 C1816 1.376 . S
C1817 C1818 1.388 . S
C1818 H1805 0.930 . S
C1818 C1817 1.388 . S
C1818 C1819 1.390 . S
C1819 C1818 1.390 . S
C1819 C1820 1.394 . S
C1819 C1825 1.465 . S
C1820 C1815 1.399 . S
C1820 C1819 1.394 . S
C1820 C1821 1.516 . S
C1821 C1820 1.516 . S
C1821 C1822 1.502 . S
C1821 C1823 1.561 . S
C1821 C1824 1.526 . S
C1822 H1806 0.959 . S
C1822 H1807 0.959 . S
C1822 H1808 0.961 . S
C1822 C1821 1.502 . S
C1823 H1809 0.960 . S
C1823 H1810 0.961 . S
C1823 H1811 0.959 . S
C1823 C1821 1.561 . S
C1824 C1821 1.526 . S
C1824 C1825 1.396 . S
C1824 C1829 1.390 . S
C1825 C1819 1.465 . S
C1825 C1824 1.396 . S
C1825 C1826 1.399 . S
C1826 H1812 0.929 . S
C1826 C1825 1.399 . S
C1826 C1827 1.385 . S
C1827 H1813 0.931 . S
C1827 C1826 1.385 . S
C1827 C1828 1.389 . S
C1828 C1827 1.389 . S
C1828 C1829 1.387 . S
C1829 H1814 0.930 . S
C1829 C1824 1.390 . S
C1829 C1828 1.387 . S
H1830 C1842 0.930 . S
H1831 C1844 0.930 . S
H1832 C1845 0.930 . S
H1833 C1849 0.959 . S
H1834 C1849 0.959 . S
H1835 C1849 0.961 . S
H1836 C1850 0.960 . S
H1837 C1850 0.961 . S
H1838 C1850 0.959 . S
H1839 C1853 0.929 . S
H1840 C1854 0.931 . S
H1841 C1856 0.930 . S
C1842 H1830 0.930 . S
C1842 C1843 1.399 . S
C1842 C1847 1.399 . S
C1843 C1842 1.399 . S
C1843 C1844 1.376 . S
C1844 H1831 0.930 . S
C1844 C1843 1.376 . S
C1844 C1845 1.388 . S
C1845 H1832 0.930 . S
C1845 C1844 1.388 . S
C1845 C1846 1.390 . S
C1846 C1845 1.390 . S
C1846 C1847 1.394 . S
C1846 C1852 1.465 . S
C1847 C1842 1.399 . S
C1847 C1846 1.394 . S
C1847 C1848 1.516 . S
C1848 C1847 1.516 . S
C1848 C1849 1.502 . S
C1848 C1850 1.561 . S
C1848 C1851 1.526 . S
C1849 H1833 0.959 . S
C1849 H1834 0.959 . S
C1849 H1835 0.961 . S
C1849 C1848 1.502 . S
C1850 H1836 0.960 . S
C1850 H1837 0.961 . S
C1850 H1838 0.959 . S
C1850 C1848 1.561 . S
C1851 C1848 1.526 . S
C1851 C1852 1.396 . S
C1851 C1856 1.390 . S
C1852 C1846 1.465 . S
C1852 C1851 1.396 . S
C1852 C1853 1.399 . S
C1853 H1839 0.929 . S
C1853 C1852 1.399 . S
C1853 C1854 1.385 . S
C1854 H1840 0.931 . S
C1854 C1853 1.385 . S
C1854 C1855 1.389 . S
C1855 C1854 1.389 . S
C1855 C1856 1.387 . S
C1856 H1841 0.930 . S
C1856 C1851 1.390 . S
C1856 C1855 1.387 . S
H1857 C1869 0.930 . S
H1858 C1871 0.930 . S
H1859 C1872 0.930 . S
H1860 C1876 0.959 . S
H1861 C1876 0.959 . S
H1862 C1876 0.961 . S
H1863 C1877 0.960 . S
H1864 C1877 0.961 . S
H1865 C1877 0.959 . S
H1866 C1880 0.929 . S
H1867 C1881 0.931 . S
H1868 C1883 0.930 . S
C1869 H1857 0.930 . S
C1869 C1870 1.399 . S
C1869 C1874 1.399 . S
C1870 C1869 1.399 . S
C1870 C1871 1.376 . S
C1871 H1858 0.930 . S
C1871 C1870 1.376 . S
C1871 C1872 1.388 . S
C1872 H1859 0.930 . S
C1872 C1871 1.388 . S
C1872 C1873 1.390 . S
C1873 C1872 1.390 . S
C1873 C1874 1.394 . S
C1873 C1879 1.465 . S
C1874 C1869 1.399 . S
C1874 C1873 1.394 . S
C1874 C1875 1.516 . S
C1875 C1874 1.516 . S
C1875 C1876 1.502 . S
C1875 C1877 1.561 . S
C1875 C1878 1.526 . S
C1876 H1860 0.959 . S
C1876 H1861 0.959 . S
C1876 H1862 0.961 . S
C1876 C1875 1.502 . S
C1877 H1863 0.960 . S
C1877 H1864 0.961 . S
C1877 H1865 0.959 . S
C1877 C1875 1.561 . S
C1878 C1875 1.526 . S
C1878 C1879 1.396 . S
C1878 C1883 1.390 . S
C1879 C1873 1.465 . S
C1879 C1878 1.396 . S
C1879 C1880 1.399 . S
C1880 H1866 0.929 . S
C1880 C1879 1.399 . S
C1880 C1881 1.385 . S
C1881 H1867 0.931 . S
C1881 C1880 1.385 . S
C1881 C1882 1.389 . S
C1882 C1881 1.389 . S
C1882 C1883 1.387 . S
C1883 H1868 0.930 . S
C1883 C1878 1.390 . S
C1883 C1882 1.387 . S
H1884 C1896 0.930 . S
H1885 C1898 0.930 . S
H1886 C1899 0.930 . S
H1887 C1903 0.959 . S
H1888 C1903 0.959 . S
H1889 C1903 0.961 . S
H1890 C1904 0.960 . S
H1891 C1904 0.961 . S
H1892 C1904 0.959 . S
H1893 C1907 0.929 . S
H1894 C1908 0.931 . S
H1895 C1910 0.930 . S
C1896 H1884 0.930 . S
C1896 C1897 1.399 . S
C1896 C1901 1.399 . S
C1897 C1896 1.399 . S
C1897 C1898 1.376 . S
C1898 H1885 0.930 . S
C1898 C1897 1.376 . S
C1898 C1899 1.388 . S
C1899 H1886 0.930 . S
C1899 C1898 1.388 . S
C1899 C1900 1.390 . S
C1900 C1899 1.390 . S
C1900 C1901 1.394 . S
C1900 C1906 1.465 . S
C1901 C1896 1.399 . S
C1901 C1900 1.394 . S
C1901 C1902 1.516 . S
C1902 C1901 1.516 . S
C1902 C1903 1.502 . S
C1902 C1904 1.561 . S
C1902 C1905 1.526 . S
C1903 H1887 0.959 . S
C1903 H1888 0.959 . S
C1903 H1889 0.961 . S
C1903 C1902 1.502 . S
C1904 H1890 0.960 . S
C1904 H1891 0.961 . S
C1904 H1892 0.959 . S
C1904 C1902 1.561 . S
C1905 C1902 1.526 . S
C1905 C1906 1.396 . S
C1905 C1910 1.390 . S
C1906 C1900 1.465 . S
C1906 C1905 1.396 . S
C1906 C1907 1.399 . S
C1907 H1893 0.929 . S
C1907 C1906 1.399 . S
C1907 C1908 1.385 . S
C1908 H1894 0.931 . S
C1908 C1907 1.385 . S
C1908 C1909 1.389 . S
C1909 C1908 1.389 . S
C1909 C1910 1.387 . S
C1910 H1895 0.930 . S
C1910 C1905 1.390 . S
C1910 C1909 1.387 . S
H1911 C1923 0.930 . S
H1912 C1925 0.930 . S
H1913 C1926 0.930 . S
H1914 C1930 0.959 . S
H1915 C1930 0.959 . S
H1916 C1930 0.961 . S
H1917 C1931 0.960 . S
H1918 C1931 0.961 . S
H1919 C1931 0.959 . S
H1920 C1934 0.929 . S
H1921 C1935 0.931 . S
H1922 C1937 0.930 . S
C1923 H1911 0.930 . S
C1923 C1924 1.399 . S
C1923 C1928 1.399 . S
C1924 C1923 1.399 . S
C1924 C1925 1.376 . S
C1925 H1912 0.930 . S
C1925 C1924 1.376 . S
C1925 C1926 1.388 . S
C1926 H1913 0.930 . S
C1926 C1925 1.388 . S
C1926 C1927 1.390 . S
C1927 C1926 1.390 . S
C1927 C1928 1.394 . S
C1927 C1933 1.465 . S
C1928 C1923 1.399 . S
C1928 C1927 1.394 . S
C1928 C1929 1.516 . S
C1929 C1928 1.516 . S
C1929 C1930 1.502 . S
C1929 C1931 1.561 . S
C1929 C1932 1.526 . S
C1930 H1914 0.959 . S
C1930 H1915 0.959 . S
C1930 H1916 0.961 . S
C1930 C1929 1.502 . S
C1931 H1917 0.960 . S
C1931 H1918 0.961 . S
C1931 H1919 0.959 . S
C1931 C1929 1.561 . S
C1932 C1929 1.526 . S
C1932 C1933 1.396 . S
C1932 C1937 1.390 . S
C1933 C1927 1.465 . S
C1933 C1932 1.396 . S
C1933 C1934 1.399 . S
C1934 H1920 0.929 . S
C1934 C1933 1.399 . S
C1934 C1935 1.385 . S
C1935 H1921 0.931 . S
C1935 C1934 1.385 . S
C1935 C1936 1.389 . S
C1936 C1935 1.389 . S
C1936 C1937 1.387 . S
C1937 H1922 0.930 . S
C1937 C1932 1.390 . S
C1937 C1936 1.387 . S
H1938 C1950 0.930 . S
H1939 C1952 0.930 . S
H1940 C1953 0.930 . S
H1941 C1957 0.959 . S
H1942 C1957 0.959 . S
H1943 C1957 0.961 . S
H1944 C1958 0.960 . S
H1945 C1958 0.961 . S
H1946 C1958 0.959 . S
H1947 C1961 0.929 . S
H1948 C1962 0.931 . S
H1949 C1964 0.930 . S
C1950 H1938 0.930 . S
C1950 C1951 1.399 . S
C1950 C1955 1.399 . S
C1951 C1950 1.399 . S
C1951 C1952 1.376 . S
C1952 H1939 0.930 . S
C1952 C1951 1.376 . S
C1952 C1953 1.388 . S
C1953 H1940 0.930 . S
C1953 C1952 1.388 . S
C1953 C1954 1.390 . S
C1954 C1953 1.390 . S
C1954 C1955 1.394 . S
C1954 C1960 1.465 . S
C1955 C1950 1.399 . S
C1955 C1954 1.394 . S
C1955 C1956 1.516 . S
C1956 C1955 1.516 . S
C1956 C1957 1.502 . S
C1956 C1958 1.561 . S
C1956 C1959 1.526 . S
C1957 H1941 0.959 . S
C1957 H1942 0.959 . S
C1957 H1943 0.961 . S
C1957 C1956 1.502 . S
C1958 H1944 0.960 . S
C1958 H1945 0.961 . S
C1958 H1946 0.959 . S
C1958 C1956 1.561 . S
C1959 C1956 1.526 . S
C1959 C1960 1.396 . S
C1959 C1964 1.390 . S
C1960 C1954 1.465 . S
C1960 C1959 1.396 . S
C1960 C1961 1.399 . S
C1961 H1947 0.929 . S
C1961 C1960 1.399 . S
C1961 C1962 1.385 . S
C1962 H1948 0.931 . S
C1962 C1961 1.385 . S
C1962 C1963 1.389 . S
C1963 C1962 1.389 . S
C1963 C1964 1.387 . S
C1964 H1949 0.930 . S
C1964 C1959 1.390 . S
C1964 C1963 1.387 . S
H1965 C1977 0.930 . S
H1966 C1979 0.930 . S
H1967 C1980 0.930 . S
H1968 C1984 0.959 . S
H1969 C1984 0.959 . S
H1970 C1984 0.961 . S
H1971 C1985 0.960 . S
H1972 C1985 0.961 . S
H1973 C1985 0.959 . S
H1974 C1988 0.929 . S
H1975 C1989 0.931 . S
H1976 C1991 0.930 . S
C1977 H1965 0.930 . S
C1977 C1978 1.399 . S
C1977 C1982 1.399 . S
C1978 C1977 1.399 . S
C1978 C1979 1.376 . S
C1979 H1966 0.930 . S
C1979 C1978 1.376 . S
C1979 C1980 1.388 . S
C1980 H1967 0.930 . S
C1980 C1979 1.388 . S
C1980 C1981 1.390 . S
C1981 C1980 1.390 . S
C1981 C1982 1.394 . S
C1981 C1987 1.465 . S
C1982 C1977 1.399 . S
C1982 C1981 1.394 . S
C1982 C1983 1.516 . S
C1983 C1982 1.516 . S
C1983 C1984 1.502 . S
C1983 C1985 1.561 . S
C1983 C1986 1.526 . S
C1984 H1968 0.959 . S
C1984 H1969 0.959 . S
C1984 H1970 0.961 . S
C1984 C1983 1.502 . S
C1985 H1971 0.960 . S
C1985 H1972 0.961 . S
C1985 H1973 0.959 . S
C1985 C1983 1.561 . S
C1986 C1983 1.526 . S
C1986 C1987 1.396 . S
C1986 C1991 1.390 . S
C1987 C1981 1.465 . S
C1987 C1986 1.396 . S
C1987 C1988 1.399 . S
C1988 H1974 0.929 . S
C1988 C1987 1.399 . S
C1988 C1989 1.385 . S
C1989 H1975 0.931 . S
C1989 C1988 1.385 . S
C1989 C1990 1.389 . S
C1990 C1989 1.389 . S
C1990 C1991 1.387 . S
C1991 H1976 0.930 . S
C1991 C1986 1.390 . S
C1991 C1990 1.387 . S
H1992 C2004 0.930 . S
H1993 C2006 0.930 1_554 S
H1994 C2007 0.930 . S
H1995 C2011 0.959 . S
H1996 C2011 0.959 . S
H1997 C2011 0.961 . S
H1998 C2012 0.960 . S
H1999 C2012 0.961 . S
H2000 C2012 0.959 . S
H2001 C2015 0.929 . S
H2002 C2016 0.931 . S
H2003 C2018 0.930 . S
C2004 H1992 0.930 . S
C2004 C2005 1.399 . S
C2004 C2009 1.399 . S
C2005 C2004 1.399 . S
C2005 C2006 1.376 . S
C2006 H1993 0.930 1_556 S
C2006 C2005 1.376 . S
C2006 C2007 1.388 . S
C2007 H1994 0.930 . S
C2007 C2006 1.388 . S
C2007 C2008 1.390 . S
C2008 C2007 1.390 . S
C2008 C2009 1.394 . S
C2008 C2014 1.465 . S
C2009 C2004 1.399 . S
C2009 C2008 1.394 . S
C2009 C2010 1.516 . S
C2010 C2009 1.516 . S
C2010 C2011 1.502 . S
C2010 C2012 1.561 . S
C2010 C2013 1.526 . S
C2011 H1995 0.959 . S
C2011 H1996 0.959 . S
C2011 H1997 0.961 . S
C2011 C2010 1.502 . S
C2012 H1998 0.960 . S
C2012 H1999 0.961 . S
C2012 H2000 0.959 . S
C2012 C2010 1.561 . S
C2013 C2010 1.526 . S
C2013 C2014 1.396 . S
C2013 C2018 1.390 . S
C2014 C2008 1.465 . S
C2014 C2013 1.396 . S
C2014 C2015 1.399 . S
C2015 H2001 0.929 . S
C2015 C2014 1.399 . S
C2015 C2016 1.385 . S
C2016 H2002 0.931 . S
C2016 C2015 1.385 . S
C2016 C2017 1.389 . S
C2017 C2016 1.389 . S
C2017 C2018 1.387 . S
C2018 H2003 0.930 . S
C2018 C2013 1.390 . S
C2018 C2017 1.387 . S
H2019 C2031 0.930 . S
H2020 C2033 0.930 . S
H2021 C2034 0.930 . S
H2022 C2038 0.959 . S
H2023 C2038 0.959 . S
H2024 C2038 0.961 . S
H2025 C2039 0.960 . S
H2026 C2039 0.961 . S
H2027 C2039 0.959 . S
H2028 C2042 0.929 . S
H2029 C2043 0.931 . S
H2030 C2045 0.930 . S
C2031 H2019 0.930 . S
C2031 C2032 1.399 . S
C2031 C2036 1.399 . S
C2032 C2031 1.399 . S
C2032 C2033 1.376 . S
C2033 H2020 0.930 . S
C2033 C2032 1.376 . S
C2033 C2034 1.388 . S
C2034 H2021 0.930 . S
C2034 C2033 1.388 . S
C2034 C2035 1.390 . S
C2035 C2034 1.390 . S
C2035 C2036 1.394 . S
C2035 C2041 1.465 . S
C2036 C2031 1.399 . S
C2036 C2035 1.394 . S
C2036 C2037 1.516 . S
C2037 C2036 1.516 . S
C2037 C2038 1.502 . S
C2037 C2039 1.561 . S
C2037 C2040 1.526 . S
C2038 H2022 0.959 . S
C2038 H2023 0.959 . S
C2038 H2024 0.961 . S
C2038 C2037 1.502 . S
C2039 H2025 0.960 . S
C2039 H2026 0.961 . S
C2039 H2027 0.959 . S
C2039 C2037 1.561 . S
C2040 C2037 1.526 . S
C2040 C2041 1.396 . S
C2040 C2045 1.390 . S
C2041 C2035 1.465 . S
C2041 C2040 1.396 . S
C2041 C2042 1.399 . S
C2042 H2028 0.929 . S
C2042 C2041 1.399 . S
C2042 C2043 1.385 . S
C2043 H2029 0.931 . S
C2043 C2042 1.385 . S
C2043 C2044 1.389 . S
C2044 C2043 1.389 . S
C2044 C2045 1.387 . S
C2045 H2030 0.930 . S
C2045 C2040 1.390 . S
C2045 C2044 1.387 . S
H2046 C2058 0.930 . S
H2047 C2060 0.930 . S
H2048 C2061 0.930 . S
H2049 C2065 0.959 . S
H2050 C2065 0.959 . S
H2051 C2065 0.961 . S
H2052 C2066 0.960 . S
H2053 C2066 0.961 . S
H2054 C2066 0.959 . S
H2055 C2069 0.929 . S
H2056 C2070 0.931 . S
H2057 C2072 0.930 . S
C2058 H2046 0.930 . S
C2058 C2059 1.399 . S
C2058 C2063 1.399 . S
C2059 C2058 1.399 . S
C2059 C2060 1.376 . S
C2060 H2047 0.930 . S
C2060 C2059 1.376 . S
C2060 C2061 1.388 . S
C2061 H2048 0.930 . S
C2061 C2060 1.388 . S
C2061 C2062 1.390 . S
C2062 C2061 1.390 . S
C2062 C2063 1.394 . S
C2062 C2068 1.465 . S
C2063 C2058 1.399 . S
C2063 C2062 1.394 . S
C2063 C2064 1.516 . S
C2064 C2063 1.516 . S
C2064 C2065 1.502 . S
C2064 C2066 1.561 . S
C2064 C2067 1.526 . S
C2065 H2049 0.959 . S
C2065 H2050 0.959 . S
C2065 H2051 0.961 . S
C2065 C2064 1.502 . S
C2066 H2052 0.960 . S
C2066 H2053 0.961 . S
C2066 H2054 0.959 . S
C2066 C2064 1.561 . S
C2067 C2064 1.526 . S
C2067 C2068 1.396 . S
C2067 C2072 1.390 . S
C2068 C2062 1.465 . S
C2068 C2067 1.396 . S
C2068 C2069 1.399 . S
C2069 H2055 0.929 . S
C2069 C2068 1.399 . S
C2069 C2070 1.385 . S
C2070 H2056 0.931 . S
C2070 C2069 1.385 . S
C2070 C2071 1.389 . S
C2071 C2070 1.389 . S
C2071 C2072 1.387 . S
C2072 H2057 0.930 . S
C2072 C2067 1.390 . S
C2072 C2071 1.387 . S
H2073 C2085 0.930 . S
H2074 C2087 0.930 . S
H2075 C2088 0.930 . S
H2076 C2092 0.959 . S
H2077 C2092 0.959 . S
H2078 C2092 0.961 . S
H2079 C2093 0.960 . S
H2080 C2093 0.961 . S
H2081 C2093 0.959 . S
H2082 C2096 0.929 . S
H2083 C2097 0.931 . S
H2084 C2099 0.930 . S
C2085 H2073 0.930 . S
C2085 C2086 1.399 . S
C2085 C2090 1.399 . S
C2086 C2085 1.399 . S
C2086 C2087 1.376 . S
C2087 H2074 0.930 . S
C2087 C2086 1.376 . S
C2087 C2088 1.388 . S
C2088 H2075 0.930 . S
C2088 C2087 1.388 . S
C2088 C2089 1.390 . S
C2089 C2088 1.390 . S
C2089 C2090 1.394 . S
C2089 C2095 1.465 . S
C2090 C2085 1.399 . S
C2090 C2089 1.394 . S
C2090 C2091 1.516 . S
C2091 C2090 1.516 . S
C2091 C2092 1.502 . S
C2091 C2093 1.561 . S
C2091 C2094 1.526 . S
C2092 H2076 0.959 . S
C2092 H2077 0.959 . S
C2092 H2078 0.961 . S
C2092 C2091 1.502 . S
C2093 H2079 0.960 . S
C2093 H2080 0.961 . S
C2093 H2081 0.959 . S
C2093 C2091 1.561 . S
C2094 C2091 1.526 . S
C2094 C2095 1.396 . S
C2094 C2099 1.390 . S
C2095 C2089 1.465 . S
C2095 C2094 1.396 . S
C2095 C2096 1.399 . S
C2096 H2082 0.929 . S
C2096 C2095 1.399 . S
C2096 C2097 1.385 . S
C2097 H2083 0.931 . S
C2097 C2096 1.385 . S
C2097 C2098 1.389 . S
C2098 C2097 1.389 . S
C2098 C2099 1.387 . S
C2099 H2084 0.930 . S
C2099 C2094 1.390 . S
C2099 C2098 1.387 . S
H2100 C2112 0.930 . S
H2101 C2114 0.930 . S
H2102 C2115 0.930 . S
H2103 C2119 0.959 . S
H2104 C2119 0.959 . S
H2105 C2119 0.961 . S
H2106 C2120 0.960 . S
H2107 C2120 0.961 . S
H2108 C2120 0.959 . S
H2109 C2123 0.929 . S
H2110 C2124 0.931 . S
H2111 C2126 0.930 . S
C2112 H2100 0.930 . S
C2112 C2113 1.399 . S
C2112 C2117 1.399 . S
C2113 C2112 1.399 . S
C2113 C2114 1.376 . S
C2114 H2101 0.930 . S
C2114 C2113 1.376 . S
C2114 C2115 1.388 . S
C2115 H2102 0.930 . S
C2115 C2114 1.388 . S
C2115 C2116 1.390 . S
C2116 C2115 1.390 . S
C2116 C2117 1.394 . S
C2116 C2122 1.465 . S
C2117 C2112 1.399 . S
C2117 C2116 1.394 . S
C2117 C2118 1.516 . S
C2118 C2117 1.516 . S
C2118 C2119 1.502 . S
C2118 C2120 1.561 . S
C2118 C2121 1.526 . S
C2119 H2103 0.959 . S
C2119 H2104 0.959 . S
C2119 H2105 0.961 . S
C2119 C2118 1.502 . S
C2120 H2106 0.960 . S
C2120 H2107 0.961 . S
C2120 H2108 0.959 . S
C2120 C2118 1.561 . S
C2121 C2118 1.526 . S
C2121 C2122 1.396 . S
C2121 C2126 1.390 . S
C2122 C2116 1.465 . S
C2122 C2121 1.396 . S
C2122 C2123 1.399 . S
C2123 H2109 0.929 . S
C2123 C2122 1.399 . S
C2123 C2124 1.385 . S
C2124 H2110 0.931 . S
C2124 C2123 1.385 . S
C2124 C2125 1.389 . S
C2125 C2124 1.389 . S
C2125 C2126 1.387 . S
C2126 H2111 0.930 . S
C2126 C2121 1.390 . S
C2126 C2125 1.387 . S
H2127 C2139 0.930 . S
H2128 C2141 0.930 . S
H2129 C2142 0.930 . S
H2130 C2146 0.959 . S
H2131 C2146 0.959 . S
H2132 C2146 0.961 . S
H2133 C2147 0.960 . S
H2134 C2147 0.961 . S
H2135 C2147 0.959 . S
H2136 C2150 0.929 . S
H2137 C2151 0.931 . S
H2138 C2153 0.930 . S
C2139 H2127 0.930 . S
C2139 C2140 1.399 . S
C2139 C2144 1.399 . S
C2140 C2139 1.399 . S
C2140 C2141 1.376 . S
C2141 H2128 0.930 . S
C2141 C2140 1.376 . S
C2141 C2142 1.388 . S
C2142 H2129 0.930 . S
C2142 C2141 1.388 . S
C2142 C2143 1.390 . S
C2143 C2142 1.390 . S
C2143 C2144 1.394 . S
C2143 C2149 1.465 . S
C2144 C2139 1.399 . S
C2144 C2143 1.394 . S
C2144 C2145 1.516 . S
C2145 C2144 1.516 . S
C2145 C2146 1.502 . S
C2145 C2147 1.561 . S
C2145 C2148 1.526 . S
C2146 H2130 0.959 . S
C2146 H2131 0.959 . S
C2146 H2132 0.961 . S
C2146 C2145 1.502 . S
C2147 H2133 0.960 . S
C2147 H2134 0.961 . S
C2147 H2135 0.959 . S
C2147 C2145 1.561 . S
C2148 C2145 1.526 . S
C2148 C2149 1.396 . S
C2148 C2153 1.390 . S
C2149 C2143 1.465 . S
C2149 C2148 1.396 . S
C2149 C2150 1.399 . S
C2150 H2136 0.929 . S
C2150 C2149 1.399 . S
C2150 C2151 1.385 . S
C2151 H2137 0.931 . S
C2151 C2150 1.385 . S
C2151 C2152 1.389 . S
C2152 C2151 1.389 . S
C2152 C2153 1.387 . S
C2153 H2138 0.930 . S
C2153 C2148 1.390 . S
C2153 C2152 1.387 . S
H2154 C2166 0.930 . S
H2155 C2168 0.930 . S
H2156 C2169 0.930 . S
H2157 C2173 0.959 . S
H2158 C2173 0.959 . S
H2159 C2173 0.961 . S
H2160 C2174 0.960 . S
H2161 C2174 0.961 . S
H2162 C2174 0.959 . S
H2163 C2177 0.929 . S
H2164 C2178 0.931 . S
H2165 C2180 0.930 . S
C2166 H2154 0.930 . S
C2166 C2167 1.399 . S
C2166 C2171 1.399 . S
C2167 C2166 1.399 . S
C2167 C2168 1.376 . S
C2168 H2155 0.930 . S
C2168 C2167 1.376 . S
C2168 C2169 1.388 . S
C2169 H2156 0.930 . S
C2169 C2168 1.388 . S
C2169 C2170 1.390 . S
C2170 C2169 1.390 . S
C2170 C2171 1.394 . S
C2170 C2176 1.465 . S
C2171 C2166 1.399 . S
C2171 C2170 1.394 . S
C2171 C2172 1.516 . S
C2172 C2171 1.516 . S
C2172 C2173 1.502 . S
C2172 C2174 1.561 . S
C2172 C2175 1.526 . S
C2173 H2157 0.959 . S
C2173 H2158 0.959 . S
C2173 H2159 0.961 . S
C2173 C2172 1.502 . S
C2174 H2160 0.960 . S
C2174 H2161 0.961 . S
C2174 H2162 0.959 . S
C2174 C2172 1.561 . S
C2175 C2172 1.526 . S
C2175 C2176 1.396 . S
C2175 C2180 1.390 . S
C2176 C2170 1.465 . S
C2176 C2175 1.396 . S
C2176 C2177 1.399 . S
C2177 H2163 0.929 . S
C2177 C2176 1.399 . S
C2177 C2178 1.385 . S
C2178 H2164 0.931 . S
C2178 C2177 1.385 . S
C2178 C2179 1.389 . S
C2179 C2178 1.389 . S
C2179 C2180 1.387 . S
C2180 H2165 0.930 . S
C2180 C2175 1.390 . S
C2180 C2179 1.387 . S
H2181 C2193 0.930 . S
H2182 C2195 0.930 . S
H2183 C2196 0.930 . S
H2184 C2200 0.959 . S
H2185 C2200 0.959 . S
H2186 C2200 0.961 . S
H2187 C2201 0.960 . S
H2188 C2201 0.961 . S
H2189 C2201 0.959 . S
H2190 C2204 0.929 . S
H2191 C2205 0.931 . S
H2192 C2207 0.930 . S
C2193 H2181 0.930 . S
C2193 C2194 1.399 . S
C2193 C2198 1.399 . S
C2194 C2193 1.399 . S
C2194 C2195 1.376 . S
C2195 H2182 0.930 . S
C2195 C2194 1.376 . S
C2195 C2196 1.388 . S
C2196 H2183 0.930 . S
C2196 C2195 1.388 . S
C2196 C2197 1.390 . S
C2197 C2196 1.390 . S
C2197 C2198 1.394 . S
C2197 C2203 1.465 . S
C2198 C2193 1.399 . S
C2198 C2197 1.394 . S
C2198 C2199 1.516 . S
C2199 C2198 1.516 . S
C2199 C2200 1.502 . S
C2199 C2201 1.561 . S
C2199 C2202 1.526 . S
C2200 H2184 0.959 . S
C2200 H2185 0.959 . S
C2200 H2186 0.961 . S
C2200 C2199 1.502 . S
C2201 H2187 0.960 . S
C2201 H2188 0.961 . S
C2201 H2189 0.959 . S
C2201 C2199 1.561 . S
C2202 C2199 1.526 . S
C2202 C2203 1.396 . S
C2202 C2207 1.390 . S
C2203 C2197 1.465 . S
C2203 C2202 1.396 . S
C2203 C2204 1.399 . S
C2204 H2190 0.929 . S
C2204 C2203 1.399 . S
C2204 C2205 1.385 . S
C2205 H2191 0.931 . S
C2205 C2204 1.385 . S
C2205 C2206 1.389 . S
C2206 C2205 1.389 . S
C2206 C2207 1.387 . S
C2207 H2192 0.930 . S
C2207 C2202 1.390 . S
C2207 C2206 1.387 . S
H2208 C2220 0.930 . S
H2209 C2222 0.930 . S
H2210 C2223 0.930 . S
H2211 C2227 0.959 . S
H2212 C2227 0.959 . S
H2213 C2227 0.961 . S
H2214 C2228 0.960 . S
H2215 C2228 0.961 . S
H2216 C2228 0.959 . S
H2217 C2231 0.929 . S
H2218 C2232 0.931 . S
H2219 C2234 0.930 . S
C2220 H2208 0.930 . S
C2220 C2221 1.399 . S
C2220 C2225 1.399 . S
C2221 C2220 1.399 . S
C2221 C2222 1.376 . S
C2222 H2209 0.930 . S
C2222 C2221 1.376 . S
C2222 C2223 1.388 . S
C2223 H2210 0.930 . S
C2223 C2222 1.388 . S
C2223 C2224 1.390 . S
C2224 C2223 1.390 . S
C2224 C2225 1.394 . S
C2224 C2230 1.465 . S
C2225 C2220 1.399 . S
C2225 C2224 1.394 . S
C2225 C2226 1.516 . S
C2226 C2225 1.516 . S
C2226 C2227 1.502 . S
C2226 C2228 1.561 . S
C2226 C2229 1.526 . S
C2227 H2211 0.959 . S
C2227 H2212 0.959 . S
C2227 H2213 0.961 . S
C2227 C2226 1.502 . S
C2228 H2214 0.960 . S
C2228 H2215 0.961 . S
C2228 H2216 0.959 . S
C2228 C2226 1.561 . S
C2229 C2226 1.526 . S
C2229 C2230 1.396 . S
C2229 C2234 1.390 . S
C2230 C2224 1.465 . S
C2230 C2229 1.396 . S
C2230 C2231 1.399 . S
C2231 H2217 0.929 . S
C2231 C2230 1.399 . S
C2231 C2232 1.385 . S
C2232 H2218 0.931 . S
C2232 C2231 1.385 . S
C2232 C2233 1.389 . S
C2233 C2232 1.389 . S
C2233 C2234 1.387 . S
C2234 H2219 0.930 . S
C2234 C2229 1.390 . S
C2234 C2233 1.387 . S
H2235 C2247 0.930 . S
H2236 C2249 0.930 . S
H2237 C2250 0.930 . S
H2238 C2254 0.959 . S
H2239 C2254 0.959 . S
H2240 C2254 0.961 . S
H2241 C2255 0.960 . S
H2242 C2255 0.961 . S
H2243 C2255 0.959 . S
H2244 C2258 0.929 . S
H2245 C2259 0.931 . S
H2246 C2261 0.930 . S
C2247 H2235 0.930 . S
C2247 C2248 1.399 . S
C2247 C2252 1.399 . S
C2248 C2247 1.399 . S
C2248 C2249 1.376 . S
C2249 H2236 0.930 . S
C2249 C2248 1.376 . S
C2249 C2250 1.388 . S
C2250 H2237 0.930 . S
C2250 C2249 1.388 . S
C2250 C2251 1.390 . S
C2251 C2250 1.390 . S
C2251 C2252 1.394 . S
C2251 C2257 1.465 . S
C2252 C2247 1.399 . S
C2252 C2251 1.394 . S
C2252 C2253 1.516 . S
C2253 C2252 1.516 . S
C2253 C2254 1.502 . S
C2253 C2255 1.561 . S
C2253 C2256 1.526 . S
C2254 H2238 0.959 . S
C2254 H2239 0.959 . S
C2254 H2240 0.961 . S
C2254 C2253 1.502 . S
C2255 H2241 0.960 . S
C2255 H2242 0.961 . S
C2255 H2243 0.959 . S
C2255 C2253 1.561 . S
C2256 C2253 1.526 . S
C2256 C2257 1.396 . S
C2256 C2261 1.390 . S
C2257 C2251 1.465 . S
C2257 C2256 1.396 . S
C2257 C2258 1.399 . S
C2258 H2244 0.929 . S
C2258 C2257 1.399 . S
C2258 C2259 1.385 . S
C2259 H2245 0.931 . S
C2259 C2258 1.385 . S
C2259 C2260 1.389 . S
C2260 C2259 1.389 . S
C2260 C2261 1.387 . S
C2261 H2246 0.930 . S
C2261 C2256 1.390 . S
C2261 C2260 1.387 . S
H2262 C2274 0.930 . S
H2263 C2276 0.930 . S
H2264 C2277 0.930 . S
H2265 C2281 0.959 . S
H2266 C2281 0.959 . S
H2267 C2281 0.961 . S
H2268 C2282 0.960 . S
H2269 C2282 0.961 . S
H2270 C2282 0.959 . S
H2271 C2285 0.929 . S
H2272 C2286 0.931 . S
H2273 C2288 0.930 . S
C2274 H2262 0.930 . S
C2274 C2275 1.399 . S
C2274 C2279 1.399 . S
C2275 C2274 1.399 . S
C2275 C2276 1.376 . S
C2276 H2263 0.930 . S
C2276 C2275 1.376 . S
C2276 C2277 1.388 . S
C2277 H2264 0.930 . S
C2277 C2276 1.388 . S
C2277 C2278 1.390 . S
C2278 C2277 1.390 . S
C2278 C2279 1.394 . S
C2278 C2284 1.465 . S
C2279 C2274 1.399 . S
C2279 C2278 1.394 . S
C2279 C2280 1.516 . S
C2280 C2279 1.516 . S
C2280 C2281 1.502 . S
C2280 C2282 1.561 . S
C2280 C2283 1.526 . S
C2281 H2265 0.959 . S
C2281 H2266 0.959 . S
C2281 H2267 0.961 . S
C2281 C2280 1.502 . S
C2282 H2268 0.960 . S
C2282 H2269 0.961 . S
C2282 H2270 0.959 . S
C2282 C2280 1.561 . S
C2283 C2280 1.526 . S
C2283 C2284 1.396 . S
C2283 C2288 1.390 . S
C2284 C2278 1.465 . S
C2284 C2283 1.396 . S
C2284 C2285 1.399 . S
C2285 H2271 0.929 . S
C2285 C2284 1.399 . S
C2285 C2286 1.385 . S
C2286 H2272 0.931 . S
C2286 C2285 1.385 . S
C2286 C2287 1.389 . S
C2287 C2286 1.389 . S
C2287 C2288 1.387 . S
C2288 H2273 0.930 . S
C2288 C2283 1.390 . S
C2288 C2287 1.387 . S
H2289 C2301 0.930 . S
H2290 C2303 0.930 . S
H2291 C2304 0.930 . S
H2292 C2308 0.959 . S
H2293 C2308 0.959 . S
H2294 C2308 0.961 . S
H2295 C2309 0.960 . S
H2296 C2309 0.961 . S
H2297 C2309 0.959 . S
H2298 C2312 0.929 . S
H2299 C2313 0.931 . S
H2300 C2315 0.930 . S
C2301 H2289 0.930 . S
C2301 C2302 1.399 . S
C2301 C2306 1.399 . S
C2302 C2301 1.399 . S
C2302 C2303 1.376 . S
C2303 H2290 0.930 . S
C2303 C2302 1.376 . S
C2303 C2304 1.388 . S
C2304 H2291 0.930 . S
C2304 C2303 1.388 . S
C2304 C2305 1.390 . S
C2305 C2304 1.390 . S
C2305 C2306 1.394 . S
C2305 C2311 1.465 . S
C2306 C2301 1.399 . S
C2306 C2305 1.394 . S
C2306 C2307 1.516 . S
C2307 C2306 1.516 . S
C2307 C2308 1.502 . S
C2307 C2309 1.561 . S
C2307 C2310 1.526 . S
C2308 H2292 0.959 . S
C2308 H2293 0.959 . S
C2308 H2294 0.961 . S
C2308 C2307 1.502 . S
C2309 H2295 0.960 . S
C2309 H2296 0.961 . S
C2309 H2297 0.959 . S
C2309 C2307 1.561 . S
C2310 C2307 1.526 . S
C2310 C2311 1.396 . S
C2310 C2315 1.390 . S
C2311 C2305 1.465 . S
C2311 C2310 1.396 . S
C2311 C2312 1.399 . S
C2312 H2298 0.929 . S
C2312 C2311 1.399 . S
C2312 C2313 1.385 . S
C2313 H2299 0.931 . S
C2313 C2312 1.385 . S
C2313 C2314 1.389 . S
C2314 C2313 1.389 . S
C2314 C2315 1.387 . S
C2315 H2300 0.930 . S
C2315 C2310 1.390 . S
C2315 C2314 1.387 . S
H2316 C2328 0.930 . S
H2317 C2330 0.942 . S
H2318 C2331 0.930 . S
H2319 C2335 0.959 . S
H2320 C2335 0.959 . S
H2321 C2335 0.961 . S
H2322 C2336 0.960 . S
H2323 C2336 0.961 . S
H2324 C2336 0.959 . S
H2325 C2339 0.929 . S
H2326 C2340 0.931 . S
H2327 C2342 0.930 . S
C2328 H2316 0.930 . S
C2328 C2329 1.399 . S
C2328 C2333 1.399 . S
C2329 C2328 1.399 . S
C2329 C2330 1.376 . S
C2330 H2317 0.942 . S
C2330 C2329 1.376 . S
C2330 C2331 1.388 . S
C2331 H2318 0.930 . S
C2331 C2330 1.388 . S
C2331 C2332 1.390 . S
C2332 C2331 1.390 . S
C2332 C2333 1.394 . S
C2332 C2338 1.465 . S
C2333 C2328 1.399 . S
C2333 C2332 1.394 . S
C2333 C2334 1.516 . S
C2334 C2333 1.516 . S
C2334 C2335 1.502 . S
C2334 C2336 1.561 . S
C2334 C2337 1.526 . S
C2335 H2319 0.959 . S
C2335 H2320 0.959 . S
C2335 H2321 0.961 . S
C2335 C2334 1.502 . S
C2336 H2322 0.960 . S
C2336 H2323 0.961 . S
C2336 H2324 0.959 . S
C2336 C2334 1.561 . S
C2337 C2334 1.526 . S
C2337 C2338 1.396 . S
C2337 C2342 1.390 . S
C2338 C2332 1.465 . S
C2338 C2337 1.396 . S
C2338 C2339 1.399 . S
C2339 H2325 0.929 . S
C2339 C2338 1.399 . S
C2339 C2340 1.385 . S
C2340 H2326 0.931 . S
C2340 C2339 1.385 . S
C2340 C2341 1.389 . S
C2341 C2340 1.389 . S
C2341 C2342 1.387 . S
C2342 H2327 0.930 . S
C2342 C2337 1.390 . S
C2342 C2341 1.387 . S
H2343 C2355 0.930 . S
H2344 C2357 0.930 . S
H2345 C2358 0.930 . S
H2346 C2362 0.959 . S
H2347 C2362 0.959 . S
H2348 C2362 0.961 . S
H2349 C2363 0.960 . S
H2350 C2363 0.961 . S
H2351 C2363 0.959 . S
H2352 C2366 0.929 . S
H2353 C2367 0.931 1_554 S
H2354 C2369 0.930 . S
C2355 H2343 0.930 . S
C2355 C2356 1.399 . S
C2355 C2360 1.399 . S
C2356 C2355 1.399 . S
C2356 C2357 1.376 . S
C2357 H2344 0.930 . S
C2357 C2356 1.376 . S
C2357 C2358 1.388 . S
C2358 H2345 0.930 . S
C2358 C2357 1.388 . S
C2358 C2359 1.390 . S
C2359 C2358 1.390 . S
C2359 C2360 1.394 . S
C2359 C2365 1.465 . S
C2360 C2355 1.399 . S
C2360 C2359 1.394 . S
C2360 C2361 1.516 . S
C2361 C2360 1.516 . S
C2361 C2362 1.502 . S
C2361 C2363 1.561 . S
C2361 C2364 1.526 . S
C2362 H2346 0.959 . S
C2362 H2347 0.959 . S
C2362 H2348 0.961 . S
C2362 C2361 1.502 . S
C2363 H2349 0.960 . S
C2363 H2350 0.961 . S
C2363 H2351 0.959 . S
C2363 C2361 1.561 . S
C2364 C2361 1.526 . S
C2364 C2365 1.396 . S
C2364 C2369 1.390 . S
C2365 C2359 1.465 . S
C2365 C2364 1.396 . S
C2365 C2366 1.399 . S
C2366 H2352 0.929 . S
C2366 C2365 1.399 . S
C2366 C2367 1.385 . S
C2367 H2353 0.931 1_556 S
C2367 C2366 1.385 . S
C2367 C2368 1.389 . S
C2368 C2367 1.389 . S
C2368 C2369 1.387 . S
C2369 H2354 0.930 . S
C2369 C2364 1.390 . S
C2369 C2368 1.387 . S
H2370 C2382 0.930 . S
H2371 C2384 0.930 . S
H2372 C2385 0.930 . S
H2373 C2389 0.959 . S
H2374 C2389 0.959 . S
H2375 C2389 0.961 . S
H2376 C2390 0.960 . S
H2377 C2390 0.961 . S
H2378 C2390 0.959 . S
H2379 C2393 0.929 . S
H2380 C2394 0.931 . S
H2381 C2396 0.930 . S
C2382 H2370 0.930 . S
C2382 C2383 1.399 . S
C2382 C2387 1.399 . S
C2383 C2382 1.399 . S
C2383 C2384 1.376 . S
C2384 H2371 0.930 . S
C2384 C2383 1.376 . S
C2384 C2385 1.388 . S
C2385 H2372 0.930 . S
C2385 C2384 1.388 . S
C2385 C2386 1.390 . S
C2386 C2385 1.390 . S
C2386 C2387 1.394 . S
C2386 C2392 1.465 . S
C2387 C2382 1.399 . S
C2387 C2386 1.394 . S
C2387 C2388 1.516 . S
C2388 C2387 1.516 . S
C2388 C2389 1.502 . S
C2388 C2390 1.561 . S
C2388 C2391 1.526 . S
C2389 H2373 0.959 . S
C2389 H2374 0.959 . S
C2389 H2375 0.961 . S
C2389 C2388 1.502 . S
C2390 H2376 0.960 . S
C2390 H2377 0.961 . S
C2390 H2378 0.959 . S
C2390 C2388 1.561 . S
C2391 C2388 1.526 . S
C2391 C2392 1.396 . S
C2391 C2396 1.390 . S
C2392 C2386 1.465 . S
C2392 C2391 1.396 . S
C2392 C2393 1.399 . S
C2393 H2379 0.929 . S
C2393 C2392 1.399 . S
C2393 C2394 1.385 . S
C2394 H2380 0.931 . S
C2394 C2393 1.385 . S
C2394 C2395 1.389 . S
C2395 C2394 1.389 . S
C2395 C2396 1.387 . S
C2396 H2381 0.930 . S
C2396 C2391 1.390 . S
C2396 C2395 1.387 . S
H2397 C2409 0.930 . S
H2398 C2411 0.930 . S
H2399 C2412 0.930 . S
H2400 C2416 0.959 . S
H2401 C2416 0.959 . S
H2402 C2416 0.961 . S
H2403 C2417 0.960 . S
H2404 C2417 0.961 . S
H2405 C2417 0.959 . S
H2406 C2420 0.929 . S
H2407 C2421 0.931 . S
H2408 C2423 0.930 . S
C2409 H2397 0.930 . S
C2409 C2410 1.399 . S
C2409 C2414 1.399 . S
C2410 C2409 1.399 . S
C2410 C2411 1.376 . S
C2411 H2398 0.930 . S
C2411 C2410 1.376 . S
C2411 C2412 1.388 . S
C2412 H2399 0.930 . S
C2412 C2411 1.388 . S
C2412 C2413 1.390 . S
C2413 C2412 1.390 . S
C2413 C2414 1.394 . S
C2413 C2419 1.465 . S
C2414 C2409 1.399 . S
C2414 C2413 1.394 . S
C2414 C2415 1.516 . S
C2415 C2414 1.516 . S
C2415 C2416 1.502 . S
C2415 C2417 1.561 . S
C2415 C2418 1.526 . S
C2416 H2400 0.959 . S
C2416 H2401 0.959 . S
C2416 H2402 0.961 . S
C2416 C2415 1.502 . S
C2417 H2403 0.960 . S
C2417 H2404 0.961 . S
C2417 H2405 0.959 . S
C2417 C2415 1.561 . S
C2418 C2415 1.526 . S
C2418 C2419 1.396 . S
C2418 C2423 1.390 . S
C2419 C2413 1.465 . S
C2419 C2418 1.396 . S
C2419 C2420 1.399 . S
C2420 H2406 0.929 . S
C2420 C2419 1.399 . S
C2420 C2421 1.385 . S
C2421 H2407 0.931 . S
C2421 C2420 1.385 . S
C2421 C2422 1.389 . S
C2422 C2421 1.389 . S
C2422 C2423 1.387 . S
C2423 H2408 0.930 . S
C2423 C2418 1.390 . S
C2423 C2422 1.387 . S
C493 C18 1.247 . S
C505 C362 1.216 . S
C520 C382 1.272 . S
C532 C38 1.231 . S
C547 C58 1.232 . S
C559 C322 1.249 . S
C574 C78 1.282 . S
C586 C342 1.178 . S
C601 C442 1.254 . S
C613 C98 1.259 . S
C628 C118 1.286 . S
C640 C422 1.180 . S
C655 C462 1.270 . S
C667 C138 1.230 . S
C682 C158 1.229 . S
C694 C402 1.261 . S
C709 C178 1.241 . S
C721 C262 1.226 . S
C736 C198 1.255 . S
C748 C302 1.203 . S
C763 C282 1.195 . S
C775 C218 1.286 . S
C790 C238 1.257 . S
C802 C242 1.199 . S
C817 C259 1.230 . S
C829 C124 1.271 . S
C844 C279 1.229 . S
C856 C144 1.273 . S
C871 C299 1.287 . S
C883 C84 1.178 . S
C898 C104 1.238 . S
C910 C319 1.251 . S
C925 C339 1.261 . S
C937 C204 1.223 . S
C952 C184 1.229 . S
C964 C359 1.257 . S
C979 C224 1.186 . S
C991 C379 1.282 . S
C1006 C164 1.178 . S
C1018 C399 1.286 . S
C1033 C24 1.228 . S
C1045 C419 1.257 . S
C1060 C64 1.214 . S
C1072 C439 1.265 . S
C1087 C44 1.216 . S
C1099 C459 1.264 . S
C1114 C479 1.229 . S
C1126 C4 1.273 . S
C1141 C82 1.282 . S
C1153 C9 1.415 . S
C1168 C102 1.245 . S
C1180 C29 1.413 . S
C1195 C122 1.249 . S
C1207 C49 1.411 . S
C1222 C142 1.251 . S
C1234 C69 1.411 . S
C1249 C89 1.415 . S
C1261 C162 1.248 . S
C1276 C109 1.456 . S
C1288 C222 1.371 . S
C1303 C129 1.411 . S
C1315 C182 1.269 . S
C1330 C149 1.410 . S
C1342 C202 1.251 . S
C1357 C169 1.440 . S
C1369 C2 1.356 . S
C1384 C189 1.436 . S
C1396 C42 1.347 . S
C1411 C209 1.431 . S
C1423 C62 1.334 . S
C1438 C22 1.375 . S
C1450 C229 1.452 . S
C1465 C324 1.311 . S
C1477 C252 1.430 . S
C1492 C344 1.331 . S
C1504 C272 1.437 . S
C1519 C292 1.411 . S
C1531 C364 1.247 . S
C1546 C312 1.411 . S
C1558 C384 1.252 . S
C1573 C404 1.245 . S
C1585 C332 1.411 . S
C1600 C352 1.437 . S
C1612 C464 1.314 . S
C1627 C424 1.375 . S
C1639 C372 1.456 . S
C1654 C392 1.419 . S
C1666 C444 1.281 . S
C1681 C244 1.253 . S
C1693 C412 1.412 . S
C1708 C432 1.455 . S
C1720 C284 1.373 . S
C1735 C452 1.439 . S
C1747 C304 1.337 . S
C1762 C264 1.308 . S
C1774 C472 1.435 . S
C1789 C19 1.499 . S
C1801 C192 1.527 . S
C1816 C212 1.538 . S
C1828 C39 1.487 . S
C1843 C172 1.571 . S
C1855 C59 1.460 . S
C1870 C232 1.482 . S
C1882 C79 1.550 . S
C1897 C99 1.471 . S
C1909 C72 1.563 . S
C1924 C52 1.478 . S
C1936 C119 1.555 . S
C1951 C139 1.490 . S
C1963 C32 1.534 . S
C1978 C12 1.480 . S
C1990 C159 1.551 . S
C2005 C179 1.462 . S
C2017 C112 1.563 . S
C2032 C199 1.519 . S
C2044 C152 1.508 . S
C2059 C219 1.459 . S
C2071 C132 1.570 . S
C2086 C239 1.464 . S
C2098 C92 1.568 . S
C2113 C258 1.558 . S
C2125 C429 1.487 . S
C2140 C278 1.558 . S
C2152 C449 1.481 . S
C2167 C409 1.504 . S
C2179 C298 1.547 . S
C2194 C469 1.521 . S
C2206 C318 1.492 . S
C2221 C338 1.557 . S
C2233 C309 1.490 . S
C2248 C358 1.519 . S
C2260 C289 1.498 . S
C2275 C269 1.511 . S
C2287 C378 1.503 . S
C2302 C398 1.557 . S
C2314 C249 1.488 . S
C2329 C418 1.467 . S
C2341 C349 1.570 . S
C2356 C389 1.569 . S
C2368 C438 1.460 . S
C2383 C458 1.507 . S
C2395 C369 1.507 . S
C2410 C478 1.506 . S
C2422 C329 1.508 . S
