# Generated by pormake.
# Topology ecf, (8)-cn, num edge types: 1
# Building blocks:
#     Node 0, Type 0, BuildingBlock: GIZVER_clean_sbu_0, # of connection points: 8
#     Node 1, Type 0, BuildingBlock: GIZVER_clean_sbu_0, # of connection points: 8
#     Node 2, Type 0, BuildingBlock: GIZVER_clean_sbu_0, # of connection points: 8
#     Node 3, Type 0, BuildingBlock: GIZVER_clean_sbu_0, # of connection points: 8
#     Node 4, Type 0, BuildingBlock: GIZVER_clean_sbu_0, # of connection points: 8
#     Node 5, Type 0, BuildingBlock: GIZVER_clean_sbu_0, # of connection points: 8
#     Edge 6, Type (0, 0), BuildingBlock: ZUJKAS_clean_linker_0, # of connection points: 2
#     Edge 7, Type (0, 0), BuildingBlock: ZUJKAS_clean_linker_0, # of connection points: 2
#     Edge 8, Type (0, 0), BuildingBlock: ZUJKAS_clean_linker_0, # of connection points: 2
#     Edge 9, Type (0, 0), BuildingBlock: ZUJKAS_clean_linker_0, # of connection points: 2
#     Edge 10, Type (0, 0), BuildingBlock: ZUJKAS_clean_linker_0, # of connection points: 2
#     Edge 11, Type (0, 0), BuildingBlock: ZUJKAS_clean_linker_0, # of connection points: 2
#     Edge 12, Type (0, 0), BuildingBlock: ZUJKAS_clean_linker_0, # of connection points: 2
#     Edge 13, Type (0, 0), BuildingBlock: ZUJKAS_clean_linker_0, # of connection points: 2
#     Edge 14, Type (0, 0), BuildingBlock: ZUJKAS_clean_linker_0, # of connection points: 2
#     Edge 15, Type (0, 0), BuildingBlock: ZUJKAS_clean_linker_0, # of connection points: 2
#     Edge 16, Type (0, 0), BuildingBlock: ZUJKAS_clean_linker_0, # of connection points: 2
#     Edge 17, Type (0, 0), BuildingBlock: ZUJKAS_clean_linker_0, # of connection points: 2
#     Edge 18, Type (0, 0), BuildingBlock: ZUJKAS_clean_linker_0, # of connection points: 2
#     Edge 19, Type (0, 0), BuildingBlock: ZUJKAS_clean_linker_0, # of connection points: 2
#     Edge 20, Type (0, 0), BuildingBlock: ZUJKAS_clean_linker_0, # of connection points: 2
#     Edge 21, Type (0, 0), BuildingBlock: ZUJKAS_clean_linker_0, # of connection points: 2
#     Edge 22, Type (0, 0), BuildingBlock: ZUJKAS_clean_linker_0, # of connection points: 2
#     Edge 23, Type (0, 0), BuildingBlock: ZUJKAS_clean_linker_0, # of connection points: 2
#     Edge 24, Type (0, 0), BuildingBlock: ZUJKAS_clean_linker_0, # of connection points: 2
#     Edge 25, Type (0, 0), BuildingBlock: ZUJKAS_clean_linker_0, # of connection points: 2
#     Edge 26, Type (0, 0), BuildingBlock: ZUJKAS_clean_linker_0, # of connection points: 2
#     Edge 27, Type (0, 0), BuildingBlock: ZUJKAS_clean_linker_0, # of connection points: 2
#     Edge 28, Type (0, 0), BuildingBlock: ZUJKAS_clean_linker_0, # of connection points: 2
#     Edge 29, Type (0, 0), BuildingBlock: ZUJKAS_clean_linker_0, # of connection points: 2
# Relax obj value: 0.354
# Max RMSD: 0.255
# Mean RMSD: 0.255
data_MOF--net-ecf--node1-GIZVER_clean_sbu_0--edge1-ZUJKAS_clean_linker_0
_symmetry_space_group_name_H-M    P1
_symmetry_Int_Tables_number       1
_symmetry_cell_setting            triclinic
loop_
_symmetry_equiv_pos_as_xyz
'x, y, z'
_cell_length_a     46.234391
_cell_length_b     46.33103
_cell_length_c     30.390188
_cell_angle_alpha  90.094162
_cell_angle_beta   90.084712
_cell_angle_gamma 119.95849
loop_
_atom_site_label
_atom_site_type_symbol
_atom_site_fract_x
_atom_site_fract_y
_atom_site_fract_z
_atom_type_partial_charge
Co0 Co 0.22973 0.41461 0.35606 0.0
Co1 Co 0.17046 0.40091 0.34033 0.0
Co2 Co 0.17287 0.33332 0.32545 0.0
O3 O 0.19429 0.38265 0.31659 0.0
H4 H 0.19924 0.3886 0.28595 0.0
O5 O 0.15458 0.28585 0.33748 0.0
Co6 Co 0.10839 0.25477 0.3433 0.0
Co7 Co 0.15055 0.26209 0.28956 0.0
H8 H 0.16743 0.282 0.3594 0.0
O9 O 0.17161 0.43516 0.31085 0.0
O10 O 0.20325 0.43759 0.36953 0.0
O11 O 0.13358 0.37389 0.37803 0.0
O12 O 0.14088 0.3299 0.37496 0.0
O13 O 0.13753 0.3254 0.27962 0.0
O14 O 0.06638 0.2244 0.35356 0.0
O15 O 0.11245 0.23375 0.39082 0.0
O16 O 0.09828 0.27297 0.2939 0.0
O17 O 0.20256 0.33268 0.27485 0.0
O18 O 0.16594 0.28766 0.23652 0.0
O19 O 0.1129 0.22301 0.30287 0.0
O20 O 0.16672 0.2346 0.29944 0.0
C21 C 0.27226 0.46098 0.3498 0.0
C22 C 0.214 0.35774 0.40516 0.0
C23 C 0.12608 0.34493 0.39065 0.0
C24 C 0.19396 0.45248 0.34055 0.0
C25 C 0.08014 0.21679 0.38553 0.0
C26 C 0.10937 0.29936 0.27099 0.0
C27 C 0.19347 0.31505 0.23899 0.0
C28 C 0.13553 0.21421 0.30882 0.0
O29 O 0.26355 0.44549 0.38726 0.0
O30 O 0.25351 0.44693 0.31513 0.0
O31 O 0.20794 0.34084 0.36983 0.0
O32 O 0.2115 0.38405 0.40567 0.0
Co33 Co 0.89676 0.12074 0.83236 0.0
Co34 Co 0.9316 0.18206 0.80421 0.0
Co35 Co 0.85982 0.16666 0.81288 0.0
O36 O 0.88831 0.14848 0.79701 0.0
H37 H 0.8858 0.14178 0.76647 0.0
O38 O 0.8305 0.18596 0.8241 0.0
Co39 Co 0.83049 0.219 0.78339 0.0
Co40 Co 0.78716 0.15907 0.80443 0.0
H41 H 0.83086 0.19195 0.85466 0.0
O42 O 0.96145 0.18388 0.76572 0.0
O43 O 0.94569 0.15608 0.83111 0.0
O44 O 0.94207 0.21971 0.84022 0.0
O45 O 0.88973 0.19702 0.86332 0.0
O46 O 0.88536 0.20198 0.76885 0.0
O47 O 0.82975 0.25056 0.75148 0.0
O48 O 0.82073 0.24173 0.82425 0.0
O49 O 0.84364 0.20146 0.73316 0.0
O50 O 0.83041 0.13431 0.76405 0.0
O51 O 0.77716 0.12107 0.76884 0.0
O52 O 0.7813 0.18945 0.7723 0.0
O53 O 0.75423 0.16123 0.83374 0.0
C54 C 0.91044 0.08628 0.82218 0.0
C55 C 0.85426 0.12619 0.88883 0.0
C56 C 0.92111 0.21771 0.86843 0.0
C57 C 0.96356 0.16447 0.79484 0.0
C58 C 0.8227 0.2589 0.78911 0.0
C59 C 0.8734 0.20625 0.73346 0.0
C60 C 0.7997 0.11654 0.75227 0.0
C61 C 0.75811 0.18179 0.80219 0.0
O62 O 0.9065 0.09383 0.86209 0.0
O63 O 0.90459 0.1 0.78858 0.0
O64 O 0.83721 0.13121 0.85929 0.0
O65 O 0.88563 0.13738 0.88327 0.0
Co66 Co 0.63556 0.82443 0.35678 0.0
Co67 Co 0.6499 0.77958 0.33195 0.0
Co68 Co 0.71671 0.84855 0.32766 0.0
O69 O 0.66779 0.8238 0.31548 0.0
H70 H 0.66277 0.8257 0.28511 0.0
O71 O 0.76395 0.87349 0.34441 0.0
Co72 Co 0.79053 0.8531 0.34456 0.0
Co73 Co 0.79323 0.89932 0.30508 0.0
H74 H 0.76723 0.88591 0.37132 0.0
O75 O 0.61292 0.7485 0.30328 0.0
O76 O 0.61505 0.77482 0.36723 0.0
O77 O 0.67816 0.76602 0.36249 0.0
O78 O 0.71507 0.81859 0.37812 0.0
O79 O 0.72264 0.81951 0.28235 0.0
O80 O 0.81589 0.83492 0.35028 0.0
O81 O 0.80677 0.86593 0.39938 0.0
O82 O 0.77703 0.83697 0.28707 0.0
O83 O 0.72217 0.88082 0.27694 0.0
O84 O 0.77354 0.89825 0.24932 0.0
O85 O 0.82908 0.89406 0.31856 0.0
O86 O 0.82259 0.93944 0.32745 0.0
C87 C 0.58844 0.8189 0.35201 0.0
C88 C 0.6925 0.86658 0.40533 0.0
C89 C 0.70333 0.78732 0.38411 0.0
C90 C 0.59792 0.75197 0.33734 0.0
C91 C 0.82128 0.84894 0.38885 0.0
C92 C 0.74936 0.82155 0.26691 0.0
C93 C 0.74438 0.89451 0.24616 0.0
C94 C 0.84023 0.9248 0.33176 0.0
O95 O 0.60399 0.82482 0.38951 0.0
O96 O 0.60269 0.81558 0.31668 0.0
O97 O 0.71017 0.87732 0.3707 0.0
O98 O 0.66699 0.83718 0.40586 0.0
Co99 Co 0.95608 0.77697 0.79646 0.0
Co100 Co 0.91468 0.7723 0.85127 0.0
Co101 Co 0.88706 0.70152 0.81189 0.0
O102 O 0.90892 0.74944 0.80192 0.0
H103 H 0.89721 0.75532 0.78062 0.0
O104 O 0.86323 0.65216 0.81954 0.0
Co105 Co 0.82542 0.62147 0.78335 0.0
Co106 Co 0.88396 0.63156 0.79314 0.0
H107 H 0.85939 0.6463 0.85033 0.0
O108 O 0.90529 0.80526 0.84289 0.0
O109 O 0.95572 0.80814 0.84132 0.0
O110 O 0.89529 0.74544 0.90275 0.0
O111 O 0.8573 0.70351 0.86125 0.0
O112 O 0.85418 0.69786 0.76579 0.0
O113 O 0.78902 0.59167 0.75526 0.0
O114 O 0.80341 0.59054 0.82586 0.0
O115 O 0.84247 0.65053 0.73287 0.0
O116 O 0.91901 0.70361 0.76355 0.0
O117 O 0.9201 0.65658 0.75342 0.0
O118 O 0.84865 0.59617 0.76595 0.0
O119 O 0.88153 0.59631 0.82165 0.0
C120 C 0.98662 0.81608 0.75744 0.0
C121 C 0.95005 0.7288 0.86619 0.0
C122 C 0.86646 0.71988 0.89808 0.0
C123 C 0.93737 0.82205 0.83618 0.0
C124 C 0.78234 0.57693 0.79325 0.0
C125 C 0.8444 0.679 0.73196 0.0
C126 C 0.93078 0.68692 0.74443 0.0
C127 C 0.85757 0.58012 0.79339 0.0
O128 O 0.99893 0.80484 0.78696 0.0
O129 O 0.95437 0.80172 0.75216 0.0
O130 O 0.92 0.70561 0.85905 0.0
O131 O 0.96385 0.75489 0.84275 0.0
Co132 Co 0.2275 0.82058 0.3536 0.0
Co133 Co 0.27005 0.88089 0.33181 0.0
Co134 Co 0.1987 0.87427 0.32742 0.0
O135 O 0.22656 0.85363 0.31387 0.0
H136 H 0.2254 0.84771 0.28315 0.0
O137 O 0.17009 0.89222 0.34569 0.0
Co138 Co 0.18478 0.93832 0.35135 0.0
Co139 Co 0.14585 0.89478 0.30218 0.0
H140 H 0.15585 0.88003 0.37009 0.0
O141 O 0.3027 0.87855 0.30237 0.0
O142 O 0.27681 0.85107 0.36477 0.0
O143 O 0.28097 0.92121 0.36375 0.0
O144 O 0.2277 0.90345 0.37849 0.0
O145 O 0.22529 0.91126 0.28334 0.0
O146 O 0.19686 0.98028 0.36056 0.0
O147 O 0.16499 0.93627 0.4037 0.0
O148 O 0.2076 0.94705 0.2977 0.0
O149 O 0.16765 0.84662 0.27595 0.0
O150 O 0.15393 0.88222 0.24563 0.0
O151 O 0.14356 0.93115 0.31936 0.0
O152 O 0.10316 0.87622 0.31814 0.0
C153 C 0.2352 0.78048 0.34646 0.0
C154 C 0.18375 0.83188 0.40386 0.0
C155 C 0.25886 0.92392 0.38497 0.0
C156 C 0.30028 0.85934 0.33502 0.0
C157 C 0.17882 0.96814 0.39568 0.0
C158 C 0.22391 0.93754 0.27402 0.0
C159 C 0.15648 0.85615 0.24318 0.0
C160 C 0.1133 0.90704 0.32888 0.0
O161 O 0.22886 0.78875 0.38463 0.0
O162 O 0.23752 0.79843 0.31199 0.0
O163 O 0.17205 0.8373 0.36898 0.0
O164 O 0.21365 0.83698 0.40417 0.0
Co165 Co 0.27034 0.18586 0.78308 0.0
Co166 Co 0.26527 0.14547 0.83813 0.0
Co167 Co 0.34106 0.18927 0.81201 0.0
O168 O 0.29428 0.16358 0.79526 0.0
H169 H 0.29019 0.147 0.77314 0.0
O170 O 0.38967 0.21444 0.82521 0.0
Co171 Co 0.4228 0.2136 0.78613 0.0
Co172 Co 0.40718 0.25791 0.80681 0.0
H173 H 0.39428 0.21337 0.85595 0.0
O174 O 0.23463 0.10349 0.82331 0.0
O175 O 0.23071 0.15031 0.81567 0.0
O176 O 0.28679 0.14938 0.89407 0.0
O177 O 0.33489 0.15784 0.86387 0.0
O178 O 0.34824 0.16026 0.77005 0.0
O179 O 0.45521 0.21314 0.75553 0.0
O180 O 0.4549 0.22361 0.82778 0.0
O181 O 0.39249 0.19975 0.73579 0.0
O182 O 0.34271 0.21835 0.76021 0.0
O183 O 0.37916 0.27105 0.77524 0.0
O184 O 0.44295 0.26295 0.77357 0.0
O185 O 0.44238 0.28982 0.83599 0.0
C186 C 0.24115 0.18519 0.73262 0.0
C187 C 0.30896 0.22232 0.86223 0.0
C188 C 0.31387 0.14834 0.8963 0.0
C189 C 0.21856 0.11824 0.80997 0.0
C190 C 0.47002 0.22 0.79363 0.0
C191 C 0.36604 0.17102 0.73552 0.0
C192 C 0.35426 0.24953 0.75358 0.0
C193 C 0.4584 0.28706 0.80257 0.0
O194 O 0.24706 0.2047 0.76636 0.0
O195 O 0.2541 0.16586 0.73118 0.0
O196 O 0.33416 0.21842 0.85587 0.0
O197 O 0.28423 0.20976 0.83612 0.0
H198 H 0.22266 0.49714 0.40974 0.0
H199 H 0.23617 0.55584 0.41113 0.0
H200 H 0.20907 0.54893 0.27417 0.0
H201 H 0.1951 0.4909 0.27274 0.0
H202 H 0.27918 0.61424 0.36048 0.0
H203 H 0.14597 0.57495 0.33316 0.0
H204 H 0.15953 0.54601 0.34873 0.0
H205 H 0.16242 0.55903 0.29238 0.0
C206 C 0.21995 0.50832 0.3799 0.0
C207 C 0.20708 0.48908 0.34143 0.0
C208 C 0.22764 0.54183 0.3807 0.0
C209 C 0.22272 0.55655 0.34302 0.0
C210 C 0.21215 0.53795 0.30398 0.0
H211 H 0.22919 0.74253 0.27344 0.0
H212 H 0.22967 0.68967 0.27162 0.0
C213 C 0.20424 0.50468 0.30325 0.0
C214 C 0.22692 0.59065 0.34427 0.0
H215 H 0.1848 0.63271 0.32528 0.0
C216 C 0.25851 0.61828 0.35317 0.0
C217 C 0.19995 0.59602 0.33463 0.0
C218 C 0.16499 0.56743 0.3271 0.0
C219 C 0.26393 0.65105 0.35158 0.0
C220 C 0.23706 0.65633 0.34117 0.0
C221 C 0.20549 0.62871 0.33268 0.0
C222 C 0.24055 0.69012 0.34099 0.0
C223 C 0.29852 0.67991 0.35991 0.0
C224 C 0.24676 0.70808 0.3804 0.0
C225 C 0.24616 0.73797 0.38157 0.0
C226 C 0.23944 0.75075 0.3433 0.0
C227 C 0.23453 0.73345 0.30342 0.0
C228 C 0.23473 0.70322 0.30239 0.0
H229 H 0.31782 0.67235 0.35783 0.0
H230 H 0.30456 0.70012 0.33582 0.0
H231 H 0.29962 0.69009 0.39333 0.0
H232 H 0.25085 0.69834 0.4107 0.0
H233 H 0.25025 0.75072 0.41283 0.0
H234 H 0.51037 0.22337 0.72618 0.0
H235 H 0.56404 0.22544 0.73025 0.0
H236 H 0.56101 0.22819 0.87186 0.0
H237 H 0.50682 0.22601 0.86815 0.0
H238 H 0.62731 0.27159 0.77168 0.0
H239 H 0.56732 0.14376 0.8418 0.0
H240 H 0.54355 0.16039 0.81613 0.0
H241 H 0.55989 0.1733 0.87073 0.0
C242 C 0.52107 0.22458 0.75832 0.0
C243 C 0.50395 0.224 0.79693 0.0
C244 C 0.55195 0.22599 0.7605 0.0
C245 C 0.56639 0.22659 0.80129 0.0
C246 C 0.5501 0.22735 0.83998 0.0
H247 H 0.7263 0.19005 0.87154 0.0
H248 H 0.68349 0.20595 0.87094 0.0
C249 C 0.51917 0.22615 0.83784 0.0
C250 C 0.59723 0.22406 0.80294 0.0
H251 H 0.62527 0.17101 0.83117 0.0
C252 C 0.62701 0.24971 0.78492 0.0
C253 C 0.59669 0.19537 0.81977 0.0
C254 C 0.56516 0.16645 0.83792 0.0
C255 C 0.65642 0.24764 0.78402 0.0
C256 C 0.65576 0.21877 0.80062 0.0
C257 C 0.6259 0.1932 0.81855 0.0
C258 C 0.68554 0.21425 0.80071 0.0
C259 C 0.68796 0.27658 0.76602 0.0
C260 C 0.70197 0.2146 0.76152 0.0
C261 C 0.72702 0.2058 0.76185 0.0
C262 C 0.73545 0.19584 0.80122 0.0
C263 C 0.72001 0.19703 0.84049 0.0
C264 C 0.69551 0.2062 0.84024 0.0
H265 H 0.6872 0.30015 0.76767 0.0
H266 H 0.71032 0.28003 0.78419 0.0
H267 H 0.69069 0.27165 0.73096 0.0
H268 H 0.69446 0.22024 0.73043 0.0
H269 H 0.73852 0.20517 0.73111 0.0
H270 H 0.3061 0.49865 0.27705 0.0
H271 H 0.35908 0.55206 0.2767 0.0
H272 H 0.36001 0.55261 0.41851 0.0
H273 H 0.308 0.49959 0.41921 0.0
H274 H 0.37899 0.61557 0.31381 0.0
H275 H 0.44955 0.5605 0.38954 0.0
H276 H 0.40816 0.53531 0.36704 0.0
H277 H 0.4138 0.55363 0.42086 0.0
C278 C 0.31759 0.51024 0.3081 0.0
C279 C 0.30299 0.49444 0.3481 0.0
C280 C 0.34785 0.54079 0.30789 0.0
C281 C 0.36402 0.55605 0.34762 0.0
C282 C 0.34862 0.541 0.38742 0.0
H283 H 0.55929 0.73031 0.41252 0.0
H284 H 0.50056 0.68545 0.41742 0.0
C285 C 0.31868 0.51059 0.38768 0.0
C286 C 0.39731 0.58722 0.34798 0.0
H287 H 0.47791 0.61931 0.38361 0.0
C288 C 0.40063 0.61635 0.32894 0.0
C289 C 0.42563 0.58841 0.36795 0.0
C290 C 0.42431 0.55775 0.38715 0.0
C291 C 0.43133 0.64655 0.32967 0.0
C292 C 0.4596 0.64764 0.34953 0.0
C293 C 0.45618 0.61862 0.36889 0.0
C294 C 0.49363 0.67759 0.34705 0.0
C295 C 0.43325 0.67719 0.30951 0.0
C296 C 0.50913 0.68835 0.30603 0.0
C297 C 0.54251 0.71353 0.30326 0.0
C298 C 0.56135 0.72876 0.34143 0.0
C299 C 0.54545 0.71916 0.38254 0.0
C300 C 0.51195 0.69348 0.38534 0.0
H301 H 0.40821 0.67491 0.30703 0.0
H302 H 0.4499 0.69982 0.329 0.0
H303 H 0.44362 0.68057 0.27579 0.0
H304 H 0.49582 0.67626 0.27608 0.0
H305 H 0.55388 0.72043 0.27101 0.0
H306 H 0.82294 0.29546 0.86091 0.0
H307 H 0.81741 0.34551 0.86021 0.0
H308 H 0.80098 0.33518 0.71992 0.0
H309 H 0.80726 0.28603 0.72024 0.0
H310 H 0.84909 0.3962 0.74082 0.0
H311 H 0.73994 0.3624 0.84754 0.0
H312 H 0.77142 0.35692 0.87451 0.0
H313 H 0.75006 0.33189 0.82718 0.0
C314 C 0.81771 0.30366 0.83009 0.0
C315 C 0.81604 0.28707 0.79059 0.0
C316 C 0.8143 0.33213 0.82973 0.0
C317 C 0.80855 0.34407 0.78999 0.0
C318 C 0.80548 0.32658 0.75094 0.0
H319 H 0.82271 0.53681 0.72554 0.0
H320 H 0.80445 0.47698 0.72199 0.0
C321 C 0.80921 0.29849 0.75121 0.0
C322 C 0.80908 0.37645 0.78804 0.0
H323 H 0.77517 0.42083 0.8321 0.0
C324 C 0.83252 0.40135 0.76027 0.0
C325 C 0.78746 0.38324 0.81334 0.0
C326 C 0.76057 0.35708 0.84198 0.0
C327 C 0.83586 0.43315 0.75838 0.0
C328 C 0.81498 0.44027 0.78466 0.0
C329 C 0.79099 0.41522 0.81173 0.0
C330 C 0.82063 0.47468 0.78813 0.0
C331 C 0.8628 0.45943 0.72981 0.0
C332 C 0.8345 0.49274 0.82691 0.0
C333 C 0.84511 0.52667 0.82885 0.0
C334 C 0.84185 0.54331 0.79213 0.0
C335 C 0.82581 0.52474 0.7542 0.0
C336 C 0.81544 0.49063 0.75213 0.0
H337 H 0.87979 0.45119 0.71617 0.0
H338 H 0.85108 0.46526 0.70191 0.0
H339 H 0.87788 0.48274 0.74889 0.0
H340 H 0.83863 0.48093 0.85509 0.0
H341 H 0.85683 0.54009 0.85888 0.0
H342 H 0.35046 0.87304 0.27747 0.0
H343 H 0.39432 0.85899 0.28276 0.0
H344 H 0.35247 0.80678 0.40414 0.0
H345 H 0.30768 0.82081 0.39909 0.0
H346 H 0.4402 0.87901 0.35359 0.0
H347 H 0.37117 0.74147 0.32977 0.0
H348 H 0.35401 0.76736 0.31337 0.0
H349 H 0.35529 0.75829 0.37043 0.0
C350 C 0.35018 0.85836 0.30532 0.0
C351 C 0.32553 0.84837 0.33815 0.0
C352 C 0.37541 0.85029 0.30818 0.0
C353 C 0.37675 0.83179 0.34371 0.0
C354 C 0.35176 0.82084 0.37614 0.0
H355 H 0.5541 0.82524 0.42062 0.0
H356 H 0.50142 0.82528 0.4188 0.0
C357 C 0.3263 0.82904 0.37337 0.0
C358 C 0.40582 0.82638 0.34748 0.0
H359 H 0.42947 0.76724 0.34162 0.0
C360 C 0.4378 0.85454 0.3512 0.0
C361 C 0.40271 0.79448 0.34393 0.0
C362 C 0.36904 0.76357 0.33886 0.0
C363 C 0.46666 0.85172 0.35133 0.0
C364 C 0.46361 0.81989 0.34779 0.0
C365 C 0.4317 0.79162 0.3442 0.0
C366 C 0.49363 0.81599 0.34892 0.0
C367 C 0.50039 0.88289 0.35472 0.0
C368 C 0.50649 0.81008 0.31021 0.0
C369 C 0.53696 0.81021 0.31098 0.0
C370 C 0.55497 0.81618 0.35055 0.0
C371 C 0.54117 0.82079 0.38943 0.0
C372 C 0.51093 0.82075 0.38857 0.0
H373 H 0.49878 0.90586 0.35043 0.0
H374 H 0.51134 0.88388 0.3876 0.0
H375 H 0.51764 0.88258 0.32958 0.0
H376 H 0.49348 0.8064 0.27922 0.0
H377 H 0.54672 0.80636 0.28053 0.0
H378 H 0.48942 0.34835 0.83974 0.0
H379 H 0.54774 0.39089 0.8362 0.0
H380 H 0.56782 0.32734 0.75305 0.0
H381 H 0.50823 0.28495 0.75425 0.0
H382 H 0.60054 0.3907 0.86511 0.0
H383 H 0.61364 0.41171 0.68439 0.0
H384 H 0.57361 0.3866 0.71013 0.0
H385 H 0.60098 0.37 0.70147 0.0
C386 C 0.50605 0.34329 0.82036 0.0
C387 C 0.49407 0.31296 0.79761 0.0
C388 C 0.53959 0.36775 0.81852 0.0
C389 C 0.56244 0.36258 0.79438 0.0
C390 C 0.5507 0.33231 0.77135 0.0
H391 H 0.77256 0.52243 0.84085 0.0
H392 H 0.72237 0.46688 0.84097 0.0
C393 C 0.51665 0.3079 0.77237 0.0
C394 C 0.59823 0.38934 0.79431 0.0
H395 H 0.66064 0.44522 0.72796 0.0
C396 C 0.61379 0.4025 0.83507 0.0
C397 C 0.61562 0.40474 0.75516 0.0
C398 C 0.60011 0.39279 0.71029 0.0
C399 C 0.64509 0.43169 0.83792 0.0
C400 C 0.66218 0.44754 0.79877 0.0
C401 C 0.64754 0.43319 0.75799 0.0
C402 C 0.69333 0.48074 0.79897 0.0
C403 C 0.65839 0.4463 0.88285 0.0
C404 C 0.69425 0.50689 0.77451 0.0
C405 C 0.72304 0.53816 0.77358 0.0
C406 C 0.75147 0.54435 0.79774 0.0
C407 C 0.75068 0.51848 0.82273 0.0
C408 C 0.72198 0.48676 0.82282 0.0
H409 H 0.63858 0.43579 0.90836 0.0
H410 H 0.67804 0.44045 0.89254 0.0
H411 H 0.6695 0.47378 0.88272 0.0
H412 H 0.6726 0.5031 0.75596 0.0
H413 H 0.72303 0.55763 0.75386 0.0
H414 H 0.07464 0.15655 0.31728 0.0
H415 H 0.06319 0.10665 0.35908 0.0
H416 H 0.16697 0.15384 0.39712 0.0
H417 H 0.17851 0.20266 0.35515 0.0
H418 H 0.08619 0.06575 0.34959 0.0
H419 H 0.12481 0.1192 0.51344 0.0
H420 H 0.12248 0.14386 0.46914 0.0
H421 H 0.16054 0.14317 0.47963 0.0
C422 C 0.09483 0.15614 0.33483 0.0
C423 C 0.12745 0.1834 0.33275 0.0
C424 C 0.08821 0.12784 0.35929 0.0
C425 C 0.11388 0.12705 0.38333 0.0
C426 C 0.14639 0.15429 0.3807 0.0
H427 H 0.21004 0.03559 0.39316 0.0
H428 H 0.18414 0.06887 0.40934 0.0
C429 C 0.15308 0.18204 0.35583 0.0
C430 C 0.10874 0.0967 0.40659 0.0
H431 H 0.1425 0.07616 0.49265 0.0
C432 C 0.09699 0.06739 0.38185 0.0
C433 C 0.12237 0.09843 0.44903 0.0
C434 C 0.13288 0.1279 0.47924 0.0
C435 C 0.10308 0.04201 0.39542 0.0
C436 C 0.12124 0.04612 0.43469 0.0
C437 C 0.12884 0.0732 0.46234 0.0
C438 C 0.14035 0.02861 0.43978 0.0
C439 C 0.09422 1.01326 0.36457 0.0
C440 C 0.1256 0.99573 0.45514 0.0
C441 C 0.14064 0.97653 0.44617 0.0
C442 C 0.16994 0.98993 0.42086 0.0
C443 C 0.18688 0.0242 0.41149 0.0
C444 C 0.17215 0.04334 0.42083 0.0
H445 H 0.07365 1.00911 0.34183 0.0
H446 H 0.11647 1.01863 0.34465 0.0
H447 H 0.08669 0.99011 0.38323 0.0
H448 H 0.10148 0.98425 0.47101 0.0
H449 H 0.12794 0.95064 0.45572 0.0
H450 H 0.95231 0.12493 0.72483 0.0
H451 H 0.99066 0.10895 0.69259 0.0
H452 H 0.05902 0.15676 0.80059 0.0
H453 H 1.01966 0.17122 0.83411 0.0
H454 H 0.05081 0.15951 0.66659 0.0
H455 H 0.07448 0.07987 0.78155 0.0
H456 H 0.03324 0.07364 0.77145 0.0
H457 H 0.06217 0.10737 0.80573 0.0
C458 C 0.97487 0.1306 0.74266 0.0
C459 C 0.98301 0.14875 0.78221 0.0
C460 C 0.9967 0.12149 0.7242 0.0
C461 C 1.02742 0.13114 0.74447 0.0
C462 C 0.03491 0.14799 0.78516 0.0
H463 H 0.2158 0.22642 0.72017 0.0
H464 H 0.15912 0.20743 0.69566 0.0
C465 C 1.01266 0.15653 0.80415 0.0
C466 C 0.05412 0.13 0.71924 0.0
H467 H 0.11706 0.11272 0.73106 0.0
C468 C 0.06472 0.14834 0.67991 0.0
C469 C 0.07186 0.11495 0.73605 0.0
C470 C 0.0599 0.09264 0.77584 0.0
C471 C 0.09469 0.15511 0.6598 0.0
C472 C 0.11434 0.14332 0.67966 0.0
C473 C 0.10186 0.12183 0.71597 0.0
C474 C 0.15055 0.15964 0.67206 0.0
C475 C 0.10646 0.17692 0.61954 0.0
C476 C 0.16557 0.14051 0.66255 0.0
C477 C 0.19853 0.1519 0.67554 0.0
C478 C 0.21559 0.18132 0.70044 0.0
C479 C 0.2026 0.20293 0.70266 0.0
C480 C 0.17021 0.19217 0.68825 0.0
H481 H 0.08503 0.17473 0.60021 0.0
H482 H 0.12207 0.20331 0.6299 0.0
H483 H 0.1218 0.17036 0.59812 0.0
H484 H 0.15084 0.11547 0.64956 0.0
H485 H 0.20898 0.13583 0.67079 0.0
H486 H 1.01256 0.18124 0.38779 0.0
H487 H 0.97831 0.12551 0.41601 0.0
H488 H 0.06513 0.12845 0.47332 0.0
H489 H 0.10032 0.1846 0.44327 0.0
H490 H 0.03683 0.07844 0.4212 0.0
H491 H 0.9358 0.07078 0.52127 0.0
H492 H 0.93865 0.09599 0.47517 0.0
H493 H 0.97365 0.11008 0.51251 0.0
C494 C 1.02442 0.17054 0.40741 0.0
C495 C 0.05923 0.18703 0.41245 0.0
C496 C 1.00462 0.13868 0.42429 0.0
C497 C 1.01907 0.12272 0.44719 0.0
C498 C 0.05353 0.14038 0.45586 0.0
H499 H 0.85061 0.92566 0.41883 0.0
H500 H 0.90014 0.96538 0.45975 0.0
C501 C 0.07353 0.17242 0.4387 0.0
C502 C 0.9993 0.08602 0.45232 0.0
H503 H 0.91766 0.02642 0.46231 0.0
C504 C 1.01093 0.06694 0.43086 0.0
C505 C 0.96605 0.07009 0.46763 0.0
C506 C 0.9531 0.08793 0.49591 0.0
C507 C 0.98881 0.03433 0.41694 0.0
C508 C 0.95439 1.02023 0.42594 0.0
C509 C 0.94386 0.03739 0.45396 0.0
C510 C 0.9285 0.99073 0.4017 0.0
C511 C 1.00243 1.01645 0.39013 0.0
C512 C 0.92833 0.99073 0.35535 0.0
C513 C 0.90046 0.96699 0.33199 0.0
C514 C 0.87228 0.94323 0.35464 0.0
C515 C 0.8728 0.94248 0.40073 0.0
C516 C 0.9009 0.96563 0.42412 0.0
H517 H 1.02707 0.02191 0.40326 0.0
H518 H 0.98527 0.9891 0.3898 0.0
H519 H 1.00648 0.02579 0.3558 0.0
H520 H 0.94869 1.01049 0.33717 0.0
H521 H 0.90002 0.96868 0.29647 0.0
H522 H 0.8883 0.03089 0.77175 0.0
H523 H 0.91623 0.99855 0.76005 0.0
H524 H 0.99984 0.06991 0.83841 0.0
H525 H 0.96928 0.09867 0.85559 0.0
H526 H 0.96645 1.00569 0.72326 0.0
H527 H 0.99053 0.99475 0.90073 0.0
H528 H 0.96661 1.01361 0.88397 0.0
H529 H 1.01162 0.03635 0.87999 0.0
C530 C 0.91229 0.03893 0.78717 0.0
C531 C 0.92651 0.06651 0.81522 0.0
C532 C 0.92859 0.02091 0.78002 0.0
C533 C 0.96011 0.03125 0.7991 0.0
C534 C 0.97506 0.06026 0.82496 0.0
H535 H 1.00303 0.87202 0.8363 0.0
H536 H 1.02477 0.92933 0.80981 0.0
C537 C 0.95776 0.07693 0.83442 0.0
C538 C 0.97576 1.01026 0.79329 0.0
H539 H 1.00047 0.96336 0.85116 0.0
C540 C 0.97405 0.99661 0.75135 0.0
C541 C 0.98727 0.9993 0.82944 0.0
C542 C 0.98893 1.01156 0.87603 0.0
C543 C 0.97777 0.96867 0.74598 0.0
C544 C 0.98616 0.95586 0.78294 0.0
C545 C 0.99386 0.97324 0.82296 0.0
C546 C 0.97695 0.92056 0.78567 0.0
C547 C 0.96941 0.95156 0.70169 0.0
C548 C 0.94319 0.89671 0.77992 0.0
C549 C 0.93079 0.8646 0.7956 0.0
C550 C 0.95187 0.85562 0.81741 0.0
C551 C 0.9862 0.87865 0.82035 0.0
C552 C 0.99869 0.9111 0.8047 0.0
H553 H 0.98387 0.96989 0.6756 0.0
H554 H 0.9745 0.93061 0.69985 0.0
H555 H 0.94257 0.94187 0.6944 0.0
H556 H 0.92575 0.90354 0.76637 0.0
H557 H 0.90436 0.8471 0.79181 0.0
H558 H 0.85317 0.81393 0.37646 0.0
H559 H 0.90592 0.82618 0.40804 0.0
H560 H 0.90143 0.89587 0.49841 0.0
H561 H 0.84788 0.88366 0.46608 0.0
H562 H 0.95533 0.92678 0.45405 0.0
H563 H 0.95303 0.8133 0.50646 0.0
H564 H 0.92957 0.80245 0.45636 0.0
H565 H 0.91533 0.8158 0.50349 0.0
C566 C 0.86272 0.83109 0.40401 0.0
C567 C 0.84709 0.84891 0.41749 0.0
C568 C 0.89288 0.83776 0.42268 0.0
C569 C 0.90789 0.86201 0.45579 0.0
C570 C 0.89043 0.87714 0.4728 0.0
H571 H 0.10265 0.88773 0.41302 0.0
H572 H 0.06027 0.88601 0.46229 0.0
C573 C 0.85995 0.87032 0.45406 0.0
C574 C 0.94407 0.87604 0.46427 0.0
H575 H 1.00035 0.8496 0.45497 0.0
C576 C 0.96542 0.91012 0.45606 0.0
C577 C 0.95798 0.85513 0.46907 0.0
C578 C 0.93764 0.81972 0.48492 0.0
C579 C 0.99911 0.92241 0.44569 0.0
C580 C 1.01103 0.8998 0.44113 0.0
C581 C 0.99107 0.86695 0.45617 0.0
C582 C 0.04159 0.90807 0.41555 0.0
C583 C 1.02121 0.95918 0.43806 0.0
C584 C 0.04604 0.92184 0.37304 0.0
C585 C 0.07162 0.92456 0.34572 0.0
C586 C 0.09223 0.91235 0.35991 0.0
C587 C 0.08781 0.89853 0.40212 0.0
C588 C 0.06332 0.89717 0.4301 0.0
H589 H 1.01285 0.97377 0.45799 0.0
H590 H 0.0475 0.96735 0.44656 0.0
H591 H 1.02003 0.96477 0.40292 0.0
H592 H 1.02861 0.92874 0.35981 0.0
H593 H 0.07375 0.93398 0.31258 0.0
H594 H 0.22085 0.10411 0.72529 0.0
H595 H 0.17562 0.0637 0.67975 0.0
H596 H 0.1082 0.04033 0.78957 0.0
H597 H 0.15276 0.08522 0.83225 0.0
H598 H 0.15329 1.00668 0.6882 0.0
H599 H 0.0548 1.02005 0.75571 0.0
H600 H 0.04125 1.01629 0.69983 0.0
H601 H 0.08111 0.05082 0.71541 0.0
C602 C 0.19575 0.09229 0.73831 0.0
C603 C 0.18979 0.09898 0.78124 0.0
C604 C 0.16992 0.06846 0.71261 0.0
C605 C 0.13807 0.04862 0.73071 0.0
C606 C 0.13193 0.0559 0.77367 0.0
H607 H 0.05355 0.85438 0.76791 0.0
H608 H 0.08886 0.91055 0.74205 0.0
C609 C 0.15752 0.08133 0.79847 0.0
C610 C 0.11416 1.01652 0.7091 0.0
H611 H 0.03208 0.95774 0.71196 0.0
C612 C 0.12664 0.99667 0.69172 0.0
C613 C 0.0792 1.00301 0.71116 0.0
C614 C 0.06349 0.02399 0.72107 0.0
C615 C 0.10546 0.96292 0.68224 0.0
C616 C 0.07134 0.94812 0.69325 0.0
C617 C 0.05831 0.9687 0.7048 0.0
C618 C 0.05079 0.9119 0.70173 0.0
C619 C 0.12028 0.94318 0.66289 0.0
C620 C 1.01725 0.89368 0.68828 0.0
C621 C 0.99648 0.86149 0.70434 0.0
C622 C 1.00908 0.84709 0.73387 0.0
C623 C 0.04306 0.86462 0.74504 0.0
C624 C 0.06352 0.89678 0.72969 0.0
H625 H 0.13923 0.95819 0.63765 0.0
H626 H 0.13332 0.9374 0.68912 0.0
H627 H 0.10098 0.91958 0.6475 0.0
H628 H 1.00681 0.90488 0.66695 0.0
H629 H 0.97031 0.84859 0.69526 0.0
H630 H 0.25918 0.33036 0.24081 0.0
H631 H 0.29058 0.32506 0.17883 0.0
H632 H 0.20982 0.30646 0.09088 0.0
H633 H 0.17864 0.31154 0.15231 0.0
H634 H 0.26716 0.26613 0.12825 0.0
H635 H 0.29145 0.37136 1.01952 0.0
H636 H 0.281 0.37035 0.07697 0.0
H637 H 0.24869 0.34811 1.03675 0.0
C638 C 0.24882 0.32656 0.20792 0.0
C639 C 0.21665 0.32197 0.20137 0.0
C640 C 0.26658 0.32307 0.17256 0.0
C641 C 0.25278 0.31557 0.12985 0.0
C642 C 0.22144 0.31284 0.12309 0.0
H643 H 0.26289 0.24147 0.87815 0.0
H644 H 0.25495 0.26632 0.94415 0.0
C645 C 0.20361 0.31587 0.15832 0.0
C646 C 0.26909 0.30729 0.09306 0.0
H647 H 0.29278 0.32522 0.98534 0.0
C648 C 0.27342 0.27945 0.09726 0.0
C649 C 0.27721 0.32449 1.05244 0.0
C650 C 0.27467 0.35544 1.04618 0.0
C651 C 0.28363 0.26723 1.06139 0.0
C652 C 0.29045 0.28367 1.02017 0.0
C653 C 0.28754 0.31241 1.01667 0.0
C654 C 0.29726 0.26975 0.97927 0.0
C655 C 0.2851 0.23566 1.06732 0.0
C656 C 0.32425 0.26374 0.97603 0.0
C657 C 0.32892 0.24922 0.93778 0.0
C658 C 0.30677 0.2405 0.90185 0.0
C659 C 0.28047 0.24756 0.90495 0.0
C660 C 0.27588 0.26195 0.94289 0.0
H661 H 0.2724 0.22228 0.09793 0.0
H662 H 0.27339 0.21857 1.03893 0.0
H663 H 0.31158 0.24196 1.06935 0.0
H664 H 0.34162 0.2701 1.00312 0.0
H665 H 0.34944 0.24422 0.93674 0.0
H666 H 0.85805 0.20741 0.64477 0.0
H667 H 0.89706 0.22613 0.58204 0.0
H668 H 0.97926 0.25361 0.6715 0.0
H669 H 0.94096 0.23419 0.73309 0.0
H670 H 0.94797 0.28323 0.55682 0.0
H671 H 0.99903 0.2003 0.58796 0.0
H672 H 0.96282 0.19563 0.61662 0.0
H673 H 1.00427 0.22493 0.63594 0.0
C674 C 0.88442 0.21733 0.65093 0.0
C675 C 0.89607 0.2188 0.69419 0.0
C676 C 0.9068 0.22802 0.615 0.0
C677 C 0.94131 0.24047 0.6215 0.0
C678 C 0.95285 0.24297 0.66487 0.0
H679 H 0.10382 0.37423 0.44977 0.0
H680 H 0.0586 0.3476 0.50299 0.0
C681 C 0.93069 0.23203 0.7004 0.0
C682 C 0.96572 0.25197 0.58378 0.0
H683 H 0.03332 0.24871 0.54364 0.0
C684 C 0.96635 0.27532 0.55372 0.0
C685 C 0.98947 0.24128 0.57843 0.0
C686 C 0.98861 0.21387 0.60617 0.0
C687 C 0.99066 0.28924 0.52019 0.0
C688 C 1.01616 0.28066 0.51725 0.0
C689 C 1.01454 0.25613 0.54603 0.0
C690 C 0.04482 0.29702 0.4852 0.0
C691 C 0.98819 0.31259 0.48785 0.0
C692 C 0.05409 0.27796 0.45865 0.0
C693 C 0.0809 0.2934 0.42888 0.0
C694 C 0.09903 0.32827 0.42441 0.0
C695 C 0.0902 0.34729 0.45163 0.0
C696 C 0.0639 0.33196 0.48192 0.0
H697 H 0.96197 0.30698 0.48417 0.0
H698 H 1.00304 0.33853 0.50024 0.0
H699 H 0.99769 0.31105 0.45491 0.0
H700 H 0.04029 0.25101 0.46046 0.0
H701 H 0.08697 0.27804 0.40855 0.0
H702 H 0.74394 0.87984 0.15962 0.0
H703 H 0.75456 0.91755 0.09763 0.0
H704 H 0.74997 0.98843 0.18528 0.0
H705 H 0.73772 0.94984 0.24701 0.0
H706 H 0.72723 0.99233 0.1053 0.0
H707 H 0.84705 0.99434 0.08419 0.0
H708 H 0.81186 0.9534 0.07675 0.0
H709 H 0.81954 0.97354 0.12969 0.0
C710 C 0.74377 0.90286 0.16527 0.0
C711 C 0.73942 0.9116 0.20806 0.0
C712 C 0.75052 0.92477 0.12993 0.0
C713 C 0.75432 0.95654 0.13675 0.0
C714 C 0.74748 0.96428 0.17894 0.0
H715 H 0.88234 0.12392 0.96706 0.0
H716 H 0.85649 0.08471 1.02765 0.0
C717 C 0.74009 0.94202 0.21424 0.0
C718 C 0.76791 0.98241 0.10102 0.0
H719 H 0.83346 0.0221 1.02975 0.0
C720 C 0.7505 0.99887 0.08884 0.0
C721 C 0.79876 0.9918 0.07998 0.0
C722 C 0.82058 0.97763 0.09361 0.0
C723 C 0.76267 0.02381 1.05603 0.0
C724 C 0.79279 0.0321 1.03365 0.0
C725 C 0.81028 1.01582 1.04626 0.0
C726 C 0.80735 0.05799 0.99792 0.0
C727 C 0.74354 0.04165 1.04678 0.0
C728 C 0.78855 0.05681 0.9607 0.0
C729 C 0.80327 0.07984 0.92617 0.0
C730 C 0.83739 0.10414 0.92742 0.0
C731 C 0.85604 0.10553 0.96482 0.0
C732 C 0.84122 0.08296 0.99958 0.0
H733 H 0.72802 0.0404 0.07539 0.0
H734 H 0.76058 0.06824 1.03858 0.0
H735 H 0.72649 0.02949 1.01848 0.0
H736 H 0.76271 0.03742 0.95755 0.0
H737 H 0.78823 0.0777 0.89766 0.0
H738 H 0.80556 0.64087 0.66216 0.0
H739 H 0.78333 0.65853 0.6008 0.0
H740 H 0.83373 0.75896 0.65117 0.0
H741 H 0.85581 0.74159 0.71243 0.0
H742 H 0.74193 0.68781 0.60616 0.0
H743 H 0.8598 0.77103 0.51977 0.0
H744 H 0.85721 0.74261 0.56213 0.0
H745 H 0.86072 0.78189 0.57675 0.0
C746 C 0.81226 0.6668 0.65993 0.0
C747 C 0.83261 0.68973 0.69246 0.0
C748 C 0.79939 0.67687 0.62484 0.0
C749 C 0.80701 0.71023 0.62087 0.0
C750 C 0.82776 0.73322 0.65289 0.0
H751 H 0.75091 0.82468 0.44652 0.0
H752 H 0.77564 0.80556 0.50254 0.0
C753 C 0.84029 0.72313 0.68817 0.0
C754 C 0.79218 0.72081 0.58462 0.0
H755 H 0.81223 0.77477 0.49797 0.0
C756 C 0.75731 0.7066 0.58227 0.0
C757 C 0.81209 0.74556 0.55346 0.0
C758 C 0.84953 0.76098 0.55281 0.0
C759 C 0.74197 0.71695 0.55064 0.0
C760 C 0.76188 0.74174 0.51943 0.0
C761 C 0.79677 0.75583 0.52167 0.0
C762 C 0.74704 0.75345 0.48444 0.0
C763 C 0.70456 0.70195 0.55209 0.0
C764 C 0.72307 0.73086 0.4546 0.0
C765 C 0.70888 0.74177 0.42239 0.0
C766 C 0.71847 0.77572 0.41865 0.0
C767 C 0.7429 0.7984 0.44808 0.0
C768 C 0.75708 0.78744 0.48033 0.0
H769 H 0.69434 0.69133 0.58497 0.0
H770 H 0.69717 0.72074 0.54398 0.0
H771 H 0.69289 0.68142 0.52765 0.0
H772 H 0.71544 0.70466 0.45596 0.0
H773 H 0.69048 0.72353 0.40016 0.0
H774 H 0.92628 0.70108 0.94788 0.0
H775 H 0.95932 0.71139 1.0157 0.0
H776 H 0.05002 0.76722 0.94152 0.0
H777 H 1.0174 0.75709 0.87418 0.0
H778 H 0.05434 0.72594 1.0098 0.0
H779 H 1.00527 0.8068 1.06992 0.0
H780 H 0.97492 0.76467 1.05532 0.0
H781 H 1.00069 0.79312 1.01342 0.0
C782 C 0.95327 0.71471 0.94588 0.0
C783 C 0.96915 0.72827 0.90553 0.0
C784 C 0.97216 0.72089 0.98476 0.0
C785 C 1.00726 0.7405 0.98394 0.0
C786 C 1.02308 0.7521 0.9432 0.0
H787 H 0.15469 0.8771 0.16065 0.0
H788 H 0.11834 0.84465 0.09997 0.0
C789 C 1.00432 0.74627 0.90463 0.0
C790 C 1.02767 0.75167 1.02531 0.0
H791 H 0.04647 0.80488 0.11271 0.0
C792 C 0.05226 0.74276 1.03273 0.0
C793 C 1.02538 0.77405 1.055 0.0
C794 C 1.00036 0.78553 1.04814 0.0
C795 C 0.07483 0.75603 1.06845 0.0
C796 C 0.07293 0.77892 0.09749 0.0
C797 C 0.04787 0.7872 0.09062 0.0
C798 C 0.09838 0.79712 0.13271 0.0
C799 C 0.10152 0.74668 0.0739 0.0
C800 C 0.10036 0.78117 0.17111 0.0
C801 C 0.12151 0.79987 0.20623 0.0
C802 C 0.14084 0.83483 0.20355 0.0
C803 C 0.14014 0.85025 0.16396 0.0
C804 C 0.1192 0.83172 0.12919 0.0
H805 H 0.10191 0.73133 1.04603 0.0
H806 H 0.12643 0.76946 0.0767 0.0
H807 H 0.09705 0.73229 0.10476 0.0
H808 H 0.08437 0.75453 0.17482 0.0
H809 H 0.12104 0.78724 0.23641 0.0
H810 H 0.40279 0.17486 0.66145 0.0
H811 H 0.38512 0.13554 0.59912 0.0
H812 H 0.28771 0.07777 0.65713 0.0
H813 H 0.30501 0.11636 0.71908 0.0
H814 H 0.3598 0.06376 0.60498 0.0
H815 H 0.26683 0.09059 0.5282 0.0
H816 H 0.29872 0.11927 0.56561 0.0
H817 H 0.26222 0.08329 0.58649 0.0
C818 C 0.3775 0.15401 0.66067 0.0
C819 C 0.35541 0.14901 0.69552 0.0
C820 C 0.36743 0.13145 0.62504 0.0
C821 C 0.33488 0.10374 0.62298 0.0
C822 C 0.31274 0.0991 0.65736 0.0
H823 H 0.2205 0.93317 0.44704 0.0
H824 H 0.23918 0.97654 0.50393 0.0
C825 C 0.32283 0.12128 0.69305 0.0
C826 C 0.32431 0.07866 0.58636 0.0
H827 H 0.26748 0.04249 0.50266 0.0
C828 C 0.33984 0.05934 0.58232 0.0
C829 C 0.29786 0.07236 0.55713 0.0
C830 C 0.28053 0.0926 0.55916 0.0
C831 C 0.32928 0.03359 0.55076 0.0
C832 C 0.30302 0.02746 0.52107 0.0
C833 C 0.28758 0.04694 0.52508 0.0
C834 C 0.29139 1.00116 0.48568 0.0
C835 C 0.34563 1.0124 0.55088 0.0
C836 C 0.3141 1.00059 0.45544 0.0
C837 C 0.30352 0.97561 0.42315 0.0
C838 C 0.26971 0.95062 0.41947 0.0
C839 C 0.24674 0.95176 0.44888 0.0
C840 C 0.25744 0.97668 0.4815 0.0
H841 H 0.35677 1.0129 0.5835 0.0
H842 H 0.32752 0.9861 0.54233 0.0
H843 H 0.36608 0.02231 0.52633 0.0
H844 H 0.34019 1.01965 0.45658 0.0
H845 H 0.32197 0.97606 0.40081 0.0
H846 H 0.80829 0.72174 0.89248 0.0
H847 H 0.78048 0.73279 0.95379 0.0
H848 H 0.84371 0.71929 1.04593 0.0
H849 H 0.87243 0.70989 0.98475 0.0
H850 H 0.74654 0.70529 1.02932 0.0
H851 H 0.86928 0.8137 1.07202 0.0
H852 H 0.86284 0.78953 1.02275 0.0
H853 H 0.86974 0.7753 0.07477 0.0
C854 C 0.81537 0.71991 0.92592 0.0
C855 C 0.84235 0.71461 0.93378 0.0
C856 C 0.79967 0.72659 0.96104 0.0
C857 C 0.81059 0.72799 1.00472 0.0
C858 C 0.8354 0.71948 1.01266 0.0
H859 H 0.72072 0.7551 0.24645 0.0
H860 H 0.73244 0.73094 0.18149 0.0
C861 C 0.85146 0.71347 0.97764 0.0
C862 C 0.79827 0.74094 1.04136 0.0
H863 H 0.82548 0.80012 0.1226 0.0
C864 C 0.7638 0.72609 1.04964 0.0
C865 C 0.82053 0.76867 1.06752 0.0
C866 C 0.85759 0.78796 1.05858 0.0
C867 C 0.75121 0.73768 0.0836 0.0
C868 C 0.77365 0.76446 0.11098 0.0
C869 C 0.80803 0.77947 0.10219 0.0
C870 C 0.7626 0.77811 0.14836 0.0
C871 C 0.7139 0.7216 0.0889 0.0
C872 C 0.77544 0.8127 0.15212 0.0
C873 C 0.76923 0.82645 0.18959 0.0
C874 C 0.74943 0.80603 0.22408 0.0
C875 C 0.73528 0.77135 0.21981 0.0
C876 C 0.742 0.75754 0.18251 0.0
H877 H 0.70059 0.70958 1.05783 0.0
H878 H 0.70549 0.70196 0.11443 0.0
H879 H 0.70657 0.74004 0.09923 0.0
H880 H 0.79137 0.82934 0.12662 0.0
H881 H 0.78097 0.8533 0.19232 0.0
H882 H 0.11659 0.80706 0.40506 0.0
H883 H 0.07831 0.78592 0.46656 0.0
H884 H 0.15972 0.80551 0.55386 0.0
H885 H 0.19868 0.82597 0.49116 0.0
H886 H 0.10701 0.74769 0.57429 0.0
H887 H 0.06219 0.8372 0.55807 0.0
H888 H 0.0559 0.81511 0.50735 0.0
H889 H 0.0977 0.84175 0.52774 0.0
C890 C 0.1267 0.80712 0.43726 0.0
C891 C 0.16106 0.81861 0.44291 0.0
C892 C 0.10457 0.7952 0.47274 0.0
C893 C 0.11595 0.79494 0.51549 0.0
C894 C 0.15018 0.80575 0.52138 0.0
H895 H 0.9735 0.75362 0.73236 0.0
H896 H 1.02033 0.78091 0.68098 0.0
C897 C 0.1725 0.81746 0.48548 0.0
C898 C 0.09162 0.78229 0.55312 0.0
H899 H 1.02621 0.78697 0.5982 0.0
C900 C 0.08963 0.7566 0.57981 0.0
C901 C 0.06919 0.79422 0.56149 0.0
C902 C 0.07161 0.82384 0.53744 0.0
C903 C 0.0652 0.74169 0.61299 0.0
C904 C 0.04104 0.75178 0.61891 0.0
C905 C 0.044 0.77848 0.59347 0.0
C906 C 1.01252 0.73508 0.65095 0.0
C907 C 0.06611 0.71565 0.64176 0.0
C908 C 0.9917 0.7002 0.65128 0.0
C909 C 0.9653 0.68466 0.68141 0.0
C910 C 0.95825 0.70356 0.71135 0.0
C911 C 0.97828 0.73844 0.70996 0.0
C912 C 1.00512 0.754 0.68043 0.0
H913 H 0.09179 0.71949 0.64405 0.0
H914 H 0.05717 0.71595 0.67555 0.0
H915 H 0.04997 0.69066 0.62707 0.0
H916 H 0.99564 0.68483 0.62797 0.0
H917 H 0.95018 0.65775 0.68093 0.0
H918 H 0.29495 0.15121 0.97982 0.0
H919 H 0.28761 0.11406 1.04085 0.0
H920 H 0.33067 0.06714 0.96315 0.0
H921 H 0.33861 0.105 0.9017 0.0
H922 H 0.24655 0.04669 1.0354 0.0
H923 H 0.37404 0.07457 0.08348 0.0
H924 H 0.3668 0.10283 1.05065 0.0
H925 H 0.36367 0.06611 1.02609 0.0
C926 C 0.30378 0.13363 0.97603 0.0
C927 C 0.31749 0.13123 0.93579 0.0
C928 C 0.29938 0.1122 1.011 0.0
C929 C 0.30845 0.08755 1.00695 0.0
C930 C 0.32386 0.08617 0.96761 0.0
H931 H 0.24928 0.92184 0.20033 0.0
H932 H 0.27171 0.95541 0.13284 0.0
C933 C 0.32852 0.10795 0.93244 0.0
C934 C 0.29857 0.06178 1.04243 0.0
H935 H 0.32877 0.0309 0.12156 0.0
C936 C 0.26463 0.04316 1.0539 0.0
C937 C 0.32191 0.05669 1.0666 0.0
C938 C 0.3587 0.0762 1.05648 0.0
C939 C 0.25358 0.02058 0.08925 0.0
C940 C 0.27698 1.01643 0.11451 0.0
C941 C 0.31079 0.03397 0.10217 0.0
C942 C 0.26678 0.99685 0.15638 0.0
C943 C 0.21684 1.00176 0.10004 0.0
C944 C 0.25728 1.00916 0.19236 0.0
C945 C 0.2446 0.99023 0.23058 0.0
C946 C 0.24097 0.95823 0.23429 0.0
C947 C 0.25174 0.94632 0.19882 0.0
C948 C 0.26455 0.96549 0.16019 0.0
H949 H 0.20133 1.00155 1.07194 0.0
H950 H 0.20876 0.97564 0.10934 0.0
H951 H 0.21209 1.01389 0.12845 0.0
H952 H 0.25897 0.03331 0.19048 0.0
H953 H 0.23699 1.00063 0.2571 0.0
H954 H 0.30804 0.21205 0.68974 0.0
H955 H 0.28228 0.23074 0.63433 0.0
H956 H 0.34162 0.33166 0.68086 0.0
H957 H 0.36655 0.31308 0.73731 0.0
H958 H 0.24814 0.27499 0.65138 0.0
H959 H 0.35851 0.32791 0.54046 0.0
H960 H 0.3498 0.29471 0.57867 0.0
H961 H 0.36571 0.33639 0.59856 0.0
C962 C 0.31526 0.23815 0.68873 0.0
C963 C 0.33914 0.26087 0.71865 0.0
C964 C 0.30059 0.24884 0.65679 0.0
C965 C 0.30991 0.28265 0.65334 0.0
C966 C 0.33394 0.30545 0.6828 0.0
H967 H 0.22805 0.3839 0.49017 0.0
H968 H 0.24989 0.36616 0.55228 0.0
C969 C 0.3483 0.29474 0.71506 0.0
C970 C 0.29531 0.29433 0.61831 0.0
H971 H 0.31345 0.33509 0.51947 0.0
C972 C 0.26245 0.28827 0.62265 0.0
C973 C 0.31382 0.31146 0.58059 0.0
C974 C 0.34889 0.31799 0.5738 0.0
C975 C 0.24784 0.29909 0.59046 0.0
C976 C 0.26648 0.31643 0.55286 0.0
C977 C 0.29922 0.3222 0.54845 0.0
C978 C 0.25184 0.32684 0.51625 0.0
C979 C 0.21228 0.29128 0.59627 0.0
C980 C 0.24563 0.31082 0.47528 0.0
C981 C 0.233 0.32069 0.44004 0.0
C982 C 0.22652 0.3473 0.44428 0.0
C983 C 0.23267 0.36338 0.48549 0.0
C984 C 0.24509 0.35317 0.52111 0.0
H985 H 0.19981 0.27413 0.6243 0.0
H986 H 0.21197 0.31475 0.60231 0.0
H987 H 0.19768 0.27981 0.56579 0.0
H988 H 0.25062 0.29054 0.47049 0.0
H989 H 0.22868 0.30751 0.40909 0.0
H990 H 0.12935 0.33867 0.1961 0.0
H991 H 0.09616 0.33148 0.12927 0.0
H992 H 1.01058 0.24909 0.18977 0.0
H993 H 0.04316 0.25617 0.2561 0.0
H994 H 0.06502 0.2747 0.07543 0.0
H995 H 0.96975 0.30244 0.14055 0.0
H996 H 1.00815 0.31391 0.16954 0.0
H997 H 0.97366 0.27192 0.17229 0.0
C998 C 0.10328 0.31949 0.19548 0.0
C999 C 0.08902 0.29817 0.23181 0.0
C1000 C 0.08432 0.31525 0.15711 0.0
C1001 C 0.05055 0.28999 0.15442 0.0
C1002 C 0.03624 0.26921 0.19102 0.0
H1003 H 0.89617 0.19621 0.95178 0.0
H1004 H 0.92717 0.21595 1.02143 0.0
C1005 C 0.05511 0.27321 0.22903 0.0
C1006 C 1.03074 0.28363 0.11269 0.0
H1007 H 0.95783 0.27488 1.07076 0.0
C1008 C 0.04181 0.27519 0.07433 0.0
C1009 C 1.00014 0.28378 0.11105 0.0
C1010 C 0.98732 0.2938 0.15044 0.0
C1011 C 1.02288 0.26604 1.0351 0.0
C1012 C 0.99219 0.26607 1.03343 0.0
C1013 C 0.98123 0.27479 1.07171 0.0
C1014 C 0.97128 0.25689 0.9923 0.0
C1015 C 0.03545 0.25519 0.99621 0.0
C1016 C 0.98474 0.27426 0.95289 0.0
C1017 C 0.96706 0.26306 0.91315 0.0
C1018 C 0.9351 0.23444 0.91165 0.0
C1019 C 0.92046 0.21859 0.95166 0.0
C1020 C 0.93838 0.2297 0.99154 0.0
H1021 H 0.05378 0.2476 1.00633 0.0
H1022 H 1.01456 0.23403 0.97854 0.0
H1023 H 0.04812 0.27629 0.97293 0.0
H1024 H 1.00959 0.29585 0.95251 0.0
H1025 H 0.97916 0.27594 0.88308 0.0
H1026 H 0.7457 0.0914 0.697 0.0
H1027 H 0.72832 0.04736 0.64201 0.0
H1028 H 0.81274 0.03595 0.67557 0.0
H1029 H 0.83133 0.08159 0.7291 0.0
H1030 H 0.80578 0.02979 0.59308 0.0
H1031 H 0.67878 0.95058 0.6576 0.0
H1032 H 0.68472 0.9907 0.64367 0.0
H1033 H 0.7095 0.98693 0.68683 0.0
C1034 C 0.76061 0.07952 0.69279 0.0
C1035 C 0.78985 0.09002 0.71788 0.0
C1036 C 0.75037 0.0539 0.6615 0.0
C1037 C 0.76837 0.03711 0.65521 0.0
C1038 C 0.798 0.04801 0.67974 0.0
H1039 H 0.67775 0.85175 0.49392 0.0
H1040 H 0.69713 0.89113 0.55626 0.0
C1041 C 0.8087 0.07423 0.71044 0.0
C1042 C 0.75695 1.00919 0.62205 0.0
H1043 H 0.68796 0.93884 0.58336 0.0
C1044 C 0.78005 1.00978 0.59144 0.0
C1045 C 0.72357 0.98217 0.61998 0.0
C1046 C 0.69788 0.97733 0.65413 0.0
C1047 C 0.77062 0.98526 0.55833 0.0
C1048 C 0.73666 0.95988 0.554 0.0
C1049 C 0.71383 0.95847 0.58565 0.0
C1050 C 0.7243 0.93538 0.51628 0.0
C1051 C 0.79759 0.98666 0.52893 0.0
C1052 C 0.73209 0.94673 0.47269 0.0
C1053 C 0.72156 0.9243 0.43732 0.0
C1054 C 0.70197 0.88967 0.44404 0.0
C1055 C 0.69283 0.87818 0.48746 0.0
C1056 C 0.70399 0.90077 0.52316 0.0
H1057 H 0.8221 0.99847 0.54613 0.0
H1058 H 0.79164 0.96146 0.51775 0.0
H1059 H 0.80033 1.0021 0.49965 0.0
H1060 H 0.74637 0.97314 0.46579 0.0
H1061 H 0.72868 0.93427 0.4044 0.0
loop_
_geom_bond_atom_site_label_1
_geom_bond_atom_site_label_2
_geom_bond_distance
_geom_bond_site_symmetry_2
_ccdc_geom_bond_type
Co0 O3 2.042 . S
Co0 O10 2.264 . S
Co0 O29 2.286 . S
Co0 O30 2.069 . S
Co0 O32 2.015 . S
Co1 O3 2.122 . S
Co1 O9 2.073 . S
Co1 O10 2.327 . S
Co1 O11 1.976 . S
Co2 O3 2.087 . S
Co2 O5 2.087 . S
Co2 O12 2.111 . S
Co2 O13 2.143 . S
Co2 O17 2.111 . S
Co2 O31 2.143 . S
O3 Co0 2.042 . S
O3 Co1 2.122 . S
O3 Co2 2.087 . S
O3 H4 0.980 . S
H4 O3 0.980 . S
O5 Co2 2.087 . S
O5 Co6 2.042 . S
O5 Co7 2.122 . S
O5 H8 0.980 . S
Co6 O5 2.042 . S
Co6 O14 2.286 . S
Co6 O15 2.069 . S
Co6 O16 2.015 . S
Co6 O19 2.264 . S
Co7 O5 2.122 . S
Co7 O18 1.976 . S
Co7 O19 2.327 . S
Co7 O20 2.073 . S
H8 O5 0.980 . S
O9 Co1 2.073 . S
O9 C24 1.245 . S
O10 Co0 2.264 . S
O10 Co1 2.327 . S
O10 C24 1.257 . S
O11 Co1 1.976 . S
O11 C23 1.251 . S
O12 Co2 2.111 . S
O12 C23 1.274 . S
O13 Co2 2.143 . S
O13 C26 1.246 . S
O14 Co6 2.286 . S
O14 C25 1.259 . S
O15 Co6 2.069 . S
O15 C25 1.289 . S
O16 Co6 2.015 . S
O16 C26 1.257 . S
O17 Co2 2.111 . S
O17 C27 1.274 . S
O18 Co7 1.976 . S
O18 C27 1.251 . S
O19 Co6 2.264 . S
O19 Co7 2.327 . S
O19 C28 1.257 . S
O20 Co7 2.073 . S
O20 C28 1.245 . S
C21 O29 1.259 . S
C21 O30 1.289 . S
C22 O31 1.246 . S
C22 O32 1.257 . S
C23 O11 1.251 . S
C23 O12 1.274 . S
C24 O9 1.245 . S
C24 O10 1.257 . S
C25 O14 1.259 . S
C25 O15 1.289 . S
C26 O13 1.246 . S
C26 O16 1.257 . S
C27 O17 1.274 . S
C27 O18 1.251 . S
C28 O19 1.257 . S
C28 O20 1.245 . S
O29 Co0 2.286 . S
O29 C21 1.259 . S
O30 Co0 2.069 . S
O30 C21 1.289 . S
O31 Co2 2.143 . S
O31 C22 1.246 . S
O32 Co0 2.015 . S
O32 C22 1.257 . S
Co33 O36 2.042 . S
Co33 O43 2.264 . S
Co33 O62 2.286 . S
Co33 O63 2.069 . S
Co33 O65 2.015 . S
Co34 O36 2.122 . S
Co34 O42 2.073 . S
Co34 O43 2.327 . S
Co34 O44 1.976 . S
Co35 O36 2.087 . S
Co35 O38 2.087 . S
Co35 O45 2.111 . S
Co35 O46 2.143 . S
Co35 O50 2.111 . S
Co35 O64 2.143 . S
O36 Co33 2.042 . S
O36 Co34 2.122 . S
O36 Co35 2.087 . S
O36 H37 0.980 . S
H37 O36 0.980 . S
O38 Co35 2.087 . S
O38 Co39 2.042 . S
O38 Co40 2.122 . S
O38 H41 0.980 . S
Co39 O38 2.042 . S
Co39 O47 2.286 . S
Co39 O48 2.069 . S
Co39 O49 2.015 . S
Co39 O52 2.264 . S
Co40 O38 2.122 . S
Co40 O51 1.976 . S
Co40 O52 2.327 . S
Co40 O53 2.073 . S
H41 O38 0.980 . S
O42 Co34 2.073 . S
O42 C57 1.245 . S
O43 Co33 2.264 . S
O43 Co34 2.327 . S
O43 C57 1.257 . S
O44 Co34 1.976 . S
O44 C56 1.251 . S
O45 Co35 2.111 . S
O45 C56 1.274 . S
O46 Co35 2.143 . S
O46 C59 1.246 . S
O47 Co39 2.286 . S
O47 C58 1.259 . S
O48 Co39 2.069 . S
O48 C58 1.289 . S
O49 Co39 2.015 . S
O49 C59 1.257 . S
O50 Co35 2.111 . S
O50 C60 1.274 . S
O51 Co40 1.976 . S
O51 C60 1.251 . S
O52 Co39 2.264 . S
O52 Co40 2.327 . S
O52 C61 1.257 . S
O53 Co40 2.073 . S
O53 C61 1.245 . S
C54 O62 1.259 . S
C54 O63 1.289 . S
C55 O64 1.246 . S
C55 O65 1.257 . S
C56 O44 1.251 . S
C56 O45 1.274 . S
C57 O42 1.245 . S
C57 O43 1.257 . S
C58 O47 1.259 . S
C58 O48 1.289 . S
C59 O46 1.246 . S
C59 O49 1.257 . S
C60 O50 1.274 . S
C60 O51 1.251 . S
C61 O52 1.257 . S
C61 O53 1.245 . S
O62 Co33 2.286 . S
O62 C54 1.259 . S
O63 Co33 2.069 . S
O63 C54 1.289 . S
O64 Co35 2.143 . S
O64 C55 1.246 . S
O65 Co33 2.015 . S
O65 C55 1.257 . S
Co66 O69 2.042 . S
Co66 O76 2.264 . S
Co66 O95 2.286 . S
Co66 O96 2.069 . S
Co66 O98 2.015 . S
Co67 O69 2.122 . S
Co67 O75 2.073 . S
Co67 O76 2.327 . S
Co67 O77 1.976 . S
Co68 O69 2.087 . S
Co68 O71 2.087 . S
Co68 O78 2.111 . S
Co68 O79 2.143 . S
Co68 O83 2.111 . S
Co68 O97 2.143 . S
O69 Co66 2.042 . S
O69 Co67 2.122 . S
O69 Co68 2.087 . S
O69 H70 0.980 . S
H70 O69 0.980 . S
O71 Co68 2.087 . S
O71 Co72 2.042 . S
O71 Co73 2.122 . S
O71 H74 0.980 . S
Co72 O71 2.042 . S
Co72 O80 2.286 . S
Co72 O81 2.069 . S
Co72 O82 2.015 . S
Co72 O85 2.264 . S
Co73 O71 2.122 . S
Co73 O84 1.976 . S
Co73 O85 2.327 . S
Co73 O86 2.073 . S
H74 O71 0.980 . S
O75 Co67 2.073 . S
O75 C90 1.245 . S
O76 Co66 2.264 . S
O76 Co67 2.327 . S
O76 C90 1.257 . S
O77 Co67 1.976 . S
O77 C89 1.251 . S
O78 Co68 2.111 . S
O78 C89 1.274 . S
O79 Co68 2.143 . S
O79 C92 1.246 . S
O80 Co72 2.286 . S
O80 C91 1.259 . S
O81 Co72 2.069 . S
O81 C91 1.289 . S
O82 Co72 2.015 . S
O82 C92 1.257 . S
O83 Co68 2.111 . S
O83 C93 1.274 . S
O84 Co73 1.976 . S
O84 C93 1.251 . S
O85 Co72 2.264 . S
O85 Co73 2.327 . S
O85 C94 1.257 . S
O86 Co73 2.073 . S
O86 C94 1.245 . S
C87 O95 1.259 . S
C87 O96 1.289 . S
C88 O97 1.246 . S
C88 O98 1.257 . S
C89 O77 1.251 . S
C89 O78 1.274 . S
C90 O75 1.245 . S
C90 O76 1.257 . S
C91 O80 1.259 . S
C91 O81 1.289 . S
C92 O79 1.246 . S
C92 O82 1.257 . S
C93 O83 1.274 . S
C93 O84 1.251 . S
C94 O85 1.257 . S
C94 O86 1.245 . S
O95 Co66 2.286 . S
O95 C87 1.259 . S
O96 Co66 2.069 . S
O96 C87 1.289 . S
O97 Co68 2.143 . S
O97 C88 1.246 . S
O98 Co66 2.015 . S
O98 C88 1.257 . S
Co99 O102 2.042 . S
Co99 O109 2.264 . S
Co99 O128 2.286 . S
Co99 O129 2.069 . S
Co99 O131 2.015 . S
Co100 O102 2.122 . S
Co100 O108 2.073 . S
Co100 O109 2.327 . S
Co100 O110 1.976 . S
Co101 O102 2.087 . S
Co101 O104 2.087 . S
Co101 O111 2.111 . S
Co101 O112 2.143 . S
Co101 O116 2.111 . S
Co101 O130 2.143 . S
O102 Co99 2.042 . S
O102 Co100 2.122 . S
O102 Co101 2.087 . S
O102 H103 0.980 . S
H103 O102 0.980 . S
O104 Co101 2.087 . S
O104 Co105 2.042 . S
O104 Co106 2.122 . S
O104 H107 0.980 . S
Co105 O104 2.042 . S
Co105 O113 2.286 . S
Co105 O114 2.069 . S
Co105 O115 2.015 . S
Co105 O118 2.264 . S
Co106 O104 2.122 . S
Co106 O117 1.976 . S
Co106 O118 2.327 . S
Co106 O119 2.073 . S
H107 O104 0.980 . S
O108 Co100 2.073 . S
O108 C123 1.245 . S
O109 Co99 2.264 . S
O109 Co100 2.327 . S
O109 C123 1.257 . S
O110 Co100 1.976 . S
O110 C122 1.251 . S
O111 Co101 2.111 . S
O111 C122 1.274 . S
O112 Co101 2.143 . S
O112 C125 1.246 . S
O113 Co105 2.286 . S
O113 C124 1.259 . S
O114 Co105 2.069 . S
O114 C124 1.289 . S
O115 Co105 2.015 . S
O115 C125 1.257 . S
O116 Co101 2.111 . S
O116 C126 1.274 . S
O117 Co106 1.976 . S
O117 C126 1.251 . S
O118 Co105 2.264 . S
O118 Co106 2.327 . S
O118 C127 1.257 . S
O119 Co106 2.073 . S
O119 C127 1.245 . S
C120 O128 1.259 . S
C120 O129 1.289 . S
C121 O130 1.246 . S
C121 O131 1.257 . S
C122 O110 1.251 . S
C122 O111 1.274 . S
C123 O108 1.245 . S
C123 O109 1.257 . S
C124 O113 1.259 . S
C124 O114 1.289 . S
C125 O112 1.246 . S
C125 O115 1.257 . S
C126 O116 1.274 . S
C126 O117 1.251 . S
C127 O118 1.257 . S
C127 O119 1.245 . S
O128 Co99 2.286 . S
O128 C120 1.259 . S
O129 Co99 2.069 . S
O129 C120 1.289 . S
O130 Co101 2.143 . S
O130 C121 1.246 . S
O131 Co99 2.015 . S
O131 C121 1.257 . S
Co132 O135 2.042 . S
Co132 O142 2.264 . S
Co132 O161 2.286 . S
Co132 O162 2.069 . S
Co132 O164 2.015 . S
Co133 O135 2.122 . S
Co133 O141 2.073 . S
Co133 O142 2.327 . S
Co133 O143 1.976 . S
Co134 O135 2.087 . S
Co134 O137 2.087 . S
Co134 O144 2.111 . S
Co134 O145 2.143 . S
Co134 O149 2.111 . S
Co134 O163 2.143 . S
O135 Co132 2.042 . S
O135 Co133 2.122 . S
O135 Co134 2.087 . S
O135 H136 0.980 . S
H136 O135 0.980 . S
O137 Co134 2.087 . S
O137 Co138 2.042 . S
O137 Co139 2.122 . S
O137 H140 0.980 . S
Co138 O137 2.042 . S
Co138 O146 2.286 . S
Co138 O147 2.069 . S
Co138 O148 2.015 . S
Co138 O151 2.264 . S
Co139 O137 2.122 . S
Co139 O150 1.976 . S
Co139 O151 2.327 . S
Co139 O152 2.073 . S
H140 O137 0.980 . S
O141 Co133 2.073 . S
O141 C156 1.245 . S
O142 Co132 2.264 . S
O142 Co133 2.327 . S
O142 C156 1.257 . S
O143 Co133 1.976 . S
O143 C155 1.251 . S
O144 Co134 2.111 . S
O144 C155 1.274 . S
O145 Co134 2.143 . S
O145 C158 1.246 . S
O146 Co138 2.286 . S
O146 C157 1.259 . S
O147 Co138 2.069 . S
O147 C157 1.289 . S
O148 Co138 2.015 . S
O148 C158 1.257 . S
O149 Co134 2.111 . S
O149 C159 1.274 . S
O150 Co139 1.976 . S
O150 C159 1.251 . S
O151 Co138 2.264 . S
O151 Co139 2.327 . S
O151 C160 1.257 . S
O152 Co139 2.073 . S
O152 C160 1.245 . S
C153 O161 1.259 . S
C153 O162 1.289 . S
C154 O163 1.246 . S
C154 O164 1.257 . S
C155 O143 1.251 . S
C155 O144 1.274 . S
C156 O141 1.245 . S
C156 O142 1.257 . S
C157 O146 1.259 . S
C157 O147 1.289 . S
C158 O145 1.246 . S
C158 O148 1.257 . S
C159 O149 1.274 . S
C159 O150 1.251 . S
C160 O151 1.257 . S
C160 O152 1.245 . S
O161 Co132 2.286 . S
O161 C153 1.259 . S
O162 Co132 2.069 . S
O162 C153 1.289 . S
O163 Co134 2.143 . S
O163 C154 1.246 . S
O164 Co132 2.015 . S
O164 C154 1.257 . S
Co165 O168 2.042 . S
Co165 O175 2.264 . S
Co165 O194 2.286 . S
Co165 O195 2.069 . S
Co165 O197 2.015 . S
Co166 O168 2.122 . S
Co166 O174 2.073 . S
Co166 O175 2.327 . S
Co166 O176 1.976 . S
Co167 O168 2.087 . S
Co167 O170 2.087 . S
Co167 O177 2.111 . S
Co167 O178 2.143 . S
Co167 O182 2.111 . S
Co167 O196 2.143 . S
O168 Co165 2.042 . S
O168 Co166 2.122 . S
O168 Co167 2.087 . S
O168 H169 0.980 . S
H169 O168 0.980 . S
O170 Co167 2.087 . S
O170 Co171 2.042 . S
O170 Co172 2.122 . S
O170 H173 0.980 . S
Co171 O170 2.042 . S
Co171 O179 2.286 . S
Co171 O180 2.069 . S
Co171 O181 2.015 . S
Co171 O184 2.264 . S
Co172 O170 2.122 . S
Co172 O183 1.976 . S
Co172 O184 2.327 . S
Co172 O185 2.073 . S
H173 O170 0.980 . S
O174 Co166 2.073 . S
O174 C189 1.245 . S
O175 Co165 2.264 . S
O175 Co166 2.327 . S
O175 C189 1.257 . S
O176 Co166 1.976 . S
O176 C188 1.251 . S
O177 Co167 2.111 . S
O177 C188 1.274 . S
O178 Co167 2.143 . S
O178 C191 1.246 . S
O179 Co171 2.286 . S
O179 C190 1.259 . S
O180 Co171 2.069 . S
O180 C190 1.289 . S
O181 Co171 2.015 . S
O181 C191 1.257 . S
O182 Co167 2.111 . S
O182 C192 1.274 . S
O183 Co172 1.976 . S
O183 C192 1.251 . S
O184 Co171 2.264 . S
O184 Co172 2.327 . S
O184 C193 1.257 . S
O185 Co172 2.073 . S
O185 C193 1.245 . S
C186 O194 1.259 . S
C186 O195 1.289 . S
C187 O196 1.246 . S
C187 O197 1.257 . S
C188 O176 1.251 . S
C188 O177 1.274 . S
C189 O174 1.245 . S
C189 O175 1.257 . S
C190 O179 1.259 . S
C190 O180 1.289 . S
C191 O178 1.246 . S
C191 O181 1.257 . S
C192 O182 1.274 . S
C192 O183 1.251 . S
C193 O184 1.257 . S
C193 O185 1.245 . S
O194 Co165 2.286 . S
O194 C186 1.259 . S
O195 Co165 2.069 . S
O195 C186 1.289 . S
O196 Co167 2.143 . S
O196 C187 1.246 . S
O197 Co165 2.015 . S
O197 C187 1.257 . S
H198 C206 0.929 . S
H199 C208 0.930 . S
H200 C210 0.930 . S
H201 C213 0.929 . S
H202 C216 0.930 . S
H203 C218 0.960 . S
H204 C218 0.960 . S
H205 C218 0.960 . S
C206 H198 0.929 . S
C206 C207 1.377 . S
C206 C208 1.384 . S
C207 C206 1.377 . S
C207 C213 1.390 . S
C208 H199 0.930 . S
C208 C206 1.384 . S
C208 C209 1.372 . S
C209 C208 1.372 . S
C209 C210 1.400 . S
C209 C214 1.490 . S
C210 H200 0.930 . S
C210 C209 1.400 . S
C210 C213 1.386 . S
H211 C227 0.930 . S
H212 C228 0.931 . S
C213 H201 0.929 . S
C213 C207 1.390 . S
C213 C210 1.386 . S
C214 C209 1.490 . S
C214 C216 1.395 . S
C214 C217 1.403 . S
H215 C221 0.930 . S
C216 H202 0.930 . S
C216 C214 1.395 . S
C216 C219 1.403 . S
C217 C214 1.403 . S
C217 C218 1.524 . S
C217 C221 1.400 . S
C218 H203 0.960 . S
C218 H204 0.960 . S
C218 H205 0.960 . S
C218 C217 1.524 . S
C219 C216 1.403 . S
C219 C220 1.392 . S
C219 C223 1.495 . S
C220 C219 1.392 . S
C220 C221 1.385 . S
C220 C222 1.478 . S
C221 H215 0.930 . S
C221 C217 1.400 . S
C221 C220 1.385 . S
C222 C220 1.478 . S
C222 C224 1.381 . S
C222 C228 1.383 . S
C223 C219 1.495 . S
C223 H229 0.959 . S
C223 H230 0.961 . S
C223 H231 0.960 . S
C224 C222 1.381 . S
C224 C225 1.394 . S
C224 H232 0.930 . S
C225 C224 1.394 . S
C225 C226 1.383 . S
C225 H233 0.929 . S
C226 C225 1.383 . S
C226 C227 1.377 . S
C227 H211 0.930 . S
C227 C226 1.377 . S
C227 C228 1.379 . S
C228 H212 0.931 . S
C228 C222 1.383 . S
C228 C227 1.379 . S
H229 C223 0.959 . S
H230 C223 0.961 . S
H231 C223 0.960 . S
H232 C224 0.930 . S
H233 C225 0.929 . S
H234 C242 0.929 . S
H235 C244 0.930 . S
H236 C246 0.930 . S
H237 C249 0.929 . S
H238 C252 0.930 . S
H239 C254 0.960 . S
H240 C254 0.960 . S
H241 C254 0.960 . S
C242 H234 0.929 . S
C242 C243 1.377 . S
C242 C244 1.384 . S
C243 C242 1.377 . S
C243 C249 1.390 . S
C244 H235 0.930 . S
C244 C242 1.384 . S
C244 C245 1.372 . S
C245 C244 1.372 . S
C245 C246 1.400 . S
C245 C250 1.490 . S
C246 H236 0.930 . S
C246 C245 1.400 . S
C246 C249 1.386 . S
H247 C263 0.930 . S
H248 C264 0.931 . S
C249 H237 0.929 . S
C249 C243 1.390 . S
C249 C246 1.386 . S
C250 C245 1.490 . S
C250 C252 1.395 . S
C250 C253 1.403 . S
H251 C257 0.930 . S
C252 H238 0.930 . S
C252 C250 1.395 . S
C252 C255 1.403 . S
C253 C250 1.403 . S
C253 C254 1.524 . S
C253 C257 1.400 . S
C254 H239 0.960 . S
C254 H240 0.960 . S
C254 H241 0.960 . S
C254 C253 1.524 . S
C255 C252 1.403 . S
C255 C256 1.392 . S
C255 C259 1.495 . S
C256 C255 1.392 . S
C256 C257 1.385 . S
C256 C258 1.478 . S
C257 H251 0.930 . S
C257 C253 1.400 . S
C257 C256 1.385 . S
C258 C256 1.478 . S
C258 C260 1.381 . S
C258 C264 1.383 . S
C259 C255 1.495 . S
C259 H265 0.959 . S
C259 H266 0.961 . S
C259 H267 0.960 . S
C260 C258 1.381 . S
C260 C261 1.394 . S
C260 H268 0.930 . S
C261 C260 1.394 . S
C261 C262 1.383 . S
C261 H269 0.929 . S
C262 C261 1.383 . S
C262 C263 1.377 . S
C263 H247 0.930 . S
C263 C262 1.377 . S
C263 C264 1.379 . S
C264 H248 0.931 . S
C264 C258 1.383 . S
C264 C263 1.379 . S
H265 C259 0.959 . S
H266 C259 0.961 . S
H267 C259 0.960 . S
H268 C260 0.930 . S
H269 C261 0.929 . S
H270 C278 0.929 . S
H271 C280 0.930 . S
H272 C282 0.930 . S
H273 C285 0.929 . S
H274 C288 0.930 . S
H275 C290 0.960 . S
H276 C290 0.960 . S
H277 C290 0.960 . S
C278 H270 0.929 . S
C278 C279 1.377 . S
C278 C280 1.384 . S
C279 C278 1.377 . S
C279 C285 1.390 . S
C280 H271 0.930 . S
C280 C278 1.384 . S
C280 C281 1.372 . S
C281 C280 1.372 . S
C281 C282 1.400 . S
C281 C286 1.490 . S
C282 H272 0.930 . S
C282 C281 1.400 . S
C282 C285 1.386 . S
H283 C299 0.930 . S
H284 C300 0.931 . S
C285 H273 0.929 . S
C285 C279 1.390 . S
C285 C282 1.386 . S
C286 C281 1.490 . S
C286 C288 1.395 . S
C286 C289 1.403 . S
H287 C293 0.930 . S
C288 H274 0.930 . S
C288 C286 1.395 . S
C288 C291 1.403 . S
C289 C286 1.403 . S
C289 C290 1.524 . S
C289 C293 1.400 . S
C290 H275 0.960 . S
C290 H276 0.960 . S
C290 H277 0.960 . S
C290 C289 1.524 . S
C291 C288 1.403 . S
C291 C292 1.392 . S
C291 C295 1.495 . S
C292 C291 1.392 . S
C292 C293 1.385 . S
C292 C294 1.478 . S
C293 H287 0.930 . S
C293 C289 1.400 . S
C293 C292 1.385 . S
C294 C292 1.478 . S
C294 C296 1.381 . S
C294 C300 1.383 . S
C295 C291 1.495 . S
C295 H301 0.959 . S
C295 H302 0.961 . S
C295 H303 0.960 . S
C296 C294 1.381 . S
C296 C297 1.394 . S
C296 H304 0.930 . S
C297 C296 1.394 . S
C297 C298 1.383 . S
C297 H305 0.929 . S
C298 C297 1.383 . S
C298 C299 1.377 . S
C299 H283 0.930 . S
C299 C298 1.377 . S
C299 C300 1.379 . S
C300 H284 0.931 . S
C300 C294 1.383 . S
C300 C299 1.379 . S
H301 C295 0.959 . S
H302 C295 0.961 . S
H303 C295 0.960 . S
H304 C296 0.930 . S
H305 C297 0.929 . S
H306 C314 0.929 . S
H307 C316 0.930 . S
H308 C318 0.930 . S
H309 C321 0.929 . S
H310 C324 0.930 . S
H311 C326 0.960 . S
H312 C326 0.960 . S
H313 C326 0.960 . S
C314 H306 0.929 . S
C314 C315 1.377 . S
C314 C316 1.384 . S
C315 C314 1.377 . S
C315 C321 1.390 . S
C316 H307 0.930 . S
C316 C314 1.384 . S
C316 C317 1.372 . S
C317 C316 1.372 . S
C317 C318 1.400 . S
C317 C322 1.490 . S
C318 H308 0.930 . S
C318 C317 1.400 . S
C318 C321 1.386 . S
H319 C335 0.930 . S
H320 C336 0.931 . S
C321 H309 0.929 . S
C321 C315 1.390 . S
C321 C318 1.386 . S
C322 C317 1.490 . S
C322 C324 1.395 . S
C322 C325 1.403 . S
H323 C329 0.930 . S
C324 H310 0.930 . S
C324 C322 1.395 . S
C324 C327 1.403 . S
C325 C322 1.403 . S
C325 C326 1.524 . S
C325 C329 1.400 . S
C326 H311 0.960 . S
C326 H312 0.960 . S
C326 H313 0.960 . S
C326 C325 1.524 . S
C327 C324 1.403 . S
C327 C328 1.392 . S
C327 C331 1.495 . S
C328 C327 1.392 . S
C328 C329 1.385 . S
C328 C330 1.478 . S
C329 H323 0.930 . S
C329 C325 1.400 . S
C329 C328 1.385 . S
C330 C328 1.478 . S
C330 C332 1.381 . S
C330 C336 1.383 . S
C331 C327 1.495 . S
C331 H337 0.959 . S
C331 H338 0.961 . S
C331 H339 0.960 . S
C332 C330 1.381 . S
C332 C333 1.394 . S
C332 H340 0.930 . S
C333 C332 1.394 . S
C333 C334 1.383 . S
C333 H341 0.929 . S
C334 C333 1.383 . S
C334 C335 1.377 . S
C335 H319 0.930 . S
C335 C334 1.377 . S
C335 C336 1.379 . S
C336 H320 0.931 . S
C336 C330 1.383 . S
C336 C335 1.379 . S
H337 C331 0.959 . S
H338 C331 0.961 . S
H339 C331 0.960 . S
H340 C332 0.930 . S
H341 C333 0.929 . S
H342 C350 0.929 . S
H343 C352 0.930 . S
H344 C354 0.930 . S
H345 C357 0.929 . S
H346 C360 0.930 . S
H347 C362 0.960 . S
H348 C362 0.960 . S
H349 C362 0.960 . S
C350 H342 0.929 . S
C350 C351 1.377 . S
C350 C352 1.384 . S
C351 C350 1.377 . S
C351 C357 1.390 . S
C352 H343 0.930 . S
C352 C350 1.384 . S
C352 C353 1.372 . S
C353 C352 1.372 . S
C353 C354 1.400 . S
C353 C358 1.490 . S
C354 H344 0.930 . S
C354 C353 1.400 . S
C354 C357 1.386 . S
H355 C371 0.930 . S
H356 C372 0.931 . S
C357 H345 0.929 . S
C357 C351 1.390 . S
C357 C354 1.386 . S
C358 C353 1.490 . S
C358 C360 1.395 . S
C358 C361 1.403 . S
H359 C365 0.930 . S
C360 H346 0.930 . S
C360 C358 1.395 . S
C360 C363 1.403 . S
C361 C358 1.403 . S
C361 C362 1.524 . S
C361 C365 1.400 . S
C362 H347 0.960 . S
C362 H348 0.960 . S
C362 H349 0.960 . S
C362 C361 1.524 . S
C363 C360 1.403 . S
C363 C364 1.392 . S
C363 C367 1.495 . S
C364 C363 1.392 . S
C364 C365 1.385 . S
C364 C366 1.478 . S
C365 H359 0.930 . S
C365 C361 1.400 . S
C365 C364 1.385 . S
C366 C364 1.478 . S
C366 C368 1.381 . S
C366 C372 1.383 . S
C367 C363 1.495 . S
C367 H373 0.959 . S
C367 H374 0.961 . S
C367 H375 0.960 . S
C368 C366 1.381 . S
C368 C369 1.394 . S
C368 H376 0.930 . S
C369 C368 1.394 . S
C369 C370 1.383 . S
C369 H377 0.929 . S
C370 C369 1.383 . S
C370 C371 1.377 . S
C371 H355 0.930 . S
C371 C370 1.377 . S
C371 C372 1.379 . S
C372 H356 0.931 . S
C372 C366 1.383 . S
C372 C371 1.379 . S
H373 C367 0.959 . S
H374 C367 0.961 . S
H375 C367 0.960 . S
H376 C368 0.930 . S
H377 C369 0.929 . S
H378 C386 0.929 . S
H379 C388 0.930 . S
H380 C390 0.930 . S
H381 C393 0.929 . S
H382 C396 0.930 . S
H383 C398 0.960 . S
H384 C398 0.960 . S
H385 C398 0.960 . S
C386 H378 0.929 . S
C386 C387 1.377 . S
C386 C388 1.384 . S
C387 C386 1.377 . S
C387 C393 1.390 . S
C388 H379 0.930 . S
C388 C386 1.384 . S
C388 C389 1.372 . S
C389 C388 1.372 . S
C389 C390 1.400 . S
C389 C394 1.490 . S
C390 H380 0.930 . S
C390 C389 1.400 . S
C390 C393 1.386 . S
H391 C407 0.930 . S
H392 C408 0.931 . S
C393 H381 0.929 . S
C393 C387 1.390 . S
C393 C390 1.386 . S
C394 C389 1.490 . S
C394 C396 1.395 . S
C394 C397 1.403 . S
H395 C401 0.930 . S
C396 H382 0.930 . S
C396 C394 1.395 . S
C396 C399 1.403 . S
C397 C394 1.403 . S
C397 C398 1.524 . S
C397 C401 1.400 . S
C398 H383 0.960 . S
C398 H384 0.960 . S
C398 H385 0.960 . S
C398 C397 1.524 . S
C399 C396 1.403 . S
C399 C400 1.392 . S
C399 C403 1.495 . S
C400 C399 1.392 . S
C400 C401 1.385 . S
C400 C402 1.478 . S
C401 H395 0.930 . S
C401 C397 1.400 . S
C401 C400 1.385 . S
C402 C400 1.478 . S
C402 C404 1.381 . S
C402 C408 1.383 . S
C403 C399 1.495 . S
C403 H409 0.959 . S
C403 H410 0.961 . S
C403 H411 0.960 . S
C404 C402 1.381 . S
C404 C405 1.394 . S
C404 H412 0.930 . S
C405 C404 1.394 . S
C405 C406 1.383 . S
C405 H413 0.929 . S
C406 C405 1.383 . S
C406 C407 1.377 . S
C407 H391 0.930 . S
C407 C406 1.377 . S
C407 C408 1.379 . S
C408 H392 0.931 . S
C408 C402 1.383 . S
C408 C407 1.379 . S
H409 C403 0.959 . S
H410 C403 0.961 . S
H411 C403 0.960 . S
H412 C404 0.930 . S
H413 C405 0.929 . S
H414 C422 0.929 . S
H415 C424 0.930 . S
H416 C426 0.930 . S
H417 C429 0.929 . S
H418 C432 0.930 . S
H419 C434 0.960 . S
H420 C434 0.960 . S
H421 C434 0.960 . S
C422 H414 0.929 . S
C422 C423 1.377 . S
C422 C424 1.384 . S
C423 C422 1.377 . S
C423 C429 1.390 . S
C424 H415 0.930 . S
C424 C422 1.384 . S
C424 C425 1.372 . S
C425 C424 1.372 . S
C425 C426 1.400 . S
C425 C430 1.490 . S
C426 H416 0.930 . S
C426 C425 1.400 . S
C426 C429 1.386 . S
H427 C443 0.930 . S
H428 C444 0.931 . S
C429 H417 0.929 . S
C429 C423 1.390 . S
C429 C426 1.386 . S
C430 C425 1.490 . S
C430 C432 1.395 . S
C430 C433 1.403 . S
H431 C437 0.930 . S
C432 H418 0.930 . S
C432 C430 1.395 . S
C432 C435 1.403 . S
C433 C430 1.403 . S
C433 C434 1.524 . S
C433 C437 1.400 . S
C434 H419 0.960 . S
C434 H420 0.960 . S
C434 H421 0.960 . S
C434 C433 1.524 . S
C435 C432 1.403 . S
C435 C436 1.392 . S
C435 C439 1.495 . S
C436 C435 1.392 . S
C436 C437 1.385 . S
C436 C438 1.478 . S
C437 H431 0.930 . S
C437 C433 1.400 . S
C437 C436 1.385 . S
C438 C436 1.478 . S
C438 C440 1.381 1_545 S
C438 C444 1.383 . S
C439 C435 1.495 . S
C439 H445 0.959 . S
C439 H446 0.961 . S
C439 H447 0.960 . S
C440 C438 1.381 1_565 S
C440 C441 1.394 . S
C440 H448 0.930 . S
C441 C440 1.394 . S
C441 C442 1.383 . S
C441 H449 0.929 . S
C442 C441 1.383 . S
C442 C443 1.377 . S
C443 H427 0.930 . S
C443 C442 1.377 . S
C443 C444 1.379 1_565 S
C444 H428 0.931 . S
C444 C438 1.383 . S
C444 C443 1.379 1_545 S
H445 C439 0.959 . S
H446 C439 0.961 . S
H447 C439 0.960 . S
H448 C440 0.930 . S
H449 C441 0.929 . S
H450 C458 0.929 . S
H451 C460 0.930 . S
H452 C462 0.930 . S
H453 C465 0.929 . S
H454 C468 0.930 . S
H455 C470 0.960 . S
H456 C470 0.960 1_655 S
H457 C470 0.960 . S
C458 H450 0.929 . S
C458 C459 1.377 . S
C458 C460 1.384 . S
C459 C458 1.377 . S
C459 C465 1.390 . S
C460 H451 0.930 . S
C460 C458 1.384 . S
C460 C461 1.372 . S
C461 C460 1.372 . S
C461 C462 1.400 . S
C461 C466 1.490 1_655 S
C462 H452 0.930 . S
C462 C461 1.400 . S
C462 C465 1.386 . S
H463 C479 0.930 . S
H464 C480 0.931 . S
C465 H453 0.929 . S
C465 C459 1.390 . S
C465 C462 1.386 . S
C466 C461 1.490 1_455 S
C466 C468 1.395 . S
C466 C469 1.403 . S
H467 C473 0.930 . S
C468 H454 0.930 . S
C468 C466 1.395 . S
C468 C471 1.403 . S
C469 C466 1.403 . S
C469 C470 1.524 . S
C469 C473 1.400 . S
C470 H455 0.960 . S
C470 H456 0.960 1_455 S
C470 H457 0.960 . S
C470 C469 1.524 . S
C471 C468 1.403 . S
C471 C472 1.392 . S
C471 C475 1.495 . S
C472 C471 1.392 . S
C472 C473 1.385 . S
C472 C474 1.478 . S
C473 H467 0.930 . S
C473 C469 1.400 . S
C473 C472 1.385 . S
C474 C472 1.478 . S
C474 C476 1.381 . S
C474 C480 1.383 . S
C475 C471 1.495 . S
C475 H481 0.959 . S
C475 H482 0.961 . S
C475 H483 0.960 . S
C476 C474 1.381 . S
C476 C477 1.394 . S
C476 H484 0.930 . S
C477 C476 1.394 . S
C477 C478 1.383 . S
C477 H485 0.929 . S
C478 C477 1.383 . S
C478 C479 1.377 . S
C479 H463 0.930 . S
C479 C478 1.377 . S
C479 C480 1.379 . S
C480 H464 0.931 . S
C480 C474 1.383 . S
C480 C479 1.379 . S
H481 C475 0.959 . S
H482 C475 0.961 . S
H483 C475 0.960 . S
H484 C476 0.930 . S
H485 C477 0.929 . S
H486 C494 0.929 . S
H487 C496 0.930 . S
H488 C498 0.930 . S
H489 C501 0.929 . S
H490 C504 0.930 . S
H491 C506 0.960 . S
H492 C506 0.960 . S
H493 C506 0.960 . S
C494 H486 0.929 . S
C494 C495 1.377 . S
C494 C496 1.384 1_455 S
C495 C494 1.377 . S
C495 C501 1.390 . S
C496 H487 0.930 . S
C496 C494 1.384 1_655 S
C496 C497 1.372 . S
C497 C496 1.372 . S
C497 C498 1.400 1_655 S
C497 C502 1.490 . S
C498 H488 0.930 . S
C498 C497 1.400 1_455 S
C498 C501 1.386 . S
H499 C515 0.930 . S
H500 C516 0.931 . S
C501 H489 0.929 . S
C501 C495 1.390 . S
C501 C498 1.386 . S
C502 C497 1.490 . S
C502 C504 1.395 . S
C502 C505 1.403 . S
H503 C509 0.930 . S
C504 H490 0.930 . S
C504 C502 1.395 . S
C504 C507 1.403 . S
C505 C502 1.403 . S
C505 C506 1.524 . S
C505 C509 1.400 . S
C506 H491 0.960 . S
C506 H492 0.960 . S
C506 H493 0.960 . S
C506 C505 1.524 . S
C507 C504 1.403 . S
C507 C508 1.392 . S
C507 C511 1.495 . S
C508 C507 1.392 . S
C508 C509 1.385 . S
C508 C510 1.478 1_545 S
C509 H503 0.930 . S
C509 C505 1.400 . S
C509 C508 1.385 . S
C510 C508 1.478 1_565 S
C510 C512 1.381 . S
C510 C516 1.383 . S
C511 C507 1.495 . S
C511 H517 0.959 . S
C511 H518 0.961 . S
C511 H519 0.960 . S
C512 C510 1.381 . S
C512 C513 1.394 . S
C512 H520 0.930 . S
C513 C512 1.394 . S
C513 C514 1.383 . S
C513 H521 0.929 . S
C514 C513 1.383 . S
C514 C515 1.377 . S
C515 H499 0.930 . S
C515 C514 1.377 . S
C515 C516 1.379 . S
C516 H500 0.931 . S
C516 C510 1.383 . S
C516 C515 1.379 . S
H517 C511 0.959 . S
H518 C511 0.961 . S
H519 C511 0.960 . S
H520 C512 0.930 . S
H521 C513 0.929 . S
H522 C530 0.929 . S
H523 C532 0.930 . S
H524 C534 0.930 . S
H525 C537 0.929 . S
H526 C540 0.930 . S
H527 C542 0.960 . S
H528 C542 0.960 . S
H529 C542 0.960 . S
C530 H522 0.929 . S
C530 C531 1.377 . S
C530 C532 1.384 1_545 S
C531 C530 1.377 . S
C531 C537 1.390 . S
C532 H523 0.930 . S
C532 C530 1.384 1_565 S
C532 C533 1.372 . S
C533 C532 1.372 . S
C533 C534 1.400 1_565 S
C533 C538 1.490 . S
C534 H524 0.930 . S
C534 C533 1.400 1_545 S
C534 C537 1.386 . S
H535 C551 0.930 . S
H536 C552 0.931 . S
C537 H525 0.929 . S
C537 C531 1.390 . S
C537 C534 1.386 . S
C538 C533 1.490 . S
C538 C540 1.395 . S
C538 C541 1.403 . S
H539 C545 0.930 . S
C540 H526 0.930 . S
C540 C538 1.395 . S
C540 C543 1.403 . S
C541 C538 1.403 . S
C541 C542 1.524 . S
C541 C545 1.400 . S
C542 H527 0.960 . S
C542 H528 0.960 . S
C542 H529 0.960 . S
C542 C541 1.524 . S
C543 C540 1.403 . S
C543 C544 1.392 . S
C543 C547 1.495 . S
C544 C543 1.392 . S
C544 C545 1.385 . S
C544 C546 1.478 . S
C545 H539 0.930 . S
C545 C541 1.400 . S
C545 C544 1.385 . S
C546 C544 1.478 . S
C546 C548 1.381 . S
C546 C552 1.383 . S
C547 C543 1.495 . S
C547 H553 0.959 . S
C547 H554 0.961 . S
C547 H555 0.960 . S
C548 C546 1.381 . S
C548 C549 1.394 . S
C548 H556 0.930 . S
C549 C548 1.394 . S
C549 C550 1.383 . S
C549 H557 0.929 . S
C550 C549 1.383 . S
C550 C551 1.377 . S
C551 H535 0.930 . S
C551 C550 1.377 . S
C551 C552 1.379 . S
C552 H536 0.931 . S
C552 C546 1.383 . S
C552 C551 1.379 . S
H553 C547 0.959 . S
H554 C547 0.961 . S
H555 C547 0.960 . S
H556 C548 0.930 . S
H557 C549 0.929 . S
H558 C566 0.929 . S
H559 C568 0.930 . S
H560 C570 0.930 . S
H561 C573 0.929 . S
H562 C576 0.930 . S
H563 C578 0.960 . S
H564 C578 0.960 . S
H565 C578 0.960 . S
C566 H558 0.929 . S
C566 C567 1.377 . S
C566 C568 1.384 . S
C567 C566 1.377 . S
C567 C573 1.390 . S
C568 H559 0.930 . S
C568 C566 1.384 . S
C568 C569 1.372 . S
C569 C568 1.372 . S
C569 C570 1.400 . S
C569 C574 1.490 . S
C570 H560 0.930 . S
C570 C569 1.400 . S
C570 C573 1.386 . S
H571 C587 0.930 . S
H572 C588 0.931 . S
C573 H561 0.929 . S
C573 C567 1.390 . S
C573 C570 1.386 . S
C574 C569 1.490 . S
C574 C576 1.395 . S
C574 C577 1.403 . S
H575 C581 0.930 . S
C576 H562 0.930 . S
C576 C574 1.395 . S
C576 C579 1.403 . S
C577 C574 1.403 . S
C577 C578 1.524 . S
C577 C581 1.400 . S
C578 H563 0.960 . S
C578 H564 0.960 . S
C578 H565 0.960 . S
C578 C577 1.524 . S
C579 C576 1.403 . S
C579 C580 1.392 . S
C579 C583 1.495 1_655 S
C580 C579 1.392 . S
C580 C581 1.385 . S
C580 C582 1.478 1_655 S
C581 H575 0.930 . S
C581 C577 1.400 . S
C581 C580 1.385 . S
C582 C580 1.478 1_455 S
C582 C584 1.381 . S
C582 C588 1.383 . S
C583 C579 1.495 1_455 S
C583 H589 0.959 . S
C583 H590 0.961 . S
C583 H591 0.960 . S
C584 C582 1.381 . S
C584 C585 1.394 . S
C584 H592 0.930 . S
C585 C584 1.394 . S
C585 C586 1.383 . S
C585 H593 0.929 . S
C586 C585 1.383 . S
C586 C587 1.377 . S
C587 H571 0.930 . S
C587 C586 1.377 . S
C587 C588 1.379 . S
C588 H572 0.931 . S
C588 C582 1.383 . S
C588 C587 1.379 . S
H589 C583 0.959 . S
H590 C583 0.961 . S
H591 C583 0.960 . S
H592 C584 0.930 . S
H593 C585 0.929 . S
H594 C602 0.929 . S
H595 C604 0.930 . S
H596 C606 0.930 . S
H597 C609 0.929 . S
H598 C612 0.930 . S
H599 C614 0.960 1_565 S
H600 C614 0.960 . S
H601 C614 0.960 . S
C602 H594 0.929 . S
C602 C603 1.377 . S
C602 C604 1.384 . S
C603 C602 1.377 . S
C603 C609 1.390 . S
C604 H595 0.930 . S
C604 C602 1.384 . S
C604 C605 1.372 . S
C605 C604 1.372 . S
C605 C606 1.400 . S
C605 C610 1.490 1_545 S
C606 H596 0.930 . S
C606 C605 1.400 . S
C606 C609 1.386 . S
H607 C623 0.930 . S
H608 C624 0.931 . S
C609 H597 0.929 . S
C609 C603 1.390 . S
C609 C606 1.386 . S
C610 C605 1.490 1_565 S
C610 C612 1.395 . S
C610 C613 1.403 . S
H611 C617 0.930 . S
C612 H598 0.930 . S
C612 C610 1.395 . S
C612 C615 1.403 . S
C613 C610 1.403 . S
C613 C614 1.524 1_565 S
C613 C617 1.400 . S
C614 H599 0.960 1_545 S
C614 H600 0.960 . S
C614 H601 0.960 . S
C614 C613 1.524 1_545 S
C615 C612 1.403 . S
C615 C616 1.392 . S
C615 C619 1.495 . S
C616 C615 1.392 . S
C616 C617 1.385 . S
C616 C618 1.478 . S
C617 H611 0.930 . S
C617 C613 1.400 . S
C617 C616 1.385 . S
C618 C616 1.478 . S
C618 C620 1.381 . S
C618 C624 1.383 . S
C619 C615 1.495 . S
C619 H625 0.959 . S
C619 H626 0.961 . S
C619 H627 0.960 . S
C620 C618 1.381 . S
C620 C621 1.394 1_455 S
C620 H628 0.930 . S
C621 C620 1.394 1_655 S
C621 C622 1.383 . S
C621 H629 0.929 . S
C622 C621 1.383 . S
C622 C623 1.377 . S
C623 H607 0.930 . S
C623 C622 1.377 . S
C623 C624 1.379 1_655 S
C624 H608 0.931 . S
C624 C618 1.383 . S
C624 C623 1.379 1_455 S
H625 C619 0.959 . S
H626 C619 0.961 . S
H627 C619 0.960 . S
H628 C620 0.930 . S
H629 C621 0.929 . S
H630 C638 0.929 . S
H631 C640 0.930 . S
H632 C642 0.930 . S
H633 C645 0.929 . S
H634 C648 0.930 . S
H635 C650 0.960 . S
H636 C650 0.960 . S
H637 C650 0.960 . S
C638 H630 0.929 . S
C638 C639 1.377 . S
C638 C640 1.384 . S
C639 C638 1.377 . S
C639 C645 1.390 . S
C640 H631 0.930 . S
C640 C638 1.384 . S
C640 C641 1.372 . S
C641 C640 1.372 . S
C641 C642 1.400 . S
C641 C646 1.490 . S
C642 H632 0.930 . S
C642 C641 1.400 . S
C642 C645 1.386 . S
H643 C659 0.930 . S
H644 C660 0.931 . S
C645 H633 0.929 . S
C645 C639 1.390 . S
C645 C642 1.386 . S
C646 C641 1.490 . S
C646 C648 1.395 . S
C646 C649 1.403 . S
H647 C653 0.930 . S
C648 H634 0.930 . S
C648 C646 1.395 . S
C648 C651 1.403 1_554 S
C649 C646 1.403 . S
C649 C650 1.524 . S
C649 C653 1.400 1_554 S
C650 H635 0.960 . S
C650 H636 0.960 . S
C650 H637 0.960 . S
C650 C649 1.524 . S
C651 C648 1.403 1_556 S
C651 C652 1.392 . S
C651 C655 1.495 . S
C652 C651 1.392 . S
C652 C653 1.385 . S
C652 C654 1.478 . S
C653 H647 0.930 . S
C653 C649 1.400 1_556 S
C653 C652 1.385 . S
C654 C652 1.478 . S
C654 C656 1.381 . S
C654 C660 1.383 . S
C655 C651 1.495 . S
C655 H661 0.959 . S
C655 H662 0.961 . S
C655 H663 0.960 . S
C656 C654 1.381 . S
C656 C657 1.394 . S
C656 H664 0.930 . S
C657 C656 1.394 . S
C657 C658 1.383 . S
C657 H665 0.929 . S
C658 C657 1.383 . S
C658 C659 1.377 . S
C659 H643 0.930 . S
C659 C658 1.377 . S
C659 C660 1.379 . S
C660 H644 0.931 . S
C660 C654 1.383 . S
C660 C659 1.379 . S
H661 C655 0.959 . S
H662 C655 0.961 . S
H663 C655 0.960 . S
H664 C656 0.930 . S
H665 C657 0.929 . S
H666 C674 0.929 . S
H667 C676 0.930 . S
H668 C678 0.930 . S
H669 C681 0.929 . S
H670 C684 0.930 . S
H671 C686 0.960 . S
H672 C686 0.960 1_655 S
H673 C686 0.960 . S
C674 H666 0.929 . S
C674 C675 1.377 . S
C674 C676 1.384 . S
C675 C674 1.377 . S
C675 C681 1.390 . S
C676 H667 0.930 . S
C676 C674 1.384 . S
C676 C677 1.372 . S
C677 C676 1.372 . S
C677 C678 1.400 . S
C677 C682 1.490 . S
C678 H668 0.930 . S
C678 C677 1.400 . S
C678 C681 1.386 . S
H679 C695 0.930 . S
H680 C696 0.931 . S
C681 H669 0.929 . S
C681 C675 1.390 . S
C681 C678 1.386 . S
C682 C677 1.490 . S
C682 C684 1.395 . S
C682 C685 1.403 . S
H683 C689 0.930 . S
C684 H670 0.930 . S
C684 C682 1.395 . S
C684 C687 1.403 . S
C685 C682 1.403 . S
C685 C686 1.524 1_655 S
C685 C689 1.400 1_655 S
C686 H671 0.960 . S
C686 H672 0.960 1_455 S
C686 H673 0.960 . S
C686 C685 1.524 1_455 S
C687 C684 1.403 . S
C687 C688 1.392 1_655 S
C687 C691 1.495 . S
C688 C687 1.392 1_455 S
C688 C689 1.385 . S
C688 C690 1.478 . S
C689 H683 0.930 . S
C689 C685 1.400 1_455 S
C689 C688 1.385 . S
C690 C688 1.478 . S
C690 C692 1.381 . S
C690 C696 1.383 . S
C691 C687 1.495 . S
C691 H697 0.959 . S
C691 H698 0.961 . S
C691 H699 0.960 . S
C692 C690 1.381 . S
C692 C693 1.394 . S
C692 H700 0.930 . S
C693 C692 1.394 . S
C693 C694 1.383 . S
C693 H701 0.929 . S
C694 C693 1.383 . S
C694 C695 1.377 . S
C695 H679 0.930 . S
C695 C694 1.377 . S
C695 C696 1.379 . S
C696 H680 0.931 . S
C696 C690 1.383 . S
C696 C695 1.379 . S
H697 C691 0.959 . S
H698 C691 0.961 . S
H699 C691 0.960 . S
H700 C692 0.930 . S
H701 C693 0.929 . S
H702 C710 0.929 . S
H703 C712 0.930 . S
H704 C714 0.930 . S
H705 C717 0.929 . S
H706 C720 0.930 . S
H707 C722 0.960 . S
H708 C722 0.960 1_565 S
H709 C722 0.960 . S
C710 H702 0.929 . S
C710 C711 1.377 . S
C710 C712 1.384 . S
C711 C710 1.377 . S
C711 C717 1.390 . S
C712 H703 0.930 . S
C712 C710 1.384 . S
C712 C713 1.372 . S
C713 C712 1.372 . S
C713 C714 1.400 . S
C713 C718 1.490 . S
C714 H704 0.930 . S
C714 C713 1.400 . S
C714 C717 1.386 . S
H715 C731 0.930 . S
H716 C732 0.931 . S
C717 H705 0.929 . S
C717 C711 1.390 . S
C717 C714 1.386 . S
C718 C713 1.490 . S
C718 C720 1.395 1_554 S
C718 C721 1.403 . S
H719 C725 0.930 . S
C720 H706 0.930 . S
C720 C718 1.395 1_556 S
C720 C723 1.403 . S
C721 C718 1.403 . S
C721 C722 1.524 1_565 S
C721 C725 1.400 1_565 S
C722 H707 0.960 . S
C722 H708 0.960 1_545 S
C722 H709 0.960 . S
C722 C721 1.524 1_545 S
C723 C720 1.403 . S
C723 C724 1.388 1_565 S
C723 C727 1.495 . S
C724 C723 1.388 1_545 S
C724 C725 1.386 1_556 S
C724 C726 1.481 . S
C725 H719 0.930 . S
C725 C721 1.400 1_545 S
C725 C724 1.386 1_554 S
C726 C724 1.481 . S
C726 C728 1.381 . S
C726 C732 1.383 . S
C727 C723 1.495 . S
C727 H733 0.959 . S
C727 H734 0.961 . S
C727 H735 0.960 . S
C728 C726 1.381 . S
C728 C729 1.394 . S
C728 H736 0.930 . S
C729 C728 1.394 . S
C729 C730 1.383 . S
C729 H737 0.929 . S
C730 C729 1.383 . S
C730 C731 1.377 . S
C731 H715 0.930 . S
C731 C730 1.377 . S
C731 C732 1.379 . S
C732 H716 0.931 . S
C732 C726 1.383 . S
C732 C731 1.379 . S
H733 C727 0.959 . S
H734 C727 0.961 . S
H735 C727 0.960 . S
H736 C728 0.930 . S
H737 C729 0.929 . S
H738 C746 0.929 . S
H739 C748 0.930 . S
H740 C750 0.930 . S
H741 C753 0.929 . S
H742 C756 0.930 . S
H743 C758 0.960 . S
H744 C758 0.960 . S
H745 C758 0.960 . S
C746 H738 0.929 . S
C746 C747 1.377 . S
C746 C748 1.384 . S
C747 C746 1.377 . S
C747 C753 1.390 . S
C748 H739 0.930 . S
C748 C746 1.384 . S
C748 C749 1.372 . S
C749 C748 1.372 . S
C749 C750 1.400 . S
C749 C754 1.490 . S
C750 H740 0.930 . S
C750 C749 1.400 . S
C750 C753 1.386 . S
H751 C767 0.930 . S
H752 C768 0.931 . S
C753 H741 0.929 . S
C753 C747 1.390 . S
C753 C750 1.386 . S
C754 C749 1.490 . S
C754 C756 1.395 . S
C754 C757 1.403 . S
H755 C761 0.930 . S
C756 H742 0.930 . S
C756 C754 1.395 . S
C756 C759 1.403 . S
C757 C754 1.403 . S
C757 C758 1.524 . S
C757 C761 1.400 . S
C758 H743 0.960 . S
C758 H744 0.960 . S
C758 H745 0.960 . S
C758 C757 1.524 . S
C759 C756 1.403 . S
C759 C760 1.392 . S
C759 C763 1.495 . S
C760 C759 1.392 . S
C760 C761 1.385 . S
C760 C762 1.478 . S
C761 H755 0.930 . S
C761 C757 1.400 . S
C761 C760 1.385 . S
C762 C760 1.478 . S
C762 C764 1.381 . S
C762 C768 1.383 . S
C763 C759 1.495 . S
C763 H769 0.959 . S
C763 H770 0.961 . S
C763 H771 0.960 . S
C764 C762 1.381 . S
C764 C765 1.394 . S
C764 H772 0.930 . S
C765 C764 1.394 . S
C765 C766 1.383 . S
C765 H773 0.929 . S
C766 C765 1.383 . S
C766 C767 1.377 . S
C767 H751 0.930 . S
C767 C766 1.377 . S
C767 C768 1.379 . S
C768 H752 0.931 . S
C768 C762 1.383 . S
C768 C767 1.379 . S
H769 C763 0.959 . S
H770 C763 0.961 . S
H771 C763 0.960 . S
H772 C764 0.930 . S
H773 C765 0.929 . S
H774 C782 0.929 . S
H775 C784 0.930 . S
H776 C786 0.930 1_455 S
H777 C789 0.929 . S
H778 C792 0.930 . S
H779 C794 0.960 . S
H780 C794 0.960 . S
H781 C794 0.960 . S
C782 H774 0.929 . S
C782 C783 1.377 . S
C782 C784 1.384 . S
C783 C782 1.377 . S
C783 C789 1.390 . S
C784 H775 0.930 . S
C784 C782 1.384 . S
C784 C785 1.372 . S
C785 C784 1.372 . S
C785 C786 1.400 . S
C785 C790 1.490 . S
C786 H776 0.930 1_655 S
C786 C785 1.400 . S
C786 C789 1.386 . S
H787 C803 0.930 . S
H788 C804 0.931 . S
C789 H777 0.929 . S
C789 C783 1.390 . S
C789 C786 1.386 . S
C790 C785 1.490 . S
C790 C792 1.395 1_556 S
C790 C793 1.403 1_655 S
H791 C797 0.930 . S
C792 H778 0.930 . S
C792 C790 1.395 1_554 S
C792 C795 1.403 1_655 S
C793 C790 1.403 1_455 S
C793 C794 1.524 . S
C793 C797 1.400 1_556 S
C794 H779 0.960 . S
C794 H780 0.960 . S
C794 H781 0.960 . S
C794 C793 1.524 . S
C795 C792 1.403 1_455 S
C795 C796 1.392 . S
C795 C799 1.495 1_455 S
C796 C795 1.392 . S
C796 C797 1.385 . S
C796 C798 1.478 . S
C797 H791 0.930 . S
C797 C793 1.400 1_554 S
C797 C796 1.385 . S
C798 C796 1.478 . S
C798 C800 1.381 . S
C798 C804 1.383 . S
C799 C795 1.495 1_655 S
C799 H805 0.959 . S
C799 H806 0.961 1_655 S
C799 H807 0.960 . S
C800 C798 1.381 . S
C800 C801 1.394 . S
C800 H808 0.930 . S
C801 C800 1.394 . S
C801 C802 1.383 . S
C801 H809 0.929 . S
C802 C801 1.383 . S
C802 C803 1.377 . S
C803 H787 0.930 . S
C803 C802 1.377 . S
C803 C804 1.379 . S
C804 H788 0.931 . S
C804 C798 1.383 . S
C804 C803 1.379 . S
H805 C799 0.959 . S
H806 C799 0.961 1_455 S
H807 C799 0.960 . S
H808 C800 0.930 . S
H809 C801 0.929 . S
H810 C818 0.929 . S
H811 C820 0.930 . S
H812 C822 0.930 . S
H813 C825 0.929 . S
H814 C828 0.930 . S
H815 C830 0.960 . S
H816 C830 0.960 . S
H817 C830 0.960 . S
C818 H810 0.929 . S
C818 C819 1.377 . S
C818 C820 1.384 . S
C819 C818 1.377 . S
C819 C825 1.390 . S
C820 H811 0.930 . S
C820 C818 1.384 . S
C820 C821 1.372 . S
C821 C820 1.372 . S
C821 C822 1.400 . S
C821 C826 1.490 . S
C822 H812 0.930 . S
C822 C821 1.400 . S
C822 C825 1.386 . S
H823 C839 0.930 . S
H824 C840 0.931 . S
C825 H813 0.929 . S
C825 C819 1.390 . S
C825 C822 1.386 . S
C826 C821 1.490 . S
C826 C828 1.395 . S
C826 C829 1.403 . S
H827 C833 0.930 . S
C828 H814 0.930 . S
C828 C826 1.395 . S
C828 C831 1.403 1_545 S
C829 C826 1.403 . S
C829 C830 1.524 . S
C829 C833 1.400 . S
C830 H815 0.960 . S
C830 H816 0.960 . S
C830 H817 0.960 . S
C830 C829 1.524 . S
C831 C828 1.403 1_565 S
C831 C832 1.392 . S
C831 C835 1.495 . S
C832 C831 1.392 . S
C832 C833 1.385 1_565 S
C832 C834 1.478 . S
C833 H827 0.930 . S
C833 C829 1.400 . S
C833 C832 1.385 1_545 S
C834 C832 1.478 . S
C834 C836 1.381 . S
C834 C840 1.383 . S
C835 C831 1.495 . S
C835 H841 0.959 . S
C835 H842 0.961 . S
C835 H843 0.960 . S
C836 C834 1.381 . S
C836 C837 1.394 . S
C836 H844 0.930 . S
C837 C836 1.394 . S
C837 C838 1.383 . S
C837 H845 0.929 . S
C838 C837 1.383 . S
C838 C839 1.377 . S
C839 H823 0.930 . S
C839 C838 1.377 . S
C839 C840 1.379 . S
C840 H824 0.931 . S
C840 C834 1.383 . S
C840 C839 1.379 . S
H841 C835 0.959 . S
H842 C835 0.961 . S
H843 C835 0.960 . S
H844 C836 0.930 . S
H845 C837 0.929 . S
H846 C854 0.929 . S
H847 C856 0.930 . S
H848 C858 0.930 . S
H849 C861 0.929 . S
H850 C864 0.930 . S
H851 C866 0.960 . S
H852 C866 0.960 . S
H853 C866 0.960 . S
C854 H846 0.929 . S
C854 C855 1.377 . S
C854 C856 1.384 . S
C855 C854 1.377 . S
C855 C861 1.390 . S
C856 H847 0.930 . S
C856 C854 1.384 . S
C856 C857 1.372 . S
C857 C856 1.372 . S
C857 C858 1.400 . S
C857 C862 1.490 . S
C858 H848 0.930 . S
C858 C857 1.400 . S
C858 C861 1.386 . S
H859 C875 0.930 . S
H860 C876 0.931 . S
C861 H849 0.929 . S
C861 C855 1.390 . S
C861 C858 1.386 . S
C862 C857 1.490 . S
C862 C864 1.395 . S
C862 C865 1.403 . S
H863 C869 0.930 . S
C864 H850 0.930 . S
C864 C862 1.395 . S
C864 C867 1.403 1_556 S
C865 C862 1.403 . S
C865 C866 1.524 . S
C865 C869 1.400 1_556 S
C866 H851 0.960 . S
C866 H852 0.960 . S
C866 H853 0.960 . S
C866 C865 1.524 . S
C867 C864 1.403 1_554 S
C867 C868 1.392 . S
C867 C871 1.495 . S
C868 C867 1.392 . S
C868 C869 1.385 . S
C868 C870 1.478 . S
C869 H863 0.930 . S
C869 C865 1.400 1_554 S
C869 C868 1.385 . S
C870 C868 1.478 . S
C870 C872 1.381 . S
C870 C876 1.383 . S
C871 C867 1.495 . S
C871 H877 0.959 . S
C871 H878 0.961 . S
C871 H879 0.960 . S
C872 C870 1.381 . S
C872 C873 1.394 . S
C872 H880 0.930 . S
C873 C872 1.394 . S
C873 C874 1.383 . S
C873 H881 0.929 . S
C874 C873 1.383 . S
C874 C875 1.377 . S
C875 H859 0.930 . S
C875 C874 1.377 . S
C875 C876 1.379 . S
C876 H860 0.931 . S
C876 C870 1.383 . S
C876 C875 1.379 . S
H877 C871 0.959 . S
H878 C871 0.961 . S
H879 C871 0.960 . S
H880 C872 0.930 . S
H881 C873 0.929 . S
H882 C890 0.929 . S
H883 C892 0.930 . S
H884 C894 0.930 . S
H885 C897 0.929 . S
H886 C900 0.930 . S
H887 C902 0.960 . S
H888 C902 0.960 . S
H889 C902 0.960 . S
C890 H882 0.929 . S
C890 C891 1.377 . S
C890 C892 1.384 . S
C891 C890 1.377 . S
C891 C897 1.390 . S
C892 H883 0.930 . S
C892 C890 1.384 . S
C892 C893 1.372 . S
C893 C892 1.372 . S
C893 C894 1.400 . S
C893 C898 1.490 . S
C894 H884 0.930 . S
C894 C893 1.400 . S
C894 C897 1.386 . S
H895 C911 0.930 . S
H896 C912 0.931 . S
C897 H885 0.929 . S
C897 C891 1.390 . S
C897 C894 1.386 . S
C898 C893 1.490 . S
C898 C900 1.395 . S
C898 C901 1.403 . S
H899 C905 0.930 . S
C900 H886 0.930 . S
C900 C898 1.395 . S
C900 C903 1.403 1_455 S
C901 C898 1.403 . S
C901 C902 1.524 . S
C901 C905 1.400 . S
C902 H887 0.960 . S
C902 H888 0.960 . S
C902 H889 0.960 . S
C902 C901 1.524 . S
C903 C900 1.403 1_655 S
C903 C904 1.392 . S
C903 C907 1.495 . S
C904 C903 1.392 . S
C904 C905 1.385 1_655 S
C904 C906 1.478 . S
C905 H899 0.930 . S
C905 C901 1.400 . S
C905 C904 1.385 1_455 S
C906 C904 1.478 . S
C906 C908 1.381 . S
C906 C912 1.383 . S
C907 C903 1.495 . S
C907 H913 0.959 . S
C907 H914 0.961 . S
C907 H915 0.960 . S
C908 C906 1.381 . S
C908 C909 1.394 . S
C908 H916 0.930 . S
C909 C908 1.394 . S
C909 C910 1.383 . S
C909 H917 0.929 . S
C910 C909 1.383 . S
C910 C911 1.377 . S
C911 H895 0.930 . S
C911 C910 1.377 . S
C911 C912 1.379 . S
C912 H896 0.931 . S
C912 C906 1.383 . S
C912 C911 1.379 . S
H913 C907 0.959 . S
H914 C907 0.961 . S
H915 C907 0.960 . S
H916 C908 0.930 . S
H917 C909 0.929 . S
H918 C926 0.929 . S
H919 C928 0.930 . S
H920 C930 0.930 . S
H921 C933 0.929 . S
H922 C936 0.929 1_556 S
H923 C938 0.960 1_565 S
H924 C938 0.960 . S
H925 C938 0.960 . S
C926 H918 0.929 . S
C926 C927 1.377 . S
C926 C928 1.384 . S
C927 C926 1.377 . S
C927 C933 1.390 . S
C928 H919 0.930 . S
C928 C926 1.384 . S
C928 C929 1.372 . S
C929 C928 1.372 . S
C929 C930 1.400 . S
C929 C934 1.490 . S
C930 H920 0.930 . S
C930 C929 1.400 . S
C930 C933 1.386 . S
H931 C947 0.930 . S
H932 C948 0.931 . S
C933 H921 0.929 . S
C933 C927 1.390 . S
C933 C930 1.386 . S
C934 C929 1.490 . S
C934 C936 1.390 1_556 S
C934 C937 1.403 . S
H935 C941 0.930 . S
C936 H922 0.929 1_554 S
C936 C934 1.390 1_554 S
C936 C939 1.408 . S
C937 C934 1.403 . S
C937 C938 1.524 . S
C937 C941 1.400 1_546 S
C938 H923 0.960 1_545 S
C938 H924 0.960 . S
C938 H925 0.960 . S
C938 C937 1.524 . S
C939 C936 1.408 . S
C939 C940 1.392 1_545 S
C939 C943 1.495 . S
C940 C939 1.392 1_565 S
C940 C941 1.385 . S
C940 C942 1.478 . S
C941 H935 0.930 . S
C941 C937 1.400 1_564 S
C941 C940 1.385 . S
C942 C940 1.478 . S
C942 C944 1.381 . S
C942 C948 1.383 . S
C943 C939 1.495 . S
C943 H949 0.959 . S
C943 H950 0.961 . S
C943 H951 0.960 . S
C944 C942 1.381 . S
C944 C945 1.394 . S
C944 H952 0.930 1_565 S
C945 C944 1.394 . S
C945 C946 1.383 . S
C945 H953 0.929 . S
C946 C945 1.383 . S
C946 C947 1.377 . S
C947 H931 0.930 . S
C947 C946 1.377 . S
C947 C948 1.379 . S
C948 H932 0.931 . S
C948 C942 1.383 . S
C948 C947 1.379 . S
H949 C943 0.959 . S
H950 C943 0.961 . S
H951 C943 0.960 . S
H952 C944 0.930 1_545 S
H953 C945 0.929 . S
H954 C962 0.929 . S
H955 C964 0.930 . S
H956 C966 0.930 . S
H957 C969 0.929 . S
H958 C972 0.930 . S
H959 C974 0.960 . S
H960 C974 0.960 . S
H961 C974 0.960 . S
C962 H954 0.929 . S
C962 C963 1.377 . S
C962 C964 1.384 . S
C963 C962 1.377 . S
C963 C969 1.390 . S
C964 H955 0.930 . S
C964 C962 1.384 . S
C964 C965 1.372 . S
C965 C964 1.372 . S
C965 C966 1.400 . S
C965 C970 1.490 . S
C966 H956 0.930 . S
C966 C965 1.400 . S
C966 C969 1.386 . S
H967 C983 0.930 . S
H968 C984 0.931 . S
C969 H957 0.929 . S
C969 C963 1.390 . S
C969 C966 1.386 . S
C970 C965 1.490 . S
C970 C972 1.395 . S
C970 C973 1.403 . S
H971 C977 0.930 . S
C972 H958 0.930 . S
C972 C970 1.395 . S
C972 C975 1.403 . S
C973 C970 1.403 . S
C973 C974 1.524 . S
C973 C977 1.400 . S
C974 H959 0.960 . S
C974 H960 0.960 . S
C974 H961 0.960 . S
C974 C973 1.524 . S
C975 C972 1.403 . S
C975 C976 1.392 . S
C975 C979 1.495 . S
C976 C975 1.392 . S
C976 C977 1.385 . S
C976 C978 1.478 . S
C977 H971 0.930 . S
C977 C973 1.400 . S
C977 C976 1.385 . S
C978 C976 1.478 . S
C978 C980 1.381 . S
C978 C984 1.383 . S
C979 C975 1.495 . S
C979 H985 0.959 . S
C979 H986 0.961 . S
C979 H987 0.960 . S
C980 C978 1.381 . S
C980 C981 1.394 . S
C980 H988 0.930 . S
C981 C980 1.394 . S
C981 C982 1.383 . S
C981 H989 0.929 . S
C982 C981 1.383 . S
C982 C983 1.377 . S
C983 H967 0.930 . S
C983 C982 1.377 . S
C983 C984 1.379 . S
C984 H968 0.931 . S
C984 C978 1.383 . S
C984 C983 1.379 . S
H985 C979 0.959 . S
H986 C979 0.961 . S
H987 C979 0.960 . S
H988 C980 0.930 . S
H989 C981 0.929 . S
H990 C998 0.929 . S
H991 C1000 0.930 . S
H992 C1002 0.930 . S
H993 C1005 0.929 . S
H994 C1008 0.930 . S
H995 C1010 0.960 . S
H996 C1010 0.960 . S
H997 C1010 0.960 . S
C998 H990 0.929 . S
C998 C999 1.377 . S
C998 C1000 1.384 . S
C999 C998 1.377 . S
C999 C1005 1.390 . S
C1000 H991 0.930 . S
C1000 C998 1.384 . S
C1000 C1001 1.372 . S
C1001 C1000 1.372 . S
C1001 C1002 1.400 . S
C1001 C1006 1.490 . S
C1002 H992 0.930 . S
C1002 C1001 1.400 . S
C1002 C1005 1.386 . S
H1003 C1019 0.930 . S
H1004 C1020 0.931 . S
C1005 H993 0.929 . S
C1005 C999 1.390 . S
C1005 C1002 1.386 . S
C1006 C1001 1.490 . S
C1006 C1008 1.395 1_554 S
C1006 C1009 1.403 1_455 S
H1007 C1013 0.929 1_554 S
C1008 H994 0.930 . S
C1008 C1006 1.395 1_556 S
C1008 C1011 1.387 1_455 S
C1009 C1006 1.403 1_655 S
C1009 C1010 1.524 . S
C1009 C1013 1.389 1_554 S
C1010 H995 0.960 . S
C1010 H996 0.960 . S
C1010 H997 0.960 . S
C1010 C1009 1.524 . S
C1011 C1008 1.387 1_655 S
C1011 C1012 1.422 . S
C1011 C1015 1.482 1_655 S
C1012 C1011 1.422 . S
C1012 C1013 1.397 . S
C1012 C1014 1.478 . S
C1013 H1007 0.929 1_556 S
C1013 C1009 1.389 1_556 S
C1013 C1012 1.397 . S
C1014 C1012 1.478 . S
C1014 C1016 1.381 . S
C1014 C1020 1.383 . S
C1015 C1011 1.482 1_455 S
C1015 H1021 0.959 . S
C1015 H1022 0.961 . S
C1015 H1023 0.960 . S
C1016 C1014 1.381 . S
C1016 C1017 1.394 . S
C1016 H1024 0.930 . S
C1017 C1016 1.394 . S
C1017 C1018 1.383 . S
C1017 H1025 0.929 . S
C1018 C1017 1.383 . S
C1018 C1019 1.377 . S
C1019 H1003 0.930 . S
C1019 C1018 1.377 . S
C1019 C1020 1.379 . S
C1020 H1004 0.931 . S
C1020 C1014 1.383 . S
C1020 C1019 1.379 . S
H1021 C1015 0.959 . S
H1022 C1015 0.961 . S
H1023 C1015 0.960 . S
H1024 C1016 0.930 . S
H1025 C1017 0.929 . S
H1026 C1034 0.929 . S
H1027 C1036 0.930 . S
H1028 C1038 0.930 . S
H1029 C1041 0.929 . S
H1030 C1044 0.930 . S
H1031 C1046 0.960 . S
H1032 C1046 0.960 . S
H1033 C1046 0.960 . S
C1034 H1026 0.929 . S
C1034 C1035 1.377 . S
C1034 C1036 1.384 . S
C1035 C1034 1.377 . S
C1035 C1041 1.390 . S
C1036 H1027 0.930 . S
C1036 C1034 1.384 . S
C1036 C1037 1.372 . S
C1037 C1036 1.372 . S
C1037 C1038 1.400 . S
C1037 C1042 1.490 . S
C1038 H1028 0.930 . S
C1038 C1037 1.400 . S
C1038 C1041 1.386 . S
H1039 C1055 0.930 . S
H1040 C1056 0.931 . S
C1041 H1029 0.929 . S
C1041 C1035 1.390 . S
C1041 C1038 1.386 . S
C1042 C1037 1.490 . S
C1042 C1044 1.395 . S
C1042 C1045 1.403 1_545 S
H1043 C1049 0.930 . S
C1044 H1030 0.930 . S
C1044 C1042 1.395 . S
C1044 C1047 1.403 1_545 S
C1045 C1042 1.403 1_565 S
C1045 C1046 1.524 . S
C1045 C1049 1.400 . S
C1046 H1031 0.960 . S
C1046 H1032 0.960 . S
C1046 H1033 0.960 . S
C1046 C1045 1.524 . S
C1047 C1044 1.403 1_565 S
C1047 C1048 1.392 . S
C1047 C1051 1.495 1_565 S
C1048 C1047 1.392 . S
C1048 C1049 1.385 . S
C1048 C1050 1.478 . S
C1049 H1043 0.930 . S
C1049 C1045 1.400 . S
C1049 C1048 1.385 . S
C1050 C1048 1.478 . S
C1050 C1052 1.381 . S
C1050 C1056 1.383 . S
C1051 C1047 1.495 1_545 S
C1051 H1057 0.959 . S
C1051 H1058 0.961 1_545 S
C1051 H1059 0.960 . S
C1052 C1050 1.381 . S
C1052 C1053 1.394 . S
C1052 H1060 0.930 . S
C1053 C1052 1.394 . S
C1053 C1054 1.383 . S
C1053 H1061 0.929 . S
C1054 C1053 1.383 . S
C1054 C1055 1.377 . S
C1055 H1039 0.930 . S
C1055 C1054 1.377 . S
C1055 C1056 1.379 . S
C1056 H1040 0.931 . S
C1056 C1050 1.383 . S
C1056 C1055 1.379 . S
H1057 C1051 0.959 . S
H1058 C1051 0.961 1_565 S
H1059 C1051 0.960 . S
H1060 C1052 0.930 . S
H1061 C1053 0.929 . S
C207 C24 2.041 . S
C226 C153 2.105 . S
C243 C190 2.104 . S
C262 C61 2.055 . S
C279 C21 2.104 . S
C298 C90 2.054 . S
C315 C58 2.109 . S
C334 C127 2.020 . S
C351 C156 2.045 . S
C370 C87 2.090 . S
C387 C193 2.042 . S
C406 C124 2.103 . S
C423 C28 0.629 . S
C442 C157 0.180 . S
C459 C57 0.634 . S
C478 C186 0.259 . S
C495 C25 0.184 . S
C514 C94 0.601 . S
C531 C54 0.168 . S
C550 C123 0.660 . S
C567 C91 0.164 . S
C586 C160 0.710 . S
C603 C189 0.630 . S
C622 C120 0.165 . S
C639 C27 2.039 . S
C658 C187 2.110 . S
C675 C59 2.506 . S
C694 C23 2.384 . S
C711 C93 2.041 . S
C730 C55 2.123 . S
C747 C125 2.506 . S
C766 C89 2.406 . S
C783 C121 2.135 . S
C802 C159 2.027 . S
C819 C191 2.506 . S
C838 C155 2.409 . S
C855 C122 2.039 . S
C874 C92 2.141 . S
C891 C154 2.505 . S
C910 C126 2.395 . S
C927 C188 2.049 . S
C946 C158 2.108 . S
C963 C192 2.411 . S
C982 C22 2.509 . S
C999 C26 2.140 . S
C1018 C56 2.010 . S
C1035 C60 2.405 . S
C1054 C88 2.501 . S
