# Generated by pormake.
# Topology sxc, (6)-cn, num edge types: 1
# Building blocks:
#     Node 0, Type 0, BuildingBlock: PAMTOO_clean_sbu_0, # of connection points: 6
#     Node 1, Type 0, BuildingBlock: PAMTOO_clean_sbu_0, # of connection points: 6
#     Node 2, Type 0, BuildingBlock: PAMTOO_clean_sbu_0, # of connection points: 6
#     Edge 3, Type (0, 0), BuildingBlock: FUNLAD_clean_linker_1, # of connection points: 2
#     Edge 4, Type (0, 0), BuildingBlock: FUNLAD_clean_linker_1, # of connection points: 2
#     Edge 5, Type (0, 0), BuildingBlock: FUNLAD_clean_linker_1, # of connection points: 2
#     Edge 6, Type (0, 0), BuildingBlock: FUNLAD_clean_linker_1, # of connection points: 2
#     Edge 7, Type (0, 0), BuildingBlock: FUNLAD_clean_linker_1, # of connection points: 2
#     Edge 8, Type (0, 0), BuildingBlock: FUNLAD_clean_linker_1, # of connection points: 2
#     Edge 9, Type (0, 0), BuildingBlock: FUNLAD_clean_linker_1, # of connection points: 2
#     Edge 10, Type (0, 0), BuildingBlock: FUNLAD_clean_linker_1, # of connection points: 2
#     Edge 11, Type (0, 0), BuildingBlock: FUNLAD_clean_linker_1, # of connection points: 2
# Relax obj value: 0.320
# Max RMSD: 0.123
# Mean RMSD: 0.097
data_MOF--net-sxc--node1-PAMTOO_clean_sbu_0--edge1-FUNLAD_clean_linker_1
_symmetry_space_group_name_H-M    P1
_symmetry_Int_Tables_number       1
_symmetry_cell_setting            triclinic
loop_
_symmetry_equiv_pos_as_xyz
'x, y, z'
_cell_length_a     18.327759
_cell_length_b     16.835986
_cell_length_c     47.858058
_cell_angle_alpha  91.662983
_cell_angle_beta   100.25395
_cell_angle_gamma 96.487933
loop_
_atom_site_label
_atom_site_type_symbol
_atom_site_fract_x
_atom_site_fract_y
_atom_site_fract_z
_atom_type_partial_charge
Dy0 Dy 1.07767 0.05541 -0.0043 0.0
Dy1 Dy 0.25629 0.09539 0.0174 0.0
C2 C 0.14819 0.06425 0.06343 0.0
O3 O 1.10273 0.19121 -0.0067 0.0
O4 O 0.22399 0.2231 0.01636 0.0
O5 O 0.96998 0.09136 -0.00137 0.0
O6 O 0.97936 0.99985 0.96716 0.0
O7 O 0.23798 0.12111 0.97101 0.0
O8 O 0.12432 0.04743 0.95594 0.0
O9 O 0.23316 0.95858 0.01531 0.0
O10 O 1.10618 0.92743 0.00217 0.0
O11 O 0.36222 0.06008 0.01184 0.0
O12 O 0.35748 0.15018 0.04456 0.0
C13 C 0.15948 0.24564 0.00415 0.0
O14 O 1.08994 0.04764 0.04294 0.0
O15 O 0.21564 0.08536 0.05852 0.0
C16 C 0.87362 0.98508 -0.01183 0.0
C17 C 0.77013 0.86295 0.00105 0.0
C18 C 0.83008 0.89584 0.02207 0.0
C19 C 0.88211 0.95606 0.0156 0.0
C20 C 0.81039 0.95719 0.96786 0.0
C21 C 0.75861 0.89643 0.97426 0.0
C22 C 0.93433 1.03689 0.97965 0.0
C23 C 0.1854 0.08719 0.95055 0.0
C24 C 0.17342 0.90459 0.00941 0.0
C25 C 0.46106 0.16358 0.02198 0.0
C26 C 0.5704 0.27708 0.00779 0.0
C27 C 0.50608 0.25052 -0.01227 0.0
C28 C 0.45126 0.19465 -0.00513 0.0
C29 C 0.52765 0.18546 0.04132 0.0
C30 C 0.5823 0.24191 0.03427 0.0
C31 C 0.40022 0.11297 0.03093 0.0
H32 H 0.83976 0.87097 0.04286 0.0
H33 H 0.93087 0.97687 0.03153 0.0
H34 H 0.80309 0.97947 0.94664 0.0
H35 H 0.71165 0.87325 0.9579 0.0
H36 H 0.4959 0.27691 0.96722 0.0
H37 H 0.40003 0.17823 0.97966 0.0
H38 H 0.53605 0.1613 0.06224 0.0
H39 H 0.6323 0.26027 0.04989 0.0
Dy40 Dy 0.19946 0.0774 0.34997 0.0
Dy41 Dy 1.02466 0.07864 0.32174 0.0
C42 C 0.14651 0.07209 0.28277 0.0
O43 O 0.18439 0.21092 0.34692 0.0
O44 O 1.05964 0.21317 0.32915 0.0
O45 O 0.31105 0.13401 0.35042 0.0
O46 O 0.29311 1.03414 0.37692 0.0
O47 O 1.02173 0.06846 0.36822 0.0
O48 O 0.14706 0.09114 0.38818 0.0
O49 O 1.0409 0.9452 0.32388 0.0
O50 O 0.16136 0.94321 0.34735 0.0
O51 O 0.91735 0.12504 0.31489 0.0
O52 O 0.93241 1.01685 0.29207 0.0
C53 C 0.12672 0.25148 0.33888 0.0
O54 O 0.18797 0.04147 0.30386 0.0
O55 O 1.08865 0.10666 0.28688 0.0
C56 C 0.39256 1.03817 0.35147 0.0
C57 C 0.47206 0.98755 0.31056 0.0
C58 C 0.40476 0.94346 0.31377 0.0
C59 C 0.36484 0.969 0.33392 0.0
C60 C 0.46337 0.0774 0.35027 0.0
C61 C 0.50318 0.05204 0.33004 0.0
C62 C 0.34156 0.07924 0.36555 0.0
C63 C 1.07624 0.08017 0.39045 0.0
C64 C 1.09636 0.90475 0.33498 0.0
C65 C 0.85354 0.10287 0.26703 0.0
C66 C 0.77097 0.14202 0.21488 0.0
C67 C 0.75112 0.16518 0.24073 0.0
C68 C 0.79165 0.145 0.26657 0.0
C69 C 0.87707 0.08559 0.24129 0.0
C70 C 0.83574 0.10456 0.21539 0.0
C71 C 0.88942 0.07251 0.29408 0.0
H72 H 0.38018 0.89306 0.29924 0.0
H73 H 0.30983 0.93824 0.33428 0.0
H74 H 0.48543 0.13103 0.36353 0.0
H75 H 0.55639 0.0855 0.32871 0.0
H76 H 0.70067 0.19303 0.24083 0.0
H77 H 0.77259 0.15903 0.2861 0.0
H78 H 0.92521 0.05392 0.24098 0.0
H79 H 0.85169 0.08569 0.19573 0.0
Dy80 Dy 0.11678 0.17844 0.6757 0.0
Dy81 Dy 1.07498 0.99863 0.66187 0.0
C82 C 1.092 0.11183 0.61133 0.0
O83 O 0.98387 0.15672 0.67489 0.0
O84 O 0.95031 1.02424 0.66345 0.0
O85 O 1.08852 0.29481 0.66321 0.0
O86 O 0.16466 0.28314 0.70266 0.0
O87 O 1.06342 1.0132 0.70758 0.0
O88 O 0.14161 0.1285 0.71853 0.0
O89 O 0.20796 1.01963 0.66293 0.0
O90 O 0.24133 0.15255 0.67389 0.0
O91 O 1.09843 0.88067 0.67445 0.0
O92 O 1.02849 0.89563 0.6339 0.0
C93 C 0.92818 0.09495 0.66953 0.0
O94 O 0.13187 0.16373 0.63047 0.0
O95 O 1.05279 0.04937 0.61904 0.0
C96 C 0.18901 0.39624 0.67717 0.0
C97 C 0.30959 0.50444 0.66814 0.0
C98 C 0.27574 0.44507 0.64705 0.0
C99 C 0.21643 0.39078 0.6517 0.0
C100 C 0.21855 0.45924 0.69716 0.0
C101 C 0.27835 0.51325 0.69261 0.0
C102 C 0.13581 0.33212 0.68441 0.0
C103 C 1.10444 0.06504 0.72651 0.0
C104 C 0.26351 0.0816 0.66806 0.0
C105 C 0.99475 0.78418 0.65854 0.0
C106 C 0.86477 0.68559 0.6642 0.0
C107 C 0.89848 0.74372 0.68573 0.0
C108 C 0.96253 0.79324 0.68274 0.0
C109 C 0.96478 0.72222 0.63817 0.0
C110 C 0.90029 0.67293 0.64106 0.0
C111 C 1.05253 0.84523 0.65251 0.0
H112 H 0.29638 0.43847 0.6274 0.0
H113 H 0.19409 0.34271 0.6359 0.0
H114 H 0.1978 0.46429 0.71689 0.0
H115 H 0.30297 0.55905 0.70901 0.0
H116 H 0.87441 0.75303 0.70446 0.0
H117 H 0.98487 0.84078 0.69876 0.0
H118 H 0.98899 0.71464 0.61933 0.0
H119 H 0.87583 0.62788 0.62438 0.0
H120 H 1.0918 0.34419 -0.01004 0.0
C121 C 0.14629 0.33412 0.00154 0.0
H122 H 0.24949 0.39245 0.02326 0.0
H123 H 0.25063 0.74091 0.97623 0.0
H124 H 0.35079 0.68996 0.95729 0.0
H125 H 0.37295 0.54898 0.96171 0.0
H126 H 0.29446 0.45719 0.98485 0.0
C127 C 0.194 0.40128 0.01234 0.0
C128 C 0.17693 0.4895 0.00892 0.0
C129 C 0.22412 0.54543 -0.00389 0.0
C130 C 0.21234 0.62906 -0.0058 0.0
C131 C 0.2585 0.6791 0.97956 0.0
C132 C 0.31586 0.65029 0.96821 0.0
C133 C 0.32825 0.57079 0.97065 0.0
C134 C 0.28297 0.51878 0.98421 0.0
H135 H 0.24268 0.80625 0.02209 0.0
C136 C 0.18663 0.81614 0.01211 0.0
H137 H 1.0808 0.75802 -0.00679 0.0
H138 H 1.07861 0.40782 0.03734 0.0
H139 H 0.97892 0.45878 0.05664 0.0
H140 H 0.95827 0.6004 0.05317 0.0
H141 H 1.03751 0.69274 0.03059 0.0
C142 C 0.13736 0.74889 0.00279 0.0
C143 C 0.15424 0.66043 0.00589 0.0
C144 C 1.1071 0.60442 0.01874 0.0
C145 C 0.11851 0.52066 0.02041 0.0
C146 C 1.07159 0.47009 0.03458 0.0
C147 C 1.01441 0.49882 0.04606 0.0
C148 C 1.00283 0.57866 0.04414 0.0
C149 C 1.04853 0.63099 0.03085 0.0
H150 H 0.49514 0.90991 0.2756 0.0
C151 C 0.5045 0.97046 0.28514 0.0
H152 H 0.53959 0.09161 0.27942 0.0
H153 H 0.74217 0.93859 0.19657 0.0
H154 H 0.7986 0.86887 0.2369 0.0
H155 H 0.74832 0.86801 0.2814 0.0
H156 H 0.64023 0.93482 0.28549 0.0
C157 C 0.53694 1.02982 0.27172 0.0
C158 C 0.5606 1.01699 0.24403 0.0
C159 C 0.62391 0.97724 0.24221 0.0
C160 C 0.65527 0.98122 0.21709 0.0
C161 C 0.71773 0.94009 0.21547 0.0
C162 C 0.7504 0.89932 0.23843 0.0
C163 C 0.72197 0.89866 0.26345 0.0
C164 C 0.65952 0.93707 0.26546 0.0
H165 H 0.67999 0.18918 0.18907 0.0
C166 C 0.71576 0.14219 0.18816 0.0
H167 H 0.71252 1.03165 0.16814 0.0
H168 H 0.42837 0.0814 0.23794 0.0
H169 H 0.37112 0.14882 0.1968 0.0
H170 H 0.43085 0.16258 0.15455 0.0
H171 H 0.54833 0.1081 0.15317 0.0
C172 C 0.67964 0.07054 0.17773 0.0
C173 C 0.62739 1.03111 0.19523 0.0
C174 C 0.55881 0.06157 0.19558 0.0
C175 C 0.52499 0.05416 0.21997 0.0
C176 C 0.4569 0.08641 0.21999 0.0
C177 C 0.42342 0.12491 0.19652 0.0
C178 C 0.45707 0.13266 0.17272 0.0
C179 C 0.52428 0.10168 0.1722 0.0
H180 H 0.77357 0.58719 0.65057 0.0
C181 C 0.79009 0.64175 0.66404 0.0
H182 H 0.7513 0.72966 0.68841 0.0
H183 H 0.41707 0.6577 0.62731 0.0
H184 H 0.45165 0.79097 0.61234 0.0
H185 H 0.58232 0.854 0.62368 0.0
H186 H 0.67896 0.78431 0.65005 0.0
C187 C 0.73891 0.67197 0.6768 0.0
C188 C 0.66024 0.63484 0.67121 0.0
C189 C 0.60454 0.67684 0.65578 0.0
C190 C 0.5293 0.64079 0.64934 0.0
C191 C 0.47488 0.68304 0.63333 0.0
C192 C 0.49405 0.75936 0.62441 0.0
C193 C 0.56762 0.79476 0.63073 0.0
C194 C 0.62254 0.75408 0.64602 0.0
H195 H 0.39772 0.6065 0.68052 0.0
C196 C 0.38134 0.5526 0.66669 0.0
H197 H 0.4199 0.46853 0.6407 0.0
H198 H 0.75263 0.54159 0.70356 0.0
H199 H 0.71787 0.40875 0.71874 0.0
H200 H 0.58755 0.34497 0.70678 0.0
H201 H 0.49146 0.41353 0.67955 0.0
C202 C 0.43177 0.52556 0.65274 0.0
C203 C 0.51022 0.56317 0.65849 0.0
C204 C 0.56584 0.52129 0.67402 0.0
C205 C 0.64097 0.55755 0.68065 0.0
C206 C 0.69504 0.5159 0.69717 0.0
C207 C 0.67573 0.43983 0.70627 0.0
C208 C 0.60236 0.40402 0.69959 0.0
C209 C 0.54776 0.44407 0.68381 0.0
H210 H 0.84002 0.17099 0.68003 0.0
C211 C 0.84145 0.11065 0.67177 0.0
H212 H 0.77092 1.00315 0.65808 0.0
H213 H 0.44712 0.96711 0.69046 0.0
H214 H 0.50109 0.84862 0.70671 0.0
H215 H 0.63307 0.8355 0.70657 0.0
H216 H 0.71351 0.93985 0.69009 0.0
C217 C 0.76816 0.06369 0.66584 0.0
C218 C 0.681 0.08016 0.66869 0.0
C219 C 0.62814 1.01953 0.67811 0.0
C220 C 0.54738 1.02723 0.67824 0.0
C221 C 0.50483 0.96433 0.68903 0.0
C222 C 0.5355 0.89611 0.69872 0.0
C223 C 0.61003 0.88871 0.69864 0.0
C224 C 0.65565 0.94912 0.68872 0.0
H225 H 0.35149 1.00538 0.65755 0.0
C226 C 0.35017 0.06578 0.66578 0.0
H227 H 0.42079 0.17328 0.67933 0.0
H228 H 0.74433 0.20892 0.64681 0.0
H229 H 0.69018 0.32712 0.63033 0.0
H230 H 0.5582 0.34021 0.63044 0.0
H231 H 0.47791 0.23614 0.64714 0.0
C232 C 0.42347 0.11269 0.67162 0.0
C233 C 0.51056 0.09609 0.66871 0.0
C234 C 0.56338 0.15664 0.65924 0.0
C235 C 0.64413 0.14895 0.65911 0.0
C236 C 0.68661 0.21172 0.64823 0.0
C237 C 0.65586 0.27978 0.63842 0.0
C238 C 0.58132 0.28718 0.6385 0.0
C239 C 0.53579 0.22692 0.64853 0.0
H240 H 0.72339 0.775 0.02839 0.0
C241 C 0.72733 0.78744 0.00648 0.0
H242 H 0.71823 0.73635 0.96493 0.0
H243 H 0.77524 0.39826 0.01079 0.0
H244 H 0.88977 0.439 -0.00663 0.0
H245 H 0.91491 0.57497 0.97672 0.0
H246 H 0.82568 0.67069 0.97716 0.0
C247 C 0.70812 0.72783 0.98639 0.0
C248 C 0.69027 0.64505 -0.00537 0.0
C249 C 0.74325 0.59002 -0.00599 0.0
C250 C 0.72904 0.5119 0.00364 0.0
C251 C 0.78304 0.45813 0.00332 0.0
C252 C 0.84908 0.48084 -0.0065 0.0
C253 C 0.86322 0.55738 0.98412 0.0
C254 C 0.81135 0.61172 0.98444 0.0
H255 H 0.61895 0.36149 0.97978 0.0
C256 C 0.61804 0.34873 0.00189 0.0
H257 H 0.63734 0.39877 0.04396 0.0
H258 H 0.5753 0.73489 -0.00356 0.0
H259 H 0.46103 0.69411 0.01392 0.0
H260 H 0.43712 0.55898 0.03144 0.0
H261 H 0.52724 0.46404 0.03161 0.0
C262 C 0.64412 0.4069 0.0221 0.0
C263 C 0.66205 0.48945 0.01372 0.0
C264 C 0.60902 0.5444 0.0143 0.0
C265 C 0.62293 0.6223 0.00448 0.0
C266 C 0.56821 0.67547 0.00433 0.0
C267 C 0.50216 0.65266 0.01412 0.0
C268 C 0.4887 0.57659 0.02397 0.0
C269 C 0.54107 0.52271 0.02399 0.0
H270 H 0.19712 0.36938 0.3506 0.0
C271 C 0.14063 0.34369 0.34136 0.0
H272 H 1.03254 0.37091 0.32467 0.0
H273 H 1.02674 0.72436 0.37088 0.0
H274 H 0.93715 0.64807 0.39413 0.0
H275 H 0.9228 0.5007 0.39138 0.0
H276 H 0.99847 0.42804 0.36559 0.0
C277 C 1.08955 0.39651 0.33314 0.0
C278 C 1.10404 0.48974 0.33632 0.0
C279 C 1.05887 0.53398 0.35104 0.0
C280 C 1.06652 0.62083 0.35234 0.0
C281 C 1.02213 0.65994 0.36838 0.0
C282 C 0.9707 0.61675 0.38205 0.0
C283 C 0.96264 0.53369 0.38052 0.0
C284 C 1.00621 0.49265 0.36542 0.0
H285 H 1.02665 0.78662 0.32285 0.0
C286 C 1.08248 0.81254 0.33285 0.0
H287 H 0.1899 0.78567 0.35079 0.0
H288 H 0.19549 0.43233 0.30359 0.0
H289 H 0.28556 0.50871 0.2806 0.0
H290 H 0.30083 0.6561 0.28383 0.0
H291 H 0.22534 0.72867 0.30975 0.0
C292 C 0.13325 0.75996 0.3418 0.0
C293 C 0.11894 0.66677 0.33858 0.0
C294 C 0.16426 0.62259 0.32393 0.0
C295 C 0.1564 0.53572 0.32252 0.0
C296 C 0.20052 0.49671 0.30633 0.0
C297 C 0.25218 0.53998 0.29277 0.0
C298 C 0.26074 0.62305 0.29456 0.0
C299 C 0.21726 0.66402 0.30972 0.0
H300 H 0.21318 1.0345 0.25157 0.0
C301 C 0.16548 0.06532 0.254 0.0
H302 H 1.07926 0.12748 0.23306 0.0
H303 H 0.24664 0.21856 0.13096 0.0
H304 H 0.28248 0.34098 0.16045 0.0
H305 H 0.2568 0.34892 0.20926 0.0
H306 H 0.19487 0.23424 0.22889 0.0
C307 C 0.12598 0.09476 0.23097 0.0
C308 C 0.14658 0.0873 0.2022 0.0
C309 C 0.18305 0.15452 0.19096 0.0
C310 C 0.19857 0.14955 0.16284 0.0
C311 C 0.23423 0.21832 0.15222 0.0
C312 C 0.255 0.28919 0.16891 0.0
C313 C 0.24047 0.29369 0.19638 0.0
C314 C 0.20479 0.22745 0.20737 0.0
H315 H 1.07867 0.04849 0.09667 0.0
C316 C 0.13584 0.06073 0.09324 0.0
H317 H 0.249 0.08808 0.11276 0.0
H318 H 1.07639 0.94705 0.2171 0.0
H319 H 1.04826 0.82153 0.18899 0.0
H320 H 1.08161 0.81055 0.14144 0.0
H321 H 0.14215 0.92526 0.12147 0.0
C322 C 0.19183 0.07384 0.11595 0.0
C323 C 0.17759 0.07719 0.14585 0.0
C324 C 0.14425 1.00876 0.15764 0.0
C325 C 0.1276 1.01425 0.1856 0.0
C326 C 1.0918 0.9458 0.19631 0.0
C327 C 1.07521 0.87338 0.18038 0.0
C328 C 1.09379 0.86726 0.15357 0.0
C329 C 0.12801 0.93385 0.14225 0.0
H330 H 0.99764 0.0721 0.42085 0.0
C331 C 1.0564 0.08019 0.41924 0.0
H332 H 0.16742 0.09356 0.44191 0.0
H333 H 1.00569 0.20856 0.54635 0.0
H334 H 0.98344 0.32572 0.51929 0.0
H335 H 1.0108 0.3341 0.47075 0.0
H336 H 1.05944 0.22472 0.44878 0.0
C337 C 1.10851 0.08829 0.44321 0.0
C338 C 1.08898 0.08301 0.47222 0.0
C339 C 1.06231 0.14824 0.48509 0.0
C340 C 1.04916 0.14462 0.51358 0.0
C341 C 1.01943 0.20928 0.5253 0.0
C342 C 1.00586 0.27671 0.50991 0.0
C343 C 1.02107 0.28134 0.48255 0.0
C344 C 1.04889 0.21804 0.47017 0.0
H345 H 0.13457 0.17029 0.57563 0.0
C346 C 1.09528 0.1222 0.58086 0.0
H347 H 1.01606 1.02327 0.56503 0.0
H348 H 0.13579 0.94593 0.45351 0.0
H349 H 0.15922 0.82899 0.4806 0.0
H350 H 0.14089 0.82433 0.53037 0.0
H351 H 1.09877 0.93617 0.55335 0.0
C352 C 1.05405 0.07264 0.55982 0.0
C353 C 1.06497 0.07674 0.52955 0.0
C354 C 1.09026 1.01091 0.51641 0.0
C355 C 1.10204 1.01403 0.48779 0.0
C356 C 0.12685 0.94716 0.47526 0.0
C357 C 0.14036 0.87955 0.49054 0.0
C358 C 0.12992 0.87688 0.51855 0.0
C359 C 1.10541 0.94158 0.53145 0.0
H360 H 1.06948 1.003 0.76301 0.0
C361 C 1.1068 0.0521 0.75721 0.0
H362 H 0.18931 0.14894 0.77218 0.0
H363 H 0.11018 0.20584 0.89307 0.0
H364 H 1.07938 0.32728 0.87019 0.0
H365 H 1.08096 0.34123 0.81915 0.0
H366 H 0.11323 0.23387 0.79064 0.0
C367 C 0.15298 0.09884 0.77789 0.0
C368 C 0.15219 0.08914 0.80892 0.0
C369 C 0.13382 0.15287 0.82548 0.0
C370 C 0.13294 0.14491 0.85502 0.0
C371 C 0.11266 0.20891 0.87072 0.0
C372 C 1.09457 0.27895 0.85782 0.0
C373 C 1.09548 0.28681 0.82909 0.0
C374 C 0.11448 0.22469 0.81298 0.0
H375 H 0.2432 0.13409 0.91638 0.0
C376 C 0.1944 0.09659 0.92053 0.0
H377 H 1.09541 1.02245 0.90232 0.0
H378 H 0.20087 0.95958 0.78498 0.0
H379 H 0.23104 0.83818 0.80797 0.0
H380 H 0.22402 0.82241 0.85853 0.0
H381 H 0.1877 0.92868 0.88654 0.0
C382 C 0.1434 0.06182 0.89847 0.0
C383 C 0.15054 0.07326 0.86813 0.0
C384 C 0.16984 1.00998 0.85173 0.0
C385 C 0.17189 1.0183 0.82227 0.0
C386 C 0.19535 0.9555 0.80701 0.0
C387 C 0.21354 0.88564 0.82004 0.0
C388 C 0.20971 0.8768 0.84852 0.0
C389 C 0.18851 0.93816 0.86432 0.0
loop_
_geom_bond_atom_site_label_1
_geom_bond_atom_site_label_2
_geom_bond_distance
_geom_bond_site_symmetry_2
_ccdc_geom_bond_type
Dy0 O3 2.307 1_565 S
Dy0 O5 2.395 1_556 S
Dy0 O6 2.379 . S
Dy0 O8 2.339 . S
Dy0 O10 2.298 . S
Dy0 O14 2.275 1_666 S
Dy0 C22 2.743 . S
Dy1 O4 2.298 . S
Dy1 O7 2.275 1_554 S
Dy1 O9 2.307 1_545 S
Dy1 O11 2.395 1_554 S
Dy1 O12 2.379 . S
Dy1 O15 2.339 . S
Dy1 C31 2.738 . S
C2 O14 1.254 . S
C2 O15 1.257 . S
O3 Dy0 2.307 1_545 S
O3 C13 1.266 1_656 S
O4 Dy1 2.298 . S
O4 C13 1.236 . S
O5 Dy0 2.395 1_554 S
O5 C22 1.234 1_554 S
O6 Dy0 2.379 . S
O6 C22 1.276 . S
O7 Dy1 2.275 1_556 S
O7 C23 1.254 . S
O8 Dy0 2.339 . S
O8 C23 1.257 1_665 S
O9 Dy1 2.307 1_565 S
O9 C24 1.266 . S
O10 Dy0 2.298 . S
O10 C24 1.236 1_656 S
O11 Dy1 2.395 1_556 S
O11 C31 1.255 1_556 S
O12 Dy1 2.379 . S
O12 C31 1.249 . S
C13 O3 1.266 1_454 S
C13 O4 1.236 . S
O14 Dy0 2.275 1_444 S
O14 C2 1.254 . S
O15 Dy1 2.339 . S
O15 C2 1.257 . S
C16 C19 1.369 . S
C16 C20 1.308 1_554 S
C16 C22 1.506 1_554 S
C17 C18 1.304 . S
C17 C21 1.323 1_554 S
C18 C17 1.304 . S
C18 C19 1.371 . S
C18 H32 0.930 . S
C19 C16 1.369 . S
C19 C18 1.371 . S
C19 H33 0.931 . S
C20 C16 1.308 1_556 S
C20 C21 1.433 . S
C20 H34 0.931 . S
C21 C17 1.323 1_556 S
C21 C20 1.433 . S
C21 H35 0.933 . S
C22 Dy0 2.743 . S
C22 O5 1.234 1_556 S
C22 O6 1.276 . S
C22 C16 1.506 1_556 S
C23 O7 1.254 . S
C23 O8 1.257 1_445 S
C24 O9 1.266 . S
C24 O10 1.236 1_454 S
C25 C28 1.344 1_554 S
C25 C29 1.328 . S
C25 C31 1.516 . S
C26 C27 1.304 1_554 S
C26 C30 1.323 . S
C27 C26 1.304 1_556 S
C27 C28 1.371 . S
C27 H36 0.930 . S
C28 C25 1.344 1_556 S
C28 C27 1.371 . S
C28 H37 0.931 . S
C29 C25 1.328 . S
C29 C30 1.433 . S
C29 H38 0.931 . S
C30 C26 1.323 . S
C30 C29 1.433 . S
C30 H39 0.933 . S
C31 Dy1 2.738 . S
C31 O11 1.255 1_554 S
C31 O12 1.249 . S
C31 C25 1.516 . S
H32 C18 0.930 . S
H33 C19 0.931 . S
H34 C20 0.931 . S
H35 C21 0.933 . S
H36 C27 0.930 . S
H37 C28 0.931 . S
H38 C29 0.931 . S
H39 C30 0.933 . S
Dy40 O43 2.307 . S
Dy40 O45 2.395 . S
Dy40 O46 2.379 . S
Dy40 O48 2.339 . S
Dy40 O50 2.298 1_545 S
Dy40 O54 2.275 . S
Dy40 C62 2.738 . S
Dy41 O44 2.298 1_565 S
Dy41 O47 2.275 1_565 S
Dy41 O49 2.307 . S
Dy41 O51 2.395 1_565 S
Dy41 O52 2.379 1_565 S
Dy41 O55 2.339 . S
Dy41 C71 2.738 1_565 S
C42 O54 1.254 1_655 S
C42 O55 1.257 1_545 S
O43 Dy40 2.307 . S
O43 C53 1.266 1_455 S
O44 Dy41 2.298 1_545 S
O44 C53 1.236 . S
O45 Dy40 2.395 . S
O45 C62 1.255 . S
O46 Dy40 2.379 . S
O46 C62 1.249 . S
O47 Dy41 2.275 1_545 S
O47 C63 1.254 1_655 S
O48 Dy40 2.339 . S
O48 C63 1.257 . S
O49 Dy41 2.307 . S
O49 C64 1.266 1_655 S
O50 Dy40 2.298 1_565 S
O50 C64 1.236 . S
O51 Dy41 2.395 1_545 S
O51 C71 1.255 . S
O52 Dy41 2.379 1_545 S
O52 C71 1.249 . S
C53 O43 1.266 1_655 S
C53 O44 1.236 . S
O54 Dy40 2.275 . S
O54 C42 1.254 1_455 S
O55 Dy41 2.339 . S
O55 C42 1.257 1_565 S
C56 C59 1.344 . S
C56 C60 1.328 1_565 S
C56 C62 1.516 1_565 S
C57 C58 1.304 . S
C57 C61 1.323 . S
C58 C57 1.304 . S
C58 C59 1.371 . S
C58 H72 0.930 . S
C59 C56 1.344 . S
C59 C58 1.371 . S
C59 H73 0.931 . S
C60 C56 1.328 1_545 S
C60 C61 1.433 1_545 S
C60 H74 0.931 . S
C61 C57 1.323 . S
C61 C60 1.433 1_565 S
C61 H75 0.933 . S
C62 Dy40 2.738 . S
C62 O45 1.255 . S
C62 O46 1.249 . S
C62 C56 1.516 1_545 S
C63 O47 1.254 1_455 S
C63 O48 1.257 . S
C64 O49 1.266 1_455 S
C64 O50 1.236 . S
C65 C68 1.344 . S
C65 C69 1.328 . S
C65 C71 1.516 . S
C66 C67 1.304 . S
C66 C70 1.323 . S
C67 C66 1.304 . S
C67 C68 1.371 . S
C67 H76 0.930 . S
C68 C65 1.344 . S
C68 C67 1.371 . S
C68 H77 0.931 . S
C69 C65 1.328 . S
C69 C70 1.433 . S
C69 H78 0.931 . S
C70 C66 1.323 . S
C70 C69 1.433 . S
C70 H79 0.933 . S
C71 Dy41 2.738 1_545 S
C71 O51 1.255 . S
C71 O52 1.249 . S
C71 C65 1.516 . S
H72 C58 0.930 . S
H73 C59 0.931 . S
H74 C60 0.931 . S
H75 C61 0.933 . S
H76 C67 0.930 . S
H77 C68 0.931 . S
H78 C69 0.931 . S
H79 C70 0.933 . S
Dy80 O83 2.307 1_455 S
Dy80 O85 2.395 . S
Dy80 O86 2.379 . S
Dy80 O88 2.339 . S
Dy80 O90 2.298 . S
Dy80 O94 2.275 . S
Dy80 C102 2.738 . S
Dy81 O84 2.298 1_565 S
Dy81 O87 2.275 1_665 S
Dy81 O89 2.307 1_665 S
Dy81 O91 2.395 . S
Dy81 O92 2.379 . S
Dy81 O95 2.342 . S
Dy81 C111 2.738 . S
C82 O94 1.254 1_655 S
C82 O95 1.245 1_545 S
O83 Dy80 2.307 1_655 S
O83 C93 1.266 . S
O84 Dy81 2.298 1_545 S
O84 C93 1.236 . S
O85 Dy80 2.395 . S
O85 C102 1.255 . S
O86 Dy80 2.379 . S
O86 C102 1.249 . S
O87 Dy81 2.275 1_445 S
O87 C103 1.254 . S
O88 Dy80 2.339 . S
O88 C103 1.257 . S
O89 Dy81 2.307 1_445 S
O89 C104 1.266 . S
O90 Dy80 2.298 . S
O90 C104 1.236 . S
O91 Dy81 2.395 . S
O91 C111 1.255 . S
O92 Dy81 2.379 . S
O92 C111 1.249 . S
C93 O83 1.266 . S
C93 O84 1.236 . S
O94 Dy80 2.275 . S
O94 C82 1.254 1_455 S
O95 Dy81 2.342 . S
O95 C82 1.245 1_565 S
C96 C99 1.344 . S
C96 C100 1.328 . S
C96 C102 1.516 . S
C97 C98 1.304 . S
C97 C101 1.323 . S
C98 C97 1.304 . S
C98 C99 1.371 . S
C98 H112 0.930 . S
C99 C96 1.344 . S
C99 C98 1.371 . S
C99 H113 0.931 . S
C100 C96 1.328 . S
C100 C101 1.433 . S
C100 H114 0.931 . S
C101 C97 1.323 . S
C101 C100 1.433 . S
C101 H115 0.933 . S
C102 Dy80 2.738 . S
C102 O85 1.255 . S
C102 O86 1.249 . S
C102 C96 1.516 . S
C103 O87 1.254 . S
C103 O88 1.257 . S
C104 O89 1.266 . S
C104 O90 1.236 . S
C105 C108 1.344 . S
C105 C109 1.328 . S
C105 C111 1.516 . S
C106 C107 1.304 . S
C106 C110 1.323 . S
C107 C106 1.304 . S
C107 C108 1.371 . S
C107 H116 0.930 . S
C108 C105 1.344 . S
C108 C107 1.371 . S
C108 H117 0.931 . S
C109 C105 1.328 . S
C109 C110 1.433 . S
C109 H118 0.931 . S
C110 C106 1.323 . S
C110 C109 1.433 . S
C110 H119 0.933 . S
C111 Dy81 2.738 . S
C111 O91 1.255 . S
C111 O92 1.249 . S
C111 C105 1.516 . S
H112 C98 0.930 . S
H113 C99 0.931 . S
H114 C100 0.931 . S
H115 C101 0.933 . S
H116 C107 0.930 . S
H117 C108 0.931 . S
H118 C109 0.931 . S
H119 C110 0.933 . S
H120 C121 0.951 1_655 S
C121 H120 0.951 1_455 S
C121 C127 1.265 . S
H122 C127 0.950 . S
H123 C131 0.949 . S
H124 C132 0.950 . S
H125 C133 0.951 . S
H126 C134 0.951 . S
C127 C121 1.265 . S
C127 H122 0.950 . S
C127 C128 1.478 . S
C128 C127 1.478 . S
C128 C129 1.397 1_554 S
C128 C145 1.394 . S
C129 C128 1.397 1_556 S
C129 C130 1.438 . S
C129 C134 1.429 . S
C130 C129 1.438 . S
C130 C131 1.428 . S
C130 C143 1.394 1_556 S
C131 H123 0.949 . S
C131 C130 1.428 . S
C131 C132 1.345 . S
C132 H124 0.950 . S
C132 C131 1.345 . S
C132 C133 1.424 . S
C133 H125 0.951 . S
C133 C132 1.424 . S
C133 C134 1.347 . S
C134 H126 0.951 . S
C134 C129 1.429 . S
C134 C133 1.347 . S
H135 C136 0.951 . S
C136 H135 0.951 . S
C136 C142 1.265 . S
H137 C142 0.950 1_655 S
H138 C146 0.949 . S
H139 C147 0.950 . S
H140 C148 0.951 . S
H141 C149 0.951 . S
C142 C136 1.265 . S
C142 H137 0.950 1_455 S
C142 C143 1.478 . S
C143 C130 1.394 1_554 S
C143 C142 1.478 . S
C143 C144 1.397 . S
C144 C143 1.397 . S
C144 C145 1.438 . S
C144 C149 1.429 1_455 S
C145 C128 1.394 . S
C145 C144 1.438 . S
C145 C146 1.428 . S
C146 H138 0.949 . S
C146 C145 1.428 . S
C146 C147 1.345 1_455 S
C147 H139 0.950 . S
C147 C146 1.345 1_655 S
C147 C148 1.424 . S
C148 H140 0.951 . S
C148 C147 1.424 . S
C148 C149 1.347 . S
C149 H141 0.951 . S
C149 C144 1.429 1_655 S
C149 C148 1.347 . S
H150 C151 0.951 . S
C151 H150 0.951 . S
C151 C157 1.265 . S
H152 C157 0.950 . S
H153 C161 0.949 1_545 S
H154 C162 0.950 . S
H155 C163 0.951 . S
H156 C164 0.951 . S
C157 C151 1.265 . S
C157 H152 0.950 . S
C157 C158 1.478 . S
C158 C157 1.478 . S
C158 C159 1.397 . S
C158 C175 1.394 1_565 S
C159 C158 1.397 . S
C159 C160 1.445 . S
C159 C164 1.429 . S
C160 C159 1.445 . S
C160 C161 1.436 . S
C160 C173 1.378 1_565 S
C161 H153 0.949 1_565 S
C161 C160 1.436 . S
C161 C162 1.345 . S
C162 H154 0.950 . S
C162 C161 1.345 . S
C162 C163 1.424 . S
C163 H155 0.951 . S
C163 C162 1.424 . S
C163 C164 1.347 . S
C164 H156 0.951 . S
C164 C159 1.429 . S
C164 C163 1.347 . S
H165 C166 0.951 . S
C166 H165 0.951 . S
C166 C172 1.265 . S
H167 C172 0.950 . S
H168 C176 0.949 . S
H169 C177 0.950 . S
H170 C178 0.951 . S
H171 C179 0.951 . S
C172 C166 1.265 . S
C172 H167 0.950 . S
C172 C173 1.478 . S
C173 C160 1.378 1_545 S
C173 C172 1.478 . S
C173 C174 1.397 . S
C174 C173 1.397 . S
C174 C175 1.438 . S
C174 C179 1.429 . S
C175 C158 1.394 1_545 S
C175 C174 1.438 . S
C175 C176 1.428 . S
C176 H168 0.949 . S
C176 C175 1.428 . S
C176 C177 1.345 . S
C177 H169 0.950 . S
C177 C176 1.345 . S
C177 C178 1.424 . S
C178 H170 0.951 . S
C178 C177 1.424 . S
C178 C179 1.347 . S
C179 H171 0.951 . S
C179 C174 1.429 . S
C179 C178 1.347 . S
H180 C181 0.951 . S
C181 H180 0.951 . S
C181 C187 1.265 . S
H182 C187 0.950 . S
H183 C191 0.949 . S
H184 C192 0.950 . S
H185 C193 0.951 . S
H186 C194 0.951 . S
C187 C181 1.265 . S
C187 H182 0.950 . S
C187 C188 1.478 . S
C188 C187 1.478 . S
C188 C189 1.397 . S
C188 C205 1.394 . S
C189 C188 1.397 . S
C189 C190 1.438 . S
C189 C194 1.429 . S
C190 C189 1.438 . S
C190 C191 1.428 . S
C190 C203 1.394 . S
C191 H183 0.949 . S
C191 C190 1.428 . S
C191 C192 1.345 . S
C192 H184 0.950 . S
C192 C191 1.345 . S
C192 C193 1.424 . S
C193 H185 0.951 . S
C193 C192 1.424 . S
C193 C194 1.347 . S
C194 H186 0.951 . S
C194 C189 1.429 . S
C194 C193 1.347 . S
H195 C196 0.951 . S
C196 H195 0.951 . S
C196 C202 1.265 . S
H197 C202 0.950 . S
H198 C206 0.949 . S
H199 C207 0.950 . S
H200 C208 0.951 . S
H201 C209 0.951 . S
C202 C196 1.265 . S
C202 H197 0.950 . S
C202 C203 1.478 . S
C203 C190 1.394 . S
C203 C202 1.478 . S
C203 C204 1.397 . S
C204 C203 1.397 . S
C204 C205 1.438 . S
C204 C209 1.429 . S
C205 C188 1.394 . S
C205 C204 1.438 . S
C205 C206 1.428 . S
C206 H198 0.949 . S
C206 C205 1.428 . S
C206 C207 1.345 . S
C207 H199 0.950 . S
C207 C206 1.345 . S
C207 C208 1.424 . S
C208 H200 0.951 . S
C208 C207 1.424 . S
C208 C209 1.347 . S
C209 H201 0.951 . S
C209 C204 1.429 . S
C209 C208 1.347 . S
H210 C211 0.951 . S
C211 H210 0.951 . S
C211 C217 1.265 . S
H212 C217 0.950 . S
H213 C221 0.949 . S
H214 C222 0.950 . S
H215 C223 0.951 . S
H216 C224 0.951 . S
C217 C211 1.265 . S
C217 H212 0.950 . S
C217 C218 1.478 . S
C218 C217 1.478 . S
C218 C219 1.397 . S
C218 C235 1.394 . S
C219 C218 1.397 . S
C219 C220 1.438 . S
C219 C224 1.429 . S
C220 C219 1.438 . S
C220 C221 1.428 . S
C220 C233 1.394 . S
C221 H213 0.949 . S
C221 C220 1.428 . S
C221 C222 1.345 . S
C222 H214 0.950 . S
C222 C221 1.345 . S
C222 C223 1.424 . S
C223 H215 0.951 . S
C223 C222 1.424 . S
C223 C224 1.347 . S
C224 H216 0.951 . S
C224 C219 1.429 . S
C224 C223 1.347 . S
H225 C226 0.951 . S
C226 H225 0.951 . S
C226 C232 1.265 . S
H227 C232 0.950 . S
H228 C236 0.949 . S
H229 C237 0.950 . S
H230 C238 0.951 . S
H231 C239 0.951 . S
C232 C226 1.265 . S
C232 H227 0.950 . S
C232 C233 1.478 . S
C233 C220 1.394 . S
C233 C232 1.478 . S
C233 C234 1.397 . S
C234 C233 1.397 . S
C234 C235 1.438 . S
C234 C239 1.429 . S
C235 C218 1.394 . S
C235 C234 1.438 . S
C235 C236 1.428 . S
C236 H228 0.949 . S
C236 C235 1.428 . S
C236 C237 1.345 . S
C237 H229 0.950 . S
C237 C236 1.345 . S
C237 C238 1.424 . S
C238 H230 0.951 . S
C238 C237 1.424 . S
C238 C239 1.347 . S
C239 H231 0.951 . S
C239 C234 1.429 . S
C239 C238 1.347 . S
H240 C241 0.951 . S
C241 H240 0.951 . S
C241 C247 1.265 1_554 S
H242 C247 0.950 . S
H243 C251 0.949 . S
H244 C252 0.950 . S
H245 C253 0.951 . S
H246 C254 0.951 . S
C247 C241 1.265 1_556 S
C247 H242 0.950 . S
C247 C248 1.478 1_556 S
C248 C247 1.478 1_554 S
C248 C249 1.397 1_554 S
C248 C265 1.394 . S
C249 C248 1.397 1_556 S
C249 C250 1.438 . S
C249 C254 1.429 . S
C250 C249 1.438 . S
C250 C251 1.428 . S
C250 C263 1.394 1_556 S
C251 H243 0.949 . S
C251 C250 1.428 . S
C251 C252 1.345 . S
C252 H244 0.950 . S
C252 C251 1.345 . S
C252 C253 1.424 . S
C253 H245 0.951 . S
C253 C252 1.424 . S
C253 C254 1.347 . S
C254 H246 0.951 . S
C254 C249 1.429 . S
C254 C253 1.347 . S
H255 C256 0.951 . S
C256 H255 0.951 . S
C256 C262 1.265 . S
H257 C262 0.950 . S
H258 C266 0.949 . S
H259 C267 0.950 . S
H260 C268 0.951 . S
H261 C269 0.951 . S
C262 C256 1.265 . S
C262 H257 0.950 . S
C262 C263 1.478 . S
C263 C250 1.394 1_554 S
C263 C262 1.478 . S
C263 C264 1.397 . S
C264 C263 1.397 . S
C264 C265 1.438 . S
C264 C269 1.429 . S
C265 C248 1.394 . S
C265 C264 1.438 . S
C265 C266 1.428 . S
C266 H258 0.949 . S
C266 C265 1.428 . S
C266 C267 1.345 . S
C267 H259 0.950 . S
C267 C266 1.345 . S
C267 C268 1.424 . S
C268 H260 0.951 . S
C268 C267 1.424 . S
C268 C269 1.347 . S
C269 H261 0.951 . S
C269 C264 1.429 . S
C269 C268 1.347 . S
H270 C271 0.951 . S
C271 H270 0.951 . S
C271 C277 1.265 1_455 S
H272 C277 0.950 . S
H273 C281 0.949 . S
H274 C282 0.950 . S
H275 C283 0.951 . S
H276 C284 0.951 . S
C277 C271 1.265 1_655 S
C277 H272 0.950 . S
C277 C278 1.478 . S
C278 C277 1.478 . S
C278 C279 1.397 . S
C278 C295 1.394 1_655 S
C279 C278 1.397 . S
C279 C280 1.438 . S
C279 C284 1.429 . S
C280 C279 1.438 . S
C280 C281 1.428 . S
C280 C293 1.394 1_655 S
C281 H273 0.949 . S
C281 C280 1.428 . S
C281 C282 1.345 . S
C282 H274 0.950 . S
C282 C281 1.345 . S
C282 C283 1.424 . S
C283 H275 0.951 . S
C283 C282 1.424 . S
C283 C284 1.347 . S
C284 H276 0.951 . S
C284 C279 1.429 . S
C284 C283 1.347 . S
H285 C286 0.951 1_655 S
C286 H285 0.951 1_455 S
C286 C292 1.265 . S
H287 C292 0.950 . S
H288 C296 0.949 . S
H289 C297 0.950 . S
H290 C298 0.951 . S
H291 C299 0.951 . S
C292 C286 1.265 . S
C292 H287 0.950 . S
C292 C293 1.478 . S
C293 C280 1.394 1_455 S
C293 C292 1.478 . S
C293 C294 1.397 . S
C294 C293 1.397 . S
C294 C295 1.438 . S
C294 C299 1.429 . S
C295 C278 1.394 1_455 S
C295 C294 1.438 . S
C295 C296 1.428 . S
C296 H288 0.949 . S
C296 C295 1.428 . S
C296 C297 1.345 . S
C297 H289 0.950 . S
C297 C296 1.345 . S
C297 C298 1.424 . S
C298 H290 0.951 . S
C298 C297 1.424 . S
C298 C299 1.347 . S
C299 H291 0.951 . S
C299 C294 1.429 . S
C299 C298 1.347 . S
H300 C301 0.951 1_565 S
C301 H300 0.951 1_545 S
C301 C307 1.265 1_455 S
H302 C307 0.950 . S
H303 C311 0.949 . S
H304 C312 0.950 . S
H305 C313 0.951 . S
H306 C314 0.951 1_655 S
C307 C301 1.265 1_655 S
C307 H302 0.950 . S
C307 C308 1.478 1_655 S
C308 C307 1.478 1_455 S
C308 C309 1.397 . S
C308 C325 1.394 1_545 S
C309 C308 1.397 . S
C309 C310 1.438 . S
C309 C314 1.429 . S
C310 C309 1.438 . S
C310 C311 1.428 . S
C310 C323 1.394 1_545 S
C311 H303 0.949 . S
C311 C310 1.428 . S
C311 C312 1.345 . S
C312 H304 0.950 . S
C312 C311 1.345 . S
C312 C313 1.424 . S
C313 H305 0.951 . S
C313 C312 1.424 . S
C313 C314 1.347 . S
C314 H306 0.951 1_455 S
C314 C309 1.429 . S
C314 C313 1.347 . S
H315 C316 0.951 1_655 S
C316 H315 0.951 1_455 S
C316 C322 1.265 1_545 S
H317 C322 0.950 . S
H318 C326 0.949 1_655 S
H319 C327 0.950 . S
H320 C328 0.951 . S
H321 C329 0.951 . S
C322 C316 1.265 1_565 S
C322 H317 0.950 . S
C322 C323 1.478 . S
C323 C310 1.394 1_565 S
C323 C322 1.478 . S
C323 C324 1.397 . S
C324 C323 1.397 . S
C324 C325 1.438 . S
C324 C329 1.429 . S
C325 C308 1.394 1_565 S
C325 C324 1.438 . S
C325 C326 1.428 . S
C326 H318 0.949 1_455 S
C326 C325 1.428 . S
C326 C327 1.345 . S
C327 H319 0.950 . S
C327 C326 1.345 . S
C327 C328 1.424 . S
C328 H320 0.951 . S
C328 C327 1.424 . S
C328 C329 1.347 . S
C329 H321 0.951 . S
C329 C324 1.429 . S
C329 C328 1.347 . S
H330 C331 0.951 . S
C331 H330 0.951 . S
C331 C337 1.265 1_655 S
H332 C337 0.950 . S
H333 C341 0.949 . S
H334 C342 0.950 . S
H335 C343 0.951 . S
H336 C344 0.951 . S
C337 C331 1.265 1_455 S
C337 H332 0.950 . S
C337 C338 1.478 . S
C338 C337 1.478 . S
C338 C339 1.397 . S
C338 C355 1.394 1_455 S
C339 C338 1.397 . S
C339 C340 1.438 . S
C339 C344 1.429 . S
C340 C339 1.438 . S
C340 C341 1.428 . S
C340 C353 1.394 1_455 S
C341 H333 0.949 . S
C341 C340 1.428 . S
C341 C342 1.345 . S
C342 H334 0.950 . S
C342 C341 1.345 . S
C342 C343 1.424 . S
C343 H335 0.951 . S
C343 C342 1.424 . S
C343 C344 1.347 . S
C344 H336 0.951 . S
C344 C339 1.429 . S
C344 C343 1.347 . S
H345 C346 0.951 . S
C346 H345 0.951 . S
C346 C352 1.265 1_455 S
H347 C352 0.950 . S
H348 C356 0.949 . S
H349 C357 0.950 . S
H350 C358 0.951 . S
H351 C359 0.951 . S
C352 C346 1.265 1_655 S
C352 H347 0.950 . S
C352 C353 1.478 . S
C353 C340 1.394 1_655 S
C353 C352 1.478 . S
C353 C354 1.397 . S
C354 C353 1.397 . S
C354 C355 1.438 . S
C354 C359 1.429 1_545 S
C355 C338 1.394 1_655 S
C355 C354 1.438 . S
C355 C356 1.428 1_545 S
C356 H348 0.949 . S
C356 C355 1.428 1_565 S
C356 C357 1.345 . S
C357 H349 0.950 . S
C357 C356 1.345 . S
C357 C358 1.424 . S
C358 H350 0.951 . S
C358 C357 1.424 . S
C358 C359 1.347 . S
C359 H351 0.951 . S
C359 C354 1.429 1_565 S
C359 C358 1.347 . S
H360 C361 0.951 1_655 S
C361 H360 0.951 1_455 S
C361 C367 1.265 . S
H362 C367 0.950 . S
H363 C371 0.949 . S
H364 C372 0.950 . S
H365 C373 0.951 . S
H366 C374 0.951 . S
C367 C361 1.265 . S
C367 H362 0.950 . S
C367 C368 1.478 . S
C368 C367 1.478 . S
C368 C369 1.397 . S
C368 C385 1.394 1_445 S
C369 C368 1.397 . S
C369 C370 1.438 . S
C369 C374 1.429 . S
C370 C369 1.438 . S
C370 C371 1.428 . S
C370 C383 1.394 . S
C371 H363 0.949 . S
C371 C370 1.428 . S
C371 C372 1.345 . S
C372 H364 0.950 . S
C372 C371 1.345 . S
C372 C373 1.424 . S
C373 H365 0.951 . S
C373 C372 1.424 . S
C373 C374 1.347 . S
C374 H366 0.951 . S
C374 C369 1.429 . S
C374 C373 1.347 . S
H375 C376 0.951 . S
C376 H375 0.951 . S
C376 C382 1.265 1_455 S
H377 C382 0.950 . S
H378 C386 0.949 . S
H379 C387 0.950 . S
H380 C388 0.951 . S
H381 C389 0.951 . S
C382 C376 1.265 1_655 S
C382 H377 0.950 . S
C382 C383 1.478 1_655 S
C383 C370 1.394 . S
C383 C382 1.478 1_455 S
C383 C384 1.397 1_445 S
C384 C383 1.397 1_665 S
C384 C385 1.438 . S
C384 C389 1.429 . S
C385 C368 1.394 1_665 S
C385 C384 1.438 . S
C385 C386 1.428 . S
C386 H378 0.949 . S
C386 C385 1.428 . S
C386 C387 1.345 . S
C387 H379 0.950 . S
C387 C386 1.345 . S
C387 C388 1.424 . S
C388 H380 0.951 . S
C388 C387 1.424 . S
C388 C389 1.347 . S
C389 H381 0.951 . S
C389 C384 1.429 . S
C389 C388 1.347 . S
C121 C13 2.837 . S
C136 C24 2.837 . S
C151 C57 1.009 . S
C166 C66 1.009 . S
C181 C106 0.829 . S
C196 C97 0.829 . S
C211 C93 4.800 . S
C226 C104 4.800 . S
C241 C17 0.398 . S
C256 C26 0.398 . S
C271 C53 2.868 1_455 S
C286 C64 2.868 . S
C301 C42 1.518 1_455 S
C316 C2 1.502 . S
C331 C63 1.509 1_655 S
C346 C82 1.465 1_455 S
C361 C103 1.511 . S
C376 C23 1.515 . S
