# Generated by pormake.
# Topology sra, (4)-cn, num edge types: 1
# Building blocks:
#     Node 0, Type 0, BuildingBlock: UXUYUI_clean_sbu_0, # of connection points: 4
#     Node 1, Type 0, BuildingBlock: UXUYUI_clean_sbu_0, # of connection points: 4
#     Node 2, Type 0, BuildingBlock: UXUYUI_clean_sbu_0, # of connection points: 4
#     Node 3, Type 0, BuildingBlock: UXUYUI_clean_sbu_0, # of connection points: 4
#     Node 4, Type 0, BuildingBlock: UXUYUI_clean_sbu_0, # of connection points: 4
#     Node 5, Type 0, BuildingBlock: UXUYUI_clean_sbu_0, # of connection points: 4
#     Node 6, Type 0, BuildingBlock: UXUYUI_clean_sbu_0, # of connection points: 4
#     Node 7, Type 0, BuildingBlock: UXUYUI_clean_sbu_0, # of connection points: 4
#     Edge 8, Type (0, 0), BuildingBlock: XIVTED_clean_linker_0, # of connection points: 2
#     Edge 9, Type (0, 0), BuildingBlock: XIVTED_clean_linker_0, # of connection points: 2
#     Edge 10, Type (0, 0), BuildingBlock: XIVTED_clean_linker_0, # of connection points: 2
#     Edge 11, Type (0, 0), BuildingBlock: XIVTED_clean_linker_0, # of connection points: 2
#     Edge 12, Type (0, 0), BuildingBlock: XIVTED_clean_linker_0, # of connection points: 2
#     Edge 13, Type (0, 0), BuildingBlock: XIVTED_clean_linker_0, # of connection points: 2
#     Edge 14, Type (0, 0), BuildingBlock: XIVTED_clean_linker_0, # of connection points: 2
#     Edge 15, Type (0, 0), BuildingBlock: XIVTED_clean_linker_0, # of connection points: 2
#     Edge 16, Type (0, 0), BuildingBlock: XIVTED_clean_linker_0, # of connection points: 2
#     Edge 17, Type (0, 0), BuildingBlock: XIVTED_clean_linker_0, # of connection points: 2
#     Edge 18, Type (0, 0), BuildingBlock: XIVTED_clean_linker_0, # of connection points: 2
#     Edge 19, Type (0, 0), BuildingBlock: XIVTED_clean_linker_0, # of connection points: 2
#     Edge 20, Type (0, 0), BuildingBlock: XIVTED_clean_linker_0, # of connection points: 2
#     Edge 21, Type (0, 0), BuildingBlock: XIVTED_clean_linker_0, # of connection points: 2
#     Edge 22, Type (0, 0), BuildingBlock: XIVTED_clean_linker_0, # of connection points: 2
#     Edge 23, Type (0, 0), BuildingBlock: XIVTED_clean_linker_0, # of connection points: 2
# Relax obj value: 0.133
# Max RMSD: 0.099
# Mean RMSD: 0.099
data_MOF--net-sra--node1-UXUYUI_clean_sbu_0--edge1-XIVTED_clean_linker_0
_symmetry_space_group_name_H-M    P1
_symmetry_Int_Tables_number       1
_symmetry_cell_setting            triclinic
loop_
_symmetry_equiv_pos_as_xyz
'x, y, z'
_cell_length_a     38.039806
_cell_length_b     63.372575
_cell_length_c     63.180743
_cell_angle_alpha  90.013856
_cell_angle_beta   90.013511
_cell_angle_gamma 90.00246
loop_
_atom_site_label
_atom_site_type_symbol
_atom_site_fract_x
_atom_site_fract_y
_atom_site_fract_z
_atom_type_partial_charge
Li0 Li 0.99618 0.0956 0.15503 0.0
Li1 Li 0.02933 0.06634 0.17343 0.0
Li2 Li 0.99862 0.06122 0.13792 0.0
Li3 Li 0.96576 0.06517 0.16975 0.0
C4 C 0.06235 0.09432 0.13777 0.0
N5 N 0.10951 0.12397 0.12285 0.0
C6 C 0.0912 0.10029 0.15011 0.0
C7 C 0.05774 0.10326 0.11774 0.0
C8 C 0.11469 0.11535 0.14231 0.0
C9 C 0.08178 0.11827 0.11051 0.0
C10 C 0.97259 0.09197 0.20115 0.0
C11 C 0.94873 0.08594 0.236 0.0
N12 N 0.92516 0.10176 0.23279 0.0
C13 C 0.94816 0.10817 0.19821 0.0
C14 C 0.97292 0.08075 0.2202 0.0
C15 C 0.9244 0.11289 0.2144 0.0
C16 C 0.96619 0.13474 0.14286 0.0
N17 N 0.99528 0.12546 0.15124 0.0
C18 C 0.02242 0.15911 0.15631 0.0
C19 C 0.02288 0.13718 0.15824 0.0
C20 C 0.99272 0.16908 0.14777 0.0
C21 C 0.96427 0.15668 0.14107 0.0
H22 H 0.94412 0.12513 0.13803 0.0
H23 H 0.04498 0.12955 0.16574 0.0
C24 C 0.09729 0.04978 0.18158 0.0
N25 N 0.06976 0.0606 0.18996 0.0
C26 C 0.12851 0.04756 0.19308 0.0
C27 C 0.10171 0.06689 0.22184 0.0
C28 C 0.07136 0.06902 0.20969 0.0
C29 C 0.13121 0.05647 0.21343 0.0
H30 H 0.0954 0.04352 0.16569 0.0
H31 H 0.0494 0.07791 0.2158 0.0
C32 C 0.93991 0.07933 0.12361 0.0
N33 N 0.90626 0.07835 0.08485 0.0
C34 C 0.91028 0.06661 0.12069 0.0
C35 C 0.95221 0.0917 0.10687 0.0
C36 C 0.89368 0.0663 0.10096 0.0
C37 C 0.93491 0.09095 0.08738 0.0
C38 C 0.98739 0.02432 0.17178 0.0
C39 C 0.95755 0.01474 0.16315 0.0
C40 C 0.00409 0.01518 0.18922 0.0
C41 C 0.94465 0.99623 0.1723 0.0
C42 C 0.99041 0.99664 0.19789 0.0
N43 N 0.96121 0.98764 0.18933 0.0
C44 C 0.03182 0.04949 0.09949 0.0
C45 C 0.97531 0.03471 0.10461 0.0
C46 C 0.03459 0.03974 0.07972 0.0
N47 N 0.00229 0.04705 0.11134 0.0
C48 C 0.97666 0.02499 0.08483 0.0
C49 C 0.00658 0.02745 0.07198 0.0
H50 H 0.05331 0.05894 0.10541 0.0
H51 H 0.95246 0.03259 0.11447 0.0
C52 C 0.89363 0.06795 0.17806 0.0
N53 N 0.92323 0.05773 0.18437 0.0
C54 C 0.86182 0.06457 0.18849 0.0
C55 C 0.89151 0.04046 0.2121 0.0
C56 C 0.92278 0.04431 0.20118 0.0
C57 C 0.86047 0.05069 0.2058 0.0
H58 H 0.8949 0.0792 0.16523 0.0
H59 H 0.94681 0.03702 0.20655 0.0
O60 O 0.03898 0.07967 0.14519 0.0
O61 O 0.99535 0.08673 0.18521 0.0
O62 O 0.95676 0.07969 0.14275 0.0
O63 O 0.00059 0.04238 0.16305 0.0
H64 H 0.09521 0.09359 0.16566 0.0
H65 H 0.0359 0.09861 0.10784 0.0
H66 H 0.13698 0.12021 0.15175 0.0
H67 H 0.07844 0.12537 0.09507 0.0
H68 H 0.9485 0.07728 0.25075 0.0
H69 H 0.94723 0.11686 0.18351 0.0
H70 H 0.99105 0.06782 0.2226 0.0
H71 H 0.90525 0.12533 0.21229 0.0
H72 H 0.04454 0.16824 0.16205 0.0
H73 H 0.94082 0.16389 0.13456 0.0
H74 H 0.15061 0.03965 0.18577 0.0
H75 H 0.10214 0.07367 0.23757 0.0
H76 H 0.90056 0.05676 0.13339 0.0
H77 H 0.97484 0.10179 0.10891 0.0
H78 H 0.8709 0.0564 0.09844 0.0
H79 H 0.94424 0.10038 0.07427 0.0
H80 H 0.94416 0.02171 0.14978 0.0
H81 H 0.02729 0.02238 0.19603 0.0
H82 H 0.92143 0.98872 0.1659 0.0
H83 H 0.00298 0.98941 0.21143 0.0
H84 H 0.05857 0.04172 0.07072 0.0
H85 H 0.95415 0.01594 0.07959 0.0
H86 H 0.83877 0.07324 0.18343 0.0
H87 H 0.89172 0.02968 0.22539 0.0
Li88 Li 0.99688 0.4345 0.13725 0.0
Li89 Li 0.03001 0.43107 0.16973 0.0
Li90 Li 0.99598 0.40113 0.15598 0.0
Li91 Li 0.96585 0.43202 0.17259 0.0
C92 C 0.05807 0.41688 0.12598 0.0
N93 N 0.10045 0.421 0.09072 0.0
C94 C 0.08785 0.42979 0.1267 0.0
C95 C 0.05005 0.4059 0.10742 0.0
C96 C 0.10891 0.43169 0.10868 0.0
C97 C 0.07173 0.40825 0.08973 0.0
C98 C 0.00369 0.47339 0.17119 0.0
C99 C 0.00017 0.49609 0.20177 0.0
N100 N 0.01538 0.51191 0.19046 0.0
C101 C 0.0191 0.4899 0.15983 0.0
C102 C 0.99398 0.47652 0.19229 0.0
C103 C 0.02487 0.50924 0.16988 0.0
C104 C 0.96802 0.44416 0.09703 0.0
N105 N 0.99577 0.4476 0.11014 0.0
C106 C 0.02357 0.46938 0.0842 0.0
C107 C 0.02297 0.46022 0.10427 0.0
C108 C 0.99555 0.46582 0.07017 0.0
C109 C 0.96734 0.45318 0.07687 0.0
H110 H 0.94641 0.43438 0.10219 0.0
H111 H 0.04433 0.46311 0.11517 0.0
C112 C 0.09606 0.42021 0.18427 0.0
N113 N 0.07404 0.43707 0.18336 0.0
C114 C 0.12851 0.42179 0.19439 0.0
C115 C 0.11594 0.4584 0.20182 0.0
C116 C 0.08344 0.45601 0.19177 0.0
C117 C 0.13895 0.4411 0.20337 0.0
H118 H 0.0881 0.40536 0.17732 0.0
H119 H 0.066 0.46933 0.19079 0.0
C120 C 0.93268 0.40272 0.13719 0.0
N121 N 0.88843 0.3718 0.12166 0.0
C122 C 0.90178 0.39762 0.14801 0.0
C123 C 0.94096 0.39219 0.1184 0.0
C124 C 0.87977 0.38192 0.13991 0.0
C125 C 0.9183 0.37657 0.11083 0.0
C126 C 0.0183 0.40553 0.20254 0.0
C127 C 0.03349 0.38545 0.20326 0.0
C128 C 0.02469 0.41982 0.21897 0.0
C129 C 0.05505 0.38007 0.22033 0.0
C130 C 0.04648 0.41385 0.23573 0.0
N131 N 0.06109 0.39427 0.23606 0.0
C132 C 0.02159 0.36099 0.14387 0.0
C133 C 0.96638 0.36051 0.16116 0.0
C134 C 0.02135 0.33901 0.14218 0.0
N135 N 0.99428 0.37123 0.15314 0.0
C136 C 0.96464 0.33859 0.15939 0.0
C137 C 0.99249 0.32742 0.14992 0.0
H138 H 0.04389 0.36986 0.13811 0.0
H139 H 0.94548 0.36899 0.16901 0.0
C140 C 0.89674 0.44773 0.17938 0.0
N141 N 0.92592 0.43971 0.18885 0.0
C142 C 0.86606 0.45099 0.19115 0.0
C143 C 0.89681 0.43871 0.22228 0.0
C144 C 0.92656 0.43536 0.20988 0.0
C145 C 0.86564 0.44609 0.21288 0.0
H146 H 0.8969 0.45079 0.16253 0.0
H147 H 0.95 0.42886 0.21697 0.0
O148 O 0.03693 0.41497 0.14339 0.0
O149 O 0.9976 0.45443 0.16152 0.0
O150 O 0.95475 0.41789 0.14499 0.0
O151 O 0.99763 0.41122 0.18575 0.0
H152 H 0.0944 0.43848 0.14089 0.0
H153 H 0.02727 0.39573 0.10665 0.0
H154 H 0.1319 0.44173 0.10896 0.0
H155 H 0.06573 0.39993 0.07522 0.0
H156 H 0.99292 0.49869 0.21811 0.0
H157 H 0.02656 0.48781 0.14345 0.0
H158 H 0.98208 0.46396 0.20132 0.0
H159 H 0.03687 0.52214 0.1613 0.0
H160 H 0.04553 0.47933 0.07979 0.0
H161 H 0.94528 0.45 0.0665 0.0
H162 H 0.1449 0.40787 0.19545 0.0
H163 H 0.12299 0.4737 0.20813 0.0
H164 H 0.89504 0.40551 0.16264 0.0
H165 H 0.96472 0.39596 0.10983 0.0
H166 H 0.85586 0.37774 0.14817 0.0
H167 H 0.92447 0.36822 0.09637 0.0
H168 H 0.02891 0.37417 0.19073 0.0
H169 H 0.01348 0.43549 0.21861 0.0
H170 H 0.06708 0.36462 0.22104 0.0
H171 H 0.05189 0.42483 0.24844 0.0
H172 H 0.04392 0.33124 0.13526 0.0
H173 H 0.94156 0.33058 0.16535 0.0
H174 H 0.84264 0.45646 0.18312 0.0
H175 H 0.89813 0.43515 0.23902 0.0
Li176 Li 0.00352 0.93556 0.85814 0.0
Li177 Li 0.97088 0.93193 0.82556 0.0
Li178 Li 0.00713 0.90293 0.83858 0.0
Li179 Li 0.03487 0.93505 0.8228 0.0
C180 C 0.94397 0.91618 0.86906 0.0
N181 N 0.90177 0.91858 0.90456 0.0
C182 C 0.91196 0.92698 0.86822 0.0
C183 C 0.95441 0.90648 0.88791 0.0
C184 C 0.891 0.92802 0.88635 0.0
C185 C 0.93275 0.90793 0.90571 0.0
C186 C 0.99183 0.97509 0.82612 0.0
C187 C 0.99384 0.00072 0.79793 0.0
N188 N 0.97344 0.01393 0.80964 0.0
C189 C 0.97108 0.98897 0.83793 0.0
C190 C 0.00349 0.98103 0.806 0.0
C191 C 0.96198 0.00851 0.82929 0.0
C192 C 0.03502 0.94639 0.897 0.0
N193 N 0.00487 0.94805 0.88556 0.0
C194 C 0.97704 0.96707 0.91359 0.0
C195 C 0.97637 0.95848 0.89325 0.0
C196 C 0.0077 0.96541 0.92582 0.0
C197 C 0.0371 0.95512 0.91726 0.0
H198 H 0.05748 0.93828 0.8904 0.0
H199 H 0.95303 0.96006 0.88366 0.0
C200 C 0.90662 0.91908 0.80982 0.0
N201 N 0.92696 0.93667 0.81133 0.0
C202 C 0.87499 0.91958 0.79868 0.0
C203 C 0.88457 0.95663 0.79178 0.0
C204 C 0.91648 0.9553 0.80266 0.0
C205 C 0.86374 0.93853 0.78948 0.0
H206 H 0.91538 0.90451 0.81701 0.0
H207 H 0.93281 0.9691 0.80382 0.0
C208 C 0.07046 0.90513 0.85568 0.0
N209 N 0.11711 0.87362 0.86679 0.0
C210 C 0.09945 0.90077 0.84281 0.0
C211 C 0.06535 0.89361 0.87428 0.0
C212 C 0.12271 0.88475 0.84869 0.0
C213 C 0.08918 0.87769 0.87959 0.0
C214 C 0.98677 0.90929 0.79119 0.0
C215 C 0.97067 0.88962 0.78867 0.0
C216 C 0.98351 0.92453 0.77533 0.0
C217 C 0.95113 0.88562 0.77038 0.0
C218 C 0.96368 0.91993 0.75729 0.0
N219 N 0.94802 0.90075 0.75522 0.0
C220 C 0.98785 0.86211 0.8523 0.0
C221 C 0.03666 0.86313 0.82903 0.0
C222 C 0.98978 0.84015 0.85341 0.0
N223 N 0.0112 0.87309 0.84033 0.0
C224 C 0.03975 0.84118 0.82981 0.0
C225 C 0.01601 0.82935 0.84207 0.0
H226 H 0.96736 0.87038 0.86074 0.0
H227 H 0.05448 0.87225 0.81934 0.0
C228 C 0.09591 0.95938 0.81575 0.0
N229 N 0.07398 0.94477 0.80718 0.0
C230 C 0.12651 0.96531 0.80505 0.0
C231 C 0.11074 0.94138 0.77676 0.0
C232 C 0.08057 0.93588 0.78803 0.0
C233 C 0.13443 0.95607 0.78538 0.0
H234 H 0.08997 0.96608 0.83109 0.0
H235 H 0.06288 0.92408 0.78177 0.0
O236 O 0.96493 0.91506 0.85151 0.0
O237 O 0.00131 0.95602 0.83443 0.0
O238 O 0.04706 0.92049 0.85001 0.0
O239 O 0.00523 0.91369 0.80922 0.0
H240 H 0.90351 0.93465 0.8538 0.0
H241 H 0.97912 0.89809 0.88884 0.0
H242 H 0.86624 0.9364 0.88596 0.0
H243 H 0.9406 0.90061 0.92043 0.0
H244 H 0.00255 0.00549 0.78235 0.0
H245 H 0.962 0.98466 0.85356 0.0
H246 H 0.01965 0.97054 0.79666 0.0
H247 H 0.94582 0.01938 0.83822 0.0
H248 H 0.95402 0.97515 0.91961 0.0
H249 H 0.06118 0.95355 0.92627 0.0
H250 H 0.8594 0.90533 0.79733 0.0
H251 H 0.87669 0.97149 0.78477 0.0
H252 H 0.10377 0.90954 0.82835 0.0
H253 H 0.04308 0.89683 0.88442 0.0
H254 H 0.14517 0.88113 0.83884 0.0
H255 H 0.08544 0.86856 0.89387 0.0
H256 H 0.9729 0.87767 0.80083 0.0
H257 H 0.99579 0.93983 0.77706 0.0
H258 H 0.93832 0.87053 0.76827 0.0
H259 H 0.96068 0.93164 0.74496 0.0
H260 H 0.9704 0.83173 0.86268 0.0
H261 H 0.06059 0.83362 0.82094 0.0
H262 H 0.14393 0.9768 0.81218 0.0
H263 H 0.11609 0.9336 0.76185 0.0
Li264 Li 0.96835 0.56815 0.82547 0.0
Li265 Li 0.00293 0.59741 0.83986 0.0
Li266 Li 0.03124 0.56526 0.82342 0.0
Li267 Li 0.00366 0.56286 0.85839 0.0
C268 C 0.98251 0.59218 0.79247 0.0
N269 N 0.94262 0.60181 0.75724 0.0
C270 C 0.96545 0.61166 0.79105 0.0
C271 C 0.97964 0.5777 0.77588 0.0
C272 C 0.94533 0.61621 0.77312 0.0
C273 C 0.95922 0.58283 0.75823 0.0
C274 C 0.94711 0.59161 0.8703 0.0
C275 C 0.94943 0.60568 0.90575 0.0
N276 N 0.9146 0.61039 0.90459 0.0
C277 C 0.91126 0.5964 0.86954 0.0
C278 C 0.96629 0.59614 0.8886 0.0
C279 C 0.89534 0.60597 0.887 0.0
C280 C 0.91596 0.54353 0.80406 0.0
N281 N 0.92456 0.56277 0.81204 0.0
C282 C 0.86956 0.5771 0.8009 0.0
C283 C 0.90212 0.57938 0.81073 0.0
C284 C 0.85969 0.55743 0.79251 0.0
C285 C 0.88344 0.54048 0.79415 0.0
H286 H 0.93425 0.53055 0.80545 0.0
H287 H 0.90974 0.5945 0.81718 0.0
C288 C 0.03673 0.63654 0.83672 0.0
N289 N 0.00602 0.62724 0.84252 0.0
C290 C 0.04028 0.65846 0.83755 0.0
C291 C 0.98054 0.66079 0.85038 0.0
C292 C 0.97806 0.63885 0.84914 0.0
C293 C 0.01192 0.67087 0.84446 0.0
H294 H 0.05841 0.62688 0.83133 0.0
H295 H 0.9536 0.63119 0.85309 0.0
C296 C 0.01218 0.52492 0.82765 0.0
N297 N 0.04327 0.48759 0.81507 0.0
C298 C 0.02817 0.5118 0.84259 0.0
C299 C 0.01165 0.51897 0.80635 0.0
C300 C 0.04382 0.493 0.8359 0.0
C301 C 0.02763 0.50007 0.80029 0.0
C302 C 0.06975 0.58668 0.86353 0.0
C303 C 0.10224 0.57636 0.86346 0.0
C304 C 0.0642 0.60348 0.87748 0.0
C305 C 0.12835 0.58274 0.87764 0.0
C306 C 0.09098 0.6094 0.8914 0.0
N307 N 0.12222 0.59898 0.89121 0.0
C308 C 0.07691 0.56625 0.78835 0.0
C309 C 0.09346 0.54185 0.81495 0.0
C310 C 0.10736 0.56179 0.77685 0.0
N311 N 0.07076 0.55646 0.80712 0.0
C312 C 0.1242 0.53687 0.80397 0.0
C313 C 0.1318 0.54715 0.78481 0.0
H314 H 0.05872 0.57805 0.78263 0.0
H315 H 0.08824 0.53448 0.83003 0.0
C316 C 0.97332 0.54226 0.89303 0.0
N317 N 0.00446 0.54948 0.88537 0.0
C318 C 0.97176 0.53257 0.91285 0.0
C319 C 0.03442 0.53772 0.91643 0.0
C320 C 0.03478 0.54721 0.89651 0.0
C321 C 0.00259 0.53028 0.92491 0.0
H322 H 0.94966 0.5441 0.88371 0.0
H323 H 0.05929 0.55274 0.89001 0.0
O324 O 0.00172 0.58726 0.81008 0.0
O325 O 0.96303 0.58224 0.85329 0.0
O326 O 0.99688 0.54342 0.83389 0.0
O327 O 0.04399 0.58072 0.84958 0.0
H328 H 0.96744 0.62306 0.80375 0.0
H329 H 0.9928 0.56259 0.77671 0.0
H330 H 0.9318 0.63117 0.77186 0.0
H331 H 0.95655 0.57171 0.74534 0.0
H332 H 0.964 0.60926 0.92001 0.0
H333 H 0.89587 0.5928 0.8556 0.0
H334 H 0.99376 0.59206 0.88971 0.0
H335 H 0.86766 0.60985 0.88659 0.0
H336 H 0.85253 0.59073 0.79966 0.0
H337 H 0.87683 0.525 0.7881 0.0
H338 H 0.06498 0.66561 0.83294 0.0
H339 H 0.95785 0.66981 0.85542 0.0
H340 H 0.02869 0.51613 0.85915 0.0
H341 H -0.00073 0.52892 0.79462 0.0
H342 H 0.05645 0.48273 0.84727 0.0
H343 H 0.02763 0.49532 0.78385 0.0
H344 H 0.10721 0.56346 0.85272 0.0
H345 H 0.03968 0.61206 0.87748 0.0
H346 H 0.15351 0.57478 0.87783 0.0
H347 H 0.08697 0.62235 0.9023 0.0
H348 H 0.11235 0.57035 0.76234 0.0
H349 H 0.14208 0.52533 0.8106 0.0
H350 H 0.94672 0.52676 0.91853 0.0
H351 H 0.0588 0.53652 0.9252 0.0
Li352 Li 0.52946 0.56941 0.67353 0.0
Li353 Li 0.49561 0.59854 0.65797 0.0
Li354 Li 0.46635 0.56644 0.67374 0.0
Li355 Li 0.49618 0.56392 0.6396 0.0
C356 C 0.5114 0.59427 0.70607 0.0
N357 N 0.54598 0.60566 0.7428 0.0
C358 C 0.52588 0.61444 0.70808 0.0
C359 C 0.51407 0.57999 0.72285 0.0
C360 C 0.54335 0.61988 0.72676 0.0
C361 C 0.5318 0.58601 0.74126 0.0
C362 C 0.55565 0.5937 0.63063 0.0
C363 C 0.56087 0.60924 0.59591 0.0
N364 N 0.59459 0.61482 0.60036 0.0
C365 C 0.5905 0.59938 0.63476 0.0
C366 C 0.54082 0.5985 0.61097 0.0
C367 C 0.60969 0.61013 0.6193 0.0
C368 C 0.58088 0.54447 0.6953 0.0
N369 N 0.57185 0.56414 0.68861 0.0
C370 C 0.6226 0.57898 0.70513 0.0
C371 C 0.59228 0.58118 0.69297 0.0
C372 C 0.63235 0.55897 0.71259 0.0
C373 C 0.61141 0.54148 0.7073 0.0
H374 H 0.56423 0.53117 0.69151 0.0
H375 H 0.58468 0.59658 0.68723 0.0
C376 C 0.46054 0.63738 0.65867 0.0
N377 N 0.4924 0.62835 0.65505 0.0
C378 C 0.45666 0.65927 0.65765 0.0
C379 C 0.51841 0.66215 0.6491 0.0
C380 C 0.52116 0.64024 0.65048 0.0
C381 C 0.48587 0.67193 0.65281 0.0
H382 H 0.4382 0.62753 0.66251 0.0
H383 H 0.54642 0.63282 0.64834 0.0
C384 C 0.4859 0.52637 0.67123 0.0
N385 N 0.45394 0.48976 0.68513 0.0
C386 C 0.46975 0.51279 0.65676 0.0
C387 C 0.48621 0.5212 0.69273 0.0
C388 C 0.45364 0.49438 0.66411 0.0
C389 C 0.46977 0.50266 0.69946 0.0
C390 C 0.43239 0.58738 0.63144 0.0
C391 C 0.39952 0.57762 0.62992 0.0
C392 C 0.44127 0.60333 0.61712 0.0
C393 C 0.3765 0.58357 0.61376 0.0
C394 C 0.41752 0.60886 0.6012 0.0
N395 N 0.38591 0.59892 0.59984 0.0
C396 C 0.41938 0.56659 0.70818 0.0
C397 C 0.40287 0.54369 0.68024 0.0
C398 C 0.3885 0.56192 0.71914 0.0
N399 N 0.42582 0.5576 0.68905 0.0
C400 C 0.37164 0.53856 0.69065 0.0
C401 C 0.36389 0.54794 0.71025 0.0
H402 H 0.43773 0.57789 0.71466 0.0
H403 H 0.40843 0.53693 0.6649 0.0
C404 C 0.5269 0.54738 0.60233 0.0
N405 N 0.49594 0.55055 0.61259 0.0
C406 C 0.52728 0.53834 0.58217 0.0
C407 C 0.46402 0.53522 0.58387 0.0
C408 C 0.46489 0.54436 0.60395 0.0
C409 C 0.49548 0.53227 0.57261 0.0
H410 H 0.55133 0.552 0.60976 0.0
H411 H 0.44076 0.54643 0.61267 0.0
O412 O 0.49474 0.58853 0.68776 0.0
O413 O 0.53649 0.58324 0.64568 0.0
O414 O 0.50149 0.54456 0.66435 0.0
O415 O 0.45514 0.58181 0.6473 0.0
H416 H 0.52395 0.62572 0.69529 0.0
H417 H 0.5028 0.56438 0.72163 0.0
H418 H 0.55489 0.63538 0.72847 0.0
H419 H 0.5343 0.57507 0.7543 0.0
H420 H 0.54967 0.61304 0.58064 0.0
H421 H 0.60262 0.59558 0.64976 0.0
H422 H 0.51434 0.59369 0.60722 0.0
H423 H 0.63662 0.61472 0.62234 0.0
H424 H 0.63834 0.5928 0.70861 0.0
H425 H 0.61811 0.52581 0.71281 0.0
H426 H 0.43108 0.66621 0.66054 0.0
H427 H 0.54172 0.67138 0.64574 0.0
H428 H 0.46949 0.51647 0.64005 0.0
H429 H 0.49883 0.53144 0.7041 0.0
H430 H 0.44087 0.48379 0.6531 0.0
H431 H 0.4696 0.49854 0.71607 0.0
H432 H 0.39192 0.56547 0.641 0.0
H433 H 0.46599 0.61159 0.61841 0.0
H434 H 0.35111 0.57601 0.61231 0.0
H435 H 0.42414 0.62114 0.59 0.0
H436 H 0.38338 0.56981 0.73402 0.0
H437 H 0.35358 0.52756 0.6833 0.0
H438 H 0.5522 0.53598 0.57423 0.0
H439 H 0.43889 0.53083 0.57711 0.0
Li440 Li 0.49864 0.93676 0.63935 0.0
Li441 Li 0.52981 0.93234 0.6718 0.0
Li442 Li 0.49421 0.90381 0.658 0.0
Li443 Li 0.46621 0.93582 0.67445 0.0
C444 C 0.55619 0.91755 0.6274 0.0
N445 N 0.59478 0.92095 0.5905 0.0
C446 C 0.58713 0.92945 0.62705 0.0
C447 C 0.54499 0.90729 0.609 0.0
C448 C 0.60627 0.93098 0.60824 0.0
C449 C 0.56481 0.90925 0.5905 0.0
C450 C 0.51573 0.97469 0.67138 0.0
C451 C 0.51605 0.00404 0.69568 0.0
N452 N 0.54697 0.01074 0.68722 0.0
C453 C 0.54745 0.9819 0.66287 0.0
C454 C 0.49983 0.98585 0.68789 0.0
C455 C 0.56286 0.00014 0.67113 0.0
C456 C 0.46963 0.94595 0.59919 0.0
N457 N 0.49778 0.94953 0.61194 0.0
C458 C 0.52513 0.97054 0.5852 0.0
C459 C 0.52502 0.9618 0.60546 0.0
C460 C 0.49657 0.96696 0.57154 0.0
C461 C 0.46844 0.95456 0.57885 0.0
H462 H 0.44799 0.93644 0.60481 0.0
H463 H 0.54698 0.96459 0.61587 0.0
C464 C 0.59851 0.92236 0.68324 0.0
N465 N 0.57295 0.93685 0.68702 0.0
C466 C 0.63034 0.92322 0.69416 0.0
C467 C 0.60917 0.95396 0.7128 0.0
C468 C 0.57745 0.95224 0.70179 0.0
C469 C 0.63625 0.93929 0.70909 0.0
H470 H 0.59384 0.90978 0.67202 0.0
H471 H 0.55631 0.96298 0.7054 0.0
C472 C 0.43047 0.90668 0.64124 0.0
N473 N 0.38229 0.87592 0.6303 0.0
C474 C 0.40085 0.90322 0.65386 0.0
C475 C 0.43541 0.89462 0.62295 0.0
C476 C 0.37682 0.88757 0.64808 0.0
C477 C 0.41082 0.8791 0.61773 0.0
C478 C 0.51478 0.90904 0.70509 0.0
C479 C 0.53567 0.8909 0.70525 0.0
C480 C 0.51454 0.92242 0.72268 0.0
C481 C 0.55625 0.88652 0.72303 0.0
C482 C 0.53551 0.91747 0.74015 0.0
N483 N 0.55577 0.89979 0.73995 0.0
C484 C 0.51427 0.86305 0.64449 0.0
C485 C 0.46345 0.86403 0.66615 0.0
C486 C 0.51214 0.84111 0.64304 0.0
N487 N 0.48997 0.874 0.65577 0.0
C488 C 0.4601 0.84212 0.66496 0.0
C489 C 0.48473 0.83032 0.65332 0.0
H490 H 0.53566 0.8713 0.6369 0.0
H491 H 0.44493 0.87311 0.67539 0.0
C492 C 0.40578 0.96064 0.68223 0.0
N493 N 0.42703 0.94533 0.69017 0.0
C494 C 0.37517 0.9664 0.69302 0.0
C495 C 0.38945 0.9408 0.72007 0.0
C496 C 0.41961 0.93548 0.70872 0.0
C497 C 0.36654 0.95628 0.71213 0.0
H498 H 0.41229 0.96806 0.66731 0.0
H499 H 0.43662 0.92304 0.71441 0.0
O500 O 0.53689 0.91602 0.64561 0.0
O501 O 0.49996 0.95701 0.66342 0.0
O502 O 0.45456 0.92172 0.6468 0.0
O503 O 0.4953 0.91393 0.68759 0.0
H504 H 0.59604 0.9377 0.64104 0.0
H505 H 0.52108 0.89807 0.60897 0.0
H506 H 0.63015 0.94022 0.60771 0.0
H507 H 0.55633 0.90149 0.57613 0.0
H508 H 0.50408 0.01281 0.70848 0.0
H509 H 0.5604 0.97329 0.65035 0.0
H510 H 0.47527 0.98048 0.69465 0.0
H511 H 0.58753 0.00582 0.6648 0.0
H512 H 0.54766 0.97972 0.58023 0.0
H513 H 0.44554 0.9517 0.56908 0.0
H514 H 0.64974 0.91109 0.69117 0.0
H515 H 0.61229 0.96668 0.72407 0.0
H516 H 0.39657 0.9124 0.66806 0.0
H517 H 0.45814 0.89711 0.61299 0.0
H518 H 0.35388 0.88466 0.65775 0.0
H519 H 0.41444 0.86957 0.60369 0.0
H520 H 0.53628 0.88047 0.6917 0.0
H521 H 0.49879 0.93664 0.72269 0.0
H522 H 0.57272 0.8726 0.72334 0.0
H523 H 0.53581 0.92776 0.75382 0.0
H524 H 0.53224 0.8327 0.63432 0.0
H525 H 0.43837 0.83457 0.67301 0.0
H526 H 0.3583 0.97849 0.68641 0.0
H527 H 0.38349 0.9323 0.7345 0.0
Li528 Li 0.46775 0.43208 0.32501 0.0
Li529 Li 0.49408 0.43805 0.35962 0.0
Li530 Li 0.53077 0.43246 0.32706 0.0
Li531 Li 0.4998 0.40262 0.34337 0.0
C532 C 0.47923 0.47266 0.32617 0.0
N533 N 0.43889 0.5053 0.31037 0.0
C534 C 0.4568 0.4839 0.33957 0.0
C535 C 0.48142 0.47813 0.30479 0.0
C536 C 0.43657 0.50034 0.33127 0.0
C537 C 0.46071 0.49464 0.29708 0.0
C538 C 0.43481 0.41144 0.36855 0.0
C539 C 0.42515 0.39112 0.40034 0.0
N540 N 0.39172 0.39864 0.4014 0.0
C541 C 0.40014 0.41867 0.36979 0.0
C542 C 0.44723 0.39731 0.3838 0.0
C543 C 0.37887 0.41214 0.38658 0.0
C544 C 0.42799 0.43061 0.28739 0.0
N545 N 0.42794 0.43797 0.30758 0.0
C546 C 0.36912 0.45066 0.30352 0.0
C547 C 0.39956 0.44821 0.31566 0.0
C548 C 0.36801 0.44268 0.28274 0.0
C549 C 0.3984 0.43301 0.27458 0.0
H550 H 0.45071 0.42243 0.28132 0.0
H551 H 0.40027 0.45407 0.33171 0.0
C552 C 0.52274 0.4597 0.39416 0.0
N553 N 0.49181 0.45286 0.38585 0.0
C554 C 0.52352 0.46942 0.41398 0.0
C555 C 0.46037 0.46573 0.41594 0.0
C556 C 0.46084 0.45606 0.39608 0.0
C557 C 0.49208 0.47231 0.42527 0.0
H558 H 0.54696 0.45715 0.38556 0.0
H559 H 0.43648 0.45112 0.3889 0.0
C560 C 0.5192 0.40538 0.29547 0.0
N561 N 0.55832 0.39446 0.26026 0.0
C562 C 0.53391 0.38523 0.29385 0.0
C563 C 0.52404 0.41988 0.27905 0.0
C564 C 0.55367 0.38003 0.27595 0.0
C565 C 0.54402 0.4141 0.26143 0.0
C566 C 0.55685 0.41204 0.37188 0.0
C567 C 0.5923 0.40719 0.36859 0.0
C568 C 0.54202 0.40869 0.39184 0.0
C569 C 0.61199 0.39856 0.38513 0.0
C570 C 0.56257 0.40007 0.40799 0.0
N571 N 0.59683 0.39518 0.40432 0.0
C572 C 0.582 0.45833 0.30586 0.0
C573 C 0.59627 0.42227 0.31085 0.0
C574 C 0.61402 0.4618 0.29549 0.0
N575 N 0.5739 0.43878 0.31326 0.0
C576 C 0.62828 0.42497 0.30058 0.0
C577 C 0.63771 0.44496 0.29283 0.0
H578 H 0.56367 0.47119 0.30802 0.0
H579 H 0.58898 0.40687 0.31675 0.0
C580 C 0.47163 0.36161 0.3468 0.0
N581 N 0.5019 0.37297 0.34775 0.0
C582 C 0.47248 0.33967 0.34875 0.0
C583 C 0.53567 0.34153 0.35239 0.0
C584 C 0.53358 0.36342 0.35043 0.0
C585 C 0.50486 0.32934 0.35144 0.0
H586 H 0.44688 0.3696 0.34419 0.0
H587 H 0.55734 0.37272 0.35048 0.0
O588 O 0.49876 0.45629 0.33393 0.0
O589 O 0.45594 0.41766 0.35212 0.0
O590 O 0.50024 0.41086 0.31305 0.0
O591 O 0.53723 0.42058 0.3558 0.0
H592 H 0.4548 0.47987 0.35616 0.0
H593 H 0.49874 0.46964 0.29423 0.0
H594 H 0.41895 0.50911 0.34143 0.0
H595 H 0.46198 0.49897 0.28054 0.0
H596 H 0.43454 0.38024 0.41226 0.0
H597 H 0.38975 0.42932 0.35802 0.0
H598 H 0.47343 0.39088 0.38277 0.0
H599 H 0.3521 0.41778 0.3878 0.0
H600 H 0.34639 0.45807 0.31066 0.0
H601 H 0.39928 0.42704 0.25854 0.0
H602 H 0.5486 0.4741 0.4206 0.0
H603 H 0.43544 0.46808 0.42387 0.0
H604 H 0.53022 0.37373 0.30628 0.0
H605 H 0.51288 0.43554 0.28004 0.0
H606 H 0.56533 0.36453 0.27454 0.0
H607 H 0.54822 0.42523 0.24871 0.0
H608 H 0.60456 0.41 0.35345 0.0
H609 H 0.51514 0.41307 0.39503 0.0
H610 H 0.63936 0.3946 0.38272 0.0
H611 H 0.55134 0.3974 0.42349 0.0
H612 H 0.62032 0.47749 0.28989 0.0
H613 H 0.64525 0.41141 0.29849 0.0
H614 H 0.44816 0.33087 0.34755 0.0
H615 H 0.56117 0.33423 0.35452 0.0
Li616 Li 0.50266 0.09755 0.34216 0.0
Li617 Li 0.46894 0.06885 0.32599 0.0
Li618 Li 0.50379 0.06228 0.35912 0.0
Li619 Li 0.53208 0.06644 0.32457 0.0
C620 C 0.44456 0.09174 0.37001 0.0
N621 N 0.40728 0.11244 0.40133 0.0
C622 C 0.41027 0.0987 0.36617 0.0
C623 C 0.45958 0.09497 0.38994 0.0
C624 C 0.39194 0.10924 0.38215 0.0
C625 C 0.4404 0.10554 0.40552 0.0
C626 C 0.48556 0.09412 0.2936 0.0
C627 C 0.46448 0.08495 0.25878 0.0
N628 N 0.45078 0.10466 0.25668 0.0
C629 C 0.47158 0.11435 0.29102 0.0
C630 C 0.48229 0.07935 0.27729 0.0
C631 C 0.45399 0.11935 0.27226 0.0
C632 C 0.53563 0.13717 0.3474 0.0
N633 N 0.50402 0.12723 0.34639 0.0
C634 C 0.47372 0.1601 0.34951 0.0
C635 C 0.47336 0.13821 0.34724 0.0
C636 C 0.50597 0.17085 0.35074 0.0
C637 C 0.53723 0.15906 0.34973 0.0
H638 H 0.55963 0.1281 0.34622 0.0
H639 H 0.44862 0.13004 0.34558 0.0
C640 C 0.41563 0.04424 0.30548 0.0
N641 N 0.42576 0.06384 0.31175 0.0
C642 C 0.38344 0.0414 0.29513 0.0
C643 C 0.37322 0.07896 0.29776 0.0
C644 C 0.40527 0.08102 0.30819 0.0
C645 C 0.36166 0.05892 0.29121 0.0
H646 H 0.4324 0.03083 0.30864 0.0
H647 H 0.41398 0.0964 0.3134 0.0
C648 C 0.56778 0.08553 0.36719 0.0
N649 N 0.61576 0.09503 0.39867 0.0
C650 C 0.60124 0.07641 0.36698 0.0
C651 C 0.559 0.09979 0.38323 0.0
C652 C 0.62505 0.08132 0.38309 0.0
C653 C 0.58353 0.10431 0.39904 0.0
C654 C 0.51397 0.02587 0.32681 0.0
C655 C 0.53195 0.01301 0.34116 0.0
C656 C 0.51225 0.02009 0.30549 0.0
C657 C 0.54844 0.99471 0.33385 0.0
C658 C 0.52913 0.00168 0.2988 0.0
N659 N 0.54675 0.98949 0.31299 0.0
C660 C 0.47275 0.04232 0.3941 0.0
C661 C 0.53493 0.04392 0.3959 0.0
C662 C 0.47123 0.03281 0.41402 0.0
N663 N 0.50424 0.04797 0.38564 0.0
C664 C 0.53463 0.03462 0.41591 0.0
C665 C 0.50246 0.02914 0.4253 0.0
H666 H 0.44876 0.04555 0.38551 0.0
H667 H 0.55967 0.04789 0.3886 0.0
C668 C 0.57663 0.06843 0.28909 0.0
N669 N 0.57181 0.05859 0.30797 0.0
C670 C 0.6066 0.06437 0.27703 0.0
C671 C 0.62608 0.03998 0.30399 0.0
C672 C 0.59566 0.04449 0.31551 0.0
C673 C 0.63203 0.05016 0.28456 0.0
H674 H 0.55768 0.0799 0.28363 0.0
H675 H 0.59148 0.03708 0.3307 0.0
O676 O 0.46285 0.08139 0.35448 0.0
O677 O 0.50241 0.08883 0.31198 0.0
O678 O 0.54416 0.08084 0.35151 0.0
O679 O 0.49788 0.04392 0.33365 0.0
H680 H 0.39794 0.09609 0.35098 0.0
H681 H 0.48556 0.08912 0.39348 0.0
H682 H 0.3655 0.11485 0.37931 0.0
H683 H 0.45179 0.10816 0.42099 0.0
H684 H 0.46153 0.07361 0.2461 0.0
H685 H 0.4741 0.12603 0.3034 0.0
H686 H 0.49318 0.06369 0.27896 0.0
H687 H 0.44285 0.13491 0.27011 0.0
H688 H 0.44899 0.16856 0.34969 0.0
H689 H 0.56268 0.16666 0.35072 0.0
H690 H 0.37549 0.02563 0.29057 0.0
H691 H 0.35784 0.09301 0.29473 0.0
H692 H 0.60873 0.06555 0.3546 0.0
H693 H 0.53376 0.10757 0.38331 0.0
H694 H 0.65092 0.07424 0.38319 0.0
H695 H 0.57701 0.11529 0.41155 0.0
H696 H 0.53339 0.01719 0.35773 0.0
H697 H 0.49814 0.02973 0.29423 0.0
H698 H 0.56263 0.98468 0.34475 0.0
H699 H 0.52821 0.99708 0.28232 0.0
H700 H 0.44588 0.02888 0.42075 0.0
H701 H 0.55932 0.03166 0.42391 0.0
H702 H 0.61038 0.07288 0.26234 0.0
H703 H 0.64488 0.02881 0.31032 0.0
H704 H 0.02095 0.30172 0.11902 0.0
H705 H 0.94146 0.19469 0.16354 0.0
H706 H 0.96237 0.29903 0.17761 0.0
H707 H 0.04011 0.19619 0.12998 0.0
H708 H 0.9404 0.23342 0.16336 0.0
H709 H 0.02066 0.26319 0.11777 0.0
C710 C 0.00817 0.29317 0.13169 0.0
C711 C 0.99175 0.3039 0.14851 0.0
C712 C 0.96218 0.22524 0.15598 0.0
C713 C 0.99042 0.25972 0.14665 0.0
C714 C 0.96269 0.20322 0.15596 0.0
C715 C 0.99094 0.19236 0.14679 0.0
C716 C 0.98977 0.2364 0.14638 0.0
C717 C 0.01799 0.20407 0.13732 0.0
C718 C 0.00786 0.27115 0.13084 0.0
C719 C 0.97481 0.29171 0.16409 0.0
N720 N 0.01667 0.22551 0.13724 0.0
N721 N 0.97445 0.27031 0.16272 0.0
H722 H 0.03244 0.80217 0.80962 0.0
H723 H 0.98961 0.69782 0.87557 0.0
H724 H 0.00384 0.80289 0.87577 0.0
H725 H 0.04016 0.69703 0.81445 0.0
H726 H 0.99233 0.73639 0.87545 0.0
H727 H 0.03382 0.7637 0.81069 0.0
C728 C 0.02679 0.7943 0.82444 0.0
C729 C 0.01796 0.8059 0.84264 0.0
C730 C 0.00299 0.72778 0.86211 0.0
C731 C 0.01884 0.7617 0.84382 0.0
C732 C 0.00127 0.70578 0.86213 0.0
C733 C 0.01463 0.69421 0.84498 0.0
C734 C 0.01785 0.73832 0.84473 0.0
C735 C 0.02984 0.70532 0.82808 0.0
C736 C 0.02739 0.77229 0.82499 0.0
C737 C 0.0102 0.79468 0.86125 0.0
N738 N 0.03084 0.72676 0.82832 0.0
N739 N 0.01068 0.77324 0.86133 0.0
H740 H 0.45198 0.69768 0.68098 0.0
H741 H 0.49975 0.8043 0.61967 0.0
H742 H 0.51293 0.6992 0.62342 0.0
H743 H 0.46447 0.80275 0.68464 0.0
H744 H 0.49828 0.76579 0.61892 0.0
H745 H 0.44925 0.73626 0.6805 0.0
C746 C 0.46451 0.70614 0.66814 0.0
C747 C 0.48279 0.69524 0.65224 0.0
C748 C 0.4908 0.77391 0.63332 0.0
C749 C 0.47991 0.73934 0.65164 0.0
C750 C 0.4918 0.79591 0.63381 0.0
C751 C 0.48243 0.80689 0.6523 0.0
C752 C 0.4801 0.76272 0.65137 0.0
C753 C 0.47153 0.79507 0.66994 0.0
C754 C 0.46315 0.72814 0.66795 0.0
C755 C 0.49891 0.707 0.63611 0.0
N756 N 0.47071 0.77365 0.66904 0.0
N757 N 0.49706 0.72842 0.63621 0.0
H758 H 0.55289 0.30323 0.33254 0.0
H759 H 0.463 0.19676 0.37409 0.0
H760 H 0.46075 0.30214 0.37239 0.0
H761 H 0.5509 0.19831 0.33089 0.0
H762 H 0.46347 0.2353 0.37517 0.0
H763 H 0.55463 0.26476 0.33356 0.0
C764 C 0.53319 0.29491 0.34168 0.0
C765 C 0.50663 0.30595 0.35241 0.0
C766 C 0.48272 0.2272 0.36551 0.0
C767 C 0.50822 0.26181 0.35342 0.0
C768 C 0.48237 0.20519 0.3648 0.0
C769 C 0.50689 0.19424 0.35233 0.0
C770 C 0.50776 0.2384 0.35365 0.0
C771 C 0.53176 0.20603 0.34093 0.0
C772 C 0.53407 0.27291 0.34213 0.0
C773 C 0.48145 0.29427 0.36368 0.0
N774 N 0.53148 0.22744 0.34182 0.0
N775 N 0.48285 0.27284 0.36388 0.0
H776 H 0.34348 0.03218 0.2585 0.0
H777 H 0.1587 0.08715 0.23918 0.0
H778 H 0.30052 0.08023 0.29953 0.0
H779 H 0.18135 0.02489 0.21484 0.0
H780 H 0.21347 0.08628 0.25889 0.0
H781 H 0.28682 0.03028 0.2401 0.0
C782 C 0.32215 0.04219 0.26379 0.0
C783 C 0.32704 0.05657 0.28048 0.0
C784 C 0.20637 0.07274 0.24934 0.0
C785 C 0.2625 0.05472 0.25922 0.0
C786 C 0.17489 0.07314 0.23814 0.0
C787 C 0.16492 0.05594 0.22544 0.0
C788 C 0.22861 0.05518 0.24769 0.0
C789 C 0.18794 0.03859 0.22425 0.0
C790 C 0.2899 0.04115 0.2532 0.0
C791 C 0.29845 0.06929 0.28643 0.0
N792 N 0.21879 0.03868 0.23518 0.0
N793 N 0.2676 0.06818 0.27572 0.0
H794 H 0.65284 0.46901 0.25762 0.0
H795 H 0.84357 0.41951 0.24435 0.0
H796 H 0.70111 0.42759 0.30344 0.0
H797 H 0.81169 0.47522 0.20992 0.0
H798 H 0.78962 0.42132 0.26472 0.0
H799 H 0.7091 0.47104 0.23875 0.0
C800 C 0.67529 0.46054 0.26385 0.0
C801 C 0.67207 0.44788 0.28201 0.0
C802 C 0.79448 0.43326 0.25283 0.0
C803 C 0.73616 0.44988 0.26033 0.0
C804 C 0.82551 0.43234 0.24122 0.0
C805 C 0.83261 0.44739 0.22547 0.0
C806 C 0.76983 0.44916 0.24856 0.0
C807 C 0.80732 0.46317 0.22176 0.0
C808 C 0.70731 0.46163 0.25302 0.0
C809 C 0.70202 0.43712 0.28924 0.0
N810 N 0.77697 0.46361 0.23317 0.0
N811 N 0.73263 0.43823 0.2783 0.0
H812 H 0.14589 0.96201 0.7429 0.0
H813 H 0.35512 0.96053 0.75477 0.0
H814 H 0.19992 0.96023 0.80296 0.0
H815 H 0.30131 0.96207 0.69465 0.0
H816 H 0.29859 0.9641 0.77276 0.0
H817 H 0.20252 0.96569 0.72501 0.0
C818 C 0.16966 0.96251 0.75234 0.0
C819 C 0.16816 0.96063 0.77446 0.0
C820 C 0.29914 0.96385 0.75562 0.0
C821 C 0.23311 0.96489 0.75408 0.0
C822 C 0.33141 0.96174 0.74535 0.0
C823 C 0.33293 0.96081 0.72317 0.0
C824 C 0.26807 0.96493 0.74366 0.0
C825 C 0.30142 0.96283 0.71176 0.0
C826 C 0.20198 0.96469 0.74212 0.0
C827 C 0.19976 0.96175 0.78589 0.0
N828 N 0.27027 0.96458 0.72214 0.0
N829 N 0.23093 0.96361 0.77556 0.0
H830 H 0.65086 0.5826 0.74683 0.0
H831 H 0.84338 0.53423 0.75695 0.0
H832 H 0.68582 0.53013 0.70879 0.0
H833 H 0.79654 0.57479 0.80409 0.0
H834 H 0.78661 0.53237 0.7388 0.0
H835 H 0.70492 0.58027 0.76753 0.0
C836 C 0.66998 0.57055 0.74288 0.0
C837 C 0.66405 0.55663 0.726 0.0
C838 C 0.78877 0.54155 0.7532 0.0
C839 C 0.72607 0.55386 0.74959 0.0
C840 C 0.82114 0.54255 0.76364 0.0
C841 C 0.82494 0.55488 0.78199 0.0
C842 C 0.76007 0.55306 0.76107 0.0
C843 C 0.79519 0.5655 0.78973 0.0
C844 C 0.70075 0.56915 0.75476 0.0
C845 C 0.68941 0.54112 0.72173 0.0
N846 N 0.76417 0.56447 0.77917 0.0
N847 N 0.71954 0.54028 0.73332 0.0
H848 H 0.64768 0.95251 0.75017 0.0
H849 H 0.84499 0.91353 0.75631 0.0
H850 H 0.70256 0.92855 0.69527 0.0
H851 H 0.8078 0.96503 0.79488 0.0
H852 H 0.78975 0.91455 0.73628 0.0
H853 H 0.70345 0.95352 0.76929 0.0
C854 C 0.67133 0.94765 0.742 0.0
C855 C 0.67011 0.9404 0.72096 0.0
C856 C 0.79376 0.92566 0.74908 0.0
C857 C 0.73386 0.94093 0.74315 0.0
C858 C 0.82508 0.92501 0.76054 0.0
C859 C 0.83073 0.93922 0.7772 0.0
C860 C 0.7677 0.94033 0.75464 0.0
C861 C 0.80434 0.9539 0.78204 0.0
C862 C 0.70312 0.94813 0.75303 0.0
C863 C 0.7018 0.93383 0.71155 0.0
N864 N 0.77372 0.95396 0.77093 0.0
N865 N 0.73227 0.93409 0.72276 0.0
H866 H 0.29867 0.54493 0.69198 0.0
H867 H 0.19701 0.54245 0.80266 0.0
H868 H 0.3507 0.54271 0.75267 0.0
H869 H 0.14462 0.54433 0.74207 0.0
H870 H 0.25333 0.53942 0.78451 0.0
H871 H 0.24208 0.54159 0.70987 0.0
C872 C 0.29827 0.54344 0.70905 0.0
C873 C 0.32955 0.54421 0.72084 0.0
C874 C 0.22951 0.54035 0.77516 0.0
C875 C 0.26466 0.54073 0.74147 0.0
C876 C 0.19725 0.54192 0.78553 0.0
C877 C 0.16594 0.54372 0.77389 0.0
C878 C 0.23062 0.54063 0.75295 0.0
C879 C 0.16809 0.54332 0.7517 0.0
C880 C 0.26588 0.54169 0.71928 0.0
C881 C 0.32726 0.54254 0.74296 0.0
N882 N 0.19987 0.54192 0.74196 0.0
N883 N 0.29539 0.54099 0.75255 0.0
H884 H 0.64121 0.04618 0.24166 0.0
H885 H 0.85124 0.04787 0.24877 0.0
H886 H 0.69885 0.04712 0.30051 0.0
H887 H 0.79368 0.04677 0.18988 0.0
H888 H 0.79579 0.04488 0.268 0.0
H889 H 0.69681 0.04396 0.22243 0.0
C890 C 0.66556 0.04586 0.25055 0.0
C891 C 0.66535 0.04696 0.27274 0.0
C892 C 0.79528 0.04517 0.25087 0.0
C893 C 0.72915 0.04435 0.25082 0.0
C894 C 0.82698 0.04674 0.23986 0.0
C895 C 0.82714 0.04765 0.21766 0.0
C896 C 0.76344 0.04454 0.23962 0.0
C897 C 0.7948 0.04646 0.207 0.0
C898 C 0.6973 0.04451 0.23956 0.0
C899 C 0.6977 0.04612 0.28342 0.0
N900 N 0.76427 0.04505 0.21807 0.0
N901 N 0.72827 0.04502 0.27236 0.0
H902 H 0.15542 0.46479 0.23862 0.0
H903 H 0.34338 0.41328 0.25443 0.0
H904 H 0.20151 0.42181 0.19334 0.0
H905 H 0.31661 0.47352 0.28218 0.0
H906 H 0.28901 0.41427 0.23422 0.0
H907 H 0.21189 0.46656 0.25702 0.0
C908 C 0.17737 0.45588 0.23238 0.0
C909 C 0.17343 0.44302 0.21439 0.0
C910 C 0.29517 0.42734 0.24464 0.0
C911 C 0.2379 0.44464 0.23576 0.0
C912 C 0.32642 0.42689 0.25613 0.0
C913 C 0.33501 0.44344 0.27002 0.0
C914 C 0.27183 0.44425 0.24724 0.0
C915 C 0.31106 0.46026 0.27193 0.0
C916 C 0.20956 0.45684 0.24299 0.0
C917 C 0.20286 0.43156 0.20738 0.0
N918 N 0.28047 0.46018 0.26076 0.0
N919 N 0.23369 0.43252 0.21816 0.0
H920 H 0.97847 0.98944 0.0592 0.0
H921 H 0.05712 0.99185 0.94263 0.0
H922 H 0.03863 0.04241 0.03584 0.0
H923 H 0.96113 0.95907 0.95801 0.0
H924 H 0.05819 0.00666 0.97855 0.0
H925 H 0.97906 0.97424 0.02374 0.0
C926 C 0.99166 0.99799 0.04668 0.0
C927 C 0.00826 0.01742 0.05065 0.0
C928 C 0.03693 0.99623 0.97402 0.0
C929 C 0.00982 -0.00035 0.01007 0.0
C930 C 0.0364 0.98773 0.95363 0.0
C931 C 0.00893 0.97431 0.94744 0.0
C932 C 0.01018 0.99091 0.98837 0.0
C933 C 0.98258 0.96951 0.96218 0.0
C934 C 0.99213 0.98919 0.02645 0.0
C935 C 0.02585 0.0273 0.03375 0.0
N936 N 0.98395 0.9777 0.98204 0.0
N937 N 0.02623 0.01829 0.01423 0.0
H938 H 0.05136 0.50384 0.94299 0.0
H939 H 0.94147 0.48535 0.04928 0.0
H940 H 0.9515 0.53379 0.95548 0.0
H941 H 0.05032 0.46756 0.04216 0.0
H942 H 0.9427 0.50069 0.01374 0.0
H943 H 0.04969 0.48817 0.97825 0.0
C944 C 0.02916 0.50724 0.95316 0.0
C945 C 0.00158 0.52026 0.9462 0.0
C946 C 0.96632 0.49346 0.01996 0.0
C947 C -0.00073 0.50202 0.98655 0.0
C948 C 0.96557 0.4846 0.04018 0.0
C949 C 0.99585 0.4752 0.04868 0.0
C950 C 0.99748 0.49274 0.00806 0.0
C951 C 0.02649 0.47487 0.0363 0.0
C952 C 0.02816 0.49819 0.97327 0.0
C953 C 0.97315 0.52366 0.95999 0.0
N954 N 0.0265 0.48345 0.0166 0.0
N955 N 0.97273 0.5146 0.97948 0.0
H956 H 0.53166 0.50555 0.43981 0.0
H957 H 0.45557 0.49934 0.55786 0.0
H958 H 0.45358 0.46038 0.45993 0.0
H959 H 0.5343 0.54423 0.53805 0.0
H960 H 0.45425 0.48502 0.52199 0.0
H961 H 0.53301 0.51998 0.47566 0.0
C962 C 0.51487 0.49861 0.45177 0.0
C963 C 0.49248 0.4817 0.44682 0.0
C964 C 0.47184 0.49799 0.52548 0.0
C965 C 0.49369 0.49828 0.48791 0.0
C966 C 0.47249 0.50625 0.54595 0.0
C967 C 0.49504 0.52305 0.55099 0.0
C968 C 0.49387 0.5066 0.50986 0.0
C969 C 0.5168 0.53112 0.53496 0.0
C970 C 0.51554 0.50693 0.47223 0.0
C971 C 0.47091 0.47359 0.46292 0.0
N972 N 0.51562 0.52285 0.51512 0.0
N973 N 0.47211 0.48192 0.48273 0.0
H974 H 0.471 0.9492 0.53489 0.0
H975 H 0.53891 0.04221 0.46017 0.0
H976 H 0.52153 0.00554 0.5585 0.0
H977 H 0.46378 0.99551 0.43956 0.0
H978 H 0.53707 0.02715 0.49577 0.0
H979 H 0.47151 0.96438 0.49935 0.0
C980 C 0.48196 0.96481 0.53269 0.0
C981 C 0.49628 0.97606 0.54982 0.0
C982 C 0.52093 0.02021 0.48347 0.0
C983 C 0.49755 0.99333 0.50902 0.0
C984 C 0.52216 0.0287 0.46313 0.0
C985 C 0.50152 0.02005 0.4469 0.0
C986 C 0.49917 0.0028 0.4876 0.0
C987 C 0.47991 0.00274 0.45168 0.0
C988 C 0.4824 0.97341 0.51235 0.0
C989 C 0.51074 0.99607 0.54581 0.0
N990 N 0.47942 0.9946 0.47158 0.0
N991 N 0.51111 0.00401 0.52584 0.0
loop_
_geom_bond_atom_site_label_1
_geom_bond_atom_site_label_2
_geom_bond_distance
_geom_bond_site_symmetry_2
_ccdc_geom_bond_type
Li0 N17 1.990 . S
Li0 O60 1.956 . S
Li0 O61 1.970 1_455 S
Li0 O62 1.961 1_455 S
Li1 N25 1.990 . S
Li1 O60 1.970 . S
Li1 O61 1.943 1_455 S
Li1 O63 1.961 . S
Li2 N47 1.990 . S
Li2 O60 1.948 1_655 S
Li2 O62 1.969 . S
Li2 O63 1.970 1_655 S
Li3 N53 1.990 . S
Li3 O61 1.973 . S
Li3 O62 1.970 . S
Li3 O63 1.956 1_655 S
C4 C6 1.348 . S
C4 C7 1.356 . S
C4 O60 1.325 . S
N5 C8 1.314 . S
N5 C9 1.279 . S
C6 C4 1.348 . S
C6 C8 1.353 . S
C6 H64 0.929 . S
C7 C4 1.356 . S
C7 C9 1.358 . S
C7 H65 0.930 . S
C8 N5 1.314 . S
C8 C6 1.353 . S
C8 H66 0.930 . S
C9 N5 1.279 . S
C9 C7 1.358 . S
C9 H67 0.930 . S
C10 C13 1.350 . S
C10 C14 1.355 1_455 S
C10 O61 1.324 1_455 S
C11 N12 1.279 1_655 S
C11 C14 1.358 . S
C11 H68 0.930 . S
N12 C11 1.279 1_455 S
N12 C15 1.314 . S
C13 C10 1.350 . S
C13 C15 1.353 . S
C13 H69 0.929 . S
C14 C10 1.355 1_655 S
C14 C11 1.358 . S
C14 H70 0.930 . S
C15 N12 1.314 . S
C15 C13 1.353 . S
C15 H71 0.930 . S
C16 N17 1.314 1_655 S
C16 C21 1.353 . S
C16 H22 0.930 . S
N17 Li0 1.990 . S
N17 C16 1.314 1_455 S
N17 C19 1.279 . S
C18 C19 1.358 . S
C18 C20 1.368 . S
C18 H72 0.930 . S
C19 N17 1.279 . S
C19 C18 1.358 . S
C19 H23 0.930 . S
C20 C18 1.368 . S
C20 C21 1.336 1_455 S
C21 C16 1.353 . S
C21 C20 1.336 1_655 S
C21 H73 0.929 . S
H22 C16 0.930 . S
H23 C19 0.930 . S
C24 N25 1.314 . S
C24 C26 1.353 . S
C24 H30 0.930 . S
N25 Li1 1.990 . S
N25 C24 1.314 . S
N25 C28 1.279 . S
C26 C24 1.353 . S
C26 C29 1.348 . S
C26 H74 0.929 . S
C27 C28 1.358 . S
C27 C29 1.356 . S
C27 H75 0.930 . S
C28 N25 1.279 . S
C28 C27 1.358 . S
C28 H31 0.930 . S
C29 C26 1.348 . S
C29 C27 1.356 . S
H30 C24 0.930 . S
H31 C28 0.930 . S
C32 C34 1.348 . S
C32 C35 1.356 . S
C32 O62 1.325 . S
N33 C36 1.314 . S
N33 C37 1.279 . S
C34 C32 1.348 . S
C34 C36 1.353 . S
C34 H76 0.929 . S
C35 C32 1.356 . S
C35 C37 1.358 . S
C35 H77 0.930 . S
C36 N33 1.314 . S
C36 C34 1.353 . S
C36 H78 0.930 . S
C37 N33 1.279 . S
C37 C35 1.358 . S
C37 H79 0.930 . S
C38 C39 1.343 1_455 S
C38 C40 1.359 . S
C38 O63 1.325 . S
C39 C38 1.343 1_655 S
C39 C41 1.353 1_545 S
C39 H80 0.929 . S
C40 C38 1.359 . S
C40 C42 1.358 1_545 S
C40 H81 0.930 . S
C41 C39 1.353 1_565 S
C41 N43 1.314 . S
C41 H82 0.930 . S
C42 C40 1.358 1_565 S
C42 N43 1.279 1_455 S
C42 H83 0.930 . S
N43 C41 1.314 . S
N43 C42 1.279 1_655 S
C44 C46 1.353 . S
C44 N47 1.314 1_455 S
C44 H50 0.930 . S
C45 N47 1.279 . S
C45 C48 1.358 . S
C45 H51 0.930 . S
C46 C44 1.353 . S
C46 C49 1.356 . S
C46 H84 0.929 . S
N47 Li2 1.990 . S
N47 C44 1.314 1_655 S
N47 C45 1.279 . S
C48 C45 1.358 . S
C48 C49 1.348 1_655 S
C48 H85 0.930 . S
C49 C46 1.356 . S
C49 C48 1.348 1_455 S
H50 C44 0.930 . S
H51 C45 0.930 . S
C52 N53 1.314 . S
C52 C54 1.353 . S
C52 H58 0.930 . S
N53 Li3 1.990 . S
N53 C52 1.314 . S
N53 C56 1.279 . S
C54 C52 1.353 . S
C54 C57 1.348 . S
C54 H86 0.929 . S
C55 C56 1.358 . S
C55 C57 1.356 . S
C55 H87 0.930 . S
C56 N53 1.279 . S
C56 C55 1.358 . S
C56 H59 0.930 . S
C57 C54 1.348 . S
C57 C55 1.356 . S
H58 C52 0.930 . S
H59 C56 0.930 . S
O60 Li0 1.956 . S
O60 Li1 1.970 . S
O60 Li2 1.948 1_455 S
O60 C4 1.325 . S
O61 Li0 1.970 1_655 S
O61 Li1 1.943 1_655 S
O61 Li3 1.973 . S
O61 C10 1.324 1_655 S
O62 Li0 1.961 1_655 S
O62 Li2 1.969 . S
O62 Li3 1.970 . S
O62 C32 1.325 . S
O63 Li1 1.961 . S
O63 Li2 1.970 1_455 S
O63 Li3 1.956 1_455 S
O63 C38 1.325 . S
H64 C6 0.929 . S
H65 C7 0.930 . S
H66 C8 0.930 . S
H67 C9 0.930 . S
H68 C11 0.930 . S
H69 C13 0.929 . S
H70 C14 0.930 . S
H71 C15 0.930 . S
H72 C18 0.930 . S
H73 C21 0.929 . S
H74 C26 0.929 . S
H75 C27 0.930 . S
H76 C34 0.929 . S
H77 C35 0.930 . S
H78 C36 0.930 . S
H79 C37 0.930 . S
H80 C39 0.929 . S
H81 C40 0.930 . S
H82 C41 0.930 . S
H83 C42 0.930 . S
H84 C46 0.929 . S
H85 C48 0.930 . S
H86 C54 0.929 . S
H87 C55 0.930 . S
Li88 N105 1.990 . S
Li88 O148 1.956 . S
Li88 O149 1.969 1_455 S
Li88 O150 1.961 1_455 S
Li89 N113 1.990 . S
Li89 O148 1.970 . S
Li89 O149 1.937 1_455 S
Li89 O151 1.961 . S
Li90 N135 1.991 . S
Li90 O148 1.940 1_655 S
Li90 O150 1.976 . S
Li90 O151 1.970 1_655 S
Li91 N141 1.990 . S
Li91 O149 1.979 . S
Li91 O150 1.970 . S
Li91 O151 1.956 1_655 S
C92 C94 1.348 . S
C92 C95 1.356 . S
C92 O148 1.325 . S
N93 C96 1.314 . S
N93 C97 1.279 . S
C94 C92 1.348 . S
C94 C96 1.353 . S
C94 H152 0.929 . S
C95 C92 1.356 . S
C95 C97 1.358 . S
C95 H153 0.930 . S
C96 N93 1.314 . S
C96 C94 1.353 . S
C96 H154 0.930 . S
C97 N93 1.279 . S
C97 C95 1.358 . S
C97 H155 0.930 . S
C98 C101 1.347 . S
C98 C102 1.356 1_455 S
C98 O149 1.324 1_455 S
C99 N100 1.279 1_655 S
C99 C102 1.358 . S
C99 H156 0.930 . S
N100 C99 1.279 1_455 S
N100 C103 1.314 . S
C101 C98 1.347 . S
C101 C103 1.353 . S
C101 H157 0.929 . S
C102 C98 1.356 1_655 S
C102 C99 1.358 . S
C102 H158 0.930 . S
C103 N100 1.314 . S
C103 C101 1.353 . S
C103 H159 0.930 . S
C104 N105 1.314 1_655 S
C104 C109 1.353 . S
C104 H110 0.930 . S
N105 Li88 1.990 . S
N105 C104 1.314 1_455 S
N105 C107 1.279 . S
C106 C107 1.358 . S
C106 C108 1.360 . S
C106 H160 0.930 . S
C107 N105 1.279 . S
C107 C106 1.358 . S
C107 H111 0.930 . S
C108 C106 1.360 . S
C108 C109 1.344 1_455 S
C109 C104 1.353 . S
C109 C108 1.344 1_655 S
C109 H161 0.929 . S
H110 C104 0.930 . S
H111 C107 0.930 . S
C112 N113 1.314 . S
C112 C114 1.353 . S
C112 H118 0.930 . S
N113 Li89 1.990 . S
N113 C112 1.314 . S
N113 C116 1.279 . S
C114 C112 1.353 . S
C114 C117 1.348 . S
C114 H162 0.929 . S
C115 C116 1.358 . S
C115 C117 1.356 . S
C115 H163 0.930 . S
C116 N113 1.279 . S
C116 C115 1.358 . S
C116 H119 0.930 . S
C117 C114 1.348 . S
C117 C115 1.356 . S
H118 C112 0.930 . S
H119 C116 0.930 . S
C120 C122 1.348 . S
C120 C123 1.356 . S
C120 O150 1.325 . S
N121 C124 1.314 . S
N121 C125 1.279 . S
C122 C120 1.348 . S
C122 C124 1.353 . S
C122 H164 0.929 . S
C123 C120 1.356 . S
C123 C125 1.358 . S
C123 H165 0.930 . S
C124 N121 1.314 . S
C124 C122 1.353 . S
C124 H166 0.930 . S
C125 N121 1.279 . S
C125 C123 1.358 . S
C125 H167 0.930 . S
C126 C127 1.346 1_455 S
C126 C128 1.357 . S
C126 O151 1.325 . S
C127 C126 1.346 1_655 S
C127 C129 1.353 . S
C127 H168 0.929 . S
C128 C126 1.357 . S
C128 C130 1.358 . S
C128 H169 0.930 . S
C129 C127 1.353 . S
C129 N131 1.314 . S
C129 H170 0.930 . S
C130 C128 1.358 . S
C130 N131 1.279 1_455 S
C130 H171 0.930 . S
N131 C129 1.314 . S
N131 C130 1.279 1_655 S
C132 C134 1.353 . S
C132 N135 1.314 1_455 S
C132 H138 0.930 . S
C133 N135 1.279 . S
C133 C136 1.358 . S
C133 H139 0.930 . S
C134 C132 1.353 . S
C134 C137 1.347 . S
C134 H172 0.929 . S
N135 Li90 1.991 . S
N135 C132 1.314 1_655 S
N135 C133 1.279 . S
C136 C133 1.358 . S
C136 C137 1.356 1_655 S
C136 H173 0.930 . S
C137 C134 1.347 . S
C137 C136 1.356 1_455 S
H138 C132 0.930 . S
H139 C133 0.930 . S
C140 N141 1.314 . S
C140 C142 1.353 . S
C140 H146 0.930 . S
N141 Li91 1.990 . S
N141 C140 1.314 . S
N141 C144 1.279 . S
C142 C140 1.353 . S
C142 C145 1.348 . S
C142 H174 0.929 . S
C143 C144 1.358 . S
C143 C145 1.356 . S
C143 H175 0.930 . S
C144 N141 1.279 . S
C144 C143 1.358 . S
C144 H147 0.930 . S
C145 C142 1.348 . S
C145 C143 1.356 . S
H146 C140 0.930 . S
H147 C144 0.930 . S
O148 Li88 1.956 . S
O148 Li89 1.970 . S
O148 Li90 1.940 1_455 S
O148 C92 1.325 . S
O149 Li88 1.969 1_655 S
O149 Li89 1.937 1_655 S
O149 Li91 1.979 . S
O149 C98 1.324 1_655 S
O150 Li88 1.961 1_655 S
O150 Li90 1.976 . S
O150 Li91 1.970 . S
O150 C120 1.325 . S
O151 Li89 1.961 . S
O151 Li90 1.970 1_455 S
O151 Li91 1.956 1_455 S
O151 C126 1.325 . S
H152 C94 0.929 . S
H153 C95 0.930 . S
H154 C96 0.930 . S
H155 C97 0.930 . S
H156 C99 0.930 . S
H157 C101 0.929 . S
H158 C102 0.930 . S
H159 C103 0.930 . S
H160 C106 0.930 . S
H161 C109 0.929 . S
H162 C114 0.929 . S
H163 C115 0.930 . S
H164 C122 0.929 . S
H165 C123 0.930 . S
H166 C124 0.930 . S
H167 C125 0.930 . S
H168 C127 0.929 . S
H169 C128 0.930 . S
H170 C129 0.930 . S
H171 C130 0.930 . S
H172 C134 0.929 . S
H173 C136 0.930 . S
H174 C142 0.929 . S
H175 C143 0.930 . S
Li176 N193 1.990 . S
Li176 O236 1.969 . S
Li176 O237 1.970 1_655 S
Li176 O238 1.948 1_655 S
Li177 N201 1.990 . S
Li177 O236 1.970 . S
Li177 O237 1.956 1_655 S
Li177 O239 1.973 . S
Li178 N223 1.990 . S
Li178 O236 1.961 1_455 S
Li178 O238 1.956 . S
Li178 O239 1.970 1_455 S
Li179 N229 1.990 . S
Li179 O237 1.961 . S
Li179 O238 1.970 . S
Li179 O239 1.943 1_455 S
C180 C182 1.348 . S
C180 C183 1.356 . S
C180 O236 1.325 . S
N181 C184 1.314 . S
N181 C185 1.279 . S
C182 C180 1.348 . S
C182 C184 1.353 . S
C182 H240 0.929 . S
C183 C180 1.356 . S
C183 C185 1.358 . S
C183 H241 0.930 . S
C184 N181 1.314 . S
C184 C182 1.353 . S
C184 H242 0.930 . S
C185 N181 1.279 . S
C185 C183 1.358 . S
C185 H243 0.930 . S
C186 C189 1.343 1_455 S
C186 C190 1.359 . S
C186 O237 1.325 . S
C187 N188 1.279 1_455 S
C187 C190 1.358 1_545 S
C187 H244 0.930 . S
N188 C187 1.279 1_655 S
N188 C191 1.314 . S
C189 C186 1.343 1_655 S
C189 C191 1.353 1_565 S
C189 H245 0.929 . S
C190 C186 1.359 . S
C190 C187 1.358 1_565 S
C190 H246 0.930 . S
C191 N188 1.314 . S
C191 C189 1.353 1_545 S
C191 H247 0.930 . S
C192 N193 1.314 1_455 S
C192 C197 1.353 . S
C192 H198 0.930 . S
N193 Li176 1.990 . S
N193 C192 1.314 1_655 S
N193 C195 1.279 . S
C194 C195 1.358 . S
C194 C196 1.348 1_655 S
C194 H248 0.930 . S
C195 N193 1.279 . S
C195 C194 1.358 . S
C195 H199 0.930 . S
C196 C194 1.348 1_455 S
C196 C197 1.356 . S
C197 C192 1.353 . S
C197 C196 1.356 . S
C197 H249 0.929 . S
H198 C192 0.930 . S
H199 C195 0.930 . S
C200 N201 1.314 . S
C200 C202 1.353 . S
C200 H206 0.930 . S
N201 Li177 1.990 . S
N201 C200 1.314 . S
N201 C204 1.279 . S
C202 C200 1.353 . S
C202 C205 1.348 . S
C202 H250 0.929 . S
C203 C204 1.358 . S
C203 C205 1.356 . S
C203 H251 0.930 . S
C204 N201 1.279 . S
C204 C203 1.358 . S
C204 H207 0.930 . S
C205 C202 1.348 . S
C205 C203 1.356 . S
H206 C200 0.930 . S
H207 C204 0.930 . S
C208 C210 1.348 . S
C208 C211 1.356 . S
C208 O238 1.325 . S
N209 C212 1.314 . S
N209 C213 1.279 . S
C210 C208 1.348 . S
C210 C212 1.353 . S
C210 H252 0.929 . S
C211 C208 1.356 . S
C211 C213 1.358 . S
C211 H253 0.930 . S
C212 N209 1.314 . S
C212 C210 1.353 . S
C212 H254 0.930 . S
C213 N209 1.279 . S
C213 C211 1.358 . S
C213 H255 0.930 . S
C214 C215 1.350 . S
C214 C216 1.355 1_455 S
C214 O239 1.324 1_455 S
C215 C214 1.350 . S
C215 C217 1.353 . S
C215 H256 0.929 . S
C216 C214 1.355 1_655 S
C216 C218 1.358 . S
C216 H257 0.930 . S
C217 C215 1.353 . S
C217 N219 1.314 . S
C217 H258 0.930 . S
C218 C216 1.358 . S
C218 N219 1.279 1_655 S
C218 H259 0.930 . S
N219 C217 1.314 . S
N219 C218 1.279 1_455 S
C220 C222 1.353 . S
C220 N223 1.314 1_655 S
C220 H226 0.930 . S
C221 N223 1.279 . S
C221 C224 1.358 . S
C221 H227 0.930 . S
C222 C220 1.353 . S
C222 C225 1.336 1_655 S
C222 H260 0.929 . S
N223 Li178 1.990 . S
N223 C220 1.314 1_455 S
N223 C221 1.279 . S
C224 C221 1.358 . S
C224 C225 1.368 . S
C224 H261 0.930 . S
C225 C222 1.336 1_455 S
C225 C224 1.368 . S
H226 C220 0.930 . S
H227 C221 0.930 . S
C228 N229 1.314 . S
C228 C230 1.353 . S
C228 H234 0.930 . S
N229 Li179 1.990 . S
N229 C228 1.314 . S
N229 C232 1.279 . S
C230 C228 1.353 . S
C230 C233 1.348 . S
C230 H262 0.929 . S
C231 C232 1.358 . S
C231 C233 1.356 . S
C231 H263 0.930 . S
C232 N229 1.279 . S
C232 C231 1.358 . S
C232 H235 0.930 . S
C233 C230 1.348 . S
C233 C231 1.356 . S
H234 C228 0.930 . S
H235 C232 0.930 . S
O236 Li176 1.969 . S
O236 Li177 1.970 . S
O236 Li178 1.961 1_655 S
O236 C180 1.325 . S
O237 Li176 1.970 1_455 S
O237 Li177 1.956 1_455 S
O237 Li179 1.961 . S
O237 C186 1.325 . S
O238 Li176 1.948 1_455 S
O238 Li178 1.956 . S
O238 Li179 1.970 . S
O238 C208 1.325 . S
O239 Li177 1.973 . S
O239 Li178 1.970 1_655 S
O239 Li179 1.943 1_655 S
O239 C214 1.324 1_655 S
H240 C182 0.929 . S
H241 C183 0.930 . S
H242 C184 0.930 . S
H243 C185 0.930 . S
H244 C187 0.930 . S
H245 C189 0.929 . S
H246 C190 0.930 . S
H247 C191 0.930 . S
H248 C194 0.930 . S
H249 C197 0.929 . S
H250 C202 0.929 . S
H251 C203 0.930 . S
H252 C210 0.929 . S
H253 C211 0.930 . S
H254 C212 0.930 . S
H255 C213 0.930 . S
H256 C215 0.929 . S
H257 C216 0.930 . S
H258 C217 0.930 . S
H259 C218 0.930 . S
H260 C222 0.929 . S
H261 C224 0.930 . S
H262 C230 0.929 . S
H263 C231 0.930 . S
Li264 N281 1.990 . S
Li264 O324 1.956 1_655 S
Li264 O325 1.970 . S
Li264 O326 1.979 . S
Li265 N289 1.991 . S
Li265 O324 1.970 1_655 S
Li265 O325 1.976 . S
Li265 O327 1.940 1_655 S
Li266 N311 1.990 . S
Li266 O324 1.961 . S
Li266 O326 1.937 1_455 S
Li266 O327 1.970 . S
Li267 N317 1.990 . S
Li267 O325 1.961 1_455 S
Li267 O326 1.969 1_455 S
Li267 O327 1.956 . S
C268 C270 1.346 1_455 S
C268 C271 1.357 . S
C268 O324 1.325 . S
N269 C272 1.314 . S
N269 C273 1.279 1_655 S
C270 C268 1.346 1_655 S
C270 C272 1.353 . S
C270 H328 0.929 . S
C271 C268 1.357 . S
C271 C273 1.358 . S
C271 H329 0.930 . S
C272 N269 1.314 . S
C272 C270 1.353 . S
C272 H330 0.930 . S
C273 N269 1.279 1_455 S
C273 C271 1.358 . S
C273 H331 0.930 . S
C274 C277 1.348 . S
C274 C278 1.356 . S
C274 O325 1.325 . S
C275 N276 1.279 . S
C275 C278 1.358 . S
C275 H332 0.930 . S
N276 C275 1.279 . S
N276 C279 1.314 . S
C277 C274 1.348 . S
C277 C279 1.353 . S
C277 H333 0.929 . S
C278 C274 1.356 . S
C278 C275 1.358 . S
C278 H334 0.930 . S
C279 N276 1.314 . S
C279 C277 1.353 . S
C279 H335 0.930 . S
C280 N281 1.314 . S
C280 C285 1.353 . S
C280 H286 0.930 . S
N281 Li264 1.990 . S
N281 C280 1.314 . S
N281 C283 1.279 . S
C282 C283 1.358 . S
C282 C284 1.356 . S
C282 H336 0.930 . S
C283 N281 1.279 . S
C283 C282 1.358 . S
C283 H287 0.930 . S
C284 C282 1.356 . S
C284 C285 1.348 . S
C285 C280 1.353 . S
C285 C284 1.348 . S
C285 H337 0.929 . S
H286 C280 0.930 . S
H287 C283 0.930 . S
C288 N289 1.314 1_455 S
C288 C290 1.353 . S
C288 H294 0.930 . S
N289 Li265 1.991 . S
N289 C288 1.314 1_655 S
N289 C292 1.279 . S
C290 C288 1.353 . S
C290 C293 1.347 . S
C290 H338 0.929 . S
C291 C292 1.358 . S
C291 C293 1.356 1_655 S
C291 H339 0.930 . S
C292 N289 1.279 . S
C292 C291 1.358 . S
C292 H295 0.930 . S
C293 C290 1.347 . S
C293 C291 1.356 1_455 S
H294 C288 0.930 . S
H295 C292 0.930 . S
C296 C298 1.347 . S
C296 C299 1.356 1_455 S
C296 O326 1.324 1_455 S
N297 C300 1.314 . S
N297 C301 1.279 1_455 S
C298 C296 1.347 . S
C298 C300 1.353 . S
C298 H340 0.929 . S
C299 C296 1.356 1_655 S
C299 C301 1.358 . S
C299 H341 0.930 . S
C300 N297 1.314 . S
C300 C298 1.353 . S
C300 H342 0.930 . S
C301 N297 1.279 1_655 S
C301 C299 1.358 . S
C301 H343 0.930 . S
C302 C303 1.348 . S
C302 C304 1.356 . S
C302 O327 1.325 . S
C303 C302 1.348 . S
C303 C305 1.353 . S
C303 H344 0.929 . S
C304 C302 1.356 . S
C304 C306 1.358 . S
C304 H345 0.930 . S
C305 C303 1.353 . S
C305 N307 1.314 . S
C305 H346 0.930 . S
C306 C304 1.358 . S
C306 N307 1.279 . S
C306 H347 0.930 . S
N307 C305 1.314 . S
N307 C306 1.279 . S
C308 C310 1.353 . S
C308 N311 1.314 . S
C308 H314 0.930 . S
C309 N311 1.279 . S
C309 C312 1.358 . S
C309 H315 0.930 . S
C310 C308 1.353 . S
C310 C313 1.348 . S
C310 H348 0.929 . S
N311 Li266 1.990 . S
N311 C308 1.314 . S
N311 C309 1.279 . S
C312 C309 1.358 . S
C312 C313 1.356 . S
C312 H349 0.930 . S
C313 C310 1.348 . S
C313 C312 1.356 . S
H314 C308 0.930 . S
H315 C309 0.930 . S
C316 N317 1.314 1_655 S
C316 C318 1.353 . S
C316 H322 0.930 . S
N317 Li267 1.990 . S
N317 C316 1.314 1_455 S
N317 C320 1.279 . S
C318 C316 1.353 . S
C318 C321 1.344 1_655 S
C318 H350 0.929 . S
C319 C320 1.358 . S
C319 C321 1.360 . S
C319 H351 0.930 . S
C320 N317 1.279 . S
C320 C319 1.358 . S
C320 H323 0.930 . S
C321 C318 1.344 1_455 S
C321 C319 1.360 . S
H322 C316 0.930 . S
H323 C320 0.930 . S
O324 Li264 1.956 1_455 S
O324 Li265 1.970 1_455 S
O324 Li266 1.961 . S
O324 C268 1.325 . S
O325 Li264 1.970 . S
O325 Li265 1.976 . S
O325 Li267 1.961 1_655 S
O325 C274 1.325 . S
O326 Li264 1.979 . S
O326 Li266 1.937 1_655 S
O326 Li267 1.969 1_655 S
O326 C296 1.324 1_655 S
O327 Li265 1.940 1_455 S
O327 Li266 1.970 . S
O327 Li267 1.956 . S
O327 C302 1.325 . S
H328 C270 0.929 . S
H329 C271 0.930 . S
H330 C272 0.930 . S
H331 C273 0.930 . S
H332 C275 0.930 . S
H333 C277 0.929 . S
H334 C278 0.930 . S
H335 C279 0.930 . S
H336 C282 0.930 . S
H337 C285 0.929 . S
H338 C290 0.929 . S
H339 C291 0.930 . S
H340 C298 0.929 . S
H341 C299 0.930 . S
H342 C300 0.930 . S
H343 C301 0.930 . S
H344 C303 0.929 . S
H345 C304 0.930 . S
H346 C305 0.930 . S
H347 C306 0.930 . S
H348 C310 0.929 . S
H349 C312 0.930 . S
H350 C318 0.929 . S
H351 C319 0.930 . S
Li352 N369 1.990 . S
Li352 O412 1.956 . S
Li352 O413 1.970 . S
Li352 O414 1.961 . S
Li353 N377 1.990 . S
Li353 O412 1.970 . S
Li353 O413 1.956 . S
Li353 O415 1.961 . S
Li354 N399 1.990 . S
Li354 O412 1.961 . S
Li354 O414 1.956 . S
Li354 O415 1.970 . S
Li355 N405 1.990 . S
Li355 O413 1.961 . S
Li355 O414 1.970 . S
Li355 O415 1.956 . S
C356 C358 1.348 . S
C356 C359 1.356 . S
C356 O412 1.325 . S
N357 C360 1.314 . S
N357 C361 1.279 . S
C358 C356 1.348 . S
C358 C360 1.353 . S
C358 H416 0.929 . S
C359 C356 1.356 . S
C359 C361 1.358 . S
C359 H417 0.930 . S
C360 N357 1.314 . S
C360 C358 1.353 . S
C360 H418 0.930 . S
C361 N357 1.279 . S
C361 C359 1.358 . S
C361 H419 0.930 . S
C362 C365 1.348 . S
C362 C366 1.356 . S
C362 O413 1.325 . S
C363 N364 1.279 . S
C363 C366 1.358 . S
C363 H420 0.930 . S
N364 C363 1.279 . S
N364 C367 1.314 . S
C365 C362 1.348 . S
C365 C367 1.353 . S
C365 H421 0.929 . S
C366 C362 1.356 . S
C366 C363 1.358 . S
C366 H422 0.930 . S
C367 N364 1.314 . S
C367 C365 1.353 . S
C367 H423 0.930 . S
C368 N369 1.314 . S
C368 C373 1.353 . S
C368 H374 0.930 . S
N369 Li352 1.990 . S
N369 C368 1.314 . S
N369 C371 1.279 . S
C370 C371 1.358 . S
C370 C372 1.356 . S
C370 H424 0.930 . S
C371 N369 1.279 . S
C371 C370 1.358 . S
C371 H375 0.930 . S
C372 C370 1.356 . S
C372 C373 1.348 . S
C373 C368 1.353 . S
C373 C372 1.348 . S
C373 H425 0.929 . S
H374 C368 0.930 . S
H375 C371 0.930 . S
C376 N377 1.314 . S
C376 C378 1.353 . S
C376 H382 0.930 . S
N377 Li353 1.990 . S
N377 C376 1.314 . S
N377 C380 1.279 . S
C378 C376 1.353 . S
C378 C381 1.348 . S
C378 H426 0.929 . S
C379 C380 1.358 . S
C379 C381 1.356 . S
C379 H427 0.930 . S
C380 N377 1.279 . S
C380 C379 1.358 . S
C380 H383 0.930 . S
C381 C378 1.348 . S
C381 C379 1.356 . S
H382 C376 0.930 . S
H383 C380 0.930 . S
C384 C386 1.348 . S
C384 C387 1.356 . S
C384 O414 1.325 . S
N385 C388 1.314 . S
N385 C389 1.279 . S
C386 C384 1.348 . S
C386 C388 1.353 . S
C386 H428 0.929 . S
C387 C384 1.356 . S
C387 C389 1.358 . S
C387 H429 0.930 . S
C388 N385 1.314 . S
C388 C386 1.353 . S
C388 H430 0.930 . S
C389 N385 1.279 . S
C389 C387 1.358 . S
C389 H431 0.930 . S
C390 C391 1.348 . S
C390 C392 1.356 . S
C390 O415 1.325 . S
C391 C390 1.348 . S
C391 C393 1.353 . S
C391 H432 0.929 . S
C392 C390 1.356 . S
C392 C394 1.358 . S
C392 H433 0.930 . S
C393 C391 1.353 . S
C393 N395 1.314 . S
C393 H434 0.930 . S
C394 C392 1.358 . S
C394 N395 1.279 . S
C394 H435 0.930 . S
N395 C393 1.314 . S
N395 C394 1.279 . S
C396 C398 1.353 . S
C396 N399 1.314 . S
C396 H402 0.930 . S
C397 N399 1.279 . S
C397 C400 1.358 . S
C397 H403 0.930 . S
C398 C396 1.353 . S
C398 C401 1.348 . S
C398 H436 0.929 . S
N399 Li354 1.990 . S
N399 C396 1.314 . S
N399 C397 1.279 . S
C400 C397 1.358 . S
C400 C401 1.356 . S
C400 H437 0.930 . S
C401 C398 1.348 . S
C401 C400 1.356 . S
H402 C396 0.930 . S
H403 C397 0.930 . S
C404 N405 1.314 . S
C404 C406 1.353 . S
C404 H410 0.930 . S
N405 Li355 1.990 . S
N405 C404 1.314 . S
N405 C408 1.279 . S
C406 C404 1.353 . S
C406 C409 1.348 . S
C406 H438 0.929 . S
C407 C408 1.358 . S
C407 C409 1.356 . S
C407 H439 0.930 . S
C408 N405 1.279 . S
C408 C407 1.358 . S
C408 H411 0.930 . S
C409 C406 1.348 . S
C409 C407 1.356 . S
H410 C404 0.930 . S
H411 C408 0.930 . S
O412 Li352 1.956 . S
O412 Li353 1.970 . S
O412 Li354 1.961 . S
O412 C356 1.325 . S
O413 Li352 1.970 . S
O413 Li353 1.956 . S
O413 Li355 1.961 . S
O413 C362 1.325 . S
O414 Li352 1.961 . S
O414 Li354 1.956 . S
O414 Li355 1.970 . S
O414 C384 1.325 . S
O415 Li353 1.961 . S
O415 Li354 1.970 . S
O415 Li355 1.956 . S
O415 C390 1.325 . S
H416 C358 0.929 . S
H417 C359 0.930 . S
H418 C360 0.930 . S
H419 C361 0.930 . S
H420 C363 0.930 . S
H421 C365 0.929 . S
H422 C366 0.930 . S
H423 C367 0.930 . S
H424 C370 0.930 . S
H425 C373 0.929 . S
H426 C378 0.929 . S
H427 C379 0.930 . S
H428 C386 0.929 . S
H429 C387 0.930 . S
H430 C388 0.930 . S
H431 C389 0.930 . S
H432 C391 0.929 . S
H433 C392 0.930 . S
H434 C393 0.930 . S
H435 C394 0.930 . S
H436 C398 0.929 . S
H437 C400 0.930 . S
H438 C406 0.929 . S
H439 C407 0.930 . S
Li440 N457 1.990 . S
Li440 O500 1.956 . S
Li440 O501 1.970 . S
Li440 O502 1.961 . S
Li441 N465 1.990 . S
Li441 O500 1.970 . S
Li441 O501 1.956 . S
Li441 O503 1.961 . S
Li442 N487 1.990 . S
Li442 O500 1.961 . S
Li442 O502 1.956 . S
Li442 O503 1.970 . S
Li443 N493 1.990 . S
Li443 O501 1.961 . S
Li443 O502 1.970 . S
Li443 O503 1.956 . S
C444 C446 1.348 . S
C444 C447 1.356 . S
C444 O500 1.325 . S
N445 C448 1.314 . S
N445 C449 1.279 . S
C446 C444 1.348 . S
C446 C448 1.353 . S
C446 H504 0.929 . S
C447 C444 1.356 . S
C447 C449 1.358 . S
C447 H505 0.930 . S
C448 N445 1.314 . S
C448 C446 1.353 . S
C448 H506 0.930 . S
C449 N445 1.279 . S
C449 C447 1.358 . S
C449 H507 0.930 . S
C450 C453 1.348 . S
C450 C454 1.356 . S
C450 O501 1.325 . S
C451 N452 1.279 . S
C451 C454 1.358 1_545 S
C451 H508 0.930 . S
N452 C451 1.279 . S
N452 C455 1.314 . S
C453 C450 1.348 . S
C453 C455 1.353 1_565 S
C453 H509 0.929 . S
C454 C450 1.356 . S
C454 C451 1.358 1_565 S
C454 H510 0.930 . S
C455 N452 1.314 . S
C455 C453 1.353 1_545 S
C455 H511 0.930 . S
C456 N457 1.314 . S
C456 C461 1.353 . S
C456 H462 0.930 . S
N457 Li440 1.990 . S
N457 C456 1.314 . S
N457 C459 1.279 . S
C458 C459 1.358 . S
C458 C460 1.356 . S
C458 H512 0.930 . S
C459 N457 1.279 . S
C459 C458 1.358 . S
C459 H463 0.930 . S
C460 C458 1.356 . S
C460 C461 1.348 . S
C461 C456 1.353 . S
C461 C460 1.348 . S
C461 H513 0.929 . S
H462 C456 0.930 . S
H463 C459 0.930 . S
C464 N465 1.314 . S
C464 C466 1.353 . S
C464 H470 0.930 . S
N465 Li441 1.990 . S
N465 C464 1.314 . S
N465 C468 1.279 . S
C466 C464 1.353 . S
C466 C469 1.348 . S
C466 H514 0.929 . S
C467 C468 1.358 . S
C467 C469 1.356 . S
C467 H515 0.930 . S
C468 N465 1.279 . S
C468 C467 1.358 . S
C468 H471 0.930 . S
C469 C466 1.348 . S
C469 C467 1.356 . S
H470 C464 0.930 . S
H471 C468 0.930 . S
C472 C474 1.348 . S
C472 C475 1.356 . S
C472 O502 1.325 . S
N473 C476 1.314 . S
N473 C477 1.279 . S
C474 C472 1.348 . S
C474 C476 1.353 . S
C474 H516 0.929 . S
C475 C472 1.356 . S
C475 C477 1.358 . S
C475 H517 0.930 . S
C476 N473 1.314 . S
C476 C474 1.353 . S
C476 H518 0.930 . S
C477 N473 1.279 . S
C477 C475 1.358 . S
C477 H519 0.930 . S
C478 C479 1.348 . S
C478 C480 1.356 . S
C478 O503 1.325 . S
C479 C478 1.348 . S
C479 C481 1.353 . S
C479 H520 0.929 . S
C480 C478 1.356 . S
C480 C482 1.358 . S
C480 H521 0.930 . S
C481 C479 1.353 . S
C481 N483 1.314 . S
C481 H522 0.930 . S
C482 C480 1.358 . S
C482 N483 1.279 . S
C482 H523 0.930 . S
N483 C481 1.314 . S
N483 C482 1.279 . S
C484 C486 1.353 . S
C484 N487 1.314 . S
C484 H490 0.930 . S
C485 N487 1.279 . S
C485 C488 1.358 . S
C485 H491 0.930 . S
C486 C484 1.353 . S
C486 C489 1.348 . S
C486 H524 0.929 . S
N487 Li442 1.990 . S
N487 C484 1.314 . S
N487 C485 1.279 . S
C488 C485 1.358 . S
C488 C489 1.356 . S
C488 H525 0.930 . S
C489 C486 1.348 . S
C489 C488 1.356 . S
H490 C484 0.930 . S
H491 C485 0.930 . S
C492 N493 1.314 . S
C492 C494 1.353 . S
C492 H498 0.930 . S
N493 Li443 1.990 . S
N493 C492 1.314 . S
N493 C496 1.279 . S
C494 C492 1.353 . S
C494 C497 1.348 . S
C494 H526 0.929 . S
C495 C496 1.358 . S
C495 C497 1.356 . S
C495 H527 0.930 . S
C496 N493 1.279 . S
C496 C495 1.358 . S
C496 H499 0.930 . S
C497 C494 1.348 . S
C497 C495 1.356 . S
H498 C492 0.930 . S
H499 C496 0.930 . S
O500 Li440 1.956 . S
O500 Li441 1.970 . S
O500 Li442 1.961 . S
O500 C444 1.325 . S
O501 Li440 1.970 . S
O501 Li441 1.956 . S
O501 Li443 1.961 . S
O501 C450 1.325 . S
O502 Li440 1.961 . S
O502 Li442 1.956 . S
O502 Li443 1.970 . S
O502 C472 1.325 . S
O503 Li441 1.961 . S
O503 Li442 1.970 . S
O503 Li443 1.956 . S
O503 C478 1.325 . S
H504 C446 0.929 . S
H505 C447 0.930 . S
H506 C448 0.930 . S
H507 C449 0.930 . S
H508 C451 0.930 . S
H509 C453 0.929 . S
H510 C454 0.930 . S
H511 C455 0.930 . S
H512 C458 0.930 . S
H513 C461 0.929 . S
H514 C466 0.929 . S
H515 C467 0.930 . S
H516 C474 0.929 . S
H517 C475 0.930 . S
H518 C476 0.930 . S
H519 C477 0.930 . S
H520 C479 0.929 . S
H521 C480 0.930 . S
H522 C481 0.930 . S
H523 C482 0.930 . S
H524 C486 0.929 . S
H525 C488 0.930 . S
H526 C494 0.929 . S
H527 C495 0.930 . S
Li528 N545 1.990 . S
Li528 O588 1.956 . S
Li528 O589 1.970 . S
Li528 O590 1.961 . S
Li529 N553 1.990 . S
Li529 O588 1.970 . S
Li529 O589 1.956 . S
Li529 O591 1.961 . S
Li530 N575 1.990 . S
Li530 O588 1.961 . S
Li530 O590 1.956 . S
Li530 O591 1.970 . S
Li531 N581 1.990 . S
Li531 O589 1.961 . S
Li531 O590 1.970 . S
Li531 O591 1.956 . S
C532 C534 1.348 . S
C532 C535 1.356 . S
C532 O588 1.325 . S
N533 C536 1.314 . S
N533 C537 1.279 . S
C534 C532 1.348 . S
C534 C536 1.353 . S
C534 H592 0.929 . S
C535 C532 1.356 . S
C535 C537 1.358 . S
C535 H593 0.930 . S
C536 N533 1.314 . S
C536 C534 1.353 . S
C536 H594 0.930 . S
C537 N533 1.279 . S
C537 C535 1.358 . S
C537 H595 0.930 . S
C538 C541 1.348 . S
C538 C542 1.356 . S
C538 O589 1.325 . S
C539 N540 1.279 . S
C539 C542 1.358 . S
C539 H596 0.930 . S
N540 C539 1.279 . S
N540 C543 1.314 . S
C541 C538 1.348 . S
C541 C543 1.353 . S
C541 H597 0.929 . S
C542 C538 1.356 . S
C542 C539 1.358 . S
C542 H598 0.930 . S
C543 N540 1.314 . S
C543 C541 1.353 . S
C543 H599 0.930 . S
C544 N545 1.314 . S
C544 C549 1.353 . S
C544 H550 0.930 . S
N545 Li528 1.990 . S
N545 C544 1.314 . S
N545 C547 1.279 . S
C546 C547 1.358 . S
C546 C548 1.356 . S
C546 H600 0.930 . S
C547 N545 1.279 . S
C547 C546 1.358 . S
C547 H551 0.930 . S
C548 C546 1.356 . S
C548 C549 1.348 . S
C549 C544 1.353 . S
C549 C548 1.348 . S
C549 H601 0.929 . S
H550 C544 0.930 . S
H551 C547 0.930 . S
C552 N553 1.314 . S
C552 C554 1.353 . S
C552 H558 0.930 . S
N553 Li529 1.990 . S
N553 C552 1.314 . S
N553 C556 1.279 . S
C554 C552 1.353 . S
C554 C557 1.348 . S
C554 H602 0.929 . S
C555 C556 1.358 . S
C555 C557 1.356 . S
C555 H603 0.930 . S
C556 N553 1.279 . S
C556 C555 1.358 . S
C556 H559 0.930 . S
C557 C554 1.348 . S
C557 C555 1.356 . S
H558 C552 0.930 . S
H559 C556 0.930 . S
C560 C562 1.348 . S
C560 C563 1.356 . S
C560 O590 1.325 . S
N561 C564 1.314 . S
N561 C565 1.279 . S
C562 C560 1.348 . S
C562 C564 1.353 . S
C562 H604 0.929 . S
C563 C560 1.356 . S
C563 C565 1.358 . S
C563 H605 0.930 . S
C564 N561 1.314 . S
C564 C562 1.353 . S
C564 H606 0.930 . S
C565 N561 1.279 . S
C565 C563 1.358 . S
C565 H607 0.930 . S
C566 C567 1.348 . S
C566 C568 1.356 . S
C566 O591 1.325 . S
C567 C566 1.348 . S
C567 C569 1.353 . S
C567 H608 0.929 . S
C568 C566 1.356 . S
C568 C570 1.358 . S
C568 H609 0.930 . S
C569 C567 1.353 . S
C569 N571 1.314 . S
C569 H610 0.930 . S
C570 C568 1.358 . S
C570 N571 1.279 . S
C570 H611 0.930 . S
N571 C569 1.314 . S
N571 C570 1.279 . S
C572 C574 1.353 . S
C572 N575 1.314 . S
C572 H578 0.930 . S
C573 N575 1.279 . S
C573 C576 1.358 . S
C573 H579 0.930 . S
C574 C572 1.353 . S
C574 C577 1.348 . S
C574 H612 0.929 . S
N575 Li530 1.990 . S
N575 C572 1.314 . S
N575 C573 1.279 . S
C576 C573 1.358 . S
C576 C577 1.356 . S
C576 H613 0.930 . S
C577 C574 1.348 . S
C577 C576 1.356 . S
H578 C572 0.930 . S
H579 C573 0.930 . S
C580 N581 1.314 . S
C580 C582 1.353 . S
C580 H586 0.930 . S
N581 Li531 1.990 . S
N581 C580 1.314 . S
N581 C584 1.279 . S
C582 C580 1.353 . S
C582 C585 1.348 . S
C582 H614 0.929 . S
C583 C584 1.358 . S
C583 C585 1.356 . S
C583 H615 0.930 . S
C584 N581 1.279 . S
C584 C583 1.358 . S
C584 H587 0.930 . S
C585 C582 1.348 . S
C585 C583 1.356 . S
H586 C580 0.930 . S
H587 C584 0.930 . S
O588 Li528 1.956 . S
O588 Li529 1.970 . S
O588 Li530 1.961 . S
O588 C532 1.325 . S
O589 Li528 1.970 . S
O589 Li529 1.956 . S
O589 Li531 1.961 . S
O589 C538 1.325 . S
O590 Li528 1.961 . S
O590 Li530 1.956 . S
O590 Li531 1.970 . S
O590 C560 1.325 . S
O591 Li529 1.961 . S
O591 Li530 1.970 . S
O591 Li531 1.956 . S
O591 C566 1.325 . S
H592 C534 0.929 . S
H593 C535 0.930 . S
H594 C536 0.930 . S
H595 C537 0.930 . S
H596 C539 0.930 . S
H597 C541 0.929 . S
H598 C542 0.930 . S
H599 C543 0.930 . S
H600 C546 0.930 . S
H601 C549 0.929 . S
H602 C554 0.929 . S
H603 C555 0.930 . S
H604 C562 0.929 . S
H605 C563 0.930 . S
H606 C564 0.930 . S
H607 C565 0.930 . S
H608 C567 0.929 . S
H609 C568 0.930 . S
H610 C569 0.930 . S
H611 C570 0.930 . S
H612 C574 0.929 . S
H613 C576 0.930 . S
H614 C582 0.929 . S
H615 C583 0.930 . S
Li616 N633 1.990 . S
Li616 O676 1.956 . S
Li616 O677 1.970 . S
Li616 O678 1.961 . S
Li617 N641 1.990 . S
Li617 O676 1.970 . S
Li617 O677 1.956 . S
Li617 O679 1.961 . S
Li618 N663 1.990 . S
Li618 O676 1.961 . S
Li618 O678 1.956 . S
Li618 O679 1.970 . S
Li619 N669 1.990 . S
Li619 O677 1.961 . S
Li619 O678 1.970 . S
Li619 O679 1.956 . S
C620 C622 1.348 . S
C620 C623 1.356 . S
C620 O676 1.325 . S
N621 C624 1.314 . S
N621 C625 1.279 . S
C622 C620 1.348 . S
C622 C624 1.353 . S
C622 H680 0.929 . S
C623 C620 1.356 . S
C623 C625 1.358 . S
C623 H681 0.930 . S
C624 N621 1.314 . S
C624 C622 1.353 . S
C624 H682 0.930 . S
C625 N621 1.279 . S
C625 C623 1.358 . S
C625 H683 0.930 . S
C626 C629 1.348 . S
C626 C630 1.356 . S
C626 O677 1.325 . S
C627 N628 1.279 . S
C627 C630 1.358 . S
C627 H684 0.930 . S
N628 C627 1.279 . S
N628 C631 1.314 . S
C629 C626 1.348 . S
C629 C631 1.353 . S
C629 H685 0.929 . S
C630 C626 1.356 . S
C630 C627 1.358 . S
C630 H686 0.930 . S
C631 N628 1.314 . S
C631 C629 1.353 . S
C631 H687 0.930 . S
C632 N633 1.314 . S
C632 C637 1.353 . S
C632 H638 0.930 . S
N633 Li616 1.990 . S
N633 C632 1.314 . S
N633 C635 1.279 . S
C634 C635 1.358 . S
C634 C636 1.356 . S
C634 H688 0.930 . S
C635 N633 1.279 . S
C635 C634 1.358 . S
C635 H639 0.930 . S
C636 C634 1.356 . S
C636 C637 1.348 . S
C637 C632 1.353 . S
C637 C636 1.348 . S
C637 H689 0.929 . S
H638 C632 0.930 . S
H639 C635 0.930 . S
C640 N641 1.314 . S
C640 C642 1.353 . S
C640 H646 0.930 . S
N641 Li617 1.990 . S
N641 C640 1.314 . S
N641 C644 1.279 . S
C642 C640 1.353 . S
C642 C645 1.348 . S
C642 H690 0.929 . S
C643 C644 1.358 . S
C643 C645 1.356 . S
C643 H691 0.930 . S
C644 N641 1.279 . S
C644 C643 1.358 . S
C644 H647 0.930 . S
C645 C642 1.348 . S
C645 C643 1.356 . S
H646 C640 0.930 . S
H647 C644 0.930 . S
C648 C650 1.348 . S
C648 C651 1.356 . S
C648 O678 1.325 . S
N649 C652 1.314 . S
N649 C653 1.279 . S
C650 C648 1.348 . S
C650 C652 1.353 . S
C650 H692 0.929 . S
C651 C648 1.356 . S
C651 C653 1.358 . S
C651 H693 0.930 . S
C652 N649 1.314 . S
C652 C650 1.353 . S
C652 H694 0.930 . S
C653 N649 1.279 . S
C653 C651 1.358 . S
C653 H695 0.930 . S
C654 C655 1.348 . S
C654 C656 1.356 . S
C654 O679 1.325 . S
C655 C654 1.348 . S
C655 C657 1.353 1_545 S
C655 H696 0.929 . S
C656 C654 1.356 . S
C656 C658 1.358 1_545 S
C656 H697 0.930 . S
C657 C655 1.353 1_565 S
C657 N659 1.314 . S
C657 H698 0.930 . S
C658 C656 1.358 1_565 S
C658 N659 1.279 . S
C658 H699 0.930 . S
N659 C657 1.314 . S
N659 C658 1.279 . S
C660 C662 1.353 . S
C660 N663 1.314 . S
C660 H666 0.930 . S
C661 N663 1.279 . S
C661 C664 1.358 . S
C661 H667 0.930 . S
C662 C660 1.353 . S
C662 C665 1.348 . S
C662 H700 0.929 . S
N663 Li618 1.990 . S
N663 C660 1.314 . S
N663 C661 1.279 . S
C664 C661 1.358 . S
C664 C665 1.356 . S
C664 H701 0.930 . S
C665 C662 1.348 . S
C665 C664 1.356 . S
H666 C660 0.930 . S
H667 C661 0.930 . S
C668 N669 1.314 . S
C668 C670 1.353 . S
C668 H674 0.930 . S
N669 Li619 1.990 . S
N669 C668 1.314 . S
N669 C672 1.279 . S
C670 C668 1.353 . S
C670 C673 1.348 . S
C670 H702 0.929 . S
C671 C672 1.358 . S
C671 C673 1.356 . S
C671 H703 0.930 . S
C672 N669 1.279 . S
C672 C671 1.358 . S
C672 H675 0.930 . S
C673 C670 1.348 . S
C673 C671 1.356 . S
H674 C668 0.930 . S
H675 C672 0.930 . S
O676 Li616 1.956 . S
O676 Li617 1.970 . S
O676 Li618 1.961 . S
O676 C620 1.325 . S
O677 Li616 1.970 . S
O677 Li617 1.956 . S
O677 Li619 1.961 . S
O677 C626 1.325 . S
O678 Li616 1.961 . S
O678 Li618 1.956 . S
O678 Li619 1.970 . S
O678 C648 1.325 . S
O679 Li617 1.961 . S
O679 Li618 1.970 . S
O679 Li619 1.956 . S
O679 C654 1.325 . S
H680 C622 0.929 . S
H681 C623 0.930 . S
H682 C624 0.930 . S
H683 C625 0.930 . S
H684 C627 0.930 . S
H685 C629 0.929 . S
H686 C630 0.930 . S
H687 C631 0.930 . S
H688 C634 0.930 . S
H689 C637 0.929 . S
H690 C642 0.929 . S
H691 C643 0.930 . S
H692 C650 0.929 . S
H693 C651 0.930 . S
H694 C652 0.930 . S
H695 C653 0.930 . S
H696 C655 0.929 . S
H697 C656 0.930 . S
H698 C657 0.930 . S
H699 C658 0.930 . S
H700 C662 0.929 . S
H701 C664 0.930 . S
H702 C670 0.929 . S
H703 C671 0.930 . S
H704 C710 0.930 . S
H705 C714 0.930 . S
H706 C719 0.929 . S
H707 C717 0.929 . S
H708 C712 0.929 . S
H709 C718 0.929 . S
C710 H704 0.930 . S
C710 C711 1.391 . S
C710 C718 1.378 . S
C711 C710 1.391 . S
C711 C719 1.409 1_455 S
C712 H708 0.929 . S
C712 C714 1.378 . S
C712 C716 1.364 . S
C713 C716 1.462 1_455 S
C713 C718 1.350 . S
C713 N721 1.427 1_455 S
C714 H705 0.930 . S
C714 C712 1.378 . S
C714 C715 1.375 . S
C715 C714 1.375 . S
C715 C717 1.425 1_655 S
C716 C712 1.364 . S
C716 C713 1.462 1_655 S
C716 N720 1.413 1_655 S
C717 H707 0.929 . S
C717 C715 1.425 1_455 S
C717 N720 1.384 . S
C718 H709 0.929 . S
C718 C710 1.378 . S
C718 C713 1.350 . S
C719 H706 0.929 . S
C719 C711 1.409 1_655 S
C719 N721 1.384 . S
N720 C716 1.413 1_455 S
N720 C717 1.384 . S
N721 C713 1.427 1_655 S
N721 C719 1.384 . S
H722 C728 0.930 . S
H723 C732 0.930 . S
H724 C737 0.929 . S
H725 C735 0.929 . S
H726 C730 0.929 . S
H727 C736 0.929 . S
C728 H722 0.930 . S
C728 C729 1.382 . S
C728 C736 1.378 . S
C729 C728 1.382 . S
C729 C737 1.418 1_455 S
C730 H726 0.929 . S
C730 C732 1.378 . S
C730 C734 1.359 . S
C731 C734 1.462 1_455 S
C731 C736 1.350 . S
C731 N739 1.427 1_455 S
C732 H723 0.930 . S
C732 C730 1.378 . S
C732 C733 1.368 . S
C733 C732 1.368 . S
C733 C735 1.432 1_655 S
C734 C730 1.359 . S
C734 C731 1.462 1_655 S
C734 N738 1.418 1_655 S
C735 H725 0.929 . S
C735 C733 1.432 1_455 S
C735 N738 1.384 . S
C736 H727 0.929 . S
C736 C728 1.378 . S
C736 C731 1.350 . S
C737 H724 0.929 . S
C737 C729 1.418 1_655 S
C737 N739 1.384 . S
N738 C734 1.418 1_455 S
N738 C735 1.384 . S
N739 C731 1.427 1_655 S
N739 C737 1.384 . S
H740 C746 0.930 . S
H741 C750 0.930 . S
H742 C755 0.929 . S
H743 C753 0.929 . S
H744 C748 0.929 . S
H745 C754 0.929 . S
C746 H740 0.930 . S
C746 C747 1.367 . S
C746 C754 1.378 . S
C747 C746 1.367 . S
C747 C755 1.433 . S
C748 H744 0.929 . S
C748 C750 1.378 . S
C748 C752 1.350 . S
C749 C752 1.463 . S
C749 C754 1.350 . S
C749 N757 1.427 . S
C750 H741 0.930 . S
C750 C748 1.378 . S
C750 C751 1.367 . S
C751 C750 1.367 . S
C751 C753 1.433 . S
C752 C748 1.350 . S
C752 C749 1.463 . S
C752 N756 1.427 . S
C753 H743 0.929 . S
C753 C751 1.433 . S
C753 N756 1.384 . S
C754 H745 0.929 . S
C754 C746 1.378 . S
C754 C749 1.350 . S
C755 H742 0.929 . S
C755 C747 1.433 . S
C755 N757 1.384 . S
N756 C752 1.427 . S
N756 C753 1.384 . S
N757 C749 1.427 . S
N757 C755 1.384 . S
H758 C764 0.930 . S
H759 C768 0.930 . S
H760 C773 0.929 . S
H761 C771 0.929 . S
H762 C766 0.929 . S
H763 C772 0.929 . S
C764 H758 0.930 . S
C764 C765 1.367 . S
C764 C772 1.378 . S
C765 C764 1.367 . S
C765 C773 1.433 . S
C766 H762 0.929 . S
C766 C768 1.378 . S
C766 C770 1.350 . S
C767 C770 1.463 . S
C767 C772 1.350 . S
C767 N775 1.427 . S
C768 H759 0.930 . S
C768 C766 1.378 . S
C768 C769 1.367 . S
C769 C768 1.367 . S
C769 C771 1.433 . S
C770 C766 1.350 . S
C770 C767 1.463 . S
C770 N774 1.427 . S
C771 H761 0.929 . S
C771 C769 1.433 . S
C771 N774 1.384 . S
C772 H763 0.929 . S
C772 C764 1.378 . S
C772 C767 1.350 . S
C773 H760 0.929 . S
C773 C765 1.433 . S
C773 N775 1.384 . S
N774 C770 1.427 . S
N774 C771 1.384 . S
N775 C767 1.427 . S
N775 C773 1.384 . S
H776 C782 0.930 . S
H777 C786 0.930 . S
H778 C791 0.929 . S
H779 C789 0.929 . S
H780 C784 0.929 . S
H781 C790 0.929 . S
C782 H776 0.930 . S
C782 C783 1.367 . S
C782 C790 1.378 . S
C783 C782 1.367 . S
C783 C791 1.433 . S
C784 H780 0.929 . S
C784 C786 1.378 . S
C784 C788 1.350 . S
C785 C788 1.463 . S
C785 C790 1.350 . S
C785 N793 1.427 . S
C786 H777 0.930 . S
C786 C784 1.378 . S
C786 C787 1.367 . S
C787 C786 1.367 . S
C787 C789 1.433 . S
C788 C784 1.350 . S
C788 C785 1.463 . S
C788 N792 1.427 . S
C789 H779 0.929 . S
C789 C787 1.433 . S
C789 N792 1.384 . S
C790 H781 0.929 . S
C790 C782 1.378 . S
C790 C785 1.350 . S
C791 H778 0.929 . S
C791 C783 1.433 . S
C791 N793 1.384 . S
N792 C788 1.427 . S
N792 C789 1.384 . S
N793 C785 1.427 . S
N793 C791 1.384 . S
H794 C800 0.930 . S
H795 C804 0.930 . S
H796 C809 0.929 . S
H797 C807 0.929 . S
H798 C802 0.929 . S
H799 C808 0.929 . S
C800 H794 0.930 . S
C800 C801 1.367 . S
C800 C808 1.378 . S
C801 C800 1.367 . S
C801 C809 1.433 . S
C802 H798 0.929 . S
C802 C804 1.378 . S
C802 C806 1.350 . S
C803 C806 1.463 . S
C803 C808 1.350 . S
C803 N811 1.427 . S
C804 H795 0.930 . S
C804 C802 1.378 . S
C804 C805 1.367 . S
C805 C804 1.367 . S
C805 C807 1.433 . S
C806 C802 1.350 . S
C806 C803 1.463 . S
C806 N810 1.427 . S
C807 H797 0.929 . S
C807 C805 1.433 . S
C807 N810 1.384 . S
C808 H799 0.929 . S
C808 C800 1.378 . S
C808 C803 1.350 . S
C809 H796 0.929 . S
C809 C801 1.433 . S
C809 N811 1.384 . S
N810 C806 1.427 . S
N810 C807 1.384 . S
N811 C803 1.427 . S
N811 C809 1.384 . S
H812 C818 0.930 . S
H813 C822 0.930 . S
H814 C827 0.929 . S
H815 C825 0.929 . S
H816 C820 0.929 . S
H817 C826 0.929 . S
C818 H812 0.930 . S
C818 C819 1.367 . S
C818 C826 1.378 . S
C819 C818 1.367 . S
C819 C827 1.433 . S
C820 H816 0.929 . S
C820 C822 1.378 . S
C820 C824 1.350 . S
C821 C824 1.463 . S
C821 C826 1.350 . S
C821 N829 1.427 . S
C822 H813 0.930 . S
C822 C820 1.378 . S
C822 C823 1.367 . S
C823 C822 1.367 . S
C823 C825 1.433 . S
C824 C820 1.350 . S
C824 C821 1.463 . S
C824 N828 1.427 . S
C825 H815 0.929 . S
C825 C823 1.433 . S
C825 N828 1.384 . S
C826 H817 0.929 . S
C826 C818 1.378 . S
C826 C821 1.350 . S
C827 H814 0.929 . S
C827 C819 1.433 . S
C827 N829 1.384 . S
N828 C824 1.427 . S
N828 C825 1.384 . S
N829 C821 1.427 . S
N829 C827 1.384 . S
H830 C836 0.930 . S
H831 C840 0.930 . S
H832 C845 0.929 . S
H833 C843 0.929 . S
H834 C838 0.929 . S
H835 C844 0.929 . S
C836 H830 0.930 . S
C836 C837 1.367 . S
C836 C844 1.378 . S
C837 C836 1.367 . S
C837 C845 1.433 . S
C838 H834 0.929 . S
C838 C840 1.378 . S
C838 C842 1.350 . S
C839 C842 1.463 . S
C839 C844 1.350 . S
C839 N847 1.427 . S
C840 H831 0.930 . S
C840 C838 1.378 . S
C840 C841 1.367 . S
C841 C840 1.367 . S
C841 C843 1.433 . S
C842 C838 1.350 . S
C842 C839 1.463 . S
C842 N846 1.427 . S
C843 H833 0.929 . S
C843 C841 1.433 . S
C843 N846 1.384 . S
C844 H835 0.929 . S
C844 C836 1.378 . S
C844 C839 1.350 . S
C845 H832 0.929 . S
C845 C837 1.433 . S
C845 N847 1.384 . S
N846 C842 1.427 . S
N846 C843 1.384 . S
N847 C839 1.427 . S
N847 C845 1.384 . S
H848 C854 0.930 . S
H849 C858 0.930 . S
H850 C863 0.929 . S
H851 C861 0.929 . S
H852 C856 0.929 . S
H853 C862 0.929 . S
C854 H848 0.930 . S
C854 C855 1.367 . S
C854 C862 1.378 . S
C855 C854 1.367 . S
C855 C863 1.433 . S
C856 H852 0.929 . S
C856 C858 1.378 . S
C856 C860 1.350 . S
C857 C860 1.463 . S
C857 C862 1.350 . S
C857 N865 1.427 . S
C858 H849 0.930 . S
C858 C856 1.378 . S
C858 C859 1.367 . S
C859 C858 1.367 . S
C859 C861 1.433 . S
C860 C856 1.350 . S
C860 C857 1.463 . S
C860 N864 1.427 . S
C861 H851 0.929 . S
C861 C859 1.433 . S
C861 N864 1.384 . S
C862 H853 0.929 . S
C862 C854 1.378 . S
C862 C857 1.350 . S
C863 H850 0.929 . S
C863 C855 1.433 . S
C863 N865 1.384 . S
N864 C860 1.427 . S
N864 C861 1.384 . S
N865 C857 1.427 . S
N865 C863 1.384 . S
H866 C872 0.930 . S
H867 C876 0.930 . S
H868 C881 0.929 . S
H869 C879 0.929 . S
H870 C874 0.929 . S
H871 C880 0.929 . S
C872 H866 0.930 . S
C872 C873 1.367 . S
C872 C880 1.378 . S
C873 C872 1.367 . S
C873 C881 1.433 . S
C874 H870 0.929 . S
C874 C876 1.378 . S
C874 C878 1.350 . S
C875 C878 1.463 . S
C875 C880 1.350 . S
C875 N883 1.427 . S
C876 H867 0.930 . S
C876 C874 1.378 . S
C876 C877 1.367 . S
C877 C876 1.367 . S
C877 C879 1.433 . S
C878 C874 1.350 . S
C878 C875 1.463 . S
C878 N882 1.427 . S
C879 H869 0.929 . S
C879 C877 1.433 . S
C879 N882 1.384 . S
C880 H871 0.929 . S
C880 C872 1.378 . S
C880 C875 1.350 . S
C881 H868 0.929 . S
C881 C873 1.433 . S
C881 N883 1.384 . S
N882 C878 1.427 . S
N882 C879 1.384 . S
N883 C875 1.427 . S
N883 C881 1.384 . S
H884 C890 0.930 . S
H885 C894 0.930 . S
H886 C899 0.929 . S
H887 C897 0.929 . S
H888 C892 0.929 . S
H889 C898 0.929 . S
C890 H884 0.930 . S
C890 C891 1.367 . S
C890 C898 1.378 . S
C891 C890 1.367 . S
C891 C899 1.433 . S
C892 H888 0.929 . S
C892 C894 1.378 . S
C892 C896 1.350 . S
C893 C896 1.463 . S
C893 C898 1.350 . S
C893 N901 1.427 . S
C894 H885 0.930 . S
C894 C892 1.378 . S
C894 C895 1.367 . S
C895 C894 1.367 . S
C895 C897 1.433 . S
C896 C892 1.350 . S
C896 C893 1.463 . S
C896 N900 1.427 . S
C897 H887 0.929 . S
C897 C895 1.433 . S
C897 N900 1.384 . S
C898 H889 0.929 . S
C898 C890 1.378 . S
C898 C893 1.350 . S
C899 H886 0.929 . S
C899 C891 1.433 . S
C899 N901 1.384 . S
N900 C896 1.427 . S
N900 C897 1.384 . S
N901 C893 1.427 . S
N901 C899 1.384 . S
H902 C908 0.930 . S
H903 C912 0.930 . S
H904 C917 0.929 . S
H905 C915 0.929 . S
H906 C910 0.929 . S
H907 C916 0.929 . S
C908 H902 0.930 . S
C908 C909 1.367 . S
C908 C916 1.378 . S
C909 C908 1.367 . S
C909 C917 1.433 . S
C910 H906 0.929 . S
C910 C912 1.378 . S
C910 C914 1.350 . S
C911 C914 1.463 . S
C911 C916 1.350 . S
C911 N919 1.427 . S
C912 H903 0.930 . S
C912 C910 1.378 . S
C912 C913 1.367 . S
C913 C912 1.367 . S
C913 C915 1.433 . S
C914 C910 1.350 . S
C914 C911 1.463 . S
C914 N918 1.427 . S
C915 H905 0.929 . S
C915 C913 1.433 . S
C915 N918 1.384 . S
C916 H907 0.929 . S
C916 C908 1.378 . S
C916 C911 1.350 . S
C917 H904 0.929 . S
C917 C909 1.433 . S
C917 N919 1.384 . S
N918 C914 1.427 . S
N918 C915 1.384 . S
N919 C911 1.427 . S
N919 C917 1.384 . S
H920 C926 0.930 . S
H921 C930 0.930 . S
H922 C935 0.929 . S
H923 C933 0.929 . S
H924 C928 0.929 . S
H925 C934 0.929 . S
C926 H920 0.930 . S
C926 C927 1.364 1_665 S
C926 C934 1.378 . S
C927 C926 1.364 1_445 S
C927 C935 1.436 . S
C928 H924 0.929 . S
C928 C930 1.378 . S
C928 C932 1.350 1_545 S
C929 C932 1.463 1_544 S
C929 C934 1.350 1_445 S
C929 N937 1.428 . S
C930 H921 0.930 . S
C930 C928 1.378 . S
C930 C931 1.381 1_545 S
C931 C930 1.381 1_565 S
C931 C933 1.419 1_455 S
C932 C928 1.350 1_565 S
C932 C929 1.463 1_566 S
C932 N936 1.427 1_455 S
C933 H923 0.929 . S
C933 C931 1.419 1_655 S
C933 N936 1.384 . S
C934 H925 0.929 . S
C934 C926 1.378 . S
C934 C929 1.350 1_665 S
C935 H922 0.929 . S
C935 C927 1.436 . S
C935 N937 1.384 . S
N936 C932 1.427 1_655 S
N936 C933 1.384 . S
N937 C929 1.428 . S
N937 C935 1.384 . S
H938 C944 0.930 . S
H939 C948 0.930 . S
H940 C953 0.929 . S
H941 C951 0.929 . S
H942 C946 0.929 . S
H943 C952 0.929 . S
C944 H938 0.930 . S
C944 C945 1.369 . S
C944 C952 1.378 . S
C945 C944 1.369 . S
C945 C953 1.431 1_455 S
C946 H942 0.929 . S
C946 C948 1.378 . S
C946 C950 1.355 . S
C947 C950 1.462 1_456 S
C947 C952 1.354 . S
C947 N955 1.424 1_455 S
C948 H939 0.930 . S
C948 C946 1.378 . S
C948 C949 1.370 . S
C949 C948 1.370 . S
C949 C951 1.430 1_655 S
C950 C946 1.355 . S
C950 C947 1.462 1_654 S
C950 N954 1.422 1_655 S
C951 H941 0.929 . S
C951 C949 1.430 1_455 S
C951 N954 1.384 . S
C952 H943 0.929 . S
C952 C944 1.378 . S
C952 C947 1.354 . S
C953 H940 0.929 . S
C953 C945 1.431 1_655 S
C953 N955 1.384 . S
N954 C950 1.422 1_455 S
N954 C951 1.384 . S
N955 C947 1.424 1_655 S
N955 C953 1.384 . S
H956 C962 0.930 . S
H957 C966 0.930 . S
H958 C971 0.929 . S
H959 C969 0.929 . S
H960 C964 0.929 . S
H961 C970 0.929 . S
C962 H956 0.930 . S
C962 C963 1.367 . S
C962 C970 1.378 . S
C963 C962 1.367 . S
C963 C971 1.433 . S
C964 H960 0.929 . S
C964 C966 1.378 . S
C964 C968 1.350 . S
C965 C968 1.463 . S
C965 C970 1.350 . S
C965 N973 1.427 . S
C966 H957 0.930 . S
C966 C964 1.378 . S
C966 C967 1.367 . S
C967 C966 1.367 . S
C967 C969 1.433 . S
C968 C964 1.350 . S
C968 C965 1.463 . S
C968 N972 1.427 . S
C969 H959 0.929 . S
C969 C967 1.433 . S
C969 N972 1.384 . S
C970 H961 0.929 . S
C970 C962 1.378 . S
C970 C965 1.350 . S
C971 H958 0.929 . S
C971 C963 1.433 . S
C971 N973 1.384 . S
N972 C968 1.427 . S
N972 C969 1.384 . S
N973 C965 1.427 . S
N973 C971 1.384 . S
H974 C980 0.930 . S
H975 C984 0.930 . S
H976 C989 0.939 . S
H977 C987 0.939 . S
H978 C982 0.929 . S
H979 C988 0.929 . S
C980 H974 0.930 . S
C980 C981 1.367 . S
C980 C988 1.378 . S
C981 C980 1.367 . S
C981 C989 1.433 . S
C982 H978 0.929 . S
C982 C984 1.378 . S
C982 C986 1.350 . S
C983 C986 1.463 1_565 S
C983 C988 1.350 . S
C983 N991 1.427 1_565 S
C984 H975 0.930 . S
C984 C982 1.378 . S
C984 C985 1.367 . S
C985 C984 1.367 . S
C985 C987 1.433 . S
C986 C982 1.350 . S
C986 C983 1.463 1_545 S
C986 N990 1.427 1_545 S
C987 H977 0.939 . S
C987 C985 1.433 . S
C987 N990 1.384 1_545 S
C988 H979 0.929 . S
C988 C980 1.378 . S
C988 C983 1.350 . S
C989 H976 0.939 . S
C989 C981 1.433 . S
C989 N991 1.384 1_565 S
N990 C986 1.427 1_565 S
N990 C987 1.384 1_565 S
N991 C983 1.427 1_545 S
N991 C989 1.384 1_545 S
C711 C137 1.527 . S
C715 C20 1.525 1_655 S
C729 C225 1.525 . S
C733 C293 1.527 1_655 S
C747 C381 1.526 . S
C751 C489 1.527 . S
C765 C585 1.525 . S
C769 C636 1.528 . S
C783 C645 1.434 . S
C787 C29 1.427 . S
C801 C577 1.434 . S
C805 C145 1.427 . S
C819 C233 1.430 . S
C823 C497 1.432 . S
C837 C372 1.428 . S
C841 C284 1.434 . S
C855 C469 1.440 . S
C859 C205 1.434 . S
C873 C401 1.437 . S
C877 C313 1.437 . S
C891 C673 1.435 . S
C895 C57 1.439 . S
C909 C117 1.440 . S
C913 C548 1.434 . S
C927 C49 1.184 . S
C931 C196 1.184 . S
C945 C321 1.184 . S
C949 C108 1.184 1_655 S
C963 C557 1.184 . S
C967 C409 1.184 . S
C981 C460 1.178 . S
C985 C665 1.178 . S
