# Generated by pormake.
# Topology sml, (6)-cn, num edge types: 1
# Building blocks:
#     Node 0, Type 0, BuildingBlock: PAMTOO_clean_sbu_0, # of connection points: 6
#     Node 1, Type 0, BuildingBlock: PAMTOO_clean_sbu_0, # of connection points: 6
#     Node 2, Type 0, BuildingBlock: PAMTOO_clean_sbu_0, # of connection points: 6
#     Node 3, Type 0, BuildingBlock: PAMTOO_clean_sbu_0, # of connection points: 6
#     Node 4, Type 0, BuildingBlock: PAMTOO_clean_sbu_0, # of connection points: 6
#     Node 5, Type 0, BuildingBlock: PAMTOO_clean_sbu_0, # of connection points: 6
#     Edge 6, Type (0, 0), BuildingBlock: CIFDUS_clean_linker_0, # of connection points: 2
#     Edge 7, Type (0, 0), BuildingBlock: CIFDUS_clean_linker_0, # of connection points: 2
#     Edge 8, Type (0, 0), BuildingBlock: CIFDUS_clean_linker_0, # of connection points: 2
#     Edge 9, Type (0, 0), BuildingBlock: CIFDUS_clean_linker_0, # of connection points: 2
#     Edge 10, Type (0, 0), BuildingBlock: CIFDUS_clean_linker_0, # of connection points: 2
#     Edge 11, Type (0, 0), BuildingBlock: CIFDUS_clean_linker_0, # of connection points: 2
#     Edge 12, Type (0, 0), BuildingBlock: CIFDUS_clean_linker_0, # of connection points: 2
#     Edge 13, Type (0, 0), BuildingBlock: CIFDUS_clean_linker_0, # of connection points: 2
#     Edge 14, Type (0, 0), BuildingBlock: CIFDUS_clean_linker_0, # of connection points: 2
#     Edge 15, Type (0, 0), BuildingBlock: CIFDUS_clean_linker_0, # of connection points: 2
#     Edge 16, Type (0, 0), BuildingBlock: CIFDUS_clean_linker_0, # of connection points: 2
#     Edge 17, Type (0, 0), BuildingBlock: CIFDUS_clean_linker_0, # of connection points: 2
#     Edge 18, Type (0, 0), BuildingBlock: CIFDUS_clean_linker_0, # of connection points: 2
#     Edge 19, Type (0, 0), BuildingBlock: CIFDUS_clean_linker_0, # of connection points: 2
#     Edge 20, Type (0, 0), BuildingBlock: CIFDUS_clean_linker_0, # of connection points: 2
#     Edge 21, Type (0, 0), BuildingBlock: CIFDUS_clean_linker_0, # of connection points: 2
#     Edge 22, Type (0, 0), BuildingBlock: CIFDUS_clean_linker_0, # of connection points: 2
#     Edge 23, Type (0, 0), BuildingBlock: CIFDUS_clean_linker_0, # of connection points: 2
# Relax obj value: 0.221
# Max RMSD: 0.250
# Mean RMSD: 0.250
data_MOF--net-sml--node1-PAMTOO_clean_sbu_0--edge1-CIFDUS_clean_linker_0
_symmetry_space_group_name_H-M    P1
_symmetry_Int_Tables_number       1
_symmetry_cell_setting            triclinic
loop_
_symmetry_equiv_pos_as_xyz
'x, y, z'
_cell_length_a     28.675805
_cell_length_b     28.882569
_cell_length_c     22.824996
_cell_angle_alpha  90.340793
_cell_angle_beta   89.760395
_cell_angle_gamma 120.26031
loop_
_atom_site_label
_atom_site_type_symbol
_atom_site_fract_x
_atom_site_fract_y
_atom_site_fract_z
_atom_type_partial_charge
Dy0 Dy 0.14962 0.42336 0.97333 0.0
Dy1 Dy 0.2228 0.42177 0.08618 0.0
C2 C 0.20305 0.3481 0.97361 0.0
O3 O 0.09301 0.35248 0.02655 0.0
O4 O 0.13697 0.38169 0.11451 0.0
O5 O 0.09248 0.38341 0.90335 0.0
O6 O 0.13107 0.46956 0.91332 0.0
O7 O 0.21584 0.49496 0.08638 0.0
O8 O 0.13175 0.4618 0.04918 0.0
O9 O 0.28307 0.4594 1.01427 0.0
O10 O 0.23494 0.48883 0.96101 0.0
O11 O 0.28446 0.46665 0.15093 0.0
O12 O 0.23599 0.38032 0.15691 0.0
C13 C 0.09378 0.34985 0.08391 0.0
O14 O 0.18959 0.37829 0.94361 0.0
O15 O 0.20946 0.35228 0.03077 0.0
C16 C 0.12169 0.43505 0.81774 0.0
C17 C 0.15882 0.44711 0.70083 0.0
C18 C 0.18745 0.44019 0.74657 0.0
C19 C 0.16901 0.43413 0.8043 0.0
C20 C 0.09293 0.44209 0.77255 0.0
C21 C 0.11126 0.44796 0.71448 0.0
C22 C 0.10296 0.42842 0.87896 0.0
C23 C 0.16927 0.49298 0.08663 0.0
C24 C 0.27968 0.48842 0.97214 0.0
C25 C 0.25364 0.4294 0.24432 0.0
C26 C 0.21938 0.43338 0.35959 0.0
C27 C 0.19101 0.43633 0.31096 0.0
C28 C 0.20787 0.43416 0.25401 0.0
C29 C 0.28273 0.42738 0.29243 0.0
C30 C 0.26579 0.42939 0.34963 0.0
C31 C 0.26933 0.42473 0.184 0.0
H32 H 0.2237 0.4385 0.73768 0.0
H33 H 0.19158 0.42837 0.83857 0.0
H34 H 0.05636 0.44299 0.78212 0.0
H35 H 0.08853 0.45369 0.68039 0.0
H36 H 0.15564 0.44023 0.31686 0.0
H37 H 0.18476 0.43562 0.2174 0.0
H38 H 0.318 0.42343 0.28579 0.0
H39 H 0.28823 0.42643 0.38603 0.0
Dy40 Dy 0.71715 0.1505 0.30156 0.0
Dy41 Dy 0.7874 0.22779 0.41559 0.0
C42 C 0.84629 0.21468 0.30352 0.0
O43 O 0.73787 0.09988 0.35692 0.0
O44 O 0.74455 0.14313 0.44341 0.0
O45 O 0.70747 0.09483 0.23258 0.0
O46 O 0.65217 0.12496 0.239 0.0
O47 O 0.70305 0.21151 0.42257 0.0
O48 O 0.65611 0.13169 0.37235 0.0
O49 O 0.80418 0.28585 0.34374 0.0
O50 O 0.7286 0.23204 0.28839 0.0
O51 O 0.80267 0.28843 0.48094 0.0
O52 O 0.84528 0.2444 0.48434 0.0
C53 C 0.74033 0.10207 0.41432 0.0
O54 O 0.80238 0.19949 0.27279 0.0
O55 O 0.84659 0.21794 0.36095 0.0
C56 C 0.68256 0.11885 0.14513 0.0
C57 C 0.70726 0.15665 0.02883 0.0
C58 C 0.74062 0.18736 0.07548 0.0
C59 C 0.72842 0.1686 0.13291 0.0
C60 C 0.64905 0.08789 0.09899 0.0
C61 C 0.66135 0.10657 0.04121 0.0
C62 C 0.67025 0.10025 0.20616 0.0
C63 C 0.65843 0.16616 0.41175 0.0
C64 C 0.77118 0.27883 0.30044 0.0
C65 C 0.81394 0.25934 0.57321 0.0
C66 C 0.78021 0.22298 0.68872 0.0
C67 C 0.74918 0.19287 0.64048 0.0
C68 C 0.76592 0.21086 0.58342 0.0
C69 C 0.8447 0.29011 0.62097 0.0
C70 C 0.82791 0.27215 0.67836 0.0
C71 C 0.8324 0.27577 0.51261 0.0
H72 H 0.7767 0.22565 0.06757 0.0
H73 H 0.75496 0.19296 0.16793 0.0
H74 H 0.61342 0.04943 0.10762 0.0
H75 H 0.63458 0.08214 1.00635 0.0
H76 H 0.71189 0.15528 0.64679 0.0
H77 H 0.74167 0.18649 0.54709 0.0
H78 H 0.88203 0.32749 0.61391 0.0
H79 H 0.85298 0.29605 0.71452 0.0
Dy80 Dy 0.57179 0.74794 0.63769 0.0
Dy81 Dy 0.56556 0.81602 0.75388 0.0
C82 C 0.64687 0.87573 0.64845 0.0
O83 O 0.61194 0.72998 0.71042 0.0
O84 O 0.63601 0.80503 0.76717 0.0
O85 O 0.61463 0.72633 0.5751 0.0
O86 O 0.52808 0.69173 0.56817 0.0
O87 O 0.52886 0.73072 0.77886 0.0
O88 O 0.49651 0.69432 0.6888 0.0
O89 O 0.50036 0.8045 0.69109 0.0
O90 O 0.54051 0.79955 0.60624 0.0
O91 O 0.51622 0.82382 0.82041 0.0
O92 O 0.60277 0.878 0.82014 0.0
C93 C 0.63955 0.76272 0.75354 0.0
O94 O 0.64317 0.83042 0.63142 0.0
O95 O 0.61513 0.87822 0.68849 0.0
C96 C 0.57717 0.71291 0.48018 0.0
C97 C 0.58229 0.7387 0.36003 0.0
C98 C 0.58895 0.77626 0.40366 0.0
C99 C 0.58626 0.76341 0.46309 0.0
C100 C 0.5709 0.67546 0.4371 0.0
C101 C 0.57344 0.68818 0.37759 0.0
C102 C 0.57186 0.69849 0.54269 0.0
C103 C 0.49461 0.69081 0.74619 0.0
C104 C 0.50528 0.80791 0.63368 0.0
C105 C 0.55995 0.84938 0.912 0.0
C106 C 0.56308 0.8281 0.03232 0.0
C107 C 0.55429 0.78922 0.98951 0.0
C108 C 0.5528 0.79979 0.92998 0.0
C109 C 0.56934 0.8885 0.95427 0.0
C110 C 0.57089 0.87801 1.01385 0.0
C111 C 0.55781 0.86043 0.84937 0.0
H112 H 0.59654 0.81575 0.39194 0.0
H113 H 0.59084 0.79275 0.49578 0.0
H114 H 0.56336 0.6361 0.44945 0.0
H115 H 0.56737 0.65799 0.34536 0.0
H116 H 0.5475 0.75018 1.00201 0.0
H117 H 0.54561 0.76903 0.89799 0.0
H118 H 0.57538 0.92716 0.94122 0.0
H119 H 0.57859 0.90919 0.04545 0.0
Dy120 Dy 0.8218 0.55203 0.9387 0.0
Dy121 Dy 0.75952 0.56816 0.05402 0.0
C122 C 0.77742 0.63362 0.93747 0.0
O123 O 0.88282 0.58677 1.01 0.0
O124 O 0.84628 0.63178 0.05537 0.0
O125 O 0.88667 0.58693 0.87525 0.0
O126 O 0.82686 0.50244 0.87075 0.0
O127 O 0.79702 0.5215 0.08326 0.0
O128 O 0.79627 0.48062 0.99663 0.0
O129 O 0.69615 0.49776 1.00367 0.0
O130 O 0.73612 0.51909 0.9129 0.0
O131 O 0.70367 0.53402 0.12619 0.0
O132 O 0.75087 0.62019 0.11619 0.0
C133 C 0.88603 0.62219 0.04851 0.0
O134 O 0.81827 0.62668 0.92519 0.0
O135 O 0.74381 0.60829 0.98059 0.0
C136 C 0.85364 0.54967 0.7824 0.0
C137 C 0.82591 0.55787 0.66599 0.0
C138 C 0.79669 0.56204 0.71335 0.0
C139 C 0.81031 0.5578 0.77084 0.0
C140 C 0.88396 0.54682 0.73565 0.0
C141 C 0.87021 0.5509 0.67777 0.0
C142 C 0.86572 0.54335 0.84339 0.0
C143 C 0.79734 0.48249 0.05422 0.0
C144 C 0.69363 0.49187 0.94634 0.0
C145 C 0.74015 0.58531 0.2113 0.0
C146 C 0.77704 0.59037 0.32691 0.0
C147 C 0.80374 0.58263 0.27937 0.0
C148 C 0.7854 0.58003 0.2222 0.0
C149 C 0.71368 0.59368 0.2583 0.0
C150 C 0.73194 0.59616 0.31571 0.0
C151 C 0.72028 0.58055 0.15099 0.0
H152 H 0.76308 0.56847 0.70605 0.0
H153 H 0.78657 0.56031 0.80642 0.0
H154 H 0.91766 0.54072 0.74384 0.0
H155 H 0.89332 0.5472 0.64229 0.0
H156 H 0.83808 0.5773 0.2864 0.0
H157 H 0.80617 0.5732 0.18645 0.0
H158 H 0.67873 0.59788 0.25068 0.0
H159 H 0.71084 0.60273 0.35134 0.0
Dy160 Dy 0.20381 0.779 0.34179 0.0
Dy161 Dy 0.12128 0.70897 0.4534 0.0
C162 C 0.07617 0.71027 0.32804 0.0
O163 O 0.18169 0.83483 0.38558 0.0
O164 O 0.15626 0.79492 0.47607 0.0
O165 O 0.22192 0.83458 0.27067 0.0
O166 O 0.26306 0.78935 0.2757 0.0
O167 O 0.20656 0.73957 0.48212 0.0
O168 O 0.26037 0.80788 0.41748 0.0
O169 O 0.12155 0.65085 0.38776 0.0
O170 O 0.20892 0.70618 0.36064 0.0
O171 O 0.09627 0.64492 0.51609 0.0
O172 O 0.05958 0.69463 0.51778 0.0
C173 C 0.17178 0.8364 0.44165 0.0
O174 O 0.12309 0.72045 0.3079 0.0
O175 O 0.06815 0.71351 0.38432 0.0
C176 C 0.23691 0.80201 0.18123 0.0
C177 C 0.20846 0.7684 0.06291 0.0
C178 C 0.16843 0.75713 0.10544 0.0
C179 C 0.18247 0.77364 0.16379 0.0
C180 C 0.27699 0.8134 0.13911 0.0
C181 C 0.263 0.79686 0.08068 0.0
C182 C 0.25192 0.81942 0.24303 0.0
C183 C 0.25291 0.78191 0.46709 0.0
C184 C 0.16603 0.65836 0.36252 0.0
C185 C 0.07751 0.66853 0.60936 0.0
C186 C 0.09972 0.69089 0.73083 0.0
C187 C 0.14181 0.70504 0.69012 0.0
C188 C 0.1308 0.69393 0.63029 0.0
C189 C 0.03527 0.6538 0.64964 0.0
C190 C 0.04618 0.66471 0.70968 0.0
C191 C 0.06623 0.659 0.54566 0.0
H192 H 0.12609 0.73492 0.09387 0.0
H193 H 0.15067 0.76426 0.19533 0.0
H194 H 0.31922 0.83527 0.15137 0.0
H195 H 0.29509 0.80705 0.04925 0.0
H196 H 0.18354 0.72589 0.7042 0.0
H197 H 0.16403 0.70561 0.60013 0.0
H198 H -0.00618 0.63414 0.63462 0.0
H199 H 0.01255 0.65246 0.73952 0.0
Dy200 Dy 0.3789 0.21777 0.6359 0.0
Dy201 Dy 0.37849 0.15121 0.75422 0.0
C202 C 0.29937 0.09081 0.64616 0.0
O203 O 0.3392 0.2406 0.70466 0.0
O204 O 0.31435 0.17198 0.77082 0.0
O205 O 0.33983 0.24308 0.57354 0.0
O206 O 0.42546 0.27148 0.56618 0.0
O207 O 0.42105 0.23698 0.77975 0.0
O208 O 0.45291 0.27134 0.6888 0.0
O209 O 0.4477 0.16464 0.69645 0.0
O210 O 0.41054 0.16497 0.60845 0.0
O211 O 0.42476 0.13809 0.81941 0.0
O212 O 0.33745 0.08978 0.81955 0.0
C213 C 0.31147 0.21293 0.75038 0.0
O214 O 0.3064 0.13628 0.62555 0.0
O215 O 0.32873 0.0885 0.68877 0.0
C216 C 0.37633 0.25315 0.47911 0.0
C217 C 0.36678 0.22529 0.35962 0.0
C218 C 0.36405 0.1893 0.4026 0.0
C219 C 0.36872 0.20311 0.46187 0.0
C220 C 0.37851 0.28897 0.43666 0.0
C221 C 0.37368 0.27514 0.37729 0.0
C222 C 0.38309 0.26828 0.54119 0.0
C223 C 0.45572 0.27579 0.74623 0.0
C224 C 0.44582 0.15952 0.63916 0.0
C225 C 0.38138 0.11427 0.91057 0.0
C226 C 0.38258 0.13665 0.03099 0.0
C227 C 0.38436 0.1729 0.98887 0.0
C228 C 0.38366 0.16174 0.92918 0.0
C229 C 0.37926 0.07783 0.95214 0.0
C230 C 0.37981 0.08887 1.01193 0.0
C231 C 0.38193 0.10319 0.84791 0.0
H232 H 0.35803 0.15035 0.39042 0.0
H233 H 0.36676 0.1749 0.49428 0.0
H234 H 0.38448 0.32779 0.44939 0.0
H235 H 0.37646 0.30387 0.34516 0.0
H236 H 0.38724 0.21036 1.00198 0.0
H237 H 0.38537 0.19035 0.89748 0.0
H238 H 0.37731 0.04093 0.93836 0.0
H239 H 0.37765 0.05981 0.04322 0.0
H240 H 0.28963 0.20359 0.86704 0.0
H241 H 0.26529 0.26755 0.70708 0.0
H242 H 0.22482 0.31105 0.76231 0.0
H243 H 0.20399 0.33724 0.85578 0.0
H244 H 0.23289 0.27834 1.01713 0.0
H245 H 0.26359 0.22607 0.96141 0.0
C246 C 0.27446 0.22618 0.84428 0.0
C247 C 0.28041 0.23248 0.78317 0.0
C248 C 0.25263 0.25237 0.8765 0.0
C249 C 0.26133 0.26242 0.75418 0.0
C250 C 0.23829 0.28734 0.78569 0.0
C251 C 0.21643 0.31261 0.87901 0.0
C252 C 0.21653 0.31212 0.94063 0.0
C253 C 0.23498 0.28364 0.8469 0.0
C254 C 0.23269 0.27974 0.96972 0.0
C255 C 0.2503 0.24986 0.9379 0.0
H256 H 0.08165 0.33429 0.20126 0.0
H257 H -0.00752 0.28654 0.03865 0.0
H258 H 0.90811 0.23622 0.09303 0.0
H259 H 0.85966 0.21214 0.18621 0.0
H260 H 0.94855 0.26239 0.34889 0.0
H261 H 0.03349 0.30511 0.29449 0.0
C262 C 0.04386 0.31254 0.17751 0.0
C263 C 0.04334 0.31467 0.11594 0.0
C264 C -0.00442 0.28433 0.20897 0.0
C265 C -0.00597 0.28581 0.08601 0.0
C266 C 0.94577 0.25711 0.11707 0.0
C267 C 0.89755 0.23196 0.20997 0.0
C268 C 0.89771 0.23454 0.27157 0.0
C269 C 0.94606 0.25708 0.17851 0.0
C270 C 0.94724 0.25996 0.3015 0.0
C271 C -0.00418 0.28455 0.27044 0.0
H272 H 0.75272 0.09936 0.53078 0.0
H273 H 0.71149 0.00091 0.37492 0.0
H274 H 0.68775 0.92226 0.43539 0.0
H275 H 0.66742 0.88045 0.53269 0.0
H276 H 0.6997 0.97866 0.6873 0.0
H277 H 0.73931 0.05924 0.62684 0.0
C278 C 0.73893 0.06086 0.50974 0.0
C279 C 0.73278 0.0557 0.44854 0.0
C280 C 0.72389 0.01599 0.54459 0.0
C281 C 0.716 0.00574 0.42205 0.0
C282 C 0.70236 0.96082 0.45655 0.0
C283 C 0.68445 0.91963 0.55311 0.0
C284 C 0.68078 0.92401 0.61411 0.0
C285 C 0.70459 0.9653 0.51793 0.0
C286 C 0.70218 0.9747 0.6403 0.0
C287 C 0.72449 0.02057 0.60581 0.0
H288 H 0.70874 0.72697 0.72879 0.0
H289 H 0.63239 0.76305 0.87084 0.0
H290 H 0.67152 0.72943 0.94169 0.0
H291 H 0.72215 0.68411 0.96243 0.0
H292 H 0.8041 0.65331 0.82194 0.0
H293 H 0.7692 0.69153 0.75133 0.0
C294 C 0.70137 0.72784 0.77533 0.0
C295 C 0.66777 0.74694 0.79492 0.0
C296 C 0.72503 0.7096 0.81595 0.0
C297 C 0.65851 0.74861 0.85514 0.0
C298 C 0.68067 0.72929 0.89558 0.0
C299 C 0.73294 0.68649 0.91646 0.0
C300 C 0.7648 0.66527 0.89717 0.0
C301 C 0.7133 0.70899 0.87639 0.0
C302 C 0.77931 0.66923 0.83773 0.0
C303 C 0.75915 0.69079 0.79728 0.0
H304 H 0.07406 0.67031 0.22114 0.0
H305 H -0.01939 0.7111 0.33693 0.0
H306 H 0.91473 0.69086 0.25817 0.0
H307 H 0.88596 0.66381 0.15578 0.0
H308 H -0.01879 0.62325 0.04224 0.0
H309 H 0.04587 0.64337 0.12104 0.0
C310 C 0.03945 0.67511 0.22944 0.0
C311 C 0.03246 0.6928 0.28461 0.0
C312 C 0.00294 0.66458 0.18413 0.0
C313 C -0.01328 0.69745 0.29483 0.0
C314 C 0.94949 0.68642 0.24969 0.0
C315 C 0.92127 0.66011 0.14799 0.0
C316 C 0.92897 0.6423 0.09308 0.0
C317 C 0.9577 0.67067 0.19393 0.0
C318 C -0.02544 0.63714 0.08394 0.0
C319 C 0.01132 0.64831 0.12903 0.0
H320 H 0.27753 0.07498 0.52988 0.0
H321 H 0.23831 -0.00633 0.69625 0.0
H322 H 0.18766 0.90718 0.64657 0.0
H323 H 0.16481 0.85498 0.55673 0.0
H324 H 0.21074 0.93472 0.38924 0.0
H325 H 0.24772 0.02166 0.4385 0.0
C326 C 0.25673 0.03832 0.55511 0.0
C327 C 0.2615 0.04036 0.61648 0.0
C328 C 0.22948 -0.01142 0.5261 0.0
C329 C 0.23522 -0.00722 0.64889 0.0
C330 C 0.20642 0.94341 0.62055 0.0
C331 C 0.18211 0.89117 0.53065 0.0
C332 C 0.18557 0.88824 0.46936 0.0
C333 C 0.20487 0.94082 0.5592 0.0
C334 C 0.20785 0.93575 0.43654 0.0
C335 C 0.22921 -0.01447 0.46466 0.0
H336 H 0.09919 0.40107 0.60232 0.0
H337 H 0.26276 0.50541 0.66081 0.0
H338 H 0.29585 0.51071 0.56094 0.0
H339 H 0.27861 0.48474 0.45693 0.0
H340 H 0.11501 0.37988 0.39876 0.0
H341 H 0.08176 0.37687 0.49802 0.0
C342 C 0.142 0.42554 0.59312 0.0
C343 C 0.17837 0.45257 0.63922 0.0
C344 C 0.16085 0.42845 0.53548 0.0
C345 C 0.23386 0.48352 0.62645 0.0
C346 C 0.25284 0.48678 0.56923 0.0
C347 C 0.23571 0.46098 0.46602 0.0
C348 C 0.19948 0.43263 0.42024 0.0
C349 C 0.21678 0.45903 0.52345 0.0
C350 C 0.14387 0.40271 0.43281 0.0
C351 C 0.12478 0.40066 0.48973 0.0
H352 H 0.7021 0.10044 0.9302 0.0
H353 H 0.74353 0.25867 0.98992 0.0
H354 H 0.77005 0.2932 0.89064 0.0
H355 H 0.78197 0.27868 0.7866 0.0
H356 H 0.7406 0.1204 0.72709 0.0
H357 H 0.71263 0.08563 0.82604 0.0
C358 C 0.71631 0.14234 0.92139 0.0
C359 C 0.72095 0.17686 0.96764 0.0
C360 C 0.73147 0.16199 0.86408 0.0
C361 C 0.74021 0.23127 0.95542 0.0
C362 C 0.7552 0.25106 0.89854 0.0
C363 C 0.76719 0.23667 0.79538 0.0
C364 C 0.76337 0.20228 0.74934 0.0
C365 C 0.75135 0.21688 0.85257 0.0
C366 C 0.74336 0.14771 0.76143 0.0
C367 C 0.72759 0.12779 0.81813 0.0
H368 H 0.53974 0.79384 0.30714 0.0
H369 H 0.62875 0.71313 0.26969 0.0
H370 H 0.63037 0.73317 0.1657 0.0
H371 H 0.60733 0.77438 0.08518 0.0
H372 H 0.5184 0.85512 0.12293 0.0
H373 H 0.5174 0.83561 0.22692 0.0
C374 C 0.56007 0.78113 0.27642 0.0
C375 C 0.58402 0.7519 0.29656 0.0
C376 C 0.56121 0.79311 0.21657 0.0
C377 C 0.6093 0.73501 0.25561 0.0
C378 C 0.61055 0.74675 0.19605 0.0
C379 C 0.58735 0.78738 0.11605 0.0
C380 C 0.56308 0.81633 0.09595 0.0
C381 C 0.58654 0.77567 0.17597 0.0
C382 C 0.53813 0.83349 0.13698 0.0
C383 C 0.53719 0.82203 0.19655 0.0
H384 H 0.88969 0.60854 0.57096 0.0
H385 H 0.72317 0.50941 0.62336 0.0
H386 H 0.69364 0.5123 0.52425 0.0
H387 H 0.71464 0.54147 0.42224 0.0
H388 H 0.88069 0.63962 0.3685 0.0
H389 H 0.9108 0.63772 0.46805 0.0
C390 C 0.84698 0.58723 0.56056 0.0
C391 C 0.80877 0.55913 0.60481 0.0
C392 C 0.83011 0.5887 0.50312 0.0
C393 C 0.75351 0.53217 0.59057 0.0
C394 C 0.73651 0.53351 0.53374 0.0
C395 C 0.7574 0.56301 0.43244 0.0
C396 C 0.7953 0.59076 0.38795 0.0
C397 C 0.77439 0.56171 0.48971 0.0
C398 C 0.85064 0.61756 0.40177 0.0
C399 C 0.86789 0.61665 0.45876 0.0
H400 H 0.17732 0.68807 0.79846 0.0
H401 H 0.04962 0.72571 0.80737 0.0
H402 H 0.07066 0.75124 0.91012 0.0
H403 H 0.12751 0.76644 0.9969 0.0
H404 H 0.25543 0.72911 0.98785 0.0
H405 H 0.23299 0.70155 0.88577 0.0
C406 C 0.15425 0.70222 0.82261 0.0
C407 C 0.11184 0.70485 0.79456 0.0
C408 C 0.16698 0.71755 0.88185 0.0
C409 C 0.08195 0.72241 0.82747 0.0
C410 C 0.09425 0.7375 0.88636 0.0
C411 C 0.15022 0.75177 0.97294 0.0
C412 C 0.19351 0.7504 1.00051 0.0
C413 C 0.13688 0.73556 0.91398 0.0
C414 C 0.22264 0.73175 0.96794 0.0
C415 C 0.20957 0.71554 0.90946 0.0
H416 H 0.41664 0.17886 0.30358 0.0
H417 H 0.3094 0.24047 0.27414 0.0
H418 H 0.3046 0.21822 0.17002 0.0
H419 H 0.33036 0.18071 0.08766 0.0
H420 H 0.43885 0.12049 0.11705 0.0
H421 H 0.44247 0.14146 0.22125 0.0
C422 C 0.39178 0.18692 0.27448 0.0
C423 C 0.36337 0.2112 0.29656 0.0
C424 C 0.38917 0.174 0.21478 0.0
C425 C 0.33209 0.22227 0.2581 0.0
C426 C 0.32911 0.20933 0.19866 0.0
C427 C 0.35517 0.17258 0.11675 0.0
C428 C 0.38422 0.14899 0.09449 0.0
C429 C 0.35758 0.1853 0.17651 0.0
C430 C 0.41546 0.13792 0.13307 0.0
C431 C 0.41786 0.15023 0.19262 0.0
H432 H 0.22875 0.53543 0.18409 0.0
H433 H 0.0833 0.50985 0.09933 0.0
H434 H 0.06504 0.55278 0.1825 0.0
H435 H 0.09377 0.60188 0.27726 0.0
H436 H 0.24053 0.62779 0.3585 0.0
H437 H 0.25369 0.57782 0.27972 0.0
C438 C 0.19294 0.53911 0.18347 0.0
C439 C 0.15781 0.52011 0.1351 0.0
C440 C 0.18236 0.56268 0.23151 0.0
C441 C 0.11128 0.52467 0.13575 0.0
C442 C 0.10068 0.54885 0.18344 0.0
C443 C 0.12766 0.59506 0.27833 0.0
C444 C 0.16583 0.61756 0.32375 0.0
C445 C 0.13613 0.56823 0.23148 0.0
C446 C 0.21045 0.61005 0.32421 0.0
C447 C 0.21828 0.58215 0.2789 0.0
H448 H 0.65788 0.1868 0.52632 0.0
H449 H 0.55264 0.11714 0.37756 0.0
H450 H 0.47562 0.10522 0.43674 0.0
H451 H 0.44061 0.12155 0.52882 0.0
H452 H 0.54622 0.18736 0.67836 0.0
H453 H 0.62091 0.1928 0.62104 0.0
C454 C 0.61797 0.16858 0.50705 0.0
C455 C 0.61078 0.15363 0.44765 0.0
C456 C 0.57421 0.16112 0.54145 0.0
C457 C 0.55889 0.12915 0.42323 0.0
C458 C 0.51506 0.12249 0.45698 0.0
C459 C 0.47983 0.13646 0.549 0.0
C460 C 0.48814 0.15468 0.60749 0.0
C461 C 0.52254 0.13933 0.51584 0.0
C462 C 0.53885 0.17315 0.63344 0.0
C463 C 0.58165 0.17661 0.6006 0.0
H464 H 0.27949 0.51073 0.85781 0.0
H465 H 0.38588 0.54098 1.00417 0.0
H466 H 0.46331 0.60362 0.94456 0.0
H467 H 0.49882 0.65474 0.85359 0.0
H468 H 0.39279 0.62195 0.70608 0.0
H469 H 0.31674 0.5539 0.76314 0.0
C470 C 0.3197 0.53075 0.87646 0.0
C471 C 0.32712 0.52215 0.93542 0.0
C472 C 0.36377 0.56584 0.84176 0.0
C473 C 0.37938 0.54735 0.95892 0.0
C474 C 0.42349 0.58313 0.92493 0.0
C475 C 0.45917 0.63218 0.83372 0.0
C476 C 0.45106 0.64365 0.77608 0.0
C477 C 0.41591 0.59341 0.86671 0.0
C478 C 0.39987 0.6137 0.75039 0.0
C479 C 0.35639 0.57517 0.78311 0.0
H480 H 0.74494 0.27211 0.18623 0.0
H481 H 0.82701 0.38592 0.32571 0.0
H482 H 0.84648 0.45984 0.25926 0.0
H483 H 0.83585 0.491 0.16345 0.0
H484 H 0.75634 0.37744 0.02298 0.0
H485 H 0.74151 0.30392 0.08789 0.0
C486 C 0.7671 0.31307 0.20208 0.0
C487 C 0.78375 0.3237 0.26092 0.0
C488 C 0.77907 0.35509 0.16346 0.0
C489 C 0.81341 0.37693 0.28067 0.0
C490 C 0.82463 0.41906 0.24274 0.0
C491 C 0.81574 0.45019 0.14685 0.0
C492 C 0.79656 0.43935 0.08887 0.0
C493 C 0.80712 0.40845 0.1843 0.0
C494 C 0.77148 0.38659 0.06748 0.0
C495 C 0.7626 0.34462 0.10464 0.0
H496 H 0.35794 0.81968 0.43844 0.0
H497 H 0.25005 0.78006 0.58566 0.0
H498 H 0.32108 0.79052 0.65233 0.0
H499 H 0.41036 0.80027 0.66695 0.0
H500 H 0.51733 0.83682 0.51885 0.0
H501 H 0.45085 0.83915 0.45476 0.0
C502 C 0.3505 0.81449 0.48526 0.0
C503 C 0.29871 0.79799 0.50716 0.0
C504 C 0.39131 0.81958 0.52317 0.0
C505 C 0.28933 0.79132 0.56781 0.0
C506 C 0.32998 0.79752 0.60593 0.0
C507 C 0.41948 0.8097 0.62088 0.0
C508 C 0.46831 0.81751 0.59765 0.0
C509 C 0.38057 0.80985 0.58387 0.0
C510 C 0.47963 0.82982 0.5378 0.0
C511 C 0.44164 0.83118 0.501 0.0
H512 H 0.67201 0.47777 0.82979 0.0
H513 H 0.59995 0.41688 0.99919 0.0
H514 H 0.51845 0.34662 0.95171 0.0
H515 H 0.47036 0.29929 0.86256 0.0
H516 H 0.54313 0.35949 0.69326 0.0
H517 H 0.62173 0.43365 0.74061 0.0
C518 C 0.63841 0.44938 0.8565 0.0
C519 C 0.64235 0.45233 0.91806 0.0
C520 C 0.59193 0.40891 0.82898 0.0
C521 C 0.59812 0.4155 0.95178 0.0
C522 C 0.55154 0.37521 0.92466 0.0
C523 C 0.50319 0.32879 0.83585 0.0
C524 C 0.501 0.3235 0.77437 0.0
C525 C 0.54842 0.37103 0.86334 0.0
C526 C 0.54377 0.36243 0.74061 0.0
C527 C 0.58882 0.40479 0.76767 0.0
loop_
_geom_bond_atom_site_label_1
_geom_bond_atom_site_label_2
_geom_bond_distance
_geom_bond_site_symmetry_2
_ccdc_geom_bond_type
Dy0 O3 2.307 1_556 S
Dy0 O5 2.395 . S
Dy0 O6 2.379 . S
Dy0 O8 2.339 . S
Dy0 O10 2.298 . S
Dy0 O14 2.275 . S
Dy0 C22 2.738 . S
Dy1 O4 2.298 . S
Dy1 O7 2.275 . S
Dy1 O9 2.307 1_554 S
Dy1 O11 2.395 . S
Dy1 O12 2.379 . S
Dy1 O15 2.339 . S
Dy1 C31 2.738 . S
C2 O14 1.254 . S
C2 O15 1.257 1_556 S
O3 Dy0 2.307 1_554 S
O3 C13 1.266 . S
O4 Dy1 2.298 . S
O4 C13 1.236 . S
O5 Dy0 2.395 . S
O5 C22 1.255 . S
O6 Dy0 2.379 . S
O6 C22 1.249 . S
O7 Dy1 2.275 . S
O7 C23 1.254 . S
O8 Dy0 2.339 . S
O8 C23 1.257 1_556 S
O9 Dy1 2.307 1_556 S
O9 C24 1.266 . S
O10 Dy0 2.298 . S
O10 C24 1.236 . S
O11 Dy1 2.395 . S
O11 C31 1.255 . S
O12 Dy1 2.379 . S
O12 C31 1.249 . S
C13 O3 1.266 . S
C13 O4 1.236 . S
O14 Dy0 2.275 . S
O14 C2 1.254 . S
O15 Dy1 2.339 . S
O15 C2 1.257 1_554 S
C16 C19 1.344 . S
C16 C20 1.328 . S
C16 C22 1.516 . S
C17 C18 1.304 . S
C17 C21 1.323 . S
C18 C17 1.304 . S
C18 C19 1.371 . S
C18 H32 0.930 . S
C19 C16 1.344 . S
C19 C18 1.371 . S
C19 H33 0.931 . S
C20 C16 1.328 . S
C20 C21 1.433 . S
C20 H34 0.931 . S
C21 C17 1.323 . S
C21 C20 1.433 . S
C21 H35 0.933 . S
C22 Dy0 2.738 . S
C22 O5 1.255 . S
C22 O6 1.249 . S
C22 C16 1.516 . S
C23 O7 1.254 . S
C23 O8 1.257 1_554 S
C24 O9 1.266 . S
C24 O10 1.236 . S
C25 C28 1.344 . S
C25 C29 1.328 . S
C25 C31 1.516 . S
C26 C27 1.304 . S
C26 C30 1.323 . S
C27 C26 1.304 . S
C27 C28 1.371 . S
C27 H36 0.930 . S
C28 C25 1.344 . S
C28 C27 1.371 . S
C28 H37 0.931 . S
C29 C25 1.328 . S
C29 C30 1.433 . S
C29 H38 0.931 . S
C30 C26 1.323 . S
C30 C29 1.433 . S
C30 H39 0.933 . S
C31 Dy1 2.738 . S
C31 O11 1.255 . S
C31 O12 1.249 . S
C31 C25 1.516 . S
H32 C18 0.930 . S
H33 C19 0.931 . S
H34 C20 0.931 . S
H35 C21 0.933 . S
H36 C27 0.930 . S
H37 C28 0.931 . S
H38 C29 0.931 . S
H39 C30 0.933 . S
Dy40 O43 2.307 . S
Dy40 O45 2.395 . S
Dy40 O46 2.379 . S
Dy40 O48 2.339 . S
Dy40 O50 2.298 . S
Dy40 O54 2.275 . S
Dy40 C62 2.738 . S
Dy41 O44 2.298 . S
Dy41 O47 2.275 . S
Dy41 O49 2.307 . S
Dy41 O51 2.395 . S
Dy41 O52 2.379 . S
Dy41 O55 2.339 . S
Dy41 C71 2.738 . S
C42 O54 1.254 . S
C42 O55 1.257 . S
O43 Dy40 2.307 . S
O43 C53 1.266 . S
O44 Dy41 2.298 . S
O44 C53 1.236 . S
O45 Dy40 2.395 . S
O45 C62 1.255 . S
O46 Dy40 2.379 . S
O46 C62 1.249 . S
O47 Dy41 2.275 . S
O47 C63 1.254 . S
O48 Dy40 2.339 . S
O48 C63 1.257 . S
O49 Dy41 2.307 . S
O49 C64 1.266 . S
O50 Dy40 2.298 . S
O50 C64 1.236 . S
O51 Dy41 2.395 . S
O51 C71 1.255 . S
O52 Dy41 2.379 . S
O52 C71 1.249 . S
C53 O43 1.266 . S
C53 O44 1.236 . S
O54 Dy40 2.275 . S
O54 C42 1.254 . S
O55 Dy41 2.339 . S
O55 C42 1.257 . S
C56 C59 1.344 . S
C56 C60 1.328 . S
C56 C62 1.516 . S
C57 C58 1.304 1_556 S
C57 C61 1.323 1_556 S
C58 C57 1.304 1_554 S
C58 C59 1.371 . S
C58 H72 0.930 1_554 S
C59 C56 1.344 . S
C59 C58 1.371 . S
C59 H73 0.931 . S
C60 C56 1.328 . S
C60 C61 1.433 . S
C60 H74 0.931 . S
C61 C57 1.323 1_554 S
C61 C60 1.433 . S
C61 H75 0.933 . S
C62 Dy40 2.738 . S
C62 O45 1.255 . S
C62 O46 1.249 . S
C62 C56 1.516 . S
C63 O47 1.254 . S
C63 O48 1.257 . S
C64 O49 1.266 . S
C64 O50 1.236 . S
C65 C68 1.344 . S
C65 C69 1.328 . S
C65 C71 1.516 . S
C66 C67 1.304 . S
C66 C70 1.323 . S
C67 C66 1.304 . S
C67 C68 1.371 . S
C67 H76 0.930 . S
C68 C65 1.344 . S
C68 C67 1.371 . S
C68 H77 0.931 . S
C69 C65 1.328 . S
C69 C70 1.433 . S
C69 H78 0.931 . S
C70 C66 1.323 . S
C70 C69 1.433 . S
C70 H79 0.933 . S
C71 Dy41 2.738 . S
C71 O51 1.255 . S
C71 O52 1.249 . S
C71 C65 1.516 . S
H72 C58 0.930 1_556 S
H73 C59 0.931 . S
H74 C60 0.931 . S
H75 C61 0.933 . S
H76 C67 0.930 . S
H77 C68 0.931 . S
H78 C69 0.931 . S
H79 C70 0.933 . S
Dy80 O83 2.307 . S
Dy80 O85 2.395 . S
Dy80 O86 2.379 . S
Dy80 O88 2.339 . S
Dy80 O90 2.298 . S
Dy80 O94 2.275 . S
Dy80 C102 2.738 . S
Dy81 O84 2.298 . S
Dy81 O87 2.275 . S
Dy81 O89 2.307 . S
Dy81 O91 2.395 . S
Dy81 O92 2.379 . S
Dy81 O95 2.339 . S
Dy81 C111 2.738 . S
C82 O94 1.254 . S
C82 O95 1.257 . S
O83 Dy80 2.307 . S
O83 C93 1.266 . S
O84 Dy81 2.298 . S
O84 C93 1.236 . S
O85 Dy80 2.395 . S
O85 C102 1.255 . S
O86 Dy80 2.379 . S
O86 C102 1.249 . S
O87 Dy81 2.275 . S
O87 C103 1.254 . S
O88 Dy80 2.339 . S
O88 C103 1.257 . S
O89 Dy81 2.307 . S
O89 C104 1.266 . S
O90 Dy80 2.298 . S
O90 C104 1.236 . S
O91 Dy81 2.395 . S
O91 C111 1.255 . S
O92 Dy81 2.379 . S
O92 C111 1.249 . S
C93 O83 1.266 . S
C93 O84 1.236 . S
O94 Dy80 2.275 . S
O94 C82 1.254 . S
O95 Dy81 2.339 . S
O95 C82 1.257 . S
C96 C99 1.344 . S
C96 C100 1.328 . S
C96 C102 1.516 . S
C97 C98 1.304 . S
C97 C101 1.323 . S
C98 C97 1.304 . S
C98 C99 1.371 . S
C98 H112 0.930 . S
C99 C96 1.344 . S
C99 C98 1.371 . S
C99 H113 0.931 . S
C100 C96 1.328 . S
C100 C101 1.433 . S
C100 H114 0.931 . S
C101 C97 1.323 . S
C101 C100 1.433 . S
C101 H115 0.933 . S
C102 Dy80 2.738 . S
C102 O85 1.255 . S
C102 O86 1.249 . S
C102 C96 1.516 . S
C103 O87 1.254 . S
C103 O88 1.257 . S
C104 O89 1.266 . S
C104 O90 1.236 . S
C105 C108 1.344 . S
C105 C109 1.328 . S
C105 C111 1.516 . S
C106 C107 1.304 . S
C106 C110 1.323 1_554 S
C107 C106 1.304 . S
C107 C108 1.371 1_554 S
C107 H116 0.930 . S
C108 C105 1.344 . S
C108 C107 1.371 1_556 S
C108 H117 0.931 . S
C109 C105 1.328 . S
C109 C110 1.433 . S
C109 H118 0.931 . S
C110 C106 1.323 1_556 S
C110 C109 1.433 . S
C110 H119 0.933 1_556 S
C111 Dy81 2.738 . S
C111 O91 1.255 . S
C111 O92 1.249 . S
C111 C105 1.516 . S
H112 C98 0.930 . S
H113 C99 0.931 . S
H114 C100 0.931 . S
H115 C101 0.933 . S
H116 C107 0.930 . S
H117 C108 0.931 . S
H118 C109 0.931 . S
H119 C110 0.933 1_554 S
Dy120 O123 2.307 1_556 S
Dy120 O125 2.395 . S
Dy120 O126 2.379 . S
Dy120 O128 2.339 . S
Dy120 O130 2.298 . S
Dy120 O134 2.275 . S
Dy120 C142 2.738 . S
Dy121 O124 2.298 . S
Dy121 O127 2.275 . S
Dy121 O129 2.307 1_554 S
Dy121 O131 2.395 . S
Dy121 O132 2.379 . S
Dy121 O135 2.339 . S
Dy121 C151 2.738 . S
C122 O134 1.254 . S
C122 O135 1.257 1_556 S
O123 Dy120 2.307 1_554 S
O123 C133 1.266 . S
O124 Dy121 2.298 . S
O124 C133 1.236 . S
O125 Dy120 2.395 . S
O125 C142 1.255 . S
O126 Dy120 2.379 . S
O126 C142 1.249 . S
O127 Dy121 2.275 . S
O127 C143 1.254 . S
O128 Dy120 2.339 . S
O128 C143 1.257 1_556 S
O129 Dy121 2.307 1_556 S
O129 C144 1.266 . S
O130 Dy120 2.298 . S
O130 C144 1.236 . S
O131 Dy121 2.395 . S
O131 C151 1.255 . S
O132 Dy121 2.379 . S
O132 C151 1.249 . S
C133 O123 1.266 . S
C133 O124 1.236 . S
O134 Dy120 2.275 . S
O134 C122 1.254 . S
O135 Dy121 2.339 . S
O135 C122 1.257 1_554 S
C136 C139 1.344 . S
C136 C140 1.328 . S
C136 C142 1.516 . S
C137 C138 1.304 . S
C137 C141 1.323 . S
C138 C137 1.304 . S
C138 C139 1.371 . S
C138 H152 0.930 . S
C139 C136 1.344 . S
C139 C138 1.371 . S
C139 H153 0.931 . S
C140 C136 1.328 . S
C140 C141 1.433 . S
C140 H154 0.931 . S
C141 C137 1.323 . S
C141 C140 1.433 . S
C141 H155 0.933 . S
C142 Dy120 2.738 . S
C142 O125 1.255 . S
C142 O126 1.249 . S
C142 C136 1.516 . S
C143 O127 1.254 . S
C143 O128 1.257 1_554 S
C144 O129 1.266 . S
C144 O130 1.236 . S
C145 C148 1.344 . S
C145 C149 1.328 . S
C145 C151 1.516 . S
C146 C147 1.304 . S
C146 C150 1.323 . S
C147 C146 1.304 . S
C147 C148 1.371 . S
C147 H156 0.930 . S
C148 C145 1.344 . S
C148 C147 1.371 . S
C148 H157 0.931 . S
C149 C145 1.328 . S
C149 C150 1.433 . S
C149 H158 0.931 . S
C150 C146 1.323 . S
C150 C149 1.433 . S
C150 H159 0.933 . S
C151 Dy121 2.738 . S
C151 O131 1.255 . S
C151 O132 1.249 . S
C151 C145 1.516 . S
H152 C138 0.930 . S
H153 C139 0.931 . S
H154 C140 0.931 . S
H155 C141 0.933 . S
H156 C147 0.930 . S
H157 C148 0.931 . S
H158 C149 0.931 . S
H159 C150 0.933 . S
Dy160 O163 2.307 . S
Dy160 O165 2.395 . S
Dy160 O166 2.379 . S
Dy160 O168 2.339 . S
Dy160 O170 2.298 . S
Dy160 O174 2.275 . S
Dy160 C182 2.738 . S
Dy161 O164 2.298 . S
Dy161 O167 2.275 . S
Dy161 O169 2.307 . S
Dy161 O171 2.395 . S
Dy161 O172 2.379 . S
Dy161 O175 2.339 . S
Dy161 C191 2.738 . S
C162 O174 1.254 . S
C162 O175 1.257 . S
O163 Dy160 2.307 . S
O163 C173 1.266 . S
O164 Dy161 2.298 . S
O164 C173 1.236 . S
O165 Dy160 2.395 . S
O165 C182 1.255 . S
O166 Dy160 2.379 . S
O166 C182 1.249 . S
O167 Dy161 2.275 . S
O167 C183 1.254 . S
O168 Dy160 2.339 . S
O168 C183 1.257 . S
O169 Dy161 2.307 . S
O169 C184 1.266 . S
O170 Dy160 2.298 . S
O170 C184 1.236 . S
O171 Dy161 2.395 . S
O171 C191 1.255 . S
O172 Dy161 2.379 . S
O172 C191 1.249 . S
C173 O163 1.266 . S
C173 O164 1.236 . S
O174 Dy160 2.275 . S
O174 C162 1.254 . S
O175 Dy161 2.339 . S
O175 C162 1.257 . S
C176 C179 1.344 . S
C176 C180 1.328 . S
C176 C182 1.516 . S
C177 C178 1.304 1_556 S
C177 C181 1.323 1_556 S
C178 C177 1.304 1_554 S
C178 C179 1.371 . S
C178 H192 0.930 1_554 S
C179 C176 1.344 . S
C179 C178 1.371 . S
C179 H193 0.931 . S
C180 C176 1.328 . S
C180 C181 1.433 . S
C180 H194 0.931 . S
C181 C177 1.323 1_554 S
C181 C180 1.433 . S
C181 H195 0.933 . S
C182 Dy160 2.738 . S
C182 O165 1.255 . S
C182 O166 1.249 . S
C182 C176 1.516 . S
C183 O167 1.254 . S
C183 O168 1.257 . S
C184 O169 1.266 . S
C184 O170 1.236 . S
C185 C188 1.344 . S
C185 C189 1.328 . S
C185 C191 1.516 . S
C186 C187 1.304 . S
C186 C190 1.323 . S
C187 C186 1.304 . S
C187 C188 1.371 . S
C187 H196 0.930 . S
C188 C185 1.344 . S
C188 C187 1.371 . S
C188 H197 0.931 . S
C189 C185 1.328 . S
C189 C190 1.433 . S
C189 H198 0.931 . S
C190 C186 1.323 . S
C190 C189 1.433 . S
C190 H199 0.933 . S
C191 Dy161 2.738 . S
C191 O171 1.255 . S
C191 O172 1.249 . S
C191 C185 1.516 . S
H192 C178 0.930 1_556 S
H193 C179 0.931 . S
H194 C180 0.931 . S
H195 C181 0.933 . S
H196 C187 0.930 . S
H197 C188 0.931 . S
H198 C189 0.931 . S
H199 C190 0.933 . S
Dy200 O203 2.307 . S
Dy200 O205 2.395 . S
Dy200 O206 2.379 . S
Dy200 O208 2.339 . S
Dy200 O210 2.298 . S
Dy200 O214 2.275 . S
Dy200 C222 2.738 . S
Dy201 O204 2.298 . S
Dy201 O207 2.275 . S
Dy201 O209 2.307 . S
Dy201 O211 2.395 . S
Dy201 O212 2.379 . S
Dy201 O215 2.339 . S
Dy201 C231 2.738 . S
C202 O214 1.254 . S
C202 O215 1.257 . S
O203 Dy200 2.307 . S
O203 C213 1.266 . S
O204 Dy201 2.298 . S
O204 C213 1.236 . S
O205 Dy200 2.395 . S
O205 C222 1.255 . S
O206 Dy200 2.379 . S
O206 C222 1.249 . S
O207 Dy201 2.275 . S
O207 C223 1.254 . S
O208 Dy200 2.339 . S
O208 C223 1.257 . S
O209 Dy201 2.307 . S
O209 C224 1.266 . S
O210 Dy200 2.298 . S
O210 C224 1.236 . S
O211 Dy201 2.395 . S
O211 C231 1.255 . S
O212 Dy201 2.379 . S
O212 C231 1.249 . S
C213 O203 1.266 . S
C213 O204 1.236 . S
O214 Dy200 2.275 . S
O214 C202 1.254 . S
O215 Dy201 2.339 . S
O215 C202 1.257 . S
C216 C219 1.344 . S
C216 C220 1.328 . S
C216 C222 1.516 . S
C217 C218 1.304 . S
C217 C221 1.323 . S
C218 C217 1.304 . S
C218 C219 1.371 . S
C218 H232 0.930 . S
C219 C216 1.344 . S
C219 C218 1.371 . S
C219 H233 0.931 . S
C220 C216 1.328 . S
C220 C221 1.433 . S
C220 H234 0.931 . S
C221 C217 1.323 . S
C221 C220 1.433 . S
C221 H235 0.933 . S
C222 Dy200 2.738 . S
C222 O205 1.255 . S
C222 O206 1.249 . S
C222 C216 1.516 . S
C223 O207 1.254 . S
C223 O208 1.257 . S
C224 O209 1.266 . S
C224 O210 1.236 . S
C225 C228 1.344 . S
C225 C229 1.328 . S
C225 C231 1.516 . S
C226 C227 1.304 . S
C226 C230 1.323 1_554 S
C227 C226 1.304 . S
C227 C228 1.371 1_554 S
C227 H236 0.930 . S
C228 C225 1.344 . S
C228 C227 1.371 1_556 S
C228 H237 0.931 . S
C229 C225 1.328 . S
C229 C230 1.433 . S
C229 H238 0.931 . S
C230 C226 1.323 1_556 S
C230 C229 1.433 . S
C230 H239 0.933 1_556 S
C231 Dy201 2.738 . S
C231 O211 1.255 . S
C231 O212 1.249 . S
C231 C225 1.516 . S
H232 C218 0.930 . S
H233 C219 0.931 . S
H234 C220 0.931 . S
H235 C221 0.933 . S
H236 C227 0.930 . S
H237 C228 0.931 . S
H238 C229 0.931 . S
H239 C230 0.933 1_554 S
H240 C246 0.930 . S
H241 C249 0.930 . S
H242 C250 0.930 . S
H243 C251 0.930 . S
H244 C254 0.930 . S
H245 C255 0.930 . S
C246 H240 0.930 . S
C246 C247 1.355 . S
C246 C248 1.415 . S
C247 C246 1.355 . S
C247 C249 1.419 . S
C248 C246 1.415 . S
C248 C253 1.425 . S
C248 C255 1.409 . S
C249 H241 0.930 . S
C249 C247 1.419 . S
C249 C250 1.362 . S
C250 H242 0.930 . S
C250 C249 1.362 . S
C250 C253 1.409 . S
C251 H243 0.930 . S
C251 C252 1.355 . S
C251 C253 1.415 . S
C252 C251 1.355 . S
C252 C254 1.419 . S
C253 C248 1.425 . S
C253 C250 1.409 . S
C253 C251 1.415 . S
C254 H244 0.930 . S
C254 C252 1.419 . S
C254 C255 1.362 . S
C255 H245 0.930 . S
C255 C248 1.409 . S
C255 C254 1.362 . S
H256 C262 0.930 . S
H257 C265 0.930 . S
H258 C266 0.930 . S
H259 C267 0.930 . S
H260 C270 0.930 . S
H261 C271 0.930 . S
C262 H256 0.930 . S
C262 C263 1.355 . S
C262 C264 1.415 . S
C263 C262 1.355 . S
C263 C265 1.419 . S
C264 C262 1.415 . S
C264 C269 1.425 1_455 S
C264 C271 1.409 . S
C265 H257 0.930 . S
C265 C263 1.419 . S
C265 C266 1.362 1_455 S
C266 H258 0.930 . S
C266 C265 1.362 1_655 S
C266 C269 1.409 . S
C267 H259 0.930 . S
C267 C268 1.355 . S
C267 C269 1.415 . S
C268 C267 1.355 . S
C268 C270 1.419 . S
C269 C264 1.425 1_655 S
C269 C266 1.409 . S
C269 C267 1.415 . S
C270 H260 0.930 . S
C270 C268 1.419 . S
C270 C271 1.362 1_655 S
C271 H261 0.930 . S
C271 C264 1.409 . S
C271 C270 1.362 1_455 S
H272 C278 0.930 . S
H273 C281 0.930 . S
H274 C282 0.930 . S
H275 C283 0.930 . S
H276 C286 0.930 . S
H277 C287 0.930 . S
C278 H272 0.930 . S
C278 C279 1.355 . S
C278 C280 1.415 . S
C279 C278 1.355 . S
C279 C281 1.419 . S
C280 C278 1.415 . S
C280 C285 1.425 1_545 S
C280 C287 1.409 . S
C281 H273 0.930 . S
C281 C279 1.419 . S
C281 C282 1.362 1_545 S
C282 H274 0.930 . S
C282 C281 1.362 1_565 S
C282 C285 1.409 . S
C283 H275 0.930 . S
C283 C284 1.355 . S
C283 C285 1.415 . S
C284 C283 1.355 . S
C284 C286 1.419 . S
C285 C280 1.425 1_565 S
C285 C282 1.409 . S
C285 C283 1.415 . S
C286 H276 0.930 . S
C286 C284 1.419 . S
C286 C287 1.362 1_565 S
C287 H277 0.930 . S
C287 C280 1.409 . S
C287 C286 1.362 1_545 S
H288 C294 0.930 . S
H289 C297 0.930 . S
H290 C298 0.930 . S
H291 C299 0.930 . S
H292 C302 0.930 . S
H293 C303 0.930 . S
C294 H288 0.930 . S
C294 C295 1.355 . S
C294 C296 1.415 . S
C295 C294 1.355 . S
C295 C297 1.419 . S
C296 C294 1.415 . S
C296 C301 1.425 . S
C296 C303 1.409 . S
C297 H289 0.930 . S
C297 C295 1.419 . S
C297 C298 1.362 . S
C298 H290 0.930 . S
C298 C297 1.362 . S
C298 C301 1.409 . S
C299 H291 0.930 . S
C299 C300 1.355 . S
C299 C301 1.415 . S
C300 C299 1.355 . S
C300 C302 1.419 . S
C301 C296 1.425 . S
C301 C298 1.409 . S
C301 C299 1.415 . S
C302 H292 0.930 . S
C302 C300 1.419 . S
C302 C303 1.362 . S
C303 H293 0.930 . S
C303 C296 1.409 . S
C303 C302 1.362 . S
H304 C310 0.930 . S
H305 C313 0.930 . S
H306 C314 0.930 . S
H307 C315 0.930 . S
H308 C318 0.930 . S
H309 C319 0.930 . S
C310 H304 0.930 . S
C310 C311 1.355 . S
C310 C312 1.415 . S
C311 C310 1.355 . S
C311 C313 1.419 . S
C312 C310 1.415 . S
C312 C317 1.425 1_455 S
C312 C319 1.409 1_455 S
C313 H305 0.930 . S
C313 C311 1.419 . S
C313 C314 1.362 . S
C314 H306 0.930 . S
C314 C313 1.362 . S
C314 C317 1.409 1_455 S
C315 H307 0.930 . S
C315 C316 1.355 . S
C315 C317 1.415 . S
C316 C315 1.355 . S
C316 C318 1.419 . S
C317 C312 1.425 1_655 S
C317 C314 1.409 1_655 S
C317 C315 1.415 . S
C318 H308 0.930 . S
C318 C316 1.419 . S
C318 C319 1.362 . S
C319 H309 0.930 . S
C319 C312 1.409 1_655 S
C319 C318 1.362 . S
H320 C326 0.930 . S
H321 C329 0.930 . S
H322 C330 0.930 . S
H323 C331 0.930 . S
H324 C334 0.930 . S
H325 C335 0.930 . S
C326 H320 0.930 . S
C326 C327 1.355 . S
C326 C328 1.415 1_545 S
C327 C326 1.355 . S
C327 C329 1.419 . S
C328 C326 1.415 1_565 S
C328 C333 1.426 1_565 S
C328 C335 1.409 . S
C329 H321 0.930 . S
C329 C327 1.419 . S
C329 C330 1.362 . S
C330 H322 0.930 . S
C330 C329 1.362 . S
C330 C333 1.409 . S
C331 H323 0.930 . S
C331 C332 1.355 . S
C331 C333 1.414 1_565 S
C332 C331 1.355 . S
C332 C334 1.419 . S
C333 C328 1.426 1_545 S
C333 C330 1.409 . S
C333 C331 1.414 1_545 S
C334 H324 0.930 . S
C334 C332 1.419 . S
C334 C335 1.362 . S
C335 H325 0.930 . S
C335 C328 1.409 . S
C335 C334 1.362 . S
H336 C342 0.930 . S
H337 C345 0.930 . S
H338 C346 0.930 . S
H339 C347 0.930 . S
H340 C350 0.930 . S
H341 C351 0.930 . S
C342 H336 0.930 . S
C342 C343 1.355 . S
C342 C344 1.415 . S
C343 C342 1.355 . S
C343 C345 1.419 . S
C344 C342 1.415 . S
C344 C349 1.425 . S
C344 C351 1.409 . S
C345 H337 0.930 . S
C345 C343 1.419 . S
C345 C346 1.362 . S
C346 H338 0.930 . S
C346 C345 1.362 . S
C346 C349 1.409 . S
C347 H339 0.930 . S
C347 C348 1.355 . S
C347 C349 1.415 . S
C348 C347 1.355 . S
C348 C350 1.419 . S
C349 C344 1.425 . S
C349 C346 1.409 . S
C349 C347 1.415 . S
C350 H340 0.930 . S
C350 C348 1.419 . S
C350 C351 1.362 . S
C351 H341 0.930 . S
C351 C344 1.409 . S
C351 C350 1.362 . S
H352 C358 0.930 . S
H353 C361 0.930 . S
H354 C362 0.930 . S
H355 C363 0.930 . S
H356 C366 0.930 . S
H357 C367 0.930 . S
C358 H352 0.930 . S
C358 C359 1.355 . S
C358 C360 1.415 . S
C359 C358 1.355 . S
C359 C361 1.419 . S
C360 C358 1.415 . S
C360 C365 1.425 . S
C360 C367 1.409 . S
C361 H353 0.930 . S
C361 C359 1.419 . S
C361 C362 1.362 . S
C362 H354 0.930 . S
C362 C361 1.362 . S
C362 C365 1.409 . S
C363 H355 0.930 . S
C363 C364 1.355 . S
C363 C365 1.415 . S
C364 C363 1.355 . S
C364 C366 1.419 . S
C365 C360 1.425 . S
C365 C362 1.409 . S
C365 C363 1.415 . S
C366 H356 0.930 . S
C366 C364 1.419 . S
C366 C367 1.362 . S
C367 H357 0.930 . S
C367 C360 1.409 . S
C367 C366 1.362 . S
H368 C374 0.930 . S
H369 C377 0.930 . S
H370 C378 0.930 . S
H371 C379 0.930 . S
H372 C382 0.930 . S
H373 C383 0.930 . S
C374 H368 0.930 . S
C374 C375 1.355 . S
C374 C376 1.415 . S
C375 C374 1.355 . S
C375 C377 1.419 . S
C376 C374 1.415 . S
C376 C381 1.425 . S
C376 C383 1.409 . S
C377 H369 0.930 . S
C377 C375 1.419 . S
C377 C378 1.362 . S
C378 H370 0.930 . S
C378 C377 1.362 . S
C378 C381 1.409 . S
C379 H371 0.930 . S
C379 C380 1.355 . S
C379 C381 1.415 . S
C380 C379 1.355 . S
C380 C382 1.419 . S
C381 C376 1.425 . S
C381 C378 1.409 . S
C381 C379 1.415 . S
C382 H372 0.930 . S
C382 C380 1.419 . S
C382 C383 1.362 . S
C383 H373 0.930 . S
C383 C376 1.409 . S
C383 C382 1.362 . S
H384 C390 0.930 . S
H385 C393 0.930 . S
H386 C394 0.930 . S
H387 C395 0.930 . S
H388 C398 0.930 . S
H389 C399 0.930 . S
C390 H384 0.930 . S
C390 C391 1.355 . S
C390 C392 1.415 . S
C391 C390 1.355 . S
C391 C393 1.419 . S
C392 C390 1.415 . S
C392 C397 1.425 . S
C392 C399 1.409 . S
C393 H385 0.930 . S
C393 C391 1.419 . S
C393 C394 1.362 . S
C394 H386 0.930 . S
C394 C393 1.362 . S
C394 C397 1.409 . S
C395 H387 0.930 . S
C395 C396 1.355 . S
C395 C397 1.415 . S
C396 C395 1.355 . S
C396 C398 1.419 . S
C397 C392 1.425 . S
C397 C394 1.409 . S
C397 C395 1.415 . S
C398 H388 0.930 . S
C398 C396 1.419 . S
C398 C399 1.362 . S
C399 H389 0.930 . S
C399 C392 1.409 . S
C399 C398 1.362 . S
H400 C406 0.930 . S
H401 C409 0.930 . S
H402 C410 0.930 . S
H403 C411 0.930 . S
H404 C414 0.930 . S
H405 C415 0.930 . S
C406 H400 0.930 . S
C406 C407 1.355 . S
C406 C408 1.415 . S
C407 C406 1.355 . S
C407 C409 1.419 . S
C408 C406 1.415 . S
C408 C413 1.425 . S
C408 C415 1.409 . S
C409 H401 0.930 . S
C409 C407 1.419 . S
C409 C410 1.362 . S
C410 H402 0.930 . S
C410 C409 1.362 . S
C410 C413 1.409 . S
C411 H403 0.930 . S
C411 C412 1.355 . S
C411 C413 1.415 . S
C412 C411 1.355 . S
C412 C414 1.419 . S
C413 C408 1.425 . S
C413 C410 1.409 . S
C413 C411 1.415 . S
C414 H404 0.930 . S
C414 C412 1.419 . S
C414 C415 1.362 . S
C415 H405 0.930 . S
C415 C408 1.409 . S
C415 C414 1.362 . S
H416 C422 0.930 . S
H417 C425 0.930 . S
H418 C426 0.930 . S
H419 C427 0.930 . S
H420 C430 0.930 . S
H421 C431 0.930 . S
C422 H416 0.930 . S
C422 C423 1.355 . S
C422 C424 1.415 . S
C423 C422 1.355 . S
C423 C425 1.419 . S
C424 C422 1.415 . S
C424 C429 1.425 . S
C424 C431 1.409 . S
C425 H417 0.930 . S
C425 C423 1.419 . S
C425 C426 1.362 . S
C426 H418 0.930 . S
C426 C425 1.362 . S
C426 C429 1.409 . S
C427 H419 0.930 . S
C427 C428 1.355 . S
C427 C429 1.415 . S
C428 C427 1.355 . S
C428 C430 1.419 . S
C429 C424 1.425 . S
C429 C426 1.409 . S
C429 C427 1.415 . S
C430 H420 0.930 . S
C430 C428 1.419 . S
C430 C431 1.362 . S
C431 H421 0.930 . S
C431 C424 1.409 . S
C431 C430 1.362 . S
H432 C438 0.930 . S
H433 C441 0.930 . S
H434 C442 0.930 . S
H435 C443 0.930 . S
H436 C446 0.930 . S
H437 C447 0.930 . S
C438 H432 0.930 . S
C438 C439 1.355 . S
C438 C440 1.415 . S
C439 C438 1.355 . S
C439 C441 1.419 . S
C440 C438 1.415 . S
C440 C445 1.425 . S
C440 C447 1.409 . S
C441 H433 0.930 . S
C441 C439 1.419 . S
C441 C442 1.362 . S
C442 H434 0.930 . S
C442 C441 1.362 . S
C442 C445 1.409 . S
C443 H435 0.930 . S
C443 C444 1.355 . S
C443 C445 1.415 . S
C444 C443 1.355 . S
C444 C446 1.419 . S
C445 C440 1.425 . S
C445 C442 1.409 . S
C445 C443 1.415 . S
C446 H436 0.930 . S
C446 C444 1.419 . S
C446 C447 1.362 . S
C447 H437 0.930 . S
C447 C440 1.409 . S
C447 C446 1.362 . S
H448 C454 0.930 . S
H449 C457 0.930 . S
H450 C458 0.930 . S
H451 C459 0.930 . S
H452 C462 0.930 . S
H453 C463 0.930 . S
C454 H448 0.930 . S
C454 C455 1.355 . S
C454 C456 1.415 . S
C455 C454 1.355 . S
C455 C457 1.419 . S
C456 C454 1.415 . S
C456 C461 1.425 . S
C456 C463 1.409 . S
C457 H449 0.930 . S
C457 C455 1.419 . S
C457 C458 1.362 . S
C458 H450 0.930 . S
C458 C457 1.362 . S
C458 C461 1.409 . S
C459 H451 0.930 . S
C459 C460 1.355 . S
C459 C461 1.415 . S
C460 C459 1.355 . S
C460 C462 1.419 . S
C461 C456 1.425 . S
C461 C458 1.409 . S
C461 C459 1.415 . S
C462 H452 0.930 . S
C462 C460 1.419 . S
C462 C463 1.362 . S
C463 H453 0.930 . S
C463 C456 1.409 . S
C463 C462 1.362 . S
H464 C470 0.930 . S
H465 C473 0.930 . S
H466 C474 0.930 . S
H467 C475 0.930 . S
H468 C478 0.930 . S
H469 C479 0.930 . S
C470 H464 0.930 . S
C470 C471 1.355 . S
C470 C472 1.415 . S
C471 C470 1.355 . S
C471 C473 1.419 . S
C472 C470 1.415 . S
C472 C477 1.425 . S
C472 C479 1.409 . S
C473 H465 0.930 . S
C473 C471 1.419 . S
C473 C474 1.362 . S
C474 H466 0.930 . S
C474 C473 1.362 . S
C474 C477 1.409 . S
C475 H467 0.930 . S
C475 C476 1.355 . S
C475 C477 1.415 . S
C476 C475 1.355 . S
C476 C478 1.419 . S
C477 C472 1.425 . S
C477 C474 1.409 . S
C477 C475 1.415 . S
C478 H468 0.930 . S
C478 C476 1.419 . S
C478 C479 1.362 . S
C479 H469 0.930 . S
C479 C472 1.409 . S
C479 C478 1.362 . S
H480 C486 0.930 . S
H481 C489 0.930 . S
H482 C490 0.930 . S
H483 C491 0.930 . S
H484 C494 0.930 . S
H485 C495 0.930 . S
C486 H480 0.930 . S
C486 C487 1.355 . S
C486 C488 1.415 . S
C487 C486 1.355 . S
C487 C489 1.419 . S
C488 C486 1.415 . S
C488 C493 1.425 . S
C488 C495 1.409 . S
C489 H481 0.930 . S
C489 C487 1.419 . S
C489 C490 1.362 . S
C490 H482 0.930 . S
C490 C489 1.362 . S
C490 C493 1.409 . S
C491 H483 0.930 . S
C491 C492 1.355 . S
C491 C493 1.415 . S
C492 C491 1.355 . S
C492 C494 1.419 . S
C493 C488 1.425 . S
C493 C490 1.409 . S
C493 C491 1.415 . S
C494 H484 0.930 . S
C494 C492 1.419 . S
C494 C495 1.362 . S
C495 H485 0.930 . S
C495 C488 1.409 . S
C495 C494 1.362 . S
H496 C502 0.930 . S
H497 C505 0.930 . S
H498 C506 0.930 . S
H499 C507 0.930 . S
H500 C510 0.930 . S
H501 C511 0.930 . S
C502 H496 0.930 . S
C502 C503 1.355 . S
C502 C504 1.415 . S
C503 C502 1.355 . S
C503 C505 1.419 . S
C504 C502 1.415 . S
C504 C509 1.425 . S
C504 C511 1.409 . S
C505 H497 0.930 . S
C505 C503 1.419 . S
C505 C506 1.362 . S
C506 H498 0.930 . S
C506 C505 1.362 . S
C506 C509 1.409 . S
C507 H499 0.930 . S
C507 C508 1.355 . S
C507 C509 1.415 . S
C508 C507 1.355 . S
C508 C510 1.419 . S
C509 C504 1.425 . S
C509 C506 1.409 . S
C509 C507 1.415 . S
C510 H500 0.930 . S
C510 C508 1.419 . S
C510 C511 1.362 . S
C511 H501 0.930 . S
C511 C504 1.409 . S
C511 C510 1.362 . S
H512 C518 0.930 . S
H513 C521 0.930 . S
H514 C522 0.930 . S
H515 C523 0.930 . S
H516 C526 0.930 . S
H517 C527 0.930 . S
C518 H512 0.930 . S
C518 C519 1.355 . S
C518 C520 1.415 . S
C519 C518 1.355 . S
C519 C521 1.419 . S
C520 C518 1.415 . S
C520 C525 1.425 . S
C520 C527 1.409 . S
C521 H513 0.930 . S
C521 C519 1.419 . S
C521 C522 1.362 . S
C522 H514 0.930 . S
C522 C521 1.362 . S
C522 C525 1.409 . S
C523 H515 0.930 . S
C523 C524 1.355 . S
C523 C525 1.415 . S
C524 C523 1.355 . S
C524 C526 1.419 . S
C525 C520 1.425 . S
C525 C522 1.409 . S
C525 C523 1.415 . S
C526 H516 0.930 . S
C526 C524 1.419 . S
C526 C527 1.362 . S
C527 H517 0.930 . S
C527 C520 1.409 . S
C527 C526 1.362 . S
C247 C213 1.464 . S
C252 C2 1.417 . S
C263 C13 1.464 . S
C268 C42 1.437 . S
C279 C53 1.467 . S
C284 C82 1.421 . S
C295 C93 1.433 . S
C300 C122 1.457 . S
C311 C162 1.462 . S
C316 C133 1.435 . S
C327 C202 1.417 . S
C332 C173 1.459 . S
C343 C17 1.606 . S
C348 C26 1.606 . S
C359 C57 1.615 . S
C364 C66 1.615 . S
C375 C97 1.676 . S
C380 C106 1.676 . S
C391 C137 1.610 . S
C396 C146 1.610 . S
C407 C186 1.713 . S
C412 C177 1.713 . S
C423 C217 1.712 . S
C428 C226 1.712 . S
C439 C23 1.686 . S
C444 C184 1.667 . S
C455 C63 1.682 . S
C460 C224 1.684 . S
C471 C24 1.685 . S
C476 C103 1.682 . S
C487 C64 1.654 . S
C492 C143 1.686 . S
C503 C183 1.686 . S
C508 C104 1.667 . S
C519 C144 1.681 . S
C524 C223 1.684 . S
