# Generated by pormake.
# Topology rob, (6)-cn, num edge types: 1
# Building blocks:
#     Node 0, Type 0, BuildingBlock: BETDAH_clean_sbu_0, # of connection points: 6
#     Node 1, Type 0, BuildingBlock: BETDAH_clean_sbu_0, # of connection points: 6
#     Node 2, Type 0, BuildingBlock: BETDAH_clean_sbu_0, # of connection points: 6
#     Node 3, Type 0, BuildingBlock: BETDAH_clean_sbu_0, # of connection points: 6
#     Edge 4, Type (0, 0), BuildingBlock: TEMPAE_clean_linker_10, # of connection points: 2
#     Edge 5, Type (0, 0), BuildingBlock: TEMPAE_clean_linker_10, # of connection points: 2
#     Edge 6, Type (0, 0), BuildingBlock: TEMPAE_clean_linker_10, # of connection points: 2
#     Edge 7, Type (0, 0), BuildingBlock: TEMPAE_clean_linker_10, # of connection points: 2
#     Edge 8, Type (0, 0), BuildingBlock: TEMPAE_clean_linker_10, # of connection points: 2
#     Edge 9, Type (0, 0), BuildingBlock: TEMPAE_clean_linker_10, # of connection points: 2
#     Edge 10, Type (0, 0), BuildingBlock: TEMPAE_clean_linker_10, # of connection points: 2
#     Edge 11, Type (0, 0), BuildingBlock: TEMPAE_clean_linker_10, # of connection points: 2
#     Edge 12, Type (0, 0), BuildingBlock: TEMPAE_clean_linker_10, # of connection points: 2
#     Edge 13, Type (0, 0), BuildingBlock: TEMPAE_clean_linker_10, # of connection points: 2
#     Edge 14, Type (0, 0), BuildingBlock: TEMPAE_clean_linker_10, # of connection points: 2
#     Edge 15, Type (0, 0), BuildingBlock: TEMPAE_clean_linker_10, # of connection points: 2
# Relax obj value: 0.147
# Max RMSD: 0.194
# Mean RMSD: 0.194
data_MOF--net-rob--node1-BETDAH_clean_sbu_0--edge1-TEMPAE_clean_linker_10
_symmetry_space_group_name_H-M    P1
_symmetry_Int_Tables_number       1
_symmetry_cell_setting            triclinic
loop_
_symmetry_equiv_pos_as_xyz
'x, y, z'
_cell_length_a     16.299986
_cell_length_b     23.812655
_cell_length_c     37.619714
_cell_angle_alpha  89.901608
_cell_angle_beta   126.03391
_cell_angle_gamma 89.975958
loop_
_atom_site_label
_atom_site_type_symbol
_atom_site_fract_x
_atom_site_fract_y
_atom_site_fract_z
_atom_type_partial_charge
Ho0 Ho 0.16172 0.29785 0.98954 0.0
Ho1 Ho 0.36224 0.2576 0.00569 0.0
C2 C 0.36239 0.26893 0.08844 0.0
C3 C 1.00744 0.30579 0.99253 0.0
C4 C 0.99363 0.29564 0.02742 0.0
C5 C 0.05718 0.25824 0.0621 0.0
C6 C 0.05078 0.25344 0.09749 0.0
C7 C 0.98002 0.28561 0.09876 0.0
C8 C 0.91387 0.3214 0.06301 0.0
C9 C 0.92097 0.32649 0.02782 0.0
C10 C 0.27854 0.38051 0.9923 0.0
C11 C 0.16317 0.28865 0.90708 0.0
C12 C 0.51504 0.23879 0.00277 0.0
C13 C 0.53401 0.24677 0.96923 0.0
C14 C 0.47098 0.28159 0.93266 0.0
C15 C 0.48246 0.28438 0.89869 0.0
C16 C 0.55693 0.25201 0.90032 0.0
C17 C 0.62213 0.21842 0.93773 0.0
C18 C 0.61056 0.2158 0.9718 0.0
C19 C 0.24207 0.17723 0.00323 0.0
O20 O 0.26243 0.27086 0.06049 0.0
O21 O 0.42253 0.27179 0.07573 0.0
O22 O 0.06582 0.34823 0.99926 0.0
O23 O 0.02562 0.26165 0.97746 0.0
O24 O 0.18027 0.38326 0.96913 0.0
O25 O 0.3104 0.33686 0.01604 0.0
O26 O 0.26325 0.28732 0.93526 0.0
O27 O 0.1029 0.28521 0.91968 0.0
O28 O 0.44638 0.20124 0.99305 0.0
O29 O 0.50609 0.28413 0.01987 0.0
O30 O 0.34036 0.17588 0.02974 0.0
O31 O 0.21346 0.21954 0.97849 0.0
H32 H 0.11332 0.2336 0.06236 0.0
H33 H 0.10356 0.22581 0.12447 0.0
H34 H 0.85708 0.34594 0.06239 0.0
H35 H 0.87093 0.35538 0.0013 0.0
H36 H 0.41148 0.30587 0.92986 0.0
H37 H 0.43205 0.31149 0.87085 0.0
H38 H 0.67971 0.19253 0.94001 0.0
H39 H 0.65962 0.18832 -0.00041 0.0
Ho40 Ho 0.67112 0.80011 0.99339 0.0
Ho41 Ho 0.86714 0.75216 0.00908 0.0
C42 C 0.87054 0.76763 0.09182 0.0
C43 C 0.52106 0.81385 0.9987 0.0
C44 C 0.50931 0.80445 0.03433 0.0
C45 C 0.57084 0.76558 0.06812 0.0
C46 C 0.56663 0.76118 0.10414 0.0
C47 C 0.49967 0.79505 0.10692 0.0
C48 C 0.43554 0.83248 0.07207 0.0
C49 C 0.44083 0.83733 0.03635 0.0
C50 C 0.794 0.8778 0.99563 0.0
C51 C 0.66986 0.78499 0.9104 0.0
C52 C 0.01651 0.72877 0.00475 0.0
C53 C 0.03188 0.73307 0.96981 0.0
C54 C 0.97396 0.77043 0.93444 0.0
C55 C 0.98366 0.77133 0.89989 0.0
C56 C 0.05101 0.73452 0.89964 0.0
C57 C 0.11033 0.69779 0.93561 0.0
C58 C 0.10072 0.6971 0.97029 0.0
C59 C 0.73936 0.67687 0.0062 0.0
O60 O 0.77091 0.77214 0.06404 0.0
O61 O 0.93059 0.76751 0.07909 0.0
O62 O 0.5835 0.8541 0.00572 0.0
O63 O 0.53243 0.76905 0.98184 0.0
O64 O 0.6962 0.88339 0.97305 0.0
O65 O 0.82288 0.83429 0.01953 0.0
O66 O 0.76917 0.77852 0.93829 0.0
O67 O 0.60969 0.78905 0.92305 0.0
O68 O 0.94907 0.69197 0.99774 0.0
O69 O 1.00924 0.77596 0.02051 0.0
O70 O 0.83747 0.67246 0.03257 0.0
O71 O 0.71484 0.71922 0.98179 0.0
H72 H 0.62361 0.73929 0.06714 0.0
H73 H 0.61796 0.73226 0.13035 0.0
H74 H 0.38141 0.85837 0.07243 0.0
H75 H 0.39241 0.86744 0.01057 0.0
H76 H 0.92002 0.79848 0.93308 0.0
H77 H 0.93788 0.80085 0.87325 0.0
H78 H 0.16209 0.66836 0.93643 0.0
H79 H 0.14564 0.66761 0.99708 0.0
Ho80 Ho 0.35122 0.77825 0.50214 0.0
Ho81 Ho 0.16356 0.73562 0.49518 0.0
C82 C 0.14048 0.74573 0.40745 0.0
C83 C 0.48932 0.79127 0.48909 0.0
C84 C 0.48946 0.78899 0.44981 0.0
C85 C 0.57156 0.76456 0.45273 0.0
C86 C 0.57295 0.76245 0.41585 0.0
C87 C 0.49229 0.78503 0.3752 0.0
C88 C 0.40975 0.80911 0.37245 0.0
C89 C 0.40801 0.81072 0.40919 0.0
C90 C 0.23227 0.85847 0.50068 0.0
C91 C 0.37577 0.7654 0.59074 0.0
C92 C 0.02751 0.72554 0.50953 0.0
C93 C 0.03349 0.72382 0.55045 0.0
C94 C 0.98186 0.76442 0.55745 0.0
C95 C 0.99083 0.76539 0.59683 0.0
C96 C 0.05107 0.72546 0.63003 0.0
C97 C 0.10202 0.68451 0.62284 0.0
C98 C 0.09383 0.68386 0.58363 0.0
C99 C 0.28283 0.65529 0.49691 0.0
O100 O 0.24064 0.74872 0.43232 0.0
O101 O 0.08768 0.74871 0.42372 0.0
O102 O 0.4396 0.83298 0.49089 0.0
O103 O 0.47385 0.74367 0.50166 0.0
O104 O 0.33035 0.86212 0.52349 0.0
O105 O 0.20211 0.81424 0.47791 0.0
O106 O 0.27653 0.75784 0.56629 0.0
O107 O 0.42789 0.76925 0.57413 0.0
O108 O 0.06508 0.6827 0.5017 0.0
O109 O 0.05087 0.77364 0.50078 0.0
O110 O 0.18466 0.65125 0.47429 0.0
O111 O 0.31249 0.69975 0.5194 0.0
H112 H 0.63473 0.74702 0.4836 0.0
H113 H 0.63698 0.74268 0.41917 0.0
H114 H 0.34702 0.82775 0.34208 0.0
H115 H 0.34319 0.82941 0.40586 0.0
H116 H 0.93519 0.79582 0.53253 0.0
H117 H 0.94969 0.79711 0.60111 0.0
H118 H 0.14964 0.65347 0.64788 0.0
H119 H 0.13573 0.65238 0.57961 0.0
Ho120 Ho 0.85441 0.28296 0.49972 0.0
Ho121 Ho 0.67047 0.23921 0.49579 0.0
C122 C 0.64217 0.24824 0.40634 0.0
C123 C 0.99009 0.2963 0.48539 0.0
C124 C 0.98758 0.29168 0.44555 0.0
C125 C 0.06747 0.26523 0.44783 0.0
C126 C 0.06603 0.26087 0.41032 0.0
C127 C 0.98467 0.28312 0.36971 0.0
C128 C 0.90431 0.30913 0.3676 0.0
C129 C 0.90536 0.31299 0.40494 0.0
C130 C 0.73612 0.36244 0.49942 0.0
C131 C 0.88231 0.2751 0.58896 0.0
C132 C 0.53882 0.2259 0.51236 0.0
C133 C 0.54757 0.22947 0.55384 0.0
C134 C 0.48467 0.26625 0.55694 0.0
C135 C 0.49358 0.27071 0.59623 0.0
C136 C 0.56509 0.23809 0.63313 0.0
C137 C 0.62864 0.20171 0.63011 0.0
C138 C 0.62041 0.19764 0.59103 0.0
C139 C 0.78814 0.15974 0.49576 0.0
O140 O 0.74212 0.25255 0.43031 0.0
O141 O 0.59124 0.25034 0.42361 0.0
O142 O 0.93853 0.33778 0.48617 0.0
O143 O 0.97903 0.24943 0.50029 0.0
O144 O 0.83338 0.36779 0.52014 0.0
O145 O 0.70568 0.31773 0.47728 0.0
O146 O 0.78262 0.26997 0.56509 0.0
O147 O 0.93346 0.27302 0.57187 0.0
O148 O 0.58585 0.18409 0.50894 0.0
O149 O 0.5492 0.27307 0.49754 0.0
O150 O 0.69098 0.15439 0.47535 0.0
O151 O 0.81894 0.20432 0.51811 0.0
H152 H 0.13107 0.2479 0.47868 0.0
H153 H 0.12841 0.2397 0.41312 0.0
H154 H 0.84124 0.3276 0.33724 0.0
H155 H 0.84206 0.33313 0.40205 0.0
H156 H 0.4286 0.2916 0.52893 0.0
H157 H 0.44321 0.29893 0.59748 0.0
H158 H 0.68542 0.17667 0.65816 0.0
H159 H 0.67138 0.16958 0.59008 0.0
C160 C 0.69783 0.60564 0.04211 0.0
C161 C 0.66726 0.63778 0.00499 0.0
C162 C 0.63153 0.56688 0.04115 0.0
C163 C 0.53352 0.55852 0.00159 0.0
C164 C 0.50202 0.59144 0.96408 0.0
C165 C 0.56867 0.63148 0.96654 0.0
C166 C 0.66705 0.53424 0.08233 0.0
C167 C 0.39892 0.58361 0.92103 0.0
C168 C 0.41616 0.4146 0.9875 0.0
C169 C 0.34357 0.42607 0.99504 0.0
C170 C 0.47731 0.45739 0.9889 0.0
C171 C 0.46667 0.51313 0.99888 0.0
C172 C 0.3929 0.52499 0.00648 0.0
C173 C 0.33106 0.48137 0.00378 0.0
C174 C 0.55217 0.44306 0.97897 0.0
C175 C 0.3802 0.58352 0.01799 0.0
H176 H 0.77368 0.611 0.07204 0.0
H177 H 0.54484 0.65654 0.93785 0.0
H178 H 0.60988 0.53698 0.08935 0.0
H179 H 0.6756 0.48924 0.07753 0.0
H180 H 0.74087 0.54978 0.11142 0.0
H181 H 0.39156 0.60684 0.89366 0.0
H182 H 0.38422 0.53844 0.91225 0.0
H183 H 0.33925 0.5989 0.92421 0.0
H184 H 0.42282 0.37241 0.9791 0.0
H185 H 0.27413 0.49027 0.00929 0.0
H186 H 0.63031 0.45343 0.00758 0.0
H187 H 0.53576 0.46859 0.95075 0.0
H188 H 0.54983 0.39792 0.97102 0.0
H189 H 0.45372 0.59893 0.04725 0.0
H190 H 0.32276 0.58529 0.02494 0.0
H191 H 0.35662 0.61275 0.99054 0.0
C192 C 0.45575 0.61635 0.52789 0.0
C193 C 0.35004 0.61255 0.49763 0.0
C194 C 0.52003 0.5759 0.52884 0.0
C195 C 0.4776 0.53047 0.4988 0.0
C196 C 0.37076 0.52651 0.46819 0.0
C197 C 0.30836 0.56753 0.46802 0.0
C198 C 0.63338 0.5817 0.56208 0.0
C199 C 0.32231 0.47898 0.43549 0.0
C200 C 0.64308 0.45357 0.47345 0.0
C201 C 0.66987 0.405 0.49905 0.0
C202 C 0.5806 0.49478 0.47307 0.0
C203 C 0.54484 0.48726 0.49921 0.0
C204 C 0.57306 0.43827 0.52553 0.0
C205 C 0.63542 0.39778 0.52516 0.0
C206 C 0.55259 0.54629 0.44459 0.0
C207 C 0.53722 0.42848 0.55401 0.0
H208 H 0.48832 0.65084 0.55107 0.0
H209 H 0.22668 0.56445 0.44449 0.0
H210 H 0.66463 0.5438 0.58333 0.0
H211 H 0.6701 0.58487 0.54498 0.0
H212 H 0.65437 0.61925 0.58329 0.0
H213 H 0.23818 0.4819 0.41383 0.0
H214 H 0.34984 0.47906 0.41464 0.0
H215 H 0.3445 0.43814 0.45308 0.0
H216 H 0.67068 0.45915 0.45356 0.0
H217 H 0.65807 0.36069 0.54565 0.0
H218 H 0.57814 0.58468 0.46514 0.0
H219 H 0.46891 0.54916 0.42056 0.0
H220 H 0.58675 0.54591 0.4263 0.0
H221 H 0.55694 0.46494 0.576 0.0
H222 H 0.57087 0.38998 0.5745 0.0
H223 H 0.45341 0.42432 0.53299 0.0
C224 C 0.0748 0.12866 0.96604 0.0
C225 C 0.17412 0.13652 0.00357 0.0
C226 C 1.0116 0.0877 0.96526 0.0
C227 C 0.04784 0.05497 0.00339 0.0
C228 C 0.14684 0.06461 0.04197 0.0
C229 C 0.20932 0.10465 0.04136 0.0
C230 C 0.90726 0.07833 0.92323 0.0
C231 C 0.18722 0.03225 0.0838 0.0
C232 C 0.85132 0.97764 0.00935 0.0
C233 C 0.86172 0.92247 -0.00039 0.0
C234 C 0.91282 0.02108 0.01165 0.0
C235 C 0.98384 1.00924 0.00245 0.0
C236 C 0.99335 0.95352 0.99203 0.0
C237 C 0.93277 0.91079 0.99118 0.0
C238 C 0.90197 0.07953 0.02398 0.0
C239 C 0.06597 0.93917 0.98085 0.0
H240 H 0.04756 0.15339 0.93681 0.0
H241 H 0.28575 0.11127 0.07061 0.0
H242 H 0.90159 0.03478 0.91151 0.0
H243 H 0.84863 0.08312 0.9292 0.0
H244 H 0.88976 0.10802 0.89678 0.0
H245 H 0.26182 0.04839 0.11196 0.0
H246 H 0.13273 0.03451 0.09235 0.0
H247 H 0.19605 0.98732 0.07893 0.0
H248 H 0.79567 0.98665 0.01561 0.0
H249 H 0.93821 0.86861 0.98228 0.0
H250 H 0.87581 0.10894 0.99632 0.0
H251 H 0.97668 0.0949 0.05248 0.0
H252 H 0.84725 0.08113 0.03247 0.0
H253 H 0.04804 0.96484 0.95243 0.0
H254 H 0.06277 0.89406 0.97262 0.0
H255 H 0.14476 0.94939 0.00895 0.0
C256 C 0.89342 0.12302 0.47275 0.0
C257 C 0.85394 0.11616 0.49693 0.0
C258 C 0.95381 0.08104 0.47248 0.0
C259 C 0.97475 0.0309 0.49691 0.0
C260 C 0.93403 0.02381 0.52115 0.0
C261 C 0.87351 0.06646 0.52062 0.0
C262 C 0.99472 0.09027 0.44588 0.0
C263 C 0.95485 0.97131 0.54783 0.0
C264 C 0.06026 0.90017 0.46815 0.0
C265 C 0.16576 0.90194 0.49967 0.0
C266 C 0.99712 0.94192 0.4667 0.0
C267 C 0.0405 0.98629 0.49772 0.0
C268 C 0.14704 0.98791 0.52979 0.0
C269 C 0.20829 0.9459 0.53023 0.0
C270 C 0.88406 0.93869 0.43182 0.0
C271 C 0.19641 0.03401 0.56375 0.0
H272 H 0.87563 0.16086 0.45342 0.0
H273 H 0.84177 0.06114 0.53891 0.0
H274 H 0.07882 0.08845 0.46765 0.0
H275 H 0.96798 0.05634 0.42121 0.0
H276 H 0.97099 0.1314 0.42852 0.0
H277 H 0.91749 0.97223 0.56477 0.0
H278 H 0.92777 0.93384 0.52626 0.0
H279 H 0.03779 0.96616 0.5729 0.0
H280 H 0.02709 0.86639 0.44432 0.0
H281 H 0.28979 0.94735 0.55476 0.0
H282 H 0.8572 0.97747 0.41152 0.0
H283 H 0.84396 0.93593 0.44746 0.0
H284 H 0.86234 0.90189 0.40985 0.0
H285 H 0.17924 0.07547 0.54727 0.0
H286 H 0.2801 0.029 0.58671 0.0
H287 H 0.16507 0.03439 0.58313 0.0
C288 C 0.63213 0.20937 0.34303 0.0
C289 C 0.58865 0.24239 0.35871 0.0
C290 C 0.59207 0.20924 0.29839 0.0
C291 C 0.50865 0.24449 0.26908 0.0
C292 C 0.46236 0.27664 0.28455 0.0
C293 C 0.50227 0.27455 0.32933 0.0
C294 C 0.64121 0.17287 0.28288 0.0
C295 C 0.37456 0.31559 0.25441 0.0
C296 C 0.48816 0.29183 0.16768 0.0
C297 C 0.40535 0.26027 0.13494 0.0
C298 C 0.52192 0.28757 0.21158 0.0
C299 C 0.47335 0.24958 0.22277 0.0
C300 C 0.39218 0.216 0.18984 0.0
C301 C 0.35803 0.22252 0.14615 0.0
C302 C 0.60689 0.32522 0.2456 0.0
C303 C 0.34124 0.17334 0.20063 0.0
H304 H 0.69892 0.18435 0.36596 0.0
H305 H 0.46973 0.30055 0.34176 0.0
H306 H 0.58291 0.1473 0.25427 0.0
H307 H 0.67803 0.19971 0.2719 0.0
H308 H 0.69949 0.14426 0.30911 0.0
H309 H 0.34405 0.33549 0.2711 0.0
H310 H 0.39982 0.34916 0.24236 0.0
H311 H 0.31224 0.29257 0.22519 0.0
H312 H 0.52369 0.3214 0.15869 0.0
H313 H 0.29436 0.19778 0.12062 0.0
H314 H 0.66577 0.30057 0.27474 0.0
H315 H 0.57634 0.35638 0.25695 0.0
H316 H 0.64329 0.34811 0.23251 0.0
H317 H 0.39885 0.14521 0.22748 0.0
H318 H 0.28533 0.14725 0.17174 0.0
H319 H 0.30118 0.19499 0.21241 0.0
C320 C 0.51175 0.74105 0.16768 0.0
C321 C 0.49836 0.79236 0.14635 0.0
C322 C 0.51211 0.73827 0.20514 0.0
C323 C 0.49771 0.78786 0.22161 0.0
C324 C 0.48384 0.83973 0.20023 0.0
C325 C 0.48495 0.84139 0.16315 0.0
C326 C 0.52784 0.68218 0.2271 0.0
C327 C 0.468 0.89361 0.21659 0.0
C328 C 0.40495 0.77532 0.29363 0.0
C329 C 0.49441 0.78413 0.33595 0.0
C330 C 0.40491 0.77642 0.25625 0.0
C331 C 0.49693 0.7856 0.26113 0.0
C332 C 0.5879 0.79349 0.30375 0.0
C333 C 0.58542 0.79303 0.34051 0.0
C334 C 0.30597 0.76831 0.21146 0.0
C335 C 0.68783 0.80304 0.3105 0.0
H336 H 0.52088 0.70274 0.15483 0.0
H337 H 0.47664 0.88148 0.14767 0.0
H338 H 0.59465 0.68415 0.26203 0.0
H339 H 0.46102 0.67187 0.22677 0.0
H340 H 0.53973 0.64766 0.21074 0.0
H341 H 0.4562 0.93031 0.19577 0.0
H342 H 0.40111 0.88958 0.21726 0.0
H343 H 0.53475 0.90196 0.25074 0.0
H344 H 0.33459 0.76723 0.28964 0.0
H345 H 0.65482 0.8007 0.37283 0.0
H346 H 0.31198 0.73198 0.19469 0.0
H347 H 0.28925 0.80591 0.19073 0.0
H348 H 0.24116 0.76113 0.21328 0.0
H349 H 0.70349 0.76803 0.29583 0.0
H350 H 0.75232 0.80649 0.34582 0.0
H351 H 0.68399 0.84215 0.29351 0.0
C352 C 0.67593 0.75279 0.8497 0.0
C353 C 0.62721 0.78463 0.86355 0.0
C354 C 0.63852 0.751 0.8055 0.0
C355 C 0.55168 0.783 0.77461 0.0
C356 C 0.50299 0.81612 0.78844 0.0
C357 C 0.54064 0.81586 0.83293 0.0
C358 C 0.68924 0.71284 0.7917 0.0
C359 C 0.41113 0.8515 0.75628 0.0
C360 C 0.50531 0.80622 0.6644 0.0
C361 C 0.42727 0.76781 0.63829 0.0
C362 C 0.54547 0.8126 0.70893 0.0
C363 C 0.50825 0.7785 0.72747 0.0
C364 C 0.43177 0.73833 0.70135 0.0
C365 C 0.39114 0.73413 0.65686 0.0
C366 C 0.62624 0.85629 0.73595 0.0
C367 C 0.39195 0.70004 0.72009 0.0
H368 H 0.74223 0.72794 0.87339 0.0
H369 H 0.50365 0.84072 0.84387 0.0
H370 H 0.63726 0.67777 0.77181 0.0
H371 H 0.70524 0.73574 0.77074 0.0
H372 H 0.76142 0.69483 0.82032 0.0
H373 H 0.38938 0.87956 0.77305 0.0
H374 H 0.42602 0.87753 0.73614 0.0
H375 H 0.34576 0.82392 0.73346 0.0
H376 H 0.53198 0.83263 0.64964 0.0
H377 H 0.33077 0.70427 0.63646 0.0
H378 H 0.69741 0.83573 0.76303 0.0
H379 H 0.60175 0.88514 0.75122 0.0
H380 H 0.64288 0.8814 0.71598 0.0
H381 H 0.45532 0.68142 0.75172 0.0
H382 H 0.34514 0.66538 0.69723 0.0
H383 H 0.34425 0.72454 0.72662 0.0
C384 C 0.57545 0.19146 0.69553 0.0
C385 C 0.57184 0.24093 0.67433 0.0
C386 C 0.57754 0.19323 0.7334 0.0
C387 C 0.57712 0.24579 0.75088 0.0
C388 C 0.57612 0.29592 0.73025 0.0
C389 C 0.57284 0.29289 0.69209 0.0
C390 C 0.5776 0.13879 0.75406 0.0
C391 C 0.57696 0.35278 0.74813 0.0
C392 C 0.47406 0.25109 0.81906 0.0
C393 C 0.56316 0.25144 0.86225 0.0
C394 C 0.4777 0.24964 0.7827 0.0
C395 C 0.57285 0.24826 0.78945 0.0
C396 C 0.66324 0.2486 0.83291 0.0
C397 C 0.65731 0.25018 0.86876 0.0
C398 C 0.37939 0.24884 0.73699 0.0
C399 C 0.76622 0.2472 0.84156 0.0
H400 H 0.57385 0.15117 0.68175 0.0
H401 H 0.57142 0.33124 0.67617 0.0
H402 H 0.64314 0.13749 0.78925 0.0
H403 H 0.50776 0.13597 0.75263 0.0
H404 H 0.58125 0.10146 0.73736 0.0
H405 H 0.58103 0.38769 0.72959 0.0
H406 H 0.50729 0.35811 0.74658 0.0
H407 H 0.64268 0.35597 0.78319 0.0
H408 H 0.40092 0.2509 0.81359 0.0
H409 H 0.72658 0.25097 0.90193 0.0
H410 H 0.37415 0.20946 0.72005 0.0
H411 H 0.37732 0.28428 0.7173 0.0
H412 H 0.3118 0.25184 0.73732 0.0
H413 H 0.77407 0.20847 0.82744 0.0
H414 H 0.82925 0.24848 0.87722 0.0
H415 H 0.77414 0.28337 0.82516 0.0
C416 C 0.86383 0.72085 0.14849 0.0
C417 C 0.91265 0.75842 0.13798 0.0
C418 C 0.89667 0.71409 0.19192 0.0
C419 C 0.97795 0.74727 0.22514 0.0
C420 C 0.02816 0.78501 0.21465 0.0
C421 C 0.99567 0.78949 0.17101 0.0
C422 C 0.8442 0.67169 0.20211 0.0
C423 C 0.11336 0.82218 0.24914 0.0
C424 C 1.00317 0.77267 0.33052 0.0
C425 C 0.08882 0.74019 0.36008 0.0
C426 C 0.96453 0.77467 0.28596 0.0
C427 C 1.01149 0.74212 0.27103 0.0
C428 C 0.09397 0.70647 0.30047 0.0
C429 C 0.13277 0.70667 0.34491 0.0
C430 C 0.87752 0.81395 0.25553 0.0
C431 C 0.14366 0.66974 0.28541 0.0
H432 H 0.7999 0.69658 0.12263 0.0
H433 H 0.03218 0.81892 0.1624 0.0
H434 H 0.90091 0.64309 0.22881 0.0
H435 H 0.80422 0.69351 0.21386 0.0
H436 H 0.78797 0.64609 0.17295 0.0
H437 H 0.15014 0.84546 0.23638 0.0
H438 H 0.08299 0.85299 0.2608 0.0
H439 H 0.17192 0.79705 0.27803 0.0
H440 H 0.97024 0.79891 0.34266 0.0
H441 H 0.19886 0.68131 0.36805 0.0
H442 H 0.81538 0.79113 0.22612 0.0
H443 H 0.90392 0.84732 0.24382 0.0
H444 H 0.84635 0.83411 0.27187 0.0
H445 H 0.08542 0.64553 0.25582 0.0
H446 H 0.19895 0.63984 0.31136 0.0
H447 H 0.18431 0.69633 0.27617 0.0
C448 C 0.89299 0.27078 0.28813 0.0
C449 C 0.98394 0.28015 0.32983 0.0
C450 C 0.89014 0.27042 0.25007 0.0
C451 C 0.98078 0.27885 0.25366 0.0
C452 C 0.07326 0.28719 0.29567 0.0
C453 C 0.07363 0.28803 0.33314 0.0
C454 C 0.78975 0.26173 0.20594 0.0
C455 C 0.17171 0.29611 0.30098 0.0
C456 C 0.99186 0.23241 0.15963 0.0
C457 C 0.97768 0.28339 0.13784 0.0
C458 C 0.99272 0.23025 0.19721 0.0
C459 C 0.97862 0.2802 0.21342 0.0
C460 C 0.96351 0.3317 0.19143 0.0
C461 C 0.96356 0.3327 0.1541 0.0
C462 C 1.00921 0.17451 0.21973 0.0
C463 C 0.94827 0.38595 0.20761 0.0
H464 H 0.82364 0.26354 0.28518 0.0
H465 H 0.14411 0.2961 0.365 0.0
H466 H 0.77121 0.29912 0.1848 0.0
H467 H 0.7947 0.22526 0.18897 0.0
H468 H 0.72658 0.25449 0.20886 0.0
H469 H 0.23772 0.29972 0.33602 0.0
H470 H 0.1856 0.26076 0.28597 0.0
H471 H 0.16685 0.33497 0.28351 0.0
H472 H 1.00163 0.19397 0.14712 0.0
H473 H 0.95443 0.37248 0.1381 0.0
H474 H 0.94392 0.16494 0.22068 0.0
H475 H 0.07777 0.17659 0.25426 0.0
H476 H 0.0187 0.13947 0.20296 0.0
H477 H 0.88273 0.38206 0.20924 0.0
H478 H 0.93471 0.42221 0.18613 0.0
H479 H 0.01613 0.39495 0.24137 0.0
C480 C 0.89818 0.32538 0.64995 0.0
C481 C 0.93516 0.28441 0.63609 0.0
C482 C 0.93771 0.33061 0.69437 0.0
C483 C 1.01296 0.29233 0.72517 0.0
C484 C 0.05206 0.25152 0.71134 0.0
C485 C 1.01355 0.24865 0.66679 0.0
C486 C 0.89724 0.3762 0.70809 0.0
C487 C 0.1305 0.2091 0.74312 0.0
C488 C 0.17223 0.32278 0.84715 0.0
C489 C 0.11946 0.29334 0.86013 0.0
C490 C 0.137 0.32403 0.80309 0.0
C491 C 0.04828 0.29384 0.77155 0.0
C492 C 0.99358 0.26477 0.78436 0.0
C493 C 0.02929 0.26553 0.8286 0.0
C494 C 0.1952 0.35722 0.79042 0.0
C495 C 0.89933 0.23141 0.75168 0.0
H496 H 0.8373 0.35295 0.62584 0.0
H497 H 0.04056 0.2165 0.6556 0.0
H498 H 0.85271 0.35722 0.71867 0.0
H499 H 0.96085 0.3998 0.73651 0.0
H500 H 0.84758 0.40628 0.68096 0.0
H501 H 0.15532 0.18138 0.72736 0.0
H502 H 0.19807 0.23062 0.77133 0.0
H503 H 0.09853 0.18261 0.75652 0.0
H504 H 0.24126 0.345 0.87155 0.0
H505 H 0.98899 0.2425 0.83881 0.0
H506 H 0.14322 0.3859 0.76263 0.0
H507 H 0.22911 0.32833 0.77924 0.0
H508 H 0.25714 0.38246 0.81822 0.0
H509 H 0.84049 0.25919 0.72501 0.0
H510 H 0.86671 0.21047 0.76718 0.0
H511 H 0.91751 0.1989 0.73618 0.0
C512 C 0.07507 0.77712 0.69377 0.0
C513 C 0.05998 0.72633 0.67183 0.0
C514 C 0.07989 0.77884 0.73233 0.0
C515 C 0.06863 0.7286 0.74932 0.0
C516 C 0.05546 0.67704 0.7278 0.0
C517 C 0.05162 0.6765 0.68945 0.0
C518 C 0.09515 0.83461 0.75445 0.0
C519 C 0.0428 0.62255 0.74466 0.0
C520 C 0.14965 0.72557 0.86744 0.0
C521 C 0.05666 0.73335 0.86136 0.0
C522 C 0.15497 0.72407 0.83141 0.0
C523 C 0.06517 0.7304 0.78815 0.0
C524 C 0.97126 0.73835 0.78182 0.0
C525 C 0.9682 0.7396 0.81835 0.0
C526 C 0.25671 0.71566 0.83967 0.0
C527 C 0.87356 0.74519 0.73635 0.0
H528 H 0.08327 0.81566 0.68075 0.0
H529 H 0.03925 0.63715 0.67254 0.0
H530 H 0.02751 0.84484 0.75354 0.0
H531 H 0.1611 0.83228 0.78953 0.0
H532 H 0.10789 0.86936 0.73847 0.0
H533 H 0.03799 0.58573 0.72542 0.0
H534 H 0.10735 0.61618 0.77962 0.0
H535 H 0.9727 0.62428 0.74309 0.0
H536 H 0.21871 0.72133 0.90045 0.0
H537 H 0.89579 0.74471 0.81308 0.0
H538 H 0.27207 0.75059 0.8248 0.0
H539 H 0.25594 0.67629 0.82375 0.0
H540 H 0.31983 0.71332 0.87528 0.0
H541 H 0.87977 0.78113 0.71926 0.0
H542 H 0.80718 0.75239 0.73706 0.0
H543 H 0.85923 0.70707 0.71656 0.0
loop_
_geom_bond_atom_site_label_1
_geom_bond_atom_site_label_2
_geom_bond_distance
_geom_bond_site_symmetry_2
_ccdc_geom_bond_type
Ho0 C3 2.811 1_556 S
Ho0 O20 2.322 1_556 S
Ho0 O22 2.378 1_556 S
Ho0 O23 2.524 1_556 S
Ho0 O24 2.381 1_556 S
Ho0 O25 2.669 . S
Ho0 O27 2.346 . S
Ho0 O31 2.305 1_556 S
Ho1 C12 2.811 1_554 S
Ho1 O21 2.346 . S
Ho1 O25 2.305 1_554 S
Ho1 O26 2.322 1_554 S
Ho1 O28 2.378 1_554 S
Ho1 O29 2.524 1_554 S
Ho1 O30 2.381 1_554 S
Ho1 O31 2.669 . S
C2 O20 1.259 . S
C2 O21 1.268 . S
C3 Ho0 2.811 1_554 S
C3 C4 1.488 . S
C3 O22 1.215 . S
C3 O23 1.289 . S
C4 C3 1.488 . S
C4 C5 1.348 . S
C4 C9 1.413 . S
C5 C4 1.348 . S
C5 C6 1.442 . S
C5 H32 0.930 . S
C6 C5 1.442 . S
C6 C7 1.381 . S
C6 H33 0.931 . S
C7 C6 1.381 . S
C7 C8 1.321 . S
C8 C7 1.321 . S
C8 C9 1.403 . S
C8 H34 0.934 . S
C9 C4 1.413 . S
C9 C8 1.403 . S
C9 H35 0.930 . S
C10 O24 1.275 . S
C10 O25 1.256 1_554 S
C11 O26 1.259 . S
C11 O27 1.268 . S
C12 Ho1 2.811 1_556 S
C12 C13 1.488 . S
C12 O28 1.215 . S
C12 O29 1.289 . S
C13 C12 1.488 . S
C13 C14 1.348 . S
C13 C18 1.413 . S
C14 C13 1.348 . S
C14 C15 1.442 . S
C14 H36 0.930 . S
C15 C14 1.442 . S
C15 C16 1.381 . S
C15 H37 0.931 . S
C16 C15 1.381 . S
C16 C17 1.321 . S
C17 C16 1.321 . S
C17 C18 1.403 . S
C17 H38 0.934 . S
C18 C13 1.413 . S
C18 C17 1.403 . S
C18 H39 0.930 . S
C19 O30 1.275 . S
C19 O31 1.256 1_556 S
O20 Ho0 2.322 1_554 S
O20 C2 1.259 . S
O21 Ho1 2.346 . S
O21 C2 1.268 . S
O22 Ho0 2.378 1_554 S
O22 C3 1.215 . S
O23 Ho0 2.524 1_554 S
O23 C3 1.289 . S
O24 Ho0 2.381 1_554 S
O24 C10 1.275 . S
O25 Ho0 2.669 . S
O25 Ho1 2.305 1_556 S
O25 C10 1.256 1_556 S
O26 Ho1 2.322 1_556 S
O26 C11 1.259 . S
O27 Ho0 2.346 . S
O27 C11 1.268 . S
O28 Ho1 2.378 1_556 S
O28 C12 1.215 . S
O29 Ho1 2.524 1_556 S
O29 C12 1.289 . S
O30 Ho1 2.381 1_556 S
O30 C19 1.275 . S
O31 Ho0 2.305 1_554 S
O31 Ho1 2.669 . S
O31 C19 1.256 1_554 S
H32 C5 0.930 . S
H33 C6 0.931 . S
H34 C8 0.934 . S
H35 C9 0.930 . S
H36 C14 0.930 . S
H37 C15 0.931 . S
H38 C17 0.934 . S
H39 C18 0.930 . S
Ho40 C43 2.811 1_556 S
Ho40 O60 2.322 1_556 S
Ho40 O62 2.378 1_556 S
Ho40 O63 2.524 1_556 S
Ho40 O64 2.381 1_556 S
Ho40 O65 2.669 . S
Ho40 O67 2.346 . S
Ho40 O71 2.305 1_556 S
Ho41 C52 2.811 1_554 S
Ho41 O61 2.346 . S
Ho41 O65 2.305 1_554 S
Ho41 O66 2.322 1_554 S
Ho41 O68 2.378 1_554 S
Ho41 O69 2.524 1_554 S
Ho41 O70 2.381 1_554 S
Ho41 O71 2.669 . S
C42 O60 1.259 . S
C42 O61 1.268 . S
C43 Ho40 2.811 1_554 S
C43 C44 1.488 . S
C43 O62 1.215 . S
C43 O63 1.289 . S
C44 C43 1.488 . S
C44 C45 1.348 . S
C44 C49 1.413 . S
C45 C44 1.348 . S
C45 C46 1.442 . S
C45 H72 0.930 . S
C46 C45 1.442 . S
C46 C47 1.381 . S
C46 H73 0.931 . S
C47 C46 1.381 . S
C47 C48 1.321 . S
C48 C47 1.321 . S
C48 C49 1.403 . S
C48 H74 0.934 . S
C49 C44 1.413 . S
C49 C48 1.403 . S
C49 H75 0.930 . S
C50 O64 1.275 . S
C50 O65 1.256 1_554 S
C51 O66 1.259 . S
C51 O67 1.268 . S
C52 Ho41 2.811 1_556 S
C52 C53 1.488 . S
C52 O68 1.215 . S
C52 O69 1.289 . S
C53 C52 1.488 . S
C53 C54 1.348 . S
C53 C58 1.413 . S
C54 C53 1.348 . S
C54 C55 1.442 . S
C54 H76 0.930 . S
C55 C54 1.442 . S
C55 C56 1.381 . S
C55 H77 0.931 . S
C56 C55 1.381 . S
C56 C57 1.321 . S
C57 C56 1.321 . S
C57 C58 1.403 . S
C57 H78 0.934 . S
C58 C53 1.413 . S
C58 C57 1.403 . S
C58 H79 0.930 . S
C59 O70 1.275 . S
C59 O71 1.256 1_556 S
O60 Ho40 2.322 1_554 S
O60 C42 1.259 . S
O61 Ho41 2.346 . S
O61 C42 1.268 . S
O62 Ho40 2.378 1_554 S
O62 C43 1.215 . S
O63 Ho40 2.524 1_554 S
O63 C43 1.289 . S
O64 Ho40 2.381 1_554 S
O64 C50 1.275 . S
O65 Ho40 2.669 . S
O65 Ho41 2.305 1_556 S
O65 C50 1.256 1_556 S
O66 Ho41 2.322 1_556 S
O66 C51 1.259 . S
O67 Ho40 2.346 . S
O67 C51 1.268 . S
O68 Ho41 2.378 1_556 S
O68 C52 1.215 . S
O69 Ho41 2.524 1_556 S
O69 C52 1.289 . S
O70 Ho41 2.381 1_556 S
O70 C59 1.275 . S
O71 Ho40 2.305 1_554 S
O71 Ho41 2.669 . S
O71 C59 1.256 1_554 S
H72 C45 0.930 . S
H73 C46 0.931 . S
H74 C48 0.934 . S
H75 C49 0.930 . S
H76 C54 0.930 . S
H77 C55 0.931 . S
H78 C57 0.934 . S
H79 C58 0.930 . S
Ho80 C83 2.811 . S
Ho80 O100 2.322 . S
Ho80 O102 2.378 . S
Ho80 O103 2.524 . S
Ho80 O104 2.381 . S
Ho80 O105 2.669 . S
Ho80 O107 2.346 . S
Ho80 O111 2.305 . S
Ho81 C92 2.811 . S
Ho81 O101 2.346 . S
Ho81 O105 2.305 . S
Ho81 O106 2.322 . S
Ho81 O108 2.378 . S
Ho81 O109 2.524 . S
Ho81 O110 2.381 . S
Ho81 O111 2.669 . S
C82 O100 1.259 . S
C82 O101 1.268 . S
C83 Ho80 2.811 . S
C83 C84 1.488 . S
C83 O102 1.215 . S
C83 O103 1.289 . S
C84 C83 1.488 . S
C84 C85 1.348 . S
C84 C89 1.413 . S
C85 C84 1.348 . S
C85 C86 1.442 . S
C85 H112 0.930 . S
C86 C85 1.442 . S
C86 C87 1.381 . S
C86 H113 0.931 . S
C87 C86 1.381 . S
C87 C88 1.321 . S
C88 C87 1.321 . S
C88 C89 1.403 . S
C88 H114 0.934 . S
C89 C84 1.413 . S
C89 C88 1.403 . S
C89 H115 0.930 . S
C90 O104 1.275 . S
C90 O105 1.256 . S
C91 O106 1.259 . S
C91 O107 1.268 . S
C92 Ho81 2.811 . S
C92 C93 1.488 . S
C92 O108 1.215 . S
C92 O109 1.289 . S
C93 C92 1.488 . S
C93 C94 1.348 . S
C93 C98 1.413 . S
C94 C93 1.348 . S
C94 C95 1.442 . S
C94 H116 0.930 . S
C95 C94 1.442 . S
C95 C96 1.381 . S
C95 H117 0.931 . S
C96 C95 1.381 . S
C96 C97 1.321 . S
C97 C96 1.321 . S
C97 C98 1.403 . S
C97 H118 0.934 . S
C98 C93 1.413 . S
C98 C97 1.403 . S
C98 H119 0.930 . S
C99 O110 1.275 . S
C99 O111 1.256 . S
O100 Ho80 2.322 . S
O100 C82 1.259 . S
O101 Ho81 2.346 . S
O101 C82 1.268 . S
O102 Ho80 2.378 . S
O102 C83 1.215 . S
O103 Ho80 2.524 . S
O103 C83 1.289 . S
O104 Ho80 2.381 . S
O104 C90 1.275 . S
O105 Ho80 2.669 . S
O105 Ho81 2.305 . S
O105 C90 1.256 . S
O106 Ho81 2.322 . S
O106 C91 1.259 . S
O107 Ho80 2.346 . S
O107 C91 1.268 . S
O108 Ho81 2.378 . S
O108 C92 1.215 . S
O109 Ho81 2.524 . S
O109 C92 1.289 . S
O110 Ho81 2.381 . S
O110 C99 1.275 . S
O111 Ho80 2.305 . S
O111 Ho81 2.669 . S
O111 C99 1.256 . S
H112 C85 0.930 . S
H113 C86 0.931 . S
H114 C88 0.934 . S
H115 C89 0.930 . S
H116 C94 0.930 . S
H117 C95 0.931 . S
H118 C97 0.934 . S
H119 C98 0.930 . S
Ho120 C123 2.811 . S
Ho120 O140 2.322 . S
Ho120 O142 2.378 . S
Ho120 O143 2.524 . S
Ho120 O144 2.381 . S
Ho120 O145 2.669 . S
Ho120 O147 2.346 . S
Ho120 O151 2.305 . S
Ho121 C132 2.811 . S
Ho121 O141 2.346 . S
Ho121 O145 2.305 . S
Ho121 O146 2.322 . S
Ho121 O148 2.378 . S
Ho121 O149 2.524 . S
Ho121 O150 2.381 . S
Ho121 O151 2.669 . S
C122 O140 1.259 . S
C122 O141 1.268 . S
C123 Ho120 2.811 . S
C123 C124 1.488 . S
C123 O142 1.215 . S
C123 O143 1.289 . S
C124 C123 1.488 . S
C124 C125 1.348 . S
C124 C129 1.413 . S
C125 C124 1.348 . S
C125 C126 1.442 . S
C125 H152 0.930 . S
C126 C125 1.442 . S
C126 C127 1.381 . S
C126 H153 0.931 . S
C127 C126 1.381 . S
C127 C128 1.321 . S
C128 C127 1.321 . S
C128 C129 1.403 . S
C128 H154 0.934 . S
C129 C124 1.413 . S
C129 C128 1.403 . S
C129 H155 0.930 . S
C130 O144 1.275 . S
C130 O145 1.256 . S
C131 O146 1.259 . S
C131 O147 1.268 . S
C132 Ho121 2.811 . S
C132 C133 1.488 . S
C132 O148 1.215 . S
C132 O149 1.289 . S
C133 C132 1.488 . S
C133 C134 1.348 . S
C133 C138 1.413 . S
C134 C133 1.348 . S
C134 C135 1.442 . S
C134 H156 0.930 . S
C135 C134 1.442 . S
C135 C136 1.381 . S
C135 H157 0.931 . S
C136 C135 1.381 . S
C136 C137 1.321 . S
C137 C136 1.321 . S
C137 C138 1.403 . S
C137 H158 0.934 . S
C138 C133 1.413 . S
C138 C137 1.403 . S
C138 H159 0.930 . S
C139 O150 1.275 . S
C139 O151 1.256 . S
O140 Ho120 2.322 . S
O140 C122 1.259 . S
O141 Ho121 2.346 . S
O141 C122 1.268 . S
O142 Ho120 2.378 . S
O142 C123 1.215 . S
O143 Ho120 2.524 . S
O143 C123 1.289 . S
O144 Ho120 2.381 . S
O144 C130 1.275 . S
O145 Ho120 2.669 . S
O145 Ho121 2.305 . S
O145 C130 1.256 . S
O146 Ho121 2.322 . S
O146 C131 1.259 . S
O147 Ho120 2.346 . S
O147 C131 1.268 . S
O148 Ho121 2.378 . S
O148 C132 1.215 . S
O149 Ho121 2.524 . S
O149 C132 1.289 . S
O150 Ho121 2.381 . S
O150 C139 1.275 . S
O151 Ho120 2.305 . S
O151 Ho121 2.669 . S
O151 C139 1.256 . S
H152 C125 0.930 . S
H153 C126 0.931 . S
H154 C128 0.934 . S
H155 C129 0.930 . S
H156 C134 0.930 . S
H157 C135 0.931 . S
H158 C137 0.934 . S
H159 C138 0.930 . S
C160 C161 1.391 1_554 S
C160 C162 1.394 . S
C160 H176 0.931 . S
C161 C160 1.391 1_556 S
C161 C165 1.376 . S
C162 C160 1.394 . S
C162 C163 1.369 1_554 S
C162 C166 1.531 . S
C163 C162 1.369 1_556 S
C163 C164 1.410 . S
C163 C171 1.494 1_556 S
C164 C163 1.410 . S
C164 C165 1.392 . S
C164 C167 1.511 . S
C165 C161 1.376 . S
C165 C164 1.392 . S
C165 H177 0.929 . S
C166 C162 1.531 . S
C166 H178 0.960 . S
C166 H179 0.962 . S
C166 H180 0.960 . S
C167 C164 1.511 . S
C167 H181 0.961 . S
C167 H182 0.961 . S
C167 H183 0.961 . S
C168 C169 1.370 . S
C168 C170 1.363 . S
C168 H184 0.931 . S
C169 C168 1.370 . S
C169 C173 1.409 1_554 S
C170 C168 1.363 . S
C170 C171 1.367 . S
C170 C174 1.524 . S
C171 C163 1.494 1_554 S
C171 C170 1.367 . S
C171 C172 1.416 1_554 S
C172 C171 1.416 1_556 S
C172 C173 1.405 . S
C172 C175 1.539 . S
C173 C169 1.409 1_556 S
C173 C172 1.405 . S
C173 H185 0.928 . S
C174 C170 1.524 . S
C174 H186 0.956 . S
C174 H187 0.961 1_554 S
C174 H188 0.961 . S
C175 C172 1.539 . S
C175 H189 0.958 1_556 S
C175 H190 0.961 . S
C175 H191 0.960 . S
H176 C160 0.931 . S
H177 C165 0.929 . S
H178 C166 0.960 . S
H179 C166 0.962 . S
H180 C166 0.960 . S
H181 C167 0.961 . S
H182 C167 0.961 . S
H183 C167 0.961 . S
H184 C168 0.931 . S
H185 C173 0.928 . S
H186 C174 0.956 . S
H187 C174 0.961 1_556 S
H188 C174 0.961 . S
H189 C175 0.958 1_554 S
H190 C175 0.961 . S
H191 C175 0.960 . S
C192 C193 1.391 . S
C192 C194 1.394 . S
C192 H208 0.931 . S
C193 C192 1.391 . S
C193 C197 1.376 . S
C194 C192 1.394 . S
C194 C195 1.369 . S
C194 C198 1.531 . S
C195 C194 1.369 . S
C195 C196 1.410 . S
C195 C203 1.503 . S
C196 C195 1.410 . S
C196 C197 1.392 . S
C196 C199 1.511 . S
C197 C193 1.376 . S
C197 C196 1.392 . S
C197 H209 0.929 . S
C198 C194 1.531 . S
C198 H210 0.960 . S
C198 H211 0.962 . S
C198 H212 0.960 . S
C199 C196 1.511 . S
C199 H213 0.961 . S
C199 H214 0.961 . S
C199 H215 0.961 . S
C200 C201 1.370 . S
C200 C202 1.363 . S
C200 H216 0.931 . S
C201 C200 1.370 . S
C201 C205 1.408 . S
C202 C200 1.363 . S
C202 C203 1.370 . S
C202 C206 1.524 . S
C203 C195 1.503 . S
C203 C202 1.370 . S
C203 C204 1.403 . S
C204 C203 1.403 . S
C204 C205 1.404 . S
C204 C207 1.539 . S
C205 C201 1.408 . S
C205 C204 1.404 . S
C205 H217 0.930 . S
C206 C202 1.524 . S
C206 H218 0.956 . S
C206 H219 0.961 . S
C206 H220 0.961 . S
C207 C204 1.539 . S
C207 H221 0.958 . S
C207 H222 0.961 . S
C207 H223 0.960 . S
H208 C192 0.931 . S
H209 C197 0.929 . S
H210 C198 0.960 . S
H211 C198 0.962 . S
H212 C198 0.960 . S
H213 C199 0.961 . S
H214 C199 0.961 . S
H215 C199 0.961 . S
H216 C200 0.931 . S
H217 C205 0.930 . S
H218 C206 0.956 . S
H219 C206 0.961 . S
H220 C206 0.961 . S
H221 C207 0.958 . S
H222 C207 0.961 . S
H223 C207 0.960 . S
C224 C225 1.391 . S
C224 C226 1.394 . S
C224 H240 0.931 . S
C225 C224 1.391 . S
C225 C229 1.376 1_556 S
C226 C224 1.394 . S
C226 C227 1.369 . S
C226 C230 1.531 1_455 S
C227 C226 1.369 . S
C227 C228 1.410 1_556 S
C227 C235 1.492 1_446 S
C228 C227 1.410 1_554 S
C228 C229 1.392 . S
C228 C231 1.511 . S
C229 C225 1.376 1_554 S
C229 C228 1.392 . S
C229 H241 0.929 . S
C230 C226 1.531 1_655 S
C230 H242 0.960 1_545 S
C230 H243 0.962 . S
C230 H244 0.960 . S
C231 C228 1.511 . S
C231 H245 0.961 . S
C231 H246 0.954 1_545 S
C231 H247 0.961 1_545 S
C232 C233 1.370 . S
C232 C234 1.363 . S
C232 H248 0.931 . S
C233 C232 1.370 . S
C233 C237 1.408 . S
C234 C232 1.363 . S
C234 C235 1.386 . S
C234 C238 1.524 1_565 S
C235 C227 1.492 1_664 S
C235 C234 1.386 . S
C235 C236 1.401 1_655 S
C236 C235 1.401 1_455 S
C236 C237 1.412 1_455 S
C236 C239 1.529 . S
C237 C233 1.408 . S
C237 C236 1.412 1_655 S
C237 H249 0.930 . S
C238 C234 1.524 1_545 S
C238 H250 0.956 1_554 S
C238 H251 0.961 . S
C238 H252 0.961 . S
C239 C236 1.529 . S
C239 H253 0.958 1_554 S
C239 H254 0.961 . S
C239 H255 0.960 . S
H240 C224 0.931 . S
H241 C229 0.929 . S
H242 C230 0.960 1_565 S
H243 C230 0.962 . S
H244 C230 0.960 . S
H245 C231 0.961 . S
H246 C231 0.954 1_565 S
H247 C231 0.961 1_565 S
H248 C232 0.931 . S
H249 C237 0.930 . S
H250 C238 0.956 1_556 S
H251 C238 0.961 . S
H252 C238 0.961 . S
H253 C239 0.958 1_556 S
H254 C239 0.961 . S
H255 C239 0.960 . S
C256 C257 1.391 . S
C256 C258 1.394 . S
C256 H272 0.931 . S
C257 C256 1.391 . S
C257 C261 1.376 . S
C258 C256 1.394 . S
C258 C259 1.369 . S
C258 C262 1.531 . S
C259 C258 1.369 . S
C259 C260 1.410 . S
C259 C267 1.503 1_645 S
C260 C259 1.410 . S
C260 C261 1.392 . S
C260 C263 1.511 1_645 S
C261 C257 1.376 . S
C261 C260 1.392 . S
C261 H273 0.929 . S
C262 C258 1.531 . S
C262 H274 0.960 1_655 S
C262 H275 0.962 . S
C262 H276 0.960 . S
C263 C260 1.511 1_465 S
C263 H277 0.961 1_455 S
C263 H278 0.961 . S
C263 H279 0.961 . S
C264 C265 1.370 . S
C264 C266 1.363 1_455 S
C264 H280 0.931 1_455 S
C265 C264 1.370 . S
C265 C269 1.408 . S
C266 C264 1.363 1_655 S
C266 C267 1.370 1_655 S
C266 C270 1.524 . S
C267 C259 1.503 1_465 S
C267 C266 1.370 1_455 S
C267 C268 1.403 . S
C268 C267 1.403 . S
C268 C269 1.404 . S
C268 C271 1.539 1_565 S
C269 C265 1.408 . S
C269 C268 1.404 . S
C269 H281 0.930 . S
C270 C266 1.524 . S
C270 H282 0.956 . S
C270 H283 0.961 . S
C270 H284 0.961 . S
C271 C268 1.539 1_545 S
C271 H285 0.958 . S
C271 H286 0.961 . S
C271 H287 0.960 . S
H272 C256 0.931 . S
H273 C261 0.929 . S
H274 C262 0.960 1_455 S
H275 C262 0.962 . S
H276 C262 0.960 . S
H277 C263 0.961 1_655 S
H278 C263 0.961 . S
H279 C263 0.961 . S
H280 C264 0.931 1_655 S
H281 C269 0.930 . S
H282 C270 0.956 . S
H283 C270 0.961 . S
H284 C270 0.961 . S
H285 C271 0.958 . S
H286 C271 0.961 . S
H287 C271 0.960 . S
C288 C289 1.391 . S
C288 C290 1.394 . S
C288 H304 0.931 . S
C289 C288 1.391 . S
C289 C293 1.376 . S
C290 C288 1.394 . S
C290 C291 1.369 . S
C290 C294 1.531 . S
C291 C290 1.369 . S
C291 C292 1.410 . S
C291 C299 1.503 . S
C292 C291 1.410 . S
C292 C293 1.392 . S
C292 C295 1.511 . S
C293 C289 1.376 . S
C293 C292 1.392 . S
C293 H305 0.929 . S
C294 C290 1.531 . S
C294 H306 0.960 . S
C294 H307 0.962 . S
C294 H308 0.960 . S
C295 C292 1.511 . S
C295 H309 0.961 . S
C295 H310 0.961 . S
C295 H311 0.961 . S
C296 C297 1.370 . S
C296 C298 1.363 . S
C296 H312 0.931 . S
C297 C296 1.370 . S
C297 C301 1.408 . S
C298 C296 1.363 . S
C298 C299 1.370 . S
C298 C302 1.524 . S
C299 C291 1.503 . S
C299 C298 1.370 . S
C299 C300 1.403 . S
C300 C299 1.403 . S
C300 C301 1.404 . S
C300 C303 1.539 . S
C301 C297 1.408 . S
C301 C300 1.404 . S
C301 H313 0.930 . S
C302 C298 1.524 . S
C302 H314 0.956 . S
C302 H315 0.961 . S
C302 H316 0.961 . S
C303 C300 1.539 . S
C303 H317 0.958 . S
C303 H318 0.961 . S
C303 H319 0.960 . S
H304 C288 0.931 . S
H305 C293 0.929 . S
H306 C294 0.960 . S
H307 C294 0.962 . S
H308 C294 0.960 . S
H309 C295 0.961 . S
H310 C295 0.961 . S
H311 C295 0.961 . S
H312 C296 0.931 . S
H313 C301 0.930 . S
H314 C302 0.956 . S
H315 C302 0.961 . S
H316 C302 0.961 . S
H317 C303 0.958 . S
H318 C303 0.961 . S
H319 C303 0.960 . S
C320 C321 1.391 . S
C320 C322 1.394 . S
C320 H336 0.931 . S
C321 C320 1.391 . S
C321 C325 1.376 . S
C322 C320 1.394 . S
C322 C323 1.369 . S
C322 C326 1.531 . S
C323 C322 1.369 . S
C323 C324 1.410 . S
C323 C331 1.503 . S
C324 C323 1.410 . S
C324 C325 1.392 . S
C324 C327 1.511 . S
C325 C321 1.376 . S
C325 C324 1.392 . S
C325 H337 0.929 . S
C326 C322 1.531 . S
C326 H338 0.960 . S
C326 H339 0.962 . S
C326 H340 0.960 . S
C327 C324 1.511 . S
C327 H341 0.961 . S
C327 H342 0.961 . S
C327 H343 0.961 . S
C328 C329 1.370 . S
C328 C330 1.363 . S
C328 H344 0.931 . S
C329 C328 1.370 . S
C329 C333 1.408 . S
C330 C328 1.363 . S
C330 C331 1.370 . S
C330 C334 1.524 . S
C331 C323 1.503 . S
C331 C330 1.370 . S
C331 C332 1.403 . S
C332 C331 1.403 . S
C332 C333 1.404 . S
C332 C335 1.539 . S
C333 C329 1.408 . S
C333 C332 1.404 . S
C333 H345 0.930 . S
C334 C330 1.524 . S
C334 H346 0.956 . S
C334 H347 0.961 . S
C334 H348 0.961 . S
C335 C332 1.539 . S
C335 H349 0.958 . S
C335 H350 0.961 . S
C335 H351 0.960 . S
H336 C320 0.931 . S
H337 C325 0.929 . S
H338 C326 0.960 . S
H339 C326 0.962 . S
H340 C326 0.960 . S
H341 C327 0.961 . S
H342 C327 0.961 . S
H343 C327 0.961 . S
H344 C328 0.931 . S
H345 C333 0.930 . S
H346 C334 0.956 . S
H347 C334 0.961 . S
H348 C334 0.961 . S
H349 C335 0.958 . S
H350 C335 0.961 . S
H351 C335 0.960 . S
C352 C353 1.391 . S
C352 C354 1.394 . S
C352 H368 0.931 . S
C353 C352 1.391 . S
C353 C357 1.376 . S
C354 C352 1.394 . S
C354 C355 1.369 . S
C354 C358 1.531 . S
C355 C354 1.369 . S
C355 C356 1.410 . S
C355 C363 1.503 . S
C356 C355 1.410 . S
C356 C357 1.392 . S
C356 C359 1.511 . S
C357 C353 1.376 . S
C357 C356 1.392 . S
C357 H369 0.929 . S
C358 C354 1.531 . S
C358 H370 0.960 . S
C358 H371 0.962 . S
C358 H372 0.960 . S
C359 C356 1.511 . S
C359 H373 0.961 . S
C359 H374 0.961 . S
C359 H375 0.961 . S
C360 C361 1.370 . S
C360 C362 1.363 . S
C360 H376 0.931 . S
C361 C360 1.370 . S
C361 C365 1.408 . S
C362 C360 1.363 . S
C362 C363 1.370 . S
C362 C366 1.524 . S
C363 C355 1.503 . S
C363 C362 1.370 . S
C363 C364 1.403 . S
C364 C363 1.403 . S
C364 C365 1.404 . S
C364 C367 1.539 . S
C365 C361 1.408 . S
C365 C364 1.404 . S
C365 H377 0.930 . S
C366 C362 1.524 . S
C366 H378 0.956 . S
C366 H379 0.961 . S
C366 H380 0.961 . S
C367 C364 1.539 . S
C367 H381 0.958 . S
C367 H382 0.961 . S
C367 H383 0.960 . S
H368 C352 0.931 . S
H369 C357 0.929 . S
H370 C358 0.960 . S
H371 C358 0.962 . S
H372 C358 0.960 . S
H373 C359 0.961 . S
H374 C359 0.961 . S
H375 C359 0.961 . S
H376 C360 0.931 . S
H377 C365 0.930 . S
H378 C366 0.956 . S
H379 C366 0.961 . S
H380 C366 0.961 . S
H381 C367 0.958 . S
H382 C367 0.961 . S
H383 C367 0.960 . S
C384 C385 1.391 . S
C384 C386 1.394 . S
C384 H400 0.931 . S
C385 C384 1.391 . S
C385 C389 1.376 . S
C386 C384 1.394 . S
C386 C387 1.369 . S
C386 C390 1.531 . S
C387 C386 1.369 . S
C387 C388 1.410 . S
C387 C395 1.503 . S
C388 C387 1.410 . S
C388 C389 1.392 . S
C388 C391 1.511 . S
C389 C385 1.376 . S
C389 C388 1.392 . S
C389 H401 0.929 . S
C390 C386 1.531 . S
C390 H402 0.960 . S
C390 H403 0.962 . S
C390 H404 0.960 . S
C391 C388 1.511 . S
C391 H405 0.961 . S
C391 H406 0.961 . S
C391 H407 0.961 . S
C392 C393 1.370 . S
C392 C394 1.363 . S
C392 H408 0.931 . S
C393 C392 1.370 . S
C393 C397 1.408 . S
C394 C392 1.363 . S
C394 C395 1.370 . S
C394 C398 1.524 . S
C395 C387 1.503 . S
C395 C394 1.370 . S
C395 C396 1.403 . S
C396 C395 1.403 . S
C396 C397 1.404 . S
C396 C399 1.539 . S
C397 C393 1.408 . S
C397 C396 1.404 . S
C397 H409 0.930 . S
C398 C394 1.524 . S
C398 H410 0.956 . S
C398 H411 0.961 . S
C398 H412 0.961 . S
C399 C396 1.539 . S
C399 H413 0.958 . S
C399 H414 0.961 . S
C399 H415 0.960 . S
H400 C384 0.931 . S
H401 C389 0.929 . S
H402 C390 0.960 . S
H403 C390 0.962 . S
H404 C390 0.960 . S
H405 C391 0.961 . S
H406 C391 0.961 . S
H407 C391 0.961 . S
H408 C392 0.931 . S
H409 C397 0.930 . S
H410 C398 0.956 . S
H411 C398 0.961 . S
H412 C398 0.961 . S
H413 C399 0.958 . S
H414 C399 0.961 . S
H415 C399 0.960 . S
C416 C417 1.391 . S
C416 C418 1.394 . S
C416 H432 0.931 . S
C417 C416 1.391 . S
C417 C421 1.376 1_655 S
C418 C416 1.394 . S
C418 C419 1.369 . S
C418 C422 1.531 . S
C419 C418 1.369 . S
C419 C420 1.410 1_655 S
C419 C427 1.503 1_655 S
C420 C419 1.410 1_455 S
C420 C421 1.392 . S
C420 C423 1.511 . S
C421 C417 1.376 1_455 S
C421 C420 1.392 . S
C421 H433 0.929 . S
C422 C418 1.531 . S
C422 H434 0.960 . S
C422 H435 0.962 . S
C422 H436 0.960 . S
C423 C420 1.511 . S
C423 H437 0.961 . S
C423 H438 0.961 . S
C423 H439 0.961 . S
C424 C425 1.370 . S
C424 C426 1.363 1_455 S
C424 H440 0.931 . S
C425 C424 1.370 . S
C425 C429 1.408 . S
C426 C424 1.363 1_655 S
C426 C427 1.370 1_655 S
C426 C430 1.524 . S
C427 C419 1.503 1_455 S
C427 C426 1.370 1_455 S
C427 C428 1.403 . S
C428 C427 1.403 . S
C428 C429 1.404 . S
C428 C431 1.539 . S
C429 C425 1.408 . S
C429 C428 1.404 . S
C429 H441 0.930 . S
C430 C426 1.524 . S
C430 H442 0.956 . S
C430 H443 0.961 . S
C430 H444 0.961 . S
C431 C428 1.539 . S
C431 H445 0.958 . S
C431 H446 0.961 . S
C431 H447 0.960 . S
H432 C416 0.931 . S
H433 C421 0.929 . S
H434 C422 0.960 . S
H435 C422 0.962 . S
H436 C422 0.960 . S
H437 C423 0.961 . S
H438 C423 0.961 . S
H439 C423 0.961 . S
H440 C424 0.931 . S
H441 C429 0.930 . S
H442 C430 0.956 . S
H443 C430 0.961 . S
H444 C430 0.961 . S
H445 C431 0.958 . S
H446 C431 0.961 . S
H447 C431 0.960 . S
C448 C449 1.391 . S
C448 C450 1.394 . S
C448 H464 0.931 . S
C449 C448 1.391 . S
C449 C453 1.376 1_655 S
C450 C448 1.394 . S
C450 C451 1.369 1_655 S
C450 C454 1.531 . S
C451 C450 1.369 1_455 S
C451 C452 1.410 . S
C451 C459 1.503 . S
C452 C451 1.410 . S
C452 C453 1.392 . S
C452 C455 1.511 . S
C453 C449 1.376 1_455 S
C453 C452 1.392 . S
C453 H465 0.929 . S
C454 C450 1.531 . S
C454 H466 0.960 . S
C454 H467 0.962 . S
C454 H468 0.960 . S
C455 C452 1.511 . S
C455 H469 0.961 . S
C455 H470 0.961 . S
C455 H471 0.961 . S
C456 C457 1.370 1_655 S
C456 C458 1.363 . S
C456 H472 0.931 . S
C457 C456 1.370 1_455 S
C457 C461 1.408 . S
C458 C456 1.363 . S
C458 C459 1.370 1_655 S
C458 C462 1.524 . S
C459 C451 1.503 . S
C459 C458 1.370 1_455 S
C459 C460 1.403 . S
C460 C459 1.403 . S
C460 C461 1.404 . S
C460 C463 1.539 . S
C461 C457 1.408 . S
C461 C460 1.404 . S
C461 H473 0.930 . S
C462 C458 1.524 . S
C462 H474 0.956 . S
C462 H475 0.961 . S
C462 H476 0.961 . S
C463 C460 1.539 . S
C463 H477 0.958 . S
C463 H478 0.961 . S
C463 H479 0.960 . S
H464 C448 0.931 . S
H465 C453 0.929 . S
H466 C454 0.960 . S
H467 C454 0.962 . S
H468 C454 0.960 . S
H469 C455 0.961 . S
H470 C455 0.961 . S
H471 C455 0.961 . S
H472 C456 0.931 . S
H473 C461 0.930 . S
H474 C462 0.956 . S
H475 C462 0.961 . S
H476 C462 0.961 . S
H477 C463 0.958 . S
H478 C463 0.961 . S
H479 C463 0.960 . S
C480 C481 1.391 . S
C480 C482 1.394 . S
C480 H496 0.931 . S
C481 C480 1.391 . S
C481 C485 1.376 . S
C482 C480 1.394 . S
C482 C483 1.369 . S
C482 C486 1.531 . S
C483 C482 1.369 . S
C483 C484 1.410 . S
C483 C491 1.503 1_655 S
C484 C483 1.410 . S
C484 C485 1.392 . S
C484 C487 1.511 . S
C485 C481 1.376 . S
C485 C484 1.392 . S
C485 H497 0.929 . S
C486 C482 1.531 . S
C486 H498 0.960 . S
C486 H499 0.962 . S
C486 H500 0.960 . S
C487 C484 1.511 . S
C487 H501 0.953 1_655 S
C487 H502 0.960 1_655 S
C487 H503 0.969 . S
C488 C489 1.370 . S
C488 C490 1.363 . S
C488 H504 0.931 . S
C489 C488 1.370 . S
C489 C493 1.408 1_455 S
C490 C488 1.363 . S
C490 C491 1.370 . S
C490 C494 1.524 . S
C491 C483 1.503 1_455 S
C491 C490 1.370 . S
C491 C492 1.403 1_455 S
C492 C491 1.403 1_655 S
C492 C493 1.404 . S
C492 C495 1.539 . S
C493 C489 1.408 1_655 S
C493 C492 1.404 . S
C493 H505 0.930 . S
C494 C490 1.524 . S
C494 H506 0.956 . S
C494 H507 0.961 . S
C494 H508 0.961 . S
C495 C492 1.539 . S
C495 H509 0.958 . S
C495 H510 0.961 . S
C495 H511 0.960 . S
H496 C480 0.931 . S
H497 C485 0.929 . S
H498 C486 0.960 . S
H499 C486 0.962 . S
H500 C486 0.960 . S
H501 C487 0.953 1_455 S
H502 C487 0.960 1_455 S
H503 C487 0.969 . S
H504 C488 0.931 . S
H505 C493 0.930 . S
H506 C494 0.956 . S
H507 C494 0.961 . S
H508 C494 0.961 . S
H509 C495 0.958 . S
H510 C495 0.961 . S
H511 C495 0.960 . S
C512 C513 1.391 . S
C512 C514 1.394 . S
C512 H528 0.931 . S
C513 C512 1.391 . S
C513 C517 1.376 1_455 S
C514 C512 1.394 . S
C514 C515 1.369 1_455 S
C514 C518 1.531 . S
C515 C514 1.369 1_655 S
C515 C516 1.410 . S
C515 C523 1.503 . S
C516 C515 1.410 . S
C516 C517 1.392 . S
C516 C519 1.511 . S
C517 C513 1.376 1_655 S
C517 C516 1.392 . S
C517 H529 0.929 . S
C518 C514 1.531 . S
C518 H530 0.960 1_455 S
C518 H531 0.962 . S
C518 H532 0.960 1_455 S
C519 C516 1.511 . S
C519 H533 0.961 . S
C519 H534 0.961 . S
C519 H535 0.961 . S
C520 C521 1.370 1_455 S
C520 C522 1.363 . S
C520 H536 0.931 . S
C521 C520 1.370 1_655 S
C521 C525 1.408 . S
C522 C520 1.363 . S
C522 C523 1.370 1_455 S
C522 C526 1.524 . S
C523 C515 1.503 . S
C523 C522 1.370 1_655 S
C523 C524 1.403 . S
C524 C523 1.403 . S
C524 C525 1.404 . S
C524 C527 1.539 . S
C525 C521 1.408 . S
C525 C524 1.404 . S
C525 H537 0.930 . S
C526 C522 1.524 . S
C526 H538 0.956 . S
C526 H539 0.961 . S
C526 H540 0.961 . S
C527 C524 1.539 . S
C527 H541 0.958 . S
C527 H542 0.961 . S
C527 H543 0.960 . S
H528 C512 0.931 . S
H529 C517 0.929 . S
H530 C518 0.960 1_655 S
H531 C518 0.962 . S
H532 C518 0.960 1_655 S
H533 C519 0.961 . S
H534 C519 0.961 . S
H535 C519 0.961 . S
H536 C520 0.931 . S
H537 C525 0.930 . S
H538 C526 0.956 . S
H539 C526 0.961 . S
H540 C526 0.961 . S
H541 C527 0.958 . S
H542 C527 0.961 . S
H543 C527 0.960 . S
C161 C59 1.585 . S
C169 C10 1.574 . S
C193 C99 1.570 . S
C201 C130 1.581 . S
C225 C19 1.565 . S
C233 C50 1.583 . S
C257 C139 1.585 . S
C265 C90 1.574 . S
C289 C122 1.687 . S
C297 C2 1.682 . S
C321 C47 0.984 . S
C329 C87 1.011 . S
C353 C51 1.669 . S
C361 C91 1.683 . S
C385 C136 1.000 . S
C393 C16 1.025 . S
C417 C42 1.691 . S
C425 C82 1.684 . S
C449 C127 1.035 . S
C457 C7 1.005 . S
C481 C131 1.676 . S
C489 C11 1.687 . S
C513 C96 1.026 . S
C521 C56 1.008 . S
