# Generated by pormake.
# Topology upb, (4)-cn, num edge types: 1
# Building blocks:
#     Node 0, Type 0, BuildingBlock: KUFVIS_clean_sbu_0, # of connection points: 4
#     Node 1, Type 0, BuildingBlock: KUFVIS_clean_sbu_0, # of connection points: 4
#     Node 2, Type 0, BuildingBlock: KUFVIS_clean_sbu_0, # of connection points: 4
#     Node 3, Type 0, BuildingBlock: KUFVIS_clean_sbu_0, # of connection points: 4
#     Node 4, Type 0, BuildingBlock: KUFVIS_clean_sbu_0, # of connection points: 4
#     Node 5, Type 0, BuildingBlock: KUFVIS_clean_sbu_0, # of connection points: 4
#     Node 6, Type 0, BuildingBlock: KUFVIS_clean_sbu_0, # of connection points: 4
#     Node 7, Type 0, BuildingBlock: KUFVIS_clean_sbu_0, # of connection points: 4
#     Node 8, Type 0, BuildingBlock: KUFVIS_clean_sbu_0, # of connection points: 4
#     Node 9, Type 0, BuildingBlock: KUFVIS_clean_sbu_0, # of connection points: 4
#     Node 10, Type 0, BuildingBlock: KUFVIS_clean_sbu_0, # of connection points: 4
#     Node 11, Type 0, BuildingBlock: KUFVIS_clean_sbu_0, # of connection points: 4
#     Node 12, Type 0, BuildingBlock: KUFVIS_clean_sbu_0, # of connection points: 4
#     Node 13, Type 0, BuildingBlock: KUFVIS_clean_sbu_0, # of connection points: 4
#     Node 14, Type 0, BuildingBlock: KUFVIS_clean_sbu_0, # of connection points: 4
#     Node 15, Type 0, BuildingBlock: KUFVIS_clean_sbu_0, # of connection points: 4
#     Edge 16, Type (0, 0), BuildingBlock: OJICUG_clean_linker_0, # of connection points: 2
#     Edge 17, Type (0, 0), BuildingBlock: OJICUG_clean_linker_0, # of connection points: 2
#     Edge 18, Type (0, 0), BuildingBlock: OJICUG_clean_linker_0, # of connection points: 2
#     Edge 19, Type (0, 0), BuildingBlock: OJICUG_clean_linker_0, # of connection points: 2
#     Edge 20, Type (0, 0), BuildingBlock: OJICUG_clean_linker_0, # of connection points: 2
#     Edge 21, Type (0, 0), BuildingBlock: OJICUG_clean_linker_0, # of connection points: 2
#     Edge 22, Type (0, 0), BuildingBlock: OJICUG_clean_linker_0, # of connection points: 2
#     Edge 23, Type (0, 0), BuildingBlock: OJICUG_clean_linker_0, # of connection points: 2
#     Edge 24, Type (0, 0), BuildingBlock: OJICUG_clean_linker_0, # of connection points: 2
#     Edge 25, Type (0, 0), BuildingBlock: OJICUG_clean_linker_0, # of connection points: 2
#     Edge 26, Type (0, 0), BuildingBlock: OJICUG_clean_linker_0, # of connection points: 2
#     Edge 27, Type (0, 0), BuildingBlock: OJICUG_clean_linker_0, # of connection points: 2
#     Edge 28, Type (0, 0), BuildingBlock: OJICUG_clean_linker_0, # of connection points: 2
#     Edge 29, Type (0, 0), BuildingBlock: OJICUG_clean_linker_0, # of connection points: 2
#     Edge 30, Type (0, 0), BuildingBlock: OJICUG_clean_linker_0, # of connection points: 2
#     Edge 31, Type (0, 0), BuildingBlock: OJICUG_clean_linker_0, # of connection points: 2
#     Edge 32, Type (0, 0), BuildingBlock: OJICUG_clean_linker_0, # of connection points: 2
#     Edge 33, Type (0, 0), BuildingBlock: OJICUG_clean_linker_0, # of connection points: 2
#     Edge 34, Type (0, 0), BuildingBlock: OJICUG_clean_linker_0, # of connection points: 2
#     Edge 35, Type (0, 0), BuildingBlock: OJICUG_clean_linker_0, # of connection points: 2
#     Edge 36, Type (0, 0), BuildingBlock: OJICUG_clean_linker_0, # of connection points: 2
#     Edge 37, Type (0, 0), BuildingBlock: OJICUG_clean_linker_0, # of connection points: 2
#     Edge 38, Type (0, 0), BuildingBlock: OJICUG_clean_linker_0, # of connection points: 2
#     Edge 39, Type (0, 0), BuildingBlock: OJICUG_clean_linker_0, # of connection points: 2
#     Edge 40, Type (0, 0), BuildingBlock: OJICUG_clean_linker_0, # of connection points: 2
#     Edge 41, Type (0, 0), BuildingBlock: OJICUG_clean_linker_0, # of connection points: 2
#     Edge 42, Type (0, 0), BuildingBlock: OJICUG_clean_linker_0, # of connection points: 2
#     Edge 43, Type (0, 0), BuildingBlock: OJICUG_clean_linker_0, # of connection points: 2
#     Edge 44, Type (0, 0), BuildingBlock: OJICUG_clean_linker_0, # of connection points: 2
#     Edge 45, Type (0, 0), BuildingBlock: OJICUG_clean_linker_0, # of connection points: 2
#     Edge 46, Type (0, 0), BuildingBlock: OJICUG_clean_linker_0, # of connection points: 2
#     Edge 47, Type (0, 0), BuildingBlock: OJICUG_clean_linker_0, # of connection points: 2
# Relax obj value: 0.211
# Max RMSD: 0.084
# Mean RMSD: 0.084
data_MOF--net-upb--node1-KUFVIS_clean_sbu_0--edge1-OJICUG_clean_linker_0
_symmetry_space_group_name_H-M    P1
_symmetry_Int_Tables_number       1
_symmetry_cell_setting            triclinic
loop_
_symmetry_equiv_pos_as_xyz
'x, y, z'
_cell_length_a     32.984656
_cell_length_b     33.025474
_cell_length_c     23.759734
_cell_angle_alpha  90.000525
_cell_angle_beta   90.002181
_cell_angle_gamma 90.020609
loop_
_atom_site_label
_atom_site_type_symbol
_atom_site_fract_x
_atom_site_fract_y
_atom_site_fract_z
_atom_type_partial_charge
Mn0 Mn 0.03345 0.21122 0.29545 0.0
Mn1 Mn 0.10702 0.20339 0.3927 0.0
C2 C 0.02454 0.23855 0.38469 0.0
C3 C 0.97675 0.18029 0.25598 0.0
C4 C 0.10841 0.26557 0.29957 0.0
O5 O 0.07064 0.16836 0.2614 0.0
O6 O 0.11657 0.16375 0.33117 0.0
C7 C 0.06971 0.12736 0.42908 0.0
N8 N 0.08937 0.16218 0.44311 0.0
C9 C 0.07178 0.15407 0.54069 0.0
C10 C 0.05185 0.11785 0.5274 0.0
C11 C 0.04956 0.10522 0.47103 0.0
C12 C 0.08834 0.1766 0.49636 0.0
H13 H 0.06747 0.11792 0.38566 0.0
C14 C 0.1025 0.15317 0.2832 0.0
O15 O -0.00427 0.20873 0.22871 0.0
O16 O 0.99088 0.17009 0.30455 0.0
N17 N 0.10292 0.23905 0.45587 0.0
C18 C 0.10836 0.2799 0.45792 0.0
C19 C 0.10668 0.2999 0.51001 0.0
C20 C 0.09916 0.27775 0.55936 0.0
C21 C 0.09324 0.23578 0.55612 0.0
C22 C 0.09654 0.21728 0.50326 0.0
H23 H 0.11351 0.29713 0.42006 0.0
O24 O 0.00155 0.25027 0.34364 0.0
O25 O 0.05098 0.21118 0.3717 0.0
O26 O 0.07475 0.25555 0.27626 0.0
O27 O 0.12388 0.24755 0.34225 0.0
C28 C 0.08216 0.21193 0.60278 0.0
C29 C 0.07111 0.17108 0.59494 0.0
H30 H 0.03665 0.10041 0.55976 0.0
H31 H 0.03281 0.07815 0.4601 0.0
H32 H 0.11074 0.33239 0.51204 0.0
H33 H 0.09694 0.29341 0.5993 0.0
H34 H 0.07959 0.22539 0.64414 0.0
H35 H 0.06 0.15362 0.63018 0.0
Mn36 Mn 0.77146 0.03241 0.28863 0.0
Mn37 Mn 0.77424 0.1063 0.38581 0.0
C38 C 0.74247 0.02273 0.37688 0.0
C39 C 0.80556 0.9766 0.25169 0.0
C40 C 0.71493 0.1057 0.28896 0.0
O41 O 0.81416 0.07073 0.25679 0.0
O42 O 0.81526 0.11707 0.32628 0.0
C43 C 0.85087 0.07262 0.42663 0.0
N44 N 0.81475 0.09061 0.4385 0.0
C45 C 0.82113 0.07451 0.53678 0.0
C46 C 0.85862 0.05628 0.52573 0.0
C47 C 0.87272 0.05388 0.47004 0.0
C48 C 0.79899 0.08942 0.49101 0.0
H49 H 0.86155 0.07042 0.38376 0.0
C50 C 0.82777 0.10309 0.27912 0.0
O51 O 0.77725 -0.00565 0.22257 0.0
O52 O 0.81372 0.99135 0.30061 0.0
N53 N 0.73704 0.1008 0.44712 0.0
C54 C 0.69586 0.1036 0.4469 0.0
C55 C 0.67451 0.10123 0.49791 0.0
C56 C 0.69569 0.09555 0.54857 0.0
C57 C 0.73803 0.09192 0.54763 0.0
C58 C 0.75779 0.09577 0.4957 0.0
H59 H 0.67946 0.10693 0.40804 0.0
O60 O 0.7322 -0.00056 0.3354 0.0
O61 O 0.76901 0.05015 0.36464 0.0
O62 O 0.72652 0.0724 0.26617 0.0
O63 O 0.73094 0.1214 0.333 0.0
C64 C 0.76116 0.08255 0.59571 0.0
C65 C 0.80274 0.07355 0.59015 0.0
H66 H 0.87587 0.04221 0.55924 0.0
H67 H 0.9007 0.03811 0.46076 0.0
H68 H 0.64177 0.10326 0.49811 0.0
H69 H 0.67906 0.09278 0.58769 0.0
H70 H 0.74679 0.07976 0.63648 0.0
H71 H 0.81985 0.06382 0.62646 0.0
Mn72 Mn 0.95494 0.77288 0.29748 0.0
Mn73 Mn 0.88041 0.78078 0.39329 0.0
C74 C 0.96314 0.74612 0.38719 0.0
C75 C 0.0119 0.80385 0.25877 0.0
C76 C 0.88026 0.71817 0.30068 0.0
O77 O 0.91783 0.81538 0.26234 0.0
O78 O 0.87125 0.8201 0.33125 0.0
C79 C 0.91695 0.85717 0.42972 0.0
N80 N 0.89736 0.82229 0.44369 0.0
C81 C 0.91408 0.83089 0.54149 0.0
C82 C 0.93392 0.86716 0.52825 0.0
C83 C 0.93663 0.87957 0.47182 0.0
C84 C 0.89803 0.80809 0.49706 0.0
H85 H 0.9195 0.86645 0.38627 0.0
C86 C 0.8857 0.83053 0.28343 0.0
O87 O 0.99331 0.77518 0.23145 0.0
O88 O -0.00278 0.81428 0.30693 0.0
N89 N 0.88411 0.74541 0.45682 0.0
C90 C 0.87882 0.70454 0.45911 0.0
C91 C 0.88013 0.68476 0.51139 0.0
C92 C 0.88713 0.70715 0.56069 0.0
C93 C 0.89291 0.74913 0.5572 0.0
C94 C 0.88999 0.7674 0.50414 0.0
H95 H 0.87403 0.68714 0.42132 0.0
O96 O 0.98659 0.73428 0.34671 0.0
O97 O 0.93667 0.77323 0.37337 0.0
O98 O 0.91409 0.72824 0.27795 0.0
O99 O 0.86426 0.73632 0.34289 0.0
C100 C 0.90347 0.77322 0.60386 0.0
C101 C 0.9144 0.81409 0.59589 0.0
H102 H 0.94876 0.88481 0.56071 0.0
H103 H 0.95334 0.90668 0.46096 0.0
H104 H 0.87617 0.65227 0.51362 0.0
H105 H 0.88907 0.69167 0.60078 0.0
H106 H 0.90574 0.75995 0.64538 0.0
H107 H 0.92514 0.83173 0.63117 0.0
Mn108 Mn 0.21735 0.95162 0.29192 0.0
Mn109 Mn 0.21459 0.87813 0.38969 0.0
C110 C 0.24593 0.96185 0.38033 0.0
C111 C 0.18311 0.00706 0.25417 0.0
C112 C 0.27397 0.87847 0.29291 0.0
O113 O 0.17492 0.91296 0.26024 0.0
O114 O 0.17344 0.8671 0.33037 0.0
C115 C 0.13794 0.91166 0.43066 0.0
N116 N 0.17419 0.89393 0.44247 0.0
C117 C 0.16802 0.91041 0.54065 0.0
C118 C 0.13036 0.92831 0.52968 0.0
C119 C 0.11615 0.9305 0.47404 0.0
C120 C 0.19012 0.89544 0.49488 0.0
H121 H 0.12714 0.91366 0.38783 0.0
C122 C 0.16111 0.88081 0.28296 0.0
O123 O 0.21161 0.9893 0.22544 0.0
O124 O 0.17487 0.99254 0.3032 0.0
N125 N 0.25196 0.88402 0.45075 0.0
C126 C 0.29315 0.88137 0.45031 0.0
C127 C 0.31465 0.88411 0.50117 0.0
C128 C 0.29361 0.89004 0.55188 0.0
C129 C 0.25126 0.89352 0.55116 0.0
C130 C 0.23135 0.8893 0.49939 0.0
H131 H 0.30945 0.87782 0.41139 0.0
O132 O 0.25626 0.985 0.33871 0.0
O133 O 0.21963 0.93421 0.36806 0.0
O134 O 0.26252 0.91177 0.27004 0.0
O135 O 0.2578 0.86283 0.33685 0.0
C136 C 0.22824 0.90306 0.59929 0.0
C137 C 0.1866 0.91182 0.59388 0.0
H138 H 0.11314 0.94245 0.56316 0.0
H139 H 0.08818 0.94626 0.46474 0.0
H140 H 0.3474 0.88219 0.50119 0.0
H141 H 0.31036 0.89308 0.59087 0.0
H142 H 0.24272 0.90615 0.63996 0.0
H143 H 0.1696 0.92174 0.63018 0.0
Mn144 Mn 0.02949 0.77426 0.70322 0.0
Mn145 Mn 0.10323 0.77646 0.60571 0.0
C146 C 0.01934 0.74563 0.61491 0.0
C147 C 0.97382 0.80849 0.74034 0.0
C148 C 0.10206 0.71671 0.70177 0.0
O149 O 0.06839 0.81636 0.73537 0.0
O150 O 0.11498 0.81635 0.66617 0.0
C151 C 0.0703 0.85401 0.56728 0.0
N152 N 0.08782 0.81788 0.55426 0.0
C153 C 0.07114 0.82576 0.45638 0.0
C154 C 0.05331 0.86323 0.46862 0.0
C155 C 0.05163 0.87673 0.52465 0.0
C156 C 0.0861 0.80287 0.50137 0.0
H157 H 0.06856 0.86416 0.61043 0.0
C158 C 0.10131 0.82899 0.7134 0.0
O159 O 0.99146 0.78006 0.76932 0.0
O160 O 0.9887 0.81681 0.69154 0.0
N161 N 0.09705 0.74026 0.54345 0.0
C162 C 0.09988 0.69915 0.54244 0.0
C163 C 0.09719 0.67859 0.49084 0.0
C164 C 0.09129 0.70052 0.44087 0.0
C165 C 0.08787 0.74279 0.44306 0.0
C166 C 0.09201 0.76173 0.49551 0.0
H167 H 0.10362 0.6822 0.58075 0.0
O168 O -0.00398 0.73547 0.65642 0.0
O169 O 0.04704 0.77187 0.62713 0.0
O170 O 0.0692 0.72897 0.72521 0.0
O171 O 0.11774 0.73232 0.65743 0.0
C172 C 0.07854 0.76668 0.39571 0.0
C173 C 0.06987 0.80819 0.40249 0.0
H174 H 0.0393 0.8811 0.4357 0.0
H175 H 0.03655 0.9049 0.53477 0.0
H176 H 0.09919 0.6459 0.48967 0.0
H177 H 0.0883 0.6845 0.4013 0.0
H178 H 0.07551 0.75292 0.35459 0.0
H179 H 0.06024 0.82591 0.36671 0.0
Mn180 Mn 0.21563 0.03017 0.69594 0.0
Mn181 Mn 0.20752 0.1028 0.59758 0.0
C182 C 0.24321 0.02067 0.6069 0.0
C183 C 0.1844 0.97398 0.73611 0.0
C184 C 0.26945 0.10548 0.69102 0.0
O185 O 0.17248 0.06726 0.72925 0.0
O186 O 0.1679 0.11279 0.65911 0.0
C187 C 0.13141 0.06501 0.56206 0.0
N188 N 0.16619 0.08465 0.54766 0.0
C189 C 0.15772 0.06684 0.45027 0.0
C190 C 0.12154 0.04691 0.46391 0.0
C191 C 0.1091 0.04476 0.52038 0.0
C192 C 0.18043 0.08349 0.49433 0.0
H193 H 0.12212 0.06293 0.60556 0.0
C194 C 0.15729 0.09896 0.7072 0.0
O195 O 0.21279 -0.0069 0.76335 0.0
O196 O 0.17468 0.98746 0.68702 0.0
N197 N 0.24307 0.09829 0.53431 0.0
C198 C 0.28398 0.10351 0.53199 0.0
C199 C 0.30385 0.10159 0.4798 0.0
C200 C 0.28149 0.09404 0.43061 0.0
C201 C 0.23946 0.08824 0.43415 0.0
C202 C 0.22112 0.09172 0.4871 0.0
H203 H 0.30135 0.10859 0.56974 0.0
O204 O 0.25505 -0.00187 0.64837 0.0
O205 O 0.2157 0.04707 0.61947 0.0
O206 O 0.25957 0.07205 0.715 0.0
O207 O 0.2517 0.12023 0.64763 0.0
C208 C 0.21539 0.07714 0.38769 0.0
C209 C 0.1745 0.06619 0.39587 0.0
H210 H 0.10396 0.03165 0.43174 0.0
H211 H 0.08204 0.02806 0.53158 0.0
H212 H 0.33639 0.10549 0.47756 0.0
H213 H 0.29704 0.09166 0.39059 0.0
H214 H 0.2287 0.07452 0.34623 0.0
H215 H 0.15678 0.05523 0.3608 0.0
Mn216 Mn 0.95568 0.21334 0.69991 0.0
Mn217 Mn 0.88244 0.21107 0.60167 0.0
C218 C 0.96642 0.24158 0.61148 0.0
C219 C 0.01097 0.179 0.73791 0.0
C220 C 0.88317 0.2709 0.69766 0.0
O221 O 0.91646 0.17145 0.73182 0.0
O222 O 0.87039 0.17106 0.6619 0.0
C223 C 0.91538 0.13355 0.56321 0.0
N224 N 0.89804 0.16976 0.55019 0.0
C225 C 0.91512 0.16204 0.45241 0.0
C226 C 0.9327 0.12445 0.46463 0.0
C227 C 0.93422 0.1109 0.52064 0.0
C228 C 0.90006 0.18489 0.49739 0.0
H229 H 0.91693 0.12331 0.60633 0.0
C230 C 0.88377 0.15861 0.70941 0.0
O231 O 0.99328 0.20761 0.76649 0.0
O232 O -0.00362 0.1706 0.68897 0.0
N233 N 0.88904 0.24741 0.53965 0.0
C234 C 0.8864 0.28854 0.53883 0.0
C235 C 0.88947 0.30922 0.48737 0.0
C236 C 0.89557 0.28741 0.43735 0.0
C237 C 0.89883 0.24512 0.43935 0.0
C238 C 0.89432 0.22606 0.49166 0.0
H239 H 0.88251 0.30541 0.5772 0.0
O240 O 0.98955 0.25182 0.65316 0.0
O241 O 0.93852 0.21555 0.62366 0.0
O242 O 0.91602 0.2588 0.72126 0.0
O243 O 0.86763 0.25512 0.65336 0.0
C244 C 0.90833 0.22132 0.39198 0.0
C245 C 0.91678 0.17975 0.39865 0.0
H246 H 0.9468 0.1066 0.43176 0.0
H247 H 0.94929 0.08273 0.5308 0.0
H248 H 0.8876 0.34193 0.48635 0.0
H249 H 0.89884 0.30352 0.3979 0.0
H250 H 0.91162 0.23515 0.35094 0.0
H251 H 0.92655 0.1621 0.36289 0.0
Mn252 Mn 0.76953 0.95694 0.69387 0.0
Mn253 Mn 0.77765 0.88333 0.59694 0.0
C254 C 0.74249 0.96573 0.60435 0.0
C255 C 0.80085 0.01339 0.73324 0.0
C256 C 0.71533 0.88191 0.68996 0.0
O257 O 0.81232 0.91992 0.72826 0.0
O258 O 0.817 0.87373 0.65894 0.0
C259 C 0.85411 0.92032 0.56126 0.0
N260 N 0.81926 0.90076 0.54697 0.0
C261 C 0.82815 0.91768 0.44933 0.0
C262 C 0.86441 0.93752 0.46288 0.0
C263 C 0.87666 0.9401 0.51939 0.0
C264 C 0.80519 0.90156 0.49353 0.0
H265 H 0.86327 0.92273 0.60479 0.0
C266 C 0.82747 0.88795 0.70688 0.0
O267 O 0.77223 -0.00531 0.76057 0.0
O268 O 0.81078 -0.00068 0.68455 0.0
N269 N 0.74235 0.88744 0.53334 0.0
C270 C 0.70142 0.88239 0.53084 0.0
C271 C 0.68174 0.88395 0.47848 0.0
C272 C 0.7043 0.89097 0.42932 0.0
C273 C 0.74634 0.89661 0.43304 0.0
C274 C 0.76448 0.8935 0.48618 0.0
H275 H 0.68391 0.8777 0.56854 0.0
O276 O 0.73056 0.98874 0.64526 0.0
O277 O 0.76974 0.93928 0.61775 0.0
O278 O 0.72526 0.91554 0.71333 0.0
O279 O 0.7332 0.86662 0.64701 0.0
C280 C 0.77063 0.90717 0.38656 0.0
C281 C 0.81155 0.91799 0.39482 0.0
H282 H 0.88217 0.9524 0.43058 0.0
H283 H 0.90376 0.95676 0.5305 0.0
H284 H 0.64919 0.88018 0.47609 0.0
H285 H 0.6889 0.89308 0.38916 0.0
H286 H 0.75749 0.90949 0.34495 0.0
H287 H 0.82942 0.92857 0.35968 0.0
Mn288 Mn 0.53261 0.71265 0.78882 0.0
Mn289 Mn 0.60677 0.70936 0.8857 0.0
C290 C 0.52299 0.74064 0.87762 0.0
C291 C 0.47656 0.67905 0.75152 0.0
C292 C 0.60548 0.76988 0.79051 0.0
O293 O 0.57116 0.67059 0.7558 0.0
O294 O 0.61791 0.66965 0.82482 0.0
C295 C 0.57362 0.63181 0.92376 0.0
N296 N 0.59136 0.66781 0.93695 0.0
C297 C 0.57492 0.65962 0.03488 0.0
C298 C 0.55685 0.62229 0.02244 0.0
C299 C 0.55492 0.60903 0.96631 0.0
C300 C 0.58992 0.68261 0.98997 0.0
H301 H 0.57167 0.62184 0.88055 0.0
C302 C 0.60397 0.65743 0.77752 0.0
O303 O 0.49428 0.70764 0.72292 0.0
O304 O 0.49163 0.67018 0.80001 0.0
N305 N 0.60108 0.74533 0.9483 0.0
C306 C 0.60402 0.78644 0.94958 0.0
C307 C 0.60157 0.80681 0.00134 0.0
C308 C 0.59574 0.78471 0.05118 0.0
C309 C 0.59213 0.74246 0.04872 0.0
C310 C 0.59608 0.7237 -0.00388 0.0
H311 H 0.60759 0.80355 0.91135 0.0
O312 O 0.49954 0.7512 0.83646 0.0
O313 O 0.55049 0.71434 0.86482 0.0
O314 O 0.57237 0.75802 0.76734 0.0
O315 O 0.62137 0.75368 0.83429 0.0
C316 C 0.5827 0.71846 0.09592 0.0
C317 C 0.57378 0.67702 0.08888 0.0
H318 H 0.54279 0.60437 0.05528 0.0
H319 H 0.53961 0.581 0.95604 0.0
H320 H 0.60367 0.83949 0.00273 0.0
H321 H 0.5929 0.80059 0.09088 0.0
H322 H 0.57976 0.73209 0.13713 0.0
H323 H 0.56399 0.65926 0.12456 0.0
Mn324 Mn 0.27 0.53331 0.79634 0.0
Mn325 Mn 0.27867 0.60658 0.89373 0.0
C326 C 0.24306 0.52426 0.88585 0.0
C327 C 0.30097 0.477 0.75617 0.0
C328 C 0.21616 0.60847 0.80088 0.0
O329 O 0.31283 0.57039 0.7621 0.0
O330 O 0.31844 0.61592 0.83215 0.0
C331 C 0.35462 0.56899 0.93006 0.0
N332 N 0.31984 0.58875 0.94408 0.0
C333 C 0.32802 0.57142 0.04171 0.0
C334 C 0.3642 0.55139 0.02844 0.0
C335 C 0.37671 0.54884 0.97204 0.0
C336 C 0.30546 0.58787 -0.00264 0.0
H337 H 0.364 0.56662 0.88662 0.0
C338 C 0.3286 0.60191 0.78396 0.0
O339 O 0.2723 0.49593 0.72927 0.0
O340 O 0.31118 0.4908 0.80492 0.0
N341 N 0.24297 0.60259 0.95692 0.0
C342 C 0.20207 0.60801 0.959 0.0
C343 C 0.18207 0.60641 0.01111 0.0
C344 C 0.20427 0.59896 0.06047 0.0
C345 C 0.24627 0.59299 0.0572 0.0
C346 C 0.26476 0.59618 0.0043 0.0
H347 H 0.1848 0.6131 0.92114 0.0
O348 O 0.23106 0.5014 0.84481 0.0
O349 O 0.27043 0.55067 0.87264 0.0
O350 O 0.22568 0.57472 0.77758 0.0
O351 O 0.23456 0.62377 0.84338 0.0
C352 C 0.27018 0.58202 0.10388 0.0
C353 C 0.31105 0.57093 0.096 0.0
H354 H 0.38163 0.53621 0.06083 0.0
H355 H 0.40365 0.53188 0.96111 0.0
H356 H 0.14955 0.61048 0.01317 0.0
H357 H 0.18861 0.59683 0.10044 0.0
H358 H 0.25678 0.57961 0.14533 0.0
H359 H 0.32858 0.55996 0.13125 0.0
Mn360 Mn 0.45295 0.27486 0.78728 0.0
Mn361 Mn 0.37978 0.27825 0.88554 0.0
C362 C 0.46327 0.24637 0.87559 0.0
C363 C 0.5088 0.30837 0.74927 0.0
C364 C 0.37973 0.21806 0.78994 0.0
O365 O 0.41435 0.31728 0.75529 0.0
O366 O 0.36828 0.31825 0.82515 0.0
C367 C 0.4139 0.3554 0.92351 0.0
N368 N 0.39597 0.31951 0.93678 0.0
C369 C 0.41332 0.32725 0.03446 0.0
C370 C 0.43158 0.36447 0.02196 0.0
C371 C 0.43314 0.3779 0.96589 0.0
C372 C 0.39775 0.30452 0.98967 0.0
H373 H 0.41555 0.36549 0.88032 0.0
C374 C 0.38183 0.33054 0.77768 0.0
O375 O 0.49068 0.28 0.72071 0.0
O376 O 0.49426 0.31705 0.79813 0.0
N377 N 0.38582 0.24202 0.94778 0.0
C378 C 0.38269 0.20092 0.94882 0.0
C379 C 0.38547 0.18036 0.0004 0.0
C380 C 0.39184 0.20224 0.05029 0.0
C381 C 0.39567 0.24448 0.04805 0.0
C382 C 0.39136 0.26345 -0.00435 0.0
H383 H 0.37872 0.18396 0.91053 0.0
O384 O 0.48626 0.23588 0.83389 0.0
O385 O 0.43582 0.27292 0.8636 0.0
O386 O 0.41268 0.2298 0.7662 0.0
O387 O 0.36439 0.23422 0.83412 0.0
C388 C 0.40565 0.26827 0.09524 0.0
C389 C 0.41475 0.30968 0.08833 0.0
H390 H 0.44606 0.38217 0.05468 0.0
H391 H 0.44859 0.40584 0.95554 0.0
H392 H 0.38322 0.14768 0.00161 0.0
H393 H 0.39494 0.18621 0.08983 0.0
H394 H 0.40887 0.25446 0.1363 0.0
H395 H 0.42493 0.32727 0.12397 0.0
Mn396 Mn 0.71526 0.45424 0.79346 0.0
Mn397 Mn 0.70677 0.38061 0.89034 0.0
C398 C 0.74272 0.46278 0.88275 0.0
C399 C 0.68439 0.51089 0.75403 0.0
C400 C 0.76899 0.37892 0.79716 0.0
O401 O 0.67212 0.41749 0.75924 0.0
O402 O 0.66698 0.3715 0.82874 0.0
C403 C 0.63095 0.41835 0.92691 0.0
N404 N 0.66563 0.39836 0.94081 0.0
C405 C 0.6575 0.41531 0.03856 0.0
C406 C 0.62144 0.43562 0.02543 0.0
C407 C 0.60891 0.43839 0.96905 0.0
C408 C 0.67999 0.39892 0.9941 0.0
H409 H 0.62159 0.42093 0.88349 0.0
C410 C 0.65656 0.38577 0.78082 0.0
O411 O 0.71283 0.49191 0.72671 0.0
O412 O 0.67434 0.49694 0.80275 0.0
N413 N 0.74246 0.38425 0.95358 0.0
C414 C 0.78335 0.37874 0.95563 0.0
C415 C 0.80333 0.38 0.00778 0.0
C416 C 0.78112 0.3872 0.0572 0.0
C417 C 0.73913 0.39329 0.05394 0.0
C418 C 0.72065 0.39043 0.001 0.0
H419 H 0.80062 0.3739 0.91773 0.0
O420 O 0.7546 0.48577 0.84179 0.0
O421 O 0.71511 0.43658 0.86964 0.0
O422 O 0.75931 0.41268 0.77398 0.0
O423 O 0.75083 0.36357 0.83983 0.0
C424 C 0.71524 0.40411 0.1007 0.0
C425 C 0.67442 0.41541 0.09289 0.0
H426 H 0.60406 0.45071 0.05793 0.0
H427 H 0.58197 0.45541 0.95825 0.0
H428 H 0.83584 0.37587 0.00982 0.0
H429 H 0.79677 0.3891 0.0972 0.0
H430 H 0.72865 0.40627 0.14216 0.0
H431 H 0.6569 0.42626 0.12821 0.0
Mn432 Mn 0.53057 0.2723 0.19185 0.0
Mn433 Mn 0.60414 0.27976 0.09458 0.0
C434 C 0.5214 0.24537 0.1024 0.0
C435 C 0.4741 0.30368 0.23125 0.0
C436 C 0.60522 0.21753 0.1876 0.0
O437 O 0.56804 0.31485 0.22604 0.0
O438 O 0.61422 0.31895 0.15652 0.0
C439 C 0.56771 0.35645 0.05911 0.0
N440 N 0.58687 0.32145 0.04468 0.0
C441 C 0.56939 0.33036 0.94721 0.0
C442 C 0.54998 0.36678 0.96091 0.0
C443 C 0.54788 0.3791 0.01742 0.0
C444 C 0.58562 0.30735 0.99127 0.0
H445 H 0.56563 0.36567 0.10263 0.0
C446 C 0.60018 0.32963 0.20447 0.0
O447 O 0.49279 0.27506 0.25856 0.0
O448 O 0.48833 0.31371 0.18269 0.0
N449 N 0.59952 0.24452 0.03103 0.0
C450 C 0.60439 0.20362 0.02852 0.0
C451 C 0.60241 0.18394 0.97621 0.0
C452 C 0.59515 0.20647 0.92711 0.0
C453 C 0.58976 0.24849 0.93084 0.0
C454 C 0.59332 0.26663 0.98391 0.0
H455 H 0.6093 0.18613 0.06618 0.0
O456 O 0.49838 0.23357 0.1434 0.0
O457 O 0.54811 0.27239 0.11568 0.0
O458 O 0.57171 0.2278 0.2111 0.0
O459 O 0.62062 0.23521 0.14459 0.0
C460 C 0.579 0.27275 0.88446 0.0
C461 C 0.56851 0.31369 0.89276 0.0
H462 H 0.53505 0.38462 0.92875 0.0
H463 H 0.53154 0.40634 0.02865 0.0
H464 H 0.60602 0.15142 0.97381 0.0
H465 H 0.59271 0.19107 0.887 0.0
H466 H 0.57628 0.25958 0.84293 0.0
H467 H 0.55771 0.33152 0.85772 0.0
Mn468 Mn 0.71793 0.52968 0.19855 0.0
Mn469 Mn 0.71668 0.60374 0.10156 0.0
C470 C 0.74679 0.51962 0.11024 0.0
C471 C 0.68285 0.47444 0.23532 0.0
C472 C 0.7754 0.60216 0.19905 0.0
O473 O 0.67582 0.56865 0.23024 0.0
O474 O 0.6755 0.61503 0.16074 0.0
C475 C 0.63972 0.57142 0.05969 0.0
N476 N 0.67626 0.58874 0.04833 0.0
C477 C 0.67018 0.57296 0.94991 0.0
C478 C 0.63221 0.55555 0.9604 0.0
C479 C 0.6178 0.55317 0.01593 0.0
C480 C 0.69234 0.5873 -0.00398 0.0
H481 H 0.62874 0.56931 0.10242 0.0
C482 C 0.66272 0.60121 0.20787 0.0
O483 O 0.71139 0.49173 0.26455 0.0
O484 O 0.67506 0.48927 0.18632 0.0
N485 N 0.75417 0.59769 0.04067 0.0
C486 C 0.79537 0.60001 0.04136 0.0
C487 C 0.81701 0.59734 0.9906 0.0
C488 C 0.79607 0.59193 0.9397 0.0
C489 C 0.75368 0.58888 0.94013 0.0
C490 C 0.73366 0.59294 0.99184 0.0
H491 H 0.81156 0.60329 0.08039 0.0
O492 O 0.75668 0.49614 0.15169 0.0
O493 O 0.72084 0.54752 0.12266 0.0
O494 O 0.76335 0.56894 0.22154 0.0
O495 O 0.75988 0.61816 0.1549 0.0
C496 C 0.73068 0.57999 0.89173 0.0
C497 C 0.68891 0.57171 0.89678 0.0
H498 H 0.61488 0.54191 0.92661 0.0
H499 H 0.58955 0.53777 0.02484 0.0
H500 H 0.84978 0.59899 0.9908 0.0
H501 H 0.8129 0.58898 0.90077 0.0
H502 H 0.74522 0.57708 0.85107 0.0
H503 H 0.67188 0.56234 0.86023 0.0
Mn504 Mn 0.45822 0.71186 0.19463 0.0
Mn505 Mn 0.38422 0.7045 0.09798 0.0
C506 C 0.46683 0.73924 0.10535 0.0
C507 C 0.51507 0.68059 0.23319 0.0
C508 C 0.38344 0.76653 0.19124 0.0
O509 O 0.42109 0.66905 0.22892 0.0
O510 O 0.37443 0.66535 0.16001 0.0
C511 C 0.42076 0.62791 0.06232 0.0
N512 N 0.40137 0.66282 0.04799 0.0
C513 C 0.41848 0.6539 0.9504 0.0
C514 C 0.43814 0.6176 0.96399 0.0
C515 C 0.44047 0.60527 0.02049 0.0
C516 C 0.40231 0.67686 0.99455 0.0
H517 H 0.42305 0.61873 0.10583 0.0
C518 C 0.38873 0.65447 0.2077 0.0
O519 O 0.49639 0.709 0.26092 0.0
O520 O 0.5006 0.67067 0.18472 0.0
N521 N 0.38844 0.7397 0.03433 0.0
C522 C 0.38344 0.78058 0.03179 0.0
C523 C 0.38505 0.80021 0.97942 0.0
C524 C 0.39208 0.77765 0.93029 0.0
C525 C 0.39762 0.73566 0.93405 0.0
C526 C 0.39442 0.71755 0.98718 0.0
H527 H 0.37873 0.79809 0.06947 0.0
O528 O 0.49001 0.75094 0.14621 0.0
O529 O 0.44032 0.712 0.1186 0.0
O530 O 0.41698 0.75613 0.21457 0.0
O531 O 0.36794 0.74905 0.14812 0.0
C532 C 0.40824 0.71139 0.88762 0.0
C533 C 0.41896 0.6705 0.89589 0.0
H534 H 0.453 0.5998 0.93173 0.0
H535 H 0.45688 0.57805 0.03161 0.0
H536 H 0.38133 0.83272 0.977 0.0
H537 H 0.39426 0.79301 0.89013 0.0
H538 H 0.41072 0.72455 0.84606 0.0
H539 H 0.42966 0.65268 0.86078 0.0
Mn540 Mn 0.27095 0.45483 0.20035 0.0
Mn541 Mn 0.27248 0.38177 0.10195 0.0
C542 C 0.24167 0.46555 0.11249 0.0
C543 C 0.30584 0.50992 0.23787 0.0
C544 C 0.21393 0.38194 0.19962 0.0
O545 O 0.31342 0.41588 0.2311 0.0
O546 O 0.31378 0.37011 0.16084 0.0
C547 C 0.34916 0.41511 0.06065 0.0
N548 N 0.31277 0.39757 0.049 0.0
C549 C 0.3187 0.41426 0.95086 0.0
C550 C 0.3565 0.43195 0.96165 0.0
C551 C 0.37093 0.43392 0.0172 0.0
C552 C 0.29667 0.39933 -0.00328 0.0
H553 H 0.36014 0.41691 0.10342 0.0
C554 C 0.3266 0.38357 0.20814 0.0
O555 O 0.27752 0.49219 0.26701 0.0
O556 O 0.3135 0.49562 0.18854 0.0
N557 N 0.23492 0.38814 0.04121 0.0
C558 C 0.19374 0.38559 0.0419 0.0
C559 C 0.17207 0.38856 0.99121 0.0
C560 C 0.19296 0.39451 0.94038 0.0
C561 C 0.23533 0.3978 0.94083 0.0
C562 C 0.25539 0.39342 0.99246 0.0
H563 H 0.17758 0.38194 0.08089 0.0
O564 O 0.23177 0.48855 0.15446 0.0
O565 O 0.26792 0.43775 0.12412 0.0
O566 O 0.22587 0.41498 0.2228 0.0
O567 O 0.22943 0.36654 0.15506 0.0
C568 C 0.25826 0.40723 0.89258 0.0
C569 C 0.29997 0.41575 0.89775 0.0
H570 H 0.37371 0.44603 0.92809 0.0
H571 H 0.39909 0.44942 0.02635 0.0
H572 H 0.13931 0.38674 0.99139 0.0
H573 H 0.17609 0.39769 0.90151 0.0
H574 H 0.24368 0.41038 0.85199 0.0
H575 H 0.31696 0.42548 0.86135 0.0
C576 C 0.10016 0.08288 0.24605 0.0
C577 C 0.12234 0.11844 0.25568 0.0
H578 H 0.10296 0.01835 0.23705 0.0
C579 C 0.16475 0.11764 0.25008 0.0
H580 H 0.0675 0.08269 0.25101 0.0
C581 C 0.18492 0.08109 0.23967 0.0
C582 C 0.16299 0.04477 0.23699 0.0
H583 H 0.18245 0.14471 0.2579 0.0
H584 H 0.21776 0.08063 0.24059 0.0
C585 C 0.12042 0.04615 0.23766 0.0
C586 C 0.90262 0.18528 0.24388 0.0
C587 C 0.93815 0.16241 0.23783 0.0
H588 H 0.83906 0.18395 0.26304 0.0
C589 C 0.9353 0.12007 0.23393 0.0
H590 H 0.90426 0.21789 0.24828 0.0
C591 C 0.89792 0.10066 0.24085 0.0
C592 C 0.8632 0.12335 0.25377 0.0
H593 H 0.96251 0.10183 0.23068 0.0
H594 H 0.89705 0.06787 0.24206 0.0
C595 C 0.86545 0.16585 0.25283 0.0
C596 C 0.80345 0.90245 0.23876 0.0
C597 C 0.8255 0.93865 0.23514 0.0
H598 H 0.80572 0.83905 0.25835 0.0
C599 C 0.86807 0.93711 0.23563 0.0
H600 H 0.77061 0.90306 0.23985 0.0
C601 C 0.88822 0.9004 0.24472 0.0
C602 C 0.86593 0.86504 0.25526 0.0
H603 H 0.88562 0.96485 0.23432 0.0
H604 H 0.92089 0.90054 0.24952 0.0
C605 C 0.82351 0.86595 0.24984 0.0
C606 C 0.05358 0.86405 0.23752 0.0
C607 C 0.05066 0.82171 0.24122 0.0
H608 H 0.09192 0.91617 0.24596 0.0
C609 C 0.08613 0.79876 0.24739 0.0
H610 H 0.02642 0.88235 0.23416 0.0
C611 C 0.12331 0.81811 0.25666 0.0
C612 C 0.12564 0.8606 0.25768 0.0
H613 H 0.08443 0.76614 0.25159 0.0
H614 H 0.14965 0.79996 0.26691 0.0
C615 C 0.09098 0.88338 0.24469 0.0
C616 C 0.10202 0.89858 0.75364 0.0
C617 C 0.12314 0.86316 0.73949 0.0
H618 H 0.10594 0.9629 0.76465 0.0
C619 C 0.16577 0.86368 0.73949 0.0
H620 H 0.06917 0.89904 0.7532 0.0
C621 C 0.18683 0.89992 0.74828 0.0
C622 C 0.16546 0.93624 0.75537 0.0
H623 H 0.18267 0.83671 0.72837 0.0
H624 H 0.21942 0.90029 0.74269 0.0
C625 C 0.12305 0.93504 0.76063 0.0
C626 C 0.12169 0.16126 0.73982 0.0
C627 C 0.12261 0.11888 0.73474 0.0
H628 H 0.08452 0.21408 0.74959 0.0
C629 C 0.08726 0.09661 0.74559 0.0
H630 H 0.14862 0.179 0.73114 0.0
C631 C 0.05051 0.11672 0.75465 0.0
C632 C 0.04893 0.15924 0.75481 0.0
H633 H 0.08717 0.06396 0.74113 0.0
H634 H 0.02276 0.09917 0.75617 0.0
C635 C 0.08516 0.18129 0.75093 0.0
C636 C 0.81935 0.12381 0.73543 0.0
C637 C 0.86197 0.1244 0.73541 0.0
H638 H 0.76574 0.08713 0.73919 0.0
C639 C 0.88316 0.08905 0.7497 0.0
H640 H 0.80239 0.15071 0.7242 0.0
C641 C 0.8622 0.05258 0.75696 0.0
C642 C 0.81978 0.0513 0.75187 0.0
H643 H 0.91601 0.08865 0.74924 0.0
H644 H 0.87936 0.02476 0.76117 0.0
C645 C 0.79835 0.08756 0.74457 0.0
C646 C 0.8971 0.89054 0.74673 0.0
C647 C 0.86197 0.86814 0.73504 0.0
H648 H 0.96149 0.88827 0.75866 0.0
C649 C 0.86304 0.82576 0.73999 0.0
H650 H 0.89709 0.92321 0.74239 0.0
C651 C 0.89954 0.80587 0.7518 0.0
C652 C 0.93562 0.82808 0.75656 0.0
H653 H 0.8363 0.8079 0.73071 0.0
H654 H 0.90034 0.77309 0.75035 0.0
C655 C 0.93385 0.87059 0.7565 0.0
C656 C 0.66771 0.62162 0.75111 0.0
C657 C 0.6251 0.62291 0.75125 0.0
H658 H 0.72067 0.58404 0.74779 0.0
C659 C 0.60329 0.58784 0.73733 0.0
H660 H 0.68514 0.64828 0.76213 0.0
C661 C 0.62361 0.55099 0.73039 0.0
C662 C 0.666 0.54905 0.7354 0.0
H663 H 0.57044 0.58797 0.73794 0.0
H664 H 0.60598 0.52344 0.72646 0.0
C665 C 0.68807 0.58499 0.74234 0.0
C666 C 0.43558 0.61751 0.73573 0.0
C667 C 0.43804 0.65998 0.73534 0.0
H668 H 0.39788 0.56552 0.7497 0.0
C669 C 0.40229 0.68276 0.73944 0.0
H670 H 0.46294 0.5994 0.73402 0.0
C671 C 0.36539 0.66349 0.75097 0.0
C672 C 0.3636 0.62114 0.75618 0.0
H673 H 0.40362 0.71553 0.74058 0.0
H674 H 0.33888 0.68179 0.75979 0.0
C675 C 0.39845 0.59817 0.74514 0.0
C676 C 0.36191 0.43726 0.73216 0.0
C677 C 0.3195 0.43902 0.73704 0.0
H678 H 0.41519 0.40041 0.73934 0.0
C679 C 0.29754 0.40297 0.74335 0.0
H680 H 0.37946 0.4649 0.72871 0.0
C681 C 0.318 0.36634 0.75169 0.0
C682 C 0.36061 0.36519 0.75193 0.0
H683 H 0.26492 0.40378 0.74861 0.0
H684 H 0.30064 0.33954 0.76225 0.0
C685 C 0.38234 0.40043 0.73863 0.0
C686 C 0.61987 0.3241 0.748 0.0
C687 C 0.6216 0.36646 0.75303 0.0
H688 H 0.58172 0.27196 0.73806 0.0
C689 C 0.5867 0.38935 0.74192 0.0
H690 H 0.64641 0.30587 0.75687 0.0
C691 C 0.54959 0.36991 0.73268 0.0
C692 C 0.54719 0.32743 0.73255 0.0
H693 H 0.58721 0.42201 0.74633 0.0
H694 H 0.52219 0.38798 0.73097 0.0
C695 C 0.58298 0.30473 0.73669 0.0
C696 C 0.61961 0.43611 0.25122 0.0
C697 C 0.6622 0.4369 0.25194 0.0
H698 H 0.56617 0.4004 0.2374 0.0
C699 C 0.6836 0.4003 0.24879 0.0
H700 H 0.60256 0.46416 0.25219 0.0
C701 C 0.66291 0.36411 0.23794 0.0
C702 C 0.6205 0.36393 0.23231 0.0
H703 H 0.71645 0.40033 0.24788 0.0
H704 H 0.68022 0.33685 0.2298 0.0
C705 C 0.59882 0.39973 0.24237 0.0
C706 C 0.55581 0.6199 0.25485 0.0
C707 C 0.55356 0.66227 0.25083 0.0
H708 H 0.59315 0.56712 0.24617 0.0
C709 C 0.58937 0.6846 0.24389 0.0
H710 H 0.52836 0.60207 0.25876 0.0
C711 C 0.62613 0.6646 0.23419 0.0
C712 C 0.62772 0.62207 0.2334 0.0
H713 H 0.5882 0.71722 0.23944 0.0
H714 H 0.6527 0.68229 0.22342 0.0
C715 C 0.5928 0.59993 0.24718 0.0
C716 C 0.32591 0.62013 0.24104 0.0
C717 C 0.36834 0.62024 0.23565 0.0
H718 H 0.27228 0.584 0.25051 0.0
C719 C 0.38993 0.58443 0.24592 0.0
H720 H 0.30867 0.64741 0.23275 0.0
C721 C 0.36905 0.54807 0.25467 0.0
C722 C 0.32645 0.54735 0.25505 0.0
H723 H 0.42259 0.5837 0.24114 0.0
H724 H 0.38605 0.52001 0.25573 0.0
C725 C 0.30512 0.58398 0.25173 0.0
C726 C 0.39682 0.38467 0.24628 0.0
C727 C 0.3617 0.36263 0.23321 0.0
H728 H 0.46134 0.38231 0.25675 0.0
C729 C 0.36312 0.32009 0.23415 0.0
H730 H 0.39656 0.41747 0.24513 0.0
C731 C 0.39988 0.29998 0.24334 0.0
C732 C 0.43584 0.32218 0.24951 0.0
H733 H 0.33639 0.3025 0.22389 0.0
H734 H 0.40089 0.26733 0.23902 0.0
C735 C 0.4338 0.36457 0.25341 0.0
C736 C 0.12741 0.3094 0.21857 0.0
C737 C 0.13158 0.29944 0.27558 0.0
H738 H 0.15066 0.34347 0.14967 0.0
C739 C 0.15984 0.32063 0.30883 0.0
H740 H 0.10592 0.29359 0.19199 0.0
C741 C 0.18464 0.35014 0.28488 0.0
C742 C 0.18227 0.35801 0.22711 0.0
H743 H 0.16371 0.31364 0.35299 0.0
H744 H 0.20738 0.36484 0.3107 0.0
C745 C 0.15298 0.33805 0.19438 0.0
C746 C 0.68111 0.13298 0.20357 0.0
C747 C 0.68243 0.12905 0.26221 0.0
H748 H 0.65607 0.16509 0.13384 0.0
C749 C 0.65534 0.15146 0.29559 0.0
H750 H 0.70199 0.1163 0.17708 0.0
C751 C 0.62832 0.1785 0.27092 0.0
C752 C 0.62889 0.1845 0.21261 0.0
H753 H 0.65586 0.14921 0.34093 0.0
H754 H 0.60872 0.19637 0.29778 0.0
C755 C 0.65495 0.161 0.17898 0.0
C756 C 0.80418 0.6336 0.28481 0.0
C757 C 0.80708 0.6257 0.2271 0.0
H758 H 0.82453 0.67012 0.35325 0.0
C759 C 0.83679 0.64547 0.1949 0.0
H760 H 0.78111 0.61903 0.31019 0.0
C761 C 0.86219 0.67408 0.21953 0.0
C762 C 0.85744 0.68416 0.27642 0.0
H763 H 0.83953 0.63998 0.15026 0.0
H764 H 0.88397 0.68982 0.19333 0.0
C765 C 0.82884 0.66305 0.30919 0.0
C766 C 0.3331 0.83209 0.29965 0.0
C767 C 0.30644 0.855 0.26626 0.0
H768 H 0.37936 0.78678 0.30172 0.0
C769 C 0.30812 0.85153 0.20759 0.0
H770 H 0.33227 0.83398 0.34504 0.0
C771 C 0.33422 0.82349 0.18291 0.0
C772 C 0.35986 0.79952 0.2165 0.0
H773 H 0.28758 0.86859 0.18107 0.0
H774 H 0.33336 0.81978 0.13771 0.0
C775 C 0.36008 0.80504 0.27491 0.0
C776 C 0.17311 0.62887 0.7197 0.0
C777 C 0.18263 0.63215 0.77697 0.0
H778 H 0.14002 0.65358 0.6508 0.0
C779 C 0.1616 0.66029 0.81055 0.0
H780 H 0.18884 0.6075 0.69288 0.0
C781 C 0.13275 0.68587 0.78672 0.0
C782 C 0.1254 0.68443 0.72876 0.0
H783 H 0.16829 0.6635 0.85491 0.0
H784 H 0.11819 0.70848 0.81287 0.0
C785 C 0.14512 0.65523 0.69564 0.0
C786 C 0.33386 0.15859 0.79829 0.0
C787 C 0.35647 0.18507 0.76419 0.0
H788 H 0.28926 0.11162 0.80151 0.0
C789 C 0.35321 0.18236 0.70558 0.0
H790 H 0.33562 0.16016 0.84364 0.0
C791 C 0.32569 0.1554 0.68156 0.0
C792 C 0.30204 0.1299 0.71579 0.0
H793 H 0.37008 0.2027 0.67849 0.0
H794 H 0.32213 0.15547 0.63632 0.0
C795 C 0.30732 0.13076 0.77423 0.0
C796 C 0.85295 0.30219 0.78261 0.0
C797 C 0.85965 0.30313 0.72448 0.0
H798 H 0.81792 0.32483 0.8511 0.0
C799 C 0.83922 0.33176 0.69122 0.0
H800 H 0.86804 0.28001 0.80889 0.0
C801 C 0.81125 0.3581 0.7154 0.0
C802 C 0.80244 0.35532 0.77293 0.0
H803 H 0.84376 0.33298 0.64622 0.0
H804 H 0.79498 0.37904 0.68853 0.0
C805 C 0.82409 0.3277 0.80657 0.0
C806 C 0.65895 0.8321 0.68123 0.0
C807 C 0.68263 0.85784 0.71507 0.0
H808 H 0.61469 0.78467 0.67891 0.0
C809 C 0.67736 0.85744 0.77352 0.0
H810 H 0.6625 0.8317 0.63599 0.0
C811 C 0.6509 0.82974 0.79802 0.0
C812 C 0.62836 0.80294 0.76434 0.0
H813 H 0.69543 0.87679 0.8005 0.0
H814 H 0.64918 0.82848 0.8434 0.0
C815 C 0.63151 0.80526 0.70567 0.0
C816 C 0.00398 0.27975 0.46977 0.0
C817 C 0.01036 0.24239 0.44279 0.0
H818 H 0.98514 0.30924 0.54668 0.0
C819 C 0.00162 0.20656 0.47119 0.0
H820 H 0.01005 0.30788 0.44794 0.0
C821 C 0.98898 0.20729 0.52654 0.0
C822 C 0.98184 0.24394 0.55382 0.0
H823 H 0.00462 0.17764 0.45036 0.0
H824 H 0.98444 0.17884 0.54813 0.0
C825 C 0.99006 0.28052 0.52581 0.0
C826 C 0.77559 0.98844 0.51853 0.0
C827 C 0.73934 0.97999 0.54618 0.0
H828 H 0.80435 0.00488 0.44202 0.0
C829 C 0.7023 0.98645 0.51827 0.0
H830 H 0.80428 0.98537 0.54003 0.0
C831 C 0.70229 7e-05 0.46207 0.0
C832 C 0.73929 0.00791 0.4348 0.0
H833 H 0.67385 0.98057 0.53947 0.0
H834 H 0.67382 0.00499 0.44045 0.0
C835 C 0.7756 0.00074 0.46303 0.0
C836 C -0.00353 0.70574 0.5297 0.0
C837 C 0.00443 0.74263 0.55706 0.0
H838 H 0.97718 0.6775 0.4521 0.0
C839 C -0.0025 0.77897 0.52889 0.0
H840 H 0.00124 0.67726 0.55128 0.0
C841 C 0.98533 0.77907 0.47333 0.0
C842 C 0.97688 0.74291 0.44556 0.0
H843 H 0.00185 0.80766 0.54994 0.0
H844 H 0.98246 0.80776 0.45184 0.0
C845 C 0.98305 0.70587 0.47343 0.0
C846 C 0.21113 -0.00274 0.52066 0.0
C847 C 0.24704 0.006 0.54899 0.0
H848 H 0.18329 0.98016 0.44377 0.0
C849 C 0.28441 -0.00066 0.52203 0.0
H850 H 0.18219 0.00046 0.54147 0.0
C851 C 0.2851 0.98524 0.46606 0.0
C852 C 0.24843 0.97714 0.43807 0.0
H853 H 0.3126 0.00541 0.54378 0.0
H854 H 0.31383 0.98017 0.44518 0.0
C855 C 0.21179 0.9845 0.46537 0.0
C856 C 0.50138 0.70696 0.9635 0.0
C857 C 0.50839 0.74341 0.93563 0.0
H858 H 0.48622 0.67785 0.04027 0.0
C859 C 0.50061 0.7802 0.96334 0.0
H860 H 0.50556 0.67836 0.94218 0.0
C861 C 0.48722 0.77985 0.01963 0.0
C862 C 0.4809 0.74269 0.04716 0.0
H863 H 0.50541 0.80876 0.94199 0.0
H864 H 0.4814 0.80814 0.04118 0.0
C865 C 0.48925 0.70664 0.01907 0.0
C866 C 0.20239 0.50344 0.97143 0.0
C867 C 0.23959 0.50993 0.94396 0.0
H868 H 0.17341 0.48434 0.04865 0.0
C869 C 0.27565 0.50113 0.97184 0.0
H870 H 0.17407 0.50954 0.95003 0.0
C871 C 0.27532 0.48837 0.02715 0.0
C872 C 0.23884 0.4811 0.0549 0.0
H873 H 0.30445 0.50416 0.95062 0.0
H874 H 0.30395 0.48389 0.04835 0.0
C875 C 0.20201 0.48935 0.02742 0.0
C876 C 0.49835 0.27887 0.01712 0.0
C877 C 0.50684 0.24251 0.04437 0.0
H878 H 0.48147 0.30795 0.94104 0.0
C879 C 0.50017 0.20566 0.01624 0.0
H880 H 0.50163 0.30743 0.03881 0.0
C881 C 0.48627 0.20591 0.96019 0.0
C882 C 0.47834 0.24299 0.93332 0.0
H883 H 0.5061 0.17714 0.03715 0.0
H884 H 0.48119 0.17757 0.93838 0.0
C885 C 0.48573 0.27913 0.96175 0.0
C886 C 0.78439 0.48285 0.96775 0.0
C887 C 0.74687 0.47665 0.941 0.0
H888 H 0.81429 0.50123 0.04464 0.0
C889 C 0.71114 0.48527 0.9698 0.0
H890 H 0.81245 0.47689 0.94563 0.0
C891 C 0.71213 0.49756 0.0253 0.0
C892 C 0.74895 0.5045 0.05239 0.0
H893 H 0.6821 0.48245 0.94917 0.0
H894 H 0.68375 0.50195 0.04719 0.0
C895 C 0.78544 0.49644 0.02395 0.0
loop_
_geom_bond_atom_site_label_1
_geom_bond_atom_site_label_2
_geom_bond_distance
_geom_bond_site_symmetry_2
_ccdc_geom_bond_type
Mn0 O5 2.095 . S
Mn0 O15 2.162 1_455 S
Mn0 O16 2.297 1_455 S
Mn0 O24 2.385 1_455 S
Mn0 O25 2.209 . S
Mn0 O26 2.094 . S
Mn1 O6 2.121 . S
Mn1 N8 2.257 . S
Mn1 N17 2.282 . S
Mn1 O25 2.215 . S
Mn1 O27 2.117 . S
C2 O24 1.234 1_455 S
C2 O25 1.283 . S
C3 O15 1.281 . S
C3 O16 1.236 . S
C4 O26 1.240 . S
C4 O27 1.264 . S
O5 Mn0 2.095 . S
O5 C14 1.250 . S
O6 Mn1 2.121 . S
O6 C14 1.258 . S
C7 N8 1.326 . S
C7 C11 1.460 . S
C7 H13 0.929 . S
N8 Mn1 2.257 . S
N8 C7 1.326 . S
N8 C12 1.362 . S
C9 C10 1.258 . S
C9 C12 1.431 . S
C9 C29 1.449 . S
C10 C9 1.258 . S
C10 C11 1.477 . S
C10 H30 0.931 . S
C11 C7 1.460 . S
C11 C10 1.477 . S
C11 H31 0.930 . S
C12 N8 1.362 . S
C12 C9 1.431 . S
C12 C22 1.476 . S
H13 C7 0.929 . S
C14 O5 1.250 . S
C14 O6 1.258 . S
O15 Mn0 2.162 1_655 S
O15 C3 1.281 . S
O16 Mn0 2.297 1_655 S
O16 C3 1.236 . S
N17 Mn1 2.282 . S
N17 C18 1.328 . S
N17 C22 1.318 . S
C18 N17 1.328 . S
C18 C19 1.457 . S
C18 H23 0.929 . S
C19 C18 1.457 . S
C19 C20 1.291 . S
C19 H32 0.931 . S
C20 C19 1.291 . S
C20 C21 1.373 . S
C20 H33 0.929 . S
C21 C20 1.373 . S
C21 C22 1.396 . S
C21 C28 1.403 . S
C22 C12 1.476 . S
C22 N17 1.318 . S
C22 C21 1.396 . S
H23 C18 0.929 . S
O24 Mn0 2.385 1_655 S
O24 C2 1.234 1_655 S
O25 Mn0 2.209 . S
O25 Mn1 2.215 . S
O25 C2 1.283 . S
O26 Mn0 2.094 . S
O26 C4 1.240 . S
O27 Mn1 2.117 . S
O27 C4 1.264 . S
C28 C21 1.403 . S
C28 C29 1.399 . S
C28 H34 0.929 . S
C29 C9 1.449 . S
C29 C28 1.399 . S
C29 H35 0.930 . S
H30 C10 0.931 . S
H31 C11 0.930 . S
H32 C19 0.931 . S
H33 C20 0.929 . S
H34 C28 0.929 . S
H35 C29 0.930 . S
Mn36 O41 2.095 . S
Mn36 O51 2.162 1_545 S
Mn36 O52 2.297 1_545 S
Mn36 O60 2.385 1_545 S
Mn36 O61 2.209 . S
Mn36 O62 2.094 . S
Mn37 O42 2.121 . S
Mn37 N44 2.257 . S
Mn37 N53 2.282 . S
Mn37 O61 2.215 . S
Mn37 O63 2.117 . S
C38 O60 1.234 1_545 S
C38 O61 1.283 . S
C39 O51 1.281 . S
C39 O52 1.236 . S
C40 O62 1.240 . S
C40 O63 1.264 . S
O41 Mn36 2.095 . S
O41 C50 1.250 . S
O42 Mn37 2.121 . S
O42 C50 1.258 . S
C43 N44 1.326 . S
C43 C47 1.460 . S
C43 H49 0.929 . S
N44 Mn37 2.257 . S
N44 C43 1.326 . S
N44 C48 1.362 . S
C45 C46 1.258 . S
C45 C48 1.431 . S
C45 C65 1.449 . S
C46 C45 1.258 . S
C46 C47 1.477 . S
C46 H66 0.931 . S
C47 C43 1.460 . S
C47 C46 1.477 . S
C47 H67 0.930 . S
C48 N44 1.362 . S
C48 C45 1.431 . S
C48 C58 1.476 . S
H49 C43 0.929 . S
C50 O41 1.250 . S
C50 O42 1.258 . S
O51 Mn36 2.162 1_565 S
O51 C39 1.281 . S
O52 Mn36 2.297 1_565 S
O52 C39 1.236 . S
N53 Mn37 2.282 . S
N53 C54 1.328 . S
N53 C58 1.318 . S
C54 N53 1.328 . S
C54 C55 1.457 . S
C54 H59 0.929 . S
C55 C54 1.457 . S
C55 C56 1.291 . S
C55 H68 0.931 . S
C56 C55 1.291 . S
C56 C57 1.373 . S
C56 H69 0.929 . S
C57 C56 1.373 . S
C57 C58 1.396 . S
C57 C64 1.403 . S
C58 C48 1.476 . S
C58 N53 1.318 . S
C58 C57 1.396 . S
H59 C54 0.929 . S
O60 Mn36 2.385 1_565 S
O60 C38 1.234 1_565 S
O61 Mn36 2.209 . S
O61 Mn37 2.215 . S
O61 C38 1.283 . S
O62 Mn36 2.094 . S
O62 C40 1.240 . S
O63 Mn37 2.117 . S
O63 C40 1.264 . S
C64 C57 1.403 . S
C64 C65 1.399 . S
C64 H70 0.929 . S
C65 C45 1.449 . S
C65 C64 1.399 . S
C65 H71 0.930 . S
H66 C46 0.931 . S
H67 C47 0.930 . S
H68 C55 0.931 . S
H69 C56 0.929 . S
H70 C64 0.929 . S
H71 C65 0.930 . S
Mn72 O77 2.095 . S
Mn72 O87 2.162 1_655 S
Mn72 O88 2.297 1_655 S
Mn72 O96 2.385 1_655 S
Mn72 O97 2.209 . S
Mn72 O98 2.094 . S
Mn73 O78 2.121 . S
Mn73 N80 2.257 . S
Mn73 N89 2.282 . S
Mn73 O97 2.215 . S
Mn73 O99 2.117 . S
C74 O96 1.234 1_655 S
C74 O97 1.283 . S
C75 O87 1.281 . S
C75 O88 1.236 . S
C76 O98 1.240 . S
C76 O99 1.264 . S
O77 Mn72 2.095 . S
O77 C86 1.250 . S
O78 Mn73 2.121 . S
O78 C86 1.258 . S
C79 N80 1.326 . S
C79 C83 1.460 . S
C79 H85 0.929 . S
N80 Mn73 2.257 . S
N80 C79 1.326 . S
N80 C84 1.362 . S
C81 C82 1.258 . S
C81 C84 1.431 . S
C81 C101 1.449 . S
C82 C81 1.258 . S
C82 C83 1.477 . S
C82 H102 0.931 . S
C83 C79 1.460 . S
C83 C82 1.477 . S
C83 H103 0.930 . S
C84 N80 1.362 . S
C84 C81 1.431 . S
C84 C94 1.476 . S
H85 C79 0.929 . S
C86 O77 1.250 . S
C86 O78 1.258 . S
O87 Mn72 2.162 1_455 S
O87 C75 1.281 . S
O88 Mn72 2.297 1_455 S
O88 C75 1.236 . S
N89 Mn73 2.282 . S
N89 C90 1.328 . S
N89 C94 1.318 . S
C90 N89 1.328 . S
C90 C91 1.457 . S
C90 H95 0.929 . S
C91 C90 1.457 . S
C91 C92 1.291 . S
C91 H104 0.931 . S
C92 C91 1.291 . S
C92 C93 1.373 . S
C92 H105 0.929 . S
C93 C92 1.373 . S
C93 C94 1.396 . S
C93 C100 1.403 . S
C94 C84 1.476 . S
C94 N89 1.318 . S
C94 C93 1.396 . S
H95 C90 0.929 . S
O96 Mn72 2.385 1_455 S
O96 C74 1.234 1_455 S
O97 Mn72 2.209 . S
O97 Mn73 2.215 . S
O97 C74 1.283 . S
O98 Mn72 2.094 . S
O98 C76 1.240 . S
O99 Mn73 2.117 . S
O99 C76 1.264 . S
C100 C93 1.403 . S
C100 C101 1.399 . S
C100 H106 0.929 . S
C101 C81 1.449 . S
C101 C100 1.399 . S
C101 H107 0.930 . S
H102 C82 0.931 . S
H103 C83 0.930 . S
H104 C91 0.931 . S
H105 C92 0.929 . S
H106 C100 0.929 . S
H107 C101 0.930 . S
Mn108 O113 2.095 . S
Mn108 O123 2.162 1_565 S
Mn108 O124 2.297 1_565 S
Mn108 O132 2.385 1_565 S
Mn108 O133 2.209 . S
Mn108 O134 2.094 . S
Mn109 O114 2.121 . S
Mn109 N116 2.257 . S
Mn109 N125 2.282 . S
Mn109 O133 2.215 . S
Mn109 O135 2.117 . S
C110 O132 1.234 1_565 S
C110 O133 1.283 . S
C111 O123 1.281 . S
C111 O124 1.236 . S
C112 O134 1.240 . S
C112 O135 1.264 . S
O113 Mn108 2.095 . S
O113 C122 1.250 . S
O114 Mn109 2.121 . S
O114 C122 1.258 . S
C115 N116 1.326 . S
C115 C119 1.460 . S
C115 H121 0.929 . S
N116 Mn109 2.257 . S
N116 C115 1.326 . S
N116 C120 1.362 . S
C117 C118 1.258 . S
C117 C120 1.431 . S
C117 C137 1.449 . S
C118 C117 1.258 . S
C118 C119 1.477 . S
C118 H138 0.931 . S
C119 C115 1.460 . S
C119 C118 1.477 . S
C119 H139 0.930 . S
C120 N116 1.362 . S
C120 C117 1.431 . S
C120 C130 1.476 . S
H121 C115 0.929 . S
C122 O113 1.250 . S
C122 O114 1.258 . S
O123 Mn108 2.162 1_545 S
O123 C111 1.281 . S
O124 Mn108 2.297 1_545 S
O124 C111 1.236 . S
N125 Mn109 2.282 . S
N125 C126 1.328 . S
N125 C130 1.318 . S
C126 N125 1.328 . S
C126 C127 1.457 . S
C126 H131 0.929 . S
C127 C126 1.457 . S
C127 C128 1.291 . S
C127 H140 0.931 . S
C128 C127 1.291 . S
C128 C129 1.373 . S
C128 H141 0.929 . S
C129 C128 1.373 . S
C129 C130 1.396 . S
C129 C136 1.403 . S
C130 C120 1.476 . S
C130 N125 1.318 . S
C130 C129 1.396 . S
H131 C126 0.929 . S
O132 Mn108 2.385 1_545 S
O132 C110 1.234 1_545 S
O133 Mn108 2.209 . S
O133 Mn109 2.215 . S
O133 C110 1.283 . S
O134 Mn108 2.094 . S
O134 C112 1.240 . S
O135 Mn109 2.117 . S
O135 C112 1.264 . S
C136 C129 1.403 . S
C136 C137 1.399 . S
C136 H142 0.929 . S
C137 C117 1.449 . S
C137 C136 1.399 . S
C137 H143 0.930 . S
H138 C118 0.931 . S
H139 C119 0.930 . S
H140 C127 0.931 . S
H141 C128 0.929 . S
H142 C136 0.929 . S
H143 C137 0.930 . S
Mn144 O149 2.095 . S
Mn144 O159 2.162 1_455 S
Mn144 O160 2.297 1_455 S
Mn144 O168 2.385 1_455 S
Mn144 O169 2.209 . S
Mn144 O170 2.094 . S
Mn145 O150 2.121 . S
Mn145 N152 2.257 . S
Mn145 N161 2.282 . S
Mn145 O169 2.215 . S
Mn145 O171 2.117 . S
C146 O168 1.234 1_455 S
C146 O169 1.283 . S
C147 O159 1.281 . S
C147 O160 1.236 . S
C148 O170 1.240 . S
C148 O171 1.264 . S
O149 Mn144 2.095 . S
O149 C158 1.250 . S
O150 Mn145 2.121 . S
O150 C158 1.258 . S
C151 N152 1.326 . S
C151 C155 1.460 . S
C151 H157 0.929 . S
N152 Mn145 2.257 . S
N152 C151 1.326 . S
N152 C156 1.362 . S
C153 C154 1.258 . S
C153 C156 1.431 . S
C153 C173 1.449 . S
C154 C153 1.258 . S
C154 C155 1.477 . S
C154 H174 0.931 . S
C155 C151 1.460 . S
C155 C154 1.477 . S
C155 H175 0.930 . S
C156 N152 1.362 . S
C156 C153 1.431 . S
C156 C166 1.476 . S
H157 C151 0.929 . S
C158 O149 1.250 . S
C158 O150 1.258 . S
O159 Mn144 2.162 1_655 S
O159 C147 1.281 . S
O160 Mn144 2.297 1_655 S
O160 C147 1.236 . S
N161 Mn145 2.282 . S
N161 C162 1.328 . S
N161 C166 1.318 . S
C162 N161 1.328 . S
C162 C163 1.457 . S
C162 H167 0.929 . S
C163 C162 1.457 . S
C163 C164 1.291 . S
C163 H176 0.931 . S
C164 C163 1.291 . S
C164 C165 1.373 . S
C164 H177 0.929 . S
C165 C164 1.373 . S
C165 C166 1.396 . S
C165 C172 1.403 . S
C166 C156 1.476 . S
C166 N161 1.318 . S
C166 C165 1.396 . S
H167 C162 0.929 . S
O168 Mn144 2.385 1_655 S
O168 C146 1.234 1_655 S
O169 Mn144 2.209 . S
O169 Mn145 2.215 . S
O169 C146 1.283 . S
O170 Mn144 2.094 . S
O170 C148 1.240 . S
O171 Mn145 2.117 . S
O171 C148 1.264 . S
C172 C165 1.403 . S
C172 C173 1.399 . S
C172 H178 0.929 . S
C173 C153 1.449 . S
C173 C172 1.399 . S
C173 H179 0.930 . S
H174 C154 0.931 . S
H175 C155 0.930 . S
H176 C163 0.931 . S
H177 C164 0.929 . S
H178 C172 0.929 . S
H179 C173 0.930 . S
Mn180 O185 2.095 . S
Mn180 O195 2.162 1_545 S
Mn180 O196 2.297 1_545 S
Mn180 O204 2.385 1_545 S
Mn180 O205 2.209 . S
Mn180 O206 2.094 . S
Mn181 O186 2.121 . S
Mn181 N188 2.257 . S
Mn181 N197 2.282 . S
Mn181 O205 2.215 . S
Mn181 O207 2.117 . S
C182 O204 1.234 1_545 S
C182 O205 1.283 . S
C183 O195 1.281 . S
C183 O196 1.236 . S
C184 O206 1.240 . S
C184 O207 1.264 . S
O185 Mn180 2.095 . S
O185 C194 1.250 . S
O186 Mn181 2.121 . S
O186 C194 1.258 . S
C187 N188 1.326 . S
C187 C191 1.460 . S
C187 H193 0.929 . S
N188 Mn181 2.257 . S
N188 C187 1.326 . S
N188 C192 1.362 . S
C189 C190 1.258 . S
C189 C192 1.431 . S
C189 C209 1.449 . S
C190 C189 1.258 . S
C190 C191 1.477 . S
C190 H210 0.931 . S
C191 C187 1.460 . S
C191 C190 1.477 . S
C191 H211 0.930 . S
C192 N188 1.362 . S
C192 C189 1.431 . S
C192 C202 1.476 . S
H193 C187 0.929 . S
C194 O185 1.250 . S
C194 O186 1.258 . S
O195 Mn180 2.162 1_565 S
O195 C183 1.281 . S
O196 Mn180 2.297 1_565 S
O196 C183 1.236 . S
N197 Mn181 2.282 . S
N197 C198 1.328 . S
N197 C202 1.318 . S
C198 N197 1.328 . S
C198 C199 1.457 . S
C198 H203 0.929 . S
C199 C198 1.457 . S
C199 C200 1.291 . S
C199 H212 0.931 . S
C200 C199 1.291 . S
C200 C201 1.373 . S
C200 H213 0.929 . S
C201 C200 1.373 . S
C201 C202 1.396 . S
C201 C208 1.403 . S
C202 C192 1.476 . S
C202 N197 1.318 . S
C202 C201 1.396 . S
H203 C198 0.929 . S
O204 Mn180 2.385 1_565 S
O204 C182 1.234 1_565 S
O205 Mn180 2.209 . S
O205 Mn181 2.215 . S
O205 C182 1.283 . S
O206 Mn180 2.094 . S
O206 C184 1.240 . S
O207 Mn181 2.117 . S
O207 C184 1.264 . S
C208 C201 1.403 . S
C208 C209 1.399 . S
C208 H214 0.929 . S
C209 C189 1.449 . S
C209 C208 1.399 . S
C209 H215 0.930 . S
H210 C190 0.931 . S
H211 C191 0.930 . S
H212 C199 0.931 . S
H213 C200 0.929 . S
H214 C208 0.929 . S
H215 C209 0.930 . S
Mn216 O221 2.095 . S
Mn216 O231 2.162 1_655 S
Mn216 O232 2.297 1_655 S
Mn216 O240 2.385 1_655 S
Mn216 O241 2.209 . S
Mn216 O242 2.094 . S
Mn217 O222 2.121 . S
Mn217 N224 2.257 . S
Mn217 N233 2.282 . S
Mn217 O241 2.215 . S
Mn217 O243 2.117 . S
C218 O240 1.234 1_655 S
C218 O241 1.283 . S
C219 O231 1.281 . S
C219 O232 1.236 . S
C220 O242 1.240 . S
C220 O243 1.264 . S
O221 Mn216 2.095 . S
O221 C230 1.250 . S
O222 Mn217 2.121 . S
O222 C230 1.258 . S
C223 N224 1.326 . S
C223 C227 1.460 . S
C223 H229 0.929 . S
N224 Mn217 2.257 . S
N224 C223 1.326 . S
N224 C228 1.362 . S
C225 C226 1.258 . S
C225 C228 1.431 . S
C225 C245 1.449 . S
C226 C225 1.258 . S
C226 C227 1.477 . S
C226 H246 0.931 . S
C227 C223 1.460 . S
C227 C226 1.477 . S
C227 H247 0.930 . S
C228 N224 1.362 . S
C228 C225 1.431 . S
C228 C238 1.476 . S
H229 C223 0.929 . S
C230 O221 1.250 . S
C230 O222 1.258 . S
O231 Mn216 2.162 1_455 S
O231 C219 1.281 . S
O232 Mn216 2.297 1_455 S
O232 C219 1.236 . S
N233 Mn217 2.282 . S
N233 C234 1.328 . S
N233 C238 1.318 . S
C234 N233 1.328 . S
C234 C235 1.457 . S
C234 H239 0.929 . S
C235 C234 1.457 . S
C235 C236 1.291 . S
C235 H248 0.931 . S
C236 C235 1.291 . S
C236 C237 1.373 . S
C236 H249 0.929 . S
C237 C236 1.373 . S
C237 C238 1.396 . S
C237 C244 1.403 . S
C238 C228 1.476 . S
C238 N233 1.318 . S
C238 C237 1.396 . S
H239 C234 0.929 . S
O240 Mn216 2.385 1_455 S
O240 C218 1.234 1_455 S
O241 Mn216 2.209 . S
O241 Mn217 2.215 . S
O241 C218 1.283 . S
O242 Mn216 2.094 . S
O242 C220 1.240 . S
O243 Mn217 2.117 . S
O243 C220 1.264 . S
C244 C237 1.403 . S
C244 C245 1.399 . S
C244 H250 0.929 . S
C245 C225 1.449 . S
C245 C244 1.399 . S
C245 H251 0.930 . S
H246 C226 0.931 . S
H247 C227 0.930 . S
H248 C235 0.931 . S
H249 C236 0.929 . S
H250 C244 0.929 . S
H251 C245 0.930 . S
Mn252 O257 2.095 . S
Mn252 O267 2.162 1_565 S
Mn252 O268 2.297 1_565 S
Mn252 O276 2.385 1_565 S
Mn252 O277 2.209 . S
Mn252 O278 2.094 . S
Mn253 O258 2.121 . S
Mn253 N260 2.257 . S
Mn253 N269 2.282 . S
Mn253 O277 2.215 . S
Mn253 O279 2.117 . S
C254 O276 1.234 1_565 S
C254 O277 1.283 . S
C255 O267 1.281 . S
C255 O268 1.236 . S
C256 O278 1.240 . S
C256 O279 1.264 . S
O257 Mn252 2.095 . S
O257 C266 1.250 . S
O258 Mn253 2.121 . S
O258 C266 1.258 . S
C259 N260 1.326 . S
C259 C263 1.460 . S
C259 H265 0.929 . S
N260 Mn253 2.257 . S
N260 C259 1.326 . S
N260 C264 1.362 . S
C261 C262 1.258 . S
C261 C264 1.431 . S
C261 C281 1.449 . S
C262 C261 1.258 . S
C262 C263 1.477 . S
C262 H282 0.931 . S
C263 C259 1.460 . S
C263 C262 1.477 . S
C263 H283 0.930 . S
C264 N260 1.362 . S
C264 C261 1.431 . S
C264 C274 1.476 . S
H265 C259 0.929 . S
C266 O257 1.250 . S
C266 O258 1.258 . S
O267 Mn252 2.162 1_545 S
O267 C255 1.281 . S
O268 Mn252 2.297 1_545 S
O268 C255 1.236 . S
N269 Mn253 2.282 . S
N269 C270 1.328 . S
N269 C274 1.318 . S
C270 N269 1.328 . S
C270 C271 1.457 . S
C270 H275 0.929 . S
C271 C270 1.457 . S
C271 C272 1.291 . S
C271 H284 0.931 . S
C272 C271 1.291 . S
C272 C273 1.373 . S
C272 H285 0.929 . S
C273 C272 1.373 . S
C273 C274 1.396 . S
C273 C280 1.403 . S
C274 C264 1.476 . S
C274 N269 1.318 . S
C274 C273 1.396 . S
H275 C270 0.929 . S
O276 Mn252 2.385 1_545 S
O276 C254 1.234 1_545 S
O277 Mn252 2.209 . S
O277 Mn253 2.215 . S
O277 C254 1.283 . S
O278 Mn252 2.094 . S
O278 C256 1.240 . S
O279 Mn253 2.117 . S
O279 C256 1.264 . S
C280 C273 1.403 . S
C280 C281 1.399 . S
C280 H286 0.929 . S
C281 C261 1.449 . S
C281 C280 1.399 . S
C281 H287 0.930 . S
H282 C262 0.931 . S
H283 C263 0.930 . S
H284 C271 0.931 . S
H285 C272 0.929 . S
H286 C280 0.929 . S
H287 C281 0.930 . S
Mn288 O293 2.095 . S
Mn288 O303 2.162 . S
Mn288 O304 2.297 . S
Mn288 O312 2.385 . S
Mn288 O313 2.209 . S
Mn288 O314 2.094 . S
Mn289 O294 2.121 . S
Mn289 N296 2.257 . S
Mn289 N305 2.282 . S
Mn289 O313 2.215 . S
Mn289 O315 2.117 . S
C290 O312 1.234 . S
C290 O313 1.283 . S
C291 O303 1.281 . S
C291 O304 1.236 . S
C292 O314 1.240 . S
C292 O315 1.264 . S
O293 Mn288 2.095 . S
O293 C302 1.250 . S
O294 Mn289 2.121 . S
O294 C302 1.258 . S
C295 N296 1.326 . S
C295 C299 1.460 . S
C295 H301 0.929 . S
N296 Mn289 2.257 . S
N296 C295 1.326 . S
N296 C300 1.362 . S
C297 C298 1.258 . S
C297 C300 1.431 1_554 S
C297 C317 1.449 . S
C298 C297 1.258 . S
C298 C299 1.477 1_554 S
C298 H318 0.931 . S
C299 C295 1.460 . S
C299 C298 1.477 1_556 S
C299 H319 0.930 1_556 S
C300 N296 1.362 . S
C300 C297 1.431 1_556 S
C300 C310 1.476 . S
H301 C295 0.929 . S
C302 O293 1.250 . S
C302 O294 1.258 . S
O303 Mn288 2.162 . S
O303 C291 1.281 . S
O304 Mn288 2.297 . S
O304 C291 1.236 . S
N305 Mn289 2.282 . S
N305 C306 1.328 . S
N305 C310 1.318 . S
C306 N305 1.328 . S
C306 C307 1.457 . S
C306 H311 0.929 . S
C307 C306 1.457 . S
C307 C308 1.291 1_556 S
C307 H320 0.931 . S
C308 C307 1.291 1_554 S
C308 C309 1.373 . S
C308 H321 0.929 . S
C309 C308 1.373 . S
C309 C310 1.396 1_554 S
C309 C316 1.403 . S
C310 C300 1.476 . S
C310 N305 1.318 . S
C310 C309 1.396 1_556 S
H311 C306 0.929 . S
O312 Mn288 2.385 . S
O312 C290 1.234 . S
O313 Mn288 2.209 . S
O313 Mn289 2.215 . S
O313 C290 1.283 . S
O314 Mn288 2.094 . S
O314 C292 1.240 . S
O315 Mn289 2.117 . S
O315 C292 1.264 . S
C316 C309 1.403 . S
C316 C317 1.399 . S
C316 H322 0.929 . S
C317 C297 1.449 . S
C317 C316 1.399 . S
C317 H323 0.930 . S
H318 C298 0.931 . S
H319 C299 0.930 1_554 S
H320 C307 0.931 . S
H321 C308 0.929 . S
H322 C316 0.929 . S
H323 C317 0.930 . S
Mn324 O329 2.095 . S
Mn324 O339 2.162 . S
Mn324 O340 2.297 . S
Mn324 O348 2.385 . S
Mn324 O349 2.209 . S
Mn324 O350 2.094 . S
Mn325 O330 2.121 . S
Mn325 N332 2.257 . S
Mn325 N341 2.282 . S
Mn325 O349 2.215 . S
Mn325 O351 2.117 . S
C326 O348 1.234 . S
C326 O349 1.283 . S
C327 O339 1.281 . S
C327 O340 1.236 . S
C328 O350 1.240 . S
C328 O351 1.264 . S
O329 Mn324 2.095 . S
O329 C338 1.250 . S
O330 Mn325 2.121 . S
O330 C338 1.258 . S
C331 N332 1.326 . S
C331 C335 1.460 . S
C331 H337 0.929 . S
N332 Mn325 2.257 . S
N332 C331 1.326 . S
N332 C336 1.362 . S
C333 C334 1.258 . S
C333 C336 1.431 1_554 S
C333 C353 1.449 . S
C334 C333 1.258 . S
C334 C335 1.477 1_554 S
C334 H354 0.931 . S
C335 C331 1.460 . S
C335 C334 1.477 1_556 S
C335 H355 0.930 1_556 S
C336 N332 1.362 . S
C336 C333 1.431 1_556 S
C336 C346 1.476 . S
H337 C331 0.929 . S
C338 O329 1.250 . S
C338 O330 1.258 . S
O339 Mn324 2.162 . S
O339 C327 1.281 . S
O340 Mn324 2.297 . S
O340 C327 1.236 . S
N341 Mn325 2.282 . S
N341 C342 1.328 . S
N341 C346 1.318 . S
C342 N341 1.328 . S
C342 C343 1.457 . S
C342 H347 0.929 . S
C343 C342 1.457 . S
C343 C344 1.291 1_556 S
C343 H356 0.931 . S
C344 C343 1.291 1_554 S
C344 C345 1.373 . S
C344 H357 0.929 . S
C345 C344 1.373 . S
C345 C346 1.396 1_554 S
C345 C352 1.403 . S
C346 C336 1.476 . S
C346 N341 1.318 . S
C346 C345 1.396 1_556 S
H347 C342 0.929 . S
O348 Mn324 2.385 . S
O348 C326 1.234 . S
O349 Mn324 2.209 . S
O349 Mn325 2.215 . S
O349 C326 1.283 . S
O350 Mn324 2.094 . S
O350 C328 1.240 . S
O351 Mn325 2.117 . S
O351 C328 1.264 . S
C352 C345 1.403 . S
C352 C353 1.399 . S
C352 H358 0.929 . S
C353 C333 1.449 . S
C353 C352 1.399 . S
C353 H359 0.930 . S
H354 C334 0.931 . S
H355 C335 0.930 1_554 S
H356 C343 0.931 . S
H357 C344 0.929 . S
H358 C352 0.929 . S
H359 C353 0.930 . S
Mn360 O365 2.095 . S
Mn360 O375 2.162 . S
Mn360 O376 2.297 . S
Mn360 O384 2.385 . S
Mn360 O385 2.209 . S
Mn360 O386 2.094 . S
Mn361 O366 2.121 . S
Mn361 N368 2.257 . S
Mn361 N377 2.282 . S
Mn361 O385 2.215 . S
Mn361 O387 2.117 . S
C362 O384 1.234 . S
C362 O385 1.283 . S
C363 O375 1.281 . S
C363 O376 1.236 . S
C364 O386 1.240 . S
C364 O387 1.264 . S
O365 Mn360 2.095 . S
O365 C374 1.250 . S
O366 Mn361 2.121 . S
O366 C374 1.258 . S
C367 N368 1.326 . S
C367 C371 1.460 . S
C367 H373 0.929 . S
N368 Mn361 2.257 . S
N368 C367 1.326 . S
N368 C372 1.362 . S
C369 C370 1.258 . S
C369 C372 1.431 1_554 S
C369 C389 1.449 . S
C370 C369 1.258 . S
C370 C371 1.477 1_554 S
C370 H390 0.931 . S
C371 C367 1.460 . S
C371 C370 1.477 1_556 S
C371 H391 0.930 1_556 S
C372 N368 1.362 . S
C372 C369 1.431 1_556 S
C372 C382 1.476 . S
H373 C367 0.929 . S
C374 O365 1.250 . S
C374 O366 1.258 . S
O375 Mn360 2.162 . S
O375 C363 1.281 . S
O376 Mn360 2.297 . S
O376 C363 1.236 . S
N377 Mn361 2.282 . S
N377 C378 1.328 . S
N377 C382 1.318 . S
C378 N377 1.328 . S
C378 C379 1.457 . S
C378 H383 0.929 . S
C379 C378 1.457 . S
C379 C380 1.291 1_556 S
C379 H392 0.931 . S
C380 C379 1.291 1_554 S
C380 C381 1.373 . S
C380 H393 0.929 . S
C381 C380 1.373 . S
C381 C382 1.396 1_554 S
C381 C388 1.403 . S
C382 C372 1.476 . S
C382 N377 1.318 . S
C382 C381 1.396 1_556 S
H383 C378 0.929 . S
O384 Mn360 2.385 . S
O384 C362 1.234 . S
O385 Mn360 2.209 . S
O385 Mn361 2.215 . S
O385 C362 1.283 . S
O386 Mn360 2.094 . S
O386 C364 1.240 . S
O387 Mn361 2.117 . S
O387 C364 1.264 . S
C388 C381 1.403 . S
C388 C389 1.399 . S
C388 H394 0.929 . S
C389 C369 1.449 . S
C389 C388 1.399 . S
C389 H395 0.930 . S
H390 C370 0.931 . S
H391 C371 0.930 1_554 S
H392 C379 0.931 . S
H393 C380 0.929 . S
H394 C388 0.929 . S
H395 C389 0.930 . S
Mn396 O401 2.095 . S
Mn396 O411 2.162 . S
Mn396 O412 2.297 . S
Mn396 O420 2.385 . S
Mn396 O421 2.209 . S
Mn396 O422 2.094 . S
Mn397 O402 2.121 . S
Mn397 N404 2.257 . S
Mn397 N413 2.282 . S
Mn397 O421 2.215 . S
Mn397 O423 2.117 . S
C398 O420 1.234 . S
C398 O421 1.283 . S
C399 O411 1.281 . S
C399 O412 1.236 . S
C400 O422 1.240 . S
C400 O423 1.264 . S
O401 Mn396 2.095 . S
O401 C410 1.250 . S
O402 Mn397 2.121 . S
O402 C410 1.258 . S
C403 N404 1.326 . S
C403 C407 1.460 . S
C403 H409 0.929 . S
N404 Mn397 2.257 . S
N404 C403 1.326 . S
N404 C408 1.362 . S
C405 C406 1.258 . S
C405 C408 1.431 1_554 S
C405 C425 1.449 . S
C406 C405 1.258 . S
C406 C407 1.477 1_554 S
C406 H426 0.931 . S
C407 C403 1.460 . S
C407 C406 1.477 1_556 S
C407 H427 0.930 1_556 S
C408 N404 1.362 . S
C408 C405 1.431 1_556 S
C408 C418 1.476 . S
H409 C403 0.929 . S
C410 O401 1.250 . S
C410 O402 1.258 . S
O411 Mn396 2.162 . S
O411 C399 1.281 . S
O412 Mn396 2.297 . S
O412 C399 1.236 . S
N413 Mn397 2.282 . S
N413 C414 1.328 . S
N413 C418 1.318 . S
C414 N413 1.328 . S
C414 C415 1.457 . S
C414 H419 0.929 . S
C415 C414 1.457 . S
C415 C416 1.291 1_556 S
C415 H428 0.931 . S
C416 C415 1.291 1_554 S
C416 C417 1.373 . S
C416 H429 0.929 . S
C417 C416 1.373 . S
C417 C418 1.396 1_554 S
C417 C424 1.403 . S
C418 C408 1.476 . S
C418 N413 1.318 . S
C418 C417 1.396 1_556 S
H419 C414 0.929 . S
O420 Mn396 2.385 . S
O420 C398 1.234 . S
O421 Mn396 2.209 . S
O421 Mn397 2.215 . S
O421 C398 1.283 . S
O422 Mn396 2.094 . S
O422 C400 1.240 . S
O423 Mn397 2.117 . S
O423 C400 1.264 . S
C424 C417 1.403 . S
C424 C425 1.399 . S
C424 H430 0.929 . S
C425 C405 1.449 . S
C425 C424 1.399 . S
C425 H431 0.930 . S
H426 C406 0.931 . S
H427 C407 0.930 1_554 S
H428 C415 0.931 . S
H429 C416 0.929 . S
H430 C424 0.929 . S
H431 C425 0.930 . S
Mn432 O437 2.095 . S
Mn432 O447 2.162 . S
Mn432 O448 2.297 . S
Mn432 O456 2.385 . S
Mn432 O457 2.209 . S
Mn432 O458 2.094 . S
Mn433 O438 2.121 . S
Mn433 N440 2.257 . S
Mn433 N449 2.282 . S
Mn433 O457 2.215 . S
Mn433 O459 2.117 . S
C434 O456 1.234 . S
C434 O457 1.283 . S
C435 O447 1.281 . S
C435 O448 1.236 . S
C436 O458 1.240 . S
C436 O459 1.264 . S
O437 Mn432 2.095 . S
O437 C446 1.250 . S
O438 Mn433 2.121 . S
O438 C446 1.258 . S
C439 N440 1.326 . S
C439 C443 1.460 . S
C439 H445 0.929 . S
N440 Mn433 2.257 . S
N440 C439 1.326 . S
N440 C444 1.362 . S
C441 C442 1.258 . S
C441 C444 1.431 1_556 S
C441 C461 1.449 . S
C442 C441 1.258 . S
C442 C443 1.477 1_556 S
C442 H462 0.931 . S
C443 C439 1.460 . S
C443 C442 1.477 1_554 S
C443 H463 0.930 1_554 S
C444 N440 1.362 . S
C444 C441 1.431 1_554 S
C444 C454 1.476 . S
H445 C439 0.929 . S
C446 O437 1.250 . S
C446 O438 1.258 . S
O447 Mn432 2.162 . S
O447 C435 1.281 . S
O448 Mn432 2.297 . S
O448 C435 1.236 . S
N449 Mn433 2.282 . S
N449 C450 1.328 . S
N449 C454 1.318 . S
C450 N449 1.328 . S
C450 C451 1.457 . S
C450 H455 0.929 . S
C451 C450 1.457 . S
C451 C452 1.291 1_554 S
C451 H464 0.931 . S
C452 C451 1.291 1_556 S
C452 C453 1.373 . S
C452 H465 0.929 . S
C453 C452 1.373 . S
C453 C454 1.396 1_556 S
C453 C460 1.403 . S
C454 C444 1.476 . S
C454 N449 1.318 . S
C454 C453 1.396 1_554 S
H455 C450 0.929 . S
O456 Mn432 2.385 . S
O456 C434 1.234 . S
O457 Mn432 2.209 . S
O457 Mn433 2.215 . S
O457 C434 1.283 . S
O458 Mn432 2.094 . S
O458 C436 1.240 . S
O459 Mn433 2.117 . S
O459 C436 1.264 . S
C460 C453 1.403 . S
C460 C461 1.399 . S
C460 H466 0.929 . S
C461 C441 1.449 . S
C461 C460 1.399 . S
C461 H467 0.930 . S
H462 C442 0.931 . S
H463 C443 0.930 1_556 S
H464 C451 0.931 . S
H465 C452 0.929 . S
H466 C460 0.929 . S
H467 C461 0.930 . S
Mn468 O473 2.095 . S
Mn468 O483 2.162 . S
Mn468 O484 2.297 . S
Mn468 O492 2.385 . S
Mn468 O493 2.209 . S
Mn468 O494 2.094 . S
Mn469 O474 2.121 . S
Mn469 N476 2.257 . S
Mn469 N485 2.282 . S
Mn469 O493 2.215 . S
Mn469 O495 2.117 . S
C470 O492 1.234 . S
C470 O493 1.283 . S
C471 O483 1.281 . S
C471 O484 1.236 . S
C472 O494 1.240 . S
C472 O495 1.264 . S
O473 Mn468 2.095 . S
O473 C482 1.250 . S
O474 Mn469 2.121 . S
O474 C482 1.258 . S
C475 N476 1.326 . S
C475 C479 1.460 . S
C475 H481 0.929 . S
N476 Mn469 2.257 . S
N476 C475 1.326 . S
N476 C480 1.362 . S
C477 C478 1.258 . S
C477 C480 1.431 1_556 S
C477 C497 1.449 . S
C478 C477 1.258 . S
C478 C479 1.477 1_556 S
C478 H498 0.931 . S
C479 C475 1.460 . S
C479 C478 1.477 1_554 S
C479 H499 0.930 1_554 S
C480 N476 1.362 . S
C480 C477 1.431 1_554 S
C480 C490 1.476 . S
H481 C475 0.929 . S
C482 O473 1.250 . S
C482 O474 1.258 . S
O483 Mn468 2.162 . S
O483 C471 1.281 . S
O484 Mn468 2.297 . S
O484 C471 1.236 . S
N485 Mn469 2.282 . S
N485 C486 1.328 . S
N485 C490 1.318 . S
C486 N485 1.328 . S
C486 C487 1.457 . S
C486 H491 0.929 . S
C487 C486 1.457 . S
C487 C488 1.291 1_554 S
C487 H500 0.931 . S
C488 C487 1.291 1_556 S
C488 C489 1.373 . S
C488 H501 0.929 . S
C489 C488 1.373 . S
C489 C490 1.396 1_556 S
C489 C496 1.403 . S
C490 C480 1.476 . S
C490 N485 1.318 . S
C490 C489 1.396 1_554 S
H491 C486 0.929 . S
O492 Mn468 2.385 . S
O492 C470 1.234 . S
O493 Mn468 2.209 . S
O493 Mn469 2.215 . S
O493 C470 1.283 . S
O494 Mn468 2.094 . S
O494 C472 1.240 . S
O495 Mn469 2.117 . S
O495 C472 1.264 . S
C496 C489 1.403 . S
C496 C497 1.399 . S
C496 H502 0.929 . S
C497 C477 1.449 . S
C497 C496 1.399 . S
C497 H503 0.930 . S
H498 C478 0.931 . S
H499 C479 0.930 1_556 S
H500 C487 0.931 . S
H501 C488 0.929 . S
H502 C496 0.929 . S
H503 C497 0.930 . S
Mn504 O509 2.095 . S
Mn504 O519 2.162 . S
Mn504 O520 2.297 . S
Mn504 O528 2.385 . S
Mn504 O529 2.209 . S
Mn504 O530 2.094 . S
Mn505 O510 2.121 . S
Mn505 N512 2.257 . S
Mn505 N521 2.282 . S
Mn505 O529 2.215 . S
Mn505 O531 2.117 . S
C506 O528 1.234 . S
C506 O529 1.283 . S
C507 O519 1.281 . S
C507 O520 1.236 . S
C508 O530 1.240 . S
C508 O531 1.264 . S
O509 Mn504 2.095 . S
O509 C518 1.250 . S
O510 Mn505 2.121 . S
O510 C518 1.258 . S
C511 N512 1.326 . S
C511 C515 1.460 . S
C511 H517 0.929 . S
N512 Mn505 2.257 . S
N512 C511 1.326 . S
N512 C516 1.362 . S
C513 C514 1.258 . S
C513 C516 1.431 1_556 S
C513 C533 1.449 . S
C514 C513 1.258 . S
C514 C515 1.477 1_556 S
C514 H534 0.931 . S
C515 C511 1.460 . S
C515 C514 1.477 1_554 S
C515 H535 0.930 1_554 S
C516 N512 1.362 . S
C516 C513 1.431 1_554 S
C516 C526 1.476 . S
H517 C511 0.929 . S
C518 O509 1.250 . S
C518 O510 1.258 . S
O519 Mn504 2.162 . S
O519 C507 1.281 . S
O520 Mn504 2.297 . S
O520 C507 1.236 . S
N521 Mn505 2.282 . S
N521 C522 1.328 . S
N521 C526 1.318 . S
C522 N521 1.328 . S
C522 C523 1.457 . S
C522 H527 0.929 . S
C523 C522 1.457 . S
C523 C524 1.291 1_554 S
C523 H536 0.931 . S
C524 C523 1.291 1_556 S
C524 C525 1.373 . S
C524 H537 0.929 . S
C525 C524 1.373 . S
C525 C526 1.396 1_556 S
C525 C532 1.403 . S
C526 C516 1.476 . S
C526 N521 1.318 . S
C526 C525 1.396 1_554 S
H527 C522 0.929 . S
O528 Mn504 2.385 . S
O528 C506 1.234 . S
O529 Mn504 2.209 . S
O529 Mn505 2.215 . S
O529 C506 1.283 . S
O530 Mn504 2.094 . S
O530 C508 1.240 . S
O531 Mn505 2.117 . S
O531 C508 1.264 . S
C532 C525 1.403 . S
C532 C533 1.399 . S
C532 H538 0.929 . S
C533 C513 1.449 . S
C533 C532 1.399 . S
C533 H539 0.930 . S
H534 C514 0.931 . S
H535 C515 0.930 1_556 S
H536 C523 0.931 . S
H537 C524 0.929 . S
H538 C532 0.929 . S
H539 C533 0.930 . S
Mn540 O545 2.095 . S
Mn540 O555 2.162 . S
Mn540 O556 2.297 . S
Mn540 O564 2.385 . S
Mn540 O565 2.209 . S
Mn540 O566 2.094 . S
Mn541 O546 2.121 . S
Mn541 N548 2.257 . S
Mn541 N557 2.282 . S
Mn541 O565 2.215 . S
Mn541 O567 2.117 . S
C542 O564 1.234 . S
C542 O565 1.283 . S
C543 O555 1.281 . S
C543 O556 1.236 . S
C544 O566 1.240 . S
C544 O567 1.264 . S
O545 Mn540 2.095 . S
O545 C554 1.250 . S
O546 Mn541 2.121 . S
O546 C554 1.258 . S
C547 N548 1.326 . S
C547 C551 1.460 . S
C547 H553 0.929 . S
N548 Mn541 2.257 . S
N548 C547 1.326 . S
N548 C552 1.362 . S
C549 C550 1.258 . S
C549 C552 1.431 1_556 S
C549 C569 1.449 . S
C550 C549 1.258 . S
C550 C551 1.477 1_556 S
C550 H570 0.931 . S
C551 C547 1.460 . S
C551 C550 1.477 1_554 S
C551 H571 0.930 1_554 S
C552 N548 1.362 . S
C552 C549 1.431 1_554 S
C552 C562 1.476 . S
H553 C547 0.929 . S
C554 O545 1.250 . S
C554 O546 1.258 . S
O555 Mn540 2.162 . S
O555 C543 1.281 . S
O556 Mn540 2.297 . S
O556 C543 1.236 . S
N557 Mn541 2.282 . S
N557 C558 1.328 . S
N557 C562 1.318 . S
C558 N557 1.328 . S
C558 C559 1.457 . S
C558 H563 0.929 . S
C559 C558 1.457 . S
C559 C560 1.291 1_554 S
C559 H572 0.931 . S
C560 C559 1.291 1_556 S
C560 C561 1.373 . S
C560 H573 0.929 . S
C561 C560 1.373 . S
C561 C562 1.396 1_556 S
C561 C568 1.403 . S
C562 C552 1.476 . S
C562 N557 1.318 . S
C562 C561 1.396 1_554 S
H563 C558 0.929 . S
O564 Mn540 2.385 . S
O564 C542 1.234 . S
O565 Mn540 2.209 . S
O565 Mn541 2.215 . S
O565 C542 1.283 . S
O566 Mn540 2.094 . S
O566 C544 1.240 . S
O567 Mn541 2.117 . S
O567 C544 1.264 . S
C568 C561 1.403 . S
C568 C569 1.399 . S
C568 H574 0.929 . S
C569 C549 1.449 . S
C569 C568 1.399 . S
C569 H575 0.930 . S
H570 C550 0.931 . S
H571 C551 0.930 1_556 S
H572 C559 0.931 . S
H573 C560 0.929 . S
H574 C568 0.929 . S
H575 C569 0.930 . S
C576 C577 1.387 . S
C576 H580 0.950 . S
C576 C585 1.390 . S
C577 C576 1.387 . S
C577 C579 1.387 . S
H578 C585 0.950 . S
C579 C577 1.387 . S
C579 C581 1.390 . S
C579 H583 0.950 . S
H580 C576 0.950 . S
C581 C579 1.390 . S
C581 C582 1.387 . S
C581 H584 0.950 . S
C582 C581 1.387 . S
C582 C585 1.387 . S
H583 C579 0.950 . S
H584 C581 0.950 . S
C585 C576 1.390 . S
C585 H578 0.950 . S
C585 C582 1.387 . S
C586 C587 1.387 . S
C586 H590 0.950 . S
C586 C595 1.390 . S
C587 C586 1.387 . S
C587 C589 1.387 . S
H588 C595 0.950 . S
C589 C587 1.387 . S
C589 C591 1.390 . S
C589 H593 0.950 . S
H590 C586 0.950 . S
C591 C589 1.390 . S
C591 C592 1.387 . S
C591 H594 0.950 . S
C592 C591 1.387 . S
C592 C595 1.387 . S
H593 C589 0.950 . S
H594 C591 0.950 . S
C595 C586 1.390 . S
C595 H588 0.950 . S
C595 C592 1.387 . S
C596 C597 1.387 . S
C596 H600 0.950 . S
C596 C605 1.390 . S
C597 C596 1.387 . S
C597 C599 1.387 . S
H598 C605 0.950 . S
C599 C597 1.387 . S
C599 C601 1.390 . S
C599 H603 0.950 . S
H600 C596 0.950 . S
C601 C599 1.390 . S
C601 C602 1.387 . S
C601 H604 0.950 . S
C602 C601 1.387 . S
C602 C605 1.387 . S
H603 C599 0.950 . S
H604 C601 0.950 . S
C605 C596 1.390 . S
C605 H598 0.950 . S
C605 C602 1.387 . S
C606 C607 1.387 . S
C606 H610 0.950 . S
C606 C615 1.390 . S
C607 C606 1.387 . S
C607 C609 1.387 . S
H608 C615 0.950 . S
C609 C607 1.387 . S
C609 C611 1.390 . S
C609 H613 0.950 . S
H610 C606 0.950 . S
C611 C609 1.390 . S
C611 C612 1.387 . S
C611 H614 0.950 . S
C612 C611 1.387 . S
C612 C615 1.387 . S
H613 C609 0.950 . S
H614 C611 0.950 . S
C615 C606 1.390 . S
C615 H608 0.950 . S
C615 C612 1.387 . S
C616 C617 1.387 . S
C616 H620 0.950 . S
C616 C625 1.390 . S
C617 C616 1.387 . S
C617 C619 1.387 . S
H618 C625 0.950 . S
C619 C617 1.387 . S
C619 C621 1.390 . S
C619 H623 0.950 . S
H620 C616 0.950 . S
C621 C619 1.390 . S
C621 C622 1.387 . S
C621 H624 0.950 . S
C622 C621 1.387 . S
C622 C625 1.387 . S
H623 C619 0.950 . S
H624 C621 0.950 . S
C625 C616 1.390 . S
C625 H618 0.950 . S
C625 C622 1.387 . S
C626 C627 1.387 . S
C626 H630 0.950 . S
C626 C635 1.390 . S
C627 C626 1.387 . S
C627 C629 1.387 . S
H628 C635 0.950 . S
C629 C627 1.387 . S
C629 C631 1.390 . S
C629 H633 0.950 . S
H630 C626 0.950 . S
C631 C629 1.390 . S
C631 C632 1.387 . S
C631 H634 0.950 . S
C632 C631 1.387 . S
C632 C635 1.387 . S
H633 C629 0.950 . S
H634 C631 0.950 . S
C635 C626 1.390 . S
C635 H628 0.950 . S
C635 C632 1.387 . S
C636 C637 1.387 . S
C636 H640 0.950 . S
C636 C645 1.390 . S
C637 C636 1.387 . S
C637 C639 1.387 . S
H638 C645 0.950 . S
C639 C637 1.387 . S
C639 C641 1.390 . S
C639 H643 0.950 . S
H640 C636 0.950 . S
C641 C639 1.390 . S
C641 C642 1.387 . S
C641 H644 0.950 . S
C642 C641 1.387 . S
C642 C645 1.387 . S
H643 C639 0.950 . S
H644 C641 0.950 . S
C645 C636 1.390 . S
C645 H638 0.950 . S
C645 C642 1.387 . S
C646 C647 1.387 . S
C646 H650 0.950 . S
C646 C655 1.390 . S
C647 C646 1.387 . S
C647 C649 1.387 . S
H648 C655 0.950 . S
C649 C647 1.387 . S
C649 C651 1.390 . S
C649 H653 0.950 . S
H650 C646 0.950 . S
C651 C649 1.390 . S
C651 C652 1.387 . S
C651 H654 0.950 . S
C652 C651 1.387 . S
C652 C655 1.387 . S
H653 C649 0.950 . S
H654 C651 0.950 . S
C655 C646 1.390 . S
C655 H648 0.950 . S
C655 C652 1.387 . S
C656 C657 1.387 . S
C656 H660 0.950 . S
C656 C665 1.390 . S
C657 C656 1.387 . S
C657 C659 1.387 . S
H658 C665 0.950 . S
C659 C657 1.387 . S
C659 C661 1.390 . S
C659 H663 0.950 . S
H660 C656 0.950 . S
C661 C659 1.390 . S
C661 C662 1.387 . S
C661 H664 0.950 . S
C662 C661 1.387 . S
C662 C665 1.387 . S
H663 C659 0.950 . S
H664 C661 0.950 . S
C665 C656 1.390 . S
C665 H658 0.950 . S
C665 C662 1.387 . S
C666 C667 1.387 . S
C666 H670 0.950 . S
C666 C675 1.390 . S
C667 C666 1.387 . S
C667 C669 1.387 . S
H668 C675 0.950 . S
C669 C667 1.387 . S
C669 C671 1.390 . S
C669 H673 0.950 . S
H670 C666 0.950 . S
C671 C669 1.390 . S
C671 C672 1.387 . S
C671 H674 0.950 . S
C672 C671 1.387 . S
C672 C675 1.387 . S
H673 C669 0.950 . S
H674 C671 0.950 . S
C675 C666 1.390 . S
C675 H668 0.950 . S
C675 C672 1.387 . S
C676 C677 1.387 . S
C676 H680 0.950 . S
C676 C685 1.390 . S
C677 C676 1.387 . S
C677 C679 1.387 . S
H678 C685 0.950 . S
C679 C677 1.387 . S
C679 C681 1.390 . S
C679 H683 0.950 . S
H680 C676 0.950 . S
C681 C679 1.390 . S
C681 C682 1.387 . S
C681 H684 0.950 . S
C682 C681 1.387 . S
C682 C685 1.387 . S
H683 C679 0.950 . S
H684 C681 0.950 . S
C685 C676 1.390 . S
C685 H678 0.950 . S
C685 C682 1.387 . S
C686 C687 1.387 . S
C686 H690 0.950 . S
C686 C695 1.390 . S
C687 C686 1.387 . S
C687 C689 1.387 . S
H688 C695 0.950 . S
C689 C687 1.387 . S
C689 C691 1.390 . S
C689 H693 0.950 . S
H690 C686 0.950 . S
C691 C689 1.390 . S
C691 C692 1.387 . S
C691 H694 0.950 . S
C692 C691 1.387 . S
C692 C695 1.387 . S
H693 C689 0.950 . S
H694 C691 0.950 . S
C695 C686 1.390 . S
C695 H688 0.950 . S
C695 C692 1.387 . S
C696 C697 1.387 . S
C696 H700 0.950 . S
C696 C705 1.390 . S
C697 C696 1.387 . S
C697 C699 1.387 . S
H698 C705 0.950 . S
C699 C697 1.387 . S
C699 C701 1.390 . S
C699 H703 0.950 . S
H700 C696 0.950 . S
C701 C699 1.390 . S
C701 C702 1.387 . S
C701 H704 0.950 . S
C702 C701 1.387 . S
C702 C705 1.387 . S
H703 C699 0.950 . S
H704 C701 0.950 . S
C705 C696 1.390 . S
C705 H698 0.950 . S
C705 C702 1.387 . S
C706 C707 1.387 . S
C706 H710 0.950 . S
C706 C715 1.390 . S
C707 C706 1.387 . S
C707 C709 1.387 . S
H708 C715 0.950 . S
C709 C707 1.387 . S
C709 C711 1.390 . S
C709 H713 0.950 . S
H710 C706 0.950 . S
C711 C709 1.390 . S
C711 C712 1.387 . S
C711 H714 0.950 . S
C712 C711 1.387 . S
C712 C715 1.387 . S
H713 C709 0.950 . S
H714 C711 0.950 . S
C715 C706 1.390 . S
C715 H708 0.950 . S
C715 C712 1.387 . S
C716 C717 1.387 . S
C716 H720 0.950 . S
C716 C725 1.390 . S
C717 C716 1.387 . S
C717 C719 1.387 . S
H718 C725 0.950 . S
C719 C717 1.387 . S
C719 C721 1.390 . S
C719 H723 0.950 . S
H720 C716 0.950 . S
C721 C719 1.390 . S
C721 C722 1.387 . S
C721 H724 0.950 . S
C722 C721 1.387 . S
C722 C725 1.387 . S
H723 C719 0.950 . S
H724 C721 0.950 . S
C725 C716 1.390 . S
C725 H718 0.950 . S
C725 C722 1.387 . S
C726 C727 1.387 . S
C726 H730 0.950 . S
C726 C735 1.390 . S
C727 C726 1.387 . S
C727 C729 1.387 . S
H728 C735 0.950 . S
C729 C727 1.387 . S
C729 C731 1.390 . S
C729 H733 0.950 . S
H730 C726 0.950 . S
C731 C729 1.390 . S
C731 C732 1.387 . S
C731 H734 0.950 . S
C732 C731 1.387 . S
C732 C735 1.387 . S
H733 C729 0.950 . S
H734 C731 0.950 . S
C735 C726 1.390 . S
C735 H728 0.950 . S
C735 C732 1.387 . S
C736 C737 1.387 . S
C736 H740 0.950 . S
C736 C745 1.390 . S
C737 C736 1.387 . S
C737 C739 1.387 . S
H738 C745 0.950 . S
C739 C737 1.387 . S
C739 C741 1.390 . S
C739 H743 0.950 . S
H740 C736 0.950 . S
C741 C739 1.390 . S
C741 C742 1.387 . S
C741 H744 0.950 . S
C742 C741 1.387 . S
C742 C745 1.387 . S
H743 C739 0.950 . S
H744 C741 0.950 . S
C745 C736 1.390 . S
C745 H738 0.950 . S
C745 C742 1.387 . S
C746 C747 1.387 . S
C746 H750 0.950 . S
C746 C755 1.390 . S
C747 C746 1.387 . S
C747 C749 1.387 . S
H748 C755 0.950 . S
C749 C747 1.387 . S
C749 C751 1.390 . S
C749 H753 0.950 . S
H750 C746 0.950 . S
C751 C749 1.390 . S
C751 C752 1.387 . S
C751 H754 0.950 . S
C752 C751 1.387 . S
C752 C755 1.387 . S
H753 C749 0.950 . S
H754 C751 0.950 . S
C755 C746 1.390 . S
C755 H748 0.950 . S
C755 C752 1.387 . S
C756 C757 1.387 . S
C756 H760 0.950 . S
C756 C765 1.390 . S
C757 C756 1.387 . S
C757 C759 1.387 . S
H758 C765 0.950 . S
C759 C757 1.387 . S
C759 C761 1.390 . S
C759 H763 0.950 . S
H760 C756 0.950 . S
C761 C759 1.390 . S
C761 C762 1.387 . S
C761 H764 0.950 . S
C762 C761 1.387 . S
C762 C765 1.387 . S
H763 C759 0.950 . S
H764 C761 0.950 . S
C765 C756 1.390 . S
C765 H758 0.950 . S
C765 C762 1.387 . S
C766 C767 1.387 . S
C766 H770 0.950 . S
C766 C775 1.390 . S
C767 C766 1.387 . S
C767 C769 1.387 . S
H768 C775 0.950 . S
C769 C767 1.387 . S
C769 C771 1.390 . S
C769 H773 0.950 . S
H770 C766 0.950 . S
C771 C769 1.390 . S
C771 C772 1.387 . S
C771 H774 0.950 . S
C772 C771 1.387 . S
C772 C775 1.387 . S
H773 C769 0.950 . S
H774 C771 0.950 . S
C775 C766 1.390 . S
C775 H768 0.950 . S
C775 C772 1.387 . S
C776 C777 1.387 . S
C776 H780 0.950 . S
C776 C785 1.390 . S
C777 C776 1.387 . S
C777 C779 1.387 . S
H778 C785 0.950 . S
C779 C777 1.387 . S
C779 C781 1.390 . S
C779 H783 0.950 . S
H780 C776 0.950 . S
C781 C779 1.390 . S
C781 C782 1.387 . S
C781 H784 0.950 . S
C782 C781 1.387 . S
C782 C785 1.387 . S
H783 C779 0.950 . S
H784 C781 0.950 . S
C785 C776 1.390 . S
C785 H778 0.950 . S
C785 C782 1.387 . S
C786 C787 1.387 . S
C786 H790 0.950 . S
C786 C795 1.390 . S
C787 C786 1.387 . S
C787 C789 1.387 . S
H788 C795 0.950 . S
C789 C787 1.387 . S
C789 C791 1.390 . S
C789 H793 0.950 . S
H790 C786 0.950 . S
C791 C789 1.390 . S
C791 C792 1.387 . S
C791 H794 0.950 . S
C792 C791 1.387 . S
C792 C795 1.387 . S
H793 C789 0.950 . S
H794 C791 0.950 . S
C795 C786 1.390 . S
C795 H788 0.950 . S
C795 C792 1.387 . S
C796 C797 1.387 . S
C796 H800 0.950 . S
C796 C805 1.390 . S
C797 C796 1.387 . S
C797 C799 1.387 . S
H798 C805 0.950 . S
C799 C797 1.387 . S
C799 C801 1.390 . S
C799 H803 0.950 . S
H800 C796 0.950 . S
C801 C799 1.390 . S
C801 C802 1.387 . S
C801 H804 0.950 . S
C802 C801 1.387 . S
C802 C805 1.387 . S
H803 C799 0.950 . S
H804 C801 0.950 . S
C805 C796 1.390 . S
C805 H798 0.950 . S
C805 C802 1.387 . S
C806 C807 1.387 . S
C806 H810 0.950 . S
C806 C815 1.390 . S
C807 C806 1.387 . S
C807 C809 1.387 . S
H808 C815 0.950 . S
C809 C807 1.387 . S
C809 C811 1.390 . S
C809 H813 0.950 . S
H810 C806 0.950 . S
C811 C809 1.390 . S
C811 C812 1.387 . S
C811 H814 0.950 . S
C812 C811 1.387 . S
C812 C815 1.387 . S
H813 C809 0.950 . S
H814 C811 0.950 . S
C815 C806 1.390 . S
C815 H808 0.950 . S
C815 C812 1.387 . S
C816 C817 1.387 . S
C816 H820 0.950 . S
C816 C825 1.390 1_455 S
C817 C816 1.387 . S
C817 C819 1.387 . S
H818 C825 0.950 . S
C819 C817 1.387 . S
C819 C821 1.390 1_455 S
C819 H823 0.950 . S
H820 C816 0.950 . S
C821 C819 1.390 1_655 S
C821 C822 1.387 . S
C821 H824 0.950 . S
C822 C821 1.387 . S
C822 C825 1.387 . S
H823 C819 0.950 . S
H824 C821 0.950 . S
C825 C816 1.390 1_655 S
C825 H818 0.950 . S
C825 C822 1.387 . S
C826 C827 1.387 . S
C826 H830 0.950 . S
C826 C835 1.390 1_565 S
C827 C826 1.387 . S
C827 C829 1.387 . S
H828 C835 0.950 . S
C829 C827 1.387 . S
C829 C831 1.390 1_565 S
C829 H833 0.950 . S
H830 C826 0.950 . S
C831 C829 1.390 1_545 S
C831 C832 1.387 . S
C831 H834 0.950 . S
C832 C831 1.387 . S
C832 C835 1.387 . S
H833 C829 0.950 . S
H834 C831 0.950 . S
C835 C826 1.390 1_545 S
C835 H828 0.950 . S
C835 C832 1.387 . S
C836 C837 1.387 . S
C836 H840 0.950 . S
C836 C845 1.390 1_455 S
C837 C836 1.387 . S
C837 C839 1.387 . S
H838 C845 0.950 . S
C839 C837 1.387 . S
C839 C841 1.390 1_455 S
C839 H843 0.950 . S
H840 C836 0.950 . S
C841 C839 1.390 1_655 S
C841 C842 1.387 . S
C841 H844 0.950 . S
C842 C841 1.387 . S
C842 C845 1.387 . S
H843 C839 0.950 . S
H844 C841 0.950 . S
C845 C836 1.390 1_655 S
C845 H838 0.950 . S
C845 C842 1.387 . S
C846 C847 1.387 . S
C846 H850 0.950 . S
C846 C855 1.390 1_545 S
C847 C846 1.387 . S
C847 C849 1.387 . S
H848 C855 0.950 . S
C849 C847 1.387 . S
C849 C851 1.390 1_545 S
C849 H853 0.950 . S
H850 C846 0.950 . S
C851 C849 1.390 1_565 S
C851 C852 1.387 . S
C851 H854 0.950 . S
C852 C851 1.387 . S
C852 C855 1.387 . S
H853 C849 0.950 . S
H854 C851 0.950 . S
C855 C846 1.390 1_565 S
C855 H848 0.950 . S
C855 C852 1.387 . S
C856 C857 1.387 . S
C856 H860 0.950 . S
C856 C865 1.390 1_556 S
C857 C856 1.387 . S
C857 C859 1.387 . S
H858 C865 0.950 . S
C859 C857 1.387 . S
C859 C861 1.390 1_556 S
C859 H863 0.950 . S
H860 C856 0.950 . S
C861 C859 1.390 1_554 S
C861 C862 1.387 . S
C861 H864 0.950 . S
C862 C861 1.387 . S
C862 C865 1.387 . S
H863 C859 0.950 . S
H864 C861 0.950 . S
C865 C856 1.390 1_554 S
C865 H858 0.950 . S
C865 C862 1.387 . S
C866 C867 1.387 . S
C866 H870 0.950 . S
C866 C875 1.390 1_556 S
C867 C866 1.387 . S
C867 C869 1.387 . S
H868 C875 0.950 . S
C869 C867 1.387 . S
C869 C871 1.390 1_556 S
C869 H873 0.950 . S
H870 C866 0.950 . S
C871 C869 1.390 1_554 S
C871 C872 1.387 . S
C871 H874 0.950 . S
C872 C871 1.387 . S
C872 C875 1.387 . S
H873 C869 0.950 . S
H874 C871 0.950 . S
C875 C866 1.390 1_554 S
C875 H868 0.950 . S
C875 C872 1.387 . S
C876 C877 1.387 . S
C876 H880 0.950 . S
C876 C885 1.390 1_554 S
C877 C876 1.387 . S
C877 C879 1.387 . S
H878 C885 0.950 . S
C879 C877 1.387 . S
C879 C881 1.390 1_554 S
C879 H883 0.950 . S
H880 C876 0.950 . S
C881 C879 1.390 1_556 S
C881 C882 1.387 . S
C881 H884 0.950 . S
C882 C881 1.387 . S
C882 C885 1.387 . S
H883 C879 0.950 . S
H884 C881 0.950 . S
C885 C876 1.390 1_556 S
C885 H878 0.950 . S
C885 C882 1.387 . S
C886 C887 1.387 . S
C886 H890 0.950 . S
C886 C895 1.390 1_556 S
C887 C886 1.387 . S
C887 C889 1.387 . S
H888 C895 0.950 . S
C889 C887 1.387 . S
C889 C891 1.390 1_556 S
C889 H893 0.950 . S
H890 C886 0.950 . S
C891 C889 1.390 1_554 S
C891 C892 1.387 . S
C891 H894 0.950 . S
C892 C891 1.387 . S
C892 C895 1.387 . S
H893 C889 0.950 . S
H894 C891 0.950 . S
C895 C886 1.390 1_554 S
C895 H888 0.950 . S
C895 C892 1.387 . S
C577 C14 1.466 . S
C582 C111 1.490 . S
C587 C3 1.492 . S
C592 C50 1.469 . S
C597 C39 1.492 . S
C602 C86 1.469 . S
C607 C75 1.490 . S
C612 C122 1.466 . S
C617 C158 1.466 . S
C622 C183 1.490 . S
C627 C194 1.467 . S
C632 C219 1.490 . S
C637 C230 1.469 . S
C642 C255 1.492 . S
C647 C266 1.466 . S
C652 C147 1.490 . S
C657 C302 1.469 . S
C662 C399 1.492 . S
C667 C291 1.490 . S
C672 C338 1.466 . S
C677 C327 1.491 . S
C682 C374 1.465 . S
C687 C410 1.469 . S
C692 C363 1.492 . S
C697 C471 1.491 . S
C702 C446 1.466 . S
C707 C507 1.490 . S
C712 C482 1.466 . S
C717 C518 1.469 . S
C722 C543 1.492 . S
C727 C554 1.466 . S
C732 C435 1.490 . S
C737 C4 1.317 . S
C742 C544 1.319 . S
C747 C40 1.316 . S
C752 C436 1.318 . S
C757 C472 1.316 . S
C762 C76 1.318 . S
C767 C112 1.319 . S
C772 C508 1.317 . S
C777 C328 1.317 . S
C782 C148 1.319 . S
C787 C364 1.316 . S
C792 C184 1.315 . S
C797 C220 1.315 . S
C802 C400 1.316 . S
C807 C256 1.319 . S
C812 C292 1.317 . S
C817 C2 1.610 . S
C822 C218 1.610 . S
C827 C254 1.610 . S
C832 C38 1.610 . S
C837 C146 1.610 . S
C842 C74 1.610 . S
C847 C182 1.610 . S
C852 C110 1.610 . S
C857 C290 1.610 . S
C862 C506 1.610 . S
C867 C326 1.610 . S
C872 C542 1.610 . S
C877 C434 1.610 . S
C882 C362 1.610 . S
C887 C398 1.610 . S
C892 C470 1.610 . S
