# Generated by pormake.
# Topology qdl, (4)-cn, num edge types: 1
# Building blocks:
#     Node 0, Type 0, BuildingBlock: ESEHIV_clean_sbu_0, # of connection points: 4
#     Node 1, Type 0, BuildingBlock: ESEHIV_clean_sbu_0, # of connection points: 4
#     Node 2, Type 0, BuildingBlock: ESEHIV_clean_sbu_0, # of connection points: 4
#     Node 3, Type 0, BuildingBlock: ESEHIV_clean_sbu_0, # of connection points: 4
#     Node 4, Type 0, BuildingBlock: ESEHIV_clean_sbu_0, # of connection points: 4
#     Node 5, Type 0, BuildingBlock: ESEHIV_clean_sbu_0, # of connection points: 4
#     Edge 6, Type (0, 0), BuildingBlock: TEMPAE_clean_linker_10, # of connection points: 2
#     Edge 7, Type (0, 0), BuildingBlock: TEMPAE_clean_linker_10, # of connection points: 2
#     Edge 8, Type (0, 0), BuildingBlock: TEMPAE_clean_linker_10, # of connection points: 2
#     Edge 9, Type (0, 0), BuildingBlock: TEMPAE_clean_linker_10, # of connection points: 2
#     Edge 10, Type (0, 0), BuildingBlock: TEMPAE_clean_linker_10, # of connection points: 2
#     Edge 11, Type (0, 0), BuildingBlock: TEMPAE_clean_linker_10, # of connection points: 2
#     Edge 12, Type (0, 0), BuildingBlock: TEMPAE_clean_linker_10, # of connection points: 2
#     Edge 13, Type (0, 0), BuildingBlock: TEMPAE_clean_linker_10, # of connection points: 2
#     Edge 14, Type (0, 0), BuildingBlock: TEMPAE_clean_linker_10, # of connection points: 2
#     Edge 15, Type (0, 0), BuildingBlock: TEMPAE_clean_linker_10, # of connection points: 2
#     Edge 16, Type (0, 0), BuildingBlock: TEMPAE_clean_linker_10, # of connection points: 2
#     Edge 17, Type (0, 0), BuildingBlock: TEMPAE_clean_linker_10, # of connection points: 2
# Relax obj value: 0.000
# Max RMSD: 0.129
# Mean RMSD: 0.084
data_MOF--net-qdl--node1-ESEHIV_clean_sbu_0--edge1-TEMPAE_clean_linker_10
_symmetry_space_group_name_H-M    P1
_symmetry_Int_Tables_number       1
_symmetry_cell_setting            triclinic
loop_
_symmetry_equiv_pos_as_xyz
'x, y, z'
_cell_length_a     15.160971
_cell_length_b     17.751464
_cell_length_c     95.304782
_cell_angle_alpha  100.168
_cell_angle_beta   100.12847
_cell_angle_gamma 115.40357
loop_
_atom_site_label
_atom_site_type_symbol
_atom_site_fract_x
_atom_site_fract_y
_atom_site_fract_z
_atom_type_partial_charge
Cu0 Cu 0.18357 0.12485 0.08416 0.0
N1 N 0.1073 1.00065 0.078 0.0
N2 N 0.06848 0.85959 0.07514 0.0
C3 C 0.13816 0.94417 0.08205 0.0
C4 C 0.99056 0.86374 0.06651 0.0
C5 C 1.01457 0.94996 0.06827 0.0
O6 O 0.2533 0.15691 0.10545 0.0
C7 C 0.26827 0.11041 0.0597 0.0
O8 O 0.22747 0.02741 0.05892 0.0
H9 H 0.21174 0.96509 0.08963 0.0
H10 H 0.96803 0.974 0.06269 0.0
N11 N 0.10429 0.18373 0.08262 0.0
N12 N 0.06519 0.29283 0.08185 0.0
C13 C 0.13803 0.2673 0.08212 0.0
C14 C 1.00656 0.15532 0.08261 0.0
C15 C 0.98238 0.22183 0.08213 0.0
C16 C 0.19361 0.12058 0.11294 0.0
O17 O 0.09646 0.07031 0.10597 0.0
H18 H 0.2155 0.30917 0.08231 0.0
H19 H 0.95648 0.09098 0.08309 0.0
O20 O 0.2688 0.16325 0.07077 0.0
H21 H 0.9204 0.80839 0.0594 0.0
H22 H 0.90879 0.21762 0.08191 0.0
Cu23 Cu 0.25578 0.17656 0.4206 0.0
N24 N 0.21788 0.1169 0.40022 0.0
N25 N 0.21118 0.09517 0.37598 0.0
C26 C 0.25672 0.15187 0.38979 0.0
C27 C 0.14083 1.02184 0.37787 0.0
C28 C 0.1449 0.03539 0.3927 0.0
O29 O 0.40551 0.2415 0.42641 0.0
C30 C 0.08523 0.19835 0.41706 0.0
O31 O 0.04793 0.11547 0.4103 0.0
H32 H 0.31641 0.21813 0.3923 0.0
H33 H 0.09428 0.98993 0.39744 0.0
N34 N 0.21656 0.10287 0.43296 0.0
N35 N 0.18555 0.06229 0.45333 0.0
C36 C 0.22402 0.12968 0.44752 0.0
C37 C 0.17326 1.01548 0.4296 0.0
C38 C 0.15331 0.99036 0.44208 0.0
C39 C 0.44948 0.19476 0.42784 0.0
O40 O 0.39261 0.11154 0.42613 0.0
H41 H 0.25535 0.19724 0.45366 0.0
H42 H 0.15837 0.97259 0.41893 0.0
O43 O 0.1816 0.24394 0.42273 0.0
H44 H 0.08667 0.96356 0.36906 0.0
H45 H 0.11931 0.92439 0.44291 0.0
Cu46 Cu 0.03693 0.13661 0.76587 0.0
N47 N 0.89592 0.06868 0.76401 0.0
N48 N 0.74998 0.9573 0.76433 0.0
C49 C 0.84696 0.98351 0.76358 0.0
C50 C 0.73777 0.02883 0.76517 0.0
C51 C 0.82715 0.09683 0.76504 0.0
O52 O 0.10738 0.14053 0.78562 0.0
C53 C 1.00764 0.06598 0.73604 0.0
O54 O 0.92321 0.071 0.73551 0.0
H55 H 0.88342 0.94276 0.76344 0.0
H56 H 0.84203 0.16324 0.76639 0.0
N57 N 0.07612 0.252 0.76489 0.0
N58 N 0.17647 0.38569 0.7632 0.0
C59 C 0.17275 0.31711 0.76803 0.0
C60 C 1.01718 0.28057 0.7578 0.0
C61 C 0.07817 0.36258 0.75688 0.0
C62 C 0.07642 0.168 0.79603 0.0
O63 O 1.01127 0.19702 0.7927 0.0
H64 H 0.23926 0.31173 0.77284 0.0
H65 H 0.93609 0.24241 0.7527 0.0
O66 O 0.06948 0.08628 0.74876 0.0
H67 H 0.66946 0.03248 0.76607 0.0
H68 H 0.05188 0.40096 0.75149 0.0
Cu69 Cu 0.18813 0.12039 0.6005 0.0
N70 N 0.15393 0.05144 0.61372 0.0
N71 N 0.12927 1.01826 0.63494 0.0
C72 C 0.15134 0.08033 0.62767 0.0
C73 C 0.1173 0.94749 0.62505 0.0
C74 C 0.13293 0.96812 0.61211 0.0
O75 O 0.1131 0.18719 0.60219 0.0
C76 C 0.38058 0.13793 0.60594 0.0
O77 O 0.32254 0.05377 0.60305 0.0
H78 H 0.16796 0.14656 0.63246 0.0
H79 H 0.13214 0.92556 0.60243 0.0
N80 N 0.14873 0.0563 0.58036 0.0
N81 N 0.13966 0.02941 0.55611 0.0
C82 C 0.17403 0.09103 0.56921 0.0
C83 C 0.09514 0.96975 0.57396 0.0
C84 C 0.09025 0.95304 0.55906 0.0
C85 C 1.018 0.14422 0.59538 0.0
O86 O 0.98125 0.06339 0.58743 0.0
H87 H 0.21853 0.16009 0.57074 0.0
H88 H 0.06062 0.92175 0.57956 0.0
O89 O 0.33775 0.1862 0.6058 0.0
H90 H 0.09865 0.88477 0.62692 0.0
H91 H 0.05202 0.88973 0.55096 0.0
Cu92 Cu 0.18195 0.25382 0.93313 0.0
N93 N 0.23298 0.37637 0.9368 0.0
N94 N 0.33623 0.51639 0.93814 0.0
C95 C 0.32071 0.43319 0.93464 0.0
C96 C 0.25452 0.51104 0.94266 0.0
C97 C 0.19151 0.42538 0.94181 0.0
O98 O 0.21015 0.21545 0.91453 0.0
C99 C 0.21183 0.251 0.96213 0.0
O100 O 0.14767 0.28249 0.96052 0.0
H101 H 0.37234 0.41362 0.93064 0.0
H102 H 0.12001 0.40054 0.94456 0.0
N103 N 0.03917 0.18665 0.93012 0.0
N104 N 0.88903 0.0744 0.9291 0.0
C105 C 0.99181 0.10762 0.93255 0.0
C106 C 0.96368 0.20411 0.92497 0.0
C107 C 0.87172 0.13558 0.92433 0.0
C108 C 0.18333 0.2444 0.9041 0.0
O109 O 0.13869 0.29254 0.90659 0.0
H110 H 0.0323 0.07469 0.93658 0.0
H111 H 0.97458 0.26254 0.92186 0.0
O112 O 0.24455 0.2345 0.95111 0.0
H113 H 0.23981 0.56495 0.94609 0.0
H114 H 0.79784 0.13195 0.92078 0.0
Cu115 Cu 0.13655 0.12865 0.24262 0.0
N116 N 0.05898 0.18956 0.24123 0.0
N117 N 1.02098 0.29909 0.24039 0.0
C118 C 0.09481 0.27452 0.24154 0.0
C119 C 0.93547 0.22621 0.23925 0.0
C120 C 0.95889 0.15936 0.23974 0.0
O121 O 0.22074 0.16067 0.22892 0.0
C122 C 0.14231 0.13603 0.27155 0.0
O123 O 0.04473 0.09889 0.2646 0.0
H124 H 0.17392 0.31761 0.24273 0.0
H125 H 0.90634 0.09324 0.23906 0.0
N126 N 0.06016 1.005 0.23646 0.0
N127 N 0.02329 0.86445 0.23353 0.0
C128 C 0.09184 0.94913 0.24054 0.0
C129 C 0.96823 0.95381 0.22654 0.0
C130 C 0.94539 0.86781 0.22474 0.0
C131 C 0.16932 0.15268 0.21606 0.0
O132 O 0.07067 0.1232 0.2135 0.0
H133 H 0.1652 0.97052 0.24823 0.0
H134 H 0.92155 0.97728 0.22082 0.0
O135 O 0.20539 0.15841 0.26384 0.0
H136 H 0.86043 0.22081 0.23792 0.0
H137 H 0.87617 0.81204 0.21749 0.0
C138 C 0.13925 0.78074 0.08891 0.0
C139 C 0.07538 0.78109 0.07629 0.0
C140 C 0.14371 0.70407 0.09024 0.0
C141 C 0.08321 0.62494 0.07869 0.0
C142 C 1.01999 0.62531 0.06585 0.0
C143 C 1.01686 0.70263 0.06481 0.0
C144 C 0.21214 0.70748 0.10417 0.0
C145 C 0.95441 0.54339 0.05317 0.0
C146 C 0.14517 0.43438 0.07575 0.0
C147 C 0.07311 0.37759 0.08157 0.0
C148 C 0.15055 0.51519 0.07497 0.0
C149 C 0.08273 0.5411 0.08017 0.0
C150 C 1.01128 0.48484 0.08631 0.0
C151 C 1.0073 0.40447 0.08691 0.0
C152 C 0.22785 0.57226 0.06829 0.0
C153 C 0.93777 0.5091 0.09212 0.0
H154 H 0.18442 0.84008 0.09793 0.0
H155 H 0.96855 0.70142 0.05487 0.0
H156 H 0.16567 0.66394 0.11004 0.0
H157 H 0.26518 0.68363 0.10127 0.0
H158 H 0.25738 0.77423 0.1119 0.0
H159 H 0.91167 0.55454 0.04375 0.0
H160 H 1.00229 0.51688 0.04905 0.0
H161 H 0.89902 0.4931 0.05713 0.0
H162 H 0.19609 0.41487 0.07148 0.0
H163 H 0.95245 0.36273 0.09168 0.0
H164 H 0.27618 0.63795 0.07624 0.0
H165 H 0.18825 0.58037 0.05817 0.0
H166 H 0.27775 0.54492 0.06525 0.0
H167 H 0.98014 0.57299 0.1007 0.0
H168 H 0.88915 0.46006 0.09702 0.0
H169 H 0.88777 0.51577 0.08296 0.0
C170 C 0.60656 0.1816 0.43553 0.0
C171 C 0.56051 0.2277 0.42979 0.0
C172 C 0.70444 0.19764 0.4348 0.0
C173 C 0.75865 0.26161 0.42814 0.0
C174 C 0.71608 0.31338 0.4234 0.0
C175 C 0.61728 0.29582 0.42428 0.0
C176 C 0.74615 0.14092 0.44011 0.0
C177 C 0.77167 0.38316 0.41646 0.0
C178 C 0.02894 0.29475 0.43159 0.0
C179 C 1.01201 0.23203 0.41874 0.0
C180 C 0.94903 0.31079 0.43437 0.0
C181 C 0.85046 0.26301 0.42407 0.0
C182 C 0.83608 0.2051 0.41055 0.0
C183 C 0.91664 0.1904 0.40809 0.0
C184 C 0.96835 0.37418 0.4488 0.0
C185 C 0.73313 0.15288 0.39915 0.0
H186 H 0.56382 0.12958 0.43999 0.0
H187 H 0.58237 0.33177 0.41981 0.0
H188 H 0.74706 0.09664 0.43039 0.0
H189 H 0.82563 0.18125 0.44728 0.0
H190 H 0.69989 0.10079 0.44643 0.0
H191 H 0.73967 0.42887 0.41624 0.0
H192 H 0.85389 0.42053 0.42256 0.0
H193 H 0.76502 0.35251 0.40485 0.0
H194 H 0.1023 0.32705 0.43989 0.0
H195 H 0.90327 0.14255 0.39804 0.0
H196 H 0.93766 0.33773 0.45666 0.0
H197 H 0.929 0.4134 0.44704 0.0
H198 H 0.05098 0.4187 0.45404 0.0
H199 H 0.68011 0.10431 0.40366 0.0
H200 H 0.73706 0.11781 0.38859 0.0
H201 H 0.70034 0.19574 0.39665 0.0
C202 C 0.6017 0.86682 0.77241 0.0
C203 C 0.67593 0.87303 0.765 0.0
C204 C 0.52583 0.78583 0.77258 0.0
C205 C 0.52277 0.70789 0.76511 0.0
C206 C 0.59891 0.71354 0.7579 0.0
C207 C 0.67457 0.79577 0.75798 0.0
C208 C 0.44739 0.78374 0.78054 0.0
C209 C 0.59878 0.63252 0.74974 0.0
C210 C 0.35775 0.49957 0.7746 0.0
C211 C 0.26554 0.46366 0.76336 0.0
C212 C 0.44277 0.57765 0.77515 0.0
C213 C 0.4363 0.62107 0.76414 0.0
C214 C 0.34437 0.58368 0.75256 0.0
C215 C 0.26072 0.50611 0.75232 0.0
C216 C 0.53878 0.61491 0.78774 0.0
C217 C 0.33354 0.6266 0.74049 0.0
H218 H 0.60281 0.92569 0.77815 0.0
H219 H 0.73095 0.79943 0.75217 0.0
H220 H 0.37079 0.75079 0.77242 0.0
H221 H 0.4449 0.74576 0.78868 0.0
H222 H 0.46319 0.84989 0.78649 0.0
H223 H 0.66634 0.6476 0.74548 0.0
H224 H 0.59722 0.59065 0.75716 0.0
H225 H 0.52911 0.59435 0.74021 0.0
H226 H 0.36261 0.46784 0.7832 0.0
H227 H 0.19118 0.47846 0.74338 0.0
H228 H 0.55327 0.67841 0.7947 0.0
H229 H 0.60504 0.62706 0.7833 0.0
H230 H 0.53415 0.57116 0.79492 0.0
H231 H 0.34097 0.69126 0.74542 0.0
H232 H 0.25909 0.58729 0.73184 0.0
H233 H 0.39527 0.63737 0.73507 0.0
C234 C 0.55068 0.24191 0.60338 0.0
C235 C 0.4917 0.17074 0.60808 0.0
C236 C 0.64977 0.2598 0.60259 0.0
C237 C 0.69025 0.20521 0.60659 0.0
C238 C 0.63359 0.13777 0.61245 0.0
C239 C 0.53559 0.12153 0.6131 0.0
C240 C 0.70805 0.33332 0.59654 0.0
C241 C 0.67294 0.07791 0.61695 0.0
C242 C 0.85128 0.13993 0.5863 0.0
C243 C 0.94486 0.17779 0.59727 0.0
C244 C 0.77063 0.15448 0.58878 0.0
C245 C 0.78306 0.2083 0.60264 0.0
C246 C 0.8801 0.2526 0.61333 0.0
C247 C 0.9601 0.23683 0.61052 0.0
C248 C 0.66932 0.10608 0.57697 0.0
C249 C 0.89742 0.31164 0.62815 0.0
H250 H 0.51737 0.28022 0.59946 0.0
H251 H 0.49105 0.06707 0.61694 0.0
H252 H 0.78989 0.36876 0.60285 0.0
H253 H 0.70261 0.30654 0.5848 0.0
H254 H 0.67729 0.38005 0.59692 0.0
H255 H 0.62439 0.03438 0.62264 0.0
H256 H 0.67526 0.03694 0.60692 0.0
H257 H 0.75163 0.11607 0.62446 0.0
H258 H 0.83921 0.09504 0.57595 0.0
H259 H 0.03207 0.2663 0.61907 0.0
H260 H 0.63815 0.15075 0.57501 0.0
H261 H 0.61402 0.05481 0.58078 0.0
H262 H 0.67513 0.07471 0.56625 0.0
H263 H 0.85958 0.35238 0.62681 0.0
H264 H 0.97981 0.35471 0.63382 0.0
H265 H 0.86383 0.27167 0.63542 0.0
C266 C 0.47774 0.59002 0.92718 0.0
C267 C 0.42049 0.59459 0.93713 0.0
C268 C 0.55701 0.66593 0.92579 0.0
C269 C 0.58094 0.74934 0.93457 0.0
C270 C 0.52458 0.75421 0.94479 0.0
C271 C 0.44568 0.67747 0.94593 0.0
C272 C 0.61417 0.65687 0.9147 0.0
C273 C 0.54692 0.84095 0.95448 0.0
C274 C 0.83883 0.94936 0.94012 0.0
C275 C 0.81322 0.99161 0.93018 0.0
C276 C 0.76497 0.87044 0.94153 0.0
C277 C 0.66216 0.83161 0.93277 0.0
C278 C 0.63624 0.87325 0.92258 0.0
C279 C 0.71139 0.95207 0.92142 0.0
C280 C 0.7968 0.82923 0.95259 0.0
C281 C 0.52837 0.83483 0.91292 0.0
H282 H 0.45915 0.52707 0.9202 0.0
H283 H 0.40391 0.68262 0.95384 0.0
H284 H 0.60255 0.68938 0.90615 0.0
H285 H 0.69705 0.68963 0.92033 0.0
H286 H 0.58923 0.58778 0.90905 0.0
H287 H 0.49865 0.83403 0.96219 0.0
H288 H 0.62804 0.87728 0.96113 0.0
H289 H 0.53395 0.88076 0.94743 0.0
H290 H 0.91643 0.9789 0.94708 0.0
H291 H 0.69007 0.98247 0.91352 0.0
H292 H 0.7765 0.76138 0.94693 0.0
H293 H 0.75519 0.82639 0.96114 0.0
H294 H 0.87986 0.8656 0.95826 0.0
H295 H 0.50241 0.76742 0.90624 0.0
H296 H 0.52061 0.87344 0.90525 0.0
H297 H 0.47674 0.83136 0.92 0.0
C298 C 0.10557 0.44296 0.23525 0.0
C299 C 0.02963 0.38412 0.24025 0.0
C300 C 0.11113 0.52378 0.23445 0.0
C301 C 0.03958 0.54753 0.23885 0.0
C302 C 0.9643 0.48923 0.2442 0.0
C303 C 0.96016 0.40886 0.2448 0.0
C304 C 0.19249 0.58306 0.2286 0.0
C305 C 0.88682 0.51125 0.24915 0.0
C306 C 0.0916 0.7858 0.2477 0.0
C307 C 0.03126 0.78656 0.23474 0.0
C308 C 0.09644 0.70943 0.24912 0.0
C309 C 0.04021 0.63122 0.23729 0.0
C310 C 0.98095 0.63217 0.22409 0.0
C311 C 0.97707 0.70909 0.223 0.0
C312 C 0.16033 0.71206 0.26343 0.0
C313 C 0.92033 0.55126 0.2111 0.0
H314 H 0.1593 0.42494 0.23158 0.0
H315 H 0.9022 0.36531 0.24894 0.0
H316 H 0.15654 0.59161 0.21823 0.0
H317 H 0.23761 0.64835 0.23676 0.0
H318 H 0.24502 0.55733 0.22621 0.0
H319 H 0.83565 0.46088 0.25359 0.0
H320 H 0.92589 0.57455 0.25788 0.0
H321 H 0.83962 0.51805 0.23965 0.0
H322 H 0.13336 0.84448 0.2569 0.0
H323 H 0.93162 0.70848 0.21282 0.0
H324 H 0.21572 0.68974 0.26112 0.0
H325 H 0.11086 0.66693 0.26881 0.0
H326 H 0.20269 0.77827 0.27138 0.0
H327 H 0.97108 0.52629 0.2076 0.0
H328 H 0.88109 0.56309 0.20141 0.0
H329 H 0.86229 0.49954 0.21447 0.0
C330 C 0.16971 0.20514 0.19364 0.0
C331 C 0.21445 0.1742 0.20375 0.0
C332 C 0.192 0.20832 0.18002 0.0
C333 C 0.26061 0.17922 0.17625 0.0
C334 C 0.31292 0.15498 0.18696 0.0
C335 C 0.28927 0.15281 0.20065 0.0
C336 C 0.13477 0.23555 0.16914 0.0
C337 C 0.38794 0.12498 0.18354 0.0
C338 C 0.17087 0.06607 0.135 0.0
C339 C 0.22784 0.13239 0.12917 0.0
C340 C 0.18686 0.07851 0.15036 0.0
C341 C 0.26176 0.15983 0.16033 0.0
C342 C 0.32508 0.22508 0.15457 0.0
C343 C 0.30748 0.21058 0.13902 0.0
C344 C 0.11779 1.00643 0.15583 0.0
C345 C 0.40685 0.31216 0.16477 0.0
H346 H 0.11275 0.22289 0.19607 0.0
H347 H 0.32408 0.12877 0.20841 0.0
H348 H 0.18753 0.28209 0.16432 0.0
H349 H 0.07813 0.17763 0.15985 0.0
H350 H 0.09384 0.2662 0.17439 0.0
H351 H 0.4377 0.12691 0.19381 0.0
H352 H 0.34588 0.05703 0.17628 0.0
H353 H 0.43626 0.16566 0.1775 0.0
H354 H 0.11028 1.00484 0.12747 0.0
H355 H 0.352 0.26209 0.1346 0.0
H356 H 0.06592 0.02576 0.16047 0.0
H357 H 0.16303 0.99479 0.16485 0.0
H358 H 0.07077 0.94443 0.14683 0.0
H359 H 0.3713 0.35208 0.16859 0.0
H360 H 0.46248 0.34815 0.15908 0.0
H361 H 0.44813 0.30432 0.17477 0.0
C362 C 0.1358 0.10465 0.53669 0.0
C363 C 0.15272 0.04153 0.54189 0.0
C364 C 0.14186 0.11299 0.5224 0.0
C365 C 0.16863 0.05869 0.51328 0.0
C366 C 0.18913 0.99685 0.51875 0.0
C367 C 0.1793 0.98813 0.53286 0.0
C368 C 0.11649 0.17795 0.51689 0.0
C369 C 0.22073 0.93931 0.50964 0.0
C370 C 0.09081 1.00759 0.47102 0.0
C371 C 0.1799 0.06536 0.46837 0.0
C372 C 0.08499 1.0071 0.48558 0.0
C373 C 0.17156 0.06386 0.49782 0.0
C374 C 0.26176 0.12272 0.49518 0.0
C375 C 0.26427 0.12366 0.48049 0.0
C376 C 0.98635 0.9451 0.48784 0.0
C377 C 0.35665 0.1826 0.50782 0.0
H378 H 0.11431 0.14536 0.54362 0.0
H379 H 0.19327 0.93988 0.53694 0.0
H380 H 0.18106 0.22353 0.5136 0.0
H381 H 0.04993 0.14346 0.50685 0.0
H382 H 0.09858 0.21622 0.5254 0.0
H383 H 0.24115 0.89916 0.5159 0.0
H384 H 0.15777 0.89521 0.49946 0.0
H385 H 0.28706 0.97953 0.50603 0.0
H386 H 0.02532 0.96309 0.46165 0.0
H387 H 0.33341 0.16775 0.47841 0.0
H388 H 0.96263 0.98097 0.4958 0.0
H389 H 0.99722 0.8963 0.49271 0.0
H390 H 0.92391 0.91022 0.47729 0.0
H391 H 0.34034 0.22369 0.51605 0.0
H392 H 0.4199 0.22564 0.50395 0.0
H393 H 0.38219 0.14354 0.51366 0.0
C394 C 0.19965 0.17206 0.81831 0.0
C395 C 0.10418 0.16248 0.81145 0.0
C396 C 0.22749 0.17737 0.83356 0.0
C397 C 0.15768 0.17178 0.84203 0.0
C398 C 0.05911 0.15654 0.83482 0.0
C399 C 0.03411 0.15273 0.81974 0.0
C400 C 0.33322 0.19354 0.84078 0.0
C401 C 0.98124 0.14886 0.84321 0.0
C402 C 0.17555 0.14367 0.88109 0.0
C403 C 0.20086 0.22743 0.8893 0.0
C404 C 0.16907 0.12524 0.86577 0.0
C405 C 0.18935 0.19235 0.85865 0.0
C406 C 0.22385 0.27839 0.86732 0.0
C407 C 0.22825 0.29456 0.88245 0.0
C408 C 0.13243 0.03272 0.85701 0.0
C409 C 0.24769 0.35249 0.86038 0.0
H410 H 0.25409 0.17946 0.81196 0.0
H411 H 0.95942 0.14372 0.81447 0.0
H412 H 0.37923 0.26187 0.84784 0.0
H413 H 0.33068 0.151 0.84811 0.0
H414 H 0.37228 0.18238 0.83243 0.0
H415 H 0.90519 0.12875 0.83571 0.0
H416 H 0.97327 0.10086 0.84959 0.0
H417 H 1.00693 0.21249 0.8513 0.0
H418 H 0.1537 0.09146 0.88632 0.0
H419 H 0.24865 0.35961 0.88881 0.0
H420 H 0.17595 0.03034 0.84888 0.0
H421 H 0.05122 1.00378 0.85067 0.0
H422 H 0.13914 0.99219 0.86436 0.0
H423 H 0.29611 0.35146 0.85296 0.0
H424 H 0.28714 0.4168 0.86888 0.0
H425 H 0.1758 0.34525 0.85351 0.0
C426 C 0.27163 0.07489 0.0332 0.0
C427 C 0.29177 0.13783 0.04628 0.0
C428 C 0.27322 0.09478 0.01957 0.0
C429 C 0.2972 0.18026 0.01893 0.0
C430 C 0.32553 0.24576 0.0323 0.0
C431 C 0.32179 0.22372 0.04578 0.0
C432 C 0.2411 1.02242 1.00565 0.0
C433 C 0.35348 0.33811 0.03221 0.0
C434 C 0.33069 0.23631 0.98245 0.0
C435 C 0.23542 0.22893 0.97618 0.0
C436 C 0.35303 0.22191 0.99647 0.0
C437 C 0.27748 0.19754 1.00416 0.0
C438 C 0.18046 0.18778 0.99759 0.0
C439 C 0.16122 0.20443 0.98384 0.0
C440 C 0.45788 0.23449 1.00319 0.0
C441 C 0.09643 0.15975 1.0051 0.0
H442 H 0.24881 1.00833 0.03338 0.0
H443 H 0.33804 0.27311 0.05578 0.0
H444 H 0.16485 1.00654 0.99881 0.0
H445 H 0.29466 0.043 0.99884 0.0
H446 H 0.23696 0.96244 0.00818 0.0
H447 H 0.38909 0.38371 0.04361 0.0
H448 H 0.40673 0.36013 0.02539 0.0
H449 H 0.28395 0.34139 0.02715 0.0
H450 H 0.38855 0.25596 0.97663 0.0
H451 H 0.08702 0.19775 0.979 0.0
H452 H 0.45258 0.17407 1.00561 0.0
H453 H 0.49415 0.28637 0.01392 0.0
H454 H 0.5078 0.25258 0.99578 0.0
H455 H 0.08126 0.0966 0.00728 0.0
H456 H 0.02436 0.1527 0.9983 0.0
H457 H 0.12019 0.20808 0.01598 0.0
C458 C 0.2696 0.16044 0.29534 0.0
C459 C 0.17315 0.14637 0.2878 0.0
C460 C 0.29215 0.16045 0.31039 0.0
C461 C 0.21656 0.14612 0.31803 0.0
C462 C 0.12078 0.13546 0.31059 0.0
C463 C 0.10053 0.13581 0.29568 0.0
C464 C 0.39547 0.17276 0.31794 0.0
C465 C 0.03772 0.1203 0.31821 0.0
C466 C 0.19967 0.04062 0.34959 0.0
C467 C 0.22642 0.11055 0.36193 0.0
C468 C 0.20242 0.05233 0.33542 0.0
C469 C 0.23317 0.13626 0.33344 0.0
C470 C 0.2662 0.20805 0.346 0.0
C471 C 0.26232 0.19439 0.36006 0.0
C472 C 0.1667 0.97378 0.32242 0.0
C473 C 0.30015 0.29871 0.34445 0.0
H474 H 0.32618 0.16861 0.28937 0.0
H475 H 0.02607 0.12588 0.29007 0.0
H476 H 0.42849 0.22272 0.32887 0.0
H477 H 0.38767 0.11106 0.32007 0.0
H478 H 0.44928 0.1925 0.31111 0.0
H479 H 0.9692 0.11741 0.31111 0.0
H480 H 1.01471 0.05815 0.32116 0.0
H481 H 0.06613 0.17291 0.3287 0.0
H482 H 0.17422 0.97593 0.35092 0.0
H483 H 0.28305 0.249 0.36945 0.0
H484 H 0.22239 0.98634 0.31583 0.0
H485 H 0.09341 0.96033 0.31495 0.0
H486 H 0.15535 0.91478 0.32599 0.0
H487 H 0.35376 0.31326 0.33753 0.0
H488 H 0.33757 0.34884 0.3554 0.0
H489 H 0.23315 0.30355 0.33876 0.0
C490 C 0.10811 0.09352 0.65776 0.0
C491 C 0.1214 0.02565 0.65007 0.0
C492 C 0.09742 0.09973 0.67225 0.0
C493 C 0.09873 0.03606 0.67928 0.0
C494 C 0.11375 0.96829 0.67174 0.0
C495 C 0.12552 0.96424 0.65734 0.0
C496 C 0.08227 0.17351 0.6799 0.0
C497 C 0.11489 0.89863 0.67874 0.0
C498 C 0.13478 0.08624 0.72129 0.0
C499 C 0.0336 0.04854 0.7219 0.0
C500 C 0.15758 0.08162 0.70753 0.0
C501 C 0.07739 0.03713 0.69407 0.0
C502 C 0.9755 0.9956 0.69471 0.0
C503 C 0.95496 1.00241 0.70856 0.0
C504 C 0.26715 0.12755 0.70736 0.0
C505 C 0.88759 0.94613 0.68073 0.0
H506 H 0.10383 0.14113 0.65238 0.0
H507 H 0.13772 0.91238 0.65181 0.0
H508 H 1.00509 0.14733 0.68151 0.0
H509 H 0.13799 0.20792 0.69107 0.0
H510 H 0.09071 0.22132 0.67344 0.0
H511 H 0.13161 0.85228 0.67171 0.0
H512 H 0.17269 0.92859 0.68974 0.0
H513 H 0.03983 0.86161 0.68063 0.0
H514 H 0.19587 0.12298 0.73154 0.0
H515 H 0.87656 0.97294 0.70893 0.0
H516 H 0.27921 0.18166 0.70231 0.0
H517 H 0.2856 0.08234 0.70042 0.0
H518 H 0.32093 0.15452 0.7187 0.0
H519 H 0.88371 0.99142 0.67427 0.0
H520 H 0.81341 0.91297 0.68313 0.0
H521 H 0.89922 0.89665 0.67357 0.0
loop_
_geom_bond_atom_site_label_1
_geom_bond_atom_site_label_2
_geom_bond_distance
_geom_bond_site_symmetry_2
_ccdc_geom_bond_type
Cu0 N1 1.999 . S
Cu0 O6 1.974 . S
Cu0 N11 1.985 . S
Cu0 O20 1.959 . S
N1 Cu0 1.999 . S
N1 C3 1.263 . S
N1 C5 1.389 . S
N2 C3 1.358 1_565 S
N2 C4 1.400 1_565 S
C3 N1 1.263 . S
C3 N2 1.358 1_545 S
C3 H9 0.930 . S
C4 N2 1.400 1_545 S
C4 C5 1.351 . S
C4 H21 0.930 1_545 S
C5 N1 1.389 . S
C5 C4 1.351 . S
C5 H10 0.930 . S
O6 Cu0 1.974 . S
O6 C16 1.282 . S
C7 O8 1.261 . S
C7 O20 1.251 . S
O8 C7 1.261 . S
H9 C3 0.930 . S
H10 C5 0.930 . S
N11 Cu0 1.985 . S
N11 C13 1.335 . S
N11 C14 1.390 . S
N12 C13 1.345 . S
N12 C15 1.336 . S
C13 N11 1.335 . S
C13 N12 1.345 . S
C13 H18 0.930 . S
C14 N11 1.390 . S
C14 C15 1.346 . S
C14 H19 0.930 . S
C15 N12 1.336 . S
C15 C14 1.346 . S
C15 H22 0.929 . S
C16 O6 1.282 . S
C16 O17 1.216 . S
O17 C16 1.216 . S
H18 C13 0.930 . S
H19 C14 0.930 . S
O20 Cu0 1.959 . S
O20 C7 1.251 . S
H21 C4 0.930 1_565 S
H22 C15 0.929 . S
Cu23 N24 1.999 . S
Cu23 O29 1.974 . S
Cu23 N34 1.985 . S
Cu23 O43 1.959 . S
N24 Cu23 1.999 . S
N24 C26 1.263 . S
N24 C28 1.389 . S
N25 C26 1.358 . S
N25 C27 1.400 . S
C26 N24 1.263 . S
C26 N25 1.358 . S
C26 H32 0.930 . S
C27 N25 1.400 . S
C27 C28 1.351 . S
C27 H44 0.930 . S
C28 N24 1.389 . S
C28 C27 1.351 . S
C28 H33 0.930 . S
O29 Cu23 1.974 . S
O29 C39 1.282 1_545 S
C30 O31 1.275 . S
C30 O43 1.243 1_665 S
O31 C30 1.275 . S
H32 C26 0.930 . S
H33 C28 0.930 . S
N34 Cu23 1.985 . S
N34 C36 1.335 . S
N34 C37 1.390 1_545 S
N35 C36 1.345 . S
N35 C38 1.336 1_545 S
C36 N34 1.335 . S
C36 N35 1.345 . S
C36 H41 0.930 . S
C37 N34 1.390 1_565 S
C37 C38 1.346 . S
C37 H42 0.930 . S
C38 N35 1.336 1_565 S
C38 C37 1.346 . S
C38 H45 0.929 . S
C39 O29 1.282 1_565 S
C39 O40 1.216 . S
O40 C39 1.216 . S
H41 C36 0.930 . S
H42 C37 0.930 . S
O43 Cu23 1.959 . S
O43 C30 1.243 1_445 S
H44 C27 0.930 . S
H45 C38 0.929 . S
Cu46 N47 1.999 1_455 S
Cu46 O52 1.974 . S
Cu46 N57 1.985 . S
Cu46 O66 1.959 . S
N47 Cu46 1.999 1_655 S
N47 C49 1.263 1_545 S
N47 C51 1.389 1_545 S
N48 C49 1.358 . S
N48 C50 1.400 . S
C49 N47 1.263 1_565 S
C49 N48 1.358 . S
C49 H55 0.930 1_565 S
C50 N48 1.400 . S
C50 C51 1.351 . S
C50 H67 0.930 . S
C51 N47 1.389 1_565 S
C51 C50 1.351 . S
C51 H56 0.930 . S
O52 Cu46 1.974 . S
O52 C62 1.282 1_455 S
C53 O54 1.261 . S
C53 O66 1.251 1_655 S
O54 C53 1.261 . S
H55 C49 0.930 1_545 S
H56 C51 0.930 . S
N57 Cu46 1.985 . S
N57 C59 1.335 . S
N57 C60 1.390 . S
N58 C59 1.345 . S
N58 C61 1.336 . S
C59 N57 1.335 . S
C59 N58 1.345 . S
C59 H64 0.930 . S
C60 N57 1.390 . S
C60 C61 1.346 . S
C60 H65 0.930 . S
C61 N58 1.336 . S
C61 C60 1.346 . S
C61 H68 0.929 . S
C62 O52 1.282 1_655 S
C62 O63 1.216 . S
O63 C62 1.216 . S
H64 C59 0.930 . S
H65 C60 0.930 . S
O66 Cu46 1.959 . S
O66 C53 1.251 1_455 S
H67 C50 0.930 . S
H68 C61 0.929 . S
Cu69 N70 1.999 . S
Cu69 O75 1.974 1_455 S
Cu69 N80 1.985 1_455 S
Cu69 O89 1.959 . S
N70 Cu69 1.999 . S
N70 C72 1.263 1_455 S
N70 C74 1.389 . S
N71 C72 1.358 1_455 S
N71 C73 1.400 . S
C72 N70 1.263 1_655 S
C72 N71 1.358 1_655 S
C72 H78 0.930 . S
C73 N71 1.400 . S
C73 C74 1.351 . S
C73 H90 0.930 . S
C74 N70 1.389 . S
C74 C73 1.351 . S
C74 H79 0.930 . S
O75 Cu69 1.974 1_655 S
O75 C85 1.282 1_545 S
C76 O77 1.261 . S
C76 O89 1.251 1_565 S
O77 C76 1.261 . S
H78 C72 0.930 . S
H79 C74 0.930 . S
N80 Cu69 1.985 1_655 S
N80 C82 1.327 1_655 S
N80 C83 1.397 1_545 S
N81 C82 1.345 . S
N81 C84 1.336 1_445 S
C82 N80 1.327 1_455 S
C82 N81 1.345 . S
C82 H87 0.930 . S
C83 N80 1.397 1_565 S
C83 C84 1.346 . S
C83 H88 0.930 . S
C84 N81 1.336 1_665 S
C84 C83 1.346 . S
C84 H91 0.929 . S
C85 O75 1.282 1_565 S
C85 O86 1.216 . S
O86 C85 1.216 . S
H87 C82 0.930 . S
H88 C83 0.930 . S
O89 Cu69 1.959 . S
O89 C76 1.251 1_545 S
H90 C73 0.930 . S
H91 C84 0.929 . S
Cu92 N93 1.999 . S
Cu92 O98 1.974 . S
Cu92 N103 1.985 1_455 S
Cu92 O112 1.959 . S
N93 Cu92 1.999 . S
N93 C95 1.263 . S
N93 C97 1.389 . S
N94 C95 1.358 . S
N94 C96 1.400 . S
C95 N93 1.263 . S
C95 N94 1.358 . S
C95 H101 0.930 . S
C96 N94 1.400 . S
C96 C97 1.351 . S
C96 H113 0.930 . S
C97 N93 1.389 . S
C97 C96 1.351 . S
C97 H102 0.930 . S
O98 Cu92 1.974 . S
O98 C108 1.282 . S
C99 O100 1.261 . S
C99 O112 1.251 . S
O100 C99 1.261 . S
H101 C95 0.930 . S
H102 C97 0.930 . S
N103 Cu92 1.985 1_655 S
N103 C105 1.335 . S
N103 C106 1.390 . S
N104 C105 1.345 1_565 S
N104 C107 1.336 . S
C105 N103 1.335 . S
C105 N104 1.345 1_545 S
C105 H110 0.930 . S
C106 N103 1.390 . S
C106 C107 1.346 1_545 S
C106 H111 0.930 . S
C107 N104 1.336 . S
C107 C106 1.346 1_565 S
C107 H114 0.929 . S
C108 O98 1.282 . S
C108 O109 1.216 1_455 S
O109 C108 1.216 1_655 S
H110 C105 0.930 . S
H111 C106 0.930 . S
O112 Cu92 1.959 . S
O112 C99 1.251 . S
H113 C96 0.930 . S
H114 C107 0.929 . S
Cu115 N116 1.999 . S
Cu115 O121 1.974 . S
Cu115 N126 1.985 . S
Cu115 O135 1.959 . S
N116 Cu115 1.999 . S
N116 C118 1.263 . S
N116 C120 1.389 . S
N117 C118 1.358 . S
N117 C119 1.400 . S
C118 N116 1.263 . S
C118 N117 1.358 . S
C118 H124 0.930 . S
C119 N117 1.400 . S
C119 C120 1.351 . S
C119 H136 0.930 . S
C120 N116 1.389 . S
C120 C119 1.351 . S
C120 H125 0.930 . S
O121 Cu115 1.974 . S
O121 C131 1.282 . S
C122 O123 1.261 . S
C122 O135 1.251 . S
O123 C122 1.261 . S
H124 C118 0.930 . S
H125 C120 0.930 . S
N126 Cu115 1.985 . S
N126 C128 1.335 . S
N126 C129 1.390 1_545 S
N127 C128 1.345 1_565 S
N127 C130 1.336 . S
C128 N126 1.335 . S
C128 N127 1.345 1_545 S
C128 H133 0.930 . S
C129 N126 1.390 1_565 S
C129 C130 1.346 . S
C129 H134 0.934 . S
C130 N127 1.336 . S
C130 C129 1.346 . S
C130 H137 0.929 . S
C131 O121 1.282 . S
C131 O132 1.216 . S
O132 C131 1.216 . S
H133 C128 0.930 . S
H134 C129 0.934 . S
O135 Cu115 1.959 . S
O135 C122 1.251 . S
H136 C119 0.930 . S
H137 C130 0.929 . S
C138 C139 1.391 . S
C138 C140 1.394 . S
C138 H154 0.931 . S
C139 C138 1.391 . S
C139 C143 1.376 . S
C140 C138 1.394 . S
C140 C141 1.369 . S
C140 C144 1.531 . S
C141 C140 1.369 . S
C141 C142 1.410 . S
C141 C149 1.503 . S
C142 C141 1.410 . S
C142 C143 1.392 . S
C142 C145 1.511 . S
C143 C139 1.376 . S
C143 C142 1.392 . S
C143 H155 0.929 . S
C144 C140 1.531 . S
C144 H156 0.960 . S
C144 H157 0.962 . S
C144 H158 0.960 . S
C145 C142 1.511 . S
C145 H159 0.961 . S
C145 H160 0.961 . S
C145 H161 0.961 . S
C146 C147 1.370 . S
C146 C148 1.363 . S
C146 H162 0.931 . S
C147 C146 1.370 . S
C147 C151 1.408 . S
C148 C146 1.363 . S
C148 C149 1.370 . S
C148 C152 1.524 . S
C149 C141 1.503 . S
C149 C148 1.370 . S
C149 C150 1.403 . S
C150 C149 1.403 . S
C150 C151 1.404 . S
C150 C153 1.539 . S
C151 C147 1.408 . S
C151 C150 1.404 . S
C151 H163 0.930 . S
C152 C148 1.524 . S
C152 H164 0.956 . S
C152 H165 0.961 . S
C152 H166 0.961 . S
C153 C150 1.539 . S
C153 H167 0.958 . S
C153 H168 0.961 . S
C153 H169 0.960 . S
H154 C138 0.931 . S
H155 C143 0.929 . S
H156 C144 0.960 . S
H157 C144 0.962 . S
H158 C144 0.960 . S
H159 C145 0.961 . S
H160 C145 0.961 . S
H161 C145 0.961 . S
H162 C146 0.931 . S
H163 C151 0.930 . S
H164 C152 0.956 . S
H165 C152 0.961 . S
H166 C152 0.961 . S
H167 C153 0.958 . S
H168 C153 0.961 . S
H169 C153 0.960 . S
C170 C171 1.391 . S
C170 C172 1.394 . S
C170 H186 0.931 . S
C171 C170 1.391 . S
C171 C175 1.376 1_565 S
C172 C170 1.394 . S
C172 C173 1.369 . S
C172 C176 1.531 . S
C173 C172 1.369 . S
C173 C174 1.410 1_565 S
C173 C181 1.503 . S
C174 C173 1.410 1_545 S
C174 C175 1.392 . S
C174 C177 1.511 . S
C175 C171 1.376 1_545 S
C175 C174 1.392 . S
C175 H187 0.929 . S
C176 C172 1.531 . S
C176 H188 0.960 . S
C176 H189 0.962 . S
C176 H190 0.960 . S
C177 C174 1.511 . S
C177 H191 0.961 . S
C177 H192 0.961 . S
C177 H193 0.961 . S
C178 C179 1.370 1_545 S
C178 C180 1.363 . S
C178 H194 0.931 . S
C179 C178 1.370 1_565 S
C179 C183 1.408 . S
C180 C178 1.363 . S
C180 C181 1.370 1_545 S
C180 C184 1.524 . S
C181 C173 1.503 . S
C181 C180 1.370 1_565 S
C181 C182 1.403 . S
C182 C181 1.403 . S
C182 C183 1.404 . S
C182 C185 1.539 . S
C183 C179 1.408 . S
C183 C182 1.404 . S
C183 H195 0.930 . S
C184 C180 1.524 . S
C184 H196 0.956 . S
C184 H197 0.961 . S
C184 H198 0.961 . S
C185 C182 1.539 . S
C185 H199 0.958 . S
C185 H200 0.961 . S
C185 H201 0.960 . S
H186 C170 0.931 . S
H187 C175 0.929 . S
H188 C176 0.960 . S
H189 C176 0.962 . S
H190 C176 0.960 . S
H191 C177 0.961 . S
H192 C177 0.961 . S
H193 C177 0.961 . S
H194 C178 0.931 . S
H195 C183 0.930 . S
H196 C184 0.956 . S
H197 C184 0.961 . S
H198 C184 0.961 . S
H199 C185 0.958 . S
H200 C185 0.961 . S
H201 C185 0.960 . S
C202 C203 1.391 . S
C202 C204 1.394 . S
C202 H218 0.931 . S
C203 C202 1.391 . S
C203 C207 1.376 . S
C204 C202 1.394 . S
C204 C205 1.369 . S
C204 C208 1.531 . S
C205 C204 1.369 . S
C205 C206 1.410 . S
C205 C213 1.503 . S
C206 C205 1.410 . S
C206 C207 1.392 . S
C206 C209 1.511 . S
C207 C203 1.376 . S
C207 C206 1.392 . S
C207 H219 0.929 . S
C208 C204 1.531 . S
C208 H220 0.960 . S
C208 H221 0.962 . S
C208 H222 0.960 . S
C209 C206 1.511 . S
C209 H223 0.961 . S
C209 H224 0.961 . S
C209 H225 0.961 . S
C210 C211 1.370 . S
C210 C212 1.363 . S
C210 H226 0.931 . S
C211 C210 1.370 . S
C211 C215 1.408 . S
C212 C210 1.363 . S
C212 C213 1.370 . S
C212 C216 1.524 . S
C213 C205 1.503 . S
C213 C212 1.370 . S
C213 C214 1.403 . S
C214 C213 1.403 . S
C214 C215 1.404 . S
C214 C217 1.539 . S
C215 C211 1.408 . S
C215 C214 1.404 . S
C215 H227 0.930 . S
C216 C212 1.524 . S
C216 H228 0.956 . S
C216 H229 0.961 . S
C216 H230 0.961 . S
C217 C214 1.539 . S
C217 H231 0.958 . S
C217 H232 0.961 . S
C217 H233 0.960 . S
H218 C202 0.931 . S
H219 C207 0.929 . S
H220 C208 0.960 . S
H221 C208 0.962 . S
H222 C208 0.960 . S
H223 C209 0.961 . S
H224 C209 0.961 . S
H225 C209 0.961 . S
H226 C210 0.931 . S
H227 C215 0.930 . S
H228 C216 0.956 . S
H229 C216 0.961 . S
H230 C216 0.961 . S
H231 C217 0.958 . S
H232 C217 0.961 . S
H233 C217 0.960 . S
C234 C235 1.391 1_545 S
C234 C236 1.394 . S
C234 H250 0.931 . S
C235 C234 1.391 1_565 S
C235 C239 1.376 . S
C236 C234 1.394 . S
C236 C237 1.369 1_545 S
C236 C240 1.531 . S
C237 C236 1.369 1_565 S
C237 C238 1.410 . S
C237 C245 1.503 . S
C238 C237 1.410 . S
C238 C239 1.392 . S
C238 C241 1.511 . S
C239 C235 1.376 . S
C239 C238 1.392 . S
C239 H251 0.929 . S
C240 C236 1.531 . S
C240 H252 0.960 . S
C240 H253 0.962 . S
C240 H254 0.960 . S
C241 C238 1.511 . S
C241 H255 0.961 . S
C241 H256 0.961 . S
C241 H257 0.961 . S
C242 C243 1.370 . S
C242 C244 1.363 . S
C242 H258 0.931 . S
C243 C242 1.370 . S
C243 C247 1.408 1_565 S
C244 C242 1.363 . S
C244 C245 1.370 . S
C244 C248 1.524 . S
C245 C237 1.503 . S
C245 C244 1.370 . S
C245 C246 1.403 1_565 S
C246 C245 1.403 1_545 S
C246 C247 1.404 . S
C246 C249 1.539 . S
C247 C243 1.408 1_545 S
C247 C246 1.404 . S
C247 H259 0.930 . S
C248 C244 1.524 . S
C248 H260 0.959 . S
C248 H261 0.961 . S
C248 H262 0.961 . S
C249 C246 1.539 . S
C249 H263 0.958 . S
C249 H264 0.961 . S
C249 H265 0.960 . S
H250 C234 0.931 . S
H251 C239 0.929 . S
H252 C240 0.960 . S
H253 C240 0.962 . S
H254 C240 0.960 . S
H255 C241 0.961 . S
H256 C241 0.961 . S
H257 C241 0.961 . S
H258 C242 0.931 . S
H259 C247 0.930 . S
H260 C248 0.959 . S
H261 C248 0.961 . S
H262 C248 0.961 . S
H263 C249 0.958 . S
H264 C249 0.961 . S
H265 C249 0.960 . S
C266 C267 1.391 . S
C266 C268 1.394 . S
C266 H282 0.931 . S
C267 C266 1.391 . S
C267 C271 1.376 . S
C268 C266 1.394 . S
C268 C269 1.369 . S
C268 C272 1.531 . S
C269 C268 1.369 . S
C269 C270 1.410 . S
C269 C277 1.503 . S
C270 C269 1.410 . S
C270 C271 1.392 . S
C270 C273 1.511 . S
C271 C267 1.376 . S
C271 C270 1.392 . S
C271 H283 0.929 . S
C272 C268 1.531 . S
C272 H284 0.960 . S
C272 H285 0.962 . S
C272 H286 0.960 . S
C273 C270 1.511 . S
C273 H287 0.961 . S
C273 H288 0.961 . S
C273 H289 0.961 . S
C274 C275 1.370 . S
C274 C276 1.363 . S
C274 H290 0.931 . S
C275 C274 1.370 . S
C275 C279 1.408 . S
C276 C274 1.363 . S
C276 C277 1.370 . S
C276 C280 1.524 . S
C277 C269 1.503 . S
C277 C276 1.370 . S
C277 C278 1.403 . S
C278 C277 1.403 . S
C278 C279 1.404 . S
C278 C281 1.539 . S
C279 C275 1.408 . S
C279 C278 1.404 . S
C279 H291 0.930 . S
C280 C276 1.524 . S
C280 H292 0.956 . S
C280 H293 0.961 . S
C280 H294 0.961 . S
C281 C278 1.539 . S
C281 H295 0.958 . S
C281 H296 0.961 . S
C281 H297 0.960 . S
H282 C266 0.931 . S
H283 C271 0.929 . S
H284 C272 0.960 . S
H285 C272 0.962 . S
H286 C272 0.960 . S
H287 C273 0.961 . S
H288 C273 0.961 . S
H289 C273 0.961 . S
H290 C274 0.931 . S
H291 C279 0.930 . S
H292 C280 0.956 . S
H293 C280 0.961 . S
H294 C280 0.961 . S
H295 C281 0.958 . S
H296 C281 0.961 . S
H297 C281 0.960 . S
C298 C299 1.391 . S
C298 C300 1.394 . S
C298 H314 0.931 . S
C299 C298 1.391 . S
C299 C303 1.376 . S
C300 C298 1.394 . S
C300 C301 1.369 . S
C300 C304 1.531 . S
C301 C300 1.369 . S
C301 C302 1.410 . S
C301 C309 1.503 . S
C302 C301 1.410 . S
C302 C303 1.392 . S
C302 C305 1.511 . S
C303 C299 1.376 . S
C303 C302 1.392 . S
C303 H315 0.929 . S
C304 C300 1.531 . S
C304 H316 0.960 . S
C304 H317 0.962 . S
C304 H318 0.960 . S
C305 C302 1.511 . S
C305 H319 0.961 . S
C305 H320 0.961 . S
C305 H321 0.961 . S
C306 C307 1.370 . S
C306 C308 1.363 . S
C306 H322 0.931 . S
C307 C306 1.370 . S
C307 C311 1.408 . S
C308 C306 1.363 . S
C308 C309 1.370 . S
C308 C312 1.524 . S
C309 C301 1.503 . S
C309 C308 1.370 . S
C309 C310 1.403 . S
C310 C309 1.403 . S
C310 C311 1.404 . S
C310 C313 1.539 . S
C311 C307 1.408 . S
C311 C310 1.404 . S
C311 H323 0.930 . S
C312 C308 1.524 . S
C312 H324 0.956 . S
C312 H325 0.961 . S
C312 H326 0.961 . S
C313 C310 1.539 . S
C313 H327 0.958 . S
C313 H328 0.961 . S
C313 H329 0.960 . S
H314 C298 0.931 . S
H315 C303 0.929 . S
H316 C304 0.960 . S
H317 C304 0.962 . S
H318 C304 0.960 . S
H319 C305 0.961 . S
H320 C305 0.961 . S
H321 C305 0.961 . S
H322 C306 0.931 . S
H323 C311 0.930 . S
H324 C312 0.956 . S
H325 C312 0.961 . S
H326 C312 0.961 . S
H327 C313 0.958 . S
H328 C313 0.961 . S
H329 C313 0.960 . S
C330 C331 1.391 . S
C330 C332 1.394 . S
C330 H346 0.931 . S
C331 C330 1.391 . S
C331 C335 1.376 . S
C332 C330 1.394 . S
C332 C333 1.369 . S
C332 C336 1.531 . S
C333 C332 1.369 . S
C333 C334 1.410 . S
C333 C341 1.503 . S
C334 C333 1.410 . S
C334 C335 1.392 . S
C334 C337 1.511 . S
C335 C331 1.376 . S
C335 C334 1.392 . S
C335 H347 0.929 . S
C336 C332 1.531 . S
C336 H348 0.960 . S
C336 H349 0.962 . S
C336 H350 0.960 . S
C337 C334 1.511 . S
C337 H351 0.961 . S
C337 H352 0.961 . S
C337 H353 0.961 . S
C338 C339 1.370 . S
C338 C340 1.363 . S
C338 H354 0.931 . S
C339 C338 1.370 . S
C339 C343 1.408 . S
C340 C338 1.363 . S
C340 C341 1.370 . S
C340 C344 1.524 . S
C341 C333 1.503 . S
C341 C340 1.370 . S
C341 C342 1.403 . S
C342 C341 1.403 . S
C342 C343 1.404 . S
C342 C345 1.539 . S
C343 C339 1.408 . S
C343 C342 1.404 . S
C343 H355 0.930 . S
C344 C340 1.524 . S
C344 H356 0.956 . S
C344 H357 0.961 . S
C344 H358 0.961 1_545 S
C345 C342 1.539 . S
C345 H359 0.958 . S
C345 H360 0.961 . S
C345 H361 0.960 . S
H346 C330 0.931 . S
H347 C335 0.929 . S
H348 C336 0.960 . S
H349 C336 0.962 . S
H350 C336 0.960 . S
H351 C337 0.961 . S
H352 C337 0.961 . S
H353 C337 0.961 . S
H354 C338 0.931 . S
H355 C343 0.930 . S
H356 C344 0.956 . S
H357 C344 0.961 . S
H358 C344 0.961 1_565 S
H359 C345 0.958 . S
H360 C345 0.961 . S
H361 C345 0.960 . S
C362 C363 1.391 . S
C362 C364 1.394 . S
C362 H378 0.931 1_455 S
C363 C362 1.391 . S
C363 C367 1.376 1_545 S
C364 C362 1.394 . S
C364 C365 1.369 . S
C364 C368 1.531 . S
C365 C364 1.369 . S
C365 C366 1.410 1_545 S
C365 C373 1.503 . S
C366 C365 1.410 1_565 S
C366 C367 1.392 . S
C366 C369 1.511 . S
C367 C363 1.376 1_565 S
C367 C366 1.392 . S
C367 H379 0.929 . S
C368 C364 1.531 . S
C368 H380 0.960 . S
C368 H381 0.962 1_455 S
C368 H382 0.960 . S
C369 C366 1.511 . S
C369 H383 0.961 . S
C369 H384 0.961 . S
C369 H385 0.961 . S
C370 C371 1.370 1_565 S
C370 C372 1.363 . S
C370 H386 0.931 1_455 S
C371 C370 1.370 1_545 S
C371 C375 1.408 . S
C372 C370 1.363 . S
C372 C373 1.370 1_565 S
C372 C376 1.524 1_455 S
C373 C365 1.503 . S
C373 C372 1.370 1_545 S
C373 C374 1.403 . S
C374 C373 1.403 . S
C374 C375 1.404 . S
C374 C377 1.539 . S
C375 C371 1.408 . S
C375 C374 1.404 . S
C375 H387 0.930 . S
C376 C372 1.524 1_655 S
C376 H388 0.956 . S
C376 H389 0.961 . S
C376 H390 0.961 . S
C377 C374 1.539 . S
C377 H391 0.958 . S
C377 H392 0.961 . S
C377 H393 0.960 . S
H378 C362 0.931 1_655 S
H379 C367 0.929 . S
H380 C368 0.960 . S
H381 C368 0.962 1_655 S
H382 C368 0.960 . S
H383 C369 0.961 . S
H384 C369 0.961 . S
H385 C369 0.961 . S
H386 C370 0.931 1_655 S
H387 C375 0.930 . S
H388 C376 0.956 . S
H389 C376 0.961 . S
H390 C376 0.961 . S
H391 C377 0.958 . S
H392 C377 0.961 . S
H393 C377 0.960 . S
C394 C395 1.391 1_455 S
C394 C396 1.394 . S
C394 H410 0.931 . S
C395 C394 1.391 1_655 S
C395 C399 1.376 . S
C396 C394 1.394 . S
C396 C397 1.369 1_455 S
C396 C400 1.531 . S
C397 C396 1.369 1_655 S
C397 C398 1.410 . S
C397 C405 1.503 1_655 S
C398 C397 1.410 . S
C398 C399 1.392 . S
C398 C401 1.511 . S
C399 C395 1.376 . S
C399 C398 1.392 . S
C399 H411 0.929 . S
C400 C396 1.531 . S
C400 H412 0.960 . S
C400 H413 0.962 . S
C400 H414 0.960 . S
C401 C398 1.511 . S
C401 H415 0.961 . S
C401 H416 0.961 . S
C401 H417 0.961 . S
C402 C403 1.370 . S
C402 C404 1.363 . S
C402 H418 0.931 . S
C403 C402 1.370 . S
C403 C407 1.405 1_455 S
C404 C402 1.363 . S
C404 C405 1.370 . S
C404 C408 1.524 . S
C405 C397 1.503 1_455 S
C405 C404 1.370 . S
C405 C406 1.403 1_455 S
C406 C405 1.403 1_655 S
C406 C407 1.403 . S
C406 C409 1.539 . S
C407 C403 1.405 1_655 S
C407 C406 1.403 . S
C407 H419 0.934 . S
C408 C404 1.524 . S
C408 H420 0.956 . S
C408 H421 0.961 1_455 S
C408 H422 0.961 . S
C409 C406 1.539 . S
C409 H423 0.958 1_655 S
C409 H424 0.961 . S
C409 H425 0.960 . S
H410 C394 0.931 . S
H411 C399 0.929 . S
H412 C400 0.960 . S
H413 C400 0.962 . S
H414 C400 0.960 . S
H415 C401 0.961 . S
H416 C401 0.961 . S
H417 C401 0.961 . S
H418 C402 0.931 . S
H419 C407 0.934 . S
H420 C408 0.956 . S
H421 C408 0.961 1_655 S
H422 C408 0.961 . S
H423 C409 0.958 1_455 S
H424 C409 0.961 . S
H425 C409 0.960 . S
C426 C427 1.391 . S
C426 C428 1.394 . S
C426 H442 0.931 . S
C427 C426 1.391 . S
C427 C431 1.376 . S
C428 C426 1.394 . S
C428 C429 1.369 . S
C428 C432 1.531 . S
C429 C428 1.369 . S
C429 C430 1.410 . S
C429 C437 1.503 1_554 S
C430 C429 1.410 . S
C430 C431 1.392 . S
C430 C433 1.511 . S
C431 C427 1.376 . S
C431 C430 1.392 . S
C431 H443 0.929 . S
C432 C428 1.531 . S
C432 H444 0.960 1_554 S
C432 H445 0.962 . S
C432 H446 0.960 . S
C433 C430 1.511 . S
C433 H447 0.961 . S
C433 H448 0.961 . S
C433 H449 0.961 . S
C434 C435 1.370 . S
C434 C436 1.363 . S
C434 H450 0.931 . S
C435 C434 1.370 . S
C435 C439 1.408 1_455 S
C436 C434 1.363 . S
C436 C437 1.370 . S
C436 C440 1.524 1_556 S
C437 C429 1.503 1_556 S
C437 C436 1.370 . S
C437 C438 1.403 . S
C438 C437 1.403 . S
C438 C439 1.404 1_455 S
C438 C441 1.539 1_455 S
C439 C435 1.408 1_655 S
C439 C438 1.404 1_655 S
C439 H451 0.930 . S
C440 C436 1.524 1_554 S
C440 H452 0.956 . S
C440 H453 0.961 . S
C440 H454 0.961 1_554 S
C441 C438 1.539 1_655 S
C441 H455 0.958 . S
C441 H456 0.961 . S
C441 H457 0.886 1_556 S
H442 C426 0.931 . S
H443 C431 0.929 . S
H444 C432 0.960 1_556 S
H445 C432 0.962 . S
H446 C432 0.960 . S
H447 C433 0.961 . S
H448 C433 0.961 . S
H449 C433 0.961 . S
H450 C434 0.931 . S
H451 C439 0.930 . S
H452 C440 0.956 . S
H453 C440 0.961 . S
H454 C440 0.961 1_556 S
H455 C441 0.958 . S
H456 C441 0.961 . S
H457 C441 0.886 1_554 S
C458 C459 1.391 . S
C458 C460 1.394 . S
C458 H474 0.931 . S
C459 C458 1.391 . S
C459 C463 1.376 . S
C460 C458 1.394 . S
C460 C461 1.369 . S
C460 C464 1.531 . S
C461 C460 1.369 . S
C461 C462 1.410 . S
C461 C469 1.503 . S
C462 C461 1.410 . S
C462 C463 1.392 . S
C462 C465 1.511 . S
C463 C459 1.376 . S
C463 C462 1.392 . S
C463 H475 0.929 . S
C464 C460 1.531 . S
C464 H476 0.960 . S
C464 H477 0.962 . S
C464 H478 0.960 . S
C465 C462 1.511 . S
C465 H479 0.961 1_455 S
C465 H480 0.961 . S
C465 H481 0.961 . S
C466 C467 1.370 . S
C466 C468 1.363 . S
C466 H482 0.931 1_545 S
C467 C466 1.370 . S
C467 C471 1.408 . S
C468 C466 1.363 . S
C468 C469 1.370 . S
C468 C472 1.524 1_545 S
C469 C461 1.503 . S
C469 C468 1.370 . S
C469 C470 1.403 . S
C470 C469 1.403 . S
C470 C471 1.404 . S
C470 C473 1.539 . S
C471 C467 1.408 . S
C471 C470 1.404 . S
C471 H483 0.930 . S
C472 C468 1.524 1_565 S
C472 H484 0.956 . S
C472 H485 0.961 . S
C472 H486 0.961 . S
C473 C470 1.539 . S
C473 H487 0.958 . S
C473 H488 0.961 . S
C473 H489 0.960 . S
H474 C458 0.931 . S
H475 C463 0.929 . S
H476 C464 0.960 . S
H477 C464 0.962 . S
H478 C464 0.960 . S
H479 C465 0.961 1_655 S
H480 C465 0.961 . S
H481 C465 0.961 . S
H482 C466 0.931 1_565 S
H483 C471 0.930 . S
H484 C472 0.956 . S
H485 C472 0.961 . S
H486 C472 0.961 . S
H487 C473 0.958 . S
H488 C473 0.961 . S
H489 C473 0.960 . S
C490 C491 1.391 1_655 S
C490 C492 1.394 . S
C490 H506 0.931 . S
C491 C490 1.391 1_455 S
C491 C495 1.376 . S
C492 C490 1.394 . S
C492 C493 1.369 . S
C492 C496 1.531 . S
C493 C492 1.369 . S
C493 C494 1.410 1_655 S
C493 C501 1.503 . S
C494 C493 1.410 1_455 S
C494 C495 1.392 . S
C494 C497 1.511 . S
C495 C491 1.376 . S
C495 C494 1.392 . S
C495 H507 0.929 . S
C496 C492 1.531 . S
C496 H508 0.960 1_545 S
C496 H509 0.962 . S
C496 H510 0.960 1_545 S
C497 C494 1.511 . S
C497 H511 0.961 . S
C497 H512 0.961 . S
C497 H513 0.961 . S
C498 C499 1.370 . S
C498 C500 1.363 . S
C498 H514 0.931 . S
C499 C498 1.370 . S
C499 C503 1.408 . S
C500 C498 1.363 . S
C500 C501 1.370 . S
C500 C504 1.524 1_655 S
C501 C493 1.503 . S
C501 C500 1.370 . S
C501 C502 1.403 . S
C502 C501 1.403 . S
C502 C503 1.404 . S
C502 C505 1.539 1_545 S
C503 C499 1.408 . S
C503 C502 1.404 . S
C503 H515 0.930 1_545 S
C504 C500 1.524 1_455 S
C504 H516 0.956 1_455 S
C504 H517 0.961 . S
C504 H518 0.961 . S
C505 C502 1.539 1_565 S
C505 H519 0.958 . S
C505 H520 0.961 . S
C505 H521 0.960 1_655 S
H506 C490 0.931 . S
H507 C495 0.929 . S
H508 C496 0.960 1_565 S
H509 C496 0.962 . S
H510 C496 0.960 1_565 S
H511 C497 0.961 . S
H512 C497 0.961 . S
H513 C497 0.961 . S
H514 C498 0.931 . S
H515 C503 0.930 1_565 S
H516 C504 0.956 1_655 S
H517 C504 0.961 . S
H518 C504 0.961 . S
H519 C505 0.958 . S
H520 C505 0.961 . S
H521 C505 0.960 1_455 S
C139 N2 1.480 . S
C147 N12 1.451 . S
C171 C39 1.470 . S
C179 C30 1.481 . S
C203 N48 1.457 . S
C211 N58 1.466 . S
C235 C76 1.480 . S
C243 C85 1.484 . S
C267 N94 1.479 . S
C275 N104 1.450 . S
C299 N117 1.477 . S
C307 N127 1.450 . S
C331 C131 1.478 . S
C339 C16 1.471 . S
C363 N81 1.478 . S
C371 N35 1.458 . S
C395 C62 1.516 . S
C403 C108 1.528 . S
C427 C7 1.510 . S
C435 C99 1.520 . S
C459 C122 1.479 . S
C467 N25 1.434 . S
C491 N71 1.487 . S
C499 C53 1.510 . S
