# Generated by pormake.
# Topology usf, (4)-cn, num edge types: 1
# Building blocks:
#     Node 0, Type 0, BuildingBlock: NAWXER_clean_sbu_0, # of connection points: 4
#     Node 1, Type 0, BuildingBlock: NAWXER_clean_sbu_0, # of connection points: 4
#     Node 2, Type 0, BuildingBlock: NAWXER_clean_sbu_0, # of connection points: 4
#     Node 3, Type 0, BuildingBlock: NAWXER_clean_sbu_0, # of connection points: 4
#     Node 4, Type 0, BuildingBlock: NAWXER_clean_sbu_0, # of connection points: 4
#     Node 5, Type 0, BuildingBlock: NAWXER_clean_sbu_0, # of connection points: 4
#     Node 6, Type 0, BuildingBlock: NAWXER_clean_sbu_0, # of connection points: 4
#     Node 7, Type 0, BuildingBlock: NAWXER_clean_sbu_0, # of connection points: 4
#     Node 8, Type 0, BuildingBlock: NAWXER_clean_sbu_0, # of connection points: 4
#     Node 9, Type 0, BuildingBlock: NAWXER_clean_sbu_0, # of connection points: 4
#     Node 10, Type 0, BuildingBlock: NAWXER_clean_sbu_0, # of connection points: 4
#     Node 11, Type 0, BuildingBlock: NAWXER_clean_sbu_0, # of connection points: 4
#     Node 12, Type 0, BuildingBlock: NAWXER_clean_sbu_0, # of connection points: 4
#     Node 13, Type 0, BuildingBlock: NAWXER_clean_sbu_0, # of connection points: 4
#     Node 14, Type 0, BuildingBlock: NAWXER_clean_sbu_0, # of connection points: 4
#     Node 15, Type 0, BuildingBlock: NAWXER_clean_sbu_0, # of connection points: 4
#     Node 16, Type 0, BuildingBlock: NAWXER_clean_sbu_0, # of connection points: 4
#     Node 17, Type 0, BuildingBlock: NAWXER_clean_sbu_0, # of connection points: 4
#     Edge 18, Type (0, 0), BuildingBlock: AJUNOK_clean_linker_0, # of connection points: 2
#     Edge 19, Type (0, 0), BuildingBlock: AJUNOK_clean_linker_0, # of connection points: 2
#     Edge 20, Type (0, 0), BuildingBlock: AJUNOK_clean_linker_0, # of connection points: 2
#     Edge 21, Type (0, 0), BuildingBlock: AJUNOK_clean_linker_0, # of connection points: 2
#     Edge 22, Type (0, 0), BuildingBlock: AJUNOK_clean_linker_0, # of connection points: 2
#     Edge 23, Type (0, 0), BuildingBlock: AJUNOK_clean_linker_0, # of connection points: 2
#     Edge 24, Type (0, 0), BuildingBlock: AJUNOK_clean_linker_0, # of connection points: 2
#     Edge 25, Type (0, 0), BuildingBlock: AJUNOK_clean_linker_0, # of connection points: 2
#     Edge 26, Type (0, 0), BuildingBlock: AJUNOK_clean_linker_0, # of connection points: 2
#     Edge 27, Type (0, 0), BuildingBlock: AJUNOK_clean_linker_0, # of connection points: 2
#     Edge 28, Type (0, 0), BuildingBlock: AJUNOK_clean_linker_0, # of connection points: 2
#     Edge 29, Type (0, 0), BuildingBlock: AJUNOK_clean_linker_0, # of connection points: 2
#     Edge 30, Type (0, 0), BuildingBlock: AJUNOK_clean_linker_0, # of connection points: 2
#     Edge 31, Type (0, 0), BuildingBlock: AJUNOK_clean_linker_0, # of connection points: 2
#     Edge 32, Type (0, 0), BuildingBlock: AJUNOK_clean_linker_0, # of connection points: 2
#     Edge 33, Type (0, 0), BuildingBlock: AJUNOK_clean_linker_0, # of connection points: 2
#     Edge 34, Type (0, 0), BuildingBlock: AJUNOK_clean_linker_0, # of connection points: 2
#     Edge 35, Type (0, 0), BuildingBlock: AJUNOK_clean_linker_0, # of connection points: 2
#     Edge 36, Type (0, 0), BuildingBlock: AJUNOK_clean_linker_0, # of connection points: 2
#     Edge 37, Type (0, 0), BuildingBlock: AJUNOK_clean_linker_0, # of connection points: 2
#     Edge 38, Type (0, 0), BuildingBlock: AJUNOK_clean_linker_0, # of connection points: 2
#     Edge 39, Type (0, 0), BuildingBlock: AJUNOK_clean_linker_0, # of connection points: 2
#     Edge 40, Type (0, 0), BuildingBlock: AJUNOK_clean_linker_0, # of connection points: 2
#     Edge 41, Type (0, 0), BuildingBlock: AJUNOK_clean_linker_0, # of connection points: 2
#     Edge 42, Type (0, 0), BuildingBlock: AJUNOK_clean_linker_0, # of connection points: 2
#     Edge 43, Type (0, 0), BuildingBlock: AJUNOK_clean_linker_0, # of connection points: 2
#     Edge 44, Type (0, 0), BuildingBlock: AJUNOK_clean_linker_0, # of connection points: 2
#     Edge 45, Type (0, 0), BuildingBlock: AJUNOK_clean_linker_0, # of connection points: 2
#     Edge 46, Type (0, 0), BuildingBlock: AJUNOK_clean_linker_0, # of connection points: 2
#     Edge 47, Type (0, 0), BuildingBlock: AJUNOK_clean_linker_0, # of connection points: 2
#     Edge 48, Type (0, 0), BuildingBlock: AJUNOK_clean_linker_0, # of connection points: 2
#     Edge 49, Type (0, 0), BuildingBlock: AJUNOK_clean_linker_0, # of connection points: 2
#     Edge 50, Type (0, 0), BuildingBlock: AJUNOK_clean_linker_0, # of connection points: 2
#     Edge 51, Type (0, 0), BuildingBlock: AJUNOK_clean_linker_0, # of connection points: 2
#     Edge 52, Type (0, 0), BuildingBlock: AJUNOK_clean_linker_0, # of connection points: 2
#     Edge 53, Type (0, 0), BuildingBlock: AJUNOK_clean_linker_0, # of connection points: 2
# Relax obj value: 0.054
# Max RMSD: 0.096
# Mean RMSD: 0.096
data_MOF--net-usf--node1-NAWXER_clean_sbu_0--edge1-AJUNOK_clean_linker_0
_symmetry_space_group_name_H-M    P1
_symmetry_Int_Tables_number       1
_symmetry_cell_setting            triclinic
loop_
_symmetry_equiv_pos_as_xyz
'x, y, z'
_cell_length_a     34.206572
_cell_length_b     34.376615
_cell_length_c     20.866191
_cell_angle_alpha  90.686682
_cell_angle_beta   89.648785
_cell_angle_gamma 119.26251
loop_
_atom_site_label
_atom_site_type_symbol
_atom_site_fract_x
_atom_site_fract_y
_atom_site_fract_z
_atom_type_partial_charge
C0 C 0.06195 0.51835 0.87684 0.0
C1 C 0.07393 0.4977 0.10266 0.0
O2 O 0.08751 0.55527 0.90557 0.0
Zn3 Zn 0.11134 0.57762 1.00034 0.0
O4 O 0.04085 0.48262 0.90849 0.0
Zn5 Zn 0.06471 0.50785 0.99071 0.0
O6 O 1.03409 0.54708 0.01562 0.0
O7 O 0.08683 0.61722 0.02222 0.0
O8 O 0.04889 0.4685 0.06188 0.0
O9 O 0.09833 0.53848 0.08581 0.0
O10 O 0.17592 0.59974 0.98535 0.0
O11 O 0.13343 0.52663 0.9766 0.0
C12 C 0.04563 0.58798 0.02697 0.0
C13 C 0.17212 0.56146 0.97462 0.0
C14 C 0.53401 0.5279 0.11209 0.0
C15 C 0.50431 0.49042 0.88649 0.0
O16 O 0.49843 0.52834 0.09364 0.0
Zn17 Zn 0.45982 0.51434 1.00539 0.0
O18 O 0.55502 0.51616 0.07294 0.0
Zn19 Zn 0.51627 0.50486 1.00158 0.0
O20 O 0.52859 0.57135 0.98214 0.0
O21 O 0.46447 0.57205 0.98944 0.0
O22 O 0.53227 0.48717 0.92254 0.0
O23 O 0.47552 0.49987 0.91117 0.0
O24 O 0.40182 0.46337 0.02726 0.0
O25 O 0.4568 0.44766 0.03373 0.0
C26 C 0.50654 0.59257 0.97909 0.0
C27 C 0.41537 0.4361 0.04091 0.0
C28 C 0.54525 1.01705 0.11923 0.0
C29 C 0.57787 0.0232 0.89168 0.0
O30 O 0.55156 0.98917 0.08642 0.0
Zn31 Zn 0.55574 1.01574 1.00432 0.0
O32 O 0.54189 0.04827 0.09118 0.0
Zn33 Zn 0.54855 0.07389 0.99566 0.0
O34 O 0.48792 0.064 0.97584 0.0
O35 O 0.48858 1.00067 0.98369 0.0
O36 O 0.56949 0.05417 0.90982 0.0
O37 O 0.57333 0.99337 0.93101 0.0
O38 O 0.61438 0.0779 0.02377 0.0
O39 O 0.60061 0.13381 0.01111 0.0
C40 C 0.46678 1.02156 0.97373 0.0
C41 C 0.62754 0.1197 0.02619 0.0
C42 C 0.5955 1.01904 0.62058 0.0
C43 C 0.56987 0.03176 0.3937 0.0
O44 O 0.62574 0.04449 0.58143 0.0
Zn45 Zn 0.58615 0.02879 0.50751 0.0
O46 O 0.55487 0.99538 0.60193 0.0
Zn47 Zn 0.51473 0.98226 0.51872 0.0
O48 O 0.49368 0.91794 0.503 0.0
O49 O 0.56699 0.96068 0.49394 0.0
O50 O 0.5343 1.00674 0.42519 0.0
O51 O 0.60762 0.05141 0.42202 0.0
O52 O 0.54767 0.05917 0.53612 0.0
O53 O 0.47681 1.00823 0.54578 0.0
C54 C 0.53226 0.92202 0.49227 0.0
C55 C 0.50741 0.04893 0.55054 0.0
C56 C 0.07153 0.51985 0.60187 0.0
C57 C 0.06271 0.48568 0.37541 0.0
O58 O 1.03705 0.51804 0.57543 0.0
Zn59 Zn 1.00714 0.50553 0.48317 0.0
O60 O 0.09991 0.51457 0.56868 0.0
Zn61 Zn 0.06925 0.50467 0.48834 0.0
O62 O 0.07674 0.56865 0.46644 0.0
O63 O 1.00945 0.56242 0.46566 0.0
O64 O 0.09386 0.4915 0.41374 0.0
O65 O 1.02949 0.49 0.39538 0.0
O66 O 0.95075 0.45052 0.50091 0.0
O67 O 1.01066 0.44272 0.50873 0.0
C68 C 0.05173 0.58641 0.45955 0.0
C69 C 0.96814 0.42608 0.51358 0.0
C70 C 0.56497 0.5338 0.38365 0.0
C71 C 0.53472 0.50178 0.61146 0.0
O72 O 0.56533 0.49832 0.40115 0.0
Zn73 Zn 0.55586 0.46 0.48585 0.0
O74 O 0.5587 0.55764 0.42514 0.0
Zn75 Zn 0.55146 0.52064 0.49802 0.0
O76 O 0.61624 0.52909 0.51087 0.0
O77 O 0.61509 0.46465 0.49904 0.0
O78 O 0.53718 0.53499 0.58167 0.0
O79 O 0.54083 0.47264 0.58087 0.0
O80 O 0.50022 0.40389 0.46191 0.0
O81 O 0.49147 0.4629 0.47319 0.0
C82 C 0.63678 0.50645 0.51058 0.0
C83 C 0.47479 0.42134 0.4606 0.0
C84 C 0.70584 0.81804 0.47814 0.0
C85 C 0.69917 0.85351 0.25323 0.0
O86 O 0.73571 0.85058 0.44662 0.0
Zn87 Zn 0.70515 0.83517 0.36494 0.0
O88 O 0.67113 0.78786 0.44873 0.0
Zn89 Zn 0.64286 0.77456 0.35292 0.0
O90 O 0.64532 0.721 0.32244 0.0
O91 O 0.71212 0.77982 0.33389 0.0
O92 O 0.66564 0.81642 0.27033 0.0
O93 O 0.73024 0.87588 0.29326 0.0
O94 O 0.64595 0.83853 0.39066 0.0
O95 O 0.58572 0.77353 0.37141 0.0
C96 C 0.68774 0.73866 0.3185 0.0
C97 C 0.60325 0.81362 0.39202 0.0
C98 C 0.21786 0.93552 0.33811 0.0
C99 C 0.13851 0.77639 0.40079 0.0
O100 O 0.23666 0.91129 0.33986 0.0
Zn101 Zn 0.18359 0.8566 0.37124 0.0
O102 O 0.17735 0.91926 0.35685 0.0
Zn103 Zn 0.12206 0.86038 0.3887 0.0
O104 O 0.1146 0.8788 0.47663 0.0
O105 O 0.17697 0.87563 0.46588 0.0
O106 O 0.11519 0.79631 0.40366 0.0
O107 O 0.17939 0.79808 0.38319 0.0
O108 O 0.14326 0.84459 0.2898 0.0
O109 O 0.08407 0.85198 0.3121 0.0
C110 C 0.15076 0.88339 0.50112 0.0
C111 C 0.10791 0.84483 0.27127 0.0
C112 C 0.21465 0.38358 0.44945 0.0
C113 C 0.25095 0.3842 0.22271 0.0
O114 O 0.20787 0.34557 0.42842 0.0
Zn115 Zn 0.21299 0.31565 0.3401 0.0
O116 O 0.2262 0.41562 0.41057 0.0
Zn117 Zn 0.22944 0.3847 0.33404 0.0
O118 O 0.16202 0.33929 0.30925 0.0
O119 O 0.15109 0.27108 0.31997 0.0
O120 O 0.25302 0.41659 0.25551 0.0
O121 O 0.23659 0.34601 0.24875 0.0
O122 O 0.26041 0.30073 0.36446 0.0
O123 O 0.28177 0.37251 0.36115 0.0
C124 C 0.13605 0.29711 0.3049 0.0
C125 C 0.29064 0.34123 0.3728 0.0
C126 C 0.3717 0.42264 0.80485 0.0
C127 C 0.28532 0.49856 0.86448 0.0
O128 O 0.33002 0.39584 0.81435 0.0
Zn129 Zn 0.2708 0.39995 0.83424 0.0
O130 O 0.38601 0.46444 0.80611 0.0
Zn131 Zn 0.32903 0.46334 0.827 0.0
O132 O 0.31278 0.43428 0.92203 0.0
O133 O 0.25152 0.36864 0.91338 0.0
O134 O 0.32628 0.5184 0.84707 0.0
O135 O 0.26227 0.45603 0.85955 0.0
O136 O 0.23296 0.37431 0.76068 0.0
O137 O 0.29035 0.44008 0.73959 0.0
C138 C 0.2817 0.39896 0.94819 0.0
C139 C 0.25424 0.40542 0.72112 0.0
C140 C 0.66654 0.93006 0.8197 0.0
C141 C 0.60297 0.77625 0.89097 0.0
O142 O 0.69681 0.91927 0.83033 0.0
Zn143 Zn 0.70008 0.86248 0.86492 0.0
O144 O 0.6258 0.90247 0.83103 0.0
Zn145 Zn 0.63439 0.8532 0.85713 0.0
O146 O 0.66294 0.87064 0.95183 0.0
O147 O 0.73194 0.88182 0.94585 0.0
O148 O 0.58198 0.79646 0.87414 0.0
O149 O 0.64599 0.79675 0.88848 0.0
O150 O 0.72903 0.85064 0.79308 0.0
O151 O 0.66083 0.83838 0.77133 0.0
C152 C 0.70002 0.88012 0.97938 0.0
C153 C 0.69718 0.83918 0.75326 0.0
C154 C 0.14763 0.87375 1.00215 0.0
C155 C 0.18741 0.91039 0.77546 0.0
O156 O 0.16551 0.8518 0.97734 0.0
Zn157 Zn 0.19737 0.85107 0.88783 0.0
O158 O 0.14728 0.90457 0.96968 0.0
Zn159 Zn 0.17533 0.89839 0.89103 0.0
O160 O 0.12796 0.83196 0.85648 0.0
O161 O 0.15994 0.78949 0.85952 0.0
O162 O 0.1728 0.92913 0.81437 0.0
O163 O 0.19965 0.88314 0.79703 0.0
O164 O 0.25927 0.87039 0.90793 0.0
O165 O 0.24684 0.92725 0.91149 0.0
C166 C 0.12664 0.79457 0.84509 0.0
C167 C 0.27423 0.91187 0.91655 0.0
C168 C 0.39146 0.18731 0.80447 0.0
C169 C 0.39041 0.22737 0.58115 0.0
O170 O 0.43021 0.2156 0.78325 0.0
Zn171 Zn 0.4599 0.2497 0.69656 0.0
O172 O 0.35782 0.17204 0.76712 0.0
Zn173 Zn 0.38886 0.20576 0.69252 0.0
O174 O 0.42767 0.17521 0.66371 0.0
O175 O 0.49905 0.22512 0.6722 0.0
O176 O 0.35667 0.20115 0.61459 0.0
O177 O 0.42945 0.24674 0.6066 0.0
O178 O 0.48205 0.31236 0.72308 0.0
O179 O 0.40822 0.27212 0.72353 0.0
C180 C 0.4689 0.18564 0.65741 0.0
C181 C 0.44389 0.30923 0.73361 0.0
C182 C 0.87617 0.16789 0.74844 0.0
C183 C 0.83263 0.12976 0.52462 0.0
O184 O 0.84513 0.17646 0.73183 0.0
Zn185 Zn 0.8058 0.16958 0.64783 0.0
O186 O 0.89278 0.15265 0.70716 0.0
Zn187 Zn 0.85517 0.1496 0.63626 0.0
O188 O 0.87692 0.21844 0.6137 0.0
O189 O 0.81996 0.23046 0.62967 0.0
O190 O 0.86215 0.1257 0.55586 0.0
O191 O 0.80963 0.14519 0.55325 0.0
O192 O 0.7462 0.12731 0.67931 0.0
O193 O 0.79143 0.09873 0.66932 0.0
C194 C 0.86044 0.24493 0.61259 0.0
C195 C 0.75331 0.09451 0.68488 0.0
C196 C 0.97145 0.69022 0.6902 0.0
C197 C 0.81814 0.61146 0.60762 0.0
O198 O 0.95602 0.71604 0.67444 0.0
Zn199 Zn 0.89575 0.71209 0.63951 0.0
O200 O 0.94724 0.64828 0.68297 0.0
Zn201 Zn 0.89472 0.65005 0.65 0.0
O202 O 0.91557 0.68109 0.55664 0.0
O203 O 0.91507 0.74492 0.56038 0.0
O204 O 0.84115 0.59441 0.62857 0.0
O205 O 0.8344 0.65394 0.61049 0.0
O206 O 0.88023 0.73835 0.71173 0.0
O207 O 0.87553 0.67363 0.73409 0.0
C208 C 0.92161 0.71677 0.52876 0.0
C209 C 0.87237 0.70785 0.7518 0.0
C210 C 0.9215 0.7235 0.25291 0.0
C211 C 0.87362 0.71815 0.02848 0.0
O212 O 0.9365 0.75699 0.21581 0.0
Zn213 Zn 0.89937 0.72444 0.14146 0.0
O214 O 0.89135 0.6852 0.23268 0.0
Zn215 Zn 0.85224 0.654 0.14929 0.0
O216 O 0.87304 0.61163 0.12772 0.0
O217 O 0.92615 0.68135 0.11639 0.0
O218 O 0.8539 0.68101 0.05799 0.0
O219 O 0.90199 0.75282 0.05886 0.0
O220 O 0.83551 0.70879 0.18021 0.0
O221 O 0.79109 0.63588 0.181 0.0
C222 C 0.91332 0.63955 0.11273 0.0
C223 C 0.79761 0.67496 0.19353 0.0
C224 C 0.33261 0.2631 0.15322 0.0
C225 C 0.28961 0.11069 0.22102 0.0
O226 O 0.36555 0.25645 0.16485 0.0
Zn227 Zn 0.37758 0.20375 0.19214 0.0
O228 O 0.29259 0.23128 0.15858 0.0
Zn229 Zn 0.30813 0.18612 0.18575 0.0
O230 O 0.33816 0.20958 0.27738 0.0
O231 O 0.4091 0.22634 0.27213 0.0
O232 O 0.26325 0.12562 0.20675 0.0
O233 O 0.33197 0.13641 0.21691 0.0
O234 O 0.40724 0.19686 0.1168 0.0
O235 O 0.33616 0.17647 0.10036 0.0
C236 C 0.37616 0.2234 0.30468 0.0
C237 C 0.37357 0.18153 0.07944 0.0
C238 C 0.89075 0.16843 0.0246 0.0
C239 C 0.84531 0.13696 0.24946 0.0
O240 O 0.87914 0.13221 0.05403 0.0
Zn241 Zn 0.86959 0.1512 0.13826 0.0
O242 O 0.89413 0.2022 0.0559 0.0
Zn243 Zn 0.88425 0.21916 0.1507 0.0
O244 O 0.94438 0.26251 0.18102 0.0
O245 O 0.93505 0.19464 0.1736 0.0
O246 O 0.85762 0.17715 0.23302 0.0
O247 O 0.84666 0.10965 0.20891 0.0
O248 O 0.81493 0.16382 0.12122 0.0
O249 O 0.838 0.23584 0.1341 0.0
C250 C 0.95955 0.23568 0.18919 0.0
C251 C 0.807 0.19661 0.12025 0.0
C252 C 0.10816 0.5069 0.27591 0.0
C253 C 0.06702 0.47991 0.30635 0.0
C254 C 0.1107 0.51048 0.20909 0.0
C255 C 0.07241 0.48637 0.17074 0.0
H256 H 0.13784 0.5279 0.30394 0.0
H257 H 0.1424 0.53377 0.18747 0.0
S258 S 0.95832 0.40596 0.22751 0.0
N259 N 0.98831 0.42531 0.29366 0.0
N260 N 0.99329 0.43091 0.16769 0.0
C261 C 1.03196 0.4563 0.20045 0.0
C262 C 1.0292 0.45342 0.26851 0.0
C263 C 0.5821 0.52159 0.27169 0.0
C264 C 0.56551 0.54217 0.31418 0.0
C265 C 0.57381 0.51931 0.20585 0.0
C266 C 0.54822 0.53719 0.17994 0.0
H267 H 0.59984 0.50512 0.28975 0.0
H268 H 0.58556 0.5013 0.17564 0.0
S269 S 0.50374 0.60134 0.26891 0.0
N270 N 0.52733 0.5859 0.32458 0.0
N271 N 0.51147 0.5814 0.20049 0.0
C272 C 0.5344 0.56092 0.22108 0.0
C273 C 0.54329 0.56364 0.28828 0.0
C274 C 0.5841 1.01418 0.21811 0.0
C275 C 0.54954 1.01896 0.18952 0.0
C276 C 0.59255 1.0213 0.28414 0.0
C277 C 0.56614 0.03259 0.32366 0.0
H278 H 0.60538 1.00584 0.18906 0.0
H279 H 0.61887 1.01647 0.30468 0.0
S280 S 0.47195 0.04933 0.27228 0.0
N281 N 0.48963 0.03678 0.20541 0.0
N282 N 0.50424 0.04823 0.32997 0.0
C283 C 0.53151 0.03737 0.29569 0.0
C284 C 0.52357 0.03111 0.22843 0.0
C285 C 0.06698 0.55349 0.70526 0.0
C286 C 0.07362 0.52151 0.67179 0.0
C287 C 0.06252 0.55191 0.772 0.0
C288 C 0.06267 0.51722 0.80669 0.0
H289 H 0.06505 0.57972 0.67959 0.0
H290 H 0.05842 0.57765 0.79656 0.0
S291 S 0.07791 0.42488 0.74065 0.0
N292 N 0.08008 0.45435 0.67745 0.0
N293 N 0.07021 0.45043 0.80304 0.0
C294 C 0.06884 0.4848 0.77361 0.0
C295 C 0.07473 0.48721 0.70595 0.0
C296 C 0.50482 0.51876 0.71147 0.0
C297 C 0.52534 0.49661 0.6812 0.0
C298 C 0.49638 0.51493 0.77756 0.0
C299 C 0.50873 0.48933 0.81605 0.0
H300 H 0.49524 0.5393 0.68398 0.0
H301 H 0.48135 0.53336 0.79891 0.0
S302 S 0.5617 0.42324 0.76015 0.0
N303 N 0.55631 0.4467 0.6947 0.0
N304 N 0.54097 0.4402 0.81895 0.0
C305 C 0.52853 0.46639 0.78634 0.0
C306 C 0.53665 0.46981 0.71894 0.0
C307 C 0.61347 0.06159 0.78949 0.0
C308 C 0.59082 1.02175 0.82437 0.0
C309 C 0.62025 0.0609 0.72321 0.0
C310 C 0.60379 1.02028 0.68971 0.0
H311 H 0.62454 0.0935 0.81316 0.0
H312 H 0.63503 0.09207 0.69743 0.0
S313 S 0.54544 0.90705 0.75873 0.0
N314 N 0.55527 0.94081 0.82087 0.0
N315 N 0.56702 0.93964 0.69605 0.0
C316 C 0.58375 0.98046 0.72448 0.0
C317 C 0.57745 0.98113 0.79196 0.0
C318 C 0.66363 0.80117 0.64936 0.0
C319 C 0.7021 0.82931 0.68517 0.0
C320 C 0.6659 0.79556 0.58309 0.0
C321 C 0.70666 0.81858 0.54942 0.0
H322 H 0.63114 0.78415 0.67246 0.0
H323 H 0.63489 0.77475 0.5577 0.0
S324 S 0.8178 0.8939 0.62151 0.0
N325 N 0.78281 0.8782 0.68286 0.0
N326 N 0.78698 0.86848 0.55783 0.0
C327 C 0.74577 0.84542 0.58502 0.0
C328 C 0.74353 0.85053 0.65296 0.0
C329 C 0.14389 0.91043 0.67855 0.0
C330 C 0.18281 0.91261 0.70488 0.0
C331 C 0.13409 0.90219 0.61251 0.0
C332 C 0.16304 0.89622 0.57011 0.0
H333 H 0.1195 0.91246 0.70971 0.0
H334 H 0.10291 0.89905 0.59507 0.0
S335 S 0.27219 0.90441 0.61476 0.0
N336 N 0.25197 0.9117 0.68306 0.0
N337 N 0.23481 0.89746 0.55977 0.0
C338 C 0.2034 0.90099 0.5958 0.0
C339 C 0.21293 0.90883 0.66283 0.0
C340 C 0.25024 0.43227 0.54543 0.0
C341 C 0.21722 0.39136 0.5197 0.0
C342 C 0.261 0.43695 0.61095 0.0
C343 C 0.23872 0.40108 0.65348 0.0
H344 H 0.26999 0.46006 0.51415 0.0
H345 H 0.28809 0.46854 0.62783 0.0
S346 S 0.14463 0.28895 0.61108 0.0
N347 N 0.15907 0.31583 0.54247 0.0
N348 N 0.17838 0.3246 0.66554 0.0
C349 C 0.20331 0.36097 0.6289 0.0
C350 C 0.1928 0.35614 0.5621 0.0
C351 C 0.66174 0.85484 0.15196 0.0
C352 C 0.7017 0.86798 0.18593 0.0
C353 C 0.66203 0.86181 0.08595 0.0
C354 C 0.70228 0.88144 0.05064 0.0
H355 H 0.62969 0.83776 0.17626 0.0
H356 H 0.63005 0.84942 0.06202 0.0
S357 S 0.81657 0.92543 0.11801 0.0
N358 N 0.78301 0.90483 0.18052 0.0
N359 N 0.78361 0.9171 0.05584 0.0
C360 C 0.74275 0.89676 0.08456 0.0
C361 C 0.74245 0.8903 0.15232 0.0
C362 C 0.12139 0.82363 0.09795 0.0
C363 C 0.12836 0.86318 0.06842 0.0
C364 C 0.10895 0.81514 0.16271 0.0
C365 C 0.10244 0.84553 0.20089 0.0
H366 H 0.12758 0.79979 0.0717 0.0
H367 H 0.10746 0.78593 0.18433 0.0
S368 S 0.113 0.95251 0.14661 0.0
N369 N 0.12459 0.93173 0.08204 0.0
N370 N 0.10149 0.9156 0.20375 0.0
C371 C 0.1062 0.88368 0.17115 0.0
C372 C 0.1191 0.89256 0.10502 0.0
C373 C 0.25095 0.35436 0.04758 0.0
C374 C 0.27819 0.39583 0.01891 0.0
C375 C 0.24373 0.35094 0.11379 0.0
C376 C 0.26246 0.38901 0.15382 0.0
H377 H 0.23457 0.32425 0.01861 0.0
H378 H 0.22199 0.31824 0.13337 0.0
S379 S 0.3369 0.50554 0.1031 0.0
N380 N 0.32488 0.47592 0.03611 0.0
N381 N 0.31055 0.46934 0.16056 0.0
C382 C 0.29038 0.43064 0.12614 0.0
C383 C 0.29844 0.43408 0.05873 0.0
C384 C 0.42018 0.19549 0.98085 0.0
C385 C 0.37786 0.17444 0.01023 0.0
C386 C 0.42425 0.19695 0.91401 0.0
C387 C 0.38619 0.17735 0.87394 0.0
H388 H 0.45029 0.21325 0.00943 0.0
H389 H 0.45756 0.21557 0.89381 0.0
S390 S 0.26822 0.10999 0.92758 0.0
N391 N 0.29745 0.12755 0.99455 0.0
N392 N 0.30518 0.13051 0.86893 0.0
C393 C 0.3439 0.15285 0.9028 0.0
C394 C 0.33974 0.15139 0.97093 0.0
C395 C 0.88681 0.20464 0.85515 0.0
C396 C 0.88832 0.1715 0.817 0.0
C397 C 0.89034 0.20462 0.92192 0.0
C398 C 0.89448 0.1708 0.95359 0.0
H399 H 0.88143 0.23009 0.83334 0.0
H400 H 0.88745 0.2302 0.94895 0.0
S401 S 0.90273 0.07768 0.87502 0.0
N402 N 0.89699 0.10539 0.81499 0.0
N403 N 0.90259 0.10468 0.94098 0.0
C404 C 0.89786 0.1384 0.91579 0.0
C405 C 0.8951 0.13894 0.8474 0.0
C406 C 0.89511 0.75575 0.92073 0.0
C407 C 0.86666 0.71842 0.95788 0.0
C408 C 0.8943 0.75338 0.85324 0.0
C409 C 0.86535 0.71349 0.82063 0.0
H410 H 0.91982 0.78629 0.94377 0.0
H411 H 0.91858 0.78199 0.82666 0.0
S412 S 0.77917 0.60866 0.89395 0.0
N413 N 0.80428 0.64215 0.95551 0.0
N414 N 0.80428 0.63775 0.82953 0.0
C415 C 0.83476 0.67708 0.85676 0.0
C416 C 0.83496 0.67956 0.92512 0.0
C417 C 0.42138 0.24633 0.40548 0.0
C418 C 0.3798 0.23087 0.37506 0.0
C419 C 0.42462 0.24723 0.47233 0.0
C420 C 0.38633 0.23223 0.51151 0.0
H421 H 0.45156 0.25639 0.37754 0.0
H422 H 0.45726 0.25785 0.4932 0.0
S423 S 0.27044 0.195 0.45631 0.0
N424 N 0.30003 0.20517 0.38976 0.0
N425 N 0.30638 0.20634 0.51544 0.0
C426 C 0.34497 0.21938 0.48203 0.0
C427 C 0.34165 0.21888 0.41383 0.0
C428 C 0.81053 0.1431 0.35102 0.0
C429 C 0.83377 0.12508 0.31734 0.0
C430 C 0.80757 0.14144 0.41795 0.0
C431 C 0.82864 0.12256 0.45405 0.0
H432 H 0.79619 0.16044 0.32555 0.0
H433 H 0.79093 0.15758 0.44155 0.0
S434 S 0.88993 0.06684 0.3878 0.0
N435 N 0.87487 0.08431 0.32401 0.0
N436 N 0.8701 0.08169 0.45023 0.0
C437 C 0.84965 0.10191 0.42057 0.0
C438 C 0.852 0.10302 0.35209 0.0
C439 C 0.93443 0.76011 0.4268 0.0
C440 C 0.93132 0.72264 0.45859 0.0
C441 C 0.93571 0.7626 0.35945 0.0
C442 C 0.93389 0.72769 0.32154 0.0
H443 H 0.93345 0.78669 0.45388 0.0
H444 H 0.93476 0.7904 0.33705 0.0
S445 S 0.93327 0.62593 0.37999 0.0
N446 N 0.93178 0.65229 0.44577 0.0
N447 N 0.93492 0.6576 0.32008 0.0
C448 C 0.93463 0.692 0.35257 0.0
C449 C 0.93315 0.68929 0.42082 0.0
C450 C 0.23847 0.57666 0.90479 0.0
C451 C 0.21053 0.55485 0.95747 0.0
C452 C 0.26554 0.56048 0.87649 0.0
C453 C 0.26472 0.52179 0.89975 0.0
H454 H 0.23692 0.60417 0.88251 0.0
H455 H 0.28465 0.57641 0.83387 0.0
S456 S 0.20245 0.45718 0.04252 0.0
N457 N 0.18836 0.49654 0.03636 0.0
N458 N 0.23748 0.46558 0.98285 0.0
C459 C 0.23937 0.50204 0.95516 0.0
C460 C 0.21274 0.51874 0.98414 0.0
C461 C 0.53171 0.70376 0.9074 0.0
C462 C 0.57842 0.72996 0.91574 0.0
C463 C 0.50821 0.65974 0.92979 0.0
C464 C 0.53058 0.64029 0.96121 0.0
H465 H 0.51319 0.71706 0.8825 0.0
H466 H 0.47252 0.64045 0.92083 0.0
S467 S 0.65164 0.69615 1.00216 0.0
N468 N 0.6454 0.73405 0.96266 0.0
N469 N 0.6014 0.65176 1.00429 0.0
C470 C 0.57695 0.66661 0.97186 0.0
C471 C 0.60082 0.71128 0.94923 0.0
C472 C 0.35094 0.92244 0.93955 0.0
C473 C 0.32299 0.9415 0.93174 0.0
C474 C 0.39683 0.9486 0.95311 0.0
C475 C 0.4175 0.99539 0.95949 0.0
H476 H 0.33737 0.88671 0.93514 0.0
H477 H 0.41626 0.93168 0.95839 0.0
S478 S 0.3598 0.06244 0.944 0.0
N479 N 0.3197 1.0106 0.93181 0.0
N480 N 0.40596 0.05976 0.95714 0.0
C481 C 0.39008 1.01511 0.95194 0.0
C482 C 0.34301 0.98828 0.9382 0.0
C483 C 0.45434 0.0748 0.59226 0.0
C484 C 0.49819 0.08452 0.57638 0.0
C485 C 0.44549 0.10756 0.6187 0.0
C486 C 0.48006 0.1516 0.63087 0.0
H487 H 0.4265 0.04156 0.58441 0.0
H488 H 0.411 0.09806 0.62974 0.0
S489 S 0.60104 0.19474 0.5984 0.0
N490 N 0.57692 0.14203 0.57514 0.0
N491 N 0.56004 0.20295 0.62472 0.0
C492 C 0.52408 0.1618 0.61535 0.0
C493 C 0.53316 0.12854 0.58817 0.0
C494 C 0.86811 0.31648 0.56863 0.0
C495 C 0.88823 0.29143 0.58908 0.0
C496 C 0.89384 0.35966 0.54358 0.0
C497 C 0.9408 0.37965 0.5381 0.0
H498 H 0.83208 0.30245 0.57119 0.0
H499 H 0.87673 0.37744 0.52845 0.0
S500 S 1.01021 0.32909 0.58865 0.0
N501 N 0.95826 0.29069 0.60446 0.0
N502 N 1.00639 0.37107 0.5579 0.0
C503 C 0.96132 0.35502 0.55928 0.0
C504 C 0.93516 0.31122 0.58459 0.0
C505 C 0.74728 0.53768 0.59314 0.0
C506 C 0.77352 0.58316 0.57764 0.0
C507 C 0.70372 0.51164 0.56812 0.0
C508 C 0.68515 0.53025 0.52663 0.0
H509 H 0.7598 0.52254 0.62663 0.0
H510 H 0.68373 0.47752 0.58385 0.0
S511 S 0.74266 0.64521 0.46232 0.0
N512 N 0.77942 0.64377 0.51173 0.0
N513 N 0.69815 0.59514 0.46526 0.0
C514 C 0.7121 0.57477 0.50775 0.0
C515 C 0.7561 0.60115 0.53312 0.0
C516 C 0.9901 0.65731 0.07401 0.0
C517 C 0.94593 0.62503 0.09058 0.0
C518 C 1.02188 0.64518 0.05319 0.0
C519 C 1.01103 0.60018 0.04771 0.0
H520 H 1.0005 0.69251 0.07722 0.0
H521 H 0.05524 0.67143 0.04129 0.0
S522 S 0.90021 0.50237 0.08538 0.0
N523 N 0.89325 0.54588 0.10003 0.0
N524 N 0.95256 0.52298 0.06108 0.0
C525 C 0.96691 0.56747 0.06388 0.0
C526 C 0.93457 0.57988 0.08524 0.0
C527 C 0.37376 0.34543 0.16427 0.0
C528 C 0.34306 0.30743 0.12966 0.0
C529 C 0.39463 0.38767 0.13613 0.0
C530 C 0.3857 0.39335 0.07232 0.0
H531 H 0.38365 0.34205 0.21224 0.0
H532 H 0.41974 0.41574 0.16338 0.0
S533 S 0.30811 0.30459 0.96126 0.0
N534 N 0.30403 0.27824 0.02882 0.0
N535 N 0.34366 0.35778 0.97578 0.0
C536 C 0.35362 0.35605 0.03813 0.0
C537 C 0.33207 0.31297 0.06695 0.0
C538 C 0.72527 0.15188 0.1361 0.0
C539 C 0.76111 0.18685 0.1039 0.0
C540 C 0.68147 0.13324 0.11288 0.0
C541 C 0.67169 0.14851 0.05613 0.0
H542 H 0.73149 0.13713 0.17773 0.0
H543 H 0.6553 0.10477 0.13763 0.0
S544 S 0.75331 0.24095 0.95562 0.0
N545 N 0.78393 0.23791 0.01435 0.0
N546 N 0.70102 0.20229 0.97009 0.0
C547 C 0.70668 0.18528 0.02544 0.0
C548 C 0.75163 0.20459 0.04948 0.0
C549 C 0.5763 0.88333 0.50538 0.0
C550 C 0.53962 0.88398 0.47647 0.0
C551 C 0.59441 0.85784 0.47968 0.0
C552 C 0.57662 0.83176 0.42392 0.0
H553 H 0.59306 0.90507 0.54596 0.0
H554 H 0.62412 0.86035 0.50195 0.0
S555 S 0.47799 0.81843 0.33314 0.0
N556 N 0.4839 0.85373 0.39171 0.0
N557 N 0.51783 0.80504 0.34354 0.0
C558 C 0.53777 0.82921 0.39722 0.0
C559 C 0.51927 0.85554 0.42349 0.0
C560 C 0.1112 0.6547 0.40545 0.0
C561 C 0.07285 0.6347 0.44486 0.0
C562 C 0.13274 0.70057 0.39197 0.0
C563 C 0.11691 0.72829 0.41773 0.0
H564 H 0.12444 0.63461 0.38424 0.0
H565 H 0.16157 0.71423 0.36043 0.0
S566 S 1.02226 0.69365 0.53225 0.0
N567 N 1.02271 0.64694 0.51443 0.0
N568 N 0.06312 0.73294 0.48996 0.0
C569 C 0.0794 0.70886 0.45892 0.0
C570 C 0.05737 0.66216 0.47222 0.0
C571 C 0.36169 0.33568 0.38765 0.0
C572 C 0.33458 0.35481 0.40343 0.0
C573 C 0.40676 0.35571 0.4088 0.0
C574 C 0.42603 0.39585 0.44492 0.0
H575 H 0.34882 0.30663 0.35646 0.0
H576 H 0.42715 0.34104 0.39405 0.0
S577 S 0.36639 0.45518 0.50546 0.0
N578 N 0.32825 0.41188 0.46517 0.0
N579 N 0.41255 0.45169 0.4986 0.0
C580 C 0.39814 0.41373 0.46284 0.0
C581 C 0.35252 0.39254 0.44394 0.0
C582 C 0.78144 0.71334 0.28243 0.0
C583 C 0.76506 0.68302 0.23069 0.0
C584 C 0.75481 0.72844 0.31316 0.0
C585 C 0.71054 0.71415 0.29338 0.0
H586 H 0.81589 0.72683 0.29798 0.0
H587 H 0.7698 0.75306 0.35121 0.0
S588 S 0.65097 0.63338 0.16169 0.0
N589 N 0.70113 0.6374 0.16263 0.0
N590 N 0.65072 0.66609 0.22023 0.0
C591 C 0.69274 0.68187 0.24387 0.0
C592 C 0.72011 0.66627 0.21251 0.0
C593 C 0.22949 0.04392 0.27551 0.0
C594 C 0.27222 0.06532 0.24772 0.0
C595 C 0.21335 1.00283 0.30568 0.0
C596 C 0.23889 0.98068 0.30903 0.0
H597 H 0.20847 0.0594 0.27518 0.0
H598 H 0.18006 0.98829 0.32625 0.0
S599 S 0.35233 1.0215 0.24024 0.0
N600 N 0.33974 0.06092 0.22347 0.0
N601 N 0.3088 0.98297 0.27959 0.0
C602 C 0.28155 1.00136 0.28057 0.0
C603 C 0.2983 0.04373 0.25009 0.0
C604 C 0.07681 0.31056 0.25597 0.0
C605 C 0.09005 0.28009 0.27826 0.0
C606 C 1.03479 0.29611 0.22741 0.0
C607 C 1.0041 0.25049 0.21953 0.0
H608 H 0.09927 0.34615 0.25985 0.0
H609 H 1.02656 0.32099 0.21087 0.0
S610 S 1.02075 0.15674 0.27339 0.0
N611 N 0.06789 0.20197 0.29284 0.0
N612 N 0.9891 0.17466 0.23951 0.0
C613 C 1.0165 0.21956 0.24268 0.0
C614 C 0.05931 0.23435 0.27191 0.0
C615 C 0.42821 0.35178 0.81826 0.0
C616 C 0.4387 0.34779 0.75412 0.0
C617 C 0.41013 0.3795 0.83548 0.0
C618 C 0.40137 0.40365 0.78915 0.0
H619 H 0.43148 0.33136 0.8547 0.0
H620 H 0.40104 0.38042 0.88486 0.0
S621 S 0.4241 0.40515 0.61583 0.0
N622 N 0.44083 0.3714 0.645 0.0
N623 N 0.4062 0.42294 0.67713 0.0
C624 C 0.41383 0.40157 0.72561 0.0
C625 C 0.43253 0.37367 0.70818 0.0
C626 C 0.70793 1.01207 0.68475 0.0
C627 C 0.7208 0.05291 0.71614 0.0
C628 C 0.68713 0.97185 0.71832 0.0
C629 C 0.67902 0.97128 0.78447 0.0
H630 H 0.71618 1.01145 0.63465 0.0
H631 H 0.6796 0.94123 0.6931 0.0
S632 S 0.70558 0.069 0.88864 0.0
N633 N 0.7228 0.0903 0.81664 0.0
N634 N 0.68401 1.01445 0.87993 0.0
C635 C 0.68995 1.01156 0.81599 0.0
C636 C 0.71079 0.05254 0.78166 0.0
C637 C 0.08376 0.78048 0.74531 0.0
C638 C 0.0913 0.76308 0.80154 0.0
C639 C 0.04685 0.75481 0.70627 0.0
C640 C 1.01566 0.71069 0.72208 0.0
H641 H 0.10572 0.81496 0.73258 0.0
H642 H 0.04137 0.77055 0.66518 0.0
S643 S 1.02303 0.64788 0.86073 0.0
N644 N 0.06745 0.69794 0.86826 0.0
N645 N 0.99692 0.64921 0.79501 0.0
C646 C 1.02454 0.69163 0.77567 0.0
C647 C 0.06268 0.71801 0.81553 0.0
loop_
_geom_bond_atom_site_label_1
_geom_bond_atom_site_label_2
_geom_bond_distance
_geom_bond_site_symmetry_2
_ccdc_geom_bond_type
C0 O2 1.247 1_655 S
C0 O4 1.258 . S
C1 O8 1.247 1_455 S
C1 O9 1.258 . S
O2 C0 1.247 1_455 S
O2 Zn3 2.027 1_556 S
Zn3 O2 2.027 1_554 S
Zn3 O7 2.024 1_455 S
Zn3 O9 2.036 . S
Zn3 O10 2.028 1_554 S
O4 C0 1.258 . S
O4 Zn5 2.018 1_556 S
Zn5 O4 2.018 1_554 S
Zn5 O6 2.031 . S
Zn5 O8 2.046 . S
Zn5 O11 2.014 1_654 S
O6 Zn5 2.031 . S
O6 C12 1.247 . S
O7 Zn3 2.024 1_655 S
O7 C12 1.268 . S
O8 C1 1.247 1_655 S
O8 Zn5 2.046 . S
O9 C1 1.258 . S
O9 Zn3 2.036 . S
O10 Zn3 2.028 1_556 S
O10 C13 1.247 . S
O11 Zn5 2.014 1_456 S
O11 C13 1.274 . S
C12 O6 1.247 . S
C12 O7 1.268 . S
C13 O10 1.247 . S
C13 O11 1.274 . S
C14 O16 1.247 . S
C14 O18 1.258 . S
C15 O22 1.247 . S
C15 O23 1.258 . S
O16 C14 1.247 . S
O16 Zn17 2.045 . S
Zn17 O16 2.045 . S
Zn17 O21 2.032 1_554 S
Zn17 O23 2.018 1_554 S
Zn17 O24 2.031 . S
O18 C14 1.258 . S
O18 Zn19 2.035 . S
Zn19 O18 2.035 . S
Zn19 O20 2.028 1_554 S
Zn19 O22 2.028 1_554 S
Zn19 O25 2.035 . S
O20 Zn19 2.028 1_556 S
O20 C26 1.247 . S
O21 Zn17 2.032 1_556 S
O21 C26 1.258 . S
O22 C15 1.247 . S
O22 Zn19 2.028 1_556 S
O23 C15 1.258 . S
O23 Zn17 2.018 1_556 S
O24 Zn17 2.031 . S
O24 C27 1.247 . S
O25 Zn19 2.035 . S
O25 C27 1.258 . S
C26 O20 1.247 . S
C26 O21 1.258 . S
C27 O24 1.247 . S
C27 O25 1.258 . S
C28 O30 1.247 . S
C28 O32 1.258 1_565 S
C29 O36 1.247 . S
C29 O37 1.258 1_545 S
O30 C28 1.247 . S
O30 Zn31 2.045 . S
Zn31 O30 2.045 . S
Zn31 O35 2.032 1_554 S
Zn31 O37 2.019 1_554 S
Zn31 O38 2.031 1_565 S
O32 C28 1.258 1_545 S
O32 Zn33 2.035 . S
Zn33 O32 2.035 . S
Zn33 O34 2.030 1_554 S
Zn33 O36 2.028 1_554 S
Zn33 O39 2.035 . S
O34 Zn33 2.030 1_556 S
O34 C40 1.234 1_545 S
O35 Zn31 2.032 1_556 S
O35 C40 1.258 . S
O36 C29 1.247 . S
O36 Zn33 2.028 1_556 S
O37 C29 1.258 1_565 S
O37 Zn31 2.019 1_556 S
O38 Zn31 2.031 1_545 S
O38 C41 1.247 . S
O39 Zn33 2.035 . S
O39 C41 1.258 . S
C40 O34 1.234 1_565 S
C40 O35 1.258 . S
C41 O38 1.247 . S
C41 O39 1.258 . S
C42 O44 1.247 1_565 S
C42 O46 1.258 . S
C43 O50 1.247 1_545 S
C43 O51 1.258 . S
O44 C42 1.247 1_545 S
O44 Zn45 2.028 . S
Zn45 O44 2.028 . S
Zn45 O49 2.051 . S
Zn45 O51 2.035 . S
Zn45 O52 2.028 . S
O46 C42 1.258 . S
O46 Zn47 2.035 . S
Zn47 O46 2.035 . S
Zn47 O48 2.028 . S
Zn47 O50 2.028 . S
Zn47 O53 2.035 1_565 S
O48 Zn47 2.028 . S
O48 C54 1.247 . S
O49 Zn45 2.051 . S
O49 C54 1.244 1_545 S
O50 C43 1.247 1_565 S
O50 Zn47 2.028 . S
O51 C43 1.258 . S
O51 Zn45 2.035 . S
O52 Zn45 2.028 . S
O52 C55 1.247 . S
O53 Zn47 2.035 1_545 S
O53 C55 1.258 . S
C54 O48 1.247 . S
C54 O49 1.244 1_565 S
C55 O52 1.247 . S
C55 O53 1.258 . S
C56 O58 1.247 1_455 S
C56 O60 1.258 . S
C57 O64 1.247 1_655 S
C57 O65 1.258 . S
O58 C56 1.247 1_655 S
O58 Zn59 2.028 . S
Zn59 O58 2.028 . S
Zn59 O63 2.032 1_655 S
Zn59 O65 2.035 . S
Zn59 O66 2.028 . S
O60 C56 1.258 . S
O60 Zn61 2.035 . S
Zn61 O60 2.035 . S
Zn61 O62 2.028 . S
Zn61 O64 2.028 . S
Zn61 O67 2.033 1_455 S
O62 Zn61 2.028 . S
O62 C68 1.247 . S
O63 Zn59 2.032 1_455 S
O63 C68 1.275 . S
O64 C57 1.247 1_455 S
O64 Zn61 2.028 . S
O65 C57 1.258 . S
O65 Zn59 2.035 . S
O66 Zn59 2.028 . S
O66 C69 1.247 . S
O67 Zn61 2.033 1_655 S
O67 C69 1.269 . S
C68 O62 1.247 . S
C68 O63 1.275 . S
C69 O66 1.247 . S
C69 O67 1.269 . S
C70 O72 1.247 . S
C70 O74 1.258 . S
C71 O78 1.247 . S
C71 O79 1.258 . S
O72 C70 1.247 . S
O72 Zn73 2.028 . S
Zn73 O72 2.028 . S
Zn73 O77 2.035 . S
Zn73 O79 2.035 . S
Zn73 O80 2.028 . S
O74 C70 1.258 . S
O74 Zn75 2.035 . S
Zn75 O74 2.035 . S
Zn75 O76 2.028 . S
Zn75 O78 2.028 . S
Zn75 O81 2.035 . S
O76 Zn75 2.028 . S
O76 C82 1.247 . S
O77 Zn73 2.035 . S
O77 C82 1.258 . S
O78 C71 1.247 . S
O78 Zn75 2.028 . S
O79 C71 1.258 . S
O79 Zn73 2.035 . S
O80 Zn73 2.028 . S
O80 C83 1.247 . S
O81 Zn75 2.035 . S
O81 C83 1.258 . S
C82 O76 1.247 . S
C82 O77 1.258 . S
C83 O80 1.247 . S
C83 O81 1.258 . S
C84 O86 1.247 . S
C84 O88 1.258 . S
C85 O92 1.247 . S
C85 O93 1.258 . S
O86 C84 1.247 . S
O86 Zn87 2.028 . S
Zn87 O86 2.028 . S
Zn87 O91 2.035 . S
Zn87 O93 2.035 . S
Zn87 O94 2.028 . S
O88 C84 1.258 . S
O88 Zn89 2.035 . S
Zn89 O88 2.035 . S
Zn89 O90 2.028 . S
Zn89 O92 2.028 . S
Zn89 O95 2.035 . S
O90 Zn89 2.028 . S
O90 C96 1.247 . S
O91 Zn87 2.035 . S
O91 C96 1.258 . S
O92 C85 1.247 . S
O92 Zn89 2.028 . S
O93 C85 1.258 . S
O93 Zn87 2.035 . S
O94 Zn87 2.028 . S
O94 C97 1.247 . S
O95 Zn89 2.035 . S
O95 C97 1.258 . S
C96 O90 1.247 . S
C96 O91 1.258 . S
C97 O94 1.247 . S
C97 O95 1.258 . S
C98 O100 1.247 . S
C98 O102 1.258 . S
C99 O106 1.247 . S
C99 O107 1.258 . S
O100 C98 1.247 . S
O100 Zn101 2.028 . S
Zn101 O100 2.028 . S
Zn101 O105 2.035 . S
Zn101 O107 2.035 . S
Zn101 O108 2.028 . S
O102 C98 1.258 . S
O102 Zn103 2.035 . S
Zn103 O102 2.035 . S
Zn103 O104 2.028 . S
Zn103 O106 2.028 . S
Zn103 O109 2.035 . S
O104 Zn103 2.028 . S
O104 C110 1.247 . S
O105 Zn101 2.035 . S
O105 C110 1.258 . S
O106 C99 1.247 . S
O106 Zn103 2.028 . S
O107 C99 1.258 . S
O107 Zn101 2.035 . S
O108 Zn101 2.028 . S
O108 C111 1.247 . S
O109 Zn103 2.035 . S
O109 C111 1.258 . S
C110 O104 1.247 . S
C110 O105 1.258 . S
C111 O108 1.247 . S
C111 O109 1.258 . S
C112 O114 1.247 . S
C112 O116 1.258 . S
C113 O120 1.247 . S
C113 O121 1.258 . S
O114 C112 1.247 . S
O114 Zn115 2.028 . S
Zn115 O114 2.028 . S
Zn115 O119 2.035 . S
Zn115 O121 2.035 . S
Zn115 O122 2.028 . S
O116 C112 1.258 . S
O116 Zn117 2.035 . S
Zn117 O116 2.035 . S
Zn117 O118 2.028 . S
Zn117 O120 2.028 . S
Zn117 O123 2.035 . S
O118 Zn117 2.028 . S
O118 C124 1.247 . S
O119 Zn115 2.035 . S
O119 C124 1.258 . S
O120 C113 1.247 . S
O120 Zn117 2.028 . S
O121 C113 1.258 . S
O121 Zn115 2.035 . S
O122 Zn115 2.028 . S
O122 C125 1.247 . S
O123 Zn117 2.035 . S
O123 C125 1.258 . S
C124 O118 1.247 . S
C124 O119 1.258 . S
C125 O122 1.247 . S
C125 O123 1.258 . S
C126 O128 1.247 . S
C126 O130 1.258 . S
C127 O134 1.247 . S
C127 O135 1.258 . S
O128 C126 1.247 . S
O128 Zn129 2.028 . S
Zn129 O128 2.028 . S
Zn129 O133 2.035 . S
Zn129 O135 2.035 . S
Zn129 O136 2.028 . S
O130 C126 1.258 . S
O130 Zn131 2.035 . S
Zn131 O130 2.035 . S
Zn131 O132 2.028 . S
Zn131 O134 2.028 . S
Zn131 O137 2.035 . S
O132 Zn131 2.028 . S
O132 C138 1.247 . S
O133 Zn129 2.035 . S
O133 C138 1.258 . S
O134 C127 1.247 . S
O134 Zn131 2.028 . S
O135 C127 1.258 . S
O135 Zn129 2.035 . S
O136 Zn129 2.028 . S
O136 C139 1.247 . S
O137 Zn131 2.035 . S
O137 C139 1.258 . S
C138 O132 1.247 . S
C138 O133 1.258 . S
C139 O136 1.247 . S
C139 O137 1.258 . S
C140 O142 1.247 . S
C140 O144 1.258 . S
C141 O148 1.247 . S
C141 O149 1.258 . S
O142 C140 1.247 . S
O142 Zn143 2.028 . S
Zn143 O142 2.028 . S
Zn143 O147 2.035 . S
Zn143 O149 2.035 . S
Zn143 O150 2.028 . S
O144 C140 1.258 . S
O144 Zn145 2.035 . S
Zn145 O144 2.035 . S
Zn145 O146 2.028 . S
Zn145 O148 2.028 . S
Zn145 O151 2.035 . S
O146 Zn145 2.028 . S
O146 C152 1.247 . S
O147 Zn143 2.035 . S
O147 C152 1.258 . S
O148 C141 1.247 . S
O148 Zn145 2.028 . S
O149 C141 1.258 . S
O149 Zn143 2.035 . S
O150 Zn143 2.028 . S
O150 C153 1.247 . S
O151 Zn145 2.035 . S
O151 C153 1.258 . S
C152 O146 1.247 . S
C152 O147 1.258 . S
C153 O150 1.247 . S
C153 O151 1.258 . S
C154 O156 1.247 . S
C154 O158 1.258 . S
C155 O162 1.247 . S
C155 O163 1.258 . S
O156 C154 1.247 . S
O156 Zn157 2.028 . S
Zn157 O156 2.028 . S
Zn157 O161 2.035 . S
Zn157 O163 2.035 . S
Zn157 O164 2.028 . S
O158 C154 1.258 . S
O158 Zn159 2.035 . S
Zn159 O158 2.035 . S
Zn159 O160 2.028 . S
Zn159 O162 2.028 . S
Zn159 O165 2.035 . S
O160 Zn159 2.028 . S
O160 C166 1.247 . S
O161 Zn157 2.035 . S
O161 C166 1.258 . S
O162 C155 1.247 . S
O162 Zn159 2.028 . S
O163 C155 1.258 . S
O163 Zn157 2.035 . S
O164 Zn157 2.028 . S
O164 C167 1.247 . S
O165 Zn159 2.035 . S
O165 C167 1.258 . S
C166 O160 1.247 . S
C166 O161 1.258 . S
C167 O164 1.247 . S
C167 O165 1.258 . S
C168 O170 1.247 . S
C168 O172 1.258 . S
C169 O176 1.247 . S
C169 O177 1.258 . S
O170 C168 1.247 . S
O170 Zn171 2.028 . S
Zn171 O170 2.028 . S
Zn171 O175 2.035 . S
Zn171 O177 2.035 . S
Zn171 O178 2.028 . S
O172 C168 1.258 . S
O172 Zn173 2.035 . S
Zn173 O172 2.035 . S
Zn173 O174 2.028 . S
Zn173 O176 2.028 . S
Zn173 O179 2.035 . S
O174 Zn173 2.028 . S
O174 C180 1.247 . S
O175 Zn171 2.035 . S
O175 C180 1.258 . S
O176 C169 1.247 . S
O176 Zn173 2.028 . S
O177 C169 1.258 . S
O177 Zn171 2.035 . S
O178 Zn171 2.028 . S
O178 C181 1.247 . S
O179 Zn173 2.035 . S
O179 C181 1.258 . S
C180 O174 1.247 . S
C180 O175 1.258 . S
C181 O178 1.247 . S
C181 O179 1.258 . S
C182 O184 1.247 . S
C182 O186 1.258 . S
C183 O190 1.247 . S
C183 O191 1.258 . S
O184 C182 1.247 . S
O184 Zn185 2.028 . S
Zn185 O184 2.028 . S
Zn185 O189 2.035 . S
Zn185 O191 2.035 . S
Zn185 O192 2.028 . S
O186 C182 1.258 . S
O186 Zn187 2.035 . S
Zn187 O186 2.035 . S
Zn187 O188 2.028 . S
Zn187 O190 2.028 . S
Zn187 O193 2.035 . S
O188 Zn187 2.028 . S
O188 C194 1.247 . S
O189 Zn185 2.035 . S
O189 C194 1.258 . S
O190 C183 1.247 . S
O190 Zn187 2.028 . S
O191 C183 1.258 . S
O191 Zn185 2.035 . S
O192 Zn185 2.028 . S
O192 C195 1.247 . S
O193 Zn187 2.035 . S
O193 C195 1.258 . S
C194 O188 1.247 . S
C194 O189 1.258 . S
C195 O192 1.247 . S
C195 O193 1.258 . S
C196 O198 1.247 . S
C196 O200 1.258 . S
C197 O204 1.247 . S
C197 O205 1.258 . S
O198 C196 1.247 . S
O198 Zn199 2.028 . S
Zn199 O198 2.028 . S
Zn199 O203 2.035 . S
Zn199 O205 2.035 . S
Zn199 O206 2.028 . S
O200 C196 1.258 . S
O200 Zn201 2.035 . S
Zn201 O200 2.035 . S
Zn201 O202 2.028 . S
Zn201 O204 2.028 . S
Zn201 O207 2.035 . S
O202 Zn201 2.028 . S
O202 C208 1.247 . S
O203 Zn199 2.035 . S
O203 C208 1.258 . S
O204 C197 1.247 . S
O204 Zn201 2.028 . S
O205 C197 1.258 . S
O205 Zn199 2.035 . S
O206 Zn199 2.028 . S
O206 C209 1.247 . S
O207 Zn201 2.035 . S
O207 C209 1.258 . S
C208 O202 1.247 . S
C208 O203 1.258 . S
C209 O206 1.247 . S
C209 O207 1.258 . S
C210 O212 1.247 . S
C210 O214 1.258 . S
C211 O218 1.247 . S
C211 O219 1.258 . S
O212 C210 1.247 . S
O212 Zn213 2.028 . S
Zn213 O212 2.028 . S
Zn213 O217 2.035 . S
Zn213 O219 2.035 . S
Zn213 O220 2.028 . S
O214 C210 1.258 . S
O214 Zn215 2.035 . S
Zn215 O214 2.035 . S
Zn215 O216 2.028 . S
Zn215 O218 2.028 . S
Zn215 O221 2.035 . S
O216 Zn215 2.028 . S
O216 C222 1.247 . S
O217 Zn213 2.035 . S
O217 C222 1.258 . S
O218 C211 1.247 . S
O218 Zn215 2.028 . S
O219 C211 1.258 . S
O219 Zn213 2.035 . S
O220 Zn213 2.028 . S
O220 C223 1.247 . S
O221 Zn215 2.035 . S
O221 C223 1.258 . S
C222 O216 1.247 . S
C222 O217 1.258 . S
C223 O220 1.247 . S
C223 O221 1.258 . S
C224 O226 1.247 . S
C224 O228 1.258 . S
C225 O232 1.247 . S
C225 O233 1.258 . S
O226 C224 1.247 . S
O226 Zn227 2.028 . S
Zn227 O226 2.028 . S
Zn227 O231 2.035 . S
Zn227 O233 2.035 . S
Zn227 O234 2.028 . S
O228 C224 1.258 . S
O228 Zn229 2.035 . S
Zn229 O228 2.035 . S
Zn229 O230 2.028 . S
Zn229 O232 2.028 . S
Zn229 O235 2.035 . S
O230 Zn229 2.028 . S
O230 C236 1.247 . S
O231 Zn227 2.035 . S
O231 C236 1.258 . S
O232 C225 1.247 . S
O232 Zn229 2.028 . S
O233 C225 1.258 . S
O233 Zn227 2.035 . S
O234 Zn227 2.028 . S
O234 C237 1.247 . S
O235 Zn229 2.035 . S
O235 C237 1.258 . S
C236 O230 1.247 . S
C236 O231 1.258 . S
C237 O234 1.247 . S
C237 O235 1.258 . S
C238 O240 1.247 . S
C238 O242 1.258 . S
C239 O246 1.247 . S
C239 O247 1.258 . S
O240 C238 1.247 . S
O240 Zn241 2.028 . S
Zn241 O240 2.028 . S
Zn241 O245 2.035 . S
Zn241 O247 2.035 . S
Zn241 O248 2.028 . S
O242 C238 1.258 . S
O242 Zn243 2.035 . S
Zn243 O242 2.035 . S
Zn243 O244 2.028 . S
Zn243 O246 2.028 . S
Zn243 O249 2.035 . S
O244 Zn243 2.028 . S
O244 C250 1.247 . S
O245 Zn241 2.035 . S
O245 C250 1.258 . S
O246 C239 1.247 . S
O246 Zn243 2.028 . S
O247 C239 1.258 . S
O247 Zn241 2.035 . S
O248 Zn241 2.028 . S
O248 C251 1.247 . S
O249 Zn243 2.035 . S
O249 C251 1.258 . S
C250 O244 1.247 . S
C250 O245 1.258 . S
C251 O248 1.247 . S
C251 O249 1.258 . S
C252 C253 1.369 1_455 S
C252 C254 1.419 . S
C252 H256 0.930 . S
C253 C252 1.369 1_655 S
C253 C262 1.429 . S
C254 C252 1.419 . S
C254 C255 1.363 . S
C254 H257 0.929 . S
C255 C254 1.363 . S
C255 C261 1.428 1_455 S
H256 C252 0.930 . S
H257 C254 0.929 . S
S258 N259 1.613 . S
S258 N260 1.610 . S
N259 S258 1.613 . S
N259 C262 1.350 . S
N260 S258 1.610 . S
N260 C261 1.351 . S
C261 C255 1.428 1_655 S
C261 N260 1.351 . S
C261 C262 1.434 . S
C262 C253 1.429 . S
C262 N259 1.350 . S
C262 C261 1.434 . S
C263 C264 1.369 . S
C263 C265 1.419 . S
C263 H267 0.930 . S
C264 C263 1.369 . S
C264 C273 1.429 . S
C265 C263 1.419 . S
C265 C266 1.363 . S
C265 H268 0.929 . S
C266 C265 1.363 . S
C266 C272 1.428 . S
H267 C263 0.930 . S
H268 C265 0.929 . S
S269 N270 1.613 . S
S269 N271 1.610 . S
N270 S269 1.613 . S
N270 C273 1.350 . S
N271 S269 1.610 . S
N271 C272 1.351 . S
C272 C266 1.428 . S
C272 N271 1.351 . S
C272 C273 1.434 . S
C273 C264 1.429 . S
C273 N270 1.350 . S
C273 C272 1.434 . S
C274 C275 1.369 . S
C274 C276 1.419 . S
C274 H278 0.930 . S
C275 C274 1.369 . S
C275 C284 1.429 1_565 S
C276 C274 1.419 . S
C276 C277 1.363 1_565 S
C276 H279 0.929 . S
C277 C276 1.363 1_545 S
C277 C283 1.428 . S
H278 C274 0.930 . S
H279 C276 0.929 . S
S280 N281 1.613 . S
S280 N282 1.610 . S
N281 S280 1.613 . S
N281 C284 1.350 . S
N282 S280 1.610 . S
N282 C283 1.351 . S
C283 C277 1.428 . S
C283 N282 1.351 . S
C283 C284 1.434 . S
C284 C275 1.429 1_545 S
C284 N281 1.350 . S
C284 C283 1.434 . S
C285 C286 1.369 . S
C285 C287 1.419 1_455 S
C285 H289 0.930 . S
C286 C285 1.369 . S
C286 C295 1.429 . S
C287 C285 1.419 1_655 S
C287 C288 1.363 . S
C287 H290 0.929 . S
C288 C287 1.363 . S
C288 C294 1.428 . S
H289 C285 0.930 . S
H290 C287 0.929 . S
S291 N292 1.613 1_655 S
S291 N293 1.610 . S
N292 S291 1.613 1_455 S
N292 C295 1.350 . S
N293 S291 1.610 . S
N293 C294 1.351 . S
C294 C288 1.428 . S
C294 N293 1.351 . S
C294 C295 1.434 1_655 S
C295 C286 1.429 . S
C295 N292 1.350 . S
C295 C294 1.434 1_455 S
C296 C297 1.369 . S
C296 C298 1.419 . S
C296 H300 0.930 . S
C297 C296 1.369 . S
C297 C306 1.429 . S
C298 C296 1.419 . S
C298 C299 1.363 . S
C298 H301 0.929 . S
C299 C298 1.363 . S
C299 C305 1.428 . S
H300 C296 0.930 . S
H301 C298 0.929 . S
S302 N303 1.613 . S
S302 N304 1.610 . S
N303 S302 1.613 . S
N303 C306 1.350 . S
N304 S302 1.610 . S
N304 C305 1.351 . S
C305 C299 1.428 . S
C305 N304 1.351 . S
C305 C306 1.434 . S
C306 C297 1.429 . S
C306 N303 1.350 . S
C306 C305 1.434 . S
C307 C308 1.369 . S
C307 C309 1.419 . S
C307 H311 0.930 . S
C308 C307 1.369 . S
C308 C317 1.429 1_545 S
C309 C307 1.419 . S
C309 C310 1.363 1_545 S
C309 H312 0.929 . S
C310 C309 1.363 1_565 S
C310 C316 1.428 . S
H311 C307 0.930 . S
H312 C309 0.929 . S
S313 N314 1.613 . S
S313 N315 1.610 . S
N314 S313 1.613 . S
N314 C317 1.350 . S
N315 S313 1.610 . S
N315 C316 1.351 . S
C316 C310 1.428 . S
C316 N315 1.351 . S
C316 C317 1.434 . S
C317 C308 1.429 1_565 S
C317 N314 1.350 . S
C317 C316 1.434 . S
C318 C319 1.369 . S
C318 C320 1.419 . S
C318 H322 0.930 . S
C319 C318 1.369 . S
C319 C328 1.429 . S
C320 C318 1.419 . S
C320 C321 1.363 . S
C320 H323 0.929 . S
C321 C320 1.363 . S
C321 C327 1.428 . S
H322 C318 0.930 . S
H323 C320 0.929 . S
S324 N325 1.613 . S
S324 N326 1.610 . S
N325 S324 1.613 . S
N325 C328 1.350 . S
N326 S324 1.610 . S
N326 C327 1.351 . S
C327 C321 1.428 . S
C327 N326 1.351 . S
C327 C328 1.434 . S
C328 C319 1.429 . S
C328 N325 1.350 . S
C328 C327 1.434 . S
C329 C330 1.369 . S
C329 C331 1.419 . S
C329 H333 0.930 . S
C330 C329 1.369 . S
C330 C339 1.429 . S
C331 C329 1.419 . S
C331 C332 1.363 . S
C331 H334 0.929 . S
C332 C331 1.363 . S
C332 C338 1.428 . S
H333 C329 0.930 . S
H334 C331 0.929 . S
S335 N336 1.613 . S
S335 N337 1.610 . S
N336 S335 1.613 . S
N336 C339 1.350 . S
N337 S335 1.610 . S
N337 C338 1.351 . S
C338 C332 1.428 . S
C338 N337 1.351 . S
C338 C339 1.434 . S
C339 C330 1.429 . S
C339 N336 1.350 . S
C339 C338 1.434 . S
C340 C341 1.369 . S
C340 C342 1.419 . S
C340 H344 0.930 . S
C341 C340 1.369 . S
C341 C350 1.429 . S
C342 C340 1.419 . S
C342 C343 1.363 . S
C342 H345 0.929 . S
C343 C342 1.363 . S
C343 C349 1.428 . S
H344 C340 0.930 . S
H345 C342 0.929 . S
S346 N347 1.613 . S
S346 N348 1.610 . S
N347 S346 1.613 . S
N347 C350 1.350 . S
N348 S346 1.610 . S
N348 C349 1.351 . S
C349 C343 1.428 . S
C349 N348 1.351 . S
C349 C350 1.434 . S
C350 C341 1.429 . S
C350 N347 1.350 . S
C350 C349 1.434 . S
C351 C352 1.369 . S
C351 C353 1.419 . S
C351 H355 0.930 . S
C352 C351 1.369 . S
C352 C361 1.429 . S
C353 C351 1.419 . S
C353 C354 1.363 . S
C353 H356 0.929 . S
C354 C353 1.363 . S
C354 C360 1.428 . S
H355 C351 0.930 . S
H356 C353 0.929 . S
S357 N358 1.613 . S
S357 N359 1.610 . S
N358 S357 1.613 . S
N358 C361 1.350 . S
N359 S357 1.610 . S
N359 C360 1.351 . S
C360 C354 1.428 . S
C360 N359 1.351 . S
C360 C361 1.434 . S
C361 C352 1.429 . S
C361 N358 1.350 . S
C361 C360 1.434 . S
C362 C363 1.369 . S
C362 C364 1.419 . S
C362 H366 0.930 . S
C363 C362 1.369 . S
C363 C372 1.429 . S
C364 C362 1.419 . S
C364 C365 1.363 . S
C364 H367 0.929 . S
C365 C364 1.363 . S
C365 C371 1.428 . S
H366 C362 0.930 . S
H367 C364 0.929 . S
S368 N369 1.613 . S
S368 N370 1.610 . S
N369 S368 1.613 . S
N369 C372 1.350 . S
N370 S368 1.610 . S
N370 C371 1.351 . S
C371 C365 1.428 . S
C371 N370 1.351 . S
C371 C372 1.434 . S
C372 C363 1.429 . S
C372 N369 1.350 . S
C372 C371 1.434 . S
C373 C374 1.369 . S
C373 C375 1.419 . S
C373 H377 0.930 . S
C374 C373 1.369 . S
C374 C383 1.429 . S
C375 C373 1.419 . S
C375 C376 1.363 . S
C375 H378 0.929 . S
C376 C375 1.363 . S
C376 C382 1.428 . S
H377 C373 0.930 . S
H378 C375 0.929 . S
S379 N380 1.613 . S
S379 N381 1.610 . S
N380 S379 1.613 . S
N380 C383 1.350 . S
N381 S379 1.610 . S
N381 C382 1.351 . S
C382 C376 1.428 . S
C382 N381 1.351 . S
C382 C383 1.434 . S
C383 C374 1.429 . S
C383 N380 1.350 . S
C383 C382 1.434 . S
C384 C385 1.369 . S
C384 C386 1.419 . S
C384 H388 0.930 . S
C385 C384 1.369 . S
C385 C394 1.429 . S
C386 C384 1.419 . S
C386 C387 1.363 . S
C386 H389 0.929 . S
C387 C386 1.363 . S
C387 C393 1.428 . S
H388 C384 0.930 . S
H389 C386 0.929 . S
S390 N391 1.613 . S
S390 N392 1.610 . S
N391 S390 1.613 . S
N391 C394 1.350 . S
N392 S390 1.610 . S
N392 C393 1.351 . S
C393 C387 1.428 . S
C393 N392 1.351 . S
C393 C394 1.434 . S
C394 C385 1.429 . S
C394 N391 1.350 . S
C394 C393 1.434 . S
C395 C396 1.369 . S
C395 C397 1.419 . S
C395 H399 0.930 . S
C396 C395 1.369 . S
C396 C405 1.429 . S
C397 C395 1.419 . S
C397 C398 1.363 . S
C397 H400 0.929 . S
C398 C397 1.363 . S
C398 C404 1.428 . S
H399 C395 0.930 . S
H400 C397 0.929 . S
S401 N402 1.613 . S
S401 N403 1.610 . S
N402 S401 1.613 . S
N402 C405 1.350 . S
N403 S401 1.610 . S
N403 C404 1.351 . S
C404 C398 1.428 . S
C404 N403 1.351 . S
C404 C405 1.434 . S
C405 C396 1.429 . S
C405 N402 1.350 . S
C405 C404 1.434 . S
C406 C407 1.369 . S
C406 C408 1.419 . S
C406 H410 0.930 . S
C407 C406 1.369 . S
C407 C416 1.429 . S
C408 C406 1.419 . S
C408 C409 1.363 . S
C408 H411 0.929 . S
C409 C408 1.363 . S
C409 C415 1.428 . S
H410 C406 0.930 . S
H411 C408 0.929 . S
S412 N413 1.613 . S
S412 N414 1.610 . S
N413 S412 1.613 . S
N413 C416 1.350 . S
N414 S412 1.610 . S
N414 C415 1.351 . S
C415 C409 1.428 . S
C415 N414 1.351 . S
C415 C416 1.434 . S
C416 C407 1.429 . S
C416 N413 1.350 . S
C416 C415 1.434 . S
C417 C418 1.369 . S
C417 C419 1.419 . S
C417 H421 0.930 . S
C418 C417 1.369 . S
C418 C427 1.429 . S
C419 C417 1.419 . S
C419 C420 1.363 . S
C419 H422 0.929 . S
C420 C419 1.363 . S
C420 C426 1.428 . S
H421 C417 0.930 . S
H422 C419 0.929 . S
S423 N424 1.613 . S
S423 N425 1.610 . S
N424 S423 1.613 . S
N424 C427 1.350 . S
N425 S423 1.610 . S
N425 C426 1.351 . S
C426 C420 1.428 . S
C426 N425 1.351 . S
C426 C427 1.434 . S
C427 C418 1.429 . S
C427 N424 1.350 . S
C427 C426 1.434 . S
C428 C429 1.369 . S
C428 C430 1.419 . S
C428 H432 0.930 . S
C429 C428 1.369 . S
C429 C438 1.429 . S
C430 C428 1.419 . S
C430 C431 1.363 . S
C430 H433 0.929 . S
C431 C430 1.363 . S
C431 C437 1.428 . S
H432 C428 0.930 . S
H433 C430 0.929 . S
S434 N435 1.613 . S
S434 N436 1.610 . S
N435 S434 1.613 . S
N435 C438 1.350 . S
N436 S434 1.610 . S
N436 C437 1.351 . S
C437 C431 1.428 . S
C437 N436 1.351 . S
C437 C438 1.434 . S
C438 C429 1.429 . S
C438 N435 1.350 . S
C438 C437 1.434 . S
C439 C440 1.369 . S
C439 C441 1.419 . S
C439 H443 0.930 . S
C440 C439 1.369 . S
C440 C449 1.429 . S
C441 C439 1.419 . S
C441 C442 1.363 . S
C441 H444 0.929 . S
C442 C441 1.363 . S
C442 C448 1.428 . S
H443 C439 0.930 . S
H444 C441 0.929 . S
S445 N446 1.613 . S
S445 N447 1.610 . S
N446 S445 1.613 . S
N446 C449 1.350 . S
N447 S445 1.610 . S
N447 C448 1.351 . S
C448 C442 1.428 . S
C448 N447 1.351 . S
C448 C449 1.434 . S
C449 C440 1.429 . S
C449 N446 1.350 . S
C449 C448 1.434 . S
C450 C451 1.369 . S
C450 C452 1.419 . S
C450 H454 0.930 . S
C451 C450 1.369 . S
C451 C460 1.429 . S
C452 C450 1.419 . S
C452 C453 1.363 . S
C452 H455 0.929 . S
C453 C452 1.363 . S
C453 C459 1.428 . S
H454 C450 0.930 . S
H455 C452 0.929 . S
S456 N457 1.613 . S
S456 N458 1.610 1_554 S
N457 S456 1.613 . S
N457 C460 1.350 1_554 S
N458 S456 1.610 1_556 S
N458 C459 1.351 . S
C459 C453 1.428 . S
C459 N458 1.351 . S
C459 C460 1.434 . S
C460 C451 1.429 . S
C460 N457 1.350 1_556 S
C460 C459 1.434 . S
C461 C462 1.369 . S
C461 C463 1.419 . S
C461 H465 0.930 . S
C462 C461 1.369 . S
C462 C471 1.429 . S
C463 C461 1.419 . S
C463 C464 1.363 . S
C463 H466 0.929 . S
C464 C463 1.363 . S
C464 C470 1.428 . S
H465 C461 0.930 . S
H466 C463 0.929 . S
S467 N468 1.613 . S
S467 N469 1.610 . S
N468 S467 1.613 . S
N468 C471 1.350 . S
N469 S467 1.610 . S
N469 C470 1.351 . S
C470 C464 1.428 . S
C470 N469 1.351 . S
C470 C471 1.434 . S
C471 C462 1.429 . S
C471 N468 1.350 . S
C471 C470 1.434 . S
C472 C473 1.369 . S
C472 C474 1.419 . S
C472 H476 0.930 . S
C473 C472 1.369 . S
C473 C482 1.429 . S
C474 C472 1.419 . S
C474 C475 1.363 . S
C474 H477 0.929 1_556 S
C475 C474 1.363 . S
C475 C481 1.428 . S
H476 C472 0.930 . S
H477 C474 0.929 1_554 S
S478 N479 1.613 . S
S478 N480 1.610 . S
N479 S478 1.613 . S
N479 C482 1.350 . S
N480 S478 1.610 . S
N480 C481 1.351 . S
C481 C475 1.428 . S
C481 N480 1.351 . S
C481 C482 1.434 . S
C482 C473 1.429 . S
C482 N479 1.350 . S
C482 C481 1.434 . S
C483 C484 1.369 . S
C483 C485 1.419 . S
C483 H487 0.930 . S
C484 C483 1.369 . S
C484 C493 1.429 . S
C485 C483 1.419 . S
C485 C486 1.363 . S
C485 H488 0.929 . S
C486 C485 1.363 . S
C486 C492 1.428 . S
H487 C483 0.930 . S
H488 C485 0.929 . S
S489 N490 1.613 . S
S489 N491 1.610 . S
N490 S489 1.613 . S
N490 C493 1.350 . S
N491 S489 1.610 . S
N491 C492 1.351 . S
C492 C486 1.428 . S
C492 N491 1.351 . S
C492 C493 1.434 . S
C493 C484 1.429 . S
C493 N490 1.350 . S
C493 C492 1.434 . S
C494 C495 1.369 . S
C494 C496 1.419 . S
C494 H498 0.930 . S
C495 C494 1.369 . S
C495 C504 1.429 . S
C496 C494 1.419 . S
C496 C497 1.363 . S
C496 H499 0.929 . S
C497 C496 1.363 . S
C497 C503 1.428 . S
H498 C494 0.930 . S
H499 C496 0.929 . S
S500 N501 1.613 . S
S500 N502 1.610 . S
N501 S500 1.613 . S
N501 C504 1.350 . S
N502 S500 1.610 . S
N502 C503 1.351 . S
C503 C497 1.428 . S
C503 N502 1.351 . S
C503 C504 1.434 . S
C504 C495 1.429 . S
C504 N501 1.350 . S
C504 C503 1.434 . S
C505 C506 1.369 . S
C505 C507 1.419 . S
C505 H509 0.930 . S
C506 C505 1.369 . S
C506 C515 1.429 . S
C507 C505 1.419 . S
C507 C508 1.363 . S
C507 H510 0.929 . S
C508 C507 1.363 . S
C508 C514 1.428 . S
H509 C505 0.930 . S
H510 C507 0.929 . S
S511 N512 1.613 . S
S511 N513 1.610 . S
N512 S511 1.613 . S
N512 C515 1.350 . S
N513 S511 1.610 . S
N513 C514 1.351 . S
C514 C508 1.428 . S
C514 N513 1.351 . S
C514 C515 1.434 . S
C515 C506 1.429 . S
C515 N512 1.350 . S
C515 C514 1.434 . S
C516 C517 1.369 . S
C516 C518 1.419 . S
C516 H520 0.930 . S
C517 C516 1.369 . S
C517 C526 1.429 . S
C518 C516 1.419 . S
C518 C519 1.363 . S
C518 H521 0.929 . S
C519 C518 1.363 . S
C519 C525 1.428 . S
H520 C516 0.930 . S
H521 C518 0.929 . S
S522 N523 1.613 1_556 S
S522 N524 1.610 . S
N523 S522 1.613 1_554 S
N523 C526 1.350 . S
N524 S522 1.610 . S
N524 C525 1.351 1_556 S
C525 C519 1.428 . S
C525 N524 1.351 1_554 S
C525 C526 1.434 . S
C526 C517 1.429 . S
C526 N523 1.350 . S
C526 C525 1.434 . S
C527 C528 1.369 . S
C527 C529 1.419 . S
C527 H531 0.930 . S
C528 C527 1.369 . S
C528 C537 1.429 . S
C529 C527 1.419 . S
C529 C530 1.363 . S
C529 H532 0.929 . S
C530 C529 1.363 . S
C530 C536 1.428 . S
H531 C527 0.930 . S
H532 C529 0.929 . S
S533 N534 1.613 1_556 S
S533 N535 1.610 . S
N534 S533 1.613 1_554 S
N534 C537 1.350 . S
N535 S533 1.610 . S
N535 C536 1.351 1_556 S
C536 C530 1.428 . S
C536 N535 1.351 1_554 S
C536 C537 1.434 . S
C537 C528 1.429 . S
C537 N534 1.350 . S
C537 C536 1.434 . S
C538 C539 1.369 . S
C538 C540 1.419 . S
C538 H542 0.930 . S
C539 C538 1.369 . S
C539 C548 1.429 . S
C540 C538 1.419 . S
C540 C541 1.363 . S
C540 H543 0.929 . S
C541 C540 1.363 . S
C541 C547 1.428 . S
H542 C538 0.930 . S
H543 C540 0.929 . S
S544 N545 1.613 1_556 S
S544 N546 1.610 . S
N545 S544 1.613 1_554 S
N545 C548 1.350 . S
N546 S544 1.610 . S
N546 C547 1.351 1_556 S
C547 C541 1.428 . S
C547 N546 1.351 1_554 S
C547 C548 1.434 . S
C548 C539 1.429 . S
C548 N545 1.350 . S
C548 C547 1.434 . S
C549 C550 1.369 . S
C549 C551 1.419 . S
C549 H553 0.930 . S
C550 C549 1.369 . S
C550 C559 1.429 . S
C551 C549 1.419 . S
C551 C552 1.363 . S
C551 H554 0.929 . S
C552 C551 1.363 . S
C552 C558 1.428 . S
H553 C549 0.930 . S
H554 C551 0.929 . S
S555 N556 1.613 . S
S555 N557 1.610 . S
N556 S555 1.613 . S
N556 C559 1.350 . S
N557 S555 1.610 . S
N557 C558 1.351 . S
C558 C552 1.428 . S
C558 N557 1.351 . S
C558 C559 1.434 . S
C559 C550 1.429 . S
C559 N556 1.350 . S
C559 C558 1.434 . S
C560 C561 1.369 . S
C560 C562 1.419 . S
C560 H564 0.930 . S
C561 C560 1.369 . S
C561 C570 1.429 . S
C562 C560 1.419 . S
C562 C563 1.363 . S
C562 H565 0.929 . S
C563 C562 1.363 . S
C563 C569 1.428 . S
H564 C560 0.930 . S
H565 C562 0.929 . S
S566 N567 1.613 . S
S566 N568 1.610 . S
N567 S566 1.613 . S
N567 C570 1.350 . S
N568 S566 1.610 . S
N568 C569 1.351 . S
C569 C563 1.428 . S
C569 N568 1.351 . S
C569 C570 1.434 . S
C570 C561 1.429 . S
C570 N567 1.350 . S
C570 C569 1.434 . S
C571 C572 1.369 . S
C571 C573 1.419 . S
C571 H575 0.930 . S
C572 C571 1.369 . S
C572 C581 1.429 . S
C573 C571 1.419 . S
C573 C574 1.363 . S
C573 H576 0.929 . S
C574 C573 1.363 . S
C574 C580 1.428 . S
H575 C571 0.930 . S
H576 C573 0.929 . S
S577 N578 1.613 . S
S577 N579 1.610 . S
N578 S577 1.613 . S
N578 C581 1.350 . S
N579 S577 1.610 . S
N579 C580 1.351 . S
C580 C574 1.428 . S
C580 N579 1.351 . S
C580 C581 1.434 . S
C581 C572 1.429 . S
C581 N578 1.350 . S
C581 C580 1.434 . S
C582 C583 1.369 . S
C582 C584 1.419 . S
C582 H586 0.930 . S
C583 C582 1.369 . S
C583 C592 1.429 . S
C584 C582 1.419 . S
C584 C585 1.363 . S
C584 H587 0.929 . S
C585 C584 1.363 . S
C585 C591 1.428 . S
H586 C582 0.930 . S
H587 C584 0.929 . S
S588 N589 1.613 . S
S588 N590 1.610 . S
N589 S588 1.613 . S
N589 C592 1.350 . S
N590 S588 1.610 . S
N590 C591 1.351 . S
C591 C585 1.428 . S
C591 N590 1.351 . S
C591 C592 1.434 . S
C592 C583 1.429 . S
C592 N589 1.350 . S
C592 C591 1.434 . S
C593 C594 1.369 . S
C593 C595 1.419 1_545 S
C593 H597 0.930 . S
C594 C593 1.369 . S
C594 C603 1.429 . S
C595 C593 1.419 1_565 S
C595 C596 1.363 . S
C595 H598 0.929 . S
C596 C595 1.363 . S
C596 C602 1.428 . S
H597 C593 0.930 . S
H598 C595 0.929 . S
S599 N600 1.613 1_565 S
S599 N601 1.610 . S
N600 S599 1.613 1_545 S
N600 C603 1.350 . S
N601 S599 1.610 . S
N601 C602 1.351 . S
C602 C596 1.428 . S
C602 N601 1.351 . S
C602 C603 1.434 1_565 S
C603 C594 1.429 . S
C603 N600 1.350 . S
C603 C602 1.434 1_545 S
C604 C605 1.369 . S
C604 C606 1.419 1_455 S
C604 H608 0.930 . S
C605 C604 1.369 . S
C605 C614 1.429 . S
C606 C604 1.419 1_655 S
C606 C607 1.363 . S
C606 H609 0.929 . S
C607 C606 1.363 . S
C607 C613 1.428 . S
H608 C604 0.930 . S
H609 C606 0.929 . S
S610 N611 1.613 . S
S610 N612 1.610 1_455 S
N611 S610 1.613 . S
N611 C614 1.350 . S
N612 S610 1.610 1_655 S
N612 C613 1.351 . S
C613 C607 1.428 . S
C613 N612 1.351 . S
C613 C614 1.434 1_655 S
C614 C605 1.429 . S
C614 N611 1.350 . S
C614 C613 1.434 1_455 S
C615 C616 1.369 . S
C615 C617 1.419 . S
C615 H619 0.930 . S
C616 C615 1.369 . S
C616 C625 1.429 . S
C617 C615 1.419 . S
C617 C618 1.363 . S
C617 H620 0.929 . S
C618 C617 1.363 . S
C618 C624 1.428 . S
H619 C615 0.930 . S
H620 C617 0.929 . S
S621 N622 1.613 . S
S621 N623 1.610 . S
N622 S621 1.613 . S
N622 C625 1.350 . S
N623 S621 1.610 . S
N623 C624 1.351 . S
C624 C618 1.428 . S
C624 N623 1.351 . S
C624 C625 1.434 . S
C625 C616 1.429 . S
C625 N622 1.350 . S
C625 C624 1.434 . S
C626 C627 1.369 . S
C626 C628 1.419 1_545 S
C626 H630 0.930 . S
C627 C626 1.369 . S
C627 C636 1.429 . S
C628 C626 1.419 1_565 S
C628 C629 1.363 . S
C628 H631 0.929 . S
C629 C628 1.363 . S
C629 C635 1.428 . S
H630 C626 0.930 . S
H631 C628 0.929 . S
S632 N633 1.613 . S
S632 N634 1.610 1_545 S
N633 S632 1.613 . S
N633 C636 1.350 . S
N634 S632 1.610 1_565 S
N634 C635 1.351 . S
C635 C629 1.428 . S
C635 N634 1.351 . S
C635 C636 1.434 1_565 S
C636 C627 1.429 . S
C636 N633 1.350 . S
C636 C635 1.434 1_545 S
C637 C638 1.369 . S
C637 C639 1.419 1_455 S
C637 H641 0.930 . S
C638 C637 1.369 . S
C638 C647 1.429 . S
C639 C637 1.419 1_655 S
C639 C640 1.363 . S
C639 H642 0.929 . S
C640 C639 1.363 . S
C640 C646 1.428 . S
H641 C637 0.930 . S
H642 C639 0.929 . S
S643 N644 1.613 1_655 S
S643 N645 1.610 . S
N644 S643 1.613 1_455 S
N644 C647 1.350 . S
N645 S643 1.610 . S
N645 C646 1.351 . S
C646 C640 1.428 . S
C646 N645 1.351 . S
C646 C647 1.434 1_655 S
C647 C638 1.429 . S
C647 N644 1.350 . S
C647 C646 1.434 1_455 S
C253 C57 1.303 . S
C255 C1 1.302 . S
C264 C70 1.302 . S
C266 C14 1.303 . S
C275 C28 1.302 . S
C277 C43 1.303 . S
C286 C56 1.302 . S
C288 C0 1.303 . S
C297 C71 1.303 . S
C299 C15 1.303 . S
C308 C29 1.302 . S
C310 C42 1.303 . S
C319 C153 1.302 . S
C321 C84 1.303 . S
C330 C155 1.303 . S
C332 C110 1.302 . S
C341 C112 1.303 . S
C343 C139 1.302 . S
C352 C85 1.302 . S
C354 C152 1.303 1_554 S
C363 C154 1.303 1_554 S
C365 C111 1.302 . S
C374 C138 1.301 1_554 S
C376 C113 1.303 . S
C385 C237 1.302 1_556 S
C387 C168 1.303 . S
C396 C182 1.302 . S
C398 C238 1.303 1_556 S
C407 C211 1.302 1_556 S
C409 C209 1.303 . S
C418 C236 1.301 . S
C420 C169 1.303 . S
C429 C239 1.302 . S
C431 C183 1.303 . S
C440 C208 1.302 . S
C442 C210 1.303 . S
C451 C13 1.535 . S
C453 C127 1.530 . S
C462 C141 1.535 . S
C464 C26 1.533 . S
C473 C167 1.535 . S
C475 C40 1.533 . S
C484 C55 1.533 . S
C486 C180 1.534 . S
C495 C194 1.535 . S
C497 C69 1.533 . S
C506 C197 1.533 . S
C508 C82 1.534 . S
C517 C222 1.533 . S
C519 C12 1.538 . S
C528 C224 1.532 . S
C530 C27 1.535 . S
C539 C251 1.533 . S
C541 C41 1.534 . S
C550 C54 1.533 . S
C552 C97 1.534 . S
C561 C68 1.534 . S
C563 C99 1.533 . S
C572 C125 1.533 . S
C574 C83 1.535 . S
C583 C223 1.535 . S
C585 C96 1.533 . S
C594 C225 1.535 . S
C596 C98 1.533 . S
C605 C124 1.532 . S
C607 C250 1.535 . S
C616 C181 1.535 . S
C618 C126 1.533 . S
C627 C195 1.533 . S
C629 C140 1.535 . S
C638 C166 1.534 . S
C640 C196 1.533 . S
