# Generated by pormake.
# Topology vbm, (6)-cn, num edge types: 1
# Building blocks:
#     Node 0, Type 0, BuildingBlock: MIFKUJ_clean_sbu_0, # of connection points: 6
#     Node 1, Type 0, BuildingBlock: MIFKUJ_clean_sbu_0, # of connection points: 6
#     Node 2, Type 0, BuildingBlock: MIFKUJ_clean_sbu_0, # of connection points: 6
#     Node 3, Type 0, BuildingBlock: MIFKUJ_clean_sbu_0, # of connection points: 6
#     Node 4, Type 0, BuildingBlock: MIFKUJ_clean_sbu_0, # of connection points: 6
#     Node 5, Type 0, BuildingBlock: MIFKUJ_clean_sbu_0, # of connection points: 6
#     Node 6, Type 0, BuildingBlock: MIFKUJ_clean_sbu_0, # of connection points: 6
#     Node 7, Type 0, BuildingBlock: MIFKUJ_clean_sbu_0, # of connection points: 6
#     Node 8, Type 0, BuildingBlock: MIFKUJ_clean_sbu_0, # of connection points: 6
#     Node 9, Type 0, BuildingBlock: MIFKUJ_clean_sbu_0, # of connection points: 6
#     Node 10, Type 0, BuildingBlock: MIFKUJ_clean_sbu_0, # of connection points: 6
#     Node 11, Type 0, BuildingBlock: MIFKUJ_clean_sbu_0, # of connection points: 6
#     Node 12, Type 0, BuildingBlock: MIFKUJ_clean_sbu_0, # of connection points: 6
#     Node 13, Type 0, BuildingBlock: MIFKUJ_clean_sbu_0, # of connection points: 6
#     Node 14, Type 0, BuildingBlock: MIFKUJ_clean_sbu_0, # of connection points: 6
#     Node 15, Type 0, BuildingBlock: MIFKUJ_clean_sbu_0, # of connection points: 6
#     Edge 16, Type (0, 0), BuildingBlock: KIFKEQ_clean_linker_1, # of connection points: 2
#     Edge 17, Type (0, 0), BuildingBlock: KIFKEQ_clean_linker_1, # of connection points: 2
#     Edge 18, Type (0, 0), BuildingBlock: KIFKEQ_clean_linker_1, # of connection points: 2
#     Edge 19, Type (0, 0), BuildingBlock: KIFKEQ_clean_linker_1, # of connection points: 2
#     Edge 20, Type (0, 0), BuildingBlock: KIFKEQ_clean_linker_1, # of connection points: 2
#     Edge 21, Type (0, 0), BuildingBlock: KIFKEQ_clean_linker_1, # of connection points: 2
#     Edge 22, Type (0, 0), BuildingBlock: KIFKEQ_clean_linker_1, # of connection points: 2
#     Edge 23, Type (0, 0), BuildingBlock: KIFKEQ_clean_linker_1, # of connection points: 2
#     Edge 24, Type (0, 0), BuildingBlock: KIFKEQ_clean_linker_1, # of connection points: 2
#     Edge 25, Type (0, 0), BuildingBlock: KIFKEQ_clean_linker_1, # of connection points: 2
#     Edge 26, Type (0, 0), BuildingBlock: KIFKEQ_clean_linker_1, # of connection points: 2
#     Edge 27, Type (0, 0), BuildingBlock: KIFKEQ_clean_linker_1, # of connection points: 2
#     Edge 28, Type (0, 0), BuildingBlock: KIFKEQ_clean_linker_1, # of connection points: 2
#     Edge 29, Type (0, 0), BuildingBlock: KIFKEQ_clean_linker_1, # of connection points: 2
#     Edge 30, Type (0, 0), BuildingBlock: KIFKEQ_clean_linker_1, # of connection points: 2
#     Edge 31, Type (0, 0), BuildingBlock: KIFKEQ_clean_linker_1, # of connection points: 2
#     Edge 32, Type (0, 0), BuildingBlock: KIFKEQ_clean_linker_1, # of connection points: 2
#     Edge 33, Type (0, 0), BuildingBlock: KIFKEQ_clean_linker_1, # of connection points: 2
#     Edge 34, Type (0, 0), BuildingBlock: KIFKEQ_clean_linker_1, # of connection points: 2
#     Edge 35, Type (0, 0), BuildingBlock: KIFKEQ_clean_linker_1, # of connection points: 2
#     Edge 36, Type (0, 0), BuildingBlock: KIFKEQ_clean_linker_1, # of connection points: 2
#     Edge 37, Type (0, 0), BuildingBlock: KIFKEQ_clean_linker_1, # of connection points: 2
#     Edge 38, Type (0, 0), BuildingBlock: KIFKEQ_clean_linker_1, # of connection points: 2
#     Edge 39, Type (0, 0), BuildingBlock: KIFKEQ_clean_linker_1, # of connection points: 2
#     Edge 40, Type (0, 0), BuildingBlock: KIFKEQ_clean_linker_1, # of connection points: 2
#     Edge 41, Type (0, 0), BuildingBlock: KIFKEQ_clean_linker_1, # of connection points: 2
#     Edge 42, Type (0, 0), BuildingBlock: KIFKEQ_clean_linker_1, # of connection points: 2
#     Edge 43, Type (0, 0), BuildingBlock: KIFKEQ_clean_linker_1, # of connection points: 2
#     Edge 44, Type (0, 0), BuildingBlock: KIFKEQ_clean_linker_1, # of connection points: 2
#     Edge 45, Type (0, 0), BuildingBlock: KIFKEQ_clean_linker_1, # of connection points: 2
#     Edge 46, Type (0, 0), BuildingBlock: KIFKEQ_clean_linker_1, # of connection points: 2
#     Edge 47, Type (0, 0), BuildingBlock: KIFKEQ_clean_linker_1, # of connection points: 2
#     Edge 48, Type (0, 0), BuildingBlock: KIFKEQ_clean_linker_1, # of connection points: 2
#     Edge 49, Type (0, 0), BuildingBlock: KIFKEQ_clean_linker_1, # of connection points: 2
#     Edge 50, Type (0, 0), BuildingBlock: KIFKEQ_clean_linker_1, # of connection points: 2
#     Edge 51, Type (0, 0), BuildingBlock: KIFKEQ_clean_linker_1, # of connection points: 2
#     Edge 52, Type (0, 0), BuildingBlock: KIFKEQ_clean_linker_1, # of connection points: 2
#     Edge 53, Type (0, 0), BuildingBlock: KIFKEQ_clean_linker_1, # of connection points: 2
#     Edge 54, Type (0, 0), BuildingBlock: KIFKEQ_clean_linker_1, # of connection points: 2
#     Edge 55, Type (0, 0), BuildingBlock: KIFKEQ_clean_linker_1, # of connection points: 2
#     Edge 56, Type (0, 0), BuildingBlock: KIFKEQ_clean_linker_1, # of connection points: 2
#     Edge 57, Type (0, 0), BuildingBlock: KIFKEQ_clean_linker_1, # of connection points: 2
#     Edge 58, Type (0, 0), BuildingBlock: KIFKEQ_clean_linker_1, # of connection points: 2
#     Edge 59, Type (0, 0), BuildingBlock: KIFKEQ_clean_linker_1, # of connection points: 2
#     Edge 60, Type (0, 0), BuildingBlock: KIFKEQ_clean_linker_1, # of connection points: 2
#     Edge 61, Type (0, 0), BuildingBlock: KIFKEQ_clean_linker_1, # of connection points: 2
#     Edge 62, Type (0, 0), BuildingBlock: KIFKEQ_clean_linker_1, # of connection points: 2
#     Edge 63, Type (0, 0), BuildingBlock: KIFKEQ_clean_linker_1, # of connection points: 2
# Relax obj value: 0.053
# Max RMSD: 0.106
# Mean RMSD: 0.106
data_MOF--net-vbm--node1-MIFKUJ_clean_sbu_0--edge1-KIFKEQ_clean_linker_1
_symmetry_space_group_name_H-M    P1
_symmetry_Int_Tables_number       1
_symmetry_cell_setting            triclinic
loop_
_symmetry_equiv_pos_as_xyz
'x, y, z'
_cell_length_a     68.115943
_cell_length_b     19.077997
_cell_length_c     56.450667
_cell_angle_alpha  89.967117
_cell_angle_beta   89.93785
_cell_angle_gamma 89.841993
loop_
_atom_site_label
_atom_site_type_symbol
_atom_site_fract_x
_atom_site_fract_y
_atom_site_fract_z
_atom_type_partial_charge
Zn0 Zn 0.13655 0.20575 0.12463 0.0
Zn1 Zn 0.12832 0.02259 0.12033 0.0
C2 C 0.17584 0.24203 0.13885 0.0
O3 O 0.16638 0.28856 0.15169 0.0
C4 C 0.0875 0.9975 0.1176 0.0
O5 O 0.09415 0.95397 0.10142 0.0
O6 O 0.12998 0.30884 0.12827 0.0
O7 O 0.12894 0.17699 0.09124 0.0
O8 O 0.13132 0.061 0.08771 0.0
C9 C 0.13546 0.3515 0.11226 0.0
O10 O 0.14433 0.32685 0.09332 0.0
O11 O 0.16612 0.19931 0.1262 0.0
C12 C 0.12569 0.87707 0.13442 0.0
O13 O 0.1145 0.90391 0.1511 0.0
O14 O 0.13379 0.91794 0.11952 0.0
O15 O 0.14544 0.06689 0.14465 0.0
O16 O 0.12544 0.15314 0.15286 0.0
O17 O 0.09967 0.03529 0.12889 0.0
C18 C 0.12928 0.12163 0.07862 0.0
C19 C 0.13484 0.09903 0.15955 0.0
Zn20 Zn 0.86643 0.79626 0.1266 0.0
Zn21 Zn 0.90082 0.98882 0.12677 0.0
C22 C 0.82733 0.75901 0.13672 0.0
O23 O 0.83698 0.72068 0.15218 0.0
C24 C 0.94074 0.03281 0.12493 0.0
O25 O 0.93291 0.08029 0.11093 0.0
O26 O 0.87567 0.69496 0.12473 0.0
O27 O 0.87996 0.85865 0.10119 0.0
O28 O 0.89775 0.95386 0.09367 0.0
C29 C 0.86614 0.64864 0.11333 0.0
O30 O 0.85081 0.66782 0.10077 0.0
O31 O 0.83696 0.79798 0.1226 0.0
C32 C 0.89668 0.13571 0.1415 0.0
O33 O 0.91069 0.11983 0.15657 0.0
O34 O 0.8897 0.08787 0.12825 0.0
O35 O 0.88643 0.91558 0.14406 0.0
O36 O 0.87106 0.82971 0.16041 0.0
O37 O 0.92969 0.98725 0.1345 0.0
C38 C 0.88864 0.89939 0.08651 0.0
C39 C 0.88023 0.8869 0.16274 0.0
Zn40 Zn 0.14032 0.79859 0.36029 0.0
Zn41 Zn 0.10582 0.98989 0.36722 0.0
C42 C 0.17978 0.78724 0.34221 0.0
O43 O 0.17034 0.78385 0.32197 0.0
C44 C 0.06584 0.03521 0.37531 0.0
O45 O 0.07456 0.08563 0.3871 0.0
O46 O 0.13108 0.69754 0.3604 0.0
O47 O 0.13079 0.8489 0.39029 0.0
O48 O 0.11355 0.94583 0.39784 0.0
C49 C 0.14121 0.65096 0.37101 0.0
O50 O 0.15692 0.67017 0.38279 0.0
O51 O 0.17004 0.79499 0.36129 0.0
C52 C 0.10873 0.13626 0.35275 0.0
O53 O 0.09574 0.11736 0.33682 0.0
O54 O 0.11537 0.09056 0.3671 0.0
O55 O 0.11698 0.93463 0.34068 0.0
O56 O 0.13319 0.84199 0.32858 0.0
O57 O 0.07624 0.98845 0.36523 0.0
C58 C 0.12291 0.89179 0.40484 0.0
C59 C 0.1242 0.89869 0.32395 0.0
Zn60 Zn 0.87335 0.20639 0.36123 0.0
Zn61 Zn 0.87771 0.02879 0.3668 0.0
C62 C 0.83306 0.24607 0.35189 0.0
O63 O 0.84169 0.29732 0.34038 0.0
C64 C 0.918 0.0066 0.37633 0.0
O65 O 0.90986 0.96153 0.39092 0.0
O66 O 0.8795 0.31097 0.35701 0.0
O67 O 0.88287 0.17596 0.39396 0.0
O68 O 0.86944 0.07047 0.39744 0.0
C69 C 0.87943 0.35352 0.37441 0.0
O70 O 0.87664 0.32886 0.39588 0.0
O71 O 0.84359 0.19937 0.36184 0.0
C72 C 0.8812 0.88225 0.35256 0.0
O73 O 0.89067 0.91053 0.33467 0.0
O74 O 0.87376 0.92241 0.36825 0.0
O75 O 0.86309 0.0668 0.33917 0.0
O76 O 0.8833 0.15363 0.33208 0.0
O77 O 0.90699 0.04462 0.3634 0.0
C78 C 0.87638 0.12584 0.40671 0.0
C79 C 0.87364 0.10093 0.32474 0.0
Zn80 Zn 0.88128 0.9827 0.86716 0.0
Zn81 Zn 0.86523 0.79427 0.86416 0.0
C82 C 0.92177 0.00667 0.86967 0.0
O83 O 0.91492 0.04817 0.88633 0.0
C84 C 0.8274 0.77011 0.84308 0.0
O85 O 0.83828 0.74599 0.82565 0.0
O86 O 0.87573 0.08626 0.86869 0.0
O87 O 0.86278 0.93825 0.84459 0.0
O88 O 0.87682 0.83962 0.83489 0.0
C89 C 0.88394 0.12966 0.85477 0.0
O90 O 0.89605 0.10656 0.83839 0.0
O91 O 0.90976 0.96955 0.85787 0.0
C92 C 0.86226 0.64928 0.87468 0.0
O93 O 0.84736 0.67267 0.88721 0.0
O94 O 0.87279 0.69267 0.86329 0.0
O95 O 0.87182 0.83029 0.89725 0.0
O96 O 0.87837 0.94438 0.89957 0.0
O97 O 0.83574 0.79618 0.86116 0.0
C98 C 0.87151 0.90117 0.82929 0.0
C99 C 0.87564 0.88511 0.90929 0.0
Zn100 Zn 0.10864 0.02388 0.86074 0.0
Zn101 Zn 0.14338 0.21574 0.86125 0.0
C102 C 0.06867 0.98704 0.86465 0.0
O103 O 0.07655 0.94499 0.88047 0.0
C104 C 0.18452 0.17901 0.85903 0.0
O105 O 0.17765 0.12465 0.84745 0.0
O106 O 0.11899 0.92337 0.85928 0.0
O107 O 0.12396 0.09485 0.84369 0.0
O108 O 0.14079 0.17751 0.82762 0.0
C109 C 0.11004 0.87631 0.84751 0.0
O110 O 0.09496 0.89444 0.83435 0.0
O111 O 0.07976 0.02784 0.85291 0.0
C112 C 0.13888 0.36154 0.87515 0.0
O113 O 0.15062 0.34274 0.8925 0.0
O114 O 0.13308 0.31538 0.8605 0.0
O115 O 0.12934 0.15547 0.88703 0.0
O116 O 0.11142 0.05964 0.8937 0.0
O117 O 0.1725 0.22312 0.86773 0.0
C118 C 0.13137 0.12085 0.82521 0.0
C119 C 0.12019 0.11442 0.90122 0.0
Zn120 Zn 0.8993 0.00962 0.62378 0.0
Zn121 Zn 0.87114 0.19937 0.6296 0.0
C122 C 0.94025 0.04695 0.61732 0.0
O123 O 0.9329 0.08026 0.59898 0.0
C124 C 0.83271 0.24025 0.646 0.0
O125 O 0.84342 0.28083 0.6596 0.0
O126 O 0.89397 0.90634 0.61868 0.0
O127 O 0.88152 0.0421 0.64978 0.0
O128 O 0.88276 0.15406 0.65893 0.0
C129 C 0.88948 0.86636 0.63588 0.0
O130 O 0.88789 0.89319 0.65722 0.0
O131 O 0.92858 0.01613 0.63153 0.0
C132 C 0.87207 0.34394 0.61491 0.0
O133 O 0.86096 0.31945 0.59781 0.0
O134 O 0.87871 0.30169 0.63041 0.0
O135 O 0.8788 0.16149 0.5973 0.0
O136 O 0.89352 0.05774 0.59314 0.0
O137 O 0.84133 0.19811 0.6319 0.0
C138 C 0.88571 0.0902 0.66435 0.0
C139 C 0.88627 0.11355 0.58441 0.0
Zn140 Zn 0.12764 0.97001 0.62213 0.0
Zn141 Zn 0.13693 0.79028 0.62838 0.0
C142 C 0.08709 0.97028 0.61051 0.0
O143 O 0.09513 0.98649 0.59007 0.0
C144 C 0.17649 0.78708 0.64704 0.0
O145 O 0.16708 0.77107 0.66663 0.0
O146 O 0.13133 0.07558 0.6196 0.0
O147 O 0.14396 0.93568 0.64898 0.0
O148 O 0.12604 0.8433 0.65715 0.0
C149 C 0.12687 0.11536 0.63691 0.0
O150 O 0.1206 0.08682 0.6567 0.0
O151 O 0.0983 0.95697 0.62799 0.0
C152 C 0.12728 0.64392 0.61701 0.0
O153 O 0.12365 0.6698 0.5959 0.0
O154 O 0.13241 0.68533 0.63358 0.0
O155 O 0.12792 0.81521 0.59485 0.0
O156 O 0.13526 0.9282 0.59117 0.0
O157 O 0.16664 0.79983 0.62838 0.0
C158 C 0.13502 0.89808 0.66397 0.0
C159 C 0.13205 0.86836 0.5821 0.0
Zn160 Zn 0.63984 0.70596 0.13024 0.0
Zn161 Zn 0.62407 0.51814 0.1258 0.0
C162 C 0.67932 0.75292 0.14179 0.0
O163 O 0.66995 0.80682 0.1509 0.0
C164 C 0.5837 0.52365 0.11755 0.0
O165 O 0.59081 0.50514 0.09684 0.0
O166 O 0.63182 0.80747 0.1318 0.0
O167 O 0.63342 0.672 0.09679 0.0
O168 O 0.62766 0.55757 0.09345 0.0
C169 C 0.63683 0.84934 0.11535 0.0
O170 O 0.64661 0.8248 0.09705 0.0
O171 O 0.66952 0.70288 0.13279 0.0
C172 C 0.61771 0.37112 0.13514 0.0
O173 O 0.60343 0.39564 0.14844 0.0
O174 O 0.62875 0.41381 0.12412 0.0
O175 O 0.64255 0.55983 0.14903 0.0
O176 O 0.62826 0.65761 0.15928 0.0
O177 O 0.59549 0.53379 0.13465 0.0
C178 C 0.62996 0.61783 0.08429 0.0
C179 C 0.63376 0.59596 0.16456 0.0
Zn180 Zn 0.36281 0.29964 0.13099 0.0
Zn181 Zn 0.39618 0.49279 0.1291 0.0
C182 C 0.32376 0.24992 0.13695 0.0
O183 O 0.33324 0.20296 0.14959 0.0
C184 C 0.43637 0.50329 0.11847 0.0
O185 O 0.42842 0.51523 0.09768 0.0
O186 O 0.37232 0.19919 0.13082 0.0
O187 O 0.37569 0.35641 0.10345 0.0
O188 O 0.39258 0.45466 0.09651 0.0
C189 C 0.36763 0.15477 0.11503 0.0
O190 O 0.35727 0.1755 0.09669 0.0
O191 O 0.33342 0.29815 0.12667 0.0
C192 C 0.39525 0.63904 0.14117 0.0
O193 O 0.41126 0.62072 0.15258 0.0
O194 O 0.38534 0.59194 0.13065 0.0
O195 O 0.38211 0.42121 0.14683 0.0
O196 O 0.36757 0.33629 0.16451 0.0
O197 O 0.42529 0.49188 0.13617 0.0
C198 C 0.38441 0.39851 0.08921 0.0
C199 C 0.37671 0.3937 0.16601 0.0
Zn200 Zn 0.64569 0.29579 0.36338 0.0
Zn201 Zn 0.61094 0.48785 0.36471 0.0
C202 C 0.68502 0.24705 0.35755 0.0
O203 O 0.67573 0.20164 0.34417 0.0
C204 C 0.57064 0.52674 0.36801 0.0
O205 O 0.57816 0.5698 0.38371 0.0
O206 O 0.63619 0.19502 0.36329 0.0
O207 O 0.6321 0.35413 0.39017 0.0
O208 O 0.61411 0.44989 0.39746 0.0
C209 C 0.64112 0.14957 0.3787 0.0
O210 O 0.6518 0.16909 0.39689 0.0
O211 O 0.67514 0.29401 0.3683 0.0
C212 C 0.61317 0.6345 0.35093 0.0
O213 O 0.59867 0.61625 0.33692 0.0
O214 O 0.62153 0.58764 0.36347 0.0
O215 O 0.62576 0.41731 0.34693 0.0
O216 O 0.64126 0.33303 0.32979 0.0
O217 O 0.58202 0.48536 0.35685 0.0
C218 C 0.62308 0.39487 0.40465 0.0
C219 C 0.63175 0.38986 0.32796 0.0
Zn220 Zn 0.36668 0.71707 0.36166 0.0
Zn221 Zn 0.38302 0.52663 0.36491 0.0
C222 C 0.32669 0.70945 0.34156 0.0
O223 O 0.33547 0.69433 0.32148 0.0
C224 C 0.42359 0.49962 0.3667 0.0
O225 O 0.41669 0.45543 0.38248 0.0
O226 O 0.37454 0.81799 0.35988 0.0
O227 O 0.37365 0.67947 0.39471 0.0
O228 O 0.38032 0.56514 0.39724 0.0
C229 C 0.37044 0.86062 0.37644 0.0
O230 O 0.36187 0.83717 0.39573 0.0
O231 O 0.33694 0.71911 0.36008 0.0
C232 C 0.38483 0.38153 0.35116 0.0
O233 O 0.39619 0.40657 0.33436 0.0
O234 O 0.37707 0.42348 0.36596 0.0
O235 O 0.36438 0.57322 0.3432 0.0
O236 O 0.37798 0.67079 0.33215 0.0
O237 O 0.41162 0.53915 0.35564 0.0
C238 C 0.37762 0.62468 0.40683 0.0
C239 C 0.37322 0.60817 0.32751 0.0
Zn240 Zn 0.38932 0.49515 0.87006 0.0
Zn241 Zn 0.36888 0.3063 0.86632 0.0
C242 C 0.42985 0.52656 0.86933 0.0
O243 O 0.42324 0.57244 0.88476 0.0
C244 C 0.3299 0.27982 0.84837 0.0
O245 O 0.33987 0.25153 0.83086 0.0
O246 O 0.38338 0.59811 0.8729 0.0
O247 O 0.37016 0.45476 0.84721 0.0
O248 O 0.38012 0.3507 0.83658 0.0
C249 C 0.38857 0.64075 0.85677 0.0
O250 O 0.3976 0.6167 0.83786 0.0
O251 O 0.41777 0.48448 0.85969 0.0
C252 C 0.36598 0.16031 0.87688 0.0
O253 O 0.35143 0.18316 0.8901 0.0
O254 O 0.37612 0.20417 0.86517 0.0
O255 O 0.37672 0.34236 0.89892 0.0
O256 O 0.38693 0.45272 0.90218 0.0
O257 O 0.3392 0.30954 0.86509 0.0
C258 C 0.37741 0.41482 0.83161 0.0
C259 C 0.38257 0.39391 0.91139 0.0
Zn260 Zn 0.61738 0.51357 0.8647 0.0
Zn261 Zn 0.64062 0.70458 0.86046 0.0
C262 C 0.57664 0.49629 0.86998 0.0
O263 O 0.58356 0.45749 0.88732 0.0
C264 C 0.68152 0.67465 0.84538 0.0
O265 O 0.6742 0.62306 0.83283 0.0
O266 O 0.62258 0.40947 0.86688 0.0
O267 O 0.63559 0.55295 0.84075 0.0
O268 O 0.62947 0.66127 0.83052 0.0
C269 C 0.61243 0.36465 0.85563 0.0
O270 O 0.59822 0.38619 0.84169 0.0
O271 O 0.58866 0.52918 0.8568 0.0
C272 C 0.63717 0.84668 0.87632 0.0
O273 O 0.64837 0.82349 0.89358 0.0
O274 O 0.63138 0.80421 0.86049 0.0
O275 O 0.63427 0.66269 0.89296 0.0
O276 O 0.6224 0.55434 0.89655 0.0
O277 O 0.67013 0.71248 0.85786 0.0
C278 C 0.62907 0.59636 0.82574 0.0
C279 C 0.62837 0.61144 0.90561 0.0
Zn280 Zn 0.38934 0.5111 0.62521 0.0
Zn281 Zn 0.36327 0.70118 0.63036 0.0
C282 C 0.43035 0.52962 0.61845 0.0
O283 O 0.42372 0.53335 0.59666 0.0
C284 C 0.32468 0.74368 0.64601 0.0
O285 O 0.33529 0.7828 0.66021 0.0
O286 O 0.38441 0.40794 0.62066 0.0
O287 O 0.36957 0.54816 0.64811 0.0
O288 O 0.37455 0.65554 0.66002 0.0
C289 C 0.38919 0.3644 0.63672 0.0
O290 O 0.39729 0.38761 0.6563 0.0
O291 O 0.4181 0.52164 0.63531 0.0
C292 C 0.36375 0.84617 0.61696 0.0
O293 O 0.35067 0.8239 0.60163 0.0
O294 O 0.3716 0.8024 0.63108 0.0
O295 O 0.37145 0.66318 0.59802 0.0
O296 O 0.38535 0.55788 0.59393 0.0
O297 O 0.3334 0.7018 0.63191 0.0
C298 C 0.37527 0.59007 0.66401 0.0
C299 C 0.37888 0.61488 0.58519 0.0
Zn300 Zn 0.61809 0.48966 0.62371 0.0
Zn301 Zn 0.64529 0.29891 0.62696 0.0
C302 C 0.57731 0.47917 0.61592 0.0
O303 O 0.58431 0.48877 0.59447 0.0
C304 C 0.68466 0.29292 0.64729 0.0
O305 O 0.67502 0.28944 0.66742 0.0
O306 O 0.62368 0.5934 0.62145 0.0
O307 O 0.63762 0.44693 0.64515 0.0
O308 O 0.63415 0.33965 0.65741 0.0
C309 C 0.61145 0.63994 0.62806 0.0
O310 O 0.5945 0.62054 0.63698 0.0
O311 O 0.58935 0.47533 0.63313 0.0
C312 C 0.64418 0.15402 0.6123 0.0
O313 O 0.65676 0.17578 0.59626 0.0
O314 O 0.63711 0.19782 0.62698 0.0
O315 O 0.63682 0.34204 0.59513 0.0
O316 O 0.62256 0.44719 0.59181 0.0
O317 O 0.67508 0.29891 0.62806 0.0
C318 C 0.63197 0.40477 0.66097 0.0
C319 C 0.62941 0.39128 0.58261 0.0
H320 H 0.20061 0.34091 0.15675 0.0
H321 H 0.20017 0.14324 0.11937 0.0
H322 H 0.23641 0.34241 0.15493 0.0
H323 H 0.23604 0.1449 0.11766 0.0
H324 H 0.29988 0.14015 0.14775 0.0
H325 H 0.26406 0.13766 0.14743 0.0
H326 H 0.26284 0.35211 0.12299 0.0
H327 H 0.29875 0.35466 0.12315 0.0
C328 C 0.20814 0.29769 0.1482 0.0
C329 C 0.19755 0.24188 0.13822 0.0
C330 C 0.22862 0.29889 0.14701 0.0
C331 C 0.23896 0.24392 0.13608 0.0
C332 C 0.22842 0.18777 0.1263 0.0
C333 C 0.2079 0.18695 0.12723 0.0
C334 C 0.29198 0.18669 0.1422 0.0
C335 C 0.30212 0.2477 0.13555 0.0
C336 C 0.27149 0.18508 0.1419 0.0
C337 C 0.2607 0.24475 0.13527 0.0
C338 C 0.27082 0.30557 0.12838 0.0
C339 C 0.29134 0.30688 0.12834 0.0
H340 H 0.80351 0.66178 0.15716 0.0
H341 H 0.80212 0.85076 0.11496 0.0
H342 H 0.76771 0.65947 0.15765 0.0
H343 H 0.76618 0.84847 0.11559 0.0
H344 H 0.7041 0.8624 0.15003 0.0
H345 H 0.73987 0.863 0.14751 0.0
H346 H 0.7395 0.64374 0.12867 0.0
H347 H 0.70365 0.64297 0.13106 0.0
C348 C 0.79556 0.70275 0.14793 0.0
C349 C 0.80563 0.75661 0.13608 0.0
C350 C 0.77506 0.70114 0.14811 0.0
C351 C 0.76419 0.75384 0.1367 0.0
C352 C 0.77423 0.80749 0.12469 0.0
C353 C 0.79477 0.80858 0.12423 0.0
C354 C 0.71162 0.81423 0.1454 0.0
C355 C 0.70103 0.75255 0.1408 0.0
C356 C 0.7321 0.8148 0.14377 0.0
C357 C 0.74244 0.7535 0.13782 0.0
C358 C 0.73189 0.69166 0.13341 0.0
C359 C 0.71138 0.69129 0.13473 0.0
H360 H 0.29971 0.66818 0.30868 0.0
H361 H 0.30488 0.77251 0.37626 0.0
H362 H 0.26433 0.68652 0.30947 0.0
H363 H 0.2696 0.79357 0.37664 0.0
H364 H 0.2032 0.76083 0.3806 0.0
H365 H 0.23852 0.73992 0.38087 0.0
H366 H 0.24051 0.77559 0.30526 0.0
H367 H 0.20517 0.79365 0.30493 0.0
C368 C 0.29329 0.69537 0.32365 0.0
C369 C 0.30511 0.71888 0.34239 0.0
C370 C 0.27299 0.7064 0.32405 0.0
C371 C 0.26403 0.74206 0.34304 0.0
C372 C 0.27589 0.76508 0.36187 0.0
C373 C 0.29617 0.75328 0.36161 0.0
C374 C 0.21122 0.76442 0.36407 0.0
C375 C 0.20137 0.77861 0.34273 0.0
C376 C 0.23151 0.75271 0.36422 0.0
C377 C 0.24245 0.75561 0.34306 0.0
C378 C 0.23257 0.7713 0.32182 0.0
C379 C 0.21229 0.78224 0.32164 0.0
H380 H 0.80729 0.34995 0.3401 0.0
H381 H 0.80977 0.13952 0.36835 0.0
H382 H 0.77162 0.34895 0.34343 0.0
H383 H 0.77393 0.13869 0.37163 0.0
H384 H 0.70941 0.14165 0.34326 0.0
H385 H 0.74522 0.14031 0.34337 0.0
H386 H 0.74562 0.346 0.37522 0.0
H387 H 0.70971 0.34749 0.37515 0.0
C388 C 0.80023 0.30342 0.34702 0.0
C389 C 0.81138 0.2447 0.3539 0.0
C390 C 0.77979 0.30314 0.3491 0.0
C391 C 0.76999 0.24387 0.35787 0.0
C392 C 0.7811 0.18498 0.3647 0.0
C393 C 0.8016 0.18555 0.36287 0.0
C394 C 0.71712 0.18646 0.35043 0.0
C395 C 0.70671 0.24486 0.35909 0.0
C396 C 0.73763 0.18544 0.35062 0.0
C397 C 0.74822 0.24312 0.35922 0.0
C398 C 0.73783 0.30106 0.36827 0.0
C399 C 0.71728 0.30175 0.36834 0.0
H400 H 0.71059 0.59921 0.82352 0.0
H401 H 0.70068 0.78513 0.86561 0.0
H402 H 0.74565 0.62454 0.82261 0.0
H403 H 0.73558 0.81156 0.86411 0.0
H404 H 0.80136 0.79366 0.87909 0.0
H405 H 0.76624 0.77088 0.87937 0.0
H406 H 0.76932 0.7042 0.8063 0.0
H407 H 0.80462 0.72502 0.80626 0.0
C408 C 0.71587 0.64568 0.83247 0.0
C409 C 0.70283 0.68997 0.8447 0.0
C410 C 0.73597 0.66052 0.83181 0.0
C411 C 0.74348 0.72018 0.84327 0.0
C412 C 0.73038 0.76461 0.85539 0.0
C413 C 0.71032 0.7496 0.85615 0.0
C414 C 0.79454 0.77459 0.86302 0.0
C415 C 0.80581 0.76109 0.84265 0.0
C416 C 0.77435 0.76176 0.86315 0.0
C417 C 0.7649 0.73553 0.84287 0.0
C418 C 0.77615 0.72327 0.82236 0.0
C419 C 0.79637 0.73573 0.82227 0.0
H420 H 0.30556 0.31205 0.88551 0.0
H421 H 0.30543 0.22513 0.81485 0.0
H422 H 0.27059 0.28711 0.8892 0.0
H423 H 0.27041 0.20184 0.81831 0.0
H424 H 0.21396 0.0968 0.84132 0.0
H425 H 0.24884 0.12333 0.83918 0.0
H426 H 0.23846 0.32036 0.87483 0.0
H427 H 0.20356 0.29305 0.87746 0.0
C428 C 0.29803 0.28846 0.87064 0.0
C429 C 0.30833 0.27036 0.84991 0.0
C430 C 0.27795 0.2743 0.87275 0.0
C431 C 0.26768 0.24189 0.85414 0.0
C432 C 0.27792 0.22549 0.83319 0.0
C433 C 0.29799 0.2394 0.83112 0.0
C434 C 0.21911 0.14553 0.84889 0.0
C435 C 0.20593 0.19284 0.85951 0.0
C436 C 0.23912 0.16107 0.84747 0.0
C437 C 0.24647 0.22438 0.85659 0.0
C438 C 0.23335 0.27091 0.86776 0.0
C439 C 0.21331 0.25531 0.86921 0.0
H440 H 0.70971 0.2923 0.6851 0.0
H441 H 0.70884 0.27879 0.60872 0.0
H442 H 0.74529 0.27824 0.68475 0.0
H443 H 0.74451 0.26557 0.60837 0.0
H444 H 0.80581 0.16792 0.61934 0.0
H445 H 0.77011 0.18097 0.61955 0.0
H446 H 0.77479 0.34138 0.67319 0.0
H447 H 0.81032 0.32766 0.67327 0.0
C448 C 0.71711 0.28663 0.66822 0.0
C449 C 0.7064 0.28673 0.64694 0.0
C450 C 0.73754 0.27891 0.66801 0.0
C451 C 0.74778 0.2707 0.64653 0.0
C452 C 0.73707 0.27093 0.62524 0.0
C453 C 0.71663 0.27908 0.62544 0.0
C454 C 0.79921 0.20576 0.63124 0.0
C455 C 0.81096 0.24651 0.64635 0.0
C456 C 0.77875 0.21361 0.63125 0.0
C457 C 0.76955 0.26223 0.6464 0.0
C458 C 0.78133 0.30277 0.66153 0.0
C459 C 0.80175 0.29504 0.6615 0.0
H460 H 0.20159 0.77937 0.68462 0.0
H461 H 0.20074 0.79072 0.60819 0.0
H462 H 0.23727 0.77004 0.68387 0.0
H463 H 0.23656 0.78178 0.60748 0.0
H464 H 0.29815 0.67946 0.61656 0.0
H465 H 0.26245 0.69332 0.61628 0.0
H466 H 0.26645 0.83985 0.67433 0.0
H467 H 0.30199 0.82562 0.6748 0.0
C468 C 0.20902 0.7803 0.66764 0.0
C469 C 0.19828 0.78568 0.64647 0.0
C470 C 0.22951 0.77528 0.66723 0.0
C471 C 0.23979 0.77498 0.64561 0.0
C472 C 0.22908 0.78107 0.62441 0.0
C473 C 0.20856 0.78674 0.62484 0.0
C474 C 0.29141 0.71449 0.6293 0.0
C475 C 0.30296 0.75102 0.64581 0.0
C476 C 0.27096 0.72285 0.62901 0.0
C477 C 0.26158 0.7676 0.64532 0.0
C478 C 0.27316 0.80428 0.66173 0.0
C479 C 0.29358 0.79623 0.66194 0.0
H480 H 0.13368 0.82744 0.28349 0.0
H481 H 0.11179 0.02679 0.30839 0.0
H482 H 0.13382 0.87193 0.24306 0.0
H483 H 0.11261 0.07241 0.26819 0.0
H484 H 0.10457 0.12421 0.19052 0.0
H485 H 0.0994 0.07046 0.22933 0.0
H486 H 0.15282 0.9502 0.22044 0.0
H487 H 0.15743 1.00149 0.18151 0.0
C488 C 0.12883 0.88076 0.28033 0.0
C489 C 0.12282 0.92379 0.29919 0.0
C490 C 0.12903 0.90648 0.25716 0.0
C491 C 0.12345 0.97613 0.25232 0.0
C492 C 0.11681 0.01832 0.27113 0.0
C493 C 0.11643 0.99232 0.29426 0.0
C494 C 0.11514 0.08614 0.19692 0.0
C495 C 0.13144 0.06726 0.18305 0.0
C496 C 0.11223 0.05543 0.21916 0.0
C497 C 0.12569 0.00588 0.22809 0.0
C498 C 0.14191 0.98696 0.21403 0.0
C499 C 0.14467 0.0169 0.19175 0.0
H500 H 0.90001 0.14212 0.29042 0.0
H501 H 0.85271 0.99692 0.30415 0.0
H502 H 0.90461 0.08979 0.25111 0.0
H503 H 0.85701 0.94635 0.26523 0.0
H504 H 0.87931 0.82057 0.20532 0.0
H505 H 0.8803 0.87385 0.24449 0.0
H506 H 0.88783 0.07796 0.21251 0.0
H507 H 0.88721 0.02369 0.17328 0.0
C508 C 0.89054 0.09954 0.28501 0.0
C509 C 0.87608 0.07346 0.30044 0.0
C510 C 0.89316 0.06963 0.26255 0.0
C511 C 0.88137 0.01321 0.25522 0.0
C512 C 0.8667 0.98844 0.27053 0.0
C513 C 0.86412 0.01799 0.29283 0.0
C514 C 0.88145 0.87668 0.20669 0.0
C515 C 0.88316 0.91829 0.18631 0.0
C516 C 0.88193 0.90728 0.2291 0.0
C517 C 0.88383 0.98031 0.23159 0.0
C518 C 0.88649 0.02154 0.21121 0.0
C519 C 0.88617 0.99064 0.18875 0.0
H520 H 0.86476 0.14477 0.70093 0.0
H521 H 0.90909 0.99099 0.68399 0.0
H522 H 0.86308 0.10053 0.7412 0.0
H523 H 0.90861 0.94909 0.72484 0.0
H524 H 0.88464 0.83303 0.78961 0.0
H525 H 0.89007 0.88284 0.75045 0.0
H526 H 0.87632 0.0891 0.7779 0.0
H527 H 0.86892 0.03783 0.81607 0.0
C528 C 0.87458 0.10274 0.70614 0.0
C529 C 0.88701 0.071 0.6895 0.0
C530 C 0.87373 0.07733 0.72931 0.0
C531 C 0.88567 0.02068 0.73651 0.0
C532 C 0.89882 0.99145 0.71994 0.0
C533 C 0.89928 0.0158 0.6966 0.0
C534 C 0.88286 0.88903 0.7872 0.0
C535 C 0.8765 0.93159 0.80598 0.0
C536 C 0.88616 0.91792 0.76476 0.0
C537 C 0.88362 0.99036 0.76076 0.0
C538 C 0.87799 0.033 0.77994 0.0
C539 C 0.87409 0.00376 0.80207 0.0
H540 H 0.11981 0.98698 0.81553 0.0
H541 H 0.13921 0.17804 0.78215 0.0
H542 H 0.12003 0.92769 0.77713 0.0
H543 H 0.13886 0.12024 0.74381 0.0
H544 H 0.16094 0.98351 0.6856 0.0
H545 H 0.15886 0.03407 0.72487 0.0
H546 H 0.10506 0.92052 0.73776 0.0
H547 H 0.10754 0.86769 0.69823 0.0
C548 C 0.1238 0.01643 0.79993 0.0
C549 C 0.12966 0.0867 0.80186 0.0
C550 C 0.12389 0.98267 0.77793 0.0
C551 C 0.12976 0.01891 0.75744 0.0
C552 C 0.13477 0.09019 0.75932 0.0
C553 C 0.13485 0.12353 0.78128 0.0
C554 C 0.14871 0.9689 0.69683 0.0
C555 C 0.13429 0.92222 0.68878 0.0
C556 C 0.14743 0.99835 0.7193 0.0
C557 C 0.13155 0.98265 0.73426 0.0
C558 C 0.11748 0.93369 0.72663 0.0
C559 C 0.11887 0.90347 0.70405 0.0
H560 H 0.62875 0.52829 0.31634 0.0
H561 H 0.62539 0.32026 0.28686 0.0
H562 H 0.62618 0.57847 0.27663 0.0
H563 H 0.62157 0.36954 0.24739 0.0
H564 H 0.64572 0.4688 0.18073 0.0
H565 H 0.64217 0.42048 0.22 0.0
H566 H 0.60878 0.60294 0.24147 0.0
H567 H 0.61327 0.6533 0.20197 0.0
C568 C 0.62692 0.4935 0.30137 0.0
C569 C 0.62751 0.42058 0.30454 0.0
C570 C 0.62537 0.5221 0.27858 0.0
C571 C 0.62401 0.47816 0.25859 0.0
C572 C 0.62326 0.40515 0.26217 0.0
C573 C 0.6253 0.37673 0.28481 0.0
C574 C 0.63754 0.49873 0.19373 0.0
C575 C 0.62994 0.56527 0.18823 0.0
C576 C 0.63529 0.47052 0.21633 0.0
C577 C 0.62509 0.50744 0.23409 0.0
C578 C 0.61696 0.57333 0.2284 0.0
C579 C 0.61942 0.60207 0.20571 0.0
H580 H 0.36112 0.48109 0.31189 0.0
H581 H 0.39477 0.6621 0.29051 0.0
H582 H 0.36539 0.43025 0.2731 0.0
H583 H 0.39987 0.60936 0.25147 0.0
H584 H 0.38012 0.53251 0.17674 0.0
H585 H 0.38256 0.58445 0.21615 0.0
H586 H 0.38667 0.37684 0.24668 0.0
H587 H 0.38298 0.32573 0.20749 0.0
C588 C 0.36976 0.5096 0.29898 0.0
C589 C 0.37752 0.57584 0.30427 0.0
C590 C 0.37239 0.48 0.27667 0.0
C591 C 0.38309 0.51534 0.25902 0.0
C592 C 0.39135 0.58097 0.2645 0.0
C593 C 0.38853 0.61106 0.2869 0.0
C594 C 0.38181 0.49834 0.19192 0.0
C595 C 0.38107 0.42529 0.1892 0.0
C596 C 0.3833 0.52797 0.21452 0.0
C597 C 0.38445 0.48491 0.23476 0.0
C598 C 0.38515 0.41173 0.23166 0.0
C599 C 0.38317 0.3823 0.20919 0.0
H600 H 0.36889 0.54503 0.81454 0.0
H601 H 0.39303 0.34479 0.7935 0.0
H602 H 0.37181 0.58712 0.77411 0.0
H603 H 0.3961 0.38737 0.75283 0.0
H604 H 0.36934 0.45779 0.68085 0.0
H605 H 0.37325 0.41581 0.72119 0.0
H606 H 0.39415 0.61988 0.7425 0.0
H607 H 0.39005 0.6623 0.70195 0.0
C608 C 0.37515 0.51031 0.80136 0.0
C609 C 0.38069 0.44145 0.80728 0.0
C610 C 0.37691 0.53464 0.77815 0.0
C611 C 0.38417 0.49063 0.7602 0.0
C612 C 0.39024 0.42233 0.7662 0.0
C613 C 0.38854 0.398 0.78951 0.0
C614 C 0.37512 0.49347 0.694 0.0
C615 C 0.37934 0.56349 0.68817 0.0
C616 C 0.37742 0.46926 0.71717 0.0
C617 C 0.38396 0.5145 0.73512 0.0
C618 C 0.38883 0.58395 0.72914 0.0
C619 C 0.38653 0.60821 0.70591 0.0
H620 H 0.61469 0.4704 0.81244 0.0
H621 H 0.63449 0.66791 0.78425 0.0
H622 H 0.6106 0.425 0.77251 0.0
H623 H 0.63186 0.62157 0.74418 0.0
H624 H 0.61844 0.53506 0.67256 0.0
H625 H 0.61344 0.58315 0.71212 0.0
H626 H 0.63031 0.38353 0.74248 0.0
H627 H 0.63413 0.33506 0.70305 0.0
C628 C 0.61811 0.50405 0.79761 0.0
C629 C 0.62495 0.57233 0.80142 0.0
C630 C 0.61598 0.47796 0.77467 0.0
C631 C 0.62121 0.51896 0.75492 0.0
C632 C 0.62742 0.58847 0.7588 0.0
C633 C 0.62906 0.61509 0.7818 0.0
C634 C 0.62075 0.50135 0.68776 0.0
C635 C 0.62679 0.43146 0.68474 0.0
C636 C 0.61804 0.52902 0.71047 0.0
C637 C 0.62167 0.48773 0.73069 0.0
C638 C 0.62703 0.41696 0.72749 0.0
C639 C 0.62936 0.38903 0.7048 0.0
H640 H 0.14465 0.1993 0.9273 0.0
H641 H 0.09475 0.06089 0.9334 0.0
H642 H 0.14605 0.20821 0.97065 0.0
H643 H 0.09599 0.07073 0.97621 0.0
H644 H 0.12311 0.01565 0.04727 0.0
H645 H 0.1201 0.02317 0.00455 0.0
H646 H 0.12772 0.24761 0.00781 0.0
H647 H 0.13096 0.24026 0.05097 0.0
C648 C 0.13382 0.17181 0.93783 0.0
C649 C 0.11986 0.12827 0.92698 0.0
C650 C 0.13458 0.17708 0.96259 0.0
C651 C 0.12134 0.13906 0.97676 0.0
C652 C 0.10668 0.09921 0.96576 0.0
C653 C 0.10597 0.09372 0.94121 0.0
C654 C 0.12417 0.06674 0.03899 0.0
C655 C 0.12726 0.12735 0.05258 0.0
C656 C 0.1223 0.07108 0.01448 0.0
C657 C 0.12351 0.13607 0.00286 0.0
C658 C 0.12678 0.19684 0.01632 0.0
C659 C 0.12852 0.19258 0.04101 0.0
H660 H 0.87847 0.99365 0.94027 0.0
H661 H 0.87522 0.76737 0.93762 0.0
H662 H 0.88154 0.98885 0.98294 0.0
H663 H 0.87867 0.76283 0.98085 0.0
H664 H 0.86464 0.80817 0.06224 0.0
H665 H 0.86122 0.79828 0.01908 0.0
H666 H 0.90763 0.94964 0.00984 0.0
H667 H 0.91085 0.96042 0.0524 0.0
C668 C 0.87849 0.94271 0.94876 0.0
C669 C 0.87682 0.88082 0.93544 0.0
C670 C 0.88032 0.94001 0.97327 0.0
C671 C 0.88067 0.87541 0.98519 0.0
C672 C 0.87844 0.81334 0.97208 0.0
C673 C 0.87655 0.816 0.94737 0.0
C674 C 0.87422 0.83868 0.05093 0.0
C675 C 0.88777 0.88601 0.06073 0.0
C676 C 0.8723 0.83286 0.02627 0.0
C677 C 0.88391 0.87423 0.01115 0.0
C678 C 0.89814 0.91842 0.02105 0.0
C679 C 0.90001 0.92439 0.04548 0.0
H680 H 0.13352 0.77162 0.4289 0.0
H681 H 0.11754 0.98899 0.43927 0.0
H682 H 0.13722 0.7578 0.472 0.0
H683 H 0.1212 0.97504 0.48166 0.0
H684 H 0.15027 0.95641 0.55155 0.0
H685 H 0.14971 0.95411 0.50859 0.0
H686 H 0.11533 0.76439 0.51015 0.0
H687 H 0.1161 0.76589 0.55366 0.0
C688 C 0.13085 0.81628 0.4403 0.0
C689 C 0.12526 0.88141 0.43066 0.0
C690 C 0.13286 0.80824 0.4649 0.0
C691 C 0.12966 0.86553 0.48009 0.0
C692 C 0.12403 0.93022 0.47037 0.0
C693 C 0.12181 0.93803 0.44603 0.0
C694 C 0.14264 0.91388 0.54283 0.0
C695 C 0.1329 0.86206 0.55602 0.0
C696 C 0.14236 0.91257 0.5182 0.0
C697 C 0.13222 0.85972 0.50607 0.0
C698 C 0.12329 0.80565 0.51911 0.0
C699 C 0.12366 0.80674 0.54395 0.0
H700 H 0.87398 0.22687 0.55812 0.0
H701 H 0.89798 0.01752 0.55156 0.0
H702 H 0.87179 0.23497 0.51491 0.0
H703 H 0.89584 0.02616 0.50876 0.0
H704 H 0.86418 0.02783 0.43846 0.0
H705 H 0.867 0.03055 0.48125 0.0
H706 H 0.8938 0.23507 0.47749 0.0
H707 H 0.89091 0.23294 0.43421 0.0
C708 C 0.87889 0.18286 0.54753 0.0
C709 C 0.88596 0.12125 0.55833 0.0
C710 C 0.87773 0.18773 0.52283 0.0
C711 C 0.88346 0.1309 0.50859 0.0
C712 C 0.89104 0.07032 0.51937 0.0
C713 C 0.89232 0.06557 0.54392 0.0
C714 C 0.87066 0.07364 0.44662 0.0
C715 C 0.87749 0.12995 0.43284 0.0
C716 C 0.87233 0.07497 0.47116 0.0
C717 C 0.88083 0.13262 0.4826 0.0
C718 C 0.88716 0.19004 0.46904 0.0
C719 C 0.88557 0.18863 0.44431 0.0
H720 H 0.60958 0.53385 0.05443 0.0
H721 H 0.64713 0.71584 0.05532 0.0
H722 H 0.60848 0.53803 0.01157 0.0
H723 H 0.64693 0.71804 0.01196 0.0
H724 H 0.62925 0.73051 0.93302 0.0
H725 H 0.62873 0.73737 0.97631 0.0
H726 H 0.62936 0.51097 0.98012 0.0
H727 H 0.62894 0.50441 0.93732 0.0
C728 C 0.61772 0.57462 0.04541 0.0
C729 C 0.62861 0.62405 0.05824 0.0
C730 C 0.61722 0.57676 0.02076 0.0
C731 C 0.62797 0.62744 0.00817 0.0
C732 C 0.6384 0.67843 0.02103 0.0
C733 C 0.6386 0.67704 0.04586 0.0
C734 C 0.62925 0.68237 0.9432 0.0
C735 C 0.6289 0.61694 0.93175 0.0
C736 C 0.62905 0.68624 0.968 0.0
C737 C 0.62872 0.62473 0.9818 0.0
C738 C 0.62898 0.55952 0.97019 0.0
C739 C 0.62888 0.5557 0.94555 0.0
H740 H 0.39464 0.49206 0.9432 0.0
H741 H 0.37287 0.2797 0.93886 0.0
H742 H 0.39555 0.48334 0.98593 0.0
H743 H 0.37425 0.27052 0.9821 0.0
H744 H 0.358 0.32652 0.06158 0.0
H745 H 0.35823 0.31773 0.01818 0.0
H746 H 0.41398 0.4252 0.01627 0.0
H747 H 0.41337 0.43594 0.05907 0.0
C748 C 0.3902 0.44315 0.95133 0.0
C749 C 0.38372 0.38656 0.93751 0.0
C750 C 0.39085 0.43798 0.97592 0.0
C751 C 0.38516 0.37595 0.98746 0.0
C752 C 0.37865 0.31912 0.97374 0.0
C753 C 0.37798 0.3243 0.94897 0.0
C754 C 0.37036 0.34739 0.0518 0.0
C755 C 0.38544 0.38325 0.0636 0.0
C756 C 0.37054 0.34221 0.02699 0.0
C757 C 0.38593 0.37217 0.01375 0.0
C758 C 0.40162 0.4035 0.02585 0.0
C759 C 0.4013 0.40944 0.05041 0.0
H760 H 0.64988 0.31897 0.43083 0.0
H761 H 0.596 0.43767 0.43664 0.0
H762 H 0.65152 0.31096 0.47422 0.0
H763 H 0.59729 0.42793 0.47943 0.0
H764 H 0.6382 0.27589 0.55501 0.0
H765 H 0.63619 0.26694 0.51172 0.0
H766 H 0.61813 0.48391 0.50809 0.0
H767 H 0.61965 0.4925 0.55075 0.0
C768 C 0.63823 0.34213 0.44133 0.0
C769 C 0.62303 0.3802 0.43039 0.0
C770 C 0.63914 0.3374 0.46614 0.0
C771 C 0.62477 0.37023 0.48028 0.0
C772 C 0.60892 0.40392 0.46911 0.0
C773 C 0.60814 0.40926 0.44454 0.0
C774 C 0.63379 0.32156 0.54491 0.0
C775 C 0.62889 0.3847 0.55642 0.0
C776 C 0.63272 0.31646 0.52013 0.0
C777 C 0.62671 0.37438 0.50648 0.0
C778 C 0.6223 0.43769 0.51806 0.0
C779 C 0.62329 0.44271 0.54262 0.0
H780 H 0.35883 0.70924 0.55739 0.0
H781 H 0.40177 0.54224 0.55423 0.0
H782 H 0.35915 0.71683 0.5141 0.0
H783 H 0.40262 0.55158 0.51145 0.0
H784 H 0.37989 0.51585 0.43782 0.0
H785 H 0.38066 0.51979 0.48057 0.0
H786 H 0.3782 0.7461 0.47856 0.0
H787 H 0.37681 0.74219 0.43521 0.0
C788 C 0.36851 0.67487 0.5475 0.0
C789 C 0.38003 0.62437 0.55922 0.0
C790 C 0.36878 0.67948 0.52273 0.0
C791 C 0.38069 0.63407 0.5093 0.0
C792 C 0.39288 0.58607 0.52119 0.0
C793 C 0.39245 0.58092 0.54578 0.0
C794 C 0.37958 0.56669 0.44635 0.0
C795 C 0.3784 0.62878 0.43301 0.0
C796 C 0.38015 0.56892 0.47096 0.0
C797 C 0.37976 0.63329 0.48302 0.0
C798 C 0.37843 0.69564 0.46978 0.0
C799 C 0.37773 0.69341 0.44498 0.0
H800 H 0.96273 0.92396 0.14207 0.0
H801 H 0.96739 0.13507 0.11489 0.0
H802 H 0.99853 0.91562 0.14368 0.0
H803 H 1.00314 0.12672 0.11671 0.0
H804 H 0.06738 0.1013 0.14095 0.0
H805 H 0.03174 0.11097 0.14627 0.0
H806 H 0.02405 0.91329 0.11032 0.0
H807 H 0.05944 0.9038 0.1048 0.0
C808 C 0.97138 0.96888 0.13676 0.0
C809 C 0.96226 0.02996 0.12816 0.0
C810 C 0.99184 0.96398 0.13761 0.0
C811 C 1.00357 0.02045 0.13024 0.0
C812 C 0.99445 0.0826 0.12265 0.0
C813 C 0.97399 0.08715 0.12147 0.0
C814 C 0.05807 0.05974 0.13435 0.0
C815 C 0.06618 1.00207 0.12229 0.0
C816 C 0.03771 0.06538 0.13734 0.0
C817 C 0.02519 0.01283 0.12872 0.0
C818 C 0.03338 0.95422 0.11735 0.0
C819 C 0.05363 0.94911 0.11404 0.0
H820 H 0.94016 0.11072 0.35616 0.0
H821 H 0.94481 0.91366 0.39355 0.0
H822 H 0.97607 0.11871 0.35494 0.0
H823 H 0.98049 0.92157 0.39214 0.0
H824 H 0.04305 0.92506 0.36142 0.0
H825 H 0.00724 0.91914 0.36059 0.0
H826 H 0.00378 0.13261 0.38559 0.0
H827 H 0.03962 0.13862 0.3866 0.0
C828 C 0.94882 0.06909 0.36402 0.0
C829 C 0.93966 0.01167 0.37499 0.0
C830 C 0.96934 0.07383 0.36341 0.0
C831 C 0.98103 0.02068 0.37341 0.0
C832 C 0.97185 0.96296 0.38411 0.0
C833 C 0.9514 0.95872 0.38502 0.0
C834 C 0.03466 0.97085 0.36664 0.0
C835 C 0.04416 0.03226 0.37413 0.0
C836 C 0.01418 0.96732 0.36626 0.0
C837 C 1.00276 0.02542 0.37303 0.0
C838 C 0.01223 0.08726 0.3801 0.0
C839 C 0.03274 0.09049 0.38081 0.0
H840 H 0.04613 0.09014 0.84468 0.0
H841 H 0.04269 0.8851 0.87693 0.0
H842 H 0.01024 0.09451 0.84231 0.0
H843 H 0.00692 0.88927 0.87425 0.0
H844 H 0.94292 0.90276 0.84775 0.0
H845 H 0.97871 0.89664 0.84294 0.0
H846 H 0.98428 0.09955 0.876 0.0
H847 H 0.94877 0.10535 0.88112 0.0
C848 C 0.03773 0.04568 0.85093 0.0
C849 C 0.04718 0.98755 0.86117 0.0
C850 C 0.01724 0.04827 0.84963 0.0
C851 C 0.00587 0.99222 0.85811 0.0
C852 C 0.01535 0.9329 0.86741 0.0
C853 C 0.0358 0.93081 0.8691 0.0
C854 C 0.95181 0.94622 0.85377 0.0
C855 C 0.9431 0.00426 0.86497 0.0
C856 C 0.97223 0.94264 0.85108 0.0
C857 C 0.98419 0.9977 0.85907 0.0
C858 C 0.97539 0.05671 0.86948 0.0
C859 C 0.95508 0.05971 0.87257 0.0
H860 H 0.96836 0.1112 0.59085 0.0
H861 H 0.96122 0.96352 0.64824 0.0
H862 H 1.00349 0.0899 0.59087 0.0
H863 H 0.99667 0.94108 0.64796 0.0
H864 H 0.06512 0.97185 0.6516 0.0
H865 H 0.02962 0.99103 0.65521 0.0
H866 H 0.02472 0.99539 0.57895 0.0
H867 H 0.05991 0.9779 0.57538 0.0
C868 C 0.97429 0.07433 0.60359 0.0
C869 C 0.96189 0.03873 0.61943 0.0
C870 C 0.99449 0.06165 0.60347 0.0
C871 C 1.00293 0.01275 0.61911 0.0
C872 C 0.99068 0.97911 0.63567 0.0
C873 C 0.97035 0.99192 0.63581 0.0
C874 C 0.05639 0.97626 0.63564 0.0
C875 C 0.0654 0.97405 0.6132 0.0
C876 C 0.03605 0.98717 0.63771 0.0
C877 C 0.02432 0.99603 0.61738 0.0
C878 C 0.03332 0.99075 0.59501 0.0
C879 C 0.05354 0.98019 0.59295 0.0
H880 H 0.45854 0.53774 0.15732 0.0
H881 H 0.46268 0.46877 0.08468 0.0
H882 H 0.49439 0.54803 0.15904 0.0
H883 H 0.49816 0.47511 0.08663 0.0
H884 H 0.55765 0.56432 0.08439 0.0
H885 H 0.52212 0.56197 0.08665 0.0
H886 H 0.52558 0.48895 0.15909 0.0
H887 H 0.56151 0.49527 0.15705 0.0
C888 C 0.46716 0.52377 0.14188 0.0
C889 C 0.45791 0.50342 0.12076 0.0
C890 C 0.48767 0.52946 0.14286 0.0
C891 C 0.49921 0.51386 0.12281 0.0
C892 C 0.4898 0.49011 0.10215 0.0
C893 C 0.46943 0.48583 0.10106 0.0
C894 C 0.55081 0.54858 0.1009 0.0
C895 C 0.56227 0.52941 0.12047 0.0
C896 C 0.53042 0.5465 0.10215 0.0
C897 C 0.52091 0.52335 0.12285 0.0
C898 C 0.53239 0.50706 0.14287 0.0
C899 C 0.55294 0.51056 0.14173 0.0
H900 H 0.45066 0.3985 0.37582 0.0
H901 H 0.44489 0.60921 0.34862 0.0
H902 H 0.48627 0.40665 0.37258 0.0
H903 H 0.48076 0.61761 0.34565 0.0
H904 H 0.54361 0.62433 0.38176 0.0
H905 H 0.50797 0.61877 0.37762 0.0
H906 H 0.51341 0.42051 0.34137 0.0
H907 H 0.54914 0.42615 0.3453 0.0
C908 C 0.45701 0.44642 0.36897 0.0
C909 C 0.44501 0.50341 0.3626 0.0
C910 C 0.4774 0.45085 0.36697 0.0
C911 C 0.48626 0.51277 0.3589 0.0
C912 C 0.47427 0.56937 0.35203 0.0
C913 C 0.45379 0.56446 0.35362 0.0
C914 C 0.53723 0.57985 0.3727 0.0
C915 C 0.54918 0.52544 0.36399 0.0
C916 C 0.51684 0.57699 0.37018 0.0
C917 C 0.50795 0.51922 0.35919 0.0
C918 C 0.5199 0.4655 0.35002 0.0
C919 C 0.54033 0.46884 0.35223 0.0
H920 H 0.45104 0.41612 0.85137 0.0
H921 H 0.45684 0.62901 0.87637 0.0
H922 H 0.48686 0.40769 0.8476 0.0
H923 H 0.49241 0.62074 0.87233 0.0
H924 H 0.55567 0.59598 0.84568 0.0
H925 H 0.51988 0.60301 0.84125 0.0
H926 H 0.51374 0.40902 0.8799 0.0
H927 H 0.54927 0.40239 0.88461 0.0
C928 C 0.45992 0.46137 0.85567 0.0
C929 C 0.45117 0.52298 0.86436 0.0
C930 C 0.48038 0.45648 0.85359 0.0
C931 C 0.49238 0.51357 0.85971 0.0
C932 C 0.48353 0.57616 0.8673 0.0
C933 C 0.46316 0.58064 0.86977 0.0
C934 C 0.54666 0.55463 0.85303 0.0
C935 C 0.55523 0.49904 0.86569 0.0
C936 C 0.52622 0.55869 0.85052 0.0
C937 C 0.51407 0.50646 0.8602 0.0
C938 C 0.52274 0.44961 0.87206 0.0
C939 C 0.54308 0.44622 0.87494 0.0
H940 H 0.45789 0.58535 0.58968 0.0
H941 H 0.45146 0.4729 0.65562 0.0
H942 H 0.49324 0.57186 0.59186 0.0
H943 H 0.48731 0.4577 0.65757 0.0
H944 H 0.55627 0.50189 0.65713 0.0
H945 H 0.5205 0.51688 0.66071 0.0
H946 H 0.51425 0.47064 0.58622 0.0
H947 H 0.5495 0.45723 0.58259 0.0
C948 C 0.46407 0.55802 0.60478 0.0
C949 C 0.45186 0.52945 0.62232 0.0
C950 C 0.48437 0.54985 0.60595 0.0
C951 C 0.4931 0.51209 0.62457 0.0
C952 C 0.48103 0.48685 0.64295 0.0
C953 C 0.46053 0.49558 0.64185 0.0
C954 C 0.54716 0.49415 0.64165 0.0
C955 C 0.55574 0.47931 0.61951 0.0
C956 C 0.5267 0.50274 0.64369 0.0
C957 C 0.51456 0.49656 0.62363 0.0
C958 C 0.52318 0.47788 0.60189 0.0
C959 C 0.54344 0.46973 0.59984 0.0
H960 H 0.10319 0.77635 0.15541 0.0
H961 H 0.15208 0.80344 0.10753 0.0
H962 H 0.1049 0.65005 0.1498 0.0
H963 H 0.1544 0.67677 0.10266 0.0
H964 H 0.14104 0.45457 0.07938 0.0
H965 H 0.1385 0.58074 0.08491 0.0
H966 H 0.12323 0.5484 0.15846 0.0
H967 H 0.12503 0.42205 0.1526 0.0
C968 C 0.1145 0.75524 0.14392 0.0
C969 C 0.1275 0.79999 0.13191 0.0
C970 C 0.11554 0.68261 0.14077 0.0
C971 C 0.12978 0.65274 0.12574 0.0
C972 C 0.14298 0.69769 0.11401 0.0
C973 C 0.14178 0.77041 0.11695 0.0
C974 C 0.13703 0.47439 0.0967 0.0
C975 C 0.1332 0.42819 0.11553 0.0
C976 C 0.13574 0.54692 0.09995 0.0
C977 C 0.13077 0.57523 0.12219 0.0
C978 C 0.12682 0.52878 0.14099 0.0
C979 C 0.12792 0.45618 0.13767 0.0
H980 H 0.87558 0.19214 0.1049 0.0
H981 H 0.90473 0.24737 0.17014 0.0
H982 H 0.86863 0.31535 0.09739 0.0
H983 H 0.89709 0.37043 0.1632 0.0
H984 H 0.89925 0.59015 0.13259 0.0
H985 H 0.90611 0.46626 0.13926 0.0
H986 H 0.84987 0.41299 0.10885 0.0
H987 H 0.84346 0.53643 0.10129 0.0
C988 C 0.88022 0.23052 0.11785 0.0
C989 C 0.89076 0.20989 0.13809 0.0
C990 C 0.87618 0.30136 0.11359 0.0
C991 C 0.88238 0.35337 0.12959 0.0
C992 C 0.89245 0.33229 0.15018 0.0
C993 C 0.89668 0.26152 0.1543 0.0
C994 C 0.88843 0.55187 0.12716 0.0
C995 C 0.87084 0.57322 0.11633 0.0
C996 C 0.89227 0.48074 0.1312 0.0
C997 C 0.8785 0.42918 0.12477 0.0
C998 C 0.86097 0.45078 0.11374 0.0
C999 C 0.85725 0.52179 0.10946 0.0
H1000 H 0.12746 0.1993 0.3899 0.0
H1001 H 0.10248 0.24229 0.32111 0.0
H1002 H 0.13482 0.32329 0.39481 0.0
H1003 H 0.11052 0.36592 0.32556 0.0
H1004 H 0.10862 0.59233 0.35065 0.0
H1005 H 0.101 0.46816 0.34651 0.0
H1006 H 0.15539 0.41493 0.38167 0.0
H1007 H 0.1626 0.5388 0.38655 0.0
C1008 C 0.12377 0.23512 0.37568 0.0
C1009 C 0.11434 0.21093 0.35513 0.0
C1010 C 0.12806 0.30633 0.37845 0.0
C1011 C 0.12322 0.35504 0.36062 0.0
C1012 C 0.11411 0.33039 0.33988 0.0
C1013 C 0.10963 0.25931 0.33723 0.0
C1014 C 0.11889 0.55408 0.35761 0.0
C1015 C 0.13619 0.57559 0.36898 0.0
C1016 C 0.11461 0.48275 0.35506 0.0
C1017 C 0.1276 0.43114 0.36366 0.0
C1018 C 0.14487 0.45291 0.37513 0.0
C1019 C 0.14906 0.52415 0.37783 0.0
H1020 H 0.88561 0.4554 0.40756 0.0
H1021 H 0.87616 0.42637 0.3326 0.0
H1022 H 0.88615 0.58192 0.40191 0.0
H1023 H 0.87608 0.55328 0.32698 0.0
H1024 H 0.89563 0.78287 0.32212 0.0
H1025 H 0.89593 0.65604 0.32708 0.0
H1026 H 0.86502 0.67825 0.39354 0.0
H1027 H 0.86519 0.8053 0.38885 0.0
C1028 C 0.88361 0.47602 0.38984 0.0
C1029 C 0.88085 0.43055 0.37054 0.0
C1030 C 0.88376 0.54882 0.38662 0.0
C1031 C 0.88098 0.57839 0.36401 0.0
C1032 C 0.87849 0.53272 0.34462 0.0
C1033 C 0.87849 0.45978 0.34784 0.0
C1034 C 0.88885 0.76077 0.33779 0.0
C1035 C 0.88041 0.80457 0.35511 0.0
C1036 C 0.88893 0.68775 0.34057 0.0
C1037 C 0.88056 0.65636 0.36076 0.0
C1038 C 0.87191 0.70028 0.37794 0.0
C1039 C 0.87184 0.77332 0.37516 0.0
H1040 H 0.89348 0.23452 0.82398 0.0
H1041 H 0.86726 0.19634 0.8925 0.0
H1042 H 0.88839 0.36003 0.82916 0.0
H1043 H 0.86285 0.32182 0.89812 0.0
H1044 H 0.83859 0.54285 0.88942 0.0
H1045 H 0.84377 0.4176 0.88442 0.0
H1046 H 0.8998 0.45826 0.85114 0.0
H1047 H 0.89423 0.58386 0.85536 0.0
C1048 C 0.88673 0.25302 0.84021 0.0
C1049 C 0.88069 0.20562 0.85778 0.0
C1050 C 0.88394 0.325 0.84327 0.0
C1051 C 0.87524 0.35116 0.86409 0.0
C1052 C 0.86929 0.30353 0.88169 0.0
C1053 C 0.87189 0.23156 0.87852 0.0
C1054 C 0.85205 0.52506 0.88112 0.0
C1055 C 0.86598 0.57322 0.87274 0.0
C1056 C 0.85508 0.45315 0.87835 0.0
C1057 C 0.8722 0.42771 0.86735 0.0
C1058 C 0.88629 0.47601 0.85931 0.0
C1059 C 0.88317 0.548 0.86188 0.0
H1060 H 0.14532 0.47157 0.90525 0.0
H1061 H 0.12186 0.42167 0.83626 0.0
H1062 H 0.13867 0.59548 0.89827 0.0
H1063 H 0.11595 0.54547 0.82883 0.0
H1064 H 0.08922 0.76347 0.83209 0.0
H1065 H 0.09578 0.6402 0.83924 0.0
H1066 H 0.14907 0.69466 0.87637 0.0
H1067 H 0.14199 0.81876 0.87 0.0
C1068 C 0.13876 0.48705 0.88857 0.0
C1069 C 0.13403 0.4366 0.87137 0.0
C1070 C 0.13512 0.55829 0.88445 0.0
C1071 C 0.12682 0.58097 0.86292 0.0
C1072 C 0.12205 0.53022 0.84578 0.0
C1073 C 0.1255 0.45901 0.85 0.0
C1074 C 0.10242 0.74928 0.84166 0.0
C1075 C 0.11509 0.80112 0.85046 0.0
C1076 C 0.10624 0.67828 0.84569 0.0
C1077 C 0.12298 0.65696 0.85841 0.0
C1078 C 0.13586 0.70892 0.86686 0.0
C1079 C 0.13191 0.78015 0.86303 0.0
H1080 H 0.89385 0.79181 0.59469 0.0
H1081 H 0.87887 0.76817 0.66867 0.0
H1082 H 0.89034 0.66559 0.5891 0.0
H1083 H 0.87502 0.64247 0.66297 0.0
H1084 H 0.89072 0.41335 0.65078 0.0
H1085 H 0.89512 0.53938 0.65522 0.0
H1086 H 0.8654 0.57377 0.58863 0.0
H1087 H 0.86127 0.44756 0.58399 0.0
C1088 C 0.8897 0.7598 0.60973 0.0
C1089 C 0.88671 0.79011 0.63215 0.0
C1090 C 0.88761 0.68747 0.60649 0.0
C1091 C 0.8825 0.64383 0.62561 0.0
C1092 C 0.87931 0.67436 0.64796 0.0
C1093 C 0.88139 0.74657 0.65119 0.0
C1094 C 0.88524 0.44771 0.637 0.0
C1095 C 0.87561 0.42031 0.61704 0.0
C1096 C 0.88762 0.52004 0.63963 0.0
C1097 C 0.8805 0.56676 0.62236 0.0
C1098 C 0.87121 0.53926 0.60218 0.0
C1099 C 0.86875 0.46689 0.59958 0.0
H1100 H 0.13607 0.19251 0.59743 0.0
H1101 H 0.11948 0.21417 0.67095 0.0
H1102 H 0.13629 0.31973 0.59326 0.0
H1103 H 0.1193 0.3413 0.66666 0.0
H1104 H 0.13947 0.56922 0.65598 0.0
H1105 H 0.14007 0.44206 0.661 0.0
H1106 H 0.11391 0.4171 0.59184 0.0
H1107 H 0.11377 0.54373 0.58661 0.0
C1108 C 0.13249 0.22436 0.61272 0.0
C1109 C 0.12773 0.19294 0.63451 0.0
C1110 C 0.13246 0.29744 0.61029 0.0
C1111 C 0.1277 0.34109 0.62958 0.0
C1112 C 0.12323 0.30957 0.65147 0.0
C1113 C 0.12323 0.23649 0.65389 0.0
C1114 C 0.13375 0.53659 0.6419 0.0
C1115 C 0.12661 0.56683 0.62087 0.0
C1116 C 0.13405 0.46358 0.6448 0.0
C1117 C 0.12715 0.419 0.62677 0.0
C1118 C 0.11971 0.44951 0.60593 0.0
C1119 C 0.11949 0.52234 0.603 0.0
H1120 H 0.64486 0.95252 0.08317 0.0
H1121 H 0.62051 0.91845 0.15295 0.0
H1122 H 0.63982 0.07831 0.08767 0.0
H1123 H 0.61601 0.04422 0.15773 0.0
H1124 H 0.59298 0.26705 0.14951 0.0
H1125 H 0.59688 0.14124 0.14396 0.0
H1126 H 0.65263 0.17615 0.10933 0.0
H1127 H 0.64841 0.30222 0.11422 0.0
C1128 C 0.63843 0.97185 0.09948 0.0
C1129 C 0.63307 0.92544 0.11769 0.0
C1130 C 0.63568 0.04405 0.10213 0.0
C1131 C 0.62758 0.07151 0.12311 0.0
C1132 C 0.62204 0.0249 0.14122 0.0
C1133 C 0.62471 0.95272 0.13852 0.0
C1134 C 0.60609 0.24788 0.14075 0.0
C1135 C 0.6204 0.29462 0.13231 0.0
C1136 C 0.60837 0.17567 0.13765 0.0
C1137 C 0.62507 0.14845 0.1262 0.0
C1138 C 0.63943 0.19531 0.11788 0.0
C1139 C 0.63708 0.26758 0.12083 0.0
H1140 H 0.41555 0.75133 0.15804 0.0
H1141 H 0.36364 0.69736 0.11816 0.0
H1142 H 0.40902 0.87486 0.15134 0.0
H1143 H 0.35669 0.82174 0.11208 0.0
H1144 H 0.3624 0.04638 0.08384 0.0
H1145 H 0.36848 0.92184 0.09064 0.0
H1146 H 0.38779 0.96806 0.16184 0.0
H1147 H 0.38236 0.09224 0.15476 0.0
C1148 C 0.40257 0.76582 0.14809 0.0
C1149 C 0.39013 0.71429 0.13863 0.0
C1150 C 0.39876 0.83692 0.14433 0.0
C1151 C 0.38233 0.85859 0.13113 0.0
C1152 C 0.36966 0.80704 0.12201 0.0
C1153 C 0.37354 0.73569 0.12569 0.0
C1154 C 0.36806 0.0299 0.10089 0.0
C1155 C 0.37201 0.07936 0.11869 0.0
C1156 C 0.37138 0.95839 0.10488 0.0
C1157 C 0.37861 0.93463 0.12682 0.0
C1158 C 0.38253 0.98432 0.14459 0.0
C1159 C 0.37936 0.05571 0.14055 0.0
H1160 H 0.62593 0.08855 0.33896 0.0
H1161 H 0.64633 0.04006 0.40952 0.0
H1162 H 0.62025 0.96475 0.33162 0.0
H1163 H 0.63991 0.91608 0.40255 0.0
H1164 H 0.64415 0.69174 0.37521 0.0
H1165 H 0.65106 0.81576 0.38167 0.0
H1166 H 0.59949 0.871 0.3411 0.0
H1167 H 0.59312 0.74771 0.3339 0.0
C1168 C 0.62896 0.05153 0.35305 0.0
C1169 C 0.63654 0.07438 0.37486 0.0
C1170 C 0.62562 0.9803 0.34887 0.0
C1171 C 0.62958 0.9299 0.36648 0.0
C1172 C 0.63699 0.95298 0.3884 0.0
C1173 C 0.6405 0.02427 0.3925 0.0
C1174 C 0.63441 0.73048 0.3675 0.0
C1175 C 0.61814 0.7097 0.35395 0.0
C1176 C 0.63826 0.8017 0.37139 0.0
C1177 C 0.62582 0.85387 0.36199 0.0
C1178 C 0.60963 0.83274 0.3483 0.0
C1179 C 0.60591 0.76174 0.34424 0.0
H1180 H 0.38053 0.92818 0.33563 0.0
H1181 H 0.36764 0.96468 0.40958 0.0
H1182 H 0.38375 0.05359 0.32929 0.0
H1183 H 0.37165 0.09033 0.40347 0.0
H1184 H 0.35852 0.31293 0.37928 0.0
H1185 H 0.35555 0.18706 0.3854 0.0
H1186 H 0.4038 0.15183 0.33697 0.0
H1187 H 0.4062 0.2775 0.33016 0.0
C1188 C 0.37866 0.96297 0.35063 0.0
C1189 C 0.37377 0.93651 0.37311 0.0
C1190 C 0.3806 0.03499 0.34701 0.0
C1191 C 0.37791 0.08229 0.36584 0.0
C1192 C 0.37345 0.05558 0.38845 0.0
C1193 C 0.3713 0.9835 0.39202 0.0
C1194 C 0.36841 0.27821 0.36985 0.0
C1195 C 0.38255 0.30509 0.35419 0.0
C1196 C 0.36684 0.20604 0.37352 0.0
C1197 C 0.37951 0.15913 0.36179 0.0
C1198 C 0.3936 0.18622 0.34604 0.0
C1199 C 0.39503 0.25835 0.34218 0.0
H1200 H 0.37463 0.70855 0.89593 0.0
H1201 H 0.3953 0.74505 0.82459 0.0
H1202 H 0.36994 0.83399 0.90134 0.0
H1203 H 0.39005 0.87052 0.82975 0.0
H1204 H 0.39696 0.0959 0.85491 0.0
H1205 H 0.40277 0.97045 0.8505 0.0
H1206 H 0.34907 0.92766 0.88866 0.0
H1207 H 0.3436 0.05284 0.8937 0.0
C1208 C 0.37803 0.74332 0.88133 0.0
C1209 C 0.38531 0.71683 0.85981 0.0
C1210 C 0.37526 0.81527 0.8844 0.0
C1211 C 0.37958 0.86241 0.86597 0.0
C1212 C 0.38684 0.83582 0.84443 0.0
C1213 C 0.38972 0.76382 0.8414 0.0
C1214 C 0.38645 0.05966 0.86245 0.0
C1215 C 0.36983 0.0843 0.87469 0.0
C1216 C 0.38971 0.98774 0.85978 0.0
C1217 C 0.37636 0.93891 0.86917 0.0
C1218 C 0.3598 0.96372 0.88151 0.0
C1219 C 0.35662 0.03557 0.88431 0.0
H1220 H 0.5894 0.25664 0.84091 0.0
H1221 H 0.64336 0.30144 0.87804 0.0
H1222 H 0.59466 0.13191 0.84703 0.0
H1223 H 0.64904 0.17621 0.88344 0.0
H1224 H 0.64379 0.95021 0.90886 0.0
H1225 H 0.63744 0.07546 0.90443 0.0
H1226 H 0.61504 0.03901 0.83388 0.0
H1227 H 0.62069 0.91409 0.83866 0.0
C1228 C 0.60249 0.2398 0.8502 0.0
C1229 C 0.61598 0.28888 0.85896 0.0
C1230 C 0.60556 0.16818 0.85363 0.0
C1231 C 0.62231 0.14386 0.86567 0.0
C1232 C 0.63584 0.19308 0.8744 0.0
C1233 C 0.63266 0.26486 0.87116 0.0
C1234 C 0.63738 0.96901 0.89248 0.0
C1235 C 0.63267 0.92223 0.87415 0.0
C1236 C 0.63388 0.04085 0.88986 0.0
C1237 C 0.62574 0.06743 0.86878 0.0
C1238 C 0.62099 0.02037 0.85052 0.0
C1239 C 0.62432 0.94865 0.85322 0.0
H1240 H 0.39159 0.90862 0.64464 0.0
H1241 H 0.34627 0.95483 0.59341 0.0
H1242 H 0.39836 0.03329 0.64863 0.0
H1243 H 0.35254 0.0796 0.598 0.0
H1244 H 0.38041 0.29579 0.59559 0.0
H1245 H 0.3753 0.17053 0.59001 0.0
H1246 H 0.38442 0.13664 0.66493 0.0
H1247 H 0.39029 0.26146 0.67027 0.0
C1248 C 0.38304 0.94541 0.63425 0.0
C1249 C 0.36837 0.92176 0.61874 0.0
C1250 C 0.38682 0.01702 0.63667 0.0
C1251 C 0.37592 0.06678 0.62376 0.0
C1252 C 0.36141 0.04291 0.60801 0.0
C1253 C 0.35773 0.97126 0.60547 0.0
C1254 C 0.38134 0.26152 0.61085 0.0
C1255 C 0.38579 0.2885 0.63336 0.0
C1256 C 0.37831 0.18968 0.60769 0.0
C1257 C 0.37944 0.14322 0.62701 0.0
C1258 C 0.38379 0.17051 0.64955 0.0
C1259 C 0.38703 0.24222 0.65266 0.0
H1260 H 0.64644 0.69859 0.61504 0.0
H1261 H 0.58703 0.75169 0.63526 0.0
H1262 H 0.65412 0.82274 0.61106 0.0
H1263 H 0.59454 0.87562 0.63062 0.0
H1264 H 0.62081 0.09108 0.6454 0.0
H1265 H 0.61306 0.96716 0.6491 0.0
H1266 H 0.64743 0.92308 0.58643 0.0
H1267 H 0.65565 0.047 0.5831 0.0
C1268 C 0.63499 0.73674 0.6185 0.0
C1269 C 0.61614 0.71525 0.62551 0.0
C1270 C 0.63935 0.80793 0.61607 0.0
C1271 C 0.62494 0.85925 0.62048 0.0
C1272 C 0.60607 0.83761 0.62742 0.0
C1273 C 0.60174 0.76647 0.62997 0.0
C1274 C 0.62669 0.05503 0.63236 0.0
C1275 C 0.63888 0.07896 0.61396 0.0
C1276 C 0.62215 0.98394 0.63442 0.0
C1277 C 0.62961 0.93505 0.61807 0.0
C1278 C 0.64167 0.95913 0.59954 0.0
C1279 C 0.64627 0.03027 0.59753 0.0
loop_
_geom_bond_atom_site_label_1
_geom_bond_atom_site_label_2
_geom_bond_distance
_geom_bond_site_symmetry_2
_ccdc_geom_bond_type
Zn0 O6 1.969 . S
Zn0 O7 1.965 . S
Zn0 O11 2.024 . S
Zn0 O16 1.969 . S
Zn1 O8 1.969 . S
Zn1 O14 1.969 1_545 S
Zn1 O15 1.965 . S
Zn1 O17 2.024 . S
C2 O3 1.229 . S
C2 O11 1.058 . S
O3 C2 1.229 . S
C4 O5 1.229 1_545 S
C4 O17 1.058 . S
O5 C4 1.229 1_565 S
O6 Zn0 1.969 . S
O6 C9 1.267 . S
O7 Zn0 1.965 . S
O7 C18 1.260 . S
O8 Zn1 1.969 . S
O8 C18 1.258 . S
C9 O6 1.267 . S
C9 O10 1.228 . S
O10 C9 1.228 . S
O11 Zn0 2.024 . S
O11 C2 1.058 . S
C12 O13 1.228 . S
C12 O14 1.267 . S
O13 C12 1.228 . S
O14 Zn1 1.969 1_565 S
O14 C12 1.267 . S
O15 Zn1 1.965 . S
O15 C19 1.260 . S
O16 Zn0 1.969 . S
O16 C19 1.258 . S
O17 Zn1 2.024 . S
O17 C4 1.058 . S
C18 O7 1.260 . S
C18 O8 1.258 . S
C19 O15 1.260 . S
C19 O16 1.258 . S
Zn20 O26 1.969 . S
Zn20 O27 1.965 . S
Zn20 O31 2.024 . S
Zn20 O36 1.969 . S
Zn21 O28 1.969 . S
Zn21 O34 1.969 1_565 S
Zn21 O35 1.965 . S
Zn21 O37 2.024 . S
C22 O23 1.229 . S
C22 O31 1.058 . S
O23 C22 1.229 . S
C24 O25 1.229 1_565 S
C24 O37 1.058 . S
O25 C24 1.229 1_545 S
O26 Zn20 1.969 . S
O26 C29 1.267 . S
O27 Zn20 1.965 . S
O27 C38 1.260 . S
O28 Zn21 1.969 . S
O28 C38 1.258 . S
C29 O26 1.267 . S
C29 O30 1.228 . S
O30 C29 1.228 . S
O31 Zn20 2.024 . S
O31 C22 1.058 . S
C32 O33 1.228 . S
C32 O34 1.267 . S
O33 C32 1.228 . S
O34 Zn21 1.969 1_545 S
O34 C32 1.267 . S
O35 Zn21 1.965 . S
O35 C39 1.260 . S
O36 Zn20 1.969 . S
O36 C39 1.258 . S
O37 Zn21 2.024 . S
O37 C24 1.058 . S
C38 O27 1.260 . S
C38 O28 1.258 . S
C39 O35 1.260 . S
C39 O36 1.258 . S
Zn40 O46 1.969 . S
Zn40 O47 1.965 . S
Zn40 O51 2.024 . S
Zn40 O56 1.969 . S
Zn41 O48 1.969 . S
Zn41 O54 1.969 1_565 S
Zn41 O55 1.965 . S
Zn41 O57 2.024 . S
C42 O43 1.229 . S
C42 O51 1.058 . S
O43 C42 1.229 . S
C44 O45 1.229 1_565 S
C44 O57 1.058 . S
O45 C44 1.229 1_545 S
O46 Zn40 1.969 . S
O46 C49 1.267 . S
O47 Zn40 1.965 . S
O47 C58 1.260 . S
O48 Zn41 1.969 . S
O48 C58 1.258 . S
C49 O46 1.267 . S
C49 O50 1.228 . S
O50 C49 1.228 . S
O51 Zn40 2.024 . S
O51 C42 1.058 . S
C52 O53 1.228 . S
C52 O54 1.267 . S
O53 C52 1.228 . S
O54 Zn41 1.969 1_545 S
O54 C52 1.267 . S
O55 Zn41 1.965 . S
O55 C59 1.260 . S
O56 Zn40 1.969 . S
O56 C59 1.258 . S
O57 Zn41 2.024 . S
O57 C44 1.058 . S
C58 O47 1.260 . S
C58 O48 1.258 . S
C59 O55 1.260 . S
C59 O56 1.258 . S
Zn60 O66 1.969 . S
Zn60 O67 1.965 . S
Zn60 O71 2.024 . S
Zn60 O76 1.969 . S
Zn61 O68 1.969 . S
Zn61 O74 1.969 1_545 S
Zn61 O75 1.965 . S
Zn61 O77 2.024 . S
C62 O63 1.229 . S
C62 O71 1.058 . S
O63 C62 1.229 . S
C64 O65 1.229 1_545 S
C64 O77 1.058 . S
O65 C64 1.229 1_565 S
O66 Zn60 1.969 . S
O66 C69 1.267 . S
O67 Zn60 1.965 . S
O67 C78 1.260 . S
O68 Zn61 1.969 . S
O68 C78 1.258 . S
C69 O66 1.267 . S
C69 O70 1.228 . S
O70 C69 1.228 . S
O71 Zn60 2.024 . S
O71 C62 1.058 . S
C72 O73 1.228 . S
C72 O74 1.267 . S
O73 C72 1.228 . S
O74 Zn61 1.969 1_565 S
O74 C72 1.267 . S
O75 Zn61 1.965 . S
O75 C79 1.260 . S
O76 Zn60 1.969 . S
O76 C79 1.258 . S
O77 Zn61 2.024 . S
O77 C64 1.058 . S
C78 O67 1.260 . S
C78 O68 1.258 . S
C79 O75 1.260 . S
C79 O76 1.258 . S
Zn80 O86 1.969 1_565 S
Zn80 O87 1.965 . S
Zn80 O91 2.024 . S
Zn80 O96 1.969 . S
Zn81 O88 1.969 . S
Zn81 O94 1.969 . S
Zn81 O95 1.965 . S
Zn81 O97 2.024 . S
C82 O83 1.229 1_565 S
C82 O91 1.058 . S
O83 C82 1.229 1_545 S
C84 O85 1.229 . S
C84 O97 1.058 . S
O85 C84 1.229 . S
O86 Zn80 1.969 1_545 S
O86 C89 1.267 . S
O87 Zn80 1.965 . S
O87 C98 1.260 . S
O88 Zn81 1.969 . S
O88 C98 1.258 . S
C89 O86 1.267 . S
C89 O90 1.228 . S
O90 C89 1.228 . S
O91 Zn80 2.024 . S
O91 C82 1.058 . S
C92 O93 1.228 . S
C92 O94 1.267 . S
O93 C92 1.228 . S
O94 Zn81 1.969 . S
O94 C92 1.267 . S
O95 Zn81 1.965 . S
O95 C99 1.260 . S
O96 Zn80 1.969 . S
O96 C99 1.258 . S
O97 Zn81 2.024 . S
O97 C84 1.058 . S
C98 O87 1.260 . S
C98 O88 1.258 . S
C99 O95 1.260 . S
C99 O96 1.258 . S
Zn100 O106 1.969 1_545 S
Zn100 O107 1.965 . S
Zn100 O111 2.024 . S
Zn100 O116 1.969 . S
Zn101 O108 1.969 . S
Zn101 O114 1.969 . S
Zn101 O115 1.965 . S
Zn101 O117 2.024 . S
C102 O103 1.229 1_545 S
C102 O111 1.058 . S
O103 C102 1.229 1_565 S
C104 O105 1.229 . S
C104 O117 1.058 . S
O105 C104 1.229 . S
O106 Zn100 1.969 1_565 S
O106 C109 1.267 . S
O107 Zn100 1.965 . S
O107 C118 1.260 . S
O108 Zn101 1.969 . S
O108 C118 1.258 . S
C109 O106 1.267 . S
C109 O110 1.228 . S
O110 C109 1.228 . S
O111 Zn100 2.024 . S
O111 C102 1.058 . S
C112 O113 1.228 . S
C112 O114 1.267 . S
O113 C112 1.228 . S
O114 Zn101 1.969 . S
O114 C112 1.267 . S
O115 Zn101 1.965 . S
O115 C119 1.260 . S
O116 Zn100 1.969 . S
O116 C119 1.258 . S
O117 Zn101 2.024 . S
O117 C104 1.058 . S
C118 O107 1.260 . S
C118 O108 1.258 . S
C119 O115 1.260 . S
C119 O116 1.258 . S
Zn120 O126 1.969 1_545 S
Zn120 O127 1.965 . S
Zn120 O131 2.024 . S
Zn120 O136 1.969 . S
Zn121 O128 1.969 . S
Zn121 O134 1.969 . S
Zn121 O135 1.965 . S
Zn121 O137 2.024 . S
C122 O123 1.229 1_545 S
C122 O131 1.058 . S
O123 C122 1.229 1_565 S
C124 O125 1.229 . S
C124 O137 1.058 . S
O125 C124 1.229 . S
O126 Zn120 1.969 1_565 S
O126 C129 1.267 . S
O127 Zn120 1.965 . S
O127 C138 1.260 . S
O128 Zn121 1.969 . S
O128 C138 1.258 . S
C129 O126 1.267 . S
C129 O130 1.228 . S
O130 C129 1.228 . S
O131 Zn120 2.024 . S
O131 C122 1.058 . S
C132 O133 1.228 . S
C132 O134 1.267 . S
O133 C132 1.228 . S
O134 Zn121 1.969 . S
O134 C132 1.267 . S
O135 Zn121 1.965 . S
O135 C139 1.260 . S
O136 Zn120 1.969 . S
O136 C139 1.258 . S
O137 Zn121 2.024 . S
O137 C124 1.058 . S
C138 O127 1.260 . S
C138 O128 1.258 . S
C139 O135 1.260 . S
C139 O136 1.258 . S
Zn140 O146 1.969 1_565 S
Zn140 O147 1.965 . S
Zn140 O151 2.024 . S
Zn140 O156 1.969 . S
Zn141 O148 1.969 . S
Zn141 O154 1.969 . S
Zn141 O155 1.965 . S
Zn141 O157 2.024 . S
C142 O143 1.229 1_565 S
C142 O151 1.058 . S
O143 C142 1.229 1_545 S
C144 O145 1.229 . S
C144 O157 1.058 . S
O145 C144 1.229 . S
O146 Zn140 1.969 1_545 S
O146 C149 1.267 . S
O147 Zn140 1.965 . S
O147 C158 1.260 . S
O148 Zn141 1.969 . S
O148 C158 1.258 . S
C149 O146 1.267 . S
C149 O150 1.228 . S
O150 C149 1.228 . S
O151 Zn140 2.024 . S
O151 C142 1.058 . S
C152 O153 1.228 . S
C152 O154 1.267 . S
O153 C152 1.228 . S
O154 Zn141 1.969 . S
O154 C152 1.267 . S
O155 Zn141 1.965 . S
O155 C159 1.260 . S
O156 Zn140 1.969 . S
O156 C159 1.258 . S
O157 Zn141 2.024 . S
O157 C144 1.058 . S
C158 O147 1.260 . S
C158 O148 1.258 . S
C159 O155 1.260 . S
C159 O156 1.258 . S
Zn160 O166 1.969 . S
Zn160 O167 1.965 . S
Zn160 O171 2.024 . S
Zn160 O176 1.969 . S
Zn161 O168 1.969 . S
Zn161 O174 1.969 . S
Zn161 O175 1.965 . S
Zn161 O177 2.024 . S
C162 O163 1.229 . S
C162 O171 1.058 . S
O163 C162 1.229 . S
C164 O165 1.229 . S
C164 O177 1.058 . S
O165 C164 1.229 . S
O166 Zn160 1.969 . S
O166 C169 1.267 . S
O167 Zn160 1.965 . S
O167 C178 1.260 . S
O168 Zn161 1.969 . S
O168 C178 1.258 . S
C169 O166 1.267 . S
C169 O170 1.228 . S
O170 C169 1.228 . S
O171 Zn160 2.024 . S
O171 C162 1.058 . S
C172 O173 1.228 . S
C172 O174 1.267 . S
O173 C172 1.228 . S
O174 Zn161 1.969 . S
O174 C172 1.267 . S
O175 Zn161 1.965 . S
O175 C179 1.260 . S
O176 Zn160 1.969 . S
O176 C179 1.258 . S
O177 Zn161 2.024 . S
O177 C164 1.058 . S
C178 O167 1.260 . S
C178 O168 1.258 . S
C179 O175 1.260 . S
C179 O176 1.258 . S
Zn180 O186 1.969 . S
Zn180 O187 1.965 . S
Zn180 O191 2.024 . S
Zn180 O196 1.969 . S
Zn181 O188 1.969 . S
Zn181 O194 1.969 . S
Zn181 O195 1.965 . S
Zn181 O197 2.024 . S
C182 O183 1.229 . S
C182 O191 1.058 . S
O183 C182 1.229 . S
C184 O185 1.229 . S
C184 O197 1.058 . S
O185 C184 1.229 . S
O186 Zn180 1.969 . S
O186 C189 1.267 . S
O187 Zn180 1.965 . S
O187 C198 1.260 . S
O188 Zn181 1.969 . S
O188 C198 1.258 . S
C189 O186 1.267 . S
C189 O190 1.228 . S
O190 C189 1.228 . S
O191 Zn180 2.024 . S
O191 C182 1.058 . S
C192 O193 1.228 . S
C192 O194 1.267 . S
O193 C192 1.228 . S
O194 Zn181 1.969 . S
O194 C192 1.267 . S
O195 Zn181 1.965 . S
O195 C199 1.260 . S
O196 Zn180 1.969 . S
O196 C199 1.258 . S
O197 Zn181 2.024 . S
O197 C184 1.058 . S
C198 O187 1.260 . S
C198 O188 1.258 . S
C199 O195 1.260 . S
C199 O196 1.258 . S
Zn200 O206 1.969 . S
Zn200 O207 1.965 . S
Zn200 O211 2.024 . S
Zn200 O216 1.969 . S
Zn201 O208 1.969 . S
Zn201 O214 1.969 . S
Zn201 O215 1.965 . S
Zn201 O217 2.024 . S
C202 O203 1.229 . S
C202 O211 1.058 . S
O203 C202 1.229 . S
C204 O205 1.229 . S
C204 O217 1.058 . S
O205 C204 1.229 . S
O206 Zn200 1.969 . S
O206 C209 1.267 . S
O207 Zn200 1.965 . S
O207 C218 1.260 . S
O208 Zn201 1.969 . S
O208 C218 1.258 . S
C209 O206 1.267 . S
C209 O210 1.228 . S
O210 C209 1.228 . S
O211 Zn200 2.024 . S
O211 C202 1.058 . S
C212 O213 1.228 . S
C212 O214 1.267 . S
O213 C212 1.228 . S
O214 Zn201 1.969 . S
O214 C212 1.267 . S
O215 Zn201 1.965 . S
O215 C219 1.260 . S
O216 Zn200 1.969 . S
O216 C219 1.258 . S
O217 Zn201 2.024 . S
O217 C204 1.058 . S
C218 O207 1.260 . S
C218 O208 1.258 . S
C219 O215 1.260 . S
C219 O216 1.258 . S
Zn220 O226 1.969 . S
Zn220 O227 1.965 . S
Zn220 O231 2.024 . S
Zn220 O236 1.969 . S
Zn221 O228 1.969 . S
Zn221 O234 1.969 . S
Zn221 O235 1.965 . S
Zn221 O237 2.024 . S
C222 O223 1.229 . S
C222 O231 1.058 . S
O223 C222 1.229 . S
C224 O225 1.229 . S
C224 O237 1.058 . S
O225 C224 1.229 . S
O226 Zn220 1.969 . S
O226 C229 1.267 . S
O227 Zn220 1.965 . S
O227 C238 1.260 . S
O228 Zn221 1.969 . S
O228 C238 1.258 . S
C229 O226 1.267 . S
C229 O230 1.228 . S
O230 C229 1.228 . S
O231 Zn220 2.024 . S
O231 C222 1.058 . S
C232 O233 1.228 . S
C232 O234 1.267 . S
O233 C232 1.228 . S
O234 Zn221 1.969 . S
O234 C232 1.267 . S
O235 Zn221 1.965 . S
O235 C239 1.260 . S
O236 Zn220 1.969 . S
O236 C239 1.258 . S
O237 Zn221 2.024 . S
O237 C224 1.058 . S
C238 O227 1.260 . S
C238 O228 1.258 . S
C239 O235 1.260 . S
C239 O236 1.258 . S
Zn240 O246 1.969 . S
Zn240 O247 1.965 . S
Zn240 O251 2.024 . S
Zn240 O256 1.969 . S
Zn241 O248 1.969 . S
Zn241 O254 1.969 . S
Zn241 O255 1.965 . S
Zn241 O257 2.024 . S
C242 O243 1.229 . S
C242 O251 1.058 . S
O243 C242 1.229 . S
C244 O245 1.229 . S
C244 O257 1.058 . S
O245 C244 1.229 . S
O246 Zn240 1.969 . S
O246 C249 1.267 . S
O247 Zn240 1.965 . S
O247 C258 1.260 . S
O248 Zn241 1.969 . S
O248 C258 1.258 . S
C249 O246 1.267 . S
C249 O250 1.228 . S
O250 C249 1.228 . S
O251 Zn240 2.024 . S
O251 C242 1.058 . S
C252 O253 1.228 . S
C252 O254 1.267 . S
O253 C252 1.228 . S
O254 Zn241 1.969 . S
O254 C252 1.267 . S
O255 Zn241 1.965 . S
O255 C259 1.260 . S
O256 Zn240 1.969 . S
O256 C259 1.258 . S
O257 Zn241 2.024 . S
O257 C244 1.058 . S
C258 O247 1.260 . S
C258 O248 1.258 . S
C259 O255 1.260 . S
C259 O256 1.258 . S
Zn260 O266 1.969 . S
Zn260 O267 1.965 . S
Zn260 O271 2.024 . S
Zn260 O276 1.969 . S
Zn261 O268 1.969 . S
Zn261 O274 1.969 . S
Zn261 O275 1.965 . S
Zn261 O277 2.024 . S
C262 O263 1.229 . S
C262 O271 1.058 . S
O263 C262 1.229 . S
C264 O265 1.229 . S
C264 O277 1.058 . S
O265 C264 1.229 . S
O266 Zn260 1.969 . S
O266 C269 1.267 . S
O267 Zn260 1.965 . S
O267 C278 1.260 . S
O268 Zn261 1.969 . S
O268 C278 1.258 . S
C269 O266 1.267 . S
C269 O270 1.228 . S
O270 C269 1.228 . S
O271 Zn260 2.024 . S
O271 C262 1.058 . S
C272 O273 1.228 . S
C272 O274 1.267 . S
O273 C272 1.228 . S
O274 Zn261 1.969 . S
O274 C272 1.267 . S
O275 Zn261 1.965 . S
O275 C279 1.260 . S
O276 Zn260 1.969 . S
O276 C279 1.258 . S
O277 Zn261 2.024 . S
O277 C264 1.058 . S
C278 O267 1.260 . S
C278 O268 1.258 . S
C279 O275 1.260 . S
C279 O276 1.258 . S
Zn280 O286 1.969 . S
Zn280 O287 1.965 . S
Zn280 O291 2.024 . S
Zn280 O296 1.969 . S
Zn281 O288 1.969 . S
Zn281 O294 1.969 . S
Zn281 O295 1.965 . S
Zn281 O297 2.024 . S
C282 O283 1.229 . S
C282 O291 1.058 . S
O283 C282 1.229 . S
C284 O285 1.229 . S
C284 O297 1.058 . S
O285 C284 1.229 . S
O286 Zn280 1.969 . S
O286 C289 1.267 . S
O287 Zn280 1.965 . S
O287 C298 1.260 . S
O288 Zn281 1.969 . S
O288 C298 1.258 . S
C289 O286 1.267 . S
C289 O290 1.228 . S
O290 C289 1.228 . S
O291 Zn280 2.024 . S
O291 C282 1.058 . S
C292 O293 1.228 . S
C292 O294 1.267 . S
O293 C292 1.228 . S
O294 Zn281 1.969 . S
O294 C292 1.267 . S
O295 Zn281 1.965 . S
O295 C299 1.260 . S
O296 Zn280 1.969 . S
O296 C299 1.258 . S
O297 Zn281 2.024 . S
O297 C284 1.058 . S
C298 O287 1.260 . S
C298 O288 1.258 . S
C299 O295 1.260 . S
C299 O296 1.258 . S
Zn300 O306 1.969 . S
Zn300 O307 1.965 . S
Zn300 O311 2.024 . S
Zn300 O316 1.969 . S
Zn301 O308 1.969 . S
Zn301 O314 1.969 . S
Zn301 O315 1.965 . S
Zn301 O317 2.024 . S
C302 O303 1.229 . S
C302 O311 1.058 . S
O303 C302 1.229 . S
C304 O305 1.229 . S
C304 O317 1.058 . S
O305 C304 1.229 . S
O306 Zn300 1.969 . S
O306 C309 1.267 . S
O307 Zn300 1.965 . S
O307 C318 1.260 . S
O308 Zn301 1.969 . S
O308 C318 1.258 . S
C309 O306 1.267 . S
C309 O310 1.228 . S
O310 C309 1.228 . S
O311 Zn300 2.024 . S
O311 C302 1.058 . S
C312 O313 1.228 . S
C312 O314 1.267 . S
O313 C312 1.228 . S
O314 Zn301 1.969 . S
O314 C312 1.267 . S
O315 Zn301 1.965 . S
O315 C319 1.260 . S
O316 Zn300 1.969 . S
O316 C319 1.258 . S
O317 Zn301 2.024 . S
O317 C304 1.058 . S
C318 O307 1.260 . S
C318 O308 1.258 . S
C319 O315 1.260 . S
C319 O316 1.258 . S
H320 C328 0.950 . S
H321 C333 0.950 . S
H322 C330 0.950 . S
H323 C332 0.950 . S
H324 C334 0.950 . S
H325 C336 0.950 . S
H326 C338 0.950 . S
H327 C339 0.950 . S
C328 H320 0.950 . S
C328 C329 1.386 . S
C328 C330 1.391 . S
C329 C328 1.386 . S
C329 C333 1.393 . S
C330 H322 0.950 . S
C330 C328 1.391 . S
C330 C331 1.400 . S
C331 C330 1.400 . S
C331 C332 1.398 . S
C331 C337 1.491 . S
C332 H323 0.950 . S
C332 C331 1.398 . S
C332 C333 1.391 . S
C333 H321 0.950 . S
C333 C329 1.393 . S
C333 C332 1.391 . S
C334 H324 0.950 . S
C334 C335 1.386 . S
C334 C336 1.391 . S
C335 C334 1.386 . S
C335 C339 1.393 . S
C336 H325 0.950 . S
C336 C334 1.391 . S
C336 C337 1.400 . S
C337 C331 1.491 . S
C337 C336 1.400 . S
C337 C338 1.398 . S
C338 H326 0.950 . S
C338 C337 1.398 . S
C338 C339 1.391 . S
C339 H327 0.950 . S
C339 C335 1.393 . S
C339 C338 1.391 . S
H340 C348 0.950 . S
H341 C353 0.950 . S
H342 C350 0.950 . S
H343 C352 0.950 . S
H344 C354 0.950 . S
H345 C356 0.950 . S
H346 C358 0.950 . S
H347 C359 0.950 . S
C348 H340 0.950 . S
C348 C349 1.386 . S
C348 C350 1.391 . S
C349 C348 1.386 . S
C349 C353 1.393 . S
C350 H342 0.950 . S
C350 C348 1.391 . S
C350 C351 1.400 . S
C351 C350 1.400 . S
C351 C352 1.398 . S
C351 C357 1.491 . S
C352 H343 0.950 . S
C352 C351 1.398 . S
C352 C353 1.391 . S
C353 H341 0.950 . S
C353 C349 1.393 . S
C353 C352 1.391 . S
C354 H344 0.950 . S
C354 C355 1.386 . S
C354 C356 1.391 . S
C355 C354 1.386 . S
C355 C359 1.393 . S
C356 H345 0.950 . S
C356 C354 1.391 . S
C356 C357 1.400 . S
C357 C351 1.491 . S
C357 C356 1.400 . S
C357 C358 1.398 . S
C358 H346 0.950 . S
C358 C357 1.398 . S
C358 C359 1.391 . S
C359 H347 0.950 . S
C359 C355 1.393 . S
C359 C358 1.391 . S
H360 C368 0.950 . S
H361 C373 0.950 . S
H362 C370 0.950 . S
H363 C372 0.950 . S
H364 C374 0.950 . S
H365 C376 0.950 . S
H366 C378 0.950 . S
H367 C379 0.950 . S
C368 H360 0.950 . S
C368 C369 1.386 . S
C368 C370 1.391 . S
C369 C368 1.386 . S
C369 C373 1.393 . S
C370 H362 0.950 . S
C370 C368 1.391 . S
C370 C371 1.400 . S
C371 C370 1.400 . S
C371 C372 1.398 . S
C371 C377 1.491 . S
C372 H363 0.950 . S
C372 C371 1.398 . S
C372 C373 1.391 . S
C373 H361 0.950 . S
C373 C369 1.393 . S
C373 C372 1.391 . S
C374 H364 0.950 . S
C374 C375 1.386 . S
C374 C376 1.391 . S
C375 C374 1.386 . S
C375 C379 1.393 . S
C376 H365 0.950 . S
C376 C374 1.391 . S
C376 C377 1.400 . S
C377 C371 1.491 . S
C377 C376 1.400 . S
C377 C378 1.398 . S
C378 H366 0.950 . S
C378 C377 1.398 . S
C378 C379 1.391 . S
C379 H367 0.950 . S
C379 C375 1.393 . S
C379 C378 1.391 . S
H380 C388 0.950 . S
H381 C393 0.950 . S
H382 C390 0.950 . S
H383 C392 0.950 . S
H384 C394 0.950 . S
H385 C396 0.950 . S
H386 C398 0.950 . S
H387 C399 0.950 . S
C388 H380 0.950 . S
C388 C389 1.386 . S
C388 C390 1.391 . S
C389 C388 1.386 . S
C389 C393 1.393 . S
C390 H382 0.950 . S
C390 C388 1.391 . S
C390 C391 1.400 . S
C391 C390 1.400 . S
C391 C392 1.398 . S
C391 C397 1.491 . S
C392 H383 0.950 . S
C392 C391 1.398 . S
C392 C393 1.391 . S
C393 H381 0.950 . S
C393 C389 1.393 . S
C393 C392 1.391 . S
C394 H384 0.950 . S
C394 C395 1.386 . S
C394 C396 1.391 . S
C395 C394 1.386 . S
C395 C399 1.393 . S
C396 H385 0.950 . S
C396 C394 1.391 . S
C396 C397 1.400 . S
C397 C391 1.491 . S
C397 C396 1.400 . S
C397 C398 1.398 . S
C398 H386 0.950 . S
C398 C397 1.398 . S
C398 C399 1.391 . S
C399 H387 0.950 . S
C399 C395 1.393 . S
C399 C398 1.391 . S
H400 C408 0.950 . S
H401 C413 0.950 . S
H402 C410 0.950 . S
H403 C412 0.950 . S
H404 C414 0.950 . S
H405 C416 0.950 . S
H406 C418 0.950 . S
H407 C419 0.950 . S
C408 H400 0.950 . S
C408 C409 1.386 . S
C408 C410 1.391 . S
C409 C408 1.386 . S
C409 C413 1.393 . S
C410 H402 0.950 . S
C410 C408 1.391 . S
C410 C411 1.400 . S
C411 C410 1.400 . S
C411 C412 1.398 . S
C411 C417 1.491 . S
C412 H403 0.950 . S
C412 C411 1.398 . S
C412 C413 1.391 . S
C413 H401 0.950 . S
C413 C409 1.393 . S
C413 C412 1.391 . S
C414 H404 0.950 . S
C414 C415 1.386 . S
C414 C416 1.391 . S
C415 C414 1.386 . S
C415 C419 1.393 . S
C416 H405 0.950 . S
C416 C414 1.391 . S
C416 C417 1.400 . S
C417 C411 1.491 . S
C417 C416 1.400 . S
C417 C418 1.398 . S
C418 H406 0.950 . S
C418 C417 1.398 . S
C418 C419 1.391 . S
C419 H407 0.950 . S
C419 C415 1.393 . S
C419 C418 1.391 . S
H420 C428 0.950 . S
H421 C433 0.950 . S
H422 C430 0.950 . S
H423 C432 0.950 . S
H424 C434 0.950 . S
H425 C436 0.950 . S
H426 C438 0.950 . S
H427 C439 0.950 . S
C428 H420 0.950 . S
C428 C429 1.386 . S
C428 C430 1.391 . S
C429 C428 1.386 . S
C429 C433 1.393 . S
C430 H422 0.950 . S
C430 C428 1.391 . S
C430 C431 1.400 . S
C431 C430 1.400 . S
C431 C432 1.398 . S
C431 C437 1.491 . S
C432 H423 0.950 . S
C432 C431 1.398 . S
C432 C433 1.391 . S
C433 H421 0.950 . S
C433 C429 1.393 . S
C433 C432 1.391 . S
C434 H424 0.950 . S
C434 C435 1.386 . S
C434 C436 1.391 . S
C435 C434 1.386 . S
C435 C439 1.393 . S
C436 H425 0.950 . S
C436 C434 1.391 . S
C436 C437 1.400 . S
C437 C431 1.491 . S
C437 C436 1.400 . S
C437 C438 1.398 . S
C438 H426 0.950 . S
C438 C437 1.398 . S
C438 C439 1.391 . S
C439 H427 0.950 . S
C439 C435 1.393 . S
C439 C438 1.391 . S
H440 C448 0.950 . S
H441 C453 0.950 . S
H442 C450 0.950 . S
H443 C452 0.950 . S
H444 C454 0.950 . S
H445 C456 0.950 . S
H446 C458 0.950 . S
H447 C459 0.950 . S
C448 H440 0.950 . S
C448 C449 1.386 . S
C448 C450 1.391 . S
C449 C448 1.386 . S
C449 C453 1.393 . S
C450 H442 0.950 . S
C450 C448 1.391 . S
C450 C451 1.400 . S
C451 C450 1.400 . S
C451 C452 1.398 . S
C451 C457 1.491 . S
C452 H443 0.950 . S
C452 C451 1.398 . S
C452 C453 1.391 . S
C453 H441 0.950 . S
C453 C449 1.393 . S
C453 C452 1.391 . S
C454 H444 0.950 . S
C454 C455 1.386 . S
C454 C456 1.391 . S
C455 C454 1.386 . S
C455 C459 1.393 . S
C456 H445 0.950 . S
C456 C454 1.391 . S
C456 C457 1.400 . S
C457 C451 1.491 . S
C457 C456 1.400 . S
C457 C458 1.398 . S
C458 H446 0.950 . S
C458 C457 1.398 . S
C458 C459 1.391 . S
C459 H447 0.950 . S
C459 C455 1.393 . S
C459 C458 1.391 . S
H460 C468 0.950 . S
H461 C473 0.950 . S
H462 C470 0.950 . S
H463 C472 0.950 . S
H464 C474 0.950 . S
H465 C476 0.950 . S
H466 C478 0.950 . S
H467 C479 0.950 . S
C468 H460 0.950 . S
C468 C469 1.386 . S
C468 C470 1.391 . S
C469 C468 1.386 . S
C469 C473 1.393 . S
C470 H462 0.950 . S
C470 C468 1.391 . S
C470 C471 1.400 . S
C471 C470 1.400 . S
C471 C472 1.398 . S
C471 C477 1.491 . S
C472 H463 0.950 . S
C472 C471 1.398 . S
C472 C473 1.391 . S
C473 H461 0.950 . S
C473 C469 1.393 . S
C473 C472 1.391 . S
C474 H464 0.950 . S
C474 C475 1.386 . S
C474 C476 1.391 . S
C475 C474 1.386 . S
C475 C479 1.393 . S
C476 H465 0.950 . S
C476 C474 1.391 . S
C476 C477 1.400 . S
C477 C471 1.491 . S
C477 C476 1.400 . S
C477 C478 1.398 . S
C478 H466 0.950 . S
C478 C477 1.398 . S
C478 C479 1.391 . S
C479 H467 0.950 . S
C479 C475 1.393 . S
C479 C478 1.391 . S
H480 C488 0.950 . S
H481 C493 0.950 . S
H482 C490 0.950 . S
H483 C492 0.950 . S
H484 C494 0.950 . S
H485 C496 0.950 . S
H486 C498 0.950 . S
H487 C499 0.950 . S
C488 H480 0.950 . S
C488 C489 1.386 . S
C488 C490 1.391 . S
C489 C488 1.386 . S
C489 C493 1.393 . S
C490 H482 0.950 . S
C490 C488 1.391 . S
C490 C491 1.400 . S
C491 C490 1.400 . S
C491 C492 1.398 . S
C491 C497 1.491 1_565 S
C492 H483 0.950 . S
C492 C491 1.398 . S
C492 C493 1.391 . S
C493 H481 0.950 . S
C493 C489 1.393 . S
C493 C492 1.391 . S
C494 H484 0.950 . S
C494 C495 1.386 . S
C494 C496 1.391 . S
C495 C494 1.386 . S
C495 C499 1.393 . S
C496 H485 0.950 . S
C496 C494 1.391 . S
C496 C497 1.400 . S
C497 C491 1.491 1_545 S
C497 C496 1.400 . S
C497 C498 1.398 . S
C498 H486 0.950 . S
C498 C497 1.398 . S
C498 C499 1.391 . S
C499 H487 0.950 . S
C499 C495 1.393 . S
C499 C498 1.391 . S
H500 C508 0.950 . S
H501 C513 0.950 . S
H502 C510 0.950 . S
H503 C512 0.950 . S
H504 C514 0.950 . S
H505 C516 0.950 . S
H506 C518 0.950 . S
H507 C519 0.950 . S
C508 H500 0.950 . S
C508 C509 1.386 . S
C508 C510 1.391 . S
C509 C508 1.386 . S
C509 C513 1.393 1_545 S
C510 H502 0.950 . S
C510 C508 1.391 . S
C510 C511 1.400 . S
C511 C510 1.400 . S
C511 C512 1.398 1_545 S
C511 C517 1.491 1_545 S
C512 H503 0.950 . S
C512 C511 1.398 1_565 S
C512 C513 1.391 . S
C513 H501 0.950 . S
C513 C509 1.393 1_565 S
C513 C512 1.391 . S
C514 H504 0.950 . S
C514 C515 1.386 . S
C514 C516 1.391 . S
C515 C514 1.386 . S
C515 C519 1.393 1_565 S
C516 H505 0.950 . S
C516 C514 1.391 . S
C516 C517 1.400 . S
C517 C511 1.491 1_565 S
C517 C516 1.400 . S
C517 C518 1.398 1_565 S
C518 H506 0.950 . S
C518 C517 1.398 1_545 S
C518 C519 1.391 . S
C519 H507 0.950 . S
C519 C515 1.393 1_545 S
C519 C518 1.391 . S
H520 C528 0.950 . S
H521 C533 0.950 1_565 S
H522 C530 0.950 . S
H523 C532 0.950 . S
H524 C534 0.950 . S
H525 C536 0.950 . S
H526 C538 0.950 . S
H527 C539 0.950 1_545 S
C528 H520 0.950 . S
C528 C529 1.386 . S
C528 C530 1.391 . S
C529 C528 1.386 . S
C529 C533 1.393 . S
C530 H522 0.950 . S
C530 C528 1.391 . S
C530 C531 1.400 . S
C531 C530 1.400 . S
C531 C532 1.398 1_545 S
C531 C537 1.491 1_545 S
C532 H523 0.950 . S
C532 C531 1.398 1_565 S
C532 C533 1.391 1_565 S
C533 H521 0.950 1_545 S
C533 C529 1.393 . S
C533 C532 1.391 1_545 S
C534 H524 0.950 . S
C534 C535 1.386 . S
C534 C536 1.391 . S
C535 C534 1.386 . S
C535 C539 1.393 . S
C536 H525 0.950 . S
C536 C534 1.391 . S
C536 C537 1.400 . S
C537 C531 1.491 1_565 S
C537 C536 1.400 . S
C537 C538 1.398 1_565 S
C538 H526 0.950 . S
C538 C537 1.398 1_545 S
C538 C539 1.391 1_545 S
C539 H527 0.950 1_565 S
C539 C535 1.393 . S
C539 C538 1.391 1_565 S
H540 C548 0.950 . S
H541 C553 0.950 . S
H542 C550 0.950 1_565 S
H543 C552 0.950 . S
H544 C554 0.950 . S
H545 C556 0.950 1_545 S
H546 C558 0.950 . S
H547 C559 0.950 . S
C548 H540 0.950 . S
C548 C549 1.386 . S
C548 C550 1.391 . S
C549 C548 1.386 . S
C549 C553 1.393 . S
C550 H542 0.950 1_545 S
C550 C548 1.391 . S
C550 C551 1.400 . S
C551 C550 1.400 . S
C551 C552 1.398 . S
C551 C557 1.491 1_545 S
C552 H543 0.950 . S
C552 C551 1.398 . S
C552 C553 1.391 . S
C553 H541 0.950 . S
C553 C549 1.393 . S
C553 C552 1.391 . S
C554 H544 0.950 . S
C554 C555 1.386 . S
C554 C556 1.391 . S
C555 C554 1.386 . S
C555 C559 1.393 . S
C556 H545 0.950 1_565 S
C556 C554 1.391 . S
C556 C557 1.400 . S
C557 C551 1.491 1_565 S
C557 C556 1.400 . S
C557 C558 1.398 . S
C558 H546 0.950 . S
C558 C557 1.398 . S
C558 C559 1.391 . S
C559 H547 0.950 . S
C559 C555 1.393 . S
C559 C558 1.391 . S
H560 C568 0.950 . S
H561 C573 0.950 . S
H562 C570 0.950 . S
H563 C572 0.950 . S
H564 C574 0.950 . S
H565 C576 0.950 . S
H566 C578 0.950 . S
H567 C579 0.950 . S
C568 H560 0.950 . S
C568 C569 1.386 . S
C568 C570 1.391 . S
C569 C568 1.386 . S
C569 C573 1.393 . S
C570 H562 0.950 . S
C570 C568 1.391 . S
C570 C571 1.400 . S
C571 C570 1.400 . S
C571 C572 1.398 . S
C571 C577 1.491 . S
C572 H563 0.950 . S
C572 C571 1.398 . S
C572 C573 1.391 . S
C573 H561 0.950 . S
C573 C569 1.393 . S
C573 C572 1.391 . S
C574 H564 0.950 . S
C574 C575 1.386 . S
C574 C576 1.391 . S
C575 C574 1.386 . S
C575 C579 1.393 . S
C576 H565 0.950 . S
C576 C574 1.391 . S
C576 C577 1.400 . S
C577 C571 1.491 . S
C577 C576 1.400 . S
C577 C578 1.398 . S
C578 H566 0.950 . S
C578 C577 1.398 . S
C578 C579 1.391 . S
C579 H567 0.950 . S
C579 C575 1.393 . S
C579 C578 1.391 . S
H580 C588 0.950 . S
H581 C593 0.950 . S
H582 C590 0.950 . S
H583 C592 0.950 . S
H584 C594 0.950 . S
H585 C596 0.950 . S
H586 C598 0.950 . S
H587 C599 0.950 . S
C588 H580 0.950 . S
C588 C589 1.386 . S
C588 C590 1.391 . S
C589 C588 1.386 . S
C589 C593 1.393 . S
C590 H582 0.950 . S
C590 C588 1.391 . S
C590 C591 1.400 . S
C591 C590 1.400 . S
C591 C592 1.398 . S
C591 C597 1.491 . S
C592 H583 0.950 . S
C592 C591 1.398 . S
C592 C593 1.391 . S
C593 H581 0.950 . S
C593 C589 1.393 . S
C593 C592 1.391 . S
C594 H584 0.950 . S
C594 C595 1.386 . S
C594 C596 1.391 . S
C595 C594 1.386 . S
C595 C599 1.393 . S
C596 H585 0.950 . S
C596 C594 1.391 . S
C596 C597 1.400 . S
C597 C591 1.491 . S
C597 C596 1.400 . S
C597 C598 1.398 . S
C598 H586 0.950 . S
C598 C597 1.398 . S
C598 C599 1.391 . S
C599 H587 0.950 . S
C599 C595 1.393 . S
C599 C598 1.391 . S
H600 C608 0.950 . S
H601 C613 0.950 . S
H602 C610 0.950 . S
H603 C612 0.950 . S
H604 C614 0.950 . S
H605 C616 0.950 . S
H606 C618 0.950 . S
H607 C619 0.950 . S
C608 H600 0.950 . S
C608 C609 1.386 . S
C608 C610 1.391 . S
C609 C608 1.386 . S
C609 C613 1.393 . S
C610 H602 0.950 . S
C610 C608 1.391 . S
C610 C611 1.400 . S
C611 C610 1.400 . S
C611 C612 1.398 . S
C611 C617 1.491 . S
C612 H603 0.950 . S
C612 C611 1.398 . S
C612 C613 1.391 . S
C613 H601 0.950 . S
C613 C609 1.393 . S
C613 C612 1.391 . S
C614 H604 0.950 . S
C614 C615 1.386 . S
C614 C616 1.391 . S
C615 C614 1.386 . S
C615 C619 1.393 . S
C616 H605 0.950 . S
C616 C614 1.391 . S
C616 C617 1.400 . S
C617 C611 1.491 . S
C617 C616 1.400 . S
C617 C618 1.398 . S
C618 H606 0.950 . S
C618 C617 1.398 . S
C618 C619 1.391 . S
C619 H607 0.950 . S
C619 C615 1.393 . S
C619 C618 1.391 . S
H620 C628 0.950 . S
H621 C633 0.950 . S
H622 C630 0.950 . S
H623 C632 0.950 . S
H624 C634 0.950 . S
H625 C636 0.950 . S
H626 C638 0.950 . S
H627 C639 0.950 . S
C628 H620 0.950 . S
C628 C629 1.386 . S
C628 C630 1.391 . S
C629 C628 1.386 . S
C629 C633 1.393 . S
C630 H622 0.950 . S
C630 C628 1.391 . S
C630 C631 1.400 . S
C631 C630 1.400 . S
C631 C632 1.398 . S
C631 C637 1.491 . S
C632 H623 0.950 . S
C632 C631 1.398 . S
C632 C633 1.391 . S
C633 H621 0.950 . S
C633 C629 1.393 . S
C633 C632 1.391 . S
C634 H624 0.950 . S
C634 C635 1.386 . S
C634 C636 1.391 . S
C635 C634 1.386 . S
C635 C639 1.393 . S
C636 H625 0.950 . S
C636 C634 1.391 . S
C636 C637 1.400 . S
C637 C631 1.491 . S
C637 C636 1.400 . S
C637 C638 1.398 . S
C638 H626 0.950 . S
C638 C637 1.398 . S
C638 C639 1.391 . S
C639 H627 0.950 . S
C639 C635 1.393 . S
C639 C638 1.391 . S
H640 C648 0.950 . S
H641 C653 0.950 . S
H642 C650 0.950 . S
H643 C652 0.950 . S
H644 C654 0.950 . S
H645 C656 0.950 . S
H646 C658 0.950 . S
H647 C659 0.950 . S
C648 H640 0.950 . S
C648 C649 1.386 . S
C648 C650 1.391 . S
C649 C648 1.386 . S
C649 C653 1.393 . S
C650 H642 0.950 . S
C650 C648 1.391 . S
C650 C651 1.400 . S
C651 C650 1.400 . S
C651 C652 1.398 . S
C651 C657 1.491 1_556 S
C652 H643 0.950 . S
C652 C651 1.398 . S
C652 C653 1.391 . S
C653 H641 0.950 . S
C653 C649 1.393 . S
C653 C652 1.391 . S
C654 H644 0.950 . S
C654 C655 1.386 . S
C654 C656 1.391 . S
C655 C654 1.386 . S
C655 C659 1.393 . S
C656 H645 0.950 . S
C656 C654 1.391 . S
C656 C657 1.400 . S
C657 C651 1.491 1_554 S
C657 C656 1.400 . S
C657 C658 1.398 . S
C658 H646 0.950 . S
C658 C657 1.398 . S
C658 C659 1.391 . S
C659 H647 0.950 . S
C659 C655 1.393 . S
C659 C658 1.391 . S
H660 C668 0.950 . S
H661 C673 0.950 . S
H662 C670 0.950 . S
H663 C672 0.950 . S
H664 C674 0.950 . S
H665 C676 0.950 . S
H666 C678 0.950 . S
H667 C679 0.950 . S
C668 H660 0.950 . S
C668 C669 1.386 . S
C668 C670 1.391 . S
C669 C668 1.386 . S
C669 C673 1.393 . S
C670 H662 0.950 . S
C670 C668 1.391 . S
C670 C671 1.400 . S
C671 C670 1.400 . S
C671 C672 1.398 . S
C671 C677 1.491 1_556 S
C672 H663 0.950 . S
C672 C671 1.398 . S
C672 C673 1.391 . S
C673 H661 0.950 . S
C673 C669 1.393 . S
C673 C672 1.391 . S
C674 H664 0.950 . S
C674 C675 1.386 . S
C674 C676 1.391 . S
C675 C674 1.386 . S
C675 C679 1.393 . S
C676 H665 0.950 . S
C676 C674 1.391 . S
C676 C677 1.400 . S
C677 C671 1.491 1_554 S
C677 C676 1.400 . S
C677 C678 1.398 . S
C678 H666 0.950 . S
C678 C677 1.398 . S
C678 C679 1.391 . S
C679 H667 0.950 . S
C679 C675 1.393 . S
C679 C678 1.391 . S
H680 C688 0.950 . S
H681 C693 0.950 . S
H682 C690 0.950 . S
H683 C692 0.950 . S
H684 C694 0.950 . S
H685 C696 0.950 . S
H686 C698 0.950 . S
H687 C699 0.950 . S
C688 H680 0.950 . S
C688 C689 1.386 . S
C688 C690 1.391 . S
C689 C688 1.386 . S
C689 C693 1.393 . S
C690 H682 0.950 . S
C690 C688 1.391 . S
C690 C691 1.400 . S
C691 C690 1.400 . S
C691 C692 1.398 . S
C691 C697 1.491 . S
C692 H683 0.950 . S
C692 C691 1.398 . S
C692 C693 1.391 . S
C693 H681 0.950 . S
C693 C689 1.393 . S
C693 C692 1.391 . S
C694 H684 0.950 . S
C694 C695 1.386 . S
C694 C696 1.391 . S
C695 C694 1.386 . S
C695 C699 1.393 . S
C696 H685 0.950 . S
C696 C694 1.391 . S
C696 C697 1.400 . S
C697 C691 1.491 . S
C697 C696 1.400 . S
C697 C698 1.398 . S
C698 H686 0.950 . S
C698 C697 1.398 . S
C698 C699 1.391 . S
C699 H687 0.950 . S
C699 C695 1.393 . S
C699 C698 1.391 . S
H700 C708 0.950 . S
H701 C713 0.950 . S
H702 C710 0.950 . S
H703 C712 0.950 . S
H704 C714 0.950 . S
H705 C716 0.950 . S
H706 C718 0.950 . S
H707 C719 0.950 . S
C708 H700 0.950 . S
C708 C709 1.386 . S
C708 C710 1.391 . S
C709 C708 1.386 . S
C709 C713 1.393 . S
C710 H702 0.950 . S
C710 C708 1.391 . S
C710 C711 1.400 . S
C711 C710 1.400 . S
C711 C712 1.398 . S
C711 C717 1.491 . S
C712 H703 0.950 . S
C712 C711 1.398 . S
C712 C713 1.391 . S
C713 H701 0.950 . S
C713 C709 1.393 . S
C713 C712 1.391 . S
C714 H704 0.950 . S
C714 C715 1.386 . S
C714 C716 1.391 . S
C715 C714 1.386 . S
C715 C719 1.393 . S
C716 H705 0.950 . S
C716 C714 1.391 . S
C716 C717 1.400 . S
C717 C711 1.491 . S
C717 C716 1.400 . S
C717 C718 1.398 . S
C718 H706 0.950 . S
C718 C717 1.398 . S
C718 C719 1.391 . S
C719 H707 0.950 . S
C719 C715 1.393 . S
C719 C718 1.391 . S
H720 C728 0.950 . S
H721 C733 0.950 . S
H722 C730 0.950 . S
H723 C732 0.950 . S
H724 C734 0.950 . S
H725 C736 0.950 . S
H726 C738 0.950 . S
H727 C739 0.950 . S
C728 H720 0.950 . S
C728 C729 1.386 . S
C728 C730 1.391 . S
C729 C728 1.386 . S
C729 C733 1.393 . S
C730 H722 0.950 . S
C730 C728 1.391 . S
C730 C731 1.400 . S
C731 C730 1.400 . S
C731 C732 1.398 . S
C731 C737 1.491 1_554 S
C732 H723 0.950 . S
C732 C731 1.398 . S
C732 C733 1.391 . S
C733 H721 0.950 . S
C733 C729 1.393 . S
C733 C732 1.391 . S
C734 H724 0.950 . S
C734 C735 1.386 . S
C734 C736 1.391 . S
C735 C734 1.386 . S
C735 C739 1.393 . S
C736 H725 0.950 . S
C736 C734 1.391 . S
C736 C737 1.400 . S
C737 C731 1.491 1_556 S
C737 C736 1.400 . S
C737 C738 1.398 . S
C738 H726 0.950 . S
C738 C737 1.398 . S
C738 C739 1.391 . S
C739 H727 0.950 . S
C739 C735 1.393 . S
C739 C738 1.391 . S
H740 C748 0.950 . S
H741 C753 0.950 . S
H742 C750 0.950 . S
H743 C752 0.950 . S
H744 C754 0.950 . S
H745 C756 0.950 . S
H746 C758 0.950 . S
H747 C759 0.950 . S
C748 H740 0.950 . S
C748 C749 1.386 . S
C748 C750 1.391 . S
C749 C748 1.386 . S
C749 C753 1.393 . S
C750 H742 0.950 . S
C750 C748 1.391 . S
C750 C751 1.400 . S
C751 C750 1.400 . S
C751 C752 1.398 . S
C751 C757 1.491 1_556 S
C752 H743 0.950 . S
C752 C751 1.398 . S
C752 C753 1.391 . S
C753 H741 0.950 . S
C753 C749 1.393 . S
C753 C752 1.391 . S
C754 H744 0.950 . S
C754 C755 1.386 . S
C754 C756 1.391 . S
C755 C754 1.386 . S
C755 C759 1.393 . S
C756 H745 0.950 . S
C756 C754 1.391 . S
C756 C757 1.400 . S
C757 C751 1.491 1_554 S
C757 C756 1.400 . S
C757 C758 1.398 . S
C758 H746 0.950 . S
C758 C757 1.398 . S
C758 C759 1.391 . S
C759 H747 0.950 . S
C759 C755 1.393 . S
C759 C758 1.391 . S
H760 C768 0.950 . S
H761 C773 0.950 . S
H762 C770 0.950 . S
H763 C772 0.950 . S
H764 C774 0.950 . S
H765 C776 0.950 . S
H766 C778 0.950 . S
H767 C779 0.950 . S
C768 H760 0.950 . S
C768 C769 1.386 . S
C768 C770 1.391 . S
C769 C768 1.386 . S
C769 C773 1.393 . S
C770 H762 0.950 . S
C770 C768 1.391 . S
C770 C771 1.400 . S
C771 C770 1.400 . S
C771 C772 1.398 . S
C771 C777 1.491 . S
C772 H763 0.950 . S
C772 C771 1.398 . S
C772 C773 1.391 . S
C773 H761 0.950 . S
C773 C769 1.393 . S
C773 C772 1.391 . S
C774 H764 0.950 . S
C774 C775 1.386 . S
C774 C776 1.391 . S
C775 C774 1.386 . S
C775 C779 1.393 . S
C776 H765 0.950 . S
C776 C774 1.391 . S
C776 C777 1.400 . S
C777 C771 1.491 . S
C777 C776 1.400 . S
C777 C778 1.398 . S
C778 H766 0.950 . S
C778 C777 1.398 . S
C778 C779 1.391 . S
C779 H767 0.950 . S
C779 C775 1.393 . S
C779 C778 1.391 . S
H780 C788 0.950 . S
H781 C793 0.950 . S
H782 C790 0.950 . S
H783 C792 0.950 . S
H784 C794 0.950 . S
H785 C796 0.950 . S
H786 C798 0.950 . S
H787 C799 0.950 . S
C788 H780 0.950 . S
C788 C789 1.386 . S
C788 C790 1.391 . S
C789 C788 1.386 . S
C789 C793 1.393 . S
C790 H782 0.950 . S
C790 C788 1.391 . S
C790 C791 1.400 . S
C791 C790 1.400 . S
C791 C792 1.398 . S
C791 C797 1.491 . S
C792 H783 0.950 . S
C792 C791 1.398 . S
C792 C793 1.391 . S
C793 H781 0.950 . S
C793 C789 1.393 . S
C793 C792 1.391 . S
C794 H784 0.950 . S
C794 C795 1.386 . S
C794 C796 1.391 . S
C795 C794 1.386 . S
C795 C799 1.393 . S
C796 H785 0.950 . S
C796 C794 1.391 . S
C796 C797 1.400 . S
C797 C791 1.491 . S
C797 C796 1.400 . S
C797 C798 1.398 . S
C798 H786 0.950 . S
C798 C797 1.398 . S
C798 C799 1.391 . S
C799 H787 0.950 . S
C799 C795 1.393 . S
C799 C798 1.391 . S
H800 C808 0.950 . S
H801 C813 0.950 . S
H802 C810 0.950 . S
H803 C812 0.950 . S
H804 C814 0.950 . S
H805 C816 0.950 . S
H806 C818 0.950 . S
H807 C819 0.950 . S
C808 H800 0.950 . S
C808 C809 1.386 . S
C808 C810 1.391 . S
C809 C808 1.386 . S
C809 C813 1.393 1_565 S
C810 H802 0.950 . S
C810 C808 1.391 . S
C810 C811 1.400 . S
C811 C810 1.400 . S
C811 C812 1.398 1_565 S
C811 C817 1.491 1_665 S
C812 H803 0.950 . S
C812 C811 1.398 1_545 S
C812 C813 1.391 . S
C813 H801 0.950 . S
C813 C809 1.393 1_545 S
C813 C812 1.391 . S
C814 H804 0.950 . S
C814 C815 1.386 . S
C814 C816 1.391 . S
C815 C814 1.386 . S
C815 C819 1.393 1_545 S
C816 H805 0.950 . S
C816 C814 1.391 . S
C816 C817 1.400 . S
C817 C811 1.491 1_445 S
C817 C816 1.400 . S
C817 C818 1.398 1_545 S
C818 H806 0.950 . S
C818 C817 1.398 1_565 S
C818 C819 1.391 . S
C819 H807 0.950 . S
C819 C815 1.393 1_565 S
C819 C818 1.391 . S
H820 C828 0.950 . S
H821 C833 0.950 . S
H822 C830 0.950 . S
H823 C832 0.950 . S
H824 C834 0.950 . S
H825 C836 0.950 . S
H826 C838 0.950 . S
H827 C839 0.950 . S
C828 H820 0.950 . S
C828 C829 1.386 . S
C828 C830 1.391 . S
C829 C828 1.386 . S
C829 C833 1.393 1_545 S
C830 H822 0.950 . S
C830 C828 1.391 . S
C830 C831 1.400 . S
C831 C830 1.400 . S
C831 C832 1.398 1_545 S
C831 C837 1.491 1_645 S
C832 H823 0.950 . S
C832 C831 1.398 1_565 S
C832 C833 1.391 . S
C833 H821 0.950 . S
C833 C829 1.393 1_565 S
C833 C832 1.391 . S
C834 H824 0.950 . S
C834 C835 1.386 . S
C834 C836 1.391 . S
C835 C834 1.386 . S
C835 C839 1.393 1_565 S
C836 H825 0.950 . S
C836 C834 1.391 . S
C836 C837 1.400 . S
C837 C831 1.491 1_465 S
C837 C836 1.400 . S
C837 C838 1.398 1_565 S
C838 H826 0.950 . S
C838 C837 1.398 1_545 S
C838 C839 1.391 . S
C839 H827 0.950 . S
C839 C835 1.393 1_545 S
C839 C838 1.391 . S
H840 C848 0.950 . S
H841 C853 0.950 . S
H842 C850 0.950 . S
H843 C852 0.950 . S
H844 C854 0.950 . S
H845 C856 0.950 . S
H846 C858 0.950 . S
H847 C859 0.950 . S
C848 H840 0.950 . S
C848 C849 1.386 . S
C848 C850 1.391 . S
C849 C848 1.386 . S
C849 C853 1.393 1_545 S
C850 H842 0.950 . S
C850 C848 1.391 . S
C850 C851 1.400 . S
C851 C850 1.400 . S
C851 C852 1.398 1_545 S
C851 C857 1.491 1_445 S
C852 H843 0.950 . S
C852 C851 1.398 1_565 S
C852 C853 1.391 . S
C853 H841 0.950 . S
C853 C849 1.393 1_565 S
C853 C852 1.391 . S
C854 H844 0.950 . S
C854 C855 1.386 . S
C854 C856 1.391 . S
C855 C854 1.386 . S
C855 C859 1.393 1_565 S
C856 H845 0.950 . S
C856 C854 1.391 . S
C856 C857 1.400 . S
C857 C851 1.491 1_665 S
C857 C856 1.400 . S
C857 C858 1.398 1_565 S
C858 H846 0.950 . S
C858 C857 1.398 1_545 S
C858 C859 1.391 . S
C859 H847 0.950 . S
C859 C855 1.393 1_545 S
C859 C858 1.391 . S
H860 C868 0.950 . S
H861 C873 0.950 . S
H862 C870 0.950 . S
H863 C872 0.950 . S
H864 C874 0.950 . S
H865 C876 0.950 . S
H866 C878 0.950 . S
H867 C879 0.950 . S
C868 H860 0.950 . S
C868 C869 1.386 . S
C868 C870 1.391 . S
C869 C868 1.386 . S
C869 C873 1.393 1_545 S
C870 H862 0.950 . S
C870 C868 1.391 . S
C870 C871 1.400 . S
C871 C870 1.400 . S
C871 C872 1.398 1_545 S
C871 C877 1.491 1_645 S
C872 H863 0.950 . S
C872 C871 1.398 1_565 S
C872 C873 1.391 . S
C873 H861 0.950 . S
C873 C869 1.393 1_565 S
C873 C872 1.391 . S
C874 H864 0.950 . S
C874 C875 1.386 . S
C874 C876 1.391 . S
C875 C874 1.386 . S
C875 C879 1.393 1_565 S
C876 H865 0.950 . S
C876 C874 1.391 . S
C876 C877 1.400 . S
C877 C871 1.491 1_465 S
C877 C876 1.400 . S
C877 C878 1.398 1_565 S
C878 H866 0.950 . S
C878 C877 1.398 1_545 S
C878 C879 1.391 . S
C879 H867 0.950 . S
C879 C875 1.393 1_545 S
C879 C878 1.391 . S
H880 C888 0.950 . S
H881 C893 0.950 . S
H882 C890 0.950 . S
H883 C892 0.950 . S
H884 C894 0.950 . S
H885 C896 0.950 . S
H886 C898 0.950 . S
H887 C899 0.950 . S
C888 H880 0.950 . S
C888 C889 1.386 . S
C888 C890 1.391 . S
C889 C888 1.386 . S
C889 C893 1.393 . S
C890 H882 0.950 . S
C890 C888 1.391 . S
C890 C891 1.400 . S
C891 C890 1.400 . S
C891 C892 1.398 . S
C891 C897 1.491 . S
C892 H883 0.950 . S
C892 C891 1.398 . S
C892 C893 1.391 . S
C893 H881 0.950 . S
C893 C889 1.393 . S
C893 C892 1.391 . S
C894 H884 0.950 . S
C894 C895 1.386 . S
C894 C896 1.391 . S
C895 C894 1.386 . S
C895 C899 1.393 . S
C896 H885 0.950 . S
C896 C894 1.391 . S
C896 C897 1.400 . S
C897 C891 1.491 . S
C897 C896 1.400 . S
C897 C898 1.398 . S
C898 H886 0.950 . S
C898 C897 1.398 . S
C898 C899 1.391 . S
C899 H887 0.950 . S
C899 C895 1.393 . S
C899 C898 1.391 . S
H900 C908 0.950 . S
H901 C913 0.950 . S
H902 C910 0.950 . S
H903 C912 0.950 . S
H904 C914 0.950 . S
H905 C916 0.950 . S
H906 C918 0.950 . S
H907 C919 0.950 . S
C908 H900 0.950 . S
C908 C909 1.386 . S
C908 C910 1.391 . S
C909 C908 1.386 . S
C909 C913 1.393 . S
C910 H902 0.950 . S
C910 C908 1.391 . S
C910 C911 1.400 . S
C911 C910 1.400 . S
C911 C912 1.398 . S
C911 C917 1.491 . S
C912 H903 0.950 . S
C912 C911 1.398 . S
C912 C913 1.391 . S
C913 H901 0.950 . S
C913 C909 1.393 . S
C913 C912 1.391 . S
C914 H904 0.950 . S
C914 C915 1.386 . S
C914 C916 1.391 . S
C915 C914 1.386 . S
C915 C919 1.393 . S
C916 H905 0.950 . S
C916 C914 1.391 . S
C916 C917 1.400 . S
C917 C911 1.491 . S
C917 C916 1.400 . S
C917 C918 1.398 . S
C918 H906 0.950 . S
C918 C917 1.398 . S
C918 C919 1.391 . S
C919 H907 0.950 . S
C919 C915 1.393 . S
C919 C918 1.391 . S
H920 C928 0.950 . S
H921 C933 0.950 . S
H922 C930 0.950 . S
H923 C932 0.950 . S
H924 C934 0.950 . S
H925 C936 0.950 . S
H926 C938 0.950 . S
H927 C939 0.950 . S
C928 H920 0.950 . S
C928 C929 1.386 . S
C928 C930 1.391 . S
C929 C928 1.386 . S
C929 C933 1.393 . S
C930 H922 0.950 . S
C930 C928 1.391 . S
C930 C931 1.400 . S
C931 C930 1.400 . S
C931 C932 1.398 . S
C931 C937 1.491 . S
C932 H923 0.950 . S
C932 C931 1.398 . S
C932 C933 1.391 . S
C933 H921 0.950 . S
C933 C929 1.393 . S
C933 C932 1.391 . S
C934 H924 0.950 . S
C934 C935 1.386 . S
C934 C936 1.391 . S
C935 C934 1.386 . S
C935 C939 1.393 . S
C936 H925 0.950 . S
C936 C934 1.391 . S
C936 C937 1.400 . S
C937 C931 1.491 . S
C937 C936 1.400 . S
C937 C938 1.398 . S
C938 H926 0.950 . S
C938 C937 1.398 . S
C938 C939 1.391 . S
C939 H927 0.950 . S
C939 C935 1.393 . S
C939 C938 1.391 . S
H940 C948 0.950 . S
H941 C953 0.950 . S
H942 C950 0.950 . S
H943 C952 0.950 . S
H944 C954 0.950 . S
H945 C956 0.950 . S
H946 C958 0.950 . S
H947 C959 0.950 . S
C948 H940 0.950 . S
C948 C949 1.386 . S
C948 C950 1.391 . S
C949 C948 1.386 . S
C949 C953 1.393 . S
C950 H942 0.950 . S
C950 C948 1.391 . S
C950 C951 1.400 . S
C951 C950 1.400 . S
C951 C952 1.398 . S
C951 C957 1.491 . S
C952 H943 0.950 . S
C952 C951 1.398 . S
C952 C953 1.391 . S
C953 H941 0.950 . S
C953 C949 1.393 . S
C953 C952 1.391 . S
C954 H944 0.950 . S
C954 C955 1.386 . S
C954 C956 1.391 . S
C955 C954 1.386 . S
C955 C959 1.393 . S
C956 H945 0.950 . S
C956 C954 1.391 . S
C956 C957 1.400 . S
C957 C951 1.491 . S
C957 C956 1.400 . S
C957 C958 1.398 . S
C958 H946 0.950 . S
C958 C957 1.398 . S
C958 C959 1.391 . S
C959 H947 0.950 . S
C959 C955 1.393 . S
C959 C958 1.391 . S
H960 C968 0.950 . S
H961 C973 0.950 . S
H962 C970 0.950 . S
H963 C972 0.950 . S
H964 C974 0.950 . S
H965 C976 0.950 . S
H966 C978 0.950 . S
H967 C979 0.950 . S
C968 H960 0.950 . S
C968 C969 1.386 . S
C968 C970 1.391 . S
C969 C968 1.386 . S
C969 C973 1.393 . S
C970 H962 0.950 . S
C970 C968 1.391 . S
C970 C971 1.400 . S
C971 C970 1.400 . S
C971 C972 1.398 . S
C971 C977 1.491 . S
C972 H963 0.950 . S
C972 C971 1.398 . S
C972 C973 1.391 . S
C973 H961 0.950 . S
C973 C969 1.393 . S
C973 C972 1.391 . S
C974 H964 0.950 . S
C974 C975 1.386 . S
C974 C976 1.391 . S
C975 C974 1.386 . S
C975 C979 1.393 . S
C976 H965 0.950 . S
C976 C974 1.391 . S
C976 C977 1.400 . S
C977 C971 1.491 . S
C977 C976 1.400 . S
C977 C978 1.398 . S
C978 H966 0.950 . S
C978 C977 1.398 . S
C978 C979 1.391 . S
C979 H967 0.950 . S
C979 C975 1.393 . S
C979 C978 1.391 . S
H980 C988 0.950 . S
H981 C993 0.950 . S
H982 C990 0.950 . S
H983 C992 0.950 . S
H984 C994 0.950 . S
H985 C996 0.950 . S
H986 C998 0.950 . S
H987 C999 0.950 . S
C988 H980 0.950 . S
C988 C989 1.386 . S
C988 C990 1.391 . S
C989 C988 1.386 . S
C989 C993 1.393 . S
C990 H982 0.950 . S
C990 C988 1.391 . S
C990 C991 1.400 . S
C991 C990 1.400 . S
C991 C992 1.398 . S
C991 C997 1.491 . S
C992 H983 0.950 . S
C992 C991 1.398 . S
C992 C993 1.391 . S
C993 H981 0.950 . S
C993 C989 1.393 . S
C993 C992 1.391 . S
C994 H984 0.950 . S
C994 C995 1.386 . S
C994 C996 1.391 . S
C995 C994 1.386 . S
C995 C999 1.393 . S
C996 H985 0.950 . S
C996 C994 1.391 . S
C996 C997 1.400 . S
C997 C991 1.491 . S
C997 C996 1.400 . S
C997 C998 1.398 . S
C998 H986 0.950 . S
C998 C997 1.398 . S
C998 C999 1.391 . S
C999 H987 0.950 . S
C999 C995 1.393 . S
C999 C998 1.391 . S
H1000 C1008 0.950 . S
H1001 C1013 0.950 . S
H1002 C1010 0.950 . S
H1003 C1012 0.950 . S
H1004 C1014 0.950 . S
H1005 C1016 0.950 . S
H1006 C1018 0.950 . S
H1007 C1019 0.950 . S
C1008 H1000 0.950 . S
C1008 C1009 1.386 . S
C1008 C1010 1.391 . S
C1009 C1008 1.386 . S
C1009 C1013 1.393 . S
C1010 H1002 0.950 . S
C1010 C1008 1.391 . S
C1010 C1011 1.400 . S
C1011 C1010 1.400 . S
C1011 C1012 1.398 . S
C1011 C1017 1.491 . S
C1012 H1003 0.950 . S
C1012 C1011 1.398 . S
C1012 C1013 1.391 . S
C1013 H1001 0.950 . S
C1013 C1009 1.393 . S
C1013 C1012 1.391 . S
C1014 H1004 0.950 . S
C1014 C1015 1.386 . S
C1014 C1016 1.391 . S
C1015 C1014 1.386 . S
C1015 C1019 1.393 . S
C1016 H1005 0.950 . S
C1016 C1014 1.391 . S
C1016 C1017 1.400 . S
C1017 C1011 1.491 . S
C1017 C1016 1.400 . S
C1017 C1018 1.398 . S
C1018 H1006 0.950 . S
C1018 C1017 1.398 . S
C1018 C1019 1.391 . S
C1019 H1007 0.950 . S
C1019 C1015 1.393 . S
C1019 C1018 1.391 . S
H1020 C1028 0.950 . S
H1021 C1033 0.950 . S
H1022 C1030 0.950 . S
H1023 C1032 0.950 . S
H1024 C1034 0.950 . S
H1025 C1036 0.950 . S
H1026 C1038 0.950 . S
H1027 C1039 0.950 . S
C1028 H1020 0.950 . S
C1028 C1029 1.386 . S
C1028 C1030 1.391 . S
C1029 C1028 1.386 . S
C1029 C1033 1.393 . S
C1030 H1022 0.950 . S
C1030 C1028 1.391 . S
C1030 C1031 1.400 . S
C1031 C1030 1.400 . S
C1031 C1032 1.398 . S
C1031 C1037 1.491 . S
C1032 H1023 0.950 . S
C1032 C1031 1.398 . S
C1032 C1033 1.391 . S
C1033 H1021 0.950 . S
C1033 C1029 1.393 . S
C1033 C1032 1.391 . S
C1034 H1024 0.950 . S
C1034 C1035 1.386 . S
C1034 C1036 1.391 . S
C1035 C1034 1.386 . S
C1035 C1039 1.393 . S
C1036 H1025 0.950 . S
C1036 C1034 1.391 . S
C1036 C1037 1.400 . S
C1037 C1031 1.491 . S
C1037 C1036 1.400 . S
C1037 C1038 1.398 . S
C1038 H1026 0.950 . S
C1038 C1037 1.398 . S
C1038 C1039 1.391 . S
C1039 H1027 0.950 . S
C1039 C1035 1.393 . S
C1039 C1038 1.391 . S
H1040 C1048 0.950 . S
H1041 C1053 0.950 . S
H1042 C1050 0.950 . S
H1043 C1052 0.950 . S
H1044 C1054 0.950 . S
H1045 C1056 0.950 . S
H1046 C1058 0.950 . S
H1047 C1059 0.950 . S
C1048 H1040 0.950 . S
C1048 C1049 1.386 . S
C1048 C1050 1.391 . S
C1049 C1048 1.386 . S
C1049 C1053 1.393 . S
C1050 H1042 0.950 . S
C1050 C1048 1.391 . S
C1050 C1051 1.400 . S
C1051 C1050 1.400 . S
C1051 C1052 1.398 . S
C1051 C1057 1.491 . S
C1052 H1043 0.950 . S
C1052 C1051 1.398 . S
C1052 C1053 1.391 . S
C1053 H1041 0.950 . S
C1053 C1049 1.393 . S
C1053 C1052 1.391 . S
C1054 H1044 0.950 . S
C1054 C1055 1.386 . S
C1054 C1056 1.391 . S
C1055 C1054 1.386 . S
C1055 C1059 1.393 . S
C1056 H1045 0.950 . S
C1056 C1054 1.391 . S
C1056 C1057 1.400 . S
C1057 C1051 1.491 . S
C1057 C1056 1.400 . S
C1057 C1058 1.398 . S
C1058 H1046 0.950 . S
C1058 C1057 1.398 . S
C1058 C1059 1.391 . S
C1059 H1047 0.950 . S
C1059 C1055 1.393 . S
C1059 C1058 1.391 . S
H1060 C1068 0.950 . S
H1061 C1073 0.950 . S
H1062 C1070 0.950 . S
H1063 C1072 0.950 . S
H1064 C1074 0.950 . S
H1065 C1076 0.950 . S
H1066 C1078 0.950 . S
H1067 C1079 0.950 . S
C1068 H1060 0.950 . S
C1068 C1069 1.386 . S
C1068 C1070 1.391 . S
C1069 C1068 1.386 . S
C1069 C1073 1.393 . S
C1070 H1062 0.950 . S
C1070 C1068 1.391 . S
C1070 C1071 1.400 . S
C1071 C1070 1.400 . S
C1071 C1072 1.398 . S
C1071 C1077 1.491 . S
C1072 H1063 0.950 . S
C1072 C1071 1.398 . S
C1072 C1073 1.391 . S
C1073 H1061 0.950 . S
C1073 C1069 1.393 . S
C1073 C1072 1.391 . S
C1074 H1064 0.950 . S
C1074 C1075 1.386 . S
C1074 C1076 1.391 . S
C1075 C1074 1.386 . S
C1075 C1079 1.393 . S
C1076 H1065 0.950 . S
C1076 C1074 1.391 . S
C1076 C1077 1.400 . S
C1077 C1071 1.491 . S
C1077 C1076 1.400 . S
C1077 C1078 1.398 . S
C1078 H1066 0.950 . S
C1078 C1077 1.398 . S
C1078 C1079 1.391 . S
C1079 H1067 0.950 . S
C1079 C1075 1.393 . S
C1079 C1078 1.391 . S
H1080 C1088 0.950 . S
H1081 C1093 0.950 . S
H1082 C1090 0.950 . S
H1083 C1092 0.950 . S
H1084 C1094 0.950 . S
H1085 C1096 0.950 . S
H1086 C1098 0.950 . S
H1087 C1099 0.950 . S
C1088 H1080 0.950 . S
C1088 C1089 1.386 . S
C1088 C1090 1.391 . S
C1089 C1088 1.386 . S
C1089 C1093 1.393 . S
C1090 H1082 0.950 . S
C1090 C1088 1.391 . S
C1090 C1091 1.400 . S
C1091 C1090 1.400 . S
C1091 C1092 1.398 . S
C1091 C1097 1.491 . S
C1092 H1083 0.950 . S
C1092 C1091 1.398 . S
C1092 C1093 1.391 . S
C1093 H1081 0.950 . S
C1093 C1089 1.393 . S
C1093 C1092 1.391 . S
C1094 H1084 0.950 . S
C1094 C1095 1.386 . S
C1094 C1096 1.391 . S
C1095 C1094 1.386 . S
C1095 C1099 1.393 . S
C1096 H1085 0.950 . S
C1096 C1094 1.391 . S
C1096 C1097 1.400 . S
C1097 C1091 1.491 . S
C1097 C1096 1.400 . S
C1097 C1098 1.398 . S
C1098 H1086 0.950 . S
C1098 C1097 1.398 . S
C1098 C1099 1.391 . S
C1099 H1087 0.950 . S
C1099 C1095 1.393 . S
C1099 C1098 1.391 . S
H1100 C1108 0.950 . S
H1101 C1113 0.950 . S
H1102 C1110 0.950 . S
H1103 C1112 0.950 . S
H1104 C1114 0.950 . S
H1105 C1116 0.950 . S
H1106 C1118 0.950 . S
H1107 C1119 0.950 . S
C1108 H1100 0.950 . S
C1108 C1109 1.386 . S
C1108 C1110 1.391 . S
C1109 C1108 1.386 . S
C1109 C1113 1.393 . S
C1110 H1102 0.950 . S
C1110 C1108 1.391 . S
C1110 C1111 1.400 . S
C1111 C1110 1.400 . S
C1111 C1112 1.398 . S
C1111 C1117 1.491 . S
C1112 H1103 0.950 . S
C1112 C1111 1.398 . S
C1112 C1113 1.391 . S
C1113 H1101 0.950 . S
C1113 C1109 1.393 . S
C1113 C1112 1.391 . S
C1114 H1104 0.950 . S
C1114 C1115 1.386 . S
C1114 C1116 1.391 . S
C1115 C1114 1.386 . S
C1115 C1119 1.393 . S
C1116 H1105 0.950 . S
C1116 C1114 1.391 . S
C1116 C1117 1.400 . S
C1117 C1111 1.491 . S
C1117 C1116 1.400 . S
C1117 C1118 1.398 . S
C1118 H1106 0.950 . S
C1118 C1117 1.398 . S
C1118 C1119 1.391 . S
C1119 H1107 0.950 . S
C1119 C1115 1.393 . S
C1119 C1118 1.391 . S
H1120 C1128 0.950 . S
H1121 C1133 0.950 . S
H1122 C1130 0.950 . S
H1123 C1132 0.950 . S
H1124 C1134 0.950 . S
H1125 C1136 0.950 . S
H1126 C1138 0.950 . S
H1127 C1139 0.950 . S
C1128 H1120 0.950 . S
C1128 C1129 1.386 . S
C1128 C1130 1.391 1_565 S
C1129 C1128 1.386 . S
C1129 C1133 1.393 . S
C1130 H1122 0.950 . S
C1130 C1128 1.391 1_545 S
C1130 C1131 1.400 . S
C1131 C1130 1.400 . S
C1131 C1132 1.398 . S
C1131 C1137 1.491 . S
C1132 H1123 0.950 . S
C1132 C1131 1.398 . S
C1132 C1133 1.391 1_545 S
C1133 H1121 0.950 . S
C1133 C1129 1.393 . S
C1133 C1132 1.391 1_565 S
C1134 H1124 0.950 . S
C1134 C1135 1.386 . S
C1134 C1136 1.391 . S
C1135 C1134 1.386 . S
C1135 C1139 1.393 . S
C1136 H1125 0.950 . S
C1136 C1134 1.391 . S
C1136 C1137 1.400 . S
C1137 C1131 1.491 . S
C1137 C1136 1.400 . S
C1137 C1138 1.398 . S
C1138 H1126 0.950 . S
C1138 C1137 1.398 . S
C1138 C1139 1.391 . S
C1139 H1127 0.950 . S
C1139 C1135 1.393 . S
C1139 C1138 1.391 . S
H1140 C1148 0.950 . S
H1141 C1153 0.950 . S
H1142 C1150 0.950 . S
H1143 C1152 0.950 . S
H1144 C1154 0.950 . S
H1145 C1156 0.950 . S
H1146 C1158 0.950 . S
H1147 C1159 0.950 . S
C1148 H1140 0.950 . S
C1148 C1149 1.386 . S
C1148 C1150 1.391 . S
C1149 C1148 1.386 . S
C1149 C1153 1.393 . S
C1150 H1142 0.950 . S
C1150 C1148 1.391 . S
C1150 C1151 1.400 . S
C1151 C1150 1.400 . S
C1151 C1152 1.398 . S
C1151 C1157 1.491 . S
C1152 H1143 0.950 . S
C1152 C1151 1.398 . S
C1152 C1153 1.391 . S
C1153 H1141 0.950 . S
C1153 C1149 1.393 . S
C1153 C1152 1.391 . S
C1154 H1144 0.950 . S
C1154 C1155 1.386 . S
C1154 C1156 1.391 1_545 S
C1155 C1154 1.386 . S
C1155 C1159 1.393 . S
C1156 H1145 0.950 . S
C1156 C1154 1.391 1_565 S
C1156 C1157 1.400 . S
C1157 C1151 1.491 . S
C1157 C1156 1.400 . S
C1157 C1158 1.398 . S
C1158 H1146 0.950 . S
C1158 C1157 1.398 . S
C1158 C1159 1.391 1_565 S
C1159 H1147 0.950 . S
C1159 C1155 1.393 . S
C1159 C1158 1.391 1_545 S
H1160 C1168 0.950 . S
H1161 C1173 0.950 . S
H1162 C1170 0.950 . S
H1163 C1172 0.950 . S
H1164 C1174 0.950 . S
H1165 C1176 0.950 . S
H1166 C1178 0.950 . S
H1167 C1179 0.950 . S
C1168 H1160 0.950 . S
C1168 C1169 1.386 . S
C1168 C1170 1.391 1_545 S
C1169 C1168 1.386 . S
C1169 C1173 1.393 . S
C1170 H1162 0.950 . S
C1170 C1168 1.391 1_565 S
C1170 C1171 1.400 . S
C1171 C1170 1.400 . S
C1171 C1172 1.398 . S
C1171 C1177 1.491 . S
C1172 H1163 0.950 . S
C1172 C1171 1.398 . S
C1172 C1173 1.391 1_565 S
C1173 H1161 0.950 . S
C1173 C1169 1.393 . S
C1173 C1172 1.391 1_545 S
C1174 H1164 0.950 . S
C1174 C1175 1.386 . S
C1174 C1176 1.391 . S
C1175 C1174 1.386 . S
C1175 C1179 1.393 . S
C1176 H1165 0.950 . S
C1176 C1174 1.391 . S
C1176 C1177 1.400 . S
C1177 C1171 1.491 . S
C1177 C1176 1.400 . S
C1177 C1178 1.398 . S
C1178 H1166 0.950 . S
C1178 C1177 1.398 . S
C1178 C1179 1.391 . S
C1179 H1167 0.950 . S
C1179 C1175 1.393 . S
C1179 C1178 1.391 . S
H1180 C1188 0.950 . S
H1181 C1193 0.950 . S
H1182 C1190 0.950 . S
H1183 C1192 0.950 . S
H1184 C1194 0.950 . S
H1185 C1196 0.950 . S
H1186 C1198 0.950 . S
H1187 C1199 0.950 . S
C1188 H1180 0.950 . S
C1188 C1189 1.386 . S
C1188 C1190 1.391 1_565 S
C1189 C1188 1.386 . S
C1189 C1193 1.393 . S
C1190 H1182 0.950 . S
C1190 C1188 1.391 1_545 S
C1190 C1191 1.400 . S
C1191 C1190 1.400 . S
C1191 C1192 1.398 . S
C1191 C1197 1.491 . S
C1192 H1183 0.950 . S
C1192 C1191 1.398 . S
C1192 C1193 1.391 1_545 S
C1193 H1181 0.950 . S
C1193 C1189 1.393 . S
C1193 C1192 1.391 1_565 S
C1194 H1184 0.950 . S
C1194 C1195 1.386 . S
C1194 C1196 1.391 . S
C1195 C1194 1.386 . S
C1195 C1199 1.393 . S
C1196 H1185 0.950 . S
C1196 C1194 1.391 . S
C1196 C1197 1.400 . S
C1197 C1191 1.491 . S
C1197 C1196 1.400 . S
C1197 C1198 1.398 . S
C1198 H1186 0.950 . S
C1198 C1197 1.398 . S
C1198 C1199 1.391 . S
C1199 H1187 0.950 . S
C1199 C1195 1.393 . S
C1199 C1198 1.391 . S
H1200 C1208 0.950 . S
H1201 C1213 0.950 . S
H1202 C1210 0.950 . S
H1203 C1212 0.950 . S
H1204 C1214 0.950 . S
H1205 C1216 0.950 . S
H1206 C1218 0.950 . S
H1207 C1219 0.950 . S
C1208 H1200 0.950 . S
C1208 C1209 1.386 . S
C1208 C1210 1.391 . S
C1209 C1208 1.386 . S
C1209 C1213 1.393 . S
C1210 H1202 0.950 . S
C1210 C1208 1.391 . S
C1210 C1211 1.400 . S
C1211 C1210 1.400 . S
C1211 C1212 1.398 . S
C1211 C1217 1.491 . S
C1212 H1203 0.950 . S
C1212 C1211 1.398 . S
C1212 C1213 1.391 . S
C1213 H1201 0.950 . S
C1213 C1209 1.393 . S
C1213 C1212 1.391 . S
C1214 H1204 0.950 . S
C1214 C1215 1.386 . S
C1214 C1216 1.391 1_545 S
C1215 C1214 1.386 . S
C1215 C1219 1.393 . S
C1216 H1205 0.950 . S
C1216 C1214 1.391 1_565 S
C1216 C1217 1.400 . S
C1217 C1211 1.491 . S
C1217 C1216 1.400 . S
C1217 C1218 1.398 . S
C1218 H1206 0.950 . S
C1218 C1217 1.398 . S
C1218 C1219 1.391 1_565 S
C1219 H1207 0.950 . S
C1219 C1215 1.393 . S
C1219 C1218 1.391 1_545 S
H1220 C1228 0.950 . S
H1221 C1233 0.950 . S
H1222 C1230 0.950 . S
H1223 C1232 0.950 . S
H1224 C1234 0.950 . S
H1225 C1236 0.950 . S
H1226 C1238 0.950 . S
H1227 C1239 0.950 . S
C1228 H1220 0.950 . S
C1228 C1229 1.386 . S
C1228 C1230 1.391 . S
C1229 C1228 1.386 . S
C1229 C1233 1.393 . S
C1230 H1222 0.950 . S
C1230 C1228 1.391 . S
C1230 C1231 1.400 . S
C1231 C1230 1.400 . S
C1231 C1232 1.398 . S
C1231 C1237 1.491 . S
C1232 H1223 0.950 . S
C1232 C1231 1.398 . S
C1232 C1233 1.391 . S
C1233 H1221 0.950 . S
C1233 C1229 1.393 . S
C1233 C1232 1.391 . S
C1234 H1224 0.950 . S
C1234 C1235 1.386 . S
C1234 C1236 1.391 1_565 S
C1235 C1234 1.386 . S
C1235 C1239 1.393 . S
C1236 H1225 0.950 . S
C1236 C1234 1.391 1_545 S
C1236 C1237 1.400 . S
C1237 C1231 1.491 . S
C1237 C1236 1.400 . S
C1237 C1238 1.398 . S
C1238 H1226 0.950 . S
C1238 C1237 1.398 . S
C1238 C1239 1.391 1_545 S
C1239 H1227 0.950 . S
C1239 C1235 1.393 . S
C1239 C1238 1.391 1_565 S
H1240 C1248 0.950 . S
H1241 C1253 0.950 . S
H1242 C1250 0.950 . S
H1243 C1252 0.950 . S
H1244 C1254 0.950 . S
H1245 C1256 0.950 . S
H1246 C1258 0.950 . S
H1247 C1259 0.950 . S
C1248 H1240 0.950 . S
C1248 C1249 1.386 . S
C1248 C1250 1.391 1_565 S
C1249 C1248 1.386 . S
C1249 C1253 1.393 . S
C1250 H1242 0.950 . S
C1250 C1248 1.391 1_545 S
C1250 C1251 1.400 . S
C1251 C1250 1.400 . S
C1251 C1252 1.398 . S
C1251 C1257 1.491 . S
C1252 H1243 0.950 . S
C1252 C1251 1.398 . S
C1252 C1253 1.391 1_545 S
C1253 H1241 0.950 . S
C1253 C1249 1.393 . S
C1253 C1252 1.391 1_565 S
C1254 H1244 0.950 . S
C1254 C1255 1.386 . S
C1254 C1256 1.391 . S
C1255 C1254 1.386 . S
C1255 C1259 1.393 . S
C1256 H1245 0.950 . S
C1256 C1254 1.391 . S
C1256 C1257 1.400 . S
C1257 C1251 1.491 . S
C1257 C1256 1.400 . S
C1257 C1258 1.398 . S
C1258 H1246 0.950 . S
C1258 C1257 1.398 . S
C1258 C1259 1.391 . S
C1259 H1247 0.950 . S
C1259 C1255 1.393 . S
C1259 C1258 1.391 . S
H1260 C1268 0.950 . S
H1261 C1273 0.950 . S
H1262 C1270 0.950 . S
H1263 C1272 0.950 . S
H1264 C1274 0.950 . S
H1265 C1276 0.950 . S
H1266 C1278 0.950 . S
H1267 C1279 0.950 . S
C1268 H1260 0.950 . S
C1268 C1269 1.386 . S
C1268 C1270 1.391 . S
C1269 C1268 1.386 . S
C1269 C1273 1.393 . S
C1270 H1262 0.950 . S
C1270 C1268 1.391 . S
C1270 C1271 1.400 . S
C1271 C1270 1.400 . S
C1271 C1272 1.398 . S
C1271 C1277 1.491 . S
C1272 H1263 0.950 . S
C1272 C1271 1.398 . S
C1272 C1273 1.391 . S
C1273 H1261 0.950 . S
C1273 C1269 1.393 . S
C1273 C1272 1.391 . S
C1274 H1264 0.950 . S
C1274 C1275 1.386 . S
C1274 C1276 1.391 1_545 S
C1275 C1274 1.386 . S
C1275 C1279 1.393 . S
C1276 H1265 0.950 . S
C1276 C1274 1.391 1_565 S
C1276 C1277 1.400 . S
C1277 C1271 1.491 . S
C1277 C1276 1.400 . S
C1277 C1278 1.398 . S
C1278 H1266 0.950 . S
C1278 C1277 1.398 . S
C1278 C1279 1.391 1_565 S
C1279 H1267 0.950 . S
C1279 C1275 1.393 . S
C1279 C1278 1.391 1_545 S
C329 C2 1.451 . S
C335 C182 1.456 . S
C349 C22 1.445 . S
C355 C162 1.451 . S
C369 C222 1.457 . S
C375 C42 1.455 . S
C389 C62 1.440 . S
C395 C202 1.447 . S
C409 C264 1.429 . S
C415 C84 1.433 . S
C429 C244 1.451 . S
C435 C104 1.456 . S
C449 C304 1.431 . S
C455 C124 1.437 . S
C469 C144 1.430 . S
C475 C284 1.435 . S
C489 C59 1.568 . S
C495 C19 1.566 . S
C509 C79 1.569 . S
C515 C39 1.558 . S
C529 C138 1.559 . S
C535 C98 1.567 . S
C549 C118 1.569 . S
C555 C158 1.564 . S
C569 C219 1.562 . S
C575 C179 1.570 . S
C589 C239 1.558 . S
C595 C199 1.571 . S
C609 C258 1.568 . S
C615 C298 1.565 . S
C629 C278 1.571 . S
C635 C318 1.561 . S
C649 C119 1.548 . S
C655 C18 1.551 . S
C669 C99 1.558 . S
C675 C38 1.541 . S
C689 C58 1.557 . S
C695 C159 1.542 . S
C709 C139 1.541 . S
C715 C78 1.558 . S
C729 C178 1.542 . S
C735 C279 1.557 . S
C749 C259 1.547 . S
C755 C198 1.552 . S
C769 C218 1.541 . S
C775 C319 1.558 . S
C789 C299 1.541 . S
C795 C238 1.558 . S
C809 C24 1.547 . S
C815 C4 1.553 . S
C829 C64 1.549 . S
C835 C44 1.555 . S
C849 C102 1.559 . S
C855 C82 1.552 . S
C869 C122 1.563 . S
C875 C142 1.560 . S
C889 C184 1.563 . S
C895 C164 1.562 . S
C909 C224 1.562 . S
C915 C204 1.558 . S
C929 C242 1.556 . S
C935 C262 1.550 . S
C949 C282 1.563 . S
C955 C302 1.560 . S
C969 C12 1.674 . S
C975 C9 1.674 . S
C989 C32 1.666 . S
C995 C29 1.666 . S
C1009 C52 1.669 . S
C1015 C49 1.669 . S
C1029 C69 1.676 . S
C1035 C72 1.676 . S
C1049 C89 1.674 . S
C1055 C92 1.674 . S
C1069 C112 1.670 . S
C1075 C109 1.670 . S
C1089 C129 1.665 . S
C1095 C132 1.665 . S
C1109 C149 1.666 . S
C1115 C152 1.666 . S
C1129 C169 1.669 . S
C1135 C172 1.669 . S
C1149 C192 1.668 . S
C1155 C189 1.668 . S
C1169 C209 1.671 . S
C1175 C212 1.671 . S
C1189 C229 1.668 . S
C1195 C232 1.668 . S
C1209 C249 1.669 . S
C1215 C252 1.669 . S
C1229 C269 1.673 . S
C1235 C272 1.673 . S
C1249 C292 1.676 . S
C1255 C289 1.676 . S
C1269 C309 1.673 . S
C1275 C312 1.673 . S
