# Generated by pormake.
# Topology mdf, (4)-cn, num edge types: 1
# Building blocks:
#     Node 0, Type 0, BuildingBlock: QUQFOY_clean_sbu_1, # of connection points: 4
#     Node 1, Type 0, BuildingBlock: QUQFOY_clean_sbu_1, # of connection points: 4
#     Node 2, Type 0, BuildingBlock: QUQFOY_clean_sbu_1, # of connection points: 4
#     Node 3, Type 0, BuildingBlock: QUQFOY_clean_sbu_1, # of connection points: 4
#     Node 4, Type 0, BuildingBlock: QUQFOY_clean_sbu_1, # of connection points: 4
#     Node 5, Type 0, BuildingBlock: QUQFOY_clean_sbu_1, # of connection points: 4
#     Node 6, Type 0, BuildingBlock: QUQFOY_clean_sbu_1, # of connection points: 4
#     Node 7, Type 0, BuildingBlock: QUQFOY_clean_sbu_1, # of connection points: 4
#     Edge 8, Type (0, 0), BuildingBlock: ZUJKAS_clean_linker_0, # of connection points: 2
#     Edge 9, Type (0, 0), BuildingBlock: ZUJKAS_clean_linker_0, # of connection points: 2
#     Edge 10, Type (0, 0), BuildingBlock: ZUJKAS_clean_linker_0, # of connection points: 2
#     Edge 11, Type (0, 0), BuildingBlock: ZUJKAS_clean_linker_0, # of connection points: 2
#     Edge 12, Type (0, 0), BuildingBlock: ZUJKAS_clean_linker_0, # of connection points: 2
#     Edge 13, Type (0, 0), BuildingBlock: ZUJKAS_clean_linker_0, # of connection points: 2
#     Edge 14, Type (0, 0), BuildingBlock: ZUJKAS_clean_linker_0, # of connection points: 2
#     Edge 15, Type (0, 0), BuildingBlock: ZUJKAS_clean_linker_0, # of connection points: 2
#     Edge 16, Type (0, 0), BuildingBlock: ZUJKAS_clean_linker_0, # of connection points: 2
#     Edge 17, Type (0, 0), BuildingBlock: ZUJKAS_clean_linker_0, # of connection points: 2
#     Edge 18, Type (0, 0), BuildingBlock: ZUJKAS_clean_linker_0, # of connection points: 2
#     Edge 19, Type (0, 0), BuildingBlock: ZUJKAS_clean_linker_0, # of connection points: 2
#     Edge 20, Type (0, 0), BuildingBlock: ZUJKAS_clean_linker_0, # of connection points: 2
#     Edge 21, Type (0, 0), BuildingBlock: ZUJKAS_clean_linker_0, # of connection points: 2
#     Edge 22, Type (0, 0), BuildingBlock: ZUJKAS_clean_linker_0, # of connection points: 2
#     Edge 23, Type (0, 0), BuildingBlock: ZUJKAS_clean_linker_0, # of connection points: 2
# Relax obj value: 0.009
# Max RMSD: 0.069
# Mean RMSD: 0.069
data_MOF--net-mdf--node1-QUQFOY_clean_sbu_1--edge1-ZUJKAS_clean_linker_0
_symmetry_space_group_name_H-M    P1
_symmetry_Int_Tables_number       1
_symmetry_cell_setting            triclinic
loop_
_symmetry_equiv_pos_as_xyz
'x, y, z'
_cell_length_a     50.861426
_cell_length_b     50.728683
_cell_length_c     15.686027
_cell_angle_alpha  90.105288
_cell_angle_beta   90.10539
_cell_angle_gamma 89.983375
loop_
_atom_site_label
_atom_site_type_symbol
_atom_site_fract_x
_atom_site_fract_y
_atom_site_fract_z
_atom_type_partial_charge
O0 O 0.29701 0.50422 0.34218 0.0
Cd1 Cd 0.26693 0.52741 0.29542 0.0
Cd2 Cd 0.25375 0.52831 0.46089 0.0
O3 O 0.29014 0.51072 0.47925 0.0
O4 O 0.28031 0.53996 0.18311 0.0
O5 O 0.27214 0.56678 0.29125 0.0
C6 C 0.28089 0.56345 0.21467 0.0
C7 C 0.23979 0.56464 0.54113 0.0
C8 C 0.30383 0.50083 0.41937 0.0
C9 C 0.21705 0.50012 0.33914 0.0
O10 O 0.22376 0.50453 0.41601 0.0
O11 O 0.23077 0.50927 0.2782 0.0
O12 O 0.2412 0.54138 0.57386 0.0
O13 O 0.24751 0.56756 0.46327 0.0
O14 O 0.51486 0.72393 0.66233 0.0
Cd15 Cd 0.49209 0.75406 0.71117 0.0
Cd16 Cd 0.49138 0.76822 0.54624 0.0
O17 O 0.50892 0.73184 0.52557 0.0
O18 O 0.47989 0.74011 0.82317 0.0
O19 O 0.4528 0.74907 0.71662 0.0
C20 C 0.45634 0.73986 0.79253 0.0
C21 C 0.45498 0.78279 0.468 0.0
C22 C 0.51845 0.71761 0.58477 0.0
C23 C 0.51963 0.80419 0.67019 0.0
O24 O 0.51513 0.79797 0.59295 0.0
O25 O 0.51051 0.79007 0.73031 0.0
O26 O 0.4781 0.78158 0.43454 0.0
O27 O 0.45225 0.77445 0.54529 0.0
O28 O 0.29686 0.01926 0.91825 0.0
Cd29 Cd 0.2666 0.9959 0.9627 0.0
Cd30 Cd 0.25384 0.99513 0.79685 0.0
O31 O 0.29028 0.0128 0.78085 0.0
O32 O 0.27864 0.98285 0.07627 0.0
O33 O 0.2725 0.95663 0.96521 0.0
C34 C 0.28 0.95955 0.04343 0.0
C35 C 0.24024 0.95859 0.71679 0.0
C36 C 0.30383 0.02268 0.84126 0.0
C37 C 0.21666 0.02307 0.91643 0.0
O38 O 0.22364 0.01889 0.83979 0.0
O39 O 0.23021 0.01378 0.97771 0.0
O40 O 0.24178 0.98177 0.68349 0.0
O41 O 0.24768 0.95588 0.7951 0.0
O42 O 1.00396 0.72459 0.09311 0.0
Cd43 Cd 0.02765 0.75437 0.04698 0.0
Cd44 Cd 0.02829 0.76811 0.21197 0.0
O45 O 0.01036 0.73183 0.2302 0.0
O46 O 0.04076 0.74138 0.93458 0.0
O47 O 0.06675 0.74813 0.04566 0.0
C48 C 0.06392 0.74006 0.96797 0.0
C49 C 0.06472 0.78217 0.2913 0.0
C50 C 1.0004 0.71804 0.17044 0.0
C51 C 1.00085 0.80485 0.0895 0.0
O52 O 1.00484 0.79825 0.16661 0.0
O53 O 0.01015 0.79088 0.02918 0.0
O54 O 0.04157 0.78097 0.32453 0.0
O55 O 0.06746 0.77406 0.21366 0.0
O56 O 0.79684 1.00412 0.84037 0.0
Cd57 Cd 0.76687 0.02786 0.79545 0.0
Cd58 Cd 0.75367 0.02808 0.96052 0.0
O59 O 0.79013 1.01056 0.97762 0.0
O60 O 0.77939 0.04121 0.68291 0.0
O61 O 0.77306 0.06708 0.79461 0.0
C62 C 0.78083 0.06437 0.71668 0.0
C63 C 0.73976 0.06439 0.0409 0.0
C64 C 0.80371 1.00064 0.91751 0.0
C65 C 0.71687 1.0005 0.83867 0.0
O66 O 0.72374 1.00423 0.91573 0.0
O67 O 0.73043 1.01026 0.77834 0.0
O68 O 0.74126 0.04113 0.07369 0.0
O69 O 0.74736 0.0673 0.96291 0.0
O70 O 0.01501 0.2246 0.16426 0.0
Cd71 Cd 0.99165 0.25468 0.21063 0.0
Cd72 Cd 0.99147 0.2686 0.04557 0.0
O73 O 1.00926 0.23224 0.02719 0.0
O74 O 0.97889 0.24193 0.32356 0.0
O75 O 0.95249 0.24868 0.21361 0.0
C76 C 0.95558 0.24072 0.29121 0.0
C77 C 0.95528 0.28259 0.96515 0.0
C78 C 0.0188 0.21819 0.08685 0.0
C79 C 0.01892 0.30507 0.16902 0.0
O80 O 0.01495 0.29865 0.09167 0.0
O81 O 1.0095 0.29103 0.22882 0.0
O82 O 0.97854 0.28137 0.93272 0.0
O83 O 0.9523 0.27463 0.04276 0.0
O84 O 0.79579 0.51871 0.41566 0.0
Cd85 Cd 0.76579 0.49506 0.46035 0.0
Cd86 Cd 0.75301 0.49466 0.29427 0.0
O87 O 0.7891 0.51303 0.2779 0.0
O88 O 0.77826 0.48173 0.57313 0.0
O89 O 0.77193 0.45584 0.46139 0.0
C90 C 0.7797 0.45856 0.53942 0.0
C91 C 0.73971 0.4582 0.21351 0.0
C92 C 0.80264 0.52265 0.3388 0.0
C93 C 0.71562 0.52185 0.41572 0.0
O94 O 0.72256 0.51774 0.33902 0.0
O95 O 0.72934 0.51269 0.47682 0.0
O96 O 0.74013 0.4816 0.18153 0.0
O97 O 0.74818 0.45523 0.29063 0.0
O98 O 0.50463 0.22529 0.5927 0.0
Cd99 Cd 0.52835 0.25505 0.5465 0.0
Cd100 Cd 0.52854 0.26878 0.71204 0.0
O101 O 0.50979 0.2329 0.73019 0.0
O102 O 0.54143 0.24191 0.43425 0.0
O103 O 0.56746 0.24878 0.54515 0.0
C104 C 0.56461 0.24062 0.46758 0.0
C105 C 0.56471 0.28228 0.79342 0.0
C106 C 0.50036 0.21897 0.66986 0.0
C107 C 0.50183 0.30573 0.58786 0.0
O108 O 0.50589 0.29925 0.66502 0.0
O109 O 0.51085 0.29152 0.5277 0.0
O110 O 0.54125 0.28222 0.82447 0.0
O111 O 0.5679 0.27332 0.71695 0.0
H112 H 0.46059 0.70678 0.92811 0.0
H113 H 0.42578 0.6819 0.99762 0.0
H114 H 0.36798 0.72009 0.83838 0.0
H115 H 0.40312 0.7441 0.76502 0.0
H116 H 0.38527 0.69326 0.08906 0.0
H117 H 0.34922 0.64555 0.79253 0.0
H118 H 0.37868 0.66523 0.79507 0.0
H119 H 0.34688 0.6808 0.79047 0.0
C120 C 0.44046 0.71003 0.90802 0.0
C121 C 0.43464 0.72726 0.84049 0.0
C122 C 0.42051 0.69575 0.94795 0.0
C123 C 0.3942 0.69858 0.9222 0.0
C124 C 0.38816 0.71684 0.85766 0.0
H125 H 0.27734 0.6167 0.24508 0.0
H126 H 0.3012 0.65205 0.17204 0.0
C127 C 0.40824 0.73078 0.81632 0.0
C128 C 0.37353 0.68186 0.96233 0.0
H129 H 0.32627 0.63584 0.91883 0.0
C130 C 0.37231 0.68076 0.05177 0.0
C131 C 0.35673 0.6653 0.91384 0.0
C132 C 0.35805 0.66402 0.81776 0.0
C133 C 0.35555 0.66306 0.094 0.0
C134 C 0.33854 0.64672 0.04552 0.0
C135 C 0.33912 0.64846 0.95612 0.0
C136 C 0.32184 0.62597 0.08545 0.0
C137 C 0.35738 0.66114 0.18988 0.0
C138 C 0.32421 0.5997 0.05808 0.0
C139 C 0.31001 0.57965 0.0979 0.0
C140 C 0.29333 0.58531 0.16689 0.0
C141 C 0.29024 0.6117 0.19264 0.0
C142 C 0.30409 0.63189 0.15145 0.0
H143 H 0.37607 0.66961 0.21447 0.0
H144 H 0.34096 0.67236 0.21894 0.0
H145 H 0.35607 0.64034 0.21132 0.0
H146 H 0.33766 0.59453 0.00724 0.0
H147 H 0.31291 0.55954 0.07655 0.0
H148 H 0.455 0.80089 0.3042 0.0
H149 H 0.42107 0.82703 0.23336 0.0
H150 H 0.37142 0.8202 0.4546 0.0
H151 H 0.40526 0.79376 0.52615 0.0
H152 H 0.34437 0.81542 0.2906 0.0
H153 H 0.40815 0.90403 0.31383 0.0
H154 H 0.42327 0.87599 0.26385 0.0
H155 H 0.41432 0.87446 0.3745 0.0
C156 C 0.43674 0.8046 0.33756 0.0
C157 C 0.43296 0.79544 0.42125 0.0
C158 C 0.41739 0.81963 0.29698 0.0
C159 C 0.39393 0.82592 0.33927 0.0
C160 C 0.38945 0.81565 0.42101 0.0
H161 H 0.29586 0.95977 0.20977 0.0
H162 H 0.32065 0.92572 0.28488 0.0
C163 C 0.40882 0.80055 0.46178 0.0
C164 C 0.37496 0.84459 0.3002 0.0
H165 H 0.36911 0.90828 0.23288 0.0
C166 C 0.34969 0.83575 0.27811 0.0
C167 C 0.38185 0.8712 0.28515 0.0
C168 C 0.40828 0.88214 0.31117 0.0
C169 C 0.33129 0.85274 0.23956 0.0
C170 C 0.33851 0.87914 0.22216 0.0
C171 C 0.36362 0.88802 0.2458 0.0
C172 C 0.32051 0.89811 0.17961 0.0
C173 C 0.30421 0.84244 0.21884 0.0
C174 C 0.31177 0.89377 0.09575 0.0
C175 C 0.29747 0.91324 0.05251 0.0
C176 C 0.29186 0.9375 0.09219 0.0
C177 C 0.29985 0.94136 0.1772 0.0
C178 C 0.31406 0.92191 0.2203 0.0
H179 H 0.29958 0.82432 0.25556 0.0
H180 H 0.28897 0.85754 0.2324 0.0
H181 H 0.30321 0.83748 0.14998 0.0
H182 H 0.31692 0.87578 0.06246 0.0
H183 H 0.29175 0.90969 0.98695 0.0
H184 H 0.06459 0.80017 0.45548 0.0
H185 H 0.09853 0.82615 0.52712 0.0
H186 H 0.14842 0.81915 0.30641 0.0
H187 H 0.11456 0.79287 0.23407 0.0
H188 H 0.17524 0.81427 0.47097 0.0
H189 H 0.11178 0.90312 0.44722 0.0
H190 H 0.09652 0.87513 0.49671 0.0
H191 H 0.10563 0.87356 0.38619 0.0
C192 C 0.08291 0.8038 0.42242 0.0
C193 C 0.08675 0.79464 0.33863 0.0
C194 C 0.10226 0.81874 0.46346 0.0
C195 C 0.12579 0.82494 0.42154 0.0
C196 C 0.13033 0.81466 0.33972 0.0
H197 H 0.22442 0.95845 0.55042 0.0
H198 H 0.19944 0.92436 0.47582 0.0
C199 C 0.11096 0.79966 0.2985 0.0
C200 C 0.14477 0.84356 0.461 0.0
H201 H 0.15082 0.90733 0.52814 0.0
C202 C 0.16999 0.83464 0.48337 0.0
C203 C 0.13797 0.87021 0.47595 0.0
C204 C 0.1116 0.88123 0.44968 0.0
C205 C 0.18842 0.85161 0.52202 0.0
C206 C 0.1813 0.87806 0.53921 0.0
C207 C 0.15623 0.88701 0.51538 0.0
C208 C 0.19937 0.89705 0.58157 0.0
C209 C 0.21544 0.84122 0.54303 0.0
C210 C 0.20806 0.89288 0.66554 0.0
C211 C 0.22246 0.91238 0.7085 0.0
C212 C 0.22824 0.93648 0.6684 0.0
C213 C 0.2203 0.94016 0.5833 0.0
C214 C 0.20598 0.92069 0.54049 0.0
H215 H 0.22001 0.82297 0.50666 0.0
H216 H 0.23076 0.8562 0.52922 0.0
H217 H 0.21641 0.83647 0.61198 0.0
H218 H 0.20279 0.87502 0.69911 0.0
H219 H 0.22814 0.90898 0.77414 0.0
H220 H 0.06366 0.72218 0.80367 0.0
H221 H 0.0976 0.69635 0.73178 0.0
H222 H 0.14766 0.70317 0.95273 0.0
H223 H 0.11381 0.72928 0.02532 0.0
H224 H 0.17433 0.70838 0.78852 0.0
H225 H 0.11118 0.61931 0.81027 0.0
H226 H 0.0958 0.64734 0.76116 0.0
H227 H 0.10496 0.64876 0.87177 0.0
C228 C 0.08201 0.71853 0.83674 0.0
C229 C 0.0859 0.72759 0.92065 0.0
C230 C 0.10136 0.70368 0.79556 0.0
C231 C 0.12495 0.69749 0.83745 0.0
C232 C 0.12953 0.70766 0.91943 0.0
H233 H 0.22386 0.56445 0.70715 0.0
H234 H 0.19878 0.59836 0.78196 0.0
C235 C 0.11015 0.72256 0.9608 0.0
C236 C 0.14396 0.67899 0.79774 0.0
H237 H 0.15018 0.61536 0.72947 0.0
C238 C 0.16914 0.68802 0.7757 0.0
C239 C 0.13724 0.65235 0.78226 0.0
C240 C 0.11093 0.6412 0.80819 0.0
C241 C 0.18761 0.67117 0.73688 0.0
C242 C 0.18057 0.64473 0.71916 0.0
C243 C 0.15553 0.63567 0.74264 0.0
C244 C 0.19869 0.62586 0.67672 0.0
C245 C 0.21459 0.68168 0.71629 0.0
C246 C 0.2074 0.63019 0.59296 0.0
C247 C 0.22187 0.61079 0.54989 0.0
C248 C 0.22769 0.58664 0.58964 0.0
C249 C 0.21971 0.58279 0.67453 0.0
C250 C 0.20534 0.60216 0.71746 0.0
H251 H 0.21911 0.69986 0.75306 0.0
H252 H 0.22996 0.66671 0.72988 0.0
H253 H 0.2155 0.68657 0.64744 0.0
H254 H 0.20211 0.6481 0.55963 0.0
H255 H 0.22758 0.61433 0.48442 0.0
H256 H 0.79779 0.06449 0.55158 0.0
H257 H 0.82349 0.09851 0.47979 0.0
H258 H 0.81827 0.14803 0.7027 0.0
H259 H 0.79226 0.11411 0.77516 0.0
H260 H 0.81266 0.17547 0.54048 0.0
H261 H 0.9008 0.11092 0.55485 0.0
H262 H 0.87243 0.0961 0.50604 0.0
H263 H 0.87167 0.10471 0.61718 0.0
C264 C 0.80176 0.08275 0.58511 0.0
C265 C 0.79317 0.08646 0.66951 0.0
C266 C 0.81654 0.10214 0.54398 0.0
C267 C 0.82316 0.12559 0.58644 0.0
C268 C 0.81345 0.13001 0.66896 0.0
H269 H 0.95629 0.22388 0.45634 0.0
H270 H 0.92254 0.19869 0.53085 0.0
C271 C 0.7986 0.1106 0.71025 0.0
C272 C 0.84162 0.14459 0.54671 0.0
H273 H 0.90479 0.15037 0.47592 0.0
C274 C 0.83282 0.17007 0.52644 0.0
C275 C 0.86802 0.13759 0.52963 0.0
C276 C 0.87896 0.11093 0.55364 0.0
C277 C 0.84965 0.18856 0.48789 0.0
C278 C 0.87584 0.18126 0.46862 0.0
C279 C 0.88468 0.15592 0.49027 0.0
C280 C 0.89468 0.19943 0.42651 0.0
C281 C 0.83942 0.21586 0.46926 0.0
C282 C 0.8901 0.20864 0.34338 0.0
C283 C 0.90941 0.22316 0.30047 0.0
C284 C 0.93373 0.22855 0.33975 0.0
C285 C 0.93783 0.22008 0.42408 0.0
C286 C 0.91855 0.20563 0.46683 0.0
H287 H 0.82148 0.22041 0.50684 0.0
H288 H 0.85459 0.231 0.48335 0.0
H289 H 0.83429 0.21724 0.40062 0.0
H290 H 0.87204 0.20369 0.31036 0.0
H291 H 0.90568 0.22926 0.23543 0.0
H292 H 0.90532 0.29366 0.02066 0.0
H293 H 0.8715 0.31917 0.94587 0.0
H294 H 0.92195 0.32494 0.7261 0.0
H295 H 0.95587 0.29979 0.80042 0.0
H296 H 0.90382 0.3731 0.78251 0.0
H297 H 0.82116 0.30244 0.74773 0.0
H298 H 0.834 0.30536 0.85415 0.0
H299 H 0.85437 0.29206 0.7711 0.0
C300 C 0.90901 0.29992 0.9558 0.0
C301 C 0.93335 0.29475 0.91666 0.0
C302 C 0.8896 0.31441 0.91297 0.0
C303 C 0.89411 0.32381 0.8301 0.0
C304 C 0.91801 0.31783 0.78991 0.0
H305 H 0.79147 0.40894 0.48076 0.0
H306 H 0.81758 0.37509 0.55355 0.0
C307 C 0.93739 0.30342 0.83256 0.0
C308 C 0.87515 0.34194 0.78815 0.0
H309 H 0.81202 0.34735 0.71473 0.0
C310 C 0.88377 0.36742 0.76748 0.0
C311 C 0.84906 0.33445 0.768 0.0
C312 C 0.83907 0.30702 0.7856 0.0
C313 C 0.86701 0.38571 0.72818 0.0
C314 C 0.8407 0.37851 0.71016 0.0
C315 C 0.83211 0.3529 0.7295 0.0
C316 C 0.82213 0.39743 0.67023 0.0
C317 C 0.87773 0.41251 0.70517 0.0
C318 C 0.81527 0.42077 0.71281 0.0
C319 C 0.80044 0.44013 0.67148 0.0
C320 C 0.79203 0.43647 0.58677 0.0
C321 C 0.79767 0.41241 0.54591 0.0
C322 C 0.81258 0.39303 0.58739 0.0
H323 H 0.89957 0.41272 0.70455 0.0
H324 H 0.87048 0.41884 0.6416 0.0
H325 H 0.87101 0.42717 0.753 0.0
H326 H 0.82209 0.42436 0.77726 0.0
H327 H 0.79629 0.45832 0.70511 0.0
H328 H 0.7431 0.40521 0.24745 0.0
H329 H 0.72042 0.36922 0.17308 0.0
H330 H 0.68526 0.4255 1.00125 0.0
H331 H 0.70878 0.4611 0.07213 0.0
H332 H 0.67131 0.3591 0.16092 0.0
H333 H 0.70629 0.37211 0.83195 0.0
H334 H 0.72137 0.38906 0.92059 0.0
H335 H 0.69257 0.40251 0.86912 0.0
C336 C 0.73095 0.40978 0.19265 0.0
C337 C 0.72794 0.43598 0.16523 0.0
C338 C 0.71793 0.38921 0.15027 0.0
C339 C 0.70145 0.39445 0.08016 0.0
C340 C 0.69854 0.42066 0.0529 0.0
H341 H 0.56147 0.31419 0.93257 0.0
H342 H 0.59687 0.33785 1.00375 0.0
C343 C 0.71189 0.44111 0.09411 0.0
C344 C 0.68559 0.37306 0.03979 0.0
H345 H 0.66405 0.35026 0.84694 0.0
C346 C 0.67012 0.35687 0.09224 0.0
C347 C 0.68437 0.36947 0.95024 0.0
C348 C 0.70231 0.38403 0.89001 0.0
C349 C 0.65248 0.33839 0.0577 0.0
C350 C 0.64935 0.33673 0.96805 0.0
C351 C 0.66593 0.35179 0.91566 0.0
C352 C 0.62804 0.32084 0.92742 0.0
C353 C 0.63745 0.32088 0.11811 0.0
C354 C 0.63344 0.30387 0.85857 0.0
C355 C 0.61299 0.29077 0.81597 0.0
C356 C 0.58677 0.29419 0.84193 0.0
C357 C 0.58148 0.31076 0.91176 0.0
C358 C 0.60181 0.32419 0.95315 0.0
H359 H 0.649 0.31706 0.17702 0.0
H360 H 0.61902 0.33094 0.13746 0.0
H361 H 0.63239 0.30167 0.08831 0.0
H362 H 0.65346 0.30106 0.83693 0.0
H363 H 0.61769 0.27822 0.76216 0.0
H364 H 0.7278 0.11416 0.98448 0.0
H365 H 0.70245 0.14801 0.05977 0.0
H366 H 0.69869 0.09812 0.28167 0.0
H367 H 0.72366 0.06414 0.20679 0.0
H368 H 0.65021 0.11551 0.2289 0.0
H369 H 0.71971 0.1995 0.25383 0.0
H370 H 0.71611 0.1863 0.14808 0.0
H371 H 0.73035 0.16628 0.23051 0.0
C372 C 0.72202 0.11061 0.04988 0.0
C373 C 0.72769 0.08639 0.08949 0.0
C374 C 0.70763 0.13005 0.093 0.0
C375 C 0.69884 0.1257 0.17665 0.0
C376 C 0.70532 0.10194 0.21725 0.0
H377 H 0.6144 0.22954 0.52518 0.0
H378 H 0.64814 0.20324 0.45271 0.0
C379 C 0.71963 0.08252 0.17428 0.0
C380 C 0.68081 0.14467 0.21913 0.0
H381 H 0.67496 0.20831 0.28892 0.0
C382 C 0.65569 0.13576 0.24229 0.0
C383 C 0.68802 0.17104 0.23713 0.0
C384 C 0.7151 0.18137 0.21688 0.0
C385 C 0.63748 0.15254 0.28186 0.0
C386 C 0.64438 0.17913 0.29761 0.0
C387 C 0.66964 0.188 0.2759 0.0
C388 C 0.62546 0.19774 0.33727 0.0
C389 C 0.61106 0.14157 0.30742 0.0
C390 C 0.60194 0.20411 0.29523 0.0
C391 C 0.58265 0.21905 0.33636 0.0
C392 C 0.58655 0.22806 0.42033 0.0
C393 C 0.61075 0.22287 0.46061 0.0
C394 C 0.63006 0.20785 0.41931 0.0
H395 H 0.61117 0.11967 0.30941 0.0
H396 H 0.60508 0.14914 0.37097 0.0
H397 H 0.59603 0.14782 0.26024 0.0
H398 H 0.59817 0.19683 0.2314 0.0
H399 H 0.56434 0.22283 0.30318 0.0
H400 H 0.33536 0.47466 0.30643 0.0
H401 H 0.37121 0.44421 0.33795 0.0
H402 H 0.36123 0.45864 0.60693 0.0
H403 H 0.32485 0.48883 0.57616 0.0
H404 H 0.41854 0.45033 0.42157 0.0
H405 H 0.35485 0.37881 0.59155 0.0
H406 H 0.34164 0.40554 0.52902 0.0
H407 H 0.35398 0.41159 0.63477 0.0
C408 C 0.34079 0.47149 0.37241 0.0
C409 C 0.327 0.48404 0.43885 0.0
C410 C 0.36136 0.45408 0.39025 0.0
C411 C 0.3686 0.44876 0.47479 0.0
C412 C 0.35557 0.46198 0.54124 0.0
H413 H 0.47987 0.33997 0.702 0.0
H414 H 0.44935 0.37598 0.67315 0.0
C415 C 0.33489 0.47937 0.5235 0.0
C416 C 0.38938 0.42896 0.49293 0.0
H417 H 0.40049 0.37002 0.5916 0.0
C418 C 0.41461 0.43276 0.45872 0.0
C419 C 0.38418 0.40595 0.54097 0.0
C420 C 0.35715 0.40001 0.57558 0.0
C421 C 0.43487 0.41436 0.47231 0.0
C422 C 0.42964 0.39143 0.52052 0.0
C423 C 0.40446 0.38768 0.55491 0.0
C424 C 0.4499 0.37094 0.53627 0.0
C425 C 0.46178 0.41977 0.43615 0.0
C426 C 0.46052 0.3562 0.4687 0.0
C427 C 0.47805 0.33549 0.48491 0.0
C428 C 0.48515 0.32906 0.56911 0.0
C429 C 0.47487 0.3443 0.63636 0.0
C430 C 0.45737 0.36492 0.62008 0.0
H431 H 0.46424 0.44084 0.4187 0.0
H432 H 0.47739 0.41429 0.48245 0.0
H433 H 0.46459 0.40774 0.37773 0.0
H434 H 0.45467 0.36022 0.40358 0.0
H435 H 0.48548 0.32411 0.43166 0.0
H436 H 0.68582 0.97413 0.9523 0.0
H437 H 0.65029 0.94321 0.9214 0.0
H438 H 0.65969 0.9574 0.65225 0.0
H439 H 0.69572 0.98806 0.68237 0.0
H440 H 0.60275 0.94866 0.83832 0.0
H441 H 0.66705 0.87767 0.66751 0.0
H442 H 0.68002 0.90462 0.72989 0.0
H443 H 0.66752 0.9104 0.62425 0.0
C444 C 0.68032 0.97081 0.88642 0.0
C445 C 0.69385 0.98344 0.81974 0.0
C446 C 0.65994 0.95312 0.86894 0.0
C447 C 0.65265 0.9476 0.7845 0.0
C448 C 0.6654 0.9609 0.71784 0.0
H449 H 0.54206 0.83811 0.55639 0.0
H450 H 0.57266 0.87404 0.58574 0.0
C451 C 0.68589 0.97855 0.73522 0.0
C452 C 0.63207 0.92754 0.76662 0.0
H453 H 0.62146 0.8685 0.6673 0.0
C454 C 0.60682 0.93111 0.801 0.0
C455 C 0.63747 0.90457 0.71833 0.0
C456 C 0.66453 0.89887 0.68348 0.0
C457 C 0.58673 0.91255 0.78724 0.0
C458 C 0.59214 0.88966 0.73871 0.0
C459 C 0.61734 0.88612 0.70425 0.0
C460 C 0.57202 0.86904 0.72258 0.0
C461 C 0.55977 0.91776 0.82346 0.0
C462 C 0.56137 0.85431 0.78993 0.0
C463 C 0.5438 0.83364 0.77343 0.0
C464 C 0.53667 0.82726 0.68915 0.0
C465 C 0.54707 0.84241 0.62209 0.0
C466 C 0.56461 0.86299 0.63866 0.0
H467 H 0.55713 0.93882 0.84107 0.0
H468 H 0.5442 0.91214 0.77715 0.0
H469 H 0.55707 0.90573 0.88181 0.0
H470 H 0.56718 0.85834 0.85512 0.0
H471 H 0.53629 0.82233 0.82655 0.0
H472 H 0.03365 0.19969 0.92944 0.0
H473 H 0.06405 0.16349 0.89827 0.0
H474 H 0.07313 0.1488 0.16737 0.0
H475 H 0.04257 0.18453 0.19915 0.0
H476 H 0.11588 0.16051 0.94873 0.0
H477 H 0.0606 0.07495 0.07502 0.0
H478 H 0.04529 0.10646 0.05497 0.0
H479 H 0.06415 0.10131 0.15064 0.0
C480 C 0.04181 0.18852 0.98199 0.0
C481 C 0.0356 0.19504 0.06682 0.0
C482 C 0.05921 0.16785 0.96404 0.0
C483 C 0.0706 0.15319 0.03042 0.0
C484 C 0.06415 0.15941 0.11501 0.0
H485 H 0.19668 0.03842 0.07151 0.0
H486 H 0.16048 0.06929 0.09787 0.0
C487 C 0.04677 0.18002 0.13304 0.0
C488 C 0.09062 0.13265 0.01172 0.0
H489 H 0.10596 0.06778 0.04347 0.0
C490 C 0.11359 0.14018 0.96869 0.0
C491 C 0.08769 0.10616 0.03834 0.0
C492 C 0.063 0.09663 0.0816 0.0
C493 C 0.13394 0.12211 0.95317 0.0
C494 C 0.13109 0.09568 0.98027 0.0
C495 C 0.1081 0.08807 0.02297 0.0
C496 C 0.15185 0.07572 0.96444 0.0
C497 C 0.15864 0.13161 0.90976 0.0
C498 C 0.15852 0.06862 0.8808 0.0
C499 C 0.17912 0.05102 0.86549 0.0
C500 C 0.19347 0.04006 0.93362 0.0
C501 C 0.18613 0.04654 0.01757 0.0
C502 C 0.16544 0.06416 0.03278 0.0
H503 H 0.16028 0.15344 0.91118 0.0
H504 H 0.17639 0.12305 0.94037 0.0
H505 H 0.15835 0.12522 0.84207 0.0
H506 H 0.14797 0.07697 0.8272 0.0
H507 H 0.18407 0.04638 0.80003 0.0
H508 H 0.97499 0.68556 0.05792 0.0
H509 H 0.94389 0.65032 0.08988 0.0
H510 H 0.95595 0.66291 0.35903 0.0
H511 H 0.98684 0.69861 0.32778 0.0
H512 H 0.94877 0.60353 0.18023 0.0
H513 H 0.87641 0.67045 0.33361 0.0
H514 H 0.90379 0.68252 0.27204 0.0
H515 H 0.90871 0.67155 0.37983 0.0
C516 C 0.97117 0.68082 0.12404 0.0
C517 C 0.98327 0.69515 0.19032 0.0
C518 C 0.95338 0.6606 0.14213 0.0
C519 C 0.94722 0.65429 0.22678 0.0
C520 C 0.95998 0.66784 0.29319 0.0
H521 H 0.83501 0.54672 0.45441 0.0
H522 H 0.87124 0.577 0.42633 0.0
C523 C 0.97777 0.68814 0.27519 0.0
C524 C 0.927 0.63395 0.24504 0.0
H525 H 0.86699 0.62484 0.33786 0.0
C526 C 0.93087 0.60817 0.21466 0.0
C527 C 0.9036 0.64008 0.28958 0.0
C528 C 0.89767 0.66769 0.32004 0.0
C529 C 0.91214 0.58827 0.2287 0.0
C530 C 0.88878 0.59443 0.2733 0.0
C531 C 0.88496 0.62016 0.30389 0.0
C532 C 0.86793 0.57456 0.2891 0.0
C533 C 0.91767 0.56074 0.19698 0.0
C534 C 0.85404 0.56304 0.22113 0.0
C535 C 0.8332 0.54566 0.23689 0.0
C536 C 0.82581 0.53959 0.32102 0.0
C537 C 0.84011 0.55089 0.3888 0.0
C538 C 0.86085 0.56825 0.37296 0.0
H539 H 0.93886 0.5578 0.18275 0.0
H540 H 0.91143 0.54582 0.24455 0.0
H541 H 0.90639 0.55724 0.1374 0.0
H542 H 0.85887 0.56799 0.15588 0.0
H543 H 0.82258 0.53743 0.18321 0.0
H544 H 0.32364 0.03651 0.68481 0.0
H545 H 0.35998 0.06679 0.65518 0.0
H546 H 0.37222 0.07783 0.92496 0.0
H547 H 0.33634 0.04738 0.95525 0.0
H548 H 0.3625 0.11909 0.70196 0.0
H549 H 0.44668 0.06462 0.84148 0.0
H550 H 0.41543 0.04913 0.81938 0.0
H551 H 0.41971 0.06881 0.9139 0.0
C552 C 0.3343 0.04507 0.73788 0.0
C553 C 0.32705 0.03944 0.82243 0.0
C554 C 0.35505 0.06241 0.72081 0.0
C555 C 0.36907 0.07431 0.78783 0.0
C556 C 0.36211 0.06845 0.8722 0.0
H557 H 0.48411 0.20066 0.82609 0.0
H558 H 0.45291 0.16488 0.85427 0.0
C559 C 0.34142 0.05113 0.88935 0.0
C560 C 0.38972 0.09424 0.76973 0.0
H561 H 0.45421 0.10971 0.80605 0.0
C562 C 0.38261 0.11692 0.72404 0.0
C563 C 0.41591 0.09148 0.79915 0.0
C564 C 0.42501 0.06709 0.84553 0.0
C565 C 0.4008 0.13713 0.70834 0.0
C566 C 0.42695 0.13442 0.738 0.0
C567 C 0.43413 0.11175 0.78357 0.0
C568 C 0.4471 0.15493 0.72142 0.0
C569 C 0.39173 0.16152 0.66181 0.0
C570 C 0.45466 0.1607 0.6376 0.0
C571 C 0.47244 0.18105 0.62127 0.0
C572 C 0.48314 0.19605 0.68852 0.0
C573 C 0.47621 0.18959 0.77278 0.0
C574 C 0.45839 0.16915 0.78904 0.0
H575 H 0.36996 0.16334 0.66165 0.0
H576 H 0.40024 0.17956 0.6911 0.0
H577 H 0.39842 0.16051 0.59459 0.0
H578 H 0.44654 0.14964 0.5846 0.0
H579 H 0.47744 0.18529 0.55562 0.0
H580 H 0.83537 0.97458 0.80447 0.0
H581 H 0.87104 0.94388 0.83618 0.0
H582 H 0.8605 0.95778 0.1052 0.0
H583 H 0.82439 0.98823 0.07428 0.0
H584 H 0.91834 0.94974 0.92263 0.0
H585 H 0.85352 0.87788 0.08648 0.0
H586 H 0.84074 0.90479 0.0238 0.0
H587 H 0.85245 0.91056 0.13044 0.0
C588 C 0.84066 0.97124 0.87049 0.0
C589 C 0.82679 0.98372 0.93689 0.0
C590 C 0.86111 0.95369 0.88843 0.0
C591 C 0.86812 0.94816 0.97304 0.0
C592 C 0.85503 0.96131 0.03945 0.0
H593 H 0.97782 0.83841 0.20363 0.0
H594 H 0.94737 0.87446 0.17411 0.0
C595 C 0.83448 0.97884 0.02162 0.0
C596 C 0.88873 0.9282 0.99142 0.0
H597 H 0.89914 0.86898 0.08909 0.0
C598 C 0.91417 0.93207 0.95897 0.0
C599 C 0.8832 0.90508 0.03844 0.0
C600 C 0.85596 0.89911 0.0712 0.0
C601 C 0.93432 0.91361 0.97343 0.0
C602 C 0.92877 0.89056 0.02064 0.0
C603 C 0.90337 0.88673 0.05318 0.0
C604 C 0.9489 0.86999 0.0371 0.0
C605 C 0.96147 0.91913 0.93933 0.0
C606 C 0.96002 0.85555 0.96971 0.0
C607 C 0.97749 0.83483 0.98631 0.0
C608 C 0.98406 0.82809 0.07071 0.0
C609 C 0.97324 0.84299 0.13785 0.0
C610 C 0.95579 0.86363 0.12118 0.0
H611 H 0.96408 0.94027 0.92299 0.0
H612 H 0.97677 0.91342 0.9864 0.0
H613 H 0.96463 0.90734 0.88057 0.0
H614 H 0.95461 0.85982 0.90436 0.0
H615 H 0.98535 0.82372 0.93311 0.0
H616 H 0.03392 0.32377 0.32624 0.0
H617 H 0.06442 0.35993 0.35698 0.0
H618 H 0.07339 0.37414 0.08767 0.0
H619 H 0.04272 0.33846 0.05634 0.0
H620 H 0.11616 0.36273 0.30727 0.0
H621 H 0.06115 0.44816 0.17811 0.0
H622 H 0.04577 0.41673 0.19845 0.0
H623 H 0.06469 0.42168 0.10301 0.0
C624 C 0.04207 0.33483 0.27355 0.0
C625 C 0.0358 0.32819 0.18879 0.0
C626 C 0.05954 0.35547 0.29125 0.0
C627 C 0.07093 0.36999 0.22468 0.0
C628 C 0.06441 0.36365 0.14016 0.0
H629 H 0.19747 0.4843 0.1837 0.0
H630 H 0.1613 0.4534 0.15692 0.0
C631 C 0.04696 0.34307 0.12239 0.0
C632 C 0.091 0.39051 0.24314 0.0
H633 H 0.10655 0.45525 0.20996 0.0
C634 C 0.11394 0.38301 0.28673 0.0
C635 C 0.08816 0.41695 0.21578 0.0
C636 C 0.06351 0.42647 0.17194 0.0
C637 C 0.13433 0.40106 0.30214 0.0
C638 C 0.13157 0.42743 0.27429 0.0
C639 C 0.10862 0.435 0.231 0.0
C640 C 0.15234 0.44737 0.29021 0.0
C641 C 0.15897 0.3916 0.34633 0.0
C642 C 0.15882 0.4547 0.37387 0.0
C643 C 0.1794 0.47231 0.38942 0.0
C644 C 0.19392 0.48306 0.32151 0.0
C645 C 0.18679 0.47635 0.23748 0.0
C646 C 0.16612 0.45871 0.22203 0.0
H647 H 0.16056 0.36976 0.34558 0.0
H648 H 0.17677 0.40002 0.31583 0.0
H649 H 0.15864 0.39818 0.41383 0.0
H650 H 0.14813 0.44652 0.42733 0.0
H651 H 0.18418 0.47713 0.45492 0.0
H652 H 0.53315 0.69916 0.42699 0.0
H653 H 0.56327 0.66272 0.3955 0.0
H654 H 0.57216 0.64771 0.66449 0.0
H655 H 0.54189 0.68362 0.69653 0.0
H656 H 0.61496 0.6592 0.44545 0.0
H657 H 0.55926 0.57407 0.57245 0.0
H658 H 0.54416 0.6057 0.55282 0.0
H659 H 0.56302 0.60031 0.64836 0.0
C660 C 0.5412 0.68785 0.47941 0.0
C661 C 0.53503 0.69434 0.5643 0.0
C662 C 0.55845 0.66705 0.4613 0.0
C663 C 0.56969 0.65223 0.52758 0.0
C664 C 0.56328 0.65843 0.6122 0.0
H665 H 0.69587 0.53761 0.5708 0.0
H666 H 0.65961 0.56848 0.59673 0.0
C667 C 0.54606 0.67915 0.63037 0.0
C668 C 0.58958 0.63155 0.5089 0.0
H669 H 0.60472 0.5667 0.54219 0.0
C670 C 0.61259 0.63892 0.4658 0.0
C671 C 0.58655 0.60512 0.53603 0.0
C672 C 0.5618 0.59572 0.57927 0.0
C673 C 0.6329 0.62075 0.4508 0.0
C674 C 0.62997 0.5944 0.47858 0.0
C675 C 0.60693 0.58694 0.52125 0.0
C676 C 0.65067 0.57435 0.46324 0.0
C677 C 0.65763 0.63006 0.40719 0.0
C678 C 0.65716 0.56693 0.37977 0.0
C679 C 0.67777 0.54933 0.36471 0.0
C680 C 0.69233 0.5387 0.43294 0.0
C681 C 0.68515 0.54547 0.51679 0.0
C682 C 0.66444 0.56309 0.53176 0.0
H683 H 0.65929 0.6519 0.40768 0.0
H684 H 0.67535 0.62161 0.43832 0.0
H685 H 0.65739 0.62339 0.33978 0.0
H686 H 0.64648 0.57505 0.32607 0.0
H687 H 0.68258 0.54446 0.29932 0.0
loop_
_geom_bond_atom_site_label_1
_geom_bond_atom_site_label_2
_geom_bond_distance
_geom_bond_site_symmetry_2
_ccdc_geom_bond_type
O0 Cd1 2.223 . S
O0 C8 1.315 . S
Cd1 O0 2.223 . S
Cd1 O4 2.297 . S
Cd1 O5 2.439 . S
Cd1 O11 2.240 . S
Cd2 O3 2.240 . S
Cd2 O10 2.223 . S
Cd2 O12 2.297 . S
Cd2 O13 2.439 . S
O3 Cd2 2.240 . S
O3 C8 1.279 . S
O4 Cd1 2.297 . S
O4 C6 1.247 . S
O5 Cd1 2.439 . S
O5 C6 1.208 . S
C6 O4 1.247 . S
C6 O5 1.208 . S
C7 O12 1.247 . S
C7 O13 1.208 . S
C8 O0 1.315 . S
C8 O3 1.279 . S
C9 O10 1.315 . S
C9 O11 1.279 . S
O10 Cd2 2.223 . S
O10 C9 1.315 . S
O11 Cd1 2.240 . S
O11 C9 1.279 . S
O12 Cd2 2.297 . S
O12 C7 1.247 . S
O13 Cd2 2.439 . S
O13 C7 1.208 . S
O14 Cd15 2.223 . S
O14 C22 1.315 . S
Cd15 O14 2.223 . S
Cd15 O18 2.297 . S
Cd15 O19 2.439 . S
Cd15 O25 2.240 . S
Cd16 O17 2.240 . S
Cd16 O24 2.223 . S
Cd16 O26 2.297 . S
Cd16 O27 2.439 . S
O17 Cd16 2.240 . S
O17 C22 1.279 . S
O18 Cd15 2.297 . S
O18 C20 1.247 . S
O19 Cd15 2.439 . S
O19 C20 1.208 . S
C20 O18 1.247 . S
C20 O19 1.208 . S
C21 O26 1.247 . S
C21 O27 1.208 . S
C22 O14 1.315 . S
C22 O17 1.279 . S
C23 O24 1.315 . S
C23 O25 1.279 . S
O24 Cd16 2.223 . S
O24 C23 1.315 . S
O25 Cd15 2.240 . S
O25 C23 1.279 . S
O26 Cd16 2.297 . S
O26 C21 1.247 . S
O27 Cd16 2.439 . S
O27 C21 1.208 . S
O28 Cd29 2.223 1_545 S
O28 C36 1.315 . S
Cd29 O28 2.223 1_565 S
Cd29 O32 2.297 1_556 S
Cd29 O33 2.439 . S
Cd29 O39 2.240 1_565 S
Cd30 O31 2.240 1_565 S
Cd30 O38 2.223 1_565 S
Cd30 O40 2.297 . S
Cd30 O41 2.439 . S
O31 Cd30 2.240 1_545 S
O31 C36 1.279 . S
O32 Cd29 2.297 1_554 S
O32 C34 1.247 . S
O33 Cd29 2.439 . S
O33 C34 1.208 1_556 S
C34 O32 1.247 . S
C34 O33 1.208 1_554 S
C35 O40 1.247 . S
C35 O41 1.208 . S
C36 O28 1.315 . S
C36 O31 1.279 . S
C37 O38 1.315 . S
C37 O39 1.279 . S
O38 Cd30 2.223 1_545 S
O38 C37 1.315 . S
O39 Cd29 2.240 1_545 S
O39 C37 1.279 . S
O40 Cd30 2.297 . S
O40 C35 1.247 . S
O41 Cd30 2.439 . S
O41 C35 1.208 . S
O42 Cd43 2.223 1_655 S
O42 C50 1.315 . S
Cd43 O42 2.223 1_455 S
Cd43 O46 2.297 1_554 S
Cd43 O47 2.439 . S
Cd43 O53 2.240 1_455 S
Cd44 O45 2.240 1_455 S
Cd44 O52 2.223 1_455 S
Cd44 O54 2.297 . S
Cd44 O55 2.439 . S
O45 Cd44 2.240 1_655 S
O45 C50 1.279 . S
O46 Cd43 2.297 1_556 S
O46 C48 1.247 . S
O47 Cd43 2.439 . S
O47 C48 1.208 1_554 S
C48 O46 1.247 . S
C48 O47 1.208 1_556 S
C49 O54 1.247 . S
C49 O55 1.208 . S
C50 O42 1.315 . S
C50 O45 1.279 . S
C51 O52 1.315 . S
C51 O53 1.279 . S
O52 Cd44 2.223 1_655 S
O52 C51 1.315 . S
O53 Cd43 2.240 1_655 S
O53 C51 1.279 . S
O54 Cd44 2.297 . S
O54 C49 1.247 . S
O55 Cd44 2.439 . S
O55 C49 1.208 . S
O56 Cd57 2.223 1_565 S
O56 C64 1.315 . S
Cd57 O56 2.223 1_545 S
Cd57 O60 2.297 . S
Cd57 O61 2.439 . S
Cd57 O67 2.240 1_545 S
Cd58 O59 2.240 1_545 S
Cd58 O66 2.223 1_545 S
Cd58 O68 2.297 1_556 S
Cd58 O69 2.439 . S
O59 Cd58 2.240 1_565 S
O59 C64 1.279 . S
O60 Cd57 2.297 . S
O60 C62 1.247 . S
O61 Cd57 2.439 . S
O61 C62 1.208 . S
C62 O60 1.247 . S
C62 O61 1.208 . S
C63 O68 1.247 . S
C63 O69 1.208 1_554 S
C64 O56 1.315 . S
C64 O59 1.279 . S
C65 O66 1.315 . S
C65 O67 1.279 . S
O66 Cd58 2.223 1_565 S
O66 C65 1.315 . S
O67 Cd57 2.240 1_565 S
O67 C65 1.279 . S
O68 Cd58 2.297 1_554 S
O68 C63 1.247 . S
O69 Cd58 2.439 . S
O69 C63 1.208 1_556 S
O70 Cd71 2.223 1_455 S
O70 C78 1.315 . S
Cd71 O70 2.223 1_655 S
Cd71 O74 2.297 . S
Cd71 O75 2.439 . S
Cd71 O81 2.240 1_655 S
Cd72 O73 2.240 1_655 S
Cd72 O80 2.223 1_655 S
Cd72 O82 2.297 1_554 S
Cd72 O83 2.439 . S
O73 Cd72 2.240 1_455 S
O73 C78 1.279 . S
O74 Cd71 2.297 . S
O74 C76 1.247 . S
O75 Cd71 2.439 . S
O75 C76 1.208 . S
C76 O74 1.247 . S
C76 O75 1.208 . S
C77 O82 1.247 . S
C77 O83 1.208 1_556 S
C78 O70 1.315 . S
C78 O73 1.279 . S
C79 O80 1.315 . S
C79 O81 1.279 . S
O80 Cd72 2.223 1_455 S
O80 C79 1.315 . S
O81 Cd71 2.240 1_455 S
O81 C79 1.279 . S
O82 Cd72 2.297 1_556 S
O82 C77 1.247 . S
O83 Cd72 2.439 . S
O83 C77 1.208 1_554 S
O84 Cd85 2.223 . S
O84 C92 1.315 . S
Cd85 O84 2.223 . S
Cd85 O88 2.297 . S
Cd85 O89 2.439 . S
Cd85 O95 2.240 . S
Cd86 O87 2.240 . S
Cd86 O94 2.223 . S
Cd86 O96 2.297 . S
Cd86 O97 2.439 . S
O87 Cd86 2.240 . S
O87 C92 1.279 . S
O88 Cd85 2.297 . S
O88 C90 1.247 . S
O89 Cd85 2.439 . S
O89 C90 1.208 . S
C90 O88 1.247 . S
C90 O89 1.208 . S
C91 O96 1.247 . S
C91 O97 1.208 . S
C92 O84 1.315 . S
C92 O87 1.279 . S
C93 O94 1.315 . S
C93 O95 1.279 . S
O94 Cd86 2.223 . S
O94 C93 1.315 . S
O95 Cd85 2.240 . S
O95 C93 1.279 . S
O96 Cd86 2.297 . S
O96 C91 1.247 . S
O97 Cd86 2.439 . S
O97 C91 1.208 . S
O98 Cd99 2.223 . S
O98 C106 1.315 . S
Cd99 O98 2.223 . S
Cd99 O102 2.297 . S
Cd99 O103 2.439 . S
Cd99 O109 2.240 . S
Cd100 O101 2.240 . S
Cd100 O108 2.223 . S
Cd100 O110 2.297 . S
Cd100 O111 2.439 . S
O101 Cd100 2.240 . S
O101 C106 1.279 . S
O102 Cd99 2.297 . S
O102 C104 1.247 . S
O103 Cd99 2.439 . S
O103 C104 1.208 . S
C104 O102 1.247 . S
C104 O103 1.208 . S
C105 O110 1.247 . S
C105 O111 1.208 . S
C106 O98 1.315 . S
C106 O101 1.279 . S
C107 O108 1.315 . S
C107 O109 1.279 . S
O108 Cd100 2.223 . S
O108 C107 1.315 . S
O109 Cd99 2.240 . S
O109 C107 1.279 . S
O110 Cd100 2.297 . S
O110 C105 1.247 . S
O111 Cd100 2.439 . S
O111 C105 1.208 . S
H112 C120 0.929 . S
H113 C122 0.930 . S
H114 C124 0.930 . S
H115 C127 0.929 . S
H116 C130 0.930 . S
H117 C132 0.960 . S
H118 C132 0.960 . S
H119 C132 0.960 . S
C120 H112 0.929 . S
C120 C121 1.377 . S
C120 C122 1.384 . S
C121 C120 1.377 . S
C121 C127 1.390 . S
C122 H113 0.930 . S
C122 C120 1.384 . S
C122 C123 1.372 . S
C123 C122 1.372 . S
C123 C124 1.400 . S
C123 C128 1.490 . S
C124 H114 0.930 . S
C124 C123 1.400 . S
C124 C127 1.386 . S
H125 C141 0.930 . S
H126 C142 0.931 . S
C127 H115 0.929 . S
C127 C121 1.390 . S
C127 C124 1.386 . S
C128 C123 1.490 . S
C128 C130 1.395 1_556 S
C128 C131 1.403 . S
H129 C135 0.930 . S
C130 H116 0.930 . S
C130 C128 1.395 1_554 S
C130 C133 1.403 . S
C131 C128 1.403 . S
C131 C132 1.524 . S
C131 C135 1.400 . S
C132 H117 0.960 . S
C132 H118 0.960 . S
C132 H119 0.960 . S
C132 C131 1.524 . S
C133 C130 1.403 . S
C133 C134 1.392 . S
C133 C137 1.495 . S
C134 C133 1.392 . S
C134 C135 1.385 1_554 S
C134 C136 1.478 . S
C135 H129 0.930 . S
C135 C131 1.400 . S
C135 C134 1.385 1_556 S
C136 C134 1.478 . S
C136 C138 1.381 . S
C136 C142 1.383 . S
C137 C133 1.495 . S
C137 H143 0.959 . S
C137 H144 0.961 . S
C137 H145 0.960 . S
C138 C136 1.381 . S
C138 C139 1.394 . S
C138 H146 0.930 . S
C139 C138 1.394 . S
C139 C140 1.383 . S
C139 H147 0.929 . S
C140 C139 1.383 . S
C140 C141 1.377 . S
C141 H125 0.930 . S
C141 C140 1.377 . S
C141 C142 1.379 . S
C142 H126 0.931 . S
C142 C136 1.383 . S
C142 C141 1.379 . S
H143 C137 0.959 . S
H144 C137 0.961 . S
H145 C137 0.960 . S
H146 C138 0.930 . S
H147 C139 0.929 . S
H148 C156 0.929 . S
H149 C158 0.930 . S
H150 C160 0.930 . S
H151 C163 0.929 . S
H152 C166 0.930 . S
H153 C168 0.960 . S
H154 C168 0.960 . S
H155 C168 0.960 . S
C156 H148 0.929 . S
C156 C157 1.377 . S
C156 C158 1.384 . S
C157 C156 1.377 . S
C157 C163 1.390 . S
C158 H149 0.930 . S
C158 C156 1.384 . S
C158 C159 1.372 . S
C159 C158 1.372 . S
C159 C160 1.400 . S
C159 C164 1.490 . S
C160 H150 0.930 . S
C160 C159 1.400 . S
C160 C163 1.386 . S
H161 C177 0.930 . S
H162 C178 0.931 . S
C163 H151 0.929 . S
C163 C157 1.390 . S
C163 C160 1.386 . S
C164 C159 1.490 . S
C164 C166 1.395 . S
C164 C167 1.403 . S
H165 C171 0.930 . S
C166 H152 0.930 . S
C166 C164 1.395 . S
C166 C169 1.403 . S
C167 C164 1.403 . S
C167 C168 1.524 . S
C167 C171 1.400 . S
C168 H153 0.960 . S
C168 H154 0.960 . S
C168 H155 0.960 . S
C168 C167 1.524 . S
C169 C166 1.403 . S
C169 C170 1.392 . S
C169 C173 1.495 . S
C170 C169 1.392 . S
C170 C171 1.385 . S
C170 C172 1.478 . S
C171 H165 0.930 . S
C171 C167 1.400 . S
C171 C170 1.385 . S
C172 C170 1.478 . S
C172 C174 1.381 . S
C172 C178 1.383 . S
C173 C169 1.495 . S
C173 H179 0.959 . S
C173 H180 0.961 . S
C173 H181 0.960 . S
C174 C172 1.381 . S
C174 C175 1.394 . S
C174 H182 0.930 . S
C175 C174 1.394 . S
C175 C176 1.383 . S
C175 H183 0.929 1_554 S
C176 C175 1.383 . S
C176 C177 1.377 . S
C177 H161 0.930 . S
C177 C176 1.377 . S
C177 C178 1.379 . S
C178 H162 0.931 . S
C178 C172 1.383 . S
C178 C177 1.379 . S
H179 C173 0.959 . S
H180 C173 0.961 . S
H181 C173 0.960 . S
H182 C174 0.930 . S
H183 C175 0.929 1_556 S
H184 C192 0.929 . S
H185 C194 0.930 . S
H186 C196 0.930 . S
H187 C199 0.929 . S
H188 C202 0.930 . S
H189 C204 0.960 . S
H190 C204 0.960 . S
H191 C204 0.960 . S
C192 H184 0.929 . S
C192 C193 1.377 . S
C192 C194 1.384 . S
C193 C192 1.377 . S
C193 C199 1.390 . S
C194 H185 0.930 . S
C194 C192 1.384 . S
C194 C195 1.372 . S
C195 C194 1.372 . S
C195 C196 1.400 . S
C195 C200 1.490 . S
C196 H186 0.930 . S
C196 C195 1.400 . S
C196 C199 1.386 . S
H197 C213 0.930 . S
H198 C214 0.931 . S
C199 H187 0.929 . S
C199 C193 1.390 . S
C199 C196 1.386 . S
C200 C195 1.490 . S
C200 C202 1.395 . S
C200 C203 1.403 . S
H201 C207 0.930 . S
C202 H188 0.930 . S
C202 C200 1.395 . S
C202 C205 1.403 . S
C203 C200 1.403 . S
C203 C204 1.524 . S
C203 C207 1.400 . S
C204 H189 0.960 . S
C204 H190 0.960 . S
C204 H191 0.960 . S
C204 C203 1.524 . S
C205 C202 1.403 . S
C205 C206 1.392 . S
C205 C209 1.495 . S
C206 C205 1.392 . S
C206 C207 1.385 . S
C206 C208 1.478 . S
C207 H201 0.930 . S
C207 C203 1.400 . S
C207 C206 1.385 . S
C208 C206 1.478 . S
C208 C210 1.381 . S
C208 C214 1.383 . S
C209 C205 1.495 . S
C209 H215 0.959 . S
C209 H216 0.961 . S
C209 H217 0.960 . S
C210 C208 1.381 . S
C210 C211 1.394 . S
C210 H218 0.930 . S
C211 C210 1.394 . S
C211 C212 1.383 . S
C211 H219 0.929 . S
C212 C211 1.383 . S
C212 C213 1.377 . S
C213 H197 0.930 . S
C213 C212 1.377 . S
C213 C214 1.379 . S
C214 H198 0.931 . S
C214 C208 1.383 . S
C214 C213 1.379 . S
H215 C209 0.959 . S
H216 C209 0.961 . S
H217 C209 0.960 . S
H218 C210 0.930 . S
H219 C211 0.929 . S
H220 C228 0.929 . S
H221 C230 0.930 . S
H222 C232 0.930 . S
H223 C235 0.929 1_554 S
H224 C238 0.930 . S
H225 C240 0.960 . S
H226 C240 0.960 . S
H227 C240 0.960 . S
C228 H220 0.929 . S
C228 C229 1.377 . S
C228 C230 1.384 . S
C229 C228 1.377 . S
C229 C235 1.390 . S
C230 H221 0.930 . S
C230 C228 1.384 . S
C230 C231 1.372 . S
C231 C230 1.372 . S
C231 C232 1.400 . S
C231 C236 1.490 . S
C232 H222 0.930 . S
C232 C231 1.400 . S
C232 C235 1.386 . S
H233 C249 0.930 . S
H234 C250 0.931 . S
C235 H223 0.929 1_556 S
C235 C229 1.390 . S
C235 C232 1.386 . S
C236 C231 1.490 . S
C236 C238 1.395 . S
C236 C239 1.403 . S
H237 C243 0.930 . S
C238 H224 0.930 . S
C238 C236 1.395 . S
C238 C241 1.403 . S
C239 C236 1.403 . S
C239 C240 1.524 . S
C239 C243 1.400 . S
C240 H225 0.960 . S
C240 H226 0.960 . S
C240 H227 0.960 . S
C240 C239 1.524 . S
C241 C238 1.403 . S
C241 C242 1.392 . S
C241 C245 1.495 . S
C242 C241 1.392 . S
C242 C243 1.385 . S
C242 C244 1.478 . S
C243 H237 0.930 . S
C243 C239 1.400 . S
C243 C242 1.385 . S
C244 C242 1.478 . S
C244 C246 1.381 . S
C244 C250 1.383 . S
C245 C241 1.495 . S
C245 H251 0.959 . S
C245 H252 0.961 . S
C245 H253 0.960 . S
C246 C244 1.381 . S
C246 C247 1.394 . S
C246 H254 0.930 . S
C247 C246 1.394 . S
C247 C248 1.383 . S
C247 H255 0.929 . S
C248 C247 1.383 . S
C248 C249 1.377 . S
C249 H233 0.930 . S
C249 C248 1.377 . S
C249 C250 1.379 . S
C250 H234 0.931 . S
C250 C244 1.383 . S
C250 C249 1.379 . S
H251 C245 0.959 . S
H252 C245 0.961 . S
H253 C245 0.960 . S
H254 C246 0.930 . S
H255 C247 0.929 . S
H256 C264 0.929 . S
H257 C266 0.930 . S
H258 C268 0.930 . S
H259 C271 0.929 . S
H260 C274 0.930 . S
H261 C276 0.960 . S
H262 C276 0.960 . S
H263 C276 0.960 . S
C264 H256 0.929 . S
C264 C265 1.377 . S
C264 C266 1.384 . S
C265 C264 1.377 . S
C265 C271 1.390 . S
C266 H257 0.930 . S
C266 C264 1.384 . S
C266 C267 1.372 . S
C267 C266 1.372 . S
C267 C268 1.400 . S
C267 C272 1.490 . S
C268 H258 0.930 . S
C268 C267 1.400 . S
C268 C271 1.386 . S
H269 C285 0.930 . S
H270 C286 0.931 . S
C271 H259 0.929 . S
C271 C265 1.390 . S
C271 C268 1.386 . S
C272 C267 1.490 . S
C272 C274 1.395 . S
C272 C275 1.403 . S
H273 C279 0.930 . S
C274 H260 0.930 . S
C274 C272 1.395 . S
C274 C277 1.403 . S
C275 C272 1.403 . S
C275 C276 1.524 . S
C275 C279 1.400 . S
C276 H261 0.960 . S
C276 H262 0.960 . S
C276 H263 0.960 . S
C276 C275 1.524 . S
C277 C274 1.403 . S
C277 C278 1.392 . S
C277 C281 1.495 . S
C278 C277 1.392 . S
C278 C279 1.385 . S
C278 C280 1.478 . S
C279 H273 0.930 . S
C279 C275 1.400 . S
C279 C278 1.385 . S
C280 C278 1.478 . S
C280 C282 1.381 . S
C280 C286 1.383 . S
C281 C277 1.495 . S
C281 H287 0.959 . S
C281 H288 0.961 . S
C281 H289 0.960 . S
C282 C280 1.381 . S
C282 C283 1.394 . S
C282 H290 0.930 . S
C283 C282 1.394 . S
C283 C284 1.383 . S
C283 H291 0.929 . S
C284 C283 1.383 . S
C284 C285 1.377 . S
C285 H269 0.930 . S
C285 C284 1.377 . S
C285 C286 1.379 . S
C286 H270 0.931 . S
C286 C280 1.383 . S
C286 C285 1.379 . S
H287 C281 0.959 . S
H288 C281 0.961 . S
H289 C281 0.960 . S
H290 C282 0.930 . S
H291 C283 0.929 . S
H292 C300 0.929 1_554 S
H293 C302 0.930 . S
H294 C304 0.930 . S
H295 C307 0.929 . S
H296 C310 0.930 . S
H297 C312 0.960 . S
H298 C312 0.960 . S
H299 C312 0.960 . S
C300 H292 0.929 1_556 S
C300 C301 1.377 . S
C300 C302 1.384 . S
C301 C300 1.377 . S
C301 C307 1.390 . S
C302 H293 0.930 . S
C302 C300 1.384 . S
C302 C303 1.372 . S
C303 C302 1.372 . S
C303 C304 1.400 . S
C303 C308 1.490 . S
C304 H294 0.930 . S
C304 C303 1.400 . S
C304 C307 1.386 . S
H305 C321 0.930 . S
H306 C322 0.931 . S
C307 H295 0.929 . S
C307 C301 1.390 . S
C307 C304 1.386 . S
C308 C303 1.490 . S
C308 C310 1.395 . S
C308 C311 1.403 . S
H309 C315 0.930 . S
C310 H296 0.930 . S
C310 C308 1.395 . S
C310 C313 1.403 . S
C311 C308 1.403 . S
C311 C312 1.524 . S
C311 C315 1.400 . S
C312 H297 0.960 . S
C312 H298 0.960 . S
C312 H299 0.960 . S
C312 C311 1.524 . S
C313 C310 1.403 . S
C313 C314 1.392 . S
C313 C317 1.495 . S
C314 C313 1.392 . S
C314 C315 1.385 . S
C314 C316 1.478 . S
C315 H309 0.930 . S
C315 C311 1.400 . S
C315 C314 1.385 . S
C316 C314 1.478 . S
C316 C318 1.381 . S
C316 C322 1.383 . S
C317 C313 1.495 . S
C317 H323 0.959 . S
C317 H324 0.961 . S
C317 H325 0.960 . S
C318 C316 1.381 . S
C318 C319 1.394 . S
C318 H326 0.930 . S
C319 C318 1.394 . S
C319 C320 1.383 . S
C319 H327 0.929 . S
C320 C319 1.383 . S
C320 C321 1.377 . S
C321 H305 0.930 . S
C321 C320 1.377 . S
C321 C322 1.379 . S
C322 H306 0.931 . S
C322 C316 1.383 . S
C322 C321 1.379 . S
H323 C317 0.959 . S
H324 C317 0.961 . S
H325 C317 0.960 . S
H326 C318 0.930 . S
H327 C319 0.929 . S
H328 C336 0.929 . S
H329 C338 0.930 . S
H330 C340 0.930 . S
H331 C343 0.929 . S
H332 C346 0.930 . S
H333 C348 0.960 . S
H334 C348 0.960 . S
H335 C348 0.960 . S
C336 H328 0.929 . S
C336 C337 1.377 . S
C336 C338 1.384 . S
C337 C336 1.377 . S
C337 C343 1.390 . S
C338 H329 0.930 . S
C338 C336 1.384 . S
C338 C339 1.372 . S
C339 C338 1.372 . S
C339 C340 1.400 . S
C339 C344 1.490 . S
C340 H330 0.930 . S
C340 C339 1.400 . S
C340 C343 1.386 . S
H341 C357 0.930 . S
H342 C358 0.931 . S
C343 H331 0.929 . S
C343 C337 1.390 . S
C343 C340 1.386 . S
C344 C339 1.490 . S
C344 C346 1.395 . S
C344 C347 1.403 1_554 S
H345 C351 0.930 . S
C346 H332 0.930 . S
C346 C344 1.395 . S
C346 C349 1.403 . S
C347 C344 1.403 1_556 S
C347 C348 1.524 . S
C347 C351 1.400 . S
C348 H333 0.960 . S
C348 H334 0.960 . S
C348 H335 0.960 . S
C348 C347 1.524 . S
C349 C346 1.403 . S
C349 C350 1.392 1_554 S
C349 C353 1.495 . S
C350 C349 1.392 1_556 S
C350 C351 1.385 . S
C350 C352 1.478 . S
C351 H345 0.930 . S
C351 C347 1.400 . S
C351 C350 1.385 . S
C352 C350 1.478 . S
C352 C354 1.381 . S
C352 C358 1.383 . S
C353 C349 1.495 . S
C353 H359 0.959 . S
C353 H360 0.961 . S
C353 H361 0.960 . S
C354 C352 1.381 . S
C354 C355 1.394 . S
C354 H362 0.930 . S
C355 C354 1.394 . S
C355 C356 1.383 . S
C355 H363 0.929 . S
C356 C355 1.383 . S
C356 C357 1.377 . S
C357 H341 0.930 . S
C357 C356 1.377 . S
C357 C358 1.379 . S
C358 H342 0.931 . S
C358 C352 1.383 . S
C358 C357 1.379 . S
H359 C353 0.959 . S
H360 C353 0.961 . S
H361 C353 0.960 . S
H362 C354 0.930 . S
H363 C355 0.929 . S
H364 C372 0.929 1_556 S
H365 C374 0.930 . S
H366 C376 0.930 . S
H367 C379 0.929 . S
H368 C382 0.930 . S
H369 C384 0.960 . S
H370 C384 0.960 . S
H371 C384 0.960 . S
C372 H364 0.929 1_554 S
C372 C373 1.377 . S
C372 C374 1.384 . S
C373 C372 1.377 . S
C373 C379 1.390 . S
C374 H365 0.930 . S
C374 C372 1.384 . S
C374 C375 1.372 . S
C375 C374 1.372 . S
C375 C376 1.400 . S
C375 C380 1.490 . S
C376 H366 0.930 . S
C376 C375 1.400 . S
C376 C379 1.386 . S
H377 C393 0.930 . S
H378 C394 0.931 . S
C379 H367 0.929 . S
C379 C373 1.390 . S
C379 C376 1.386 . S
C380 C375 1.490 . S
C380 C382 1.395 . S
C380 C383 1.403 . S
H381 C387 0.930 . S
C382 H368 0.930 . S
C382 C380 1.395 . S
C382 C385 1.403 . S
C383 C380 1.403 . S
C383 C384 1.524 . S
C383 C387 1.400 . S
C384 H369 0.960 . S
C384 H370 0.960 . S
C384 H371 0.960 . S
C384 C383 1.524 . S
C385 C382 1.403 . S
C385 C386 1.392 . S
C385 C389 1.495 . S
C386 C385 1.392 . S
C386 C387 1.385 . S
C386 C388 1.478 . S
C387 H381 0.930 . S
C387 C383 1.400 . S
C387 C386 1.385 . S
C388 C386 1.478 . S
C388 C390 1.381 . S
C388 C394 1.383 . S
C389 C385 1.495 . S
C389 H395 0.959 . S
C389 H396 0.961 . S
C389 H397 0.960 . S
C390 C388 1.381 . S
C390 C391 1.394 . S
C390 H398 0.930 . S
C391 C390 1.394 . S
C391 C392 1.383 . S
C391 H399 0.929 . S
C392 C391 1.383 . S
C392 C393 1.377 . S
C393 H377 0.930 . S
C393 C392 1.377 . S
C393 C394 1.379 . S
C394 H378 0.931 . S
C394 C388 1.383 . S
C394 C393 1.379 . S
H395 C389 0.959 . S
H396 C389 0.961 . S
H397 C389 0.960 . S
H398 C390 0.930 . S
H399 C391 0.929 . S
H400 C408 0.929 . S
H401 C410 0.930 . S
H402 C412 0.930 . S
H403 C415 0.929 . S
H404 C418 0.930 . S
H405 C420 0.960 . S
H406 C420 0.960 . S
H407 C420 0.960 . S
C408 H400 0.929 . S
C408 C409 1.377 . S
C408 C410 1.384 . S
C409 C408 1.377 . S
C409 C415 1.390 . S
C410 H401 0.930 . S
C410 C408 1.384 . S
C410 C411 1.372 . S
C411 C410 1.372 . S
C411 C412 1.400 . S
C411 C416 1.490 . S
C412 H402 0.930 . S
C412 C411 1.400 . S
C412 C415 1.386 . S
H413 C429 0.930 . S
H414 C430 0.931 . S
C415 H403 0.929 . S
C415 C409 1.390 . S
C415 C412 1.386 . S
C416 C411 1.490 . S
C416 C418 1.395 . S
C416 C419 1.403 . S
H417 C423 0.930 . S
C418 H404 0.930 . S
C418 C416 1.395 . S
C418 C421 1.403 . S
C419 C416 1.403 . S
C419 C420 1.524 . S
C419 C423 1.400 . S
C420 H405 0.960 . S
C420 H406 0.960 . S
C420 H407 0.960 . S
C420 C419 1.524 . S
C421 C418 1.403 . S
C421 C422 1.392 . S
C421 C425 1.495 . S
C422 C421 1.392 . S
C422 C423 1.385 . S
C422 C424 1.478 . S
C423 H417 0.930 . S
C423 C419 1.400 . S
C423 C422 1.385 . S
C424 C422 1.478 . S
C424 C426 1.381 . S
C424 C430 1.383 . S
C425 C421 1.495 . S
C425 H431 0.959 . S
C425 H432 0.961 . S
C425 H433 0.960 . S
C426 C424 1.381 . S
C426 C427 1.394 . S
C426 H434 0.930 . S
C427 C426 1.394 . S
C427 C428 1.383 . S
C427 H435 0.929 . S
C428 C427 1.383 . S
C428 C429 1.377 . S
C429 H413 0.930 . S
C429 C428 1.377 . S
C429 C430 1.379 . S
C430 H414 0.931 . S
C430 C424 1.383 . S
C430 C429 1.379 . S
H431 C425 0.959 . S
H432 C425 0.961 . S
H433 C425 0.960 . S
H434 C426 0.930 . S
H435 C427 0.929 . S
H436 C444 0.929 . S
H437 C446 0.930 . S
H438 C448 0.930 . S
H439 C451 0.929 . S
H440 C454 0.930 . S
H441 C456 0.960 . S
H442 C456 0.960 . S
H443 C456 0.960 . S
C444 H436 0.929 . S
C444 C445 1.377 . S
C444 C446 1.384 . S
C445 C444 1.377 . S
C445 C451 1.390 . S
C446 H437 0.930 . S
C446 C444 1.384 . S
C446 C447 1.372 . S
C447 C446 1.372 . S
C447 C448 1.400 . S
C447 C452 1.490 . S
C448 H438 0.930 . S
C448 C447 1.400 . S
C448 C451 1.386 . S
H449 C465 0.930 . S
H450 C466 0.931 . S
C451 H439 0.929 . S
C451 C445 1.390 . S
C451 C448 1.386 . S
C452 C447 1.490 . S
C452 C454 1.395 . S
C452 C455 1.403 . S
H453 C459 0.930 . S
C454 H440 0.930 . S
C454 C452 1.395 . S
C454 C457 1.403 . S
C455 C452 1.403 . S
C455 C456 1.524 . S
C455 C459 1.400 . S
C456 H441 0.960 . S
C456 H442 0.960 . S
C456 H443 0.960 . S
C456 C455 1.524 . S
C457 C454 1.403 . S
C457 C458 1.392 . S
C457 C461 1.495 . S
C458 C457 1.392 . S
C458 C459 1.385 . S
C458 C460 1.478 . S
C459 H453 0.930 . S
C459 C455 1.400 . S
C459 C458 1.385 . S
C460 C458 1.478 . S
C460 C462 1.381 . S
C460 C466 1.383 . S
C461 C457 1.495 . S
C461 H467 0.959 . S
C461 H468 0.961 . S
C461 H469 0.960 . S
C462 C460 1.381 . S
C462 C463 1.394 . S
C462 H470 0.930 . S
C463 C462 1.394 . S
C463 C464 1.383 . S
C463 H471 0.929 . S
C464 C463 1.383 . S
C464 C465 1.377 . S
C465 H449 0.930 . S
C465 C464 1.377 . S
C465 C466 1.379 . S
C466 H450 0.931 . S
C466 C460 1.383 . S
C466 C465 1.379 . S
H467 C461 0.959 . S
H468 C461 0.961 . S
H469 C461 0.960 . S
H470 C462 0.930 . S
H471 C463 0.929 . S
H472 C480 0.929 1_556 S
H473 C482 0.930 . S
H474 C484 0.930 . S
H475 C487 0.929 . S
H476 C490 0.930 . S
H477 C492 0.960 . S
H478 C492 0.960 . S
H479 C492 0.960 1_554 S
C480 H472 0.929 1_554 S
C480 C481 1.377 . S
C480 C482 1.384 1_554 S
C481 C480 1.377 . S
C481 C487 1.390 . S
C482 H473 0.930 . S
C482 C480 1.384 1_556 S
C482 C483 1.372 1_556 S
C483 C482 1.372 1_554 S
C483 C484 1.400 . S
C483 C488 1.490 . S
C484 H474 0.930 . S
C484 C483 1.400 . S
C484 C487 1.386 . S
H485 C501 0.930 1_554 S
H486 C502 0.931 . S
C487 H475 0.929 . S
C487 C481 1.390 . S
C487 C484 1.386 . S
C488 C483 1.490 . S
C488 C490 1.395 . S
C488 C491 1.403 1_554 S
H489 C495 0.930 . S
C490 H476 0.930 . S
C490 C488 1.395 . S
C490 C493 1.403 . S
C491 C488 1.403 1_556 S
C491 C492 1.524 . S
C491 C495 1.400 . S
C492 H477 0.960 . S
C492 H478 0.960 . S
C492 H479 0.960 1_556 S
C492 C491 1.524 . S
C493 C490 1.403 . S
C493 C494 1.392 1_554 S
C493 C497 1.495 . S
C494 C493 1.392 1_556 S
C494 C495 1.385 . S
C494 C496 1.478 . S
C495 H489 0.930 . S
C495 C491 1.400 . S
C495 C494 1.385 . S
C496 C494 1.478 . S
C496 C498 1.381 . S
C496 C502 1.383 1_556 S
C497 C493 1.495 . S
C497 H503 0.959 . S
C497 H504 0.961 . S
C497 H505 0.960 1_554 S
C498 C496 1.381 . S
C498 C499 1.394 . S
C498 H506 0.930 . S
C499 C498 1.394 . S
C499 C500 1.383 . S
C499 H507 0.929 . S
C500 C499 1.383 . S
C500 C501 1.377 . S
C501 H485 0.930 1_556 S
C501 C500 1.377 . S
C501 C502 1.379 1_556 S
C502 H486 0.931 . S
C502 C496 1.383 1_554 S
C502 C501 1.379 1_554 S
H503 C497 0.959 . S
H504 C497 0.961 . S
H505 C497 0.960 1_556 S
H506 C498 0.930 . S
H507 C499 0.929 . S
H508 C516 0.929 . S
H509 C518 0.930 . S
H510 C520 0.930 . S
H511 C523 0.929 . S
H512 C526 0.930 . S
H513 C528 0.960 . S
H514 C528 0.960 . S
H515 C528 0.960 . S
C516 H508 0.929 . S
C516 C517 1.377 . S
C516 C518 1.384 . S
C517 C516 1.377 . S
C517 C523 1.390 . S
C518 H509 0.930 . S
C518 C516 1.384 . S
C518 C519 1.372 . S
C519 C518 1.372 . S
C519 C520 1.400 . S
C519 C524 1.490 . S
C520 H510 0.930 . S
C520 C519 1.400 . S
C520 C523 1.386 . S
H521 C537 0.930 . S
H522 C538 0.931 . S
C523 H511 0.929 . S
C523 C517 1.390 . S
C523 C520 1.386 . S
C524 C519 1.490 . S
C524 C526 1.395 . S
C524 C527 1.403 . S
H525 C531 0.930 . S
C526 H512 0.930 . S
C526 C524 1.395 . S
C526 C529 1.403 . S
C527 C524 1.403 . S
C527 C528 1.524 . S
C527 C531 1.400 . S
C528 H513 0.960 . S
C528 H514 0.960 . S
C528 H515 0.960 . S
C528 C527 1.524 . S
C529 C526 1.403 . S
C529 C530 1.392 . S
C529 C533 1.495 . S
C530 C529 1.392 . S
C530 C531 1.385 . S
C530 C532 1.478 . S
C531 H525 0.930 . S
C531 C527 1.400 . S
C531 C530 1.385 . S
C532 C530 1.478 . S
C532 C534 1.381 . S
C532 C538 1.383 . S
C533 C529 1.495 . S
C533 H539 0.959 . S
C533 H540 0.961 . S
C533 H541 0.960 . S
C534 C532 1.381 . S
C534 C535 1.394 . S
C534 H542 0.930 . S
C535 C534 1.394 . S
C535 C536 1.383 . S
C535 H543 0.929 . S
C536 C535 1.383 . S
C536 C537 1.377 . S
C537 H521 0.930 . S
C537 C536 1.377 . S
C537 C538 1.379 . S
C538 H522 0.931 . S
C538 C532 1.383 . S
C538 C537 1.379 . S
H539 C533 0.959 . S
H540 C533 0.961 . S
H541 C533 0.960 . S
H542 C534 0.930 . S
H543 C535 0.929 . S
H544 C552 0.929 . S
H545 C554 0.930 . S
H546 C556 0.930 . S
H547 C559 0.929 . S
H548 C562 0.930 . S
H549 C564 0.960 . S
H550 C564 0.960 . S
H551 C564 0.960 . S
C552 H544 0.929 . S
C552 C553 1.377 . S
C552 C554 1.384 . S
C553 C552 1.377 . S
C553 C559 1.390 . S
C554 H545 0.930 . S
C554 C552 1.384 . S
C554 C555 1.372 . S
C555 C554 1.372 . S
C555 C556 1.400 . S
C555 C560 1.490 . S
C556 H546 0.930 . S
C556 C555 1.400 . S
C556 C559 1.386 . S
H557 C573 0.930 . S
H558 C574 0.931 . S
C559 H547 0.929 . S
C559 C553 1.390 . S
C559 C556 1.386 . S
C560 C555 1.490 . S
C560 C562 1.395 . S
C560 C563 1.403 . S
H561 C567 0.930 . S
C562 H548 0.930 . S
C562 C560 1.395 . S
C562 C565 1.403 . S
C563 C560 1.403 . S
C563 C564 1.524 . S
C563 C567 1.400 . S
C564 H549 0.960 . S
C564 H550 0.960 . S
C564 H551 0.960 . S
C564 C563 1.524 . S
C565 C562 1.403 . S
C565 C566 1.392 . S
C565 C569 1.495 . S
C566 C565 1.392 . S
C566 C567 1.385 . S
C566 C568 1.478 . S
C567 H561 0.930 . S
C567 C563 1.400 . S
C567 C566 1.385 . S
C568 C566 1.478 . S
C568 C570 1.381 . S
C568 C574 1.383 . S
C569 C565 1.495 . S
C569 H575 0.959 . S
C569 H576 0.961 . S
C569 H577 0.960 . S
C570 C568 1.381 . S
C570 C571 1.394 . S
C570 H578 0.930 . S
C571 C570 1.394 . S
C571 C572 1.383 . S
C571 H579 0.929 . S
C572 C571 1.383 . S
C572 C573 1.377 . S
C573 H557 0.930 . S
C573 C572 1.377 . S
C573 C574 1.379 . S
C574 H558 0.931 . S
C574 C568 1.383 . S
C574 C573 1.379 . S
H575 C569 0.959 . S
H576 C569 0.961 . S
H577 C569 0.960 . S
H578 C570 0.930 . S
H579 C571 0.929 . S
H580 C588 0.929 . S
H581 C590 0.930 . S
H582 C592 0.930 . S
H583 C595 0.929 1_554 S
H584 C598 0.930 . S
H585 C600 0.960 . S
H586 C600 0.960 . S
H587 C600 0.960 . S
C588 H580 0.929 . S
C588 C589 1.377 . S
C588 C590 1.384 . S
C589 C588 1.377 . S
C589 C595 1.390 . S
C590 H581 0.930 . S
C590 C588 1.384 . S
C590 C591 1.372 . S
C591 C590 1.372 . S
C591 C592 1.400 1_556 S
C591 C596 1.490 . S
C592 H582 0.930 . S
C592 C591 1.400 1_554 S
C592 C595 1.386 1_554 S
H593 C609 0.930 . S
H594 C610 0.931 . S
C595 H583 0.929 1_556 S
C595 C589 1.390 . S
C595 C592 1.386 1_556 S
C596 C591 1.490 . S
C596 C598 1.395 . S
C596 C599 1.403 . S
H597 C603 0.930 . S
C598 H584 0.930 . S
C598 C596 1.395 . S
C598 C601 1.403 1_556 S
C599 C596 1.403 . S
C599 C600 1.524 . S
C599 C603 1.400 1_556 S
C600 H585 0.960 . S
C600 H586 0.960 . S
C600 H587 0.960 . S
C600 C599 1.524 . S
C601 C598 1.403 1_554 S
C601 C602 1.392 . S
C601 C605 1.495 . S
C602 C601 1.392 . S
C602 C603 1.385 . S
C602 C604 1.478 . S
C603 H597 0.930 . S
C603 C599 1.400 1_554 S
C603 C602 1.385 . S
C604 C602 1.478 . S
C604 C606 1.381 1_554 S
C604 C610 1.383 . S
C605 C601 1.495 . S
C605 H611 0.959 . S
C605 H612 0.961 . S
C605 H613 0.960 1_554 S
C606 C604 1.381 1_556 S
C606 C607 1.394 1_556 S
C606 H614 0.930 . S
C607 C606 1.394 1_554 S
C607 C608 1.383 . S
C607 H615 0.929 1_554 S
C608 C607 1.383 . S
C608 C609 1.377 . S
C609 H593 0.930 . S
C609 C608 1.377 . S
C609 C610 1.379 . S
C610 H594 0.931 . S
C610 C604 1.383 . S
C610 C609 1.379 . S
H611 C605 0.959 . S
H612 C605 0.961 . S
H613 C605 0.960 1_556 S
H614 C606 0.930 . S
H615 C607 0.929 1_556 S
H616 C624 0.929 . S
H617 C626 0.930 . S
H618 C628 0.930 . S
H619 C631 0.929 . S
H620 C634 0.930 . S
H621 C636 0.960 . S
H622 C636 0.960 . S
H623 C636 0.960 . S
C624 H616 0.929 . S
C624 C625 1.377 . S
C624 C626 1.384 . S
C625 C624 1.377 . S
C625 C631 1.390 . S
C626 H617 0.930 . S
C626 C624 1.384 . S
C626 C627 1.372 . S
C627 C626 1.372 . S
C627 C628 1.400 . S
C627 C632 1.490 . S
C628 H618 0.930 . S
C628 C627 1.400 . S
C628 C631 1.386 . S
H629 C645 0.930 . S
H630 C646 0.931 . S
C631 H619 0.929 . S
C631 C625 1.390 . S
C631 C628 1.386 . S
C632 C627 1.490 . S
C632 C634 1.395 . S
C632 C635 1.403 . S
H633 C639 0.930 . S
C634 H620 0.930 . S
C634 C632 1.395 . S
C634 C637 1.403 . S
C635 C632 1.403 . S
C635 C636 1.524 . S
C635 C639 1.400 . S
C636 H621 0.960 . S
C636 H622 0.960 . S
C636 H623 0.960 . S
C636 C635 1.524 . S
C637 C634 1.403 . S
C637 C638 1.392 . S
C637 C641 1.495 . S
C638 C637 1.392 . S
C638 C639 1.385 . S
C638 C640 1.478 . S
C639 H633 0.930 . S
C639 C635 1.400 . S
C639 C638 1.385 . S
C640 C638 1.478 . S
C640 C642 1.381 . S
C640 C646 1.383 . S
C641 C637 1.495 . S
C641 H647 0.959 . S
C641 H648 0.961 . S
C641 H649 0.960 . S
C642 C640 1.381 . S
C642 C643 1.394 . S
C642 H650 0.930 . S
C643 C642 1.394 . S
C643 C644 1.383 . S
C643 H651 0.929 . S
C644 C643 1.383 . S
C644 C645 1.377 . S
C645 H629 0.930 . S
C645 C644 1.377 . S
C645 C646 1.379 . S
C646 H630 0.931 . S
C646 C640 1.383 . S
C646 C645 1.379 . S
H647 C641 0.959 . S
H648 C641 0.961 . S
H649 C641 0.960 . S
H650 C642 0.930 . S
H651 C643 0.929 . S
H652 C660 0.929 . S
H653 C662 0.930 . S
H654 C664 0.930 . S
H655 C667 0.929 . S
H656 C670 0.930 . S
H657 C672 0.960 . S
H658 C672 0.960 . S
H659 C672 0.960 . S
C660 H652 0.929 . S
C660 C661 1.377 . S
C660 C662 1.384 . S
C661 C660 1.377 . S
C661 C667 1.390 . S
C662 H653 0.930 . S
C662 C660 1.384 . S
C662 C663 1.372 . S
C663 C662 1.372 . S
C663 C664 1.400 . S
C663 C668 1.490 . S
C664 H654 0.930 . S
C664 C663 1.400 . S
C664 C667 1.386 . S
H665 C681 0.930 . S
H666 C682 0.931 . S
C667 H655 0.929 . S
C667 C661 1.390 . S
C667 C664 1.386 . S
C668 C663 1.490 . S
C668 C670 1.395 . S
C668 C671 1.403 . S
H669 C675 0.930 . S
C670 H656 0.930 . S
C670 C668 1.395 . S
C670 C673 1.403 . S
C671 C668 1.403 . S
C671 C672 1.524 . S
C671 C675 1.400 . S
C672 H657 0.960 . S
C672 H658 0.960 . S
C672 H659 0.960 . S
C672 C671 1.524 . S
C673 C670 1.403 . S
C673 C674 1.392 . S
C673 C677 1.495 . S
C674 C673 1.392 . S
C674 C675 1.385 . S
C674 C676 1.478 . S
C675 H669 0.930 . S
C675 C671 1.400 . S
C675 C674 1.385 . S
C676 C674 1.478 . S
C676 C678 1.381 . S
C676 C682 1.383 . S
C677 C673 1.495 . S
C677 H683 0.959 . S
C677 H684 0.961 . S
C677 H685 0.960 . S
C678 C676 1.381 . S
C678 C679 1.394 . S
C678 H686 0.930 . S
C679 C678 1.394 . S
C679 C680 1.383 . S
C679 H687 0.929 . S
C680 C679 1.383 . S
C680 C681 1.377 . S
C681 H665 0.930 . S
C681 C680 1.377 . S
C681 C682 1.379 . S
C682 H666 0.931 . S
C682 C676 1.383 . S
C682 C681 1.379 . S
H683 C677 0.959 . S
H684 C677 0.961 . S
H685 C677 0.960 . S
H686 C678 0.930 . S
H687 C679 0.929 . S
C121 C20 1.538 . S
C140 C6 1.547 . S
C157 C21 1.532 . S
C176 C34 1.538 . S
C193 C49 1.533 . S
C212 C35 1.547 . S
C229 C48 1.533 . S
C248 C7 1.545 . S
C265 C62 1.532 . S
C284 C76 1.531 . S
C301 C77 1.537 . S
C320 C90 1.515 . S
C337 C91 1.536 . S
C356 C105 1.514 . S
C373 C63 1.539 . S
C392 C104 1.521 . S
C409 C8 1.545 . S
C428 C107 1.550 . S
C445 C65 1.547 . S
C464 C23 1.556 . S
C481 C78 1.546 . S
C500 C37 1.550 . S
C517 C50 1.541 . S
C536 C92 1.529 . S
C553 C36 1.546 . S
C572 C106 1.548 . S
C589 C64 1.541 . S
C608 C51 1.532 . S
C625 C79 1.546 . S
C644 C9 1.543 . S
C661 C22 1.544 . S
C680 C93 1.538 . S
