# Generated by pormake.
# Topology wjy, (5)-cn, num edge types: 1
# Building blocks:
#     Node 0, Type 0, BuildingBlock: BEQFEK_clean_sbu_0, # of connection points: 5
#     Node 1, Type 0, BuildingBlock: BEQFEK_clean_sbu_0, # of connection points: 5
#     Node 2, Type 0, BuildingBlock: BEQFEK_clean_sbu_0, # of connection points: 5
#     Node 3, Type 0, BuildingBlock: BEQFEK_clean_sbu_0, # of connection points: 5
#     Node 4, Type 0, BuildingBlock: BEQFEK_clean_sbu_0, # of connection points: 5
#     Node 5, Type 0, BuildingBlock: BEQFEK_clean_sbu_0, # of connection points: 5
#     Node 6, Type 0, BuildingBlock: BEQFEK_clean_sbu_0, # of connection points: 5
#     Node 7, Type 0, BuildingBlock: BEQFEK_clean_sbu_0, # of connection points: 5
#     Node 8, Type 0, BuildingBlock: BEQFEK_clean_sbu_0, # of connection points: 5
#     Node 9, Type 0, BuildingBlock: BEQFEK_clean_sbu_0, # of connection points: 5
#     Node 10, Type 0, BuildingBlock: BEQFEK_clean_sbu_0, # of connection points: 5
#     Node 11, Type 0, BuildingBlock: BEQFEK_clean_sbu_0, # of connection points: 5
#     Edge 12, Type (0, 0), None
#     Edge 13, Type (0, 0), None
#     Edge 14, Type (0, 0), None
#     Edge 15, Type (0, 0), None
#     Edge 16, Type (0, 0), None
#     Edge 17, Type (0, 0), None
#     Edge 18, Type (0, 0), None
#     Edge 19, Type (0, 0), None
#     Edge 20, Type (0, 0), None
#     Edge 21, Type (0, 0), None
#     Edge 22, Type (0, 0), None
#     Edge 23, Type (0, 0), None
#     Edge 24, Type (0, 0), None
#     Edge 25, Type (0, 0), None
#     Edge 26, Type (0, 0), None
#     Edge 27, Type (0, 0), None
#     Edge 28, Type (0, 0), None
#     Edge 29, Type (0, 0), None
#     Edge 30, Type (0, 0), None
#     Edge 31, Type (0, 0), None
#     Edge 32, Type (0, 0), None
#     Edge 33, Type (0, 0), None
#     Edge 34, Type (0, 0), None
#     Edge 35, Type (0, 0), None
#     Edge 36, Type (0, 0), None
#     Edge 37, Type (0, 0), None
#     Edge 38, Type (0, 0), None
#     Edge 39, Type (0, 0), None
#     Edge 40, Type (0, 0), None
#     Edge 41, Type (0, 0), None
# Relax obj value: 0.190
# Max RMSD: 0.198
# Mean RMSD: 0.198
data_MOF--net-wjy--node1-BEQFEK_clean_sbu_0--edge1-none
_symmetry_space_group_name_H-M    P1
_symmetry_Int_Tables_number       1
_symmetry_cell_setting            triclinic
loop_
_symmetry_equiv_pos_as_xyz
'x, y, z'
_cell_length_a     34.54599
_cell_length_b     34.545902
_cell_length_c     10.224122
_cell_angle_alpha  90.001868
_cell_angle_beta   89.9963
_cell_angle_gamma 119.99925
loop_
_atom_site_label
_atom_site_type_symbol
_atom_site_fract_x
_atom_site_fract_y
_atom_site_fract_z
_atom_type_partial_charge
Co0 Co 0.44439 0.09236 0.26786 0.0
Co1 Co 0.49304 0.11815 0.9961 0.0
C2 C 0.41929 0.02479 0.05498 0.0
O3 O 0.41122 0.03392 0.16878 0.0
O4 O 0.45094 0.05405 0.98817 0.0
C5 C 0.40677 0.09014 0.54326 0.0
O6 O 0.36782 0.07881 0.59547 0.0
C7 C 0.44694 0.11059 0.76243 0.0
C8 C 0.49125 0.12332 0.59429 0.0
C9 C 0.44712 0.10866 0.6276 0.0
N10 N 0.48856 0.12488 0.80886 0.0
N11 N 0.51516 0.13296 0.70683 0.0
C12 C 0.40575 0.09522 0.84531 0.0
H13 H 0.41197 0.09636 0.95068 0.0
H14 H 0.39065 0.11637 0.82455 0.0
H15 H 0.38083 0.06009 0.82084 0.0
C16 C 0.43808 0.17367 0.20965 0.0
N17 N 0.44926 0.1425 0.1788 0.0
N18 N 0.47233 0.15441 0.06979 0.0
C19 C 0.4764 0.19312 1.027 0.0
C20 C 0.4545 0.20639 0.11343 0.0
C21 C 0.41369 0.17312 0.33113 0.0
H22 H 0.38235 0.14048 0.33939 0.0
H23 H 0.40545 0.20032 0.3308 0.0
H24 H 0.43481 0.17711 0.41753 0.0
O25 O 0.50581 0.10519 0.31047 0.0
O26 O 0.54303 0.1228 0.11878 0.0
H27 H 0.51711 0.25492 0.9231 0.0
H28 H 0.48168 0.20749 0.82264 0.0
C29 C 0.50345 0.21844 0.91049 0.0
H30 H 0.53121 0.21155 0.8944 0.0
H31 H 0.54901 0.14336 0.71248 0.0
O32 O 0.40743 0.0844 0.42112 0.0
C33 C 0.54135 0.11666 0.24445 0.0
Co34 Co 0.35379 0.44343 0.43443 0.0
Co35 Co 0.37664 0.49209 0.16268 0.0
C36 C 0.39629 0.41836 0.22155 0.0
O37 O 0.37908 0.41028 0.33534 0.0
O38 O 0.39867 0.45001 0.15475 0.0
C39 C 0.3184 0.4058 0.70983 0.0
O40 O 0.29079 0.36685 0.76204 0.0
C41 C 0.33811 0.44597 0.92901 0.0
C42 C 0.36966 0.49029 0.76086 0.0
C43 C 0.34021 0.44615 0.79418 0.0
N44 N 0.36542 0.4876 0.97544 0.0
N45 N 0.38391 0.5142 0.87341 0.0
C46 C 0.31231 0.40478 1.01189 0.0
H47 H 0.31738 0.411 0.11725 0.0
H48 H 0.27605 0.38966 0.99113 0.0
H49 H 0.32254 0.37988 0.98741 0.0
C50 C 0.26616 0.43712 0.37624 0.0
N51 N 0.30851 0.44829 0.34537 0.0
N52 N 0.31966 0.47135 0.23637 0.0
C53 C 0.28502 0.47543 0.19359 0.0
C54 C 0.24986 0.45353 0.28003 0.0
C55 C 0.24233 0.41274 0.49774 0.0
H56 H 0.24363 0.3814 0.50602 0.0
H57 H 0.20689 0.4045 0.49743 0.0
H58 H 0.25947 0.43386 0.58413 0.0
O59 O 0.40236 0.50485 0.47706 0.0
O60 O 0.42196 0.54208 0.28538 0.0
H61 H 0.26393 0.51613 0.0897 0.0
H62 H 0.27594 0.48071 0.98923 0.0
C63 C 0.28675 0.50248 0.07709 0.0
H64 H 0.32139 0.53024 0.06101 0.0
H65 H 0.40735 0.54806 0.87906 0.0
O66 O 0.32479 0.40647 0.58769 0.0
C67 C 0.42642 0.5404 0.41104 0.0
Co68 Co 0.91216 0.35292 0.60112 0.0
Co69 Co 0.88633 0.37574 0.32937 0.0
C70 C 0.97972 0.39542 0.38822 0.0
O71 O 0.97059 0.37822 0.50202 0.0
O72 O 0.95044 0.39779 0.32142 0.0
C73 C 0.91442 0.31754 0.87651 0.0
O74 O 0.92579 0.28995 0.92871 0.0
C75 C 0.89394 0.33722 0.09569 0.0
C76 C 0.88115 0.36877 0.92756 0.0
C77 C 0.89586 0.33932 0.96087 0.0
N78 N 0.8796 0.36452 0.14214 0.0
N79 N 0.87149 0.38301 0.04012 0.0
C80 C 0.90934 0.31143 0.17856 0.0
H81 H 0.90818 0.31649 0.28393 0.0
H82 H 0.88822 0.27517 0.15777 0.0
H83 H 0.94448 0.32168 0.15411 0.0
C84 C 0.83087 0.26527 0.54296 0.0
N85 N 0.86202 0.30762 0.51208 0.0
N86 N 0.85011 0.31876 0.40308 0.0
C87 C 0.8114 0.2841 0.36031 0.0
C88 C 0.79815 0.24895 0.44675 0.0
C89 C 0.83144 0.24145 0.66446 0.0
H90 H 0.86408 0.24276 0.67273 0.0
H91 H 0.80425 0.206 0.66416 0.0
H92 H 0.82744 0.25858 0.75085 0.0
O93 O 0.89929 0.40148 0.64374 0.0
O94 O 0.88165 0.42106 0.45206 0.0
H95 H 0.7496 0.26298 0.25643 0.0
H96 H 0.79703 0.27501 0.15595 0.0
C97 C 0.78607 0.28581 0.24381 0.0
H98 H 0.79294 0.32045 0.22772 0.0
H99 H 0.86105 0.40643 0.04578 0.0
O100 O 0.92015 0.32394 0.75437 0.0
C101 C 0.8878 0.42553 0.57772 0.0
Co102 Co 0.56096 0.91123 0.76785 0.0
Co103 Co 0.51231 0.88543 0.4961 0.0
C104 C 0.58607 0.9788 0.55496 0.0
O105 O 0.59413 0.96966 0.66876 0.0
O106 O 0.55441 0.94954 0.48815 0.0
C107 C 0.59859 0.91346 0.04323 0.0
O108 O 0.63754 0.9248 0.09543 0.0
C109 C 0.55842 0.893 0.26241 0.0
C110 C 0.5141 0.88026 0.09429 0.0
C111 C 0.55824 0.89493 0.12759 0.0
N112 N 0.5168 0.8787 0.30886 0.0
N113 N 0.4902 0.87061 0.20685 0.0
C114 C 0.59961 0.90837 0.34528 0.0
H115 H 0.59339 0.90722 0.45065 0.0
H116 H 0.61472 0.88722 0.32449 0.0
H117 H 0.62452 0.9435 0.32082 0.0
C118 C 0.56727 0.82992 0.70965 0.0
N119 N 0.55609 0.86108 0.67879 0.0
N120 N 0.53303 0.84918 0.56979 0.0
C121 C 0.52896 0.81046 0.52701 0.0
C122 C 0.55085 0.7972 0.61344 0.0
C123 C 0.59166 0.83047 0.83113 0.0
H124 H 0.623 0.86311 0.83939 0.0
H125 H 0.5999 0.80327 0.83081 0.0
H126 H 0.57054 0.82648 0.91754 0.0
O127 O 0.49954 0.8984 0.81047 0.0
O128 O 0.46233 0.88078 0.61878 0.0
H129 H 0.48826 0.74867 0.42311 0.0
H130 H 0.52368 0.7961 0.32265 0.0
C131 C 0.50191 0.78514 0.4105 0.0
H132 H 0.47416 0.79203 0.39441 0.0
H133 H 0.45634 0.86021 0.21251 0.0
O134 O 0.59792 0.9192 0.9211 0.0
C135 C 0.464 0.88692 0.74445 0.0
Co136 Co 0.65156 0.56016 0.93442 0.0
Co137 Co 0.62872 0.5115 0.66266 0.0
C138 C 0.60906 0.58522 0.72154 0.0
O139 O 0.62627 0.5933 0.83533 0.0
O140 O 0.60669 0.55358 0.65474 0.0
C141 C 0.68694 0.59779 0.20981 0.0
O142 O 0.71455 0.63675 0.26202 0.0
C143 C 0.66725 0.55762 0.42898 0.0
C144 C 0.6357 0.5133 0.26085 0.0
C145 C 0.66515 0.55744 0.29416 0.0
N146 N 0.63994 0.516 0.47542 0.0
N147 N 0.62145 0.48939 0.37339 0.0
C148 C 0.69305 0.59881 0.51186 0.0
H149 H 0.68798 0.59259 0.61723 0.0
H150 H 0.7293 0.61394 0.49108 0.0
H151 H 0.68281 0.62371 0.48741 0.0
C152 C 0.73919 0.56647 0.87624 0.0
N153 N 0.69684 0.5553 0.84536 0.0
N154 N 0.6857 0.53224 0.73635 0.0
C155 C 0.72034 0.52817 0.69358 0.0
C156 C 0.7555 0.55006 0.78003 0.0
C157 C 0.76301 0.59085 0.99774 0.0
H158 H 0.76171 0.62219 1.00602 0.0
H159 H 0.79846 0.5991 0.99743 0.0
H160 H 0.74587 0.56973 0.08412 0.0
O161 O 0.60299 0.49874 0.97704 0.0
O162 O 0.5834 0.46151 0.78536 0.0
H163 H 0.74144 0.48747 0.58969 0.0
H164 H 0.72942 0.52288 0.48922 0.0
C165 C 0.71862 0.50111 0.57708 0.0
H166 H 0.68397 0.47336 0.561 0.0
H167 H 0.59802 0.45553 0.37905 0.0
O168 O 0.68055 0.59713 0.08767 0.0
C169 C 0.57893 0.46319 0.91103 0.0
Co170 Co 0.09319 0.65067 0.10112 0.0
Co171 Co 0.11902 0.62785 0.82936 0.0
C172 C 0.02563 0.60816 0.88823 0.0
O173 O 0.03475 0.62537 1.00203 0.0
O174 O 0.05491 0.6058 0.82142 0.0
C175 C 0.09092 0.68604 0.37652 0.0
O176 O 0.07955 0.71363 0.42874 0.0
C177 C 0.11141 0.66636 0.59569 0.0
C178 C 0.1242 0.63482 0.42755 0.0
C179 C 0.10949 0.66426 0.46086 0.0
N180 N 0.12575 0.63907 0.64213 0.0
N181 N 0.13387 0.62058 0.5401 0.0
C182 C 0.09601 0.69216 0.67857 0.0
H183 H 0.09717 0.68709 0.78394 0.0
H184 H 0.11713 0.72841 0.65778 0.0
H185 H 0.06087 0.6819 0.65413 0.0
C186 C 0.17447 0.73832 0.04294 0.0
N187 N 0.14332 0.69597 1.01207 0.0
N188 N 0.15524 0.68483 0.90306 0.0
C189 C 0.19395 0.71948 0.86029 0.0
C190 C 0.2072 0.75464 0.94674 0.0
C191 C 0.1739 0.76213 0.16445 0.0
H192 H 0.14125 0.76082 0.17272 0.0
H193 H 0.20109 0.79759 0.16414 0.0
H194 H 0.1779 0.74501 0.25083 0.0
O195 O 0.10606 0.60211 0.14373 0.0
O196 O 0.1237 0.58253 0.95204 0.0
H197 H 0.25575 0.74061 0.7564 0.0
H198 H 0.20832 0.72857 0.65593 0.0
C199 C 0.21929 0.71777 0.74379 0.0
H200 H 0.21242 0.68314 0.72769 0.0
H201 H 0.1443 0.59715 0.54575 0.0
O202 O 0.08519 0.67964 0.25439 0.0
C203 C 0.11755 0.57806 0.07771 0.0
Co204 Co 0.91214 0.56012 0.62467 0.0
Co205 Co 0.88628 0.51146 0.89643 0.0
C206 C 0.97967 0.58518 0.83764 0.0
O207 O 0.97056 0.59326 0.72382 0.0
O208 O 0.95039 0.55354 0.90443 0.0
C209 C 0.91442 0.59775 0.34926 0.0
O210 O 0.92582 0.63672 0.29705 0.0
C211 C 0.89387 0.55758 0.1301 0.0
C212 C 0.88111 0.51325 0.29823 0.0
C213 C 0.89581 0.5574 0.26493 0.0
N214 N 0.87953 0.51595 0.08366 0.0
N215 N 0.87142 0.48934 0.18568 0.0
C216 C 0.90927 0.59877 0.04723 0.0
H217 H 0.90808 0.59254 0.94186 0.0
H218 H 0.88816 0.61392 0.06809 0.0
H219 H 0.94442 0.62365 0.0716 0.0
C220 C 0.83083 0.56644 0.68268 0.0
N221 N 0.86199 0.55526 0.71365 0.0
N222 N 0.85005 0.5322 0.82265 0.0
C223 C 0.81133 0.52813 0.86534 0.0
C224 C 0.79807 0.55 0.77877 0.0
C225 C 0.83143 0.59084 0.56118 0.0
H226 H 0.86407 0.62218 0.55297 0.0
H227 H 0.80423 0.5991 0.56144 0.0
H228 H 0.82744 0.56972 0.47479 0.0
O229 O 0.89929 0.49869 0.58208 0.0
O230 O 0.88163 0.46147 0.77376 0.0
H231 H 0.74952 0.48748 0.96925 0.0
H232 H 0.79696 0.52288 0.0697 0.0
C233 C 0.78599 0.50111 0.98186 0.0
H234 H 0.79285 0.47333 0.99798 0.0
H235 H 0.86098 0.45548 0.18002 0.0
O236 O 0.92015 0.59708 0.4714 0.0
C237 C 0.88779 0.46315 0.6481 0.0
Co238 Co 0.35378 0.91129 0.79143 0.0
Co239 Co 0.37657 0.88542 0.06318 0.0
C240 C 0.39627 0.97882 1.0044 0.0
O241 O 0.37908 0.96972 0.89059 0.0
O242 O 0.39863 0.94954 0.07118 0.0
C243 C 0.31843 0.91358 0.51603 0.0
O244 O 0.29087 0.925 0.46382 0.0
C245 C 0.33805 0.89304 0.29686 0.0
C246 C 0.36958 0.88023 0.46499 0.0
C247 C 0.34016 0.89497 0.43168 0.0
N248 N 0.36533 0.87868 0.25041 0.0
N249 N 0.3838 0.87054 0.35244 0.0
C250 C 0.31227 0.90845 0.21398 0.0
H251 H 0.31731 0.90726 0.10861 0.0
H252 H 0.27602 0.88737 0.23484 0.0
H253 H 0.32256 0.94361 0.23836 0.0
C254 C 0.26614 0.82999 0.84942 0.0
N255 N 0.30847 0.86114 0.8804 0.0
N256 N 0.3196 0.84921 0.98941 0.0
C257 C 0.28494 0.81048 0.03209 0.0
C258 C 0.24982 0.79722 0.9455 0.0
C259 C 0.24234 0.83058 0.7279 0.0
H260 H 0.24365 0.86322 0.71968 0.0
H261 H 0.20689 0.80337 0.72813 0.0
H262 H 0.25949 0.8266 0.64153 0.0
O263 O 0.40234 0.89843 0.74882 0.0
O264 O 0.4219 0.88076 0.9405 0.0
H265 H 0.26378 0.74867 0.13598 0.0
H266 H 0.27584 0.79612 0.23644 0.0
C267 C 0.28663 0.78514 0.14859 0.0
H268 H 0.32126 0.792 0.1647 0.0
H269 H 0.40721 0.86007 0.34678 0.0
O270 O 0.32483 0.91932 0.63816 0.0
C271 C 0.42638 0.88692 0.81483 0.0
Co272 Co 0.44436 0.35292 0.95802 0.0
Co273 Co 0.49302 0.37575 0.22977 0.0
C274 C 0.41927 0.39538 0.17098 0.0
O275 O 0.4112 0.37819 0.05717 0.0
O276 O 0.45093 0.39776 0.23777 0.0
C277 C 0.40673 0.31755 0.68262 0.0
O278 O 0.36777 0.28996 0.63041 0.0
C279 C 0.44691 0.33721 0.46345 0.0
C280 C 0.49123 0.36878 0.63158 0.0
C281 C 0.44708 0.33932 0.59827 0.0
N282 N 0.48853 0.36452 0.417 0.0
N283 N 0.51513 0.38302 0.51903 0.0
C284 C 0.40572 0.3114 0.38057 0.0
H285 H 0.41194 0.31645 0.27521 0.0
H286 H 0.39059 0.27515 0.40141 0.0
H287 H 0.38082 0.32166 0.40498 0.0
C288 C 0.43809 0.26531 1.01605 0.0
N289 N 0.44924 0.30764 0.04701 0.0
N290 N 0.4723 0.31878 0.15601 0.0
C291 C 0.4764 0.28414 0.1987 0.0
C292 C 0.45455 0.24901 0.11214 0.0
C293 C 0.41369 0.2415 0.89455 0.0
H294 H 0.38235 0.24278 0.88634 0.0
H295 H 0.40546 0.20605 0.89481 0.0
H296 H 0.43481 0.25864 0.80816 0.0
O297 O 0.50577 0.40151 0.91541 0.0
O298 O 0.543 0.4211 0.10709 0.0
H299 H 0.51707 0.26302 0.30261 0.0
H300 H 0.48166 0.27505 0.40306 0.0
C301 C 0.50343 0.28585 0.31522 0.0
H302 H 0.53119 0.32049 0.33133 0.0
H303 H 0.549 0.40645 0.51337 0.0
O304 O 0.4074 0.32395 0.80476 0.0
C305 C 0.54132 0.42556 0.98142 0.0
Co306 Co 0.09322 0.44347 0.12466 0.0
Co307 Co 0.11907 0.49213 0.39641 0.0
C308 C 0.02568 0.4184 0.33763 0.0
O309 O 0.0348 0.41033 0.22381 0.0
O310 O 0.05496 0.45005 0.40442 0.0
C311 C 0.09095 0.40584 0.84925 0.0
O312 O 0.07956 0.36687 0.79703 0.0
C313 C 0.11148 0.44601 0.63008 0.0
C314 C 0.12424 0.49034 0.79821 0.0
C315 C 0.10954 0.44619 0.76491 0.0
N316 N 0.12581 0.48764 0.58364 0.0
N317 N 0.13392 0.51425 0.68567 0.0
C318 C 0.09608 0.40482 0.5472 0.0
H319 H 0.09726 0.41105 0.44184 0.0
H320 H 0.11719 0.38968 0.56804 0.0
H321 H 0.06093 0.37994 0.5716 0.0
C322 C 0.17453 0.43715 0.18268 0.0
N323 N 0.14337 0.44833 0.21363 0.0
N324 N 0.1553 0.47139 0.32264 0.0
C325 C 0.19402 0.47546 0.36533 0.0
C326 C 0.20729 0.45359 0.27877 0.0
C327 C 0.17394 0.41275 0.06118 0.0
H328 H 0.14129 0.38141 0.05297 0.0
H329 H 0.20113 0.40449 0.06143 0.0
H330 H 0.17792 0.43387 0.97479 0.0
O331 O 0.10607 0.50489 0.08206 0.0
O332 O 0.12372 0.54212 0.27375 0.0
H333 H 0.25583 0.51611 0.46924 0.0
H334 H 0.20838 0.48071 0.56969 0.0
C335 C 0.21936 0.50249 0.48185 0.0
H336 H 0.2125 0.53026 0.49797 0.0
H337 H 0.14436 0.54811 0.68001 0.0
O338 O 0.08522 0.40651 0.97138 0.0
C339 C 0.11757 0.54044 0.14808 0.0
Co340 Co 0.65157 0.0923 0.29142 0.0
Co341 Co 0.62877 0.11816 0.56318 0.0
C342 C 0.60908 0.02476 0.50438 0.0
O343 O 0.62627 0.03387 0.39057 0.0
O344 O 0.60672 0.05405 0.57117 0.0
C345 C 0.68693 0.09001 1.016 0.0
O346 O 0.7145 0.07861 0.96377 0.0
C347 C 0.66729 0.11055 0.79684 0.0
C348 C 0.63576 0.12335 0.96499 0.0
C349 C 0.66518 0.10862 0.93167 0.0
N350 N 0.64001 0.1249 0.75041 0.0
N351 N 0.62154 0.13304 0.85245 0.0
C352 C 0.69307 0.09513 0.71395 0.0
H353 H 0.68803 0.09632 0.60859 0.0
H354 H 0.72932 0.11623 0.73479 0.0
H355 H 0.68279 0.05998 0.73834 0.0
C356 C 0.73921 0.1736 0.34943 0.0
N357 N 0.69687 0.14244 0.3804 0.0
N358 N 0.68575 0.15438 0.48941 0.0
C359 C 0.7204 0.1931 0.53209 0.0
C360 C 0.75553 0.20636 0.44552 0.0
C361 C 0.76301 0.17301 0.22791 0.0
H362 H 0.76171 0.14037 0.21969 0.0
H363 H 0.79846 0.20021 0.22815 0.0
H364 H 0.74587 0.17699 0.14153 0.0
O365 O 0.60301 0.10516 0.24882 0.0
O366 O 0.58344 0.12282 0.4405 0.0
H367 H 0.74155 0.25491 0.636 0.0
H368 H 0.7295 0.20746 0.73645 0.0
C369 C 0.71871 0.21844 0.64861 0.0
H370 H 0.68407 0.21158 0.66472 0.0
H371 H 0.59813 0.1435 0.84681 0.0
O372 O 0.68053 0.08428 0.13814 0.0
C373 C 0.57897 0.11667 0.31484 0.0
Co374 Co 0.56099 0.65066 0.45802 0.0
Co375 Co 0.51233 0.62784 0.72978 0.0
C376 C 0.58608 0.60821 0.67097 0.0
O377 O 0.59415 0.6254 0.55716 0.0
O378 O 0.55442 0.60582 0.73776 0.0
C379 C 0.59862 0.68603 0.18261 0.0
O380 O 0.63758 0.71362 0.13039 0.0
C381 C 0.55845 0.66637 0.96345 0.0
C382 C 0.51412 0.63481 0.13159 0.0
C383 C 0.55827 0.66426 0.09827 0.0
N384 N 0.51682 0.63907 0.91702 0.0
N385 N 0.49022 0.62057 1.01905 0.0
C386 C 0.59963 0.69218 0.88056 0.0
H387 H 0.59341 0.68713 0.7752 0.0
H388 H 0.61477 0.72843 0.9014 0.0
H389 H 0.62453 0.68193 0.90495 0.0
C390 C 0.56727 0.73827 0.51606 0.0
N391 N 0.55611 0.69594 0.54701 0.0
N392 N 0.53305 0.6848 0.65602 0.0
C393 C 0.52896 0.71944 0.69872 0.0
C394 C 0.55081 0.75457 0.61215 0.0
C395 C 0.59167 0.76209 0.39456 0.0
H396 H 0.62301 0.7608 0.38634 0.0
H397 H 0.59991 0.79754 0.39482 0.0
H398 H 0.57055 0.74495 0.30817 0.0
O399 O 0.49958 0.60208 0.41542 0.0
O400 O 0.46235 0.58249 0.6071 0.0
H401 H 0.48829 0.74057 0.80264 0.0
H402 H 0.5237 0.72854 0.90308 0.0
C403 C 0.50192 0.71774 0.81524 0.0
H404 H 0.47416 0.6831 0.83135 0.0
H405 H 0.45635 0.59714 1.0134 0.0
O406 O 0.59796 0.67963 0.30474 0.0
C407 C 0.46404 0.57802 0.48144 0.0
loop_
_geom_bond_atom_site_label_1
_geom_bond_atom_site_label_2
_geom_bond_distance
_geom_bond_site_symmetry_2
_ccdc_geom_bond_type
Co0 O3 1.970 . S
Co0 N17 1.989 . S
Co0 O25 1.967 . S
Co0 O32 1.920 . S
Co1 O4 1.966 . S
Co1 N10 2.022 . S
Co1 N18 1.993 1_556 S
Co1 O26 1.941 1_556 S
C2 O3 1.258 . S
C2 O4 1.263 1_554 S
O3 Co0 1.970 . S
O3 C2 1.258 . S
O4 Co1 1.966 . S
O4 C2 1.263 1_556 S
C5 O6 1.235 . S
C5 O32 1.289 . S
O6 C5 1.235 . S
C7 C9 1.400 . S
C7 N10 1.351 . S
C7 C12 1.501 . S
C8 C9 1.387 . S
C8 N11 1.341 . S
C9 C7 1.400 . S
C9 C8 1.387 . S
N10 Co1 2.022 . S
N10 C7 1.351 . S
N10 N11 1.365 . S
N11 C8 1.341 . S
N11 N10 1.365 . S
N11 H31 0.862 . S
C12 C7 1.501 . S
C12 H13 0.961 . S
C12 H14 0.961 . S
C12 H15 0.960 . S
H13 C12 0.961 . S
H14 C12 0.961 . S
H15 C12 0.960 . S
C16 N17 1.342 . S
C16 C20 1.401 . S
C16 C21 1.499 . S
N17 Co0 1.989 . S
N17 C16 1.342 . S
N17 N18 1.388 . S
N18 Co1 1.993 1_554 S
N18 N17 1.388 . S
N18 C19 1.346 . S
C19 N18 1.346 . S
C19 C20 1.396 . S
C19 C29 1.510 1_554 S
C20 C16 1.401 . S
C20 C19 1.396 . S
C21 C16 1.499 . S
C21 H22 0.959 . S
C21 H23 0.960 . S
C21 H24 0.961 . S
H22 C21 0.959 . S
H23 C21 0.960 . S
H24 C21 0.961 . S
O25 Co0 1.967 . S
O25 C33 1.258 . S
O26 Co1 1.941 1_554 S
O26 C33 1.266 . S
H27 C29 0.959 . S
H28 C29 0.961 . S
C29 C19 1.510 1_556 S
C29 H27 0.959 . S
C29 H28 0.961 . S
C29 H30 0.960 . S
H30 C29 0.960 . S
H31 N11 0.862 . S
O32 Co0 1.920 . S
O32 C5 1.289 . S
C33 O25 1.258 . S
C33 O26 1.266 . S
Co34 O37 1.970 . S
Co34 N51 1.989 . S
Co34 O59 1.967 . S
Co34 O66 1.920 . S
Co35 O38 1.966 . S
Co35 N44 2.022 1_554 S
Co35 N52 1.993 . S
Co35 O60 1.941 . S
C36 O37 1.258 . S
C36 O38 1.263 . S
O37 Co34 1.970 . S
O37 C36 1.258 . S
O38 Co35 1.966 . S
O38 C36 1.263 . S
C39 O40 1.235 . S
C39 O66 1.289 . S
O40 C39 1.235 . S
C41 C43 1.400 . S
C41 N44 1.351 . S
C41 C46 1.501 . S
C42 C43 1.387 . S
C42 N45 1.341 . S
C43 C41 1.400 . S
C43 C42 1.387 . S
N44 Co35 2.022 1_556 S
N44 C41 1.351 . S
N44 N45 1.365 . S
N45 C42 1.341 . S
N45 N44 1.365 . S
N45 H65 0.862 . S
C46 C41 1.501 . S
C46 H47 0.961 . S
C46 H48 0.961 . S
C46 H49 0.960 . S
H47 C46 0.961 . S
H48 C46 0.961 . S
H49 C46 0.960 . S
C50 N51 1.342 . S
C50 C54 1.401 . S
C50 C55 1.499 . S
N51 Co34 1.989 . S
N51 C50 1.342 . S
N51 N52 1.388 . S
N52 Co35 1.993 . S
N52 N51 1.388 . S
N52 C53 1.346 . S
C53 N52 1.346 . S
C53 C54 1.396 . S
C53 C63 1.510 . S
C54 C50 1.401 . S
C54 C53 1.396 . S
C55 C50 1.499 . S
C55 H56 0.959 . S
C55 H57 0.960 . S
C55 H58 0.961 . S
H56 C55 0.959 . S
H57 C55 0.960 . S
H58 C55 0.961 . S
O59 Co34 1.967 . S
O59 C67 1.258 . S
O60 Co35 1.941 . S
O60 C67 1.266 . S
H61 C63 0.959 . S
H62 C63 0.961 . S
C63 C53 1.510 . S
C63 H61 0.959 . S
C63 H62 0.961 . S
C63 H64 0.960 1_554 S
H64 C63 0.960 1_556 S
H65 N45 0.862 . S
O66 Co34 1.920 . S
O66 C39 1.289 . S
C67 O59 1.258 . S
C67 O60 1.266 . S
Co68 O71 1.970 . S
Co68 N85 1.989 . S
Co68 O93 1.967 . S
Co68 O100 1.920 . S
Co69 O72 1.966 . S
Co69 N78 2.022 . S
Co69 N86 1.993 . S
Co69 O94 1.941 . S
C70 O71 1.258 . S
C70 O72 1.263 . S
O71 Co68 1.970 . S
O71 C70 1.258 . S
O72 Co69 1.966 . S
O72 C70 1.263 . S
C73 O74 1.235 . S
C73 O100 1.289 . S
O74 C73 1.235 . S
C75 C77 1.400 1_554 S
C75 N78 1.351 . S
C75 C80 1.501 . S
C76 C77 1.387 . S
C76 N79 1.341 1_556 S
C77 C75 1.400 1_556 S
C77 C76 1.387 . S
N78 Co69 2.022 . S
N78 C75 1.351 . S
N78 N79 1.365 . S
N79 C76 1.341 1_554 S
N79 N78 1.365 . S
N79 H99 0.862 . S
C80 C75 1.501 . S
C80 H81 0.961 . S
C80 H82 0.961 . S
C80 H83 0.960 1_554 S
H81 C80 0.961 . S
H82 C80 0.961 . S
H83 C80 0.960 1_556 S
C84 N85 1.342 . S
C84 C88 1.401 . S
C84 C89 1.499 . S
N85 Co68 1.989 . S
N85 C84 1.342 . S
N85 N86 1.388 . S
N86 Co69 1.993 . S
N86 N85 1.388 . S
N86 C87 1.346 . S
C87 N86 1.346 . S
C87 C88 1.396 . S
C87 C97 1.510 . S
C88 C84 1.401 . S
C88 C87 1.396 . S
C89 C84 1.499 . S
C89 H90 0.959 . S
C89 H91 0.960 . S
C89 H92 0.961 . S
H90 C89 0.959 . S
H91 C89 0.960 . S
H92 C89 0.961 . S
O93 Co68 1.967 . S
O93 C101 1.258 . S
O94 Co69 1.941 . S
O94 C101 1.266 . S
H95 C97 0.959 . S
H96 C97 0.961 . S
C97 C87 1.510 . S
C97 H95 0.959 . S
C97 H96 0.961 . S
C97 H98 0.960 . S
H98 C97 0.960 . S
H99 N79 0.862 . S
O100 Co68 1.920 . S
O100 C73 1.289 . S
C101 O93 1.258 . S
C101 O94 1.266 . S
Co102 O105 1.970 . S
Co102 N119 1.989 . S
Co102 O127 1.967 . S
Co102 O134 1.920 . S
Co103 O106 1.966 . S
Co103 N112 2.022 . S
Co103 N120 1.993 . S
Co103 O128 1.941 . S
C104 O105 1.258 . S
C104 O106 1.263 . S
O105 Co102 1.970 . S
O105 C104 1.258 . S
O106 Co103 1.966 . S
O106 C104 1.263 . S
C107 O108 1.235 . S
C107 O134 1.289 . S
O108 C107 1.235 . S
C109 C111 1.400 . S
C109 N112 1.351 . S
C109 C114 1.501 . S
C110 C111 1.387 . S
C110 N113 1.341 . S
C111 C109 1.400 . S
C111 C110 1.387 . S
N112 Co103 2.022 . S
N112 C109 1.351 . S
N112 N113 1.365 . S
N113 C110 1.341 . S
N113 N112 1.365 . S
N113 H133 0.862 . S
C114 C109 1.501 . S
C114 H115 0.961 . S
C114 H116 0.961 . S
C114 H117 0.960 . S
H115 C114 0.961 . S
H116 C114 0.961 . S
H117 C114 0.960 . S
C118 N119 1.342 . S
C118 C122 1.401 . S
C118 C123 1.499 . S
N119 Co102 1.989 . S
N119 C118 1.342 . S
N119 N120 1.388 . S
N120 Co103 1.993 . S
N120 N119 1.388 . S
N120 C121 1.346 . S
C121 N120 1.346 . S
C121 C122 1.396 . S
C121 C131 1.510 . S
C122 C118 1.401 . S
C122 C121 1.396 . S
C123 C118 1.499 . S
C123 H124 0.959 . S
C123 H125 0.960 . S
C123 H126 0.961 . S
H124 C123 0.959 . S
H125 C123 0.960 . S
H126 C123 0.961 . S
O127 Co102 1.967 . S
O127 C135 1.258 . S
O128 Co103 1.941 . S
O128 C135 1.266 . S
H129 C131 0.959 . S
H130 C131 0.961 . S
C131 C121 1.510 . S
C131 H129 0.959 . S
C131 H130 0.961 . S
C131 H132 0.960 . S
H132 C131 0.960 . S
H133 N113 0.862 . S
O134 Co102 1.920 . S
O134 C107 1.289 . S
C135 O127 1.258 . S
C135 O128 1.266 . S
Co136 O139 1.970 . S
Co136 N153 1.989 . S
Co136 O161 1.967 . S
Co136 O168 1.920 1_556 S
Co137 O140 1.966 . S
Co137 N146 2.022 . S
Co137 N154 1.993 . S
Co137 O162 1.941 . S
C138 O139 1.258 . S
C138 O140 1.263 . S
O139 Co136 1.970 . S
O139 C138 1.258 . S
O140 Co137 1.966 . S
O140 C138 1.263 . S
C141 O142 1.235 . S
C141 O168 1.289 . S
O142 C141 1.235 . S
C143 C145 1.400 . S
C143 N146 1.351 . S
C143 C148 1.501 . S
C144 C145 1.387 . S
C144 N147 1.341 . S
C145 C143 1.400 . S
C145 C144 1.387 . S
N146 Co137 2.022 . S
N146 C143 1.351 . S
N146 N147 1.365 . S
N147 C144 1.341 . S
N147 N146 1.365 . S
N147 H167 0.862 . S
C148 C143 1.501 . S
C148 H149 0.961 . S
C148 H150 0.961 . S
C148 H151 0.960 . S
H149 C148 0.961 . S
H150 C148 0.961 . S
H151 C148 0.960 . S
C152 N153 1.342 . S
C152 C156 1.401 . S
C152 C157 1.499 1_556 S
N153 Co136 1.989 . S
N153 C152 1.342 . S
N153 N154 1.388 . S
N154 Co137 1.993 . S
N154 N153 1.388 . S
N154 C155 1.346 . S
C155 N154 1.346 . S
C155 C156 1.396 . S
C155 C165 1.510 . S
C156 C152 1.401 . S
C156 C155 1.396 . S
C157 C152 1.499 1_554 S
C157 H158 0.959 . S
C157 H159 0.960 . S
C157 H160 0.961 . S
H158 C157 0.959 . S
H159 C157 0.960 . S
H160 C157 0.961 . S
O161 Co136 1.967 . S
O161 C169 1.258 . S
O162 Co137 1.941 . S
O162 C169 1.266 . S
H163 C165 0.959 . S
H164 C165 0.961 . S
C165 C155 1.510 . S
C165 H163 0.959 . S
C165 H164 0.961 . S
C165 H166 0.960 . S
H166 C165 0.960 . S
H167 N147 0.862 . S
O168 Co136 1.920 1_554 S
O168 C141 1.289 . S
C169 O161 1.258 . S
C169 O162 1.266 . S
Co170 O173 1.970 . S
Co170 N187 1.989 . S
Co170 O195 1.967 . S
Co170 O202 1.920 . S
Co171 O174 1.966 . S
Co171 N180 2.022 . S
Co171 N188 1.993 . S
Co171 O196 1.941 . S
C172 O173 1.258 1_556 S
C172 O174 1.263 . S
O173 Co170 1.970 . S
O173 C172 1.258 1_554 S
O174 Co171 1.966 . S
O174 C172 1.263 . S
C175 O176 1.235 . S
C175 O202 1.289 . S
O176 C175 1.235 . S
C177 C179 1.400 . S
C177 N180 1.351 . S
C177 C182 1.501 . S
C178 C179 1.387 . S
C178 N181 1.341 . S
C179 C177 1.400 . S
C179 C178 1.387 . S
N180 Co171 2.022 . S
N180 C177 1.351 . S
N180 N181 1.365 . S
N181 C178 1.341 . S
N181 N180 1.365 . S
N181 H201 0.862 . S
C182 C177 1.501 . S
C182 H183 0.961 . S
C182 H184 0.961 . S
C182 H185 0.960 . S
H183 C182 0.961 . S
H184 C182 0.961 . S
H185 C182 0.960 . S
C186 N187 1.342 . S
C186 C190 1.401 1_554 S
C186 C191 1.499 . S
N187 Co170 1.989 . S
N187 C186 1.342 . S
N187 N188 1.388 1_554 S
N188 Co171 1.993 . S
N188 N187 1.388 1_556 S
N188 C189 1.346 . S
C189 N188 1.346 . S
C189 C190 1.396 . S
C189 C199 1.510 . S
C190 C186 1.401 1_556 S
C190 C189 1.396 . S
C191 C186 1.499 . S
C191 H192 0.959 . S
C191 H193 0.960 . S
C191 H194 0.961 . S
H192 C191 0.959 . S
H193 C191 0.960 . S
H194 C191 0.961 . S
O195 Co170 1.967 . S
O195 C203 1.258 1_554 S
O196 Co171 1.941 . S
O196 C203 1.266 . S
H197 C199 0.959 . S
H198 C199 0.961 . S
C199 C189 1.510 . S
C199 H197 0.959 . S
C199 H198 0.961 . S
C199 H200 0.960 . S
H200 C199 0.960 . S
H201 N181 0.862 . S
O202 Co170 1.920 . S
O202 C175 1.289 . S
C203 O195 1.258 1_556 S
C203 O196 1.266 . S
Co204 O207 1.970 . S
Co204 N221 1.989 . S
Co204 O229 1.967 . S
Co204 O236 1.920 . S
Co205 O208 1.966 . S
Co205 N214 2.022 1_556 S
Co205 N222 1.993 . S
Co205 O230 1.941 . S
C206 O207 1.258 . S
C206 O208 1.263 . S
O207 Co204 1.970 . S
O207 C206 1.258 . S
O208 Co205 1.966 . S
O208 C206 1.263 . S
C209 O210 1.235 . S
C209 O236 1.289 . S
O210 C209 1.235 . S
C211 C213 1.400 . S
C211 N214 1.351 . S
C211 C216 1.501 . S
C212 C213 1.387 . S
C212 N215 1.341 . S
C213 C211 1.400 . S
C213 C212 1.387 . S
N214 Co205 2.022 1_554 S
N214 C211 1.351 . S
N214 N215 1.365 . S
N215 C212 1.341 . S
N215 N214 1.365 . S
N215 H235 0.862 . S
C216 C211 1.501 . S
C216 H217 0.961 . S
C216 H218 0.961 . S
C216 H219 0.960 . S
H217 C216 0.961 . S
H218 C216 0.961 . S
H219 C216 0.960 . S
C220 N221 1.342 . S
C220 C224 1.401 . S
C220 C225 1.499 . S
N221 Co204 1.989 . S
N221 C220 1.342 . S
N221 N222 1.388 . S
N222 Co205 1.993 . S
N222 N221 1.388 . S
N222 C223 1.346 . S
C223 N222 1.346 . S
C223 C224 1.396 . S
C223 C233 1.510 . S
C224 C220 1.401 . S
C224 C223 1.396 . S
C225 C220 1.499 . S
C225 H226 0.959 . S
C225 H227 0.960 . S
C225 H228 0.961 . S
H226 C225 0.959 . S
H227 C225 0.960 . S
H228 C225 0.961 . S
O229 Co204 1.967 . S
O229 C237 1.258 . S
O230 Co205 1.941 . S
O230 C237 1.266 . S
H231 C233 0.959 . S
H232 C233 0.961 . S
C233 C223 1.510 . S
C233 H231 0.959 . S
C233 H232 0.961 . S
C233 H234 0.960 1_556 S
H234 C233 0.960 1_554 S
H235 N215 0.862 . S
O236 Co204 1.920 . S
O236 C209 1.289 . S
C237 O229 1.258 . S
C237 O230 1.266 . S
Co238 O241 1.970 . S
Co238 N255 1.989 . S
Co238 O263 1.967 . S
Co238 O270 1.920 . S
Co239 O242 1.966 . S
Co239 N248 2.022 . S
Co239 N256 1.993 1_554 S
Co239 O264 1.941 1_554 S
C240 O241 1.258 . S
C240 O242 1.263 1_556 S
O241 Co238 1.970 . S
O241 C240 1.258 . S
O242 Co239 1.966 . S
O242 C240 1.263 1_554 S
C243 O244 1.235 . S
C243 O270 1.289 . S
O244 C243 1.235 . S
C245 C247 1.400 . S
C245 N248 1.351 . S
C245 C250 1.501 . S
C246 C247 1.387 . S
C246 N249 1.341 . S
C247 C245 1.400 . S
C247 C246 1.387 . S
N248 Co239 2.022 . S
N248 C245 1.351 . S
N248 N249 1.365 . S
N249 C246 1.341 . S
N249 N248 1.365 . S
N249 H269 0.862 . S
C250 C245 1.501 . S
C250 H251 0.961 . S
C250 H252 0.961 . S
C250 H253 0.960 . S
H251 C250 0.961 . S
H252 C250 0.961 . S
H253 C250 0.960 . S
C254 N255 1.342 . S
C254 C258 1.401 . S
C254 C259 1.499 . S
N255 Co238 1.989 . S
N255 C254 1.342 . S
N255 N256 1.388 . S
N256 Co239 1.993 1_556 S
N256 N255 1.388 . S
N256 C257 1.346 . S
C257 N256 1.346 . S
C257 C258 1.396 . S
C257 C267 1.510 1_556 S
C258 C254 1.401 . S
C258 C257 1.396 . S
C259 C254 1.499 . S
C259 H260 0.959 . S
C259 H261 0.960 . S
C259 H262 0.961 . S
H260 C259 0.959 . S
H261 C259 0.960 . S
H262 C259 0.961 . S
O263 Co238 1.967 . S
O263 C271 1.258 . S
O264 Co239 1.941 1_556 S
O264 C271 1.266 . S
H265 C267 0.959 . S
H266 C267 0.961 . S
C267 C257 1.510 1_554 S
C267 H265 0.959 . S
C267 H266 0.961 . S
C267 H268 0.960 . S
H268 C267 0.960 . S
H269 N249 0.862 . S
O270 Co238 1.920 . S
O270 C243 1.289 . S
C271 O263 1.258 . S
C271 O264 1.266 . S
Co272 O275 1.970 . S
Co272 N289 1.989 . S
Co272 O297 1.967 . S
Co272 O304 1.920 . S
Co273 O276 1.966 . S
Co273 N282 2.022 . S
Co273 N290 1.993 . S
Co273 O298 1.941 . S
C274 O275 1.258 1_554 S
C274 O276 1.263 . S
O275 Co272 1.970 . S
O275 C274 1.258 1_556 S
O276 Co273 1.966 . S
O276 C274 1.263 . S
C277 O278 1.235 . S
C277 O304 1.289 . S
O278 C277 1.235 . S
C279 C281 1.400 . S
C279 N282 1.351 . S
C279 C284 1.501 . S
C280 C281 1.387 . S
C280 N283 1.341 . S
C281 C279 1.400 . S
C281 C280 1.387 . S
N282 Co273 2.022 . S
N282 C279 1.351 . S
N282 N283 1.365 . S
N283 C280 1.341 . S
N283 N282 1.365 . S
N283 H303 0.862 . S
C284 C279 1.501 . S
C284 H285 0.961 . S
C284 H286 0.961 . S
C284 H287 0.960 . S
H285 C284 0.961 . S
H286 C284 0.961 . S
H287 C284 0.960 . S
C288 N289 1.342 . S
C288 C292 1.401 1_556 S
C288 C293 1.499 . S
N289 Co272 1.989 . S
N289 C288 1.342 . S
N289 N290 1.388 1_556 S
N290 Co273 1.993 . S
N290 N289 1.388 1_554 S
N290 C291 1.346 . S
C291 N290 1.346 . S
C291 C292 1.396 . S
C291 C301 1.510 . S
C292 C288 1.401 1_554 S
C292 C291 1.396 . S
C293 C288 1.499 . S
C293 H294 0.959 . S
C293 H295 0.960 . S
C293 H296 0.961 . S
H294 C293 0.959 . S
H295 C293 0.960 . S
H296 C293 0.961 . S
O297 Co272 1.967 . S
O297 C305 1.258 1_556 S
O298 Co273 1.941 . S
O298 C305 1.266 . S
H299 C301 0.959 . S
H300 C301 0.961 . S
C301 C291 1.510 . S
C301 H299 0.959 . S
C301 H300 0.961 . S
C301 H302 0.960 . S
H302 C301 0.960 . S
H303 N283 0.862 . S
O304 Co272 1.920 . S
O304 C277 1.289 . S
C305 O297 1.258 1_554 S
C305 O298 1.266 . S
Co306 O309 1.970 . S
Co306 N323 1.989 . S
Co306 O331 1.967 . S
Co306 O338 1.920 1_554 S
Co307 O310 1.966 . S
Co307 N316 2.022 . S
Co307 N324 1.993 . S
Co307 O332 1.941 . S
C308 O309 1.258 . S
C308 O310 1.263 . S
O309 Co306 1.970 . S
O309 C308 1.258 . S
O310 Co307 1.966 . S
O310 C308 1.263 . S
C311 O312 1.235 . S
C311 O338 1.289 . S
O312 C311 1.235 . S
C313 C315 1.400 . S
C313 N316 1.351 . S
C313 C318 1.501 . S
C314 C315 1.387 . S
C314 N317 1.341 . S
C315 C313 1.400 . S
C315 C314 1.387 . S
N316 Co307 2.022 . S
N316 C313 1.351 . S
N316 N317 1.365 . S
N317 C314 1.341 . S
N317 N316 1.365 . S
N317 H337 0.862 . S
C318 C313 1.501 . S
C318 H319 0.961 . S
C318 H320 0.961 . S
C318 H321 0.960 . S
H319 C318 0.961 . S
H320 C318 0.961 . S
H321 C318 0.960 . S
C322 N323 1.342 . S
C322 C326 1.401 . S
C322 C327 1.499 1_554 S
N323 Co306 1.989 . S
N323 C322 1.342 . S
N323 N324 1.388 . S
N324 Co307 1.993 . S
N324 N323 1.388 . S
N324 C325 1.346 . S
C325 N324 1.346 . S
C325 C326 1.396 . S
C325 C335 1.510 . S
C326 C322 1.401 . S
C326 C325 1.396 . S
C327 C322 1.499 1_556 S
C327 H328 0.959 . S
C327 H329 0.960 . S
C327 H330 0.961 . S
H328 C327 0.959 . S
H329 C327 0.960 . S
H330 C327 0.961 . S
O331 Co306 1.967 . S
O331 C339 1.258 . S
O332 Co307 1.941 . S
O332 C339 1.266 . S
H333 C335 0.959 . S
H334 C335 0.961 . S
C335 C325 1.510 . S
C335 H333 0.959 . S
C335 H334 0.961 . S
C335 H336 0.960 . S
H336 C335 0.960 . S
H337 N317 0.862 . S
O338 Co306 1.920 1_556 S
O338 C311 1.289 . S
C339 O331 1.258 . S
C339 O332 1.266 . S
Co340 O343 1.970 . S
Co340 N357 1.989 . S
Co340 O365 1.967 . S
Co340 O372 1.920 . S
Co341 O344 1.966 . S
Co341 N350 2.022 . S
Co341 N358 1.993 . S
Co341 O366 1.941 . S
C342 O343 1.258 . S
C342 O344 1.263 . S
O343 Co340 1.970 . S
O343 C342 1.258 . S
O344 Co341 1.966 . S
O344 C342 1.263 . S
C345 O346 1.235 . S
C345 O372 1.289 . S
O346 C345 1.235 . S
C347 C349 1.400 . S
C347 N350 1.351 . S
C347 C352 1.501 . S
C348 C349 1.387 . S
C348 N351 1.341 . S
C349 C347 1.400 . S
C349 C348 1.387 . S
N350 Co341 2.022 . S
N350 C347 1.351 . S
N350 N351 1.365 . S
N351 C348 1.341 . S
N351 N350 1.365 . S
N351 H371 0.862 . S
C352 C347 1.501 . S
C352 H353 0.961 . S
C352 H354 0.961 . S
C352 H355 0.960 . S
H353 C352 0.961 . S
H354 C352 0.961 . S
H355 C352 0.960 . S
C356 N357 1.342 . S
C356 C360 1.401 . S
C356 C361 1.499 . S
N357 Co340 1.989 . S
N357 C356 1.342 . S
N357 N358 1.388 . S
N358 Co341 1.993 . S
N358 N357 1.388 . S
N358 C359 1.346 . S
C359 N358 1.346 . S
C359 C360 1.396 . S
C359 C369 1.510 . S
C360 C356 1.401 . S
C360 C359 1.396 . S
C361 C356 1.499 . S
C361 H362 0.959 . S
C361 H363 0.960 . S
C361 H364 0.961 . S
H362 C361 0.959 . S
H363 C361 0.960 . S
H364 C361 0.961 . S
O365 Co340 1.967 . S
O365 C373 1.258 . S
O366 Co341 1.941 . S
O366 C373 1.266 . S
H367 C369 0.959 . S
H368 C369 0.961 . S
C369 C359 1.510 . S
C369 H367 0.959 . S
C369 H368 0.961 . S
C369 H370 0.960 . S
H370 C369 0.960 . S
H371 N351 0.862 . S
O372 Co340 1.920 . S
O372 C345 1.289 . S
C373 O365 1.258 . S
C373 O366 1.266 . S
Co374 O377 1.970 . S
Co374 N391 1.989 . S
Co374 O399 1.967 . S
Co374 O406 1.920 . S
Co375 O378 1.966 . S
Co375 N384 2.022 . S
Co375 N392 1.993 . S
Co375 O400 1.941 . S
C376 O377 1.258 . S
C376 O378 1.263 . S
O377 Co374 1.970 . S
O377 C376 1.258 . S
O378 Co375 1.966 . S
O378 C376 1.263 . S
C379 O380 1.235 . S
C379 O406 1.289 . S
O380 C379 1.235 . S
C381 C383 1.400 1_556 S
C381 N384 1.351 . S
C381 C386 1.501 . S
C382 C383 1.387 . S
C382 N385 1.341 1_554 S
C383 C381 1.400 1_554 S
C383 C382 1.387 . S
N384 Co375 2.022 . S
N384 C381 1.351 . S
N384 N385 1.365 . S
N385 C382 1.341 1_556 S
N385 N384 1.365 . S
N385 H405 0.862 . S
C386 C381 1.501 . S
C386 H387 0.961 . S
C386 H388 0.961 . S
C386 H389 0.960 1_556 S
H387 C386 0.961 . S
H388 C386 0.961 . S
H389 C386 0.960 1_554 S
C390 N391 1.342 . S
C390 C394 1.401 . S
C390 C395 1.499 . S
N391 Co374 1.989 . S
N391 C390 1.342 . S
N391 N392 1.388 . S
N392 Co375 1.993 . S
N392 N391 1.388 . S
N392 C393 1.346 . S
C393 N392 1.346 . S
C393 C394 1.396 . S
C393 C403 1.510 . S
C394 C390 1.401 . S
C394 C393 1.396 . S
C395 C390 1.499 . S
C395 H396 0.959 . S
C395 H397 0.960 . S
C395 H398 0.961 . S
H396 C395 0.959 . S
H397 C395 0.960 . S
H398 C395 0.961 . S
O399 Co374 1.967 . S
O399 C407 1.258 . S
O400 Co375 1.941 . S
O400 C407 1.266 . S
H401 C403 0.959 . S
H402 C403 0.961 . S
C403 C393 1.510 . S
C403 H401 0.959 . S
C403 H402 0.961 . S
C403 H404 0.960 . S
H404 C403 0.960 . S
H405 N385 0.862 . S
O406 Co374 1.920 . S
O406 C379 1.289 . S
C407 O399 1.258 . S
C407 O400 1.266 . S
C292 C20 1.588 . S
C326 C54 1.588 . S
C360 C88 1.588 . S
C394 C122 1.588 . S
C156 C224 1.588 . S
C258 C190 1.588 . S
C9 C5 2.426 . S
C39 C43 2.426 . S
C73 C77 2.426 . S
C107 C111 2.426 1_556 S
C141 C145 2.426 . S
C175 C179 2.426 . S
C213 C209 2.426 . S
C243 C247 2.426 . S
C281 C277 2.426 . S
C315 C311 2.426 . S
C349 C345 2.426 1_556 S
C379 C383 2.426 . S
C33 C373 2.159 . S
C67 C407 2.159 . S
C101 C237 2.159 . S
C271 C135 2.159 . S
C305 C169 2.159 1_554 S
C339 C203 2.159 1_554 S
C2 C240 2.192 1_544 S
C274 C36 2.192 . S
C308 C70 2.192 1_455 S
C104 C342 2.192 1_565 S
C376 C138 2.192 . S
C172 C206 2.192 1_455 S
