# Generated by pormake.
# Topology smb, (6)-cn, num edge types: 1
# Building blocks:
#     Node 0, Type 0, BuildingBlock: IZENUY_clean_sbu_0, # of connection points: 6
#     Node 1, Type 0, BuildingBlock: IZENUY_clean_sbu_0, # of connection points: 6
#     Node 2, Type 0, BuildingBlock: IZENUY_clean_sbu_0, # of connection points: 6
#     Node 3, Type 0, BuildingBlock: IZENUY_clean_sbu_0, # of connection points: 6
#     Node 4, Type 0, BuildingBlock: IZENUY_clean_sbu_0, # of connection points: 6
#     Node 5, Type 0, BuildingBlock: IZENUY_clean_sbu_0, # of connection points: 6
#     Node 6, Type 0, BuildingBlock: IZENUY_clean_sbu_0, # of connection points: 6
#     Node 7, Type 0, BuildingBlock: IZENUY_clean_sbu_0, # of connection points: 6
#     Node 8, Type 0, BuildingBlock: IZENUY_clean_sbu_0, # of connection points: 6
#     Edge 9, Type (0, 0), BuildingBlock: CIFDUS_clean_linker_0, # of connection points: 2
#     Edge 10, Type (0, 0), BuildingBlock: CIFDUS_clean_linker_0, # of connection points: 2
#     Edge 11, Type (0, 0), BuildingBlock: CIFDUS_clean_linker_0, # of connection points: 2
#     Edge 12, Type (0, 0), BuildingBlock: CIFDUS_clean_linker_0, # of connection points: 2
#     Edge 13, Type (0, 0), BuildingBlock: CIFDUS_clean_linker_0, # of connection points: 2
#     Edge 14, Type (0, 0), BuildingBlock: CIFDUS_clean_linker_0, # of connection points: 2
#     Edge 15, Type (0, 0), BuildingBlock: CIFDUS_clean_linker_0, # of connection points: 2
#     Edge 16, Type (0, 0), BuildingBlock: CIFDUS_clean_linker_0, # of connection points: 2
#     Edge 17, Type (0, 0), BuildingBlock: CIFDUS_clean_linker_0, # of connection points: 2
#     Edge 18, Type (0, 0), BuildingBlock: CIFDUS_clean_linker_0, # of connection points: 2
#     Edge 19, Type (0, 0), BuildingBlock: CIFDUS_clean_linker_0, # of connection points: 2
#     Edge 20, Type (0, 0), BuildingBlock: CIFDUS_clean_linker_0, # of connection points: 2
#     Edge 21, Type (0, 0), BuildingBlock: CIFDUS_clean_linker_0, # of connection points: 2
#     Edge 22, Type (0, 0), BuildingBlock: CIFDUS_clean_linker_0, # of connection points: 2
#     Edge 23, Type (0, 0), BuildingBlock: CIFDUS_clean_linker_0, # of connection points: 2
#     Edge 24, Type (0, 0), BuildingBlock: CIFDUS_clean_linker_0, # of connection points: 2
#     Edge 25, Type (0, 0), BuildingBlock: CIFDUS_clean_linker_0, # of connection points: 2
#     Edge 26, Type (0, 0), BuildingBlock: CIFDUS_clean_linker_0, # of connection points: 2
#     Edge 27, Type (0, 0), BuildingBlock: CIFDUS_clean_linker_0, # of connection points: 2
#     Edge 28, Type (0, 0), BuildingBlock: CIFDUS_clean_linker_0, # of connection points: 2
#     Edge 29, Type (0, 0), BuildingBlock: CIFDUS_clean_linker_0, # of connection points: 2
#     Edge 30, Type (0, 0), BuildingBlock: CIFDUS_clean_linker_0, # of connection points: 2
#     Edge 31, Type (0, 0), BuildingBlock: CIFDUS_clean_linker_0, # of connection points: 2
#     Edge 32, Type (0, 0), BuildingBlock: CIFDUS_clean_linker_0, # of connection points: 2
#     Edge 33, Type (0, 0), BuildingBlock: CIFDUS_clean_linker_0, # of connection points: 2
#     Edge 34, Type (0, 0), BuildingBlock: CIFDUS_clean_linker_0, # of connection points: 2
#     Edge 35, Type (0, 0), BuildingBlock: CIFDUS_clean_linker_0, # of connection points: 2
# Relax obj value: 0.326
# Max RMSD: 0.238
# Mean RMSD: 0.238
data_MOF--net-smb--node1-IZENUY_clean_sbu_0--edge1-CIFDUS_clean_linker_0
_symmetry_space_group_name_H-M    P1
_symmetry_Int_Tables_number       1
_symmetry_cell_setting            triclinic
loop_
_symmetry_equiv_pos_as_xyz
'x, y, z'
_cell_length_a     34.033804
_cell_length_b     34.029947
_cell_length_c     25.875535
_cell_angle_alpha  90.143197
_cell_angle_beta   89.923866
_cell_angle_gamma 119.82431
loop_
_atom_site_label
_atom_site_type_symbol
_atom_site_fract_x
_atom_site_fract_y
_atom_site_fract_z
_atom_type_partial_charge
Fe0 Fe 0.42514 0.21673 0.95828 0.0
Fe1 Fe 0.35788 0.17522 0.04918 0.0
O2 O 0.41395 0.20665 0.02551 0.0
Fe3 Fe 0.45972 0.22861 0.06954 0.0
O4 O 0.47619 0.28572 0.05043 0.0
O5 O 0.47589 0.27309 0.96703 0.0
O6 O 0.39189 0.24525 0.95321 0.0
C7 C 0.35095 0.228 0.96729 0.0
C8 C 0.49181 0.19872 0.98767 0.0
O9 O 0.33397 0.19572 0.99961 0.0
C10 C 0.40722 0.14457 0.10969 0.0
O11 O 0.37635 0.16308 0.93819 0.0
O12 O 0.34632 0.12589 1.01026 0.0
O13 O 0.49974 0.22579 0.0247 0.0
O14 O 0.45835 0.18776 0.95831 0.0
C15 C 0.39541 0.24129 0.1236 0.0
O16 O 0.37245 0.14862 0.10258 0.0
O17 O 0.44514 0.17273 0.09097 0.0
C18 C 0.35121 0.1265 0.96185 0.0
O19 O 0.36503 0.22275 0.08957 0.0
O20 O 0.42908 0.23537 0.12349 0.0
C21 C 0.48714 0.30039 1.00494 0.0
Fe22 Fe 0.83202 0.1693 0.05105 0.0
Fe23 Fe 0.77069 0.2082 0.07513 0.0
O24 O 0.80084 0.19497 0.0291 0.0
Fe25 Fe 0.80003 0.20837 0.96308 0.0
O26 O 0.79813 0.15615 0.93904 0.0
O27 O 0.80055 0.12098 1.00988 0.0
O28 O 0.79015 0.13606 0.10259 0.0
C29 C 0.7481 0.12371 0.10453 0.0
C30 C 0.88891 0.22845 0.97111 0.0
O31 O 0.73382 0.14905 0.08785 0.0
C32 C 0.81431 0.2861 0.01961 0.0
O33 O 0.86627 0.21734 0.09364 0.0
O34 O 0.80713 0.21424 0.13023 0.0
O35 O 0.86103 0.24094 0.95925 0.0
O36 O 0.87802 0.19612 1.00262 0.0
C37 C 0.71321 0.18494 0.98835 0.0
O38 O 0.80687 0.2675 0.06337 0.0
O39 O 0.8024 0.26272 0.9781 0.0
C40 C 0.84923 0.22913 0.12957 0.0
O41 O 0.72788 0.20555 0.03059 0.0
O42 O 0.73846 0.17744 0.95943 0.0
C43 C 0.79288 0.12085 0.96215 0.0
Fe44 Fe 0.80606 0.58537 0.95699 0.0
Fe45 Fe 0.82701 0.64873 0.05059 0.0
O46 O 0.8037 0.59337 0.02451 0.0
Fe47 Fe 0.77831 0.54585 0.06573 0.0
O48 O 0.8184 0.52839 0.04587 0.0
O49 O 0.81009 0.534 0.9627 0.0
O50 O 0.86746 0.61748 0.95734 0.0
C51 C 0.89022 0.65793 0.97282 0.0
C52 C 0.72033 0.51851 0.9795 0.0
O53 O 0.8726 0.67473 1.00244 0.0
C54 C 0.74645 0.59765 0.10849 0.0
O55 O 0.80219 0.63502 0.93922 0.0
O56 O 0.78885 0.66003 1.01165 0.0
O57 O 0.73634 0.50895 0.01841 0.0
O58 O 0.74463 0.55273 0.95207 0.0
C59 C 0.85407 0.60835 0.12328 0.0
O60 O 0.78518 0.63242 0.1031 0.0
O61 O 0.73696 0.56028 0.08828 0.0
C62 C 0.78402 0.65419 0.96328 0.0
O63 O 0.86649 0.64049 0.09132 0.0
O64 O 0.81496 0.57411 0.12085 0.0
C65 C 0.82304 0.51917 0.9998 0.0
Fe66 Fe 0.08973 0.53886 0.28701 0.0
Fe67 Fe 0.01635 0.50425 0.37172 0.0
O68 O 0.07415 0.53132 0.35333 0.0
Fe69 Fe 0.11724 0.55167 0.40086 0.0
O70 O 0.14109 0.60939 0.37727 0.0
O71 O 0.14362 0.59156 0.29642 0.0
O72 O 0.06367 0.57328 0.27689 0.0
C73 C 0.02282 0.56101 0.28662 0.0
C74 C 0.14615 0.51184 0.32688 0.0
O75 O 0.99963 0.52817 0.31727 0.0
C76 C 0.05669 0.46981 0.44249 0.0
O77 O 0.03915 0.48803 0.26473 0.0
O78 O 0.00321 0.453 0.33534 0.0
O79 O 0.15558 0.54114 0.36185 0.0
O80 O 0.11649 0.5044 0.29331 0.0
C81 C 0.05435 0.57288 0.44414 0.0
O82 O 0.02391 0.47563 0.42906 0.0
O83 O 0.09651 0.496 0.42739 0.0
C84 C 0.0124 0.45202 0.28819 0.0
O85 O 0.02499 0.55369 0.40916 0.0
O86 O 0.08645 0.56479 0.44897 0.0
C87 C 0.15587 0.62101 0.33186 0.0
Fe88 Fe 0.46494 0.5461 0.2904 0.0
Fe89 Fe 0.48601 0.49993 0.38115 0.0
O90 O 0.46547 0.5353 0.35756 0.0
Fe91 Fe 0.44402 0.55998 0.4016 0.0
O92 O 0.38817 0.52755 0.37335 0.0
O93 O 0.41202 0.54783 0.29355 0.0
O94 O 0.43052 0.48642 0.27551 0.0
C95 C 0.43728 0.45474 0.28931 0.0
C96 C 0.48874 0.62927 0.32975 0.0
O97 O 0.46367 0.45974 0.32659 0.0
C98 C 0.52139 0.57585 0.45001 0.0
O99 O 0.51691 0.54547 0.27557 0.0
O100 O 0.54051 0.53297 0.3497 0.0
O101 O 0.45723 0.60902 0.36186 0.0
O102 O 0.49982 0.60726 0.2997 0.0
C103 C 0.41606 0.47625 0.44921 0.0
O104 O 0.5126 0.53572 0.43906 0.0
O105 O 0.49867 0.5926 0.43146 0.0
C106 C 0.54757 0.54585 0.30329 0.0
O107 O 0.43286 0.46263 0.41496 0.0
O108 O 0.42696 0.51724 0.4515 0.0
C109 C 0.38004 0.52957 0.32606 0.0
Fe110 Fe 0.45164 0.88565 0.4122 0.0
Fe111 Fe 0.462 0.91988 0.30065 0.0
O112 O 0.47369 0.93059 0.36749 0.0
Fe113 Fe 0.50734 0.98665 0.39072 0.0
O114 O 0.53005 0.97103 0.44708 0.0
O115 O 0.5078 0.89963 0.432 0.0
O116 O 0.45342 0.84437 0.36813 0.0
C117 C 0.47576 0.84982 0.32712 0.0
C118 C 0.43858 0.95181 0.4608 0.0
O119 O 0.48615 0.88299 0.29783 0.0
C120 C 0.4584 0.99784 0.30887 0.0
O121 O 0.39441 0.86919 0.39454 0.0
O122 O 0.40403 0.87144 0.3102 0.0
O123 O 0.45949 0.98207 0.42727 0.0
O124 O 0.44562 0.91875 0.46479 0.0
C125 C 0.55556 0.98706 0.30595 0.0
O126 O 0.43704 0.95633 0.29738 0.0
O127 O 0.49201 0.01309 0.33905 0.0
C128 C 0.37828 0.85884 0.34964 0.0
O129 O 0.51845 0.96597 0.28102 0.0
O130 O 0.55582 0.99337 0.35423 0.0
C131 C 0.53547 0.937 0.45189 0.0
Fe132 Fe 0.75559 0.85076 0.63059 0.0
Fe133 Fe 0.68565 0.83439 0.71664 0.0
O134 O 0.74222 0.85399 0.69625 0.0
Fe135 Fe 0.78644 0.87824 0.74213 0.0
O136 O 0.81101 0.93203 0.70947 0.0
O137 O 0.81004 0.90431 0.63227 0.0
O138 O 0.73049 0.88368 0.60934 0.0
C139 C 0.69117 0.87602 0.61965 0.0
C140 C 0.8138 0.82961 0.67802 0.0
O141 O 0.66848 0.85071 0.65683 0.0
C142 C 0.72405 0.80528 0.79505 0.0
O143 O 0.70347 0.79744 0.61783 0.0
O144 O 0.66675 0.77767 0.69212 0.0
O145 O 0.82347 0.86205 0.70863 0.0
O146 O 0.78185 0.81711 0.64627 0.0
C147 C 0.72993 0.91115 0.77529 0.0
O148 O 0.69351 0.81401 0.78038 0.0
O149 O 0.76341 0.82567 0.77642 0.0
C150 C 0.67331 0.76797 0.64691 0.0
O151 O 0.69993 0.89019 0.74166 0.0
O152 O 0.75848 0.89901 0.78548 0.0
C153 C 0.82294 0.93782 0.66267 0.0
Fe154 Fe 0.13574 0.86791 0.62544 0.0
Fe155 Fe 0.16901 0.83755 0.72024 0.0
O156 O 0.13912 0.86283 0.69332 0.0
Fe157 Fe 0.11176 0.88299 0.73471 0.0
O158 O 0.0573 0.84296 0.70809 0.0
O159 O 0.0781 0.86053 0.62711 0.0
O160 O 0.10893 0.80717 0.61644 0.0
C161 C 0.12397 0.78225 0.63265 0.0
C162 C 0.14754 0.94929 0.65759 0.0
O163 O 0.1542 0.796 0.66757 0.0
C164 C 0.19196 0.91403 0.78491 0.0
O165 O 0.19231 0.87576 0.612 0.0
O166 O 0.22116 0.87773 0.68876 0.0
O167 O 0.1177 0.92797 0.69137 0.0
O168 O 0.16267 0.92937 0.62981 0.0
C169 C 0.09608 0.80354 0.78508 0.0
O170 O 0.18942 0.87578 0.77753 0.0
O171 O 0.16481 0.92359 0.76284 0.0
C172 C 0.22608 0.88599 0.64099 0.0
O173 O 0.11864 0.79463 0.75337 0.0
O174 O 0.10078 0.84265 0.7868 0.0
C175 C 0.04719 0.84208 0.66107 0.0
Fe176 Fe 0.15763 0.3083 0.70915 0.0
Fe177 Fe 0.10836 0.20612 0.73111 0.0
O178 O 0.12632 0.25151 0.68702 0.0
Fe179 Fe 0.11318 0.23905 0.62036 0.0
O180 O 0.17227 0.26678 0.60353 0.0
O181 O 0.19441 0.32825 0.65108 0.0
O182 O 0.20133 0.29918 0.73828 0.0
C183 C 0.19438 0.26901 0.77095 0.0
C184 C 0.10519 0.31778 0.63464 0.0
O185 O 0.15534 0.23522 0.77653 0.0
C186 C 0.03406 0.17762 0.6642 0.0
O187 O 0.12527 0.29676 0.77108 0.0
O188 O 0.0745 0.22387 0.76642 0.0
O189 O 0.10974 0.29009 0.60607 0.0
O190 O 0.1175 0.3231 0.68138 0.0
C191 C 0.13492 0.17243 0.6518 0.0
O192 O 0.05712 0.1683 0.69488 0.0
O193 O 0.0529 0.21033 0.63329 0.0
C194 C 0.08853 0.26237 0.78624 0.0
O195 O 0.14163 0.18553 0.69819 0.0
O196 O 0.11447 0.18548 0.62146 0.0
C197 C 0.20149 0.30684 0.61509 0.0
H198 H 0.34024 0.04147 0.94901 0.0
H199 H 0.28691 0.12796 0.90486 0.0
H200 H 0.2324 0.06934 0.84746 0.0
H201 H 0.20171 0.99564 0.80811 0.0
H202 H 0.25483 0.90771 0.84693 0.0
H203 H 0.30775 0.96474 0.90821 0.0
C204 C 0.31625 0.04693 0.92708 0.0
C205 C 0.31715 0.08861 0.931 0.0
C206 C 0.28539 0.01317 0.89312 0.0
C207 C 0.28653 0.09597 0.90222 0.0
C208 C 0.2555 0.06258 0.86942 0.0
C209 C 0.22475 0.98858 0.82978 0.0
C210 C 0.22427 0.94734 0.82268 0.0
C211 C 0.25497 0.02136 0.8642 0.0
C212 C 0.25448 0.93917 0.85151 0.0
C213 C 0.2847 0.97177 0.88658 0.0
H214 H 0.95443 0.20367 0.97303 0.0
H215 H 0.92121 0.29787 0.90133 0.0
H216 H 0.98469 0.32221 0.84205 0.0
H217 H 0.04393 0.30967 0.80251 0.0
H218 H 0.07584 0.2145 0.87315 0.0
H219 H 0.01982 0.19854 0.94085 0.0
C220 C 0.96153 0.23012 0.94514 0.0
C221 C 0.93233 0.24819 0.94147 0.0
C222 C 0.99814 0.24391 0.91049 0.0
C223 C 0.94253 0.28272 0.90497 0.0
C224 C 0.97897 0.29678 0.87079 0.0
C225 C 0.03963 0.28671 0.83381 0.0
C226 C 0.06419 0.26358 0.83314 0.0
C227 C 0.00626 0.27669 0.87207 0.0
C228 C 0.05752 0.233 0.8732 0.0
C229 C 0.02519 0.22354 0.91169 0.0
H230 H 0.70483 0.71969 0.78722 0.0
H231 H 0.73255 0.82507 0.8975 0.0
H232 H 0.74894 0.78402 0.96417 0.0
H233 H 0.76827 0.72445 0.98553 0.0
H234 H 0.74404 0.6222 0.87115 0.0
H235 H 0.71315 0.65517 0.81208 0.0
C236 C 0.71248 0.73248 0.82656 0.0
C237 C 0.71672 0.77457 0.83808 0.0
C238 C 0.72376 0.70978 0.86358 0.0
C239 C 0.72805 0.79196 0.88848 0.0
C240 C 0.73815 0.76887 0.92624 0.0
C241 C 0.75544 0.70905 0.94807 0.0
C242 C 0.75958 0.67169 0.93228 0.0
C243 C 0.73818 0.72873 0.91349 0.0
C244 C 0.7424 0.65174 0.88376 0.0
C245 C 0.72446 0.67039 0.84992 0.0
H246 H 0.06579 0.818 0.87549 0.0
H247 H 0.05275 0.71112 0.7745 0.0
H248 H 0.98989 0.65515 0.82715 0.0
H249 H 0.93365 0.63828 0.8964 0.0
H250 H 0.9475 0.74668 0.99585 0.0
H251 H 0.0153 0.80026 0.94937 0.0
C252 C 0.04956 0.78237 0.86527 0.0
C253 C 0.06347 0.76874 0.82083 0.0
C254 C 0.01335 0.75071 0.89521 0.0
C255 C 0.04261 0.72243 0.80856 0.0
C256 C 0.0065 0.6905 0.83846 0.0
C257 C 0.95183 0.67349 0.90838 0.0
C258 C 0.9349 0.68847 0.94908 0.0
C259 C 0.99079 0.70446 0.88107 0.0
C260 C 0.95926 0.73419 0.96431 0.0
C261 C 0.9981 0.76497 0.93772 0.0
H262 H 0.18578 0.23369 0.86631 0.0
H263 H 0.28598 0.31266 0.75148 0.0
H264 H 0.34489 0.31038 0.80398 0.0
H265 H 0.36629 0.27999 0.87968 0.0
H266 H 0.26422 0.20206 0.99385 0.0
H267 H 0.20809 0.2103 0.94468 0.0
C268 C 0.22059 0.25075 0.85286 0.0
C269 C 0.23137 0.27285 0.80477 0.0
C270 C 0.25404 0.24933 0.88315 0.0
C271 C 0.27677 0.29539 0.78837 0.0
C272 C 0.31041 0.29389 0.8183 0.0
C273 C 0.33197 0.26546 0.89421 0.0
C274 C 0.31962 0.23989 0.94029 0.0
C275 C 0.29928 0.27015 0.86539 0.0
C276 C 0.27486 0.22146 0.95839 0.0
C277 C 0.24252 0.22608 0.93022 0.0
H278 H 0.76311 0.93674 0.87093 0.0
H279 H 0.70216 0.97131 0.74616 0.0
H280 H 0.71625 0.04024 0.79271 0.0
H281 H 0.75008 0.09267 0.86786 0.0
H282 H 0.80957 0.05437 0.99144 0.0
H283 H 0.79221 0.98526 0.94607 0.0
C284 C 0.75255 0.95915 0.85396 0.0
C285 C 0.73189 0.94917 0.80514 0.0
C286 C 0.76098 0.99839 0.88056 0.0
C287 C 0.71791 0.97821 0.78395 0.0
C288 C 0.72633 0.01777 0.81035 0.0
C289 C 0.7592 0.06915 0.88466 0.0
C290 C 0.78132 0.07897 0.93292 0.0
C291 C 0.7486 0.02863 0.85843 0.0
C292 C 0.79245 0.04784 0.9545 0.0
C293 C 0.78258 0.00817 0.92859 0.0
H294 H 0.937 0.29591 0.1214 0.0
H295 H 0.82406 0.23773 0.22697 0.0
H296 H 0.86589 0.2996 0.28809 0.0
H297 H 0.93205 0.37433 0.30803 0.0
H298 H 0.04276 0.43414 0.19934 0.0
H299 H 0.00467 0.36793 0.14356 0.0
C300 C 0.922 0.29628 0.15829 0.0
C301 C 0.8776 0.26226 0.16965 0.0
C302 C 0.94568 0.33278 0.19259 0.0
C303 C 0.85826 0.2636 0.21727 0.0
C304 C 0.88208 0.29908 0.2522 0.0
C305 C 0.94799 0.37255 0.27247 0.0
C306 C 0.98995 0.4094 0.25772 0.0
C307 C 0.92541 0.33454 0.23974 0.0
C308 C 0.01015 0.40657 0.21137 0.0
C309 C 0.98846 0.36861 0.17938 0.0
H310 H 0.59039 0.60671 0.22732 0.0
H311 H 0.60058 0.50843 0.32277 0.0
H312 H 0.66505 0.51739 0.27158 0.0
H313 H 0.71381 0.54816 0.19474 0.0
H314 H 0.70658 0.6494 0.10219 0.0
H315 H 0.64548 0.64455 0.1572 0.0
C316 C 0.60721 0.58776 0.23724 0.0
C317 C 0.59065 0.55662 0.27824 0.0
C318 C 0.64432 0.59336 0.20794 0.0
C319 C 0.6129 0.53265 0.29138 0.0
C320 C 0.64948 0.53753 0.26193 0.0
C321 C 0.69903 0.56943 0.18722 0.0
C322 C 0.71383 0.5987 0.14458 0.0
C323 C 0.66472 0.56695 0.21941 0.0
C324 C 0.69531 0.62667 0.13502 0.0
C325 C 0.66045 0.62376 0.16628 0.0
H326 H 0.4694 0.16017 0.182 0.0
H327 H 0.34228 0.05531 0.12135 0.0
H328 H 0.34529 -0.00017 0.17965 0.0
H329 H 0.3873 0.98102 0.24453 0.0
H330 H 0.5127 0.08912 0.30657 0.0
H331 H 0.5068 0.14342 0.25148 0.0
C332 C 0.44225 0.12516 0.18173 0.0
C333 C 0.40604 0.11148 0.14716 0.0
C334 C 0.44393 0.09408 0.21562 0.0
C335 C 0.37056 0.06638 0.14772 0.0
C336 C 0.3724 0.03477 0.18088 0.0
C337 C 0.41304 0.01652 0.2463 0.0
C338 C 0.45064 0.03067 0.27934 0.0
C339 C 0.40935 0.04814 0.21454 0.0
C340 C 0.48343 0.07697 0.28154 0.0
C341 C 0.48027 0.10823 0.24985 0.0
H342 H 0.74754 0.11587 0.20837 0.0
H343 H 0.67502 0.04819 0.07005 0.0
H344 H 0.60929 0.99595 0.12149 0.0
H345 H 0.5691 0.97713 0.20425 0.0
H346 H 0.64002 0.04764 0.34273 0.0
H347 H 0.70961 0.09091 0.2931 0.0
C348 C 0.71793 0.08844 0.18994 0.0
C349 C 0.71611 0.08503 0.13582 0.0
C350 C 0.67958 0.05987 0.21969 0.0
C351 C 0.6772 0.05059 0.11184 0.0
C352 C 0.63949 0.02119 0.14118 0.0
C353 C 0.59985 0.00162 0.22375 0.0
C354 C 0.59897 0.00965 0.27701 0.0
C355 C 0.63968 0.02674 0.19492 0.0
C356 C 0.63944 0.04105 0.30168 0.0
C357 C 0.67936 0.06586 0.27332 0.0
H358 H 0.93941 0.55197 0.30206 0.0
H359 H 0.05602 0.61598 0.20182 0.0
H360 H 0.0165 0.64238 0.14563 0.0
H361 H 0.94537 0.64 0.11942 0.0
H362 H 0.82901 0.57494 0.21967 0.0
H363 H 0.87196 0.55729 0.28141 0.0
C364 C 0.95637 0.57207 0.26822 0.0
C365 C 0.00037 0.58123 0.25596 0.0
C366 C 0.93342 0.58716 0.23583 0.0
C367 C 0.022 0.60797 0.21222 0.0
C368 C 0.9994 0.62315 0.17987 0.0
C369 C 0.92999 0.62321 0.15551 0.0
C370 C 0.88408 0.60866 0.16483 0.0
C371 C 0.95466 0.61206 0.19056 0.0
C372 C 0.86431 0.58633 0.21149 0.0
C373 C 0.88875 0.57594 0.24674 0.0
H374 H 0.36648 0.30304 0.11631 0.0
H375 H 0.42246 0.24647 0.22261 0.0
H376 H 0.43677 0.30545 0.28566 0.0
H377 H 0.44207 0.37812 0.30645 0.0
H378 H 0.38838 0.43678 0.19961 0.0
H379 H 0.36439 0.37224 0.14158 0.0
C380 C 0.38055 0.30298 0.15388 0.0
C381 C 0.39344 0.27052 0.16475 0.0
C382 C 0.38998 0.33796 0.18964 0.0
C383 C 0.41235 0.27122 0.2133 0.0
C384 C 0.4208 0.30509 0.24931 0.0
C385 C 0.42466 0.37663 0.27079 0.0
C386 C 0.41777 0.41277 0.25732 0.0
C387 C 0.41124 0.33954 0.23721 0.0
C388 C 0.39463 0.40977 0.21103 0.0
C389 C 0.38085 0.37279 0.17762 0.0
H390 H 0.68946 0.72251 0.57133 0.0
H391 H 0.58374 0.71518 0.67 0.0
H392 H 0.52697 0.65086 0.62013 0.0
H393 H 0.50676 0.60366 0.54156 0.0
H394 H 0.61209 0.60902 0.44433 0.0
H395 H 0.66997 0.66696 0.50074 0.0
C396 C 0.65406 0.70621 0.58245 0.0
C397 C 0.64068 0.72387 0.6238 0.0
C398 C 0.62166 0.66923 0.55364 0.0
C399 C 0.59486 0.70219 0.63833 0.0
C400 C 0.56236 0.66563 0.60961 0.0
C401 C 0.54248 0.61685 0.53367 0.0
C402 C 0.55555 0.60258 0.48916 0.0
C403 C 0.57525 0.64988 0.56623 0.0
C404 C 0.60162 0.61954 0.47879 0.0
C405 C 0.63455 0.65281 0.51076 0.0
H406 H 0.41355 0.91823 0.55742 0.0
H407 H 0.38286 0.98489 0.43553 0.0
H408 H 0.31464 0.9721 0.48168 0.0
H409 H 0.26001 0.93534 0.55299 0.0
H410 H 0.29321 0.87186 0.67646 0.0
H411 H 0.36418 0.8902 0.6336 0.0
C412 C 0.39232 0.93067 0.54147 0.0
C413 C 0.40299 0.95223 0.49311 0.0
C414 C 0.35335 0.92331 0.56824 0.0
C415 C 0.37547 0.96849 0.47293 0.0
C416 C 0.33625 0.9608 0.49907 0.0
C417 C 0.28305 0.92595 0.57065 0.0
C418 C 0.27112 0.90179 0.61746 0.0
C419 C 0.32424 0.93719 0.54612 0.0
C420 C 0.30156 0.89043 0.64041 0.0
C421 C 0.34211 0.90077 0.61585 0.0
H422 H 0.05043 0.30188 0.55089 0.0
H423 H 0.13074 0.40447 0.66338 0.0
H424 H 0.11875 0.45981 0.61633 0.0
H425 H 0.09246 0.48116 0.53798 0.0
H426 H 0.0095 0.37858 0.42728 0.0
H427 H 0.01484 0.32096 0.47896 0.0
C428 C 0.06473 0.33619 0.5655 0.0
C429 C 0.0919 0.34909 0.61037 0.0
C430 C 0.05722 0.36783 0.53846 0.0
C431 C 0.10971 0.39355 0.62908 0.0
C432 C 0.10304 0.42533 0.60201 0.0
C433 C 0.07449 0.44589 0.5261 0.0
C434 C 0.05028 0.43388 0.47924 0.0
C435 C 0.07778 0.41314 0.55603 0.0
C436 C 0.02762 0.38834 0.46368 0.0
C437 C 0.03114 0.35557 0.49296 0.0
H438 H 0.27662 0.38937 0.63052 0.0
H439 H 0.21834 0.27631 0.52449 0.0
H440 H 0.28225 0.31629 0.46601 0.0
H441 H 0.35192 0.38649 0.44097 0.0
H442 H 0.40914 0.49923 0.54728 0.0
H443 H 0.34928 0.45617 0.60943 0.0
C444 C 0.27801 0.37335 0.5948 0.0
C445 C 0.24232 0.33018 0.58182 0.0
C446 C 0.31493 0.39651 0.5611 0.0
C447 C 0.24511 0.30971 0.53554 0.0
C448 C 0.28173 0.33254 0.50188 0.0
C449 C 0.35174 0.40108 0.47822 0.0
C450 C 0.38464 0.44602 0.48927 0.0
C451 C 0.31651 0.37635 0.51374 0.0
C452 C 0.38386 0.46475 0.5376 0.0
C453 C 0.34955 0.44024 0.5732 0.0
H454 H 0.59163 0.9052 0.43285 0.0
H455 H 0.55283 0.96877 0.55087 0.0
H456 H 0.59878 0.95609 0.61462 0.0
H457 H 0.64497 0.92069 0.63759 0.0
H458 H 0.68722 0.86206 0.51705 0.0
H459 H 0.64491 0.87887 0.45311 0.0
C460 C 0.59408 0.91701 0.47236 0.0
C461 C 0.56915 0.93768 0.48759 0.0
C462 C 0.62063 0.90995 0.50822 0.0
C463 C 0.57229 0.95311 0.53856 0.0
C464 C 0.59813 0.94548 0.57495 0.0
C465 C 0.64504 0.91209 0.5972 0.0
C466 C 0.66852 0.88988 0.58173 0.0
C467 C 0.62159 0.92294 0.56044 0.0
C468 C 0.66921 0.87924 0.52944 0.0
C469 C 0.64505 0.88874 0.49301 0.0
H470 H 0.09716 0.6007 0.53585 0.0
H471 H 0.01155 0.62279 0.43108 0.0
H472 H 0.0232 0.68841 0.48255 0.0
H473 H 0.06395 0.74358 0.55253 0.0
H474 H 0.15113 0.72108 0.65479 0.0
H475 H 0.13265 0.65156 0.60873 0.0
C476 C 0.08054 0.61949 0.52444 0.0
C477 C 0.05384 0.60708 0.47936 0.0
C478 C 0.08818 0.65748 0.5534 0.0
C479 C 0.03214 0.6315 0.46566 0.0
C480 C 0.03915 0.66926 0.49484 0.0
C481 C 0.07868 0.72333 0.56502 0.0
C482 C 0.10947 0.73809 0.60678 0.0
C483 C 0.06812 0.68327 0.53802 0.0
C484 C 0.12777 0.71102 0.62259 0.0
C485 C 0.11718 0.67113 0.59628 0.0
H486 H 0.55457 0.21337 0.91268 0.0
H487 H 0.49644 0.1412 0.05432 0.0
H488 H 0.55784 0.12452 0.06341 0.0
H489 H 0.63432 0.14175 0.03928 0.0
H490 H 0.69415 0.2135 0.89816 0.0
H491 H 0.62597 0.21852 0.87994 0.0
C492 C 0.55467 0.19258 0.94432 0.0
C493 C 0.52118 0.17851 0.98284 0.0
C494 C 0.59081 0.18369 0.94979 0.0
C495 C 0.52189 0.15231 0.02426 0.0
C496 C 0.55715 0.14298 0.02965 0.0
C497 C 0.63171 0.1572 1.00375 0.0
C498 C 0.66891 0.17729 0.97014 0.0
C499 C 0.59275 0.16018 0.99393 0.0
C500 C 0.66556 0.19742 0.92429 0.0
C501 C 0.62678 0.20067 0.91418 0.0
H502 H 0.857 0.48298 0.06729 0.0
H503 H 0.81127 0.47263 0.90966 0.0
H504 H 0.8109 0.40129 0.89912 0.0
H505 H 0.81113 0.33611 0.93937 0.0
H506 H 0.85509 0.34623 0.09781 0.0
H507 H 0.86898 0.42347 0.10297 0.0
C508 C 0.84773 0.46553 0.03034 0.0
C509 C 0.83301 0.48237 0.98989 0.0
C510 C 0.84664 0.42411 0.02482 0.0
C511 C 0.82214 0.46001 0.94179 0.0
C512 C 0.82167 0.41905 0.93573 0.0
C513 C 0.82457 0.35555 0.97464 0.0
C514 C 0.83068 0.33508 0.01854 0.0
C515 C 0.83187 0.39982 0.97773 0.0
C516 C 0.84886 0.36087 0.06381 0.0
C517 C 0.85693 0.40509 0.06686 0.0
H518 H 0.64783 0.49597 0.03758 0.0
H519 H 0.6894 0.46764 0.89161 0.0
H520 H 0.61533 0.39866 0.88204 0.0
H521 H 0.5449 0.34032 0.9237 0.0
H522 H 0.50611 0.369 0.07194 0.0
H523 H 0.5725 0.44441 0.07177 0.0
C524 C 0.6399 0.47537 1.00289 0.0
C525 C 0.67344 0.48632 0.96535 0.0
C526 C 0.59809 0.43556 0.99858 0.0
C527 C 0.66354 0.45973 0.92061 0.0
C528 C 0.62148 0.42014 0.91554 0.0
C529 C 0.55039 0.36352 0.95528 0.0
C530 C 0.52125 0.34871 0.99837 0.0
C531 C 0.58931 0.40669 0.95549 0.0
C532 C 0.52858 0.37926 0.03884 0.0
C533 C 0.56653 0.4224 0.03882 0.0
H534 H 0.3023 0.47803 0.37843 0.0
H535 H 0.35451 0.55413 0.23738 0.0
H536 H 0.28039 0.54521 0.2181 0.0
H537 H 0.20558 0.52857 0.25012 0.0
H538 H 0.15594 0.45757 0.3941 0.0
H539 H 0.2235 0.45028 0.40283 0.0
C540 C 0.29725 0.49211 0.34313 0.0
C541 C 0.33397 0.51783 0.31024 0.0
C542 C 0.25487 0.48751 0.33273 0.0
C543 C 0.32683 0.53484 0.26386 0.0
C544 C 0.28448 0.52977 0.25276 0.0
C545 C 0.20892 0.50978 0.28202 0.0
C546 C 0.1764 0.49342 0.32133 0.0
C547 C 0.24884 0.50789 0.28803 0.0
C548 C 0.18087 0.47 0.36334 0.0
C549 C 0.21962 0.46637 0.36862 0.0
H550 H 0.51982 0.81859 0.38438 0.0
H551 H 0.45564 0.80271 0.23654 0.0
H552 H 0.46247 0.73547 0.21842 0.0
H553 H 0.47559 0.67465 0.25185 0.0
H554 H 0.53928 0.6916 0.40028 0.0
H555 H 0.5455 0.76583 0.41044 0.0
C556 C 0.50821 0.80079 0.34781 0.0
C557 C 0.48668 0.81469 0.31211 0.0
C558 C 0.51252 0.76262 0.33776 0.0
C559 C 0.47218 0.79215 0.26453 0.0
C560 C 0.47599 0.75375 0.2543 0.0
C561 C 0.49271 0.6957 0.28513 0.0
C562 C 0.50744 0.67827 0.32508 0.0
C563 C 0.49473 0.73778 0.29143 0.0
C564 C 0.5284 0.70495 0.36884 0.0
C565 C 0.53134 0.74702 0.37498 0.0
H566 H 0.33736 0.79682 0.27261 0.0
H567 H 0.31132 0.84108 0.41865 0.0
H568 H 0.23751 0.77253 0.42395 0.0
H569 H 0.18523 0.69557 0.39317 0.0
H570 H 0.21165 0.65062 0.24774 0.0
H571 H 0.27996 0.72377 0.23609 0.0
C572 C 0.31498 0.79204 0.30482 0.0
C573 C 0.33005 0.82365 0.34547 0.0
C574 C 0.27291 0.75195 0.30831 0.0
C575 C 0.30069 0.81692 0.3871 0.0
C576 C 0.25855 0.77762 0.39034 0.0
C577 C 0.20567 0.70196 0.35866 0.0
C578 C 0.19376 0.66734 0.32197 0.0
C579 C 0.24513 0.74408 0.35223 0.0
C580 C 0.22019 0.67648 0.27696 0.0
C581 C 0.25938 0.71835 0.27022 0.0
H582 H 0.97366 0.79687 0.72234 0.0
H583 H 0.0142 0.85765 0.57134 0.0
H584 H 0.93964 0.85029 0.5588 0.0
H585 H 0.86846 0.8394 0.59758 0.0
H586 H 0.83228 0.78574 0.75175 0.0
H587 H 0.89916 0.77676 0.75614 0.0
C588 C 0.966 0.80783 0.68626 0.0
C589 C 0.99979 0.82876 0.64836 0.0
C590 C 0.92378 0.80492 0.6801 0.0
C591 C 0.98897 0.84189 0.60143 0.0
C592 C 0.94639 0.8379 0.59433 0.0
C593 C 0.8746 0.82422 0.6312 0.0
C594 C 0.84578 0.81283 0.67416 0.0
C595 C 0.91427 0.82129 0.63431 0.0
C596 C 0.85415 0.79426 0.71823 0.0
C597 C 0.89247 0.78952 0.72085 0.0
H598 H 0.11557 0.9854 0.58786 0.0
H599 H 0.20912 0.01888 0.71422 0.0
H600 H 0.21778 0.09456 0.7202 0.0
H601 H 0.19002 0.14646 0.6976 0.0
H602 H 0.09493 0.11255 0.57222 0.0
H603 H 0.09614 0.04232 0.55692 0.0
C604 C 0.13907 0.01005 0.61527 0.0
C605 C 0.16212 0.99727 0.65023 0.0
C606 C 0.14297 0.05308 0.61915 0.0
C607 C 0.19161 0.02862 0.68662 0.0
C608 C 0.19621 0.07163 0.6903 0.0
C609 C 0.17014 0.12404 0.66638 0.0
C610 C 0.14188 0.13435 0.6367 0.0
C611 C 0.17068 0.08354 0.65809 0.0
C612 C 0.11683 0.10533 0.59585 0.0
C613 C 0.11733 0.06502 0.58719 0.0
H614 H 0.84372 0.01697 0.7087 0.0
H615 H 0.87996 0.96091 0.57951 0.0
H616 H 0.94556 0.03522 0.56164 0.0
H617 H 0.99905 0.1124 0.59225 0.0
H618 H 0.96512 0.16592 0.72523 0.0
H619 H 0.89151 0.09659 0.73176 0.0
C620 C 0.86566 0.02115 0.67621 0.0
C621 C 0.85779 0.98344 0.64623 0.0
C622 C 0.90358 0.06354 0.66689 0.0
C623 C 0.88572 0.98942 0.6035 0.0
C624 C 0.92325 0.03183 0.59336 0.0
C625 C 0.97456 0.10929 0.62121 0.0
C626 C 0.98652 0.14382 0.65781 0.0
C627 C 0.93341 0.06865 0.626 0.0
C628 C 0.95573 0.13963 0.6963 0.0
C629 C 0.91406 0.09994 0.70034 0.0
loop_
_geom_bond_atom_site_label_1
_geom_bond_atom_site_label_2
_geom_bond_distance
_geom_bond_site_symmetry_2
_ccdc_geom_bond_type
Fe0 O2 1.918 1_556 S
Fe0 O5 1.997 . S
Fe0 O6 2.002 . S
Fe0 O11 1.976 . S
Fe0 O14 1.996 . S
Fe1 O2 1.918 . S
Fe1 O9 1.997 1_554 S
Fe1 O12 1.996 1_554 S
Fe1 O16 1.976 . S
Fe1 O19 2.002 . S
O2 Fe0 1.918 1_554 S
O2 Fe1 1.918 . S
O2 Fe3 1.918 . S
Fe3 O2 1.918 . S
Fe3 O4 2.002 . S
Fe3 O13 1.976 . S
Fe3 O17 1.996 . S
Fe3 O20 1.997 . S
O4 Fe3 2.002 . S
O4 C21 1.295 1_554 S
O5 Fe0 1.997 . S
O5 C21 1.235 . S
O6 Fe0 2.002 . S
O6 C7 1.295 . S
C7 O6 1.295 . S
C7 O9 1.235 . S
C8 O13 1.287 1_556 S
C8 O14 1.255 . S
O9 Fe1 1.997 1_556 S
O9 C7 1.235 . S
C10 O16 1.287 . S
C10 O17 1.255 . S
O11 Fe0 1.976 . S
O11 C18 1.287 . S
O12 Fe1 1.996 1_556 S
O12 C18 1.255 . S
O13 Fe3 1.976 . S
O13 C8 1.287 1_554 S
O14 Fe0 1.996 . S
O14 C8 1.255 . S
C15 O19 1.295 . S
C15 O20 1.235 . S
O16 Fe1 1.976 . S
O16 C10 1.287 . S
O17 Fe3 1.996 . S
O17 C10 1.255 . S
C18 O11 1.287 . S
C18 O12 1.255 . S
O19 Fe1 2.002 . S
O19 C15 1.295 . S
O20 Fe3 1.997 . S
O20 C15 1.235 . S
C21 O4 1.295 1_556 S
C21 O5 1.235 . S
Fe22 O24 1.918 . S
Fe22 O27 1.997 1_554 S
Fe22 O28 2.002 . S
Fe22 O33 1.976 . S
Fe22 O36 1.996 1_554 S
Fe23 O24 1.918 . S
Fe23 O31 1.997 . S
Fe23 O34 1.996 . S
Fe23 O38 1.976 . S
Fe23 O41 2.002 . S
O24 Fe22 1.918 . S
O24 Fe23 1.918 . S
O24 Fe25 1.918 1_554 S
Fe25 O24 1.918 1_556 S
Fe25 O26 2.002 . S
Fe25 O35 1.976 . S
Fe25 O39 1.996 . S
Fe25 O42 1.997 . S
O26 Fe25 2.002 . S
O26 C43 1.295 . S
O27 Fe22 1.997 1_556 S
O27 C43 1.235 . S
O28 Fe22 2.002 . S
O28 C29 1.295 . S
C29 O28 1.295 . S
C29 O31 1.235 . S
C30 O35 1.287 . S
C30 O36 1.255 . S
O31 Fe23 1.997 . S
O31 C29 1.235 . S
C32 O38 1.287 1_556 S
C32 O39 1.255 . S
O33 Fe22 1.976 . S
O33 C40 1.287 . S
O34 Fe23 1.996 . S
O34 C40 1.255 . S
O35 Fe25 1.976 . S
O35 C30 1.287 . S
O36 Fe22 1.996 1_556 S
O36 C30 1.255 . S
C37 O41 1.295 1_556 S
C37 O42 1.235 . S
O38 Fe23 1.976 . S
O38 C32 1.287 1_554 S
O39 Fe25 1.996 . S
O39 C32 1.255 . S
C40 O33 1.287 . S
C40 O34 1.255 . S
O41 Fe23 2.002 . S
O41 C37 1.295 1_554 S
O42 Fe25 1.997 . S
O42 C37 1.235 . S
C43 O26 1.295 . S
C43 O27 1.235 . S
Fe44 O46 1.918 1_556 S
Fe44 O49 1.997 . S
Fe44 O50 2.002 . S
Fe44 O55 1.976 . S
Fe44 O58 1.996 . S
Fe45 O46 1.918 . S
Fe45 O53 1.997 1_554 S
Fe45 O56 1.996 1_554 S
Fe45 O60 1.976 . S
Fe45 O63 2.002 . S
O46 Fe44 1.918 1_554 S
O46 Fe45 1.918 . S
O46 Fe47 1.918 . S
Fe47 O46 1.918 . S
Fe47 O48 2.002 . S
Fe47 O57 1.976 . S
Fe47 O61 1.996 . S
Fe47 O64 1.997 . S
O48 Fe47 2.002 . S
O48 C65 1.295 1_554 S
O49 Fe44 1.997 . S
O49 C65 1.235 . S
O50 Fe44 2.002 . S
O50 C51 1.295 . S
C51 O50 1.295 . S
C51 O53 1.235 . S
C52 O57 1.287 1_556 S
C52 O58 1.255 . S
O53 Fe45 1.997 1_556 S
O53 C51 1.235 . S
C54 O60 1.287 . S
C54 O61 1.255 . S
O55 Fe44 1.976 . S
O55 C62 1.287 . S
O56 Fe45 1.996 1_556 S
O56 C62 1.255 . S
O57 Fe47 1.976 . S
O57 C52 1.287 1_554 S
O58 Fe44 1.996 . S
O58 C52 1.255 . S
C59 O63 1.295 . S
C59 O64 1.235 . S
O60 Fe45 1.976 . S
O60 C54 1.287 . S
O61 Fe47 1.996 . S
O61 C54 1.255 . S
C62 O55 1.287 . S
C62 O56 1.255 . S
O63 Fe45 2.002 . S
O63 C59 1.295 . S
O64 Fe47 1.997 . S
O64 C59 1.235 . S
C65 O48 1.295 1_556 S
C65 O49 1.235 . S
Fe66 O68 1.918 . S
Fe66 O71 1.997 . S
Fe66 O72 2.002 . S
Fe66 O77 1.976 . S
Fe66 O80 1.996 . S
Fe67 O68 1.918 . S
Fe67 O75 1.997 . S
Fe67 O78 1.996 1_455 S
Fe67 O82 1.976 . S
Fe67 O85 2.002 . S
O68 Fe66 1.918 . S
O68 Fe67 1.918 . S
O68 Fe69 1.918 . S
Fe69 O68 1.918 . S
Fe69 O70 2.002 . S
Fe69 O79 1.976 . S
Fe69 O83 1.996 . S
Fe69 O86 1.997 . S
O70 Fe69 2.002 . S
O70 C87 1.295 . S
O71 Fe66 1.997 . S
O71 C87 1.235 . S
O72 Fe66 2.002 . S
O72 C73 1.295 . S
C73 O72 1.295 . S
C73 O75 1.235 . S
C74 O79 1.287 . S
C74 O80 1.255 . S
O75 Fe67 1.997 . S
O75 C73 1.235 . S
C76 O82 1.287 . S
C76 O83 1.255 . S
O77 Fe66 1.976 . S
O77 C84 1.287 . S
O78 Fe67 1.996 1_655 S
O78 C84 1.255 1_655 S
O79 Fe69 1.976 . S
O79 C74 1.287 . S
O80 Fe66 1.996 . S
O80 C74 1.255 . S
C81 O85 1.295 . S
C81 O86 1.235 . S
O82 Fe67 1.976 . S
O82 C76 1.287 . S
O83 Fe69 1.996 . S
O83 C76 1.255 . S
C84 O77 1.287 . S
C84 O78 1.255 1_455 S
O85 Fe67 2.002 . S
O85 C81 1.295 . S
O86 Fe69 1.997 . S
O86 C81 1.235 . S
C87 O70 1.295 . S
C87 O71 1.235 . S
Fe88 O90 1.918 . S
Fe88 O93 1.997 . S
Fe88 O94 2.002 . S
Fe88 O99 1.976 . S
Fe88 O102 1.996 . S
Fe89 O90 1.918 . S
Fe89 O97 1.997 . S
Fe89 O100 1.996 . S
Fe89 O104 1.976 . S
Fe89 O107 2.002 . S
O90 Fe88 1.918 . S
O90 Fe89 1.918 . S
O90 Fe91 1.918 . S
Fe91 O90 1.918 . S
Fe91 O92 2.002 . S
Fe91 O101 1.976 . S
Fe91 O105 1.996 . S
Fe91 O108 1.997 . S
O92 Fe91 2.002 . S
O92 C109 1.295 . S
O93 Fe88 1.997 . S
O93 C109 1.235 . S
O94 Fe88 2.002 . S
O94 C95 1.295 . S
C95 O94 1.295 . S
C95 O97 1.235 . S
C96 O101 1.287 . S
C96 O102 1.255 . S
O97 Fe89 1.997 . S
O97 C95 1.235 . S
C98 O104 1.287 . S
C98 O105 1.255 . S
O99 Fe88 1.976 . S
O99 C106 1.287 . S
O100 Fe89 1.996 . S
O100 C106 1.255 . S
O101 Fe91 1.976 . S
O101 C96 1.287 . S
O102 Fe88 1.996 . S
O102 C96 1.255 . S
C103 O107 1.295 . S
C103 O108 1.235 . S
O104 Fe89 1.976 . S
O104 C98 1.287 . S
O105 Fe91 1.996 . S
O105 C98 1.255 . S
C106 O99 1.287 . S
C106 O100 1.255 . S
O107 Fe89 2.002 . S
O107 C103 1.295 . S
O108 Fe91 1.997 . S
O108 C103 1.235 . S
C109 O92 1.295 . S
C109 O93 1.235 . S
Fe110 O112 1.918 . S
Fe110 O115 1.997 . S
Fe110 O116 2.002 . S
Fe110 O121 1.976 . S
Fe110 O124 1.996 . S
Fe111 O112 1.918 . S
Fe111 O119 1.997 . S
Fe111 O122 1.996 . S
Fe111 O126 1.976 . S
Fe111 O129 2.002 . S
O112 Fe110 1.918 . S
O112 Fe111 1.918 . S
O112 Fe113 1.918 . S
Fe113 O112 1.918 . S
Fe113 O114 2.002 . S
Fe113 O123 1.976 . S
Fe113 O127 1.996 1_565 S
Fe113 O130 1.997 . S
O114 Fe113 2.002 . S
O114 C131 1.295 . S
O115 Fe110 1.997 . S
O115 C131 1.235 . S
O116 Fe110 2.002 . S
O116 C117 1.295 . S
C117 O116 1.295 . S
C117 O119 1.235 . S
C118 O123 1.287 . S
C118 O124 1.255 . S
O119 Fe111 1.997 . S
O119 C117 1.235 . S
C120 O126 1.287 . S
C120 O127 1.255 1_565 S
O121 Fe110 1.976 . S
O121 C128 1.287 . S
O122 Fe111 1.996 . S
O122 C128 1.255 . S
O123 Fe113 1.976 . S
O123 C118 1.287 . S
O124 Fe110 1.996 . S
O124 C118 1.255 . S
C125 O129 1.295 . S
C125 O130 1.235 . S
O126 Fe111 1.976 . S
O126 C120 1.287 . S
O127 Fe113 1.996 1_545 S
O127 C120 1.255 1_545 S
C128 O121 1.287 . S
C128 O122 1.255 . S
O129 Fe111 2.002 . S
O129 C125 1.295 . S
O130 Fe113 1.997 . S
O130 C125 1.235 . S
C131 O114 1.295 . S
C131 O115 1.235 . S
Fe132 O134 1.918 . S
Fe132 O137 1.997 . S
Fe132 O138 2.002 . S
Fe132 O143 1.976 . S
Fe132 O146 1.996 . S
Fe133 O134 1.918 . S
Fe133 O141 1.997 . S
Fe133 O144 1.996 . S
Fe133 O148 1.976 . S
Fe133 O151 2.002 . S
O134 Fe132 1.918 . S
O134 Fe133 1.918 . S
O134 Fe135 1.918 . S
Fe135 O134 1.918 . S
Fe135 O136 2.002 . S
Fe135 O145 1.976 . S
Fe135 O149 1.996 . S
Fe135 O152 1.997 . S
O136 Fe135 2.002 . S
O136 C153 1.295 . S
O137 Fe132 1.997 . S
O137 C153 1.235 . S
O138 Fe132 2.002 . S
O138 C139 1.295 . S
C139 O138 1.295 . S
C139 O141 1.235 . S
C140 O145 1.287 . S
C140 O146 1.255 . S
O141 Fe133 1.997 . S
O141 C139 1.235 . S
C142 O148 1.287 . S
C142 O149 1.255 . S
O143 Fe132 1.976 . S
O143 C150 1.287 . S
O144 Fe133 1.996 . S
O144 C150 1.255 . S
O145 Fe135 1.976 . S
O145 C140 1.287 . S
O146 Fe132 1.996 . S
O146 C140 1.255 . S
C147 O151 1.295 . S
C147 O152 1.235 . S
O148 Fe133 1.976 . S
O148 C142 1.287 . S
O149 Fe135 1.996 . S
O149 C142 1.255 . S
C150 O143 1.287 . S
C150 O144 1.255 . S
O151 Fe133 2.002 . S
O151 C147 1.295 . S
O152 Fe135 1.997 . S
O152 C147 1.235 . S
C153 O136 1.295 . S
C153 O137 1.235 . S
Fe154 O156 1.918 . S
Fe154 O159 1.997 . S
Fe154 O160 2.002 . S
Fe154 O165 1.976 . S
Fe154 O168 1.996 . S
Fe155 O156 1.918 . S
Fe155 O163 1.997 . S
Fe155 O166 1.996 . S
Fe155 O170 1.976 . S
Fe155 O173 2.002 . S
O156 Fe154 1.918 . S
O156 Fe155 1.918 . S
O156 Fe157 1.918 . S
Fe157 O156 1.918 . S
Fe157 O158 2.002 . S
Fe157 O167 1.976 . S
Fe157 O171 1.996 . S
Fe157 O174 1.997 . S
O158 Fe157 2.002 . S
O158 C175 1.295 . S
O159 Fe154 1.997 . S
O159 C175 1.235 . S
O160 Fe154 2.002 . S
O160 C161 1.295 . S
C161 O160 1.295 . S
C161 O163 1.235 . S
C162 O167 1.287 . S
C162 O168 1.255 . S
O163 Fe155 1.997 . S
O163 C161 1.235 . S
C164 O170 1.287 . S
C164 O171 1.255 . S
O165 Fe154 1.976 . S
O165 C172 1.287 . S
O166 Fe155 1.996 . S
O166 C172 1.255 . S
O167 Fe157 1.976 . S
O167 C162 1.287 . S
O168 Fe154 1.996 . S
O168 C162 1.255 . S
C169 O173 1.295 . S
C169 O174 1.235 . S
O170 Fe155 1.976 . S
O170 C164 1.287 . S
O171 Fe157 1.996 . S
O171 C164 1.255 . S
C172 O165 1.287 . S
C172 O166 1.255 . S
O173 Fe155 2.002 . S
O173 C169 1.295 . S
O174 Fe157 1.997 . S
O174 C169 1.235 . S
C175 O158 1.295 . S
C175 O159 1.235 . S
Fe176 O178 1.918 . S
Fe176 O181 1.997 . S
Fe176 O182 2.002 . S
Fe176 O187 1.976 . S
Fe176 O190 1.996 . S
Fe177 O178 1.918 . S
Fe177 O185 1.997 . S
Fe177 O188 1.996 . S
Fe177 O192 1.976 . S
Fe177 O195 2.002 . S
O178 Fe176 1.918 . S
O178 Fe177 1.918 . S
O178 Fe179 1.918 . S
Fe179 O178 1.918 . S
Fe179 O180 2.002 . S
Fe179 O189 1.976 . S
Fe179 O193 1.996 . S
Fe179 O196 1.997 . S
O180 Fe179 2.002 . S
O180 C197 1.295 . S
O181 Fe176 1.997 . S
O181 C197 1.235 . S
O182 Fe176 2.002 . S
O182 C183 1.295 . S
C183 O182 1.295 . S
C183 O185 1.235 . S
C184 O189 1.287 . S
C184 O190 1.255 . S
O185 Fe177 1.997 . S
O185 C183 1.235 . S
C186 O192 1.287 . S
C186 O193 1.255 . S
O187 Fe176 1.976 . S
O187 C194 1.287 . S
O188 Fe177 1.996 . S
O188 C194 1.255 . S
O189 Fe179 1.976 . S
O189 C184 1.287 . S
O190 Fe176 1.996 . S
O190 C184 1.255 . S
C191 O195 1.295 . S
C191 O196 1.235 . S
O192 Fe177 1.976 . S
O192 C186 1.287 . S
O193 Fe179 1.996 . S
O193 C186 1.255 . S
C194 O187 1.287 . S
C194 O188 1.255 . S
O195 Fe177 2.002 . S
O195 C191 1.295 . S
O196 Fe179 1.997 . S
O196 C191 1.235 . S
C197 O180 1.295 . S
C197 O181 1.235 . S
H198 C204 0.930 . S
H199 C207 0.930 . S
H200 C208 0.930 . S
H201 C209 0.930 . S
H202 C212 0.930 . S
H203 C213 0.930 . S
C204 H198 0.930 . S
C204 C205 1.355 . S
C204 C206 1.415 . S
C205 C204 1.355 . S
C205 C207 1.419 . S
C206 C204 1.415 . S
C206 C211 1.425 . S
C206 C213 1.409 1_545 S
C207 H199 0.930 . S
C207 C205 1.419 . S
C207 C208 1.362 . S
C208 H200 0.930 . S
C208 C207 1.362 . S
C208 C211 1.409 . S
C209 H201 0.930 . S
C209 C210 1.355 . S
C209 C211 1.415 1_565 S
C210 C209 1.355 . S
C210 C212 1.419 . S
C211 C206 1.425 . S
C211 C208 1.409 . S
C211 C209 1.415 1_545 S
C212 H202 0.930 . S
C212 C210 1.419 . S
C212 C213 1.362 . S
C213 H203 0.930 . S
C213 C206 1.409 1_565 S
C213 C212 1.362 . S
H214 C220 0.930 . S
H215 C223 0.930 . S
H216 C224 0.930 . S
H217 C225 0.930 . S
H218 C228 0.930 . S
H219 C229 0.930 . S
C220 H214 0.930 . S
C220 C221 1.355 . S
C220 C222 1.415 . S
C221 C220 1.355 . S
C221 C223 1.419 . S
C222 C220 1.415 . S
C222 C227 1.425 . S
C222 C229 1.409 1_655 S
C223 H215 0.930 . S
C223 C221 1.419 . S
C223 C224 1.362 . S
C224 H216 0.930 . S
C224 C223 1.362 . S
C224 C227 1.409 . S
C225 H217 0.930 . S
C225 C226 1.355 . S
C225 C227 1.415 1_455 S
C226 C225 1.355 . S
C226 C228 1.419 . S
C227 C222 1.425 . S
C227 C224 1.409 . S
C227 C225 1.415 1_655 S
C228 H218 0.930 . S
C228 C226 1.419 . S
C228 C229 1.362 . S
C229 H219 0.930 . S
C229 C222 1.409 1_455 S
C229 C228 1.362 . S
H230 C236 0.930 . S
H231 C239 0.930 . S
H232 C240 0.930 . S
H233 C241 0.930 . S
H234 C244 0.930 . S
H235 C245 0.930 . S
C236 H230 0.930 . S
C236 C237 1.355 . S
C236 C238 1.415 . S
C237 C236 1.355 . S
C237 C239 1.419 . S
C238 C236 1.415 . S
C238 C243 1.425 . S
C238 C245 1.409 . S
C239 H231 0.930 . S
C239 C237 1.419 . S
C239 C240 1.362 . S
C240 H232 0.930 . S
C240 C239 1.362 . S
C240 C243 1.409 . S
C241 H233 0.930 . S
C241 C242 1.355 . S
C241 C243 1.415 . S
C242 C241 1.355 . S
C242 C244 1.419 . S
C243 C238 1.425 . S
C243 C240 1.409 . S
C243 C241 1.415 . S
C244 H234 0.930 . S
C244 C242 1.419 . S
C244 C245 1.362 . S
C245 H235 0.930 . S
C245 C238 1.409 . S
C245 C244 1.362 . S
H246 C252 0.930 . S
H247 C255 0.930 . S
H248 C256 0.930 . S
H249 C257 0.930 . S
H250 C260 0.930 . S
H251 C261 0.930 . S
C252 H246 0.930 . S
C252 C253 1.355 . S
C252 C254 1.415 1_455 S
C253 C252 1.355 . S
C253 C255 1.419 . S
C254 C252 1.415 1_655 S
C254 C259 1.425 . S
C254 C261 1.409 . S
C255 H247 0.930 . S
C255 C253 1.419 . S
C255 C256 1.362 . S
C256 H248 0.930 . S
C256 C255 1.362 . S
C256 C259 1.409 1_455 S
C257 H249 0.930 . S
C257 C258 1.355 . S
C257 C259 1.415 . S
C258 C257 1.355 . S
C258 C260 1.419 . S
C259 C254 1.425 . S
C259 C256 1.409 1_655 S
C259 C257 1.415 . S
C260 H250 0.930 . S
C260 C258 1.419 . S
C260 C261 1.362 . S
C261 H251 0.930 . S
C261 C254 1.409 . S
C261 C260 1.362 . S
H262 C268 0.930 . S
H263 C271 0.930 . S
H264 C272 0.930 . S
H265 C273 0.930 . S
H266 C276 0.930 . S
H267 C277 0.930 . S
C268 H262 0.930 . S
C268 C269 1.355 . S
C268 C270 1.415 . S
C269 C268 1.355 . S
C269 C271 1.419 . S
C270 C268 1.415 . S
C270 C275 1.425 . S
C270 C277 1.409 . S
C271 H263 0.930 . S
C271 C269 1.419 . S
C271 C272 1.362 . S
C272 H264 0.930 . S
C272 C271 1.362 . S
C272 C275 1.409 . S
C273 H265 0.930 . S
C273 C274 1.355 . S
C273 C275 1.415 . S
C274 C273 1.355 . S
C274 C276 1.419 . S
C275 C270 1.425 . S
C275 C272 1.409 . S
C275 C273 1.415 . S
C276 H266 0.930 . S
C276 C274 1.419 . S
C276 C277 1.362 . S
C277 H267 0.930 . S
C277 C270 1.409 . S
C277 C276 1.362 . S
H278 C284 0.930 . S
H279 C287 0.930 . S
H280 C288 0.930 . S
H281 C289 0.930 . S
H282 C292 0.930 . S
H283 C293 0.930 . S
C284 H278 0.930 . S
C284 C285 1.355 . S
C284 C286 1.415 1_565 S
C285 C284 1.355 . S
C285 C287 1.419 . S
C286 C284 1.415 1_545 S
C286 C291 1.425 . S
C286 C293 1.409 . S
C287 H279 0.930 . S
C287 C285 1.419 . S
C287 C288 1.362 . S
C288 H280 0.930 . S
C288 C287 1.362 . S
C288 C291 1.409 1_565 S
C289 H281 0.930 . S
C289 C290 1.355 . S
C289 C291 1.415 . S
C290 C289 1.355 . S
C290 C292 1.419 . S
C291 C286 1.425 . S
C291 C288 1.409 1_545 S
C291 C289 1.415 . S
C292 H282 0.930 . S
C292 C290 1.419 . S
C292 C293 1.362 . S
C293 H283 0.930 . S
C293 C286 1.409 . S
C293 C292 1.362 . S
H294 C300 0.930 . S
H295 C303 0.930 . S
H296 C304 0.930 . S
H297 C305 0.930 . S
H298 C308 0.930 . S
H299 C309 0.930 . S
C300 H294 0.930 . S
C300 C301 1.355 . S
C300 C302 1.415 . S
C301 C300 1.355 . S
C301 C303 1.419 . S
C302 C300 1.415 . S
C302 C307 1.425 . S
C302 C309 1.409 1_655 S
C303 H295 0.930 . S
C303 C301 1.419 . S
C303 C304 1.362 . S
C304 H296 0.930 . S
C304 C303 1.362 . S
C304 C307 1.409 . S
C305 H297 0.930 . S
C305 C306 1.355 . S
C305 C307 1.415 . S
C306 C305 1.355 . S
C306 C308 1.419 1_655 S
C307 C302 1.425 . S
C307 C304 1.409 . S
C307 C305 1.415 . S
C308 H298 0.930 . S
C308 C306 1.419 1_455 S
C308 C309 1.362 . S
C309 H299 0.930 . S
C309 C302 1.409 1_455 S
C309 C308 1.362 . S
H310 C316 0.930 . S
H311 C319 0.930 . S
H312 C320 0.930 . S
H313 C321 0.930 . S
H314 C324 0.930 . S
H315 C325 0.930 . S
C316 H310 0.930 . S
C316 C317 1.355 . S
C316 C318 1.415 . S
C317 C316 1.355 . S
C317 C319 1.419 . S
C318 C316 1.415 . S
C318 C323 1.425 . S
C318 C325 1.409 . S
C319 H311 0.930 . S
C319 C317 1.419 . S
C319 C320 1.362 . S
C320 H312 0.930 . S
C320 C319 1.362 . S
C320 C323 1.409 . S
C321 H313 0.930 . S
C321 C322 1.355 . S
C321 C323 1.415 . S
C322 C321 1.355 . S
C322 C324 1.419 . S
C323 C318 1.425 . S
C323 C320 1.409 . S
C323 C321 1.415 . S
C324 H314 0.930 . S
C324 C322 1.419 . S
C324 C325 1.362 . S
C325 H315 0.930 . S
C325 C318 1.409 . S
C325 C324 1.362 . S
H326 C332 0.930 . S
H327 C335 0.930 . S
H328 C336 0.930 . S
H329 C337 0.930 . S
H330 C340 0.930 1_565 S
H331 C341 0.930 . S
C332 H326 0.930 . S
C332 C333 1.355 . S
C332 C334 1.415 . S
C333 C332 1.355 . S
C333 C335 1.419 . S
C334 C332 1.415 . S
C334 C339 1.425 . S
C334 C341 1.409 . S
C335 H327 0.930 . S
C335 C333 1.419 . S
C335 C336 1.362 . S
C336 H328 0.930 . S
C336 C335 1.362 . S
C336 C339 1.409 . S
C337 H329 0.930 . S
C337 C338 1.355 . S
C337 C339 1.415 . S
C338 C337 1.355 . S
C338 C340 1.419 . S
C339 C334 1.425 . S
C339 C336 1.409 . S
C339 C337 1.415 . S
C340 H330 0.930 1_545 S
C340 C338 1.419 . S
C340 C341 1.362 . S
C341 H331 0.930 . S
C341 C334 1.409 . S
C341 C340 1.362 . S
H342 C348 0.930 . S
H343 C351 0.930 . S
H344 C352 0.930 . S
H345 C353 0.930 1_565 S
H346 C356 0.930 . S
H347 C357 0.930 . S
C348 H342 0.930 . S
C348 C349 1.355 . S
C348 C350 1.415 . S
C349 C348 1.355 . S
C349 C351 1.419 . S
C350 C348 1.415 . S
C350 C355 1.425 . S
C350 C357 1.409 . S
C351 H343 0.930 . S
C351 C349 1.419 . S
C351 C352 1.362 . S
C352 H344 0.930 . S
C352 C351 1.362 . S
C352 C355 1.409 . S
C353 H345 0.930 1_545 S
C353 C354 1.355 . S
C353 C355 1.415 . S
C354 C353 1.355 . S
C354 C356 1.419 . S
C355 C350 1.425 . S
C355 C352 1.409 . S
C355 C353 1.415 . S
C356 H346 0.930 . S
C356 C354 1.419 . S
C356 C357 1.362 . S
C357 H347 0.930 . S
C357 C350 1.409 . S
C357 C356 1.362 . S
H358 C364 0.930 . S
H359 C367 0.930 . S
H360 C368 0.930 1_455 S
H361 C369 0.930 . S
H362 C372 0.930 . S
H363 C373 0.930 . S
C364 H358 0.930 . S
C364 C365 1.355 . S
C364 C366 1.415 . S
C365 C364 1.355 . S
C365 C367 1.419 1_655 S
C366 C364 1.415 . S
C366 C371 1.425 . S
C366 C373 1.409 . S
C367 H359 0.930 . S
C367 C365 1.419 1_455 S
C367 C368 1.362 1_455 S
C368 H360 0.930 1_655 S
C368 C367 1.362 1_655 S
C368 C371 1.409 . S
C369 H361 0.930 . S
C369 C370 1.355 . S
C369 C371 1.415 . S
C370 C369 1.355 . S
C370 C372 1.419 . S
C371 C366 1.425 . S
C371 C368 1.409 . S
C371 C369 1.415 . S
C372 H362 0.930 . S
C372 C370 1.419 . S
C372 C373 1.362 . S
C373 H363 0.930 . S
C373 C366 1.409 . S
C373 C372 1.362 . S
H374 C380 0.930 . S
H375 C383 0.930 . S
H376 C384 0.930 . S
H377 C385 0.930 . S
H378 C388 0.930 . S
H379 C389 0.930 . S
C380 H374 0.930 . S
C380 C381 1.355 . S
C380 C382 1.415 . S
C381 C380 1.355 . S
C381 C383 1.419 . S
C382 C380 1.415 . S
C382 C387 1.425 . S
C382 C389 1.409 . S
C383 H375 0.930 . S
C383 C381 1.419 . S
C383 C384 1.362 . S
C384 H376 0.930 . S
C384 C383 1.362 . S
C384 C387 1.409 . S
C385 H377 0.930 . S
C385 C386 1.355 . S
C385 C387 1.415 . S
C386 C385 1.355 . S
C386 C388 1.419 . S
C387 C382 1.425 . S
C387 C384 1.409 . S
C387 C385 1.415 . S
C388 H378 0.930 . S
C388 C386 1.419 . S
C388 C389 1.362 . S
C389 H379 0.930 . S
C389 C382 1.409 . S
C389 C388 1.362 . S
H390 C396 0.930 . S
H391 C399 0.930 . S
H392 C400 0.930 . S
H393 C401 0.930 . S
H394 C404 0.930 . S
H395 C405 0.930 . S
C396 H390 0.930 . S
C396 C397 1.355 . S
C396 C398 1.415 . S
C397 C396 1.355 . S
C397 C399 1.419 . S
C398 C396 1.415 . S
C398 C403 1.425 . S
C398 C405 1.409 . S
C399 H391 0.930 . S
C399 C397 1.419 . S
C399 C400 1.362 . S
C400 H392 0.930 . S
C400 C399 1.362 . S
C400 C403 1.409 . S
C401 H393 0.930 . S
C401 C402 1.355 . S
C401 C403 1.415 . S
C402 C401 1.355 . S
C402 C404 1.419 . S
C403 C398 1.425 . S
C403 C400 1.409 . S
C403 C401 1.415 . S
C404 H394 0.930 . S
C404 C402 1.419 . S
C404 C405 1.362 . S
C405 H395 0.930 . S
C405 C398 1.409 . S
C405 C404 1.362 . S
H406 C412 0.930 . S
H407 C415 0.930 . S
H408 C416 0.930 . S
H409 C417 0.930 . S
H410 C420 0.930 . S
H411 C421 0.930 1_545 S
C412 H406 0.930 . S
C412 C413 1.355 . S
C412 C414 1.415 . S
C413 C412 1.355 . S
C413 C415 1.419 . S
C414 C412 1.415 . S
C414 C419 1.425 . S
C414 C421 1.409 . S
C415 H407 0.930 . S
C415 C413 1.419 . S
C415 C416 1.362 . S
C416 H408 0.930 . S
C416 C415 1.362 . S
C416 C419 1.409 . S
C417 H409 0.930 . S
C417 C418 1.355 . S
C417 C419 1.415 . S
C418 C417 1.355 . S
C418 C420 1.419 . S
C419 C414 1.425 . S
C419 C416 1.409 . S
C419 C417 1.415 . S
C420 H410 0.930 . S
C420 C418 1.419 . S
C420 C421 1.362 . S
C421 H411 0.930 1_565 S
C421 C414 1.409 . S
C421 C420 1.362 . S
H422 C428 0.930 . S
H423 C431 0.930 . S
H424 C432 0.930 . S
H425 C433 0.930 . S
H426 C436 0.930 1_655 S
H427 C437 0.930 1_655 S
C428 H422 0.930 . S
C428 C429 1.355 . S
C428 C430 1.415 . S
C429 C428 1.355 . S
C429 C431 1.419 . S
C430 C428 1.415 . S
C430 C435 1.425 . S
C430 C437 1.409 . S
C431 H423 0.930 . S
C431 C429 1.419 . S
C431 C432 1.362 . S
C432 H424 0.930 . S
C432 C431 1.362 . S
C432 C435 1.409 . S
C433 H425 0.930 . S
C433 C434 1.355 . S
C433 C435 1.415 . S
C434 C433 1.355 . S
C434 C436 1.419 . S
C435 C430 1.425 . S
C435 C432 1.409 . S
C435 C433 1.415 . S
C436 H426 0.930 1_455 S
C436 C434 1.419 . S
C436 C437 1.362 . S
C437 H427 0.930 1_455 S
C437 C430 1.409 . S
C437 C436 1.362 . S
H438 C444 0.930 . S
H439 C447 0.930 . S
H440 C448 0.930 . S
H441 C449 0.930 . S
H442 C452 0.930 . S
H443 C453 0.930 . S
C444 H438 0.930 . S
C444 C445 1.355 . S
C444 C446 1.415 . S
C445 C444 1.355 . S
C445 C447 1.419 . S
C446 C444 1.415 . S
C446 C451 1.425 . S
C446 C453 1.409 . S
C447 H439 0.930 . S
C447 C445 1.419 . S
C447 C448 1.362 . S
C448 H440 0.930 . S
C448 C447 1.362 . S
C448 C451 1.409 . S
C449 H441 0.930 . S
C449 C450 1.355 . S
C449 C451 1.415 . S
C450 C449 1.355 . S
C450 C452 1.419 . S
C451 C446 1.425 . S
C451 C448 1.409 . S
C451 C449 1.415 . S
C452 H442 0.930 . S
C452 C450 1.419 . S
C452 C453 1.362 . S
C453 H443 0.930 . S
C453 C446 1.409 . S
C453 C452 1.362 . S
H454 C460 0.930 . S
H455 C463 0.930 . S
H456 C464 0.930 . S
H457 C465 0.930 . S
H458 C468 0.930 . S
H459 C469 0.930 . S
C460 H454 0.930 . S
C460 C461 1.355 . S
C460 C462 1.415 . S
C461 C460 1.355 . S
C461 C463 1.419 . S
C462 C460 1.415 . S
C462 C467 1.425 . S
C462 C469 1.409 . S
C463 H455 0.930 . S
C463 C461 1.419 . S
C463 C464 1.362 . S
C464 H456 0.930 . S
C464 C463 1.362 . S
C464 C467 1.409 . S
C465 H457 0.930 . S
C465 C466 1.355 . S
C465 C467 1.415 . S
C466 C465 1.355 . S
C466 C468 1.419 . S
C467 C462 1.425 . S
C467 C464 1.409 . S
C467 C465 1.415 . S
C468 H458 0.930 . S
C468 C466 1.419 . S
C468 C469 1.362 . S
C469 H459 0.930 . S
C469 C462 1.409 . S
C469 C468 1.362 . S
H470 C476 0.930 . S
H471 C479 0.930 . S
H472 C480 0.930 . S
H473 C481 0.930 . S
H474 C484 0.930 . S
H475 C485 0.930 . S
C476 H470 0.930 . S
C476 C477 1.355 . S
C476 C478 1.415 . S
C477 C476 1.355 . S
C477 C479 1.419 . S
C478 C476 1.415 . S
C478 C483 1.425 . S
C478 C485 1.409 . S
C479 H471 0.930 . S
C479 C477 1.419 . S
C479 C480 1.362 . S
C480 H472 0.930 . S
C480 C479 1.362 . S
C480 C483 1.409 . S
C481 H473 0.930 . S
C481 C482 1.355 . S
C481 C483 1.415 . S
C482 C481 1.355 . S
C482 C484 1.419 . S
C483 C478 1.425 . S
C483 C480 1.409 . S
C483 C481 1.415 . S
C484 H474 0.930 . S
C484 C482 1.419 . S
C484 C485 1.362 . S
C485 H475 0.930 . S
C485 C478 1.409 . S
C485 C484 1.362 . S
H486 C492 0.930 . S
H487 C495 0.930 . S
H488 C496 0.930 . S
H489 C497 0.930 1_554 S
H490 C500 0.930 . S
H491 C501 0.930 . S
C492 H486 0.930 . S
C492 C493 1.355 . S
C492 C494 1.415 . S
C493 C492 1.355 . S
C493 C495 1.419 1_556 S
C494 C492 1.415 . S
C494 C499 1.425 . S
C494 C501 1.409 . S
C495 H487 0.930 . S
C495 C493 1.419 1_554 S
C495 C496 1.362 . S
C496 H488 0.930 . S
C496 C495 1.362 . S
C496 C499 1.409 1_554 S
C497 H489 0.930 1_556 S
C497 C498 1.355 . S
C497 C499 1.415 . S
C498 C497 1.355 . S
C498 C500 1.419 . S
C499 C494 1.425 . S
C499 C496 1.409 1_556 S
C499 C497 1.415 . S
C500 H490 0.930 . S
C500 C498 1.419 . S
C500 C501 1.362 . S
C501 H491 0.930 . S
C501 C494 1.409 . S
C501 C500 1.362 . S
H502 C508 0.930 . S
H503 C511 0.930 . S
H504 C512 0.930 . S
H505 C513 0.930 . S
H506 C516 0.930 . S
H507 C517 0.930 . S
C508 H502 0.930 . S
C508 C509 1.355 1_554 S
C508 C510 1.415 . S
C509 C508 1.355 1_556 S
C509 C511 1.419 . S
C510 C508 1.415 . S
C510 C515 1.425 1_554 S
C510 C517 1.409 . S
C511 H503 0.930 . S
C511 C509 1.419 . S
C511 C512 1.362 . S
C512 H504 0.930 . S
C512 C511 1.362 . S
C512 C515 1.409 . S
C513 H505 0.930 . S
C513 C514 1.355 . S
C513 C515 1.415 . S
C514 C513 1.355 . S
C514 C516 1.419 1_556 S
C515 C510 1.425 1_556 S
C515 C512 1.409 . S
C515 C513 1.415 . S
C516 H506 0.930 . S
C516 C514 1.419 1_554 S
C516 C517 1.362 . S
C517 H507 0.930 . S
C517 C510 1.409 . S
C517 C516 1.362 . S
H518 C524 0.930 . S
H519 C527 0.930 . S
H520 C528 0.930 . S
H521 C529 0.930 . S
H522 C532 0.930 . S
H523 C533 0.930 . S
C524 H518 0.930 . S
C524 C525 1.355 1_554 S
C524 C526 1.415 . S
C525 C524 1.355 1_556 S
C525 C527 1.419 . S
C526 C524 1.415 . S
C526 C531 1.425 1_554 S
C526 C533 1.409 . S
C527 H519 0.930 . S
C527 C525 1.419 . S
C527 C528 1.362 . S
C528 H520 0.930 . S
C528 C527 1.362 . S
C528 C531 1.409 . S
C529 H521 0.930 . S
C529 C530 1.355 . S
C529 C531 1.415 . S
C530 C529 1.355 . S
C530 C532 1.419 1_556 S
C531 C526 1.425 1_556 S
C531 C528 1.409 . S
C531 C529 1.415 . S
C532 H522 0.930 . S
C532 C530 1.419 1_554 S
C532 C533 1.362 . S
C533 H523 0.930 . S
C533 C526 1.409 . S
C533 C532 1.362 . S
H534 C540 0.930 . S
H535 C543 0.930 . S
H536 C544 0.930 . S
H537 C545 0.930 . S
H538 C548 0.930 . S
H539 C549 0.930 . S
C540 H534 0.930 . S
C540 C541 1.355 . S
C540 C542 1.415 . S
C541 C540 1.355 . S
C541 C543 1.419 . S
C542 C540 1.415 . S
C542 C547 1.425 . S
C542 C549 1.409 . S
C543 H535 0.930 . S
C543 C541 1.419 . S
C543 C544 1.362 . S
C544 H536 0.930 . S
C544 C543 1.362 . S
C544 C547 1.409 . S
C545 H537 0.930 . S
C545 C546 1.355 . S
C545 C547 1.415 . S
C546 C545 1.355 . S
C546 C548 1.419 . S
C547 C542 1.425 . S
C547 C544 1.409 . S
C547 C545 1.415 . S
C548 H538 0.930 . S
C548 C546 1.419 . S
C548 C549 1.362 . S
C549 H539 0.930 . S
C549 C542 1.409 . S
C549 C548 1.362 . S
H550 C556 0.930 . S
H551 C559 0.930 . S
H552 C560 0.930 . S
H553 C561 0.930 . S
H554 C564 0.930 . S
H555 C565 0.930 . S
C556 H550 0.930 . S
C556 C557 1.355 . S
C556 C558 1.415 . S
C557 C556 1.355 . S
C557 C559 1.419 . S
C558 C556 1.415 . S
C558 C563 1.425 . S
C558 C565 1.409 . S
C559 H551 0.930 . S
C559 C557 1.419 . S
C559 C560 1.362 . S
C560 H552 0.930 . S
C560 C559 1.362 . S
C560 C563 1.409 . S
C561 H553 0.930 . S
C561 C562 1.355 . S
C561 C563 1.415 . S
C562 C561 1.355 . S
C562 C564 1.419 . S
C563 C558 1.425 . S
C563 C560 1.409 . S
C563 C561 1.415 . S
C564 H554 0.930 . S
C564 C562 1.419 . S
C564 C565 1.362 . S
C565 H555 0.930 . S
C565 C558 1.409 . S
C565 C564 1.362 . S
H566 C572 0.930 . S
H567 C575 0.930 . S
H568 C576 0.930 . S
H569 C577 0.930 . S
H570 C580 0.930 . S
H571 C581 0.930 . S
C572 H566 0.930 . S
C572 C573 1.355 . S
C572 C574 1.415 . S
C573 C572 1.355 . S
C573 C575 1.419 . S
C574 C572 1.415 . S
C574 C579 1.425 . S
C574 C581 1.409 . S
C575 H567 0.930 . S
C575 C573 1.419 . S
C575 C576 1.362 . S
C576 H568 0.930 . S
C576 C575 1.362 . S
C576 C579 1.409 . S
C577 H569 0.930 . S
C577 C578 1.355 . S
C577 C579 1.415 . S
C578 C577 1.355 . S
C578 C580 1.419 . S
C579 C574 1.425 . S
C579 C576 1.409 . S
C579 C577 1.415 . S
C580 H570 0.930 . S
C580 C578 1.419 . S
C580 C581 1.362 . S
C581 H571 0.930 . S
C581 C574 1.409 . S
C581 C580 1.362 . S
H582 C588 0.930 . S
H583 C591 0.930 . S
H584 C592 0.930 . S
H585 C593 0.930 . S
H586 C596 0.930 . S
H587 C597 0.930 . S
C588 H582 0.930 . S
C588 C589 1.355 1_655 S
C588 C590 1.415 . S
C589 C588 1.355 1_455 S
C589 C591 1.419 . S
C590 C588 1.415 . S
C590 C595 1.425 . S
C590 C597 1.409 . S
C591 H583 0.930 . S
C591 C589 1.419 . S
C591 C592 1.362 1_455 S
C592 H584 0.930 . S
C592 C591 1.362 1_655 S
C592 C595 1.409 . S
C593 H585 0.930 . S
C593 C594 1.355 . S
C593 C595 1.415 . S
C594 C593 1.355 . S
C594 C596 1.419 . S
C595 C590 1.425 . S
C595 C592 1.409 . S
C595 C593 1.415 . S
C596 H586 0.930 . S
C596 C594 1.419 . S
C596 C597 1.362 . S
C597 H587 0.930 . S
C597 C590 1.409 . S
C597 C596 1.362 . S
H598 C604 0.930 1_565 S
H599 C607 0.930 . S
H600 C608 0.930 . S
H601 C609 0.930 . S
H602 C612 0.930 . S
H603 C613 0.930 . S
C604 H598 0.930 1_545 S
C604 C605 1.347 1_545 S
C604 C606 1.415 . S
C605 C604 1.347 1_565 S
C605 C607 1.415 1_565 S
C606 C604 1.415 . S
C606 C611 1.425 . S
C606 C613 1.409 . S
C607 H599 0.930 . S
C607 C605 1.415 1_545 S
C607 C608 1.362 . S
C608 H600 0.930 . S
C608 C607 1.362 . S
C608 C611 1.409 . S
C609 H601 0.930 . S
C609 C610 1.355 . S
C609 C611 1.415 . S
C610 C609 1.355 . S
C610 C612 1.419 . S
C611 C606 1.425 . S
C611 C608 1.409 . S
C611 C609 1.415 . S
C612 H602 0.930 . S
C612 C610 1.419 . S
C612 C613 1.362 . S
C613 H603 0.930 . S
C613 C606 1.409 . S
C613 C612 1.362 . S
H614 C620 0.930 . S
H615 C623 0.930 . S
H616 C624 0.930 . S
H617 C625 0.930 1_455 S
H618 C628 0.930 . S
H619 C629 0.930 . S
C620 H614 0.930 . S
C620 C621 1.355 1_545 S
C620 C622 1.415 . S
C621 C620 1.355 1_565 S
C621 C623 1.419 . S
C622 C620 1.415 . S
C622 C627 1.425 . S
C622 C629 1.409 . S
C623 H615 0.930 . S
C623 C621 1.419 . S
C623 C624 1.362 1_565 S
C624 H616 0.930 . S
C624 C623 1.362 1_545 S
C624 C627 1.409 . S
C625 H617 0.930 1_655 S
C625 C626 1.355 1_655 S
C625 C627 1.415 . S
C626 C625 1.355 1_455 S
C626 C628 1.419 1_455 S
C627 C622 1.425 . S
C627 C624 1.409 . S
C627 C625 1.415 . S
C628 H618 0.930 . S
C628 C626 1.419 1_655 S
C628 C629 1.362 . S
C629 H619 0.930 . S
C629 C622 1.409 . S
C629 C628 1.362 . S
C205 C18 1.318 . S
C210 C164 1.284 . S
C221 C30 1.321 . S
C226 C194 1.272 . S
C237 C142 1.268 . S
C242 C62 1.322 . S
C253 C169 1.410 . S
C258 C51 1.372 . S
C269 C183 1.377 . S
C274 C7 1.406 . S
C285 C147 1.410 . S
C290 C43 1.373 . S
C301 C40 1.264 . S
C306 C84 1.323 1_655 S
C317 C106 1.313 . S
C322 C54 1.283 . S
C333 C10 1.315 . S
C338 C120 1.309 1_545 S
C349 C29 1.394 . S
C354 C125 1.394 1_545 S
C365 C73 1.408 1_655 S
C370 C59 1.361 . S
C381 C15 1.361 . S
C386 C95 1.409 . S
C397 C150 1.314 . S
C402 C98 1.301 . S
C413 C118 1.246 . S
C418 C172 1.325 . S
C429 C184 1.308 . S
C434 C76 1.317 . S
C445 C197 1.404 . S
C450 C103 1.363 . S
C461 C131 1.375 . S
C466 C139 1.390 . S
C477 C81 1.377 . S
C482 C161 1.406 . S
C493 C8 1.004 . S
C498 C37 0.930 . S
C509 C65 1.014 . S
C514 C32 0.953 . S
C525 C52 1.002 . S
C530 C21 0.948 . S
C541 C109 0.928 . S
C546 C74 1.006 . S
C557 C117 1.016 . S
C562 C96 0.953 . S
C573 C128 0.957 . S
C578 C87 1.004 . S
C589 C175 0.925 . S
C594 C140 1.009 . S
C605 C162 1.018 . S
C610 C191 0.927 . S
C621 C153 0.942 . S
C626 C186 0.995 . S
