# Generated by pormake.
# Topology wgp, (5)-cn, num edge types: 1
# Building blocks:
#     Node 0, Type 0, BuildingBlock: XOMCOT_clean_sbu_1, # of connection points: 5
#     Node 1, Type 0, BuildingBlock: XOMCOT_clean_sbu_1, # of connection points: 5
#     Node 2, Type 0, BuildingBlock: XOMCOT_clean_sbu_1, # of connection points: 5
#     Node 3, Type 0, BuildingBlock: XOMCOT_clean_sbu_1, # of connection points: 5
#     Node 4, Type 0, BuildingBlock: XOMCOT_clean_sbu_1, # of connection points: 5
#     Node 5, Type 0, BuildingBlock: XOMCOT_clean_sbu_1, # of connection points: 5
#     Node 6, Type 0, BuildingBlock: XOMCOT_clean_sbu_1, # of connection points: 5
#     Node 7, Type 0, BuildingBlock: XOMCOT_clean_sbu_1, # of connection points: 5
#     Node 8, Type 0, BuildingBlock: XOMCOT_clean_sbu_1, # of connection points: 5
#     Node 9, Type 0, BuildingBlock: XOMCOT_clean_sbu_1, # of connection points: 5
#     Node 10, Type 0, BuildingBlock: XOMCOT_clean_sbu_1, # of connection points: 5
#     Node 11, Type 0, BuildingBlock: XOMCOT_clean_sbu_1, # of connection points: 5
#     Node 12, Type 0, BuildingBlock: XOMCOT_clean_sbu_1, # of connection points: 5
#     Node 13, Type 0, BuildingBlock: XOMCOT_clean_sbu_1, # of connection points: 5
#     Node 14, Type 0, BuildingBlock: XOMCOT_clean_sbu_1, # of connection points: 5
#     Node 15, Type 0, BuildingBlock: XOMCOT_clean_sbu_1, # of connection points: 5
#     Node 16, Type 0, BuildingBlock: XOMCOT_clean_sbu_1, # of connection points: 5
#     Node 17, Type 0, BuildingBlock: XOMCOT_clean_sbu_1, # of connection points: 5
#     Node 18, Type 0, BuildingBlock: XOMCOT_clean_sbu_1, # of connection points: 5
#     Node 19, Type 0, BuildingBlock: XOMCOT_clean_sbu_1, # of connection points: 5
#     Node 20, Type 0, BuildingBlock: XOMCOT_clean_sbu_1, # of connection points: 5
#     Node 21, Type 0, BuildingBlock: XOMCOT_clean_sbu_1, # of connection points: 5
#     Node 22, Type 0, BuildingBlock: XOMCOT_clean_sbu_1, # of connection points: 5
#     Node 23, Type 0, BuildingBlock: XOMCOT_clean_sbu_1, # of connection points: 5
#     Node 24, Type 0, BuildingBlock: XOMCOT_clean_sbu_1, # of connection points: 5
#     Node 25, Type 0, BuildingBlock: XOMCOT_clean_sbu_1, # of connection points: 5
#     Node 26, Type 0, BuildingBlock: XOMCOT_clean_sbu_1, # of connection points: 5
#     Node 27, Type 0, BuildingBlock: XOMCOT_clean_sbu_1, # of connection points: 5
#     Node 28, Type 0, BuildingBlock: XOMCOT_clean_sbu_1, # of connection points: 5
#     Node 29, Type 0, BuildingBlock: XOMCOT_clean_sbu_1, # of connection points: 5
#     Node 30, Type 0, BuildingBlock: XOMCOT_clean_sbu_1, # of connection points: 5
#     Node 31, Type 0, BuildingBlock: XOMCOT_clean_sbu_1, # of connection points: 5
#     Edge 32, Type (0, 0), BuildingBlock: AJUNOK_clean_linker_0, # of connection points: 2
#     Edge 33, Type (0, 0), BuildingBlock: AJUNOK_clean_linker_0, # of connection points: 2
#     Edge 34, Type (0, 0), BuildingBlock: AJUNOK_clean_linker_0, # of connection points: 2
#     Edge 35, Type (0, 0), BuildingBlock: AJUNOK_clean_linker_0, # of connection points: 2
#     Edge 36, Type (0, 0), BuildingBlock: AJUNOK_clean_linker_0, # of connection points: 2
#     Edge 37, Type (0, 0), BuildingBlock: AJUNOK_clean_linker_0, # of connection points: 2
#     Edge 38, Type (0, 0), BuildingBlock: AJUNOK_clean_linker_0, # of connection points: 2
#     Edge 39, Type (0, 0), BuildingBlock: AJUNOK_clean_linker_0, # of connection points: 2
#     Edge 40, Type (0, 0), BuildingBlock: AJUNOK_clean_linker_0, # of connection points: 2
#     Edge 41, Type (0, 0), BuildingBlock: AJUNOK_clean_linker_0, # of connection points: 2
#     Edge 42, Type (0, 0), BuildingBlock: AJUNOK_clean_linker_0, # of connection points: 2
#     Edge 43, Type (0, 0), BuildingBlock: AJUNOK_clean_linker_0, # of connection points: 2
#     Edge 44, Type (0, 0), BuildingBlock: AJUNOK_clean_linker_0, # of connection points: 2
#     Edge 45, Type (0, 0), BuildingBlock: AJUNOK_clean_linker_0, # of connection points: 2
#     Edge 46, Type (0, 0), BuildingBlock: AJUNOK_clean_linker_0, # of connection points: 2
#     Edge 47, Type (0, 0), BuildingBlock: AJUNOK_clean_linker_0, # of connection points: 2
#     Edge 48, Type (0, 0), BuildingBlock: AJUNOK_clean_linker_0, # of connection points: 2
#     Edge 49, Type (0, 0), BuildingBlock: AJUNOK_clean_linker_0, # of connection points: 2
#     Edge 50, Type (0, 0), BuildingBlock: AJUNOK_clean_linker_0, # of connection points: 2
#     Edge 51, Type (0, 0), BuildingBlock: AJUNOK_clean_linker_0, # of connection points: 2
#     Edge 52, Type (0, 0), BuildingBlock: AJUNOK_clean_linker_0, # of connection points: 2
#     Edge 53, Type (0, 0), BuildingBlock: AJUNOK_clean_linker_0, # of connection points: 2
#     Edge 54, Type (0, 0), BuildingBlock: AJUNOK_clean_linker_0, # of connection points: 2
#     Edge 55, Type (0, 0), BuildingBlock: AJUNOK_clean_linker_0, # of connection points: 2
#     Edge 56, Type (0, 0), BuildingBlock: AJUNOK_clean_linker_0, # of connection points: 2
#     Edge 57, Type (0, 0), BuildingBlock: AJUNOK_clean_linker_0, # of connection points: 2
#     Edge 58, Type (0, 0), BuildingBlock: AJUNOK_clean_linker_0, # of connection points: 2
#     Edge 59, Type (0, 0), BuildingBlock: AJUNOK_clean_linker_0, # of connection points: 2
#     Edge 60, Type (0, 0), BuildingBlock: AJUNOK_clean_linker_0, # of connection points: 2
#     Edge 61, Type (0, 0), BuildingBlock: AJUNOK_clean_linker_0, # of connection points: 2
#     Edge 62, Type (0, 0), BuildingBlock: AJUNOK_clean_linker_0, # of connection points: 2
#     Edge 63, Type (0, 0), BuildingBlock: AJUNOK_clean_linker_0, # of connection points: 2
#     Edge 64, Type (0, 0), BuildingBlock: AJUNOK_clean_linker_0, # of connection points: 2
#     Edge 65, Type (0, 0), BuildingBlock: AJUNOK_clean_linker_0, # of connection points: 2
#     Edge 66, Type (0, 0), BuildingBlock: AJUNOK_clean_linker_0, # of connection points: 2
#     Edge 67, Type (0, 0), BuildingBlock: AJUNOK_clean_linker_0, # of connection points: 2
#     Edge 68, Type (0, 0), BuildingBlock: AJUNOK_clean_linker_0, # of connection points: 2
#     Edge 69, Type (0, 0), BuildingBlock: AJUNOK_clean_linker_0, # of connection points: 2
#     Edge 70, Type (0, 0), BuildingBlock: AJUNOK_clean_linker_0, # of connection points: 2
#     Edge 71, Type (0, 0), BuildingBlock: AJUNOK_clean_linker_0, # of connection points: 2
#     Edge 72, Type (0, 0), BuildingBlock: AJUNOK_clean_linker_0, # of connection points: 2
#     Edge 73, Type (0, 0), BuildingBlock: AJUNOK_clean_linker_0, # of connection points: 2
#     Edge 74, Type (0, 0), BuildingBlock: AJUNOK_clean_linker_0, # of connection points: 2
#     Edge 75, Type (0, 0), BuildingBlock: AJUNOK_clean_linker_0, # of connection points: 2
#     Edge 76, Type (0, 0), BuildingBlock: AJUNOK_clean_linker_0, # of connection points: 2
#     Edge 77, Type (0, 0), BuildingBlock: AJUNOK_clean_linker_0, # of connection points: 2
#     Edge 78, Type (0, 0), BuildingBlock: AJUNOK_clean_linker_0, # of connection points: 2
#     Edge 79, Type (0, 0), BuildingBlock: AJUNOK_clean_linker_0, # of connection points: 2
#     Edge 80, Type (0, 0), BuildingBlock: AJUNOK_clean_linker_0, # of connection points: 2
#     Edge 81, Type (0, 0), BuildingBlock: AJUNOK_clean_linker_0, # of connection points: 2
#     Edge 82, Type (0, 0), BuildingBlock: AJUNOK_clean_linker_0, # of connection points: 2
#     Edge 83, Type (0, 0), BuildingBlock: AJUNOK_clean_linker_0, # of connection points: 2
#     Edge 84, Type (0, 0), BuildingBlock: AJUNOK_clean_linker_0, # of connection points: 2
#     Edge 85, Type (0, 0), BuildingBlock: AJUNOK_clean_linker_0, # of connection points: 2
#     Edge 86, Type (0, 0), BuildingBlock: AJUNOK_clean_linker_0, # of connection points: 2
#     Edge 87, Type (0, 0), BuildingBlock: AJUNOK_clean_linker_0, # of connection points: 2
#     Edge 88, Type (0, 0), BuildingBlock: AJUNOK_clean_linker_0, # of connection points: 2
#     Edge 89, Type (0, 0), BuildingBlock: AJUNOK_clean_linker_0, # of connection points: 2
#     Edge 90, Type (0, 0), BuildingBlock: AJUNOK_clean_linker_0, # of connection points: 2
#     Edge 91, Type (0, 0), BuildingBlock: AJUNOK_clean_linker_0, # of connection points: 2
#     Edge 92, Type (0, 0), BuildingBlock: AJUNOK_clean_linker_0, # of connection points: 2
#     Edge 93, Type (0, 0), BuildingBlock: AJUNOK_clean_linker_0, # of connection points: 2
#     Edge 94, Type (0, 0), BuildingBlock: AJUNOK_clean_linker_0, # of connection points: 2
#     Edge 95, Type (0, 0), BuildingBlock: AJUNOK_clean_linker_0, # of connection points: 2
#     Edge 96, Type (0, 0), BuildingBlock: AJUNOK_clean_linker_0, # of connection points: 2
#     Edge 97, Type (0, 0), BuildingBlock: AJUNOK_clean_linker_0, # of connection points: 2
#     Edge 98, Type (0, 0), BuildingBlock: AJUNOK_clean_linker_0, # of connection points: 2
#     Edge 99, Type (0, 0), BuildingBlock: AJUNOK_clean_linker_0, # of connection points: 2
#     Edge 100, Type (0, 0), BuildingBlock: AJUNOK_clean_linker_0, # of connection points: 2
#     Edge 101, Type (0, 0), BuildingBlock: AJUNOK_clean_linker_0, # of connection points: 2
#     Edge 102, Type (0, 0), BuildingBlock: AJUNOK_clean_linker_0, # of connection points: 2
#     Edge 103, Type (0, 0), BuildingBlock: AJUNOK_clean_linker_0, # of connection points: 2
#     Edge 104, Type (0, 0), BuildingBlock: AJUNOK_clean_linker_0, # of connection points: 2
#     Edge 105, Type (0, 0), BuildingBlock: AJUNOK_clean_linker_0, # of connection points: 2
#     Edge 106, Type (0, 0), BuildingBlock: AJUNOK_clean_linker_0, # of connection points: 2
#     Edge 107, Type (0, 0), BuildingBlock: AJUNOK_clean_linker_0, # of connection points: 2
#     Edge 108, Type (0, 0), BuildingBlock: AJUNOK_clean_linker_0, # of connection points: 2
#     Edge 109, Type (0, 0), BuildingBlock: AJUNOK_clean_linker_0, # of connection points: 2
#     Edge 110, Type (0, 0), BuildingBlock: AJUNOK_clean_linker_0, # of connection points: 2
#     Edge 111, Type (0, 0), BuildingBlock: AJUNOK_clean_linker_0, # of connection points: 2
# Relax obj value: 0.167
# Max RMSD: 0.159
# Mean RMSD: 0.159
data_MOF--net-wgp--node1-XOMCOT_clean_sbu_1--edge1-AJUNOK_clean_linker_0
_symmetry_space_group_name_H-M    P1
_symmetry_Int_Tables_number       1
_symmetry_cell_setting            triclinic
loop_
_symmetry_equiv_pos_as_xyz
'x, y, z'
_cell_length_a     27.704308
_cell_length_b     27.737701
_cell_length_c     76.204857
_cell_angle_alpha  90.127182
_cell_angle_beta   90.105243
_cell_angle_gamma 89.707213
loop_
_atom_site_label
_atom_site_type_symbol
_atom_site_fract_x
_atom_site_fract_y
_atom_site_fract_z
_atom_type_partial_charge
C0 C 0.22317 0.25291 0.10846 0.0
C1 C 0.21932 0.30212 0.10869 0.0
N2 N 0.21869 0.31822 0.09209 0.0
N3 N 0.22473 0.23649 0.09176 0.0
C4 C 0.22092 0.27766 0.08198 0.0
H5 H 0.22855 0.23115 0.12 0.0
Co6 Co 0.24687 0.17134 0.08762 0.0
C7 C 0.25582 0.15883 0.04936 0.0
O8 O 0.29829 0.14055 0.05278 0.0
N9 N 0.27115 0.10385 0.08449 0.0
C10 C 0.3229 0.0422 0.08085 0.0
C11 C 0.31774 0.09089 0.08133 0.0
C12 C 0.24907 0.05987 0.08627 0.0
N13 N 0.28018 0.0219 0.08419 0.0
O14 O 0.18548 0.14746 0.09479 0.0
H15 H 0.34734 0.11467 0.07858 0.0
H16 H 0.21146 0.05567 0.08971 0.0
O17 O 0.22919 0.17444 0.06205 0.0
C18 C 0.19391 0.141 0.11115 0.0
O19 O 0.23875 0.14374 0.1167 0.0
N20 N 0.30646 0.19674 0.08358 0.0
C21 C 0.39986 0.22963 0.08205 0.0
C22 C 0.36523 0.24675 0.07012 0.0
C23 C 0.31879 0.22871 0.0708 0.0
C24 C 0.33687 0.18755 0.09715 0.0
C25 C 0.38466 0.20061 0.09605 0.0
H26 H 0.29313 0.2405 0.06106 0.0
H27 H 0.32509 0.16554 0.10799 0.0
H28 H 0.22351 0.27837 0.06783 0.0
H29 H 0.21943 0.32467 0.12031 0.0
H30 H 0.35632 0.02294 0.07838 0.0
H31 H 0.37348 0.27339 0.06025 0.0
H32 H 0.40918 0.18639 0.10582 0.0
C33 C 1.00237 0.94647 0.35536 0.0
C34 C 0.95267 0.94551 0.35552 0.0
N35 N 0.93633 0.96675 0.34085 0.0
N36 N 0.01833 0.96807 0.34054 0.0
C37 C 0.97661 0.97908 0.33186 0.0
H38 H 0.02472 0.93393 0.36602 0.0
Co39 Co 0.08399 0.98742 0.33522 0.0
C40 C 0.10345 0.96116 0.29795 0.0
O41 O 0.1491 0.95158 0.30109 0.0
N42 N 0.14991 0.00834 0.32994 0.0
C43 C 0.21189 0.05275 0.32044 0.0
C44 C 0.16257 0.04841 0.32093 0.0
C45 C 0.19346 0.98841 0.33423 0.0
N46 N 0.23183 0.0151 0.3289 0.0
O47 O 0.10839 0.92643 0.34344 0.0
H48 H 0.13786 0.07343 0.3148 0.0
H49 H 0.19693 0.9546 0.341 0.0
O50 O 0.07439 0.96766 0.31075 0.0
C51 C 0.11641 0.93748 0.35956 0.0
O52 O 0.10452 0.98087 0.36501 0.0
N53 N 0.06162 0.0478 0.33006 0.0
C54 C 0.03524 0.14339 0.32806 0.0
C55 C 0.02375 0.11179 0.31433 0.0
C56 C 0.03878 0.06409 0.31533 0.0
C57 C 0.07185 0.0778 0.34365 0.0
C58 C 0.06032 0.12606 0.34271 0.0
H59 H 0.03094 0.04052 0.30446 0.0
H60 H 0.09079 0.06444 0.35503 0.0
H61 H 0.9752 0.99657 0.31927 0.0
H62 H 0.93024 0.93271 0.36614 0.0
H63 H 0.23152 0.08137 0.31404 0.0
H64 H 1.00292 0.12336 0.30306 0.0
H65 H 0.07089 0.14948 0.35343 0.0
C66 C 0.21067 0.76144 0.60516 0.0
C67 C 0.20711 0.71368 0.60926 0.0
N68 N 0.24084 0.68905 0.60025 0.0
N69 N 0.24675 0.76859 0.59355 0.0
C70 C 0.26647 0.72355 0.59176 0.0
H71 H 0.1874 0.78945 0.61028 0.0
Co72 Co 0.256 0.83418 0.58508 0.0
C73 C 0.27855 0.77834 0.55008 0.0
O74 O 0.28076 0.73437 0.55613 0.0
N75 N 0.26298 0.89971 0.5775 0.0
C76 C 0.25201 0.9648 0.56083 0.0
C77 C 0.25206 0.91535 0.56119 0.0
C78 C 0.26922 0.94111 0.58686 0.0
N79 N 0.26242 0.98157 0.57699 0.0
O80 O 0.32016 0.83399 0.59392 0.0
H81 H 0.24109 0.89253 0.55042 0.0
H82 H 0.27701 0.94129 0.60077 0.0
O83 O 0.27265 0.81392 0.56065 0.0
C84 C 0.31093 0.84108 0.61022 0.0
O85 O 0.26564 0.84536 0.61508 0.0
N86 N 0.19226 0.8371 0.5789 0.0
C87 C 0.09413 0.82693 0.5809 0.0
C88 C 0.12039 0.80062 0.56844 0.0
C89 C 0.16998 0.80546 0.56791 0.0
C90 C 0.1665 0.86708 0.58957 0.0
C91 C 0.11688 0.86236 0.5909 0.0
H92 H 0.19009 0.78002 0.56018 0.0
H93 H 0.18504 0.89078 0.59859 0.0
H94 H 0.29919 0.71576 0.58464 0.0
H95 H 0.18028 0.69804 0.61781 0.0
H96 H 0.24209 0.98671 0.54964 0.0
H97 H 0.10339 0.77291 0.56055 0.0
H98 H 0.09756 0.88259 0.60085 0.0
C99 C 0.51625 0.02678 0.85989 0.0
C100 C 0.56552 0.03104 0.85987 0.0
N101 N 0.5809 0.03166 0.84319 0.0
N102 N 0.49914 0.02483 0.84328 0.0
C103 C 0.53996 0.02883 0.83328 0.0
H104 H 0.4951 0.02076 0.87152 0.0
Co105 Co 0.43488 0.99964 0.83948 0.0
C106 C 0.4254 0.98566 0.80103 0.0
O107 O 0.41412 0.9409 0.80445 0.0
N108 N 0.36933 0.97268 0.83635 0.0
C109 C 0.31057 0.9188 0.83217 0.0
C110 C 0.35915 0.92561 0.8334 0.0
C111 C 0.32426 0.99345 0.83716 0.0
N112 N 0.28783 0.96107 0.83476 0.0
O113 O 0.40727 0.06051 0.84642 0.0
H114 H 0.38507 0.89685 0.83174 0.0
H115 H 0.31816 0.03119 0.84005 0.0
O116 O 0.43573 0.01512 0.81364 0.0
C117 C 0.40183 0.05226 0.86287 0.0
O118 O 0.4077 0.00791 0.86846 0.0
N119 N 0.46387 0.94072 0.8364 0.0
C120 C 0.51697 0.85769 0.84078 0.0
C121 C 0.52416 0.88627 0.82596 0.0
C122 C 0.49788 0.92857 0.82419 0.0
C123 C 0.45874 0.91438 0.85134 0.0
C124 C 0.4845 0.87221 0.85371 0.0
H125 H 0.5057 0.95162 0.81322 0.0
H126 H 0.43399 0.92591 0.86142 0.0
H127 H 0.54027 0.0254 0.81914 0.0
H128 H 0.58871 0.03076 0.87133 0.0
H129 H 0.29316 0.88459 0.82969 0.0
H130 H 0.5491 0.87561 0.81571 0.0
H131 H 0.47851 0.85069 0.86536 0.0
C132 C 0.30775 0.75395 0.43049 0.0
C133 C 0.30928 0.70442 0.42952 0.0
N134 N 0.271 0.68654 0.43816 0.0
N135 N 0.26854 0.76826 0.43965 0.0
C136 C 0.24644 0.72609 0.444 0.0
H137 H 0.33451 0.77817 0.42521 0.0
Co138 Co 0.25679 0.83487 0.44576 0.0
C139 C 0.19778 0.80046 0.47966 0.0
O140 O 0.15307 0.78608 0.4775 0.0
N141 N 0.24494 0.90199 0.45183 0.0
C142 C 0.21924 0.9672 0.46636 0.0
C143 C 0.21828 0.91789 0.4655 0.0
C144 C 0.26016 0.94374 0.44415 0.0
N145 N 0.24492 0.9842 0.45276 0.0
O146 O 0.20116 0.83631 0.43089 0.0
H147 H 0.19899 0.89565 0.47464 0.0
H148 H 0.2821 0.94452 0.43245 0.0
O149 O 0.22134 0.81415 0.46622 0.0
C150 C 0.21958 0.84339 0.41577 0.0
O151 O 0.26682 0.84242 0.41435 0.0
N152 N 0.31334 0.83488 0.45839 0.0
C153 C 0.40885 0.81723 0.46593 0.0
C154 C 0.37298 0.79063 0.47431 0.0
C155 C 0.32502 0.79956 0.47011 0.0
C156 C 0.34791 0.86365 0.45135 0.0
C157 C 0.39621 0.85593 0.4552 0.0
H158 H 0.29821 0.77449 0.47465 0.0
H159 H 0.3389 0.88857 0.44103 0.0
H160 H 0.21395 0.72425 0.45183 0.0
H161 H 0.33668 0.68315 0.42294 0.0
H162 H 0.20312 0.98843 0.47673 0.0
H163 H 0.38218 0.7597 0.48234 0.0
H164 H 0.42343 0.87596 0.44812 0.0
C165 C 0.50071 0.95704 0.67002 0.0
C166 C 0.54939 0.94946 0.66943 0.0
N167 N 0.56896 0.96528 0.68446 0.0
N168 N 0.48753 0.97702 0.68552 0.0
C169 C 0.53067 0.98073 0.69421 0.0
H170 H 0.47771 0.95154 0.65888 0.0
Co171 Co 0.423 0.00448 0.68826 0.0
C172 C 0.40126 0.01583 0.72598 0.0
O173 O 0.38192 0.05674 0.72107 0.0
N174 N 0.35735 0.03213 0.68955 0.0
C175 C 0.29452 0.08302 0.68975 0.0
C176 C 0.34377 0.07908 0.68908 0.0
C177 C 0.31421 0.00849 0.69014 0.0
N178 N 0.27509 0.03865 0.69023 0.0
O179 O 0.39599 0.94462 0.68051 0.0
H180 H 0.36755 0.10964 0.68905 0.0
H181 H 0.3119 0.9697 0.68999 0.0
O182 O 0.42002 0.98792 0.71415 0.0
C183 C 0.38883 0.95356 0.66422 0.0
O184 O 0.39461 0.99806 0.65875 0.0
N185 N 0.45161 0.06312 0.69305 0.0
C186 C 0.50623 0.14641 0.69333 0.0
C187 C 0.50769 0.11469 0.70757 0.0
C188 C 0.47945 0.07376 0.70733 0.0
C189 C 0.45215 0.09198 0.67865 0.0
C190 C 0.47711 0.13515 0.67884 0.0
H191 H 0.48295 0.04947 0.71824 0.0
H192 H 0.43188 0.08191 0.66709 0.0
H193 H 0.53486 0.99726 0.70691 0.0
H194 H 0.5692 0.93595 0.6582 0.0
H195 H 0.27484 0.11676 0.69008 0.0
H196 H 0.53089 0.12102 0.71878 0.0
H197 H 0.47309 0.15923 0.66779 0.0
C198 C 0.2366 0.25023 0.91394 0.0
C199 C 0.24173 0.29918 0.91248 0.0
N200 N 0.25715 0.31705 0.92792 0.0
N201 N 0.2485 0.23581 0.9303 0.0
C202 C 0.26097 0.2778 0.93861 0.0
H203 H 0.22197 0.22703 0.90387 0.0
Co204 Co 0.23648 0.16977 0.93759 0.0
C205 C 0.22087 0.19849 0.97597 0.0
O206 O 0.17412 0.20262 0.97389 0.0
N207 N 0.2246 0.10276 0.94502 0.0
C208 C 0.19617 0.04267 0.96152 0.0
C209 C 0.20053 0.09146 0.95985 0.0
C210 C 0.2336 0.05837 0.93768 0.0
N211 N 0.21575 0.02113 0.94742 0.0
O212 O 0.30247 0.1542 0.93273 0.0
H213 H 0.18485 0.11657 0.96889 0.0
H214 H 0.25126 0.05345 0.92515 0.0
O215 O 0.24826 0.18672 0.96294 0.0
C216 C 0.2962 0.14573 0.91628 0.0
O217 O 0.25184 0.1441 0.91018 0.0
N218 N 0.17107 0.18367 0.93796 0.0
C219 C 0.09045 0.2174 0.92019 0.0
C220 C 0.1117 0.24509 0.93348 0.0
C221 C 0.15319 0.2286 0.94157 0.0
C222 C 0.14782 0.15448 0.92627 0.0
C223 C 0.10783 0.17088 0.91704 0.0
H224 H 0.1731 0.25403 0.94946 0.0
H225 H 0.16352 0.12059 0.92223 0.0
H226 H 0.27076 0.27987 0.95235 0.0
H227 H 0.23255 0.32042 0.90103 0.0
H228 H 0.17918 0.02455 0.97242 0.0
H229 H 0.098 0.28035 0.93709 0.0
H230 H 0.09231 0.1482 0.90694 0.0
C231 C 0.01238 0.96459 0.17264 0.0
C232 C 0.9634 0.95991 0.17081 0.0
N233 N 0.94159 0.98742 0.18301 0.0
N234 N 0.02252 0.9953 0.1859 0.0
C235 C 0.97818 0.00864 0.19206 0.0
H236 H 0.03914 0.94456 0.16528 0.0
Co237 Co 0.08853 0.00426 0.19302 0.0
C238 C 0.05081 0.04508 0.23019 0.0
O239 O 0.01552 0.07669 0.22911 0.0
N240 N 0.15483 0.01102 0.19975 0.0
C241 C 0.2214 0.99506 0.21524 0.0
C242 C 0.17191 0.99638 0.21547 0.0
C243 C 0.19547 0.018 0.19003 0.0
N244 N 0.23651 0.00801 0.19919 0.0
O245 O 0.08858 0.06688 0.18281 0.0
H246 H 0.14979 0.98232 0.22585 0.0
H247 H 0.19495 0.0265 0.17617 0.0
O248 O 0.06805 0.02661 0.21616 0.0
C249 C 0.0945 0.05662 0.16659 0.0
O250 O 0.1009 0.01126 0.16218 0.0
N251 N 0.08981 0.94258 0.2009 0.0
C252 C 0.08322 0.84486 0.20451 0.0
C253 C 0.05532 0.87509 0.21518 0.0
C254 C 0.05883 0.92444 0.21304 0.0
C255 C 0.11959 0.91358 0.19134 0.0
C256 C 0.11732 0.86407 0.19311 0.0
H257 H 0.03369 0.94743 0.21994 0.0
H258 H 0.14259 0.92891 0.18138 0.0
H259 H 0.97268 0.03097 0.20351 0.0
H260 H 0.9451 0.93591 0.16179 0.0
H261 H 0.2445 0.98313 0.22587 0.0
H262 H 0.02785 0.86059 0.22376 0.0
H263 H 0.13822 0.84118 0.18439 0.0
C264 C 0.74426 0.75534 0.91365 0.0
C265 C 0.74714 0.70612 0.91293 0.0
N266 N 0.75778 0.68974 0.92902 0.0
N267 N 0.75338 0.77108 0.93013 0.0
C268 C 0.76213 0.72973 0.93927 0.0
H269 H 0.73232 0.77767 0.9029 0.0
Co270 Co 0.73811 0.83653 0.93628 0.0
C271 C 0.724 0.83454 0.97459 0.0
O272 O 0.68178 0.8543 0.97165 0.0
N273 N 0.7212 0.90467 0.94173 0.0
C274 C 0.67772 0.97155 0.94693 0.0
C275 C 0.67697 0.92245 0.94592 0.0
C276 C 0.74827 0.94569 0.94041 0.0
N277 N 0.72246 0.98704 0.94336 0.0
O278 O 0.80196 0.85534 0.93077 0.0
H279 H 0.64466 0.90173 0.94798 0.0
H280 H 0.78617 0.94518 0.93716 0.0
O281 O 0.75249 0.82499 0.96169 0.0
C282 C 0.79314 0.86464 0.91462 0.0
O283 O 0.74876 0.86106 0.90878 0.0
N284 N 0.67575 0.81747 0.93821 0.0
C285 C 0.58179 0.7905 0.93493 0.0
C286 C 0.61109 0.76755 0.9473 0.0
C287 C 0.65899 0.78093 0.94846 0.0
C288 C 0.64862 0.83572 0.92484 0.0
C289 C 0.60079 0.82365 0.92323 0.0
H290 H 0.68229 0.7624 0.95762 0.0
H291 H 0.66352 0.86168 0.91587 0.0
H292 H 0.7676 0.7286 0.95333 0.0
H293 H 0.73985 0.68377 0.90157 0.0
H294 H 0.6465 0.9942 0.94932 0.0
H295 H 0.59694 0.74023 0.95601 0.0
H296 H 0.57876 0.84029 0.91313 0.0
C297 C 0.00714 0.96725 0.67126 0.0
C298 C 0.05662 0.96722 0.67175 0.0
N299 N 0.0709 0.99904 0.68397 0.0
N300 N 0.98943 0.9986 0.68327 0.0
C301 C 0.02958 0.01813 0.69072 0.0
H302 H 0.98527 0.94495 0.66278 0.0
Co303 Co 0.92122 0.00419 0.68718 0.0
C304 C 0.90706 1.00309 0.72504 0.0
O305 O 0.87235 0.97252 0.72141 0.0
N306 N 0.85246 0.01098 0.69067 0.0
C307 C 0.7854 0.04685 0.70073 0.0
C308 C 0.83451 0.05062 0.69884 0.0
C309 C 0.81233 0.98435 0.68713 0.0
N310 N 0.77147 0.00514 0.69344 0.0
O311 O 0.92175 0.06838 0.67801 0.0
H312 H 0.85616 0.08041 0.70346 0.0
H313 H 0.81241 0.95034 0.68024 0.0
O314 O 0.93106 0.02297 0.71247 0.0
C315 C 0.91972 0.05964 0.66149 0.0
O316 O 0.91989 0.01437 0.65639 0.0
N317 N 0.92156 0.93973 0.69325 0.0
C318 C 0.95111 0.84494 0.69157 0.0
C319 C 0.96721 0.8744 0.70519 0.0
C320 C 0.95343 0.9222 0.70543 0.0
C321 C 0.90326 0.91049 0.68053 0.0
C322 C 0.91739 0.86246 0.67949 0.0
H323 H 0.97323 0.94582 0.71405 0.0
H324 H 0.88314 0.92583 0.66974 0.0
H325 H 0.0286 0.04486 0.70108 0.0
H326 H 0.08048 0.94568 0.66363 0.0
H327 H 0.76149 0.0732 0.70667 0.0
H328 H 0.99401 0.86184 0.71452 0.0
H329 H 0.90581 0.84079 0.66842 0.0
C330 C 0.71982 0.26148 0.41901 0.0
C331 C 0.71831 0.31081 0.4196 0.0
N332 N 0.72824 0.32498 0.43603 0.0
N333 N 0.73027 0.24327 0.43504 0.0
C334 C 0.7352 0.28355 0.44526 0.0
H335 H 0.71685 0.24089 0.40708 0.0
Co336 Co 0.74942 0.17674 0.43765 0.0
C337 C 0.74057 0.14818 0.47563 0.0
O338 O 0.75628 0.10457 0.47223 0.0
N339 N 0.77109 0.10909 0.43894 0.0
C340 C 0.82003 0.0446 0.44096 0.0
C341 C 0.81739 0.09394 0.44126 0.0
C342 C 0.74637 0.06664 0.43719 0.0
N343 N 0.77559 0.02721 0.43843 0.0
O344 O 0.68735 0.15643 0.42979 0.0
H345 H 0.84821 0.1166 0.44359 0.0
H346 H 0.70771 0.06453 0.43533 0.0
O347 O 0.73101 0.17746 0.46298 0.0
C348 C 0.69418 0.15069 0.41334 0.0
O349 O 0.7385 0.15348 0.40731 0.0
N350 N 0.80954 0.19814 0.4431 0.0
C351 C 0.90392 0.22488 0.44599 0.0
C352 C 0.87418 0.22741 0.46067 0.0
C353 C 0.82638 0.21409 0.45892 0.0
C354 C 0.83725 0.19989 0.4284 0.0
C355 C 0.88532 0.2124 0.4296 0.0
H356 H 0.8036 0.21727 0.47026 0.0
H357 H 0.82231 0.18926 0.41588 0.0
H358 H 0.74691 0.2828 0.45879 0.0
H359 H 0.71234 0.33474 0.40859 0.0
H360 H 0.85225 0.02289 0.44278 0.0
H361 H 0.88803 0.23864 0.47333 0.0
H362 H 0.90791 0.21157 0.418 0.0
C363 C 0.50649 0.03163 0.16658 0.0
C364 C 0.45704 0.03549 0.16614 0.0
N365 N 0.4386 0.01155 0.17993 0.0
N366 N 0.52019 0.00517 0.18057 0.0
C367 C 0.47789 0.99337 0.1885 0.0
H368 H 0.53115 0.04795 0.15738 0.0
Co369 Co 0.58664 0.99314 0.18623 0.0
C370 C 0.59171 1.00275 0.22437 0.0
O371 O 0.63054 0.02841 0.22129 0.0
N372 N 0.65413 0.97906 0.19164 0.0
C373 C 0.71406 0.93875 0.20484 0.0
C374 C 0.66507 0.94318 0.20297 0.0
C375 C 0.6986 0.99406 0.18609 0.0
N376 N 0.73569 0.97018 0.19402 0.0
O377 O 0.57944 0.92742 0.1792 0.0
H378 H 0.63877 0.92126 0.20967 0.0
H379 H 0.70446 0.02036 0.17594 0.0
O380 O 0.56943 0.98209 0.21154 0.0
C381 C 0.58453 0.93193 0.16259 0.0
O382 O 0.59252 0.97521 0.15627 0.0
N383 N 0.5936 0.05852 0.19051 0.0
C384 C 0.5974 0.1579 0.19247 0.0
C385 C 0.5636 0.13241 0.20236 0.0
C386 C 0.56176 0.08285 0.20098 0.0
C387 C 0.62458 0.08301 0.18 0.0
C388 C 0.62868 0.13278 0.18131 0.0
H389 H 0.53337 0.0642 0.20784 0.0
H390 H 0.6437 0.06446 0.16971 0.0
H391 H 0.47618 0.97334 0.20064 0.0
H392 H 0.43624 0.05468 0.15633 0.0
H393 H 0.73214 0.91417 0.21371 0.0
H394 H 0.53692 0.15072 0.21038 0.0
H395 H 0.65417 0.15145 0.17303 0.0
C396 C 0.74757 0.25746 0.6106 0.0
C397 C 0.75122 0.3065 0.61178 0.0
N398 N 0.76816 0.32384 0.5965 0.0
N399 N 0.76207 0.24231 0.59462 0.0
C400 C 0.7752 0.2838 0.58631 0.0
H401 H 0.73111 0.23476 0.62039 0.0
Co402 Co 0.74839 0.17671 0.58773 0.0
C403 C 0.73346 0.19781 0.54871 0.0
O404 O 0.68651 0.19898 0.55055 0.0
N405 N 0.73455 0.10996 0.58127 0.0
C406 C 0.70442 0.04623 0.5669 0.0
C407 C 0.70559 0.09558 0.56794 0.0
C408 C 0.74943 0.06729 0.58848 0.0
N409 N 0.73199 0.02818 0.57978 0.0
O410 O 0.81405 0.15953 0.59282 0.0
H411 H 0.68432 0.1188 0.55977 0.0
H412 H 0.77242 0.06464 0.59993 0.0
O413 O 0.76149 0.19006 0.56201 0.0
C414 C 0.8101 0.15305 0.60943 0.0
O415 O 0.76664 0.15349 0.61631 0.0
N416 N 0.68363 0.19359 0.58645 0.0
C417 C 0.59651 0.23138 0.59776 0.0
C418 C 0.62484 0.25679 0.58585 0.0
C419 C 0.66892 0.23815 0.5809 0.0
C420 C 0.6555 0.16754 0.59759 0.0
C421 C 0.61143 0.18572 0.60337 0.0
H422 H 0.69194 0.26055 0.57299 0.0
H423 H 0.66888 0.13431 0.6032 0.0
H424 H 0.78683 0.28464 0.57279 0.0
H425 H 0.73894 0.328 0.62278 0.0
H426 H 0.68317 0.02506 0.55779 0.0
H427 H 0.61365 0.29141 0.58065 0.0
H428 H 0.59013 0.16515 0.61259 0.0
C429 C 0.50409 0.9622 0.35389 0.0
C430 C 0.45465 0.95947 0.3542 0.0
N431 N 0.43666 0.98868 0.34169 0.0
N432 N 0.51812 0.99326 0.3413 0.0
C433 C 0.47592 0.00938 0.33417 0.0
H434 H 0.52857 0.94187 0.36214 0.0
Co435 Co 0.58501 1.00366 0.33618 0.0
C436 C 0.59071 1.00144 0.29799 0.0
O437 O 0.62848 0.97341 0.30053 0.0
N438 N 0.65314 0.016 0.3315 0.0
C439 C 0.71667 0.05269 0.31941 0.0
C440 C 0.66726 0.05182 0.32068 0.0
C441 C 0.69602 0.99808 0.33763 0.0
N442 N 0.73531 0.01901 0.33021 0.0
O443 O 0.58005 0.06761 0.3449 0.0
H444 H 0.64294 0.0758 0.31378 0.0
H445 H 0.69921 0.9716 0.34786 0.0
O446 O 0.56882 0.02063 0.31122 0.0
C447 C 0.58468 0.05999 0.36137 0.0
O448 O 0.58823 0.01517 0.36679 0.0
N449 N 0.58988 0.93905 0.32994 0.0
C450 C 0.59293 0.84079 0.32361 0.0
C451 C 0.55778 0.86981 0.31556 0.0
C452 C 0.55691 0.91871 0.31888 0.0
C453 C 0.62103 0.91075 0.33916 0.0
C454 C 0.62511 0.86187 0.33551 0.0
H455 H 0.52842 0.94003 0.31302 0.0
H456 H 0.64029 0.92516 0.3502 0.0
H457 H 0.47403 0.0345 0.32334 0.0
H458 H 0.43348 0.93753 0.36301 0.0
H459 H 0.73673 0.07585 0.31073 0.0
H460 H 0.52917 0.85484 0.30758 0.0
H461 H 0.65099 0.84041 0.34279 0.0
C462 C 0.78 0.75642 0.10513 0.0
C463 C 0.78369 0.70715 0.10526 0.0
N464 N 0.76238 0.68948 0.09072 0.0
N465 N 0.75544 0.77098 0.09078 0.0
C466 C 0.74489 0.72914 0.08222 0.0
H467 H 0.79475 0.78032 0.11496 0.0
Co468 Co 0.74546 0.83824 0.08647 0.0
C469 C 0.74798 0.85008 0.04852 0.0
O470 O 0.77487 0.88789 0.05187 0.0
N471 N 0.73469 0.90656 0.08266 0.0
C472 C 0.69666 0.97215 0.07243 0.0
C473 C 0.69466 0.92288 0.07433 0.0
C474 C 0.75977 0.94773 0.0862 0.0
N475 N 0.73771 0.98782 0.07985 0.0
O476 O 0.68017 0.83297 0.09436 0.0
H477 H 0.666 0.90004 0.06951 0.0
H478 H 0.79399 0.94903 0.09293 0.0
O479 O 0.72972 0.82579 0.06127 0.0
C480 C 0.68523 0.83742 0.11098 0.0
O481 O 0.72892 0.84415 0.11721 0.0
N482 N 0.81026 0.84253 0.08134 0.0
C483 C 0.9088 0.83122 0.08179 0.0
C484 C 0.88167 0.80948 0.06858 0.0
C485 C 0.83208 0.81402 0.069 0.0
C486 C 0.83664 0.86412 0.0942 0.0
C487 C 0.88653 0.85975 0.09449 0.0
H488 H 0.81146 0.79097 0.06042 0.0
H489 H 0.81861 0.88075 0.10524 0.0
H490 H 0.72546 0.72783 0.06989 0.0
H491 H 0.79984 0.6861 0.11568 0.0
H492 H 0.66976 0.99482 0.0662 0.0
H493 H 0.89825 0.78492 0.05926 0.0
H494 H 0.90687 0.87438 0.10542 0.0
C495 C 0.00941 0.95041 0.85409 0.0
C496 C 0.05809 0.9432 0.85495 0.0
N497 N 0.07897 0.96426 0.84108 0.0
N498 N 0.99748 0.97612 0.83964 0.0
C499 C 0.04143 0.98363 0.83183 0.0
H500 H 0.98529 0.93961 0.86435 0.0
Co501 Co 0.93351 0.0053 0.83742 0.0
C502 C 0.90961 0.01768 0.80007 0.0
O503 O 0.88826 0.0578 0.80495 0.0
N504 N 0.8687 0.03483 0.83659 0.0
C505 C 0.80726 0.08732 0.83858 0.0
C506 C 0.85656 0.08149 0.83958 0.0
C507 C 0.82493 0.01309 0.83411 0.0
N508 N 0.78696 0.04434 0.83525 0.0
O509 O 0.90397 0.94667 0.84437 0.0
H510 H 0.88152 0.11024 0.84229 0.0
H511 H 0.82094 0.97494 0.83156 0.0
O512 O 0.9295 0.99026 0.81171 0.0
C513 C 0.89725 0.95723 0.86052 0.0
O514 O 0.91278 0.9987 0.86658 0.0
N515 N 0.96362 0.063 0.83327 0.0
C516 C 0.01872 0.14502 0.83397 0.0
C517 C 0.01383 0.119 0.81839 0.0
C518 C 0.98696 0.07726 0.81841 0.0
C519 C 0.97049 0.08675 0.84873 0.0
C520 C 0.99796 0.12814 0.8494 0.0
H521 H 0.98804 0.05558 0.80672 0.0
H522 H 0.95454 0.07354 0.86066 0.0
H523 H 0.04627 1.00363 0.81985 0.0
H524 H 0.07696 0.92562 0.86564 0.0
H525 H 0.78764 0.12069 0.84069 0.0
H526 H 0.03048 0.13086 0.8063 0.0
H527 H 1.00229 0.14711 0.86175 0.0
C528 C 0.74478 0.75803 0.61105 0.0
C529 C 0.74007 0.80709 0.61163 0.0
N530 N 0.73316 0.82379 0.59525 0.0
N531 N 0.74061 0.74205 0.59438 0.0
C532 C 0.73295 0.78328 0.58498 0.0
H533 H 0.75493 0.73605 0.62212 0.0
Co534 Co 0.76088 0.67686 0.58949 0.0
C535 C 0.77215 0.67066 0.55092 0.0
O536 O 0.81729 0.65874 0.55366 0.0
N537 N 0.78261 0.60998 0.58543 0.0
C538 C 0.82913 0.5454 0.57957 0.0
C539 C 0.82756 0.5947 0.5809 0.0
C540 C 0.75793 0.56765 0.58714 0.0
N541 N 0.78541 0.52822 0.58344 0.0
O542 O 0.69839 0.65453 0.59604 0.0
H543 H 0.85841 0.61748 0.57871 0.0
H544 H 0.72078 0.56538 0.59138 0.0
O545 O 0.74396 0.68092 0.56388 0.0
C546 C 0.70535 0.64772 0.61246 0.0
O547 O 0.74982 0.64904 0.61845 0.0
N548 N 0.82162 0.70095 0.58632 0.0
C549 C 0.90637 0.75068 0.59093 0.0
C550 C 0.87573 0.76218 0.57695 0.0
C551 C 0.83278 0.73755 0.5751 0.0
C552 C 0.85043 0.6906 0.60033 0.0
C553 C 0.89364 0.71454 0.60274 0.0
H554 H 0.808 0.74901 0.565 0.0
H555 H 0.83926 0.66411 0.60985 0.0
H556 H 0.72997 0.7836 0.57084 0.0
H557 H 0.74514 0.82904 0.62324 0.0
H558 H 0.86066 0.52356 0.5767 0.0
H559 H 0.88494 0.7898 0.56752 0.0
H560 H 0.91671 0.7052 0.61373 0.0
C561 C 0.50605 0.54665 0.85404 0.0
C562 C 0.45734 0.54904 0.85683 0.0
N563 N 0.43509 0.51569 0.84678 0.0
N564 N 0.51657 0.5117 0.84234 0.0
C565 C 0.47261 0.49155 0.83901 0.0
H566 H 0.53252 0.56959 0.86025 0.0
Co567 Co 0.58363 0.50291 0.83543 0.0
C568 C 0.53259 0.4898 0.79896 0.0
O569 O 0.48853 0.4988 0.80421 0.0
N570 N 0.65069 0.49605 0.82921 0.0
C571 C 0.71842 0.51124 0.81438 0.0
C572 C 0.66884 0.51135 0.81373 0.0
C573 C 0.69075 0.48633 0.83904 0.0
N574 N 0.73247 0.49561 0.83028 0.0
O575 O 0.5825 0.43788 0.84381 0.0
H576 H 0.64746 0.52484 0.8029 0.0
H577 H 0.68941 0.47545 0.85266 0.0
O578 O 0.56741 0.48761 0.81014 0.0
C579 C 0.58756 0.44599 0.86032 0.0
O580 O 0.59058 0.49102 0.8656 0.0
N581 N 0.58757 0.56729 0.83019 0.0
C582 C 0.58434 0.66606 0.83148 0.0
C583 C 0.55583 0.64119 0.81938 0.0
C584 C 0.557 0.59147 0.81932 0.0
C585 C 0.61849 0.59135 0.84101 0.0
C586 C 0.61757 0.64126 0.84186 0.0
H587 H 0.52957 0.57325 0.81214 0.0
H588 H 0.64086 0.57163 0.85018 0.0
H589 H 0.46823 0.45992 0.83089 0.0
H590 H 0.44084 0.57381 0.86593 0.0
H591 H 0.74245 0.52266 0.80402 0.0
H592 H 0.52902 0.6598 0.81149 0.0
H593 H 0.63907 0.65974 0.85165 0.0
C594 C 0.81673 0.25743 0.09626 0.0
C595 C 0.82084 0.20808 0.09694 0.0
N596 N 0.78878 0.18897 0.08575 0.0
N597 N 0.78154 0.27088 0.08483 0.0
C598 C 0.76595 0.22745 0.07847 0.0
H599 H 0.83767 0.28128 0.10438 0.0
Co600 Co 0.75566 0.33685 0.08286 0.0
C601 C 0.74761 0.36033 0.04535 0.0
O602 O 0.7088 0.3849 0.04956 0.0
N603 N 0.73033 0.40352 0.08187 0.0
C604 C 0.68267 0.469 0.08288 0.0
C605 C 0.68417 0.41965 0.08335 0.0
C606 C 0.75594 0.44535 0.08038 0.0
N607 N 0.72778 0.48572 0.08113 0.0
O608 O 0.81546 0.3626 0.09046 0.0
H609 H 0.6523 0.39791 0.08431 0.0
H610 H 0.79466 0.4461 0.07873 0.0
O611 O 0.7722 0.33926 0.05751 0.0
C612 C 0.80513 0.36684 0.10675 0.0
O613 O 0.76447 0.34907 0.11259 0.0
N614 N 0.69587 0.3117 0.07811 0.0
C615 C 0.6025 0.27726 0.07782 0.0
C616 C 0.63286 0.2697 0.06333 0.0
C617 C 0.67888 0.28922 0.06343 0.0
C618 C 0.66908 0.31354 0.09297 0.0
C619 C 0.62152 0.29989 0.09276 0.0
H620 H 0.70174 0.28274 0.05222 0.0
H621 H 0.68322 0.33009 0.10468 0.0
H622 H 0.7368 0.22298 0.06935 0.0
H623 H 0.8449 0.18777 0.10538 0.0
H624 H 0.65047 0.49099 0.08417 0.0
H625 H 0.62218 0.24838 0.05212 0.0
H626 H 0.60015 0.30819 0.10425 0.0
C627 C 1.0033 0.508 0.35908 0.0
C628 C 0.05195 0.51575 0.36074 0.0
N629 N 0.06979 0.52887 0.34507 0.0
N630 N 0.98895 0.51622 0.34242 0.0
C631 C 0.03078 0.529 0.33409 0.0
H632 H 0.98037 0.49434 0.36935 0.0
Co633 Co 0.92401 0.49815 0.33567 0.0
C634 C 0.92979 0.49301 0.29705 0.0
O635 O 0.91873 0.4474 0.29821 0.0
N636 N 0.85663 0.47903 0.32918 0.0
C637 C 0.79306 0.4353 0.32009 0.0
C638 C 0.84226 0.43738 0.32133 0.0
C639 C 0.8133 0.50157 0.33244 0.0
N640 N 0.77443 0.47551 0.32708 0.0
O641 O 0.90061 0.55937 0.34344 0.0
H642 H 0.86525 0.40791 0.31736 0.0
H643 H 0.80977 0.53568 0.33917 0.0
O644 O 0.93387 0.51945 0.31089 0.0
C645 C 0.88836 0.54809 0.35911 0.0
O646 O 0.8923 0.50286 0.36401 0.0
N647 N 0.94756 0.43732 0.33152 0.0
C648 C 0.97923 0.34324 0.33017 0.0
C649 C 0.00453 0.37916 0.32122 0.0
C650 C 0.98794 0.4263 0.32204 0.0
C651 C 0.92716 0.40406 0.34222 0.0
C652 C 0.94049 0.35624 0.34099 0.0
H653 H 0.00684 0.4536 0.31475 0.0
H654 H 0.89836 0.4144 0.35103 0.0
H655 H 0.03302 0.53631 0.32017 0.0
H656 H 0.07313 0.50999 0.37251 0.0
H657 H 0.77224 0.40496 0.31537 0.0
H658 H 0.03682 0.37122 0.31376 0.0
H659 H 0.92038 0.32987 0.34842 0.0
C660 C 0.75637 0.25325 0.91091 0.0
C661 C 0.75474 0.20382 0.91096 0.0
N662 N 0.74608 0.18879 0.92743 0.0
N663 N 0.74802 0.27037 0.92722 0.0
C664 C 0.74075 0.22994 0.93699 0.0
H665 H 0.7664 0.27506 0.89979 0.0
Co666 Co 0.7596 0.33666 0.93322 0.0
C667 C 0.78002 0.31541 0.97198 0.0
O668 O 0.82666 0.31162 0.9696 0.0
N669 N 0.77152 0.40343 0.93953 0.0
C670 C 0.80497 0.46565 0.95354 0.0
C671 C 0.8035 0.41663 0.95202 0.0
C672 C 0.75456 0.44647 0.93337 0.0
N673 N 0.77452 0.48514 0.94175 0.0
O674 O 0.69247 0.35044 0.92945 0.0
H675 H 0.82648 0.39259 0.95926 0.0
H676 H 0.72945 0.44929 0.92255 0.0
O677 O 0.75134 0.32351 0.95895 0.0
C678 C 0.69526 0.35662 0.91277 0.0
O679 O 0.73829 0.35931 0.90562 0.0
N680 N 0.82515 0.32391 0.93259 0.0
C681 C 0.91015 0.29351 0.91691 0.0
C682 C 0.88914 0.26651 0.93039 0.0
C683 C 0.84566 0.28117 0.93746 0.0
C684 C 0.8463 0.35157 0.91997 0.0
C685 C 0.88856 0.33679 0.91179 0.0
H686 H 0.82732 0.25643 0.94602 0.0
H687 H 0.82796 0.38298 0.91484 0.0
H688 H 0.73579 0.23041 0.95107 0.0
H689 H 0.76078 0.18069 0.89971 0.0
H690 H 0.82752 0.48535 0.96264 0.0
H691 H 0.90496 0.23302 0.93498 0.0
H692 H 0.90263 0.35789 0.90104 0.0
C693 C 0.01487 0.4595 0.17079 0.0
C694 C 0.06406 0.45421 0.17092 0.0
N695 N 0.08165 0.47581 0.1853 0.0
N696 N 0.99983 0.48473 0.18503 0.0
C697 C 0.04213 0.49324 0.19387 0.0
H698 H 0.99245 0.44769 0.1601 0.0
Co699 Co 0.93479 0.5123 0.18627 0.0
C700 C 0.9053 0.52022 0.22324 0.0
O701 O 0.88173 0.55935 0.21863 0.0
N702 N 0.86931 0.53955 0.1863 0.0
C703 C 0.8055 0.58813 0.18249 0.0
C704 C 0.85495 0.58423 0.18141 0.0
C705 C 0.82678 0.5169 0.19006 0.0
N706 N 0.78728 0.54581 0.1879 0.0
O707 O 0.90773 0.45376 0.17813 0.0
H708 H 0.87829 0.61268 0.17704 0.0
H709 H 0.82505 0.47984 0.19438 0.0
O710 O 0.92817 0.49544 0.21153 0.0
C711 C 0.90258 0.46452 0.16193 0.0
O712 O 0.91829 0.50621 0.15623 0.0
N713 N 0.96241 0.57064 0.19177 0.0
C714 C 0.01352 0.65503 0.19339 0.0
C715 C 0.00834 0.62711 0.20841 0.0
C716 C 0.98303 0.58443 0.20729 0.0
C717 C 0.96973 0.59656 0.17687 0.0
C718 C 0.99442 0.63972 0.17743 0.0
H719 H 0.98338 0.56171 0.21867 0.0
H720 H 0.95592 0.58383 0.16447 0.0
H721 H 0.04475 0.51402 0.2058 0.0
H722 H 0.08559 0.43714 0.16079 0.0
H723 H 0.78439 0.61959 0.17895 0.0
H724 H 0.02355 0.6383 0.22088 0.0
H725 H 0.99837 0.66098 0.16561 0.0
C726 C 0.81826 0.75224 0.44525 0.0
C727 C 0.82363 0.80172 0.44465 0.0
N728 N 0.78101 0.82159 0.44016 0.0
N729 N 0.77231 0.74056 0.44119 0.0
C730 C 0.75063 0.78398 0.43802 0.0
H731 H 0.8462 0.72637 0.4485 0.0
Co732 Co 0.74627 0.67642 0.44011 0.0
C733 C 0.74303 0.64063 0.47658 0.0
O734 O 0.70291 0.61887 0.47208 0.0
N735 N 0.72067 0.61116 0.43858 0.0
C736 C 0.67217 0.5473 0.43578 0.0
C737 C 0.67548 0.59651 0.4344 0.0
C738 C 0.74437 0.56877 0.44199 0.0
N739 N 0.71535 0.52953 0.44058 0.0
O740 O 0.80461 0.65235 0.43013 0.0
H741 H 0.6457 0.61922 0.43064 0.0
H742 H 0.78193 0.56687 0.44587 0.0
O743 O 0.76677 0.6643 0.46492 0.0
C744 C 0.80406 0.66399 0.41391 0.0
O745 O 0.76984 0.69309 0.40832 0.0
N746 N 0.6881 0.70163 0.44757 0.0
C747 C 0.5996 0.74427 0.45345 0.0
C748 C 0.63386 0.74246 0.46691 0.0
C749 C 0.6788 0.72231 0.4635 0.0
C750 C 0.65711 0.7081 0.43391 0.0
C751 C 0.61212 0.72877 0.43658 0.0
H752 H 0.70617 0.72501 0.4735 0.0
H753 H 0.66758 0.69672 0.42086 0.0
H754 H 0.71313 0.78836 0.43441 0.0
H755 H 0.85624 0.82166 0.44747 0.0
H756 H 0.64033 0.52595 0.43316 0.0
H757 H 0.626 0.75644 0.47988 0.0
H758 H 0.5874 0.73247 0.42563 0.0
C759 C 0.5137 0.47234 0.66818 0.0
C760 C 0.46425 0.4724 0.66681 0.0
N761 N 0.44581 0.49575 0.68077 0.0
N762 N 0.5273 0.49621 0.68283 0.0
C763 C 0.48481 0.51016 0.69026 0.0
H764 H 0.53822 0.45419 0.65931 0.0
Co765 Co 0.5937 0.50006 0.69005 0.0
C766 C 0.56355 0.54535 0.7257 0.0
O767 O 0.55896 0.59089 0.72127 0.0
N768 N 0.66039 0.50353 0.69706 0.0
C769 C 0.72669 0.49713 0.71362 0.0
C770 C 0.67724 0.49739 0.71357 0.0
C771 C 0.70128 0.5075 0.68727 0.0
N772 N 0.74213 0.5034 0.6971 0.0
O773 O 0.59613 0.56503 0.68209 0.0
H774 H 0.65547 0.49236 0.72505 0.0
H775 H 0.70115 0.51118 0.67314 0.0
O776 O 0.57523 0.5145 0.7141 0.0
C777 C 0.60301 0.5569 0.66573 0.0
O778 O 0.60872 0.51205 0.66051 0.0
N779 N 0.59236 0.43606 0.69565 0.0
C780 C 0.58239 0.33755 0.69752 0.0
C781 C 0.54957 0.3679 0.70614 0.0
C782 C 0.55532 0.41719 0.7051 0.0
C783 C 0.62523 0.40714 0.68748 0.0
C784 C 0.62169 0.35741 0.68867 0.0
H785 H 0.52834 0.44014 0.71108 0.0
H786 H 0.65304 0.42257 0.67935 0.0
H787 H 0.48242 0.52953 0.70256 0.0
H788 H 0.44331 0.45465 0.65669 0.0
H789 H 0.74967 0.49249 0.725 0.0
H790 H 0.51815 0.3539 0.71283 0.0
H791 H 0.64812 0.33492 0.68208 0.0
C792 C 0.29275 0.24978 0.42107 0.0
C793 C 0.29739 0.20041 0.42163 0.0
N794 N 0.28553 0.18531 0.43777 0.0
N795 N 0.27818 0.26703 0.43684 0.0
C796 C 0.2753 0.22639 0.44686 0.0
H797 H 0.29675 0.27087 0.40931 0.0
Co798 Co 0.25389 0.3322 0.44027 0.0
C799 C 0.2477 0.34864 0.47835 0.0
O800 O 0.207 0.37115 0.47507 0.0
N801 N 0.22914 0.39913 0.4429 0.0
C802 C 0.18092 0.46404 0.44443 0.0
C803 C 0.18277 0.41465 0.44366 0.0
C804 C 0.25453 0.44137 0.44328 0.0
N805 N 0.22606 0.4818 0.4439 0.0
O806 O 0.31343 0.35805 0.43223 0.0
H807 H 0.15129 0.3921 0.44424 0.0
H808 H 0.29332 0.44209 0.44232 0.0
O809 O 0.27313 0.3315 0.46561 0.0
C810 C 0.3015 0.36532 0.4162 0.0
O811 O 0.25852 0.35201 0.41086 0.0
N812 N 0.19439 0.30602 0.44512 0.0
C813 C 0.10292 0.2695 0.44664 0.0
C814 C 0.13453 0.26139 0.46051 0.0
C815 C 0.1809 0.27941 0.45935 0.0
C816 C 0.16501 0.30952 0.43084 0.0
C817 C 0.11829 0.29253 0.43147 0.0
H818 H 0.20547 0.27149 0.46986 0.0
H819 H 0.17697 0.32798 0.41921 0.0
H820 H 0.26442 0.22629 0.46042 0.0
H821 H 0.30523 0.17709 0.41058 0.0
H822 H 0.14801 0.48495 0.44543 0.0
H823 H 0.12329 0.24203 0.47213 0.0
H824 H 0.09417 0.29812 0.42044 0.0
C825 C 0.51841 0.49932 0.16664 0.0
C826 C 0.56735 0.50591 0.16637 0.0
N827 N 0.58208 0.51784 0.18258 0.0
N828 N 0.50083 0.50711 0.18294 0.0
C829 C 0.54102 0.51924 0.19243 0.0
H830 H 0.49775 0.48571 0.15571 0.0
Co831 Co 0.43564 0.48563 0.18752 0.0
C832 C 0.42325 0.48097 0.22539 0.0
O833 O 0.40915 0.43662 0.22256 0.0
N834 N 0.36855 0.46345 0.19113 0.0
C835 C 0.30286 0.41841 0.19612 0.0
C836 C 0.35214 0.41818 0.19416 0.0
C837 C 0.32684 0.49024 0.19091 0.0
N838 N 0.2867 0.46366 0.19407 0.0
O839 O 0.41123 0.54483 0.17875 0.0
H840 H 0.37413 0.38626 0.19556 0.0
H841 H 0.32562 0.52863 0.1885 0.0
O842 O 0.43644 0.5078 0.21246 0.0
C843 C 0.40414 0.53407 0.16262 0.0
O844 O 0.41027 0.48903 0.15769 0.0
N845 N 0.46233 0.42685 0.19336 0.0
C846 C 0.5222 0.34697 0.19234 0.0
C847 C 0.529 0.3824 0.20512 0.0
C848 C 0.49858 0.42206 0.20546 0.0
C849 C 0.45595 0.39312 0.18062 0.0
C850 C 0.48404 0.35171 0.18035 0.0
H851 H 0.50672 0.4504 0.21467 0.0
H852 H 0.42959 0.39904 0.17036 0.0
H853 H 0.5409 0.52497 0.20648 0.0
H854 H 0.5909 0.49981 0.15525 0.0
H855 H 0.28032 0.38733 0.1985 0.0
H856 H 0.55857 0.38039 0.21442 0.0
H857 H 0.47641 0.32431 0.17061 0.0
C858 C 0.19965 0.74995 0.91839 0.0
C859 C 0.19744 0.79944 0.9184 0.0
N860 N 0.20861 0.81524 0.93452 0.0
N861 N 0.21217 0.73336 0.93447 0.0
C862 C 0.21672 0.77471 0.94416 0.0
H863 H 0.1963 0.72815 0.90674 0.0
Co864 Co 0.23926 0.66926 0.93699 0.0
C865 C 0.25733 0.65133 0.97462 0.0
O866 O 0.29824 0.63157 0.9697 0.0
N867 N 0.26845 0.60437 0.93838 0.0
C868 C 0.32261 0.54442 0.93616 0.0
C869 C 0.31572 0.59333 0.93591 0.0
C870 C 0.24781 0.55998 0.94043 0.0
N871 N 0.27991 0.5229 0.93866 0.0
O872 O 0.17808 0.64062 0.93176 0.0
H873 H 0.34456 0.61864 0.93405 0.0
H874 H 0.20988 0.55491 0.94286 0.0
O875 O 0.22836 0.66875 0.96295 0.0
C876 C 0.18055 0.6338 0.91517 0.0
O877 O 0.22118 0.64321 0.90708 0.0
N878 N 0.29751 0.69841 0.93921 0.0
C879 C 0.38322 0.74473 0.93482 0.0
C880 C 0.35999 0.74716 0.95101 0.0
C881 C 0.31608 0.7243 0.95288 0.0
C882 C 0.31761 0.70042 0.92295 0.0
C883 C 0.36138 0.72264 0.92049 0.0
H884 H 0.29721 0.72846 0.96512 0.0
H885 H 0.30046 0.68271 0.912 0.0
H886 H 0.22903 0.77546 0.95763 0.0
H887 H 0.19022 0.8223 0.90719 0.0
H888 H 0.35656 0.52584 0.93399 0.0
H889 H 0.3763 0.76515 0.96217 0.0
H890 H 0.37883 0.72107 0.90778 0.0
C891 C 0.01309 0.51788 0.66497 0.0
C892 C 0.96379 0.51877 0.66365 0.0
N893 N 0.94495 0.5082 0.67942 0.0
N894 N 0.02659 0.50547 0.68139 0.0
C895 C 0.98385 0.49967 0.68996 0.0
H896 H 0.03748 0.52794 0.6546 0.0
Co897 Co 0.09336 0.50854 0.68801 0.0
C898 C 0.06366 0.46331 0.72346 0.0
O899 O 0.04906 0.42111 0.71773 0.0
N900 N 0.16058 0.51332 0.69423 0.0
C901 C 0.22567 0.53879 0.70883 0.0
C902 C 0.1764 0.54075 0.70771 0.0
C903 C 0.20215 0.49578 0.68701 0.0
N904 N 0.2422 0.51044 0.69586 0.0
O905 O 0.10165 0.44283 0.68093 0.0
H906 H 0.15393 0.56364 0.71562 0.0
H907 H 0.20331 0.47324 0.67542 0.0
O908 O 0.07979 0.49388 0.71256 0.0
C909 C 0.10888 0.44818 0.66448 0.0
O910 O 0.11722 0.49185 0.6586 0.0
N911 N 0.08438 0.57248 0.69269 0.0
C912 C 0.05008 0.665 0.69039 0.0
C913 C 0.03456 0.63524 0.70395 0.0
C914 C 0.05148 0.58852 0.70469 0.0
C915 C 0.10328 0.60243 0.6804 0.0
C916 C 0.08653 0.64958 0.67902 0.0
H917 H 0.03439 0.56457 0.71386 0.0
H918 H 0.12836 0.58843 0.67077 0.0
H919 H 0.98113 0.49195 0.70382 0.0
H920 H 0.94352 0.52698 0.65188 0.0
H921 H 0.24789 0.55881 0.71797 0.0
H922 H 0.00684 0.64689 0.71307 0.0
H923 H 0.09924 0.67241 0.66849 0.0
C924 C 0.28684 0.74589 0.10646 0.0
C925 C 0.29306 0.79459 0.10735 0.0
N926 N 0.2763 0.81461 0.09251 0.0
N927 N 0.26651 0.73328 0.091 0.0
C928 C 0.26065 0.77666 0.08266 0.0
H929 H 0.29408 0.72215 0.11725 0.0
Co930 Co 0.24026 0.66922 0.08787 0.0
C931 C 0.22965 0.6496 0.05003 0.0
O932 O 0.1895 0.62777 0.05424 0.0
N933 N 0.21308 0.60432 0.08597 0.0
C934 C 0.16152 0.54241 0.08547 0.0
C935 C 0.16607 0.59145 0.08735 0.0
C936 C 0.2363 0.56117 0.08368 0.0
N937 N 0.20558 0.52315 0.08314 0.0
O938 O 0.30054 0.64117 0.09478 0.0
H939 H 0.13608 0.61572 0.08934 0.0
H940 H 0.27507 0.5575 0.08251 0.0
O941 O 0.25623 0.6683 0.06216 0.0
C942 C 0.29293 0.63254 0.11103 0.0
O943 O 0.24953 0.64036 0.11737 0.0
N944 N 0.18152 0.698 0.08395 0.0
C945 C 0.09677 0.74941 0.08609 0.0
C946 C 0.12251 0.74851 0.07037 0.0
C947 C 0.16568 0.72318 0.06965 0.0
C948 C 0.15808 0.70135 0.09958 0.0
C949 C 0.11517 0.72656 0.10094 0.0
H950 H 0.18689 0.72631 0.05791 0.0
H951 H 0.17282 0.68406 0.11108 0.0
H952 H 0.24419 0.78071 0.06989 0.0
H953 H 0.30678 0.81415 0.1186 0.0
H954 H 0.12829 0.52216 0.08633 0.0
H955 H 0.10942 0.76719 0.05881 0.0
H956 H 0.09643 0.72797 0.1134 0.0
C957 C 0.00926 0.4368 0.84799 0.0
C958 C 0.96097 0.43324 0.85152 0.0
N959 N 0.93742 0.47126 0.84443 0.0
N960 N 0.01818 0.47693 0.83864 0.0
C961 C 0.97388 0.49862 0.83766 0.0
H962 H 0.03663 0.41132 0.85214 0.0
Co963 Co 0.08446 0.49089 0.83176 0.0
C964 C 0.02995 0.51499 0.79716 0.0
O965 O 0.9866 0.50518 0.80285 0.0
N966 N 0.1509 0.50319 0.82568 0.0
C967 C 0.21936 0.4966 0.81036 0.0
C968 C 0.1697 0.49644 0.80948 0.0
C969 C 0.19051 0.50819 0.83616 0.0
N970 N 0.23258 0.50385 0.82714 0.0
O971 O 0.08129 0.55073 0.8443 0.0
H972 H 0.14882 0.4883 0.79785 0.0
H973 H 0.18879 0.51137 0.8503 0.0
O974 O 0.06585 0.51605 0.80789 0.0
C975 C 0.0914 0.53216 0.85935 0.0
O976 O 0.09802 0.48528 0.86008 0.0
N977 N 0.09097 0.4299 0.82256 0.0
C978 C 0.09044 0.33158 0.81992 0.0
C979 C 0.05879 0.35888 0.80966 0.0
C980 C 0.05872 0.4084 0.81161 0.0
C981 C 0.12553 0.40353 0.83104 0.0
C982 C 0.12631 0.35385 0.82973 0.0
H983 H 0.02848 0.42773 0.80652 0.0
H984 H 0.14913 0.42034 0.8405 0.0
H985 H 0.96853 0.53382 0.83191 0.0
H986 H 0.94572 0.40446 0.85913 0.0
H987 H 0.24398 0.49059 0.79955 0.0
H988 H 0.02965 0.34188 0.80247 0.0
H989 H 0.15024 0.33315 0.83813 0.0
C990 C 0.28499 0.25037 0.60936 0.0
C991 C 0.28632 0.20097 0.6096 0.0
N992 N 0.26276 0.18438 0.59541 0.0
N993 N 0.26052 0.26598 0.59509 0.0
C994 C 0.24782 0.22456 0.58664 0.0
H995 H 0.3017 0.27364 0.61898 0.0
Co996 Co 0.25163 0.33384 0.59084 0.0
C997 C 0.26542 0.34744 0.55319 0.0
O998 O 0.29327 0.38332 0.55806 0.0
N999 N 0.24104 0.40204 0.587 0.0
C1000 C 0.20209 0.46481 0.57529 0.0
C1001 C 0.20551 0.41574 0.57586 0.0
C1002 C 0.25734 0.44481 0.59367 0.0
N1003 N 0.23384 0.4836 0.58675 0.0
O1004 O 0.18478 0.32881 0.59671 0.0
H1005 H 0.18269 0.39126 0.56859 0.0
H1006 H 0.28412 0.44784 0.60392 0.0
O1007 O 0.24295 0.32265 0.56493 0.0
C1008 C 0.18806 0.3319 0.61346 0.0
O1009 O 0.23133 0.33411 0.62047 0.0
N1010 N 0.31746 0.33854 0.58813 0.0
C1011 C 0.41226 0.31601 0.5953 0.0
C1012 C 0.39032 0.29838 0.58009 0.0
C1013 C 0.34227 0.30846 0.57711 0.0
C1014 C 0.33961 0.35921 0.60221 0.0
C1015 C 0.38748 0.34842 0.60608 0.0
H1016 H 0.32414 0.28735 0.56722 0.0
H1017 H 0.31852 0.37845 0.61185 0.0
H1018 H 0.22804 0.22382 0.57438 0.0
H1019 H 0.30455 0.17885 0.61927 0.0
H1020 H 0.17716 0.48512 0.56719 0.0
H1021 H 0.40871 0.27294 0.57155 0.0
H1022 H 0.40321 0.36146 0.6182 0.0
C1023 C 0.50276 0.4864 0.35663 0.0
C1024 C 0.55135 0.47798 0.35736 0.0
N1025 N 0.56932 0.47922 0.34102 0.0
N1026 N 0.48816 0.49328 0.33989 0.0
C1027 C 0.53024 0.48837 0.33057 0.0
H1028 H 0.48057 0.49104 0.36809 0.0
Co1029 Co 0.42383 0.52021 0.33652 0.0
C1030 C 0.39994 0.52357 0.29925 0.0
O1031 O 0.37978 0.56485 0.3033 0.0
N1032 N 0.3578 0.54818 0.33492 0.0
C1033 C 0.29588 0.60042 0.33589 0.0
C1034 C 0.34516 0.59544 0.33569 0.0
C1035 C 0.31391 0.52538 0.33469 0.0
N1036 N 0.27575 0.55651 0.33546 0.0
O1037 O 0.39648 0.46343 0.34599 0.0
H1038 H 0.36955 0.62546 0.33596 0.0
H1039 H 0.30994 0.48659 0.33481 0.0
O1040 O 0.41889 0.49762 0.31156 0.0
C1041 C 0.38816 0.47648 0.36178 0.0
O1042 O 0.39724 0.52116 0.36649 0.0
N1043 N 0.45352 0.57639 0.32939 0.0
C1044 C 0.51544 0.65359 0.32579 0.0
C1045 C 0.51407 0.61766 0.313 0.0
C1046 C 0.48249 0.57967 0.31492 0.0
C1047 C 0.45716 0.60923 0.34258 0.0
C1048 C 0.48638 0.6493 0.34075 0.0
H1049 H 0.4849 0.55129 0.30534 0.0
H1050 H 0.43738 0.60399 0.35464 0.0
H1051 H 0.53294 0.49336 0.31656 0.0
H1052 H 0.57237 0.47489 0.36929 0.0
H1053 H 0.27616 0.63416 0.33671 0.0
H1054 H 0.53829 0.61782 0.30186 0.0
H1055 H 0.48664 0.67618 0.35108 0.0
C1056 C 0.16564 0.14651 0.14189 0.0
C1057 C 0.15643 0.13193 0.12443 0.0
C1058 C 0.13986 0.12718 0.15597 0.0
C1059 C 0.1042 0.09261 0.15297 0.0
H1060 H 0.19567 0.17008 0.14484 0.0
H1061 H 0.15168 0.13518 0.16923 0.0
S1062 S 0.05894 0.05073 0.10973 0.0
N1063 N 0.1037 0.08747 0.10485 0.0
N1064 N 0.0548 0.05109 0.13136 0.0
C1065 C 0.09043 0.08264 0.13552 0.0
C1066 C 0.11672 0.10233 0.12117 0.0
C1067 C 0.12737 0.86585 0.37935 0.0
C1068 C 0.14555 0.90824 0.37172 0.0
C1069 C 0.15038 0.84484 0.39406 0.0
C1070 C 0.19227 0.86559 0.40125 0.0
H1071 H 0.09425 0.85018 0.37444 0.0
H1072 H 0.13561 0.81234 0.39973 0.0
S1073 S 0.2521 0.97798 0.3867 0.0
N1074 N 0.20571 0.9716 0.37335 0.0
N1075 N 0.25016 0.93095 0.39985 0.0
C1076 C 0.21057 0.90765 0.39359 0.0
C1077 C 0.18687 0.92931 0.37911 0.0
C1078 C 0.33741 0.84496 0.64106 0.0
C1079 C 0.34694 0.8558 0.6233 0.0
C1080 C 0.35442 0.87446 0.65467 0.0
C1081 C 0.38129 0.9157 0.65084 0.0
H1082 H 0.31251 0.81635 0.64433 0.0
H1083 H 0.34293 0.86733 0.66799 0.0
S1084 S 0.4252 0.95318 0.60683 0.0
N1085 N 0.39148 0.90546 0.60292 0.0
N1086 N 0.42449 0.96065 0.62832 0.0
C1087 C 0.39607 0.92329 0.63331 0.0
C1088 C 0.37883 0.89315 0.61953 0.0
C1089 C 0.35141 0.12281 0.87209 0.0
C1090 C 0.38694 0.08854 0.87605 0.0
C1091 C 0.32587 0.14584 0.88562 0.0
C1092 C 0.33487 0.13516 0.9035 0.0
H1093 H 0.34018 0.12851 0.85862 0.0
H1094 H 0.29599 0.16918 0.88201 0.0
S1095 S 0.432 0.05636 0.92056 0.0
N1096 N 0.4363 0.05183 0.899 0.0
N1097 N 0.38707 0.09437 0.92429 0.0
C1098 C 0.37417 0.10556 0.90757 0.0
C1099 C 0.40044 0.08231 0.89383 0.0
C1100 C 0.83062 0.95162 0.88079 0.0
C1101 C 0.86943 0.92826 0.87262 0.0
C1102 C 0.80921 0.93215 0.89556 0.0
C1103 C 0.82629 0.88901 0.90293 0.0
H1104 H 0.81723 0.98585 0.87588 0.0
H1105 H 0.77762 0.9501 0.90089 0.0
S1106 S 0.92698 0.81367 0.88636 0.0
N1107 N 0.92489 0.86009 0.87278 0.0
N1108 N 0.88323 0.82239 0.90079 0.0
C1109 C 0.86511 0.86501 0.89494 0.0
C1110 C 0.88706 0.88494 0.87968 0.0
C1111 C 0.87316 0.13258 0.65243 0.0
C1112 C 0.90621 0.09602 0.64817 0.0
C1113 C 0.84579 0.15503 0.63925 0.0
C1114 C 0.85055 0.14172 0.62142 0.0
H1115 H 0.86477 0.1404 0.66603 0.0
H1116 H 0.81775 0.18014 0.64323 0.0
S1117 S 0.93952 0.05534 0.60328 0.0
N1118 N 0.94839 0.05354 0.62472 0.0
N1119 N 0.89603 0.09534 0.60007 0.0
C1120 C 0.88749 0.1096 0.61685 0.0
C1121 C 0.91554 0.08681 0.63024 0.0
C1122 C 0.58922 0.08848 0.39205 0.0
C1123 C 0.59799 0.09758 0.37411 0.0
C1124 C 0.61741 0.10979 0.4052 0.0
C1125 C 0.65515 0.14074 0.40072 0.0
H1126 H 0.56362 0.06101 0.39586 0.0
H1127 H 0.61267 0.09834 0.41867 0.0
S1128 S 0.68494 0.18527 0.35611 0.0
N1129 N 0.64108 0.14613 0.35289 0.0
N1130 N 0.69372 0.18696 0.37754 0.0
C1131 C 0.65996 0.15499 0.38305 0.0
C1132 C 0.63122 0.13334 0.3697 0.0
C1133 C 0.62718 0.85641 0.15459 0.0
C1134 C 0.59223 0.89126 0.15045 0.0
C1135 C 0.65308 0.83315 0.1412 0.0
C1136 C 0.64481 0.84414 0.12335 0.0
H1137 H 0.63892 0.85166 0.16805 0.0
H1138 H 0.6834 0.81049 0.14491 0.0
S1139 S 0.54874 0.92395 0.10596 0.0
N1140 N 0.54379 0.92841 0.12751 0.0
N1141 N 0.59306 0.88512 0.10237 0.0
C1142 C 0.60517 0.87339 0.11912 0.0
C1143 C 0.57868 0.8969 0.13273 0.0
C1144 C 0.67474 0.65027 0.64293 0.0
C1145 C 0.66685 0.63741 0.62521 0.0
C1146 C 0.64836 0.62911 0.65652 0.0
C1147 C 0.61334 0.59444 0.65272 0.0
H1148 H 0.70434 0.6738 0.64646 0.0
H1149 H 0.65926 0.6358 0.66996 0.0
S1150 S 0.57154 0.55645 0.60853 0.0
N1151 N 0.61607 0.59429 0.60457 0.0
N1152 N 0.56592 0.5546 0.6301 0.0
C1153 C 0.60079 0.58619 0.63502 0.0
C1154 C 0.62775 0.60769 0.6212 0.0
C1155 C 0.61828 0.39834 0.90491 0.0
C1156 C 0.65377 0.36405 0.90087 0.0
C1157 C 0.59136 0.42022 0.89144 0.0
C1158 C 0.59949 0.40884 0.87356 0.0
H1159 H 0.61498 0.41215 0.91816 0.0
H1160 H 0.5676 0.44986 0.89494 0.0
S1161 S 0.68088 0.31331 0.85679 0.0
N1162 N 0.68915 0.31286 0.87826 0.0
N1163 N 0.63965 0.35525 0.85302 0.0
C1164 C 0.63027 0.3702 0.86966 0.0
C1165 C 0.65728 0.34758 0.88335 0.0
C1166 C 0.87716 0.37608 0.12584 0.0
C1167 C 0.83353 0.39448 0.1192 0.0
C1168 C 0.89828 0.39659 0.14085 0.0
C1169 C 0.87573 0.43538 0.1495 0.0
H1170 H 0.89419 0.34509 0.11973 0.0
H1171 H 0.93278 0.38298 0.14542 0.0
S1172 S 0.7618 0.49659 0.13691 0.0
N1173 N 0.76849 0.45292 0.12236 0.0
N1174 N 0.80918 0.49258 0.15 0.0
C1175 C 0.83251 0.45411 0.1428 0.0
C1176 C 0.81106 0.43327 0.12777 0.0
C1177 C 0.88767 0.62332 0.37738 0.0
C1178 C 0.86458 0.58132 0.37143 0.0
C1179 C 0.86918 0.64939 0.39179 0.0
C1180 C 0.8277 0.63359 0.40068 0.0
H1181 H 0.92082 0.63511 0.37126 0.0
H1182 H 0.88723 0.68201 0.39598 0.0
S1183 S 0.75163 0.52878 0.38893 0.0
N1184 N 0.79675 0.5269 0.37484 0.0
N1185 N 0.76187 0.57625 0.40149 0.0
C1186 C 0.80375 0.59259 0.39445 0.0
C1187 C 0.82233 0.56627 0.37994 0.0
C1188 C 0.37002 0.37933 0.39573 0.0
C1189 C 0.32832 0.3963 0.40427 0.0
C1190 C 0.38847 0.40388 0.38108 0.0
C1191 C 0.36526 0.44553 0.37471 0.0
H1192 H 0.38733 0.34628 0.40002 0.0
H1193 H 0.4213 0.39088 0.37494 0.0
S1194 S 0.25435 0.50302 0.39209 0.0
N1195 N 0.2637 0.45591 0.40484 0.0
N1196 N 0.29907 0.50243 0.37782 0.0
C1197 C 0.32381 0.46257 0.38317 0.0
C1198 C 0.3051 0.43778 0.39784 0.0
C1199 C 0.39037 0.55685 0.13153 0.0
C1200 C 0.38512 0.56821 0.14951 0.0
C1201 C 0.36363 0.581 0.11863 0.0
C1202 C 0.33068 0.61703 0.12338 0.0
H1203 H 0.41324 0.52709 0.12744 0.0
H1204 H 0.36595 0.56882 0.10513 0.0
S1205 S 0.31044 0.66664 0.16815 0.0
N1206 N 0.34995 0.62259 0.17102 0.0
N1207 N 0.29942 0.66818 0.14686 0.0
C1208 C 0.32865 0.63196 0.14109 0.0
C1209 C 0.35609 0.60754 0.15418 0.0
C1210 C 0.10599 0.61072 0.8752 0.0
C1211 C 0.10249 0.56024 0.87549 0.0
C1212 C 0.12602 0.63582 0.88949 0.0
C1213 C 0.14239 0.61142 0.9046 0.0
H1214 H 0.09639 0.63057 0.86347 0.0
H1215 H 0.13225 0.67418 0.88817 0.0
S1216 S 0.13866 0.48004 0.9126 0.0
N1217 N 0.11439 0.48716 0.893 0.0
N1218 N 0.15142 0.53494 0.91939 0.0
C1219 C 0.13568 0.5617 0.9056 0.0
C1220 C 0.11587 0.53594 0.89114 0.0
C1221 C 0.15221 0.3341 0.64299 0.0
C1222 C 0.14805 0.34639 0.62506 0.0
C1223 C 0.13432 0.36464 0.6562 0.0
C1224 C 0.11139 0.40803 0.65176 0.0
H1225 H 0.17476 0.30391 0.64689 0.0
H1226 H 0.14319 0.35685 0.66975 0.0
S1227 S 0.0786 0.44905 0.60691 0.0
N1228 N 0.11032 0.39925 0.6037 0.0
N1229 N 0.07525 0.45602 0.6284 0.0
C1230 C 0.10023 0.41657 0.63395 0.0
C1231 C 0.11869 0.38564 0.62056 0.0
C1232 C 0.21407 0.22052 1.00752 0.0
C1233 C 0.23678 0.19271 0.99433 0.0
C1234 C 0.21859 0.20874 0.02537 0.0
C1235 C 0.24551 0.16831 0.03062 0.0
H1236 H 0.19155 0.25102 1.00394 0.0
H1237 H 0.20136 0.23165 0.03507 0.0
S1238 S 0.30976 0.08211 1.00119 0.0
N1239 N 0.28624 0.12255 0.98778 0.0
N1240 N 0.29397 0.0994 0.02111 0.0
C1241 C 0.26827 0.14013 0.01751 0.0
C1242 C 0.26431 0.15266 0.99943 0.0
C1243 C 0.1236 1.00249 0.26968 0.0
C1244 C 0.08917 0.97903 0.28022 0.0
C1245 C 0.11062 0.02469 0.25379 0.0
C1246 C 0.06303 0.02329 0.24747 0.0
H1247 H 0.16072 0.00533 0.27403 0.0
H1248 H 0.13802 0.04381 0.24651 0.0
S1249 S 0.9587 0.96764 0.27004 0.0
N1250 N 0.00476 0.95727 0.28333 0.0
N1251 N 0.98086 0.99743 0.25313 0.0
C1252 C 0.02806 1.00034 0.25786 0.0
C1253 C 0.04107 0.97838 0.27423 0.0
C1254 C 0.22749 0.75174 0.52494 0.0
C1255 C 0.26196 0.78413 0.53165 0.0
C1256 C 0.20718 0.75782 0.50824 0.0
C1257 C 0.22097 0.79604 0.49729 0.0
H1258 H 0.21488 0.722 0.53288 0.0
H1259 H 0.1805 0.73202 0.50384 0.0
S1260 S 0.31065 0.8906 0.5086 0.0
N1261 N 0.30932 0.85569 0.52612 0.0
N1262 N 0.27177 0.8671 0.49457 0.0
C1263 C 0.25586 0.82856 0.50378 0.0
C1264 C 0.27613 0.82264 0.52098 0.0
C1265 C 0.44596 0.96633 0.76995 0.0
C1266 C 0.42618 0.99903 0.78226 0.0
C1267 C 0.43806 0.97159 0.7518 0.0
C1268 C 0.40917 0.00927 0.74526 0.0
H1269 H 0.46673 0.93554 0.77446 0.0
H1270 H 0.45412 0.9456 0.7429 0.0
S1271 S 0.34815 0.10391 0.77238 0.0
N1272 N 0.37692 0.07004 0.78681 0.0
N1273 N 0.36053 0.08015 0.75302 0.0
C1274 C 0.38963 0.04258 0.7576 0.0
C1275 C 0.39859 0.0375 0.77599 0.0
C1276 C 0.69737 0.81292 1.00462 0.0
C1277 C 0.73566 0.82401 0.9931 0.0
C1278 C 0.70249 0.8172 0.02287 0.0
C1279 C 0.74597 0.83321 0.03013 0.0
H1280 H 0.66207 0.80403 0.99942 0.0
H1281 H 0.67126 0.81172 0.03115 0.0
S1282 S 0.85993 0.85689 1.00602 0.0
N1283 N 0.82035 0.84419 0.99046 0.0
N1284 N 0.83049 0.85219 0.02476 0.0
C1285 C 0.78597 0.83943 0.01889 0.0
C1286 C 0.78076 0.83469 1.00033 0.0
C1287 C 0.9202 0.0543 0.77044 0.0
C1288 C 0.91933 0.01241 0.78103 0.0
C1289 C 0.9213 0.05152 0.75207 0.0
C1290 C 0.92129 0.00673 0.74365 0.0
H1291 H 0.91798 0.08979 0.77636 0.0
H1292 H 0.9185 0.0844 0.74448 0.0
S1293 S 0.92697 0.88659 0.7651 0.0
N1294 N 0.92475 0.92517 0.78163 0.0
N1295 N 0.92613 0.91956 0.74707 0.0
C1296 C 0.92439 0.96468 0.75403 0.0
C1297 C 0.92372 0.96758 0.77275 0.0
C1298 C 0.76921 0.14943 0.52466 0.0
C1299 C 0.74968 0.19342 0.53037 0.0
C1300 C 0.76638 0.13567 0.50694 0.0
C1301 C 0.74386 0.16533 0.4942 0.0
H1302 H 0.78313 0.12374 0.53412 0.0
H1303 H 0.78074 0.10062 0.50338 0.0
S1304 S 0.69224 0.28694 0.50244 0.0
N1305 N 0.71089 0.26851 0.52191 0.0
N1306 N 0.70592 0.24305 0.48861 0.0
C1307 C 0.72717 0.21089 0.49964 0.0
C1308 C 0.73009 0.22481 0.51769 0.0
C1309 C 0.56801 0.96059 0.27028 0.0
C1310 C 0.57212 0.00399 0.27989 0.0
C1311 C 0.56821 0.9603 0.25184 0.0
C1312 C 0.57316 1.00344 0.24251 0.0
H1313 H 0.56884 0.9263 0.27707 0.0
H1314 H 0.56945 0.92604 0.24499 0.0
S1315 S 0.57731 0.12688 0.26142 0.0
N1316 N 0.57481 0.09115 0.27871 0.0
N1317 N 0.57561 0.09102 0.24409 0.0
C1318 C 0.57231 0.04726 0.25196 0.0
C1319 C 0.57161 0.04748 0.27069 0.0
C1320 C 0.77549 0.69998 0.5202 0.0
C1321 C 0.75584 0.66796 0.53257 0.0
C1322 C 0.7729 0.69045 0.50207 0.0
C1323 C 0.75134 0.648 0.4957 0.0
H1324 H 0.79438 0.73191 0.52463 0.0
H1325 H 0.78759 0.71661 0.49302 0.0
S1326 S 0.69946 0.55019 0.52298 0.0
N1327 N 0.71719 0.59107 0.53736 0.0
N1328 N 0.71241 0.57248 0.50348 0.0
C1329 C 0.73224 0.61545 0.50806 0.0
C1330 C 0.73446 0.62555 0.52643 0.0
C1331 C 0.5367 0.56186 0.75662 0.0
C1332 C 0.5569 0.52964 0.74438 0.0
C1333 C 0.52946 0.54846 0.77416 0.0
C1334 C 0.54338 0.50269 0.78048 0.0
H1335 H 0.52553 0.59766 0.7526 0.0
H1336 H 0.51241 0.57438 0.78281 0.0
S1337 S 0.59673 0.4038 0.75424 0.0
N1338 N 0.58924 0.44828 0.74012 0.0
N1339 N 0.57749 0.42477 0.77329 0.0
C1340 C 0.56399 0.47014 0.76863 0.0
C1341 C 0.57024 0.48316 0.75056 0.0
C1342 C 0.78929 0.29687 1.0037 0.0
C1343 C 0.76449 0.322 0.99035 0.0
C1344 C 0.78436 0.30969 0.02143 0.0
C1345 C 0.75476 0.34856 0.02649 0.0
H1346 H 0.81393 0.26782 1.00034 0.0
H1347 H 0.80404 0.28909 0.03118 0.0
S1348 S 0.68246 0.42645 0.99647 0.0
N1349 N 0.70923 0.38726 0.98335 0.0
N1350 N 0.69999 0.4121 0.01651 0.0
C1351 C 0.72911 0.37353 0.01322 0.0
C1352 C 0.73381 0.36 0.99521 0.0
C1353 C 0.893 0.53684 0.27244 0.0
C1354 C 0.93278 0.5116 0.27915 0.0
C1355 C 0.88426 0.53836 0.25434 0.0
C1356 C 0.91488 0.51453 0.24227 0.0
H1357 H 0.86656 0.5525 0.28126 0.0
H1358 H 0.85238 0.55744 0.24983 0.0
S1359 S 0.02652 0.4469 0.25349 0.0
N1360 N 0.00457 0.46443 0.27262 0.0
N1361 N 0.98889 0.46807 0.23849 0.0
C1362 C 0.95603 0.49089 0.24885 0.0
C1363 C 0.96485 0.48942 0.2673 0.0
C1364 C 0.30292 0.35015 0.52348 0.0
C1365 C 0.26383 0.33607 0.5342 0.0
C1366 C 0.29954 0.34968 0.50511 0.0
C1367 C 0.25674 0.33563 0.49685 0.0
H1368 H 0.33573 0.36397 0.52935 0.0
H1369 H 0.32913 0.36385 0.49744 0.0
S1370 S 0.1467 0.28862 0.51872 0.0
N1371 N 0.18354 0.30183 0.53508 0.0
N1372 N 0.17625 0.30217 0.50061 0.0
C1373 C 0.21879 0.31791 0.50736 0.0
C1374 C 0.2226 0.31766 0.52605 0.0
C1375 C 0.4374 0.46177 0.25679 0.0
C1376 C 0.42546 0.49629 0.24388 0.0
C1377 C 0.42997 0.47084 0.27469 0.0
C1378 C 0.40964 0.51459 0.28032 0.0
H1379 H 0.45123 0.42668 0.25295 0.0
H1380 H 0.43894 0.44292 0.28408 0.0
S1381 S 0.37549 0.61819 0.25153 0.0
N1382 N 0.39529 0.57647 0.23782 0.0
N1383 N 0.38083 0.59451 0.27129 0.0
C1384 C 0.39954 0.55031 0.26745 0.0
C1385 C 0.40771 0.54099 0.24928 0.0
C1386 C 0.28362 0.65481 0.02369 0.0
C1387 C 0.23755 0.65875 0.03109 0.0
C1388 C 0.28953 0.6542 1.00538 0.0
C1389 C 0.24967 0.65804 0.99379 0.0
H1390 H 0.31491 0.64958 0.03204 0.0
H1391 H 0.32572 0.6494 1.00031 0.0
S1392 S 0.12224 0.67662 1.0068 0.0
N1393 N 0.15184 0.6721 0.02555 0.0
N1394 N 0.16331 0.67105 0.99125 0.0
C1395 C 0.2039 0.66549 1.00109 0.0
C1396 C 0.19778 0.66575 0.0197 0.0
C1397 C 0.02061 0.46101 0.77101 0.0
C1398 C 0.03948 0.50365 0.77841 0.0
C1399 C 0.02972 0.44788 0.75352 0.0
C1400 C 0.05674 0.47758 0.74234 0.0
H1401 H 0.99861 0.43711 0.7788 0.0
H1402 H 0.01457 0.41446 0.74869 0.0
S1403 S 0.10989 0.59599 0.75499 0.0
N1404 N 0.08469 0.57646 0.77322 0.0
N1405 N 0.09964 0.55389 0.74012 0.0
C1406 C 0.0746 0.5212 0.74955 0.0
C1407 C 0.06652 0.53371 0.76759 0.0
C1408 C 0.31338 0.89453 0.09613 0.0
C1409 C 0.2756 0.86634 0.08933 0.0
C1410 C 0.31275 0.94484 0.09515 0.0
C1411 C 0.27473 0.97034 0.08702 0.0
H1412 H 0.34412 0.87741 0.10237 0.0
H1413 H 0.34304 0.96411 0.10072 0.0
S1414 S 0.16566 0.91459 0.06747 0.0
N1415 N 0.1975 0.86806 0.07469 0.0
N1416 N 0.19733 0.96333 0.07222 0.0
C1417 C 0.23616 0.94303 0.08023 0.0
C1418 C 0.23655 0.89102 0.0814 0.0
C1419 C 0.36569 0.04056 0.33477 0.0
C1420 C 0.38585 0.99459 0.33745 0.0
C1421 C 0.31562 0.04682 0.33214 0.0
C1422 C 0.28338 0.00732 0.33182 0.0
H1423 H 0.38861 0.07204 0.33524 0.0
H1424 H 0.30206 0.08322 0.33066 0.0
S1425 S 0.31928 0.87875 0.33657 0.0
N1426 N 0.37034 0.90861 0.33869 0.0
N1427 N 0.27706 0.92001 0.33339 0.0
C1428 C 0.30356 0.961 0.33409 0.0
C1429 C 0.35445 0.95476 0.33693 0.0
C1430 C 0.27007 0.11801 0.57363 0.0
C1431 C 0.25865 0.13387 0.59064 0.0
C1432 C 0.27199 0.06847 0.56947 0.0
C1433 C 0.26203 0.03236 0.58206 0.0
H1434 H 0.2792 0.14406 0.56363 0.0
H1435 H 0.28217 0.05844 0.55626 0.0
S1436 S 0.22556 0.05574 0.62823 0.0
N1437 N 0.23465 0.10993 0.61998 0.0
N1438 N 0.23694 0.01738 0.61214 0.0
C1439 C 0.2493 0.04806 0.59905 0.0
C1440 C 0.24783 0.09853 0.60331 0.0
C1441 C 0.20962 0.92661 0.84368 0.0
C1442 C 0.23555 0.96556 0.8366 0.0
C1443 C 0.15918 0.92621 0.8443 0.0
C1444 C 0.13103 0.96517 0.83824 0.0
H1445 H 0.22857 0.89555 0.84889 0.0
H1446 H 0.142 0.89462 0.84972 0.0
S1447 S 0.18012 0.07747 0.81882 0.0
N1448 N 0.22878 0.04488 0.82327 0.0
N1449 N 0.13332 0.04509 0.82514 0.0
C1450 C 0.15607 0.00503 0.83123 0.0
C1451 C 0.20827 0.00517 0.83039 0.0
C1452 C 0.30702 0.09793 0.43664 0.0
C1453 C 0.27636 0.13541 0.44255 0.0
C1454 C 0.29656 0.04887 0.43983 0.0
C1455 C 0.25452 0.03489 0.44889 0.0
H1456 H 0.33953 0.10672 0.42949 0.0
H1457 H 0.32191 0.02179 0.4353 0.0
S1458 S 0.15915 0.11908 0.46511 0.0
N1459 N 0.20062 0.15482 0.45682 0.0
N1460 N 0.17975 0.06373 0.46222 0.0
C1461 C 0.22284 0.07226 0.45437 0.0
C1462 C 0.23403 0.12206 0.45138 0.0
C1463 C 0.13957 0.05549 0.68407 0.0
C1464 C 0.12073 0.00999 0.6879 0.0
C1465 C 0.18955 0.06422 0.68488 0.0
C1466 C 0.22331 0.02803 0.68988 0.0
H1467 H 0.11563 0.08394 0.67961 0.0
H1468 H 0.20148 0.09961 0.681 0.0
S1469 S 0.19026 0.90271 0.70232 0.0
N1470 N 0.13826 0.92839 0.69718 0.0
N1471 N 0.23167 0.9447 0.69969 0.0
C1472 C 0.20414 0.98245 0.69426 0.0
C1473 C 0.15317 0.97354 0.69305 0.0
C1474 C 0.25204 0.89379 0.93351 0.0
C1475 C 0.21283 0.86565 0.93934 0.0
C1476 C 0.25283 0.94458 0.93584 0.0
C1477 C 0.214 0.96932 0.94385 0.0
H1478 H 0.28203 0.87633 0.92692 0.0
H1479 H 0.28408 0.96451 0.93149 0.0
S1480 S 0.1001 0.91214 0.95908 0.0
N1481 N 0.13337 0.86637 0.95219 0.0
N1482 N 0.13309 0.96078 0.95599 0.0
C1483 C 0.17402 0.94121 0.94916 0.0
C1484 C 0.17385 0.88981 0.94704 0.0
C1485 C 0.30599 0.04557 0.18395 0.0
C1486 C 0.2862 0.00662 0.19317 0.0
C1487 C 0.35557 0.0469 0.17979 0.0
C1488 C 0.3876 0.00911 0.18452 0.0
H1489 H 0.28326 0.07594 0.18045 0.0
H1490 H 0.36904 0.07846 0.17312 0.0
S1491 S 0.35203 0.89575 0.20671 0.0
N1492 N 0.30146 0.92736 0.20557 0.0
N1493 N 0.39397 0.9295 0.19758 0.0
C1494 C 0.36767 0.96913 0.19319 0.0
C1495 C 0.31726 0.96794 0.1975 0.0
C1496 C 0.70707 0.07401 0.94973 0.0
C1497 C 0.7353 0.03782 0.94142 0.0
C1498 C 0.71212 0.1233 0.94575 0.0
C1499 C 0.74585 0.13898 0.93332 0.0
H1500 H 0.67961 0.06422 0.95912 0.0
H1501 H 0.68797 0.14909 0.95188 0.0
S1502 S 0.83616 0.06159 0.91057 0.0
N1503 N 0.80334 0.02328 0.92194 0.0
N1504 N 0.81354 0.11547 0.91487 0.0
C1505 C 0.77719 0.10399 0.92603 0.0
C1506 C 0.77192 0.05368 0.93002 0.0
C1507 C 0.70044 0.99072 0.67473 0.0
C1508 C 0.72205 0.98999 0.69136 0.0
C1509 C 0.6507 0.98273 0.67269 0.0
C1510 C 0.62034 0.97307 0.68719 0.0
H1511 H 0.72192 0.99936 0.66331 0.0
H1512 H 0.63583 0.98549 0.65959 0.0
S1513 S 0.66092 0.96397 0.73347 0.0
N1514 N 0.7105 0.97756 0.72254 0.0
N1515 N 0.61721 0.96085 0.71873 0.0
C1516 C 0.64204 0.97122 0.70388 0.0
C1517 C 0.69276 0.97999 0.70595 0.0
C1518 C 0.77179 0.9489 0.42287 0.0
C1519 C 0.76444 0.97629 0.43825 0.0
C1520 C 0.77441 0.89798 0.42335 0.0
C1521 C 0.77024 0.87267 0.43927 0.0
H1522 H 0.77829 0.96721 0.41057 0.0
H1523 H 0.78217 0.87838 0.41137 0.0
S1524 S 0.75062 0.92706 0.4831 0.0
N1525 N 0.75255 0.97387 0.46973 0.0
N1526 N 0.75751 0.87868 0.47062 0.0
C1527 C 0.76146 0.89949 0.45459 0.0
C1528 C 0.75857 0.95112 0.45409 0.0
C1529 C 0.85967 0.02476 0.18582 0.0
C1530 C 0.89072 0.98454 0.1873 0.0
C1531 C 0.80898 0.02001 0.18774 0.0
C1532 C 0.78757 0.97488 0.19128 0.0
H1533 H 0.87457 0.05973 0.18274 0.0
H1534 H 0.78647 0.05187 0.18658 0.0
S1535 S 0.85385 0.85846 0.19558 0.0
N1536 N 0.89659 0.89861 0.19229 0.0
N1537 N 0.8026 0.88902 0.19528 0.0
C1538 C 0.81872 0.93459 0.19262 0.0
C1539 C 0.86983 0.9396 0.19079 0.0
C1540 C 0.71776 0.90969 0.6033 0.0
C1541 C 0.73251 0.87495 0.59069 0.0
C1542 C 0.71999 0.95962 0.60004 0.0
C1543 C 0.73624 0.97736 0.58389 0.0
H1544 H 0.70378 0.89831 0.61586 0.0
H1545 H 0.70737 0.98455 0.61 0.0
S1546 S 0.78064 0.90391 0.54648 0.0
N1547 N 0.76618 0.86359 0.56148 0.0
N1548 N 0.7679 0.95708 0.55517 0.0
C1549 C 0.75093 0.9436 0.57112 0.0
C1550 C 0.74959 0.89264 0.57452 0.0
C1551 C 0.79997 0.96021 0.3385 0.0
C1552 C 0.78621 0.00671 0.33278 0.0
C1553 C 0.84887 0.94722 0.34081 0.0
C1554 C 0.88646 0.97974 0.33722 0.0
H1555 H 0.77281 0.93327 0.34109 0.0
H1556 H 0.85744 0.91124 0.34537 0.0
S1557 S 0.87136 0.10705 0.32346 0.0
N1558 N 0.81568 0.08652 0.32488 0.0
N1559 N 0.90675 0.06116 0.32856 0.0
C1560 C 0.87356 0.02627 0.33158 0.0
C1561 C 0.8238 0.03994 0.32953 0.0
C1562 C 0.76771 0.05766 0.09705 0.0
C1563 C 0.75351 0.03748 0.08092 0.0
C1564 C 0.77934 0.10695 0.0985 0.0
C1565 C 0.77754 0.13808 0.08385 0.0
H1566 H 0.76845 0.03545 0.10871 0.0
H1567 H 0.78878 0.12104 0.1113 0.0
S1568 S 0.74875 0.10127 0.03821 0.0
N1569 N 0.74216 0.05137 0.04975 0.0
N1570 N 0.76456 0.14349 0.0524 0.0
C1571 C 0.76494 0.1178 0.06754 0.0
C1572 C 0.75288 0.06772 0.0661 0.0
C1573 C 0.70354 0.06954 0.82682 0.0
C1574 C 0.73512 0.0354 0.83458 0.0
C1575 C 0.6528 0.06617 0.82842 0.0
C1576 C 0.63138 0.02886 0.83807 0.0
H1577 H 0.71836 0.10014 0.81992 0.0
H1578 H 0.63033 0.09448 0.82298 0.0
S1579 S 0.69671 0.92859 0.86014 0.0
N1580 N 0.74013 0.96142 0.85147 0.0
N1581 N 0.64551 0.95547 0.85467 0.0
C1582 C 0.6623 0.99332 0.84522 0.0
C1583 C 0.71384 0.9964 0.84341 0.0
C1584 C 0.7792 0.40871 0.60633 0.0
C1585 C 0.77229 0.37516 0.59251 0.0
C1586 C 0.78051 0.45872 0.60338 0.0
C1587 C 0.77542 0.47783 0.58647 0.0
H1588 H 0.7845 0.39629 0.61964 0.0
H1589 H 0.78721 0.4827 0.61434 0.0
S1590 S 0.75626 0.408 0.54558 0.0
N1591 N 0.75903 0.3664 0.56105 0.0
N1592 N 0.76381 0.46031 0.55561 0.0
C1593 C 0.7688 0.4454 0.57248 0.0
C1594 C 0.76673 0.39422 0.57545 0.0
C1595 C 0.81594 0.52781 0.83244 0.0
C1596 C 0.78228 0.49126 0.8361 0.0
C1597 C 0.86575 0.52178 0.83584 0.0
C1598 C 0.88487 0.47837 0.84275 0.0
H1599 H 0.80364 0.56128 0.82662 0.0
H1600 H 0.88933 0.55135 0.83261 0.0
S1601 S 0.81016 0.3708 0.85424 0.0
N1602 N 0.77052 0.41077 0.84713 0.0
N1603 N 0.86307 0.39754 0.85296 0.0
C1604 C 0.85068 0.44163 0.84667 0.0
C1605 C 0.79986 0.44855 0.8435 0.0
C1606 C 0.71619 0.62161 0.07752 0.0
C1607 C 0.75759 0.63859 0.08623 0.0
C1608 C 0.70805 0.57186 0.07518 0.0
C1609 C 0.74089 0.53655 0.08139 0.0
H1610 H 0.6888 0.64681 0.07313 0.0
H1611 H 0.67496 0.56094 0.06877 0.0
S1612 S 0.85805 0.56193 0.10316 0.0
N1613 N 0.83466 0.61574 0.09934 0.0
N1614 N 0.81842 0.52294 0.0955 0.0
C1615 C 0.78372 0.55312 0.08925 0.0
C1616 C 0.79219 0.60381 0.09157 0.0
C1617 C 0.69237 0.51049 0.32198 0.0
C1618 C 0.72394 0.48072 0.33171 0.0
C1619 C 0.64165 0.50911 0.32459 0.0
C1620 C 0.62071 0.47754 0.33693 0.0
H1621 H 0.70693 0.53418 0.31206 0.0
H1622 H 0.6188 0.53326 0.31709 0.0
S1623 S 0.6882 0.3904 0.36488 0.0
N1624 N 0.73064 0.41833 0.35371 0.0
N1625 N 0.63658 0.41434 0.35831 0.0
C1626 C 0.65234 0.4473 0.34649 0.0
C1627 C 0.70347 0.44922 0.34396 0.0
C1628 C 0.80589 0.56914 0.94342 0.0
C1629 C 0.76856 0.53672 0.93874 0.0
C1630 C 0.8012 0.61927 0.94114 0.0
C1631 C 0.75933 0.63935 0.93381 0.0
H1632 H 0.8398 0.55581 0.94856 0.0
H1633 H 0.83127 0.64236 0.94447 0.0
S1634 S 0.64976 0.57254 0.92011 0.0
N1635 N 0.68691 0.53007 0.92722 0.0
N1636 N 0.67904 0.62391 0.92238 0.0
C1637 C 0.7215 0.60792 0.92922 0.0
C1638 C 0.72591 0.55684 0.93175 0.0
C1639 C 0.70265 0.57191 0.19425 0.0
C1640 C 0.73588 0.53507 0.18957 0.0
C1641 C 0.65215 0.56506 0.19337 0.0
C1642 C 0.63251 0.5211 0.1877 0.0
H1643 H 0.71582 0.60705 0.1981 0.0
H1644 H 0.62836 0.59519 0.19615 0.0
S1645 S 0.70215 0.41165 0.17524 0.0
N1646 N 0.74409 0.4516 0.18017 0.0
N1647 N 0.64988 0.43916 0.17842 0.0
C1648 C 0.66502 0.48325 0.18386 0.0
C1649 C 0.71638 0.49 0.18487 0.0
C1650 C 0.69597 0.39779 0.4507 0.0
C1651 C 0.7331 0.37496 0.44124 0.0
C1652 C 0.69233 0.44852 0.45143 0.0
C1653 C 0.726 0.47857 0.44291 0.0
H1654 H 0.66761 0.37628 0.45645 0.0
H1655 H 0.66152 0.46449 0.458 0.0
S1656 S 0.83205 0.43635 0.41751 0.0
N1657 N 0.80553 0.38613 0.42391 0.0
N1658 N 0.79962 0.4811 0.42578 0.0
C1659 C 0.76512 0.45608 0.43444 0.0
C1660 C 0.76833 0.40445 0.43344 0.0
C1661 C 0.82607 0.47262 0.69988 0.0
C1662 C 0.79232 0.50372 0.69175 0.0
C1663 C 0.87571 0.47464 0.69601 0.0
C1664 C 0.8939 0.50795 0.68384 0.0
H1665 H 0.8139 0.44627 0.70933 0.0
H1666 H 0.89996 0.44948 0.70241 0.0
S1667 S 0.82107 0.60026 0.66 0.0
N1668 N 0.78094 0.5702 0.67157 0.0
N1669 N 0.87382 0.57509 0.66448 0.0
C1670 C 0.86047 0.5398 0.67578 0.0
C1671 C 0.80989 0.53735 0.67965 0.0
C1672 C 0.21299 0.61827 0.43833 0.0
C1673 C 0.2601 0.63563 0.44057 0.0
C1674 C 0.20263 0.56856 0.43932 0.0
C1675 C 0.23864 0.53325 0.44298 0.0
H1676 H 0.18405 0.64324 0.43525 0.0
H1677 H 0.16575 0.55816 0.43684 0.0
S1678 S 0.36808 0.56131 0.45121 0.0
N1679 N 0.34312 0.61432 0.44725 0.0
N1680 N 0.32401 0.52171 0.44965 0.0
C1681 C 0.28602 0.55072 0.44561 0.0
C1682 C 0.29655 0.60144 0.44432 0.0
C1683 C 0.16475 0.49457 0.17524 0.0
C1684 C 0.13277 0.48223 0.18895 0.0
C1685 C 0.21533 0.49253 0.17743 0.0
C1686 C 0.23611 0.47729 0.19333 0.0
H1687 H 0.15043 0.50411 0.16248 0.0
H1688 H 0.2383 0.49986 0.16627 0.0
S1689 S 0.16913 0.44482 0.23369 0.0
N1690 N 0.12616 0.4579 0.21937 0.0
N1691 N 0.22089 0.45274 0.22334 0.0
C1692 C 0.20469 0.46715 0.20736 0.0
C1693 C 0.15319 0.47009 0.20523 0.0
C1694 C 0.2457 0.39153 0.9464 0.0
C1695 C 0.26492 0.36816 0.93142 0.0
C1696 C 0.24882 0.44241 0.94858 0.0
C1697 C 0.27152 0.47163 0.93591 0.0
H1698 H 0.22734 0.3705 0.95628 0.0
H1699 H 0.23419 0.45887 0.96033 0.0
S1700 S 0.3276 0.42855 0.89452 0.0
N1701 N 0.30799 0.37896 0.90401 0.0
N1702 N 0.31262 0.47307 0.90786 0.0
C1703 C 0.29057 0.44849 0.92098 0.0
C1704 C 0.28763 0.39733 0.91881 0.0
C1705 C 0.36062 0.50778 0.67136 0.0
C1706 C 0.39479 0.49973 0.68485 0.0
C1707 C 0.31062 0.50934 0.67482 0.0
C1708 C 0.29279 0.50276 0.6919 0.0
H1709 H 0.37276 0.51353 0.65804 0.0
H1710 H 0.28586 0.51713 0.66417 0.0
S1711 S 0.3661 0.47483 0.73145 0.0
N1712 N 0.4064 0.48124 0.71569 0.0
N1713 N 0.31295 0.48429 0.72218 0.0
C1714 C 0.32642 0.49336 0.70538 0.0
C1715 C 0.3772 0.49189 0.70188 0.0
C1716 C 0.25 0.40084 0.09742 0.0
C1717 C 0.22174 0.36883 0.08725 0.0
C1718 C 0.24745 0.45122 0.09514 0.0
C1719 C 0.21607 0.47186 0.08273 0.0
H1720 H 0.27313 0.38682 0.1077 0.0
H1721 H 0.26792 0.47428 0.10387 0.0
S1722 S 0.13869 0.40472 0.05139 0.0
N1723 N 0.16491 0.36194 0.06315 0.0
N1724 N 0.15952 0.45642 0.05903 0.0
C1725 C 0.1898 0.44034 0.07179 0.0
C1726 C 0.19289 0.38897 0.07396 0.0
C1727 C 0.36481 0.47216 0.83334 0.0
C1728 C 0.38297 0.51106 0.84339 0.0
C1729 C 0.31565 0.46931 0.82848 0.0
C1730 C 0.28178 0.50457 0.83371 0.0
H1731 H 0.38869 0.44383 0.82884 0.0
H1732 H 0.304 0.43938 0.82039 0.0
S1733 S 0.30743 0.61412 0.85971 0.0
N1734 N 0.3602 0.58679 0.85794 0.0
N1735 N 0.26878 0.5791 0.84937 0.0
C1736 C 0.2984 0.5427 0.84407 0.0
C1737 C 0.34854 0.54654 0.84874 0.0
C1738 C 0.28082 0.55848 0.59356 0.0
C1739 C 0.23637 0.53434 0.5915 0.0
C1740 C 0.28264 0.60914 0.59625 0.0
C1741 C 0.24005 0.63725 0.59713 0.0
H1742 H 0.31427 0.53829 0.59263 0.0
H1743 H 0.3174 0.62636 0.59772 0.0
S1744 S 0.11475 0.5913 0.59252 0.0
N1745 N 0.14909 0.54275 0.5912 0.0
N1746 N 0.15244 0.6366 0.59499 0.0
C1747 C 0.19569 0.61318 0.59505 0.0
C1748 C 0.19388 0.5622 0.59261 0.0
C1749 C 0.14626 0.51434 0.32804 0.0
C1750 C 0.12082 0.53781 0.34171 0.0
C1751 C 0.19723 0.51878 0.32631 0.0
C1752 C 0.2245 0.54722 0.33808 0.0
H1753 H 0.12683 0.49162 0.31891 0.0
H1754 H 0.21526 0.50063 0.31556 0.0
S1755 S 0.17548 0.61547 0.37608 0.0
N1756 N 0.12755 0.59021 0.36711 0.0
N1757 N 0.22175 0.59832 0.36392 0.0
C1758 C 0.19926 0.57058 0.35171 0.0
C1759 C 0.14802 0.56594 0.3535 0.0
C1760 C 0.52955 0.25121 0.09398 0.0
C1761 C 0.55142 0.26224 0.07785 0.0
C1762 C 0.48046 0.24377 0.09519 0.0
C1763 C 0.45144 0.24132 0.08011 0.0
H1764 H 0.55001 0.249 0.10605 0.0
H1765 H 0.46568 0.23988 0.10823 0.0
S1766 S 0.49171 0.26017 0.03411 0.0
N1767 N 0.53979 0.27086 0.04623 0.0
N1768 N 0.44927 0.24463 0.04809 0.0
C1769 C 0.47323 0.24842 0.06362 0.0
C1770 C 0.52281 0.26104 0.06255 0.0
C1771 C 0.99193 0.26381 0.34405 0.0
C1772 C 0.99382 0.29249 0.32892 0.0
C1773 C 1.00355 0.21529 0.34335 0.0
C1774 C 0.02012 0.19406 0.32773 0.0
H1775 H 0.9815 0.27881 0.35662 0.0
H1776 H 0.99987 0.19442 0.35527 0.0
S1777 S 0.0324 0.25361 0.28444 0.0
N1778 N 0.01079 0.29587 0.29756 0.0
N1779 N 0.03915 0.2053 0.29682 0.0
C1780 C 0.02304 0.22231 0.3125 0.0
C1781 C 0.00876 0.2715 0.313 0.0
C1782 C 0.03997 0.7609 0.58909 0.0
C1783 C 0.04617 0.81027 0.58574 0.0
C1784 C 0.99438 0.74231 0.59204 0.0
C1785 C 0.95387 0.77269 0.59189 0.0
H1786 H 0.07043 0.7362 0.58886 0.0
H1787 H 0.99059 0.70362 0.59342 0.0
S1788 S 0.95227 0.90556 0.58718 0.0
N1789 N 0.00953 0.89006 0.5847 0.0
N1790 N 0.92287 0.85485 0.59075 0.0
C1791 C 0.95995 0.82263 0.59011 0.0
C1792 C 0.00654 0.84159 0.58696 0.0
C1793 C 0.506 0.77063 0.84313 0.0
C1794 C 0.53765 0.80956 0.84146 0.0
C1795 C 0.52238 0.72399 0.84052 0.0
C1796 C 0.5707 0.71513 0.836 0.0
H1797 H 0.46783 0.77637 0.84553 0.0
H1798 H 0.4967 0.69473 0.84144 0.0
S1799 S 0.66897 0.80436 0.83284 0.0
N1800 N 0.62014 0.83662 0.83724 0.0
N1801 N 0.65122 0.74759 0.832 0.0
C1802 C 0.6035 0.75326 0.83554 0.0
C1803 C 0.58677 0.80104 0.83827 0.0
C1804 C 0.54406 0.80608 0.46585 0.0
C1805 C 0.55081 0.762 0.45703 0.0
C1806 C 0.49766 0.82353 0.46927 0.0
C1807 C 0.45717 0.79685 0.46417 0.0
H1808 H 0.57479 0.82757 0.46981 0.0
H1809 H 0.49332 0.85816 0.47569 0.0
S1810 S 0.4557 0.68032 0.44025 0.0
N1811 N 0.51346 0.69231 0.44319 0.0
N1812 N 0.42608 0.72574 0.44931 0.0
C1813 C 0.46343 0.75288 0.45531 0.0
C1814 C 0.51043 0.73523 0.4518 0.0
C1815 C 0.53459 0.21703 0.71036 0.0
C1816 C 0.53272 0.19223 0.69425 0.0
C1817 C 0.55473 0.26259 0.71152 0.0
C1818 C 0.57194 0.28592 0.69651 0.0
H1819 H 0.51843 0.20232 0.7221 0.0
H1820 H 0.55444 0.28075 0.72413 0.0
S1821 S 0.57937 0.23536 0.65143 0.0
N1822 N 0.55559 0.19195 0.66335 0.0
N1823 N 0.58815 0.28063 0.66514 0.0
C1824 C 0.57219 0.2611 0.68041 0.0
C1825 C 0.55352 0.21361 0.67936 0.0
C1826 C 0.96198 0.22601 0.90718 0.0
C1827 C 0.95525 0.27607 0.90897 0.0
C1828 C 0.00791 0.20609 0.90856 0.0
C1829 C 0.04805 0.23614 0.91076 0.0
H1830 H 0.93135 0.20185 0.90726 0.0
H1831 H 0.01083 0.16739 0.91011 0.0
S1832 S 0.05069 0.36907 0.90646 0.0
N1833 N 0.99284 0.35522 0.90707 0.0
N1834 N 0.08003 0.31717 0.90721 0.0
C1835 C 0.04244 0.28588 0.90786 0.0
C1836 C 0.9955 0.3063 0.90748 0.0
C1837 C 0.00436 0.74235 0.19179 0.0
C1838 C 0.0343 0.70252 0.19489 0.0
C1839 C 0.02082 0.78848 0.19521 0.0
C1840 C 0.06761 0.7957 0.20175 0.0
H1841 H 0.96761 0.73766 0.18719 0.0
H1842 H 0.99686 0.81876 0.19271 0.0
S1843 S 0.16076 0.70294 0.21056 0.0
N1844 N 0.11306 0.67233 0.20389 0.0
N1845 N 0.14471 0.76041 0.2101 0.0
C1846 C 0.09855 0.75634 0.20427 0.0
C1847 C 0.08157 0.70916 0.20094 0.0
C1848 C 0.46739 0.72263 0.93009 0.0
C1849 C 0.43302 0.75869 0.93354 0.0
C1850 C 0.51614 0.73333 0.9305 0.0
C1851 C 0.53102 0.78029 0.93424 0.0
H1852 H 0.45649 0.68577 0.92756 0.0
H1853 H 0.54228 0.70493 0.928 0.0
S1854 S 0.45465 0.88718 0.94356 0.0
N1855 N 0.41616 0.84268 0.94037 0.0
N1856 N 0.50897 0.8633 0.94106 0.0
C1857 C 0.49705 0.81689 0.93734 0.0
C1858 C 0.44743 0.80589 0.93704 0.0
C1859 C 0.05079 0.75356 0.6882 0.0
C1860 C 0.02497 0.71045 0.68754 0.0
C1861 C 0.02626 0.7974 0.6887 0.0
C1862 C 0.97544 0.79891 0.68866 0.0
H1863 H 0.08981 0.75327 0.68924 0.0
H1864 H 0.04709 0.83027 0.68974 0.0
S1865 S 0.89234 0.69563 0.68442 0.0
N1866 N 0.94688 0.67133 0.6846 0.0
N1867 N 0.90047 0.75439 0.68612 0.0
C1868 C 0.94946 0.75618 0.68674 0.0
C1869 C 0.97441 0.71159 0.68607 0.0
C1870 C 0.96982 0.28178 0.4512 0.0
C1871 C 0.95476 0.23465 0.44772 0.0
C1872 C 0.01872 0.29259 0.45134 0.0
C1873 C 0.05295 0.25626 0.44819 0.0
H1874 H 0.94368 0.31046 0.45323 0.0
H1875 H 0.02989 0.32953 0.4535 0.0
S1876 S 0.03106 0.12718 0.43944 0.0
N1877 N 0.97675 0.1512 0.44182 0.0
N1878 N 0.06959 0.17188 0.44212 0.0
C1879 C 0.03841 0.20883 0.44527 0.0
C1880 C 0.98873 0.19787 0.44502 0.0
C1881 C 0.5853 0.2352 0.2079 0.0
C1882 C 0.59355 0.21059 0.19207 0.0
C1883 C 0.5648 0.28102 0.2079 0.0
C1884 C 0.55345 0.30413 0.19203 0.0
H1885 H 0.59057 0.21719 0.22038 0.0
H1886 H 0.55452 0.29664 0.22039 0.0
S1887 S 0.57988 0.26001 0.14709 0.0
N1888 N 0.59557 0.21514 0.16013 0.0
N1889 N 0.56157 0.30379 0.16022 0.0
C1890 C 0.56775 0.28263 0.17615 0.0
C1891 C 0.58703 0.23519 0.17613 0.0
C1892 C 0.50864 0.2229 0.60091 0.0
C1893 C 0.54977 0.25151 0.60293 0.0
C1894 C 0.46325 0.24419 0.60003 0.0
C1895 C 0.45807 0.29462 0.60081 0.0
H1896 H 0.5117 0.18453 0.59842 0.0
H1897 H 0.4324 0.22137 0.59742 0.0
S1898 S 0.55348 0.38347 0.61071 0.0
N1899 N 0.58187 0.33102 0.60976 0.0
N1900 N 0.49602 0.37165 0.60692 0.0
C1901 C 0.49807 0.32297 0.60498 0.0
C1902 C 0.54427 0.30113 0.60632 0.0
C1903 C 0.59014 0.76074 0.33786 0.0
C1904 C 0.58863 0.78808 0.32235 0.0
C1905 C 0.57014 0.71495 0.3384 0.0
C1906 C 0.5466 0.6958 0.32364 0.0
H1907 H 0.60274 0.77608 0.3501 0.0
H1908 H 0.5701 0.69595 0.3508 0.0
S1909 S 0.54294 0.74873 0.27893 0.0
N1910 N 0.57238 0.78844 0.29097 0.0
N1911 N 0.52913 0.70447 0.29241 0.0
C1912 C 0.54942 0.72052 0.30759 0.0
C1913 C 0.57194 0.76623 0.30686 0.0
C1914 C 0.0433 0.81981 0.08112 0.0
C1915 C 0.0494 0.77195 0.08674 0.0
C1916 C 0.99729 0.84026 0.08022 0.0
C1917 C 0.95701 0.81297 0.08488 0.0
H1918 H 0.07409 0.84099 0.07709 0.0
H1919 H 0.99297 0.8767 0.07535 0.0
S1920 S 0.95424 0.68685 0.10064 0.0
N1921 N 0.01188 0.69821 0.09717 0.0
N1922 N 0.9252 0.73718 0.09574 0.0
C1923 C 0.96277 0.76575 0.09102 0.0
C1924 C 0.00926 0.74498 0.09189 0.0
C1925 C 0.10264 0.24338 0.82066 0.0
C1926 C 0.07533 0.28398 0.82518 0.0
C1927 C 0.08564 0.19762 0.82473 0.0
C1928 C 0.04131 0.19207 0.83344 0.0
H1929 H 0.13607 0.24703 0.81344 0.0
H1930 H 0.10605 0.16639 0.8204 0.0
S1931 S 0.96029 0.28876 0.84992 0.0
N1932 N 0.00542 0.31712 0.84041 0.0
N1933 N 0.97253 0.2308 0.84764 0.0
C1934 C 0.01546 0.2328 0.83902 0.0
C1935 C 0.03277 0.27908 0.83495 0.0
loop_
_geom_bond_atom_site_label_1
_geom_bond_atom_site_label_2
_geom_bond_distance
_geom_bond_site_symmetry_2
_ccdc_geom_bond_type
C0 C1 1.351 . S
C0 N3 1.368 . S
C0 H5 0.931 . S
C1 C0 1.351 . S
C1 N2 1.373 . S
C1 H29 0.930 . S
N2 C1 1.373 . S
N2 C4 1.340 . S
N3 C0 1.368 . S
N3 C4 1.321 . S
N3 Co6 2.135 . S
C4 N2 1.340 . S
C4 N3 1.321 . S
C4 H28 0.930 . S
H5 C0 0.931 . S
Co6 N3 2.135 . S
Co6 N9 2.121 . S
Co6 O14 2.055 . S
Co6 O17 2.039 . S
Co6 N20 2.140 . S
C7 O8 1.227 . S
C7 O17 1.265 . S
O8 C7 1.227 . S
N9 Co6 2.121 . S
N9 C11 1.375 . S
N9 C12 1.313 . S
C10 C11 1.338 . S
C10 N13 1.377 . S
C10 H30 0.930 . S
C11 N9 1.375 . S
C11 C10 1.338 . S
C11 H15 0.931 . S
C12 N9 1.313 . S
C12 N13 1.344 . S
C12 H16 0.930 . S
N13 C10 1.377 . S
N13 C12 1.344 . S
O14 Co6 2.055 . S
O14 C18 1.253 . S
H15 C11 0.931 . S
H16 C12 0.930 . S
O17 Co6 2.039 . S
O17 C7 1.265 . S
C18 O14 1.253 . S
C18 O19 1.227 . S
O19 C18 1.227 . S
N20 Co6 2.140 . S
N20 C23 1.346 . S
N20 C24 1.345 . S
C21 C22 1.387 . S
C21 C25 1.391 . S
C22 C21 1.387 . S
C22 C23 1.369 . S
C22 H31 0.929 . S
C23 N20 1.346 . S
C23 C22 1.369 . S
C23 H26 0.928 . S
C24 N20 1.345 . S
C24 C25 1.371 . S
C24 H27 0.931 . S
C25 C21 1.391 . S
C25 C24 1.371 . S
C25 H32 0.930 . S
H26 C23 0.928 . S
H27 C24 0.931 . S
H28 C4 0.930 . S
H29 C1 0.930 . S
H30 C10 0.930 . S
H31 C22 0.929 . S
H32 C25 0.930 . S
C33 C34 1.351 . S
C33 N36 1.368 . S
C33 H38 0.931 . S
C34 C33 1.351 . S
C34 N35 1.373 . S
C34 H62 0.930 . S
N35 C34 1.373 . S
N35 C37 1.340 . S
N36 C33 1.368 . S
N36 C37 1.321 . S
N36 Co39 2.135 1_655 S
C37 N35 1.340 . S
C37 N36 1.321 . S
C37 H61 0.930 . S
H38 C33 0.931 . S
Co39 N36 2.135 1_455 S
Co39 N42 2.121 1_565 S
Co39 O47 2.055 . S
Co39 O50 2.039 . S
Co39 N53 2.140 1_565 S
C40 O41 1.227 1_565 S
C40 O50 1.265 . S
O41 C40 1.227 1_545 S
N42 Co39 2.121 1_545 S
N42 C44 1.375 . S
N42 C45 1.313 1_545 S
C43 C44 1.338 . S
C43 N46 1.377 . S
C43 H63 0.930 . S
C44 N42 1.375 . S
C44 C43 1.338 . S
C44 H48 0.931 . S
C45 N42 1.313 1_565 S
C45 N46 1.344 1_565 S
C45 H49 0.930 . S
N46 C43 1.377 . S
N46 C45 1.344 1_545 S
O47 Co39 2.055 . S
O47 C51 1.253 . S
H48 C44 0.931 . S
H49 C45 0.930 . S
O50 Co39 2.039 . S
O50 C40 1.265 . S
C51 O47 1.253 . S
C51 O52 1.227 . S
O52 C51 1.227 . S
N53 Co39 2.140 1_545 S
N53 C56 1.357 . S
N53 C57 1.345 . S
C54 C55 1.387 1_455 S
C54 C58 1.391 . S
C55 C54 1.387 1_655 S
C55 C56 1.367 1_655 S
C55 H64 0.929 . S
C56 N53 1.357 . S
C56 C55 1.367 1_455 S
C56 H59 0.919 1_455 S
C57 N53 1.345 . S
C57 C58 1.371 . S
C57 H60 0.931 . S
C58 C54 1.391 . S
C58 C57 1.371 . S
C58 H65 0.930 . S
H59 C56 0.919 1_655 S
H60 C57 0.931 . S
H61 C37 0.930 . S
H62 C34 0.930 . S
H63 C43 0.930 . S
H64 C55 0.929 . S
H65 C58 0.930 . S
C66 C67 1.351 . S
C66 N69 1.368 . S
C66 H71 0.931 . S
C67 C66 1.351 . S
C67 N68 1.373 . S
C67 H95 0.930 . S
N68 C67 1.373 . S
N68 C70 1.340 . S
N69 C66 1.368 . S
N69 C70 1.321 . S
N69 Co72 2.135 . S
C70 N68 1.340 . S
C70 N69 1.321 . S
C70 H94 0.930 . S
H71 C66 0.931 . S
Co72 N69 2.135 . S
Co72 N75 2.121 . S
Co72 O80 2.055 . S
Co72 O83 2.039 . S
Co72 N86 2.140 . S
C73 O74 1.227 . S
C73 O83 1.265 . S
O74 C73 1.227 . S
N75 Co72 2.121 . S
N75 C77 1.375 . S
N75 C78 1.313 . S
C76 C77 1.338 . S
C76 N79 1.377 . S
C76 H96 0.930 . S
C77 N75 1.375 . S
C77 C76 1.338 . S
C77 H81 0.931 . S
C78 N75 1.313 . S
C78 N79 1.344 . S
C78 H82 0.930 . S
N79 C76 1.377 . S
N79 C78 1.344 . S
O80 Co72 2.055 . S
O80 C84 1.253 . S
H81 C77 0.931 . S
H82 C78 0.930 . S
O83 Co72 2.039 . S
O83 C73 1.265 . S
C84 O80 1.253 . S
C84 O85 1.227 . S
O85 C84 1.227 . S
N86 Co72 2.140 . S
N86 C89 1.346 . S
N86 C90 1.345 . S
C87 C88 1.387 . S
C87 C91 1.391 . S
C88 C87 1.387 . S
C88 C89 1.369 . S
C88 H97 0.929 . S
C89 N86 1.346 . S
C89 C88 1.369 . S
C89 H92 0.928 . S
C90 N86 1.345 . S
C90 C91 1.371 . S
C90 H93 0.931 . S
C91 C87 1.391 . S
C91 C90 1.371 . S
C91 H98 0.930 . S
H92 C89 0.928 . S
H93 C90 0.931 . S
H94 C70 0.930 . S
H95 C67 0.930 . S
H96 C76 0.930 . S
H97 C88 0.929 . S
H98 C91 0.930 . S
C99 C100 1.351 . S
C99 N102 1.368 . S
C99 H104 0.931 . S
C100 C99 1.351 . S
C100 N101 1.373 . S
C100 H128 0.930 . S
N101 C100 1.373 . S
N101 C103 1.340 . S
N102 C99 1.368 . S
N102 C103 1.321 . S
N102 Co105 2.135 . S
C103 N101 1.340 . S
C103 N102 1.321 . S
C103 H127 0.930 . S
H104 C99 0.931 . S
Co105 N102 2.135 . S
Co105 N108 2.121 1_545 S
Co105 O113 2.055 . S
Co105 O116 2.039 . S
Co105 N119 2.140 1_545 S
C106 O107 1.227 1_545 S
C106 O116 1.265 . S
O107 C106 1.227 1_565 S
N108 Co105 2.121 1_565 S
N108 C110 1.375 . S
N108 C111 1.313 1_565 S
C109 C110 1.338 . S
C109 N112 1.377 . S
C109 H129 0.930 . S
C110 N108 1.375 . S
C110 C109 1.338 . S
C110 H114 0.931 . S
C111 N108 1.313 1_545 S
C111 N112 1.344 1_545 S
C111 H115 0.930 . S
N112 C109 1.377 . S
N112 C111 1.344 1_565 S
O113 Co105 2.055 . S
O113 C117 1.253 . S
H114 C110 0.931 . S
H115 C111 0.930 . S
O116 Co105 2.039 . S
O116 C106 1.265 . S
C117 O113 1.253 . S
C117 O118 1.227 . S
O118 C117 1.227 . S
N119 Co105 2.140 1_565 S
N119 C122 1.346 . S
N119 C123 1.345 . S
C120 C121 1.387 . S
C120 C124 1.391 . S
C121 C120 1.387 . S
C121 C122 1.369 . S
C121 H130 0.929 . S
C122 N119 1.346 . S
C122 C121 1.369 . S
C122 H125 0.928 . S
C123 N119 1.345 . S
C123 C124 1.371 . S
C123 H126 0.931 . S
C124 C120 1.391 . S
C124 C123 1.371 . S
C124 H131 0.930 . S
H125 C122 0.928 . S
H126 C123 0.931 . S
H127 C103 0.930 . S
H128 C100 0.930 . S
H129 C109 0.930 . S
H130 C121 0.929 . S
H131 C124 0.930 . S
C132 C133 1.351 . S
C132 N135 1.368 . S
C132 H137 0.931 . S
C133 C132 1.351 . S
C133 N134 1.373 . S
C133 H161 0.930 . S
N134 C133 1.373 . S
N134 C136 1.340 . S
N135 C132 1.368 . S
N135 C136 1.321 . S
N135 Co138 2.135 . S
C136 N134 1.340 . S
C136 N135 1.321 . S
C136 H160 0.930 . S
H137 C132 0.931 . S
Co138 N135 2.135 . S
Co138 N141 2.121 . S
Co138 O146 2.055 . S
Co138 O149 2.039 . S
Co138 N152 2.140 . S
C139 O140 1.227 . S
C139 O149 1.265 . S
O140 C139 1.227 . S
N141 Co138 2.121 . S
N141 C143 1.375 . S
N141 C144 1.313 . S
C142 C143 1.338 . S
C142 N145 1.377 . S
C142 H162 0.930 . S
C143 N141 1.375 . S
C143 C142 1.338 . S
C143 H147 0.931 . S
C144 N141 1.313 . S
C144 N145 1.344 . S
C144 H148 0.930 . S
N145 C142 1.377 . S
N145 C144 1.344 . S
O146 Co138 2.055 . S
O146 C150 1.253 . S
H147 C143 0.931 . S
H148 C144 0.930 . S
O149 Co138 2.039 . S
O149 C139 1.265 . S
C150 O146 1.253 . S
C150 O151 1.227 . S
O151 C150 1.227 . S
N152 Co138 2.140 . S
N152 C155 1.346 . S
N152 C156 1.345 . S
C153 C154 1.387 . S
C153 C157 1.391 . S
C154 C153 1.387 . S
C154 C155 1.369 . S
C154 H163 0.929 . S
C155 N152 1.346 . S
C155 C154 1.369 . S
C155 H158 0.928 . S
C156 N152 1.345 . S
C156 C157 1.371 . S
C156 H159 0.931 . S
C157 C153 1.391 . S
C157 C156 1.371 . S
C157 H164 0.930 . S
H158 C155 0.928 . S
H159 C156 0.931 . S
H160 C136 0.930 . S
H161 C133 0.930 . S
H162 C142 0.930 . S
H163 C154 0.929 . S
H164 C157 0.930 . S
C165 C166 1.351 . S
C165 N168 1.368 . S
C165 H170 0.931 . S
C166 C165 1.351 . S
C166 N167 1.373 . S
C166 H194 0.930 . S
N167 C166 1.373 . S
N167 C169 1.340 . S
N168 C165 1.368 . S
N168 C169 1.321 . S
N168 Co171 2.135 . S
C169 N167 1.340 . S
C169 N168 1.321 . S
C169 H193 0.930 . S
H170 C165 0.931 . S
Co171 N168 2.135 . S
Co171 N174 2.121 1_565 S
Co171 O179 2.055 . S
Co171 O182 2.039 . S
Co171 N185 2.140 1_565 S
C172 O173 1.227 1_565 S
C172 O182 1.265 . S
O173 C172 1.227 1_545 S
N174 Co171 2.121 1_545 S
N174 C176 1.375 . S
N174 C177 1.313 1_545 S
C175 C176 1.338 . S
C175 N178 1.377 . S
C175 H195 0.930 . S
C176 N174 1.375 . S
C176 C175 1.338 . S
C176 H180 0.931 . S
C177 N174 1.313 1_565 S
C177 N178 1.344 1_565 S
C177 H181 0.930 . S
N178 C175 1.377 . S
N178 C177 1.344 1_545 S
O179 Co171 2.055 . S
O179 C183 1.253 . S
H180 C176 0.931 . S
H181 C177 0.930 . S
O182 Co171 2.039 . S
O182 C172 1.265 . S
C183 O179 1.253 . S
C183 O184 1.227 . S
O184 C183 1.227 . S
N185 Co171 2.140 1_545 S
N185 C188 1.346 . S
N185 C189 1.345 . S
C186 C187 1.387 . S
C186 C190 1.391 . S
C187 C186 1.387 . S
C187 C188 1.369 . S
C187 H196 0.929 . S
C188 N185 1.346 . S
C188 C187 1.369 . S
C188 H191 0.928 . S
C189 N185 1.345 . S
C189 C190 1.371 . S
C189 H192 0.931 . S
C190 C186 1.391 . S
C190 C189 1.371 . S
C190 H197 0.930 . S
H191 C188 0.928 . S
H192 C189 0.931 . S
H193 C169 0.930 . S
H194 C166 0.930 . S
H195 C175 0.930 . S
H196 C187 0.929 . S
H197 C190 0.930 . S
C198 C199 1.351 . S
C198 N201 1.368 . S
C198 H203 0.931 . S
C199 C198 1.351 . S
C199 N200 1.373 . S
C199 H227 0.930 . S
N200 C199 1.373 . S
N200 C202 1.340 . S
N201 C198 1.368 . S
N201 C202 1.321 . S
N201 Co204 2.135 . S
C202 N200 1.340 . S
C202 N201 1.321 . S
C202 H226 0.930 . S
H203 C198 0.931 . S
Co204 N201 2.135 . S
Co204 N207 2.121 . S
Co204 O212 2.055 . S
Co204 O215 2.039 . S
Co204 N218 2.140 . S
C205 O206 1.227 . S
C205 O215 1.265 . S
O206 C205 1.227 . S
N207 Co204 2.121 . S
N207 C209 1.375 . S
N207 C210 1.313 . S
C208 C209 1.338 . S
C208 N211 1.377 . S
C208 H228 0.930 . S
C209 N207 1.375 . S
C209 C208 1.338 . S
C209 H213 0.931 . S
C210 N207 1.313 . S
C210 N211 1.344 . S
C210 H214 0.930 . S
N211 C208 1.377 . S
N211 C210 1.344 . S
O212 Co204 2.055 . S
O212 C216 1.253 . S
H213 C209 0.931 . S
H214 C210 0.930 . S
O215 Co204 2.039 . S
O215 C205 1.265 . S
C216 O212 1.253 . S
C216 O217 1.227 . S
O217 C216 1.227 . S
N218 Co204 2.140 . S
N218 C221 1.346 . S
N218 C222 1.345 . S
C219 C220 1.387 . S
C219 C223 1.391 . S
C220 C219 1.387 . S
C220 C221 1.369 . S
C220 H229 0.929 . S
C221 N218 1.346 . S
C221 C220 1.369 . S
C221 H224 0.928 . S
C222 N218 1.345 . S
C222 C223 1.371 . S
C222 H225 0.931 . S
C223 C219 1.391 . S
C223 C222 1.371 . S
C223 H230 0.930 . S
H224 C221 0.928 . S
H225 C222 0.931 . S
H226 C202 0.930 . S
H227 C199 0.930 . S
H228 C208 0.930 . S
H229 C220 0.929 . S
H230 C223 0.930 . S
C231 C232 1.351 . S
C231 N234 1.368 . S
C231 H236 0.931 . S
C232 C231 1.351 . S
C232 N233 1.373 . S
C232 H260 0.930 . S
N233 C232 1.373 . S
N233 C235 1.340 . S
N234 C231 1.368 . S
N234 C235 1.321 . S
N234 Co237 2.135 1_655 S
C235 N233 1.340 . S
C235 N234 1.321 . S
C235 H259 0.930 . S
H236 C231 0.931 . S
Co237 N234 2.135 1_455 S
Co237 N240 2.121 1_545 S
Co237 O245 2.055 . S
Co237 O248 2.039 . S
Co237 N251 2.140 1_545 S
C238 O239 1.227 1_545 S
C238 O248 1.265 . S
O239 C238 1.227 1_565 S
N240 Co237 2.121 1_565 S
N240 C242 1.375 . S
N240 C243 1.313 1_565 S
C241 C242 1.338 . S
C241 N244 1.377 . S
C241 H261 0.930 . S
C242 N240 1.375 . S
C242 C241 1.338 . S
C242 H246 0.931 . S
C243 N240 1.313 1_545 S
C243 N244 1.344 1_545 S
C243 H247 0.930 . S
N244 C241 1.377 . S
N244 C243 1.344 1_565 S
O245 Co237 2.055 . S
O245 C249 1.253 . S
H246 C242 0.931 . S
H247 C243 0.930 . S
O248 Co237 2.039 . S
O248 C238 1.265 . S
C249 O245 1.253 . S
C249 O250 1.227 . S
O250 C249 1.227 . S
N251 Co237 2.140 1_565 S
N251 C254 1.357 . S
N251 C255 1.345 . S
C252 C253 1.387 1_455 S
C252 C256 1.391 . S
C253 C252 1.387 1_655 S
C253 C254 1.367 1_655 S
C253 H262 0.929 . S
C254 N251 1.357 . S
C254 C253 1.367 1_455 S
C254 H257 0.919 1_455 S
C255 N251 1.345 . S
C255 C256 1.371 . S
C255 H258 0.931 . S
C256 C252 1.391 . S
C256 C255 1.371 . S
C256 H263 0.930 . S
H257 C254 0.919 1_655 S
H258 C255 0.931 . S
H259 C235 0.930 . S
H260 C232 0.930 . S
H261 C241 0.930 . S
H262 C253 0.929 . S
H263 C256 0.930 . S
C264 C265 1.351 . S
C264 N267 1.368 . S
C264 H269 0.931 . S
C265 C264 1.351 . S
C265 N266 1.373 . S
C265 H293 0.930 . S
N266 C265 1.373 . S
N266 C268 1.340 . S
N267 C264 1.368 . S
N267 C268 1.321 . S
N267 Co270 2.135 . S
C268 N266 1.340 . S
C268 N267 1.321 . S
C268 H292 0.930 . S
H269 C264 0.931 . S
Co270 N267 2.135 . S
Co270 N273 2.121 . S
Co270 O278 2.055 . S
Co270 O281 2.039 . S
Co270 N284 2.140 . S
C271 O272 1.227 . S
C271 O281 1.265 . S
O272 C271 1.227 . S
N273 Co270 2.121 . S
N273 C275 1.375 . S
N273 C276 1.313 . S
C274 C275 1.338 . S
C274 N277 1.377 . S
C274 H294 0.930 . S
C275 N273 1.375 . S
C275 C274 1.338 . S
C275 H279 0.931 . S
C276 N273 1.313 . S
C276 N277 1.344 . S
C276 H280 0.930 . S
N277 C274 1.377 . S
N277 C276 1.344 . S
O278 Co270 2.055 . S
O278 C282 1.253 . S
H279 C275 0.931 . S
H280 C276 0.930 . S
O281 Co270 2.039 . S
O281 C271 1.265 . S
C282 O278 1.253 . S
C282 O283 1.227 . S
O283 C282 1.227 . S
N284 Co270 2.140 . S
N284 C287 1.346 . S
N284 C288 1.345 . S
C285 C286 1.387 . S
C285 C289 1.391 . S
C286 C285 1.387 . S
C286 C287 1.369 . S
C286 H295 0.929 . S
C287 N284 1.346 . S
C287 C286 1.369 . S
C287 H290 0.928 . S
C288 N284 1.345 . S
C288 C289 1.371 . S
C288 H291 0.931 . S
C289 C285 1.391 . S
C289 C288 1.371 . S
C289 H296 0.930 . S
H290 C287 0.928 . S
H291 C288 0.931 . S
H292 C268 0.930 . S
H293 C265 0.930 . S
H294 C274 0.930 . S
H295 C286 0.929 . S
H296 C289 0.930 . S
C297 C298 1.351 . S
C297 N300 1.368 . S
C297 H302 0.931 . S
C298 C297 1.351 . S
C298 N299 1.373 . S
C298 H326 0.930 . S
N299 C298 1.373 . S
N299 C301 1.340 . S
N300 C297 1.368 . S
N300 C301 1.321 . S
N300 Co303 2.135 1_455 S
C301 N299 1.340 . S
C301 N300 1.321 . S
C301 H325 0.930 . S
H302 C297 0.931 . S
Co303 N300 2.135 1_655 S
Co303 N306 2.121 1_545 S
Co303 O311 2.055 . S
Co303 O314 2.039 . S
Co303 N317 2.140 1_545 S
C304 O305 1.227 1_545 S
C304 O314 1.265 . S
O305 C304 1.227 1_565 S
N306 Co303 2.121 1_565 S
N306 C308 1.375 . S
N306 C309 1.313 1_565 S
C307 C308 1.338 . S
C307 N310 1.377 . S
C307 H327 0.930 . S
C308 N306 1.375 . S
C308 C307 1.338 . S
C308 H312 0.931 . S
C309 N306 1.313 1_545 S
C309 N310 1.344 1_545 S
C309 H313 0.930 . S
N310 C307 1.377 . S
N310 C309 1.344 1_565 S
O311 Co303 2.055 . S
O311 C315 1.253 . S
H312 C308 0.931 . S
H313 C309 0.930 . S
O314 Co303 2.039 . S
O314 C304 1.265 . S
C315 O311 1.253 . S
C315 O316 1.227 . S
O316 C315 1.227 . S
N317 Co303 2.140 1_565 S
N317 C320 1.357 . S
N317 C321 1.345 . S
C318 C319 1.387 1_655 S
C318 C322 1.391 . S
C319 C318 1.387 1_455 S
C319 C320 1.367 1_455 S
C319 H328 0.929 . S
C320 N317 1.357 . S
C320 C319 1.367 1_655 S
C320 H323 0.919 1_655 S
C321 N317 1.345 . S
C321 C322 1.371 . S
C321 H324 0.931 . S
C322 C318 1.391 . S
C322 C321 1.371 . S
C322 H329 0.930 . S
H323 C320 0.919 1_455 S
H324 C321 0.931 . S
H325 C301 0.930 . S
H326 C298 0.930 . S
H327 C307 0.930 . S
H328 C319 0.929 . S
H329 C322 0.930 . S
C330 C331 1.351 . S
C330 N333 1.368 . S
C330 H335 0.931 . S
C331 C330 1.351 . S
C331 N332 1.373 . S
C331 H359 0.930 . S
N332 C331 1.373 . S
N332 C334 1.340 . S
N333 C330 1.368 . S
N333 C334 1.321 . S
N333 Co336 2.135 . S
C334 N332 1.340 . S
C334 N333 1.321 . S
C334 H358 0.930 . S
H335 C330 0.931 . S
Co336 N333 2.135 . S
Co336 N339 2.121 . S
Co336 O344 2.055 . S
Co336 O347 2.039 . S
Co336 N350 2.140 . S
C337 O338 1.227 . S
C337 O347 1.265 . S
O338 C337 1.227 . S
N339 Co336 2.121 . S
N339 C341 1.375 . S
N339 C342 1.313 . S
C340 C341 1.338 . S
C340 N343 1.377 . S
C340 H360 0.930 . S
C341 N339 1.375 . S
C341 C340 1.338 . S
C341 H345 0.931 . S
C342 N339 1.313 . S
C342 N343 1.344 . S
C342 H346 0.930 . S
N343 C340 1.377 . S
N343 C342 1.344 . S
O344 Co336 2.055 . S
O344 C348 1.253 . S
H345 C341 0.931 . S
H346 C342 0.930 . S
O347 Co336 2.039 . S
O347 C337 1.265 . S
C348 O344 1.253 . S
C348 O349 1.227 . S
O349 C348 1.227 . S
N350 Co336 2.140 . S
N350 C353 1.346 . S
N350 C354 1.345 . S
C351 C352 1.387 . S
C351 C355 1.391 . S
C352 C351 1.387 . S
C352 C353 1.369 . S
C352 H361 0.929 . S
C353 N350 1.346 . S
C353 C352 1.369 . S
C353 H356 0.928 . S
C354 N350 1.345 . S
C354 C355 1.371 . S
C354 H357 0.931 . S
C355 C351 1.391 . S
C355 C354 1.371 . S
C355 H362 0.930 . S
H356 C353 0.928 . S
H357 C354 0.931 . S
H358 C334 0.930 . S
H359 C331 0.930 . S
H360 C340 0.930 . S
H361 C352 0.929 . S
H362 C355 0.930 . S
C363 C364 1.351 . S
C363 N366 1.368 . S
C363 H368 0.931 . S
C364 C363 1.351 . S
C364 N365 1.373 . S
C364 H392 0.930 . S
N365 C364 1.373 . S
N365 C367 1.340 . S
N366 C363 1.368 . S
N366 C367 1.321 . S
N366 Co369 2.135 . S
C367 N365 1.340 . S
C367 N366 1.321 . S
C367 H391 0.930 . S
H368 C363 0.931 . S
Co369 N366 2.135 . S
Co369 N372 2.121 1_565 S
Co369 O377 2.055 . S
Co369 O380 2.039 . S
Co369 N383 2.140 1_565 S
C370 O371 1.227 1_565 S
C370 O380 1.265 . S
O371 C370 1.227 1_545 S
N372 Co369 2.121 1_545 S
N372 C374 1.375 . S
N372 C375 1.313 1_545 S
C373 C374 1.338 . S
C373 N376 1.377 . S
C373 H393 0.930 . S
C374 N372 1.375 . S
C374 C373 1.338 . S
C374 H378 0.931 . S
C375 N372 1.313 1_565 S
C375 N376 1.344 1_565 S
C375 H379 0.930 . S
N376 C373 1.377 . S
N376 C375 1.344 1_545 S
O377 Co369 2.055 . S
O377 C381 1.253 . S
H378 C374 0.931 . S
H379 C375 0.930 . S
O380 Co369 2.039 . S
O380 C370 1.265 . S
C381 O377 1.253 . S
C381 O382 1.227 . S
O382 C381 1.227 . S
N383 Co369 2.140 1_545 S
N383 C386 1.346 . S
N383 C387 1.345 . S
C384 C385 1.387 . S
C384 C388 1.391 . S
C385 C384 1.387 . S
C385 C386 1.369 . S
C385 H394 0.929 . S
C386 N383 1.346 . S
C386 C385 1.369 . S
C386 H389 0.928 . S
C387 N383 1.345 . S
C387 C388 1.371 . S
C387 H390 0.931 . S
C388 C384 1.391 . S
C388 C387 1.371 . S
C388 H395 0.930 . S
H389 C386 0.928 . S
H390 C387 0.931 . S
H391 C367 0.930 . S
H392 C364 0.930 . S
H393 C373 0.930 . S
H394 C385 0.929 . S
H395 C388 0.930 . S
C396 C397 1.351 . S
C396 N399 1.368 . S
C396 H401 0.931 . S
C397 C396 1.351 . S
C397 N398 1.373 . S
C397 H425 0.930 . S
N398 C397 1.373 . S
N398 C400 1.340 . S
N399 C396 1.368 . S
N399 C400 1.321 . S
N399 Co402 2.135 . S
C400 N398 1.340 . S
C400 N399 1.321 . S
C400 H424 0.930 . S
H401 C396 0.931 . S
Co402 N399 2.135 . S
Co402 N405 2.121 . S
Co402 O410 2.055 . S
Co402 O413 2.039 . S
Co402 N416 2.140 . S
C403 O404 1.227 . S
C403 O413 1.265 . S
O404 C403 1.227 . S
N405 Co402 2.121 . S
N405 C407 1.375 . S
N405 C408 1.313 . S
C406 C407 1.338 . S
C406 N409 1.377 . S
C406 H426 0.930 . S
C407 N405 1.375 . S
C407 C406 1.338 . S
C407 H411 0.931 . S
C408 N405 1.313 . S
C408 N409 1.344 . S
C408 H412 0.930 . S
N409 C406 1.377 . S
N409 C408 1.344 . S
O410 Co402 2.055 . S
O410 C414 1.253 . S
H411 C407 0.931 . S
H412 C408 0.930 . S
O413 Co402 2.039 . S
O413 C403 1.265 . S
C414 O410 1.253 . S
C414 O415 1.227 . S
O415 C414 1.227 . S
N416 Co402 2.140 . S
N416 C419 1.346 . S
N416 C420 1.345 . S
C417 C418 1.387 . S
C417 C421 1.391 . S
C418 C417 1.387 . S
C418 C419 1.369 . S
C418 H427 0.929 . S
C419 N416 1.346 . S
C419 C418 1.369 . S
C419 H422 0.928 . S
C420 N416 1.345 . S
C420 C421 1.371 . S
C420 H423 0.931 . S
C421 C417 1.391 . S
C421 C420 1.371 . S
C421 H428 0.930 . S
H422 C419 0.928 . S
H423 C420 0.931 . S
H424 C400 0.930 . S
H425 C397 0.930 . S
H426 C406 0.930 . S
H427 C418 0.929 . S
H428 C421 0.930 . S
C429 C430 1.351 . S
C429 N432 1.368 . S
C429 H434 0.931 . S
C430 C429 1.351 . S
C430 N431 1.373 . S
C430 H458 0.930 . S
N431 C430 1.373 . S
N431 C433 1.340 . S
N432 C429 1.368 . S
N432 C433 1.321 . S
N432 Co435 2.135 . S
C433 N431 1.340 . S
C433 N432 1.321 . S
C433 H457 0.930 . S
H434 C429 0.931 . S
Co435 N432 2.135 . S
Co435 N438 2.121 1_545 S
Co435 O443 2.055 . S
Co435 O446 2.039 . S
Co435 N449 2.140 1_545 S
C436 O437 1.227 1_545 S
C436 O446 1.265 . S
O437 C436 1.227 1_565 S
N438 Co435 2.121 1_565 S
N438 C440 1.375 . S
N438 C441 1.313 1_565 S
C439 C440 1.338 . S
C439 N442 1.377 . S
C439 H459 0.930 . S
C440 N438 1.375 . S
C440 C439 1.338 . S
C440 H444 0.931 . S
C441 N438 1.313 1_545 S
C441 N442 1.344 1_545 S
C441 H445 0.930 . S
N442 C439 1.377 . S
N442 C441 1.344 1_565 S
O443 Co435 2.055 . S
O443 C447 1.253 . S
H444 C440 0.931 . S
H445 C441 0.930 . S
O446 Co435 2.039 . S
O446 C436 1.265 . S
C447 O443 1.253 . S
C447 O448 1.227 . S
O448 C447 1.227 . S
N449 Co435 2.140 1_565 S
N449 C452 1.346 . S
N449 C453 1.345 . S
C450 C451 1.387 . S
C450 C454 1.391 . S
C451 C450 1.387 . S
C451 C452 1.369 . S
C451 H460 0.929 . S
C452 N449 1.346 . S
C452 C451 1.369 . S
C452 H455 0.928 . S
C453 N449 1.345 . S
C453 C454 1.371 . S
C453 H456 0.931 . S
C454 C450 1.391 . S
C454 C453 1.371 . S
C454 H461 0.930 . S
H455 C452 0.928 . S
H456 C453 0.931 . S
H457 C433 0.930 . S
H458 C430 0.930 . S
H459 C439 0.930 . S
H460 C451 0.929 . S
H461 C454 0.930 . S
C462 C463 1.351 . S
C462 N465 1.368 . S
C462 H467 0.931 . S
C463 C462 1.351 . S
C463 N464 1.373 . S
C463 H491 0.930 . S
N464 C463 1.373 . S
N464 C466 1.340 . S
N465 C462 1.368 . S
N465 C466 1.321 . S
N465 Co468 2.135 . S
C466 N464 1.340 . S
C466 N465 1.321 . S
C466 H490 0.930 . S
H467 C462 0.931 . S
Co468 N465 2.135 . S
Co468 N471 2.121 . S
Co468 O476 2.055 . S
Co468 O479 2.039 . S
Co468 N482 2.140 . S
C469 O470 1.227 . S
C469 O479 1.265 . S
O470 C469 1.227 . S
N471 Co468 2.121 . S
N471 C473 1.375 . S
N471 C474 1.313 . S
C472 C473 1.338 . S
C472 N475 1.377 . S
C472 H492 0.930 . S
C473 N471 1.375 . S
C473 C472 1.338 . S
C473 H477 0.931 . S
C474 N471 1.313 . S
C474 N475 1.344 . S
C474 H478 0.930 . S
N475 C472 1.377 . S
N475 C474 1.344 . S
O476 Co468 2.055 . S
O476 C480 1.253 . S
H477 C473 0.931 . S
H478 C474 0.930 . S
O479 Co468 2.039 . S
O479 C469 1.265 . S
C480 O476 1.253 . S
C480 O481 1.227 . S
O481 C480 1.227 . S
N482 Co468 2.140 . S
N482 C485 1.346 . S
N482 C486 1.345 . S
C483 C484 1.387 . S
C483 C487 1.391 . S
C484 C483 1.387 . S
C484 C485 1.369 . S
C484 H493 0.929 . S
C485 N482 1.346 . S
C485 C484 1.369 . S
C485 H488 0.928 . S
C486 N482 1.345 . S
C486 C487 1.371 . S
C486 H489 0.931 . S
C487 C483 1.391 . S
C487 C486 1.371 . S
C487 H494 0.930 . S
H488 C485 0.928 . S
H489 C486 0.931 . S
H490 C466 0.930 . S
H491 C463 0.930 . S
H492 C472 0.930 . S
H493 C484 0.929 . S
H494 C487 0.930 . S
C495 C496 1.351 . S
C495 N498 1.368 . S
C495 H500 0.931 . S
C496 C495 1.351 . S
C496 N497 1.373 . S
C496 H524 0.930 . S
N497 C496 1.373 . S
N497 C499 1.340 . S
N498 C495 1.368 . S
N498 C499 1.321 . S
N498 Co501 2.135 1_455 S
C499 N497 1.340 . S
C499 N498 1.321 . S
C499 H523 0.930 . S
H500 C495 0.931 . S
Co501 N498 2.135 1_655 S
Co501 N504 2.121 1_565 S
Co501 O509 2.055 . S
Co501 O512 2.039 . S
Co501 N515 2.140 1_565 S
C502 O503 1.227 1_565 S
C502 O512 1.265 . S
O503 C502 1.227 1_545 S
N504 Co501 2.121 1_545 S
N504 C506 1.375 . S
N504 C507 1.313 1_545 S
C505 C506 1.338 . S
C505 N508 1.377 . S
C505 H525 0.930 . S
C506 N504 1.375 . S
C506 C505 1.338 . S
C506 H510 0.931 . S
C507 N504 1.313 1_565 S
C507 N508 1.344 1_565 S
C507 H511 0.930 . S
N508 C505 1.377 . S
N508 C507 1.344 1_545 S
O509 Co501 2.055 . S
O509 C513 1.253 . S
H510 C506 0.931 . S
H511 C507 0.930 . S
O512 Co501 2.039 . S
O512 C502 1.265 . S
C513 O509 1.253 . S
C513 O514 1.227 . S
O514 C513 1.227 . S
N515 Co501 2.140 1_545 S
N515 C518 1.357 . S
N515 C519 1.345 . S
C516 C517 1.387 1_655 S
C516 C520 1.391 . S
C517 C516 1.387 1_455 S
C517 C518 1.367 1_455 S
C517 H526 0.929 . S
C518 N515 1.357 . S
C518 C517 1.367 1_655 S
C518 H521 0.919 1_655 S
C519 N515 1.345 . S
C519 C520 1.371 . S
C519 H522 0.931 . S
C520 C516 1.391 . S
C520 C519 1.371 . S
C520 H527 0.930 . S
H521 C518 0.919 1_455 S
H522 C519 0.931 . S
H523 C499 0.930 . S
H524 C496 0.930 . S
H525 C505 0.930 . S
H526 C517 0.929 . S
H527 C520 0.930 . S
C528 C529 1.351 . S
C528 N531 1.368 . S
C528 H533 0.931 . S
C529 C528 1.351 . S
C529 N530 1.373 . S
C529 H557 0.930 . S
N530 C529 1.373 . S
N530 C532 1.340 . S
N531 C528 1.368 . S
N531 C532 1.321 . S
N531 Co534 2.135 . S
C532 N530 1.340 . S
C532 N531 1.321 . S
C532 H556 0.930 . S
H533 C528 0.931 . S
Co534 N531 2.135 . S
Co534 N537 2.121 . S
Co534 O542 2.055 . S
Co534 O545 2.039 . S
Co534 N548 2.140 . S
C535 O536 1.227 . S
C535 O545 1.265 . S
O536 C535 1.227 . S
N537 Co534 2.121 . S
N537 C539 1.375 . S
N537 C540 1.313 . S
C538 C539 1.338 . S
C538 N541 1.377 . S
C538 H558 0.930 . S
C539 N537 1.375 . S
C539 C538 1.338 . S
C539 H543 0.931 . S
C540 N537 1.313 . S
C540 N541 1.344 . S
C540 H544 0.930 . S
N541 C538 1.377 . S
N541 C540 1.344 . S
O542 Co534 2.055 . S
O542 C546 1.253 . S
H543 C539 0.931 . S
H544 C540 0.930 . S
O545 Co534 2.039 . S
O545 C535 1.265 . S
C546 O542 1.253 . S
C546 O547 1.227 . S
O547 C546 1.227 . S
N548 Co534 2.140 . S
N548 C551 1.346 . S
N548 C552 1.345 . S
C549 C550 1.387 . S
C549 C553 1.391 . S
C550 C549 1.387 . S
C550 C551 1.369 . S
C550 H559 0.929 . S
C551 N548 1.346 . S
C551 C550 1.369 . S
C551 H554 0.928 . S
C552 N548 1.345 . S
C552 C553 1.371 . S
C552 H555 0.931 . S
C553 C549 1.391 . S
C553 C552 1.371 . S
C553 H560 0.930 . S
H554 C551 0.928 . S
H555 C552 0.931 . S
H556 C532 0.930 . S
H557 C529 0.930 . S
H558 C538 0.930 . S
H559 C550 0.929 . S
H560 C553 0.930 . S
C561 C562 1.351 . S
C561 N564 1.368 . S
C561 H566 0.931 . S
C562 C561 1.351 . S
C562 N563 1.373 . S
C562 H590 0.930 . S
N563 C562 1.373 . S
N563 C565 1.340 . S
N564 C561 1.368 . S
N564 C565 1.321 . S
N564 Co567 2.135 . S
C565 N563 1.340 . S
C565 N564 1.321 . S
C565 H589 0.930 . S
H566 C561 0.931 . S
Co567 N564 2.135 . S
Co567 N570 2.121 . S
Co567 O575 2.055 . S
Co567 O578 2.039 . S
Co567 N581 2.140 . S
C568 O569 1.227 . S
C568 O578 1.265 . S
O569 C568 1.227 . S
N570 Co567 2.121 . S
N570 C572 1.375 . S
N570 C573 1.313 . S
C571 C572 1.338 . S
C571 N574 1.377 . S
C571 H591 0.930 . S
C572 N570 1.375 . S
C572 C571 1.338 . S
C572 H576 0.931 . S
C573 N570 1.313 . S
C573 N574 1.344 . S
C573 H577 0.930 . S
N574 C571 1.377 . S
N574 C573 1.344 . S
O575 Co567 2.055 . S
O575 C579 1.253 . S
H576 C572 0.931 . S
H577 C573 0.930 . S
O578 Co567 2.039 . S
O578 C568 1.265 . S
C579 O575 1.253 . S
C579 O580 1.227 . S
O580 C579 1.227 . S
N581 Co567 2.140 . S
N581 C584 1.346 . S
N581 C585 1.345 . S
C582 C583 1.387 . S
C582 C586 1.391 . S
C583 C582 1.387 . S
C583 C584 1.369 . S
C583 H592 0.929 . S
C584 N581 1.346 . S
C584 C583 1.369 . S
C584 H587 0.928 . S
C585 N581 1.345 . S
C585 C586 1.371 . S
C585 H588 0.931 . S
C586 C582 1.391 . S
C586 C585 1.371 . S
C586 H593 0.930 . S
H587 C584 0.928 . S
H588 C585 0.931 . S
H589 C565 0.930 . S
H590 C562 0.930 . S
H591 C571 0.930 . S
H592 C583 0.929 . S
H593 C586 0.930 . S
C594 C595 1.351 . S
C594 N597 1.368 . S
C594 H599 0.931 . S
C595 C594 1.351 . S
C595 N596 1.373 . S
C595 H623 0.930 . S
N596 C595 1.373 . S
N596 C598 1.340 . S
N597 C594 1.368 . S
N597 C598 1.321 . S
N597 Co600 2.135 . S
C598 N596 1.340 . S
C598 N597 1.321 . S
C598 H622 0.930 . S
H599 C594 0.931 . S
Co600 N597 2.135 . S
Co600 N603 2.121 . S
Co600 O608 2.055 . S
Co600 O611 2.039 . S
Co600 N614 2.140 . S
C601 O602 1.227 . S
C601 O611 1.265 . S
O602 C601 1.227 . S
N603 Co600 2.121 . S
N603 C605 1.375 . S
N603 C606 1.313 . S
C604 C605 1.338 . S
C604 N607 1.377 . S
C604 H624 0.930 . S
C605 N603 1.375 . S
C605 C604 1.338 . S
C605 H609 0.931 . S
C606 N603 1.313 . S
C606 N607 1.344 . S
C606 H610 0.930 . S
N607 C604 1.377 . S
N607 C606 1.344 . S
O608 Co600 2.055 . S
O608 C612 1.253 . S
H609 C605 0.931 . S
H610 C606 0.930 . S
O611 Co600 2.039 . S
O611 C601 1.265 . S
C612 O608 1.253 . S
C612 O613 1.227 . S
O613 C612 1.227 . S
N614 Co600 2.140 . S
N614 C617 1.346 . S
N614 C618 1.345 . S
C615 C616 1.387 . S
C615 C619 1.391 . S
C616 C615 1.387 . S
C616 C617 1.369 . S
C616 H625 0.929 . S
C617 N614 1.346 . S
C617 C616 1.369 . S
C617 H620 0.928 . S
C618 N614 1.345 . S
C618 C619 1.371 . S
C618 H621 0.931 . S
C619 C615 1.391 . S
C619 C618 1.371 . S
C619 H626 0.930 . S
H620 C617 0.928 . S
H621 C618 0.931 . S
H622 C598 0.930 . S
H623 C595 0.930 . S
H624 C604 0.930 . S
H625 C616 0.929 . S
H626 C619 0.930 . S
C627 C628 1.351 . S
C627 N630 1.368 . S
C627 H632 0.931 . S
C628 C627 1.351 . S
C628 N629 1.373 . S
C628 H656 0.930 . S
N629 C628 1.373 . S
N629 C631 1.340 . S
N630 C627 1.368 . S
N630 C631 1.321 . S
N630 Co633 2.135 1_455 S
C631 N629 1.340 . S
C631 N630 1.321 . S
C631 H655 0.930 . S
H632 C627 0.931 . S
Co633 N630 2.135 1_655 S
Co633 N636 2.121 . S
Co633 O641 2.055 . S
Co633 O644 2.039 . S
Co633 N647 2.140 . S
C634 O635 1.227 . S
C634 O644 1.265 . S
O635 C634 1.227 . S
N636 Co633 2.121 . S
N636 C638 1.375 . S
N636 C639 1.313 . S
C637 C638 1.338 . S
C637 N640 1.377 . S
C637 H657 0.930 . S
C638 N636 1.375 . S
C638 C637 1.338 . S
C638 H642 0.931 . S
C639 N636 1.313 . S
C639 N640 1.344 . S
C639 H643 0.930 . S
N640 C637 1.377 . S
N640 C639 1.344 . S
O641 Co633 2.055 . S
O641 C645 1.253 . S
H642 C638 0.931 . S
H643 C639 0.930 . S
O644 Co633 2.039 . S
O644 C634 1.265 . S
C645 O641 1.253 . S
C645 O646 1.227 . S
O646 C645 1.227 . S
N647 Co633 2.140 . S
N647 C650 1.357 . S
N647 C651 1.345 . S
C648 C649 1.387 1_655 S
C648 C652 1.391 . S
C649 C648 1.387 1_455 S
C649 C650 1.367 1_455 S
C649 H658 0.929 . S
C650 N647 1.357 . S
C650 C649 1.367 1_655 S
C650 H653 0.919 1_655 S
C651 N647 1.345 . S
C651 C652 1.371 . S
C651 H654 0.931 . S
C652 C648 1.391 . S
C652 C651 1.371 . S
C652 H659 0.930 . S
H653 C650 0.919 1_455 S
H654 C651 0.931 . S
H655 C631 0.930 . S
H656 C628 0.930 . S
H657 C637 0.930 . S
H658 C649 0.929 . S
H659 C652 0.930 . S
C660 C661 1.351 . S
C660 N663 1.368 . S
C660 H665 0.931 . S
C661 C660 1.351 . S
C661 N662 1.373 . S
C661 H689 0.930 . S
N662 C661 1.373 . S
N662 C664 1.340 . S
N663 C660 1.368 . S
N663 C664 1.321 . S
N663 Co666 2.135 . S
C664 N662 1.340 . S
C664 N663 1.321 . S
C664 H688 0.930 . S
H665 C660 0.931 . S
Co666 N663 2.135 . S
Co666 N669 2.121 . S
Co666 O674 2.055 . S
Co666 O677 2.039 . S
Co666 N680 2.140 . S
C667 O668 1.227 . S
C667 O677 1.265 . S
O668 C667 1.227 . S
N669 Co666 2.121 . S
N669 C671 1.375 . S
N669 C672 1.313 . S
C670 C671 1.338 . S
C670 N673 1.377 . S
C670 H690 0.930 . S
C671 N669 1.375 . S
C671 C670 1.338 . S
C671 H675 0.931 . S
C672 N669 1.313 . S
C672 N673 1.344 . S
C672 H676 0.930 . S
N673 C670 1.377 . S
N673 C672 1.344 . S
O674 Co666 2.055 . S
O674 C678 1.253 . S
H675 C671 0.931 . S
H676 C672 0.930 . S
O677 Co666 2.039 . S
O677 C667 1.265 . S
C678 O674 1.253 . S
C678 O679 1.227 . S
O679 C678 1.227 . S
N680 Co666 2.140 . S
N680 C683 1.346 . S
N680 C684 1.345 . S
C681 C682 1.387 . S
C681 C685 1.391 . S
C682 C681 1.387 . S
C682 C683 1.369 . S
C682 H691 0.929 . S
C683 N680 1.346 . S
C683 C682 1.369 . S
C683 H686 0.928 . S
C684 N680 1.345 . S
C684 C685 1.371 . S
C684 H687 0.931 . S
C685 C681 1.391 . S
C685 C684 1.371 . S
C685 H692 0.930 . S
H686 C683 0.928 . S
H687 C684 0.931 . S
H688 C664 0.930 . S
H689 C661 0.930 . S
H690 C670 0.930 . S
H691 C682 0.929 . S
H692 C685 0.930 . S
C693 C694 1.351 . S
C693 N696 1.368 . S
C693 H698 0.931 . S
C694 C693 1.351 . S
C694 N695 1.373 . S
C694 H722 0.930 . S
N695 C694 1.373 . S
N695 C697 1.340 . S
N696 C693 1.368 . S
N696 C697 1.321 . S
N696 Co699 2.135 1_455 S
C697 N695 1.340 . S
C697 N696 1.321 . S
C697 H721 0.930 . S
H698 C693 0.931 . S
Co699 N696 2.135 1_655 S
Co699 N702 2.121 . S
Co699 O707 2.055 . S
Co699 O710 2.039 . S
Co699 N713 2.140 . S
C700 O701 1.227 . S
C700 O710 1.265 . S
O701 C700 1.227 . S
N702 Co699 2.121 . S
N702 C704 1.375 . S
N702 C705 1.313 . S
C703 C704 1.338 . S
C703 N706 1.377 . S
C703 H723 0.930 . S
C704 N702 1.375 . S
C704 C703 1.338 . S
C704 H708 0.931 . S
C705 N702 1.313 . S
C705 N706 1.344 . S
C705 H709 0.930 . S
N706 C703 1.377 . S
N706 C705 1.344 . S
O707 Co699 2.055 . S
O707 C711 1.253 . S
H708 C704 0.931 . S
H709 C705 0.930 . S
O710 Co699 2.039 . S
O710 C700 1.265 . S
C711 O707 1.253 . S
C711 O712 1.227 . S
O712 C711 1.227 . S
N713 Co699 2.140 . S
N713 C716 1.357 . S
N713 C717 1.345 . S
C714 C715 1.387 1_655 S
C714 C718 1.391 . S
C715 C714 1.387 1_455 S
C715 C716 1.367 1_455 S
C715 H724 0.929 . S
C716 N713 1.357 . S
C716 C715 1.367 1_655 S
C716 H719 0.919 1_655 S
C717 N713 1.345 . S
C717 C718 1.371 . S
C717 H720 0.931 . S
C718 C714 1.391 . S
C718 C717 1.371 . S
C718 H725 0.930 . S
H719 C716 0.919 1_455 S
H720 C717 0.931 . S
H721 C697 0.930 . S
H722 C694 0.930 . S
H723 C703 0.930 . S
H724 C715 0.929 . S
H725 C718 0.930 . S
C726 C727 1.351 . S
C726 N729 1.368 . S
C726 H731 0.931 . S
C727 C726 1.351 . S
C727 N728 1.373 . S
C727 H755 0.930 . S
N728 C727 1.373 . S
N728 C730 1.340 . S
N729 C726 1.368 . S
N729 C730 1.321 . S
N729 Co732 2.135 . S
C730 N728 1.340 . S
C730 N729 1.321 . S
C730 H754 0.930 . S
H731 C726 0.931 . S
Co732 N729 2.135 . S
Co732 N735 2.121 . S
Co732 O740 2.055 . S
Co732 O743 2.039 . S
Co732 N746 2.140 . S
C733 O734 1.227 . S
C733 O743 1.265 . S
O734 C733 1.227 . S
N735 Co732 2.121 . S
N735 C737 1.375 . S
N735 C738 1.313 . S
C736 C737 1.338 . S
C736 N739 1.377 . S
C736 H756 0.930 . S
C737 N735 1.375 . S
C737 C736 1.338 . S
C737 H741 0.931 . S
C738 N735 1.313 . S
C738 N739 1.344 . S
C738 H742 0.930 . S
N739 C736 1.377 . S
N739 C738 1.344 . S
O740 Co732 2.055 . S
O740 C744 1.253 . S
H741 C737 0.931 . S
H742 C738 0.930 . S
O743 Co732 2.039 . S
O743 C733 1.265 . S
C744 O740 1.253 . S
C744 O745 1.227 . S
O745 C744 1.227 . S
N746 Co732 2.140 . S
N746 C749 1.346 . S
N746 C750 1.345 . S
C747 C748 1.387 . S
C747 C751 1.391 . S
C748 C747 1.387 . S
C748 C749 1.369 . S
C748 H757 0.929 . S
C749 N746 1.346 . S
C749 C748 1.369 . S
C749 H752 0.928 . S
C750 N746 1.345 . S
C750 C751 1.371 . S
C750 H753 0.931 . S
C751 C747 1.391 . S
C751 C750 1.371 . S
C751 H758 0.930 . S
H752 C749 0.928 . S
H753 C750 0.931 . S
H754 C730 0.930 . S
H755 C727 0.930 . S
H756 C736 0.930 . S
H757 C748 0.929 . S
H758 C751 0.930 . S
C759 C760 1.351 . S
C759 N762 1.368 . S
C759 H764 0.931 . S
C760 C759 1.351 . S
C760 N761 1.373 . S
C760 H788 0.930 . S
N761 C760 1.373 . S
N761 C763 1.340 . S
N762 C759 1.368 . S
N762 C763 1.321 . S
N762 Co765 2.135 . S
C763 N761 1.340 . S
C763 N762 1.321 . S
C763 H787 0.930 . S
H764 C759 0.931 . S
Co765 N762 2.135 . S
Co765 N768 2.121 . S
Co765 O773 2.055 . S
Co765 O776 2.039 . S
Co765 N779 2.140 . S
C766 O767 1.227 . S
C766 O776 1.265 . S
O767 C766 1.227 . S
N768 Co765 2.121 . S
N768 C770 1.375 . S
N768 C771 1.313 . S
C769 C770 1.338 . S
C769 N772 1.377 . S
C769 H789 0.930 . S
C770 N768 1.375 . S
C770 C769 1.338 . S
C770 H774 0.931 . S
C771 N768 1.313 . S
C771 N772 1.344 . S
C771 H775 0.930 . S
N772 C769 1.377 . S
N772 C771 1.344 . S
O773 Co765 2.055 . S
O773 C777 1.253 . S
H774 C770 0.931 . S
H775 C771 0.930 . S
O776 Co765 2.039 . S
O776 C766 1.265 . S
C777 O773 1.253 . S
C777 O778 1.227 . S
O778 C777 1.227 . S
N779 Co765 2.140 . S
N779 C782 1.346 . S
N779 C783 1.345 . S
C780 C781 1.387 . S
C780 C784 1.391 . S
C781 C780 1.387 . S
C781 C782 1.369 . S
C781 H790 0.929 . S
C782 N779 1.346 . S
C782 C781 1.369 . S
C782 H785 0.928 . S
C783 N779 1.345 . S
C783 C784 1.371 . S
C783 H786 0.931 . S
C784 C780 1.391 . S
C784 C783 1.371 . S
C784 H791 0.930 . S
H785 C782 0.928 . S
H786 C783 0.931 . S
H787 C763 0.930 . S
H788 C760 0.930 . S
H789 C769 0.930 . S
H790 C781 0.929 . S
H791 C784 0.930 . S
C792 C793 1.351 . S
C792 N795 1.368 . S
C792 H797 0.931 . S
C793 C792 1.351 . S
C793 N794 1.373 . S
C793 H821 0.930 . S
N794 C793 1.373 . S
N794 C796 1.340 . S
N795 C792 1.368 . S
N795 C796 1.321 . S
N795 Co798 2.135 . S
C796 N794 1.340 . S
C796 N795 1.321 . S
C796 H820 0.930 . S
H797 C792 0.931 . S
Co798 N795 2.135 . S
Co798 N801 2.121 . S
Co798 O806 2.055 . S
Co798 O809 2.039 . S
Co798 N812 2.140 . S
C799 O800 1.227 . S
C799 O809 1.265 . S
O800 C799 1.227 . S
N801 Co798 2.121 . S
N801 C803 1.375 . S
N801 C804 1.313 . S
C802 C803 1.338 . S
C802 N805 1.377 . S
C802 H822 0.930 . S
C803 N801 1.375 . S
C803 C802 1.338 . S
C803 H807 0.931 . S
C804 N801 1.313 . S
C804 N805 1.344 . S
C804 H808 0.930 . S
N805 C802 1.377 . S
N805 C804 1.344 . S
O806 Co798 2.055 . S
O806 C810 1.253 . S
H807 C803 0.931 . S
H808 C804 0.930 . S
O809 Co798 2.039 . S
O809 C799 1.265 . S
C810 O806 1.253 . S
C810 O811 1.227 . S
O811 C810 1.227 . S
N812 Co798 2.140 . S
N812 C815 1.346 . S
N812 C816 1.345 . S
C813 C814 1.387 . S
C813 C817 1.391 . S
C814 C813 1.387 . S
C814 C815 1.369 . S
C814 H823 0.929 . S
C815 N812 1.346 . S
C815 C814 1.369 . S
C815 H818 0.928 . S
C816 N812 1.345 . S
C816 C817 1.371 . S
C816 H819 0.931 . S
C817 C813 1.391 . S
C817 C816 1.371 . S
C817 H824 0.930 . S
H818 C815 0.928 . S
H819 C816 0.931 . S
H820 C796 0.930 . S
H821 C793 0.930 . S
H822 C802 0.930 . S
H823 C814 0.929 . S
H824 C817 0.930 . S
C825 C826 1.351 . S
C825 N828 1.368 . S
C825 H830 0.931 . S
C826 C825 1.351 . S
C826 N827 1.373 . S
C826 H854 0.930 . S
N827 C826 1.373 . S
N827 C829 1.340 . S
N828 C825 1.368 . S
N828 C829 1.321 . S
N828 Co831 2.135 . S
C829 N827 1.340 . S
C829 N828 1.321 . S
C829 H853 0.930 . S
H830 C825 0.931 . S
Co831 N828 2.135 . S
Co831 N834 2.121 . S
Co831 O839 2.055 . S
Co831 O842 2.039 . S
Co831 N845 2.140 . S
C832 O833 1.227 . S
C832 O842 1.265 . S
O833 C832 1.227 . S
N834 Co831 2.121 . S
N834 C836 1.375 . S
N834 C837 1.313 . S
C835 C836 1.338 . S
C835 N838 1.377 . S
C835 H855 0.930 . S
C836 N834 1.375 . S
C836 C835 1.338 . S
C836 H840 0.931 . S
C837 N834 1.313 . S
C837 N838 1.344 . S
C837 H841 0.930 . S
N838 C835 1.377 . S
N838 C837 1.344 . S
O839 Co831 2.055 . S
O839 C843 1.253 . S
H840 C836 0.931 . S
H841 C837 0.930 . S
O842 Co831 2.039 . S
O842 C832 1.265 . S
C843 O839 1.253 . S
C843 O844 1.227 . S
O844 C843 1.227 . S
N845 Co831 2.140 . S
N845 C848 1.346 . S
N845 C849 1.345 . S
C846 C847 1.387 . S
C846 C850 1.391 . S
C847 C846 1.387 . S
C847 C848 1.369 . S
C847 H856 0.929 . S
C848 N845 1.346 . S
C848 C847 1.369 . S
C848 H851 0.928 . S
C849 N845 1.345 . S
C849 C850 1.371 . S
C849 H852 0.931 . S
C850 C846 1.391 . S
C850 C849 1.371 . S
C850 H857 0.930 . S
H851 C848 0.928 . S
H852 C849 0.931 . S
H853 C829 0.930 . S
H854 C826 0.930 . S
H855 C835 0.930 . S
H856 C847 0.929 . S
H857 C850 0.930 . S
C858 C859 1.351 . S
C858 N861 1.368 . S
C858 H863 0.931 . S
C859 C858 1.351 . S
C859 N860 1.373 . S
C859 H887 0.930 . S
N860 C859 1.373 . S
N860 C862 1.340 . S
N861 C858 1.368 . S
N861 C862 1.321 . S
N861 Co864 2.135 . S
C862 N860 1.340 . S
C862 N861 1.321 . S
C862 H886 0.930 . S
H863 C858 0.931 . S
Co864 N861 2.135 . S
Co864 N867 2.121 . S
Co864 O872 2.055 . S
Co864 O875 2.039 . S
Co864 N878 2.140 . S
C865 O866 1.227 . S
C865 O875 1.265 . S
O866 C865 1.227 . S
N867 Co864 2.121 . S
N867 C869 1.375 . S
N867 C870 1.313 . S
C868 C869 1.338 . S
C868 N871 1.377 . S
C868 H888 0.930 . S
C869 N867 1.375 . S
C869 C868 1.338 . S
C869 H873 0.931 . S
C870 N867 1.313 . S
C870 N871 1.344 . S
C870 H874 0.930 . S
N871 C868 1.377 . S
N871 C870 1.344 . S
O872 Co864 2.055 . S
O872 C876 1.253 . S
H873 C869 0.931 . S
H874 C870 0.930 . S
O875 Co864 2.039 . S
O875 C865 1.265 . S
C876 O872 1.253 . S
C876 O877 1.227 . S
O877 C876 1.227 . S
N878 Co864 2.140 . S
N878 C881 1.346 . S
N878 C882 1.345 . S
C879 C880 1.387 . S
C879 C883 1.391 . S
C880 C879 1.387 . S
C880 C881 1.369 . S
C880 H889 0.929 . S
C881 N878 1.346 . S
C881 C880 1.369 . S
C881 H884 0.928 . S
C882 N878 1.345 . S
C882 C883 1.371 . S
C882 H885 0.931 . S
C883 C879 1.391 . S
C883 C882 1.371 . S
C883 H890 0.930 . S
H884 C881 0.928 . S
H885 C882 0.931 . S
H886 C862 0.930 . S
H887 C859 0.930 . S
H888 C868 0.930 . S
H889 C880 0.929 . S
H890 C883 0.930 . S
C891 C892 1.351 . S
C891 N894 1.368 . S
C891 H896 0.931 . S
C892 C891 1.351 . S
C892 N893 1.373 . S
C892 H920 0.930 . S
N893 C892 1.373 . S
N893 C895 1.340 . S
N894 C891 1.368 . S
N894 C895 1.321 . S
N894 Co897 2.135 1_655 S
C895 N893 1.340 . S
C895 N894 1.321 . S
C895 H919 0.930 . S
H896 C891 0.931 . S
Co897 N894 2.135 1_455 S
Co897 N900 2.121 . S
Co897 O905 2.055 . S
Co897 O908 2.039 . S
Co897 N911 2.140 . S
C898 O899 1.227 . S
C898 O908 1.265 . S
O899 C898 1.227 . S
N900 Co897 2.121 . S
N900 C902 1.375 . S
N900 C903 1.313 . S
C901 C902 1.338 . S
C901 N904 1.377 . S
C901 H921 0.930 . S
C902 N900 1.375 . S
C902 C901 1.338 . S
C902 H906 0.931 . S
C903 N900 1.313 . S
C903 N904 1.344 . S
C903 H907 0.930 . S
N904 C901 1.377 . S
N904 C903 1.344 . S
O905 Co897 2.055 . S
O905 C909 1.253 . S
H906 C902 0.931 . S
H907 C903 0.930 . S
O908 Co897 2.039 . S
O908 C898 1.265 . S
C909 O905 1.253 . S
C909 O910 1.227 . S
O910 C909 1.227 . S
N911 Co897 2.140 . S
N911 C914 1.357 . S
N911 C915 1.345 . S
C912 C913 1.387 1_455 S
C912 C916 1.391 . S
C913 C912 1.387 1_655 S
C913 C914 1.367 1_655 S
C913 H922 0.929 . S
C914 N911 1.357 . S
C914 C913 1.367 1_455 S
C914 H917 0.919 1_455 S
C915 N911 1.345 . S
C915 C916 1.371 . S
C915 H918 0.931 . S
C916 C912 1.391 . S
C916 C915 1.371 . S
C916 H923 0.930 . S
H917 C914 0.919 1_655 S
H918 C915 0.931 . S
H919 C895 0.930 . S
H920 C892 0.930 . S
H921 C901 0.930 . S
H922 C913 0.929 . S
H923 C916 0.930 . S
C924 C925 1.351 . S
C924 N927 1.368 . S
C924 H929 0.931 . S
C925 C924 1.351 . S
C925 N926 1.373 . S
C925 H953 0.930 . S
N926 C925 1.373 . S
N926 C928 1.340 . S
N927 C924 1.368 . S
N927 C928 1.321 . S
N927 Co930 2.135 . S
C928 N926 1.340 . S
C928 N927 1.321 . S
C928 H952 0.930 . S
H929 C924 0.931 . S
Co930 N927 2.135 . S
Co930 N933 2.121 . S
Co930 O938 2.055 . S
Co930 O941 2.039 . S
Co930 N944 2.140 . S
C931 O932 1.227 . S
C931 O941 1.265 . S
O932 C931 1.227 . S
N933 Co930 2.121 . S
N933 C935 1.375 . S
N933 C936 1.313 . S
C934 C935 1.338 . S
C934 N937 1.377 . S
C934 H954 0.930 . S
C935 N933 1.375 . S
C935 C934 1.338 . S
C935 H939 0.931 . S
C936 N933 1.313 . S
C936 N937 1.344 . S
C936 H940 0.930 . S
N937 C934 1.377 . S
N937 C936 1.344 . S
O938 Co930 2.055 . S
O938 C942 1.253 . S
H939 C935 0.931 . S
H940 C936 0.930 . S
O941 Co930 2.039 . S
O941 C931 1.265 . S
C942 O938 1.253 . S
C942 O943 1.227 . S
O943 C942 1.227 . S
N944 Co930 2.140 . S
N944 C947 1.346 . S
N944 C948 1.345 . S
C945 C946 1.387 . S
C945 C949 1.391 . S
C946 C945 1.387 . S
C946 C947 1.369 . S
C946 H955 0.929 . S
C947 N944 1.346 . S
C947 C946 1.369 . S
C947 H950 0.928 . S
C948 N944 1.345 . S
C948 C949 1.371 . S
C948 H951 0.931 . S
C949 C945 1.391 . S
C949 C948 1.371 . S
C949 H956 0.930 . S
H950 C947 0.928 . S
H951 C948 0.931 . S
H952 C928 0.930 . S
H953 C925 0.930 . S
H954 C934 0.930 . S
H955 C946 0.929 . S
H956 C949 0.930 . S
C957 C958 1.351 . S
C957 N960 1.368 . S
C957 H962 0.931 . S
C958 C957 1.351 . S
C958 N959 1.373 . S
C958 H986 0.930 . S
N959 C958 1.373 . S
N959 C961 1.340 . S
N960 C957 1.368 . S
N960 C961 1.321 . S
N960 Co963 2.135 1_655 S
C961 N959 1.340 . S
C961 N960 1.321 . S
C961 H985 0.930 . S
H962 C957 0.931 . S
Co963 N960 2.135 1_455 S
Co963 N966 2.121 . S
Co963 O971 2.055 . S
Co963 O974 2.039 . S
Co963 N977 2.140 . S
C964 O965 1.227 . S
C964 O974 1.265 . S
O965 C964 1.227 . S
N966 Co963 2.121 . S
N966 C968 1.375 . S
N966 C969 1.313 . S
C967 C968 1.338 . S
C967 N970 1.377 . S
C967 H987 0.930 . S
C968 N966 1.375 . S
C968 C967 1.338 . S
C968 H972 0.931 . S
C969 N966 1.313 . S
C969 N970 1.344 . S
C969 H973 0.930 . S
N970 C967 1.377 . S
N970 C969 1.344 . S
O971 Co963 2.055 . S
O971 C975 1.253 . S
H972 C968 0.931 . S
H973 C969 0.930 . S
O974 Co963 2.039 . S
O974 C964 1.265 . S
C975 O971 1.253 . S
C975 O976 1.227 . S
O976 C975 1.227 . S
N977 Co963 2.140 . S
N977 C980 1.357 . S
N977 C981 1.345 . S
C978 C979 1.387 1_455 S
C978 C982 1.391 . S
C979 C978 1.387 1_655 S
C979 C980 1.367 1_655 S
C979 H988 0.929 . S
C980 N977 1.357 . S
C980 C979 1.367 1_455 S
C980 H983 0.919 1_455 S
C981 N977 1.345 . S
C981 C982 1.371 . S
C981 H984 0.931 . S
C982 C978 1.391 . S
C982 C981 1.371 . S
C982 H989 0.930 . S
H983 C980 0.919 1_655 S
H984 C981 0.931 . S
H985 C961 0.930 . S
H986 C958 0.930 . S
H987 C967 0.930 . S
H988 C979 0.929 . S
H989 C982 0.930 . S
C990 C991 1.351 . S
C990 N993 1.368 . S
C990 H995 0.931 . S
C991 C990 1.351 . S
C991 N992 1.373 . S
C991 H1019 0.930 . S
N992 C991 1.373 . S
N992 C994 1.340 . S
N993 C990 1.368 . S
N993 C994 1.321 . S
N993 Co996 2.135 . S
C994 N992 1.340 . S
C994 N993 1.321 . S
C994 H1018 0.930 . S
H995 C990 0.931 . S
Co996 N993 2.135 . S
Co996 N999 2.121 . S
Co996 O1004 2.055 . S
Co996 O1007 2.039 . S
Co996 N1010 2.140 . S
C997 O998 1.227 . S
C997 O1007 1.265 . S
O998 C997 1.227 . S
N999 Co996 2.121 . S
N999 C1001 1.375 . S
N999 C1002 1.313 . S
C1000 C1001 1.338 . S
C1000 N1003 1.377 . S
C1000 H1020 0.930 . S
C1001 N999 1.375 . S
C1001 C1000 1.338 . S
C1001 H1005 0.931 . S
C1002 N999 1.313 . S
C1002 N1003 1.344 . S
C1002 H1006 0.930 . S
N1003 C1000 1.377 . S
N1003 C1002 1.344 . S
O1004 Co996 2.055 . S
O1004 C1008 1.253 . S
H1005 C1001 0.931 . S
H1006 C1002 0.930 . S
O1007 Co996 2.039 . S
O1007 C997 1.265 . S
C1008 O1004 1.253 . S
C1008 O1009 1.227 . S
O1009 C1008 1.227 . S
N1010 Co996 2.140 . S
N1010 C1013 1.346 . S
N1010 C1014 1.345 . S
C1011 C1012 1.387 . S
C1011 C1015 1.391 . S
C1012 C1011 1.387 . S
C1012 C1013 1.369 . S
C1012 H1021 0.929 . S
C1013 N1010 1.346 . S
C1013 C1012 1.369 . S
C1013 H1016 0.928 . S
C1014 N1010 1.345 . S
C1014 C1015 1.371 . S
C1014 H1017 0.931 . S
C1015 C1011 1.391 . S
C1015 C1014 1.371 . S
C1015 H1022 0.930 . S
H1016 C1013 0.928 . S
H1017 C1014 0.931 . S
H1018 C994 0.930 . S
H1019 C991 0.930 . S
H1020 C1000 0.930 . S
H1021 C1012 0.929 . S
H1022 C1015 0.930 . S
C1023 C1024 1.351 . S
C1023 N1026 1.368 . S
C1023 H1028 0.931 . S
C1024 C1023 1.351 . S
C1024 N1025 1.373 . S
C1024 H1052 0.930 . S
N1025 C1024 1.373 . S
N1025 C1027 1.340 . S
N1026 C1023 1.368 . S
N1026 C1027 1.321 . S
N1026 Co1029 2.135 . S
C1027 N1025 1.340 . S
C1027 N1026 1.321 . S
C1027 H1051 0.930 . S
H1028 C1023 0.931 . S
Co1029 N1026 2.135 . S
Co1029 N1032 2.121 . S
Co1029 O1037 2.055 . S
Co1029 O1040 2.039 . S
Co1029 N1043 2.140 . S
C1030 O1031 1.227 . S
C1030 O1040 1.265 . S
O1031 C1030 1.227 . S
N1032 Co1029 2.121 . S
N1032 C1034 1.375 . S
N1032 C1035 1.313 . S
C1033 C1034 1.338 . S
C1033 N1036 1.377 . S
C1033 H1053 0.930 . S
C1034 N1032 1.375 . S
C1034 C1033 1.338 . S
C1034 H1038 0.931 . S
C1035 N1032 1.313 . S
C1035 N1036 1.344 . S
C1035 H1039 0.930 . S
N1036 C1033 1.377 . S
N1036 C1035 1.344 . S
O1037 Co1029 2.055 . S
O1037 C1041 1.253 . S
H1038 C1034 0.931 . S
H1039 C1035 0.930 . S
O1040 Co1029 2.039 . S
O1040 C1030 1.265 . S
C1041 O1037 1.253 . S
C1041 O1042 1.227 . S
O1042 C1041 1.227 . S
N1043 Co1029 2.140 . S
N1043 C1046 1.346 . S
N1043 C1047 1.345 . S
C1044 C1045 1.387 . S
C1044 C1048 1.391 . S
C1045 C1044 1.387 . S
C1045 C1046 1.369 . S
C1045 H1054 0.929 . S
C1046 N1043 1.346 . S
C1046 C1045 1.369 . S
C1046 H1049 0.928 . S
C1047 N1043 1.345 . S
C1047 C1048 1.371 . S
C1047 H1050 0.931 . S
C1048 C1044 1.391 . S
C1048 C1047 1.371 . S
C1048 H1055 0.930 . S
H1049 C1046 0.928 . S
H1050 C1047 0.931 . S
H1051 C1027 0.930 . S
H1052 C1024 0.930 . S
H1053 C1033 0.930 . S
H1054 C1045 0.929 . S
H1055 C1048 0.930 . S
C1056 C1057 1.369 . S
C1056 C1058 1.419 . S
C1056 H1060 0.930 . S
C1057 C1056 1.369 . S
C1057 C1066 1.429 . S
C1058 C1056 1.419 . S
C1058 C1059 1.363 . S
C1058 H1061 0.929 . S
C1059 C1058 1.363 . S
C1059 C1065 1.428 . S
H1060 C1056 0.930 . S
H1061 C1058 0.929 . S
S1062 N1063 1.613 . S
S1062 N1064 1.610 . S
N1063 S1062 1.613 . S
N1063 C1066 1.350 . S
N1064 S1062 1.610 . S
N1064 C1065 1.351 . S
C1065 C1059 1.428 . S
C1065 N1064 1.351 . S
C1065 C1066 1.434 . S
C1066 C1057 1.429 . S
C1066 N1063 1.350 . S
C1066 C1065 1.434 . S
C1067 C1068 1.369 . S
C1067 C1069 1.419 . S
C1067 H1071 0.930 . S
C1068 C1067 1.369 . S
C1068 C1077 1.429 . S
C1069 C1067 1.419 . S
C1069 C1070 1.363 . S
C1069 H1072 0.929 . S
C1070 C1069 1.363 . S
C1070 C1076 1.428 . S
H1071 C1067 0.930 . S
H1072 C1069 0.929 . S
S1073 N1074 1.613 . S
S1073 N1075 1.610 . S
N1074 S1073 1.613 . S
N1074 C1077 1.350 . S
N1075 S1073 1.610 . S
N1075 C1076 1.351 . S
C1076 C1070 1.428 . S
C1076 N1075 1.351 . S
C1076 C1077 1.434 . S
C1077 C1068 1.429 . S
C1077 N1074 1.350 . S
C1077 C1076 1.434 . S
C1078 C1079 1.369 . S
C1078 C1080 1.419 . S
C1078 H1082 0.930 . S
C1079 C1078 1.369 . S
C1079 C1088 1.429 . S
C1080 C1078 1.419 . S
C1080 C1081 1.363 . S
C1080 H1083 0.929 . S
C1081 C1080 1.363 . S
C1081 C1087 1.428 . S
H1082 C1078 0.930 . S
H1083 C1080 0.929 . S
S1084 N1085 1.613 . S
S1084 N1086 1.610 . S
N1085 S1084 1.613 . S
N1085 C1088 1.350 . S
N1086 S1084 1.610 . S
N1086 C1087 1.351 . S
C1087 C1081 1.428 . S
C1087 N1086 1.351 . S
C1087 C1088 1.434 . S
C1088 C1079 1.429 . S
C1088 N1085 1.350 . S
C1088 C1087 1.434 . S
C1089 C1090 1.369 . S
C1089 C1091 1.419 . S
C1089 H1093 0.930 . S
C1090 C1089 1.369 . S
C1090 C1099 1.429 . S
C1091 C1089 1.419 . S
C1091 C1092 1.363 . S
C1091 H1094 0.929 . S
C1092 C1091 1.363 . S
C1092 C1098 1.428 . S
H1093 C1089 0.930 . S
H1094 C1091 0.929 . S
S1095 N1096 1.613 . S
S1095 N1097 1.610 . S
N1096 S1095 1.613 . S
N1096 C1099 1.350 . S
N1097 S1095 1.610 . S
N1097 C1098 1.351 . S
C1098 C1092 1.428 . S
C1098 N1097 1.351 . S
C1098 C1099 1.434 . S
C1099 C1090 1.429 . S
C1099 N1096 1.350 . S
C1099 C1098 1.434 . S
C1100 C1101 1.369 . S
C1100 C1102 1.419 . S
C1100 H1104 0.930 . S
C1101 C1100 1.369 . S
C1101 C1110 1.429 . S
C1102 C1100 1.419 . S
C1102 C1103 1.363 . S
C1102 H1105 0.929 . S
C1103 C1102 1.363 . S
C1103 C1109 1.428 . S
H1104 C1100 0.930 . S
H1105 C1102 0.929 . S
S1106 N1107 1.613 . S
S1106 N1108 1.610 . S
N1107 S1106 1.613 . S
N1107 C1110 1.350 . S
N1108 S1106 1.610 . S
N1108 C1109 1.351 . S
C1109 C1103 1.428 . S
C1109 N1108 1.351 . S
C1109 C1110 1.434 . S
C1110 C1101 1.429 . S
C1110 N1107 1.350 . S
C1110 C1109 1.434 . S
C1111 C1112 1.369 . S
C1111 C1113 1.419 . S
C1111 H1115 0.930 . S
C1112 C1111 1.369 . S
C1112 C1121 1.429 . S
C1113 C1111 1.419 . S
C1113 C1114 1.363 . S
C1113 H1116 0.929 . S
C1114 C1113 1.363 . S
C1114 C1120 1.428 . S
H1115 C1111 0.930 . S
H1116 C1113 0.929 . S
S1117 N1118 1.613 . S
S1117 N1119 1.610 . S
N1118 S1117 1.613 . S
N1118 C1121 1.350 . S
N1119 S1117 1.610 . S
N1119 C1120 1.351 . S
C1120 C1114 1.428 . S
C1120 N1119 1.351 . S
C1120 C1121 1.434 . S
C1121 C1112 1.429 . S
C1121 N1118 1.350 . S
C1121 C1120 1.434 . S
C1122 C1123 1.369 . S
C1122 C1124 1.419 . S
C1122 H1126 0.930 . S
C1123 C1122 1.369 . S
C1123 C1132 1.429 . S
C1124 C1122 1.419 . S
C1124 C1125 1.363 . S
C1124 H1127 0.929 . S
C1125 C1124 1.363 . S
C1125 C1131 1.428 . S
H1126 C1122 0.930 . S
H1127 C1124 0.929 . S
S1128 N1129 1.613 . S
S1128 N1130 1.610 . S
N1129 S1128 1.613 . S
N1129 C1132 1.350 . S
N1130 S1128 1.610 . S
N1130 C1131 1.351 . S
C1131 C1125 1.428 . S
C1131 N1130 1.351 . S
C1131 C1132 1.434 . S
C1132 C1123 1.429 . S
C1132 N1129 1.350 . S
C1132 C1131 1.434 . S
C1133 C1134 1.369 . S
C1133 C1135 1.419 . S
C1133 H1137 0.930 . S
C1134 C1133 1.369 . S
C1134 C1143 1.429 . S
C1135 C1133 1.419 . S
C1135 C1136 1.363 . S
C1135 H1138 0.929 . S
C1136 C1135 1.363 . S
C1136 C1142 1.428 . S
H1137 C1133 0.930 . S
H1138 C1135 0.929 . S
S1139 N1140 1.613 . S
S1139 N1141 1.610 . S
N1140 S1139 1.613 . S
N1140 C1143 1.350 . S
N1141 S1139 1.610 . S
N1141 C1142 1.351 . S
C1142 C1136 1.428 . S
C1142 N1141 1.351 . S
C1142 C1143 1.434 . S
C1143 C1134 1.429 . S
C1143 N1140 1.350 . S
C1143 C1142 1.434 . S
C1144 C1145 1.369 . S
C1144 C1146 1.419 . S
C1144 H1148 0.930 . S
C1145 C1144 1.369 . S
C1145 C1154 1.429 . S
C1146 C1144 1.419 . S
C1146 C1147 1.363 . S
C1146 H1149 0.929 . S
C1147 C1146 1.363 . S
C1147 C1153 1.428 . S
H1148 C1144 0.930 . S
H1149 C1146 0.929 . S
S1150 N1151 1.613 . S
S1150 N1152 1.610 . S
N1151 S1150 1.613 . S
N1151 C1154 1.350 . S
N1152 S1150 1.610 . S
N1152 C1153 1.351 . S
C1153 C1147 1.428 . S
C1153 N1152 1.351 . S
C1153 C1154 1.434 . S
C1154 C1145 1.429 . S
C1154 N1151 1.350 . S
C1154 C1153 1.434 . S
C1155 C1156 1.369 . S
C1155 C1157 1.419 . S
C1155 H1159 0.930 . S
C1156 C1155 1.369 . S
C1156 C1165 1.429 . S
C1157 C1155 1.419 . S
C1157 C1158 1.363 . S
C1157 H1160 0.929 . S
C1158 C1157 1.363 . S
C1158 C1164 1.428 . S
H1159 C1155 0.930 . S
H1160 C1157 0.929 . S
S1161 N1162 1.613 . S
S1161 N1163 1.610 . S
N1162 S1161 1.613 . S
N1162 C1165 1.350 . S
N1163 S1161 1.610 . S
N1163 C1164 1.351 . S
C1164 C1158 1.428 . S
C1164 N1163 1.351 . S
C1164 C1165 1.434 . S
C1165 C1156 1.429 . S
C1165 N1162 1.350 . S
C1165 C1164 1.434 . S
C1166 C1167 1.369 . S
C1166 C1168 1.419 . S
C1166 H1170 0.930 . S
C1167 C1166 1.369 . S
C1167 C1176 1.429 . S
C1168 C1166 1.419 . S
C1168 C1169 1.363 . S
C1168 H1171 0.929 . S
C1169 C1168 1.363 . S
C1169 C1175 1.428 . S
H1170 C1166 0.930 . S
H1171 C1168 0.929 . S
S1172 N1173 1.613 . S
S1172 N1174 1.610 . S
N1173 S1172 1.613 . S
N1173 C1176 1.350 . S
N1174 S1172 1.610 . S
N1174 C1175 1.351 . S
C1175 C1169 1.428 . S
C1175 N1174 1.351 . S
C1175 C1176 1.434 . S
C1176 C1167 1.429 . S
C1176 N1173 1.350 . S
C1176 C1175 1.434 . S
C1177 C1178 1.369 . S
C1177 C1179 1.419 . S
C1177 H1181 0.930 . S
C1178 C1177 1.369 . S
C1178 C1187 1.429 . S
C1179 C1177 1.419 . S
C1179 C1180 1.363 . S
C1179 H1182 0.929 . S
C1180 C1179 1.363 . S
C1180 C1186 1.428 . S
H1181 C1177 0.930 . S
H1182 C1179 0.929 . S
S1183 N1184 1.613 . S
S1183 N1185 1.610 . S
N1184 S1183 1.613 . S
N1184 C1187 1.350 . S
N1185 S1183 1.610 . S
N1185 C1186 1.351 . S
C1186 C1180 1.428 . S
C1186 N1185 1.351 . S
C1186 C1187 1.434 . S
C1187 C1178 1.429 . S
C1187 N1184 1.350 . S
C1187 C1186 1.434 . S
C1188 C1189 1.369 . S
C1188 C1190 1.419 . S
C1188 H1192 0.930 . S
C1189 C1188 1.369 . S
C1189 C1198 1.429 . S
C1190 C1188 1.419 . S
C1190 C1191 1.363 . S
C1190 H1193 0.929 . S
C1191 C1190 1.363 . S
C1191 C1197 1.428 . S
H1192 C1188 0.930 . S
H1193 C1190 0.929 . S
S1194 N1195 1.613 . S
S1194 N1196 1.610 . S
N1195 S1194 1.613 . S
N1195 C1198 1.350 . S
N1196 S1194 1.610 . S
N1196 C1197 1.351 . S
C1197 C1191 1.428 . S
C1197 N1196 1.351 . S
C1197 C1198 1.434 . S
C1198 C1189 1.429 . S
C1198 N1195 1.350 . S
C1198 C1197 1.434 . S
C1199 C1200 1.369 . S
C1199 C1201 1.419 . S
C1199 H1203 0.930 . S
C1200 C1199 1.369 . S
C1200 C1209 1.429 . S
C1201 C1199 1.419 . S
C1201 C1202 1.363 . S
C1201 H1204 0.929 . S
C1202 C1201 1.363 . S
C1202 C1208 1.428 . S
H1203 C1199 0.930 . S
H1204 C1201 0.929 . S
S1205 N1206 1.613 . S
S1205 N1207 1.610 . S
N1206 S1205 1.613 . S
N1206 C1209 1.350 . S
N1207 S1205 1.610 . S
N1207 C1208 1.351 . S
C1208 C1202 1.428 . S
C1208 N1207 1.351 . S
C1208 C1209 1.434 . S
C1209 C1200 1.429 . S
C1209 N1206 1.350 . S
C1209 C1208 1.434 . S
C1210 C1211 1.369 . S
C1210 C1212 1.419 . S
C1210 H1214 0.930 . S
C1211 C1210 1.369 . S
C1211 C1220 1.429 . S
C1212 C1210 1.419 . S
C1212 C1213 1.363 . S
C1212 H1215 0.929 . S
C1213 C1212 1.363 . S
C1213 C1219 1.428 . S
H1214 C1210 0.930 . S
H1215 C1212 0.929 . S
S1216 N1217 1.613 . S
S1216 N1218 1.610 . S
N1217 S1216 1.613 . S
N1217 C1220 1.350 . S
N1218 S1216 1.610 . S
N1218 C1219 1.351 . S
C1219 C1213 1.428 . S
C1219 N1218 1.351 . S
C1219 C1220 1.434 . S
C1220 C1211 1.429 . S
C1220 N1217 1.350 . S
C1220 C1219 1.434 . S
C1221 C1222 1.369 . S
C1221 C1223 1.419 . S
C1221 H1225 0.930 . S
C1222 C1221 1.369 . S
C1222 C1231 1.429 . S
C1223 C1221 1.419 . S
C1223 C1224 1.363 . S
C1223 H1226 0.929 . S
C1224 C1223 1.363 . S
C1224 C1230 1.428 . S
H1225 C1221 0.930 . S
H1226 C1223 0.929 . S
S1227 N1228 1.613 . S
S1227 N1229 1.610 . S
N1228 S1227 1.613 . S
N1228 C1231 1.350 . S
N1229 S1227 1.610 . S
N1229 C1230 1.351 . S
C1230 C1224 1.428 . S
C1230 N1229 1.351 . S
C1230 C1231 1.434 . S
C1231 C1222 1.429 . S
C1231 N1228 1.350 . S
C1231 C1230 1.434 . S
C1232 C1233 1.369 . S
C1232 C1234 1.419 1_556 S
C1232 H1236 0.930 . S
C1233 C1232 1.369 . S
C1233 C1242 1.429 . S
C1234 C1232 1.419 1_554 S
C1234 C1235 1.363 . S
C1234 H1237 0.929 . S
C1235 C1234 1.363 . S
C1235 C1241 1.428 . S
H1236 C1232 0.930 . S
H1237 C1234 0.929 . S
S1238 N1239 1.613 1_554 S
S1238 N1240 1.610 . S
N1239 S1238 1.613 1_556 S
N1239 C1242 1.350 . S
N1240 S1238 1.610 . S
N1240 C1241 1.351 . S
C1241 C1235 1.428 . S
C1241 N1240 1.351 . S
C1241 C1242 1.434 1_554 S
C1242 C1233 1.429 . S
C1242 N1239 1.350 . S
C1242 C1241 1.434 1_556 S
C1243 C1244 1.369 1_545 S
C1243 C1245 1.419 . S
C1243 H1247 0.930 . S
C1244 C1243 1.369 1_565 S
C1244 C1253 1.429 . S
C1245 C1243 1.419 . S
C1245 C1246 1.363 . S
C1245 H1248 0.929 . S
C1246 C1245 1.363 . S
C1246 C1252 1.428 1_545 S
H1247 C1243 0.930 . S
H1248 C1245 0.929 . S
S1249 N1250 1.613 1_655 S
S1249 N1251 1.610 1_655 S
N1250 S1249 1.613 1_455 S
N1250 C1253 1.350 . S
N1251 S1249 1.610 1_455 S
N1251 C1252 1.351 . S
C1252 C1246 1.428 1_565 S
C1252 N1251 1.351 . S
C1252 C1253 1.434 . S
C1253 C1244 1.429 . S
C1253 N1250 1.350 . S
C1253 C1252 1.434 . S
C1254 C1255 1.369 . S
C1254 C1256 1.419 . S
C1254 H1258 0.930 . S
C1255 C1254 1.369 . S
C1255 C1264 1.429 . S
C1256 C1254 1.419 . S
C1256 C1257 1.363 . S
C1256 H1259 0.929 . S
C1257 C1256 1.363 . S
C1257 C1263 1.428 . S
H1258 C1254 0.930 . S
H1259 C1256 0.929 . S
S1260 N1261 1.613 . S
S1260 N1262 1.610 . S
N1261 S1260 1.613 . S
N1261 C1264 1.350 . S
N1262 S1260 1.610 . S
N1262 C1263 1.351 . S
C1263 C1257 1.428 . S
C1263 N1262 1.351 . S
C1263 C1264 1.434 . S
C1264 C1255 1.429 . S
C1264 N1261 1.350 . S
C1264 C1263 1.434 . S
C1265 C1266 1.369 1_565 S
C1265 C1267 1.419 . S
C1265 H1269 0.930 . S
C1266 C1265 1.369 1_545 S
C1266 C1275 1.429 . S
C1267 C1265 1.419 . S
C1267 C1268 1.363 . S
C1267 H1270 0.929 . S
C1268 C1267 1.363 . S
C1268 C1274 1.428 1_565 S
H1269 C1265 0.930 . S
H1270 C1267 0.929 . S
S1271 N1272 1.613 . S
S1271 N1273 1.610 . S
N1272 S1271 1.613 . S
N1272 C1275 1.350 . S
N1273 S1271 1.610 . S
N1273 C1274 1.351 . S
C1274 C1268 1.428 1_545 S
C1274 N1273 1.351 . S
C1274 C1275 1.434 . S
C1275 C1266 1.429 . S
C1275 N1272 1.350 . S
C1275 C1274 1.434 . S
C1276 C1277 1.369 . S
C1276 C1278 1.419 1_556 S
C1276 H1280 0.930 . S
C1277 C1276 1.369 . S
C1277 C1286 1.429 . S
C1278 C1276 1.419 1_554 S
C1278 C1279 1.363 . S
C1278 H1281 0.929 . S
C1279 C1278 1.363 . S
C1279 C1285 1.428 . S
H1280 C1276 0.930 . S
H1281 C1278 0.929 . S
S1282 N1283 1.613 1_554 S
S1282 N1284 1.610 . S
N1283 S1282 1.613 1_556 S
N1283 C1286 1.350 . S
N1284 S1282 1.610 . S
N1284 C1285 1.351 . S
C1285 C1279 1.428 . S
C1285 N1284 1.351 . S
C1285 C1286 1.434 1_554 S
C1286 C1277 1.429 . S
C1286 N1283 1.350 . S
C1286 C1285 1.434 1_556 S
C1287 C1288 1.369 1_545 S
C1287 C1289 1.419 . S
C1287 H1291 0.930 1_655 S
C1288 C1287 1.369 1_565 S
C1288 C1297 1.429 . S
C1289 C1287 1.419 . S
C1289 C1290 1.363 . S
C1289 H1292 0.929 1_655 S
C1290 C1289 1.363 . S
C1290 C1296 1.428 1_545 S
H1291 C1287 0.930 1_455 S
H1292 C1289 0.929 1_455 S
S1293 N1294 1.613 . S
S1293 N1295 1.610 . S
N1294 S1293 1.613 . S
N1294 C1297 1.350 . S
N1295 S1293 1.610 . S
N1295 C1296 1.351 . S
C1296 C1290 1.428 1_565 S
C1296 N1295 1.351 . S
C1296 C1297 1.434 . S
C1297 C1288 1.429 . S
C1297 N1294 1.350 . S
C1297 C1296 1.434 . S
C1298 C1299 1.369 . S
C1298 C1300 1.419 . S
C1298 H1302 0.930 . S
C1299 C1298 1.369 . S
C1299 C1308 1.429 . S
C1300 C1298 1.419 . S
C1300 C1301 1.363 . S
C1300 H1303 0.929 . S
C1301 C1300 1.363 . S
C1301 C1307 1.428 . S
H1302 C1298 0.930 . S
H1303 C1300 0.929 . S
S1304 N1305 1.613 . S
S1304 N1306 1.610 . S
N1305 S1304 1.613 . S
N1305 C1308 1.350 . S
N1306 S1304 1.610 . S
N1306 C1307 1.351 . S
C1307 C1301 1.428 . S
C1307 N1306 1.351 . S
C1307 C1308 1.434 . S
C1308 C1299 1.429 . S
C1308 N1305 1.350 . S
C1308 C1307 1.434 . S
C1309 C1310 1.369 1_565 S
C1309 C1311 1.419 . S
C1309 H1313 0.930 . S
C1310 C1309 1.369 1_545 S
C1310 C1319 1.429 . S
C1311 C1309 1.419 . S
C1311 C1312 1.363 . S
C1311 H1314 0.929 . S
C1312 C1311 1.363 . S
C1312 C1318 1.428 1_565 S
H1313 C1309 0.930 . S
H1314 C1311 0.929 . S
S1315 N1316 1.613 . S
S1315 N1317 1.610 . S
N1316 S1315 1.613 . S
N1316 C1319 1.350 . S
N1317 S1315 1.610 . S
N1317 C1318 1.351 . S
C1318 C1312 1.428 1_545 S
C1318 N1317 1.351 . S
C1318 C1319 1.434 . S
C1319 C1310 1.429 . S
C1319 N1316 1.350 . S
C1319 C1318 1.434 . S
C1320 C1321 1.369 . S
C1320 C1322 1.419 . S
C1320 H1324 0.930 . S
C1321 C1320 1.369 . S
C1321 C1330 1.429 . S
C1322 C1320 1.419 . S
C1322 C1323 1.363 . S
C1322 H1325 0.929 . S
C1323 C1322 1.363 . S
C1323 C1329 1.428 . S
H1324 C1320 0.930 . S
H1325 C1322 0.929 . S
S1326 N1327 1.613 . S
S1326 N1328 1.610 . S
N1327 S1326 1.613 . S
N1327 C1330 1.350 . S
N1328 S1326 1.610 . S
N1328 C1329 1.351 . S
C1329 C1323 1.428 . S
C1329 N1328 1.351 . S
C1329 C1330 1.434 . S
C1330 C1321 1.429 . S
C1330 N1327 1.350 . S
C1330 C1329 1.434 . S
C1331 C1332 1.369 . S
C1331 C1333 1.419 . S
C1331 H1335 0.930 . S
C1332 C1331 1.369 . S
C1332 C1341 1.429 . S
C1333 C1331 1.419 . S
C1333 C1334 1.363 . S
C1333 H1336 0.929 . S
C1334 C1333 1.363 . S
C1334 C1340 1.428 . S
H1335 C1331 0.930 . S
H1336 C1333 0.929 . S
S1337 N1338 1.613 . S
S1337 N1339 1.610 . S
N1338 S1337 1.613 . S
N1338 C1341 1.350 . S
N1339 S1337 1.610 . S
N1339 C1340 1.351 . S
C1340 C1334 1.428 . S
C1340 N1339 1.351 . S
C1340 C1341 1.434 . S
C1341 C1332 1.429 . S
C1341 N1338 1.350 . S
C1341 C1340 1.434 . S
C1342 C1343 1.369 . S
C1342 C1344 1.419 1_556 S
C1342 H1346 0.930 . S
C1343 C1342 1.369 . S
C1343 C1352 1.429 . S
C1344 C1342 1.419 1_554 S
C1344 C1345 1.363 . S
C1344 H1347 0.929 . S
C1345 C1344 1.363 . S
C1345 C1351 1.428 . S
H1346 C1342 0.930 . S
H1347 C1344 0.929 . S
S1348 N1349 1.613 1_554 S
S1348 N1350 1.610 . S
N1349 S1348 1.613 1_556 S
N1349 C1352 1.350 . S
N1350 S1348 1.610 . S
N1350 C1351 1.351 . S
C1351 C1345 1.428 . S
C1351 N1350 1.351 . S
C1351 C1352 1.434 1_554 S
C1352 C1343 1.429 . S
C1352 N1349 1.350 . S
C1352 C1351 1.434 1_556 S
C1353 C1354 1.369 . S
C1353 C1355 1.419 . S
C1353 H1357 0.930 . S
C1354 C1353 1.369 . S
C1354 C1363 1.429 1_655 S
C1355 C1353 1.419 . S
C1355 C1356 1.363 . S
C1355 H1358 0.929 . S
C1356 C1355 1.363 . S
C1356 C1362 1.428 1_655 S
H1357 C1353 0.930 . S
H1358 C1355 0.929 . S
S1359 N1360 1.613 . S
S1359 N1361 1.610 . S
N1360 S1359 1.613 . S
N1360 C1363 1.350 . S
N1361 S1359 1.610 . S
N1361 C1362 1.351 . S
C1362 C1356 1.428 1_455 S
C1362 N1361 1.351 . S
C1362 C1363 1.434 . S
C1363 C1354 1.429 1_455 S
C1363 N1360 1.350 . S
C1363 C1362 1.434 . S
C1364 C1365 1.369 . S
C1364 C1366 1.419 . S
C1364 H1368 0.930 . S
C1365 C1364 1.369 . S
C1365 C1374 1.429 . S
C1366 C1364 1.419 . S
C1366 C1367 1.363 . S
C1366 H1369 0.929 . S
C1367 C1366 1.363 . S
C1367 C1373 1.428 . S
H1368 C1364 0.930 . S
H1369 C1366 0.929 . S
S1370 N1371 1.613 . S
S1370 N1372 1.610 . S
N1371 S1370 1.613 . S
N1371 C1374 1.350 . S
N1372 S1370 1.610 . S
N1372 C1373 1.351 . S
C1373 C1367 1.428 . S
C1373 N1372 1.351 . S
C1373 C1374 1.434 . S
C1374 C1365 1.429 . S
C1374 N1371 1.350 . S
C1374 C1373 1.434 . S
C1375 C1376 1.369 . S
C1375 C1377 1.419 . S
C1375 H1379 0.930 . S
C1376 C1375 1.369 . S
C1376 C1385 1.429 . S
C1377 C1375 1.419 . S
C1377 C1378 1.363 . S
C1377 H1380 0.929 . S
C1378 C1377 1.363 . S
C1378 C1384 1.428 . S
H1379 C1375 0.930 . S
H1380 C1377 0.929 . S
S1381 N1382 1.613 . S
S1381 N1383 1.610 . S
N1382 S1381 1.613 . S
N1382 C1385 1.350 . S
N1383 S1381 1.610 . S
N1383 C1384 1.351 . S
C1384 C1378 1.428 . S
C1384 N1383 1.351 . S
C1384 C1385 1.434 . S
C1385 C1376 1.429 . S
C1385 N1382 1.350 . S
C1385 C1384 1.434 . S
C1386 C1387 1.369 . S
C1386 C1388 1.419 1_554 S
C1386 H1390 0.930 . S
C1387 C1386 1.369 . S
C1387 C1396 1.429 . S
C1388 C1386 1.419 1_556 S
C1388 C1389 1.363 . S
C1388 H1391 0.929 . S
C1389 C1388 1.363 . S
C1389 C1395 1.428 . S
H1390 C1386 0.930 . S
H1391 C1388 0.929 . S
S1392 N1393 1.613 . S
S1392 N1394 1.610 1_554 S
N1393 S1392 1.613 . S
N1393 C1396 1.350 . S
N1394 S1392 1.610 1_556 S
N1394 C1395 1.351 . S
C1395 C1389 1.428 . S
C1395 N1394 1.351 . S
C1395 C1396 1.434 1_556 S
C1396 C1387 1.429 . S
C1396 N1393 1.350 . S
C1396 C1395 1.434 1_554 S
C1397 C1398 1.369 . S
C1397 C1399 1.419 . S
C1397 H1401 0.930 . S
C1398 C1397 1.369 . S
C1398 C1407 1.429 . S
C1399 C1397 1.419 . S
C1399 C1400 1.363 . S
C1399 H1402 0.929 . S
C1400 C1399 1.363 . S
C1400 C1406 1.428 . S
H1401 C1397 0.930 . S
H1402 C1399 0.929 . S
S1403 N1404 1.613 . S
S1403 N1405 1.610 . S
N1404 S1403 1.613 . S
N1404 C1407 1.350 . S
N1405 S1403 1.610 . S
N1405 C1406 1.351 . S
C1406 C1400 1.428 . S
C1406 N1405 1.351 . S
C1406 C1407 1.434 . S
C1407 C1398 1.429 . S
C1407 N1404 1.350 . S
C1407 C1406 1.434 . S
C1408 C1409 1.369 . S
C1408 C1410 1.419 . S
C1408 H1412 0.930 . S
C1409 C1408 1.369 . S
C1409 C1418 1.429 . S
C1410 C1408 1.419 . S
C1410 C1411 1.363 1_565 S
C1410 H1413 0.929 . S
C1411 C1410 1.363 1_545 S
C1411 C1417 1.428 1_545 S
H1412 C1408 0.930 . S
H1413 C1410 0.929 . S
S1414 N1415 1.613 . S
S1414 N1416 1.610 . S
N1415 S1414 1.613 . S
N1415 C1418 1.350 . S
N1416 S1414 1.610 . S
N1416 C1417 1.351 . S
C1417 C1411 1.428 1_565 S
C1417 N1416 1.351 . S
C1417 C1418 1.434 . S
C1418 C1409 1.429 . S
C1418 N1415 1.350 . S
C1418 C1417 1.434 . S
C1419 C1420 1.369 . S
C1419 C1421 1.419 . S
C1419 H1423 0.930 . S
C1420 C1419 1.369 . S
C1420 C1429 1.429 1_545 S
C1421 C1419 1.419 . S
C1421 C1422 1.363 . S
C1421 H1424 0.929 . S
C1422 C1421 1.363 . S
C1422 C1428 1.428 1_545 S
H1423 C1419 0.930 . S
H1424 C1421 0.929 . S
S1425 N1426 1.613 . S
S1425 N1427 1.610 . S
N1426 S1425 1.613 . S
N1426 C1429 1.350 . S
N1427 S1425 1.610 . S
N1427 C1428 1.351 . S
C1428 C1422 1.428 1_565 S
C1428 N1427 1.351 . S
C1428 C1429 1.434 . S
C1429 C1420 1.429 1_565 S
C1429 N1426 1.350 . S
C1429 C1428 1.434 . S
C1430 C1431 1.369 . S
C1430 C1432 1.419 . S
C1430 H1434 0.930 . S
C1431 C1430 1.369 . S
C1431 C1440 1.429 . S
C1432 C1430 1.419 . S
C1432 C1433 1.363 1_545 S
C1432 H1435 0.929 . S
C1433 C1432 1.363 1_565 S
C1433 C1439 1.428 1_565 S
H1434 C1430 0.930 . S
H1435 C1432 0.929 . S
S1436 N1437 1.613 . S
S1436 N1438 1.610 . S
N1437 S1436 1.613 . S
N1437 C1440 1.350 . S
N1438 S1436 1.610 . S
N1438 C1439 1.351 . S
C1439 C1433 1.428 1_545 S
C1439 N1438 1.351 . S
C1439 C1440 1.434 . S
C1440 C1431 1.429 . S
C1440 N1437 1.350 . S
C1440 C1439 1.434 . S
C1441 C1442 1.369 . S
C1441 C1443 1.419 . S
C1441 H1445 0.930 . S
C1442 C1441 1.369 . S
C1442 C1451 1.429 1_565 S
C1443 C1441 1.419 . S
C1443 C1444 1.363 . S
C1443 H1446 0.929 . S
C1444 C1443 1.363 . S
C1444 C1450 1.428 1_565 S
H1445 C1441 0.930 . S
H1446 C1443 0.929 . S
S1447 N1448 1.613 . S
S1447 N1449 1.610 . S
N1448 S1447 1.613 . S
N1448 C1451 1.350 . S
N1449 S1447 1.610 . S
N1449 C1450 1.351 . S
C1450 C1444 1.428 1_545 S
C1450 N1449 1.351 . S
C1450 C1451 1.434 . S
C1451 C1442 1.429 1_545 S
C1451 N1448 1.350 . S
C1451 C1450 1.434 . S
C1452 C1453 1.369 . S
C1452 C1454 1.419 . S
C1452 H1456 0.930 . S
C1453 C1452 1.369 . S
C1453 C1462 1.429 . S
C1454 C1452 1.419 . S
C1454 C1455 1.363 1_545 S
C1454 H1457 0.929 . S
C1455 C1454 1.363 1_565 S
C1455 C1461 1.428 1_565 S
H1456 C1452 0.930 . S
H1457 C1454 0.929 . S
S1458 N1459 1.613 . S
S1458 N1460 1.610 . S
N1459 S1458 1.613 . S
N1459 C1462 1.350 . S
N1460 S1458 1.610 . S
N1460 C1461 1.351 . S
C1461 C1455 1.428 1_545 S
C1461 N1460 1.351 . S
C1461 C1462 1.434 . S
C1462 C1453 1.429 . S
C1462 N1459 1.350 . S
C1462 C1461 1.434 . S
C1463 C1464 1.369 . S
C1463 C1465 1.419 . S
C1463 H1467 0.930 . S
C1464 C1463 1.369 . S
C1464 C1473 1.429 1_545 S
C1465 C1463 1.419 . S
C1465 C1466 1.363 . S
C1465 H1468 0.929 . S
C1466 C1465 1.363 . S
C1466 C1472 1.428 1_545 S
H1467 C1463 0.930 . S
H1468 C1465 0.929 . S
S1469 N1470 1.613 . S
S1469 N1471 1.610 . S
N1470 S1469 1.613 . S
N1470 C1473 1.350 . S
N1471 S1469 1.610 . S
N1471 C1472 1.351 . S
C1472 C1466 1.428 1_565 S
C1472 N1471 1.351 . S
C1472 C1473 1.434 . S
C1473 C1464 1.429 1_565 S
C1473 N1470 1.350 . S
C1473 C1472 1.434 . S
C1474 C1475 1.369 . S
C1474 C1476 1.419 . S
C1474 H1478 0.930 . S
C1475 C1474 1.369 . S
C1475 C1484 1.429 . S
C1476 C1474 1.419 . S
C1476 C1477 1.363 1_565 S
C1476 H1479 0.929 . S
C1477 C1476 1.363 1_545 S
C1477 C1483 1.428 1_545 S
H1478 C1474 0.930 . S
H1479 C1476 0.929 . S
S1480 N1481 1.613 . S
S1480 N1482 1.610 1_565 S
N1481 S1480 1.613 . S
N1481 C1484 1.350 . S
N1482 S1480 1.610 1_545 S
N1482 C1483 1.351 1_545 S
C1483 C1477 1.428 1_565 S
C1483 N1482 1.351 1_565 S
C1483 C1484 1.434 . S
C1484 C1475 1.429 . S
C1484 N1481 1.350 . S
C1484 C1483 1.434 . S
C1485 C1486 1.369 1_545 S
C1485 C1487 1.419 . S
C1485 H1489 0.930 . S
C1486 C1485 1.369 1_565 S
C1486 C1495 1.429 . S
C1487 C1485 1.419 . S
C1487 C1488 1.363 1_545 S
C1487 H1490 0.929 . S
C1488 C1487 1.363 1_565 S
C1488 C1494 1.428 . S
H1489 C1485 0.930 . S
H1490 C1487 0.929 . S
S1491 N1492 1.613 . S
S1491 N1493 1.610 . S
N1492 S1491 1.613 . S
N1492 C1495 1.350 . S
N1493 S1491 1.610 . S
N1493 C1494 1.351 . S
C1494 C1488 1.428 . S
C1494 N1493 1.351 . S
C1494 C1495 1.434 . S
C1495 C1486 1.429 . S
C1495 N1492 1.350 . S
C1495 C1494 1.434 . S
C1496 C1497 1.369 1_545 S
C1496 C1498 1.419 . S
C1496 H1500 0.930 . S
C1497 C1496 1.369 1_565 S
C1497 C1506 1.429 1_565 S
C1498 C1496 1.419 . S
C1498 C1499 1.363 . S
C1498 H1501 0.929 . S
C1499 C1498 1.363 . S
C1499 C1505 1.428 . S
H1500 C1496 0.930 . S
H1501 C1498 0.929 . S
S1502 N1503 1.613 . S
S1502 N1504 1.610 . S
N1503 S1502 1.613 . S
N1503 C1506 1.350 . S
N1504 S1502 1.610 . S
N1504 C1505 1.351 . S
C1505 C1499 1.428 . S
C1505 N1504 1.351 . S
C1505 C1506 1.434 . S
C1506 C1497 1.429 1_545 S
C1506 N1503 1.350 . S
C1506 C1505 1.434 . S
C1507 C1508 1.369 1_545 S
C1507 C1509 1.418 1_545 S
C1507 H1511 0.930 . S
C1508 C1507 1.369 1_565 S
C1508 C1517 1.429 . S
C1509 C1507 1.418 1_565 S
C1509 C1510 1.367 . S
C1509 H1512 0.926 1_565 S
C1510 C1509 1.367 . S
C1510 C1516 1.428 . S
H1511 C1507 0.930 . S
H1512 C1509 0.926 1_545 S
S1513 N1514 1.613 . S
S1513 N1515 1.610 . S
N1514 S1513 1.613 . S
N1514 C1517 1.350 . S
N1515 S1513 1.610 . S
N1515 C1516 1.351 . S
C1516 C1510 1.428 . S
C1516 N1515 1.351 . S
C1516 C1517 1.434 . S
C1517 C1508 1.429 . S
C1517 N1514 1.350 . S
C1517 C1516 1.434 . S
C1518 C1519 1.369 1_565 S
C1518 C1520 1.419 . S
C1518 H1522 0.930 . S
C1519 C1518 1.369 1_545 S
C1519 C1528 1.429 1_545 S
C1520 C1518 1.419 . S
C1520 C1521 1.363 . S
C1520 H1523 0.929 . S
C1521 C1520 1.363 . S
C1521 C1527 1.428 . S
H1522 C1518 0.930 . S
H1523 C1520 0.929 . S
S1524 N1525 1.613 . S
S1524 N1526 1.610 . S
N1525 S1524 1.613 . S
N1525 C1528 1.350 . S
N1526 S1524 1.610 . S
N1526 C1527 1.351 . S
C1527 C1521 1.428 . S
C1527 N1526 1.351 . S
C1527 C1528 1.434 . S
C1528 C1519 1.429 1_565 S
C1528 N1525 1.350 . S
C1528 C1527 1.434 . S
C1529 C1530 1.369 . S
C1529 C1531 1.419 . S
C1529 H1533 0.930 . S
C1530 C1529 1.369 . S
C1530 C1539 1.429 1_545 S
C1531 C1529 1.419 . S
C1531 C1532 1.363 . S
C1531 H1534 0.929 . S
C1532 C1531 1.363 . S
C1532 C1538 1.428 1_545 S
H1533 C1529 0.930 . S
H1534 C1531 0.929 . S
S1535 N1536 1.613 . S
S1535 N1537 1.610 . S
N1536 S1535 1.613 . S
N1536 C1539 1.350 . S
N1537 S1535 1.610 . S
N1537 C1538 1.351 . S
C1538 C1532 1.428 1_565 S
C1538 N1537 1.351 . S
C1538 C1539 1.434 . S
C1539 C1530 1.429 1_565 S
C1539 N1536 1.350 . S
C1539 C1538 1.434 . S
C1540 C1541 1.369 . S
C1540 C1542 1.419 . S
C1540 H1544 0.930 . S
C1541 C1540 1.369 . S
C1541 C1550 1.429 . S
C1542 C1540 1.419 . S
C1542 C1543 1.363 1_565 S
C1542 H1545 0.942 . S
C1543 C1542 1.363 1_545 S
C1543 C1549 1.428 1_545 S
H1544 C1540 0.930 . S
H1545 C1542 0.942 . S
S1546 N1547 1.613 . S
S1546 N1548 1.610 . S
N1547 S1546 1.613 . S
N1547 C1550 1.350 . S
N1548 S1546 1.610 . S
N1548 C1549 1.351 . S
C1549 C1543 1.428 1_565 S
C1549 N1548 1.351 . S
C1549 C1550 1.434 . S
C1550 C1541 1.429 . S
C1550 N1547 1.350 . S
C1550 C1549 1.434 . S
C1551 C1552 1.369 . S
C1551 C1553 1.419 . S
C1551 H1555 0.930 . S
C1552 C1551 1.369 . S
C1552 C1561 1.429 . S
C1553 C1551 1.419 . S
C1553 C1554 1.363 . S
C1553 H1556 0.929 . S
C1554 C1553 1.363 . S
C1554 C1560 1.428 . S
H1555 C1551 0.930 . S
H1556 C1553 0.929 . S
S1557 N1558 1.613 1_545 S
S1557 N1559 1.610 1_545 S
N1558 S1557 1.613 1_565 S
N1558 C1561 1.354 . S
N1559 S1557 1.610 1_565 S
N1559 C1560 1.351 . S
C1560 C1554 1.428 . S
C1560 N1559 1.351 . S
C1560 C1561 1.434 . S
C1561 C1552 1.429 . S
C1561 N1558 1.354 . S
C1561 C1560 1.434 . S
C1562 C1563 1.369 1_545 S
C1562 C1564 1.419 . S
C1562 H1566 0.930 . S
C1563 C1562 1.369 1_565 S
C1563 C1572 1.429 1_565 S
C1564 C1562 1.419 . S
C1564 C1565 1.363 . S
C1564 H1567 0.929 . S
C1565 C1564 1.363 . S
C1565 C1571 1.428 . S
H1566 C1562 0.930 . S
H1567 C1564 0.929 . S
S1568 N1569 1.613 . S
S1568 N1570 1.610 . S
N1569 S1568 1.613 . S
N1569 C1572 1.350 . S
N1570 S1568 1.610 . S
N1570 C1571 1.351 . S
C1571 C1565 1.428 . S
C1571 N1570 1.351 . S
C1571 C1572 1.434 . S
C1572 C1563 1.429 1_545 S
C1572 N1569 1.350 . S
C1572 C1571 1.434 . S
C1573 C1574 1.369 . S
C1573 C1575 1.419 . S
C1573 H1577 0.930 . S
C1574 C1573 1.369 . S
C1574 C1583 1.429 . S
C1575 C1573 1.419 . S
C1575 C1576 1.363 . S
C1575 H1578 0.929 . S
C1576 C1575 1.363 . S
C1576 C1582 1.428 . S
H1577 C1573 0.930 . S
H1578 C1575 0.929 . S
S1579 N1580 1.613 . S
S1579 N1581 1.610 . S
N1580 S1579 1.613 . S
N1580 C1583 1.350 . S
N1581 S1579 1.610 . S
N1581 C1582 1.351 . S
C1582 C1576 1.428 . S
C1582 N1581 1.351 . S
C1582 C1583 1.434 . S
C1583 C1574 1.429 . S
C1583 N1580 1.350 . S
C1583 C1582 1.434 . S
C1584 C1585 1.369 . S
C1584 C1586 1.419 . S
C1584 H1588 0.930 . S
C1585 C1584 1.369 . S
C1585 C1594 1.429 . S
C1586 C1584 1.419 . S
C1586 C1587 1.363 . S
C1586 H1589 0.929 . S
C1587 C1586 1.363 . S
C1587 C1593 1.428 . S
H1588 C1584 0.930 . S
H1589 C1586 0.929 . S
S1590 N1591 1.613 . S
S1590 N1592 1.610 . S
N1591 S1590 1.613 . S
N1591 C1594 1.350 . S
N1592 S1590 1.610 . S
N1592 C1593 1.351 . S
C1593 C1587 1.428 . S
C1593 N1592 1.351 . S
C1593 C1594 1.434 . S
C1594 C1585 1.429 . S
C1594 N1591 1.350 . S
C1594 C1593 1.434 . S
C1595 C1596 1.369 . S
C1595 C1597 1.419 . S
C1595 H1599 0.930 . S
C1596 C1595 1.369 . S
C1596 C1605 1.429 . S
C1597 C1595 1.419 . S
C1597 C1598 1.363 . S
C1597 H1600 0.929 . S
C1598 C1597 1.363 . S
C1598 C1604 1.428 . S
H1599 C1595 0.930 . S
H1600 C1597 0.929 . S
S1601 N1602 1.613 . S
S1601 N1603 1.610 . S
N1602 S1601 1.613 . S
N1602 C1605 1.350 . S
N1603 S1601 1.610 . S
N1603 C1604 1.351 . S
C1604 C1598 1.428 . S
C1604 N1603 1.351 . S
C1604 C1605 1.434 . S
C1605 C1596 1.429 . S
C1605 N1602 1.350 . S
C1605 C1604 1.434 . S
C1606 C1607 1.369 . S
C1606 C1608 1.419 . S
C1606 H1610 0.930 . S
C1607 C1606 1.369 . S
C1607 C1616 1.429 . S
C1608 C1606 1.419 . S
C1608 C1609 1.363 . S
C1608 H1611 0.929 . S
C1609 C1608 1.363 . S
C1609 C1615 1.428 . S
H1610 C1606 0.930 . S
H1611 C1608 0.929 . S
S1612 N1613 1.613 . S
S1612 N1614 1.610 . S
N1613 S1612 1.613 . S
N1613 C1616 1.350 . S
N1614 S1612 1.610 . S
N1614 C1615 1.351 . S
C1615 C1609 1.428 . S
C1615 N1614 1.351 . S
C1615 C1616 1.434 . S
C1616 C1607 1.429 . S
C1616 N1613 1.350 . S
C1616 C1615 1.434 . S
C1617 C1618 1.369 . S
C1617 C1619 1.419 . S
C1617 H1621 0.930 . S
C1618 C1617 1.369 . S
C1618 C1627 1.429 . S
C1619 C1617 1.419 . S
C1619 C1620 1.363 . S
C1619 H1622 0.929 . S
C1620 C1619 1.363 . S
C1620 C1626 1.428 . S
H1621 C1617 0.930 . S
H1622 C1619 0.929 . S
S1623 N1624 1.613 . S
S1623 N1625 1.610 . S
N1624 S1623 1.613 . S
N1624 C1627 1.350 . S
N1625 S1623 1.610 . S
N1625 C1626 1.351 . S
C1626 C1620 1.428 . S
C1626 N1625 1.351 . S
C1626 C1627 1.434 . S
C1627 C1618 1.429 . S
C1627 N1624 1.350 . S
C1627 C1626 1.434 . S
C1628 C1629 1.369 . S
C1628 C1630 1.419 . S
C1628 H1632 0.930 . S
C1629 C1628 1.369 . S
C1629 C1638 1.429 . S
C1630 C1628 1.419 . S
C1630 C1631 1.363 . S
C1630 H1633 0.929 . S
C1631 C1630 1.363 . S
C1631 C1637 1.428 . S
H1632 C1628 0.930 . S
H1633 C1630 0.929 . S
S1634 N1635 1.613 . S
S1634 N1636 1.610 . S
N1635 S1634 1.613 . S
N1635 C1638 1.350 . S
N1636 S1634 1.610 . S
N1636 C1637 1.351 . S
C1637 C1631 1.428 . S
C1637 N1636 1.351 . S
C1637 C1638 1.434 . S
C1638 C1629 1.429 . S
C1638 N1635 1.350 . S
C1638 C1637 1.434 . S
C1639 C1640 1.369 . S
C1639 C1641 1.419 . S
C1639 H1643 0.930 . S
C1640 C1639 1.369 . S
C1640 C1649 1.429 . S
C1641 C1639 1.419 . S
C1641 C1642 1.363 . S
C1641 H1644 0.929 . S
C1642 C1641 1.363 . S
C1642 C1648 1.428 . S
H1643 C1639 0.930 . S
H1644 C1641 0.929 . S
S1645 N1646 1.613 . S
S1645 N1647 1.610 . S
N1646 S1645 1.613 . S
N1646 C1649 1.350 . S
N1647 S1645 1.610 . S
N1647 C1648 1.351 . S
C1648 C1642 1.428 . S
C1648 N1647 1.351 . S
C1648 C1649 1.434 . S
C1649 C1640 1.429 . S
C1649 N1646 1.350 . S
C1649 C1648 1.434 . S
C1650 C1651 1.369 . S
C1650 C1652 1.419 . S
C1650 H1654 0.930 . S
C1651 C1650 1.369 . S
C1651 C1660 1.429 . S
C1652 C1650 1.419 . S
C1652 C1653 1.363 . S
C1652 H1655 0.929 . S
C1653 C1652 1.363 . S
C1653 C1659 1.428 . S
H1654 C1650 0.930 . S
H1655 C1652 0.929 . S
S1656 N1657 1.613 . S
S1656 N1658 1.610 . S
N1657 S1656 1.613 . S
N1657 C1660 1.350 . S
N1658 S1656 1.610 . S
N1658 C1659 1.351 . S
C1659 C1653 1.428 . S
C1659 N1658 1.351 . S
C1659 C1660 1.434 . S
C1660 C1651 1.429 . S
C1660 N1657 1.350 . S
C1660 C1659 1.434 . S
C1661 C1662 1.369 . S
C1661 C1663 1.419 . S
C1661 H1665 0.930 . S
C1662 C1661 1.369 . S
C1662 C1671 1.429 . S
C1663 C1661 1.419 . S
C1663 C1664 1.363 . S
C1663 H1666 0.929 . S
C1664 C1663 1.363 . S
C1664 C1670 1.428 . S
H1665 C1661 0.930 . S
H1666 C1663 0.929 . S
S1667 N1668 1.613 . S
S1667 N1669 1.610 . S
N1668 S1667 1.613 . S
N1668 C1671 1.350 . S
N1669 S1667 1.610 . S
N1669 C1670 1.351 . S
C1670 C1664 1.428 . S
C1670 N1669 1.351 . S
C1670 C1671 1.434 . S
C1671 C1662 1.429 . S
C1671 N1668 1.350 . S
C1671 C1670 1.434 . S
C1672 C1673 1.369 . S
C1672 C1674 1.419 . S
C1672 H1676 0.930 . S
C1673 C1672 1.369 . S
C1673 C1682 1.429 . S
C1674 C1672 1.419 . S
C1674 C1675 1.363 . S
C1674 H1677 0.929 . S
C1675 C1674 1.363 . S
C1675 C1681 1.428 . S
H1676 C1672 0.930 . S
H1677 C1674 0.929 . S
S1678 N1679 1.613 . S
S1678 N1680 1.610 . S
N1679 S1678 1.613 . S
N1679 C1682 1.350 . S
N1680 S1678 1.610 . S
N1680 C1681 1.351 . S
C1681 C1675 1.428 . S
C1681 N1680 1.351 . S
C1681 C1682 1.434 . S
C1682 C1673 1.429 . S
C1682 N1679 1.350 . S
C1682 C1681 1.434 . S
C1683 C1684 1.369 . S
C1683 C1685 1.419 . S
C1683 H1687 0.930 . S
C1684 C1683 1.369 . S
C1684 C1693 1.429 . S
C1685 C1683 1.419 . S
C1685 C1686 1.363 . S
C1685 H1688 0.929 . S
C1686 C1685 1.363 . S
C1686 C1692 1.428 . S
H1687 C1683 0.930 . S
H1688 C1685 0.929 . S
S1689 N1690 1.613 . S
S1689 N1691 1.610 . S
N1690 S1689 1.613 . S
N1690 C1693 1.350 . S
N1691 S1689 1.610 . S
N1691 C1692 1.351 . S
C1692 C1686 1.428 . S
C1692 N1691 1.351 . S
C1692 C1693 1.434 . S
C1693 C1684 1.429 . S
C1693 N1690 1.350 . S
C1693 C1692 1.434 . S
C1694 C1695 1.369 . S
C1694 C1696 1.419 . S
C1694 H1698 0.930 . S
C1695 C1694 1.369 . S
C1695 C1704 1.429 . S
C1696 C1694 1.419 . S
C1696 C1697 1.363 . S
C1696 H1699 0.929 . S
C1697 C1696 1.363 . S
C1697 C1703 1.428 . S
H1698 C1694 0.930 . S
H1699 C1696 0.929 . S
S1700 N1701 1.613 . S
S1700 N1702 1.610 . S
N1701 S1700 1.613 . S
N1701 C1704 1.350 . S
N1702 S1700 1.610 . S
N1702 C1703 1.351 . S
C1703 C1697 1.428 . S
C1703 N1702 1.351 . S
C1703 C1704 1.434 . S
C1704 C1695 1.429 . S
C1704 N1701 1.350 . S
C1704 C1703 1.434 . S
C1705 C1706 1.369 . S
C1705 C1707 1.419 . S
C1705 H1709 0.930 . S
C1706 C1705 1.369 . S
C1706 C1715 1.429 . S
C1707 C1705 1.419 . S
C1707 C1708 1.363 . S
C1707 H1710 0.929 . S
C1708 C1707 1.363 . S
C1708 C1714 1.428 . S
H1709 C1705 0.930 . S
H1710 C1707 0.929 . S
S1711 N1712 1.613 . S
S1711 N1713 1.610 . S
N1712 S1711 1.613 . S
N1712 C1715 1.350 . S
N1713 S1711 1.610 . S
N1713 C1714 1.351 . S
C1714 C1708 1.428 . S
C1714 N1713 1.351 . S
C1714 C1715 1.434 . S
C1715 C1706 1.429 . S
C1715 N1712 1.350 . S
C1715 C1714 1.434 . S
C1716 C1717 1.369 . S
C1716 C1718 1.419 . S
C1716 H1720 0.930 . S
C1717 C1716 1.369 . S
C1717 C1726 1.429 . S
C1718 C1716 1.419 . S
C1718 C1719 1.363 . S
C1718 H1721 0.929 . S
C1719 C1718 1.363 . S
C1719 C1725 1.428 . S
H1720 C1716 0.930 . S
H1721 C1718 0.929 . S
S1722 N1723 1.613 . S
S1722 N1724 1.610 . S
N1723 S1722 1.613 . S
N1723 C1726 1.350 . S
N1724 S1722 1.610 . S
N1724 C1725 1.351 . S
C1725 C1719 1.428 . S
C1725 N1724 1.351 . S
C1725 C1726 1.434 . S
C1726 C1717 1.429 . S
C1726 N1723 1.350 . S
C1726 C1725 1.434 . S
C1727 C1728 1.369 . S
C1727 C1729 1.419 . S
C1727 H1731 0.930 . S
C1728 C1727 1.369 . S
C1728 C1737 1.429 . S
C1729 C1727 1.419 . S
C1729 C1730 1.363 . S
C1729 H1732 0.929 . S
C1730 C1729 1.363 . S
C1730 C1736 1.428 . S
H1731 C1727 0.930 . S
H1732 C1729 0.929 . S
S1733 N1734 1.613 . S
S1733 N1735 1.610 . S
N1734 S1733 1.613 . S
N1734 C1737 1.350 . S
N1735 S1733 1.610 . S
N1735 C1736 1.351 . S
C1736 C1730 1.428 . S
C1736 N1735 1.351 . S
C1736 C1737 1.434 . S
C1737 C1728 1.429 . S
C1737 N1734 1.350 . S
C1737 C1736 1.434 . S
C1738 C1739 1.369 . S
C1738 C1740 1.419 . S
C1738 H1742 0.930 . S
C1739 C1738 1.369 . S
C1739 C1748 1.429 . S
C1740 C1738 1.419 . S
C1740 C1741 1.363 . S
C1740 H1743 0.929 . S
C1741 C1740 1.363 . S
C1741 C1747 1.428 . S
H1742 C1738 0.930 . S
H1743 C1740 0.929 . S
S1744 N1745 1.613 . S
S1744 N1746 1.610 . S
N1745 S1744 1.613 . S
N1745 C1748 1.350 . S
N1746 S1744 1.610 . S
N1746 C1747 1.351 . S
C1747 C1741 1.428 . S
C1747 N1746 1.351 . S
C1747 C1748 1.434 . S
C1748 C1739 1.429 . S
C1748 N1745 1.350 . S
C1748 C1747 1.434 . S
C1749 C1750 1.369 . S
C1749 C1751 1.419 . S
C1749 H1753 0.930 . S
C1750 C1749 1.369 . S
C1750 C1759 1.429 . S
C1751 C1749 1.419 . S
C1751 C1752 1.363 . S
C1751 H1754 0.929 . S
C1752 C1751 1.363 . S
C1752 C1758 1.428 . S
H1753 C1749 0.930 . S
H1754 C1751 0.929 . S
S1755 N1756 1.613 . S
S1755 N1757 1.610 . S
N1756 S1755 1.613 . S
N1756 C1759 1.350 . S
N1757 S1755 1.610 . S
N1757 C1758 1.351 . S
C1758 C1752 1.428 . S
C1758 N1757 1.351 . S
C1758 C1759 1.434 . S
C1759 C1750 1.429 . S
C1759 N1756 1.350 . S
C1759 C1758 1.434 . S
C1760 C1761 1.369 . S
C1760 C1762 1.419 . S
C1760 H1764 0.930 . S
C1761 C1760 1.369 . S
C1761 C1770 1.429 . S
C1762 C1760 1.419 . S
C1762 C1763 1.363 . S
C1762 H1765 0.929 . S
C1763 C1762 1.363 . S
C1763 C1769 1.428 . S
H1764 C1760 0.930 . S
H1765 C1762 0.929 . S
S1766 N1767 1.613 . S
S1766 N1768 1.610 . S
N1767 S1766 1.613 . S
N1767 C1770 1.350 . S
N1768 S1766 1.610 . S
N1768 C1769 1.351 . S
C1769 C1763 1.428 . S
C1769 N1768 1.351 . S
C1769 C1770 1.434 . S
C1770 C1761 1.429 . S
C1770 N1767 1.350 . S
C1770 C1769 1.434 . S
C1771 C1772 1.369 . S
C1771 C1773 1.414 1_655 S
C1771 H1775 0.930 . S
C1772 C1771 1.369 . S
C1772 C1781 1.429 . S
C1773 C1771 1.414 1_455 S
C1773 C1774 1.368 . S
C1773 H1776 0.929 . S
C1774 C1773 1.368 . S
C1774 C1780 1.428 . S
H1775 C1771 0.930 . S
H1776 C1773 0.929 . S
S1777 N1778 1.613 1_455 S
S1777 N1779 1.610 . S
N1778 S1777 1.613 1_655 S
N1778 C1781 1.350 . S
N1779 S1777 1.610 . S
N1779 C1780 1.351 . S
C1780 C1774 1.428 . S
C1780 N1779 1.351 . S
C1780 C1781 1.434 1_455 S
C1781 C1772 1.429 . S
C1781 N1778 1.350 . S
C1781 C1780 1.434 1_655 S
C1782 C1783 1.369 . S
C1782 C1784 1.419 1_455 S
C1782 H1786 0.930 . S
C1783 C1782 1.369 . S
C1783 C1792 1.429 . S
C1784 C1782 1.419 1_655 S
C1784 C1785 1.363 . S
C1784 H1787 0.929 . S
C1785 C1784 1.363 . S
C1785 C1791 1.428 . S
H1786 C1782 0.930 . S
H1787 C1784 0.929 . S
S1788 N1789 1.613 1_655 S
S1788 N1790 1.610 . S
N1789 S1788 1.613 1_455 S
N1789 C1792 1.350 . S
N1790 S1788 1.610 . S
N1790 C1791 1.351 . S
C1791 C1785 1.428 . S
C1791 N1790 1.351 . S
C1791 C1792 1.434 1_655 S
C1792 C1783 1.429 . S
C1792 N1789 1.350 . S
C1792 C1791 1.434 1_455 S
C1793 C1794 1.369 . S
C1793 C1795 1.419 . S
C1793 H1797 0.930 . S
C1794 C1793 1.369 . S
C1794 C1803 1.429 . S
C1795 C1793 1.419 . S
C1795 C1796 1.363 . S
C1795 H1798 0.929 . S
C1796 C1795 1.363 . S
C1796 C1802 1.428 . S
H1797 C1793 0.930 . S
H1798 C1795 0.929 . S
S1799 N1800 1.613 . S
S1799 N1801 1.610 . S
N1800 S1799 1.613 . S
N1800 C1803 1.350 . S
N1801 S1799 1.610 . S
N1801 C1802 1.351 . S
C1802 C1796 1.428 . S
C1802 N1801 1.351 . S
C1802 C1803 1.434 . S
C1803 C1794 1.429 . S
C1803 N1800 1.350 . S
C1803 C1802 1.434 . S
C1804 C1805 1.369 . S
C1804 C1806 1.419 . S
C1804 H1808 0.930 . S
C1805 C1804 1.369 . S
C1805 C1814 1.429 . S
C1806 C1804 1.419 . S
C1806 C1807 1.363 . S
C1806 H1809 0.929 . S
C1807 C1806 1.363 . S
C1807 C1813 1.428 . S
H1808 C1804 0.930 . S
H1809 C1806 0.929 . S
S1810 N1811 1.613 . S
S1810 N1812 1.610 . S
N1811 S1810 1.613 . S
N1811 C1814 1.350 . S
N1812 S1810 1.610 . S
N1812 C1813 1.351 . S
C1813 C1807 1.428 . S
C1813 N1812 1.351 . S
C1813 C1814 1.434 . S
C1814 C1805 1.429 . S
C1814 N1811 1.350 . S
C1814 C1813 1.434 . S
C1815 C1816 1.369 . S
C1815 C1817 1.419 . S
C1815 H1819 0.930 . S
C1816 C1815 1.369 . S
C1816 C1825 1.429 . S
C1817 C1815 1.419 . S
C1817 C1818 1.363 . S
C1817 H1820 0.929 . S
C1818 C1817 1.363 . S
C1818 C1824 1.428 . S
H1819 C1815 0.930 . S
H1820 C1817 0.929 . S
S1821 N1822 1.613 . S
S1821 N1823 1.610 . S
N1822 S1821 1.613 . S
N1822 C1825 1.350 . S
N1823 S1821 1.610 . S
N1823 C1824 1.351 . S
C1824 C1818 1.428 . S
C1824 N1823 1.351 . S
C1824 C1825 1.434 . S
C1825 C1816 1.429 . S
C1825 N1822 1.350 . S
C1825 C1824 1.434 . S
C1826 C1827 1.369 . S
C1826 C1828 1.419 1_655 S
C1826 H1830 0.930 . S
C1827 C1826 1.369 . S
C1827 C1836 1.429 . S
C1828 C1826 1.419 1_455 S
C1828 C1829 1.363 . S
C1828 H1831 0.929 . S
C1829 C1828 1.363 . S
C1829 C1835 1.428 . S
H1830 C1826 0.930 . S
H1831 C1828 0.929 . S
S1832 N1833 1.613 1_455 S
S1832 N1834 1.610 . S
N1833 S1832 1.613 1_655 S
N1833 C1836 1.350 . S
N1834 S1832 1.610 . S
N1834 C1835 1.351 . S
C1835 C1829 1.428 . S
C1835 N1834 1.351 . S
C1835 C1836 1.434 1_455 S
C1836 C1827 1.429 . S
C1836 N1833 1.350 . S
C1836 C1835 1.434 1_655 S
C1837 C1838 1.369 . S
C1837 C1839 1.419 . S
C1837 H1841 0.930 . S
C1838 C1837 1.369 . S
C1838 C1847 1.429 1_655 S
C1839 C1837 1.419 . S
C1839 C1840 1.363 1_655 S
C1839 H1842 0.929 . S
C1840 C1839 1.363 1_455 S
C1840 C1846 1.428 . S
H1841 C1837 0.930 . S
H1842 C1839 0.929 . S
S1843 N1844 1.613 . S
S1843 N1845 1.610 . S
N1844 S1843 1.613 . S
N1844 C1847 1.350 . S
N1845 S1843 1.610 . S
N1845 C1846 1.351 . S
C1846 C1840 1.428 . S
C1846 N1845 1.351 . S
C1846 C1847 1.434 . S
C1847 C1838 1.429 1_455 S
C1847 N1844 1.350 . S
C1847 C1846 1.434 . S
C1848 C1849 1.369 . S
C1848 C1850 1.419 . S
C1848 H1852 0.930 . S
C1849 C1848 1.369 . S
C1849 C1858 1.429 . S
C1850 C1848 1.419 . S
C1850 C1851 1.363 . S
C1850 H1853 0.929 . S
C1851 C1850 1.363 . S
C1851 C1857 1.428 . S
H1852 C1848 0.930 . S
H1853 C1850 0.929 . S
S1854 N1855 1.613 . S
S1854 N1856 1.610 . S
N1855 S1854 1.613 . S
N1855 C1858 1.350 . S
N1856 S1854 1.610 . S
N1856 C1857 1.351 . S
C1857 C1851 1.428 . S
C1857 N1856 1.351 . S
C1857 C1858 1.434 . S
C1858 C1849 1.429 . S
C1858 N1855 1.350 . S
C1858 C1857 1.434 . S
C1859 C1860 1.369 . S
C1859 C1861 1.419 . S
C1859 H1863 0.930 . S
C1860 C1859 1.369 . S
C1860 C1869 1.429 1_455 S
C1861 C1859 1.419 . S
C1861 C1862 1.363 1_455 S
C1861 H1864 0.929 . S
C1862 C1861 1.363 1_655 S
C1862 C1868 1.428 . S
H1863 C1859 0.930 . S
H1864 C1861 0.929 . S
S1865 N1866 1.613 . S
S1865 N1867 1.610 . S
N1866 S1865 1.613 . S
N1866 C1869 1.350 . S
N1867 S1865 1.610 . S
N1867 C1868 1.351 . S
C1868 C1862 1.428 . S
C1868 N1867 1.351 . S
C1868 C1869 1.434 . S
C1869 C1860 1.429 1_655 S
C1869 N1866 1.350 . S
C1869 C1868 1.434 . S
C1870 C1871 1.369 . S
C1870 C1872 1.419 1_655 S
C1870 H1874 0.930 . S
C1871 C1870 1.369 . S
C1871 C1880 1.429 . S
C1872 C1870 1.419 1_455 S
C1872 C1873 1.363 . S
C1872 H1875 0.929 . S
C1873 C1872 1.363 . S
C1873 C1879 1.428 . S
H1874 C1870 0.930 . S
H1875 C1872 0.929 . S
S1876 N1877 1.613 1_455 S
S1876 N1878 1.610 . S
N1877 S1876 1.613 1_655 S
N1877 C1880 1.350 . S
N1878 S1876 1.610 . S
N1878 C1879 1.351 . S
C1879 C1873 1.428 . S
C1879 N1878 1.351 . S
C1879 C1880 1.434 1_455 S
C1880 C1871 1.429 . S
C1880 N1877 1.350 . S
C1880 C1879 1.434 1_655 S
C1881 C1882 1.369 . S
C1881 C1883 1.419 . S
C1881 H1885 0.930 . S
C1882 C1881 1.369 . S
C1882 C1891 1.429 . S
C1883 C1881 1.419 . S
C1883 C1884 1.363 . S
C1883 H1886 0.929 . S
C1884 C1883 1.363 . S
C1884 C1890 1.428 . S
H1885 C1881 0.930 . S
H1886 C1883 0.929 . S
S1887 N1888 1.613 . S
S1887 N1889 1.610 . S
N1888 S1887 1.613 . S
N1888 C1891 1.350 . S
N1889 S1887 1.610 . S
N1889 C1890 1.351 . S
C1890 C1884 1.428 . S
C1890 N1889 1.351 . S
C1890 C1891 1.434 . S
C1891 C1882 1.429 . S
C1891 N1888 1.350 . S
C1891 C1890 1.434 . S
C1892 C1893 1.369 . S
C1892 C1894 1.419 . S
C1892 H1896 0.930 . S
C1893 C1892 1.369 . S
C1893 C1902 1.429 . S
C1894 C1892 1.419 . S
C1894 C1895 1.363 . S
C1894 H1897 0.929 . S
C1895 C1894 1.363 . S
C1895 C1901 1.428 . S
H1896 C1892 0.930 . S
H1897 C1894 0.929 . S
S1898 N1899 1.613 . S
S1898 N1900 1.610 . S
N1899 S1898 1.613 . S
N1899 C1902 1.350 . S
N1900 S1898 1.610 . S
N1900 C1901 1.351 . S
C1901 C1895 1.428 . S
C1901 N1900 1.351 . S
C1901 C1902 1.434 . S
C1902 C1893 1.429 . S
C1902 N1899 1.350 . S
C1902 C1901 1.434 . S
C1903 C1904 1.369 . S
C1903 C1905 1.419 . S
C1903 H1907 0.930 . S
C1904 C1903 1.369 . S
C1904 C1913 1.429 . S
C1905 C1903 1.419 . S
C1905 C1906 1.363 . S
C1905 H1908 0.929 . S
C1906 C1905 1.363 . S
C1906 C1912 1.428 . S
H1907 C1903 0.930 . S
H1908 C1905 0.929 . S
S1909 N1910 1.613 . S
S1909 N1911 1.610 . S
N1910 S1909 1.613 . S
N1910 C1913 1.350 . S
N1911 S1909 1.610 . S
N1911 C1912 1.351 . S
C1912 C1906 1.428 . S
C1912 N1911 1.351 . S
C1912 C1913 1.434 . S
C1913 C1904 1.429 . S
C1913 N1910 1.350 . S
C1913 C1912 1.434 . S
C1914 C1915 1.369 . S
C1914 C1916 1.419 1_455 S
C1914 H1918 0.930 . S
C1915 C1914 1.369 . S
C1915 C1924 1.429 . S
C1916 C1914 1.419 1_655 S
C1916 C1917 1.363 . S
C1916 H1919 0.929 . S
C1917 C1916 1.363 . S
C1917 C1923 1.428 . S
H1918 C1914 0.930 . S
H1919 C1916 0.929 . S
S1920 N1921 1.613 1_655 S
S1920 N1922 1.610 . S
N1921 S1920 1.613 1_455 S
N1921 C1924 1.350 . S
N1922 S1920 1.610 . S
N1922 C1923 1.351 . S
C1923 C1917 1.428 . S
C1923 N1922 1.351 . S
C1923 C1924 1.434 1_655 S
C1924 C1915 1.429 . S
C1924 N1921 1.350 . S
C1924 C1923 1.434 1_455 S
C1925 C1926 1.369 . S
C1925 C1927 1.419 . S
C1925 H1929 0.930 . S
C1926 C1925 1.369 . S
C1926 C1935 1.429 1_455 S
C1927 C1925 1.419 . S
C1927 C1928 1.363 1_455 S
C1927 H1930 0.929 . S
C1928 C1927 1.363 1_655 S
C1928 C1934 1.428 . S
H1929 C1925 0.930 . S
H1930 C1927 0.929 . S
S1931 N1932 1.613 . S
S1931 N1933 1.610 . S
N1932 S1931 1.613 . S
N1932 C1935 1.350 . S
N1933 S1931 1.610 . S
N1933 C1934 1.351 . S
C1934 C1928 1.428 . S
C1934 N1933 1.351 . S
C1934 C1935 1.434 . S
C1935 C1926 1.429 1_655 S
C1935 N1932 1.350 . S
C1935 C1934 1.434 . S
C1057 C18 1.504 . S
C1059 C249 1.509 . S
C1068 C51 1.504 . S
C1070 C150 1.507 . S
C1079 C84 1.505 . S
C1081 C183 1.510 . S
C1090 C117 1.510 . S
C1092 C216 1.505 . S
C1101 C513 1.508 . S
C1103 C282 1.510 . S
C1112 C315 1.510 . S
C1114 C414 1.505 . S
C1123 C447 1.504 . S
C1125 C348 1.509 . S
C1134 C381 1.510 . S
C1136 C480 1.509 . S
C1145 C546 1.504 . S
C1147 C777 1.508 . S
C1156 C678 1.508 . S
C1158 C579 1.504 . S
C1167 C612 1.505 . S
C1169 C711 1.505 . S
C1178 C645 1.504 . S
C1180 C744 1.506 . S
C1189 C810 1.507 . S
C1191 C1041 1.505 . S
C1200 C843 1.507 . S
C1202 C942 1.510 . S
C1211 C975 1.506 . S
C1213 C876 1.505 . S
C1222 C1008 1.504 . S
C1224 C909 1.506 . S
C1233 C205 1.620 . S
C1235 C7 1.618 . S
C1244 C40 1.624 . S
C1246 C238 1.615 . S
C1255 C73 1.624 . S
C1257 C139 1.615 . S
C1266 C106 1.621 . S
C1268 C172 1.618 . S
C1277 C271 1.620 . S
C1279 C469 1.617 . S
C1288 C502 1.624 . S
C1290 C304 1.615 . S
C1299 C403 1.618 . S
C1301 C337 1.619 . S
C1310 C436 1.624 . S
C1312 C370 1.616 . S
C1321 C535 1.616 . S
C1323 C733 1.622 . S
C1332 C766 1.614 . S
C1334 C568 1.623 . S
C1343 C667 1.620 . S
C1345 C601 1.619 . S
C1354 C634 1.622 . S
C1356 C700 1.617 . S
C1365 C997 1.619 . S
C1367 C799 1.619 . S
C1376 C832 1.624 . S
C1378 C1030 1.616 . S
C1387 C931 1.617 . S
C1389 C865 1.621 . S
C1398 C964 1.624 . S
C1400 C898 1.615 . S
C1409 N926 1.349 . S
C1411 N13 1.348 . S
C1420 N431 1.350 . S
C1422 N46 1.347 . S
C1431 N992 1.345 . S
C1433 N79 1.350 . S
C1442 N112 1.348 . S
C1444 N497 1.348 . S
C1453 N794 1.351 . S
C1455 N145 1.346 . S
C1464 N299 1.350 . S
C1466 N178 1.347 . S
C1475 N860 1.348 . S
C1477 N211 1.347 . S
C1486 N244 1.344 . S
C1488 N365 1.351 . S
C1497 N277 1.348 . S
C1499 N662 1.348 . S
C1508 N310 1.345 . S
C1510 N167 1.350 . S
C1519 N343 1.344 . S
C1521 N728 1.351 . S
C1530 N233 1.348 . S
C1532 N376 1.348 . S
C1541 N530 1.348 . S
C1543 N409 1.348 . S
C1552 N442 1.344 . S
C1554 N35 1.351 . S
C1563 N475 1.345 . S
C1565 N596 1.350 . S
C1574 N508 1.351 . S
C1576 N101 1.346 . S
C1585 N398 1.351 . S
C1587 N541 1.346 . S
C1596 N574 1.351 . S
C1598 N959 1.346 . S
C1607 N464 1.346 . S
C1609 N607 1.350 . S
C1618 N640 1.350 . S
C1620 N1025 1.346 . S
C1629 N673 1.349 . S
C1631 N266 1.347 . S
C1640 N706 1.349 . S
C1642 N827 1.347 . S
C1651 N332 1.347 . S
C1653 N739 1.349 . S
C1662 N772 1.350 . S
C1664 N893 1.347 . S
C1673 N134 1.345 . S
C1675 N805 1.350 . S
C1684 N695 1.351 . S
C1686 N838 1.345 . S
C1695 N200 1.347 . S
C1697 N871 1.348 . S
C1706 N761 1.348 . S
C1708 N904 1.348 . S
C1717 N2 1.352 . S
C1719 N937 1.345 . S
C1728 N563 1.346 . S
C1730 N970 1.350 . S
C1739 N1003 1.346 . S
C1741 N68 1.350 . S
C1750 N629 1.349 . S
C1752 N1036 1.347 . S
C1761 C615 1.115 . S
C1763 C21 1.117 . S
C1772 C648 1.116 . S
C1774 C54 1.116 . S
C1783 C87 1.120 . S
C1785 C549 1.116 . S
C1794 C120 1.115 . S
C1796 C582 1.118 . S
C1805 C747 1.120 . S
C1807 C153 1.117 . S
C1816 C186 1.120 . S
C1818 C780 1.119 . S
C1827 C681 1.120 . S
C1829 C219 1.117 . S
C1838 C714 1.116 . S
C1840 C252 1.119 . S
C1849 C879 1.115 . S
C1851 C285 1.119 . S
C1860 C912 1.117 . S
C1862 C318 1.120 . S
C1871 C351 1.118 . S
C1873 C813 1.115 . S
C1882 C384 1.120 . S
C1884 C846 1.119 . S
C1893 C417 1.117 . S
C1895 C1011 1.120 . S
C1904 C450 1.115 . S
C1906 C1044 1.117 . S
C1915 C945 1.119 . S
C1917 C483 1.116 . S
C1926 C978 1.118 . S
C1928 C516 1.120 . S
