# Generated by pormake.
# Topology rkf, (6)-cn, num edge types: 1
# Building blocks:
#     Node 0, Type 0, BuildingBlock: VOLQOD_clean_sbu_1, # of connection points: 6
#     Node 1, Type 0, BuildingBlock: VOLQOD_clean_sbu_1, # of connection points: 6
#     Node 2, Type 0, BuildingBlock: VOLQOD_clean_sbu_1, # of connection points: 6
#     Node 3, Type 0, BuildingBlock: VOLQOD_clean_sbu_1, # of connection points: 6
#     Node 4, Type 0, BuildingBlock: VOLQOD_clean_sbu_1, # of connection points: 6
#     Node 5, Type 0, BuildingBlock: VOLQOD_clean_sbu_1, # of connection points: 6
#     Edge 6, Type (0, 0), BuildingBlock: KIFKEQ_clean_linker_1, # of connection points: 2
#     Edge 7, Type (0, 0), BuildingBlock: KIFKEQ_clean_linker_1, # of connection points: 2
#     Edge 8, Type (0, 0), BuildingBlock: KIFKEQ_clean_linker_1, # of connection points: 2
#     Edge 9, Type (0, 0), BuildingBlock: KIFKEQ_clean_linker_1, # of connection points: 2
#     Edge 10, Type (0, 0), BuildingBlock: KIFKEQ_clean_linker_1, # of connection points: 2
#     Edge 11, Type (0, 0), BuildingBlock: KIFKEQ_clean_linker_1, # of connection points: 2
#     Edge 12, Type (0, 0), BuildingBlock: KIFKEQ_clean_linker_1, # of connection points: 2
#     Edge 13, Type (0, 0), BuildingBlock: KIFKEQ_clean_linker_1, # of connection points: 2
#     Edge 14, Type (0, 0), BuildingBlock: KIFKEQ_clean_linker_1, # of connection points: 2
#     Edge 15, Type (0, 0), BuildingBlock: KIFKEQ_clean_linker_1, # of connection points: 2
#     Edge 16, Type (0, 0), BuildingBlock: KIFKEQ_clean_linker_1, # of connection points: 2
#     Edge 17, Type (0, 0), BuildingBlock: KIFKEQ_clean_linker_1, # of connection points: 2
#     Edge 18, Type (0, 0), BuildingBlock: KIFKEQ_clean_linker_1, # of connection points: 2
#     Edge 19, Type (0, 0), BuildingBlock: KIFKEQ_clean_linker_1, # of connection points: 2
#     Edge 20, Type (0, 0), BuildingBlock: KIFKEQ_clean_linker_1, # of connection points: 2
#     Edge 21, Type (0, 0), BuildingBlock: KIFKEQ_clean_linker_1, # of connection points: 2
#     Edge 22, Type (0, 0), BuildingBlock: KIFKEQ_clean_linker_1, # of connection points: 2
#     Edge 23, Type (0, 0), BuildingBlock: KIFKEQ_clean_linker_1, # of connection points: 2
# Relax obj value: 0.814
# Max RMSD: 0.323
# Mean RMSD: 0.323
data_MOF--net-rkf--node1-VOLQOD_clean_sbu_1--edge1-KIFKEQ_clean_linker_1
_symmetry_space_group_name_H-M    P1
_symmetry_Int_Tables_number       1
_symmetry_cell_setting            triclinic
loop_
_symmetry_equiv_pos_as_xyz
'x, y, z'
_cell_length_a     28.659224
_cell_length_b     28.529153
_cell_length_c     37.946893
_cell_angle_alpha  89.848448
_cell_angle_beta   89.766004
_cell_angle_gamma 119.85119
loop_
_atom_site_label
_atom_site_type_symbol
_atom_site_fract_x
_atom_site_fract_y
_atom_site_fract_z
_atom_type_partial_charge
O0 O 0.11336 0.92066 0.97299 0.0
Zn1 Zn 0.16244 0.90147 -0.00117 0.0
O2 O 0.22405 0.97104 0.0073 0.0
Zn3 Zn 0.2745 0.99344 0.97007 0.0
Zn4 Zn 0.20107 0.02302 0.01187 0.0
Zn5 Zn 0.25619 0.96492 0.04903 0.0
O6 O 0.34796 0.01644 0.99039 0.0
O7 O 0.32139 0.95793 0.03546 0.0
O8 O 0.18562 0.85692 0.96859 0.0
O9 O 0.25996 0.9268 0.94629 0.0
O10 O 0.26672 0.04515 0.93483 0.0
O11 O 0.21603 0.06717 0.96737 0.0
O12 O 0.24298 0.07563 0.05116 0.0
O13 O 0.12858 0.86776 0.04618 0.0
O14 O 0.28888 0.03691 0.0708 0.0
O15 O 0.19744 0.90978 0.0829 0.0
C16 C 0.09869 0.95248 0.98607 0.0
C17 C 0.35757 0.9892 0.01327 0.0
C18 C 0.24129 0.07111 0.93885 0.0
C19 C 0.22748 0.87631 0.94886 0.0
C20 C 0.28037 0.07656 0.06992 0.0
C21 C 0.14763 0.8759 0.07739 0.0
O22 O 0.12044 0.97834 0.01435 0.0
O23 O 0.30902 0.16182 0.30242 0.0
Zn24 Zn 0.3443 0.23728 0.31966 0.0
O25 O 0.2934 0.26337 0.31955 0.0
Zn26 Zn 0.3102 0.31666 0.28347 0.0
Zn27 Zn 0.22097 0.20505 0.31282 0.0
Zn28 Zn 0.30021 0.29657 0.36446 0.0
O29 O 0.34882 0.39097 0.30369 0.0
O30 O 0.35208 0.37752 0.36118 0.0
O31 O 0.40517 0.27967 0.28514 0.0
O32 O 0.36422 0.3133 0.25241 0.0
O33 O 0.24469 0.30273 0.25407 0.0
O34 O 0.18528 0.2197 0.27172 0.0
O35 O 0.17714 0.19878 0.35615 0.0
O36 O 0.36202 0.22469 0.3696 0.0
O37 O 0.22717 0.28089 0.37897 0.0
O38 O 0.32205 0.25955 0.40176 0.0
C39 C 0.26001 0.1254 0.30001 0.0
C40 C 0.36556 0.40906 0.33447 0.0
C41 C 0.19832 0.2605 0.25179 0.0
C42 C 0.40168 0.30209 0.2568 0.0
C43 C 0.18324 0.23597 0.37738 0.0
C44 C 0.34605 0.23217 0.39942 0.0
O45 O 0.22193 0.1357 0.30479 0.0
O46 O 0.96624 0.11708 0.70367 0.0
Zn47 Zn 0.03216 0.18789 0.69108 0.0
O48 O 0.01421 0.24349 0.69459 0.0
Zn49 Zn 0.03067 0.27968 0.65108 0.0
Zn50 Zn 0.93893 0.20553 0.69996 0.0
Zn51 Zn 0.04569 0.29113 0.7326 0.0
O52 O 0.05486 0.3585 0.65856 0.0
O53 O 0.08689 0.36814 0.71331 0.0
O54 O 0.05442 0.18563 0.64079 0.0
O55 O 0.09111 0.27338 0.63124 0.0
O56 O 0.96946 0.23644 0.61696 0.0
O57 O 0.90863 0.17286 0.65231 0.0
O58 O 0.91679 0.25583 0.72034 0.0
O59 O 0.08872 0.20104 0.72738 0.0
O60 O 0.98459 0.29287 0.75856 0.0
O61 O 0.08999 0.26485 0.76213 0.0
C62 C 0.9355 0.11163 0.72961 0.0
C63 C 0.08058 0.38825 0.6847 0.0
C64 C 0.92631 0.19111 0.62138 0.0
C65 C 0.08085 0.22682 0.62103 0.0
C66 C 0.93892 0.28462 0.7475 0.0
C67 C 0.10469 0.22994 0.75517 0.0
O68 O 0.92353 0.14803 0.73603 0.0
O69 O 0.97045 0.19475 0.9473 0.0
Zn70 Zn 0.91319 0.18033 0.9833 0.0
O71 O 0.87552 0.10447 0.98977 0.0
Zn72 Zn 0.82523 0.07047 0.95301 0.0
Zn73 Zn 0.9319 0.08807 0.99159 0.0
Zn74 Zn 0.84187 0.08961 0.03391 0.0
O75 O 0.74962 0.02913 0.97461 0.0
O76 O 0.76365 0.06699 0.02779 0.0
O77 O 0.86245 0.20154 0.96258 0.0
O78 O 0.82129 0.13045 0.92689 0.0
O79 O 0.84973 0.02544 0.92215 0.0
O80 O 0.92094 0.0364 0.9526 0.0
O81 O 0.93084 0.05305 0.0378 0.0
O82 O 0.94694 0.21341 0.03037 0.0
O83 O 0.8476 0.0291 0.05492 0.0
O84 O 0.8862 0.15202 0.06683 0.0
C85 C 0.00747 0.18465 0.95549 0.0
C86 C 0.73181 0.03883 0.00311 0.0
C87 C 0.88857 0.01575 0.92689 0.0
C88 C 0.83128 0.17746 0.93675 0.0
C89 C 0.89029 0.02609 0.05788 0.0
C90 C 0.93021 0.19621 0.0616 0.0
O91 O 0.00218 0.15687 0.9831 0.0
O92 O 0.98969 0.89427 0.38186 0.0
Zn93 Zn 0.92083 0.8945 0.37142 0.0
O94 O 0.86299 0.82047 0.36838 0.0
Zn95 Zn 0.82667 0.81357 0.32521 0.0
Zn96 Zn 0.88956 0.77031 0.36593 0.0
Zn97 Zn 0.81269 0.80467 0.40567 0.0
O98 O 0.74679 0.76056 0.32982 0.0
O99 O 0.73713 0.76502 0.3877 0.0
O100 O 0.92675 0.9277 0.32309 0.0
O101 O 0.83901 0.88696 0.31586 0.0
O102 O 0.86451 0.7962 0.28593 0.0
O103 O 0.89914 0.75317 0.31489 0.0
O104 O 0.84977 0.70957 0.4012 0.0
O105 O 0.9059 0.93536 0.40933 0.0
O106 O 0.81852 0.75104 0.43591 0.0
O107 O 0.8289 0.87273 0.43344 0.0
C108 C 1.00094 0.85649 0.38543 0.0
C109 C 0.71716 0.7477 0.35738 0.0
C110 C 0.89187 0.77203 0.28613 0.0
C111 C 0.88617 0.9204 0.30517 0.0
C112 C 0.8292 0.71324 0.43036 0.0
C113 C 0.86792 0.92144 0.43181 0.0
O114 O 0.96565 0.80717 0.38145 0.0
O115 O 0.14311 0.00199 0.67245 0.0
Zn116 Zn 0.10184 0.92085 0.6748 0.0
O117 O 0.15576 0.90076 0.68022 0.0
Zn118 Zn 0.16465 0.86967 0.63853 0.0
Zn119 Zn 0.22282 0.96502 0.68888 0.0
Zn120 Zn 0.13597 0.85202 0.71846 0.0
O121 O 0.17192 0.80455 0.65209 0.0
O122 O 0.11759 0.77867 0.69954 0.0
O123 O 0.05122 0.87751 0.63516 0.0
O124 O 0.09388 0.83538 0.61557 0.0
O125 O 0.21993 0.92955 0.60508 0.0
O126 O 0.25455 0.99969 0.64163 0.0
O127 O 0.27034 0.94582 0.71888 0.0
O128 O 0.05653 0.90419 0.71873 0.0
O129 O 0.20312 0.87098 0.74281 0.0
O130 O 0.08188 0.85747 0.75269 0.0
C131 C 0.16747 0.02444 0.701 0.0
C132 C 0.14318 0.7691 0.67544 0.0
C133 C 0.2497 0.98035 0.61067 0.0
C134 C 0.0529 0.84147 0.61615 0.0
C135 C 0.25294 0.90499 0.73954 0.0
C136 C 0.05359 0.88026 0.74768 0.0
O137 O 0.20015 0.01156 0.71466 0.0
H138 H 0.97645 0.13773 0.89133 0.0
H139 H 0.11439 0.22053 0.95869 0.0
H140 H 0.00319 0.07122 0.87728 0.0
H141 H 0.14058 0.15412 0.9449 0.0
H142 H 0.11533 0.97066 0.91506 0.0
H143 H 0.10534 0.03944 0.88218 0.0
H144 H 0.02396 0.05965 0.97165 0.0
H145 H 0.03357 0.99153 0.00441 0.0
C146 C 0.01504 0.14464 0.90069 0.0
C147 C 0.04184 0.182 0.9278 0.0
C148 C 0.02999 0.10604 0.89281 0.0
C149 C 0.07237 0.10655 0.91133 0.0
C150 C 0.10745 0.15286 0.93046 0.0
C151 C 0.09242 0.19114 0.9384 0.0
C152 C 0.09308 0.98804 0.92705 0.0
C153 C 0.07564 0.97644 0.96246 0.0
C154 C 0.08811 0.0277 0.90834 0.0
C155 C 0.06523 0.05519 0.9249 0.0
C156 C 0.04214 0.03887 0.9586 0.0
C157 C 0.04739 0.99986 0.97728 0.0
H158 H 0.04404 0.80731 0.34734 0.0
H159 H 0.08554 0.93994 0.41858 0.0
H160 H 0.13391 0.8555 0.32163 0.0
H161 H 0.17633 0.98645 0.39437 0.0
H162 H 0.17659 0.03849 0.26871 0.0
H163 H 0.13473 0.94717 0.29256 0.0
H164 H 0.26933 0.99471 0.36234 0.0
H165 H 0.313 0.08522 0.33674 0.0
C166 C 0.07351 0.84494 0.35929 0.0
C167 C 0.05774 0.87101 0.38414 0.0
C168 C 0.12509 0.87224 0.34463 0.0
C169 C 0.16136 0.9249 0.35557 0.0
C170 C 0.14888 0.9458 0.38543 0.0
C171 C 0.09678 0.91946 0.39919 0.0
C172 C 0.19882 0.02839 0.28735 0.0
C173 C 0.24712 0.06883 0.30155 0.0
C174 C 0.17517 0.97602 0.30089 0.0
C175 C 0.19858 0.96452 0.32975 0.0
C176 C 0.25078 0.00271 0.34003 0.0
C177 C 0.27543 0.05459 0.32549 0.0
H178 H 0.14947 0.00931 0.77214 0.0
H179 H 0.12394 0.0851 0.68119 0.0
H180 H 0.07919 0.01719 0.80446 0.0
H181 H 0.05426 0.09246 0.71334 0.0
H182 H 0.89608 0.00332 0.72721 0.0
H183 H 0.96252 0.97744 0.74083 0.0
H184 H 0.04416 0.11523 0.80884 0.0
H185 H 0.97745 0.14142 0.79501 0.0
C186 C 0.13055 0.02971 0.75961 0.0
C187 C 0.14145 0.04612 0.72398 0.0
C188 C 0.09005 0.03342 0.778 0.0
C189 C 0.06084 0.05383 0.76082 0.0
C190 C 0.0762 0.07594 0.7268 0.0
C191 C 0.11611 0.07201 0.70848 0.0
C192 C 0.92512 0.02532 0.74762 0.0
C193 C 0.93432 0.07627 0.75806 0.0
C194 C 0.96354 0.01056 0.75538 0.0
C195 C 0.00951 0.04595 0.77456 0.0
C196 C 0.00957 0.08817 0.79331 0.0
C197 C 0.9708 0.10275 0.78557 0.0
H198 H 0.22288 0.04516 0.86876 0.0
H199 H 0.24556 0.16839 0.94317 0.0
H200 H 0.19652 0.0888 0.82398 0.0
H201 H 0.22353 0.2148 0.89799 0.0
H202 H 0.11269 0.24565 0.82691 0.0
H203 H 0.15363 0.21329 0.86925 0.0
H204 H 0.21076 0.15434 0.78399 0.0
H205 H 0.16862 0.18585 0.74195 0.0
C206 C 0.22414 0.08276 0.87514 0.0
C207 C 0.23636 0.10327 0.90954 0.0
C208 C 0.20895 0.10812 0.84936 0.0
C209 C 0.20665 0.15545 0.85703 0.0
C210 C 0.22266 0.17766 0.89095 0.0
C211 C 0.23624 0.15146 0.91691 0.0
C212 C 0.1348 0.22663 0.81721 0.0
C213 C 0.1369 0.21814 0.78094 0.0
C214 C 0.15837 0.20761 0.84163 0.0
C215 C 0.1852 0.17979 0.83063 0.0
C216 C 0.18938 0.17385 0.79408 0.0
C217 C 0.16549 0.19249 0.76973 0.0
H218 H 0.09839 0.17516 0.23814 0.0
H219 H 0.2076 0.33972 0.20565 0.0
H220 H 0.03385 0.16879 0.19462 0.0
H221 H 0.14185 0.33377 0.16236 0.0
H222 H 0.03815 0.27055 0.05983 0.0
H223 H 0.10245 0.29156 0.10727 0.0
H224 H 0.9717 0.19771 0.17972 0.0
H225 H 0.90753 0.1754 0.13207 0.0
C226 C 0.10854 0.21032 0.22195 0.0
C227 C 0.1585 0.25797 0.22552 0.0
C228 C 0.07109 0.20682 0.19707 0.0
C229 C 0.08214 0.25092 0.17499 0.0
C230 C 0.13197 0.29882 0.17867 0.0
C231 C 0.16966 0.3023 0.20362 0.0
C232 C 0.0229 0.25554 0.08607 0.0
C233 C 0.96747 0.22078 0.09191 0.0
C234 C 0.05997 0.26758 0.11338 0.0
C235 C 0.04258 0.24544 0.14732 0.0
C236 C 0.98684 0.2143 0.15375 0.0
C237 C 0.94984 0.202 0.12644 0.0
H238 H 0.94931 0.21516 0.55103 0.0
H239 H 0.85454 0.08233 0.62209 0.0
H240 H 0.93018 0.15149 0.50314 0.0
H241 H 0.83634 0.01875 0.5746 0.0
H242 H 0.78986 0.9125 0.47824 0.0
H243 H 0.79536 0.97913 0.52069 0.0
H244 H 0.95797 0.08957 0.48604 0.0
H245 H 0.95166 0.02393 0.4429 0.0
C246 C 0.92361 0.17245 0.55635 0.0
C247 C 0.90393 0.1541 0.59063 0.0
C248 C 0.91304 0.13574 0.5289 0.0
C249 C 0.88242 0.07958 0.53492 0.0
C250 C 0.85975 0.0615 0.56866 0.0
C251 C 0.87019 0.09821 0.59606 0.0
C252 C 0.82664 0.95116 0.47951 0.0
C253 C 0.87029 0.96258 0.45708 0.0
C254 C 0.82993 0.98941 0.50403 0.0
C255 C 0.87713 0.04007 0.50703 0.0
C256 C 0.9205 0.05163 0.48422 0.0
C257 C 0.91705 0.01361 0.45955 0.0
H258 H 0.93347 0.95345 0.94147 0.0
H259 H 0.86997 0.0029 0.85533 0.0
H260 H 0.96589 0.91075 0.90059 0.0
H261 H 0.9026 0.96059 0.81398 0.0
H262 H 0.95504 0.87193 0.74188 0.0
H263 H 0.90614 0.89261 0.78596 0.0
H264 H 0.03152 0.92575 0.86141 0.0
H265 H 0.07761 0.90061 0.81783 0.0
C266 C 0.92627 0.95503 0.91361 0.0
C267 C 0.89964 0.98228 0.90171 0.0
C268 C 0.94541 0.9308 0.88992 0.0
C269 C 0.93892 0.93316 0.85329 0.0
C270 C 0.90936 0.95787 0.84165 0.0
C271 C 0.89001 0.98204 0.86548 0.0
C272 C 0.97129 0.88224 0.76826 0.0
C273 C 0.02002 0.88416 0.77639 0.0
C274 C 0.94361 0.89506 0.79358 0.0
C275 C 0.96483 0.91237 0.82757 0.0
C276 C 0.0128 0.91215 0.83598 0.0
C277 C 0.03963 0.89769 0.81088 0.0
H278 H 0.88095 0.80015 0.21854 0.0
H279 H 0.97683 0.75306 0.28076 0.0
H280 H 0.94184 0.8194 0.1686 0.0
H281 H 0.03761 0.77205 0.23065 0.0
H282 H 0.17 0.88414 0.14866 0.0
H283 H 0.10599 0.85219 0.19791 0.0
H284 H 0.9742 0.77926 0.12464 0.0
H285 H 0.0378 0.81112 0.07555 0.0
C286 C 0.91436 0.79282 0.22143 0.0
C287 C 0.92345 0.77463 0.25385 0.0
C288 C 0.94943 0.80386 0.19266 0.0
C289 C 0.99506 0.79759 0.19544 0.0
C290 C 0.00332 0.77795 0.22753 0.0
C291 C 0.96793 0.76636 0.25622 0.0
C292 C 0.12744 0.86056 0.143 0.0
C293 C 0.10947 0.85043 0.10787 0.0
C294 C 0.09059 0.8421 0.17134 0.0
C295 C 0.03463 0.81337 0.16541 0.0
C296 C 0.0168 0.80187 0.13034 0.0
C297 C 0.05355 0.81987 0.10209 0.0
H298 H 0.26408 0.08164 0.60651 0.0
H299 H 0.28587 0.96635 0.54593 0.0
H300 H 0.29208 0.14246 0.55672 0.0
H301 H 0.31918 0.02945 0.49632 0.0
H302 H 0.3235 0.12766 0.39988 0.0
H303 H 0.30453 0.06823 0.45014 0.0
H304 H 0.34979 0.20396 0.51994 0.0
H305 H 0.36324 0.26157 0.46912 0.0
C306 C 0.27646 0.06991 0.58266 0.0
C307 C 0.27287 0.01903 0.58041 0.0
C308 C 0.2932 0.10537 0.55376 0.0
C309 C 0.30877 0.0922 0.52161 0.0
C310 C 0.30666 0.04156 0.51986 0.0
C311 C 0.28808 0.0052 0.54858 0.0
C312 C 0.33014 0.14487 0.42604 0.0
C313 C 0.34518 0.19952 0.43043 0.0
C314 C 0.31931 0.11055 0.45526 0.0
C315 C 0.32467 0.13005 0.49005 0.0
C316 C 0.34291 0.18588 0.49412 0.0
C317 C 0.35178 0.21968 0.46483 0.0
H318 H 0.43622 0.03563 0.96291 0.0
H319 H 0.40028 0.95034 0.06247 0.0
H320 H 0.52358 0.04092 0.9614 0.0
H321 H 0.48814 0.95556 0.06077 0.0
H322 H 0.67708 0.04244 0.06153 0.0
H323 H 0.58514 0.02617 0.06461 0.0
H324 H 0.56298 0.98133 0.95483 0.0
H325 H 0.65501 0.99787 0.95156 0.0
C326 C 0.44689 0.01799 0.98454 0.0
C327 C 0.41113 0.99272 0.0129 0.0
C328 C 0.49689 0.0206 0.98347 0.0
C329 C 0.51276 0.99838 0.01085 0.0
C330 C 0.47721 0.97329 0.03934 0.0
C331 C 0.42682 0.97019 0.04026 0.0
C332 C 0.65244 0.02841 0.03813 0.0
C333 C 0.67373 0.02182 0.00623 0.0
C334 C 0.5996 0.01889 0.03997 0.0
C335 C 0.56688 0.00298 0.00989 0.0
C336 C 0.58743 0.99434 0.97835 0.0
C337 C 0.6401 0.00342 0.97657 0.0
H338 H 0.43128 0.47496 0.28278 0.0
H339 H 0.39587 0.47255 0.39371 0.0
H340 H 0.51037 0.5625 0.289 0.0
H341 H 0.4735 0.56302 0.39972 0.0
H342 H 0.65521 0.677 0.40829 0.0
H343 H 0.56458 0.60198 0.40318 0.0
H344 H 0.55606 0.65328 0.29704 0.0
H345 H 0.64908 0.72625 0.30157 0.0
C346 C 0.43948 0.49401 0.3084 0.0
C347 C 0.4076 0.46647 0.33788 0.0
C348 C 0.48499 0.54485 0.31197 0.0
C349 C 0.49932 0.57031 0.345 0.0
C350 C 0.46498 0.54427 0.37403 0.0
C351 C 0.42007 0.49256 0.3706 0.0
C352 C 0.63373 0.67261 0.38398 0.0
C353 C 0.6594 0.70711 0.35517 0.0
C354 C 0.58123 0.62962 0.38109 0.0
C355 C 0.5524 0.62069 0.34955 0.0
C356 C 0.57719 0.65758 0.32145 0.0
C357 C 0.63041 0.69978 0.32404 0.0
H358 H 0.11835 0.45654 0.62778 0.0
H359 H 0.08049 0.45085 0.73834 0.0
H360 H 0.14078 0.55089 0.62504 0.0
H361 H 0.09808 0.54303 0.7354 0.0
H362 H 0.16108 0.72032 0.73079 0.0
H363 H 0.15501 0.6323 0.73255 0.0
H364 H 0.10819 0.60862 0.62274 0.0
H365 H 0.11952 0.69916 0.62075 0.0
C366 C 0.11482 0.47564 0.6515 0.0
C367 C 0.09819 0.44658 0.68332 0.0
C368 C 0.12702 0.52968 0.64993 0.0
C369 C 0.12116 0.55549 0.67993 0.0
C370 C 0.10472 0.52592 0.7118 0.0
C371 C 0.09421 0.47258 0.71356 0.0
C372 C 0.15005 0.69624 0.70702 0.0
C373 C 0.14064 0.7162 0.67568 0.0
C374 C 0.14591 0.64532 0.70801 0.0
C375 C 0.1302 0.61202 0.67794 0.0
C376 C 0.12131 0.63276 0.6464 0.0
C377 C 0.1273 0.6846 0.64519 0.0
H378 H 0.38163 0.10489 0.09015 0.0
H379 H 0.26606 0.16028 0.09157 0.0
H380 H 0.44289 0.18169 0.1256 0.0
H381 H 0.32682 0.2365 0.12808 0.0
H382 H 0.44373 0.23649 0.2441 0.0
H383 H 0.43482 0.19533 0.1872 0.0
H384 H 0.41212 0.31969 0.13868 0.0
H385 H 0.42036 0.36067 0.19617 0.0
C386 C 0.36932 0.13364 0.098 0.0
C387 C 0.31828 0.12577 0.08906 0.0
C388 C 0.40476 0.1779 0.11802 0.0
C389 C 0.38975 0.215 0.12988 0.0
C390 C 0.3401 0.20909 0.11895 0.0
C391 C 0.30479 0.16498 0.09851 0.0
C392 C 0.4401 0.25705 0.22112 0.0
C393 C 0.42958 0.29985 0.22471 0.0
C394 C 0.43472 0.23321 0.18826 0.0
C395 C 0.41974 0.25272 0.1588 0.0
C396 C 0.42143 0.30261 0.16129 0.0
C397 C 0.42671 0.32636 0.19418 0.0
H398 H 0.112 0.13803 0.40663 0.0
H399 H 0.16587 0.30873 0.41152 0.0
H400 H 0.06814 0.12485 0.46415 0.0
H401 H 0.12462 0.29647 0.46874 0.0
H402 H 0.05436 0.2756 0.57075 0.0
H403 H 0.05264 0.26329 0.50766 0.0
H404 H 0.1078 0.14825 0.52184 0.0
H405 H 0.10445 0.15716 0.58593 0.0
C406 C 0.11287 0.17234 0.41944 0.0
C407 C 0.14317 0.22462 0.40516 0.0
C408 C 0.08842 0.16493 0.45252 0.0
C409 C 0.09395 0.2097 0.47145 0.0
C410 C 0.11914 0.26084 0.45506 0.0
C411 C 0.14327 0.26812 0.42222 0.0
C412 C 0.06585 0.2474 0.56042 0.0
C413 C 0.08141 0.21862 0.58296 0.0
C414 C 0.06461 0.24018 0.52424 0.0
C415 C 0.08135 0.20587 0.50958 0.0
C416 C 0.09433 0.17483 0.53226 0.0
C417 C 0.09354 0.18061 0.56884 0.0
H418 H 0.97465 0.35298 0.80351 0.0
H419 H 0.83287 0.25766 0.74098 0.0
H420 H 0.91935 0.35153 0.85165 0.0
H421 H 0.77667 0.25758 0.78926 0.0
H422 H 0.85601 0.28349 0.94268 0.0
H423 H 0.85523 0.33868 0.89395 0.0
H424 H 0.76367 0.19408 0.83226 0.0
H425 H 0.76288 0.13969 0.8809 0.0
C426 C 0.93155 0.33327 0.79962 0.0
C427 C 0.90777 0.30186 0.76965 0.0
C428 C 0.89937 0.33309 0.82723 0.0
C429 C 0.84294 0.30043 0.82543 0.0
C430 C 0.81997 0.28026 0.79226 0.0
C431 C 0.85221 0.28003 0.76461 0.0
C432 C 0.83396 0.26346 0.91911 0.0
C433 C 0.81309 0.20769 0.91442 0.0
C434 C 0.83322 0.29514 0.8912 0.0
C435 C 0.81366 0.27139 0.85811 0.0
C436 C 0.78172 0.21463 0.85663 0.0
C437 C 0.78191 0.18299 0.88454 0.0
H438 H 0.98206 0.03976 0.08941 0.0
H439 H 0.80846 0.94927 0.09651 0.0
H440 H 0.98786 0.00772 0.14824 0.0
H441 H 0.814 0.91952 0.15499 0.0
H442 H 0.82601 0.85312 0.25374 0.0
H443 H 0.83624 0.8676 0.1909 0.0
H444 H 0.97082 0.02834 0.20734 0.0
H445 H 0.96344 0.01136 0.27116 0.0
C446 C 0.94525 0.01201 0.10315 0.0
C447 C 0.89477 0.99746 0.08871 0.0
C448 C 0.94859 0.99429 0.13693 0.0
C449 C 0.9015 0.96167 0.15645 0.0
C450 C 0.8512 0.94406 0.14067 0.0
C451 C 0.84792 0.96146 0.10712 0.0
C452 C 0.85811 0.89151 0.24405 0.0
C453 C 0.89319 0.93183 0.26725 0.0
C454 C 0.86396 0.89976 0.20795 0.0
C455 C 0.90349 0.9495 0.19412 0.0
C456 C 0.9401 0.98936 0.21721 0.0
C457 C 0.93542 0.98018 0.25365 0.0
H458 H 0.77011 0.68977 0.49097 0.0
H459 H 0.89802 0.67492 0.44148 0.0
H460 H 0.81172 0.69868 0.54819 0.0
H461 H 0.93991 0.6847 0.49811 0.0
H462 H 0.03076 0.7419 0.59471 0.0
H463 H 0.95561 0.67772 0.5594 0.0
H464 H 0.89157 0.78662 0.55863 0.0
H465 H 0.96612 0.85023 0.595 0.0
C466 C 0.80546 0.6853 0.49255 0.0
C467 C 0.83262 0.68475 0.46175 0.0
C468 C 0.82957 0.691 0.52529 0.0
C469 C 0.88057 0.69559 0.52728 0.0
C470 C 0.90114 0.68259 0.49743 0.0
C471 C 0.87688 0.67668 0.46473 0.0
C472 C 1.00038 0.75202 0.58723 0.0
C473 C 0.00509 0.80192 0.59665 0.0
C474 C 0.95706 0.71488 0.56731 0.0
C475 C 0.91777 0.72702 0.55603 0.0
C476 C 0.9207 0.77549 0.56734 0.0
C477 C 0.96386 0.81249 0.58767 0.0
H478 H 0.3266 0.97259 0.78698 0.0
H479 H 0.25515 0.81209 0.74374 0.0
H480 H 0.3389 0.93831 0.84292 0.0
H481 H 0.26509 0.77722 0.80015 0.0
H482 H 0.16219 0.80053 0.90156 0.0
H483 H 0.19735 0.79121 0.84513 0.0
H484 H 0.35846 0.87298 0.8868 0.0
H485 H 0.3229 0.88006 0.94368 0.0
C486 C 0.31718 0.93085 0.78864 0.0
C487 C 0.28871 0.89466 0.76165 0.0
C488 C 0.32391 0.91091 0.82076 0.0
C489 C 0.30139 0.85477 0.82597 0.0
C490 C 0.28239 0.82047 0.79682 0.0
C491 C 0.27681 0.8406 0.76456 0.0
C492 C 0.20439 0.8124 0.89954 0.0
C493 C 0.24008 0.84231 0.92637 0.0
C494 C 0.2248 0.80737 0.86712 0.0
C495 C 0.28087 0.83295 0.86151 0.0
C496 C 0.31525 0.85337 0.89045 0.0
C497 C 0.29473 0.8573 0.92299 0.0
loop_
_geom_bond_atom_site_label_1
_geom_bond_atom_site_label_2
_geom_bond_distance
_geom_bond_site_symmetry_2
_ccdc_geom_bond_type
O0 Zn1 1.952 1_556 S
O0 C16 1.215 1_556 S
Zn1 O0 1.952 1_554 S
Zn1 O2 1.949 . S
Zn1 O8 1.919 1_544 S
Zn1 O13 1.924 1_545 S
O2 Zn1 1.949 . S
O2 Zn3 1.923 1_554 S
O2 Zn4 1.950 . S
O2 Zn5 1.945 . S
Zn3 O2 1.923 1_556 S
Zn3 O6 1.933 . S
Zn3 O9 1.941 . S
Zn3 O10 1.965 . S
Zn4 O2 1.950 . S
Zn4 O11 1.938 1_554 S
Zn4 O12 1.906 . S
Zn4 O22 1.953 . S
Zn5 O2 1.945 . S
Zn5 O7 1.932 . S
Zn5 O14 1.977 . S
Zn5 O15 1.910 1_545 S
O6 Zn3 1.933 . S
O6 C17 1.226 1_556 S
O7 Zn5 1.932 . S
O7 C17 1.307 . S
O8 Zn1 1.919 1_566 S
O8 C19 1.253 . S
O9 Zn3 1.941 . S
O9 C19 1.283 1_545 S
O10 Zn3 1.965 . S
O10 C18 1.303 . S
O11 Zn4 1.938 1_556 S
O11 C18 1.247 . S
O12 Zn4 1.906 . S
O12 C20 1.304 . S
O13 Zn1 1.924 1_565 S
O13 C21 1.311 . S
O14 Zn5 1.977 . S
O14 C20 1.272 . S
O15 Zn5 1.910 1_565 S
O15 C21 1.231 . S
C16 O0 1.215 1_554 S
C16 O22 1.298 . S
C17 O6 1.226 1_554 S
C17 O7 1.307 . S
C18 O10 1.303 . S
C18 O11 1.247 . S
C19 O8 1.253 . S
C19 O9 1.283 1_565 S
C20 O12 1.304 . S
C20 O14 1.272 . S
C21 O13 1.311 . S
C21 O15 1.231 . S
O22 Zn4 1.953 . S
O22 C16 1.298 . S
O23 Zn24 1.953 . S
O23 C39 1.225 . S
Zn24 O23 1.953 . S
Zn24 O25 1.949 . S
Zn24 O31 1.919 . S
Zn24 O36 1.924 . S
O25 Zn24 1.949 . S
O25 Zn26 1.923 . S
O25 Zn27 1.950 . S
O25 Zn28 1.945 . S
Zn26 O25 1.923 . S
Zn26 O29 1.933 . S
Zn26 O32 1.941 . S
Zn26 O33 1.965 . S
Zn27 O25 1.950 . S
Zn27 O34 1.938 . S
Zn27 O35 1.906 . S
Zn27 O45 1.953 . S
Zn28 O25 1.945 . S
Zn28 O30 1.932 . S
Zn28 O37 1.977 . S
Zn28 O38 1.910 . S
O29 Zn26 1.933 . S
O29 C40 1.226 . S
O30 Zn28 1.932 . S
O30 C40 1.307 . S
O31 Zn24 1.919 . S
O31 C42 1.253 . S
O32 Zn26 1.941 . S
O32 C42 1.283 . S
O33 Zn26 1.965 . S
O33 C41 1.303 . S
O34 Zn27 1.938 . S
O34 C41 1.247 . S
O35 Zn27 1.906 . S
O35 C43 1.304 . S
O36 Zn24 1.924 . S
O36 C44 1.311 . S
O37 Zn28 1.977 . S
O37 C43 1.272 . S
O38 Zn28 1.910 . S
O38 C44 1.231 . S
C39 O23 1.225 . S
C39 O45 1.298 . S
C40 O29 1.226 . S
C40 O30 1.307 . S
C41 O33 1.303 . S
C41 O34 1.247 . S
C42 O31 1.253 . S
C42 O32 1.283 . S
C43 O35 1.304 . S
C43 O37 1.272 . S
C44 O36 1.311 . S
C44 O38 1.231 . S
O45 Zn27 1.953 . S
O45 C39 1.298 . S
O46 Zn47 1.953 . S
O46 C62 1.225 . S
Zn47 O46 1.953 . S
Zn47 O48 1.949 . S
Zn47 O54 1.919 . S
Zn47 O59 1.924 . S
O48 Zn47 1.949 . S
O48 Zn49 1.923 . S
O48 Zn50 1.950 1_455 S
O48 Zn51 1.945 . S
Zn49 O48 1.923 . S
Zn49 O52 1.933 . S
Zn49 O55 1.941 . S
Zn49 O56 1.965 1_455 S
Zn50 O48 1.950 1_655 S
Zn50 O57 1.938 . S
Zn50 O58 1.906 . S
Zn50 O68 1.953 1_655 S
Zn51 O48 1.945 . S
Zn51 O53 1.932 . S
Zn51 O60 1.977 1_455 S
Zn51 O61 1.910 . S
O52 Zn49 1.933 . S
O52 C63 1.226 . S
O53 Zn51 1.932 . S
O53 C63 1.307 . S
O54 Zn47 1.919 . S
O54 C65 1.253 . S
O55 Zn49 1.941 . S
O55 C65 1.283 . S
O56 Zn49 1.965 1_655 S
O56 C64 1.303 . S
O57 Zn50 1.938 . S
O57 C64 1.247 . S
O58 Zn50 1.906 . S
O58 C66 1.304 . S
O59 Zn47 1.924 . S
O59 C67 1.311 . S
O60 Zn51 1.977 1_655 S
O60 C66 1.272 . S
O61 Zn51 1.910 . S
O61 C67 1.231 . S
C62 O46 1.225 . S
C62 O68 1.298 . S
C63 O52 1.226 . S
C63 O53 1.307 . S
C64 O56 1.303 . S
C64 O57 1.247 . S
C65 O54 1.253 . S
C65 O55 1.283 . S
C66 O58 1.304 . S
C66 O60 1.272 . S
C67 O59 1.311 . S
C67 O61 1.231 . S
O68 Zn50 1.953 1_455 S
O68 C62 1.298 . S
O69 Zn70 1.952 1_556 S
O69 C85 1.216 1_556 S
Zn70 O69 1.952 1_554 S
Zn70 O71 1.949 . S
Zn70 O77 1.919 1_554 S
Zn70 O82 1.924 . S
O71 Zn70 1.949 . S
O71 Zn72 1.923 1_554 S
O71 Zn73 1.950 1_545 S
O71 Zn74 1.945 . S
Zn72 O71 1.923 1_556 S
Zn72 O75 1.933 . S
Zn72 O78 1.941 . S
Zn72 O79 1.965 1_545 S
Zn73 O71 1.950 1_565 S
Zn73 O80 1.938 1_554 S
Zn73 O81 1.906 . S
Zn73 O91 1.953 . S
Zn74 O71 1.945 . S
Zn74 O76 1.932 . S
Zn74 O83 1.977 1_545 S
Zn74 O84 1.910 . S
O75 Zn72 1.933 . S
O75 C86 1.226 1_556 S
O76 Zn74 1.932 . S
O76 C86 1.307 . S
O77 Zn70 1.919 1_556 S
O77 C88 1.253 . S
O78 Zn72 1.941 . S
O78 C88 1.283 . S
O79 Zn72 1.965 1_565 S
O79 C87 1.303 . S
O80 Zn73 1.938 1_556 S
O80 C87 1.247 . S
O81 Zn73 1.906 . S
O81 C89 1.304 . S
O82 Zn70 1.924 . S
O82 C90 1.311 . S
O83 Zn74 1.977 1_565 S
O83 C89 1.272 . S
O84 Zn74 1.910 . S
O84 C90 1.231 . S
C85 O69 1.216 1_554 S
C85 O91 1.298 1_545 S
C86 O75 1.226 1_554 S
C86 O76 1.307 . S
C87 O79 1.303 . S
C87 O80 1.247 . S
C88 O77 1.253 . S
C88 O78 1.283 . S
C89 O81 1.304 . S
C89 O83 1.272 . S
C90 O82 1.311 . S
C90 O84 1.231 . S
O91 Zn73 1.953 . S
O91 C85 1.298 1_565 S
O92 Zn93 1.953 . S
O92 C108 1.225 . S
Zn93 O92 1.953 . S
Zn93 O94 1.949 . S
Zn93 O100 1.919 . S
Zn93 O105 1.924 . S
O94 Zn93 1.949 . S
O94 Zn95 1.923 . S
O94 Zn96 1.950 . S
O94 Zn97 1.945 . S
Zn95 O94 1.923 . S
Zn95 O98 1.933 . S
Zn95 O101 1.941 . S
Zn95 O102 1.965 . S
Zn96 O94 1.950 . S
Zn96 O103 1.938 . S
Zn96 O104 1.906 . S
Zn96 O114 1.953 . S
Zn97 O94 1.945 . S
Zn97 O99 1.932 . S
Zn97 O106 1.977 . S
Zn97 O107 1.910 . S
O98 Zn95 1.933 . S
O98 C109 1.226 . S
O99 Zn97 1.932 . S
O99 C109 1.307 . S
O100 Zn93 1.919 . S
O100 C111 1.253 . S
O101 Zn95 1.941 . S
O101 C111 1.283 . S
O102 Zn95 1.965 . S
O102 C110 1.303 . S
O103 Zn96 1.938 . S
O103 C110 1.247 . S
O104 Zn96 1.906 . S
O104 C112 1.304 . S
O105 Zn93 1.924 . S
O105 C113 1.311 . S
O106 Zn97 1.977 . S
O106 C112 1.272 . S
O107 Zn97 1.910 . S
O107 C113 1.231 . S
C108 O92 1.225 . S
C108 O114 1.298 . S
C109 O98 1.226 . S
C109 O99 1.307 . S
C110 O102 1.303 . S
C110 O103 1.247 . S
C111 O100 1.253 . S
C111 O101 1.283 . S
C112 O104 1.304 . S
C112 O106 1.272 . S
C113 O105 1.311 . S
C113 O107 1.231 . S
O114 Zn96 1.953 . S
O114 C108 1.298 . S
O115 Zn116 1.953 . S
O115 C131 1.225 . S
Zn116 O115 1.953 . S
Zn116 O117 1.949 . S
Zn116 O123 1.919 1_455 S
Zn116 O128 1.924 1_455 S
O117 Zn116 1.949 . S
O117 Zn118 1.923 . S
O117 Zn119 1.950 . S
O117 Zn120 1.945 . S
Zn118 O117 1.923 . S
Zn118 O121 1.933 . S
Zn118 O124 1.941 . S
Zn118 O125 1.965 . S
Zn119 O117 1.950 . S
Zn119 O126 1.938 . S
Zn119 O127 1.906 . S
Zn119 O137 1.953 . S
Zn120 O117 1.945 . S
Zn120 O122 1.932 . S
Zn120 O129 1.977 . S
Zn120 O130 1.910 . S
O121 Zn118 1.933 . S
O121 C132 1.226 . S
O122 Zn120 1.932 . S
O122 C132 1.307 . S
O123 Zn116 1.919 1_655 S
O123 C134 1.253 1_655 S
O124 Zn118 1.941 . S
O124 C134 1.283 . S
O125 Zn118 1.965 . S
O125 C133 1.303 . S
O126 Zn119 1.938 . S
O126 C133 1.247 . S
O127 Zn119 1.906 . S
O127 C135 1.304 . S
O128 Zn116 1.924 1_655 S
O128 C136 1.311 . S
O129 Zn120 1.977 . S
O129 C135 1.272 . S
O130 Zn120 1.910 . S
O130 C136 1.231 1_455 S
C131 O115 1.225 . S
C131 O137 1.298 . S
C132 O121 1.226 . S
C132 O122 1.307 . S
C133 O125 1.303 . S
C133 O126 1.247 . S
C134 O123 1.253 1_455 S
C134 O124 1.283 . S
C135 O127 1.304 . S
C135 O129 1.272 . S
C136 O128 1.311 . S
C136 O130 1.231 1_655 S
O137 Zn119 1.953 . S
O137 C131 1.298 . S
H138 C146 0.950 . S
H139 C151 0.950 . S
H140 C148 0.959 . S
H141 C150 0.950 . S
H142 C152 0.950 . S
H143 C154 0.950 . S
H144 C156 0.950 1_565 S
H145 C157 0.963 . S
C146 H138 0.950 . S
C146 C147 1.386 1_565 S
C146 C148 1.377 1_655 S
C147 C146 1.386 1_545 S
C147 C151 1.393 1_554 S
C148 H140 0.959 . S
C148 C146 1.377 1_455 S
C148 C149 1.406 1_565 S
C149 C148 1.406 1_545 S
C149 C150 1.398 1_554 S
C149 C155 1.491 . S
C150 H141 0.950 . S
C150 C149 1.398 1_556 S
C150 C151 1.391 1_455 S
C151 H139 0.950 . S
C151 C147 1.393 1_556 S
C151 C150 1.391 1_655 S
C152 H142 0.950 . S
C152 C153 1.386 1_556 S
C152 C154 1.391 . S
C153 C152 1.386 1_554 S
C153 C157 1.393 . S
C154 H143 0.950 . S
C154 C152 1.391 . S
C154 C155 1.400 1_556 S
C155 C149 1.491 . S
C155 C154 1.400 1_554 S
C155 C156 1.398 . S
C156 H144 0.950 1_545 S
C156 C155 1.398 . S
C156 C157 1.391 . S
C157 H145 0.963 . S
C157 C153 1.393 . S
C157 C156 1.391 . S
H158 C166 0.950 . S
H159 C171 0.950 . S
H160 C168 0.950 1_545 S
H161 C170 0.950 1_545 S
H162 C172 0.950 . S
H163 C174 0.950 . S
H164 C176 0.950 . S
H165 C177 0.950 . S
C166 H158 0.950 . S
C166 C167 1.386 . S
C166 C168 1.391 1_655 S
C167 C166 1.386 . S
C167 C171 1.393 . S
C168 H160 0.950 1_565 S
C168 C166 1.391 1_455 S
C168 C169 1.400 1_565 S
C169 C168 1.400 1_545 S
C169 C170 1.398 1_545 S
C169 C175 1.491 . S
C170 H161 0.950 1_565 S
C170 C169 1.398 1_565 S
C170 C171 1.391 1_455 S
C171 H159 0.950 . S
C171 C167 1.393 . S
C171 C170 1.391 1_655 S
C172 H162 0.950 . S
C172 C173 1.386 . S
C172 C174 1.391 . S
C173 C172 1.386 . S
C173 C177 1.393 . S
C174 H163 0.950 . S
C174 C172 1.391 . S
C174 C175 1.400 . S
C175 C169 1.491 . S
C175 C174 1.400 . S
C175 C176 1.398 . S
C176 H164 0.950 . S
C176 C175 1.398 . S
C176 C177 1.391 . S
C177 H165 0.950 . S
C177 C173 1.393 . S
C177 C176 1.391 . S
H178 C186 0.950 . S
H179 C191 0.950 . S
H180 C188 0.950 . S
H181 C190 0.950 . S
H182 C192 0.950 . S
H183 C194 0.950 . S
H184 C196 0.950 . S
H185 C197 0.950 1_655 S
C186 H178 0.950 . S
C186 C187 1.386 . S
C186 C188 1.391 . S
C187 C186 1.386 . S
C187 C191 1.393 . S
C188 H180 0.950 . S
C188 C186 1.391 . S
C188 C189 1.400 1_565 S
C189 C188 1.400 1_545 S
C189 C190 1.398 . S
C189 C195 1.491 . S
C190 H181 0.950 . S
C190 C189 1.398 . S
C190 C191 1.391 1_545 S
C191 H179 0.950 . S
C191 C187 1.393 . S
C191 C190 1.391 1_565 S
C192 H182 0.950 . S
C192 C193 1.386 . S
C192 C194 1.391 . S
C193 C192 1.386 . S
C193 C197 1.393 . S
C194 H183 0.950 . S
C194 C192 1.391 . S
C194 C195 1.400 . S
C195 C189 1.491 . S
C195 C194 1.400 . S
C195 C196 1.398 . S
C196 H184 0.950 . S
C196 C195 1.398 . S
C196 C197 1.391 . S
C197 H185 0.950 1_455 S
C197 C193 1.393 . S
C197 C196 1.391 . S
H198 C206 0.950 . S
H199 C211 0.950 . S
H200 C208 0.950 . S
H201 C210 0.950 . S
H202 C212 0.950 . S
H203 C214 0.950 . S
H204 C216 0.950 . S
H205 C217 0.950 . S
C206 H198 0.950 . S
C206 C207 1.386 . S
C206 C208 1.391 . S
C207 C206 1.386 . S
C207 C211 1.393 . S
C208 H200 0.950 . S
C208 C206 1.391 . S
C208 C209 1.400 . S
C209 C208 1.400 . S
C209 C210 1.398 . S
C209 C215 1.491 . S
C210 H201 0.950 . S
C210 C209 1.398 . S
C210 C211 1.391 . S
C211 H199 0.950 . S
C211 C207 1.393 . S
C211 C210 1.391 . S
C212 H202 0.950 . S
C212 C213 1.386 . S
C212 C214 1.391 . S
C213 C212 1.386 . S
C213 C217 1.393 . S
C214 H203 0.950 . S
C214 C212 1.391 . S
C214 C215 1.400 . S
C215 C209 1.491 . S
C215 C214 1.400 . S
C215 C216 1.398 . S
C216 H204 0.950 . S
C216 C215 1.398 . S
C216 C217 1.391 . S
C217 H205 0.950 . S
C217 C213 1.393 . S
C217 C216 1.391 . S
H218 C226 0.950 . S
H219 C231 0.950 . S
H220 C228 0.950 . S
H221 C230 0.950 . S
H222 C232 0.959 . S
H223 C234 0.950 . S
H224 C236 0.950 . S
H225 C237 0.950 . S
C226 H218 0.950 . S
C226 C227 1.386 . S
C226 C228 1.391 . S
C227 C226 1.386 . S
C227 C231 1.393 . S
C228 H220 0.950 . S
C228 C226 1.391 . S
C228 C229 1.400 . S
C229 C228 1.400 . S
C229 C230 1.398 . S
C229 C235 1.491 . S
C230 H221 0.950 . S
C230 C229 1.398 . S
C230 C231 1.391 . S
C231 H219 0.950 . S
C231 C227 1.393 . S
C231 C230 1.391 . S
C232 H222 0.959 . S
C232 C233 1.386 . S
C232 C234 1.391 1_655 S
C233 C232 1.386 . S
C233 C237 1.393 . S
C234 H223 0.950 . S
C234 C232 1.391 1_455 S
C234 C235 1.400 . S
C235 C229 1.491 . S
C235 C234 1.400 . S
C235 C236 1.398 1_455 S
C236 H224 0.950 . S
C236 C235 1.398 1_655 S
C236 C237 1.391 . S
C237 H225 0.950 . S
C237 C233 1.393 . S
C237 C236 1.391 . S
H238 C246 0.950 . S
H239 C251 0.950 . S
H240 C248 0.950 . S
H241 C250 0.950 . S
H242 C252 0.950 . S
H243 C254 0.950 1_545 S
H244 C256 0.950 1_545 S
H245 C257 0.950 . S
C246 H238 0.950 . S
C246 C247 1.386 . S
C246 C248 1.391 . S
C247 C246 1.386 . S
C247 C251 1.393 . S
C248 H240 0.950 . S
C248 C246 1.391 . S
C248 C249 1.400 . S
C249 C248 1.400 . S
C249 C250 1.398 . S
C249 C255 1.491 . S
C250 H241 0.950 . S
C250 C249 1.398 . S
C250 C251 1.391 . S
C251 H239 0.950 . S
C251 C247 1.393 . S
C251 C250 1.391 . S
C252 H242 0.950 . S
C252 C253 1.386 . S
C252 C254 1.391 . S
C253 C252 1.386 . S
C253 C257 1.393 . S
C254 H243 0.950 1_565 S
C254 C252 1.391 . S
C254 C255 1.400 1_565 S
C255 C249 1.491 . S
C255 C254 1.400 1_545 S
C255 C256 1.398 1_545 S
C256 H244 0.950 1_565 S
C256 C255 1.398 1_565 S
C256 C257 1.391 . S
C257 H245 0.950 . S
C257 C253 1.393 . S
C257 C256 1.391 . S
H258 C266 0.950 . S
H259 C271 0.950 . S
H260 C268 0.950 . S
H261 C270 0.950 . S
H262 C272 0.950 . S
H263 C274 0.950 . S
H264 C276 0.950 . S
H265 C277 0.950 . S
C266 H258 0.950 . S
C266 C267 1.386 . S
C266 C268 1.391 . S
C267 C266 1.386 . S
C267 C271 1.393 . S
C268 H260 0.950 . S
C268 C266 1.391 . S
C268 C269 1.400 . S
C269 C268 1.400 . S
C269 C270 1.398 . S
C269 C275 1.491 . S
C270 H261 0.950 . S
C270 C269 1.398 . S
C270 C271 1.391 . S
C271 H259 0.950 . S
C271 C267 1.393 . S
C271 C270 1.391 . S
C272 H262 0.950 . S
C272 C273 1.386 . S
C272 C274 1.391 . S
C273 C272 1.386 . S
C273 C277 1.393 . S
C274 H263 0.950 . S
C274 C272 1.391 . S
C274 C275 1.400 . S
C275 C269 1.491 . S
C275 C274 1.400 . S
C275 C276 1.398 . S
C276 H264 0.950 . S
C276 C275 1.398 . S
C276 C277 1.391 . S
C277 H265 0.950 . S
C277 C273 1.393 . S
C277 C276 1.391 . S
H278 C286 0.950 . S
H279 C291 0.950 . S
H280 C288 0.950 . S
H281 C290 0.950 . S
H282 C292 0.950 . S
H283 C294 0.950 . S
H284 C296 0.950 . S
H285 C297 0.950 . S
C286 H278 0.950 . S
C286 C287 1.386 . S
C286 C288 1.391 1_655 S
C287 C286 1.386 . S
C287 C291 1.393 1_655 S
C288 H280 0.950 . S
C288 C286 1.391 1_455 S
C288 C289 1.400 . S
C289 C288 1.400 . S
C289 C290 1.398 . S
C289 C295 1.491 . S
C290 H281 0.950 . S
C290 C289 1.398 . S
C290 C291 1.391 . S
C291 H279 0.950 . S
C291 C287 1.393 1_455 S
C291 C290 1.391 . S
C292 H282 0.950 . S
C292 C293 1.386 . S
C292 C294 1.391 . S
C293 C292 1.386 . S
C293 C297 1.393 . S
C294 H283 0.950 . S
C294 C292 1.391 . S
C294 C295 1.400 . S
C295 C289 1.491 . S
C295 C294 1.400 . S
C295 C296 1.398 . S
C296 H284 0.950 . S
C296 C295 1.398 . S
C296 C297 1.391 . S
C297 H285 0.950 . S
C297 C293 1.393 . S
C297 C296 1.391 . S
H298 C306 0.950 . S
H299 C311 0.950 . S
H300 C308 0.950 . S
H301 C310 0.950 . S
H302 C312 0.950 . S
H303 C314 0.950 . S
H304 C316 0.950 . S
H305 C317 0.950 . S
C306 H298 0.950 . S
C306 C307 1.386 . S
C306 C308 1.391 1_565 S
C307 C306 1.386 . S
C307 C311 1.393 . S
C308 H300 0.950 . S
C308 C306 1.391 1_545 S
C308 C309 1.400 . S
C309 C308 1.400 . S
C309 C310 1.398 . S
C309 C315 1.491 . S
C310 H301 0.950 . S
C310 C309 1.398 . S
C310 C311 1.391 1_545 S
C311 H299 0.950 . S
C311 C307 1.393 . S
C311 C310 1.391 1_565 S
C312 H302 0.950 . S
C312 C313 1.386 . S
C312 C314 1.391 . S
C313 C312 1.386 . S
C313 C317 1.393 . S
C314 H303 0.950 . S
C314 C312 1.391 . S
C314 C315 1.400 . S
C315 C309 1.491 . S
C315 C314 1.400 . S
C315 C316 1.398 . S
C316 H304 0.950 . S
C316 C315 1.398 . S
C316 C317 1.391 . S
C317 H305 0.950 . S
C317 C313 1.393 . S
C317 C316 1.391 . S
H318 C326 0.950 . S
H319 C331 0.950 . S
H320 C328 0.950 . S
H321 C330 0.950 . S
H322 C332 0.948 . S
H323 C334 0.950 1_565 S
H324 C336 0.950 . S
H325 C337 0.950 . S
C326 H318 0.950 . S
C326 C327 1.386 1_556 S
C326 C328 1.391 . S
C327 C326 1.386 1_554 S
C327 C331 1.393 . S
C328 H320 0.950 . S
C328 C326 1.391 . S
C328 C329 1.400 1_556 S
C329 C328 1.400 1_554 S
C329 C330 1.398 . S
C329 C335 1.491 . S
C330 H321 0.950 . S
C330 C329 1.398 . S
C330 C331 1.391 . S
C331 H319 0.950 . S
C331 C327 1.393 . S
C331 C330 1.391 . S
C332 H322 0.948 . S
C332 C333 1.386 1_565 S
C332 C334 1.393 1_565 S
C333 C332 1.386 1_545 S
C333 C337 1.393 1_554 S
C334 H323 0.950 1_545 S
C334 C332 1.393 1_545 S
C334 C335 1.400 . S
C335 C329 1.491 . S
C335 C334 1.400 . S
C335 C336 1.398 1_554 S
C336 H324 0.950 . S
C336 C335 1.398 1_556 S
C336 C337 1.391 . S
C337 H325 0.950 . S
C337 C333 1.393 1_556 S
C337 C336 1.391 . S
H338 C346 0.950 . S
H339 C351 0.950 . S
H340 C348 0.950 . S
H341 C350 0.950 . S
H342 C352 0.950 . S
H343 C354 0.950 . S
H344 C356 0.950 . S
H345 C357 0.950 . S
C346 H338 0.950 . S
C346 C347 1.386 . S
C346 C348 1.391 . S
C347 C346 1.386 . S
C347 C351 1.393 . S
C348 H340 0.950 . S
C348 C346 1.391 . S
C348 C349 1.400 . S
C349 C348 1.400 . S
C349 C350 1.398 . S
C349 C355 1.491 . S
C350 H341 0.950 . S
C350 C349 1.398 . S
C350 C351 1.391 . S
C351 H339 0.950 . S
C351 C347 1.393 . S
C351 C350 1.391 . S
C352 H342 0.950 . S
C352 C353 1.386 . S
C352 C354 1.391 . S
C353 C352 1.386 . S
C353 C357 1.393 . S
C354 H343 0.950 . S
C354 C352 1.391 . S
C354 C355 1.400 . S
C355 C349 1.491 . S
C355 C354 1.400 . S
C355 C356 1.398 . S
C356 H344 0.950 . S
C356 C355 1.398 . S
C356 C357 1.391 . S
C357 H345 0.950 . S
C357 C353 1.393 . S
C357 C356 1.391 . S
H358 C366 0.950 . S
H359 C371 0.950 . S
H360 C368 0.950 . S
H361 C370 0.950 . S
H362 C372 0.950 . S
H363 C374 0.950 . S
H364 C376 0.950 . S
H365 C377 0.950 . S
C366 H358 0.950 . S
C366 C367 1.386 . S
C366 C368 1.391 . S
C367 C366 1.386 . S
C367 C371 1.393 . S
C368 H360 0.950 . S
C368 C366 1.391 . S
C368 C369 1.400 . S
C369 C368 1.400 . S
C369 C370 1.398 . S
C369 C375 1.491 . S
C370 H361 0.950 . S
C370 C369 1.398 . S
C370 C371 1.391 . S
C371 H359 0.950 . S
C371 C367 1.393 . S
C371 C370 1.391 . S
C372 H362 0.950 . S
C372 C373 1.386 . S
C372 C374 1.391 . S
C373 C372 1.386 . S
C373 C377 1.393 . S
C374 H363 0.950 . S
C374 C372 1.391 . S
C374 C375 1.400 . S
C375 C369 1.491 . S
C375 C374 1.400 . S
C375 C376 1.398 . S
C376 H364 0.950 . S
C376 C375 1.398 . S
C376 C377 1.391 . S
C377 H365 0.950 . S
C377 C373 1.393 . S
C377 C376 1.391 . S
H378 C386 0.950 . S
H379 C391 0.950 . S
H380 C388 0.950 . S
H381 C390 0.950 . S
H382 C392 0.950 . S
H383 C394 0.950 . S
H384 C396 0.950 . S
H385 C397 0.950 . S
C386 H378 0.950 . S
C386 C387 1.386 . S
C386 C388 1.391 . S
C387 C386 1.386 . S
C387 C391 1.393 . S
C388 H380 0.950 . S
C388 C386 1.391 . S
C388 C389 1.400 . S
C389 C388 1.400 . S
C389 C390 1.398 . S
C389 C395 1.491 . S
C390 H381 0.950 . S
C390 C389 1.398 . S
C390 C391 1.391 . S
C391 H379 0.950 . S
C391 C387 1.393 . S
C391 C390 1.391 . S
C392 H382 0.950 . S
C392 C393 1.386 . S
C392 C394 1.391 . S
C393 C392 1.386 . S
C393 C397 1.393 . S
C394 H383 0.950 . S
C394 C392 1.391 . S
C394 C395 1.400 . S
C395 C389 1.491 . S
C395 C394 1.400 . S
C395 C396 1.398 . S
C396 H384 0.950 . S
C396 C395 1.398 . S
C396 C397 1.391 . S
C397 H385 0.950 . S
C397 C393 1.393 . S
C397 C396 1.391 . S
H398 C406 0.950 . S
H399 C411 0.950 . S
H400 C408 0.950 . S
H401 C410 0.950 . S
H402 C412 0.950 . S
H403 C414 0.950 . S
H404 C416 0.950 . S
H405 C417 0.950 . S
C406 H398 0.950 . S
C406 C407 1.386 . S
C406 C408 1.391 . S
C407 C406 1.386 . S
C407 C411 1.393 . S
C408 H400 0.950 . S
C408 C406 1.391 . S
C408 C409 1.400 . S
C409 C408 1.400 . S
C409 C410 1.398 . S
C409 C415 1.491 . S
C410 H401 0.950 . S
C410 C409 1.398 . S
C410 C411 1.391 . S
C411 H399 0.950 . S
C411 C407 1.393 . S
C411 C410 1.391 . S
C412 H402 0.950 . S
C412 C413 1.386 . S
C412 C414 1.391 . S
C413 C412 1.386 . S
C413 C417 1.393 . S
C414 H403 0.950 . S
C414 C412 1.391 . S
C414 C415 1.400 . S
C415 C409 1.491 . S
C415 C414 1.400 . S
C415 C416 1.398 . S
C416 H404 0.950 . S
C416 C415 1.398 . S
C416 C417 1.391 . S
C417 H405 0.950 . S
C417 C413 1.393 . S
C417 C416 1.391 . S
H418 C426 0.950 . S
H419 C431 0.950 1_455 S
H420 C428 0.950 . S
H421 C430 0.950 . S
H422 C432 0.950 . S
H423 C434 0.950 . S
H424 C436 0.950 . S
H425 C437 0.950 . S
C426 H418 0.950 . S
C426 C427 1.386 . S
C426 C428 1.391 . S
C427 C426 1.386 . S
C427 C431 1.393 . S
C428 H420 0.950 . S
C428 C426 1.391 . S
C428 C429 1.400 . S
C429 C428 1.400 . S
C429 C430 1.398 . S
C429 C435 1.491 . S
C430 H421 0.950 . S
C430 C429 1.398 . S
C430 C431 1.391 . S
C431 H419 0.950 1_655 S
C431 C427 1.393 . S
C431 C430 1.391 . S
C432 H422 0.950 . S
C432 C433 1.386 . S
C432 C434 1.391 . S
C433 C432 1.386 . S
C433 C437 1.393 . S
C434 H423 0.950 . S
C434 C432 1.391 . S
C434 C435 1.400 . S
C435 C429 1.491 . S
C435 C434 1.400 . S
C435 C436 1.398 . S
C436 H424 0.950 . S
C436 C435 1.398 . S
C436 C437 1.391 . S
C437 H425 0.950 . S
C437 C433 1.393 . S
C437 C436 1.391 . S
H438 C446 0.950 . S
H439 C451 0.950 . S
H440 C448 0.950 . S
H441 C450 0.950 . S
H442 C452 0.950 . S
H443 C454 0.950 . S
H444 C456 0.950 . S
H445 C457 0.950 . S
C446 H438 0.950 . S
C446 C447 1.386 . S
C446 C448 1.391 . S
C447 C446 1.386 . S
C447 C451 1.393 . S
C448 H440 0.950 . S
C448 C446 1.391 . S
C448 C449 1.400 . S
C449 C448 1.400 . S
C449 C450 1.398 . S
C449 C455 1.491 . S
C450 H441 0.950 . S
C450 C449 1.398 . S
C450 C451 1.391 . S
C451 H439 0.950 . S
C451 C447 1.393 . S
C451 C450 1.391 . S
C452 H442 0.950 . S
C452 C453 1.386 . S
C452 C454 1.391 . S
C453 C452 1.386 . S
C453 C457 1.393 . S
C454 H443 0.950 . S
C454 C452 1.391 . S
C454 C455 1.400 . S
C455 C449 1.491 . S
C455 C454 1.400 . S
C455 C456 1.398 . S
C456 H444 0.950 . S
C456 C455 1.398 . S
C456 C457 1.391 . S
C457 H445 0.950 . S
C457 C453 1.393 . S
C457 C456 1.391 . S
H458 C466 0.950 . S
H459 C471 0.950 . S
H460 C468 0.950 . S
H461 C470 0.950 1_455 S
H462 C472 0.950 . S
H463 C474 0.950 . S
H464 C476 0.950 . S
H465 C477 0.950 . S
C466 H458 0.950 . S
C466 C467 1.386 . S
C466 C468 1.391 . S
C467 C466 1.386 . S
C467 C471 1.393 . S
C468 H460 0.950 . S
C468 C466 1.391 . S
C468 C469 1.400 . S
C469 C468 1.400 . S
C469 C470 1.398 . S
C469 C475 1.491 . S
C470 H461 0.950 1_655 S
C470 C469 1.398 . S
C470 C471 1.391 . S
C471 H459 0.950 . S
C471 C467 1.393 . S
C471 C470 1.391 . S
C472 H462 0.950 . S
C472 C473 1.386 1_455 S
C472 C474 1.391 . S
C473 C472 1.386 1_655 S
C473 C477 1.393 . S
C474 H463 0.950 . S
C474 C472 1.391 . S
C474 C475 1.400 1_455 S
C475 C469 1.491 . S
C475 C474 1.400 1_655 S
C475 C476 1.398 . S
C476 H464 0.950 . S
C476 C475 1.398 . S
C476 C477 1.391 . S
C477 H465 0.950 . S
C477 C473 1.393 . S
C477 C476 1.391 . S
H478 C486 0.950 . S
H479 C491 0.950 . S
H480 C488 0.950 . S
H481 C490 0.950 . S
H482 C492 0.950 . S
H483 C494 0.950 . S
H484 C496 0.950 . S
H485 C497 0.950 1_545 S
C486 H478 0.950 . S
C486 C487 1.386 . S
C486 C488 1.391 . S
C487 C486 1.386 . S
C487 C491 1.393 . S
C488 H480 0.950 . S
C488 C486 1.391 . S
C488 C489 1.400 . S
C489 C488 1.400 . S
C489 C490 1.398 . S
C489 C495 1.491 . S
C490 H481 0.950 . S
C490 C489 1.398 . S
C490 C491 1.391 . S
C491 H479 0.950 . S
C491 C487 1.393 . S
C491 C490 1.391 . S
C492 H482 0.950 . S
C492 C493 1.386 . S
C492 C494 1.391 . S
C493 C492 1.386 . S
C493 C497 1.393 . S
C494 H483 0.950 . S
C494 C492 1.391 . S
C494 C495 1.400 . S
C495 C489 1.491 . S
C495 C494 1.400 . S
C495 C496 1.398 . S
C496 H484 0.950 . S
C496 C495 1.398 . S
C496 C497 1.391 . S
C497 H485 0.950 1_565 S
C497 C493 1.393 . S
C497 C496 1.391 . S
C147 C85 0.822 . S
C153 C16 0.823 . S
C167 C108 0.812 . S
C173 C39 0.811 . S
C187 C131 0.826 . S
C193 C62 0.825 . S
C207 C18 1.915 . S
C213 C67 1.934 . S
C227 C41 1.926 . S
C233 C90 1.929 . S
C247 C64 1.917 . S
C253 C113 1.927 . S
C267 C87 1.925 . S
C273 C136 1.926 . S
C287 C110 1.914 . S
C293 C21 1.932 . S
C307 C133 1.924 . S
C313 C44 1.930 . S
C327 C17 0.948 . S
C333 C86 0.948 . S
C347 C40 0.948 . S
C353 C109 0.948 . S
C367 C63 0.949 . S
C373 C132 0.949 . S
C387 C20 0.665 . S
C393 C42 0.700 . S
C407 C43 0.640 . S
C413 C65 0.680 . S
C427 C66 0.659 . S
C433 C88 0.703 . S
C447 C89 0.678 . S
C453 C111 0.641 . S
C467 C112 0.719 . S
C473 C134 0.633 1_655 S
C487 C135 0.635 . S
C493 C19 0.703 . S
