# Generated by pormake.
# Topology sml, (6)-cn, num edge types: 1
# Building blocks:
#     Node 0, Type 0, BuildingBlock: CUKXOW_clean_sbu_0, # of connection points: 6
#     Node 1, Type 0, BuildingBlock: CUKXOW_clean_sbu_0, # of connection points: 6
#     Node 2, Type 0, BuildingBlock: CUKXOW_clean_sbu_0, # of connection points: 6
#     Node 3, Type 0, BuildingBlock: CUKXOW_clean_sbu_0, # of connection points: 6
#     Node 4, Type 0, BuildingBlock: CUKXOW_clean_sbu_0, # of connection points: 6
#     Node 5, Type 0, BuildingBlock: CUKXOW_clean_sbu_0, # of connection points: 6
#     Edge 6, Type (0, 0), BuildingBlock: EZIPEK_clean_linker_0, # of connection points: 2
#     Edge 7, Type (0, 0), BuildingBlock: EZIPEK_clean_linker_0, # of connection points: 2
#     Edge 8, Type (0, 0), BuildingBlock: EZIPEK_clean_linker_0, # of connection points: 2
#     Edge 9, Type (0, 0), BuildingBlock: EZIPEK_clean_linker_0, # of connection points: 2
#     Edge 10, Type (0, 0), BuildingBlock: EZIPEK_clean_linker_0, # of connection points: 2
#     Edge 11, Type (0, 0), BuildingBlock: EZIPEK_clean_linker_0, # of connection points: 2
#     Edge 12, Type (0, 0), BuildingBlock: EZIPEK_clean_linker_0, # of connection points: 2
#     Edge 13, Type (0, 0), BuildingBlock: EZIPEK_clean_linker_0, # of connection points: 2
#     Edge 14, Type (0, 0), BuildingBlock: EZIPEK_clean_linker_0, # of connection points: 2
#     Edge 15, Type (0, 0), BuildingBlock: EZIPEK_clean_linker_0, # of connection points: 2
#     Edge 16, Type (0, 0), BuildingBlock: EZIPEK_clean_linker_0, # of connection points: 2
#     Edge 17, Type (0, 0), BuildingBlock: EZIPEK_clean_linker_0, # of connection points: 2
#     Edge 18, Type (0, 0), BuildingBlock: EZIPEK_clean_linker_0, # of connection points: 2
#     Edge 19, Type (0, 0), BuildingBlock: EZIPEK_clean_linker_0, # of connection points: 2
#     Edge 20, Type (0, 0), BuildingBlock: EZIPEK_clean_linker_0, # of connection points: 2
#     Edge 21, Type (0, 0), BuildingBlock: EZIPEK_clean_linker_0, # of connection points: 2
#     Edge 22, Type (0, 0), BuildingBlock: EZIPEK_clean_linker_0, # of connection points: 2
#     Edge 23, Type (0, 0), BuildingBlock: EZIPEK_clean_linker_0, # of connection points: 2
# Relax obj value: 0.156
# Max RMSD: 0.197
# Mean RMSD: 0.197
data_MOF--net-sml--node1-CUKXOW_clean_sbu_0--edge1-EZIPEK_clean_linker_0
_symmetry_space_group_name_H-M    P1
_symmetry_Int_Tables_number       1
_symmetry_cell_setting            triclinic
loop_
_symmetry_equiv_pos_as_xyz
'x, y, z'
_cell_length_a     32.504314
_cell_length_b     32.681253
_cell_length_c     10.333045
_cell_angle_alpha  90.109499
_cell_angle_beta   90.245188
_cell_angle_gamma 120.06997
loop_
_atom_site_label
_atom_site_type_symbol
_atom_site_fract_x
_atom_site_fract_y
_atom_site_fract_z
_atom_type_partial_charge
Tb0 Tb 0.21355 0.37504 0.06357 0.0
C1 C 0.10702 0.34667 0.11336 0.0
Tb2 Tb 0.18687 0.45469 0.10585 0.0
O3 O 0.19777 0.35273 0.26692 0.0
O4 O 0.21805 0.4216 0.21458 0.0
O5 O 0.13581 0.33403 0.05711 0.0
C6 C 0.17415 0.51975 0.22676 0.0
O7 O 0.12171 0.39019 0.15708 0.0
C8 C 0.18476 0.43223 0.85554 0.0
C9 C 0.29187 0.48534 1.02509 0.0
O10 O 0.14949 0.49434 0.12841 0.0
O11 O 0.20639 0.50885 0.25526 0.0
O12 O 0.17663 0.46517 0.89707 0.0
O13 O 0.19182 0.41478 0.95593 0.0
O14 O 0.26181 0.49933 0.06257 0.0
O15 O 0.28064 0.44012 1.01882 0.0
C16 C 0.24292 0.3199 0.95631 0.0
O17 O 0.25993 0.34442 0.06201 0.0
O18 O 0.20917 0.3262 0.91101 0.0
C19 C 0.20245 0.39261 0.30787 0.0
Tb20 Tb 0.82535 0.21136 0.36529 0.0
C21 C 0.75503 0.10509 0.4319 0.0
Tb22 Tb 0.72071 0.17948 0.41342 0.0
O23 O 0.83762 0.2012 0.5704 0.0
O24 O 0.78489 0.21562 0.5201 0.0
O25 O 0.79438 0.13453 0.36842 0.0
C26 C 0.63774 0.15902 0.52032 0.0
O27 O 0.72479 0.11794 0.47574 0.0
C28 C 0.74506 0.1875 0.16368 0.0
C29 C 0.78751 0.28389 0.34232 0.0
O30 O 0.6433 0.13347 0.43301 0.0
O31 O 0.67888 0.19482 0.549 0.0
O32 O 0.70879 0.18969 0.20745 0.0
O33 O 0.76133 0.17501 0.25736 0.0
O34 O 0.75152 0.25541 0.41607 0.0
O35 O 0.81776 0.27119 0.29676 0.0
C36 C 0.9121 0.24423 0.26656 0.0
O37 O 0.90031 0.26627 0.34972 0.0
O38 O 0.87516 0.20375 0.23817 0.0
C39 C 0.80114 0.20313 0.61371 0.0
Tb40 Tb 0.61444 0.8306 0.70462 0.0
C41 C 0.64032 0.75295 0.76239 0.0
Tb42 Tb 0.53225 0.7299 0.74517 0.0
O43 O 0.63722 0.83601 0.90746 0.0
O44 O 0.56586 0.79298 0.85709 0.0
O45 O 0.65484 0.79409 0.70446 0.0
C46 C 0.46554 0.64816 0.84713 0.0
O47 O 0.59538 0.72521 0.79962 0.0
C48 C 0.55112 0.75391 0.49912 0.0
C49 C 0.50764 0.80881 0.6696 0.0
O50 O 0.49543 0.65244 0.75767 0.0
O51 O 0.47429 0.69002 0.88137 0.0
O52 O 0.511 0.71936 0.5403 0.0
O53 O 0.57991 0.76744 0.59381 0.0
O54 O 0.49102 0.76499 0.71209 0.0
O55 O 0.55368 0.83944 0.65873 0.0
C56 C 0.67396 0.91383 0.59706 0.0
O57 O 0.65622 0.90798 0.71231 0.0
O58 O 0.65917 0.87283 0.54364 0.0
C59 C 0.59552 0.80448 0.94956 0.0
Tb60 Tb 0.77012 0.60711 1.04225 0.0
C61 C 0.8787 0.63484 0.09016 0.0
Tb62 Tb 0.79555 0.52948 0.05955 0.0
O63 O 0.73802 0.59037 0.23537 0.0
O64 O 0.79265 0.57793 0.19046 0.0
O65 O 0.84834 0.65024 0.06525 0.0
C66 C 0.80635 0.45851 0.1466 0.0
O67 O 0.86566 0.58936 0.09399 0.0
C68 C 0.80119 0.56407 0.82561 0.0
C69 C 0.68766 0.50139 1.02546 0.0
O70 O 0.81369 0.49512 0.21342 0.0
O71 O 0.79228 0.46142 1.03101 0.0
O72 O 0.8268 0.54612 0.86579 0.0
O73 O 0.77144 0.55755 0.91262 0.0
O74 O 0.71783 0.48804 0.0664 0.0
O75 O 0.70109 0.54597 0.99909 0.0
C76 C 0.75226 0.67231 0.94311 0.0
O77 O 0.74393 0.65697 0.0613 0.0
O78 O 0.77199 0.65194 0.88209 0.0
C79 C 0.76269 0.57156 0.2767 0.0
Tb80 Tb 0.16136 0.77783 0.36694 0.0
C81 C 0.23095 0.88642 0.40266 0.0
Tb82 Tb 0.26782 0.81236 0.38935 0.0
O83 O 0.15785 0.79583 0.56774 0.0
O84 O 0.20818 0.77802 0.51189 0.0
O85 O 0.18802 0.85381 0.36177 0.0
C86 C 0.35159 0.83258 0.49402 0.0
O87 O 0.26614 0.87767 0.42427 0.0
C88 C 0.2344 0.79744 0.15177 0.0
C89 C 0.19746 0.70303 0.35046 0.0
O90 O 0.34595 0.85518 0.39803 0.0
O91 O 0.31004 0.8005 0.53343 0.0
O92 O 0.27385 0.79908 0.18528 0.0
O93 O 0.22109 0.81271 0.24553 0.0
O94 O 0.24198 0.73722 0.36772 0.0
O95 O 0.16071 0.71035 0.35118 0.0
C96 C 0.07268 0.74215 0.27629 0.0
O97 O 0.11002 0.75441 0.20607 0.0
O98 O 0.0854 0.75015 0.39707 0.0
C99 C 0.19591 0.79528 0.60339 0.0
Tb100 Tb 0.37329 0.15747 0.71358 0.0
C101 C 0.34856 0.23583 0.7622 0.0
Tb102 Tb 0.45431 0.25616 0.75772 0.0
O103 O 0.35094 0.14864 0.91687 0.0
O104 O 0.42171 0.19329 0.86888 0.0
O105 O 0.33578 0.19687 0.69389 0.0
C106 C 0.51335 0.33991 0.86856 0.0
O107 O 0.39197 0.26106 0.81138 0.0
C108 C 0.43575 0.23263 0.51065 0.0
C109 C 0.48017 0.17762 0.69719 0.0
O110 O 0.49055 0.33332 0.76018 0.0
O111 O 0.50451 0.29888 0.91051 0.0
O112 O 0.47671 0.26518 0.5552 0.0
O113 O 0.40608 0.22014 0.60234 0.0
O114 O 0.49686 0.22241 0.73144 0.0
O115 O 0.43402 0.14639 0.69063 0.0
C116 C 0.31594 0.07413 0.60063 0.0
O117 O 0.35864 0.10435 0.56435 0.0
O118 O 0.30518 0.09118 0.70007 0.0
C119 C 0.39212 0.18089 0.96046 0.0
C120 C 0.33188 0.30236 0.76153 0.0
C121 C 0.31505 0.2537 0.78398 0.0
C122 C 0.24357 0.24661 0.88635 0.0
C123 C 0.26515 0.29653 0.88577 0.0
N124 N 0.32982 0.37282 0.82333 0.0
N125 N 0.25449 0.17869 0.87018 0.0
C126 C 0.30917 0.32465 0.82264 0.0
C127 C 0.27024 0.22524 0.84452 0.0
N128 N 0.36898 0.32689 0.67879 0.0
N129 N 0.19779 0.21976 0.92798 0.0
H130 H 0.27228 0.16123 0.84115 0.0
H131 H 0.22536 0.15795 0.92859 0.0
H132 H 0.17792 0.23451 0.96235 0.0
H133 H 0.17818 0.18312 0.91837 0.0
H134 H 0.38028 0.36129 0.64876 0.0
H135 H 0.38535 0.31107 0.62928 0.0
H136 H 0.36452 0.39554 0.79328 0.0
H137 H 0.31316 0.39037 0.86102 0.0
C138 C 0.02263 0.32619 0.07643 0.0
C139 C 0.05505 0.31239 0.12385 0.0
C140 C 0.99091 0.24803 0.24706 0.0
C141 C 0.9596 0.26399 0.20688 0.0
N142 N 0.94094 0.30967 0.06079 0.0
N143 N 0.06657 0.25137 0.21957 0.0
C144 C 0.97405 0.30045 0.11417 0.0
C145 C 0.03803 0.27026 0.19728 0.0
N146 N 0.03872 0.36436 0.99615 0.0
N147 N 0.97642 0.21335 0.33843 0.0
H148 H 0.10151 0.26684 0.18787 0.0
H149 H 0.05451 0.21822 0.26047 0.0
H150 H 0.94184 0.19543 0.37435 0.0
H151 H -0.00077 0.20432 0.38481 0.0
H152 H 0.0192 0.38047 0.97099 0.0
H153 H 0.07263 0.38078 0.95576 0.0
H154 H 0.94776 0.33295 0.98469 0.0
H155 H 0.90511 0.29118 0.08639 0.0
C156 C 0.7682 0.04082 0.5226 0.0
C157 C 0.74074 0.0544 0.44586 0.0
C158 C 0.67723 0.9713 0.43171 0.0
C159 C 0.70017 0.96006 0.53099 0.0
N160 N 0.76765 0.98329 0.67171 0.0
N161 N 0.66984 0.03238 0.31984 0.0
C162 C 0.74594 -0.00549 0.57584 0.0
C163 C 0.69567 0.01941 0.39694 0.0
N164 N 0.81541 0.07168 0.54365 0.0
N165 N 0.63781 0.9362 0.37095 0.0
H166 H 0.68341 0.06648 0.28377 0.0
H167 H 0.63421 0.01 0.29623 0.0
H168 H 0.62283 0.90063 0.39426 0.0
H169 H 0.62236 0.94163 0.28918 0.0
H170 H 0.83808 0.06217 0.58876 0.0
H171 H 0.83303 0.10574 0.50592 0.0
H172 H 0.79816 0.00835 0.72016 0.0
H173 H 0.75361 0.94906 0.70766 0.0
C174 C 0.66061 0.6886 0.75481 0.0
C175 C 0.67479 0.73612 0.7869 0.0
C176 C 0.74728 0.74463 0.89013 0.0
C177 C 0.72821 0.69523 0.87882 0.0
N178 N 0.66555 0.61892 0.80532 0.0
N179 N 0.73316 0.81061 0.88511 0.0
C180 C 0.68479 0.66691 0.81135 0.0
C181 C 0.71906 0.76488 0.85233 0.0
N182 N 0.62498 0.66469 0.66625 0.0
N183 N 0.79264 0.77218 0.93576 0.0
H184 H 0.71476 0.82774 0.8589 0.0
H185 H 0.76153 0.83096 0.94721 0.0
H186 H 0.81371 0.75811 0.96557 0.0
H187 H 0.81093 0.80897 0.9335 0.0
H188 H 0.61609 0.63159 0.62918 0.0
H189 H 0.60781 0.68015 0.61876 0.0
H190 H 0.63121 0.59595 0.77189 0.0
H191 H 0.68252 0.60152 0.84207 0.0
C192 C 0.00889 0.73387 0.11945 0.0
C193 C 0.02279 0.71715 0.22883 0.0
C194 C 0.94009 0.65634 0.26218 0.0
C195 C 0.92713 0.66783 0.14195 0.0
N196 N 0.95032 0.71559 0.94944 0.0
N197 N 0.00245 0.65457 0.38398 0.0
C198 C 0.96177 0.70633 0.06879 0.0
C199 C 0.98863 0.67638 0.29515 0.0
N200 N 0.04001 0.77667 0.06669 0.0
N201 N 0.90592 0.62676 0.34668 0.0
H202 H 0.03789 0.66557 0.40482 0.0
H203 H 0.97883 0.62206 0.42518 0.0
H204 H 0.86978 0.61228 0.32804 0.0
H205 H 0.91355 0.62107 0.44082 0.0
H206 H 0.03039 0.79275 0.99513 0.0
H207 H 0.07433 0.79824 0.10268 0.0
H208 H 0.97538 0.73954 0.88516 0.0
H209 H 0.91604 0.69697 0.91138 0.0
C210 C 0.28665 0.01976 0.40729 0.0
C211 C 0.28648 0.0263 0.5436 0.0
C212 C 0.23125 0.94174 0.56714 0.0
C213 C 0.24005 0.93413 0.43816 0.0
N214 N 0.27551 0.96544 0.23186 0.0
N215 N 0.26505 0.99033 0.75642 0.0
C216 C 0.26744 0.97311 0.35667 0.0
C217 C 0.26007 0.98658 0.62477 0.0
N218 N 0.30375 0.05777 0.32628 0.0
N219 N 0.19523 0.90613 0.63459 0.0
H220 H 0.28866 0.02138 0.8047 0.0
H221 H 0.24987 0.96099 0.81714 0.0
H222 H 0.17102 0.87456 0.58975 0.0
H223 H 0.18542 0.91065 0.72714 0.0
H224 H 0.30141 0.05467 0.22583 0.0
H225 H 0.31571 0.09212 0.35925 0.0
H226 H 0.29983 0.99207 0.17174 0.0
H227 H 0.25882 0.93169 0.19067 0.0
C228 C 0.22534 0.45758 0.63651 0.0
C229 C 0.18975 0.42196 0.71589 0.0
C230 C 0.1588 0.36994 0.52364 0.0
C231 C 0.19774 0.40342 0.44801 0.0
N232 N 0.27469 0.47422 0.4469 0.0
N233 N 0.12401 0.34247 0.73547 0.0
C234 C 0.23262 0.44614 0.50804 0.0
C235 C 0.15729 0.37748 0.65966 0.0
N236 N 0.25278 0.50248 0.68353 0.0
N237 N 0.12148 0.33215 0.46424 0.0
H238 H 0.11824 0.34806 0.83111 0.0
H239 H 0.10378 0.30738 0.70543 0.0
H240 H 0.12035 0.32627 0.36525 0.0
H241 H 0.08962 0.30933 0.51006 0.0
H242 H 0.27506 0.53101 0.62521 0.0
H243 H 0.25145 0.51193 0.7791 0.0
H244 H 0.30302 0.50384 0.48977 0.0
H245 H 0.28363 0.4647 0.35979 0.0
C246 C 0.76584 0.15572 0.96305 0.0
C247 C 0.75913 0.19125 1.02231 0.0
C248 C 0.77708 0.23329 0.81165 0.0
C249 C 0.78675 0.19928 0.75471 0.0
N250 N 0.79502 0.13036 0.78272 0.0
N251 N 0.76266 0.26647 1.00406 0.0
C252 C 0.78285 0.16148 0.83286 0.0
C253 C 0.76526 0.2303 0.94605 0.0
N254 N 0.75255 0.11447 1.02752 0.0
N255 N 0.78027 0.26955 0.73839 0.0
H256 H 0.75273 0.26519 0.09948 0.0
H257 H 0.77329 0.29906 0.96142 0.0
H258 H 0.79769 0.27942 0.64999 0.0
H259 H 0.76496 0.28972 0.76436 0.0
H260 H 0.75089 0.08476 0.9851 0.0
H261 H 0.73827 0.10771 0.12005 0.0
H262 H 0.80044 0.10699 0.83869 0.0
H263 H 0.80217 0.12938 0.68549 0.0
C264 C 0.53059 0.77261 0.27667 0.0
C265 C 0.56264 0.76632 0.35806 0.0
C266 C 0.61313 0.77926 0.16685 0.0
C267 C 0.58407 0.79115 0.09031 0.0
N268 N 0.52237 0.81142 0.08726 0.0
N269 N 0.63617 0.76491 0.37734 0.0
C270 C 0.54457 0.79081 0.14899 0.0
C271 C 0.6047 0.77069 0.30251 0.0
N272 N 0.48656 0.76154 0.31995 0.0
N273 N 0.64699 0.7728 0.10836 0.0
H274 H 0.6283 0.74995 0.46896 0.0
H275 H 0.67087 0.7759 0.34883 0.0
H276 H 0.65328 0.77736 1.00998 0.0
H277 H 0.66553 0.75851 0.15397 0.0
H278 H 0.45998 0.75933 0.25853 0.0
H279 H 0.47533 0.75231 0.41487 0.0
H280 H 0.49617 0.8162 0.1303 0.0
H281 H 0.53415 0.82915 0.99961 0.0
C282 C 0.81102 0.61036 0.62182 0.0
C283 C 0.79118 0.56611 0.68535 0.0
C284 C 0.75612 0.52536 0.47906 0.0
C285 C 0.77253 0.56966 0.41757 0.0
N286 N 0.81338 0.65492 0.43153 0.0
N287 N 0.73934 0.48148 0.67971 0.0
C288 C 0.79917 0.61234 0.4896 0.0
C289 C 0.76219 0.52359 0.61534 0.0
N290 N 0.84264 0.65044 0.68698 0.0
N291 N 0.73588 0.4849 0.4065 0.0
H292 H 0.74342 0.47841 0.77873 0.0
H293 H 0.71325 0.45011 0.63756 0.0
H294 H 0.7307 0.48495 0.30717 0.0
H295 H 0.72806 0.45201 0.44204 0.0
H296 H 0.86299 0.68325 0.64351 0.0
H297 H 0.85089 0.65018 0.78437 0.0
H298 H 0.82739 0.68677 0.48189 0.0
H299 H 0.80915 0.65846 0.33291 0.0
C300 C 0.24652 0.83404 0.80065 0.0
C301 C 0.20736 0.79404 0.74226 0.0
C302 C 0.18386 0.75621 0.95461 0.0
C303 C 0.22116 0.79772 1.01389 0.0
N304 N 0.28261 0.87929 0.99635 0.0
N305 N 0.13565 0.71858 0.76401 0.0
C306 C 0.25063 0.83772 0.93763 0.0
C307 C 0.17506 0.75562 0.81955 0.0
N308 N 0.28125 0.86739 0.72493 0.0
N309 N 0.15777 0.71662 1.02643 0.0
H310 H 0.12997 0.71462 0.66424 0.0
H311 H 0.10729 0.69283 0.81681 0.0
H312 H 0.16123 0.71669 0.12581 0.0
H313 H 0.13486 0.68333 0.9875 0.0
H314 H 0.31204 0.89657 0.76016 0.0
H315 H 0.28256 0.86163 0.62703 0.0
H316 H 0.30124 0.91125 0.94748 0.0
H317 H 0.28751 0.88286 0.09641 0.0
C318 C 0.38428 0.21875 0.30931 0.0
C319 C 0.4248 0.22047 0.36874 0.0
C320 C 0.44148 0.19284 0.16301 0.0
C321 C 0.40329 0.19438 0.10118 0.0
N322 N 0.34184 0.21501 0.11194 0.0
N323 N 0.49823 0.21924 0.33886 0.0
C324 C 0.37533 0.20851 0.17393 0.0
C325 C 0.45543 0.21098 0.29133 0.0
N326 N 0.35492 0.22854 0.38057 0.0
N327 N 0.46233 0.17055 0.10328 0.0
H328 H 0.50914 0.22835 0.43441 0.0
H329 H 0.52438 0.21945 0.28038 0.0
H330 H 0.45105 0.1538 1.01363 0.0
H331 H 0.4869 0.16375 0.14888 0.0
H332 H 0.32078 0.2197 0.35097 0.0
H333 H 0.36429 0.24517 0.47044 0.0
H334 H 0.32432 0.23097 0.15388 0.0
H335 H 0.33401 0.20779 1.01427 0.0
C336 C 0.15152 0.56976 0.36098 0.0
C337 C 0.17879 0.56575 0.26025 0.0
C338 C 0.2128 0.6494 0.20976 0.0
C339 C 0.18934 0.65506 0.31852 0.0
N340 N 0.14116 0.62188 0.50858 0.0
N341 N 0.24106 0.60274 0.10148 0.0
C342 C 0.15968 0.61547 0.39695 0.0
C343 C 0.21121 0.60588 0.18894 0.0
N344 N 0.11771 0.52991 0.42125 0.0
N345 N 0.2344 0.6847 0.12111 0.0
H346 H 0.23955 0.5711 0.07659 0.0
H347 H 0.2699 0.6322 0.06051 0.0
H348 H 0.2351 0.71654 0.1294 0.0
H349 H 0.24683 0.68055 1.0321 0.0
H350 H 0.09323 0.52971 0.48624 0.0
H351 H 0.11205 0.49628 0.39921 0.0
H352 H 0.12325 0.59538 0.57661 0.0
H353 H 0.14697 0.65484 0.53864 0.0
C354 C 0.55456 0.14479 0.48457 0.0
C355 C 0.5922 0.15298 0.57037 0.0
C356 C 0.55296 0.17116 0.74578 0.0
C357 C 0.51504 0.16257 0.66021 0.0
N358 N 0.47364 0.12726 0.4582 0.0
N359 N 0.6204 0.16044 0.78991 0.0
C360 C 0.51349 0.14415 0.53391 0.0
C361 C 0.58921 0.16196 0.70344 0.0
N362 N 0.55942 0.14201 0.35389 0.0
N363 N 0.55466 0.18851 0.86732 0.0
H364 H 0.64621 0.1521 0.76256 0.0
H365 H 0.61767 0.16251 0.8898 0.0
H366 H 0.52712 0.19219 0.90574 0.0
H367 H 0.58429 0.20133 0.9279 0.0
H368 H 0.53561 0.14215 0.28639 0.0
H369 H 0.58926 0.14424 0.31044 0.0
H370 H 0.4688 0.10759 0.3742 0.0
H371 H 0.44419 0.13023 0.48096 0.0
C372 C 0.36957 0.56017 0.0716 0.0
C373 C 0.34029 0.52293 0.9844 0.0
C374 C 0.39449 0.56686 0.80662 0.0
C375 C 0.42477 0.60307 0.8949 0.0
N376 N 0.44742 0.62785 0.11627 0.0
N377 N 0.33165 0.48606 0.77476 0.0
C378 C 0.41414 0.59784 1.02895 0.0
C379 C 0.3553 0.52444 0.85447 0.0
N380 N 0.35475 0.55988 0.19527 0.0
N381 N 0.4003 0.57428 0.67608 0.0
H382 H 0.30029 0.45567 0.79973 0.0
H383 H 0.34502 0.48324 0.68579 0.0
H384 H 0.42626 0.60564 0.63482 0.0
H385 H 0.37613 0.5512 0.60783 0.0
H386 H 0.37133 0.58882 0.25768 0.0
H387 H 0.32419 0.53158 0.23346 0.0
H388 H 0.44366 0.62319 0.21607 0.0
H389 H 0.48114 0.65464 0.08917 0.0
C390 C 0.83765 0.37122 0.29701 0.0
C391 C 0.79194 0.32989 0.30242 0.0
C392 C 0.75608 0.37665 0.22847 0.0
C393 C 0.80194 0.4151 0.20334 0.0
N394 N 0.88692 0.44892 0.20354 0.0
N395 N 0.70702 0.2927 0.25388 0.0
C396 C 0.84294 0.41244 0.2349 0.0
C397 C 0.75084 0.33247 0.2646 0.0
N398 N 0.87555 0.37203 0.35738 0.0
N399 N 0.71725 0.38241 0.21987 0.0
H400 H 0.69995 0.2587 0.27334 0.0
H401 H 0.6779 0.29257 0.21088 0.0
H402 H 0.71919 0.41376 0.19002 0.0
H403 H 0.68377 0.3576 0.25401 0.0
H404 H 0.90875 0.40243 0.36642 0.0
H405 H 0.87252 0.34378 0.41163 0.0
H406 H 0.9178 0.44685 0.21075 0.0
H407 H 0.89205 0.48005 0.16092 0.0
C408 C 0.4016 0.82951 0.67523 0.0
C409 C 0.39694 0.83655 0.54153 0.0
C410 C 0.47344 0.84063 0.50249 0.0
C411 C 0.47277 0.82376 0.63009 0.0
N412 N 0.43536 0.80229 0.83979 0.0
N413 N 0.42605 0.84131 0.32326 0.0
C414 C 0.43656 0.81825 0.71697 0.0
C415 C 0.4326 0.84103 0.45404 0.0
N416 N 0.37365 0.83529 0.76323 0.0
N417 N 0.51222 0.85526 0.42497 0.0
H418 H 0.39603 0.83898 0.28009 0.0
H419 H 0.44844 0.83883 0.25592 0.0
H420 H 0.54124 0.85145 0.44773 0.0
H421 H 0.51667 0.87391 0.33951 0.0
H422 H 0.37817 0.83507 0.86301 0.0
H423 H 0.34938 0.84572 0.73647 0.0
H424 H 0.40645 0.79149 0.9013 0.0
H425 H 0.46232 0.79762 0.87848 0.0
C426 C 0.61857 0.46213 0.87044 0.0
C427 C 0.63815 0.46434 0.99523 0.0
C428 C 0.56724 0.38939 0.05252 0.0
C429 C 0.54929 0.38651 0.92501 0.0
N430 N 0.546 0.4328 0.74722 0.0
N431 N 0.62474 0.43854 0.21692 0.0
C432 C 0.571 0.42689 0.84468 0.0
C433 C 0.61056 0.43037 0.09023 0.0
N434 N 0.64571 0.4916 0.77351 0.0
N435 N 0.54238 0.35365 0.13819 0.0
H436 H 0.65455 0.46979 0.24756 0.0
H437 H 0.60475 0.41704 0.293 0.0
H438 H 0.50703 0.32768 0.12239 0.0
H439 H 0.55654 0.34997 0.22505 0.0
H440 H 0.6338 0.48746 0.67793 0.0
H441 H 0.68147 0.5169 0.78437 0.0
H442 H 0.55998 0.46341 0.69154 0.0
H443 H 0.50938 0.41111 0.7364 0.0
loop_
_geom_bond_atom_site_label_1
_geom_bond_atom_site_label_2
_geom_bond_distance
_geom_bond_site_symmetry_2
_ccdc_geom_bond_type
Tb0 O3 2.453 . S
Tb0 O4 2.596 . S
Tb0 O5 2.374 . S
Tb0 O13 2.343 1_554 S
Tb0 O15 2.353 . S
Tb0 O17 2.427 1_554 S
Tb0 O18 2.513 1_554 S
C1 O5 1.251 . S
C1 O7 1.263 . S
Tb2 O4 2.343 1_556 S
Tb2 O7 2.353 1_556 S
Tb2 O10 2.427 1_556 S
Tb2 O11 2.513 1_556 S
Tb2 O12 2.453 . S
Tb2 O13 2.596 . S
Tb2 O14 2.374 . S
O3 Tb0 2.453 . S
O3 C19 1.245 . S
O4 Tb0 2.596 . S
O4 Tb2 2.343 1_554 S
O4 C19 1.259 . S
O5 Tb0 2.374 . S
O5 C1 1.251 . S
C6 O10 1.275 . S
C6 O11 1.246 . S
O7 C1 1.263 . S
O7 Tb2 2.353 1_554 S
C8 O12 1.245 . S
C8 O13 1.259 . S
C9 O14 1.250 . S
C9 O15 1.263 1_556 S
O10 Tb2 2.427 1_554 S
O10 C6 1.275 . S
O11 Tb2 2.513 1_554 S
O11 C6 1.246 . S
O12 Tb2 2.453 . S
O12 C8 1.245 . S
O13 Tb0 2.343 1_556 S
O13 Tb2 2.596 . S
O13 C8 1.259 . S
O14 Tb2 2.374 . S
O14 C9 1.250 . S
O15 Tb0 2.353 . S
O15 C9 1.263 1_554 S
C16 O17 1.275 . S
C16 O18 1.246 . S
O17 Tb0 2.427 1_556 S
O17 C16 1.275 . S
O18 Tb0 2.513 1_556 S
O18 C16 1.246 . S
C19 O3 1.245 . S
C19 O4 1.259 . S
Tb20 O23 2.453 . S
Tb20 O24 2.596 . S
Tb20 O25 2.374 . S
Tb20 O33 2.343 . S
Tb20 O35 2.353 . S
Tb20 O37 2.427 . S
Tb20 O38 2.513 . S
C21 O25 1.251 . S
C21 O27 1.263 . S
Tb22 O24 2.343 . S
Tb22 O27 2.353 . S
Tb22 O30 2.427 . S
Tb22 O31 2.513 . S
Tb22 O32 2.453 . S
Tb22 O33 2.596 . S
Tb22 O34 2.374 . S
O23 Tb20 2.453 . S
O23 C39 1.245 . S
O24 Tb20 2.596 . S
O24 Tb22 2.343 . S
O24 C39 1.259 . S
O25 Tb20 2.374 . S
O25 C21 1.251 . S
C26 O30 1.275 . S
C26 O31 1.246 . S
O27 C21 1.263 . S
O27 Tb22 2.353 . S
C28 O32 1.245 . S
C28 O33 1.259 . S
C29 O34 1.250 . S
C29 O35 1.263 . S
O30 Tb22 2.427 . S
O30 C26 1.275 . S
O31 Tb22 2.513 . S
O31 C26 1.246 . S
O32 Tb22 2.453 . S
O32 C28 1.245 . S
O33 Tb20 2.343 . S
O33 Tb22 2.596 . S
O33 C28 1.259 . S
O34 Tb22 2.374 . S
O34 C29 1.250 . S
O35 Tb20 2.353 . S
O35 C29 1.263 . S
C36 O37 1.275 . S
C36 O38 1.246 . S
O37 Tb20 2.427 . S
O37 C36 1.275 . S
O38 Tb20 2.513 . S
O38 C36 1.246 . S
C39 O23 1.245 . S
C39 O24 1.259 . S
Tb40 O43 2.453 . S
Tb40 O44 2.596 . S
Tb40 O45 2.374 . S
Tb40 O53 2.343 . S
Tb40 O55 2.353 . S
Tb40 O57 2.427 . S
Tb40 O58 2.513 . S
C41 O45 1.251 . S
C41 O47 1.263 . S
Tb42 O44 2.343 . S
Tb42 O47 2.353 . S
Tb42 O50 2.427 . S
Tb42 O51 2.513 . S
Tb42 O52 2.453 . S
Tb42 O53 2.596 . S
Tb42 O54 2.374 . S
O43 Tb40 2.453 . S
O43 C59 1.245 . S
O44 Tb40 2.596 . S
O44 Tb42 2.343 . S
O44 C59 1.259 . S
O45 Tb40 2.374 . S
O45 C41 1.251 . S
C46 O50 1.275 . S
C46 O51 1.246 . S
O47 C41 1.263 . S
O47 Tb42 2.353 . S
C48 O52 1.245 . S
C48 O53 1.259 . S
C49 O54 1.250 . S
C49 O55 1.263 . S
O50 Tb42 2.427 . S
O50 C46 1.275 . S
O51 Tb42 2.513 . S
O51 C46 1.246 . S
O52 Tb42 2.453 . S
O52 C48 1.245 . S
O53 Tb40 2.343 . S
O53 Tb42 2.596 . S
O53 C48 1.259 . S
O54 Tb42 2.374 . S
O54 C49 1.250 . S
O55 Tb40 2.353 . S
O55 C49 1.263 . S
C56 O57 1.275 . S
C56 O58 1.246 . S
O57 Tb40 2.427 . S
O57 C56 1.275 . S
O58 Tb40 2.513 . S
O58 C56 1.246 . S
C59 O43 1.245 . S
C59 O44 1.259 . S
Tb60 O63 2.453 . S
Tb60 O64 2.596 . S
Tb60 O65 2.374 . S
Tb60 O73 2.343 1_554 S
Tb60 O75 2.353 . S
Tb60 O77 2.427 1_554 S
Tb60 O78 2.513 1_554 S
C61 O65 1.251 . S
C61 O67 1.263 . S
Tb62 O64 2.343 1_556 S
Tb62 O67 2.353 1_556 S
Tb62 O70 2.427 1_556 S
Tb62 O71 2.513 1_556 S
Tb62 O72 2.453 . S
Tb62 O73 2.596 . S
Tb62 O74 2.374 . S
O63 Tb60 2.453 . S
O63 C79 1.245 . S
O64 Tb60 2.596 . S
O64 Tb62 2.343 1_554 S
O64 C79 1.259 . S
O65 Tb60 2.374 . S
O65 C61 1.251 . S
C66 O70 1.275 . S
C66 O71 1.246 . S
O67 C61 1.263 . S
O67 Tb62 2.353 1_554 S
C68 O72 1.245 . S
C68 O73 1.259 . S
C69 O74 1.250 . S
C69 O75 1.263 1_556 S
O70 Tb62 2.427 1_554 S
O70 C66 1.275 . S
O71 Tb62 2.513 1_554 S
O71 C66 1.246 . S
O72 Tb62 2.453 . S
O72 C68 1.245 . S
O73 Tb60 2.343 1_556 S
O73 Tb62 2.596 . S
O73 C68 1.259 . S
O74 Tb62 2.374 . S
O74 C69 1.250 . S
O75 Tb60 2.353 . S
O75 C69 1.263 1_554 S
C76 O77 1.275 . S
C76 O78 1.246 . S
O77 Tb60 2.427 1_556 S
O77 C76 1.275 . S
O78 Tb60 2.513 1_556 S
O78 C76 1.246 . S
C79 O63 1.245 . S
C79 O64 1.259 . S
Tb80 O83 2.453 . S
Tb80 O84 2.596 . S
Tb80 O85 2.374 . S
Tb80 O93 2.343 . S
Tb80 O95 2.353 . S
Tb80 O97 2.427 . S
Tb80 O98 2.513 . S
C81 O85 1.251 . S
C81 O87 1.263 . S
Tb82 O84 2.343 . S
Tb82 O87 2.353 . S
Tb82 O90 2.427 . S
Tb82 O91 2.513 . S
Tb82 O92 2.453 . S
Tb82 O93 2.596 . S
Tb82 O94 2.374 . S
O83 Tb80 2.453 . S
O83 C99 1.245 . S
O84 Tb80 2.596 . S
O84 Tb82 2.343 . S
O84 C99 1.259 . S
O85 Tb80 2.374 . S
O85 C81 1.251 . S
C86 O90 1.275 . S
C86 O91 1.246 . S
O87 C81 1.263 . S
O87 Tb82 2.353 . S
C88 O92 1.245 . S
C88 O93 1.259 . S
C89 O94 1.250 . S
C89 O95 1.263 . S
O90 Tb82 2.427 . S
O90 C86 1.275 . S
O91 Tb82 2.513 . S
O91 C86 1.246 . S
O92 Tb82 2.453 . S
O92 C88 1.245 . S
O93 Tb80 2.343 . S
O93 Tb82 2.596 . S
O93 C88 1.259 . S
O94 Tb82 2.374 . S
O94 C89 1.250 . S
O95 Tb80 2.353 . S
O95 C89 1.263 . S
C96 O97 1.275 . S
C96 O98 1.246 . S
O97 Tb80 2.427 . S
O97 C96 1.275 . S
O98 Tb80 2.513 . S
O98 C96 1.246 . S
C99 O83 1.245 . S
C99 O84 1.259 . S
Tb100 O103 2.453 . S
Tb100 O104 2.596 . S
Tb100 O105 2.374 . S
Tb100 O113 2.343 . S
Tb100 O115 2.353 . S
Tb100 O117 2.427 . S
Tb100 O118 2.513 . S
C101 O105 1.251 . S
C101 O107 1.263 . S
Tb102 O104 2.343 . S
Tb102 O107 2.353 . S
Tb102 O110 2.427 . S
Tb102 O111 2.513 . S
Tb102 O112 2.453 . S
Tb102 O113 2.596 . S
Tb102 O114 2.374 . S
O103 Tb100 2.453 . S
O103 C119 1.245 . S
O104 Tb100 2.596 . S
O104 Tb102 2.343 . S
O104 C119 1.259 . S
O105 Tb100 2.374 . S
O105 C101 1.251 . S
C106 O110 1.275 . S
C106 O111 1.246 . S
O107 C101 1.263 . S
O107 Tb102 2.353 . S
C108 O112 1.245 . S
C108 O113 1.259 . S
C109 O114 1.250 . S
C109 O115 1.263 . S
O110 Tb102 2.427 . S
O110 C106 1.275 . S
O111 Tb102 2.513 . S
O111 C106 1.246 . S
O112 Tb102 2.453 . S
O112 C108 1.245 . S
O113 Tb100 2.343 . S
O113 Tb102 2.596 . S
O113 C108 1.259 . S
O114 Tb102 2.374 . S
O114 C109 1.250 . S
O115 Tb100 2.353 . S
O115 C109 1.263 . S
C116 O117 1.275 . S
C116 O118 1.246 . S
O117 Tb100 2.427 . S
O117 C116 1.275 . S
O118 Tb100 2.513 . S
O118 C116 1.246 . S
C119 O103 1.245 . S
C119 O104 1.259 . S
C120 C121 1.363 . S
C120 C126 1.379 . S
C120 N128 1.356 . S
C121 C120 1.363 . S
C121 C127 1.363 . S
C122 C123 1.363 . S
C122 C127 1.379 . S
C122 N129 1.356 . S
C123 C122 1.363 . S
C123 C126 1.363 . S
N124 C126 1.356 . S
N124 H136 0.984 . S
N124 H137 0.985 . S
N125 C127 1.356 . S
N125 H130 0.984 . S
N125 H131 0.985 . S
C126 C120 1.379 . S
C126 C123 1.363 . S
C126 N124 1.356 . S
C127 C121 1.363 . S
C127 C122 1.379 . S
C127 N125 1.356 . S
N128 C120 1.356 . S
N128 H134 0.984 . S
N128 H135 0.984 . S
N129 C122 1.356 . S
N129 H132 0.984 . S
N129 H133 0.985 . S
H130 N125 0.984 . S
H131 N125 0.985 . S
H132 N129 0.984 . S
H133 N129 0.985 . S
H134 N128 0.984 . S
H135 N128 0.984 . S
H136 N124 0.984 . S
H137 N124 0.985 . S
C138 C139 1.363 . S
C138 C144 1.379 1_455 S
C138 N146 1.356 1_554 S
C139 C138 1.363 . S
C139 C145 1.363 . S
C140 C141 1.368 . S
C140 C145 1.374 1_655 S
C140 N147 1.358 . S
C141 C140 1.368 . S
C141 C144 1.363 . S
N142 C144 1.356 1_556 S
N142 H154 0.984 . S
N142 H155 0.985 1_556 S
N143 C145 1.356 . S
N143 H148 0.984 . S
N143 H149 0.985 . S
C144 C138 1.379 1_655 S
C144 C141 1.363 . S
C144 N142 1.356 1_554 S
C145 C139 1.363 . S
C145 C140 1.374 1_455 S
C145 N143 1.356 . S
N146 C138 1.356 1_556 S
N146 H152 0.984 . S
N146 H153 0.984 . S
N147 C140 1.358 . S
N147 H150 0.984 . S
N147 H151 0.985 . S
H148 N143 0.984 . S
H149 N143 0.985 . S
H150 N147 0.984 . S
H151 N147 0.985 . S
H152 N146 0.984 . S
H153 N146 0.984 . S
H154 N142 0.984 . S
H155 N142 0.985 1_554 S
C156 C157 1.363 . S
C156 C162 1.364 1_545 S
C156 N164 1.356 . S
C157 C156 1.363 . S
C157 C163 1.363 . S
C158 C159 1.363 . S
C158 C163 1.379 1_565 S
C158 N165 1.356 . S
C159 C158 1.363 . S
C159 C162 1.367 . S
N160 C162 1.370 . S
N160 H172 0.984 . S
N160 H173 0.985 . S
N161 C163 1.356 . S
N161 H166 0.984 . S
N161 H167 0.985 . S
C162 C156 1.364 1_565 S
C162 C159 1.367 . S
C162 N160 1.370 . S
C163 C157 1.363 . S
C163 C158 1.379 1_545 S
C163 N161 1.356 . S
N164 C156 1.356 . S
N164 H170 0.984 . S
N164 H171 0.984 . S
N165 C158 1.356 . S
N165 H168 0.984 . S
N165 H169 0.985 . S
H166 N161 0.984 . S
H167 N161 0.985 . S
H168 N165 0.984 . S
H169 N165 0.985 . S
H170 N164 0.984 . S
H171 N164 0.984 . S
H172 N160 0.984 . S
H173 N160 0.985 . S
C174 C175 1.363 . S
C174 C180 1.379 . S
C174 N182 1.356 . S
C175 C174 1.363 . S
C175 C181 1.363 . S
C176 C177 1.363 . S
C176 C181 1.379 . S
C176 N183 1.356 . S
C177 C176 1.363 . S
C177 C180 1.363 . S
N178 C180 1.356 . S
N178 H190 0.984 . S
N178 H191 0.985 . S
N179 C181 1.356 . S
N179 H184 0.984 . S
N179 H185 0.985 . S
C180 C174 1.379 . S
C180 C177 1.363 . S
C180 N178 1.356 . S
C181 C175 1.363 . S
C181 C176 1.379 . S
C181 N179 1.356 . S
N182 C174 1.356 . S
N182 H188 0.984 . S
N182 H189 0.984 . S
N183 C176 1.356 . S
N183 H186 0.984 . S
N183 H187 0.985 . S
H184 N179 0.984 . S
H185 N179 0.985 . S
H186 N183 0.984 . S
H187 N183 0.985 . S
H188 N182 0.984 . S
H189 N182 0.984 . S
H190 N178 0.984 . S
H191 N178 0.985 . S
C192 C193 1.363 . S
C192 C198 1.379 1_455 S
C192 N200 1.356 . S
C193 C192 1.363 . S
C193 C199 1.363 . S
C194 C195 1.363 . S
C194 C199 1.379 1_655 S
C194 N201 1.356 . S
C195 C194 1.363 . S
C195 C198 1.363 . S
N196 C198 1.353 1_556 S
N196 H208 0.988 . S
N196 H209 0.984 1_556 S
N197 C199 1.356 . S
N197 H202 0.984 . S
N197 H203 0.985 . S
C198 C192 1.379 1_655 S
C198 C195 1.363 . S
C198 N196 1.353 1_554 S
C199 C193 1.363 . S
C199 C194 1.379 1_455 S
C199 N197 1.356 . S
N200 C192 1.356 . S
N200 H206 0.984 1_554 S
N200 H207 0.984 . S
N201 C194 1.356 . S
N201 H204 0.984 . S
N201 H205 0.985 . S
H202 N197 0.984 . S
H203 N197 0.985 . S
H204 N201 0.984 . S
H205 N201 0.985 . S
H206 N200 0.984 1_556 S
H207 N200 0.984 . S
H208 N196 0.988 . S
H209 N196 0.984 1_554 S
C210 C211 1.363 . S
C210 C216 1.379 1_545 S
C210 N218 1.356 . S
C211 C210 1.363 . S
C211 C217 1.363 . S
C212 C213 1.363 . S
C212 C217 1.379 1_565 S
C212 N219 1.356 . S
C213 C212 1.363 . S
C213 C216 1.363 . S
N214 C216 1.356 . S
N214 H226 0.984 . S
N214 H227 0.985 . S
N215 C217 1.356 . S
N215 H220 0.984 . S
N215 H221 0.985 . S
C216 C210 1.379 1_565 S
C216 C213 1.363 . S
C216 N214 1.356 . S
C217 C211 1.363 . S
C217 C212 1.379 1_545 S
C217 N215 1.356 . S
N218 C210 1.356 . S
N218 H224 0.984 . S
N218 H225 0.984 . S
N219 C212 1.356 . S
N219 H222 0.984 . S
N219 H223 0.985 . S
H220 N215 0.984 . S
H221 N215 0.985 . S
H222 N219 0.984 . S
H223 N219 0.985 . S
H224 N218 0.984 . S
H225 N218 0.984 . S
H226 N214 0.984 . S
H227 N214 0.985 . S
C228 C229 1.363 . S
C228 C234 1.379 . S
C228 N236 1.356 . S
C229 C228 1.363 . S
C229 C235 1.363 . S
C230 C231 1.363 . S
C230 C235 1.379 . S
C230 N237 1.356 . S
C231 C230 1.363 . S
C231 C234 1.363 . S
N232 C234 1.356 . S
N232 H244 0.984 . S
N232 H245 0.985 . S
N233 C235 1.356 . S
N233 H238 0.984 . S
N233 H239 0.985 . S
C234 C228 1.379 . S
C234 C231 1.363 . S
C234 N232 1.356 . S
C235 C229 1.363 . S
C235 C230 1.379 . S
C235 N233 1.356 . S
N236 C228 1.356 . S
N236 H242 0.984 . S
N236 H243 0.984 . S
N237 C230 1.356 . S
N237 H240 0.984 . S
N237 H241 0.985 . S
H238 N233 0.984 . S
H239 N233 0.985 . S
H240 N237 0.984 . S
H241 N237 0.985 . S
H242 N236 0.984 . S
H243 N236 0.984 . S
H244 N232 0.984 . S
H245 N232 0.985 . S
C246 C247 1.363 . S
C246 C252 1.379 . S
C246 N254 1.356 . S
C247 C246 1.363 . S
C247 C253 1.363 . S
C248 C249 1.363 . S
C248 C253 1.379 . S
C248 N255 1.356 . S
C249 C248 1.363 . S
C249 C252 1.363 . S
N250 C252 1.356 . S
N250 H262 0.984 . S
N250 H263 0.985 . S
N251 C253 1.349 1_554 S
N251 H256 0.993 . S
N251 H257 0.983 1_554 S
C252 C246 1.379 . S
C252 C249 1.363 . S
C252 N250 1.356 . S
C253 C247 1.363 . S
C253 C248 1.379 . S
C253 N251 1.349 1_556 S
N254 C246 1.356 . S
N254 H260 0.984 . S
N254 H261 0.984 1_556 S
N255 C248 1.356 . S
N255 H258 0.984 . S
N255 H259 0.985 . S
H256 N251 0.993 . S
H257 N251 0.983 1_556 S
H258 N255 0.984 . S
H259 N255 0.985 . S
H260 N254 0.984 . S
H261 N254 0.984 1_554 S
H262 N250 0.984 . S
H263 N250 0.985 . S
C264 C265 1.363 . S
C264 C270 1.379 . S
C264 N272 1.356 . S
C265 C264 1.363 . S
C265 C271 1.363 . S
C266 C267 1.363 . S
C266 C271 1.379 . S
C266 N273 1.356 . S
C267 C266 1.363 . S
C267 C270 1.363 . S
N268 C270 1.364 . S
N268 H280 0.985 . S
N268 H281 0.977 1_554 S
N269 C271 1.356 . S
N269 H274 0.984 . S
N269 H275 0.985 . S
C270 C264 1.379 . S
C270 C267 1.363 . S
C270 N268 1.364 . S
C271 C265 1.363 . S
C271 C266 1.379 . S
C271 N269 1.356 . S
N272 C264 1.356 . S
N272 H278 0.984 . S
N272 H279 0.984 . S
N273 C266 1.356 . S
N273 H276 0.984 1_554 S
N273 H277 0.985 . S
H274 N269 0.984 . S
H275 N269 0.985 . S
H276 N273 0.984 1_556 S
H277 N273 0.985 . S
H278 N272 0.984 . S
H279 N272 0.984 . S
H280 N268 0.985 . S
H281 N268 0.977 1_556 S
C282 C283 1.363 . S
C282 C288 1.379 . S
C282 N290 1.356 . S
C283 C282 1.363 . S
C283 C289 1.363 . S
C284 C285 1.363 . S
C284 C289 1.379 . S
C284 N291 1.356 . S
C285 C284 1.363 . S
C285 C288 1.363 . S
N286 C288 1.356 . S
N286 H298 0.984 . S
N286 H299 0.985 . S
N287 C289 1.356 . S
N287 H292 0.984 . S
N287 H293 0.985 . S
C288 C282 1.379 . S
C288 C285 1.363 . S
C288 N286 1.356 . S
C289 C283 1.363 . S
C289 C284 1.379 . S
C289 N287 1.356 . S
N290 C282 1.356 . S
N290 H296 0.984 . S
N290 H297 0.984 . S
N291 C284 1.356 . S
N291 H294 0.984 . S
N291 H295 0.985 . S
H292 N287 0.984 . S
H293 N287 0.985 . S
H294 N291 0.984 . S
H295 N291 0.985 . S
H296 N290 0.984 . S
H297 N290 0.984 . S
H298 N286 0.984 . S
H299 N286 0.985 . S
C300 C301 1.363 . S
C300 C306 1.379 . S
C300 N308 1.356 . S
C301 C300 1.363 . S
C301 C307 1.363 . S
C302 C303 1.363 . S
C302 C307 1.379 . S
C302 N309 1.356 . S
C303 C302 1.363 . S
C303 C306 1.363 . S
N304 C306 1.356 1_554 S
N304 H316 0.985 1_554 S
N304 H317 0.985 . S
N305 C307 1.356 . S
N305 H310 0.984 . S
N305 H311 0.985 . S
C306 C300 1.379 . S
C306 C303 1.363 . S
C306 N304 1.356 1_556 S
C307 C301 1.363 . S
C307 C302 1.379 . S
C307 N305 1.356 . S
N308 C300 1.356 . S
N308 H314 0.984 . S
N308 H315 0.984 . S
N309 C302 1.356 . S
N309 H312 0.984 1_556 S
N309 H313 0.985 . S
H310 N305 0.984 . S
H311 N305 0.985 . S
H312 N309 0.984 1_554 S
H313 N309 0.985 . S
H314 N308 0.984 . S
H315 N308 0.984 . S
H316 N304 0.985 1_556 S
H317 N304 0.985 . S
C318 C319 1.363 . S
C318 C324 1.379 . S
C318 N326 1.356 . S
C319 C318 1.363 . S
C319 C325 1.363 . S
C320 C321 1.363 . S
C320 C325 1.379 . S
C320 N327 1.356 . S
C321 C320 1.363 . S
C321 C324 1.363 . S
N322 C324 1.356 . S
N322 H334 0.984 . S
N322 H335 0.985 1_554 S
N323 C325 1.356 . S
N323 H328 0.984 . S
N323 H329 0.985 . S
C324 C318 1.379 . S
C324 C321 1.363 . S
C324 N322 1.356 . S
C325 C319 1.363 . S
C325 C320 1.379 . S
C325 N323 1.356 . S
N326 C318 1.356 . S
N326 H332 0.984 . S
N326 H333 0.984 . S
N327 C320 1.356 . S
N327 H330 0.984 1_554 S
N327 H331 0.985 . S
H328 N323 0.984 . S
H329 N323 0.985 . S
H330 N327 0.984 1_556 S
H331 N327 0.985 . S
H332 N326 0.984 . S
H333 N326 0.984 . S
H334 N322 0.984 . S
H335 N322 0.985 1_556 S
C336 C337 1.363 . S
C336 C342 1.379 . S
C336 N344 1.356 . S
C337 C336 1.363 . S
C337 C343 1.363 . S
C338 C339 1.363 . S
C338 C343 1.379 . S
C338 N345 1.356 . S
C339 C338 1.363 . S
C339 C342 1.363 . S
N340 C342 1.356 . S
N340 H352 0.984 . S
N340 H353 0.985 . S
N341 C343 1.356 . S
N341 H346 0.984 . S
N341 H347 0.985 . S
C342 C336 1.379 . S
C342 C339 1.363 . S
C342 N340 1.356 . S
C343 C337 1.363 . S
C343 C338 1.379 . S
C343 N341 1.356 . S
N344 C336 1.356 . S
N344 H350 0.984 . S
N344 H351 0.984 . S
N345 C338 1.356 . S
N345 H348 0.984 . S
N345 H349 0.985 . S
H346 N341 0.984 . S
H347 N341 0.985 . S
H348 N345 0.984 . S
H349 N345 0.985 . S
H350 N344 0.984 . S
H351 N344 0.984 . S
H352 N340 0.984 . S
H353 N340 0.985 . S
C354 C355 1.363 . S
C354 C360 1.379 . S
C354 N362 1.356 . S
C355 C354 1.363 . S
C355 C361 1.363 . S
C356 C357 1.363 . S
C356 C361 1.379 . S
C356 N363 1.356 . S
C357 C356 1.363 . S
C357 C360 1.363 . S
N358 C360 1.356 . S
N358 H370 0.984 . S
N358 H371 0.985 . S
N359 C361 1.356 . S
N359 H364 0.984 . S
N359 H365 0.985 . S
C360 C354 1.379 . S
C360 C357 1.363 . S
C360 N358 1.356 . S
C361 C355 1.363 . S
C361 C356 1.379 . S
C361 N359 1.356 . S
N362 C354 1.356 . S
N362 H368 0.984 . S
N362 H369 0.984 . S
N363 C356 1.356 . S
N363 H366 0.984 . S
N363 H367 0.985 . S
H364 N359 0.984 . S
H365 N359 0.985 . S
H366 N363 0.984 . S
H367 N363 0.985 . S
H368 N362 0.984 . S
H369 N362 0.984 . S
H370 N358 0.984 . S
H371 N358 0.985 . S
C372 C373 1.363 . S
C372 C378 1.379 . S
C372 N380 1.356 1_556 S
C373 C372 1.363 . S
C373 C379 1.363 . S
C374 C375 1.363 . S
C374 C379 1.379 . S
C374 N381 1.356 . S
C375 C374 1.363 . S
C375 C378 1.363 . S
N376 C378 1.356 1_554 S
N376 H388 0.984 . S
N376 H389 0.985 1_554 S
N377 C379 1.356 . S
N377 H382 0.984 . S
N377 H383 0.985 . S
C378 C372 1.379 . S
C378 C375 1.363 . S
C378 N376 1.356 1_556 S
C379 C373 1.363 . S
C379 C374 1.379 . S
C379 N377 1.356 . S
N380 C372 1.356 1_554 S
N380 H386 0.984 . S
N380 H387 0.984 . S
N381 C374 1.356 . S
N381 H384 0.984 . S
N381 H385 0.985 . S
H382 N377 0.984 . S
H383 N377 0.985 . S
H384 N381 0.984 . S
H385 N381 0.985 . S
H386 N380 0.984 . S
H387 N380 0.984 . S
H388 N376 0.984 . S
H389 N376 0.985 1_556 S
C390 C391 1.363 . S
C390 C396 1.379 . S
C390 N398 1.356 . S
C391 C390 1.363 . S
C391 C397 1.363 . S
C392 C393 1.363 . S
C392 C397 1.379 . S
C392 N399 1.356 . S
C393 C392 1.363 . S
C393 C396 1.363 . S
N394 C396 1.356 . S
N394 H406 0.984 . S
N394 H407 0.985 . S
N395 C397 1.356 . S
N395 H400 0.984 . S
N395 H401 0.985 . S
C396 C390 1.379 . S
C396 C393 1.363 . S
C396 N394 1.356 . S
C397 C391 1.363 . S
C397 C392 1.379 . S
C397 N395 1.356 . S
N398 C390 1.356 . S
N398 H404 0.984 . S
N398 H405 0.984 . S
N399 C392 1.356 . S
N399 H402 0.984 . S
N399 H403 0.985 . S
H400 N395 0.984 . S
H401 N395 0.985 . S
H402 N399 0.984 . S
H403 N399 0.985 . S
H404 N398 0.984 . S
H405 N398 0.984 . S
H406 N394 0.984 . S
H407 N394 0.985 . S
C408 C409 1.363 . S
C408 C414 1.379 . S
C408 N416 1.356 . S
C409 C408 1.363 . S
C409 C415 1.363 . S
C410 C411 1.363 . S
C410 C415 1.379 . S
C410 N417 1.356 . S
C411 C410 1.363 . S
C411 C414 1.363 . S
N412 C414 1.356 . S
N412 H424 0.984 . S
N412 H425 0.985 . S
N413 C415 1.356 . S
N413 H418 0.984 . S
N413 H419 0.985 . S
C414 C408 1.379 . S
C414 C411 1.363 . S
C414 N412 1.356 . S
C415 C409 1.363 . S
C415 C410 1.379 . S
C415 N413 1.356 . S
N416 C408 1.356 . S
N416 H422 0.984 . S
N416 H423 0.984 . S
N417 C410 1.356 . S
N417 H420 0.984 . S
N417 H421 0.985 . S
H418 N413 0.984 . S
H419 N413 0.985 . S
H420 N417 0.984 . S
H421 N417 0.985 . S
H422 N416 0.984 . S
H423 N416 0.984 . S
H424 N412 0.984 . S
H425 N412 0.985 . S
C426 C427 1.363 . S
C426 C432 1.379 . S
C426 N434 1.356 . S
C427 C426 1.363 . S
C427 C433 1.363 . S
C428 C429 1.363 . S
C428 C433 1.379 . S
C428 N435 1.356 1_556 S
C429 C428 1.363 . S
C429 C432 1.363 . S
N430 C432 1.356 . S
N430 H442 0.984 . S
N430 H443 0.985 . S
N431 C433 1.356 1_554 S
N431 H436 0.984 . S
N431 H437 0.985 . S
C432 C426 1.379 . S
C432 C429 1.363 . S
C432 N430 1.356 . S
C433 C427 1.363 . S
C433 C428 1.379 . S
C433 N431 1.356 1_556 S
N434 C426 1.356 . S
N434 H440 0.984 . S
N434 H441 0.984 . S
N435 C428 1.356 1_554 S
N435 H438 0.984 1_554 S
N435 H439 0.985 . S
H436 N431 0.984 . S
H437 N431 0.985 . S
H438 N435 0.984 1_556 S
H439 N435 0.985 . S
H440 N434 0.984 . S
H441 N434 0.984 . S
H442 N430 0.984 . S
H443 N430 0.985 . S
C121 C101 1.555 . S
C123 C16 1.480 . S
C139 C1 1.555 . S
C141 C36 1.480 . S
C157 C21 1.555 . S
C159 C56 1.480 . S
C175 C41 1.555 . S
C177 C76 1.480 . S
C193 C96 1.480 . S
C195 C61 1.555 . S
C211 C116 1.480 . S
C213 C81 1.555 . S
C229 C8 1.766 . S
C231 C19 1.766 . S
C247 C28 1.766 1_556 S
C249 C39 1.766 . S
C265 C48 1.766 . S
C267 C59 1.766 1_554 S
C283 C68 1.766 . S
C285 C79 1.766 . S
C301 C99 1.766 . S
C303 C88 1.766 1_556 S
C319 C108 1.766 . S
C321 C119 1.766 1_554 S
C337 C6 1.437 . S
C339 C89 1.493 . S
C355 C26 1.437 . S
C357 C109 1.493 . S
C373 C9 1.493 . S
C375 C46 1.437 . S
C391 C29 1.493 . S
C393 C66 1.437 . S
C409 C86 1.437 . S
C411 C49 1.493 . S
C427 C69 1.493 . S
C429 C106 1.437 . S
