# Generated by pormake.
# Topology vmb, (5)-cn, num edge types: 1
# Building blocks:
#     Node 0, Type 0, BuildingBlock: BEQFEK_clean_sbu_0, # of connection points: 5
#     Node 1, Type 0, BuildingBlock: BEQFEK_clean_sbu_0, # of connection points: 5
#     Node 2, Type 0, BuildingBlock: BEQFEK_clean_sbu_0, # of connection points: 5
#     Node 3, Type 0, BuildingBlock: BEQFEK_clean_sbu_0, # of connection points: 5
#     Node 4, Type 0, BuildingBlock: BEQFEK_clean_sbu_0, # of connection points: 5
#     Node 5, Type 0, BuildingBlock: BEQFEK_clean_sbu_0, # of connection points: 5
#     Node 6, Type 0, BuildingBlock: BEQFEK_clean_sbu_0, # of connection points: 5
#     Node 7, Type 0, BuildingBlock: BEQFEK_clean_sbu_0, # of connection points: 5
#     Edge 8, Type (0, 0), None
#     Edge 9, Type (0, 0), None
#     Edge 10, Type (0, 0), None
#     Edge 11, Type (0, 0), None
#     Edge 12, Type (0, 0), None
#     Edge 13, Type (0, 0), None
#     Edge 14, Type (0, 0), None
#     Edge 15, Type (0, 0), None
#     Edge 16, Type (0, 0), None
#     Edge 17, Type (0, 0), None
#     Edge 18, Type (0, 0), None
#     Edge 19, Type (0, 0), None
#     Edge 20, Type (0, 0), None
#     Edge 21, Type (0, 0), None
#     Edge 22, Type (0, 0), None
#     Edge 23, Type (0, 0), None
#     Edge 24, Type (0, 0), None
#     Edge 25, Type (0, 0), None
#     Edge 26, Type (0, 0), None
#     Edge 27, Type (0, 0), None
# Relax obj value: 0.033
# Max RMSD: 0.078
# Mean RMSD: 0.078
data_MOF--net-vmb--node1-BEQFEK_clean_sbu_0--edge1-none
_symmetry_space_group_name_H-M    P1
_symmetry_Int_Tables_number       1
_symmetry_cell_setting            triclinic
loop_
_symmetry_equiv_pos_as_xyz
'x, y, z'
_cell_length_a     23.371695
_cell_length_b     18.755116
_cell_length_c     13.957833
_cell_angle_alpha  90.001727
_cell_angle_beta   109.79214
_cell_angle_gamma 89.996234
loop_
_atom_site_label
_atom_site_type_symbol
_atom_site_fract_x
_atom_site_fract_y
_atom_site_fract_z
_atom_type_partial_charge
Co0 Co 0.16092 0.09566 0.37283 0.0
Co1 Co 0.30258 0.06584 0.44999 0.0
C2 C 0.22373 -7e-05 0.55268 0.0
O3 O 0.17574 0.02986 0.49342 0.0
O4 O 0.27469 0.00653 0.53959 0.0
C5 C 0.04089 0.04533 0.28099 0.0
O6 O 0.06984 0.98435 0.30501 0.0
C7 C 0.42591 -8e-05 0.50692 0.0
C8 C 0.47285 0.08216 0.44773 0.0
C9 C 0.48062 0.01545 0.49254 0.0
N10 N 0.38725 0.05448 0.46998 0.0
N11 N 0.41607 0.10377 0.43616 0.0
C12 C 0.40941 0.93222 0.54815 0.0
H13 H 0.36098 0.93178 0.5417 0.0
H14 H 0.41816 0.88593 0.50556 0.0
H15 H 0.43817 0.92621 0.62932 0.0
C16 C 0.17688 0.04664 0.17647 0.0
N17 N 0.19804 0.06292 0.27702 0.0
N18 N 0.25638 0.04768 0.31308 0.0
C19 C 0.27353 0.01824 0.23935 0.0
C20 C 0.22428 0.01823 0.14926 0.0
C21 C 0.11275 0.05764 0.1077 0.0
H22 H 0.09281 0.10487 0.13234 0.0
H23 H 0.08543 0.00991 0.11094 0.0
H24 H 0.1107 0.06514 0.02772 0.0
O25 O 0.19594 0.18936 0.43292 0.0
O26 O 0.29499 0.16493 0.48973 0.0
H27 H 0.36863 0.01811 0.25906 0.0
H28 H 0.33022 0.93659 0.20451 0.0
C29 C 0.33276 0.97967 0.25996 0.0
H30 H 0.34547 0.95366 0.33518 0.0
H31 H 0.39621 0.15137 0.40209 0.0
O32 O 0.07082 0.10322 0.30347 0.0
C33 C 0.25106 0.20726 0.48038 0.0
Co34 Co 0.8549 0.09565 0.13427 0.0
Co35 Co 0.71324 0.06585 0.0571 0.0
C36 C 0.79209 -7e-05 0.95441 0.0
O37 O 0.84008 0.02985 0.01368 0.0
O38 O 0.74113 0.00654 0.96749 0.0
C39 C 0.97494 0.04532 0.22611 0.0
O40 O 0.946 0.98434 0.20208 0.0
C41 C 0.58991 -8e-05 1.00017 0.0
C42 C 0.54296 0.08216 0.05934 0.0
C43 C 0.5352 0.01545 0.01454 0.0
N44 N 0.62857 0.05449 0.03709 0.0
N45 N 0.59974 0.10378 0.0709 0.0
C46 C 0.60643 0.93223 0.95894 0.0
H47 H 0.65485 0.93179 0.96539 0.0
H48 H 0.59768 0.88594 1.00154 0.0
H49 H 0.57766 0.92621 0.87778 0.0
C50 C 0.83894 0.04664 0.33061 0.0
N51 N 0.81778 0.06292 0.23006 0.0
N52 N 0.75944 0.04769 0.194 0.0
C53 C 0.74228 0.01825 0.26773 0.0
C54 C 0.79154 0.01823 0.35782 0.0
C55 C 0.90307 0.05762 0.39939 0.0
H56 H 0.92301 0.10486 0.37476 0.0
H57 H 0.93039 0.00989 0.39613 0.0
H58 H 0.90512 0.06511 0.47936 0.0
O59 O 0.81988 0.18935 0.07417 0.0
O60 O 0.72082 0.16494 0.01736 0.0
H61 H 0.64719 0.01814 0.24801 0.0
H62 H 0.68559 0.93662 0.30257 0.0
C63 C 0.68306 0.97969 0.24712 0.0
H64 H 0.67035 0.95367 0.1719 0.0
H65 H 0.61959 0.15138 0.10497 0.0
O66 O 0.94499 0.10322 0.20363 0.0
C67 C 0.76476 0.20726 0.0267 0.0
Co68 Co 0.8549 0.88988 0.63423 0.0
Co69 Co 0.71323 0.91969 0.55709 0.0
C70 C 0.79207 0.98564 0.45442 0.0
O71 O 0.84007 0.9557 0.51366 0.0
O72 O 0.74111 0.97901 0.4675 0.0
C73 C 0.97493 0.94021 0.72609 0.0
O74 O 0.94598 0.00119 0.70207 0.0
C75 C 0.58991 0.98563 0.50022 0.0
C76 C 0.54297 0.90337 0.55936 0.0
C77 C 0.53521 0.9701 0.51463 0.0
N78 N 0.62856 0.93104 0.53711 0.0
N79 N 0.59974 0.88175 0.5709 0.0
C80 C 0.60642 0.05333 0.45901 0.0
H81 H 0.65485 0.05378 0.46551 0.0
H82 H 0.59764 0.09961 0.50159 0.0
H83 H 0.57768 0.05933 0.37783 0.0
C84 C 0.83895 0.93892 0.83059 0.0
N85 N 0.81778 0.92261 0.73004 0.0
N86 N 0.75944 0.93785 0.69399 0.0
C87 C 0.74229 0.96732 0.76771 0.0
C88 C 0.79157 0.9674 0.85777 0.0
C89 C 0.90308 0.92791 0.89936 0.0
H90 H 0.92302 0.88067 0.87473 0.0
H91 H 0.93041 0.97564 0.89612 0.0
H92 H 0.90512 0.92041 0.97933 0.0
O93 O 0.81987 0.79617 0.57413 0.0
O94 O 0.72082 0.8206 0.51733 0.0
H95 H 0.64719 0.96743 0.74795 0.0
H96 H 0.68558 0.04894 0.80257 0.0
C97 C 0.68307 0.00588 0.7471 0.0
H98 H 0.67037 0.03192 0.6719 0.0
H99 H 0.61959 0.83414 0.60493 0.0
O100 O 0.945 0.88231 0.70359 0.0
C101 C 0.76475 0.77828 0.52667 0.0
Co102 Co 0.16093 0.88989 0.87284 0.0
Co103 Co 0.3026 0.91968 0.94999 0.0
C104 C 0.22375 0.98564 0.05266 0.0
O105 O 0.17575 0.95571 0.99342 0.0
O106 O 0.27471 0.979 0.03958 0.0
C107 C 0.04088 0.94021 0.78099 0.0
O108 O 0.06982 0.00119 0.80502 0.0
C109 C 0.42591 0.98562 0.00687 0.0
C110 C 0.47287 0.90336 0.94774 0.0
C111 C 0.48061 0.9701 0.99246 0.0
N112 N 0.38727 0.93104 0.96999 0.0
N113 N 0.4161 0.88174 0.93621 0.0
C114 C 0.40939 0.05332 0.04807 0.0
H115 H 0.36096 0.05377 0.04157 0.0
H116 H 0.41816 0.09961 0.00548 0.0
H117 H 0.43813 0.05934 0.12924 0.0
C118 C 0.17687 0.93893 0.6765 0.0
N119 N 0.19805 0.92261 0.77704 0.0
N120 N 0.25639 0.93784 0.81309 0.0
C121 C 0.27353 0.96731 0.73938 0.0
C122 C 0.22426 0.9674 0.64931 0.0
C123 C 0.11274 0.92793 0.60772 0.0
H124 H 0.09281 0.88069 0.63235 0.0
H125 H 0.08542 0.97566 0.61098 0.0
H126 H 0.1107 0.92044 0.52775 0.0
O127 O 0.19595 0.79618 0.93295 0.0
O128 O 0.29501 0.82059 0.98975 0.0
H129 H 0.36864 0.9674 0.75915 0.0
H130 H 0.33025 0.04891 0.70451 0.0
C131 C 0.33276 0.00586 0.75999 0.0
H132 H 0.34545 0.03191 0.83518 0.0
H133 H 0.39626 0.83412 0.90218 0.0
O134 O 0.07083 0.88232 0.80348 0.0
C135 C 0.25107 0.77828 0.98042 0.0
Co136 Co 0.66092 0.59566 0.37283 0.0
Co137 Co 0.80258 0.56584 0.44999 0.0
C138 C 0.72373 0.49993 0.55268 0.0
O139 O 0.67574 0.52986 0.49342 0.0
O140 O 0.77469 0.50653 0.53959 0.0
C141 C 0.54089 0.54533 0.28099 0.0
O142 O 0.56984 0.48435 0.30501 0.0
C143 C 0.92591 0.49992 0.50692 0.0
C144 C 0.97285 0.58216 0.44773 0.0
C145 C 0.98062 0.51545 0.49254 0.0
N146 N 0.88725 0.55448 0.46998 0.0
N147 N 0.91607 0.60377 0.43616 0.0
C148 C 0.90941 0.43222 0.54816 0.0
H149 H 0.86098 0.43178 0.5417 0.0
H150 H 0.91816 0.38593 0.50556 0.0
H151 H 0.93817 0.42622 0.62932 0.0
C152 C 0.67688 0.54664 0.17647 0.0
N153 N 0.69804 0.56292 0.27702 0.0
N154 N 0.75638 0.54768 0.31308 0.0
C155 C 0.77353 0.51824 0.23936 0.0
C156 C 0.72428 0.51823 0.14926 0.0
C157 C 0.61275 0.55764 0.1077 0.0
H158 H 0.59281 0.60487 0.13234 0.0
H159 H 0.58543 0.50991 0.11094 0.0
H160 H 0.6107 0.56514 0.02772 0.0
O161 O 0.69594 0.68936 0.43291 0.0
O162 O 0.79499 0.66493 0.48973 0.0
H163 H 0.86863 0.51811 0.25906 0.0
H164 H 0.83022 0.43659 0.20452 0.0
C165 C 0.83276 0.47967 0.25996 0.0
H166 H 0.84547 0.45366 0.33518 0.0
H167 H 0.89621 0.65137 0.40209 0.0
O168 O 0.57082 0.60322 0.30347 0.0
C169 C 0.75106 0.70726 0.48038 0.0
Co170 Co 0.3549 0.59565 0.13427 0.0
Co171 Co 0.21324 0.56585 0.0571 0.0
C172 C 0.29209 0.49993 0.95441 0.0
O173 O 0.34008 0.52985 0.01368 0.0
O174 O 0.24113 0.50654 0.96749 0.0
C175 C 0.47494 0.54532 0.22611 0.0
O176 O 0.446 0.48434 0.20208 0.0
C177 C 0.08991 0.49992 1.00017 0.0
C178 C 0.04296 0.58216 0.05934 0.0
C179 C 0.0352 0.51545 0.01454 0.0
N180 N 0.12857 0.55449 0.03709 0.0
N181 N 0.09974 0.60378 0.0709 0.0
C182 C 0.10643 0.43223 0.95894 0.0
H183 H 0.15485 0.43179 0.96539 0.0
H184 H 0.09768 0.38594 1.00154 0.0
H185 H 0.07766 0.42621 0.87778 0.0
C186 C 0.33894 0.54664 0.33061 0.0
N187 N 0.31778 0.56292 0.23006 0.0
N188 N 0.25944 0.54769 0.194 0.0
C189 C 0.24228 0.51825 0.26773 0.0
C190 C 0.29154 0.51823 0.35782 0.0
C191 C 0.40307 0.55762 0.39939 0.0
H192 H 0.42301 0.60486 0.37476 0.0
H193 H 0.43039 0.50988 0.39613 0.0
H194 H 0.40512 0.56511 0.47936 0.0
O195 O 0.31988 0.68935 0.07417 0.0
O196 O 0.22082 0.66494 0.01736 0.0
H197 H 0.14719 0.51814 0.24801 0.0
H198 H 0.18559 0.43662 0.30257 0.0
C199 C 0.18306 0.47969 0.24712 0.0
H200 H 0.17035 0.45367 0.1719 0.0
H201 H 0.11959 0.65138 0.10497 0.0
O202 O 0.44499 0.60322 0.20363 0.0
C203 C 0.26476 0.70726 0.02671 0.0
Co204 Co 0.3549 0.38988 0.63423 0.0
Co205 Co 0.21323 0.41969 0.55709 0.0
C206 C 0.29207 0.48563 0.45442 0.0
O207 O 0.34007 0.4557 0.51366 0.0
O208 O 0.24111 0.47901 0.4675 0.0
C209 C 0.47493 0.44021 0.72609 0.0
O210 O 0.44598 0.50119 0.70207 0.0
C211 C 0.08991 0.48562 0.50022 0.0
C212 C 0.04297 0.40337 0.55936 0.0
C213 C 0.03521 0.4701 0.51463 0.0
N214 N 0.12856 0.43104 0.53711 0.0
N215 N 0.09974 0.38175 0.5709 0.0
C216 C 0.10642 0.55333 0.45901 0.0
H217 H 0.15485 0.55378 0.46551 0.0
H218 H 0.09764 0.59961 0.50159 0.0
H219 H 0.07768 0.55933 0.37783 0.0
C220 C 0.33895 0.43892 0.83059 0.0
N221 N 0.31778 0.42261 0.73004 0.0
N222 N 0.25944 0.43785 0.69399 0.0
C223 C 0.24229 0.46732 0.76771 0.0
C224 C 0.29157 0.4674 0.85777 0.0
C225 C 0.40308 0.42791 0.89936 0.0
H226 H 0.42302 0.38067 0.87473 0.0
H227 H 0.43041 0.47564 0.89612 0.0
H228 H 0.40512 0.42041 0.97933 0.0
O229 O 0.31987 0.29617 0.57413 0.0
O230 O 0.22082 0.3206 0.51734 0.0
H231 H 0.14719 0.46743 0.74795 0.0
H232 H 0.18558 0.54894 0.80257 0.0
C233 C 0.18307 0.50588 0.7471 0.0
H234 H 0.17037 0.53192 0.6719 0.0
H235 H 0.11959 0.33414 0.60493 0.0
O236 O 0.445 0.38231 0.70359 0.0
C237 C 0.26475 0.27827 0.52667 0.0
Co238 Co 0.66093 0.38989 0.87284 0.0
Co239 Co 0.8026 0.41968 0.94999 0.0
C240 C 0.72375 0.48564 0.05266 0.0
O241 O 0.67575 0.45571 0.99342 0.0
O242 O 0.77471 0.479 0.03958 0.0
C243 C 0.54088 0.44021 0.78099 0.0
O244 O 0.56982 0.50119 0.80502 0.0
C245 C 0.92591 0.48562 0.00687 0.0
C246 C 0.97287 0.40337 0.94774 0.0
C247 C 0.98061 0.4701 0.99246 0.0
N248 N 0.88727 0.43104 0.96999 0.0
N249 N 0.9161 0.38174 0.9362 0.0
C250 C 0.90939 0.55332 0.04807 0.0
H251 H 0.86096 0.55377 0.04157 0.0
H252 H 0.91816 0.59961 0.00548 0.0
H253 H 0.93813 0.55934 0.12924 0.0
C254 C 0.67687 0.43893 0.6765 0.0
N255 N 0.69805 0.42262 0.77704 0.0
N256 N 0.75639 0.43784 0.81309 0.0
C257 C 0.77353 0.46731 0.73938 0.0
C258 C 0.72426 0.4674 0.64931 0.0
C259 C 0.61274 0.42793 0.60772 0.0
H260 H 0.59281 0.38069 0.63235 0.0
H261 H 0.58542 0.47566 0.61098 0.0
H262 H 0.6107 0.42044 0.52775 0.0
O263 O 0.69595 0.29618 0.93295 0.0
O264 O 0.79501 0.32059 0.98975 0.0
H265 H 0.86864 0.4674 0.75915 0.0
H266 H 0.83025 0.54891 0.70451 0.0
C267 C 0.83276 0.50586 0.75999 0.0
H268 H 0.84545 0.53191 0.83519 0.0
H269 H 0.89626 0.33412 0.90218 0.0
O270 O 0.57083 0.38232 0.80348 0.0
C271 C 0.75107 0.27827 0.98041 0.0
loop_
_geom_bond_atom_site_label_1
_geom_bond_atom_site_label_2
_geom_bond_distance
_geom_bond_site_symmetry_2
_ccdc_geom_bond_type
Co0 O3 1.970 . S
Co0 N17 1.989 . S
Co0 O25 1.967 . S
Co0 O32 1.920 . S
Co1 O4 1.966 . S
Co1 N10 2.022 . S
Co1 N18 1.993 . S
Co1 O26 1.941 . S
C2 O3 1.258 . S
C2 O4 1.263 . S
O3 Co0 1.970 . S
O3 C2 1.258 . S
O4 Co1 1.966 . S
O4 C2 1.263 . S
C5 O6 1.235 1_545 S
C5 O32 1.289 . S
O6 C5 1.235 1_565 S
C7 C9 1.400 . S
C7 N10 1.351 . S
C7 C12 1.501 1_545 S
C8 C9 1.387 . S
C8 N11 1.341 . S
C9 C7 1.400 . S
C9 C8 1.387 . S
N10 Co1 2.022 . S
N10 C7 1.351 . S
N10 N11 1.365 . S
N11 C8 1.341 . S
N11 N10 1.365 . S
N11 H31 0.862 . S
C12 C7 1.501 1_565 S
C12 H13 0.961 . S
C12 H14 0.961 . S
C12 H15 0.960 . S
H13 C12 0.961 . S
H14 C12 0.961 . S
H15 C12 0.960 . S
C16 N17 1.342 . S
C16 C20 1.401 . S
C16 C21 1.499 . S
N17 Co0 1.989 . S
N17 C16 1.342 . S
N17 N18 1.388 . S
N18 Co1 1.993 . S
N18 N17 1.388 . S
N18 C19 1.346 . S
C19 N18 1.346 . S
C19 C20 1.396 . S
C19 C29 1.510 . S
C20 C16 1.401 . S
C20 C19 1.396 . S
C21 C16 1.499 . S
C21 H22 0.959 . S
C21 H23 0.960 . S
C21 H24 0.961 . S
H22 C21 0.959 . S
H23 C21 0.960 . S
H24 C21 0.961 . S
O25 Co0 1.967 . S
O25 C33 1.258 . S
O26 Co1 1.941 . S
O26 C33 1.266 . S
H27 C29 0.959 . S
H28 C29 0.961 1_565 S
C29 C19 1.510 . S
C29 H27 0.959 . S
C29 H28 0.961 1_545 S
C29 H30 0.960 . S
H30 C29 0.960 . S
H31 N11 0.862 . S
O32 Co0 1.920 . S
O32 C5 1.289 . S
C33 O25 1.258 . S
C33 O26 1.266 . S
Co34 O37 1.970 . S
Co34 N51 1.989 . S
Co34 O59 1.967 . S
Co34 O66 1.920 . S
Co35 O38 1.966 1_554 S
Co35 N44 2.022 . S
Co35 N52 1.993 . S
Co35 O60 1.941 . S
C36 O37 1.258 1_556 S
C36 O38 1.263 . S
O37 Co34 1.970 . S
O37 C36 1.258 1_554 S
O38 Co35 1.966 1_556 S
O38 C36 1.263 . S
C39 O40 1.235 1_545 S
C39 O66 1.289 . S
O40 C39 1.235 1_565 S
C41 C43 1.400 . S
C41 N44 1.351 1_556 S
C41 C46 1.501 1_545 S
C42 C43 1.387 1_554 S
C42 N45 1.341 . S
C43 C41 1.400 . S
C43 C42 1.387 1_556 S
N44 Co35 2.022 . S
N44 C41 1.351 1_554 S
N44 N45 1.365 . S
N45 C42 1.341 . S
N45 N44 1.365 . S
N45 H65 0.862 . S
C46 C41 1.501 1_565 S
C46 H47 0.961 . S
C46 H48 0.961 . S
C46 H49 0.960 . S
H47 C46 0.961 . S
H48 C46 0.961 . S
H49 C46 0.960 . S
C50 N51 1.342 . S
C50 C54 1.401 . S
C50 C55 1.499 . S
N51 Co34 1.989 . S
N51 C50 1.342 . S
N51 N52 1.388 . S
N52 Co35 1.993 . S
N52 N51 1.388 . S
N52 C53 1.346 . S
C53 N52 1.346 . S
C53 C54 1.396 . S
C53 C63 1.510 . S
C54 C50 1.401 . S
C54 C53 1.396 . S
C55 C50 1.499 . S
C55 H56 0.959 . S
C55 H57 0.960 . S
C55 H58 0.961 . S
H56 C55 0.959 . S
H57 C55 0.960 . S
H58 C55 0.961 . S
O59 Co34 1.967 . S
O59 C67 1.258 . S
O60 Co35 1.941 . S
O60 C67 1.266 . S
H61 C63 0.959 . S
H62 C63 0.961 1_565 S
C63 C53 1.510 . S
C63 H61 0.959 . S
C63 H62 0.961 1_545 S
C63 H64 0.960 . S
H64 C63 0.960 . S
H65 N45 0.862 . S
O66 Co34 1.920 . S
O66 C39 1.289 . S
C67 O59 1.258 . S
C67 O60 1.266 . S
Co68 O71 1.970 . S
Co68 N85 1.989 . S
Co68 O93 1.967 . S
Co68 O100 1.920 . S
Co69 O72 1.966 . S
Co69 N78 2.022 . S
Co69 N86 1.993 . S
Co69 O94 1.941 . S
C70 O71 1.258 . S
C70 O72 1.263 . S
O71 Co68 1.970 . S
O71 C70 1.258 . S
O72 Co69 1.966 . S
O72 C70 1.263 . S
C73 O74 1.235 1_565 S
C73 O100 1.289 . S
O74 C73 1.235 1_545 S
C75 C77 1.400 . S
C75 N78 1.351 . S
C75 C80 1.501 1_565 S
C76 C77 1.387 . S
C76 N79 1.341 . S
C77 C75 1.400 . S
C77 C76 1.387 . S
N78 Co69 2.022 . S
N78 C75 1.351 . S
N78 N79 1.365 . S
N79 C76 1.341 . S
N79 N78 1.365 . S
N79 H99 0.862 . S
C80 C75 1.501 1_545 S
C80 H81 0.961 . S
C80 H82 0.961 . S
C80 H83 0.960 . S
H81 C80 0.961 . S
H82 C80 0.961 . S
H83 C80 0.960 . S
C84 N85 1.342 . S
C84 C88 1.401 . S
C84 C89 1.499 . S
N85 Co68 1.989 . S
N85 C84 1.342 . S
N85 N86 1.388 . S
N86 Co69 1.993 . S
N86 N85 1.388 . S
N86 C87 1.346 . S
C87 N86 1.346 . S
C87 C88 1.396 . S
C87 C97 1.510 . S
C88 C84 1.401 . S
C88 C87 1.396 . S
C89 C84 1.499 . S
C89 H90 0.959 . S
C89 H91 0.960 . S
C89 H92 0.961 . S
H90 C89 0.959 . S
H91 C89 0.960 . S
H92 C89 0.961 . S
O93 Co68 1.967 . S
O93 C101 1.258 . S
O94 Co69 1.941 . S
O94 C101 1.266 . S
H95 C97 0.959 . S
H96 C97 0.961 1_545 S
C97 C87 1.510 . S
C97 H95 0.959 . S
C97 H96 0.961 1_565 S
C97 H98 0.960 . S
H98 C97 0.960 . S
H99 N79 0.862 . S
O100 Co68 1.920 . S
O100 C73 1.289 . S
C101 O93 1.258 . S
C101 O94 1.266 . S
Co102 O105 1.970 . S
Co102 N119 1.989 . S
Co102 O127 1.967 . S
Co102 O134 1.920 . S
Co103 O106 1.966 1_556 S
Co103 N112 2.022 . S
Co103 N120 1.993 . S
Co103 O128 1.941 . S
C104 O105 1.258 1_554 S
C104 O106 1.263 . S
O105 Co102 1.970 . S
O105 C104 1.258 1_556 S
O106 Co103 1.966 1_554 S
O106 C104 1.263 . S
C107 O108 1.235 1_565 S
C107 O134 1.289 . S
O108 C107 1.235 1_545 S
C109 C111 1.400 . S
C109 N112 1.351 1_554 S
C109 C114 1.501 1_565 S
C110 C111 1.387 1_556 S
C110 N113 1.341 . S
C111 C109 1.400 . S
C111 C110 1.387 1_554 S
N112 Co103 2.022 . S
N112 C109 1.351 1_556 S
N112 N113 1.365 . S
N113 C110 1.341 . S
N113 N112 1.365 . S
N113 H133 0.862 . S
C114 C109 1.501 1_545 S
C114 H115 0.961 . S
C114 H116 0.961 . S
C114 H117 0.960 . S
H115 C114 0.961 . S
H116 C114 0.961 . S
H117 C114 0.960 . S
C118 N119 1.342 . S
C118 C122 1.401 . S
C118 C123 1.499 . S
N119 Co102 1.989 . S
N119 C118 1.342 . S
N119 N120 1.388 . S
N120 Co103 1.993 . S
N120 N119 1.388 . S
N120 C121 1.346 . S
C121 N120 1.346 . S
C121 C122 1.396 . S
C121 C131 1.510 . S
C122 C118 1.401 . S
C122 C121 1.396 . S
C123 C118 1.499 . S
C123 H124 0.959 . S
C123 H125 0.960 . S
C123 H126 0.961 . S
H124 C123 0.959 . S
H125 C123 0.960 . S
H126 C123 0.961 . S
O127 Co102 1.967 . S
O127 C135 1.258 . S
O128 Co103 1.941 . S
O128 C135 1.266 . S
H129 C131 0.959 . S
H130 C131 0.961 1_545 S
C131 C121 1.510 . S
C131 H129 0.959 . S
C131 H130 0.961 1_565 S
C131 H132 0.960 . S
H132 C131 0.960 . S
H133 N113 0.862 . S
O134 Co102 1.920 . S
O134 C107 1.289 . S
C135 O127 1.258 . S
C135 O128 1.266 . S
Co136 O139 1.970 . S
Co136 N153 1.989 . S
Co136 O161 1.967 . S
Co136 O168 1.920 . S
Co137 O140 1.966 . S
Co137 N146 2.022 . S
Co137 N154 1.993 . S
Co137 O162 1.941 . S
C138 O139 1.258 . S
C138 O140 1.263 . S
O139 Co136 1.970 . S
O139 C138 1.258 . S
O140 Co137 1.966 . S
O140 C138 1.263 . S
C141 O142 1.235 . S
C141 O168 1.289 . S
O142 C141 1.235 . S
C143 C145 1.400 . S
C143 N146 1.351 . S
C143 C148 1.501 . S
C144 C145 1.387 . S
C144 N147 1.341 . S
C145 C143 1.400 . S
C145 C144 1.387 . S
N146 Co137 2.022 . S
N146 C143 1.351 . S
N146 N147 1.365 . S
N147 C144 1.341 . S
N147 N146 1.365 . S
N147 H167 0.862 . S
C148 C143 1.501 . S
C148 H149 0.961 . S
C148 H150 0.961 . S
C148 H151 0.960 . S
H149 C148 0.961 . S
H150 C148 0.961 . S
H151 C148 0.960 . S
C152 N153 1.342 . S
C152 C156 1.401 . S
C152 C157 1.499 . S
N153 Co136 1.989 . S
N153 C152 1.342 . S
N153 N154 1.388 . S
N154 Co137 1.993 . S
N154 N153 1.388 . S
N154 C155 1.346 . S
C155 N154 1.346 . S
C155 C156 1.396 . S
C155 C165 1.510 . S
C156 C152 1.401 . S
C156 C155 1.396 . S
C157 C152 1.499 . S
C157 H158 0.959 . S
C157 H159 0.960 . S
C157 H160 0.961 . S
H158 C157 0.959 . S
H159 C157 0.960 . S
H160 C157 0.961 . S
O161 Co136 1.967 . S
O161 C169 1.258 . S
O162 Co137 1.941 . S
O162 C169 1.266 . S
H163 C165 0.959 . S
H164 C165 0.961 . S
C165 C155 1.510 . S
C165 H163 0.959 . S
C165 H164 0.961 . S
C165 H166 0.960 . S
H166 C165 0.960 . S
H167 N147 0.862 . S
O168 Co136 1.920 . S
O168 C141 1.289 . S
C169 O161 1.258 . S
C169 O162 1.266 . S
Co170 O173 1.970 . S
Co170 N187 1.989 . S
Co170 O195 1.967 . S
Co170 O202 1.920 . S
Co171 O174 1.966 1_554 S
Co171 N180 2.022 . S
Co171 N188 1.993 . S
Co171 O196 1.941 . S
C172 O173 1.258 1_556 S
C172 O174 1.263 . S
O173 Co170 1.970 . S
O173 C172 1.258 1_554 S
O174 Co171 1.966 1_556 S
O174 C172 1.263 . S
C175 O176 1.235 . S
C175 O202 1.289 . S
O176 C175 1.235 . S
C177 C179 1.400 . S
C177 N180 1.351 1_556 S
C177 C182 1.501 . S
C178 C179 1.387 1_554 S
C178 N181 1.341 . S
C179 C177 1.400 . S
C179 C178 1.387 1_556 S
N180 Co171 2.022 . S
N180 C177 1.351 1_554 S
N180 N181 1.365 . S
N181 C178 1.341 . S
N181 N180 1.365 . S
N181 H201 0.862 . S
C182 C177 1.501 . S
C182 H183 0.961 . S
C182 H184 0.961 . S
C182 H185 0.960 . S
H183 C182 0.961 . S
H184 C182 0.961 . S
H185 C182 0.960 . S
C186 N187 1.342 . S
C186 C190 1.401 . S
C186 C191 1.499 . S
N187 Co170 1.989 . S
N187 C186 1.342 . S
N187 N188 1.388 . S
N188 Co171 1.993 . S
N188 N187 1.388 . S
N188 C189 1.346 . S
C189 N188 1.346 . S
C189 C190 1.396 . S
C189 C199 1.510 . S
C190 C186 1.401 . S
C190 C189 1.396 . S
C191 C186 1.499 . S
C191 H192 0.959 . S
C191 H193 0.960 . S
C191 H194 0.961 . S
H192 C191 0.959 . S
H193 C191 0.960 . S
H194 C191 0.961 . S
O195 Co170 1.967 . S
O195 C203 1.258 . S
O196 Co171 1.941 . S
O196 C203 1.266 . S
H197 C199 0.959 . S
H198 C199 0.961 . S
C199 C189 1.510 . S
C199 H197 0.959 . S
C199 H198 0.961 . S
C199 H200 0.960 . S
H200 C199 0.960 . S
H201 N181 0.862 . S
O202 Co170 1.920 . S
O202 C175 1.289 . S
C203 O195 1.258 . S
C203 O196 1.266 . S
Co204 O207 1.970 . S
Co204 N221 1.989 . S
Co204 O229 1.967 . S
Co204 O236 1.920 . S
Co205 O208 1.966 . S
Co205 N214 2.022 . S
Co205 N222 1.993 . S
Co205 O230 1.941 . S
C206 O207 1.258 . S
C206 O208 1.263 . S
O207 Co204 1.970 . S
O207 C206 1.258 . S
O208 Co205 1.966 . S
O208 C206 1.263 . S
C209 O210 1.235 . S
C209 O236 1.289 . S
O210 C209 1.235 . S
C211 C213 1.400 . S
C211 N214 1.351 . S
C211 C216 1.501 . S
C212 C213 1.387 . S
C212 N215 1.341 . S
C213 C211 1.400 . S
C213 C212 1.387 . S
N214 Co205 2.022 . S
N214 C211 1.351 . S
N214 N215 1.365 . S
N215 C212 1.341 . S
N215 N214 1.365 . S
N215 H235 0.862 . S
C216 C211 1.501 . S
C216 H217 0.961 . S
C216 H218 0.961 . S
C216 H219 0.960 . S
H217 C216 0.961 . S
H218 C216 0.961 . S
H219 C216 0.960 . S
C220 N221 1.342 . S
C220 C224 1.401 . S
C220 C225 1.499 . S
N221 Co204 1.989 . S
N221 C220 1.342 . S
N221 N222 1.388 . S
N222 Co205 1.993 . S
N222 N221 1.388 . S
N222 C223 1.346 . S
C223 N222 1.346 . S
C223 C224 1.396 . S
C223 C233 1.510 . S
C224 C220 1.401 . S
C224 C223 1.396 . S
C225 C220 1.499 . S
C225 H226 0.959 . S
C225 H227 0.960 . S
C225 H228 0.961 . S
H226 C225 0.959 . S
H227 C225 0.960 . S
H228 C225 0.961 . S
O229 Co204 1.967 . S
O229 C237 1.258 . S
O230 Co205 1.941 . S
O230 C237 1.266 . S
H231 C233 0.959 . S
H232 C233 0.961 . S
C233 C223 1.510 . S
C233 H231 0.959 . S
C233 H232 0.961 . S
C233 H234 0.960 . S
H234 C233 0.960 . S
H235 N215 0.862 . S
O236 Co204 1.920 . S
O236 C209 1.289 . S
C237 O229 1.258 . S
C237 O230 1.266 . S
Co238 O241 1.970 . S
Co238 N255 1.989 . S
Co238 O263 1.967 . S
Co238 O270 1.920 . S
Co239 O242 1.966 1_556 S
Co239 N248 2.022 . S
Co239 N256 1.993 . S
Co239 O264 1.941 . S
C240 O241 1.258 1_554 S
C240 O242 1.263 . S
O241 Co238 1.970 . S
O241 C240 1.258 1_556 S
O242 Co239 1.966 1_554 S
O242 C240 1.263 . S
C243 O244 1.235 . S
C243 O270 1.289 . S
O244 C243 1.235 . S
C245 C247 1.400 . S
C245 N248 1.351 1_554 S
C245 C250 1.501 . S
C246 C247 1.387 1_556 S
C246 N249 1.341 . S
C247 C245 1.400 . S
C247 C246 1.387 1_554 S
N248 Co239 2.022 . S
N248 C245 1.351 1_556 S
N248 N249 1.365 . S
N249 C246 1.341 . S
N249 N248 1.365 . S
N249 H269 0.862 . S
C250 C245 1.501 . S
C250 H251 0.961 . S
C250 H252 0.961 . S
C250 H253 0.960 . S
H251 C250 0.961 . S
H252 C250 0.961 . S
H253 C250 0.960 . S
C254 N255 1.342 . S
C254 C258 1.401 . S
C254 C259 1.499 . S
N255 Co238 1.989 . S
N255 C254 1.342 . S
N255 N256 1.388 . S
N256 Co239 1.993 . S
N256 N255 1.388 . S
N256 C257 1.346 . S
C257 N256 1.346 . S
C257 C258 1.396 . S
C257 C267 1.510 . S
C258 C254 1.401 . S
C258 C257 1.396 . S
C259 C254 1.499 . S
C259 H260 0.959 . S
C259 H261 0.960 . S
C259 H262 0.961 . S
H260 C259 0.959 . S
H261 C259 0.960 . S
H262 C259 0.961 . S
O263 Co238 1.967 . S
O263 C271 1.258 . S
O264 Co239 1.941 . S
O264 C271 1.266 . S
H265 C267 0.959 . S
H266 C267 0.961 . S
C267 C257 1.510 . S
C267 H265 0.959 . S
C267 H266 0.961 . S
C267 H268 0.960 . S
H268 C267 0.960 . S
H269 N249 0.862 . S
O270 Co238 1.920 . S
O270 C243 1.289 . S
C271 O263 1.258 . S
C271 O264 1.266 . S
C104 C20 1.460 1_565 S
C54 C70 1.460 1_545 S
C88 C36 1.460 1_565 S
C122 C2 1.460 1_565 S
C156 C240 1.460 . S
C190 C206 1.460 . S
C172 C224 1.460 . S
C258 C138 1.460 . S
C77 C9 1.200 1_565 S
C111 C43 1.201 1_564 S
C145 C213 1.200 1_655 S
C179 C247 1.201 1_456 S
C5 C39 1.687 1_455 S
C107 C73 1.687 1_455 S
C175 C141 1.687 . S
C243 C209 1.687 . S
C237 C33 1.745 . S
C271 C67 1.745 1_556 S
C169 C101 1.745 . S
C135 C203 1.745 1_556 S
