# Generated by pormake.
# Topology atn, (4)-cn, num edge types: 1
# Building blocks:
#     Node 0, Type 0, BuildingBlock: ICAMEG_clean_sbu_1, # of connection points: 4
#     Node 1, Type 0, BuildingBlock: ICAMEG_clean_sbu_1, # of connection points: 4
#     Node 2, Type 0, BuildingBlock: ICAMEG_clean_sbu_1, # of connection points: 4
#     Node 3, Type 0, BuildingBlock: ICAMEG_clean_sbu_1, # of connection points: 4
#     Node 4, Type 0, BuildingBlock: ICAMEG_clean_sbu_1, # of connection points: 4
#     Node 5, Type 0, BuildingBlock: ICAMEG_clean_sbu_1, # of connection points: 4
#     Node 6, Type 0, BuildingBlock: ICAMEG_clean_sbu_1, # of connection points: 4
#     Node 7, Type 0, BuildingBlock: ICAMEG_clean_sbu_1, # of connection points: 4
#     Node 8, Type 0, BuildingBlock: ICAMEG_clean_sbu_1, # of connection points: 4
#     Node 9, Type 0, BuildingBlock: ICAMEG_clean_sbu_1, # of connection points: 4
#     Node 10, Type 0, BuildingBlock: ICAMEG_clean_sbu_1, # of connection points: 4
#     Node 11, Type 0, BuildingBlock: ICAMEG_clean_sbu_1, # of connection points: 4
#     Node 12, Type 0, BuildingBlock: ICAMEG_clean_sbu_1, # of connection points: 4
#     Node 13, Type 0, BuildingBlock: ICAMEG_clean_sbu_1, # of connection points: 4
#     Node 14, Type 0, BuildingBlock: ICAMEG_clean_sbu_1, # of connection points: 4
#     Node 15, Type 0, BuildingBlock: ICAMEG_clean_sbu_1, # of connection points: 4
#     Edge 16, Type (0, 0), BuildingBlock: AJUNOK_clean_linker_0, # of connection points: 2
#     Edge 17, Type (0, 0), BuildingBlock: AJUNOK_clean_linker_0, # of connection points: 2
#     Edge 18, Type (0, 0), BuildingBlock: AJUNOK_clean_linker_0, # of connection points: 2
#     Edge 19, Type (0, 0), BuildingBlock: AJUNOK_clean_linker_0, # of connection points: 2
#     Edge 20, Type (0, 0), BuildingBlock: AJUNOK_clean_linker_0, # of connection points: 2
#     Edge 21, Type (0, 0), BuildingBlock: AJUNOK_clean_linker_0, # of connection points: 2
#     Edge 22, Type (0, 0), BuildingBlock: AJUNOK_clean_linker_0, # of connection points: 2
#     Edge 23, Type (0, 0), BuildingBlock: AJUNOK_clean_linker_0, # of connection points: 2
#     Edge 24, Type (0, 0), BuildingBlock: AJUNOK_clean_linker_0, # of connection points: 2
#     Edge 25, Type (0, 0), BuildingBlock: AJUNOK_clean_linker_0, # of connection points: 2
#     Edge 26, Type (0, 0), BuildingBlock: AJUNOK_clean_linker_0, # of connection points: 2
#     Edge 27, Type (0, 0), BuildingBlock: AJUNOK_clean_linker_0, # of connection points: 2
#     Edge 28, Type (0, 0), BuildingBlock: AJUNOK_clean_linker_0, # of connection points: 2
#     Edge 29, Type (0, 0), BuildingBlock: AJUNOK_clean_linker_0, # of connection points: 2
#     Edge 30, Type (0, 0), BuildingBlock: AJUNOK_clean_linker_0, # of connection points: 2
#     Edge 31, Type (0, 0), BuildingBlock: AJUNOK_clean_linker_0, # of connection points: 2
#     Edge 32, Type (0, 0), BuildingBlock: AJUNOK_clean_linker_0, # of connection points: 2
#     Edge 33, Type (0, 0), BuildingBlock: AJUNOK_clean_linker_0, # of connection points: 2
#     Edge 34, Type (0, 0), BuildingBlock: AJUNOK_clean_linker_0, # of connection points: 2
#     Edge 35, Type (0, 0), BuildingBlock: AJUNOK_clean_linker_0, # of connection points: 2
#     Edge 36, Type (0, 0), BuildingBlock: AJUNOK_clean_linker_0, # of connection points: 2
#     Edge 37, Type (0, 0), BuildingBlock: AJUNOK_clean_linker_0, # of connection points: 2
#     Edge 38, Type (0, 0), BuildingBlock: AJUNOK_clean_linker_0, # of connection points: 2
#     Edge 39, Type (0, 0), BuildingBlock: AJUNOK_clean_linker_0, # of connection points: 2
#     Edge 40, Type (0, 0), BuildingBlock: AJUNOK_clean_linker_0, # of connection points: 2
#     Edge 41, Type (0, 0), BuildingBlock: AJUNOK_clean_linker_0, # of connection points: 2
#     Edge 42, Type (0, 0), BuildingBlock: AJUNOK_clean_linker_0, # of connection points: 2
#     Edge 43, Type (0, 0), BuildingBlock: AJUNOK_clean_linker_0, # of connection points: 2
#     Edge 44, Type (0, 0), BuildingBlock: AJUNOK_clean_linker_0, # of connection points: 2
#     Edge 45, Type (0, 0), BuildingBlock: AJUNOK_clean_linker_0, # of connection points: 2
#     Edge 46, Type (0, 0), BuildingBlock: AJUNOK_clean_linker_0, # of connection points: 2
#     Edge 47, Type (0, 0), BuildingBlock: AJUNOK_clean_linker_0, # of connection points: 2
# Relax obj value: 0.029
# Max RMSD: 0.060
# Mean RMSD: 0.060
data_MOF--net-atn--node1-ICAMEG_clean_sbu_1--edge1-AJUNOK_clean_linker_0
_symmetry_space_group_name_H-M    P1
_symmetry_Int_Tables_number       1
_symmetry_cell_setting            triclinic
loop_
_symmetry_equiv_pos_as_xyz
'x, y, z'
_cell_length_a     45.611833
_cell_length_b     45.68632
_cell_length_c     22.556081
_cell_angle_alpha  90.014181
_cell_angle_beta   90.00855
_cell_angle_gamma 90.014898
loop_
_atom_site_label
_atom_site_type_symbol
_atom_site_fract_x
_atom_site_fract_y
_atom_site_fract_z
_atom_type_partial_charge
Co0 Co 0.18007 0.35069 0.01254 0.0
Co1 Co 0.23528 0.39954 0.05069 0.0
O2 O 0.20143 0.38784 1.00242 0.0
C3 C 0.19968 0.34923 0.88891 0.0
O4 O 0.22517 0.35854 0.90814 0.0
C5 C 0.19821 0.4551 0.03658 0.0
O6 O 0.1751 0.43954 0.02227 0.0
O7 O 0.21281 0.39055 0.12556 0.0
O8 O 0.18145 0.35472 0.10039 0.0
H9 H 0.30543 0.38758 0.2205 0.0
H10 H 0.15492 0.39539 0.932 0.0
O11 O 0.17848 0.34552 0.92474 0.0
H12 H 0.08053 0.38063 0.08776 0.0
H13 H 0.10284 0.27625 0.96028 0.0
H14 H 0.18506 0.29993 0.09394 0.0
H15 H 0.12682 0.35281 0.08941 0.0
H16 H 0.12937 0.32305 0.9505 0.0
O17 O 0.22182 0.44215 0.05263 0.0
H18 H 0.26441 0.3735 0.15518 0.0
H19 H 0.27804 0.44934 0.05019 0.0
H20 H 0.15895 0.25303 0.10572 0.0
H21 H 0.10871 0.42335 0.92812 0.0
H22 H 0.11755 0.24089 0.03846 0.0
H23 H 0.07118 0.41613 0.00654 0.0
O24 O 0.21716 0.32769 0.0134 0.0
H25 H 0.24653 0.43909 0.84365 0.0
H26 H 0.29643 0.3887 0.00822 0.0
H27 H 0.32324 0.39773 0.9152 0.0
H28 H 0.29829 0.42325 0.83208 0.0
H29 H 0.22041 0.42899 0.93682 0.0
H30 H 0.31892 0.46455 0.11478 0.0
H31 H 0.33292 0.43348 0.20062 0.0
O32 O 0.25159 0.35843 0.04754 0.0
C33 C 0.19359 0.37113 0.13893 0.0
C34 C 0.2995 0.40135 0.18335 0.0
C35 C 0.30701 0.44458 0.12414 0.0
N36 N 0.26854 0.41082 0.09941 0.0
C37 C 0.27629 0.39348 0.1462 0.0
C38 C 0.28365 0.43603 0.08804 0.0
C39 C 0.31489 0.42712 0.17221 0.0
C40 C 0.13859 0.39194 0.96601 0.0
N41 N 0.14363 0.37256 0.01097 0.0
C42 C 0.11252 0.40793 0.96371 0.0
C43 C 0.09149 0.4039 0.00778 0.0
C44 C 0.09674 0.38403 0.05341 0.0
C45 C 0.12309 0.36845 0.0543 0.0
C46 C 0.12083 0.28129 0.98988 0.0
C47 C 0.16694 0.2949 0.06478 0.0
C48 C 0.13599 0.30772 0.98444 0.0
N49 N 0.15873 0.31423 0.02165 0.0
C50 C 0.15228 0.26827 0.07156 0.0
C51 C 0.12909 0.26147 0.03377 0.0
C52 C 0.24337 0.33318 0.02942 0.0
C53 C 0.25766 0.42799 0.87956 0.0
C54 C 0.28528 0.39936 0.97203 0.0
C55 C 0.30065 0.40466 0.91958 0.0
C56 C 0.28667 0.41904 0.87304 0.0
N57 N 0.25679 0.40811 0.97817 0.0
C58 C 0.24301 0.42233 0.9327 0.0
Co59 Co 0.68161 0.18327 1.00463 0.0
Co60 Co 0.63558 0.23688 0.05699 0.0
O61 O 0.64497 0.20551 1.00118 0.0
C62 C 0.67893 0.204 0.8819 0.0
O63 O 0.672 0.22978 0.90336 0.0
C64 C 0.58037 0.20057 0.04673 0.0
O65 O 0.5963 0.17668 0.04877 0.0
O66 O 0.64302 0.2099 0.12561 0.0
O67 O 0.68135 0.18357 0.09342 0.0
H68 H 0.65121 0.29799 0.23935 0.0
H69 H 0.6322 0.16096 0.93251 0.0
O70 O 0.68311 0.18242 0.91644 0.0
H71 H 0.65222 0.08342 0.07903 0.0
H72 H 0.75169 0.10446 0.9393 0.0
H73 H 0.73648 0.18804 0.07423 0.0
H74 H 0.68205 0.12839 0.07701 0.0
H75 H 0.70521 0.13208 0.9378 0.0
O76 O 0.59265 0.22545 0.05391 0.0
H77 H 0.66294 0.25921 0.16706 0.0
H78 H 0.58681 0.28025 0.0674 0.0
H79 H 0.78321 0.1609 0.07759 0.0
H80 H 0.602 0.11617 0.93235 0.0
H81 H 0.79102 0.11875 0.00981 0.0
H82 H 0.61184 0.07707 0.00622 0.0
O83 O 0.70476 0.22013 1.0032 0.0
H84 H 0.59411 0.26447 0.85809 0.0
H85 H 0.65448 0.2977 0.02651 0.0
H86 H 0.64708 0.33047 0.94109 0.0
H87 H 0.61663 0.31395 0.85611 0.0
H88 H 0.60257 0.23213 0.94381 0.0
H89 H 0.57411 0.3191 0.13886 0.0
H90 H 0.60651 0.32827 0.22544 0.0
O91 O 0.67777 0.25054 0.05884 0.0
C92 C 0.66442 0.19231 0.13483 0.0
C93 C 0.63697 0.29427 0.20172 0.0
C94 C 0.59368 0.30609 0.14534 0.0
N95 N 0.62573 0.26763 0.11282 0.0
C96 C 0.64353 0.27239 0.16057 0.0
C97 C 0.60094 0.28401 0.1051 0.0
C98 C 0.61187 0.31123 0.19391 0.0
C99 C 0.6368 0.14392 0.96443 0.0
N100 N 0.65881 0.14737 1.00496 0.0
C101 C 0.61955 0.11866 0.96427 0.0
C102 C 0.62504 0.09676 1.00579 0.0
C103 C 0.64765 0.10033 0.04672 0.0
C104 C 0.66439 0.12593 0.04563 0.0
C105 C 0.7485 0.12271 0.96923 0.0
C106 C 0.73967 0.1696 0.04487 0.0
C107 C 0.72224 0.13843 0.96856 0.0
N108 N 0.71801 0.16137 0.00651 0.0
C109 C 0.76619 0.15437 0.04685 0.0
C110 C 0.77056 0.13074 0.00879 0.0
C111 C 0.70113 0.24443 0.0299 0.0
C112 C 0.60734 0.27195 0.89494 0.0
C113 C 0.64134 0.29024 0.98962 0.0
C114 C 0.63714 0.30896 0.94143 0.0
C115 C 0.62002 0.29969 0.89381 0.0
N116 N 0.62886 0.26302 0.99041 0.0
C117 C 0.61207 0.25379 0.94381 0.0
Co118 Co 0.853 0.68016 1.00566 0.0
Co119 Co 0.79849 0.63431 0.0568 0.0
O120 O 0.83043 0.64363 1.00179 0.0
C121 C 0.83347 0.6775 0.88174 0.0
O122 O 0.80795 0.6683 0.90099 0.0
C123 C 0.83532 0.57934 0.04788 0.0
O124 O 0.85921 0.59533 0.04845 0.0
O125 O 0.82463 0.64272 0.12661 0.0
O126 O 0.85228 0.67997 0.0942 0.0
H127 H 0.73519 0.65138 0.23559 0.0
H128 H 0.87556 0.63108 0.9333 0.0
O129 O 0.85446 0.682 0.91761 0.0
H130 H 0.95228 0.64982 0.08254 0.0
H131 H 0.93314 0.74951 0.94343 0.0
H132 H 0.84763 0.73527 0.07404 0.0
H133 H 0.90746 0.67986 0.07987 0.0
H134 H 0.90542 0.70315 0.94155 0.0
O135 O 0.81045 0.59155 0.05602 0.0
H136 H 0.77416 0.66304 0.16351 0.0
H137 H 0.75608 0.58468 0.06893 0.0
H138 H 0.87486 0.78189 0.07774 0.0
H139 H 0.92026 0.60071 0.93372 0.0
H140 H 0.91797 0.78923 0.01211 0.0
H141 H 0.95894 0.60991 0.00896 0.0
O142 O 0.81624 0.70344 1.00332 0.0
H143 H 0.77359 0.59064 0.85835 0.0
H144 H 0.73708 0.65053 0.02456 0.0
H145 H 0.70466 0.64049 0.93954 0.0
H146 H 0.72287 0.61038 0.85558 0.0
H147 H 0.8053 0.6012 0.94419 0.0
H148 H 0.71708 0.57207 0.14017 0.0
H149 H 0.70634 0.60559 0.22413 0.0
O150 O 0.78416 0.67628 0.05546 0.0
C151 C 0.84274 0.66369 0.13578 0.0
C152 C 0.7396 0.63664 0.19909 0.0
C153 C 0.72947 0.5921 0.1456 0.0
N154 N 0.76729 0.62466 0.1119 0.0
C155 C 0.76158 0.64316 0.15807 0.0
C156 C 0.75166 0.59932 0.1055 0.0
C157 C 0.72345 0.61093 0.19268 0.0
C158 C 0.89242 0.63541 0.9658 0.0
N159 N 0.8888 0.65717 0.00674 0.0
C160 C 0.91764 0.61806 0.96597 0.0
C161 C 0.9393 0.62319 0.00827 0.0
C162 C 0.93555 0.64554 0.04964 0.0
C163 C 0.91002 0.66239 0.04819 0.0
C164 C 0.91449 0.74652 0.97246 0.0
C165 C 0.86648 0.73824 0.04561 0.0
C166 C 0.89871 0.72032 0.9716 0.0
N167 N 0.87517 0.71637 0.00823 0.0
C168 C 0.88177 0.76471 0.0478 0.0
C169 C 0.90594 0.76881 0.01096 0.0
C170 C 0.79142 0.6997 0.02793 0.0
C171 C 0.76536 0.60372 0.89474 0.0
C172 C 0.74519 0.63735 0.98829 0.0
C173 C 0.72669 0.63171 0.94028 0.0
C174 C 0.73692 0.61482 0.89319 0.0
N175 N 0.77305 0.62634 0.98959 0.0
C176 C 0.7832 0.6097 0.94361 0.0
Co177 Co 0.35433 0.8525 1.0058 0.0
Co178 Co 0.39881 0.79813 0.05935 0.0
O179 O 0.39068 0.82964 1.00272 0.0
C180 C 0.35685 0.83331 0.88166 0.0
O181 O 0.36464 0.80734 0.90082 0.0
C182 C 0.45607 0.83145 0.046 0.0
O183 O 0.44139 0.85612 0.04392 0.0
O184 O 0.39257 0.82593 0.1272 0.0
O185 O 0.35378 0.85136 0.09465 0.0
H186 H 0.38096 0.74005 0.24491 0.0
H187 H 0.40417 0.87514 0.9356 0.0
O188 O 0.35324 0.8544 0.91767 0.0
H189 H 0.38432 0.95127 0.08526 0.0
H190 H 0.28597 0.93331 0.94287 0.0
H191 H 0.29855 0.84719 0.07215 0.0
H192 H 0.35431 0.90649 0.08117 0.0
H193 H 0.33221 0.90533 0.942 0.0
O194 O 0.4424 0.80752 0.05617 0.0
H195 H 0.37104 0.77864 0.17121 0.0
H196 H 0.44419 0.75115 0.06919 0.0
H197 H 0.25201 0.87467 0.0748 0.0
H198 H 0.4345 0.91984 0.93736 0.0
H199 H 0.24551 0.91808 0.00983 0.0
H200 H 0.42473 0.95824 0.0128 0.0
O201 O 0.33087 0.81595 1.00163 0.0
H202 H 0.43902 0.76741 0.86128 0.0
H203 H 0.37705 0.73803 0.03021 0.0
H204 H 0.38307 0.70439 0.94573 0.0
H205 H 0.41436 0.71893 0.86056 0.0
H206 H 0.43197 0.80064 0.94612 0.0
H207 H 0.45521 0.71249 0.14209 0.0
H208 H 0.42336 0.70666 0.23065 0.0
O209 O 0.35605 0.78623 0.06182 0.0
C210 C 0.37088 0.8432 0.13624 0.0
C211 C 0.39504 0.74239 0.20658 0.0
C212 C 0.43673 0.72696 0.14893 0.0
N213 N 0.40715 0.76729 0.11609 0.0
C214 C 0.38953 0.76421 0.16468 0.0
C215 C 0.43053 0.74903 0.10797 0.0
C216 C 0.41883 0.72367 0.19856 0.0
C217 C 0.39963 0.89186 0.96824 0.0
N218 N 0.37756 0.8881 0.00848 0.0
C219 C 0.41695 0.91707 0.96916 0.0
C220 C 0.4115 0.93858 0.01156 0.0
C221 C 0.38887 0.93466 0.0523 0.0
C222 C 0.37204 0.90914 0.05006 0.0
C223 C 0.28858 0.91452 0.9716 0.0
C224 C 0.29593 0.86616 0.044 0.0
C225 C 0.31472 0.89859 0.97131 0.0
N226 N 0.3182 0.87487 0.00755 0.0
C227 C 0.26952 0.88159 0.0456 0.0
C228 C 0.26588 0.90594 0.00913 0.0
C229 C 0.33358 0.79201 0.02993 0.0
C230 C 0.42543 0.76077 0.89824 0.0
C231 C 0.39054 0.74466 0.99319 0.0
C232 C 0.39396 0.72544 0.94555 0.0
C233 C 0.41154 0.7336 0.89781 0.0
N234 N 0.40428 0.77128 0.99338 0.0
C235 C 0.4215 0.77943 0.94663 0.0
Co236 Co 0.18304 0.68266 0.01642 0.0
Co237 Co 0.23706 0.63655 0.96565 0.0
O238 O 0.20524 0.646 0.02071 0.0
C239 C 0.20202 0.68016 0.14048 0.0
O240 O 0.22766 0.67135 0.12127 0.0
C241 C 0.20107 0.58051 0.97399 0.0
O242 O 0.17659 0.59531 0.96786 0.0
O243 O 0.21036 0.64393 0.89621 0.0
O244 O 0.18434 0.6825 0.92784 0.0
H245 H 0.29901 0.65201 0.78429 0.0
H246 H 0.15994 0.6332 0.0868 0.0
O247 O 0.18103 0.68441 0.1045 0.0
H248 H 0.0835 0.65406 0.93813 0.0
H249 H 0.10343 0.75294 0.07714 0.0
H250 H 0.18942 0.73771 0.94829 0.0
H251 H 0.12874 0.68347 0.9418 0.0
H252 H 0.13054 0.70623 0.07943 0.0
O253 O 0.22571 0.59362 0.96934 0.0
H254 H 0.26045 0.66421 0.85688 0.0
H255 H 0.27993 0.58725 0.95483 0.0
H256 H 0.16281 0.78467 0.94417 0.0
H257 H 0.11482 0.60342 0.08539 0.0
H258 H 0.11947 0.7925 0.00892 0.0
H259 H 0.07625 0.61373 0.0105 0.0
O260 O 0.22004 0.70551 0.01984 0.0
H261 H 0.26325 0.59714 0.16697 0.0
H262 H 0.29878 0.65326 0.99465 0.0
H263 H 0.33185 0.64474 0.07932 0.0
H264 H 0.31415 0.6165 0.16633 0.0
H265 H 0.23093 0.6061 0.0813 0.0
H266 H 0.31852 0.57411 0.88312 0.0
H267 H 0.32835 0.60666 0.79719 0.0
O268 O 0.25098 0.67873 0.96434 0.0
C269 C 0.19307 0.66554 0.88658 0.0
C270 C 0.29499 0.6377 0.82165 0.0
C271 C 0.3059 0.59394 0.87705 0.0
N272 N 0.26804 0.62657 0.91023 0.0
C273 C 0.27324 0.64453 0.86297 0.0
C274 C 0.28394 0.60145 0.91742 0.0
C275 C 0.31142 0.61223 0.82887 0.0
C276 C 0.14317 0.63794 0.05433 0.0
N277 N 0.14704 0.66002 0.01425 0.0
C278 C 0.11771 0.62094 0.05364 0.0
C279 C 0.0961 0.62671 0.01155 0.0
C280 C 0.10017 0.6493 0.97088 0.0
C281 C 0.12593 0.6658 0.97289 0.0
C282 C 0.1222 0.74974 0.0485 0.0
C283 C 0.17047 0.7409 0.97633 0.0
C284 C 0.13763 0.72334 0.0496 0.0
N285 N 0.1613 0.71912 0.01345 0.0
C286 C 0.15553 0.76756 0.97391 0.0
C287 C 0.13122 0.77194 0.01026 0.0
C288 C 0.24444 0.70186 0.99355 0.0
C289 C 0.27128 0.60938 0.12922 0.0
C290 C 0.29092 0.64082 0.03218 0.0
C291 C 0.30977 0.63607 0.08002 0.0
C292 C 0.29982 0.62025 0.12884 0.0
N293 N 0.26301 0.62989 0.03264 0.0
C294 C 0.2531 0.61444 0.08047 0.0
Co295 Co 0.35365 0.18146 0.00764 0.0
Co296 Co 0.40083 0.23767 0.96912 0.0
O297 O 0.39005 0.20385 0.01784 0.0
C298 C 0.35198 0.20025 0.13166 0.0
O299 O 0.36033 0.22614 0.11299 0.0
C300 C 0.45579 0.20034 0.97682 0.0
O301 O 0.43981 0.17646 0.97601 0.0
O302 O 0.39305 0.21471 0.89455 0.0
O303 O 0.35723 0.18337 0.91974 0.0
H304 H 0.38716 0.30838 0.80103 0.0
H305 H 0.40012 0.15788 0.08596 0.0
O306 O 0.34891 0.17918 0.09536 0.0
H307 H 0.38702 0.08371 0.92933 0.0
H308 H 0.28189 0.10159 0.05851 0.0
H309 H 0.30199 0.18596 0.92837 0.0
H310 H 0.35687 0.1285 0.93019 0.0
H311 H 0.32804 0.12934 0.06806 0.0
O312 O 0.4435 0.22521 0.96978 0.0
H313 H 0.37388 0.26689 0.86563 0.0
H314 H 0.45123 0.27969 0.96724 0.0
H315 H 0.25568 0.15864 0.91685 0.0
H316 H 0.43053 0.11324 0.08719 0.0
H317 H 0.24536 0.11616 0.98233 0.0
H318 H 0.42416 0.07584 0.00829 0.0
O319 O 0.32971 0.21788 0.00797 0.0
H320 H 0.4403 0.25167 0.17537 0.0
H321 H 0.38672 0.29819 0.01079 0.0
H322 H 0.39473 0.32576 0.10328 0.0
H323 H 0.4218 0.30251 0.18642 0.0
H324 H 0.4313 0.22476 0.0825 0.0
H325 H 0.46546 0.32115 0.90349 0.0
H326 H 0.43327 0.33581 0.81978 0.0
O327 O 0.35909 0.25259 0.97044 0.0
C328 C 0.37367 0.19546 0.88121 0.0
C329 C 0.40133 0.30226 0.83745 0.0
C330 C 0.44531 0.30938 0.89487 0.0
N331 N 0.41171 0.27091 0.92024 0.0
C332 C 0.39389 0.27883 0.87427 0.0
C333 C 0.4372 0.28579 0.93068 0.0
C334 C 0.42723 0.31761 0.84794 0.0
C335 C 0.39701 0.14156 0.05183 0.0
N336 N 0.37677 0.14582 0.00802 0.0
C337 C 0.41438 0.11639 0.05262 0.0
C338 C 0.41083 0.09544 0.00827 0.0
C339 C 0.39003 0.09987 0.9639 0.0
C340 C 0.3731 0.12534 0.96446 0.0
C341 C 0.28615 0.12002 0.02964 0.0
C342 C 0.29776 0.16734 0.95667 0.0
C343 C 0.31222 0.13586 0.03492 0.0
N344 N 0.31775 0.15916 0.99862 0.0
C345 C 0.27146 0.15202 0.95008 0.0
C346 C 0.26567 0.12821 0.98688 0.0
C347 C 0.33423 0.24396 0.99023 0.0
C348 C 0.42847 0.26205 0.13949 0.0
C349 C 0.39812 0.28779 0.04696 0.0
C350 C 0.4028 0.30358 0.09913 0.0
C351 C 0.41804 0.29055 0.1457 0.0
N352 N 0.40827 0.25979 0.04122 0.0
C353 C 0.42338 0.24695 0.08663 0.0
Co354 Co 0.85149 0.35438 0.01632 0.0
Co355 Co 0.79723 0.401 0.96589 0.0
O356 O 0.82921 0.39111 0.02044 0.0
C357 C 0.83114 0.35643 0.13987 0.0
O358 O 0.80576 0.3658 0.12018 0.0
C359 C 0.83502 0.45542 0.97467 0.0
O360 O 0.85867 0.43911 0.97608 0.0
O361 O 0.82272 0.39164 0.8955 0.0
O362 O 0.85132 0.3551 0.92786 0.0
H363 H 0.73252 0.38425 0.78901 0.0
H364 H 0.87402 0.40274 0.09081 0.0
O365 O 0.85233 0.35202 0.10441 0.0
H366 H 0.95141 0.3846 0.94273 0.0
H367 H 0.93074 0.28421 0.07922 0.0
H368 H 0.84631 0.29972 0.94634 0.0
H369 H 0.90632 0.3549 0.94334 0.0
H370 H 0.90328 0.33069 0.08144 0.0
O371 O 0.8101 0.44351 0.96534 0.0
H372 H 0.77157 0.37215 0.86062 0.0
H373 H 0.75596 0.45159 0.95321 0.0
H374 H 0.8733 0.25299 0.94227 0.0
H375 H 0.91897 0.43274 0.09244 0.0
H376 H 0.91587 0.245 0.00905 0.0
H377 H 0.95799 0.42385 0.01779 0.0
O378 O 0.81462 0.33118 0.01696 0.0
H379 H 0.77486 0.44601 0.16432 0.0
H380 H 0.73536 0.3872 0.99928 0.0
H381 H 0.7036 0.39895 0.08442 0.0
H382 H 0.72333 0.4285 0.16782 0.0
H383 H 0.80582 0.43391 0.07824 0.0
H384 H 0.71694 0.46466 0.88237 0.0
H385 H 0.70491 0.43081 0.79966 0.0
O386 O 0.78193 0.35942 0.96879 0.0
C387 C 0.84123 0.37103 0.88627 0.0
C388 C 0.7375 0.39914 0.82496 0.0
C389 C 0.72879 0.4443 0.87729 0.0
N390 N 0.76594 0.41105 0.91122 0.0
C391 C 0.75953 0.39237 0.86573 0.0
C392 C 0.751 0.43682 0.91716 0.0
C393 C 0.72204 0.42528 0.83092 0.0
C394 C 0.89103 0.39853 0.05856 0.0
N395 N 0.88745 0.37714 0.01682 0.0
C396 C 0.91638 0.41568 0.05956 0.0
C397 C 0.93824 0.41073 0.01758 0.0
C398 C 0.93453 0.38875 0.97538 0.0
C399 C 0.90885 0.37209 0.97568 0.0
C400 C 0.91232 0.28747 0.0497 0.0
C401 C 0.86492 0.29647 0.97527 0.0
C402 C 0.89669 0.31375 0.05074 0.0
N403 N 0.87345 0.31805 0.0135 0.0
C404 C 0.88007 0.26994 0.97287 0.0
C405 C 0.90395 0.26548 0.01036 0.0
C406 C 0.78946 0.33551 0.99417 0.0
C407 C 0.76598 0.43318 0.12818 0.0
C408 C 0.74411 0.40018 0.03525 0.0
C409 C 0.726 0.40677 0.08336 0.0
C410 C 0.73708 0.42333 0.13014 0.0
N411 N 0.77241 0.41 0.0335 0.0
C412 C 0.78339 0.42631 0.07919 0.0
Co413 Co 0.68272 0.85115 0.01621 0.0
Co414 Co 0.63784 0.79715 0.96251 0.0
O415 O 0.6463 0.82844 0.01938 0.0
C416 C 0.68026 0.83164 0.14016 0.0
O417 O 0.67236 0.80575 0.12073 0.0
C418 C 0.58087 0.83092 0.97581 0.0
O419 O 0.5954 0.85571 0.97441 0.0
O420 O 0.6441 0.82507 0.89489 0.0
O421 O 0.68309 0.85024 0.92735 0.0
H422 H 0.65525 0.73885 0.77705 0.0
H423 H 0.63288 0.87359 0.0866 0.0
O424 O 0.68398 0.8528 0.10439 0.0
H425 H 0.65306 0.95029 0.93837 0.0
H426 H 0.75161 0.93142 0.07984 0.0
H427 H 0.73831 0.84589 0.94917 0.0
H428 H 0.683 0.90545 0.94187 0.0
H429 H 0.70524 0.90362 0.08069 0.0
O430 O 0.59443 0.80684 0.96676 0.0
H431 H 0.66562 0.77722 0.85103 0.0
H432 H 0.59112 0.7515 0.95106 0.0
H433 H 0.78496 0.87319 0.9465 0.0
H434 H 0.60261 0.91833 0.08541 0.0
H435 H 0.79182 0.91631 0.01217 0.0
H436 H 0.61256 0.95701 0.0107 0.0
O437 O 0.70602 0.81449 0.01966 0.0
H438 H 0.59815 0.76609 0.16076 0.0
H439 H 0.65879 0.73663 0.98994 0.0
H440 H 0.65254 0.70259 0.07368 0.0
H441 H 0.6219 0.71717 0.15979 0.0
H442 H 0.60543 0.79969 0.07663 0.0
H443 H 0.57973 0.71305 0.87793 0.0
H444 H 0.61201 0.70643 0.79025 0.0
O445 O 0.68052 0.78497 0.95951 0.0
C446 C 0.66588 0.84221 0.88581 0.0
C447 C 0.64103 0.74149 0.81509 0.0
C448 C 0.59862 0.72704 0.87166 0.0
N449 N 0.62903 0.76658 0.90543 0.0
C450 C 0.64681 0.76315 0.85718 0.0
C451 C 0.6051 0.74895 0.91283 0.0
C452 C 0.61676 0.72332 0.8225 0.0
C453 C 0.63748 0.89043 0.05427 0.0
N454 N 0.65963 0.88683 0.01414 0.0
C455 C 0.6202 0.91567 0.05367 0.0
C456 C 0.62576 0.93734 0.01169 0.0
C457 C 0.64845 0.93356 0.97103 0.0
C458 C 0.66524 0.90802 0.97293 0.0
C459 C 0.74884 0.91276 0.0508 0.0
C460 C 0.74108 0.86473 0.97761 0.0
C461 C 0.72263 0.89694 0.05108 0.0
N462 N 0.71895 0.87338 0.01445 0.0
C463 C 0.76756 0.88007 0.97601 0.0
C464 C 0.7714 0.90425 0.01287 0.0
C465 C 0.70312 0.7906 0.99121 0.0
C466 C 0.61146 0.75943 0.1234 0.0
C467 C 0.64559 0.74327 0.02737 0.0
C468 C 0.64204 0.72383 0.0746 0.0
C469 C 0.62483 0.73201 0.12287 0.0
N470 N 0.63235 0.77012 0.02811 0.0
C471 C 0.61553 0.77832 0.07543 0.0
Co472 Co 0.68279 0.85248 0.51346 0.0
Co473 Co 0.73929 0.8994 0.55264 0.0
O474 O 0.7055 0.88872 0.50355 0.0
C475 C 0.70232 0.85056 0.38991 0.0
O476 O 0.72842 0.85754 0.4099 0.0
C477 C 0.70227 0.95488 0.54511 0.0
O478 O 0.67784 0.93977 0.54825 0.0
O479 O 0.71611 0.89146 0.627 0.0
O480 O 0.68421 0.85622 0.60134 0.0
H481 H 0.80977 0.88436 0.72085 0.0
H482 H 0.66016 0.89928 0.43491 0.0
O483 O 0.68093 0.84777 0.42559 0.0
H484 H 0.58427 0.88592 0.58823 0.0
H485 H 0.60275 0.78115 0.46067 0.0
H486 H 0.68578 0.80146 0.59454 0.0
H487 H 0.6291 0.85579 0.58894 0.0
H488 H 0.63127 0.82677 0.45075 0.0
O489 O 0.72693 0.94205 0.55177 0.0
H490 H 0.76853 0.8716 0.65504 0.0
H491 H 0.7811 0.95013 0.55767 0.0
H492 H 0.65772 0.75569 0.60634 0.0
H493 H 0.61548 0.92966 0.43205 0.0
H494 H 0.61589 0.74528 0.53903 0.0
H495 H 0.5772 0.92314 0.50925 0.0
O496 O 0.71914 0.82821 0.51436 0.0
H497 H 0.7536 0.93855 0.34629 0.0
H498 H 0.80085 0.88769 0.51352 0.0
H499 H 0.82905 0.89674 0.42216 0.0
H500 H 0.80545 0.92252 0.33776 0.0
H501 H 0.72601 0.92828 0.43777 0.0
H502 H 0.82223 0.96391 0.62272 0.0
H503 H 0.83691 0.93084 0.70493 0.0
O504 O 0.75424 0.85777 0.55044 0.0
C505 C 0.69651 0.87239 0.64006 0.0
C506 C 0.80364 0.89892 0.68508 0.0
C507 C 0.81057 0.9436 0.63013 0.0
N508 N 0.7724 0.91005 0.60239 0.0
C509 C 0.78037 0.89177 0.64754 0.0
C510 C 0.78713 0.93576 0.59358 0.0
C511 C 0.81882 0.92502 0.6762 0.0
C512 C 0.64349 0.89615 0.46836 0.0
N513 N 0.64725 0.8758 0.51208 0.0
C514 C 0.61828 0.91349 0.46664 0.0
C515 C 0.59684 0.90985 0.51002 0.0
C516 C 0.60081 0.889 0.55439 0.0
C517 C 0.62631 0.87208 0.55474 0.0
C518 C 0.62093 0.78545 0.49028 0.0
C519 C 0.6675 0.79717 0.5653 0.0
C520 C 0.63721 0.8112 0.48477 0.0
N521 N 0.66012 0.81681 0.52215 0.0
C522 C 0.65174 0.77118 0.5721 0.0
C523 C 0.62829 0.76533 0.53428 0.0
C524 C 0.74538 0.83288 0.53138 0.0
C525 C 0.76411 0.9272 0.38265 0.0
C526 C 0.79025 0.89836 0.47664 0.0
C527 C 0.80641 0.90368 0.42516 0.0
C528 C 0.79319 0.9182 0.37789 0.0
N529 N 0.76168 0.90708 0.48093 0.0
C530 C 0.74858 0.9213 0.43465 0.0
Co531 Co 0.18307 0.68255 0.51371 0.0
Co532 Co 0.13529 0.73813 0.55327 0.0
O533 O 0.1464 0.70456 0.50422 0.0
C534 C 0.18409 0.70218 0.39035 0.0
O535 O 0.17655 0.72804 0.41052 0.0
C536 C 0.08092 0.69981 0.54609 0.0
O537 O 0.09729 0.67621 0.5461 0.0
O538 O 0.14393 0.71529 0.6276 0.0
O539 O 0.17954 0.68385 0.60167 0.0
H540 H 0.14901 0.80938 0.72049 0.0
H541 H 0.13662 0.65902 0.43513 0.0
O542 O 0.18757 0.68087 0.4259 0.0
H543 H 0.15104 0.5838 0.58912 0.0
H544 H 0.2557 0.6039 0.46019 0.0
H545 H 0.23459 0.68685 0.59342 0.0
H546 H 0.18068 0.62894 0.58936 0.0
H547 H 0.20939 0.63142 0.45106 0.0
O548 O 0.09282 0.72486 0.55358 0.0
H549 H 0.16255 0.76807 0.65563 0.0
H550 H 0.08404 0.77906 0.55689 0.0
H551 H 0.28105 0.65979 0.60444 0.0
H552 H 0.10673 0.61404 0.43277 0.0
H553 H 0.29187 0.618 0.53745 0.0
H554 H 0.11375 0.57612 0.51035 0.0
O555 O 0.2067 0.71926 0.51438 0.0
H556 H 0.09335 0.75187 0.34894 0.0
H557 H 0.14808 0.79889 0.51143 0.0
H558 H 0.13852 0.82656 0.41967 0.0
H559 H 0.11079 0.80306 0.33766 0.0
H560 H 0.10422 0.72477 0.4407 0.0
H561 H 0.06952 0.82031 0.62096 0.0
H562 H 0.10217 0.83579 0.70337 0.0
O563 O 0.17676 0.75377 0.55089 0.0
C564 C 0.16328 0.69595 0.6405 0.0
C565 C 0.13463 0.80289 0.68465 0.0
C566 C 0.08998 0.80897 0.62889 0.0
N567 N 0.12413 0.77116 0.60248 0.0
C568 C 0.14221 0.77956 0.64769 0.0
C569 C 0.09825 0.78549 0.59291 0.0
C570 C 0.10832 0.81766 0.67508 0.0
C571 C 0.14003 0.64248 0.46868 0.0
N572 N 0.16034 0.64665 0.51241 0.0
C573 C 0.12294 0.61711 0.46726 0.0
C574 C 0.12685 0.59587 0.51087 0.0
C575 C 0.14773 0.60019 0.55514 0.0
C576 C 0.16437 0.62587 0.55522 0.0
C577 C 0.25122 0.62204 0.48971 0.0
C578 C 0.23904 0.66855 0.56442 0.0
C579 C 0.22506 0.63774 0.48467 0.0
N580 N 0.21922 0.6606 0.52193 0.0
C581 C 0.26543 0.65337 0.57073 0.0
C582 C 0.2715 0.62995 0.53308 0.0
C583 C 0.2018 0.74537 0.53165 0.0
C584 C 0.10546 0.76235 0.38434 0.0
C585 C 0.13652 0.78836 0.47562 0.0
C586 C 0.13091 0.80421 0.42392 0.0
C587 C 0.11529 0.79106 0.378 0.0
N588 N 0.12698 0.76015 0.48145 0.0
C589 C 0.11162 0.74713 0.43656 0.0
Co590 Co 0.3553 0.18217 0.50456 0.0
Co591 Co 0.30063 0.13596 0.55419 0.0
O592 O 0.33286 0.14565 0.50042 0.0
C593 C 0.33376 0.18064 0.38224 0.0
O594 O 0.30809 0.17346 0.40409 0.0
C595 C 0.33792 0.0811 0.54583 0.0
O596 O 0.36176 0.09715 0.54475 0.0
O597 O 0.32597 0.14498 0.62506 0.0
O598 O 0.35545 0.18102 0.59305 0.0
H599 H 0.23516 0.15255 0.72995 0.0
H600 H 0.37699 0.13363 0.42944 0.0
O601 O 0.35559 0.18455 0.4164 0.0
H602 H 0.45542 0.15127 0.57561 0.0
H603 H 0.43413 0.25231 0.43936 0.0
H604 H 0.35155 0.23629 0.57663 0.0
H605 H 0.41055 0.1813 0.57601 0.0
H606 H 0.40627 0.20602 0.43721 0.0
O607 O 0.31308 0.09331 0.55447 0.0
H608 H 0.2749 0.16448 0.65979 0.0
H609 H 0.25855 0.08596 0.56449 0.0
H610 H 0.37891 0.28282 0.58057 0.0
H611 H 0.42168 0.10327 0.42683 0.0
H612 H 0.42056 0.29105 0.5116 0.0
H613 H 0.46122 0.11191 0.50052 0.0
O614 O 0.31868 0.2058 0.5052 0.0
H615 H 0.27936 0.09223 0.35408 0.0
H616 H 0.2392 0.15062 0.51881 0.0
H617 H 0.20854 0.14108 0.43095 0.0
H618 H 0.22858 0.11156 0.3478 0.0
H619 H 0.30948 0.10295 0.44208 0.0
H620 H 0.21883 0.07306 0.63387 0.0
H621 H 0.20683 0.10653 0.7172 0.0
O622 O 0.28578 0.17769 0.55219 0.0
C623 C 0.34491 0.16522 0.63448 0.0
C624 C 0.24014 0.13782 0.69373 0.0
C625 C 0.23101 0.09318 0.63987 0.0
N626 N 0.26896 0.12602 0.60795 0.0
C627 C 0.26256 0.14449 0.65379 0.0
C628 C 0.2536 0.10055 0.60084 0.0
C629 C 0.22427 0.11198 0.68659 0.0
C630 C 0.39423 0.13772 0.46128 0.0
N631 N 0.39108 0.15916 0.50305 0.0
C632 C 0.41943 0.12038 0.45973 0.0
C633 C 0.44158 0.12519 0.50116 0.0
C634 C 0.43831 0.14723 0.54337 0.0
C635 C 0.41277 0.16409 0.54364 0.0
C636 C 0.41611 0.24894 0.46981 0.0
C637 C 0.36978 0.23964 0.54677 0.0
C638 C 0.40026 0.22278 0.46879 0.0
N639 N 0.37757 0.21832 0.50732 0.0
C640 C 0.38513 0.26606 0.54908 0.0
C641 C 0.40847 0.27067 0.51034 0.0
C642 C 0.2934 0.20184 0.5278 0.0
C643 C 0.27037 0.10509 0.39003 0.0
C644 C 0.24821 0.13812 0.48258 0.0
C645 C 0.23067 0.1326 0.43306 0.0
C646 C 0.2419 0.11599 0.38649 0.0
N647 N 0.27617 0.12749 0.48569 0.0
C648 C 0.28729 0.11115 0.44017 0.0
Co649 Co 0.85132 0.35495 0.51325 0.0
Co650 Co 0.89907 0.29891 0.55193 0.0
O651 O 0.88808 0.33285 0.50349 0.0
C652 C 0.84971 0.33506 0.38996 0.0
O653 O 0.85741 0.30928 0.41028 0.0
C654 C 0.95488 0.33573 0.54076 0.0
O655 O 0.93935 0.35926 0.52973 0.0
O656 O 0.89004 0.32138 0.62674 0.0
O657 O 0.8552 0.35372 0.60107 0.0
H658 H 0.88487 0.2286 0.72054 0.0
H659 H 0.89692 0.37877 0.43292 0.0
O660 O 0.84644 0.35647 0.42539 0.0
H661 H 0.88348 0.45384 0.58766 0.0
H662 H 0.77861 0.43358 0.45992 0.0
H663 H 0.80041 0.35151 0.59482 0.0
H664 H 0.85443 0.40834 0.58937 0.0
H665 H 0.82471 0.40578 0.45007 0.0
O666 O 0.94187 0.31183 0.55449 0.0
H667 H 0.87184 0.26993 0.65532 0.0
H668 H 0.94839 0.2556 0.55253 0.0
H669 H 0.75417 0.37884 0.60653 0.0
H670 H 0.92612 0.42417 0.42897 0.0
H671 H 0.743 0.4202 0.53871 0.0
H672 H 0.91958 0.46204 0.5069 0.0
O673 O 0.82742 0.31838 0.51455 0.0
H674 H 0.94084 0.28683 0.34688 0.0
H675 H 0.88734 0.23811 0.50892 0.0
H676 H 0.89707 0.21108 0.41643 0.0
H677 H 0.92422 0.23542 0.33467 0.0
H678 H 0.92976 0.31329 0.43923 0.0
H679 H 0.96259 0.21443 0.61709 0.0
H680 H 0.93062 0.20061 0.70176 0.0
O681 O 0.85768 0.2833 0.54782 0.0
C682 C 0.87109 0.34109 0.63983 0.0
C683 C 0.89904 0.23446 0.68393 0.0
C684 C 0.9427 0.22657 0.62601 0.0
N685 N 0.90962 0.26551 0.60075 0.0
C686 C 0.89178 0.25784 0.64685 0.0
C687 C 0.93474 0.25011 0.58996 0.0
C688 C 0.92472 0.21879 0.67341 0.0
C689 C 0.89374 0.39526 0.46668 0.0
N690 N 0.87405 0.39085 0.51142 0.0
C691 C 0.91044 0.42087 0.46435 0.0
C692 C 0.9068 0.44208 0.50815 0.0
C693 C 0.88658 0.43748 0.55352 0.0
C694 C 0.8703 0.41158 0.55445 0.0
C695 C 0.78323 0.41561 0.48975 0.0
C696 C 0.79579 0.36957 0.56533 0.0
C697 C 0.80926 0.39974 0.48428 0.0
N698 N 0.81527 0.37708 0.52192 0.0
C699 C 0.76953 0.38493 0.57209 0.0
C700 C 0.76327 0.40811 0.53399 0.0
C701 C 0.83251 0.29206 0.53012 0.0
C702 C 0.92902 0.27597 0.38219 0.0
C703 C 0.89861 0.24903 0.47317 0.0
C704 C 0.90434 0.23352 0.42108 0.0
C705 C 0.91964 0.24715 0.37532 0.0
N706 N 0.90774 0.27735 0.47959 0.0
C707 C 0.92276 0.29083 0.43481 0.0
Co708 Co 0.67943 0.1831 0.50742 0.0
Co709 Co 0.73599 0.13606 0.46994 0.0
O710 O 0.70172 0.14664 0.51788 0.0
C711 C 0.6979 0.18485 0.63147 0.0
O712 O 0.72383 0.17646 0.61295 0.0
C713 C 0.69989 0.07995 0.48101 0.0
O714 O 0.67586 0.0952 0.48902 0.0
O715 O 0.71329 0.1436 0.39489 0.0
O716 O 0.68174 0.17936 0.41957 0.0
H717 H 0.80691 0.14964 0.30189 0.0
H718 H 0.65508 0.13721 0.5861 0.0
O719 O 0.67685 0.18793 0.59506 0.0
H720 H 0.58145 0.15041 0.42827 0.0
H721 H 0.59942 0.255 0.55663 0.0
H722 H 0.68449 0.23461 0.4282 0.0
H723 H 0.62675 0.17985 0.42899 0.0
H724 H 0.62705 0.20887 0.56689 0.0
O725 O 0.724 0.09313 0.46953 0.0
H726 H 0.7648 0.16251 0.36536 0.0
H727 H 0.78013 0.08765 0.47233 0.0
H728 H 0.6573 0.28089 0.41597 0.0
H729 H 0.60985 0.10761 0.58768 0.0
H730 H 0.61446 0.29135 0.48058 0.0
H731 H 0.57272 0.11403 0.50817 0.0
O732 O 0.71589 0.20705 0.5084 0.0
H733 H 0.74937 0.09666 0.67643 0.0
H734 H 0.79575 0.152 0.5141 0.0
H735 H 0.8228 0.14454 0.6074 0.0
H736 H 0.79964 0.11657 0.68939 0.0
H737 H 0.72293 0.10514 0.58284 0.0
H738 H 0.82216 0.0737 0.40966 0.0
H739 H 0.83585 0.10488 0.32378 0.0
O740 O 0.75061 0.17774 0.47113 0.0
C741 C 0.69402 0.16291 0.38126 0.0
C742 C 0.80113 0.13584 0.33909 0.0
C743 C 0.80964 0.09318 0.39947 0.0
N744 N 0.76977 0.12563 0.42204 0.0
C745 C 0.77731 0.14301 0.37518 0.0
C746 C 0.78567 0.10104 0.43453 0.0
C747 C 0.81734 0.11071 0.35136 0.0
C748 C 0.6389 0.14032 0.55165 0.0
N749 N 0.64363 0.16015 0.50736 0.0
C750 C 0.61339 0.12341 0.55264 0.0
C751 C 0.59259 0.12698 0.50796 0.0
C752 C 0.5975 0.14735 0.46306 0.0
C753 C 0.62329 0.16384 0.46349 0.0
C754 C 0.618 0.25067 0.52813 0.0
C755 C 0.66571 0.2389 0.45612 0.0
C756 C 0.63376 0.22461 0.53381 0.0
N757 N 0.65724 0.21899 0.49793 0.0
C758 C 0.65047 0.26518 0.44914 0.0
C759 C 0.62645 0.27105 0.48545 0.0
C760 C 0.74201 0.20255 0.49081 0.0
C761 C 0.75975 0.10881 0.64097 0.0
C762 C 0.7854 0.14009 0.54966 0.0
C763 C 0.8009 0.13577 0.60234 0.0
C764 C 0.78792 0.12004 0.64827 0.0
N765 N 0.75776 0.12902 0.54273 0.0
C766 C 0.74493 0.11354 0.58763 0.0
Co767 Co 0.85375 0.67971 0.50856 0.0
Co768 Co 0.90108 0.73565 0.46905 0.0
O769 O 0.89031 0.70195 0.51808 0.0
C770 C 0.85251 0.69906 0.63202 0.0
O771 O 0.85981 0.72501 0.61191 0.0
C772 C 0.95614 0.69831 0.4774 0.0
O773 O 0.94022 0.6744 0.4782 0.0
O774 O 0.89292 0.71262 0.39472 0.0
O775 O 0.8571 0.68138 0.42059 0.0
H776 H 0.88688 0.8065 0.30136 0.0
H777 H 0.90037 0.65613 0.5866 0.0
O778 O 0.84937 0.67771 0.59641 0.0
H779 H 0.88629 0.58149 0.43124 0.0
H780 H 0.78176 0.60031 0.56119 0.0
H781 H 0.80197 0.6841 0.4296 0.0
H782 H 0.85643 0.62647 0.43186 0.0
H783 H 0.82792 0.62809 0.5704 0.0
O784 O 0.94376 0.72307 0.46917 0.0
H785 H 0.87378 0.76499 0.36604 0.0
H786 H 0.95161 0.7775 0.46629 0.0
H787 H 0.75563 0.65679 0.41854 0.0
H788 H 0.93049 0.6113 0.5881 0.0
H789 H 0.74528 0.61457 0.48469 0.0
H790 H 0.92363 0.57367 0.50984 0.0
O791 O 0.82989 0.71622 0.50862 0.0
H792 H 0.94231 0.75024 0.67376 0.0
H793 H 0.88689 0.79611 0.51095 0.0
H794 H 0.89572 0.82395 0.6028 0.0
H795 H 0.92379 0.80105 0.68498 0.0
H796 H 0.9322 0.72293 0.58186 0.0
H797 H 0.96568 0.81896 0.40241 0.0
H798 H 0.93315 0.83378 0.31934 0.0
O799 O 0.85943 0.75068 0.47076 0.0
C800 C 0.87342 0.69343 0.38176 0.0
C801 C 0.90121 0.8003 0.33748 0.0
C802 C 0.94547 0.80724 0.3941 0.0
N803 N 0.91189 0.76882 0.41992 0.0
C804 C 0.89388 0.77686 0.37434 0.0
C805 C 0.93745 0.78364 0.42997 0.0
C806 C 0.9272 0.81556 0.34754 0.0
C807 C 0.89705 0.63972 0.55274 0.0
N808 N 0.8767 0.64395 0.50912 0.0
C809 C 0.91426 0.61443 0.55368 0.0
C810 C 0.91044 0.59335 0.50969 0.0
C811 C 0.88952 0.59775 0.46552 0.0
C812 C 0.87276 0.62334 0.46593 0.0
C813 C 0.78605 0.61862 0.53202 0.0
C814 C 0.79772 0.66561 0.45823 0.0
C815 C 0.81212 0.63446 0.5371 0.0
N816 N 0.81772 0.65755 0.50026 0.0
C817 C 0.7714 0.65029 0.4519 0.0
C818 C 0.76559 0.62663 0.48908 0.0
C819 C 0.83454 0.74224 0.49065 0.0
C820 C 0.93008 0.76048 0.63826 0.0
C821 C 0.89866 0.78583 0.54677 0.0
C822 C 0.90383 0.80179 0.59855 0.0
C823 C 0.91964 0.78896 0.64457 0.0
N824 N 0.90884 0.75785 0.54094 0.0
C825 C 0.92436 0.74514 0.58595 0.0
Co826 Co 0.35461 0.85438 0.50858 0.0
Co827 Co 0.29875 0.90216 0.46974 0.0
O828 O 0.33252 0.89099 0.51843 0.0
C829 C 0.33504 0.85296 0.63209 0.0
O830 O 0.30916 0.8607 0.61216 0.0
C831 C 0.33716 0.9565 0.47706 0.0
O832 O 0.36082 0.94021 0.47835 0.0
O833 O 0.32125 0.89323 0.39495 0.0
O834 O 0.3533 0.85817 0.42075 0.0
H835 H 0.22675 0.88817 0.30376 0.0
H836 H 0.37818 0.90049 0.58782 0.0
O837 O 0.35634 0.84959 0.59638 0.0
H838 H 0.45349 0.88669 0.43353 0.0
H839 H 0.43349 0.78179 0.56118 0.0
H840 H 0.35069 0.80337 0.42759 0.0
H841 H 0.40829 0.85709 0.43289 0.0
H842 H 0.40574 0.82787 0.57116 0.0
O843 O 0.31217 0.94455 0.4687 0.0
H844 H 0.26822 0.87468 0.36839 0.0
H845 H 0.25801 0.9536 0.46575 0.0
H846 H 0.37798 0.75716 0.41572 0.0
H847 H 0.42323 0.93033 0.5906 0.0
H848 H 0.4197 0.7461 0.48289 0.0
H849 H 0.4612 0.92362 0.51287 0.0
O850 O 0.31787 0.8307 0.50758 0.0
H851 H 0.28635 0.94381 0.67465 0.0
H852 H 0.23768 0.89076 0.51187 0.0
H853 H 0.21042 0.90056 0.60409 0.0
H854 H 0.23475 0.92742 0.68627 0.0
H855 H 0.31301 0.93276 0.5824 0.0
H856 H 0.21664 0.96807 0.40185 0.0
H857 H 0.20068 0.9352 0.32027 0.0
O858 O 0.28291 0.86084 0.47316 0.0
C859 C 0.34083 0.87414 0.38194 0.0
C860 C 0.23345 0.90265 0.33924 0.0
C861 C 0.22784 0.94753 0.39419 0.0
N862 N 0.26554 0.9133 0.42084 0.0
C863 C 0.25687 0.8951 0.37608 0.0
C864 C 0.25139 0.93928 0.43005 0.0
C865 C 0.21887 0.92906 0.34846 0.0
C866 C 0.39474 0.89723 0.5542 0.0
N867 N 0.39056 0.87711 0.51015 0.0
C868 C 0.42014 0.91428 0.55586 0.0
C869 C 0.44141 0.91054 0.51216 0.0
C870 C 0.43708 0.88986 0.46758 0.0
C871 C 0.41137 0.87325 0.46727 0.0
C872 C 0.41537 0.78637 0.53162 0.0
C873 C 0.36894 0.79881 0.45674 0.0
C874 C 0.39953 0.81239 0.53716 0.0
N875 N 0.37669 0.81835 0.49984 0.0
C876 C 0.38426 0.77257 0.44991 0.0
C877 C 0.40763 0.76636 0.48766 0.0
C878 C 0.29155 0.83574 0.49148 0.0
C879 C 0.27551 0.93205 0.63921 0.0
C880 C 0.24858 0.90191 0.54779 0.0
C881 C 0.23295 0.90767 0.59973 0.0
C882 C 0.24658 0.92281 0.64574 0.0
N883 N 0.27703 0.91082 0.54182 0.0
C884 C 0.29049 0.92577 0.58673 0.0
Co885 Co 0.18201 0.35254 0.51573 0.0
Co886 Co 0.13593 0.29725 0.46735 0.0
O887 O 0.1458 0.32949 0.52084 0.0
C888 C 0.18205 0.33021 0.63775 0.0
O889 O 0.17532 0.30451 0.61562 0.0
C890 C 0.08023 0.33397 0.47595 0.0
O891 O 0.09538 0.35839 0.47457 0.0
O892 O 0.14474 0.32251 0.3961 0.0
O893 O 0.17982 0.35333 0.4274 0.0
H894 H 0.15283 0.23206 0.29146 0.0
H895 H 0.13355 0.37248 0.59319 0.0
O896 O 0.1853 0.3522 0.60386 0.0
H897 H 0.14897 0.45277 0.45052 0.0
H898 H 0.25169 0.43166 0.58154 0.0
H899 H 0.23484 0.35149 0.43923 0.0
H900 H 0.17962 0.4084 0.44683 0.0
H901 H 0.20602 0.40279 0.58495 0.0
O902 O 0.09313 0.30946 0.4679 0.0
H903 H 0.16473 0.27146 0.36232 0.0
H904 H 0.08552 0.25543 0.45576 0.0
H905 H 0.28077 0.37984 0.43401 0.0
H906 H 0.10262 0.41664 0.59913 0.0
H907 H 0.28942 0.4203 0.50553 0.0
H908 H 0.11016 0.45714 0.52727 0.0
O909 O 0.20648 0.31639 0.51261 0.0
H910 H 0.09472 0.27667 0.66995 0.0
H911 H 0.14827 0.23504 0.49992 0.0
H912 H 0.1384 0.20416 0.58728 0.0
H913 H 0.11133 0.22494 0.67308 0.0
H914 H 0.10556 0.30691 0.58228 0.0
H915 H 0.07263 0.21611 0.38567 0.0
H916 H 0.10648 0.20409 0.30292 0.0
O917 O 0.17769 0.28242 0.46989 0.0
C918 C 0.16425 0.34218 0.38627 0.0
C919 C 0.13795 0.23703 0.32745 0.0
C920 C 0.0929 0.22813 0.38023 0.0
N921 N 0.12594 0.26567 0.41335 0.0
C922 C 0.1446 0.25926 0.3678 0.0
C923 C 0.10026 0.25053 0.41967 0.0
C924 C 0.11191 0.22138 0.33384 0.0
C925 C 0.13712 0.39009 0.56204 0.0
N926 N 0.15833 0.38779 0.5195 0.0
C927 C 0.11947 0.41501 0.5655 0.0
C928 C 0.12368 0.4377 0.52511 0.0
C929 C 0.14541 0.43524 0.48199 0.0
C930 C 0.16261 0.40998 0.47984 0.0
C931 C 0.24817 0.41411 0.55009 0.0
C932 C 0.23844 0.36907 0.47043 0.0
C933 C 0.22237 0.39765 0.55188 0.0
N934 N 0.21772 0.37555 0.51211 0.0
C935 C 0.26449 0.38505 0.46729 0.0
C936 C 0.26933 0.40773 0.50743 0.0
C937 C 0.20219 0.29076 0.49196 0.0
C938 C 0.10657 0.26737 0.6329 0.0
C939 C 0.13675 0.24434 0.53728 0.0
C940 C 0.1311 0.22669 0.58654 0.0
C941 C 0.11589 0.23835 0.63462 0.0
N942 N 0.12761 0.27281 0.53589 0.0
C943 C 0.11277 0.28439 0.58303 0.0
C944 C 0.17553 0.53121 0.97986 0.0
C945 C 0.20038 0.54872 0.99116 0.0
C946 C 0.17467 0.50132 0.99596 0.0
C947 C 0.1984 0.48762 0.02522 0.0
H948 H 0.15674 0.54052 0.95736 0.0
H949 H 0.15534 0.48878 0.98443 0.0
S950 S 0.26734 0.5246 0.07154 0.0
N951 N 0.24873 0.55023 0.03649 0.0
N952 N 0.24641 0.49519 0.06946 0.0
C953 C 0.22281 0.5053 0.03901 0.0
C954 C 0.224 0.53544 0.0213 0.0
C955 C 0.50337 0.2255 1.00227 0.0
C956 C 0.48777 0.19923 0.99284 0.0
C957 C 0.53285 0.22556 0.02044 0.0
C958 C 0.54848 0.19935 0.03008 0.0
H959 H 0.49269 0.24644 0.99613 0.0
H960 H 0.54349 0.24654 0.02658 0.0
S961 S 0.51825 0.12433 0.01141 0.0
N962 N 0.49054 0.14605 0.9946 0.0
N963 N 0.54588 0.14616 0.02824 0.0
C964 C 0.53327 0.17284 0.02063 0.0
C965 C 0.50307 0.17278 1.00222 0.0
C966 C 0.81002 0.50292 1.00077 0.0
C967 C 0.83626 0.48725 0.99149 0.0
C968 C 0.81007 0.53222 0.01992 0.0
C969 C 0.83638 0.54756 0.03071 0.0
H970 H 0.789 0.49244 0.9938 0.0
H971 H 0.78911 0.54295 0.0258 0.0
S972 S 0.91139 0.51696 0.01312 0.0
N973 N 0.88953 0.48959 0.99482 0.0
N974 N 0.88964 0.54458 0.03024 0.0
C975 C 0.86287 0.53226 0.02148 0.0
C976 C 0.86281 0.50224 1.00211 0.0
C977 C 0.5325 0.85663 0.99512 0.0
C978 C 0.54901 0.83053 0.99322 0.0
C979 C 0.50282 0.85681 0.013 0.0
C980 C 0.4882 0.83094 0.03042 0.0
H981 H 0.54251 0.87718 0.98237 0.0
H982 H 0.49121 0.87749 0.01267 0.0
S983 S 0.52183 0.75684 0.03684 0.0
N984 N 0.54843 0.77816 0.01264 0.0
N985 N 0.49333 0.77854 0.04626 0.0
C986 C 0.50464 0.80478 0.02961 0.0
C987 C 0.53475 0.80456 0.01105 0.0
C988 C 0.67593 0.03388 0.52113 0.0
C989 C 0.70006 0.04759 0.49331 0.0
C990 C 0.67665 1.00404 0.53758 0.0
C991 C 0.7017 0.98662 0.52784 0.0
H992 H 0.65639 0.04639 0.53128 0.0
H993 H 0.65758 0.9947 0.55903 0.0
S994 S 0.76965 1.01078 0.45086 0.0
N995 N 0.74875 0.04022 0.45217 0.0
N996 N 0.75054 0.98509 0.48463 0.0
C997 C 0.72568 0.9999 0.49884 0.0
C998 C 0.72475 0.03003 0.48122 0.0
C999 C 1.00352 0.72391 0.50247 0.0
C1000 C 0.98815 0.6975 0.49331 0.0
C1001 C 0.03303 0.72427 0.52047 0.0
C1002 C 0.04894 0.69824 0.53019 0.0
H1003 H 0.99266 0.74474 0.49623 0.0
H1004 H 0.04346 0.74536 0.52628 0.0
S1005 S 0.01932 0.62292 0.51248 0.0
N1006 N 0.99139 0.64435 0.49562 0.0
N1007 N 0.0468 0.64503 0.52891 0.0
C1008 C 0.03394 0.67157 0.52112 0.0
C1009 C 1.00369 0.6712 0.50291 0.0
C1010 C 0.31253 0.03363 0.52087 0.0
C1011 C 0.3389 0.04915 0.52985 0.0
C1012 C 0.31234 1.00417 0.5028 0.0
C1013 C 0.33851 0.98847 0.49286 0.0
H1014 H 0.2916 0.04435 0.52731 0.0
H1015 H 0.29129 0.9936 0.49719 0.0
S1016 S 0.41378 0.01858 0.50984 0.0
N1017 N 0.39215 0.04629 0.52698 0.0
N1018 N 0.39179 0.99099 0.4936 0.0
C1019 C 0.36513 1.00363 0.50171 0.0
C1020 C 0.36532 0.03382 0.51996 0.0
C1021 C 0.03098 0.35948 0.48499 0.0
C1022 C 0.04839 0.33431 0.49313 0.0
C1023 C 1.00111 0.36006 0.50171 0.0
C1024 C 0.98737 0.33568 0.52852 0.0
H1025 H 0.04035 0.3788 0.46458 0.0
H1026 H 0.98862 0.37972 0.49269 0.0
S1027 S 0.02417 0.2655 0.56636 0.0
N1028 N 0.04981 0.2849 0.53306 0.0
N1029 N 0.99482 0.28656 0.56703 0.0
C1030 C 1.00497 0.31086 0.53911 0.0
C1031 C 0.03507 0.31001 0.52079 0.0
C1032 C 0.2953 0.3174 0.00925 0.0
C1033 C 0.266 0.30977 0.02131 0.0
C1034 C 0.31669 0.29616 0.9969 0.0
C1035 C 0.31018 0.26603 0.99785 0.0
H1036 H 0.30187 0.34005 0.00808 0.0
H1037 H 0.33862 0.30365 0.98718 0.0
S1038 S 0.23659 0.23397 0.02686 0.0
N1039 N 0.23141 0.26963 0.03213 0.0
N1040 N 0.27171 0.22966 0.0115 0.0
C1041 C 0.28089 0.25795 0.01001 0.0
C1042 C 0.25889 0.27973 0.02117 0.0
C1043 C 0.76641 0.28731 0.96804 0.0
C1044 C 0.76692 0.31262 1.0033 0.0
C1045 C 0.7455 0.26514 0.97782 0.0
C1046 C 0.72435 0.26736 0.02347 0.0
H1047 H 0.78217 0.28472 0.93249 0.0
H1048 H 0.74567 0.24632 0.94861 0.0
S1049 S 0.71878 0.3284 0.13179 0.0
N1050 N 0.74625 0.33782 0.08812 0.0
N1051 N 0.70684 0.29668 0.10635 0.0
C1052 C 0.72529 0.29243 0.05985 0.0
C1053 C 0.74661 0.31487 0.04985 0.0
C1054 C 0.76669 0.74664 0.05689 0.0
C1055 C 0.76889 0.72254 0.01855 0.0
C1056 C 0.74583 0.76882 0.04687 0.0
C1057 C 0.72634 0.76773 0.99813 0.0
H1058 H 0.78114 0.74832 0.09486 0.0
H1059 H 0.74469 0.78672 0.07829 0.0
S1060 S 0.72503 0.70977 0.88261 0.0
N1061 N 0.75126 0.69948 0.92854 0.0
N1062 N 0.71188 0.74062 0.90993 0.0
C1063 C 0.72882 0.74379 0.95907 0.0
C1064 C 0.75016 0.72139 0.96919 0.0
C1065 C 0.27056 0.74779 0.96276 0.0
C1066 C 0.2673 0.72444 1.00262 0.0
C1067 C 0.29157 0.76985 0.97271 0.0
C1068 C 0.31025 0.76929 0.02276 0.0
H1069 H 0.25673 0.74905 0.92379 0.0
H1070 H 0.2935 0.78723 0.94027 0.0
S1071 S 0.30904 0.71315 0.14179 0.0
N1072 N 0.28328 0.70255 0.09505 0.0
N1073 N 0.32307 0.74336 0.11334 0.0
C1074 C 0.30685 0.74601 0.06309 0.0
C1075 C 0.28528 0.7238 0.05316 0.0
C1076 C 0.81748 0.79462 0.49498 0.0
C1077 C 0.81075 0.76457 0.49847 0.0
C1078 C 0.79654 0.81622 0.50766 0.0
C1079 C 0.76748 0.80907 0.52274 0.0
H1080 H 0.83924 0.80176 0.48286 0.0
H1081 H 0.80322 0.83878 0.50418 0.0
S1082 S 0.73742 0.73377 0.5349 0.0
N1083 N 0.77218 0.72883 0.51715 0.0
N1084 N 0.73268 0.76955 0.53848 0.0
C1085 C 0.76005 0.77916 0.52484 0.0
C1086 C 0.78162 0.75698 0.51329 0.0
C1087 C 0.23969 0.81924 0.51027 0.0
C1088 C 0.26924 0.812 0.49983 0.0
C1089 C 0.21855 0.79778 0.52285 0.0
C1090 C 0.22557 0.76776 0.5238 0.0
H1091 H 0.23271 0.84178 0.5099 0.0
H1092 H 0.19639 0.80499 0.53118 0.0
S1093 S 0.29995 0.73666 0.49938 0.0
N1094 N 0.30459 0.77233 0.49244 0.0
N1095 N 0.26476 0.73193 0.51358 0.0
C1096 C 0.25509 0.76006 0.5132 0.0
C1097 C 0.27684 0.78209 0.50178 0.0
C1098 C 0.24111 0.21967 0.5321 0.0
C1099 C 0.27094 0.22562 0.52108 0.0
C1100 C 0.21919 0.24054 0.52094 0.0
C1101 C 0.22596 0.26865 0.49955 0.0
H1102 H 0.23439 0.19861 0.54917 0.0
H1103 H 0.1968 0.23471 0.53077 0.0
S1104 S 0.30057 0.29669 0.46711 0.0
N1105 N 0.30603 0.26266 0.4891 0.0
N1106 N 0.2648 0.30193 0.4703 0.0
C1107 C 0.25567 0.27539 0.49014 0.0
C1108 C 0.27809 0.25393 0.50032 0.0
C1109 C 0.81597 0.24126 0.50359 0.0
C1110 C 0.80878 0.26986 0.52155 0.0
C1111 C 0.79432 0.22024 0.49155 0.0
C1112 C 0.76425 0.22647 0.49836 0.0
H1113 H 0.83854 0.23503 0.49732 0.0
H1114 H 0.80146 0.19883 0.47717 0.0
S1115 S 0.73338 0.29856 0.543 0.0
N1116 N 0.7692 0.30372 0.54356 0.0
N1117 N 0.72845 0.26412 0.52314 0.0
C1118 C 0.75663 0.25518 0.51589 0.0
C1119 C 0.77882 0.27681 0.52696 0.0
C1120 C 0.15659 0.33782 0.27565 0.0
C1121 C 0.17052 0.3517 0.32371 0.0
C1122 C 0.16375 0.34476 0.21666 0.0
C1123 C 0.1852 0.36602 0.20245 0.0
H1124 H 0.14039 0.32092 0.28343 0.0
H1125 H 0.15256 0.33281 0.18192 0.0
S1126 S 0.22755 0.40993 0.31132 0.0
N1127 N 0.20647 0.38871 0.35228 0.0
N1128 N 0.21958 0.40162 0.24203 0.0
C1129 C 0.1988 0.38064 0.24992 0.0
C1130 C 0.19159 0.37353 0.31013 0.0
C1131 C 0.66267 0.18737 0.3038 0.0
C1132 C 0.68574 0.16788 0.31777 0.0
C1133 C 0.65549 0.19443 0.24499 0.0
C1134 C 0.67114 0.1826 0.1969 0.0
H1135 H 0.65017 0.19784 0.33862 0.0
H1136 H 0.63787 0.20989 0.23745 0.0
S1137 S 0.73324 0.12985 0.20857 0.0
N1138 N 0.72366 0.13616 0.2779 0.0
N1139 N 0.71078 0.14972 0.1678 0.0
C1140 C 0.69401 0.16265 0.21011 0.0
C1141 C 0.70112 0.15523 0.2702 0.0
C1142 C 0.84826 0.66215 0.30492 0.0
C1143 C 0.86801 0.68508 0.31843 0.0
C1144 C 0.8408 0.655 0.24622 0.0
C1145 C 0.85253 0.67051 0.19785 0.0
H1146 H 0.83792 0.64973 0.34003 0.0
H1147 H 0.8252 0.63748 0.23897 0.0
S1148 S 0.90574 0.73232 0.20839 0.0
N1149 N 0.89973 0.72279 0.27784 0.0
N1150 N 0.88551 0.70996 0.1681 0.0
C1151 C 0.8727 0.69327 0.21066 0.0
C1152 C 0.88048 0.70035 0.27056 0.0
C1153 C 0.37281 0.84981 0.30518 0.0
C1154 C 0.34921 0.86877 0.31858 0.0
C1155 C 0.38006 0.84233 0.24656 0.0
C1156 C 0.36397 0.85319 0.19813 0.0
H1157 H 0.3857 0.84011 0.34034 0.0
H1158 H 0.39812 0.82734 0.23945 0.0
S1159 S 0.30029 0.90414 0.2083 0.0
N1160 N 0.31024 0.89887 0.27777 0.0
N1161 N 0.32324 0.88453 0.16815 0.0
C1162 C 0.34053 0.87258 0.21079 0.0
C1163 C 0.33335 0.88043 0.27063 0.0
C1164 C 0.18773 0.6641 0.71736 0.0
C1165 C 0.16849 0.68744 0.70381 0.0
C1166 C 0.19493 0.65674 0.7761 0.0
C1167 C 0.18347 0.67248 0.82444 0.0
H1168 H 0.19785 0.6515 0.68225 0.0
H1169 H 0.21014 0.6389 0.78342 0.0
S1170 S 0.13167 0.73544 0.81374 0.0
N1171 N 0.13755 0.72579 0.74432 0.0
N1172 N 0.15135 0.71265 0.85406 0.0
C1173 C 0.16384 0.69567 0.81155 0.0
C1174 C 0.15629 0.70294 0.75164 0.0
C1175 C 0.3414 0.15729 0.74499 0.0
C1176 C 0.35436 0.17196 0.69682 0.0
C1177 C 0.34832 0.16463 0.80386 0.0
C1178 C 0.36867 0.18697 0.8178 0.0
H1179 H 0.32524 0.14031 0.73742 0.0
H1180 H 0.33708 0.15284 0.83874 0.0
S1181 S 0.40977 0.23175 0.70849 0.0
N1182 N 0.38933 0.20978 0.66775 0.0
N1183 N 0.40234 0.22314 0.77787 0.0
C1184 C 0.38236 0.20137 0.77019 0.0
C1185 C 0.37522 0.19402 0.71008 0.0
C1186 C 0.83867 0.37941 0.77575 0.0
C1187 C 0.85083 0.36419 0.82406 0.0
C1188 C 0.84591 0.37219 0.71697 0.0
C1189 C 0.86583 0.34944 0.70326 0.0
H1190 H 0.82291 0.39677 0.78312 0.0
H1191 H 0.83528 0.38444 0.68196 0.0
S1192 S 0.90478 0.30308 0.81308 0.0
N1193 N 0.88452 0.32531 0.85355 0.0
N1194 N 0.89823 0.31226 0.74364 0.0
C1195 C 0.87872 0.33446 0.75106 0.0
C1196 C 0.87121 0.34166 0.81106 0.0
C1197 C 0.65688 0.84107 0.77544 0.0
C1198 C 0.67284 0.85213 0.8239 0.0
C1199 C 0.66429 0.84836 0.71679 0.0
C1200 C 0.68791 0.8673 0.70339 0.0
H1201 H 0.63884 0.82606 0.78256 0.0
H1202 H 0.65151 0.8385 0.68162 0.0
S1203 S 0.73644 0.90322 0.81374 0.0
N1204 N 0.71341 0.88369 0.8539 0.0
N1205 N 0.72669 0.89766 0.74424 0.0
C1206 C 0.7036 0.87919 0.75137 0.0
C1207 C 0.69627 0.87154 0.81123 0.0
C1208 C 0.82927 0.6714 0.71489 0.0
C1209 C 0.84748 0.69446 0.69585 0.0
C1210 C 0.82426 0.66636 0.77528 0.0
C1211 C 0.83786 0.68379 0.8185 0.0
H1212 H 0.81863 0.65723 0.68292 0.0
H1213 H 0.81018 0.64835 0.78821 0.0
S1214 S 0.88678 0.74738 0.79204 0.0
N1215 N 0.87841 0.73536 0.72513 0.0
N1216 N 0.86946 0.72554 0.8386 0.0
C1217 C 0.85592 0.70703 0.80014 0.0
C1218 C 0.8606 0.71247 0.73876 0.0
C1219 C 0.36253 0.82921 0.71469 0.0
C1220 C 0.33972 0.84781 0.6959 0.0
C1221 C 0.36766 0.82411 0.77503 0.0
C1222 C 0.3506 0.83801 0.81845 0.0
H1223 H 0.37642 0.81833 0.68255 0.0
H1224 H 0.38544 0.80969 0.78776 0.0
S1225 S 0.2878 0.88806 0.79272 0.0
N1226 N 0.29947 0.87948 0.72567 0.0
N1227 N 0.30949 0.87035 0.83903 0.0
C1228 C 0.32765 0.8565 0.80036 0.0
C1229 C 0.32209 0.86127 0.73902 0.0
C1230 C 0.20542 0.35618 0.7225 0.0
C1231 C 0.18664 0.33391 0.70199 0.0
C1232 C 0.20998 0.36062 0.78317 0.0
C1233 C 0.19537 0.3434 0.82538 0.0
H1234 H 0.21687 0.3702 0.69143 0.0
H1235 H 0.22456 0.37804 0.79709 0.0
S1236 S 0.14433 0.28196 0.79492 0.0
N1237 N 0.15391 0.29402 0.72869 0.0
N1238 N 0.16192 0.30284 0.84296 0.0
C1239 C 0.17661 0.321 0.80561 0.0
C1240 C 0.17242 0.3161 0.74379 0.0
C1241 C 0.7031 0.17835 0.79789 0.0
C1242 C 0.68345 0.19996 0.81783 0.0
C1243 C 0.70803 0.17393 0.73737 0.0
C1244 C 0.69296 0.19052 0.6948 0.0
H1245 H 0.71503 0.16491 0.82927 0.0
H1246 H 0.72335 0.15707 0.72385 0.0
S1247 S 0.63942 0.24995 0.72385 0.0
N1248 N 0.64921 0.23842 0.79035 0.0
N1249 N 0.658 0.22968 0.67628 0.0
C1250 C 0.67324 0.21218 0.71402 0.0
C1251 C 0.66863 0.21705 0.7757 0.0
C1252 C 0.82648 0.36255 0.30674 0.0
C1253 C 0.84463 0.33949 0.32604 0.0
C1254 C 0.8216 0.36755 0.24627 0.0
C1255 C 0.83525 0.35007 0.20321 0.0
H1256 H 0.81585 0.3768 0.33856 0.0
H1257 H 0.80761 0.38559 0.23317 0.0
S1258 S 0.88395 0.2864 0.23029 0.0
N1259 N 0.87548 0.29849 0.29709 0.0
N1260 N 0.86676 0.30824 0.18351 0.0
C1261 C 0.85319 0.3268 0.22181 0.0
C1262 C 0.85775 0.3214 0.28327 0.0
C1263 C 0.66915 0.82257 0.24672 0.0
C1264 C 0.68654 0.83614 0.20341 0.0
C1265 C 0.67434 0.82751 0.30711 0.0
C1266 C 0.69755 0.8456 0.32605 0.0
H1267 H 0.65109 0.80853 0.23385 0.0
H1268 H 0.6602 0.81689 0.33916 0.0
S1269 S 0.75038 0.88482 0.22952 0.0
N1270 N 0.72833 0.86764 0.18307 0.0
N1271 N 0.7385 0.87641 0.29651 0.0
C1272 C 0.7155 0.85871 0.28302 0.0
C1273 C 0.70987 0.85413 0.22165 0.0
C1274 C 0.20715 0.6746 0.30722 0.0
C1275 C 0.18881 0.69751 0.32645 0.0
C1276 C 0.21177 0.66939 0.24679 0.0
C1277 C 0.19765 0.68646 0.20372 0.0
H1278 H 0.21819 0.66069 0.33908 0.0
H1279 H 0.22603 0.65154 0.23374 0.0
S1280 S 0.14816 0.74954 0.23065 0.0
N1281 N 0.15717 0.7379 0.29748 0.0
N1282 N 0.16539 0.72771 0.18389 0.0
C1283 C 0.17942 0.70953 0.22223 0.0
C1284 C 0.17514 0.71518 0.28367 0.0
C1285 C 0.35903 0.20517 0.2981 0.0
C1286 C 0.33745 0.18549 0.31816 0.0
C1287 C 0.36322 0.21026 0.23755 0.0
C1288 C 0.34643 0.19533 0.19505 0.0
H1289 H 0.37265 0.21695 0.32942 0.0
H1290 H 0.38009 0.22555 0.22393 0.0
S1291 S 0.28691 0.14189 0.22441 0.0
N1292 N 0.29874 0.15147 0.29083 0.0
N1293 N 0.30706 0.16055 0.17675 0.0
C1294 C 0.32476 0.17564 0.2144 0.0
C1295 C 0.32012 0.17088 0.2761 0.0
loop_
_geom_bond_atom_site_label_1
_geom_bond_atom_site_label_2
_geom_bond_distance
_geom_bond_site_symmetry_2
_ccdc_geom_bond_type
Co0 O2 2.143 . S
Co0 O8 2.074 1_556 S
Co0 O11 2.093 . S
Co0 O24 2.097 . S
Co0 N41 2.151 . S
Co0 N49 2.214 1_556 S
Co1 O2 2.160 1_554 S
Co1 O7 2.058 . S
Co1 O17 2.057 . S
Co1 O32 2.037 . S
Co1 N36 2.145 . S
Co1 N57 2.257 1_554 S
O2 Co0 2.143 . S
O2 Co1 2.160 1_556 S
C3 O4 1.278 . S
C3 O11 1.224 . S
O4 C3 1.278 . S
C5 O6 1.244 . S
C5 O17 1.232 . S
O6 C5 1.244 . S
O7 Co1 2.058 . S
O7 C33 1.269 . S
O8 Co0 2.074 1_554 S
O8 C33 1.257 . S
H9 C34 0.930 . S
H10 C40 0.930 . S
O11 Co0 2.093 . S
O11 C3 1.224 . S
H12 C44 0.929 . S
H13 C46 0.930 . S
H14 C47 0.930 . S
H15 C45 0.929 . S
H16 C48 0.928 . S
O17 Co1 2.057 . S
O17 C5 1.232 . S
H18 C37 0.929 . S
H19 C38 0.929 . S
H20 C50 0.931 . S
H21 C42 0.929 . S
H22 C51 0.930 . S
H23 C43 0.931 . S
O24 Co0 2.097 . S
O24 C52 1.214 1_556 S
H25 C53 0.929 . S
H26 C54 0.929 . S
H27 C55 0.930 . S
H28 C56 0.929 . S
H29 C58 0.930 . S
H30 C35 0.930 . S
H31 C39 0.930 . S
O32 Co1 2.037 . S
O32 C52 1.234 . S
C33 O7 1.269 . S
C33 O8 1.257 . S
C34 H9 0.930 . S
C34 C37 1.388 . S
C34 C39 1.418 . S
C35 H30 0.930 . S
C35 C38 1.404 . S
C35 C39 1.353 . S
N36 Co1 2.145 . S
N36 C37 1.397 . S
N36 C38 1.334 . S
C37 H18 0.929 . S
C37 C34 1.388 . S
C37 N36 1.397 . S
C38 H19 0.929 . S
C38 C35 1.404 . S
C38 N36 1.334 . S
C39 H31 0.930 . S
C39 C34 1.418 . S
C39 C35 1.353 . S
C40 H10 0.930 . S
C40 N41 1.330 . S
C40 C42 1.446 . S
N41 Co0 2.151 . S
N41 C40 1.330 . S
N41 C45 1.418 1_556 S
C42 H21 0.929 . S
C42 C40 1.446 . S
C42 C43 1.332 . S
C43 H23 0.931 . S
C43 C42 1.332 . S
C43 C44 1.267 1_556 S
C44 H12 0.929 . S
C44 C43 1.267 1_554 S
C44 C45 1.251 . S
C45 H15 0.929 . S
C45 N41 1.418 1_554 S
C45 C44 1.251 . S
C46 H13 0.930 . S
C46 C48 1.406 . S
C46 C51 1.261 1_556 S
C47 H14 0.930 . S
C47 N49 1.325 . S
C47 C50 1.357 . S
C48 H16 0.928 . S
C48 C46 1.406 . S
C48 N49 1.261 1_556 S
N49 Co0 2.214 1_554 S
N49 C47 1.325 . S
N49 C48 1.261 1_554 S
C50 H20 0.931 . S
C50 C47 1.357 . S
C50 C51 1.312 . S
C51 H22 0.930 . S
C51 C46 1.261 1_554 S
C51 C50 1.312 . S
C52 O24 1.214 1_554 S
C52 O32 1.234 . S
C53 H25 0.929 . S
C53 C56 1.391 . S
C53 C58 1.391 . S
C54 H26 0.929 . S
C54 C55 1.390 . S
C54 N57 1.391 . S
C55 H27 0.930 . S
C55 C54 1.390 . S
C55 C56 1.392 . S
C56 H28 0.929 . S
C56 C53 1.391 . S
C56 C55 1.392 . S
N57 Co1 2.257 1_556 S
N57 C54 1.391 . S
N57 C58 1.388 . S
C58 H29 0.930 . S
C58 C53 1.391 . S
C58 N57 1.388 . S
Co59 O61 2.143 . S
Co59 O67 2.074 1_556 S
Co59 O70 2.093 . S
Co59 O83 2.097 . S
Co59 N100 2.151 . S
Co59 N108 2.214 1_556 S
Co60 O61 2.160 1_554 S
Co60 O66 2.058 . S
Co60 O76 2.057 . S
Co60 O91 2.037 . S
Co60 N95 2.145 . S
Co60 N116 2.257 1_554 S
O61 Co59 2.143 . S
O61 Co60 2.160 1_556 S
C62 O63 1.278 . S
C62 O70 1.224 . S
O63 C62 1.278 . S
C64 O65 1.244 . S
C64 O76 1.232 . S
O65 C64 1.244 . S
O66 Co60 2.058 . S
O66 C92 1.269 . S
O67 Co59 2.074 1_554 S
O67 C92 1.257 . S
H68 C93 0.930 . S
H69 C99 0.930 . S
O70 Co59 2.093 . S
O70 C62 1.224 . S
H71 C103 0.929 . S
H72 C105 0.930 . S
H73 C106 0.930 . S
H74 C104 0.929 . S
H75 C107 0.928 . S
O76 Co60 2.057 . S
O76 C64 1.232 . S
H77 C96 0.929 . S
H78 C97 0.929 . S
H79 C109 0.931 . S
H80 C101 0.929 . S
H81 C110 0.930 . S
H82 C102 0.931 . S
O83 Co59 2.097 . S
O83 C111 1.214 1_556 S
H84 C112 0.929 . S
H85 C113 0.929 . S
H86 C114 0.930 . S
H87 C115 0.929 . S
H88 C117 0.930 . S
H89 C94 0.930 . S
H90 C98 0.930 . S
O91 Co60 2.037 . S
O91 C111 1.234 . S
C92 O66 1.269 . S
C92 O67 1.257 . S
C93 H68 0.930 . S
C93 C96 1.388 . S
C93 C98 1.418 . S
C94 H89 0.930 . S
C94 C97 1.404 . S
C94 C98 1.353 . S
N95 Co60 2.145 . S
N95 C96 1.397 . S
N95 C97 1.334 . S
C96 H77 0.929 . S
C96 C93 1.388 . S
C96 N95 1.397 . S
C97 H78 0.929 . S
C97 C94 1.404 . S
C97 N95 1.334 . S
C98 H90 0.930 . S
C98 C93 1.418 . S
C98 C94 1.353 . S
C99 H69 0.930 . S
C99 N100 1.330 . S
C99 C101 1.446 . S
N100 Co59 2.151 . S
N100 C99 1.330 . S
N100 C104 1.418 1_556 S
C101 H80 0.929 . S
C101 C99 1.446 . S
C101 C102 1.332 . S
C102 H82 0.931 . S
C102 C101 1.332 . S
C102 C103 1.267 1_556 S
C103 H71 0.929 . S
C103 C102 1.267 1_554 S
C103 C104 1.251 . S
C104 H74 0.929 . S
C104 N100 1.418 1_554 S
C104 C103 1.251 . S
C105 H72 0.930 . S
C105 C107 1.406 . S
C105 C110 1.261 1_556 S
C106 H73 0.930 . S
C106 N108 1.325 . S
C106 C109 1.357 . S
C107 H75 0.928 . S
C107 C105 1.406 . S
C107 N108 1.261 1_556 S
N108 Co59 2.214 1_554 S
N108 C106 1.325 . S
N108 C107 1.261 1_554 S
C109 H79 0.931 . S
C109 C106 1.357 . S
C109 C110 1.312 . S
C110 H81 0.930 . S
C110 C105 1.261 1_554 S
C110 C109 1.312 . S
C111 O83 1.214 1_554 S
C111 O91 1.234 . S
C112 H84 0.929 . S
C112 C115 1.391 . S
C112 C117 1.391 . S
C113 H85 0.929 . S
C113 C114 1.390 . S
C113 N116 1.391 . S
C114 H86 0.930 . S
C114 C113 1.390 . S
C114 C115 1.392 . S
C115 H87 0.929 . S
C115 C112 1.391 . S
C115 C114 1.392 . S
N116 Co60 2.257 1_556 S
N116 C113 1.391 . S
N116 C117 1.388 . S
C117 H88 0.930 . S
C117 C112 1.391 . S
C117 N116 1.388 . S
Co118 O120 2.143 . S
Co118 O126 2.074 1_556 S
Co118 O129 2.093 . S
Co118 O142 2.097 . S
Co118 N159 2.151 . S
Co118 N167 2.214 1_556 S
Co119 O120 2.160 1_554 S
Co119 O125 2.058 . S
Co119 O135 2.057 . S
Co119 O150 2.037 . S
Co119 N154 2.145 . S
Co119 N175 2.257 1_554 S
O120 Co118 2.143 . S
O120 Co119 2.160 1_556 S
C121 O122 1.278 . S
C121 O129 1.224 . S
O122 C121 1.278 . S
C123 O124 1.244 . S
C123 O135 1.232 . S
O124 C123 1.244 . S
O125 Co119 2.058 . S
O125 C151 1.269 . S
O126 Co118 2.074 1_554 S
O126 C151 1.257 . S
H127 C152 0.930 . S
H128 C158 0.930 . S
O129 Co118 2.093 . S
O129 C121 1.224 . S
H130 C162 0.929 . S
H131 C164 0.930 . S
H132 C165 0.930 . S
H133 C163 0.929 . S
H134 C166 0.928 . S
O135 Co119 2.057 . S
O135 C123 1.232 . S
H136 C155 0.929 . S
H137 C156 0.929 . S
H138 C168 0.931 . S
H139 C160 0.929 . S
H140 C169 0.930 . S
H141 C161 0.931 . S
O142 Co118 2.097 . S
O142 C170 1.214 1_556 S
H143 C171 0.929 . S
H144 C172 0.929 . S
H145 C173 0.930 . S
H146 C174 0.929 . S
H147 C176 0.930 . S
H148 C153 0.930 . S
H149 C157 0.930 . S
O150 Co119 2.037 . S
O150 C170 1.234 . S
C151 O125 1.269 . S
C151 O126 1.257 . S
C152 H127 0.930 . S
C152 C155 1.388 . S
C152 C157 1.418 . S
C153 H148 0.930 . S
C153 C156 1.404 . S
C153 C157 1.353 . S
N154 Co119 2.145 . S
N154 C155 1.397 . S
N154 C156 1.334 . S
C155 H136 0.929 . S
C155 C152 1.388 . S
C155 N154 1.397 . S
C156 H137 0.929 . S
C156 C153 1.404 . S
C156 N154 1.334 . S
C157 H149 0.930 . S
C157 C152 1.418 . S
C157 C153 1.353 . S
C158 H128 0.930 . S
C158 N159 1.330 . S
C158 C160 1.446 . S
N159 Co118 2.151 . S
N159 C158 1.330 . S
N159 C163 1.418 1_556 S
C160 H139 0.929 . S
C160 C158 1.446 . S
C160 C161 1.332 . S
C161 H141 0.931 . S
C161 C160 1.332 . S
C161 C162 1.267 1_556 S
C162 H130 0.929 . S
C162 C161 1.267 1_554 S
C162 C163 1.251 . S
C163 H133 0.929 . S
C163 N159 1.418 1_554 S
C163 C162 1.251 . S
C164 H131 0.930 . S
C164 C166 1.406 . S
C164 C169 1.261 1_556 S
C165 H132 0.930 . S
C165 N167 1.325 . S
C165 C168 1.357 . S
C166 H134 0.928 . S
C166 C164 1.406 . S
C166 N167 1.261 1_556 S
N167 Co118 2.214 1_554 S
N167 C165 1.325 . S
N167 C166 1.261 1_554 S
C168 H138 0.931 . S
C168 C165 1.357 . S
C168 C169 1.312 . S
C169 H140 0.930 . S
C169 C164 1.261 1_554 S
C169 C168 1.312 . S
C170 O142 1.214 1_554 S
C170 O150 1.234 . S
C171 H143 0.929 . S
C171 C174 1.391 . S
C171 C176 1.391 . S
C172 H144 0.929 . S
C172 C173 1.390 . S
C172 N175 1.391 . S
C173 H145 0.930 . S
C173 C172 1.390 . S
C173 C174 1.392 . S
C174 H146 0.929 . S
C174 C171 1.391 . S
C174 C173 1.392 . S
N175 Co119 2.257 1_556 S
N175 C172 1.391 . S
N175 C176 1.388 . S
C176 H147 0.930 . S
C176 C171 1.391 . S
C176 N175 1.388 . S
Co177 O179 2.143 . S
Co177 O185 2.074 1_556 S
Co177 O188 2.093 . S
Co177 O201 2.097 . S
Co177 N218 2.151 . S
Co177 N226 2.214 1_556 S
Co178 O179 2.160 1_554 S
Co178 O184 2.058 . S
Co178 O194 2.057 . S
Co178 O209 2.037 . S
Co178 N213 2.145 . S
Co178 N234 2.257 1_554 S
O179 Co177 2.143 . S
O179 Co178 2.160 1_556 S
C180 O181 1.278 . S
C180 O188 1.224 . S
O181 C180 1.278 . S
C182 O183 1.244 . S
C182 O194 1.232 . S
O183 C182 1.244 . S
O184 Co178 2.058 . S
O184 C210 1.269 . S
O185 Co177 2.074 1_554 S
O185 C210 1.257 . S
H186 C211 0.930 . S
H187 C217 0.930 . S
O188 Co177 2.093 . S
O188 C180 1.224 . S
H189 C221 0.929 . S
H190 C223 0.930 . S
H191 C224 0.930 . S
H192 C222 0.929 . S
H193 C225 0.928 . S
O194 Co178 2.057 . S
O194 C182 1.232 . S
H195 C214 0.929 . S
H196 C215 0.929 . S
H197 C227 0.931 . S
H198 C219 0.929 . S
H199 C228 0.930 . S
H200 C220 0.931 . S
O201 Co177 2.097 . S
O201 C229 1.214 1_556 S
H202 C230 0.929 . S
H203 C231 0.929 . S
H204 C232 0.930 . S
H205 C233 0.929 . S
H206 C235 0.930 . S
H207 C212 0.930 . S
H208 C216 0.930 . S
O209 Co178 2.037 . S
O209 C229 1.234 . S
C210 O184 1.269 . S
C210 O185 1.257 . S
C211 H186 0.930 . S
C211 C214 1.388 . S
C211 C216 1.418 . S
C212 H207 0.930 . S
C212 C215 1.404 . S
C212 C216 1.353 . S
N213 Co178 2.145 . S
N213 C214 1.397 . S
N213 C215 1.334 . S
C214 H195 0.929 . S
C214 C211 1.388 . S
C214 N213 1.397 . S
C215 H196 0.929 . S
C215 C212 1.404 . S
C215 N213 1.334 . S
C216 H208 0.930 . S
C216 C211 1.418 . S
C216 C212 1.353 . S
C217 H187 0.930 . S
C217 N218 1.330 . S
C217 C219 1.446 . S
N218 Co177 2.151 . S
N218 C217 1.330 . S
N218 C222 1.418 1_556 S
C219 H198 0.929 . S
C219 C217 1.446 . S
C219 C220 1.332 . S
C220 H200 0.931 . S
C220 C219 1.332 . S
C220 C221 1.267 1_556 S
C221 H189 0.929 . S
C221 C220 1.267 1_554 S
C221 C222 1.251 . S
C222 H192 0.929 . S
C222 N218 1.418 1_554 S
C222 C221 1.251 . S
C223 H190 0.930 . S
C223 C225 1.406 . S
C223 C228 1.261 1_556 S
C224 H191 0.930 . S
C224 N226 1.325 . S
C224 C227 1.357 . S
C225 H193 0.928 . S
C225 C223 1.406 . S
C225 N226 1.261 1_556 S
N226 Co177 2.214 1_554 S
N226 C224 1.325 . S
N226 C225 1.261 1_554 S
C227 H197 0.931 . S
C227 C224 1.357 . S
C227 C228 1.312 . S
C228 H199 0.930 . S
C228 C223 1.261 1_554 S
C228 C227 1.312 . S
C229 O201 1.214 1_554 S
C229 O209 1.234 . S
C230 H202 0.929 . S
C230 C233 1.391 . S
C230 C235 1.391 . S
C231 H203 0.929 . S
C231 C232 1.390 . S
C231 N234 1.391 . S
C232 H204 0.930 . S
C232 C231 1.390 . S
C232 C233 1.392 . S
C233 H205 0.929 . S
C233 C230 1.391 . S
C233 C232 1.392 . S
N234 Co178 2.257 1_556 S
N234 C231 1.391 . S
N234 C235 1.388 . S
C235 H206 0.930 . S
C235 C230 1.391 . S
C235 N234 1.388 . S
Co236 O238 2.143 . S
Co236 O244 2.074 1_554 S
Co236 O247 2.093 . S
Co236 O260 2.097 . S
Co236 N277 2.151 . S
Co236 N285 2.214 . S
Co237 O238 2.160 1_556 S
Co237 O243 2.058 . S
Co237 O253 2.057 . S
Co237 O268 2.037 . S
Co237 N272 2.145 . S
Co237 N293 2.257 1_556 S
O238 Co236 2.143 . S
O238 Co237 2.160 1_554 S
C239 O240 1.278 . S
C239 O247 1.224 . S
O240 C239 1.278 . S
C241 O242 1.245 1_556 S
C241 O253 1.232 . S
O242 C241 1.245 1_554 S
O243 Co237 2.058 . S
O243 C269 1.269 . S
O244 Co236 2.074 1_556 S
O244 C269 1.257 . S
H245 C270 0.930 . S
H246 C276 0.930 . S
O247 Co236 2.093 . S
O247 C239 1.224 . S
H248 C280 0.929 . S
H249 C282 0.930 . S
H250 C283 0.930 . S
H251 C281 0.929 . S
H252 C284 0.928 . S
O253 Co237 2.057 . S
O253 C241 1.232 . S
H254 C273 0.929 . S
H255 C274 0.929 . S
H256 C286 0.931 . S
H257 C278 0.929 . S
H258 C287 0.930 . S
H259 C279 0.931 . S
O260 Co236 2.097 . S
O260 C288 1.214 1_554 S
H261 C289 0.929 . S
H262 C290 0.929 . S
H263 C291 0.930 . S
H264 C292 0.929 . S
H265 C294 0.930 . S
H266 C271 0.930 . S
H267 C275 0.930 . S
O268 Co237 2.037 . S
O268 C288 1.234 . S
C269 O243 1.269 . S
C269 O244 1.257 . S
C270 H245 0.930 . S
C270 C273 1.388 . S
C270 C275 1.418 . S
C271 H266 0.930 . S
C271 C274 1.404 . S
C271 C275 1.353 . S
N272 Co237 2.145 . S
N272 C273 1.397 . S
N272 C274 1.334 . S
C273 H254 0.929 . S
C273 C270 1.388 . S
C273 N272 1.397 . S
C274 H255 0.929 . S
C274 C271 1.404 . S
C274 N272 1.334 . S
C275 H267 0.930 . S
C275 C270 1.418 . S
C275 C271 1.353 . S
C276 H246 0.930 . S
C276 N277 1.330 . S
C276 C278 1.446 . S
N277 Co236 2.151 . S
N277 C276 1.330 . S
N277 C281 1.418 1_554 S
C278 H257 0.929 . S
C278 C276 1.446 . S
C278 C279 1.332 . S
C279 H259 0.931 . S
C279 C278 1.332 . S
C279 C280 1.267 1_554 S
C280 H248 0.929 . S
C280 C279 1.267 1_556 S
C280 C281 1.251 . S
C281 H251 0.929 . S
C281 N277 1.418 1_556 S
C281 C280 1.251 . S
C282 H249 0.930 . S
C282 C284 1.406 . S
C282 C287 1.261 1_554 S
C283 H250 0.930 . S
C283 N285 1.325 1_556 S
C283 C286 1.357 . S
C284 H252 0.928 . S
C284 C282 1.406 . S
C284 N285 1.261 . S
N285 Co236 2.214 . S
N285 C283 1.325 1_554 S
N285 C284 1.261 . S
C286 H256 0.931 . S
C286 C283 1.357 . S
C286 C287 1.312 . S
C287 H258 0.930 . S
C287 C282 1.261 1_556 S
C287 C286 1.312 . S
C288 O260 1.214 1_556 S
C288 O268 1.234 . S
C289 H261 0.929 . S
C289 C292 1.391 . S
C289 C294 1.391 . S
C290 H262 0.929 . S
C290 C291 1.390 . S
C290 N293 1.391 . S
C291 H263 0.930 . S
C291 C290 1.390 . S
C291 C292 1.392 . S
C292 H264 0.929 . S
C292 C289 1.391 . S
C292 C291 1.392 . S
N293 Co237 2.257 1_554 S
N293 C290 1.391 . S
N293 C294 1.388 . S
C294 H265 0.930 . S
C294 C289 1.391 . S
C294 N293 1.388 . S
Co295 O297 2.143 . S
Co295 O303 2.074 1_554 S
Co295 O306 2.093 . S
Co295 O319 2.097 . S
Co295 N336 2.151 . S
Co295 N344 2.214 . S
Co296 O297 2.160 1_556 S
Co296 O302 2.058 . S
Co296 O312 2.057 . S
Co296 O327 2.037 . S
Co296 N331 2.145 . S
Co296 N352 2.257 1_556 S
O297 Co295 2.143 . S
O297 Co296 2.160 1_554 S
C298 O299 1.278 . S
C298 O306 1.224 . S
O299 C298 1.278 . S
C300 O301 1.245 1_556 S
C300 O312 1.232 . S
O301 C300 1.245 1_554 S
O302 Co296 2.058 . S
O302 C328 1.269 . S
O303 Co295 2.074 1_556 S
O303 C328 1.257 . S
H304 C329 0.930 . S
H305 C335 0.930 . S
O306 Co295 2.093 . S
O306 C298 1.224 . S
H307 C339 0.929 . S
H308 C341 0.930 . S
H309 C342 0.930 . S
H310 C340 0.929 . S
H311 C343 0.928 . S
O312 Co296 2.057 . S
O312 C300 1.232 . S
H313 C332 0.929 . S
H314 C333 0.929 . S
H315 C345 0.931 . S
H316 C337 0.929 . S
H317 C346 0.930 . S
H318 C338 0.931 . S
O319 Co295 2.097 . S
O319 C347 1.214 1_554 S
H320 C348 0.929 . S
H321 C349 0.929 . S
H322 C350 0.930 . S
H323 C351 0.929 . S
H324 C353 0.930 . S
H325 C330 0.930 . S
H326 C334 0.930 . S
O327 Co296 2.037 . S
O327 C347 1.234 . S
C328 O302 1.269 . S
C328 O303 1.257 . S
C329 H304 0.930 . S
C329 C332 1.388 . S
C329 C334 1.418 . S
C330 H325 0.930 . S
C330 C333 1.404 . S
C330 C334 1.353 . S
N331 Co296 2.145 . S
N331 C332 1.397 . S
N331 C333 1.334 . S
C332 H313 0.929 . S
C332 C329 1.388 . S
C332 N331 1.397 . S
C333 H314 0.929 . S
C333 C330 1.404 . S
C333 N331 1.334 . S
C334 H326 0.930 . S
C334 C329 1.418 . S
C334 C330 1.353 . S
C335 H305 0.930 . S
C335 N336 1.330 . S
C335 C337 1.446 . S
N336 Co295 2.151 . S
N336 C335 1.330 . S
N336 C340 1.418 1_554 S
C337 H316 0.929 . S
C337 C335 1.446 . S
C337 C338 1.332 . S
C338 H318 0.931 . S
C338 C337 1.332 . S
C338 C339 1.267 1_554 S
C339 H307 0.929 . S
C339 C338 1.267 1_556 S
C339 C340 1.251 . S
C340 H310 0.929 . S
C340 N336 1.418 1_556 S
C340 C339 1.251 . S
C341 H308 0.930 . S
C341 C343 1.406 . S
C341 C346 1.261 1_554 S
C342 H309 0.930 . S
C342 N344 1.325 1_556 S
C342 C345 1.357 . S
C343 H311 0.928 . S
C343 C341 1.406 . S
C343 N344 1.261 . S
N344 Co295 2.214 . S
N344 C342 1.325 1_554 S
N344 C343 1.261 . S
C345 H315 0.931 . S
C345 C342 1.357 . S
C345 C346 1.312 . S
C346 H317 0.930 . S
C346 C341 1.261 1_556 S
C346 C345 1.312 . S
C347 O319 1.214 1_556 S
C347 O327 1.234 . S
C348 H320 0.929 . S
C348 C351 1.391 . S
C348 C353 1.391 . S
C349 H321 0.929 . S
C349 C350 1.390 . S
C349 N352 1.391 . S
C350 H322 0.930 . S
C350 C349 1.390 . S
C350 C351 1.392 . S
C351 H323 0.929 . S
C351 C348 1.391 . S
C351 C350 1.392 . S
N352 Co296 2.257 1_554 S
N352 C349 1.391 . S
N352 C353 1.388 . S
C353 H324 0.930 . S
C353 C348 1.391 . S
C353 N352 1.388 . S
Co354 O356 2.143 . S
Co354 O362 2.074 1_554 S
Co354 O365 2.093 . S
Co354 O378 2.097 . S
Co354 N395 2.151 . S
Co354 N403 2.214 . S
Co355 O356 2.160 1_556 S
Co355 O361 2.058 . S
Co355 O371 2.057 . S
Co355 O386 2.037 . S
Co355 N390 2.145 . S
Co355 N411 2.257 1_556 S
O356 Co354 2.143 . S
O356 Co355 2.160 1_554 S
C357 O358 1.278 . S
C357 O365 1.224 . S
O358 C357 1.278 . S
C359 O360 1.245 1_556 S
C359 O371 1.232 . S
O360 C359 1.245 1_554 S
O361 Co355 2.058 . S
O361 C387 1.269 . S
O362 Co354 2.074 1_556 S
O362 C387 1.257 . S
H363 C388 0.930 . S
H364 C394 0.930 . S
O365 Co354 2.093 . S
O365 C357 1.224 . S
H366 C398 0.929 . S
H367 C400 0.930 . S
H368 C401 0.930 . S
H369 C399 0.929 . S
H370 C402 0.928 . S
O371 Co355 2.057 . S
O371 C359 1.232 . S
H372 C391 0.929 . S
H373 C392 0.929 . S
H374 C404 0.931 . S
H375 C396 0.929 . S
H376 C405 0.930 . S
H377 C397 0.931 . S
O378 Co354 2.097 . S
O378 C406 1.214 1_554 S
H379 C407 0.929 . S
H380 C408 0.929 . S
H381 C409 0.930 . S
H382 C410 0.929 . S
H383 C412 0.930 . S
H384 C389 0.930 . S
H385 C393 0.930 . S
O386 Co355 2.037 . S
O386 C406 1.234 . S
C387 O361 1.269 . S
C387 O362 1.257 . S
C388 H363 0.930 . S
C388 C391 1.388 . S
C388 C393 1.418 . S
C389 H384 0.930 . S
C389 C392 1.404 . S
C389 C393 1.353 . S
N390 Co355 2.145 . S
N390 C391 1.397 . S
N390 C392 1.334 . S
C391 H372 0.929 . S
C391 C388 1.388 . S
C391 N390 1.397 . S
C392 H373 0.929 . S
C392 C389 1.404 . S
C392 N390 1.334 . S
C393 H385 0.930 . S
C393 C388 1.418 . S
C393 C389 1.353 . S
C394 H364 0.930 . S
C394 N395 1.330 . S
C394 C396 1.446 . S
N395 Co354 2.151 . S
N395 C394 1.330 . S
N395 C399 1.418 1_554 S
C396 H375 0.929 . S
C396 C394 1.446 . S
C396 C397 1.332 . S
C397 H377 0.931 . S
C397 C396 1.332 . S
C397 C398 1.267 1_554 S
C398 H366 0.929 . S
C398 C397 1.267 1_556 S
C398 C399 1.251 . S
C399 H369 0.929 . S
C399 N395 1.418 1_556 S
C399 C398 1.251 . S
C400 H367 0.930 . S
C400 C402 1.406 . S
C400 C405 1.261 1_554 S
C401 H368 0.930 . S
C401 N403 1.325 1_556 S
C401 C404 1.357 . S
C402 H370 0.928 . S
C402 C400 1.406 . S
C402 N403 1.261 . S
N403 Co354 2.214 . S
N403 C401 1.325 1_554 S
N403 C402 1.261 . S
C404 H374 0.931 . S
C404 C401 1.357 . S
C404 C405 1.312 . S
C405 H376 0.930 . S
C405 C400 1.261 1_556 S
C405 C404 1.312 . S
C406 O378 1.214 1_556 S
C406 O386 1.234 . S
C407 H379 0.929 . S
C407 C410 1.391 . S
C407 C412 1.391 . S
C408 H380 0.929 . S
C408 C409 1.390 . S
C408 N411 1.391 . S
C409 H381 0.930 . S
C409 C408 1.390 . S
C409 C410 1.392 . S
C410 H382 0.929 . S
C410 C407 1.391 . S
C410 C409 1.392 . S
N411 Co355 2.257 1_554 S
N411 C408 1.391 . S
N411 C412 1.388 . S
C412 H383 0.930 . S
C412 C407 1.391 . S
C412 N411 1.388 . S
Co413 O415 2.143 . S
Co413 O421 2.074 1_554 S
Co413 O424 2.093 . S
Co413 O437 2.097 . S
Co413 N454 2.151 . S
Co413 N462 2.214 . S
Co414 O415 2.160 1_556 S
Co414 O420 2.058 . S
Co414 O430 2.057 . S
Co414 O445 2.037 . S
Co414 N449 2.145 . S
Co414 N470 2.257 1_556 S
O415 Co413 2.143 . S
O415 Co414 2.160 1_554 S
C416 O417 1.278 . S
C416 O424 1.224 . S
O417 C416 1.278 . S
C418 O419 1.245 1_556 S
C418 O430 1.232 . S
O419 C418 1.245 1_554 S
O420 Co414 2.058 . S
O420 C446 1.269 . S
O421 Co413 2.074 1_556 S
O421 C446 1.257 . S
H422 C447 0.930 . S
H423 C453 0.930 . S
O424 Co413 2.093 . S
O424 C416 1.224 . S
H425 C457 0.929 . S
H426 C459 0.930 . S
H427 C460 0.930 . S
H428 C458 0.929 . S
H429 C461 0.928 . S
O430 Co414 2.057 . S
O430 C418 1.232 . S
H431 C450 0.929 . S
H432 C451 0.929 . S
H433 C463 0.931 . S
H434 C455 0.929 . S
H435 C464 0.930 . S
H436 C456 0.931 . S
O437 Co413 2.097 . S
O437 C465 1.214 1_554 S
H438 C466 0.929 . S
H439 C467 0.929 . S
H440 C468 0.930 . S
H441 C469 0.929 . S
H442 C471 0.930 . S
H443 C448 0.930 . S
H444 C452 0.930 . S
O445 Co414 2.037 . S
O445 C465 1.234 . S
C446 O420 1.269 . S
C446 O421 1.257 . S
C447 H422 0.930 . S
C447 C450 1.388 . S
C447 C452 1.418 . S
C448 H443 0.930 . S
C448 C451 1.404 . S
C448 C452 1.353 . S
N449 Co414 2.145 . S
N449 C450 1.397 . S
N449 C451 1.334 . S
C450 H431 0.929 . S
C450 C447 1.388 . S
C450 N449 1.397 . S
C451 H432 0.929 . S
C451 C448 1.404 . S
C451 N449 1.334 . S
C452 H444 0.930 . S
C452 C447 1.418 . S
C452 C448 1.353 . S
C453 H423 0.930 . S
C453 N454 1.330 . S
C453 C455 1.446 . S
N454 Co413 2.151 . S
N454 C453 1.330 . S
N454 C458 1.418 1_554 S
C455 H434 0.929 . S
C455 C453 1.446 . S
C455 C456 1.332 . S
C456 H436 0.931 . S
C456 C455 1.332 . S
C456 C457 1.267 1_554 S
C457 H425 0.929 . S
C457 C456 1.267 1_556 S
C457 C458 1.251 . S
C458 H428 0.929 . S
C458 N454 1.418 1_556 S
C458 C457 1.251 . S
C459 H426 0.930 . S
C459 C461 1.406 . S
C459 C464 1.261 1_554 S
C460 H427 0.930 . S
C460 N462 1.325 1_556 S
C460 C463 1.357 . S
C461 H429 0.928 . S
C461 C459 1.406 . S
C461 N462 1.261 . S
N462 Co413 2.214 . S
N462 C460 1.325 1_554 S
N462 C461 1.261 . S
C463 H433 0.931 . S
C463 C460 1.357 . S
C463 C464 1.312 . S
C464 H435 0.930 . S
C464 C459 1.261 1_556 S
C464 C463 1.312 . S
C465 O437 1.214 1_556 S
C465 O445 1.234 . S
C466 H438 0.929 . S
C466 C469 1.391 . S
C466 C471 1.391 . S
C467 H439 0.929 . S
C467 C468 1.390 . S
C467 N470 1.391 . S
C468 H440 0.930 . S
C468 C467 1.390 . S
C468 C469 1.392 . S
C469 H441 0.929 . S
C469 C466 1.391 . S
C469 C468 1.392 . S
N470 Co414 2.257 1_554 S
N470 C467 1.391 . S
N470 C471 1.388 . S
C471 H442 0.930 . S
C471 C466 1.391 . S
C471 N470 1.388 . S
Co472 O474 2.143 . S
Co472 O480 2.074 . S
Co472 O483 2.093 . S
Co472 O496 2.097 . S
Co472 N513 2.151 . S
Co472 N521 2.214 . S
Co473 O474 2.160 . S
Co473 O479 2.058 . S
Co473 O489 2.057 . S
Co473 O504 2.037 . S
Co473 N508 2.145 . S
Co473 N529 2.257 . S
O474 Co472 2.143 . S
O474 Co473 2.160 . S
C475 O476 1.278 . S
C475 O483 1.224 . S
O476 C475 1.278 . S
C477 O478 1.245 . S
C477 O489 1.232 . S
O478 C477 1.245 . S
O479 Co473 2.058 . S
O479 C505 1.269 . S
O480 Co472 2.074 . S
O480 C505 1.257 . S
H481 C506 0.930 . S
H482 C512 0.930 . S
O483 Co472 2.093 . S
O483 C475 1.224 . S
H484 C516 0.929 . S
H485 C518 0.930 . S
H486 C519 0.930 . S
H487 C517 0.929 . S
H488 C520 0.928 . S
O489 Co473 2.057 . S
O489 C477 1.232 . S
H490 C509 0.929 . S
H491 C510 0.929 . S
H492 C522 0.931 . S
H493 C514 0.929 . S
H494 C523 0.930 . S
H495 C515 0.931 . S
O496 Co472 2.097 . S
O496 C524 1.214 . S
H497 C525 0.929 . S
H498 C526 0.929 . S
H499 C527 0.930 . S
H500 C528 0.929 . S
H501 C530 0.930 . S
H502 C507 0.930 . S
H503 C511 0.930 . S
O504 Co473 2.037 . S
O504 C524 1.234 . S
C505 O479 1.269 . S
C505 O480 1.257 . S
C506 H481 0.930 . S
C506 C509 1.388 . S
C506 C511 1.418 . S
C507 H502 0.930 . S
C507 C510 1.404 . S
C507 C511 1.353 . S
N508 Co473 2.145 . S
N508 C509 1.397 . S
N508 C510 1.334 . S
C509 H490 0.929 . S
C509 C506 1.388 . S
C509 N508 1.397 . S
C510 H491 0.929 . S
C510 C507 1.404 . S
C510 N508 1.334 . S
C511 H503 0.930 . S
C511 C506 1.418 . S
C511 C507 1.353 . S
C512 H482 0.930 . S
C512 N513 1.330 . S
C512 C514 1.446 . S
N513 Co472 2.151 . S
N513 C512 1.330 . S
N513 C517 1.418 . S
C514 H493 0.929 . S
C514 C512 1.446 . S
C514 C515 1.332 . S
C515 H495 0.931 . S
C515 C514 1.332 . S
C515 C516 1.267 . S
C516 H484 0.929 . S
C516 C515 1.267 . S
C516 C517 1.251 . S
C517 H487 0.929 . S
C517 N513 1.418 . S
C517 C516 1.251 . S
C518 H485 0.930 . S
C518 C520 1.406 . S
C518 C523 1.261 . S
C519 H486 0.930 . S
C519 N521 1.325 . S
C519 C522 1.357 . S
C520 H488 0.928 . S
C520 C518 1.406 . S
C520 N521 1.261 . S
N521 Co472 2.214 . S
N521 C519 1.325 . S
N521 C520 1.261 . S
C522 H492 0.931 . S
C522 C519 1.357 . S
C522 C523 1.312 . S
C523 H494 0.930 . S
C523 C518 1.261 . S
C523 C522 1.312 . S
C524 O496 1.214 . S
C524 O504 1.234 . S
C525 H497 0.929 . S
C525 C528 1.391 . S
C525 C530 1.391 . S
C526 H498 0.929 . S
C526 C527 1.390 . S
C526 N529 1.391 . S
C527 H499 0.930 . S
C527 C526 1.390 . S
C527 C528 1.392 . S
C528 H500 0.929 . S
C528 C525 1.391 . S
C528 C527 1.392 . S
N529 Co473 2.257 . S
N529 C526 1.391 . S
N529 C530 1.388 . S
C530 H501 0.930 . S
C530 C525 1.391 . S
C530 N529 1.388 . S
Co531 O533 2.143 . S
Co531 O539 2.074 . S
Co531 O542 2.093 . S
Co531 O555 2.097 . S
Co531 N572 2.151 . S
Co531 N580 2.214 . S
Co532 O533 2.160 . S
Co532 O538 2.058 . S
Co532 O548 2.057 . S
Co532 O563 2.037 . S
Co532 N567 2.145 . S
Co532 N588 2.257 . S
O533 Co531 2.143 . S
O533 Co532 2.160 . S
C534 O535 1.278 . S
C534 O542 1.224 . S
O535 C534 1.278 . S
C536 O537 1.245 . S
C536 O548 1.232 . S
O537 C536 1.245 . S
O538 Co532 2.058 . S
O538 C564 1.269 . S
O539 Co531 2.074 . S
O539 C564 1.257 . S
H540 C565 0.930 . S
H541 C571 0.930 . S
O542 Co531 2.093 . S
O542 C534 1.224 . S
H543 C575 0.929 . S
H544 C577 0.930 . S
H545 C578 0.930 . S
H546 C576 0.929 . S
H547 C579 0.928 . S
O548 Co532 2.057 . S
O548 C536 1.232 . S
H549 C568 0.929 . S
H550 C569 0.929 . S
H551 C581 0.931 . S
H552 C573 0.929 . S
H553 C582 0.930 . S
H554 C574 0.931 . S
O555 Co531 2.097 . S
O555 C583 1.214 . S
H556 C584 0.929 . S
H557 C585 0.929 . S
H558 C586 0.930 . S
H559 C587 0.929 . S
H560 C589 0.930 . S
H561 C566 0.930 . S
H562 C570 0.930 . S
O563 Co532 2.037 . S
O563 C583 1.234 . S
C564 O538 1.269 . S
C564 O539 1.257 . S
C565 H540 0.930 . S
C565 C568 1.388 . S
C565 C570 1.418 . S
C566 H561 0.930 . S
C566 C569 1.404 . S
C566 C570 1.353 . S
N567 Co532 2.145 . S
N567 C568 1.397 . S
N567 C569 1.334 . S
C568 H549 0.929 . S
C568 C565 1.388 . S
C568 N567 1.397 . S
C569 H550 0.929 . S
C569 C566 1.404 . S
C569 N567 1.334 . S
C570 H562 0.930 . S
C570 C565 1.418 . S
C570 C566 1.353 . S
C571 H541 0.930 . S
C571 N572 1.330 . S
C571 C573 1.446 . S
N572 Co531 2.151 . S
N572 C571 1.330 . S
N572 C576 1.418 . S
C573 H552 0.929 . S
C573 C571 1.446 . S
C573 C574 1.332 . S
C574 H554 0.931 . S
C574 C573 1.332 . S
C574 C575 1.267 . S
C575 H543 0.929 . S
C575 C574 1.267 . S
C575 C576 1.251 . S
C576 H546 0.929 . S
C576 N572 1.418 . S
C576 C575 1.251 . S
C577 H544 0.930 . S
C577 C579 1.406 . S
C577 C582 1.261 . S
C578 H545 0.930 . S
C578 N580 1.325 . S
C578 C581 1.357 . S
C579 H547 0.928 . S
C579 C577 1.406 . S
C579 N580 1.261 . S
N580 Co531 2.214 . S
N580 C578 1.325 . S
N580 C579 1.261 . S
C581 H551 0.931 . S
C581 C578 1.357 . S
C581 C582 1.312 . S
C582 H553 0.930 . S
C582 C577 1.261 . S
C582 C581 1.312 . S
C583 O555 1.214 . S
C583 O563 1.234 . S
C584 H556 0.929 . S
C584 C587 1.391 . S
C584 C589 1.391 . S
C585 H557 0.929 . S
C585 C586 1.390 . S
C585 N588 1.391 . S
C586 H558 0.930 . S
C586 C585 1.390 . S
C586 C587 1.392 . S
C587 H559 0.929 . S
C587 C584 1.391 . S
C587 C586 1.392 . S
N588 Co532 2.257 . S
N588 C585 1.391 . S
N588 C589 1.388 . S
C589 H560 0.930 . S
C589 C584 1.391 . S
C589 N588 1.388 . S
Co590 O592 2.143 . S
Co590 O598 2.074 . S
Co590 O601 2.093 . S
Co590 O614 2.097 . S
Co590 N631 2.151 . S
Co590 N639 2.214 . S
Co591 O592 2.160 . S
Co591 O597 2.058 . S
Co591 O607 2.057 . S
Co591 O622 2.037 . S
Co591 N626 2.145 . S
Co591 N647 2.257 . S
O592 Co590 2.143 . S
O592 Co591 2.160 . S
C593 O594 1.278 . S
C593 O601 1.224 . S
O594 C593 1.278 . S
C595 O596 1.245 . S
C595 O607 1.232 . S
O596 C595 1.245 . S
O597 Co591 2.058 . S
O597 C623 1.269 . S
O598 Co590 2.074 . S
O598 C623 1.257 . S
H599 C624 0.930 . S
H600 C630 0.930 . S
O601 Co590 2.093 . S
O601 C593 1.224 . S
H602 C634 0.929 . S
H603 C636 0.930 . S
H604 C637 0.930 . S
H605 C635 0.929 . S
H606 C638 0.928 . S
O607 Co591 2.057 . S
O607 C595 1.232 . S
H608 C627 0.929 . S
H609 C628 0.929 . S
H610 C640 0.931 . S
H611 C632 0.929 . S
H612 C641 0.930 . S
H613 C633 0.931 . S
O614 Co590 2.097 . S
O614 C642 1.214 . S
H615 C643 0.929 . S
H616 C644 0.929 . S
H617 C645 0.930 . S
H618 C646 0.929 . S
H619 C648 0.930 . S
H620 C625 0.930 . S
H621 C629 0.930 . S
O622 Co591 2.037 . S
O622 C642 1.234 . S
C623 O597 1.269 . S
C623 O598 1.257 . S
C624 H599 0.930 . S
C624 C627 1.388 . S
C624 C629 1.418 . S
C625 H620 0.930 . S
C625 C628 1.404 . S
C625 C629 1.353 . S
N626 Co591 2.145 . S
N626 C627 1.397 . S
N626 C628 1.334 . S
C627 H608 0.929 . S
C627 C624 1.388 . S
C627 N626 1.397 . S
C628 H609 0.929 . S
C628 C625 1.404 . S
C628 N626 1.334 . S
C629 H621 0.930 . S
C629 C624 1.418 . S
C629 C625 1.353 . S
C630 H600 0.930 . S
C630 N631 1.330 . S
C630 C632 1.446 . S
N631 Co590 2.151 . S
N631 C630 1.330 . S
N631 C635 1.418 . S
C632 H611 0.929 . S
C632 C630 1.446 . S
C632 C633 1.332 . S
C633 H613 0.931 . S
C633 C632 1.332 . S
C633 C634 1.267 . S
C634 H602 0.929 . S
C634 C633 1.267 . S
C634 C635 1.251 . S
C635 H605 0.929 . S
C635 N631 1.418 . S
C635 C634 1.251 . S
C636 H603 0.930 . S
C636 C638 1.406 . S
C636 C641 1.261 . S
C637 H604 0.930 . S
C637 N639 1.325 . S
C637 C640 1.357 . S
C638 H606 0.928 . S
C638 C636 1.406 . S
C638 N639 1.261 . S
N639 Co590 2.214 . S
N639 C637 1.325 . S
N639 C638 1.261 . S
C640 H610 0.931 . S
C640 C637 1.357 . S
C640 C641 1.312 . S
C641 H612 0.930 . S
C641 C636 1.261 . S
C641 C640 1.312 . S
C642 O614 1.214 . S
C642 O622 1.234 . S
C643 H615 0.929 . S
C643 C646 1.391 . S
C643 C648 1.391 . S
C644 H616 0.929 . S
C644 C645 1.390 . S
C644 N647 1.391 . S
C645 H617 0.930 . S
C645 C644 1.390 . S
C645 C646 1.392 . S
C646 H618 0.929 . S
C646 C643 1.391 . S
C646 C645 1.392 . S
N647 Co591 2.257 . S
N647 C644 1.391 . S
N647 C648 1.388 . S
C648 H619 0.930 . S
C648 C643 1.391 . S
C648 N647 1.388 . S
Co649 O651 2.143 . S
Co649 O657 2.074 . S
Co649 O660 2.093 . S
Co649 O673 2.097 . S
Co649 N690 2.151 . S
Co649 N698 2.214 . S
Co650 O651 2.160 . S
Co650 O656 2.058 . S
Co650 O666 2.057 . S
Co650 O681 2.037 . S
Co650 N685 2.145 . S
Co650 N706 2.257 . S
O651 Co649 2.143 . S
O651 Co650 2.160 . S
C652 O653 1.278 . S
C652 O660 1.224 . S
O653 C652 1.278 . S
C654 O655 1.245 . S
C654 O666 1.232 . S
O655 C654 1.245 . S
O656 Co650 2.058 . S
O656 C682 1.269 . S
O657 Co649 2.074 . S
O657 C682 1.257 . S
H658 C683 0.930 . S
H659 C689 0.930 . S
O660 Co649 2.093 . S
O660 C652 1.224 . S
H661 C693 0.929 . S
H662 C695 0.930 . S
H663 C696 0.930 . S
H664 C694 0.929 . S
H665 C697 0.928 . S
O666 Co650 2.057 . S
O666 C654 1.232 . S
H667 C686 0.929 . S
H668 C687 0.929 . S
H669 C699 0.931 . S
H670 C691 0.929 . S
H671 C700 0.930 . S
H672 C692 0.931 . S
O673 Co649 2.097 . S
O673 C701 1.214 . S
H674 C702 0.929 . S
H675 C703 0.929 . S
H676 C704 0.930 . S
H677 C705 0.929 . S
H678 C707 0.930 . S
H679 C684 0.930 . S
H680 C688 0.930 . S
O681 Co650 2.037 . S
O681 C701 1.234 . S
C682 O656 1.269 . S
C682 O657 1.257 . S
C683 H658 0.930 . S
C683 C686 1.388 . S
C683 C688 1.418 . S
C684 H679 0.930 . S
C684 C687 1.404 . S
C684 C688 1.353 . S
N685 Co650 2.145 . S
N685 C686 1.397 . S
N685 C687 1.334 . S
C686 H667 0.929 . S
C686 C683 1.388 . S
C686 N685 1.397 . S
C687 H668 0.929 . S
C687 C684 1.404 . S
C687 N685 1.334 . S
C688 H680 0.930 . S
C688 C683 1.418 . S
C688 C684 1.353 . S
C689 H659 0.930 . S
C689 N690 1.330 . S
C689 C691 1.446 . S
N690 Co649 2.151 . S
N690 C689 1.330 . S
N690 C694 1.418 . S
C691 H670 0.929 . S
C691 C689 1.446 . S
C691 C692 1.332 . S
C692 H672 0.931 . S
C692 C691 1.332 . S
C692 C693 1.267 . S
C693 H661 0.929 . S
C693 C692 1.267 . S
C693 C694 1.251 . S
C694 H664 0.929 . S
C694 N690 1.418 . S
C694 C693 1.251 . S
C695 H662 0.930 . S
C695 C697 1.406 . S
C695 C700 1.261 . S
C696 H663 0.930 . S
C696 N698 1.325 . S
C696 C699 1.357 . S
C697 H665 0.928 . S
C697 C695 1.406 . S
C697 N698 1.261 . S
N698 Co649 2.214 . S
N698 C696 1.325 . S
N698 C697 1.261 . S
C699 H669 0.931 . S
C699 C696 1.357 . S
C699 C700 1.312 . S
C700 H671 0.930 . S
C700 C695 1.261 . S
C700 C699 1.312 . S
C701 O673 1.214 . S
C701 O681 1.234 . S
C702 H674 0.929 . S
C702 C705 1.391 . S
C702 C707 1.391 . S
C703 H675 0.929 . S
C703 C704 1.390 . S
C703 N706 1.391 . S
C704 H676 0.930 . S
C704 C703 1.390 . S
C704 C705 1.392 . S
C705 H677 0.929 . S
C705 C702 1.391 . S
C705 C704 1.392 . S
N706 Co650 2.257 . S
N706 C703 1.391 . S
N706 C707 1.388 . S
C707 H678 0.930 . S
C707 C702 1.391 . S
C707 N706 1.388 . S
Co708 O710 2.143 . S
Co708 O716 2.074 . S
Co708 O719 2.093 . S
Co708 O732 2.097 . S
Co708 N749 2.151 . S
Co708 N757 2.214 . S
Co709 O710 2.160 . S
Co709 O715 2.058 . S
Co709 O725 2.057 . S
Co709 O740 2.037 . S
Co709 N744 2.145 . S
Co709 N765 2.257 . S
O710 Co708 2.143 . S
O710 Co709 2.160 . S
C711 O712 1.278 . S
C711 O719 1.224 . S
O712 C711 1.278 . S
C713 O714 1.245 . S
C713 O725 1.232 . S
O714 C713 1.245 . S
O715 Co709 2.058 . S
O715 C741 1.269 . S
O716 Co708 2.074 . S
O716 C741 1.257 . S
H717 C742 0.930 . S
H718 C748 0.930 . S
O719 Co708 2.093 . S
O719 C711 1.224 . S
H720 C752 0.929 . S
H721 C754 0.930 . S
H722 C755 0.930 . S
H723 C753 0.929 . S
H724 C756 0.928 . S
O725 Co709 2.057 . S
O725 C713 1.232 . S
H726 C745 0.929 . S
H727 C746 0.929 . S
H728 C758 0.931 . S
H729 C750 0.929 . S
H730 C759 0.930 . S
H731 C751 0.931 . S
O732 Co708 2.097 . S
O732 C760 1.214 . S
H733 C761 0.929 . S
H734 C762 0.929 . S
H735 C763 0.930 . S
H736 C764 0.929 . S
H737 C766 0.930 . S
H738 C743 0.930 . S
H739 C747 0.930 . S
O740 Co709 2.037 . S
O740 C760 1.234 . S
C741 O715 1.269 . S
C741 O716 1.257 . S
C742 H717 0.930 . S
C742 C745 1.388 . S
C742 C747 1.418 . S
C743 H738 0.930 . S
C743 C746 1.404 . S
C743 C747 1.353 . S
N744 Co709 2.145 . S
N744 C745 1.397 . S
N744 C746 1.334 . S
C745 H726 0.929 . S
C745 C742 1.388 . S
C745 N744 1.397 . S
C746 H727 0.929 . S
C746 C743 1.404 . S
C746 N744 1.334 . S
C747 H739 0.930 . S
C747 C742 1.418 . S
C747 C743 1.353 . S
C748 H718 0.930 . S
C748 N749 1.330 . S
C748 C750 1.446 . S
N749 Co708 2.151 . S
N749 C748 1.330 . S
N749 C753 1.418 . S
C750 H729 0.929 . S
C750 C748 1.446 . S
C750 C751 1.332 . S
C751 H731 0.931 . S
C751 C750 1.332 . S
C751 C752 1.267 . S
C752 H720 0.929 . S
C752 C751 1.267 . S
C752 C753 1.251 . S
C753 H723 0.929 . S
C753 N749 1.418 . S
C753 C752 1.251 . S
C754 H721 0.930 . S
C754 C756 1.406 . S
C754 C759 1.261 . S
C755 H722 0.930 . S
C755 N757 1.325 . S
C755 C758 1.357 . S
C756 H724 0.928 . S
C756 C754 1.406 . S
C756 N757 1.261 . S
N757 Co708 2.214 . S
N757 C755 1.325 . S
N757 C756 1.261 . S
C758 H728 0.931 . S
C758 C755 1.357 . S
C758 C759 1.312 . S
C759 H730 0.930 . S
C759 C754 1.261 . S
C759 C758 1.312 . S
C760 O732 1.214 . S
C760 O740 1.234 . S
C761 H733 0.929 . S
C761 C764 1.391 . S
C761 C766 1.391 . S
C762 H734 0.929 . S
C762 C763 1.390 . S
C762 N765 1.391 . S
C763 H735 0.930 . S
C763 C762 1.390 . S
C763 C764 1.392 . S
C764 H736 0.929 . S
C764 C761 1.391 . S
C764 C763 1.392 . S
N765 Co709 2.257 . S
N765 C762 1.391 . S
N765 C766 1.388 . S
C766 H737 0.930 . S
C766 C761 1.391 . S
C766 N765 1.388 . S
Co767 O769 2.143 . S
Co767 O775 2.074 . S
Co767 O778 2.093 . S
Co767 O791 2.097 . S
Co767 N808 2.151 . S
Co767 N816 2.214 . S
Co768 O769 2.160 . S
Co768 O774 2.058 . S
Co768 O784 2.057 . S
Co768 O799 2.037 . S
Co768 N803 2.145 . S
Co768 N824 2.257 . S
O769 Co767 2.143 . S
O769 Co768 2.160 . S
C770 O771 1.278 . S
C770 O778 1.224 . S
O771 C770 1.278 . S
C772 O773 1.245 . S
C772 O784 1.232 . S
O773 C772 1.245 . S
O774 Co768 2.058 . S
O774 C800 1.269 . S
O775 Co767 2.074 . S
O775 C800 1.257 . S
H776 C801 0.930 . S
H777 C807 0.930 . S
O778 Co767 2.093 . S
O778 C770 1.224 . S
H779 C811 0.929 . S
H780 C813 0.930 . S
H781 C814 0.930 . S
H782 C812 0.929 . S
H783 C815 0.928 . S
O784 Co768 2.057 . S
O784 C772 1.232 . S
H785 C804 0.929 . S
H786 C805 0.929 . S
H787 C817 0.931 . S
H788 C809 0.929 . S
H789 C818 0.930 . S
H790 C810 0.931 . S
O791 Co767 2.097 . S
O791 C819 1.214 . S
H792 C820 0.929 . S
H793 C821 0.929 . S
H794 C822 0.930 . S
H795 C823 0.929 . S
H796 C825 0.930 . S
H797 C802 0.930 . S
H798 C806 0.930 . S
O799 Co768 2.037 . S
O799 C819 1.234 . S
C800 O774 1.269 . S
C800 O775 1.257 . S
C801 H776 0.930 . S
C801 C804 1.388 . S
C801 C806 1.418 . S
C802 H797 0.930 . S
C802 C805 1.404 . S
C802 C806 1.353 . S
N803 Co768 2.145 . S
N803 C804 1.397 . S
N803 C805 1.334 . S
C804 H785 0.929 . S
C804 C801 1.388 . S
C804 N803 1.397 . S
C805 H786 0.929 . S
C805 C802 1.404 . S
C805 N803 1.334 . S
C806 H798 0.930 . S
C806 C801 1.418 . S
C806 C802 1.353 . S
C807 H777 0.930 . S
C807 N808 1.330 . S
C807 C809 1.446 . S
N808 Co767 2.151 . S
N808 C807 1.330 . S
N808 C812 1.418 . S
C809 H788 0.929 . S
C809 C807 1.446 . S
C809 C810 1.332 . S
C810 H790 0.931 . S
C810 C809 1.332 . S
C810 C811 1.267 . S
C811 H779 0.929 . S
C811 C810 1.267 . S
C811 C812 1.251 . S
C812 H782 0.929 . S
C812 N808 1.418 . S
C812 C811 1.251 . S
C813 H780 0.930 . S
C813 C815 1.406 . S
C813 C818 1.261 . S
C814 H781 0.930 . S
C814 N816 1.325 . S
C814 C817 1.357 . S
C815 H783 0.928 . S
C815 C813 1.406 . S
C815 N816 1.261 . S
N816 Co767 2.214 . S
N816 C814 1.325 . S
N816 C815 1.261 . S
C817 H787 0.931 . S
C817 C814 1.357 . S
C817 C818 1.312 . S
C818 H789 0.930 . S
C818 C813 1.261 . S
C818 C817 1.312 . S
C819 O791 1.214 . S
C819 O799 1.234 . S
C820 H792 0.929 . S
C820 C823 1.391 . S
C820 C825 1.391 . S
C821 H793 0.929 . S
C821 C822 1.390 . S
C821 N824 1.391 . S
C822 H794 0.930 . S
C822 C821 1.390 . S
C822 C823 1.392 . S
C823 H795 0.929 . S
C823 C820 1.391 . S
C823 C822 1.392 . S
N824 Co768 2.257 . S
N824 C821 1.391 . S
N824 C825 1.388 . S
C825 H796 0.930 . S
C825 C820 1.391 . S
C825 N824 1.388 . S
Co826 O828 2.143 . S
Co826 O834 2.074 . S
Co826 O837 2.093 . S
Co826 O850 2.097 . S
Co826 N867 2.151 . S
Co826 N875 2.214 . S
Co827 O828 2.160 . S
Co827 O833 2.058 . S
Co827 O843 2.057 . S
Co827 O858 2.037 . S
Co827 N862 2.145 . S
Co827 N883 2.257 . S
O828 Co826 2.143 . S
O828 Co827 2.160 . S
C829 O830 1.278 . S
C829 O837 1.224 . S
O830 C829 1.278 . S
C831 O832 1.245 . S
C831 O843 1.232 . S
O832 C831 1.245 . S
O833 Co827 2.058 . S
O833 C859 1.269 . S
O834 Co826 2.074 . S
O834 C859 1.257 . S
H835 C860 0.930 . S
H836 C866 0.930 . S
O837 Co826 2.093 . S
O837 C829 1.224 . S
H838 C870 0.929 . S
H839 C872 0.930 . S
H840 C873 0.930 . S
H841 C871 0.929 . S
H842 C874 0.928 . S
O843 Co827 2.057 . S
O843 C831 1.232 . S
H844 C863 0.929 . S
H845 C864 0.929 . S
H846 C876 0.931 . S
H847 C868 0.929 . S
H848 C877 0.930 . S
H849 C869 0.931 . S
O850 Co826 2.097 . S
O850 C878 1.214 . S
H851 C879 0.929 . S
H852 C880 0.929 . S
H853 C881 0.930 . S
H854 C882 0.929 . S
H855 C884 0.930 . S
H856 C861 0.930 . S
H857 C865 0.930 . S
O858 Co827 2.037 . S
O858 C878 1.234 . S
C859 O833 1.269 . S
C859 O834 1.257 . S
C860 H835 0.930 . S
C860 C863 1.388 . S
C860 C865 1.418 . S
C861 H856 0.930 . S
C861 C864 1.404 . S
C861 C865 1.353 . S
N862 Co827 2.145 . S
N862 C863 1.397 . S
N862 C864 1.334 . S
C863 H844 0.929 . S
C863 C860 1.388 . S
C863 N862 1.397 . S
C864 H845 0.929 . S
C864 C861 1.404 . S
C864 N862 1.334 . S
C865 H857 0.930 . S
C865 C860 1.418 . S
C865 C861 1.353 . S
C866 H836 0.930 . S
C866 N867 1.330 . S
C866 C868 1.446 . S
N867 Co826 2.151 . S
N867 C866 1.330 . S
N867 C871 1.418 . S
C868 H847 0.929 . S
C868 C866 1.446 . S
C868 C869 1.332 . S
C869 H849 0.931 . S
C869 C868 1.332 . S
C869 C870 1.267 . S
C870 H838 0.929 . S
C870 C869 1.267 . S
C870 C871 1.251 . S
C871 H841 0.929 . S
C871 N867 1.418 . S
C871 C870 1.251 . S
C872 H839 0.930 . S
C872 C874 1.406 . S
C872 C877 1.261 . S
C873 H840 0.930 . S
C873 N875 1.325 . S
C873 C876 1.357 . S
C874 H842 0.928 . S
C874 C872 1.406 . S
C874 N875 1.261 . S
N875 Co826 2.214 . S
N875 C873 1.325 . S
N875 C874 1.261 . S
C876 H846 0.931 . S
C876 C873 1.357 . S
C876 C877 1.312 . S
C877 H848 0.930 . S
C877 C872 1.261 . S
C877 C876 1.312 . S
C878 O850 1.214 . S
C878 O858 1.234 . S
C879 H851 0.929 . S
C879 C882 1.391 . S
C879 C884 1.391 . S
C880 H852 0.929 . S
C880 C881 1.390 . S
C880 N883 1.391 . S
C881 H853 0.930 . S
C881 C880 1.390 . S
C881 C882 1.392 . S
C882 H854 0.929 . S
C882 C879 1.391 . S
C882 C881 1.392 . S
N883 Co827 2.257 . S
N883 C880 1.391 . S
N883 C884 1.388 . S
C884 H855 0.930 . S
C884 C879 1.391 . S
C884 N883 1.388 . S
Co885 O887 2.143 . S
Co885 O893 2.074 . S
Co885 O896 2.093 . S
Co885 O909 2.097 . S
Co885 N926 2.151 . S
Co885 N934 2.214 . S
Co886 O887 2.160 . S
Co886 O892 2.058 . S
Co886 O902 2.057 . S
Co886 O917 2.037 . S
Co886 N921 2.145 . S
Co886 N942 2.257 . S
O887 Co885 2.143 . S
O887 Co886 2.160 . S
C888 O889 1.278 . S
C888 O896 1.224 . S
O889 C888 1.278 . S
C890 O891 1.245 . S
C890 O902 1.232 . S
O891 C890 1.245 . S
O892 Co886 2.058 . S
O892 C918 1.269 . S
O893 Co885 2.074 . S
O893 C918 1.257 . S
H894 C919 0.930 . S
H895 C925 0.930 . S
O896 Co885 2.093 . S
O896 C888 1.224 . S
H897 C929 0.929 . S
H898 C931 0.930 . S
H899 C932 0.930 . S
H900 C930 0.929 . S
H901 C933 0.928 . S
O902 Co886 2.057 . S
O902 C890 1.232 . S
H903 C922 0.929 . S
H904 C923 0.929 . S
H905 C935 0.931 . S
H906 C927 0.929 . S
H907 C936 0.930 . S
H908 C928 0.931 . S
O909 Co885 2.097 . S
O909 C937 1.214 . S
H910 C938 0.929 . S
H911 C939 0.929 . S
H912 C940 0.930 . S
H913 C941 0.929 . S
H914 C943 0.930 . S
H915 C920 0.930 . S
H916 C924 0.930 . S
O917 Co886 2.037 . S
O917 C937 1.234 . S
C918 O892 1.269 . S
C918 O893 1.257 . S
C919 H894 0.930 . S
C919 C922 1.388 . S
C919 C924 1.418 . S
C920 H915 0.930 . S
C920 C923 1.404 . S
C920 C924 1.353 . S
N921 Co886 2.145 . S
N921 C922 1.397 . S
N921 C923 1.334 . S
C922 H903 0.929 . S
C922 C919 1.388 . S
C922 N921 1.397 . S
C923 H904 0.929 . S
C923 C920 1.404 . S
C923 N921 1.334 . S
C924 H916 0.930 . S
C924 C919 1.418 . S
C924 C920 1.353 . S
C925 H895 0.930 . S
C925 N926 1.330 . S
C925 C927 1.446 . S
N926 Co885 2.151 . S
N926 C925 1.330 . S
N926 C930 1.418 . S
C927 H906 0.929 . S
C927 C925 1.446 . S
C927 C928 1.332 . S
C928 H908 0.931 . S
C928 C927 1.332 . S
C928 C929 1.267 . S
C929 H897 0.929 . S
C929 C928 1.267 . S
C929 C930 1.251 . S
C930 H900 0.929 . S
C930 N926 1.418 . S
C930 C929 1.251 . S
C931 H898 0.930 . S
C931 C933 1.406 . S
C931 C936 1.261 . S
C932 H899 0.930 . S
C932 N934 1.325 . S
C932 C935 1.357 . S
C933 H901 0.928 . S
C933 C931 1.406 . S
C933 N934 1.261 . S
N934 Co885 2.214 . S
N934 C932 1.325 . S
N934 C933 1.261 . S
C935 H905 0.931 . S
C935 C932 1.357 . S
C935 C936 1.312 . S
C936 H907 0.930 . S
C936 C931 1.261 . S
C936 C935 1.312 . S
C937 O909 1.214 . S
C937 O917 1.234 . S
C938 H910 0.929 . S
C938 C941 1.391 . S
C938 C943 1.391 . S
C939 H911 0.929 . S
C939 C940 1.390 . S
C939 N942 1.391 . S
C940 H912 0.930 . S
C940 C939 1.390 . S
C940 C941 1.392 . S
C941 H913 0.929 . S
C941 C938 1.391 . S
C941 C940 1.392 . S
N942 Co886 2.257 . S
N942 C939 1.391 . S
N942 C943 1.388 . S
C943 H914 0.930 . S
C943 C938 1.391 . S
C943 N942 1.388 . S
C944 C945 1.369 . S
C944 C946 1.419 . S
C944 H948 0.930 . S
C945 C944 1.369 . S
C945 C954 1.429 1_556 S
C946 C944 1.419 . S
C946 C947 1.363 1_556 S
C946 H949 0.929 . S
C947 C946 1.363 1_554 S
C947 C953 1.428 . S
H948 C944 0.930 . S
H949 C946 0.929 . S
S950 N951 1.613 . S
S950 N952 1.610 . S
N951 S950 1.613 . S
N951 C954 1.350 . S
N952 S950 1.610 . S
N952 C953 1.351 . S
C953 C947 1.428 . S
C953 N952 1.351 . S
C953 C954 1.434 . S
C954 C945 1.429 1_554 S
C954 N951 1.350 . S
C954 C953 1.434 . S
C955 C956 1.369 1_554 S
C955 C957 1.419 . S
C955 H959 0.930 . S
C956 C955 1.369 1_556 S
C956 C965 1.429 . S
C957 C955 1.419 . S
C957 C958 1.363 . S
C957 H960 0.929 . S
C958 C957 1.363 . S
C958 C964 1.428 1_554 S
H959 C955 0.930 . S
H960 C957 0.929 . S
S961 N962 1.613 . S
S961 N963 1.610 . S
N962 S961 1.613 . S
N962 C965 1.350 . S
N963 S961 1.610 . S
N963 C964 1.351 . S
C964 C958 1.428 1_556 S
C964 N963 1.351 . S
C964 C965 1.434 . S
C965 C956 1.429 . S
C965 N962 1.350 . S
C965 C964 1.434 . S
C966 C967 1.369 . S
C966 C968 1.419 . S
C966 H970 0.930 . S
C967 C966 1.369 . S
C967 C976 1.429 1_556 S
C968 C966 1.419 . S
C968 C969 1.363 1_556 S
C968 H971 0.929 . S
C969 C968 1.363 1_554 S
C969 C975 1.428 . S
H970 C966 0.930 . S
H971 C968 0.929 . S
S972 N973 1.613 . S
S972 N974 1.610 . S
N973 S972 1.613 . S
N973 C976 1.350 . S
N974 S972 1.610 . S
N974 C975 1.351 . S
C975 C969 1.428 . S
C975 N974 1.351 . S
C975 C976 1.434 . S
C976 C967 1.429 1_554 S
C976 N973 1.350 . S
C976 C975 1.434 . S
C977 C978 1.369 . S
C977 C979 1.419 . S
C977 H981 0.930 . S
C978 C977 1.369 . S
C978 C987 1.429 1_556 S
C979 C977 1.419 . S
C979 C980 1.363 1_556 S
C979 H982 0.929 . S
C980 C979 1.363 1_554 S
C980 C986 1.428 . S
H981 C977 0.930 . S
H982 C979 0.929 . S
S983 N984 1.613 . S
S983 N985 1.610 . S
N984 S983 1.613 . S
N984 C987 1.350 . S
N985 S983 1.610 . S
N985 C986 1.351 . S
C986 C980 1.428 . S
C986 N985 1.351 . S
C986 C987 1.434 . S
C987 C978 1.429 1_554 S
C987 N984 1.350 . S
C987 C986 1.434 . S
C988 C989 1.369 . S
C988 C990 1.419 1_545 S
C988 H992 0.930 . S
C989 C988 1.369 . S
C989 C998 1.429 . S
C990 C988 1.419 1_565 S
C990 C991 1.363 . S
C990 H993 0.929 . S
C991 C990 1.363 . S
C991 C997 1.428 . S
H992 C988 0.930 . S
H993 C990 0.929 . S
S994 N995 1.613 1_565 S
S994 N996 1.610 . S
N995 S994 1.613 1_545 S
N995 C998 1.350 . S
N996 S994 1.610 . S
N996 C997 1.351 . S
C997 C991 1.428 . S
C997 N996 1.351 . S
C997 C998 1.434 1_565 S
C998 C989 1.429 . S
C998 N995 1.350 . S
C998 C997 1.434 1_545 S
C999 C1000 1.369 . S
C999 C1001 1.419 1_655 S
C999 H1003 0.930 . S
C1000 C999 1.369 . S
C1000 C1009 1.429 . S
C1001 C999 1.419 1_455 S
C1001 C1002 1.363 . S
C1001 H1004 0.929 . S
C1002 C1001 1.363 . S
C1002 C1008 1.428 . S
H1003 C999 0.930 . S
H1004 C1001 0.929 . S
S1005 N1006 1.613 . S
S1005 N1007 1.610 1_655 S
N1006 S1005 1.613 . S
N1006 C1009 1.350 . S
N1007 S1005 1.610 1_455 S
N1007 C1008 1.351 . S
C1008 C1002 1.428 . S
C1008 N1007 1.351 . S
C1008 C1009 1.434 1_455 S
C1009 C1000 1.429 . S
C1009 N1006 1.350 . S
C1009 C1008 1.434 1_655 S
C1010 C1011 1.369 . S
C1010 C1012 1.419 1_545 S
C1010 H1014 0.930 . S
C1011 C1010 1.369 . S
C1011 C1020 1.429 . S
C1012 C1010 1.419 1_565 S
C1012 C1013 1.363 . S
C1012 H1015 0.929 . S
C1013 C1012 1.363 . S
C1013 C1019 1.428 . S
H1014 C1010 0.930 . S
H1015 C1012 0.929 . S
S1016 N1017 1.613 . S
S1016 N1018 1.610 1_545 S
N1017 S1016 1.613 . S
N1017 C1020 1.350 . S
N1018 S1016 1.610 1_565 S
N1018 C1019 1.351 . S
C1019 C1013 1.428 . S
C1019 N1018 1.351 . S
C1019 C1020 1.434 1_565 S
C1020 C1011 1.429 . S
C1020 N1017 1.350 . S
C1020 C1019 1.434 1_545 S
C1021 C1022 1.369 . S
C1021 C1023 1.419 1_455 S
C1021 H1025 0.930 . S
C1022 C1021 1.369 . S
C1022 C1031 1.429 . S
C1023 C1021 1.419 1_655 S
C1023 C1024 1.363 . S
C1023 H1026 0.929 . S
C1024 C1023 1.363 . S
C1024 C1030 1.428 . S
H1025 C1021 0.930 . S
H1026 C1023 0.929 . S
S1027 N1028 1.613 . S
S1027 N1029 1.610 1_455 S
N1028 S1027 1.613 . S
N1028 C1031 1.350 . S
N1029 S1027 1.610 1_655 S
N1029 C1030 1.351 . S
C1030 C1024 1.428 . S
C1030 N1029 1.351 . S
C1030 C1031 1.434 1_655 S
C1031 C1022 1.429 . S
C1031 N1028 1.350 . S
C1031 C1030 1.434 1_455 S
C1032 C1033 1.369 . S
C1032 C1034 1.419 . S
C1032 H1036 0.930 . S
C1033 C1032 1.369 . S
C1033 C1042 1.429 1_554 S
C1034 C1032 1.419 . S
C1034 C1035 1.363 1_554 S
C1034 H1037 0.929 . S
C1035 C1034 1.363 1_556 S
C1035 C1041 1.428 . S
H1036 C1032 0.930 . S
H1037 C1034 0.929 . S
S1038 N1039 1.613 . S
S1038 N1040 1.610 . S
N1039 S1038 1.613 . S
N1039 C1042 1.350 . S
N1040 S1038 1.610 . S
N1040 C1041 1.351 . S
C1041 C1035 1.428 . S
C1041 N1040 1.351 . S
C1041 C1042 1.434 . S
C1042 C1033 1.429 1_556 S
C1042 N1039 1.350 . S
C1042 C1041 1.434 . S
C1043 C1044 1.369 . S
C1043 C1045 1.419 . S
C1043 H1047 0.930 . S
C1044 C1043 1.369 . S
C1044 C1053 1.429 1_556 S
C1045 C1043 1.419 . S
C1045 C1046 1.363 1_556 S
C1045 H1048 0.929 . S
C1046 C1045 1.363 1_554 S
C1046 C1052 1.428 . S
H1047 C1043 0.930 . S
H1048 C1045 0.929 . S
S1049 N1050 1.613 . S
S1049 N1051 1.610 . S
N1050 S1049 1.613 . S
N1050 C1053 1.350 . S
N1051 S1049 1.610 . S
N1051 C1052 1.351 . S
C1052 C1046 1.428 . S
C1052 N1051 1.351 . S
C1052 C1053 1.434 . S
C1053 C1044 1.429 1_554 S
C1053 N1050 1.350 . S
C1053 C1052 1.434 . S
C1054 C1055 1.369 . S
C1054 C1056 1.419 1_554 S
C1054 H1058 0.930 . S
C1055 C1054 1.369 . S
C1055 C1064 1.429 . S
C1056 C1054 1.419 1_556 S
C1056 C1057 1.363 . S
C1056 H1059 0.929 . S
C1057 C1056 1.363 . S
C1057 C1063 1.430 . S
H1058 C1054 0.930 . S
H1059 C1056 0.929 . S
S1060 N1061 1.612 1_556 S
S1060 N1062 1.611 . S
N1061 S1060 1.612 1_554 S
N1061 C1064 1.350 . S
N1062 S1060 1.611 . S
N1062 C1063 1.353 . S
C1063 C1057 1.430 . S
C1063 N1062 1.353 . S
C1063 C1064 1.431 1_556 S
C1064 C1055 1.429 . S
C1064 N1061 1.350 . S
C1064 C1063 1.431 1_554 S
C1065 C1066 1.369 . S
C1065 C1067 1.419 . S
C1065 H1069 0.930 . S
C1066 C1065 1.369 . S
C1066 C1075 1.429 1_556 S
C1067 C1065 1.419 . S
C1067 C1068 1.363 1_556 S
C1067 H1070 0.929 . S
C1068 C1067 1.363 1_554 S
C1068 C1074 1.428 . S
H1069 C1065 0.930 . S
H1070 C1067 0.929 . S
S1071 N1072 1.613 . S
S1071 N1073 1.610 . S
N1072 S1071 1.613 . S
N1072 C1075 1.350 . S
N1073 S1071 1.610 . S
N1073 C1074 1.351 . S
C1074 C1068 1.428 . S
C1074 N1073 1.351 . S
C1074 C1075 1.434 . S
C1075 C1066 1.429 1_554 S
C1075 N1072 1.350 . S
C1075 C1074 1.434 . S
C1076 C1077 1.369 . S
C1076 C1078 1.419 . S
C1076 H1080 0.930 . S
C1077 C1076 1.369 . S
C1077 C1086 1.429 . S
C1078 C1076 1.419 . S
C1078 C1079 1.363 . S
C1078 H1081 0.929 . S
C1079 C1078 1.363 . S
C1079 C1085 1.428 . S
H1080 C1076 0.930 . S
H1081 C1078 0.929 . S
S1082 N1083 1.613 . S
S1082 N1084 1.610 . S
N1083 S1082 1.613 . S
N1083 C1086 1.350 . S
N1084 S1082 1.610 . S
N1084 C1085 1.351 . S
C1085 C1079 1.428 . S
C1085 N1084 1.351 . S
C1085 C1086 1.434 . S
C1086 C1077 1.429 . S
C1086 N1083 1.350 . S
C1086 C1085 1.434 . S
C1087 C1088 1.369 . S
C1087 C1089 1.419 . S
C1087 H1091 0.930 . S
C1088 C1087 1.369 . S
C1088 C1097 1.429 . S
C1089 C1087 1.419 . S
C1089 C1090 1.363 . S
C1089 H1092 0.929 . S
C1090 C1089 1.363 . S
C1090 C1096 1.428 . S
H1091 C1087 0.930 . S
H1092 C1089 0.929 . S
S1093 N1094 1.613 . S
S1093 N1095 1.610 . S
N1094 S1093 1.613 . S
N1094 C1097 1.350 . S
N1095 S1093 1.610 . S
N1095 C1096 1.351 . S
C1096 C1090 1.428 . S
C1096 N1095 1.351 . S
C1096 C1097 1.434 . S
C1097 C1088 1.429 . S
C1097 N1094 1.350 . S
C1097 C1096 1.434 . S
C1098 C1099 1.369 . S
C1098 C1100 1.419 . S
C1098 H1102 0.930 . S
C1099 C1098 1.369 . S
C1099 C1108 1.429 . S
C1100 C1098 1.419 . S
C1100 C1101 1.363 . S
C1100 H1103 0.929 . S
C1101 C1100 1.363 . S
C1101 C1107 1.428 . S
H1102 C1098 0.930 . S
H1103 C1100 0.929 . S
S1104 N1105 1.613 . S
S1104 N1106 1.610 . S
N1105 S1104 1.613 . S
N1105 C1108 1.350 . S
N1106 S1104 1.610 . S
N1106 C1107 1.351 . S
C1107 C1101 1.428 . S
C1107 N1106 1.351 . S
C1107 C1108 1.434 . S
C1108 C1099 1.429 . S
C1108 N1105 1.350 . S
C1108 C1107 1.434 . S
C1109 C1110 1.369 . S
C1109 C1111 1.419 . S
C1109 H1113 0.930 . S
C1110 C1109 1.369 . S
C1110 C1119 1.429 . S
C1111 C1109 1.419 . S
C1111 C1112 1.363 . S
C1111 H1114 0.929 . S
C1112 C1111 1.363 . S
C1112 C1118 1.428 . S
H1113 C1109 0.930 . S
H1114 C1111 0.929 . S
S1115 N1116 1.613 . S
S1115 N1117 1.610 . S
N1116 S1115 1.613 . S
N1116 C1119 1.350 . S
N1117 S1115 1.610 . S
N1117 C1118 1.351 . S
C1118 C1112 1.428 . S
C1118 N1117 1.351 . S
C1118 C1119 1.434 . S
C1119 C1110 1.429 . S
C1119 N1116 1.350 . S
C1119 C1118 1.434 . S
C1120 C1121 1.369 . S
C1120 C1122 1.419 . S
C1120 H1124 0.930 . S
C1121 C1120 1.369 . S
C1121 C1130 1.429 . S
C1122 C1120 1.419 . S
C1122 C1123 1.363 . S
C1122 H1125 0.929 . S
C1123 C1122 1.363 . S
C1123 C1129 1.428 . S
H1124 C1120 0.930 . S
H1125 C1122 0.929 . S
S1126 N1127 1.613 . S
S1126 N1128 1.610 . S
N1127 S1126 1.613 . S
N1127 C1130 1.350 . S
N1128 S1126 1.610 . S
N1128 C1129 1.351 . S
C1129 C1123 1.428 . S
C1129 N1128 1.351 . S
C1129 C1130 1.434 . S
C1130 C1121 1.429 . S
C1130 N1127 1.350 . S
C1130 C1129 1.434 . S
C1131 C1132 1.369 . S
C1131 C1133 1.419 . S
C1131 H1135 0.930 . S
C1132 C1131 1.369 . S
C1132 C1141 1.429 . S
C1133 C1131 1.419 . S
C1133 C1134 1.363 . S
C1133 H1136 0.929 . S
C1134 C1133 1.363 . S
C1134 C1140 1.428 . S
H1135 C1131 0.930 . S
H1136 C1133 0.929 . S
S1137 N1138 1.613 . S
S1137 N1139 1.610 . S
N1138 S1137 1.613 . S
N1138 C1141 1.350 . S
N1139 S1137 1.610 . S
N1139 C1140 1.351 . S
C1140 C1134 1.428 . S
C1140 N1139 1.351 . S
C1140 C1141 1.434 . S
C1141 C1132 1.429 . S
C1141 N1138 1.350 . S
C1141 C1140 1.434 . S
C1142 C1143 1.369 . S
C1142 C1144 1.419 . S
C1142 H1146 0.930 . S
C1143 C1142 1.369 . S
C1143 C1152 1.429 . S
C1144 C1142 1.419 . S
C1144 C1145 1.363 . S
C1144 H1147 0.929 . S
C1145 C1144 1.363 . S
C1145 C1151 1.428 . S
H1146 C1142 0.930 . S
H1147 C1144 0.929 . S
S1148 N1149 1.613 . S
S1148 N1150 1.610 . S
N1149 S1148 1.613 . S
N1149 C1152 1.350 . S
N1150 S1148 1.610 . S
N1150 C1151 1.351 . S
C1151 C1145 1.428 . S
C1151 N1150 1.351 . S
C1151 C1152 1.434 . S
C1152 C1143 1.429 . S
C1152 N1149 1.350 . S
C1152 C1151 1.434 . S
C1153 C1154 1.369 . S
C1153 C1155 1.419 . S
C1153 H1157 0.930 . S
C1154 C1153 1.369 . S
C1154 C1163 1.429 . S
C1155 C1153 1.419 . S
C1155 C1156 1.363 . S
C1155 H1158 0.929 . S
C1156 C1155 1.363 . S
C1156 C1162 1.428 . S
H1157 C1153 0.930 . S
H1158 C1155 0.929 . S
S1159 N1160 1.613 . S
S1159 N1161 1.610 . S
N1160 S1159 1.613 . S
N1160 C1163 1.350 . S
N1161 S1159 1.610 . S
N1161 C1162 1.351 . S
C1162 C1156 1.428 . S
C1162 N1161 1.351 . S
C1162 C1163 1.434 . S
C1163 C1154 1.429 . S
C1163 N1160 1.350 . S
C1163 C1162 1.434 . S
C1164 C1165 1.369 . S
C1164 C1166 1.419 . S
C1164 H1168 0.930 . S
C1165 C1164 1.369 . S
C1165 C1174 1.429 . S
C1166 C1164 1.419 . S
C1166 C1167 1.363 . S
C1166 H1169 0.929 . S
C1167 C1166 1.363 . S
C1167 C1173 1.428 . S
H1168 C1164 0.930 . S
H1169 C1166 0.929 . S
S1170 N1171 1.613 . S
S1170 N1172 1.610 . S
N1171 S1170 1.613 . S
N1171 C1174 1.350 . S
N1172 S1170 1.610 . S
N1172 C1173 1.351 . S
C1173 C1167 1.428 . S
C1173 N1172 1.351 . S
C1173 C1174 1.434 . S
C1174 C1165 1.429 . S
C1174 N1171 1.350 . S
C1174 C1173 1.434 . S
C1175 C1176 1.369 . S
C1175 C1177 1.419 . S
C1175 H1179 0.930 . S
C1176 C1175 1.369 . S
C1176 C1185 1.429 . S
C1177 C1175 1.419 . S
C1177 C1178 1.363 . S
C1177 H1180 0.929 . S
C1178 C1177 1.363 . S
C1178 C1184 1.428 . S
H1179 C1175 0.930 . S
H1180 C1177 0.929 . S
S1181 N1182 1.613 . S
S1181 N1183 1.610 . S
N1182 S1181 1.613 . S
N1182 C1185 1.350 . S
N1183 S1181 1.610 . S
N1183 C1184 1.351 . S
C1184 C1178 1.428 . S
C1184 N1183 1.351 . S
C1184 C1185 1.434 . S
C1185 C1176 1.429 . S
C1185 N1182 1.350 . S
C1185 C1184 1.434 . S
C1186 C1187 1.369 . S
C1186 C1188 1.419 . S
C1186 H1190 0.930 . S
C1187 C1186 1.369 . S
C1187 C1196 1.429 . S
C1188 C1186 1.419 . S
C1188 C1189 1.363 . S
C1188 H1191 0.929 . S
C1189 C1188 1.363 . S
C1189 C1195 1.428 . S
H1190 C1186 0.930 . S
H1191 C1188 0.929 . S
S1192 N1193 1.613 . S
S1192 N1194 1.610 . S
N1193 S1192 1.613 . S
N1193 C1196 1.350 . S
N1194 S1192 1.610 . S
N1194 C1195 1.351 . S
C1195 C1189 1.428 . S
C1195 N1194 1.351 . S
C1195 C1196 1.434 . S
C1196 C1187 1.429 . S
C1196 N1193 1.350 . S
C1196 C1195 1.434 . S
C1197 C1198 1.369 . S
C1197 C1199 1.419 . S
C1197 H1201 0.930 . S
C1198 C1197 1.369 . S
C1198 C1207 1.429 . S
C1199 C1197 1.419 . S
C1199 C1200 1.363 . S
C1199 H1202 0.929 . S
C1200 C1199 1.363 . S
C1200 C1206 1.428 . S
H1201 C1197 0.930 . S
H1202 C1199 0.929 . S
S1203 N1204 1.613 . S
S1203 N1205 1.610 . S
N1204 S1203 1.613 . S
N1204 C1207 1.350 . S
N1205 S1203 1.610 . S
N1205 C1206 1.351 . S
C1206 C1200 1.428 . S
C1206 N1205 1.351 . S
C1206 C1207 1.434 . S
C1207 C1198 1.429 . S
C1207 N1204 1.350 . S
C1207 C1206 1.434 . S
C1208 C1209 1.369 . S
C1208 C1210 1.419 . S
C1208 H1212 0.930 . S
C1209 C1208 1.369 . S
C1209 C1218 1.429 . S
C1210 C1208 1.419 . S
C1210 C1211 1.363 . S
C1210 H1213 0.929 . S
C1211 C1210 1.363 . S
C1211 C1217 1.428 . S
H1212 C1208 0.930 . S
H1213 C1210 0.929 . S
S1214 N1215 1.613 . S
S1214 N1216 1.610 . S
N1215 S1214 1.613 . S
N1215 C1218 1.350 . S
N1216 S1214 1.610 . S
N1216 C1217 1.351 . S
C1217 C1211 1.428 . S
C1217 N1216 1.351 . S
C1217 C1218 1.434 . S
C1218 C1209 1.429 . S
C1218 N1215 1.350 . S
C1218 C1217 1.434 . S
C1219 C1220 1.369 . S
C1219 C1221 1.419 . S
C1219 H1223 0.930 . S
C1220 C1219 1.369 . S
C1220 C1229 1.429 . S
C1221 C1219 1.419 . S
C1221 C1222 1.363 . S
C1221 H1224 0.929 . S
C1222 C1221 1.363 . S
C1222 C1228 1.428 . S
H1223 C1219 0.930 . S
H1224 C1221 0.929 . S
S1225 N1226 1.613 . S
S1225 N1227 1.610 . S
N1226 S1225 1.613 . S
N1226 C1229 1.350 . S
N1227 S1225 1.610 . S
N1227 C1228 1.351 . S
C1228 C1222 1.428 . S
C1228 N1227 1.351 . S
C1228 C1229 1.434 . S
C1229 C1220 1.429 . S
C1229 N1226 1.350 . S
C1229 C1228 1.434 . S
C1230 C1231 1.369 . S
C1230 C1232 1.419 . S
C1230 H1234 0.930 . S
C1231 C1230 1.369 . S
C1231 C1240 1.429 . S
C1232 C1230 1.419 . S
C1232 C1233 1.363 . S
C1232 H1235 0.929 . S
C1233 C1232 1.363 . S
C1233 C1239 1.428 . S
H1234 C1230 0.930 . S
H1235 C1232 0.929 . S
S1236 N1237 1.613 . S
S1236 N1238 1.610 . S
N1237 S1236 1.613 . S
N1237 C1240 1.350 . S
N1238 S1236 1.610 . S
N1238 C1239 1.351 . S
C1239 C1233 1.428 . S
C1239 N1238 1.351 . S
C1239 C1240 1.434 . S
C1240 C1231 1.429 . S
C1240 N1237 1.350 . S
C1240 C1239 1.434 . S
C1241 C1242 1.369 . S
C1241 C1243 1.419 . S
C1241 H1245 0.930 . S
C1242 C1241 1.369 . S
C1242 C1251 1.429 . S
C1243 C1241 1.419 . S
C1243 C1244 1.363 . S
C1243 H1246 0.929 . S
C1244 C1243 1.363 . S
C1244 C1250 1.428 . S
H1245 C1241 0.930 . S
H1246 C1243 0.929 . S
S1247 N1248 1.613 . S
S1247 N1249 1.610 . S
N1248 S1247 1.613 . S
N1248 C1251 1.350 . S
N1249 S1247 1.610 . S
N1249 C1250 1.351 . S
C1250 C1244 1.428 . S
C1250 N1249 1.351 . S
C1250 C1251 1.434 . S
C1251 C1242 1.429 . S
C1251 N1248 1.350 . S
C1251 C1250 1.434 . S
C1252 C1253 1.369 . S
C1252 C1254 1.419 . S
C1252 H1256 0.930 . S
C1253 C1252 1.369 . S
C1253 C1262 1.429 . S
C1254 C1252 1.419 . S
C1254 C1255 1.363 . S
C1254 H1257 0.929 . S
C1255 C1254 1.363 . S
C1255 C1261 1.428 . S
H1256 C1252 0.930 . S
H1257 C1254 0.929 . S
S1258 N1259 1.613 . S
S1258 N1260 1.610 . S
N1259 S1258 1.613 . S
N1259 C1262 1.350 . S
N1260 S1258 1.610 . S
N1260 C1261 1.351 . S
C1261 C1255 1.428 . S
C1261 N1260 1.351 . S
C1261 C1262 1.434 . S
C1262 C1253 1.429 . S
C1262 N1259 1.350 . S
C1262 C1261 1.434 . S
C1263 C1264 1.369 . S
C1263 C1265 1.419 . S
C1263 H1267 0.930 . S
C1264 C1263 1.369 . S
C1264 C1273 1.429 . S
C1265 C1263 1.419 . S
C1265 C1266 1.363 . S
C1265 H1268 0.929 . S
C1266 C1265 1.363 . S
C1266 C1272 1.428 . S
H1267 C1263 0.930 . S
H1268 C1265 0.929 . S
S1269 N1270 1.613 . S
S1269 N1271 1.610 . S
N1270 S1269 1.613 . S
N1270 C1273 1.350 . S
N1271 S1269 1.610 . S
N1271 C1272 1.351 . S
C1272 C1266 1.428 . S
C1272 N1271 1.351 . S
C1272 C1273 1.434 . S
C1273 C1264 1.429 . S
C1273 N1270 1.350 . S
C1273 C1272 1.434 . S
C1274 C1275 1.369 . S
C1274 C1276 1.419 . S
C1274 H1278 0.930 . S
C1275 C1274 1.369 . S
C1275 C1284 1.429 . S
C1276 C1274 1.419 . S
C1276 C1277 1.363 . S
C1276 H1279 0.929 . S
C1277 C1276 1.363 . S
C1277 C1283 1.428 . S
H1278 C1274 0.930 . S
H1279 C1276 0.929 . S
S1280 N1281 1.613 . S
S1280 N1282 1.610 . S
N1281 S1280 1.613 . S
N1281 C1284 1.350 . S
N1282 S1280 1.610 . S
N1282 C1283 1.351 . S
C1283 C1277 1.428 . S
C1283 N1282 1.351 . S
C1283 C1284 1.434 . S
C1284 C1275 1.429 . S
C1284 N1281 1.350 . S
C1284 C1283 1.434 . S
C1285 C1286 1.369 . S
C1285 C1287 1.419 . S
C1285 H1289 0.930 . S
C1286 C1285 1.369 . S
C1286 C1295 1.429 . S
C1287 C1285 1.419 . S
C1287 C1288 1.363 . S
C1287 H1290 0.929 . S
C1288 C1287 1.363 . S
C1288 C1294 1.428 . S
H1289 C1285 0.930 . S
H1290 C1287 0.929 . S
S1291 N1292 1.613 . S
S1291 N1293 1.610 . S
N1292 S1291 1.613 . S
N1292 C1295 1.350 . S
N1293 S1291 1.610 . S
N1293 C1294 1.351 . S
C1294 C1288 1.428 . S
C1294 N1293 1.351 . S
C1294 C1295 1.434 . S
C1295 C1286 1.429 . S
C1295 N1292 1.350 . S
C1295 C1294 1.434 . S
C945 C241 1.562 . S
C947 C5 1.564 . S
C956 C300 1.563 . S
C958 C64 1.563 . S
C967 C359 1.562 . S
C969 C123 1.564 . S
C978 C418 1.562 . S
C980 C182 1.563 . S
C989 C713 1.564 . S
C991 C477 1.562 . S
C1000 C772 1.562 . S
C1002 C536 1.564 . S
C1011 C595 1.562 . S
C1013 C831 1.564 . S
C1022 C890 1.562 . S
C1024 C654 1.564 . S
C1033 C52 1.595 . S
C1035 C347 1.598 . S
C1044 C406 1.594 . S
C1046 C111 1.597 . S
C1055 C170 1.595 . S
C1057 C465 1.597 . S
C1066 C288 1.594 . S
C1068 C229 1.597 . S
C1077 C819 1.595 . S
C1079 C524 1.598 . S
C1088 C878 1.599 . S
C1090 C583 1.594 . S
C1099 C642 1.597 . S
C1101 C937 1.596 . S
C1110 C701 1.599 . S
C1112 C760 1.595 . S
C1121 C918 1.739 . S
C1123 C33 1.739 . S
C1132 C741 1.738 . S
C1134 C92 1.739 . S
C1143 C800 1.738 . S
C1145 C151 1.739 . S
C1154 C859 1.738 . S
C1156 C210 1.739 . S
C1165 C564 1.738 . S
C1167 C269 1.739 . S
C1176 C623 1.740 . S
C1178 C328 1.739 . S
C1187 C387 1.739 . S
C1189 C682 1.738 . S
C1198 C446 1.740 . S
C1200 C505 1.739 . S
C1209 C770 1.189 . S
C1211 C121 1.191 . S
C1220 C829 1.195 . S
C1222 C180 1.194 . S
C1231 C888 1.194 . S
C1233 C3 1.194 . S
C1242 C62 1.194 . S
C1244 C711 1.194 . S
C1253 C652 1.189 . S
C1255 C357 1.191 . S
C1264 C416 1.195 . S
C1266 C475 1.194 . S
C1275 C534 1.191 . S
C1277 C239 1.192 . S
C1286 C593 1.193 . S
C1288 C298 1.194 . S
