# Generated by pormake.
# Topology uof, (4)-cn, num edge types: 1
# Building blocks:
#     Node 0, Type 0, BuildingBlock: CEKHIL_clean_sbu_0, # of connection points: 4
#     Node 1, Type 0, BuildingBlock: CEKHIL_clean_sbu_0, # of connection points: 4
#     Node 2, Type 0, BuildingBlock: CEKHIL_clean_sbu_0, # of connection points: 4
#     Node 3, Type 0, BuildingBlock: CEKHIL_clean_sbu_0, # of connection points: 4
#     Node 4, Type 0, BuildingBlock: CEKHIL_clean_sbu_0, # of connection points: 4
#     Node 5, Type 0, BuildingBlock: CEKHIL_clean_sbu_0, # of connection points: 4
#     Node 6, Type 0, BuildingBlock: CEKHIL_clean_sbu_0, # of connection points: 4
#     Node 7, Type 0, BuildingBlock: CEKHIL_clean_sbu_0, # of connection points: 4
#     Node 8, Type 0, BuildingBlock: CEKHIL_clean_sbu_0, # of connection points: 4
#     Node 9, Type 0, BuildingBlock: CEKHIL_clean_sbu_0, # of connection points: 4
#     Node 10, Type 0, BuildingBlock: CEKHIL_clean_sbu_0, # of connection points: 4
#     Node 11, Type 0, BuildingBlock: CEKHIL_clean_sbu_0, # of connection points: 4
#     Edge 12, Type (0, 0), BuildingBlock: KIFKEQ_clean_linker_1, # of connection points: 2
#     Edge 13, Type (0, 0), BuildingBlock: KIFKEQ_clean_linker_1, # of connection points: 2
#     Edge 14, Type (0, 0), BuildingBlock: KIFKEQ_clean_linker_1, # of connection points: 2
#     Edge 15, Type (0, 0), BuildingBlock: KIFKEQ_clean_linker_1, # of connection points: 2
#     Edge 16, Type (0, 0), BuildingBlock: KIFKEQ_clean_linker_1, # of connection points: 2
#     Edge 17, Type (0, 0), BuildingBlock: KIFKEQ_clean_linker_1, # of connection points: 2
#     Edge 18, Type (0, 0), BuildingBlock: KIFKEQ_clean_linker_1, # of connection points: 2
#     Edge 19, Type (0, 0), BuildingBlock: KIFKEQ_clean_linker_1, # of connection points: 2
#     Edge 20, Type (0, 0), BuildingBlock: KIFKEQ_clean_linker_1, # of connection points: 2
#     Edge 21, Type (0, 0), BuildingBlock: KIFKEQ_clean_linker_1, # of connection points: 2
#     Edge 22, Type (0, 0), BuildingBlock: KIFKEQ_clean_linker_1, # of connection points: 2
#     Edge 23, Type (0, 0), BuildingBlock: KIFKEQ_clean_linker_1, # of connection points: 2
#     Edge 24, Type (0, 0), BuildingBlock: KIFKEQ_clean_linker_1, # of connection points: 2
#     Edge 25, Type (0, 0), BuildingBlock: KIFKEQ_clean_linker_1, # of connection points: 2
#     Edge 26, Type (0, 0), BuildingBlock: KIFKEQ_clean_linker_1, # of connection points: 2
#     Edge 27, Type (0, 0), BuildingBlock: KIFKEQ_clean_linker_1, # of connection points: 2
#     Edge 28, Type (0, 0), BuildingBlock: KIFKEQ_clean_linker_1, # of connection points: 2
#     Edge 29, Type (0, 0), BuildingBlock: KIFKEQ_clean_linker_1, # of connection points: 2
#     Edge 30, Type (0, 0), BuildingBlock: KIFKEQ_clean_linker_1, # of connection points: 2
#     Edge 31, Type (0, 0), BuildingBlock: KIFKEQ_clean_linker_1, # of connection points: 2
#     Edge 32, Type (0, 0), BuildingBlock: KIFKEQ_clean_linker_1, # of connection points: 2
#     Edge 33, Type (0, 0), BuildingBlock: KIFKEQ_clean_linker_1, # of connection points: 2
#     Edge 34, Type (0, 0), BuildingBlock: KIFKEQ_clean_linker_1, # of connection points: 2
#     Edge 35, Type (0, 0), BuildingBlock: KIFKEQ_clean_linker_1, # of connection points: 2
# Relax obj value: 0.199
# Max RMSD: 0.143
# Mean RMSD: 0.143
data_MOF--net-uof--node1-CEKHIL_clean_sbu_0--edge1-KIFKEQ_clean_linker_1
_symmetry_space_group_name_H-M    P1
_symmetry_Int_Tables_number       1
_symmetry_cell_setting            triclinic
loop_
_symmetry_equiv_pos_as_xyz
'x, y, z'
_cell_length_a     32.197021
_cell_length_b     32.185279
_cell_length_c     63.376488
_cell_angle_alpha  89.91413
_cell_angle_beta   90.018091
_cell_angle_gamma 120.03622
loop_
_atom_site_label
_atom_site_type_symbol
_atom_site_fract_x
_atom_site_fract_y
_atom_site_fract_z
_atom_type_partial_charge
Co0 Co 0.24244 0.32409 0.22865 0.0
O1 O 0.17241 0.28988 0.2281 0.0
O2 O 0.21784 0.34263 0.20418 0.0
C3 C 0.25242 0.34074 0.26359 0.0
O4 O 0.31615 0.36783 0.22427 0.0
Co5 Co 0.29694 0.28385 0.25527 0.0
O6 O 0.35516 0.34287 0.24581 0.0
C7 C 0.23802 0.23147 0.21888 0.0
C8 C 0.17471 0.31108 0.21033 0.0
C9 C 0.3554 0.3723 0.23224 0.0
O10 O 0.24039 0.27019 0.21192 0.0
O11 O 0.25367 0.22841 0.23701 0.0
O12 O 0.2447 0.36836 0.25105 0.0
O13 O 0.24924 0.30333 0.25505 0.0
Co14 Co 0.94082 0.24811 0.55618 0.0
O15 O 0.90966 0.17859 0.55894 0.0
O16 O 0.88625 0.2153 0.53673 0.0
C17 C 0.95306 0.2686 0.59086 0.0
O18 O 0.96443 0.32001 0.54939 0.0
Co19 Co 0.04766 0.31083 0.57117 0.0
O20 O 0.0397 0.3652 0.56217 0.0
C21 C 1.01656 0.23362 0.54068 0.0
C22 C 0.88182 0.1749 0.54335 0.0
C23 C 1.00247 0.36129 0.55317 0.0
O24 O 0.98393 0.24297 0.53478 0.0
O25 O 0.04335 0.25389 0.55663 0.0
O26 O 0.91089 0.25451 0.58259 0.0
O27 O 0.98238 0.26402 0.57881 0.0
Co28 Co 0.70313 0.92149 0.89057 0.0
O29 O 0.74629 0.89565 0.89251 0.0
O30 O 0.68037 0.86296 0.87352 0.0
C31 C 0.70366 0.94121 0.92511 0.0
O32 O 0.64962 0.93866 0.88516 0.0
Co33 Co 0.74318 0.03043 0.90108 0.0
O34 O 0.67766 0.01641 0.89399 0.0
C35 C 0.78504 0.99682 0.86948 0.0
C36 C 0.71982 0.86342 0.87869 0.0
C37 C 0.64429 0.97588 0.88746 0.0
O38 O 0.743 0.96092 0.86625 0.0
O39 O 0.79392 0.02673 0.88442 0.0
O40 O 0.67544 0.89692 0.91907 0.0
O41 O 0.73246 0.96873 0.91086 0.0
Co42 Co 0.80161 0.71193 0.22531 0.0
O43 O 0.87158 0.7465 0.22661 0.0
O44 O 0.82921 0.68572 0.20539 0.0
C45 C 0.78584 0.70866 0.26056 0.0
O46 O 0.72844 0.66646 0.21995 0.0
Co47 Co 0.74483 0.76144 0.24113 0.0
O48 O 0.6874 0.69928 0.23437 0.0
C49 C 0.81762 0.80228 0.20829 0.0
C50 C 0.87145 0.72021 0.21105 0.0
C51 C 0.68846 0.66485 0.22493 0.0
O52 O 0.80737 0.7595 0.20334 0.0
O53 O 0.80009 0.81129 0.22456 0.0
O54 O 0.79544 0.67715 0.25236 0.0
O55 O 0.79104 0.74177 0.24785 0.0
Co56 Co 0.11186 0.80506 0.56703 0.0
O57 O 0.14809 0.87499 0.56712 0.0
O58 O 0.15631 0.83063 0.54299 0.0
C59 C 0.11641 0.79251 0.60198 0.0
O60 O 0.08068 0.73161 0.56186 0.0
Co61 Co 1.01538 0.75123 0.59243 0.0
O62 O 1.01483 0.69267 0.58238 0.0
C63 C 0.02897 0.81696 0.55786 0.0
C64 C 0.16739 0.87346 0.54936 0.0
C65 C 0.0446 0.69236 0.56918 0.0
O66 O 0.06142 0.8092 0.55019 0.0
O67 O 1.00996 0.80143 0.57598 0.0
O68 O 0.15222 0.80052 0.5897 0.0
O69 O 0.08317 0.79711 0.59323 0.0
Co70 Co 0.31891 0.09622 0.89997 0.0
O71 O 0.28959 0.13666 0.90015 0.0
O72 O 0.33666 0.13728 0.87488 0.0
C73 C 0.34076 0.10395 0.93439 0.0
O74 O 0.35733 0.06126 0.89438 0.0
Co75 Co 0.27804 1.00331 0.92773 0.0
O76 O 0.33178 0.99723 0.916 0.0
C77 C 0.22103 0.01428 0.89457 0.0
C78 C 0.30856 0.15262 0.8817 0.0
C79 C 0.36008 0.02508 0.90178 0.0
O80 O 0.25983 0.0454 0.88525 0.0
O81 O 0.22088 0.99844 0.9131 0.0
O82 O 0.36855 0.13731 0.92103 0.0
O83 O 0.30088 0.0713 0.92691 0.0
Co84 Co 0.72209 0.79627 0.4422 0.0
O85 O 0.76072 0.86574 0.44023 0.0
O86 O 0.69603 0.82818 0.4599 0.0
C87 C 0.72217 0.77804 0.4075 0.0
O88 O 0.67363 0.72406 0.44774 0.0
Co89 Co 0.7718 0.73688 0.43032 0.0
O90 O 0.70783 0.6812 0.4368 0.0
C91 C 0.80696 0.80833 0.46371 0.0
C92 C 0.7335 0.86884 0.45449 0.0
C93 C 0.67233 0.68354 0.44441 0.0
O94 O 0.7639 0.79976 0.46626 0.0
O95 O 0.81916 0.79084 0.44842 0.0
O96 O 0.69168 0.79065 0.41416 0.0
O97 O 0.75338 0.78264 0.42121 0.0
Co98 Co 0.93791 0.69928 0.77877 0.0
O99 O 0.915 0.74486 0.77855 0.0
O100 O 0.8751 0.67335 0.79296 0.0
C101 C 0.96603 0.71127 0.74488 0.0
O102 O 0.95237 0.6431 0.78177 0.0
Co103 Co 0.0489 0.74115 0.77223 0.0
O104 O 0.03073 0.67289 0.77369 0.0
C105 C 1.01099 0.76447 0.80949 0.0
C106 C 0.87874 0.71519 0.78996 0.0
C107 C 0.98969 0.63808 0.7789 0.0
O108 O 0.96956 0.72765 0.8064 0.0
O109 O 0.04596 0.7789 0.79656 0.0
O110 O 0.92052 0.68215 0.74854 0.0
O111 O 0.9901 0.7344 0.76113 0.0
Co112 Co 0.24161 0.92713 0.10186 0.0
O113 O 0.1715 0.89173 0.10159 0.0
O114 O 0.21526 0.87908 0.1245 0.0
C115 C 0.25436 0.92859 0.06659 0.0
O116 O 0.31468 0.95532 0.10686 0.0
Co117 Co 0.29923 0.02732 0.07953 0.0
O118 O 0.35666 0.02493 0.0889 0.0
C119 C 0.23631 1.01243 0.11554 0.0
C120 C 0.17262 0.86946 0.11851 0.0
C121 C 0.35483 0.99198 0.10074 0.0
O122 O 0.23882 0.97525 0.12103 0.0
O123 O 0.25318 0.03451 0.0981 0.0
O124 O 0.2457 0.89052 0.07741 0.0
O125 O 0.25055 0.96064 0.07686 0.0
Co126 Co 0.31835 0.24158 0.44192 0.0
O127 O 0.27919 0.1721 0.44031 0.0
O128 O 0.34605 0.20972 0.45858 0.0
C129 C 0.31397 0.25945 0.40741 0.0
O130 O 0.36819 0.31392 0.44686 0.0
Co131 Co 0.26916 0.30256 0.43208 0.0
O132 O 0.33518 0.35712 0.43491 0.0
C133 C 0.23511 0.22854 0.46451 0.0
C134 C 0.30776 0.16913 0.4539 0.0
C135 C 0.37085 0.35457 0.44212 0.0
O136 O 0.27846 0.23781 0.46691 0.0
O137 O 0.22281 0.24757 0.44988 0.0
O138 O 0.34522 0.24684 0.41295 0.0
O139 O 0.28495 0.25543 0.42209 0.0
Co140 Co 0.0924 0.29964 0.77104 0.0
O141 O 0.13277 0.2705 0.77019 0.0
O142 O 0.1424 0.32643 0.79279 0.0
C143 C 0.08574 0.30726 0.73569 0.0
O144 O 0.05821 0.33904 0.77623 0.0
Co145 Co 0.98985 0.24635 0.75072 0.0
O146 O 0.99037 0.30701 0.75683 0.0
C147 C 1.01812 0.20467 0.78497 0.0
C148 C 0.15484 0.29544 0.78678 0.0
C149 C 0.02119 0.34009 0.76871 0.0
O150 O 0.04927 0.2472 0.791 0.0
O151 O 0.99437 0.19652 0.76782 0.0
O152 O 0.1237 0.34008 0.74555 0.0
O153 O 0.05769 0.27117 0.74701 0.0
Co154 Co 0.80092 0.09695 0.10566 0.0
O155 O 0.87078 0.13013 0.10376 0.0
O156 O 0.83088 0.15254 0.12454 0.0
C157 C 0.78331 0.0815 0.07074 0.0
O158 O 0.72863 0.07237 0.11145 0.0
Co159 Co 0.73954 0.98932 0.09183 0.0
O160 O 0.68385 0.9961 0.09978 0.0
C161 C 0.81441 0.02229 0.1238 0.0
C162 C 0.87231 0.15827 0.1188 0.0
C163 C 0.68756 0.03392 0.10803 0.0
O164 O 0.80585 0.05615 0.12835 0.0
O165 O 0.79518 0.99452 0.10801 0.0
O166 O 0.79474 0.1238 0.07816 0.0
O167 O 0.78775 0.05395 0.08394 0.0
H168 H 0.88348 0.20249 0.15734 0.0
H169 H 0.96469 0.18224 0.10842 0.0
H170 H 0.9559 0.24322 0.1791 0.0
H171 H 0.03707 0.22306 0.13009 0.0
H172 H 0.16914 0.33128 0.16837 0.0
H173 H 0.09768 0.29962 0.1459 0.0
H174 H 1.00875 0.2231 0.19923 0.0
H175 H 0.08002 0.25454 0.22157 0.0
C176 C 0.9169 0.20741 0.15101 0.0
C177 C 0.91789 0.18912 0.13094 0.0
C178 C 0.95855 0.23044 0.16364 0.0
C179 C 1.00284 0.23655 0.15655 0.0
C180 C 1.00408 0.21967 0.13616 0.0
C181 C 0.96232 0.19609 0.12366 0.0
C182 C 0.13431 0.3082 0.17539 0.0
C183 C 0.13072 0.29583 0.19692 0.0
C184 C 0.09317 0.28961 0.16242 0.0
C185 C 0.0469 0.2585 0.17058 0.0
C186 C 0.04335 0.24724 0.19227 0.0
C187 C 0.08448 0.26527 0.20514 0.0
H188 H 0.80513 0.14665 0.51573 0.0
H189 H 0.89547 0.09772 0.54346 0.0
H190 H 0.76491 0.07271 0.49439 0.0
H191 H 0.85673 0.0254 0.52172 0.0
H192 H 0.82383 0.94652 0.4559 0.0
H193 H 0.8549 0.01821 0.47784 0.0
H194 H 0.71318 0.96927 0.50252 0.0
H195 H 0.68184 0.89578 0.48095 0.0
C196 C 0.81611 0.12005 0.51748 0.0
C197 C 0.85338 0.12828 0.53158 0.0
C198 C 0.79302 0.07763 0.50524 0.0
C199 C 0.80755 0.04297 0.50629 0.0
C200 C 0.84452 0.05115 0.52048 0.0
C201 C 0.86659 0.09268 0.53307 0.0
C202 C 0.79886 0.95096 0.46576 0.0
C203 C 0.75001 0.91504 0.46641 0.0
C204 C 0.81691 0.99217 0.47847 0.0
C205 C 0.78668 0.99974 0.49198 0.0
C206 C 0.73747 0.96477 0.49222 0.0
C207 C 0.71949 0.92263 0.47984 0.0
H208 H 0.67125 0.78416 0.85231 0.0
H209 H 0.81172 0.87992 0.87772 0.0
H210 H 0.70546 0.74465 0.83088 0.0
H211 H 0.84564 0.84161 0.85608 0.0
H212 H 0.89697 0.80726 0.794 0.0
H213 H 0.85636 0.83838 0.81573 0.0
H214 H 0.75252 0.69452 0.83481 0.0
H215 H 0.79441 0.66291 0.81328 0.0
C216 C 0.70921 0.79649 0.85355 0.0
C217 C 0.73843 0.83519 0.867 0.0
C218 C 0.72887 0.77379 0.84124 0.0
C219 C 0.77852 0.78997 0.84157 0.0
C220 C 0.80739 0.82821 0.85522 0.0
C221 C 0.78771 0.85004 0.86782 0.0
C222 C 0.86521 0.78185 0.80259 0.0
C223 C 0.84915 0.73227 0.80166 0.0
C224 C 0.84201 0.79993 0.81525 0.0
C225 C 0.80113 0.76921 0.82722 0.0
C226 C 0.78377 0.71937 0.82579 0.0
C227 C 0.80781 0.7012 0.81341 0.0
H228 H 0.96512 0.78445 0.22154 0.0
H229 H 0.87981 0.69 0.17131 0.0
H230 H 0.03675 0.81545 0.1994 0.0
H231 H 0.95152 0.72121 0.14905 0.0
H232 H 0.07825 0.8358 0.10769 0.0
H233 H 1.00687 0.79563 0.13005 0.0
H234 H 0.09442 0.79755 0.18199 0.0
H235 H 0.16585 0.83757 0.15953 0.0
C236 C 0.96165 0.76963 0.20588 0.0
C237 C 0.9163 0.73428 0.19841 0.0
C238 C 1.00299 0.78748 0.19311 0.0
C239 C 1.00047 0.77124 0.17223 0.0
C240 C 0.95521 0.73516 0.16489 0.0
C241 C 0.91395 0.71679 0.1778 0.0
C242 C 0.08233 0.82706 0.12379 0.0
C243 C 0.12821 0.83992 0.13163 0.0
C244 C 0.04114 0.8038 0.13668 0.0
C245 C 0.04433 0.79316 0.15802 0.0
C246 C 0.09019 0.80537 0.16577 0.0
C247 C 0.13131 0.82804 0.15277 0.0
H248 H 0.3618 0.14191 0.47857 0.0
H249 H 0.21673 0.09353 0.4583 0.0
H250 H 0.33216 0.07021 0.50131 0.0
H251 H 0.1875 0.02358 0.48142 0.0
H252 H 0.1673 0.95818 0.55228 0.0
H253 H 0.20392 0.02755 0.52857 0.0
H254 H 0.26577 0.95969 0.4918 0.0
H255 H 0.22755 0.88889 0.5152 0.0
C256 C 0.32381 0.11589 0.47872 0.0
C257 C 0.29191 0.12357 0.46628 0.0
C258 C 0.30682 0.07481 0.49178 0.0
C259 C 0.2574 0.04105 0.49317 0.0
C260 C 0.22572 0.04864 0.48067 0.0
C261 C 0.24269 0.08881 0.46729 0.0
C262 C 0.18915 0.958 0.53933 0.0
C263 C 0.19452 0.91766 0.53585 0.0
C264 C 0.21004 0.99788 0.52567 0.0
C265 C 0.23802 0.99941 0.50833 0.0
C266 C 0.24473 0.95984 0.5051 0.0
C267 C 0.22278 0.91924 0.51852 0.0
H268 H 0.33202 0.18082 0.84019 0.0
H269 H 0.25025 0.18925 0.89219 0.0
H270 H 0.30115 0.22047 0.81729 0.0
H271 H 0.21889 0.22828 0.86933 0.0
H272 H 0.19169 0.32699 0.82674 0.0
H273 H 0.23353 0.29821 0.84952 0.0
H274 H 0.22886 0.20473 0.79967 0.0
H275 H 0.18775 0.2339 0.77697 0.0
C276 C 0.30787 0.19158 0.84685 0.0
C277 C 0.2939 0.1817 0.86818 0.0
C278 C 0.28969 0.21405 0.83361 0.0
C279 C 0.257 0.22768 0.84122 0.0
C280 C 0.24425 0.21905 0.86275 0.0
C281 C 0.26223 0.19637 0.87594 0.0
C282 C 0.20034 0.30094 0.82049 0.0
C283 C 0.18632 0.28313 0.79985 0.0
C284 C 0.22399 0.28391 0.83369 0.0
C285 C 0.23471 0.24866 0.82668 0.0
C286 C 0.22202 0.23215 0.80576 0.0
C287 C 0.19817 0.24892 0.79265 0.0
H288 H 0.60084 0.65885 0.22512 0.0
H289 H 0.66629 0.57168 0.2151 0.0
H290 H 0.52194 0.58836 0.22327 0.0
H291 H 0.58622 0.50031 0.21256 0.0
H292 H 0.443 0.38214 0.24094 0.0
H293 H 0.52204 0.45054 0.23534 0.0
H294 H 0.45919 0.52517 0.20403 0.0
H295 H 0.37887 0.45627 0.21027 0.0
C296 C 0.59854 0.62462 0.22218 0.0
C297 C 0.64053 0.6213 0.22052 0.0
C298 C 0.55278 0.58389 0.2209 0.0
C299 C 0.54698 0.53803 0.21789 0.0
C300 C 0.58892 0.53478 0.21525 0.0
C301 C 0.63505 0.57584 0.21651 0.0
C302 C 0.44561 0.41287 0.23271 0.0
C303 C 0.40387 0.41343 0.22629 0.0
C304 C 0.4915 0.45227 0.22928 0.0
C305 C 0.49774 0.49399 0.21926 0.0
C306 C 0.45613 0.49409 0.2121 0.0
C307 C 0.40987 0.45435 0.21553 0.0
H308 H 0.97563 0.6047 0.58387 0.0
H309 H 0.09414 0.66879 0.53998 0.0
H310 H 0.96259 0.52589 0.57554 0.0
H311 H 0.07996 0.58862 0.53106 0.0
H312 H 0.08158 0.44742 0.54466 0.0
H313 H 0.08956 0.52634 0.54526 0.0
H314 H 0.93587 0.46125 0.55179 0.0
H315 H 0.92821 0.38147 0.55193 0.0
C316 C 0.99877 0.60215 0.57217 0.0
C317 C 0.03633 0.64384 0.56273 0.0
C318 C 0.99079 0.55635 0.56721 0.0
C319 C 0.01989 0.55009 0.55251 0.0
C320 C 0.05696 0.59165 0.54266 0.0
C321 C 0.06511 0.63785 0.54772 0.0
C322 C 0.04921 0.4497 0.54586 0.0
C323 C 1.00421 0.40776 0.54847 0.0
C324 C 0.05384 0.49535 0.54607 0.0
C325 C 1.01358 0.50091 0.54889 0.0
C326 C 0.96801 0.45877 0.55006 0.0
C327 C 0.96337 0.41279 0.54982 0.0
H328 H 0.3552 0.93827 0.89868 0.0
H329 H 0.45245 0.08942 0.88913 0.0
H330 H 0.41931 0.92137 0.89123 0.0
H331 H 0.5178 0.07322 0.88281 0.0
H332 H 0.62807 0.03562 0.86309 0.0
H333 H 0.55746 0.0448 0.86279 0.0
H334 H 0.48604 0.92371 0.90522 0.0
H335 H 0.55612 0.91329 0.90432 0.0
C336 C 0.39044 0.96802 0.89489 0.0
C337 C 0.39853 0.01527 0.89449 0.0
C338 C 0.42761 0.95836 0.89082 0.0
C339 C 0.47462 0.99572 0.88662 0.0
C340 C 0.48231 0.04302 0.88562 0.0
C341 C 0.44473 0.05257 0.8893 0.0
C342 C 0.59655 1.01 0.87178 0.0
C343 C 0.59744 0.97323 0.88344 0.0
C344 C 0.55616 0.01579 0.87196 0.0
C345 C 0.51559 0.98572 0.8843 0.0
C346 C 0.51586 0.94747 0.89525 0.0
C347 C 0.55611 0.94116 0.89471 0.0
H348 H 0.66561 0.59614 0.44958 0.0
H349 H 0.57812 0.663 0.44854 0.0
H350 H 0.59422 0.51743 0.45116 0.0
H351 H 0.506 0.58355 0.45072 0.0
H352 H 0.39244 0.43955 0.42386 0.0
H353 H 0.46307 0.51748 0.42763 0.0
H354 H 0.52499 0.45734 0.46962 0.0
H355 H 0.45328 0.37761 0.46548 0.0
C356 C 0.63105 0.5942 0.44999 0.0
C357 C 0.62791 0.63635 0.44864 0.0
C358 C 0.58987 0.54868 0.45109 0.0
C359 C 0.5439 0.54352 0.45082 0.0
C360 C 0.54069 0.5858 0.45053 0.0
C361 C 0.5821 0.63158 0.4495 0.0
C362 C 0.42077 0.44247 0.43407 0.0
C363 C 0.41653 0.40172 0.4445 0.0
C364 C 0.46147 0.48777 0.43637 0.0
C365 C 0.49985 0.49451 0.44923 0.0
C366 C 0.49626 0.45376 0.45952 0.0
C367 C 0.45513 0.40791 0.45717 0.0
H368 H 0.91281 0.54441 0.7747 0.0
H369 H 0.0637 0.62498 0.78975 0.0
H370 H 0.91673 0.47003 0.77533 0.0
H371 H 0.06817 0.55249 0.78952 0.0
H372 H 0.066 0.41312 0.79818 0.0
H373 H 0.05251 0.48041 0.80444 0.0
H374 H 0.94579 0.42874 0.75502 0.0
H375 H 0.95784 0.36113 0.74944 0.0
C376 C 0.94656 0.5463 0.77839 0.0
C377 C 0.98792 0.59099 0.78194 0.0
C378 C 0.94911 0.50369 0.77852 0.0
C379 C 0.99302 0.50473 0.78229 0.0
C380 C 0.03354 0.54938 0.7868 0.0
C381 C 0.03098 0.59146 0.78669 0.0
C382 C 0.03948 0.41599 0.78875 0.0
C383 C 1.01329 0.38141 0.77327 0.0
C384 C 0.03174 0.45483 0.79226 0.0
C385 C 0.99798 0.46067 0.7802 0.0
C386 C 0.97139 0.42554 0.76496 0.0
C387 C 0.97877 0.38666 0.76162 0.0
H388 H 0.38048 0.92229 0.10369 0.0
H389 H 0.43649 0.07421 0.11113 0.0
H390 H 0.46115 0.93437 0.10806 0.0
H391 H 0.51647 0.08643 0.11686 0.0
H392 H 0.66269 0.10266 0.09996 0.0
H393 H 0.58223 0.09226 0.10062 0.0
H394 H 0.52721 0.95058 0.12746 0.0
H395 H 0.60706 0.96038 0.12542 0.0
C396 C 0.40986 0.9581 0.10689 0.0
C397 C 0.40193 0.99721 0.10702 0.0
C398 C 0.45648 0.96527 0.10946 0.0
C399 C 0.49646 1.01172 0.11266 0.0
C400 C 0.4876 0.05032 0.11384 0.0
C401 C 0.44134 0.04324 0.11081 0.0
C402 C 0.6335 0.06979 0.10641 0.0
C403 C 0.64142 0.03248 0.11268 0.0
C404 C 0.58696 0.06356 0.1068 0.0
C405 C 0.54706 0.02011 0.11388 0.0
C406 C 0.55601 0.98401 0.12129 0.0
C407 C 0.6022 0.98989 0.12045 0.0
H408 H 0.23053 0.09303 0.10978 0.0
H409 H 0.19433 0.97747 0.15414 0.0
H410 H 0.2103 0.13467 0.13558 0.0
H411 H 0.17185 0.01883 0.18004 0.0
H412 H 0.18398 0.21356 0.18309 0.0
H413 H 0.15997 0.14671 0.1587 0.0
H414 H 0.22502 0.08765 0.19972 0.0
H415 H 0.24688 0.15255 0.22421 0.0
C416 C 0.21719 0.07591 0.12493 0.0
C417 C 0.21585 0.03284 0.13022 0.0
C418 C 0.2047 0.09954 0.13969 0.0
C419 C 0.19018 0.08047 0.16004 0.0
C420 C 0.18402 0.03491 0.16462 0.0
C421 C 0.19704 1.01136 0.14984 0.0
C422 C 0.19241 0.18578 0.18696 0.0
C423 C 0.21858 0.18899 0.20519 0.0
C424 C 0.17845 0.14743 0.17309 0.0
C425 C 0.19127 0.11228 0.17708 0.0
C426 C 0.21403 0.11368 0.19618 0.0
C427 C 0.22733 0.15149 0.21013 0.0
H428 H 1.01458 0.21869 0.49819 0.0
H429 H 0.0356 0.16883 0.55831 0.0
H430 H 0.05477 0.18116 0.48071 0.0
H431 H 0.0755 0.13088 0.54092 0.0
H432 H 0.15169 0.15395 0.45154 0.0
H433 H 0.07714 0.11874 0.47163 0.0
H434 H 0.15764 0.19084 0.5276 0.0
H435 H 0.23193 0.22562 0.50744 0.0
C436 C 0.02577 0.19775 0.50749 0.0
C437 C 0.02414 0.19821 0.52951 0.0
C438 C 0.04845 0.1758 0.49754 0.0
C439 C 0.06951 0.15431 0.50963 0.0
C440 C 0.06041 0.14799 0.53134 0.0
C441 C 0.03803 0.17007 0.54124 0.0
C442 C 0.15338 0.16021 0.4684 0.0
C443 C 0.19674 0.1936 0.47799 0.0
C444 C 0.11084 0.13988 0.47986 0.0
C445 C 0.11149 0.15337 0.50091 0.0
C446 C 0.15597 0.17999 0.51131 0.0
C447 C 0.19864 0.20024 0.49981 0.0
H448 H 0.98803 0.11359 0.77251 0.0
H449 H 0.02 0.20232 0.82796 0.0
H450 H 0.94293 0.04182 0.79398 0.0
H451 H 0.97426 0.13095 0.84938 0.0
H452 H 0.87138 0.01713 0.88436 0.0
H453 H 0.94571 0.05129 0.86417 0.0
H454 H 0.86433 0.02532 0.80654 0.0
H455 H 0.79014 0.98992 0.82683 0.0
C456 C 0.98656 0.11755 0.78943 0.0
C457 C 1.00547 0.16322 0.7986 0.0
C458 C 0.96106 0.0765 0.80168 0.0
C459 C 0.9537 0.08081 0.82316 0.0
C460 C 0.97903 0.12632 0.8328 0.0
C461 C 1.00495 0.16742 0.82054 0.0
C462 C 0.86954 0.01726 0.86728 0.0
C463 C 0.82579 1.0029 0.85699 0.0
C464 C 0.91194 0.03647 0.85577 0.0
C465 C 0.91099 0.04241 0.83391 0.0
C466 C 0.86635 0.02142 0.82343 0.0
C467 C 0.82378 1.00154 0.83498 0.0
H468 H 0.82301 0.02648 0.16666 0.0
H469 H 0.87862 0.99832 0.10985 0.0
H470 H 0.85582 0.98576 0.1873 0.0
H471 H 0.91242 0.95839 0.13044 0.0
H472 H 0.82358 0.80551 0.16533 0.0
H473 H 0.85477 0.8784 0.14431 0.0
H474 H 0.9146 0.96427 0.20045 0.0
H475 H 0.88249 0.89115 0.22144 0.0
C476 C 0.84419 0.01352 0.15877 0.0
C477 C 0.84683 0.01356 0.13677 0.0
C478 C 0.8634 0.9905 0.17054 0.0
C479 C 0.88549 0.96766 0.16031 0.0
C480 C 0.89463 0.97471 0.13861 0.0
C481 C 0.87507 0.99726 0.12688 0.0
C482 C 0.84511 0.83992 0.17297 0.0
C483 C 0.8491 0.84319 0.19493 0.0
C484 C 0.8634 0.88181 0.16097 0.0
C485 C 0.88593 0.92706 0.17093 0.0
C486 C 0.89645 0.92988 0.1925 0.0
C487 C 0.87783 0.88811 0.20447 0.0
H488 H 0.8982 0.87661 0.45547 0.0
H489 H 0.79831 0.80536 0.50638 0.0
H490 H 0.96486 0.90831 0.48034 0.0
H491 H 0.86465 0.83463 0.53116 0.0
H492 H 0.98027 0.86062 0.57164 0.0
H493 H 0.9358 0.88774 0.55008 0.0
H494 H 0.99119 0.85643 0.49381 0.0
H495 H 0.03664 0.83108 0.51531 0.0
C496 C 0.89063 0.8688 0.47213 0.0
C497 C 0.84381 0.83734 0.47913 0.0
C498 C 0.92863 0.88697 0.48632 0.0
C499 C 0.92022 0.87251 0.50753 0.0
C500 C 0.87255 0.84638 0.5149 0.0
C501 C 0.83442 0.82911 0.50072 0.0
C502 C 0.98366 0.86058 0.55463 0.0
C503 C 1.01026 0.84196 0.54504 0.0
C504 C 0.95846 0.87639 0.54233 0.0
C505 C 0.95896 0.87315 0.52028 0.0
C506 C 0.98999 0.85964 0.51077 0.0
C507 C 1.01564 0.84439 0.52308 0.0
H508 H 0.20593 1.01123 0.85188 0.0
H509 H 0.13201 0.96349 0.91169 0.0
H510 H 0.13335 0.95139 0.83382 0.0
H511 H 0.06056 0.90308 0.89356 0.0
H512 H 0.98468 0.83133 0.81087 0.0
H513 H 0.02179 0.90277 0.83354 0.0
H514 H 0.09126 0.84054 0.86933 0.0
H515 H 0.05599 0.77042 0.84616 0.0
C516 C 0.17381 0.98944 0.86107 0.0
C517 C 0.17508 0.99063 0.88318 0.0
C518 C 0.13226 0.95554 0.85075 0.0
C519 C 0.09207 0.92281 0.8625 0.0
C520 C 0.0913 0.9282 0.88432 0.0
C521 C 0.13244 0.96235 0.89461 0.0
C522 C 1.00612 0.83224 0.82424 0.0
C523 C 1.01754 0.79586 0.82712 0.0
C524 C 0.02729 0.87291 0.83703 0.0
C525 C 0.05888 0.87648 0.85301 0.0
C526 C 0.06628 0.83781 0.85719 0.0
C527 C 0.04614 0.79782 0.84409 0.0
H528 H 0.25888 0.29844 0.39782 0.0
H529 H 0.36367 0.26859 0.37004 0.0
H530 H 0.25034 0.33053 0.36493 0.0
H531 H 0.35309 0.29931 0.33601 0.0
H532 H 0.34249 0.38303 0.27992 0.0
H533 H 0.36295 0.36867 0.3154 0.0
H534 H 0.21285 0.29791 0.33236 0.0
H535 H 0.19314 0.3127 0.2971 0.0
C536 C 0.28047 0.29879 0.38469 0.0
C537 C 0.31204 0.28063 0.38674 0.0
C538 C 0.27509 0.31701 0.3656 0.0
C539 C 0.30037 0.31705 0.34761 0.0
C540 C 0.33319 0.30018 0.3496 0.0
C541 C 0.33907 0.28224 0.36903 0.0
C542 C 0.31429 0.36623 0.29158 0.0
C543 C 0.26635 0.35013 0.28596 0.0
C544 C 0.32587 0.35714 0.31178 0.0
C545 C 0.28963 0.33165 0.32678 0.0
C546 C 0.24198 0.31822 0.32143 0.0
C547 C 0.23054 0.32722 0.30126 0.0
H548 H 0.89976 0.24718 0.62742 0.0
H549 H 0.04286 0.33548 0.60288 0.0
H550 H 0.932 0.26651 0.66343 0.0
H551 H 0.07495 0.35374 0.63837 0.0
H552 H 0.11832 0.38633 0.70859 0.0
H553 H 0.08272 0.38786 0.67425 0.0
H554 H 0.97983 0.23682 0.68073 0.0
H555 H 1.01479 0.2351 0.714 0.0
C556 C 0.93775 0.27172 0.62967 0.0
C557 C 0.96878 0.28897 0.61229 0.0
C558 C 0.9564 0.28254 0.65026 0.0
C559 C 1.00634 0.31097 0.65379 0.0
C560 C 0.03649 0.33183 0.63634 0.0
C561 C 1.01795 0.32084 0.61589 0.0
C562 C 0.08836 0.35362 0.7025 0.0
C563 C 0.06945 0.31075 0.71413 0.0
C564 C 0.06766 0.35447 0.68297 0.0
C565 C 0.02748 0.31264 0.67497 0.0
C566 C 1.00949 0.27006 0.68661 0.0
C567 C 0.03018 0.26909 0.70571 0.0
H568 H 0.76509 0.12587 0.03699 0.0
H569 H 0.75645 0.99284 0.05613 0.0
H570 H 0.73484 0.09109 0.00187 0.0
H571 H 0.72732 0.9591 0.02185 0.0
H572 H 0.65413 0.89395 0.96135 0.0
H573 H 0.66357 0.92882 0.99668 0.0
H574 H 0.7651 0.06855 0.9718 0.0
H575 H 0.7551 0.03441 0.93701 0.0
C576 C 0.75648 0.08936 0.03383 0.0
C577 C 0.76337 0.06242 0.04945 0.0
C578 C 0.73916 0.06932 0.01374 0.0
C579 C 0.7282 0.02194 0.009 0.0
C580 C 0.73412 0.99507 0.0249 0.0
C581 C 0.75144 0.01493 0.04468 0.0
C582 C 0.67779 0.93216 0.96344 0.0
C583 C 0.70413 0.96109 0.94635 0.0
C584 C 0.68342 0.95225 0.98368 0.0
C585 C 0.71546 1.00166 0.98719 0.0
C586 C 0.73971 0.03068 0.9698 0.0
C587 C 0.7342 1.01073 0.94975 0.0
H588 H 0.77675 0.65054 0.29504 0.0
H589 H 0.75321 0.76574 0.27542 0.0
H590 H 0.7513 0.65687 0.33103 0.0
H591 H 0.72828 0.77169 0.31037 0.0
H592 H 0.66371 0.76502 0.37312 0.0
H593 H 0.66913 0.73632 0.33791 0.0
H594 H 0.78536 0.71642 0.35933 0.0
H595 H 0.77968 0.7442 0.39406 0.0
C596 C 0.76557 0.67653 0.29823 0.0
C597 C 0.76714 0.70749 0.28221 0.0
C598 C 0.75106 0.68031 0.31881 0.0
C599 C 0.73733 0.71468 0.32362 0.0
C600 C 0.73744 0.74413 0.30732 0.0
C601 C 0.75226 0.74077 0.2871 0.0
C602 C 0.68992 0.75394 0.37032 0.0
C603 C 0.72149 0.75747 0.3864 0.0
C604 C 0.69314 0.73749 0.35017 0.0
C605 C 0.72789 0.72411 0.34571 0.0
C606 C 0.75777 0.72563 0.36214 0.0
C607 C 0.75471 0.74216 0.38211 0.0
H608 H 0.14614 0.8481 0.6368 0.0
H609 H 0.06657 0.70085 0.61654 0.0
H610 H 0.1106 0.82451 0.67186 0.0
H611 H 0.03053 0.67667 0.65167 0.0
H612 H 0.9276 0.67014 0.70602 0.0
H613 H 0.97066 0.68597 0.67227 0.0
H614 H 0.10364 0.78184 0.70385 0.0
H615 H 0.06111 0.76723 0.73694 0.0
C616 C 0.12278 0.81032 0.64019 0.0
C617 C 0.11012 0.77621 0.62411 0.0
C618 C 0.10181 0.7967 0.66023 0.0
C619 C 0.0671 0.7486 0.66462 0.0
C620 C 0.05647 0.71407 0.6488 0.0
C621 C 0.07777 0.72777 0.62878 0.0
C622 C 0.96602 0.69436 0.70569 0.0
C623 C 0.99066 0.71754 0.72422 0.0
C624 C 0.99084 0.70324 0.68639 0.0
C625 C 0.04078 0.7355 0.68525 0.0
C626 C 0.06524 0.75746 0.70395 0.0
C627 C 0.04063 0.74874 0.72305 0.0
H628 H 0.34587 0.96181 0.05248 0.0
H629 H 0.2043 0.92765 0.03263 0.0
H630 H 0.38029 1.01291 0.02106 0.0
H631 H 0.2382 0.97831 1.00152 0.0
H632 H 0.30762 0.1202 0.97038 0.0
H633 H 0.29096 0.07129 0.00206 0.0
H634 H 0.37819 0.01492 0.9781 0.0
H635 H 0.39503 0.06447 0.94624 0.0
C636 C 0.32194 0.96314 0.04082 0.0
C637 C 0.27223 0.93972 0.0447 0.0
C638 C 0.3417 0.99303 0.02304 0.0
C639 C 0.31205 1.00057 0.00911 0.0
C640 C 0.26209 0.97397 0.01217 0.0
C641 C 0.2425 0.94405 0.02974 0.0
C642 C 0.32561 0.09961 0.97241 0.0
C643 C 0.35331 0.09691 0.95596 0.0
C644 C 0.31513 0.07065 0.99034 0.0
C645 C 0.33215 0.0382 0.9923 0.0
C646 C 0.36432 0.03933 0.97699 0.0
C647 C 0.37463 0.06833 0.95889 0.0
loop_
_geom_bond_atom_site_label_1
_geom_bond_atom_site_label_2
_geom_bond_distance
_geom_bond_site_symmetry_2
_ccdc_geom_bond_type
Co0 O1 2.216 . S
Co0 O2 2.091 . S
Co0 O4 2.004 . S
Co0 O10 2.021 . S
Co0 O12 2.137 . S
Co0 O13 2.244 . S
O1 Co0 2.216 . S
O1 C8 1.247 . S
O2 Co0 2.091 . S
O2 C8 1.261 . S
C3 O12 1.247 . S
C3 O13 1.272 . S
O4 Co0 2.004 . S
O4 C9 1.259 . S
Co5 O6 2.061 . S
Co5 O11 2.052 . S
Co5 O13 2.135 . S
O6 Co5 2.061 . S
O6 C9 1.235 . S
C7 O10 1.238 . S
C7 O11 1.241 . S
C8 O1 1.247 . S
C8 O2 1.261 . S
C9 O4 1.259 . S
C9 O6 1.235 . S
O10 Co0 2.021 . S
O10 C7 1.238 . S
O11 Co5 2.052 . S
O11 C7 1.241 . S
O12 Co0 2.137 . S
O12 C3 1.247 . S
O13 Co0 2.244 . S
O13 C3 1.272 . S
O13 Co5 2.135 . S
Co14 O15 2.216 . S
Co14 O16 2.091 . S
Co14 O18 2.004 . S
Co14 O24 2.021 . S
Co14 O26 2.137 . S
Co14 O27 2.244 . S
O15 Co14 2.216 . S
O15 C22 1.247 . S
O16 Co14 2.091 . S
O16 C22 1.261 . S
C17 O26 1.247 . S
C17 O27 1.272 . S
O18 Co14 2.004 . S
O18 C23 1.259 . S
Co19 O20 2.061 . S
Co19 O25 2.052 . S
Co19 O27 2.135 1_455 S
O20 Co19 2.061 . S
O20 C23 1.235 1_455 S
C21 O24 1.238 1_455 S
C21 O25 1.241 . S
C22 O15 1.247 . S
C22 O16 1.261 . S
C23 O18 1.259 . S
C23 O20 1.235 1_655 S
O24 Co14 2.021 . S
O24 C21 1.238 1_655 S
O25 Co19 2.052 . S
O25 C21 1.241 . S
O26 Co14 2.137 . S
O26 C17 1.247 . S
O27 Co14 2.244 . S
O27 C17 1.272 . S
O27 Co19 2.135 1_655 S
Co28 O29 2.216 . S
Co28 O30 2.091 . S
Co28 O32 2.004 . S
Co28 O38 2.021 . S
Co28 O40 2.137 . S
Co28 O41 2.244 . S
O29 Co28 2.216 . S
O29 C36 1.247 . S
O30 Co28 2.091 . S
O30 C36 1.261 . S
C31 O40 1.247 . S
C31 O41 1.272 . S
O32 Co28 2.004 . S
O32 C37 1.259 . S
Co33 O34 2.061 . S
Co33 O39 2.052 . S
Co33 O41 2.135 1_545 S
O34 Co33 2.061 . S
O34 C37 1.235 1_545 S
C35 O38 1.238 1_545 S
C35 O39 1.241 . S
C36 O29 1.247 . S
C36 O30 1.261 . S
C37 O32 1.259 . S
C37 O34 1.235 1_565 S
O38 Co28 2.021 . S
O38 C35 1.238 1_565 S
O39 Co33 2.052 . S
O39 C35 1.241 . S
O40 Co28 2.137 . S
O40 C31 1.247 . S
O41 Co28 2.244 . S
O41 C31 1.272 . S
O41 Co33 2.135 1_565 S
Co42 O43 2.216 . S
Co42 O44 2.091 . S
Co42 O46 2.004 . S
Co42 O52 2.021 . S
Co42 O54 2.137 . S
Co42 O55 2.244 . S
O43 Co42 2.216 . S
O43 C50 1.247 . S
O44 Co42 2.091 . S
O44 C50 1.261 . S
C45 O54 1.247 . S
C45 O55 1.272 . S
O46 Co42 2.004 . S
O46 C51 1.259 . S
Co47 O48 2.061 . S
Co47 O53 2.052 . S
Co47 O55 2.135 . S
O48 Co47 2.061 . S
O48 C51 1.235 . S
C49 O52 1.238 . S
C49 O53 1.241 . S
C50 O43 1.247 . S
C50 O44 1.261 . S
C51 O46 1.259 . S
C51 O48 1.235 . S
O52 Co42 2.021 . S
O52 C49 1.238 . S
O53 Co47 2.052 . S
O53 C49 1.241 . S
O54 Co42 2.137 . S
O54 C45 1.247 . S
O55 Co42 2.244 . S
O55 C45 1.272 . S
O55 Co47 2.135 . S
Co56 O57 2.216 . S
Co56 O58 2.091 . S
Co56 O60 2.004 . S
Co56 O66 2.021 . S
Co56 O68 2.137 . S
Co56 O69 2.244 . S
O57 Co56 2.216 . S
O57 C64 1.247 . S
O58 Co56 2.091 . S
O58 C64 1.261 . S
C59 O68 1.247 . S
C59 O69 1.272 . S
O60 Co56 2.004 . S
O60 C65 1.259 . S
Co61 O62 2.061 . S
Co61 O67 2.052 . S
Co61 O69 2.135 1_655 S
O62 Co61 2.061 . S
O62 C65 1.235 1_655 S
C63 O66 1.238 1_655 S
C63 O67 1.241 . S
C64 O57 1.247 . S
C64 O58 1.261 . S
C65 O60 1.259 . S
C65 O62 1.235 1_455 S
O66 Co56 2.021 . S
O66 C63 1.238 1_455 S
O67 Co61 2.052 . S
O67 C63 1.241 . S
O68 Co56 2.137 . S
O68 C59 1.247 . S
O69 Co56 2.244 . S
O69 C59 1.272 . S
O69 Co61 2.135 1_455 S
Co70 O71 2.216 . S
Co70 O72 2.091 . S
Co70 O74 2.004 . S
Co70 O80 2.021 . S
Co70 O82 2.137 . S
Co70 O83 2.244 . S
O71 Co70 2.216 . S
O71 C78 1.247 . S
O72 Co70 2.091 . S
O72 C78 1.261 . S
C73 O82 1.247 . S
C73 O83 1.272 . S
O74 Co70 2.004 . S
O74 C79 1.259 . S
Co75 O76 2.061 . S
Co75 O81 2.052 . S
Co75 O83 2.135 1_565 S
O76 Co75 2.061 . S
O76 C79 1.235 1_565 S
C77 O80 1.238 1_565 S
C77 O81 1.241 . S
C78 O71 1.247 . S
C78 O72 1.261 . S
C79 O74 1.259 . S
C79 O76 1.235 1_545 S
O80 Co70 2.021 . S
O80 C77 1.238 1_545 S
O81 Co75 2.052 . S
O81 C77 1.241 . S
O82 Co70 2.137 . S
O82 C73 1.247 . S
O83 Co70 2.244 . S
O83 C73 1.272 . S
O83 Co75 2.135 1_545 S
Co84 O85 2.216 . S
Co84 O86 2.091 . S
Co84 O88 2.004 . S
Co84 O94 2.021 . S
Co84 O96 2.137 . S
Co84 O97 2.244 . S
O85 Co84 2.216 . S
O85 C92 1.247 . S
O86 Co84 2.091 . S
O86 C92 1.261 . S
C87 O96 1.247 . S
C87 O97 1.272 . S
O88 Co84 2.004 . S
O88 C93 1.259 . S
Co89 O90 2.061 . S
Co89 O95 2.052 . S
Co89 O97 2.135 . S
O90 Co89 2.061 . S
O90 C93 1.235 . S
C91 O94 1.238 . S
C91 O95 1.241 . S
C92 O85 1.247 . S
C92 O86 1.261 . S
C93 O88 1.259 . S
C93 O90 1.235 . S
O94 Co84 2.021 . S
O94 C91 1.238 . S
O95 Co89 2.052 . S
O95 C91 1.241 . S
O96 Co84 2.137 . S
O96 C87 1.247 . S
O97 Co84 2.244 . S
O97 C87 1.272 . S
O97 Co89 2.135 . S
Co98 O99 2.216 . S
Co98 O100 2.091 . S
Co98 O102 2.004 . S
Co98 O108 2.021 . S
Co98 O110 2.137 . S
Co98 O111 2.244 . S
O99 Co98 2.216 . S
O99 C106 1.247 . S
O100 Co98 2.091 . S
O100 C106 1.261 . S
C101 O110 1.247 . S
C101 O111 1.272 . S
O102 Co98 2.004 . S
O102 C107 1.259 . S
Co103 O104 2.061 . S
Co103 O109 2.052 . S
Co103 O111 2.135 1_455 S
O104 Co103 2.061 . S
O104 C107 1.235 1_455 S
C105 O108 1.238 1_455 S
C105 O109 1.241 . S
C106 O99 1.247 . S
C106 O100 1.261 . S
C107 O102 1.259 . S
C107 O104 1.235 1_655 S
O108 Co98 2.021 . S
O108 C105 1.238 1_655 S
O109 Co103 2.052 . S
O109 C105 1.241 . S
O110 Co98 2.137 . S
O110 C101 1.247 . S
O111 Co98 2.244 . S
O111 C101 1.272 . S
O111 Co103 2.135 1_655 S
Co112 O113 2.216 . S
Co112 O114 2.091 . S
Co112 O116 2.004 . S
Co112 O122 2.021 . S
Co112 O124 2.137 . S
Co112 O125 2.244 . S
O113 Co112 2.216 . S
O113 C120 1.247 . S
O114 Co112 2.091 . S
O114 C120 1.261 . S
C115 O124 1.247 . S
C115 O125 1.272 . S
O116 Co112 2.004 . S
O116 C121 1.259 . S
Co117 O118 2.061 . S
Co117 O123 2.052 . S
Co117 O125 2.135 1_545 S
O118 Co117 2.061 . S
O118 C121 1.235 1_545 S
C119 O122 1.238 1_545 S
C119 O123 1.241 . S
C120 O113 1.247 . S
C120 O114 1.261 . S
C121 O116 1.259 . S
C121 O118 1.235 1_565 S
O122 Co112 2.021 . S
O122 C119 1.238 1_565 S
O123 Co117 2.052 . S
O123 C119 1.241 . S
O124 Co112 2.137 . S
O124 C115 1.247 . S
O125 Co112 2.244 . S
O125 C115 1.272 . S
O125 Co117 2.135 1_565 S
Co126 O127 2.216 . S
Co126 O128 2.091 . S
Co126 O130 2.004 . S
Co126 O136 2.021 . S
Co126 O138 2.137 . S
Co126 O139 2.244 . S
O127 Co126 2.216 . S
O127 C134 1.247 . S
O128 Co126 2.091 . S
O128 C134 1.261 . S
C129 O138 1.247 . S
C129 O139 1.272 . S
O130 Co126 2.004 . S
O130 C135 1.259 . S
Co131 O132 2.061 . S
Co131 O137 2.052 . S
Co131 O139 2.135 . S
O132 Co131 2.061 . S
O132 C135 1.235 . S
C133 O136 1.238 . S
C133 O137 1.241 . S
C134 O127 1.247 . S
C134 O128 1.261 . S
C135 O130 1.259 . S
C135 O132 1.235 . S
O136 Co126 2.021 . S
O136 C133 1.238 . S
O137 Co131 2.052 . S
O137 C133 1.241 . S
O138 Co126 2.137 . S
O138 C129 1.247 . S
O139 Co126 2.244 . S
O139 C129 1.272 . S
O139 Co131 2.135 . S
Co140 O141 2.216 . S
Co140 O142 2.091 . S
Co140 O144 2.004 . S
Co140 O150 2.021 . S
Co140 O152 2.137 . S
Co140 O153 2.244 . S
O141 Co140 2.216 . S
O141 C148 1.247 . S
O142 Co140 2.091 . S
O142 C148 1.261 . S
C143 O152 1.247 . S
C143 O153 1.272 . S
O144 Co140 2.004 . S
O144 C149 1.259 . S
Co145 O146 2.061 . S
Co145 O151 2.052 . S
Co145 O153 2.135 1_655 S
O146 Co145 2.061 . S
O146 C149 1.235 1_655 S
C147 O150 1.238 1_655 S
C147 O151 1.241 . S
C148 O141 1.247 . S
C148 O142 1.261 . S
C149 O144 1.259 . S
C149 O146 1.235 1_455 S
O150 Co140 2.021 . S
O150 C147 1.238 1_455 S
O151 Co145 2.052 . S
O151 C147 1.241 . S
O152 Co140 2.137 . S
O152 C143 1.247 . S
O153 Co140 2.244 . S
O153 C143 1.272 . S
O153 Co145 2.135 1_455 S
Co154 O155 2.216 . S
Co154 O156 2.091 . S
Co154 O158 2.004 . S
Co154 O164 2.021 . S
Co154 O166 2.137 . S
Co154 O167 2.244 . S
O155 Co154 2.216 . S
O155 C162 1.247 . S
O156 Co154 2.091 . S
O156 C162 1.261 . S
C157 O166 1.247 . S
C157 O167 1.272 . S
O158 Co154 2.004 . S
O158 C163 1.259 . S
Co159 O160 2.061 . S
Co159 O165 2.052 . S
Co159 O167 2.135 1_565 S
O160 Co159 2.061 . S
O160 C163 1.235 1_565 S
C161 O164 1.238 1_565 S
C161 O165 1.241 . S
C162 O155 1.247 . S
C162 O156 1.261 . S
C163 O158 1.259 . S
C163 O160 1.235 1_545 S
O164 Co154 2.021 . S
O164 C161 1.238 1_545 S
O165 Co159 2.052 . S
O165 C161 1.241 . S
O166 Co154 2.137 . S
O166 C157 1.247 . S
O167 Co154 2.244 . S
O167 C157 1.272 . S
O167 Co159 2.135 1_545 S
H168 C176 0.950 . S
H169 C181 0.950 . S
H170 C178 0.950 . S
H171 C180 0.950 1_455 S
H172 C182 0.950 . S
H173 C184 0.950 . S
H174 C186 0.950 1_655 S
H175 C187 0.950 . S
C176 H168 0.950 . S
C176 C177 1.386 . S
C176 C178 1.391 . S
C177 C176 1.386 . S
C177 C181 1.393 . S
C178 H170 0.950 . S
C178 C176 1.391 . S
C178 C179 1.400 . S
C179 C178 1.400 . S
C179 C180 1.398 . S
C179 C185 1.491 1_655 S
C180 H171 0.950 1_655 S
C180 C179 1.398 . S
C180 C181 1.391 . S
C181 H169 0.950 . S
C181 C177 1.393 . S
C181 C180 1.391 . S
C182 H172 0.950 . S
C182 C183 1.386 . S
C182 C184 1.391 . S
C183 C182 1.386 . S
C183 C187 1.393 . S
C184 H173 0.950 . S
C184 C182 1.391 . S
C184 C185 1.400 . S
C185 C179 1.491 1_455 S
C185 C184 1.400 . S
C185 C186 1.398 . S
C186 H174 0.950 1_455 S
C186 C185 1.398 . S
C186 C187 1.391 . S
C187 H175 0.950 . S
C187 C183 1.393 . S
C187 C186 1.391 . S
H188 C196 0.950 . S
H189 C201 0.950 . S
H190 C198 0.950 . S
H191 C200 0.950 . S
H192 C202 0.950 . S
H193 C204 0.950 . S
H194 C206 0.950 . S
H195 C207 0.950 . S
C196 H188 0.950 . S
C196 C197 1.386 . S
C196 C198 1.391 . S
C197 C196 1.386 . S
C197 C201 1.393 . S
C198 H190 0.950 . S
C198 C196 1.391 . S
C198 C199 1.400 . S
C199 C198 1.400 . S
C199 C200 1.398 . S
C199 C205 1.491 1_545 S
C200 H191 0.950 . S
C200 C199 1.398 . S
C200 C201 1.391 . S
C201 H189 0.950 . S
C201 C197 1.393 . S
C201 C200 1.391 . S
C202 H192 0.950 . S
C202 C203 1.386 . S
C202 C204 1.391 . S
C203 C202 1.386 . S
C203 C207 1.393 . S
C204 H193 0.950 . S
C204 C202 1.391 . S
C204 C205 1.400 . S
C205 C199 1.491 1_565 S
C205 C204 1.400 . S
C205 C206 1.398 . S
C206 H194 0.950 . S
C206 C205 1.398 . S
C206 C207 1.391 . S
C207 H195 0.950 . S
C207 C203 1.393 . S
C207 C206 1.391 . S
H208 C216 0.950 . S
H209 C221 0.950 . S
H210 C218 0.950 . S
H211 C220 0.950 . S
H212 C222 0.950 . S
H213 C224 0.950 . S
H214 C226 0.950 . S
H215 C227 0.950 . S
C216 H208 0.950 . S
C216 C217 1.386 . S
C216 C218 1.391 . S
C217 C216 1.386 . S
C217 C221 1.393 . S
C218 H210 0.950 . S
C218 C216 1.391 . S
C218 C219 1.400 . S
C219 C218 1.400 . S
C219 C220 1.398 . S
C219 C225 1.491 . S
C220 H211 0.950 . S
C220 C219 1.398 . S
C220 C221 1.391 . S
C221 H209 0.950 . S
C221 C217 1.393 . S
C221 C220 1.391 . S
C222 H212 0.950 . S
C222 C223 1.386 . S
C222 C224 1.391 . S
C223 C222 1.386 . S
C223 C227 1.393 . S
C224 H213 0.950 . S
C224 C222 1.391 . S
C224 C225 1.400 . S
C225 C219 1.491 . S
C225 C224 1.400 . S
C225 C226 1.398 . S
C226 H214 0.950 . S
C226 C225 1.398 . S
C226 C227 1.391 . S
C227 H215 0.950 . S
C227 C223 1.393 . S
C227 C226 1.391 . S
H228 C236 0.950 . S
H229 C241 0.950 . S
H230 C238 0.950 . S
H231 C240 0.950 . S
H232 C242 0.950 . S
H233 C244 0.950 . S
H234 C246 0.950 . S
H235 C247 0.950 . S
C236 H228 0.950 . S
C236 C237 1.386 . S
C236 C238 1.391 . S
C237 C236 1.386 . S
C237 C241 1.393 . S
C238 H230 0.950 . S
C238 C236 1.391 . S
C238 C239 1.400 . S
C239 C238 1.400 . S
C239 C240 1.398 . S
C239 C245 1.491 1_655 S
C240 H231 0.950 . S
C240 C239 1.398 . S
C240 C241 1.391 . S
C241 H229 0.950 . S
C241 C237 1.393 . S
C241 C240 1.391 . S
C242 H232 0.950 . S
C242 C243 1.386 . S
C242 C244 1.391 . S
C243 C242 1.386 . S
C243 C247 1.393 . S
C244 H233 0.950 . S
C244 C242 1.391 . S
C244 C245 1.400 . S
C245 C239 1.491 1_455 S
C245 C244 1.400 . S
C245 C246 1.398 . S
C246 H234 0.950 . S
C246 C245 1.398 . S
C246 C247 1.391 . S
C247 H235 0.950 . S
C247 C243 1.393 . S
C247 C246 1.391 . S
H248 C256 0.950 . S
H249 C261 0.950 . S
H250 C258 0.950 . S
H251 C260 0.950 . S
H252 C262 0.950 . S
H253 C264 0.950 . S
H254 C266 0.950 . S
H255 C267 0.950 . S
C256 H248 0.950 . S
C256 C257 1.386 . S
C256 C258 1.391 . S
C257 C256 1.386 . S
C257 C261 1.393 . S
C258 H250 0.950 . S
C258 C256 1.391 . S
C258 C259 1.400 . S
C259 C258 1.400 . S
C259 C260 1.398 . S
C259 C265 1.491 1_545 S
C260 H251 0.950 . S
C260 C259 1.398 . S
C260 C261 1.391 . S
C261 H249 0.950 . S
C261 C257 1.393 . S
C261 C260 1.391 . S
C262 H252 0.950 . S
C262 C263 1.386 . S
C262 C264 1.391 . S
C263 C262 1.386 . S
C263 C267 1.393 . S
C264 H253 0.950 . S
C264 C262 1.391 . S
C264 C265 1.400 . S
C265 C259 1.491 1_565 S
C265 C264 1.400 . S
C265 C266 1.398 . S
C266 H254 0.950 . S
C266 C265 1.398 . S
C266 C267 1.391 . S
C267 H255 0.950 . S
C267 C263 1.393 . S
C267 C266 1.391 . S
H268 C276 0.950 . S
H269 C281 0.950 . S
H270 C278 0.950 . S
H271 C280 0.950 . S
H272 C282 0.950 . S
H273 C284 0.950 . S
H274 C286 0.950 . S
H275 C287 0.950 . S
C276 H268 0.950 . S
C276 C277 1.386 . S
C276 C278 1.391 . S
C277 C276 1.386 . S
C277 C281 1.393 . S
C278 H270 0.950 . S
C278 C276 1.391 . S
C278 C279 1.400 . S
C279 C278 1.400 . S
C279 C280 1.398 . S
C279 C285 1.491 . S
C280 H271 0.950 . S
C280 C279 1.398 . S
C280 C281 1.391 . S
C281 H269 0.950 . S
C281 C277 1.393 . S
C281 C280 1.391 . S
C282 H272 0.950 . S
C282 C283 1.386 . S
C282 C284 1.391 . S
C283 C282 1.386 . S
C283 C287 1.393 . S
C284 H273 0.950 . S
C284 C282 1.391 . S
C284 C285 1.400 . S
C285 C279 1.491 . S
C285 C284 1.400 . S
C285 C286 1.398 . S
C286 H274 0.950 . S
C286 C285 1.398 . S
C286 C287 1.391 . S
C287 H275 0.950 . S
C287 C283 1.393 . S
C287 C286 1.391 . S
H288 C296 0.950 . S
H289 C301 0.950 . S
H290 C298 0.950 . S
H291 C300 0.950 . S
H292 C302 0.950 . S
H293 C304 0.950 . S
H294 C306 0.950 . S
H295 C307 0.950 . S
C296 H288 0.950 . S
C296 C297 1.386 . S
C296 C298 1.391 . S
C297 C296 1.386 . S
C297 C301 1.393 . S
C298 H290 0.950 . S
C298 C296 1.391 . S
C298 C299 1.400 . S
C299 C298 1.400 . S
C299 C300 1.398 . S
C299 C305 1.491 . S
C300 H291 0.950 . S
C300 C299 1.398 . S
C300 C301 1.391 . S
C301 H289 0.950 . S
C301 C297 1.393 . S
C301 C300 1.391 . S
C302 H292 0.950 . S
C302 C303 1.386 . S
C302 C304 1.391 . S
C303 C302 1.386 . S
C303 C307 1.393 . S
C304 H293 0.950 . S
C304 C302 1.391 . S
C304 C305 1.400 . S
C305 C299 1.491 . S
C305 C304 1.400 . S
C305 C306 1.398 . S
C306 H294 0.950 . S
C306 C305 1.398 . S
C306 C307 1.391 . S
C307 H295 0.950 . S
C307 C303 1.393 . S
C307 C306 1.391 . S
H308 C316 0.950 . S
H309 C321 0.950 . S
H310 C318 0.950 . S
H311 C320 0.950 . S
H312 C322 0.950 . S
H313 C324 0.950 . S
H314 C326 0.950 . S
H315 C327 0.950 . S
C316 H308 0.950 . S
C316 C317 1.386 1_655 S
C316 C318 1.391 . S
C317 C316 1.386 1_455 S
C317 C321 1.393 . S
C318 H310 0.950 . S
C318 C316 1.391 . S
C318 C319 1.400 1_655 S
C319 C318 1.400 1_455 S
C319 C320 1.398 . S
C319 C325 1.491 1_455 S
C320 H311 0.950 . S
C320 C319 1.398 . S
C320 C321 1.391 . S
C321 H309 0.950 . S
C321 C317 1.393 . S
C321 C320 1.391 . S
C322 H312 0.950 . S
C322 C323 1.386 1_455 S
C322 C324 1.391 . S
C323 C322 1.386 1_655 S
C323 C327 1.393 . S
C324 H313 0.950 . S
C324 C322 1.391 . S
C324 C325 1.400 1_455 S
C325 C319 1.491 1_655 S
C325 C324 1.400 1_655 S
C325 C326 1.398 . S
C326 H314 0.950 . S
C326 C325 1.398 . S
C326 C327 1.391 . S
C327 H315 0.950 . S
C327 C323 1.393 . S
C327 C326 1.391 . S
H328 C336 0.950 . S
H329 C341 0.950 . S
H330 C338 0.950 . S
H331 C340 0.950 . S
H332 C342 0.950 . S
H333 C344 0.950 . S
H334 C346 0.950 . S
H335 C347 0.950 . S
C336 H328 0.950 . S
C336 C337 1.386 1_565 S
C336 C338 1.391 . S
C337 C336 1.386 1_545 S
C337 C341 1.393 . S
C338 H330 0.950 . S
C338 C336 1.391 . S
C338 C339 1.400 1_565 S
C339 C338 1.400 1_545 S
C339 C340 1.398 . S
C339 C345 1.491 1_545 S
C340 H331 0.950 . S
C340 C339 1.398 . S
C340 C341 1.391 . S
C341 H329 0.950 . S
C341 C337 1.393 . S
C341 C340 1.391 . S
C342 H332 0.950 . S
C342 C343 1.386 1_545 S
C342 C344 1.391 . S
C343 C342 1.386 1_565 S
C343 C347 1.393 . S
C344 H333 0.950 . S
C344 C342 1.391 . S
C344 C345 1.400 1_545 S
C345 C339 1.491 1_565 S
C345 C344 1.400 1_565 S
C345 C346 1.398 . S
C346 H334 0.950 . S
C346 C345 1.398 . S
C346 C347 1.391 . S
C347 H335 0.950 . S
C347 C343 1.393 . S
C347 C346 1.391 . S
H348 C356 0.950 . S
H349 C361 0.950 . S
H350 C358 0.950 . S
H351 C360 0.950 . S
H352 C362 0.950 . S
H353 C364 0.950 . S
H354 C366 0.950 . S
H355 C367 0.950 . S
C356 H348 0.950 . S
C356 C357 1.386 . S
C356 C358 1.391 . S
C357 C356 1.386 . S
C357 C361 1.393 . S
C358 H350 0.950 . S
C358 C356 1.391 . S
C358 C359 1.400 . S
C359 C358 1.400 . S
C359 C360 1.398 . S
C359 C365 1.491 . S
C360 H351 0.950 . S
C360 C359 1.398 . S
C360 C361 1.391 . S
C361 H349 0.950 . S
C361 C357 1.393 . S
C361 C360 1.391 . S
C362 H352 0.950 . S
C362 C363 1.386 . S
C362 C364 1.391 . S
C363 C362 1.386 . S
C363 C367 1.393 . S
C364 H353 0.950 . S
C364 C362 1.391 . S
C364 C365 1.400 . S
C365 C359 1.491 . S
C365 C364 1.400 . S
C365 C366 1.398 . S
C366 H354 0.950 . S
C366 C365 1.398 . S
C366 C367 1.391 . S
C367 H355 0.950 . S
C367 C363 1.393 . S
C367 C366 1.391 . S
H368 C376 0.950 . S
H369 C381 0.950 . S
H370 C378 0.950 . S
H371 C380 0.950 . S
H372 C382 0.950 . S
H373 C384 0.950 . S
H374 C386 0.950 . S
H375 C387 0.950 . S
C376 H368 0.950 . S
C376 C377 1.386 . S
C376 C378 1.391 . S
C377 C376 1.386 . S
C377 C381 1.393 1_655 S
C378 H370 0.950 . S
C378 C376 1.391 . S
C378 C379 1.400 . S
C379 C378 1.400 . S
C379 C380 1.398 1_655 S
C379 C385 1.491 1_655 S
C380 H371 0.950 . S
C380 C379 1.398 1_455 S
C380 C381 1.391 . S
C381 H369 0.950 . S
C381 C377 1.393 1_455 S
C381 C380 1.391 . S
C382 H372 0.950 . S
C382 C383 1.386 . S
C382 C384 1.391 . S
C383 C382 1.386 . S
C383 C387 1.393 1_455 S
C384 H373 0.950 . S
C384 C382 1.391 . S
C384 C385 1.400 . S
C385 C379 1.491 1_455 S
C385 C384 1.400 . S
C385 C386 1.398 1_455 S
C386 H374 0.950 . S
C386 C385 1.398 1_655 S
C386 C387 1.391 . S
C387 H375 0.950 . S
C387 C383 1.393 1_655 S
C387 C386 1.391 . S
H388 C396 0.950 . S
H389 C401 0.950 . S
H390 C398 0.950 . S
H391 C400 0.950 . S
H392 C402 0.950 . S
H393 C404 0.950 . S
H394 C406 0.950 . S
H395 C407 0.950 . S
C396 H388 0.950 . S
C396 C397 1.386 . S
C396 C398 1.391 . S
C397 C396 1.386 . S
C397 C401 1.393 1_565 S
C398 H390 0.950 . S
C398 C396 1.391 . S
C398 C399 1.400 . S
C399 C398 1.400 . S
C399 C400 1.398 1_565 S
C399 C405 1.491 1_565 S
C400 H391 0.950 . S
C400 C399 1.398 1_545 S
C400 C401 1.391 . S
C401 H389 0.950 . S
C401 C397 1.393 1_545 S
C401 C400 1.391 . S
C402 H392 0.950 . S
C402 C403 1.386 . S
C402 C404 1.391 . S
C403 C402 1.386 . S
C403 C407 1.393 1_545 S
C404 H393 0.950 . S
C404 C402 1.391 . S
C404 C405 1.400 . S
C405 C399 1.491 1_545 S
C405 C404 1.400 . S
C405 C406 1.398 1_545 S
C406 H394 0.950 . S
C406 C405 1.398 1_565 S
C406 C407 1.391 . S
C407 H395 0.950 . S
C407 C403 1.393 1_565 S
C407 C406 1.391 . S
H408 C416 0.950 . S
H409 C421 0.950 . S
H410 C418 0.950 . S
H411 C420 0.950 . S
H412 C422 0.950 . S
H413 C424 0.950 . S
H414 C426 0.950 . S
H415 C427 0.950 . S
C416 H408 0.950 . S
C416 C417 1.386 . S
C416 C418 1.391 . S
C417 C416 1.386 . S
C417 C421 1.393 . S
C418 H410 0.950 . S
C418 C416 1.391 . S
C418 C419 1.400 . S
C419 C418 1.400 . S
C419 C420 1.398 . S
C419 C425 1.491 . S
C420 H411 0.950 . S
C420 C419 1.398 . S
C420 C421 1.391 . S
C421 H409 0.950 . S
C421 C417 1.393 . S
C421 C420 1.391 . S
C422 H412 0.950 . S
C422 C423 1.386 . S
C422 C424 1.391 . S
C423 C422 1.386 . S
C423 C427 1.393 . S
C424 H413 0.950 . S
C424 C422 1.391 . S
C424 C425 1.400 . S
C425 C419 1.491 . S
C425 C424 1.400 . S
C425 C426 1.398 . S
C426 H414 0.950 . S
C426 C425 1.398 . S
C426 C427 1.391 . S
C427 H415 0.950 . S
C427 C423 1.393 . S
C427 C426 1.391 . S
H428 C436 0.950 . S
H429 C441 0.950 . S
H430 C438 0.950 . S
H431 C440 0.950 . S
H432 C442 0.950 . S
H433 C444 0.950 . S
H434 C446 0.950 . S
H435 C447 0.950 . S
C436 H428 0.950 . S
C436 C437 1.386 . S
C436 C438 1.391 . S
C437 C436 1.386 . S
C437 C441 1.393 . S
C438 H430 0.950 . S
C438 C436 1.391 . S
C438 C439 1.400 . S
C439 C438 1.400 . S
C439 C440 1.398 . S
C439 C445 1.491 . S
C440 H431 0.950 . S
C440 C439 1.398 . S
C440 C441 1.391 . S
C441 H429 0.950 . S
C441 C437 1.393 . S
C441 C440 1.391 . S
C442 H432 0.950 . S
C442 C443 1.386 . S
C442 C444 1.391 . S
C443 C442 1.386 . S
C443 C447 1.393 . S
C444 H433 0.950 . S
C444 C442 1.391 . S
C444 C445 1.400 . S
C445 C439 1.491 . S
C445 C444 1.400 . S
C445 C446 1.398 . S
C446 H434 0.950 . S
C446 C445 1.398 . S
C446 C447 1.391 . S
C447 H435 0.950 . S
C447 C443 1.393 . S
C447 C446 1.391 . S
H448 C456 0.950 . S
H449 C461 0.950 . S
H450 C458 0.950 . S
H451 C460 0.950 . S
H452 C462 0.950 . S
H453 C464 0.950 . S
H454 C466 0.950 . S
H455 C467 0.950 . S
C456 H448 0.950 . S
C456 C457 1.386 . S
C456 C458 1.391 . S
C457 C456 1.386 . S
C457 C461 1.393 . S
C458 H450 0.950 . S
C458 C456 1.391 . S
C458 C459 1.400 . S
C459 C458 1.400 . S
C459 C460 1.398 . S
C459 C465 1.491 . S
C460 H451 0.950 . S
C460 C459 1.398 . S
C460 C461 1.391 . S
C461 H449 0.950 . S
C461 C457 1.393 . S
C461 C460 1.391 . S
C462 H452 0.950 . S
C462 C463 1.386 . S
C462 C464 1.391 . S
C463 C462 1.386 . S
C463 C467 1.393 . S
C464 H453 0.950 . S
C464 C462 1.391 . S
C464 C465 1.400 . S
C465 C459 1.491 . S
C465 C464 1.400 . S
C465 C466 1.398 . S
C466 H454 0.950 . S
C466 C465 1.398 . S
C466 C467 1.391 . S
C467 H455 0.950 . S
C467 C463 1.393 . S
C467 C466 1.391 . S
H468 C476 0.950 . S
H469 C481 0.950 . S
H470 C478 0.950 . S
H471 C480 0.950 . S
H472 C482 0.950 . S
H473 C484 0.950 . S
H474 C486 0.950 . S
H475 C487 0.950 . S
C476 H468 0.950 . S
C476 C477 1.386 . S
C476 C478 1.391 . S
C477 C476 1.386 . S
C477 C481 1.393 . S
C478 H470 0.950 . S
C478 C476 1.391 . S
C478 C479 1.400 . S
C479 C478 1.400 . S
C479 C480 1.398 . S
C479 C485 1.491 . S
C480 H471 0.950 . S
C480 C479 1.398 . S
C480 C481 1.391 . S
C481 H469 0.950 . S
C481 C477 1.393 . S
C481 C480 1.391 . S
C482 H472 0.950 . S
C482 C483 1.386 . S
C482 C484 1.391 . S
C483 C482 1.386 . S
C483 C487 1.393 . S
C484 H473 0.950 . S
C484 C482 1.391 . S
C484 C485 1.400 . S
C485 C479 1.491 . S
C485 C484 1.400 . S
C485 C486 1.398 . S
C486 H474 0.950 . S
C486 C485 1.398 . S
C486 C487 1.391 . S
C487 H475 0.950 . S
C487 C483 1.393 . S
C487 C486 1.391 . S
H488 C496 0.950 . S
H489 C501 0.950 . S
H490 C498 0.950 . S
H491 C500 0.950 . S
H492 C502 0.950 . S
H493 C504 0.950 . S
H494 C506 0.950 . S
H495 C507 0.950 . S
C496 H488 0.950 . S
C496 C497 1.386 . S
C496 C498 1.391 . S
C497 C496 1.386 . S
C497 C501 1.393 . S
C498 H490 0.950 . S
C498 C496 1.391 . S
C498 C499 1.400 . S
C499 C498 1.400 . S
C499 C500 1.398 . S
C499 C505 1.491 . S
C500 H491 0.950 . S
C500 C499 1.398 . S
C500 C501 1.391 . S
C501 H489 0.950 . S
C501 C497 1.393 . S
C501 C500 1.391 . S
C502 H492 0.950 . S
C502 C503 1.386 . S
C502 C504 1.391 . S
C503 C502 1.386 . S
C503 C507 1.393 . S
C504 H493 0.950 . S
C504 C502 1.391 . S
C504 C505 1.400 . S
C505 C499 1.491 . S
C505 C504 1.400 . S
C505 C506 1.398 . S
C506 H494 0.950 . S
C506 C505 1.398 . S
C506 C507 1.391 . S
C507 H495 0.950 . S
C507 C503 1.393 . S
C507 C506 1.391 . S
H508 C516 0.950 . S
H509 C521 0.950 . S
H510 C518 0.950 . S
H511 C520 0.950 . S
H512 C522 0.950 . S
H513 C524 0.950 . S
H514 C526 0.950 . S
H515 C527 0.950 . S
C516 H508 0.950 . S
C516 C517 1.386 . S
C516 C518 1.391 . S
C517 C516 1.386 . S
C517 C521 1.393 . S
C518 H510 0.950 . S
C518 C516 1.391 . S
C518 C519 1.400 . S
C519 C518 1.400 . S
C519 C520 1.398 . S
C519 C525 1.491 . S
C520 H511 0.950 . S
C520 C519 1.398 . S
C520 C521 1.391 . S
C521 H509 0.950 . S
C521 C517 1.393 . S
C521 C520 1.391 . S
C522 H512 0.950 . S
C522 C523 1.386 . S
C522 C524 1.391 . S
C523 C522 1.386 . S
C523 C527 1.393 . S
C524 H513 0.950 . S
C524 C522 1.391 . S
C524 C525 1.400 . S
C525 C519 1.491 . S
C525 C524 1.400 . S
C525 C526 1.398 . S
C526 H514 0.950 . S
C526 C525 1.398 . S
C526 C527 1.391 . S
C527 H515 0.950 . S
C527 C523 1.393 . S
C527 C526 1.391 . S
H528 C536 0.950 . S
H529 C541 0.950 . S
H530 C538 0.950 . S
H531 C540 0.950 . S
H532 C542 0.950 . S
H533 C544 0.950 . S
H534 C546 0.950 . S
H535 C547 0.950 . S
C536 H528 0.950 . S
C536 C537 1.386 . S
C536 C538 1.391 . S
C537 C536 1.386 . S
C537 C541 1.393 . S
C538 H530 0.950 . S
C538 C536 1.391 . S
C538 C539 1.400 . S
C539 C538 1.400 . S
C539 C540 1.398 . S
C539 C545 1.491 . S
C540 H531 0.950 . S
C540 C539 1.398 . S
C540 C541 1.391 . S
C541 H529 0.950 . S
C541 C537 1.393 . S
C541 C540 1.391 . S
C542 H532 0.950 . S
C542 C543 1.386 . S
C542 C544 1.391 . S
C543 C542 1.386 . S
C543 C547 1.393 . S
C544 H533 0.950 . S
C544 C542 1.391 . S
C544 C545 1.400 . S
C545 C539 1.491 . S
C545 C544 1.400 . S
C545 C546 1.398 . S
C546 H534 0.950 . S
C546 C545 1.398 . S
C546 C547 1.391 . S
C547 H535 0.950 . S
C547 C543 1.393 . S
C547 C546 1.391 . S
H548 C556 0.950 . S
H549 C561 0.950 . S
H550 C558 0.950 . S
H551 C560 0.950 . S
H552 C562 0.950 . S
H553 C564 0.950 . S
H554 C566 0.950 . S
H555 C567 0.950 . S
C556 H548 0.950 . S
C556 C557 1.386 . S
C556 C558 1.391 . S
C557 C556 1.386 . S
C557 C561 1.393 1_655 S
C558 H550 0.950 . S
C558 C556 1.391 . S
C558 C559 1.400 . S
C559 C558 1.400 . S
C559 C560 1.398 1_655 S
C559 C565 1.491 1_655 S
C560 H551 0.950 . S
C560 C559 1.398 1_455 S
C560 C561 1.391 . S
C561 H549 0.950 . S
C561 C557 1.393 1_455 S
C561 C560 1.391 . S
C562 H552 0.950 . S
C562 C563 1.386 . S
C562 C564 1.391 . S
C563 C562 1.386 . S
C563 C567 1.393 1_455 S
C564 H553 0.950 . S
C564 C562 1.391 . S
C564 C565 1.400 . S
C565 C559 1.491 1_455 S
C565 C564 1.400 . S
C565 C566 1.398 1_455 S
C566 H554 0.950 . S
C566 C565 1.398 1_655 S
C566 C567 1.391 . S
C567 H555 0.950 . S
C567 C563 1.393 1_655 S
C567 C566 1.391 . S
H568 C576 0.950 . S
H569 C581 0.950 . S
H570 C578 0.950 . S
H571 C580 0.950 . S
H572 C582 0.950 . S
H573 C584 0.950 . S
H574 C586 0.950 . S
H575 C587 0.950 . S
C576 H568 0.950 . S
C576 C577 1.386 . S
C576 C578 1.391 . S
C577 C576 1.386 . S
C577 C581 1.393 1_545 S
C578 H570 0.950 . S
C578 C576 1.391 . S
C578 C579 1.400 . S
C579 C578 1.400 . S
C579 C580 1.398 1_545 S
C579 C585 1.491 1_544 S
C580 H571 0.950 . S
C580 C579 1.398 1_565 S
C580 C581 1.391 . S
C581 H569 0.950 . S
C581 C577 1.393 1_565 S
C581 C580 1.391 . S
C582 H572 0.950 . S
C582 C583 1.386 . S
C582 C584 1.391 . S
C583 C582 1.386 . S
C583 C587 1.393 1_565 S
C584 H573 0.950 . S
C584 C582 1.391 . S
C584 C585 1.400 . S
C585 C579 1.491 1_566 S
C585 C584 1.400 . S
C585 C586 1.398 1_565 S
C586 H574 0.950 . S
C586 C585 1.398 1_545 S
C586 C587 1.391 . S
C587 H575 0.950 . S
C587 C583 1.393 1_545 S
C587 C586 1.391 . S
H588 C596 0.950 . S
H589 C601 0.950 . S
H590 C598 0.950 . S
H591 C600 0.950 . S
H592 C602 0.950 . S
H593 C604 0.950 . S
H594 C606 0.950 . S
H595 C607 0.950 . S
C596 H588 0.950 . S
C596 C597 1.386 . S
C596 C598 1.391 . S
C597 C596 1.386 . S
C597 C601 1.393 . S
C598 H590 0.950 . S
C598 C596 1.391 . S
C598 C599 1.400 . S
C599 C598 1.400 . S
C599 C600 1.398 . S
C599 C605 1.491 . S
C600 H591 0.950 . S
C600 C599 1.398 . S
C600 C601 1.391 . S
C601 H589 0.950 . S
C601 C597 1.393 . S
C601 C600 1.391 . S
C602 H592 0.950 . S
C602 C603 1.386 . S
C602 C604 1.391 . S
C603 C602 1.386 . S
C603 C607 1.393 . S
C604 H593 0.950 . S
C604 C602 1.391 . S
C604 C605 1.400 . S
C605 C599 1.491 . S
C605 C604 1.400 . S
C605 C606 1.398 . S
C606 H594 0.950 . S
C606 C605 1.398 . S
C606 C607 1.391 . S
C607 H595 0.950 . S
C607 C603 1.393 . S
C607 C606 1.391 . S
H608 C616 0.950 . S
H609 C621 0.950 . S
H610 C618 0.950 . S
H611 C620 0.950 . S
H612 C622 0.950 . S
H613 C624 0.950 . S
H614 C626 0.950 . S
H615 C627 0.950 . S
C616 H608 0.950 . S
C616 C617 1.386 . S
C616 C618 1.391 . S
C617 C616 1.386 . S
C617 C621 1.393 . S
C618 H610 0.950 . S
C618 C616 1.391 . S
C618 C619 1.400 . S
C619 C618 1.400 . S
C619 C620 1.398 . S
C619 C625 1.491 1_455 S
C620 H611 0.950 . S
C620 C619 1.398 . S
C620 C621 1.391 . S
C621 H609 0.950 . S
C621 C617 1.393 . S
C621 C620 1.391 . S
C622 H612 0.950 . S
C622 C623 1.386 . S
C622 C624 1.391 . S
C623 C622 1.386 . S
C623 C627 1.393 . S
C624 H613 0.950 . S
C624 C622 1.391 . S
C624 C625 1.400 . S
C625 C619 1.491 1_655 S
C625 C624 1.400 . S
C625 C626 1.398 . S
C626 H614 0.950 . S
C626 C625 1.398 . S
C626 C627 1.391 . S
C627 H615 0.950 . S
C627 C623 1.393 . S
C627 C626 1.391 . S
H628 C636 0.950 . S
H629 C641 0.950 . S
H630 C638 0.950 . S
H631 C640 0.950 . S
H632 C642 0.950 . S
H633 C644 0.950 . S
H634 C646 0.950 . S
H635 C647 0.950 . S
C636 H628 0.950 . S
C636 C637 1.386 . S
C636 C638 1.391 . S
C637 C636 1.386 . S
C637 C641 1.393 . S
C638 H630 0.950 . S
C638 C636 1.391 . S
C638 C639 1.400 . S
C639 C638 1.400 . S
C639 C640 1.398 1_565 S
C639 C645 1.491 1_564 S
C640 H631 0.950 . S
C640 C639 1.398 1_545 S
C640 C641 1.391 1_545 S
C641 H629 0.950 . S
C641 C637 1.393 . S
C641 C640 1.391 1_565 S
C642 H632 0.950 . S
C642 C643 1.386 . S
C642 C644 1.391 . S
C643 C642 1.386 . S
C643 C647 1.393 . S
C644 H633 0.950 . S
C644 C642 1.391 . S
C644 C645 1.400 . S
C645 C639 1.491 1_546 S
C645 C644 1.400 . S
C645 C646 1.398 1_545 S
C646 H634 0.950 . S
C646 C645 1.398 1_565 S
C646 C647 1.391 1_565 S
C647 H635 0.950 . S
C647 C643 1.393 . S
C647 C646 1.391 1_545 S
C177 C162 1.690 . S
C183 C8 1.697 . S
C197 C22 1.688 . S
C203 C92 1.691 . S
C217 C36 1.690 . S
C223 C106 1.688 . S
C237 C50 1.693 . S
C243 C120 1.687 . S
C257 C134 1.687 . S
C263 C64 1.693 . S
C277 C78 1.689 . S
C283 C148 1.697 . S
C297 C51 1.212 . S
C303 C9 1.197 . S
C317 C65 1.210 . S
C323 C23 1.196 . S
C337 C79 1.222 . S
C343 C37 1.206 . S
C357 C93 1.225 . S
C363 C135 1.213 . S
C377 C107 1.195 . S
C383 C149 1.204 . S
C397 C121 1.203 . S
C403 C163 1.220 . S
C417 C119 0.482 . S
C423 C7 0.491 . S
C437 C21 0.482 . S
C443 C133 0.492 . S
C457 C147 0.542 . S
C463 C35 0.520 . S
C477 C161 0.503 . S
C483 C49 0.528 . S
C497 C91 0.524 . S
C503 C63 0.500 . S
C517 C77 0.487 . S
C523 C105 0.483 . S
C537 C129 1.654 . S
C543 C3 1.655 . S
C557 C17 1.663 . S
C563 C143 1.661 . S
C577 C157 1.660 . S
C583 C31 1.659 . S
C597 C45 1.658 . S
C603 C87 1.656 . S
C617 C59 1.654 . S
C623 C101 1.654 . S
C637 C115 1.665 . S
C643 C73 1.664 . S
