# Generated by pormake.
# Topology uko, (4)-cn, num edge types: 1
# Building blocks:
#     Node 0, Type 0, BuildingBlock: CEKHIL_clean_sbu_0, # of connection points: 4
#     Node 1, Type 0, BuildingBlock: CEKHIL_clean_sbu_0, # of connection points: 4
#     Node 2, Type 0, BuildingBlock: CEKHIL_clean_sbu_0, # of connection points: 4
#     Node 3, Type 0, BuildingBlock: CEKHIL_clean_sbu_0, # of connection points: 4
#     Node 4, Type 0, BuildingBlock: CEKHIL_clean_sbu_0, # of connection points: 4
#     Node 5, Type 0, BuildingBlock: CEKHIL_clean_sbu_0, # of connection points: 4
#     Node 6, Type 0, BuildingBlock: CEKHIL_clean_sbu_0, # of connection points: 4
#     Node 7, Type 0, BuildingBlock: CEKHIL_clean_sbu_0, # of connection points: 4
#     Node 8, Type 0, BuildingBlock: CEKHIL_clean_sbu_0, # of connection points: 4
#     Node 9, Type 0, BuildingBlock: CEKHIL_clean_sbu_0, # of connection points: 4
#     Node 10, Type 0, BuildingBlock: CEKHIL_clean_sbu_0, # of connection points: 4
#     Node 11, Type 0, BuildingBlock: CEKHIL_clean_sbu_0, # of connection points: 4
#     Node 12, Type 0, BuildingBlock: CEKHIL_clean_sbu_0, # of connection points: 4
#     Node 13, Type 0, BuildingBlock: CEKHIL_clean_sbu_0, # of connection points: 4
#     Node 14, Type 0, BuildingBlock: CEKHIL_clean_sbu_0, # of connection points: 4
#     Node 15, Type 0, BuildingBlock: CEKHIL_clean_sbu_0, # of connection points: 4
#     Node 16, Type 0, BuildingBlock: CEKHIL_clean_sbu_0, # of connection points: 4
#     Node 17, Type 0, BuildingBlock: CEKHIL_clean_sbu_0, # of connection points: 4
#     Node 18, Type 0, BuildingBlock: CEKHIL_clean_sbu_0, # of connection points: 4
#     Node 19, Type 0, BuildingBlock: CEKHIL_clean_sbu_0, # of connection points: 4
#     Node 20, Type 0, BuildingBlock: CEKHIL_clean_sbu_0, # of connection points: 4
#     Node 21, Type 0, BuildingBlock: CEKHIL_clean_sbu_0, # of connection points: 4
#     Node 22, Type 0, BuildingBlock: CEKHIL_clean_sbu_0, # of connection points: 4
#     Node 23, Type 0, BuildingBlock: CEKHIL_clean_sbu_0, # of connection points: 4
#     Node 24, Type 0, BuildingBlock: CEKHIL_clean_sbu_0, # of connection points: 4
#     Node 25, Type 0, BuildingBlock: CEKHIL_clean_sbu_0, # of connection points: 4
#     Node 26, Type 0, BuildingBlock: CEKHIL_clean_sbu_0, # of connection points: 4
#     Node 27, Type 0, BuildingBlock: CEKHIL_clean_sbu_0, # of connection points: 4
#     Node 28, Type 0, BuildingBlock: CEKHIL_clean_sbu_0, # of connection points: 4
#     Node 29, Type 0, BuildingBlock: CEKHIL_clean_sbu_0, # of connection points: 4
#     Node 30, Type 0, BuildingBlock: CEKHIL_clean_sbu_0, # of connection points: 4
#     Node 31, Type 0, BuildingBlock: CEKHIL_clean_sbu_0, # of connection points: 4
#     Node 32, Type 0, BuildingBlock: CEKHIL_clean_sbu_0, # of connection points: 4
#     Node 33, Type 0, BuildingBlock: CEKHIL_clean_sbu_0, # of connection points: 4
#     Node 34, Type 0, BuildingBlock: CEKHIL_clean_sbu_0, # of connection points: 4
#     Node 35, Type 0, BuildingBlock: CEKHIL_clean_sbu_0, # of connection points: 4
#     Node 36, Type 0, BuildingBlock: CEKHIL_clean_sbu_0, # of connection points: 4
#     Node 37, Type 0, BuildingBlock: CEKHIL_clean_sbu_0, # of connection points: 4
#     Node 38, Type 0, BuildingBlock: CEKHIL_clean_sbu_0, # of connection points: 4
#     Node 39, Type 0, BuildingBlock: CEKHIL_clean_sbu_0, # of connection points: 4
#     Node 40, Type 0, BuildingBlock: CEKHIL_clean_sbu_0, # of connection points: 4
#     Node 41, Type 0, BuildingBlock: CEKHIL_clean_sbu_0, # of connection points: 4
#     Node 42, Type 0, BuildingBlock: CEKHIL_clean_sbu_0, # of connection points: 4
#     Node 43, Type 0, BuildingBlock: CEKHIL_clean_sbu_0, # of connection points: 4
#     Node 44, Type 0, BuildingBlock: CEKHIL_clean_sbu_0, # of connection points: 4
#     Node 45, Type 0, BuildingBlock: CEKHIL_clean_sbu_0, # of connection points: 4
#     Node 46, Type 0, BuildingBlock: CEKHIL_clean_sbu_0, # of connection points: 4
#     Node 47, Type 0, BuildingBlock: CEKHIL_clean_sbu_0, # of connection points: 4
#     Edge 48, Type (0, 0), BuildingBlock: CIFDUS_clean_linker_0, # of connection points: 2
#     Edge 49, Type (0, 0), BuildingBlock: CIFDUS_clean_linker_0, # of connection points: 2
#     Edge 50, Type (0, 0), BuildingBlock: CIFDUS_clean_linker_0, # of connection points: 2
#     Edge 51, Type (0, 0), BuildingBlock: CIFDUS_clean_linker_0, # of connection points: 2
#     Edge 52, Type (0, 0), BuildingBlock: CIFDUS_clean_linker_0, # of connection points: 2
#     Edge 53, Type (0, 0), BuildingBlock: CIFDUS_clean_linker_0, # of connection points: 2
#     Edge 54, Type (0, 0), BuildingBlock: CIFDUS_clean_linker_0, # of connection points: 2
#     Edge 55, Type (0, 0), BuildingBlock: CIFDUS_clean_linker_0, # of connection points: 2
#     Edge 56, Type (0, 0), BuildingBlock: CIFDUS_clean_linker_0, # of connection points: 2
#     Edge 57, Type (0, 0), BuildingBlock: CIFDUS_clean_linker_0, # of connection points: 2
#     Edge 58, Type (0, 0), BuildingBlock: CIFDUS_clean_linker_0, # of connection points: 2
#     Edge 59, Type (0, 0), BuildingBlock: CIFDUS_clean_linker_0, # of connection points: 2
#     Edge 60, Type (0, 0), BuildingBlock: CIFDUS_clean_linker_0, # of connection points: 2
#     Edge 61, Type (0, 0), BuildingBlock: CIFDUS_clean_linker_0, # of connection points: 2
#     Edge 62, Type (0, 0), BuildingBlock: CIFDUS_clean_linker_0, # of connection points: 2
#     Edge 63, Type (0, 0), BuildingBlock: CIFDUS_clean_linker_0, # of connection points: 2
#     Edge 64, Type (0, 0), BuildingBlock: CIFDUS_clean_linker_0, # of connection points: 2
#     Edge 65, Type (0, 0), BuildingBlock: CIFDUS_clean_linker_0, # of connection points: 2
#     Edge 66, Type (0, 0), BuildingBlock: CIFDUS_clean_linker_0, # of connection points: 2
#     Edge 67, Type (0, 0), BuildingBlock: CIFDUS_clean_linker_0, # of connection points: 2
#     Edge 68, Type (0, 0), BuildingBlock: CIFDUS_clean_linker_0, # of connection points: 2
#     Edge 69, Type (0, 0), BuildingBlock: CIFDUS_clean_linker_0, # of connection points: 2
#     Edge 70, Type (0, 0), BuildingBlock: CIFDUS_clean_linker_0, # of connection points: 2
#     Edge 71, Type (0, 0), BuildingBlock: CIFDUS_clean_linker_0, # of connection points: 2
#     Edge 72, Type (0, 0), BuildingBlock: CIFDUS_clean_linker_0, # of connection points: 2
#     Edge 73, Type (0, 0), BuildingBlock: CIFDUS_clean_linker_0, # of connection points: 2
#     Edge 74, Type (0, 0), BuildingBlock: CIFDUS_clean_linker_0, # of connection points: 2
#     Edge 75, Type (0, 0), BuildingBlock: CIFDUS_clean_linker_0, # of connection points: 2
#     Edge 76, Type (0, 0), BuildingBlock: CIFDUS_clean_linker_0, # of connection points: 2
#     Edge 77, Type (0, 0), BuildingBlock: CIFDUS_clean_linker_0, # of connection points: 2
#     Edge 78, Type (0, 0), BuildingBlock: CIFDUS_clean_linker_0, # of connection points: 2
#     Edge 79, Type (0, 0), BuildingBlock: CIFDUS_clean_linker_0, # of connection points: 2
#     Edge 80, Type (0, 0), BuildingBlock: CIFDUS_clean_linker_0, # of connection points: 2
#     Edge 81, Type (0, 0), BuildingBlock: CIFDUS_clean_linker_0, # of connection points: 2
#     Edge 82, Type (0, 0), BuildingBlock: CIFDUS_clean_linker_0, # of connection points: 2
#     Edge 83, Type (0, 0), BuildingBlock: CIFDUS_clean_linker_0, # of connection points: 2
#     Edge 84, Type (0, 0), BuildingBlock: CIFDUS_clean_linker_0, # of connection points: 2
#     Edge 85, Type (0, 0), BuildingBlock: CIFDUS_clean_linker_0, # of connection points: 2
#     Edge 86, Type (0, 0), BuildingBlock: CIFDUS_clean_linker_0, # of connection points: 2
#     Edge 87, Type (0, 0), BuildingBlock: CIFDUS_clean_linker_0, # of connection points: 2
#     Edge 88, Type (0, 0), BuildingBlock: CIFDUS_clean_linker_0, # of connection points: 2
#     Edge 89, Type (0, 0), BuildingBlock: CIFDUS_clean_linker_0, # of connection points: 2
#     Edge 90, Type (0, 0), BuildingBlock: CIFDUS_clean_linker_0, # of connection points: 2
#     Edge 91, Type (0, 0), BuildingBlock: CIFDUS_clean_linker_0, # of connection points: 2
#     Edge 92, Type (0, 0), BuildingBlock: CIFDUS_clean_linker_0, # of connection points: 2
#     Edge 93, Type (0, 0), BuildingBlock: CIFDUS_clean_linker_0, # of connection points: 2
#     Edge 94, Type (0, 0), BuildingBlock: CIFDUS_clean_linker_0, # of connection points: 2
#     Edge 95, Type (0, 0), BuildingBlock: CIFDUS_clean_linker_0, # of connection points: 2
#     Edge 96, Type (0, 0), BuildingBlock: CIFDUS_clean_linker_0, # of connection points: 2
#     Edge 97, Type (0, 0), BuildingBlock: CIFDUS_clean_linker_0, # of connection points: 2
#     Edge 98, Type (0, 0), BuildingBlock: CIFDUS_clean_linker_0, # of connection points: 2
#     Edge 99, Type (0, 0), BuildingBlock: CIFDUS_clean_linker_0, # of connection points: 2
#     Edge 100, Type (0, 0), BuildingBlock: CIFDUS_clean_linker_0, # of connection points: 2
#     Edge 101, Type (0, 0), BuildingBlock: CIFDUS_clean_linker_0, # of connection points: 2
#     Edge 102, Type (0, 0), BuildingBlock: CIFDUS_clean_linker_0, # of connection points: 2
#     Edge 103, Type (0, 0), BuildingBlock: CIFDUS_clean_linker_0, # of connection points: 2
#     Edge 104, Type (0, 0), BuildingBlock: CIFDUS_clean_linker_0, # of connection points: 2
#     Edge 105, Type (0, 0), BuildingBlock: CIFDUS_clean_linker_0, # of connection points: 2
#     Edge 106, Type (0, 0), BuildingBlock: CIFDUS_clean_linker_0, # of connection points: 2
#     Edge 107, Type (0, 0), BuildingBlock: CIFDUS_clean_linker_0, # of connection points: 2
#     Edge 108, Type (0, 0), BuildingBlock: CIFDUS_clean_linker_0, # of connection points: 2
#     Edge 109, Type (0, 0), BuildingBlock: CIFDUS_clean_linker_0, # of connection points: 2
#     Edge 110, Type (0, 0), BuildingBlock: CIFDUS_clean_linker_0, # of connection points: 2
#     Edge 111, Type (0, 0), BuildingBlock: CIFDUS_clean_linker_0, # of connection points: 2
#     Edge 112, Type (0, 0), BuildingBlock: CIFDUS_clean_linker_0, # of connection points: 2
#     Edge 113, Type (0, 0), BuildingBlock: CIFDUS_clean_linker_0, # of connection points: 2
#     Edge 114, Type (0, 0), BuildingBlock: CIFDUS_clean_linker_0, # of connection points: 2
#     Edge 115, Type (0, 0), BuildingBlock: CIFDUS_clean_linker_0, # of connection points: 2
#     Edge 116, Type (0, 0), BuildingBlock: CIFDUS_clean_linker_0, # of connection points: 2
#     Edge 117, Type (0, 0), BuildingBlock: CIFDUS_clean_linker_0, # of connection points: 2
#     Edge 118, Type (0, 0), BuildingBlock: CIFDUS_clean_linker_0, # of connection points: 2
#     Edge 119, Type (0, 0), BuildingBlock: CIFDUS_clean_linker_0, # of connection points: 2
#     Edge 120, Type (0, 0), BuildingBlock: CIFDUS_clean_linker_0, # of connection points: 2
#     Edge 121, Type (0, 0), BuildingBlock: CIFDUS_clean_linker_0, # of connection points: 2
#     Edge 122, Type (0, 0), BuildingBlock: CIFDUS_clean_linker_0, # of connection points: 2
#     Edge 123, Type (0, 0), BuildingBlock: CIFDUS_clean_linker_0, # of connection points: 2
#     Edge 124, Type (0, 0), BuildingBlock: CIFDUS_clean_linker_0, # of connection points: 2
#     Edge 125, Type (0, 0), BuildingBlock: CIFDUS_clean_linker_0, # of connection points: 2
#     Edge 126, Type (0, 0), BuildingBlock: CIFDUS_clean_linker_0, # of connection points: 2
#     Edge 127, Type (0, 0), BuildingBlock: CIFDUS_clean_linker_0, # of connection points: 2
#     Edge 128, Type (0, 0), BuildingBlock: CIFDUS_clean_linker_0, # of connection points: 2
#     Edge 129, Type (0, 0), BuildingBlock: CIFDUS_clean_linker_0, # of connection points: 2
#     Edge 130, Type (0, 0), BuildingBlock: CIFDUS_clean_linker_0, # of connection points: 2
#     Edge 131, Type (0, 0), BuildingBlock: CIFDUS_clean_linker_0, # of connection points: 2
#     Edge 132, Type (0, 0), BuildingBlock: CIFDUS_clean_linker_0, # of connection points: 2
#     Edge 133, Type (0, 0), BuildingBlock: CIFDUS_clean_linker_0, # of connection points: 2
#     Edge 134, Type (0, 0), BuildingBlock: CIFDUS_clean_linker_0, # of connection points: 2
#     Edge 135, Type (0, 0), BuildingBlock: CIFDUS_clean_linker_0, # of connection points: 2
#     Edge 136, Type (0, 0), BuildingBlock: CIFDUS_clean_linker_0, # of connection points: 2
#     Edge 137, Type (0, 0), BuildingBlock: CIFDUS_clean_linker_0, # of connection points: 2
#     Edge 138, Type (0, 0), BuildingBlock: CIFDUS_clean_linker_0, # of connection points: 2
#     Edge 139, Type (0, 0), BuildingBlock: CIFDUS_clean_linker_0, # of connection points: 2
#     Edge 140, Type (0, 0), BuildingBlock: CIFDUS_clean_linker_0, # of connection points: 2
#     Edge 141, Type (0, 0), BuildingBlock: CIFDUS_clean_linker_0, # of connection points: 2
#     Edge 142, Type (0, 0), BuildingBlock: CIFDUS_clean_linker_0, # of connection points: 2
#     Edge 143, Type (0, 0), BuildingBlock: CIFDUS_clean_linker_0, # of connection points: 2
# Relax obj value: 0.297
# Max RMSD: 0.162
# Mean RMSD: 0.162
data_MOF--net-uko--node1-CEKHIL_clean_sbu_0--edge1-CIFDUS_clean_linker_0
_symmetry_space_group_name_H-M    P1
_symmetry_Int_Tables_number       1
_symmetry_cell_setting            triclinic
loop_
_symmetry_equiv_pos_as_xyz
'x, y, z'
_cell_length_a     48.764388
_cell_length_b     48.922616
_cell_length_c     48.797168
_cell_angle_alpha  89.960981
_cell_angle_beta   90.018011
_cell_angle_gamma 90.065298
loop_
_atom_site_label
_atom_site_type_symbol
_atom_site_fract_x
_atom_site_fract_y
_atom_site_fract_z
_atom_type_partial_charge
Co0 Co 0.05794 0.35603 0.24115 0.0
O1 O 0.06182 0.31712 0.23682 0.0
O2 O 0.02229 0.33941 0.23922 0.0
C3 C 0.08911 0.36882 0.20968 0.0
O4 O 0.04528 0.39556 0.24377 0.0
Co5 Co 0.10586 0.39193 0.26264 0.0
O6 O 0.08239 0.42231 0.24991 0.0
C7 C 0.07684 0.35554 0.30078 0.0
C8 C 0.03516 0.31629 0.23684 0.0
C9 C 0.057 0.41905 0.24483 0.0
O10 O 0.05853 0.35091 0.28233 0.0
O11 O 0.09826 0.37003 0.29646 0.0
O12 O 0.06455 0.3617 0.20211 0.0
O13 O 0.09478 0.36522 0.23532 0.0
Co14 Co 0.95139 0.12689 0.25498 0.0
O15 O 0.94848 0.16484 0.24516 0.0
O16 O 0.98744 0.14272 0.25273 0.0
C17 C 0.92165 0.11058 0.22378 0.0
O18 O 0.96301 0.08787 0.26353 0.0
Co19 Co 0.90171 0.095 0.27853 0.0
O20 O 0.92584 0.06289 0.27471 0.0
C21 C 0.92893 0.13654 0.31224 0.0
C22 C 0.9751 0.16542 0.24648 0.0
C23 C 0.9513 0.06506 0.26941 0.0
O24 O 0.94876 0.13763 0.2949 0.0
O25 O 0.9073 0.12222 0.3085 0.0
O26 O 0.94678 0.11614 0.21683 0.0
O27 O 0.91465 0.11759 0.24835 0.0
Co28 Co 0.04618 0.63329 0.24572 0.0
O29 O 0.0497 0.67175 0.25262 0.0
O30 O 0.01035 0.64979 0.24633 0.0
C31 C 0.07531 0.6181 0.27796 0.0
O32 O 0.03451 0.5938 0.23949 0.0
Co33 Co 0.0966 0.60117 0.22381 0.0
O34 O 0.07231 0.5693 0.22928 0.0
C35 C 0.06888 0.64017 0.18791 0.0
C36 C 0.02317 0.67278 0.2503 0.0
C37 C 0.04681 0.5711 0.23458 0.0
O38 O 0.04899 0.6413 0.20517 0.0
O39 O 0.09097 0.62683 0.19237 0.0
O40 O 0.05039 0.62485 0.28459 0.0
O41 O 0.08261 0.62404 0.25319 0.0
Co42 Co 0.9468 0.86383 0.218 0.0
O43 O 0.9419 0.82567 0.22624 0.0
O44 O 0.98176 0.84569 0.21749 0.0
C45 C 0.92027 0.88015 0.25187 0.0
O46 O 0.96059 0.90248 0.21084 0.0
Co47 Co 0.89811 0.9001 0.19944 0.0
O48 O 0.92402 0.93023 0.20665 0.0
C49 C 0.92139 0.86031 0.16096 0.0
C50 C 0.96836 0.82363 0.22394 0.0
C51 C 0.94969 0.92631 0.20913 0.0
O52 O 0.94119 0.85562 0.17775 0.0
O53 O 0.90132 0.87619 0.16641 0.0
O54 O 0.94535 0.87268 0.25679 0.0
O55 O 0.91119 0.87501 0.22747 0.0
Co56 Co 0.24278 0.02003 0.36867 0.0
O57 O 0.23559 0.029 0.33103 0.0
O58 O 0.24701 0.98786 0.34636 0.0
C59 C 0.20656 0.04208 0.38672 0.0
O60 O 0.25022 0.00235 0.40561 0.0
Co61 Co 0.2558 0.06606 0.41102 0.0
O62 O 0.25065 0.03583 0.43731 0.0
C63 C 0.2969 0.0513 0.36971 0.0
C64 C 0.24071 0.00347 0.32574 0.0
C65 C 0.25071 0.0107 0.4305 0.0
O66 O 0.28268 0.03005 0.36311 0.0
O67 O 0.28875 0.0692 0.38697 0.0
O68 O 0.20331 0.01786 0.37621 0.0
O69 O 0.23047 0.05287 0.38348 0.0
Co70 Co 0.75212 0.46438 0.35407 0.0
O71 O 0.76279 0.45397 0.31769 0.0
O72 O 0.75435 0.4964 0.33141 0.0
C73 C 0.78311 0.43917 0.37689 0.0
O74 O 0.74249 0.48349 0.38974 0.0
Co75 Co 0.72805 0.42161 0.39442 0.0
O76 O 0.73017 0.45192 0.42098 0.0
C77 C 0.69566 0.43882 0.347 0.0
C78 C 0.76105 0.47981 0.31174 0.0
C79 C 0.7356 0.47646 0.41414 0.0
O80 O 0.71239 0.45885 0.34314 0.0
O81 O 0.6995 0.42035 0.36514 0.0
O82 O 0.79013 0.46263 0.36649 0.0
O83 O 0.75881 0.4306 0.37071 0.0
Co84 Co 0.25126 0.96222 0.12186 0.0
O85 O 0.24689 0.94904 0.15886 0.0
O86 O 0.24319 0.99229 0.14565 0.0
C87 C 0.22559 0.93036 0.10064 0.0
O88 O 0.25218 0.98392 0.08644 0.0
Co89 Co 0.28153 0.92872 0.07764 0.0
O90 O 0.26847 0.95754 0.05246 0.0
C91 C 0.31226 0.95124 0.12386 0.0
C92 C 0.24258 0.97447 0.16537 0.0
C93 C 0.25762 0.97956 0.06111 0.0
O94 O 0.29177 0.9669 0.12915 0.0
O95 O 0.31158 0.93289 0.10523 0.0
O96 O 0.21408 0.95117 0.11258 0.0
O97 O 0.25177 0.928 0.10436 0.0
Co98 Co 0.73365 0.52302 0.11152 0.0
O99 O 0.74903 0.53388 0.14616 0.0
O100 O 0.73638 0.49173 0.135 0.0
C101 C 0.76402 0.54539 0.08485 0.0
O102 O 0.71898 0.503 0.07825 0.0
Co103 Co 0.70828 0.56434 0.07128 0.0
O104 O 0.70441 0.53276 0.04642 0.0
C105 C 0.67904 0.55112 0.12194 0.0
C106 C 0.74663 0.50831 0.15307 0.0
C107 C 0.70929 0.5085 0.05445 0.0
O108 O 0.69581 0.53129 0.1262 0.0
O109 O 0.68166 0.56804 0.10213 0.0
O110 O 0.76999 0.52167 0.09524 0.0
O111 O 0.74095 0.5559 0.0927 0.0
Co112 Co 0.36724 0.21351 0.04408 0.0
O113 O 0.33013 0.2123 0.05755 0.0
O114 O 0.34223 0.21281 0.01372 0.0
C115 C 0.38497 0.18187 0.07249 0.0
O116 O 0.40256 0.21376 0.02206 0.0
Co117 Co 0.41545 0.2324 0.08122 0.0
O118 O 0.43752 0.21479 0.05208 0.0
C119 C 0.37593 0.27292 0.06063 0.0
C120 C 0.32279 0.21281 0.03194 0.0
C121 C 0.42802 0.21112 0.02805 0.0
O122 O 0.36568 0.2547 0.0446 0.0
O123 O 0.3948 0.2677 0.07813 0.0
O124 O 0.37171 0.17419 0.05065 0.0
O125 O 0.3846 0.20773 0.07759 0.0
Co126 Co 0.3581 0.74666 0.46118 0.0
O127 O 0.31967 0.74732 0.45221 0.0
O128 O 0.33685 0.7482 0.49431 0.0
C129 C 0.37204 0.77787 0.43029 0.0
O130 O 0.39595 0.74769 0.47877 0.0
Co131 Co 0.40103 0.72646 0.4188 0.0
O132 O 0.4278 0.73842 0.44668 0.0
C133 C 0.36228 0.68766 0.44328 0.0
C134 C 0.3154 0.74773 0.4785 0.0
C135 C 0.42095 0.74529 0.47088 0.0
O136 O 0.35631 0.70545 0.46172 0.0
O137 O 0.37813 0.69278 0.42303 0.0
O138 O 0.36149 0.78566 0.45349 0.0
O139 O 0.37123 0.75192 0.42552 0.0
Co140 Co 0.62707 0.74831 0.45749 0.0
O141 O 0.66333 0.7396 0.44493 0.0
O142 O 0.6511 0.74365 0.4885 0.0
C143 C 0.60444 0.71911 0.42995 0.0
O144 O 0.59156 0.75538 0.47829 0.0
Co145 Co 0.58579 0.7754 0.41777 0.0
O146 O 0.5599 0.77078 0.44845 0.0
C147 C 0.63208 0.80733 0.43824 0.0
C148 C 0.67032 0.73906 0.47059 0.0
C149 C 0.56708 0.76308 0.47232 0.0
O150 O 0.63697 0.78836 0.45581 0.0
O151 O 0.61368 0.8053 0.41969 0.0
O152 O 0.61544 0.71059 0.45266 0.0
O153 O 0.60983 0.74417 0.42334 0.0
Co154 Co 0.11818 0.71421 0.53866 0.0
O155 O 0.15571 0.72383 0.54569 0.0
O156 O 0.13874 0.71316 0.50492 0.0
C157 C 0.09937 0.74846 0.56307 0.0
O158 O 0.08055 0.7052 0.52293 0.0
Co159 Co 0.08028 0.6957 0.58583 0.0
O160 O 0.05127 0.69737 0.55771 0.0
C161 C 0.123 0.65852 0.56641 0.0
C162 C 0.15973 0.72056 0.5196 0.0
C163 C 0.05641 0.70038 0.53232 0.0
O164 O 0.12744 0.67461 0.54602 0.0
O165 O 0.1062 0.66407 0.58571 0.0
O166 O 0.10797 0.75258 0.53821 0.0
O167 O 0.10472 0.72461 0.57329 0.0
Co168 Co 0.96644 0.62376 0.75753 0.0
O169 O 0.95641 0.66029 0.76784 0.0
O170 O -0.00114 0.64628 0.7597 0.0
C171 C 0.94052 0.60154 0.78848 0.0
O172 O 0.98455 0.5874 0.74763 0.0
Co173 Co 0.92152 0.58533 0.73346 0.0
O174 O 0.95107 0.55792 0.73545 0.0
C175 C 0.94164 0.63143 0.70086 0.0
C176 C 0.98228 0.66621 0.76579 0.0
C177 C 0.97608 0.56351 0.74049 0.0
O178 O 0.96152 0.63464 0.71787 0.0
O179 O 0.92224 0.61419 0.70448 0.0
O180 O 0.96422 0.61146 0.79561 0.0
O181 O 0.93221 0.60803 0.76422 0.0
Co182 Co 0.02888 0.86563 0.7354 0.0
O183 O 0.03744 0.83018 0.74976 0.0
O184 O -0.00445 0.84453 0.73975 0.0
C185 C 0.05552 0.88931 0.76474 0.0
O186 O 0.01229 0.90155 0.72177 0.0
Co187 Co 0.07482 0.89934 0.70791 0.0
O188 O 0.04661 0.92812 0.70597 0.0
C189 C 0.05353 0.851 0.68 0.0
C190 C 0.0114 0.82498 0.74852 0.0
C191 C 0.02148 0.92418 0.71185 0.0
O192 O 0.03356 0.85043 0.69718 0.0
O193 O 0.07352 0.86783 0.68184 0.0
O194 O 0.03105 0.88151 0.77186 0.0
O195 O 0.06398 0.88037 0.74125 0.0
Co196 Co 0.94898 0.36209 0.7485 0.0
O197 O 0.93691 0.3264 0.7372 0.0
O198 O 0.97979 0.33736 0.74751 0.0
C199 C 0.92628 0.38581 0.71601 0.0
O200 O 0.96934 0.39689 0.75959 0.0
Co201 Co 0.90645 0.40385 0.77018 0.0
O202 O 0.93807 0.42905 0.77033 0.0
C203 C 0.92236 0.35766 0.80498 0.0
C204 C 0.96225 0.3188 0.73985 0.0
C205 C 0.96272 0.42135 0.76662 0.0
O206 O 0.94147 0.35161 0.78786 0.0
O207 O 0.90491 0.37671 0.80084 0.0
O208 O 0.94976 0.37453 0.71056 0.0
O209 O 0.91613 0.38014 0.73983 0.0
Co210 Co 0.04267 0.12717 0.73593 0.0
O211 O 0.05481 0.16388 0.72885 0.0
O212 O 0.01137 0.15111 0.73258 0.0
C213 C 0.07078 0.10657 0.70566 0.0
O214 O 0.02233 0.09107 0.74182 0.0
Co215 Co 0.08334 0.08516 0.76074 0.0
O216 O 0.05279 0.0592 0.75551 0.0
C217 C 0.06345 0.1306 0.79433 0.0
C218 C 0.02911 0.1707 0.72904 0.0
C219 C 0.02871 0.06643 0.74853 0.0
O220 O 0.04465 0.13524 0.77645 0.0
O221 O 0.08239 0.11286 0.79087 0.0
O222 O 0.04782 0.11735 0.69747 0.0
O223 O 0.07695 0.11079 0.73105 0.0
Co224 Co 0.73005 0.95761 0.62784 0.0
O225 O 0.73157 0.94902 0.66618 0.0
O226 O 0.72739 0.99077 0.64885 0.0
C227 C 0.76513 0.93082 0.61483 0.0
O228 O 0.72923 0.97467 0.58974 0.0
Co229 Co 0.71589 0.91255 0.58527 0.0
O230 O 0.73013 0.9401 0.55929 0.0
C231 C 0.67317 0.93297 0.62235 0.0
C232 C 0.72898 0.97511 0.67034 0.0
C233 C 0.73213 0.96533 0.56532 0.0
O234 O 0.68895 0.95291 0.62927 0.0
O235 O 0.68065 0.91371 0.6063 0.0
O236 O 0.76992 0.95492 0.62501 0.0
O237 O 0.73985 0.92291 0.61532 0.0
Co238 Co 0.26484 0.52088 0.62427 0.0
O239 O 0.25481 0.53316 0.66036 0.0
O240 O 0.25824 0.48984 0.64741 0.0
C241 C 0.23711 0.54938 0.60099 0.0
O242 O 0.27217 0.49975 0.58919 0.0
Co243 Co 0.2943 0.55836 0.58304 0.0
O244 O 0.28754 0.52851 0.55673 0.0
C245 C 0.32348 0.53986 0.63197 0.0
C246 C 0.25275 0.5074 0.66659 0.0
C247 C 0.27909 0.5051 0.56438 0.0
O248 O 0.30467 0.52176 0.63575 0.0
O249 O 0.32218 0.5579 0.61306 0.0
O250 O 0.22765 0.52679 0.6114 0.0
O251 O 0.26235 0.55518 0.60692 0.0
Co252 Co 0.71449 0.02888 0.87127 0.0
O253 O 0.72174 0.03694 0.83349 0.0
O254 O 0.70971 -0.00373 0.84969 0.0
C255 C 0.75142 0.05035 0.88865 0.0
O256 O 0.70706 0.01236 0.90883 0.0
Co257 Co 0.70185 0.07612 0.91177 0.0
O258 O 0.70639 0.04693 0.93931 0.0
C259 C 0.66062 0.06052 0.87104 0.0
C260 C 0.7163 0.01138 0.82876 0.0
C261 C 0.7064 0.02158 0.93346 0.0
O262 O 0.67479 0.03911 0.86523 0.0
O263 O 0.66868 0.07889 0.88785 0.0
O264 O 0.75365 0.02581 0.87871 0.0
O265 O 0.72787 0.06199 0.88518 0.0
Co266 Co 0.2331 0.46255 0.86681 0.0
O267 O 0.22299 0.45418 0.82979 0.0
O268 O 0.23368 0.49551 0.84523 0.0
C269 C 0.20015 0.43786 0.88753 0.0
O270 O 0.24344 0.47932 0.90355 0.0
Co271 Co 0.25301 0.41571 0.90545 0.0
O272 O 0.25153 0.44492 0.93327 0.0
C273 C 0.28787 0.43381 0.85995 0.0
C274 C 0.22701 0.47995 0.82468 0.0
C275 C 0.24877 0.47019 0.92765 0.0
O276 O 0.27265 0.45508 0.85681 0.0
O277 O 0.28229 0.41459 0.87685 0.0
O278 O 0.19447 0.46215 0.87823 0.0
O279 O 0.22414 0.42865 0.88152 0.0
Co280 Co 0.62164 0.71432 0.94109 0.0
O281 O 0.6564 0.72275 0.92428 0.0
O282 O 0.64769 0.72379 0.9689 0.0
C283 C 0.5951 0.73892 0.91266 0.0
O284 O 0.58895 0.70935 0.96629 0.0
Co285 Co 0.57746 0.68088 0.91172 0.0
O286 O 0.55334 0.6942 0.94147 0.0
C287 C 0.62786 0.65373 0.92901 0.0
C288 C 0.6652 0.72696 0.94908 0.0
C289 C 0.56327 0.70451 0.96326 0.0
O290 O 0.63322 0.67484 0.94371 0.0
O291 O 0.60718 0.65257 0.91293 0.0
O292 O 0.60797 0.75045 0.93292 0.0
O293 O 0.60077 0.71334 0.90845 0.0
Co294 Co 0.61511 0.24892 0.53497 0.0
O295 O 0.65046 0.24053 0.55011 0.0
O296 O 0.64198 0.24946 0.5063 0.0
C297 C 0.59162 0.2155 0.55632 0.0
O298 O 0.58183 0.25694 0.51133 0.0
Co299 Co 0.56801 0.26835 0.57287 0.0
O300 O 0.54588 0.26489 0.53914 0.0
C301 C 0.61349 0.30566 0.56085 0.0
C302 C 0.6597 0.24359 0.52533 0.0
C303 C 0.5563 0.26155 0.51545 0.0
O304 O 0.62205 0.28895 0.54239 0.0
O305 O 0.59329 0.30039 0.57672 0.0
O306 O 0.6054 0.21025 0.53413 0.0
O307 O 0.59479 0.2398 0.56624 0.0
Co308 Co 0.35358 0.26916 0.51494 0.0
O309 O 0.3154 0.27065 0.52457 0.0
O310 O 0.3317 0.26767 0.48222 0.0
C311 C 0.36816 0.30285 0.54288 0.0
O312 O 0.39088 0.26846 0.49639 0.0
Co313 Co 0.39804 0.25356 0.55815 0.0
O314 O 0.42321 0.26669 0.52932 0.0
C315 C 0.35978 0.21172 0.53782 0.0
C316 C 0.31059 0.26859 0.49843 0.0
C317 C 0.41587 0.26978 0.50447 0.0
O318 O 0.35197 0.22792 0.51849 0.0
O319 O 0.37653 0.21884 0.55671 0.0
O320 O 0.35707 0.30898 0.51941 0.0
O321 O 0.36754 0.27736 0.5495 0.0
Co322 Co 0.85784 0.25666 0.46263 0.0
O323 O 0.82237 0.2528 0.4459 0.0
O324 O 0.83042 0.25427 0.49068 0.0
C325 C 0.87966 0.22531 0.43701 0.0
O326 O 0.89094 0.25824 0.48771 0.0
Co327 Co 0.90663 0.27927 0.42969 0.0
O328 O 0.92798 0.26772 0.46202 0.0
C329 C 0.86159 0.31568 0.44395 0.0
C330 C 0.81285 0.25211 0.47076 0.0
C331 C 0.91692 0.26073 0.4846 0.0
O332 O 0.85335 0.29764 0.46126 0.0
O333 O 0.8816 0.31154 0.42755 0.0
O334 O 0.86501 0.21802 0.45802 0.0
O335 O 0.87839 0.25097 0.43045 0.0
Co336 Co 0.5316 0.86108 0.75353 0.0
O337 O 0.54538 0.82528 0.74464 0.0
O338 O 0.50149 0.83757 0.7453 0.0
C339 C 0.56095 0.88548 0.7277 0.0
O340 O 0.5089 0.89512 0.75961 0.0
Co341 Co 0.56575 0.90382 0.78497 0.0
O342 O 0.53486 0.9287 0.7772 0.0
C343 C 0.54594 0.85514 0.81378 0.0
C344 C 0.51971 0.81865 0.7415 0.0
C345 C 0.51237 0.9199 0.76734 0.0
O346 O 0.5302 0.8497 0.79335 0.0
O347 O 0.56315 0.87486 0.81374 0.0
O348 O 0.53946 0.87413 0.71676 0.0
O349 O 0.56543 0.87962 0.7532 0.0
Co350 Co 0.45857 0.6233 0.76387 0.0
O351 O 0.45333 0.66006 0.75139 0.0
O352 O 0.4927 0.64276 0.76631 0.0
C353 C 0.43616 0.60249 0.72928 0.0
O354 O 0.47277 0.58647 0.77641 0.0
Co355 Co 0.40879 0.58729 0.78071 0.0
O356 O 0.4368 0.55832 0.78266 0.0
C357 C 0.42759 0.63042 0.81796 0.0
C358 C 0.4793 0.66347 0.75641 0.0
C359 C 0.4625 0.56293 0.78168 0.0
O360 O 0.44853 0.63491 0.80249 0.0
O361 O 0.40854 0.61348 0.81199 0.0
O362 O 0.46135 0.61057 0.72605 0.0
O363 O 0.42458 0.60973 0.75196 0.0
Co364 Co 0.51716 0.12231 0.73365 0.0
O365 O 0.52689 0.16023 0.738 0.0
O366 O 0.48461 0.14331 0.73898 0.0
C367 C 0.54886 0.10432 0.76181 0.0
O368 O 0.49843 0.08543 0.73201 0.0
Co369 Co 0.55632 0.08032 0.70699 0.0
O370 O 0.52815 0.05337 0.71779 0.0
C371 C 0.53254 0.12407 0.67374 0.0
C372 C 0.50063 0.16447 0.74026 0.0
C373 C 0.50481 0.06055 0.72696 0.0
O374 O 0.51484 0.12841 0.69278 0.0
O375 O 0.55229 0.10709 0.67632 0.0
O376 O 0.52642 0.11471 0.77174 0.0
O377 O 0.55263 0.1077 0.73578 0.0
Co378 Co 0.43842 0.36256 0.73626 0.0
O379 O 0.43097 0.32403 0.73492 0.0
O380 O 0.47242 0.34288 0.73545 0.0
C381 C 0.40823 0.37288 0.7695 0.0
O382 O 0.45484 0.40042 0.73968 0.0
Co383 Co 0.39502 0.40633 0.72143 0.0
O384 O 0.41917 0.4288 0.74512 0.0
C385 C 0.41962 0.37317 0.67765 0.0
C386 C 0.45746 0.32091 0.7351 0.0
C387 C 0.44438 0.42285 0.74817 0.0
O388 O 0.43749 0.36416 0.69488 0.0
O389 O 0.39996 0.38908 0.68452 0.0
O390 O 0.43203 0.36263 0.77573 0.0
O391 O 0.40258 0.37411 0.74362 0.0
Co392 Co 0.75926 0.50753 0.86562 0.0
O393 O 0.75169 0.51839 0.82857 0.0
O394 O 0.75954 0.47587 0.84235 0.0
C395 C 0.72549 0.53211 0.88524 0.0
O396 O 0.76558 0.48768 0.90157 0.0
Co397 Co 0.77848 0.54925 0.90897 0.0
O398 O 0.773 0.51867 0.93474 0.0
C399 C 0.81619 0.5331 0.8653 0.0
C400 C 0.75383 0.49262 0.82249 0.0
C401 C 0.76912 0.49421 0.92676 0.0
O402 O 0.79971 0.5136 0.85874 0.0
O403 O 0.81058 0.5509 0.88363 0.0
O404 O 0.72032 0.50847 0.87427 0.0
O405 O 0.75023 0.54117 0.88192 0.0
Co406 Co 0.24021 0.96196 0.86177 0.0
O407 O 0.25418 0.94909 0.82727 0.0
O408 O 0.24491 0.99233 0.83733 0.0
C409 C 0.26928 0.93857 0.88887 0.0
O410 O 0.22788 0.98373 0.89491 0.0
Co411 Co 0.21202 0.92318 0.90249 0.0
O412 O 0.21506 0.95439 0.92791 0.0
C413 C 0.1827 0.93869 0.85269 0.0
C414 C 0.25371 0.97454 0.81965 0.0
C415 C 0.22086 0.9784 0.91967 0.0
O416 O 0.2016 0.95636 0.84776 0.0
O417 O 0.1837 0.92201 0.87285 0.0
O418 O 0.27663 0.96141 0.87745 0.0
O419 O 0.24556 0.92904 0.8814 0.0
Co420 Co 0.74671 0.45361 0.61938 0.0
O421 O 0.74196 0.44058 0.65619 0.0
O422 O 0.73949 0.484 0.64313 0.0
C423 C 0.72024 0.42213 0.59863 0.0
O424 O 0.74867 0.47499 0.58376 0.0
Co425 Co 0.77641 0.41862 0.57602 0.0
O426 O 0.76645 0.44845 0.55063 0.0
C427 C 0.80698 0.44029 0.62269 0.0
C428 C 0.73868 0.46611 0.66281 0.0
C429 C 0.75571 0.4707 0.55881 0.0
O430 O 0.78726 0.45718 0.62693 0.0
O431 O 0.80579 0.42151 0.60452 0.0
O432 O 0.70926 0.44349 0.61006 0.0
O433 O 0.74635 0.41922 0.60235 0.0
Co434 Co 0.26812 0.05236 0.62965 0.0
O435 O 0.27345 0.06708 0.66588 0.0
O436 O 0.27389 0.02304 0.65495 0.0
C437 C 0.29586 0.08129 0.60684 0.0
O438 O 0.26491 0.02897 0.59557 0.0
Co439 Co 0.24046 0.08652 0.58378 0.0
O440 O 0.24965 0.05475 0.56054 0.0
C441 C 0.20714 0.06592 0.62933 0.0
C442 C 0.27549 0.04175 0.67376 0.0
C443 C 0.25851 0.03231 0.57034 0.0
O444 O 0.22733 0.05078 0.6369 0.0
O445 O 0.20889 0.08328 0.60979 0.0
O446 O 0.30608 0.0604 0.61981 0.0
O447 O 0.26997 0.08552 0.61051 0.0
Co448 Co 0.86266 0.7476 0.54976 0.0
O449 O 0.82634 0.73958 0.56275 0.0
O450 O 0.83812 0.74386 0.51906 0.0
C451 C 0.88509 0.71753 0.57638 0.0
O452 O 0.89801 0.75399 0.52855 0.0
Co453 Co 0.90484 0.77368 0.58889 0.0
O454 O 0.93047 0.76842 0.55801 0.0
C455 C 0.85836 0.80611 0.57027 0.0
C456 C 0.81904 0.73942 0.53716 0.0
C457 C 0.92279 0.76091 0.53423 0.0
O458 O 0.85385 0.78781 0.55193 0.0
O459 O 0.87666 0.80342 0.58884 0.0
O460 O 0.87335 0.70966 0.5538 0.0
O461 O 0.88038 0.74257 0.58362 0.0
Co462 Co 0.86817 0.22122 0.95033 0.0
O463 O 0.83182 0.23114 0.93878 0.0
O464 O 0.8464 0.23008 0.98185 0.0
C465 C 0.89065 0.24672 0.91917 0.0
O466 O 0.90388 0.21429 0.97054 0.0
Co467 Co 0.90707 0.18869 0.91341 0.0
O468 O 0.93477 0.19554 0.94214 0.0
C469 C 0.85824 0.16203 0.93553 0.0
C470 C 0.8266 0.23473 0.96465 0.0
C471 C 0.92819 0.20584 0.96515 0.0
O472 O 0.85594 0.18189 0.9526 0.0
O473 O 0.87627 0.16175 0.91651 0.0
O474 O 0.88149 0.25751 0.9417 0.0
O475 O 0.88409 0.22135 0.91508 0.0
Co476 Co 0.13219 0.24516 0.95263 0.0
O477 O 0.16947 0.24335 0.93997 0.0
O478 O 0.15656 0.24208 0.98352 0.0
C479 C 0.11478 0.21446 0.92307 0.0
O480 O 0.0962 0.2443 0.9736 0.0
Co481 Co 0.08628 0.2671 0.91477 0.0
O482 O 0.062 0.25304 0.94389 0.0
C483 C 0.12635 0.30538 0.93761 0.0
C484 C 0.17628 0.24118 0.96561 0.0
C485 C 0.07067 0.24588 0.96742 0.0
O486 O 0.13487 0.28638 0.95377 0.0
O487 O 0.10834 0.3013 0.91899 0.0
O488 O 0.12725 0.20648 0.94519 0.0
O489 O 0.1157 0.24046 0.91811 0.0
Co490 Co 0.62709 0.25599 0.01387 0.0
O491 O 0.66465 0.2649 0.02136 0.0
O492 O 0.64804 0.25353 0.98057 0.0
C493 C 0.60839 0.2906 0.0378 0.0
O494 O 0.58978 0.2464 -0.00213 0.0
Co495 Co 0.58769 0.23988 0.06157 0.0
O496 O 0.5596 0.2443 0.03276 0.0
C497 C 0.62991 0.20101 0.04323 0.0
C498 C 0.6691 0.26005 -0.00444 0.0
C499 C 0.56528 0.24458 0.00729 0.0
O500 O 0.63543 0.21641 0.02252 0.0
O501 O 0.61278 0.20755 0.06198 0.0
O502 O 0.61736 0.29496 0.01308 0.0
O503 O 0.61333 0.26672 0.04777 0.0
Co504 Co 0.45732 0.12946 0.26478 0.0
O505 O 0.44952 0.16775 0.26018 0.0
O506 O 0.49094 0.14971 0.26559 0.0
C507 C 0.42417 0.12002 0.29552 0.0
O508 O 0.47411 0.09214 0.27153 0.0
Co509 Co 0.4159 0.08386 0.24914 0.0
O510 O 0.43908 0.06255 0.27468 0.0
C511 C 0.44284 0.11594 0.20583 0.0
C512 C 0.47594 0.17127 0.2617 0.0
C513 C 0.46384 0.06935 0.27937 0.0
O514 O 0.45983 0.12567 0.22357 0.0
O515 O 0.4229 0.10017 0.21227 0.0
O516 O 0.44702 0.13119 0.30364 0.0
O517 O 0.42132 0.11754 0.26937 0.0
Co518 Co 0.54147 0.36591 0.22783 0.0
O519 O 0.54893 0.32743 0.23119 0.0
O520 O 0.50754 0.34617 0.2293 0.0
C521 C 0.57141 0.38045 0.25975 0.0
O522 O 0.52486 0.40374 0.22665 0.0
Co523 Co 0.58506 0.40735 0.20761 0.0
O524 O 0.55952 0.43395 0.2243 0.0
C525 C 0.5599 0.36952 0.16823 0.0
C526 C 0.52242 0.32432 0.23163 0.0
C527 C 0.53448 0.428 0.22864 0.0
O528 O 0.5423 0.36249 0.1866 0.0
O529 O 0.57975 0.38598 0.17299 0.0
O530 O 0.54761 0.37084 0.26693 0.0
O531 O 0.57738 0.37844 0.23398 0.0
Co532 Co 0.45445 0.87104 0.24626 0.0
O533 O 0.44666 0.83576 0.23085 0.0
O534 O 0.4873 0.84969 0.24607 0.0
C535 C 0.43254 0.89604 0.21424 0.0
O536 O 0.47131 0.90538 0.26208 0.0
Co537 Co 0.40782 0.90837 0.26764 0.0
O538 O 0.43803 0.93401 0.27581 0.0
C539 C 0.42381 0.8603 0.29979 0.0
C540 C 0.47244 0.83052 0.23518 0.0
C541 C 0.4632 0.92789 0.27267 0.0
O542 O 0.44454 0.85657 0.28388 0.0
O543 O 0.40559 0.8786 0.29555 0.0
O544 O 0.45718 0.88704 0.20968 0.0
O545 O 0.42111 0.88754 0.23657 0.0
Co546 Co 0.53066 0.63336 0.24131 0.0
O547 O 0.53855 0.67039 0.23122 0.0
O548 O 0.49697 0.65345 0.23894 0.0
C549 C 0.55783 0.61323 0.21008 0.0
O550 O 0.51406 0.59642 0.25019 0.0
Co551 Co 0.57622 0.59609 0.26502 0.0
O552 O 0.54796 0.56744 0.26168 0.0
C553 C 0.55354 0.63977 0.29915 0.0
C554 C 0.51221 0.67427 0.23243 0.0
C555 C 0.5229 0.57255 0.25644 0.0
O556 O 0.53462 0.64383 0.28123 0.0
O557 O 0.57323 0.62288 0.2957 0.0
O558 O 0.53356 0.62185 0.20329 0.0
O559 O 0.56592 0.61953 0.23454 0.0
Co560 Co 0.28025 0.43935 0.13003 0.0
O561 O 0.28597 0.42728 0.16706 0.0
O562 O 0.28315 0.47056 0.1537 0.0
C563 C 0.31059 0.41095 0.1102 0.0
O564 O 0.27584 0.46007 0.09419 0.0
Co565 Co 0.25682 0.39995 0.08587 0.0
O566 O 0.26755 0.42966 0.06057 0.0
C567 C 0.22115 0.41977 0.13012 0.0
C568 C 0.28592 0.45304 0.17355 0.0
C569 C 0.27302 0.45373 0.06885 0.0
O570 O 0.23936 0.43774 0.13653 0.0
O571 O 0.22497 0.40152 0.11174 0.0
O572 O 0.31906 0.43352 0.12148 0.0
O573 O 0.28494 0.40536 0.11346 0.0
Co574 Co 0.73241 0.04507 0.13099 0.0
O575 O 0.72125 0.05399 0.16779 0.0
O576 O 0.72806 0.01208 0.15178 0.0
C577 C 0.7032 0.07291 0.10872 0.0
O578 O 0.74246 0.02723 0.09477 0.0
Co579 Co 0.75936 0.08823 0.09301 0.0
O580 O 0.75935 0.05861 0.06557 0.0
C581 C 0.79039 0.06651 0.13957 0.0
C582 C 0.72167 0.02778 0.17226 0.0
C583 C 0.75213 0.03427 0.07134 0.0
O584 O 0.77199 0.04796 0.14306 0.0
O585 O 0.78816 0.08578 0.12201 0.0
O586 O 0.69491 0.04928 0.11772 0.0
O587 O 0.72773 0.08002 0.11584 0.0
Co588 Co 0.25694 0.53214 0.36353 0.0
O589 O 0.26517 0.54643 0.32763 0.0
O590 O 0.26095 0.50251 0.33824 0.0
C591 C 0.28685 0.55805 0.38703 0.0
O592 O 0.25098 0.50893 0.39755 0.0
Co593 Co 0.23154 0.56776 0.40914 0.0
O594 O 0.23886 0.53586 0.43279 0.0
C595 C 0.19863 0.55332 0.36112 0.0
C596 C 0.2659 0.52103 0.31981 0.0
C597 C 0.24581 0.51277 0.42303 0.0
O598 O 0.2165 0.53503 0.35478 0.0
O599 O 0.20184 0.56999 0.38103 0.0
O600 O 0.2951 0.53615 0.37443 0.0
O601 O 0.26156 0.56492 0.38294 0.0
Co602 Co 0.74814 0.96004 0.36545 0.0
O603 O 0.732 0.95582 0.32983 0.0
O604 O 0.74647 -0.00494 0.34743 0.0
C605 C 0.71736 0.93447 0.38835 0.0
O606 O 0.76424 0.97279 0.40178 0.0
Co607 Co 0.7718 0.90985 0.39636 0.0
O608 O 0.77765 0.9362 0.42636 0.0
C609 C 0.80127 0.93183 0.3489 0.0
C610 C 0.73551 0.98199 0.32697 0.0
C611 C 0.77407 0.96183 0.42361 0.0
O612 O 0.78547 0.95288 0.34882 0.0
O613 O 0.79794 0.91144 0.36496 0.0
O614 O 0.71189 0.95979 0.38239 0.0
O615 O 0.73979 0.92485 0.3781 0.0
Co616 Co 0.11187 0.22244 0.45307 0.0
O617 O 0.14903 0.22937 0.44119 0.0
O618 O 0.13453 0.22949 0.48427 0.0
C619 C 0.09124 0.2495 0.42177 0.0
O620 O 0.0765 0.21882 0.47435 0.0
Co621 Co 0.06797 0.19408 0.41824 0.0
O622 O 0.04237 0.20215 0.44858 0.0
C623 C 0.11425 0.16219 0.43917 0.0
C624 C 0.15455 0.23276 0.46708 0.0
C625 C 0.0514 0.21194 0.47097 0.0
O626 O 0.12024 0.1821 0.45533 0.0
O627 O 0.0953 0.16374 0.42112 0.0
O628 O 0.10171 0.25977 0.44402 0.0
O629 O 0.09508 0.22355 0.41819 0.0
Co630 Co 0.12147 0.76099 0.02947 0.0
O631 O 0.15936 0.75622 0.03957 0.0
O632 O 0.14375 0.76087 -0.00289 0.0
C633 C 0.10445 0.72786 0.05666 0.0
O634 O 0.0848 0.76397 0.00995 0.0
Co635 Co 0.07694 0.77964 0.07007 0.0
O636 O 0.05093 0.77147 0.04017 0.0
C637 C 0.1191 0.81856 0.05237 0.0
C638 C 0.16448 0.75734 0.01342 0.0
C639 C 0.05934 0.76647 0.01602 0.0
O640 O 0.12626 0.8019 0.03326 0.0
O641 O 0.10103 0.81273 0.07043 0.0
O642 O 0.11518 0.72187 0.03303 0.0
O643 O 0.10624 0.7532 0.06403 0.0
Co644 Co 0.8601 0.72605 0.0179 0.0
O645 O 0.82409 0.73191 0.03266 0.0
O646 O 0.83502 0.73412 0.98858 0.0
C647 C 0.88311 0.75182 0.04832 0.0
O648 O 0.89488 0.72355 -0.00491 0.0
Co649 Co 0.90373 0.69481 0.05107 0.0
O650 O 0.92876 0.70824 0.02229 0.0
C651 C 0.85602 0.66542 0.03025 0.0
C652 C 0.81631 0.73572 0.00748 0.0
C653 C 0.9203 0.71867 -6e-05 0.0
O654 O 0.85114 0.68586 0.01441 0.0
O655 O 0.8752 0.66558 0.04812 0.0
O656 O 0.8709 0.76299 0.02744 0.0
O657 O 0.87866 0.72591 0.05169 0.0
Co658 Co 0.36632 0.76295 0.96472 0.0
O659 O 0.3289 0.75718 0.95361 0.0
O660 O 0.34434 0.755 -0.00365 0.0
C661 C 0.38635 0.73728 0.93226 0.0
O662 O 0.40296 0.76533 0.98444 0.0
Co663 Co 0.40802 0.79353 0.92833 0.0
O664 O 0.4352 0.77888 0.95446 0.0
C665 C 0.3611 0.8228 0.95137 0.0
C666 C 0.32375 0.75352 0.97952 0.0
C667 C 0.42812 0.76886 0.97748 0.0
O668 O 0.35778 0.80316 0.96858 0.0
O669 O 0.37904 0.82214 0.93228 0.0
O670 O 0.37603 0.72596 0.95408 0.0
O671 O 0.3819 0.76323 0.92953 0.0
H672 H 0.95421 0.21604 0.23823 0.0
H673 H 0.03064 0.17222 0.24564 0.0
H674 H 0.05611 0.21507 0.24172 0.0
H675 H 0.05651 0.26513 0.23857 0.0
H676 H 0.97995 0.30893 0.23246 0.0
H677 H 0.95468 0.26586 0.23335 0.0
C678 C 0.97645 0.21583 0.23879 0.0
C679 C 0.99052 0.19104 0.24234 0.0
C680 C 0.99092 0.24053 0.23686 0.0
C681 C 0.01933 0.19108 0.24303 0.0
C682 C 0.0339 0.21556 0.24081 0.0
C683 C 0.03431 0.26524 0.23721 0.0
C684 C 0.02012 0.29016 0.23556 0.0
C685 C 0.01989 0.24043 0.23808 0.0
C686 C 0.99135 0.29 0.23386 0.0
C687 C 0.97688 0.26539 0.23439 0.0
H688 H 0.04592 0.72264 0.24326 0.0
H689 H 0.96802 0.68198 0.25349 0.0
H690 H 0.94409 0.72538 0.24663 0.0
H691 H 0.94539 0.77444 0.23583 0.0
H692 H 0.02345 0.81446 0.22393 0.0
H693 H 0.04727 0.77158 0.23314 0.0
C694 C 0.02371 0.72332 0.24434 0.0
C695 C 0.00874 0.69921 0.24899 0.0
C696 C 0.01014 0.74813 0.23974 0.0
C697 C 0.97998 0.70032 0.24999 0.0
C698 C 0.9663 0.72509 0.24597 0.0
C699 C 0.96761 0.77378 0.23527 0.0
C700 C 0.98263 0.79756 0.22914 0.0
C701 C 0.98118 0.74904 0.24046 0.0
C702 C 0.01141 0.7964 0.22849 0.0
C703 C 0.02505 0.77192 0.23383 0.0
H704 H 0.24899 0.94386 0.21147 0.0
H705 H 0.22762 0.0248 0.18342 0.0
H706 H 0.2241 0.04053 0.23066 0.0
H707 H 0.22903 0.03196 0.27971 0.0
H708 H 0.25132 0.95147 0.30824 0.0
H709 H 0.25245 0.93487 0.261 0.0
C710 C 0.24331 0.96486 0.21573 0.0
C711 C 0.23863 0.98315 0.19401 0.0
C712 C 0.24164 0.97389 0.24298 0.0
C713 C 0.23142 0.01034 0.1998 0.0
C714 C 0.22942 0.01938 0.2268 0.0
C715 C 0.23401 0.01074 0.27563 0.0
C716 C 0.24019 0.99301 0.2974 0.0
C717 C 0.23482 0.00143 0.24851 0.0
C718 C 0.24655 0.96556 0.2918 0.0
C719 C 0.24721 0.95606 0.2648 0.0
H720 H 0.75748 0.53926 0.19781 0.0
H721 H 0.75175 0.45565 0.17017 0.0
H722 H 0.75906 0.43939 0.21688 0.0
H723 H 0.76263 0.44899 0.26589 0.0
H724 H 0.7655 0.53254 0.29407 0.0
H725 H 0.76414 0.54881 0.24673 0.0
C726 C 0.75818 0.51748 0.20198 0.0
C727 C 0.75384 0.49867 0.1807 0.0
C728 C 0.76175 0.5083 0.22896 0.0
C729 C 0.75478 0.47052 0.18632 0.0
C730 C 0.75897 0.46121 0.213 0.0
C731 C 0.76338 0.47075 0.26166 0.0
C732 C 0.76396 0.48955 0.28336 0.0
C733 C 0.76181 0.47992 0.23453 0.0
C734 C 0.76485 0.51768 0.27764 0.0
C735 C 0.76402 0.52699 0.25061 0.0
H736 H 0.30292 0.22136 0.98086 0.0
H737 H 0.27766 0.21147 0.06505 0.0
H738 H 0.22999 0.21983 0.05201 0.0
H739 H 0.1957 0.23083 0.01677 0.0
H740 H 0.22136 0.24111 0.93272 0.0
H741 H 0.26876 0.23196 0.94572 0.0
C742 C 0.28697 0.22081 -0.00365 0.0
C743 C 0.29378 0.21574 0.02386 0.0
C744 C 0.25974 0.22597 0.98878 0.0
C745 C 0.27291 0.21527 0.04371 0.0
C746 C 0.24568 0.22015 0.03629 0.0
C747 C 0.21168 0.23116 0.00133 0.0
C748 C 0.20504 0.23669 0.97385 0.0
C749 C 0.2389 0.22574 0.00892 0.0
C750 C 0.22594 0.23694 0.95403 0.0
C751 C 0.25305 0.23164 0.96143 0.0
H752 H 0.26845 0.73561 0.45122 0.0
H753 H 0.29994 0.75478 0.53164 0.0
H754 H 0.25436 0.74835 0.55131 0.0
H755 H 0.20605 0.73601 0.54591 0.0
H756 H 0.17448 0.71589 0.46576 0.0
H757 H 0.21974 0.72387 0.44571 0.0
C758 C 0.26527 0.73863 0.47301 0.0
C759 C 0.28749 0.74571 0.48995 0.0
C760 C 0.2391 0.73452 0.48424 0.0
C761 C 0.28315 0.74932 0.51817 0.0
C762 C 0.25712 0.74559 0.52944 0.0
C763 C 0.20903 0.73339 0.52404 0.0
C764 C 0.18698 0.72533 0.50735 0.0
C765 C 0.23504 0.73794 0.51271 0.0
C766 C 0.19117 0.72204 0.47906 0.0
C767 C 0.21701 0.72664 0.46758 0.0
H768 H 0.79836 0.73464 0.48574 0.0
H769 H 0.77466 0.73665 0.57094 0.0
H770 H 0.72638 0.73497 0.55792 0.0
H771 H 0.69086 0.73597 0.52227 0.0
H772 H 0.71464 0.73405 0.43708 0.0
H773 H 0.76287 0.73242 0.4502 0.0
C774 C 0.78263 0.73451 0.50146 0.0
C775 C 0.79005 0.736 0.52922 0.0
C776 C 0.7549 0.73365 0.49384 0.0
C777 C 0.76947 0.73559 0.54938 0.0
C778 C 0.74184 0.7347 0.54197 0.0
C779 C 0.7066 0.73496 0.50659 0.0
C780 C 0.6992 0.73536 0.47878 0.0
C781 C 0.73432 0.73418 0.51426 0.0
C782 C 0.71979 0.73386 0.45867 0.0
C783 C 0.7474 0.733 0.46614 0.0
H784 H 0.04148 0.78022 0.7606 0.0
H785 H 0.95798 0.80767 0.7506 0.0
H786 H 0.94147 0.76093 0.75772 0.0
H787 H 0.95113 0.71196 0.7635 0.0
H788 H 0.0349 0.6845 0.77078 0.0
H789 H 0.051 0.73178 0.76826 0.0
C790 C 0.01962 0.77608 0.76024 0.0
C791 C 0.00096 0.79737 0.75499 0.0
C792 C 0.01039 0.74918 0.76379 0.0
C793 C 0.97275 0.79162 0.75452 0.0
C794 C 0.96332 0.76491 0.75856 0.0
C795 C 0.97289 0.71635 0.76494 0.0
C796 C 0.99184 0.69479 0.76733 0.0
C797 C 0.982 0.74348 0.76276 0.0
C798 C 0.01995 0.70075 0.76889 0.0
C799 C 0.02915 0.72775 0.76739 0.0
H800 H 0.97731 0.19139 0.72751 0.0
H801 H 0.06255 0.21526 0.72816 0.0
H802 H 0.04946 0.26325 0.73082 0.0
H803 H 0.01388 0.29841 0.73546 0.0
H804 H 0.92862 0.27473 0.73414 0.0
H805 H 0.94164 0.22683 0.7292 0.0
C806 C 0.993 0.20711 0.72798 0.0
C807 C 0.02084 0.19973 0.7278 0.0
C808 C 0.98535 0.23475 0.72958 0.0
C809 C 0.04095 0.22036 0.7283 0.0
C810 C 0.0335 0.24784 0.72992 0.0
C811 C -0.00183 0.28276 0.73399 0.0
C812 C 0.97037 0.29008 0.73537 0.0
C813 C 0.00578 0.25525 0.73101 0.0
C814 C 0.95021 0.26963 0.73316 0.0
C815 C 0.95762 0.24221 0.73038 0.0
H816 H 0.72317 0.03973 0.78167 0.0
H817 H 0.71231 0.95795 0.81314 0.0
H818 H 0.71551 0.93951 0.76671 0.0
H819 H 0.72178 0.94669 0.71737 0.0
H820 H 0.73167 0.02858 0.68587 0.0
H821 H 0.72848 0.04698 0.7323 0.0
C822 C 0.72152 0.01786 0.77838 0.0
C823 C 0.71764 0.0002 0.80077 0.0
C824 C 0.72326 0.00747 0.75171 0.0
C825 C 0.71532 0.97195 0.79621 0.0
C826 C 0.71719 0.96141 0.76969 0.0
C827 C 0.72335 0.96856 0.72068 0.0
C828 C 0.72715 0.98626 0.6983 0.0
C829 C 0.72126 0.97898 0.74733 0.0
C830 C 0.7288 0.01455 0.70281 0.0
C831 C 0.72699 0.02508 0.72932 0.0
H832 H 0.2253 0.44983 0.77841 0.0
H833 H 0.23054 0.533 0.80737 0.0
H834 H 0.23749 0.54911 0.76041 0.0
H835 H 0.24548 0.53904 0.7117 0.0
H836 H 0.24233 0.45544 0.68355 0.0
H837 H 0.23122 0.43999 0.72976 0.0
C838 C 0.22755 0.47153 0.77443 0.0
C839 C 0.22745 0.4902 0.79628 0.0
C840 C 0.23225 0.48051 0.7476 0.0
C841 C 0.23057 0.51823 0.79084 0.0
C842 C 0.23466 0.52743 0.76404 0.0
C843 C 0.24218 0.51747 0.71566 0.0
C844 C 0.24488 0.49839 0.69431 0.0
C845 C 0.23612 0.50868 0.74235 0.0
C846 C 0.24055 0.47051 0.6997 0.0
C847 C 0.23415 0.46166 0.72609 0.0
H848 H 0.68806 0.73684 -0.00145 0.0
H849 H 0.70743 0.73075 0.91247 0.0
H850 H 0.75623 0.73572 0.92285 0.0
H851 H 0.79344 0.73745 0.95678 0.0
H852 H 0.7737 0.74189 0.04291 0.0
H853 H 0.7249 0.74216 0.03205 0.0
C854 C 0.70292 0.73687 0.98201 0.0
C855 C 0.69422 0.73313 0.95484 0.0
C856 C 0.73086 0.73929 0.98815 0.0
C857 C 0.71367 0.73344 0.9336 0.0
C858 C 0.74156 0.73622 0.93952 0.0
C859 C 0.77845 0.73884 0.97314 0.0
C860 C 0.78713 0.73937 0.0006 0.0
C861 C 0.75041 0.7385 0.96678 0.0
C862 C 0.76752 0.74125 0.0216 0.0
C863 C 0.73961 0.74136 0.01542 0.0
H864 H 0.68407 0.24763 0.47565 0.0
H865 H 0.70149 0.2365 0.56169 0.0
H866 H 0.75062 0.23753 0.55221 0.0
H867 H 0.78846 0.2435 0.51978 0.0
H868 H 0.77109 0.25456 0.43374 0.0
H869 H 0.72196 0.25163 0.44295 0.0
C870 C 0.69862 0.24526 0.49231 0.0
C871 C 0.68922 0.24213 0.51932 0.0
C872 C 0.72677 0.24601 0.48674 0.0
C873 C 0.70826 0.23896 0.5407 0.0
C874 C 0.73633 0.23962 0.53532 0.0
C875 C 0.77392 0.24522 0.50305 0.0
C876 C 0.78331 0.2494 0.47618 0.0
C877 C 0.74579 0.24347 0.50847 0.0
C878 C 0.7643 0.25136 0.45463 0.0
C879 C 0.73624 0.24972 0.45987 0.0
H880 H 0.20003 0.24333 0.43644 0.0
H881 H 0.17076 0.23953 0.51988 0.0
H882 H 0.21604 0.25203 0.53675 0.0
H883 H 0.26418 0.26259 0.52809 0.0
H884 H 0.2942 0.26576 0.44497 0.0
H885 H 0.24832 0.2553 0.4277 0.0
C886 C 0.2036 0.24526 0.4583 0.0
C887 C 0.18212 0.24037 0.47685 0.0
C888 C 0.22976 0.25246 0.46793 0.0
C889 C 0.18698 0.24307 0.50513 0.0
C890 C 0.21286 0.25027 0.51483 0.0
C891 C 0.26065 0.26127 0.50618 0.0
C892 C 0.28251 0.26491 0.48785 0.0
C893 C 0.2344 0.25486 0.49645 0.0
C894 C 0.27766 0.26302 0.45952 0.0
C895 C 0.25146 0.25695 0.44963 0.0
H896 H 0.54747 0.77256 0.75436 0.0
H897 H 0.4721 0.8018 0.71854 0.0
H898 H 0.45376 0.75539 0.71783 0.0
H899 H 0.45724 0.70774 0.73198 0.0
H900 H 0.53156 0.67842 0.76995 0.0
H901 H 0.55232 0.72369 0.76522 0.0
C902 C 0.5273 0.76859 0.74585 0.0
C903 C 0.51104 0.79038 0.73664 0.0
C904 C 0.51657 0.74201 0.74633 0.0
C905 C 0.48484 0.78522 0.7259 0.0
C906 C 0.47433 0.75876 0.72558 0.0
C907 C 0.47805 0.71119 0.73905 0.0
C908 C 0.49272 0.68997 0.75162 0.0
C909 C 0.48967 0.7372 0.73655 0.0
C910 C 0.51979 0.69458 0.76038 0.0
C911 C 0.53167 0.72042 0.75768 0.0
H912 H 0.43174 0.27276 0.74355 0.0
H913 H 0.51149 0.30804 0.72856 0.0
H914 H 0.53232 0.26265 0.73019 0.0
H915 H 0.52754 0.21281 0.73483 0.0
H916 H 0.44755 0.17801 0.75 0.0
H917 H 0.42719 0.22344 0.74966 0.0
C918 C 0.45367 0.27051 0.74056 0.0
C919 C 0.47003 0.2936 0.73575 0.0
C920 C 0.46548 0.24448 0.74172 0.0
C921 C 0.49845 0.29047 0.73221 0.0
C922 C 0.51038 0.26456 0.73318 0.0
C923 C 0.50571 0.21523 0.73831 0.0
C924 C 0.48907 0.19214 0.74234 0.0
C925 C 0.49406 0.24142 0.73785 0.0
C926 C 0.46079 0.1955 0.74674 0.0
C927 C 0.4491 0.22145 0.74649 0.0
H928 H 0.73933 0.52271 0.77827 0.0
H929 H 0.75963 0.44057 0.80342 0.0
H930 H 0.75459 0.42469 0.75625 0.0
H931 H 0.74661 0.43461 0.7077 0.0
H932 H 0.72735 0.51697 0.68244 0.0
H933 H 0.72944 0.53226 0.73002 0.0
C934 C 0.74258 0.50132 0.77345 0.0
C935 C 0.75001 0.48288 0.79421 0.0
C936 C 0.73974 0.49237 0.74634 0.0
C937 C 0.75399 0.45519 0.78773 0.0
C938 C 0.75109 0.44609 0.76079 0.0
C939 C 0.74252 0.45584 0.71265 0.0
C940 C 0.73689 0.47466 0.69165 0.0
C941 C 0.74423 0.46456 0.73992 0.0
C942 C 0.73179 0.50211 0.6983 0.0
C943 C 0.73306 0.51088 0.72546 0.0
H944 H 0.2805 0.99092 0.69488 0.0
H945 H 0.27193 0.07562 0.71809 0.0
H946 H 0.26614 0.06218 0.76598 0.0
H947 H 0.25932 0.02617 0.80034 0.0
H948 H 0.26693 0.94148 0.77675 0.0
H949 H 0.27734 0.95518 0.72978 0.0
C950 C 0.27772 0.00649 0.71045 0.0
C951 C 0.27636 0.03418 0.70296 0.0
C952 C 0.27393 -0.0014 0.73777 0.0
C953 C 0.27297 0.05413 0.72336 0.0
C954 C 0.26951 0.04646 0.75071 0.0
C955 C 0.26342 0.01072 0.78495 0.0
C956 C 0.26203 0.98287 0.79187 0.0
C957 C 0.26924 0.01873 0.758 0.0
C958 C 0.26771 0.96306 0.77185 0.0
C959 C 0.27365 0.97087 0.745 0.0
H960 H 0.71626 0.26351 0.02437 0.0
H961 H 0.68488 0.25389 0.94222 0.0
H962 H 0.73143 0.24682 0.92505 0.0
H963 H 0.78049 0.24008 0.93404 0.0
H964 H 0.81128 0.24776 0.01665 0.0
H965 H 0.76537 0.2589 0.03301 0.0
C966 C 0.71961 0.26023 0.00264 0.0
C967 C 0.69721 0.25914 0.98459 0.0
C968 C 0.74625 0.25557 0.99307 0.0
C969 C 0.70184 0.25476 0.95652 0.0
C970 C 0.72841 0.25063 0.94672 0.0
C971 C 0.77718 0.2444 0.95559 0.0
C972 C 0.79917 0.24295 0.97414 0.0
C973 C 0.75069 0.25044 0.96491 0.0
C974 C 0.79462 0.24859 0.00199 0.0
C975 C 0.7684 0.25499 0.01136 0.0
H976 H 0.54788 0.2768 0.24446 0.0
H977 H 0.46818 0.31151 0.22813 0.0
H978 H 0.44663 0.26725 0.23656 0.0
H979 H 0.45042 0.21878 0.24876 0.0
H980 H 0.53013 0.18421 0.26542 0.0
H981 H 0.55165 0.22843 0.25687 0.0
C982 C 0.52581 0.27464 0.24262 0.0
C983 C 0.50966 0.29732 0.23564 0.0
C984 C 0.51354 0.24923 0.24773 0.0
C985 C 0.48107 0.2943 0.23349 0.0
C986 C 0.46872 0.26903 0.23834 0.0
C987 C 0.47248 0.22097 0.25065 0.0
C988 C 0.48864 0.19832 0.25775 0.0
C989 C 0.48475 0.2464 0.24558 0.0
C990 C 0.51721 0.20139 0.26001 0.0
C991 C 0.52956 0.22663 0.25506 0.0
H992 H 0.44462 0.78327 0.22785 0.0
H993 H 0.52632 0.81717 0.23092 0.0
H994 H 0.5459 0.77141 0.22743 0.0
H995 H 0.53974 0.7219 0.22789 0.0
H996 H 0.45811 0.68767 0.22789 0.0
H997 H 0.43848 0.73356 0.22559 0.0
C998 C 0.4667 0.78063 0.22734 0.0
C999 C 0.48404 0.80339 0.22981 0.0
C1000 C 0.47778 0.75427 0.22612 0.0
C1001 C 0.5126 0.79981 0.22927 0.0
C1002 C 0.5238 0.77371 0.2273 0.0
C1003 C 0.51765 0.72446 0.22705 0.0
C1004 C 0.50037 0.70155 0.22827 0.0
C1005 C 0.50657 0.75079 0.22641 0.0
C1006 C 0.47181 0.7051 0.22719 0.0
C1007 C 0.46059 0.73129 0.22589 0.0
H1008 H 0.27629 0.47035 0.30064 0.0
H1009 H 0.26901 0.55449 0.27506 0.0
H1010 H 0.27666 0.54102 0.2274 0.0
H1011 H 0.28279 0.50495 0.19293 0.0
H1012 H 0.28966 0.42083 0.2189 0.0
H1013 H 0.28511 0.43478 0.26665 0.0
C1014 C 0.27645 0.48577 0.28465 0.0
C1015 C 0.27184 0.51332 0.29126 0.0
C1016 C 0.28083 0.47789 0.25743 0.0
C1017 C 0.27242 0.53312 0.27041 0.0
C1018 C 0.27677 0.52543 0.2432 0.0
C1019 C 0.28359 0.4897 0.20906 0.0
C1020 C 0.28638 0.46189 0.2024 0.0
C1021 C 0.28065 0.49783 0.23645 0.0
C1022 C 0.28745 0.44237 0.2235 0.0
C1023 C 0.28476 0.45031 0.2508 0.0
H1024 H 0.72616 0.05435 0.22077 0.0
H1025 H 0.70899 0.97532 0.18545 0.0
H1026 H 0.70889 0.95466 0.231 0.0
H1027 H 0.71833 0.95823 0.28002 0.0
H1028 H 0.73844 0.0366 0.31532 0.0
H1029 H 0.73253 0.05843 0.27061 0.0
C1030 C 0.72191 0.0327 0.22314 0.0
C1031 C 0.71773 0.01632 0.19987 0.0
C1032 C 0.72271 0.02082 0.24931 0.0
C1033 C 0.71245 0.98828 0.20311 0.0
C1034 C 0.71244 0.97646 0.22912 0.0
C1035 C 0.72112 0.98015 0.27803 0.0
C1036 C 0.72906 -0.00425 0.30085 0.0
C1037 C 0.71831 0.9924 0.25224 0.0
C1038 C 0.73251 0.02412 0.29797 0.0
C1039 C 0.72916 0.0366 0.27243 0.0
H1040 H 0.21119 0.74811 0.04221 0.0
H1041 H 0.18071 0.76139 0.96021 0.0
H1042 H 0.22731 0.75942 0.9422 0.0
H1043 H 0.27679 0.75626 0.95001 0.0
H1044 H 0.30746 0.74362 0.03203 0.0
H1045 H 0.26064 0.74268 0.04972 0.0
C1046 C 0.21475 0.75047 0.0204 0.0
C1047 C 0.19259 0.75509 0.00261 0.0
C1048 C 0.2416 0.7494 0.01018 0.0
C1049 C 0.19746 0.75794 0.97436 0.0
C1050 C 0.22409 0.75681 0.96403 0.0
C1051 C 0.27322 0.75301 0.97171 0.0
C1052 C 0.29551 0.75015 0.98969 0.0
C1053 C 0.24632 0.75285 0.98178 0.0
C1054 C 0.2906 0.74597 0.01777 0.0
C1055 C 0.26386 0.74551 0.02792 0.0
H1056 H 0.0964 0.30449 0.41702 0.0
H1057 H 0.06249 0.23385 0.37639 0.0
H1058 H 0.05097 0.26186 0.33645 0.0
H1059 H 0.05594 0.30509 0.31096 0.0
H1060 H 0.09386 0.37438 0.35038 0.0
H1061 H 0.09806 0.34845 0.39298 0.0
C1062 C 0.08604 0.29531 0.39963 0.0
C1063 C 0.08049 0.2671 0.39956 0.0
C1064 C 0.08037 0.31133 0.37641 0.0
C1065 C 0.06716 0.2555 0.37684 0.0
C1066 C 0.06062 0.2715 0.35398 0.0
C1067 C 0.06451 0.31468 0.3291 0.0
C1068 C 0.07461 0.34158 0.32757 0.0
C1069 C 0.0679 0.29925 0.3532 0.0
C1070 C 0.08604 0.35365 0.35107 0.0
C1071 C 0.08853 0.33881 0.37539 0.0
H1072 H 0.9145 0.23394 0.394 0.0
H1073 H 0.87484 0.17021 0.44072 0.0
H1074 H 0.89002 0.13616 0.40775 0.0
H1075 H 0.90885 0.12545 0.36253 0.0
H1076 H 0.9495 0.18829 0.31574 0.0
H1077 H 0.9402 0.2216 0.35203 0.0
C1078 C 0.90956 0.21255 0.39712 0.0
C1079 C 0.893 0.20471 0.41938 0.0
C1080 C 0.91843 0.19292 0.37802 0.0
C1081 C 0.88722 0.17686 0.42354 0.0
C1082 C 0.89585 0.15733 0.40466 0.0
C1083 C 0.91618 0.14631 0.36059 0.0
C1084 C 0.92947 0.15456 0.33646 0.0
C1085 C 0.9106 0.16527 0.38136 0.0
C1086 C 0.93924 0.1815 0.33422 0.0
C1087 C 0.93369 0.20059 0.35484 0.0
H1088 H 0.07031 0.73396 0.10014 0.0
H1089 H 0.11772 0.67389 0.05621 0.0
H1090 H 0.10868 0.64019 0.09205 0.0
H1091 H 0.09188 0.62963 0.1384 0.0
H1092 H 0.04289 0.68898 0.1816 0.0
H1093 H 0.04759 0.72098 0.14339 0.0
C1094 C 0.0783 0.71336 0.09828 0.0
C1095 C 0.09504 0.70652 0.07588 0.0
C1096 C 0.07287 0.69403 0.11889 0.0
C1097 C 0.1049 0.67967 0.07337 0.0
C1098 C 0.09985 0.66042 0.09392 0.0
C1099 C 0.08187 0.6494 0.13921 0.0
C1100 C 0.06739 0.65709 0.16287 0.0
C1101 C 0.08457 0.66764 0.11715 0.0
C1102 C 0.05415 0.68259 0.16357 0.0
C1103 C 0.05699 0.70098 0.14181 0.0
H1104 H 0.93449 0.80713 0.15278 0.0
H1105 H 0.90418 0.87897 0.11151 0.0
H1106 H 0.89322 0.85174 0.071 0.0
H1107 H 0.8865 0.80693 0.05 0.0
H1108 H 0.91255 0.73422 0.09272 0.0
H1109 H 0.93121 0.76228 0.12985 0.0
C1110 C 0.92615 0.81686 0.13462 0.0
C1111 C 0.92011 0.84495 0.13502 0.0
C1112 C 0.91874 0.80083 0.11187 0.0
C1113 C 0.9089 0.85734 0.1116 0.0
C1114 C 0.90254 0.84177 0.08852 0.0
C1115 C 0.89661 0.7972 0.06724 0.0
C1116 C 0.89781 0.76854 0.06883 0.0
C1117 C 0.90643 0.81338 0.08883 0.0
C1118 C 0.9111 0.75626 0.09121 0.0
C1119 C 0.92174 0.7723 0.11244 0.0
H1120 H 0.33941 0.08356 0.3861 0.0
H1121 H 0.31171 0.03258 0.31933 0.0
H1122 H 0.34938 0.04902 0.29089 0.0
H1123 H 0.3867 0.08118 0.28349 0.0
H1124 H 0.41673 0.13069 0.35019 0.0
H1125 H 0.3811 0.11174 0.38027 0.0
C1126 C 0.34187 0.07575 0.36545 0.0
C1127 C 0.32257 0.05713 0.35472 0.0
C1128 C 0.36356 0.08536 0.34915 0.0
C1129 C 0.32625 0.04687 0.3281 0.0
C1130 C 0.34764 0.05646 0.31174 0.0
C1131 C 0.38581 0.08766 0.30467 0.0
C1132 C 0.40415 0.10756 0.31452 0.0
C1133 C 0.36586 0.07625 0.32181 0.0
C1134 C 0.40271 0.11552 0.34211 0.0
C1135 C 0.38238 0.10467 0.35926 0.0
H1136 H 0.61476 0.41415 0.24968 0.0
H1137 H 0.57042 0.37437 0.31503 0.0
H1138 H 0.60371 0.39125 0.34835 0.0
H1139 H 0.64736 0.41402 0.35835 0.0
H1140 H 0.69133 0.45506 0.29357 0.0
H1141 H 0.65594 0.44151 0.26066 0.0
C1142 C 0.61234 0.40934 0.27124 0.0
C1143 C 0.59045 0.39267 0.27985 0.0
C1144 C 0.63141 0.41941 0.29037 0.0
C1145 C 0.58722 0.387 0.30788 0.0
C1146 C 0.60625 0.39663 0.32695 0.0
C1147 C 0.64898 0.42034 0.33709 0.0
C1148 C 0.67202 0.43529 0.32834 0.0
C1149 C 0.62869 0.41239 0.31834 0.0
C1150 C 0.67372 0.44364 0.30083 0.0
C1151 C 0.65362 0.43568 0.28196 0.0
H1152 H 0.36425 0.93444 0.11293 0.0
H1153 H 0.31348 0.96771 0.17719 0.0
H1154 H 0.3484 0.9563 0.21112 0.0
H1155 H 0.38959 0.92987 0.22323 0.0
H1156 H 0.44073 0.89719 0.15909 0.0
H1157 H 0.4096 0.91559 0.12439 0.0
C1158 C 0.36114 0.93978 0.13428 0.0
C1159 C 0.33611 0.95142 0.14259 0.0
C1160 C 0.38116 0.93286 0.15375 0.0
C1161 C 0.33252 0.95868 0.17023 0.0
C1162 C 0.35238 0.95191 0.18972 0.0
C1163 C 0.39412 0.92723 0.20163 0.0
C1164 C 0.41698 0.91171 0.19365 0.0
C1165 C 0.37616 0.93787 0.18184 0.0
C1166 C 0.42307 0.90888 0.16567 0.0
C1167 C 0.40522 0.91929 0.14584 0.0
H1168 H 0.60292 0.58238 0.22103 0.0
H1169 H 0.55277 0.61256 0.15473 0.0
H1170 H 0.58492 0.59387 0.12136 0.0
H1171 H 0.62922 0.57267 0.11112 0.0
H1172 H 0.6789 0.54085 0.17692 0.0
H1173 H 0.64479 0.55605 0.21042 0.0
C1174 C 0.59897 0.58463 0.19927 0.0
C1175 C 0.57581 0.5992 0.19031 0.0
C1176 C 0.61743 0.57358 0.18015 0.0
C1177 C 0.57058 0.60157 0.16211 0.0
C1178 C 0.58897 0.59095 0.14301 0.0
C1179 C 0.63238 0.56875 0.13278 0.0
C1180 C 0.6566 0.55597 0.14161 0.0
C1181 C 0.61274 0.57747 0.15181 0.0
C1182 C 0.66034 0.55062 0.16966 0.0
C1183 C 0.64096 0.55949 0.18881 0.0
H1184 H 0.2971 0.37297 0.07255 0.0
H1185 H 0.36553 0.40439 0.11881 0.0
H1186 H 0.3936 0.36547 0.10438 0.0
H1187 H 0.39609 0.31939 0.08418 0.0
H1188 H 0.32714 0.28836 0.03802 0.0
H1189 H 0.30206 0.33053 0.04644 0.0
C1190 C 0.31831 0.37152 0.07908 0.0
C1191 C 0.32914 0.39111 0.09711 0.0
C1192 C 0.33413 0.34906 0.07091 0.0
C1193 C 0.35676 0.3894 0.10502 0.0
C1194 C 0.37272 0.36707 0.09692 0.0
C1195 C 0.37575 0.32202 0.07557 0.0
C1196 C 0.36333 0.30046 0.06098 0.0
C1197 C 0.36125 0.34626 0.08073 0.0
C1198 C 0.33717 0.30445 0.04952 0.0
C1199 C 0.3227 0.32854 0.05444 0.0
H1200 H 0.3793 0.63963 0.42148 0.0
H1201 H 0.31144 0.67707 0.46393 0.0
H1202 H 0.28231 0.63798 0.45278 0.0
H1203 H 0.27434 0.59699 0.42453 0.0
H1204 H 0.3424 0.55942 0.38258 0.0
H1205 H 0.37331 0.59457 0.40018 0.0
C1206 C 0.35831 0.63891 0.42883 0.0
C1207 C 0.3474 0.66136 0.44307 0.0
C1208 C 0.34161 0.61657 0.42205 0.0
C1209 C 0.32032 0.66004 0.45289 0.0
C1210 C 0.30356 0.63781 0.44627 0.0
C1211 C 0.29603 0.5963 0.41964 0.0
C1212 C 0.30602 0.5761 0.4018 0.0
C1213 C 0.31368 0.61657 0.42984 0.0
C1214 C 0.33421 0.57497 0.39606 0.0
C1215 C 0.35188 0.59511 0.40604 0.0
H1216 H 0.72855 0.8894 0.41843 0.0
H1217 H 0.66187 0.93962 0.38966 0.0
H1218 H 0.62873 0.90554 0.40553 0.0
H1219 H 0.61937 0.85883 0.42192 0.0
H1220 H 0.686 0.8094 0.45233 0.0
H1221 H 0.7185 0.846 0.44197 0.0
C1222 C 0.70673 0.89302 0.41607 0.0
C1223 C 0.69758 0.9166 0.40246 0.0
C1224 C 0.68785 0.87345 0.42539 0.0
C1225 C 0.66933 0.92146 0.39996 0.0
C1226 C 0.6504 0.90194 0.40889 0.0
C1227 C 0.64095 0.85633 0.42674 0.0
C1228 C 0.65037 0.83137 0.43744 0.0
C1229 C 0.6595 0.87745 0.42077 0.0
C1230 C 0.67827 0.82845 0.44404 0.0
C1231 C 0.69689 0.84928 0.43793 0.0
H1232 H 0.17596 0.65119 0.55128 0.0
H1233 H 0.10707 0.60989 0.58823 0.0
H1234 H 0.13601 0.57056 0.59891 0.0
H1235 H 0.18173 0.55028 0.60236 0.0
H1236 H 0.25167 0.59336 0.56969 0.0
H1237 H 0.22155 0.6295 0.55241 0.0
C1238 C 0.16722 0.63331 0.56114 0.0
C1239 C 0.13947 0.63336 0.56896 0.0
C1240 C 0.18426 0.61125 0.56823 0.0
C1241 C 0.12842 0.6103 0.58212 0.0
C1242 C 0.14496 0.58786 0.58827 0.0
C1243 C 0.19034 0.56736 0.59107 0.0
C1244 C 0.21886 0.56928 0.58743 0.0
C1245 C 0.17305 0.58846 0.58214 0.0
C1246 C 0.22977 0.59158 0.57291 0.0
C1247 C 0.21256 0.61223 0.56307 0.0
H1248 H 0.92119 0.61955 0.65085 0.0
H1249 H 0.95668 0.68506 0.69816 0.0
H1250 H 0.94418 0.71791 0.66238 0.0
H1251 H 0.91796 0.72848 0.62027 0.0
H1252 H 0.88388 0.66225 0.57277 0.0
H1253 H 0.90123 0.62921 0.60584 0.0
C1254 C 0.92661 0.64096 0.65306 0.0
C1255 C 0.93947 0.64999 0.67714 0.0
C1256 C 0.91933 0.65963 0.63253 0.0
C1257 C 0.94678 0.67766 0.6797 0.0
C1258 C 0.93943 0.69647 0.65938 0.0
C1259 C 0.91466 0.70679 0.61705 0.0
C1260 C 0.89918 0.69785 0.59445 0.0
C1261 C 0.92487 0.68779 0.63612 0.0
C1262 C 0.89549 0.66968 0.59016 0.0
C1263 C 0.90535 0.65074 0.60909 0.0
H1264 H 0.0751 0.85593 0.62907 0.0
H1265 H 0.03521 0.79847 0.68301 0.0
H1266 H 0.04443 0.76138 0.65069 0.0
H1267 H 0.06811 0.74466 0.60916 0.0
H1268 H 0.1058 0.80283 0.55436 0.0
H1269 H 0.093 0.84025 0.58476 0.0
C1270 C 0.06808 0.83534 0.63352 0.0
C1271 C 0.05481 0.82984 0.65846 0.0
C1272 C 0.07329 0.81421 0.6148 0.0
C1273 C 0.04545 0.80319 0.66388 0.0
C1274 C 0.05089 0.78195 0.6455 0.0
C1275 C 0.07322 0.76558 0.60381 0.0
C1276 C 0.08827 0.77097 0.57984 0.0
C1277 C 0.06547 0.7871 0.62125 0.0
C1278 C 0.09435 0.79816 0.5728 0.0
C1279 C 0.08712 0.81958 0.59021 0.0
H1280 H 0.93409 0.30377 0.81171 0.0
H1281 H 0.90369 0.37465 0.85456 0.0
H1282 H 0.89427 0.34676 0.89499 0.0
H1283 H 0.89085 0.30185 0.91659 0.0
H1284 H 0.91722 0.23002 0.87272 0.0
H1285 H 0.93238 0.25864 0.83435 0.0
C1286 C 0.92582 0.31312 0.83008 0.0
C1287 C 0.91956 0.34119 0.8302 0.0
C1288 C 0.91958 0.29676 0.85296 0.0
C1289 C 0.90852 0.35305 0.85396 0.0
C1290 C 0.90313 0.33712 0.87707 0.0
C1291 C 0.90027 0.29244 0.8988 0.0
C1292 C 0.90284 0.26387 0.89741 0.0
C1293 C 0.90801 0.30889 0.87657 0.0
C1294 C 0.91493 0.25199 0.87418 0.0
C1295 C 0.92353 0.26834 0.85224 0.0
H1296 H 0.08613 0.11796 0.84336 0.0
H1297 H 0.04482 0.18291 0.8001 0.0
H1298 H 0.05539 0.21463 0.83737 0.0
H1299 H 0.081 0.22495 0.87982 0.0
H1300 H 0.12149 0.15942 0.92305 0.0
H1301 H 0.10651 0.12691 0.88831 0.0
C1302 C 0.07908 0.13896 0.84229 0.0
C1303 C 0.06504 0.14816 0.81891 0.0
C1304 C 0.08537 0.15707 0.86364 0.0
C1305 C 0.05565 0.17531 0.81793 0.0
C1306 C 0.06189 0.19352 0.83913 0.0
C1307 C 0.08628 0.20351 0.88172 0.0
C1308 C 0.10274 0.19468 0.90366 0.0
C1309 C 0.07748 0.18482 0.86168 0.0
C1310 C 0.10904 0.16678 0.9062 0.0
C1311 C 0.10053 0.14815 0.88633 0.0
H1312 H 0.56382 0.8886 0.67237 0.0
H1313 H 0.60218 0.91839 0.74623 0.0
H1314 H 0.63812 0.94037 0.71904 0.0
H1315 H 0.66173 0.9458 0.67491 0.0
H1316 H 0.62579 0.91174 0.60173 0.0
H1317 H 0.5855 0.89724 0.62785 0.0
C1318 C 0.57981 0.90027 0.68248 0.0
C1319 C 0.58056 0.90163 0.71125 0.0
C1320 C 0.60086 0.91204 0.66679 0.0
C1321 C 0.60137 0.9168 0.7241 0.0
C1322 C 0.6219 0.92938 0.70857 0.0
C1323 C 0.6447 0.9359 0.66457 0.0
C1324 C 0.64661 0.92986 0.63647 0.0
C1325 C 0.6223 0.92641 0.67997 0.0
C1326 C 0.6247 0.91657 0.62337 0.0
C1327 C 0.60177 0.90815 0.63832 0.0
H1328 H 0.39324 0.56779 0.73588 0.0
H1329 H 0.44569 0.60363 0.67444 0.0
H1330 H 0.41711 0.58413 0.63818 0.0
H1331 H 0.37412 0.56174 0.6243 0.0
H1332 H 0.32239 0.52466 0.68572 0.0
H1333 H 0.35417 0.53913 0.7216 0.0
C1334 C 0.39854 0.57104 0.71454 0.0
C1335 C 0.42113 0.58756 0.70775 0.0
C1336 C 0.38218 0.55952 0.69384 0.0
C1337 C 0.42822 0.59115 0.6801 0.0
C1338 C 0.41186 0.58006 0.65938 0.0
C1339 C 0.37011 0.55633 0.64549 0.0
C1340 C 0.34575 0.54251 0.65238 0.0
C1341 C 0.38835 0.5649 0.66604 0.0
C1342 C 0.341 0.53528 0.67986 0.0
C1343 C 0.35903 0.5438 0.70044 0.0
H1344 H 0.64964 0.047 0.81843 0.0
H1345 H 0.61479 0.08655 0.88927 0.0
H1346 H 0.57539 0.10131 0.86202 0.0
H1347 H 0.55325 0.10681 0.81713 0.0
H1348 H 0.59035 0.07082 0.74551 0.0
H1349 H 0.62639 0.05074 0.77391 0.0
C1350 C 0.63311 0.05835 0.828 0.0
C1351 C 0.635 0.06562 0.85579 0.0
C1352 C 0.61112 0.06771 0.81195 0.0
C1353 C 0.61373 0.08075 0.86787 0.0
C1354 C 0.59127 0.08927 0.85229 0.0
C1355 C 0.56905 0.0943 0.80781 0.0
C1356 C 0.56927 0.09042 0.77928 0.0
C1357 C 0.59013 0.08349 0.82416 0.0
C1358 C 0.58991 0.07429 0.76742 0.0
C1359 C 0.61049 0.06277 0.78365 0.0
H1360 H 0.33385 0.40435 0.87003 0.0
H1361 H 0.29439 0.45353 0.80808 0.0
H1362 H 0.32883 0.43948 0.77456 0.0
H1363 H 0.36733 0.40969 0.76191 0.0
H1364 H 0.40804 0.36207 0.82422 0.0
H1365 H 0.37572 0.37888 0.85861 0.0
C1366 C 0.33305 0.41231 0.84929 0.0
C1367 C 0.31148 0.42971 0.84146 0.0
C1368 C 0.35283 0.40408 0.83014 0.0
C1369 C 0.31085 0.44018 0.81464 0.0
C1370 C 0.33038 0.43194 0.7954 0.0
C1371 C 0.36926 0.40315 0.78305 0.0
C1372 C 0.38975 0.38435 0.79047 0.0
C1373 C 0.35097 0.41331 0.80275 0.0
C1374 C 0.39227 0.37637 0.818 0.0
C1375 C 0.37383 0.38598 0.83765 0.0
H1376 H 0.62029 0.6017 0.91038 0.0
H1377 H 0.68113 0.65505 0.94617 0.0
H1378 H 0.71656 0.62093 0.93797 0.0
H1379 H 0.73122 0.57821 0.91578 0.0
H1380 H 0.67036 0.52453 0.88076 0.0
H1381 H 0.63408 0.55633 0.89375 0.0
C1382 C 0.64122 0.6057 0.91676 0.0
C1383 C 0.64803 0.63107 0.92852 0.0
C1384 C 0.66161 0.58602 0.91188 0.0
C1385 C 0.67523 0.63574 0.93702 0.0
C1386 C 0.69561 0.61629 0.93218 0.0
C1387 C 0.70997 0.57334 0.91132 0.0
C1388 C 0.70352 0.54933 0.8969 0.0
C1389 C 0.68918 0.59173 0.91886 0.0
C1390 C 0.67589 0.54301 0.89166 0.0
C1391 C 0.65512 0.56123 0.89899 0.0
H1392 H 0.66672 0.31632 0.54826 0.0
H1393 H 0.5944 0.35279 0.5837 0.0
H1394 H 0.62069 0.3935 0.59588 0.0
H1395 H 0.66496 0.41687 0.60024 0.0
H1396 H 0.73796 0.37915 0.56776 0.0
H1397 H 0.71065 0.34094 0.55038 0.0
C1398 C 0.65662 0.33338 0.55824 0.0
C1399 C 0.62867 0.3315 0.56515 0.0
C1400 C 0.67204 0.35641 0.5659 0.0
C1401 C 0.61593 0.35365 0.57833 0.0
C1402 C 0.63096 0.37693 0.58531 0.0
C1403 C 0.67484 0.40047 0.58903 0.0
C1404 C 0.70344 0.40072 0.58543 0.0
C1405 C 0.65914 0.37825 0.57979 0.0
C1406 C 0.71598 0.37931 0.57095 0.0
C1407 C 0.70038 0.35745 0.56104 0.0
H1408 H 0.2788 0.11751 0.56828 0.0
H1409 H 0.35131 0.08733 0.60888 0.0
H1410 H 0.37879 0.12316 0.58728 0.0
H1411 H 0.38078 0.16652 0.56205 0.0
H1412 H 0.30841 0.19678 0.52124 0.0
H1413 H 0.28245 0.157 0.53706 0.0
C1414 C 0.30069 0.11859 0.5721 0.0
C1415 C 0.31295 0.10022 0.59058 0.0
C1416 C 0.31635 0.13922 0.55957 0.0
C1417 C 0.34139 0.10143 0.59493 0.0
C1418 C 0.35709 0.12194 0.58263 0.0
C1419 C 0.35948 0.16409 0.55611 0.0
C1420 C 0.34642 0.18474 0.54086 0.0
C1421 C 0.3446 0.14146 0.56566 0.0
C1422 C 0.31894 0.18117 0.53295 0.0
C1423 C 0.304 0.15857 0.54226 0.0
H1424 H 0.77031 0.40024 0.41411 0.0
H1425 H 0.83891 0.44027 0.37534 0.0
H1426 H 0.87038 0.40719 0.39596 0.0
H1427 H 0.87731 0.36343 0.41989 0.0
H1428 H 0.80853 0.32407 0.45934 0.0
H1429 H 0.77833 0.36072 0.44413 0.0
C1430 C 0.7922 0.4019 0.4105 0.0
C1431 C 0.8023 0.42219 0.39281 0.0
C1432 C 0.8101 0.38292 0.42248 0.0
C1433 C 0.8307 0.42461 0.38873 0.0
C1434 C 0.84866 0.40566 0.40043 0.0
C1435 C 0.85582 0.36315 0.4256 0.0
C1436 C 0.84513 0.3408 0.44029 0.0
C1437 C 0.83846 0.38419 0.41658 0.0
C1438 C 0.81732 0.34096 0.44796 0.0
C1439 C 0.79995 0.36182 0.43907 0.0
H1440 H 0.54163 0.79985 0.81266 0.0
H1441 H 0.55336 0.86816 0.86728 0.0
H1442 H 0.56567 0.83703 0.90441 0.0
H1443 H 0.57998 0.79155 0.91899 0.0
H1444 H 0.57226 0.72323 0.86368 0.0
H1445 H 0.55116 0.75306 0.82927 0.0
C1446 C 0.5461 0.80779 0.83294 0.0
C1447 C 0.54671 0.83622 0.8373 0.0
C1448 C 0.55437 0.7898 0.85387 0.0
C1449 C 0.55289 0.84635 0.8635 0.0
C1450 C 0.56007 0.82857 0.88466 0.0
C1451 C 0.57336 0.78306 0.89955 0.0
C1452 C 0.57817 0.75536 0.89366 0.0
C1453 C 0.56202 0.80042 0.87971 0.0
C1454 C 0.56905 0.74458 0.86857 0.0
C1455 C 0.55706 0.76165 0.84888 0.0
H1456 H 0.4381 0.68437 0.82639 0.0
H1457 H 0.40885 0.61139 0.8665 0.0
H1458 H 0.39632 0.63791 0.90695 0.0
H1459 H 0.38912 0.68221 0.92883 0.0
H1460 H 0.41462 0.75599 0.88761 0.0
H1461 H 0.43334 0.72892 0.84983 0.0
C1462 C 0.42952 0.6743 0.84426 0.0
C1463 C 0.42437 0.64604 0.84357 0.0
C1464 C 0.42136 0.68987 0.86708 0.0
C1465 C 0.41288 0.63317 0.86661 0.0
C1466 C 0.40565 0.64832 0.88969 0.0
C1467 C 0.39907 0.69237 0.91174 0.0
C1468 C 0.40025 0.72104 0.91087 0.0
C1469 C 0.40906 0.67675 0.88983 0.0
C1470 C 0.41323 0.73392 0.88861 0.0
C1471 C 0.42393 0.71845 0.86701 0.0
H1472 H 0.55448 0.11338 0.62381 0.0
H1473 H 0.51204 0.17578 0.66962 0.0
H1474 H 0.52401 0.20966 0.63485 0.0
H1475 H 0.55317 0.22281 0.59579 0.0
H1476 H 0.59564 0.16038 0.55013 0.0
H1477 H 0.57685 0.12522 0.58033 0.0
C1478 C 0.54729 0.13426 0.62583 0.0
C1479 C 0.53285 0.14216 0.64947 0.0
C1480 C 0.55467 0.15372 0.60604 0.0
C1481 C 0.52324 0.16916 0.65164 0.0
C1482 C 0.53033 0.18863 0.6319 0.0
C1483 C 0.55792 0.20146 0.59222 0.0
C1484 C 0.57625 0.1942 0.57123 0.0
C1485 C 0.54711 0.18137 0.60972 0.0
C1486 C 0.58181 0.16647 0.56637 0.0
C1487 C 0.57114 0.14636 0.58368 0.0
H1488 H 0.38976 0.3906 0.63352 0.0
H1489 H 0.44888 0.32968 0.65839 0.0
H1490 H 0.44047 0.30423 0.61639 0.0
H1491 H 0.41105 0.29543 0.57679 0.0
H1492 H 0.352 0.3557 0.55115 0.0
H1493 H 0.36585 0.38546 0.5892 0.0
C1494 C 0.40122 0.37204 0.62953 0.0
C1495 C 0.41946 0.36178 0.64948 0.0
C1496 C 0.39602 0.35721 0.60541 0.0
C1497 C 0.43452 0.33798 0.64364 0.0
C1498 C 0.4296 0.32327 0.61965 0.0
C1499 C 0.40156 0.3153 0.57922 0.0
C1500 C 0.3802 0.32321 0.56162 0.0
C1501 C 0.40955 0.33207 0.60107 0.0
C1502 C 0.36842 0.34919 0.5646 0.0
C1503 C 0.37623 0.36608 0.58643 0.0
H1504 H 0.90194 0.56407 0.7751 0.0
H1505 H 0.94047 0.60337 0.84419 0.0
H1506 H 0.90687 0.58261 0.87512 0.0
H1507 H 0.86322 0.55814 0.88142 0.0
H1508 H 0.82543 0.51783 0.81239 0.0
H1509 H 0.86246 0.53359 0.78259 0.0
C1510 C 0.90315 0.56777 0.79698 0.0
C1511 C 0.92318 0.58562 0.80737 0.0
C1512 C 0.88391 0.55563 0.81458 0.0
C1513 C 0.92503 0.58983 0.83576 0.0
C1514 C 0.90579 0.57805 0.85341 0.0
C1515 C 0.86338 0.55238 0.85995 0.0
C1516 C 0.84141 0.53723 0.84902 0.0
C1517 C 0.88463 0.56164 0.84291 0.0
C1518 C 0.84208 0.52951 0.8213 0.0
C1519 C 0.86313 0.53872 0.80419 0.0
H1520 H 0.13048 0.92302 0.8637 0.0
H1521 H 0.18362 0.94829 0.79772 0.0
H1522 H 0.1479 0.93724 0.76431 0.0
H1523 H 0.10331 0.91581 0.75373 0.0
H1524 H 0.04959 0.89252 0.82 0.0
H1525 H 0.08358 0.90771 0.85339 0.0
C1526 C 0.13407 0.92642 0.84202 0.0
C1527 C 0.15971 0.93608 0.83314 0.0
C1528 C 0.1134 0.92023 0.82298 0.0
C1529 C 0.16401 0.94085 0.80505 0.0
C1530 C 0.14366 0.93439 0.78593 0.0
C1531 C 0.09896 0.91443 0.77548 0.0
C1532 C 0.07424 0.90263 0.7844 0.0
C1533 C 0.11855 0.92338 0.79462 0.0
C1534 C 0.06857 0.90137 0.81261 0.0
C1535 C 0.08804 0.90994 0.83175 0.0
H1536 H 0.88287 0.41973 0.72382 0.0
H1537 H 0.93409 0.38483 0.66087 0.0
H1538 H 0.90328 0.40231 0.62554 0.0
H1539 H 0.85851 0.42165 0.61312 0.0
H1540 H 0.80754 0.45729 0.67589 0.0
H1541 H 0.84179 0.44599 0.71059 0.0
C1542 C 0.88746 0.41634 0.70234 0.0
C1543 C 0.91033 0.40052 0.69495 0.0
C1544 C 0.86967 0.4265 0.68211 0.0
C1545 C 0.91643 0.39673 0.66707 0.0
C1546 C 0.89878 0.40664 0.64685 0.0
C1547 C 0.8552 0.42749 0.63431 0.0
C1548 C 0.83037 0.43989 0.64197 0.0
C1549 C 0.87484 0.42069 0.6542 0.0
C1550 C 0.82649 0.44771 0.66943 0.0
C1551 C 0.84596 0.44101 0.68935 0.0
H1552 H 0.11507 0.07571 0.71845 0.0
H1553 H 0.0713 0.11036 0.64991 0.0
H1554 H 0.10882 0.09781 0.61921 0.0
H1555 H 0.15645 0.08257 0.61319 0.0
H1556 H 0.20013 0.04775 0.68179 0.0
H1557 H 0.16007 0.05438 0.71101 0.0
C1558 C 0.11358 0.08012 0.69671 0.0
C1559 C 0.09075 0.0944 0.68652 0.0
C1560 C 0.13529 0.07301 0.67924 0.0
C1561 C 0.08879 0.09956 0.65827 0.0
C1562 C 0.11029 0.09251 0.64073 0.0
C1563 C 0.15707 0.07606 0.63444 0.0
C1564 C 0.18141 0.06514 0.6454 0.0
C1565 C 0.13403 0.08011 0.65119 0.0
C1566 C 0.18172 0.05632 0.67283 0.0
C1567 C 0.15886 0.06026 0.68962 0.0
H1568 H 0.76021 0.88852 0.57958 0.0
H1569 H 0.81945 0.93286 0.62787 0.0
H1570 H 0.85469 0.89917 0.61634 0.0
H1571 H 0.86714 0.85467 0.59629 0.0
H1572 H 0.80781 0.81121 0.54705 0.0
H1573 H 0.77427 0.84725 0.55484 0.0
C1574 C 0.78091 0.89094 0.58733 0.0
C1575 C 0.78718 0.91279 0.6049 0.0
C1576 C 0.80101 0.87163 0.58052 0.0
C1577 C 0.81416 0.91605 0.61441 0.0
C1578 C 0.83426 0.89676 0.60792 0.0
C1579 C 0.84699 0.85327 0.58698 0.0
C1580 C 0.83992 0.83009 0.57142 0.0
C1581 C 0.82771 0.87408 0.59157 0.0
C1582 C 0.81384 0.82878 0.55914 0.0
C1583 C 0.79455 0.84931 0.56372 0.0
H1584 H 0.75022 0.09375 0.92316 0.0
H1585 H 0.80554 0.03963 0.88075 0.0
H1586 H 0.84453 0.06789 0.89452 0.0
H1587 H 0.86196 0.111 0.91369 0.0
H1588 H 0.8067 0.16458 0.95706 0.0
H1589 H 0.76877 0.1332 0.94841 0.0
C1590 C 0.77086 0.08801 0.91725 0.0
C1591 C 0.77501 0.06504 0.90051 0.0
C1592 C 0.79318 0.10426 0.92537 0.0
C1593 C 0.80185 0.0574 0.89345 0.0
C1594 C 0.82414 0.07358 0.90125 0.0
C1595 C 0.84172 0.11556 0.92168 0.0
C1596 C 0.8371 0.1403 0.9356 0.0
C1597 C 0.81993 0.09752 0.91647 0.0
C1598 C 0.81085 0.14571 0.94622 0.0
C1599 C 0.78906 0.12788 0.94109 0.0
H1600 H 0.1086 0.35335 0.91531 0.0
H1601 H 0.17552 0.31794 0.96118 0.0
H1602 H 0.20314 0.35865 0.95304 0.0
H1603 H 0.21097 0.40031 0.92629 0.0
H1604 H 0.14469 0.43605 0.88018 0.0
H1605 H 0.11391 0.39938 0.89537 0.0
C1606 C 0.12904 0.35475 0.92398 0.0
C1607 C 0.14019 0.33233 0.93828 0.0
C1608 C 0.145 0.37813 0.91892 0.0
C1609 C 0.16647 0.33473 0.94989 0.0
C1610 C 0.18239 0.35797 0.9451 0.0
C1611 C 0.18962 0.40035 0.92005 0.0
C1612 C 0.18013 0.42037 0.90175 0.0
C1613 C 0.17229 0.37916 0.92862 0.0
C1614 C 0.15238 0.42068 0.89419 0.0
C1615 C 0.13489 0.39962 0.9027 0.0
H1616 H 0.61273 0.15418 0.06745 0.0
H1617 H 0.68293 0.19134 0.02858 0.0
H1618 H 0.71187 0.15343 0.04381 0.0
H1619 H 0.71811 0.11278 0.07307 0.0
H1620 H 0.64753 0.07475 0.11033 0.0
H1621 H 0.61773 0.10984 0.09067 0.0
C1622 C 0.63427 0.1537 0.06192 0.0
C1623 C 0.6458 0.17565 0.04729 0.0
C1624 C 0.65073 0.13189 0.07073 0.0
C1625 C 0.67361 0.17464 0.03984 0.0
C1626 C 0.6902 0.1531 0.04874 0.0
C1627 C 0.69616 0.11205 0.07658 0.0
C1628 C 0.68503 0.09161 0.09352 0.0
C1629 C 0.67915 0.13211 0.06498 0.0
C1630 C 0.65654 0.09044 0.09748 0.0
C1631 C 0.63952 0.11053 0.08634 0.0
H1632 H 0.42732 0.19329 0.10623 0.0
H1633 H 0.37449 0.12752 0.08017 0.0
H1634 H 0.39224 0.09857 0.11713 0.0
H1635 H 0.41691 0.0952 0.16098 0.0
H1636 H 0.46901 0.16174 0.18712 0.0
H1637 H 0.45814 0.1868 0.14533 0.0
C1638 C 0.42002 0.17246 0.10834 0.0
C1639 C 0.39919 0.1627 0.09098 0.0
C1640 C 0.43019 0.15612 0.12963 0.0
C1641 C 0.39034 0.13551 0.09351 0.0
C1642 C 0.40042 0.11903 0.11467 0.0
C1643 C 0.42642 0.11491 0.15725 0.0
C1644 C 0.44321 0.12685 0.17751 0.0
C1645 C 0.4195 0.12956 0.13351 0.0
C1646 C 0.45584 0.15212 0.17205 0.0
C1647 C 0.44941 0.16662 0.14825 0.0
H1648 H 0.58535 0.38475 0.12075 0.0
H1649 H 0.53325 0.3222 0.15545 0.0
H1650 H 0.54074 0.2935 0.11541 0.0
H1651 H 0.56815 0.28313 0.0747 0.0
H1652 H 0.61994 0.34517 0.03925 0.0
H1653 H 0.60622 0.37734 0.07526 0.0
C1654 C 0.5752 0.36507 0.1193 0.0
C1655 C 0.55927 0.35541 0.14138 0.0
C1656 C 0.57979 0.34847 0.09626 0.0
C1657 C 0.5458 0.33009 0.13892 0.0
C1658 C 0.55021 0.31355 0.11608 0.0
C1659 C 0.57595 0.30389 0.07454 0.0
C1660 C 0.59535 0.31174 0.0548 0.0
C1661 C 0.56809 0.32205 0.09528 0.0
C1662 C 0.605 0.33876 0.05438 0.0
C1663 C 0.59733 0.35703 0.07507 0.0
H1664 H 0.39818 0.87275 0.3473 0.0
H1665 H 0.44104 0.8075 0.30615 0.0
H1666 H 0.4299 0.77631 0.34384 0.0
H1667 H 0.40492 0.76691 0.38675 0.0
H1668 H 0.36336 0.83276 0.42829 0.0
H1669 H 0.37719 0.86451 0.39218 0.0
C1670 C 0.40525 0.85174 0.34667 0.0
C1671 C 0.42009 0.84231 0.32385 0.0
C1672 C 0.39888 0.83405 0.36837 0.0
C1673 C 0.42956 0.81521 0.32351 0.0
C1674 C 0.42308 0.79736 0.34497 0.0
C1675 C 0.39908 0.78826 0.38797 0.0
C1676 C 0.38283 0.79744 0.40993 0.0
C1677 C 0.40727 0.80643 0.36722 0.0
C1678 C 0.37576 0.8252 0.41152 0.0
C1679 C 0.38359 0.84334 0.39085 0.0
H1680 H 0.57265 0.73207 0.38599 0.0
H1681 H 0.60517 0.66361 0.43131 0.0
H1682 H 0.58913 0.63226 0.39593 0.0
H1683 H 0.57141 0.62506 0.34945 0.0
H1684 H 0.53773 0.69297 0.30428 0.0
H1685 H 0.54819 0.72373 0.34245 0.0
C1686 C 0.57585 0.71025 0.38825 0.0
C1687 C 0.59058 0.70021 0.41088 0.0
C1688 C 0.56649 0.69228 0.36782 0.0
C1689 C 0.59413 0.67187 0.41392 0.0
C1690 C 0.58504 0.65392 0.39366 0.0
C1691 C 0.56591 0.64652 0.34821 0.0
C1692 C 0.55425 0.65687 0.32403 0.0
C1693 C 0.57206 0.66401 0.37011 0.0
C1694 C 0.54677 0.68457 0.32273 0.0
C1695 C 0.55295 0.70219 0.34445 0.0
H1696 H 0.17244 0.39694 0.11545 0.0
H1697 H 0.21317 0.43815 0.18227 0.0
H1698 H 0.17491 0.42724 0.21263 0.0
H1699 H 0.1324 0.40158 0.22141 0.0
H1700 H 0.09083 0.36173 0.15441 0.0
H1701 H 0.12692 0.37651 0.12286 0.0
C1702 C 0.17274 0.4039 0.13655 0.0
C1703 C 0.19578 0.41801 0.14666 0.0
C1704 C 0.15073 0.39746 0.15394 0.0
C1705 C 0.1957 0.42726 0.17394 0.0
C1706 C 0.17392 0.42082 0.1914 0.0
C1707 C 0.13116 0.39633 0.19986 0.0
C1708 C 0.10933 0.38018 0.19029 0.0
C1709 C 0.15177 0.4052 0.18183 0.0
C1710 C 0.1076 0.37399 0.16225 0.0
C1711 C 0.12823 0.38239 0.14423 0.0
H1712 H 0.84173 0.08298 0.12683 0.0
H1713 H 0.79264 0.05193 0.19345 0.0
H1714 H 0.83 0.06129 0.22567 0.0
H1715 H 0.87467 0.08304 0.23536 0.0
H1716 H 0.92422 0.11234 0.16824 0.0
H1717 H 0.8887 0.09875 0.13566 0.0
C1718 C 0.83942 0.07787 0.14835 0.0
C1719 C 0.81446 0.06712 0.15787 0.0
C1720 C 0.86092 0.08326 0.16665 0.0
C1721 C 0.81175 0.06019 0.18568 0.0
C1722 C 0.833 0.06574 0.20412 0.0
C1723 C 0.87775 0.08617 0.21357 0.0
C1724 C 0.90173 0.09911 0.20419 0.0
C1725 C 0.85735 0.07803 0.19493 0.0
C1726 C 0.90581 0.10257 0.17592 0.0
C1727 C 0.88549 0.09488 0.1573 0.0
H1728 H 0.11849 0.58534 0.26583 0.0
H1729 H 0.07327 0.61944 0.33358 0.0
H1730 H 0.10606 0.59964 0.3659 0.0
H1731 H 0.14978 0.57626 0.37444 0.0
H1732 H 0.19426 0.54083 0.3068 0.0
H1733 H 0.15913 0.55688 0.27491 0.0
C1734 C 0.11576 0.58827 0.28768 0.0
C1735 C 0.09387 0.60424 0.29735 0.0
C1736 C 0.13444 0.57648 0.30612 0.0
C1737 C 0.09015 0.60741 0.32569 0.0
C1738 C 0.10887 0.59611 0.34416 0.0
C1739 C 0.15154 0.57165 0.35276 0.0
C1740 C 0.17474 0.55766 0.34296 0.0
C1741 C 0.1314 0.5811 0.33455 0.0
C1742 C 0.17658 0.5515 0.31489 0.0
C1743 C 0.15663 0.56092 0.2966 0.0
H1744 H 0.8514 0.90988 0.35628 0.0
H1745 H 0.80029 0.94875 0.29564 0.0
H1746 H 0.83356 0.9373 0.25981 0.0
H1747 H 0.87495 0.91193 0.24533 0.0
H1748 H 0.92675 0.87506 0.30675 0.0
H1749 H 0.89553 0.89014 0.34275 0.0
C1750 C 0.84781 0.91622 0.33526 0.0
C1751 C 0.82341 0.92983 0.32846 0.0
C1752 C 0.86698 0.90965 0.31493 0.0
C1753 C 0.81903 0.9383 0.3013 0.0
C1754 C 0.83792 0.93155 0.28081 0.0
C1755 C 0.87945 0.90744 0.26663 0.0
C1756 C 0.90278 0.892 0.27341 0.0
C1757 C 0.86158 0.91653 0.28729 0.0
C1758 C 0.90878 0.88676 0.30106 0.0
C1759 C 0.89093 0.89533 0.32164 0.0
H1760 H 0.10382 0.11281 0.4155 0.0
H1761 H 0.16506 0.15668 0.46202 0.0
H1762 H 0.19843 0.12087 0.45256 0.0
H1763 H 0.21204 0.08124 0.42516 0.0
H1764 H 0.1514 0.03717 0.37842 0.0
H1765 H 0.1158 0.06882 0.39413 0.0
C1766 C 0.12432 0.1143 0.42401 0.0
C1767 C 0.13207 0.13771 0.43895 0.0
C1768 C 0.14358 0.09382 0.41815 0.0
C1769 C 0.15855 0.13904 0.45029 0.0
C1770 C 0.17774 0.11864 0.44473 0.0
C1771 C 0.19095 0.07832 0.41876 0.0
C1772 C 0.18435 0.05736 0.40023 0.0
C1773 C 0.17078 0.09661 0.42773 0.0
C1774 C 0.15692 0.05333 0.39255 0.0
C1775 C 0.13663 0.0715 0.40141 0.0
H1776 H 0.17029 0.92769 0.09579 0.0
H1777 H 0.24466 0.88687 0.07115 0.0
H1778 H 0.21774 0.85038 0.04989 0.0
H1779 H 0.17316 0.8276 0.04294 0.0
H1780 H 0.09924 0.86702 0.07094 0.0
H1781 H 0.12577 0.90675 0.08575 0.0
C1782 C 0.18062 0.91098 0.08549 0.0
C1783 C 0.20942 0.90982 0.08533 0.0
C1784 C 0.16503 0.8898 0.07389 0.0
C1785 C 0.2225 0.88809 0.0718 0.0
C1786 C 0.20711 0.86723 0.05962 0.0
C1787 C 0.16283 0.84522 0.05161 0.0
C1788 C 0.13431 0.84446 0.05581 0.0
C1789 C 0.17837 0.86752 0.06114 0.0
C1790 C 0.12119 0.86718 0.06753 0.0
C1791 C 0.13637 0.88982 0.07613 0.0
H1792 H 0.86585 0.61309 0.04611 0.0
H1793 H 0.80199 0.66618 0.01597 0.0
H1794 H 0.76742 0.63195 0.0276 0.0
H1795 H 0.75498 0.59007 0.05294 0.0
H1796 H 0.81901 0.53667 0.0821 0.0
H1797 H 0.85381 0.56768 0.064 0.0
C1798 C 0.84442 0.6169 0.04153 0.0
C1799 C 0.83647 0.64229 0.03064 0.0
C1800 C 0.82462 0.59722 0.04847 0.0
C1801 C 0.80868 0.6468 0.02439 0.0
C1802 C 0.78884 0.62733 0.03128 0.0
C1803 C 0.77655 0.58505 0.0549 0.0
C1804 C 0.78445 0.56149 0.06937 0.0
C1805 C 0.7965 0.60297 0.04438 0.0
C1806 C 0.81242 0.55486 0.07129 0.0
C1807 C 0.83235 0.57263 0.06103 0.0
H1808 H 0.25916 0.89313 0.92011 0.0
H1809 H 0.3234 0.94895 0.89596 0.0
H1810 H 0.35759 0.91986 0.91752 0.0
H1811 H 0.36997 0.87543 0.93699 0.0
H1812 H 0.30639 0.8196 0.9623 0.0
H1813 H 0.27129 0.85203 0.9473 0.0
C1814 C 0.2806 0.89906 0.91995 0.0
C1815 C 0.28879 0.92279 0.90584 0.0
C1816 C 0.30032 0.88222 0.93259 0.0
C1817 C 0.31655 0.93058 0.9063 0.0
C1818 C 0.33619 0.91394 0.91863 0.0
C1819 C 0.34842 0.87073 0.93992 0.0
C1820 C 0.34076 0.84512 0.9504 0.0
C1821 C 0.32842 0.88927 0.93094 0.0
C1822 C 0.3128 0.83928 0.95437 0.0
C1823 C 0.29271 0.85769 0.94546 0.0
H1824 H 0.03794 0.53254 0.19652 0.0
H1825 H 0.02562 0.55148 0.28174 0.0
H1826 H 0.02142 0.5028 0.2925 0.0
H1827 H 0.03398 0.45578 0.27898 0.0
H1828 H 0.04764 0.43727 0.19384 0.0
H1829 H 0.03798 0.4847 0.18136 0.0
C1830 C 0.03292 0.52593 0.21716 0.0
C1831 C 0.03227 0.5452 0.23838 0.0
C1832 C 0.03138 0.49798 0.22319 0.0
C1833 C 0.02597 0.53679 0.26513 0.0
C1834 C 0.024 0.50896 0.27132 0.0
C1835 C 0.03353 0.46201 0.25764 0.0
C1836 C 0.04154 0.44348 0.23727 0.0
C1837 C 0.02854 0.48943 0.25077 0.0
C1838 C 0.04131 0.45144 0.20968 0.0
C1839 C 0.03606 0.47855 0.20262 0.0
H1840 H 0.96573 0.94171 0.25868 0.0
H1841 H 0.96753 0.96544 0.17379 0.0
H1842 H 0.97752 0.01276 0.18681 0.0
H1843 H 0.97249 0.04809 0.22205 0.0
H1844 H 0.96071 0.02456 0.30625 0.0
H1845 H 0.96865 0.97663 0.29441 0.0
C1846 C 0.96971 0.95711 0.24314 0.0
C1847 C 0.96624 0.95042 0.21542 0.0
C1848 C 0.97309 0.98446 0.25091 0.0
C1849 C 0.97053 0.97034 0.19523 0.0
C1850 C 0.97586 -0.00262 0.20273 0.0
C1851 C 0.97303 0.0325 0.2379 0.0
C1852 C 0.96622 0.03952 0.26492 0.0
C1853 C 0.97531 0.00491 0.23049 0.0
C1854 C 0.96615 0.01938 0.28537 0.0
C1855 C 0.97038 0.99202 0.27851 0.0
H1856 H 0.22032 0.00246 0.54456 0.0
H1857 H 0.30743 0.01442 0.55196 0.0
H1858 H 0.31436 -0.00414 0.506 0.0
H1859 H 0.29354 -0.00627 0.46028 0.0
H1860 H 0.20604 0.98653 0.45219 0.0
H1861 H 0.20113 0.98394 0.50185 0.0
C1862 C 0.24086 -0.00053 0.53656 0.0
C1863 C 0.26331 0.01016 0.55092 0.0
C1864 C 0.24445 0.98993 0.50977 0.0
C1865 C 0.28994 0.00635 0.54088 0.0
C1866 C 0.29384 -0.00398 0.51452 0.0
C1867 C 0.27368 0.98968 0.46946 0.0
C1868 C 0.25012 0.99115 0.45308 0.0
C1869 C 0.271 0.9902 0.49803 0.0
C1870 C 0.2244 0.98571 0.4647 0.0
C1871 C 0.22156 0.98483 0.49313 0.0
H1872 H 0.78702 0.49724 0.52172 0.0
H1873 H 0.70359 0.48478 0.54773 0.0
H1874 H 0.68714 0.49507 0.50163 0.0
H1875 H 0.6988 0.49113 0.4527 0.0
H1876 H 0.78229 0.50303 0.42666 0.0
H1877 H 0.79647 0.5108 0.47395 0.0
C1878 C 0.76519 0.49838 0.51754 0.0
C1879 C 0.74649 0.48968 0.53754 0.0
C1880 C 0.756 0.50373 0.49086 0.0
C1881 C 0.71825 0.49131 0.53237 0.0
C1882 C 0.70888 0.49685 0.50593 0.0
C1883 C 0.71973 0.49712 0.45732 0.0
C1884 C 0.73968 0.49576 0.43668 0.0
C1885 C 0.72781 0.50069 0.48464 0.0
C1886 C 0.7667 0.50378 0.44246 0.0
C1887 C 0.77489 0.50776 0.46957 0.0
H1888 H 0.18804 -0.00692 0.9619 0.0
H1889 H 0.26722 0.00772 0.92569 0.0
H1890 H 0.28646 0.01796 0.97059 0.0
H1891 H 0.28338 0.00576 0.01958 0.0
H1892 H 0.20416 0.99148 0.05584 0.0
H1893 H 0.182 -0.00104 0.01167 0.0
C1894 C 0.20905 0.00018 0.96376 0.0
C1895 C 0.22649 -0.00124 0.94096 0.0
C1896 C 0.2201 0.00535 0.98975 0.0
C1897 C 0.25355 0.00837 0.94318 0.0
C1898 C 0.26468 0.01379 0.96895 0.0
C1899 C 0.26118 0.00593 0.01801 0.0
C1900 C 0.24536 -0.00257 0.04043 0.0
C1901 C 0.24866 0.00981 0.99245 0.0
C1902 C 0.21664 -0.00215 0.0386 0.0
C1903 C 0.20399 0.00177 0.01326 0.0
H1904 H 0.75146 0.47544 0.0446 0.0
H1905 H 0.67044 0.49592 0.01621 0.0
H1906 H 0.68179 0.4793 0.97042 0.0
H1907 H 0.71889 0.4769 0.93711 0.0
H1908 H 0.80233 0.47056 0.96492 0.0
H1909 H 0.78657 0.46226 0.01172 0.0
C1910 C 0.73591 0.47482 0.02868 0.0
C1911 C 0.71041 0.48727 0.03332 0.0
C1912 C 0.74365 0.46825 0.00186 0.0
C1913 C 0.6903 0.48662 0.01279 0.0
C1914 C 0.69695 0.47744 0.98656 0.0
C1915 C 0.73342 0.47204 0.95327 0.0
C1916 C 0.76157 0.4746 0.94802 0.0
C1917 C 0.72425 0.47082 0.98041 0.0
C1918 C 0.78052 0.46866 0.96876 0.0
C1919 C 0.77146 0.46443 -0.00444 0.0
H1920 H 0.44553 0.25032 -0.00564 0.0
H1921 H 0.4568 0.16566 0.01534 0.0
H1922 H 0.50369 0.16708 -0.00216 0.0
H1923 H 0.54399 0.19645 0.99379 0.0
H1924 H 0.53404 0.28301 0.98233 0.0
H1925 H 0.48452 0.27715 0.97746 0.0
C1926 C 0.45788 0.23189 0.99353 0.0
C1927 C 0.44823 0.20803 0.00622 0.0
C1928 C 0.48546 0.23361 0.98565 0.0
C1929 C 0.46411 0.18419 0.00558 0.0
C1930 C 0.491 0.18515 -0.00409 0.0
C1931 C 0.53101 0.21368 0.9885 0.0
C1932 C 0.54219 0.24008 0.98878 0.0
C1933 C 0.50249 0.21035 0.98836 0.0
C1934 C 0.52561 0.2625 0.98216 0.0
C1935 C 0.49725 0.25917 0.97992 0.0
H1936 H 0.52939 0.79955 0.48925 0.0
H1937 H 0.55399 0.71544 0.49704 0.0
H1938 H 0.50659 0.70198 0.50589 0.0
H1939 H 0.45844 0.71284 0.49493 0.0
H1940 H 0.43396 0.79678 0.48521 0.0
H1941 H 0.48083 0.81194 0.49438 0.0
C1942 C 0.52448 0.77855 0.49452 0.0
C1943 C 0.54472 0.75836 0.49184 0.0
C1944 C 0.49706 0.77092 0.49848 0.0
C1945 C 0.53854 0.73124 0.49887 0.0
C1946 C 0.51135 0.72349 0.50346 0.0
C1947 C 0.46319 0.73447 0.49642 0.0
C1948 C 0.44323 0.75374 0.48907 0.0
C1949 C 0.49033 0.74288 0.50087 0.0
C1950 C 0.44923 0.78171 0.49087 0.0
C1951 C 0.47608 0.79033 0.49576 0.0
H1952 H 0.04193 0.74631 0.50697 0.0
H1953 H 0.01688 0.66303 0.52045 0.0
H1954 H 0.9692 0.67522 0.51107 0.0
H1955 H 0.935 0.71151 0.51503 0.0
H1956 H 0.96061 0.79567 0.51269 0.0
H1957 H 0.00721 0.78179 0.50067 0.0
C1958 C 0.02613 0.73067 0.50629 0.0
C1959 C 0.03258 0.70393 0.5144 0.0
C1960 C -0.00141 0.73842 0.50352 0.0
C1961 C 0.01216 0.68373 0.51411 0.0
C1962 C 0.98488 0.69082 0.50914 0.0
C1963 C 0.95052 0.72673 0.51034 0.0
C1964 C 0.94471 0.75446 0.51478 0.0
C1965 C 0.97772 0.71844 0.50615 0.0
C1966 C 0.96484 0.7742 0.50926 0.0
C1967 C 0.99154 0.76621 0.5028 0.0
H1968 H 0.98955 0.44398 0.72441 0.0
H1969 H 0.97995 0.44807 0.81194 0.0
H1970 H -0.00515 0.49574 0.81184 0.0
H1971 H 0.99445 0.53826 0.78534 0.0
H1972 H -0.00404 0.53501 0.6973 0.0
H1973 H 0.0017 0.48545 0.69874 0.0
C1974 C 0.99232 0.45496 0.74353 0.0
C1975 C 0.98362 0.44286 0.76811 0.0
C1976 C -0.00109 0.48292 0.74298 0.0
C1977 C 0.98668 0.45716 0.79283 0.0
C1978 C -0.00516 0.48452 0.79269 0.0
C1979 C -0.00221 0.52677 0.76661 0.0
C1980 C 0.99461 0.53997 0.74128 0.0
C1981 C -0.00128 0.49811 0.76768 0.0
C1982 C -0.00153 0.52511 0.71701 0.0
C1983 C 0.00123 0.4967 0.71787 0.0
H1984 H 0.00978 0.04575 0.70138 0.0
H1985 H 0.00562 0.03629 0.78893 0.0
H1986 H 0.9922 0.98846 0.78366 0.0
H1987 H -0.00279 0.94761 0.75504 0.0
H1988 H 0.00962 0.95642 0.66819 0.0
H1989 H 0.0031 0.00578 0.67174 0.0
C1990 C 0.00438 0.03352 0.71915 0.0
C1991 C 0.00868 0.04424 0.74546 0.0
C1992 C -0.00124 0.00553 0.71591 0.0
C1993 C 0.00225 0.02831 0.7685 0.0
C1994 C -0.00504 0.00086 0.76545 0.0
C1995 C -0.00314 0.96025 0.73676 0.0
C1996 C 0.00407 0.94866 0.71147 0.0
C1997 C -0.00463 0.98881 0.73938 0.0
C1998 C 0.00406 0.96507 0.68786 0.0
C1999 C 0.00077 -0.00665 0.68998 0.0
H2000 H 0.73586 -0.00555 0.44566 0.0
H2001 H 0.81774 0.96395 0.45794 0.0
H2002 H 0.81404 0.97227 0.50711 0.0
H2003 H 0.78242 0.9731 0.54595 0.0
H2004 H 0.69814 -0.00417 0.5336 0.0
H2005 H 0.70763 0.00653 0.48551 0.0
C2006 C 0.75333 0.99108 0.45902 0.0
C2007 C 0.77686 0.9783 0.44855 0.0
C2008 C 0.75018 -0.00612 0.48746 0.0
C2009 C 0.7994 0.97366 0.46581 0.0
C2010 C 0.79713 0.97811 0.49393 0.0
C2011 C 0.7666 0.98186 0.53297 0.0
C2012 C 0.7397 0.98365 0.54289 0.0
C2013 C 0.77185 0.98597 0.50507 0.0
C2014 C 0.71904 -0.00547 0.52618 0.0
C2015 C 0.72442 0.00024 0.49863 0.0
H2016 H 0.21502 0.48956 0.46291 0.0
H2017 H 0.29619 0.49125 0.42828 0.0
H2018 H 0.31593 0.47948 0.47265 0.0
H2019 H 0.30994 0.48598 0.52242 0.0
H2020 H 0.22875 0.48381 0.557 0.0
H2021 H 0.20901 0.47726 0.51159 0.0
C2022 C 0.23684 0.48566 0.46482 0.0
C2023 C 0.25429 0.49198 0.44288 0.0
C2024 C 0.24805 0.47943 0.49054 0.0
C2025 C 0.28248 0.48667 0.44515 0.0
C2026 C 0.29381 0.48033 0.47063 0.0
C2027 C 0.2881 0.48235 0.52009 0.0
C2028 C 0.27067 0.48625 0.54259 0.0
C2029 C 0.27689 0.4792 0.49382 0.0
C2030 C 0.24247 0.48116 0.53974 0.0
C2031 C 0.23113 0.47784 0.5137 0.0
H2032 H 0.75417 0.00352 0.95169 0.0
H2033 H 0.66752 0.00133 0.96784 0.0
H2034 H 0.67633 -0.00492 0.01677 0.0
H2035 H 0.7077 0.00711 0.05415 0.0
H2036 H 0.79331 0.02001 0.03686 0.0
H2037 H 0.78658 0.00461 0.98973 0.0
C2038 C 0.73736 -1e-05 0.96586 0.0
C2039 C 0.71034 0.00301 0.95657 0.0
C2040 C 0.74266 -0.00068 0.99406 0.0
C2041 C 0.68849 -0.00109 0.97477 0.0
C2042 C 0.69359 -0.00412 0.00279 0.0
C2043 C 0.72503 0.00516 0.04034 0.0
C2044 C 0.75083 0.01487 0.04853 0.0
C2045 C 0.72046 -0.00141 0.01274 0.0
C2046 C 0.77325 0.01272 0.03068 0.0
C2047 C 0.76932 0.00416 0.00371 0.0
H2048 H 0.29486 0.48554 0.95294 0.0
H2049 H 0.20713 0.49403 0.95516 0.0
H2050 H 0.20841 0.49885 0.00495 0.0
H2051 H 0.23259 0.48315 0.04629 0.0
H2052 H 0.31959 0.46893 0.0433 0.0
H2053 H 0.32103 0.48459 -0.00423 0.0
C2054 C 0.27631 0.49021 0.9643 0.0
C2055 C 0.25094 0.48892 0.95086 0.0
C2056 C 0.27715 0.49102 0.99297 0.0
C2057 C 0.22687 0.49491 0.96534 0.0
C2058 C 0.22758 0.49713 0.99386 0.0
C2059 C 0.25201 0.48505 0.03559 0.0
C2060 C 0.27589 0.47472 0.04775 0.0
C2061 C 0.2523 0.49259 0.00787 0.0
C2062 C 0.30103 0.47687 0.03404 0.0
C2063 C 0.30176 0.4855 0.00679 0.0
H2064 H 0.47769 0.78835 0.9934 0.0
H2065 H 0.42667 0.71643 0.99414 0.0
H2066 H 0.46715 0.68735 -0.00342 0.0
H2067 H 0.51593 0.68336 0.98365 0.0
H2068 H 0.56704 0.75529 0.98436 0.0
H2069 H 0.52786 0.78338 -0.00288 0.0
C2070 C 0.4755 0.76639 -0.00433 0.0
C2071 C 0.4495 0.75442 0.9929 0.0
C2072 C 0.49891 0.74979 -0.00334 0.0
C2073 C 0.44662 0.72602 -0.00389 0.0
C2074 C 0.4698 0.70935 -0.00293 0.0
C2075 C 0.51867 0.70495 0.98798 0.0
C2076 C 0.54396 0.71744 0.98238 0.0
C2077 C 0.49597 0.72104 -0.00489 0.0
C2078 C 0.5476 0.7453 0.98837 0.0
C2079 C 0.52512 0.76147 -0.00465 0.0
H2080 H 0.44562 0.23228 0.47789 0.0
H2081 H 0.43624 0.31884 0.48984 0.0
H2082 H 0.48542 0.32558 0.48375 0.0
H2083 H 0.52977 0.30434 0.49395 0.0
H2084 H 0.53884 0.21714 0.4877 0.0
H2085 H 0.49161 0.21287 0.47161 0.0
C2086 C 0.45426 0.25273 0.47729 0.0
C2087 C 0.43785 0.27498 0.48485 0.0
C2088 C 0.48275 0.25607 0.47567 0.0
C2089 C 0.44879 0.30148 0.48415 0.0
C2090 C 0.47698 0.30523 0.48116 0.0
C2091 C 0.5218 0.28469 0.48736 0.0
C2092 C 0.53712 0.26103 0.49247 0.0
C2093 C 0.49422 0.28236 0.47973 0.0
C2094 C 0.52708 0.23555 0.48397 0.0
C2095 C 0.49994 0.2331 0.47519 0.0
H2096 H 0.96021 0.28382 0.51047 0.0
H2097 H 0.91543 0.20853 0.50171 0.0
H2098 H 0.95797 0.18259 0.50345 0.0
H2099 H 0.0066 0.18447 0.48931 0.0
H2100 H 0.05137 0.25997 0.49816 0.0
H2101 H 0.01039 0.28266 0.51526 0.0
C2102 C 0.95973 0.26164 0.51091 0.0
C2103 C 0.93522 0.24804 0.50466 0.0
C2104 C 0.9844 0.24702 0.51082 0.0
C2105 C 0.93436 0.21938 0.50595 0.0
C2106 C 0.95877 0.20454 0.50632 0.0
C2107 C 0.00759 0.20551 0.49627 0.0
C2108 C 0.03138 0.22091 0.49153 0.0
C2109 C 0.98387 0.21851 0.50586 0.0
C2110 C 0.03296 0.24791 0.50119 0.0
C2111 C 0.00948 0.26098 0.5108 0.0
H2112 H 0.48434 0.01704 0.6997 0.0
H2113 H 0.4878 0.05532 0.77905 0.0
H2114 H 0.48171 0.01112 0.80135 0.0
H2115 H 0.4923 0.96208 0.79702 0.0
H2116 H 0.48866 0.92384 0.71761 0.0
H2117 H 0.47669 0.96736 0.6965 0.0
C2118 C 0.48211 0.01576 0.72179 0.0
C2119 C 0.48729 0.03888 0.73787 0.0
C2120 C 0.47917 0.99022 0.73442 0.0
C2121 C 0.48409 0.03748 0.76641 0.0
C2122 C 0.48098 0.01217 0.77917 0.0
C2123 C 0.48735 0.9631 0.77536 0.0
C2124 C 0.49227 0.94036 0.75865 0.0
C2125 C 0.48104 0.9883 0.76332 0.0
C2126 C 0.48534 0.94139 0.73074 0.0
C2127 C 0.47884 0.96635 0.71859 0.0
H2128 H 0.463 0.52204 0.81824 0.0
H2129 H 0.50027 0.54963 0.74327 0.0
H2130 H 0.50565 0.50247 0.72795 0.0
H2131 H 0.48358 0.45698 0.72915 0.0
H2132 H 0.44118 0.43133 0.80218 0.0
H2133 H 0.45429 0.47352 0.82538 0.0
C2134 C 0.47378 0.51749 0.79932 0.0
C2135 C 0.48027 0.53886 0.78138 0.0
C2136 C 0.47492 0.49054 0.78993 0.0
C2137 C 0.49473 0.53325 0.75717 0.0
C2138 C 0.49729 0.50628 0.74817 0.0
C2139 C 0.4785 0.46024 0.75055 0.0
C2140 C 0.46113 0.4418 0.76398 0.0
C2141 C 0.48495 0.48515 0.76322 0.0
C2142 C 0.45438 0.44574 0.79161 0.0
C2143 C 0.46174 0.46986 0.80478 0.0
H2144 H 0.02862 0.27171 0.9922 0.0
H2145 H 0.06634 0.19297 0.98136 0.0
H2146 H 0.02206 0.17048 0.98742 0.0
H2147 H 0.97233 0.17554 0.97982 0.0
H2148 H 0.93466 0.25443 0.99061 0.0
H2149 H 0.97906 0.27455 0.00158 0.0
C2150 C 0.02729 0.24957 0.99291 0.0
C2151 C 0.05026 0.23392 0.98581 0.0
C2152 C 0.00164 0.23691 -0.00436 0.0
C2153 C 0.04869 0.2053 0.98677 0.0
C2154 C 0.02329 0.19248 0.98976 0.0
C2155 C 0.97375 0.19681 0.98596 0.0
C2156 C 0.95066 0.21373 0.98358 0.0
C2157 C -0.00056 0.20831 0.99179 0.0
C2158 C 0.95235 0.24112 0.99201 0.0
C2159 C 0.97781 0.25272 -0.00201 0.0
H2160 H 0.50281 0.04069 0.25352 0.0
H2161 H 0.46193 0.05017 0.33104 0.0
H2162 H 0.46817 0.00177 0.34102 0.0
H2163 H 0.46768 0.95698 0.31892 0.0
H2164 H 0.50263 0.94719 0.23857 0.0
H2165 H 0.51725 -0.00504 0.23851 0.0
C2166 C 0.49694 0.03234 0.27329 0.0
C2167 C 0.48134 0.04832 0.29126 0.0
C2168 C 0.4987 0.00412 0.2778 0.0
C2169 C 0.47373 0.03782 0.31689 0.0
C2170 C 0.47692 0.01008 0.32236 0.0
C2171 C 0.47983 0.96507 0.30212 0.0
C2172 C 0.48327 0.94936 0.27841 0.0
C2173 C 0.48667 0.9928 0.30168 0.0
C2174 C 0.49943 0.95935 0.25684 0.0
C2175 C 0.50747 0.98675 0.25668 0.0
H2176 H 0.50538 0.46599 0.2011 0.0
H2177 H 0.5268 0.43793 0.28195 0.0
H2178 H 0.51494 0.48242 0.30122 0.0
H2179 H 0.51346 0.53156 0.29186 0.0
H2180 H 0.4944 0.56024 0.21068 0.0
H2181 H 0.48883 0.51326 0.19478 0.0
C2182 C 0.50604 0.46938 0.22306 0.0
C2183 C 0.51722 0.44933 0.24019 0.0
C2184 C 0.4999 0.49521 0.2338 0.0
C2185 C 0.51824 0.45345 0.26859 0.0
C2186 C 0.51167 0.47889 0.27954 0.0
C2187 C 0.5065 0.52742 0.27114 0.0
C2188 C 0.5051 0.54888 0.2522 0.0
C2189 C 0.50461 0.50041 0.26197 0.0
C2190 C 0.49578 0.54377 0.22548 0.0
C2191 C 0.4931 0.5169 0.21628 0.0
H2192 H 0.01451 0.79443 -0.00096 0.0
H2193 H 0.05788 0.71842 0.9893 0.0
H2194 H 0.016 0.69614 0.97339 0.0
H2195 H 0.96566 0.69585 0.97767 0.0
H2196 H 0.9224 0.77197 0.98664 0.0
H2197 H 0.96561 0.79703 0.98604 0.0
C2198 C 0.01498 0.77339 0.99206 0.0
C2199 C 0.03877 0.75779 -0.0041 0.0
C2200 C 0.99077 0.76069 0.98313 0.0
C2201 C 0.03956 0.73066 0.98662 0.0
C2202 C 0.01556 0.71785 0.97778 0.0
C2203 C 0.9657 0.71803 0.97771 0.0
C2204 C 0.94122 0.73207 0.98305 0.0
C2205 C 0.9907 0.7322 0.97811 0.0
C2206 C 0.94117 0.76077 0.98276 0.0
C2207 C 0.96594 0.7751 0.98296 0.0
loop_
_geom_bond_atom_site_label_1
_geom_bond_atom_site_label_2
_geom_bond_distance
_geom_bond_site_symmetry_2
_ccdc_geom_bond_type
Co0 O1 2.216 . S
Co0 O2 2.091 . S
Co0 O4 2.004 . S
Co0 O10 2.021 . S
Co0 O12 2.137 . S
Co0 O13 2.244 . S
O1 Co0 2.216 . S
O1 C8 1.247 . S
O2 Co0 2.091 . S
O2 C8 1.261 . S
C3 O12 1.247 . S
C3 O13 1.272 . S
O4 Co0 2.004 . S
O4 C9 1.259 . S
Co5 O6 2.061 . S
Co5 O11 2.052 . S
Co5 O13 2.135 . S
O6 Co5 2.061 . S
O6 C9 1.235 . S
C7 O10 1.238 . S
C7 O11 1.241 . S
C8 O1 1.247 . S
C8 O2 1.261 . S
C9 O4 1.259 . S
C9 O6 1.235 . S
O10 Co0 2.021 . S
O10 C7 1.238 . S
O11 Co5 2.052 . S
O11 C7 1.241 . S
O12 Co0 2.137 . S
O12 C3 1.247 . S
O13 Co0 2.244 . S
O13 C3 1.272 . S
O13 Co5 2.135 . S
Co14 O15 2.216 . S
Co14 O16 2.091 . S
Co14 O18 2.004 . S
Co14 O24 2.021 . S
Co14 O26 2.137 . S
Co14 O27 2.244 . S
O15 Co14 2.216 . S
O15 C22 1.247 . S
O16 Co14 2.091 . S
O16 C22 1.261 . S
C17 O26 1.247 . S
C17 O27 1.272 . S
O18 Co14 2.004 . S
O18 C23 1.259 . S
Co19 O20 2.061 . S
Co19 O25 2.052 . S
Co19 O27 2.135 . S
O20 Co19 2.061 . S
O20 C23 1.235 . S
C21 O24 1.238 . S
C21 O25 1.241 . S
C22 O15 1.247 . S
C22 O16 1.261 . S
C23 O18 1.259 . S
C23 O20 1.235 . S
O24 Co14 2.021 . S
O24 C21 1.238 . S
O25 Co19 2.052 . S
O25 C21 1.241 . S
O26 Co14 2.137 . S
O26 C17 1.247 . S
O27 Co14 2.244 . S
O27 C17 1.272 . S
O27 Co19 2.135 . S
Co28 O29 2.216 . S
Co28 O30 2.091 . S
Co28 O32 2.004 . S
Co28 O38 2.021 . S
Co28 O40 2.137 . S
Co28 O41 2.244 . S
O29 Co28 2.216 . S
O29 C36 1.247 . S
O30 Co28 2.091 . S
O30 C36 1.261 . S
C31 O40 1.247 . S
C31 O41 1.272 . S
O32 Co28 2.004 . S
O32 C37 1.259 . S
Co33 O34 2.061 . S
Co33 O39 2.052 . S
Co33 O41 2.135 . S
O34 Co33 2.061 . S
O34 C37 1.235 . S
C35 O38 1.238 . S
C35 O39 1.241 . S
C36 O29 1.247 . S
C36 O30 1.261 . S
C37 O32 1.259 . S
C37 O34 1.235 . S
O38 Co28 2.021 . S
O38 C35 1.238 . S
O39 Co33 2.052 . S
O39 C35 1.241 . S
O40 Co28 2.137 . S
O40 C31 1.247 . S
O41 Co28 2.244 . S
O41 C31 1.272 . S
O41 Co33 2.135 . S
Co42 O43 2.216 . S
Co42 O44 2.091 . S
Co42 O46 2.004 . S
Co42 O52 2.021 . S
Co42 O54 2.137 . S
Co42 O55 2.244 . S
O43 Co42 2.216 . S
O43 C50 1.247 . S
O44 Co42 2.091 . S
O44 C50 1.261 . S
C45 O54 1.247 . S
C45 O55 1.272 . S
O46 Co42 2.004 . S
O46 C51 1.259 . S
Co47 O48 2.061 . S
Co47 O53 2.052 . S
Co47 O55 2.135 . S
O48 Co47 2.061 . S
O48 C51 1.235 . S
C49 O52 1.238 . S
C49 O53 1.241 . S
C50 O43 1.247 . S
C50 O44 1.261 . S
C51 O46 1.259 . S
C51 O48 1.235 . S
O52 Co42 2.021 . S
O52 C49 1.238 . S
O53 Co47 2.052 . S
O53 C49 1.241 . S
O54 Co42 2.137 . S
O54 C45 1.247 . S
O55 Co42 2.244 . S
O55 C45 1.272 . S
O55 Co47 2.135 . S
Co56 O57 2.216 . S
Co56 O58 2.091 . S
Co56 O60 2.004 . S
Co56 O66 2.021 . S
Co56 O68 2.137 . S
Co56 O69 2.244 . S
O57 Co56 2.216 . S
O57 C64 1.247 . S
O58 Co56 2.091 . S
O58 C64 1.261 . S
C59 O68 1.247 . S
C59 O69 1.272 . S
O60 Co56 2.004 . S
O60 C65 1.259 . S
Co61 O62 2.061 . S
Co61 O67 2.052 . S
Co61 O69 2.135 . S
O62 Co61 2.061 . S
O62 C65 1.235 . S
C63 O66 1.238 . S
C63 O67 1.241 . S
C64 O57 1.247 . S
C64 O58 1.261 . S
C65 O60 1.259 . S
C65 O62 1.235 . S
O66 Co56 2.021 . S
O66 C63 1.238 . S
O67 Co61 2.052 . S
O67 C63 1.241 . S
O68 Co56 2.137 . S
O68 C59 1.247 . S
O69 Co56 2.244 . S
O69 C59 1.272 . S
O69 Co61 2.135 . S
Co70 O71 2.216 . S
Co70 O72 2.091 . S
Co70 O74 2.004 . S
Co70 O80 2.021 . S
Co70 O82 2.137 . S
Co70 O83 2.244 . S
O71 Co70 2.216 . S
O71 C78 1.247 . S
O72 Co70 2.091 . S
O72 C78 1.261 . S
C73 O82 1.247 . S
C73 O83 1.272 . S
O74 Co70 2.004 . S
O74 C79 1.259 . S
Co75 O76 2.061 . S
Co75 O81 2.052 . S
Co75 O83 2.135 . S
O76 Co75 2.061 . S
O76 C79 1.235 . S
C77 O80 1.238 . S
C77 O81 1.241 . S
C78 O71 1.247 . S
C78 O72 1.261 . S
C79 O74 1.259 . S
C79 O76 1.235 . S
O80 Co70 2.021 . S
O80 C77 1.238 . S
O81 Co75 2.052 . S
O81 C77 1.241 . S
O82 Co70 2.137 . S
O82 C73 1.247 . S
O83 Co70 2.244 . S
O83 C73 1.272 . S
O83 Co75 2.135 . S
Co84 O85 2.216 . S
Co84 O86 2.091 . S
Co84 O88 2.004 . S
Co84 O94 2.021 . S
Co84 O96 2.137 . S
Co84 O97 2.244 . S
O85 Co84 2.216 . S
O85 C92 1.247 . S
O86 Co84 2.091 . S
O86 C92 1.261 . S
C87 O96 1.247 . S
C87 O97 1.272 . S
O88 Co84 2.004 . S
O88 C93 1.259 . S
Co89 O90 2.061 . S
Co89 O95 2.052 . S
Co89 O97 2.135 . S
O90 Co89 2.061 . S
O90 C93 1.235 . S
C91 O94 1.238 . S
C91 O95 1.241 . S
C92 O85 1.247 . S
C92 O86 1.261 . S
C93 O88 1.259 . S
C93 O90 1.235 . S
O94 Co84 2.021 . S
O94 C91 1.238 . S
O95 Co89 2.052 . S
O95 C91 1.241 . S
O96 Co84 2.137 . S
O96 C87 1.247 . S
O97 Co84 2.244 . S
O97 C87 1.272 . S
O97 Co89 2.135 . S
Co98 O99 2.216 . S
Co98 O100 2.091 . S
Co98 O102 2.004 . S
Co98 O108 2.021 . S
Co98 O110 2.137 . S
Co98 O111 2.244 . S
O99 Co98 2.216 . S
O99 C106 1.247 . S
O100 Co98 2.091 . S
O100 C106 1.261 . S
C101 O110 1.247 . S
C101 O111 1.272 . S
O102 Co98 2.004 . S
O102 C107 1.259 . S
Co103 O104 2.061 . S
Co103 O109 2.052 . S
Co103 O111 2.135 . S
O104 Co103 2.061 . S
O104 C107 1.235 . S
C105 O108 1.238 . S
C105 O109 1.241 . S
C106 O99 1.247 . S
C106 O100 1.261 . S
C107 O102 1.259 . S
C107 O104 1.235 . S
O108 Co98 2.021 . S
O108 C105 1.238 . S
O109 Co103 2.052 . S
O109 C105 1.241 . S
O110 Co98 2.137 . S
O110 C101 1.247 . S
O111 Co98 2.244 . S
O111 C101 1.272 . S
O111 Co103 2.135 . S
Co112 O113 2.216 . S
Co112 O114 2.091 . S
Co112 O116 2.004 . S
Co112 O122 2.021 . S
Co112 O124 2.137 . S
Co112 O125 2.244 . S
O113 Co112 2.216 . S
O113 C120 1.247 . S
O114 Co112 2.091 . S
O114 C120 1.261 . S
C115 O124 1.247 . S
C115 O125 1.272 . S
O116 Co112 2.004 . S
O116 C121 1.259 . S
Co117 O118 2.061 . S
Co117 O123 2.052 . S
Co117 O125 2.135 . S
O118 Co117 2.061 . S
O118 C121 1.235 . S
C119 O122 1.238 . S
C119 O123 1.241 . S
C120 O113 1.247 . S
C120 O114 1.261 . S
C121 O116 1.259 . S
C121 O118 1.235 . S
O122 Co112 2.021 . S
O122 C119 1.238 . S
O123 Co117 2.052 . S
O123 C119 1.241 . S
O124 Co112 2.137 . S
O124 C115 1.247 . S
O125 Co112 2.244 . S
O125 C115 1.272 . S
O125 Co117 2.135 . S
Co126 O127 2.216 . S
Co126 O128 2.091 . S
Co126 O130 2.004 . S
Co126 O136 2.021 . S
Co126 O138 2.137 . S
Co126 O139 2.244 . S
O127 Co126 2.216 . S
O127 C134 1.247 . S
O128 Co126 2.091 . S
O128 C134 1.261 . S
C129 O138 1.247 . S
C129 O139 1.272 . S
O130 Co126 2.004 . S
O130 C135 1.259 . S
Co131 O132 2.061 . S
Co131 O137 2.052 . S
Co131 O139 2.135 . S
O132 Co131 2.061 . S
O132 C135 1.235 . S
C133 O136 1.238 . S
C133 O137 1.241 . S
C134 O127 1.247 . S
C134 O128 1.261 . S
C135 O130 1.259 . S
C135 O132 1.235 . S
O136 Co126 2.021 . S
O136 C133 1.238 . S
O137 Co131 2.052 . S
O137 C133 1.241 . S
O138 Co126 2.137 . S
O138 C129 1.247 . S
O139 Co126 2.244 . S
O139 C129 1.272 . S
O139 Co131 2.135 . S
Co140 O141 2.216 . S
Co140 O142 2.091 . S
Co140 O144 2.004 . S
Co140 O150 2.021 . S
Co140 O152 2.137 . S
Co140 O153 2.244 . S
O141 Co140 2.216 . S
O141 C148 1.247 . S
O142 Co140 2.091 . S
O142 C148 1.261 . S
C143 O152 1.247 . S
C143 O153 1.272 . S
O144 Co140 2.004 . S
O144 C149 1.259 . S
Co145 O146 2.061 . S
Co145 O151 2.052 . S
Co145 O153 2.135 . S
O146 Co145 2.061 . S
O146 C149 1.235 . S
C147 O150 1.238 . S
C147 O151 1.241 . S
C148 O141 1.247 . S
C148 O142 1.261 . S
C149 O144 1.259 . S
C149 O146 1.235 . S
O150 Co140 2.021 . S
O150 C147 1.238 . S
O151 Co145 2.052 . S
O151 C147 1.241 . S
O152 Co140 2.137 . S
O152 C143 1.247 . S
O153 Co140 2.244 . S
O153 C143 1.272 . S
O153 Co145 2.135 . S
Co154 O155 2.216 . S
Co154 O156 2.091 . S
Co154 O158 2.004 . S
Co154 O164 2.021 . S
Co154 O166 2.137 . S
Co154 O167 2.244 . S
O155 Co154 2.216 . S
O155 C162 1.247 . S
O156 Co154 2.091 . S
O156 C162 1.261 . S
C157 O166 1.247 . S
C157 O167 1.272 . S
O158 Co154 2.004 . S
O158 C163 1.259 . S
Co159 O160 2.061 . S
Co159 O165 2.052 . S
Co159 O167 2.135 . S
O160 Co159 2.061 . S
O160 C163 1.235 . S
C161 O164 1.238 . S
C161 O165 1.241 . S
C162 O155 1.247 . S
C162 O156 1.261 . S
C163 O158 1.259 . S
C163 O160 1.235 . S
O164 Co154 2.021 . S
O164 C161 1.238 . S
O165 Co159 2.052 . S
O165 C161 1.241 . S
O166 Co154 2.137 . S
O166 C157 1.247 . S
O167 Co154 2.244 . S
O167 C157 1.272 . S
O167 Co159 2.135 . S
Co168 O169 2.216 . S
Co168 O170 2.091 . S
Co168 O172 2.004 . S
Co168 O178 2.021 . S
Co168 O180 2.137 . S
Co168 O181 2.244 . S
O169 Co168 2.216 . S
O169 C176 1.247 . S
O170 Co168 2.091 . S
O170 C176 1.261 . S
C171 O180 1.247 . S
C171 O181 1.272 . S
O172 Co168 2.004 . S
O172 C177 1.259 . S
Co173 O174 2.061 . S
Co173 O179 2.052 . S
Co173 O181 2.135 . S
O174 Co173 2.061 . S
O174 C177 1.235 . S
C175 O178 1.238 . S
C175 O179 1.241 . S
C176 O169 1.247 . S
C176 O170 1.261 . S
C177 O172 1.259 . S
C177 O174 1.235 . S
O178 Co168 2.021 . S
O178 C175 1.238 . S
O179 Co173 2.052 . S
O179 C175 1.241 . S
O180 Co168 2.137 . S
O180 C171 1.247 . S
O181 Co168 2.244 . S
O181 C171 1.272 . S
O181 Co173 2.135 . S
Co182 O183 2.216 . S
Co182 O184 2.091 . S
Co182 O186 2.004 . S
Co182 O192 2.021 . S
Co182 O194 2.137 . S
Co182 O195 2.244 . S
O183 Co182 2.216 . S
O183 C190 1.247 . S
O184 Co182 2.091 . S
O184 C190 1.261 . S
C185 O194 1.247 . S
C185 O195 1.272 . S
O186 Co182 2.004 . S
O186 C191 1.259 . S
Co187 O188 2.061 . S
Co187 O193 2.052 . S
Co187 O195 2.135 . S
O188 Co187 2.061 . S
O188 C191 1.235 . S
C189 O192 1.238 . S
C189 O193 1.241 . S
C190 O183 1.247 . S
C190 O184 1.261 . S
C191 O186 1.259 . S
C191 O188 1.235 . S
O192 Co182 2.021 . S
O192 C189 1.238 . S
O193 Co187 2.052 . S
O193 C189 1.241 . S
O194 Co182 2.137 . S
O194 C185 1.247 . S
O195 Co182 2.244 . S
O195 C185 1.272 . S
O195 Co187 2.135 . S
Co196 O197 2.216 . S
Co196 O198 2.091 . S
Co196 O200 2.004 . S
Co196 O206 2.021 . S
Co196 O208 2.137 . S
Co196 O209 2.244 . S
O197 Co196 2.216 . S
O197 C204 1.247 . S
O198 Co196 2.091 . S
O198 C204 1.261 . S
C199 O208 1.247 . S
C199 O209 1.272 . S
O200 Co196 2.004 . S
O200 C205 1.259 . S
Co201 O202 2.061 . S
Co201 O207 2.052 . S
Co201 O209 2.135 . S
O202 Co201 2.061 . S
O202 C205 1.235 . S
C203 O206 1.238 . S
C203 O207 1.241 . S
C204 O197 1.247 . S
C204 O198 1.261 . S
C205 O200 1.259 . S
C205 O202 1.235 . S
O206 Co196 2.021 . S
O206 C203 1.238 . S
O207 Co201 2.052 . S
O207 C203 1.241 . S
O208 Co196 2.137 . S
O208 C199 1.247 . S
O209 Co196 2.244 . S
O209 C199 1.272 . S
O209 Co201 2.135 . S
Co210 O211 2.216 . S
Co210 O212 2.091 . S
Co210 O214 2.004 . S
Co210 O220 2.021 . S
Co210 O222 2.137 . S
Co210 O223 2.244 . S
O211 Co210 2.216 . S
O211 C218 1.247 . S
O212 Co210 2.091 . S
O212 C218 1.261 . S
C213 O222 1.247 . S
C213 O223 1.272 . S
O214 Co210 2.004 . S
O214 C219 1.259 . S
Co215 O216 2.061 . S
Co215 O221 2.052 . S
Co215 O223 2.135 . S
O216 Co215 2.061 . S
O216 C219 1.235 . S
C217 O220 1.238 . S
C217 O221 1.241 . S
C218 O211 1.247 . S
C218 O212 1.261 . S
C219 O214 1.259 . S
C219 O216 1.235 . S
O220 Co210 2.021 . S
O220 C217 1.238 . S
O221 Co215 2.052 . S
O221 C217 1.241 . S
O222 Co210 2.137 . S
O222 C213 1.247 . S
O223 Co210 2.244 . S
O223 C213 1.272 . S
O223 Co215 2.135 . S
Co224 O225 2.216 . S
Co224 O226 2.091 . S
Co224 O228 2.004 . S
Co224 O234 2.021 . S
Co224 O236 2.137 . S
Co224 O237 2.244 . S
O225 Co224 2.216 . S
O225 C232 1.247 . S
O226 Co224 2.091 . S
O226 C232 1.261 . S
C227 O236 1.247 . S
C227 O237 1.272 . S
O228 Co224 2.004 . S
O228 C233 1.259 . S
Co229 O230 2.061 . S
Co229 O235 2.052 . S
Co229 O237 2.135 . S
O230 Co229 2.061 . S
O230 C233 1.235 . S
C231 O234 1.238 . S
C231 O235 1.241 . S
C232 O225 1.247 . S
C232 O226 1.261 . S
C233 O228 1.259 . S
C233 O230 1.235 . S
O234 Co224 2.021 . S
O234 C231 1.238 . S
O235 Co229 2.052 . S
O235 C231 1.241 . S
O236 Co224 2.137 . S
O236 C227 1.247 . S
O237 Co224 2.244 . S
O237 C227 1.272 . S
O237 Co229 2.135 . S
Co238 O239 2.216 . S
Co238 O240 2.091 . S
Co238 O242 2.004 . S
Co238 O248 2.021 . S
Co238 O250 2.137 . S
Co238 O251 2.244 . S
O239 Co238 2.216 . S
O239 C246 1.247 . S
O240 Co238 2.091 . S
O240 C246 1.261 . S
C241 O250 1.247 . S
C241 O251 1.272 . S
O242 Co238 2.004 . S
O242 C247 1.259 . S
Co243 O244 2.061 . S
Co243 O249 2.052 . S
Co243 O251 2.135 . S
O244 Co243 2.061 . S
O244 C247 1.235 . S
C245 O248 1.238 . S
C245 O249 1.241 . S
C246 O239 1.247 . S
C246 O240 1.261 . S
C247 O242 1.259 . S
C247 O244 1.235 . S
O248 Co238 2.021 . S
O248 C245 1.238 . S
O249 Co243 2.052 . S
O249 C245 1.241 . S
O250 Co238 2.137 . S
O250 C241 1.247 . S
O251 Co238 2.244 . S
O251 C241 1.272 . S
O251 Co243 2.135 . S
Co252 O253 2.216 . S
Co252 O254 2.091 . S
Co252 O256 2.004 . S
Co252 O262 2.021 . S
Co252 O264 2.137 . S
Co252 O265 2.244 . S
O253 Co252 2.216 . S
O253 C260 1.247 . S
O254 Co252 2.091 . S
O254 C260 1.261 . S
C255 O264 1.247 . S
C255 O265 1.272 . S
O256 Co252 2.004 . S
O256 C261 1.259 . S
Co257 O258 2.061 . S
Co257 O263 2.052 . S
Co257 O265 2.135 . S
O258 Co257 2.061 . S
O258 C261 1.235 . S
C259 O262 1.238 . S
C259 O263 1.241 . S
C260 O253 1.247 . S
C260 O254 1.261 . S
C261 O256 1.259 . S
C261 O258 1.235 . S
O262 Co252 2.021 . S
O262 C259 1.238 . S
O263 Co257 2.052 . S
O263 C259 1.241 . S
O264 Co252 2.137 . S
O264 C255 1.247 . S
O265 Co252 2.244 . S
O265 C255 1.272 . S
O265 Co257 2.135 . S
Co266 O267 2.216 . S
Co266 O268 2.091 . S
Co266 O270 2.004 . S
Co266 O276 2.021 . S
Co266 O278 2.137 . S
Co266 O279 2.244 . S
O267 Co266 2.216 . S
O267 C274 1.247 . S
O268 Co266 2.091 . S
O268 C274 1.261 . S
C269 O278 1.247 . S
C269 O279 1.272 . S
O270 Co266 2.004 . S
O270 C275 1.259 . S
Co271 O272 2.061 . S
Co271 O277 2.052 . S
Co271 O279 2.135 . S
O272 Co271 2.061 . S
O272 C275 1.235 . S
C273 O276 1.238 . S
C273 O277 1.241 . S
C274 O267 1.247 . S
C274 O268 1.261 . S
C275 O270 1.259 . S
C275 O272 1.235 . S
O276 Co266 2.021 . S
O276 C273 1.238 . S
O277 Co271 2.052 . S
O277 C273 1.241 . S
O278 Co266 2.137 . S
O278 C269 1.247 . S
O279 Co266 2.244 . S
O279 C269 1.272 . S
O279 Co271 2.135 . S
Co280 O281 2.216 . S
Co280 O282 2.091 . S
Co280 O284 2.004 . S
Co280 O290 2.021 . S
Co280 O292 2.137 . S
Co280 O293 2.244 . S
O281 Co280 2.216 . S
O281 C288 1.247 . S
O282 Co280 2.091 . S
O282 C288 1.261 . S
C283 O292 1.247 . S
C283 O293 1.272 . S
O284 Co280 2.004 . S
O284 C289 1.259 . S
Co285 O286 2.061 . S
Co285 O291 2.052 . S
Co285 O293 2.135 . S
O286 Co285 2.061 . S
O286 C289 1.235 . S
C287 O290 1.238 . S
C287 O291 1.241 . S
C288 O281 1.247 . S
C288 O282 1.261 . S
C289 O284 1.259 . S
C289 O286 1.235 . S
O290 Co280 2.021 . S
O290 C287 1.238 . S
O291 Co285 2.052 . S
O291 C287 1.241 . S
O292 Co280 2.137 . S
O292 C283 1.247 . S
O293 Co280 2.244 . S
O293 C283 1.272 . S
O293 Co285 2.135 . S
Co294 O295 2.216 . S
Co294 O296 2.091 . S
Co294 O298 2.004 . S
Co294 O304 2.021 . S
Co294 O306 2.137 . S
Co294 O307 2.244 . S
O295 Co294 2.216 . S
O295 C302 1.247 . S
O296 Co294 2.091 . S
O296 C302 1.261 . S
C297 O306 1.247 . S
C297 O307 1.272 . S
O298 Co294 2.004 . S
O298 C303 1.259 . S
Co299 O300 2.061 . S
Co299 O305 2.052 . S
Co299 O307 2.135 . S
O300 Co299 2.061 . S
O300 C303 1.235 . S
C301 O304 1.238 . S
C301 O305 1.241 . S
C302 O295 1.247 . S
C302 O296 1.261 . S
C303 O298 1.259 . S
C303 O300 1.235 . S
O304 Co294 2.021 . S
O304 C301 1.238 . S
O305 Co299 2.052 . S
O305 C301 1.241 . S
O306 Co294 2.137 . S
O306 C297 1.247 . S
O307 Co294 2.244 . S
O307 C297 1.272 . S
O307 Co299 2.135 . S
Co308 O309 2.216 . S
Co308 O310 2.091 . S
Co308 O312 2.004 . S
Co308 O318 2.021 . S
Co308 O320 2.137 . S
Co308 O321 2.244 . S
O309 Co308 2.216 . S
O309 C316 1.247 . S
O310 Co308 2.091 . S
O310 C316 1.261 . S
C311 O320 1.247 . S
C311 O321 1.272 . S
O312 Co308 2.004 . S
O312 C317 1.259 . S
Co313 O314 2.061 . S
Co313 O319 2.052 . S
Co313 O321 2.135 . S
O314 Co313 2.061 . S
O314 C317 1.235 . S
C315 O318 1.238 . S
C315 O319 1.241 . S
C316 O309 1.247 . S
C316 O310 1.261 . S
C317 O312 1.259 . S
C317 O314 1.235 . S
O318 Co308 2.021 . S
O318 C315 1.238 . S
O319 Co313 2.052 . S
O319 C315 1.241 . S
O320 Co308 2.137 . S
O320 C311 1.247 . S
O321 Co308 2.244 . S
O321 C311 1.272 . S
O321 Co313 2.135 . S
Co322 O323 2.216 . S
Co322 O324 2.091 . S
Co322 O326 2.004 . S
Co322 O332 2.021 . S
Co322 O334 2.137 . S
Co322 O335 2.244 . S
O323 Co322 2.216 . S
O323 C330 1.247 . S
O324 Co322 2.091 . S
O324 C330 1.261 . S
C325 O334 1.247 . S
C325 O335 1.272 . S
O326 Co322 2.004 . S
O326 C331 1.259 . S
Co327 O328 2.061 . S
Co327 O333 2.052 . S
Co327 O335 2.135 . S
O328 Co327 2.061 . S
O328 C331 1.235 . S
C329 O332 1.238 . S
C329 O333 1.241 . S
C330 O323 1.247 . S
C330 O324 1.261 . S
C331 O326 1.259 . S
C331 O328 1.235 . S
O332 Co322 2.021 . S
O332 C329 1.238 . S
O333 Co327 2.052 . S
O333 C329 1.241 . S
O334 Co322 2.137 . S
O334 C325 1.247 . S
O335 Co322 2.244 . S
O335 C325 1.272 . S
O335 Co327 2.135 . S
Co336 O337 2.216 . S
Co336 O338 2.091 . S
Co336 O340 2.004 . S
Co336 O346 2.021 . S
Co336 O348 2.137 . S
Co336 O349 2.244 . S
O337 Co336 2.216 . S
O337 C344 1.247 . S
O338 Co336 2.091 . S
O338 C344 1.261 . S
C339 O348 1.247 . S
C339 O349 1.272 . S
O340 Co336 2.004 . S
O340 C345 1.259 . S
Co341 O342 2.061 . S
Co341 O347 2.052 . S
Co341 O349 2.135 . S
O342 Co341 2.061 . S
O342 C345 1.235 . S
C343 O346 1.238 . S
C343 O347 1.241 . S
C344 O337 1.247 . S
C344 O338 1.261 . S
C345 O340 1.259 . S
C345 O342 1.235 . S
O346 Co336 2.021 . S
O346 C343 1.238 . S
O347 Co341 2.052 . S
O347 C343 1.241 . S
O348 Co336 2.137 . S
O348 C339 1.247 . S
O349 Co336 2.244 . S
O349 C339 1.272 . S
O349 Co341 2.135 . S
Co350 O351 2.216 . S
Co350 O352 2.091 . S
Co350 O354 2.004 . S
Co350 O360 2.021 . S
Co350 O362 2.137 . S
Co350 O363 2.244 . S
O351 Co350 2.216 . S
O351 C358 1.247 . S
O352 Co350 2.091 . S
O352 C358 1.261 . S
C353 O362 1.247 . S
C353 O363 1.272 . S
O354 Co350 2.004 . S
O354 C359 1.259 . S
Co355 O356 2.061 . S
Co355 O361 2.052 . S
Co355 O363 2.135 . S
O356 Co355 2.061 . S
O356 C359 1.235 . S
C357 O360 1.238 . S
C357 O361 1.241 . S
C358 O351 1.247 . S
C358 O352 1.261 . S
C359 O354 1.259 . S
C359 O356 1.235 . S
O360 Co350 2.021 . S
O360 C357 1.238 . S
O361 Co355 2.052 . S
O361 C357 1.241 . S
O362 Co350 2.137 . S
O362 C353 1.247 . S
O363 Co350 2.244 . S
O363 C353 1.272 . S
O363 Co355 2.135 . S
Co364 O365 2.216 . S
Co364 O366 2.091 . S
Co364 O368 2.004 . S
Co364 O374 2.021 . S
Co364 O376 2.137 . S
Co364 O377 2.244 . S
O365 Co364 2.216 . S
O365 C372 1.247 . S
O366 Co364 2.091 . S
O366 C372 1.261 . S
C367 O376 1.247 . S
C367 O377 1.272 . S
O368 Co364 2.004 . S
O368 C373 1.259 . S
Co369 O370 2.061 . S
Co369 O375 2.052 . S
Co369 O377 2.135 . S
O370 Co369 2.061 . S
O370 C373 1.235 . S
C371 O374 1.238 . S
C371 O375 1.241 . S
C372 O365 1.247 . S
C372 O366 1.261 . S
C373 O368 1.259 . S
C373 O370 1.235 . S
O374 Co364 2.021 . S
O374 C371 1.238 . S
O375 Co369 2.052 . S
O375 C371 1.241 . S
O376 Co364 2.137 . S
O376 C367 1.247 . S
O377 Co364 2.244 . S
O377 C367 1.272 . S
O377 Co369 2.135 . S
Co378 O379 2.216 . S
Co378 O380 2.091 . S
Co378 O382 2.004 . S
Co378 O388 2.021 . S
Co378 O390 2.137 . S
Co378 O391 2.244 . S
O379 Co378 2.216 . S
O379 C386 1.247 . S
O380 Co378 2.091 . S
O380 C386 1.261 . S
C381 O390 1.247 . S
C381 O391 1.272 . S
O382 Co378 2.004 . S
O382 C387 1.259 . S
Co383 O384 2.061 . S
Co383 O389 2.052 . S
Co383 O391 2.135 . S
O384 Co383 2.061 . S
O384 C387 1.235 . S
C385 O388 1.238 . S
C385 O389 1.241 . S
C386 O379 1.247 . S
C386 O380 1.261 . S
C387 O382 1.259 . S
C387 O384 1.235 . S
O388 Co378 2.021 . S
O388 C385 1.238 . S
O389 Co383 2.052 . S
O389 C385 1.241 . S
O390 Co378 2.137 . S
O390 C381 1.247 . S
O391 Co378 2.244 . S
O391 C381 1.272 . S
O391 Co383 2.135 . S
Co392 O393 2.216 . S
Co392 O394 2.091 . S
Co392 O396 2.004 . S
Co392 O402 2.021 . S
Co392 O404 2.137 . S
Co392 O405 2.244 . S
O393 Co392 2.216 . S
O393 C400 1.247 . S
O394 Co392 2.091 . S
O394 C400 1.261 . S
C395 O404 1.247 . S
C395 O405 1.272 . S
O396 Co392 2.004 . S
O396 C401 1.259 . S
Co397 O398 2.061 . S
Co397 O403 2.052 . S
Co397 O405 2.135 . S
O398 Co397 2.061 . S
O398 C401 1.235 . S
C399 O402 1.238 . S
C399 O403 1.241 . S
C400 O393 1.247 . S
C400 O394 1.261 . S
C401 O396 1.259 . S
C401 O398 1.235 . S
O402 Co392 2.021 . S
O402 C399 1.238 . S
O403 Co397 2.052 . S
O403 C399 1.241 . S
O404 Co392 2.137 . S
O404 C395 1.247 . S
O405 Co392 2.244 . S
O405 C395 1.272 . S
O405 Co397 2.135 . S
Co406 O407 2.216 . S
Co406 O408 2.091 . S
Co406 O410 2.004 . S
Co406 O416 2.021 . S
Co406 O418 2.137 . S
Co406 O419 2.244 . S
O407 Co406 2.216 . S
O407 C414 1.247 . S
O408 Co406 2.091 . S
O408 C414 1.261 . S
C409 O418 1.247 . S
C409 O419 1.272 . S
O410 Co406 2.004 . S
O410 C415 1.259 . S
Co411 O412 2.061 . S
Co411 O417 2.052 . S
Co411 O419 2.135 . S
O412 Co411 2.061 . S
O412 C415 1.235 . S
C413 O416 1.238 . S
C413 O417 1.241 . S
C414 O407 1.247 . S
C414 O408 1.261 . S
C415 O410 1.259 . S
C415 O412 1.235 . S
O416 Co406 2.021 . S
O416 C413 1.238 . S
O417 Co411 2.052 . S
O417 C413 1.241 . S
O418 Co406 2.137 . S
O418 C409 1.247 . S
O419 Co406 2.244 . S
O419 C409 1.272 . S
O419 Co411 2.135 . S
Co420 O421 2.216 . S
Co420 O422 2.091 . S
Co420 O424 2.004 . S
Co420 O430 2.021 . S
Co420 O432 2.137 . S
Co420 O433 2.244 . S
O421 Co420 2.216 . S
O421 C428 1.247 . S
O422 Co420 2.091 . S
O422 C428 1.261 . S
C423 O432 1.247 . S
C423 O433 1.272 . S
O424 Co420 2.004 . S
O424 C429 1.259 . S
Co425 O426 2.061 . S
Co425 O431 2.052 . S
Co425 O433 2.135 . S
O426 Co425 2.061 . S
O426 C429 1.235 . S
C427 O430 1.238 . S
C427 O431 1.241 . S
C428 O421 1.247 . S
C428 O422 1.261 . S
C429 O424 1.259 . S
C429 O426 1.235 . S
O430 Co420 2.021 . S
O430 C427 1.238 . S
O431 Co425 2.052 . S
O431 C427 1.241 . S
O432 Co420 2.137 . S
O432 C423 1.247 . S
O433 Co420 2.244 . S
O433 C423 1.272 . S
O433 Co425 2.135 . S
Co434 O435 2.216 . S
Co434 O436 2.091 . S
Co434 O438 2.004 . S
Co434 O444 2.021 . S
Co434 O446 2.137 . S
Co434 O447 2.244 . S
O435 Co434 2.216 . S
O435 C442 1.247 . S
O436 Co434 2.091 . S
O436 C442 1.261 . S
C437 O446 1.247 . S
C437 O447 1.272 . S
O438 Co434 2.004 . S
O438 C443 1.259 . S
Co439 O440 2.061 . S
Co439 O445 2.052 . S
Co439 O447 2.135 . S
O440 Co439 2.061 . S
O440 C443 1.235 . S
C441 O444 1.238 . S
C441 O445 1.241 . S
C442 O435 1.247 . S
C442 O436 1.261 . S
C443 O438 1.259 . S
C443 O440 1.235 . S
O444 Co434 2.021 . S
O444 C441 1.238 . S
O445 Co439 2.052 . S
O445 C441 1.241 . S
O446 Co434 2.137 . S
O446 C437 1.247 . S
O447 Co434 2.244 . S
O447 C437 1.272 . S
O447 Co439 2.135 . S
Co448 O449 2.216 . S
Co448 O450 2.091 . S
Co448 O452 2.004 . S
Co448 O458 2.021 . S
Co448 O460 2.137 . S
Co448 O461 2.244 . S
O449 Co448 2.216 . S
O449 C456 1.247 . S
O450 Co448 2.091 . S
O450 C456 1.261 . S
C451 O460 1.247 . S
C451 O461 1.272 . S
O452 Co448 2.004 . S
O452 C457 1.259 . S
Co453 O454 2.061 . S
Co453 O459 2.052 . S
Co453 O461 2.135 . S
O454 Co453 2.061 . S
O454 C457 1.235 . S
C455 O458 1.238 . S
C455 O459 1.241 . S
C456 O449 1.247 . S
C456 O450 1.261 . S
C457 O452 1.259 . S
C457 O454 1.235 . S
O458 Co448 2.021 . S
O458 C455 1.238 . S
O459 Co453 2.052 . S
O459 C455 1.241 . S
O460 Co448 2.137 . S
O460 C451 1.247 . S
O461 Co448 2.244 . S
O461 C451 1.272 . S
O461 Co453 2.135 . S
Co462 O463 2.216 . S
Co462 O464 2.091 . S
Co462 O466 2.004 . S
Co462 O472 2.021 . S
Co462 O474 2.137 . S
Co462 O475 2.244 . S
O463 Co462 2.216 . S
O463 C470 1.247 . S
O464 Co462 2.091 . S
O464 C470 1.261 . S
C465 O474 1.247 . S
C465 O475 1.272 . S
O466 Co462 2.004 . S
O466 C471 1.259 . S
Co467 O468 2.061 . S
Co467 O473 2.052 . S
Co467 O475 2.135 . S
O468 Co467 2.061 . S
O468 C471 1.235 . S
C469 O472 1.238 . S
C469 O473 1.241 . S
C470 O463 1.247 . S
C470 O464 1.261 . S
C471 O466 1.259 . S
C471 O468 1.235 . S
O472 Co462 2.021 . S
O472 C469 1.238 . S
O473 Co467 2.052 . S
O473 C469 1.241 . S
O474 Co462 2.137 . S
O474 C465 1.247 . S
O475 Co462 2.244 . S
O475 C465 1.272 . S
O475 Co467 2.135 . S
Co476 O477 2.216 . S
Co476 O478 2.091 . S
Co476 O480 2.004 . S
Co476 O486 2.021 . S
Co476 O488 2.137 . S
Co476 O489 2.244 . S
O477 Co476 2.216 . S
O477 C484 1.247 . S
O478 Co476 2.091 . S
O478 C484 1.261 . S
C479 O488 1.247 . S
C479 O489 1.272 . S
O480 Co476 2.004 . S
O480 C485 1.259 . S
Co481 O482 2.061 . S
Co481 O487 2.052 . S
Co481 O489 2.135 . S
O482 Co481 2.061 . S
O482 C485 1.235 . S
C483 O486 1.238 . S
C483 O487 1.241 . S
C484 O477 1.247 . S
C484 O478 1.261 . S
C485 O480 1.259 . S
C485 O482 1.235 . S
O486 Co476 2.021 . S
O486 C483 1.238 . S
O487 Co481 2.052 . S
O487 C483 1.241 . S
O488 Co476 2.137 . S
O488 C479 1.247 . S
O489 Co476 2.244 . S
O489 C479 1.272 . S
O489 Co481 2.135 . S
Co490 O491 2.216 . S
Co490 O492 2.091 . S
Co490 O494 2.004 . S
Co490 O500 2.021 . S
Co490 O502 2.137 . S
Co490 O503 2.244 . S
O491 Co490 2.216 . S
O491 C498 1.247 . S
O492 Co490 2.091 . S
O492 C498 1.261 . S
C493 O502 1.247 . S
C493 O503 1.272 . S
O494 Co490 2.004 . S
O494 C499 1.259 . S
Co495 O496 2.061 . S
Co495 O501 2.052 . S
Co495 O503 2.135 . S
O496 Co495 2.061 . S
O496 C499 1.235 . S
C497 O500 1.238 . S
C497 O501 1.241 . S
C498 O491 1.247 . S
C498 O492 1.261 . S
C499 O494 1.259 . S
C499 O496 1.235 . S
O500 Co490 2.021 . S
O500 C497 1.238 . S
O501 Co495 2.052 . S
O501 C497 1.241 . S
O502 Co490 2.137 . S
O502 C493 1.247 . S
O503 Co490 2.244 . S
O503 C493 1.272 . S
O503 Co495 2.135 . S
Co504 O505 2.216 . S
Co504 O506 2.091 . S
Co504 O508 2.004 . S
Co504 O514 2.021 . S
Co504 O516 2.137 . S
Co504 O517 2.244 . S
O505 Co504 2.216 . S
O505 C512 1.247 . S
O506 Co504 2.091 . S
O506 C512 1.261 . S
C507 O516 1.247 . S
C507 O517 1.272 . S
O508 Co504 2.004 . S
O508 C513 1.259 . S
Co509 O510 2.061 . S
Co509 O515 2.052 . S
Co509 O517 2.135 . S
O510 Co509 2.061 . S
O510 C513 1.235 . S
C511 O514 1.238 . S
C511 O515 1.241 . S
C512 O505 1.247 . S
C512 O506 1.261 . S
C513 O508 1.259 . S
C513 O510 1.235 . S
O514 Co504 2.021 . S
O514 C511 1.238 . S
O515 Co509 2.052 . S
O515 C511 1.241 . S
O516 Co504 2.137 . S
O516 C507 1.247 . S
O517 Co504 2.244 . S
O517 C507 1.272 . S
O517 Co509 2.135 . S
Co518 O519 2.216 . S
Co518 O520 2.091 . S
Co518 O522 2.004 . S
Co518 O528 2.021 . S
Co518 O530 2.137 . S
Co518 O531 2.244 . S
O519 Co518 2.216 . S
O519 C526 1.247 . S
O520 Co518 2.091 . S
O520 C526 1.261 . S
C521 O530 1.247 . S
C521 O531 1.272 . S
O522 Co518 2.004 . S
O522 C527 1.259 . S
Co523 O524 2.061 . S
Co523 O529 2.052 . S
Co523 O531 2.135 . S
O524 Co523 2.061 . S
O524 C527 1.235 . S
C525 O528 1.238 . S
C525 O529 1.241 . S
C526 O519 1.247 . S
C526 O520 1.261 . S
C527 O522 1.259 . S
C527 O524 1.235 . S
O528 Co518 2.021 . S
O528 C525 1.238 . S
O529 Co523 2.052 . S
O529 C525 1.241 . S
O530 Co518 2.137 . S
O530 C521 1.247 . S
O531 Co518 2.244 . S
O531 C521 1.272 . S
O531 Co523 2.135 . S
Co532 O533 2.216 . S
Co532 O534 2.091 . S
Co532 O536 2.004 . S
Co532 O542 2.021 . S
Co532 O544 2.137 . S
Co532 O545 2.244 . S
O533 Co532 2.216 . S
O533 C540 1.247 . S
O534 Co532 2.091 . S
O534 C540 1.261 . S
C535 O544 1.247 . S
C535 O545 1.272 . S
O536 Co532 2.004 . S
O536 C541 1.259 . S
Co537 O538 2.061 . S
Co537 O543 2.052 . S
Co537 O545 2.135 . S
O538 Co537 2.061 . S
O538 C541 1.235 . S
C539 O542 1.238 . S
C539 O543 1.241 . S
C540 O533 1.247 . S
C540 O534 1.261 . S
C541 O536 1.259 . S
C541 O538 1.235 . S
O542 Co532 2.021 . S
O542 C539 1.238 . S
O543 Co537 2.052 . S
O543 C539 1.241 . S
O544 Co532 2.137 . S
O544 C535 1.247 . S
O545 Co532 2.244 . S
O545 C535 1.272 . S
O545 Co537 2.135 . S
Co546 O547 2.216 . S
Co546 O548 2.091 . S
Co546 O550 2.004 . S
Co546 O556 2.021 . S
Co546 O558 2.137 . S
Co546 O559 2.244 . S
O547 Co546 2.216 . S
O547 C554 1.247 . S
O548 Co546 2.091 . S
O548 C554 1.261 . S
C549 O558 1.247 . S
C549 O559 1.272 . S
O550 Co546 2.004 . S
O550 C555 1.259 . S
Co551 O552 2.061 . S
Co551 O557 2.052 . S
Co551 O559 2.135 . S
O552 Co551 2.061 . S
O552 C555 1.235 . S
C553 O556 1.238 . S
C553 O557 1.241 . S
C554 O547 1.247 . S
C554 O548 1.261 . S
C555 O550 1.259 . S
C555 O552 1.235 . S
O556 Co546 2.021 . S
O556 C553 1.238 . S
O557 Co551 2.052 . S
O557 C553 1.241 . S
O558 Co546 2.137 . S
O558 C549 1.247 . S
O559 Co546 2.244 . S
O559 C549 1.272 . S
O559 Co551 2.135 . S
Co560 O561 2.216 . S
Co560 O562 2.091 . S
Co560 O564 2.004 . S
Co560 O570 2.021 . S
Co560 O572 2.137 . S
Co560 O573 2.244 . S
O561 Co560 2.216 . S
O561 C568 1.247 . S
O562 Co560 2.091 . S
O562 C568 1.261 . S
C563 O572 1.247 . S
C563 O573 1.272 . S
O564 Co560 2.004 . S
O564 C569 1.259 . S
Co565 O566 2.061 . S
Co565 O571 2.052 . S
Co565 O573 2.135 . S
O566 Co565 2.061 . S
O566 C569 1.235 . S
C567 O570 1.238 . S
C567 O571 1.241 . S
C568 O561 1.247 . S
C568 O562 1.261 . S
C569 O564 1.259 . S
C569 O566 1.235 . S
O570 Co560 2.021 . S
O570 C567 1.238 . S
O571 Co565 2.052 . S
O571 C567 1.241 . S
O572 Co560 2.137 . S
O572 C563 1.247 . S
O573 Co560 2.244 . S
O573 C563 1.272 . S
O573 Co565 2.135 . S
Co574 O575 2.216 . S
Co574 O576 2.091 . S
Co574 O578 2.004 . S
Co574 O584 2.021 . S
Co574 O586 2.137 . S
Co574 O587 2.244 . S
O575 Co574 2.216 . S
O575 C582 1.247 . S
O576 Co574 2.091 . S
O576 C582 1.261 . S
C577 O586 1.247 . S
C577 O587 1.272 . S
O578 Co574 2.004 . S
O578 C583 1.259 . S
Co579 O580 2.061 . S
Co579 O585 2.052 . S
Co579 O587 2.135 . S
O580 Co579 2.061 . S
O580 C583 1.235 . S
C581 O584 1.238 . S
C581 O585 1.241 . S
C582 O575 1.247 . S
C582 O576 1.261 . S
C583 O578 1.259 . S
C583 O580 1.235 . S
O584 Co574 2.021 . S
O584 C581 1.238 . S
O585 Co579 2.052 . S
O585 C581 1.241 . S
O586 Co574 2.137 . S
O586 C577 1.247 . S
O587 Co574 2.244 . S
O587 C577 1.272 . S
O587 Co579 2.135 . S
Co588 O589 2.216 . S
Co588 O590 2.091 . S
Co588 O592 2.004 . S
Co588 O598 2.021 . S
Co588 O600 2.137 . S
Co588 O601 2.244 . S
O589 Co588 2.216 . S
O589 C596 1.247 . S
O590 Co588 2.091 . S
O590 C596 1.261 . S
C591 O600 1.247 . S
C591 O601 1.272 . S
O592 Co588 2.004 . S
O592 C597 1.259 . S
Co593 O594 2.061 . S
Co593 O599 2.052 . S
Co593 O601 2.135 . S
O594 Co593 2.061 . S
O594 C597 1.235 . S
C595 O598 1.238 . S
C595 O599 1.241 . S
C596 O589 1.247 . S
C596 O590 1.261 . S
C597 O592 1.259 . S
C597 O594 1.235 . S
O598 Co588 2.021 . S
O598 C595 1.238 . S
O599 Co593 2.052 . S
O599 C595 1.241 . S
O600 Co588 2.137 . S
O600 C591 1.247 . S
O601 Co588 2.244 . S
O601 C591 1.272 . S
O601 Co593 2.135 . S
Co602 O603 2.216 . S
Co602 O604 2.091 . S
Co602 O606 2.004 . S
Co602 O612 2.021 . S
Co602 O614 2.137 . S
Co602 O615 2.244 . S
O603 Co602 2.216 . S
O603 C610 1.247 . S
O604 Co602 2.091 . S
O604 C610 1.261 . S
C605 O614 1.247 . S
C605 O615 1.272 . S
O606 Co602 2.004 . S
O606 C611 1.259 . S
Co607 O608 2.061 . S
Co607 O613 2.052 . S
Co607 O615 2.135 . S
O608 Co607 2.061 . S
O608 C611 1.235 . S
C609 O612 1.238 . S
C609 O613 1.241 . S
C610 O603 1.247 . S
C610 O604 1.261 . S
C611 O606 1.259 . S
C611 O608 1.235 . S
O612 Co602 2.021 . S
O612 C609 1.238 . S
O613 Co607 2.052 . S
O613 C609 1.241 . S
O614 Co602 2.137 . S
O614 C605 1.247 . S
O615 Co602 2.244 . S
O615 C605 1.272 . S
O615 Co607 2.135 . S
Co616 O617 2.216 . S
Co616 O618 2.091 . S
Co616 O620 2.004 . S
Co616 O626 2.021 . S
Co616 O628 2.137 . S
Co616 O629 2.244 . S
O617 Co616 2.216 . S
O617 C624 1.247 . S
O618 Co616 2.091 . S
O618 C624 1.261 . S
C619 O628 1.247 . S
C619 O629 1.272 . S
O620 Co616 2.004 . S
O620 C625 1.259 . S
Co621 O622 2.061 . S
Co621 O627 2.052 . S
Co621 O629 2.135 . S
O622 Co621 2.061 . S
O622 C625 1.235 . S
C623 O626 1.238 . S
C623 O627 1.241 . S
C624 O617 1.247 . S
C624 O618 1.261 . S
C625 O620 1.259 . S
C625 O622 1.235 . S
O626 Co616 2.021 . S
O626 C623 1.238 . S
O627 Co621 2.052 . S
O627 C623 1.241 . S
O628 Co616 2.137 . S
O628 C619 1.247 . S
O629 Co616 2.244 . S
O629 C619 1.272 . S
O629 Co621 2.135 . S
Co630 O631 2.216 . S
Co630 O632 2.091 . S
Co630 O634 2.004 . S
Co630 O640 2.021 . S
Co630 O642 2.137 . S
Co630 O643 2.244 . S
O631 Co630 2.216 . S
O631 C638 1.247 . S
O632 Co630 2.091 . S
O632 C638 1.261 . S
C633 O642 1.247 . S
C633 O643 1.272 . S
O634 Co630 2.004 . S
O634 C639 1.259 . S
Co635 O636 2.061 . S
Co635 O641 2.052 . S
Co635 O643 2.135 . S
O636 Co635 2.061 . S
O636 C639 1.235 . S
C637 O640 1.238 . S
C637 O641 1.241 . S
C638 O631 1.247 . S
C638 O632 1.261 . S
C639 O634 1.259 . S
C639 O636 1.235 . S
O640 Co630 2.021 . S
O640 C637 1.238 . S
O641 Co635 2.052 . S
O641 C637 1.241 . S
O642 Co630 2.137 . S
O642 C633 1.247 . S
O643 Co630 2.244 . S
O643 C633 1.272 . S
O643 Co635 2.135 . S
Co644 O645 2.216 . S
Co644 O646 2.091 . S
Co644 O648 2.004 . S
Co644 O654 2.021 . S
Co644 O656 2.137 . S
Co644 O657 2.244 . S
O645 Co644 2.216 . S
O645 C652 1.247 . S
O646 Co644 2.091 . S
O646 C652 1.261 . S
C647 O656 1.247 . S
C647 O657 1.272 . S
O648 Co644 2.004 . S
O648 C653 1.259 . S
Co649 O650 2.061 . S
Co649 O655 2.052 . S
Co649 O657 2.135 . S
O650 Co649 2.061 . S
O650 C653 1.235 . S
C651 O654 1.238 . S
C651 O655 1.241 . S
C652 O645 1.247 . S
C652 O646 1.261 . S
C653 O648 1.259 . S
C653 O650 1.235 . S
O654 Co644 2.021 . S
O654 C651 1.238 . S
O655 Co649 2.052 . S
O655 C651 1.241 . S
O656 Co644 2.137 . S
O656 C647 1.247 . S
O657 Co644 2.244 . S
O657 C647 1.272 . S
O657 Co649 2.135 . S
Co658 O659 2.216 . S
Co658 O660 2.091 . S
Co658 O662 2.004 . S
Co658 O668 2.021 . S
Co658 O670 2.137 . S
Co658 O671 2.244 . S
O659 Co658 2.216 . S
O659 C666 1.247 . S
O660 Co658 2.091 . S
O660 C666 1.261 . S
C661 O670 1.247 . S
C661 O671 1.272 . S
O662 Co658 2.004 . S
O662 C667 1.259 . S
Co663 O664 2.061 . S
Co663 O669 2.052 . S
Co663 O671 2.135 . S
O664 Co663 2.061 . S
O664 C667 1.235 . S
C665 O668 1.238 . S
C665 O669 1.241 . S
C666 O659 1.247 . S
C666 O660 1.261 . S
C667 O662 1.259 . S
C667 O664 1.235 . S
O668 Co658 2.021 . S
O668 C665 1.238 . S
O669 Co663 2.052 . S
O669 C665 1.241 . S
O670 Co658 2.137 . S
O670 C661 1.247 . S
O671 Co658 2.244 . S
O671 C661 1.272 . S
O671 Co663 2.135 . S
H672 C678 0.930 . S
H673 C681 0.930 . S
H674 C682 0.930 . S
H675 C683 0.930 . S
H676 C686 0.930 . S
H677 C687 0.930 . S
C678 H672 0.930 . S
C678 C679 1.355 . S
C678 C680 1.415 . S
C679 C678 1.355 . S
C679 C681 1.419 1_655 S
C680 C678 1.415 . S
C680 C685 1.425 1_655 S
C680 C687 1.409 . S
C681 H673 0.930 . S
C681 C679 1.419 1_455 S
C681 C682 1.362 . S
C682 H674 0.930 . S
C682 C681 1.362 . S
C682 C685 1.409 . S
C683 H675 0.930 . S
C683 C684 1.355 . S
C683 C685 1.415 . S
C684 C683 1.355 . S
C684 C686 1.419 1_455 S
C685 C680 1.425 1_455 S
C685 C682 1.409 . S
C685 C683 1.415 . S
C686 H676 0.930 . S
C686 C684 1.419 1_655 S
C686 C687 1.362 . S
C687 H677 0.930 . S
C687 C680 1.409 . S
C687 C686 1.362 . S
H688 C694 0.930 . S
H689 C697 0.930 . S
H690 C698 0.930 . S
H691 C699 0.930 . S
H692 C702 0.930 . S
H693 C703 0.930 . S
C694 H688 0.930 . S
C694 C695 1.355 . S
C694 C696 1.415 . S
C695 C694 1.355 . S
C695 C697 1.419 1_455 S
C696 C694 1.415 . S
C696 C701 1.425 1_455 S
C696 C703 1.409 . S
C697 H689 0.930 . S
C697 C695 1.419 1_655 S
C697 C698 1.362 . S
C698 H690 0.930 . S
C698 C697 1.362 . S
C698 C701 1.409 . S
C699 H691 0.930 . S
C699 C700 1.355 . S
C699 C701 1.415 . S
C700 C699 1.355 . S
C700 C702 1.419 1_655 S
C701 C696 1.425 1_655 S
C701 C698 1.409 . S
C701 C699 1.415 . S
C702 H692 0.930 . S
C702 C700 1.419 1_455 S
C702 C703 1.362 . S
C703 H693 0.930 . S
C703 C696 1.409 . S
C703 C702 1.362 . S
H704 C710 0.930 . S
H705 C713 0.930 . S
H706 C714 0.930 . S
H707 C715 0.930 . S
H708 C718 0.930 . S
H709 C719 0.930 . S
C710 H704 0.930 . S
C710 C711 1.355 . S
C710 C712 1.415 . S
C711 C710 1.355 . S
C711 C713 1.419 1_565 S
C712 C710 1.415 . S
C712 C717 1.425 1_565 S
C712 C719 1.409 . S
C713 H705 0.930 . S
C713 C711 1.419 1_545 S
C713 C714 1.362 . S
C714 H706 0.930 . S
C714 C713 1.362 . S
C714 C717 1.409 . S
C715 H707 0.930 . S
C715 C716 1.355 . S
C715 C717 1.415 . S
C716 C715 1.355 . S
C716 C718 1.419 1_545 S
C717 C712 1.425 1_545 S
C717 C714 1.409 . S
C717 C715 1.415 . S
C718 H708 0.930 . S
C718 C716 1.419 1_565 S
C718 C719 1.362 . S
C719 H709 0.930 . S
C719 C712 1.409 . S
C719 C718 1.362 . S
H720 C726 0.930 . S
H721 C729 0.930 . S
H722 C730 0.930 . S
H723 C731 0.930 . S
H724 C734 0.930 . S
H725 C735 0.930 . S
C726 H720 0.930 . S
C726 C727 1.355 . S
C726 C728 1.415 . S
C727 C726 1.355 . S
C727 C729 1.419 . S
C728 C726 1.415 . S
C728 C733 1.425 . S
C728 C735 1.409 . S
C729 H721 0.930 . S
C729 C727 1.419 . S
C729 C730 1.362 . S
C730 H722 0.930 . S
C730 C729 1.362 . S
C730 C733 1.409 . S
C731 H723 0.930 . S
C731 C732 1.355 . S
C731 C733 1.415 . S
C732 C731 1.355 . S
C732 C734 1.419 . S
C733 C728 1.425 . S
C733 C730 1.409 . S
C733 C731 1.415 . S
C734 H724 0.930 . S
C734 C732 1.419 . S
C734 C735 1.362 . S
C735 H725 0.930 . S
C735 C728 1.409 . S
C735 C734 1.362 . S
H736 C742 0.930 . S
H737 C745 0.930 . S
H738 C746 0.930 . S
H739 C747 0.930 . S
H740 C750 0.930 . S
H741 C751 0.930 . S
C742 H736 0.930 . S
C742 C743 1.355 1_556 S
C742 C744 1.415 . S
C743 C742 1.355 1_554 S
C743 C745 1.419 . S
C744 C742 1.415 . S
C744 C749 1.425 1_556 S
C744 C751 1.409 . S
C745 H737 0.930 . S
C745 C743 1.419 . S
C745 C746 1.362 . S
C746 H738 0.930 . S
C746 C745 1.362 . S
C746 C749 1.409 . S
C747 H739 0.930 . S
C747 C748 1.355 1_554 S
C747 C749 1.415 . S
C748 C747 1.355 1_556 S
C748 C750 1.419 . S
C749 C744 1.425 1_554 S
C749 C746 1.409 . S
C749 C747 1.415 . S
C750 H740 0.930 . S
C750 C748 1.419 . S
C750 C751 1.362 . S
C751 H741 0.930 . S
C751 C744 1.409 . S
C751 C750 1.362 . S
H752 C758 0.930 . S
H753 C761 0.930 . S
H754 C762 0.930 . S
H755 C763 0.930 . S
H756 C766 0.930 . S
H757 C767 0.930 . S
C758 H752 0.930 . S
C758 C759 1.355 . S
C758 C760 1.415 . S
C759 C758 1.355 . S
C759 C761 1.419 . S
C760 C758 1.415 . S
C760 C765 1.425 . S
C760 C767 1.409 . S
C761 H753 0.930 . S
C761 C759 1.419 . S
C761 C762 1.362 . S
C762 H754 0.930 . S
C762 C761 1.362 . S
C762 C765 1.409 . S
C763 H755 0.930 . S
C763 C764 1.355 . S
C763 C765 1.415 . S
C764 C763 1.355 . S
C764 C766 1.419 . S
C765 C760 1.425 . S
C765 C762 1.409 . S
C765 C763 1.415 . S
C766 H756 0.930 . S
C766 C764 1.419 . S
C766 C767 1.362 . S
C767 H757 0.930 . S
C767 C760 1.409 . S
C767 C766 1.362 . S
H768 C774 0.930 . S
H769 C777 0.930 . S
H770 C778 0.930 . S
H771 C779 0.930 . S
H772 C782 0.930 . S
H773 C783 0.930 . S
C774 H768 0.930 . S
C774 C775 1.355 . S
C774 C776 1.415 . S
C775 C774 1.355 . S
C775 C777 1.419 . S
C776 C774 1.415 . S
C776 C781 1.425 . S
C776 C783 1.409 . S
C777 H769 0.930 . S
C777 C775 1.419 . S
C777 C778 1.362 . S
C778 H770 0.930 . S
C778 C777 1.362 . S
C778 C781 1.409 . S
C779 H771 0.930 . S
C779 C780 1.355 . S
C779 C781 1.415 . S
C780 C779 1.355 . S
C780 C782 1.419 . S
C781 C776 1.425 . S
C781 C778 1.409 . S
C781 C779 1.415 . S
C782 H772 0.930 . S
C782 C780 1.419 . S
C782 C783 1.362 . S
C783 H773 0.930 . S
C783 C776 1.409 . S
C783 C782 1.362 . S
H784 C790 0.930 . S
H785 C793 0.930 . S
H786 C794 0.930 . S
H787 C795 0.930 . S
H788 C798 0.930 . S
H789 C799 0.930 . S
C790 H784 0.930 . S
C790 C791 1.355 . S
C790 C792 1.415 . S
C791 C790 1.355 . S
C791 C793 1.419 1_455 S
C792 C790 1.415 . S
C792 C797 1.425 1_455 S
C792 C799 1.409 . S
C793 H785 0.930 . S
C793 C791 1.419 1_655 S
C793 C794 1.362 . S
C794 H786 0.930 . S
C794 C793 1.362 . S
C794 C797 1.409 . S
C795 H787 0.930 . S
C795 C796 1.355 . S
C795 C797 1.415 . S
C796 C795 1.355 . S
C796 C798 1.419 1_655 S
C797 C792 1.425 1_655 S
C797 C794 1.409 . S
C797 C795 1.415 . S
C798 H788 0.930 . S
C798 C796 1.419 1_455 S
C798 C799 1.362 . S
C799 H789 0.930 . S
C799 C792 1.409 . S
C799 C798 1.362 . S
H800 C806 0.930 1_655 S
H801 C809 0.930 . S
H802 C810 0.930 . S
H803 C811 0.930 1_455 S
H804 C814 0.930 . S
H805 C815 0.930 . S
C806 H800 0.930 1_455 S
C806 C807 1.355 . S
C806 C808 1.415 1_455 S
C807 C806 1.355 . S
C807 C809 1.419 . S
C808 C806 1.415 1_655 S
C808 C813 1.425 1_655 S
C808 C815 1.409 . S
C809 H801 0.930 . S
C809 C807 1.419 . S
C809 C810 1.362 . S
C810 H802 0.930 . S
C810 C809 1.362 . S
C810 C813 1.409 . S
C811 H803 0.930 1_655 S
C811 C812 1.355 . S
C811 C813 1.415 1_655 S
C812 C811 1.355 . S
C812 C814 1.419 . S
C813 C808 1.425 1_455 S
C813 C810 1.409 . S
C813 C811 1.415 1_455 S
C814 H804 0.930 . S
C814 C812 1.419 . S
C814 C815 1.362 . S
C815 H805 0.930 . S
C815 C808 1.409 . S
C815 C814 1.362 . S
H816 C822 0.930 . S
H817 C825 0.930 . S
H818 C826 0.930 . S
H819 C827 0.930 . S
H820 C830 0.930 . S
H821 C831 0.930 . S
C822 H816 0.930 . S
C822 C823 1.355 . S
C822 C824 1.415 . S
C823 C822 1.355 . S
C823 C825 1.419 1_545 S
C824 C822 1.415 . S
C824 C829 1.425 1_545 S
C824 C831 1.409 . S
C825 H817 0.930 . S
C825 C823 1.419 1_565 S
C825 C826 1.362 . S
C826 H818 0.930 . S
C826 C825 1.362 . S
C826 C829 1.409 . S
C827 H819 0.930 . S
C827 C828 1.355 . S
C827 C829 1.415 . S
C828 C827 1.355 . S
C828 C830 1.419 1_565 S
C829 C824 1.425 1_565 S
C829 C826 1.409 . S
C829 C827 1.415 . S
C830 H820 0.930 . S
C830 C828 1.419 1_545 S
C830 C831 1.362 . S
C831 H821 0.930 . S
C831 C824 1.409 . S
C831 C830 1.362 . S
H832 C838 0.930 . S
H833 C841 0.930 . S
H834 C842 0.930 . S
H835 C843 0.930 . S
H836 C846 0.930 . S
H837 C847 0.930 . S
C838 H832 0.930 . S
C838 C839 1.355 . S
C838 C840 1.415 . S
C839 C838 1.355 . S
C839 C841 1.419 . S
C840 C838 1.415 . S
C840 C845 1.425 . S
C840 C847 1.409 . S
C841 H833 0.930 . S
C841 C839 1.419 . S
C841 C842 1.362 . S
C842 H834 0.930 . S
C842 C841 1.362 . S
C842 C845 1.409 . S
C843 H835 0.930 . S
C843 C844 1.355 . S
C843 C845 1.415 . S
C844 C843 1.355 . S
C844 C846 1.419 . S
C845 C840 1.425 . S
C845 C842 1.409 . S
C845 C843 1.415 . S
C846 H836 0.930 . S
C846 C844 1.419 . S
C846 C847 1.362 . S
C847 H837 0.930 . S
C847 C840 1.409 . S
C847 C846 1.362 . S
H848 C854 0.930 . S
H849 C857 0.930 . S
H850 C858 0.930 . S
H851 C859 0.930 . S
H852 C862 0.930 . S
H853 C863 0.930 . S
C854 H848 0.930 . S
C854 C855 1.355 1_554 S
C854 C856 1.415 . S
C855 C854 1.355 1_556 S
C855 C857 1.419 . S
C856 C854 1.415 . S
C856 C861 1.425 1_554 S
C856 C863 1.409 . S
C857 H849 0.930 . S
C857 C855 1.419 . S
C857 C858 1.362 . S
C858 H850 0.930 . S
C858 C857 1.362 . S
C858 C861 1.409 . S
C859 H851 0.930 . S
C859 C860 1.355 1_556 S
C859 C861 1.415 . S
C860 C859 1.355 1_554 S
C860 C862 1.419 . S
C861 C856 1.425 1_556 S
C861 C858 1.409 . S
C861 C859 1.415 . S
C862 H852 0.930 . S
C862 C860 1.419 . S
C862 C863 1.362 . S
C863 H853 0.930 . S
C863 C856 1.409 . S
C863 C862 1.362 . S
H864 C870 0.930 . S
H865 C873 0.930 . S
H866 C874 0.930 . S
H867 C875 0.930 . S
H868 C878 0.930 . S
H869 C879 0.930 . S
C870 H864 0.930 . S
C870 C871 1.355 . S
C870 C872 1.415 . S
C871 C870 1.355 . S
C871 C873 1.419 . S
C872 C870 1.415 . S
C872 C877 1.425 . S
C872 C879 1.409 . S
C873 H865 0.930 . S
C873 C871 1.419 . S
C873 C874 1.362 . S
C874 H866 0.930 . S
C874 C873 1.362 . S
C874 C877 1.409 . S
C875 H867 0.930 . S
C875 C876 1.355 . S
C875 C877 1.415 . S
C876 C875 1.355 . S
C876 C878 1.419 . S
C877 C872 1.425 . S
C877 C874 1.409 . S
C877 C875 1.415 . S
C878 H868 0.930 . S
C878 C876 1.419 . S
C878 C879 1.362 . S
C879 H869 0.930 . S
C879 C872 1.409 . S
C879 C878 1.362 . S
H880 C886 0.930 . S
H881 C889 0.930 . S
H882 C890 0.930 . S
H883 C891 0.930 . S
H884 C894 0.930 . S
H885 C895 0.930 . S
C886 H880 0.930 . S
C886 C887 1.355 . S
C886 C888 1.415 . S
C887 C886 1.355 . S
C887 C889 1.419 . S
C888 C886 1.415 . S
C888 C893 1.425 . S
C888 C895 1.409 . S
C889 H881 0.930 . S
C889 C887 1.419 . S
C889 C890 1.362 . S
C890 H882 0.930 . S
C890 C889 1.362 . S
C890 C893 1.409 . S
C891 H883 0.930 . S
C891 C892 1.355 . S
C891 C893 1.415 . S
C892 C891 1.355 . S
C892 C894 1.419 . S
C893 C888 1.425 . S
C893 C890 1.409 . S
C893 C891 1.415 . S
C894 H884 0.930 . S
C894 C892 1.419 . S
C894 C895 1.362 . S
C895 H885 0.930 . S
C895 C888 1.409 . S
C895 C894 1.362 . S
H896 C902 0.930 . S
H897 C905 0.930 . S
H898 C906 0.930 . S
H899 C907 0.930 . S
H900 C910 0.930 . S
H901 C911 0.930 . S
C902 H896 0.930 . S
C902 C903 1.355 . S
C902 C904 1.415 . S
C903 C902 1.355 . S
C903 C905 1.419 . S
C904 C902 1.415 . S
C904 C909 1.425 . S
C904 C911 1.409 . S
C905 H897 0.930 . S
C905 C903 1.419 . S
C905 C906 1.362 . S
C906 H898 0.930 . S
C906 C905 1.362 . S
C906 C909 1.409 . S
C907 H899 0.930 . S
C907 C908 1.355 . S
C907 C909 1.415 . S
C908 C907 1.355 . S
C908 C910 1.419 . S
C909 C904 1.425 . S
C909 C906 1.409 . S
C909 C907 1.415 . S
C910 H900 0.930 . S
C910 C908 1.419 . S
C910 C911 1.362 . S
C911 H901 0.930 . S
C911 C904 1.409 . S
C911 C910 1.362 . S
H912 C918 0.930 . S
H913 C921 0.930 . S
H914 C922 0.930 . S
H915 C923 0.930 . S
H916 C926 0.930 . S
H917 C927 0.930 . S
C918 H912 0.930 . S
C918 C919 1.355 . S
C918 C920 1.415 . S
C919 C918 1.355 . S
C919 C921 1.419 . S
C920 C918 1.415 . S
C920 C925 1.425 . S
C920 C927 1.409 . S
C921 H913 0.930 . S
C921 C919 1.419 . S
C921 C922 1.362 . S
C922 H914 0.930 . S
C922 C921 1.362 . S
C922 C925 1.409 . S
C923 H915 0.930 . S
C923 C924 1.355 . S
C923 C925 1.415 . S
C924 C923 1.355 . S
C924 C926 1.419 . S
C925 C920 1.425 . S
C925 C922 1.409 . S
C925 C923 1.415 . S
C926 H916 0.930 . S
C926 C924 1.419 . S
C926 C927 1.362 . S
C927 H917 0.930 . S
C927 C920 1.409 . S
C927 C926 1.362 . S
H928 C934 0.930 . S
H929 C937 0.930 . S
H930 C938 0.930 . S
H931 C939 0.930 . S
H932 C942 0.930 . S
H933 C943 0.930 . S
C934 H928 0.930 . S
C934 C935 1.355 . S
C934 C936 1.415 . S
C935 C934 1.355 . S
C935 C937 1.419 . S
C936 C934 1.415 . S
C936 C941 1.425 . S
C936 C943 1.409 . S
C937 H929 0.930 . S
C937 C935 1.419 . S
C937 C938 1.362 . S
C938 H930 0.930 . S
C938 C937 1.362 . S
C938 C941 1.409 . S
C939 H931 0.930 . S
C939 C940 1.355 . S
C939 C941 1.415 . S
C940 C939 1.355 . S
C940 C942 1.419 . S
C941 C936 1.425 . S
C941 C938 1.409 . S
C941 C939 1.415 . S
C942 H932 0.930 . S
C942 C940 1.419 . S
C942 C943 1.362 . S
C943 H933 0.930 . S
C943 C936 1.409 . S
C943 C942 1.362 . S
H944 C950 0.930 . S
H945 C953 0.930 . S
H946 C954 0.930 . S
H947 C955 0.930 . S
H948 C958 0.930 . S
H949 C959 0.930 . S
C950 H944 0.930 . S
C950 C951 1.355 1_565 S
C950 C952 1.415 . S
C951 C950 1.355 1_545 S
C951 C953 1.419 . S
C952 C950 1.415 . S
C952 C957 1.425 1_565 S
C952 C959 1.409 . S
C953 H945 0.930 . S
C953 C951 1.419 . S
C953 C954 1.362 . S
C954 H946 0.930 . S
C954 C953 1.362 . S
C954 C957 1.409 . S
C955 H947 0.930 . S
C955 C956 1.355 1_545 S
C955 C957 1.415 . S
C956 C955 1.355 1_565 S
C956 C958 1.419 . S
C957 C952 1.425 1_545 S
C957 C954 1.409 . S
C957 C955 1.415 . S
C958 H948 0.930 . S
C958 C956 1.419 . S
C958 C959 1.362 . S
C959 H949 0.930 . S
C959 C952 1.409 . S
C959 C958 1.362 . S
H960 C966 0.930 . S
H961 C969 0.930 . S
H962 C970 0.930 . S
H963 C971 0.930 . S
H964 C974 0.930 . S
H965 C975 0.930 . S
C966 H960 0.930 . S
C966 C967 1.355 . S
C966 C968 1.425 . S
C967 C966 1.355 . S
C967 C969 1.419 . S
C968 C966 1.425 . S
C968 C973 1.422 1_554 S
C968 C975 1.403 1_554 S
C969 H961 0.930 . S
C969 C967 1.419 . S
C969 C970 1.362 . S
C970 H962 0.930 . S
C970 C969 1.362 . S
C970 C973 1.403 1_554 S
C971 H963 0.930 . S
C971 C972 1.355 . S
C971 C973 1.425 . S
C972 C971 1.355 . S
C972 C974 1.419 . S
C973 C968 1.422 1_556 S
C973 C970 1.403 1_556 S
C973 C971 1.425 . S
C974 H964 0.930 . S
C974 C972 1.419 . S
C974 C975 1.362 . S
C975 H965 0.930 . S
C975 C968 1.403 1_556 S
C975 C974 1.362 . S
H976 C982 0.930 . S
H977 C985 0.930 . S
H978 C986 0.930 . S
H979 C987 0.930 . S
H980 C990 0.930 . S
H981 C991 0.930 . S
C982 H976 0.930 . S
C982 C983 1.355 . S
C982 C984 1.415 . S
C983 C982 1.355 . S
C983 C985 1.419 . S
C984 C982 1.415 . S
C984 C989 1.425 . S
C984 C991 1.409 . S
C985 H977 0.930 . S
C985 C983 1.419 . S
C985 C986 1.362 . S
C986 H978 0.930 . S
C986 C985 1.362 . S
C986 C989 1.409 . S
C987 H979 0.930 . S
C987 C988 1.355 . S
C987 C989 1.415 . S
C988 C987 1.355 . S
C988 C990 1.419 . S
C989 C984 1.425 . S
C989 C986 1.409 . S
C989 C987 1.415 . S
C990 H980 0.930 . S
C990 C988 1.419 . S
C990 C991 1.362 . S
C991 H981 0.930 . S
C991 C984 1.409 . S
C991 C990 1.362 . S
H992 C998 0.930 . S
H993 C1001 0.930 . S
H994 C1002 0.930 . S
H995 C1003 0.930 . S
H996 C1006 0.930 . S
H997 C1007 0.930 . S
C998 H992 0.930 . S
C998 C999 1.355 . S
C998 C1000 1.415 . S
C999 C998 1.355 . S
C999 C1001 1.419 . S
C1000 C998 1.415 . S
C1000 C1005 1.425 . S
C1000 C1007 1.409 . S
C1001 H993 0.930 . S
C1001 C999 1.419 . S
C1001 C1002 1.362 . S
C1002 H994 0.930 . S
C1002 C1001 1.362 . S
C1002 C1005 1.409 . S
C1003 H995 0.930 . S
C1003 C1004 1.355 . S
C1003 C1005 1.415 . S
C1004 C1003 1.355 . S
C1004 C1006 1.419 . S
C1005 C1000 1.425 . S
C1005 C1002 1.409 . S
C1005 C1003 1.415 . S
C1006 H996 0.930 . S
C1006 C1004 1.419 . S
C1006 C1007 1.362 . S
C1007 H997 0.930 . S
C1007 C1000 1.409 . S
C1007 C1006 1.362 . S
H1008 C1014 0.930 . S
H1009 C1017 0.930 . S
H1010 C1018 0.930 . S
H1011 C1019 0.930 . S
H1012 C1022 0.930 . S
H1013 C1023 0.930 . S
C1014 H1008 0.930 . S
C1014 C1015 1.355 . S
C1014 C1016 1.415 . S
C1015 C1014 1.355 . S
C1015 C1017 1.419 . S
C1016 C1014 1.415 . S
C1016 C1021 1.425 . S
C1016 C1023 1.409 . S
C1017 H1009 0.930 . S
C1017 C1015 1.419 . S
C1017 C1018 1.362 . S
C1018 H1010 0.930 . S
C1018 C1017 1.362 . S
C1018 C1021 1.409 . S
C1019 H1011 0.930 . S
C1019 C1020 1.355 . S
C1019 C1021 1.415 . S
C1020 C1019 1.355 . S
C1020 C1022 1.419 . S
C1021 C1016 1.425 . S
C1021 C1018 1.409 . S
C1021 C1019 1.415 . S
C1022 H1012 0.930 . S
C1022 C1020 1.419 . S
C1022 C1023 1.362 . S
C1023 H1013 0.930 . S
C1023 C1016 1.409 . S
C1023 C1022 1.362 . S
H1024 C1030 0.930 . S
H1025 C1033 0.930 . S
H1026 C1034 0.930 . S
H1027 C1035 0.930 . S
H1028 C1038 0.930 . S
H1029 C1039 0.930 . S
C1030 H1024 0.930 . S
C1030 C1031 1.355 . S
C1030 C1032 1.415 . S
C1031 C1030 1.355 . S
C1031 C1033 1.419 1_545 S
C1032 C1030 1.415 . S
C1032 C1037 1.425 1_545 S
C1032 C1039 1.409 . S
C1033 H1025 0.930 . S
C1033 C1031 1.419 1_565 S
C1033 C1034 1.362 . S
C1034 H1026 0.930 . S
C1034 C1033 1.362 . S
C1034 C1037 1.409 . S
C1035 H1027 0.930 . S
C1035 C1036 1.355 . S
C1035 C1037 1.415 . S
C1036 C1035 1.355 . S
C1036 C1038 1.419 1_565 S
C1037 C1032 1.425 1_565 S
C1037 C1034 1.409 . S
C1037 C1035 1.415 . S
C1038 H1028 0.930 . S
C1038 C1036 1.419 1_545 S
C1038 C1039 1.362 . S
C1039 H1029 0.930 . S
C1039 C1032 1.409 . S
C1039 C1038 1.362 . S
H1040 C1046 0.930 . S
H1041 C1049 0.930 . S
H1042 C1050 0.930 . S
H1043 C1051 0.930 . S
H1044 C1054 0.930 . S
H1045 C1055 0.930 . S
C1046 H1040 0.930 . S
C1046 C1047 1.355 . S
C1046 C1048 1.415 . S
C1047 C1046 1.355 . S
C1047 C1049 1.419 1_554 S
C1048 C1046 1.415 . S
C1048 C1053 1.425 1_554 S
C1048 C1055 1.409 . S
C1049 H1041 0.930 . S
C1049 C1047 1.419 1_556 S
C1049 C1050 1.362 . S
C1050 H1042 0.930 . S
C1050 C1049 1.362 . S
C1050 C1053 1.409 . S
C1051 H1043 0.930 . S
C1051 C1052 1.355 . S
C1051 C1053 1.415 . S
C1052 C1051 1.355 . S
C1052 C1054 1.419 1_556 S
C1053 C1048 1.425 1_556 S
C1053 C1050 1.409 . S
C1053 C1051 1.415 . S
C1054 H1044 0.930 . S
C1054 C1052 1.419 1_554 S
C1054 C1055 1.362 . S
C1055 H1045 0.930 . S
C1055 C1048 1.409 . S
C1055 C1054 1.362 . S
H1056 C1062 0.930 . S
H1057 C1065 0.930 . S
H1058 C1066 0.930 . S
H1059 C1067 0.930 . S
H1060 C1070 0.930 . S
H1061 C1071 0.930 . S
C1062 H1056 0.930 . S
C1062 C1063 1.355 . S
C1062 C1064 1.415 . S
C1063 C1062 1.355 . S
C1063 C1065 1.419 . S
C1064 C1062 1.415 . S
C1064 C1069 1.425 . S
C1064 C1071 1.409 . S
C1065 H1057 0.930 . S
C1065 C1063 1.419 . S
C1065 C1066 1.362 . S
C1066 H1058 0.930 . S
C1066 C1065 1.362 . S
C1066 C1069 1.409 . S
C1067 H1059 0.930 . S
C1067 C1068 1.355 . S
C1067 C1069 1.415 . S
C1068 C1067 1.355 . S
C1068 C1070 1.419 . S
C1069 C1064 1.425 . S
C1069 C1066 1.409 . S
C1069 C1067 1.415 . S
C1070 H1060 0.930 . S
C1070 C1068 1.419 . S
C1070 C1071 1.362 . S
C1071 H1061 0.930 . S
C1071 C1064 1.409 . S
C1071 C1070 1.362 . S
H1072 C1078 0.930 . S
H1073 C1081 0.930 . S
H1074 C1082 0.930 . S
H1075 C1083 0.930 . S
H1076 C1086 0.930 . S
H1077 C1087 0.930 . S
C1078 H1072 0.930 . S
C1078 C1079 1.355 . S
C1078 C1080 1.415 . S
C1079 C1078 1.355 . S
C1079 C1081 1.419 . S
C1080 C1078 1.415 . S
C1080 C1085 1.425 . S
C1080 C1087 1.409 . S
C1081 H1073 0.930 . S
C1081 C1079 1.419 . S
C1081 C1082 1.362 . S
C1082 H1074 0.930 . S
C1082 C1081 1.362 . S
C1082 C1085 1.409 . S
C1083 H1075 0.930 . S
C1083 C1084 1.355 . S
C1083 C1085 1.415 . S
C1084 C1083 1.355 . S
C1084 C1086 1.419 . S
C1085 C1080 1.425 . S
C1085 C1082 1.409 . S
C1085 C1083 1.415 . S
C1086 H1076 0.930 . S
C1086 C1084 1.419 . S
C1086 C1087 1.362 . S
C1087 H1077 0.930 . S
C1087 C1080 1.409 . S
C1087 C1086 1.362 . S
H1088 C1094 0.930 . S
H1089 C1097 0.930 . S
H1090 C1098 0.930 . S
H1091 C1099 0.930 . S
H1092 C1102 0.930 . S
H1093 C1103 0.930 . S
C1094 H1088 0.930 . S
C1094 C1095 1.355 . S
C1094 C1096 1.415 . S
C1095 C1094 1.355 . S
C1095 C1097 1.419 . S
C1096 C1094 1.415 . S
C1096 C1101 1.425 . S
C1096 C1103 1.409 . S
C1097 H1089 0.930 . S
C1097 C1095 1.419 . S
C1097 C1098 1.362 . S
C1098 H1090 0.930 . S
C1098 C1097 1.362 . S
C1098 C1101 1.409 . S
C1099 H1091 0.930 . S
C1099 C1100 1.355 . S
C1099 C1101 1.415 . S
C1100 C1099 1.355 . S
C1100 C1102 1.419 . S
C1101 C1096 1.425 . S
C1101 C1098 1.409 . S
C1101 C1099 1.415 . S
C1102 H1092 0.930 . S
C1102 C1100 1.419 . S
C1102 C1103 1.362 . S
C1103 H1093 0.930 . S
C1103 C1096 1.409 . S
C1103 C1102 1.362 . S
H1104 C1110 0.930 . S
H1105 C1113 0.930 . S
H1106 C1114 0.930 . S
H1107 C1115 0.930 . S
H1108 C1118 0.930 . S
H1109 C1119 0.930 . S
C1110 H1104 0.930 . S
C1110 C1111 1.355 . S
C1110 C1112 1.415 . S
C1111 C1110 1.355 . S
C1111 C1113 1.419 . S
C1112 C1110 1.415 . S
C1112 C1117 1.425 . S
C1112 C1119 1.409 . S
C1113 H1105 0.930 . S
C1113 C1111 1.419 . S
C1113 C1114 1.362 . S
C1114 H1106 0.930 . S
C1114 C1113 1.362 . S
C1114 C1117 1.409 . S
C1115 H1107 0.930 . S
C1115 C1116 1.355 . S
C1115 C1117 1.415 . S
C1116 C1115 1.355 . S
C1116 C1118 1.419 . S
C1117 C1112 1.425 . S
C1117 C1114 1.409 . S
C1117 C1115 1.415 . S
C1118 H1108 0.930 . S
C1118 C1116 1.419 . S
C1118 C1119 1.362 . S
C1119 H1109 0.930 . S
C1119 C1112 1.409 . S
C1119 C1118 1.362 . S
H1120 C1126 0.930 . S
H1121 C1129 0.930 . S
H1122 C1130 0.930 . S
H1123 C1131 0.930 . S
H1124 C1134 0.930 . S
H1125 C1135 0.930 . S
C1126 H1120 0.930 . S
C1126 C1127 1.355 . S
C1126 C1128 1.415 . S
C1127 C1126 1.355 . S
C1127 C1129 1.419 . S
C1128 C1126 1.415 . S
C1128 C1133 1.425 . S
C1128 C1135 1.409 . S
C1129 H1121 0.930 . S
C1129 C1127 1.419 . S
C1129 C1130 1.362 . S
C1130 H1122 0.930 . S
C1130 C1129 1.362 . S
C1130 C1133 1.409 . S
C1131 H1123 0.930 . S
C1131 C1132 1.355 . S
C1131 C1133 1.415 . S
C1132 C1131 1.355 . S
C1132 C1134 1.419 . S
C1133 C1128 1.425 . S
C1133 C1130 1.409 . S
C1133 C1131 1.415 . S
C1134 H1124 0.930 . S
C1134 C1132 1.419 . S
C1134 C1135 1.362 . S
C1135 H1125 0.930 . S
C1135 C1128 1.409 . S
C1135 C1134 1.362 . S
H1136 C1142 0.930 . S
H1137 C1145 0.930 . S
H1138 C1146 0.930 . S
H1139 C1147 0.930 . S
H1140 C1150 0.930 . S
H1141 C1151 0.930 . S
C1142 H1136 0.930 . S
C1142 C1143 1.355 . S
C1142 C1144 1.415 . S
C1143 C1142 1.355 . S
C1143 C1145 1.419 . S
C1144 C1142 1.415 . S
C1144 C1149 1.425 . S
C1144 C1151 1.409 . S
C1145 H1137 0.930 . S
C1145 C1143 1.419 . S
C1145 C1146 1.362 . S
C1146 H1138 0.930 . S
C1146 C1145 1.362 . S
C1146 C1149 1.409 . S
C1147 H1139 0.930 . S
C1147 C1148 1.355 . S
C1147 C1149 1.415 . S
C1148 C1147 1.355 . S
C1148 C1150 1.419 . S
C1149 C1144 1.425 . S
C1149 C1146 1.409 . S
C1149 C1147 1.415 . S
C1150 H1140 0.930 . S
C1150 C1148 1.419 . S
C1150 C1151 1.362 . S
C1151 H1141 0.930 . S
C1151 C1144 1.409 . S
C1151 C1150 1.362 . S
H1152 C1158 0.930 . S
H1153 C1161 0.930 . S
H1154 C1162 0.930 . S
H1155 C1163 0.930 . S
H1156 C1166 0.930 . S
H1157 C1167 0.930 . S
C1158 H1152 0.930 . S
C1158 C1159 1.355 . S
C1158 C1160 1.415 . S
C1159 C1158 1.355 . S
C1159 C1161 1.419 . S
C1160 C1158 1.415 . S
C1160 C1165 1.425 . S
C1160 C1167 1.409 . S
C1161 H1153 0.930 . S
C1161 C1159 1.419 . S
C1161 C1162 1.362 . S
C1162 H1154 0.930 . S
C1162 C1161 1.362 . S
C1162 C1165 1.409 . S
C1163 H1155 0.930 . S
C1163 C1164 1.355 . S
C1163 C1165 1.415 . S
C1164 C1163 1.355 . S
C1164 C1166 1.419 . S
C1165 C1160 1.425 . S
C1165 C1162 1.409 . S
C1165 C1163 1.415 . S
C1166 H1156 0.930 . S
C1166 C1164 1.419 . S
C1166 C1167 1.362 . S
C1167 H1157 0.930 . S
C1167 C1160 1.409 . S
C1167 C1166 1.362 . S
H1168 C1174 0.930 . S
H1169 C1177 0.930 . S
H1170 C1178 0.930 . S
H1171 C1179 0.930 . S
H1172 C1182 0.930 . S
H1173 C1183 0.930 . S
C1174 H1168 0.930 . S
C1174 C1175 1.355 . S
C1174 C1176 1.415 . S
C1175 C1174 1.355 . S
C1175 C1177 1.419 . S
C1176 C1174 1.415 . S
C1176 C1181 1.425 . S
C1176 C1183 1.409 . S
C1177 H1169 0.930 . S
C1177 C1175 1.419 . S
C1177 C1178 1.362 . S
C1178 H1170 0.930 . S
C1178 C1177 1.362 . S
C1178 C1181 1.409 . S
C1179 H1171 0.930 . S
C1179 C1180 1.355 . S
C1179 C1181 1.415 . S
C1180 C1179 1.355 . S
C1180 C1182 1.419 . S
C1181 C1176 1.425 . S
C1181 C1178 1.409 . S
C1181 C1179 1.415 . S
C1182 H1172 0.930 . S
C1182 C1180 1.419 . S
C1182 C1183 1.362 . S
C1183 H1173 0.930 . S
C1183 C1176 1.409 . S
C1183 C1182 1.362 . S
H1184 C1190 0.930 . S
H1185 C1193 0.930 . S
H1186 C1194 0.930 . S
H1187 C1195 0.930 . S
H1188 C1198 0.930 . S
H1189 C1199 0.930 . S
C1190 H1184 0.930 . S
C1190 C1191 1.355 . S
C1190 C1192 1.415 . S
C1191 C1190 1.355 . S
C1191 C1193 1.419 . S
C1192 C1190 1.415 . S
C1192 C1197 1.425 . S
C1192 C1199 1.409 . S
C1193 H1185 0.930 . S
C1193 C1191 1.419 . S
C1193 C1194 1.362 . S
C1194 H1186 0.930 . S
C1194 C1193 1.362 . S
C1194 C1197 1.409 . S
C1195 H1187 0.930 . S
C1195 C1196 1.355 . S
C1195 C1197 1.415 . S
C1196 C1195 1.355 . S
C1196 C1198 1.419 . S
C1197 C1192 1.425 . S
C1197 C1194 1.409 . S
C1197 C1195 1.415 . S
C1198 H1188 0.930 . S
C1198 C1196 1.419 . S
C1198 C1199 1.362 . S
C1199 H1189 0.930 . S
C1199 C1192 1.409 . S
C1199 C1198 1.362 . S
H1200 C1206 0.930 . S
H1201 C1209 0.930 . S
H1202 C1210 0.930 . S
H1203 C1211 0.930 . S
H1204 C1214 0.930 . S
H1205 C1215 0.930 . S
C1206 H1200 0.930 . S
C1206 C1207 1.355 . S
C1206 C1208 1.415 . S
C1207 C1206 1.355 . S
C1207 C1209 1.419 . S
C1208 C1206 1.415 . S
C1208 C1213 1.425 . S
C1208 C1215 1.409 . S
C1209 H1201 0.930 . S
C1209 C1207 1.419 . S
C1209 C1210 1.362 . S
C1210 H1202 0.930 . S
C1210 C1209 1.362 . S
C1210 C1213 1.409 . S
C1211 H1203 0.930 . S
C1211 C1212 1.355 . S
C1211 C1213 1.415 . S
C1212 C1211 1.355 . S
C1212 C1214 1.419 . S
C1213 C1208 1.425 . S
C1213 C1210 1.409 . S
C1213 C1211 1.415 . S
C1214 H1204 0.930 . S
C1214 C1212 1.419 . S
C1214 C1215 1.362 . S
C1215 H1205 0.930 . S
C1215 C1208 1.409 . S
C1215 C1214 1.362 . S
H1216 C1222 0.930 . S
H1217 C1225 0.930 . S
H1218 C1226 0.930 . S
H1219 C1227 0.930 . S
H1220 C1230 0.930 . S
H1221 C1231 0.930 . S
C1222 H1216 0.930 . S
C1222 C1223 1.355 . S
C1222 C1224 1.415 . S
C1223 C1222 1.355 . S
C1223 C1225 1.419 . S
C1224 C1222 1.415 . S
C1224 C1229 1.425 . S
C1224 C1231 1.409 . S
C1225 H1217 0.930 . S
C1225 C1223 1.419 . S
C1225 C1226 1.362 . S
C1226 H1218 0.930 . S
C1226 C1225 1.362 . S
C1226 C1229 1.409 . S
C1227 H1219 0.930 . S
C1227 C1228 1.355 . S
C1227 C1229 1.415 . S
C1228 C1227 1.355 . S
C1228 C1230 1.419 . S
C1229 C1224 1.425 . S
C1229 C1226 1.409 . S
C1229 C1227 1.415 . S
C1230 H1220 0.930 . S
C1230 C1228 1.419 . S
C1230 C1231 1.362 . S
C1231 H1221 0.930 . S
C1231 C1224 1.409 . S
C1231 C1230 1.362 . S
H1232 C1238 0.930 . S
H1233 C1241 0.930 . S
H1234 C1242 0.930 . S
H1235 C1243 0.930 . S
H1236 C1246 0.930 . S
H1237 C1247 0.930 . S
C1238 H1232 0.930 . S
C1238 C1239 1.355 . S
C1238 C1240 1.415 . S
C1239 C1238 1.355 . S
C1239 C1241 1.419 . S
C1240 C1238 1.415 . S
C1240 C1245 1.425 . S
C1240 C1247 1.409 . S
C1241 H1233 0.930 . S
C1241 C1239 1.419 . S
C1241 C1242 1.362 . S
C1242 H1234 0.930 . S
C1242 C1241 1.362 . S
C1242 C1245 1.409 . S
C1243 H1235 0.930 . S
C1243 C1244 1.355 . S
C1243 C1245 1.415 . S
C1244 C1243 1.355 . S
C1244 C1246 1.419 . S
C1245 C1240 1.425 . S
C1245 C1242 1.409 . S
C1245 C1243 1.415 . S
C1246 H1236 0.930 . S
C1246 C1244 1.419 . S
C1246 C1247 1.362 . S
C1247 H1237 0.930 . S
C1247 C1240 1.409 . S
C1247 C1246 1.362 . S
H1248 C1254 0.930 . S
H1249 C1257 0.930 . S
H1250 C1258 0.930 . S
H1251 C1259 0.930 . S
H1252 C1262 0.930 . S
H1253 C1263 0.930 . S
C1254 H1248 0.930 . S
C1254 C1255 1.355 . S
C1254 C1256 1.415 . S
C1255 C1254 1.355 . S
C1255 C1257 1.419 . S
C1256 C1254 1.415 . S
C1256 C1261 1.425 . S
C1256 C1263 1.409 . S
C1257 H1249 0.930 . S
C1257 C1255 1.419 . S
C1257 C1258 1.362 . S
C1258 H1250 0.930 . S
C1258 C1257 1.362 . S
C1258 C1261 1.409 . S
C1259 H1251 0.930 . S
C1259 C1260 1.355 . S
C1259 C1261 1.415 . S
C1260 C1259 1.355 . S
C1260 C1262 1.419 . S
C1261 C1256 1.425 . S
C1261 C1258 1.409 . S
C1261 C1259 1.415 . S
C1262 H1252 0.930 . S
C1262 C1260 1.419 . S
C1262 C1263 1.362 . S
C1263 H1253 0.930 . S
C1263 C1256 1.409 . S
C1263 C1262 1.362 . S
H1264 C1270 0.930 . S
H1265 C1273 0.930 . S
H1266 C1274 0.930 . S
H1267 C1275 0.930 . S
H1268 C1278 0.930 . S
H1269 C1279 0.930 . S
C1270 H1264 0.930 . S
C1270 C1271 1.355 . S
C1270 C1272 1.415 . S
C1271 C1270 1.355 . S
C1271 C1273 1.419 . S
C1272 C1270 1.415 . S
C1272 C1277 1.425 . S
C1272 C1279 1.409 . S
C1273 H1265 0.930 . S
C1273 C1271 1.419 . S
C1273 C1274 1.362 . S
C1274 H1266 0.930 . S
C1274 C1273 1.362 . S
C1274 C1277 1.409 . S
C1275 H1267 0.930 . S
C1275 C1276 1.355 . S
C1275 C1277 1.415 . S
C1276 C1275 1.355 . S
C1276 C1278 1.419 . S
C1277 C1272 1.425 . S
C1277 C1274 1.409 . S
C1277 C1275 1.415 . S
C1278 H1268 0.930 . S
C1278 C1276 1.419 . S
C1278 C1279 1.362 . S
C1279 H1269 0.930 . S
C1279 C1272 1.409 . S
C1279 C1278 1.362 . S
H1280 C1286 0.930 . S
H1281 C1289 0.930 . S
H1282 C1290 0.930 . S
H1283 C1291 0.930 . S
H1284 C1294 0.930 . S
H1285 C1295 0.930 . S
C1286 H1280 0.930 . S
C1286 C1287 1.355 . S
C1286 C1288 1.415 . S
C1287 C1286 1.355 . S
C1287 C1289 1.419 . S
C1288 C1286 1.415 . S
C1288 C1293 1.425 . S
C1288 C1295 1.409 . S
C1289 H1281 0.930 . S
C1289 C1287 1.419 . S
C1289 C1290 1.362 . S
C1290 H1282 0.930 . S
C1290 C1289 1.362 . S
C1290 C1293 1.409 . S
C1291 H1283 0.930 . S
C1291 C1292 1.355 . S
C1291 C1293 1.415 . S
C1292 C1291 1.355 . S
C1292 C1294 1.419 . S
C1293 C1288 1.425 . S
C1293 C1290 1.409 . S
C1293 C1291 1.415 . S
C1294 H1284 0.930 . S
C1294 C1292 1.419 . S
C1294 C1295 1.362 . S
C1295 H1285 0.930 . S
C1295 C1288 1.409 . S
C1295 C1294 1.362 . S
H1296 C1302 0.930 . S
H1297 C1305 0.930 . S
H1298 C1306 0.930 . S
H1299 C1307 0.930 . S
H1300 C1310 0.930 . S
H1301 C1311 0.930 . S
C1302 H1296 0.930 . S
C1302 C1303 1.355 . S
C1302 C1304 1.415 . S
C1303 C1302 1.355 . S
C1303 C1305 1.419 . S
C1304 C1302 1.415 . S
C1304 C1309 1.425 . S
C1304 C1311 1.409 . S
C1305 H1297 0.930 . S
C1305 C1303 1.419 . S
C1305 C1306 1.362 . S
C1306 H1298 0.930 . S
C1306 C1305 1.362 . S
C1306 C1309 1.409 . S
C1307 H1299 0.930 . S
C1307 C1308 1.355 . S
C1307 C1309 1.415 . S
C1308 C1307 1.355 . S
C1308 C1310 1.419 . S
C1309 C1304 1.425 . S
C1309 C1306 1.409 . S
C1309 C1307 1.415 . S
C1310 H1300 0.930 . S
C1310 C1308 1.419 . S
C1310 C1311 1.362 . S
C1311 H1301 0.930 . S
C1311 C1304 1.409 . S
C1311 C1310 1.362 . S
H1312 C1318 0.930 . S
H1313 C1321 0.930 . S
H1314 C1322 0.930 . S
H1315 C1323 0.930 . S
H1316 C1326 0.930 . S
H1317 C1327 0.930 . S
C1318 H1312 0.930 . S
C1318 C1319 1.355 . S
C1318 C1320 1.415 . S
C1319 C1318 1.355 . S
C1319 C1321 1.419 . S
C1320 C1318 1.415 . S
C1320 C1325 1.425 . S
C1320 C1327 1.409 . S
C1321 H1313 0.930 . S
C1321 C1319 1.419 . S
C1321 C1322 1.362 . S
C1322 H1314 0.930 . S
C1322 C1321 1.362 . S
C1322 C1325 1.409 . S
C1323 H1315 0.930 . S
C1323 C1324 1.355 . S
C1323 C1325 1.415 . S
C1324 C1323 1.355 . S
C1324 C1326 1.419 . S
C1325 C1320 1.425 . S
C1325 C1322 1.409 . S
C1325 C1323 1.415 . S
C1326 H1316 0.930 . S
C1326 C1324 1.419 . S
C1326 C1327 1.362 . S
C1327 H1317 0.930 . S
C1327 C1320 1.409 . S
C1327 C1326 1.362 . S
H1328 C1334 0.930 . S
H1329 C1337 0.930 . S
H1330 C1338 0.930 . S
H1331 C1339 0.930 . S
H1332 C1342 0.930 . S
H1333 C1343 0.930 . S
C1334 H1328 0.930 . S
C1334 C1335 1.355 . S
C1334 C1336 1.415 . S
C1335 C1334 1.355 . S
C1335 C1337 1.419 . S
C1336 C1334 1.415 . S
C1336 C1341 1.425 . S
C1336 C1343 1.409 . S
C1337 H1329 0.930 . S
C1337 C1335 1.419 . S
C1337 C1338 1.362 . S
C1338 H1330 0.930 . S
C1338 C1337 1.362 . S
C1338 C1341 1.409 . S
C1339 H1331 0.930 . S
C1339 C1340 1.355 . S
C1339 C1341 1.415 . S
C1340 C1339 1.355 . S
C1340 C1342 1.419 . S
C1341 C1336 1.425 . S
C1341 C1338 1.409 . S
C1341 C1339 1.415 . S
C1342 H1332 0.930 . S
C1342 C1340 1.419 . S
C1342 C1343 1.362 . S
C1343 H1333 0.930 . S
C1343 C1336 1.409 . S
C1343 C1342 1.362 . S
H1344 C1350 0.930 . S
H1345 C1353 0.930 . S
H1346 C1354 0.930 . S
H1347 C1355 0.930 . S
H1348 C1358 0.930 . S
H1349 C1359 0.930 . S
C1350 H1344 0.930 . S
C1350 C1351 1.355 . S
C1350 C1352 1.415 . S
C1351 C1350 1.355 . S
C1351 C1353 1.419 . S
C1352 C1350 1.415 . S
C1352 C1357 1.425 . S
C1352 C1359 1.409 . S
C1353 H1345 0.930 . S
C1353 C1351 1.419 . S
C1353 C1354 1.362 . S
C1354 H1346 0.930 . S
C1354 C1353 1.362 . S
C1354 C1357 1.409 . S
C1355 H1347 0.930 . S
C1355 C1356 1.355 . S
C1355 C1357 1.415 . S
C1356 C1355 1.355 . S
C1356 C1358 1.419 . S
C1357 C1352 1.425 . S
C1357 C1354 1.409 . S
C1357 C1355 1.415 . S
C1358 H1348 0.930 . S
C1358 C1356 1.419 . S
C1358 C1359 1.362 . S
C1359 H1349 0.930 . S
C1359 C1352 1.409 . S
C1359 C1358 1.362 . S
H1360 C1366 0.930 . S
H1361 C1369 0.930 . S
H1362 C1370 0.930 . S
H1363 C1371 0.930 . S
H1364 C1374 0.930 . S
H1365 C1375 0.930 . S
C1366 H1360 0.930 . S
C1366 C1367 1.355 . S
C1366 C1368 1.415 . S
C1367 C1366 1.355 . S
C1367 C1369 1.419 . S
C1368 C1366 1.415 . S
C1368 C1373 1.425 . S
C1368 C1375 1.409 . S
C1369 H1361 0.930 . S
C1369 C1367 1.419 . S
C1369 C1370 1.362 . S
C1370 H1362 0.930 . S
C1370 C1369 1.362 . S
C1370 C1373 1.409 . S
C1371 H1363 0.930 . S
C1371 C1372 1.355 . S
C1371 C1373 1.415 . S
C1372 C1371 1.355 . S
C1372 C1374 1.419 . S
C1373 C1368 1.425 . S
C1373 C1370 1.409 . S
C1373 C1371 1.415 . S
C1374 H1364 0.930 . S
C1374 C1372 1.419 . S
C1374 C1375 1.362 . S
C1375 H1365 0.930 . S
C1375 C1368 1.409 . S
C1375 C1374 1.362 . S
H1376 C1382 0.930 . S
H1377 C1385 0.930 . S
H1378 C1386 0.930 . S
H1379 C1387 0.930 . S
H1380 C1390 0.930 . S
H1381 C1391 0.930 . S
C1382 H1376 0.930 . S
C1382 C1383 1.355 . S
C1382 C1384 1.415 . S
C1383 C1382 1.355 . S
C1383 C1385 1.419 . S
C1384 C1382 1.415 . S
C1384 C1389 1.425 . S
C1384 C1391 1.409 . S
C1385 H1377 0.930 . S
C1385 C1383 1.419 . S
C1385 C1386 1.362 . S
C1386 H1378 0.930 . S
C1386 C1385 1.362 . S
C1386 C1389 1.409 . S
C1387 H1379 0.930 . S
C1387 C1388 1.355 . S
C1387 C1389 1.415 . S
C1388 C1387 1.355 . S
C1388 C1390 1.419 . S
C1389 C1384 1.425 . S
C1389 C1386 1.409 . S
C1389 C1387 1.415 . S
C1390 H1380 0.930 . S
C1390 C1388 1.419 . S
C1390 C1391 1.362 . S
C1391 H1381 0.930 . S
C1391 C1384 1.409 . S
C1391 C1390 1.362 . S
H1392 C1398 0.930 . S
H1393 C1401 0.930 . S
H1394 C1402 0.930 . S
H1395 C1403 0.930 . S
H1396 C1406 0.930 . S
H1397 C1407 0.930 . S
C1398 H1392 0.930 . S
C1398 C1399 1.355 . S
C1398 C1400 1.415 . S
C1399 C1398 1.355 . S
C1399 C1401 1.419 . S
C1400 C1398 1.415 . S
C1400 C1405 1.425 . S
C1400 C1407 1.409 . S
C1401 H1393 0.930 . S
C1401 C1399 1.419 . S
C1401 C1402 1.362 . S
C1402 H1394 0.930 . S
C1402 C1401 1.362 . S
C1402 C1405 1.409 . S
C1403 H1395 0.930 . S
C1403 C1404 1.355 . S
C1403 C1405 1.415 . S
C1404 C1403 1.355 . S
C1404 C1406 1.419 . S
C1405 C1400 1.425 . S
C1405 C1402 1.409 . S
C1405 C1403 1.415 . S
C1406 H1396 0.930 . S
C1406 C1404 1.419 . S
C1406 C1407 1.362 . S
C1407 H1397 0.930 . S
C1407 C1400 1.409 . S
C1407 C1406 1.362 . S
H1408 C1414 0.930 . S
H1409 C1417 0.930 . S
H1410 C1418 0.930 . S
H1411 C1419 0.930 . S
H1412 C1422 0.930 . S
H1413 C1423 0.930 . S
C1414 H1408 0.930 . S
C1414 C1415 1.355 . S
C1414 C1416 1.415 . S
C1415 C1414 1.355 . S
C1415 C1417 1.419 . S
C1416 C1414 1.415 . S
C1416 C1421 1.425 . S
C1416 C1423 1.409 . S
C1417 H1409 0.930 . S
C1417 C1415 1.419 . S
C1417 C1418 1.362 . S
C1418 H1410 0.930 . S
C1418 C1417 1.362 . S
C1418 C1421 1.409 . S
C1419 H1411 0.930 . S
C1419 C1420 1.355 . S
C1419 C1421 1.415 . S
C1420 C1419 1.355 . S
C1420 C1422 1.419 . S
C1421 C1416 1.425 . S
C1421 C1418 1.409 . S
C1421 C1419 1.415 . S
C1422 H1412 0.930 . S
C1422 C1420 1.419 . S
C1422 C1423 1.362 . S
C1423 H1413 0.930 . S
C1423 C1416 1.409 . S
C1423 C1422 1.362 . S
H1424 C1430 0.930 . S
H1425 C1433 0.930 . S
H1426 C1434 0.930 . S
H1427 C1435 0.930 . S
H1428 C1438 0.930 . S
H1429 C1439 0.930 . S
C1430 H1424 0.930 . S
C1430 C1431 1.355 . S
C1430 C1432 1.415 . S
C1431 C1430 1.355 . S
C1431 C1433 1.419 . S
C1432 C1430 1.415 . S
C1432 C1437 1.425 . S
C1432 C1439 1.409 . S
C1433 H1425 0.930 . S
C1433 C1431 1.419 . S
C1433 C1434 1.362 . S
C1434 H1426 0.930 . S
C1434 C1433 1.362 . S
C1434 C1437 1.409 . S
C1435 H1427 0.930 . S
C1435 C1436 1.355 . S
C1435 C1437 1.415 . S
C1436 C1435 1.355 . S
C1436 C1438 1.419 . S
C1437 C1432 1.425 . S
C1437 C1434 1.409 . S
C1437 C1435 1.415 . S
C1438 H1428 0.930 . S
C1438 C1436 1.419 . S
C1438 C1439 1.362 . S
C1439 H1429 0.930 . S
C1439 C1432 1.409 . S
C1439 C1438 1.362 . S
H1440 C1446 0.930 . S
H1441 C1449 0.930 . S
H1442 C1450 0.930 . S
H1443 C1451 0.930 . S
H1444 C1454 0.930 . S
H1445 C1455 0.930 . S
C1446 H1440 0.930 . S
C1446 C1447 1.355 . S
C1446 C1448 1.415 . S
C1447 C1446 1.355 . S
C1447 C1449 1.419 . S
C1448 C1446 1.415 . S
C1448 C1453 1.425 . S
C1448 C1455 1.409 . S
C1449 H1441 0.930 . S
C1449 C1447 1.419 . S
C1449 C1450 1.362 . S
C1450 H1442 0.930 . S
C1450 C1449 1.362 . S
C1450 C1453 1.409 . S
C1451 H1443 0.930 . S
C1451 C1452 1.355 . S
C1451 C1453 1.415 . S
C1452 C1451 1.355 . S
C1452 C1454 1.419 . S
C1453 C1448 1.425 . S
C1453 C1450 1.409 . S
C1453 C1451 1.415 . S
C1454 H1444 0.930 . S
C1454 C1452 1.419 . S
C1454 C1455 1.362 . S
C1455 H1445 0.930 . S
C1455 C1448 1.409 . S
C1455 C1454 1.362 . S
H1456 C1462 0.930 . S
H1457 C1465 0.930 . S
H1458 C1466 0.930 . S
H1459 C1467 0.930 . S
H1460 C1470 0.930 . S
H1461 C1471 0.930 . S
C1462 H1456 0.930 . S
C1462 C1463 1.355 . S
C1462 C1464 1.415 . S
C1463 C1462 1.355 . S
C1463 C1465 1.419 . S
C1464 C1462 1.415 . S
C1464 C1469 1.425 . S
C1464 C1471 1.409 . S
C1465 H1457 0.930 . S
C1465 C1463 1.419 . S
C1465 C1466 1.362 . S
C1466 H1458 0.930 . S
C1466 C1465 1.362 . S
C1466 C1469 1.409 . S
C1467 H1459 0.930 . S
C1467 C1468 1.355 . S
C1467 C1469 1.415 . S
C1468 C1467 1.355 . S
C1468 C1470 1.419 . S
C1469 C1464 1.425 . S
C1469 C1466 1.409 . S
C1469 C1467 1.415 . S
C1470 H1460 0.930 . S
C1470 C1468 1.419 . S
C1470 C1471 1.362 . S
C1471 H1461 0.930 . S
C1471 C1464 1.409 . S
C1471 C1470 1.362 . S
H1472 C1478 0.930 . S
H1473 C1481 0.930 . S
H1474 C1482 0.930 . S
H1475 C1483 0.930 . S
H1476 C1486 0.930 . S
H1477 C1487 0.930 . S
C1478 H1472 0.930 . S
C1478 C1479 1.355 . S
C1478 C1480 1.415 . S
C1479 C1478 1.355 . S
C1479 C1481 1.419 . S
C1480 C1478 1.415 . S
C1480 C1485 1.425 . S
C1480 C1487 1.409 . S
C1481 H1473 0.930 . S
C1481 C1479 1.419 . S
C1481 C1482 1.362 . S
C1482 H1474 0.930 . S
C1482 C1481 1.362 . S
C1482 C1485 1.409 . S
C1483 H1475 0.930 . S
C1483 C1484 1.355 . S
C1483 C1485 1.415 . S
C1484 C1483 1.355 . S
C1484 C1486 1.419 . S
C1485 C1480 1.425 . S
C1485 C1482 1.409 . S
C1485 C1483 1.415 . S
C1486 H1476 0.930 . S
C1486 C1484 1.419 . S
C1486 C1487 1.362 . S
C1487 H1477 0.930 . S
C1487 C1480 1.409 . S
C1487 C1486 1.362 . S
H1488 C1494 0.930 . S
H1489 C1497 0.930 . S
H1490 C1498 0.930 . S
H1491 C1499 0.930 . S
H1492 C1502 0.930 . S
H1493 C1503 0.930 . S
C1494 H1488 0.930 . S
C1494 C1495 1.355 . S
C1494 C1496 1.415 . S
C1495 C1494 1.355 . S
C1495 C1497 1.419 . S
C1496 C1494 1.415 . S
C1496 C1501 1.425 . S
C1496 C1503 1.409 . S
C1497 H1489 0.930 . S
C1497 C1495 1.419 . S
C1497 C1498 1.362 . S
C1498 H1490 0.930 . S
C1498 C1497 1.362 . S
C1498 C1501 1.409 . S
C1499 H1491 0.930 . S
C1499 C1500 1.355 . S
C1499 C1501 1.415 . S
C1500 C1499 1.355 . S
C1500 C1502 1.419 . S
C1501 C1496 1.425 . S
C1501 C1498 1.409 . S
C1501 C1499 1.415 . S
C1502 H1492 0.930 . S
C1502 C1500 1.419 . S
C1502 C1503 1.362 . S
C1503 H1493 0.930 . S
C1503 C1496 1.409 . S
C1503 C1502 1.362 . S
H1504 C1510 0.930 . S
H1505 C1513 0.930 . S
H1506 C1514 0.930 . S
H1507 C1515 0.930 . S
H1508 C1518 0.930 . S
H1509 C1519 0.930 . S
C1510 H1504 0.930 . S
C1510 C1511 1.355 . S
C1510 C1512 1.415 . S
C1511 C1510 1.355 . S
C1511 C1513 1.419 . S
C1512 C1510 1.415 . S
C1512 C1517 1.425 . S
C1512 C1519 1.409 . S
C1513 H1505 0.930 . S
C1513 C1511 1.419 . S
C1513 C1514 1.362 . S
C1514 H1506 0.930 . S
C1514 C1513 1.362 . S
C1514 C1517 1.409 . S
C1515 H1507 0.930 . S
C1515 C1516 1.355 . S
C1515 C1517 1.415 . S
C1516 C1515 1.355 . S
C1516 C1518 1.419 . S
C1517 C1512 1.425 . S
C1517 C1514 1.409 . S
C1517 C1515 1.415 . S
C1518 H1508 0.930 . S
C1518 C1516 1.419 . S
C1518 C1519 1.362 . S
C1519 H1509 0.930 . S
C1519 C1512 1.409 . S
C1519 C1518 1.362 . S
H1520 C1526 0.930 . S
H1521 C1529 0.930 . S
H1522 C1530 0.930 . S
H1523 C1531 0.930 . S
H1524 C1534 0.930 . S
H1525 C1535 0.930 . S
C1526 H1520 0.930 . S
C1526 C1527 1.355 . S
C1526 C1528 1.415 . S
C1527 C1526 1.355 . S
C1527 C1529 1.419 . S
C1528 C1526 1.415 . S
C1528 C1533 1.425 . S
C1528 C1535 1.409 . S
C1529 H1521 0.930 . S
C1529 C1527 1.419 . S
C1529 C1530 1.362 . S
C1530 H1522 0.930 . S
C1530 C1529 1.362 . S
C1530 C1533 1.409 . S
C1531 H1523 0.930 . S
C1531 C1532 1.355 . S
C1531 C1533 1.415 . S
C1532 C1531 1.355 . S
C1532 C1534 1.419 . S
C1533 C1528 1.425 . S
C1533 C1530 1.409 . S
C1533 C1531 1.415 . S
C1534 H1524 0.930 . S
C1534 C1532 1.419 . S
C1534 C1535 1.362 . S
C1535 H1525 0.930 . S
C1535 C1528 1.409 . S
C1535 C1534 1.362 . S
H1536 C1542 0.930 . S
H1537 C1545 0.930 . S
H1538 C1546 0.930 . S
H1539 C1547 0.930 . S
H1540 C1550 0.930 . S
H1541 C1551 0.930 . S
C1542 H1536 0.930 . S
C1542 C1543 1.355 . S
C1542 C1544 1.415 . S
C1543 C1542 1.355 . S
C1543 C1545 1.419 . S
C1544 C1542 1.415 . S
C1544 C1549 1.425 . S
C1544 C1551 1.409 . S
C1545 H1537 0.930 . S
C1545 C1543 1.419 . S
C1545 C1546 1.362 . S
C1546 H1538 0.930 . S
C1546 C1545 1.362 . S
C1546 C1549 1.409 . S
C1547 H1539 0.930 . S
C1547 C1548 1.355 . S
C1547 C1549 1.415 . S
C1548 C1547 1.355 . S
C1548 C1550 1.419 . S
C1549 C1544 1.425 . S
C1549 C1546 1.409 . S
C1549 C1547 1.415 . S
C1550 H1540 0.930 . S
C1550 C1548 1.419 . S
C1550 C1551 1.362 . S
C1551 H1541 0.930 . S
C1551 C1544 1.409 . S
C1551 C1550 1.362 . S
H1552 C1558 0.930 . S
H1553 C1561 0.930 . S
H1554 C1562 0.930 . S
H1555 C1563 0.930 . S
H1556 C1566 0.930 . S
H1557 C1567 0.930 . S
C1558 H1552 0.930 . S
C1558 C1559 1.355 . S
C1558 C1560 1.415 . S
C1559 C1558 1.355 . S
C1559 C1561 1.419 . S
C1560 C1558 1.415 . S
C1560 C1565 1.425 . S
C1560 C1567 1.409 . S
C1561 H1553 0.930 . S
C1561 C1559 1.419 . S
C1561 C1562 1.362 . S
C1562 H1554 0.930 . S
C1562 C1561 1.362 . S
C1562 C1565 1.409 . S
C1563 H1555 0.930 . S
C1563 C1564 1.355 . S
C1563 C1565 1.415 . S
C1564 C1563 1.355 . S
C1564 C1566 1.419 . S
C1565 C1560 1.425 . S
C1565 C1562 1.409 . S
C1565 C1563 1.415 . S
C1566 H1556 0.930 . S
C1566 C1564 1.419 . S
C1566 C1567 1.362 . S
C1567 H1557 0.930 . S
C1567 C1560 1.409 . S
C1567 C1566 1.362 . S
H1568 C1574 0.930 . S
H1569 C1577 0.930 . S
H1570 C1578 0.930 . S
H1571 C1579 0.930 . S
H1572 C1582 0.930 . S
H1573 C1583 0.930 . S
C1574 H1568 0.930 . S
C1574 C1575 1.355 . S
C1574 C1576 1.415 . S
C1575 C1574 1.355 . S
C1575 C1577 1.419 . S
C1576 C1574 1.415 . S
C1576 C1581 1.425 . S
C1576 C1583 1.409 . S
C1577 H1569 0.930 . S
C1577 C1575 1.419 . S
C1577 C1578 1.362 . S
C1578 H1570 0.930 . S
C1578 C1577 1.362 . S
C1578 C1581 1.409 . S
C1579 H1571 0.930 . S
C1579 C1580 1.355 . S
C1579 C1581 1.415 . S
C1580 C1579 1.355 . S
C1580 C1582 1.419 . S
C1581 C1576 1.425 . S
C1581 C1578 1.409 . S
C1581 C1579 1.415 . S
C1582 H1572 0.930 . S
C1582 C1580 1.419 . S
C1582 C1583 1.362 . S
C1583 H1573 0.930 . S
C1583 C1576 1.409 . S
C1583 C1582 1.362 . S
H1584 C1590 0.930 . S
H1585 C1593 0.930 . S
H1586 C1594 0.930 . S
H1587 C1595 0.930 . S
H1588 C1598 0.930 . S
H1589 C1599 0.930 . S
C1590 H1584 0.930 . S
C1590 C1591 1.355 . S
C1590 C1592 1.415 . S
C1591 C1590 1.355 . S
C1591 C1593 1.419 . S
C1592 C1590 1.415 . S
C1592 C1597 1.425 . S
C1592 C1599 1.409 . S
C1593 H1585 0.930 . S
C1593 C1591 1.419 . S
C1593 C1594 1.362 . S
C1594 H1586 0.930 . S
C1594 C1593 1.362 . S
C1594 C1597 1.409 . S
C1595 H1587 0.930 . S
C1595 C1596 1.355 . S
C1595 C1597 1.415 . S
C1596 C1595 1.355 . S
C1596 C1598 1.419 . S
C1597 C1592 1.425 . S
C1597 C1594 1.409 . S
C1597 C1595 1.415 . S
C1598 H1588 0.930 . S
C1598 C1596 1.419 . S
C1598 C1599 1.362 . S
C1599 H1589 0.930 . S
C1599 C1592 1.409 . S
C1599 C1598 1.362 . S
H1600 C1606 0.930 . S
H1601 C1609 0.930 . S
H1602 C1610 0.930 . S
H1603 C1611 0.930 . S
H1604 C1614 0.930 . S
H1605 C1615 0.930 . S
C1606 H1600 0.930 . S
C1606 C1607 1.355 . S
C1606 C1608 1.415 . S
C1607 C1606 1.355 . S
C1607 C1609 1.419 . S
C1608 C1606 1.415 . S
C1608 C1613 1.425 . S
C1608 C1615 1.409 . S
C1609 H1601 0.930 . S
C1609 C1607 1.419 . S
C1609 C1610 1.362 . S
C1610 H1602 0.930 . S
C1610 C1609 1.362 . S
C1610 C1613 1.409 . S
C1611 H1603 0.930 . S
C1611 C1612 1.355 . S
C1611 C1613 1.415 . S
C1612 C1611 1.355 . S
C1612 C1614 1.419 . S
C1613 C1608 1.425 . S
C1613 C1610 1.409 . S
C1613 C1611 1.415 . S
C1614 H1604 0.930 . S
C1614 C1612 1.419 . S
C1614 C1615 1.362 . S
C1615 H1605 0.930 . S
C1615 C1608 1.409 . S
C1615 C1614 1.362 . S
H1616 C1622 0.930 . S
H1617 C1625 0.930 . S
H1618 C1626 0.930 . S
H1619 C1627 0.930 . S
H1620 C1630 0.930 . S
H1621 C1631 0.930 . S
C1622 H1616 0.930 . S
C1622 C1623 1.355 . S
C1622 C1624 1.415 . S
C1623 C1622 1.355 . S
C1623 C1625 1.419 . S
C1624 C1622 1.415 . S
C1624 C1629 1.425 . S
C1624 C1631 1.409 . S
C1625 H1617 0.930 . S
C1625 C1623 1.419 . S
C1625 C1626 1.362 . S
C1626 H1618 0.930 . S
C1626 C1625 1.362 . S
C1626 C1629 1.409 . S
C1627 H1619 0.930 . S
C1627 C1628 1.355 . S
C1627 C1629 1.415 . S
C1628 C1627 1.355 . S
C1628 C1630 1.419 . S
C1629 C1624 1.425 . S
C1629 C1626 1.409 . S
C1629 C1627 1.415 . S
C1630 H1620 0.930 . S
C1630 C1628 1.419 . S
C1630 C1631 1.362 . S
C1631 H1621 0.930 . S
C1631 C1624 1.409 . S
C1631 C1630 1.362 . S
H1632 C1638 0.930 . S
H1633 C1641 0.930 . S
H1634 C1642 0.930 . S
H1635 C1643 0.930 . S
H1636 C1646 0.930 . S
H1637 C1647 0.930 . S
C1638 H1632 0.930 . S
C1638 C1639 1.355 . S
C1638 C1640 1.415 . S
C1639 C1638 1.355 . S
C1639 C1641 1.419 . S
C1640 C1638 1.415 . S
C1640 C1645 1.425 . S
C1640 C1647 1.409 . S
C1641 H1633 0.930 . S
C1641 C1639 1.419 . S
C1641 C1642 1.362 . S
C1642 H1634 0.930 . S
C1642 C1641 1.362 . S
C1642 C1645 1.409 . S
C1643 H1635 0.930 . S
C1643 C1644 1.355 . S
C1643 C1645 1.415 . S
C1644 C1643 1.355 . S
C1644 C1646 1.419 . S
C1645 C1640 1.425 . S
C1645 C1642 1.409 . S
C1645 C1643 1.415 . S
C1646 H1636 0.930 . S
C1646 C1644 1.419 . S
C1646 C1647 1.362 . S
C1647 H1637 0.930 . S
C1647 C1640 1.409 . S
C1647 C1646 1.362 . S
H1648 C1654 0.930 . S
H1649 C1657 0.930 . S
H1650 C1658 0.930 . S
H1651 C1659 0.930 . S
H1652 C1662 0.930 . S
H1653 C1663 0.930 . S
C1654 H1648 0.930 . S
C1654 C1655 1.355 . S
C1654 C1656 1.415 . S
C1655 C1654 1.355 . S
C1655 C1657 1.419 . S
C1656 C1654 1.415 . S
C1656 C1661 1.425 . S
C1656 C1663 1.409 . S
C1657 H1649 0.930 . S
C1657 C1655 1.419 . S
C1657 C1658 1.362 . S
C1658 H1650 0.930 . S
C1658 C1657 1.362 . S
C1658 C1661 1.409 . S
C1659 H1651 0.930 . S
C1659 C1660 1.355 . S
C1659 C1661 1.415 . S
C1660 C1659 1.355 . S
C1660 C1662 1.419 . S
C1661 C1656 1.425 . S
C1661 C1658 1.409 . S
C1661 C1659 1.415 . S
C1662 H1652 0.930 . S
C1662 C1660 1.419 . S
C1662 C1663 1.362 . S
C1663 H1653 0.930 . S
C1663 C1656 1.409 . S
C1663 C1662 1.362 . S
H1664 C1670 0.930 . S
H1665 C1673 0.930 . S
H1666 C1674 0.930 . S
H1667 C1675 0.930 . S
H1668 C1678 0.930 . S
H1669 C1679 0.930 . S
C1670 H1664 0.930 . S
C1670 C1671 1.355 . S
C1670 C1672 1.415 . S
C1671 C1670 1.355 . S
C1671 C1673 1.419 . S
C1672 C1670 1.415 . S
C1672 C1677 1.425 . S
C1672 C1679 1.409 . S
C1673 H1665 0.930 . S
C1673 C1671 1.419 . S
C1673 C1674 1.362 . S
C1674 H1666 0.930 . S
C1674 C1673 1.362 . S
C1674 C1677 1.409 . S
C1675 H1667 0.930 . S
C1675 C1676 1.355 . S
C1675 C1677 1.415 . S
C1676 C1675 1.355 . S
C1676 C1678 1.419 . S
C1677 C1672 1.425 . S
C1677 C1674 1.409 . S
C1677 C1675 1.415 . S
C1678 H1668 0.930 . S
C1678 C1676 1.419 . S
C1678 C1679 1.362 . S
C1679 H1669 0.930 . S
C1679 C1672 1.409 . S
C1679 C1678 1.362 . S
H1680 C1686 0.930 . S
H1681 C1689 0.930 . S
H1682 C1690 0.930 . S
H1683 C1691 0.930 . S
H1684 C1694 0.930 . S
H1685 C1695 0.930 . S
C1686 H1680 0.930 . S
C1686 C1687 1.355 . S
C1686 C1688 1.415 . S
C1687 C1686 1.355 . S
C1687 C1689 1.419 . S
C1688 C1686 1.415 . S
C1688 C1693 1.425 . S
C1688 C1695 1.409 . S
C1689 H1681 0.930 . S
C1689 C1687 1.419 . S
C1689 C1690 1.362 . S
C1690 H1682 0.930 . S
C1690 C1689 1.362 . S
C1690 C1693 1.409 . S
C1691 H1683 0.930 . S
C1691 C1692 1.355 . S
C1691 C1693 1.415 . S
C1692 C1691 1.355 . S
C1692 C1694 1.419 . S
C1693 C1688 1.425 . S
C1693 C1690 1.409 . S
C1693 C1691 1.415 . S
C1694 H1684 0.930 . S
C1694 C1692 1.419 . S
C1694 C1695 1.362 . S
C1695 H1685 0.930 . S
C1695 C1688 1.409 . S
C1695 C1694 1.362 . S
H1696 C1702 0.930 . S
H1697 C1705 0.930 . S
H1698 C1706 0.930 . S
H1699 C1707 0.930 . S
H1700 C1710 0.930 . S
H1701 C1711 0.930 . S
C1702 H1696 0.930 . S
C1702 C1703 1.355 . S
C1702 C1704 1.415 . S
C1703 C1702 1.355 . S
C1703 C1705 1.419 . S
C1704 C1702 1.415 . S
C1704 C1709 1.425 . S
C1704 C1711 1.409 . S
C1705 H1697 0.930 . S
C1705 C1703 1.419 . S
C1705 C1706 1.362 . S
C1706 H1698 0.930 . S
C1706 C1705 1.362 . S
C1706 C1709 1.409 . S
C1707 H1699 0.930 . S
C1707 C1708 1.355 . S
C1707 C1709 1.415 . S
C1708 C1707 1.355 . S
C1708 C1710 1.419 . S
C1709 C1704 1.425 . S
C1709 C1706 1.409 . S
C1709 C1707 1.415 . S
C1710 H1700 0.930 . S
C1710 C1708 1.419 . S
C1710 C1711 1.362 . S
C1711 H1701 0.930 . S
C1711 C1704 1.409 . S
C1711 C1710 1.362 . S
H1712 C1718 0.930 . S
H1713 C1721 0.930 . S
H1714 C1722 0.930 . S
H1715 C1723 0.930 . S
H1716 C1726 0.930 . S
H1717 C1727 0.930 . S
C1718 H1712 0.930 . S
C1718 C1719 1.355 . S
C1718 C1720 1.415 . S
C1719 C1718 1.355 . S
C1719 C1721 1.419 . S
C1720 C1718 1.415 . S
C1720 C1725 1.425 . S
C1720 C1727 1.409 . S
C1721 H1713 0.930 . S
C1721 C1719 1.419 . S
C1721 C1722 1.362 . S
C1722 H1714 0.930 . S
C1722 C1721 1.362 . S
C1722 C1725 1.409 . S
C1723 H1715 0.930 . S
C1723 C1724 1.355 . S
C1723 C1725 1.415 . S
C1724 C1723 1.355 . S
C1724 C1726 1.419 . S
C1725 C1720 1.425 . S
C1725 C1722 1.409 . S
C1725 C1723 1.415 . S
C1726 H1716 0.930 . S
C1726 C1724 1.419 . S
C1726 C1727 1.362 . S
C1727 H1717 0.930 . S
C1727 C1720 1.409 . S
C1727 C1726 1.362 . S
H1728 C1734 0.930 . S
H1729 C1737 0.930 . S
H1730 C1738 0.930 . S
H1731 C1739 0.930 . S
H1732 C1742 0.930 . S
H1733 C1743 0.930 . S
C1734 H1728 0.930 . S
C1734 C1735 1.355 . S
C1734 C1736 1.415 . S
C1735 C1734 1.355 . S
C1735 C1737 1.419 . S
C1736 C1734 1.415 . S
C1736 C1741 1.425 . S
C1736 C1743 1.409 . S
C1737 H1729 0.930 . S
C1737 C1735 1.419 . S
C1737 C1738 1.362 . S
C1738 H1730 0.930 . S
C1738 C1737 1.362 . S
C1738 C1741 1.409 . S
C1739 H1731 0.930 . S
C1739 C1740 1.355 . S
C1739 C1741 1.415 . S
C1740 C1739 1.355 . S
C1740 C1742 1.419 . S
C1741 C1736 1.425 . S
C1741 C1738 1.409 . S
C1741 C1739 1.415 . S
C1742 H1732 0.930 . S
C1742 C1740 1.419 . S
C1742 C1743 1.362 . S
C1743 H1733 0.930 . S
C1743 C1736 1.409 . S
C1743 C1742 1.362 . S
H1744 C1750 0.930 . S
H1745 C1753 0.930 . S
H1746 C1754 0.930 . S
H1747 C1755 0.930 . S
H1748 C1758 0.930 . S
H1749 C1759 0.930 . S
C1750 H1744 0.930 . S
C1750 C1751 1.355 . S
C1750 C1752 1.415 . S
C1751 C1750 1.355 . S
C1751 C1753 1.419 . S
C1752 C1750 1.415 . S
C1752 C1757 1.425 . S
C1752 C1759 1.409 . S
C1753 H1745 0.930 . S
C1753 C1751 1.419 . S
C1753 C1754 1.362 . S
C1754 H1746 0.930 . S
C1754 C1753 1.362 . S
C1754 C1757 1.409 . S
C1755 H1747 0.930 . S
C1755 C1756 1.355 . S
C1755 C1757 1.415 . S
C1756 C1755 1.355 . S
C1756 C1758 1.419 . S
C1757 C1752 1.425 . S
C1757 C1754 1.409 . S
C1757 C1755 1.415 . S
C1758 H1748 0.930 . S
C1758 C1756 1.419 . S
C1758 C1759 1.362 . S
C1759 H1749 0.930 . S
C1759 C1752 1.409 . S
C1759 C1758 1.362 . S
H1760 C1766 0.930 . S
H1761 C1769 0.930 . S
H1762 C1770 0.930 . S
H1763 C1771 0.930 . S
H1764 C1774 0.930 . S
H1765 C1775 0.930 . S
C1766 H1760 0.930 . S
C1766 C1767 1.355 . S
C1766 C1768 1.415 . S
C1767 C1766 1.355 . S
C1767 C1769 1.419 . S
C1768 C1766 1.415 . S
C1768 C1773 1.425 . S
C1768 C1775 1.409 . S
C1769 H1761 0.930 . S
C1769 C1767 1.419 . S
C1769 C1770 1.362 . S
C1770 H1762 0.930 . S
C1770 C1769 1.362 . S
C1770 C1773 1.409 . S
C1771 H1763 0.930 . S
C1771 C1772 1.355 . S
C1771 C1773 1.415 . S
C1772 C1771 1.355 . S
C1772 C1774 1.419 . S
C1773 C1768 1.425 . S
C1773 C1770 1.409 . S
C1773 C1771 1.415 . S
C1774 H1764 0.930 . S
C1774 C1772 1.419 . S
C1774 C1775 1.362 . S
C1775 H1765 0.930 . S
C1775 C1768 1.409 . S
C1775 C1774 1.362 . S
H1776 C1782 0.930 . S
H1777 C1785 0.930 . S
H1778 C1786 0.930 . S
H1779 C1787 0.930 . S
H1780 C1790 0.930 . S
H1781 C1791 0.930 . S
C1782 H1776 0.930 . S
C1782 C1783 1.355 . S
C1782 C1784 1.415 . S
C1783 C1782 1.355 . S
C1783 C1785 1.419 . S
C1784 C1782 1.415 . S
C1784 C1789 1.425 . S
C1784 C1791 1.409 . S
C1785 H1777 0.930 . S
C1785 C1783 1.419 . S
C1785 C1786 1.362 . S
C1786 H1778 0.930 . S
C1786 C1785 1.362 . S
C1786 C1789 1.409 . S
C1787 H1779 0.930 . S
C1787 C1788 1.355 . S
C1787 C1789 1.415 . S
C1788 C1787 1.355 . S
C1788 C1790 1.419 . S
C1789 C1784 1.425 . S
C1789 C1786 1.409 . S
C1789 C1787 1.415 . S
C1790 H1780 0.930 . S
C1790 C1788 1.419 . S
C1790 C1791 1.362 . S
C1791 H1781 0.930 . S
C1791 C1784 1.409 . S
C1791 C1790 1.362 . S
H1792 C1798 0.930 . S
H1793 C1801 0.930 . S
H1794 C1802 0.930 . S
H1795 C1803 0.930 . S
H1796 C1806 0.930 . S
H1797 C1807 0.930 . S
C1798 H1792 0.930 . S
C1798 C1799 1.355 . S
C1798 C1800 1.415 . S
C1799 C1798 1.355 . S
C1799 C1801 1.419 . S
C1800 C1798 1.415 . S
C1800 C1805 1.425 . S
C1800 C1807 1.409 . S
C1801 H1793 0.930 . S
C1801 C1799 1.419 . S
C1801 C1802 1.362 . S
C1802 H1794 0.930 . S
C1802 C1801 1.362 . S
C1802 C1805 1.409 . S
C1803 H1795 0.930 . S
C1803 C1804 1.355 . S
C1803 C1805 1.415 . S
C1804 C1803 1.355 . S
C1804 C1806 1.419 . S
C1805 C1800 1.425 . S
C1805 C1802 1.409 . S
C1805 C1803 1.415 . S
C1806 H1796 0.930 . S
C1806 C1804 1.419 . S
C1806 C1807 1.362 . S
C1807 H1797 0.930 . S
C1807 C1800 1.409 . S
C1807 C1806 1.362 . S
H1808 C1814 0.930 . S
H1809 C1817 0.930 . S
H1810 C1818 0.930 . S
H1811 C1819 0.930 . S
H1812 C1822 0.930 . S
H1813 C1823 0.930 . S
C1814 H1808 0.930 . S
C1814 C1815 1.355 . S
C1814 C1816 1.415 . S
C1815 C1814 1.355 . S
C1815 C1817 1.419 . S
C1816 C1814 1.415 . S
C1816 C1821 1.425 . S
C1816 C1823 1.409 . S
C1817 H1809 0.930 . S
C1817 C1815 1.419 . S
C1817 C1818 1.362 . S
C1818 H1810 0.930 . S
C1818 C1817 1.362 . S
C1818 C1821 1.409 . S
C1819 H1811 0.930 . S
C1819 C1820 1.355 . S
C1819 C1821 1.415 . S
C1820 C1819 1.355 . S
C1820 C1822 1.419 . S
C1821 C1816 1.425 . S
C1821 C1818 1.409 . S
C1821 C1819 1.415 . S
C1822 H1812 0.930 . S
C1822 C1820 1.419 . S
C1822 C1823 1.362 . S
C1823 H1813 0.930 . S
C1823 C1816 1.409 . S
C1823 C1822 1.362 . S
H1824 C1830 0.958 . S
H1825 C1833 0.930 . S
H1826 C1834 0.930 . S
H1827 C1835 0.930 . S
H1828 C1838 0.930 1_655 S
H1829 C1839 0.930 1_655 S
C1830 H1824 0.958 . S
C1830 C1831 1.355 . S
C1830 C1832 1.415 . S
C1831 C1830 1.355 . S
C1831 C1833 1.419 . S
C1832 C1830 1.415 . S
C1832 C1837 1.425 . S
C1832 C1839 1.409 . S
C1833 H1825 0.930 . S
C1833 C1831 1.419 . S
C1833 C1834 1.362 . S
C1834 H1826 0.930 . S
C1834 C1833 1.362 . S
C1834 C1837 1.409 . S
C1835 H1827 0.930 . S
C1835 C1836 1.355 . S
C1835 C1837 1.415 . S
C1836 C1835 1.355 . S
C1836 C1838 1.419 . S
C1837 C1832 1.425 . S
C1837 C1834 1.409 . S
C1837 C1835 1.415 . S
C1838 H1828 0.930 1_455 S
C1838 C1836 1.419 . S
C1838 C1839 1.362 . S
C1839 H1829 0.930 1_455 S
C1839 C1832 1.409 . S
C1839 C1838 1.362 . S
H1840 C1846 0.930 . S
H1841 C1849 0.930 . S
H1842 C1850 0.930 . S
H1843 C1851 0.930 . S
H1844 C1854 0.930 . S
H1845 C1855 0.930 . S
C1846 H1840 0.930 . S
C1846 C1847 1.355 . S
C1846 C1848 1.415 1_565 S
C1847 C1846 1.355 . S
C1847 C1849 1.419 . S
C1848 C1846 1.415 1_545 S
C1848 C1853 1.425 1_545 S
C1848 C1855 1.409 . S
C1849 H1841 0.930 . S
C1849 C1847 1.419 . S
C1849 C1850 1.362 . S
C1850 H1842 0.930 . S
C1850 C1849 1.362 . S
C1850 C1853 1.409 . S
C1851 H1843 0.930 . S
C1851 C1852 1.355 . S
C1851 C1853 1.415 1_545 S
C1852 C1851 1.355 . S
C1852 C1854 1.419 . S
C1853 C1848 1.425 1_565 S
C1853 C1850 1.409 . S
C1853 C1851 1.415 1_565 S
C1854 H1844 0.930 . S
C1854 C1852 1.419 . S
C1854 C1855 1.362 . S
C1855 H1845 0.930 . S
C1855 C1848 1.409 . S
C1855 C1854 1.362 . S
H1856 C1862 0.930 . S
H1857 C1865 0.930 1_565 S
H1858 C1866 0.930 1_565 S
H1859 C1867 0.930 . S
H1860 C1870 0.930 . S
H1861 C1871 0.930 . S
C1862 H1856 0.930 . S
C1862 C1863 1.355 . S
C1862 C1864 1.415 . S
C1863 C1862 1.355 . S
C1863 C1865 1.419 . S
C1864 C1862 1.415 . S
C1864 C1869 1.425 . S
C1864 C1871 1.409 . S
C1865 H1857 0.930 1_545 S
C1865 C1863 1.419 . S
C1865 C1866 1.362 . S
C1866 H1858 0.930 1_545 S
C1866 C1865 1.362 . S
C1866 C1869 1.409 . S
C1867 H1859 0.930 . S
C1867 C1868 1.355 . S
C1867 C1869 1.415 . S
C1868 C1867 1.355 . S
C1868 C1870 1.419 . S
C1869 C1864 1.425 . S
C1869 C1866 1.409 . S
C1869 C1867 1.415 . S
C1870 H1860 0.930 . S
C1870 C1868 1.419 . S
C1870 C1871 1.362 . S
C1871 H1861 0.930 . S
C1871 C1864 1.409 . S
C1871 C1870 1.362 . S
H1872 C1878 0.930 . S
H1873 C1881 0.930 . S
H1874 C1882 0.930 . S
H1875 C1883 0.930 . S
H1876 C1886 0.930 . S
H1877 C1887 0.930 . S
C1878 H1872 0.930 . S
C1878 C1879 1.355 . S
C1878 C1880 1.415 . S
C1879 C1878 1.355 . S
C1879 C1881 1.419 . S
C1880 C1878 1.415 . S
C1880 C1885 1.425 . S
C1880 C1887 1.409 . S
C1881 H1873 0.930 . S
C1881 C1879 1.419 . S
C1881 C1882 1.362 . S
C1882 H1874 0.930 . S
C1882 C1881 1.362 . S
C1882 C1885 1.409 . S
C1883 H1875 0.930 . S
C1883 C1884 1.355 . S
C1883 C1885 1.415 . S
C1884 C1883 1.355 . S
C1884 C1886 1.419 . S
C1885 C1880 1.425 . S
C1885 C1882 1.409 . S
C1885 C1883 1.415 . S
C1886 H1876 0.930 . S
C1886 C1884 1.419 . S
C1886 C1887 1.362 . S
C1887 H1877 0.930 . S
C1887 C1880 1.409 . S
C1887 C1886 1.362 . S
H1888 C1894 0.930 . S
H1889 C1897 0.930 . S
H1890 C1898 0.917 1_554 S
H1891 C1899 0.930 . S
H1892 C1902 0.930 . S
H1893 C1903 0.917 1_556 S
C1894 H1888 0.930 . S
C1894 C1895 1.355 . S
C1894 C1896 1.415 . S
C1895 C1894 1.355 . S
C1895 C1897 1.419 . S
C1896 C1894 1.415 . S
C1896 C1901 1.425 1_556 S
C1896 C1903 1.402 1_556 S
C1897 H1889 0.930 . S
C1897 C1895 1.419 . S
C1897 C1898 1.383 . S
C1898 H1890 0.917 1_556 S
C1898 C1897 1.383 . S
C1898 C1901 1.402 1_556 S
C1899 H1891 0.930 . S
C1899 C1900 1.355 . S
C1899 C1901 1.415 . S
C1900 C1899 1.355 . S
C1900 C1902 1.419 . S
C1901 C1896 1.425 1_554 S
C1901 C1898 1.402 1_554 S
C1901 C1899 1.415 . S
C1902 H1892 0.930 . S
C1902 C1900 1.419 . S
C1902 C1903 1.383 . S
C1903 H1893 0.917 1_554 S
C1903 C1896 1.402 1_554 S
C1903 C1902 1.383 . S
H1904 C1910 0.930 . S
H1905 C1913 0.930 . S
H1906 C1914 0.930 . S
H1907 C1915 0.930 . S
H1908 C1918 0.930 . S
H1909 C1919 0.930 . S
C1910 H1904 0.930 . S
C1910 C1911 1.355 . S
C1910 C1912 1.415 . S
C1911 C1910 1.355 . S
C1911 C1913 1.419 . S
C1912 C1910 1.415 . S
C1912 C1917 1.425 1_554 S
C1912 C1919 1.409 1_554 S
C1913 H1905 0.930 . S
C1913 C1911 1.419 . S
C1913 C1914 1.362 . S
C1914 H1906 0.930 . S
C1914 C1913 1.362 . S
C1914 C1917 1.409 1_554 S
C1915 H1907 0.930 . S
C1915 C1916 1.355 . S
C1915 C1917 1.415 . S
C1916 C1915 1.355 . S
C1916 C1918 1.419 . S
C1917 C1912 1.425 1_556 S
C1917 C1914 1.409 1_556 S
C1917 C1915 1.415 . S
C1918 H1908 0.930 . S
C1918 C1916 1.419 . S
C1918 C1919 1.362 . S
C1919 H1909 0.930 . S
C1919 C1912 1.409 1_556 S
C1919 C1918 1.362 . S
H1920 C1926 0.930 . S
H1921 C1929 0.930 . S
H1922 C1930 0.930 . S
H1923 C1931 0.930 . S
H1924 C1934 0.930 . S
H1925 C1935 0.930 . S
C1926 H1920 0.930 . S
C1926 C1927 1.355 . S
C1926 C1928 1.415 . S
C1927 C1926 1.355 . S
C1927 C1929 1.419 . S
C1928 C1926 1.415 . S
C1928 C1933 1.425 . S
C1928 C1935 1.409 . S
C1929 H1921 0.930 . S
C1929 C1927 1.419 . S
C1929 C1930 1.362 . S
C1930 H1922 0.930 . S
C1930 C1929 1.362 . S
C1930 C1933 1.409 . S
C1931 H1923 0.930 . S
C1931 C1932 1.355 . S
C1931 C1933 1.415 . S
C1932 C1931 1.355 . S
C1932 C1934 1.419 . S
C1933 C1928 1.425 . S
C1933 C1930 1.409 . S
C1933 C1931 1.415 . S
C1934 H1924 0.930 . S
C1934 C1932 1.419 . S
C1934 C1935 1.362 . S
C1935 H1925 0.930 . S
C1935 C1928 1.409 . S
C1935 C1934 1.362 . S
H1936 C1942 0.930 . S
H1937 C1945 0.930 . S
H1938 C1946 0.930 . S
H1939 C1947 0.930 . S
H1940 C1950 0.930 . S
H1941 C1951 0.930 . S
C1942 H1936 0.930 . S
C1942 C1943 1.355 . S
C1942 C1944 1.415 . S
C1943 C1942 1.355 . S
C1943 C1945 1.419 . S
C1944 C1942 1.415 . S
C1944 C1949 1.425 . S
C1944 C1951 1.409 . S
C1945 H1937 0.930 . S
C1945 C1943 1.419 . S
C1945 C1946 1.362 . S
C1946 H1938 0.930 . S
C1946 C1945 1.362 . S
C1946 C1949 1.409 . S
C1947 H1939 0.930 . S
C1947 C1948 1.355 . S
C1947 C1949 1.415 . S
C1948 C1947 1.355 . S
C1948 C1950 1.419 . S
C1949 C1944 1.425 . S
C1949 C1946 1.409 . S
C1949 C1947 1.415 . S
C1950 H1940 0.930 . S
C1950 C1948 1.419 . S
C1950 C1951 1.362 . S
C1951 H1941 0.930 . S
C1951 C1944 1.409 . S
C1951 C1950 1.362 . S
H1952 C1958 0.930 . S
H1953 C1961 0.930 . S
H1954 C1962 0.930 . S
H1955 C1963 0.930 . S
H1956 C1966 0.930 . S
H1957 C1967 0.930 . S
C1958 H1952 0.930 . S
C1958 C1959 1.355 . S
C1958 C1960 1.400 1_455 S
C1959 C1958 1.355 . S
C1959 C1961 1.419 . S
C1960 C1958 1.400 1_655 S
C1960 C1965 1.425 1_655 S
C1960 C1967 1.425 . S
C1961 H1953 0.930 . S
C1961 C1959 1.419 . S
C1961 C1962 1.362 . S
C1962 H1954 0.930 . S
C1962 C1961 1.362 . S
C1962 C1965 1.425 . S
C1963 H1955 0.930 . S
C1963 C1964 1.355 . S
C1963 C1965 1.399 1_655 S
C1964 C1963 1.355 . S
C1964 C1966 1.419 . S
C1965 C1960 1.425 1_455 S
C1965 C1962 1.425 . S
C1965 C1963 1.399 1_455 S
C1966 H1956 0.930 . S
C1966 C1964 1.419 . S
C1966 C1967 1.362 . S
C1967 H1957 0.930 . S
C1967 C1960 1.425 . S
C1967 C1966 1.362 . S
H1968 C1974 0.930 . S
H1969 C1977 0.930 . S
H1970 C1978 0.930 . S
H1971 C1979 0.930 . S
H1972 C1982 0.930 . S
H1973 C1983 0.930 . S
C1974 H1968 0.930 . S
C1974 C1975 1.355 . S
C1974 C1976 1.415 . S
C1975 C1974 1.355 . S
C1975 C1977 1.419 . S
C1976 C1974 1.415 . S
C1976 C1981 1.425 . S
C1976 C1983 1.409 . S
C1977 H1969 0.930 . S
C1977 C1975 1.419 . S
C1977 C1978 1.362 . S
C1978 H1970 0.930 . S
C1978 C1977 1.362 . S
C1978 C1981 1.409 . S
C1979 H1971 0.930 . S
C1979 C1980 1.355 . S
C1979 C1981 1.415 . S
C1980 C1979 1.355 . S
C1980 C1982 1.419 . S
C1981 C1976 1.425 . S
C1981 C1978 1.409 . S
C1981 C1979 1.415 . S
C1982 H1972 0.930 . S
C1982 C1980 1.419 . S
C1982 C1983 1.362 . S
C1983 H1973 0.930 . S
C1983 C1976 1.409 . S
C1983 C1982 1.362 . S
H1984 C1990 0.930 . S
H1985 C1993 0.930 . S
H1986 C1994 0.930 . S
H1987 C1995 0.930 . S
H1988 C1998 0.930 . S
H1989 C1999 0.930 . S
C1990 H1984 0.930 . S
C1990 C1991 1.355 . S
C1990 C1992 1.384 1_545 S
C1991 C1990 1.355 . S
C1991 C1993 1.419 . S
C1992 C1990 1.384 1_565 S
C1992 C1997 1.423 1_565 S
C1992 C1999 1.442 . S
C1993 H1985 0.930 . S
C1993 C1991 1.419 . S
C1993 C1994 1.362 . S
C1994 H1986 0.930 . S
C1994 C1993 1.362 . S
C1994 C1997 1.442 . S
C1995 H1987 0.930 . S
C1995 C1996 1.355 . S
C1995 C1997 1.384 1_565 S
C1996 C1995 1.355 . S
C1996 C1998 1.419 . S
C1997 C1992 1.423 1_545 S
C1997 C1994 1.442 . S
C1997 C1995 1.384 1_545 S
C1998 H1988 0.930 . S
C1998 C1996 1.419 . S
C1998 C1999 1.362 . S
C1999 H1989 0.930 . S
C1999 C1992 1.442 . S
C1999 C1998 1.362 . S
H2000 C2006 0.930 . S
H2001 C2009 0.930 . S
H2002 C2010 0.930 . S
H2003 C2011 0.930 . S
H2004 C2014 0.930 . S
H2005 C2015 0.930 . S
C2006 H2000 0.930 . S
C2006 C2007 1.355 . S
C2006 C2008 1.415 . S
C2007 C2006 1.355 . S
C2007 C2009 1.419 . S
C2008 C2006 1.415 . S
C2008 C2013 1.425 . S
C2008 C2015 1.409 . S
C2009 H2001 0.930 . S
C2009 C2007 1.419 . S
C2009 C2010 1.362 . S
C2010 H2002 0.930 . S
C2010 C2009 1.362 . S
C2010 C2013 1.409 . S
C2011 H2003 0.930 . S
C2011 C2012 1.355 . S
C2011 C2013 1.415 . S
C2012 C2011 1.355 . S
C2012 C2014 1.419 . S
C2013 C2008 1.425 . S
C2013 C2010 1.409 . S
C2013 C2011 1.415 . S
C2014 H2004 0.930 . S
C2014 C2012 1.419 . S
C2014 C2015 1.362 . S
C2015 H2005 0.930 . S
C2015 C2008 1.409 . S
C2015 C2014 1.362 . S
H2016 C2022 0.930 . S
H2017 C2025 0.930 . S
H2018 C2026 0.930 . S
H2019 C2027 0.930 . S
H2020 C2030 0.930 . S
H2021 C2031 0.930 . S
C2022 H2016 0.930 . S
C2022 C2023 1.355 . S
C2022 C2024 1.415 . S
C2023 C2022 1.355 . S
C2023 C2025 1.419 . S
C2024 C2022 1.415 . S
C2024 C2029 1.425 . S
C2024 C2031 1.409 . S
C2025 H2017 0.930 . S
C2025 C2023 1.419 . S
C2025 C2026 1.362 . S
C2026 H2018 0.930 . S
C2026 C2025 1.362 . S
C2026 C2029 1.409 . S
C2027 H2019 0.930 . S
C2027 C2028 1.355 . S
C2027 C2029 1.415 . S
C2028 C2027 1.355 . S
C2028 C2030 1.419 . S
C2029 C2024 1.425 . S
C2029 C2026 1.409 . S
C2029 C2027 1.415 . S
C2030 H2020 0.930 . S
C2030 C2028 1.419 . S
C2030 C2031 1.362 . S
C2031 H2021 0.930 . S
C2031 C2024 1.409 . S
C2031 C2030 1.362 . S
H2032 C2038 0.930 . S
H2033 C2041 0.930 . S
H2034 C2042 0.930 . S
H2035 C2043 0.930 . S
H2036 C2046 0.938 . S
H2037 C2047 0.930 1_565 S
C2038 H2032 0.930 . S
C2038 C2039 1.355 . S
C2038 C2040 1.415 . S
C2039 C2038 1.355 . S
C2039 C2041 1.419 . S
C2040 C2038 1.415 . S
C2040 C2045 1.425 1_556 S
C2040 C2047 1.409 1_556 S
C2041 H2033 0.930 . S
C2041 C2039 1.419 . S
C2041 C2042 1.362 . S
C2042 H2034 0.930 . S
C2042 C2041 1.362 . S
C2042 C2045 1.409 1_556 S
C2043 H2035 0.930 . S
C2043 C2044 1.355 . S
C2043 C2045 1.415 . S
C2044 C2043 1.355 . S
C2044 C2046 1.419 . S
C2045 C2040 1.425 1_554 S
C2045 C2042 1.409 1_554 S
C2045 C2043 1.415 . S
C2046 H2036 0.938 . S
C2046 C2044 1.419 . S
C2046 C2047 1.362 . S
C2047 H2037 0.930 1_545 S
C2047 C2040 1.409 1_554 S
C2047 C2046 1.362 . S
H2048 C2054 0.930 . S
H2049 C2057 0.930 . S
H2050 C2058 0.930 1_554 S
H2051 C2059 0.930 . S
H2052 C2062 0.930 . S
H2053 C2063 0.930 1_556 S
C2054 H2048 0.930 . S
C2054 C2055 1.355 . S
C2054 C2056 1.415 . S
C2055 C2054 1.355 . S
C2055 C2057 1.419 . S
C2056 C2054 1.415 . S
C2056 C2061 1.425 1_556 S
C2056 C2063 1.409 1_556 S
C2057 H2049 0.930 . S
C2057 C2055 1.419 . S
C2057 C2058 1.362 . S
C2058 H2050 0.930 1_556 S
C2058 C2057 1.362 . S
C2058 C2061 1.409 1_556 S
C2059 H2051 0.930 . S
C2059 C2060 1.355 . S
C2059 C2061 1.415 . S
C2060 C2059 1.355 . S
C2060 C2062 1.419 . S
C2061 C2056 1.425 1_554 S
C2061 C2058 1.409 1_554 S
C2061 C2059 1.415 . S
C2062 H2052 0.930 . S
C2062 C2060 1.419 . S
C2062 C2063 1.362 . S
C2063 H2053 0.930 1_554 S
C2063 C2056 1.409 1_554 S
C2063 C2062 1.362 . S
H2064 C2070 0.930 . S
H2065 C2073 0.930 . S
H2066 C2074 0.930 . S
H2067 C2075 0.930 . S
H2068 C2078 0.930 . S
H2069 C2079 0.930 . S
C2070 H2064 0.930 . S
C2070 C2071 1.355 . S
C2070 C2072 1.415 . S
C2071 C2070 1.355 . S
C2071 C2073 1.419 . S
C2072 C2070 1.415 . S
C2072 C2077 1.425 . S
C2072 C2079 1.409 . S
C2073 H2065 0.930 . S
C2073 C2071 1.419 . S
C2073 C2074 1.362 . S
C2074 H2066 0.930 . S
C2074 C2073 1.362 . S
C2074 C2077 1.409 . S
C2075 H2067 0.930 . S
C2075 C2076 1.355 . S
C2075 C2077 1.415 . S
C2076 C2075 1.355 . S
C2076 C2078 1.419 . S
C2077 C2072 1.425 . S
C2077 C2074 1.409 . S
C2077 C2075 1.415 . S
C2078 H2068 0.930 . S
C2078 C2076 1.419 . S
C2078 C2079 1.362 . S
C2079 H2069 0.930 . S
C2079 C2072 1.409 . S
C2079 C2078 1.362 . S
H2080 C2086 0.930 . S
H2081 C2089 0.930 . S
H2082 C2090 0.930 . S
H2083 C2091 0.930 . S
H2084 C2094 0.930 . S
H2085 C2095 0.930 . S
C2086 H2080 0.930 . S
C2086 C2087 1.355 . S
C2086 C2088 1.415 . S
C2087 C2086 1.355 . S
C2087 C2089 1.419 . S
C2088 C2086 1.415 . S
C2088 C2093 1.425 . S
C2088 C2095 1.409 . S
C2089 H2081 0.930 . S
C2089 C2087 1.419 . S
C2089 C2090 1.362 . S
C2090 H2082 0.930 . S
C2090 C2089 1.362 . S
C2090 C2093 1.409 . S
C2091 H2083 0.930 . S
C2091 C2092 1.355 . S
C2091 C2093 1.415 . S
C2092 C2091 1.355 . S
C2092 C2094 1.419 . S
C2093 C2088 1.425 . S
C2093 C2090 1.409 . S
C2093 C2091 1.415 . S
C2094 H2084 0.930 . S
C2094 C2092 1.419 . S
C2094 C2095 1.362 . S
C2095 H2085 0.930 . S
C2095 C2088 1.409 . S
C2095 C2094 1.362 . S
H2096 C2102 0.930 . S
H2097 C2105 0.930 . S
H2098 C2106 0.930 1_455 S
H2099 C2107 0.930 . S
H2100 C2110 0.930 . S
H2101 C2111 0.930 1_655 S
C2102 H2096 0.930 . S
C2102 C2103 1.355 . S
C2102 C2104 1.415 . S
C2103 C2102 1.355 . S
C2103 C2105 1.419 . S
C2104 C2102 1.415 . S
C2104 C2109 1.425 1_655 S
C2104 C2111 1.409 1_655 S
C2105 H2097 0.930 . S
C2105 C2103 1.419 . S
C2105 C2106 1.362 . S
C2106 H2098 0.930 1_655 S
C2106 C2105 1.362 . S
C2106 C2109 1.409 1_655 S
C2107 H2099 0.930 . S
C2107 C2108 1.355 . S
C2107 C2109 1.415 . S
C2108 C2107 1.355 . S
C2108 C2110 1.419 . S
C2109 C2104 1.425 1_455 S
C2109 C2106 1.409 1_455 S
C2109 C2107 1.415 . S
C2110 H2100 0.930 . S
C2110 C2108 1.419 . S
C2110 C2111 1.362 . S
C2111 H2101 0.930 1_455 S
C2111 C2104 1.409 1_455 S
C2111 C2110 1.362 . S
H2112 C2118 0.930 . S
H2113 C2121 0.930 . S
H2114 C2122 0.930 1_565 S
H2115 C2123 0.930 . S
H2116 C2126 0.930 . S
H2117 C2127 0.930 1_545 S
C2118 H2112 0.930 . S
C2118 C2119 1.355 . S
C2118 C2120 1.415 . S
C2119 C2118 1.355 . S
C2119 C2121 1.419 . S
C2120 C2118 1.415 . S
C2120 C2125 1.425 1_545 S
C2120 C2127 1.409 1_545 S
C2121 H2113 0.930 . S
C2121 C2119 1.419 . S
C2121 C2122 1.362 . S
C2122 H2114 0.930 1_545 S
C2122 C2121 1.362 . S
C2122 C2125 1.409 1_545 S
C2123 H2115 0.930 . S
C2123 C2124 1.355 . S
C2123 C2125 1.415 . S
C2124 C2123 1.355 . S
C2124 C2126 1.419 . S
C2125 C2120 1.425 1_565 S
C2125 C2122 1.409 1_565 S
C2125 C2123 1.415 . S
C2126 H2116 0.930 . S
C2126 C2124 1.419 . S
C2126 C2127 1.362 . S
C2127 H2117 0.930 1_565 S
C2127 C2120 1.409 1_565 S
C2127 C2126 1.362 . S
H2128 C2134 0.930 . S
H2129 C2137 0.930 . S
H2130 C2138 0.930 . S
H2131 C2139 0.930 . S
H2132 C2142 0.930 . S
H2133 C2143 0.930 . S
C2134 H2128 0.930 . S
C2134 C2135 1.355 . S
C2134 C2136 1.415 . S
C2135 C2134 1.355 . S
C2135 C2137 1.419 . S
C2136 C2134 1.415 . S
C2136 C2141 1.425 . S
C2136 C2143 1.409 . S
C2137 H2129 0.930 . S
C2137 C2135 1.419 . S
C2137 C2138 1.362 . S
C2138 H2130 0.930 . S
C2138 C2137 1.362 . S
C2138 C2141 1.409 . S
C2139 H2131 0.930 . S
C2139 C2140 1.355 . S
C2139 C2141 1.415 . S
C2140 C2139 1.355 . S
C2140 C2142 1.419 . S
C2141 C2136 1.425 . S
C2141 C2138 1.409 . S
C2141 C2139 1.415 . S
C2142 H2132 0.930 . S
C2142 C2140 1.419 . S
C2142 C2143 1.362 . S
C2143 H2133 0.930 . S
C2143 C2136 1.409 . S
C2143 C2142 1.362 . S
H2144 C2150 0.930 . S
H2145 C2153 0.930 1_554 S
H2146 C2154 0.930 1_554 S
H2147 C2155 0.930 . S
H2148 C2158 0.930 . S
H2149 C2159 0.930 . S
C2150 H2144 0.930 . S
C2150 C2151 1.355 . S
C2150 C2152 1.415 . S
C2151 C2150 1.355 . S
C2151 C2153 1.419 . S
C2152 C2150 1.415 . S
C2152 C2157 1.425 1_455 S
C2152 C2159 1.409 1_455 S
C2153 H2145 0.930 1_556 S
C2153 C2151 1.419 . S
C2153 C2154 1.362 . S
C2154 H2146 0.930 1_556 S
C2154 C2153 1.362 . S
C2154 C2157 1.409 1_455 S
C2155 H2147 0.930 . S
C2155 C2156 1.355 . S
C2155 C2157 1.415 . S
C2156 C2155 1.355 . S
C2156 C2158 1.419 . S
C2157 C2152 1.425 1_655 S
C2157 C2154 1.409 1_655 S
C2157 C2155 1.415 . S
C2158 H2148 0.930 . S
C2158 C2156 1.419 . S
C2158 C2159 1.362 . S
C2159 H2149 0.930 . S
C2159 C2152 1.409 1_655 S
C2159 C2158 1.362 . S
H2160 C2166 0.930 . S
H2161 C2169 0.930 . S
H2162 C2170 0.951 . S
H2163 C2171 0.930 . S
H2164 C2174 0.930 . S
H2165 C2175 0.950 . S
C2166 H2160 0.930 . S
C2166 C2167 1.355 . S
C2166 C2168 1.415 . S
C2167 C2166 1.355 . S
C2167 C2169 1.419 . S
C2168 C2166 1.415 . S
C2168 C2173 1.425 1_545 S
C2168 C2175 1.419 . S
C2169 H2161 0.930 . S
C2169 C2167 1.419 . S
C2169 C2170 1.333 1_545 S
C2170 H2162 0.951 . S
C2170 C2169 1.333 1_565 S
C2170 C2173 1.419 . S
C2171 H2163 0.930 . S
C2171 C2172 1.355 . S
C2171 C2173 1.415 . S
C2172 C2171 1.355 . S
C2172 C2174 1.419 . S
C2173 C2168 1.425 1_565 S
C2173 C2170 1.419 . S
C2173 C2171 1.415 . S
C2174 H2164 0.930 . S
C2174 C2172 1.419 . S
C2174 C2175 1.333 1_565 S
C2175 H2165 0.950 . S
C2175 C2168 1.419 . S
C2175 C2174 1.333 1_545 S
H2176 C2182 0.930 . S
H2177 C2185 0.930 . S
H2178 C2186 0.930 . S
H2179 C2187 0.930 . S
H2180 C2190 0.930 . S
H2181 C2191 0.930 . S
C2182 H2176 0.930 . S
C2182 C2183 1.355 . S
C2182 C2184 1.415 . S
C2183 C2182 1.355 . S
C2183 C2185 1.419 . S
C2184 C2182 1.415 . S
C2184 C2189 1.425 . S
C2184 C2191 1.409 . S
C2185 H2177 0.930 . S
C2185 C2183 1.419 . S
C2185 C2186 1.362 . S
C2186 H2178 0.930 . S
C2186 C2185 1.362 . S
C2186 C2189 1.409 . S
C2187 H2179 0.930 . S
C2187 C2188 1.355 . S
C2187 C2189 1.415 . S
C2188 C2187 1.355 . S
C2188 C2190 1.419 . S
C2189 C2184 1.425 . S
C2189 C2186 1.409 . S
C2189 C2187 1.415 . S
C2190 H2180 0.930 . S
C2190 C2188 1.419 . S
C2190 C2191 1.362 . S
C2191 H2181 0.930 . S
C2191 C2184 1.409 . S
C2191 C2190 1.362 . S
H2192 C2198 0.930 . S
H2193 C2201 0.930 . S
H2194 C2202 0.930 . S
H2195 C2203 0.930 . S
H2196 C2206 0.930 . S
H2197 C2207 0.930 . S
C2198 H2192 0.930 . S
C2198 C2199 1.355 . S
C2198 C2200 1.415 . S
C2199 C2198 1.355 . S
C2199 C2201 1.419 . S
C2200 C2198 1.415 . S
C2200 C2205 1.425 1_455 S
C2200 C2207 1.409 . S
C2201 H2193 0.930 . S
C2201 C2199 1.419 . S
C2201 C2202 1.362 1_455 S
C2202 H2194 0.930 . S
C2202 C2201 1.362 1_655 S
C2202 C2205 1.409 . S
C2203 H2195 0.930 . S
C2203 C2204 1.355 . S
C2203 C2205 1.415 . S
C2204 C2203 1.355 . S
C2204 C2206 1.419 . S
C2205 C2200 1.425 1_655 S
C2205 C2202 1.409 . S
C2205 C2203 1.415 . S
C2206 H2196 0.930 . S
C2206 C2204 1.419 . S
C2206 C2207 1.362 1_655 S
C2207 H2197 0.930 . S
C2207 C2200 1.409 . S
C2207 C2206 1.362 1_455 S
C679 C22 1.726 . S
C684 C8 1.729 . S
C695 C36 1.737 . S
C700 C50 1.710 . S
C711 C92 1.711 . S
C716 C64 1.736 . S
C727 C106 1.727 . S
C732 C78 1.693 . S
C743 C120 1.693 . S
C748 C484 1.713 . S
C759 C134 1.737 . S
C764 C162 1.708 . S
C775 C456 1.692 . S
C780 C148 1.723 . S
C791 C190 1.714 . S
C796 C176 1.736 . S
C807 C218 1.692 . S
C812 C204 1.718 . S
C823 C260 1.727 . S
C828 C232 1.729 . S
C839 C274 1.736 . S
C844 C246 1.703 . S
C855 C288 1.709 . S
C860 C652 1.695 . S
C871 C302 1.712 . S
C876 C330 1.694 . S
C887 C624 1.720 . S
C892 C316 1.734 . S
C903 C344 1.725 . S
C908 C358 1.692 . S
C919 C386 1.712 . S
C924 C372 1.737 . S
C935 C400 1.736 . S
C940 C428 1.715 . S
C951 C442 1.697 . S
C956 C414 1.706 . S
C967 C498 1.701 . S
C972 C470 1.736 . S
C983 C526 1.706 . S
C988 C512 1.737 . S
C999 C540 1.693 . S
C1004 C554 1.727 . S
C1015 C596 1.697 . S
C1020 C568 1.706 . S
C1031 C582 1.734 . S
C1036 C610 1.720 . S
C1047 C638 1.733 . S
C1052 C666 1.722 . S
C1063 C619 1.332 . S
C1068 C7 1.302 . S
C1079 C325 1.379 . S
C1084 C21 1.328 . S
C1095 C633 1.387 . S
C1100 C35 1.340 . S
C1111 C49 1.334 . S
C1116 C647 1.349 . S
C1127 C63 1.373 . S
C1132 C507 1.383 . S
C1143 C521 1.380 . S
C1148 C77 1.330 . S
C1159 C91 1.341 . S
C1164 C535 1.387 . S
C1175 C549 1.345 . S
C1180 C105 1.290 . S
C1191 C563 1.356 . S
C1196 C119 1.344 . S
C1207 C133 1.373 . S
C1212 C591 1.400 . S
C1223 C605 1.400 . S
C1228 C147 1.373 . S
C1239 C161 1.290 . S
C1244 C241 1.331 . S
C1255 C175 1.340 . S
C1260 C451 1.353 . S
C1271 C189 1.311 . S
C1276 C157 1.336 . S
C1287 C203 1.291 . S
C1292 C465 1.330 . S
C1303 C217 1.369 . S
C1308 C479 1.399 . S
C1319 C339 1.339 . S
C1324 C231 1.317 . S
C1335 C353 1.363 . S
C1340 C245 1.307 . S
C1351 C259 1.286 . S
C1356 C367 1.336 . S
C1367 C273 1.347 . S
C1372 C381 1.358 . S
C1383 C287 1.298 . S
C1388 C395 1.354 . S
C1399 C301 1.291 . S
C1404 C423 1.331 . S
C1415 C437 1.348 . S
C1420 C315 1.292 . S
C1431 C73 1.367 . S
C1436 C329 1.312 . S
C1447 C343 1.320 . S
C1452 C283 1.340 . S
C1463 C357 1.288 . S
C1468 C661 1.332 . S
C1479 C371 1.307 . S
C1484 C297 1.363 . S
C1495 C385 1.355 . S
C1500 C311 1.365 . S
C1511 C171 1.367 . S
C1516 C399 1.312 . S
C1527 C413 1.298 . S
C1532 C185 1.354 . S
C1543 C199 1.381 . S
C1548 C427 1.330 . S
C1559 C213 1.367 . S
C1564 C441 1.358 . S
C1575 C227 1.385 . S
C1580 C455 1.337 . S
C1591 C255 1.375 . S
C1596 C469 1.322 . S
C1607 C483 1.338 . S
C1612 C269 1.385 . S
C1623 C497 1.377 . S
C1628 C577 1.390 . S
C1639 C115 1.369 . S
C1644 C511 1.360 . S
C1655 C525 1.331 . S
C1660 C493 1.347 . S
C1671 C539 1.330 . S
C1676 C129 1.380 . S
C1687 C143 1.335 . S
C1692 C553 1.286 . S
C1703 C567 1.326 . S
C1708 C3 1.378 . S
C1719 C581 1.301 . S
C1724 C17 1.357 . S
C1735 C31 1.351 . S
C1740 C595 1.295 . S
C1751 C609 1.292 . S
C1756 C45 1.348 . S
C1767 C623 1.356 . S
C1772 C59 1.395 . S
C1783 C87 1.349 . S
C1788 C637 1.334 . S
C1799 C651 1.329 . S
C1804 C101 1.380 . S
C1815 C409 1.390 . S
C1820 C665 1.346 . S
C1831 C37 0.979 . S
C1836 C9 1.069 . S
C1847 C51 0.967 . S
C1852 C23 0.999 . S
C1863 C443 1.065 . S
C1868 C65 0.964 . S
C1879 C429 1.064 . S
C1884 C79 0.963 . S
C1895 C415 1.068 . S
C1900 C93 0.989 . S
C1911 C107 0.956 . S
C1916 C401 1.059 . S
C1927 C121 1.023 . S
C1932 C499 1.053 . S
C1943 C149 1.060 . S
C1948 C135 1.011 . S
C1959 C163 0.951 . S
C1964 C457 1.034 . S
C1975 C205 1.036 . S
C1980 C177 0.951 . S
C1991 C219 0.977 . S
C1996 C191 0.987 . S
C2007 C611 1.007 . S
C2012 C233 0.963 . S
C2023 C597 1.055 . S
C2028 C247 1.020 . S
C2039 C261 0.956 . S
C2044 C583 1.019 . S
C2055 C275 1.057 . S
C2060 C569 1.017 . S
C2071 C667 0.998 . S
C2076 C289 1.066 . S
C2087 C317 1.003 . S
C2092 C303 1.064 . S
C2103 C331 0.976 . S
C2108 C625 1.068 . S
C2119 C373 1.021 . S
C2124 C345 1.054 . S
C2135 C359 1.058 . S
C2140 C387 1.015 . S
C2151 C485 1.059 . S
C2156 C471 0.956 . S
C2167 C513 1.043 . S
C2172 C541 1.036 . S
C2183 C527 0.950 . S
C2188 C555 1.038 . S
C2199 C639 1.034 . S
C2204 C653 1.045 . S
