# Generated by pormake.
# Topology smu, (6)-cn, num edge types: 1
# Building blocks:
#     Node 0, Type 0, BuildingBlock: VOLQOD_clean_sbu_1, # of connection points: 6
#     Node 1, Type 0, BuildingBlock: VOLQOD_clean_sbu_1, # of connection points: 6
#     Node 2, Type 0, BuildingBlock: VOLQOD_clean_sbu_1, # of connection points: 6
#     Node 3, Type 0, BuildingBlock: VOLQOD_clean_sbu_1, # of connection points: 6
#     Node 4, Type 0, BuildingBlock: VOLQOD_clean_sbu_1, # of connection points: 6
#     Node 5, Type 0, BuildingBlock: VOLQOD_clean_sbu_1, # of connection points: 6
#     Edge 6, Type (0, 0), BuildingBlock: EZIPEK_clean_linker_0, # of connection points: 2
#     Edge 7, Type (0, 0), BuildingBlock: EZIPEK_clean_linker_0, # of connection points: 2
#     Edge 8, Type (0, 0), BuildingBlock: EZIPEK_clean_linker_0, # of connection points: 2
#     Edge 9, Type (0, 0), BuildingBlock: EZIPEK_clean_linker_0, # of connection points: 2
#     Edge 10, Type (0, 0), BuildingBlock: EZIPEK_clean_linker_0, # of connection points: 2
#     Edge 11, Type (0, 0), BuildingBlock: EZIPEK_clean_linker_0, # of connection points: 2
#     Edge 12, Type (0, 0), BuildingBlock: EZIPEK_clean_linker_0, # of connection points: 2
#     Edge 13, Type (0, 0), BuildingBlock: EZIPEK_clean_linker_0, # of connection points: 2
#     Edge 14, Type (0, 0), BuildingBlock: EZIPEK_clean_linker_0, # of connection points: 2
#     Edge 15, Type (0, 0), BuildingBlock: EZIPEK_clean_linker_0, # of connection points: 2
#     Edge 16, Type (0, 0), BuildingBlock: EZIPEK_clean_linker_0, # of connection points: 2
#     Edge 17, Type (0, 0), BuildingBlock: EZIPEK_clean_linker_0, # of connection points: 2
#     Edge 18, Type (0, 0), BuildingBlock: EZIPEK_clean_linker_0, # of connection points: 2
#     Edge 19, Type (0, 0), BuildingBlock: EZIPEK_clean_linker_0, # of connection points: 2
#     Edge 20, Type (0, 0), BuildingBlock: EZIPEK_clean_linker_0, # of connection points: 2
#     Edge 21, Type (0, 0), BuildingBlock: EZIPEK_clean_linker_0, # of connection points: 2
#     Edge 22, Type (0, 0), BuildingBlock: EZIPEK_clean_linker_0, # of connection points: 2
#     Edge 23, Type (0, 0), BuildingBlock: EZIPEK_clean_linker_0, # of connection points: 2
# Relax obj value: 0.301
# Max RMSD: 0.244
# Mean RMSD: 0.244
data_MOF--net-smu--node1-VOLQOD_clean_sbu_1--edge1-EZIPEK_clean_linker_0
_symmetry_space_group_name_H-M    P1
_symmetry_Int_Tables_number       1
_symmetry_cell_setting            triclinic
loop_
_symmetry_equiv_pos_as_xyz
'x, y, z'
_cell_length_a     23.838364
_cell_length_b     23.803838
_cell_length_c     24.820468
_cell_angle_alpha  90.432314
_cell_angle_beta   90.09515
_cell_angle_gamma 120.04161
loop_
_atom_site_label
_atom_site_type_symbol
_atom_site_fract_x
_atom_site_fract_y
_atom_site_fract_z
_atom_type_partial_charge
O0 O 0.40267 0.21097 0.2099 0.0
Zn1 Zn 0.32028 0.12508 0.19445 0.0
O2 O 0.30307 0.06665 0.25266 0.0
Zn3 Zn 0.31456 -0.0049 0.23288 0.0
Zn4 Zn 0.36029 0.11728 0.3079 0.0
Zn5 Zn 0.2205 0.03688 0.28161 0.0
O6 O 0.23032 0.91005 0.24976 0.0
O7 O 0.16311 0.95017 0.25091 0.0
O8 O 0.3178 0.08003 0.12388 0.0
O9 O 0.32545 -0.00424 0.15206 0.0
O10 O 0.39925 0.00903 0.26545 0.0
O11 O 0.43842 0.11009 0.29652 0.0
O12 O 0.32446 0.08381 0.38186 0.0
O13 O 0.25361 0.15235 0.19414 0.0
O14 O 0.22076 0.02088 0.36093 0.0
O15 O 0.1919 0.10135 0.26497 0.0
C16 C 0.4103 0.24088 0.25476 0.0
C17 C 0.17317 0.90246 0.24862 0.0
C18 C 0.44647 0.06315 0.2821 0.0
C19 C 0.32154 0.02922 0.11392 0.0
C20 C 0.26664 0.0429 0.39536 0.0
C21 C 0.20883 0.14252 0.22705 0.0
O22 O 0.38419 0.20968 0.29763 0.0
O23 O 0.77792 0.55478 0.20893 0.0
Zn24 Zn 0.7809 0.6396 0.19196 0.0
O25 O 0.73693 0.66005 0.24655 0.0
Zn26 Zn 0.65732 0.6515 0.22076 0.0
Zn27 Zn 0.7231 0.60161 0.3018 0.0
Zn28 Zn 0.78944 0.74298 0.277 0.0
O29 O 0.65567 0.735 0.23669 0.0
O30 O 0.76312 0.80047 0.24293 0.0
O31 O 0.74761 0.64596 0.11736 0.0
O32 O 0.65946 0.65056 0.14015 0.0
O33 O 0.58161 0.56419 0.24491 0.0
O34 O 0.63785 0.52467 0.2856 0.0
O35 O 0.72067 0.6384 0.3749 0.0
O36 O 0.8758 0.70164 0.2006 0.0
O37 O 0.77125 0.74353 0.3561 0.0
O38 O 0.88279 0.77074 0.26472 0.0
C39 C 0.79878 0.54913 0.25493 0.0
C40 C 0.7063 0.79145 0.23565 0.0
C41 C 0.5853 0.51683 0.26518 0.0
C42 C 0.69783 0.65027 0.10471 0.0
C43 C 0.74225 0.69725 0.3892 0.0
C44 C 0.90921 0.7489 0.2326 0.0
O45 O 0.79137 0.57631 0.2966 0.0
O46 O 0.74592 0.18526 0.21764 0.0
Zn47 Zn 0.82903 0.18644 0.19708 0.0
O48 O 0.89276 0.22744 0.25321 0.0
Zn49 Zn 0.96619 0.30625 0.22914 0.0
Zn50 Zn 0.85065 0.24452 0.3089 0.0
Zn51 Zn 0.91771 0.17124 0.28409 0.0
O52 O 0.04876 0.30334 0.24483 0.0
O53 O 0.002 0.19531 0.25162 0.0
O54 O 0.86776 0.22386 0.12379 0.0
O55 O 0.96452 0.30569 0.14842 0.0
O56 O 0.95756 0.38403 0.25428 0.0
O57 O 0.86025 0.32947 0.2923 0.0
O58 O 0.89093 0.24899 0.38131 0.0
O59 O 0.7999 0.0921 0.19587 0.0
O60 O 0.93516 0.18802 0.36412 0.0
O61 O 0.85013 0.07884 0.26642 0.0
C62 C 0.72122 0.16805 0.26455 0.0
C63 C 0.0515 0.25095 0.24396 0.0
C64 C 0.90633 0.38154 0.27299 0.0
C65 C 0.92389 0.27088 0.11215 0.0
C66 C 0.92322 0.2225 0.39643 0.0
C67 C 0.80878 0.05592 0.22801 0.0
O68 O 0.75688 0.17781 0.30581 0.0
O69 O 0.20664 0.41406 0.79901 0.0
Zn70 Zn 0.12459 0.32966 0.81086 0.0
O71 O 0.06306 0.3142 0.75481 0.0
Zn72 Zn -0.00953 0.32069 0.78075 0.0
Zn73 Zn 0.10834 0.37544 0.70069 0.0
Zn74 Zn 0.03274 0.23167 0.72307 0.0
O75 O 0.90599 0.23718 0.76394 0.0
O76 O 0.94877 0.17266 0.75596 0.0
O77 O 0.08329 0.321 0.88477 0.0
O78 O -0.0071 0.32105 0.8614 0.0
O79 O -0.00105 0.40677 0.75735 0.0
O80 O 0.09432 0.44884 0.71606 0.0
O81 O 0.07228 0.33893 0.62628 0.0
O82 O 0.1584 0.26874 0.80026 0.0
O83 O 0.01492 0.23362 0.64434 0.0
O84 O 0.09734 0.20239 0.73442 0.0
C85 C 0.23528 0.42857 0.75354 0.0
C86 C 0.90068 0.18098 0.76377 0.0
C87 C 0.04873 0.4549 0.73661 0.0
C88 C 0.03019 0.31895 0.89705 0.0
C89 C 0.03407 0.28038 0.6115 0.0
C90 C 0.14514 0.22281 0.76698 0.0
O91 O 0.2038 0.40867 0.70927 0.0
O92 O 0.17549 0.75896 0.79245 0.0
Zn93 Zn 0.17963 0.84471 0.80934 0.0
O94 O 0.22049 0.90402 0.75162 0.0
Zn95 Zn 0.303 0.97599 0.77126 0.0
Zn96 Zn 0.22738 0.85428 0.69603 0.0
Zn97 Zn 0.16756 0.93374 0.72295 0.0
O98 O 0.30395 0.06015 0.75133 0.0
O99 O 0.19672 0.02 0.75448 0.0
O100 O 0.22294 0.88832 0.88026 0.0
O101 O 0.31107 0.97747 0.85229 0.0
O102 O 0.37392 0.96057 0.74109 0.0
O103 O 0.31222 0.86045 0.70788 0.0
O104 O 0.22631 0.88943 0.62257 0.0
O105 O 0.08557 0.81753 0.80988 0.0
O106 O 0.18442 0.95122 0.64381 0.0
O107 O 0.0746 0.86854 0.73906 0.0
C108 C 0.15218 0.73001 0.7474 0.0
C109 C 0.25449 0.06779 0.75402 0.0
C110 C 0.36703 0.90678 0.72348 0.0
C111 C 0.27546 0.94144 0.89019 0.0
C112 C 0.20918 0.93028 0.60936 0.0
C113 C 0.05045 0.82714 0.77683 0.0
O114 O 0.15771 0.76224 0.70507 0.0
O115 O 0.54671 0.78555 0.78452 0.0
Zn116 Zn 0.62945 0.7858 0.80461 0.0
O117 O 0.65168 0.74474 0.74815 0.0
Zn118 Zn 0.6461 0.66637 0.77344 0.0
Zn119 Zn 0.59278 0.72822 0.69158 0.0
Zn120 Zn 0.73334 0.80017 0.7181 0.0
O121 O 0.72976 0.66643 0.75599 0.0
O122 O 0.79232 0.77449 0.75088 0.0
O123 O 0.63214 0.74959 0.87851 0.0
O124 O 0.64864 0.66896 0.85377 0.0
O125 O 0.55674 0.59023 0.75385 0.0
O126 O 0.51711 0.64302 0.70759 0.0
O127 O 0.6294 0.72579 0.61908 0.0
O128 O 0.69393 0.88032 0.80469 0.0
O129 O 0.73445 0.78442 0.63803 0.0
O130 O 0.75893 0.89266 0.73572 0.0
C131 C 0.53884 0.80333 0.73793 0.0
C132 C 0.78528 0.71833 0.75774 0.0
C133 C 0.50964 0.5925 0.7312 0.0
C134 C 0.64257 0.70337 0.89009 0.0
C135 C 0.6884 0.75178 0.60481 0.0
C136 C 0.73973 0.91606 0.77308 0.0
O137 O 0.5649 0.79459 0.6963 0.0
C138 C 0.31827 0.03062 0.96127 0.0
C139 C 0.29348 0.96427 0.94715 0.0
C140 C 0.28427 0.93876 0.04292 0.0
C141 C 0.31682 0.00625 0.05674 0.0
N142 N 0.38547 0.11549 0.0245 0.0
N143 N 0.27377 0.85937 0.97633 0.0
C144 C 0.34075 0.05198 0.01449 0.0
C145 C 0.28351 0.91965 0.9885 0.0
N146 N 0.31573 0.07264 0.92575 0.0
N147 N 0.24924 0.89252 0.08006 0.0
H148 H 0.27614 0.84477 0.93707 0.0
H149 H 0.27127 0.82726 0.00587 0.0
H150 H 0.24028 0.90371 0.11837 0.0
H151 H 0.22132 0.84339 0.0701 0.0
H152 H 0.32907 0.12012 0.93665 0.0
H153 H 0.29178 0.05757 0.88882 0.0
H154 H 0.40694 0.14918 0.99371 0.0
H155 H 0.40704 0.1322 0.06224 0.0
C156 C 0.73713 0.70457 0.54226 0.0
C157 C 0.70376 0.73954 0.54959 0.0
C158 C 0.6903 0.74089 0.45183 0.0
C159 C 0.72952 0.71207 0.44444 0.0
N160 N 0.79975 0.67667 0.48223 0.0
N161 N 0.65819 0.80083 0.51141 0.0
C162 C 0.75569 0.69679 0.48957 0.0
C163 C 0.68306 0.76055 0.50435 0.0
N164 N 0.74821 0.67586 0.58525 0.0
N165 N 0.65735 0.7466 0.40908 0.0
H166 H 0.65253 0.81656 0.54931 0.0
H167 H 0.64876 0.82333 0.47964 0.0
H168 H 0.65995 0.73121 0.37019 0.0
H169 H 0.62258 0.76063 0.41311 0.0
H170 H 0.76566 0.64373 0.58132 0.0
H171 H 0.734 0.67894 0.62435 0.0
H172 H 0.82575 0.67165 0.51376 0.0
H173 H 0.8147 0.67064 0.44421 0.0
C174 C 0.96275 0.33984 0.02959 0.0
C175 C 0.94691 0.28095 0.05566 0.0
C176 C -0.01358 0.24687 0.9777 0.0
C177 C 0.00699 0.30801 0.95351 0.0
N178 N 0.02341 0.4163 0.95893 0.0
N179 N 0.95231 0.18235 0.05879 0.0
C180 C -0.00251 0.35554 0.9802 0.0
C181 C 0.96096 0.23542 0.03084 0.0
N182 N 0.94278 0.37976 0.05142 0.0
N183 N -0.01128 0.19871 0.9491 0.0
H184 H 0.93309 0.17145 0.09751 0.0
H185 H 0.96892 0.15171 0.04548 0.0
H186 H 0.00746 0.20498 0.91028 0.0
H187 H 0.96729 0.15085 0.96195 0.0
H188 H 0.94717 0.42043 0.03213 0.0
H189 H 0.91636 0.36889 0.08707 0.0
H190 H 0.02379 0.45518 0.97874 0.0
H191 H 0.04978 0.42949 0.92319 0.0
C192 C 0.29438 -0.00321 0.47568 0.0
C193 C 0.25294 0.01605 0.45087 0.0
C194 C 0.17745 0.96879 0.52622 0.0
C195 C 0.22345 0.95847 0.55432 0.0
N196 N 0.33493 0.98258 0.56042 0.0
N197 N 0.16203 0.03388 0.45997 0.0
C198 C 0.28468 0.97823 0.5305 0.0
C199 C 0.19641 0.00601 0.47829 0.0
N200 N 0.34097 -0.00725 0.4467 0.0
N201 N 0.11496 0.94107 0.54377 0.0
H202 H 0.17625 0.06452 0.4268 0.0
H203 H 0.12384 0.03259 0.48141 0.0
H204 H 0.09796 0.91036 0.57687 0.0
H205 H 0.07846 0.94259 0.5218 0.0
H206 H 0.36824 0.97352 0.46259 0.0
H207 H 0.34702 0.00072 0.40536 0.0
H208 H 0.38174 0.0021 0.54527 0.0
H209 H 0.33228 0.97465 0.6018 0.0
C210 C 0.61097 0.63309 0.97181 0.0
C211 C 0.65479 0.69232 0.94656 0.0
C212 C 0.72821 0.72354 0.02465 0.0
C213 C 0.6866 0.66222 0.04816 0.0
N214 N 0.59334 0.555 0.04166 0.0
N215 N 0.75952 0.78991 0.94452 0.0
C216 C 0.62924 0.61597 0.02101 0.0
C217 C 0.7146 0.73657 0.97182 0.0
N218 N 0.55118 0.59411 0.94928 0.0
N219 N 0.77934 0.77042 0.05365 0.0
H220 H 0.7512 0.80205 0.90622 0.0
H221 H 0.80696 0.81961 0.95792 0.0
H222 H 0.79167 0.76291 0.09218 0.0
H223 H 0.80671 0.81844 0.04141 0.0
H224 H 0.51435 0.5534 0.96804 0.0
H225 H 0.53634 0.60559 0.91346 0.0
H226 H 0.55439 0.51685 0.02156 0.0
H227 H 0.60602 0.54085 0.07721 0.0
C228 C 0.02006 0.26958 0.45837 0.0
C229 C 0.95161 0.23621 0.45151 0.0
C230 C 0.93852 0.2398 0.54911 0.0
C231 C 0.00635 0.26639 0.55625 0.0
N232 N 0.11076 0.29715 0.51838 0.0
N233 N 0.84508 0.17991 0.49073 0.0
C234 C 0.04695 0.27867 0.51106 0.0
C235 C 0.9106 0.2186 0.49702 0.0
N236 N 0.05954 0.29558 0.41484 0.0
N237 N 0.90111 0.23747 0.59166 0.0
H238 H 0.82292 0.16295 0.45321 0.0
H239 H 0.81342 0.15977 0.52296 0.0
H240 H 0.91994 0.25409 0.6302 0.0
H241 H 0.85275 0.22511 0.58763 0.0
H242 H 0.10939 0.32662 0.41824 0.0
H243 H 0.04189 0.29151 0.3757 0.0
H244 H 0.14093 0.29978 0.487 0.0
H245 H 0.13218 0.30443 0.55639 0.0
C246 C 0.54099 0.06293 0.23552 0.0
C247 C 0.514 0.07577 0.28189 0.0
C248 C 0.62285 0.15123 0.31557 0.0
C249 C 0.64992 0.13477 0.27147 0.0
N250 N 0.63231 0.05672 0.20095 0.0
N251 N 0.53017 0.11419 0.37395 0.0
C252 C 0.60832 0.08481 0.23501 0.0
C253 C 0.55541 0.11367 0.32471 0.0
N254 N 0.50441 0.03414 0.19047 0.0
N255 N 0.66009 0.20507 0.34662 0.0
H256 H 0.48089 0.08521 0.38231 0.0
H257 H 0.55905 0.13742 0.4076 0.0
H258 H 0.7087 0.23771 0.33875 0.0
H259 H 0.64058 0.22149 0.3762 0.0
H260 H 0.52467 0.0307 0.15426 0.0
H261 H 0.45547 0.01932 0.18697 0.0
H262 H 0.60257 0.01624 0.17711 0.0
H263 H 0.6807 0.06861 0.20139 0.0
C264 C 0.52152 0.41059 0.31004 0.0
C265 C 0.52916 0.44955 0.2647 0.0
C266 C 0.44592 0.35241 0.2176 0.0
C267 C 0.45041 0.3128 0.25802 0.0
N268 N 0.50649 0.3074 0.33776 0.0
N269 N 0.50374 0.45392 0.17049 0.0
C270 C 0.49171 0.34264 0.30322 0.0
C271 C 0.49238 0.41982 0.21711 0.0
N272 N 0.54332 0.43858 0.35959 0.0
N273 N 0.39643 0.32667 0.18081 0.0
H274 H 0.53816 0.50279 0.16689 0.0
H275 H 0.48258 0.43172 0.1338 0.0
H276 H 0.3591 0.2785 0.18168 0.0
H277 H 0.38844 0.35515 0.15362 0.0
H278 H 0.5346 0.41145 0.39455 0.0
H279 H 0.56319 0.48835 0.36627 0.0
H280 H 0.54067 0.3289 0.36863 0.0
H281 H 0.49148 0.25851 0.33157 0.0
C282 C 0.86291 0.44601 0.3156 0.0
C283 C 0.89593 0.43806 0.27143 0.0
C284 C 0.87927 0.51702 0.22156 0.0
C285 C 0.83321 0.5118 0.26057 0.0
N286 N 0.77188 0.45785 0.34045 0.0
N287 N 0.929 0.46212 0.17799 0.0
C288 C 0.82279 0.47308 0.30682 0.0
C289 C 0.90312 0.47297 0.22323 0.0
N290 N 0.86893 0.4264 0.36578 0.0
N291 N 0.90225 0.56512 0.18411 0.0
H292 H 0.94736 0.43071 0.17631 0.0
H293 H 0.92762 0.48104 0.14058 0.0
H294 H 0.8892 0.60079 0.18317 0.0
H295 H 0.94014 0.57405 0.15818 0.0
H296 H 0.84927 0.43541 0.40004 0.0
H297 H 0.89972 0.408 0.37358 0.0
H298 H 0.75999 0.42532 0.3721 0.0
H299 H 0.73671 0.47062 0.33286 0.0
C300 C 0.05236 0.5514 0.78475 0.0
C301 C 0.05772 0.52127 0.73683 0.0
C302 C 0.12682 0.62755 0.69743 0.0
C303 C 0.1181 0.65805 0.7435 0.0
N304 N 0.05272 0.64571 0.82194 0.0
N305 N 0.07895 0.53114 0.64143 0.0
C306 C 0.07462 0.61907 0.78445 0.0
C307 C 0.08735 0.55971 0.69096 0.0
N308 N 0.02999 0.51739 0.83143 0.0
N309 N 0.17573 0.66184 0.66181 0.0
H310 H 0.04859 0.48129 0.63542 0.0
H311 H 0.09611 0.55782 0.60613 0.0
H312 H 0.21086 0.71038 0.66768 0.0
H313 H 0.18632 0.6397 0.63012 0.0
H314 H 0.03264 0.53984 0.86834 0.0
H315 H 0.01362 0.46806 0.83466 0.0
H316 H 0.01675 0.61782 0.84963 0.0
H317 H 0.06442 0.69414 0.82119 0.0
C318 C 0.46118 0.90547 0.77001 0.0
C319 C 0.42188 0.89401 0.72344 0.0
C320 C 0.45684 0.82068 0.6877 0.0
C321 C 0.50016 0.83616 0.73194 0.0
N322 N 0.55906 0.91201 0.80432 0.0
N323 N 0.40095 0.85879 0.6305 0.0
C324 C 0.50736 0.8845 0.76974 0.0
C325 C 0.42631 0.85788 0.67966 0.0
N326 N 0.45225 0.93211 0.81585 0.0
N327 N 0.44104 0.768 0.6554 0.0
H328 H 0.38028 0.88765 0.62291 0.0
H329 H 0.40732 0.83698 0.59627 0.0
H330 H 0.45735 0.73545 0.66242 0.0
H331 H 0.40533 0.75224 0.62558 0.0
H332 H 0.47567 0.93457 0.85205 0.0
H333 H 0.41736 0.94586 0.81983 0.0
H334 H 0.56884 0.95135 0.82929 0.0
H335 H 0.59622 0.90108 0.80329 0.0
C336 C 0.34256 0.44178 0.72612 0.0
C337 C 0.30679 0.46725 0.75222 0.0
C338 C 0.40787 0.56409 0.77837 0.0
C339 C 0.44239 0.54381 0.74446 0.0
N340 N 0.44373 0.46531 0.68376 0.0
N341 N 0.305 0.55669 0.79724 0.0
C342 C 0.41021 0.48287 0.71795 0.0
C343 C 0.3393 0.52926 0.7773 0.0
N344 N 0.31235 0.37789 0.71092 0.0
N345 N 0.44094 0.61668 0.81181 0.0
H346 H 0.25457 0.53375 0.79575 0.0
H347 H 0.32673 0.60472 0.81055 0.0
H348 H 0.49146 0.64283 0.81418 0.0
H349 H 0.41845 0.63013 0.84103 0.0
H350 H 0.33696 0.35516 0.69627 0.0
H351 H 0.26335 0.34592 0.71791 0.0
H352 H 0.42152 0.42474 0.65846 0.0
H353 H 0.49372 0.49369 0.67854 0.0
C354 C 0.14231 0.18243 0.18029 0.0
C355 C 0.18106 0.18549 0.22486 0.0
C356 C 0.15562 0.26036 0.27236 0.0
C357 C 0.11166 0.25132 0.23054 0.0
N358 N 0.07995 0.22567 0.13804 0.0
N359 N 0.24177 0.2427 0.30444 0.0
C360 C 0.11143 0.22012 0.18189 0.0
C361 C 0.19345 0.22971 0.26813 0.0
N362 N 0.13165 0.14054 0.13841 0.0
N363 N 0.15851 0.29564 0.31691 0.0
H364 H 0.27087 0.22156 0.30179 0.0
H365 H 0.25666 0.27817 0.33445 0.0
H366 H 0.13481 0.32245 0.3182 0.0
H367 H 0.1831 0.29766 0.35222 0.0
H368 H 0.0984 0.13119 0.10754 0.0
H369 H 0.15329 0.11188 0.13604 0.0
H370 H 0.08164 0.20841 0.09977 0.0
H371 H 0.0573 0.25355 0.13939 0.0
C372 C 0.01941 0.7873 0.19132 0.0
C373 C -0.02034 0.77352 0.2376 0.0
C374 C 0.07584 0.82049 0.29562 0.0
C375 C 0.11474 0.83782 0.24912 0.0
N376 N 0.12414 0.80856 0.15903 0.0
N377 N 0.96964 0.75173 0.33339 0.0
C378 C 0.08643 0.81093 0.19894 0.0
C379 C 0.00767 0.78187 0.28987 0.0
N380 N -0.0051 0.78236 0.14063 0.0
N381 N 0.10415 0.84398 0.34473 0.0
H382 H 0.9199 0.7196 0.33009 0.0
H383 H -0.0115 0.75277 0.37152 0.0
H384 H 0.15447 0.87 0.3496 0.0
H385 H 0.07794 0.83984 0.37949 0.0
H386 H 0.02405 0.79739 0.10649 0.0
H387 H 0.94695 0.76949 0.13291 0.0
H388 H 0.10584 0.78633 0.12175 0.0
H389 H 0.17189 0.82086 0.16735 0.0
C390 C 0.72241 0.95148 0.26572 0.0
C391 C 0.76589 0.98521 0.2232 0.0
C392 C 0.7319 0.88257 0.17634 0.0
C393 C 0.70231 0.8498 0.22431 0.0
N394 N 0.65976 0.84888 0.31187 0.0
N395 N 0.81003 0.98421 0.13582 0.0
C396 C 0.69322 0.88293 0.26776 0.0
C397 C 0.76881 0.95129 0.17702 0.0
N398 N 0.70885 0.98506 0.30345 0.0
N399 N 0.72605 0.8471 0.13105 0.0
H400 H 0.83845 0.03466 0.13513 0.0
H401 H 0.81919 0.9615 0.10381 0.0
H402 H 0.69899 0.79643 0.13092 0.0
H403 H 0.74217 0.86741 0.09325 0.0
H404 H 0.67379 0.96291 0.33306 0.0
H405 H 0.72885 0.03533 0.30224 0.0
H406 H 0.65804 0.87033 0.34807 0.0
H407 H 0.63446 0.79826 0.31193 0.0
C408 C 0.20839 0.18666 0.70988 0.0
C409 C 0.19027 0.19722 0.76207 0.0
C410 C 0.26058 0.16101 0.80127 0.0
C411 C 0.2606 0.13225 0.75179 0.0
N412 N 0.24091 0.12209 0.65649 0.0
N413 N 0.19801 0.18993 0.85924 0.0
C414 C 0.23765 0.14768 0.70499 0.0
C415 C 0.21721 0.18466 0.80854 0.0
N416 N 0.19934 0.21494 0.66553 0.0
N417 N 0.30121 0.16431 0.84122 0.0
H418 H 0.16197 0.20138 0.867 0.0
H419 H 0.21306 0.17584 0.89348 0.0
H420 H 0.33473 0.14901 0.83433 0.0
H421 H 0.3068 0.1892 0.87739 0.0
H422 H 0.21627 0.21237 0.62744 0.0
H423 H 0.18177 0.24715 0.66779 0.0
H424 H 0.21766 0.12465 0.62178 0.0
H425 H 0.26511 0.09592 0.65214 0.0
C426 C 0.94863 0.74056 0.73402 0.0
C427 C -0.02025 0.78335 0.77831 0.0
C428 C 0.87478 0.7462 0.82064 0.0
C429 C 0.84453 0.71685 0.77122 0.0
N430 N 0.84855 0.67638 0.68357 0.0
N431 N 0.97376 0.82479 0.86594 0.0
C432 C 0.8802 0.70976 0.72909 0.0
C433 C 0.94333 0.78434 0.82306 0.0
N434 N -0.01546 0.72901 0.6974 0.0
N435 N 0.83711 0.73873 0.86439 0.0
H436 H 0.02398 0.85385 0.86889 0.0
H437 H 0.94927 0.83263 0.89713 0.0
H438 H 0.78662 0.71072 0.86235 0.0
H439 H 0.85551 0.75454 0.90307 0.0
H440 H 0.96443 0.69451 0.66662 0.0
H441 H 0.03476 0.7502 0.70056 0.0
H442 H 0.87172 0.67604 0.64816 0.0
H443 H 0.79806 0.64959 0.68157 0.0
C444 C 0.83392 0.09031 0.82308 0.0
C445 C 0.83857 0.12216 0.77419 0.0
C446 C 0.75894 0.01963 0.73264 0.0
C447 C 0.76721 -0.01322 0.77676 0.0
N448 N 0.80956 -0.01044 0.8659 0.0
N449 N 0.80089 0.12114 0.68443 0.0
C450 C 0.80241 0.0216 0.82332 0.0
C451 C 0.79832 0.08809 0.7299 0.0
N452 N 0.86175 0.12657 0.86845 0.0
N453 N 0.71314 0.98533 0.69403 0.0
H454 H 0.82647 0.17174 0.68351 0.0
H455 H 0.77933 0.09887 0.64794 0.0
H456 H 0.68277 0.9351 0.6957 0.0
H457 H 0.70129 0.00693 0.66313 0.0
H458 H 0.8562 0.10688 0.90671 0.0
H459 H 0.88521 0.17723 0.86798 0.0
H460 H 0.84035 0.01296 0.89845 0.0
H461 H 0.78779 0.93916 0.8673 0.0
loop_
_geom_bond_atom_site_label_1
_geom_bond_atom_site_label_2
_geom_bond_distance
_geom_bond_site_symmetry_2
_ccdc_geom_bond_type
O0 Zn1 1.953 . S
O0 C16 1.225 . S
Zn1 O0 1.953 . S
Zn1 O2 1.949 . S
Zn1 O8 1.919 . S
Zn1 O13 1.924 . S
O2 Zn1 1.949 . S
O2 Zn3 1.923 . S
O2 Zn4 1.950 . S
O2 Zn5 1.945 . S
Zn3 O2 1.923 . S
Zn3 O6 1.933 1_545 S
Zn3 O9 1.941 . S
Zn3 O10 1.965 . S
Zn4 O2 1.950 . S
Zn4 O11 1.938 . S
Zn4 O12 1.906 . S
Zn4 O22 1.953 . S
Zn5 O2 1.945 . S
Zn5 O7 1.932 1_545 S
Zn5 O14 1.977 . S
Zn5 O15 1.910 . S
O6 Zn3 1.933 1_565 S
O6 C17 1.226 . S
O7 Zn5 1.932 1_565 S
O7 C17 1.307 . S
O8 Zn1 1.919 . S
O8 C19 1.253 . S
O9 Zn3 1.941 . S
O9 C19 1.283 . S
O10 Zn3 1.965 . S
O10 C18 1.303 . S
O11 Zn4 1.938 . S
O11 C18 1.247 . S
O12 Zn4 1.906 . S
O12 C20 1.304 . S
O13 Zn1 1.924 . S
O13 C21 1.311 . S
O14 Zn5 1.977 . S
O14 C20 1.272 . S
O15 Zn5 1.910 . S
O15 C21 1.231 . S
C16 O0 1.225 . S
C16 O22 1.298 . S
C17 O6 1.226 . S
C17 O7 1.307 . S
C18 O10 1.303 . S
C18 O11 1.247 . S
C19 O8 1.253 . S
C19 O9 1.283 . S
C20 O12 1.304 . S
C20 O14 1.272 . S
C21 O13 1.311 . S
C21 O15 1.231 . S
O22 Zn4 1.953 . S
O22 C16 1.298 . S
O23 Zn24 1.953 . S
O23 C39 1.225 . S
Zn24 O23 1.953 . S
Zn24 O25 1.949 . S
Zn24 O31 1.919 . S
Zn24 O36 1.924 . S
O25 Zn24 1.949 . S
O25 Zn26 1.923 . S
O25 Zn27 1.950 . S
O25 Zn28 1.945 . S
Zn26 O25 1.923 . S
Zn26 O29 1.933 . S
Zn26 O32 1.941 . S
Zn26 O33 1.965 . S
Zn27 O25 1.950 . S
Zn27 O34 1.938 . S
Zn27 O35 1.906 . S
Zn27 O45 1.953 . S
Zn28 O25 1.945 . S
Zn28 O30 1.932 . S
Zn28 O37 1.977 . S
Zn28 O38 1.910 . S
O29 Zn26 1.933 . S
O29 C40 1.226 . S
O30 Zn28 1.932 . S
O30 C40 1.307 . S
O31 Zn24 1.919 . S
O31 C42 1.253 . S
O32 Zn26 1.941 . S
O32 C42 1.283 . S
O33 Zn26 1.965 . S
O33 C41 1.303 . S
O34 Zn27 1.938 . S
O34 C41 1.247 . S
O35 Zn27 1.906 . S
O35 C43 1.304 . S
O36 Zn24 1.924 . S
O36 C44 1.311 . S
O37 Zn28 1.977 . S
O37 C43 1.272 . S
O38 Zn28 1.910 . S
O38 C44 1.231 . S
C39 O23 1.225 . S
C39 O45 1.298 . S
C40 O29 1.226 . S
C40 O30 1.307 . S
C41 O33 1.303 . S
C41 O34 1.247 . S
C42 O31 1.253 . S
C42 O32 1.283 . S
C43 O35 1.304 . S
C43 O37 1.272 . S
C44 O36 1.311 . S
C44 O38 1.231 . S
O45 Zn27 1.953 . S
O45 C39 1.298 . S
O46 Zn47 1.953 . S
O46 C62 1.225 . S
Zn47 O46 1.953 . S
Zn47 O48 1.949 . S
Zn47 O54 1.919 . S
Zn47 O59 1.924 . S
O48 Zn47 1.949 . S
O48 Zn49 1.923 . S
O48 Zn50 1.950 . S
O48 Zn51 1.945 . S
Zn49 O48 1.923 . S
Zn49 O52 1.933 1_655 S
Zn49 O55 1.941 . S
Zn49 O56 1.965 . S
Zn50 O48 1.950 . S
Zn50 O57 1.938 . S
Zn50 O58 1.906 . S
Zn50 O68 1.953 . S
Zn51 O48 1.945 . S
Zn51 O53 1.932 1_655 S
Zn51 O60 1.977 . S
Zn51 O61 1.910 . S
O52 Zn49 1.933 1_455 S
O52 C63 1.226 . S
O53 Zn51 1.932 1_455 S
O53 C63 1.307 . S
O54 Zn47 1.919 . S
O54 C65 1.253 . S
O55 Zn49 1.941 . S
O55 C65 1.283 . S
O56 Zn49 1.965 . S
O56 C64 1.303 . S
O57 Zn50 1.938 . S
O57 C64 1.247 . S
O58 Zn50 1.906 . S
O58 C66 1.304 . S
O59 Zn47 1.924 . S
O59 C67 1.311 . S
O60 Zn51 1.977 . S
O60 C66 1.272 . S
O61 Zn51 1.910 . S
O61 C67 1.231 . S
C62 O46 1.225 . S
C62 O68 1.298 . S
C63 O52 1.226 . S
C63 O53 1.307 . S
C64 O56 1.303 . S
C64 O57 1.247 . S
C65 O54 1.253 . S
C65 O55 1.283 . S
C66 O58 1.304 . S
C66 O60 1.272 . S
C67 O59 1.311 . S
C67 O61 1.231 . S
O68 Zn50 1.953 . S
O68 C62 1.298 . S
O69 Zn70 1.953 . S
O69 C85 1.225 . S
Zn70 O69 1.953 . S
Zn70 O71 1.949 . S
Zn70 O77 1.919 . S
Zn70 O82 1.924 . S
O71 Zn70 1.949 . S
O71 Zn72 1.923 . S
O71 Zn73 1.950 . S
O71 Zn74 1.945 . S
Zn72 O71 1.923 . S
Zn72 O75 1.933 1_455 S
Zn72 O78 1.941 . S
Zn72 O79 1.965 . S
Zn73 O71 1.950 . S
Zn73 O80 1.938 . S
Zn73 O81 1.906 . S
Zn73 O91 1.953 . S
Zn74 O71 1.945 . S
Zn74 O76 1.932 1_455 S
Zn74 O83 1.977 . S
Zn74 O84 1.910 . S
O75 Zn72 1.933 1_655 S
O75 C86 1.226 . S
O76 Zn74 1.932 1_655 S
O76 C86 1.307 . S
O77 Zn70 1.919 . S
O77 C88 1.253 . S
O78 Zn72 1.941 . S
O78 C88 1.283 . S
O79 Zn72 1.965 . S
O79 C87 1.303 . S
O80 Zn73 1.938 . S
O80 C87 1.247 . S
O81 Zn73 1.906 . S
O81 C89 1.304 . S
O82 Zn70 1.924 . S
O82 C90 1.311 . S
O83 Zn74 1.977 . S
O83 C89 1.272 . S
O84 Zn74 1.910 . S
O84 C90 1.231 . S
C85 O69 1.225 . S
C85 O91 1.298 . S
C86 O75 1.226 . S
C86 O76 1.307 . S
C87 O79 1.303 . S
C87 O80 1.247 . S
C88 O77 1.253 . S
C88 O78 1.283 . S
C89 O81 1.304 . S
C89 O83 1.272 . S
C90 O82 1.311 . S
C90 O84 1.231 . S
O91 Zn73 1.953 . S
O91 C85 1.298 . S
O92 Zn93 1.953 . S
O92 C108 1.225 . S
Zn93 O92 1.953 . S
Zn93 O94 1.949 . S
Zn93 O100 1.919 . S
Zn93 O105 1.924 . S
O94 Zn93 1.949 . S
O94 Zn95 1.923 . S
O94 Zn96 1.950 . S
O94 Zn97 1.945 . S
Zn95 O94 1.923 . S
Zn95 O98 1.933 1_565 S
Zn95 O101 1.941 . S
Zn95 O102 1.965 . S
Zn96 O94 1.950 . S
Zn96 O103 1.938 . S
Zn96 O104 1.906 . S
Zn96 O114 1.953 . S
Zn97 O94 1.945 . S
Zn97 O99 1.932 1_565 S
Zn97 O106 1.977 . S
Zn97 O107 1.910 . S
O98 Zn95 1.933 1_545 S
O98 C109 1.226 . S
O99 Zn97 1.932 1_545 S
O99 C109 1.307 . S
O100 Zn93 1.919 . S
O100 C111 1.253 . S
O101 Zn95 1.941 . S
O101 C111 1.283 . S
O102 Zn95 1.965 . S
O102 C110 1.303 . S
O103 Zn96 1.938 . S
O103 C110 1.247 . S
O104 Zn96 1.906 . S
O104 C112 1.304 . S
O105 Zn93 1.924 . S
O105 C113 1.311 . S
O106 Zn97 1.977 . S
O106 C112 1.272 . S
O107 Zn97 1.910 . S
O107 C113 1.231 . S
C108 O92 1.225 . S
C108 O114 1.298 . S
C109 O98 1.226 . S
C109 O99 1.307 . S
C110 O102 1.303 . S
C110 O103 1.247 . S
C111 O100 1.253 . S
C111 O101 1.283 . S
C112 O104 1.304 . S
C112 O106 1.272 . S
C113 O105 1.311 . S
C113 O107 1.231 . S
O114 Zn96 1.953 . S
O114 C108 1.298 . S
O115 Zn116 1.953 . S
O115 C131 1.225 . S
Zn116 O115 1.953 . S
Zn116 O117 1.949 . S
Zn116 O123 1.919 . S
Zn116 O128 1.924 . S
O117 Zn116 1.949 . S
O117 Zn118 1.923 . S
O117 Zn119 1.950 . S
O117 Zn120 1.945 . S
Zn118 O117 1.923 . S
Zn118 O121 1.933 . S
Zn118 O124 1.941 . S
Zn118 O125 1.965 . S
Zn119 O117 1.950 . S
Zn119 O126 1.938 . S
Zn119 O127 1.906 . S
Zn119 O137 1.953 . S
Zn120 O117 1.945 . S
Zn120 O122 1.932 . S
Zn120 O129 1.977 . S
Zn120 O130 1.910 . S
O121 Zn118 1.933 . S
O121 C132 1.226 . S
O122 Zn120 1.932 . S
O122 C132 1.307 . S
O123 Zn116 1.919 . S
O123 C134 1.253 . S
O124 Zn118 1.941 . S
O124 C134 1.283 . S
O125 Zn118 1.965 . S
O125 C133 1.303 . S
O126 Zn119 1.938 . S
O126 C133 1.247 . S
O127 Zn119 1.906 . S
O127 C135 1.304 . S
O128 Zn116 1.924 . S
O128 C136 1.311 . S
O129 Zn120 1.977 . S
O129 C135 1.272 . S
O130 Zn120 1.910 . S
O130 C136 1.231 . S
C131 O115 1.225 . S
C131 O137 1.298 . S
C132 O121 1.226 . S
C132 O122 1.307 . S
C133 O125 1.303 . S
C133 O126 1.247 . S
C134 O123 1.253 . S
C134 O124 1.283 . S
C135 O127 1.304 . S
C135 O129 1.272 . S
C136 O128 1.311 . S
C136 O130 1.231 . S
O137 Zn119 1.953 . S
O137 C131 1.298 . S
C138 C139 1.363 1_545 S
C138 C144 1.388 . S
C138 N146 1.356 . S
C139 C138 1.363 1_565 S
C139 C145 1.354 1_556 S
C140 C141 1.363 1_565 S
C140 C145 1.388 . S
C140 N147 1.356 . S
C141 C140 1.363 1_545 S
C141 C144 1.354 1_554 S
N142 C144 1.353 1_554 S
N142 H154 0.984 1_554 S
N142 H155 0.985 . S
N143 C145 1.353 1_556 S
N143 H148 0.984 . S
N143 H149 0.985 1_556 S
C144 C138 1.388 . S
C144 C141 1.354 1_556 S
C144 N142 1.353 1_556 S
C145 C139 1.354 1_554 S
C145 C140 1.388 . S
C145 N143 1.353 1_554 S
N146 C138 1.356 . S
N146 H152 0.984 . S
N146 H153 0.984 . S
N147 C140 1.356 . S
N147 H150 0.984 . S
N147 H151 0.985 . S
H148 N143 0.984 . S
H149 N143 0.985 1_554 S
H150 N147 0.984 . S
H151 N147 0.985 . S
H152 N146 0.984 . S
H153 N146 0.984 . S
H154 N142 0.984 1_556 S
H155 N142 0.985 . S
C156 C157 1.363 . S
C156 C162 1.379 . S
C156 N164 1.356 . S
C157 C156 1.363 . S
C157 C163 1.363 . S
C158 C159 1.363 . S
C158 C163 1.379 . S
C158 N165 1.356 . S
C159 C158 1.363 . S
C159 C162 1.363 . S
N160 C162 1.356 . S
N160 H172 0.984 . S
N160 H173 0.985 . S
N161 C163 1.356 . S
N161 H166 0.984 . S
N161 H167 0.985 . S
C162 C156 1.379 . S
C162 C159 1.363 . S
C162 N160 1.356 . S
C163 C157 1.363 . S
C163 C158 1.379 . S
C163 N161 1.356 . S
N164 C156 1.356 . S
N164 H170 0.984 . S
N164 H171 0.984 . S
N165 C158 1.356 . S
N165 H168 0.984 . S
N165 H169 0.985 . S
H166 N161 0.984 . S
H167 N161 0.985 . S
H168 N165 0.984 . S
H169 N165 0.985 . S
H170 N164 0.984 . S
H171 N164 0.984 . S
H172 N160 0.984 . S
H173 N160 0.985 . S
C174 C175 1.363 . S
C174 C180 1.379 1_554 S
C174 N182 1.356 . S
C175 C174 1.363 . S
C175 C181 1.363 1_655 S
C176 C177 1.363 . S
C176 C181 1.379 1_556 S
C176 N183 1.356 . S
C177 C176 1.363 . S
C177 C180 1.363 1_455 S
N178 C180 1.356 . S
N178 H190 0.984 . S
N178 H191 0.985 1_655 S
N179 C181 1.356 . S
N179 H184 0.984 1_455 S
N179 H185 0.985 . S
C180 C174 1.379 1_556 S
C180 C177 1.363 1_655 S
C180 N178 1.356 . S
C181 C175 1.363 1_455 S
C181 C176 1.379 1_554 S
C181 N179 1.356 . S
N182 C174 1.356 . S
N182 H188 0.984 . S
N182 H189 0.984 . S
N183 C176 1.356 . S
N183 H186 0.984 . S
N183 H187 0.985 . S
H184 N179 0.984 1_655 S
H185 N179 0.985 . S
H186 N183 0.984 . S
H187 N183 0.985 . S
H188 N182 0.984 . S
H189 N182 0.984 . S
H190 N178 0.984 . S
H191 N178 0.985 1_455 S
C192 C193 1.363 . S
C192 C198 1.379 1_545 S
C192 N200 1.356 . S
C193 C192 1.363 . S
C193 C199 1.363 . S
C194 C195 1.363 . S
C194 C199 1.379 1_565 S
C194 N201 1.356 . S
C195 C194 1.363 . S
C195 C198 1.363 . S
N196 C198 1.356 . S
N196 H208 0.984 . S
N196 H209 0.985 . S
N197 C199 1.356 . S
N197 H202 0.984 . S
N197 H203 0.985 . S
C198 C192 1.379 1_565 S
C198 C195 1.363 . S
C198 N196 1.356 . S
C199 C193 1.363 . S
C199 C194 1.379 1_545 S
C199 N197 1.356 . S
N200 C192 1.356 . S
N200 H206 0.984 . S
N200 H207 0.984 . S
N201 C194 1.356 . S
N201 H204 0.984 . S
N201 H205 0.985 . S
H202 N197 0.984 . S
H203 N197 0.985 . S
H204 N201 0.984 . S
H205 N201 0.985 . S
H206 N200 0.984 . S
H207 N200 0.984 . S
H208 N196 0.984 . S
H209 N196 0.985 . S
C210 C211 1.363 . S
C210 C216 1.379 1_556 S
C210 N218 1.356 . S
C211 C210 1.363 . S
C211 C217 1.363 . S
C212 C213 1.363 . S
C212 C217 1.379 1_554 S
C212 N219 1.356 . S
C213 C212 1.363 . S
C213 C216 1.363 . S
N214 C216 1.356 . S
N214 H226 0.984 . S
N214 H227 0.985 . S
N215 C217 1.356 . S
N215 H220 0.984 . S
N215 H221 0.985 . S
C216 C210 1.379 1_554 S
C216 C213 1.363 . S
C216 N214 1.356 . S
C217 C211 1.363 . S
C217 C212 1.379 1_556 S
C217 N215 1.356 . S
N218 C210 1.356 . S
N218 H224 0.984 . S
N218 H225 0.984 . S
N219 C212 1.356 . S
N219 H222 0.984 . S
N219 H223 0.985 . S
H220 N215 0.984 . S
H221 N215 0.985 . S
H222 N219 0.984 . S
H223 N219 0.985 . S
H224 N218 0.984 . S
H225 N218 0.984 . S
H226 N214 0.984 . S
H227 N214 0.985 . S
C228 C229 1.363 1_455 S
C228 C234 1.379 . S
C228 N236 1.356 . S
C229 C228 1.363 1_655 S
C229 C235 1.363 . S
C230 C231 1.363 1_655 S
C230 C235 1.379 . S
C230 N237 1.356 . S
C231 C230 1.363 1_455 S
C231 C234 1.363 . S
N232 C234 1.356 . S
N232 H244 0.984 . S
N232 H245 0.985 . S
N233 C235 1.356 . S
N233 H238 0.984 . S
N233 H239 0.985 . S
C234 C228 1.379 . S
C234 C231 1.363 . S
C234 N232 1.356 . S
C235 C229 1.363 . S
C235 C230 1.379 . S
C235 N233 1.356 . S
N236 C228 1.356 . S
N236 H242 0.984 . S
N236 H243 0.984 1_455 S
N237 C230 1.356 . S
N237 H240 0.984 1_655 S
N237 H241 0.985 . S
H238 N233 0.984 . S
H239 N233 0.985 . S
H240 N237 0.984 1_455 S
H241 N237 0.985 . S
H242 N236 0.984 . S
H243 N236 0.984 1_655 S
H244 N232 0.984 . S
H245 N232 0.985 . S
C246 C247 1.363 . S
C246 C252 1.379 . S
C246 N254 1.356 . S
C247 C246 1.363 . S
C247 C253 1.363 . S
C248 C249 1.363 . S
C248 C253 1.379 . S
C248 N255 1.356 . S
C249 C248 1.363 . S
C249 C252 1.363 . S
N250 C252 1.356 . S
N250 H262 0.984 . S
N250 H263 0.985 . S
N251 C253 1.356 . S
N251 H256 0.984 . S
N251 H257 0.985 . S
C252 C246 1.379 . S
C252 C249 1.363 . S
C252 N250 1.356 . S
C253 C247 1.363 . S
C253 C248 1.379 . S
C253 N251 1.356 . S
N254 C246 1.356 . S
N254 H260 0.984 . S
N254 H261 0.984 . S
N255 C248 1.356 . S
N255 H258 0.984 . S
N255 H259 0.985 . S
H256 N251 0.984 . S
H257 N251 0.985 . S
H258 N255 0.984 . S
H259 N255 0.985 . S
H260 N254 0.984 . S
H261 N254 0.984 . S
H262 N250 0.984 . S
H263 N250 0.985 . S
C264 C265 1.363 . S
C264 C270 1.379 . S
C264 N272 1.356 . S
C265 C264 1.363 . S
C265 C271 1.363 . S
C266 C267 1.363 . S
C266 C271 1.379 . S
C266 N273 1.356 . S
C267 C266 1.363 . S
C267 C270 1.363 . S
N268 C270 1.356 . S
N268 H280 0.984 . S
N268 H281 0.985 . S
N269 C271 1.356 . S
N269 H274 0.984 . S
N269 H275 0.985 . S
C270 C264 1.379 . S
C270 C267 1.363 . S
C270 N268 1.356 . S
C271 C265 1.363 . S
C271 C266 1.379 . S
C271 N269 1.356 . S
N272 C264 1.356 . S
N272 H278 0.984 . S
N272 H279 0.984 . S
N273 C266 1.356 . S
N273 H276 0.984 . S
N273 H277 0.985 . S
H274 N269 0.984 . S
H275 N269 0.985 . S
H276 N273 0.984 . S
H277 N273 0.985 . S
H278 N272 0.984 . S
H279 N272 0.984 . S
H280 N268 0.984 . S
H281 N268 0.985 . S
C282 C283 1.363 . S
C282 C288 1.379 . S
C282 N290 1.356 . S
C283 C282 1.363 . S
C283 C289 1.363 . S
C284 C285 1.363 . S
C284 C289 1.379 . S
C284 N291 1.356 . S
C285 C284 1.363 . S
C285 C288 1.363 . S
N286 C288 1.356 . S
N286 H298 0.984 . S
N286 H299 0.985 . S
N287 C289 1.356 . S
N287 H292 0.984 . S
N287 H293 0.985 . S
C288 C282 1.379 . S
C288 C285 1.363 . S
C288 N286 1.356 . S
C289 C283 1.363 . S
C289 C284 1.379 . S
C289 N287 1.356 . S
N290 C282 1.356 . S
N290 H296 0.984 . S
N290 H297 0.984 . S
N291 C284 1.356 . S
N291 H294 0.984 . S
N291 H295 0.985 . S
H292 N287 0.984 . S
H293 N287 0.985 . S
H294 N291 0.984 . S
H295 N291 0.985 . S
H296 N290 0.984 . S
H297 N290 0.984 . S
H298 N286 0.984 . S
H299 N286 0.985 . S
C300 C301 1.363 . S
C300 C306 1.379 . S
C300 N308 1.356 . S
C301 C300 1.363 . S
C301 C307 1.363 . S
C302 C303 1.363 . S
C302 C307 1.379 . S
C302 N309 1.356 . S
C303 C302 1.363 . S
C303 C306 1.363 . S
N304 C306 1.356 . S
N304 H316 0.984 . S
N304 H317 0.985 . S
N305 C307 1.356 . S
N305 H310 0.984 . S
N305 H311 0.985 . S
C306 C300 1.379 . S
C306 C303 1.363 . S
C306 N304 1.356 . S
C307 C301 1.363 . S
C307 C302 1.379 . S
C307 N305 1.356 . S
N308 C300 1.356 . S
N308 H314 0.984 . S
N308 H315 0.984 . S
N309 C302 1.356 . S
N309 H312 0.984 . S
N309 H313 0.985 . S
H310 N305 0.984 . S
H311 N305 0.985 . S
H312 N309 0.984 . S
H313 N309 0.985 . S
H314 N308 0.984 . S
H315 N308 0.984 . S
H316 N304 0.984 . S
H317 N304 0.985 . S
C318 C319 1.363 . S
C318 C324 1.379 . S
C318 N326 1.356 . S
C319 C318 1.363 . S
C319 C325 1.363 . S
C320 C321 1.363 . S
C320 C325 1.379 . S
C320 N327 1.356 . S
C321 C320 1.363 . S
C321 C324 1.363 . S
N322 C324 1.356 . S
N322 H334 0.984 . S
N322 H335 0.985 . S
N323 C325 1.356 . S
N323 H328 0.984 . S
N323 H329 0.985 . S
C324 C318 1.379 . S
C324 C321 1.363 . S
C324 N322 1.356 . S
C325 C319 1.363 . S
C325 C320 1.379 . S
C325 N323 1.356 . S
N326 C318 1.356 . S
N326 H332 0.984 . S
N326 H333 0.984 . S
N327 C320 1.356 . S
N327 H330 0.984 . S
N327 H331 0.985 . S
H328 N323 0.984 . S
H329 N323 0.985 . S
H330 N327 0.984 . S
H331 N327 0.985 . S
H332 N326 0.984 . S
H333 N326 0.984 . S
H334 N322 0.984 . S
H335 N322 0.985 . S
C336 C337 1.363 . S
C336 C342 1.379 . S
C336 N344 1.356 . S
C337 C336 1.363 . S
C337 C343 1.363 . S
C338 C339 1.363 . S
C338 C343 1.379 . S
C338 N345 1.356 . S
C339 C338 1.363 . S
C339 C342 1.363 . S
N340 C342 1.356 . S
N340 H352 0.984 . S
N340 H353 0.985 . S
N341 C343 1.356 . S
N341 H346 0.984 . S
N341 H347 0.985 . S
C342 C336 1.379 . S
C342 C339 1.363 . S
C342 N340 1.356 . S
C343 C337 1.363 . S
C343 C338 1.379 . S
C343 N341 1.356 . S
N344 C336 1.356 . S
N344 H350 0.984 . S
N344 H351 0.984 . S
N345 C338 1.356 . S
N345 H348 0.984 . S
N345 H349 0.985 . S
H346 N341 0.984 . S
H347 N341 0.985 . S
H348 N345 0.984 . S
H349 N345 0.985 . S
H350 N344 0.984 . S
H351 N344 0.984 . S
H352 N340 0.984 . S
H353 N340 0.985 . S
C354 C355 1.363 . S
C354 C360 1.379 . S
C354 N362 1.356 . S
C355 C354 1.363 . S
C355 C361 1.363 . S
C356 C357 1.363 . S
C356 C361 1.379 . S
C356 N363 1.356 . S
C357 C356 1.363 . S
C357 C360 1.363 . S
N358 C360 1.356 . S
N358 H370 0.984 . S
N358 H371 0.985 . S
N359 C361 1.356 . S
N359 H364 0.984 . S
N359 H365 0.985 . S
C360 C354 1.379 . S
C360 C357 1.363 . S
C360 N358 1.356 . S
C361 C355 1.363 . S
C361 C356 1.379 . S
C361 N359 1.356 . S
N362 C354 1.356 . S
N362 H368 0.984 . S
N362 H369 0.984 . S
N363 C356 1.356 . S
N363 H366 0.984 . S
N363 H367 0.985 . S
H364 N359 0.984 . S
H365 N359 0.985 . S
H366 N363 0.984 . S
H367 N363 0.985 . S
H368 N362 0.984 . S
H369 N362 0.984 . S
H370 N358 0.984 . S
H371 N358 0.985 . S
C372 C373 1.363 . S
C372 C378 1.379 . S
C372 N380 1.356 1_455 S
C373 C372 1.363 . S
C373 C379 1.363 . S
C374 C375 1.363 . S
C374 C379 1.379 . S
C374 N381 1.356 . S
C375 C374 1.363 . S
C375 C378 1.363 . S
N376 C378 1.356 . S
N376 H388 0.984 . S
N376 H389 0.985 . S
N377 C379 1.356 1_655 S
N377 H382 0.984 . S
N377 H383 0.985 1_655 S
C378 C372 1.379 . S
C378 C375 1.363 . S
C378 N376 1.356 . S
C379 C373 1.363 . S
C379 C374 1.379 . S
C379 N377 1.356 1_455 S
N380 C372 1.356 1_655 S
N380 H386 0.985 1_655 S
N380 H387 0.984 . S
N381 C374 1.356 . S
N381 H384 0.984 . S
N381 H385 0.985 . S
H382 N377 0.984 . S
H383 N377 0.985 1_455 S
H384 N381 0.984 . S
H385 N381 0.985 . S
H386 N380 0.985 1_455 S
H387 N380 0.984 . S
H388 N376 0.984 . S
H389 N376 0.985 . S
C390 C391 1.363 . S
C390 C396 1.379 . S
C390 N398 1.356 1_565 S
C391 C390 1.363 . S
C391 C397 1.363 . S
C392 C393 1.363 . S
C392 C397 1.379 . S
C392 N399 1.356 . S
C393 C392 1.363 . S
C393 C396 1.363 . S
N394 C396 1.356 . S
N394 H406 0.984 . S
N394 H407 0.985 . S
N395 C397 1.356 1_545 S
N395 H400 0.984 . S
N395 H401 0.984 . S
C396 C390 1.379 . S
C396 C393 1.363 . S
C396 N394 1.356 . S
C397 C391 1.363 . S
C397 C392 1.379 . S
C397 N395 1.356 1_565 S
N398 C390 1.356 1_545 S
N398 H404 0.984 1_545 S
N398 H405 0.984 . S
N399 C392 1.356 . S
N399 H402 0.984 . S
N399 H403 0.985 . S
H400 N395 0.984 . S
H401 N395 0.984 . S
H402 N399 0.984 . S
H403 N399 0.985 . S
H404 N398 0.984 1_565 S
H405 N398 0.984 . S
H406 N394 0.984 . S
H407 N394 0.985 . S
C408 C409 1.363 . S
C408 C414 1.379 . S
C408 N416 1.356 . S
C409 C408 1.363 . S
C409 C415 1.363 . S
C410 C411 1.363 . S
C410 C415 1.379 . S
C410 N417 1.356 . S
C411 C410 1.363 . S
C411 C414 1.363 . S
N412 C414 1.356 . S
N412 H424 0.984 . S
N412 H425 0.985 . S
N413 C415 1.356 . S
N413 H418 0.984 . S
N413 H419 0.985 . S
C414 C408 1.379 . S
C414 C411 1.363 . S
C414 N412 1.356 . S
C415 C409 1.363 . S
C415 C410 1.379 . S
C415 N413 1.356 . S
N416 C408 1.356 . S
N416 H422 0.984 . S
N416 H423 0.984 . S
N417 C410 1.356 . S
N417 H420 0.984 . S
N417 H421 0.985 . S
H418 N413 0.984 . S
H419 N413 0.985 . S
H420 N417 0.984 . S
H421 N417 0.985 . S
H422 N416 0.984 . S
H423 N416 0.984 . S
H424 N412 0.984 . S
H425 N412 0.985 . S
C426 C427 1.363 . S
C426 C432 1.379 . S
C426 N434 1.356 1_655 S
C427 C426 1.363 . S
C427 C433 1.363 . S
C428 C429 1.363 . S
C428 C433 1.379 . S
C428 N435 1.356 . S
C429 C428 1.363 . S
C429 C432 1.363 . S
N430 C432 1.356 . S
N430 H442 0.984 . S
N430 H443 0.985 . S
N431 C433 1.356 1_455 S
N431 H436 0.984 . S
N431 H437 0.984 . S
C432 C426 1.379 . S
C432 C429 1.363 . S
C432 N430 1.356 . S
C433 C427 1.363 . S
C433 C428 1.379 . S
C433 N431 1.356 1_655 S
N434 C426 1.356 1_455 S
N434 H440 0.984 1_455 S
N434 H441 0.984 . S
N435 C428 1.356 . S
N435 H438 0.984 . S
N435 H439 0.985 . S
H436 N431 0.984 . S
H437 N431 0.984 . S
H438 N435 0.984 . S
H439 N435 0.985 . S
H440 N434 0.984 1_655 S
H441 N434 0.984 . S
H442 N430 0.984 . S
H443 N430 0.985 . S
C444 C445 1.363 . S
C444 C450 1.379 . S
C444 N452 1.356 . S
C445 C444 1.363 . S
C445 C451 1.363 . S
C446 C447 1.363 . S
C446 C451 1.379 . S
C446 N453 1.356 1_545 S
C447 C446 1.363 . S
C447 C450 1.363 . S
N448 C450 1.356 1_565 S
N448 H460 0.984 . S
N448 H461 0.985 . S
N449 C451 1.356 . S
N449 H454 0.984 . S
N449 H455 0.985 . S
C450 C444 1.379 . S
C450 C447 1.363 . S
C450 N448 1.356 1_545 S
C451 C445 1.363 . S
C451 C446 1.379 . S
C451 N449 1.356 . S
N452 C444 1.356 . S
N452 H458 0.984 . S
N452 H459 0.984 . S
N453 C446 1.356 1_565 S
N453 H456 0.984 . S
N453 H457 0.985 1_565 S
H454 N449 0.984 . S
H455 N449 0.985 . S
H456 N453 0.984 . S
H457 N453 0.985 1_545 S
H458 N452 0.984 . S
H459 N452 0.984 . S
H460 N448 0.984 . S
H461 N448 0.985 . S
C139 C111 1.736 . S
C141 C19 1.736 . S
C157 C135 1.747 . S
C159 C43 1.747 . S
C175 C65 1.736 . S
C177 C88 1.736 . S
C193 C20 1.747 . S
C195 C112 1.747 . S
C211 C134 1.736 . S
C213 C42 1.736 . S
C229 C66 1.747 . S
C231 C89 1.747 . S
C247 C18 1.319 . S
C249 C62 1.346 . S
C265 C41 1.319 . S
C267 C16 1.346 . S
C283 C64 1.319 . S
C285 C39 1.346 . S
C301 C87 1.319 . S
C303 C108 1.346 . S
C319 C110 1.319 . S
C321 C131 1.346 . S
C337 C85 1.346 . S
C339 C133 1.319 . S
C355 C21 1.136 . S
C357 C63 1.078 . S
C373 C44 1.136 1_455 S
C375 C17 1.078 . S
C391 C67 1.136 1_565 S
C393 C40 1.078 . S
C409 C90 1.136 . S
C411 C109 1.078 . S
C427 C113 1.136 1_655 S
C429 C132 1.078 . S
C445 C86 1.078 . S
C447 C136 1.136 1_545 S
