# Generated by pormake.
# Topology bcs, (6)-cn, num edge types: 1
# Building blocks:
#     Node 0, Type 0, BuildingBlock: FUNLAD_clean_sbu_0, # of connection points: 6
#     Node 1, Type 0, BuildingBlock: FUNLAD_clean_sbu_0, # of connection points: 6
#     Node 2, Type 0, BuildingBlock: FUNLAD_clean_sbu_0, # of connection points: 6
#     Node 3, Type 0, BuildingBlock: FUNLAD_clean_sbu_0, # of connection points: 6
#     Node 4, Type 0, BuildingBlock: FUNLAD_clean_sbu_0, # of connection points: 6
#     Node 5, Type 0, BuildingBlock: FUNLAD_clean_sbu_0, # of connection points: 6
#     Node 6, Type 0, BuildingBlock: FUNLAD_clean_sbu_0, # of connection points: 6
#     Node 7, Type 0, BuildingBlock: FUNLAD_clean_sbu_0, # of connection points: 6
#     Node 8, Type 0, BuildingBlock: FUNLAD_clean_sbu_0, # of connection points: 6
#     Node 9, Type 0, BuildingBlock: FUNLAD_clean_sbu_0, # of connection points: 6
#     Node 10, Type 0, BuildingBlock: FUNLAD_clean_sbu_0, # of connection points: 6
#     Node 11, Type 0, BuildingBlock: FUNLAD_clean_sbu_0, # of connection points: 6
#     Node 12, Type 0, BuildingBlock: FUNLAD_clean_sbu_0, # of connection points: 6
#     Node 13, Type 0, BuildingBlock: FUNLAD_clean_sbu_0, # of connection points: 6
#     Node 14, Type 0, BuildingBlock: FUNLAD_clean_sbu_0, # of connection points: 6
#     Node 15, Type 0, BuildingBlock: FUNLAD_clean_sbu_0, # of connection points: 6
#     Edge 16, Type (0, 0), BuildingBlock: KIFKEQ_clean_linker_1, # of connection points: 2
#     Edge 17, Type (0, 0), BuildingBlock: KIFKEQ_clean_linker_1, # of connection points: 2
#     Edge 18, Type (0, 0), BuildingBlock: KIFKEQ_clean_linker_1, # of connection points: 2
#     Edge 19, Type (0, 0), BuildingBlock: KIFKEQ_clean_linker_1, # of connection points: 2
#     Edge 20, Type (0, 0), BuildingBlock: KIFKEQ_clean_linker_1, # of connection points: 2
#     Edge 21, Type (0, 0), BuildingBlock: KIFKEQ_clean_linker_1, # of connection points: 2
#     Edge 22, Type (0, 0), BuildingBlock: KIFKEQ_clean_linker_1, # of connection points: 2
#     Edge 23, Type (0, 0), BuildingBlock: KIFKEQ_clean_linker_1, # of connection points: 2
#     Edge 24, Type (0, 0), BuildingBlock: KIFKEQ_clean_linker_1, # of connection points: 2
#     Edge 25, Type (0, 0), BuildingBlock: KIFKEQ_clean_linker_1, # of connection points: 2
#     Edge 26, Type (0, 0), BuildingBlock: KIFKEQ_clean_linker_1, # of connection points: 2
#     Edge 27, Type (0, 0), BuildingBlock: KIFKEQ_clean_linker_1, # of connection points: 2
#     Edge 28, Type (0, 0), BuildingBlock: KIFKEQ_clean_linker_1, # of connection points: 2
#     Edge 29, Type (0, 0), BuildingBlock: KIFKEQ_clean_linker_1, # of connection points: 2
#     Edge 30, Type (0, 0), BuildingBlock: KIFKEQ_clean_linker_1, # of connection points: 2
#     Edge 31, Type (0, 0), BuildingBlock: KIFKEQ_clean_linker_1, # of connection points: 2
#     Edge 32, Type (0, 0), BuildingBlock: KIFKEQ_clean_linker_1, # of connection points: 2
#     Edge 33, Type (0, 0), BuildingBlock: KIFKEQ_clean_linker_1, # of connection points: 2
#     Edge 34, Type (0, 0), BuildingBlock: KIFKEQ_clean_linker_1, # of connection points: 2
#     Edge 35, Type (0, 0), BuildingBlock: KIFKEQ_clean_linker_1, # of connection points: 2
#     Edge 36, Type (0, 0), BuildingBlock: KIFKEQ_clean_linker_1, # of connection points: 2
#     Edge 37, Type (0, 0), BuildingBlock: KIFKEQ_clean_linker_1, # of connection points: 2
#     Edge 38, Type (0, 0), BuildingBlock: KIFKEQ_clean_linker_1, # of connection points: 2
#     Edge 39, Type (0, 0), BuildingBlock: KIFKEQ_clean_linker_1, # of connection points: 2
#     Edge 40, Type (0, 0), BuildingBlock: KIFKEQ_clean_linker_1, # of connection points: 2
#     Edge 41, Type (0, 0), BuildingBlock: KIFKEQ_clean_linker_1, # of connection points: 2
#     Edge 42, Type (0, 0), BuildingBlock: KIFKEQ_clean_linker_1, # of connection points: 2
#     Edge 43, Type (0, 0), BuildingBlock: KIFKEQ_clean_linker_1, # of connection points: 2
#     Edge 44, Type (0, 0), BuildingBlock: KIFKEQ_clean_linker_1, # of connection points: 2
#     Edge 45, Type (0, 0), BuildingBlock: KIFKEQ_clean_linker_1, # of connection points: 2
#     Edge 46, Type (0, 0), BuildingBlock: KIFKEQ_clean_linker_1, # of connection points: 2
#     Edge 47, Type (0, 0), BuildingBlock: KIFKEQ_clean_linker_1, # of connection points: 2
#     Edge 48, Type (0, 0), BuildingBlock: KIFKEQ_clean_linker_1, # of connection points: 2
#     Edge 49, Type (0, 0), BuildingBlock: KIFKEQ_clean_linker_1, # of connection points: 2
#     Edge 50, Type (0, 0), BuildingBlock: KIFKEQ_clean_linker_1, # of connection points: 2
#     Edge 51, Type (0, 0), BuildingBlock: KIFKEQ_clean_linker_1, # of connection points: 2
#     Edge 52, Type (0, 0), BuildingBlock: KIFKEQ_clean_linker_1, # of connection points: 2
#     Edge 53, Type (0, 0), BuildingBlock: KIFKEQ_clean_linker_1, # of connection points: 2
#     Edge 54, Type (0, 0), BuildingBlock: KIFKEQ_clean_linker_1, # of connection points: 2
#     Edge 55, Type (0, 0), BuildingBlock: KIFKEQ_clean_linker_1, # of connection points: 2
#     Edge 56, Type (0, 0), BuildingBlock: KIFKEQ_clean_linker_1, # of connection points: 2
#     Edge 57, Type (0, 0), BuildingBlock: KIFKEQ_clean_linker_1, # of connection points: 2
#     Edge 58, Type (0, 0), BuildingBlock: KIFKEQ_clean_linker_1, # of connection points: 2
#     Edge 59, Type (0, 0), BuildingBlock: KIFKEQ_clean_linker_1, # of connection points: 2
#     Edge 60, Type (0, 0), BuildingBlock: KIFKEQ_clean_linker_1, # of connection points: 2
#     Edge 61, Type (0, 0), BuildingBlock: KIFKEQ_clean_linker_1, # of connection points: 2
#     Edge 62, Type (0, 0), BuildingBlock: KIFKEQ_clean_linker_1, # of connection points: 2
#     Edge 63, Type (0, 0), BuildingBlock: KIFKEQ_clean_linker_1, # of connection points: 2
# Relax obj value: 0.520
# Max RMSD: 0.294
# Mean RMSD: 0.243
data_MOF--net-bcs--node1-FUNLAD_clean_sbu_0--edge1-KIFKEQ_clean_linker_1
_symmetry_space_group_name_H-M    P1
_symmetry_Int_Tables_number       1
_symmetry_cell_setting            triclinic
loop_
_symmetry_equiv_pos_as_xyz
'x, y, z'
_cell_length_a     39.051769
_cell_length_b     38.570602
_cell_length_c     39.444492
_cell_angle_alpha  78.297627
_cell_angle_beta   78.377248
_cell_angle_gamma 73.90679
loop_
_atom_site_label
_atom_site_type_symbol
_atom_site_fract_x
_atom_site_fract_y
_atom_site_fract_z
_atom_type_partial_charge
C0 C 0.96293 0.04982 0.04613 0.0
N1 N 0.94125 0.95863 0.02161 0.0
C2 C 0.92149 0.95797 0.05416 0.0
C3 C 0.88893 0.94802 0.06075 0.0
C4 C 0.87683 0.93823 0.03371 0.0
C5 C 0.89831 0.93766 1.00071 0.0
C6 C 0.93058 0.94844 0.99507 0.0
Zn7 Zn 0.98362 0.98155 0.01169 0.0
C8 C 0.97522 0.03996 0.94757 0.0
N9 N 0.06631 0.03713 0.99003 0.0
C10 C 0.07749 0.04739 0.01622 0.0
C11 C 0.08532 0.0382 0.95714 0.0
C12 C 0.11759 0.0487 0.94978 0.0
C13 C 0.13021 0.05864 0.97639 0.0
C14 C 0.10952 0.05873 0.0098 0.0
Zn15 Zn 0.02406 0.01412 1.00026 0.0
O16 O 0.95303 0.02234 0.04225 0.0
C17 C 0.03246 0.95598 0.06449 0.0
O18 O 0.99349 0.05439 0.03065 0.0
H19 H 0.07583 0.03011 0.93674 0.0
H20 H 0.93056 0.96604 0.07485 0.0
H21 H 0.06197 0.04602 0.04226 0.0
O22 O 0.00525 0.94877 0.05694 0.0
O23 O 0.04508 0.98159 0.04517 0.0
H24 H 0.94664 0.94954 0.96929 0.0
O25 O 0.05466 0.97331 0.96962 0.0
O26 O 0.01428 0.94117 0.98146 0.0
O27 O 1.00242 0.04698 0.95529 0.0
O28 O 0.96261 0.0142 0.96661 0.0
C29 C 0.04483 0.94572 0.96593 0.0
H30 H 0.87349 0.94764 0.08688 0.0
H31 H 0.88994 0.92963 0.97952 0.0
H32 H 0.13238 0.04945 0.92337 0.0
H33 H 0.11832 0.06688 0.03067 0.0
C34 C 0.19787 0.79636 0.22946 0.0
N35 N 0.26429 0.69953 0.19781 0.0
C36 C 0.23181 0.69346 0.19684 0.0
C37 C 0.22817 0.67405 0.17229 0.0
C38 C 0.25802 0.66104 0.14793 0.0
C39 C 0.29131 0.66781 0.14881 0.0
C40 C 0.29392 0.68718 0.1744 0.0
Zn41 Zn 0.26328 0.7301 0.2353 0.0
C42 C 0.30289 0.79043 0.20744 0.0
N43 N 0.25163 0.79775 0.31237 0.0
C44 C 0.22326 0.80856 0.3376 0.0
C45 C 0.284 0.80516 0.31122 0.0
C46 C 0.28871 0.82467 0.33515 0.0
C47 C 0.26017 0.83626 0.36131 0.0
C48 C 0.22708 0.8278 0.36279 0.0
Zn49 Zn 0.25183 0.76698 0.27518 0.0
O50 O 0.21776 0.76854 0.2165 0.0
C51 C 0.21137 0.70711 0.3028 0.0
O52 O 0.20516 0.80393 0.25675 0.0
H53 H 0.30674 0.79537 0.29198 0.0
H54 H 0.2083 0.7041 0.21493 0.0
H55 H 0.19789 0.80197 0.33845 0.0
O56 O 0.227 0.69949 0.27255 0.0
O57 O 0.21719 0.73443 0.31249 0.0
H58 H 0.31942 0.69258 0.17538 0.0
O59 O 0.29892 0.7295 0.29274 0.0
O60 O 0.30876 0.69221 0.25466 0.0
O61 O 0.28548 0.79928 0.23673 0.0
O62 O 0.29977 0.76127 0.19898 0.0
C63 C 0.31771 0.70081 0.28054 0.0
H64 H 0.20203 0.66955 0.17205 0.0
H65 H 0.31484 0.65812 0.13018 0.0
H66 H 0.31483 0.83007 0.33362 0.0
H67 H 0.20454 0.83621 0.38289 0.0
C68 C 0.54135 0.94522 0.55166 0.0
N69 N 0.56789 0.04374 0.5059 0.0
C70 C 0.56901 0.0478 0.53912 0.0
C71 C 0.59362 0.06486 0.54553 0.0
C72 C 0.61803 0.0772 0.51768 0.0
C73 C 0.61704 0.07219 0.48367 0.0
C74 C 0.59129 0.05555 0.47826 0.0
Zn75 Zn 0.53093 0.01697 0.50046 0.0
C76 C 0.55845 0.96551 0.45096 0.0
N77 N 0.45431 0.95677 0.49826 0.0
C78 C 0.43328 0.94165 0.52605 0.0
C79 C 0.44915 0.9583 0.46481 0.0
C80 C 0.42112 0.94606 0.45827 0.0
C81 C 0.39838 0.93142 0.48631 0.0
C82 C 0.40511 0.92835 0.52058 0.0
Zn83 Zn 0.49178 0.98303 0.50369 0.0
O84 O 0.55199 0.97405 0.53848 0.0
C85 C 0.46403 0.03471 0.55317 0.0
O86 O 0.51401 0.94022 0.54221 0.0
H87 H 0.46612 0.97017 0.44299 0.0
H88 H 0.55098 0.03747 0.56094 0.0
H89 H 0.43767 0.94084 0.55244 0.0
O90 O 0.49355 0.04301 0.53927 0.0
O91 O 0.45546 0.00935 0.54323 0.0
H92 H 0.59017 0.05186 0.45209 0.0
O93 O 0.47098 0.02619 0.46537 0.0
O94 O 0.50926 0.05962 0.46188 0.0
O95 O 0.52864 0.95744 0.46412 0.0
O96 O 0.56739 0.99018 0.46166 0.0
C97 C 0.48241 0.05447 0.45178 0.0
H98 H 0.59396 0.06794 0.57216 0.0
H99 H 0.63559 0.08144 0.4616 0.0
H100 H 0.41695 0.94844 0.43147 0.0
H101 H 0.38803 0.91706 0.5428 0.0
C102 C 0.20259 0.31109 0.77855 0.0
N103 N 0.31397 0.27212 0.76828 0.0
C104 C 0.31439 0.30693 0.76965 0.0
C105 C 0.33873 0.31334 0.78763 0.0
C106 C 0.36276 0.28364 0.8043 0.0
C107 C 0.3636 0.24814 0.80018 0.0
C108 C 0.33872 0.24296 0.782 0.0
Zn109 Zn 0.27168 0.26307 0.75169 0.0
C110 C 0.24262 0.20631 0.8011 0.0
N111 N 0.18269 0.24392 0.71802 0.0
C112 C 0.15633 0.27289 0.70662 0.0
C113 C 0.18314 0.20916 0.7155 0.0
C114 C 0.15774 0.20271 0.6989 0.0
C115 C 0.13144 0.23228 0.68535 0.0
C116 C 0.13002 0.26759 0.69031 0.0
Zn117 Zn 0.22513 0.25307 0.73425 0.0
O118 O 0.23626 0.30327 0.77898 0.0
C119 C 0.25388 0.31041 0.68541 0.0
O120 O 0.18998 0.29358 0.7621 0.0
H121 H 0.2042 0.18654 0.72492 0.0
H122 H 0.29454 0.32968 0.75845 0.0
H123 H 0.15666 0.30032 0.70869 0.0
O124 O 0.27575 0.30291 0.70726 0.0
O125 O 0.22987 0.29288 0.68968 0.0
H126 H 0.33782 0.2155 0.78067 0.0
O127 O 0.26085 0.21305 0.70647 0.0
O128 O 0.30683 0.22244 0.72417 0.0
O129 O 0.2211 0.21291 0.77901 0.0
O130 O 0.26653 0.22399 0.79633 0.0
C131 C 0.29448 0.20518 0.70721 0.0
H132 H 0.33768 0.34118 0.78981 0.0
H133 H 0.38161 0.22455 0.81282 0.0
H134 H 0.15935 0.17507 0.69557 0.0
H135 H 0.11016 0.29096 0.67988 0.0
C136 C 0.94601 0.01957 0.48709 0.0
N137 N 0.01059 0.91284 0.49277 0.0
C138 C 0.97904 0.90242 0.50113 0.0
C139 C 0.97565 0.87247 0.48859 0.0
C140 C 0.00503 0.85306 0.46723 0.0
C141 C 0.03803 0.8629 0.46109 0.0
C142 C 0.04021 0.89311 0.47416 0.0
Zn143 Zn 0.01145 0.96186 0.50354 0.0
C144 C 0.04469 0.00532 0.44288 0.0
N145 N 0.01166 0.06474 0.52654 0.0
C146 C 0.98197 0.0843 0.54523 0.0
C147 C 0.04261 0.07624 0.51681 0.0
C148 C 0.04513 0.10765 0.52742 0.0
C149 C 0.01554 0.12732 0.54834 0.0
C150 C 0.98335 0.11583 0.55653 0.0
Zn151 Zn 0.0111 0.01553 0.51602 0.0
O152 O 0.96116 0.9861 0.48565 0.0
C153 C 0.97773 0.9724 0.57672 0.0
O154 O 0.96116 0.03845 0.49931 0.0
H155 H 0.06587 0.0602 0.50203 0.0
H156 H 0.95585 0.91857 0.5159 0.0
H157 H 0.95757 0.0747 0.55254 0.0
O158 O 0.98528 0.9498 0.55529 0.0
O159 O 0.98544 0.00305 0.56699 0.0
H160 H 0.06507 0.90188 0.46793 0.0
O161 O 0.06171 0.99146 0.53333 0.0
O162 O 0.06103 0.93877 0.52083 0.0
O163 O 0.03642 0.02789 0.46436 0.0
O164 O 0.03793 0.97421 0.45248 0.0
C165 C 0.07649 0.95779 0.53251 0.0
H166 H 0.94951 0.86629 0.49359 0.0
H167 H 0.0614 0.84845 0.44504 0.0
H168 H 0.07069 0.11515 0.521 0.0
H169 H 0.95991 0.13036 0.57245 0.0
C170 C 0.30587 0.70415 0.80076 0.0
N171 N 0.31266 0.81039 0.75464 0.0
C172 C 0.32027 0.81007 0.78692 0.0
C173 C 0.33637 0.83606 0.79242 0.0
C174 C 0.34391 0.86331 0.76472 0.0
C175 C 0.33587 0.8633 0.73165 0.0
C176 C 0.32052 0.83609 0.72703 0.0
Zn177 Zn 0.28521 0.77336 0.75041 0.0
C178 C 0.31948 0.72513 0.70053 0.0
N179 N 0.22429 0.69673 0.74958 0.0
C180 C 0.20942 0.67503 0.77703 0.0
C181 C 0.22472 0.69287 0.71592 0.0
C182 C 0.21136 0.66568 0.70877 0.0
C183 C 0.19676 0.64231 0.73638 0.0
C184 C 0.19503 0.64762 0.77095 0.0
Zn185 Zn 0.25105 0.73415 0.75491 0.0
O186 O 0.31392 0.73393 0.78605 0.0
C187 C 0.21688 0.78169 0.80542 0.0
O188 O 0.27879 0.69644 0.79354 0.0
H189 H 0.23638 0.71035 0.69434 0.0
H190 H 0.31305 0.79017 0.80881 0.0
H191 H 0.20945 0.67839 0.8036 0.0
O192 O 0.24539 0.79248 0.79215 0.0
O193 O 0.2103 0.75603 0.79401 0.0
H194 H 0.31418 0.83604 0.7016 0.0
O195 O 0.22437 0.77251 0.71607 0.0
O196 O 0.25629 0.81174 0.71425 0.0
O197 O 0.29235 0.71321 0.71626 0.0
O198 O 0.32457 0.75333 0.70871 0.0
C199 C 0.23178 0.80309 0.70345 0.0
H200 H 0.34181 0.83562 0.8184 0.0
H201 H 0.34134 0.88407 0.70975 0.0
H202 H 0.21268 0.66275 0.68175 0.0
H203 H 0.18379 0.63009 0.79289 0.0
C204 C 0.46024 0.06124 0.03337 0.0
N205 N 0.5543 0.98903 0.06454 0.0
C206 C 0.56472 0.01957 0.0658 0.0
C207 C 0.58174 0.02101 0.09306 0.0
C208 C 0.58741 0.99112 0.11986 0.0
C209 C 0.57689 0.95967 0.11813 0.0
C210 C 0.56052 0.95906 0.08976 0.0
Zn211 Zn 0.52396 0.9935 0.02614 0.0
C212 C 0.46224 0.95511 0.05279 0.0
N213 N 0.45629 0.01154 0.9485 0.0
C214 C 0.44965 0.04121 0.92303 0.0
C215 C 0.44671 0.98045 0.94746 0.0
C216 C 0.43026 0.97808 0.92018 0.0
C217 C 0.4242 0.00762 0.89314 0.0
C218 C 0.43371 0.03971 0.89464 0.0
Zn219 Zn 0.4865 0.00752 0.98688 0.0
O220 O 0.4882 0.04082 0.04544 0.0
C221 C 0.54816 0.04602 0.96011 0.0
O222 O 0.45139 0.05403 0.00672 0.0
H223 H 0.4533 0.95661 0.96696 0.0
H224 H 0.55853 0.04362 0.04641 0.0
H225 H 0.45791 0.06549 0.924 0.0
O226 O 0.55689 0.02805 0.98937 0.0
O227 O 0.51941 0.043 0.95146 0.0
H228 H 0.55171 0.93518 0.08855 0.0
O229 O 0.52235 0.96016 0.96761 0.0
O230 O 0.55886 0.94683 0.00657 0.0
O231 O 0.45366 0.97305 0.0235 0.0
O232 O 0.49092 0.95811 0.06158 0.0
C233 C 0.55006 0.93952 0.97997 0.0
H234 H 0.589 0.04591 0.09403 0.0
H235 H 0.58065 0.93628 0.13873 0.0
H236 H 0.42379 0.95272 0.91938 0.0
H237 H 0.42968 0.06284 0.87379 0.0
C238 C 0.21534 0.28368 0.3143 0.0
N239 N 0.2255 0.18817 0.27296 0.0
C240 C 0.22263 0.1683 0.30557 0.0
C241 C 0.20982 0.13693 0.31159 0.0
C242 C 0.19989 0.12609 0.28376 0.0
C243 C 0.20383 0.14671 0.25029 0.0
C244 C 0.21679 0.17779 0.24544 0.0
Zn245 Zn 0.24482 0.23331 0.2632 0.0
C246 C 0.20526 0.29137 0.21545 0.0
N247 N 0.29045 0.32433 0.2376 0.0
C248 C 0.29922 0.33742 0.26343 0.0
C249 C 0.29027 0.34327 0.20459 0.0
C250 C 0.29832 0.37719 0.19665 0.0
C251 C 0.30704 0.39162 0.22281 0.0
C252 C 0.30801 0.37117 0.25646 0.0
Zn253 Zn 0.27183 0.27862 0.24875 0.0
O254 O 0.21109 0.25411 0.30819 0.0
C255 C 0.31113 0.21973 0.29629 0.0
O256 O 0.23822 0.29889 0.29354 0.0
H257 H 0.28334 0.3323 0.18446 0.0
H258 H 0.22988 0.17704 0.32696 0.0
H259 H 0.29883 0.32197 0.2896 0.0
O260 O 0.28563 0.20638 0.29371 0.0
O261 O 0.31288 0.25116 0.27952 0.0
H262 H 0.21965 0.19379 0.21961 0.0
O263 O 0.30598 0.25757 0.20394 0.0
O264 O 0.27852 0.21312 0.21856 0.0
O265 O 0.23028 0.30556 0.21771 0.0
O266 O 0.20417 0.26018 0.23283 0.0
C267 C 0.30174 0.22794 0.19801 0.0
H268 H 0.20643 0.12214 0.338 0.0
H269 H 0.19644 0.1392 0.22824 0.0
H270 H 0.29841 0.39169 0.17006 0.0
H271 H 0.31516 0.38131 0.27708 0.0
C272 C 0.47548 0.53329 0.95722 0.0
N273 N 0.49924 0.41993 0.98526 0.0
C274 C 0.46388 0.42257 0.98488 0.0
C275 C 0.45382 0.39548 0.97351 0.0
C276 C 0.48042 0.36558 0.96207 0.0
C277 C 0.51659 0.36277 0.964 0.0
C278 C 0.52544 0.39035 0.97599 0.0
Zn279 Zn 0.51278 0.46317 0.99625 0.0
C280 C 0.57695 0.47906 0.94963 0.0
N281 N 0.53919 0.55403 0.0207 0.0
C282 C 0.5128 0.58283 0.03136 0.0
C283 C 0.57424 0.5501 0.0235 0.0
C284 C 0.58341 0.57381 0.04042 0.0
C285 C 0.55619 0.60157 0.05482 0.0
C286 C 0.52077 0.60715 0.04864 0.0
Zn287 Zn 0.52562 0.51123 0.00882 0.0
O288 O 0.4796 0.49895 0.9612 0.0
C289 C 0.46153 0.49525 0.05549 0.0
O290 O 0.4924 0.54637 0.97385 0.0
H291 H 0.59478 0.52701 0.01486 0.0
H292 H 0.44354 0.44645 0.99205 0.0
H293 H 0.48511 0.58541 0.02879 0.0
O294 O 0.46863 0.46988 0.03716 0.0
O295 O 0.48176 0.51706 0.04983 0.0
H296 H 0.55338 0.38879 0.97667 0.0
O297 O 0.55806 0.47596 0.04385 0.0
O298 O 0.54615 0.42791 0.03172 0.0
O299 O 0.5699 0.50439 0.96804 0.0
O300 O 0.55659 0.45737 0.95511 0.0
C301 C 0.56227 0.44164 0.04858 0.0
H302 H 0.42568 0.39899 0.97182 0.0
H303 H 0.5378 0.34005 0.95543 0.0
H304 H 0.61117 0.56909 0.04412 0.0
H305 H 0.49905 0.62823 0.05939 0.0
C306 C 0.78824 0.17722 0.31959 0.0
N307 N 0.79475 0.28494 0.27716 0.0
C308 C 0.80259 0.28378 0.30955 0.0
C309 C 0.81932 0.30905 0.31557 0.0
C310 C 0.82754 0.33644 0.28827 0.0
C311 C 0.81902 0.33738 0.25511 0.0
C312 C 0.8028 0.311 0.25001 0.0
Zn313 Zn 0.76676 0.2483 0.27247 0.0
C314 C 0.79783 0.2043 0.21795 0.0
N315 N 0.70384 0.17365 0.27057 0.0
C316 C 0.6965 0.14701 0.29743 0.0
C317 C 0.69519 0.17559 0.23835 0.0
C318 C 0.67849 0.15043 0.23216 0.0
C319 C 0.67141 0.12232 0.25904 0.0
C320 C 0.68054 0.12057 0.29206 0.0
Zn321 Zn 0.73198 0.20992 0.27527 0.0
O322 O 0.79609 0.20767 0.30745 0.0
C323 C 0.70118 0.25407 0.32959 0.0
O324 O 0.76224 0.17005 0.30987 0.0
H325 H 0.70208 0.19612 0.21697 0.0
H326 H 0.7952 0.26366 0.33112 0.0
H327 H 0.70374 0.14571 0.32279 0.0
O328 O 0.72862 0.2661 0.31502 0.0
O329 O 0.69416 0.22871 0.3181 0.0
H330 H 0.79617 0.31171 0.22451 0.0
O331 O 0.70218 0.25037 0.24144 0.0
O332 O 0.73632 0.28815 0.2371 0.0
O333 O 0.77017 0.19237 0.23205 0.0
O334 O 0.80475 0.22933 0.23004 0.0
C335 C 0.70966 0.2808 0.22869 0.0
H336 H 0.82499 0.30772 0.34165 0.0
H337 H 0.82505 0.3581 0.2334 0.0
H338 H 0.67225 0.15219 0.20622 0.0
H339 H 0.67551 0.09901 0.31329 0.0
C340 C 0.9531 0.56233 0.52903 0.0
N341 N 0.04919 0.50131 0.56518 0.0
C342 C 0.0541 0.5351 0.56428 0.0
C343 C 0.07348 0.54107 0.58755 0.0
C344 C 0.08765 0.51225 0.61267 0.0
C345 C 0.08147 0.47774 0.61408 0.0
C346 C 0.0622 0.47275 0.58965 0.0
Zn347 Zn 0.02083 0.49857 0.52733 0.0
C348 C 0.96324 0.45547 0.5544 0.0
N349 N 0.95898 0.50247 0.44775 0.0
C350 C 0.94463 0.53065 0.42359 0.0
C351 C 0.9575 0.4677 0.44732 0.0
C352 C 0.94244 0.45985 0.42166 0.0
C353 C 0.9282 0.48794 0.39605 0.0
C354 C 0.92867 0.52395 0.39734 0.0
Zn355 Zn 0.98676 0.50595 0.48587 0.0
O356 O 0.9812 0.54551 0.54265 0.0
C357 C 0.04452 0.54895 0.45871 0.0
O358 O 0.94675 0.55167 0.50294 0.0
H359 H 0.96884 0.44549 0.46654 0.0
H360 H 0.043 0.55778 0.54533 0.0
H361 H 0.9461 0.5581 0.42426 0.0
O362 O 0.0514 0.53397 0.48936 0.0
O363 O 0.01779 0.54272 0.44879 0.0
H364 H 0.0578 0.44615 0.59014 0.0
O365 O 0.02681 0.46028 0.47003 0.0
O366 O 0.06038 0.45154 0.51082 0.0
O367 O 0.9569 0.46961 0.52341 0.0
O368 O 0.98923 0.46269 0.56467 0.0
C369 C 0.0543 0.44207 0.48393 0.0
H370 H 0.07726 0.56818 0.586 0.0
H371 H 0.09202 0.4549 0.63327 0.0
H372 H 0.94226 0.43181 0.42159 0.0
H373 H 0.91779 0.54628 0.37787 0.0
C374 C 0.72444 0.78782 0.30218 0.0
N375 N 0.83647 0.75399 0.28263 0.0
C376 C 0.83559 0.78891 0.28504 0.0
C377 C 0.86129 0.79587 0.3009 0.0
C378 C 0.88824 0.76664 0.31396 0.0
C379 C 0.89029 0.73128 0.30859 0.0
C380 C 0.86377 0.72548 0.29295 0.0
Zn381 Zn 0.79287 0.74322 0.27011 0.0
C382 C 0.77016 0.6834 0.32067 0.0
N383 N 0.70168 0.71992 0.2447 0.0
C384 C 0.67497 0.74829 0.23304 0.0
C385 C 0.70115 0.68469 0.24542 0.0
C386 C 0.67393 0.67695 0.2324 0.0
C387 C 0.64721 0.70577 0.21829 0.0
C388 C 0.64739 0.7418 0.2195 0.0
Zn389 Zn 0.74541 0.73075 0.2568 0.0
O390 O 0.75835 0.78274 0.2991 0.0
C391 C 0.76867 0.7901 0.20577 0.0
O392 O 0.71141 0.7689 0.2877 0.0
H393 H 0.72275 0.66259 0.25464 0.0
H394 H 0.81375 0.81116 0.2765 0.0
H395 H 0.67586 0.7761 0.23287 0.0
O396 O 0.79267 0.78349 0.22531 0.0
O397 O 0.74516 0.77167 0.21268 0.0
H398 H 0.8638 0.6979 0.29102 0.0
O399 O 0.77953 0.69271 0.22645 0.0
O400 O 0.82672 0.70325 0.24089 0.0
O401 O 0.74696 0.68935 0.30042 0.0
O402 O 0.79236 0.70318 0.3151 0.0
C403 C 0.81343 0.68564 0.22516 0.0
H404 H 0.85915 0.82357 0.30444 0.0
H405 H 0.9106 0.70811 0.3186 0.0
H406 H 0.67503 0.64878 0.23148 0.0
H407 H 0.62711 0.76469 0.20903 0.0
C408 C 0.69312 0.30161 0.7306 0.0
N409 N 0.75974 0.205 0.69878 0.0
C410 C 0.72732 0.19935 0.6969 0.0
C411 C 0.72324 0.18395 0.66949 0.0
C412 C 0.75272 0.17411 0.64361 0.0
C413 C 0.78633 0.17885 0.64643 0.0
C414 C 0.78926 0.19465 0.67452 0.0
Zn415 Zn 0.7582 0.23491 0.73692 0.0
C416 C 0.79898 0.29488 0.71036 0.0
N417 N 0.74481 0.30208 0.81471 0.0
C418 C 0.7148 0.31426 0.83777 0.0
C419 C 0.77694 0.30878 0.81595 0.0
C420 C 0.77977 0.3289 0.84028 0.0
C421 C 0.74951 0.3418 0.86428 0.0
C422 C 0.71666 0.33413 0.86327 0.0
Zn423 Zn 0.74661 0.2716 0.77692 0.0
O424 O 0.71182 0.27284 0.71853 0.0
C425 C 0.70641 0.2112 0.80362 0.0
O426 O 0.70155 0.30979 0.75697 0.0
H427 H 0.80078 0.29816 0.79822 0.0
H428 H 0.70399 0.20822 0.71593 0.0
H429 H 0.68959 0.30839 0.83656 0.0
O430 O 0.72368 0.20258 0.77418 0.0
O431 O 0.70985 0.24006 0.81245 0.0
H432 H 0.81468 0.19974 0.67626 0.0
O433 O 0.79187 0.23294 0.79625 0.0
O434 O 0.80413 0.19758 0.756 0.0
O435 O 0.78302 0.3025 0.7405 0.0
O436 O 0.79348 0.26748 0.70059 0.0
C437 C 0.81142 0.2049 0.7834 0.0
H438 H 0.69693 0.18071 0.66793 0.0
H439 H 0.80956 0.17162 0.62663 0.0
H440 H 0.80567 0.33385 0.84074 0.0
H441 H 0.69284 0.34358 0.88168 0.0
C442 C 0.69681 0.78099 0.72302 0.0
N443 N 0.78283 0.81061 0.74861 0.0
C444 C 0.78574 0.83163 0.71659 0.0
C445 C 0.79999 0.86195 0.71161 0.0
C446 C 0.81141 0.87048 0.73985 0.0
C447 C 0.8068 0.84913 0.77286 0.0
C448 C 0.7923 0.81918 0.77669 0.0
Zn449 Zn 0.76395 0.76546 0.75603 0.0
C450 C 0.70755 0.76736 0.82113 0.0
N451 N 0.71963 0.67373 0.77598 0.0
C452 C 0.71194 0.66137 0.74907 0.0
C453 C 0.721 0.65307 0.80819 0.0
C454 C 0.71616 0.61787 0.81393 0.0
C455 C 0.70936 0.60395 0.78641 0.0
C456 C 0.70629 0.62636 0.75387 0.0
Zn457 Zn 0.73724 0.71998 0.76714 0.0
O458 O 0.72208 0.79406 0.72685 0.0
C459 C 0.79365 0.71863 0.70174 0.0
O460 O 0.69594 0.74853 0.73723 0.0
H461 H 0.72705 0.66345 0.8292 0.0
H462 H 0.77786 0.82431 0.69475 0.0
H463 H 0.71134 0.67821 0.72357 0.0
O464 O 0.7978 0.74726 0.70997 0.0
O465 O 0.77065 0.7025 0.72097 0.0
H466 H 0.7894 0.80227 0.80204 0.0
O467 O 0.77942 0.69164 0.7973 0.0
O468 O 0.80511 0.73727 0.78516 0.0
O469 O 0.70302 0.73865 0.81336 0.0
O470 O 0.73087 0.78277 0.80162 0.0
C471 C 0.80439 0.70533 0.80067 0.0
H472 H 0.80382 0.87736 0.68552 0.0
H473 H 0.81535 0.85487 0.79518 0.0
H474 H 0.71756 0.6017 0.83974 0.0
H475 H 0.70044 0.61659 0.73231 0.0
C476 C 0.4746 0.56288 0.53292 0.0
N477 N 0.4416 0.47432 0.51682 0.0
C478 C 0.41898 0.47866 0.54752 0.0
C479 C 0.38517 0.47148 0.5525 0.0
C480 C 0.37465 0.45957 0.52569 0.0
C481 C 0.39865 0.45491 0.49443 0.0
C482 C 0.43217 0.46266 0.49046 0.0
Zn483 Zn 0.48794 0.4906 0.50799 0.0
C484 C 0.48963 0.542 0.43835 0.0
N485 N 0.58074 0.53173 0.48548 0.0
C486 C 0.59034 0.54237 0.51237 0.0
C487 C 0.60374 0.52701 0.45505 0.0
C488 C 0.63826 0.53229 0.45109 0.0
C489 C 0.64904 0.54274 0.47862 0.0
C490 C 0.62451 0.54829 0.50939 0.0
Zn491 Zn 0.53413 0.51582 0.49417 0.0
O492 O 0.46041 0.5374 0.53149 0.0
C493 C 0.53228 0.46423 0.56386 0.0
O494 O 0.50727 0.56104 0.51955 0.0
H495 H 0.59556 0.51842 0.43412 0.0
H496 H 0.42705 0.48806 0.56802 0.0
H497 H 0.5718 0.54538 0.53658 0.0
O498 O 0.503 0.46071 0.55714 0.0
O499 O 0.54938 0.48502 0.54215 0.0
H500 H 0.45046 0.45985 0.46609 0.0
O501 O 0.56102 0.46989 0.46875 0.0
O502 O 0.51537 0.44451 0.48447 0.0
O503 O 0.51792 0.54721 0.44575 0.0
O504 O 0.47366 0.5198 0.45938 0.0
C505 C 0.5473 0.44354 0.46904 0.0
H506 H 0.36779 0.47438 0.57743 0.0
H507 H 0.39155 0.44545 0.47335 0.0
H508 H 0.65613 0.52882 0.4265 0.0
H509 H 0.63182 0.55672 0.53097 0.0
C510 C 0.0439 0.43096 0.04152 0.0
N511 N 0.06612 0.53345 0.00973 0.0
C512 C 0.07462 0.52415 0.04272 0.0
C513 C 0.09998 0.538 0.05213 0.0
C514 C 0.11677 0.56245 0.02772 0.0
C515 C 0.1082 0.5713 0.9935 0.0
C516 C 0.08254 0.55638 0.98499 0.0
Zn517 Zn 0.02719 0.51 1.00235 0.0
C518 C 0.04493 0.47175 0.94393 0.0
N519 N 0.94655 0.4547 1.00171 0.0
C520 C 0.92914 0.43421 0.02824 0.0
C521 C 0.93644 0.46377 0.96935 0.0
C522 C 0.9072 0.45349 0.96293 0.0
C523 C 0.88821 0.43311 0.98984 0.0
C524 C 0.89987 0.4227 0.02271 0.0
Zn525 Zn 0.98619 0.4776 0.00798 0.0
O526 O 0.05402 0.46029 0.02981 0.0
C527 C 0.96846 0.51615 0.06626 0.0
O528 O 0.01343 0.42874 0.03666 0.0
H529 H 0.9506 0.47984 0.94845 0.0
H530 H 0.0615 0.50598 0.06222 0.0
H531 H 0.93746 0.42743 0.05383 0.0
O532 O 0.99629 0.52619 0.04937 0.0
O533 O 0.95653 0.49412 0.05471 0.0
H534 H 0.07551 0.56342 0.95887 0.0
O535 O 0.95945 0.5271 0.98039 0.0
O536 O 0.99978 0.55891 0.97381 0.0
O537 O 0.01713 0.46138 0.96066 0.0
O538 O 0.05674 0.49374 0.95575 0.0
C539 C 0.96939 0.55655 0.96885 0.0
H540 H 0.10627 0.52957 0.07854 0.0
H541 H 0.12051 0.59009 0.97384 0.0
H542 H 0.89947 0.46143 0.93703 0.0
H543 H 0.88592 0.40677 0.04404 0.0
H544 H 0.26028 0.20453 0.86498 0.0
H545 H 0.21851 0.14576 0.80708 0.0
H546 H 0.2489 0.16143 0.91855 0.0
H547 H 0.20817 0.10251 0.85991 0.0
H548 H 0.13822 0.12369 0.98544 0.0
H549 H 0.18246 0.15464 0.94869 0.0
H550 H 0.24025 0.05459 0.90902 0.0
H551 H 0.19597 0.02362 0.94585 0.0
C552 C 0.24948 0.18191 0.86361 0.0
C553 C 0.23969 0.17856 0.83224 0.0
C554 C 0.24325 0.15729 0.89408 0.0
C555 C 0.22821 0.12852 0.89311 0.0
C556 C 0.22052 0.12406 0.86118 0.0
C557 C 0.22589 0.14906 0.83108 0.0
C558 C 0.16153 0.10784 0.97043 0.0
C559 C 0.16334 0.07175 0.96745 0.0
C560 C 0.18693 0.1255 0.94948 0.0
C561 C 0.21404 0.10706 0.9255 0.0
C562 C 0.21923 0.06934 0.92708 0.0
C563 C 0.1939 0.05172 0.94798 0.0
H564 H 0.02332 0.8906 0.1035 0.0
H565 H 0.08304 0.97217 0.09308 0.0
H566 H 0.05799 0.8526 0.14888 0.0
H567 H 0.11759 0.93429 0.13806 0.0
H568 H 0.16672 0.77838 0.18194 0.0
H569 H 0.12178 0.81779 0.14726 0.0
H570 H 0.11523 0.90696 0.20105 0.0
H571 H 0.16069 0.86724 0.23597 0.0
C572 C 0.04348 0.90063 0.11117 0.0
C573 C 0.05061 0.93426 0.09442 0.0
C574 C 0.06344 0.87882 0.13706 0.0
C575 C 0.09066 0.89036 0.14702 0.0
C576 C 0.09661 0.92472 0.13132 0.0
C577 C 0.07696 0.94631 0.10528 0.0
C578 C 0.15545 0.80628 0.18674 0.0
C579 C 0.16754 0.81976 0.21155 0.0
C580 C 0.12941 0.82881 0.167 0.0
C581 C 0.11494 0.86556 0.17128 0.0
C582 C 0.12609 0.87881 0.19694 0.0
C583 C 0.15197 0.85606 0.21706 0.0
H584 H 0.38535 0.86348 0.49991 0.0
H585 H 0.34249 0.97513 0.45513 0.0
H586 H 0.3416 0.84419 0.47601 0.0
H587 H 0.2978 0.95646 0.43244 0.0
H588 H 0.28058 0.89972 0.34646 0.0
H589 H 0.30562 0.92546 0.38424 0.0
H590 H 0.28058 0.84345 0.47125 0.0
H591 H 0.25594 0.81722 0.43254 0.0
C592 C 0.36572 0.88397 0.48595 0.0
C593 C 0.36742 0.92065 0.47893 0.0
C594 C 0.34053 0.87304 0.47235 0.0
C595 C 0.31648 0.8987 0.45174 0.0
C596 C 0.31642 0.93584 0.44743 0.0
C597 C 0.34183 0.94661 0.46058 0.0
C598 C 0.27949 0.88789 0.37391 0.0
C599 C 0.2664 0.85656 0.38663 0.0
C600 C 0.29373 0.90268 0.39572 0.0
C601 C 0.29538 0.88644 0.43089 0.0
C602 C 0.28011 0.85638 0.44422 0.0
C603 C 0.2656 0.84163 0.42226 0.0
H604 H 0.27856 0.17034 0.66099 0.0
H605 H 0.36546 0.17425 0.71178 0.0
H606 H 0.31993 0.12489 0.62761 0.0
H607 H 0.40656 0.12794 0.6792 0.0
H608 H 0.47495 0.09085 0.578 0.0
H609 H 0.43376 0.12821 0.61876 0.0
H610 H 0.35732 0.06257 0.63054 0.0
H611 H 0.39843 0.02545 0.58864 0.0
C612 C 0.30641 0.16117 0.6653 0.0
C613 C 0.31896 0.17622 0.68855 0.0
C614 C 0.33001 0.13489 0.64644 0.0
C615 C 0.36651 0.12302 0.65067 0.0
C616 C 0.37869 0.13706 0.67496 0.0
C617 C 0.35517 0.16354 0.69361 0.0
C618 C 0.44947 0.08415 0.5894 0.0
C619 C 0.43977 0.0554 0.57989 0.0
C620 C 0.42598 0.10541 0.61304 0.0
C621 C 0.39233 0.0983 0.62788 0.0
C622 C 0.38295 0.0689 0.61917 0.0
C623 C 0.4065 0.04761 0.59533 0.0
H624 H 0.12081 0.89083 0.52495 0.0
H625 H 0.10421 0.98296 0.57832 0.0
H626 H 0.1645 0.85464 0.5626 0.0
H627 H 0.14745 0.94639 0.61652 0.0
H628 H 0.24025 0.87073 0.67124 0.0
H629 H 0.20998 0.91037 0.6237 0.0
H630 H 0.15101 0.83027 0.62516 0.0
H631 H 0.18135 0.79062 0.67204 0.0
C632 C 0.12704 0.90355 0.54428 0.0
C633 C 0.10864 0.93943 0.54923 0.0
C634 C 0.1519 0.88279 0.56591 0.0
C635 C 0.15862 0.89746 0.59299 0.0
C636 C 0.14272 0.93439 0.59586 0.0
C637 C 0.11794 0.9553 0.57402 0.0
C638 C 0.22084 0.86162 0.66133 0.0
C639 C 0.21307 0.82761 0.67541 0.0
C640 C 0.20359 0.88429 0.63415 0.0
C641 C 0.17852 0.87319 0.62051 0.0
C642 C 0.17083 0.8392 0.63463 0.0
C643 C 0.18791 0.81665 0.66178 0.0
H644 H 0.31295 0.93643 0.75873 0.0
H645 H 0.40734 0.85457 0.78721 0.0
H646 H 0.33246 0.98215 0.78045 0.0
H647 H 0.42719 0.90002 0.80825 0.0
H648 H 0.35526 0.01164 0.88669 0.0
H649 H 0.33689 0.98399 0.84483 0.0
H650 H 0.44652 0.96033 0.79083 0.0
H651 H 0.4646 0.98841 0.83261 0.0
C652 C 0.33838 0.9286 0.76867 0.0
C653 C 0.35874 0.89216 0.77139 0.0
C654 C 0.34943 0.95461 0.78118 0.0
C655 C 0.38136 0.94464 0.79593 0.0
C656 C 0.40273 0.90864 0.79658 0.0
C657 C 0.39135 0.88259 0.78473 0.0
C658 C 0.37494 0.00206 0.86485 0.0
C659 C 0.41117 0.00239 0.86246 0.0
C660 C 0.36452 0.98618 0.84095 0.0
C661 C 0.39038 0.96976 0.81476 0.0
C662 C 0.42611 0.97268 0.81084 0.0
C663 C 0.43639 0.98898 0.83447 0.0
H664 H 0.47841 0.0912 0.0821 0.0
H665 H 0.39099 0.10031 0.02631 0.0
H666 H 0.43971 0.13686 0.11689 0.0
H667 H 0.35218 0.14618 0.0613 0.0
H668 H 0.28711 0.17622 0.16941 0.0
H669 H 0.32534 0.14141 0.12479 0.0
H670 H 0.40499 0.20276 0.11489 0.0
H671 H 0.36642 0.23797 0.15983 0.0
C672 C 0.45104 0.10328 0.07694 0.0
C673 C 0.43768 0.09186 0.05162 0.0
C674 C 0.42895 0.12969 0.09674 0.0
C675 C 0.39285 0.14505 0.09195 0.0
C676 C 0.37983 0.1346 0.06577 0.0
C677 C 0.40208 0.10845 0.04564 0.0
C678 C 0.3126 0.18264 0.15748 0.0
C679 C 0.32385 0.20971 0.16835 0.0
C680 C 0.33439 0.16284 0.13168 0.0
C681 C 0.36821 0.16928 0.11631 0.0
C682 C 0.37913 0.19705 0.12643 0.0
C683 C 0.35701 0.2173 0.15201 0.0
H684 H 0.09587 0.96018 0.40288 0.0
H685 H 0.03536 0.07228 0.40385 0.0
H686 H 0.13487 0.97926 0.34925 0.0
H687 H 0.07335 0.09112 0.35037 0.0
H688 H 0.13902 0.12608 0.26022 0.0
H689 H 0.09901 0.086 0.28597 0.0
H690 H 0.1783 0.0194 0.34986 0.0
H691 H 0.21866 0.05909 0.32368 0.0
C692 C 0.09024 0.98864 0.39092 0.0
C693 C 0.06326 0.01501 0.40754 0.0
C694 C 0.11237 -0.00055 0.36032 0.0
C695 C 0.10701 0.03656 0.34572 0.0
C696 C 0.07779 0.06226 0.36075 0.0
C697 C 0.05633 0.05161 0.3916 0.0
C698 C 0.14865 0.1019 0.27851 0.0
C699 C 0.18144 0.09618 0.29081 0.0
C700 C 0.12572 0.07898 0.29319 0.0
C701 C 0.13535 0.05017 0.3203 0.0
C702 C 0.17023 0.04147 0.32898 0.0
C703 C 0.19312 0.06446 0.31439 0.0
H704 H 0.77948 0.17184 0.17198 0.0
H705 H 0.87001 0.1999 0.1973 0.0
H706 H 0.81929 0.13869 0.12707 0.0
H707 H 0.9105 0.16513 0.15316 0.0
H708 H 0.97009 0.11646 0.05396 0.0
H709 H 0.92972 0.15853 0.09202 0.0
H710 H 0.86266 0.08198 0.12885 0.0
H711 H 0.9019 0.04099 0.09027 0.0
C712 C 0.80799 0.17092 0.16784 0.0
C713 C 0.8218 0.18797 0.18837 0.0
C714 C 0.83086 0.15175 0.14225 0.0
C715 C 0.86821 0.14854 0.13704 0.0
C716 C 0.88184 0.16716 0.15642 0.0
C717 C 0.85874 0.18694 0.18177 0.0
C718 C 0.94659 0.10883 0.07011 0.0
C719 C 0.93905 0.07554 0.06898 0.0
C720 C 0.92357 0.13282 0.092 0.0
C721 C 0.89275 0.12381 0.11323 0.0
C722 C 0.8856 0.0903 0.11221 0.0
C723 C 0.90831 0.06659 0.09024 0.0
H724 H 0.09664 0.57496 0.47638 0.0
H725 H 0.04618 0.57837 0.38776 0.0
H726 H 0.13526 0.61267 0.43982 0.0
H727 H 0.08499 0.6163 0.35092 0.0
H728 H 0.18599 0.65352 0.28589 0.0
H729 H 0.14587 0.61711 0.32222 0.0
H730 H 0.13888 0.67256 0.40886 0.0
H731 H 0.1791 0.70903 0.37237 0.0
C732 C 0.09358 0.58376 0.44905 0.0
C733 C 0.06785 0.57315 0.43543 0.0
C734 C 0.11584 0.60582 0.4279 0.0
C735 C 0.11381 0.61809 0.3919 0.0
C736 C 0.08806 0.60743 0.37823 0.0
C737 C 0.06543 0.58566 0.39955 0.0
C738 C 0.176 0.6581 0.3127 0.0
C739 C 0.18634 0.68456 0.32583 0.0
C740 C 0.15253 0.63717 0.33368 0.0
C741 C 0.13856 0.64135 0.36899 0.0
C742 C 0.14902 0.6678 0.38214 0.0
C743 C 0.17217 0.68906 0.361 0.0
H744 H 0.60894 0.94056 0.56152 0.0
H745 H 0.52061 0.88853 0.5989 0.0
H746 H 0.64297 0.89934 0.60461 0.0
H747 H 0.55496 0.84715 0.64342 0.0
H748 H 0.65161 0.75857 0.69173 0.0
H749 H 0.61091 0.79672 0.6512 0.0
H750 H 0.63857 0.89254 0.66733 0.0
H751 H 0.67971 0.85467 0.70647 0.0
C752 C 0.59664 0.92037 0.57916 0.0
C753 C 0.56184 0.91813 0.57714 0.0
C754 C 0.61615 0.89681 0.60405 0.0
C755 C 0.60133 0.87055 0.62797 0.0
C756 C 0.56698 0.86725 0.62535 0.0
C757 C 0.54734 0.89091 0.6 0.0
C758 C 0.64863 0.78784 0.68675 0.0
C759 C 0.66928 0.80363 0.70168 0.0
C760 C 0.62526 0.80964 0.66372 0.0
C761 C 0.6221 0.8475 0.65558 0.0
C762 C 0.64118 0.86332 0.67231 0.0
C763 C 0.66469 0.84163 0.69483 0.0
H764 H 0.51313 0.34249 0.89997 0.0
H765 H 0.42458 0.3327 0.98384 0.0
H766 H 0.48779 0.31442 0.86399 0.0
H767 H 0.39935 0.30436 0.94794 0.0
H768 H 0.33824 0.32752 0.85404 0.0
H769 H 0.37109 0.3373 0.89588 0.0
H770 H 0.46689 0.26151 0.85404 0.0
H771 H 0.43379 0.25213 0.81128 0.0
C772 C 0.48897 0.33309 0.91118 0.0
C773 C 0.47041 0.34032 0.94441 0.0
C774 C 0.47446 0.31703 0.89056 0.0
C775 C 0.44123 0.30797 0.90295 0.0
C776 C 0.42462 0.31187 0.93751 0.0
C777 C 0.43904 0.32799 0.95804 0.0
C778 C 0.36639 0.31315 0.85352 0.0
C779 C 0.38363 0.28948 0.8291 0.0
C780 C 0.38504 0.31823 0.87791 0.0
C781 C 0.42143 0.2998 0.87849 0.0
C782 C 0.43881 0.27597 0.85417 0.0
C783 C 0.41994 0.27062 0.8298 0.0
H784 H 0.86495 0.8005 0.37078 0.0
H785 H 0.96186 0.74477 0.30984 0.0
H786 H 0.90079 0.81006 0.41029 0.0
H787 H 0.99821 0.75475 0.34959 0.0
H788 H 0.03048 0.84579 0.39861 0.0
H789 H 0.00802 0.81525 0.36264 0.0
H790 H 0.94272 0.7718 0.4545 0.0
H791 H 0.96576 0.80167 0.49088 0.0
C792 C 0.89402 0.79042 0.36585 0.0
C793 C 0.91079 0.77238 0.33711 0.0
C794 C 0.91447 0.79537 0.38872 0.0
C795 C 0.95217 0.78271 0.38316 0.0
C796 C 0.96912 0.76452 0.35446 0.0
C797 C 0.94846 0.75895 0.33179 0.0
C798 C 0.01255 0.82846 0.41146 0.0
C799 C 0.9993 0.82675 0.44754 0.0
C800 C 0.99966 0.81102 0.39077 0.0
C801 C 0.97321 0.79182 0.4058 0.0
C802 C 0.96275 0.78698 0.4423 0.0
C803 C 0.97582 0.80417 0.46304 0.0
H804 H 0.40212 0.58872 0.54131 0.0
H805 H 0.49885 0.60633 0.56468 0.0
H806 H 0.36547 0.63413 0.57708 0.0
H807 H 0.46192 0.65099 0.60198 0.0
H808 H 0.37721 0.74428 0.6546 0.0
H809 H 0.41582 0.71049 0.60842 0.0
H810 H 0.35567 0.62754 0.64019 0.0
H811 H 0.31739 0.66087 0.68489 0.0
C812 C 0.41551 0.60251 0.554 0.0
C813 C 0.4532 0.5936 0.55088 0.0
C814 C 0.39457 0.62847 0.5745 0.0
C815 C 0.41085 0.64545 0.59297 0.0
C816 C 0.44866 0.63835 0.58802 0.0
C817 C 0.46974 0.61269 0.56689 0.0
C818 C 0.37238 0.71886 0.65149 0.0
C819 C 0.3441 0.70543 0.67318 0.0
C820 C 0.39442 0.69957 0.62518 0.0
C821 C 0.38827 0.66677 0.62029 0.0
C822 C 0.36045 0.65326 0.64253 0.0
C823 C 0.33863 0.67234 0.66846 0.0
H824 H 0.52769 0.1084 0.91211 0.0
H825 H 0.62125 0.03959 0.9551 0.0
H826 H 0.56486 0.14861 0.87591 0.0
H827 H 0.6586 0.07881 0.91774 0.0
H828 H 0.71392 0.1372 0.80824 0.0
H829 H 0.67653 0.09823 0.84584 0.0
H830 H 0.60674 0.1918 0.8891 0.0
H831 H 0.64519 0.23066 0.85259 0.0
C832 C 0.55621 0.10156 0.91372 0.0
C833 C 0.57116 0.07038 0.93682 0.0
C834 C 0.57758 0.12484 0.89298 0.0
C835 C 0.615 0.11723 0.89364 0.0
C836 C 0.63004 0.08573 0.91628 0.0
C837 C 0.60848 0.06315 0.93784 0.0
C838 C 0.69074 0.14961 0.82585 0.0
C839 C 0.68297 0.1874 0.82714 0.0
C840 C 0.66923 0.1271 0.84757 0.0
C841 C 0.6383 0.14158 0.8707 0.0
C842 C 0.63014 0.17947 0.87167 0.0
C843 C 0.65238 0.20183 0.85074 0.0
H844 H 0.02336 0.38386 0.09913 0.0
H845 H 0.11649 0.41347 0.03277 0.0
H846 H 0.06178 0.34701 0.1422 0.0
H847 H 0.15478 0.37624 0.07493 0.0
H848 H 0.19931 0.35869 0.17562 0.0
H849 H 0.15958 0.38726 0.13224 0.0
H850 H 0.11313 0.29402 0.15581 0.0
H851 H 0.15256 0.26553 0.19993 0.0
C852 C 0.05217 0.38144 0.09327 0.0
C853 C 0.06702 0.40169 0.06295 0.0
C854 C 0.07412 0.36055 0.11792 0.0
C855 C 0.11111 0.35959 0.1123 0.0
C856 C 0.12621 0.37737 0.08047 0.0
C857 C 0.10437 0.39836 0.05618 0.0
C858 C 0.1805 0.34434 0.17177 0.0
C859 C 0.17921 0.3098 0.19109 0.0
C860 C 0.15794 0.36055 0.14668 0.0
C861 C 0.13368 0.34255 0.14019 0.0
C862 C 0.13155 0.3085 0.16025 0.0
C863 C 0.15416 0.29223 0.18546 0.0
H864 H 0.58213 0.45807 0.88636 0.0
H865 H 0.64057 0.49415 0.9488 0.0
H866 H 0.62692 0.46857 0.83456 0.0
H867 H 0.68525 0.50396 0.89793 0.0
H868 H 0.75234 0.54041 0.81436 0.0
H869 H 0.73098 0.48737 0.84657 0.0
H870 H 0.62943 0.53273 0.8076 0.0
H871 H 0.6511 0.58509 0.77507 0.0
C872 C 0.60527 0.46694 0.8892 0.0
C873 C 0.60761 0.47639 0.92107 0.0
C874 C 0.63089 0.47276 0.85969 0.0
C875 C 0.65935 0.48745 0.86205 0.0
C876 C 0.66384 0.49242 0.89511 0.0
C877 C 0.63796 0.48735 0.92425 0.0
C878 C 0.72613 0.538 0.81142 0.0
C879 C 0.70276 0.56717 0.79338 0.0
C880 C 0.71399 0.50763 0.82967 0.0
C881 C 0.67814 0.50662 0.83058 0.0
C882 C 0.65714 0.5328 0.80763 0.0
C883 C 0.66942 0.56303 0.78911 0.0
H884 H 0.72383 0.34269 0.18665 0.0
H885 H 0.64673 0.27603 0.21306 0.0
H886 H 0.68956 0.38176 0.14156 0.0
H887 H 0.6123 0.31533 0.16891 0.0
H888 H 0.59567 0.46372 0.0917 0.0
H889 H 0.63187 0.42567 0.13529 0.0
H890 H 0.61825 0.32896 0.10564 0.0
H891 H 0.58115 0.36707 0.06258 0.0
C892 C 0.69942 0.33665 0.18309 0.0
C893 C 0.68805 0.30626 0.20323 0.0
C894 C 0.6798 0.35899 0.15735 0.0
C895 C 0.64847 0.35133 0.15149 0.0
C896 C 0.63676 0.32144 0.17226 0.0
C897 C 0.65637 0.2991 0.19777 0.0
C898 C 0.60045 0.43431 0.09441 0.0
C899 C 0.58535 0.41833 0.07391 0.0
C900 C 0.6214 0.41255 0.11924 0.0
C901 C 0.62775 0.37439 0.12398 0.0
C902 C 0.61327 0.35837 0.10296 0.0
C903 C 0.59218 0.38015 0.07821 0.0
H904 H 0.96683 0.44798 0.34613 0.0
H905 H 0.85824 0.50332 0.385 0.0
H906 H 0.94366 0.41623 0.31161 0.0
H907 H 0.8347 0.47109 0.35073 0.0
H908 H 0.80588 0.41122 0.27405 0.0
H909 H 0.8309 0.45562 0.29167 0.0
H910 H 0.91219 0.36683 0.33608 0.0
H911 H 0.88732 0.323 0.31864 0.0
C912 C 0.93799 0.45421 0.34628 0.0
C913 C 0.91427 0.47801 0.3681 0.0
C914 C 0.92469 0.43583 0.32681 0.0
C915 C 0.88735 0.44063 0.32896 0.0
C916 C 0.86361 0.46691 0.34844 0.0
C917 C 0.87701 0.48544 0.36797 0.0
C918 C 0.82949 0.40143 0.28704 0.0
C919 C 0.84467 0.36372 0.29507 0.0
C920 C 0.84362 0.42675 0.2973 0.0
C921 C 0.8736 0.41476 0.31513 0.0
C922 C 0.88942 0.37706 0.32194 0.0
C923 C 0.87504 0.35189 0.3122 0.0
H924 H 0.66289 0.60354 0.49182 0.0
H925 H 0.71469 0.50185 0.45282 0.0
H926 H 0.71369 0.62828 0.46228 0.0
H927 H 0.76611 0.52655 0.42341 0.0
H928 H 0.75688 0.61848 0.3214 0.0
H929 H 0.74779 0.5727 0.37193 0.0
H930 H 0.77672 0.6345 0.43708 0.0
H931 H 0.78659 0.68049 0.3855 0.0
C932 C 0.68605 0.58579 0.4785 0.0
C933 C 0.68439 0.55144 0.47323 0.0
C934 C 0.71542 0.59986 0.46175 0.0
C935 C 0.74318 0.57973 0.43948 0.0
C936 C 0.74455 0.54288 0.43978 0.0
C937 C 0.71504 0.5289 0.4563 0.0
C938 C 0.76223 0.62176 0.34634 0.0
C939 C 0.77134 0.65326 0.35003 0.0
C940 C 0.75769 0.59521 0.37525 0.0
C941 C 0.76139 0.60011 0.4086 0.0
C942 C 0.77374 0.63012 0.41167 0.0
C943 C 0.77907 0.65645 0.38235 0.0
H944 H 0.76517 0.40762 0.85149 0.0
H945 H 0.746 0.32059 0.93489 0.0
H946 H 0.78965 0.43298 0.89014 0.0
H947 H 0.77006 0.34625 0.9744 0.0
H948 H 0.87594 0.36505 1.00038 0.0
H949 H 0.83104 0.34726 0.97701 0.0
H950 H 0.7844 0.46083 0.94001 0.0
H951 H 0.83011 0.47821 0.96237 0.0
C952 C 0.76498 0.39478 0.87863 0.0
C953 C 0.7538 0.36226 0.89033 0.0
C954 C 0.77896 0.40929 0.90092 0.0
C955 C 0.7823 0.39141 0.9354 0.0
C956 C 0.76839 0.36037 0.94787 0.0
C957 C 0.75419 0.34593 0.92548 0.0
C958 C 0.85549 0.38616 0.98803 0.0
C959 C 0.85677 0.42289 0.98266 0.0
C960 C 0.82961 0.37606 0.97473 0.0
C961 C 0.80435 0.40259 0.95609 0.0
C962 C 0.80391 0.43961 0.95347 0.0
C963 C 0.82998 0.44961 0.96638 0.0
H964 H 0.7872 0.85352 0.20032 0.0
H965 H 0.74949 0.79118 0.1427 0.0
H966 H 0.79479 0.89778 0.1478 0.0
H967 H 0.75815 0.83538 0.08923 0.0
H968 H 0.8107 0.97417 0.06283 0.0
H969 H 0.76504 0.94411 0.09813 0.0
H970 H 0.82277 0.84361 0.05921 0.0
H971 H 0.8682 0.87373 0.02384 0.0
C972 C 0.77995 0.84975 0.17644 0.0
C973 C 0.7684 0.81886 0.17518 0.0
C974 C 0.78371 0.87533 0.14649 0.0
C975 C 0.77674 0.87007 0.11453 0.0
C976 C 0.76329 0.84013 0.11367 0.0
C977 C 0.75861 0.81488 0.14406 0.0
C978 C 0.8125 0.94619 0.06049 0.0
C979 C 0.84333 0.92575 0.04173 0.0
C980 C 0.78633 0.92909 0.08049 0.0
C981 C 0.79113 0.89139 0.08208 0.0
C982 C 0.81857 0.8727 0.05852 0.0
C983 C 0.84472 0.88987 0.03838 0.0
H984 H 0.84747 0.13394 0.77632 0.0
H985 H 0.84245 0.22115 0.83212 0.0
H986 H 0.89214 0.09288 0.81135 0.0
H987 H 0.88671 0.18036 0.86689 0.0
H988 H 0.92367 0.0254 0.91892 0.0
H989 H 0.88913 0.06462 0.87442 0.0
H990 H 0.95051 0.14458 0.86455 0.0
H991 H 0.98516 0.10528 0.90934 0.0
C992 C 0.85624 0.14447 0.79567 0.0
C993 C 0.84121 0.18072 0.80159 0.0
C994 C 0.88166 0.12094 0.81584 0.0
C995 C 0.89292 0.13334 0.84197 0.0
C996 C 0.87895 0.17001 0.84678 0.0
C997 C 0.85333 0.19333 0.82697 0.0
C998 C 0.93014 0.05116 0.90701 0.0
C999 C 0.957 0.06234 0.91793 0.0
C1000 C 0.91048 0.07353 0.88127 0.0
C1001 C 0.91696 0.10779 0.86601 0.0
C1002 C 0.94466 0.11847 0.87606 0.0
C1003 C 0.9646 0.0959 0.9016 0.0
H1004 H 0.76812 0.10403 0.63118 0.0
H1005 H 0.72081 0.21552 0.58939 0.0
H1006 H 0.74133 0.0825 0.59076 0.0
H1007 H 0.69434 0.19433 0.54873 0.0
H1008 H 0.69172 0.05517 0.50713 0.0
H1009 H 0.73345 0.0802 0.52855 0.0
H1010 H 0.64342 0.16417 0.56687 0.0
H1011 H 0.60226 0.13905 0.54585 0.0
C1012 C 0.7533 0.12383 0.61225 0.0
C1013 C 0.74653 0.16132 0.61311 0.0
C1014 C 0.73793 0.1116 0.58915 0.0
C1015 C 0.71535 0.13677 0.56689 0.0
C1016 C 0.71126 0.17432 0.56585 0.0
C1017 C 0.72659 0.18647 0.58886 0.0
C1018 C 0.68121 0.07949 0.51941 0.0
C1019 C 0.64394 0.09533 0.5249 0.0
C1020 C 0.70495 0.09364 0.53182 0.0
C1021 C 0.69174 0.1242 0.5493 0.0
C1022 C 0.65457 0.14097 0.55306 0.0
C1023 C 0.63094 0.12654 0.5412 0.0
H1024 H 0.54022 0.93561 0.40287 0.0
H1025 H 0.63169 0.94896 0.44021 0.0
H1026 H 0.58062 0.89627 0.36288 0.0
H1027 H 0.67224 0.90768 0.40198 0.0
H1028 H 0.73905 0.8489 0.31392 0.0
H1029 H 0.69853 0.89655 0.34532 0.0
H1030 H 0.61583 0.83654 0.36726 0.0
H1031 H 0.65563 0.79034 0.33406 0.0
C1032 C 0.56907 0.93002 0.40242 0.0
C1033 C 0.58301 0.94491 0.42463 0.0
C1034 C 0.59221 0.90728 0.37978 0.0
C1035 C 0.62968 0.89822 0.37964 0.0
C1036 C 0.6436 0.91433 0.40107 0.0
C1037 C 0.62043 0.93783 0.42311 0.0
C1038 C 0.71213 0.84611 0.32545 0.0
C1039 C 0.70035 0.81605 0.32174 0.0
C1040 C 0.68896 0.87329 0.34353 0.0
C1041 C 0.65386 0.87048 0.35882 0.0
C1042 C 0.64232 0.84014 0.35513 0.0
C1043 C 0.66521 0.81343 0.33643 0.0
H1044 H 0.84096 0.18744 0.34929 0.0
H1045 H 0.77971 0.10919 0.35069 0.0
H1046 H 0.872 0.14667 0.3951 0.0
H1047 H 0.81093 0.06825 0.39715 0.0
H1048 H 0.91829 0.99473 0.441 0.0
H1049 H 0.8746 0.03149 0.40324 0.0
H1050 H 0.85731 0.1225 0.45819 0.0
H1051 H 0.90132 0.08616 0.49544 0.0
C1052 C 0.8341 0.16152 0.35938 0.0
C1053 C 0.80794 0.1515 0.34634 0.0
C1054 C 0.8516 0.13834 0.38592 0.0
C1055 C 0.84341 0.10459 0.40002 0.0
C1056 C 0.81762 0.0942 0.38675 0.0
C1057 C 0.79986 0.11758 0.36019 0.0
C1058 C 0.90441 0.02226 0.44561 0.0
C1059 C 0.91373 0.03792 0.47057 0.0
C1060 C 0.87938 0.04325 0.42404 0.0
C1061 C 0.86332 0.08003 0.42735 0.0
C1062 C 0.87004 0.09444 0.4546 0.0
C1063 C 0.8951 0.0736 0.47598 0.0
H1064 H 0.60578 0.13233 0.24062 0.0
H1065 H 0.70365 0.05019 0.25818 0.0
H1066 H 0.58528 0.08974 0.21602 0.0
H1067 H 0.68348 0.00742 0.23289 0.0
H1068 H 0.65627 0.98989 0.12394 0.0
H1069 H 0.67572 0.01334 0.16816 0.0
H1070 H 0.56828 0.02825 0.22736 0.0
H1071 H 0.54913 0.00424 0.18319 0.0
C1072 C 0.62235 0.10473 0.24009 0.0
C1073 C 0.65612 0.09434 0.25131 0.0
C1074 C 0.61064 0.08031 0.22614 0.0
C1075 C 0.63282 0.04526 0.22254 0.0
C1076 C 0.66588 0.03426 0.23541 0.0
C1077 C 0.67731 0.05856 0.24999 0.0
C1078 C 0.63735 -0.00324 0.14719 0.0
C1079 C 0.60139 0.99507 0.15052 0.0
C1080 C 0.6484 0.01016 0.17248 0.0
C1081 C 0.62342 0.02279 0.20109 0.0
C1082 C 0.58802 0.01875 0.20553 0.0
C1083 C 0.57714 0.00482 0.18049 0.0
H1084 H 0.64003 0.76128 0.85489 0.0
H1085 H 0.72491 0.813 0.8551 0.0
H1086 H 0.60099 0.79747 0.89897 0.0
H1087 H 0.68629 0.84886 0.89862 0.0
H1088 H 0.61648 0.89576 0.99185 0.0
H1089 H 0.65434 0.84737 0.95942 0.0
H1090 H 0.57115 0.86402 0.89618 0.0
H1091 H 0.53329 0.91203 0.92859 0.0
C1092 C 0.65056 0.77978 0.86483 0.0
C1093 C 0.68539 0.78451 0.85135 0.0
C1094 C 0.62819 0.80066 0.88985 0.0
C1095 C 0.6405 0.82617 0.90219 0.0
C1096 C 0.67603 0.82927 0.89 0.0
C1097 C 0.69811 0.80885 0.86482 0.0
C1098 C 0.60611 0.88879 0.97131 0.0
C1099 C 0.57203 0.90806 0.96257 0.0
C1100 C 0.62782 0.86112 0.95269 0.0
C1101 C 0.6158 0.85191 0.92514 0.0
C1102 C 0.58109 0.87012 0.91747 0.0
C1103 C 0.55952 0.89792 0.93587 0.0
H1104 H 0.93321 0.02023 0.61834 0.0
H1105 H 0.97913 0.90522 0.61447 0.0
H1106 H 0.89365 0.00509 0.67289 0.0
H1107 H 0.94044 0.89023 0.66895 0.0
H1108 H 0.87501 0.86248 0.76208 0.0
H1109 H 0.92001 0.89651 0.73457 0.0
H1110 H 0.84251 0.97284 0.67409 0.0
H1111 H 0.79726 0.93905 0.70189 0.0
C1112 C 0.93555 0.99179 0.62973 0.0
C1113 C 0.95858 0.96376 0.61209 0.0
C1114 C 0.91312 0.98324 0.6609 0.0
C1115 C 0.91421 0.94661 0.67509 0.0
C1116 C 0.93947 0.91874 0.65885 0.0
C1117 C 0.96124 0.92724 0.62744 0.0
C1118 C 0.86698 0.88758 0.74428 0.0
C1119 C 0.83305 0.89766 0.73325 0.0
C1120 C 0.89279 0.907 0.72856 0.0
C1121 C 0.88484 0.93667 0.70178 0.0
C1122 C 0.84929 0.94997 0.69467 0.0
C1123 C 0.82352 0.93043 0.71026 0.0
H1124 H 0.23223 0.81893 0.84932 0.0
H1125 H 0.14437 0.78647 0.82367 0.0
H1126 H 0.19022 0.85532 0.89064 0.0
H1127 H 0.10174 0.82434 0.86423 0.0
H1128 H 0.10567 0.95433 0.9213 0.0
H1129 H 0.14623 0.91172 0.8849 0.0
H1130 H 0.08023 0.83452 0.92437 0.0
H1131 H 0.0386 0.87809 0.9602 0.0
C1132 C 0.20384 0.81958 0.85259 0.0
C1133 C 0.19146 0.80026 0.83301 0.0
C1134 C 0.17972 0.84062 0.87612 0.0
C1135 C 0.14251 0.8434 0.8802 0.0
C1136 C 0.13024 0.8227 0.86179 0.0
C1137 C 0.15459 0.80112 0.8385 0.0
C1138 C 0.09974 0.92827 0.9223 0.0
C1139 C 0.06902 0.9195 0.94374 0.0
C1140 C 0.12319 0.90367 0.90159 0.0
C1141 C 0.11679 0.86944 0.90207 0.0
C1142 C 0.08582 0.86073 0.92327 0.0
C1143 C 0.06208 0.8856 0.94386 0.0
H1144 H 0.9122 0.42799 0.5366 0.0
H1145 H 0.96121 0.42696 0.62551 0.0
H1146 H 0.87418 0.3897 0.57324 0.0
H1147 H 0.92306 0.38842 0.6624 0.0
H1148 H 0.82307 0.34939 0.72719 0.0
H1149 H 0.8625 0.3865 0.69081 0.0
H1150 H 0.87144 0.32984 0.60453 0.0
H1151 H 0.83186 0.29272 0.64104 0.0
C1152 C 0.91506 0.4196 0.56401 0.0
C1153 C 0.9402 0.43103 0.5777 0.0
C1154 C 0.89317 0.3972 0.5852 0.0
C1155 C 0.895 0.3854 0.62128 0.0
C1156 C 0.92015 0.39691 0.63502 0.0
C1157 C 0.9424 0.41903 0.61366 0.0
C1158 C 0.83337 0.34469 0.70045 0.0
C1159 C 0.82376 0.31771 0.68742 0.0
C1160 C 0.85642 0.36602 0.67945 0.0
C1161 C 0.87071 0.36172 0.64422 0.0
C1162 C 0.86102 0.33472 0.63118 0.0
C1163 C 0.83825 0.31307 0.65234 0.0
H1164 H 0.47359 0.12891 0.43653 0.0
H1165 H 0.44932 0.03822 0.40562 0.0
H1166 H 0.43397 0.17162 0.39708 0.0
H1167 H 0.41122 0.08023 0.36581 0.0
H1168 H 0.30744 0.15841 0.3431 0.0
H1169 H 0.35238 0.12088 0.37824 0.0
H1170 H 0.42188 0.19411 0.33518 0.0
H1171 H 0.37595 0.23272 0.30017 0.0
C1172 C 0.46044 0.11819 0.42074 0.0
C1173 C 0.46384 0.08045 0.4245 0.0
C1174 C 0.43788 0.14252 0.39819 0.0
C1175 C 0.41885 0.12924 0.37903 0.0
C1176 C 0.42462 0.09134 0.38104 0.0
C1177 C 0.44658 0.06727 0.40372 0.0
C1178 C 0.33224 0.16667 0.34103 0.0
C1179 C 0.33833 0.1983 0.31855 0.0
C1180 C 0.35813 0.14501 0.36106 0.0
C1181 C 0.39099 0.15414 0.35893 0.0
C1182 C 0.3968 0.1864 0.33728 0.0
C1183 C 0.37061 0.20837 0.31722 0.0
H1184 H 0.53354 0.67476 0.06 0.0
H1185 H 0.59532 0.57146 0.10749 0.0
H1186 H 0.54602 0.70516 0.10353 0.0
H1187 H 0.60836 0.60157 0.14992 0.0
H1188 H 0.60872 0.65377 0.23797 0.0
H1189 H 0.5787 0.63262 0.20038 0.0
H1190 H 0.60072 0.71853 0.11643 0.0
H1191 H 0.63034 0.73986 0.1541 0.0
C1192 C 0.54974 0.65865 0.07968 0.0
C1193 C 0.56395 0.62089 0.08007 0.0
C1194 C 0.55687 0.67598 0.1045 0.0
C1195 C 0.57786 0.65566 0.1303 0.0
C1196 C 0.59155 0.61788 0.1308 0.0
C1197 C 0.58465 0.60073 0.10605 0.0
C1198 C 0.60641 0.66855 0.21174 0.0
C1199 C 0.62229 0.69806 0.19875 0.0
C1200 C 0.58931 0.65647 0.19023 0.0
C1201 C 0.58804 0.67352 0.15529 0.0
C1202 C 0.60117 0.70496 0.14328 0.0
C1203 C 0.61814 0.71715 0.16487 0.0
H1204 H 0.05765 0.25025 0.69316 0.0
H1205 H 0.15385 0.20166 0.6267 0.0
H1206 H 0.02038 0.23648 0.65659 0.0
H1207 H 0.11717 0.1883 0.59027 0.0
H1208 H 0.04967 0.18173 0.51843 0.0
H1209 H 0.07123 0.21817 0.54956 0.0
H1210 H 0.01411 0.17455 0.64724 0.0
H1211 H 0.99282 0.13796 0.61636 0.0
C1212 C 0.07064 0.23709 0.67049 0.0
C1213 C 0.10841 0.22649 0.66279 0.0
C1214 C 0.04948 0.22931 0.64964 0.0
C1215 C 0.06594 0.21166 0.62048 0.0
C1216 C 0.10372 0.2025 0.6122 0.0
C1217 C 0.12473 0.20967 0.63325 0.0
C1218 C 0.04102 0.18064 0.54642 0.0
C1219 C 0.02023 0.15643 0.56506 0.0
C1220 C 0.05323 0.20155 0.56417 0.0
C1221 C 0.0448 0.19862 0.60082 0.0
C1222 C 0.02086 0.17745 0.61896 0.0
C1223 C 0.00869 0.15646 0.60121 0.0
H1224 H 0.62757 0.26912 0.34344 0.0
H1225 H 0.72104 0.27968 0.37932 0.0
H1226 H 0.58857 0.31183 0.38172 0.0
H1227 H 0.68237 0.32096 0.4184 0.0
H1228 H 0.61463 0.43526 0.43123 0.0
H1229 H 0.65026 0.38356 0.40316 0.0
H1230 H 0.56458 0.32796 0.44073 0.0
H1231 H 0.52823 0.38048 0.46836 0.0
C1232 C 0.63956 0.27959 0.36045 0.0
C1233 C 0.67715 0.27174 0.35821 0.0
C1234 C 0.61733 0.30401 0.38232 0.0
C1235 C 0.63255 0.32042 0.40238 0.0
C1236 C 0.66996 0.30961 0.40246 0.0
C1237 C 0.69207 0.28579 0.38033 0.0
C1238 C 0.60333 0.41204 0.43362 0.0
C1239 C 0.56865 0.41194 0.45203 0.0
C1240 C 0.62391 0.38221 0.4178 0.0
C1241 C 0.61042 0.35143 0.42018 0.0
C1242 C 0.57562 0.35132 0.43843 0.0
C1243 C 0.5549 0.38134 0.45426 0.0
H1244 H 0.48226 0.89277 0.101 0.0
H1245 H 0.38931 0.96172 0.05706 0.0
H1246 H 0.44477 0.8526 0.13669 0.0
H1247 H 0.35166 0.92255 0.09388 0.0
H1248 H 0.29507 0.86446 0.20249 0.0
H1249 H 0.33282 0.90329 0.16536 0.0
H1250 H 0.40329 0.80949 0.12294 0.0
H1251 H 0.3645 0.77074 0.15901 0.0
C1252 C 0.45381 0.89965 0.09908 0.0
C1253 C 0.4391 0.93084 0.07589 0.0
C1254 C 0.43226 0.8764 0.11952 0.0
C1255 C 0.39493 0.88407 0.1184 0.0
C1256 C 0.38014 0.91559 0.09567 0.0
C1257 C 0.40187 0.93814 0.07444 0.0
C1258 C 0.31846 0.85197 0.18513 0.0
C1259 C 0.32633 0.81417 0.18393 0.0
C1260 C 0.34019 0.8744 0.1637 0.0
C1261 C 0.37142 0.8598 0.14099 0.0
C1262 C 0.37965 0.8219 0.14008 0.0
C1263 C 0.35721 0.79961 0.16072 0.0
H1264 H 0.98894 0.606 0.9128 0.0
H1265 H 0.89687 0.57243 0.97738 0.0
H1266 H 0.94984 0.64461 0.87098 0.0
H1267 H 0.85796 0.61129 0.93652 0.0
H1268 H 0.8115 0.636 0.83632 0.0
H1269 H 0.85242 0.60442 0.87803 0.0
H1270 H 0.89785 0.69791 0.8605 0.0
H1271 H 0.85728 0.72942 0.81803 0.0
C1272 C 0.96024 0.60779 0.91853 0.0
C1273 C 0.94589 0.58604 0.94798 0.0
C1274 C 0.9379 0.6297 0.89461 0.0
C1275 C 0.90102 0.63018 0.90008 0.0
C1276 C 0.88645 0.61061 0.93105 0.0
C1277 C 0.90865 0.58865 0.95461 0.0
C1278 C 0.83034 0.64977 0.84115 0.0
C1279 C 0.831 0.68526 0.82404 0.0
C1280 C 0.85361 0.63181 0.86526 0.0
C1281 C 0.87792 0.64897 0.87296 0.0
C1282 C 0.87942 0.68402 0.85506 0.0
C1283 C 0.85613 0.70203 0.83082 0.0
H1284 H 0.45483 0.51854 0.11797 0.0
H1285 H 0.39848 0.47916 0.05604 0.0
H1286 H 0.40731 0.51257 0.16852 0.0
H1287 H 0.3511 0.474 0.10565 0.0
H1288 H 0.27248 0.45623 0.18786 0.0
H1289 H 0.30239 0.50224 0.15233 0.0
H1290 H 0.39816 0.44969 0.19962 0.0
H1291 H 0.36823 0.40405 0.23516 0.0
C1292 C 0.43172 0.50975 0.11493 0.0
C1293 C 0.43044 0.4985 0.08359 0.0
C1294 C 0.40457 0.50655 0.14368 0.0
C1295 C 0.37553 0.49295 0.14098 0.0
C1296 C 0.37283 0.48509 0.10847 0.0
C1297 C 0.40021 0.48748 0.08016 0.0
C1298 C 0.29933 0.45564 0.19177 0.0
C1299 C 0.31863 0.42606 0.21319 0.0
C1300 C 0.31633 0.48203 0.17162 0.0
C1301 C 0.35287 0.47874 0.17249 0.0
C1302 C 0.37 0.45279 0.19831 0.0
C1303 C 0.35292 0.42647 0.21859 0.0
H1304 H 0.45262 0.60735 0.95118 0.0
H1305 H 0.4401 0.51475 0.91309 0.0
H1306 H 0.40925 0.64803 0.91548 0.0
H1307 H 0.3974 0.55574 0.87641 0.0
H1308 H 0.36741 0.71219 0.81657 0.0
H1309 H 0.40735 0.67029 0.85452 0.0
H1310 H 0.33696 0.59673 0.87879 0.0
H1311 H 0.29705 0.63859 0.83955 0.0
C1312 C 0.44086 0.59571 0.93492 0.0
C1313 C 0.44999 0.5579 0.93471 0.0
C1314 C 0.41604 0.61903 0.91441 0.0
C1315 C 0.40004 0.60511 0.89298 0.0
C1316 C 0.40896 0.56723 0.89296 0.0
C1317 C 0.43365 0.54382 0.9137 0.0
C1318 C 0.36024 0.68716 0.83002 0.0
C1319 C 0.32899 0.67871 0.82508 0.0
C1320 C 0.38311 0.66322 0.85199 0.0
C1321 C 0.37522 0.63031 0.86984 0.0
C1322 C 0.34389 0.62178 0.8651 0.0
C1323 C 0.32095 0.64579 0.84284 0.0
H1324 H 0.07524 0.504 0.68451 0.0
H1325 H 0.1476 0.53777 0.59368 0.0
H1326 H 0.10478 0.527 0.72174 0.0
H1327 H 0.17666 0.56098 0.63012 0.0
H1328 H 0.23586 0.58889 0.69898 0.0
H1329 H 0.21346 0.54727 0.67515 0.0
H1330 H 0.10644 0.58835 0.72955 0.0
H1331 H 0.12946 0.62923 0.75431 0.0
C1332 C 0.09803 0.51549 0.67274 0.0
C1333 C 0.10922 0.51919 0.63632 0.0
C1334 C 0.11469 0.52898 0.6939 0.0
C1335 C 0.14305 0.54597 0.67897 0.0
C1336 C 0.15532 0.54765 0.64274 0.0
C1337 C 0.13858 0.53452 0.62173 0.0
C1338 C 0.20773 0.58832 0.70647 0.0
C1339 C 0.18426 0.61247 0.72812 0.0
C1340 C 0.19483 0.56465 0.6927 0.0
C1341 C 0.15799 0.56495 0.69982 0.0
C1342 C 0.135 0.58724 0.72363 0.0
C1343 C 0.14808 0.61074 0.73776 0.0
H1344 H 0.23944 0.31507 0.61944 0.0
H1345 H 0.27246 0.3725 0.68553 0.0
H1346 H 0.25159 0.36118 0.56862 0.0
H1347 H 0.28363 0.41851 0.63566 0.0
H1348 H 0.30823 0.49619 0.55458 0.0
H1349 H 0.26005 0.46737 0.58571 0.0
H1350 H 0.31641 0.36827 0.54367 0.0
H1351 H 0.36435 0.39689 0.51273 0.0
C1352 C 0.24835 0.33807 0.62316 0.0
C1353 C 0.25592 0.34007 0.65594 0.0
C1354 C 0.25498 0.36445 0.59429 0.0
C1355 C 0.26825 0.39347 0.59829 0.0
C1356 C 0.2728 0.39682 0.63183 0.0
C1357 C 0.26705 0.37017 0.6603 0.0
C1358 C 0.30945 0.46878 0.55085 0.0
C1359 C 0.3405 0.44819 0.53248 0.0
C1360 C 0.28179 0.45245 0.56837 0.0
C1361 C 0.28519 0.41535 0.56785 0.0
C1362 C 0.31319 0.39689 0.54461 0.0
C1363 C 0.34084 0.41324 0.52703 0.0
H1364 H 0.25249 0.68526 0.07888 0.0
H1365 H 0.24879 0.5926 0.16047 0.0
H1366 H 0.22351 0.6597 0.04322 0.0
H1367 H 0.22 0.56714 0.12511 0.0
H1368 H 0.10885 0.58707 0.08939 0.0
H1369 H 0.15271 0.60606 0.11239 0.0
H1370 H 0.22577 0.59591 0.0151 0.0
H1371 H 0.18195 0.57514 0.99202 0.0
C1372 C 0.24706 0.65862 0.08836 0.0
C1373 C 0.25288 0.6407 0.12222 0.0
C1374 C 0.23041 0.6441 0.06808 0.0
C1375 C 0.21925 0.61172 0.08169 0.0
C1376 C 0.22824 0.59224 0.11417 0.0
C1377 C 0.24487 0.60663 0.13428 0.0
C1378 C 0.13433 0.58846 0.07283 0.0
C1379 C 0.14219 0.57869 0.03913 0.0
C1380 C 0.15942 0.59943 0.08604 0.0
C1381 C 0.19286 0.60159 0.06578 0.0
C1382 C 0.20023 0.59402 0.0313 0.0
C1383 C 0.1751 0.58242 0.01809 0.0
H1384 H 0.65762 0.37286 0.73694 0.0
H1385 H 0.66061 0.28465 0.68333 0.0
H1386 H 0.61247 0.41359 0.70233 0.0
H1387 H 0.61579 0.32516 0.64895 0.0
H1388 H 0.51869 0.40119 0.60466 0.0
H1389 H 0.55206 0.36231 0.65074 0.0
H1390 H 0.61592 0.44041 0.63908 0.0
H1391 H 0.58282 0.47898 0.59337 0.0
C1392 C 0.6483 0.36203 0.71818 0.0
C1393 C 0.66297 0.3256 0.7127 0.0
C1394 C 0.62254 0.38537 0.69827 0.0
C1395 C 0.61058 0.37265 0.67281 0.0
C1396 C 0.62408 0.33578 0.66856 0.0
C1397 C 0.65005 0.31262 0.68811 0.0
C1398 C 0.53937 0.41032 0.61246 0.0
C1399 C 0.54827 0.44302 0.59518 0.0
C1400 C 0.55863 0.38798 0.63868 0.0
C1401 C 0.58678 0.39819 0.64849 0.0
C1402 C 0.59423 0.43186 0.63246 0.0
C1403 C 0.57537 0.45387 0.60604 0.0
H1404 H 0.88397 0.65236 0.22989 0.0
H1405 H 0.79557 0.65193 0.17943 0.0
H1406 H 0.92287 0.60345 0.1991 0.0
H1407 H 0.83469 0.60413 0.14771 0.0
H1408 H 0.90505 0.50592 0.10628 0.0
H1409 H 0.8684 0.54127 0.15147 0.0
H1410 H 0.95056 0.60024 0.13979 0.0
H1411 H 0.98747 0.56428 0.09597 0.0
C1412 C 0.87295 0.64193 0.21208 0.0
C1413 C 0.83695 0.6562 0.20664 0.0
C1414 C 0.89515 0.61389 0.19455 0.0
C1415 C 0.88185 0.59997 0.17097 0.0
C1416 C 0.84558 0.61377 0.16619 0.0
C1417 C 0.82329 0.64149 0.184 0.0
C1418 C 0.91552 0.5259 0.11397 0.0
C1419 C 0.94877 0.53283 0.09719 0.0
C1420 C 0.89449 0.54626 0.13966 0.0
C1421 C 0.90638 0.57388 0.14877 0.0
C1422 C 0.94071 0.57898 0.1336 0.0
C1423 C 0.96176 0.55855 0.10819 0.0
H1424 H 0.96706 0.62183 0.54468 0.0
H1425 H 0.88176 0.56848 0.55272 0.0
H1426 H 0.92712 0.66601 0.58029 0.0
H1427 H 0.8425 0.60997 0.59119 0.0
H1428 H 0.77051 0.69367 0.65315 0.0
H1429 H 0.80673 0.66297 0.605 0.0
H1430 H 0.90332 0.67399 0.63552 0.0
H1431 H 0.86624 0.70781 0.68129 0.0
C1432 C 0.93948 0.61988 0.55398 0.0
C1433 C 0.92725 0.59213 0.54576 0.0
C1434 C 0.91661 0.64482 0.575 0.0
C1435 C 0.88131 0.64167 0.58963 0.0
C1436 C 0.86898 0.61426 0.58026 0.0
C1437 C 0.89153 0.59016 0.55819 0.0
C1438 C 0.7995 0.69004 0.64891 0.0
C1439 C 0.81565 0.7031 0.67076 0.0
C1440 C 0.82049 0.67194 0.62153 0.0
C1441 C 0.85845 0.66506 0.61614 0.0
C1442 C 0.87435 0.67905 0.63787 0.0
C1443 C 0.85314 0.69833 0.66446 0.0
H1444 H 0.49773 0.6083 0.40047 0.0
H1445 H 0.44282 0.52366 0.4069 0.0
H1446 H 0.46157 0.6468 0.35625 0.0
H1447 H 0.40685 0.56186 0.36326 0.0
H1448 H 0.35731 0.63156 0.27054 0.0
H1449 H 0.40562 0.59245 0.30217 0.0
H1450 H 0.39686 0.67894 0.36025 0.0
H1451 H 0.34907 0.71791 0.32869 0.0
C1452 C 0.47857 0.59761 0.3919 0.0
C1453 C 0.47296 0.56307 0.40737 0.0
C1454 C 0.45766 0.61973 0.3668 0.0
C1455 C 0.4311 0.60752 0.35638 0.0
C1456 C 0.4272 0.57207 0.37037 0.0
C1457 C 0.44772 0.55023 0.39561 0.0
C1458 C 0.36602 0.64233 0.28976 0.0
C1459 C 0.34903 0.67773 0.29731 0.0
C1460 C 0.39363 0.61991 0.30795 0.0
C1461 C 0.40511 0.63253 0.33381 0.0
C1462 C 0.38907 0.66845 0.34025 0.0
C1463 C 0.36135 0.69069 0.32234 0.0
H1464 H 0.13113 0.34172 0.77541 0.0
H1465 H 0.21991 0.34705 0.82273 0.0
H1466 H 0.09087 0.38858 0.80805 0.0
H1467 H 0.1796 0.39281 0.85605 0.0
H1468 H 0.10552 0.48673 0.90178 0.0
H1469 H 0.14217 0.45432 0.8546 0.0
H1470 H 0.06564 0.38827 0.86891 0.0
H1471 H 0.02862 0.42125 0.91497 0.0
C1472 C 0.14202 0.35292 0.79276 0.0
C1473 C 0.17849 0.34041 0.79695 0.0
C1474 C 0.11901 0.37973 0.81138 0.0
C1475 C 0.13205 0.39426 0.83469 0.0
C1476 C 0.16883 0.3826 0.83789 0.0
C1477 C 0.19185 0.35604 0.8191 0.0
C1478 C 0.09626 0.46573 0.89436 0.0
C1479 C 0.06457 0.45606 0.91243 0.0
C1480 C 0.11727 0.44712 0.86747 0.0
C1481 C 0.10699 0.41847 0.85838 0.0
C1482 C 0.07415 0.41043 0.87504 0.0
C1483 C 0.05308 0.42913 0.90171 0.0
H1484 H 0.15661 0.26618 0.35899 0.0
H1485 H 0.22592 0.34044 0.33893 0.0
H1486 H 0.11952 0.2981 0.40662 0.0
H1487 H 0.18889 0.37225 0.38608 0.0
H1488 H 0.12685 0.41255 0.48608 0.0
H1489 H 0.16799 0.36832 0.45024 0.0
H1490 H 0.07795 0.35908 0.40753 0.0
H1491 H 0.03729 0.40267 0.44307 0.0
C1492 C 0.16413 0.28905 0.36491 0.0
C1493 C 0.19399 0.30098 0.34487 0.0
C1494 C 0.14287 0.30737 0.39215 0.0
C1495 C 0.15122 0.33778 0.40015 0.0
C1496 C 0.18192 0.34871 0.38097 0.0
C1497 C 0.20294 0.33064 0.35364 0.0
C1498 C 0.11589 0.40041 0.46958 0.0
C1499 C 0.07892 0.41133 0.46717 0.0
C1500 C 0.13941 0.3753 0.44889 0.0
C1501 C 0.12627 0.36031 0.42585 0.0
C1502 C 0.089 0.36975 0.42514 0.0
C1503 C 0.06569 0.39501 0.44539 0.0
loop_
_geom_bond_atom_site_label_1
_geom_bond_atom_site_label_2
_geom_bond_distance
_geom_bond_site_symmetry_2
_ccdc_geom_bond_type
C0 O16 1.251 . S
C0 O18 1.254 . S
N1 C2 1.333 . S
N1 C6 1.307 . S
N1 Zn7 2.020 . S
C2 N1 1.333 . S
C2 C3 1.379 . S
C2 H20 0.952 . S
C3 C2 1.379 . S
C3 C4 1.390 . S
C3 H30 0.949 . S
C4 C3 1.390 . S
C4 C5 1.357 . S
C5 C4 1.357 . S
C5 C6 1.370 . S
C5 H31 0.950 . S
C6 N1 1.307 . S
C6 C5 1.370 . S
C6 H24 0.948 1_554 S
Zn7 N1 2.020 . S
Zn7 O16 2.039 1_565 S
Zn7 O22 2.034 1_655 S
Zn7 O26 2.025 1_654 S
Zn7 O28 2.024 1_564 S
C8 O27 1.246 . S
C8 O28 1.249 . S
N9 C10 1.307 . S
N9 C11 1.333 . S
N9 Zn15 2.020 . S
C10 N9 1.307 . S
C10 C14 1.370 . S
C10 H21 0.948 1_556 S
C11 N9 1.333 . S
C11 C12 1.379 . S
C11 H19 0.952 . S
C12 C11 1.379 . S
C12 C13 1.390 . S
C12 H32 0.949 . S
C13 C12 1.390 . S
C13 C14 1.357 . S
C14 C10 1.370 . S
C14 C13 1.357 . S
C14 H33 0.950 . S
Zn15 N9 2.020 . S
Zn15 O18 2.025 1_456 S
Zn15 O23 2.024 1_546 S
Zn15 O25 2.039 1_545 S
Zn15 O27 2.034 1_455 S
O16 C0 1.251 . S
O16 Zn7 2.039 1_545 S
C17 O22 1.246 . S
C17 O23 1.249 . S
O18 C0 1.254 . S
O18 Zn15 2.025 1_654 S
H19 C11 0.952 . S
H20 C2 0.952 . S
H21 C10 0.948 1_554 S
O22 Zn7 2.034 1_455 S
O22 C17 1.246 . S
O23 Zn15 2.024 1_564 S
O23 C17 1.249 . S
H24 C6 0.948 1_556 S
O25 Zn15 2.039 1_565 S
O25 C29 1.251 . S
O26 Zn7 2.025 1_456 S
O26 C29 1.254 . S
O27 C8 1.246 . S
O27 Zn15 2.034 1_655 S
O28 Zn7 2.024 1_546 S
O28 C8 1.249 . S
C29 O25 1.251 . S
C29 O26 1.254 . S
H30 C3 0.949 . S
H31 C5 0.950 . S
H32 C12 0.949 . S
H33 C14 0.950 . S
C34 O50 1.251 . S
C34 O52 1.254 . S
N35 C36 1.333 . S
N35 C40 1.307 . S
N35 Zn41 2.020 . S
C36 N35 1.333 . S
C36 C37 1.379 . S
C36 H54 0.952 . S
C37 C36 1.379 . S
C37 C38 1.390 . S
C37 H64 0.949 . S
C38 C37 1.390 . S
C38 C39 1.357 . S
C39 C38 1.357 . S
C39 C40 1.370 . S
C39 H65 0.950 . S
C40 N35 1.307 . S
C40 C39 1.370 . S
C40 H58 0.948 . S
Zn41 N35 2.020 . S
Zn41 O50 2.039 . S
Zn41 O56 2.034 . S
Zn41 O60 2.025 . S
Zn41 O62 2.024 . S
C42 O61 1.246 . S
C42 O62 1.249 . S
N43 C44 1.307 . S
N43 C45 1.333 . S
N43 Zn49 2.020 . S
C44 N43 1.307 . S
C44 C48 1.370 . S
C44 H55 0.948 . S
C45 N43 1.333 . S
C45 C46 1.379 . S
C45 H53 0.952 . S
C46 C45 1.379 . S
C46 C47 1.390 . S
C46 H66 0.949 . S
C47 C46 1.390 . S
C47 C48 1.357 . S
C48 C44 1.370 . S
C48 C47 1.357 . S
C48 H67 0.950 . S
Zn49 N43 2.020 . S
Zn49 O52 2.025 . S
Zn49 O57 2.024 . S
Zn49 O59 2.039 . S
Zn49 O61 2.034 . S
O50 C34 1.251 . S
O50 Zn41 2.039 . S
C51 O56 1.246 . S
C51 O57 1.249 . S
O52 C34 1.254 . S
O52 Zn49 2.025 . S
H53 C45 0.952 . S
H54 C36 0.952 . S
H55 C44 0.948 . S
O56 Zn41 2.034 . S
O56 C51 1.246 . S
O57 Zn49 2.024 . S
O57 C51 1.249 . S
H58 C40 0.948 . S
O59 Zn49 2.039 . S
O59 C63 1.251 . S
O60 Zn41 2.025 . S
O60 C63 1.254 . S
O61 C42 1.246 . S
O61 Zn49 2.034 . S
O62 Zn41 2.024 . S
O62 C42 1.249 . S
C63 O59 1.251 . S
C63 O60 1.254 . S
H64 C37 0.949 . S
H65 C39 0.950 . S
H66 C46 0.949 . S
H67 C48 0.950 . S
C68 O84 1.251 . S
C68 O86 1.254 . S
N69 C70 1.333 . S
N69 C74 1.307 . S
N69 Zn75 2.020 . S
C70 N69 1.333 . S
C70 C71 1.379 . S
C70 H88 0.952 . S
C71 C70 1.379 . S
C71 C72 1.390 . S
C71 H98 0.949 . S
C72 C71 1.390 . S
C72 C73 1.357 . S
C73 C72 1.357 . S
C73 C74 1.370 . S
C73 H99 0.950 . S
C74 N69 1.307 . S
C74 C73 1.370 . S
C74 H92 0.948 . S
Zn75 N69 2.020 . S
Zn75 O84 2.039 1_545 S
Zn75 O90 2.034 . S
Zn75 O94 2.025 . S
Zn75 O96 2.024 1_545 S
C76 O95 1.246 . S
C76 O96 1.249 . S
N77 C78 1.307 . S
N77 C79 1.333 . S
N77 Zn83 2.020 . S
C78 N77 1.307 . S
C78 C82 1.370 . S
C78 H89 0.948 . S
C79 N77 1.333 . S
C79 C80 1.379 . S
C79 H87 0.952 . S
C80 C79 1.379 . S
C80 C81 1.390 . S
C80 H100 0.949 . S
C81 C80 1.390 . S
C81 C82 1.357 . S
C82 C78 1.370 . S
C82 C81 1.357 . S
C82 H101 0.950 . S
Zn83 N77 2.020 . S
Zn83 O86 2.025 . S
Zn83 O91 2.024 1_565 S
Zn83 O93 2.039 1_565 S
Zn83 O95 2.034 . S
O84 C68 1.251 . S
O84 Zn75 2.039 1_565 S
C85 O90 1.246 . S
C85 O91 1.249 . S
O86 C68 1.254 . S
O86 Zn83 2.025 . S
H87 C79 0.952 . S
H88 C70 0.952 . S
H89 C78 0.948 . S
O90 Zn75 2.034 . S
O90 C85 1.246 . S
O91 Zn83 2.024 1_545 S
O91 C85 1.249 . S
H92 C74 0.948 . S
O93 Zn83 2.039 1_545 S
O93 C97 1.251 . S
O94 Zn75 2.025 . S
O94 C97 1.254 . S
O95 C76 1.246 . S
O95 Zn83 2.034 . S
O96 Zn75 2.024 1_565 S
O96 C76 1.249 . S
C97 O93 1.251 . S
C97 O94 1.254 . S
H98 C71 0.949 . S
H99 C73 0.950 . S
H100 C80 0.949 . S
H101 C82 0.950 . S
C102 O118 1.251 . S
C102 O120 1.254 . S
N103 C104 1.333 . S
N103 C108 1.307 . S
N103 Zn109 2.020 . S
C104 N103 1.333 . S
C104 C105 1.379 . S
C104 H122 0.952 . S
C105 C104 1.379 . S
C105 C106 1.390 . S
C105 H132 0.949 . S
C106 C105 1.390 . S
C106 C107 1.357 . S
C107 C106 1.357 . S
C107 C108 1.370 . S
C107 H133 0.950 . S
C108 N103 1.307 . S
C108 C107 1.370 . S
C108 H126 0.948 . S
Zn109 N103 2.020 . S
Zn109 O118 2.039 . S
Zn109 O124 2.034 . S
Zn109 O128 2.025 . S
Zn109 O130 2.024 . S
C110 O129 1.246 . S
C110 O130 1.249 . S
N111 C112 1.307 . S
N111 C113 1.333 . S
N111 Zn117 2.020 . S
C112 N111 1.307 . S
C112 C116 1.370 . S
C112 H123 0.948 . S
C113 N111 1.333 . S
C113 C114 1.379 . S
C113 H121 0.952 . S
C114 C113 1.379 . S
C114 C115 1.390 . S
C114 H134 0.949 . S
C115 C114 1.390 . S
C115 C116 1.357 . S
C116 C112 1.370 . S
C116 C115 1.357 . S
C116 H135 0.950 . S
Zn117 N111 2.020 . S
Zn117 O120 2.025 . S
Zn117 O125 2.024 . S
Zn117 O127 2.039 . S
Zn117 O129 2.034 . S
O118 C102 1.251 . S
O118 Zn109 2.039 . S
C119 O124 1.246 . S
C119 O125 1.249 . S
O120 C102 1.254 . S
O120 Zn117 2.025 . S
H121 C113 0.952 . S
H122 C104 0.952 . S
H123 C112 0.948 . S
O124 Zn109 2.034 . S
O124 C119 1.246 . S
O125 Zn117 2.024 . S
O125 C119 1.249 . S
H126 C108 0.948 . S
O127 Zn117 2.039 . S
O127 C131 1.251 . S
O128 Zn109 2.025 . S
O128 C131 1.254 . S
O129 C110 1.246 . S
O129 Zn117 2.034 . S
O130 Zn109 2.024 . S
O130 C110 1.249 . S
C131 O127 1.251 . S
C131 O128 1.254 . S
H132 C105 0.949 . S
H133 C107 0.950 . S
H134 C114 0.949 . S
H135 C116 0.950 . S
C136 O152 1.251 . S
C136 O154 1.254 . S
N137 C138 1.333 . S
N137 C142 1.307 1_655 S
N137 Zn143 2.020 . S
C138 N137 1.333 . S
C138 C139 1.379 . S
C138 H156 0.952 . S
C139 C138 1.379 . S
C139 C140 1.390 . S
C139 H166 0.949 . S
C140 C139 1.390 . S
C140 C141 1.357 1_655 S
C141 C140 1.357 1_455 S
C141 C142 1.370 . S
C141 H167 0.950 . S
C142 N137 1.307 1_455 S
C142 C141 1.370 . S
C142 H160 0.948 . S
Zn143 N137 2.020 . S
Zn143 O152 2.039 1_565 S
Zn143 O158 2.034 . S
Zn143 O162 2.025 1_655 S
Zn143 O164 2.024 1_665 S
C144 O163 1.246 . S
C144 O164 1.249 . S
N145 C146 1.307 1_455 S
N145 C147 1.333 . S
N145 Zn151 2.020 . S
C146 N145 1.307 1_655 S
C146 C150 1.370 . S
C146 H157 0.948 . S
C147 N145 1.333 . S
C147 C148 1.379 . S
C147 H155 0.952 . S
C148 C147 1.379 . S
C148 C149 1.390 . S
C148 H168 0.949 . S
C149 C148 1.390 . S
C149 C150 1.357 1_455 S
C150 C146 1.370 . S
C150 C149 1.357 1_655 S
C150 H169 0.950 . S
Zn151 N145 2.020 . S
Zn151 O154 2.025 1_455 S
Zn151 O159 2.024 1_455 S
Zn151 O161 2.039 1_545 S
Zn151 O163 2.034 . S
O152 C136 1.251 . S
O152 Zn143 2.039 1_545 S
C153 O158 1.246 . S
C153 O159 1.249 1_565 S
O154 C136 1.254 . S
O154 Zn151 2.025 1_655 S
H155 C147 0.952 . S
H156 C138 0.952 . S
H157 C146 0.948 . S
O158 Zn143 2.034 . S
O158 C153 1.246 . S
O159 Zn151 2.024 1_655 S
O159 C153 1.249 1_545 S
H160 C142 0.948 . S
O161 Zn151 2.039 1_565 S
O161 C165 1.251 . S
O162 Zn143 2.025 1_455 S
O162 C165 1.254 . S
O163 C144 1.246 . S
O163 Zn151 2.034 . S
O164 Zn143 2.024 1_445 S
O164 C144 1.249 . S
C165 O161 1.251 . S
C165 O162 1.254 . S
H166 C139 0.949 . S
H167 C141 0.950 . S
H168 C148 0.949 . S
H169 C150 0.950 . S
C170 O186 1.251 . S
C170 O188 1.254 . S
N171 C172 1.333 . S
N171 C176 1.307 . S
N171 Zn177 2.020 . S
C172 N171 1.333 . S
C172 C173 1.379 . S
C172 H190 0.952 . S
C173 C172 1.379 . S
C173 C174 1.390 . S
C173 H200 0.949 . S
C174 C173 1.390 . S
C174 C175 1.357 . S
C175 C174 1.357 . S
C175 C176 1.370 . S
C175 H201 0.950 . S
C176 N171 1.307 . S
C176 C175 1.370 . S
C176 H194 0.948 . S
Zn177 N171 2.020 . S
Zn177 O186 2.039 . S
Zn177 O192 2.034 . S
Zn177 O196 2.025 . S
Zn177 O198 2.024 . S
C178 O197 1.246 . S
C178 O198 1.249 . S
N179 C180 1.307 . S
N179 C181 1.333 . S
N179 Zn185 2.020 . S
C180 N179 1.307 . S
C180 C184 1.370 . S
C180 H191 0.948 . S
C181 N179 1.333 . S
C181 C182 1.379 . S
C181 H189 0.952 . S
C182 C181 1.379 . S
C182 C183 1.390 . S
C182 H202 0.949 . S
C183 C182 1.390 . S
C183 C184 1.357 . S
C184 C180 1.370 . S
C184 C183 1.357 . S
C184 H203 0.950 . S
Zn185 N179 2.020 . S
Zn185 O188 2.025 . S
Zn185 O193 2.024 . S
Zn185 O195 2.039 . S
Zn185 O197 2.034 . S
O186 C170 1.251 . S
O186 Zn177 2.039 . S
C187 O192 1.246 . S
C187 O193 1.249 . S
O188 C170 1.254 . S
O188 Zn185 2.025 . S
H189 C181 0.952 . S
H190 C172 0.952 . S
H191 C180 0.948 . S
O192 Zn177 2.034 . S
O192 C187 1.246 . S
O193 Zn185 2.024 . S
O193 C187 1.249 . S
H194 C176 0.948 . S
O195 Zn185 2.039 . S
O195 C199 1.251 . S
O196 Zn177 2.025 . S
O196 C199 1.254 . S
O197 C178 1.246 . S
O197 Zn185 2.034 . S
O198 Zn177 2.024 . S
O198 C178 1.249 . S
C199 O195 1.251 . S
C199 O196 1.254 . S
H200 C173 0.949 . S
H201 C175 0.950 . S
H202 C182 0.949 . S
H203 C184 0.950 . S
C204 O220 1.251 . S
C204 O222 1.254 . S
N205 C206 1.333 . S
N205 C210 1.307 1_545 S
N205 Zn211 2.020 . S
C206 N205 1.333 . S
C206 C207 1.379 . S
C206 H224 0.952 . S
C207 C206 1.379 . S
C207 C208 1.390 . S
C207 H234 0.949 . S
C208 C207 1.390 . S
C208 C209 1.357 1_545 S
C209 C208 1.357 1_565 S
C209 C210 1.370 . S
C209 H235 0.950 . S
C210 N205 1.307 1_565 S
C210 C209 1.370 . S
C210 H228 0.948 . S
Zn211 N205 2.020 . S
Zn211 O220 2.039 . S
Zn211 O226 2.034 1_554 S
Zn211 O230 2.025 1_544 S
Zn211 O232 2.024 1_545 S
C212 O231 1.246 . S
C212 O232 1.249 . S
N213 C214 1.307 1_565 S
N213 C215 1.333 . S
N213 Zn219 2.020 1_565 S
C214 N213 1.307 1_545 S
C214 C218 1.370 . S
C214 H225 0.948 . S
C215 N213 1.333 . S
C215 C216 1.379 . S
C215 H223 0.952 . S
C216 C215 1.379 . S
C216 C217 1.390 . S
C216 H236 0.949 . S
C217 C216 1.390 . S
C217 C218 1.357 1_565 S
C218 C214 1.370 . S
C218 C217 1.357 1_545 S
C218 H237 0.950 . S
Zn219 N213 2.020 1_545 S
Zn219 O222 2.025 1_556 S
Zn219 O227 2.024 . S
Zn219 O229 2.040 1_545 S
Zn219 O231 2.035 1_546 S
O220 C204 1.251 . S
O220 Zn211 2.039 . S
C221 O226 1.246 . S
C221 O227 1.249 . S
O222 C204 1.254 . S
O222 Zn219 2.025 1_554 S
H223 C215 0.952 . S
H224 C206 0.952 . S
H225 C214 0.948 . S
O226 Zn211 2.034 1_556 S
O226 C221 1.246 . S
O227 Zn219 2.024 . S
O227 C221 1.249 . S
H228 C210 0.948 . S
O229 Zn219 2.040 1_565 S
O229 C233 1.251 . S
O230 Zn211 2.025 1_566 S
O230 C233 1.254 . S
O231 C212 1.246 . S
O231 Zn219 2.035 1_564 S
O232 Zn211 2.024 1_565 S
O232 C212 1.249 . S
C233 O229 1.251 . S
C233 O230 1.254 . S
H234 C207 0.949 . S
H235 C209 0.950 . S
H236 C216 0.949 . S
H237 C218 0.950 . S
C238 O254 1.251 . S
C238 O256 1.254 . S
N239 C240 1.333 . S
N239 C244 1.307 . S
N239 Zn245 2.020 . S
C240 N239 1.333 . S
C240 C241 1.379 . S
C240 H258 0.952 . S
C241 C240 1.379 . S
C241 C242 1.390 . S
C241 H268 0.949 . S
C242 C241 1.390 . S
C242 C243 1.357 . S
C243 C242 1.357 . S
C243 C244 1.370 . S
C243 H269 0.950 . S
C244 N239 1.307 . S
C244 C243 1.370 . S
C244 H262 0.948 . S
Zn245 N239 2.020 . S
Zn245 O254 2.039 . S
Zn245 O260 2.034 . S
Zn245 O264 2.025 . S
Zn245 O266 2.024 . S
C246 O265 1.246 . S
C246 O266 1.249 . S
N247 C248 1.307 . S
N247 C249 1.333 . S
N247 Zn253 2.020 . S
C248 N247 1.307 . S
C248 C252 1.370 . S
C248 H259 0.948 . S
C249 N247 1.333 . S
C249 C250 1.379 . S
C249 H257 0.952 . S
C250 C249 1.379 . S
C250 C251 1.390 . S
C250 H270 0.949 . S
C251 C250 1.390 . S
C251 C252 1.357 . S
C252 C248 1.370 . S
C252 C251 1.357 . S
C252 H271 0.950 . S
Zn253 N247 2.020 . S
Zn253 O256 2.025 . S
Zn253 O261 2.024 . S
Zn253 O263 2.039 . S
Zn253 O265 2.034 . S
O254 C238 1.251 . S
O254 Zn245 2.039 . S
C255 O260 1.246 . S
C255 O261 1.249 . S
O256 C238 1.254 . S
O256 Zn253 2.025 . S
H257 C249 0.952 . S
H258 C240 0.952 . S
H259 C248 0.948 . S
O260 Zn245 2.034 . S
O260 C255 1.246 . S
O261 Zn253 2.024 . S
O261 C255 1.249 . S
H262 C244 0.948 . S
O263 Zn253 2.039 . S
O263 C267 1.251 . S
O264 Zn245 2.025 . S
O264 C267 1.254 . S
O265 C246 1.246 . S
O265 Zn253 2.034 . S
O266 Zn245 2.024 . S
O266 C246 1.249 . S
C267 O263 1.251 . S
C267 O264 1.254 . S
H268 C241 0.949 . S
H269 C243 0.950 . S
H270 C250 0.949 . S
H271 C252 0.950 . S
C272 O288 1.251 . S
C272 O290 1.254 . S
N273 C274 1.333 . S
N273 C278 1.307 . S
N273 Zn279 2.020 . S
C274 N273 1.333 . S
C274 C275 1.379 . S
C274 H292 0.952 . S
C275 C274 1.379 . S
C275 C276 1.390 . S
C275 H302 0.949 . S
C276 C275 1.390 . S
C276 C277 1.357 . S
C277 C276 1.357 . S
C277 C278 1.370 . S
C277 H303 0.950 . S
C278 N273 1.307 . S
C278 C277 1.370 . S
C278 H296 0.948 . S
Zn279 N273 2.020 . S
Zn279 O288 2.039 . S
Zn279 O294 2.034 1_556 S
Zn279 O298 2.025 1_556 S
Zn279 O300 2.024 . S
C280 O299 1.246 . S
C280 O300 1.249 . S
N281 C282 1.307 . S
N281 C283 1.333 . S
N281 Zn287 2.020 . S
C282 N281 1.307 . S
C282 C286 1.370 . S
C282 H293 0.948 . S
C283 N281 1.333 . S
C283 C284 1.379 . S
C283 H291 0.952 . S
C284 C283 1.379 . S
C284 C285 1.390 . S
C284 H304 0.949 . S
C285 C284 1.390 . S
C285 C286 1.357 . S
C286 C282 1.370 . S
C286 C285 1.357 . S
C286 H305 0.950 . S
Zn287 N281 2.020 . S
Zn287 O290 2.025 1_554 S
Zn287 O295 2.024 . S
Zn287 O297 2.039 . S
Zn287 O299 2.034 1_554 S
O288 C272 1.251 . S
O288 Zn279 2.039 . S
C289 O294 1.246 . S
C289 O295 1.249 . S
O290 C272 1.254 . S
O290 Zn287 2.025 1_556 S
H291 C283 0.952 . S
H292 C274 0.952 . S
H293 C282 0.948 . S
O294 Zn279 2.034 1_554 S
O294 C289 1.246 . S
O295 Zn287 2.024 . S
O295 C289 1.249 . S
H296 C278 0.948 . S
O297 Zn287 2.039 . S
O297 C301 1.251 . S
O298 Zn279 2.025 1_554 S
O298 C301 1.254 . S
O299 C280 1.246 . S
O299 Zn287 2.034 1_556 S
O300 Zn279 2.024 . S
O300 C280 1.249 . S
C301 O297 1.251 . S
C301 O298 1.254 . S
H302 C275 0.949 . S
H303 C277 0.950 . S
H304 C284 0.949 . S
H305 C286 0.950 . S
C306 O322 1.251 . S
C306 O324 1.254 . S
N307 C308 1.333 . S
N307 C312 1.307 . S
N307 Zn313 2.020 . S
C308 N307 1.333 . S
C308 C309 1.379 . S
C308 H326 0.952 . S
C309 C308 1.379 . S
C309 C310 1.390 . S
C309 H336 0.949 . S
C310 C309 1.390 . S
C310 C311 1.357 . S
C311 C310 1.357 . S
C311 C312 1.370 . S
C311 H337 0.950 . S
C312 N307 1.307 . S
C312 C311 1.370 . S
C312 H330 0.948 . S
Zn313 N307 2.020 . S
Zn313 O322 2.039 . S
Zn313 O328 2.034 . S
Zn313 O332 2.025 . S
Zn313 O334 2.024 . S
C314 O333 1.246 . S
C314 O334 1.249 . S
N315 C316 1.307 . S
N315 C317 1.333 . S
N315 Zn321 2.020 . S
C316 N315 1.307 . S
C316 C320 1.370 . S
C316 H327 0.948 . S
C317 N315 1.333 . S
C317 C318 1.379 . S
C317 H325 0.952 . S
C318 C317 1.379 . S
C318 C319 1.390 . S
C318 H338 0.949 . S
C319 C318 1.390 . S
C319 C320 1.357 . S
C320 C316 1.370 . S
C320 C319 1.357 . S
C320 H339 0.950 . S
Zn321 N315 2.020 . S
Zn321 O324 2.025 . S
Zn321 O329 2.024 . S
Zn321 O331 2.039 . S
Zn321 O333 2.034 . S
O322 C306 1.251 . S
O322 Zn313 2.039 . S
C323 O328 1.246 . S
C323 O329 1.249 . S
O324 C306 1.254 . S
O324 Zn321 2.025 . S
H325 C317 0.952 . S
H326 C308 0.952 . S
H327 C316 0.948 . S
O328 Zn313 2.034 . S
O328 C323 1.246 . S
O329 Zn321 2.024 . S
O329 C323 1.249 . S
H330 C312 0.948 . S
O331 Zn321 2.039 . S
O331 C335 1.251 . S
O332 Zn313 2.025 . S
O332 C335 1.254 . S
O333 C314 1.246 . S
O333 Zn321 2.034 . S
O334 Zn313 2.024 . S
O334 C314 1.249 . S
C335 O331 1.251 . S
C335 O332 1.254 . S
H336 C309 0.949 . S
H337 C311 0.950 . S
H338 C318 0.949 . S
H339 C320 0.950 . S
C340 O356 1.251 . S
C340 O358 1.254 . S
N341 C342 1.333 . S
N341 C346 1.307 . S
N341 Zn347 2.020 . S
C342 N341 1.333 . S
C342 C343 1.379 . S
C342 H360 0.952 . S
C343 C342 1.379 . S
C343 C344 1.390 . S
C343 H370 0.949 . S
C344 C343 1.390 . S
C344 C345 1.357 . S
C345 C344 1.357 . S
C345 C346 1.370 . S
C345 H371 0.950 . S
C346 N341 1.307 . S
C346 C345 1.370 . S
C346 H364 0.948 . S
Zn347 N341 2.020 . S
Zn347 O356 2.039 1_455 S
Zn347 O362 2.034 . S
Zn347 O366 2.025 . S
Zn347 O368 2.024 . S
C348 O367 1.246 . S
C348 O368 1.249 1_655 S
N349 C350 1.307 . S
N349 C351 1.333 . S
N349 Zn355 2.020 . S
C350 N349 1.307 . S
C350 C354 1.370 . S
C350 H361 0.948 . S
C351 N349 1.333 . S
C351 C352 1.379 . S
C351 H359 0.952 . S
C352 C351 1.379 . S
C352 C353 1.390 . S
C352 H372 0.949 . S
C353 C352 1.390 . S
C353 C354 1.357 . S
C354 C350 1.370 . S
C354 C353 1.357 . S
C354 H373 0.950 . S
Zn355 N349 2.020 . S
Zn355 O358 2.025 . S
Zn355 O363 2.022 1_655 S
Zn355 O365 2.039 1_655 S
Zn355 O367 2.034 . S
O356 C340 1.251 . S
O356 Zn347 2.039 1_655 S
C357 O362 1.246 . S
C357 O363 1.253 . S
O358 C340 1.254 . S
O358 Zn355 2.025 . S
H359 C351 0.952 . S
H360 C342 0.952 . S
H361 C350 0.948 . S
O362 Zn347 2.034 . S
O362 C357 1.246 . S
O363 Zn355 2.022 1_455 S
O363 C357 1.253 . S
H364 C346 0.948 . S
O365 Zn355 2.039 1_455 S
O365 C369 1.251 . S
O366 Zn347 2.025 . S
O366 C369 1.254 . S
O367 C348 1.246 . S
O367 Zn355 2.034 . S
O368 Zn347 2.024 . S
O368 C348 1.249 1_455 S
C369 O365 1.251 . S
C369 O366 1.254 . S
H370 C343 0.949 . S
H371 C345 0.950 . S
H372 C352 0.949 . S
H373 C354 0.950 . S
C374 O390 1.251 . S
C374 O392 1.254 . S
N375 C376 1.333 . S
N375 C380 1.307 . S
N375 Zn381 2.020 . S
C376 N375 1.333 . S
C376 C377 1.379 . S
C376 H394 0.952 . S
C377 C376 1.379 . S
C377 C378 1.390 . S
C377 H404 0.949 . S
C378 C377 1.390 . S
C378 C379 1.357 . S
C379 C378 1.357 . S
C379 C380 1.370 . S
C379 H405 0.950 . S
C380 N375 1.307 . S
C380 C379 1.370 . S
C380 H398 0.948 . S
Zn381 N375 2.020 . S
Zn381 O390 2.039 . S
Zn381 O396 2.034 . S
Zn381 O400 2.025 . S
Zn381 O402 2.024 . S
C382 O401 1.246 . S
C382 O402 1.249 . S
N383 C384 1.307 . S
N383 C385 1.333 . S
N383 Zn389 2.020 . S
C384 N383 1.307 . S
C384 C388 1.370 . S
C384 H395 0.948 . S
C385 N383 1.333 . S
C385 C386 1.379 . S
C385 H393 0.952 . S
C386 C385 1.379 . S
C386 C387 1.390 . S
C386 H406 0.949 . S
C387 C386 1.390 . S
C387 C388 1.357 . S
C388 C384 1.370 . S
C388 C387 1.357 . S
C388 H407 0.950 . S
Zn389 N383 2.020 . S
Zn389 O392 2.025 . S
Zn389 O397 2.024 . S
Zn389 O399 2.039 . S
Zn389 O401 2.034 . S
O390 C374 1.251 . S
O390 Zn381 2.039 . S
C391 O396 1.246 . S
C391 O397 1.249 . S
O392 C374 1.254 . S
O392 Zn389 2.025 . S
H393 C385 0.952 . S
H394 C376 0.952 . S
H395 C384 0.948 . S
O396 Zn381 2.034 . S
O396 C391 1.246 . S
O397 Zn389 2.024 . S
O397 C391 1.249 . S
H398 C380 0.948 . S
O399 Zn389 2.039 . S
O399 C403 1.251 . S
O400 Zn381 2.025 . S
O400 C403 1.254 . S
O401 C382 1.246 . S
O401 Zn389 2.034 . S
O402 Zn381 2.024 . S
O402 C382 1.249 . S
C403 O399 1.251 . S
C403 O400 1.254 . S
H404 C377 0.949 . S
H405 C379 0.950 . S
H406 C386 0.949 . S
H407 C388 0.950 . S
C408 O424 1.251 . S
C408 O426 1.254 . S
N409 C410 1.333 . S
N409 C414 1.307 . S
N409 Zn415 2.020 . S
C410 N409 1.333 . S
C410 C411 1.379 . S
C410 H428 0.952 . S
C411 C410 1.379 . S
C411 C412 1.390 . S
C411 H438 0.949 . S
C412 C411 1.390 . S
C412 C413 1.357 . S
C413 C412 1.357 . S
C413 C414 1.370 . S
C413 H439 0.950 . S
C414 N409 1.307 . S
C414 C413 1.370 . S
C414 H432 0.948 . S
Zn415 N409 2.020 . S
Zn415 O424 2.039 . S
Zn415 O430 2.034 . S
Zn415 O434 2.025 . S
Zn415 O436 2.024 . S
C416 O435 1.246 . S
C416 O436 1.249 . S
N417 C418 1.307 . S
N417 C419 1.333 . S
N417 Zn423 2.020 . S
C418 N417 1.307 . S
C418 C422 1.370 . S
C418 H429 0.948 . S
C419 N417 1.333 . S
C419 C420 1.379 . S
C419 H427 0.952 . S
C420 C419 1.379 . S
C420 C421 1.390 . S
C420 H440 0.949 . S
C421 C420 1.390 . S
C421 C422 1.357 . S
C422 C418 1.370 . S
C422 C421 1.357 . S
C422 H441 0.950 . S
Zn423 N417 2.020 . S
Zn423 O426 2.025 . S
Zn423 O431 2.024 . S
Zn423 O433 2.039 . S
Zn423 O435 2.034 . S
O424 C408 1.251 . S
O424 Zn415 2.039 . S
C425 O430 1.246 . S
C425 O431 1.249 . S
O426 C408 1.254 . S
O426 Zn423 2.025 . S
H427 C419 0.952 . S
H428 C410 0.952 . S
H429 C418 0.948 . S
O430 Zn415 2.034 . S
O430 C425 1.246 . S
O431 Zn423 2.024 . S
O431 C425 1.249 . S
H432 C414 0.948 . S
O433 Zn423 2.039 . S
O433 C437 1.251 . S
O434 Zn415 2.025 . S
O434 C437 1.254 . S
O435 C416 1.246 . S
O435 Zn423 2.034 . S
O436 Zn415 2.024 . S
O436 C416 1.249 . S
C437 O433 1.251 . S
C437 O434 1.254 . S
H438 C411 0.949 . S
H439 C413 0.950 . S
H440 C420 0.949 . S
H441 C422 0.950 . S
C442 O458 1.251 . S
C442 O460 1.254 . S
N443 C444 1.333 . S
N443 C448 1.307 . S
N443 Zn449 2.020 . S
C444 N443 1.333 . S
C444 C445 1.379 . S
C444 H462 0.952 . S
C445 C444 1.379 . S
C445 C446 1.390 . S
C445 H472 0.949 . S
C446 C445 1.390 . S
C446 C447 1.357 . S
C447 C446 1.357 . S
C447 C448 1.370 . S
C447 H473 0.950 . S
C448 N443 1.307 . S
C448 C447 1.370 . S
C448 H466 0.948 . S
Zn449 N443 2.020 . S
Zn449 O458 2.039 . S
Zn449 O464 2.034 . S
Zn449 O468 2.025 . S
Zn449 O470 2.024 . S
C450 O469 1.246 . S
C450 O470 1.249 . S
N451 C452 1.307 . S
N451 C453 1.333 . S
N451 Zn457 2.020 . S
C452 N451 1.307 . S
C452 C456 1.370 . S
C452 H463 0.948 . S
C453 N451 1.333 . S
C453 C454 1.379 . S
C453 H461 0.952 . S
C454 C453 1.379 . S
C454 C455 1.390 . S
C454 H474 0.949 . S
C455 C454 1.390 . S
C455 C456 1.357 . S
C456 C452 1.370 . S
C456 C455 1.357 . S
C456 H475 0.950 . S
Zn457 N451 2.020 . S
Zn457 O460 2.025 . S
Zn457 O465 2.024 . S
Zn457 O467 2.039 . S
Zn457 O469 2.034 . S
O458 C442 1.251 . S
O458 Zn449 2.039 . S
C459 O464 1.246 . S
C459 O465 1.249 . S
O460 C442 1.254 . S
O460 Zn457 2.025 . S
H461 C453 0.952 . S
H462 C444 0.952 . S
H463 C452 0.948 . S
O464 Zn449 2.034 . S
O464 C459 1.246 . S
O465 Zn457 2.024 . S
O465 C459 1.249 . S
H466 C448 0.948 . S
O467 Zn457 2.039 . S
O467 C471 1.251 . S
O468 Zn449 2.025 . S
O468 C471 1.254 . S
O469 C450 1.246 . S
O469 Zn457 2.034 . S
O470 Zn449 2.024 . S
O470 C450 1.249 . S
C471 O467 1.251 . S
C471 O468 1.254 . S
H472 C445 0.949 . S
H473 C447 0.950 . S
H474 C454 0.949 . S
H475 C456 0.950 . S
C476 O492 1.251 . S
C476 O494 1.254 . S
N477 C478 1.333 . S
N477 C482 1.307 . S
N477 Zn483 2.020 . S
C478 N477 1.333 . S
C478 C479 1.379 . S
C478 H496 0.952 . S
C479 C478 1.379 . S
C479 C480 1.390 . S
C479 H506 0.949 . S
C480 C479 1.390 . S
C480 C481 1.357 . S
C481 C480 1.357 . S
C481 C482 1.370 . S
C481 H507 0.950 . S
C482 N477 1.307 . S
C482 C481 1.370 . S
C482 H500 0.948 . S
Zn483 N477 2.020 . S
Zn483 O492 2.039 . S
Zn483 O498 2.034 . S
Zn483 O502 2.025 . S
Zn483 O504 2.024 . S
C484 O503 1.246 . S
C484 O504 1.249 . S
N485 C486 1.307 . S
N485 C487 1.333 . S
N485 Zn491 2.020 . S
C486 N485 1.307 . S
C486 C490 1.370 . S
C486 H497 0.948 . S
C487 N485 1.333 . S
C487 C488 1.379 . S
C487 H495 0.952 . S
C488 C487 1.379 . S
C488 C489 1.390 . S
C488 H508 0.949 . S
C489 C488 1.390 . S
C489 C490 1.357 . S
C490 C486 1.370 . S
C490 C489 1.357 . S
C490 H509 0.950 . S
Zn491 N485 2.020 . S
Zn491 O494 2.025 . S
Zn491 O499 2.024 . S
Zn491 O501 2.039 . S
Zn491 O503 2.034 . S
O492 C476 1.251 . S
O492 Zn483 2.039 . S
C493 O498 1.246 . S
C493 O499 1.249 . S
O494 C476 1.254 . S
O494 Zn491 2.025 . S
H495 C487 0.952 . S
H496 C478 0.952 . S
H497 C486 0.948 . S
O498 Zn483 2.034 . S
O498 C493 1.246 . S
O499 Zn491 2.024 . S
O499 C493 1.249 . S
H500 C482 0.948 . S
O501 Zn491 2.039 . S
O501 C505 1.251 . S
O502 Zn483 2.025 . S
O502 C505 1.254 . S
O503 C484 1.246 . S
O503 Zn491 2.034 . S
O504 Zn483 2.024 . S
O504 C484 1.249 . S
C505 O501 1.251 . S
C505 O502 1.254 . S
H506 C479 0.949 . S
H507 C481 0.950 . S
H508 C488 0.949 . S
H509 C490 0.950 . S
C510 O526 1.251 . S
C510 O528 1.254 . S
N511 C512 1.333 . S
N511 C516 1.307 1_554 S
N511 Zn517 2.020 . S
C512 N511 1.333 . S
C512 C513 1.379 . S
C512 H530 0.952 . S
C513 C512 1.379 . S
C513 C514 1.390 . S
C513 H540 0.949 . S
C514 C513 1.390 . S
C514 C515 1.366 . S
C515 C514 1.366 . S
C515 C516 1.366 1_554 S
C515 H541 0.945 1_554 S
C516 N511 1.307 1_556 S
C516 C515 1.366 1_556 S
C516 H534 0.948 . S
Zn517 N511 2.020 . S
Zn517 O526 2.039 . S
Zn517 O532 2.034 1_455 S
Zn517 O536 2.025 1_454 S
Zn517 O538 2.024 1_554 S
C518 O537 1.246 . S
C518 O538 1.249 . S
N519 C520 1.307 1_556 S
N519 C521 1.333 . S
N519 Zn525 2.029 . S
C520 N519 1.307 1_554 S
C520 C524 1.370 . S
C520 H531 0.948 . S
C521 N519 1.333 . S
C521 C522 1.379 . S
C521 H529 0.952 . S
C522 C521 1.379 . S
C522 C523 1.390 . S
C522 H542 0.949 . S
C523 C522 1.390 . S
C523 C524 1.357 1_556 S
C524 C520 1.370 . S
C524 C523 1.357 1_554 S
C524 H543 0.950 . S
Zn525 N519 2.029 . S
Zn525 O528 2.010 1_656 S
Zn525 O533 2.009 1_556 S
Zn525 O535 2.052 . S
Zn525 O537 2.047 1_655 S
O526 C510 1.251 . S
O526 Zn517 2.039 . S
C527 O532 1.246 . S
C527 O533 1.249 . S
O528 C510 1.254 . S
O528 Zn525 2.010 1_454 S
H529 C521 0.952 . S
H530 C512 0.952 . S
H531 C520 0.948 . S
O532 Zn517 2.034 1_655 S
O532 C527 1.246 . S
O533 Zn525 2.009 1_554 S
O533 C527 1.249 . S
H534 C516 0.948 . S
O535 Zn525 2.052 . S
O535 C539 1.251 . S
O536 Zn517 2.025 1_656 S
O536 C539 1.254 . S
O537 C518 1.246 . S
O537 Zn525 2.047 1_455 S
O538 Zn517 2.024 1_556 S
O538 C518 1.249 . S
C539 O535 1.251 . S
C539 O536 1.254 . S
H540 C513 0.949 . S
H541 C515 0.945 1_556 S
H542 C522 0.949 . S
H543 C524 0.950 . S
H544 C552 0.950 . S
H545 C557 0.950 . S
H546 C554 0.950 . S
H547 C556 0.950 . S
H548 C558 0.950 . S
H549 C560 0.950 . S
H550 C562 0.950 . S
H551 C563 0.950 . S
C552 H544 0.950 . S
C552 C553 1.386 . S
C552 C554 1.391 . S
C553 C552 1.386 . S
C553 C557 1.393 . S
C554 H546 0.950 . S
C554 C552 1.391 . S
C554 C555 1.400 . S
C555 C554 1.400 . S
C555 C556 1.398 . S
C555 C561 1.491 . S
C556 H547 0.950 . S
C556 C555 1.398 . S
C556 C557 1.391 . S
C557 H545 0.950 . S
C557 C553 1.393 . S
C557 C556 1.391 . S
C558 H548 0.950 . S
C558 C559 1.386 . S
C558 C560 1.391 . S
C559 C558 1.386 . S
C559 C563 1.393 . S
C560 H549 0.950 . S
C560 C558 1.391 . S
C560 C561 1.400 . S
C561 C555 1.491 . S
C561 C560 1.400 . S
C561 C562 1.398 . S
C562 H550 0.950 . S
C562 C561 1.398 . S
C562 C563 1.391 . S
C563 H551 0.950 . S
C563 C559 1.393 . S
C563 C562 1.391 . S
H564 C572 0.950 . S
H565 C577 0.950 . S
H566 C574 0.950 . S
H567 C576 0.950 . S
H568 C578 0.950 . S
H569 C580 0.950 . S
H570 C582 0.950 . S
H571 C583 0.950 . S
C572 H564 0.950 . S
C572 C573 1.386 . S
C572 C574 1.391 . S
C573 C572 1.386 . S
C573 C577 1.393 . S
C574 H566 0.950 . S
C574 C572 1.391 . S
C574 C575 1.400 . S
C575 C574 1.400 . S
C575 C576 1.398 . S
C575 C581 1.491 . S
C576 H567 0.950 . S
C576 C575 1.398 . S
C576 C577 1.391 . S
C577 H565 0.950 . S
C577 C573 1.393 . S
C577 C576 1.391 . S
C578 H568 0.950 . S
C578 C579 1.386 . S
C578 C580 1.391 . S
C579 C578 1.386 . S
C579 C583 1.393 . S
C580 H569 0.950 . S
C580 C578 1.391 . S
C580 C581 1.400 . S
C581 C575 1.491 . S
C581 C580 1.400 . S
C581 C582 1.398 . S
C582 H570 0.950 . S
C582 C581 1.398 . S
C582 C583 1.391 . S
C583 H571 0.950 . S
C583 C579 1.393 . S
C583 C582 1.391 . S
H584 C592 0.950 . S
H585 C597 0.950 . S
H586 C594 0.950 . S
H587 C596 0.950 . S
H588 C598 0.950 . S
H589 C600 0.950 . S
H590 C602 0.950 . S
H591 C603 0.950 . S
C592 H584 0.950 . S
C592 C593 1.386 . S
C592 C594 1.391 . S
C593 C592 1.386 . S
C593 C597 1.393 . S
C594 H586 0.950 . S
C594 C592 1.391 . S
C594 C595 1.400 . S
C595 C594 1.400 . S
C595 C596 1.398 . S
C595 C601 1.491 . S
C596 H587 0.950 . S
C596 C595 1.398 . S
C596 C597 1.391 . S
C597 H585 0.950 . S
C597 C593 1.393 . S
C597 C596 1.391 . S
C598 H588 0.950 . S
C598 C599 1.386 . S
C598 C600 1.391 . S
C599 C598 1.386 . S
C599 C603 1.393 . S
C600 H589 0.950 . S
C600 C598 1.391 . S
C600 C601 1.400 . S
C601 C595 1.491 . S
C601 C600 1.400 . S
C601 C602 1.398 . S
C602 H590 0.950 . S
C602 C601 1.398 . S
C602 C603 1.391 . S
C603 H591 0.950 . S
C603 C599 1.393 . S
C603 C602 1.391 . S
H604 C612 0.950 . S
H605 C617 0.950 . S
H606 C614 0.950 . S
H607 C616 0.950 . S
H608 C618 0.950 . S
H609 C620 0.950 . S
H610 C622 0.950 . S
H611 C623 0.950 . S
C612 H604 0.950 . S
C612 C613 1.386 . S
C612 C614 1.391 . S
C613 C612 1.386 . S
C613 C617 1.393 . S
C614 H606 0.950 . S
C614 C612 1.391 . S
C614 C615 1.400 . S
C615 C614 1.400 . S
C615 C616 1.398 . S
C615 C621 1.491 . S
C616 H607 0.950 . S
C616 C615 1.398 . S
C616 C617 1.391 . S
C617 H605 0.950 . S
C617 C613 1.393 . S
C617 C616 1.391 . S
C618 H608 0.950 . S
C618 C619 1.386 . S
C618 C620 1.391 . S
C619 C618 1.386 . S
C619 C623 1.393 . S
C620 H609 0.950 . S
C620 C618 1.391 . S
C620 C621 1.400 . S
C621 C615 1.491 . S
C621 C620 1.400 . S
C621 C622 1.398 . S
C622 H610 0.950 . S
C622 C621 1.398 . S
C622 C623 1.391 . S
C623 H611 0.950 . S
C623 C619 1.393 . S
C623 C622 1.391 . S
H624 C632 0.950 . S
H625 C637 0.950 . S
H626 C634 0.950 . S
H627 C636 0.950 . S
H628 C638 0.950 . S
H629 C640 0.950 . S
H630 C642 0.950 . S
H631 C643 0.950 . S
C632 H624 0.950 . S
C632 C633 1.386 . S
C632 C634 1.391 . S
C633 C632 1.386 . S
C633 C637 1.393 . S
C634 H626 0.950 . S
C634 C632 1.391 . S
C634 C635 1.400 . S
C635 C634 1.400 . S
C635 C636 1.398 . S
C635 C641 1.491 . S
C636 H627 0.950 . S
C636 C635 1.398 . S
C636 C637 1.391 . S
C637 H625 0.950 . S
C637 C633 1.393 . S
C637 C636 1.391 . S
C638 H628 0.950 . S
C638 C639 1.386 . S
C638 C640 1.391 . S
C639 C638 1.386 . S
C639 C643 1.393 . S
C640 H629 0.950 . S
C640 C638 1.391 . S
C640 C641 1.400 . S
C641 C635 1.491 . S
C641 C640 1.400 . S
C641 C642 1.398 . S
C642 H630 0.950 . S
C642 C641 1.398 . S
C642 C643 1.391 . S
C643 H631 0.950 . S
C643 C639 1.393 . S
C643 C642 1.391 . S
H644 C652 0.950 . S
H645 C657 0.950 . S
H646 C654 0.950 . S
H647 C656 0.950 . S
H648 C658 0.950 . S
H649 C660 0.950 . S
H650 C662 0.950 . S
H651 C663 0.950 1_545 S
C652 H644 0.950 . S
C652 C653 1.386 . S
C652 C654 1.391 . S
C653 C652 1.386 . S
C653 C657 1.393 . S
C654 H646 0.950 . S
C654 C652 1.391 . S
C654 C655 1.400 . S
C655 C654 1.400 . S
C655 C656 1.398 . S
C655 C661 1.491 . S
C656 H647 0.950 . S
C656 C655 1.398 . S
C656 C657 1.391 . S
C657 H645 0.950 . S
C657 C653 1.393 . S
C657 C656 1.391 . S
C658 H648 0.950 . S
C658 C659 1.386 . S
C658 C660 1.391 . S
C659 C658 1.386 . S
C659 C663 1.393 . S
C660 H649 0.950 . S
C660 C658 1.391 . S
C660 C661 1.400 . S
C661 C655 1.491 . S
C661 C660 1.400 . S
C661 C662 1.398 . S
C662 H650 0.950 . S
C662 C661 1.398 . S
C662 C663 1.391 . S
C663 H651 0.950 1_565 S
C663 C659 1.393 . S
C663 C662 1.391 . S
H664 C672 0.950 . S
H665 C677 0.950 . S
H666 C674 0.950 . S
H667 C676 0.950 . S
H668 C678 0.950 . S
H669 C680 0.950 . S
H670 C682 0.950 . S
H671 C683 0.950 . S
C672 H664 0.950 . S
C672 C673 1.386 . S
C672 C674 1.391 . S
C673 C672 1.386 . S
C673 C677 1.393 . S
C674 H666 0.950 . S
C674 C672 1.391 . S
C674 C675 1.400 . S
C675 C674 1.400 . S
C675 C676 1.398 . S
C675 C681 1.491 . S
C676 H667 0.950 . S
C676 C675 1.398 . S
C676 C677 1.391 . S
C677 H665 0.950 . S
C677 C673 1.393 . S
C677 C676 1.391 . S
C678 H668 0.950 . S
C678 C679 1.386 . S
C678 C680 1.391 . S
C679 C678 1.386 . S
C679 C683 1.393 . S
C680 H669 0.950 . S
C680 C678 1.391 . S
C680 C681 1.400 . S
C681 C675 1.491 . S
C681 C680 1.400 . S
C681 C682 1.398 . S
C682 H670 0.950 . S
C682 C681 1.398 . S
C682 C683 1.391 . S
C683 H671 0.950 . S
C683 C679 1.393 . S
C683 C682 1.391 . S
H684 C692 0.950 1_565 S
H685 C697 0.950 . S
H686 C694 0.950 . S
H687 C696 0.950 . S
H688 C698 0.950 . S
H689 C700 0.950 . S
H690 C702 0.950 . S
H691 C703 0.950 . S
C692 H684 0.950 1_545 S
C692 C693 1.386 . S
C692 C694 1.391 . S
C693 C692 1.386 . S
C693 C697 1.393 . S
C694 H686 0.950 . S
C694 C692 1.391 . S
C694 C695 1.400 . S
C695 C694 1.400 . S
C695 C696 1.398 . S
C695 C701 1.491 . S
C696 H687 0.950 . S
C696 C695 1.398 . S
C696 C697 1.391 . S
C697 H685 0.950 . S
C697 C693 1.393 . S
C697 C696 1.391 . S
C698 H688 0.950 . S
C698 C699 1.386 . S
C698 C700 1.391 . S
C699 C698 1.386 . S
C699 C703 1.393 . S
C700 H689 0.950 . S
C700 C698 1.391 . S
C700 C701 1.400 . S
C701 C695 1.491 . S
C701 C700 1.400 . S
C701 C702 1.398 . S
C702 H690 0.950 . S
C702 C701 1.398 . S
C702 C703 1.391 . S
C703 H691 0.950 . S
C703 C699 1.393 . S
C703 C702 1.391 . S
H704 C712 0.950 . S
H705 C717 0.950 . S
H706 C714 0.950 . S
H707 C716 0.950 . S
H708 C718 0.950 . S
H709 C720 0.950 . S
H710 C722 0.950 . S
H711 C723 0.950 . S
C712 H704 0.950 . S
C712 C713 1.386 . S
C712 C714 1.391 . S
C713 C712 1.386 . S
C713 C717 1.393 . S
C714 H706 0.950 . S
C714 C712 1.391 . S
C714 C715 1.400 . S
C715 C714 1.400 . S
C715 C716 1.398 . S
C715 C721 1.491 . S
C716 H707 0.950 . S
C716 C715 1.398 . S
C716 C717 1.391 . S
C717 H705 0.950 . S
C717 C713 1.393 . S
C717 C716 1.391 . S
C718 H708 0.950 . S
C718 C719 1.386 . S
C718 C720 1.391 . S
C719 C718 1.386 . S
C719 C723 1.393 . S
C720 H709 0.950 . S
C720 C718 1.391 . S
C720 C721 1.400 . S
C721 C715 1.491 . S
C721 C720 1.400 . S
C721 C722 1.398 . S
C722 H710 0.950 . S
C722 C721 1.398 . S
C722 C723 1.391 . S
C723 H711 0.950 . S
C723 C719 1.393 . S
C723 C722 1.391 . S
H724 C732 0.950 . S
H725 C737 0.950 . S
H726 C734 0.950 . S
H727 C736 0.950 . S
H728 C738 0.950 . S
H729 C740 0.950 . S
H730 C742 0.950 . S
H731 C743 0.950 . S
C732 H724 0.950 . S
C732 C733 1.386 . S
C732 C734 1.391 . S
C733 C732 1.386 . S
C733 C737 1.393 . S
C734 H726 0.950 . S
C734 C732 1.391 . S
C734 C735 1.400 . S
C735 C734 1.400 . S
C735 C736 1.398 . S
C735 C741 1.491 . S
C736 H727 0.950 . S
C736 C735 1.398 . S
C736 C737 1.391 . S
C737 H725 0.950 . S
C737 C733 1.393 . S
C737 C736 1.391 . S
C738 H728 0.950 . S
C738 C739 1.386 . S
C738 C740 1.391 . S
C739 C738 1.386 . S
C739 C743 1.393 . S
C740 H729 0.950 . S
C740 C738 1.391 . S
C740 C741 1.400 . S
C741 C735 1.491 . S
C741 C740 1.400 . S
C741 C742 1.398 . S
C742 H730 0.950 . S
C742 C741 1.398 . S
C742 C743 1.391 . S
C743 H731 0.950 . S
C743 C739 1.393 . S
C743 C742 1.391 . S
H744 C752 0.950 . S
H745 C757 0.950 . S
H746 C754 0.950 . S
H747 C756 0.950 . S
H748 C758 0.950 . S
H749 C760 0.950 . S
H750 C762 0.950 . S
H751 C763 0.950 . S
C752 H744 0.950 . S
C752 C753 1.386 . S
C752 C754 1.391 . S
C753 C752 1.386 . S
C753 C757 1.393 . S
C754 H746 0.950 . S
C754 C752 1.391 . S
C754 C755 1.400 . S
C755 C754 1.400 . S
C755 C756 1.398 . S
C755 C761 1.491 . S
C756 H747 0.950 . S
C756 C755 1.398 . S
C756 C757 1.391 . S
C757 H745 0.950 . S
C757 C753 1.393 . S
C757 C756 1.391 . S
C758 H748 0.950 . S
C758 C759 1.386 . S
C758 C760 1.391 . S
C759 C758 1.386 . S
C759 C763 1.393 . S
C760 H749 0.950 . S
C760 C758 1.391 . S
C760 C761 1.400 . S
C761 C755 1.491 . S
C761 C760 1.400 . S
C761 C762 1.398 . S
C762 H750 0.950 . S
C762 C761 1.398 . S
C762 C763 1.391 . S
C763 H751 0.950 . S
C763 C759 1.393 . S
C763 C762 1.391 . S
H764 C772 0.950 . S
H765 C777 0.950 . S
H766 C774 0.950 . S
H767 C776 0.950 . S
H768 C778 0.950 . S
H769 C780 0.950 . S
H770 C782 0.950 . S
H771 C783 0.950 . S
C772 H764 0.950 . S
C772 C773 1.386 . S
C772 C774 1.391 . S
C773 C772 1.386 . S
C773 C777 1.393 . S
C774 H766 0.950 . S
C774 C772 1.391 . S
C774 C775 1.400 . S
C775 C774 1.400 . S
C775 C776 1.398 . S
C775 C781 1.491 . S
C776 H767 0.950 . S
C776 C775 1.398 . S
C776 C777 1.391 . S
C777 H765 0.950 . S
C777 C773 1.393 . S
C777 C776 1.391 . S
C778 H768 0.950 . S
C778 C779 1.386 . S
C778 C780 1.391 . S
C779 C778 1.386 . S
C779 C783 1.393 . S
C780 H769 0.950 . S
C780 C778 1.391 . S
C780 C781 1.400 . S
C781 C775 1.491 . S
C781 C780 1.400 . S
C781 C782 1.398 . S
C782 H770 0.950 . S
C782 C781 1.398 . S
C782 C783 1.391 . S
C783 H771 0.950 . S
C783 C779 1.393 . S
C783 C782 1.391 . S
H784 C792 0.950 . S
H785 C797 0.950 . S
H786 C794 0.950 . S
H787 C796 0.950 . S
H788 C798 0.950 1_455 S
H789 C800 0.950 . S
H790 C802 0.950 . S
H791 C803 0.950 . S
C792 H784 0.950 . S
C792 C793 1.386 . S
C792 C794 1.391 . S
C793 C792 1.386 . S
C793 C797 1.393 . S
C794 H786 0.950 . S
C794 C792 1.391 . S
C794 C795 1.400 . S
C795 C794 1.400 . S
C795 C796 1.398 . S
C795 C801 1.491 . S
C796 H787 0.950 . S
C796 C795 1.398 . S
C796 C797 1.391 . S
C797 H785 0.950 . S
C797 C793 1.393 . S
C797 C796 1.391 . S
C798 H788 0.950 1_655 S
C798 C799 1.386 . S
C798 C800 1.391 . S
C799 C798 1.386 . S
C799 C803 1.393 . S
C800 H789 0.950 . S
C800 C798 1.391 . S
C800 C801 1.400 . S
C801 C795 1.491 . S
C801 C800 1.400 . S
C801 C802 1.398 . S
C802 H790 0.950 . S
C802 C801 1.398 . S
C802 C803 1.391 . S
C803 H791 0.950 . S
C803 C799 1.393 . S
C803 C802 1.391 . S
H804 C812 0.950 . S
H805 C817 0.950 . S
H806 C814 0.950 . S
H807 C816 0.950 . S
H808 C818 0.950 . S
H809 C820 0.950 . S
H810 C822 0.950 . S
H811 C823 0.950 . S
C812 H804 0.950 . S
C812 C813 1.386 . S
C812 C814 1.391 . S
C813 C812 1.386 . S
C813 C817 1.393 . S
C814 H806 0.950 . S
C814 C812 1.391 . S
C814 C815 1.400 . S
C815 C814 1.400 . S
C815 C816 1.398 . S
C815 C821 1.491 . S
C816 H807 0.950 . S
C816 C815 1.398 . S
C816 C817 1.391 . S
C817 H805 0.950 . S
C817 C813 1.393 . S
C817 C816 1.391 . S
C818 H808 0.950 . S
C818 C819 1.386 . S
C818 C820 1.391 . S
C819 C818 1.386 . S
C819 C823 1.393 . S
C820 H809 0.950 . S
C820 C818 1.391 . S
C820 C821 1.400 . S
C821 C815 1.491 . S
C821 C820 1.400 . S
C821 C822 1.398 . S
C822 H810 0.950 . S
C822 C821 1.398 . S
C822 C823 1.391 . S
C823 H811 0.950 . S
C823 C819 1.393 . S
C823 C822 1.391 . S
H824 C832 0.950 . S
H825 C837 0.950 . S
H826 C834 0.950 . S
H827 C836 0.950 . S
H828 C838 0.950 . S
H829 C840 0.950 . S
H830 C842 0.950 . S
H831 C843 0.950 . S
C832 H824 0.950 . S
C832 C833 1.386 . S
C832 C834 1.391 . S
C833 C832 1.386 . S
C833 C837 1.393 . S
C834 H826 0.950 . S
C834 C832 1.391 . S
C834 C835 1.400 . S
C835 C834 1.400 . S
C835 C836 1.398 . S
C835 C841 1.491 . S
C836 H827 0.950 . S
C836 C835 1.398 . S
C836 C837 1.391 . S
C837 H825 0.950 . S
C837 C833 1.393 . S
C837 C836 1.391 . S
C838 H828 0.950 . S
C838 C839 1.386 . S
C838 C840 1.391 . S
C839 C838 1.386 . S
C839 C843 1.393 . S
C840 H829 0.950 . S
C840 C838 1.391 . S
C840 C841 1.400 . S
C841 C835 1.491 . S
C841 C840 1.400 . S
C841 C842 1.398 . S
C842 H830 0.950 . S
C842 C841 1.398 . S
C842 C843 1.391 . S
C843 H831 0.950 . S
C843 C839 1.393 . S
C843 C842 1.391 . S
H844 C852 0.950 . S
H845 C857 0.950 . S
H846 C854 0.950 . S
H847 C856 0.950 . S
H848 C858 0.950 . S
H849 C860 0.950 . S
H850 C862 0.950 . S
H851 C863 0.950 . S
C852 H844 0.950 . S
C852 C853 1.386 . S
C852 C854 1.391 . S
C853 C852 1.386 . S
C853 C857 1.393 . S
C854 H846 0.950 . S
C854 C852 1.391 . S
C854 C855 1.400 . S
C855 C854 1.400 . S
C855 C856 1.398 . S
C855 C861 1.491 . S
C856 H847 0.950 . S
C856 C855 1.398 . S
C856 C857 1.391 . S
C857 H845 0.950 . S
C857 C853 1.393 . S
C857 C856 1.391 . S
C858 H848 0.950 . S
C858 C859 1.386 . S
C858 C860 1.391 . S
C859 C858 1.386 . S
C859 C863 1.393 . S
C860 H849 0.950 . S
C860 C858 1.391 . S
C860 C861 1.400 . S
C861 C855 1.491 . S
C861 C860 1.400 . S
C861 C862 1.398 . S
C862 H850 0.950 . S
C862 C861 1.398 . S
C862 C863 1.391 . S
C863 H851 0.950 . S
C863 C859 1.393 . S
C863 C862 1.391 . S
H864 C872 0.950 . S
H865 C877 0.950 . S
H866 C874 0.950 . S
H867 C876 0.950 . S
H868 C878 0.950 . S
H869 C880 0.950 . S
H870 C882 0.950 . S
H871 C883 0.950 . S
C872 H864 0.950 . S
C872 C873 1.386 . S
C872 C874 1.391 . S
C873 C872 1.386 . S
C873 C877 1.393 . S
C874 H866 0.950 . S
C874 C872 1.391 . S
C874 C875 1.400 . S
C875 C874 1.400 . S
C875 C876 1.398 . S
C875 C881 1.491 . S
C876 H867 0.950 . S
C876 C875 1.398 . S
C876 C877 1.391 . S
C877 H865 0.950 . S
C877 C873 1.393 . S
C877 C876 1.391 . S
C878 H868 0.950 . S
C878 C879 1.386 . S
C878 C880 1.391 . S
C879 C878 1.386 . S
C879 C883 1.393 . S
C880 H869 0.950 . S
C880 C878 1.391 . S
C880 C881 1.400 . S
C881 C875 1.491 . S
C881 C880 1.400 . S
C881 C882 1.398 . S
C882 H870 0.950 . S
C882 C881 1.398 . S
C882 C883 1.391 . S
C883 H871 0.950 . S
C883 C879 1.393 . S
C883 C882 1.391 . S
H884 C892 0.950 . S
H885 C897 0.950 . S
H886 C894 0.950 . S
H887 C896 0.950 . S
H888 C898 0.950 . S
H889 C900 0.950 . S
H890 C902 0.950 . S
H891 C903 0.950 . S
C892 H884 0.950 . S
C892 C893 1.386 . S
C892 C894 1.391 . S
C893 C892 1.386 . S
C893 C897 1.393 . S
C894 H886 0.950 . S
C894 C892 1.391 . S
C894 C895 1.400 . S
C895 C894 1.400 . S
C895 C896 1.398 . S
C895 C901 1.491 . S
C896 H887 0.950 . S
C896 C895 1.398 . S
C896 C897 1.391 . S
C897 H885 0.950 . S
C897 C893 1.393 . S
C897 C896 1.391 . S
C898 H888 0.950 . S
C898 C899 1.386 . S
C898 C900 1.391 . S
C899 C898 1.386 . S
C899 C903 1.393 . S
C900 H889 0.950 . S
C900 C898 1.391 . S
C900 C901 1.400 . S
C901 C895 1.491 . S
C901 C900 1.400 . S
C901 C902 1.398 . S
C902 H890 0.950 . S
C902 C901 1.398 . S
C902 C903 1.391 . S
C903 H891 0.950 . S
C903 C899 1.393 . S
C903 C902 1.391 . S
H904 C912 0.950 . S
H905 C917 0.950 . S
H906 C914 0.950 . S
H907 C916 0.950 . S
H908 C918 0.950 . S
H909 C920 0.950 . S
H910 C922 0.950 . S
H911 C923 0.950 . S
C912 H904 0.950 . S
C912 C913 1.386 . S
C912 C914 1.391 . S
C913 C912 1.386 . S
C913 C917 1.393 . S
C914 H906 0.950 . S
C914 C912 1.391 . S
C914 C915 1.400 . S
C915 C914 1.400 . S
C915 C916 1.398 . S
C915 C921 1.491 . S
C916 H907 0.950 . S
C916 C915 1.398 . S
C916 C917 1.391 . S
C917 H905 0.950 . S
C917 C913 1.393 . S
C917 C916 1.391 . S
C918 H908 0.950 . S
C918 C919 1.386 . S
C918 C920 1.391 . S
C919 C918 1.386 . S
C919 C923 1.393 . S
C920 H909 0.950 . S
C920 C918 1.391 . S
C920 C921 1.400 . S
C921 C915 1.491 . S
C921 C920 1.400 . S
C921 C922 1.398 . S
C922 H910 0.950 . S
C922 C921 1.398 . S
C922 C923 1.391 . S
C923 H911 0.950 . S
C923 C919 1.393 . S
C923 C922 1.391 . S
H924 C932 0.950 . S
H925 C937 0.950 . S
H926 C934 0.950 . S
H927 C936 0.950 . S
H928 C938 0.950 . S
H929 C940 0.950 . S
H930 C942 0.950 . S
H931 C943 0.950 . S
C932 H924 0.950 . S
C932 C933 1.386 . S
C932 C934 1.391 . S
C933 C932 1.386 . S
C933 C937 1.393 . S
C934 H926 0.950 . S
C934 C932 1.391 . S
C934 C935 1.400 . S
C935 C934 1.400 . S
C935 C936 1.398 . S
C935 C941 1.491 . S
C936 H927 0.950 . S
C936 C935 1.398 . S
C936 C937 1.391 . S
C937 H925 0.950 . S
C937 C933 1.393 . S
C937 C936 1.391 . S
C938 H928 0.950 . S
C938 C939 1.386 . S
C938 C940 1.391 . S
C939 C938 1.386 . S
C939 C943 1.393 . S
C940 H929 0.950 . S
C940 C938 1.391 . S
C940 C941 1.400 . S
C941 C935 1.491 . S
C941 C940 1.400 . S
C941 C942 1.398 . S
C942 H930 0.950 . S
C942 C941 1.398 . S
C942 C943 1.391 . S
C943 H931 0.950 . S
C943 C939 1.393 . S
C943 C942 1.391 . S
H944 C952 0.950 . S
H945 C957 0.950 . S
H946 C954 0.950 . S
H947 C956 0.950 . S
H948 C958 0.950 . S
H949 C960 0.950 . S
H950 C962 0.950 . S
H951 C963 0.950 . S
C952 H944 0.950 . S
C952 C953 1.386 . S
C952 C954 1.391 . S
C953 C952 1.386 . S
C953 C957 1.393 . S
C954 H946 0.950 . S
C954 C952 1.391 . S
C954 C955 1.400 . S
C955 C954 1.400 . S
C955 C956 1.398 . S
C955 C961 1.491 . S
C956 H947 0.950 . S
C956 C955 1.398 . S
C956 C957 1.391 . S
C957 H945 0.950 . S
C957 C953 1.393 . S
C957 C956 1.391 . S
C958 H948 0.950 . S
C958 C959 1.386 . S
C958 C960 1.391 . S
C959 C958 1.386 . S
C959 C963 1.393 . S
C960 H949 0.950 . S
C960 C958 1.391 . S
C960 C961 1.400 . S
C961 C955 1.491 . S
C961 C960 1.400 . S
C961 C962 1.398 . S
C962 H950 0.950 . S
C962 C961 1.398 . S
C962 C963 1.391 . S
C963 H951 0.950 . S
C963 C959 1.393 . S
C963 C962 1.391 . S
H964 C972 0.950 . S
H965 C977 0.950 . S
H966 C974 0.950 . S
H967 C976 0.950 . S
H968 C978 0.950 . S
H969 C980 0.950 . S
H970 C982 0.950 . S
H971 C983 0.950 . S
C972 H964 0.950 . S
C972 C973 1.386 . S
C972 C974 1.391 . S
C973 C972 1.386 . S
C973 C977 1.393 . S
C974 H966 0.950 . S
C974 C972 1.391 . S
C974 C975 1.400 . S
C975 C974 1.400 . S
C975 C976 1.398 . S
C975 C981 1.491 . S
C976 H967 0.950 . S
C976 C975 1.398 . S
C976 C977 1.391 . S
C977 H965 0.950 . S
C977 C973 1.393 . S
C977 C976 1.391 . S
C978 H968 0.950 . S
C978 C979 1.386 . S
C978 C980 1.391 . S
C979 C978 1.386 . S
C979 C983 1.393 . S
C980 H969 0.950 . S
C980 C978 1.391 . S
C980 C981 1.400 . S
C981 C975 1.491 . S
C981 C980 1.400 . S
C981 C982 1.398 . S
C982 H970 0.950 . S
C982 C981 1.398 . S
C982 C983 1.391 . S
C983 H971 0.950 . S
C983 C979 1.393 . S
C983 C982 1.391 . S
H984 C992 0.950 . S
H985 C997 0.950 . S
H986 C994 0.950 . S
H987 C996 0.950 . S
H988 C998 0.950 . S
H989 C1000 0.950 . S
H990 C1002 0.950 . S
H991 C1003 0.950 . S
C992 H984 0.950 . S
C992 C993 1.386 . S
C992 C994 1.391 . S
C993 C992 1.386 . S
C993 C997 1.393 . S
C994 H986 0.950 . S
C994 C992 1.391 . S
C994 C995 1.400 . S
C995 C994 1.400 . S
C995 C996 1.398 . S
C995 C1001 1.491 . S
C996 H987 0.950 . S
C996 C995 1.398 . S
C996 C997 1.391 . S
C997 H985 0.950 . S
C997 C993 1.393 . S
C997 C996 1.391 . S
C998 H988 0.950 . S
C998 C999 1.386 . S
C998 C1000 1.391 . S
C999 C998 1.386 . S
C999 C1003 1.393 . S
C1000 H989 0.950 . S
C1000 C998 1.391 . S
C1000 C1001 1.400 . S
C1001 C995 1.491 . S
C1001 C1000 1.400 . S
C1001 C1002 1.398 . S
C1002 H990 0.950 . S
C1002 C1001 1.398 . S
C1002 C1003 1.391 . S
C1003 H991 0.950 . S
C1003 C999 1.393 . S
C1003 C1002 1.391 . S
H1004 C1012 0.950 . S
H1005 C1017 0.950 . S
H1006 C1014 0.950 . S
H1007 C1016 0.950 . S
H1008 C1018 0.950 . S
H1009 C1020 0.950 . S
H1010 C1022 0.950 . S
H1011 C1023 0.950 . S
C1012 H1004 0.950 . S
C1012 C1013 1.386 . S
C1012 C1014 1.391 . S
C1013 C1012 1.386 . S
C1013 C1017 1.393 . S
C1014 H1006 0.950 . S
C1014 C1012 1.391 . S
C1014 C1015 1.400 . S
C1015 C1014 1.400 . S
C1015 C1016 1.398 . S
C1015 C1021 1.491 . S
C1016 H1007 0.950 . S
C1016 C1015 1.398 . S
C1016 C1017 1.391 . S
C1017 H1005 0.950 . S
C1017 C1013 1.393 . S
C1017 C1016 1.391 . S
C1018 H1008 0.950 . S
C1018 C1019 1.386 . S
C1018 C1020 1.391 . S
C1019 C1018 1.386 . S
C1019 C1023 1.393 . S
C1020 H1009 0.950 . S
C1020 C1018 1.391 . S
C1020 C1021 1.400 . S
C1021 C1015 1.491 . S
C1021 C1020 1.400 . S
C1021 C1022 1.398 . S
C1022 H1010 0.950 . S
C1022 C1021 1.398 . S
C1022 C1023 1.391 . S
C1023 H1011 0.950 . S
C1023 C1019 1.393 . S
C1023 C1022 1.391 . S
H1024 C1032 0.950 . S
H1025 C1037 0.950 . S
H1026 C1034 0.950 . S
H1027 C1036 0.950 . S
H1028 C1038 0.950 . S
H1029 C1040 0.950 . S
H1030 C1042 0.950 . S
H1031 C1043 0.950 . S
C1032 H1024 0.950 . S
C1032 C1033 1.386 . S
C1032 C1034 1.391 . S
C1033 C1032 1.386 . S
C1033 C1037 1.393 . S
C1034 H1026 0.950 . S
C1034 C1032 1.391 . S
C1034 C1035 1.400 . S
C1035 C1034 1.400 . S
C1035 C1036 1.398 . S
C1035 C1041 1.491 . S
C1036 H1027 0.950 . S
C1036 C1035 1.398 . S
C1036 C1037 1.391 . S
C1037 H1025 0.950 . S
C1037 C1033 1.393 . S
C1037 C1036 1.391 . S
C1038 H1028 0.950 . S
C1038 C1039 1.386 . S
C1038 C1040 1.391 . S
C1039 C1038 1.386 . S
C1039 C1043 1.393 . S
C1040 H1029 0.950 . S
C1040 C1038 1.391 . S
C1040 C1041 1.400 . S
C1041 C1035 1.491 . S
C1041 C1040 1.400 . S
C1041 C1042 1.398 . S
C1042 H1030 0.950 . S
C1042 C1041 1.398 . S
C1042 C1043 1.391 . S
C1043 H1031 0.950 . S
C1043 C1039 1.393 . S
C1043 C1042 1.391 . S
H1044 C1052 0.950 . S
H1045 C1057 0.950 . S
H1046 C1054 0.950 . S
H1047 C1056 0.950 . S
H1048 C1058 0.950 . S
H1049 C1060 0.950 . S
H1050 C1062 0.950 . S
H1051 C1063 0.950 . S
C1052 H1044 0.950 . S
C1052 C1053 1.386 . S
C1052 C1054 1.391 . S
C1053 C1052 1.386 . S
C1053 C1057 1.393 . S
C1054 H1046 0.950 . S
C1054 C1052 1.391 . S
C1054 C1055 1.400 . S
C1055 C1054 1.400 . S
C1055 C1056 1.398 . S
C1055 C1061 1.491 . S
C1056 H1047 0.950 . S
C1056 C1055 1.398 . S
C1056 C1057 1.391 . S
C1057 H1045 0.950 . S
C1057 C1053 1.393 . S
C1057 C1056 1.391 . S
C1058 H1048 0.950 . S
C1058 C1059 1.386 . S
C1058 C1060 1.391 . S
C1059 C1058 1.386 . S
C1059 C1063 1.393 . S
C1060 H1049 0.950 . S
C1060 C1058 1.391 . S
C1060 C1061 1.400 . S
C1061 C1055 1.491 . S
C1061 C1060 1.400 . S
C1061 C1062 1.398 . S
C1062 H1050 0.950 . S
C1062 C1061 1.398 . S
C1062 C1063 1.391 . S
C1063 H1051 0.950 . S
C1063 C1059 1.393 . S
C1063 C1062 1.391 . S
H1064 C1072 0.950 . S
H1065 C1077 0.950 . S
H1066 C1074 0.950 . S
H1067 C1076 0.950 . S
H1068 C1078 0.950 1_565 S
H1069 C1080 0.950 . S
H1070 C1082 0.950 . S
H1071 C1083 0.950 . S
C1072 H1064 0.950 . S
C1072 C1073 1.386 . S
C1072 C1074 1.391 . S
C1073 C1072 1.386 . S
C1073 C1077 1.393 . S
C1074 H1066 0.950 . S
C1074 C1072 1.391 . S
C1074 C1075 1.400 . S
C1075 C1074 1.400 . S
C1075 C1076 1.398 . S
C1075 C1081 1.491 . S
C1076 H1067 0.950 . S
C1076 C1075 1.398 . S
C1076 C1077 1.391 . S
C1077 H1065 0.950 . S
C1077 C1073 1.393 . S
C1077 C1076 1.391 . S
C1078 H1068 0.950 1_545 S
C1078 C1079 1.386 . S
C1078 C1080 1.391 . S
C1079 C1078 1.386 . S
C1079 C1083 1.393 . S
C1080 H1069 0.950 . S
C1080 C1078 1.391 . S
C1080 C1081 1.400 . S
C1081 C1075 1.491 . S
C1081 C1080 1.400 . S
C1081 C1082 1.398 . S
C1082 H1070 0.950 . S
C1082 C1081 1.398 . S
C1082 C1083 1.391 . S
C1083 H1071 0.950 . S
C1083 C1079 1.393 . S
C1083 C1082 1.391 . S
H1084 C1092 0.950 . S
H1085 C1097 0.950 . S
H1086 C1094 0.950 . S
H1087 C1096 0.950 . S
H1088 C1098 0.950 . S
H1089 C1100 0.950 . S
H1090 C1102 0.950 . S
H1091 C1103 0.950 . S
C1092 H1084 0.950 . S
C1092 C1093 1.386 . S
C1092 C1094 1.391 . S
C1093 C1092 1.386 . S
C1093 C1097 1.393 . S
C1094 H1086 0.950 . S
C1094 C1092 1.391 . S
C1094 C1095 1.400 . S
C1095 C1094 1.400 . S
C1095 C1096 1.398 . S
C1095 C1101 1.491 . S
C1096 H1087 0.950 . S
C1096 C1095 1.398 . S
C1096 C1097 1.391 . S
C1097 H1085 0.950 . S
C1097 C1093 1.393 . S
C1097 C1096 1.391 . S
C1098 H1088 0.950 . S
C1098 C1099 1.386 . S
C1098 C1100 1.391 . S
C1099 C1098 1.386 . S
C1099 C1103 1.393 . S
C1100 H1089 0.950 . S
C1100 C1098 1.391 . S
C1100 C1101 1.400 . S
C1101 C1095 1.491 . S
C1101 C1100 1.400 . S
C1101 C1102 1.398 . S
C1102 H1090 0.950 . S
C1102 C1101 1.398 . S
C1102 C1103 1.391 . S
C1103 H1091 0.950 . S
C1103 C1099 1.393 . S
C1103 C1102 1.391 . S
H1104 C1112 0.950 1_545 S
H1105 C1117 0.950 . S
H1106 C1114 0.950 . S
H1107 C1116 0.950 . S
H1108 C1118 0.950 . S
H1109 C1120 0.950 . S
H1110 C1122 0.950 . S
H1111 C1123 0.950 . S
C1112 H1104 0.950 1_565 S
C1112 C1113 1.386 . S
C1112 C1114 1.391 . S
C1113 C1112 1.386 . S
C1113 C1117 1.393 . S
C1114 H1106 0.950 . S
C1114 C1112 1.391 . S
C1114 C1115 1.400 . S
C1115 C1114 1.400 . S
C1115 C1116 1.398 . S
C1115 C1121 1.491 . S
C1116 H1107 0.950 . S
C1116 C1115 1.398 . S
C1116 C1117 1.391 . S
C1117 H1105 0.950 . S
C1117 C1113 1.393 . S
C1117 C1116 1.391 . S
C1118 H1108 0.950 . S
C1118 C1119 1.386 . S
C1118 C1120 1.391 . S
C1119 C1118 1.386 . S
C1119 C1123 1.393 . S
C1120 H1109 0.950 . S
C1120 C1118 1.391 . S
C1120 C1121 1.400 . S
C1121 C1115 1.491 . S
C1121 C1120 1.400 . S
C1121 C1122 1.398 . S
C1122 H1110 0.950 . S
C1122 C1121 1.398 . S
C1122 C1123 1.391 . S
C1123 H1111 0.950 . S
C1123 C1119 1.393 . S
C1123 C1122 1.391 . S
H1124 C1132 0.950 . S
H1125 C1137 0.950 . S
H1126 C1134 0.950 . S
H1127 C1136 0.950 . S
H1128 C1138 0.950 . S
H1129 C1140 0.950 . S
H1130 C1142 0.950 . S
H1131 C1143 0.950 . S
C1132 H1124 0.950 . S
C1132 C1133 1.386 . S
C1132 C1134 1.391 . S
C1133 C1132 1.386 . S
C1133 C1137 1.393 . S
C1134 H1126 0.950 . S
C1134 C1132 1.391 . S
C1134 C1135 1.400 . S
C1135 C1134 1.400 . S
C1135 C1136 1.398 . S
C1135 C1141 1.491 . S
C1136 H1127 0.950 . S
C1136 C1135 1.398 . S
C1136 C1137 1.391 . S
C1137 H1125 0.950 . S
C1137 C1133 1.393 . S
C1137 C1136 1.391 . S
C1138 H1128 0.950 . S
C1138 C1139 1.386 . S
C1138 C1140 1.391 . S
C1139 C1138 1.386 . S
C1139 C1143 1.393 . S
C1140 H1129 0.950 . S
C1140 C1138 1.391 . S
C1140 C1141 1.400 . S
C1141 C1135 1.491 . S
C1141 C1140 1.400 . S
C1141 C1142 1.398 . S
C1142 H1130 0.950 . S
C1142 C1141 1.398 . S
C1142 C1143 1.391 . S
C1143 H1131 0.950 . S
C1143 C1139 1.393 . S
C1143 C1142 1.391 . S
H1144 C1152 0.950 . S
H1145 C1157 0.950 . S
H1146 C1154 0.950 . S
H1147 C1156 0.950 . S
H1148 C1158 0.950 . S
H1149 C1160 0.950 . S
H1150 C1162 0.950 . S
H1151 C1163 0.950 . S
C1152 H1144 0.950 . S
C1152 C1153 1.386 . S
C1152 C1154 1.391 . S
C1153 C1152 1.386 . S
C1153 C1157 1.393 . S
C1154 H1146 0.950 . S
C1154 C1152 1.391 . S
C1154 C1155 1.400 . S
C1155 C1154 1.400 . S
C1155 C1156 1.398 . S
C1155 C1161 1.491 . S
C1156 H1147 0.950 . S
C1156 C1155 1.398 . S
C1156 C1157 1.391 . S
C1157 H1145 0.950 . S
C1157 C1153 1.393 . S
C1157 C1156 1.391 . S
C1158 H1148 0.950 . S
C1158 C1159 1.386 . S
C1158 C1160 1.391 . S
C1159 C1158 1.386 . S
C1159 C1163 1.393 . S
C1160 H1149 0.950 . S
C1160 C1158 1.391 . S
C1160 C1161 1.400 . S
C1161 C1155 1.491 . S
C1161 C1160 1.400 . S
C1161 C1162 1.398 . S
C1162 H1150 0.950 . S
C1162 C1161 1.398 . S
C1162 C1163 1.391 . S
C1163 H1151 0.950 . S
C1163 C1159 1.393 . S
C1163 C1162 1.391 . S
H1164 C1172 0.950 . S
H1165 C1177 0.950 . S
H1166 C1174 0.950 . S
H1167 C1176 0.950 . S
H1168 C1178 0.950 . S
H1169 C1180 0.950 . S
H1170 C1182 0.950 . S
H1171 C1183 0.950 . S
C1172 H1164 0.950 . S
C1172 C1173 1.386 . S
C1172 C1174 1.391 . S
C1173 C1172 1.386 . S
C1173 C1177 1.393 . S
C1174 H1166 0.950 . S
C1174 C1172 1.391 . S
C1174 C1175 1.400 . S
C1175 C1174 1.400 . S
C1175 C1176 1.398 . S
C1175 C1181 1.491 . S
C1176 H1167 0.950 . S
C1176 C1175 1.398 . S
C1176 C1177 1.391 . S
C1177 H1165 0.950 . S
C1177 C1173 1.393 . S
C1177 C1176 1.391 . S
C1178 H1168 0.950 . S
C1178 C1179 1.386 . S
C1178 C1180 1.391 . S
C1179 C1178 1.386 . S
C1179 C1183 1.393 . S
C1180 H1169 0.950 . S
C1180 C1178 1.391 . S
C1180 C1181 1.400 . S
C1181 C1175 1.491 . S
C1181 C1180 1.400 . S
C1181 C1182 1.398 . S
C1182 H1170 0.950 . S
C1182 C1181 1.398 . S
C1182 C1183 1.391 . S
C1183 H1171 0.950 . S
C1183 C1179 1.393 . S
C1183 C1182 1.391 . S
H1184 C1192 0.950 . S
H1185 C1197 0.950 . S
H1186 C1194 0.950 . S
H1187 C1196 0.950 . S
H1188 C1198 0.950 . S
H1189 C1200 0.950 . S
H1190 C1202 0.950 . S
H1191 C1203 0.950 . S
C1192 H1184 0.950 . S
C1192 C1193 1.386 . S
C1192 C1194 1.391 . S
C1193 C1192 1.386 . S
C1193 C1197 1.393 . S
C1194 H1186 0.950 . S
C1194 C1192 1.391 . S
C1194 C1195 1.400 . S
C1195 C1194 1.400 . S
C1195 C1196 1.398 . S
C1195 C1201 1.491 . S
C1196 H1187 0.950 . S
C1196 C1195 1.398 . S
C1196 C1197 1.391 . S
C1197 H1185 0.950 . S
C1197 C1193 1.393 . S
C1197 C1196 1.391 . S
C1198 H1188 0.950 . S
C1198 C1199 1.386 . S
C1198 C1200 1.391 . S
C1199 C1198 1.386 . S
C1199 C1203 1.393 . S
C1200 H1189 0.950 . S
C1200 C1198 1.391 . S
C1200 C1201 1.400 . S
C1201 C1195 1.491 . S
C1201 C1200 1.400 . S
C1201 C1202 1.398 . S
C1202 H1190 0.950 . S
C1202 C1201 1.398 . S
C1202 C1203 1.391 . S
C1203 H1191 0.950 . S
C1203 C1199 1.393 . S
C1203 C1202 1.391 . S
H1204 C1212 0.950 . S
H1205 C1217 0.950 . S
H1206 C1214 0.950 . S
H1207 C1216 0.950 . S
H1208 C1218 0.950 . S
H1209 C1220 0.950 . S
H1210 C1222 0.950 . S
H1211 C1223 0.950 . S
C1212 H1204 0.950 . S
C1212 C1213 1.386 . S
C1212 C1214 1.391 . S
C1213 C1212 1.386 . S
C1213 C1217 1.393 . S
C1214 H1206 0.950 . S
C1214 C1212 1.391 . S
C1214 C1215 1.400 . S
C1215 C1214 1.400 . S
C1215 C1216 1.398 . S
C1215 C1221 1.491 . S
C1216 H1207 0.950 . S
C1216 C1215 1.398 . S
C1216 C1217 1.391 . S
C1217 H1205 0.950 . S
C1217 C1213 1.393 . S
C1217 C1216 1.391 . S
C1218 H1208 0.950 . S
C1218 C1219 1.386 . S
C1218 C1220 1.391 . S
C1219 C1218 1.386 . S
C1219 C1223 1.393 . S
C1220 H1209 0.950 . S
C1220 C1218 1.391 . S
C1220 C1221 1.400 . S
C1221 C1215 1.491 . S
C1221 C1220 1.400 . S
C1221 C1222 1.398 . S
C1222 H1210 0.950 . S
C1222 C1221 1.398 . S
C1222 C1223 1.391 . S
C1223 H1211 0.950 . S
C1223 C1219 1.393 . S
C1223 C1222 1.391 . S
H1224 C1232 0.950 . S
H1225 C1237 0.950 . S
H1226 C1234 0.950 . S
H1227 C1236 0.950 . S
H1228 C1238 0.950 . S
H1229 C1240 0.950 . S
H1230 C1242 0.950 . S
H1231 C1243 0.950 . S
C1232 H1224 0.950 . S
C1232 C1233 1.386 . S
C1232 C1234 1.391 . S
C1233 C1232 1.386 . S
C1233 C1237 1.393 . S
C1234 H1226 0.950 . S
C1234 C1232 1.391 . S
C1234 C1235 1.400 . S
C1235 C1234 1.400 . S
C1235 C1236 1.398 . S
C1235 C1241 1.491 . S
C1236 H1227 0.950 . S
C1236 C1235 1.398 . S
C1236 C1237 1.391 . S
C1237 H1225 0.950 . S
C1237 C1233 1.393 . S
C1237 C1236 1.391 . S
C1238 H1228 0.950 . S
C1238 C1239 1.386 . S
C1238 C1240 1.391 . S
C1239 C1238 1.386 . S
C1239 C1243 1.393 . S
C1240 H1229 0.950 . S
C1240 C1238 1.391 . S
C1240 C1241 1.400 . S
C1241 C1235 1.491 . S
C1241 C1240 1.400 . S
C1241 C1242 1.398 . S
C1242 H1230 0.950 . S
C1242 C1241 1.398 . S
C1242 C1243 1.391 . S
C1243 H1231 0.950 . S
C1243 C1239 1.393 . S
C1243 C1242 1.391 . S
H1244 C1252 0.950 . S
H1245 C1257 0.950 . S
H1246 C1254 0.950 . S
H1247 C1256 0.950 . S
H1248 C1258 0.950 . S
H1249 C1260 0.950 . S
H1250 C1262 0.950 . S
H1251 C1263 0.950 . S
C1252 H1244 0.950 . S
C1252 C1253 1.386 . S
C1252 C1254 1.391 . S
C1253 C1252 1.386 . S
C1253 C1257 1.393 . S
C1254 H1246 0.950 . S
C1254 C1252 1.391 . S
C1254 C1255 1.400 . S
C1255 C1254 1.400 . S
C1255 C1256 1.398 . S
C1255 C1261 1.491 . S
C1256 H1247 0.950 . S
C1256 C1255 1.398 . S
C1256 C1257 1.391 . S
C1257 H1245 0.950 . S
C1257 C1253 1.393 . S
C1257 C1256 1.391 . S
C1258 H1248 0.950 . S
C1258 C1259 1.386 . S
C1258 C1260 1.391 . S
C1259 C1258 1.386 . S
C1259 C1263 1.393 . S
C1260 H1249 0.950 . S
C1260 C1258 1.391 . S
C1260 C1261 1.400 . S
C1261 C1255 1.491 . S
C1261 C1260 1.400 . S
C1261 C1262 1.398 . S
C1262 H1250 0.950 . S
C1262 C1261 1.398 . S
C1262 C1263 1.391 . S
C1263 H1251 0.950 . S
C1263 C1259 1.393 . S
C1263 C1262 1.391 . S
H1264 C1272 0.950 . S
H1265 C1277 0.950 . S
H1266 C1274 0.950 . S
H1267 C1276 0.950 . S
H1268 C1278 0.950 . S
H1269 C1280 0.950 . S
H1270 C1282 0.950 . S
H1271 C1283 0.950 . S
C1272 H1264 0.950 . S
C1272 C1273 1.386 . S
C1272 C1274 1.391 . S
C1273 C1272 1.386 . S
C1273 C1277 1.393 . S
C1274 H1266 0.950 . S
C1274 C1272 1.391 . S
C1274 C1275 1.400 . S
C1275 C1274 1.400 . S
C1275 C1276 1.398 . S
C1275 C1281 1.491 . S
C1276 H1267 0.950 . S
C1276 C1275 1.398 . S
C1276 C1277 1.391 . S
C1277 H1265 0.950 . S
C1277 C1273 1.393 . S
C1277 C1276 1.391 . S
C1278 H1268 0.950 . S
C1278 C1279 1.386 . S
C1278 C1280 1.391 . S
C1279 C1278 1.386 . S
C1279 C1283 1.393 . S
C1280 H1269 0.950 . S
C1280 C1278 1.391 . S
C1280 C1281 1.400 . S
C1281 C1275 1.491 . S
C1281 C1280 1.400 . S
C1281 C1282 1.398 . S
C1282 H1270 0.950 . S
C1282 C1281 1.398 . S
C1282 C1283 1.391 . S
C1283 H1271 0.950 . S
C1283 C1279 1.393 . S
C1283 C1282 1.391 . S
H1284 C1292 0.950 . S
H1285 C1297 0.950 . S
H1286 C1294 0.950 . S
H1287 C1296 0.950 . S
H1288 C1298 0.950 . S
H1289 C1300 0.950 . S
H1290 C1302 0.950 . S
H1291 C1303 0.950 . S
C1292 H1284 0.950 . S
C1292 C1293 1.386 . S
C1292 C1294 1.391 . S
C1293 C1292 1.386 . S
C1293 C1297 1.393 . S
C1294 H1286 0.950 . S
C1294 C1292 1.391 . S
C1294 C1295 1.400 . S
C1295 C1294 1.400 . S
C1295 C1296 1.398 . S
C1295 C1301 1.491 . S
C1296 H1287 0.950 . S
C1296 C1295 1.398 . S
C1296 C1297 1.391 . S
C1297 H1285 0.950 . S
C1297 C1293 1.393 . S
C1297 C1296 1.391 . S
C1298 H1288 0.950 . S
C1298 C1299 1.386 . S
C1298 C1300 1.391 . S
C1299 C1298 1.386 . S
C1299 C1303 1.393 . S
C1300 H1289 0.950 . S
C1300 C1298 1.391 . S
C1300 C1301 1.400 . S
C1301 C1295 1.491 . S
C1301 C1300 1.400 . S
C1301 C1302 1.398 . S
C1302 H1290 0.950 . S
C1302 C1301 1.398 . S
C1302 C1303 1.391 . S
C1303 H1291 0.950 . S
C1303 C1299 1.393 . S
C1303 C1302 1.391 . S
H1304 C1312 0.950 . S
H1305 C1317 0.950 . S
H1306 C1314 0.950 . S
H1307 C1316 0.950 . S
H1308 C1318 0.950 . S
H1309 C1320 0.950 . S
H1310 C1322 0.950 . S
H1311 C1323 0.950 . S
C1312 H1304 0.950 . S
C1312 C1313 1.386 . S
C1312 C1314 1.391 . S
C1313 C1312 1.386 . S
C1313 C1317 1.393 . S
C1314 H1306 0.950 . S
C1314 C1312 1.391 . S
C1314 C1315 1.400 . S
C1315 C1314 1.400 . S
C1315 C1316 1.398 . S
C1315 C1321 1.491 . S
C1316 H1307 0.950 . S
C1316 C1315 1.398 . S
C1316 C1317 1.391 . S
C1317 H1305 0.950 . S
C1317 C1313 1.393 . S
C1317 C1316 1.391 . S
C1318 H1308 0.950 . S
C1318 C1319 1.386 . S
C1318 C1320 1.391 . S
C1319 C1318 1.386 . S
C1319 C1323 1.393 . S
C1320 H1309 0.950 . S
C1320 C1318 1.391 . S
C1320 C1321 1.400 . S
C1321 C1315 1.491 . S
C1321 C1320 1.400 . S
C1321 C1322 1.398 . S
C1322 H1310 0.950 . S
C1322 C1321 1.398 . S
C1322 C1323 1.391 . S
C1323 H1311 0.950 . S
C1323 C1319 1.393 . S
C1323 C1322 1.391 . S
H1324 C1332 0.950 . S
H1325 C1337 0.950 . S
H1326 C1334 0.950 . S
H1327 C1336 0.950 . S
H1328 C1338 0.950 . S
H1329 C1340 0.950 . S
H1330 C1342 0.950 . S
H1331 C1343 0.950 . S
C1332 H1324 0.950 . S
C1332 C1333 1.386 . S
C1332 C1334 1.391 . S
C1333 C1332 1.386 . S
C1333 C1337 1.393 . S
C1334 H1326 0.950 . S
C1334 C1332 1.391 . S
C1334 C1335 1.400 . S
C1335 C1334 1.400 . S
C1335 C1336 1.398 . S
C1335 C1341 1.491 . S
C1336 H1327 0.950 . S
C1336 C1335 1.398 . S
C1336 C1337 1.391 . S
C1337 H1325 0.950 . S
C1337 C1333 1.393 . S
C1337 C1336 1.391 . S
C1338 H1328 0.950 . S
C1338 C1339 1.386 . S
C1338 C1340 1.391 . S
C1339 C1338 1.386 . S
C1339 C1343 1.393 . S
C1340 H1329 0.950 . S
C1340 C1338 1.391 . S
C1340 C1341 1.400 . S
C1341 C1335 1.491 . S
C1341 C1340 1.400 . S
C1341 C1342 1.398 . S
C1342 H1330 0.950 . S
C1342 C1341 1.398 . S
C1342 C1343 1.391 . S
C1343 H1331 0.950 . S
C1343 C1339 1.393 . S
C1343 C1342 1.391 . S
H1344 C1352 0.950 . S
H1345 C1357 0.950 . S
H1346 C1354 0.950 . S
H1347 C1356 0.950 . S
H1348 C1358 0.950 . S
H1349 C1360 0.950 . S
H1350 C1362 0.950 . S
H1351 C1363 0.950 . S
C1352 H1344 0.950 . S
C1352 C1353 1.386 . S
C1352 C1354 1.391 . S
C1353 C1352 1.386 . S
C1353 C1357 1.393 . S
C1354 H1346 0.950 . S
C1354 C1352 1.391 . S
C1354 C1355 1.400 . S
C1355 C1354 1.400 . S
C1355 C1356 1.398 . S
C1355 C1361 1.491 . S
C1356 H1347 0.950 . S
C1356 C1355 1.398 . S
C1356 C1357 1.391 . S
C1357 H1345 0.950 . S
C1357 C1353 1.393 . S
C1357 C1356 1.391 . S
C1358 H1348 0.950 . S
C1358 C1359 1.386 . S
C1358 C1360 1.391 . S
C1359 C1358 1.386 . S
C1359 C1363 1.393 . S
C1360 H1349 0.950 . S
C1360 C1358 1.391 . S
C1360 C1361 1.400 . S
C1361 C1355 1.491 . S
C1361 C1360 1.400 . S
C1361 C1362 1.398 . S
C1362 H1350 0.950 . S
C1362 C1361 1.398 . S
C1362 C1363 1.391 . S
C1363 H1351 0.950 . S
C1363 C1359 1.393 . S
C1363 C1362 1.391 . S
H1364 C1372 0.950 . S
H1365 C1377 0.950 . S
H1366 C1374 0.950 . S
H1367 C1376 0.950 . S
H1368 C1378 0.950 . S
H1369 C1380 0.950 . S
H1370 C1382 0.950 . S
H1371 C1383 0.950 . S
C1372 H1364 0.950 . S
C1372 C1373 1.386 . S
C1372 C1374 1.391 . S
C1373 C1372 1.386 . S
C1373 C1377 1.393 . S
C1374 H1366 0.950 . S
C1374 C1372 1.391 . S
C1374 C1375 1.400 . S
C1375 C1374 1.400 . S
C1375 C1376 1.398 . S
C1375 C1381 1.491 . S
C1376 H1367 0.950 . S
C1376 C1375 1.398 . S
C1376 C1377 1.391 . S
C1377 H1365 0.950 . S
C1377 C1373 1.393 . S
C1377 C1376 1.391 . S
C1378 H1368 0.950 . S
C1378 C1379 1.386 . S
C1378 C1380 1.391 . S
C1379 C1378 1.386 . S
C1379 C1383 1.393 . S
C1380 H1369 0.950 . S
C1380 C1378 1.391 . S
C1380 C1381 1.400 . S
C1381 C1375 1.491 . S
C1381 C1380 1.400 . S
C1381 C1382 1.398 . S
C1382 H1370 0.950 . S
C1382 C1381 1.398 . S
C1382 C1383 1.391 . S
C1383 H1371 0.950 . S
C1383 C1379 1.393 . S
C1383 C1382 1.391 . S
H1384 C1392 0.950 . S
H1385 C1397 0.950 . S
H1386 C1394 0.950 . S
H1387 C1396 0.950 . S
H1388 C1398 0.950 . S
H1389 C1400 0.950 . S
H1390 C1402 0.950 . S
H1391 C1403 0.950 . S
C1392 H1384 0.950 . S
C1392 C1393 1.386 . S
C1392 C1394 1.391 . S
C1393 C1392 1.386 . S
C1393 C1397 1.393 . S
C1394 H1386 0.950 . S
C1394 C1392 1.391 . S
C1394 C1395 1.400 . S
C1395 C1394 1.400 . S
C1395 C1396 1.398 . S
C1395 C1401 1.491 . S
C1396 H1387 0.950 . S
C1396 C1395 1.398 . S
C1396 C1397 1.391 . S
C1397 H1385 0.950 . S
C1397 C1393 1.393 . S
C1397 C1396 1.391 . S
C1398 H1388 0.950 . S
C1398 C1399 1.386 . S
C1398 C1400 1.391 . S
C1399 C1398 1.386 . S
C1399 C1403 1.393 . S
C1400 H1389 0.950 . S
C1400 C1398 1.391 . S
C1400 C1401 1.400 . S
C1401 C1395 1.491 . S
C1401 C1400 1.400 . S
C1401 C1402 1.398 . S
C1402 H1390 0.950 . S
C1402 C1401 1.398 . S
C1402 C1403 1.391 . S
C1403 H1391 0.950 . S
C1403 C1399 1.393 . S
C1403 C1402 1.391 . S
H1404 C1412 0.950 . S
H1405 C1417 0.950 . S
H1406 C1414 0.950 . S
H1407 C1416 0.950 . S
H1408 C1418 0.950 . S
H1409 C1420 0.950 . S
H1410 C1422 0.950 . S
H1411 C1423 0.950 . S
C1412 H1404 0.950 . S
C1412 C1413 1.386 . S
C1412 C1414 1.391 . S
C1413 C1412 1.386 . S
C1413 C1417 1.393 . S
C1414 H1406 0.950 . S
C1414 C1412 1.391 . S
C1414 C1415 1.400 . S
C1415 C1414 1.400 . S
C1415 C1416 1.398 . S
C1415 C1421 1.491 . S
C1416 H1407 0.950 . S
C1416 C1415 1.398 . S
C1416 C1417 1.391 . S
C1417 H1405 0.950 . S
C1417 C1413 1.393 . S
C1417 C1416 1.391 . S
C1418 H1408 0.950 . S
C1418 C1419 1.386 . S
C1418 C1420 1.391 . S
C1419 C1418 1.386 . S
C1419 C1423 1.393 . S
C1420 H1409 0.950 . S
C1420 C1418 1.391 . S
C1420 C1421 1.400 . S
C1421 C1415 1.491 . S
C1421 C1420 1.400 . S
C1421 C1422 1.398 . S
C1422 H1410 0.950 . S
C1422 C1421 1.398 . S
C1422 C1423 1.391 . S
C1423 H1411 0.950 . S
C1423 C1419 1.393 . S
C1423 C1422 1.391 . S
H1424 C1432 0.950 . S
H1425 C1437 0.950 . S
H1426 C1434 0.950 . S
H1427 C1436 0.950 . S
H1428 C1438 0.950 . S
H1429 C1440 0.950 . S
H1430 C1442 0.950 . S
H1431 C1443 0.950 . S
C1432 H1424 0.950 . S
C1432 C1433 1.386 . S
C1432 C1434 1.391 . S
C1433 C1432 1.386 . S
C1433 C1437 1.393 . S
C1434 H1426 0.950 . S
C1434 C1432 1.391 . S
C1434 C1435 1.400 . S
C1435 C1434 1.400 . S
C1435 C1436 1.398 . S
C1435 C1441 1.491 . S
C1436 H1427 0.950 . S
C1436 C1435 1.398 . S
C1436 C1437 1.391 . S
C1437 H1425 0.950 . S
C1437 C1433 1.393 . S
C1437 C1436 1.391 . S
C1438 H1428 0.950 . S
C1438 C1439 1.386 . S
C1438 C1440 1.391 . S
C1439 C1438 1.386 . S
C1439 C1443 1.393 . S
C1440 H1429 0.950 . S
C1440 C1438 1.391 . S
C1440 C1441 1.400 . S
C1441 C1435 1.491 . S
C1441 C1440 1.400 . S
C1441 C1442 1.398 . S
C1442 H1430 0.950 . S
C1442 C1441 1.398 . S
C1442 C1443 1.391 . S
C1443 H1431 0.950 . S
C1443 C1439 1.393 . S
C1443 C1442 1.391 . S
H1444 C1452 0.950 . S
H1445 C1457 0.950 . S
H1446 C1454 0.950 . S
H1447 C1456 0.950 . S
H1448 C1458 0.950 . S
H1449 C1460 0.950 . S
H1450 C1462 0.950 . S
H1451 C1463 0.950 . S
C1452 H1444 0.950 . S
C1452 C1453 1.386 . S
C1452 C1454 1.391 . S
C1453 C1452 1.386 . S
C1453 C1457 1.393 . S
C1454 H1446 0.950 . S
C1454 C1452 1.391 . S
C1454 C1455 1.400 . S
C1455 C1454 1.400 . S
C1455 C1456 1.398 . S
C1455 C1461 1.491 . S
C1456 H1447 0.950 . S
C1456 C1455 1.398 . S
C1456 C1457 1.391 . S
C1457 H1445 0.950 . S
C1457 C1453 1.393 . S
C1457 C1456 1.391 . S
C1458 H1448 0.950 . S
C1458 C1459 1.386 . S
C1458 C1460 1.391 . S
C1459 C1458 1.386 . S
C1459 C1463 1.393 . S
C1460 H1449 0.950 . S
C1460 C1458 1.391 . S
C1460 C1461 1.400 . S
C1461 C1455 1.491 . S
C1461 C1460 1.400 . S
C1461 C1462 1.398 . S
C1462 H1450 0.950 . S
C1462 C1461 1.398 . S
C1462 C1463 1.391 . S
C1463 H1451 0.950 . S
C1463 C1459 1.393 . S
C1463 C1462 1.391 . S
H1464 C1472 0.950 . S
H1465 C1477 0.950 . S
H1466 C1474 0.950 . S
H1467 C1476 0.950 . S
H1468 C1478 0.950 . S
H1469 C1480 0.950 . S
H1470 C1482 0.950 . S
H1471 C1483 0.950 . S
C1472 H1464 0.950 . S
C1472 C1473 1.386 . S
C1472 C1474 1.391 . S
C1473 C1472 1.386 . S
C1473 C1477 1.393 . S
C1474 H1466 0.950 . S
C1474 C1472 1.391 . S
C1474 C1475 1.400 . S
C1475 C1474 1.400 . S
C1475 C1476 1.398 . S
C1475 C1481 1.491 . S
C1476 H1467 0.950 . S
C1476 C1475 1.398 . S
C1476 C1477 1.391 . S
C1477 H1465 0.950 . S
C1477 C1473 1.393 . S
C1477 C1476 1.391 . S
C1478 H1468 0.950 . S
C1478 C1479 1.386 . S
C1478 C1480 1.391 . S
C1479 C1478 1.386 . S
C1479 C1483 1.393 . S
C1480 H1469 0.950 . S
C1480 C1478 1.391 . S
C1480 C1481 1.400 . S
C1481 C1475 1.491 . S
C1481 C1480 1.400 . S
C1481 C1482 1.398 . S
C1482 H1470 0.950 . S
C1482 C1481 1.398 . S
C1482 C1483 1.391 . S
C1483 H1471 0.950 . S
C1483 C1479 1.393 . S
C1483 C1482 1.391 . S
H1484 C1492 0.950 . S
H1485 C1497 0.950 . S
H1486 C1494 0.950 . S
H1487 C1496 0.950 . S
H1488 C1498 0.950 . S
H1489 C1500 0.950 . S
H1490 C1502 0.950 . S
H1491 C1503 0.950 . S
C1492 H1484 0.950 . S
C1492 C1493 1.386 . S
C1492 C1494 1.391 . S
C1493 C1492 1.386 . S
C1493 C1497 1.393 . S
C1494 H1486 0.950 . S
C1494 C1492 1.391 . S
C1494 C1495 1.400 . S
C1495 C1494 1.400 . S
C1495 C1496 1.398 . S
C1495 C1501 1.491 . S
C1496 H1487 0.950 . S
C1496 C1495 1.398 . S
C1496 C1497 1.391 . S
C1497 H1485 0.950 . S
C1497 C1493 1.393 . S
C1497 C1496 1.391 . S
C1498 H1488 0.950 . S
C1498 C1499 1.386 . S
C1498 C1500 1.391 . S
C1499 C1498 1.386 . S
C1499 C1503 1.393 . S
C1500 H1489 0.950 . S
C1500 C1498 1.391 . S
C1500 C1501 1.400 . S
C1501 C1495 1.491 . S
C1501 C1500 1.400 . S
C1501 C1502 1.398 . S
C1502 H1490 0.950 . S
C1502 C1501 1.398 . S
C1502 C1503 1.391 . S
C1503 H1491 0.950 . S
C1503 C1499 1.393 . S
C1503 C1502 1.391 . S
C553 C110 0.551 . S
C559 C13 0.550 . S
C573 C17 1.501 . S
C579 C34 1.493 . S
C593 C81 0.894 . S
C599 C47 0.868 . S
C613 C131 1.535 . S
C619 C85 1.542 . S
C633 C165 1.568 . S
C639 C199 1.570 . S
C653 C174 0.864 . S
C659 C217 0.884 . S
C673 C204 1.468 . S
C679 C267 1.477 . S
C693 C144 0.567 . S
C699 C242 0.550 . S
C713 C314 1.471 . S
C719 C0 1.476 . S
C733 C357 2.419 . S
C739 C51 2.420 . S
C753 C68 1.472 . S
C759 C442 1.485 . S
C773 C276 0.948 . S
C779 C106 0.938 . S
C793 C378 0.972 . S
C799 C140 0.964 . S
C813 C476 1.453 . S
C819 C178 1.438 . S
C833 C221 2.392 . S
C839 C425 2.393 . S
C853 C510 1.470 . S
C859 C246 1.480 . S
C873 C280 0.530 . S
C879 C455 0.548 . S
C893 C335 1.493 . S
C899 C301 1.489 . S
C913 C353 0.883 . S
C919 C310 0.898 . S
C933 C489 0.560 . S
C939 C382 0.542 . S
C953 C421 0.889 . S
C959 C523 0.872 . S
C973 C391 0.546 . S
C979 C4 0.551 . S
C993 C437 1.506 . S
C999 C8 1.522 . S
C1013 C412 0.878 . S
C1019 C72 0.869 . S
C1033 C76 1.507 . S
C1039 C374 1.499 . S
C1053 C306 1.497 . S
C1059 C136 1.489 . S
C1073 C319 0.863 . S
C1079 C208 0.882 . S
C1093 C450 1.484 . S
C1099 C233 1.471 . S
C1113 C153 0.540 . S
C1119 C446 0.549 . S
C1133 C187 1.439 . S
C1139 C29 1.454 . S
C1153 C348 2.400 . S
C1159 C416 2.398 . S
C1173 C97 1.468 . S
C1179 C255 1.476 . S
C1193 C285 0.971 . S
C1199 C387 0.958 . S
C1213 C115 0.963 . S
C1219 C149 0.945 . S
C1233 C323 1.467 . S
C1239 C505 1.477 . S
C1253 C212 2.427 . S
C1259 C42 2.427 . S
C1273 C539 1.468 . S
C1279 C471 1.486 . S
C1293 C289 0.578 . S
C1299 C251 0.562 . S
C1313 C272 1.581 . S
C1319 C170 1.586 . S
C1333 C344 0.902 . S
C1339 C183 0.887 . S
C1353 C119 0.571 . S
C1359 C480 0.546 . S
C1373 C38 0.887 . S
C1379 C514 0.900 . S
C1393 C408 1.507 . S
C1399 C493 1.520 . S
C1413 C403 1.511 . S
C1419 C527 1.513 . S
C1433 C340 1.486 . S
C1439 C459 1.494 . S
C1453 C484 1.494 . S
C1459 C63 1.483 . S
C1473 C102 1.545 . S
C1479 C518 1.551 . S
C1493 C238 1.472 . S
C1499 C369 1.452 . S
