# Generated by pormake.
# Topology wmc, (6)-cn, num edge types: 1
# Building blocks:
#     Node 0, Type 0, BuildingBlock: IZENUY_clean_sbu_0, # of connection points: 6
#     Node 1, Type 0, BuildingBlock: IZENUY_clean_sbu_0, # of connection points: 6
#     Node 2, Type 0, BuildingBlock: IZENUY_clean_sbu_0, # of connection points: 6
#     Node 3, Type 0, BuildingBlock: IZENUY_clean_sbu_0, # of connection points: 6
#     Node 4, Type 0, BuildingBlock: IZENUY_clean_sbu_0, # of connection points: 6
#     Node 5, Type 0, BuildingBlock: IZENUY_clean_sbu_0, # of connection points: 6
#     Node 6, Type 0, BuildingBlock: IZENUY_clean_sbu_0, # of connection points: 6
#     Node 7, Type 0, BuildingBlock: IZENUY_clean_sbu_0, # of connection points: 6
#     Node 8, Type 0, BuildingBlock: IZENUY_clean_sbu_0, # of connection points: 6
#     Node 9, Type 0, BuildingBlock: IZENUY_clean_sbu_0, # of connection points: 6
#     Node 10, Type 0, BuildingBlock: IZENUY_clean_sbu_0, # of connection points: 6
#     Node 11, Type 0, BuildingBlock: IZENUY_clean_sbu_0, # of connection points: 6
#     Node 12, Type 0, BuildingBlock: IZENUY_clean_sbu_0, # of connection points: 6
#     Node 13, Type 0, BuildingBlock: IZENUY_clean_sbu_0, # of connection points: 6
#     Node 14, Type 0, BuildingBlock: IZENUY_clean_sbu_0, # of connection points: 6
#     Node 15, Type 0, BuildingBlock: IZENUY_clean_sbu_0, # of connection points: 6
#     Node 16, Type 0, BuildingBlock: IZENUY_clean_sbu_0, # of connection points: 6
#     Node 17, Type 0, BuildingBlock: IZENUY_clean_sbu_0, # of connection points: 6
#     Edge 18, Type (0, 0), BuildingBlock: AJUNOK_clean_linker_0, # of connection points: 2
#     Edge 19, Type (0, 0), BuildingBlock: AJUNOK_clean_linker_0, # of connection points: 2
#     Edge 20, Type (0, 0), BuildingBlock: AJUNOK_clean_linker_0, # of connection points: 2
#     Edge 21, Type (0, 0), BuildingBlock: AJUNOK_clean_linker_0, # of connection points: 2
#     Edge 22, Type (0, 0), BuildingBlock: AJUNOK_clean_linker_0, # of connection points: 2
#     Edge 23, Type (0, 0), BuildingBlock: AJUNOK_clean_linker_0, # of connection points: 2
#     Edge 24, Type (0, 0), BuildingBlock: AJUNOK_clean_linker_0, # of connection points: 2
#     Edge 25, Type (0, 0), BuildingBlock: AJUNOK_clean_linker_0, # of connection points: 2
#     Edge 26, Type (0, 0), BuildingBlock: AJUNOK_clean_linker_0, # of connection points: 2
#     Edge 27, Type (0, 0), BuildingBlock: AJUNOK_clean_linker_0, # of connection points: 2
#     Edge 28, Type (0, 0), BuildingBlock: AJUNOK_clean_linker_0, # of connection points: 2
#     Edge 29, Type (0, 0), BuildingBlock: AJUNOK_clean_linker_0, # of connection points: 2
#     Edge 30, Type (0, 0), BuildingBlock: AJUNOK_clean_linker_0, # of connection points: 2
#     Edge 31, Type (0, 0), BuildingBlock: AJUNOK_clean_linker_0, # of connection points: 2
#     Edge 32, Type (0, 0), BuildingBlock: AJUNOK_clean_linker_0, # of connection points: 2
#     Edge 33, Type (0, 0), BuildingBlock: AJUNOK_clean_linker_0, # of connection points: 2
#     Edge 34, Type (0, 0), BuildingBlock: AJUNOK_clean_linker_0, # of connection points: 2
#     Edge 35, Type (0, 0), BuildingBlock: AJUNOK_clean_linker_0, # of connection points: 2
#     Edge 36, Type (0, 0), BuildingBlock: AJUNOK_clean_linker_0, # of connection points: 2
#     Edge 37, Type (0, 0), BuildingBlock: AJUNOK_clean_linker_0, # of connection points: 2
#     Edge 38, Type (0, 0), BuildingBlock: AJUNOK_clean_linker_0, # of connection points: 2
#     Edge 39, Type (0, 0), BuildingBlock: AJUNOK_clean_linker_0, # of connection points: 2
#     Edge 40, Type (0, 0), BuildingBlock: AJUNOK_clean_linker_0, # of connection points: 2
#     Edge 41, Type (0, 0), BuildingBlock: AJUNOK_clean_linker_0, # of connection points: 2
#     Edge 42, Type (0, 0), BuildingBlock: AJUNOK_clean_linker_0, # of connection points: 2
#     Edge 43, Type (0, 0), BuildingBlock: AJUNOK_clean_linker_0, # of connection points: 2
#     Edge 44, Type (0, 0), BuildingBlock: AJUNOK_clean_linker_0, # of connection points: 2
#     Edge 45, Type (0, 0), BuildingBlock: AJUNOK_clean_linker_0, # of connection points: 2
#     Edge 46, Type (0, 0), BuildingBlock: AJUNOK_clean_linker_0, # of connection points: 2
#     Edge 47, Type (0, 0), BuildingBlock: AJUNOK_clean_linker_0, # of connection points: 2
#     Edge 48, Type (0, 0), BuildingBlock: AJUNOK_clean_linker_0, # of connection points: 2
#     Edge 49, Type (0, 0), BuildingBlock: AJUNOK_clean_linker_0, # of connection points: 2
#     Edge 50, Type (0, 0), BuildingBlock: AJUNOK_clean_linker_0, # of connection points: 2
#     Edge 51, Type (0, 0), BuildingBlock: AJUNOK_clean_linker_0, # of connection points: 2
#     Edge 52, Type (0, 0), BuildingBlock: AJUNOK_clean_linker_0, # of connection points: 2
#     Edge 53, Type (0, 0), BuildingBlock: AJUNOK_clean_linker_0, # of connection points: 2
#     Edge 54, Type (0, 0), BuildingBlock: AJUNOK_clean_linker_0, # of connection points: 2
#     Edge 55, Type (0, 0), BuildingBlock: AJUNOK_clean_linker_0, # of connection points: 2
#     Edge 56, Type (0, 0), BuildingBlock: AJUNOK_clean_linker_0, # of connection points: 2
#     Edge 57, Type (0, 0), BuildingBlock: AJUNOK_clean_linker_0, # of connection points: 2
#     Edge 58, Type (0, 0), BuildingBlock: AJUNOK_clean_linker_0, # of connection points: 2
#     Edge 59, Type (0, 0), BuildingBlock: AJUNOK_clean_linker_0, # of connection points: 2
#     Edge 60, Type (0, 0), BuildingBlock: AJUNOK_clean_linker_0, # of connection points: 2
#     Edge 61, Type (0, 0), BuildingBlock: AJUNOK_clean_linker_0, # of connection points: 2
#     Edge 62, Type (0, 0), BuildingBlock: AJUNOK_clean_linker_0, # of connection points: 2
#     Edge 63, Type (0, 0), BuildingBlock: AJUNOK_clean_linker_0, # of connection points: 2
#     Edge 64, Type (0, 0), BuildingBlock: AJUNOK_clean_linker_0, # of connection points: 2
#     Edge 65, Type (0, 0), BuildingBlock: AJUNOK_clean_linker_0, # of connection points: 2
#     Edge 66, Type (0, 0), BuildingBlock: AJUNOK_clean_linker_0, # of connection points: 2
#     Edge 67, Type (0, 0), BuildingBlock: AJUNOK_clean_linker_0, # of connection points: 2
#     Edge 68, Type (0, 0), BuildingBlock: AJUNOK_clean_linker_0, # of connection points: 2
#     Edge 69, Type (0, 0), BuildingBlock: AJUNOK_clean_linker_0, # of connection points: 2
#     Edge 70, Type (0, 0), BuildingBlock: AJUNOK_clean_linker_0, # of connection points: 2
#     Edge 71, Type (0, 0), BuildingBlock: AJUNOK_clean_linker_0, # of connection points: 2
# Relax obj value: 0.347
# Max RMSD: 0.273
# Mean RMSD: 0.273
data_MOF--net-wmc--node1-IZENUY_clean_sbu_0--edge1-AJUNOK_clean_linker_0
_symmetry_space_group_name_H-M    P1
_symmetry_Int_Tables_number       1
_symmetry_cell_setting            triclinic
loop_
_symmetry_equiv_pos_as_xyz
'x, y, z'
_cell_length_a     33.681377
_cell_length_b     33.662236
_cell_length_c     22.285529
_cell_angle_alpha  89.988976
_cell_angle_beta   90.039915
_cell_angle_gamma 119.91687
loop_
_atom_site_label
_atom_site_type_symbol
_atom_site_fract_x
_atom_site_fract_y
_atom_site_fract_z
_atom_type_partial_charge
Fe0 Fe 0.68966 0.14503 0.97301 0.0
Fe1 Fe 0.59574 0.12104 0.02639 0.0
O2 O 0.65604 0.15592 0.0249 0.0
Fe3 Fe 0.68245 0.20231 0.07423 0.0
O4 O 0.70173 0.24032 0.01154 0.0
O5 O 0.73499 0.20717 0.96577 0.0
O6 O 0.66181 0.15497 0.91163 0.0
C7 C 0.61959 0.1335 0.90153 0.0
C8 C 0.75029 0.17301 0.06746 0.0
O9 O 0.59078 0.1127 0.94332 0.0
C10 C 0.62167 0.13794 0.14968 0.0
O11 O 0.64505 0.07978 0.96651 0.0
O12 O 0.60306 0.07301 0.04211 0.0
O13 O 0.73719 0.20161 0.08003 0.0
O14 O 0.72509 0.13875 0.03289 0.0
C15 C 0.60226 0.20363 0.0392 0.0
O16 O 0.59146 0.12575 0.10862 0.0
O17 O 0.66322 0.16526 0.13854 0.0
C18 C 0.60834 0.05419 0.99735 0.0
O19 O 0.58558 0.16714 0.01035 0.0
O20 O 0.63367 0.2131 0.07756 0.0
C21 C 0.73139 0.24271 0.97552 0.0
Fe22 Fe 0.95833 0.57886 0.97714 0.0
Fe23 Fe 0.96206 0.49299 0.01696 0.0
O24 O 0.93637 0.52745 0.02044 0.0
Fe25 Fe 0.88831 0.51007 0.06631 0.0
O26 O 0.85503 0.50495 1.00133 0.0
O27 O 0.90076 0.57458 0.96845 0.0
O28 O 0.94626 0.54721 0.90833 0.0
C29 C 0.96125 0.52097 0.8945 0.0
C30 C 0.93469 0.60921 0.07745 0.0
O31 O 0.9746 0.50344 0.93476 0.0
C32 C 0.94265 0.4946 0.14115 0.0
O33 O 1.02024 0.5885 0.97446 0.0
O34 O 1.01436 0.54075 0.04209 0.0
O35 O 0.90085 0.56889 0.08293 0.0
O36 O 0.96862 0.61589 0.04405 0.0
C37 C 0.87338 0.42636 0.01704 0.0
O38 O 0.95197 0.47611 0.09751 0.0
O39 O 0.92009 0.51458 0.13272 0.0
C40 C 1.03857 0.56802 1.00272 0.0
O41 O 0.91134 0.44363 0.99181 0.0
O42 O 0.86597 0.44778 0.05826 0.0
C43 C 0.86088 0.53927 0.97228 0.0
Fe44 Fe 0.52427 0.39978 0.96573 0.0
Fe45 Fe 0.60316 0.49337 0.00666 0.0
O46 O 0.57437 0.43343 0.00968 0.0
Fe47 Fe 0.59734 0.40692 0.05283 0.0
O48 O 0.60585 0.38576 0.98352 0.0
O49 O 0.53469 0.34942 0.95774 0.0
O50 O 0.55605 0.42186 0.89755 0.0
C51 C 0.5793 0.46355 0.88389 0.0
C52 C 0.49944 0.34567 0.06659 0.0
O53 O 0.59226 0.49467 0.92414 0.0
C54 C 0.60574 0.47222 0.131 0.0
O55 O 0.50888 0.44883 0.9618 0.0
O56 O 0.55172 0.49007 0.03295 0.0
O57 O 0.54111 0.35526 0.06938 0.0
O58 O 0.48878 0.37058 0.03348 0.0
C59 C 0.67521 0.47988 1.00216 0.0
O60 O 0.62036 0.50081 0.08744 0.0
O61 O 0.58991 0.43003 0.12176 0.0
C62 C 0.52523 0.48665 0.99237 0.0
O63 O 0.6553 0.49884 0.97965 0.0
O64 O 0.65736 0.45261 0.04567 0.0
C65 C 0.57337 0.35087 0.96096 0.0
Fe66 Fe 0.97213 0.49687 0.51632 0.0
Fe67 Fe 0.89144 0.41169 0.56828 0.0
O68 O 0.93879 0.43666 0.52029 0.0
Fe69 Fe 0.95212 0.4015 0.47452 0.0
O70 O 0.9409 0.42408 0.40817 0.0
O71 O 0.98092 0.49708 0.43318 0.0
O72 O 0.92542 0.504 0.49437 0.0
C73 C 0.88822 0.48784 0.52103 0.0
C74 C 1.0411 0.4862 0.49534 0.0
O75 O 0.87802 0.45877 0.56284 0.0
C76 C 0.92549 0.34762 0.5755 0.0
O77 O 0.96628 0.50577 0.59768 0.0
O78 O 0.92662 0.43559 0.63348 0.0
O79 O 1.0168 0.44797 0.46671 0.0
O80 O 1.021 0.49257 0.5376 0.0
C81 C 0.85424 0.35558 0.47492 0.0
O82 O 0.895 0.3591 0.58272 0.0
O83 O 0.95975 0.37163 0.54035 0.0
C84 C 0.95357 0.47768 0.64155 0.0
O85 O 0.85519 0.38767 0.50443 0.0
O86 O 0.89091 0.35342 0.46932 0.0
C87 C 0.96015 0.46564 0.39399 0.0
Fe88 Fe 0.60899 0.49313 0.50669 0.0
Fe89 Fe 0.69854 0.50711 0.55609 0.0
O90 O 0.66902 0.52612 0.51058 0.0
Fe91 Fe 0.69928 0.57721 0.46744 0.0
O92 O 0.67937 0.54533 0.39876 0.0
O93 O 0.60682 0.50385 0.42456 0.0
O94 O 0.6093 0.44347 0.48006 0.0
C95 C 0.63026 0.42604 0.5041 0.0
C96 C 0.60913 0.56876 0.49293 0.0
O97 O 0.65661 0.44567 0.54806 0.0
C98 C 0.75329 0.60555 0.56867 0.0
O99 O 0.60171 0.47561 0.58716 0.0
O100 O 0.67189 0.51249 0.62308 0.0
O101 O 0.64743 0.58793 0.46356 0.0
O102 O 0.60639 0.54189 0.53276 0.0
C103 C 0.75533 0.53568 0.46229 0.0
O104 O 0.74623 0.56492 0.573 0.0
O105 O 0.72672 0.61365 0.5352 0.0
C106 C 0.62931 0.49331 0.63123 0.0
O107 O 0.72579 0.50122 0.49021 0.0
O108 O 0.75179 0.57168 0.45945 0.0
C109 C 0.6382 0.51914 0.38468 0.0
Fe110 Fe 0.60163 0.12711 0.52687 0.0
Fe111 Fe 0.5889 0.20488 0.57349 0.0
O112 O 0.57128 0.15747 0.52628 0.0
Fe113 Fe 0.52344 0.1406 0.47734 0.0
O114 O 0.56022 0.15353 0.41382 0.0
O115 O 0.59651 0.11763 0.44381 0.0
O116 O 0.65554 0.17601 0.50853 0.0
C117 C 0.67319 0.21409 0.53383 0.0
C118 C 0.5248 0.05511 0.50182 0.0
O119 O 0.65068 0.22334 0.57143 0.0
C120 C 0.48973 0.16426 0.57456 0.0
O121 O 0.61257 0.13343 0.60871 0.0
O122 O 0.57816 0.17074 0.63923 0.0
O123 O 0.50935 0.07725 0.47145 0.0
O124 O 0.54917 0.07636 0.5453 0.0
C125 C 0.56872 0.23827 0.47686 0.0
O126 O 0.53062 0.19599 0.58431 0.0
O127 O 0.48256 0.13065 0.53983 0.0
C128 C 0.59288 0.14379 0.64954 0.0
O129 O 0.60012 0.24076 0.50938 0.0
O130 O 0.53209 0.19993 0.46982 0.0
C131 C 0.58431 0.13557 0.40248 0.0
Fe132 Fe 0.36159 0.4716 0.30545 0.0
Fe133 Fe 0.27069 0.46147 0.35041 0.0
O134 O 0.33095 0.49015 0.35239 0.0
Fe135 Fe 0.36019 0.53688 0.40092 0.0
O136 O 0.3873 0.57316 0.33788 0.0
O137 O 0.4134 0.53082 0.29904 0.0
O138 O 0.3402 0.4849 0.23917 0.0
C139 C 0.29857 0.46844 0.22642 0.0
C140 C 0.41684 0.49419 0.40504 0.0
O141 O 0.26811 0.45162 0.26724 0.0
C142 C 0.29176 0.47827 0.4747 0.0
O143 O 0.31052 0.40833 0.29955 0.0
O144 O 0.27061 0.41031 0.37179 0.0
O145 O 0.40836 0.52648 0.41428 0.0
O146 O 0.39041 0.46087 0.36996 0.0
C147 C 0.28804 0.54846 0.35586 0.0
O148 O 0.26377 0.46865 0.43146 0.0
O149 O 0.33413 0.50238 0.46621 0.0
C150 C 0.27212 0.38789 0.3289 0.0
O151 O 0.26808 0.5109 0.32958 0.0
O152 O 0.31804 0.55676 0.39583 0.0
C153 C 0.41635 0.56991 0.30656 0.0
Fe154 Fe 0.62487 0.91064 0.30463 0.0
Fe155 Fe 0.63238 0.82677 0.34311 0.0
O156 O 0.60431 0.85896 0.34652 0.0
Fe157 Fe 0.5547 0.8385 0.39 0.0
O158 O 0.52292 0.83283 0.32285 0.0
O159 O 0.56643 0.9039 0.29465 0.0
O160 O 0.61527 0.87998 0.23538 0.0
C161 C 0.63222 0.85539 0.22143 0.0
C162 C 0.59665 0.93701 0.40498 0.0
O163 O 0.64725 0.83925 0.26172 0.0
C164 C 0.60887 0.82455 0.46701 0.0
O165 O 0.68775 0.92306 0.30331 0.0
O166 O 0.68297 0.87554 0.37093 0.0
O167 O 0.56349 0.89604 0.40787 0.0
O168 O 0.63197 0.94586 0.37282 0.0
C169 C 0.54456 0.75806 0.33762 0.0
O170 O 0.62059 0.80803 0.42328 0.0
O171 O 0.58528 0.84344 0.45795 0.0
C172 C 0.7073 0.9044 0.33289 0.0
O173 O 0.58331 0.77674 0.31447 0.0
O174 O 0.5363 0.77715 0.38097 0.0
C175 C 0.52728 0.86747 0.29605 0.0
Fe176 Fe 0.19535 0.733 0.30224 0.0
Fe177 Fe 0.27159 0.82597 0.3484 0.0
O178 O 0.24375 0.76579 0.34922 0.0
Fe179 Fe 0.26458 0.7385 0.39575 0.0
O180 O 0.27692 0.71609 0.3303 0.0
O181 O 0.20726 0.68444 0.29433 0.0
O182 O 0.22962 0.75633 0.23677 0.0
C183 C 0.25328 0.79804 0.22434 0.0
C184 C 0.16614 0.67603 0.40052 0.0
O185 O 0.26468 0.82872 0.2649 0.0
C186 C 0.26754 0.80276 0.47227 0.0
O187 O 0.17903 0.7811 0.29645 0.0
O188 O 0.21848 0.82132 0.36996 0.0
O189 O 0.20776 0.68617 0.40756 0.0
O190 O 0.15705 0.70193 0.3671 0.0
C191 C 0.34495 0.81456 0.35168 0.0
O192 O 0.28488 0.83221 0.43012 0.0
O193 O 0.25306 0.76095 0.46239 0.0
C194 C 0.19421 0.81868 0.32692 0.0
O195 O 0.32521 0.83285 0.32678 0.0
O196 O 0.32534 0.78484 0.39256 0.0
C197 C 0.24591 0.68609 0.29827 0.0
Fe198 Fe 0.61986 0.73159 0.80316 0.0
Fe199 Fe 0.6328 0.82484 0.84333 0.0
O200 O 0.60307 0.76455 0.84867 0.0
Fe201 Fe 0.55716 0.73765 0.89869 0.0
O202 O 0.51942 0.70751 0.83751 0.0
O203 O 0.56094 0.67984 0.80071 0.0
O204 O 0.60491 0.75112 0.73649 0.0
C205 C 0.62181 0.79239 0.72136 0.0
C206 C 0.59957 0.68021 0.90582 0.0
O207 O 0.64127 0.82445 0.76012 0.0
C208 C 0.61726 0.80837 0.96893 0.0
O209 O 0.68273 0.78144 0.79382 0.0
O210 O 0.68342 0.82403 0.86504 0.0
O211 O 0.56841 0.69033 0.91571 0.0
O212 O 0.63195 0.70472 0.86857 0.0
C213 C 0.54628 0.80944 0.84842 0.0
O214 O 0.62721 0.83516 0.92415 0.0
O215 O 0.5925 0.76592 0.96241 0.0
C216 C 0.70487 0.81962 0.82296 0.0
O217 O 0.58368 0.82793 0.82176 0.0
O218 O 0.53766 0.78036 0.89005 0.0
C219 C 0.52201 0.67658 0.8096 0.0
Fe220 Fe 0.27026 0.82151 0.84832 0.0
Fe221 Fe 0.36111 0.83223 0.88877 0.0
O222 O 0.33066 0.85288 0.8481 0.0
Fe223 Fe 0.36084 0.90478 0.80575 0.0
O224 O 0.3381 0.87396 0.73701 0.0
O225 O 0.26622 0.83216 0.76656 0.0
O226 O 0.26607 0.76967 0.82123 0.0
C227 C 0.28753 0.75118 0.84069 0.0
C228 C 0.27195 0.89786 0.83559 0.0
O229 O 0.31864 0.77095 0.8798 0.0
C230 C 0.41789 0.93078 0.90415 0.0
O231 O 0.26586 0.8049 0.92851 0.0
O232 O 0.33756 0.83678 0.95892 0.0
O233 O 0.31014 0.91754 0.80603 0.0
O234 O 0.27077 0.8717 0.87536 0.0
C235 C 0.41517 0.86151 0.79285 0.0
O236 O 0.41012 0.88971 0.90593 0.0
O237 O 0.39082 0.94003 0.87356 0.0
C238 C 0.29573 0.82066 0.97027 0.0
O239 O 0.38514 0.82684 0.81958 0.0
O240 O 0.41259 0.89813 0.79313 0.0
C241 C 0.29636 0.848 0.72512 0.0
Fe242 Fe 0.18881 0.47239 0.80589 0.0
Fe243 Fe 0.26519 0.45403 0.84886 0.0
O244 O 0.23797 0.48711 0.85055 0.0
Fe245 Fe 0.26097 0.5357 0.89626 0.0
O246 O 0.27375 0.57006 0.83076 0.0
O247 O 0.20386 0.53377 0.7945 0.0
O248 O 0.22039 0.47936 0.73857 0.0
C249 C 0.24326 0.46038 0.72606 0.0
C250 C 0.16483 0.50577 0.90365 0.0
O251 O 0.25541 0.4419 0.76666 0.0
C252 C 0.2637 0.47485 0.97272 0.0
O253 O 0.16965 0.40729 0.80347 0.0
O254 O 0.2126 0.40602 0.87312 0.0
O255 O 0.2069 0.53525 0.90833 0.0
O256 O 0.15312 0.46904 0.87267 0.0
C257 C 0.33815 0.53881 0.8479 0.0
O258 O 0.28088 0.46281 0.93015 0.0
O259 O 0.24854 0.50168 0.96297 0.0
C260 C 0.18522 0.38443 0.83231 0.0
O261 O 0.3184 0.50057 0.82352 0.0
O262 O 0.32003 0.54683 0.89241 0.0
C263 C 0.2437 0.56955 0.79695 0.0
Fe264 Fe 1.02806 0.8116 0.6367 0.0
Fe265 Fe 0.93445 0.79676 0.6792 0.0
O266 O 0.99448 0.82864 0.68044 0.0
Fe267 Fe 1.0219 0.87954 0.72084 0.0
O268 O 1.04163 0.90662 0.64912 0.0
O269 O 0.07829 0.87175 0.62749 0.0
O270 O 1.00533 0.82061 0.56879 0.0
C271 C 0.9635 0.8025 0.556 0.0
C272 C 0.0834 0.84204 0.73577 0.0
O273 O 0.93255 0.78493 0.59659 0.0
C274 C 0.95831 0.82342 0.80234 0.0
O275 O 0.98017 0.74759 0.63308 0.0
O276 O 0.93861 0.74858 0.70413 0.0
O277 O 0.07378 0.87427 0.73787 0.0
O278 O 1.05719 0.80565 0.7049 0.0
C279 C 0.94521 0.88201 0.6748 0.0
O280 O 0.92871 0.80658 0.7601 0.0
O281 O 0.99989 0.85156 0.79159 0.0
C282 C 0.94266 0.72587 0.66342 0.0
O283 O 0.9266 0.84261 0.65391 0.0
O284 O 0.97682 0.8951 0.71329 0.0
C285 C 0.07745 0.90921 0.63012 0.0
Fe286 Fe 0.28347 0.23288 0.64115 0.0
Fe287 Fe 0.30692 0.1622 0.69218 0.0
O288 O 0.27211 0.18752 0.69167 0.0
Fe289 Fe 0.22597 0.16717 0.74121 0.0
O290 O 0.18816 0.14939 0.67864 0.0
O291 O 0.22154 0.2164 0.63415 0.0
O292 O 0.27316 0.19603 0.57861 0.0
C293 C 0.29438 0.17521 0.56735 0.0
C294 C 0.25547 0.26405 0.73735 0.0
O295 O 0.315 0.16633 0.60866 0.0
C296 C 0.29051 0.17 0.81581 0.0
O297 O 0.34874 0.253 0.63409 0.0
O298 O 0.35399 0.2175 0.70957 0.0
O299 O 0.22646 0.22233 0.7483 0.0
O300 O 0.28982 0.27357 0.70266 0.0
C301 C 0.22467 0.08633 0.70369 0.0
O302 O 0.30237 0.1521 0.77424 0.0
O303 O 0.26309 0.1843 0.80531 0.0
C304 C 0.37351 0.24063 0.66471 0.0
O305 O 0.26114 0.10641 0.67504 0.0
O306 O 0.21552 0.10776 0.74323 0.0
C307 C 0.18631 0.17685 0.6423 0.0
Fe308 Fe 0.85354 0.06936 0.63466 0.0
Fe309 Fe 0.9358 0.1584 0.68347 0.0
O310 O 0.9031 0.09791 0.68107 0.0
Fe311 Fe 0.92108 0.06572 0.7232 0.0
O312 O 0.93005 0.04337 0.65465 0.0
O313 O 0.86069 1.01825 0.62095 0.0
O314 O 0.88753 0.09437 0.56875 0.0
C315 C 0.91312 0.13656 0.55917 0.0
C316 C 0.82265 1.00946 0.72994 0.0
O317 O 0.92792 0.16537 0.60216 0.0
C318 C 0.93108 0.12957 0.80519 0.0
O319 O 0.84097 0.11962 0.63585 0.0
O320 O 0.88592 0.16025 0.70715 0.0
O321 O 0.86318 1.01643 0.73445 0.0
O322 O 0.81512 1.03753 0.69911 0.0
C323 C 1.00426 0.13814 0.6815 0.0
O324 O 0.94948 0.16014 0.76449 0.0
O325 O 0.91294 0.08767 0.79258 0.0
C326 C 0.85867 0.15697 0.66705 0.0
O327 O 0.98747 0.1604 0.65905 0.0
O328 O 0.9825 0.10794 0.72078 0.0
C329 C 0.89712 1.01552 0.62303 0.0
Fe330 Fe 0.29255 0.06929 0.1427 0.0
Fe331 Fe 0.30226 0.16 0.19088 0.0
O332 O 0.27484 0.09936 0.19179 0.0
Fe333 Fe 0.22839 0.06886 0.24038 0.0
O334 O 0.19153 0.04302 0.17741 0.0
O335 O 0.2336 1.01794 0.13535 0.0
O336 O 0.2791 0.09257 0.07855 0.0
C337 C 0.29578 0.1345 0.06738 0.0
C338 C 0.27062 1.01184 0.23995 0.0
O339 O 0.31238 0.16454 0.10865 0.0
C340 C 0.28717 0.13611 0.31468 0.0
O341 O 0.35521 0.11955 0.13765 0.0
O342 O 0.35556 0.16299 0.20912 0.0
O343 O 0.23862 1.02036 0.25075 0.0
O344 O 0.30361 0.03876 0.20489 0.0
C345 C 0.21337 0.13889 0.19783 0.0
O346 O 0.29529 0.16485 0.27266 0.0
O347 O 0.26374 0.09382 0.30502 0.0
C348 C 0.37689 0.15779 0.16696 0.0
O349 O 0.25085 0.16051 0.17133 0.0
O350 O 0.20826 0.11082 0.23911 0.0
C351 C 0.19474 1.01497 0.14391 0.0
Fe352 Fe 1.02496 0.22864 0.13335 0.0
Fe353 Fe 0.92939 0.16282 0.18326 0.0
O354 O 0.98917 0.18608 0.18554 0.0
Fe355 Fe 1.01306 0.16635 0.23905 0.0
O356 O 1.03282 0.14479 0.18004 0.0
O357 O 0.06972 0.21041 0.13305 0.0
O358 O 0.99937 0.18912 0.07319 0.0
C359 C 0.9577 0.16858 0.06011 0.0
C360 C 0.08214 0.26248 0.2306 0.0
O361 O 0.92757 0.16381 0.09881 0.0
C362 C 0.95184 0.17499 0.308 0.0
O363 O 0.98114 0.24998 0.11893 0.0
O364 O 0.93815 0.21911 0.19477 0.0
O365 O 0.0688 0.22094 0.24431 0.0
O366 O 1.05774 0.27117 0.19385 0.0
C367 C 0.93173 0.08567 0.20478 0.0
O368 O 0.92239 0.15618 0.26608 0.0
O369 O 0.99331 0.18728 0.2994 0.0
C370 C 0.9444 0.24144 0.14815 0.0
O371 O 0.91795 0.10605 0.17185 0.0
O372 O 0.96269 0.10772 0.24369 0.0
C373 C 0.06449 0.17085 0.1454 0.0
Fe374 Fe 0.93737 0.79936 0.17896 0.0
Fe375 Fe 0.92886 0.87896 0.22407 0.0
O376 O 0.90717 0.82918 0.18168 0.0
Fe377 Fe 0.85664 0.81116 0.13747 0.0
O378 O 0.88915 0.82266 0.06978 0.0
O379 O 0.92742 0.78793 0.09628 0.0
O380 O 0.98955 0.84691 0.15326 0.0
C381 C 1.00822 0.88629 0.17425 0.0
C382 C 0.86024 0.72703 0.16322 0.0
O383 O 0.98951 0.89607 0.21623 0.0
C384 C 0.83017 0.8382 0.23846 0.0
O385 O 0.95348 0.8087 0.25981 0.0
O386 O 0.92353 0.84977 0.29344 0.0
O387 O 0.84334 0.7478 0.1326 0.0
O388 O 0.88621 0.7502 0.20418 0.0
C389 C 0.90101 0.90864 0.13525 0.0
O390 O 0.87136 0.871 0.24182 0.0
O391 O 0.8206 0.80311 0.20503 0.0
C392 C 0.93861 0.82279 0.30287 0.0
O393 O 0.9352 0.90749 0.15375 0.0
O394 O 0.86393 0.87036 0.13044 0.0
C395 C 0.91418 0.80613 0.05634 0.0
C396 C 0.6278 0.2838 0.01492 0.0
C397 C 0.5916 0.23893 0.01897 0.0
C398 C 0.62205 0.31768 0.98783 0.0
C399 C 0.5785 0.30967 0.96863 0.0
H400 H 0.66137 0.29283 0.03185 0.0
H401 H 0.6521 0.35154 0.98577 0.0
S402 S 0.47333 0.19573 0.96215 0.0
N403 N 0.51191 0.18565 0.99362 0.0
N404 N 0.49945 0.25153 0.94928 0.0
C405 C 0.54198 0.26432 0.97031 0.0
C406 C 0.54877 0.22865 0.99459 0.0
C407 C 0.75915 0.32593 0.97345 0.0
C408 C 0.76911 0.29017 0.96512 0.0
C409 C 0.79281 0.36969 0.99154 0.0
C410 C 0.83827 0.3801 0.99832 0.0
H411 H 0.72425 0.31907 0.97055 0.0
H412 H 0.78314 0.39537 1.0006 0.0
S413 S 0.88538 0.30442 0.96175 0.0
N414 N 0.82951 0.27141 0.95258 0.0
N415 N 0.8937 0.355 0.98241 0.0
C416 C 0.84995 0.34688 0.98178 0.0
C417 C 0.81525 0.30168 0.96545 0.0
C418 C 0.73949 0.49405 0.93458 0.0
C419 C 0.72366 0.50097 0.98969 0.0
C420 C 0.78666 0.5138 0.92385 0.0
C421 C 0.81877 0.54174 0.96733 0.0
H422 H 0.7154 0.47143 0.90121 0.0
H423 H 0.79789 0.50379 0.88396 0.0
S424 S 0.79163 0.57457 0.11499 0.0
N425 N 0.74138 0.54071 0.08436 0.0
N426 N 0.82935 0.5781 0.06507 0.0
C427 C 0.80213 0.55193 0.01991 0.0
C428 C 0.7546 0.53123 0.03106 0.0
C429 C 0.82653 0.55498 0.51497 0.0
C430 C 0.80013 0.53846 0.46218 0.0
C431 C 0.85426 0.53762 0.53496 0.0
C432 C 0.85744 0.50414 0.50175 0.0
H433 H 0.82258 0.57808 0.54435 0.0
H434 H 0.87257 0.54979 0.57704 0.0
S435 S 0.80477 0.45781 0.35353 0.0
N436 N 0.78414 0.49133 0.37331 0.0
N437 N 0.8397 0.46157 0.40817 0.0
C438 C 0.83575 0.49129 0.44555 0.0
C439 C 0.80637 0.50789 0.42624 0.0
C440 C 0.60081 0.31417 0.42977 0.0
C441 C 0.56987 0.28218 0.47112 0.0
C442 C 0.62065 0.3614 0.44033 0.0
C443 C 0.61119 0.37745 0.49353 0.0
H444 H 0.61238 0.30267 0.39165 0.0
H445 H 0.64493 0.38538 0.40822 0.0
S446 S 0.52952 0.30944 0.61248 0.0
N447 N 0.52804 0.27157 0.5643 0.0
N448 N 0.56617 0.35975 0.58399 0.0
C449 C 0.5785 0.34651 0.5329 0.0
C450 C 0.5575 0.2989 0.5216 0.0
C451 C 0.7557 0.2396 0.51364 0.0
C452 C 0.71941 0.24911 0.51435 0.0
C453 C 0.79953 0.27239 0.49306 0.0
C454 C 0.80787 0.31501 0.47091 0.0
H455 H 0.7506 0.20741 0.53133 0.0
H456 H 0.82747 0.26557 0.49842 0.0
S457 S 0.72172 0.35204 0.45126 0.0
N458 N 0.69322 0.30136 0.48375 0.0
N459 N 0.77434 0.36151 0.44209 0.0
C460 C 0.7704 0.32242 0.4655 0.0
C461 C 0.72658 0.29005 0.48842 0.0
C462 C 0.21843 0.60457 0.31921 0.0
C463 C 0.25069 0.64539 0.29117 0.0
C464 C 0.23096 0.57339 0.34107 0.0
C465 C 0.27642 0.5828 0.33669 0.0
H466 H 0.18469 0.59864 0.32936 0.0
H467 H 0.20544 0.54264 0.3636 0.0
S468 S 0.37134 0.67998 0.25652 0.0
N469 N 0.32788 0.68952 0.25135 0.0
N470 N 0.35185 0.63157 0.29426 0.0
C471 C 0.30794 0.62126 0.30425 0.0
C472 C 0.29481 0.65217 0.28047 0.0
C473 C 0.49025 0.69367 0.27186 0.0
C474 C 0.51534 0.70922 0.32553 0.0
C475 C 0.46226 0.64646 0.26075 0.0
C476 C 0.45981 0.61367 0.30207 0.0
H477 H 0.49067 0.71806 0.23977 0.0
H478 H 0.43979 0.63566 0.22203 0.0
S479 S 0.52437 0.63911 0.4459 0.0
N480 N 0.53994 0.68987 0.41716 0.0
N481 N 0.4884 0.60188 0.39682 0.0
C482 C 0.48803 0.6298 0.35348 0.0
C483 C 0.5155 0.67745 0.36516 0.0
C484 C 0.47315 0.88228 0.35126 0.0
C485 C 0.48477 0.86941 0.29664 0.0
C486 C 0.42775 0.86317 0.36999 0.0
C487 C 0.39228 0.83141 0.33392 0.0
H488 H 0.49895 0.90384 0.38288 0.0
H489 H 0.42043 0.87282 0.41324 0.0
S490 S 0.40275 0.79477 0.18078 0.0
N491 N 0.45624 0.82764 0.2033 0.0
N492 N 0.37008 0.79449 0.2363 0.0
C493 C 0.40263 0.82216 0.27632 0.0
C494 C 0.44908 0.84061 0.25808 0.0
C495 C 0.51398 0.86082 0.86273 0.0
C496 C 0.51437 0.82512 0.83106 0.0
C497 C 0.48743 0.87965 0.84271 0.0
C498 C 0.45937 0.86259 0.79136 0.0
H499 H 0.53401 0.87402 0.90341 0.0
H500 H 0.48612 0.90499 0.8707 0.0
S501 S 0.45836 0.77776 0.6847 0.0
N502 N 0.49301 0.78043 0.73909 0.0
N503 N 0.44012 0.81336 0.70405 0.0
C504 C 0.46313 0.82993 0.75649 0.0
C505 C 0.49116 0.81165 0.7759 0.0
C506 C 0.21841 0.62758 0.7888 0.0
C507 C 0.25276 0.61596 0.78119 0.0
C508 C 0.23003 0.6725 0.80493 0.0
C509 C 0.27595 0.70596 0.81661 0.0
H510 H 0.18262 0.6012 0.78849 0.0
H511 H 0.20274 0.68001 0.81309 0.0
S512 S 0.37832 0.69569 0.78528 0.0
N513 N 0.33452 0.64466 0.76968 0.0
N514 N 0.35584 0.72716 0.80666 0.0
C515 C 0.31044 0.69615 0.80166 0.0
C516 C 0.29884 0.65166 0.78148 0.0
C517 C 0.39993 0.59003 0.77771 0.0
C518 C 0.38612 0.56858 0.83399 0.0
C519 C 0.44616 0.62204 0.7667 0.0
C520 C 0.47953 0.63187 0.81097 0.0
H521 H 0.37462 0.58402 0.74355 0.0
H522 H 0.45532 0.64135 0.72518 0.0
S523 S 0.45848 0.57915 0.96334 0.0
N524 N 0.40759 0.55541 0.93184 0.0
N525 N 0.49394 0.61392 0.91195 0.0
C526 C 0.46541 0.60734 0.86566 0.0
C527 C 0.41868 0.57595 0.87701 0.0
C528 C 0.87463 0.93986 0.66441 0.0
C529 C 0.8957 0.97142 0.61729 0.0
C530 C 0.8907 0.91073 0.68285 0.0
C531 C 0.92826 0.91204 0.65434 0.0
H532 H 0.84912 0.94107 0.69189 0.0
H533 H 0.87498 0.88855 0.72122 0.0
S534 S 0.98868 0.97997 0.51992 0.0
N535 N 0.95175 0.99701 0.53702 0.0
N536 N 0.98079 0.94041 0.56994 0.0
C537 C 0.94648 0.93944 0.60309 0.0
C538 C 0.93038 0.96953 0.58481 0.0
C539 C 0.15051 1.01601 0.72046 0.0
C540 C 0.19133 1.0384 0.68811 0.0
C541 C 0.11507 0.97396 0.70159 0.0
C542 C 0.11863 0.95185 0.64946 0.0
H543 H 0.145 1.03171 0.75964 0.0
H544 H 0.08402 0.95912 0.72813 0.0
S545 S 0.2202 0.99386 0.55167 0.0
N546 N 0.23519 1.03411 0.60329 0.0
N547 N 0.16738 0.95381 0.56839 0.0
C548 C 0.16008 0.9724 0.61831 0.0
C549 C 0.19669 1.01592 0.63747 0.0
C550 C 0.08405 0.19246 0.64721 0.0
C551 C 1.04963 0.14749 0.66126 0.0
C552 C 0.12839 0.20201 0.63205 0.0
C553 C 0.13919 0.1668 0.62967 0.0
H554 H 0.07744 0.22071 0.65136 0.0
H555 H 0.15492 0.23725 0.62695 0.0
S556 S 0.05794 0.04219 0.64757 0.0
N557 N 1.02715 0.0668 0.66207 0.0
N558 N 0.10946 0.08434 0.63006 0.0
C559 C 0.10321 0.12113 0.63546 0.0
C560 C 0.05879 0.1116 0.65294 0.0
C561 C 0.18397 0.18827 0.15469 0.0
C562 C 0.17519 0.14572 0.17833 0.0
C563 C 0.14804 0.19536 0.13608 0.0
C564 C 0.10223 0.16018 0.14081 0.0
H565 H 0.21872 0.21681 0.15264 0.0
H566 H 0.15606 0.22935 0.12198 0.0
S567 S 0.06245 0.03881 0.18191 0.0
N568 N 0.11827 0.06569 0.19357 0.0
N569 N 1.05116 0.07829 0.15696 0.0
C570 C 0.09377 0.11598 0.15694 0.0
C571 C 0.13005 0.10906 0.17691 0.0
C572 C 0.92467 0.97137 0.20932 0.0
C573 C 0.89965 0.9494 0.15673 0.0
C574 C 0.93186 1.01392 0.22712 0.0
C575 C 0.91445 1.03661 0.19322 0.0
H576 H 0.94089 0.95658 0.2361 0.0
H577 H 0.95343 1.0301 0.26586 0.0
S578 S 0.8393 0.99031 0.05842 0.0
N579 N 0.85217 0.95038 0.0759 0.0
N580 N 0.86508 1.0312 0.10909 0.0
C581 C 0.88561 1.01331 0.14362 0.0
C582 C 0.87834 0.96948 0.12547 0.0
C583 C 0.11841 0.97057 0.09811 0.0
C584 C 0.15134 0.97172 0.13802 0.0
C585 C 0.07143 0.94209 0.10926 0.0
C586 C 1.05655 0.91519 0.16144 0.0
H587 H 0.12891 0.99443 0.06091 0.0
H588 H 1.04674 0.94271 0.07865 0.0
S589 S 0.12711 0.90322 0.27821 0.0
N590 N 0.16395 0.94071 0.23014 0.0
N591 N 0.07623 0.88791 0.25028 0.0
C592 C 0.08838 0.91378 0.19948 0.0
C593 C 0.13577 0.94188 0.18786 0.0
C594 C 0.63216 0.13274 0.31843 0.0
C595 C 0.59128 0.12962 0.33851 0.0
C596 C 0.64073 0.1328 0.25682 0.0
C597 C 0.60831 0.12882 0.2135 0.0
H598 H 0.65847 0.13738 0.35025 0.0
H599 H 0.67367 0.1376 0.24295 0.0
S600 S 0.49278 0.1122 0.244 0.0
N601 N 0.51588 0.11726 0.31087 0.0
N602 N 0.53183 0.11669 0.19559 0.0
C603 C 0.56596 0.12224 0.23337 0.0
C604 C 0.55756 0.123 0.29578 0.0
C605 C 0.95832 0.5137 0.30954 0.0
C606 C 0.96187 0.47608 0.32923 0.0
C607 C 0.9539 0.52017 0.24824 0.0
C608 C 0.95343 0.4896 0.20432 0.0
H609 H 0.95697 0.5371 0.34173 0.0
H610 H 0.94971 0.5489 0.23532 0.0
S611 S 0.96789 0.38908 0.23268 0.0
N612 N 0.96904 0.41015 0.29997 0.0
N613 N 0.96106 0.42273 0.18496 0.0
C614 C 0.95977 0.45345 0.2233 0.0
C615 C 0.96373 0.44652 0.28572 0.0
C616 C 0.5905 0.46775 0.30063 0.0
C617 C 0.62716 0.50987 0.31976 0.0
C618 C 0.58305 0.45669 0.23932 0.0
C619 C 0.61145 0.48759 0.19461 0.0
H620 H 0.56852 0.44246 0.33325 0.0
H621 H 0.55523 0.42314 0.22689 0.0
S622 S 0.70912 0.6045 0.22102 0.0
N623 N 0.69017 0.58417 0.28886 0.0
N624 N 0.67557 0.56345 0.17402 0.0
C625 C 0.64666 0.53079 0.21306 0.0
C626 C 0.65471 0.54183 0.27547 0.0
C627 C 0.96392 0.47291 0.81049 0.0
C628 C 0.96587 0.51354 0.82981 0.0
C629 C 0.96252 0.46291 0.74916 0.0
C630 C 0.96377 0.49343 0.70473 0.0
H631 H 0.96129 0.44771 0.84287 0.0
H632 H 0.95889 0.43017 0.73646 0.0
S633 S 0.97499 0.60722 0.73174 0.0
N634 N 0.9735 0.58666 0.79949 0.0
N635 N 0.97113 0.56769 0.68447 0.0
C636 C 0.96882 0.53551 0.72337 0.0
C637 C 0.9697 0.54552 0.78583 0.0
C638 C 0.64227 0.51846 0.739 0.0
C639 C 0.61283 0.48827 0.69434 0.0
C640 C 0.63019 0.51213 0.80007 0.0
C641 C 0.58845 0.47489 0.81903 0.0
H642 H 0.67558 0.5468 0.72686 0.0
H643 H 0.65464 0.53517 0.83278 0.0
S644 S 0.4971 0.38852 0.72018 0.0
N645 N 0.53842 0.42196 0.67349 0.0
N646 N 0.51581 0.40954 0.78785 0.0
C647 C 0.55773 0.44575 0.77466 0.0
C648 C 0.56982 0.45256 0.71247 0.0
C649 C 0.63582 0.12394 0.79579 0.0
C650 C 0.60612 0.12685 0.83795 0.0
C651 C 0.62934 0.12575 0.7342 0.0
C652 C 0.59319 0.13103 0.71271 0.0
H653 H 0.66553 0.12212 0.81061 0.0
H654 H 0.6545 0.12605 0.70363 0.0
S655 S 0.50146 0.13224 0.80419 0.0
N656 N 0.53609 0.12907 0.85406 0.0
N657 N 0.5235 0.13269 0.73779 0.0
C658 C 0.56097 0.13001 0.75423 0.0
C659 C 0.56748 0.12777 0.81709 0.0
C660 C 0.30587 0.4672 0.58206 0.0
C661 C 0.2757 0.46662 0.53753 0.0
C662 C 0.29425 0.46237 0.64313 0.0
C663 C 0.25232 0.45749 0.6618 0.0
H664 H 0.3394 0.47275 0.56981 0.0
H665 H 0.3191 0.46482 0.67595 0.0
S666 S 0.15881 0.44786 0.56316 0.0
N667 N 0.20021 0.45603 0.51641 0.0
N668 N 0.1785 0.44759 0.63092 0.0
C669 C 0.22082 0.45432 0.6176 0.0
C670 C 0.23239 0.45857 0.55551 0.0
C671 C 0.61728 0.84803 0.57501 0.0
C672 C 0.61781 0.81821 0.53073 0.0
C673 C 0.62022 0.84055 0.63645 0.0
C674 C 0.62308 0.8025 0.65621 0.0
H675 H 0.61371 0.87714 0.56216 0.0
H676 H 0.61865 0.86381 0.66868 0.0
S677 S 0.63003 0.71633 0.55892 0.0
N678 N 0.62492 0.75108 0.51127 0.0
N679 N 0.62983 0.73643 0.62645 0.0
C680 C 0.6254 0.77334 0.61241 0.0
C681 C 0.62308 0.78139 0.5498 0.0
C682 C 0.31295 0.86954 0.61689 0.0
C683 C 0.28354 0.83864 0.66083 0.0
C684 C 0.306 0.8591 0.55553 0.0
C685 C 0.26972 0.81702 0.53572 0.0
H686 H 0.34259 0.90166 0.63007 0.0
H687 H 0.33064 0.88309 0.52379 0.0
S688 S 0.17973 0.72652 0.63158 0.0
N689 N 0.21425 0.76615 0.67959 0.0
N690 N 0.20123 0.74607 0.56434 0.0
C691 C 0.23846 0.78695 0.57885 0.0
C692 C 0.24528 0.79788 0.64135 0.0
C693 C 0.63157 0.79662 0.07581 0.0
C694 C 0.62933 0.82548 0.03149 0.0
C695 C 0.63521 0.80768 0.13704 0.0
C696 C 0.63607 0.84774 0.15649 0.0
H697 H 0.62891 0.76428 0.06322 0.0
H698 H 0.63494 0.78354 0.1694 0.0
S699 S 0.63667 0.93756 0.05837 0.0
N700 N 0.63252 0.89785 0.01119 0.0
N701 N 0.63916 0.91884 0.12599 0.0
C702 C 0.63666 0.87828 0.1124 0.0
C703 C 0.63343 0.86717 0.04999 0.0
C704 C 0.3155 0.8459 0.07744 0.0
C705 C 0.28234 0.81806 0.03431 0.0
C706 C 0.30535 0.84176 0.13906 0.0
C707 C 0.26181 0.80922 0.15975 0.0
H708 H 0.35005 0.87052 0.06365 0.0
H709 H 0.3323 0.86239 0.1707 0.0
S710 S 0.16143 0.7314 0.06583 0.0
N711 N 0.20309 0.75965 0.01708 0.0
N712 N 0.18408 0.75127 0.13247 0.0
C713 C 0.22776 0.7827 0.11705 0.0
C714 C 0.23793 0.78733 0.05446 0.0
C715 C 0.30916 0.4678 0.05647 0.0
C716 C 0.26853 0.46528 0.03632 0.0
C717 C 0.31788 0.46773 0.11801 0.0
C718 C 0.28607 0.46449 0.16183 0.0
H719 H 0.33543 0.47231 0.02472 0.0
H720 H 0.35043 0.4712 0.13124 0.0
S721 S 0.17204 0.45173 0.13153 0.0
N722 N 0.19451 0.45589 0.06435 0.0
N723 N 0.21061 0.45482 0.17998 0.0
C724 C 0.24412 0.45919 0.14202 0.0
C725 C 0.23549 0.4599 0.07932 0.0
C726 C 0.97703 0.81852 0.91011 0.0
C727 C 0.94437 0.81327 0.8663 0.0
C728 C 0.9665 0.81365 0.97164 0.0
C729 C 0.92317 0.80418 0.99163 0.0
H730 H 1.01141 0.82734 0.89683 0.0
H731 H 0.993 0.81939 1.00376 0.0
S732 S 0.82409 0.78273 0.89562 0.0
N733 N 0.86578 0.79431 0.84759 0.0
N734 N 0.84613 0.78596 0.96285 0.0
C735 C 0.88963 0.79692 0.94827 0.0
C736 C 0.90013 0.80113 0.88573 0.0
C737 C 0.29281 0.19187 0.9233 0.0
C738 C 0.30071 0.16632 0.87944 0.0
C739 C 0.29354 0.18316 0.98462 0.0
C740 C 0.3016 0.14821 1.00391 0.0
H741 H 0.28416 0.21764 0.91015 0.0
H742 H 0.28541 0.20216 0.01679 0.0
S743 S 0.33235 0.07713 0.90859 0.0
N744 N 0.32296 0.10888 0.86056 0.0
N745 N 0.32398 0.09228 0.97576 0.0
C746 C 0.31297 0.12482 0.96102 0.0
C747 C 0.31276 0.13402 0.89871 0.0
C748 C 0.90571 0.10961 0.91215 0.0
C749 C 0.93534 0.14207 0.86957 0.0
C750 C 0.91148 0.11869 0.97406 0.0
C751 C 0.94753 0.16022 0.99537 0.0
H752 H 0.87815 0.07657 0.89758 0.0
H753 H 0.88867 0.09265 1.00528 0.0
S754 S 1.03207 0.25815 0.90309 0.0
N755 N 0.99994 0.21856 0.85363 0.0
N756 N 1.01137 0.23548 0.9694 0.0
C757 C 0.97648 0.19348 0.95325 0.0
C758 C 0.97013 0.18455 0.89051 0.0
C759 C 0.29715 0.11955 0.42124 0.0
C760 C 0.29764 0.15061 0.37807 0.0
C761 C 0.29886 0.1286 0.4829 0.0
C762 C 0.3004 0.16867 0.50327 0.0
H763 H 0.29373 0.08713 0.40737 0.0
H764 H 0.29657 0.10316 0.5146 0.0
S765 S 0.31015 0.26443 0.40914 0.0
N766 N 0.30572 0.22551 0.36042 0.0
N767 N 0.30848 0.24251 0.47596 0.0
C768 C 0.30413 0.20141 0.46061 0.0
C769 C 0.30304 0.19247 0.39805 0.0
C770 C 0.89743 0.13293 0.3906 0.0
C771 C 0.9374 0.17198 0.37111 0.0
C772 C 0.88928 0.1229 0.45176 0.0
C773 C 0.92051 0.15176 0.49579 0.0
H774 H 0.87386 0.10827 0.35847 0.0
H775 H 0.85886 0.0913 0.46443 0.0
S776 S 1.02642 0.26237 0.46785 0.0
N777 N 1.00585 0.24265 0.40026 0.0
N778 N 0.99 0.22397 0.51563 0.0
C779 C 0.9586 0.19294 0.47705 0.0
C780 C 0.96717 0.20296 0.41458 0.0
C781 C 0.91292 0.81441 0.40995 0.0
C782 C 0.94149 0.81088 0.36633 0.0
C783 C 0.91781 0.8084 0.47135 0.0
C784 C 0.95187 0.79923 0.49142 0.0
H785 H 0.88723 0.82312 0.39674 0.0
H786 H 0.89657 0.81351 0.50337 0.0
S787 S 1.03223 0.78165 0.39579 0.0
N788 N 1.00235 0.79363 0.34773 0.0
N789 N 1.01191 0.78267 0.46283 0.0
C790 C 0.97895 0.79308 0.44816 0.0
C791 C 0.97366 0.79875 0.3857 0.0
C792 C 0.50271 0.99326 0.88861 0.0
C793 C 0.46537 0.9666 0.92777 0.0
C794 C 0.54948 1.01749 0.90876 0.0
C795 C 0.56194 1.01775 0.96979 0.0
H796 H 0.49595 0.99397 0.84123 0.0
H797 H 0.5759 1.0372 0.87631 0.0
S798 S 0.47849 0.94868 0.08948 0.0
N799 N 0.446 0.93817 0.02943 0.0
N800 N 0.53139 0.98454 0.0675 0.0
C801 C 0.52484 0.9896 0.00842 0.0
C802 C 0.47775 0.96433 0.98769 0.0
C803 C 1.05744 0.50656 0.9665 0.0
C804 C 0.07061 0.55396 0.97198 0.0
C805 C 0.08625 0.49103 0.94195 0.0
C806 C 0.13175 0.52175 0.92559 0.0
H807 H 1.02431 0.48035 0.98248 0.0
H808 H 0.07332 0.45451 0.93853 0.0
S809 S 0.18803 0.64922 0.94457 0.0
N810 N 0.13453 0.63083 0.96471 0.0
N811 N 0.19041 0.60311 0.925 0.0
C812 C 0.14652 0.56937 0.93451 0.0
C813 C 0.116 0.58501 0.95629 0.0
C814 C 0.57172 0.59434 0.88606 0.0
C815 C 0.58759 0.63189 0.92674 0.0
C816 C 0.54749 0.54724 0.90532 0.0
C817 C 0.53803 0.53453 0.96676 0.0
H818 H 0.57624 0.60131 0.83837 0.0
H819 H 0.53719 0.52073 0.87167 0.0
S820 S 0.56805 0.61893 0.09134 0.0
N821 N 0.58816 0.65159 0.03116 0.0
N822 N 0.54519 0.56561 0.06722 0.0
C823 C 0.55301 0.57209 0.0072 0.0
C824 C 0.57703 0.61951 0.98757 0.0
C825 C 0.10263 0.57051 0.50485 0.0
C826 C 0.07785 0.53195 0.46659 0.0
C827 C 0.12851 0.61638 0.48347 0.0
C828 C 0.13019 0.62792 0.42222 0.0
H829 H 0.10138 0.56528 0.55294 0.0
H830 H 0.1476 0.64337 0.51576 0.0
S831 S 0.07801 0.54158 0.30006 0.0
N832 N 0.0632 0.50987 0.36155 0.0
N833 N 0.10721 0.59551 0.32246 0.0
C834 C 0.10656 0.59002 0.38286 0.0
C835 C 0.08194 0.54269 0.40447 0.0
C836 C 0.52323 0.53607 0.50573 0.0
C837 C 0.56155 0.5551 0.46628 0.0
C838 C 0.477 0.51296 0.48557 0.0
C839 C 0.46503 0.50525 0.42424 0.0
H840 H 0.52903 0.5388 0.55375 0.0
H841 H 0.45007 0.5018 0.51881 0.0
S842 S 0.55013 0.55217 0.29997 0.0
N843 N 0.58249 0.56826 0.36088 0.0
N844 N 0.49655 0.52242 0.32343 0.0
C845 C 0.50269 0.5241 0.38376 0.0
C846 C 0.55018 0.54956 0.40441 0.0
C847 C 0.58042 0.97835 0.48869 0.0
C848 C 0.58523 0.97331 0.42674 0.0
C849 C 0.55864 1.0022 0.51125 0.0
C850 C 0.53826 1.02141 0.47376 0.0
H851 H 0.59305 0.96291 0.5205 0.0
H852 H 0.55806 1.00586 0.55948 0.0
S853 S 0.53311 1.01025 0.30748 0.0
N854 N 0.5637 0.98652 0.3279 0.0
N855 N 0.52005 1.02763 0.36998 0.0
C856 C 0.54054 1.01436 0.41152 0.0
C857 C 0.5646 0.99163 0.38838 0.0
C858 C 0.21344 0.31809 0.26408 0.0
C859 C 0.22452 0.35744 0.2986 0.0
C860 C 0.16805 0.2887 0.2418 0.0
C861 C 0.13132 0.29786 0.24907 0.0
H862 H 0.23939 0.30862 0.25647 0.0
H863 H 0.1614 0.25759 0.21959 0.0
S864 S 0.13927 0.39483 0.33671 0.0
N865 N 0.19103 0.40131 0.34164 0.0
N866 N 0.10964 0.34914 0.29442 0.0
C867 C 0.14186 0.33727 0.28205 0.0
C868 C 0.18702 0.36591 0.30781 0.0
C869 C 0.74876 0.88905 0.24466 0.0
C870 C 0.74415 0.89488 0.30688 0.0
C871 C 0.77338 0.86746 0.22279 0.0
C872 C 0.79474 0.85018 0.26163 0.0
H873 H 0.7321 0.89995 0.21243 0.0
H874 H 0.77658 0.86521 0.17473 0.0
S875 S 0.79848 0.86137 0.42753 0.0
N876 N 0.76702 0.88393 0.40621 0.0
N877 N 0.81312 0.84529 0.36531 0.0
C878 C 0.79222 0.85784 0.32331 0.0
C879 C 0.76719 0.87943 0.3456 0.0
C880 C 0.22849 0.90502 0.3395 0.0
C881 C 0.2093 0.8667 0.29989 0.0
C882 C 0.25202 0.95132 0.31966 0.0
C883 C 0.25983 0.96354 0.25844 0.0
H884 H 0.22544 0.89922 0.38751 0.0
H885 H 0.2632 0.97815 0.35311 0.0
S886 S 0.21201 0.87885 0.13369 0.0
N887 N 0.19587 0.8462 0.19434 0.0
N888 N 0.24226 0.93234 0.15746 0.0
C889 C 0.24079 0.92595 0.21773 0.0
C890 C 0.21499 0.87832 0.23807 0.0
C891 C 0.78384 0.95088 0.81219 0.0
C892 C 0.78587 0.96198 0.75082 0.0
C893 C 0.7607 0.90499 0.83332 0.0
C894 C 0.73897 0.86626 0.79471 0.0
H895 H 0.80132 0.9782 0.8446 0.0
H896 H 0.75932 0.8998 0.88143 0.0
S897 S 0.74143 0.87537 0.62818 0.0
N898 N 0.76729 0.92934 0.65065 0.0
N899 N 0.7268 0.84376 0.68973 0.0
C900 C 0.74287 0.87672 0.73265 0.0
C901 C 0.7651 0.92393 0.71115 0.0
C902 C 0.17024 0.89886 0.74886 0.0
C903 C 0.13167 0.85416 0.75767 0.0
C904 C 0.21515 0.91278 0.77159 0.0
C905 C 0.22431 0.88344 0.80696 0.0
H906 H 0.16583 0.92383 0.72386 0.0
H907 H 0.24255 0.9473 0.76264 0.0
S908 S 0.1353 0.76237 0.8448 0.0
N909 N 0.10694 0.78062 0.80351 0.0
N910 N 0.18811 0.80589 0.84934 0.0
C911 C 0.18546 0.83848 0.81639 0.0
C912 C 0.14045 0.82412 0.79118 0.0
C913 C 0.23477 0.30268 0.82002 0.0
C914 C 0.24144 0.29878 0.75826 0.0
C915 C 0.21325 0.32695 0.84197 0.0
C916 C 0.19514 0.34813 0.80405 0.0
H917 H 0.24633 0.28654 0.85226 0.0
H918 H 0.21176 0.33004 0.8902 0.0
S919 S 0.19505 0.34047 0.63738 0.0
N920 N 0.22363 0.31477 0.65877 0.0
N921 N 0.18035 0.35681 0.69947 0.0
C922 C 0.19852 0.34156 0.74176 0.0
C923 C 0.22222 0.31812 0.71929 0.0
C924 C 0.83847 0.6651 0.55322 0.0
C925 C 0.80021 0.64192 0.59218 0.0
C926 C 0.88486 0.68808 0.57451 0.0
C927 C 0.89593 0.69038 0.63641 0.0
H928 H 0.83265 0.66365 0.50527 0.0
H929 H 0.91212 0.70527 0.54212 0.0
S930 S 0.80928 0.63132 0.75685 0.0
N931 N 0.77805 0.61935 0.6953 0.0
N932 N 0.86301 0.66361 0.7353 0.0
C933 C 0.8578 0.66604 0.67515 0.0
C934 C 0.81104 0.64205 0.65336 0.0
C935 C 0.42576 0.20625 0.67586 0.0
C936 C 0.40669 0.22605 0.63699 0.0
C937 C 0.44837 0.18278 0.65513 0.0
C938 C 0.45296 0.17591 0.59369 0.0
H939 H 0.42288 0.20852 0.72399 0.0
H940 H 0.46364 0.17079 0.68809 0.0
S941 S 0.41833 0.22739 0.47085 0.0
N942 N 0.40102 0.24212 0.53207 0.0
N943 N 0.44082 0.19611 0.49343 0.0
C944 C 0.43511 0.19614 0.5537 0.0
C945 C 0.41324 0.2217 0.575 0.0
C946 C 0.89899 0.26194 0.55913 0.0
C947 C 0.91246 0.29969 0.59852 0.0
C948 C 0.87717 0.21545 0.5799 0.0
C949 C 0.86871 0.2038 0.64166 0.0
H950 H 0.90406 0.26821 0.51133 0.0
H951 H 0.86813 0.18859 0.54717 0.0
S952 S 0.89395 0.28902 0.76344 0.0
N953 N 0.91158 0.32078 0.70216 0.0
N954 N 0.87431 0.23562 0.74117 0.0
C955 C 0.88126 0.24141 0.68098 0.0
C956 C 0.90208 0.28828 0.65968 0.0
C957 C 0.41206 0.21461 0.07724 0.0
C958 C 0.41307 0.20354 0.13853 0.0
C959 C 0.43656 0.26073 0.05506 0.0
C960 C 0.46473 0.29868 0.09236 0.0
H961 H 0.39125 0.18759 0.04607 0.0
H962 H 0.4344 0.26649 0.00768 0.0
S963 S 0.48408 0.28934 0.25471 0.0
N964 N 0.44723 0.23606 0.23507 0.0
N965 N 0.49467 0.32041 0.1932 0.0
C966 C 0.46773 0.28776 0.15282 0.0
C967 C 0.44192 0.2413 0.17567 0.0
C968 C 0.86288 0.22665 0.16013 0.0
C969 C 0.8983 0.23251 0.1201 0.0
C970 C 0.81595 0.20597 0.14326 0.0
C971 C 0.79993 0.18775 0.0854 0.0
H972 H 0.87139 0.23714 0.2065 0.0
H973 H 0.79161 0.20387 0.17664 0.0
S974 S 0.8765 0.19919 0.95865 0.0
N975 N 0.91247 0.22366 0.01526 0.0
N976 N 0.82465 0.18107 0.98576 0.0
C977 C 0.83456 0.19442 0.04389 0.0
C978 C 0.88311 0.2176 0.06041 0.0
C979 C 0.91548 0.65014 0.15776 0.0
C980 C 0.92475 0.64697 0.09676 0.0
C981 C 0.8921 0.67319 0.17712 0.0
C982 C 0.87422 0.69328 0.13698 0.0
H983 H 0.92542 0.63341 0.19124 0.0
H984 H 0.8881 0.67545 0.22502 0.0
S985 S 0.88097 0.68715 0.97086 0.0
N986 N 0.91073 0.66355 0.9954 0.0
N987 N 0.86313 0.70225 0.03119 0.0
C988 C 0.88122 0.68841 0.07536 0.0
C989 C 0.9075 0.66703 0.05567 0.0
loop_
_geom_bond_atom_site_label_1
_geom_bond_atom_site_label_2
_geom_bond_distance
_geom_bond_site_symmetry_2
_ccdc_geom_bond_type
Fe0 O2 1.918 1_556 S
Fe0 O5 1.997 . S
Fe0 O6 2.002 . S
Fe0 O11 1.976 . S
Fe0 O14 1.996 1_556 S
Fe1 O2 1.918 . S
Fe1 O9 1.997 1_554 S
Fe1 O12 1.996 1_554 S
Fe1 O16 1.976 . S
Fe1 O19 2.002 . S
O2 Fe0 1.918 1_554 S
O2 Fe1 1.918 . S
O2 Fe3 1.918 . S
Fe3 O2 1.918 . S
Fe3 O4 2.002 . S
Fe3 O13 1.976 . S
Fe3 O17 1.996 . S
Fe3 O20 1.997 . S
O4 Fe3 2.002 . S
O4 C21 1.295 1_554 S
O5 Fe0 1.997 . S
O5 C21 1.235 . S
O6 Fe0 2.002 . S
O6 C7 1.295 . S
C7 O6 1.295 . S
C7 O9 1.235 . S
C8 O13 1.287 . S
C8 O14 1.255 . S
O9 Fe1 1.997 1_556 S
O9 C7 1.235 . S
C10 O16 1.287 . S
C10 O17 1.255 . S
O11 Fe0 1.976 . S
O11 C18 1.287 . S
O12 Fe1 1.996 1_556 S
O12 C18 1.255 . S
O13 Fe3 1.976 . S
O13 C8 1.287 . S
O14 Fe0 1.996 1_554 S
O14 C8 1.255 . S
C15 O19 1.295 . S
C15 O20 1.235 . S
O16 Fe1 1.976 . S
O16 C10 1.287 . S
O17 Fe3 1.996 . S
O17 C10 1.255 . S
C18 O11 1.287 . S
C18 O12 1.255 . S
O19 Fe1 2.002 . S
O19 C15 1.295 . S
O20 Fe3 1.997 . S
O20 C15 1.235 . S
C21 O4 1.295 1_556 S
C21 O5 1.235 . S
Fe22 O24 1.918 1_556 S
Fe22 O27 1.997 . S
Fe22 O28 2.002 . S
Fe22 O33 1.976 . S
Fe22 O36 1.996 1_556 S
Fe23 O24 1.918 . S
Fe23 O31 1.997 1_554 S
Fe23 O34 1.996 1_554 S
Fe23 O38 1.976 . S
Fe23 O41 2.002 . S
O24 Fe22 1.918 1_554 S
O24 Fe23 1.918 . S
O24 Fe25 1.918 . S
Fe25 O24 1.918 . S
Fe25 O26 2.002 . S
Fe25 O35 1.976 . S
Fe25 O39 1.996 . S
Fe25 O42 1.997 . S
O26 Fe25 2.002 . S
O26 C43 1.295 1_554 S
O27 Fe22 1.997 . S
O27 C43 1.235 . S
O28 Fe22 2.002 . S
O28 C29 1.295 . S
C29 O28 1.295 . S
C29 O31 1.235 . S
C30 O35 1.287 . S
C30 O36 1.255 . S
O31 Fe23 1.997 1_556 S
O31 C29 1.235 . S
C32 O38 1.287 . S
C32 O39 1.255 . S
O33 Fe22 1.976 . S
O33 C40 1.287 . S
O34 Fe23 1.996 1_556 S
O34 C40 1.255 . S
O35 Fe25 1.976 . S
O35 C30 1.287 . S
O36 Fe22 1.996 1_554 S
O36 C30 1.255 . S
C37 O41 1.295 . S
C37 O42 1.235 . S
O38 Fe23 1.976 . S
O38 C32 1.287 . S
O39 Fe25 1.996 . S
O39 C32 1.255 . S
C40 O33 1.287 . S
C40 O34 1.255 . S
O41 Fe23 2.002 . S
O41 C37 1.295 . S
O42 Fe25 1.997 . S
O42 C37 1.235 . S
C43 O26 1.295 1_556 S
C43 O27 1.235 . S
Fe44 O46 1.918 1_556 S
Fe44 O49 1.997 . S
Fe44 O50 2.002 . S
Fe44 O55 1.976 . S
Fe44 O58 1.996 1_556 S
Fe45 O46 1.918 . S
Fe45 O53 1.997 1_554 S
Fe45 O56 1.996 1_554 S
Fe45 O60 1.976 . S
Fe45 O63 2.002 . S
O46 Fe44 1.918 1_554 S
O46 Fe45 1.918 . S
O46 Fe47 1.918 . S
Fe47 O46 1.918 . S
Fe47 O48 2.002 . S
Fe47 O57 1.976 . S
Fe47 O61 1.996 . S
Fe47 O64 1.997 . S
O48 Fe47 2.002 . S
O48 C65 1.295 1_554 S
O49 Fe44 1.997 . S
O49 C65 1.235 . S
O50 Fe44 2.002 . S
O50 C51 1.295 . S
C51 O50 1.295 . S
C51 O53 1.235 . S
C52 O57 1.287 . S
C52 O58 1.255 . S
O53 Fe45 1.997 1_556 S
O53 C51 1.235 . S
C54 O60 1.287 . S
C54 O61 1.255 . S
O55 Fe44 1.976 . S
O55 C62 1.287 . S
O56 Fe45 1.996 1_556 S
O56 C62 1.255 . S
O57 Fe47 1.976 . S
O57 C52 1.287 . S
O58 Fe44 1.996 1_554 S
O58 C52 1.255 . S
C59 O63 1.295 . S
C59 O64 1.235 . S
O60 Fe45 1.976 . S
O60 C54 1.287 . S
O61 Fe47 1.996 . S
O61 C54 1.255 . S
C62 O55 1.287 . S
C62 O56 1.255 . S
O63 Fe45 2.002 . S
O63 C59 1.295 . S
O64 Fe47 1.997 . S
O64 C59 1.235 . S
C65 O48 1.295 1_556 S
C65 O49 1.235 . S
Fe66 O68 1.918 . S
Fe66 O71 1.997 . S
Fe66 O72 2.002 . S
Fe66 O77 1.976 . S
Fe66 O80 1.996 . S
Fe67 O68 1.918 . S
Fe67 O75 1.997 . S
Fe67 O78 1.996 . S
Fe67 O82 1.976 . S
Fe67 O85 2.002 . S
O68 Fe66 1.918 . S
O68 Fe67 1.918 . S
O68 Fe69 1.918 . S
Fe69 O68 1.918 . S
Fe69 O70 2.002 . S
Fe69 O79 1.976 . S
Fe69 O83 1.996 . S
Fe69 O86 1.997 . S
O70 Fe69 2.002 . S
O70 C87 1.295 . S
O71 Fe66 1.997 . S
O71 C87 1.235 . S
O72 Fe66 2.002 . S
O72 C73 1.295 . S
C73 O72 1.295 . S
C73 O75 1.235 . S
C74 O79 1.287 . S
C74 O80 1.255 . S
O75 Fe67 1.997 . S
O75 C73 1.235 . S
C76 O82 1.287 . S
C76 O83 1.255 . S
O77 Fe66 1.976 . S
O77 C84 1.287 . S
O78 Fe67 1.996 . S
O78 C84 1.255 . S
O79 Fe69 1.976 . S
O79 C74 1.287 . S
O80 Fe66 1.996 . S
O80 C74 1.255 . S
C81 O85 1.295 . S
C81 O86 1.235 . S
O82 Fe67 1.976 . S
O82 C76 1.287 . S
O83 Fe69 1.996 . S
O83 C76 1.255 . S
C84 O77 1.287 . S
C84 O78 1.255 . S
O85 Fe67 2.002 . S
O85 C81 1.295 . S
O86 Fe69 1.997 . S
O86 C81 1.235 . S
C87 O70 1.295 . S
C87 O71 1.235 . S
Fe88 O90 1.918 . S
Fe88 O93 1.997 . S
Fe88 O94 2.002 . S
Fe88 O99 1.976 . S
Fe88 O102 1.996 . S
Fe89 O90 1.918 . S
Fe89 O97 1.997 . S
Fe89 O100 1.996 . S
Fe89 O104 1.976 . S
Fe89 O107 2.002 . S
O90 Fe88 1.918 . S
O90 Fe89 1.918 . S
O90 Fe91 1.918 . S
Fe91 O90 1.918 . S
Fe91 O92 2.002 . S
Fe91 O101 1.976 . S
Fe91 O105 1.996 . S
Fe91 O108 1.997 . S
O92 Fe91 2.002 . S
O92 C109 1.295 . S
O93 Fe88 1.997 . S
O93 C109 1.235 . S
O94 Fe88 2.002 . S
O94 C95 1.295 . S
C95 O94 1.295 . S
C95 O97 1.235 . S
C96 O101 1.287 . S
C96 O102 1.255 . S
O97 Fe89 1.997 . S
O97 C95 1.235 . S
C98 O104 1.287 . S
C98 O105 1.255 . S
O99 Fe88 1.976 . S
O99 C106 1.287 . S
O100 Fe89 1.996 . S
O100 C106 1.255 . S
O101 Fe91 1.976 . S
O101 C96 1.287 . S
O102 Fe88 1.996 . S
O102 C96 1.255 . S
C103 O107 1.295 . S
C103 O108 1.235 . S
O104 Fe89 1.976 . S
O104 C98 1.287 . S
O105 Fe91 1.996 . S
O105 C98 1.255 . S
C106 O99 1.287 . S
C106 O100 1.255 . S
O107 Fe89 2.002 . S
O107 C103 1.295 . S
O108 Fe91 1.997 . S
O108 C103 1.235 . S
C109 O92 1.295 . S
C109 O93 1.235 . S
Fe110 O112 1.918 . S
Fe110 O115 1.997 . S
Fe110 O116 2.002 . S
Fe110 O121 1.976 . S
Fe110 O124 1.996 . S
Fe111 O112 1.918 . S
Fe111 O119 1.997 . S
Fe111 O122 1.996 . S
Fe111 O126 1.976 . S
Fe111 O129 2.002 . S
O112 Fe110 1.918 . S
O112 Fe111 1.918 . S
O112 Fe113 1.918 . S
Fe113 O112 1.918 . S
Fe113 O114 2.002 . S
Fe113 O123 1.976 . S
Fe113 O127 1.996 . S
Fe113 O130 1.997 . S
O114 Fe113 2.002 . S
O114 C131 1.295 . S
O115 Fe110 1.997 . S
O115 C131 1.235 . S
O116 Fe110 2.002 . S
O116 C117 1.295 . S
C117 O116 1.295 . S
C117 O119 1.235 . S
C118 O123 1.287 . S
C118 O124 1.255 . S
O119 Fe111 1.997 . S
O119 C117 1.235 . S
C120 O126 1.287 . S
C120 O127 1.255 . S
O121 Fe110 1.976 . S
O121 C128 1.287 . S
O122 Fe111 1.996 . S
O122 C128 1.255 . S
O123 Fe113 1.976 . S
O123 C118 1.287 . S
O124 Fe110 1.996 . S
O124 C118 1.255 . S
C125 O129 1.295 . S
C125 O130 1.235 . S
O126 Fe111 1.976 . S
O126 C120 1.287 . S
O127 Fe113 1.996 . S
O127 C120 1.255 . S
C128 O121 1.287 . S
C128 O122 1.255 . S
O129 Fe111 2.002 . S
O129 C125 1.295 . S
O130 Fe113 1.997 . S
O130 C125 1.235 . S
C131 O114 1.295 . S
C131 O115 1.235 . S
Fe132 O134 1.918 . S
Fe132 O137 1.997 . S
Fe132 O138 2.002 . S
Fe132 O143 1.976 . S
Fe132 O146 1.996 . S
Fe133 O134 1.918 . S
Fe133 O141 1.997 . S
Fe133 O144 1.996 . S
Fe133 O148 1.976 . S
Fe133 O151 2.002 . S
O134 Fe132 1.918 . S
O134 Fe133 1.918 . S
O134 Fe135 1.918 . S
Fe135 O134 1.918 . S
Fe135 O136 2.002 . S
Fe135 O145 1.976 . S
Fe135 O149 1.996 . S
Fe135 O152 1.997 . S
O136 Fe135 2.002 . S
O136 C153 1.295 . S
O137 Fe132 1.997 . S
O137 C153 1.235 . S
O138 Fe132 2.002 . S
O138 C139 1.295 . S
C139 O138 1.295 . S
C139 O141 1.235 . S
C140 O145 1.287 . S
C140 O146 1.255 . S
O141 Fe133 1.997 . S
O141 C139 1.235 . S
C142 O148 1.287 . S
C142 O149 1.255 . S
O143 Fe132 1.976 . S
O143 C150 1.287 . S
O144 Fe133 1.996 . S
O144 C150 1.255 . S
O145 Fe135 1.976 . S
O145 C140 1.287 . S
O146 Fe132 1.996 . S
O146 C140 1.255 . S
C147 O151 1.295 . S
C147 O152 1.235 . S
O148 Fe133 1.976 . S
O148 C142 1.287 . S
O149 Fe135 1.996 . S
O149 C142 1.255 . S
C150 O143 1.287 . S
C150 O144 1.255 . S
O151 Fe133 2.002 . S
O151 C147 1.295 . S
O152 Fe135 1.997 . S
O152 C147 1.235 . S
C153 O136 1.295 . S
C153 O137 1.235 . S
Fe154 O156 1.918 . S
Fe154 O159 1.997 . S
Fe154 O160 2.002 . S
Fe154 O165 1.976 . S
Fe154 O168 1.996 . S
Fe155 O156 1.918 . S
Fe155 O163 1.997 . S
Fe155 O166 1.996 . S
Fe155 O170 1.976 . S
Fe155 O173 2.002 . S
O156 Fe154 1.918 . S
O156 Fe155 1.918 . S
O156 Fe157 1.918 . S
Fe157 O156 1.918 . S
Fe157 O158 2.002 . S
Fe157 O167 1.976 . S
Fe157 O171 1.996 . S
Fe157 O174 1.997 . S
O158 Fe157 2.002 . S
O158 C175 1.295 . S
O159 Fe154 1.997 . S
O159 C175 1.235 . S
O160 Fe154 2.002 . S
O160 C161 1.295 . S
C161 O160 1.295 . S
C161 O163 1.235 . S
C162 O167 1.287 . S
C162 O168 1.255 . S
O163 Fe155 1.997 . S
O163 C161 1.235 . S
C164 O170 1.287 . S
C164 O171 1.255 . S
O165 Fe154 1.976 . S
O165 C172 1.287 . S
O166 Fe155 1.996 . S
O166 C172 1.255 . S
O167 Fe157 1.976 . S
O167 C162 1.287 . S
O168 Fe154 1.996 . S
O168 C162 1.255 . S
C169 O173 1.295 . S
C169 O174 1.235 . S
O170 Fe155 1.976 . S
O170 C164 1.287 . S
O171 Fe157 1.996 . S
O171 C164 1.255 . S
C172 O165 1.287 . S
C172 O166 1.255 . S
O173 Fe155 2.002 . S
O173 C169 1.295 . S
O174 Fe157 1.997 . S
O174 C169 1.235 . S
C175 O158 1.295 . S
C175 O159 1.235 . S
Fe176 O178 1.918 . S
Fe176 O181 1.997 . S
Fe176 O182 2.002 . S
Fe176 O187 1.976 . S
Fe176 O190 1.996 . S
Fe177 O178 1.918 . S
Fe177 O185 1.997 . S
Fe177 O188 1.996 . S
Fe177 O192 1.976 . S
Fe177 O195 2.002 . S
O178 Fe176 1.918 . S
O178 Fe177 1.918 . S
O178 Fe179 1.918 . S
Fe179 O178 1.918 . S
Fe179 O180 2.002 . S
Fe179 O189 1.976 . S
Fe179 O193 1.996 . S
Fe179 O196 1.997 . S
O180 Fe179 2.002 . S
O180 C197 1.295 . S
O181 Fe176 1.997 . S
O181 C197 1.235 . S
O182 Fe176 2.002 . S
O182 C183 1.295 . S
C183 O182 1.295 . S
C183 O185 1.235 . S
C184 O189 1.287 . S
C184 O190 1.255 . S
O185 Fe177 1.997 . S
O185 C183 1.235 . S
C186 O192 1.287 . S
C186 O193 1.255 . S
O187 Fe176 1.976 . S
O187 C194 1.287 . S
O188 Fe177 1.996 . S
O188 C194 1.255 . S
O189 Fe179 1.976 . S
O189 C184 1.287 . S
O190 Fe176 1.996 . S
O190 C184 1.255 . S
C191 O195 1.295 . S
C191 O196 1.235 . S
O192 Fe177 1.976 . S
O192 C186 1.287 . S
O193 Fe179 1.996 . S
O193 C186 1.255 . S
C194 O187 1.287 . S
C194 O188 1.255 . S
O195 Fe177 2.002 . S
O195 C191 1.295 . S
O196 Fe179 1.997 . S
O196 C191 1.235 . S
C197 O180 1.295 . S
C197 O181 1.235 . S
Fe198 O200 1.918 . S
Fe198 O203 1.997 . S
Fe198 O204 2.002 . S
Fe198 O209 1.976 . S
Fe198 O212 1.996 . S
Fe199 O200 1.918 . S
Fe199 O207 1.997 . S
Fe199 O210 1.996 . S
Fe199 O214 1.976 . S
Fe199 O217 2.002 . S
O200 Fe198 1.918 . S
O200 Fe199 1.918 . S
O200 Fe201 1.918 . S
Fe201 O200 1.918 . S
Fe201 O202 2.002 . S
Fe201 O211 1.976 . S
Fe201 O215 1.996 . S
Fe201 O218 1.997 . S
O202 Fe201 2.002 . S
O202 C219 1.295 . S
O203 Fe198 1.997 . S
O203 C219 1.235 . S
O204 Fe198 2.002 . S
O204 C205 1.295 . S
C205 O204 1.295 . S
C205 O207 1.235 . S
C206 O211 1.287 . S
C206 O212 1.255 . S
O207 Fe199 1.997 . S
O207 C205 1.235 . S
C208 O214 1.287 . S
C208 O215 1.255 . S
O209 Fe198 1.976 . S
O209 C216 1.287 . S
O210 Fe199 1.996 . S
O210 C216 1.255 . S
O211 Fe201 1.976 . S
O211 C206 1.287 . S
O212 Fe198 1.996 . S
O212 C206 1.255 . S
C213 O217 1.295 . S
C213 O218 1.235 . S
O214 Fe199 1.976 . S
O214 C208 1.287 . S
O215 Fe201 1.996 . S
O215 C208 1.255 . S
C216 O209 1.287 . S
C216 O210 1.255 . S
O217 Fe199 2.002 . S
O217 C213 1.295 . S
O218 Fe201 1.997 . S
O218 C213 1.235 . S
C219 O202 1.295 . S
C219 O203 1.235 . S
Fe220 O222 1.918 . S
Fe220 O225 1.997 . S
Fe220 O226 2.002 . S
Fe220 O231 1.976 . S
Fe220 O234 1.996 . S
Fe221 O222 1.918 . S
Fe221 O229 1.997 . S
Fe221 O232 1.996 . S
Fe221 O236 1.976 . S
Fe221 O239 2.002 . S
O222 Fe220 1.918 . S
O222 Fe221 1.918 . S
O222 Fe223 1.918 . S
Fe223 O222 1.918 . S
Fe223 O224 2.002 . S
Fe223 O233 1.976 . S
Fe223 O237 1.996 . S
Fe223 O240 1.997 . S
O224 Fe223 2.002 . S
O224 C241 1.295 . S
O225 Fe220 1.997 . S
O225 C241 1.235 . S
O226 Fe220 2.002 . S
O226 C227 1.295 . S
C227 O226 1.295 . S
C227 O229 1.235 . S
C228 O233 1.287 . S
C228 O234 1.255 . S
O229 Fe221 1.997 . S
O229 C227 1.235 . S
C230 O236 1.287 . S
C230 O237 1.255 . S
O231 Fe220 1.976 . S
O231 C238 1.287 . S
O232 Fe221 1.996 . S
O232 C238 1.255 . S
O233 Fe223 1.976 . S
O233 C228 1.287 . S
O234 Fe220 1.996 . S
O234 C228 1.255 . S
C235 O239 1.295 . S
C235 O240 1.235 . S
O236 Fe221 1.976 . S
O236 C230 1.287 . S
O237 Fe223 1.996 . S
O237 C230 1.255 . S
C238 O231 1.287 . S
C238 O232 1.255 . S
O239 Fe221 2.002 . S
O239 C235 1.295 . S
O240 Fe223 1.997 . S
O240 C235 1.235 . S
C241 O224 1.295 . S
C241 O225 1.235 . S
Fe242 O244 1.918 . S
Fe242 O247 1.997 . S
Fe242 O248 2.002 . S
Fe242 O253 1.976 . S
Fe242 O256 1.996 . S
Fe243 O244 1.918 . S
Fe243 O251 1.997 . S
Fe243 O254 1.996 . S
Fe243 O258 1.976 . S
Fe243 O261 2.002 . S
O244 Fe242 1.918 . S
O244 Fe243 1.918 . S
O244 Fe245 1.918 . S
Fe245 O244 1.918 . S
Fe245 O246 2.002 . S
Fe245 O255 1.976 . S
Fe245 O259 1.996 . S
Fe245 O262 1.997 . S
O246 Fe245 2.002 . S
O246 C263 1.295 . S
O247 Fe242 1.997 . S
O247 C263 1.235 . S
O248 Fe242 2.002 . S
O248 C249 1.295 . S
C249 O248 1.295 . S
C249 O251 1.235 . S
C250 O255 1.287 . S
C250 O256 1.255 . S
O251 Fe243 1.997 . S
O251 C249 1.235 . S
C252 O258 1.287 . S
C252 O259 1.255 . S
O253 Fe242 1.976 . S
O253 C260 1.287 . S
O254 Fe243 1.996 . S
O254 C260 1.255 . S
O255 Fe245 1.976 . S
O255 C250 1.287 . S
O256 Fe242 1.996 . S
O256 C250 1.255 . S
C257 O261 1.295 . S
C257 O262 1.235 . S
O258 Fe243 1.976 . S
O258 C252 1.287 . S
O259 Fe245 1.996 . S
O259 C252 1.255 . S
C260 O253 1.287 . S
C260 O254 1.255 . S
O261 Fe243 2.002 . S
O261 C257 1.295 . S
O262 Fe245 1.997 . S
O262 C257 1.235 . S
C263 O246 1.295 . S
C263 O247 1.235 . S
Fe264 O266 1.918 . S
Fe264 O269 1.997 1_655 S
Fe264 O270 2.002 . S
Fe264 O275 1.976 . S
Fe264 O278 1.996 1_655 S
Fe265 O266 1.918 . S
Fe265 O273 1.997 . S
Fe265 O276 1.996 . S
Fe265 O280 1.976 . S
Fe265 O283 2.002 . S
O266 Fe264 1.918 . S
O266 Fe265 1.918 . S
O266 Fe267 1.918 . S
Fe267 O266 1.918 . S
Fe267 O268 2.002 1_655 S
Fe267 O277 1.976 1_655 S
Fe267 O281 1.996 . S
Fe267 O284 1.997 . S
O268 Fe267 2.002 1_455 S
O268 C285 1.295 . S
O269 Fe264 1.997 1_455 S
O269 C285 1.235 . S
O270 Fe264 2.002 . S
O270 C271 1.295 . S
C271 O270 1.295 . S
C271 O273 1.235 . S
C272 O277 1.287 . S
C272 O278 1.255 . S
O273 Fe265 1.997 . S
O273 C271 1.235 . S
C274 O280 1.287 . S
C274 O281 1.255 . S
O275 Fe264 1.976 . S
O275 C282 1.287 . S
O276 Fe265 1.996 . S
O276 C282 1.255 . S
O277 Fe267 1.976 1_455 S
O277 C272 1.287 . S
O278 Fe264 1.996 1_455 S
O278 C272 1.255 . S
C279 O283 1.295 . S
C279 O284 1.235 . S
O280 Fe265 1.976 . S
O280 C274 1.287 . S
O281 Fe267 1.996 . S
O281 C274 1.255 . S
C282 O275 1.287 . S
C282 O276 1.255 . S
O283 Fe265 2.002 . S
O283 C279 1.295 . S
O284 Fe267 1.997 . S
O284 C279 1.235 . S
C285 O268 1.295 . S
C285 O269 1.235 . S
Fe286 O288 1.918 . S
Fe286 O291 1.997 . S
Fe286 O292 2.002 . S
Fe286 O297 1.976 . S
Fe286 O300 1.996 . S
Fe287 O288 1.918 . S
Fe287 O295 1.997 . S
Fe287 O298 1.996 . S
Fe287 O302 1.976 . S
Fe287 O305 2.002 . S
O288 Fe286 1.918 . S
O288 Fe287 1.918 . S
O288 Fe289 1.918 . S
Fe289 O288 1.918 . S
Fe289 O290 2.002 . S
Fe289 O299 1.976 . S
Fe289 O303 1.996 . S
Fe289 O306 1.997 . S
O290 Fe289 2.002 . S
O290 C307 1.295 . S
O291 Fe286 1.997 . S
O291 C307 1.235 . S
O292 Fe286 2.002 . S
O292 C293 1.295 . S
C293 O292 1.295 . S
C293 O295 1.235 . S
C294 O299 1.287 . S
C294 O300 1.255 . S
O295 Fe287 1.997 . S
O295 C293 1.235 . S
C296 O302 1.287 . S
C296 O303 1.255 . S
O297 Fe286 1.976 . S
O297 C304 1.287 . S
O298 Fe287 1.996 . S
O298 C304 1.255 . S
O299 Fe289 1.976 . S
O299 C294 1.287 . S
O300 Fe286 1.996 . S
O300 C294 1.255 . S
C301 O305 1.295 . S
C301 O306 1.235 . S
O302 Fe287 1.976 . S
O302 C296 1.287 . S
O303 Fe289 1.996 . S
O303 C296 1.255 . S
C304 O297 1.287 . S
C304 O298 1.255 . S
O305 Fe287 2.002 . S
O305 C301 1.295 . S
O306 Fe289 1.997 . S
O306 C301 1.235 . S
C307 O290 1.295 . S
C307 O291 1.235 . S
Fe308 O310 1.918 . S
Fe308 O313 1.997 1_545 S
Fe308 O314 2.002 . S
Fe308 O319 1.976 . S
Fe308 O322 1.996 1_545 S
Fe309 O310 1.918 . S
Fe309 O317 1.997 . S
Fe309 O320 1.996 . S
Fe309 O324 1.976 . S
Fe309 O327 2.002 . S
O310 Fe308 1.918 . S
O310 Fe309 1.918 . S
O310 Fe311 1.918 . S
Fe311 O310 1.918 . S
Fe311 O312 2.002 1_545 S
Fe311 O321 1.976 1_545 S
Fe311 O325 1.996 . S
Fe311 O328 1.997 . S
O312 Fe311 2.002 1_565 S
O312 C329 1.295 . S
O313 Fe308 1.997 1_565 S
O313 C329 1.235 . S
O314 Fe308 2.002 . S
O314 C315 1.295 . S
C315 O314 1.295 . S
C315 O317 1.235 . S
C316 O321 1.287 . S
C316 O322 1.255 . S
O317 Fe309 1.997 . S
O317 C315 1.235 . S
C318 O324 1.287 . S
C318 O325 1.255 . S
O319 Fe308 1.976 . S
O319 C326 1.287 . S
O320 Fe309 1.996 . S
O320 C326 1.255 . S
O321 Fe311 1.976 1_565 S
O321 C316 1.287 . S
O322 Fe308 1.996 1_565 S
O322 C316 1.255 . S
C323 O327 1.295 . S
C323 O328 1.235 . S
O324 Fe309 1.976 . S
O324 C318 1.287 . S
O325 Fe311 1.996 . S
O325 C318 1.255 . S
C326 O319 1.287 . S
C326 O320 1.255 . S
O327 Fe309 2.002 . S
O327 C323 1.295 . S
O328 Fe311 1.997 . S
O328 C323 1.235 . S
C329 O312 1.295 . S
C329 O313 1.235 . S
Fe330 O332 1.918 . S
Fe330 O335 1.997 1_545 S
Fe330 O336 2.002 . S
Fe330 O341 1.976 . S
Fe330 O344 1.996 1_545 S
Fe331 O332 1.918 . S
Fe331 O339 1.997 . S
Fe331 O342 1.996 . S
Fe331 O346 1.976 . S
Fe331 O349 2.002 . S
O332 Fe330 1.918 . S
O332 Fe331 1.918 . S
O332 Fe333 1.918 . S
Fe333 O332 1.918 . S
Fe333 O334 2.002 1_545 S
Fe333 O343 1.976 1_545 S
Fe333 O347 1.996 . S
Fe333 O350 1.997 . S
O334 Fe333 2.002 1_565 S
O334 C351 1.295 . S
O335 Fe330 1.997 1_565 S
O335 C351 1.235 . S
O336 Fe330 2.002 . S
O336 C337 1.295 . S
C337 O336 1.295 . S
C337 O339 1.235 . S
C338 O343 1.287 . S
C338 O344 1.255 . S
O339 Fe331 1.997 . S
O339 C337 1.235 . S
C340 O346 1.287 . S
C340 O347 1.255 . S
O341 Fe330 1.976 . S
O341 C348 1.287 . S
O342 Fe331 1.996 . S
O342 C348 1.255 . S
O343 Fe333 1.976 1_565 S
O343 C338 1.287 . S
O344 Fe330 1.996 1_565 S
O344 C338 1.255 . S
C345 O349 1.295 . S
C345 O350 1.235 . S
O346 Fe331 1.976 . S
O346 C340 1.287 . S
O347 Fe333 1.996 . S
O347 C340 1.255 . S
C348 O341 1.287 . S
C348 O342 1.255 . S
O349 Fe331 2.002 . S
O349 C345 1.295 . S
O350 Fe333 1.997 . S
O350 C345 1.235 . S
C351 O334 1.295 . S
C351 O335 1.235 . S
Fe352 O354 1.918 . S
Fe352 O357 1.997 1_655 S
Fe352 O358 2.002 . S
Fe352 O363 1.976 . S
Fe352 O366 1.996 1_655 S
Fe353 O354 1.918 . S
Fe353 O361 1.997 . S
Fe353 O364 1.996 . S
Fe353 O368 1.976 . S
Fe353 O371 2.002 . S
O354 Fe352 1.918 . S
O354 Fe353 1.918 . S
O354 Fe355 1.918 . S
Fe355 O354 1.918 . S
Fe355 O356 2.002 1_655 S
Fe355 O365 1.976 1_655 S
Fe355 O369 1.996 . S
Fe355 O372 1.997 . S
O356 Fe355 2.002 1_455 S
O356 C373 1.295 . S
O357 Fe352 1.997 1_455 S
O357 C373 1.235 . S
O358 Fe352 2.002 . S
O358 C359 1.295 . S
C359 O358 1.295 . S
C359 O361 1.235 . S
C360 O365 1.287 . S
C360 O366 1.255 . S
O361 Fe353 1.997 . S
O361 C359 1.235 . S
C362 O368 1.287 . S
C362 O369 1.255 . S
O363 Fe352 1.976 . S
O363 C370 1.287 . S
O364 Fe353 1.996 . S
O364 C370 1.255 . S
O365 Fe355 1.976 1_455 S
O365 C360 1.287 . S
O366 Fe352 1.996 1_455 S
O366 C360 1.255 . S
C367 O371 1.295 . S
C367 O372 1.235 . S
O368 Fe353 1.976 . S
O368 C362 1.287 . S
O369 Fe355 1.996 . S
O369 C362 1.255 . S
C370 O363 1.287 . S
C370 O364 1.255 . S
O371 Fe353 2.002 . S
O371 C367 1.295 . S
O372 Fe355 1.997 . S
O372 C367 1.235 . S
C373 O356 1.295 . S
C373 O357 1.235 . S
Fe374 O376 1.918 . S
Fe374 O379 1.997 . S
Fe374 O380 2.002 . S
Fe374 O385 1.976 . S
Fe374 O388 1.996 . S
Fe375 O376 1.918 . S
Fe375 O383 1.997 . S
Fe375 O386 1.996 . S
Fe375 O390 1.976 . S
Fe375 O393 2.002 . S
O376 Fe374 1.918 . S
O376 Fe375 1.918 . S
O376 Fe377 1.918 . S
Fe377 O376 1.918 . S
Fe377 O378 2.002 . S
Fe377 O387 1.976 . S
Fe377 O391 1.996 . S
Fe377 O394 1.997 . S
O378 Fe377 2.002 . S
O378 C395 1.295 . S
O379 Fe374 1.997 . S
O379 C395 1.235 . S
O380 Fe374 2.002 . S
O380 C381 1.295 . S
C381 O380 1.295 . S
C381 O383 1.235 . S
C382 O387 1.287 . S
C382 O388 1.255 . S
O383 Fe375 1.997 . S
O383 C381 1.235 . S
C384 O390 1.287 . S
C384 O391 1.255 . S
O385 Fe374 1.976 . S
O385 C392 1.287 . S
O386 Fe375 1.996 . S
O386 C392 1.255 . S
O387 Fe377 1.976 . S
O387 C382 1.287 . S
O388 Fe374 1.996 . S
O388 C382 1.255 . S
C389 O393 1.295 . S
C389 O394 1.235 . S
O390 Fe375 1.976 . S
O390 C384 1.287 . S
O391 Fe377 1.996 . S
O391 C384 1.255 . S
C392 O385 1.287 . S
C392 O386 1.255 . S
O393 Fe375 2.002 . S
O393 C389 1.295 . S
O394 Fe377 1.997 . S
O394 C389 1.235 . S
C395 O378 1.295 . S
C395 O379 1.235 . S
C396 C397 1.369 1_556 S
C396 C398 1.419 . S
C396 H400 0.930 . S
C397 C396 1.369 1_554 S
C397 C406 1.429 . S
C398 C396 1.419 . S
C398 C399 1.363 . S
C398 H401 0.929 . S
C399 C398 1.363 . S
C399 C405 1.428 1_556 S
H400 C396 0.930 . S
H401 C398 0.929 . S
S402 N403 1.613 . S
S402 N404 1.610 . S
N403 S402 1.613 . S
N403 C406 1.350 . S
N404 S402 1.610 . S
N404 C405 1.351 . S
C405 C399 1.428 1_554 S
C405 N404 1.351 . S
C405 C406 1.434 . S
C406 C397 1.429 . S
C406 N403 1.350 . S
C406 C405 1.434 . S
C407 C408 1.369 . S
C407 C409 1.419 . S
C407 H411 0.930 . S
C408 C407 1.369 . S
C408 C417 1.429 1_556 S
C409 C407 1.419 . S
C409 C410 1.363 1_556 S
C409 H412 0.929 . S
C410 C409 1.363 1_554 S
C410 C416 1.428 . S
H411 C407 0.930 . S
H412 C409 0.929 . S
S413 N414 1.613 . S
S413 N415 1.610 . S
N414 S413 1.613 . S
N414 C417 1.350 . S
N415 S413 1.610 . S
N415 C416 1.351 . S
C416 C410 1.428 . S
C416 N415 1.351 . S
C416 C417 1.434 . S
C417 C408 1.429 1_554 S
C417 N414 1.350 . S
C417 C416 1.434 . S
C418 C419 1.369 1_556 S
C418 C420 1.419 . S
C418 H422 0.930 . S
C419 C418 1.369 1_554 S
C419 C428 1.429 . S
C420 C418 1.419 . S
C420 C421 1.363 . S
C420 H423 0.929 . S
C421 C420 1.363 . S
C421 C427 1.428 1_556 S
H422 C418 0.930 . S
H423 C420 0.929 . S
S424 N425 1.613 . S
S424 N426 1.610 . S
N425 S424 1.613 . S
N425 C428 1.350 . S
N426 S424 1.610 . S
N426 C427 1.351 . S
C427 C421 1.428 1_554 S
C427 N426 1.351 . S
C427 C428 1.434 . S
C428 C419 1.429 . S
C428 N425 1.350 . S
C428 C427 1.434 . S
C429 C430 1.369 . S
C429 C431 1.419 . S
C429 H433 0.930 . S
C430 C429 1.369 . S
C430 C439 1.429 . S
C431 C429 1.419 . S
C431 C432 1.363 . S
C431 H434 0.929 . S
C432 C431 1.363 . S
C432 C438 1.428 . S
H433 C429 0.930 . S
H434 C431 0.929 . S
S435 N436 1.613 . S
S435 N437 1.610 . S
N436 S435 1.613 . S
N436 C439 1.350 . S
N437 S435 1.610 . S
N437 C438 1.351 . S
C438 C432 1.428 . S
C438 N437 1.351 . S
C438 C439 1.434 . S
C439 C430 1.429 . S
C439 N436 1.350 . S
C439 C438 1.434 . S
C440 C441 1.369 . S
C440 C442 1.419 . S
C440 H444 0.930 . S
C441 C440 1.369 . S
C441 C450 1.429 . S
C442 C440 1.419 . S
C442 C443 1.363 . S
C442 H445 0.929 . S
C443 C442 1.363 . S
C443 C449 1.428 . S
H444 C440 0.930 . S
H445 C442 0.929 . S
S446 N447 1.613 . S
S446 N448 1.610 . S
N447 S446 1.613 . S
N447 C450 1.350 . S
N448 S446 1.610 . S
N448 C449 1.351 . S
C449 C443 1.428 . S
C449 N448 1.351 . S
C449 C450 1.434 . S
C450 C441 1.429 . S
C450 N447 1.350 . S
C450 C449 1.434 . S
C451 C452 1.369 . S
C451 C453 1.419 . S
C451 H455 0.930 . S
C452 C451 1.369 . S
C452 C461 1.429 . S
C453 C451 1.419 . S
C453 C454 1.363 . S
C453 H456 0.929 . S
C454 C453 1.363 . S
C454 C460 1.428 . S
H455 C451 0.930 . S
H456 C453 0.929 . S
S457 N458 1.613 . S
S457 N459 1.610 . S
N458 S457 1.613 . S
N458 C461 1.350 . S
N459 S457 1.610 . S
N459 C460 1.351 . S
C460 C454 1.428 . S
C460 N459 1.351 . S
C460 C461 1.434 . S
C461 C452 1.429 . S
C461 N458 1.350 . S
C461 C460 1.434 . S
C462 C463 1.369 . S
C462 C464 1.419 . S
C462 H466 0.930 . S
C463 C462 1.369 . S
C463 C472 1.429 . S
C464 C462 1.419 . S
C464 C465 1.363 . S
C464 H467 0.929 . S
C465 C464 1.363 . S
C465 C471 1.428 . S
H466 C462 0.930 . S
H467 C464 0.929 . S
S468 N469 1.613 . S
S468 N470 1.610 . S
N469 S468 1.613 . S
N469 C472 1.350 . S
N470 S468 1.610 . S
N470 C471 1.351 . S
C471 C465 1.428 . S
C471 N470 1.351 . S
C471 C472 1.434 . S
C472 C463 1.429 . S
C472 N469 1.350 . S
C472 C471 1.434 . S
C473 C474 1.369 . S
C473 C475 1.419 . S
C473 H477 0.930 . S
C474 C473 1.369 . S
C474 C483 1.429 . S
C475 C473 1.419 . S
C475 C476 1.363 . S
C475 H478 0.929 . S
C476 C475 1.363 . S
C476 C482 1.428 . S
H477 C473 0.930 . S
H478 C475 0.929 . S
S479 N480 1.613 . S
S479 N481 1.610 . S
N480 S479 1.613 . S
N480 C483 1.350 . S
N481 S479 1.610 . S
N481 C482 1.351 . S
C482 C476 1.428 . S
C482 N481 1.351 . S
C482 C483 1.434 . S
C483 C474 1.429 . S
C483 N480 1.350 . S
C483 C482 1.434 . S
C484 C485 1.369 . S
C484 C486 1.419 . S
C484 H488 0.930 . S
C485 C484 1.369 . S
C485 C494 1.429 . S
C486 C484 1.419 . S
C486 C487 1.363 . S
C486 H489 0.929 . S
C487 C486 1.363 . S
C487 C493 1.428 . S
H488 C484 0.930 . S
H489 C486 0.929 . S
S490 N491 1.613 . S
S490 N492 1.610 . S
N491 S490 1.613 . S
N491 C494 1.350 . S
N492 S490 1.610 . S
N492 C493 1.351 . S
C493 C487 1.428 . S
C493 N492 1.351 . S
C493 C494 1.434 . S
C494 C485 1.429 . S
C494 N491 1.350 . S
C494 C493 1.434 . S
C495 C496 1.369 . S
C495 C497 1.419 . S
C495 H499 0.930 . S
C496 C495 1.369 . S
C496 C505 1.429 . S
C497 C495 1.419 . S
C497 C498 1.363 . S
C497 H500 0.929 . S
C498 C497 1.363 . S
C498 C504 1.428 . S
H499 C495 0.930 . S
H500 C497 0.929 . S
S501 N502 1.613 . S
S501 N503 1.610 . S
N502 S501 1.613 . S
N502 C505 1.350 . S
N503 S501 1.610 . S
N503 C504 1.351 . S
C504 C498 1.428 . S
C504 N503 1.351 . S
C504 C505 1.434 . S
C505 C496 1.429 . S
C505 N502 1.350 . S
C505 C504 1.434 . S
C506 C507 1.369 . S
C506 C508 1.419 . S
C506 H510 0.930 . S
C507 C506 1.369 . S
C507 C516 1.429 . S
C508 C506 1.419 . S
C508 C509 1.363 . S
C508 H511 0.929 . S
C509 C508 1.363 . S
C509 C515 1.428 . S
H510 C506 0.930 . S
H511 C508 0.929 . S
S512 N513 1.613 . S
S512 N514 1.610 . S
N513 S512 1.613 . S
N513 C516 1.350 . S
N514 S512 1.610 . S
N514 C515 1.351 . S
C515 C509 1.428 . S
C515 N514 1.351 . S
C515 C516 1.434 . S
C516 C507 1.429 . S
C516 N513 1.350 . S
C516 C515 1.434 . S
C517 C518 1.369 . S
C517 C519 1.419 . S
C517 H521 0.930 . S
C518 C517 1.369 . S
C518 C527 1.429 . S
C519 C517 1.419 . S
C519 C520 1.363 . S
C519 H522 0.929 . S
C520 C519 1.363 . S
C520 C526 1.428 . S
H521 C517 0.930 . S
H522 C519 0.929 . S
S523 N524 1.613 . S
S523 N525 1.610 . S
N524 S523 1.613 . S
N524 C527 1.350 . S
N525 S523 1.610 . S
N525 C526 1.351 . S
C526 C520 1.428 . S
C526 N525 1.351 . S
C526 C527 1.434 . S
C527 C518 1.429 . S
C527 N524 1.350 . S
C527 C526 1.434 . S
C528 C529 1.369 . S
C528 C530 1.419 . S
C528 H532 0.930 . S
C529 C528 1.369 . S
C529 C538 1.429 . S
C530 C528 1.419 . S
C530 C531 1.363 . S
C530 H533 0.929 . S
C531 C530 1.363 . S
C531 C537 1.428 . S
H532 C528 0.930 . S
H533 C530 0.929 . S
S534 N535 1.613 . S
S534 N536 1.610 . S
N535 S534 1.613 . S
N535 C538 1.350 . S
N536 S534 1.610 . S
N536 C537 1.351 . S
C537 C531 1.428 . S
C537 N536 1.351 . S
C537 C538 1.434 . S
C538 C529 1.429 . S
C538 N535 1.350 . S
C538 C537 1.434 . S
C539 C540 1.386 . S
C539 C541 1.419 . S
C539 H543 0.930 . S
C540 C539 1.386 . S
C540 C549 1.427 . S
C541 C539 1.419 . S
C541 C542 1.363 . S
C541 H544 0.929 . S
C542 C541 1.363 . S
C542 C548 1.428 . S
H543 C539 0.930 . S
H544 C541 0.929 . S
S545 N546 1.613 . S
S545 N547 1.610 1_545 S
N546 S545 1.613 . S
N546 C549 1.350 1_545 S
N547 S545 1.610 1_565 S
N547 C548 1.351 . S
C548 C542 1.428 . S
C548 N547 1.351 . S
C548 C549 1.434 . S
C549 C540 1.427 . S
C549 N546 1.350 1_565 S
C549 C548 1.434 . S
C550 C551 1.371 . S
C550 C552 1.419 . S
C550 H554 0.930 . S
C551 C550 1.371 . S
C551 C560 1.449 . S
C552 C550 1.419 . S
C552 C553 1.363 . S
C552 H555 0.929 . S
C553 C552 1.363 . S
C553 C559 1.428 . S
H554 C550 0.930 . S
H555 C552 0.929 . S
S556 N557 1.612 . S
S556 N558 1.610 . S
N557 S556 1.612 . S
N557 C560 1.350 . S
N558 S556 1.610 . S
N558 C559 1.351 . S
C559 C553 1.428 . S
C559 N558 1.351 . S
C559 C560 1.434 . S
C560 C551 1.449 . S
C560 N557 1.350 . S
C560 C559 1.434 . S
C561 C562 1.369 . S
C561 C563 1.419 . S
C561 H565 0.930 . S
C562 C561 1.369 . S
C562 C571 1.429 . S
C563 C561 1.419 . S
C563 C564 1.363 . S
C563 H566 0.929 . S
C564 C563 1.363 . S
C564 C570 1.428 . S
H565 C561 0.930 . S
H566 C563 0.929 . S
S567 N568 1.613 1_655 S
S567 N569 1.610 . S
N568 S567 1.613 1_455 S
N568 C571 1.350 . S
N569 S567 1.610 . S
N569 C570 1.351 1_655 S
C570 C564 1.428 . S
C570 N569 1.351 1_455 S
C570 C571 1.434 . S
C571 C562 1.429 . S
C571 N568 1.350 . S
C571 C570 1.434 . S
C572 C573 1.369 . S
C572 C574 1.419 . S
C572 H576 0.930 . S
C573 C572 1.369 . S
C573 C582 1.429 . S
C574 C572 1.419 . S
C574 C575 1.378 . S
C574 H577 0.929 . S
C575 C574 1.378 . S
C575 C581 1.427 . S
H576 C572 0.930 . S
H577 C574 0.929 . S
S578 N579 1.613 1_545 S
S578 N580 1.610 . S
N579 S578 1.613 1_565 S
N579 C582 1.350 . S
N580 S578 1.610 . S
N580 C581 1.351 1_545 S
C581 C575 1.427 . S
C581 N580 1.351 1_565 S
C581 C582 1.434 . S
C582 C573 1.429 . S
C582 N579 1.350 . S
C582 C581 1.434 . S
C583 C584 1.369 . S
C583 C585 1.419 . S
C583 H587 0.930 . S
C584 C583 1.369 . S
C584 C593 1.429 . S
C585 C583 1.419 . S
C585 C586 1.362 . S
C585 H588 0.929 1_455 S
C586 C585 1.362 . S
C586 C592 1.456 . S
H587 C583 0.930 . S
H588 C585 0.929 1_655 S
S589 N590 1.613 . S
S589 N591 1.610 . S
N590 S589 1.613 . S
N590 C593 1.350 . S
N591 S589 1.610 . S
N591 C592 1.351 . S
C592 C586 1.456 . S
C592 N591 1.351 . S
C592 C593 1.434 . S
C593 C584 1.429 . S
C593 N590 1.350 . S
C593 C592 1.434 . S
C594 C595 1.369 . S
C594 C596 1.419 . S
C594 H598 0.930 . S
C595 C594 1.369 . S
C595 C604 1.429 . S
C596 C594 1.419 . S
C596 C597 1.363 . S
C596 H599 0.929 . S
C597 C596 1.363 . S
C597 C603 1.428 . S
H598 C594 0.930 . S
H599 C596 0.929 . S
S600 N601 1.613 . S
S600 N602 1.610 . S
N601 S600 1.613 . S
N601 C604 1.350 . S
N602 S600 1.610 . S
N602 C603 1.351 . S
C603 C597 1.428 . S
C603 N602 1.351 . S
C603 C604 1.434 . S
C604 C595 1.429 . S
C604 N601 1.350 . S
C604 C603 1.434 . S
C605 C606 1.369 . S
C605 C607 1.419 . S
C605 H609 0.930 . S
C606 C605 1.369 . S
C606 C615 1.429 . S
C607 C605 1.419 . S
C607 C608 1.363 . S
C607 H610 0.929 . S
C608 C607 1.363 . S
C608 C614 1.428 . S
H609 C605 0.930 . S
H610 C607 0.929 . S
S611 N612 1.613 . S
S611 N613 1.610 . S
N612 S611 1.613 . S
N612 C615 1.350 . S
N613 S611 1.610 . S
N613 C614 1.351 . S
C614 C608 1.428 . S
C614 N613 1.351 . S
C614 C615 1.434 . S
C615 C606 1.429 . S
C615 N612 1.350 . S
C615 C614 1.434 . S
C616 C617 1.369 . S
C616 C618 1.419 . S
C616 H620 0.930 . S
C617 C616 1.369 . S
C617 C626 1.429 . S
C618 C616 1.419 . S
C618 C619 1.363 . S
C618 H621 0.929 . S
C619 C618 1.363 . S
C619 C625 1.428 . S
H620 C616 0.930 . S
H621 C618 0.929 . S
S622 N623 1.613 . S
S622 N624 1.610 . S
N623 S622 1.613 . S
N623 C626 1.350 . S
N624 S622 1.610 . S
N624 C625 1.351 . S
C625 C619 1.428 . S
C625 N624 1.351 . S
C625 C626 1.434 . S
C626 C617 1.429 . S
C626 N623 1.350 . S
C626 C625 1.434 . S
C627 C628 1.369 . S
C627 C629 1.419 . S
C627 H631 0.930 . S
C628 C627 1.369 . S
C628 C637 1.429 . S
C629 C627 1.419 . S
C629 C630 1.363 . S
C629 H632 0.929 . S
C630 C629 1.363 . S
C630 C636 1.428 . S
H631 C627 0.930 . S
H632 C629 0.929 . S
S633 N634 1.613 . S
S633 N635 1.610 . S
N634 S633 1.613 . S
N634 C637 1.350 . S
N635 S633 1.610 . S
N635 C636 1.351 . S
C636 C630 1.428 . S
C636 N635 1.351 . S
C636 C637 1.434 . S
C637 C628 1.429 . S
C637 N634 1.350 . S
C637 C636 1.434 . S
C638 C639 1.369 . S
C638 C640 1.419 . S
C638 H642 0.930 . S
C639 C638 1.369 . S
C639 C648 1.429 . S
C640 C638 1.419 . S
C640 C641 1.363 . S
C640 H643 0.929 . S
C641 C640 1.363 . S
C641 C647 1.428 . S
H642 C638 0.930 . S
H643 C640 0.929 . S
S644 N645 1.613 . S
S644 N646 1.610 . S
N645 S644 1.613 . S
N645 C648 1.350 . S
N646 S644 1.610 . S
N646 C647 1.351 . S
C647 C641 1.428 . S
C647 N646 1.351 . S
C647 C648 1.434 . S
C648 C639 1.429 . S
C648 N645 1.350 . S
C648 C647 1.434 . S
C649 C650 1.369 . S
C649 C651 1.419 . S
C649 H653 0.930 . S
C650 C649 1.369 . S
C650 C659 1.429 . S
C651 C649 1.419 . S
C651 C652 1.363 . S
C651 H654 0.929 . S
C652 C651 1.363 . S
C652 C658 1.428 . S
H653 C649 0.930 . S
H654 C651 0.929 . S
S655 N656 1.613 . S
S655 N657 1.610 . S
N656 S655 1.613 . S
N656 C659 1.350 . S
N657 S655 1.610 . S
N657 C658 1.351 . S
C658 C652 1.428 . S
C658 N657 1.351 . S
C658 C659 1.434 . S
C659 C650 1.429 . S
C659 N656 1.350 . S
C659 C658 1.434 . S
C660 C661 1.369 . S
C660 C662 1.419 . S
C660 H664 0.930 . S
C661 C660 1.369 . S
C661 C670 1.429 . S
C662 C660 1.419 . S
C662 C663 1.363 . S
C662 H665 0.929 . S
C663 C662 1.363 . S
C663 C669 1.428 . S
H664 C660 0.930 . S
H665 C662 0.929 . S
S666 N667 1.613 . S
S666 N668 1.610 . S
N667 S666 1.613 . S
N667 C670 1.350 . S
N668 S666 1.610 . S
N668 C669 1.351 . S
C669 C663 1.428 . S
C669 N668 1.351 . S
C669 C670 1.434 . S
C670 C661 1.429 . S
C670 N667 1.350 . S
C670 C669 1.434 . S
C671 C672 1.369 . S
C671 C673 1.419 . S
C671 H675 0.930 . S
C672 C671 1.369 . S
C672 C681 1.429 . S
C673 C671 1.419 . S
C673 C674 1.363 . S
C673 H676 0.929 . S
C674 C673 1.363 . S
C674 C680 1.428 . S
H675 C671 0.930 . S
H676 C673 0.929 . S
S677 N678 1.613 . S
S677 N679 1.610 . S
N678 S677 1.613 . S
N678 C681 1.350 . S
N679 S677 1.610 . S
N679 C680 1.351 . S
C680 C674 1.428 . S
C680 N679 1.351 . S
C680 C681 1.434 . S
C681 C672 1.429 . S
C681 N678 1.350 . S
C681 C680 1.434 . S
C682 C683 1.369 . S
C682 C684 1.419 . S
C682 H686 0.930 . S
C683 C682 1.369 . S
C683 C692 1.429 . S
C684 C682 1.419 . S
C684 C685 1.363 . S
C684 H687 0.929 . S
C685 C684 1.363 . S
C685 C691 1.428 . S
H686 C682 0.930 . S
H687 C684 0.929 . S
S688 N689 1.613 . S
S688 N690 1.610 . S
N689 S688 1.613 . S
N689 C692 1.350 . S
N690 S688 1.610 . S
N690 C691 1.351 . S
C691 C685 1.428 . S
C691 N690 1.351 . S
C691 C692 1.434 . S
C692 C683 1.429 . S
C692 N689 1.350 . S
C692 C691 1.434 . S
C693 C694 1.369 . S
C693 C695 1.419 . S
C693 H697 0.930 . S
C694 C693 1.369 . S
C694 C703 1.429 . S
C695 C693 1.419 . S
C695 C696 1.363 . S
C695 H698 0.929 . S
C696 C695 1.363 . S
C696 C702 1.428 . S
H697 C693 0.930 . S
H698 C695 0.929 . S
S699 N700 1.613 . S
S699 N701 1.610 . S
N700 S699 1.613 . S
N700 C703 1.350 . S
N701 S699 1.610 . S
N701 C702 1.351 . S
C702 C696 1.428 . S
C702 N701 1.351 . S
C702 C703 1.434 . S
C703 C694 1.429 . S
C703 N700 1.350 . S
C703 C702 1.434 . S
C704 C705 1.369 . S
C704 C706 1.419 . S
C704 H708 0.930 . S
C705 C704 1.369 . S
C705 C714 1.429 . S
C706 C704 1.419 . S
C706 C707 1.363 . S
C706 H709 0.929 . S
C707 C706 1.363 . S
C707 C713 1.428 . S
H708 C704 0.930 . S
H709 C706 0.929 . S
S710 N711 1.613 . S
S710 N712 1.610 . S
N711 S710 1.613 . S
N711 C714 1.350 . S
N712 S710 1.610 . S
N712 C713 1.351 . S
C713 C707 1.428 . S
C713 N712 1.351 . S
C713 C714 1.434 . S
C714 C705 1.429 . S
C714 N711 1.350 . S
C714 C713 1.434 . S
C715 C716 1.369 . S
C715 C717 1.419 . S
C715 H719 0.930 . S
C716 C715 1.369 . S
C716 C725 1.429 . S
C717 C715 1.419 . S
C717 C718 1.363 . S
C717 H720 0.929 . S
C718 C717 1.363 . S
C718 C724 1.428 . S
H719 C715 0.930 . S
H720 C717 0.929 . S
S721 N722 1.613 . S
S721 N723 1.610 . S
N722 S721 1.613 . S
N722 C725 1.350 . S
N723 S721 1.610 . S
N723 C724 1.351 . S
C724 C718 1.428 . S
C724 N723 1.351 . S
C724 C725 1.434 . S
C725 C716 1.429 . S
C725 N722 1.350 . S
C725 C724 1.434 . S
C726 C727 1.369 . S
C726 C728 1.419 . S
C726 H730 0.930 . S
C727 C726 1.369 . S
C727 C736 1.429 . S
C728 C726 1.419 . S
C728 C729 1.363 . S
C728 H731 0.929 . S
C729 C728 1.363 . S
C729 C735 1.428 . S
H730 C726 0.930 . S
H731 C728 0.929 . S
S732 N733 1.613 . S
S732 N734 1.610 . S
N733 S732 1.613 . S
N733 C736 1.350 . S
N734 S732 1.610 . S
N734 C735 1.351 . S
C735 C729 1.428 . S
C735 N734 1.351 . S
C735 C736 1.434 . S
C736 C727 1.429 . S
C736 N733 1.350 . S
C736 C735 1.434 . S
C737 C738 1.369 . S
C737 C739 1.419 . S
C737 H741 0.930 . S
C738 C737 1.369 . S
C738 C747 1.429 . S
C739 C737 1.419 . S
C739 C740 1.363 . S
C739 H742 0.929 . S
C740 C739 1.363 . S
C740 C746 1.428 . S
H741 C737 0.930 . S
H742 C739 0.929 . S
S743 N744 1.613 1_565 S
S743 N745 1.610 1_565 S
N744 S743 1.613 1_545 S
N744 C747 1.350 . S
N745 S743 1.610 1_545 S
N745 C746 1.351 . S
C746 C740 1.428 . S
C746 N745 1.351 . S
C746 C747 1.434 . S
C747 C738 1.429 . S
C747 N744 1.350 . S
C747 C746 1.434 . S
C748 C749 1.369 . S
C748 C750 1.419 . S
C748 H752 0.930 . S
C749 C748 1.369 . S
C749 C758 1.429 . S
C750 C748 1.419 . S
C750 C751 1.363 . S
C750 H753 0.929 . S
C751 C750 1.363 . S
C751 C757 1.428 . S
H752 C748 0.930 . S
H753 C750 0.929 . S
S754 N755 1.613 . S
S754 N756 1.610 . S
N755 S754 1.613 . S
N755 C758 1.350 . S
N756 S754 1.610 . S
N756 C757 1.351 . S
C757 C751 1.428 . S
C757 N756 1.351 . S
C757 C758 1.434 . S
C758 C749 1.429 . S
C758 N755 1.350 . S
C758 C757 1.434 . S
C759 C760 1.369 . S
C759 C761 1.419 . S
C759 H763 0.930 . S
C760 C759 1.369 . S
C760 C769 1.429 . S
C761 C759 1.419 . S
C761 C762 1.363 . S
C761 H764 0.929 . S
C762 C761 1.363 . S
C762 C768 1.428 . S
H763 C759 0.930 . S
H764 C761 0.929 . S
S765 N766 1.613 . S
S765 N767 1.610 . S
N766 S765 1.613 . S
N766 C769 1.350 . S
N767 S765 1.610 . S
N767 C768 1.351 . S
C768 C762 1.428 . S
C768 N767 1.351 . S
C768 C769 1.434 . S
C769 C760 1.429 . S
C769 N766 1.350 . S
C769 C768 1.434 . S
C770 C771 1.369 . S
C770 C772 1.419 . S
C770 H774 0.930 . S
C771 C770 1.369 . S
C771 C780 1.429 . S
C772 C770 1.419 . S
C772 C773 1.363 . S
C772 H775 0.929 . S
C773 C772 1.363 . S
C773 C779 1.428 . S
H774 C770 0.930 . S
H775 C772 0.929 . S
S776 N777 1.613 . S
S776 N778 1.610 . S
N777 S776 1.613 . S
N777 C780 1.350 . S
N778 S776 1.610 . S
N778 C779 1.351 . S
C779 C773 1.428 . S
C779 N778 1.351 . S
C779 C780 1.434 . S
C780 C771 1.429 . S
C780 N777 1.350 . S
C780 C779 1.434 . S
C781 C782 1.369 . S
C781 C783 1.419 . S
C781 H785 0.930 . S
C782 C781 1.369 . S
C782 C791 1.429 . S
C783 C781 1.419 . S
C783 C784 1.363 . S
C783 H786 0.929 . S
C784 C783 1.363 . S
C784 C790 1.428 . S
H785 C781 0.930 . S
H786 C783 0.929 . S
S787 N788 1.613 . S
S787 N789 1.610 . S
N788 S787 1.613 . S
N788 C791 1.350 . S
N789 S787 1.610 . S
N789 C790 1.351 . S
C790 C784 1.428 . S
C790 N789 1.351 . S
C790 C791 1.434 . S
C791 C782 1.429 . S
C791 N788 1.350 . S
C791 C790 1.434 . S
C792 C793 1.369 . S
C792 C794 1.419 1_565 S
C792 H796 0.930 . S
C793 C792 1.369 . S
C793 C802 1.429 . S
C794 C792 1.419 1_545 S
C794 C795 1.363 1_545 S
C794 H797 0.929 . S
C795 C794 1.363 1_565 S
C795 C801 1.428 . S
H796 C792 0.930 . S
H797 C794 0.929 . S
S798 N799 1.613 . S
S798 N800 1.610 . S
N799 S798 1.613 . S
N799 C802 1.350 . S
N800 S798 1.610 . S
N800 C801 1.351 . S
C801 C795 1.428 . S
C801 N800 1.351 . S
C801 C802 1.434 . S
C802 C793 1.429 . S
C802 N799 1.350 . S
C802 C801 1.434 . S
C803 C804 1.369 1_655 S
C803 C805 1.419 1_655 S
C803 H807 0.930 . S
C804 C803 1.369 1_455 S
C804 C813 1.429 . S
C805 C803 1.419 1_455 S
C805 C806 1.363 . S
C805 H808 0.929 . S
C806 C805 1.363 . S
C806 C812 1.428 . S
H807 C803 0.930 . S
H808 C805 0.929 . S
S809 N810 1.613 . S
S809 N811 1.610 . S
N810 S809 1.613 . S
N810 C813 1.350 . S
N811 S809 1.610 . S
N811 C812 1.351 . S
C812 C806 1.428 . S
C812 N811 1.351 . S
C812 C813 1.434 . S
C813 C804 1.429 . S
C813 N810 1.350 . S
C813 C812 1.434 . S
C814 C815 1.369 . S
C814 C816 1.419 . S
C814 H818 0.930 . S
C815 C814 1.369 . S
C815 C824 1.429 . S
C816 C814 1.419 . S
C816 C817 1.363 . S
C816 H819 0.929 . S
C817 C816 1.363 . S
C817 C823 1.428 . S
H818 C814 0.930 . S
H819 C816 0.929 . S
S820 N821 1.613 1_554 S
S820 N822 1.610 . S
N821 S820 1.613 1_556 S
N821 C824 1.350 . S
N822 S820 1.610 . S
N822 C823 1.351 1_554 S
C823 C817 1.428 . S
C823 N822 1.351 1_556 S
C823 C824 1.434 . S
C824 C815 1.429 . S
C824 N821 1.350 . S
C824 C823 1.434 . S
C825 C826 1.369 . S
C825 C827 1.419 . S
C825 H829 0.930 . S
C826 C825 1.369 . S
C826 C835 1.429 . S
C827 C825 1.419 . S
C827 C828 1.363 . S
C827 H830 0.929 . S
C828 C827 1.363 . S
C828 C834 1.428 . S
H829 C825 0.930 . S
H830 C827 0.929 . S
S831 N832 1.613 . S
S831 N833 1.610 1_655 S
N832 S831 1.613 . S
N832 C835 1.350 1_655 S
N833 S831 1.610 1_455 S
N833 C834 1.351 . S
C834 C828 1.428 . S
C834 N833 1.351 . S
C834 C835 1.434 . S
C835 C826 1.429 . S
C835 N832 1.350 1_455 S
C835 C834 1.434 . S
C836 C837 1.369 . S
C836 C838 1.419 . S
C836 H840 0.930 . S
C837 C836 1.369 . S
C837 C846 1.429 . S
C838 C836 1.419 . S
C838 C839 1.363 . S
C838 H841 0.929 . S
C839 C838 1.363 . S
C839 C845 1.428 . S
H840 C836 0.930 . S
H841 C838 0.929 . S
S842 N843 1.613 . S
S842 N844 1.610 . S
N843 S842 1.613 . S
N843 C846 1.350 . S
N844 S842 1.610 . S
N844 C845 1.351 . S
C845 C839 1.428 . S
C845 N844 1.351 . S
C845 C846 1.434 . S
C846 C837 1.429 . S
C846 N843 1.350 . S
C846 C845 1.434 . S
C847 C848 1.369 . S
C847 C849 1.419 1_565 S
C847 H851 0.930 . S
C848 C847 1.369 . S
C848 C857 1.429 . S
C849 C847 1.419 1_545 S
C849 C850 1.363 1_545 S
C849 H852 0.929 . S
C850 C849 1.363 1_565 S
C850 C856 1.428 . S
H851 C847 0.930 . S
H852 C849 0.929 . S
S853 N854 1.613 . S
S853 N855 1.610 . S
N854 S853 1.613 . S
N854 C857 1.350 . S
N855 S853 1.610 . S
N855 C856 1.351 . S
C856 C850 1.428 . S
C856 N855 1.351 . S
C856 C857 1.434 . S
C857 C848 1.429 . S
C857 N854 1.350 . S
C857 C856 1.434 . S
C858 C859 1.369 . S
C858 C860 1.419 . S
C858 H862 0.930 . S
C859 C858 1.369 . S
C859 C868 1.429 . S
C860 C858 1.419 . S
C860 C861 1.363 . S
C860 H863 0.929 . S
C861 C860 1.363 . S
C861 C867 1.428 . S
H862 C858 0.930 . S
H863 C860 0.929 . S
S864 N865 1.613 . S
S864 N866 1.610 . S
N865 S864 1.613 . S
N865 C868 1.350 . S
N866 S864 1.610 . S
N866 C867 1.351 . S
C867 C861 1.428 . S
C867 N866 1.351 . S
C867 C868 1.434 . S
C868 C859 1.429 . S
C868 N865 1.350 . S
C868 C867 1.434 . S
C869 C870 1.369 . S
C869 C871 1.419 . S
C869 H873 0.930 . S
C870 C869 1.369 . S
C870 C879 1.429 . S
C871 C869 1.419 . S
C871 C872 1.363 . S
C871 H874 0.929 . S
C872 C871 1.363 . S
C872 C878 1.428 . S
H873 C869 0.930 . S
H874 C871 0.929 . S
S875 N876 1.613 . S
S875 N877 1.610 . S
N876 S875 1.613 . S
N876 C879 1.350 . S
N877 S875 1.610 . S
N877 C878 1.351 . S
C878 C872 1.428 . S
C878 N877 1.351 . S
C878 C879 1.434 . S
C879 C870 1.429 . S
C879 N876 1.350 . S
C879 C878 1.434 . S
C880 C881 1.369 . S
C880 C882 1.419 . S
C880 H884 0.930 . S
C881 C880 1.369 . S
C881 C890 1.429 . S
C882 C880 1.419 . S
C882 C883 1.363 . S
C882 H885 0.929 . S
C883 C882 1.363 . S
C883 C889 1.428 . S
H884 C880 0.930 . S
H885 C882 0.929 . S
S886 N887 1.613 . S
S886 N888 1.610 . S
N887 S886 1.613 . S
N887 C890 1.350 . S
N888 S886 1.610 . S
N888 C889 1.351 . S
C889 C883 1.428 . S
C889 N888 1.351 . S
C889 C890 1.434 . S
C890 C881 1.429 . S
C890 N887 1.350 . S
C890 C889 1.434 . S
C891 C892 1.369 . S
C891 C893 1.419 . S
C891 H895 0.930 . S
C892 C891 1.369 . S
C892 C901 1.429 . S
C893 C891 1.419 . S
C893 C894 1.363 . S
C893 H896 0.929 . S
C894 C893 1.363 . S
C894 C900 1.428 . S
H895 C891 0.930 . S
H896 C893 0.929 . S
S897 N898 1.613 . S
S897 N899 1.610 . S
N898 S897 1.613 . S
N898 C901 1.350 . S
N899 S897 1.610 . S
N899 C900 1.351 . S
C900 C894 1.428 . S
C900 N899 1.351 . S
C900 C901 1.434 . S
C901 C892 1.429 . S
C901 N898 1.350 . S
C901 C900 1.434 . S
C902 C903 1.369 . S
C902 C904 1.419 . S
C902 H906 0.930 . S
C903 C902 1.369 . S
C903 C912 1.429 . S
C904 C902 1.419 . S
C904 C905 1.363 . S
C904 H907 0.929 . S
C905 C904 1.363 . S
C905 C911 1.428 . S
H906 C902 0.930 . S
H907 C904 0.929 . S
S908 N909 1.613 . S
S908 N910 1.610 . S
N909 S908 1.613 . S
N909 C912 1.350 . S
N910 S908 1.610 . S
N910 C911 1.351 . S
C911 C905 1.428 . S
C911 N910 1.351 . S
C911 C912 1.434 . S
C912 C903 1.429 . S
C912 N909 1.350 . S
C912 C911 1.434 . S
C913 C914 1.369 . S
C913 C915 1.419 . S
C913 H917 0.930 . S
C914 C913 1.369 . S
C914 C923 1.429 . S
C915 C913 1.419 . S
C915 C916 1.363 . S
C915 H918 0.929 . S
C916 C915 1.363 . S
C916 C922 1.428 . S
H917 C913 0.930 . S
H918 C915 0.929 . S
S919 N920 1.613 . S
S919 N921 1.610 . S
N920 S919 1.613 . S
N920 C923 1.350 . S
N921 S919 1.610 . S
N921 C922 1.351 . S
C922 C916 1.428 . S
C922 N921 1.351 . S
C922 C923 1.434 . S
C923 C914 1.429 . S
C923 N920 1.350 . S
C923 C922 1.434 . S
C924 C925 1.369 . S
C924 C926 1.419 . S
C924 H928 0.930 . S
C925 C924 1.369 . S
C925 C934 1.429 . S
C926 C924 1.419 . S
C926 C927 1.363 . S
C926 H929 0.929 . S
C927 C926 1.363 . S
C927 C933 1.428 . S
H928 C924 0.930 . S
H929 C926 0.929 . S
S930 N931 1.613 . S
S930 N932 1.610 . S
N931 S930 1.613 . S
N931 C934 1.350 . S
N932 S930 1.610 . S
N932 C933 1.351 . S
C933 C927 1.428 . S
C933 N932 1.351 . S
C933 C934 1.434 . S
C934 C925 1.429 . S
C934 N931 1.350 . S
C934 C933 1.434 . S
C935 C936 1.369 . S
C935 C937 1.419 . S
C935 H939 0.930 . S
C936 C935 1.369 . S
C936 C945 1.429 . S
C937 C935 1.419 . S
C937 C938 1.363 . S
C937 H940 0.929 . S
C938 C937 1.363 . S
C938 C944 1.428 . S
H939 C935 0.930 . S
H940 C937 0.929 . S
S941 N942 1.613 . S
S941 N943 1.610 . S
N942 S941 1.613 . S
N942 C945 1.350 . S
N943 S941 1.610 . S
N943 C944 1.351 . S
C944 C938 1.428 . S
C944 N943 1.351 . S
C944 C945 1.434 . S
C945 C936 1.429 . S
C945 N942 1.350 . S
C945 C944 1.434 . S
C946 C947 1.369 . S
C946 C948 1.419 . S
C946 H950 0.930 . S
C947 C946 1.369 . S
C947 C956 1.429 . S
C948 C946 1.419 . S
C948 C949 1.363 . S
C948 H951 0.929 . S
C949 C948 1.363 . S
C949 C955 1.428 . S
H950 C946 0.930 . S
H951 C948 0.929 . S
S952 N953 1.613 . S
S952 N954 1.610 . S
N953 S952 1.613 . S
N953 C956 1.350 . S
N954 S952 1.610 . S
N954 C955 1.351 . S
C955 C949 1.428 . S
C955 N954 1.351 . S
C955 C956 1.434 . S
C956 C947 1.429 . S
C956 N953 1.350 . S
C956 C955 1.434 . S
C957 C958 1.369 . S
C957 C959 1.419 . S
C957 H961 0.930 . S
C958 C957 1.369 . S
C958 C967 1.429 . S
C959 C957 1.419 . S
C959 C960 1.363 . S
C959 H962 0.929 . S
C960 C959 1.363 . S
C960 C966 1.428 . S
H961 C957 0.930 . S
H962 C959 0.929 . S
S963 N964 1.613 . S
S963 N965 1.610 . S
N964 S963 1.613 . S
N964 C967 1.350 . S
N965 S963 1.610 . S
N965 C966 1.351 . S
C966 C960 1.428 . S
C966 N965 1.351 . S
C966 C967 1.434 . S
C967 C958 1.429 . S
C967 N964 1.350 . S
C967 C966 1.434 . S
C968 C969 1.369 . S
C968 C970 1.419 . S
C968 H972 0.930 . S
C969 C968 1.369 . S
C969 C978 1.429 . S
C970 C968 1.419 . S
C970 C971 1.363 . S
C970 H973 0.929 . S
C971 C970 1.363 . S
C971 C977 1.428 . S
H972 C968 0.930 . S
H973 C970 0.929 . S
S974 N975 1.613 . S
S974 N976 1.610 . S
N975 S974 1.613 . S
N975 C978 1.350 . S
N976 S974 1.610 . S
N976 C977 1.351 . S
C977 C971 1.428 . S
C977 N976 1.351 . S
C977 C978 1.434 . S
C978 C969 1.429 . S
C978 N975 1.350 . S
C978 C977 1.434 . S
C979 C980 1.369 . S
C979 C981 1.419 . S
C979 H983 0.930 . S
C980 C979 1.369 . S
C980 C989 1.429 . S
C981 C979 1.419 . S
C981 C982 1.363 . S
C981 H984 0.929 . S
C982 C981 1.363 . S
C982 C988 1.428 . S
H983 C979 0.930 . S
H984 C981 0.929 . S
S985 N986 1.613 1_556 S
S985 N987 1.610 1_556 S
N986 S985 1.613 1_554 S
N986 C989 1.350 . S
N987 S985 1.610 1_554 S
N987 C988 1.351 . S
C988 C982 1.428 . S
C988 N987 1.351 . S
C988 C989 1.434 . S
C989 C980 1.429 . S
C989 N986 1.350 . S
C989 C988 1.434 . S
C397 C15 1.178 . S
C399 C65 1.066 . S
C408 C21 1.064 . S
C410 C37 1.178 . S
C419 C59 1.173 . S
C421 C43 1.071 . S
C430 C103 1.081 . S
C432 C73 1.172 . S
C441 C125 1.064 . S
C443 C95 1.178 . S
C452 C117 1.175 . S
C454 C81 1.073 . S
C463 C197 1.064 . S
C465 C147 1.180 . S
C474 C169 1.176 . S
C476 C153 1.068 . S
C485 C175 1.078 . S
C487 C191 1.174 . S
C496 C213 1.178 . S
C498 C235 1.070 . S
C507 C263 1.064 . S
C509 C227 1.180 . S
C518 C257 1.178 . S
C520 C219 1.067 . S
C529 C329 1.077 . S
C531 C279 1.174 . S
C540 C301 1.163 1_565 S
C542 C285 1.075 . S
C551 C323 1.155 1_455 S
C553 C307 1.067 . S
C562 C345 1.181 . S
C564 C373 1.064 . S
C573 C389 1.080 . S
C575 C367 1.156 1_565 S
C584 C351 1.067 . S
C586 C381 1.154 1_455 S
C595 C131 1.297 . S
C597 C10 1.290 . S
C606 C87 1.297 . S
C608 C32 1.291 . S
C617 C109 1.299 . S
C619 C54 1.290 . S
C628 C29 1.297 . S
C630 C84 1.290 . S
C639 C106 1.288 . S
C641 C51 1.301 . S
C650 C7 1.303 . S
C652 C128 1.286 . S
C661 C142 1.293 . S
C663 C249 1.298 . S
C672 C164 1.293 . S
C674 C205 1.298 . S
C683 C241 1.307 . S
C685 C186 1.281 . S
C694 C208 1.292 1_554 S
C696 C161 1.298 . S
C705 C238 1.286 1_554 S
C707 C183 1.302 . S
C716 C252 1.285 1_554 S
C718 C139 1.304 . S
C727 C274 1.285 . S
C729 C395 1.302 1_556 S
C738 C296 1.286 . S
C740 C337 1.301 1_556 S
C749 C318 1.281 . S
C751 C359 1.305 1_556 S
C760 C340 1.293 . S
C762 C293 1.298 . S
C771 C362 1.280 . S
C773 C315 1.306 . S
C782 C392 1.291 . S
C784 C271 1.299 . S
C793 C230 2.073 . S
C795 C18 1.990 1_565 S
C804 C40 1.992 1_455 S
C806 C250 2.073 . S
C815 C206 2.075 . S
C817 C62 1.989 . S
C826 C74 1.986 1_455 S
C828 C184 2.075 . S
C837 C96 1.987 . S
C839 C140 2.074 . S
C848 C162 2.072 . S
C850 C118 1.989 1_565 S
C859 C150 1.982 . S
C861 C360 2.079 . S
C870 C172 1.981 . S
C872 C384 2.078 . S
C881 C194 1.986 . S
C883 C338 2.074 . S
C892 C316 2.074 . S
C894 C216 1.987 . S
C903 C272 2.079 . S
C905 C228 1.983 . S
C914 C294 2.078 . S
C916 C260 1.982 . S
C925 C98 2.077 . S
C927 C282 1.987 . S
C936 C304 1.982 . S
C938 C120 2.077 . S
C947 C76 2.073 . S
C949 C326 1.990 . S
C958 C348 1.987 . S
C960 C52 2.076 . S
C969 C370 1.991 . S
C971 C8 2.073 . S
C980 C30 2.072 . S
C982 C382 1.988 . S
