# Generated by pormake.
# Topology umo, (4)-cn, num edge types: 1
# Building blocks:
#     Node 0, Type 0, BuildingBlock: ICAMEG_clean_sbu_1, # of connection points: 4
#     Node 1, Type 0, BuildingBlock: ICAMEG_clean_sbu_1, # of connection points: 4
#     Node 2, Type 0, BuildingBlock: ICAMEG_clean_sbu_1, # of connection points: 4
#     Node 3, Type 0, BuildingBlock: ICAMEG_clean_sbu_1, # of connection points: 4
#     Node 4, Type 0, BuildingBlock: ICAMEG_clean_sbu_1, # of connection points: 4
#     Node 5, Type 0, BuildingBlock: ICAMEG_clean_sbu_1, # of connection points: 4
#     Node 6, Type 0, BuildingBlock: ICAMEG_clean_sbu_1, # of connection points: 4
#     Node 7, Type 0, BuildingBlock: ICAMEG_clean_sbu_1, # of connection points: 4
#     Node 8, Type 0, BuildingBlock: ICAMEG_clean_sbu_1, # of connection points: 4
#     Node 9, Type 0, BuildingBlock: ICAMEG_clean_sbu_1, # of connection points: 4
#     Node 10, Type 0, BuildingBlock: ICAMEG_clean_sbu_1, # of connection points: 4
#     Node 11, Type 0, BuildingBlock: ICAMEG_clean_sbu_1, # of connection points: 4
#     Edge 12, Type (0, 0), BuildingBlock: OJICUG_clean_linker_0, # of connection points: 2
#     Edge 13, Type (0, 0), BuildingBlock: OJICUG_clean_linker_0, # of connection points: 2
#     Edge 14, Type (0, 0), BuildingBlock: OJICUG_clean_linker_0, # of connection points: 2
#     Edge 15, Type (0, 0), BuildingBlock: OJICUG_clean_linker_0, # of connection points: 2
#     Edge 16, Type (0, 0), BuildingBlock: OJICUG_clean_linker_0, # of connection points: 2
#     Edge 17, Type (0, 0), BuildingBlock: OJICUG_clean_linker_0, # of connection points: 2
#     Edge 18, Type (0, 0), BuildingBlock: OJICUG_clean_linker_0, # of connection points: 2
#     Edge 19, Type (0, 0), BuildingBlock: OJICUG_clean_linker_0, # of connection points: 2
#     Edge 20, Type (0, 0), BuildingBlock: OJICUG_clean_linker_0, # of connection points: 2
#     Edge 21, Type (0, 0), BuildingBlock: OJICUG_clean_linker_0, # of connection points: 2
#     Edge 22, Type (0, 0), BuildingBlock: OJICUG_clean_linker_0, # of connection points: 2
#     Edge 23, Type (0, 0), BuildingBlock: OJICUG_clean_linker_0, # of connection points: 2
#     Edge 24, Type (0, 0), BuildingBlock: OJICUG_clean_linker_0, # of connection points: 2
#     Edge 25, Type (0, 0), BuildingBlock: OJICUG_clean_linker_0, # of connection points: 2
#     Edge 26, Type (0, 0), BuildingBlock: OJICUG_clean_linker_0, # of connection points: 2
#     Edge 27, Type (0, 0), BuildingBlock: OJICUG_clean_linker_0, # of connection points: 2
#     Edge 28, Type (0, 0), BuildingBlock: OJICUG_clean_linker_0, # of connection points: 2
#     Edge 29, Type (0, 0), BuildingBlock: OJICUG_clean_linker_0, # of connection points: 2
#     Edge 30, Type (0, 0), BuildingBlock: OJICUG_clean_linker_0, # of connection points: 2
#     Edge 31, Type (0, 0), BuildingBlock: OJICUG_clean_linker_0, # of connection points: 2
#     Edge 32, Type (0, 0), BuildingBlock: OJICUG_clean_linker_0, # of connection points: 2
#     Edge 33, Type (0, 0), BuildingBlock: OJICUG_clean_linker_0, # of connection points: 2
#     Edge 34, Type (0, 0), BuildingBlock: OJICUG_clean_linker_0, # of connection points: 2
#     Edge 35, Type (0, 0), BuildingBlock: OJICUG_clean_linker_0, # of connection points: 2
# Relax obj value: 0.092
# Max RMSD: 0.152
# Mean RMSD: 0.151
data_MOF--net-umo--node1-ICAMEG_clean_sbu_1--edge1-OJICUG_clean_linker_0
_symmetry_space_group_name_H-M    P1
_symmetry_Int_Tables_number       1
_symmetry_cell_setting            triclinic
loop_
_symmetry_equiv_pos_as_xyz
'x, y, z'
_cell_length_a     39.362805
_cell_length_b     39.281141
_cell_length_c     29.444413
_cell_angle_alpha  90.016229
_cell_angle_beta   89.971971
_cell_angle_gamma 120.03641
loop_
_atom_site_label
_atom_site_type_symbol
_atom_site_fract_x
_atom_site_fract_y
_atom_site_fract_z
_atom_type_partial_charge
Co0 Co 0.14093 0.57627 0.41666 0.0
Co1 Co 0.18693 0.5224 0.43507 0.0
O2 O 0.15099 0.53377 0.40167 0.0
C3 C 0.06326 0.50491 0.40486 0.0
O4 O 0.07629 0.48435 0.4261 0.0
C5 C 0.21725 0.53782 0.34249 0.0
O6 O 0.21211 0.56823 0.34559 0.0
O7 O 0.22907 0.57815 0.43305 0.0
O8 O 0.19714 0.61209 0.43227 0.0
H9 H 0.28685 0.54457 0.55445 0.0
H10 H 0.11598 0.53611 0.32753 0.0
O11 O 0.08472 0.54195 0.40061 0.0
H12 H 0.20836 0.67518 0.29169 0.0
H13 H 0.07869 0.65997 0.39301 0.0
H14 H 0.16553 0.63495 0.49084 0.0
H15 H 0.19078 0.65374 0.37109 0.0
H16 H 0.09286 0.60711 0.37424 0.0
O17 O 0.20698 0.51348 0.37546 0.0
H18 H 0.24104 0.55859 0.51293 0.0
H19 H 0.21023 0.46138 0.42562 0.0
H20 H 0.1524 0.6883 0.51069 0.0
H21 H 0.13247 0.55632 0.24769 0.0
H22 H 0.10869 0.70109 0.46158 0.0
H23 H 0.17951 0.62598 0.2293 0.0
O24 O 0.12948 0.55845 0.48085 0.0
H25 H 0.08175 0.39505 0.36883 0.0
H26 H 0.15083 0.46317 0.50907 0.0
H27 H 0.09777 0.3939 0.51294 0.0
H28 H 0.0629 0.35938 0.44243 0.0
H29 H 0.13468 0.46444 0.36662 0.0
H30 H 0.25568 0.44601 0.46646 0.0
H31 H 0.29412 0.4875 0.53167 0.0
O32 O 0.1691 0.53349 0.49475 0.0
C33 C 0.22847 0.61021 0.43482 0.0
C34 C 0.27 0.52591 0.52649 0.0
C35 C 0.25256 0.47072 0.47697 0.0
N36 N 0.22258 0.51049 0.46736 0.0
C37 C 0.24392 0.53371 0.50288 0.0
C38 C 0.22689 0.47955 0.45398 0.0
C39 C 0.27416 0.49405 0.51354 0.0
C40 C 0.13583 0.56672 0.31985 0.0
N41 N 0.15231 0.59372 0.35401 0.0
C42 C 0.14526 0.57793 0.27454 0.0
C43 C 0.17167 0.61711 0.26427 0.0
C44 C 0.18796 0.64461 0.29922 0.0
C45 C 0.17792 0.6323 0.34416 0.0
C46 C 0.09783 0.65472 0.41463 0.0
C47 C 0.14664 0.64048 0.46918 0.0
C48 C 0.10589 0.62478 0.40423 0.0
N49 N 0.1302 0.61813 0.43126 0.0
C50 C 0.13924 0.67066 0.48065 0.0
C51 C 0.11469 0.67779 0.4531 0.0
C52 C 0.14631 0.54611 0.50783 0.0
C53 C 0.09681 0.40974 0.39976 0.0
C54 C 0.13562 0.44838 0.4783 0.0
C55 C 0.10571 0.40913 0.48067 0.0
C56 C 0.08619 0.38976 0.44108 0.0
N57 N 0.14585 0.46774 0.43764 0.0
C58 C 0.12693 0.44895 0.39867 0.0
Co59 Co 0.65839 0.19055 0.6025 0.0
Co60 Co 0.55972 0.14433 0.579 0.0
O61 O 0.61259 0.15381 0.56709 0.0
C62 C 0.68025 0.21489 0.50757 0.0
O63 O 0.64492 0.21003 0.50354 0.0
C64 C 0.55224 0.06599 0.56794 0.0
O65 O 0.58492 0.07829 0.59082 0.0
O66 O 0.56343 0.13203 0.64372 0.0
O67 O 0.62634 0.17577 0.66021 0.0
H68 H 0.45706 0.15698 0.6667 0.0
H69 H 0.66649 0.1346 0.5422 0.0
O70 O 0.69115 0.20758 0.54539 0.0
H71 H 0.69018 0.10337 0.69706 0.0
H72 H 0.80088 0.25715 0.64616 0.0
H73 H 0.67339 0.24834 0.67582 0.0
H74 H 0.67585 0.15695 0.68408 0.0
H75 H 0.74225 0.21175 0.60197 0.0
O76 O 0.53753 0.08806 0.56255 0.0
H77 H 0.52376 0.16927 0.65059 0.0
H78 H 0.48227 0.09725 0.53294 0.0
H79 H 0.73121 0.29416 0.72078 0.0
H80 H 0.68129 0.08113 0.55354 0.0
H81 H 0.79552 0.29821 0.70648 0.0
H82 H 0.69309 0.06512 0.63147 0.0
O83 O 0.64618 0.23303 0.59247 0.0
H84 H 0.57485 0.13582 0.41049 0.0
H85 H 0.53503 0.19555 0.5314 0.0
H86 H 0.53295 0.21318 0.45168 0.0
H87 H 0.5533 0.18344 0.39044 0.0
H88 H 0.57695 0.11938 0.49082 0.0
H89 H 0.41505 0.08393 0.54799 0.0
H90 H 0.40214 0.11404 0.61519 0.0
O91 O 0.58037 0.20072 0.59481 0.0
C92 C 0.59099 0.15142 0.67203 0.0
C93 C 0.46233 0.14377 0.63725 0.0
C94 C 0.43875 0.10274 0.57065 0.0
N95 N 0.50695 0.1342 0.59072 0.0
C96 C 0.50005 0.15069 0.62789 0.0
C97 C 0.47685 0.1103 0.56237 0.0
C98 C 0.43152 0.11965 0.60835 0.0
C99 C 0.67207 0.1281 0.57613 0.0
N100 N 0.67037 0.14888 0.61241 0.0
C101 C 0.68022 0.09766 0.58238 0.0
C102 C 0.68675 0.08864 0.62612 0.0
C103 C 0.68506 0.11005 0.66294 0.0
C104 C 0.67676 0.14024 0.65541 0.0
C105 C 0.77301 0.25537 0.65294 0.0
C106 C 0.70123 0.25005 0.66941 0.0
C107 C 0.73973 0.22978 0.62801 0.0
N108 N 0.70435 0.22703 0.6368 0.0
C109 C 0.73392 0.27609 0.69492 0.0
C110 C 0.76997 0.2785 0.68676 0.0
C111 C 0.61354 0.23235 0.59429 0.0
C112 C 0.56594 0.14897 0.43682 0.0
C113 C 0.54395 0.1825 0.50507 0.0
C114 C 0.5426 0.19252 0.45989 0.0
C115 C 0.55387 0.17573 0.4256 0.0
N116 N 0.55614 0.15648 0.51587 0.0
C117 C 0.56683 0.13958 0.48238 0.0
Co118 Co 0.46047 0.65952 0.76831 0.0
Co119 Co 0.40953 0.56041 0.7462 0.0
O120 O 0.45223 0.61378 0.73309 0.0
C121 C 0.47612 0.6852 0.66975 0.0
O122 O 0.47131 0.65097 0.65768 0.0
C123 C 0.48067 0.55428 0.73224 0.0
O124 O 0.50101 0.58687 0.75545 0.0
O125 O 0.42786 0.56505 0.80985 0.0
O126 O 0.44327 0.62706 0.82589 0.0
H127 H 0.29805 0.45699 0.83824 0.0
H128 H 0.52716 0.66783 0.71083 0.0
O129 O 0.47537 0.6934 0.71164 0.0
H130 H 0.57789 0.69601 0.86734 0.0
H131 H 0.53163 0.80239 0.81253 0.0
H132 H 0.41553 0.67225 0.84088 0.0
H133 H 0.50999 0.67961 0.85103 0.0
H134 H 0.52135 0.74434 0.769 0.0
O135 O 0.44378 0.53904 0.72768 0.0
H136 H 0.35109 0.52411 0.8203 0.0
H137 H 0.37886 0.48254 0.70068 0.0
H138 H 0.42465 0.72952 0.88526 0.0
H139 H 0.59527 0.68473 0.72545 0.0
H140 H 0.4834 0.79515 0.87138 0.0
H141 H 0.62115 0.69885 0.80426 0.0
O142 O 0.40578 0.64584 0.75681 0.0
H143 H 0.42589 0.56991 0.57641 0.0
H144 H 0.33192 0.53472 0.70271 0.0
H145 H 0.30867 0.52931 0.62415 0.0
H146 H 0.35597 0.54743 0.56011 0.0
H147 H 0.44788 0.57487 0.65567 0.0
H148 H 0.3263 0.4149 0.71753 0.0
H149 H 0.28536 0.4018 0.78665 0.0
O150 O 0.37358 0.58027 0.7644 0.0
C151 C 0.43435 0.59226 0.83798 0.0
C152 C 0.31562 0.46233 0.80796 0.0
C153 C 0.33151 0.4387 0.74024 0.0
N154 N 0.36791 0.5073 0.75935 0.0
C155 C 0.34565 0.5003 0.79757 0.0
C156 C 0.3613 0.47705 0.73094 0.0
C157 C 0.30854 0.43138 0.77902 0.0
C158 C 0.53813 0.67456 0.74501 0.0
N159 N 0.51448 0.67307 0.77983 0.0
C160 C 0.57679 0.68383 0.7532 0.0
C161 C 0.59127 0.69165 0.79742 0.0
C162 C 0.567 0.69001 0.83282 0.0
C163 C 0.52849 0.68056 0.82335 0.0
C164 C 0.5061 0.77394 0.81904 0.0
C165 C 0.44113 0.70068 0.83479 0.0
C166 C 0.5001 0.74098 0.79447 0.0
N167 N 0.46813 0.70488 0.80282 0.0
C168 C 0.44611 0.73302 0.85994 0.0
C169 C 0.47895 0.76983 0.85206 0.0
C170 C 0.37433 0.61303 0.76166 0.0
C171 C 0.40508 0.56223 0.60395 0.0
C172 C 0.35274 0.54296 0.67522 0.0
C173 C 0.33935 0.53964 0.63067 0.0
C174 C 0.36581 0.54959 0.59484 0.0
N175 N 0.3914 0.55574 0.68395 0.0
C176 C 0.41736 0.56496 0.64895 0.0
Co177 Co 0.84139 0.41018 0.9156 0.0
Co178 Co 0.79619 0.46472 0.93466 0.0
O179 O 0.83184 0.45309 0.901 0.0
C180 C 0.9193 0.48118 0.90399 0.0
O181 O 0.90655 0.5018 0.92565 0.0
C182 C 0.766 0.45016 0.84204 0.0
O183 O 0.77068 0.41944 0.84478 0.0
O184 O 0.75374 0.40915 0.93219 0.0
O185 O 0.78509 0.37466 0.93121 0.0
H186 H 0.69546 0.44198 0.0533 0.0
H187 H 0.86655 0.45064 0.82663 0.0
O188 O 0.89764 0.44419 0.89951 0.0
H189 H 0.77354 0.31185 0.79028 0.0
H190 H 0.90249 0.32557 0.89094 0.0
H191 H 0.81631 0.35112 0.98941 0.0
H192 H 0.79108 0.333 0.86972 0.0
H193 H 0.88895 0.37892 0.8727 0.0
O194 O 0.77647 0.4743 0.87523 0.0
H195 H 0.74151 0.42812 1.01199 0.0
H196 H 0.77384 0.5265 0.92614 0.0
H197 H 0.82883 0.29727 1.00872 0.0
H198 H 0.85006 0.43071 0.74671 0.0
H199 H 0.87219 0.28421 0.95928 0.0
H200 H 0.80274 0.36119 0.72805 0.0
O201 O 0.85297 0.42773 0.97986 0.0
H202 H 0.90231 0.59204 0.8694 0.0
H203 H 0.83254 0.52341 1.00915 0.0
H204 H 0.88605 0.59245 1.01357 0.0
H205 H 0.92127 0.62723 0.9433 0.0
H206 H 0.84893 0.52287 0.86665 0.0
H207 H 0.72834 0.54186 0.96696 0.0
H208 H 0.68899 0.49967 0.03129 0.0
O209 O 0.81371 0.45303 0.99419 0.0
C210 C 0.75396 0.37691 0.93378 0.0
C211 C 0.71276 0.46098 0.02577 0.0
C212 C 0.73114 0.5169 0.97715 0.0
N213 N 0.76075 0.47683 0.96718 0.0
C214 C 0.73896 0.45326 1.00227 0.0
C215 C 0.75686 0.5081 0.9542 0.0
C216 C 0.70903 0.49318 1.01324 0.0
C217 C 0.84654 0.42009 0.81883 0.0
N218 N 0.82988 0.39301 0.85288 0.0
C219 C 0.83712 0.40904 0.77348 0.0
C220 C 0.81055 0.36995 0.76305 0.0
C221 C 0.79406 0.34236 0.7979 0.0
C222 C 0.80408 0.35451 0.84288 0.0
C223 C 0.8835 0.33093 0.9127 0.0
C224 C 0.83506 0.34549 0.96761 0.0
C225 C 0.87579 0.36116 0.90261 0.0
N226 N 0.85166 0.36795 0.92981 0.0
C227 C 0.84211 0.31502 0.97877 0.0
C228 C 0.86647 0.30773 0.95104 0.0
C229 C 0.83631 0.44013 1.00704 0.0
C230 C 0.8871 0.57724 0.90022 0.0
C231 C 0.8479 0.53831 0.97849 0.0
C232 C 0.87806 0.57743 0.98117 0.0
C233 C 0.89778 0.59694 0.94172 0.0
N234 N 0.83761 0.51922 0.93767 0.0
C235 C 0.85672 0.53815 0.89883 0.0
Co236 Co 0.32246 0.79759 0.10303 0.0
Co237 Co 0.42146 0.84559 0.08025 0.0
O238 O 0.36827 0.8352 0.06811 0.0
C239 C 0.3021 0.77415 1.00767 0.0
O240 O 0.33825 0.78135 1.00351 0.0
C241 C 0.42747 0.92342 0.06911 0.0
O242 O 0.39422 0.91049 0.091 0.0
O243 O 0.41704 0.85711 0.14509 0.0
O244 O 0.3541 0.81292 0.16102 0.0
H245 H 0.52483 0.83445 0.16817 0.0
H246 H 0.31319 0.85258 0.04239 0.0
O247 O 0.29006 0.77976 0.04568 0.0
H248 H 0.28743 0.8828 0.19685 0.0
H249 H 0.17962 0.72835 0.14565 0.0
H250 H 0.3082 0.74003 0.17637 0.0
H251 H 0.3034 0.83028 0.18429 0.0
H252 H 0.2381 0.77456 0.10176 0.0
O253 O 0.44289 0.9019 0.06449 0.0
H254 H 0.45782 0.8211 0.15175 0.0
H255 H 0.49902 0.89405 0.0348 0.0
H256 H 0.25052 0.69345 0.2211 0.0
H257 H 0.29677 0.90498 0.05331 0.0
H258 H 0.18567 0.68796 0.20626 0.0
H259 H 0.28392 0.92047 0.13104 0.0
O260 O 0.33589 0.75599 0.0932 0.0
H261 H 0.40788 0.85597 0.91177 0.0
H262 H 0.44727 0.79544 0.03209 0.0
H263 H 0.45014 0.77875 0.95214 0.0
H264 H 0.43005 0.80894 0.89121 0.0
H265 H 0.40476 0.87129 0.99226 0.0
H266 H 0.56653 0.90843 0.05018 0.0
H267 H 0.57975 0.87841 0.11717 0.0
O268 O 0.40169 0.78923 0.0954 0.0
C269 C 0.3893 0.83747 0.17313 0.0
C270 C 0.51943 0.84763 0.13881 0.0
C271 C 0.54284 0.88919 0.07261 0.0
N272 N 0.47447 0.85658 0.09221 0.0
C273 C 0.48153 0.84012 0.12928 0.0
C274 C 0.50456 0.88102 0.06415 0.0
C275 C 0.55023 0.87232 0.1102 0.0
C276 C 0.30716 0.85886 0.07623 0.0
N277 N 0.30918 0.83839 0.11263 0.0
C278 C 0.29809 0.88869 0.08224 0.0
C279 C 0.29097 0.89743 0.12587 0.0
C280 C 0.293 0.87634 0.16282 0.0
C281 C 0.30223 0.84676 0.15553 0.0
C282 C 0.20772 0.73075 0.15267 0.0
C283 C 0.28011 0.7377 0.16973 0.0
C284 C 0.24092 0.75681 0.1279 0.0
N285 N 0.2766 0.76037 0.13699 0.0
C286 C 0.24751 0.71122 0.19511 0.0
C287 C 0.21116 0.708 0.18664 0.0
C288 C 0.36881 0.75729 0.09488 0.0
C289 C 0.41669 0.84264 0.93796 0.0
C290 C 0.43841 0.80863 1.00589 0.0
C291 C 0.44024 0.79918 0.96059 0.0
C292 C 0.42912 0.81621 0.92646 0.0
N293 N 0.42579 0.83428 0.01697 0.0
C294 C 0.41527 0.85143 0.98364 0.0
Co295 Co 0.52397 0.33194 0.26803 0.0
Co296 Co 0.57595 0.43094 0.2446 0.0
O297 O 0.53276 0.37772 0.23251 0.0
C298 C 0.52572 0.31037 0.17277 0.0
O299 O 0.55511 0.34633 0.16799 0.0
C300 C 0.5048 0.43756 0.23327 0.0
O301 O 0.48463 0.4049 0.25641 0.0
O302 O 0.55951 0.42695 0.30907 0.0
O303 O 0.54104 0.36414 0.32565 0.0
H304 H 0.69035 0.53422 0.3331 0.0
H305 H 0.45978 0.32319 0.20783 0.0
O306 O 0.5085 0.29891 0.21108 0.0
H307 H 0.40479 0.29864 0.36272 0.0
H308 H 0.45027 0.18886 0.31128 0.0
H309 H 0.56737 0.31788 0.3412 0.0
H310 H 0.47286 0.31377 0.34965 0.0
H311 H 0.46193 0.24749 0.26797 0.0
O312 O 0.54159 0.45263 0.2279 0.0
H313 H 0.63648 0.46718 0.31647 0.0
H314 H 0.60583 0.50872 0.19906 0.0
H315 H 0.55694 0.26004 0.38522 0.0
H316 H 0.39137 0.30763 0.21926 0.0
H317 H 0.49769 0.19494 0.3706 0.0
H318 H 0.36352 0.29538 0.2972 0.0
O319 O 0.57862 0.34475 0.2579 0.0
H320 H 0.55398 0.41812 0.07573 0.0
H321 H 0.65227 0.45706 0.19777 0.0
H322 H 0.67314 0.46203 0.1182 0.0
H323 H 0.6237 0.44201 0.0563 0.0
H324 H 0.53438 0.41369 0.156 0.0
H325 H 0.65916 0.57627 0.21466 0.0
H326 H 0.70197 0.58933 0.28199 0.0
O327 O 0.61198 0.41068 0.26072 0.0
C328 C 0.55162 0.39946 0.33737 0.0
C329 C 0.67197 0.52888 0.30359 0.0
C330 C 0.65443 0.55249 0.23715 0.0
N331 N 0.6182 0.48398 0.25668 0.0
C332 C 0.64148 0.49097 0.29393 0.0
C333 C 0.6242 0.51419 0.22856 0.0
C334 C 0.67845 0.5598 0.27492 0.0
C335 C 0.44769 0.31743 0.24176 0.0
N336 N 0.47022 0.31931 0.278 0.0
C337 C 0.40902 0.30884 0.24806 0.0
C338 C 0.39344 0.30206 0.29182 0.0
C339 C 0.4166 0.30394 0.3286 0.0
C340 C 0.45517 0.31269 0.32101 0.0
C341 C 0.476 0.21708 0.31814 0.0
C342 C 0.54154 0.2897 0.33476 0.0
C343 C 0.48277 0.25036 0.29372 0.0
N344 N 0.51504 0.28614 0.30247 0.0
C345 C 0.53581 0.25702 0.35973 0.0
C346 C 0.50269 0.22052 0.35142 0.0
C347 C 0.61048 0.37748 0.26035 0.0
C348 C 0.57576 0.42681 0.10231 0.0
C349 C 0.63058 0.44825 0.17119 0.0
C350 C 0.64258 0.45119 0.12607 0.0
C351 C 0.6149 0.44019 0.09144 0.0
N352 N 0.59213 0.43503 0.18162 0.0
C353 C 0.56487 0.42456 0.14784 0.0
Co354 Co 0.46195 0.79832 0.42983 0.0
Co355 Co 0.40951 0.84463 0.4534 0.0
O356 O 0.4529 0.83511 0.46522 0.0
C357 C 0.45951 0.77406 0.52479 0.0
O358 O 0.42906 0.77896 0.52888 0.0
C359 C 0.48038 0.92292 0.46397 0.0
O360 O 0.5006 0.91052 0.44089 0.0
O361 O 0.42539 0.85677 0.38861 0.0
O362 O 0.4447 0.81308 0.37213 0.0
H363 H 0.29406 0.83185 0.36608 0.0
H364 H 0.52595 0.85431 0.49007 0.0
O365 O 0.47768 0.78131 0.48694 0.0
H366 H 0.58087 0.88542 0.33517 0.0
H367 H 0.53789 0.7317 0.38612 0.0
H368 H 0.41922 0.74053 0.35653 0.0
H369 H 0.513 0.83184 0.34822 0.0
H370 H 0.52458 0.77706 0.43036 0.0
O371 O 0.44365 0.90093 0.46965 0.0
H372 H 0.34848 0.81954 0.38205 0.0
H373 H 0.37931 0.89193 0.49942 0.0
H374 H 0.43133 0.69476 0.31147 0.0
H375 H 0.59416 0.90778 0.47867 0.0
H376 H 0.49158 0.6907 0.32575 0.0
H377 H 0.62197 0.92373 0.40072 0.0
O378 O 0.40728 0.75588 0.43991 0.0
H379 H 0.43345 0.85357 0.62183 0.0
H380 H 0.33374 0.79361 0.50128 0.0
H381 H 0.31417 0.77623 0.58108 0.0
H382 H 0.36434 0.80609 0.64215 0.0
H383 H 0.45185 0.86976 0.54143 0.0
H384 H 0.32541 0.90528 0.4845 0.0
H385 H 0.28223 0.87499 0.41752 0.0
O386 O 0.37377 0.78821 0.4378 0.0
C387 C 0.43363 0.8374 0.36032 0.0
C388 C 0.3126 0.84513 0.39544 0.0
C389 C 0.33023 0.88639 0.46187 0.0
N390 N 0.36689 0.8548 0.44177 0.0
C391 C 0.34342 0.83821 0.40471 0.0
C392 C 0.36077 0.8788 0.47008 0.0
C393 C 0.30601 0.86937 0.42429 0.0
C394 C 0.53802 0.86078 0.45613 0.0
N395 N 0.51557 0.83997 0.41988 0.0
C396 C 0.57658 0.89122 0.44985 0.0
C397 C 0.59214 0.90021 0.40609 0.0
C398 C 0.56907 0.87876 0.36929 0.0
C399 C 0.5306 0.84858 0.37686 0.0
C400 C 0.5118 0.73347 0.37935 0.0
C401 C 0.44536 0.73881 0.36293 0.0
C402 C 0.50408 0.75905 0.40432 0.0
N403 N 0.47144 0.76181 0.39555 0.0
C404 C 0.45205 0.7128 0.33736 0.0
C405 C 0.48568 0.71038 0.3455 0.0
C406 C 0.37533 0.75657 0.43825 0.0
C407 C 0.41136 0.84036 0.59559 0.0
C408 C 0.35574 0.8067 0.52753 0.0
C409 C 0.34446 0.79683 0.57276 0.0
C410 C 0.37255 0.81368 0.60696 0.0
N411 N 0.39392 0.83265 0.51659 0.0
C412 C 0.42155 0.84961 0.54998 0.0
Co413 Co 0.55923 0.41264 0.61585 0.0
Co414 Co 0.65907 0.46652 0.59738 0.0
O415 O 0.61175 0.45518 0.63077 0.0
C416 C 0.55285 0.48402 0.62736 0.0
O417 O 0.58645 0.50455 0.60617 0.0
C418 C 0.67388 0.45111 0.68999 0.0
O419 O 0.63833 0.42073 0.68688 0.0
O420 O 0.6455 0.41076 0.5994 0.0
O421 O 0.57967 0.3768 0.60042 0.0
H422 H 0.73694 0.4444 0.47796 0.0
H423 H 0.57437 0.45302 0.70485 0.0
O424 O 0.5373 0.447 0.63172 0.0
H425 H 0.52772 0.31401 0.74113 0.0
H426 H 0.41338 0.32898 0.63962 0.0
H427 H 0.52525 0.35377 0.54186 0.0
H428 H 0.53165 0.33528 0.66167 0.0
H429 H 0.48033 0.38191 0.65825 0.0
O430 O 0.68798 0.47543 0.657 0.0
H431 H 0.67708 0.43034 0.51951 0.0
H432 H 0.74333 0.52751 0.60687 0.0
H433 H 0.45884 0.30034 0.52216 0.0
H434 H 0.5706 0.43297 0.78477 0.0
H435 H 0.40234 0.28765 0.57123 0.0
H436 H 0.548 0.36334 0.80338 0.0
O437 O 0.56562 0.43032 0.55161 0.0
H438 H 0.68106 0.59387 0.66363 0.0
H439 H 0.68223 0.52577 0.52339 0.0
H440 H 0.69837 0.59503 0.51952 0.0
H441 H 0.69792 0.62955 0.59003 0.0
H442 H 0.66467 0.52448 0.66583 0.0
H443 H 0.80416 0.54291 0.56601 0.0
H444 H 0.80119 0.50145 0.50076 0.0
O445 O 0.63021 0.45545 0.5377 0.0
C446 C 0.61288 0.3787 0.59777 0.0
C447 C 0.7387 0.46304 0.50594 0.0
C448 C 0.77637 0.51821 0.55549 0.0
N449 N 0.70665 0.47843 0.5651 0.0
C450 C 0.70481 0.45522 0.52957 0.0
C451 C 0.74186 0.50936 0.57849 0.0
C452 C 0.77468 0.4949 0.5189 0.0
C453 C 0.56363 0.42242 0.71263 0.0
N454 N 0.55316 0.39535 0.67856 0.0
C455 C 0.56181 0.4113 0.75798 0.0
C456 C 0.54906 0.37215 0.76838 0.0
C457 C 0.53789 0.34457 0.73351 0.0
C458 C 0.54019 0.35678 0.68853 0.0
C459 C 0.43777 0.33417 0.61801 0.0
C460 C 0.50084 0.3483 0.5635 0.0
C461 C 0.47573 0.36416 0.62833 0.0
N462 N 0.50669 0.37075 0.60133 0.0
C463 C 0.46329 0.31806 0.55212 0.0
C464 C 0.4316 0.31099 0.57964 0.0
C465 C 0.59481 0.44275 0.52464 0.0
C466 C 0.68148 0.57919 0.6327 0.0
C467 C 0.68177 0.54055 0.55416 0.0
C468 C 0.69106 0.5798 0.55179 0.0
C469 C 0.69086 0.59916 0.59138 0.0
N470 N 0.67262 0.52119 0.59481 0.0
C471 C 0.67243 0.53998 0.63378 0.0
Co472 Co 0.18642 0.6572 0.76436 0.0
Co473 Co 0.13953 0.55822 0.78788 0.0
O474 O 0.1495 0.61143 0.79995 0.0
C475 C 0.20985 0.67883 0.85956 0.0
O476 O 0.20331 0.64288 0.86434 0.0
C477 C 0.06177 0.55157 0.79937 0.0
O478 O 0.0742 0.58424 0.77627 0.0
O479 O 0.12703 0.56216 0.72343 0.0
O480 O 0.17125 0.62496 0.70676 0.0
H481 H 0.15073 0.45488 0.69936 0.0
H482 H 0.13105 0.66599 0.82472 0.0
O483 O 0.20402 0.69027 0.82128 0.0
H484 H 0.10038 0.69041 0.66992 0.0
H485 H 0.25561 0.80026 0.72103 0.0
H486 H 0.24382 0.67123 0.69107 0.0
H487 H 0.15336 0.6753 0.68284 0.0
H488 H 0.20872 0.74163 0.76439 0.0
O489 O 0.08353 0.53652 0.80468 0.0
H490 H 0.16381 0.52193 0.71595 0.0
H491 H 0.09177 0.48047 0.83352 0.0
H492 H 0.29116 0.72905 0.647 0.0
H493 H 0.07816 0.68154 0.81345 0.0
H494 H 0.29696 0.79417 0.66166 0.0
H495 H 0.06245 0.69371 0.73555 0.0
O496 O 0.22829 0.6444 0.77436 0.0
H497 H 0.13052 0.57117 0.95676 0.0
H498 H 0.18981 0.53214 0.8346 0.0
H499 H 0.20579 0.52725 0.91413 0.0
H500 H 0.17639 0.5473 0.9761 0.0
H501 H 0.11526 0.57552 0.87653 0.0
H502 H 0.07764 0.41292 0.81796 0.0
H503 H 0.10735 0.39981 0.75057 0.0
O504 O 0.19578 0.57847 0.77164 0.0
C505 C 0.14656 0.58963 0.69509 0.0
C506 C 0.13769 0.46024 0.7289 0.0
C507 C 0.09663 0.43668 0.79543 0.0
N508 N 0.12879 0.50517 0.77582 0.0
C509 C 0.14507 0.49816 0.73854 0.0
C510 C 0.10465 0.47498 0.80399 0.0
C511 C 0.11332 0.42935 0.75762 0.0
C512 C 0.12466 0.67172 0.79081 0.0
N513 N 0.14527 0.66982 0.7545 0.0
C514 C 0.09456 0.6803 0.78459 0.0
C515 C 0.0857 0.68705 0.74087 0.0
C516 C 0.10694 0.68514 0.70402 0.0
C517 C 0.13678 0.6764 0.71152 0.0
C518 C 0.25316 0.77204 0.71416 0.0
C519 C 0.24613 0.69941 0.69751 0.0
C520 C 0.22668 0.73876 0.7386 0.0
N521 N 0.22321 0.70298 0.72984 0.0
C522 C 0.27305 0.73208 0.67252 0.0
C523 C 0.2764 0.76858 0.68085 0.0
C524 C 0.22745 0.61167 0.77194 0.0
C525 C 0.14359 0.56246 0.93016 0.0
C526 C 0.17693 0.54097 0.86121 0.0
C527 C 0.18604 0.53807 0.90631 0.0
C528 C 0.16938 0.5491 0.94097 0.0
N529 N 0.15168 0.55417 0.85083 0.0
C530 C 0.13491 0.56467 0.88464 0.0
Co531 Co 0.5194 0.19149 0.92918 0.0
Co532 Co 0.57037 0.14345 0.952 0.0
O533 O 0.52761 0.15391 0.96418 0.0
C534 C 0.52251 0.21507 0.02449 0.0
O535 O 0.55149 0.2079 0.0286 0.0
C536 C 0.49861 0.0657 0.96353 0.0
O537 O 0.47826 0.07857 0.9416 0.0
O538 O 0.55431 0.13174 0.88722 0.0
O539 O 0.53574 0.17608 0.87122 0.0
H540 H 0.68462 0.15417 0.86378 0.0
H541 H 0.45516 0.13662 0.98991 0.0
O542 O 0.50483 0.2094 0.98652 0.0
H543 H 0.39925 0.10624 0.8355 0.0
H544 H 0.44581 0.26075 0.88645 0.0
H545 H 0.5627 0.24898 0.8558 0.0
H546 H 0.4677 0.15872 0.84798 0.0
H547 H 0.45807 0.21454 0.9304 0.0
O548 O 0.53554 0.0872 0.96801 0.0
H549 H 0.63104 0.16765 0.88029 0.0
H550 H 0.59957 0.09511 0.99756 0.0
H551 H 0.55165 0.29559 0.81105 0.0
H552 H 0.38637 0.08426 0.97907 0.0
H553 H 0.49227 0.30111 0.82585 0.0
H554 H 0.35806 0.06868 0.90137 0.0
O555 O 0.57441 0.23307 0.93895 0.0
H556 H 0.54675 0.13367 0.12056 0.0
H557 H 0.64639 0.19371 0.99985 0.0
H558 H 0.66609 0.21068 0.07971 0.0
H559 H 0.61595 0.18074 0.14083 0.0
H560 H 0.52818 0.11807 0.04016 0.0
H561 H 0.65262 0.0806 0.98212 0.0
H562 H 0.69569 0.11036 0.91491 0.0
O563 O 0.60691 0.19975 0.93659 0.0
C564 C 0.5463 0.15143 0.85915 0.0
C565 C 0.66612 0.14111 0.89324 0.0
C566 C 0.64812 0.09978 0.95962 0.0
N567 N 0.61235 0.13238 0.93998 0.0
C568 C 0.63578 0.14869 0.90281 0.0
C569 C 0.61806 0.10802 0.96812 0.0
C570 C 0.67229 0.1165 0.92192 0.0
C571 C 0.44287 0.13031 0.95608 0.0
N572 N 0.46536 0.15071 0.91965 0.0
C573 C 0.40399 0.10049 0.95012 0.0
C574 C 0.38815 0.09171 0.9065 0.0
C575 C 0.41126 0.11273 0.86951 0.0
C576 C 0.45005 0.14229 0.87676 0.0
C577 C 0.47152 0.25833 0.87946 0.0
C578 C 0.53695 0.25134 0.86243 0.0
C579 C 0.47864 0.23227 0.90425 0.0
N580 N 0.51077 0.22869 0.89517 0.0
C581 C 0.53085 0.27783 0.83704 0.0
C582 C 0.49772 0.28107 0.84548 0.0
C583 C 0.606 0.23173 0.93715 0.0
C584 C 0.56883 0.14689 0.09428 0.0
C585 C 0.6244 0.18062 0.02613 0.0
C586 C 0.63577 0.19023 0.07139 0.0
C587 C 0.60769 0.17334 0.10562 0.0
N588 N 0.58614 0.15496 1.01521 0.0
C589 C 0.55854 0.13793 0.04866 0.0
Co590 Co 0.42557 0.57862 0.11646 0.0
Co591 Co 0.32587 0.52419 0.09762 0.0
O592 O 0.37315 0.53578 0.1312 0.0
C593 C 0.43249 0.50759 0.12842 0.0
O594 O 0.39909 0.48689 0.10691 0.0
C595 C 0.31033 0.53886 0.19027 0.0
O596 O 0.34571 0.56955 0.18743 0.0
O597 O 0.339 0.57977 0.10006 0.0
O598 O 0.40482 0.61416 0.10072 0.0
H599 H 0.24789 0.54701 0.97915 0.0
H600 H 0.41034 0.53837 0.20555 0.0
O601 O 0.44781 0.5446 0.13267 0.0
H602 H 0.45599 0.67724 0.24148 0.0
H603 H 0.57124 0.66316 0.14079 0.0
H604 H 0.4595 0.63744 0.04241 0.0
H605 H 0.45245 0.65592 0.1621 0.0
H606 H 0.50437 0.60993 0.15926 0.0
O607 O 0.29663 0.51469 0.15712 0.0
H608 H 0.30779 0.56077 0.02031 0.0
H609 H 0.24176 0.46251 0.10632 0.0
H610 H 0.52583 0.69114 0.02286 0.0
H611 H 0.41373 0.55847 0.2854 0.0
H612 H 0.58227 0.70429 0.07225 0.0
H613 H 0.43585 0.62802 0.30385 0.0
O614 O 0.41955 0.56089 0.05226 0.0
H615 H 0.30457 0.39682 0.16295 0.0
H616 H 0.30347 0.46543 0.02318 0.0
H617 H 0.28787 0.39635 0.0188 0.0
H618 H 0.28828 0.36157 0.08907 0.0
H619 H 0.32044 0.46604 0.16565 0.0
H620 H 0.18092 0.44725 0.06564 0.0
H621 H 0.18374 0.48942 1.00131 0.0
O622 O 0.35503 0.5358 0.03805 0.0
C623 C 0.37147 0.61197 0.09828 0.0
C624 C 0.24619 0.52801 1.00668 0.0
C625 C 0.20866 0.47215 0.05538 0.0
N626 N 0.27834 0.51212 0.06519 0.0
C627 C 0.2801 0.53568 0.0301 0.0
C628 C 0.24318 0.48091 0.07825 0.0
C629 C 0.21027 0.49587 0.01929 0.0
C630 C 0.42086 0.56894 0.21326 0.0
N631 N 0.43127 0.59595 0.17912 0.0
C632 C 0.42246 0.58009 0.25856 0.0
C633 C 0.43494 0.6192 0.26887 0.0
C634 C 0.44603 0.64671 0.23395 0.0
C635 C 0.44395 0.63447 0.189 0.0
C636 C 0.54688 0.65776 0.11905 0.0
C637 C 0.48388 0.64311 0.06419 0.0
C638 C 0.50897 0.62761 0.12928 0.0
N639 N 0.47804 0.62077 0.10209 0.0
C640 C 0.52139 0.6735 0.05289 0.0
C641 C 0.55304 0.68084 0.0806 0.0
C642 C 0.3905 0.54858 0.02513 0.0
C643 C 0.30417 0.41161 0.13212 0.0
C644 C 0.30393 0.45054 0.05384 0.0
C645 C 0.29493 0.41139 0.05119 0.0
C646 C 0.29511 0.39188 0.09064 0.0
N647 N 0.31276 0.46966 0.09465 0.0
C648 C 0.31293 0.45073 0.13349 0.0
Co649 Co 0.79554 0.32942 0.26394 0.0
Co650 Co 0.84375 0.42855 0.28596 0.0
O651 O 0.83306 0.37516 0.2991 0.0
C652 C 0.78557 0.30378 0.36251 0.0
O653 O 0.81498 0.33801 0.37454 0.0
C654 C 0.921 0.43461 0.2999 0.0
O655 O 0.90874 0.40196 0.2768 0.0
O656 O 0.8574 0.42384 0.22229 0.0
O657 O 0.81076 0.36185 0.20634 0.0
H658 H 0.83573 0.53199 0.19387 0.0
H659 H 0.85391 0.32105 0.32129 0.0
O660 O 0.7766 0.29557 0.32062 0.0
H661 H 0.87628 0.29267 0.16473 0.0
H662 H 0.72373 0.18653 0.21975 0.0
H663 H 0.73788 0.31677 0.19146 0.0
H664 H 0.82487 0.30922 0.18115 0.0
H665 H 0.77153 0.24455 0.26325 0.0
O666 O 0.89936 0.44989 0.30441 0.0
H667 H 0.82161 0.46485 0.21187 0.0
H668 H 0.89096 0.50645 0.33139 0.0
H669 H 0.68973 0.25954 0.14711 0.0
H670 H 0.90503 0.30401 0.30657 0.0
H671 H 0.68279 0.19386 0.16095 0.0
H672 H 0.9167 0.28979 0.22773 0.0
O673 O 0.75458 0.34319 0.27552 0.0
H674 H 0.85066 0.41912 0.45574 0.0
H675 H 0.79188 0.45436 0.32953 0.0
H676 H 0.77408 0.45984 0.40812 0.0
H677 H 0.80326 0.44169 0.47211 0.0
H678 H 0.86765 0.4141 0.37645 0.0
H679 H 0.90607 0.5741 0.31448 0.0
H680 H 0.87825 0.5872 0.24538 0.0
O681 O 0.78796 0.40875 0.26784 0.0
C682 C 0.83666 0.39663 0.1942 0.0
C683 C 0.84795 0.52665 0.22415 0.0
C684 C 0.88747 0.55029 0.29181 0.0
N685 N 0.85524 0.48168 0.27278 0.0
C686 C 0.84 0.48867 0.23457 0.0
C687 C 0.87889 0.51193 0.30114 0.0
C688 C 0.87183 0.55761 0.25304 0.0
C689 C 0.85811 0.31428 0.2871 0.0
N690 N 0.83594 0.31578 0.25233 0.0
C691 C 0.88745 0.30492 0.27885 0.0
C692 C 0.89406 0.29706 0.23461 0.0
C693 C 0.87143 0.29872 0.19926 0.0
C694 C 0.84242 0.30825 0.20879 0.0
C695 C 0.72669 0.21501 0.21325 0.0
C696 C 0.73504 0.28832 0.19754 0.0
C697 C 0.75365 0.24795 0.23781 0.0
N698 N 0.75781 0.28408 0.22948 0.0
C699 C 0.70766 0.256 0.17241 0.0
C700 C 0.70367 0.21917 0.18027 0.0
C701 C 0.75595 0.37601 0.27064 0.0
C702 C 0.83753 0.42681 0.42822 0.0
C703 C 0.80447 0.44611 0.357 0.0
C704 C 0.79441 0.44947 0.40157 0.0
C705 C 0.81092 0.4395 0.43737 0.0
N706 N 0.83031 0.43328 0.34823 0.0
C707 C 0.84706 0.42405 0.3832 0.0
C708 C 0.30189 0.64751 0.43796 0.0
C709 C 0.26614 0.64745 0.4373 0.0
H710 H 0.36452 0.68204 0.43854 0.0
C711 C 0.26671 0.68349 0.43721 0.0
H712 H 0.30248 0.62023 0.43799 0.0
C713 C 0.30216 0.71879 0.43716 0.0
C714 C 0.33794 0.71895 0.43758 0.0
H715 H 0.23976 0.68459 0.43677 0.0
H716 H 0.30136 0.74595 0.43671 0.0
C717 C 0.33746 0.68294 0.43813 0.0
C718 C 0.64923 0.30598 0.5943 0.0
C719 C 0.61374 0.26997 0.59504 0.0
H720 H 0.67688 0.36868 0.59428 0.0
C721 C 0.57811 0.27012 0.5957 0.0
H722 H 0.67719 0.30688 0.59371 0.0
C723 C 0.57793 0.30542 0.59565 0.0
C724 C 0.61336 0.34146 0.59534 0.0
H725 H 0.55019 0.24296 0.59631 0.0
H726 H 0.54987 0.30431 0.59626 0.0
C727 C 0.64905 0.3414 0.59448 0.0
C728 C 0.30066 0.64789 0.76648 0.0
C729 C 0.26505 0.6121 0.76928 0.0
H730 H 0.3631 0.67632 0.76187 0.0
C731 C 0.26572 0.57668 0.76975 0.0
H732 H 0.30118 0.67573 0.76597 0.0
C733 C 0.30123 0.57703 0.76769 0.0
C734 C 0.33683 0.61279 0.76462 0.0
H735 H 0.23885 0.54856 0.77179 0.0
H736 H 0.30063 0.54917 0.76837 0.0
C737 C 0.33618 0.64823 0.76409 0.0
C738 C 0.68059 0.34041 0.93718 0.0
C739 C 0.71605 0.33992 0.93615 0.0
H740 H 0.61795 0.30664 0.93807 0.0
C741 C 0.71494 0.30362 0.93566 0.0
H742 H 0.68041 0.3679 0.93753 0.0
C743 C 0.6792 0.26858 0.93561 0.0
C744 C 0.64372 0.269 0.93643 0.0
H745 H 0.74166 0.3021 0.93492 0.0
H746 H 0.67954 0.24119 0.93487 0.0
C747 C 0.64476 0.30528 0.93734 0.0
C748 C 0.33399 0.68373 0.09479 0.0
C749 C 0.36923 0.71998 0.09553 0.0
H750 H 0.30699 0.62111 0.09477 0.0
C751 C 0.4051 0.72034 0.09614 0.0
H752 H 0.30585 0.68243 0.09421 0.0
C753 C 0.40577 0.68527 0.09611 0.0
C754 C 0.37058 0.649 0.09583 0.0
H755 H 0.43284 0.74771 0.09673 0.0
H756 H 0.43399 0.68673 0.09671 0.0
C757 C 0.33466 0.64857 0.09497 0.0
C758 C 0.68264 0.34086 0.2682 0.0
C759 C 0.71871 0.37629 0.26768 0.0
H760 H 0.62018 0.3134 0.2663 0.0
C761 C 0.71886 0.41207 0.2646 0.0
H762 H 0.68147 0.31277 0.27043 0.0
C763 C 0.68372 0.41245 0.26252 0.0
C764 C 0.64765 0.37704 0.26298 0.0
H765 H 0.74611 0.43991 0.26393 0.0
H766 H 0.68496 0.44057 0.26047 0.0
C767 C 0.64747 0.34123 0.2658 0.0
C768 C 0.18075 0.58839 0.62476 0.0
C769 C 0.14543 0.57846 0.64699 0.0
H770 H 0.2083 0.58443 0.56385 0.0
C771 C 0.10977 0.55563 0.62395 0.0
H772 H 0.20859 0.6054 0.64207 0.0
C773 C 0.10964 0.54423 0.57869 0.0
C774 C 0.14507 0.55388 0.55672 0.0
H775 H 0.08216 0.54729 0.64066 0.0
H776 H 0.08198 0.52788 0.56088 0.0
C777 C 0.18054 0.57578 0.58034 0.0
C778 C 0.59217 0.18587 0.7434 0.0
C779 C 0.58016 0.15034 0.72034 0.0
H780 H 0.58957 0.21379 0.80478 0.0
C781 C 0.55565 0.11469 0.74281 0.0
H782 H 0.61051 0.21377 0.72661 0.0
C783 C 0.54434 0.11469 0.78811 0.0
C784 C 0.55587 0.15036 0.81076 0.0
H785 H 0.54571 0.08693 0.72555 0.0
H786 H 0.52628 0.08693 0.80526 0.0
C787 C 0.5797 0.18589 0.78785 0.0
C788 C 0.42648 0.54778 0.95483 0.0
C789 C 0.39966 0.55632 0.97624 0.0
H790 H 0.45799 0.55176 0.89337 0.0
C791 C 0.38513 0.57713 0.95205 0.0
H792 H 0.43853 0.53228 0.97305 0.0
C793 C 0.39762 0.58981 0.90767 0.0
C794 C 0.42409 0.58102 0.88603 0.0
H795 H 0.36517 0.58492 0.96806 0.0
H796 H 0.38603 0.60598 0.88993 0.0
C797 C 0.43788 0.55923 0.90961 0.0
C798 C 0.80236 0.39925 0.12467 0.0
C799 C 0.83759 0.40784 0.14615 0.0
H800 H 0.77478 0.40426 0.06439 0.0
C801 C 0.87312 0.42938 0.12242 0.0
H802 H 0.77465 0.38328 0.14254 0.0
C803 C 0.87312 0.44078 0.07719 0.0
C804 C 0.83779 0.43244 0.05593 0.0
H805 H 0.90068 0.43669 0.13854 0.0
H806 H 0.90063 0.45608 0.05884 0.0
C807 C 0.80251 0.41188 0.08028 0.0
C808 C 0.38808 0.80297 0.24445 0.0
C809 C 0.39983 0.83851 0.22153 0.0
H810 H 0.39087 0.77506 0.30572 0.0
C811 C 0.42395 0.87417 0.2442 0.0
H812 H 0.37007 0.77508 0.22751 0.0
C813 C 0.43516 0.87415 0.28951 0.0
C814 C 0.42395 0.83848 0.312 0.0
H815 H 0.4337 0.90194 0.22704 0.0
H816 H 0.45296 0.9019 0.30679 0.0
C817 C 0.40047 0.80296 0.28893 0.0
C818 C 0.54867 0.43325 0.40863 0.0
C819 C 0.56167 0.41059 0.38546 0.0
H820 H 0.54848 0.46081 0.47182 0.0
C821 C 0.58721 0.40079 0.40755 0.0
H822 H 0.52929 0.44149 0.39203 0.0
C823 C 0.59958 0.41335 0.45197 0.0
C824 C 0.58585 0.43508 0.47574 0.0
H825 H 0.59816 0.38391 0.39012 0.0
H826 H 0.61881 0.4048 0.46835 0.0
C827 C 0.55993 0.44461 0.4539 0.0
C828 C 0.97466 0.49106 0.34087 0.0
C829 C 0.95808 0.45214 0.32547 0.0
H830 H 0.02043 0.53784 0.37859 0.0
C831 C 0.97553 0.42983 0.33782 0.0
H832 H 0.96178 0.50895 0.33208 0.0
C833 C 0.00906 0.44633 0.36533 0.0
C834 C 0.02571 0.48545 0.38024 0.0
H835 H 0.96298 0.39956 0.32686 0.0
H836 H 0.02239 0.42884 0.37402 0.0
C837 C 0.00816 0.50756 0.36775 0.0
C838 C 0.53951 0.97757 0.50211 0.0
C839 C 0.50006 0.96048 0.4887 0.0
H840 H 0.58698 0.02422 0.53918 0.0
C841 C 0.47798 0.97769 0.50269 0.0
H842 H 0.55698 0.9645 0.49226 0.0
C843 C 0.49491 0.01138 0.52938 0.0
C844 C 0.53421 0.02845 0.54315 0.0
H845 H 0.44745 0.96505 0.49303 0.0
H846 H 0.47712 0.0241 0.53922 0.0
C847 C 0.55643 0.01125 0.5295 0.0
C848 C 0.54005 0.55906 0.69443 0.0
C849 C 0.50026 0.53678 0.70662 0.0
H850 H 0.58798 0.56003 0.65838 0.0
C851 C 0.47795 0.49791 0.69105 0.0
H852 H 0.55775 0.58929 0.70553 0.0
C853 C 0.49501 0.48143 0.66418 0.0
C854 C 0.53471 0.50351 0.65187 0.0
H855 H 0.44717 0.48005 0.69971 0.0
H856 H 0.47703 0.45119 0.65322 0.0
C857 C 0.55714 0.54258 0.66693 0.0
C858 C 0.00721 0.55636 0.83721 0.0
C859 C 0.02443 0.53393 0.82443 0.0
H860 H 0.96055 0.55743 0.87383 0.0
C861 C 0.00754 0.49483 0.83926 0.0
H862 H 0.02002 0.58677 0.8267 0.0
C863 C 0.97403 0.4783 0.86613 0.0
C864 C 0.95677 0.50057 0.87919 0.0
H865 H 0.02026 0.47686 0.83011 0.0
H866 H 0.96154 0.44791 0.8766 0.0
C867 C 0.97367 0.53983 0.86472 0.0
C868 C 0.43964 0.01129 1.00243 0.0
C869 C 0.47904 0.02832 0.98872 0.0
H870 H 0.39238 0.96485 0.04003 0.0
C871 C 0.50124 0.01132 1.0029 0.0
H872 H 0.42206 0.02419 0.99245 0.0
C873 C 0.48455 0.97795 0.03009 0.0
C874 C 0.44529 0.96085 0.04406 0.0
H875 H 0.53173 0.02388 0.99306 0.0
H876 H 0.5025 0.96544 0.04006 0.0
C877 C 0.42291 0.97783 0.0302 0.0
C878 C 0.42834 0.44907 0.16792 0.0
C879 C 0.45062 0.4883 0.15332 0.0
H880 H 0.42787 0.40225 0.20608 0.0
C881 C 0.49013 0.51063 0.16631 0.0
H882 H 0.39764 0.43142 0.15886 0.0
C883 C 0.50718 0.49419 0.19323 0.0
C884 C 0.48505 0.45512 0.20818 0.0
H885 H 0.50799 0.54099 0.15574 0.0
H886 H 0.53784 0.5122 0.20232 0.0
C887 C 0.44541 0.43263 0.19548 0.0
C888 C 0.23416 0.50056 0.28515 0.0
C889 C 0.24027 0.53619 0.30376 0.0
H890 H 0.25102 0.47318 0.23311 0.0
C891 C 0.26908 0.57178 0.28469 0.0
H892 H 0.212 0.47273 0.29926 0.0
C893 C 0.29162 0.57204 0.24822 0.0
C894 C 0.28542 0.5367 0.22896 0.0
H895 H 0.27468 0.59973 0.29841 0.0
H896 H 0.3137 0.60017 0.23465 0.0
C897 C 0.25623 0.50081 0.24736 0.0
C898 C 0.72006 0.2503 0.38941 0.0
C899 C 0.75997 0.27641 0.39824 0.0
H900 H 0.66346 0.2106 0.41738 0.0
C901 C 0.77414 0.279 0.44271 0.0
H902 H 0.70822 0.24778 0.35558 0.0
C903 C 0.74862 0.25707 0.47796 0.0
C904 C 0.70829 0.23292 0.46958 0.0
H905 H 0.80477 0.29883 0.45051 0.0
H906 H 0.7601 0.26067 0.51215 0.0
C907 C 0.69441 0.22914 0.42483 0.0
C908 C 0.48942 0.71 0.58956 0.0
C909 C 0.47784 0.71257 0.63404 0.0
H910 H 0.49368 0.72833 0.52013 0.0
C911 C 0.46398 0.73865 0.64292 0.0
H912 H 0.50028 0.69019 0.58173 0.0
C913 C 0.45943 0.75979 0.60753 0.0
C914 C 0.46955 0.75603 0.56276 0.0
H915 H 0.45464 0.74114 0.67677 0.0
H916 H 0.44698 0.7783 0.61501 0.0
C917 C 0.48578 0.73191 0.55433 0.0
C918 C 0.71357 0.41696 0.78481 0.0
C919 C 0.74313 0.4523 0.80352 0.0
H920 H 0.66861 0.38923 0.73507 0.0
C921 C 0.75019 0.48818 0.78466 0.0
H922 H 0.70724 0.38885 0.79876 0.0
C923 C 0.72834 0.48839 0.74692 0.0
C924 C 0.69844 0.45276 0.7288 0.0
H925 H 0.77295 0.51581 0.7985 0.0
H926 H 0.73433 0.5162 0.73242 0.0
C927 C 0.69126 0.41719 0.74838 0.0
C928 C 0.23895 0.71924 0.9783 0.0
C929 C 0.27451 0.75402 0.97008 0.0
H930 H 0.19074 0.6675 0.94908 0.0
C931 C 0.28611 0.76614 0.92507 0.0
H932 H 0.22974 0.70907 1.01274 0.0
C933 C 0.26315 0.74313 0.88875 0.0
C934 C 0.22909 0.70693 0.89701 0.0
H935 H 0.31365 0.79271 0.91802 0.0
H936 H 0.27346 0.75227 0.85433 0.0
C937 C 0.21679 0.69549 0.942 0.0
C938 C 0.51611 0.29387 0.09028 0.0
C939 C 0.51682 0.2823 0.13526 0.0
H940 H 0.51557 0.28038 0.01952 0.0
C941 C 0.51448 0.24599 0.14344 0.0
H942 H 0.51821 0.32194 0.08326 0.0
C943 C 0.51437 0.22297 0.10708 0.0
C944 C 0.51505 0.23521 0.06209 0.0
H945 H 0.51551 0.23675 0.17784 0.0
H946 H 0.51518 0.1963 0.11407 0.0
C947 C 0.51447 0.27011 0.05394 0.0
loop_
_geom_bond_atom_site_label_1
_geom_bond_atom_site_label_2
_geom_bond_distance
_geom_bond_site_symmetry_2
_ccdc_geom_bond_type
Co0 O2 2.143 . S
Co0 O8 2.074 . S
Co0 O11 2.093 . S
Co0 O24 2.097 . S
Co0 N41 2.151 . S
Co0 N49 2.214 . S
Co1 O2 2.160 . S
Co1 O7 2.058 . S
Co1 O17 2.057 . S
Co1 O32 2.037 . S
Co1 N36 2.145 . S
Co1 N57 2.257 . S
O2 Co0 2.143 . S
O2 Co1 2.160 . S
C3 O4 1.278 . S
C3 O11 1.224 . S
O4 C3 1.278 . S
C5 O6 1.245 . S
C5 O17 1.232 . S
O6 C5 1.245 . S
O7 Co1 2.058 . S
O7 C33 1.269 . S
O8 Co0 2.074 . S
O8 C33 1.257 . S
H9 C34 0.930 . S
H10 C40 0.930 . S
O11 Co0 2.093 . S
O11 C3 1.224 . S
H12 C44 0.929 . S
H13 C46 0.930 . S
H14 C47 0.930 . S
H15 C45 0.929 . S
H16 C48 0.928 . S
O17 Co1 2.057 . S
O17 C5 1.232 . S
H18 C37 0.929 . S
H19 C38 0.929 . S
H20 C50 0.931 . S
H21 C42 0.929 . S
H22 C51 0.930 . S
H23 C43 0.931 . S
O24 Co0 2.097 . S
O24 C52 1.214 . S
H25 C53 0.929 . S
H26 C54 0.929 . S
H27 C55 0.930 . S
H28 C56 0.929 . S
H29 C58 0.930 . S
H30 C35 0.930 . S
H31 C39 0.930 . S
O32 Co1 2.037 . S
O32 C52 1.234 . S
C33 O7 1.269 . S
C33 O8 1.257 . S
C34 H9 0.930 . S
C34 C37 1.388 . S
C34 C39 1.418 . S
C35 H30 0.930 . S
C35 C38 1.404 . S
C35 C39 1.353 . S
N36 Co1 2.145 . S
N36 C37 1.397 . S
N36 C38 1.334 . S
C37 H18 0.929 . S
C37 C34 1.388 . S
C37 N36 1.397 . S
C38 H19 0.929 . S
C38 C35 1.404 . S
C38 N36 1.334 . S
C39 H31 0.930 . S
C39 C34 1.418 . S
C39 C35 1.353 . S
C40 H10 0.930 . S
C40 N41 1.330 . S
C40 C42 1.446 . S
N41 Co0 2.151 . S
N41 C40 1.330 . S
N41 C45 1.418 . S
C42 H21 0.929 . S
C42 C40 1.446 . S
C42 C43 1.332 . S
C43 H23 0.931 . S
C43 C42 1.332 . S
C43 C44 1.267 . S
C44 H12 0.929 . S
C44 C43 1.267 . S
C44 C45 1.251 . S
C45 H15 0.929 . S
C45 N41 1.418 . S
C45 C44 1.251 . S
C46 H13 0.930 . S
C46 C48 1.406 . S
C46 C51 1.261 . S
C47 H14 0.930 . S
C47 N49 1.325 . S
C47 C50 1.357 . S
C48 H16 0.928 . S
C48 C46 1.406 . S
C48 N49 1.261 . S
N49 Co0 2.214 . S
N49 C47 1.325 . S
N49 C48 1.261 . S
C50 H20 0.931 . S
C50 C47 1.357 . S
C50 C51 1.312 . S
C51 H22 0.930 . S
C51 C46 1.261 . S
C51 C50 1.312 . S
C52 O24 1.214 . S
C52 O32 1.234 . S
C53 H25 0.929 . S
C53 C56 1.391 . S
C53 C58 1.391 . S
C54 H26 0.929 . S
C54 C55 1.390 . S
C54 N57 1.391 . S
C55 H27 0.930 . S
C55 C54 1.390 . S
C55 C56 1.392 . S
C56 H28 0.929 . S
C56 C53 1.391 . S
C56 C55 1.392 . S
N57 Co1 2.257 . S
N57 C54 1.391 . S
N57 C58 1.388 . S
C58 H29 0.930 . S
C58 C53 1.391 . S
C58 N57 1.388 . S
Co59 O61 2.143 . S
Co59 O67 2.074 . S
Co59 O70 2.093 . S
Co59 O83 2.097 . S
Co59 N100 2.151 . S
Co59 N108 2.214 . S
Co60 O61 2.160 . S
Co60 O66 2.058 . S
Co60 O76 2.057 . S
Co60 O91 2.037 . S
Co60 N95 2.145 . S
Co60 N116 2.257 . S
O61 Co59 2.143 . S
O61 Co60 2.160 . S
C62 O63 1.278 . S
C62 O70 1.224 . S
O63 C62 1.278 . S
C64 O65 1.245 . S
C64 O76 1.232 . S
O65 C64 1.245 . S
O66 Co60 2.058 . S
O66 C92 1.269 . S
O67 Co59 2.074 . S
O67 C92 1.257 . S
H68 C93 0.930 . S
H69 C99 0.930 . S
O70 Co59 2.093 . S
O70 C62 1.224 . S
H71 C103 0.929 . S
H72 C105 0.930 . S
H73 C106 0.930 . S
H74 C104 0.929 . S
H75 C107 0.928 . S
O76 Co60 2.057 . S
O76 C64 1.232 . S
H77 C96 0.929 . S
H78 C97 0.929 . S
H79 C109 0.931 . S
H80 C101 0.929 . S
H81 C110 0.930 . S
H82 C102 0.931 . S
O83 Co59 2.097 . S
O83 C111 1.214 . S
H84 C112 0.929 . S
H85 C113 0.929 . S
H86 C114 0.930 . S
H87 C115 0.929 . S
H88 C117 0.930 . S
H89 C94 0.930 . S
H90 C98 0.930 . S
O91 Co60 2.037 . S
O91 C111 1.234 . S
C92 O66 1.269 . S
C92 O67 1.257 . S
C93 H68 0.930 . S
C93 C96 1.388 . S
C93 C98 1.418 . S
C94 H89 0.930 . S
C94 C97 1.404 . S
C94 C98 1.353 . S
N95 Co60 2.145 . S
N95 C96 1.397 . S
N95 C97 1.334 . S
C96 H77 0.929 . S
C96 C93 1.388 . S
C96 N95 1.397 . S
C97 H78 0.929 . S
C97 C94 1.404 . S
C97 N95 1.334 . S
C98 H90 0.930 . S
C98 C93 1.418 . S
C98 C94 1.353 . S
C99 H69 0.930 . S
C99 N100 1.330 . S
C99 C101 1.446 . S
N100 Co59 2.151 . S
N100 C99 1.330 . S
N100 C104 1.418 . S
C101 H80 0.929 . S
C101 C99 1.446 . S
C101 C102 1.332 . S
C102 H82 0.931 . S
C102 C101 1.332 . S
C102 C103 1.267 . S
C103 H71 0.929 . S
C103 C102 1.267 . S
C103 C104 1.251 . S
C104 H74 0.929 . S
C104 N100 1.418 . S
C104 C103 1.251 . S
C105 H72 0.930 . S
C105 C107 1.406 . S
C105 C110 1.261 . S
C106 H73 0.930 . S
C106 N108 1.325 . S
C106 C109 1.357 . S
C107 H75 0.928 . S
C107 C105 1.406 . S
C107 N108 1.261 . S
N108 Co59 2.214 . S
N108 C106 1.325 . S
N108 C107 1.261 . S
C109 H79 0.931 . S
C109 C106 1.357 . S
C109 C110 1.312 . S
C110 H81 0.930 . S
C110 C105 1.261 . S
C110 C109 1.312 . S
C111 O83 1.214 . S
C111 O91 1.234 . S
C112 H84 0.929 . S
C112 C115 1.391 . S
C112 C117 1.391 . S
C113 H85 0.929 . S
C113 C114 1.390 . S
C113 N116 1.391 . S
C114 H86 0.930 . S
C114 C113 1.390 . S
C114 C115 1.392 . S
C115 H87 0.929 . S
C115 C112 1.391 . S
C115 C114 1.392 . S
N116 Co60 2.257 . S
N116 C113 1.391 . S
N116 C117 1.388 . S
C117 H88 0.930 . S
C117 C112 1.391 . S
C117 N116 1.388 . S
Co118 O120 2.143 . S
Co118 O126 2.074 . S
Co118 O129 2.093 . S
Co118 O142 2.097 . S
Co118 N159 2.151 . S
Co118 N167 2.214 . S
Co119 O120 2.160 . S
Co119 O125 2.058 . S
Co119 O135 2.057 . S
Co119 O150 2.037 . S
Co119 N154 2.145 . S
Co119 N175 2.257 . S
O120 Co118 2.143 . S
O120 Co119 2.160 . S
C121 O122 1.278 . S
C121 O129 1.224 . S
O122 C121 1.278 . S
C123 O124 1.245 . S
C123 O135 1.232 . S
O124 C123 1.245 . S
O125 Co119 2.058 . S
O125 C151 1.269 . S
O126 Co118 2.074 . S
O126 C151 1.257 . S
H127 C152 0.930 . S
H128 C158 0.930 . S
O129 Co118 2.093 . S
O129 C121 1.224 . S
H130 C162 0.929 . S
H131 C164 0.930 . S
H132 C165 0.930 . S
H133 C163 0.929 . S
H134 C166 0.928 . S
O135 Co119 2.057 . S
O135 C123 1.232 . S
H136 C155 0.929 . S
H137 C156 0.929 . S
H138 C168 0.931 . S
H139 C160 0.929 . S
H140 C169 0.930 . S
H141 C161 0.931 . S
O142 Co118 2.097 . S
O142 C170 1.214 . S
H143 C171 0.929 . S
H144 C172 0.929 . S
H145 C173 0.930 . S
H146 C174 0.929 . S
H147 C176 0.930 . S
H148 C153 0.930 . S
H149 C157 0.930 . S
O150 Co119 2.037 . S
O150 C170 1.234 . S
C151 O125 1.269 . S
C151 O126 1.257 . S
C152 H127 0.930 . S
C152 C155 1.388 . S
C152 C157 1.418 . S
C153 H148 0.930 . S
C153 C156 1.404 . S
C153 C157 1.353 . S
N154 Co119 2.145 . S
N154 C155 1.397 . S
N154 C156 1.334 . S
C155 H136 0.929 . S
C155 C152 1.388 . S
C155 N154 1.397 . S
C156 H137 0.929 . S
C156 C153 1.404 . S
C156 N154 1.334 . S
C157 H149 0.930 . S
C157 C152 1.418 . S
C157 C153 1.353 . S
C158 H128 0.930 . S
C158 N159 1.330 . S
C158 C160 1.446 . S
N159 Co118 2.151 . S
N159 C158 1.330 . S
N159 C163 1.418 . S
C160 H139 0.929 . S
C160 C158 1.446 . S
C160 C161 1.332 . S
C161 H141 0.931 . S
C161 C160 1.332 . S
C161 C162 1.267 . S
C162 H130 0.929 . S
C162 C161 1.267 . S
C162 C163 1.251 . S
C163 H133 0.929 . S
C163 N159 1.418 . S
C163 C162 1.251 . S
C164 H131 0.930 . S
C164 C166 1.406 . S
C164 C169 1.261 . S
C165 H132 0.930 . S
C165 N167 1.325 . S
C165 C168 1.357 . S
C166 H134 0.928 . S
C166 C164 1.406 . S
C166 N167 1.261 . S
N167 Co118 2.214 . S
N167 C165 1.325 . S
N167 C166 1.261 . S
C168 H138 0.931 . S
C168 C165 1.357 . S
C168 C169 1.312 . S
C169 H140 0.930 . S
C169 C164 1.261 . S
C169 C168 1.312 . S
C170 O142 1.214 . S
C170 O150 1.234 . S
C171 H143 0.929 . S
C171 C174 1.391 . S
C171 C176 1.391 . S
C172 H144 0.929 . S
C172 C173 1.390 . S
C172 N175 1.391 . S
C173 H145 0.930 . S
C173 C172 1.390 . S
C173 C174 1.392 . S
C174 H146 0.929 . S
C174 C171 1.391 . S
C174 C173 1.392 . S
N175 Co119 2.257 . S
N175 C172 1.391 . S
N175 C176 1.388 . S
C176 H147 0.930 . S
C176 C171 1.391 . S
C176 N175 1.388 . S
Co177 O179 2.143 . S
Co177 O185 2.074 . S
Co177 O188 2.093 . S
Co177 O201 2.097 . S
Co177 N218 2.151 . S
Co177 N226 2.214 . S
Co178 O179 2.160 . S
Co178 O184 2.058 . S
Co178 O194 2.057 . S
Co178 O209 2.037 . S
Co178 N213 2.145 . S
Co178 N234 2.257 . S
O179 Co177 2.143 . S
O179 Co178 2.160 . S
C180 O181 1.278 . S
C180 O188 1.224 . S
O181 C180 1.278 . S
C182 O183 1.245 . S
C182 O194 1.232 . S
O183 C182 1.245 . S
O184 Co178 2.058 . S
O184 C210 1.269 . S
O185 Co177 2.074 . S
O185 C210 1.257 . S
H186 C211 0.930 . S
H187 C217 0.930 . S
O188 Co177 2.093 . S
O188 C180 1.224 . S
H189 C221 0.929 . S
H190 C223 0.930 . S
H191 C224 0.930 . S
H192 C222 0.929 . S
H193 C225 0.928 . S
O194 Co178 2.057 . S
O194 C182 1.232 . S
H195 C214 0.929 1_554 S
H196 C215 0.929 . S
H197 C227 0.931 . S
H198 C219 0.929 . S
H199 C228 0.928 1_554 S
H200 C220 0.931 . S
O201 Co177 2.097 . S
O201 C229 1.214 . S
H202 C230 0.929 . S
H203 C231 0.929 . S
H204 C232 0.930 1_554 S
H205 C233 0.929 . S
H206 C235 0.930 . S
H207 C212 0.930 . S
H208 C216 0.930 1_554 S
O209 Co178 2.037 . S
O209 C229 1.234 . S
C210 O184 1.269 . S
C210 O185 1.257 . S
C211 H186 0.930 . S
C211 C214 1.388 1_554 S
C211 C216 1.418 1_554 S
C212 H207 0.930 . S
C212 C215 1.404 . S
C212 C216 1.353 . S
N213 Co178 2.145 . S
N213 C214 1.397 . S
N213 C215 1.334 . S
C214 H195 0.929 1_556 S
C214 C211 1.388 1_556 S
C214 N213 1.397 . S
C215 H196 0.929 . S
C215 C212 1.404 . S
C215 N213 1.334 . S
C216 H208 0.930 1_556 S
C216 C211 1.418 1_556 S
C216 C212 1.353 . S
C217 H187 0.930 . S
C217 N218 1.330 . S
C217 C219 1.446 . S
N218 Co177 2.151 . S
N218 C217 1.330 . S
N218 C222 1.418 . S
C219 H198 0.929 . S
C219 C217 1.446 . S
C219 C220 1.332 . S
C220 H200 0.931 . S
C220 C219 1.332 . S
C220 C221 1.267 . S
C221 H189 0.929 . S
C221 C220 1.267 . S
C221 C222 1.251 . S
C222 H192 0.929 . S
C222 N218 1.418 . S
C222 C221 1.251 . S
C223 H190 0.930 . S
C223 C225 1.406 . S
C223 C228 1.261 . S
C224 H191 0.930 . S
C224 N226 1.325 . S
C224 C227 1.357 1_556 S
C225 H193 0.928 . S
C225 C223 1.406 . S
C225 N226 1.261 . S
N226 Co177 2.214 . S
N226 C224 1.325 . S
N226 C225 1.261 . S
C227 H197 0.931 . S
C227 C224 1.357 1_554 S
C227 C228 1.312 1_554 S
C228 H199 0.928 1_556 S
C228 C223 1.261 . S
C228 C227 1.312 1_556 S
C229 O201 1.214 . S
C229 O209 1.234 . S
C230 H202 0.929 . S
C230 C233 1.391 . S
C230 C235 1.391 . S
C231 H203 0.929 . S
C231 C232 1.390 . S
C231 N234 1.391 . S
C232 H204 0.930 1_556 S
C232 C231 1.390 . S
C232 C233 1.392 . S
C233 H205 0.929 . S
C233 C230 1.391 . S
C233 C232 1.392 . S
N234 Co178 2.257 . S
N234 C231 1.391 . S
N234 C235 1.388 . S
C235 H206 0.930 . S
C235 C230 1.391 . S
C235 N234 1.388 . S
Co236 O238 2.143 . S
Co236 O244 2.074 . S
Co236 O247 2.093 . S
Co236 O260 2.097 . S
Co236 N277 2.151 . S
Co236 N285 2.214 . S
Co237 O238 2.160 . S
Co237 O243 2.058 . S
Co237 O253 2.057 . S
Co237 O268 2.037 . S
Co237 N272 2.145 . S
Co237 N293 2.257 . S
O238 Co236 2.143 . S
O238 Co237 2.160 . S
C239 O240 1.278 . S
C239 O247 1.224 1_556 S
O240 C239 1.278 . S
C241 O242 1.245 . S
C241 O253 1.232 . S
O242 C241 1.245 . S
O243 Co237 2.058 . S
O243 C269 1.269 . S
O244 Co236 2.074 . S
O244 C269 1.257 . S
H245 C270 0.930 . S
H246 C276 0.930 . S
O247 Co236 2.093 . S
O247 C239 1.224 1_554 S
H248 C280 0.929 . S
H249 C282 0.930 . S
H250 C283 0.930 . S
H251 C281 0.929 . S
H252 C284 0.928 . S
O253 Co237 2.057 . S
O253 C241 1.232 . S
H254 C273 0.929 . S
H255 C274 0.929 . S
H256 C286 0.931 . S
H257 C278 0.929 . S
H258 C287 0.930 . S
H259 C279 0.931 . S
O260 Co236 2.097 . S
O260 C288 1.214 . S
H261 C289 0.929 . S
H262 C290 0.929 1_554 S
H263 C291 0.930 . S
H264 C292 0.929 . S
H265 C294 0.930 . S
H266 C271 0.930 . S
H267 C275 0.930 . S
O268 Co237 2.037 . S
O268 C288 1.234 . S
C269 O243 1.269 . S
C269 O244 1.257 . S
C270 H245 0.930 . S
C270 C273 1.388 . S
C270 C275 1.418 . S
C271 H266 0.930 . S
C271 C274 1.404 . S
C271 C275 1.353 . S
N272 Co237 2.145 . S
N272 C273 1.397 . S
N272 C274 1.334 . S
C273 H254 0.929 . S
C273 C270 1.388 . S
C273 N272 1.397 . S
C274 H255 0.929 . S
C274 C271 1.404 . S
C274 N272 1.334 . S
C275 H267 0.930 . S
C275 C270 1.418 . S
C275 C271 1.353 . S
C276 H246 0.930 . S
C276 N277 1.330 . S
C276 C278 1.446 . S
N277 Co236 2.151 . S
N277 C276 1.330 . S
N277 C281 1.418 . S
C278 H257 0.929 . S
C278 C276 1.446 . S
C278 C279 1.332 . S
C279 H259 0.931 . S
C279 C278 1.332 . S
C279 C280 1.267 . S
C280 H248 0.929 . S
C280 C279 1.267 . S
C280 C281 1.251 . S
C281 H251 0.929 . S
C281 N277 1.418 . S
C281 C280 1.251 . S
C282 H249 0.930 . S
C282 C284 1.406 . S
C282 C287 1.261 . S
C283 H250 0.930 . S
C283 N285 1.325 . S
C283 C286 1.357 . S
C284 H252 0.928 . S
C284 C282 1.406 . S
C284 N285 1.261 . S
N285 Co236 2.214 . S
N285 C283 1.325 . S
N285 C284 1.261 . S
C286 H256 0.931 . S
C286 C283 1.357 . S
C286 C287 1.312 . S
C287 H258 0.930 . S
C287 C282 1.261 . S
C287 C286 1.312 . S
C288 O260 1.214 . S
C288 O268 1.234 . S
C289 H261 0.929 . S
C289 C292 1.391 . S
C289 C294 1.391 . S
C290 H262 0.929 1_556 S
C290 C291 1.390 . S
C290 N293 1.391 1_556 S
C291 H263 0.930 . S
C291 C290 1.390 . S
C291 C292 1.392 . S
C292 H264 0.929 . S
C292 C289 1.391 . S
C292 C291 1.392 . S
N293 Co237 2.257 . S
N293 C290 1.391 1_554 S
N293 C294 1.388 1_554 S
C294 H265 0.930 . S
C294 C289 1.391 . S
C294 N293 1.388 1_556 S
Co295 O297 2.143 . S
Co295 O303 2.074 . S
Co295 O306 2.093 . S
Co295 O319 2.097 . S
Co295 N336 2.151 . S
Co295 N344 2.214 . S
Co296 O297 2.160 . S
Co296 O302 2.058 . S
Co296 O312 2.057 . S
Co296 O327 2.037 . S
Co296 N331 2.145 . S
Co296 N352 2.257 . S
O297 Co295 2.143 . S
O297 Co296 2.160 . S
C298 O299 1.278 . S
C298 O306 1.224 . S
O299 C298 1.278 . S
C300 O301 1.245 . S
C300 O312 1.232 . S
O301 C300 1.245 . S
O302 Co296 2.058 . S
O302 C328 1.269 . S
O303 Co295 2.074 . S
O303 C328 1.257 . S
H304 C329 0.930 . S
H305 C335 0.930 . S
O306 Co295 2.093 . S
O306 C298 1.224 . S
H307 C339 0.929 . S
H308 C341 0.930 . S
H309 C342 0.930 . S
H310 C340 0.929 . S
H311 C343 0.928 . S
O312 Co296 2.057 . S
O312 C300 1.232 . S
H313 C332 0.929 . S
H314 C333 0.929 . S
H315 C345 0.931 . S
H316 C337 0.929 . S
H317 C346 0.930 . S
H318 C338 0.931 . S
O319 Co295 2.097 . S
O319 C347 1.214 . S
H320 C348 0.929 . S
H321 C349 0.929 . S
H322 C350 0.930 . S
H323 C351 0.929 . S
H324 C353 0.930 . S
H325 C330 0.930 . S
H326 C334 0.930 . S
O327 Co296 2.037 . S
O327 C347 1.234 . S
C328 O302 1.269 . S
C328 O303 1.257 . S
C329 H304 0.930 . S
C329 C332 1.388 . S
C329 C334 1.418 . S
C330 H325 0.930 . S
C330 C333 1.404 . S
C330 C334 1.353 . S
N331 Co296 2.145 . S
N331 C332 1.397 . S
N331 C333 1.334 . S
C332 H313 0.929 . S
C332 C329 1.388 . S
C332 N331 1.397 . S
C333 H314 0.929 . S
C333 C330 1.404 . S
C333 N331 1.334 . S
C334 H326 0.930 . S
C334 C329 1.418 . S
C334 C330 1.353 . S
C335 H305 0.930 . S
C335 N336 1.330 . S
C335 C337 1.446 . S
N336 Co295 2.151 . S
N336 C335 1.330 . S
N336 C340 1.418 . S
C337 H316 0.929 . S
C337 C335 1.446 . S
C337 C338 1.332 . S
C338 H318 0.931 . S
C338 C337 1.332 . S
C338 C339 1.267 . S
C339 H307 0.929 . S
C339 C338 1.267 . S
C339 C340 1.251 . S
C340 H310 0.929 . S
C340 N336 1.418 . S
C340 C339 1.251 . S
C341 H308 0.930 . S
C341 C343 1.406 . S
C341 C346 1.261 . S
C342 H309 0.930 . S
C342 N344 1.325 . S
C342 C345 1.357 . S
C343 H311 0.928 . S
C343 C341 1.406 . S
C343 N344 1.261 . S
N344 Co295 2.214 . S
N344 C342 1.325 . S
N344 C343 1.261 . S
C345 H315 0.931 . S
C345 C342 1.357 . S
C345 C346 1.312 . S
C346 H317 0.930 . S
C346 C341 1.261 . S
C346 C345 1.312 . S
C347 O319 1.214 . S
C347 O327 1.234 . S
C348 H320 0.929 . S
C348 C351 1.391 . S
C348 C353 1.391 . S
C349 H321 0.929 . S
C349 C350 1.390 . S
C349 N352 1.391 . S
C350 H322 0.930 . S
C350 C349 1.390 . S
C350 C351 1.392 . S
C351 H323 0.929 . S
C351 C348 1.391 . S
C351 C350 1.392 . S
N352 Co296 2.257 . S
N352 C349 1.391 . S
N352 C353 1.388 . S
C353 H324 0.930 . S
C353 C348 1.391 . S
C353 N352 1.388 . S
Co354 O356 2.143 . S
Co354 O362 2.074 . S
Co354 O365 2.093 . S
Co354 O378 2.097 . S
Co354 N395 2.151 . S
Co354 N403 2.214 . S
Co355 O356 2.160 . S
Co355 O361 2.058 . S
Co355 O371 2.057 . S
Co355 O386 2.037 . S
Co355 N390 2.145 . S
Co355 N411 2.257 . S
O356 Co354 2.143 . S
O356 Co355 2.160 . S
C357 O358 1.278 . S
C357 O365 1.224 . S
O358 C357 1.278 . S
C359 O360 1.245 . S
C359 O371 1.232 . S
O360 C359 1.245 . S
O361 Co355 2.058 . S
O361 C387 1.269 . S
O362 Co354 2.074 . S
O362 C387 1.257 . S
H363 C388 0.930 . S
H364 C394 0.930 . S
O365 Co354 2.093 . S
O365 C357 1.224 . S
H366 C398 0.929 . S
H367 C400 0.930 . S
H368 C401 0.930 . S
H369 C399 0.929 . S
H370 C402 0.928 . S
O371 Co355 2.057 . S
O371 C359 1.232 . S
H372 C391 0.929 . S
H373 C392 0.929 . S
H374 C404 0.931 . S
H375 C396 0.929 . S
H376 C405 0.930 . S
H377 C397 0.931 . S
O378 Co354 2.097 . S
O378 C406 1.214 . S
H379 C407 0.929 . S
H380 C408 0.929 . S
H381 C409 0.930 . S
H382 C410 0.929 . S
H383 C412 0.930 . S
H384 C389 0.930 . S
H385 C393 0.930 . S
O386 Co355 2.037 . S
O386 C406 1.234 . S
C387 O361 1.269 . S
C387 O362 1.257 . S
C388 H363 0.930 . S
C388 C391 1.388 . S
C388 C393 1.418 . S
C389 H384 0.930 . S
C389 C392 1.404 . S
C389 C393 1.353 . S
N390 Co355 2.145 . S
N390 C391 1.397 . S
N390 C392 1.334 . S
C391 H372 0.929 . S
C391 C388 1.388 . S
C391 N390 1.397 . S
C392 H373 0.929 . S
C392 C389 1.404 . S
C392 N390 1.334 . S
C393 H385 0.930 . S
C393 C388 1.418 . S
C393 C389 1.353 . S
C394 H364 0.930 . S
C394 N395 1.330 . S
C394 C396 1.446 . S
N395 Co354 2.151 . S
N395 C394 1.330 . S
N395 C399 1.418 . S
C396 H375 0.929 . S
C396 C394 1.446 . S
C396 C397 1.332 . S
C397 H377 0.931 . S
C397 C396 1.332 . S
C397 C398 1.267 . S
C398 H366 0.929 . S
C398 C397 1.267 . S
C398 C399 1.251 . S
C399 H369 0.929 . S
C399 N395 1.418 . S
C399 C398 1.251 . S
C400 H367 0.930 . S
C400 C402 1.406 . S
C400 C405 1.261 . S
C401 H368 0.930 . S
C401 N403 1.325 . S
C401 C404 1.357 . S
C402 H370 0.928 . S
C402 C400 1.406 . S
C402 N403 1.261 . S
N403 Co354 2.214 . S
N403 C401 1.325 . S
N403 C402 1.261 . S
C404 H374 0.931 . S
C404 C401 1.357 . S
C404 C405 1.312 . S
C405 H376 0.930 . S
C405 C400 1.261 . S
C405 C404 1.312 . S
C406 O378 1.214 . S
C406 O386 1.234 . S
C407 H379 0.929 . S
C407 C410 1.391 . S
C407 C412 1.391 . S
C408 H380 0.929 . S
C408 C409 1.390 . S
C408 N411 1.391 . S
C409 H381 0.930 . S
C409 C408 1.390 . S
C409 C410 1.392 . S
C410 H382 0.929 . S
C410 C407 1.391 . S
C410 C409 1.392 . S
N411 Co355 2.257 . S
N411 C408 1.391 . S
N411 C412 1.388 . S
C412 H383 0.930 . S
C412 C407 1.391 . S
C412 N411 1.388 . S
Co413 O415 2.143 . S
Co413 O421 2.074 . S
Co413 O424 2.093 . S
Co413 O437 2.097 . S
Co413 N454 2.151 . S
Co413 N462 2.214 . S
Co414 O415 2.160 . S
Co414 O420 2.058 . S
Co414 O430 2.057 . S
Co414 O445 2.037 . S
Co414 N449 2.145 . S
Co414 N470 2.257 . S
O415 Co413 2.143 . S
O415 Co414 2.160 . S
C416 O417 1.278 . S
C416 O424 1.224 . S
O417 C416 1.278 . S
C418 O419 1.245 . S
C418 O430 1.232 . S
O419 C418 1.245 . S
O420 Co414 2.058 . S
O420 C446 1.269 . S
O421 Co413 2.074 . S
O421 C446 1.257 . S
H422 C447 0.930 . S
H423 C453 0.930 . S
O424 Co413 2.093 . S
O424 C416 1.224 . S
H425 C457 0.929 . S
H426 C459 0.930 . S
H427 C460 0.930 . S
H428 C458 0.929 . S
H429 C461 0.928 . S
O430 Co414 2.057 . S
O430 C418 1.232 . S
H431 C450 0.929 . S
H432 C451 0.929 . S
H433 C463 0.931 . S
H434 C455 0.929 . S
H435 C464 0.930 . S
H436 C456 0.931 . S
O437 Co413 2.097 . S
O437 C465 1.214 . S
H438 C466 0.929 . S
H439 C467 0.929 . S
H440 C468 0.930 . S
H441 C469 0.929 . S
H442 C471 0.930 . S
H443 C448 0.930 . S
H444 C452 0.930 . S
O445 Co414 2.037 . S
O445 C465 1.234 . S
C446 O420 1.269 . S
C446 O421 1.257 . S
C447 H422 0.930 . S
C447 C450 1.388 . S
C447 C452 1.418 . S
C448 H443 0.930 . S
C448 C451 1.404 . S
C448 C452 1.353 . S
N449 Co414 2.145 . S
N449 C450 1.397 . S
N449 C451 1.334 . S
C450 H431 0.929 . S
C450 C447 1.388 . S
C450 N449 1.397 . S
C451 H432 0.929 . S
C451 C448 1.404 . S
C451 N449 1.334 . S
C452 H444 0.930 . S
C452 C447 1.418 . S
C452 C448 1.353 . S
C453 H423 0.930 . S
C453 N454 1.330 . S
C453 C455 1.446 . S
N454 Co413 2.151 . S
N454 C453 1.330 . S
N454 C458 1.418 . S
C455 H434 0.929 . S
C455 C453 1.446 . S
C455 C456 1.332 . S
C456 H436 0.931 . S
C456 C455 1.332 . S
C456 C457 1.267 . S
C457 H425 0.929 . S
C457 C456 1.267 . S
C457 C458 1.251 . S
C458 H428 0.929 . S
C458 N454 1.418 . S
C458 C457 1.251 . S
C459 H426 0.930 . S
C459 C461 1.406 . S
C459 C464 1.261 . S
C460 H427 0.930 . S
C460 N462 1.325 . S
C460 C463 1.357 . S
C461 H429 0.928 . S
C461 C459 1.406 . S
C461 N462 1.261 . S
N462 Co413 2.214 . S
N462 C460 1.325 . S
N462 C461 1.261 . S
C463 H433 0.931 . S
C463 C460 1.357 . S
C463 C464 1.312 . S
C464 H435 0.930 . S
C464 C459 1.261 . S
C464 C463 1.312 . S
C465 O437 1.214 . S
C465 O445 1.234 . S
C466 H438 0.929 . S
C466 C469 1.391 . S
C466 C471 1.391 . S
C467 H439 0.929 . S
C467 C468 1.390 . S
C467 N470 1.391 . S
C468 H440 0.930 . S
C468 C467 1.390 . S
C468 C469 1.392 . S
C469 H441 0.929 . S
C469 C466 1.391 . S
C469 C468 1.392 . S
N470 Co414 2.257 . S
N470 C467 1.391 . S
N470 C471 1.388 . S
C471 H442 0.930 . S
C471 C466 1.391 . S
C471 N470 1.388 . S
Co472 O474 2.143 . S
Co472 O480 2.074 . S
Co472 O483 2.093 . S
Co472 O496 2.097 . S
Co472 N513 2.151 . S
Co472 N521 2.214 . S
Co473 O474 2.160 . S
Co473 O479 2.058 . S
Co473 O489 2.057 . S
Co473 O504 2.037 . S
Co473 N508 2.145 . S
Co473 N529 2.257 . S
O474 Co472 2.143 . S
O474 Co473 2.160 . S
C475 O476 1.278 . S
C475 O483 1.224 . S
O476 C475 1.278 . S
C477 O478 1.245 . S
C477 O489 1.232 . S
O478 C477 1.245 . S
O479 Co473 2.058 . S
O479 C505 1.269 . S
O480 Co472 2.074 . S
O480 C505 1.257 . S
H481 C506 0.930 . S
H482 C512 0.930 . S
O483 Co472 2.093 . S
O483 C475 1.224 . S
H484 C516 0.929 . S
H485 C518 0.930 . S
H486 C519 0.930 . S
H487 C517 0.929 . S
H488 C520 0.928 . S
O489 Co473 2.057 . S
O489 C477 1.232 . S
H490 C509 0.929 . S
H491 C510 0.929 . S
H492 C522 0.931 . S
H493 C514 0.929 . S
H494 C523 0.930 . S
H495 C515 0.931 . S
O496 Co472 2.097 . S
O496 C524 1.214 . S
H497 C525 0.929 . S
H498 C526 0.929 . S
H499 C527 0.930 . S
H500 C528 0.929 . S
H501 C530 0.930 . S
H502 C507 0.930 . S
H503 C511 0.930 . S
O504 Co473 2.037 . S
O504 C524 1.234 . S
C505 O479 1.269 . S
C505 O480 1.257 . S
C506 H481 0.930 . S
C506 C509 1.388 . S
C506 C511 1.418 . S
C507 H502 0.930 . S
C507 C510 1.404 . S
C507 C511 1.353 . S
N508 Co473 2.145 . S
N508 C509 1.397 . S
N508 C510 1.334 . S
C509 H490 0.929 . S
C509 C506 1.388 . S
C509 N508 1.397 . S
C510 H491 0.929 . S
C510 C507 1.404 . S
C510 N508 1.334 . S
C511 H503 0.930 . S
C511 C506 1.418 . S
C511 C507 1.353 . S
C512 H482 0.930 . S
C512 N513 1.330 . S
C512 C514 1.446 . S
N513 Co472 2.151 . S
N513 C512 1.330 . S
N513 C517 1.418 . S
C514 H493 0.929 . S
C514 C512 1.446 . S
C514 C515 1.332 . S
C515 H495 0.931 . S
C515 C514 1.332 . S
C515 C516 1.267 . S
C516 H484 0.929 . S
C516 C515 1.267 . S
C516 C517 1.251 . S
C517 H487 0.929 . S
C517 N513 1.418 . S
C517 C516 1.251 . S
C518 H485 0.930 . S
C518 C520 1.406 . S
C518 C523 1.261 . S
C519 H486 0.930 . S
C519 N521 1.325 . S
C519 C522 1.357 . S
C520 H488 0.928 . S
C520 C518 1.406 . S
C520 N521 1.261 . S
N521 Co472 2.214 . S
N521 C519 1.325 . S
N521 C520 1.261 . S
C522 H492 0.931 . S
C522 C519 1.357 . S
C522 C523 1.312 . S
C523 H494 0.930 . S
C523 C518 1.261 . S
C523 C522 1.312 . S
C524 O496 1.214 . S
C524 O504 1.234 . S
C525 H497 0.929 . S
C525 C528 1.391 . S
C525 C530 1.391 . S
C526 H498 0.929 . S
C526 C527 1.390 . S
C526 N529 1.391 . S
C527 H499 0.930 . S
C527 C526 1.390 . S
C527 C528 1.392 . S
C528 H500 0.929 . S
C528 C525 1.391 . S
C528 C527 1.392 . S
N529 Co473 2.257 . S
N529 C526 1.391 . S
N529 C530 1.388 . S
C530 H501 0.930 . S
C530 C525 1.391 . S
C530 N529 1.388 . S
Co531 O533 2.143 . S
Co531 O539 2.074 . S
Co531 O542 2.093 . S
Co531 O555 2.097 . S
Co531 N572 2.151 . S
Co531 N580 2.214 . S
Co532 O533 2.160 . S
Co532 O538 2.058 . S
Co532 O548 2.057 . S
Co532 O563 2.037 . S
Co532 N567 2.145 . S
Co532 N588 2.257 . S
O533 Co531 2.143 . S
O533 Co532 2.160 . S
C534 O535 1.278 . S
C534 O542 1.224 1_554 S
O535 C534 1.278 . S
C536 O537 1.245 . S
C536 O548 1.232 . S
O537 C536 1.245 . S
O538 Co532 2.058 . S
O538 C564 1.269 . S
O539 Co531 2.074 . S
O539 C564 1.257 . S
H540 C565 0.930 . S
H541 C571 0.930 . S
O542 Co531 2.093 . S
O542 C534 1.224 1_556 S
H543 C575 0.929 . S
H544 C577 0.930 . S
H545 C578 0.930 . S
H546 C576 0.929 . S
H547 C579 0.928 . S
O548 Co532 2.057 . S
O548 C536 1.232 . S
H549 C568 0.929 . S
H550 C569 0.929 . S
H551 C581 0.931 . S
H552 C573 0.929 . S
H553 C582 0.930 . S
H554 C574 0.931 . S
O555 Co531 2.097 . S
O555 C583 1.214 . S
H556 C584 0.929 . S
H557 C585 0.929 1_556 S
H558 C586 0.930 . S
H559 C587 0.929 . S
H560 C589 0.930 . S
H561 C566 0.930 . S
H562 C570 0.930 . S
O563 Co532 2.037 . S
O563 C583 1.234 . S
C564 O538 1.269 . S
C564 O539 1.257 . S
C565 H540 0.930 . S
C565 C568 1.388 . S
C565 C570 1.418 . S
C566 H561 0.930 . S
C566 C569 1.404 . S
C566 C570 1.353 . S
N567 Co532 2.145 . S
N567 C568 1.397 . S
N567 C569 1.334 . S
C568 H549 0.929 . S
C568 C565 1.388 . S
C568 N567 1.397 . S
C569 H550 0.929 . S
C569 C566 1.404 . S
C569 N567 1.334 . S
C570 H562 0.930 . S
C570 C565 1.418 . S
C570 C566 1.353 . S
C571 H541 0.930 . S
C571 N572 1.330 . S
C571 C573 1.446 . S
N572 Co531 2.151 . S
N572 C571 1.330 . S
N572 C576 1.418 . S
C573 H552 0.929 . S
C573 C571 1.446 . S
C573 C574 1.332 . S
C574 H554 0.931 . S
C574 C573 1.332 . S
C574 C575 1.267 . S
C575 H543 0.929 . S
C575 C574 1.267 . S
C575 C576 1.251 . S
C576 H546 0.929 . S
C576 N572 1.418 . S
C576 C575 1.251 . S
C577 H544 0.930 . S
C577 C579 1.406 . S
C577 C582 1.261 . S
C578 H545 0.930 . S
C578 N580 1.325 . S
C578 C581 1.357 . S
C579 H547 0.928 . S
C579 C577 1.406 . S
C579 N580 1.261 . S
N580 Co531 2.214 . S
N580 C578 1.325 . S
N580 C579 1.261 . S
C581 H551 0.931 . S
C581 C578 1.357 . S
C581 C582 1.312 . S
C582 H553 0.930 . S
C582 C577 1.261 . S
C582 C581 1.312 . S
C583 O555 1.214 . S
C583 O563 1.234 . S
C584 H556 0.929 . S
C584 C587 1.391 . S
C584 C589 1.391 . S
C585 H557 0.929 1_554 S
C585 C586 1.390 . S
C585 N588 1.391 1_554 S
C586 H558 0.930 . S
C586 C585 1.390 . S
C586 C587 1.392 . S
C587 H559 0.929 . S
C587 C584 1.391 . S
C587 C586 1.392 . S
N588 Co532 2.257 . S
N588 C585 1.391 1_556 S
N588 C589 1.388 1_556 S
C589 H560 0.930 . S
C589 C584 1.391 . S
C589 N588 1.388 1_554 S
Co590 O592 2.143 . S
Co590 O598 2.074 . S
Co590 O601 2.093 . S
Co590 O614 2.097 . S
Co590 N631 2.151 . S
Co590 N639 2.214 . S
Co591 O592 2.160 . S
Co591 O597 2.058 . S
Co591 O607 2.057 . S
Co591 O622 2.037 . S
Co591 N626 2.145 . S
Co591 N647 2.257 . S
O592 Co590 2.143 . S
O592 Co591 2.160 . S
C593 O594 1.278 . S
C593 O601 1.224 . S
O594 C593 1.278 . S
C595 O596 1.245 . S
C595 O607 1.232 . S
O596 C595 1.245 . S
O597 Co591 2.058 . S
O597 C623 1.269 . S
O598 Co590 2.074 . S
O598 C623 1.257 . S
H599 C624 0.930 . S
H600 C630 0.930 . S
O601 Co590 2.093 . S
O601 C593 1.224 . S
H602 C634 0.929 . S
H603 C636 0.930 . S
H604 C637 0.930 . S
H605 C635 0.929 . S
H606 C638 0.928 . S
O607 Co591 2.057 . S
O607 C595 1.232 . S
H608 C627 0.929 1_556 S
H609 C628 0.929 . S
H610 C640 0.931 . S
H611 C632 0.929 . S
H612 C641 0.928 1_556 S
H613 C633 0.931 . S
O614 Co590 2.097 . S
O614 C642 1.214 . S
H615 C643 0.929 . S
H616 C644 0.929 . S
H617 C645 0.930 1_556 S
H618 C646 0.929 . S
H619 C648 0.930 . S
H620 C625 0.930 . S
H621 C629 0.930 1_556 S
O622 Co591 2.037 . S
O622 C642 1.234 . S
C623 O597 1.269 . S
C623 O598 1.257 . S
C624 H599 0.930 . S
C624 C627 1.388 1_556 S
C624 C629 1.418 1_556 S
C625 H620 0.930 . S
C625 C628 1.404 . S
C625 C629 1.353 . S
N626 Co591 2.145 . S
N626 C627 1.397 . S
N626 C628 1.334 . S
C627 H608 0.929 1_554 S
C627 C624 1.388 1_554 S
C627 N626 1.397 . S
C628 H609 0.929 . S
C628 C625 1.404 . S
C628 N626 1.334 . S
C629 H621 0.930 1_554 S
C629 C624 1.418 1_554 S
C629 C625 1.353 . S
C630 H600 0.930 . S
C630 N631 1.330 . S
C630 C632 1.446 . S
N631 Co590 2.151 . S
N631 C630 1.330 . S
N631 C635 1.418 . S
C632 H611 0.929 . S
C632 C630 1.446 . S
C632 C633 1.332 . S
C633 H613 0.931 . S
C633 C632 1.332 . S
C633 C634 1.267 . S
C634 H602 0.929 . S
C634 C633 1.267 . S
C634 C635 1.251 . S
C635 H605 0.929 . S
C635 N631 1.418 . S
C635 C634 1.251 . S
C636 H603 0.930 . S
C636 C638 1.406 . S
C636 C641 1.261 . S
C637 H604 0.930 . S
C637 N639 1.325 . S
C637 C640 1.357 1_554 S
C638 H606 0.928 . S
C638 C636 1.406 . S
C638 N639 1.261 . S
N639 Co590 2.214 . S
N639 C637 1.325 . S
N639 C638 1.261 . S
C640 H610 0.931 . S
C640 C637 1.357 1_556 S
C640 C641 1.312 1_556 S
C641 H612 0.928 1_554 S
C641 C636 1.261 . S
C641 C640 1.312 1_554 S
C642 O614 1.214 . S
C642 O622 1.234 . S
C643 H615 0.929 . S
C643 C646 1.391 . S
C643 C648 1.391 . S
C644 H616 0.929 . S
C644 C645 1.390 . S
C644 N647 1.391 . S
C645 H617 0.930 1_554 S
C645 C644 1.390 . S
C645 C646 1.392 . S
C646 H618 0.929 . S
C646 C643 1.391 . S
C646 C645 1.392 . S
N647 Co591 2.257 . S
N647 C644 1.391 . S
N647 C648 1.388 . S
C648 H619 0.930 . S
C648 C643 1.391 . S
C648 N647 1.388 . S
Co649 O651 2.143 . S
Co649 O657 2.074 . S
Co649 O660 2.093 . S
Co649 O673 2.097 . S
Co649 N690 2.151 . S
Co649 N698 2.214 . S
Co650 O651 2.160 . S
Co650 O656 2.058 . S
Co650 O666 2.057 . S
Co650 O681 2.037 . S
Co650 N685 2.145 . S
Co650 N706 2.257 . S
O651 Co649 2.143 . S
O651 Co650 2.160 . S
C652 O653 1.278 . S
C652 O660 1.224 . S
O653 C652 1.278 . S
C654 O655 1.245 . S
C654 O666 1.232 . S
O655 C654 1.245 . S
O656 Co650 2.058 . S
O656 C682 1.269 . S
O657 Co649 2.074 . S
O657 C682 1.257 . S
H658 C683 0.930 . S
H659 C689 0.930 . S
O660 Co649 2.093 . S
O660 C652 1.224 . S
H661 C693 0.929 . S
H662 C695 0.930 . S
H663 C696 0.930 . S
H664 C694 0.929 . S
H665 C697 0.928 . S
O666 Co650 2.057 . S
O666 C654 1.232 . S
H667 C686 0.929 . S
H668 C687 0.929 . S
H669 C699 0.931 . S
H670 C691 0.929 . S
H671 C700 0.930 . S
H672 C692 0.931 . S
O673 Co649 2.097 . S
O673 C701 1.214 . S
H674 C702 0.929 . S
H675 C703 0.929 . S
H676 C704 0.930 . S
H677 C705 0.929 . S
H678 C707 0.930 . S
H679 C684 0.930 . S
H680 C688 0.930 . S
O681 Co650 2.037 . S
O681 C701 1.234 . S
C682 O656 1.269 . S
C682 O657 1.257 . S
C683 H658 0.930 . S
C683 C686 1.388 . S
C683 C688 1.418 . S
C684 H679 0.930 . S
C684 C687 1.404 . S
C684 C688 1.353 . S
N685 Co650 2.145 . S
N685 C686 1.397 . S
N685 C687 1.334 . S
C686 H667 0.929 . S
C686 C683 1.388 . S
C686 N685 1.397 . S
C687 H668 0.929 . S
C687 C684 1.404 . S
C687 N685 1.334 . S
C688 H680 0.930 . S
C688 C683 1.418 . S
C688 C684 1.353 . S
C689 H659 0.930 . S
C689 N690 1.330 . S
C689 C691 1.446 . S
N690 Co649 2.151 . S
N690 C689 1.330 . S
N690 C694 1.418 . S
C691 H670 0.929 . S
C691 C689 1.446 . S
C691 C692 1.332 . S
C692 H672 0.931 . S
C692 C691 1.332 . S
C692 C693 1.267 . S
C693 H661 0.929 . S
C693 C692 1.267 . S
C693 C694 1.251 . S
C694 H664 0.929 . S
C694 N690 1.418 . S
C694 C693 1.251 . S
C695 H662 0.930 . S
C695 C697 1.406 . S
C695 C700 1.261 . S
C696 H663 0.930 . S
C696 N698 1.325 . S
C696 C699 1.357 . S
C697 H665 0.928 . S
C697 C695 1.406 . S
C697 N698 1.261 . S
N698 Co649 2.214 . S
N698 C696 1.325 . S
N698 C697 1.261 . S
C699 H669 0.931 . S
C699 C696 1.357 . S
C699 C700 1.312 . S
C700 H671 0.930 . S
C700 C695 1.261 . S
C700 C699 1.312 . S
C701 O673 1.214 . S
C701 O681 1.234 . S
C702 H674 0.929 . S
C702 C705 1.391 . S
C702 C707 1.391 . S
C703 H675 0.929 . S
C703 C704 1.390 . S
C703 N706 1.391 . S
C704 H676 0.930 . S
C704 C703 1.390 . S
C704 C705 1.392 . S
C705 H677 0.929 . S
C705 C702 1.391 . S
C705 C704 1.392 . S
N706 Co650 2.257 . S
N706 C703 1.391 . S
N706 C707 1.388 . S
C707 H678 0.930 . S
C707 C702 1.391 . S
C707 N706 1.388 . S
C708 C709 1.387 . S
C708 H712 0.950 . S
C708 C717 1.390 . S
C709 C708 1.387 . S
C709 C711 1.387 . S
H710 C717 0.950 . S
C711 C709 1.387 . S
C711 C713 1.390 . S
C711 H715 0.950 . S
H712 C708 0.950 . S
C713 C711 1.390 . S
C713 C714 1.387 . S
C713 H716 0.950 . S
C714 C713 1.387 . S
C714 C717 1.387 . S
H715 C711 0.950 . S
H716 C713 0.950 . S
C717 C708 1.390 . S
C717 H710 0.950 . S
C717 C714 1.387 . S
C718 C719 1.387 . S
C718 H722 0.950 . S
C718 C727 1.390 . S
C719 C718 1.387 . S
C719 C721 1.387 . S
H720 C727 0.950 . S
C721 C719 1.387 . S
C721 C723 1.390 . S
C721 H725 0.950 . S
H722 C718 0.950 . S
C723 C721 1.390 . S
C723 C724 1.387 . S
C723 H726 0.950 . S
C724 C723 1.387 . S
C724 C727 1.387 . S
H725 C721 0.950 . S
H726 C723 0.950 . S
C727 C718 1.390 . S
C727 H720 0.950 . S
C727 C724 1.387 . S
C728 C729 1.387 . S
C728 H732 0.950 . S
C728 C737 1.390 . S
C729 C728 1.387 . S
C729 C731 1.387 . S
H730 C737 0.950 . S
C731 C729 1.387 . S
C731 C733 1.390 . S
C731 H735 0.950 . S
H732 C728 0.950 . S
C733 C731 1.390 . S
C733 C734 1.387 . S
C733 H736 0.950 . S
C734 C733 1.387 . S
C734 C737 1.387 . S
H735 C731 0.950 . S
H736 C733 0.950 . S
C737 C728 1.390 . S
C737 H730 0.950 . S
C737 C734 1.387 . S
C738 C739 1.387 . S
C738 H742 0.950 . S
C738 C747 1.390 . S
C739 C738 1.387 . S
C739 C741 1.387 . S
H740 C747 0.950 . S
C741 C739 1.387 . S
C741 C743 1.390 . S
C741 H745 0.950 . S
H742 C738 0.950 . S
C743 C741 1.390 . S
C743 C744 1.387 . S
C743 H746 0.950 . S
C744 C743 1.387 . S
C744 C747 1.387 . S
H745 C741 0.950 . S
H746 C743 0.950 . S
C747 C738 1.390 . S
C747 H740 0.950 . S
C747 C744 1.387 . S
C748 C749 1.387 . S
C748 H752 0.950 . S
C748 C757 1.390 . S
C749 C748 1.387 . S
C749 C751 1.387 . S
H750 C757 0.950 . S
C751 C749 1.387 . S
C751 C753 1.390 . S
C751 H755 0.950 . S
H752 C748 0.950 . S
C753 C751 1.390 . S
C753 C754 1.387 . S
C753 H756 0.950 . S
C754 C753 1.387 . S
C754 C757 1.387 . S
H755 C751 0.950 . S
H756 C753 0.950 . S
C757 C748 1.390 . S
C757 H750 0.950 . S
C757 C754 1.387 . S
C758 C759 1.387 . S
C758 H762 0.950 . S
C758 C767 1.390 . S
C759 C758 1.387 . S
C759 C761 1.387 . S
H760 C767 0.950 . S
C761 C759 1.387 . S
C761 C763 1.390 . S
C761 H765 0.950 . S
H762 C758 0.950 . S
C763 C761 1.390 . S
C763 C764 1.387 . S
C763 H766 0.950 . S
C764 C763 1.387 . S
C764 C767 1.387 . S
H765 C761 0.950 . S
H766 C763 0.950 . S
C767 C758 1.390 . S
C767 H760 0.950 . S
C767 C764 1.387 . S
C768 C769 1.387 . S
C768 H772 0.950 . S
C768 C777 1.390 . S
C769 C768 1.387 . S
C769 C771 1.387 . S
H770 C777 0.950 . S
C771 C769 1.387 . S
C771 C773 1.390 . S
C771 H775 0.950 . S
H772 C768 0.950 . S
C773 C771 1.390 . S
C773 C774 1.387 . S
C773 H776 0.950 . S
C774 C773 1.387 . S
C774 C777 1.387 . S
H775 C771 0.950 . S
H776 C773 0.950 . S
C777 C768 1.390 . S
C777 H770 0.950 . S
C777 C774 1.387 . S
C778 C779 1.387 . S
C778 H782 0.950 . S
C778 C787 1.390 . S
C779 C778 1.387 . S
C779 C781 1.387 . S
H780 C787 0.950 . S
C781 C779 1.387 . S
C781 C783 1.390 . S
C781 H785 0.950 . S
H782 C778 0.950 . S
C783 C781 1.390 . S
C783 C784 1.387 . S
C783 H786 0.950 . S
C784 C783 1.387 . S
C784 C787 1.387 . S
H785 C781 0.950 . S
H786 C783 0.950 . S
C787 C778 1.390 . S
C787 H780 0.950 . S
C787 C784 1.387 . S
C788 C789 1.387 . S
C788 H792 0.950 . S
C788 C797 1.390 . S
C789 C788 1.387 . S
C789 C791 1.387 . S
H790 C797 0.950 . S
C791 C789 1.387 . S
C791 C793 1.390 . S
C791 H795 0.950 . S
H792 C788 0.950 . S
C793 C791 1.390 . S
C793 C794 1.387 . S
C793 H796 0.950 . S
C794 C793 1.387 . S
C794 C797 1.387 . S
H795 C791 0.950 . S
H796 C793 0.950 . S
C797 C788 1.390 . S
C797 H790 0.950 . S
C797 C794 1.387 . S
C798 C799 1.387 . S
C798 H802 0.950 . S
C798 C807 1.390 . S
C799 C798 1.387 . S
C799 C801 1.387 . S
H800 C807 0.950 . S
C801 C799 1.387 . S
C801 C803 1.390 . S
C801 H805 0.950 . S
H802 C798 0.950 . S
C803 C801 1.390 . S
C803 C804 1.387 . S
C803 H806 0.950 . S
C804 C803 1.387 . S
C804 C807 1.387 . S
H805 C801 0.950 . S
H806 C803 0.950 . S
C807 C798 1.390 . S
C807 H800 0.950 . S
C807 C804 1.387 . S
C808 C809 1.387 . S
C808 H812 0.950 . S
C808 C817 1.390 . S
C809 C808 1.387 . S
C809 C811 1.387 . S
H810 C817 0.950 . S
C811 C809 1.387 . S
C811 C813 1.390 . S
C811 H815 0.950 . S
H812 C808 0.950 . S
C813 C811 1.390 . S
C813 C814 1.387 . S
C813 H816 0.950 . S
C814 C813 1.387 . S
C814 C817 1.387 . S
H815 C811 0.950 . S
H816 C813 0.950 . S
C817 C808 1.390 . S
C817 H810 0.950 . S
C817 C814 1.387 . S
C818 C819 1.387 . S
C818 H822 0.950 . S
C818 C827 1.390 . S
C819 C818 1.387 . S
C819 C821 1.387 . S
H820 C827 0.950 . S
C821 C819 1.387 . S
C821 C823 1.390 . S
C821 H825 0.950 . S
H822 C818 0.950 . S
C823 C821 1.390 . S
C823 C824 1.387 . S
C823 H826 0.950 . S
C824 C823 1.387 . S
C824 C827 1.387 . S
H825 C821 0.950 . S
H826 C823 0.950 . S
C827 C818 1.390 . S
C827 H820 0.950 . S
C827 C824 1.387 . S
C828 C829 1.387 . S
C828 H832 0.950 . S
C828 C837 1.390 1_655 S
C829 C828 1.387 . S
C829 C831 1.387 . S
H830 C837 0.950 . S
C831 C829 1.387 . S
C831 C833 1.390 1_655 S
C831 H835 0.950 . S
H832 C828 0.950 . S
C833 C831 1.390 1_455 S
C833 C834 1.387 . S
C833 H836 0.950 . S
C834 C833 1.387 . S
C834 C837 1.387 . S
H835 C831 0.950 . S
H836 C833 0.950 . S
C837 C828 1.390 1_455 S
C837 H830 0.950 . S
C837 C834 1.387 . S
C838 C839 1.387 . S
C838 H842 0.950 . S
C838 C847 1.390 1_565 S
C839 C838 1.387 . S
C839 C841 1.387 . S
H840 C847 0.950 . S
C841 C839 1.387 . S
C841 C843 1.390 1_565 S
C841 H845 0.950 . S
H842 C838 0.950 . S
C843 C841 1.390 1_545 S
C843 C844 1.387 . S
C843 H846 0.950 . S
C844 C843 1.387 . S
C844 C847 1.387 . S
H845 C841 0.950 . S
H846 C843 0.950 . S
C847 C838 1.390 1_545 S
C847 H840 0.950 . S
C847 C844 1.387 . S
C848 C849 1.387 . S
C848 H852 0.950 . S
C848 C857 1.390 . S
C849 C848 1.387 . S
C849 C851 1.387 . S
H850 C857 0.950 . S
C851 C849 1.387 . S
C851 C853 1.390 . S
C851 H855 0.950 . S
H852 C848 0.950 . S
C853 C851 1.390 . S
C853 C854 1.387 . S
C853 H856 0.950 . S
C854 C853 1.387 . S
C854 C857 1.387 . S
H855 C851 0.950 . S
H856 C853 0.950 . S
C857 C848 1.390 . S
C857 H850 0.950 . S
C857 C854 1.387 . S
C858 C859 1.387 . S
C858 H862 0.950 . S
C858 C867 1.390 1_455 S
C859 C858 1.387 . S
C859 C861 1.387 . S
H860 C867 0.950 . S
C861 C859 1.387 . S
C861 C863 1.390 1_455 S
C861 H865 0.950 . S
H862 C858 0.950 . S
C863 C861 1.390 1_655 S
C863 C864 1.387 . S
C863 H866 0.950 . S
C864 C863 1.387 . S
C864 C867 1.387 . S
H865 C861 0.950 . S
H866 C863 0.950 . S
C867 C858 1.390 1_655 S
C867 H860 0.950 . S
C867 C864 1.387 . S
C868 C869 1.387 . S
C868 H872 0.950 . S
C868 C877 1.390 1_546 S
C869 C868 1.387 . S
C869 C871 1.387 . S
H870 C877 0.950 . S
C871 C869 1.387 . S
C871 C873 1.390 1_546 S
C871 H875 0.950 . S
H872 C868 0.950 . S
C873 C871 1.390 1_564 S
C873 C874 1.387 . S
C873 H876 0.950 . S
C874 C873 1.387 . S
C874 C877 1.387 . S
H875 C871 0.950 . S
H876 C873 0.950 . S
C877 C868 1.390 1_564 S
C877 H870 0.950 . S
C877 C874 1.387 . S
C878 C879 1.387 . S
C878 H882 0.950 . S
C878 C887 1.390 . S
C879 C878 1.387 . S
C879 C881 1.387 . S
H880 C887 0.950 . S
C881 C879 1.387 . S
C881 C883 1.390 . S
C881 H885 0.950 . S
H882 C878 0.950 . S
C883 C881 1.390 . S
C883 C884 1.387 . S
C883 H886 0.950 . S
C884 C883 1.387 . S
C884 C887 1.387 . S
H885 C881 0.950 . S
H886 C883 0.950 . S
C887 C878 1.390 . S
C887 H880 0.950 . S
C887 C884 1.387 . S
C888 C889 1.387 . S
C888 H892 0.950 . S
C888 C897 1.390 . S
C889 C888 1.387 . S
C889 C891 1.387 . S
H890 C897 0.950 . S
C891 C889 1.387 . S
C891 C893 1.390 . S
C891 H895 0.950 . S
H892 C888 0.950 . S
C893 C891 1.390 . S
C893 C894 1.387 . S
C893 H896 0.950 . S
C894 C893 1.387 . S
C894 C897 1.387 . S
H895 C891 0.950 . S
H896 C893 0.950 . S
C897 C888 1.390 . S
C897 H890 0.950 . S
C897 C894 1.387 . S
C898 C899 1.387 . S
C898 H902 0.950 . S
C898 C907 1.390 . S
C899 C898 1.387 . S
C899 C901 1.387 . S
H900 C907 0.950 . S
C901 C899 1.387 . S
C901 C903 1.390 . S
C901 H905 0.950 . S
H902 C898 0.950 . S
C903 C901 1.390 . S
C903 C904 1.387 . S
C903 H906 0.950 . S
C904 C903 1.387 . S
C904 C907 1.387 . S
H905 C901 0.950 . S
H906 C903 0.950 . S
C907 C898 1.390 . S
C907 H900 0.950 . S
C907 C904 1.387 . S
C908 C909 1.387 . S
C908 H912 0.950 . S
C908 C917 1.390 . S
C909 C908 1.387 . S
C909 C911 1.387 . S
H910 C917 0.950 . S
C911 C909 1.387 . S
C911 C913 1.390 . S
C911 H915 0.950 . S
H912 C908 0.950 . S
C913 C911 1.390 . S
C913 C914 1.387 . S
C913 H916 0.950 . S
C914 C913 1.387 . S
C914 C917 1.387 . S
H915 C911 0.950 . S
H916 C913 0.950 . S
C917 C908 1.390 . S
C917 H910 0.950 . S
C917 C914 1.387 . S
C918 C919 1.387 . S
C918 H922 0.950 . S
C918 C927 1.390 . S
C919 C918 1.387 . S
C919 C921 1.387 . S
H920 C927 0.950 . S
C921 C919 1.387 . S
C921 C923 1.390 . S
C921 H925 0.950 . S
H922 C918 0.950 . S
C923 C921 1.390 . S
C923 C924 1.387 . S
C923 H926 0.950 . S
C924 C923 1.387 . S
C924 C927 1.387 . S
H925 C921 0.950 . S
H926 C923 0.950 . S
C927 C918 1.390 . S
C927 H920 0.950 . S
C927 C924 1.387 . S
C928 C929 1.387 . S
C928 H932 0.950 . S
C928 C937 1.390 . S
C929 C928 1.387 . S
C929 C931 1.387 . S
H930 C937 0.950 . S
C931 C929 1.387 . S
C931 C933 1.390 . S
C931 H935 0.950 . S
H932 C928 0.950 . S
C933 C931 1.390 . S
C933 C934 1.387 . S
C933 H936 0.950 . S
C934 C933 1.387 . S
C934 C937 1.387 . S
H935 C931 0.950 . S
H936 C933 0.950 . S
C937 C928 1.390 . S
C937 H930 0.950 . S
C937 C934 1.387 . S
C938 C939 1.387 . S
C938 H942 0.950 . S
C938 C947 1.390 . S
C939 C938 1.387 . S
C939 C941 1.387 . S
H940 C947 0.950 . S
C941 C939 1.387 . S
C941 C943 1.390 . S
C941 H945 0.950 . S
H942 C938 0.950 . S
C943 C941 1.390 . S
C943 C944 1.387 . S
C943 H946 0.950 . S
C944 C943 1.387 . S
C944 C947 1.387 . S
H945 C941 0.950 . S
H946 C943 0.950 . S
C947 C938 1.390 . S
C947 H940 0.950 . S
C947 C944 1.387 . S
C709 C33 1.174 . S
C714 C406 1.171 . S
C719 C111 1.171 . S
C724 C446 1.174 . S
C729 C524 1.171 . S
C734 C170 1.171 . S
C739 C210 1.176 . S
C744 C583 1.170 . S
C749 C288 1.170 . S
C754 C623 1.176 . S
C759 C701 1.171 . S
C764 C347 1.171 . S
C769 C505 1.715 . S
C774 C52 1.736 . S
C779 C92 1.715 . S
C784 C564 1.715 . S
C789 C642 1.735 1_556 S
C794 C151 1.714 . S
C799 C682 1.714 . S
C804 C229 1.736 1_554 S
C809 C269 1.715 . S
C814 C387 1.715 . S
C819 C328 1.713 . S
C824 C465 1.734 . S
C829 C654 1.479 . S
C834 C3 1.481 . S
C839 C359 1.477 . S
C844 C64 1.477 . S
C849 C123 1.479 . S
C854 C416 1.481 . S
C859 C477 1.479 . S
C864 C180 1.482 . S
C869 C536 1.477 . S
C874 C241 1.477 . S
C879 C593 1.481 . S
C884 C300 1.479 . S
C889 C5 1.344 . S
C894 C595 1.344 . S
C899 C652 1.328 . S
C904 C62 1.331 . S
C909 C121 1.330 . S
C914 C357 1.328 . S
C919 C182 1.344 . S
C924 C418 1.344 . S
C929 C239 1.328 . S
C934 C475 1.331 . S
C939 C298 1.330 . S
C944 C534 1.328 . S
