# Generated by pormake.
# Topology uov, (4)-cn, num edge types: 1
# Building blocks:
#     Node 0, Type 0, BuildingBlock: TATPOV_clean_sbu_0, # of connection points: 4
#     Node 1, Type 0, BuildingBlock: TATPOV_clean_sbu_0, # of connection points: 4
#     Node 2, Type 0, BuildingBlock: TATPOV_clean_sbu_0, # of connection points: 4
#     Node 3, Type 0, BuildingBlock: TATPOV_clean_sbu_0, # of connection points: 4
#     Node 4, Type 0, BuildingBlock: TATPOV_clean_sbu_0, # of connection points: 4
#     Node 5, Type 0, BuildingBlock: TATPOV_clean_sbu_0, # of connection points: 4
#     Node 6, Type 0, BuildingBlock: TATPOV_clean_sbu_0, # of connection points: 4
#     Node 7, Type 0, BuildingBlock: TATPOV_clean_sbu_0, # of connection points: 4
#     Edge 8, Type (0, 0), BuildingBlock: TEMPAE_clean_linker_10, # of connection points: 2
#     Edge 9, Type (0, 0), BuildingBlock: TEMPAE_clean_linker_10, # of connection points: 2
#     Edge 10, Type (0, 0), BuildingBlock: TEMPAE_clean_linker_10, # of connection points: 2
#     Edge 11, Type (0, 0), BuildingBlock: TEMPAE_clean_linker_10, # of connection points: 2
#     Edge 12, Type (0, 0), BuildingBlock: TEMPAE_clean_linker_10, # of connection points: 2
#     Edge 13, Type (0, 0), BuildingBlock: TEMPAE_clean_linker_10, # of connection points: 2
#     Edge 14, Type (0, 0), BuildingBlock: TEMPAE_clean_linker_10, # of connection points: 2
#     Edge 15, Type (0, 0), BuildingBlock: TEMPAE_clean_linker_10, # of connection points: 2
#     Edge 16, Type (0, 0), BuildingBlock: TEMPAE_clean_linker_10, # of connection points: 2
#     Edge 17, Type (0, 0), BuildingBlock: TEMPAE_clean_linker_10, # of connection points: 2
#     Edge 18, Type (0, 0), BuildingBlock: TEMPAE_clean_linker_10, # of connection points: 2
#     Edge 19, Type (0, 0), BuildingBlock: TEMPAE_clean_linker_10, # of connection points: 2
#     Edge 20, Type (0, 0), BuildingBlock: TEMPAE_clean_linker_10, # of connection points: 2
#     Edge 21, Type (0, 0), BuildingBlock: TEMPAE_clean_linker_10, # of connection points: 2
#     Edge 22, Type (0, 0), BuildingBlock: TEMPAE_clean_linker_10, # of connection points: 2
#     Edge 23, Type (0, 0), BuildingBlock: TEMPAE_clean_linker_10, # of connection points: 2
# Relax obj value: 0.178
# Max RMSD: 0.193
# Mean RMSD: 0.193
data_MOF--net-uov--node1-TATPOV_clean_sbu_0--edge1-TEMPAE_clean_linker_10
_symmetry_space_group_name_H-M    P1
_symmetry_Int_Tables_number       1
_symmetry_cell_setting            triclinic
loop_
_symmetry_equiv_pos_as_xyz
'x, y, z'
_cell_length_a     30.019789
_cell_length_b     30.046728
_cell_length_c     43.680146
_cell_angle_alpha  89.924863
_cell_angle_beta   90.041041
_cell_angle_gamma 89.820451
loop_
_atom_site_label
_atom_site_type_symbol
_atom_site_fract_x
_atom_site_fract_y
_atom_site_fract_z
_atom_type_partial_charge
Zn0 Zn 0.095 0.17734 0.59821 0.0
Zn1 Zn 0.09294 0.26229 0.59562 0.0
O2 O 0.02787 0.23996 0.59332 0.0
O3 O 0.02937 0.16889 0.60453 0.0
O4 O 0.08268 0.32851 0.5959 0.0
O5 O 0.13831 0.1769 0.6324 0.0
O6 O 0.12986 0.24962 0.63523 0.0
C7 C 0.0073 0.20352 0.59795 0.0
C8 C 0.13197 0.21189 0.54229 0.0
O9 O 0.12671 0.24956 0.55522 0.0
O10 O 0.11904 0.17684 0.55566 0.0
C11 C 0.05771 0.34473 0.57514 0.0
O12 O 0.04264 0.31827 0.55358 0.0
C13 C 0.14709 0.21351 0.6452 0.0
Zn14 Zn 0.1862 0.99401 0.358 0.0
Zn15 Zn 0.26854 0.98163 0.3776 0.0
O16 O 0.25664 0.04937 0.37521 0.0
O17 O 0.18975 0.06059 0.35654 0.0
O18 O 0.33257 0.98232 0.39063 0.0
O19 O 0.19914 0.95749 0.32076 0.0
O20 O 0.26543 0.94112 0.33935 0.0
C21 C 0.22578 0.0761 0.36698 0.0
C22 C 0.19425 0.94872 0.4175 0.0
O23 O 0.23595 0.95325 0.41338 0.0
O24 O 0.16697 0.96315 0.39757 0.0
C25 C 0.36287 0.95445 0.38391 0.0
O26 O 0.353 0.91962 0.36709 0.0
C27 C 0.23546 0.93618 0.31898 0.0
Zn28 Zn 0.93684 0.83856 0.60741 0.0
Zn29 Zn 0.94396 0.75467 0.59321 0.0
O30 O 0.00486 0.78427 0.58405 0.0
O31 O 0.00038 0.85373 0.59924 0.0
O32 O 0.95904 0.69032 0.58554 0.0
O33 O 0.91595 0.8261 0.64947 0.0
O34 O 0.91664 0.75515 0.63708 0.0
C35 C 0.02261 0.82251 0.58727 0.0
C36 C 0.8823 0.81049 0.55531 0.0
O37 O 0.89904 0.77207 0.55998 0.0
O38 O 0.89276 0.84269 0.5726 0.0
C39 C 0.93766 0.65738 0.59624 0.0
O40 O 0.90179 0.66458 0.61275 0.0
C41 C 0.90819 0.78599 0.65628 0.0
Zn42 Zn 0.85091 0.06105 0.3744 0.0
Zn43 Zn 0.76529 0.06926 0.38747 0.0
O44 O 0.78002 0.00228 0.38877 0.0
O45 O 0.85009 0.99428 0.37565 0.0
O46 O 0.69915 0.067 0.39333 0.0
O47 O 0.84274 0.09389 0.33516 0.0
O48 O 0.77195 0.10316 0.34655 0.0
C49 C 0.8135 0.9772 0.3838 0.0
C50 C 0.83151 0.10943 0.4311 0.0
O51 O 0.79071 0.10256 0.4246 0.0
O52 O 0.86188 0.09525 0.41342 0.0
C53 C 0.68269 0.04188 0.41382 0.0
O54 O 0.7096 0.02136 0.43297 0.0
C55 C 0.8048 0.10972 0.32865 0.0
Zn56 Zn 0.90692 0.1764 0.09017 0.0
Zn57 Zn 0.89818 0.25751 0.07408 0.0
O58 O 0.96562 0.24388 0.07759 0.0
O59 O 0.97227 0.17871 0.09965 0.0
O60 O 0.90019 0.32312 0.06547 0.0
O61 O 0.86082 0.1815 0.12234 0.0
O62 O 0.85955 0.25364 0.11357 0.0
C63 C 0.99026 0.21317 0.08861 0.0
C64 C 0.87062 0.18631 0.02947 0.0
O65 O 0.86992 0.22771 0.03595 0.0
O66 O 0.88703 0.1588 0.04837 0.0
C67 C 0.929 0.33801 0.04678 0.0
O68 O 0.95308 0.30965 0.03092 0.0
C69 C 0.84619 0.21986 0.12864 0.0
Zn70 Zn 0.1666 0.03827 0.88841 0.0
Zn71 Zn 0.24935 0.04999 0.90288 0.0
O72 O 0.23249 0.98436 0.91229 0.0
O73 O 0.16446 0.97298 0.89588 0.0
O74 O 0.3158 0.04776 0.90953 0.0
O75 O 0.17346 0.06207 0.84654 0.0
O76 O 0.24295 0.0765 0.85894 0.0
C77 C 0.19941 0.95839 0.90856 0.0
C78 C 0.18186 0.09883 0.94011 0.0
O79 O 0.22319 0.09148 0.93563 0.0
O80 O 0.15304 0.08025 0.9232 0.0
C81 C 0.33133 0.02615 0.93223 0.0
O82 O 0.30352 0.00965 0.95247 0.0
C83 C 0.21091 0.07838 0.83975 0.0
Zn84 Zn 0.03684 0.80837 0.13854 0.0
Zn85 Zn 0.04823 0.72485 0.12171 0.0
O86 O 0.98115 0.74078 0.11858 0.0
O87 O 0.97042 0.80896 0.13484 0.0
O88 O 0.04591 0.66045 0.10956 0.0
O89 O 0.06617 0.79512 0.17857 0.0
O90 O 0.08274 0.72743 0.16279 0.0
C91 C 0.95491 0.77331 0.1239 0.0
C92 C 0.09097 0.79557 0.08323 0.0
O93 O 0.084 0.75437 0.08785 0.0
O94 O 0.07466 0.82434 0.10132 0.0
C95 C 0.02658 0.65269 0.0842 0.0
O96 O 0.01305 0.68651 0.06745 0.0
C97 C 0.0854 0.75811 0.18283 0.0
Zn98 Zn 0.81548 0.89792 0.88793 0.0
Zn99 Zn 0.73062 0.89335 0.89724 0.0
O100 O 0.74685 0.95963 0.89145 0.0
O101 O 0.81601 0.96248 0.87562 0.0
O102 O 0.66442 0.89925 0.90406 0.0
O103 O 0.81164 0.84906 0.85741 0.0
O104 O 0.73832 0.85176 0.85949 0.0
C105 C 0.78006 0.98229 0.88223 0.0
C106 C 0.79455 0.86671 0.94817 0.0
O107 O 0.7548 0.86678 0.93783 0.0
O108 O 0.826 0.88113 0.93165 0.0
C109 C 0.65263 0.9275 0.9242 0.0
O110 O 0.68362 0.9477 0.94022 0.0
C111 C 0.77409 0.8357 0.84817 0.0
C112 C 0.99426 0.6044 0.57506 0.0
C113 C 0.95472 0.61154 0.59151 0.0
C114 C 0.01197 0.56146 0.57145 0.0
C115 C 0.98961 0.52472 0.58458 0.0
C116 C 0.9494 0.53157 0.60087 0.0
C117 C 0.93244 0.57492 0.60415 0.0
C118 C 0.05489 0.55546 0.55389 0.0
C119 C 0.92455 0.49315 0.61512 0.0
C120 C 0.01338 0.4086 0.55432 0.0
C121 C 0.04246 0.39163 0.57667 0.0
C122 C 0.99628 0.452 0.55644 0.0
C123 C 0.00851 0.47911 0.58153 0.0
C124 C 0.03844 0.4625 0.60389 0.0
C125 C 0.05509 0.41896 0.60118 0.0
C126 C 0.96459 0.46862 0.53208 0.0
C127 C 0.05232 0.49047 0.63094 0.0
H128 H 0.01175 0.63246 0.56519 0.0
H129 H 0.90189 0.5801 0.61689 0.0
H130 H 0.08067 0.54058 0.569 0.0
H131 H 0.04974 0.53213 0.53455 0.0
H132 H 0.06778 0.58739 0.54465 0.0
H133 H 0.89338 0.50399 0.62663 0.0
H134 H 0.91602 0.46828 0.59732 0.0
H135 H 0.94608 0.47617 0.6322 0.0
H136 H 0.00342 0.38775 0.53529 0.0
H137 H 0.0775 0.40613 0.61857 0.0
H138 H 0.97764 0.49961 0.52162 0.0
H139 H 0.93192 0.47687 0.54253 0.0
H140 H 0.9592 0.44373 0.51367 0.0
H141 H 0.06756 0.52197 0.62289 0.0
H142 H 0.07654 0.47296 0.646 0.0
H143 H 0.02262 0.4995 0.64473 0.0
C144 C 0.60754 0.04694 0.38945 0.0
C145 C 0.63464 0.03101 0.41326 0.0
C146 C 0.56309 0.03338 0.38673 0.0
C147 C 0.54515 0.00347 0.40849 0.0
C148 C 0.57185 0.98829 0.43312 0.0
C149 C 0.61639 0.00214 0.43515 0.0
C150 C 0.53564 0.05027 0.36011 0.0
C151 C 0.55364 0.95677 0.45694 0.0
C152 C 0.41909 0.00065 0.41146 0.0
C153 C 0.40949 0.9639 0.39278 0.0
C154 C 0.46316 0.01288 0.41778 0.0
C155 C 0.49852 0.98783 0.40505 0.0
C156 C 0.48914 0.94965 0.38721 0.0
C157 C 0.44467 0.93806 0.38133 0.0
C158 C 0.47183 0.05362 0.43709 0.0
C159 C 0.52606 0.92209 0.3733 0.0
H160 H 0.62136 0.06918 0.37239 0.0
H161 H 0.6371 0.9897 0.45364 0.0
H162 H 0.52466 0.02187 0.34579 0.0
H163 H 0.50521 0.06724 0.36863 0.0
H164 H 0.5544 0.0739 0.34543 0.0
H165 H 0.57815 0.9496 0.47537 0.0
H166 H 0.52311 0.97099 0.46742 0.0
H167 H 0.54408 0.92492 0.44597 0.0
H168 H 0.39211 0.02064 0.42064 0.0
H169 H 0.43756 0.90956 0.36698 0.0
H170 H 0.48722 0.07993 0.42277 0.0
H171 H 0.49566 0.04563 0.45573 0.0
H172 H 0.44083 0.06723 0.44738 0.0
H173 H 0.54432 0.94231 0.35616 0.0
H174 H 0.51332 0.89168 0.36185 0.0
H175 H 0.55038 0.91203 0.39116 0.0
C176 C 0.97882 0.40091 0.03175 0.0
C177 C 0.9405 0.38589 0.04692 0.0
C178 C 0.99363 0.44489 0.03515 0.0
C179 C 0.9694 0.47453 0.05405 0.0
C180 C 0.92957 0.46017 0.06825 0.0
C181 C 0.91562 0.416 0.06454 0.0
C182 C 0.03619 0.45906 0.01958 0.0
C183 C 0.9026 0.49097 0.08835 0.0
C184 C 0.02874 0.57036 0.09301 0.0
C185 C 0.01514 0.60669 0.07509 0.0
C186 C 0.01497 0.52699 0.08592 0.0
C187 C 0.98683 0.51984 0.06037 0.0
C188 C 0.97396 0.55619 0.04171 0.0
C189 C 0.98834 0.59918 0.04927 0.0
C190 C 0.02957 0.48897 0.10627 0.0
C191 C 0.94396 0.54986 0.0143 0.0
H192 H 0.99828 0.37788 0.01809 0.0
H193 H 0.88587 0.40474 0.07622 0.0
H194 H 0.03067 0.49011 0.00633 0.0
H195 H 0.06195 0.46627 0.0371 0.0
H196 H 0.04931 0.43307 0.00389 0.0
H197 H 0.87095 0.47556 0.09609 0.0
H198 H 0.9224 0.50016 0.10884 0.0
H199 H 0.89468 0.52221 0.07589 0.0
H200 H 0.04953 0.57587 0.11294 0.0
H201 H 0.97762 0.62705 0.03529 0.0
H202 H 0.04583 0.46263 0.0924 0.0
H203 H 5e-05 0.47383 0.1174 0.0
H204 H 0.05314 0.49981 0.12439 0.0
H205 H 0.95816 0.52435 -0.00126 0.0
H206 H 0.93896 0.58119 0.0012 0.0
H207 H 0.91097 0.53758 0.02194 0.0
C208 C 0.40924 0.032 0.91209 0.0
C209 C 0.37937 0.01474 0.93371 0.0
C210 C 0.45399 0.01829 0.91158 0.0
C211 C 0.4692 0.98641 0.93312 0.0
C212 C 0.4395 0.96965 0.95545 0.0
C213 C 0.39499 0.98411 0.95554 0.0
C214 C 0.48479 0.03726 0.88758 0.0
C215 C 0.45447 0.9356 0.97878 0.0
C216 C 0.57165 0.91875 0.91146 0.0
C217 C 0.60531 0.9407 0.92774 0.0
C218 C 0.52708 0.93287 0.91337 0.0
C219 C 0.51598 0.96998 0.93186 0.0
C220 C 0.5497 0.99186 0.94869 0.0
C221 C 0.5939 0.97688 0.94651 0.0
C222 C 0.49196 0.90848 0.89526 0.0
C223 C 0.53922 0.03165 0.96855 0.0
H224 H 0.39749 0.05572 0.89517 0.0
H225 H 0.37216 0.97048 0.9723 0.0
H226 H 0.51444 0.05224 0.89865 0.0
H227 H 0.49687 0.01021 0.87241 0.0
H228 H 0.46823 0.06302 0.87325 0.0
H229 H 0.42761 0.92687 -0.00481 0.0
H230 H 0.46547 0.90481 0.96696 0.0
H231 H 0.48344 0.94835 0.99184 0.0
H232 H 0.58016 0.89075 0.89695 0.0
H233 H 0.61967 0.99419 0.95911 0.0
H234 H 0.47637 0.93143 0.87843 0.0
H235 H 0.46518 0.89671 0.91075 0.0
H236 H 0.50581 0.8794 0.88274 0.0
H237 H 0.52523 0.05889 0.95427 0.0
H238 H 0.56911 0.04436 0.98069 0.0
H239 H 0.5136 0.0228 0.98578 0.0
C240 C 0.18821 0.14917 0.37522 0.0
C241 C 0.22687 0.12295 0.37758 0.0
C242 C 0.17889 0.18172 0.39733 0.0
C243 C 0.20898 0.18758 0.4219 0.0
C244 C 0.25234 0.16934 0.4197 0.0
C245 C 0.26089 0.13674 0.39746 0.0
C246 C 0.13351 0.2033 0.39756 0.0
C247 C 0.28674 0.17771 0.44415 0.0
C248 C 0.16871 0.24437 0.49521 0.0
C249 C 0.15258 0.20758 0.51161 0.0
C250 C 0.18793 0.23892 0.46599 0.0
C251 C 0.19033 0.19581 0.45293 0.0
C252 C 0.17404 0.15872 0.46958 0.0
C253 C 0.15566 0.16513 0.49853 0.0
C254 C 0.20455 0.27946 0.44918 0.0
C255 C 0.17559 0.11182 0.45691 0.0
H256 H 0.16254 0.14033 0.35888 0.0
H257 H 0.29189 0.11819 0.39852 0.0
H258 H 0.11104 0.1839 0.41268 0.0
H259 H 0.13541 0.2377 0.40663 0.0
H260 H 0.11868 0.20419 0.37426 0.0
H261 H 0.32097 0.17192 0.43533 0.0
H262 H 0.28418 0.21224 0.453 0.0
H263 H 0.28103 0.1545 0.46355 0.0
H264 H 0.16631 0.27735 0.50511 0.0
H265 H 0.14333 0.1364 0.51088 0.0
H266 H 0.17667 0.29412 0.43582 0.0
H267 H 0.23193 0.27133 0.43307 0.0
H268 H 0.21636 0.30522 0.46548 0.0
H269 H 0.15692 0.11012 0.43502 0.0
H270 H 0.161 0.08699 0.47284 0.0
H271 H 0.21055 0.10187 0.45231 0.0
C272 C 0.20652 0.90942 0.46767 0.0
C273 C 0.17723 0.92668 0.4455 0.0
C274 C 0.19026 0.88868 0.49427 0.0
C275 C 0.14372 0.88531 0.49876 0.0
C276 C 0.11409 0.9025 0.47639 0.0
C277 C 0.13119 0.92289 0.4501 0.0
C278 C 0.22276 0.87066 0.51762 0.0
C279 C 0.06413 0.89967 0.48029 0.0
C280 C 0.08154 0.8044 0.54881 0.0
C281 C 0.06463 0.83337 0.57117 0.0
C282 C 0.1116 0.81968 0.52658 0.0
C283 C 0.12502 0.86481 0.52693 0.0
C284 C 0.11259 0.89242 0.55173 0.0
C285 C 0.08256 0.8763 0.57363 0.0
C286 C 0.12478 0.7889 0.50084 0.0
C287 C 0.1267 0.94055 0.55327 0.0
H288 H 0.24217 0.91215 0.46428 0.0
H289 H 0.10828 0.93606 0.43315 0.0
H290 H 0.21832 0.8883 0.5397 0.0
H291 H 0.21614 0.8349 0.52192 0.0
H292 H 0.25792 0.87443 0.51017 0.0
H293 H 0.04574 0.91427 0.46059 0.0
H294 H 0.05392 0.86441 0.48287 0.0
H295 H 0.05389 0.91748 0.50139 0.0
H296 H 0.06838 0.77096 0.54694 0.0
H297 H 0.07036 0.89868 0.5912 0.0
H298 H 0.16016 0.79375 0.49438 0.0
H299 H 0.10411 0.79646 0.4804 0.0
H300 H 0.11966 0.75341 0.50706 0.0
H301 H 0.1622 0.94433 0.5468 0.0
H302 H 0.12171 0.95474 0.5765 0.0
H303 H 0.10654 0.96031 0.5368 0.0
C304 C 0.85316 0.90811 0.39951 0.0
C305 C 0.81272 0.93054 0.39469 0.0
C306 C 0.85613 0.87376 0.42112 0.0
C307 C 0.81748 0.86112 0.43748 0.0
C308 C 0.77538 0.87696 0.42775 0.0
C309 C 0.77343 0.91233 0.40675 0.0
C310 C 0.90163 0.85621 0.42974 0.0
C311 C 0.73302 0.86082 0.44249 0.0
C312 C 0.84854 0.78756 0.50493 0.0
C313 C 0.85567 0.82001 0.52749 0.0
C314 C 0.8316 0.79944 0.47598 0.0
C315 C 0.82306 0.84484 0.46939 0.0
C316 C 0.8267 0.87696 0.49302 0.0
C317 C 0.84212 0.86392 0.52183 0.0
C318 C 0.82553 0.7635 0.45229 0.0
C319 C 0.81806 0.92597 0.48737 0.0
H320 H 0.88351 0.92082 0.38935 0.0
H321 H 0.74165 0.92825 0.40215 0.0
H322 H 0.91146 0.86982 0.45237 0.0
H323 H 0.90099 0.81945 0.43168 0.0
H324 H 0.92746 0.86564 0.41274 0.0
H325 H 0.70417 0.86492 0.42677 0.0
H326 H 0.73596 0.82529 0.44924 0.0
H327 H 0.72621 0.88059 0.46341 0.0
H328 H 0.85804 0.75329 0.50928 0.0
H329 H 0.84648 0.88908 0.53933 0.0
H330 H 0.85852 0.75389 0.44291 0.0
H331 H 0.80368 0.77422 0.43313 0.0
H332 H 0.81106 0.7333 0.46303 0.0
H333 H 0.84062 0.9385 0.4692 0.0
H334 H 0.82325 0.94649 0.50821 0.0
H335 H 0.78335 0.93119 0.47947 0.0
C336 C 0.88988 0.14089 0.465 0.0
C337 C 0.84469 0.13204 0.45983 0.0
C338 C 0.90468 0.15801 0.4929 0.0
C339 C 0.87346 0.16719 0.5164 0.0
C340 C 0.82743 0.1606 0.51091 0.0
C341 C 0.81355 0.14272 0.48267 0.0
C342 C 0.95421 0.16466 0.49746 0.0
C343 C 0.79285 0.17063 0.53498 0.0
C344 C 0.94065 0.15663 0.58759 0.0
C345 C 0.96038 0.19891 0.58789 0.0
C346 C 0.90598 0.14701 0.56714 0.0
C347 C 0.8908 0.18061 0.54691 0.0
C348 C 0.90449 0.22511 0.55152 0.0
C349 C 0.93949 0.23384 0.57196 0.0
C350 C 0.89079 0.09944 0.56393 0.0
C351 C 0.88691 0.26238 0.53172 0.0
H352 H 0.9142 0.13332 0.44742 0.0
H353 H 0.7785 0.13618 0.47884 0.0
H354 H 0.96115 0.19983 0.50341 0.0
H355 H 0.96622 0.1436 0.51668 0.0
H356 H 0.97385 0.15607 0.47673 0.0
H357 H 0.76047 0.17975 0.52431 0.0
H358 H 0.78739 0.14042 0.5491 0.0
H359 H 0.80341 0.19797 0.55039 0.0
H360 H 0.95549 0.12972 0.60068 0.0
H361 H 0.95344 0.26705 0.57282 0.0
H362 H 0.90764 0.08407 0.54393 0.0
H363 H 0.85436 0.09796 0.55987 0.0
H364 H 0.89896 0.0794 0.58459 0.0
H365 H 0.90529 0.26266 0.50968 0.0
H366 H 0.89152 0.29525 0.54288 0.0
H367 H 0.85104 0.25759 0.52656 0.0
C368 C 0.8192 0.05541 0.88031 0.0
C369 C 0.78037 0.03119 0.88663 0.0
C370 C 0.82816 0.09511 0.89599 0.0
C371 C 0.79783 0.11006 0.91853 0.0
C372 C 0.75483 0.091 0.91992 0.0
C373 C 0.7465 0.05148 0.90386 0.0
C374 C 0.87324 0.1164 0.8923 0.0
C375 C 0.72047 0.10757 0.94237 0.0
C376 C 0.85154 0.12254 -0.00391 0.0
C377 C 0.85177 0.16873 0.00055 0.0
C378 C 0.83398 0.10366 0.9696 0.0
C379 C 0.81595 0.13158 0.94651 0.0
C380 C 0.81582 0.17838 0.95067 0.0
C381 C 0.83394 0.19651 0.97772 0.0
C382 C 0.83491 0.05345 0.96654 0.0
C383 C 0.7976 0.20945 0.92654 0.0
H384 H 0.84486 0.04095 0.86594 0.0
H385 H 0.71554 0.03395 0.90793 0.0
H386 H 0.87088 0.15305 0.8949 0.0
H387 H 0.89599 0.10357 0.91034 0.0
H388 H 0.88807 0.10856 0.86964 0.0
H389 H 0.68633 0.09755 0.93543 0.0
H390 H 0.72745 0.093 0.96525 0.0
H391 H 0.72174 0.14434 0.9445 0.0
H392 H 0.86512 0.10062 0.0135 0.0
H393 H 0.83418 0.23228 0.98091 0.0
H394 H 0.85461 0.0437 0.94613 0.0
H395 H 0.80061 0.04054 0.96351 0.0
H396 H 0.84978 0.03676 0.98685 0.0
H397 H 0.82437 0.21705 0.90985 0.0
H398 H 0.78633 0.2414 0.93676 0.0
H399 H 0.76944 0.19441 0.91381 0.0
C400 C 0.19555 0.14592 0.98705 0.0
C401 C 0.16609 0.12688 0.96582 0.0
C402 C 0.17932 0.16907 0.01281 0.0
C403 C 0.13272 0.17302 0.01724 0.0
C404 C 0.10308 0.15519 -0.0048 0.0
C405 C 0.12014 0.13274 0.96983 0.0
C406 C 0.212 0.1893 0.03501 0.0
C407 C 0.05299 0.15834 -0.00125 0.0
C408 C 0.06326 0.1736 0.08718 0.0
C409 C 0.03846 0.21236 0.08135 0.0
C410 C 0.10064 0.16318 0.06934 0.0
C411 C 0.11332 0.19251 0.04553 0.0
C412 C 0.09434 0.23561 0.04424 0.0
C413 C 0.05665 0.24507 0.06212 0.0
C414 C 0.12129 0.11755 0.07249 0.0
C415 C 0.10911 0.26902 0.0206 0.0
H416 H 0.23116 0.14208 0.98386 0.0
H417 H 0.09701 0.11868 0.95345 0.0
H418 H 0.21418 0.22559 0.03055 0.0
H419 H 0.201 0.18492 0.05906 0.0
H420 H 0.24586 0.17477 0.03242 0.0
H421 H 0.03482 0.14229 0.97957 0.0
H422 H 0.04251 0.14207 0.02039 0.0
H423 H 0.04248 0.19371 -0.00018 0.0
H424 H 0.0505 0.14882 0.10294 0.0
H425 H 0.03877 0.27601 0.05835 0.0
H426 H 0.1577 0.11866 0.06831 0.0
H427 H 0.10631 0.095 0.05522 0.0
H428 H 0.11524 0.10319 0.09556 0.0
H429 H 0.14563 0.26704 0.01694 0.0
H430 H 0.10005 0.30348 0.02745 0.0
H431 H 0.09246 0.2617 -0.00152 0.0
C432 C 0.11771 0.8557 0.0486 0.0
C433 C 0.1164 0.81037 0.05606 0.0
C434 C 0.13863 0.87052 0.02189 0.0
C435 C 0.15941 0.83929 0.0022 0.0
C436 C 0.16003 0.79364 0.0102 0.0
C437 C 0.13806 0.77961 0.03693 0.0
C438 C 0.13707 0.91963 0.01428 0.0
C439 C 0.18242 0.75935 0.99018 0.0
C440 C 0.15842 0.89002 0.92393 0.0
C441 C 0.1974 0.91559 0.92534 0.0
C442 C 0.14788 0.85998 0.94736 0.0
C443 C 0.17733 0.8552 0.97245 0.0
C444 C 0.21988 0.87526 0.97132 0.0
C445 C 0.22948 0.90547 0.9477 0.0
C446 C 0.10262 0.83824 0.94723 0.0
C447 C 0.25307 0.86922 -0.00305 0.0
H448 H 0.10121 0.87974 0.06324 0.0
H449 H 0.13747 0.74449 0.04263 0.0
H450 H 0.17133 0.93265 0.01127 0.0
H451 H 0.119 0.92482 0.99238 0.0
H452 H 0.12024 0.93952 0.03232 0.0
H453 H 0.19113 0.72889 0.00335 0.0
H454 H 0.15935 0.74961 0.97153 0.0
H455 H 0.21311 0.77274 0.97948 0.0
H456 H 0.13398 0.89665 0.9062 0.0
H457 H 0.26028 0.92416 0.94855 0.0
H458 H 0.08036 0.85613 0.96339 0.0
H459 H 0.10499 0.80317 0.95497 0.0
H460 H 0.08705 0.83906 0.92415 0.0
H461 H 0.24373 0.89115 0.01635 0.0
H462 H 0.28733 0.87807 0.98957 0.0
H463 H 0.25302 0.83438 0.00541 0.0
C464 C 0.77333 0.82809 -0.00257 0.0
C465 C 0.80538 0.84899 0.97899 0.0
C466 C 0.78511 0.80963 0.02602 0.0
C467 C 0.82977 0.81266 0.03631 0.0
C468 C 0.86191 0.83437 0.01789 0.0
C469 C 0.8493 0.85218 0.98965 0.0
C470 C 0.74971 0.78746 0.04514 0.0
C471 C 0.91006 0.83857 0.02778 0.0
C472 C 0.88263 0.81164 0.11338 0.0
C473 C 0.90973 0.77378 0.11019 0.0
C474 C 0.84987 0.82164 0.09148 0.0
C475 C 0.84462 0.79321 0.06595 0.0
C476 C 0.866 0.75114 0.06588 0.0
C477 C 0.89839 0.74178 0.08816 0.0
C478 C 0.82609 0.86585 0.09322 0.0
C479 C 0.86003 0.71902 0.0397 0.0
H480 H 0.73924 0.82571 0.98943 0.0
H481 H 0.87434 0.86848 0.97576 0.0
H482 H 0.76279 0.75719 0.05666 0.0
H483 H 0.73854 0.81084 0.06323 0.0
H484 H 0.72022 0.77821 0.03118 0.0
H485 H 0.93075 0.85636 0.01063 0.0
H486 H 0.91213 0.85693 0.04975 0.0
H487 H 0.92477 0.80507 0.03148 0.0
H488 H 0.8901 0.83589 0.13099 0.0
H489 H 0.91821 0.71171 0.08604 0.0
H490 H 0.79145 0.86305 0.08462 0.0
H491 H 0.84378 0.89037 0.07864 0.0
H492 H 0.82537 0.87883 0.11702 0.0
H493 H 0.82491 0.71859 0.03177 0.0
H494 H 0.87015 0.6847 0.04625 0.0
H495 H 0.88111 0.72976 0.02018 0.0
C496 C 0.2109 0.18236 0.67379 0.0
C497 C 0.17492 0.21215 0.67288 0.0
C498 C 0.22878 0.16817 0.70175 0.0
C499 C 0.20942 0.18357 0.72927 0.0
C500 C 0.17736 0.21833 0.72832 0.0
C501 C 0.16042 0.23243 0.6999 0.0
C502 C 0.26392 0.13215 0.70169 0.0
C503 C 0.15666 0.23632 0.75722 0.0
C504 C 0.18412 0.09382 0.78718 0.0
C505 C 0.21521 0.10228 0.81034 0.0
C506 C 0.18257 0.11981 0.76069 0.0
C507 C 0.21305 0.15533 0.7571 0.0
C508 C 0.24586 0.16305 0.77978 0.0
C509 C 0.24656 0.13631 0.80629 0.0
C510 C 0.14742 0.10973 0.73687 0.0
C511 C 0.27898 0.20043 0.77672 0.0
H512 H 0.22256 0.16725 0.65271 0.0
H513 H 0.13272 0.25566 0.69912 0.0
H514 H 0.28809 0.13701 0.7206 0.0
H515 H 0.24773 0.09936 0.70513 0.0
H516 H 0.2823 0.13117 0.67963 0.0
H517 H 0.13969 0.26871 0.75317 0.0
H518 H 0.13159 0.21226 0.76581 0.0
H519 H 0.18217 0.24061 0.77535 0.0
H520 H 0.16009 0.06727 0.79006 0.0
H521 H 0.27045 0.14319 0.82428 0.0
H522 H 0.16338 0.10266 0.71449 0.0
H523 H 0.12527 0.13902 0.73375 0.0
H524 H 0.1265 0.08071 0.74321 0.0
H525 H 0.29191 0.20274 0.75298 0.0
H526 H 0.30752 0.19628 0.79269 0.0
H527 H 0.26221 0.23245 0.78203 0.0
C528 C 0.10498 0.7726 0.23661 0.0
C529 C 0.11762 0.75571 0.2081 0.0
C530 C 0.13673 0.79046 0.25656 0.0
C531 C 0.18194 0.7922 0.24728 0.0
C532 C 0.19554 0.76902 0.22067 0.0
C533 C 0.16298 0.75077 0.20127 0.0
C534 C 0.12081 0.81327 0.28535 0.0
C535 C 0.24352 0.76859 0.21052 0.0
C536 C 0.21956 0.90732 0.26729 0.0
C537 C 0.2382 0.90025 0.29622 0.0
C538 C 0.20606 0.87145 0.24918 0.0
C539 C 0.21064 0.82748 0.26066 0.0
C540 C 0.23462 0.82004 0.28813 0.0
C541 C 0.24836 0.85676 0.30567 0.0
C542 C 0.18195 0.8811 0.21951 0.0
C543 C 0.24145 0.77382 0.30079 0.0
H544 H 0.06983 0.77616 0.24187 0.0
H545 H 0.17277 0.73773 0.17912 0.0
H546 H 0.14353 0.806 0.30476 0.0
H547 H 0.12057 0.84984 0.28169 0.0
H548 H 0.0866 0.80277 0.29173 0.0
H549 H 0.25065 0.7394 0.19571 0.0
H550 H 0.2504 0.79915 0.19706 0.0
H551 H 0.26653 0.76808 0.23041 0.0
H552 H 0.21206 0.94104 0.25997 0.0
H553 H 0.26276 0.85127 0.32814 0.0
H554 H 0.14578 0.87493 0.22255 0.0
H555 H 0.19403 0.85883 0.20106 0.0
H556 H 0.18637 0.91615 0.212 0.0
H557 H 0.21253 0.76487 0.31533 0.0
H558 H 0.27183 0.7722 0.3153 0.0
H559 H 0.24422 0.74872 0.28228 0.0
C560 C 0.85575 0.74168 0.68897 0.0
C561 C 0.88627 0.77663 0.68577 0.0
C562 C 0.82918 0.73811 0.71541 0.0
C563 C 0.83359 0.77022 0.73894 0.0
C564 C 0.86625 0.80399 0.73636 0.0
C565 C 0.89202 0.80674 0.70984 0.0
C566 C 0.79505 0.70148 0.71729 0.0
C567 C 0.87303 0.8385 0.76111 0.0
C568 C 0.75232 0.81722 0.79492 0.0
C569 C 0.77383 0.80495 0.82206 0.0
C570 C 0.76713 0.80024 0.76674 0.0
C571 C 0.804 0.77061 0.76619 0.0
C572 C 0.82013 0.75241 0.79393 0.0
C573 C 0.80511 0.77024 0.82167 0.0
C574 C 0.74795 0.81919 0.73759 0.0
C575 C 0.8581 0.71941 0.79439 0.0
H576 H 0.85103 0.71851 0.67024 0.0
H577 H 0.91596 0.8335 0.70753 0.0
H578 H 0.79103 0.68921 0.74109 0.0
H579 H 0.76234 0.71463 0.70956 0.0
H580 H 0.8041 0.67302 0.70229 0.0
H581 H 0.90056 0.86184 0.75569 0.0
H582 H 0.84205 0.85822 0.76424 0.0
H583 H 0.88071 0.82201 0.78323 0.0
H584 H 0.72791 0.84391 0.79529 0.0
H585 H 0.82124 0.76032 0.84285 0.0
H586 H 0.74573 0.79321 0.71964 0.0
H587 H 0.77017 0.84588 0.72897 0.0
H588 H 0.71433 0.83374 0.74136 0.0
H589 H 0.8553 0.6954 0.77522 0.0
H590 H 0.85927 0.70073 0.81635 0.0
H591 H 0.89004 0.73751 0.79174 0.0
C592 C 0.8328 0.13299 0.27775 0.0
C593 C 0.79951 0.13562 0.3001 0.0
C594 C 0.8295 0.15691 0.25044 0.0
C595 C 0.79199 0.18472 0.24529 0.0
C596 C 0.7584 0.18819 0.26791 0.0
C597 C 0.76249 0.16337 0.29514 0.0
C598 C 0.86599 0.15148 0.22682 0.0
C599 C 0.71865 0.21843 0.26364 0.0
C600 C 0.8275 0.25389 0.17889 0.0
C601 C 0.81696 0.22408 0.15542 0.0
C602 C 0.81283 0.24568 0.20891 0.0
C603 C 0.78772 0.20681 0.21503 0.0
C604 C 0.77059 0.18159 0.19039 0.0
C605 C 0.78572 0.19045 0.16076 0.0
C606 C 0.82982 0.27462 0.23451 0.0
C607 C 0.74257 0.14068 0.19571 0.0
H608 H 0.86145 0.11157 0.28138 0.0
H609 H 0.73697 0.16601 0.31259 0.0
H610 H 0.85188 0.13811 0.20524 0.0
H611 H 0.88114 0.18422 0.22156 0.0
H612 H 0.89287 0.12861 0.23461 0.0
H613 H 0.69182 0.21111 0.28039 0.0
H614 H 0.72926 0.25344 0.26686 0.0
H615 H 0.70486 0.21563 0.24016 0.0
H616 H 0.85125 0.2803 0.17462 0.0
H617 H 0.77688 0.168 0.1423 0.0
H618 H 0.86018 0.25921 0.24451 0.0
H619 H 0.80464 0.27769 0.25297 0.0
H620 H 0.83864 0.30838 0.22611 0.0
H621 H 0.76457 0.11262 0.20257 0.0
H622 H 0.72431 0.13081 0.17466 0.0
H623 H 0.71819 0.14619 0.21439 0.0
loop_
_geom_bond_atom_site_label_1
_geom_bond_atom_site_label_2
_geom_bond_distance
_geom_bond_site_symmetry_2
_ccdc_geom_bond_type
Zn0 O3 2.031 1_455 S
Zn0 O5 2.049 . S
Zn0 O10 2.067 . S
Zn1 O2 1.962 1_455 S
Zn1 O4 1.986 . S
Zn1 O6 1.996 . S
Zn1 O9 1.943 . S
O2 Zn1 1.962 1_655 S
O2 C7 1.254 . S
O3 Zn0 2.031 1_655 S
O3 C7 1.269 . S
O4 Zn1 1.986 . S
O4 C11 1.262 . S
O5 Zn0 2.049 . S
O5 C13 1.260 . S
O6 Zn1 1.996 . S
O6 C13 1.257 . S
C7 O2 1.254 . S
C7 O3 1.269 . S
C8 O9 1.249 . S
C8 O10 1.270 . S
O9 Zn1 1.943 . S
O9 C8 1.249 . S
O10 Zn0 2.067 . S
O10 C8 1.270 . S
C11 O4 1.262 . S
C11 O12 1.232 . S
O12 C11 1.232 . S
C13 O5 1.260 . S
C13 O6 1.257 . S
Zn14 O17 2.031 1_565 S
Zn14 O19 2.049 . S
Zn14 O24 2.067 . S
Zn15 O16 1.962 1_565 S
Zn15 O18 1.986 . S
Zn15 O20 1.996 . S
Zn15 O23 1.943 . S
O16 Zn15 1.962 1_545 S
O16 C21 1.254 . S
O17 Zn14 2.031 1_545 S
O17 C21 1.269 . S
O18 Zn15 1.986 . S
O18 C25 1.262 . S
O19 Zn14 2.049 . S
O19 C27 1.260 . S
O20 Zn15 1.996 . S
O20 C27 1.257 . S
C21 O16 1.254 . S
C21 O17 1.269 . S
C22 O23 1.249 . S
C22 O24 1.270 . S
O23 Zn15 1.943 . S
O23 C22 1.249 . S
O24 Zn14 2.067 . S
O24 C22 1.270 . S
C25 O18 1.262 . S
C25 O26 1.232 . S
O26 C25 1.232 . S
C27 O19 1.260 . S
C27 O20 1.257 . S
Zn28 O31 2.031 1_655 S
Zn28 O33 2.049 . S
Zn28 O38 2.067 . S
Zn29 O30 1.962 1_655 S
Zn29 O32 1.986 . S
Zn29 O34 1.996 . S
Zn29 O37 1.943 . S
O30 Zn29 1.962 1_455 S
O30 C35 1.254 . S
O31 Zn28 2.031 1_455 S
O31 C35 1.269 . S
O32 Zn29 1.986 . S
O32 C39 1.262 . S
O33 Zn28 2.049 . S
O33 C41 1.260 . S
O34 Zn29 1.996 . S
O34 C41 1.257 . S
C35 O30 1.254 . S
C35 O31 1.269 . S
C36 O37 1.249 . S
C36 O38 1.270 . S
O37 Zn29 1.943 . S
O37 C36 1.249 . S
O38 Zn28 2.067 . S
O38 C36 1.270 . S
C39 O32 1.262 . S
C39 O40 1.232 . S
O40 C39 1.232 . S
C41 O33 1.260 . S
C41 O34 1.257 . S
Zn42 O45 2.031 1_545 S
Zn42 O47 2.049 . S
Zn42 O52 2.067 . S
Zn43 O44 1.962 1_545 S
Zn43 O46 1.986 . S
Zn43 O48 1.996 . S
Zn43 O51 1.943 . S
O44 Zn43 1.962 1_565 S
O44 C49 1.254 . S
O45 Zn42 2.031 1_565 S
O45 C49 1.269 . S
O46 Zn43 1.986 . S
O46 C53 1.262 . S
O47 Zn42 2.049 . S
O47 C55 1.260 . S
O48 Zn43 1.996 . S
O48 C55 1.257 . S
C49 O44 1.254 . S
C49 O45 1.269 . S
C50 O51 1.249 . S
C50 O52 1.270 . S
O51 Zn43 1.943 . S
O51 C50 1.249 . S
O52 Zn42 2.067 . S
O52 C50 1.270 . S
C53 O46 1.262 . S
C53 O54 1.232 . S
O54 C53 1.232 . S
C55 O47 1.260 . S
C55 O48 1.257 . S
Zn56 O59 2.031 1_655 S
Zn56 O61 2.049 . S
Zn56 O66 2.067 . S
Zn57 O58 1.962 1_655 S
Zn57 O60 1.986 . S
Zn57 O62 1.996 . S
Zn57 O65 1.943 . S
O58 Zn57 1.962 1_455 S
O58 C63 1.254 . S
O59 Zn56 2.031 1_455 S
O59 C63 1.269 . S
O60 Zn57 1.986 . S
O60 C67 1.262 . S
O61 Zn56 2.049 . S
O61 C69 1.260 . S
O62 Zn57 1.996 . S
O62 C69 1.257 . S
C63 O58 1.254 . S
C63 O59 1.269 . S
C64 O65 1.249 . S
C64 O66 1.270 . S
O65 Zn57 1.943 . S
O65 C64 1.249 . S
O66 Zn56 2.067 . S
O66 C64 1.270 . S
C67 O60 1.262 . S
C67 O68 1.232 . S
O68 C67 1.232 . S
C69 O61 1.260 . S
C69 O62 1.257 . S
Zn70 O73 2.031 1_545 S
Zn70 O75 2.049 . S
Zn70 O80 2.067 . S
Zn71 O72 1.962 1_545 S
Zn71 O74 1.986 . S
Zn71 O76 1.996 . S
Zn71 O79 1.943 . S
O72 Zn71 1.962 1_565 S
O72 C77 1.254 . S
O73 Zn70 2.031 1_565 S
O73 C77 1.269 . S
O74 Zn71 1.986 . S
O74 C81 1.262 . S
O75 Zn70 2.049 . S
O75 C83 1.260 . S
O76 Zn71 1.996 . S
O76 C83 1.257 . S
C77 O72 1.254 . S
C77 O73 1.269 . S
C78 O79 1.249 . S
C78 O80 1.270 . S
O79 Zn71 1.943 . S
O79 C78 1.249 . S
O80 Zn70 2.067 . S
O80 C78 1.270 . S
C81 O74 1.262 . S
C81 O82 1.232 . S
O82 C81 1.232 . S
C83 O75 1.260 . S
C83 O76 1.257 . S
Zn84 O87 2.031 1_455 S
Zn84 O89 2.049 . S
Zn84 O94 2.067 . S
Zn85 O86 1.962 1_455 S
Zn85 O88 1.986 . S
Zn85 O90 1.996 . S
Zn85 O93 1.943 . S
O86 Zn85 1.962 1_655 S
O86 C91 1.254 . S
O87 Zn84 2.031 1_655 S
O87 C91 1.269 . S
O88 Zn85 1.986 . S
O88 C95 1.262 . S
O89 Zn84 2.049 . S
O89 C97 1.260 . S
O90 Zn85 1.996 . S
O90 C97 1.257 . S
C91 O86 1.254 . S
C91 O87 1.269 . S
C92 O93 1.249 . S
C92 O94 1.270 . S
O93 Zn85 1.943 . S
O93 C92 1.249 . S
O94 Zn84 2.067 . S
O94 C92 1.270 . S
C95 O88 1.262 . S
C95 O96 1.232 . S
O96 C95 1.232 . S
C97 O89 1.260 . S
C97 O90 1.257 . S
Zn98 O101 2.031 1_565 S
Zn98 O103 2.049 . S
Zn98 O108 2.067 . S
Zn99 O100 1.962 1_565 S
Zn99 O102 1.986 . S
Zn99 O104 1.996 . S
Zn99 O107 1.943 . S
O100 Zn99 1.962 1_545 S
O100 C105 1.254 . S
O101 Zn98 2.031 1_545 S
O101 C105 1.269 . S
O102 Zn99 1.986 . S
O102 C109 1.262 . S
O103 Zn98 2.049 . S
O103 C111 1.260 . S
O104 Zn99 1.996 . S
O104 C111 1.257 . S
C105 O100 1.254 . S
C105 O101 1.269 . S
C106 O107 1.249 . S
C106 O108 1.270 . S
O107 Zn99 1.943 . S
O107 C106 1.249 . S
O108 Zn98 2.067 . S
O108 C106 1.270 . S
C109 O102 1.262 . S
C109 O110 1.232 . S
O110 C109 1.232 . S
C111 O103 1.260 . S
C111 O104 1.257 . S
C112 C113 1.391 1_455 S
C112 C114 1.394 . S
C112 H128 0.931 . S
C113 C112 1.391 1_655 S
C113 C117 1.376 . S
C114 C112 1.394 . S
C114 C115 1.369 1_455 S
C114 C118 1.531 . S
C115 C114 1.369 1_655 S
C115 C116 1.410 . S
C115 C123 1.503 . S
C116 C115 1.410 . S
C116 C117 1.392 . S
C116 C119 1.511 . S
C117 C113 1.376 . S
C117 C116 1.392 . S
C117 H129 0.929 . S
C118 C114 1.531 . S
C118 H130 0.960 . S
C118 H131 0.962 . S
C118 H132 0.960 . S
C119 C116 1.511 . S
C119 H133 0.961 . S
C119 H134 0.961 . S
C119 H135 0.961 . S
C120 C121 1.370 . S
C120 C122 1.363 . S
C120 H136 0.931 . S
C121 C120 1.370 . S
C121 C125 1.408 1_455 S
C122 C120 1.363 . S
C122 C123 1.372 1_455 S
C122 C126 1.524 . S
C123 C115 1.503 . S
C123 C122 1.372 1_655 S
C123 C124 1.401 . S
C124 C123 1.401 . S
C124 C125 1.404 . S
C124 C127 1.539 . S
C125 C121 1.408 1_655 S
C125 C124 1.404 . S
C125 H137 0.930 . S
C126 C122 1.524 . S
C126 H138 0.956 . S
C126 H139 0.961 . S
C126 H140 0.961 . S
C127 C124 1.539 . S
C127 H141 0.958 . S
C127 H142 0.961 . S
C127 H143 0.960 . S
H128 C112 0.931 . S
H129 C117 0.929 . S
H130 C118 0.960 . S
H131 C118 0.962 . S
H132 C118 0.960 . S
H133 C119 0.961 . S
H134 C119 0.961 . S
H135 C119 0.961 . S
H136 C120 0.931 . S
H137 C125 0.930 . S
H138 C126 0.956 . S
H139 C126 0.961 . S
H140 C126 0.961 . S
H141 C127 0.958 . S
H142 C127 0.961 . S
H143 C127 0.960 . S
C144 C145 1.391 1_565 S
C144 C146 1.394 . S
C144 H160 0.931 . S
C145 C144 1.391 1_545 S
C145 C149 1.376 . S
C146 C144 1.394 . S
C146 C147 1.369 . S
C146 C150 1.531 . S
C147 C146 1.369 . S
C147 C148 1.410 1_565 S
C147 C155 1.503 . S
C148 C147 1.410 1_545 S
C148 C149 1.392 . S
C148 C151 1.511 . S
C149 C145 1.376 . S
C149 C148 1.392 . S
C149 H161 0.929 . S
C150 C146 1.531 . S
C150 H162 0.960 . S
C150 H163 0.962 . S
C150 H164 0.960 . S
C151 C148 1.511 . S
C151 H165 0.961 . S
C151 H166 0.961 . S
C151 H167 0.961 . S
C152 C153 1.370 1_545 S
C152 C154 1.363 . S
C152 H168 0.931 . S
C153 C152 1.370 1_565 S
C153 C157 1.408 . S
C154 C152 1.363 . S
C154 C155 1.370 1_545 S
C154 C158 1.524 . S
C155 C147 1.503 . S
C155 C154 1.370 1_565 S
C155 C156 1.403 . S
C156 C155 1.403 . S
C156 C157 1.404 . S
C156 C159 1.539 . S
C157 C153 1.408 . S
C157 C156 1.404 . S
C157 H169 0.930 . S
C158 C154 1.524 . S
C158 H170 0.956 . S
C158 H171 0.961 . S
C158 H172 0.961 . S
C159 C156 1.539 . S
C159 H173 0.958 . S
C159 H174 0.961 . S
C159 H175 0.960 . S
H160 C144 0.931 . S
H161 C149 0.929 . S
H162 C150 0.960 . S
H163 C150 0.962 . S
H164 C150 0.960 . S
H165 C151 0.961 . S
H166 C151 0.961 . S
H167 C151 0.961 . S
H168 C152 0.931 . S
H169 C157 0.930 . S
H170 C158 0.956 . S
H171 C158 0.961 . S
H172 C158 0.961 . S
H173 C159 0.958 . S
H174 C159 0.961 . S
H175 C159 0.960 . S
C176 C177 1.391 1_455 S
C176 C178 1.394 . S
C176 H192 0.931 . S
C177 C176 1.391 1_655 S
C177 C181 1.376 . S
C178 C176 1.394 . S
C178 C179 1.369 1_455 S
C178 C182 1.531 . S
C179 C178 1.369 1_655 S
C179 C180 1.410 . S
C179 C187 1.503 1_655 S
C180 C179 1.410 . S
C180 C181 1.392 . S
C180 C183 1.511 . S
C181 C177 1.376 . S
C181 C180 1.392 . S
C181 H193 0.929 . S
C182 C178 1.531 . S
C182 H194 0.960 . S
C182 H195 0.962 . S
C182 H196 0.960 . S
C183 C180 1.511 . S
C183 H197 0.961 . S
C183 H198 0.961 . S
C183 H199 0.961 . S
C184 C185 1.370 . S
C184 C186 1.363 . S
C184 H200 0.931 . S
C185 C184 1.370 . S
C185 C189 1.408 . S
C186 C184 1.363 . S
C186 C187 1.370 . S
C186 C190 1.524 1_455 S
C187 C179 1.503 1_455 S
C187 C186 1.370 . S
C187 C188 1.403 . S
C188 C187 1.403 . S
C188 C189 1.404 . S
C188 C191 1.539 . S
C189 C185 1.408 . S
C189 C188 1.404 . S
C189 H201 0.930 . S
C190 C186 1.524 1_655 S
C190 H202 0.956 1_655 S
C190 H203 0.961 . S
C190 H204 0.961 . S
C191 C188 1.539 . S
C191 H205 0.958 . S
C191 H206 0.961 . S
C191 H207 0.960 1_455 S
H192 C176 0.931 . S
H193 C181 0.929 . S
H194 C182 0.960 . S
H195 C182 0.962 . S
H196 C182 0.960 . S
H197 C183 0.961 . S
H198 C183 0.961 . S
H199 C183 0.961 . S
H200 C184 0.931 . S
H201 C189 0.930 . S
H202 C190 0.956 1_455 S
H203 C190 0.961 . S
H204 C190 0.961 . S
H205 C191 0.958 . S
H206 C191 0.961 . S
H207 C191 0.960 1_655 S
C208 C209 1.391 . S
C208 C210 1.394 . S
C208 H224 0.931 . S
C209 C208 1.391 . S
C209 C213 1.376 . S
C210 C208 1.394 . S
C210 C211 1.369 . S
C210 C214 1.531 . S
C211 C210 1.369 . S
C211 C212 1.410 . S
C211 C219 1.503 . S
C212 C211 1.410 . S
C212 C213 1.392 . S
C212 C215 1.511 . S
C213 C209 1.376 . S
C213 C212 1.392 . S
C213 H225 0.929 . S
C214 C210 1.531 . S
C214 H226 0.960 . S
C214 H227 0.962 1_545 S
C214 H228 0.960 . S
C215 C212 1.511 . S
C215 H229 0.961 1_545 S
C215 H230 0.961 1_545 S
C215 H231 0.961 . S
C216 C217 1.370 . S
C216 C218 1.363 . S
C216 H232 0.931 . S
C217 C216 1.370 . S
C217 C221 1.408 1_565 S
C218 C216 1.363 . S
C218 C219 1.370 1_565 S
C218 C222 1.524 . S
C219 C211 1.503 . S
C219 C218 1.370 1_545 S
C219 C220 1.403 . S
C220 C219 1.403 . S
C220 C221 1.404 . S
C220 C223 1.539 . S
C221 C217 1.408 1_545 S
C221 C220 1.404 . S
C221 H233 0.930 . S
C222 C218 1.524 . S
C222 H234 0.956 . S
C222 H235 0.961 . S
C222 H236 0.961 . S
C223 C220 1.539 . S
C223 H237 0.958 . S
C223 H238 0.961 . S
C223 H239 0.960 . S
H224 C208 0.931 . S
H225 C213 0.929 . S
H226 C214 0.960 . S
H227 C214 0.962 1_565 S
H228 C214 0.960 . S
H229 C215 0.961 1_565 S
H230 C215 0.961 1_565 S
H231 C215 0.961 . S
H232 C216 0.931 . S
H233 C221 0.930 . S
H234 C222 0.956 . S
H235 C222 0.961 . S
H236 C222 0.961 . S
H237 C223 0.958 . S
H238 C223 0.961 . S
H239 C223 0.960 . S
C240 C241 1.391 . S
C240 C242 1.394 . S
C240 H256 0.931 . S
C241 C240 1.391 . S
C241 C245 1.376 . S
C242 C240 1.394 . S
C242 C243 1.369 . S
C242 C246 1.531 . S
C243 C242 1.369 . S
C243 C244 1.410 . S
C243 C251 1.503 . S
C244 C243 1.410 . S
C244 C245 1.392 . S
C244 C247 1.511 . S
C245 C241 1.376 . S
C245 C244 1.392 . S
C245 H257 0.929 . S
C246 C242 1.531 . S
C246 H258 0.960 . S
C246 H259 0.962 . S
C246 H260 0.960 . S
C247 C244 1.511 . S
C247 H261 0.961 . S
C247 H262 0.961 . S
C247 H263 0.961 . S
C248 C249 1.370 . S
C248 C250 1.363 . S
C248 H264 0.931 . S
C249 C248 1.370 . S
C249 C253 1.408 . S
C250 C248 1.363 . S
C250 C251 1.370 . S
C250 C254 1.524 . S
C251 C243 1.503 . S
C251 C250 1.370 . S
C251 C252 1.403 . S
C252 C251 1.403 . S
C252 C253 1.404 . S
C252 C255 1.539 . S
C253 C249 1.408 . S
C253 C252 1.404 . S
C253 H265 0.930 . S
C254 C250 1.524 . S
C254 H266 0.956 . S
C254 H267 0.961 . S
C254 H268 0.961 . S
C255 C252 1.539 . S
C255 H269 0.958 . S
C255 H270 0.961 . S
C255 H271 0.960 . S
H256 C240 0.931 . S
H257 C245 0.929 . S
H258 C246 0.960 . S
H259 C246 0.962 . S
H260 C246 0.960 . S
H261 C247 0.961 . S
H262 C247 0.961 . S
H263 C247 0.961 . S
H264 C248 0.931 . S
H265 C253 0.930 . S
H266 C254 0.956 . S
H267 C254 0.961 . S
H268 C254 0.961 . S
H269 C255 0.958 . S
H270 C255 0.961 . S
H271 C255 0.960 . S
C272 C273 1.391 . S
C272 C274 1.394 . S
C272 H288 0.931 . S
C273 C272 1.391 . S
C273 C277 1.376 . S
C274 C272 1.394 . S
C274 C275 1.369 . S
C274 C278 1.531 . S
C275 C274 1.369 . S
C275 C276 1.410 . S
C275 C283 1.503 . S
C276 C275 1.410 . S
C276 C277 1.392 . S
C276 C279 1.511 . S
C277 C273 1.376 . S
C277 C276 1.392 . S
C277 H289 0.929 . S
C278 C274 1.531 . S
C278 H290 0.960 . S
C278 H291 0.962 . S
C278 H292 0.960 . S
C279 C276 1.511 . S
C279 H293 0.961 . S
C279 H294 0.961 . S
C279 H295 0.961 . S
C280 C281 1.370 . S
C280 C282 1.363 . S
C280 H296 0.931 . S
C281 C280 1.370 . S
C281 C285 1.408 . S
C282 C280 1.363 . S
C282 C283 1.370 . S
C282 C286 1.524 . S
C283 C275 1.503 . S
C283 C282 1.370 . S
C283 C284 1.403 . S
C284 C283 1.403 . S
C284 C285 1.404 . S
C284 C287 1.539 . S
C285 C281 1.408 . S
C285 C284 1.404 . S
C285 H297 0.930 . S
C286 C282 1.524 . S
C286 H298 0.956 . S
C286 H299 0.961 . S
C286 H300 0.961 . S
C287 C284 1.539 . S
C287 H301 0.958 . S
C287 H302 0.961 . S
C287 H303 0.960 . S
H288 C272 0.931 . S
H289 C277 0.929 . S
H290 C278 0.960 . S
H291 C278 0.962 . S
H292 C278 0.960 . S
H293 C279 0.961 . S
H294 C279 0.961 . S
H295 C279 0.961 . S
H296 C280 0.931 . S
H297 C285 0.930 . S
H298 C286 0.956 . S
H299 C286 0.961 . S
H300 C286 0.961 . S
H301 C287 0.958 . S
H302 C287 0.961 . S
H303 C287 0.960 . S
C304 C305 1.391 . S
C304 C306 1.394 . S
C304 H320 0.931 . S
C305 C304 1.391 . S
C305 C309 1.376 . S
C306 C304 1.394 . S
C306 C307 1.369 . S
C306 C310 1.531 . S
C307 C306 1.369 . S
C307 C308 1.410 . S
C307 C315 1.503 . S
C308 C307 1.410 . S
C308 C309 1.392 . S
C308 C311 1.511 . S
C309 C305 1.376 . S
C309 C308 1.392 . S
C309 H321 0.929 . S
C310 C306 1.531 . S
C310 H322 0.960 . S
C310 H323 0.962 . S
C310 H324 0.960 . S
C311 C308 1.511 . S
C311 H325 0.961 . S
C311 H326 0.961 . S
C311 H327 0.961 . S
C312 C313 1.370 . S
C312 C314 1.363 . S
C312 H328 0.931 . S
C313 C312 1.370 . S
C313 C317 1.408 . S
C314 C312 1.363 . S
C314 C315 1.370 . S
C314 C318 1.524 . S
C315 C307 1.503 . S
C315 C314 1.370 . S
C315 C316 1.403 . S
C316 C315 1.403 . S
C316 C317 1.404 . S
C316 C319 1.539 . S
C317 C313 1.408 . S
C317 C316 1.404 . S
C317 H329 0.930 . S
C318 C314 1.524 . S
C318 H330 0.956 . S
C318 H331 0.961 . S
C318 H332 0.961 . S
C319 C316 1.539 . S
C319 H333 0.958 . S
C319 H334 0.961 . S
C319 H335 0.960 . S
H320 C304 0.931 . S
H321 C309 0.929 . S
H322 C310 0.960 . S
H323 C310 0.962 . S
H324 C310 0.960 . S
H325 C311 0.961 . S
H326 C311 0.961 . S
H327 C311 0.961 . S
H328 C312 0.931 . S
H329 C317 0.930 . S
H330 C318 0.956 . S
H331 C318 0.961 . S
H332 C318 0.961 . S
H333 C319 0.958 . S
H334 C319 0.961 . S
H335 C319 0.960 . S
C336 C337 1.391 . S
C336 C338 1.394 . S
C336 H352 0.931 . S
C337 C336 1.391 . S
C337 C341 1.376 . S
C338 C336 1.394 . S
C338 C339 1.369 . S
C338 C342 1.531 . S
C339 C338 1.369 . S
C339 C340 1.410 . S
C339 C347 1.503 . S
C340 C339 1.410 . S
C340 C341 1.392 . S
C340 C343 1.511 . S
C341 C337 1.376 . S
C341 C340 1.392 . S
C341 H353 0.929 . S
C342 C338 1.531 . S
C342 H354 0.960 . S
C342 H355 0.962 . S
C342 H356 0.960 . S
C343 C340 1.511 . S
C343 H357 0.961 . S
C343 H358 0.961 . S
C343 H359 0.961 . S
C344 C345 1.370 . S
C344 C346 1.363 . S
C344 H360 0.931 . S
C345 C344 1.370 . S
C345 C349 1.408 . S
C346 C344 1.363 . S
C346 C347 1.370 . S
C346 C350 1.524 . S
C347 C339 1.503 . S
C347 C346 1.370 . S
C347 C348 1.403 . S
C348 C347 1.403 . S
C348 C349 1.404 . S
C348 C351 1.539 . S
C349 C345 1.408 . S
C349 C348 1.404 . S
C349 H361 0.930 . S
C350 C346 1.524 . S
C350 H362 0.956 . S
C350 H363 0.961 . S
C350 H364 0.961 . S
C351 C348 1.539 . S
C351 H365 0.958 . S
C351 H366 0.961 . S
C351 H367 0.960 . S
H352 C336 0.931 . S
H353 C341 0.929 . S
H354 C342 0.960 . S
H355 C342 0.962 . S
H356 C342 0.960 . S
H357 C343 0.961 . S
H358 C343 0.961 . S
H359 C343 0.961 . S
H360 C344 0.931 . S
H361 C349 0.930 . S
H362 C350 0.956 . S
H363 C350 0.961 . S
H364 C350 0.961 . S
H365 C351 0.958 . S
H366 C351 0.961 . S
H367 C351 0.960 . S
C368 C369 1.391 . S
C368 C370 1.394 . S
C368 H384 0.931 . S
C369 C368 1.391 . S
C369 C373 1.376 . S
C370 C368 1.394 . S
C370 C371 1.369 . S
C370 C374 1.531 1_556 S
C371 C370 1.369 . S
C371 C372 1.410 . S
C371 C379 1.503 1_556 S
C372 C371 1.410 . S
C372 C373 1.392 . S
C372 C375 1.511 . S
C373 C369 1.376 . S
C373 C372 1.392 . S
C373 H385 0.929 . S
C374 C370 1.531 1_554 S
C374 H386 0.960 . S
C374 H387 0.962 . S
C374 H388 0.960 . S
C375 C372 1.511 . S
C375 H389 0.961 . S
C375 H390 0.961 . S
C375 H391 0.961 . S
C376 C377 1.370 . S
C376 C378 1.363 . S
C376 H392 0.931 . S
C377 C376 1.370 . S
C377 C381 1.408 . S
C378 C376 1.363 . S
C378 C379 1.370 . S
C378 C382 1.524 . S
C379 C371 1.503 1_554 S
C379 C378 1.370 . S
C379 C380 1.403 . S
C380 C379 1.403 . S
C380 C381 1.404 . S
C380 C383 1.539 1_554 S
C381 C377 1.408 . S
C381 C380 1.404 . S
C381 H393 0.930 . S
C382 C378 1.524 . S
C382 H394 0.956 . S
C382 H395 0.961 1_554 S
C382 H396 0.961 . S
C383 C380 1.539 1_556 S
C383 H397 0.958 . S
C383 H398 0.961 . S
C383 H399 0.960 . S
H384 C368 0.931 . S
H385 C373 0.929 . S
H386 C374 0.960 . S
H387 C374 0.962 . S
H388 C374 0.960 . S
H389 C375 0.961 . S
H390 C375 0.961 . S
H391 C375 0.961 . S
H392 C376 0.931 . S
H393 C381 0.930 . S
H394 C382 0.956 . S
H395 C382 0.961 1_556 S
H396 C382 0.961 . S
H397 C383 0.958 . S
H398 C383 0.961 . S
H399 C383 0.960 . S
C400 C401 1.391 . S
C400 C402 1.394 . S
C400 H416 0.931 . S
C401 C400 1.391 . S
C401 C405 1.376 . S
C402 C400 1.394 . S
C402 C403 1.369 . S
C402 C406 1.531 . S
C403 C402 1.369 . S
C403 C404 1.410 . S
C403 C411 1.503 1_556 S
C404 C403 1.410 . S
C404 C405 1.392 . S
C404 C407 1.511 1_556 S
C405 C401 1.376 . S
C405 C404 1.392 . S
C405 H417 0.929 . S
C406 C402 1.531 . S
C406 H418 0.960 . S
C406 H419 0.962 . S
C406 H420 0.960 . S
C407 C404 1.511 1_554 S
C407 H421 0.961 . S
C407 H422 0.961 . S
C407 H423 0.961 . S
C408 C409 1.370 . S
C408 C410 1.363 . S
C408 H424 0.931 . S
C409 C408 1.370 . S
C409 C413 1.408 . S
C410 C408 1.363 . S
C410 C411 1.370 . S
C410 C414 1.524 . S
C411 C403 1.503 1_554 S
C411 C410 1.370 . S
C411 C412 1.403 . S
C412 C411 1.403 . S
C412 C413 1.404 . S
C412 C415 1.539 1_554 S
C413 C409 1.408 . S
C413 C412 1.404 . S
C413 H425 0.930 . S
C414 C410 1.524 . S
C414 H426 0.956 . S
C414 H427 0.961 . S
C414 H428 0.961 . S
C415 C412 1.539 1_556 S
C415 H429 0.958 . S
C415 H430 0.961 . S
C415 H431 0.960 . S
H416 C400 0.931 . S
H417 C405 0.929 . S
H418 C406 0.960 . S
H419 C406 0.962 . S
H420 C406 0.960 . S
H421 C407 0.961 . S
H422 C407 0.961 . S
H423 C407 0.961 . S
H424 C408 0.931 . S
H425 C413 0.930 . S
H426 C414 0.956 . S
H427 C414 0.961 . S
H428 C414 0.961 . S
H429 C415 0.958 . S
H430 C415 0.961 . S
H431 C415 0.960 . S
C432 C433 1.391 . S
C432 C434 1.394 . S
C432 H448 0.931 . S
C433 C432 1.391 . S
C433 C437 1.376 . S
C434 C432 1.394 . S
C434 C435 1.369 . S
C434 C438 1.531 . S
C435 C434 1.369 . S
C435 C436 1.410 . S
C435 C443 1.503 1_554 S
C436 C435 1.410 . S
C436 C437 1.392 . S
C436 C439 1.511 1_554 S
C437 C433 1.376 . S
C437 C436 1.392 . S
C437 H449 0.929 . S
C438 C434 1.531 . S
C438 H450 0.960 . S
C438 H451 0.962 . S
C438 H452 0.960 . S
C439 C436 1.511 1_556 S
C439 H453 0.961 . S
C439 H454 0.961 . S
C439 H455 0.961 1_556 S
C440 C441 1.370 . S
C440 C442 1.363 . S
C440 H456 0.931 . S
C441 C440 1.370 . S
C441 C445 1.408 . S
C442 C440 1.363 . S
C442 C443 1.370 . S
C442 C446 1.524 . S
C443 C435 1.503 1_556 S
C443 C442 1.370 . S
C443 C444 1.403 . S
C444 C443 1.403 . S
C444 C445 1.404 . S
C444 C447 1.539 1_556 S
C445 C441 1.408 . S
C445 C444 1.404 . S
C445 H457 0.930 . S
C446 C442 1.524 . S
C446 H458 0.956 . S
C446 H459 0.961 . S
C446 H460 0.961 . S
C447 C444 1.539 1_554 S
C447 H461 0.958 . S
C447 H462 0.961 . S
C447 H463 0.960 . S
H448 C432 0.931 . S
H449 C437 0.929 . S
H450 C438 0.960 . S
H451 C438 0.962 . S
H452 C438 0.960 . S
H453 C439 0.961 . S
H454 C439 0.961 . S
H455 C439 0.961 1_554 S
H456 C440 0.931 . S
H457 C445 0.930 . S
H458 C446 0.956 . S
H459 C446 0.961 . S
H460 C446 0.961 . S
H461 C447 0.958 . S
H462 C447 0.961 . S
H463 C447 0.960 . S
C464 C465 1.391 . S
C464 C466 1.420 . S
C464 H480 0.931 . S
C465 C464 1.391 . S
C465 C469 1.376 . S
C466 C464 1.420 . S
C466 C467 1.377 . S
C466 C470 1.497 1_556 S
C467 C466 1.377 . S
C467 C468 1.410 . S
C467 C475 1.503 1_556 S
C468 C467 1.410 . S
C468 C469 1.392 . S
C468 C471 1.511 . S
C469 C465 1.376 . S
C469 C468 1.392 . S
C469 H481 0.929 . S
C470 C466 1.497 1_554 S
C470 H482 0.960 . S
C470 H483 0.962 . S
C470 H484 0.960 . S
C471 C468 1.511 . S
C471 H485 0.961 . S
C471 H486 0.961 . S
C471 H487 0.961 . S
C472 C473 1.370 . S
C472 C474 1.363 . S
C472 H488 0.931 . S
C473 C472 1.370 . S
C473 C477 1.408 . S
C474 C472 1.363 . S
C474 C475 1.370 . S
C474 C478 1.524 . S
C475 C467 1.503 1_554 S
C475 C474 1.370 . S
C475 C476 1.403 . S
C476 C475 1.403 . S
C476 C477 1.404 . S
C476 C479 1.539 . S
C477 C473 1.408 . S
C477 C476 1.404 . S
C477 H489 0.930 . S
C478 C474 1.524 . S
C478 H490 0.956 . S
C478 H491 0.961 . S
C478 H492 0.961 . S
C479 C476 1.539 . S
C479 H493 0.958 . S
C479 H494 0.961 . S
C479 H495 0.960 1_554 S
H480 C464 0.931 . S
H481 C469 0.929 . S
H482 C470 0.960 . S
H483 C470 0.962 . S
H484 C470 0.960 . S
H485 C471 0.961 . S
H486 C471 0.961 . S
H487 C471 0.961 . S
H488 C472 0.931 . S
H489 C477 0.930 . S
H490 C478 0.956 . S
H491 C478 0.961 . S
H492 C478 0.961 . S
H493 C479 0.958 . S
H494 C479 0.961 . S
H495 C479 0.960 1_556 S
C496 C497 1.391 . S
C496 C498 1.394 . S
C496 H512 0.931 . S
C497 C496 1.391 . S
C497 C501 1.376 . S
C498 C496 1.394 . S
C498 C499 1.369 . S
C498 C502 1.531 . S
C499 C498 1.369 . S
C499 C500 1.410 . S
C499 C507 1.503 . S
C500 C499 1.410 . S
C500 C501 1.392 . S
C500 C503 1.511 . S
C501 C497 1.376 . S
C501 C500 1.392 . S
C501 H513 0.929 . S
C502 C498 1.531 . S
C502 H514 0.960 . S
C502 H515 0.962 . S
C502 H516 0.960 . S
C503 C500 1.511 . S
C503 H517 0.961 . S
C503 H518 0.961 . S
C503 H519 0.961 . S
C504 C505 1.370 . S
C504 C506 1.363 . S
C504 H520 0.931 . S
C505 C504 1.370 . S
C505 C509 1.408 . S
C506 C504 1.363 . S
C506 C507 1.370 . S
C506 C510 1.524 . S
C507 C499 1.503 . S
C507 C506 1.370 . S
C507 C508 1.403 . S
C508 C507 1.403 . S
C508 C509 1.404 . S
C508 C511 1.539 . S
C509 C505 1.408 . S
C509 C508 1.404 . S
C509 H521 0.930 . S
C510 C506 1.524 . S
C510 H522 0.956 . S
C510 H523 0.961 . S
C510 H524 0.961 . S
C511 C508 1.539 . S
C511 H525 0.958 . S
C511 H526 0.961 . S
C511 H527 0.960 . S
H512 C496 0.931 . S
H513 C501 0.929 . S
H514 C502 0.960 . S
H515 C502 0.962 . S
H516 C502 0.960 . S
H517 C503 0.961 . S
H518 C503 0.961 . S
H519 C503 0.961 . S
H520 C504 0.931 . S
H521 C509 0.930 . S
H522 C510 0.956 . S
H523 C510 0.961 . S
H524 C510 0.961 . S
H525 C511 0.958 . S
H526 C511 0.961 . S
H527 C511 0.960 . S
C528 C529 1.391 . S
C528 C530 1.394 . S
C528 H544 0.931 . S
C529 C528 1.391 . S
C529 C533 1.376 . S
C530 C528 1.394 . S
C530 C531 1.369 . S
C530 C534 1.531 . S
C531 C530 1.369 . S
C531 C532 1.410 . S
C531 C539 1.503 . S
C532 C531 1.410 . S
C532 C533 1.392 . S
C532 C535 1.511 . S
C533 C529 1.376 . S
C533 C532 1.392 . S
C533 H545 0.929 . S
C534 C530 1.531 . S
C534 H546 0.960 . S
C534 H547 0.962 . S
C534 H548 0.960 . S
C535 C532 1.511 . S
C535 H549 0.961 . S
C535 H550 0.961 . S
C535 H551 0.961 . S
C536 C537 1.370 . S
C536 C538 1.363 . S
C536 H552 0.931 . S
C537 C536 1.370 . S
C537 C541 1.408 . S
C538 C536 1.363 . S
C538 C539 1.370 . S
C538 C542 1.524 . S
C539 C531 1.503 . S
C539 C538 1.370 . S
C539 C540 1.403 . S
C540 C539 1.403 . S
C540 C541 1.404 . S
C540 C543 1.539 . S
C541 C537 1.408 . S
C541 C540 1.404 . S
C541 H553 0.930 . S
C542 C538 1.524 . S
C542 H554 0.956 . S
C542 H555 0.961 . S
C542 H556 0.961 . S
C543 C540 1.539 . S
C543 H557 0.958 . S
C543 H558 0.961 . S
C543 H559 0.960 . S
H544 C528 0.931 . S
H545 C533 0.929 . S
H546 C534 0.960 . S
H547 C534 0.962 . S
H548 C534 0.960 . S
H549 C535 0.961 . S
H550 C535 0.961 . S
H551 C535 0.961 . S
H552 C536 0.931 . S
H553 C541 0.930 . S
H554 C542 0.956 . S
H555 C542 0.961 . S
H556 C542 0.961 . S
H557 C543 0.958 . S
H558 C543 0.961 . S
H559 C543 0.960 . S
C560 C561 1.391 . S
C560 C562 1.394 . S
C560 H576 0.931 . S
C561 C560 1.391 . S
C561 C565 1.376 . S
C562 C560 1.394 . S
C562 C563 1.369 . S
C562 C566 1.531 . S
C563 C562 1.369 . S
C563 C564 1.410 . S
C563 C571 1.503 . S
C564 C563 1.410 . S
C564 C565 1.392 . S
C564 C567 1.511 . S
C565 C561 1.376 . S
C565 C564 1.392 . S
C565 H577 0.929 . S
C566 C562 1.531 . S
C566 H578 0.960 . S
C566 H579 0.962 . S
C566 H580 0.960 . S
C567 C564 1.511 . S
C567 H581 0.961 . S
C567 H582 0.961 . S
C567 H583 0.961 . S
C568 C569 1.370 . S
C568 C570 1.363 . S
C568 H584 0.931 . S
C569 C568 1.370 . S
C569 C573 1.408 . S
C570 C568 1.363 . S
C570 C571 1.370 . S
C570 C574 1.524 . S
C571 C563 1.503 . S
C571 C570 1.370 . S
C571 C572 1.403 . S
C572 C571 1.403 . S
C572 C573 1.404 . S
C572 C575 1.539 . S
C573 C569 1.408 . S
C573 C572 1.404 . S
C573 H585 0.930 . S
C574 C570 1.524 . S
C574 H586 0.956 . S
C574 H587 0.961 . S
C574 H588 0.961 . S
C575 C572 1.539 . S
C575 H589 0.958 . S
C575 H590 0.961 . S
C575 H591 0.960 . S
H576 C560 0.931 . S
H577 C565 0.929 . S
H578 C566 0.960 . S
H579 C566 0.962 . S
H580 C566 0.960 . S
H581 C567 0.961 . S
H582 C567 0.961 . S
H583 C567 0.961 . S
H584 C568 0.931 . S
H585 C573 0.930 . S
H586 C574 0.956 . S
H587 C574 0.961 . S
H588 C574 0.961 . S
H589 C575 0.958 . S
H590 C575 0.961 . S
H591 C575 0.960 . S
C592 C593 1.391 . S
C592 C594 1.394 . S
C592 H608 0.931 . S
C593 C592 1.391 . S
C593 C597 1.376 . S
C594 C592 1.394 . S
C594 C595 1.369 . S
C594 C598 1.531 . S
C595 C594 1.369 . S
C595 C596 1.410 . S
C595 C603 1.503 . S
C596 C595 1.410 . S
C596 C597 1.392 . S
C596 C599 1.511 . S
C597 C593 1.376 . S
C597 C596 1.392 . S
C597 H609 0.929 . S
C598 C594 1.531 . S
C598 H610 0.960 . S
C598 H611 0.962 . S
C598 H612 0.960 . S
C599 C596 1.511 . S
C599 H613 0.961 . S
C599 H614 0.961 . S
C599 H615 0.961 . S
C600 C601 1.370 . S
C600 C602 1.363 . S
C600 H616 0.931 . S
C601 C600 1.370 . S
C601 C605 1.408 . S
C602 C600 1.363 . S
C602 C603 1.370 . S
C602 C606 1.524 . S
C603 C595 1.503 . S
C603 C602 1.370 . S
C603 C604 1.403 . S
C604 C603 1.403 . S
C604 C605 1.404 . S
C604 C607 1.539 . S
C605 C601 1.408 . S
C605 C604 1.404 . S
C605 H617 0.930 . S
C606 C602 1.524 . S
C606 H618 0.956 . S
C606 H619 0.961 . S
C606 H620 0.961 . S
C607 C604 1.539 . S
C607 H621 0.958 . S
C607 H622 0.961 . S
C607 H623 0.960 . S
H608 C592 0.931 . S
H609 C597 0.929 . S
H610 C598 0.960 . S
H611 C598 0.962 . S
H612 C598 0.960 . S
H613 C599 0.961 . S
H614 C599 0.961 . S
H615 C599 0.961 . S
H616 C600 0.931 . S
H617 C605 0.930 . S
H618 C606 0.956 . S
H619 C606 0.961 . S
H620 C606 0.961 . S
H621 C607 0.958 . S
H622 C607 0.961 . S
H623 C607 0.960 . S
C113 C39 1.306 . S
C121 C11 1.283 . S
C145 C53 1.267 . S
C153 C25 1.290 . S
C177 C67 1.275 . S
C185 C95 1.285 . S
C209 C81 1.306 . S
C217 C109 1.279 . S
C241 C21 0.873 . S
C249 C8 0.883 . S
C273 C22 0.925 . S
C281 C35 0.915 . S
C305 C49 0.893 . S
C313 C36 0.894 . S
C337 C50 0.937 . S
C345 C7 0.925 . S
C369 C105 0.895 . S
C377 C64 0.899 . S
C401 C78 0.850 . S
C409 C63 0.895 . S
C433 C92 0.880 . S
C441 C77 0.909 . S
C465 C106 0.923 . S
C473 C91 0.917 . S
C497 C13 1.567 . S
C505 C83 1.578 . S
C529 C97 1.601 . S
C537 C27 1.558 . S
C561 C41 1.577 . S
C569 C111 1.543 . S
C593 C55 1.583 . S
C601 C69 1.546 . S
