# Generated by pormake.
# Topology uoq, (4)-cn, num edge types: 1
# Building blocks:
#     Node 0, Type 0, BuildingBlock: GALJAG_clean_sbu_0, # of connection points: 4
#     Node 1, Type 0, BuildingBlock: GALJAG_clean_sbu_0, # of connection points: 4
#     Node 2, Type 0, BuildingBlock: GALJAG_clean_sbu_0, # of connection points: 4
#     Node 3, Type 0, BuildingBlock: GALJAG_clean_sbu_0, # of connection points: 4
#     Node 4, Type 0, BuildingBlock: GALJAG_clean_sbu_0, # of connection points: 4
#     Node 5, Type 0, BuildingBlock: GALJAG_clean_sbu_0, # of connection points: 4
#     Node 6, Type 0, BuildingBlock: GALJAG_clean_sbu_0, # of connection points: 4
#     Node 7, Type 0, BuildingBlock: GALJAG_clean_sbu_0, # of connection points: 4
#     Node 8, Type 0, BuildingBlock: GALJAG_clean_sbu_0, # of connection points: 4
#     Node 9, Type 0, BuildingBlock: GALJAG_clean_sbu_0, # of connection points: 4
#     Node 10, Type 0, BuildingBlock: GALJAG_clean_sbu_0, # of connection points: 4
#     Node 11, Type 0, BuildingBlock: GALJAG_clean_sbu_0, # of connection points: 4
#     Edge 12, Type (0, 0), BuildingBlock: ZUJKAS_clean_linker_0, # of connection points: 2
#     Edge 13, Type (0, 0), BuildingBlock: ZUJKAS_clean_linker_0, # of connection points: 2
#     Edge 14, Type (0, 0), BuildingBlock: ZUJKAS_clean_linker_0, # of connection points: 2
#     Edge 15, Type (0, 0), BuildingBlock: ZUJKAS_clean_linker_0, # of connection points: 2
#     Edge 16, Type (0, 0), BuildingBlock: ZUJKAS_clean_linker_0, # of connection points: 2
#     Edge 17, Type (0, 0), BuildingBlock: ZUJKAS_clean_linker_0, # of connection points: 2
#     Edge 18, Type (0, 0), BuildingBlock: ZUJKAS_clean_linker_0, # of connection points: 2
#     Edge 19, Type (0, 0), BuildingBlock: ZUJKAS_clean_linker_0, # of connection points: 2
#     Edge 20, Type (0, 0), BuildingBlock: ZUJKAS_clean_linker_0, # of connection points: 2
#     Edge 21, Type (0, 0), BuildingBlock: ZUJKAS_clean_linker_0, # of connection points: 2
#     Edge 22, Type (0, 0), BuildingBlock: ZUJKAS_clean_linker_0, # of connection points: 2
#     Edge 23, Type (0, 0), BuildingBlock: ZUJKAS_clean_linker_0, # of connection points: 2
#     Edge 24, Type (0, 0), BuildingBlock: ZUJKAS_clean_linker_0, # of connection points: 2
#     Edge 25, Type (0, 0), BuildingBlock: ZUJKAS_clean_linker_0, # of connection points: 2
#     Edge 26, Type (0, 0), BuildingBlock: ZUJKAS_clean_linker_0, # of connection points: 2
#     Edge 27, Type (0, 0), BuildingBlock: ZUJKAS_clean_linker_0, # of connection points: 2
#     Edge 28, Type (0, 0), BuildingBlock: ZUJKAS_clean_linker_0, # of connection points: 2
#     Edge 29, Type (0, 0), BuildingBlock: ZUJKAS_clean_linker_0, # of connection points: 2
#     Edge 30, Type (0, 0), BuildingBlock: ZUJKAS_clean_linker_0, # of connection points: 2
#     Edge 31, Type (0, 0), BuildingBlock: ZUJKAS_clean_linker_0, # of connection points: 2
#     Edge 32, Type (0, 0), BuildingBlock: ZUJKAS_clean_linker_0, # of connection points: 2
#     Edge 33, Type (0, 0), BuildingBlock: ZUJKAS_clean_linker_0, # of connection points: 2
#     Edge 34, Type (0, 0), BuildingBlock: ZUJKAS_clean_linker_0, # of connection points: 2
#     Edge 35, Type (0, 0), BuildingBlock: ZUJKAS_clean_linker_0, # of connection points: 2
# Relax obj value: 0.135
# Max RMSD: 0.151
# Mean RMSD: 0.151
data_MOF--net-uoq--node1-GALJAG_clean_sbu_0--edge1-ZUJKAS_clean_linker_0
_symmetry_space_group_name_H-M    P1
_symmetry_Int_Tables_number       1
_symmetry_cell_setting            triclinic
loop_
_symmetry_equiv_pos_as_xyz
'x, y, z'
_cell_length_a     81.118551
_cell_length_b     81.099876
_cell_length_c     26.127877
_cell_angle_alpha  90.001508
_cell_angle_beta   90.027413
_cell_angle_gamma 119.97025
loop_
_atom_site_label
_atom_site_type_symbol
_atom_site_fract_x
_atom_site_fract_y
_atom_site_fract_z
_atom_type_partial_charge
In0 In 0.31424 0.44913 0.25081 0.0
O1 O 0.28609 0.43247 0.29344 0.0
O2 O 0.30387 0.46171 0.31188 0.0
C3 C 0.3238 0.42181 0.25933 0.0
C4 C 0.29534 0.44971 0.16607 0.0
C5 C 0.3484 0.47976 0.27175 0.0
O6 O 0.31311 0.42376 0.29071 0.0
O7 O 0.32934 0.43337 0.22231 0.0
O8 O 0.34218 0.47548 0.22646 0.0
O9 O 0.3375 0.46856 0.30562 0.0
C10 C 0.28851 0.44648 0.32011 0.0
O11 O 0.30512 0.46421 0.19334 0.0
O12 O 0.29593 0.43511 0.17986 0.0
In13 In 0.86522 0.31296 0.58235 0.0
O14 O 0.85596 0.28815 0.63724 0.0
O15 O 0.83747 0.2994 0.62723 0.0
C16 C 0.90215 0.32317 0.594 0.0
C17 C 0.84843 0.29373 0.49519 0.0
C18 C 0.86806 0.34662 0.60651 0.0
O19 O 0.88906 0.31108 0.62202 0.0
O20 O 0.89662 0.32988 0.55859 0.0
O21 O 0.86864 0.34185 0.56079 0.0
O22 O 0.86611 0.33446 0.63964 0.0
C23 C 0.84045 0.28724 0.64893 0.0
O24 O 0.84515 0.30606 0.51423 0.0
O25 O 0.86103 0.29188 0.51834 0.0
In26 In 0.54857 0.86566 0.90727 0.0
O27 O 0.56023 0.8606 0.98127 0.0
O28 O 0.53914 0.83643 0.9411 0.0
C29 C 0.57493 0.90304 0.91044 0.0
C30 C 0.55205 0.84915 0.82096 0.0
C31 C 0.51639 0.86605 0.93101 0.0
O32 O 0.57773 0.89031 0.92904 0.0
O33 O 0.55915 0.89687 0.88804 0.0
O34 O 0.52225 0.86755 0.88555 0.0
O35 O 0.5267 0.86428 0.96418 0.0
C36 C 0.55021 0.8427 0.97903 0.0
O37 O 0.53629 0.8465 0.83716 0.0
O38 O 0.56622 0.86098 0.84663 0.0
In39 In 0.68517 0.55101 0.24657 0.0
O40 O 0.71077 0.56725 0.29885 0.0
O41 O 0.69817 0.53714 0.29511 0.0
C42 C 0.67449 0.57744 0.2572 0.0
C43 C 0.70483 0.55301 0.1608 0.0
C44 C 0.65135 0.51994 0.26793 0.0
O45 O 0.68442 0.57485 0.28979 0.0
O46 O 0.67021 0.56694 0.21805 0.0
O47 O 0.65646 0.52571 0.22265 0.0
O48 O 0.66325 0.52984 0.30191 0.0
C49 C 0.71099 0.55258 0.31394 0.0
O50 O 0.69237 0.53748 0.17994 0.0
O51 O 0.70668 0.5676 0.18329 0.0
In52 In 0.13465 0.68407 0.5804 0.0
O53 O 0.15674 0.69264 0.51695 0.0
O54 O 0.13821 0.70398 0.51385 0.0
C55 C 0.13173 0.64988 0.59678 0.0
C56 C 0.15899 0.70997 0.64741 0.0
C57 C 0.09789 0.67381 0.59645 0.0
O58 O 0.13084 0.65557 0.55236 0.0
O59 O 0.13406 0.6614 0.63222 0.0
O60 O 0.11094 0.68326 0.62823 0.0
O61 O 0.10339 0.66983 0.55544 0.0
C62 C 0.15228 0.70362 0.49458 0.0
O63 O 0.14558 0.71127 0.62705 0.0
O64 O 0.16008 0.6956 0.63401 0.0
In65 In 0.44802 0.13358 0.91043 0.0
O66 O 0.4369 0.13851 0.98552 0.0
O67 O 0.45721 0.16278 0.94416 0.0
C68 C 0.42137 0.09629 0.91221 0.0
C69 C 0.44464 0.1504 0.82463 0.0
C70 C 0.48013 0.13316 0.93499 0.0
O71 O 0.41871 0.10907 0.93113 0.0
O72 O 0.43719 0.10238 0.89009 0.0
O73 O 0.47467 0.13215 0.88923 0.0
O74 O 0.46945 0.1344 0.96789 0.0
C75 C 0.44664 0.15641 0.98299 0.0
O76 O 0.46037 0.15278 0.84042 0.0
O77 O 0.43047 0.13868 0.85045 0.0
In78 In 0.55046 0.68714 0.41094 0.0
O79 O 0.56527 0.71721 0.37847 0.0
O80 O 0.54431 0.69496 0.33249 0.0
C81 C 0.57674 0.67661 0.39375 0.0
C82 C 0.55079 0.70644 0.4959 0.0
C83 C 0.51698 0.65422 0.40407 0.0
O84 O 0.57135 0.68394 0.3599 0.0
O85 O 0.56911 0.67484 0.43704 0.0
O86 O 0.53091 0.65556 0.42914 0.0
O87 O 0.51981 0.66954 0.38396 0.0
C88 C 0.55607 0.7125 0.337 0.0
O89 O 0.53579 0.69552 0.47171 0.0
O90 O 0.56554 0.70684 0.47892 0.0
In91 In 0.86478 0.54988 0.75184 0.0
O92 O 0.85494 0.56638 0.70204 0.0
O93 O 0.83978 0.53619 0.69674 0.0
C94 C 0.90184 0.57643 0.74129 0.0
C95 C 0.84594 0.5513 0.83576 0.0
C96 C 0.86785 0.51877 0.73393 0.0
O97 O 0.8893 0.57375 0.7087 0.0
O98 O 0.89566 0.56599 0.78055 0.0
O99 O 0.86751 0.52443 0.7788 0.0
O100 O 0.86673 0.52883 0.6988 0.0
C101 C 0.84148 0.55173 0.68167 0.0
O102 O 0.84211 0.53597 0.81379 0.0
O103 O 0.85999 0.5659 0.81714 0.0
In104 In 0.31234 0.86618 0.08687 0.0
O105 O 0.305 0.8458 0.1544 0.0
O106 O 0.2899 0.86072 0.1481 0.0
C107 C 0.34623 0.86926 0.06476 0.0
C108 C 0.28835 0.8421 0.01584 0.0
C109 C 0.32254 0.90326 0.079 0.0
O110 O 0.34064 0.86857 0.11027 0.0
O111 O 0.33484 0.86862 0.03087 0.0
O112 O 0.31006 0.89041 0.05114 0.0
O113 O 0.3296 0.89739 0.11258 0.0
C114 C 0.29197 0.84835 0.17177 0.0
O115 O 0.28893 0.85747 0.02743 0.0
O116 O 0.29988 0.83886 0.04008 0.0
In117 In 0.44853 0.31353 0.416 0.0
O118 O 0.46243 0.30556 0.47981 0.0
O119 O 0.43247 0.2934 0.48242 0.0
C120 C 0.47943 0.34767 0.39643 0.0
C121 C 0.44656 0.28717 0.35003 0.0
C122 C 0.4218 0.3236 0.4019 0.0
O123 O 0.47354 0.34225 0.44149 0.0
O124 O 0.46976 0.33591 0.36194 0.0
O125 O 0.42533 0.31425 0.3696 0.0
O126 O 0.43148 0.32758 0.4426 0.0
C127 C 0.44707 0.29417 0.50183 0.0
O128 O 0.43194 0.2868 0.36788 0.0
O129 O 0.46216 0.3009 0.36521 0.0
In130 In 0.13305 0.44675 0.75555 0.0
O131 O 0.15194 0.45957 0.8261 0.0
O132 O 0.1396 0.42989 0.81438 0.0
C133 C 0.13107 0.47778 0.72809 0.0
C134 C 0.15634 0.44603 0.68343 0.0
C135 C 0.09577 0.42011 0.75587 0.0
O136 O 0.13201 0.47375 0.77432 0.0
O137 O 0.13107 0.46615 0.69604 0.0
O138 O 0.10824 0.41783 0.7335 0.0
O139 O 0.10217 0.43556 0.78018 0.0
C140 C 0.1506 0.44417 0.84096 0.0
O141 O 0.13901 0.43348 0.68641 0.0
O142 O 0.16189 0.45905 0.71653 0.0
In143 In 0.68469 0.13376 0.0877 0.0
O144 O 0.69397 0.15723 0.14751 0.0
O145 O 0.70422 0.13796 0.15604 0.0
C146 C 0.65064 0.13071 0.06845 0.0
C147 C 0.70952 0.1568 0.01669 0.0
C148 C 0.67435 0.09672 0.0772 0.0
O149 O 0.65664 0.13146 0.11357 0.0
O150 O 0.66174 0.13136 0.03369 0.0
O151 O 0.68644 0.10967 0.04883 0.0
O152 O 0.6678 0.10247 0.11245 0.0
C153 C 0.7045 0.15275 0.17213 0.0
O154 O 0.7113 0.14397 0.03892 0.0
O155 O 0.69522 0.15796 0.03021 0.0
H156 H 0.34974 0.4173 0.20321 0.0
H157 H 0.36366 0.39742 0.22473 0.0
H158 H 0.32774 0.3765 0.35822 0.0
H159 H 0.31362 0.39606 0.33668 0.0
H160 H 0.38345 0.40109 0.31416 0.0
H161 H 0.32216 0.32779 0.29596 0.0
H162 H 0.3222 0.34821 0.2683 0.0
H163 H 0.3174 0.34307 0.33536 0.0
C164 C 0.34455 0.40817 0.23655 0.0
C165 C 0.33061 0.40823 0.26828 0.0
C166 C 0.35254 0.39687 0.24886 0.0
C167 C 0.3466 0.38537 0.2928 0.0
C168 C 0.33227 0.38498 0.32362 0.0
H169 H 0.41411 0.347 0.46032 0.0
H170 H 0.39473 0.36122 0.43589 0.0
C171 C 0.32429 0.39626 0.31138 0.0
C172 C 0.35652 0.37508 0.30896 0.0
H173 H 0.3496 0.3311 0.33907 0.0
C174 C 0.37608 0.38577 0.31934 0.0
C175 C 0.34686 0.3551 0.31547 0.0
C176 C 0.32603 0.34282 0.30275 0.0
C177 C 0.38624 0.37706 0.3367 0.0
C178 C 0.37648 0.35715 0.34476 0.0
C179 C 0.35697 0.3464 0.33361 0.0
C180 C 0.38656 0.34719 0.3622 0.0
C181 C 0.4074 0.3892 0.34538 0.0
C182 C 0.38769 0.33402 0.32979 0.0
C183 C 0.3986 0.32582 0.34374 0.0
C184 C 0.40854 0.3306 0.39047 0.0
C185 C 0.40668 0.34313 0.42399 0.0
C186 C 0.39572 0.35133 0.40997 0.0
H187 H 0.41337 0.40328 0.3263 0.0
H188 H 0.41022 0.39168 0.38703 0.0
H189 H 0.41503 0.38195 0.33096 0.0
H190 H 0.38064 0.33057 0.2929 0.0
H191 H 0.39969 0.31615 0.31719 0.0
H192 H 0.93322 0.3551 0.55712 0.0
H193 H 0.96623 0.36862 0.58555 0.0
H194 H 0.9497 0.32037 0.68501 0.0
H195 H 0.91662 0.30713 0.65795 0.0
H196 H 0.97038 0.35283 0.73526 0.0
H197 H 0.00686 0.35556 0.55383 0.0
H198 H 0.99331 0.36746 0.54901 0.0
H199 H 0.9813 0.34218 0.56029 0.0
C200 C 0.93671 0.34723 0.5843 0.0
C201 C 0.92239 0.33008 0.60532 0.0
C202 C 0.95559 0.35491 0.60038 0.0
C203 C 0.96049 0.3454 0.63701 0.0
C204 C 0.94625 0.32795 0.65669 0.0
H205 H 0.07902 0.38475 0.71318 0.0
H206 H 0.04556 0.36478 0.68943 0.0
C207 C 0.92738 0.32038 0.64108 0.0
C208 C 0.98011 0.35428 0.65774 0.0
H209 H 0.02674 0.37426 0.62313 0.0
C210 C 0.9827 0.35734 0.71078 0.0
C211 C 0.99615 0.35992 0.62594 0.0
C212 C 0.99428 0.35594 0.56919 0.0
C213 C 0.00092 0.36634 0.73274 0.0
C214 C 0.01702 0.3729 0.70061 0.0
C215 C 0.0144 0.36937 0.64774 0.0
C216 C 0.03673 0.38389 0.72056 0.0
C217 C 0.0027 0.36855 0.79016 0.0
C218 C 0.04283 0.4011 0.74685 0.0
C219 C 0.06189 0.4124 0.76109 0.0
C220 C 0.07524 0.40685 0.74845 0.0
C221 C 0.06903 0.38937 0.72349 0.0
C222 C 0.04994 0.37799 0.70973 0.0
H223 H 0.98958 0.35764 0.80965 0.0
H224 H 0.01498 0.36744 0.80463 0.0
H225 H 0.00486 0.38275 0.80079 0.0
H226 H 0.03301 0.40618 0.75456 0.0
H227 H 0.06632 0.42591 0.77977 0.0
H228 H 0.61063 0.91969 0.95144 0.0
H229 H 0.63031 0.95286 0.97842 0.0
H230 H 0.58792 0.96543 0.92099 0.0
H231 H 0.56847 0.93245 0.89253 0.0
H232 H 0.62342 0.99372 0.9 0.0
H233 H 0.61824 0.97359 0.10482 0.0
H234 H 0.62844 0.96295 0.0651 0.0
H235 H 0.60406 0.95682 0.05576 0.0
C236 C 0.60565 0.9296 0.94392 0.0
C237 C 0.58797 0.92347 0.9202 0.0
C238 C 0.61682 0.9485 0.9598 0.0
C239 C 0.61034 0.96148 0.95298 0.0
C240 C 0.59312 0.9556 0.92702 0.0
H241 H 0.64216 0.0661 0.11457 0.0
H242 H 0.62766 0.03306 0.08524 0.0
C243 C 0.58204 0.93677 0.91067 0.0
C244 C 0.62117 0.98106 0.97394 0.0
H245 H 0.63828 0.00619 0.08502 0.0
C246 C 0.62671 0.99646 0.94043 0.0
C247 C 0.62515 0.98458 0.02688 0.0
C248 C 0.61851 0.96863 0.06535 0.0
C249 C 0.63613 0.01529 0.95832 0.0
C250 C 0.64061 0.01884 0.01103 0.0
C251 C 0.63504 0.00344 0.04457 0.0
C252 C 0.65033 0.0384 0.03231 0.0
C253 C 0.64061 0.03114 0.92078 0.0
C254 C 0.66821 0.05218 0.01378 0.0
C255 C 0.67641 0.07106 0.03009 0.0
C256 C 0.66702 0.0764 0.06594 0.0
C257 C 0.64971 0.06237 0.08692 0.0
C258 C 0.6414 0.04351 0.07012 0.0
H259 H 0.63175 0.02579 0.88565 0.0
H260 H 0.63829 0.0423 0.93822 0.0
H261 H 0.65575 0.03779 0.90913 0.0
H262 H 0.67561 0.04844 0.98571 0.0
H263 H 0.68987 0.08155 0.01364 0.0
H264 H 0.68385 0.60257 0.3358 0.0
H265 H 0.66931 0.62179 0.35742 0.0
H266 H 0.63413 0.60128 0.22246 0.0
H267 H 0.64859 0.5819 0.20053 0.0
H268 H 0.66571 0.65042 0.29952 0.0
H269 H 0.59645 0.58613 0.3458 0.0
H270 H 0.6183 0.58548 0.33983 0.0
H271 H 0.60602 0.58633 0.28358 0.0
C272 C 0.67317 0.6023 0.31038 0.0
C273 C 0.66724 0.59063 0.26666 0.0
C274 C 0.66491 0.61331 0.32278 0.0
C275 C 0.6505 0.61272 0.2919 0.0
C276 C 0.64508 0.6017 0.24707 0.0
H277 H 0.59607 0.68095 0.30505 0.0
H278 H 0.61543 0.66666 0.2825 0.0
C279 C 0.65341 0.59073 0.23449 0.0
C280 C 0.64056 0.62295 0.30811 0.0
H281 H 0.59765 0.6158 0.35008 0.0
C282 C 0.65083 0.6429 0.31052 0.0
C283 C 0.62126 0.61302 0.32328 0.0
C284 C 0.60983 0.59155 0.3235 0.0
C285 C 0.64214 0.65323 0.3269 0.0
C286 C 0.6227 0.6433 0.34086 0.0
C287 C 0.61255 0.62335 0.3392 0.0
C288 C 0.61242 0.65329 0.3562 0.0
C289 C 0.65384 0.67464 0.32976 0.0
C290 C 0.60429 0.65045 0.40512 0.0
C291 C 0.5932 0.6586 0.41815 0.0
C292 C 0.58991 0.66952 0.38219 0.0
C293 C 0.5984 0.67263 0.3336 0.0
C294 C 0.60954 0.66457 0.32072 0.0
H295 H 0.66934 0.67972 0.32987 0.0
H296 H 0.65066 0.68086 0.29593 0.0
H297 H 0.65026 0.68004 0.36464 0.0
H298 H 0.60629 0.64168 0.4329 0.0
H299 H 0.58678 0.6559 0.4558 0.0
H300 H 0.91748 0.60058 0.66076 0.0
H301 H 0.95115 0.61944 0.63846 0.0
H302 H 0.96608 0.60092 0.77677 0.0
H303 H 0.93228 0.58177 0.79923 0.0
H304 H 0.98306 0.64873 0.69048 0.0
H305 H 0.98885 0.58393 0.66036 0.0
H306 H 0.96625 0.58304 0.66609 0.0
H307 H 0.98021 0.58577 0.72219 0.0
C308 C 0.92792 0.60067 0.68676 0.0
C309 C 0.92225 0.58957 0.73153 0.0
C310 C 0.94715 0.61147 0.67396 0.0
C311 C 0.96103 0.61131 0.70554 0.0
C312 C 0.95551 0.60096 0.7515 0.0
H313 H 0.08349 0.68147 0.68144 0.0
H314 H 0.05009 0.66736 0.706 0.0
C315 C 0.93624 0.59013 0.76441 0.0
C316 C 0.98116 0.62128 0.68888 0.0
H317 H 0.01707 0.61359 0.65152 0.0
C318 C 0.99055 0.64109 0.68204 0.0
C319 C 0.9907 0.61118 0.67702 0.0
C320 C 0.98099 0.58979 0.68129 0.0
C321 C 0.00939 0.65113 0.66426 0.0
C322 C 0.01907 0.64107 0.65357 0.0
C323 C 0.0096 0.62125 0.65988 0.0
C324 C 0.03916 0.6508 0.63665 0.0
C325 C 0.01867 0.67234 0.65625 0.0
C326 C 0.04409 0.6461 0.58956 0.0
C327 C 0.0632 0.6541 0.57544 0.0
C328 C 0.07767 0.6668 0.60846 0.0
C329 C 0.07265 0.67178 0.65509 0.0
C330 C 0.05357 0.66382 0.6691 0.0
H331 H 0.00797 0.67703 0.65327 0.0
H332 H 0.02805 0.67978 0.68933 0.0
H333 H 0.02754 0.67677 0.62109 0.0
H334 H 0.03315 0.636 0.56412 0.0
H335 H 0.06665 0.64995 0.53939 0.0
H336 H 0.35494 0.93393 0.11564 0.0
H337 H 0.36887 0.96705 0.08765 0.0
H338 H 0.32014 0.95155 0.99098 0.0
H339 H 0.3064 0.9184 0.01773 0.0
H340 H 0.35275 0.97121 0.93907 0.0
H341 H 0.35735 0.00894 0.11986 0.0
H342 H 0.36847 0.99463 0.12433 0.0
H343 H 0.3432 0.98339 0.11389 0.0
C344 C 0.34703 0.93768 0.08927 0.0
C345 C 0.32961 0.92361 0.06881 0.0
C346 C 0.35497 0.95662 0.07343 0.0
C347 C 0.34546 0.96181 0.03754 0.0
C348 C 0.32771 0.94787 0.0187 0.0
H349 H 0.38605 0.0801 0.95502 0.0
H350 H 0.36599 0.0469 0.98103 0.0
C351 C 0.31986 0.92895 0.03414 0.0
C352 C 0.3547 0.98138 0.01631 0.0
H353 H 0.37567 0.02826 0.04945 0.0
C354 C 0.35759 0.98368 0.96317 0.0
C355 C 0.36082 0.99762 0.04765 0.0
C356 C 0.35713 0.99605 0.10453 0.0
C357 C 0.36686 0.0018 0.94066 0.0
C358 C 0.37381 0.01807 0.97228 0.0
C359 C 0.37048 0.01577 0.02526 0.0
C360 C 0.38498 0.03765 0.95157 0.0
C361 C 0.36897 0.00331 0.8832 0.0
C362 C 0.40217 0.04341 0.92561 0.0
C363 C 0.41355 0.06232 0.91022 0.0
C364 C 0.40807 0.07586 0.92121 0.0
C365 C 0.39061 0.06997 0.94591 0.0
C366 C 0.37918 0.05103 0.96097 0.0
H367 H 0.35801 0.99012 0.86404 0.0
H368 H 0.36788 0.01555 0.86834 0.0
H369 H 0.38314 0.0054 0.87259 0.0
H370 H 0.40714 0.03344 0.91893 0.0
H371 H 0.42703 0.0665 0.89174 0.0
H372 H 0.15338 0.41341 0.87108 0.0
H373 H 0.17721 0.41331 0.92849 0.0
H374 H 0.20018 0.47321 0.95741 0.0
H375 H 0.17634 0.4734 0.90045 0.0
H376 H 0.2167 0.43552 0.91277 0.0
H377 H 0.19605 0.45116 0.1012 0.0
H378 H 0.18006 0.4428 0.04706 0.0
H379 H 0.1983 0.4674 0.05134 0.0
C380 C 0.16324 0.42646 0.89055 0.0
C381 C 0.16297 0.44341 0.88136 0.0
C382 C 0.17689 0.4264 0.92312 0.0
C383 C 0.19037 0.44322 0.94743 0.0
C384 C 0.18971 0.46001 0.9397 0.0
H385 H 0.29045 0.47899 0.13422 0.0
H386 H 0.26556 0.47716 0.07763 0.0
C387 C 0.1761 0.4601 0.90705 0.0
C388 C 0.20599 0.44358 0.9778 0.0
H389 H 0.22656 0.45378 0.09614 0.0
C390 C 0.21879 0.43935 0.95299 0.0
C391 C 0.2087 0.44866 0.03014 0.0
C392 C 0.19496 0.4526 0.05922 0.0
C393 C 0.23453 0.44053 0.97885 0.0
C394 C 0.23734 0.44581 0.03107 0.0
C395 C 0.22443 0.44985 0.05599 0.0
C396 C 0.25354 0.44719 0.06087 0.0
C397 C 0.24829 0.43664 0.94976 0.0
C398 C 0.25523 0.43102 0.06949 0.0
C399 C 0.26951 0.43204 0.10166 0.0
C400 C 0.28224 0.44924 0.126 0.0
C401 C 0.2809 0.46555 0.11588 0.0
C402 C 0.26664 0.46452 0.08375 0.0
H403 H 0.24681 0.43748 0.90771 0.0
H404 H 0.26321 0.44687 0.9608 0.0
H405 H 0.24541 0.42208 0.959 0.0
H406 H 0.24508 0.41743 0.05287 0.0
H407 H 0.27008 0.41919 0.10904 0.0
H408 H 0.81996 0.29461 0.4419 0.0
H409 H 0.79669 0.26992 0.38521 0.0
H410 H 0.82607 0.23818 0.4004 0.0
H411 H 0.84937 0.26277 0.45748 0.0
H412 H 0.80073 0.25363 0.29185 0.0
H413 H 0.77121 0.20107 0.45078 0.0
H414 H 0.7866 0.22623 0.4618 0.0
H415 H 0.79641 0.2119 0.44037 0.0
C416 C 0.82165 0.28253 0.43253 0.0
C417 C 0.83642 0.28056 0.45439 0.0
C418 C 0.80833 0.26842 0.40024 0.0
C419 C 0.80946 0.25207 0.38951 0.0
C420 C 0.82476 0.25054 0.40904 0.0
H421 H 0.7321 0.14881 0.22147 0.0
H422 H 0.75774 0.17252 0.27546 0.0
C423 C 0.83814 0.26467 0.44126 0.0
C424 C 0.79418 0.23636 0.35953 0.0
H425 H 0.75764 0.19046 0.369 0.0
C426 C 0.79133 0.2398 0.30862 0.0
C427 C 0.78196 0.21834 0.38163 0.0
C428 C 0.78402 0.21411 0.43676 0.0
C429 C 0.77658 0.22568 0.27906 0.0
C430 C 0.76413 0.20778 0.30143 0.0
C431 C 0.76718 0.20422 0.35209 0.0
C432 C 0.74771 0.19272 0.27288 0.0
C433 C 0.77457 0.22996 0.22394 0.0
C434 C 0.73319 0.19592 0.2554 0.0
C435 C 0.71855 0.18242 0.22476 0.0
C436 C 0.71809 0.16542 0.2113 0.0
C437 C 0.73207 0.16177 0.23122 0.0
C438 C 0.74675 0.17532 0.26189 0.0
H439 H 0.78794 0.24215 0.20903 0.0
H440 H 0.77058 0.21737 0.19922 0.0
H441 H 0.76319 0.2337 0.221 0.0
H442 H 0.73345 0.20908 0.26445 0.0
H443 H 0.70794 0.18561 0.2102 0.0
H444 H 0.52317 0.82144 0.7647 0.0
H445 H 0.52476 0.79819 0.70837 0.0
H446 H 0.58555 0.82623 0.72985 0.0
H447 H 0.58406 0.84945 0.78681 0.0
H448 H 0.54536 0.8019 0.61784 0.0
H449 H 0.56691 0.77125 0.77729 0.0
H450 H 0.55772 0.78715 0.78802 0.0
H451 H 0.5819 0.79641 0.76753 0.0
C452 C 0.53692 0.82284 0.75685 0.0
C453 C 0.55347 0.83719 0.78046 0.0
C454 C 0.5378 0.80952 0.72475 0.0
C455 C 0.55521 0.81026 0.71588 0.0
C456 C 0.57191 0.82518 0.73713 0.0
H457 H 0.58204 0.73405 0.54603 0.0
H458 H 0.58352 0.75927 0.60095 0.0
C459 C 0.57106 0.83853 0.76926 0.0
C460 C 0.55567 0.795 0.68579 0.0
H461 H 0.56479 0.75827 0.69498 0.0
C462 C 0.54963 0.79237 0.63464 0.0
C463 C 0.56124 0.78259 0.70792 0.0
C464 C 0.56717 0.78431 0.76331 0.0
C465 C 0.54908 0.7777 0.60487 0.0
C466 C 0.55438 0.76513 0.6272 0.0
C467 C 0.56069 0.76791 0.67811 0.0
C468 C 0.55325 0.7489 0.59821 0.0
C469 C 0.54303 0.7759 0.54957 0.0
C470 C 0.53565 0.73432 0.5803 0.0
C471 C 0.53474 0.71989 0.54914 0.0
C472 C 0.55143 0.71975 0.53554 0.0
C473 C 0.56894 0.73378 0.55585 0.0
C474 C 0.56982 0.74822 0.58707 0.0
H475 H 0.54407 0.78926 0.535 0.0
H476 H 0.55187 0.7722 0.52498 0.0
H477 H 0.52799 0.76438 0.546 0.0
H478 H 0.52265 0.73438 0.5894 0.0
H479 H 0.52104 0.70924 0.53425 0.0
H480 H 0.73543 0.58474 0.12127 0.0
H481 H 0.75963 0.58586 0.06298 0.0
H482 H 0.72852 0.52461 0.05212 0.0
H483 H 0.70422 0.52338 0.10981 0.0
H484 H 0.78173 0.56904 0.08301 0.0
H485 H 0.74107 0.54095 0.90272 0.0
H486 H 0.73279 0.54961 0.95469 0.0
H487 H 0.72976 0.52609 0.95727 0.0
C488 C 0.73354 0.57154 0.10556 0.0
C489 C 0.7179 0.55397 0.12 0.0
C490 C 0.74742 0.57221 0.07247 0.0
C491 C 0.7458 0.55534 0.05292 0.0
C492 C 0.72988 0.53782 0.066 0.0
H493 H 0.81431 0.52174 0.87839 0.0
H494 H 0.79102 0.52352 0.93407 0.0
C495 C 0.71603 0.53714 0.09911 0.0
C496 C 0.76139 0.55589 0.02202 0.0
H497 H 0.77102 0.54218 0.90765 0.0
C498 C 0.77947 0.56335 0.04446 0.0
C499 C 0.75836 0.5484 0.97185 0.0
C500 C 0.7395 0.54097 0.94496 0.0
C501 C 0.79447 0.56299 0.0186 0.0
C502 C 0.79134 0.55521 0.96875 0.0
C503 C 0.77334 0.54802 0.94604 0.0
C504 C 0.80646 0.55425 0.93933 0.0
C505 C 0.81335 0.5704 0.04541 0.0
C506 C 0.82304 0.57094 0.92453 0.0
C507 C 0.83643 0.56996 0.89289 0.0
C508 C 0.8334 0.55227 0.87524 0.0
C509 C 0.81709 0.53557 0.89149 0.0
C510 C 0.80373 0.53656 0.92312 0.0
H511 H 0.81206 0.57156 0.08742 0.0
H512 H 0.81944 0.56103 0.03806 0.0
H513 H 0.82349 0.5848 0.03056 0.0
H514 H 0.82528 0.58475 0.93592 0.0
H515 H 0.84878 0.58308 0.88065 0.0
H516 H 0.14778 0.73122 0.44744 0.0
H517 H 0.17015 0.756 0.38917 0.0
H518 H 0.20649 0.73131 0.39375 0.0
H519 H 0.18413 0.70643 0.45125 0.0
H520 H 0.20766 0.78214 0.41268 0.0
H521 H 0.20425 0.74028 0.24136 0.0
H522 H 0.18638 0.73086 0.29096 0.0
H523 H 0.20856 0.7312 0.29939 0.0
C524 C 0.16033 0.73084 0.43509 0.0
C525 C 0.16418 0.71685 0.45378 0.0
C526 C 0.17313 0.74505 0.40202 0.0
C527 C 0.1899 0.74541 0.38678 0.0
C528 C 0.19346 0.73111 0.40418 0.0
H529 H 0.2931 0.81997 0.22469 0.0
H530 H 0.2683 0.79611 0.27981 0.0
C531 C 0.18069 0.71692 0.4372 0.0
C532 C 0.20438 0.76146 0.35588 0.0
H533 H 0.23073 0.7719 0.24652 0.0
C534 C 0.21258 0.77996 0.37606 0.0
C535 C 0.21079 0.75855 0.30821 0.0
C536 C 0.20191 0.73917 0.28342 0.0
C537 C 0.22746 0.79555 0.35063 0.0
C538 C 0.23412 0.79256 0.30352 0.0
C539 C 0.22569 0.77412 0.2829 0.0
C540 C 0.24993 0.80828 0.27486 0.0
C541 C 0.23632 0.81498 0.37509 0.0
C542 C 0.24798 0.82325 0.25464 0.0
C543 C 0.26219 0.83698 0.22329 0.0
C544 C 0.27851 0.83586 0.21139 0.0
C545 C 0.28072 0.82125 0.23327 0.0
C546 C 0.26653 0.80756 0.26459 0.0
H547 H 0.23267 0.81413 0.41636 0.0
H548 H 0.25205 0.82258 0.37114 0.0
H549 H 0.23098 0.82355 0.35558 0.0
H550 H 0.23515 0.8239 0.26143 0.0
H551 H 0.26001 0.84798 0.20664 0.0
H552 H 0.47361 0.17828 0.76904 0.0
H553 H 0.47209 0.2017 0.71323 0.0
H554 H 0.41127 0.17361 0.73403 0.0
H555 H 0.4127 0.15023 0.7905 0.0
H556 H 0.45185 0.19842 0.62279 0.0
H557 H 0.42954 0.2283 0.78235 0.0
H558 H 0.43868 0.21235 0.79294 0.0
H559 H 0.41457 0.20319 0.7718 0.0
C560 C 0.45987 0.17691 0.76115 0.0
C561 C 0.44329 0.1625 0.78445 0.0
C562 C 0.45903 0.19033 0.72935 0.0
C563 C 0.44163 0.18963 0.72045 0.0
C564 C 0.4249 0.17464 0.74136 0.0
H565 H 0.41532 0.26599 0.54883 0.0
H566 H 0.41347 0.24055 0.60361 0.0
C567 C 0.42572 0.16121 0.77322 0.0
C568 C 0.4412 0.20496 0.69064 0.0
H569 H 0.4318 0.24151 0.70026 0.0
C570 C 0.44745 0.20782 0.63968 0.0
C571 C 0.43545 0.21722 0.71287 0.0
C572 C 0.42933 0.21529 0.76811 0.0
C573 C 0.44806 0.22259 0.61022 0.0
C574 C 0.44257 0.235 0.63265 0.0
C575 C 0.43603 0.23198 0.68333 0.0
C576 C 0.44383 0.25135 0.60404 0.0
C577 C 0.45442 0.22471 0.55516 0.0
C578 C 0.46157 0.26621 0.588 0.0
C579 C 0.46269 0.28077 0.55702 0.0
C580 C 0.44607 0.28074 0.54163 0.0
C581 C 0.42837 0.26639 0.56008 0.0
C582 C 0.42728 0.25183 0.5912 0.0
H583 H 0.45373 0.21153 0.54037 0.0
H584 H 0.44553 0.22829 0.53035 0.0
H585 H 0.46938 0.23646 0.55224 0.0
H586 H 0.47453 0.26626 0.59834 0.0
H587 H 0.47653 0.29164 0.54355 0.0
H588 H 0.19365 0.4722 0.66759 0.0
H589 H 0.21513 0.47089 0.60413 0.0
H590 H 0.16975 0.41696 0.54965 0.0
H591 H 0.14808 0.41833 0.61239 0.0
H592 H 0.22558 0.44328 0.59421 0.0
H593 H 0.18965 0.44798 0.41819 0.0
H594 H 0.18449 0.45361 0.48089 0.0
H595 H 0.17449 0.42922 0.46126 0.0
C596 C 0.18822 0.46013 0.64184 0.0
C597 C 0.16919 0.44541 0.64469 0.0
C598 C 0.20049 0.45939 0.60573 0.0
C599 C 0.19393 0.44396 0.57185 0.0
C600 C 0.17496 0.42918 0.57478 0.0
H601 H 0.25288 0.41649 0.33753 0.0
H602 H 0.22951 0.41484 0.39991 0.0
C603 C 0.16265 0.42994 0.61078 0.0
C604 C 0.20716 0.44311 0.53455 0.0
H605 H 0.21522 0.44207 0.40672 0.0
C606 C 0.22334 0.44303 0.55322 0.0
C607 C 0.2041 0.44274 0.48115 0.0
C608 C 0.18734 0.44356 0.45902 0.0
C609 C 0.2366 0.44259 0.51979 0.0
C610 C 0.23363 0.44238 0.46649 0.0
C611 C 0.21733 0.44217 0.44774 0.0
C612 C 0.24773 0.44321 0.42953 0.0
C613 C 0.25367 0.44227 0.54158 0.0
C614 C 0.26554 0.45977 0.42554 0.0
C615 C 0.27882 0.4608 0.38995 0.0
C616 C 0.27448 0.44524 0.35788 0.0
C617 C 0.2566 0.42865 0.36195 0.0
C618 C 0.24327 0.42769 0.39739 0.0
H619 H 0.25173 0.43826 0.58272 0.0
H620 H 0.25651 0.43212 0.52013 0.0
H621 H 0.26639 0.45665 0.53796 0.0
H622 H 0.26909 0.47197 0.44969 0.0
H623 H 0.29247 0.47377 0.38755 0.0
H624 H 0.84409 0.25997 0.70015 0.0
H625 H 0.82157 0.23648 0.76067 0.0
H626 H 0.78397 0.25925 0.74071 0.0
H627 H 0.8063 0.28264 0.67974 0.0
H628 H 0.80839 0.24378 0.85264 0.0
H629 H 0.74913 0.20183 0.71733 0.0
H630 H 0.77307 0.21814 0.69619 0.0
H631 H 0.75771 0.22698 0.71615 0.0
C632 C 0.83098 0.2599 0.70849 0.0
C633 C 0.82689 0.27307 0.68519 0.0
C634 C 0.81816 0.2465 0.743 0.0
C635 C 0.80104 0.246 0.75446 0.0
C636 C 0.79696 0.2592 0.7315 0.0
H637 H 0.70777 0.18451 0.96228 0.0
H638 H 0.73052 0.20588 0.89859 0.0
C639 C 0.80977 0.2726 0.69698 0.0
C640 C 0.78773 0.23212 0.7919 0.0
H641 H 0.74222 0.19547 0.80602 0.0
C642 C 0.79397 0.2331 0.84247 0.0
C643 C 0.76896 0.21826 0.77825 0.0
C644 C 0.76182 0.21606 0.72393 0.0
C645 C 0.78172 0.22087 0.88027 0.0
C646 C 0.76288 0.20718 0.86676 0.0
C647 C 0.7567 0.20605 0.81609 0.0
C648 C 0.74922 0.19414 0.90497 0.0
C649 C 0.78883 0.223 0.93461 0.0
C650 C 0.75219 0.18038 0.92903 0.0
C651 C 0.73924 0.16816 0.96538 0.0
C652 C 0.72312 0.16952 0.97799 0.0
C653 C 0.7201 0.18319 0.95339 0.0
C654 C 0.73303 0.19537 0.91702 0.0
H655 H 0.80221 0.23672 0.94064 0.0
H656 H 0.77795 0.22209 0.96204 0.0
H657 H 0.79169 0.21128 0.94346 0.0
H658 H 0.76448 0.17906 0.91954 0.0
H659 H 0.74186 0.15769 0.98362 0.0
H660 H 0.53088 0.80394 0.97981 0.0
H661 H 0.53395 0.78296 0.0416 0.0
H662 H 0.57616 0.83187 0.12478 0.0
H663 H 0.57305 0.85299 0.0634 0.0
H664 H 0.56776 0.78206 0.06641 0.0
H665 H 0.53689 0.79889 0.23494 0.0
H666 H 0.53367 0.8046 0.17025 0.0
H667 H 0.55584 0.81906 0.20284 0.0
C668 C 0.54072 0.81022 0.01146 0.0
C669 C 0.55167 0.83008 0.01702 0.0
C670 C 0.54249 0.79824 0.04657 0.0
C671 C 0.55513 0.80591 0.08788 0.0
C672 C 0.56611 0.82572 0.09352 0.0
H673 H 0.57884 0.75108 0.34102 0.0
H674 H 0.58051 0.77443 0.27872 0.0
C675 C 0.56436 0.83773 0.05839 0.0
C676 C 0.55704 0.7931 0.12447 0.0
H677 H 0.54948 0.77857 0.24897 0.0
C678 C 0.56379 0.78128 0.10635 0.0
C679 C 0.55191 0.79225 0.17648 0.0
C680 C 0.54403 0.80425 0.19741 0.0
C681 C 0.56555 0.76854 0.13907 0.0
C682 C 0.56013 0.76747 0.19089 0.0
C683 C 0.55367 0.77951 0.20917 0.0
C684 C 0.56023 0.75337 0.22641 0.0
C685 C 0.57333 0.75647 0.11804 0.0
C686 C 0.5483 0.73385 0.21741 0.0
C687 C 0.54732 0.72051 0.25282 0.0
C688 C 0.55818 0.72651 0.29793 0.0
C689 C 0.57036 0.74606 0.30648 0.0
C690 C 0.57131 0.7594 0.27105 0.0
H691 H 0.58161 0.76262 0.08238 0.0
H692 H 0.58259 0.75485 0.14653 0.0
H693 H 0.56131 0.74209 0.10886 0.0
H694 H 0.53936 0.72895 0.18364 0.0
H695 H 0.53775 0.70554 0.24538 0.0
H696 H 0.7139 0.52288 0.35207 0.0
H697 H 0.73709 0.52422 0.41426 0.0
H698 H 0.76321 0.58535 0.42081 0.0
H699 H 0.73992 0.58414 0.35904 0.0
H700 H 0.77724 0.54406 0.40586 0.0
H701 H 0.75246 0.56882 0.5719 0.0
H702 H 0.73828 0.55897 0.5149 0.0
H703 H 0.75776 0.58304 0.51503 0.0
C704 C 0.72455 0.5366 0.36687 0.0
C705 C 0.72507 0.5534 0.35099 0.0
C706 C 0.73777 0.53734 0.40229 0.0
C707 C 0.75165 0.55485 0.42251 0.0
C708 C 0.75236 0.57168 0.40627 0.0
H709 H 0.84184 0.58342 0.64506 0.0
H710 H 0.82071 0.5848 0.58027 0.0
C711 C 0.73913 0.57096 0.37086 0.0
C712 C 0.76554 0.55546 0.46005 0.0
H713 H 0.78021 0.56665 0.58397 0.0
C714 C 0.77791 0.54899 0.44482 0.0
C715 C 0.76635 0.56196 0.5107 0.0
C716 C 0.75292 0.56846 0.52943 0.0
C717 C 0.79118 0.54889 0.47901 0.0
C718 C 0.79182 0.55516 0.52982 0.0
C719 C 0.77964 0.56188 0.54488 0.0
C720 C 0.80467 0.55434 0.5684 0.0
C721 C 0.80451 0.54227 0.4604 0.0
C722 C 0.80241 0.53673 0.58342 0.0
C723 C 0.8144 0.53589 0.62033 0.0
C724 C 0.82878 0.55266 0.64292 0.0
C725 C 0.83091 0.57028 0.62813 0.0
C726 C 0.81888 0.5711 0.59124 0.0
H727 H 0.80555 0.54264 0.41797 0.0
H728 H 0.81899 0.5512 0.47663 0.0
H729 H 0.79911 0.52737 0.473 0.0
H730 H 0.79128 0.52362 0.56684 0.0
H731 H 0.81238 0.52211 0.63118 0.0
H732 H 0.18748 0.70887 0.69962 0.0
H733 H 0.20934 0.73205 0.76177 0.0
H734 H 0.18277 0.7662 0.73966 0.0
H735 H 0.16062 0.7429 0.67808 0.0
H736 H 0.23518 0.77063 0.74756 0.0
H737 H 0.18125 0.7595 0.89509 0.0
H738 H 0.17627 0.74316 0.84268 0.0
H739 H 0.17631 0.7651 0.83247 0.0
C740 C 0.18626 0.72129 0.70813 0.0
C741 C 0.1723 0.72405 0.68432 0.0
C742 C 0.19876 0.7345 0.74355 0.0
C743 C 0.19745 0.75065 0.75577 0.0
C744 C 0.18372 0.75361 0.73148 0.0
H745 H 0.26198 0.84593 0.96043 0.0
H746 H 0.24026 0.8241 0.89552 0.0
C747 C 0.17116 0.74035 0.69617 0.0
C748 C 0.21071 0.76453 0.79339 0.0
H749 H 0.21265 0.78481 0.90929 0.0
C750 C 0.23029 0.77372 0.78299 0.0
C751 C 0.20421 0.76849 0.83946 0.0
C752 C 0.18338 0.75844 0.85347 0.0
C753 C 0.24358 0.78694 0.81737 0.0
C754 C 0.23708 0.79083 0.86349 0.0
C755 C 0.21752 0.78176 0.87374 0.0
C756 C 0.25039 0.80406 0.90207 0.0
C757 C 0.26445 0.79684 0.80381 0.0
C758 C 0.26307 0.79984 0.92742 0.0
C759 C 0.27546 0.81223 0.96447 0.0
C760 C 0.27527 0.829 0.9768 0.0
C761 C 0.26246 0.83313 0.95157 0.0
C762 C 0.25006 0.8207 0.91458 0.0
H763 H 0.26668 0.79578 0.76227 0.0
H764 H 0.27162 0.81212 0.81469 0.0
H765 H 0.27137 0.7901 0.82514 0.0
H766 H 0.26327 0.78687 0.91884 0.0
H767 H 0.28514 0.80867 0.9835 0.0
H768 H 0.42619 0.14594 0.07167 0.0
H769 H 0.42427 0.16691 0.136 0.0
H770 H 0.4629 0.21596 0.04702 0.0
H771 H 0.46483 0.19515 0.98247 0.0
H772 H 0.45506 0.19664 0.19233 0.0
H773 H 0.41639 0.22311 0.07325 0.0
H774 H 0.4174 0.20196 0.0573 0.0
H775 H 0.43732 0.2251 0.04377 0.0
C776 C 0.43423 0.16119 0.06581 0.0
C777 C 0.44561 0.16894 0.02207 0.0
C778 C 0.43313 0.17311 0.10251 0.0
C779 C 0.44324 0.1929 0.09574 0.0
C780 C 0.45474 0.20068 0.05237 0.0
H781 H 0.47611 0.28477 0.30869 0.0
H782 H 0.47436 0.26076 0.24881 0.0
C783 C 0.45591 0.18879 0.01574 0.0
C784 C 0.44216 0.20551 0.13461 0.0
H785 H 0.42941 0.23933 0.15178 0.0
C786 C 0.44934 0.20589 0.1837 0.0
C787 C 0.43446 0.21733 0.12317 0.0
C788 C 0.42578 0.21679 0.07167 0.0
C789 C 0.44956 0.21829 0.2214 0.0
C790 C 0.4426 0.2307 0.20927 0.0
C791 C 0.43488 0.22989 0.16068 0.0
C792 C 0.44359 0.24493 0.24613 0.0
C793 C 0.45718 0.21801 0.27388 0.0
C794 C 0.42685 0.24413 0.26349 0.0
C795 C 0.4278 0.25785 0.2975 0.0
C796 C 0.44552 0.27265 0.31427 0.0
C797 C 0.46226 0.27347 0.29653 0.0
C798 C 0.46129 0.25973 0.26262 0.0
H799 H 0.45734 0.20457 0.28087 0.0
H800 H 0.47201 0.23001 0.27713 0.0
H801 H 0.44856 0.21972 0.30419 0.0
H802 H 0.41307 0.23284 0.25083 0.0
H803 H 0.41467 0.2569 0.31052 0.0
H804 H 0.37361 0.50773 0.20748 0.0
H805 H 0.40291 0.53691 0.23151 0.0
H806 H 0.39352 0.51947 0.38975 0.0
H807 H 0.36423 0.49051 0.36626 0.0
H808 H 0.40123 0.55659 0.37463 0.0
H809 H 0.45448 0.54361 0.27679 0.0
H810 H 0.43556 0.54146 0.23646 0.0
H811 H 0.4303 0.52493 0.2881 0.0
C812 C 0.37791 0.51006 0.24729 0.0
C813 C 0.36665 0.49686 0.28498 0.0
C814 C 0.39467 0.52667 0.26093 0.0
C815 C 0.40046 0.53023 0.31235 0.0
C816 C 0.38932 0.51696 0.34986 0.0
H817 H 0.5091 0.61862 0.43312 0.0
H818 H 0.48043 0.58825 0.41331 0.0
C819 C 0.3726 0.50042 0.33632 0.0
C820 C 0.41761 0.54819 0.32773 0.0
H821 H 0.46582 0.57431 0.31284 0.0
C822 C 0.41536 0.56045 0.36125 0.0
C823 C 0.43603 0.55305 0.31065 0.0
C824 C 0.43935 0.54002 0.27637 0.0
C825 C 0.43103 0.57762 0.37754 0.0
C826 C 0.44937 0.58274 0.35933 0.0
C827 C 0.45169 0.57035 0.3265 0.0
C828 C 0.46631 0.60108 0.37321 0.0
C829 C 0.42786 0.59007 0.41452 0.0
C830 C 0.46779 0.61828 0.35726 0.0
C831 C 0.48409 0.63558 0.36846 0.0
C832 C 0.49923 0.63598 0.39576 0.0
C833 C 0.49762 0.61874 0.41229 0.0
C834 C 0.48131 0.60141 0.40085 0.0
H835 H 0.41394 0.58205 0.4344 0.0
H836 H 0.43935 0.59626 0.44368 0.0
H837 H 0.428 0.60197 0.39318 0.0
H838 H 0.45648 0.61829 0.33524 0.0
H839 H 0.48497 0.64863 0.35499 0.0
H840 H 0.87004 0.50533 0.64036 0.0
H841 H 0.87081 0.47628 0.62083 0.0
H842 H 0.86873 0.46394 0.78201 0.0
H843 H 0.86822 0.49326 0.80204 0.0
H844 H 0.89575 0.45878 0.72675 0.0
H845 H 0.82508 0.42237 0.63197 0.0
H846 H 0.84104 0.44552 0.60629 0.0
H847 H 0.8329 0.44329 0.67128 0.0
C848 C 0.86976 0.49646 0.67172 0.0
C849 C 0.86894 0.50149 0.72275 0.0
C850 C 0.87009 0.47981 0.66045 0.0
C851 C 0.86945 0.46779 0.69992 0.0
C852 C 0.86909 0.47298 0.75101 0.0
H853 H 0.86766 0.35969 0.70231 0.0
H854 H 0.86867 0.38938 0.72566 0.0
C855 C 0.86879 0.4897 0.76237 0.0
C856 C 0.86926 0.44987 0.68757 0.0
H857 H 0.84419 0.40792 0.62283 0.0
C858 C 0.88443 0.44758 0.70435 0.0
C859 C 0.85446 0.43533 0.65831 0.0
C860 C 0.83735 0.43661 0.64128 0.0
C861 C 0.88543 0.43129 0.69151 0.0
C862 C 0.87073 0.41685 0.66175 0.0
C863 C 0.8555 0.41909 0.64535 0.0
C864 C 0.87073 0.39917 0.64765 0.0
C865 C 0.90241 0.42984 0.70884 0.0
C866 C 0.87121 0.3947 0.59597 0.0
C867 C 0.87056 0.3777 0.58246 0.0
C868 C 0.86925 0.36483 0.62046 0.0
C869 C 0.86875 0.36936 0.67218 0.0
C870 C 0.86944 0.38636 0.68562 0.0
H871 H 0.9145 0.44392 0.72023 0.0
H872 H 0.89833 0.42025 0.74249 0.0
H873 H 0.90726 0.42379 0.67813 0.0
H874 H 0.87209 0.40437 0.56611 0.0
H875 H 0.87092 0.37456 0.54232 0.0
H876 H 0.49203 0.87011 0.8668 0.0
H877 H 0.46348 0.87148 0.8903 0.0
H878 H 0.47288 0.86437 0.04926 0.0
H879 H 0.50148 0.86318 0.02622 0.0
H880 H 0.43081 0.84367 0.94267 0.0
H881 H 0.467 0.91189 0.04996 0.0
H882 H 0.47957 0.90448 0.00723 0.0
H883 H 0.47311 0.89447 0.07036 0.0
C884 C 0.48803 0.8689 0.90676 0.0
C885 C 0.49902 0.86663 0.94471 0.0
C886 C 0.47174 0.86968 0.9201 0.0
C887 C 0.46627 0.86833 0.97157 0.0
C888 C 0.47709 0.86583 0.00943 0.0
H889 H 0.37181 0.86772 0.13002 0.0
H890 H 0.40096 0.86739 0.10718 0.0
C891 C 0.49335 0.86504 0.99615 0.0
C892 C 0.44896 0.86905 0.98559 0.0
H893 H 0.4333 0.89427 0.05475 0.0
C894 C 0.43133 0.85478 0.96695 0.0
C895 C 0.44973 0.88352 0.01748 0.0
C896 C 0.46837 0.89957 0.03713 0.0
C897 C 0.41437 0.85439 0.98004 0.0
C898 C 0.41514 0.8689 0.01178 0.0
C899 C 0.43277 0.88317 0.03048 0.0
C900 C 0.39779 0.8696 0.02562 0.0
C901 C 0.39575 0.83821 0.9607 0.0
C902 C 0.38662 0.87136 0.98743 0.0
C903 C 0.36998 0.87149 0.00032 0.0
C904 C 0.36432 0.87004 0.05173 0.0
C905 C 0.3758 0.86881 0.09009 0.0
C906 C 0.39243 0.86862 0.07711 0.0
H907 H 0.39712 0.82578 0.94902 0.0
H908 H 0.38447 0.83352 0.99032 0.0
H909 H 0.39111 0.84305 0.92672 0.0
H910 H 0.39074 0.87259 0.94757 0.0
H911 H 0.3615 0.8726 0.96994 0.0
H912 H 0.63785 0.50551 0.36264 0.0
H913 H 0.60806 0.47665 0.38396 0.0
H914 H 0.59364 0.46686 0.22371 0.0
H915 H 0.62357 0.49568 0.20193 0.0
H916 H 0.57008 0.46705 0.36108 0.0
H917 H 0.5894 0.41657 0.27327 0.0
H918 H 0.60679 0.44109 0.28657 0.0
H919 H 0.59153 0.43517 0.23163 0.0
C920 C 0.62834 0.49722 0.33189 0.0
C921 C 0.63308 0.50278 0.28056 0.0
C922 C 0.61133 0.48076 0.34418 0.0
C923 C 0.5988 0.46951 0.30539 0.0
C924 C 0.6033 0.47519 0.25414 0.0
H925 H 0.4926 0.36268 0.30216 0.0
H926 H 0.52108 0.3928 0.2814 0.0
C927 C 0.62034 0.49169 0.24178 0.0
C928 C 0.58104 0.45182 0.31879 0.0
H929 H 0.55802 0.40355 0.30473 0.0
C930 C 0.56742 0.45314 0.34889 0.0
C931 C 0.57768 0.43374 0.30287 0.0
C932 C 0.59216 0.43144 0.27216 0.0
C933 C 0.55031 0.43684 0.36274 0.0
C934 C 0.54696 0.41874 0.34685 0.0
C935 C 0.56062 0.41745 0.31682 0.0
C936 C 0.52929 0.40092 0.36024 0.0
C937 C 0.53581 0.43917 0.39323 0.0
C938 C 0.52446 0.39546 0.41155 0.0
C939 C 0.50809 0.37825 0.42358 0.0
C940 C 0.49642 0.36616 0.38444 0.0
C941 C 0.50131 0.37169 0.33317 0.0
C942 C 0.51758 0.38889 0.32122 0.0
H943 H 0.53828 0.45391 0.39066 0.0
H944 H 0.52114 0.42913 0.37985 0.0
H945 H 0.53685 0.43609 0.4341 0.0
H946 H 0.53352 0.40433 0.44225 0.0
H947 H 0.50473 0.37428 0.46341 0.0
H948 H 0.12775 0.62271 0.52761 0.0
H949 H 0.1259 0.59214 0.54614 0.0
H950 H 0.13112 0.60494 0.70753 0.0
H951 H 0.13281 0.63527 0.68952 0.0
H952 H 0.15328 0.58626 0.59788 0.0
H953 H 0.08406 0.55153 0.69979 0.0
H954 H 0.09171 0.57234 0.66008 0.0
H955 H 0.10073 0.57469 0.72416 0.0
C956 C 0.12838 0.61892 0.56702 0.0
C957 C 0.13034 0.63133 0.60713 0.0
C958 C 0.12734 0.6015 0.57752 0.0
C959 C 0.12807 0.59618 0.62825 0.0
C960 C 0.13012 0.6086 0.66822 0.0
H961 H 0.13214 0.50557 0.7895 0.0
H962 H 0.1313 0.53411 0.76283 0.0
C963 C 0.13119 0.62597 0.65781 0.0
C964 C 0.12744 0.578 0.63967 0.0
H965 H 0.103 0.53674 0.7076 0.0
C966 C 0.14219 0.57531 0.62139 0.0
C967 C 0.11298 0.56382 0.67049 0.0
C968 C 0.09637 0.56561 0.68942 0.0
C969 C 0.14322 0.55907 0.63456 0.0
C970 C 0.12891 0.54502 0.66608 0.0
C971 C 0.11399 0.54757 0.68363 0.0
C972 C 0.1293 0.52769 0.6819 0.0
C973 C 0.15994 0.55738 0.61605 0.0
C974 C 0.12819 0.51453 0.64526 0.0
C975 C 0.12872 0.49828 0.66036 0.0
C976 C 0.13022 0.49484 0.71242 0.0
C977 C 0.13102 0.50788 0.74912 0.0
C978 C 0.13053 0.52416 0.73396 0.0
H979 H 0.17188 0.57131 0.60317 0.0
H980 H 0.1652 0.55166 0.64663 0.0
H981 H 0.15541 0.54742 0.58311 0.0
H982 H 0.12683 0.51679 0.60499 0.0
H983 H 0.12795 0.48841 0.63123 0.0
H984 H 0.62463 0.13047 0.13567 0.0
H985 H 0.59474 0.12969 0.11478 0.0
H986 H 0.6058 0.12826 0.95388 0.0
H987 H 0.63546 0.12884 0.97433 0.0
H988 H 0.59049 0.15632 0.05485 0.0
H989 H 0.5512 0.08396 0.97021 0.0
H990 H 0.57221 0.09178 0.00916 0.0
H991 H 0.57437 0.0988 0.94311 0.0
C992 C 0.62058 0.12982 0.0959 0.0
C993 C 0.63233 0.12964 0.05664 0.0
C994 C 0.60355 0.1294 0.08404 0.0
C995 C 0.59795 0.12863 0.03283 0.0
C996 C 0.60967 0.12845 0.99366 0.0
H997 H 0.50596 0.13129 0.87151 0.0
H998 H 0.53477 0.13059 0.89625 0.0
C999 C 0.62666 0.12888 0.00543 0.0
C1000 C 0.58029 0.12885 0.02 0.0
H1001 H 0.53778 0.10389 0.95776 0.0
C1002 C 0.57888 0.1448 0.03401 0.0
C1003 C 0.56524 0.11383 0.99257 0.0
C1004 C 0.56569 0.09604 0.97824 0.0
C1005 C 0.56299 0.14636 0.02022 0.0
C1006 C 0.54799 0.13139 0.9925 0.0
C1007 C 0.54934 0.11537 0.97882 0.0
C1008 C 0.53068 0.132 0.97764 0.0
C1009 C 0.56263 0.16423 0.03424 0.0
C1010 C 0.51877 0.1328 0.01523 0.0
C1011 C 0.50239 0.13326 0.00124 0.0
C1012 C 0.49754 0.13276 0.94937 0.0
C1013 C 0.50938 0.13175 0.91175 0.0
C1014 C 0.5258 0.13133 0.92582 0.0
H1015 H 0.57709 0.1762 0.04312 0.0
H1016 H 0.55648 0.16867 0.00278 0.0
H1017 H 0.55365 0.16146 0.06876 0.0
H1018 H 0.52205 0.13291 0.05546 0.0
H1019 H 0.49347 0.1339 0.03111 0.0
loop_
_geom_bond_atom_site_label_1
_geom_bond_atom_site_label_2
_geom_bond_distance
_geom_bond_site_symmetry_2
_ccdc_geom_bond_type
In0 O1 2.294 . S
In0 O2 2.326 . S
In0 O6 2.266 . S
In0 O7 2.326 . S
In0 O8 2.266 . S
In0 O9 2.326 . S
In0 O11 2.294 . S
In0 O12 2.326 . S
O1 In0 2.294 . S
O1 C10 1.240 . S
O2 In0 2.326 . S
O2 C10 1.252 . S
C3 O6 1.252 . S
C3 O7 1.260 . S
C4 O11 1.240 . S
C4 O12 1.252 . S
C5 O8 1.252 . S
C5 O9 1.260 . S
O6 In0 2.266 . S
O6 C3 1.252 . S
O7 In0 2.326 . S
O7 C3 1.260 . S
O8 In0 2.266 . S
O8 C5 1.252 . S
O9 In0 2.326 . S
O9 C5 1.260 . S
C10 O1 1.240 . S
C10 O2 1.252 . S
O11 In0 2.294 . S
O11 C4 1.240 . S
O12 In0 2.326 . S
O12 C4 1.252 . S
In13 O14 2.294 . S
In13 O15 2.326 . S
In13 O19 2.266 . S
In13 O20 2.326 . S
In13 O21 2.266 . S
In13 O22 2.326 . S
In13 O24 2.294 . S
In13 O25 2.326 . S
O14 In13 2.294 . S
O14 C23 1.240 . S
O15 In13 2.326 . S
O15 C23 1.252 . S
C16 O19 1.252 . S
C16 O20 1.260 . S
C17 O24 1.240 . S
C17 O25 1.252 . S
C18 O21 1.252 . S
C18 O22 1.260 . S
O19 In13 2.266 . S
O19 C16 1.252 . S
O20 In13 2.326 . S
O20 C16 1.260 . S
O21 In13 2.266 . S
O21 C18 1.252 . S
O22 In13 2.326 . S
O22 C18 1.260 . S
C23 O14 1.240 . S
C23 O15 1.252 . S
O24 In13 2.294 . S
O24 C17 1.240 . S
O25 In13 2.326 . S
O25 C17 1.252 . S
In26 O27 2.294 1_556 S
In26 O28 2.326 . S
In26 O32 2.266 . S
In26 O33 2.326 . S
In26 O34 2.266 . S
In26 O35 2.319 1_556 S
In26 O37 2.294 . S
In26 O38 2.326 . S
O27 In26 2.294 1_554 S
O27 C36 1.240 . S
O28 In26 2.326 . S
O28 C36 1.252 1_556 S
C29 O32 1.252 . S
C29 O33 1.260 . S
C30 O37 1.240 . S
C30 O38 1.252 . S
C31 O34 1.252 . S
C31 O35 1.253 1_556 S
O32 In26 2.266 . S
O32 C29 1.252 . S
O33 In26 2.326 . S
O33 C29 1.260 . S
O34 In26 2.266 . S
O34 C31 1.252 . S
O35 In26 2.319 1_554 S
O35 C31 1.253 1_554 S
C36 O27 1.240 . S
C36 O28 1.252 1_554 S
O37 In26 2.294 . S
O37 C30 1.240 . S
O38 In26 2.326 . S
O38 C30 1.252 . S
In39 O40 2.294 . S
In39 O41 2.326 . S
In39 O45 2.266 . S
In39 O46 2.326 . S
In39 O47 2.266 . S
In39 O48 2.326 . S
In39 O50 2.294 . S
In39 O51 2.326 . S
O40 In39 2.294 . S
O40 C49 1.240 . S
O41 In39 2.326 . S
O41 C49 1.252 . S
C42 O45 1.252 . S
C42 O46 1.260 . S
C43 O50 1.240 . S
C43 O51 1.252 . S
C44 O47 1.252 . S
C44 O48 1.260 . S
O45 In39 2.266 . S
O45 C42 1.252 . S
O46 In39 2.326 . S
O46 C42 1.260 . S
O47 In39 2.266 . S
O47 C44 1.252 . S
O48 In39 2.326 . S
O48 C44 1.260 . S
C49 O40 1.240 . S
C49 O41 1.252 . S
O50 In39 2.294 . S
O50 C43 1.240 . S
O51 In39 2.326 . S
O51 C43 1.252 . S
In52 O53 2.294 . S
In52 O54 2.326 . S
In52 O58 2.266 . S
In52 O59 2.326 . S
In52 O60 2.266 . S
In52 O61 2.326 . S
In52 O63 2.294 . S
In52 O64 2.326 . S
O53 In52 2.294 . S
O53 C62 1.240 . S
O54 In52 2.326 . S
O54 C62 1.252 . S
C55 O58 1.252 . S
C55 O59 1.260 . S
C56 O63 1.240 . S
C56 O64 1.252 . S
C57 O60 1.252 . S
C57 O61 1.260 . S
O58 In52 2.266 . S
O58 C55 1.252 . S
O59 In52 2.326 . S
O59 C55 1.260 . S
O60 In52 2.266 . S
O60 C57 1.252 . S
O61 In52 2.326 . S
O61 C57 1.260 . S
C62 O53 1.240 . S
C62 O54 1.252 . S
O63 In52 2.294 . S
O63 C56 1.240 . S
O64 In52 2.326 . S
O64 C56 1.252 . S
In65 O66 2.294 1_556 S
In65 O67 2.326 . S
In65 O71 2.266 . S
In65 O72 2.326 . S
In65 O73 2.266 . S
In65 O74 2.319 1_556 S
In65 O76 2.294 . S
In65 O77 2.326 . S
O66 In65 2.294 1_554 S
O66 C75 1.240 . S
O67 In65 2.326 . S
O67 C75 1.252 1_556 S
C68 O71 1.252 . S
C68 O72 1.260 . S
C69 O76 1.240 . S
C69 O77 1.252 . S
C70 O73 1.252 . S
C70 O74 1.253 1_556 S
O71 In65 2.266 . S
O71 C68 1.252 . S
O72 In65 2.326 . S
O72 C68 1.260 . S
O73 In65 2.266 . S
O73 C70 1.252 . S
O74 In65 2.319 1_554 S
O74 C70 1.253 1_554 S
C75 O66 1.240 . S
C75 O67 1.252 1_554 S
O76 In65 2.294 . S
O76 C69 1.240 . S
O77 In65 2.326 . S
O77 C69 1.252 . S
In78 O79 2.294 . S
In78 O80 2.326 . S
In78 O84 2.266 . S
In78 O85 2.326 . S
In78 O86 2.266 . S
In78 O87 2.326 . S
In78 O89 2.294 . S
In78 O90 2.326 . S
O79 In78 2.294 . S
O79 C88 1.240 . S
O80 In78 2.326 . S
O80 C88 1.252 . S
C81 O84 1.252 . S
C81 O85 1.260 . S
C82 O89 1.240 . S
C82 O90 1.252 . S
C83 O86 1.252 . S
C83 O87 1.260 . S
O84 In78 2.266 . S
O84 C81 1.252 . S
O85 In78 2.326 . S
O85 C81 1.260 . S
O86 In78 2.266 . S
O86 C83 1.252 . S
O87 In78 2.326 . S
O87 C83 1.260 . S
C88 O79 1.240 . S
C88 O80 1.252 . S
O89 In78 2.294 . S
O89 C82 1.240 . S
O90 In78 2.326 . S
O90 C82 1.252 . S
In91 O92 2.294 . S
In91 O93 2.326 . S
In91 O97 2.266 . S
In91 O98 2.326 . S
In91 O99 2.266 . S
In91 O100 2.326 . S
In91 O102 2.294 . S
In91 O103 2.326 . S
O92 In91 2.294 . S
O92 C101 1.240 . S
O93 In91 2.326 . S
O93 C101 1.252 . S
C94 O97 1.252 . S
C94 O98 1.260 . S
C95 O102 1.240 . S
C95 O103 1.252 . S
C96 O99 1.252 . S
C96 O100 1.260 . S
O97 In91 2.266 . S
O97 C94 1.252 . S
O98 In91 2.326 . S
O98 C94 1.260 . S
O99 In91 2.266 . S
O99 C96 1.252 . S
O100 In91 2.326 . S
O100 C96 1.260 . S
C101 O92 1.240 . S
C101 O93 1.252 . S
O102 In91 2.294 . S
O102 C95 1.240 . S
O103 In91 2.326 . S
O103 C95 1.252 . S
In104 O105 2.294 . S
In104 O106 2.326 . S
In104 O110 2.266 . S
In104 O111 2.318 1_554 S
In104 O112 2.266 . S
In104 O113 2.326 . S
In104 O115 2.294 1_554 S
In104 O116 2.326 . S
O105 In104 2.294 . S
O105 C114 1.240 . S
O106 In104 2.326 . S
O106 C114 1.252 . S
C107 O110 1.252 . S
C107 O111 1.253 1_554 S
C108 O115 1.240 . S
C108 O116 1.252 1_556 S
C109 O112 1.252 . S
C109 O113 1.260 . S
O110 In104 2.266 . S
O110 C107 1.252 . S
O111 In104 2.318 1_556 S
O111 C107 1.253 1_556 S
O112 In104 2.266 . S
O112 C109 1.252 . S
O113 In104 2.326 . S
O113 C109 1.260 . S
C114 O105 1.240 . S
C114 O106 1.252 . S
O115 In104 2.294 1_556 S
O115 C108 1.240 . S
O116 In104 2.326 . S
O116 C108 1.252 1_554 S
In117 O118 2.294 . S
In117 O119 2.326 . S
In117 O123 2.266 . S
In117 O124 2.326 . S
In117 O125 2.266 . S
In117 O126 2.326 . S
In117 O128 2.294 . S
In117 O129 2.326 . S
O118 In117 2.294 . S
O118 C127 1.240 . S
O119 In117 2.326 . S
O119 C127 1.252 . S
C120 O123 1.252 . S
C120 O124 1.260 . S
C121 O128 1.240 . S
C121 O129 1.252 . S
C122 O125 1.252 . S
C122 O126 1.260 . S
O123 In117 2.266 . S
O123 C120 1.252 . S
O124 In117 2.326 . S
O124 C120 1.260 . S
O125 In117 2.266 . S
O125 C122 1.252 . S
O126 In117 2.326 . S
O126 C122 1.260 . S
C127 O118 1.240 . S
C127 O119 1.252 . S
O128 In117 2.294 . S
O128 C121 1.240 . S
O129 In117 2.326 . S
O129 C121 1.252 . S
In130 O131 2.294 . S
In130 O132 2.326 . S
In130 O136 2.266 . S
In130 O137 2.326 . S
In130 O138 2.266 . S
In130 O139 2.326 . S
In130 O141 2.294 . S
In130 O142 2.326 . S
O131 In130 2.294 . S
O131 C140 1.240 . S
O132 In130 2.326 . S
O132 C140 1.252 . S
C133 O136 1.252 . S
C133 O137 1.260 . S
C134 O141 1.240 . S
C134 O142 1.252 . S
C135 O138 1.252 . S
C135 O139 1.260 . S
O136 In130 2.266 . S
O136 C133 1.252 . S
O137 In130 2.326 . S
O137 C133 1.260 . S
O138 In130 2.266 . S
O138 C135 1.252 . S
O139 In130 2.326 . S
O139 C135 1.260 . S
C140 O131 1.240 . S
C140 O132 1.252 . S
O141 In130 2.294 . S
O141 C134 1.240 . S
O142 In130 2.326 . S
O142 C134 1.252 . S
In143 O144 2.294 . S
In143 O145 2.326 . S
In143 O149 2.266 . S
In143 O150 2.318 1_554 S
In143 O151 2.266 . S
In143 O152 2.326 . S
In143 O154 2.294 1_554 S
In143 O155 2.326 . S
O144 In143 2.294 . S
O144 C153 1.240 . S
O145 In143 2.326 . S
O145 C153 1.252 . S
C146 O149 1.252 . S
C146 O150 1.253 1_554 S
C147 O154 1.240 . S
C147 O155 1.252 1_556 S
C148 O151 1.252 . S
C148 O152 1.260 . S
O149 In143 2.266 . S
O149 C146 1.252 . S
O150 In143 2.318 1_556 S
O150 C146 1.253 1_556 S
O151 In143 2.266 . S
O151 C148 1.252 . S
O152 In143 2.326 . S
O152 C148 1.260 . S
C153 O144 1.240 . S
C153 O145 1.252 . S
O154 In143 2.294 1_556 S
O154 C147 1.240 . S
O155 In143 2.326 . S
O155 C147 1.252 1_554 S
H156 C164 0.929 . S
H157 C166 0.930 . S
H158 C168 0.930 . S
H159 C171 0.929 . S
H160 C174 0.930 . S
H161 C176 0.960 . S
H162 C176 0.960 . S
H163 C176 0.960 . S
C164 H156 0.929 . S
C164 C165 1.377 . S
C164 C166 1.384 . S
C165 C164 1.377 . S
C165 C171 1.390 . S
C166 H157 0.930 . S
C166 C164 1.384 . S
C166 C167 1.372 . S
C167 C166 1.372 . S
C167 C168 1.400 . S
C167 C172 1.490 . S
C168 H158 0.930 . S
C168 C167 1.400 . S
C168 C171 1.386 . S
H169 C185 0.930 . S
H170 C186 0.931 . S
C171 H159 0.929 . S
C171 C165 1.390 . S
C171 C168 1.386 . S
C172 C167 1.490 . S
C172 C174 1.395 . S
C172 C175 1.403 . S
H173 C179 0.930 . S
C174 H160 0.930 . S
C174 C172 1.395 . S
C174 C177 1.403 . S
C175 C172 1.403 . S
C175 C176 1.524 . S
C175 C179 1.400 . S
C176 H161 0.960 . S
C176 H162 0.960 . S
C176 H163 0.960 . S
C176 C175 1.524 . S
C177 C174 1.403 . S
C177 C178 1.392 . S
C177 C181 1.495 . S
C178 C177 1.392 . S
C178 C179 1.385 . S
C178 C180 1.478 . S
C179 H173 0.930 . S
C179 C175 1.400 . S
C179 C178 1.385 . S
C180 C178 1.478 . S
C180 C182 1.381 . S
C180 C186 1.383 . S
C181 C177 1.495 . S
C181 H187 0.959 . S
C181 H188 0.961 . S
C181 H189 0.960 . S
C182 C180 1.381 . S
C182 C183 1.394 . S
C182 H190 0.930 . S
C183 C182 1.394 . S
C183 C184 1.383 . S
C183 H191 0.929 . S
C184 C183 1.383 . S
C184 C185 1.377 . S
C185 H169 0.930 . S
C185 C184 1.377 . S
C185 C186 1.379 . S
C186 H170 0.931 . S
C186 C180 1.383 . S
C186 C185 1.379 . S
H187 C181 0.959 . S
H188 C181 0.961 . S
H189 C181 0.960 . S
H190 C182 0.930 . S
H191 C183 0.929 . S
H192 C200 0.929 . S
H193 C202 0.930 . S
H194 C204 0.930 . S
H195 C207 0.929 . S
H196 C210 0.930 . S
H197 C212 0.960 1_455 S
H198 C212 0.960 . S
H199 C212 0.960 . S
C200 H192 0.929 . S
C200 C201 1.377 . S
C200 C202 1.384 . S
C201 C200 1.377 . S
C201 C207 1.390 . S
C202 H193 0.930 . S
C202 C200 1.384 . S
C202 C203 1.372 . S
C203 C202 1.372 . S
C203 C204 1.400 . S
C203 C208 1.490 . S
C204 H194 0.930 . S
C204 C203 1.400 . S
C204 C207 1.386 . S
H205 C221 0.930 . S
H206 C222 0.931 . S
C207 H195 0.929 . S
C207 C201 1.390 . S
C207 C204 1.386 . S
C208 C203 1.490 . S
C208 C210 1.395 . S
C208 C211 1.403 . S
H209 C215 0.930 . S
C210 H196 0.930 . S
C210 C208 1.395 . S
C210 C213 1.403 1_655 S
C211 C208 1.403 . S
C211 C212 1.524 . S
C211 C215 1.400 1_655 S
C212 H197 0.960 1_655 S
C212 H198 0.960 . S
C212 H199 0.960 . S
C212 C211 1.524 . S
C213 C210 1.403 1_455 S
C213 C214 1.392 . S
C213 C217 1.495 . S
C214 C213 1.392 . S
C214 C215 1.385 . S
C214 C216 1.478 . S
C215 H209 0.930 . S
C215 C211 1.400 1_455 S
C215 C214 1.385 . S
C216 C214 1.478 . S
C216 C218 1.381 . S
C216 C222 1.383 . S
C217 C213 1.495 . S
C217 H223 0.959 1_455 S
C217 H224 0.961 . S
C217 H225 0.960 . S
C218 C216 1.381 . S
C218 C219 1.394 . S
C218 H226 0.930 . S
C219 C218 1.394 . S
C219 C220 1.383 . S
C219 H227 0.929 . S
C220 C219 1.383 . S
C220 C221 1.377 . S
C221 H205 0.930 . S
C221 C220 1.377 . S
C221 C222 1.379 . S
C222 H206 0.931 . S
C222 C216 1.383 . S
C222 C221 1.379 . S
H223 C217 0.959 1_655 S
H224 C217 0.961 . S
H225 C217 0.960 . S
H226 C218 0.930 . S
H227 C219 0.929 . S
H228 C236 0.929 . S
H229 C238 0.930 . S
H230 C240 0.930 1_554 S
H231 C243 0.929 . S
H232 C246 0.930 . S
H233 C248 0.960 . S
H234 C248 0.960 . S
H235 C248 0.960 . S
C236 H228 0.929 . S
C236 C237 1.377 . S
C236 C238 1.384 . S
C237 C236 1.377 . S
C237 C243 1.390 . S
C238 H229 0.930 . S
C238 C236 1.384 . S
C238 C239 1.372 . S
C239 C238 1.372 . S
C239 C240 1.400 . S
C239 C244 1.490 . S
C240 H230 0.930 1_556 S
C240 C239 1.400 . S
C240 C243 1.386 . S
H241 C257 0.930 . S
H242 C258 0.931 . S
C243 H231 0.929 . S
C243 C237 1.390 . S
C243 C240 1.386 . S
C244 C239 1.490 . S
C244 C246 1.395 . S
C244 C247 1.403 1_556 S
H245 C251 0.930 . S
C246 H232 0.930 . S
C246 C244 1.395 . S
C246 C249 1.403 1_565 S
C247 C244 1.403 1_554 S
C247 C248 1.524 . S
C247 C251 1.400 1_565 S
C248 H233 0.960 . S
C248 H234 0.960 . S
C248 H235 0.960 . S
C248 C247 1.524 . S
C249 C246 1.403 1_545 S
C249 C250 1.392 1_556 S
C249 C253 1.495 . S
C250 C249 1.392 1_554 S
C250 C251 1.385 . S
C250 C252 1.478 . S
C251 H245 0.930 . S
C251 C247 1.400 1_545 S
C251 C250 1.385 . S
C252 C250 1.478 . S
C252 C254 1.381 . S
C252 C258 1.383 . S
C253 C249 1.495 . S
C253 H259 0.959 . S
C253 H260 0.961 . S
C253 H261 0.960 . S
C254 C252 1.381 . S
C254 C255 1.394 . S
C254 H262 0.930 1_554 S
C255 C254 1.394 . S
C255 C256 1.383 . S
C255 H263 0.929 . S
C256 C255 1.383 . S
C256 C257 1.377 . S
C257 H241 0.930 . S
C257 C256 1.377 . S
C257 C258 1.379 . S
C258 H242 0.931 . S
C258 C252 1.383 . S
C258 C257 1.379 . S
H259 C253 0.959 . S
H260 C253 0.961 . S
H261 C253 0.960 . S
H262 C254 0.930 1_556 S
H263 C255 0.929 . S
H264 C272 0.929 . S
H265 C274 0.930 . S
H266 C276 0.930 . S
H267 C279 0.929 . S
H268 C282 0.930 . S
H269 C284 0.960 . S
H270 C284 0.960 . S
H271 C284 0.960 . S
C272 H264 0.929 . S
C272 C273 1.377 . S
C272 C274 1.384 . S
C273 C272 1.377 . S
C273 C279 1.390 . S
C274 H265 0.930 . S
C274 C272 1.384 . S
C274 C275 1.372 . S
C275 C274 1.372 . S
C275 C276 1.400 . S
C275 C280 1.490 . S
C276 H266 0.930 . S
C276 C275 1.400 . S
C276 C279 1.386 . S
H277 C293 0.930 . S
H278 C294 0.931 . S
C279 H267 0.929 . S
C279 C273 1.390 . S
C279 C276 1.386 . S
C280 C275 1.490 . S
C280 C282 1.395 . S
C280 C283 1.403 . S
H281 C287 0.930 . S
C282 H268 0.930 . S
C282 C280 1.395 . S
C282 C285 1.403 . S
C283 C280 1.403 . S
C283 C284 1.524 . S
C283 C287 1.400 . S
C284 H269 0.960 . S
C284 H270 0.960 . S
C284 H271 0.960 . S
C284 C283 1.524 . S
C285 C282 1.403 . S
C285 C286 1.392 . S
C285 C289 1.495 . S
C286 C285 1.392 . S
C286 C287 1.385 . S
C286 C288 1.478 . S
C287 H281 0.930 . S
C287 C283 1.400 . S
C287 C286 1.385 . S
C288 C286 1.478 . S
C288 C290 1.381 . S
C288 C294 1.383 . S
C289 C285 1.495 . S
C289 H295 0.959 . S
C289 H296 0.961 . S
C289 H297 0.960 . S
C290 C288 1.381 . S
C290 C291 1.394 . S
C290 H298 0.930 . S
C291 C290 1.394 . S
C291 C292 1.383 . S
C291 H299 0.929 . S
C292 C291 1.383 . S
C292 C293 1.377 . S
C293 H277 0.930 . S
C293 C292 1.377 . S
C293 C294 1.379 . S
C294 H278 0.931 . S
C294 C288 1.383 . S
C294 C293 1.379 . S
H295 C289 0.959 . S
H296 C289 0.961 . S
H297 C289 0.960 . S
H298 C290 0.930 . S
H299 C291 0.929 . S
H300 C308 0.929 . S
H301 C310 0.930 . S
H302 C312 0.930 . S
H303 C315 0.929 . S
H304 C318 0.930 . S
H305 C320 0.960 . S
H306 C320 0.960 . S
H307 C320 0.960 . S
C308 H300 0.929 . S
C308 C309 1.377 . S
C308 C310 1.384 . S
C309 C308 1.377 . S
C309 C315 1.390 . S
C310 H301 0.930 . S
C310 C308 1.384 . S
C310 C311 1.372 . S
C311 C310 1.372 . S
C311 C312 1.400 . S
C311 C316 1.490 . S
C312 H302 0.930 . S
C312 C311 1.400 . S
C312 C315 1.386 . S
H313 C329 0.930 . S
H314 C330 0.931 . S
C315 H303 0.929 . S
C315 C309 1.390 . S
C315 C312 1.386 . S
C316 C311 1.490 . S
C316 C318 1.395 . S
C316 C319 1.403 . S
H317 C323 0.930 . S
C318 H304 0.930 . S
C318 C316 1.395 . S
C318 C321 1.403 1_655 S
C319 C316 1.403 . S
C319 C320 1.524 . S
C319 C323 1.400 1_655 S
C320 H305 0.960 . S
C320 H306 0.960 . S
C320 H307 0.960 . S
C320 C319 1.524 . S
C321 C318 1.403 1_455 S
C321 C322 1.392 . S
C321 C325 1.495 . S
C322 C321 1.392 . S
C322 C323 1.385 . S
C322 C324 1.478 . S
C323 H317 0.930 . S
C323 C319 1.400 1_455 S
C323 C322 1.385 . S
C324 C322 1.478 . S
C324 C326 1.381 . S
C324 C330 1.383 . S
C325 C321 1.495 . S
C325 H331 0.959 . S
C325 H332 0.961 . S
C325 H333 0.960 . S
C326 C324 1.381 . S
C326 C327 1.394 . S
C326 H334 0.930 . S
C327 C326 1.394 . S
C327 C328 1.383 . S
C327 H335 0.929 . S
C328 C327 1.383 . S
C328 C329 1.377 . S
C329 H313 0.930 . S
C329 C328 1.377 . S
C329 C330 1.379 . S
C330 H314 0.931 . S
C330 C324 1.383 . S
C330 C329 1.379 . S
H331 C325 0.959 . S
H332 C325 0.961 . S
H333 C325 0.960 . S
H334 C326 0.930 . S
H335 C327 0.929 . S
H336 C344 0.929 . S
H337 C346 0.930 . S
H338 C348 0.930 1_556 S
H339 C351 0.929 . S
H340 C354 0.930 . S
H341 C356 1.022 . S
H342 C356 0.960 . S
H343 C356 0.960 . S
C344 H336 0.929 . S
C344 C345 1.377 . S
C344 C346 1.384 . S
C345 C344 1.377 . S
C345 C351 1.390 . S
C346 H337 0.930 . S
C346 C344 1.384 . S
C346 C347 1.372 . S
C347 C346 1.372 . S
C347 C348 1.400 . S
C347 C352 1.490 . S
C348 H338 0.930 1_554 S
C348 C347 1.400 . S
C348 C351 1.386 . S
H349 C365 0.930 . S
H350 C366 0.931 . S
C351 H339 0.929 . S
C351 C345 1.390 . S
C351 C348 1.386 . S
C352 C347 1.490 . S
C352 C354 1.395 1_554 S
C352 C355 1.403 . S
H353 C359 0.930 . S
C354 H340 0.930 . S
C354 C352 1.395 1_556 S
C354 C357 1.403 1_565 S
C355 C352 1.403 . S
C355 C356 1.524 . S
C355 C359 1.400 1_565 S
C356 H341 1.022 . S
C356 H342 0.960 . S
C356 H343 0.960 . S
C356 C355 1.524 . S
C357 C354 1.403 1_545 S
C357 C358 1.392 . S
C357 C361 1.495 . S
C358 C357 1.392 . S
C358 C359 1.385 1_556 S
C358 C360 1.478 . S
C359 H353 0.930 . S
C359 C355 1.400 1_545 S
C359 C358 1.385 1_554 S
C360 C358 1.478 . S
C360 C362 1.381 . S
C360 C366 1.383 . S
C361 C357 1.495 . S
C361 H367 0.959 . S
C361 H368 0.961 . S
C361 H369 0.960 . S
C362 C360 1.381 . S
C362 C363 1.394 . S
C362 H370 0.930 1_556 S
C363 C362 1.394 . S
C363 C364 1.383 . S
C363 H371 0.929 . S
C364 C363 1.383 . S
C364 C365 1.377 . S
C365 H349 0.930 . S
C365 C364 1.377 . S
C365 C366 1.379 . S
C366 H350 0.931 . S
C366 C360 1.383 . S
C366 C365 1.379 . S
H367 C361 0.959 . S
H368 C361 0.961 . S
H369 C361 0.960 . S
H370 C362 0.930 1_554 S
H371 C363 0.929 . S
H372 C380 0.929 . S
H373 C382 0.930 . S
H374 C384 0.930 . S
H375 C387 0.929 . S
H376 C390 0.930 . S
H377 C392 0.960 . S
H378 C392 0.960 . S
H379 C392 0.960 . S
C380 H372 0.929 . S
C380 C381 1.377 . S
C380 C382 1.384 . S
C381 C380 1.377 . S
C381 C387 1.390 . S
C382 H373 0.930 . S
C382 C380 1.384 . S
C382 C383 1.372 . S
C383 C382 1.372 . S
C383 C384 1.400 . S
C383 C388 1.490 . S
C384 H374 0.930 . S
C384 C383 1.400 . S
C384 C387 1.386 . S
H385 C401 0.930 . S
H386 C402 0.931 . S
C387 H375 0.929 . S
C387 C381 1.390 . S
C387 C384 1.386 . S
C388 C383 1.490 . S
C388 C390 1.395 . S
C388 C391 1.403 1_556 S
H389 C395 0.930 . S
C390 H376 0.930 . S
C390 C388 1.395 . S
C390 C393 1.403 . S
C391 C388 1.403 1_554 S
C391 C392 1.524 . S
C391 C395 1.400 . S
C392 H377 0.960 . S
C392 H378 0.960 . S
C392 H379 0.960 . S
C392 C391 1.524 . S
C393 C390 1.403 . S
C393 C394 1.392 1_556 S
C393 C397 1.495 . S
C394 C393 1.392 1_554 S
C394 C395 1.385 . S
C394 C396 1.478 . S
C395 H389 0.930 . S
C395 C391 1.400 . S
C395 C394 1.385 . S
C396 C394 1.478 . S
C396 C398 1.381 . S
C396 C402 1.383 . S
C397 C393 1.495 . S
C397 H403 0.959 . S
C397 H404 0.961 . S
C397 H405 0.960 . S
C398 C396 1.381 . S
C398 C399 1.394 . S
C398 H406 0.930 . S
C399 C398 1.394 . S
C399 C400 1.383 . S
C399 H407 0.929 . S
C400 C399 1.383 . S
C400 C401 1.377 . S
C401 H385 0.930 . S
C401 C400 1.377 . S
C401 C402 1.379 . S
C402 H386 0.931 . S
C402 C396 1.383 . S
C402 C401 1.379 . S
H403 C397 0.959 . S
H404 C397 0.961 . S
H405 C397 0.960 . S
H406 C398 0.930 . S
H407 C399 0.929 . S
H408 C416 0.929 . S
H409 C418 0.930 . S
H410 C420 0.930 . S
H411 C423 0.929 . S
H412 C426 0.930 . S
H413 C428 0.960 . S
H414 C428 0.960 . S
H415 C428 0.960 . S
C416 H408 0.929 . S
C416 C417 1.377 . S
C416 C418 1.384 . S
C417 C416 1.377 . S
C417 C423 1.390 . S
C418 H409 0.930 . S
C418 C416 1.384 . S
C418 C419 1.372 . S
C419 C418 1.372 . S
C419 C420 1.400 . S
C419 C424 1.490 . S
C420 H410 0.930 . S
C420 C419 1.400 . S
C420 C423 1.386 . S
H421 C437 0.930 . S
H422 C438 0.931 . S
C423 H411 0.929 . S
C423 C417 1.390 . S
C423 C420 1.386 . S
C424 C419 1.490 . S
C424 C426 1.395 . S
C424 C427 1.403 . S
H425 C431 0.930 . S
C426 H412 0.930 . S
C426 C424 1.395 . S
C426 C429 1.403 . S
C427 C424 1.403 . S
C427 C428 1.524 . S
C427 C431 1.400 . S
C428 H413 0.960 . S
C428 H414 0.960 . S
C428 H415 0.960 . S
C428 C427 1.524 . S
C429 C426 1.403 . S
C429 C430 1.392 . S
C429 C433 1.495 . S
C430 C429 1.392 . S
C430 C431 1.385 . S
C430 C432 1.478 . S
C431 H425 0.930 . S
C431 C427 1.400 . S
C431 C430 1.385 . S
C432 C430 1.478 . S
C432 C434 1.381 . S
C432 C438 1.383 . S
C433 C429 1.495 . S
C433 H439 0.959 . S
C433 H440 0.961 . S
C433 H441 0.960 . S
C434 C432 1.381 . S
C434 C435 1.394 . S
C434 H442 0.930 . S
C435 C434 1.394 . S
C435 C436 1.383 . S
C435 H443 0.929 . S
C436 C435 1.383 . S
C436 C437 1.377 . S
C437 H421 0.930 . S
C437 C436 1.377 . S
C437 C438 1.379 . S
C438 H422 0.931 . S
C438 C432 1.383 . S
C438 C437 1.379 . S
H439 C433 0.959 . S
H440 C433 0.961 . S
H441 C433 0.960 . S
H442 C434 0.930 . S
H443 C435 0.929 . S
H444 C452 0.929 . S
H445 C454 0.930 . S
H446 C456 0.930 . S
H447 C459 0.929 . S
H448 C462 0.930 . S
H449 C464 0.960 . S
H450 C464 0.960 . S
H451 C464 0.960 . S
C452 H444 0.929 . S
C452 C453 1.377 . S
C452 C454 1.384 . S
C453 C452 1.377 . S
C453 C459 1.390 . S
C454 H445 0.930 . S
C454 C452 1.384 . S
C454 C455 1.372 . S
C455 C454 1.372 . S
C455 C456 1.400 . S
C455 C460 1.490 . S
C456 H446 0.930 . S
C456 C455 1.400 . S
C456 C459 1.386 . S
H457 C473 0.930 . S
H458 C474 0.931 . S
C459 H447 0.929 . S
C459 C453 1.390 . S
C459 C456 1.386 . S
C460 C455 1.490 . S
C460 C462 1.395 . S
C460 C463 1.403 . S
H461 C467 0.930 . S
C462 H448 0.930 . S
C462 C460 1.395 . S
C462 C465 1.403 . S
C463 C460 1.403 . S
C463 C464 1.524 . S
C463 C467 1.400 . S
C464 H449 0.960 . S
C464 H450 0.960 . S
C464 H451 0.960 . S
C464 C463 1.524 . S
C465 C462 1.403 . S
C465 C466 1.392 . S
C465 C469 1.495 . S
C466 C465 1.392 . S
C466 C467 1.385 . S
C466 C468 1.478 . S
C467 H461 0.930 . S
C467 C463 1.400 . S
C467 C466 1.385 . S
C468 C466 1.478 . S
C468 C470 1.381 . S
C468 C474 1.383 . S
C469 C465 1.495 . S
C469 H475 0.959 . S
C469 H476 0.961 . S
C469 H477 0.960 . S
C470 C468 1.381 . S
C470 C471 1.394 . S
C470 H478 0.930 . S
C471 C470 1.394 . S
C471 C472 1.383 . S
C471 H479 0.929 . S
C472 C471 1.383 . S
C472 C473 1.377 . S
C473 H457 0.930 . S
C473 C472 1.377 . S
C473 C474 1.379 . S
C474 H458 0.931 . S
C474 C468 1.383 . S
C474 C473 1.379 . S
H475 C469 0.959 . S
H476 C469 0.961 . S
H477 C469 0.960 . S
H478 C470 0.930 . S
H479 C471 0.929 . S
H480 C488 0.929 . S
H481 C490 0.930 . S
H482 C492 0.930 . S
H483 C495 0.929 . S
H484 C498 0.930 . S
H485 C500 0.960 . S
H486 C500 0.960 . S
H487 C500 0.960 . S
C488 H480 0.929 . S
C488 C489 1.377 . S
C488 C490 1.384 . S
C489 C488 1.377 . S
C489 C495 1.390 . S
C490 H481 0.930 . S
C490 C488 1.384 . S
C490 C491 1.372 . S
C491 C490 1.372 . S
C491 C492 1.400 . S
C491 C496 1.490 . S
C492 H482 0.930 . S
C492 C491 1.400 . S
C492 C495 1.386 . S
H493 C509 0.930 . S
H494 C510 0.931 . S
C495 H483 0.929 . S
C495 C489 1.390 . S
C495 C492 1.386 . S
C496 C491 1.490 . S
C496 C498 1.395 . S
C496 C499 1.403 1_554 S
H497 C503 0.930 . S
C498 H484 0.930 . S
C498 C496 1.395 . S
C498 C501 1.403 . S
C499 C496 1.403 1_556 S
C499 C500 1.524 . S
C499 C503 1.400 . S
C500 H485 0.960 . S
C500 H486 0.960 . S
C500 H487 0.960 . S
C500 C499 1.524 . S
C501 C498 1.403 . S
C501 C502 1.392 1_554 S
C501 C505 1.495 . S
C502 C501 1.392 1_556 S
C502 C503 1.385 . S
C502 C504 1.478 . S
C503 H497 0.930 . S
C503 C499 1.400 . S
C503 C502 1.385 . S
C504 C502 1.478 . S
C504 C506 1.381 . S
C504 C510 1.383 . S
C505 C501 1.495 . S
C505 H511 0.959 . S
C505 H512 0.961 . S
C505 H513 0.960 . S
C506 C504 1.381 . S
C506 C507 1.394 . S
C506 H514 0.930 . S
C507 C506 1.394 . S
C507 C508 1.383 . S
C507 H515 0.929 . S
C508 C507 1.383 . S
C508 C509 1.377 . S
C509 H493 0.930 . S
C509 C508 1.377 . S
C509 C510 1.379 . S
C510 H494 0.931 . S
C510 C504 1.383 . S
C510 C509 1.379 . S
H511 C505 0.959 . S
H512 C505 0.961 . S
H513 C505 0.960 . S
H514 C506 0.930 . S
H515 C507 0.929 . S
H516 C524 0.929 . S
H517 C526 0.930 . S
H518 C528 0.930 . S
H519 C531 0.929 . S
H520 C534 0.930 . S
H521 C536 0.960 . S
H522 C536 0.960 . S
H523 C536 0.960 . S
C524 H516 0.929 . S
C524 C525 1.377 . S
C524 C526 1.384 . S
C525 C524 1.377 . S
C525 C531 1.390 . S
C526 H517 0.930 . S
C526 C524 1.384 . S
C526 C527 1.372 . S
C527 C526 1.372 . S
C527 C528 1.400 . S
C527 C532 1.490 . S
C528 H518 0.930 . S
C528 C527 1.400 . S
C528 C531 1.386 . S
H529 C545 0.930 . S
H530 C546 0.931 . S
C531 H519 0.929 . S
C531 C525 1.390 . S
C531 C528 1.386 . S
C532 C527 1.490 . S
C532 C534 1.395 . S
C532 C535 1.403 . S
H533 C539 0.930 . S
C534 H520 0.930 . S
C534 C532 1.395 . S
C534 C537 1.403 . S
C535 C532 1.403 . S
C535 C536 1.524 . S
C535 C539 1.400 . S
C536 H521 0.960 . S
C536 H522 0.960 . S
C536 H523 0.960 . S
C536 C535 1.524 . S
C537 C534 1.403 . S
C537 C538 1.392 . S
C537 C541 1.495 . S
C538 C537 1.392 . S
C538 C539 1.385 . S
C538 C540 1.478 . S
C539 H533 0.930 . S
C539 C535 1.400 . S
C539 C538 1.385 . S
C540 C538 1.478 . S
C540 C542 1.381 . S
C540 C546 1.383 . S
C541 C537 1.495 . S
C541 H547 0.959 . S
C541 H548 0.961 . S
C541 H549 0.960 . S
C542 C540 1.381 . S
C542 C543 1.394 . S
C542 H550 0.930 . S
C543 C542 1.394 . S
C543 C544 1.383 . S
C543 H551 0.929 . S
C544 C543 1.383 . S
C544 C545 1.377 . S
C545 H529 0.930 . S
C545 C544 1.377 . S
C545 C546 1.379 . S
C546 H530 0.931 . S
C546 C540 1.383 . S
C546 C545 1.379 . S
H547 C541 0.959 . S
H548 C541 0.961 . S
H549 C541 0.960 . S
H550 C542 0.930 . S
H551 C543 0.929 . S
H552 C560 0.929 . S
H553 C562 0.930 . S
H554 C564 0.930 . S
H555 C567 0.929 . S
H556 C570 0.930 . S
H557 C572 0.960 . S
H558 C572 0.960 . S
H559 C572 0.960 . S
C560 H552 0.929 . S
C560 C561 1.377 . S
C560 C562 1.384 . S
C561 C560 1.377 . S
C561 C567 1.390 . S
C562 H553 0.930 . S
C562 C560 1.384 . S
C562 C563 1.372 . S
C563 C562 1.372 . S
C563 C564 1.400 . S
C563 C568 1.490 . S
C564 H554 0.930 . S
C564 C563 1.400 . S
C564 C567 1.386 . S
H565 C581 0.930 . S
H566 C582 0.931 . S
C567 H555 0.929 . S
C567 C561 1.390 . S
C567 C564 1.386 . S
C568 C563 1.490 . S
C568 C570 1.395 . S
C568 C571 1.403 . S
H569 C575 0.930 . S
C570 H556 0.930 . S
C570 C568 1.395 . S
C570 C573 1.403 . S
C571 C568 1.403 . S
C571 C572 1.524 . S
C571 C575 1.400 . S
C572 H557 0.960 . S
C572 H558 0.960 . S
C572 H559 0.960 . S
C572 C571 1.524 . S
C573 C570 1.403 . S
C573 C574 1.392 . S
C573 C577 1.495 . S
C574 C573 1.392 . S
C574 C575 1.385 . S
C574 C576 1.478 . S
C575 H569 0.930 . S
C575 C571 1.400 . S
C575 C574 1.385 . S
C576 C574 1.478 . S
C576 C578 1.381 . S
C576 C582 1.383 . S
C577 C573 1.495 . S
C577 H583 0.959 . S
C577 H584 0.961 . S
C577 H585 0.960 . S
C578 C576 1.381 . S
C578 C579 1.394 . S
C578 H586 0.930 . S
C579 C578 1.394 . S
C579 C580 1.383 . S
C579 H587 0.929 . S
C580 C579 1.383 . S
C580 C581 1.377 . S
C581 H565 0.930 . S
C581 C580 1.377 . S
C581 C582 1.379 . S
C582 H566 0.931 . S
C582 C576 1.383 . S
C582 C581 1.379 . S
H583 C577 0.959 . S
H584 C577 0.961 . S
H585 C577 0.960 . S
H586 C578 0.930 . S
H587 C579 0.929 . S
H588 C596 0.929 . S
H589 C598 0.930 . S
H590 C600 0.930 . S
H591 C603 0.929 . S
H592 C606 0.930 . S
H593 C608 0.960 . S
H594 C608 0.960 . S
H595 C608 0.960 . S
C596 H588 0.929 . S
C596 C597 1.377 . S
C596 C598 1.384 . S
C597 C596 1.377 . S
C597 C603 1.390 . S
C598 H589 0.930 . S
C598 C596 1.384 . S
C598 C599 1.372 . S
C599 C598 1.372 . S
C599 C600 1.400 . S
C599 C604 1.490 . S
C600 H590 0.930 . S
C600 C599 1.400 . S
C600 C603 1.386 . S
H601 C617 0.930 . S
H602 C618 0.931 . S
C603 H591 0.929 . S
C603 C597 1.390 . S
C603 C600 1.386 . S
C604 C599 1.490 . S
C604 C606 1.395 . S
C604 C607 1.403 . S
H605 C611 0.930 . S
C606 H592 0.930 . S
C606 C604 1.395 . S
C606 C609 1.403 . S
C607 C604 1.403 . S
C607 C608 1.524 . S
C607 C611 1.400 . S
C608 H593 0.960 . S
C608 H594 0.960 . S
C608 H595 0.960 . S
C608 C607 1.524 . S
C609 C606 1.403 . S
C609 C610 1.392 . S
C609 C613 1.495 . S
C610 C609 1.392 . S
C610 C611 1.385 . S
C610 C612 1.478 . S
C611 H605 0.930 . S
C611 C607 1.400 . S
C611 C610 1.385 . S
C612 C610 1.478 . S
C612 C614 1.381 . S
C612 C618 1.383 . S
C613 C609 1.495 . S
C613 H619 0.959 . S
C613 H620 0.961 . S
C613 H621 0.960 . S
C614 C612 1.381 . S
C614 C615 1.394 . S
C614 H622 0.930 . S
C615 C614 1.394 . S
C615 C616 1.383 . S
C615 H623 0.929 . S
C616 C615 1.383 . S
C616 C617 1.377 . S
C617 H601 0.930 . S
C617 C616 1.377 . S
C617 C618 1.379 . S
C618 H602 0.931 . S
C618 C612 1.383 . S
C618 C617 1.379 . S
H619 C613 0.959 . S
H620 C613 0.961 . S
H621 C613 0.960 . S
H622 C614 0.930 . S
H623 C615 0.929 . S
H624 C632 0.929 . S
H625 C634 0.930 . S
H626 C636 0.930 . S
H627 C639 0.929 . S
H628 C642 0.930 . S
H629 C644 0.960 . S
H630 C644 0.960 . S
H631 C644 0.960 . S
C632 H624 0.929 . S
C632 C633 1.377 . S
C632 C634 1.384 . S
C633 C632 1.377 . S
C633 C639 1.390 . S
C634 H625 0.930 . S
C634 C632 1.384 . S
C634 C635 1.372 . S
C635 C634 1.372 . S
C635 C636 1.400 . S
C635 C640 1.490 . S
C636 H626 0.930 . S
C636 C635 1.400 . S
C636 C639 1.386 . S
H637 C653 0.930 . S
H638 C654 0.931 . S
C639 H627 0.929 . S
C639 C633 1.390 . S
C639 C636 1.386 . S
C640 C635 1.490 . S
C640 C642 1.395 . S
C640 C643 1.403 . S
H641 C647 0.930 . S
C642 H628 0.930 . S
C642 C640 1.395 . S
C642 C645 1.403 . S
C643 C640 1.403 . S
C643 C644 1.524 . S
C643 C647 1.400 . S
C644 H629 0.960 . S
C644 H630 0.960 . S
C644 H631 0.960 . S
C644 C643 1.524 . S
C645 C642 1.403 . S
C645 C646 1.392 . S
C645 C649 1.495 . S
C646 C645 1.392 . S
C646 C647 1.385 . S
C646 C648 1.478 . S
C647 H641 0.930 . S
C647 C643 1.400 . S
C647 C646 1.385 . S
C648 C646 1.478 . S
C648 C650 1.381 . S
C648 C654 1.383 . S
C649 C645 1.495 . S
C649 H655 0.959 . S
C649 H656 0.961 . S
C649 H657 0.960 . S
C650 C648 1.381 . S
C650 C651 1.394 . S
C650 H658 0.930 . S
C651 C650 1.394 . S
C651 C652 1.383 . S
C651 H659 0.929 . S
C652 C651 1.383 . S
C652 C653 1.377 . S
C653 H637 0.930 . S
C653 C652 1.377 . S
C653 C654 1.379 . S
C654 H638 0.931 . S
C654 C648 1.383 . S
C654 C653 1.379 . S
H655 C649 0.959 . S
H656 C649 0.961 . S
H657 C649 0.960 . S
H658 C650 0.930 . S
H659 C651 0.929 . S
H660 C668 0.929 1_556 S
H661 C670 0.930 . S
H662 C672 0.930 . S
H663 C675 0.929 . S
H664 C678 0.930 . S
H665 C680 0.960 . S
H666 C680 0.960 . S
H667 C680 0.960 . S
C668 H660 0.929 1_554 S
C668 C669 1.377 . S
C668 C670 1.384 . S
C669 C668 1.377 . S
C669 C675 1.390 . S
C670 H661 0.930 . S
C670 C668 1.384 . S
C670 C671 1.372 . S
C671 C670 1.372 . S
C671 C672 1.400 . S
C671 C676 1.490 . S
C672 H662 0.930 . S
C672 C671 1.400 . S
C672 C675 1.386 . S
H673 C689 0.930 . S
H674 C690 0.931 . S
C675 H663 0.929 . S
C675 C669 1.390 . S
C675 C672 1.386 . S
C676 C671 1.490 . S
C676 C678 1.395 . S
C676 C679 1.403 . S
H677 C683 0.930 . S
C678 H664 0.930 . S
C678 C676 1.395 . S
C678 C681 1.403 . S
C679 C676 1.403 . S
C679 C680 1.524 . S
C679 C683 1.400 . S
C680 H665 0.960 . S
C680 H666 0.960 . S
C680 H667 0.960 . S
C680 C679 1.524 . S
C681 C678 1.403 . S
C681 C682 1.392 . S
C681 C685 1.495 . S
C682 C681 1.392 . S
C682 C683 1.385 . S
C682 C684 1.478 . S
C683 H677 0.930 . S
C683 C679 1.400 . S
C683 C682 1.385 . S
C684 C682 1.478 . S
C684 C686 1.381 . S
C684 C690 1.383 . S
C685 C681 1.495 . S
C685 H691 0.959 . S
C685 H692 0.961 . S
C685 H693 0.960 . S
C686 C684 1.381 . S
C686 C687 1.394 . S
C686 H694 0.930 . S
C687 C686 1.394 . S
C687 C688 1.383 . S
C687 H695 0.929 . S
C688 C687 1.383 . S
C688 C689 1.377 . S
C689 H673 0.930 . S
C689 C688 1.377 . S
C689 C690 1.379 . S
C690 H674 0.931 . S
C690 C684 1.383 . S
C690 C689 1.379 . S
H691 C685 0.959 . S
H692 C685 0.961 . S
H693 C685 0.960 . S
H694 C686 0.930 . S
H695 C687 0.929 . S
H696 C704 0.929 . S
H697 C706 0.930 . S
H698 C708 0.930 . S
H699 C711 0.929 . S
H700 C714 0.930 . S
H701 C716 0.960 . S
H702 C716 0.960 . S
H703 C716 0.960 . S
C704 H696 0.929 . S
C704 C705 1.377 . S
C704 C706 1.384 . S
C705 C704 1.377 . S
C705 C711 1.390 . S
C706 H697 0.930 . S
C706 C704 1.384 . S
C706 C707 1.372 . S
C707 C706 1.372 . S
C707 C708 1.400 . S
C707 C712 1.490 . S
C708 H698 0.930 . S
C708 C707 1.400 . S
C708 C711 1.386 . S
H709 C725 0.930 . S
H710 C726 0.931 . S
C711 H699 0.929 . S
C711 C705 1.390 . S
C711 C708 1.386 . S
C712 C707 1.490 . S
C712 C714 1.395 . S
C712 C715 1.403 . S
H713 C719 0.930 . S
C714 H700 0.930 . S
C714 C712 1.395 . S
C714 C717 1.403 . S
C715 C712 1.403 . S
C715 C716 1.524 . S
C715 C719 1.400 . S
C716 H701 0.960 . S
C716 H702 0.960 . S
C716 H703 0.960 . S
C716 C715 1.524 . S
C717 C714 1.403 . S
C717 C718 1.392 . S
C717 C721 1.495 . S
C718 C717 1.392 . S
C718 C719 1.385 . S
C718 C720 1.478 . S
C719 H713 0.930 . S
C719 C715 1.400 . S
C719 C718 1.385 . S
C720 C718 1.478 . S
C720 C722 1.381 . S
C720 C726 1.383 . S
C721 C717 1.495 . S
C721 H727 0.959 . S
C721 H728 0.961 . S
C721 H729 0.960 . S
C722 C720 1.381 . S
C722 C723 1.394 . S
C722 H730 0.930 . S
C723 C722 1.394 . S
C723 C724 1.383 . S
C723 H731 0.929 . S
C724 C723 1.383 . S
C724 C725 1.377 . S
C725 H709 0.930 . S
C725 C724 1.377 . S
C725 C726 1.379 . S
C726 H710 0.931 . S
C726 C720 1.383 . S
C726 C725 1.379 . S
H727 C721 0.959 . S
H728 C721 0.961 . S
H729 C721 0.960 . S
H730 C722 0.930 . S
H731 C723 0.929 . S
H732 C740 0.929 . S
H733 C742 0.930 . S
H734 C744 0.930 . S
H735 C747 0.929 . S
H736 C750 0.930 . S
H737 C752 0.960 . S
H738 C752 0.960 . S
H739 C752 0.960 . S
C740 H732 0.929 . S
C740 C741 1.377 . S
C740 C742 1.384 . S
C741 C740 1.377 . S
C741 C747 1.390 . S
C742 H733 0.930 . S
C742 C740 1.384 . S
C742 C743 1.372 . S
C743 C742 1.372 . S
C743 C744 1.400 . S
C743 C748 1.490 . S
C744 H734 0.930 . S
C744 C743 1.400 . S
C744 C747 1.386 . S
H745 C761 0.930 . S
H746 C762 0.931 . S
C747 H735 0.929 . S
C747 C741 1.390 . S
C747 C744 1.386 . S
C748 C743 1.490 . S
C748 C750 1.395 . S
C748 C751 1.403 . S
H749 C755 0.930 . S
C750 H736 0.930 . S
C750 C748 1.395 . S
C750 C753 1.403 . S
C751 C748 1.403 . S
C751 C752 1.524 . S
C751 C755 1.400 . S
C752 H737 0.960 . S
C752 H738 0.960 . S
C752 H739 0.960 . S
C752 C751 1.524 . S
C753 C750 1.403 . S
C753 C754 1.392 . S
C753 C757 1.495 . S
C754 C753 1.392 . S
C754 C755 1.385 . S
C754 C756 1.478 . S
C755 H749 0.930 . S
C755 C751 1.400 . S
C755 C754 1.385 . S
C756 C754 1.478 . S
C756 C758 1.381 . S
C756 C762 1.383 . S
C757 C753 1.495 . S
C757 H763 0.959 . S
C757 H764 0.961 . S
C757 H765 0.960 . S
C758 C756 1.381 . S
C758 C759 1.394 . S
C758 H766 0.930 . S
C759 C758 1.394 . S
C759 C760 1.383 . S
C759 H767 0.929 . S
C760 C759 1.383 . S
C760 C761 1.377 . S
C761 H745 0.930 . S
C761 C760 1.377 . S
C761 C762 1.379 . S
C762 H746 0.931 . S
C762 C756 1.383 . S
C762 C761 1.379 . S
H763 C757 0.959 . S
H764 C757 0.961 . S
H765 C757 0.960 . S
H766 C758 0.930 . S
H767 C759 0.929 . S
H768 C776 0.929 . S
H769 C778 0.930 . S
H770 C780 0.930 . S
H771 C783 0.929 1_556 S
H772 C786 0.930 . S
H773 C788 0.960 . S
H774 C788 0.960 . S
H775 C788 0.960 . S
C776 H768 0.929 . S
C776 C777 1.377 . S
C776 C778 1.384 . S
C777 C776 1.377 . S
C777 C783 1.390 . S
C778 H769 0.930 . S
C778 C776 1.384 . S
C778 C779 1.372 . S
C779 C778 1.372 . S
C779 C780 1.400 . S
C779 C784 1.490 . S
C780 H770 0.930 . S
C780 C779 1.400 . S
C780 C783 1.386 . S
H781 C797 0.930 . S
H782 C798 0.931 . S
C783 H771 0.929 1_554 S
C783 C777 1.390 . S
C783 C780 1.386 . S
C784 C779 1.490 . S
C784 C786 1.395 . S
C784 C787 1.403 . S
H785 C791 0.930 . S
C786 H772 0.930 . S
C786 C784 1.395 . S
C786 C789 1.403 . S
C787 C784 1.403 . S
C787 C788 1.524 . S
C787 C791 1.400 . S
C788 H773 0.960 . S
C788 H774 0.960 . S
C788 H775 0.960 . S
C788 C787 1.524 . S
C789 C786 1.403 . S
C789 C790 1.392 . S
C789 C793 1.495 . S
C790 C789 1.392 . S
C790 C791 1.385 . S
C790 C792 1.478 . S
C791 H785 0.930 . S
C791 C787 1.400 . S
C791 C790 1.385 . S
C792 C790 1.478 . S
C792 C794 1.381 . S
C792 C798 1.383 . S
C793 C789 1.495 . S
C793 H799 0.959 . S
C793 H800 0.961 . S
C793 H801 0.960 . S
C794 C792 1.381 . S
C794 C795 1.394 . S
C794 H802 0.930 . S
C795 C794 1.394 . S
C795 C796 1.383 . S
C795 H803 0.929 . S
C796 C795 1.383 . S
C796 C797 1.377 . S
C797 H781 0.930 . S
C797 C796 1.377 . S
C797 C798 1.379 . S
C798 H782 0.931 . S
C798 C792 1.383 . S
C798 C797 1.379 . S
H799 C793 0.959 . S
H800 C793 0.961 . S
H801 C793 0.960 . S
H802 C794 0.930 . S
H803 C795 0.929 . S
H804 C812 0.929 . S
H805 C814 0.930 . S
H806 C816 0.930 . S
H807 C819 0.929 . S
H808 C822 0.930 . S
H809 C824 0.960 . S
H810 C824 0.960 . S
H811 C824 0.960 . S
C812 H804 0.929 . S
C812 C813 1.377 . S
C812 C814 1.384 . S
C813 C812 1.377 . S
C813 C819 1.390 . S
C814 H805 0.930 . S
C814 C812 1.384 . S
C814 C815 1.372 . S
C815 C814 1.372 . S
C815 C816 1.400 . S
C815 C820 1.490 . S
C816 H806 0.930 . S
C816 C815 1.400 . S
C816 C819 1.386 . S
H817 C833 0.930 . S
H818 C834 0.931 . S
C819 H807 0.929 . S
C819 C813 1.390 . S
C819 C816 1.386 . S
C820 C815 1.490 . S
C820 C822 1.395 . S
C820 C823 1.403 . S
H821 C827 0.930 . S
C822 H808 0.930 . S
C822 C820 1.395 . S
C822 C825 1.403 . S
C823 C820 1.403 . S
C823 C824 1.524 . S
C823 C827 1.400 . S
C824 H809 0.960 . S
C824 H810 0.960 . S
C824 H811 0.960 . S
C824 C823 1.524 . S
C825 C822 1.403 . S
C825 C826 1.392 . S
C825 C829 1.495 . S
C826 C825 1.392 . S
C826 C827 1.385 . S
C826 C828 1.478 . S
C827 H821 0.930 . S
C827 C823 1.400 . S
C827 C826 1.385 . S
C828 C826 1.478 . S
C828 C830 1.381 . S
C828 C834 1.383 . S
C829 C825 1.495 . S
C829 H835 0.959 . S
C829 H836 0.961 . S
C829 H837 0.960 . S
C830 C828 1.381 . S
C830 C831 1.394 . S
C830 H838 0.930 . S
C831 C830 1.394 . S
C831 C832 1.383 . S
C831 H839 0.929 . S
C832 C831 1.383 . S
C832 C833 1.377 . S
C833 H817 0.930 . S
C833 C832 1.377 . S
C833 C834 1.379 . S
C834 H818 0.931 . S
C834 C828 1.383 . S
C834 C833 1.379 . S
H835 C829 0.959 . S
H836 C829 0.961 . S
H837 C829 0.960 . S
H838 C830 0.930 . S
H839 C831 0.929 . S
H840 C848 0.929 . S
H841 C850 0.930 . S
H842 C852 0.930 . S
H843 C855 0.929 . S
H844 C858 0.930 . S
H845 C860 0.960 . S
H846 C860 0.960 . S
H847 C860 0.960 . S
C848 H840 0.929 . S
C848 C849 1.377 . S
C848 C850 1.384 . S
C849 C848 1.377 . S
C849 C855 1.390 . S
C850 H841 0.930 . S
C850 C848 1.384 . S
C850 C851 1.372 . S
C851 C850 1.372 . S
C851 C852 1.400 . S
C851 C856 1.490 . S
C852 H842 0.930 . S
C852 C851 1.400 . S
C852 C855 1.386 . S
H853 C869 0.930 . S
H854 C870 0.931 . S
C855 H843 0.929 . S
C855 C849 1.390 . S
C855 C852 1.386 . S
C856 C851 1.490 . S
C856 C858 1.395 . S
C856 C859 1.403 . S
H857 C863 0.930 . S
C858 H844 0.930 . S
C858 C856 1.395 . S
C858 C861 1.403 . S
C859 C856 1.403 . S
C859 C860 1.524 . S
C859 C863 1.400 . S
C860 H845 0.960 . S
C860 H846 0.960 . S
C860 H847 0.960 . S
C860 C859 1.524 . S
C861 C858 1.403 . S
C861 C862 1.392 . S
C861 C865 1.495 . S
C862 C861 1.392 . S
C862 C863 1.385 . S
C862 C864 1.478 . S
C863 H857 0.930 . S
C863 C859 1.400 . S
C863 C862 1.385 . S
C864 C862 1.478 . S
C864 C866 1.381 . S
C864 C870 1.383 . S
C865 C861 1.495 . S
C865 H871 0.959 . S
C865 H872 0.961 . S
C865 H873 0.960 . S
C866 C864 1.381 . S
C866 C867 1.394 . S
C866 H874 0.930 . S
C867 C866 1.394 . S
C867 C868 1.383 . S
C867 H875 0.929 . S
C868 C867 1.383 . S
C868 C869 1.377 . S
C869 H853 0.930 . S
C869 C868 1.377 . S
C869 C870 1.379 . S
C870 H854 0.931 . S
C870 C864 1.383 . S
C870 C869 1.379 . S
H871 C865 0.959 . S
H872 C865 0.961 . S
H873 C865 0.960 . S
H874 C866 0.930 . S
H875 C867 0.929 . S
H876 C884 0.929 . S
H877 C886 0.930 . S
H878 C888 0.930 . S
H879 C891 0.929 . S
H880 C894 0.930 . S
H881 C896 0.960 . S
H882 C896 0.960 . S
H883 C896 0.960 . S
C884 H876 0.929 . S
C884 C885 1.377 . S
C884 C886 1.384 . S
C885 C884 1.377 . S
C885 C891 1.390 1_556 S
C886 H877 0.930 . S
C886 C884 1.384 . S
C886 C887 1.372 . S
C887 C886 1.372 . S
C887 C888 1.400 1_556 S
C887 C892 1.490 . S
C888 H878 0.930 . S
C888 C887 1.400 1_554 S
C888 C891 1.386 . S
H889 C905 0.930 . S
H890 C906 0.931 . S
C891 H879 0.929 . S
C891 C885 1.390 1_554 S
C891 C888 1.386 . S
C892 C887 1.490 . S
C892 C894 1.395 . S
C892 C895 1.403 1_556 S
H893 C899 0.930 . S
C894 H880 0.930 . S
C894 C892 1.395 . S
C894 C897 1.403 . S
C895 C892 1.403 1_554 S
C895 C896 1.524 . S
C895 C899 1.400 . S
C896 H881 0.960 . S
C896 H882 0.960 . S
C896 H883 0.960 . S
C896 C895 1.524 . S
C897 C894 1.403 . S
C897 C898 1.392 . S
C897 C901 1.495 . S
C898 C897 1.392 . S
C898 C899 1.385 1_556 S
C898 C900 1.476 1_556 S
C899 H893 0.930 . S
C899 C895 1.400 . S
C899 C898 1.385 1_554 S
C900 C898 1.476 1_554 S
C900 C902 1.377 1_554 S
C900 C906 1.389 . S
C901 C897 1.495 . S
C901 H907 0.959 . S
C901 H908 0.961 . S
C901 H909 0.960 . S
C902 C900 1.377 1_556 S
C902 C903 1.394 . S
C902 H910 0.930 . S
C903 C902 1.394 . S
C903 C904 1.383 1_556 S
C903 H911 0.929 . S
C904 C903 1.383 1_554 S
C904 C905 1.377 . S
C905 H889 0.930 . S
C905 C904 1.377 . S
C905 C906 1.379 . S
C906 H890 0.931 . S
C906 C900 1.389 . S
C906 C905 1.379 . S
H907 C901 0.959 . S
H908 C901 0.961 . S
H909 C901 0.960 . S
H910 C902 0.930 . S
H911 C903 0.929 . S
H912 C920 0.929 . S
H913 C922 0.930 . S
H914 C924 0.930 . S
H915 C927 0.929 . S
H916 C930 0.930 . S
H917 C932 0.960 . S
H918 C932 0.960 . S
H919 C932 0.960 . S
C920 H912 0.929 . S
C920 C921 1.377 . S
C920 C922 1.384 . S
C921 C920 1.377 . S
C921 C927 1.390 . S
C922 H913 0.930 . S
C922 C920 1.384 . S
C922 C923 1.372 . S
C923 C922 1.372 . S
C923 C924 1.400 . S
C923 C928 1.490 . S
C924 H914 0.930 . S
C924 C923 1.400 . S
C924 C927 1.386 . S
H925 C941 0.930 . S
H926 C942 0.931 . S
C927 H915 0.929 . S
C927 C921 1.390 . S
C927 C924 1.386 . S
C928 C923 1.490 . S
C928 C930 1.395 . S
C928 C931 1.403 . S
H929 C935 0.930 . S
C930 H916 0.930 . S
C930 C928 1.395 . S
C930 C933 1.403 . S
C931 C928 1.403 . S
C931 C932 1.524 . S
C931 C935 1.400 . S
C932 H917 0.960 . S
C932 H918 0.960 . S
C932 H919 0.960 . S
C932 C931 1.524 . S
C933 C930 1.403 . S
C933 C934 1.392 . S
C933 C937 1.495 . S
C934 C933 1.392 . S
C934 C935 1.385 . S
C934 C936 1.478 . S
C935 H929 0.930 . S
C935 C931 1.400 . S
C935 C934 1.385 . S
C936 C934 1.478 . S
C936 C938 1.381 . S
C936 C942 1.383 . S
C937 C933 1.495 . S
C937 H943 0.959 . S
C937 H944 0.961 . S
C937 H945 0.960 . S
C938 C936 1.381 . S
C938 C939 1.394 . S
C938 H946 0.930 . S
C939 C938 1.394 . S
C939 C940 1.383 . S
C939 H947 0.929 . S
C940 C939 1.383 . S
C940 C941 1.377 . S
C941 H925 0.930 . S
C941 C940 1.377 . S
C941 C942 1.379 . S
C942 H926 0.931 . S
C942 C936 1.383 . S
C942 C941 1.379 . S
H943 C937 0.959 . S
H944 C937 0.961 . S
H945 C937 0.960 . S
H946 C938 0.930 . S
H947 C939 0.929 . S
H948 C956 0.929 . S
H949 C958 0.930 . S
H950 C960 0.930 . S
H951 C963 0.929 . S
H952 C966 0.930 . S
H953 C968 0.960 . S
H954 C968 0.960 . S
H955 C968 0.960 . S
C956 H948 0.929 . S
C956 C957 1.377 . S
C956 C958 1.384 . S
C957 C956 1.377 . S
C957 C963 1.390 . S
C958 H949 0.930 . S
C958 C956 1.384 . S
C958 C959 1.372 . S
C959 C958 1.372 . S
C959 C960 1.400 . S
C959 C964 1.490 . S
C960 H950 0.930 . S
C960 C959 1.400 . S
C960 C963 1.386 . S
H961 C977 0.930 . S
H962 C978 0.931 . S
C963 H951 0.929 . S
C963 C957 1.390 . S
C963 C960 1.386 . S
C964 C959 1.490 . S
C964 C966 1.395 . S
C964 C967 1.403 . S
H965 C971 0.930 . S
C966 H952 0.930 . S
C966 C964 1.395 . S
C966 C969 1.403 . S
C967 C964 1.403 . S
C967 C968 1.524 . S
C967 C971 1.400 . S
C968 H953 0.960 . S
C968 H954 0.960 . S
C968 H955 0.960 . S
C968 C967 1.524 . S
C969 C966 1.403 . S
C969 C970 1.392 . S
C969 C973 1.495 . S
C970 C969 1.392 . S
C970 C971 1.385 . S
C970 C972 1.478 . S
C971 H965 0.930 . S
C971 C967 1.400 . S
C971 C970 1.385 . S
C972 C970 1.478 . S
C972 C974 1.381 . S
C972 C978 1.383 . S
C973 C969 1.495 . S
C973 H979 0.959 . S
C973 H980 0.961 . S
C973 H981 0.960 . S
C974 C972 1.381 . S
C974 C975 1.394 . S
C974 H982 0.930 . S
C975 C974 1.394 . S
C975 C976 1.383 . S
C975 H983 0.929 . S
C976 C975 1.383 . S
C976 C977 1.377 . S
C977 H961 0.930 . S
C977 C976 1.377 . S
C977 C978 1.379 . S
C978 H962 0.931 . S
C978 C972 1.383 . S
C978 C977 1.379 . S
H979 C973 0.959 . S
H980 C973 0.961 . S
H981 C973 0.960 . S
H982 C974 0.930 . S
H983 C975 0.929 . S
H984 C992 0.929 . S
H985 C994 0.930 . S
H986 C996 0.930 . S
H987 C999 0.929 . S
H988 C1002 0.930 . S
H989 C1004 0.960 . S
H990 C1004 0.960 . S
H991 C1004 0.960 . S
C992 H984 0.929 . S
C992 C993 1.377 . S
C992 C994 1.384 . S
C993 C992 1.377 . S
C993 C999 1.390 1_554 S
C994 H985 0.930 . S
C994 C992 1.384 . S
C994 C995 1.372 . S
C995 C994 1.372 . S
C995 C996 1.400 1_554 S
C995 C1000 1.490 . S
C996 H986 0.930 . S
C996 C995 1.400 1_556 S
C996 C999 1.386 . S
H997 C1013 0.930 . S
H998 C1014 0.931 . S
C999 H987 0.929 . S
C999 C993 1.390 1_556 S
C999 C996 1.386 . S
C1000 C995 1.490 . S
C1000 C1002 1.395 . S
C1000 C1003 1.403 1_554 S
H1001 C1007 0.930 . S
C1002 H988 0.930 . S
C1002 C1000 1.395 . S
C1002 C1005 1.403 . S
C1003 C1000 1.403 1_556 S
C1003 C1004 1.524 . S
C1003 C1007 1.400 . S
C1004 H989 0.960 . S
C1004 H990 0.960 . S
C1004 H991 0.960 . S
C1004 C1003 1.524 . S
C1005 C1002 1.403 . S
C1005 C1006 1.392 . S
C1005 C1009 1.495 . S
C1006 C1005 1.392 . S
C1006 C1007 1.385 1_554 S
C1006 C1008 1.475 1_554 S
C1007 H1001 0.930 . S
C1007 C1003 1.400 . S
C1007 C1006 1.385 1_556 S
C1008 C1006 1.475 1_556 S
C1008 C1010 1.372 1_556 S
C1008 C1014 1.396 . S
C1009 C1005 1.495 . S
C1009 H1015 0.959 . S
C1009 H1016 0.961 . S
C1009 H1017 0.960 . S
C1010 C1008 1.372 1_554 S
C1010 C1011 1.394 . S
C1010 H1018 0.930 . S
C1011 C1010 1.394 . S
C1011 C1012 1.383 1_554 S
C1011 H1019 0.929 . S
C1012 C1011 1.383 1_556 S
C1012 C1013 1.377 . S
C1013 H997 0.930 . S
C1013 C1012 1.377 . S
C1013 C1014 1.379 . S
C1014 H998 0.931 . S
C1014 C1008 1.396 . S
C1014 C1013 1.379 . S
H1015 C1009 0.959 . S
H1016 C1009 0.961 . S
H1017 C1009 0.960 . S
H1018 C1010 0.930 . S
H1019 C1011 0.929 . S
C165 C3 1.316 . S
C184 C122 1.313 . S
C201 C16 1.316 . S
C220 C135 1.323 . S
C237 C29 1.312 . S
C256 C148 1.292 . S
C273 C42 1.309 . S
C292 C81 1.313 . S
C309 C94 1.309 . S
C328 C57 1.321 . S
C345 C109 1.316 . S
C364 C68 1.316 . S
C381 C140 1.923 . S
C400 C4 1.921 . S
C417 C17 1.919 . S
C436 C153 1.915 . S
C453 C30 1.918 . S
C472 C82 1.910 . S
C489 C43 1.924 . S
C508 C95 1.929 . S
C525 C62 1.924 . S
C544 C114 1.930 . S
C561 C69 1.919 . S
C580 C127 1.912 . S
C597 C134 0.841 . S
C616 C10 0.838 . S
C633 C23 0.840 . S
C652 C147 0.840 . S
C669 C36 0.841 . S
C688 C88 0.837 . S
C705 C49 0.841 . S
C724 C101 0.839 . S
C741 C56 0.841 . S
C760 C108 0.840 . S
C777 C75 0.840 . S
C796 C121 0.843 . S
C813 C5 1.778 . S
C832 C83 1.771 . S
C849 C96 1.780 . S
C868 C18 1.780 . S
C885 C31 1.781 . S
C904 C107 1.780 . S
C921 C44 1.779 . S
C940 C120 1.773 . S
C957 C55 1.780 . S
C976 C133 1.778 . S
C993 C146 1.780 . S
C1012 C70 1.779 . S
