# Generated by pormake.
# Topology umv, (4)-cn, num edge types: 1
# Building blocks:
#     Node 0, Type 0, BuildingBlock: UXUYUI_clean_sbu_0, # of connection points: 4
#     Node 1, Type 0, BuildingBlock: UXUYUI_clean_sbu_0, # of connection points: 4
#     Node 2, Type 0, BuildingBlock: UXUYUI_clean_sbu_0, # of connection points: 4
#     Node 3, Type 0, BuildingBlock: UXUYUI_clean_sbu_0, # of connection points: 4
#     Node 4, Type 0, BuildingBlock: UXUYUI_clean_sbu_0, # of connection points: 4
#     Node 5, Type 0, BuildingBlock: UXUYUI_clean_sbu_0, # of connection points: 4
#     Node 6, Type 0, BuildingBlock: UXUYUI_clean_sbu_0, # of connection points: 4
#     Node 7, Type 0, BuildingBlock: UXUYUI_clean_sbu_0, # of connection points: 4
#     Node 8, Type 0, BuildingBlock: UXUYUI_clean_sbu_0, # of connection points: 4
#     Node 9, Type 0, BuildingBlock: UXUYUI_clean_sbu_0, # of connection points: 4
#     Node 10, Type 0, BuildingBlock: UXUYUI_clean_sbu_0, # of connection points: 4
#     Node 11, Type 0, BuildingBlock: UXUYUI_clean_sbu_0, # of connection points: 4
#     Node 12, Type 0, BuildingBlock: UXUYUI_clean_sbu_0, # of connection points: 4
#     Node 13, Type 0, BuildingBlock: UXUYUI_clean_sbu_0, # of connection points: 4
#     Node 14, Type 0, BuildingBlock: UXUYUI_clean_sbu_0, # of connection points: 4
#     Node 15, Type 0, BuildingBlock: UXUYUI_clean_sbu_0, # of connection points: 4
#     Node 16, Type 0, BuildingBlock: UXUYUI_clean_sbu_0, # of connection points: 4
#     Node 17, Type 0, BuildingBlock: UXUYUI_clean_sbu_0, # of connection points: 4
#     Node 18, Type 0, BuildingBlock: UXUYUI_clean_sbu_0, # of connection points: 4
#     Node 19, Type 0, BuildingBlock: UXUYUI_clean_sbu_0, # of connection points: 4
#     Node 20, Type 0, BuildingBlock: UXUYUI_clean_sbu_0, # of connection points: 4
#     Node 21, Type 0, BuildingBlock: UXUYUI_clean_sbu_0, # of connection points: 4
#     Node 22, Type 0, BuildingBlock: UXUYUI_clean_sbu_0, # of connection points: 4
#     Node 23, Type 0, BuildingBlock: UXUYUI_clean_sbu_0, # of connection points: 4
#     Node 24, Type 0, BuildingBlock: UXUYUI_clean_sbu_0, # of connection points: 4
#     Node 25, Type 0, BuildingBlock: UXUYUI_clean_sbu_0, # of connection points: 4
#     Node 26, Type 0, BuildingBlock: UXUYUI_clean_sbu_0, # of connection points: 4
#     Node 27, Type 0, BuildingBlock: UXUYUI_clean_sbu_0, # of connection points: 4
#     Node 28, Type 0, BuildingBlock: UXUYUI_clean_sbu_0, # of connection points: 4
#     Node 29, Type 0, BuildingBlock: UXUYUI_clean_sbu_0, # of connection points: 4
#     Node 30, Type 0, BuildingBlock: UXUYUI_clean_sbu_0, # of connection points: 4
#     Node 31, Type 0, BuildingBlock: UXUYUI_clean_sbu_0, # of connection points: 4
#     Edge 32, Type (0, 0), BuildingBlock: EZIPEK_clean_linker_0, # of connection points: 2
#     Edge 33, Type (0, 0), BuildingBlock: EZIPEK_clean_linker_0, # of connection points: 2
#     Edge 34, Type (0, 0), BuildingBlock: EZIPEK_clean_linker_0, # of connection points: 2
#     Edge 35, Type (0, 0), BuildingBlock: EZIPEK_clean_linker_0, # of connection points: 2
#     Edge 36, Type (0, 0), BuildingBlock: EZIPEK_clean_linker_0, # of connection points: 2
#     Edge 37, Type (0, 0), BuildingBlock: EZIPEK_clean_linker_0, # of connection points: 2
#     Edge 38, Type (0, 0), BuildingBlock: EZIPEK_clean_linker_0, # of connection points: 2
#     Edge 39, Type (0, 0), BuildingBlock: EZIPEK_clean_linker_0, # of connection points: 2
#     Edge 40, Type (0, 0), BuildingBlock: EZIPEK_clean_linker_0, # of connection points: 2
#     Edge 41, Type (0, 0), BuildingBlock: EZIPEK_clean_linker_0, # of connection points: 2
#     Edge 42, Type (0, 0), BuildingBlock: EZIPEK_clean_linker_0, # of connection points: 2
#     Edge 43, Type (0, 0), BuildingBlock: EZIPEK_clean_linker_0, # of connection points: 2
#     Edge 44, Type (0, 0), BuildingBlock: EZIPEK_clean_linker_0, # of connection points: 2
#     Edge 45, Type (0, 0), BuildingBlock: EZIPEK_clean_linker_0, # of connection points: 2
#     Edge 46, Type (0, 0), BuildingBlock: EZIPEK_clean_linker_0, # of connection points: 2
#     Edge 47, Type (0, 0), BuildingBlock: EZIPEK_clean_linker_0, # of connection points: 2
#     Edge 48, Type (0, 0), BuildingBlock: EZIPEK_clean_linker_0, # of connection points: 2
#     Edge 49, Type (0, 0), BuildingBlock: EZIPEK_clean_linker_0, # of connection points: 2
#     Edge 50, Type (0, 0), BuildingBlock: EZIPEK_clean_linker_0, # of connection points: 2
#     Edge 51, Type (0, 0), BuildingBlock: EZIPEK_clean_linker_0, # of connection points: 2
#     Edge 52, Type (0, 0), BuildingBlock: EZIPEK_clean_linker_0, # of connection points: 2
#     Edge 53, Type (0, 0), BuildingBlock: EZIPEK_clean_linker_0, # of connection points: 2
#     Edge 54, Type (0, 0), BuildingBlock: EZIPEK_clean_linker_0, # of connection points: 2
#     Edge 55, Type (0, 0), BuildingBlock: EZIPEK_clean_linker_0, # of connection points: 2
#     Edge 56, Type (0, 0), BuildingBlock: EZIPEK_clean_linker_0, # of connection points: 2
#     Edge 57, Type (0, 0), BuildingBlock: EZIPEK_clean_linker_0, # of connection points: 2
#     Edge 58, Type (0, 0), BuildingBlock: EZIPEK_clean_linker_0, # of connection points: 2
#     Edge 59, Type (0, 0), BuildingBlock: EZIPEK_clean_linker_0, # of connection points: 2
#     Edge 60, Type (0, 0), BuildingBlock: EZIPEK_clean_linker_0, # of connection points: 2
#     Edge 61, Type (0, 0), BuildingBlock: EZIPEK_clean_linker_0, # of connection points: 2
#     Edge 62, Type (0, 0), BuildingBlock: EZIPEK_clean_linker_0, # of connection points: 2
#     Edge 63, Type (0, 0), BuildingBlock: EZIPEK_clean_linker_0, # of connection points: 2
#     Edge 64, Type (0, 0), BuildingBlock: EZIPEK_clean_linker_0, # of connection points: 2
#     Edge 65, Type (0, 0), BuildingBlock: EZIPEK_clean_linker_0, # of connection points: 2
#     Edge 66, Type (0, 0), BuildingBlock: EZIPEK_clean_linker_0, # of connection points: 2
#     Edge 67, Type (0, 0), BuildingBlock: EZIPEK_clean_linker_0, # of connection points: 2
#     Edge 68, Type (0, 0), BuildingBlock: EZIPEK_clean_linker_0, # of connection points: 2
#     Edge 69, Type (0, 0), BuildingBlock: EZIPEK_clean_linker_0, # of connection points: 2
#     Edge 70, Type (0, 0), BuildingBlock: EZIPEK_clean_linker_0, # of connection points: 2
#     Edge 71, Type (0, 0), BuildingBlock: EZIPEK_clean_linker_0, # of connection points: 2
#     Edge 72, Type (0, 0), BuildingBlock: EZIPEK_clean_linker_0, # of connection points: 2
#     Edge 73, Type (0, 0), BuildingBlock: EZIPEK_clean_linker_0, # of connection points: 2
#     Edge 74, Type (0, 0), BuildingBlock: EZIPEK_clean_linker_0, # of connection points: 2
#     Edge 75, Type (0, 0), BuildingBlock: EZIPEK_clean_linker_0, # of connection points: 2
#     Edge 76, Type (0, 0), BuildingBlock: EZIPEK_clean_linker_0, # of connection points: 2
#     Edge 77, Type (0, 0), BuildingBlock: EZIPEK_clean_linker_0, # of connection points: 2
#     Edge 78, Type (0, 0), BuildingBlock: EZIPEK_clean_linker_0, # of connection points: 2
#     Edge 79, Type (0, 0), BuildingBlock: EZIPEK_clean_linker_0, # of connection points: 2
#     Edge 80, Type (0, 0), BuildingBlock: EZIPEK_clean_linker_0, # of connection points: 2
#     Edge 81, Type (0, 0), BuildingBlock: EZIPEK_clean_linker_0, # of connection points: 2
#     Edge 82, Type (0, 0), BuildingBlock: EZIPEK_clean_linker_0, # of connection points: 2
#     Edge 83, Type (0, 0), BuildingBlock: EZIPEK_clean_linker_0, # of connection points: 2
#     Edge 84, Type (0, 0), BuildingBlock: EZIPEK_clean_linker_0, # of connection points: 2
#     Edge 85, Type (0, 0), BuildingBlock: EZIPEK_clean_linker_0, # of connection points: 2
#     Edge 86, Type (0, 0), BuildingBlock: EZIPEK_clean_linker_0, # of connection points: 2
#     Edge 87, Type (0, 0), BuildingBlock: EZIPEK_clean_linker_0, # of connection points: 2
#     Edge 88, Type (0, 0), BuildingBlock: EZIPEK_clean_linker_0, # of connection points: 2
#     Edge 89, Type (0, 0), BuildingBlock: EZIPEK_clean_linker_0, # of connection points: 2
#     Edge 90, Type (0, 0), BuildingBlock: EZIPEK_clean_linker_0, # of connection points: 2
#     Edge 91, Type (0, 0), BuildingBlock: EZIPEK_clean_linker_0, # of connection points: 2
#     Edge 92, Type (0, 0), BuildingBlock: EZIPEK_clean_linker_0, # of connection points: 2
#     Edge 93, Type (0, 0), BuildingBlock: EZIPEK_clean_linker_0, # of connection points: 2
#     Edge 94, Type (0, 0), BuildingBlock: EZIPEK_clean_linker_0, # of connection points: 2
#     Edge 95, Type (0, 0), BuildingBlock: EZIPEK_clean_linker_0, # of connection points: 2
# Relax obj value: 0.218
# Max RMSD: 0.127
# Mean RMSD: 0.126
data_MOF--net-umv--node1-UXUYUI_clean_sbu_0--edge1-EZIPEK_clean_linker_0
_symmetry_space_group_name_H-M    P1
_symmetry_Int_Tables_number       1
_symmetry_cell_setting            triclinic
loop_
_symmetry_equiv_pos_as_xyz
'x, y, z'
_cell_length_a     103.63222
_cell_length_b     28.882536
_cell_length_c     100.22375
_cell_angle_alpha  89.999263
_cell_angle_beta   89.989617
_cell_angle_gamma 89.987117
loop_
_atom_site_label
_atom_site_type_symbol
_atom_site_fract_x
_atom_site_fract_y
_atom_site_fract_z
_atom_type_partial_charge
Li0 Li 0.0322 0.13448 0.30933 0.0
Li1 Li 0.03631 0.15924 0.33207 0.0
Li2 Li 0.05334 0.12092 0.3186 0.0
Li3 Li 0.03518 0.07497 0.32759 0.0
C4 C 0.04355 0.21868 0.30783 0.0
N5 N 0.04156 0.29752 0.29236 0.0
C6 C 0.03545 0.25489 0.31177 0.0
C7 C 0.05045 0.22221 0.29588 0.0
C8 C 0.03457 0.29446 0.30381 0.0
C9 C 0.04938 0.26248 0.28825 0.0
C10 C 0.01163 0.1153 0.33468 0.0
C11 C 0.00493 0.0982 0.35719 0.0
N12 N 0.99243 0.09698 0.35306 0.0
C13 C 0.99873 0.11388 0.33065 0.0
C14 C 0.01477 0.10745 0.34804 0.0
C15 C 0.98916 0.1046 0.3401 0.0
C16 C 0.02752 0.1478 0.28127 0.0
N17 N 0.02302 0.15562 0.29383 0.0
C18 C 0.00697 0.20764 0.28544 0.0
C19 C 0.01283 0.18434 0.29606 0.0
C20 C 0.01167 0.20134 0.27245 0.0
C21 C 0.02193 0.17046 0.27035 0.0
H22 H 0.03574 0.12543 0.27978 0.0
H23 H 0.00963 0.19067 0.30617 0.0
C24 C 0.04401 0.23383 0.34773 0.0
N25 N 0.03344 0.20863 0.3443 0.0
C26 C 0.04276 0.27304 0.35572 0.0
C27 C 0.01969 0.26069 0.35623 0.0
C28 C 0.02139 0.22159 0.34823 0.0
C29 C 0.03049 0.28674 0.35997 0.0
H30 H 0.05336 0.22446 0.34386 0.0
H31 H 0.01303 0.20273 0.34483 0.0
C32 C 0.05121 0.05003 0.30212 0.0
N33 N 0.07016 1.00044 0.28902 0.0
C34 C 0.05374 0.00417 0.30572 0.0
C35 C 0.05822 0.07054 0.29178 0.0
C36 C 0.06338 0.9797 0.29899 0.0
C37 C 0.06781 0.04495 0.28531 0.0
C38 C 0.0552 0.11725 0.34885 0.0
C39 C 0.0663 0.14475 0.34868 0.0
C40 C 0.0512 0.09706 0.36085 0.0
C41 C 0.0731 0.15216 0.36052 0.0
C42 C 0.05827 0.10531 0.37248 0.0
N43 N 0.06897 0.13248 0.37208 0.0
C44 C 0.07774 0.15894 0.31212 0.0
C45 C 0.07821 0.08001 0.31867 0.0
C46 C 0.09117 0.1598 0.31111 0.0
N47 N 0.07156 0.11942 0.31582 0.0
C48 C 0.09165 0.07918 0.31763 0.0
C49 C 0.09822 0.11962 0.31395 0.0
H50 H 0.0723 0.19023 0.31042 0.0
H51 H 0.0731 0.04955 0.32202 0.0
C52 C 0.01939 0.99857 0.33741 0.0
N53 N 0.03142 0.01714 0.33622 0.0
C54 C 0.0173 0.96057 0.34585 0.0
C55 C 0.04004 0.96062 0.35122 0.0
C56 C 0.0417 0.99818 0.34264 0.0
C57 C 0.0277 0.94207 0.3531 0.0
H58 H 0.01135 0.01425 0.33223 0.0
H59 H 0.05116 0.01353 0.3415 0.0
O60 O 0.045 0.18053 0.31579 0.0
O61 O 0.02112 0.12332 0.32548 0.0
O62 O 0.04192 0.07468 0.30872 0.0
O63 O 0.04852 0.10896 0.3373 0.0
H64 H 0.02991 0.25262 0.32088 0.0
H65 H 0.05661 0.19425 0.29257 0.0
H66 H 0.02838 0.32282 0.30677 0.0
H67 H 0.05473 0.26582 0.27903 0.0
H68 H 0.00724 0.092 0.36756 0.0
H69 H 0.99615 0.11973 0.32032 0.0
H70 H 0.02468 0.10872 0.3513 0.0
H71 H 0.97913 0.10336 0.33713 0.0
H72 H 0.99911 0.23146 0.28738 0.0
H73 H 0.02579 0.16507 0.26043 0.0
H74 H 0.05123 0.29313 0.3583 0.0
H75 H 0.01007 0.27111 0.35922 0.0
H76 H 0.04835 0.98773 0.31366 0.0
H77 H 0.05647 0.10614 0.28896 0.0
H78 H 0.06548 0.94424 0.3017 0.0
H79 H 0.0734 0.06053 0.27739 0.0
H80 H 0.06956 0.1608 0.33955 0.0
H81 H 0.04278 0.075 0.36121 0.0
H82 H 0.08166 0.17361 0.36051 0.0
H83 H 0.05525 0.08998 0.38182 0.0
H84 H 0.09604 0.19166 0.30842 0.0
H85 H 0.0969 0.04784 0.32004 0.0
H86 H 0.00766 0.9468 0.34708 0.0
H87 H 0.04826 0.9469 0.35661 0.0
Li88 Li 0.19889 0.13072 0.31879 0.0
Li89 Li 0.21699 0.17709 0.32935 0.0
Li90 Li 0.22085 0.11844 0.31016 0.0
Li91 Li 0.2154 0.09343 0.33215 0.0
C92 C 0.20358 0.20909 0.30301 0.0
N93 N 0.18916 0.27238 0.28866 0.0
C94 C 0.20072 0.25245 0.30847 0.0
C95 C 0.19926 0.19822 0.29017 0.0
C96 C 0.19338 0.2839 0.30107 0.0
C97 C 0.19193 0.23059 0.28311 0.0
C98 C 0.19938 0.12556 0.35002 0.0
C99 C 0.2028 0.12039 0.37378 0.0
N100 N 0.19282 0.09001 0.3747 0.0
C101 C 0.18913 0.09441 0.35121 0.0
C102 C 0.20628 0.13873 0.36139 0.0
C103 C 0.18597 0.07676 0.36377 0.0
C104 C 0.17467 0.08878 0.31578 0.0
N105 N 0.1807 0.13064 0.31541 0.0
C106 C 0.16044 0.16936 0.31291 0.0
C107 C 0.17387 0.17061 0.31406 0.0
C108 C 0.15404 0.12667 0.31348 0.0
C109 C 0.16126 0.08598 0.31484 0.0
H110 H 0.18027 0.0576 0.31727 0.0
H111 H 0.17874 0.20355 0.31433 0.0
C112 C 0.2313 0.26012 0.3372 0.0
N113 N 0.22025 0.2349 0.33833 0.0
C114 C 0.23317 0.29946 0.3452 0.0
C115 C 0.2122 0.28651 0.35505 0.0
C116 C 0.21067 0.24808 0.3468 0.0
C117 C 0.22361 0.31239 0.35444 0.0
H118 H 0.23877 0.24905 0.33037 0.0
H119 H 0.20187 0.22812 0.34734 0.0
C120 C 0.2055 0.04439 0.30453 0.0
N121 N 0.20088 0.9885 0.28265 0.0
C122 C 0.21057 0.99953 0.30404 0.0
C123 C 0.19813 0.06079 0.29386 0.0
C124 C 0.20814 0.97185 0.29289 0.0
C125 C 0.19588 0.03204 0.2829 0.0
C126 C 0.2405 0.11639 0.33576 0.0
C127 C 0.24697 0.07438 0.33392 0.0
C128 C 0.2438 0.1447 0.34655 0.0
C129 C 0.25658 0.06129 0.34295 0.0
C130 C 0.25349 0.13047 0.35533 0.0
N131 N 0.25962 0.08938 0.35338 0.0
C132 C 0.22972 0.12165 0.2826 0.0
C133 C 0.23638 0.0578 0.29576 0.0
C134 C 0.23506 0.10117 0.27116 0.0
N135 N 0.23031 0.09937 0.29456 0.0
C136 C 0.24179 0.03618 0.28465 0.0
C137 C 0.24098 0.05755 0.27215 0.0
H138 H 0.22475 0.15443 0.28184 0.0
H139 H 0.23638 0.04013 0.30523 0.0
C140 C 0.21057 0.00459 0.34148 0.0
N141 N 0.21729 0.04357 0.34457 0.0
C142 C 0.21097 0.96623 0.34987 0.0
C143 C 0.22489 0.0091 0.36479 0.0
C144 C 0.2242 0.04674 0.35609 0.0
C145 C 0.21824 0.96839 0.3616 0.0
H146 H 0.2047 0.00355 0.3326 0.0
H147 H 0.22898 0.07861 0.3587 0.0
O148 O 0.21081 0.17798 0.31009 0.0
O149 O 0.20284 0.14222 0.33775 0.0
O150 O 0.20777 0.072 0.3154 0.0
O151 O 0.23114 0.13014 0.32695 0.0
H152 H 0.20404 0.26166 0.31833 0.0
H153 H 0.20156 0.16524 0.28567 0.0
H154 H 0.19103 0.31746 0.30521 0.0
H155 H 0.18848 0.22252 0.27319 0.0
H156 H 0.2081 0.13006 0.38265 0.0
H157 H 0.18376 0.08355 0.34251 0.0
H158 H 0.21439 0.16217 0.36064 0.0
H159 H 0.17811 0.0524 0.36482 0.0
H160 H 0.15505 0.20138 0.31206 0.0
H161 H 0.15654 0.05258 0.31547 0.0
H162 H 0.24205 0.31903 0.3444 0.0
H163 H 0.20458 0.2958 0.36195 0.0
H164 H 0.21644 0.98635 0.31212 0.0
H165 H 0.1941 0.09524 0.29407 0.0
H166 H 0.21204 0.93716 0.29236 0.0
H167 H 0.19016 0.04432 0.2746 0.0
H168 H 0.24453 0.05176 0.32575 0.0
H169 H 0.23885 0.17701 0.34827 0.0
H170 H 0.26159 0.02873 0.34169 0.0
H171 H 0.25609 0.15199 0.36375 0.0
H172 H 0.23426 0.11844 0.26161 0.0
H173 H 0.24621 0.00238 0.28571 0.0
H174 H 0.20557 0.93535 0.34733 0.0
H175 H 0.23039 0.01182 0.37394 0.0
Li176 Li 0.05265 0.13048 0.93153 0.0
Li177 Li 0.03413 0.16662 0.92128 0.0
Li178 Li 0.03136 0.11199 0.94139 0.0
Li179 Li 0.03736 0.0845 0.9187 0.0
C180 C 0.04639 0.1971 0.95042 0.0
N181 N 0.05862 0.24397 0.97087 0.0
C182 C 0.0525 0.23936 0.94793 0.0
C183 C 0.04647 0.17876 0.96334 0.0
C184 C 0.05865 0.26248 0.95839 0.0
C185 C 0.0527 0.20298 0.97354 0.0
C186 C 0.05238 0.16251 0.90222 0.0
C187 C 0.04973 0.19165 0.87983 0.0
N188 N 0.05991 0.2206 0.88173 0.0
C189 C 0.06283 0.19257 0.90395 0.0
C190 C 0.04575 0.16215 0.89008 0.0
C191 C 0.06647 0.22169 0.89347 0.0
C192 C 0.07801 0.11265 0.92494 0.0
N193 N 0.07097 0.13306 0.93477 0.0
C194 C 0.09024 0.15028 0.94697 0.0
C195 C 0.0768 0.1511 0.94579 0.0
C196 C 0.09766 0.12989 0.93686 0.0
C197 C 0.09142 0.11054 0.92579 0.0
H198 H 0.07317 0.09781 0.9164 0.0
H199 H 0.07113 0.16584 0.95371 0.0
C200 C 0.01689 0.2216 0.90528 0.0
N201 N 0.02838 0.2213 0.91187 0.0
C202 C 0.01388 0.2577 0.89646 0.0
C203 C 0.03437 0.29314 0.90168 0.0
C204 C 0.03688 0.25692 0.91054 0.0
C205 C 0.0229 0.29317 0.8943 0.0
H206 H 0.01026 0.19303 0.90648 0.0
H207 H 0.04595 0.25598 0.91582 0.0
C208 C 0.05518 0.04485 0.9409 0.0
N209 N 0.07644 0.99797 0.95056 0.0
C210 C 0.06232 0.01605 0.93246 0.0
C211 C 0.05877 0.0495 0.95427 0.0
C212 C 0.07305 0.9927 0.93754 0.0
C213 C 0.06958 0.0256 0.95896 0.0
C214 C 0.01231 0.08911 0.91794 0.0
C215 C 0.0048 0.05773 0.92517 0.0
C216 C 0.01115 0.09109 0.90405 0.0
C217 C 0.99636 0.02835 0.91836 0.0
C218 C 0.00262 0.06105 0.89761 0.0
N219 N 0.99547 0.03054 0.90484 0.0
C220 C 0.01585 0.1166 0.9658 0.0
C221 C 0.02304 0.04313 0.95828 0.0
C222 C 0.01 0.09609 0.97696 0.0
N223 N 0.02233 0.0899 0.95682 0.0
C224 C 0.01733 0.02133 0.96919 0.0
C225 C 0.0108 0.0479 0.97872 0.0
H226 H 0.0154 0.1537 0.9644 0.0
H227 H 0.02811 0.02261 0.95094 0.0
C228 C 0.0396 0.02988 0.89511 0.0
N229 N 0.03572 0.03087 0.90806 0.0
C230 C 0.03855 0.98908 0.88774 0.0
C231 C 0.02969 0.95117 0.90725 0.0
C232 C 0.03089 0.99268 0.91422 0.0
C233 C 0.03358 0.94932 0.89389 0.0
H234 H 0.04365 0.06049 0.89057 0.0
H235 H 0.02806 0.99451 0.92459 0.0
O236 O 0.0401 0.17438 0.94037 0.0
O237 O 0.04869 0.13355 0.91235 0.0
O238 O 0.04491 0.06922 0.93602 0.0
O239 O 0.02094 0.1171 0.92439 0.0
H240 H 0.05254 0.25413 0.93803 0.0
H241 H 0.04188 0.14602 0.96546 0.0
H242 H 0.06345 0.29514 0.95659 0.0
H243 H 0.05287 0.1891 0.98356 0.0
H244 H 0.04472 0.19156 0.87037 0.0
H245 H 0.06795 0.19404 0.91333 0.0
H246 H 0.03755 0.13962 0.8886 0.0
H247 H 0.0745 0.24526 0.8947 0.0
H248 H 0.09481 0.1653 0.95567 0.0
H249 H 0.0969 0.09439 0.91785 0.0
H250 H 0.00488 0.25696 0.89096 0.0
H251 H 0.04149 0.32018 0.9003 0.0
H252 H 0.05969 0.01227 0.92207 0.0
H253 H 0.05334 0.07168 0.96092 0.0
H254 H 0.07873 0.97054 0.93111 0.0
H255 H 0.07253 0.02911 0.96926 0.0
H256 H 0.00554 0.05585 0.93592 0.0
H257 H 0.01694 0.11497 0.8983 0.0
H258 H 0.99054 0.00371 0.92383 0.0
H259 H 0.00172 0.06185 0.88686 0.0
H260 H 0.00501 0.11747 0.98419 0.0
H261 H 0.01809 0.98411 0.97026 0.0
H262 H 0.0417 0.98828 0.87744 0.0
H263 H 0.02588 0.92079 0.91221 0.0
Li264 Li 0.21565 0.16566 0.91744 0.0
Li265 Li 0.22042 0.13761 0.94036 0.0
Li266 Li 0.21603 0.08286 0.92048 0.0
Li267 Li 0.19841 0.12565 0.93071 0.0
C268 C 0.24126 0.14653 0.91745 0.0
N269 N 0.26237 0.18692 0.90521 0.0
C270 C 0.2509 0.16747 0.92511 0.0
C271 C 0.24256 0.14508 0.90358 0.0
C272 C 0.26145 0.18796 0.91874 0.0
C273 C 0.25323 0.16599 0.89756 0.0
C274 C 0.20377 0.22392 0.94012 0.0
C275 C 0.19891 0.27053 0.95946 0.0
N276 N 0.19554 0.30625 0.95133 0.0
C277 C 0.20015 0.261 0.93196 0.0
C278 C 0.20304 0.22859 0.95399 0.0
C279 C 0.19606 0.30236 0.93782 0.0
C280 C 0.21188 0.22397 0.8952 0.0
N281 N 0.21897 0.21739 0.90645 0.0
C282 C 0.22941 0.29043 0.90363 0.0
C283 C 0.22761 0.24952 0.91077 0.0
C284 C 0.22212 0.29808 0.89208 0.0
C285 C 0.21338 0.26433 0.88775 0.0
H286 H 0.20474 0.19869 0.89228 0.0
H287 H 0.2328 0.24395 0.91999 0.0
C288 C 0.22986 0.13443 0.96772 0.0
N289 N 0.22938 0.15798 0.95596 0.0
C290 C 0.2351 0.15556 0.97909 0.0
C291 C 0.23939 0.22408 0.96596 0.0
C292 C 0.23407 0.20184 0.95492 0.0
C293 C 0.2398 0.20111 0.97825 0.0
H294 H 0.22583 0.09996 0.96836 0.0
H295 H 0.23327 0.22013 0.94554 0.0
C296 C 0.19918 0.09846 0.89991 0.0
N297 N 0.19248 0.05305 0.8766 0.0
C298 C 0.1878 0.07257 0.89925 0.0
C299 C 0.20703 0.10173 0.88861 0.0
C300 C 0.18463 0.04961 0.88743 0.0
C301 C 0.20349 0.07859 0.87694 0.0
C302 C 0.20191 0.05839 0.94874 0.0
C303 C 0.19806 0.01233 0.94718 0.0
C304 C 0.19738 0.08401 0.9596 0.0
C305 C 0.1896 0.99281 0.95646 0.0
C306 C 0.18891 0.06327 0.96865 0.0
N307 N 0.18522 0.01849 0.9669 0.0
C308 C 0.23154 0.02084 0.90497 0.0
C309 C 0.21014 0.99577 0.90919 0.0
C310 C 0.23346 0.98418 0.89604 0.0
N311 N 0.21992 0.02647 0.91111 0.0
C312 C 0.21159 0.95902 0.90024 0.0
C313 C 0.22327 0.95361 0.89336 0.0
H314 H 0.23915 0.04576 0.9066 0.0
H315 H 0.20097 0.00122 0.9141 0.0
C316 C 0.17408 0.16509 0.93798 0.0
N317 N 0.18024 0.12498 0.93478 0.0
C318 C 0.1607 0.16589 0.93959 0.0
C319 C 0.16017 0.08394 0.9348 0.0
C320 C 0.17359 0.0846 0.93346 0.0
C321 C 0.1536 0.12517 0.93767 0.0
H322 H 0.17941 0.1969 0.93887 0.0
H323 H 0.17865 0.05315 0.93087 0.0
O324 O 0.23074 0.12696 0.92353 0.0
O325 O 0.20793 0.18327 0.93454 0.0
O326 O 0.20247 0.12109 0.91145 0.0
O327 O 0.21 0.07839 0.93964 0.0
H328 H 0.25034 0.16759 0.93586 0.0
H329 H 0.23541 0.12806 0.89751 0.0
H330 H 0.26893 0.20453 0.92456 0.0
H331 H 0.25427 0.16549 0.88682 0.0
H332 H 0.19837 0.27467 0.97017 0.0
H333 H 0.20039 0.25786 0.92122 0.0
H334 H 0.20566 0.20026 0.96049 0.0
H335 H 0.19326 0.33133 0.93161 0.0
H336 H 0.23613 0.3163 0.90723 0.0
H337 H 0.20753 0.26983 0.87893 0.0
H338 H 0.23524 0.13708 0.9885 0.0
H339 H 0.24287 0.25929 0.96501 0.0
H340 H 0.18148 0.07002 0.90776 0.0
H341 H 0.21571 0.1223 0.88877 0.0
H342 H 0.1759 0.02916 0.88685 0.0
H343 H 0.2095 0.08095 0.86813 0.0
H344 H 0.20154 0.99195 0.93887 0.0
H345 H 0.20027 0.11966 0.96094 0.0
H346 H 0.18649 0.95727 0.95535 0.0
H347 H 0.18526 0.0828 0.97705 0.0
H348 H 0.24259 0.98077 0.89088 0.0
H349 H 0.20356 0.93591 0.89839 0.0
H350 H 0.15588 0.1983 0.94178 0.0
H351 H 0.15493 0.05195 0.93323 0.0
Li352 Li 0.96482 0.92113 0.67186 0.0
Li353 Li 0.96979 0.86731 0.69059 0.0
Li354 Li 0.96427 0.83867 0.66913 0.0
Li355 Li 0.94791 0.87443 0.68222 0.0
C356 C 0.98778 0.86385 0.66383 0.0
N357 N 0.00378 0.83367 0.64356 0.0
C358 C 0.99779 0.83288 0.66658 0.0
C359 C 0.98594 0.87968 0.65079 0.0
C360 C 0.00576 0.81795 0.65619 0.0
C361 C 0.99413 0.864 0.64068 0.0
C362 C 0.96428 0.95989 0.69734 0.0
C363 C 0.96326 0.02714 0.71157 0.0
N364 N 0.97625 0.03243 0.71037 0.0
C365 C 0.97763 0.96597 0.69625 0.0
C366 C 0.95703 0.99068 0.70505 0.0
C367 C 0.98349 0.00286 0.70292 0.0
C368 C 0.95726 0.99833 0.65709 0.0
N369 N 0.96783 0.97833 0.66269 0.0
C370 C 0.98165 0.03362 0.65205 0.0
C371 C 0.97989 0.99552 0.66052 0.0
C372 C 0.97091 0.05372 0.64578 0.0
C373 C 0.95859 0.03621 0.64853 0.0
H374 H 0.94781 0.98382 0.65894 0.0
H375 H 0.98815 0.97863 0.66498 0.0
C376 C 0.98616 0.80938 0.70435 0.0
N377 N 0.97946 0.84946 0.70603 0.0
C378 C 0.99144 0.78638 0.7153 0.0
C379 C 0.98295 0.84646 0.72962 0.0
C380 C 0.97788 0.86858 0.71833 0.0
C381 C 0.98963 0.80443 0.72813 0.0
H382 H 0.98672 0.7938 0.69456 0.0
H383 H 0.97207 0.89942 0.7195 0.0
C384 C 0.94166 0.86383 0.6557 0.0
N385 N 0.92183 0.82402 0.64126 0.0
C386 C 0.93776 0.81843 0.6584 0.0
C387 C 0.93548 0.88891 0.64563 0.0
C388 C 0.92772 0.79893 0.65099 0.0
C389 C 0.92547 0.86819 0.63845 0.0
C390 C 0.95325 0.79779 0.69795 0.0
C391 C 0.95319 0.74969 0.69944 0.0
C392 C 0.94904 0.82586 0.70845 0.0
C393 C 0.94888 0.73041 0.71143 0.0
C394 C 0.94482 0.80525 0.72028 0.0
N395 N 0.94482 0.75836 0.72151 0.0
C396 C 0.97184 0.74878 0.66313 0.0
C397 C 0.96575 0.79242 0.64405 0.0
C398 C 0.97354 0.70927 0.65535 0.0
N399 N 0.96778 0.7889 0.65742 0.0
C400 C 0.96734 0.75373 0.63589 0.0
C401 C 0.97105 0.71155 0.64164 0.0
H402 H 0.97345 0.74733 0.67378 0.0
H403 H 0.9626 0.82492 0.6398 0.0
C404 C 0.92342 0.91469 0.68609 0.0
N405 N 0.92988 0.8737 0.68616 0.0
C406 C 0.91 0.91544 0.68745 0.0
C407 C 0.91019 0.83193 0.68927 0.0
C408 C 0.92357 0.83274 0.68777 0.0
C409 C 0.9033 0.87359 0.68893 0.0
H410 H 0.92867 0.94663 0.68458 0.0
H411 H 0.92883 0.80049 0.68743 0.0
O412 O 0.97962 0.87789 0.67378 0.0
O413 O 0.95823 0.9242 0.69091 0.0
O414 O 0.95136 0.88406 0.66292 0.0
O415 O 0.95762 0.81699 0.6863 0.0
H416 H 0.99941 0.82045 0.67661 0.0
H417 H 0.97812 0.90308 0.64843 0.0
H418 H 0.01352 0.79385 0.65816 0.0
H419 H 0.99276 0.87571 0.63052 0.0
H420 H 0.95777 0.05123 0.71757 0.0
H421 H 0.98344 0.94252 0.69039 0.0
H422 H 0.94669 0.98642 0.70598 0.0
H423 H 0.99381 0.00797 0.70217 0.0
H424 H 0.99129 0.04642 0.6501 0.0
H425 H 0.95012 0.05106 0.64385 0.0
H426 H 0.99642 0.75379 0.71384 0.0
H427 H 0.98129 0.86097 0.73944 0.0
H428 H 0.9424 0.79836 0.66613 0.0
H429 H 0.93838 0.92406 0.64339 0.0
H430 H 0.92461 0.76385 0.65299 0.0
H431 H 0.9206 0.88725 0.63065 0.0
H432 H 0.95645 0.72747 0.69142 0.0
H433 H 0.94904 0.86314 0.70753 0.0
H434 H 0.9488 0.69323 0.71272 0.0
H435 H 0.94156 0.82655 0.72849 0.0
H436 H 0.97639 0.677 0.66001 0.0
H437 H 0.96534 0.75623 0.62531 0.0
H438 H 0.90486 0.94808 0.68705 0.0
H439 H 0.90522 0.79912 0.69025 0.0
Li440 Li 0.803 0.87468 0.68333 0.0
Li441 Li 0.78733 0.91541 0.66971 0.0
Li442 Li 0.78051 0.88454 0.69113 0.0
Li443 Li 0.78449 0.833 0.67194 0.0
C444 C 0.79833 0.95111 0.6992 0.0
N445 N 0.80655 0.98867 0.72308 0.0
C446 C 0.79927 0.9991 0.70067 0.0
C447 C 0.80157 0.92222 0.70987 0.0
C448 C 0.80346 0.01742 0.71282 0.0
C449 C 0.8057 0.94187 0.72187 0.0
C450 C 0.80301 0.88433 0.65204 0.0
C451 C 0.79882 0.89741 0.62868 0.0
N452 N 0.80968 0.92372 0.62789 0.0
C453 C 0.81416 0.91127 0.651 0.0
C454 C 0.79529 0.87714 0.6408 0.0
C455 C 0.81735 0.93097 0.6387 0.0
C456 C 0.82699 0.83114 0.68878 0.0
N457 N 0.82087 0.87253 0.68741 0.0
C458 C 0.8409 0.91326 0.68881 0.0
C459 C 0.8275 0.91319 0.68751 0.0
C460 C 0.84747 0.87107 0.68983 0.0
C461 C 0.84043 0.8296 0.68999 0.0
H462 H 0.82148 0.79937 0.68844 0.0
H463 H 0.82243 0.9455 0.68605 0.0
C464 C 0.77657 0.97129 0.64908 0.0
N465 N 0.78596 0.96763 0.65849 0.0
C466 C 0.77597 0.01046 0.64095 0.0
C467 C 0.79455 0.04139 0.65255 0.0
C468 C 0.79485 0.00157 0.66038 0.0
C469 C 0.78504 0.04591 0.64272 0.0
H470 H 0.76962 0.9438 0.64785 0.0
H471 H 0.80222 0.99745 0.66793 0.0
C472 C 0.78683 0.79519 0.7 0.0
N473 N 0.77802 0.73245 0.7187 0.0
C474 C 0.77481 0.77405 0.69837 0.0
C475 C 0.79441 0.78428 0.71109 0.0
C476 C 0.77052 0.74245 0.70794 0.0
C477 C 0.78977 0.75253 0.72045 0.0
C478 C 0.75965 0.86283 0.67041 0.0
C479 C 0.75083 0.85002 0.68029 0.0
C480 C 0.7566 0.8557 0.65698 0.0
C481 C 0.73912 0.82984 0.67656 0.0
C482 C 0.74479 0.83543 0.65366 0.0
N483 N 0.73637 0.823 0.66343 0.0
C484 C 0.76767 0.95039 0.70532 0.0
C485 C 0.7673 0.87978 0.71735 0.0
C486 C 0.76192 0.97378 0.71593 0.0
N487 N 0.77052 0.90454 0.70628 0.0
C488 C 0.76109 0.90164 0.72809 0.0
C489 C 0.75859 0.94951 0.72754 0.0
H490 H 0.77029 0.96925 0.6964 0.0
H491 H 0.76972 0.84351 0.71801 0.0
C492 C 0.79112 0.76327 0.65406 0.0
N493 N 0.78104 0.77686 0.66185 0.0
C494 C 0.7899 0.72576 0.64537 0.0
C495 C 0.76806 0.71497 0.65316 0.0
C496 C 0.76969 0.75297 0.66172 0.0
C497 C 0.77823 0.70151 0.64477 0.0
H498 H 0.80013 0.78204 0.65444 0.0
H499 H 0.7618 0.7636 0.66805 0.0
O500 O 0.79396 0.93277 0.68744 0.0
O501 O 0.79947 0.86607 0.66409 0.0
O502 O 0.79122 0.8262 0.69075 0.0
O503 O 0.77109 0.88315 0.67386 0.0
H504 H 0.79672 0.02196 0.69252 0.0
H505 H 0.80084 0.88508 0.70894 0.0
H506 H 0.80421 0.05451 0.71411 0.0
H507 H 0.80821 0.91991 0.73022 0.0
H508 H 0.7929 0.89239 0.61991 0.0
H509 H 0.8202 0.91733 0.65962 0.0
H510 H 0.78658 0.85658 0.64146 0.0
H511 H 0.82591 0.95216 0.63776 0.0
H512 H 0.84612 0.94572 0.68851 0.0
H513 H 0.84532 0.79652 0.69067 0.0
H514 H 0.76855 0.01315 0.63337 0.0
H515 H 0.8017 0.06826 0.65407 0.0
H516 H 0.76883 0.7823 0.68989 0.0
H517 H 0.80378 0.80011 0.71244 0.0
H518 H 0.7612 0.72597 0.70683 0.0
H519 H 0.79552 0.74381 0.7291 0.0
H520 H 0.753 0.8555 0.69072 0.0
H521 H 0.76336 0.86502 0.6492 0.0
H522 H 0.73222 0.81961 0.6841 0.0
H523 H 0.74235 0.82939 0.64331 0.0
H524 H 0.76015 0.01064 0.71512 0.0
H525 H 0.7586 0.88178 0.73689 0.0
H526 H 0.79796 0.71595 0.63909 0.0
H527 H 0.75895 0.69665 0.65297 0.0
Li528 Li 0.94803 0.87707 0.07131 0.0
Li529 Li 0.96486 0.91787 0.0842 0.0
Li530 Li 0.96987 0.88832 0.06232 0.0
Li531 Li 0.96608 0.83609 0.08144 0.0
C532 C 0.95244 0.95656 0.05584 0.0
N533 N 0.94387 0.9988 0.03275 0.0
C534 C 0.95258 0.00478 0.05475 0.0
C535 C 0.94796 0.92977 0.04518 0.0
C536 C 0.9482 0.02549 0.043 0.0
C537 C 0.94366 0.9518 0.0336 0.0
C538 C 0.94753 0.84461 0.1004 0.0
C539 C 0.94845 0.81536 0.12293 0.0
N540 N 0.93784 0.78901 0.1205 0.0
C541 C 0.93657 0.81747 0.09817 0.0
C542 C 0.95352 0.84354 0.1129 0.0
C543 C 0.93186 0.78944 0.10843 0.0
C544 C 0.92375 0.84048 0.06275 0.0
N545 N 0.93008 0.87813 0.0676 0.0
C546 C 0.91035 0.92043 0.06941 0.0
C547 C 0.92372 0.91778 0.0708 0.0
C548 C 0.90353 0.88165 0.06487 0.0
C549 C 0.91032 0.84141 0.06137 0.0
H550 H 0.92908 0.80935 0.06038 0.0
H551 H 0.92903 0.94701 0.07471 0.0
C552 C 0.97462 0.00559 0.09035 0.0
N553 N 0.9674 0.97007 0.09519 0.0
C554 C 0.97616 0.04593 0.09782 0.0
C555 C 0.96274 0.01224 0.11506 0.0
C556 C 0.96147 0.97256 0.10726 0.0
C557 C 0.97006 0.04942 0.11025 0.0
H558 H 0.97903 0.00274 0.0806 0.0
H559 H 0.95556 0.9442 0.1107 0.0
C560 C 0.96538 0.79526 0.05584 0.0
N561 N 0.97803 0.72612 0.04198 0.0
C562 C 0.97844 0.78648 0.05827 0.0
C563 C 0.95875 0.76886 0.04637 0.0
C564 C 0.98465 0.75136 0.05116 0.0
C565 C 0.96532 0.73407 0.03946 0.0
C566 C 0.98974 0.90287 0.08605 0.0
C567 C 0.99966 0.92679 0.0796 0.0
C568 C 0.98942 0.90156 0.09999 0.0
C569 C 0.00892 0.95003 0.0872 0.0
C570 C 0.99883 0.92532 0.10725 0.0
N571 N 0.0083 0.94892 0.10076 0.0
C572 C 0.98371 0.95136 0.04766 0.0
C573 C 0.97926 0.88436 0.03479 0.0
C574 C 0.98917 0.97341 0.03666 0.0
N575 N 0.97889 0.90771 0.04658 0.0
C576 C 0.98467 0.90524 0.02346 0.0
C577 C 0.98959 0.95045 0.02438 0.0
H578 H 0.98291 0.96966 0.05704 0.0
H579 H 0.97502 0.85027 0.03403 0.0
C580 C 0.96128 0.74568 0.09128 0.0
N581 N 0.97035 0.77967 0.09068 0.0
C582 C 0.96289 0.70813 0.09993 0.0
C583 C 0.98365 0.7391 0.10635 0.0
C584 C 0.98156 0.77643 0.09771 0.0
C585 C 0.97405 0.70524 0.1078 0.0
H586 H 0.95251 0.74887 0.08551 0.0
H587 H 0.98868 0.8036 0.09698 0.0
O588 O 0.9571 0.93579 0.06711 0.0
O589 O 0.95222 0.87265 0.0905 0.0
O590 O 0.95901 0.82948 0.0626 0.0
O591 O 0.98043 0.88066 0.07877 0.0
H592 H 0.95613 0.02592 0.06288 0.0
H593 H 0.94793 0.89237 0.04578 0.0
H594 H 0.94827 0.06278 0.04201 0.0
H595 H 0.94021 0.93152 0.02525 0.0
H596 H 0.95295 0.81446 0.13267 0.0
H597 H 0.93181 0.81766 0.0886 0.0
H598 H 0.96198 0.86431 0.11487 0.0
H599 H 0.92343 0.76807 0.10679 0.0
H600 H 0.90532 0.95183 0.07223 0.0
H601 H 0.90526 0.81093 0.05788 0.0
H602 H 0.9818 0.07438 0.09388 0.0
H603 H 0.95786 0.01438 0.1246 0.0
H604 H 0.98375 0.80641 0.06554 0.0
H605 H 0.94864 0.77529 0.04437 0.0
H606 H 0.99475 0.74418 0.05293 0.0
H607 H 0.96032 0.71341 0.0321 0.0
H608 H 0.00026 0.92726 0.06883 0.0
H609 H 0.98188 0.88296 0.10514 0.0
H610 H 0.0166 0.96889 0.08233 0.0
H611 H 0.9986 0.92506 0.11804 0.0
H612 H 0.9928 0.00842 0.03764 0.0
H613 H 0.9848 0.88682 0.01405 0.0
H614 H 0.95535 0.68235 0.10078 0.0
H615 H 0.9924 0.73762 0.11224 0.0
Li616 Li 0.78144 0.86622 0.06055 0.0
Li617 Li 0.78315 0.92156 0.07856 0.0
Li618 Li 0.80296 0.88036 0.06855 0.0
Li619 Li 0.78604 0.83715 0.08223 0.0
C620 C 0.78631 0.9465 0.04907 0.0
N621 N 0.77632 0.98449 0.02601 0.0
C622 C 0.77339 0.96017 0.04859 0.0
C623 C 0.79421 0.95256 0.03791 0.0
C624 C 0.7685 0.97917 0.03681 0.0
C625 C 0.78896 0.97176 0.02632 0.0
C626 C 0.76127 0.87363 0.08668 0.0
C627 C 0.7563 0.87753 0.11017 0.0
N628 N 0.74352 0.88029 0.10718 0.0
C629 C 0.74808 0.87636 0.08384 0.0
C630 C 0.76541 0.87412 0.09994 0.0
C631 C 0.73926 0.87976 0.09434 0.0
C632 C 0.76056 0.82799 0.04609 0.0
N633 N 0.77248 0.84708 0.04458 0.0
C634 C 0.77285 0.82524 0.02153 0.0
C635 C 0.77859 0.84661 0.03255 0.0
C636 C 0.76073 0.80431 0.02294 0.0
C637 C 0.75444 0.80648 0.0353 0.0
H638 H 0.75604 0.82775 0.05581 0.0
H639 H 0.7882 0.86072 0.03166 0.0
C640 C 0.78938 0.0039 0.09128 0.0
N641 N 0.77895 0.97798 0.0878 0.0
C642 C 0.78806 0.04112 0.10007 0.0
C643 C 0.76514 0.0261 0.10105 0.0
C644 C 0.7669 0.98917 0.09217 0.0
C645 C 0.77587 0.05183 0.10529 0.0
H646 H 0.79886 0.99413 0.08773 0.0
H647 H 0.7587 0.96857 0.08919 0.0
C648 C 0.79419 0.7847 0.05661 0.0
N649 N 0.79354 0.71148 0.03888 0.0
C650 C 0.78613 0.74685 0.05902 0.0
C651 C 0.80186 0.78545 0.04513 0.0
C652 C 0.78597 0.71009 0.04996 0.0
C653 C 0.80137 0.74815 0.03628 0.0
C654 C 0.8044 0.891 0.09913 0.0
C655 C 0.81679 0.87195 0.0998 0.0
C656 C 0.79928 0.91339 0.11033 0.0
C657 C 0.8238 0.87525 0.11167 0.0
C658 C 0.8066 0.916 0.12201 0.0
N659 N 0.8186 0.89703 0.12243 0.0
C660 C 0.82723 0.92547 0.0669 0.0
C661 C 0.82759 0.84424 0.06334 0.0
C662 C 0.8407 0.92732 0.06616 0.0
N663 N 0.82101 0.88426 0.06558 0.0
C664 C 0.84101 0.84459 0.06237 0.0
C665 C 0.84767 0.88638 0.06397 0.0
H666 H 0.82175 0.95656 0.06893 0.0
H667 H 0.82244 0.81178 0.06278 0.0
C668 C 0.7726 0.76337 0.09438 0.0
N669 N 0.78402 0.78666 0.09417 0.0
C670 C 0.77116 0.72415 0.10236 0.0
C671 C 0.79319 0.73393 0.10986 0.0
C672 C 0.79424 0.7727 0.10166 0.0
C673 C 0.78158 0.7092 0.11014 0.0
H674 H 0.76473 0.77461 0.08808 0.0
H675 H 0.80329 0.79091 0.10101 0.0
O676 O 0.7912 0.92726 0.06044 0.0
O677 O 0.76998 0.87057 0.07645 0.0
O678 O 0.79488 0.82012 0.06565 0.0
O679 O 0.79753 0.88906 0.08746 0.0
H680 H 0.76718 0.95571 0.05719 0.0
H681 H 0.80424 0.94217 0.03818 0.0
H682 H 0.75849 0.98963 0.03624 0.0
H683 H 0.79492 0.97644 0.01757 0.0
H684 H 0.75939 0.87793 0.12048 0.0
H685 H 0.74471 0.87613 0.07362 0.0
H686 H 0.77552 0.87154 0.10233 0.0
H687 H 0.72904 0.88203 0.09229 0.0
H688 H 0.77797 0.82376 0.01212 0.0
H689 H 0.74511 0.79031 0.0367 0.0
H690 H 0.79652 0.06034 0.10316 0.0
H691 H 0.75559 0.03366 0.10488 0.0
H692 H 0.7801 0.74571 0.06781 0.0
H693 H 0.80807 0.81468 0.04304 0.0
H694 H 0.7798 0.6805 0.05173 0.0
H695 H 0.80723 0.74832 0.02735 0.0
H696 H 0.82092 0.85433 0.0913 0.0
H697 H 0.78978 0.92887 0.11003 0.0
H698 H 0.83337 0.86048 0.11232 0.0
H699 H 0.80274 0.93325 0.13072 0.0
H700 H 0.84565 0.95999 0.06756 0.0
H701 H 0.84618 0.81241 0.06085 0.0
H702 H 0.76213 0.70527 0.10233 0.0
H703 H 0.80142 0.72265 0.11568 0.0
Li704 Li 0.02855 0.63263 0.81068 0.0
Li705 Li 0.03379 0.65774 0.83268 0.0
Li706 Li 0.04997 0.61653 0.81983 0.0
Li707 Li 0.03101 0.5743 0.83016 0.0
C708 C 0.04244 0.71095 0.80671 0.0
N709 N 0.04377 0.78223 0.78837 0.0
C710 C 0.03464 0.75011 0.80819 0.0
C711 C 0.05078 0.7078 0.79578 0.0
C712 C 0.03553 0.78592 0.79888 0.0
C713 C 0.05129 0.74414 0.7866 0.0
C714 C 0.00835 0.64527 0.83463 0.0
C715 C 0.99265 0.64371 0.8524 0.0
N716 N 0.98943 0.68832 0.84959 0.0
C717 C 0.00484 0.69104 0.83189 0.0
C718 C 0.00219 0.62134 0.84494 0.0
C719 C 0.99527 0.71223 0.83959 0.0
C720 C 0.00733 0.66854 0.79564 0.0
N721 N 0.01949 0.65099 0.79464 0.0
C722 C 0.02067 0.6745 0.77174 0.0
C723 C 0.02602 0.65233 0.78286 0.0
C724 C 0.00847 0.69515 0.77276 0.0
C725 C 0.00161 0.69104 0.78477 0.0
H726 H 0.00223 0.66671 0.80501 0.0
H727 H 0.03565 0.63832 0.78226 0.0
C728 C 0.04014 0.74504 0.84255 0.0
N729 N 0.0326 0.70764 0.84523 0.0
C730 C 0.04001 0.78335 0.85097 0.0
C731 C 0.02481 0.7433 0.8652 0.0
C732 C 0.02528 0.70561 0.8565 0.0
C733 C 0.03217 0.78271 0.86232 0.0
H734 H 0.04636 0.74499 0.83391 0.0
H735 H 0.01988 0.67469 0.85881 0.0
C736 C 0.04577 0.54108 0.80462 0.0
N737 N 0.06235 0.48087 0.79177 0.0
C738 C 0.04681 0.49516 0.8089 0.0
C739 C 0.05308 0.55629 0.79376 0.0
C740 C 0.05526 0.46526 0.80227 0.0
C741 C 0.06144 0.52535 0.78742 0.0
C742 C 0.04927 0.62257 0.85086 0.0
C743 C 0.05987 0.65224 0.85187 0.0
C744 C 0.04242 0.6102 0.86233 0.0
C745 C 0.06341 0.66936 0.86438 0.0
C746 C 0.04628 0.62799 0.87466 0.0
N747 N 0.0566 0.65699 0.87542 0.0
C748 C 0.07482 0.65256 0.81545 0.0
C749 C 0.07442 0.57111 0.81843 0.0
C750 C 0.08826 0.65223 0.81472 0.0
N751 N 0.06818 0.61236 0.81715 0.0
C752 C 0.08787 0.56913 0.81766 0.0
C753 C 0.09487 0.61016 0.81588 0.0
H754 H 0.06971 0.68514 0.81516 0.0
H755 H 0.06899 0.53993 0.82041 0.0
C756 C 0.01493 0.49777 0.83951 0.0
N757 N 0.02681 0.51797 0.83935 0.0
C758 C 0.01261 0.45913 0.84766 0.0
C759 C 0.0348 0.46241 0.85502 0.0
C760 C 0.03671 0.50051 0.84671 0.0
C761 C 0.02261 0.4417 0.85569 0.0
H762 H 0.00722 0.51222 0.83355 0.0
H763 H 0.04608 0.51692 0.84633 0.0
O764 O 0.04223 0.67662 0.81614 0.0
O765 O 0.01767 0.62379 0.82719 0.0
O766 O 0.0376 0.57085 0.81104 0.0
O767 O 0.04541 0.60665 0.83865 0.0
H768 H 0.02809 0.75316 0.81654 0.0
H769 H 0.05678 0.67754 0.79437 0.0
H770 H 0.02962 0.81658 0.79997 0.0
H771 H 0.0577 0.74214 0.7781 0.0
H772 H 0.98784 0.62566 0.86044 0.0
H773 H 0.00956 0.71021 0.82402 0.0
H774 H 0.00482 0.58603 0.84726 0.0
H775 H 0.99253 0.74773 0.83763 0.0
H776 H 0.02621 0.67709 0.7626 0.0
H777 H 0.99215 0.7065 0.78585 0.0
H778 H 0.04595 0.81315 0.84868 0.0
H779 H 0.01886 0.74173 0.87407 0.0
H780 H 0.04117 0.48275 0.81724 0.0
H781 H 0.0525 0.59179 0.79041 0.0
H782 H 0.05619 0.42967 0.80549 0.0
H783 H 0.06725 0.53676 0.77907 0.0
H784 H 0.06521 0.66241 0.84306 0.0
H785 H 0.03409 0.58771 0.8617 0.0
H786 H 0.07154 0.69261 0.86531 0.0
H787 H 0.04103 0.61896 0.88362 0.0
H788 H 0.09347 0.6845 0.81358 0.0
H789 H 0.09278 0.53627 0.81882 0.0
H790 H 0.00311 0.4436 0.84792 0.0
H791 H 0.04273 0.4495 0.86101 0.0
Li792 Li 0.19535 0.62208 0.82073 0.0
Li793 Li 0.21424 0.67345 0.82887 0.0
Li794 Li 0.21642 0.61699 0.81022 0.0
Li795 Li 0.21418 0.59031 0.83228 0.0
C796 C 0.20685 0.68793 0.79852 0.0
N797 N 0.2119 0.71431 0.77256 0.0
C798 C 0.2177 0.71485 0.79563 0.0
C799 C 0.19854 0.67456 0.78825 0.0
C800 C 0.22009 0.72781 0.78243 0.0
C801 C 0.20127 0.68822 0.77517 0.0
C802 C 0.19937 0.62025 0.85179 0.0
C803 C 0.2061 0.61282 0.87473 0.0
N804 N 0.19563 0.5858 0.87723 0.0
C805 C 0.1886 0.59281 0.85462 0.0
C806 C 0.20813 0.63072 0.86195 0.0
C807 C 0.18691 0.57558 0.86753 0.0
C808 C 0.17126 0.57761 0.82068 0.0
N809 N 0.17727 0.61877 0.81849 0.0
C810 C 0.15711 0.65588 0.81411 0.0
C811 C 0.17054 0.65751 0.81516 0.0
C812 C 0.15068 0.61407 0.81659 0.0
C813 C 0.15784 0.57449 0.81982 0.0
H814 H 0.1769 0.54748 0.82335 0.0
H815 H 0.17562 0.68973 0.8135 0.0
C816 C 0.22866 0.7562 0.83627 0.0
N817 N 0.21752 0.73152 0.83751 0.0
C818 C 0.23088 0.79479 0.84446 0.0
C819 C 0.20999 0.78263 0.8546 0.0
C820 C 0.20816 0.74457 0.84625 0.0
C821 C 0.22152 0.80768 0.85389 0.0
H822 H 0.23599 0.74492 0.8293 0.0
H823 H 0.1994 0.72449 0.84704 0.0
C824 C 0.2093 0.52373 0.81244 0.0
N825 N 0.21782 0.43786 0.80407 0.0
C826 C 0.2223 0.51177 0.81367 0.0
C827 C 0.2006 0.49196 0.80698 0.0
C828 C 0.22643 0.46823 0.80937 0.0
C829 C 0.2051 0.44872 0.8028 0.0
C830 C 0.24005 0.62544 0.83149 0.0
C831 C 0.24983 0.59793 0.82604 0.0
C832 C 0.24235 0.6496 0.84335 0.0
C833 C 0.26166 0.59448 0.83266 0.0
C834 C 0.25431 0.64533 0.84965 0.0
N835 N 0.26363 0.61804 0.84423 0.0
C836 C 0.23659 0.60893 0.79043 0.0
C837 C 0.21641 0.57514 0.78508 0.0
C838 C 0.24225 0.5884 0.77919 0.0
N839 N 0.22396 0.60101 0.7933 0.0
C840 C 0.22172 0.55307 0.77399 0.0
C841 C 0.23485 0.55882 0.77109 0.0
H842 H 0.24239 0.62964 0.79713 0.0
H843 H 0.20636 0.56968 0.78753 0.0
C844 C 0.20849 0.50876 0.84522 0.0
N845 N 0.21801 0.54107 0.84444 0.0
C846 C 0.20986 0.47034 0.85347 0.0
C847 C 0.23081 0.499 0.86015 0.0
C848 C 0.22901 0.53706 0.85177 0.0
C849 C 0.22115 0.46524 0.86095 0.0
H850 H 0.19978 0.51295 0.8394 0.0
H851 H 0.23642 0.56302 0.8512 0.0
O852 O 0.20461 0.67352 0.81128 0.0
O853 O 0.20141 0.6362 0.83911 0.0
O854 O 0.20505 0.56646 0.81641 0.0
O855 O 0.22849 0.62986 0.82501 0.0
H856 H 0.22426 0.72515 0.8035 0.0
H857 H 0.19015 0.6534 0.79034 0.0
H858 H 0.22848 0.74845 0.78003 0.0
H859 H 0.19497 0.67793 0.7671 0.0
H860 H 0.21287 0.62037 0.88266 0.0
H861 H 0.18171 0.58445 0.8469 0.0
H862 H 0.21645 0.65216 0.85998 0.0
H863 H 0.17868 0.55397 0.86982 0.0
H864 H 0.15177 0.68696 0.81164 0.0
H865 H 0.15309 0.54183 0.82183 0.0
H866 H 0.23989 0.8136 0.8437 0.0
H867 H 0.20258 0.79188 0.86175 0.0
H868 H 0.22912 0.53586 0.81791 0.0
H869 H 0.1905 0.50075 0.80592 0.0
H870 H 0.23649 0.4586 0.81025 0.0
H871 H 0.19849 0.42383 0.79853 0.0
H872 H 0.24836 0.57949 0.81678 0.0
H873 H 0.23495 0.671 0.84775 0.0
H874 H 0.26928 0.57317 0.82858 0.0
H875 H 0.25617 0.66365 0.85887 0.0
H876 H 0.2524 0.59384 0.77716 0.0
H877 H 0.21571 0.53073 0.76792 0.0
H878 H 0.20223 0.44476 0.85398 0.0
H879 H 0.2396 0.49583 0.86593 0.0
Li880 Li 0.03425 0.66959 0.42068 0.0
Li881 Li 0.05233 0.62649 0.43043 0.0
Li882 Li 0.03479 0.58506 0.41734 0.0
Li883 Li 0.03097 0.61293 0.44013 0.0
C884 C 0.05101 0.65068 0.39937 0.0
N885 N 0.05789 0.69014 0.37525 0.0
C886 C 0.06205 0.67831 0.39844 0.0
C887 C 0.04369 0.64211 0.38792 0.0
C888 C 0.06531 0.69823 0.38619 0.0
C889 C 0.04726 0.66263 0.37585 0.0
C890 C 0.04919 0.69808 0.44736 0.0
C891 C 0.06399 0.70313 0.46588 0.0
N892 N 0.06633 0.74819 0.46278 0.0
C893 C 0.05162 0.7446 0.44446 0.0
C894 C 0.0553 0.67732 0.45825 0.0
C895 C 0.06036 0.7693 0.45234 0.0
C896 C 0.01825 0.73487 0.40633 0.0
N897 N 0.03022 0.72629 0.41136 0.0
C898 C 0.03888 0.79101 0.39941 0.0
C899 C 0.04035 0.75445 0.4084 0.0
C900 C 0.02683 0.79901 0.39355 0.0
C901 C 0.01632 0.77137 0.39734 0.0
H902 H 0.01028 0.7125 0.40891 0.0
H903 H 0.04975 0.74725 0.41258 0.0
C904 C 0.0765 0.58564 0.43548 0.0
N905 N 0.07055 0.62706 0.43348 0.0
C906 C 0.0899 0.5833 0.43671 0.0
C907 C 0.09089 0.66625 0.43362 0.0
C908 C 0.07744 0.66707 0.43265 0.0
C909 C 0.09723 0.62387 0.43555 0.0
H910 H 0.07088 0.55418 0.43575 0.0
H911 H 0.07254 0.69946 0.4308 0.0
C912 C 0.00885 0.61351 0.41722 0.0
N913 N 0.98631 0.59246 0.40377 0.0
C914 C 0.99801 0.59819 0.42424 0.0
C915 C 0.00813 0.61889 0.40339 0.0
C916 C 0.98672 0.58752 0.41726 0.0
C917 C 0.99668 0.60788 0.39676 0.0
C918 C 0.04386 0.53052 0.44277 0.0
C919 C 0.03698 0.49004 0.43997 0.0
C920 C 0.05096 0.5336 0.4546 0.0
C921 C 0.03717 0.45359 0.44913 0.0
C922 C 0.05097 0.49631 0.46347 0.0
N923 N 0.04411 0.45744 0.46059 0.0
C924 C 0.04133 0.52325 0.39711 0.0
C925 C 0.02068 0.50937 0.40656 0.0
C926 C 0.04025 0.48383 0.38918 0.0
N927 N 0.03165 0.53505 0.40561 0.0
C928 C 0.0192 0.46955 0.39882 0.0
C929 C 0.02916 0.45636 0.39017 0.0
H930 H 0.05005 0.54378 0.3968 0.0
H931 H 0.01331 0.51865 0.4137 0.0
C932 C 0.02452 0.61091 0.46828 0.0
N933 N 0.02213 0.59288 0.45598 0.0
C934 C 0.01942 0.58962 0.4797 0.0
C935 C 0.00925 0.53258 0.46554 0.0
C936 C 0.01454 0.55481 0.45445 0.0
C937 C 0.01185 0.5496 0.47834 0.0
H938 H 0.03072 0.6408 0.46928 0.0
H939 H 0.01306 0.54044 0.44461 0.0
O940 O 0.04754 0.63154 0.41137 0.0
O941 O 0.04078 0.6732 0.43966 0.0
O942 O 0.02006 0.62338 0.42389 0.0
O943 O 0.0438 0.5666 0.4339 0.0
H944 H 0.06794 0.68492 0.40711 0.0
H945 H 0.03542 0.61946 0.38828 0.0
H946 H 0.07373 0.72016 0.38539 0.0
H947 H 0.04161 0.65653 0.36695 0.0
H948 H 0.06887 0.68733 0.47427 0.0
H949 H 0.04678 0.76155 0.43626 0.0
H950 H 0.05341 0.64162 0.46075 0.0
H951 H 0.06237 0.80526 0.45016 0.0
H952 H 0.04716 0.81195 0.39673 0.0
H953 H 0.00686 0.77696 0.39302 0.0
H954 H 0.09454 0.55004 0.4381 0.0
H955 H 0.09631 0.69811 0.4326 0.0
H956 H 0.99823 0.59494 0.43498 0.0
H957 H 0.01629 0.63177 0.39785 0.0
H958 H 0.97828 0.57545 0.42257 0.0
H959 H 0.99604 0.61173 0.38604 0.0
H960 H 0.03149 0.48683 0.43088 0.0
H961 H 0.0565 0.56425 0.45687 0.0
H962 H 0.03182 0.42221 0.44712 0.0
H963 H 0.05641 0.4983 0.47266 0.0
H964 H 0.04811 0.47406 0.38263 0.0
H965 H 0.0106 0.44855 0.39985 0.0
H966 H 0.02162 0.60344 0.48948 0.0
H967 H 0.00351 0.50159 0.46419 0.0
Li968 Li 0.21883 0.64093 0.44174 0.0
Li969 Li 0.2133 0.67038 0.4194 0.0
Li970 Li 0.19832 0.6221 0.4308 0.0
Li971 Li 0.2173 0.58829 0.42093 0.0
C972 C 0.19421 0.70676 0.44021 0.0
N973 N 0.17187 0.75207 0.44771 0.0
C974 C 0.18753 0.73409 0.431 0.0
C975 C 0.18961 0.70293 0.45327 0.0
C976 C 0.17624 0.75664 0.43498 0.0
C977 C 0.17827 0.72595 0.45685 0.0
C978 C 0.23861 0.67025 0.42009 0.0
C979 C 0.24969 0.70482 0.40139 0.0
N980 N 0.25558 0.73503 0.40983 0.0
C981 C 0.24488 0.70137 0.42858 0.0
C982 C 0.24115 0.67168 0.40639 0.0
C983 C 0.25339 0.73392 0.4232 0.0
C984 C 0.23413 0.63567 0.46637 0.0
N985 N 0.22713 0.66215 0.45777 0.0
C986 C 0.23077 0.72962 0.4711 0.0
C987 C 0.22541 0.70825 0.45995 0.0
C988 C 0.23795 0.70335 0.48017 0.0
C989 C 0.23964 0.65576 0.47778 0.0
H990 H 0.23536 0.59909 0.46442 0.0
H991 H 0.21995 0.7287 0.45291 0.0
C992 C 0.21337 0.7221 0.39548 0.0
N993 N 0.21515 0.72392 0.4089 0.0
C994 C 0.21443 0.76232 0.38787 0.0
C995 C 0.21927 0.80509 0.40805 0.0
C996 C 0.21812 0.76408 0.41526 0.0
C997 C 0.21731 0.80425 0.39423 0.0
H998 H 0.21109 0.68948 0.39075 0.0
H999 H 0.21948 0.76417 0.42597 0.0
C1000 C 0.20493 0.55549 0.45026 0.0
N1001 N 0.19381 0.51018 0.47168 0.0
C1002 C 0.20056 0.50991 0.44889 0.0
C1003 C 0.20368 0.57787 0.46256 0.0
C1004 C 0.19494 0.48766 0.45982 0.0
C1005 C 0.19803 0.55441 0.47326 0.0
C1006 C 0.19591 0.58806 0.40489 0.0
C1007 C 0.19195 0.54755 0.41132 0.0
C1008 C 0.19257 0.59527 0.39154 0.0
C1009 C 0.1847 0.51489 0.40429 0.0
C1010 C 0.1853 0.56178 0.38485 0.0
N1011 N 0.18154 0.52264 0.39131 0.0
C1012 C 0.17288 0.63773 0.42353 0.0
C1013 C 0.17395 0.595 0.44368 0.0
C1014 C 0.15945 0.63867 0.42414 0.0
N1015 N 0.17988 0.61631 0.43322 0.0
C1016 C 0.16049 0.59459 0.4446 0.0
C1017 C 0.15314 0.61688 0.43477 0.0
H1018 H 0.17778 0.65485 0.41538 0.0
H1019 H 0.17954 0.57867 0.45139 0.0
C1020 C 0.22223 0.49192 0.41505 0.0
N1021 N 0.22319 0.5363 0.41059 0.0
C1022 C 0.22366 0.45483 0.40615 0.0
C1023 C 0.22789 0.50971 0.38849 0.0
C1024 C 0.22612 0.54561 0.39763 0.0
C1025 C 0.22623 0.46373 0.39262 0.0
H1026 H 0.21968 0.48535 0.42533 0.0
H1027 H 0.22627 0.58099 0.39419 0.0
O1028 O 0.20509 0.68335 0.43641 0.0
O1029 O 0.22993 0.63903 0.42514 0.0
O1030 O 0.21064 0.57763 0.43971 0.0
O1031 O 0.20307 0.62056 0.41155 0.0
H1032 H 0.19089 0.73723 0.42082 0.0
H1033 H 0.19469 0.68215 0.46055 0.0
H1034 H 0.17091 0.77757 0.42792 0.0
H1035 H 0.17455 0.723 0.4669 0.0
H1036 H 0.2516 0.70667 0.39079 0.0
H1037 H 0.24321 0.70054 0.43921 0.0
H1038 H 0.23636 0.64821 0.39964 0.0
H1039 H 0.25825 0.75833 0.42967 0.0
H1040 H 0.22932 0.76638 0.47266 0.0
H1041 H 0.24514 0.63458 0.48465 0.0
H1042 H 0.21289 0.76093 0.37718 0.0
H1043 H 0.22151 0.83714 0.41316 0.0
H1044 H 0.20145 0.49181 0.43949 0.0
H1045 H 0.20688 0.6131 0.46383 0.0
H1046 H 0.19149 0.45247 0.45888 0.0
H1047 H 0.19697 0.57144 0.48281 0.0
H1048 H 0.19443 0.54142 0.42162 0.0
H1049 H 0.19555 0.62641 0.3864 0.0
H1050 H 0.18158 0.4834 0.40916 0.0
H1051 H 0.18266 0.56691 0.37452 0.0
H1052 H 0.15403 0.65621 0.4164 0.0
H1053 H 0.15585 0.57746 0.45293 0.0
H1054 H 0.22226 0.41971 0.40965 0.0
H1055 H 0.22976 0.51779 0.37811 0.0
Li1056 Li 0.9692 0.37391 0.19208 0.0
Li1057 Li 0.96566 0.42359 0.17273 0.0
Li1058 Li 0.94697 0.3802 0.18359 0.0
Li1059 Li 0.96415 0.34105 0.17047 0.0
C1060 C 0.96039 0.45606 0.20223 0.0
N1061 N 0.9653 0.50729 0.22493 0.0
C1062 C 0.97224 0.47848 0.20377 0.0
C1063 C 0.95099 0.45997 0.21216 0.0
C1064 C 0.97456 0.50411 0.21534 0.0
C1065 C 0.95367 0.486 0.22358 0.0
C1066 C 0.99049 0.40057 0.17218 0.0
C1067 C 0.00466 0.43358 0.15563 0.0
N1068 N 0.01246 0.44958 0.16552 0.0
C1069 C 0.99867 0.41716 0.18219 0.0
C1070 C 0.99352 0.40861 0.15879 0.0
C1071 C 0.00973 0.44191 0.17861 0.0
C1072 C 0.98767 0.32281 0.20537 0.0
N1073 N 0.97866 0.35605 0.2078 0.0
C1074 C 0.98125 0.34585 0.23137 0.0
C1075 C 0.97542 0.36808 0.22051 0.0
C1076 C 0.99026 0.3105 0.22907 0.0
C1077 C 0.99362 0.29946 0.21591 0.0
H1078 H 0.98978 0.3129 0.1952 0.0
H1079 H 0.96788 0.39304 0.22228 0.0
C1080 C 0.96082 0.48774 0.15252 0.0
N1081 N 0.96916 0.47958 0.16275 0.0
C1082 C 0.9626 0.52543 0.14403 0.0
C1083 C 0.98132 0.54729 0.15692 0.0
C1084 C 0.97918 0.50894 0.16522 0.0
C1085 C 0.97298 0.55545 0.14613 0.0
H1086 H 0.95275 0.46486 0.15088 0.0
H1087 H 0.9856 0.5024 0.17349 0.0
C1088 C 0.95422 0.29778 0.19875 0.0
N1089 N 0.94891 0.2439 0.22083 0.0
C1090 C 0.9581 0.25149 0.19908 0.0
C1091 C 0.94776 0.31686 0.20968 0.0
C1092 C 0.9553 0.22476 0.21033 0.0
C1093 C 0.94516 0.28903 0.22076 0.0
C1094 C 0.94769 0.3675 0.15262 0.0
C1095 C 0.93603 0.34332 0.15187 0.0
C1096 C 0.95571 0.36988 0.14142 0.0
C1097 C 0.93265 0.32148 0.13993 0.0
C1098 C 0.95198 0.34753 0.12967 0.0
N1099 N 0.94063 0.32397 0.12918 0.0
C1100 C 0.9225 0.42092 0.18776 0.0
C1101 C 0.92282 0.33875 0.18817 0.0
C1102 C 0.90907 0.42108 0.18906 0.0
N1103 N 0.92902 0.38011 0.18723 0.0
C1104 C 0.90942 0.33731 0.18953 0.0
C1105 C 0.90245 0.37883 0.1898 0.0
H1106 H 0.92771 0.45321 0.18681 0.0
H1107 H 0.92823 0.30685 0.18742 0.0
C1108 C 0.97755 0.28543 0.15168 0.0
N1109 N 0.96682 0.28919 0.15941 0.0
C1110 C 0.97912 0.24718 0.14333 0.0
C1111 C 0.95867 0.21738 0.15127 0.0
C1112 C 0.95751 0.25609 0.15946 0.0
C1113 C 0.96956 0.21292 0.1431 0.0
H1114 H 0.98482 0.31221 0.15194 0.0
H1115 H 0.94912 0.26015 0.16578 0.0
O1116 O 0.95793 0.43084 0.19099 0.0
O1117 O 0.97964 0.37618 0.17548 0.0
O1118 O 0.95659 0.32409 0.18768 0.0
O1119 O 0.95134 0.38809 0.16432 0.0
H1120 H 0.97958 0.47593 0.19614 0.0
H1121 H 0.94174 0.44295 0.21108 0.0
H1122 H 0.98371 0.52148 0.21671 0.0
H1123 H 0.9465 0.48921 0.23138 0.0
H1124 H 0.00707 0.44038 0.14531 0.0
H1125 H 0.99649 0.41116 0.1926 0.0
H1126 H 0.98726 0.39624 0.15093 0.0
H1127 H 0.01612 0.45509 0.18624 0.0
H1128 H 0.97837 0.35473 0.24144 0.0
H1129 H 0.00048 0.27209 0.21383 0.0
H1130 H 0.95592 0.53112 0.13587 0.0
H1131 H 0.98938 0.57017 0.15883 0.0
H1132 H 0.96315 0.23631 0.19069 0.0
H1133 H 0.94478 0.35277 0.20961 0.0
H1134 H 0.9582 0.18881 0.21072 0.0
H1135 H 0.94014 0.30329 0.22928 0.0
H1136 H 0.92971 0.34113 0.16042 0.0
H1137 H 0.96478 0.38832 0.14185 0.0
H1138 H 0.92368 0.30244 0.13922 0.0
H1139 H 0.95814 0.34876 0.12097 0.0
H1140 H 0.90388 0.45362 0.18914 0.0
H1141 H 0.90451 0.30424 0.18996 0.0
H1142 H 0.98761 0.24442 0.13707 0.0
H1143 H 0.95115 0.19134 0.15123 0.0
Li1144 Li 0.80235 0.37348 0.18263 0.0
Li1145 Li 0.78587 0.41332 0.16919 0.0
Li1146 Li 0.77986 0.37996 0.19025 0.0
Li1147 Li 0.78403 0.33146 0.17103 0.0
C1148 C 0.78814 0.47155 0.19151 0.0
N1149 N 0.77897 0.5563 0.20016 0.0
C1150 C 0.77583 0.48658 0.18777 0.0
C1151 C 0.7957 0.49943 0.1998 0.0
C1152 C 0.77138 0.52955 0.19222 0.0
C1153 C 0.79091 0.5422 0.20404 0.0
C1154 C 0.80384 0.38842 0.15229 0.0
C1155 C 0.80193 0.41501 0.12954 0.0
N1156 N 0.81391 0.43396 0.13037 0.0
C1157 C 0.81618 0.40785 0.15287 0.0
C1158 C 0.79669 0.39166 0.14049 0.0
C1159 C 0.82109 0.4308 0.1417 0.0
C1160 C 0.82679 0.33179 0.18533 0.0
N1161 N 0.82011 0.37188 0.18704 0.0
C1162 C 0.83951 0.41308 0.192 0.0
C1163 C 0.82613 0.412 0.19044 0.0
C1164 C 0.84665 0.37256 0.18991 0.0
C1165 C 0.8402 0.33135 0.18673 0.0
H1166 H 0.82173 0.30063 0.18241 0.0
H1167 H 0.8206 0.44352 0.19137 0.0
C1168 C 0.77261 0.4738 0.15144 0.0
N1169 N 0.78383 0.46607 0.15812 0.0
C1170 C 0.77128 0.51308 0.14345 0.0
C1171 C 0.79299 0.53572 0.14953 0.0
C1172 C 0.79386 0.4963 0.15748 0.0
C1173 C 0.78161 0.54415 0.14243 0.0
H1174 H 0.7647 0.44971 0.1524 0.0
H1175 H 0.80255 0.48962 0.16315 0.0
C1176 C 0.78866 0.30388 0.20174 0.0
N1177 N 0.78377 0.26681 0.22662 0.0
C1178 C 0.77678 0.28304 0.2044 0.0
C1179 C 0.79813 0.30544 0.21166 0.0
C1180 C 0.77446 0.26465 0.21707 0.0
C1181 C 0.79545 0.28659 0.2242 0.0
C1182 C 0.76011 0.35303 0.16795 0.0
C1183 C 0.75145 0.32961 0.17624 0.0
C1184 C 0.75881 0.34958 0.1541 0.0
C1185 C 0.74163 0.30305 0.17053 0.0
C1186 C 0.74889 0.32251 0.14878 0.0
N1187 N 0.74058 0.30002 0.15703 0.0
C1188 C 0.758 0.41067 0.20518 0.0
C1189 C 0.77722 0.40107 0.21769 0.0
C1190 C 0.75205 0.43289 0.21597 0.0
N1191 N 0.77041 0.39562 0.20618 0.0
C1192 C 0.77162 0.42272 0.22873 0.0
C1193 C 0.75899 0.43983 0.22781 0.0
H1194 H 0.753 0.40838 0.19575 0.0
H1195 H 0.78728 0.39131 0.21803 0.0
C1196 C 0.78765 0.27142 0.1494 0.0
N1197 N 0.78064 0.27576 0.16082 0.0
C1198 C 0.78583 0.2337 0.14093 0.0
C1199 C 0.76974 0.20427 0.15617 0.0
C1200 C 0.77192 0.24274 0.16442 0.0
C1201 C 0.77676 0.19972 0.14425 0.0
H1202 H 0.79473 0.29721 0.14682 0.0
H1203 H 0.7666 0.24633 0.17364 0.0
O1204 O 0.79283 0.42992 0.18706 0.0
O1205 O 0.79875 0.36655 0.16323 0.0
O1206 O 0.79107 0.32251 0.18946 0.0
O1207 O 0.7699 0.37878 0.17334 0.0
H1208 H 0.76974 0.46538 0.18152 0.0
H1209 H 0.80518 0.48823 0.20297 0.0
H1210 H 0.7619 0.54161 0.18935 0.0
H1211 H 0.79668 0.56415 0.21043 0.0
H1212 H 0.79645 0.41815 0.1204 0.0
H1213 H 0.8219 0.40555 0.16185 0.0
H1214 H 0.78714 0.37683 0.13983 0.0
H1215 H 0.8306 0.44619 0.14204 0.0
H1216 H 0.84428 0.44546 0.19431 0.0
H1217 H 0.84553 0.29967 0.18496 0.0
H1218 H 0.76236 0.51914 0.1381 0.0
H1219 H 0.80107 0.55945 0.14895 0.0
H1220 H 0.7694 0.28136 0.19679 0.0
H1221 H 0.80739 0.32138 0.20973 0.0
H1222 H 0.76528 0.24866 0.2193 0.0
H1223 H 0.80264 0.28776 0.23201 0.0
H1224 H 0.75237 0.3314 0.18697 0.0
H1225 H 0.76546 0.36713 0.14752 0.0
H1226 H 0.73489 0.28462 0.17684 0.0
H1227 H 0.74784 0.31927 0.13808 0.0
H1228 H 0.74235 0.44633 0.21489 0.0
H1229 H 0.77728 0.42814 0.23768 0.0
H1230 H 0.79146 0.23099 0.13186 0.0
H1231 H 0.76271 0.17839 0.15903 0.0
Li1232 Li 0.94966 0.38107 0.56954 0.0
Li1233 Li 0.96592 0.41674 0.58265 0.0
Li1234 Li 0.97168 0.38724 0.56139 0.0
Li1235 Li 0.96637 0.33411 0.58028 0.0
C1236 C 0.95525 0.45623 0.5535 0.0
N1237 N 0.94714 0.49358 0.52954 0.0
C1238 C 0.95501 0.50421 0.55173 0.0
C1239 C 0.95139 0.42722 0.54306 0.0
C1240 C 0.95087 0.52242 0.53955 0.0
C1241 C 0.94732 0.44679 0.53104 0.0
C1242 C 0.94311 0.39222 0.59595 0.0
C1243 C 0.9266 0.38772 0.61287 0.0
N1244 N 0.92304 0.43199 0.61006 0.0
C1245 C 0.93929 0.4377 0.59324 0.0
C1246 C 0.93673 0.36702 0.60586 0.0
C1247 C 0.92913 0.45718 0.60048 0.0
C1248 C 0.92496 0.34192 0.56597 0.0
N1249 N 0.93162 0.38245 0.56557 0.0
C1250 C 0.91209 0.42531 0.56255 0.0
C1251 C 0.92548 0.4237 0.56383 0.0
C1252 C 0.905 0.38416 0.56324 0.0
C1253 C 0.91151 0.34197 0.56483 0.0
H1254 H 0.93007 0.30975 0.56762 0.0
H1255 H 0.9309 0.45563 0.56394 0.0
C1256 C 0.97298 0.50734 0.58861 0.0
N1257 N 0.96926 0.46681 0.59432 0.0
C1258 C 0.97437 0.54699 0.5964 0.0
C1259 C 0.96856 0.50185 0.61585 0.0
C1260 C 0.96728 0.46304 0.60769 0.0
C1261 C 0.9719 0.54442 0.61011 0.0
H1262 H 0.97454 0.50902 0.57796 0.0
H1263 H 0.96435 0.43024 0.61192 0.0
C1264 C 0.96594 0.29465 0.55475 0.0
N1265 N 0.97778 0.22186 0.5417 0.0
C1266 C 0.97903 0.28548 0.55687 0.0
C1267 C 0.95888 0.26681 0.546 0.0
C1268 C 0.98484 0.24851 0.55018 0.0
C1269 C 0.96504 0.23018 0.53949 0.0
C1270 C 0.98947 0.39325 0.58793 0.0
C1271 C 0.99892 0.42586 0.58468 0.0
C1272 C 0.98823 0.37815 0.60112 0.0
C1273 C 0.00692 0.44318 0.59473 0.0
C1274 C 0.99643 0.39624 0.61088 0.0
N1275 N 0.00552 0.42816 0.60751 0.0
C1276 C 0.98719 0.44687 0.5474 0.0
C1277 C 0.98177 0.38158 0.53419 0.0
C1278 C 0.99281 0.46881 0.53645 0.0
N1279 N 0.98172 0.4043 0.54609 0.0
C1280 C 0.98738 0.40229 0.52293 0.0
C1281 C 0.99276 0.44677 0.52403 0.0
H1282 H 0.98653 0.46492 0.55682 0.0
H1283 H 0.97696 0.34856 0.53324 0.0
C1284 C 0.95833 0.25698 0.59482 0.0
N1285 N 0.9691 0.27723 0.58972 0.0
C1286 C 0.95935 0.21921 0.60347 0.0
C1287 C 0.98255 0.22249 0.60109 0.0
C1288 C 0.98109 0.26046 0.59251 0.0
C1289 C 0.97158 0.2021 0.60683 0.0
H1290 H 0.94894 0.27118 0.59248 0.0
H1291 H 0.98951 0.27752 0.58846 0.0
O1292 O 0.95953 0.43809 0.56533 0.0
O1293 O 0.95291 0.372 0.58887 0.0
O1294 O 0.95997 0.33059 0.56115 0.0
O1295 O 0.98128 0.37686 0.57833 0.0
H1296 H 0.958 0.52715 0.55969 0.0
H1297 H 0.95155 0.39002 0.54418 0.0
H1298 H 0.95064 0.5595 0.53804 0.0
H1299 H 0.94432 0.42476 0.52288 0.0
H1300 H 0.92157 0.36857 0.62055 0.0
H1301 H 0.94407 0.4578 0.5856 0.0
H1302 H 0.93955 0.33179 0.6081 0.0
H1303 H 0.92608 0.49231 0.59847 0.0
H1304 H 0.90727 0.45839 0.56148 0.0
H1305 H 0.90622 0.30971 0.56549 0.0
H1306 H 0.97693 0.57957 0.59175 0.0
H1307 H 0.96657 0.49912 0.62644 0.0
H1308 H 0.9847 0.30664 0.56355 0.0
H1309 H 0.94874 0.27351 0.54425 0.0
H1310 H 0.99496 0.24103 0.55172 0.0
H1311 H 0.95969 0.20837 0.53268 0.0
H1312 H 1.00006 0.43778 0.57453 0.0
H1313 H 0.98085 0.35343 0.60385 0.0
H1314 H 0.01424 0.4686 0.59237 0.0
H1315 H 0.99552 0.38512 0.62114 0.0
H1316 H 0.99675 0.50333 0.53755 0.0
H1317 H 0.98708 0.38471 0.5134 0.0
H1318 H 0.95071 0.20414 0.60773 0.0
H1319 H 0.99212 0.21002 0.60354 0.0
Li1320 Li 0.78267 0.36525 0.56118 0.0
Li1321 Li 0.7868 0.42131 0.57984 0.0
Li1322 Li 0.80455 0.37914 0.56913 0.0
Li1323 Li 0.78935 0.33908 0.58251 0.0
C1324 C 0.78604 0.45863 0.55389 0.0
N1325 N 0.77229 0.52544 0.5402 0.0
C1326 C 0.7731 0.46691 0.55702 0.0
C1327 C 0.79198 0.4843 0.5438 0.0
C1328 C 0.76632 0.50086 0.54999 0.0
C1329 C 0.78487 0.51792 0.53699 0.0
C1330 C 0.76518 0.35312 0.58734 0.0
C1331 C 0.75776 0.34468 0.61002 0.0
N1332 N 0.74992 0.30945 0.60612 0.0
C1333 C 0.75698 0.31705 0.58353 0.0
C1334 C 0.76554 0.36725 0.60067 0.0
C1335 C 0.74937 0.29533 0.59318 0.0
C1336 C 0.76981 0.29793 0.54733 0.0
N1337 N 0.7727 0.34372 0.54623 0.0
C1338 C 0.76382 0.3455 0.52417 0.0
C1339 C 0.76982 0.36785 0.53495 0.0
C1340 C 0.76108 0.29789 0.52499 0.0
C1341 C 0.76408 0.27419 0.53678 0.0
H1342 H 0.77241 0.27936 0.5563 0.0
H1343 H 0.77244 0.40393 0.53413 0.0
C1344 C 0.79314 0.50287 0.59323 0.0
N1345 N 0.78281 0.47751 0.58916 0.0
C1346 C 0.79147 0.54054 0.60181 0.0
C1347 C 0.76847 0.52657 0.60149 0.0
C1348 C 0.77059 0.48894 0.59293 0.0
C1349 C 0.77904 0.5522 0.60619 0.0
H1350 H 0.80275 0.49276 0.59017 0.0
H1351 H 0.76255 0.46788 0.5897 0.0
C1352 C 0.80086 0.30172 0.55349 0.0
N1353 N 0.80981 0.26586 0.52966 0.0
C1354 C 0.80284 0.2541 0.55212 0.0
C1355 C 0.80344 0.33113 0.54273 0.0
C1356 C 0.80738 0.23664 0.54 0.0
C1357 C 0.80795 0.31232 0.53077 0.0
C1358 C 0.81155 0.3729 0.59561 0.0
C1359 C 0.81658 0.32859 0.59349 0.0
C1360 C 0.81734 0.40209 0.60497 0.0
C1361 C 0.82736 0.31425 0.60077 0.0
C1362 C 0.82811 0.38647 0.61206 0.0
N1363 N 0.83285 0.34325 0.60982 0.0
C1364 C 0.82844 0.42489 0.56514 0.0
C1365 C 0.82949 0.34297 0.5638 0.0
C1366 C 0.84187 0.42798 0.56406 0.0
N1367 N 0.82256 0.38278 0.56511 0.0
C1368 C 0.84288 0.34448 0.56261 0.0
C1369 C 0.84918 0.38729 0.56293 0.0
H1370 H 0.82273 0.4559 0.56647 0.0
H1371 H 0.82471 0.30981 0.56426 0.0
C1372 C 0.78402 0.24743 0.58864 0.0
N1373 N 0.78727 0.28853 0.59431 0.0
C1374 C 0.78294 0.2078 0.59647 0.0
C1375 C 0.78837 0.25378 0.61587 0.0
C1376 C 0.78929 0.29265 0.60766 0.0
C1377 C 0.7853 0.21084 0.61019 0.0
H1378 H 0.78242 0.24545 0.57799 0.0
H1379 H 0.79179 0.32593 0.61188 0.0
O1380 O 0.79294 0.42559 0.56057 0.0
O1381 O 0.77302 0.37384 0.57813 0.0
O1382 O 0.79615 0.31894 0.56526 0.0
O1383 O 0.80114 0.38816 0.58843 0.0
H1384 H 0.76829 0.44731 0.56473 0.0
H1385 H 0.802 0.47823 0.54125 0.0
H1386 H 0.75629 0.50762 0.55231 0.0
H1387 H 0.78935 0.53802 0.52914 0.0
H1388 H 0.75803 0.35499 0.62039 0.0
H1389 H 0.75655 0.30578 0.57325 0.0
H1390 H 0.77195 0.39472 0.60382 0.0
H1391 H 0.74303 0.26719 0.59039 0.0
H1392 H 0.76165 0.36475 0.51518 0.0
H1393 H 0.76215 0.23748 0.53773 0.0
H1394 H 0.79981 0.55965 0.60529 0.0
H1395 H 0.75877 0.53471 0.60475 0.0
H1396 H 0.80086 0.23085 0.56035 0.0
H1397 H 0.80194 0.36803 0.54354 0.0
H1398 H 0.80894 0.19984 0.5388 0.0
H1399 H 0.80995 0.33465 0.52235 0.0
H1400 H 0.81228 0.30554 0.58625 0.0
H1401 H 0.81357 0.4365 0.60674 0.0
H1402 H 0.83137 0.2801 0.5992 0.0
H1403 H 0.83269 0.40873 0.61933 0.0
H1404 H 0.84654 0.4615 0.56445 0.0
H1405 H 0.84831 0.31253 0.56191 0.0
H1406 H 0.78054 0.17497 0.59186 0.0
H1407 H 0.79024 0.25693 0.62647 0.0
Li1408 Li 0.53105 0.1348 0.80975 0.0
Li1409 Li 0.53394 0.15932 0.8326 0.0
Li1410 Li 0.55245 0.12152 0.82115 0.0
Li1411 Li 0.53341 0.0772 0.82872 0.0
C1412 C 0.54267 0.22758 0.81674 0.0
N1413 N 0.54065 0.32299 0.817 0.0
C1414 C 0.5308 0.24888 0.81424 0.0
C1415 C 0.55351 0.25483 0.81938 0.0
C1416 C 0.52997 0.29714 0.81442 0.0
C1417 C 0.55229 0.30301 0.81948 0.0
C1418 C 0.50815 0.13941 0.83048 0.0
C1419 C 0.49387 0.14926 0.84928 0.0
N1420 N 0.48564 0.17384 0.84143 0.0
C1421 C 0.49952 0.16458 0.82259 0.0
C1422 C 0.50529 0.13146 0.84392 0.0
C1423 C 0.48819 0.18175 0.82832 0.0
C1424 C 0.51249 0.13676 0.78786 0.0
N1425 N 0.52376 0.1536 0.79285 0.0
C1426 C 0.52489 0.21008 0.77541 0.0
C1427 C 0.53018 0.18846 0.78656 0.0
C1428 C 0.51307 0.19468 0.77027 0.0
C1429 C 0.507 0.15659 0.77639 0.0
H1430 H 0.50756 0.10894 0.79299 0.0
H1431 H 0.53926 0.20072 0.79046 0.0
C1432 C 0.54055 0.21763 0.85358 0.0
N1433 N 0.53074 0.2085 0.84495 0.0
C1434 C 0.54002 0.25637 0.86187 0.0
C1435 C 0.51916 0.27515 0.85249 0.0
C1436 C 0.52015 0.2363 0.8443 0.0
C1437 C 0.52929 0.28578 0.86121 0.0
H1438 H 0.54901 0.19574 0.85365 0.0
H1439 H 0.51273 0.22988 0.83701 0.0
C1440 C 0.54659 0.06728 0.79806 0.0
N1441 N 0.55569 0.05088 0.77258 0.0
C1442 C 0.54486 0.02394 0.79214 0.0
C1443 C 0.55292 0.10235 0.79101 0.0
C1444 C 0.54955 0.0163 0.77925 0.0
C1445 C 0.55746 0.09336 0.77815 0.0
C1446 C 0.54904 0.09112 0.85086 0.0
C1447 C 0.56048 0.06565 0.85183 0.0
C1448 C 0.54077 0.09388 0.86184 0.0
C1449 C 0.56331 0.04253 0.86372 0.0
C1450 C 0.54397 0.07042 0.87357 0.0
N1451 N 0.55506 0.04534 0.87425 0.0
C1452 C 0.57727 0.15224 0.82726 0.0
C1453 C 0.57721 0.08795 0.81254 0.0
C1454 C 0.59074 0.15347 0.82714 0.0
N1455 N 0.5708 0.12026 0.81989 0.0
C1456 C 0.59068 0.08816 0.81204 0.0
C1457 C 0.59752 0.12129 0.81939 0.0
H1458 H 0.57194 0.17641 0.83339 0.0
H1459 H 0.57192 0.06166 0.80718 0.0
C1460 C 0.51749 0.01038 0.84246 0.0
N1461 N 0.52934 0.01902 0.83714 0.0
C1462 C 0.5157 0.97277 0.85111 0.0
C1463 C 0.53816 0.95274 0.84822 0.0
C1464 C 0.53945 0.99005 0.83944 0.0
C1465 C 0.52626 0.94455 0.85443 0.0
H1466 H 0.50957 0.03369 0.84047 0.0
H1467 H 0.54875 0.99755 0.83504 0.0
O1468 O 0.54367 0.1803 0.81647 0.0
O1469 O 0.51923 0.12209 0.82501 0.0
O1470 O 0.54183 0.0755 0.81057 0.0
O1471 O 0.54606 0.11366 0.83927 0.0
H1472 H 0.52228 0.22832 0.81227 0.0
H1473 H 0.5628 0.23906 0.82121 0.0
H1474 H 0.52083 0.31404 0.81254 0.0
H1475 H 0.5606 0.32453 0.8215 0.0
H1476 H 0.49157 0.14355 0.85967 0.0
H1477 H 0.50158 0.17114 0.81218 0.0
H1478 H 0.51183 0.11198 0.85015 0.0
H1479 H 0.48145 0.20146 0.82234 0.0
H1480 H 0.52991 0.23903 0.77091 0.0
H1481 H 0.49792 0.1435 0.77261 0.0
H1482 H 0.54803 0.26407 0.86844 0.0
H1483 H 0.51084 0.29768 0.85168 0.0
H1484 H 0.53992 0.99652 0.79745 0.0
H1485 H 0.55441 0.13602 0.79546 0.0
H1486 H 0.54828 0.9829 0.77455 0.0
H1487 H 0.56239 0.12015 0.77259 0.0
H1488 H 0.56702 0.06334 0.84343 0.0
H1489 H 0.53199 0.11403 0.86132 0.0
H1490 H 0.57207 0.02235 0.86457 0.0
H1491 H 0.53763 0.07212 0.88213 0.0
H1492 H 0.59581 0.17904 0.83304 0.0
H1493 H 0.59572 0.06247 0.80613 0.0
H1494 H 0.50635 0.96709 0.85567 0.0
H1495 H 0.54647 0.93138 0.85048 0.0
Li1496 Li 0.69824 0.12537 0.82246 0.0
Li1497 Li 0.71647 0.17332 0.83032 0.0
Li1498 Li 0.71837 0.11553 0.8106 0.0
Li1499 Li 0.7161 0.08968 0.83339 0.0
C1500 C 0.69773 0.19494 0.80617 0.0
N1501 N 0.67606 0.23452 0.79488 0.0
C1502 C 0.69235 0.23485 0.81175 0.0
C1503 C 0.69218 0.17538 0.79478 0.0
C1504 C 0.68137 0.25431 0.80591 0.0
C1505 C 0.6812 0.19583 0.78925 0.0
C1506 C 0.7009 0.12012 0.85298 0.0
C1507 C 0.70567 0.11047 0.87636 0.0
N1508 N 0.69483 0.08438 0.87777 0.0
C1509 C 0.68973 0.0936 0.85468 0.0
C1510 C 0.70887 0.12903 0.86392 0.0
C1511 C 0.68686 0.07572 0.86728 0.0
C1512 C 0.67403 0.09433 0.81282 0.0
N1513 N 0.67999 0.12593 0.82076 0.0
C1514 C 0.65972 0.15787 0.82739 0.0
C1515 C 0.67318 0.15749 0.82795 0.0
C1516 C 0.65334 0.12516 0.81945 0.0
C1517 C 0.66058 0.09324 0.81204 0.0
H1518 H 0.67974 0.06981 0.80719 0.0
H1519 H 0.67822 0.18202 0.83422 0.0
C1520 C 0.73174 0.25373 0.83847 0.0
N1521 N 0.72025 0.23093 0.83902 0.0
C1522 C 0.73398 0.29194 0.84682 0.0
C1523 C 0.71243 0.28317 0.8557 0.0
C1524 C 0.71061 0.24542 0.84724 0.0
C1525 C 0.72428 0.30638 0.85568 0.0
H1526 H 0.7393 0.24128 0.83196 0.0
H1527 H 0.70158 0.22669 0.8475 0.0
C1528 C 0.71101 0.02403 0.81404 0.0
N1529 N 0.7199 0.93713 0.80702 0.0
C1530 C 0.72422 0.01423 0.81436 0.0
C1531 C 0.70232 0.98948 0.81024 0.0
C1532 C 0.72852 0.97016 0.81074 0.0
C1533 C 0.707 0.9458 0.80671 0.0
C1534 C 0.74197 0.1242 0.83253 0.0
C1535 C 0.75229 0.10009 0.82682 0.0
C1536 C 0.74356 0.14547 0.84496 0.0
C1537 C 0.76399 0.09732 0.8337 0.0
C1538 C 0.75541 0.14201 0.85151 0.0
N1539 N 0.76529 0.11817 0.8458 0.0
C1540 C 0.73816 0.10721 0.79038 0.0
C1541 C 0.7181 0.07109 0.78586 0.0
C1542 C 0.74367 0.08619 0.77913 0.0
N1543 N 0.72565 0.09856 0.79365 0.0
C1544 C 0.72331 0.04827 0.77483 0.0
C1545 C 0.73631 0.05509 0.77146 0.0
H1546 H 0.74399 0.12895 0.79677 0.0
H1547 H 0.70817 0.06484 0.78864 0.0
C1548 C 0.70968 0.00963 0.84661 0.0
N1549 N 0.71978 0.03931 0.84524 0.0
C1550 C 0.71077 0.97041 0.85458 0.0
C1551 C 0.73279 0.99215 0.85952 0.0
C1552 C 0.73124 0.0313 0.8515 0.0
C1553 C 0.72244 0.96147 0.86107 0.0
H1554 H 0.70075 0.01634 0.84139 0.0
H1555 H 0.73922 0.05464 0.85023 0.0
O1556 O 0.70817 0.17441 0.81203 0.0
O1557 O 0.70403 0.13707 0.84065 0.0
O1558 O 0.70653 0.06694 0.8176 0.0
O1559 O 0.7305 0.12779 0.82585 0.0
H1560 H 0.69651 0.2503 0.8206 0.0
H1561 H 0.69621 0.14434 0.79039 0.0
H1562 H 0.67705 0.28503 0.81016 0.0
H1563 H 0.67673 0.18085 0.7805 0.0
H1564 H 0.7118 0.11682 0.8849 0.0
H1565 H 0.68347 0.08622 0.84631 0.0
H1566 H 0.71746 0.14988 0.86283 0.0
H1567 H 0.67831 0.05479 0.86872 0.0
H1568 H 0.65434 0.18281 0.83323 0.0
H1569 H 0.65586 0.06764 0.80583 0.0
H1570 H 0.74325 0.30924 0.84662 0.0
H1571 H 0.70477 0.29357 0.86241 0.0
H1572 H 0.73107 0.04033 0.81736 0.0
H1573 H 0.69205 0.99632 0.81004 0.0
H1574 H 0.73873 0.96222 0.8109 0.0
H1575 H 0.70037 0.91877 0.80373 0.0
H1576 H 0.75129 0.08366 0.81718 0.0
H1577 H 0.7357 0.16405 0.84956 0.0
H1578 H 0.77203 0.07867 0.82942 0.0
H1579 H 0.75675 0.15818 0.86114 0.0
H1580 H 0.75372 0.09249 0.77675 0.0
H1581 H 0.71732 0.0247 0.76915 0.0
H1582 H 0.70266 0.94704 0.85558 0.0
H1583 H 0.74193 0.98577 0.86443 0.0
Li1584 Li 0.5352 0.17347 0.42203 0.0
Li1585 Li 0.55449 0.12416 0.4304 0.0
Li1586 Li 0.53607 0.0903 0.41856 0.0
Li1587 Li 0.53325 0.11609 0.44066 0.0
C1588 C 0.55033 0.12346 0.39905 0.0
N1589 N 0.55366 0.09216 0.37322 0.0
C1590 C 0.56137 0.09837 0.3956 0.0
C1591 C 0.54108 0.13324 0.3893 0.0
C1592 C 0.56285 0.08269 0.3825 0.0
C1593 C 0.54291 0.11695 0.37631 0.0
C1594 C 0.54197 0.18793 0.45258 0.0
C1595 C 0.54685 0.18675 0.47609 0.0
N1596 N 0.53616 0.21282 0.47849 0.0
C1597 C 0.53105 0.21478 0.45525 0.0
C1598 C 0.54996 0.17383 0.46305 0.0
C1599 C 0.52828 0.227 0.46844 0.0
C1600 C 0.52018 0.25475 0.41426 0.0
N1601 N 0.53155 0.23131 0.41332 0.0
C1602 C 0.53912 0.2836 0.39653 0.0
C1603 C 0.54103 0.24558 0.40488 0.0
C1604 C 0.52737 0.30745 0.39693 0.0
C1605 C 0.51787 0.29334 0.40607 0.0
H1606 H 0.51276 0.24259 0.42099 0.0
H1607 H 0.55 0.22654 0.40434 0.0
C1608 C 0.57919 0.08459 0.429 0.0
N1609 N 0.5726 0.12307 0.43282 0.0
C1610 C 0.59265 0.08367 0.42971 0.0
C1611 C 0.5922 0.16116 0.4389 0.0
C1612 C 0.57876 0.16084 0.43783 0.0
C1613 C 0.59925 0.12247 0.4346 0.0
H1614 H 0.574 0.05504 0.42512 0.0
H1615 H 0.57323 0.19094 0.44077 0.0
C1616 C 0.50971 0.12139 0.41951 0.0
N1617 N 0.48601 0.10915 0.40735 0.0
C1618 C 0.50054 0.09174 0.42516 0.0
C1619 C 0.50672 0.14534 0.40779 0.0
C1620 C 0.48865 0.08584 0.41882 0.0
C1621 C 0.49471 0.13857 0.40177 0.0
C1622 C 0.54191 0.02337 0.43807 0.0
C1623 C 0.52912 0.00858 0.43704 0.0
C1624 C 0.55133 0.99285 0.44278 0.0
C1625 C 0.52593 0.96345 0.44079 0.0
C1626 C 0.54776 0.94796 0.44644 0.0
N1627 N 0.53523 0.93432 0.44538 0.0
C1628 C 0.54285 0.01037 0.40532 0.0
C1629 C 0.52175 0.03439 0.39931 0.0
C1630 C 0.54189 0.97166 0.39711 0.0
N1631 N 0.53284 0.04067 0.40635 0.0
C1632 C 0.52036 0.99595 0.39098 0.0
C1633 C 0.53051 0.96419 0.38994 0.0
H1634 H 0.5516 0.01632 0.41094 0.0
H1635 H 0.51395 0.05879 0.40009 0.0
C1636 C 0.51298 0.10735 0.4604 0.0
N1637 N 0.52557 0.09878 0.45745 0.0
C1638 C 0.50726 0.0868 0.47161 0.0
C1639 C 0.52762 0.04992 0.47662 0.0
C1640 C 0.53301 0.07206 0.46557 0.0
C1641 C 0.51454 0.05649 0.47962 0.0
H1642 H 0.50727 0.12876 0.4538 0.0
H1643 H 0.54304 0.06625 0.46313 0.0
O1644 O 0.54848 0.13776 0.41193 0.0
O1645 O 0.54456 0.17418 0.43983 0.0
O1646 O 0.52134 0.12816 0.42569 0.0
O1647 O 0.54526 0.0675 0.43449 0.0
H1648 H 0.56866 0.09067 0.40298 0.0
H1649 H 0.53254 0.15289 0.39175 0.0
H1650 H 0.5713 0.06289 0.37973 0.0
H1651 H 0.53577 0.12397 0.3687 0.0
H1652 H 0.5529 0.17589 0.48431 0.0
H1653 H 0.52473 0.2256 0.44724 0.0
H1654 H 0.55837 0.15264 0.46112 0.0
H1655 H 0.51983 0.24759 0.47068 0.0
H1656 H 0.54665 0.29383 0.38963 0.0
H1657 H 0.5087 0.31124 0.40661 0.0
H1658 H 0.59786 0.05335 0.42634 0.0
H1659 H 0.59708 0.19159 0.44269 0.0
H1660 H 0.50252 0.07358 0.43436 0.0
H1661 H 0.5136 0.16865 0.4033 0.0
H1662 H 0.4815 0.06285 0.42305 0.0
H1663 H 0.49232 0.15668 0.39265 0.0
H1664 H 0.52177 0.03167 0.43332 0.0
H1665 H 0.56128 0.00381 0.44363 0.0
H1666 H 0.51605 0.95158 0.44004 0.0
H1667 H 0.55494 0.92398 0.45012 0.0
H1668 H 0.5499 0.94765 0.39641 0.0
H1669 H 0.51149 0.99093 0.38546 0.0
H1670 H 0.49716 0.09295 0.47372 0.0
H1671 H 0.53355 0.02707 0.48261 0.0
Li1672 Li 0.72069 0.13326 0.44181 0.0
Li1673 Li 0.71794 0.15759 0.41871 0.0
Li1674 Li 0.69998 0.1222 0.42977 0.0
Li1675 Li 0.71786 0.07472 0.42238 0.0
C1676 C 0.70727 0.22606 0.43264 0.0
N1677 N 0.7046 0.31995 0.42815 0.0
C1678 C 0.71709 0.25659 0.43638 0.0
C1679 C 0.69612 0.24327 0.42657 0.0
C1680 C 0.71554 0.30394 0.43406 0.0
C1681 C 0.69496 0.29085 0.42437 0.0
C1682 C 0.74444 0.13706 0.42424 0.0
C1683 C 0.76477 0.13722 0.41248 0.0
N1684 N 0.76913 0.17129 0.42069 0.0
C1685 C 0.74915 0.17204 0.43258 0.0
C1686 C 0.75234 0.11937 0.41414 0.0
C1687 C 0.76165 0.18887 0.43062 0.0
C1688 C 0.73923 0.1348 0.46368 0.0
N1689 N 0.72793 0.15147 0.45868 0.0
C1690 C 0.72687 0.20877 0.47589 0.0
C1691 C 0.72157 0.18682 0.46479 0.0
C1692 C 0.73873 0.19362 0.48098 0.0
C1693 C 0.74481 0.15539 0.47497 0.0
H1694 H 0.74416 0.10688 0.4586 0.0
H1695 H 0.71255 0.19918 0.46072 0.0
C1696 C 0.71126 0.22018 0.39882 0.0
N1697 N 0.72157 0.20657 0.40625 0.0
C1698 C 0.71209 0.25902 0.39061 0.0
C1699 C 0.73436 0.26808 0.39727 0.0
C1700 C 0.73305 0.22932 0.40548 0.0
C1701 C 0.72369 0.28373 0.38998 0.0
H1702 H 0.7022 0.20186 0.39968 0.0
H1703 H 0.74111 0.21865 0.41146 0.0
C1704 C 0.6998 0.05857 0.448 0.0
N1705 N 0.67856 0.02805 0.46214 0.0
C1706 C 0.69322 0.01878 0.44393 0.0
C1707 C 0.69566 0.08262 0.45932 0.0
C1708 C 0.68248 0.00395 0.4512 0.0
C1709 C 0.68488 0.06669 0.46631 0.0
C1710 C 0.70761 0.10238 0.39825 0.0
C1711 C 0.69718 0.09031 0.39012 0.0
C1712 C 0.72003 0.10385 0.39284 0.0
C1713 C 0.69938 0.0797 0.37671 0.0
C1714 C 0.72184 0.09303 0.37939 0.0
N1715 N 0.71156 0.08123 0.37167 0.0
C1716 C 0.67587 0.15287 0.44002 0.0
C1717 C 0.67489 0.08992 0.42482 0.0
C1718 C 0.66243 0.15352 0.44108 0.0
N1719 N 0.68176 0.12176 0.43185 0.0
C1720 C 0.66146 0.08887 0.42575 0.0
C1721 C 0.65513 0.12134 0.43383 0.0
H1722 H 0.68161 0.17748 0.44557 0.0
H1723 H 0.67988 0.06548 0.41847 0.0
C1724 C 0.73352 1.00017 0.4115 0.0
N1725 N 0.72142 0.01636 0.41397 0.0
C1726 C 0.73533 0.96234 0.40292 0.0
C1727 C 0.71221 0.95789 0.39999 0.0
C1728 C 0.71085 0.99536 0.40867 0.0
C1729 C 0.72457 0.94166 0.39683 0.0
H1730 H 0.74178 0.01765 0.41575 0.0
H1731 H 0.70135 0.00934 0.41063 0.0
O1732 O 0.70856 0.17957 0.43494 0.0
O1733 O 0.73235 0.11921 0.42622 0.0
O1734 O 0.71 0.07475 0.44072 0.0
O1735 O 0.70564 0.11152 0.41149 0.0
H1736 H 0.72582 0.2439 0.44101 0.0
H1737 H 0.6885 0.2201 0.42343 0.0
H1738 H 0.72306 0.32796 0.4369 0.0
H1739 H 0.6864 0.30462 0.41962 0.0
H1740 H 0.77096 0.12391 0.40468 0.0
H1741 H 0.74318 0.18679 0.44029 0.0
H1742 H 0.74895 0.09213 0.40763 0.0
H1743 H 0.76537 0.21609 0.43696 0.0
H1744 H 0.72189 0.23794 0.48033 0.0
H1745 H 0.75396 0.14272 0.47871 0.0
H1746 H 0.70369 0.27042 0.38508 0.0
H1747 H 0.74344 0.2866 0.39696 0.0
H1748 H 0.69629 0.99983 0.43518 0.0
H1749 H 0.70061 0.11365 0.46254 0.0
H1750 H 0.67724 0.97339 0.44812 0.0
H1751 H 0.6815 0.08517 0.47503 0.0
H1752 H 0.68751 0.08886 0.39417 0.0
H1753 H 0.72818 0.11313 0.39898 0.0
H1754 H 0.6914 0.07014 0.37032 0.0
H1755 H 0.73141 0.09389 0.3751 0.0
H1756 H 0.65777 0.17893 0.4474 0.0
H1757 H 0.65603 0.06367 0.42004 0.0
H1758 H 0.745 0.95046 0.40066 0.0
H1759 H 0.70373 0.94264 0.39545 0.0
Li1760 Li 0.46861 0.92144 0.17273 0.0
Li1761 Li 0.47046 0.86487 0.19055 0.0
Li1762 Li 0.46594 0.83739 0.16855 0.0
Li1763 Li 0.4489 0.879 0.18253 0.0
C1764 C 0.4912 0.87537 0.16516 0.0
N1765 N 0.51026 0.8858 0.14611 0.0
C1766 C 0.50404 0.88164 0.16903 0.0
C1767 C 0.48807 0.87428 0.1516 0.0
C1768 C 0.51354 0.88688 0.15925 0.0
C1769 C 0.49784 0.87962 0.14212 0.0
C1770 C 0.46549 0.94428 0.20238 0.0
C1771 C 0.46294 0.96813 0.22527 0.0
N1772 N 0.47557 0.98087 0.22558 0.0
C1773 C 0.47841 0.95794 0.20287 0.0
C1774 C 0.45764 0.94964 0.21361 0.0
C1775 C 0.48335 0.97622 0.21472 0.0
C1776 C 0.46194 0.00353 0.16018 0.0
N1777 N 0.47255 0.97843 0.16362 0.0
C1778 C 0.486 0.02767 0.15031 0.0
C1779 C 0.48451 0.99056 0.15919 0.0
C1780 C 0.4751 0.05254 0.14612 0.0
C1781 C 0.463 0.04084 0.15138 0.0
H1782 H 0.45254 0.99298 0.16375 0.0
H1783 H 0.49284 0.97055 0.1621 0.0
C1784 C 0.49122 0.82456 0.20477 0.0
N1785 N 0.47939 0.84423 0.20641 0.0
C1786 C 0.49722 0.80155 0.21538 0.0
C1787 C 0.47887 0.82002 0.22926 0.0
C1788 C 0.47326 0.84292 0.21842 0.0
C1789 C 0.49088 0.79835 0.22771 0.0
H1790 H 0.49575 0.82494 0.19505 0.0
H1791 H 0.4637 0.85742 0.21941 0.0
C1792 C 0.44811 0.89182 0.15161 0.0
N1793 N 0.43537 0.899 0.12746 0.0
C1794 C 0.43548 0.87539 0.1503 0.0
C1795 C 0.4542 0.91233 0.14065 0.0
C1796 C 0.42923 0.87918 0.13801 0.0
C1797 C 0.44761 0.91554 0.12853 0.0
C1798 C 0.45777 0.7831 0.19394 0.0
C1799 C 0.46604 0.7458 0.19157 0.0
C1800 C 0.44991 0.7831 0.20528 0.0
C1801 C 0.46628 0.70892 0.20058 0.0
C1802 C 0.45052 0.74575 0.21412 0.0
N1803 N 0.45861 0.7097 0.21159 0.0
C1804 C 0.47935 0.76422 0.15604 0.0
C1805 C 0.45763 0.77388 0.14905 0.0
C1806 C 0.48065 0.725 0.14803 0.0
N1807 N 0.46795 0.78763 0.15641 0.0
C1808 C 0.45854 0.73512 0.14082 0.0
C1809 C 0.47011 0.71017 0.1404 0.0
H1810 H 0.4873 0.77529 0.16226 0.0
H1811 H 0.44859 0.79215 0.14985 0.0
C1812 C 0.4246 0.92317 0.18561 0.0
N1813 N 0.43086 0.88178 0.18553 0.0
C1814 C 0.41114 0.92455 0.18653 0.0
C1815 C 0.41092 0.84084 0.18752 0.0
C1816 C 0.42435 0.84105 0.18649 0.0
C1817 C 0.40422 0.88293 0.18738 0.0
H1818 H 0.43005 0.95494 0.18463 0.0
H1819 H 0.42955 0.80865 0.18605 0.0
O1820 O 0.48182 0.87064 0.17466 0.0
O1821 O 0.46056 0.92571 0.19093 0.0
O1822 O 0.45427 0.88915 0.16368 0.0
O1823 O 0.45713 0.81892 0.18504 0.0
H1824 H 0.50662 0.88278 0.17949 0.0
H1825 H 0.47823 0.86907 0.14843 0.0
H1826 H 0.52351 0.89191 0.1621 0.0
H1827 H 0.49554 0.87883 0.1316 0.0
H1828 H 0.45701 0.97226 0.23407 0.0
H1829 H 0.48458 0.95401 0.19422 0.0
H1830 H 0.44761 0.93924 0.21334 0.0
H1831 H 0.49335 0.98666 0.21529 0.0
H1832 H 0.49548 0.03598 0.14644 0.0
H1833 H 0.4544 0.05936 0.14833 0.0
H1834 H 0.50648 0.78498 0.21385 0.0
H1835 H 0.4737 0.81788 0.23864 0.0
H1836 H 0.43059 0.85951 0.15865 0.0
H1837 H 0.46387 0.92607 0.14146 0.0
H1838 H 0.41948 0.8664 0.13685 0.0
H1839 H 0.45222 0.93134 0.11997 0.0
H1840 H 0.47219 0.74527 0.18286 0.0
H1841 H 0.4435 0.81184 0.2073 0.0
H1842 H 0.47263 0.67978 0.19886 0.0
H1843 H 0.44456 0.74541 0.22298 0.0
H1844 H 0.48965 0.70593 0.14796 0.0
H1845 H 0.45022 0.72392 0.13513 0.0
H1846 H 0.40616 0.95752 0.1863 0.0
H1847 H 0.40579 0.80822 0.18803 0.0
Li1848 Li 0.30378 0.87635 0.1818 0.0
Li1849 Li 0.28646 0.91628 0.16848 0.0
Li1850 Li 0.28169 0.88556 0.19044 0.0
Li1851 Li 0.28452 0.83364 0.17152 0.0
C1852 C 0.29533 0.9671 0.19486 0.0
N1853 N 0.29775 0.03688 0.21351 0.0
C1854 C 0.28885 0.00904 0.19303 0.0
C1855 C 0.30291 0.96037 0.20622 0.0
C1856 C 0.29022 0.04396 0.20257 0.0
C1857 C 0.30401 0.99609 0.21554 0.0
C1858 C 0.30268 0.88429 0.15053 0.0
C1859 C 0.29817 0.90073 0.12741 0.0
N1860 N 0.31006 0.92019 0.12615 0.0
C1861 C 0.31489 0.9041 0.14899 0.0
C1862 C 0.29428 0.88219 0.13964 0.0
C1863 C 0.31843 0.92216 0.13659 0.0
C1864 C 0.32837 0.83553 0.18574 0.0
N1865 N 0.32178 0.87618 0.18507 0.0
C1866 C 0.34135 0.91948 0.18678 0.0
C1867 C 0.32795 0.9177 0.18562 0.0
C1868 C 0.34839 0.87813 0.1872 0.0
C1869 C 0.34182 0.83571 0.1868 0.0
H1870 H 0.32319 0.80308 0.18509 0.0
H1871 H 0.32247 0.94943 0.18476 0.0
C1872 C 0.27225 0.97701 0.15182 0.0
N1873 N 0.284 0.96769 0.1572 0.0
C1874 C 0.27056 0.0161 0.14381 0.0
C1875 C 0.29311 0.03492 0.1471 0.0
C1876 C 0.29432 0.99585 0.15514 0.0
C1877 C 0.28112 0.04523 0.1414 0.0
H1878 H 0.26417 0.95443 0.15386 0.0
H1879 H 0.30346 0.98799 0.15983 0.0
C1880 C 0.28968 0.80486 0.20134 0.0
N1881 N 0.28393 0.75959 0.22486 0.0
C1882 C 0.27766 0.78381 0.20302 0.0
C1883 C 0.29885 0.80247 0.21154 0.0
C1884 C 0.27491 0.76123 0.21501 0.0
C1885 C 0.29574 0.7795 0.22338 0.0
C1886 C 0.25979 0.86051 0.1705 0.0
C1887 C 0.25144 0.84323 0.18025 0.0
C1888 C 0.25664 0.85559 0.15701 0.0
C1889 C 0.24009 0.82099 0.17634 0.0
C1890 C 0.24521 0.83301 0.15351 0.0
N1891 N 0.23724 0.81633 0.16316 0.0
C1892 C 0.26191 0.93132 0.20421 0.0
C1893 C 0.27777 0.90055 0.21875 0.0
C1894 C 0.25599 0.95461 0.21479 0.0
N1895 N 0.27264 0.9051 0.20631 0.0
C1896 C 0.27213 0.92321 0.22964 0.0
C1897 C 0.26123 0.95119 0.22764 0.0
H1898 H 0.2583 0.93591 0.19417 0.0
H1899 H 0.28663 0.88156 0.22015 0.0
C1900 C 0.28963 0.76616 0.15241 0.0
N1901 N 0.28066 0.77731 0.16181 0.0
C1902 C 0.28774 0.72857 0.1439 0.0
C1903 C 0.26758 0.71281 0.15511 0.0
C1904 C 0.2699 0.75084 0.1635 0.0
C1905 C 0.27656 0.70176 0.1451 0.0
H1906 H 0.29826 0.78676 0.15139 0.0
H1907 H 0.26301 0.75946 0.17119 0.0
O1908 O 0.29463 0.93342 0.18531 0.0
O1909 O 0.29891 0.8674 0.16267 0.0
O1910 O 0.29254 0.8272 0.18971 0.0
O1911 O 0.27092 0.88266 0.17412 0.0
H1912 H 0.28295 0.01472 0.18427 0.0
H1913 H 0.30794 0.92795 0.20778 0.0
H1914 H 0.28533 0.07674 0.20127 0.0
H1915 H 0.30987 0.99146 0.22437 0.0
H1916 H 0.29173 0.8997 0.11892 0.0
H1917 H 0.32153 0.90585 0.1573 0.0
H1918 H 0.28483 0.86676 0.14066 0.0
H1919 H 0.32783 0.93784 0.13527 0.0
H1920 H 0.34622 0.95267 0.18695 0.0
H1921 H 0.34707 0.80328 0.18703 0.0
H1922 H 0.26118 0.02364 0.13958 0.0
H1923 H 0.30137 0.05718 0.14546 0.0
H1924 H 0.27053 0.78496 0.19514 0.0
H1925 H 0.30823 0.81849 0.21034 0.0
H1926 H 0.26562 0.74496 0.21649 0.0
H1927 H 0.30271 0.77757 0.2314 0.0
H1928 H 0.25373 0.84673 0.19074 0.0
H1929 H 0.26297 0.86881 0.14933 0.0
H1930 H 0.23356 0.80732 0.18378 0.0
H1931 H 0.24268 0.82873 0.14311 0.0
H1932 H 0.24768 0.97639 0.21291 0.0
H1933 H 0.27651 0.92043 0.23942 0.0
H1934 H 0.2949 0.7207 0.13635 0.0
H1935 H 0.25888 0.69251 0.15633 0.0
Li1936 Li 0.44764 0.8731 0.56793 0.0
Li1937 Li 0.46308 0.9124 0.58117 0.0
Li1938 Li 0.46954 0.88659 0.55979 0.0
Li1939 Li 0.46538 0.83005 0.57845 0.0
C1940 C 0.45121 0.95029 0.55234 0.0
N1941 N 0.44173 0.98603 0.52872 0.0
C1942 C 0.44886 0.99775 0.55113 0.0
C1943 C 0.44874 0.92098 0.54153 0.0
C1944 C 0.44406 0.01515 0.53911 0.0
C1945 C 0.44395 0.93974 0.52968 0.0
C1946 C 0.44094 0.87866 0.59455 0.0
C1947 C 0.42471 0.86455 0.61131 0.0
N1948 N 0.41994 0.90788 0.60933 0.0
C1949 C 0.43589 0.92309 0.59269 0.0
C1950 C 0.43532 0.84914 0.60395 0.0
C1951 C 0.42527 0.9372 0.60025 0.0
C1952 C 0.42354 0.82838 0.56395 0.0
N1953 N 0.42957 0.87021 0.56409 0.0
C1954 C 0.40938 0.90962 0.56196 0.0
C1955 C 0.42278 0.91041 0.56306 0.0
C1956 C 0.40292 0.86711 0.5621 0.0
C1957 C 0.41008 0.826 0.56296 0.0
H1958 H 0.42915 0.79702 0.56507 0.0
H1959 H 0.42767 0.94332 0.56367 0.0
C1960 C 0.46818 0.00414 0.5875 0.0
N1961 N 0.46527 0.96258 0.59308 0.0
C1962 C 0.46914 0.04353 0.59545 0.0
C1963 C 0.46432 0.99631 0.61478 0.0
C1964 C 0.46351 0.95773 0.60645 0.0
C1965 C 0.46701 0.03973 0.6092 0.0
H1966 H 0.46957 0.0067 0.57683 0.0
H1967 H 0.46125 0.92411 0.61059 0.0
C1968 C 0.46589 0.7936 0.55232 0.0
N1969 N 0.47941 0.72712 0.53826 0.0
C1970 C 0.47859 0.78278 0.55587 0.0
C1971 C 0.46008 0.77063 0.54163 0.0
C1972 C 0.48525 0.74903 0.54864 0.0
C1973 C 0.46708 0.73715 0.53463 0.0
C1974 C 0.48733 0.89913 0.58539 0.0
C1975 C 0.49505 0.93582 0.58106 0.0
C1976 C 0.48763 0.88573 0.59879 0.0
C1977 C 0.50287 0.95889 0.59027 0.0
C1978 C 0.49559 0.90965 0.60768 0.0
N1979 N 0.50297 0.94546 0.60327 0.0
C1980 C 0.48152 0.95468 0.54526 0.0
C1981 C 0.48375 0.88262 0.5342 0.0
C1982 C 0.48735 0.97781 0.53465 0.0
N1983 N 0.4796 0.9081 0.5448 0.0
C1984 C 0.49002 0.90434 0.52347 0.0
C1985 C 0.49166 0.95272 0.52355 0.0
H1986 H 0.47819 0.97422 0.55379 0.0
H1987 H 0.48203 0.84575 0.53391 0.0
C1988 C 0.4586 0.74797 0.59131 0.0
N1989 N 0.46908 0.77353 0.58778 0.0
C1990 C 0.45992 0.71016 0.59991 0.0
C1991 C 0.48289 0.72443 0.60073 0.0
C1992 C 0.48112 0.76218 0.59212 0.0
C1993 C 0.47214 0.69858 0.60488 0.0
H1994 H 0.44913 0.75809 0.58783 0.0
H1995 H 0.48928 0.78339 0.5893 0.0
O1996 O 0.45609 0.93313 0.56405 0.0
O1997 O 0.45123 0.86372 0.58716 0.0
O1998 O 0.4591 0.82646 0.5592 0.0
O1999 O 0.4793 0.87708 0.57664 0.0
H2000 H 0.45074 0.0209 0.55939 0.0
H2001 H 0.45051 0.88422 0.54222 0.0
H2002 H 0.4422 0.05181 0.53803 0.0
H2003 H 0.44201 0.91748 0.52123 0.0
H2004 H 0.42026 0.84204 0.61861 0.0
H2005 H 0.44008 0.94643 0.58545 0.0
H2006 H 0.43911 0.81465 0.60552 0.0
H2007 H 0.42126 0.97145 0.59889 0.0
H2008 H 0.40406 0.94187 0.56147 0.0
H2009 H 0.40529 0.79269 0.56321 0.0
H2010 H 0.47124 0.07674 0.59092 0.0
H2011 H 0.46263 0.99259 0.6254 0.0
H2012 H 0.4833 0.80034 0.56404 0.0
H2013 H 0.45026 0.77869 0.53875 0.0
H2014 H 0.49509 0.74034 0.55127 0.0
H2015 H 0.4627 0.71913 0.52633 0.0
H2016 H 0.49494 0.94659 0.57073 0.0
H2017 H 0.48158 0.85777 0.60234 0.0
H2018 H 0.50884 0.98753 0.58707 0.0
H2019 H 0.49584 0.89992 0.6181 0.0
H2020 H 0.48845 0.01508 0.53508 0.0
H2021 H 0.49327 0.88388 0.51506 0.0
H2022 H 0.45144 0.69093 0.60296 0.0
H2023 H 0.49244 0.71639 0.60445 0.0
Li2024 Li 0.2804 0.86597 0.56217 0.0
Li2025 Li 0.28573 0.9203 0.58074 0.0
Li2026 Li 0.30255 0.87449 0.5697 0.0
Li2027 Li 0.28692 0.83762 0.58337 0.0
C2028 C 0.28524 0.95875 0.55509 0.0
N2029 N 0.27244 0.02962 0.54213 0.0
C2030 C 0.27218 0.96699 0.55769 0.0
C2031 C 0.29178 0.98653 0.54589 0.0
C2032 C 0.26589 0.003 0.55104 0.0
C2033 C 0.28514 0.02218 0.53944 0.0
C2034 C 0.26332 0.85884 0.58917 0.0
C2035 C 0.2573 0.85404 0.61238 0.0
N2036 N 0.24801 0.82268 0.60919 0.0
C2037 C 0.25366 0.82679 0.58611 0.0
C2038 C 0.26513 0.87275 0.60239 0.0
C2039 C 0.24604 0.80883 0.59638 0.0
C2040 C 0.26476 0.80488 0.54886 0.0
N2041 N 0.27014 0.84745 0.54721 0.0
C2042 C 0.26409 0.84779 0.52415 0.0
C2043 C 0.26987 0.86933 0.53518 0.0
C2044 C 0.25876 0.80335 0.52559 0.0
C2045 C 0.25896 0.78214 0.53815 0.0
H2046 H 0.2656 0.7875 0.55837 0.0
H2047 H 0.27462 0.90237 0.53396 0.0
C2048 C 0.29317 0.00142 0.59401 0.0
N2049 N 0.28259 0.97718 0.59005 0.0
C2050 C 0.29188 0.03954 0.6025 0.0
C2051 C 0.26878 0.02803 0.60241 0.0
C2052 C 0.27051 0.99013 0.59387 0.0
C2053 C 0.2796 0.05259 0.60697 0.0
H2054 H 0.30266 0.99012 0.59091 0.0
H2055 H 0.26226 0.97005 0.59067 0.0
C2056 C 0.29698 0.79793 0.55407 0.0
N2057 N 0.30432 0.75977 0.52994 0.0
C2058 C 0.29714 0.74989 0.55241 0.0
C2059 C 0.30054 0.82658 0.54343 0.0
C2060 C 0.30088 0.73127 0.54014 0.0
C2061 C 0.30423 0.80661 0.53133 0.0
C2062 C 0.30998 0.86666 0.59594 0.0
C2063 C 0.3142 0.82131 0.59372 0.0
C2064 C 0.31658 0.8947 0.60502 0.0
C2065 C 0.32494 0.80475 0.60065 0.0
C2066 C 0.32729 0.87686 0.61176 0.0
N2067 N 0.33121 0.83264 0.60945 0.0
C2068 C 0.32714 0.91452 0.56549 0.0
C2069 C 0.32668 0.83263 0.56371 0.0
C2070 C 0.34058 0.91456 0.56419 0.0
N2071 N 0.32052 0.87388 0.56535 0.0
C2072 C 0.34006 0.83111 0.56228 0.0
C2073 C 0.34712 0.87235 0.56272 0.0
H2074 H 0.32202 0.9467 0.56709 0.0
H2075 H 0.32132 0.80063 0.56408 0.0
C2076 C 0.28001 0.74733 0.58958 0.0
N2077 N 0.28422 0.78744 0.59516 0.0
C2078 C 0.27882 0.70754 0.59734 0.0
C2079 C 0.28596 0.75159 0.61653 0.0
C2080 C 0.28697 0.79061 0.6084 0.0
C2081 C 0.28204 0.7095 0.61089 0.0
H2082 H 0.27784 0.74614 0.57904 0.0
H2083 H 0.29024 0.82312 0.61255 0.0
O2084 O 0.29168 0.92373 0.56142 0.0
O2085 O 0.27115 0.87582 0.57933 0.0
O2086 O 0.29298 0.8165 0.56594 0.0
O2087 O 0.29966 0.88411 0.58906 0.0
H2088 H 0.26692 0.94588 0.56472 0.0
H2089 H 0.30189 0.98053 0.54376 0.0
H2090 H 0.25579 0.00977 0.55296 0.0
H2091 H 0.29008 0.04394 0.53229 0.0
H2092 H 0.25867 0.86422 0.62267 0.0
H2093 H 0.25206 0.81584 0.57593 0.0
H2094 H 0.27269 0.89703 0.60496 0.0
H2095 H 0.23857 0.78385 0.59417 0.0
H2096 H 0.26417 0.86482 0.51453 0.0
H2097 H 0.25505 0.7477 0.53953 0.0
H2098 H 0.30041 0.05784 0.60586 0.0
H2099 H 0.25917 0.03734 0.60571 0.0
H2100 H 0.29435 0.72723 0.56052 0.0
H2101 H 0.30042 0.86382 0.54446 0.0
H2102 H 0.30104 0.69415 0.53872 0.0
H2103 H 0.30698 0.82837 0.52302 0.0
H2104 H 0.30929 0.79916 0.58666 0.0
H2105 H 0.31347 0.92993 0.60683 0.0
H2106 H 0.3283 0.76975 0.59901 0.0
H2107 H 0.3325 0.89821 0.6188 0.0
H2108 H 0.34585 0.9469 0.56468 0.0
H2109 H 0.3449 0.79803 0.56132 0.0
H2110 H 0.27579 0.67533 0.59277 0.0
H2111 H 0.28852 0.75382 0.62699 0.0
Li2112 Li 0.53456 0.6655 0.33191 0.0
Li2113 Li 0.53081 0.63451 0.31048 0.0
Li2114 Li 0.53302 0.58305 0.33033 0.0
Li2115 Li 0.55249 0.62425 0.32103 0.0
C2116 C 0.50969 0.64953 0.33346 0.0
N2117 N 0.49086 0.69335 0.34838 0.0
C2118 C 0.5 0.6751 0.32714 0.0
C2119 C 0.50974 0.64606 0.34737 0.0
C2120 C 0.49057 0.69701 0.33486 0.0
C2121 C 0.50016 0.66855 0.35474 0.0
C2122 C 0.54399 0.72821 0.31466 0.0
C2123 C 0.55446 0.80062 0.3198 0.0
N2124 N 0.54443 0.82389 0.31417 0.0
C2125 C 0.53379 0.75286 0.3089 0.0
C2126 C 0.55442 0.75226 0.32013 0.0
C2127 C 0.53419 0.8012 0.30875 0.0
C2128 C 0.53959 0.7241 0.35366 0.0
N2129 N 0.53174 0.71861 0.34291 0.0
C2130 C 0.52165 0.79159 0.34709 0.0
C2131 C 0.52287 0.75134 0.33953 0.0
C2132 C 0.5297 0.79804 0.35814 0.0
C2133 C 0.53869 0.76381 0.36152 0.0
H2134 H 0.54678 0.69818 0.35594 0.0
H2135 H 0.51696 0.74684 0.33076 0.0
C2136 C 0.51029 0.64414 0.29124 0.0
N2137 N 0.52318 0.64824 0.29351 0.0
C2138 C 0.50473 0.66485 0.27998 0.0
C2139 C 0.52594 0.69065 0.27321 0.0
C2140 C 0.53107 0.66958 0.28457 0.0
C2141 C 0.51259 0.68958 0.27106 0.0
H2142 H 0.50425 0.62681 0.29847 0.0
H2143 H 0.54127 0.67263 0.28668 0.0
C2144 C 0.55095 0.59508 0.35017 0.0
N2145 N 0.55995 0.54279 0.37132 0.0
C2146 C 0.56154 0.56566 0.34847 0.0
C2147 C 0.545 0.59812 0.36266 0.0
C2148 C 0.56592 0.5394 0.35927 0.0
C2149 C 0.5497 0.57143 0.37322 0.0
C2150 C 0.53694 0.55281 0.30151 0.0
C2151 C 0.52594 0.52511 0.30255 0.0
C2152 C 0.54283 0.55902 0.28909 0.0
C2153 C 0.521 0.5039 0.29111 0.0
C2154 C 0.53759 0.53727 0.27788 0.0
N2155 N 0.52688 0.51039 0.27911 0.0
C2156 C 0.51733 0.52328 0.34677 0.0
C2157 C 0.53792 0.49409 0.34082 0.0
C2158 C 0.51547 0.48657 0.3557 0.0
N2159 N 0.5286 0.52715 0.33987 0.0
C2160 C 0.53653 0.45722 0.34975 0.0
C2161 C 0.52534 0.45392 0.35754 0.0
H2162 H 0.50997 0.54944 0.34572 0.0
H2163 H 0.54671 0.49759 0.3351 0.0
C2164 C 0.57778 0.64854 0.32734 0.0
N2165 N 0.57067 0.62261 0.31873 0.0
C2166 C 0.59121 0.64872 0.32649 0.0
C2167 C 0.5898 0.5949 0.30805 0.0
C2168 C 0.57635 0.59597 0.3092 0.0
C2169 C 0.59733 0.62159 0.31677 0.0
H2170 H 0.57299 0.66864 0.33498 0.0
H2171 H 0.57045 0.57525 0.30262 0.0
O2172 O 0.51906 0.62804 0.32609 0.0
O2173 O 0.54376 0.68082 0.31495 0.0
O2174 O 0.5465 0.62106 0.33971 0.0
O2175 O 0.54163 0.57508 0.31251 0.0
H2176 H 0.49985 0.67865 0.31641 0.0
H2177 H 0.51719 0.62666 0.35243 0.0
H2178 H 0.48306 0.71711 0.33009 0.0
H2179 H 0.50015 0.66638 0.36552 0.0
H2180 H 0.56244 0.81967 0.32405 0.0
H2181 H 0.52551 0.73501 0.30483 0.0
H2182 H 0.56238 0.73385 0.32464 0.0
H2183 H 0.52633 0.82068 0.3044 0.0
H2184 H 0.51471 0.8178 0.34422 0.0
H2185 H 0.54509 0.76827 0.36996 0.0
H2186 H 0.49439 0.66329 0.27853 0.0
H2187 H 0.53224 0.70938 0.26648 0.0
H2188 H 0.56621 0.56247 0.33887 0.0
H2189 H 0.53688 0.62098 0.36422 0.0
H2190 H 0.57403 0.51623 0.35806 0.0
H2191 H 0.54518 0.57346 0.38294 0.0
H2192 H 0.5212 0.52036 0.31208 0.0
H2193 H 0.55124 0.58092 0.28809 0.0
H2194 H 0.51247 0.48242 0.29176 0.0
H2195 H 0.542 0.54193 0.26819 0.0
H2196 H 0.50666 0.48466 0.36149 0.0
H2197 H 0.54427 0.43232 0.35086 0.0
H2198 H 0.5968 0.66934 0.33343 0.0
H2199 H 0.59429 0.57335 0.30052 0.0
Li2200 Li 0.69822 0.62467 0.32025 0.0
Li2201 Li 0.71643 0.66796 0.32966 0.0
Li2202 Li 0.71942 0.61135 0.31015 0.0
Li2203 Li 0.71598 0.58308 0.33297 0.0
C2204 C 0.701 0.69624 0.3033 0.0
N2205 N 0.68347 0.74609 0.28829 0.0
C2206 C 0.69844 0.74254 0.30638 0.0
C2207 C 0.6948 0.67554 0.29245 0.0
C2208 C 0.68951 0.76711 0.2987 0.0
C2209 C 0.68592 0.70123 0.28503 0.0
C2210 C 0.70003 0.64643 0.3515 0.0
C2211 C 0.70404 0.65392 0.37512 0.0
N2212 N 0.69335 0.68093 0.3763 0.0
C2213 C 0.68893 0.67345 0.35301 0.0
C2214 C 0.70751 0.63587 0.3627 0.0
C2215 C 0.68578 0.69087 0.3656 0.0
C2216 C 0.67384 0.58439 0.31562 0.0
N2217 N 0.67994 0.62553 0.3176 0.0
C2218 C 0.65973 0.66556 0.31778 0.0
C2219 C 0.67318 0.66577 0.31866 0.0
C2220 C 0.65324 0.62352 0.31584 0.0
C2221 C 0.66042 0.58262 0.3146 0.0
H2222 H 0.67938 0.55273 0.31518 0.0
H2223 H 0.6782 0.69787 0.32057 0.0
C2224 C 0.73266 0.7357 0.34293 0.0
N2225 N 0.72049 0.72499 0.33883 0.0
C2226 C 0.73472 0.7726 0.35176 0.0
C2227 C 0.71183 0.78838 0.35137 0.0
C2228 C 0.71023 0.75154 0.3425 0.0
C2229 C 0.72414 0.79846 0.35634 0.0
H2230 H 0.74072 0.7148 0.33972 0.0
H2231 H 0.7007 0.743 0.33891 0.0
C2232 C 0.70651 0.52847 0.30784 0.0
N2233 N 0.70575 0.4541 0.2905 0.0
C2234 C 0.71338 0.48804 0.31074 0.0
C2235 C 0.69922 0.53096 0.29613 0.0
C2236 C 0.71292 0.4509 0.30183 0.0
C2237 C 0.69896 0.49302 0.2875 0.0
C2238 C 0.74185 0.61433 0.33303 0.0
C2239 C 0.75281 0.59868 0.32626 0.0
C2240 C 0.7425 0.6225 0.34675 0.0
C2241 C 0.76418 0.59065 0.3334 0.0
C2242 C 0.75404 0.6141 0.35353 0.0
N2243 N 0.76455 0.59839 0.34678 0.0
C2244 C 0.72563 0.60861 0.28189 0.0
C2245 C 0.73582 0.55345 0.29588 0.0
C2246 C 0.73076 0.58704 0.27053 0.0
N2247 N 0.72812 0.59119 0.29425 0.0
C2248 C 0.74113 0.53093 0.28485 0.0
C2249 C 0.73846 0.54733 0.272 0.0
H2250 H 0.71933 0.63822 0.28082 0.0
H2251 H 0.73739 0.5396 0.30577 0.0
C2252 C 0.7095 0.51826 0.3524 0.0
N2253 N 0.71936 0.53265 0.34448 0.0
C2254 C 0.71085 0.47851 0.36017 0.0
C2255 C 0.73251 0.4693 0.35154 0.0
C2256 C 0.73074 0.5092 0.34391 0.0
C2257 C 0.72241 0.45349 0.35963 0.0
H2258 H 0.70048 0.53711 0.35242 0.0
H2259 H 0.73825 0.52038 0.33719 0.0
O2260 O 0.70959 0.67149 0.31081 0.0
O2261 O 0.70336 0.62958 0.33918 0.0
O2262 O 0.70671 0.56498 0.31656 0.0
O2263 O 0.73057 0.6216 0.32622 0.0
H2264 H 0.7033 0.75935 0.3146 0.0
H2265 H 0.69677 0.63996 0.28985 0.0
H2266 H 0.68739 0.8029 0.30101 0.0
H2267 H 0.68098 0.68549 0.27668 0.0
H2268 H 0.70981 0.64626 0.38384 0.0
H2269 H 0.68291 0.68147 0.34453 0.0
H2270 H 0.71582 0.61351 0.36188 0.0
H2271 H 0.6773 0.71232 0.36685 0.0
H2272 H 0.65442 0.69763 0.3189 0.0
H2273 H 0.65564 0.5496 0.31321 0.0
H2274 H 0.74437 0.7799 0.35534 0.0
H2275 H 0.70349 0.80802 0.35462 0.0
H2276 H 0.71905 0.48533 0.31975 0.0
H2277 H 0.69372 0.56166 0.29379 0.0
H2278 H 0.71822 0.41949 0.30394 0.0
H2279 H 0.69335 0.4945 0.2784 0.0
H2280 H 0.7526 0.59302 0.31561 0.0
H2281 H 0.73425 0.63573 0.35207 0.0
H2282 H 0.77271 0.57837 0.32829 0.0
H2283 H 0.75465 0.62022 0.36416 0.0
H2284 H 0.72848 0.60036 0.26071 0.0
H2285 H 0.74696 0.50021 0.2863 0.0
H2286 H 0.70289 0.46683 0.36631 0.0
H2287 H 0.74151 0.45032 0.3509 0.0
Li2288 Li 0.53395 0.67037 0.92194 0.0
Li2289 Li 0.55202 0.62707 0.93199 0.0
Li2290 Li 0.53472 0.58537 0.91865 0.0
Li2291 Li 0.53037 0.61365 0.94128 0.0
C2292 C 0.55225 0.6482 0.90117 0.0
N2293 N 0.56222 0.6802 0.87731 0.0
C2294 C 0.56374 0.67352 0.90101 0.0
C2295 C 0.546 0.63824 0.88915 0.0
C2296 C 0.56859 0.68965 0.88886 0.0
C2297 C 0.55114 0.65498 0.87721 0.0
C2298 C 0.54802 0.69944 0.94909 0.0
C2299 C 0.56177 0.70622 0.9684 0.0
N2300 N 0.56377 0.75164 0.96546 0.0
C2301 C 0.55014 0.74624 0.9463 0.0
C2302 C 0.5538 0.67929 0.96026 0.0
C2303 C 0.55816 0.77203 0.95469 0.0
C2304 C 0.51807 0.73916 0.90859 0.0
N2305 N 0.53019 0.72739 0.91261 0.0
C2306 C 0.5392 0.78975 0.89991 0.0
C2307 C 0.5406 0.75296 0.90884 0.0
C2308 C 0.52692 0.80101 0.89504 0.0
C2309 C 0.5162 0.77624 0.89977 0.0
H2310 H 0.50989 0.71897 0.91187 0.0
H2311 H 0.55008 0.74384 0.91245 0.0
C2312 C 0.57611 0.58465 0.93418 0.0
N2313 N 0.57022 0.62665 0.93503 0.0
C2314 C 0.58952 0.58122 0.93507 0.0
C2315 C 0.5906 0.6643 0.93786 0.0
C2316 C 0.57717 0.66619 0.93677 0.0
C2317 C 0.59687 0.62144 0.93685 0.0
H2318 H 0.57041 0.5539 0.93246 0.0
H2319 H 0.57237 0.69934 0.93688 0.0
C2320 C 0.50918 0.61711 0.91682 0.0
N2321 N 0.48789 0.60297 0.90072 0.0
C2322 C 0.49765 0.60065 0.9223 0.0
C2323 C 0.50983 0.62677 0.90318 0.0
C2324 C 0.48701 0.5936 0.91399 0.0
C2325 C 0.49898 0.61932 0.8952 0.0
C2326 C 0.54382 0.53152 0.94414 0.0
C2327 C 0.53674 0.49128 0.94164 0.0
C2328 C 0.55162 0.53414 0.95549 0.0
C2329 C 0.53751 0.45435 0.9506 0.0
C2330 C 0.55215 0.49643 0.96421 0.0
N2331 N 0.54515 0.45763 0.96159 0.0
C2332 C 0.54252 0.52027 0.89994 0.0
C2333 C 0.52072 0.51133 0.90675 0.0
C2334 C 0.54175 0.48042 0.89213 0.0
N2335 N 0.5321 0.53478 0.90703 0.0
C2336 C 0.51949 0.47147 0.89899 0.0
C2337 C 0.53016 0.45552 0.89173 0.0
H2338 H 0.55152 0.53911 0.90061 0.0
H2339 H 0.51274 0.52262 0.91285 0.0
C2340 C 0.52357 0.60959 0.96936 0.0
N2341 N 0.5212 0.59314 0.95687 0.0
C2342 C 0.51825 0.58739 0.98052 0.0
C2343 C 0.50786 0.53283 0.96573 0.0
C2344 C 0.51337 0.55597 0.9549 0.0
C2345 C 0.51047 0.54807 0.97872 0.0
H2346 H 0.52993 0.63885 0.97071 0.0
H2347 H 0.51188 0.54294 0.94491 0.0
O2348 O 0.54736 0.63222 0.913 0.0
O2349 O 0.54024 0.67368 0.94096 0.0
O2350 O 0.51976 0.62345 0.92477 0.0
O2351 O 0.54337 0.56772 0.93535 0.0
H2352 H 0.56879 0.68117 0.91018 0.0
H2353 H 0.53735 0.61738 0.889 0.0
H2354 H 0.5774 0.70969 0.88862 0.0
H2355 H 0.54636 0.64772 0.86784 0.0
H2356 H 0.56638 0.69099 0.97703 0.0
H2357 H 0.54564 0.76246 0.93776 0.0
H2358 H 0.55225 0.64316 0.96256 0.0
H2359 H 0.55992 0.80825 0.95264 0.0
H2360 H 0.54765 0.80864 0.8966 0.0
H2361 H 0.50657 0.78449 0.8963 0.0
H2362 H 0.59415 0.54774 0.93412 0.0
H2363 H 0.59607 0.69597 0.93904 0.0
H2364 H 0.49692 0.59344 0.93287 0.0
H2365 H 0.51858 0.64028 0.89884 0.0
H2366 H 0.47805 0.58074 0.91809 0.0
H2367 H 0.49937 0.62665 0.88462 0.0
H2368 H 0.53069 0.4886 0.93289 0.0
H2369 H 0.55729 0.56477 0.95749 0.0
H2370 H 0.53204 0.42305 0.94881 0.0
H2371 H 0.55814 0.49796 0.97303 0.0
H2372 H 0.55015 0.46866 0.88665 0.0
H2373 H 0.51046 0.45263 0.8989 0.0
H2374 H 0.52047 0.59987 0.99045 0.0
H2375 H 0.50196 0.50246 0.96402 0.0
Li2376 Li 0.71395 0.66463 0.91875 0.0
Li2377 Li 0.71849 0.63747 0.94119 0.0
Li2378 Li 0.71616 0.57974 0.92245 0.0
Li2379 Li 0.69752 0.62167 0.93216 0.0
C2380 C 0.73881 0.62622 0.91519 0.0
N2381 N 0.75754 0.61744 0.89573 0.0
C2382 C 0.75185 0.62531 0.91872 0.0
C2383 C 0.7353 0.62295 0.90176 0.0
C2384 C 0.76117 0.62079 0.90874 0.0
C2385 C 0.7449 0.61845 0.89207 0.0
C2386 C 0.7056 0.71857 0.94419 0.0
C2387 C 0.69963 0.7526 0.96529 0.0
N2388 N 0.70568 0.79248 0.9617 0.0
C2389 C 0.71185 0.75978 0.94077 0.0
C2390 C 0.69949 0.71485 0.95658 0.0
C2391 C 0.71179 0.79673 0.94976 0.0
C2392 C 0.7073 0.73094 0.89897 0.0
N2393 N 0.71695 0.71481 0.9069 0.0
C2394 C 0.73092 0.77599 0.89989 0.0
C2395 C 0.72862 0.73632 0.90746 0.0
C2396 C 0.72108 0.79331 0.89173 0.0
C2397 C 0.70921 0.77029 0.89116 0.0
H2398 H 0.69801 0.71425 0.89899 0.0
H2399 H 0.736 0.7236 0.91415 0.0
C2400 C 0.72422 0.64501 0.96926 0.0
N2401 N 0.72764 0.65809 0.95671 0.0
C2402 C 0.72982 0.66657 0.98036 0.0
C2403 C 0.74257 0.71368 0.9654 0.0
C2404 C 0.73674 0.69128 0.95461 0.0
C2405 C 0.73896 0.70178 0.97844 0.0
H2406 H 0.71684 0.61904 0.97067 0.0
H2407 H 0.7391 0.70157 0.94452 0.0
C2408 C 0.69514 0.61584 0.90189 0.0
N2409 N 0.68025 0.61957 0.87903 0.0
C2410 C 0.6832 0.6384 0.90203 0.0
C2411 C 0.69948 0.59509 0.89011 0.0
C2412 C 0.67582 0.63993 0.89037 0.0
C2413 C 0.69182 0.59741 0.87866 0.0
C2414 C 0.7008 0.54881 0.94786 0.0
C2415 C 0.69881 0.50312 0.94375 0.0
C2416 C 0.6938 0.56639 0.95865 0.0
C2417 C 0.68967 0.476 0.95037 0.0
C2418 C 0.68473 0.53822 0.965 0.0
N2419 N 0.68286 0.49399 0.96076 0.0
C2420 C 0.73282 0.50976 0.91045 0.0
C2421 C 0.71021 0.50116 0.90783 0.0
C2422 C 0.73505 0.47316 0.90155 0.0
N2423 N 0.72053 0.52365 0.91315 0.0
C2424 C 0.712 0.46457 0.89892 0.0
C2425 C 0.72453 0.45087 0.89551 0.0
H2426 H 0.74089 0.52804 0.91479 0.0
H2427 H 0.70055 0.51303 0.91008 0.0
C2428 C 0.67288 0.65595 0.93904 0.0
N2429 N 0.67936 0.6173 0.93513 0.0
C2430 C 0.65945 0.65554 0.93998 0.0
C2431 C 0.65957 0.57533 0.93304 0.0
C2432 C 0.67301 0.57742 0.93209 0.0
C2433 C 0.6527 0.61498 0.93686 0.0
H2434 H 0.67809 0.68763 0.94094 0.0
H2435 H 0.67836 0.54768 0.92858 0.0
O2436 O 0.72958 0.63045 0.92487 0.0
O2437 O 0.70511 0.68266 0.93529 0.0
O2438 O 0.70238 0.61298 0.91331 0.0
O2439 O 0.7096 0.57604 0.94138 0.0
H2440 H 0.75471 0.62797 0.92908 0.0
H2441 H 0.72527 0.62411 0.89886 0.0
H2442 H 0.7713 0.61993 0.91133 0.0
H2443 H 0.74231 0.61581 0.88165 0.0
H2444 H 0.6949 0.75024 0.97489 0.0
H2445 H 0.71659 0.76343 0.93123 0.0
H2446 H 0.6946 0.68329 0.95941 0.0
H2447 H 0.71654 0.82888 0.94721 0.0
H2448 H 0.74013 0.79356 0.9006 0.0
H2449 H 0.70141 0.78343 0.88504 0.0
H2450 H 0.72682 0.65679 0.99032 0.0
H2451 H 0.74955 0.74086 0.96361 0.0
H2452 H 0.67973 0.65522 0.91096 0.0
H2453 H 0.70864 0.5772 0.88977 0.0
H2454 H 0.66659 0.6574 0.89035 0.0
H2455 H 0.69507 0.58148 0.86948 0.0
H2456 H 0.70426 0.48875 0.93554 0.0
H2457 H 0.69523 0.6016 0.96198 0.0
H2458 H 0.68799 0.44066 0.94726 0.0
H2459 H 0.67915 0.55154 0.97328 0.0
H2460 H 0.74485 0.46325 0.8991 0.0
H2461 H 0.70369 0.448 0.89443 0.0
H2462 H 0.65435 0.68678 0.94281 0.0
H2463 H 0.65456 0.54371 0.93042 0.0
Li2464 Li 0.46993 0.36762 0.68994 0.0
Li2465 Li 0.4654 0.41749 0.6707 0.0
Li2466 Li 0.44719 0.37502 0.6828 0.0
Li2467 Li 0.46323 0.33467 0.66881 0.0
C2468 C 0.46229 0.45292 0.6999 0.0
N2469 N 0.46919 0.50972 0.72089 0.0
C2470 C 0.47402 0.4767 0.69961 0.0
C2471 C 0.45401 0.45823 0.71081 0.0
C2472 C 0.47735 0.50519 0.71033 0.0
C2473 C 0.45769 0.48706 0.72134 0.0
C2474 C 0.49025 0.39185 0.66913 0.0
C2475 C 0.50445 0.42307 0.65232 0.0
N2476 N 0.51262 0.43771 0.66207 0.0
C2477 C 0.4988 0.40703 0.67898 0.0
C2478 C 0.4931 0.39971 0.65568 0.0
C2479 C 0.51005 0.43021 0.6752 0.0
C2480 C 0.48543 0.30594 0.70283 0.0
N2481 N 0.4802 0.34849 0.705 0.0
C2482 C 0.48695 0.34611 0.72784 0.0
C2483 C 0.48096 0.36911 0.71719 0.0
C2484 C 0.49176 0.301 0.72601 0.0
C2485 C 0.49106 0.28118 0.71326 0.0
H2486 H 0.48455 0.2901 0.69309 0.0
H2487 H 0.47654 0.4024 0.71885 0.0
C2488 C 0.4593 0.48338 0.65122 0.0
N2489 N 0.46859 0.47331 0.66037 0.0
C2490 C 0.4607 0.52086 0.64254 0.0
C2491 C 0.48105 0.53863 0.65307 0.0
C2492 C 0.47927 0.50058 0.66158 0.0
C2493 C 0.47172 0.54871 0.64335 0.0
H2494 H 0.45077 0.46205 0.65055 0.0
H2495 H 0.48651 0.49259 0.66897 0.0
C2496 C 0.45459 0.29491 0.6982 0.0
N2497 N 0.45098 0.24796 0.72191 0.0
C2498 C 0.45752 0.24778 0.69905 0.0
C2499 C 0.44982 0.31818 0.70939 0.0
C2500 C 0.45563 0.22466 0.71114 0.0
C2501 C 0.44806 0.29382 0.72129 0.0
C2502 C 0.44631 0.36201 0.65178 0.0
C2503 C 0.43501 0.33565 0.65174 0.0
C2504 C 0.45356 0.36628 0.64008 0.0
C2505 C 0.43117 0.31369 0.63997 0.0
C2506 C 0.4494 0.34377 0.62852 0.0
N2507 N 0.43839 0.31815 0.62871 0.0
C2508 C 0.4227 0.41565 0.68746 0.0
C2509 C 0.42341 0.33369 0.689 0.0
C2510 C 0.40929 0.4152 0.68898 0.0
N2511 N 0.42941 0.37519 0.68734 0.0
C2512 C 0.41006 0.33167 0.69067 0.0
C2513 C 0.40288 0.37272 0.69041 0.0
H2514 H 0.42772 0.44804 0.68589 0.0
H2515 H 0.42893 0.30198 0.68849 0.0
C2516 C 0.47422 0.27934 0.64829 0.0
N2517 N 0.46489 0.2821 0.65779 0.0
C2518 C 0.47507 0.24018 0.64019 0.0
C2519 C 0.45687 0.20736 0.65203 0.0
C2520 C 0.45631 0.24723 0.65982 0.0
C2521 C 0.46631 0.2038 0.64208 0.0
H2522 H 0.48091 0.30763 0.64696 0.0
H2523 H 0.44899 0.25064 0.66745 0.0
O2524 O 0.45882 0.42506 0.68949 0.0
O2525 O 0.47922 0.36885 0.67261 0.0
O2526 O 0.45678 0.31848 0.68657 0.0
O2527 O 0.45045 0.38261 0.66331 0.0
H2528 H 0.48052 0.47289 0.69126 0.0
H2529 H 0.44483 0.44037 0.71111 0.0
H2530 H 0.48643 0.52365 0.71027 0.0
H2531 H 0.4514 0.49144 0.72986 0.0
H2532 H 0.50674 0.4297 0.64196 0.0
H2533 H 0.49676 0.40113 0.68942 0.0
H2534 H 0.48654 0.38852 0.64794 0.0
H2535 H 0.51674 0.44229 0.68272 0.0
H2536 H 0.48734 0.36248 0.73756 0.0
H2537 H 0.49462 0.24647 0.71146 0.0
H2538 H 0.45327 0.52799 0.63522 0.0
H2539 H 0.48965 0.55973 0.65398 0.0
H2540 H 0.46133 0.2294 0.6905 0.0
H2541 H 0.44762 0.35473 0.70891 0.0
H2542 H 0.45791 0.18822 0.71197 0.0
H2543 H 0.44443 0.31142 0.73004 0.0
H2544 H 0.42932 0.33185 0.66071 0.0
H2545 H 0.4624 0.38625 0.63999 0.0
H2546 H 0.42248 0.29299 0.6398 0.0
H2547 H 0.45496 0.3465 0.61942 0.0
H2548 H 0.40393 0.44738 0.68865 0.0
H2549 H 0.40532 0.29841 0.69161 0.0
H2550 H 0.48242 0.23824 0.63252 0.0
H2551 H 0.44997 0.17976 0.65364 0.0
Li2552 Li 0.30255 0.3755 0.68371 0.0
Li2553 Li 0.28704 0.41423 0.67024 0.0
Li2554 Li 0.28035 0.38904 0.69137 0.0
Li2555 Li 0.28447 0.3321 0.67266 0.0
C2556 C 0.29889 0.45159 0.69924 0.0
N2557 N 0.30841 0.48531 0.7231 0.0
C2558 C 0.30176 0.49863 0.70061 0.0
C2559 C 0.30088 0.42168 0.71003 0.0
C2560 C 0.30657 0.515 0.71274 0.0
C2561 C 0.30569 0.43941 0.722 0.0
C2562 C 0.30616 0.37886 0.65403 0.0
C2563 C 0.3127 0.36925 0.63111 0.0
N2564 N 0.32034 0.40737 0.63219 0.0
C2565 C 0.31408 0.4179 0.65492 0.0
C2566 C 0.30545 0.35429 0.64204 0.0
C2567 C 0.32116 0.43179 0.64376 0.0
C2568 C 0.32638 0.3302 0.68885 0.0
N2569 N 0.3205 0.37215 0.68781 0.0
C2570 C 0.34074 0.41121 0.68987 0.0
C2571 C 0.32737 0.41226 0.68838 0.0
C2572 C 0.34707 0.3685 0.6906 0.0
C2573 C 0.3398 0.32754 0.69024 0.0
H2574 H 0.3207 0.29888 0.68816 0.0
H2575 H 0.32256 0.44514 0.68717 0.0
C2576 C 0.28353 0.50691 0.66417 0.0
N2577 N 0.2851 0.46486 0.65829 0.0
C2578 C 0.28241 0.54665 0.65639 0.0
C2579 C 0.2842 0.49896 0.63662 0.0
C2580 C 0.28526 0.46005 0.64479 0.0
C2581 C 0.28289 0.54271 0.64249 0.0
H2582 H 0.28321 0.50952 0.67492 0.0
H2583 H 0.28623 0.42614 0.64036 0.0
C2584 C 0.28392 0.29593 0.69897 0.0
N2585 N 0.27045 0.22965 0.71315 0.0
C2586 C 0.27141 0.2837 0.69513 0.0
C2587 C 0.28958 0.27451 0.71001 0.0
C2588 C 0.26476 0.25007 0.70242 0.0
C2589 C 0.28261 0.24109 0.71706 0.0
C2590 C 0.26273 0.4026 0.66578 0.0
C2591 C 0.25556 0.44066 0.67016 0.0
C2592 C 0.26195 0.3887 0.65244 0.0
C2593 C 0.24781 0.46454 0.66106 0.0
C2594 C 0.25405 0.41342 0.64367 0.0
N2595 N 0.24722 0.45055 0.64812 0.0
C2596 C 0.26859 0.45717 0.70602 0.0
C2597 C 0.26551 0.38456 0.71654 0.0
C2598 C 0.26264 0.48009 0.71658 0.0
N2599 N 0.27015 0.4104 0.70624 0.0
C2600 C 0.25912 0.40611 0.72722 0.0
C2601 C 0.25784 0.45462 0.72738 0.0
H2602 H 0.27228 0.477 0.6977 0.0
H2603 H 0.26692 0.34751 0.71664 0.0
C2604 C 0.29155 0.24908 0.66051 0.0
N2605 N 0.28103 0.27557 0.66327 0.0
C2606 C 0.29054 0.21111 0.65193 0.0
C2607 C 0.26779 0.22738 0.64947 0.0
C2608 C 0.26922 0.26502 0.65816 0.0
C2609 C 0.27861 0.20056 0.64611 0.0
H2610 H 0.30085 0.25865 0.66456 0.0
H2611 H 0.26102 0.28677 0.66045 0.0
O2612 O 0.29401 0.43544 0.6874 0.0
O2613 O 0.29899 0.36503 0.66475 0.0
O2614 O 0.29066 0.32872 0.69202 0.0
O2615 O 0.27066 0.37956 0.67444 0.0
H2616 H 0.3003 0.52228 0.69237 0.0
H2617 H 0.29872 0.38523 0.70924 0.0
H2618 H 0.30883 0.55133 0.71393 0.0
H2619 H 0.30725 0.41667 0.73042 0.0
H2620 H 0.31223 0.35064 0.62175 0.0
H2621 H 0.31453 0.43779 0.66405 0.0
H2622 H 0.29929 0.32415 0.64116 0.0
H2623 H 0.32727 0.46211 0.64429 0.0
H2624 H 0.34614 0.44331 0.68995 0.0
H2625 H 0.3445 0.29407 0.69067 0.0
H2626 H 0.28137 0.58014 0.66114 0.0
H2627 H 0.28455 0.49513 0.62587 0.0
H2628 H 0.26682 0.30013 0.68669 0.0
H2629 H 0.29926 0.28369 0.71311 0.0
H2630 H 0.25507 0.24029 0.69958 0.0
H2631 H 0.28686 0.22424 0.72564 0.0
H2632 H 0.25603 0.45183 0.68044 0.0
H2633 H 0.2676 0.35983 0.64883 0.0
H2634 H 0.24227 0.49425 0.66429 0.0
H2635 H 0.25344 0.40329 0.6333 0.0
H2636 H 0.26181 0.51748 0.71635 0.0
H2637 H 0.25549 0.38539 0.7354 0.0
H2638 H 0.29907 0.1911 0.6495 0.0
H2639 H 0.25844 0.22001 0.64511 0.0
Li2640 Li 0.44733 0.37413 0.06873 0.0
Li2641 Li 0.46413 0.41344 0.08187 0.0
Li2642 Li 0.46971 0.37986 0.06071 0.0
Li2643 Li 0.46576 0.3314 0.08005 0.0
C2644 C 0.46175 0.47175 0.05965 0.0
N2645 N 0.47122 0.55611 0.051 0.0
C2646 C 0.47418 0.48596 0.06323 0.0
C2647 C 0.45422 0.50029 0.05151 0.0
C2648 C 0.47878 0.52873 0.05879 0.0
C2649 C 0.45915 0.54284 0.04728 0.0
C2650 C 0.44639 0.3891 0.09908 0.0
C2651 C 0.44867 0.41512 0.12185 0.0
N2652 N 0.43679 0.43501 0.12117 0.0
C2653 C 0.43416 0.40953 0.09866 0.0
C2654 C 0.45366 0.39157 0.11082 0.0
C2655 C 0.4295 0.43263 0.10991 0.0
C2656 C 0.4226 0.33392 0.06724 0.0
N2657 N 0.42947 0.37305 0.0647 0.0
C2658 C 0.41019 0.41466 0.05947 0.0
C2659 C 0.42359 0.41286 0.06075 0.0
C2660 C 0.40286 0.37521 0.06241 0.0
C2661 C 0.40915 0.33424 0.06615 0.0
H2662 H 0.42754 0.30304 0.07059 0.0
H2663 H 0.42926 0.44369 0.05916 0.0
C2664 C 0.47781 0.4735 0.09941 0.0
N2665 N 0.46648 0.46611 0.09292 0.0
C2666 C 0.47938 0.51285 0.10732 0.0
C2667 C 0.45765 0.53623 0.10156 0.0
C2668 C 0.45654 0.49674 0.09368 0.0
C2669 C 0.46916 0.54435 0.10847 0.0
H2670 H 0.48565 0.44913 0.09834 0.0
H2671 H 0.44776 0.49035 0.08815 0.0
C2672 C 0.4607 0.3037 0.04949 0.0
N2673 N 0.46542 0.26591 0.02466 0.0
C2674 C 0.47255 0.28264 0.04681 0.0
C2675 C 0.45118 0.30512 0.03962 0.0
C2676 C 0.47478 0.26388 0.03417 0.0
C2677 C 0.45377 0.2859 0.02711 0.0
C2678 C 0.4898 0.35268 0.08274 0.0
C2679 C 0.49842 0.3294 0.07436 0.0
C2680 C 0.49126 0.34928 0.09658 0.0
C2681 C 0.50834 0.30305 0.07996 0.0
C2682 C 0.50127 0.32242 0.1018 0.0
N2683 N 0.50954 0.30008 0.09345 0.0
C2684 C 0.4914 0.41002 0.04537 0.0
C2685 C 0.47197 0.4007 0.03319 0.0
C2686 C 0.4972 0.43213 0.03449 0.0
N2687 N 0.47895 0.39518 0.04459 0.0
C2688 C 0.47743 0.42226 0.02205 0.0
C2689 C 0.49009 0.43922 0.02276 0.0
H2690 H 0.49654 0.40768 0.05472 0.0
H2691 H 0.4619 0.39109 0.03302 0.0
C2692 C 0.46211 0.27113 0.10166 0.0
N2693 N 0.46918 0.27566 0.09028 0.0
C2694 C 0.46403 0.23361 0.11019 0.0
C2695 C 0.48031 0.20472 0.09509 0.0
C2696 C 0.47803 0.24294 0.08676 0.0
C2697 C 0.47325 0.20003 0.10698 0.0
H2698 H 0.45493 0.29667 0.10417 0.0
H2699 H 0.48339 0.24662 0.07758 0.0
O2700 O 0.45693 0.43034 0.06411 0.0
O2701 O 0.45125 0.36709 0.08806 0.0
O2702 O 0.45838 0.32272 0.06174 0.0
O2703 O 0.47994 0.37831 0.07746 0.0
H2704 H 0.48026 0.46428 0.06936 0.0
H2705 H 0.44465 0.48977 0.04846 0.0
H2706 H 0.48836 0.54014 0.06153 0.0
H2707 H 0.4534 0.56528 0.04101 0.0
H2708 H 0.45425 0.41766 0.13094 0.0
H2709 H 0.42836 0.40793 0.08972 0.0
H2710 H 0.46313 0.37595 0.11136 0.0
H2711 H 0.42008 0.44879 0.10968 0.0
H2712 H 0.40554 0.44685 0.0567 0.0
H2713 H 0.40369 0.3034 0.06858 0.0
H2714 H 0.4884 0.51865 0.11251 0.0
H2715 H 0.44965 0.56031 0.10223 0.0
H2716 H 0.47997 0.28107 0.05438 0.0
H2717 H 0.44194 0.32123 0.04158 0.0
H2718 H 0.48394 0.24771 0.03191 0.0
H2719 H 0.44653 0.28695 0.01934 0.0
H2720 H 0.49738 0.33113 0.06364 0.0
H2721 H 0.48464 0.36672 0.10322 0.0
H2722 H 0.51504 0.28473 0.07359 0.0
H2723 H 0.50245 0.31924 0.11248 0.0
H2724 H 0.50693 0.44544 0.03541 0.0
H2725 H 0.47163 0.42778 0.0132 0.0
H2726 H 0.45836 0.2308 0.11924 0.0
H2727 H 0.48746 0.17915 0.09231 0.0
Li2728 Li 0.28058 0.3704 0.06034 0.0
Li2729 Li 0.28297 0.42373 0.07905 0.0
Li2730 Li 0.30248 0.38237 0.069 0.0
Li2731 Li 0.28549 0.34026 0.0825 0.0
C2732 C 0.28648 0.45662 0.05054 0.0
N2733 N 0.27752 0.51071 0.0298 0.0
C2734 C 0.27443 0.47805 0.05146 0.0
C2735 C 0.29405 0.4631 0.03916 0.0
C2736 C 0.27004 0.50516 0.04085 0.0
C2737 C 0.28933 0.49047 0.02876 0.0
C2738 C 0.25796 0.38842 0.08031 0.0
C2739 C 0.24169 0.40116 0.09711 0.0
N2740 N 0.23368 0.4187 0.08762 0.0
C2741 C 0.24954 0.4063 0.0707 0.0
C2742 C 0.25399 0.38551 0.09361 0.0
C2743 C 0.23732 0.42152 0.0746 0.0
C2744 C 0.26117 0.32264 0.04664 0.0
N2745 N 0.27158 0.35046 0.04457 0.0
C2746 C 0.27083 0.33498 0.02111 0.0
C2747 C 0.27644 0.35712 0.0321 0.0
C2748 C 0.26025 0.30542 0.02305 0.0
C2749 C 0.25529 0.29981 0.03596 0.0
H2750 H 0.25778 0.31656 0.05669 0.0
H2751 H 0.28504 0.37762 0.03073 0.0
C2752 C 0.28948 0.49883 0.09482 0.0
N2753 N 0.27899 0.47977 0.08876 0.0
C2754 C 0.28807 0.5358 0.10367 0.0
C2755 C 0.26511 0.53468 0.09955 0.0
C2756 C 0.26697 0.49763 0.09071 0.0
C2757 C 0.27575 0.55359 0.10627 0.0
H2758 H 0.29895 0.48434 0.09306 0.0
H2759 H 0.25876 0.48275 0.08569 0.0
C2760 C 0.29491 0.29133 0.05576 0.0
N2761 N 0.29775 0.22463 0.03627 0.0
C2762 C 0.2886 0.24881 0.05701 0.0
C2763 C 0.30257 0.30015 0.04458 0.0
C2764 C 0.29018 0.21548 0.04704 0.0
C2765 C 0.30388 0.26597 0.03481 0.0
C2766 C 0.3003 0.38537 0.10117 0.0
C2767 C 0.31278 0.37276 0.105 0.0
C2768 C 0.29081 0.39232 0.11087 0.0
C2769 C 0.31553 0.36686 0.11854 0.0
C2770 C 0.29396 0.38615 0.12431 0.0
N2771 N 0.30614 0.3736 0.12783 0.0
C2772 C 0.32678 0.42428 0.06353 0.0
C2773 C 0.32692 0.34292 0.06689 0.0
C2774 C 0.34022 0.42466 0.06227 0.0
N2775 N 0.32048 0.3838 0.06588 0.0
C2776 C 0.34032 0.34167 0.06562 0.0
C2777 C 0.34707 0.38296 0.06342 0.0
H2778 H 0.32138 0.45628 0.06291 0.0
H2779 H 0.32164 0.31141 0.06895 0.0
C2780 C 0.27135 0.27163 0.0961 0.0
N2781 N 0.28333 0.2895 0.09405 0.0
C2782 C 0.2698 0.23207 0.10393 0.0
C2783 C 0.29292 0.23039 0.10737 0.0
C2784 C 0.29404 0.26963 0.09938 0.0
C2785 C 0.2807 0.21126 0.10962 0.0
H2786 H 0.26306 0.28753 0.09142 0.0
H2787 H 0.30346 0.28377 0.09719 0.0
O2788 O 0.29091 0.42979 0.06078 0.0
O2789 O 0.26991 0.37294 0.07666 0.0
O2790 O 0.29387 0.3237 0.06564 0.0
O2791 O 0.29739 0.39081 0.08796 0.0
H2792 H 0.26854 0.47383 0.06029 0.0
H2793 H 0.30344 0.44685 0.03835 0.0
H2794 H 0.26071 0.52182 0.0414 0.0
H2795 H 0.29505 0.49559 0.01985 0.0
H2796 H 0.2385 0.39931 0.10738 0.0
H2797 H 0.25243 0.40851 0.06034 0.0
H2798 H 0.26033 0.37136 0.10115 0.0
H2799 H 0.23072 0.43559 0.06729 0.0
H2800 H 0.27497 0.33949 0.01127 0.0
H2801 H 0.24723 0.2768 0.03779 0.0
H2802 H 0.29648 0.54977 0.10867 0.0
H2803 H 0.25548 0.5479 0.1013 0.0
H2804 H 0.28265 0.24153 0.06564 0.0
H2805 H 0.30747 0.33303 0.04347 0.0
H2806 H 0.2854 0.18231 0.04787 0.0
H2807 H 0.30979 0.27224 0.0261 0.0
H2808 H 0.32022 0.36732 0.09758 0.0
H2809 H 0.28114 0.40237 0.10805 0.0
H2810 H 0.32513 0.3569 0.12166 0.0
H2811 H 0.28671 0.39133 0.13193 0.0
H2812 H 0.34524 0.45706 0.06065 0.0
H2813 H 0.3454 0.30908 0.06664 0.0
H2814 H 0.26027 0.21756 0.10543 0.0
H2815 H 0.3015 0.21453 0.11154 0.0
C2816 C 0.1193 0.12855 0.32591 0.0
C2817 C 0.11253 0.12077 0.3138 0.0
C2818 C 0.13299 0.11452 0.30157 0.0
C2819 C 0.13973 0.12471 0.31354 0.0
N2820 N 0.13968 0.145 0.33689 0.0
N2821 N 0.11243 0.11022 0.28995 0.0
C2822 C 0.13298 0.13269 0.32566 0.0
C2823 C 0.11924 0.11478 0.30157 0.0
N2824 N 0.11261 0.13117 0.33767 0.0
N2825 N 0.13977 0.10385 0.29027 0.0
H2826 H 0.10238 0.10826 0.28966 0.0
H2827 H 0.11658 0.11088 0.28051 0.0
H2828 H 0.14982 0.10527 0.28976 0.0
H2829 H 0.1356 0.09108 0.28158 0.0
H2830 H 0.11693 0.13135 0.34704 0.0
H2831 H 0.10256 0.13054 0.33819 0.0
H2832 H 0.13537 0.15671 0.34563 0.0
H2833 H 0.14973 0.146 0.33731 0.0
C2834 C 0.13269 0.15087 0.92742 0.0
C2835 C 0.13925 0.12657 0.9377 0.0
C2836 C 0.11849 0.10168 0.94702 0.0
C2837 C 0.11199 0.12981 0.93754 0.0
N2838 N 0.11297 0.18882 0.92052 0.0
N2839 N 0.13852 0.08549 0.95864 0.0
C2840 C 0.11912 0.1567 0.92827 0.0
C2841 C 0.13218 0.10384 0.94791 0.0
N2842 N 0.13933 0.16676 0.91656 0.0
N2843 N 0.11164 0.07164 0.95482 0.0
H2844 H 0.14853 0.08666 0.95966 0.0
H2845 H 0.1338 0.07279 0.96705 0.0
H2846 H 0.10161 0.06877 0.95439 0.0
H2847 H 0.11595 0.04678 0.96089 0.0
H2848 H 0.13482 0.18033 0.90813 0.0
H2849 H 0.14924 0.16227 0.91536 0.0
H2850 H 0.11786 0.21271 0.9146 0.0
H2851 H 0.10305 0.1947 0.92099 0.0
C2852 C 0.88208 0.86781 0.6771 0.0
C2853 C 0.88899 0.87294 0.68923 0.0
C2854 C 0.86871 0.87245 0.70189 0.0
C2855 C 0.86179 0.87046 0.68969 0.0
N2856 N 0.86149 0.87131 0.66563 0.0
N2857 N 0.88925 0.88484 0.71302 0.0
C2858 C 0.86837 0.86947 0.67727 0.0
C2859 C 0.8824 0.87654 0.7016 0.0
N2860 N 0.88865 0.86035 0.66545 0.0
N2861 N 0.86217 0.86951 0.71371 0.0
H2862 H 0.89931 0.88671 0.71321 0.0
H2863 H 0.88504 0.89284 0.72215 0.0
H2864 H 0.85213 0.86765 0.71426 0.0
H2865 H 0.86664 0.86581 0.72295 0.0
H2866 H 0.88424 0.85082 0.65653 0.0
H2867 H 0.8987 0.86069 0.66481 0.0
H2868 H 0.86565 0.87637 0.65629 0.0
H2869 H 0.85143 0.87075 0.6653 0.0
C2870 C 0.8827 0.89291 0.05245 0.0
C2871 C 0.88921 0.88254 0.06455 0.0
C2872 C 0.86849 0.87407 0.07619 0.0
C2873 C 0.862 0.88643 0.06423 0.0
N2874 N 0.86252 0.91212 0.04137 0.0
N2875 N 0.88875 0.86721 0.0882 0.0
C2876 C 0.869 0.89715 0.05246 0.0
C2877 C 0.88222 0.8742 0.0765 0.0
N2878 N 0.88965 0.89786 0.04093 0.0
N2879 N 0.86148 0.86134 0.08718 0.0
H2880 H 0.89878 0.8645 0.08872 0.0
H2881 H 0.88439 0.86648 0.09755 0.0
H2882 H 0.85144 0.86326 0.08759 0.0
H2883 H 0.86547 0.84655 0.09569 0.0
H2884 H 0.88554 0.90048 0.03149 0.0
H2885 H 0.89971 0.89668 0.04066 0.0
H2886 H 0.86701 0.92526 0.0329 0.0
H2887 H 0.85248 0.91408 0.0409 0.0
C2888 C 0.11612 0.60363 0.80397 0.0
C2889 C 0.10918 0.60966 0.81606 0.0
C2890 C 0.12941 0.62073 0.82834 0.0
C2891 C 0.13638 0.61219 0.81639 0.0
N2892 N 0.13678 0.58981 0.79324 0.0
N2893 N 0.10891 0.61773 0.84 0.0
C2894 C 0.12984 0.60198 0.8043 0.0
C2895 C 0.11575 0.61642 0.82833 0.0
N2896 N 0.10956 0.60066 0.79216 0.0
N2897 N 0.13587 0.63413 0.8396 0.0
H2898 H 0.09886 0.61594 0.84037 0.0
H2899 H 0.11315 0.61727 0.84941 0.0
H2900 H 0.14591 0.63629 0.84011 0.0
H2901 H 0.13133 0.64613 0.84819 0.0
H2902 H 0.11398 0.60147 0.78285 0.0
H2903 H 0.0995 0.60034 0.79161 0.0
H2904 H 0.13264 0.57706 0.78452 0.0
H2905 H 0.14684 0.58949 0.79304 0.0
C2906 C 0.11868 0.64165 0.4462 0.0
C2907 C 0.11157 0.62153 0.43558 0.0
C2908 C 0.13163 0.59265 0.42567 0.0
C2909 C 0.13881 0.61722 0.43541 0.0
N2910 N 0.13928 0.67177 0.45366 0.0
N2911 N 0.11141 0.58584 0.41378 0.0
C2912 C 0.13237 0.64354 0.44536 0.0
C2913 C 0.11808 0.59916 0.42491 0.0
N2914 N 0.1124 0.6577 0.45726 0.0
N2915 N 0.13772 0.5621 0.41736 0.0
H2916 H 0.10151 0.59096 0.41266 0.0
H2917 H 0.11588 0.57385 0.40514 0.0
H2918 H 0.14763 0.55586 0.41773 0.0
H2919 H 0.13279 0.53973 0.411 0.0
H2920 H 0.11715 0.66829 0.46589 0.0
H2921 H 0.10238 0.65654 0.45829 0.0
H2922 H 0.135 0.69548 0.46012 0.0
H2923 H 0.14931 0.67452 0.45327 0.0
C2924 C 0.88134 0.37942 0.17765 0.0
C2925 C 0.88814 0.37784 0.18993 0.0
C2926 C 0.86777 0.36947 0.20217 0.0
C2927 C 0.86095 0.37421 0.18998 0.0
N2928 N 0.86086 0.39026 0.16635 0.0
N2929 N 0.88814 0.37711 0.21396 0.0
C2930 C 0.86763 0.38103 0.17777 0.0
C2931 C 0.88144 0.37447 0.20223 0.0
N2932 N 0.88799 0.37807 0.16586 0.0
N2933 N 0.86119 0.35907 0.21361 0.0
H2934 H 0.89818 0.37984 0.21434 0.0
H2935 H 0.88378 0.37987 0.22328 0.0
H2936 H 0.85116 0.35612 0.21394 0.0
H2937 H 0.86564 0.35022 0.22256 0.0
H2938 H 0.88361 0.3736 0.1566 0.0
H2939 H 0.89804 0.37803 0.16534 0.0
H2940 H 0.86515 0.40088 0.15747 0.0
H2941 H 0.85081 0.39068 0.16595 0.0
C2942 C 0.8839 0.38948 0.57536 0.0
C2943 C 0.89069 0.38572 0.56311 0.0
C2944 C 0.8703 0.38881 0.55069 0.0
C2945 C 0.86349 0.38883 0.56297 0.0
N2946 N 0.86342 0.38398 0.58699 0.0
N2947 N 0.89068 0.37712 0.5392 0.0
C2948 C 0.87018 0.38786 0.57532 0.0
C2949 C 0.88398 0.38417 0.55078 0.0
N2950 N 0.89058 0.39561 0.587 0.0
N2951 N 0.86368 0.39414 0.53899 0.0
H2952 H 0.90072 0.3747 0.53888 0.0
H2953 H 0.88634 0.37056 0.53003 0.0
H2954 H 0.85365 0.39679 0.53858 0.0
H2955 H 0.86809 0.3993 0.52978 0.0
H2956 H 0.88624 0.40394 0.59605 0.0
H2957 H 0.90064 0.3956 0.5875 0.0
H2958 H 0.86769 0.37752 0.5962 0.0
H2959 H 0.85336 0.38415 0.58742 0.0
C2960 C 0.63218 0.14886 0.80941 0.0
C2961 C 0.63904 0.12351 0.81924 0.0
C2962 C 0.61873 0.09393 0.82849 0.0
C2963 C 0.61184 0.12168 0.81922 0.0
N2964 N 0.61158 0.17895 0.80174 0.0
N2965 N 0.63923 0.07572 0.83896 0.0
C2966 C 0.61845 0.15008 0.8099 0.0
C2967 C 0.63242 0.09702 0.82901 0.0
N2968 N 0.63881 0.17103 0.79948 0.0
N2969 N 0.61216 0.06399 0.8366 0.0
H2970 H 0.64929 0.07574 0.8394 0.0
H2971 H 0.63499 0.06042 0.84727 0.0
H2972 H 0.60211 0.06197 0.83684 0.0
H2973 H 0.6166 0.03897 0.84249 0.0
H2974 H 0.63445 0.18588 0.79117 0.0
H2975 H 0.64886 0.1721 0.79907 0.0
H2976 H 0.61576 0.20434 0.79577 0.0
H2977 H 0.60152 0.17958 0.8015 0.0
C2978 C 0.63418 0.10186 0.44512 0.0
C2979 C 0.64081 0.12268 0.43427 0.0
C2980 C 0.62024 0.14605 0.42415 0.0
C2981 C 0.61358 0.12322 0.43466 0.0
N2982 N 0.61375 0.07696 0.45466 0.0
N2983 N 0.6406 0.16215 0.41308 0.0
C2984 C 0.62044 0.10051 0.44504 0.0
C2985 C 0.63395 0.14422 0.42369 0.0
N2986 N 0.64107 0.08392 0.45556 0.0
N2987 N 0.61339 0.16996 0.41472 0.0
H2988 H 0.65065 0.16396 0.41273 0.0
H2989 H 0.63631 0.17334 0.40427 0.0
H2990 H 0.60334 0.16994 0.41426 0.0
H2991 H 0.61754 0.19188 0.40769 0.0
H2992 H 0.63698 0.07268 0.46446 0.0
H2993 H 0.65113 0.08234 0.45566 0.0
H2994 H 0.618 0.05533 0.46169 0.0
H2995 H 0.6037 0.07717 0.45528 0.0
C2996 C 0.36943 0.87949 0.19963 0.0
C2997 C 0.36271 0.87943 0.1873 0.0
C2998 C 0.38321 0.88028 0.17505 0.0
C2999 C 0.38991 0.88299 0.18738 0.0
N3000 N 0.38974 0.89071 0.2113 0.0
N3001 N 0.36278 0.88536 0.1633 0.0
C3002 C 0.3831 0.88418 0.19966 0.0
C3003 C 0.36949 0.88141 0.175 0.0
N3004 N 0.36272 0.87407 0.21129 0.0
N3005 N 0.38999 0.87546 0.16341 0.0
H3006 H 0.35273 0.88455 0.1628 0.0
H3007 H 0.36707 0.89247 0.15414 0.0
H3008 H 0.40004 0.87623 0.16297 0.0
H3009 H 0.38575 0.86774 0.15427 0.0
H3010 H 0.36706 0.86872 0.22052 0.0
H3011 H 0.35268 0.87188 0.21165 0.0
H3012 H 0.38534 0.89689 0.22047 0.0
H3013 H 0.39978 0.89312 0.2117 0.0
C3014 C 0.36827 0.86698 0.57474 0.0
C3015 C 0.36142 0.8708 0.56251 0.0
C3016 C 0.38173 0.8666 0.54998 0.0
C3017 C 0.38861 0.8663 0.56222 0.0
N3018 N 0.38883 0.87136 0.58624 0.0
N3019 N 0.36133 0.87906 0.5386 0.0
C3020 C 0.38199 0.86781 0.57461 0.0
C3021 C 0.36807 0.87188 0.55014 0.0
N3022 N 0.36162 0.86153 0.58643 0.0
N3023 N 0.38828 0.86093 0.53824 0.0
H3024 H 0.35129 0.88198 0.53834 0.0
H3025 H 0.36564 0.88525 0.5294 0.0
H3026 H 0.3983 0.85787 0.53777 0.0
H3027 H 0.3838 0.85595 0.52906 0.0
H3028 H 0.36597 0.85313 0.59547 0.0
H3029 H 0.35157 0.86229 0.587 0.0
H3030 H 0.38464 0.8782 0.59547 0.0
H3031 H 0.39889 0.87046 0.58661 0.0
C3032 C 0.63193 0.63996 0.3048 0.0
C3033 C 0.63891 0.62198 0.31582 0.0
C3034 C 0.61866 0.59782 0.32639 0.0
C3035 C 0.61165 0.62026 0.3161 0.0
N3036 N 0.61146 0.66859 0.29646 0.0
N3037 N 0.63896 0.59091 0.33819 0.0
C3038 C 0.61824 0.64288 0.30552 0.0
C3039 C 0.63229 0.60276 0.32692 0.0
N3040 N 0.63836 0.65306 0.2935 0.0
N3041 N 0.61233 0.57072 0.33546 0.0
H3042 H 0.64894 0.59441 0.33905 0.0
H3043 H 0.6345 0.58155 0.3471 0.0
H3044 H 0.60235 0.56596 0.33534 0.0
H3045 H 0.61705 0.54959 0.34232 0.0
H3046 H 0.63373 0.6618 0.28463 0.0
H3047 H 0.64838 0.65143 0.29262 0.0
H3048 H 0.61582 0.69002 0.28943 0.0
H3049 H 0.60143 0.67153 0.29665 0.0
C3050 C 0.63171 0.62367 0.92471 0.0
C3051 C 0.63838 0.6151 0.93683 0.0
C3052 C 0.61782 0.60764 0.94881 0.0
C3053 C 0.61118 0.61896 0.93686 0.0
N3054 N 0.61143 0.64126 0.91368 0.0
N3055 N 0.63827 0.60257 0.9606 0.0
C3056 C 0.61803 0.62787 0.92486 0.0
C3057 C 0.63156 0.608 0.94894 0.0
N3058 N 0.63848 0.62705 0.91302 0.0
N3059 N 0.61094 0.59588 0.95996 0.0
H3060 H 0.64832 0.60063 0.96097 0.0
H3061 H 0.63403 0.60248 0.97 0.0
H3062 H 0.60089 0.59712 0.96038 0.0
H3063 H 0.61505 0.58233 0.96859 0.0
H3064 H 0.63423 0.6279 0.90363 0.0
H3065 H 0.64853 0.62629 0.91257 0.0
H3066 H 0.61581 0.65366 0.90505 0.0
H3067 H 0.60138 0.6425 0.91319 0.0
C3068 C 0.36815 0.3687 0.70295 0.0
C3069 C 0.36138 0.3671 0.69066 0.0
C3070 C 0.38182 0.3656 0.67833 0.0
C3071 C 0.38857 0.37077 0.69057 0.0
N3072 N 0.38851 0.38153 0.7144 0.0
N3073 N 0.36137 0.36886 0.6666 0.0
C3074 C 0.38183 0.37344 0.70286 0.0
C3075 C 0.36811 0.36673 0.67832 0.0
N3076 N 0.36148 0.36488 0.71467 0.0
N3077 N 0.38855 0.3587 0.66675 0.0
H3078 H 0.35132 0.36796 0.66613 0.0
H3079 H 0.36564 0.37448 0.65734 0.0
H3080 H 0.3986 0.35942 0.66624 0.0
H3081 H 0.38427 0.34917 0.65777 0.0
H3082 H 0.36584 0.36099 0.72395 0.0
H3083 H 0.35144 0.36232 0.71507 0.0
H3084 H 0.38415 0.38886 0.72351 0.0
H3085 H 0.39855 0.38386 0.71472 0.0
C3086 C 0.36842 0.3886 0.07503 0.0
C3087 C 0.36138 0.38254 0.06302 0.0
C3088 C 0.3815 0.36919 0.05069 0.0
C3089 C 0.38857 0.37785 0.06255 0.0
N3090 N 0.38916 0.40201 0.08558 0.0
N3091 N 0.36091 0.37295 0.03915 0.0
C3092 C 0.38214 0.38935 0.07461 0.0
C3093 C 0.36785 0.37453 0.05075 0.0
N3094 N 0.36198 0.39236 0.0869 0.0
N3095 N 0.38786 0.35475 0.03947 0.0
H3096 H 0.35088 0.37571 0.03888 0.0
H3097 H 0.36508 0.37215 0.0297 0.0
H3098 H 0.39788 0.35158 0.039 0.0
H3099 H 0.38324 0.34296 0.03091 0.0
H3100 H 0.36649 0.39125 0.09617 0.0
H3101 H 0.35194 0.3935 0.08758 0.0
H3102 H 0.38511 0.41595 0.09419 0.0
H3103 H 0.39923 0.40172 0.08579 0.0
C3104 C 0.9945 0.21525 0.25515 0.0
C3105 C 0.00626 0.22897 0.2612 0.0
C3106 C 0.00787 0.29499 0.24577 0.0
C3107 C 0.99568 0.28304 0.24034 0.0
N3108 N 0.97661 0.23531 0.24062 0.0
N3109 N 0.02344 0.28454 0.26358 0.0
C3110 C 0.98876 0.24415 0.24527 0.0
C3111 C 0.01277 0.26955 0.25684 0.0
N3112 N 0.98904 0.17381 0.25857 0.0
N3113 N 0.01485 0.33018 0.24018 0.0
H3114 H 0.02745 0.26619 0.2715 0.0
H3115 H 0.02782 0.3165 0.26199 0.0
H3116 H 0.01133 0.3508 0.23244 0.0
H3117 H 0.02442 0.33722 0.24258 0.0
H3118 H 0.98124 0.15916 0.25357 0.0
H3119 H 0.99291 0.15208 0.26586 0.0
H3120 H 0.97043 0.21085 0.24478 0.0
H3121 H 0.97229 0.25478 0.23309 0.0
C3122 C 0.23842 0.99567 0.25473 0.0
C3123 C 0.2458 0.03265 0.26012 0.0
C3124 C 0.26252 0.01949 0.24322 0.0
C3125 C 0.25583 0.9794 0.23879 0.0
N3126 N 0.23821 0.92568 0.24133 0.0
N3127 N 0.26553 0.07669 0.26067 0.0
C3128 C 0.24396 0.96654 0.2448 0.0
C3129 C 0.25803 0.04383 0.25467 0.0
N3130 N 0.22599 0.98917 0.2589 0.0
N3131 N 0.27296 0.03515 0.23621 0.0
H3132 H 0.26246 0.09589 0.2689 0.0
H3133 H 0.27514 0.08263 0.25814 0.0
H3134 H 0.27647 0.01827 0.22778 0.0
H3135 H 0.27744 0.06679 0.23803 0.0
H3136 H 0.21965 0.96588 0.25445 0.0
H3137 H 0.22163 0.01011 0.26607 0.0
H3138 H 0.23031 0.91182 0.24636 0.0
H3139 H 0.24196 0.90359 0.23407 0.0
C3140 C 0.01354 0.00858 1.00088 0.0
C3141 C 0.00519 0.02473 0.99066 0.0
C3142 C 0.98649 0.99449 0.00293 0.0
C3143 C 0.99495 0.97466 0.01249 0.0
N3144 N 0.01658 0.95675 0.01967 0.0
N3145 N 0.98397 0.02767 0.98083 0.0
C3146 C 0.0085 0.98003 0.01122 0.0
C3147 C 0.99172 0.01627 0.99138 0.0
N3148 N 0.02622 0.02167 1.00091 0.0
N3149 N 0.97346 0.99379 0.00509 0.0
H3150 H 0.98742 0.0442 0.97229 0.0
H3151 H 0.97435 0.01767 0.98009 0.0
H3152 H 0.96925 0.97775 0.01334 0.0
H3153 H 0.96687 0.01214 0.99929 0.0
H3154 H 0.03249 0.0152 0.0088 0.0
H3155 H 0.03024 0.04265 0.99352 0.0
H3156 H 0.02653 0.95515 0.01839 0.0
H3157 H 0.01323 0.93564 0.02738 0.0
C3158 C 0.25727 0.21582 0.99519 0.0
C3159 C 0.24477 0.22588 0.99022 0.0
C3160 C 0.24273 0.2901 0.00617 0.0
C3161 C 0.25486 0.278 0.01174 0.0
N3162 N 0.27259 0.22421 0.01329 0.0
N3163 N 0.22461 0.26689 0.99237 0.0
C3164 C 0.26182 0.23934 0.00674 0.0
C3165 C 0.2372 0.2614 0.99613 0.0
N3166 N 0.26498 0.18496 0.9886 0.0
N3167 N 0.23671 0.32988 0.01016 0.0
H3168 H 0.22022 0.24643 0.98509 0.0
H3169 H 0.21818 0.28888 0.99724 0.0
H3170 H 0.24045 0.35163 0.01751 0.0
H3171 H 0.22857 0.34334 0.00547 0.0
H3172 H 0.27471 0.18013 0.9908 0.0
H3173 H 0.26195 0.16664 0.98019 0.0
H3174 H 0.2773 0.19332 0.01104 0.0
H3175 H 0.2762 0.24056 0.02177 0.0
C3176 C 0.00491 0.79294 0.7474 0.0
C3177 C 0.99408 0.77763 0.73997 0.0
C3178 C 0.99302 0.7069 0.75358 0.0
C3179 C 0.00328 0.72378 0.76159 0.0
N3180 N 0.01717 0.78703 0.76789 0.0
N3181 N 0.97623 0.72472 0.73753 0.0
C3182 C 0.0087 0.76806 0.759 0.0
C3183 C 0.98766 0.7359 0.74352 0.0
N3184 N 0.01185 0.83035 0.74312 0.0
N3185 N 0.98868 0.66262 0.75532 0.0
H3186 H 0.97195 0.74532 0.73022 0.0
H3187 H 0.9704 0.69737 0.74062 0.0
H3188 H 0.99233 0.64052 0.76263 0.0
H3189 H 0.98222 0.64654 0.74885 0.0
H3190 H 0.02067 0.84001 0.74725 0.0
H3191 H 0.00935 0.84961 0.73471 0.0
H3192 H 0.02045 0.82106 0.76732 0.0
H3193 H 0.01998 0.77006 0.77659 0.0
C3194 C 0.7527 0.99778 0.76261 0.0
C3195 C 0.74218 0.02827 0.76022 0.0
C3196 C 0.74106 1.00019 0.73715 0.0
C3197 C 0.75268 0.97491 0.73903 0.0
N3198 N 0.77116 0.95881 0.75302 0.0
N3199 N 0.72822 0.06568 0.74422 0.0
C3200 C 0.75897 0.97623 0.75162 0.0
C3201 C 0.73689 0.03156 0.74719 0.0
N3202 N 0.75641 0.98773 0.77537 0.0
N3203 N 0.73375 0.99318 0.72599 0.0
H3204 H 0.7253 0.09054 0.75114 0.0
H3205 H 0.72501 0.07221 0.73455 0.0
H3206 H 0.7362 0.9691 0.71866 0.0
H3207 H 0.72461 0.00758 0.72474 0.0
H3208 H 0.76321 0.9623 0.77761 0.0
H3209 H 0.75174 0.00103 0.78375 0.0
H3210 H 0.77659 0.96311 0.76168 0.0
H3211 H 0.77635 0.94444 0.74513 0.0
C3212 C 0.75415 0.70726 0.99799 0.0
C3213 C 0.74438 0.72768 0.99002 0.0
C3214 C 0.74586 0.79945 0.00313 0.0
C3215 C 0.75496 0.77784 0.01167 0.0
N3216 N 0.76626 0.70912 0.01869 0.0
N3217 N 0.72939 0.79008 0.98616 0.0
C3218 C 0.75867 0.7311 0.00951 0.0
C3219 C 0.73981 0.77298 0.99291 0.0
N3220 N 0.75939 0.66573 0.99431 0.0
N3221 N 0.74324 0.84557 0.00461 0.0
H3222 H 0.72476 0.77163 0.97863 0.0
H3223 H 0.72468 0.82066 0.98871 0.0
H3224 H 0.74727 0.86573 0.01217 0.0
H3225 H 0.73783 0.86467 0.99781 0.0
H3226 H 0.76752 0.65144 0.99882 0.0
H3227 H 0.75624 0.64708 0.98602 0.0
H3228 H 0.7682 0.67376 0.0185 0.0
H3229 H 0.76977 0.72562 0.02719 0.0
C3230 C 0.23634 0.53827 0.74666 0.0
C3231 C 0.24085 0.53217 0.75992 0.0
C3232 C 0.25716 0.47738 0.75176 0.0
C3233 C 0.25165 0.47943 0.7388 0.0
N3234 N 0.234 0.50409 0.72475 0.0
N3235 N 0.25352 0.48698 0.77544 0.0
C3236 C 0.24063 0.50762 0.7365 0.0
C3237 C 0.25068 0.49912 0.76259 0.0
N3238 N 0.22831 0.57432 0.74366 0.0
N3239 N 0.26884 0.45649 0.7537 0.0
H3240 H 0.2487 0.50071 0.78367 0.0
H3241 H 0.2597 0.45976 0.77783 0.0
H3242 H 0.27415 0.44147 0.746 0.0
H3243 H 0.27384 0.45825 0.7627 0.0
H3244 H 0.22575 0.58297 0.73392 0.0
H3245 H 0.22527 0.59844 0.75074 0.0
H3246 H 0.22522 0.52062 0.72307 0.0
H3247 H 0.23657 0.48086 0.71724 0.0
C3248 C 0.01527 0.49167 0.49676 0.0
C3249 C 0.00707 0.52399 0.49025 0.0
C3250 C 0.98916 0.50194 0.505 0.0
C3251 C 0.99761 0.47193 0.51207 0.0
N3252 N 0.01896 0.44186 0.51592 0.0
N3253 N 0.98682 0.56469 0.48904 0.0
C3254 C 0.01075 0.46778 0.50828 0.0
C3255 C 0.99416 0.53042 0.49461 0.0
N3256 N 0.02727 0.48292 0.49168 0.0
N3257 N 0.9763 0.50245 0.50809 0.0
H3258 H 0.99013 0.58577 0.48131 0.0
H3259 H 0.97784 0.57469 0.49267 0.0
H3260 H 0.97235 0.48282 0.51581 0.0
H3261 H 0.96936 0.51961 0.50245 0.0
H3262 H 0.03317 0.45602 0.49493 0.0
H3263 H 0.03106 0.50079 0.48354 0.0
H3264 H 0.02893 0.44162 0.51467 0.0
H3265 H 0.0159 0.42268 0.52415 0.0
C3266 C 0.23512 0.74144 0.50252 0.0
C3267 C 0.2435 0.72635 0.49218 0.0
C3268 C 0.26204 0.75834 0.50433 0.0
C3269 C 0.25349 0.7777 0.51391 0.0
N3270 N 0.23176 0.79353 0.52118 0.0
N3271 N 0.26466 0.72618 0.48215 0.0
C3272 C 0.23998 0.7708 0.51275 0.0
C3273 C 0.2569 0.73627 0.49279 0.0
N3274 N 0.22259 0.72663 0.50273 0.0
N3275 N 0.27506 0.7597 0.50647 0.0
H3276 H 0.2613 0.70974 0.47356 0.0
H3277 H 0.27418 0.73736 0.48137 0.0
H3278 H 0.27921 0.77559 0.51477 0.0
H3279 H 0.2817 0.74175 0.50063 0.0
H3280 H 0.21636 0.73244 0.51071 0.0
H3281 H 0.21873 0.70481 0.49546 0.0
H3282 H 0.22178 0.79393 0.51995 0.0
H3283 H 0.23496 0.81542 0.52877 0.0
C3284 C 0.74335 0.44974 0.24687 0.0
C3285 C 0.75341 0.46806 0.23886 0.0
C3286 C 0.7539 0.53827 0.25273 0.0
C3287 C 0.74326 0.52127 0.26015 0.0
N3288 N 0.7262 0.46529 0.26271 0.0
N3289 N 0.7666 0.53323 0.23246 0.0
C3290 C 0.73749 0.47825 0.25675 0.0
C3291 C 0.75821 0.51338 0.2413 0.0
N3292 N 0.7397 0.40456 0.24537 0.0
N3293 N 0.76018 0.57735 0.25685 0.0
H3294 H 0.76993 0.51618 0.22396 0.0
H3295 H 0.76936 0.56785 0.23288 0.0
H3296 H 0.75723 0.59679 0.26508 0.0
H3297 H 0.76889 0.58853 0.25278 0.0
H3298 H 0.73343 0.3877 0.25187 0.0
H3299 H 0.74376 0.38262 0.23824 0.0
H3300 H 0.7208 0.4367 0.25973 0.0
H3301 H 0.72158 0.48565 0.26985 0.0
C3302 C 0.76242 0.26609 0.50154 0.0
C3303 C 0.75531 0.2721 0.51354 0.0
C3304 C 0.73845 0.2205 0.5049 0.0
C3305 C 0.7448 0.21901 0.49235 0.0
N3306 N 0.76159 0.24849 0.47794 0.0
N3307 N 0.73535 0.26227 0.52561 0.0
C3308 C 0.75645 0.24405 0.49044 0.0
C3309 C 0.74296 0.25134 0.51493 0.0
N3310 N 0.77503 0.27976 0.50087 0.0
N3311 N 0.72834 0.19137 0.50741 0.0
H3312 H 0.73818 0.28559 0.53299 0.0
H3313 H 0.72576 0.25182 0.52644 0.0
H3314 H 0.72496 0.1675 0.50043 0.0
H3315 H 0.72418 0.18766 0.51681 0.0
H3316 H 0.78104 0.27177 0.49286 0.0
H3317 H 0.77986 0.29516 0.50885 0.0
H3318 H 0.76929 0.27042 0.47579 0.0
H3319 H 0.75741 0.23382 0.46947 0.0
C3320 C 0.5099 0.25601 0.73677 0.0
C3321 C 0.49712 0.2736 0.7374 0.0
C3322 C 0.49496 0.24175 0.76001 0.0
C3323 C 0.50714 0.21955 0.7587 0.0
N3324 N 0.5247 0.19673 0.7443 0.0
N3325 N 0.47637 0.27252 0.74844 0.0
C3326 C 0.51416 0.22401 0.7466 0.0
C3327 C 0.4893 0.26335 0.74868 0.0
N3328 N 0.51818 0.27119 0.7271 0.0
N3329 N 0.48903 0.24429 0.77216 0.0
H3330 H 0.47171 0.28666 0.74017 0.0
H3331 H 0.47007 0.26151 0.7559 0.0
H3332 H 0.49303 0.23068 0.78086 0.0
H3333 H 0.48078 0.26411 0.77383 0.0
H3334 H 0.52796 0.26273 0.72698 0.0
H3335 H 0.51563 0.29609 0.72004 0.0
H3336 H 0.52945 0.19561 0.73513 0.0
H3337 H 0.52784 0.17162 0.75104 0.0
C3338 C 0.49195 0.97673 0.49924 0.0
C3339 C 0.49774 0.97774 0.51209 0.0
C3340 C 0.51326 0.03558 0.50404 0.0
C3341 C 0.50849 0.03023 0.49086 0.0
N3342 N 0.49519 0.98671 0.47551 0.0
N3343 N 0.51584 1.00039 0.52579 0.0
C3344 C 0.49836 0.99821 0.48832 0.0
C3345 C 0.50898 0.00492 0.51422 0.0
N3346 N 0.48008 0.95708 0.49751 0.0
N3347 N 0.52155 0.07093 0.50699 0.0
H3348 H 0.5133 0.97705 0.53329 0.0
H3349 H 0.52476 0.01614 0.52731 0.0
H3350 H 0.52457 0.09512 0.49992 0.0
H3351 H 0.52433 0.07905 0.5167 0.0
H3352 H 0.4749 0.95964 0.48862 0.0
H3353 H 0.47481 0.94239 0.5053 0.0
H3354 H 0.48876 0.96016 0.4732 0.0
H3355 H 0.49994 1.00021 0.46721 0.0
C3356 C 0.49646 0.72122 0.23802 0.0
C3357 C 0.49651 0.77039 0.2388 0.0
C3358 C 0.50582 0.76602 0.26129 0.0
C3359 C 0.50682 0.71715 0.26 0.0
N3360 N 0.50486 0.64851 0.24651 0.0
N3361 N 0.50302 0.84003 0.2502 0.0
C3362 C 0.50262 0.6948 0.24819 0.0
C3363 C 0.50168 0.79293 0.25019 0.0
N3364 N 0.49015 0.69973 0.22778 0.0
N3365 N 0.50848 0.78658 0.27328 0.0
H3366 H 0.5001 0.86086 0.24225 0.0
H3367 H 0.508 0.85815 0.25756 0.0
H3368 H 0.51157 0.76813 0.28163 0.0
H3369 H 0.5066 0.82129 0.2753 0.0
H3370 H 0.48848 0.66421 0.22743 0.0
H3371 H 0.48564 0.71784 0.2201 0.0
H3372 H 0.50337 0.63117 0.23753 0.0
H3373 H 0.50919 0.62796 0.25381 0.0
C3374 C 0.49075 0.51298 0.00934 0.0
C3375 C 0.49552 0.46751 0.01164 0.0
C3376 C 0.51127 0.47788 0.99359 0.0
C3377 C 0.50556 0.52121 0.99038 0.0
N3378 N 0.48874 0.57746 0.99396 0.0
N3379 N 0.50905 0.40389 0.00481 0.0
C3380 C 0.49499 0.53813 0.99793 0.0
C3381 C 0.50546 0.4492 0.00346 0.0
N3382 N 0.48247 0.53273 0.01831 0.0
N3383 N 0.52248 0.4648 0.98747 0.0
H3384 H 0.50502 0.38186 0.01193 0.0
H3385 H 0.51522 0.38707 0.9982 0.0
H3386 H 0.52706 0.48519 0.98031 0.0
H3387 H 0.52785 0.43597 0.99031 0.0
H3388 H 0.47975 0.56742 0.01799 0.0
H3389 H 0.47918 0.51551 0.02679 0.0
H3390 H 0.48008 0.58868 0.99814 0.0
H3391 H 0.49164 0.59705 0.98575 0.0
C3392 C 0.02467 0.41285 0.36909 0.0
C3393 C 0.02839 0.4123 0.3827 0.0
C3394 C 0.03132 0.32819 0.38184 0.0
C3395 C 0.02899 0.32955 0.36791 0.0
N3396 N 0.02464 0.37282 0.34782 0.0
N3397 N 0.03646 0.37117 0.40192 0.0
C3398 C 0.02591 0.37177 0.3614 0.0
C3399 C 0.03197 0.37037 0.38909 0.0
N3400 N 0.01976 0.45249 0.36362 0.0
N3401 N 0.03269 0.28647 0.38814 0.0
H3402 H 0.03683 0.40125 0.40767 0.0
H3403 H 0.04064 0.34274 0.40662 0.0
H3404 H 0.03242 0.25491 0.38308 0.0
H3405 H 0.03305 0.28275 0.39846 0.0
H3406 H 0.01562 0.454 0.35417 0.0
H3407 H 0.01888 0.48335 0.36896 0.0
H3408 H 0.02389 0.40326 0.34232 0.0
H3409 H 0.02523 0.34326 0.34187 0.0
C3410 C 0.22915 0.85815 0.379 0.0
C3411 C 0.21789 0.84763 0.38644 0.0
C3412 C 0.20785 0.92017 0.37926 0.0
C3413 C 0.21851 0.92818 0.37071 0.0
N3414 N 0.23877 0.9035 0.36122 0.0
N3415 N 0.19592 0.86501 0.39267 0.0
C3416 C 0.22906 0.89692 0.37028 0.0
C3417 C 0.20708 0.87776 0.38636 0.0
N3418 N 0.23998 0.83159 0.3805 0.0
N3419 N 0.19861 0.95358 0.38077 0.0
H3420 H 0.19503 0.83443 0.39813 0.0
H3421 H 0.18726 0.88291 0.3917 0.0
H3422 H 0.19883 0.98499 0.37564 0.0
H3423 H 0.19132 0.95198 0.38791 0.0
H3424 H 0.24892 0.84022 0.37645 0.0
H3425 H 0.24032 0.8026 0.3867 0.0
H3426 H 0.24596 0.8792 0.35935 0.0
H3427 H 0.23916 0.93205 0.35486 0.0
C3428 C 0.02204 0.89695 0.87799 0.0
C3429 C 0.03278 0.90531 0.88641 0.0
C3430 C 0.0419 0.82963 0.88068 0.0
C3431 C 0.03187 0.82349 0.87123 0.0
N3432 N 0.013 0.85203 0.85981 0.0
N3433 N 0.05358 0.88267 0.89502 0.0
C3434 C 0.02205 0.85725 0.86963 0.0
C3435 C 0.04288 0.87237 0.88761 0.0
N3436 N 0.01174 0.92659 0.87822 0.0
N3437 N 0.05032 0.7942 0.88318 0.0
H3438 H 0.05454 0.91327 0.90046 0.0
H3439 H 0.06191 0.86252 0.89508 0.0
H3440 H 0.04995 0.76258 0.87816 0.0
H3441 H 0.05702 0.79456 0.89092 0.0
H3442 H 0.00303 0.91995 0.87341 0.0
H3443 H 0.01151 0.95645 0.88407 0.0
H3444 H 0.0065 0.87782 0.85708 0.0
H3445 H 0.0125 0.8228 0.85371 0.0
C3446 C 0.22956 0.38508 0.86483 0.0
C3447 C 0.22272 0.42426 0.86962 0.0
C3448 C 0.2159 0.38129 0.88944 0.0
C3449 C 0.22305 0.34254 0.88484 0.0
N3450 N 0.23862 0.30949 0.86974 0.0
N3451 N 0.21151 0.46351 0.88739 0.0
C3452 C 0.23051 0.34509 0.87301 0.0
C3453 C 0.21657 0.42356 0.88225 0.0
N3454 N 0.23469 0.38554 0.85225 0.0
N3455 N 0.20807 0.37707 0.90037 0.0
H3456 H 0.21174 0.49501 0.8823 0.0
H3457 H 0.20807 0.46648 0.89711 0.0
H3458 H 0.20749 0.34691 0.90606 0.0
H3459 H 0.20147 0.40226 0.9033 0.0
H3460 H 0.23846 0.35634 0.84757 0.0
H3461 H 0.23443 0.41459 0.84607 0.0
H3462 H 0.24529 0.31112 0.862 0.0
H3463 H 0.23943 0.27949 0.87548 0.0
C3464 C 0.9596 0.64664 0.6302 0.0
C3465 C 0.97138 0.66888 0.63349 0.0
C3466 C 0.98359 0.60716 0.62247 0.0
C3467 C 0.97179 0.58711 0.61825 0.0
N3468 N 0.94862 0.59128 0.61605 0.0
N3469 N 0.99449 0.67474 0.63143 0.0
C3470 C 0.95979 0.60783 0.62154 0.0
C3471 C 0.98337 0.65037 0.62926 0.0
N3472 N 0.94826 0.66175 0.63569 0.0
N3473 N 0.99495 0.58424 0.6203 0.0
H3474 H 0.99467 0.70632 0.63649 0.0
H3475 H 0.00338 0.66559 0.62738 0.0
H3476 H 0.99545 0.55271 0.61525 0.0
H3477 H 0.00374 0.59454 0.62435 0.0
H3478 H 0.93959 0.64376 0.63488 0.0
H3479 H 0.94767 0.69036 0.64201 0.0
H3480 H 0.93977 0.60815 0.61686 0.0
H3481 H 0.94832 0.56264 0.60972 0.0
C3482 C 0.79454 0.09356 0.62435 0.0
C3483 C 0.78479 0.08758 0.63414 0.0
C3484 C 0.77464 0.1604 0.6273 0.0
C3485 C 0.7851 0.16852 0.61849 0.0
N3486 N 0.80614 0.14715 0.61018 0.0
N3487 N 0.76666 0.11797 0.64646 0.0
C3488 C 0.79538 0.13627 0.61744 0.0
C3489 C 0.77511 0.12171 0.63603 0.0
N3490 N 0.80274 0.05791 0.62141 0.0
N3491 N 0.76411 0.18892 0.62705 0.0
H3492 H 0.7667 0.09009 0.65307 0.0
H3493 H 0.76031 0.14422 0.64922 0.0
H3494 H 0.76346 0.21776 0.62081 0.0
H3495 H 0.75559 0.18193 0.63219 0.0
H3496 H 0.80914 0.05852 0.6134 0.0
H3497 H 0.80237 0.0259 0.62622 0.0
H3498 H 0.81451 0.1272 0.61024 0.0
H3499 H 0.80716 0.17826 0.605 0.0
C3500 C 0.96348 0.17215 0.12206 0.0
C3501 C 0.97069 0.17266 0.13407 0.0
C3502 C 0.97919 0.09539 0.12918 0.0
C3503 C 0.9708 0.0928 0.11803 0.0
N3504 N 0.95391 0.12597 0.10449 0.0
N3505 N 0.9845 0.13406 0.14994 0.0
C3506 C 0.9627 0.13056 0.11458 0.0
C3507 C 0.97838 0.13417 0.13785 0.0
N3508 N 0.95758 0.21174 0.11771 0.0
N3509 N 0.98806 0.06112 0.1313 0.0
H3510 H 0.98431 0.16222 0.15645 0.0
H3511 H 0.98902 0.10504 0.15394 0.0
H3512 H 0.98883 0.03204 0.12517 0.0
H3513 H 0.99534 0.06319 0.13843 0.0
H3514 H 0.95331 0.21499 0.10835 0.0
H3515 H 0.95791 0.24282 0.123 0.0
H3516 H 0.94672 0.15022 0.10252 0.0
H3517 H 0.95313 0.09622 0.09864 0.0
C3518 C 0.77663 0.62839 0.1396 0.0
C3519 C 0.78059 0.58573 0.13389 0.0
C3520 C 0.78485 0.62379 0.1125 0.0
C3521 C 0.78061 0.66626 0.11812 0.0
N3522 N 0.7707 0.70883 0.13608 0.0
N3523 N 0.7867 0.54033 0.11472 0.0
C3524 C 0.77594 0.66848 0.1314 0.0
C3525 C 0.78415 0.58268 0.12026 0.0
N3526 N 0.77389 0.63067 0.15294 0.0
N3527 N 0.78988 0.62315 0.09988 0.0
H3528 H 0.78668 0.50965 0.12021 0.0
H3529 H 0.78799 0.53485 0.10455 0.0
H3530 H 0.79003 0.65215 0.09367 0.0
H3531 H 0.79456 0.59472 0.09573 0.0
H3532 H 0.77241 0.66147 0.1581 0.0
H3533 H 0.7738 0.60164 0.15913 0.0
H3534 H 0.76588 0.71168 0.14515 0.0
H3535 H 0.77038 0.73921 0.13046 0.0
C3536 C 0.52746 0.32755 0.88308 0.0
C3537 C 0.52906 0.3293 0.86904 0.0
C3538 C 0.52951 0.41402 0.86981 0.0
C3539 C 0.52935 0.41204 0.88393 0.0
N3540 N 0.53028 0.36698 0.90421 0.0
N3541 N 0.53388 0.37339 0.84919 0.0
C3542 C 0.52887 0.3688 0.89065 0.0
C3543 C 0.53069 0.37235 0.86242 0.0
N3544 N 0.52427 0.2867 0.88913 0.0
N3545 N 0.5282 0.45564 0.86344 0.0
H3546 H 0.53501 0.34355 0.84346 0.0
H3547 H 0.53656 0.4035 0.84419 0.0
H3548 H 0.52725 0.48695 0.86854 0.0
H3549 H 0.52689 0.45871 0.85318 0.0
H3550 H 0.52164 0.28426 0.89914 0.0
H3551 H 0.52313 0.25577 0.88389 0.0
H3552 H 0.53143 0.33617 0.90948 0.0
H3553 H 0.53144 0.3964 0.91012 0.0
C3554 C 0.72767 0.83596 0.8711 0.0
C3555 C 0.72287 0.83715 0.88433 0.0
C3556 C 0.72027 0.92137 0.88304 0.0
C3557 C 0.72371 0.91939 0.86936 0.0
N3558 N 0.73008 0.87585 0.84992 0.0
N3559 N 0.71402 0.87933 0.90298 0.0
C3560 C 0.72736 0.87699 0.86328 0.0
C3561 C 0.7191 0.87951 0.89038 0.0
N3562 N 0.73263 0.79565 0.86609 0.0
N3563 N 0.71822 0.96339 0.88898 0.0
H3564 H 0.7135 0.84961 0.90887 0.0
H3565 H 0.70967 0.90793 0.90741 0.0
H3566 H 0.71868 0.99467 0.88379 0.0
H3567 H 0.71697 0.96784 0.8992 0.0
H3568 H 0.7375 0.79334 0.85704 0.0
H3569 H 0.73273 0.76472 0.87147 0.0
H3570 H 0.7313 0.84545 0.8445 0.0
H3571 H 0.73045 0.90553 0.844 0.0
C3572 C 0.52229 0.84264 0.37812 0.0
C3573 C 0.52913 0.84158 0.36588 0.0
C3574 C 0.535 0.92322 0.36848 0.0
C3575 C 0.52934 0.92279 0.38136 0.0
N3576 N 0.51872 0.88178 0.39922 0.0
N3577 N 0.54313 0.87839 0.34984 0.0
C3578 C 0.52322 0.88246 0.38639 0.0
C3579 C 0.53575 0.88129 0.36113 0.0
N3580 N 0.51472 0.8059 0.3817 0.0
N3581 N 0.53945 0.96392 0.36324 0.0
H3582 H 0.54377 0.84844 0.34407 0.0
H3583 H 0.54936 0.90445 0.34668 0.0
H3584 H 0.53919 0.9952 0.36844 0.0
H3585 H 0.54245 0.96761 0.35338 0.0
H3586 H 0.50842 0.8064 0.38979 0.0
H3587 H 0.51394 0.77593 0.37594 0.0
H3588 H 0.51552 0.85191 0.40399 0.0
H3589 H 0.51898 0.91062 0.40548 0.0
C3590 C 0.72423 0.32515 0.36802 0.0
C3591 C 0.72442 0.32719 0.38215 0.0
C3592 C 0.72549 0.41189 0.38129 0.0
C3593 C 0.72374 0.40991 0.36728 0.0
N3594 N 0.7198 0.36539 0.34731 0.0
N3595 N 0.72354 0.37217 0.40245 0.0
C3596 C 0.72272 0.36671 0.36061 0.0
C3597 C 0.72466 0.37049 0.38886 0.0
N3598 N 0.72581 0.28357 0.3617 0.0
N3599 N 0.72821 0.45326 0.3873 0.0
H3600 H 0.72301 0.34265 0.40839 0.0
H3601 H 0.72212 0.40273 0.40776 0.0
H3602 H 0.72885 0.48435 0.38204 0.0
H3603 H 0.73095 0.45622 0.39726 0.0
H3604 H 0.7271 0.28039 0.35144 0.0
H3605 H 0.72698 0.25244 0.36684 0.0
H3606 H 0.7175 0.33504 0.34224 0.0
H3607 H 0.71868 0.39508 0.3415 0.0
C3608 C 0.46712 0.58347 0.13061 0.0
C3609 C 0.47044 0.58609 0.1169 0.0
C3610 C 0.47532 0.66875 0.11913 0.0
C3611 C 0.47089 0.66699 0.13251 0.0
N3612 N 0.46185 0.6246 0.15101 0.0
N3613 N 0.47691 0.63035 0.09764 0.0
C3614 C 0.46666 0.62478 0.13829 0.0
C3615 C 0.47439 0.62848 0.11103 0.0
N3616 N 0.46457 0.54134 0.13627 0.0
N3617 N 0.48056 0.70883 0.11427 0.0
H3618 H 0.47683 0.60117 0.0915 0.0
H3619 H 0.47837 0.66098 0.09239 0.0
H3620 H 0.48106 0.73931 0.11983 0.0
H3621 H 0.48522 0.71134 0.1051 0.0
H3622 H 0.46345 0.53614 0.14648 0.0
H3623 H 0.46441 0.51053 0.13084 0.0
H3624 H 0.45718 0.59642 0.15531 0.0
H3625 H 0.46188 0.65375 0.15716 0.0
C3626 C 0.281 0.08375 0.11905 0.0
C3627 C 0.27967 0.08724 0.1331 0.0
C3628 C 0.27692 0.17135 0.13143 0.0
C3629 C 0.27948 0.1683 0.11756 0.0
N3630 N 0.28443 0.12326 0.09796 0.0
N3631 N 0.27689 0.13306 0.153 0.0
C3632 C 0.28156 0.12487 0.11128 0.0
C3633 C 0.27768 0.1307 0.13938 0.0
N3634 N 0.28165 0.04102 0.11318 0.0
N3635 N 0.27366 0.21311 0.13692 0.0
H3636 H 0.27678 0.1038 0.1591 0.0
H3637 H 0.27699 0.16385 0.15838 0.0
H3638 H 0.27342 0.24384 0.13146 0.0
H3639 H 0.27036 0.2172 0.14665 0.0
H3640 H 0.28126 0.03559 0.10293 0.0
H3641 H 0.28175 0.01021 0.11861 0.0
H3642 H 0.28757 0.09363 0.09303 0.0
H3643 H 0.28431 0.15244 0.09182 0.0
C3644 C 0.47677 0.12922 0.63511 0.0
C3645 C 0.46677 0.16227 0.63345 0.0
C3646 C 0.45636 0.11278 0.61682 0.0
C3647 C 0.46695 0.08176 0.61762 0.0
N3648 N 0.48823 0.0635 0.62581 0.0
N3649 N 0.44837 0.19016 0.62107 0.0
C3650 C 0.47746 0.09083 0.62629 0.0
C3651 C 0.45693 0.1554 0.62381 0.0
N3652 N 0.48534 0.13367 0.64541 0.0
N3653 N 0.44559 0.10083 0.60973 0.0
H3654 H 0.44854 0.22209 0.62593 0.0
H3655 H 0.44186 0.18899 0.61316 0.0
H3656 H 0.44477 0.06974 0.6045 0.0
H3657 H 0.43704 0.11977 0.60998 0.0
H3658 H 0.49196 0.10811 0.64801 0.0
H3659 H 0.48514 0.16135 0.65209 0.0
H3660 H 0.49675 0.07132 0.63083 0.0
H3661 H 0.48903 0.03489 0.61951 0.0
C3662 C 0.29434 0.60373 0.62939 0.0
C3663 C 0.28258 0.58483 0.63413 0.0
C3664 C 0.27051 0.64956 0.62446 0.0
C3665 C 0.28217 0.66665 0.61894 0.0
N3666 N 0.30486 0.65712 0.61424 0.0
N3667 N 0.25933 0.58511 0.63485 0.0
C3668 C 0.29401 0.64291 0.62086 0.0
C3669 C 0.2706 0.60644 0.63129 0.0
N3670 N 0.30585 0.58504 0.63338 0.0
N3671 N 0.25946 0.6752 0.62345 0.0
H3672 H 0.25907 0.55373 0.64001 0.0
H3673 H 0.25025 0.59651 0.63186 0.0
H3674 H 0.25903 0.70663 0.61834 0.0
H3675 H 0.25095 0.6672 0.62846 0.0
H3676 H 0.31475 0.60044 0.63154 0.0
H3677 H 0.30651 0.55576 0.63944 0.0
H3678 H 0.31341 0.6382 0.61401 0.0
H3679 H 0.30507 0.68621 0.60807 0.0
C3680 C 0.02282 0.88147 0.38651 0.0
C3681 C 0.0255 0.83488 0.38296 0.0
C3682 C 0.02858 0.8579 0.35955 0.0
C3683 C 0.02578 0.90444 0.36308 0.0
N3684 N 0.01836 0.96017 0.37926 0.0
N3685 N 0.02896 0.77682 0.36606 0.0
C3686 C 0.02227 0.91604 0.37637 0.0
C3687 C 0.02774 0.82253 0.36943 0.0
N3688 N 0.02127 0.89278 0.39967 0.0
N3689 N 0.0324 0.84789 0.34681 0.0
H3690 H 0.02874 0.75013 0.37307 0.0
H3691 H 0.0293 0.76478 0.35628 0.0
H3692 H 0.0325 0.87247 0.33918 0.0
H3693 H 0.0361 0.81599 0.34386 0.0
H3694 H 0.02081 0.92659 0.40321 0.0
H3695 H 0.02112 0.86812 0.40728 0.0
H3696 H 0.01438 0.97002 0.38835 0.0
H3697 H 0.01826 0.98674 0.37221 0.0
C3698 C 0.21618 0.42458 0.3727 0.0
C3699 C 0.22604 0.42557 0.38256 0.0
C3700 C 0.2344 0.35156 0.3741 0.0
C3701 C 0.22527 0.35293 0.36353 0.0
N3702 N 0.20947 0.39631 0.35105 0.0
N3703 N 0.24608 0.39478 0.39098 0.0
C3704 C 0.21678 0.39125 0.3623 0.0
C3705 C 0.23563 0.39045 0.38276 0.0
N3706 N 0.20588 0.454 0.37362 0.0
N3707 N 0.2415 0.31239 0.37628 0.0
H3708 H 0.24734 0.42292 0.39737 0.0
H3709 H 0.25402 0.37274 0.39057 0.0
H3710 H 0.24081 0.28298 0.37029 0.0
H3711 H 0.24724 0.30759 0.3847 0.0
H3712 H 0.19778 0.4515 0.36751 0.0
H3713 H 0.2048 0.47792 0.38132 0.0
H3714 H 0.20407 0.42591 0.34903 0.0
H3715 H 0.20984 0.37301 0.3431 0.0
C3716 C 0.01611 0.41059 0.87814 0.0
C3717 C 0.02055 0.40204 0.86496 0.0
C3718 C 0.02374 0.31984 0.8704 0.0
C3719 C 0.02075 0.32955 0.88396 0.0
N3720 N 0.01419 0.38332 0.90101 0.0
N3721 N 0.02889 0.34974 0.84836 0.0
C3722 C 0.01684 0.37467 0.88788 0.0
C3723 C 0.02432 0.35682 0.861 0.0
N3724 N 0.01116 0.45313 0.88129 0.0
N3725 N 0.02601 0.27516 0.86653 0.0
H3726 H 0.02882 0.37542 0.84104 0.0
H3727 H 0.03333 0.31933 0.84523 0.0
H3728 H 0.02604 0.24741 0.87317 0.0
H3729 H 0.02695 0.26477 0.85664 0.0
H3730 H 0.00659 0.46071 0.89026 0.0
H3731 H 0.01081 0.48049 0.8745 0.0
H3732 H 0.0128 0.41628 0.90495 0.0
H3733 H 0.01394 0.35734 0.90824 0.0
C3734 C 0.22147 0.92838 0.86942 0.0
C3735 C 0.22447 0.91727 0.88288 0.0
C3736 C 0.22825 0.83627 0.8765 0.0
C3737 C 0.22375 0.84636 0.86344 0.0
N3738 N 0.2153 0.90071 0.84744 0.0
N3739 N 0.2302 0.86099 0.89959 0.0
C3740 C 0.22026 0.89219 0.85985 0.0
C3741 C 0.22781 0.8713 0.8865 0.0
N3742 N 0.21989 0.97367 0.8658 0.0
N3743 N 0.23309 0.79326 0.87925 0.0
H3744 H 0.23051 0.88611 0.90706 0.0
H3745 H 0.23118 0.82742 0.90322 0.0
H3746 H 0.23342 0.76674 0.87219 0.0
H3747 H 0.2377 0.78472 0.88813 0.0
H3748 H 0.21898 0.98472 0.85596 0.0
H3749 H 0.2205 0.00093 0.87258 0.0
H3750 H 0.21109 0.93198 0.84468 0.0
H3751 H 0.2147 0.8754 0.84005 0.0
C3752 C 0.97302 0.17494 0.63062 0.0
C3753 C 0.97277 0.16404 0.6168 0.0
C3754 C 0.97359 0.08104 0.62213 0.0
C3755 C 0.97246 0.09188 0.6359 0.0
N3756 N 0.9702 0.14831 0.65344 0.0
N3757 N 0.97192 0.10747 0.59917 0.0
C3758 C 0.97201 0.13866 0.64021 0.0
C3759 C 0.9729 0.11724 0.61248 0.0
N3760 N 0.9744 0.22002 0.63455 0.0
N3761 N 0.9755 0.0361 0.6183 0.0
H3762 H 0.97183 0.13306 0.59182 0.0
H3763 H 0.97042 0.07435 0.59539 0.0
H3764 H 0.97579 0.00864 0.62506 0.0
H3765 H 0.97776 0.02619 0.6086 0.0
H3766 H 0.97602 0.23009 0.64437 0.0
H3767 H 0.97492 0.2475 0.62781 0.0
H3768 H 0.96824 0.18128 0.65711 0.0
H3769 H 0.96989 0.12271 0.66077 0.0
C3770 C 0.77902 0.57957 0.62999 0.0
C3771 C 0.77731 0.58974 0.61624 0.0
C3772 C 0.77364 0.67164 0.62169 0.0
C3773 C 0.77682 0.66231 0.63521 0.0
N3774 N 0.78342 0.60858 0.65228 0.0
N3775 N 0.77381 0.64522 0.59867 0.0
C3776 C 0.77965 0.61649 0.6394 0.0
C3777 C 0.77474 0.63572 0.612 0.0
N3778 N 0.77985 0.53446 0.63406 0.0
N3779 N 0.7694 0.71481 0.61819 0.0
H3780 H 0.77418 0.61958 0.59135 0.0
H3781 H 0.77345 0.67858 0.59477 0.0
H3782 H 0.76864 0.74198 0.625 0.0
H3783 H 0.76567 0.7229 0.60883 0.0
H3784 H 0.77973 0.52426 0.64401 0.0
H3785 H 0.77963 0.50662 0.62743 0.0
H3786 H 0.78712 0.57716 0.65562 0.0
H3787 H 0.78359 0.63445 0.65954 0.0
C3788 C 0.97004 0.63971 0.14053 0.0
C3789 C 0.97487 0.59544 0.13696 0.0
C3790 C 0.97984 0.62364 0.1144 0.0
C3791 C 0.97526 0.66816 0.11806 0.0
N3792 N 0.96837 0.72141 0.13517 0.0
N3793 N 0.98655 0.54694 0.12159 0.0
C3794 C 0.97114 0.67707 0.13133 0.0
C3795 C 0.98046 0.58796 0.1242 0.0
N3796 N 0.96389 0.64551 0.15249 0.0
N3797 N 0.98329 0.61523 0.10145 0.0
H3798 H 0.98712 0.52016 0.12856 0.0
H3799 H 0.99192 0.54067 0.11301 0.0
H3800 H 0.98349 0.64103 0.09417 0.0
H3801 H 0.98527 0.58237 0.09771 0.0
H3802 H 0.95875 0.67519 0.15503 0.0
H3803 H 0.96318 0.61933 0.15962 0.0
H3804 H 0.96663 0.73109 0.14501 0.0
H3805 H 0.96886 0.74949 0.12866 0.0
C3806 C 0.78057 0.11618 0.13809 0.0
C3807 C 0.77486 0.15964 0.13509 0.0
C3808 C 0.76926 0.13204 0.11263 0.0
C3809 C 0.77461 0.08813 0.11578 0.0
N3810 N 0.78264 0.0349 0.13235 0.0
N3811 N 0.76136 0.20598 0.1208 0.0
C3812 C 0.77941 0.07913 0.1288 0.0
C3813 C 0.76842 0.16657 0.12275 0.0
N3814 N 0.7876 0.11091 0.14953 0.0
N3815 N 0.76552 0.14145 0.09984 0.0
H3816 H 0.76054 0.23183 0.12803 0.0
H3817 H 0.7554 0.21123 0.11257 0.0
H3818 H 0.7659 0.11698 0.0922 0.0
H3819 H 0.76293 0.17436 0.09655 0.0
H3820 H 0.79327 0.08197 0.15151 0.0
H3821 H 0.78853 0.13694 0.15668 0.0
H3822 H 0.78495 0.02521 0.14207 0.0
H3823 H 0.78188 0.00688 0.12583 0.0
C3824 C 0.52607 0.88521 0.88855 0.0
C3825 C 0.52549 0.83792 0.88471 0.0
C3826 C 0.5246 0.86051 0.86103 0.0
C3827 C 0.52515 0.90783 0.86487 0.0
N3828 N 0.52504 0.96625 0.88206 0.0
N3829 N 0.52295 0.7797 0.86768 0.0
C3830 C 0.52543 0.92045 0.87859 0.0
C3831 C 0.52434 0.82536 0.87104 0.0
N3832 N 0.52757 0.89622 0.90174 0.0
N3833 N 0.52465 0.84936 0.84776 0.0
H3834 H 0.52339 0.75287 0.87462 0.0
H3835 H 0.52072 0.768 0.85815 0.0
H3836 H 0.52406 0.87412 0.84021 0.0
H3837 H 0.52576 0.81594 0.84408 0.0
H3838 H 0.52961 0.92929 0.90525 0.0
H3839 H 0.52732 0.87157 0.90934 0.0
H3840 H 0.52385 0.97822 0.89177 0.0
H3841 H 0.52523 0.99305 0.87511 0.0
C3842 C 0.72877 0.36808 0.88887 0.0
C3843 C 0.72645 0.4147 0.8851 0.0
C3844 C 0.72402 0.39105 0.86168 0.0
C3845 C 0.72646 0.34451 0.86543 0.0
N3846 N 0.73375 0.28955 0.88186 0.0
N3847 N 0.72453 0.47238 0.86785 0.0
C3848 C 0.72969 0.33335 0.87882 0.0
C3849 C 0.72493 0.42673 0.87145 0.0
N3850 N 0.72952 0.35675 0.9021 0.0
N3851 N 0.72031 0.40085 0.8489 0.0
H3852 H 0.72509 0.49932 0.87476 0.0
H3853 H 0.72473 0.48375 0.858 0.0
H3854 H 0.71994 0.37584 0.8414 0.0
H3855 H 0.71686 0.43303 0.84587 0.0
H3856 H 0.72967 0.32285 0.90561 0.0
H3857 H 0.72919 0.38138 0.9097 0.0
H3858 H 0.73747 0.28015 0.89112 0.0
H3859 H 0.73442 0.26327 0.87475 0.0
C3860 C 0.52807 0.42812 0.38135 0.0
C3861 C 0.52433 0.41754 0.36805 0.0
C3862 C 0.52006 0.33693 0.37458 0.0
C3863 C 0.52513 0.3464 0.38746 0.0
N3864 N 0.53463 0.39959 0.40313 0.0
N3865 N 0.51725 0.36228 0.35163 0.0
C3866 C 0.52922 0.39175 0.39089 0.0
C3867 C 0.52037 0.37206 0.36458 0.0
N3868 N 0.53044 0.47309 0.38486 0.0
N3869 N 0.51485 0.29437 0.37199 0.0
H3870 H 0.51681 0.38756 0.3442 0.0
H3871 H 0.51575 0.32895 0.34801 0.0
H3872 H 0.5147 0.26765 0.37899 0.0
H3873 H 0.50982 0.28633 0.36331 0.0
H3874 H 0.5319 0.48405 0.39463 0.0
H3875 H 0.53003 0.50041 0.37808 0.0
H3876 H 0.53928 0.43018 0.40575 0.0
H3877 H 0.5351 0.3743 0.41055 0.0
C3878 C 0.72777 0.91682 0.37301 0.0
C3879 C 0.72607 0.90448 0.38663 0.0
C3880 C 0.72521 0.82214 0.38046 0.0
C3881 C 0.72573 0.83482 0.36677 0.0
N3882 N 0.72683 0.89342 0.34972 0.0
N3883 N 0.72253 0.84658 0.40351 0.0
C3884 C 0.72692 0.88198 0.36297 0.0
C3885 C 0.72471 0.85737 0.39041 0.0
N3886 N 0.73027 0.96192 0.36973 0.0
N3887 N 0.72527 0.7763 0.38391 0.0
H3888 H 0.72271 0.87124 0.41112 0.0
H3889 H 0.71992 0.81381 0.40686 0.0
H3890 H 0.72515 0.74959 0.3769 0.0
H3891 H 0.72627 0.76435 0.39364 0.0
H3892 H 0.73292 0.97286 0.36023 0.0
H3893 H 0.73056 0.98854 0.37676 0.0
H3894 H 0.72613 0.92716 0.34617 0.0
H3895 H 0.72678 0.86872 0.34213 0.0
C3896 C 0.48163 0.16797 0.12863 0.0
C3897 C 0.47533 0.1603 0.11624 0.0
C3898 C 0.4714 0.07939 0.12257 0.0
C3899 C 0.47608 0.08894 0.1356 0.0
N3900 N 0.48464 0.14328 0.15156 0.0
N3901 N 0.46304 0.11019 0.10179 0.0
C3902 C 0.48103 0.13342 0.13876 0.0
C3903 C 0.46998 0.11626 0.11326 0.0
N3904 N 0.48836 0.2081 0.13059 0.0
N3905 N 0.46852 0.03483 0.11904 0.0
H3906 H 0.46191 0.13609 0.09463 0.0
H3907 H 0.45761 0.08066 0.0998 0.0
H3908 H 0.46948 0.00695 0.12558 0.0
H3909 H 0.46633 0.02483 0.10932 0.0
H3910 H 0.49423 0.214 0.13885 0.0
H3911 H 0.48902 0.23398 0.12336 0.0
H3912 H 0.48692 0.17647 0.15485 0.0
H3913 H 0.48444 0.11879 0.15921 0.0
C3914 C 0.27674 0.61647 0.13964 0.0
C3915 C 0.27438 0.6628 0.1356 0.0
C3916 C 0.27211 0.63739 0.11232 0.0
C3917 C 0.27414 0.59091 0.11641 0.0
N3918 N 0.27548 0.53474 0.13414 0.0
N3919 N 0.26699 0.71627 0.11882 0.0
C3920 C 0.27553 0.58002 0.13016 0.0
C3921 C 0.27115 0.67286 0.12214 0.0
N3922 N 0.28073 0.6075 0.15239 0.0
N3923 N 0.27169 0.64795 0.09903 0.0
H3924 H 0.26615 0.74295 0.12579 0.0
H3925 H 0.26327 0.72476 0.10948 0.0
H3926 H 0.27222 0.62292 0.09155 0.0
H3927 H 0.27176 0.68169 0.09537 0.0
H3928 H 0.28409 0.5753 0.15551 0.0
H3929 H 0.28155 0.63311 0.15967 0.0
H3930 H 0.27515 0.52451 0.14409 0.0
H3931 H 0.27461 0.50721 0.12745 0.0
C3932 C 0.46948 0.63345 0.63785 0.0
C3933 C 0.47331 0.58825 0.63393 0.0
C3934 C 0.47693 0.6156 0.611 0.0
C3935 C 0.47344 0.66104 0.61501 0.0
N3936 N 0.46882 0.71549 0.63259 0.0
N3937 N 0.48292 0.53758 0.61764 0.0
C3938 C 0.47048 0.67063 0.62856 0.0
C3939 C 0.47774 0.57977 0.62075 0.0
N3940 N 0.46443 0.64044 0.65029 0.0
N3941 N 0.479 0.60639 0.59779 0.0
H3942 H 0.48356 0.51054 0.62452 0.0
H3943 H 0.48753 0.53042 0.60865 0.0
H3944 H 0.47879 0.63197 0.59044 0.0
H3945 H 0.4801 0.57314 0.59395 0.0
H3946 H 0.46002 0.67116 0.65325 0.0
H3947 H 0.46386 0.61438 0.65747 0.0
H3948 H 0.46799 0.7254 0.64254 0.0
H3949 H 0.46933 0.74352 0.62604 0.0
C3950 C 0.27847 0.1374 0.6126 0.0
C3951 C 0.27822 0.09064 0.61692 0.0
C3952 C 0.27609 0.11638 0.64021 0.0
C3953 C 0.27771 0.1629 0.63599 0.0
N3954 N 0.28162 0.21821 0.61843 0.0
N3955 N 0.27802 0.03474 0.63479 0.0
C3956 C 0.27916 0.1736 0.62223 0.0
C3957 C 0.27728 0.07987 0.63072 0.0
N3958 N 0.27782 0.14713 0.59926 0.0
N3959 N 0.27321 0.10726 0.65326 0.0
H3960 H 0.27863 0.00701 0.62816 0.0
H3961 H 0.27892 0.02477 0.64473 0.0
H3962 H 0.27248 0.13314 0.66049 0.0
H3963 H 0.27055 0.0747 0.65676 0.0
H3964 H 0.27659 0.18037 0.59546 0.0
H3965 H 0.27746 0.12144 0.59195 0.0
H3966 H 0.28429 0.22759 0.60879 0.0
H3967 H 0.28185 0.24583 0.62513 0.0
loop_
_geom_bond_atom_site_label_1
_geom_bond_atom_site_label_2
_geom_bond_distance
_geom_bond_site_symmetry_2
_ccdc_geom_bond_type
Li0 N17 1.990 . S
Li0 O60 1.956 . S
Li0 O61 1.970 . S
Li0 O62 1.961 . S
Li1 N25 1.990 . S
Li1 O60 1.970 . S
Li1 O61 1.956 . S
Li1 O63 1.961 . S
Li2 N47 1.990 . S
Li2 O60 1.961 . S
Li2 O62 1.956 . S
Li2 O63 1.970 . S
Li3 N53 1.990 . S
Li3 O61 1.961 . S
Li3 O62 1.970 . S
Li3 O63 1.956 . S
C4 C6 1.348 . S
C4 C7 1.356 . S
C4 O60 1.325 . S
N5 C8 1.314 . S
N5 C9 1.279 . S
C6 C4 1.348 . S
C6 C8 1.353 . S
C6 H64 0.929 . S
C7 C4 1.356 . S
C7 C9 1.358 . S
C7 H65 0.930 . S
C8 N5 1.314 . S
C8 C6 1.353 . S
C8 H66 0.930 . S
C9 N5 1.279 . S
C9 C7 1.358 . S
C9 H67 0.930 . S
C10 C13 1.348 1_455 S
C10 C14 1.356 . S
C10 O61 1.325 . S
C11 N12 1.279 . S
C11 C14 1.358 1_655 S
C11 H68 0.930 . S
N12 C11 1.279 . S
N12 C15 1.314 . S
C13 C10 1.348 1_655 S
C13 C15 1.353 . S
C13 H69 0.921 1_655 S
C14 C10 1.356 . S
C14 C11 1.358 1_455 S
C14 H70 0.930 . S
C15 N12 1.314 . S
C15 C13 1.353 . S
C15 H71 0.930 . S
C16 N17 1.314 . S
C16 C21 1.353 . S
C16 H22 0.930 . S
N17 Li0 1.990 . S
N17 C16 1.314 . S
N17 C19 1.279 . S
C18 C19 1.358 . S
C18 C20 1.356 . S
C18 H72 0.930 . S
C19 N17 1.279 . S
C19 C18 1.358 . S
C19 H23 0.930 . S
C20 C18 1.356 . S
C20 C21 1.348 . S
C21 C16 1.353 . S
C21 C20 1.348 . S
C21 H73 0.929 . S
H22 C16 0.930 . S
H23 C19 0.930 . S
C24 N25 1.314 . S
C24 C26 1.353 . S
C24 H30 0.930 . S
N25 Li1 1.990 . S
N25 C24 1.314 . S
N25 C28 1.279 . S
C26 C24 1.353 . S
C26 C29 1.348 . S
C26 H74 0.929 . S
C27 C28 1.358 . S
C27 C29 1.356 . S
C27 H75 0.930 . S
C28 N25 1.279 . S
C28 C27 1.358 . S
C28 H31 0.930 . S
C29 C26 1.348 . S
C29 C27 1.356 . S
H30 C24 0.930 . S
H31 C28 0.930 . S
C32 C34 1.348 . S
C32 C35 1.356 . S
C32 O62 1.325 . S
N33 C36 1.314 . S
N33 C37 1.279 1_565 S
C34 C32 1.348 . S
C34 C36 1.353 1_545 S
C34 H76 0.929 . S
C35 C32 1.356 . S
C35 C37 1.358 . S
C35 H77 0.930 . S
C36 N33 1.314 . S
C36 C34 1.353 1_565 S
C36 H78 0.930 . S
C37 N33 1.279 1_545 S
C37 C35 1.358 . S
C37 H79 0.930 . S
C38 C39 1.348 . S
C38 C40 1.356 . S
C38 O63 1.325 . S
C39 C38 1.348 . S
C39 C41 1.353 . S
C39 H80 0.929 . S
C40 C38 1.356 . S
C40 C42 1.358 . S
C40 H81 0.930 . S
C41 C39 1.353 . S
C41 N43 1.314 . S
C41 H82 0.930 . S
C42 C40 1.358 . S
C42 N43 1.279 . S
C42 H83 0.930 . S
N43 C41 1.314 . S
N43 C42 1.279 . S
C44 C46 1.353 . S
C44 N47 1.314 . S
C44 H50 0.930 . S
C45 N47 1.279 . S
C45 C48 1.358 . S
C45 H51 0.930 . S
C46 C44 1.353 . S
C46 C49 1.348 . S
C46 H84 0.929 . S
N47 Li2 1.990 . S
N47 C44 1.314 . S
N47 C45 1.279 . S
C48 C45 1.358 . S
C48 C49 1.356 . S
C48 H85 0.930 . S
C49 C46 1.348 . S
C49 C48 1.356 . S
H50 C44 0.930 . S
H51 C45 0.930 . S
C52 N53 1.314 . S
C52 C54 1.353 1_545 S
C52 H58 0.930 . S
N53 Li3 1.990 . S
N53 C52 1.314 . S
N53 C56 1.279 . S
C54 C52 1.353 1_565 S
C54 C57 1.348 . S
C54 H86 0.929 . S
C55 C56 1.358 1_565 S
C55 C57 1.356 . S
C55 H87 0.930 . S
C56 N53 1.279 . S
C56 C55 1.358 1_545 S
C56 H59 0.930 . S
C57 C54 1.348 . S
C57 C55 1.356 . S
H58 C52 0.930 . S
H59 C56 0.930 . S
O60 Li0 1.956 . S
O60 Li1 1.970 . S
O60 Li2 1.961 . S
O60 C4 1.325 . S
O61 Li0 1.970 . S
O61 Li1 1.956 . S
O61 Li3 1.961 . S
O61 C10 1.325 . S
O62 Li0 1.961 . S
O62 Li2 1.956 . S
O62 Li3 1.970 . S
O62 C32 1.325 . S
O63 Li1 1.961 . S
O63 Li2 1.970 . S
O63 Li3 1.956 . S
O63 C38 1.325 . S
H64 C6 0.929 . S
H65 C7 0.930 . S
H66 C8 0.930 . S
H67 C9 0.930 . S
H68 C11 0.930 . S
H69 C13 0.921 1_455 S
H70 C14 0.930 . S
H71 C15 0.930 . S
H72 C18 0.930 . S
H73 C21 0.929 . S
H74 C26 0.929 . S
H75 C27 0.930 . S
H76 C34 0.929 . S
H77 C35 0.930 . S
H78 C36 0.930 . S
H79 C37 0.930 . S
H80 C39 0.929 . S
H81 C40 0.930 . S
H82 C41 0.930 . S
H83 C42 0.930 . S
H84 C46 0.929 . S
H85 C48 0.930 . S
H86 C54 0.929 . S
H87 C55 0.930 . S
Li88 N105 1.990 . S
Li88 O148 1.956 . S
Li88 O149 1.970 . S
Li88 O150 1.961 . S
Li89 N113 1.990 . S
Li89 O148 1.970 . S
Li89 O149 1.956 . S
Li89 O151 1.961 . S
Li90 N135 1.990 . S
Li90 O148 1.961 . S
Li90 O150 1.956 . S
Li90 O151 1.970 . S
Li91 N141 1.990 . S
Li91 O149 1.961 . S
Li91 O150 1.970 . S
Li91 O151 1.956 . S
C92 C94 1.348 . S
C92 C95 1.356 . S
C92 O148 1.325 . S
N93 C96 1.314 . S
N93 C97 1.279 . S
C94 C92 1.348 . S
C94 C96 1.353 . S
C94 H152 0.929 . S
C95 C92 1.356 . S
C95 C97 1.358 . S
C95 H153 0.930 . S
C96 N93 1.314 . S
C96 C94 1.353 . S
C96 H154 0.930 . S
C97 N93 1.279 . S
C97 C95 1.358 . S
C97 H155 0.930 . S
C98 C101 1.348 . S
C98 C102 1.356 . S
C98 O149 1.325 . S
C99 N100 1.279 . S
C99 C102 1.358 . S
C99 H156 0.930 . S
N100 C99 1.279 . S
N100 C103 1.314 . S
C101 C98 1.348 . S
C101 C103 1.353 . S
C101 H157 0.929 . S
C102 C98 1.356 . S
C102 C99 1.358 . S
C102 H158 0.930 . S
C103 N100 1.314 . S
C103 C101 1.353 . S
C103 H159 0.930 . S
C104 N105 1.314 . S
C104 C109 1.353 . S
C104 H110 0.930 . S
N105 Li88 1.990 . S
N105 C104 1.314 . S
N105 C107 1.279 . S
C106 C107 1.358 . S
C106 C108 1.356 . S
C106 H160 0.930 . S
C107 N105 1.279 . S
C107 C106 1.358 . S
C107 H111 0.930 . S
C108 C106 1.356 . S
C108 C109 1.348 . S
C109 C104 1.353 . S
C109 C108 1.348 . S
C109 H161 0.929 . S
H110 C104 0.930 . S
H111 C107 0.930 . S
C112 N113 1.314 . S
C112 C114 1.353 . S
C112 H118 0.930 . S
N113 Li89 1.990 . S
N113 C112 1.314 . S
N113 C116 1.279 . S
C114 C112 1.353 . S
C114 C117 1.348 . S
C114 H162 0.929 . S
C115 C116 1.358 . S
C115 C117 1.356 . S
C115 H163 0.930 . S
C116 N113 1.279 . S
C116 C115 1.358 . S
C116 H119 0.930 . S
C117 C114 1.348 . S
C117 C115 1.356 . S
H118 C112 0.930 . S
H119 C116 0.930 . S
C120 C122 1.348 1_545 S
C120 C123 1.356 . S
C120 O150 1.325 . S
N121 C124 1.314 . S
N121 C125 1.279 . S
C122 C120 1.348 1_565 S
C122 C124 1.353 . S
C122 H164 0.929 . S
C123 C120 1.356 . S
C123 C125 1.358 1_545 S
C123 H165 0.930 . S
C124 N121 1.314 . S
C124 C122 1.353 . S
C124 H166 0.930 . S
C125 N121 1.279 . S
C125 C123 1.358 1_565 S
C125 H167 0.930 . S
C126 C127 1.348 . S
C126 C128 1.356 . S
C126 O151 1.325 . S
C127 C126 1.348 . S
C127 C129 1.353 . S
C127 H168 0.929 . S
C128 C126 1.356 . S
C128 C130 1.358 . S
C128 H169 0.930 . S
C129 C127 1.353 . S
C129 N131 1.314 . S
C129 H170 0.930 . S
C130 C128 1.358 . S
C130 N131 1.279 . S
C130 H171 0.930 . S
N131 C129 1.314 . S
N131 C130 1.279 . S
C132 C134 1.353 . S
C132 N135 1.314 . S
C132 H138 0.930 . S
C133 N135 1.279 . S
C133 C136 1.358 . S
C133 H139 0.930 . S
C134 C132 1.353 . S
C134 C137 1.348 . S
C134 H172 0.929 . S
N135 Li90 1.990 . S
N135 C132 1.314 . S
N135 C133 1.279 . S
C136 C133 1.358 . S
C136 C137 1.356 . S
C136 H173 0.930 . S
C137 C134 1.348 . S
C137 C136 1.356 . S
H138 C132 0.930 . S
H139 C133 0.930 . S
C140 N141 1.303 1_565 S
C140 C142 1.372 . S
C140 H146 0.921 1_565 S
N141 Li91 1.990 . S
N141 C140 1.303 1_545 S
N141 C144 1.279 . S
C142 C140 1.372 . S
C142 C145 1.348 . S
C142 H174 0.929 . S
C143 C144 1.358 1_565 S
C143 C145 1.356 . S
C143 H175 0.930 . S
C144 N141 1.279 . S
C144 C143 1.358 1_545 S
C144 H147 0.930 . S
C145 C142 1.348 . S
C145 C143 1.356 . S
H146 C140 0.921 1_545 S
H147 C144 0.930 . S
O148 Li88 1.956 . S
O148 Li89 1.970 . S
O148 Li90 1.961 . S
O148 C92 1.325 . S
O149 Li88 1.970 . S
O149 Li89 1.956 . S
O149 Li91 1.961 . S
O149 C98 1.325 . S
O150 Li88 1.961 . S
O150 Li90 1.956 . S
O150 Li91 1.970 . S
O150 C120 1.325 . S
O151 Li89 1.961 . S
O151 Li90 1.970 . S
O151 Li91 1.956 . S
O151 C126 1.325 . S
H152 C94 0.929 . S
H153 C95 0.930 . S
H154 C96 0.930 . S
H155 C97 0.930 . S
H156 C99 0.930 . S
H157 C101 0.929 . S
H158 C102 0.930 . S
H159 C103 0.930 . S
H160 C106 0.930 . S
H161 C109 0.929 . S
H162 C114 0.929 . S
H163 C115 0.930 . S
H164 C122 0.929 . S
H165 C123 0.930 . S
H166 C124 0.930 . S
H167 C125 0.930 . S
H168 C127 0.929 . S
H169 C128 0.930 . S
H170 C129 0.930 . S
H171 C130 0.930 . S
H172 C134 0.929 . S
H173 C136 0.930 . S
H174 C142 0.929 . S
H175 C143 0.930 . S
Li176 N193 1.990 . S
Li176 O236 1.956 . S
Li176 O237 1.970 . S
Li176 O238 1.961 . S
Li177 N201 1.990 . S
Li177 O236 1.970 . S
Li177 O237 1.956 . S
Li177 O239 1.961 . S
Li178 N223 1.990 . S
Li178 O236 1.961 . S
Li178 O238 1.956 . S
Li178 O239 1.970 . S
Li179 N229 1.990 . S
Li179 O237 1.961 . S
Li179 O238 1.970 . S
Li179 O239 1.956 . S
C180 C182 1.348 . S
C180 C183 1.356 . S
C180 O236 1.325 . S
N181 C184 1.314 . S
N181 C185 1.279 . S
C182 C180 1.348 . S
C182 C184 1.353 . S
C182 H240 0.929 . S
C183 C180 1.356 . S
C183 C185 1.358 . S
C183 H241 0.930 . S
C184 N181 1.314 . S
C184 C182 1.353 . S
C184 H242 0.930 . S
C185 N181 1.279 . S
C185 C183 1.358 . S
C185 H243 0.930 . S
C186 C189 1.348 . S
C186 C190 1.356 . S
C186 O237 1.325 . S
C187 N188 1.279 . S
C187 C190 1.358 . S
C187 H244 0.930 . S
N188 C187 1.279 . S
N188 C191 1.314 . S
C189 C186 1.348 . S
C189 C191 1.353 . S
C189 H245 0.929 . S
C190 C186 1.356 . S
C190 C187 1.358 . S
C190 H246 0.930 . S
C191 N188 1.314 . S
C191 C189 1.353 . S
C191 H247 0.930 . S
C192 N193 1.314 . S
C192 C197 1.353 . S
C192 H198 0.930 . S
N193 Li176 1.990 . S
N193 C192 1.314 . S
N193 C195 1.279 . S
C194 C195 1.358 . S
C194 C196 1.356 . S
C194 H248 0.930 . S
C195 N193 1.279 . S
C195 C194 1.358 . S
C195 H199 0.930 . S
C196 C194 1.356 . S
C196 C197 1.348 . S
C197 C192 1.353 . S
C197 C196 1.348 . S
C197 H249 0.929 . S
H198 C192 0.930 . S
H199 C195 0.930 . S
C200 N201 1.314 . S
C200 C202 1.353 . S
C200 H206 0.930 . S
N201 Li177 1.990 . S
N201 C200 1.314 . S
N201 C204 1.279 . S
C202 C200 1.353 . S
C202 C205 1.348 . S
C202 H250 0.929 . S
C203 C204 1.358 . S
C203 C205 1.356 . S
C203 H251 0.930 . S
C204 N201 1.279 . S
C204 C203 1.358 . S
C204 H207 0.930 . S
C205 C202 1.348 . S
C205 C203 1.356 . S
H206 C200 0.930 . S
H207 C204 0.930 . S
C208 C210 1.348 1_545 S
C208 C211 1.356 . S
C208 O238 1.325 . S
N209 C212 1.314 . S
N209 C213 1.279 . S
C210 C208 1.348 1_565 S
C210 C212 1.353 . S
C210 H252 0.929 . S
C211 C208 1.356 . S
C211 C213 1.358 1_545 S
C211 H253 0.930 . S
C212 N209 1.314 . S
C212 C210 1.353 . S
C212 H254 0.930 . S
C213 N209 1.279 . S
C213 C211 1.358 1_565 S
C213 H255 0.930 . S
C214 C215 1.348 1_455 S
C214 C216 1.356 . S
C214 O239 1.325 . S
C215 C214 1.348 1_655 S
C215 C217 1.353 . S
C215 H256 0.921 1_655 S
C216 C214 1.356 . S
C216 C218 1.358 1_455 S
C216 H257 0.930 . S
C217 C215 1.353 . S
C217 N219 1.314 . S
C217 H258 0.930 . S
C218 C216 1.358 1_655 S
C218 N219 1.279 . S
C218 H259 0.930 . S
N219 C217 1.314 . S
N219 C218 1.279 . S
C220 C222 1.353 . S
C220 N223 1.314 . S
C220 H226 0.930 . S
C221 N223 1.279 . S
C221 C224 1.358 . S
C221 H227 0.930 . S
C222 C220 1.353 . S
C222 C225 1.348 . S
C222 H260 0.929 . S
N223 Li178 1.990 . S
N223 C220 1.314 . S
N223 C221 1.279 . S
C224 C221 1.358 . S
C224 C225 1.356 . S
C224 H261 0.930 . S
C225 C222 1.348 . S
C225 C224 1.356 . S
H226 C220 0.930 . S
H227 C221 0.930 . S
C228 N229 1.303 1_565 S
C228 C230 1.372 . S
C228 H234 0.921 1_565 S
N229 Li179 1.990 . S
N229 C228 1.303 1_545 S
N229 C232 1.279 . S
C230 C228 1.372 . S
C230 C233 1.348 . S
C230 H262 0.929 . S
C231 C232 1.358 1_565 S
C231 C233 1.356 . S
C231 H263 0.930 . S
C232 N229 1.279 . S
C232 C231 1.358 1_545 S
C232 H235 0.930 . S
C233 C230 1.348 . S
C233 C231 1.356 . S
H234 C228 0.921 1_545 S
H235 C232 0.930 . S
O236 Li176 1.956 . S
O236 Li177 1.970 . S
O236 Li178 1.961 . S
O236 C180 1.325 . S
O237 Li176 1.970 . S
O237 Li177 1.956 . S
O237 Li179 1.961 . S
O237 C186 1.325 . S
O238 Li176 1.961 . S
O238 Li178 1.956 . S
O238 Li179 1.970 . S
O238 C208 1.325 . S
O239 Li177 1.961 . S
O239 Li178 1.970 . S
O239 Li179 1.956 . S
O239 C214 1.325 . S
H240 C182 0.929 . S
H241 C183 0.930 . S
H242 C184 0.930 . S
H243 C185 0.930 . S
H244 C187 0.930 . S
H245 C189 0.929 . S
H246 C190 0.930 . S
H247 C191 0.930 . S
H248 C194 0.930 . S
H249 C197 0.929 . S
H250 C202 0.929 . S
H251 C203 0.930 . S
H252 C210 0.929 . S
H253 C211 0.930 . S
H254 C212 0.930 . S
H255 C213 0.930 . S
H256 C215 0.921 1_455 S
H257 C216 0.930 . S
H258 C217 0.930 . S
H259 C218 0.930 . S
H260 C222 0.929 . S
H261 C224 0.930 . S
H262 C230 0.929 . S
H263 C231 0.930 . S
Li264 N281 1.990 . S
Li264 O324 1.956 . S
Li264 O325 1.970 . S
Li264 O326 1.961 . S
Li265 N289 1.990 . S
Li265 O324 1.970 . S
Li265 O325 1.956 . S
Li265 O327 1.961 . S
Li266 N311 1.990 . S
Li266 O324 1.961 . S
Li266 O326 1.956 . S
Li266 O327 1.970 . S
Li267 N317 1.990 . S
Li267 O325 1.961 . S
Li267 O326 1.970 . S
Li267 O327 1.956 . S
C268 C270 1.348 . S
C268 C271 1.356 . S
C268 O324 1.325 . S
N269 C272 1.314 . S
N269 C273 1.279 . S
C270 C268 1.348 . S
C270 C272 1.353 . S
C270 H328 0.929 . S
C271 C268 1.356 . S
C271 C273 1.358 . S
C271 H329 0.930 . S
C272 N269 1.314 . S
C272 C270 1.353 . S
C272 H330 0.930 . S
C273 N269 1.279 . S
C273 C271 1.358 . S
C273 H331 0.930 . S
C274 C277 1.348 . S
C274 C278 1.356 . S
C274 O325 1.325 . S
C275 N276 1.279 . S
C275 C278 1.358 . S
C275 H332 0.930 . S
N276 C275 1.279 . S
N276 C279 1.314 . S
C277 C274 1.348 . S
C277 C279 1.353 . S
C277 H333 0.929 . S
C278 C274 1.356 . S
C278 C275 1.358 . S
C278 H334 0.930 . S
C279 N276 1.314 . S
C279 C277 1.353 . S
C279 H335 0.930 . S
C280 N281 1.314 . S
C280 C285 1.353 . S
C280 H286 0.930 . S
N281 Li264 1.990 . S
N281 C280 1.314 . S
N281 C283 1.279 . S
C282 C283 1.358 . S
C282 C284 1.356 . S
C282 H336 0.930 . S
C283 N281 1.279 . S
C283 C282 1.358 . S
C283 H287 0.930 . S
C284 C282 1.356 . S
C284 C285 1.348 . S
C285 C280 1.353 . S
C285 C284 1.348 . S
C285 H337 0.929 . S
H286 C280 0.930 . S
H287 C283 0.930 . S
C288 N289 1.314 . S
C288 C290 1.353 . S
C288 H294 0.930 . S
N289 Li265 1.990 . S
N289 C288 1.314 . S
N289 C292 1.279 . S
C290 C288 1.353 . S
C290 C293 1.348 . S
C290 H338 0.929 . S
C291 C292 1.358 . S
C291 C293 1.356 . S
C291 H339 0.930 . S
C292 N289 1.279 . S
C292 C291 1.358 . S
C292 H295 0.930 . S
C293 C290 1.348 . S
C293 C291 1.356 . S
H294 C288 0.930 . S
H295 C292 0.930 . S
C296 C298 1.348 . S
C296 C299 1.356 . S
C296 O326 1.325 . S
N297 C300 1.314 . S
N297 C301 1.279 . S
C298 C296 1.348 . S
C298 C300 1.353 . S
C298 H340 0.929 . S
C299 C296 1.356 . S
C299 C301 1.358 . S
C299 H341 0.930 . S
C300 N297 1.314 . S
C300 C298 1.353 . S
C300 H342 0.930 . S
C301 N297 1.279 . S
C301 C299 1.358 . S
C301 H343 0.930 . S
C302 C303 1.348 . S
C302 C304 1.356 . S
C302 O327 1.325 . S
C303 C302 1.348 . S
C303 C305 1.353 1_545 S
C303 H344 0.929 . S
C304 C302 1.356 . S
C304 C306 1.358 . S
C304 H345 0.930 . S
C305 C303 1.353 1_565 S
C305 N307 1.314 . S
C305 H346 0.930 . S
C306 C304 1.358 . S
C306 N307 1.279 1_545 S
C306 H347 0.930 . S
N307 C305 1.314 . S
N307 C306 1.279 1_565 S
C308 C310 1.353 1_545 S
C308 N311 1.314 . S
C308 H314 0.930 . S
C309 N311 1.279 . S
C309 C312 1.358 1_545 S
C309 H315 0.930 . S
C310 C308 1.353 1_565 S
C310 C313 1.348 . S
C310 H348 0.929 . S
N311 Li266 1.990 . S
N311 C308 1.314 . S
N311 C309 1.279 . S
C312 C309 1.358 1_565 S
C312 C313 1.356 . S
C312 H349 0.930 . S
C313 C310 1.348 . S
C313 C312 1.356 . S
H314 C308 0.930 . S
H315 C309 0.930 . S
C316 N317 1.314 . S
C316 C318 1.353 . S
C316 H322 0.930 . S
N317 Li267 1.990 . S
N317 C316 1.314 . S
N317 C320 1.279 . S
C318 C316 1.353 . S
C318 C321 1.348 . S
C318 H350 0.929 . S
C319 C320 1.358 . S
C319 C321 1.356 . S
C319 H351 0.930 . S
C320 N317 1.279 . S
C320 C319 1.358 . S
C320 H323 0.930 . S
C321 C318 1.348 . S
C321 C319 1.356 . S
H322 C316 0.930 . S
H323 C320 0.930 . S
O324 Li264 1.956 . S
O324 Li265 1.970 . S
O324 Li266 1.961 . S
O324 C268 1.325 . S
O325 Li264 1.970 . S
O325 Li265 1.956 . S
O325 Li267 1.961 . S
O325 C274 1.325 . S
O326 Li264 1.961 . S
O326 Li266 1.956 . S
O326 Li267 1.970 . S
O326 C296 1.325 . S
O327 Li265 1.961 . S
O327 Li266 1.970 . S
O327 Li267 1.956 . S
O327 C302 1.325 . S
H328 C270 0.929 . S
H329 C271 0.930 . S
H330 C272 0.930 . S
H331 C273 0.930 . S
H332 C275 0.930 . S
H333 C277 0.929 . S
H334 C278 0.930 . S
H335 C279 0.930 . S
H336 C282 0.930 . S
H337 C285 0.929 . S
H338 C290 0.929 . S
H339 C291 0.930 . S
H340 C298 0.929 . S
H341 C299 0.930 . S
H342 C300 0.930 . S
H343 C301 0.930 . S
H344 C303 0.929 . S
H345 C304 0.930 . S
H346 C305 0.930 . S
H347 C306 0.930 . S
H348 C310 0.929 . S
H349 C312 0.930 . S
H350 C318 0.929 . S
H351 C319 0.930 . S
Li352 N369 1.990 . S
Li352 O412 1.956 . S
Li352 O413 1.970 . S
Li352 O414 1.961 . S
Li353 N377 1.990 . S
Li353 O412 1.970 . S
Li353 O413 1.956 . S
Li353 O415 1.961 . S
Li354 N399 1.990 . S
Li354 O412 1.961 . S
Li354 O414 1.956 . S
Li354 O415 1.970 . S
Li355 N405 1.990 . S
Li355 O413 1.961 . S
Li355 O414 1.970 . S
Li355 O415 1.956 . S
C356 C358 1.348 1_655 S
C356 C359 1.356 . S
C356 O412 1.325 . S
N357 C360 1.314 . S
N357 C361 1.279 . S
C358 C356 1.348 1_455 S
C358 C360 1.353 . S
C358 H416 0.942 . S
C359 C356 1.356 . S
C359 C361 1.358 1_655 S
C359 H417 0.930 . S
C360 N357 1.314 . S
C360 C358 1.353 . S
C360 H418 0.930 . S
C361 N357 1.279 . S
C361 C359 1.358 1_455 S
C361 H419 0.930 . S
C362 C365 1.348 . S
C362 C366 1.356 . S
C362 O413 1.325 . S
C363 N364 1.279 1_565 S
C363 C366 1.358 . S
C363 H420 0.930 . S
N364 C363 1.279 1_545 S
N364 C367 1.314 . S
C365 C362 1.348 . S
C365 C367 1.353 1_565 S
C365 H421 0.929 . S
C366 C362 1.356 . S
C366 C363 1.358 . S
C366 H422 0.930 . S
C367 N364 1.314 . S
C367 C365 1.353 1_545 S
C367 H423 0.930 . S
C368 N369 1.314 . S
C368 C373 1.353 1_565 S
C368 H374 0.930 . S
N369 Li352 1.990 . S
N369 C368 1.314 . S
N369 C371 1.279 . S
C370 C371 1.358 1_545 S
C370 C372 1.356 . S
C370 H424 0.876 1_655 S
C371 N369 1.279 . S
C371 C370 1.358 1_565 S
C371 H375 0.930 . S
C372 C370 1.356 . S
C372 C373 1.348 . S
C373 C368 1.353 1_545 S
C373 C372 1.348 . S
C373 H425 0.929 . S
H374 C368 0.930 . S
H375 C371 0.930 . S
C376 N377 1.314 . S
C376 C378 1.353 . S
C376 H382 0.930 . S
N377 Li353 1.990 . S
N377 C376 1.314 . S
N377 C380 1.279 . S
C378 C376 1.353 . S
C378 C381 1.348 . S
C378 H426 0.929 . S
C379 C380 1.358 . S
C379 C381 1.356 . S
C379 H427 0.930 . S
C380 N377 1.279 . S
C380 C379 1.358 . S
C380 H383 0.930 . S
C381 C378 1.348 . S
C381 C379 1.356 . S
H382 C376 0.930 . S
H383 C380 0.930 . S
C384 C386 1.348 . S
C384 C387 1.356 . S
C384 O414 1.325 . S
N385 C388 1.314 . S
N385 C389 1.279 . S
C386 C384 1.348 . S
C386 C388 1.353 . S
C386 H428 0.929 . S
C387 C384 1.356 . S
C387 C389 1.358 . S
C387 H429 0.930 . S
C388 N385 1.314 . S
C388 C386 1.353 . S
C388 H430 0.930 . S
C389 N385 1.279 . S
C389 C387 1.358 . S
C389 H431 0.930 . S
C390 C391 1.348 . S
C390 C392 1.356 . S
C390 O415 1.325 . S
C391 C390 1.348 . S
C391 C393 1.353 . S
C391 H432 0.929 . S
C392 C390 1.356 . S
C392 C394 1.358 . S
C392 H433 0.930 . S
C393 C391 1.353 . S
C393 N395 1.314 . S
C393 H434 0.930 . S
C394 C392 1.358 . S
C394 N395 1.279 . S
C394 H435 0.930 . S
N395 C393 1.314 . S
N395 C394 1.279 . S
C396 C398 1.353 . S
C396 N399 1.314 . S
C396 H402 0.930 . S
C397 N399 1.279 . S
C397 C400 1.358 . S
C397 H403 0.930 . S
C398 C396 1.353 . S
C398 C401 1.348 . S
C398 H436 0.929 . S
N399 Li354 1.990 . S
N399 C396 1.314 . S
N399 C397 1.279 . S
C400 C397 1.358 . S
C400 C401 1.356 . S
C400 H437 0.930 . S
C401 C398 1.348 . S
C401 C400 1.356 . S
H402 C396 0.930 . S
H403 C397 0.930 . S
C404 N405 1.314 . S
C404 C406 1.353 . S
C404 H410 0.930 . S
N405 Li355 1.990 . S
N405 C404 1.314 . S
N405 C408 1.279 . S
C406 C404 1.353 . S
C406 C409 1.348 . S
C406 H438 0.929 . S
C407 C408 1.358 . S
C407 C409 1.356 . S
C407 H439 0.930 . S
C408 N405 1.279 . S
C408 C407 1.358 . S
C408 H411 0.930 . S
C409 C406 1.348 . S
C409 C407 1.356 . S
H410 C404 0.930 . S
H411 C408 0.930 . S
O412 Li352 1.956 . S
O412 Li353 1.970 . S
O412 Li354 1.961 . S
O412 C356 1.325 . S
O413 Li352 1.970 . S
O413 Li353 1.956 . S
O413 Li355 1.961 . S
O413 C362 1.325 . S
O414 Li352 1.961 . S
O414 Li354 1.956 . S
O414 Li355 1.970 . S
O414 C384 1.325 . S
O415 Li353 1.961 . S
O415 Li354 1.970 . S
O415 Li355 1.956 . S
O415 C390 1.325 . S
H416 C358 0.942 . S
H417 C359 0.930 . S
H418 C360 0.930 . S
H419 C361 0.930 . S
H420 C363 0.930 . S
H421 C365 0.929 . S
H422 C366 0.930 . S
H423 C367 0.930 . S
H424 C370 0.876 1_455 S
H425 C373 0.929 . S
H426 C378 0.929 . S
H427 C379 0.930 . S
H428 C386 0.929 . S
H429 C387 0.930 . S
H430 C388 0.930 . S
H431 C389 0.930 . S
H432 C391 0.929 . S
H433 C392 0.930 . S
H434 C393 0.930 . S
H435 C394 0.930 . S
H436 C398 0.929 . S
H437 C400 0.930 . S
H438 C406 0.929 . S
H439 C407 0.930 . S
Li440 N457 1.990 . S
Li440 O500 1.956 . S
Li440 O501 1.970 . S
Li440 O502 1.961 . S
Li441 N465 1.990 . S
Li441 O500 1.970 . S
Li441 O501 1.956 . S
Li441 O503 1.961 . S
Li442 N487 1.990 . S
Li442 O500 1.961 . S
Li442 O502 1.956 . S
Li442 O503 1.970 . S
Li443 N493 1.990 . S
Li443 O501 1.961 . S
Li443 O502 1.970 . S
Li443 O503 1.956 . S
C444 C446 1.348 1_565 S
C444 C447 1.356 . S
C444 O500 1.325 . S
N445 C448 1.314 . S
N445 C449 1.279 . S
C446 C444 1.348 1_545 S
C446 C448 1.353 . S
C446 H504 0.929 . S
C447 C444 1.356 . S
C447 C449 1.358 1_565 S
C447 H505 0.930 . S
C448 N445 1.314 . S
C448 C446 1.353 . S
C448 H506 0.930 . S
C449 N445 1.279 . S
C449 C447 1.358 1_545 S
C449 H507 0.930 . S
C450 C453 1.348 . S
C450 C454 1.356 . S
C450 O501 1.325 . S
C451 N452 1.279 . S
C451 C454 1.358 . S
C451 H508 0.930 . S
N452 C451 1.279 . S
N452 C455 1.314 . S
C453 C450 1.348 . S
C453 C455 1.353 . S
C453 H509 0.929 . S
C454 C450 1.356 . S
C454 C451 1.358 . S
C454 H510 0.930 . S
C455 N452 1.314 . S
C455 C453 1.353 . S
C455 H511 0.930 . S
C456 N457 1.314 . S
C456 C461 1.353 . S
C456 H462 0.930 . S
N457 Li440 1.990 . S
N457 C456 1.314 . S
N457 C459 1.279 . S
C458 C459 1.358 . S
C458 C460 1.356 . S
C458 H512 0.930 . S
C459 N457 1.279 . S
C459 C458 1.358 . S
C459 H463 0.930 . S
C460 C458 1.356 . S
C460 C461 1.348 . S
C461 C456 1.353 . S
C461 C460 1.348 . S
C461 H513 0.929 . S
H462 C456 0.930 . S
H463 C459 0.930 . S
C464 N465 1.314 1_545 S
C464 C466 1.353 . S
C464 H470 0.930 . S
N465 Li441 1.990 . S
N465 C464 1.314 1_565 S
N465 C468 1.279 . S
C466 C464 1.353 . S
C466 C469 1.348 . S
C466 H514 0.929 . S
C467 C468 1.358 1_545 S
C467 C469 1.356 . S
C467 H515 0.930 . S
C468 N465 1.279 . S
C468 C467 1.358 1_565 S
C468 H471 0.930 . S
C469 C466 1.348 . S
C469 C467 1.356 . S
H470 C464 0.930 . S
H471 C468 0.930 . S
C472 C474 1.348 . S
C472 C475 1.356 . S
C472 O502 1.325 . S
N473 C476 1.314 . S
N473 C477 1.279 . S
C474 C472 1.348 . S
C474 C476 1.353 . S
C474 H516 0.929 . S
C475 C472 1.356 . S
C475 C477 1.358 . S
C475 H517 0.930 . S
C476 N473 1.314 . S
C476 C474 1.353 . S
C476 H518 0.930 . S
C477 N473 1.279 . S
C477 C475 1.358 . S
C477 H519 0.930 . S
C478 C479 1.348 . S
C478 C480 1.356 . S
C478 O503 1.325 . S
C479 C478 1.348 . S
C479 C481 1.353 . S
C479 H520 0.929 . S
C480 C478 1.356 . S
C480 C482 1.358 . S
C480 H521 0.930 . S
C481 C479 1.353 . S
C481 N483 1.314 . S
C481 H522 0.930 . S
C482 C480 1.358 . S
C482 N483 1.279 . S
C482 H523 0.930 . S
N483 C481 1.314 . S
N483 C482 1.279 . S
C484 C486 1.353 . S
C484 N487 1.314 . S
C484 H490 0.930 . S
C485 N487 1.279 . S
C485 C488 1.358 . S
C485 H491 0.930 . S
C486 C484 1.353 . S
C486 C489 1.348 . S
C486 H524 0.929 . S
N487 Li442 1.990 . S
N487 C484 1.314 . S
N487 C485 1.279 . S
C488 C485 1.358 . S
C488 C489 1.356 . S
C488 H525 0.930 . S
C489 C486 1.348 . S
C489 C488 1.356 . S
H490 C484 0.930 . S
H491 C485 0.930 . S
C492 N493 1.314 . S
C492 C494 1.353 . S
C492 H498 0.930 . S
N493 Li443 1.990 . S
N493 C492 1.314 . S
N493 C496 1.279 . S
C494 C492 1.353 . S
C494 C497 1.348 . S
C494 H526 0.929 . S
C495 C496 1.358 . S
C495 C497 1.356 . S
C495 H527 0.930 . S
C496 N493 1.279 . S
C496 C495 1.358 . S
C496 H499 0.930 . S
C497 C494 1.348 . S
C497 C495 1.356 . S
H498 C492 0.930 . S
H499 C496 0.930 . S
O500 Li440 1.956 . S
O500 Li441 1.970 . S
O500 Li442 1.961 . S
O500 C444 1.325 . S
O501 Li440 1.970 . S
O501 Li441 1.956 . S
O501 Li443 1.961 . S
O501 C450 1.325 . S
O502 Li440 1.961 . S
O502 Li442 1.956 . S
O502 Li443 1.970 . S
O502 C472 1.325 . S
O503 Li441 1.961 . S
O503 Li442 1.970 . S
O503 Li443 1.956 . S
O503 C478 1.325 . S
H504 C446 0.929 . S
H505 C447 0.930 . S
H506 C448 0.930 . S
H507 C449 0.930 . S
H508 C451 0.930 . S
H509 C453 0.929 . S
H510 C454 0.930 . S
H511 C455 0.930 . S
H512 C458 0.930 . S
H513 C461 0.929 . S
H514 C466 0.929 . S
H515 C467 0.930 . S
H516 C474 0.929 . S
H517 C475 0.930 . S
H518 C476 0.930 . S
H519 C477 0.930 . S
H520 C479 0.929 . S
H521 C480 0.930 . S
H522 C481 0.930 . S
H523 C482 0.930 . S
H524 C486 0.929 . S
H525 C488 0.930 . S
H526 C494 0.929 . S
H527 C495 0.930 . S
Li528 N545 1.990 . S
Li528 O588 1.956 . S
Li528 O589 1.970 . S
Li528 O590 1.961 . S
Li529 N553 1.990 . S
Li529 O588 1.970 . S
Li529 O589 1.956 . S
Li529 O591 1.961 . S
Li530 N575 1.990 . S
Li530 O588 1.961 . S
Li530 O590 1.956 . S
Li530 O591 1.970 . S
Li531 N581 1.990 . S
Li531 O589 1.961 . S
Li531 O590 1.970 . S
Li531 O591 1.956 . S
C532 C534 1.348 1_565 S
C532 C535 1.356 . S
C532 O588 1.325 . S
N533 C536 1.314 . S
N533 C537 1.279 . S
C534 C532 1.348 1_545 S
C534 C536 1.353 . S
C534 H592 0.929 . S
C535 C532 1.356 . S
C535 C537 1.358 1_565 S
C535 H593 0.930 . S
C536 N533 1.314 . S
C536 C534 1.353 . S
C536 H594 0.930 . S
C537 N533 1.279 . S
C537 C535 1.358 1_545 S
C537 H595 0.930 . S
C538 C541 1.348 . S
C538 C542 1.356 . S
C538 O589 1.325 . S
C539 N540 1.279 . S
C539 C542 1.358 . S
C539 H596 0.930 . S
N540 C539 1.279 . S
N540 C543 1.314 . S
C541 C538 1.348 . S
C541 C543 1.353 . S
C541 H597 0.929 . S
C542 C538 1.356 . S
C542 C539 1.358 . S
C542 H598 0.930 . S
C543 N540 1.314 . S
C543 C541 1.353 . S
C543 H599 0.930 . S
C544 N545 1.314 . S
C544 C549 1.353 . S
C544 H550 0.930 . S
N545 Li528 1.990 . S
N545 C544 1.314 . S
N545 C547 1.279 . S
C546 C547 1.358 . S
C546 C548 1.356 . S
C546 H600 0.930 . S
C547 N545 1.279 . S
C547 C546 1.358 . S
C547 H551 0.930 . S
C548 C546 1.356 . S
C548 C549 1.348 . S
C549 C544 1.353 . S
C549 C548 1.348 . S
C549 H601 0.929 . S
H550 C544 0.930 . S
H551 C547 0.930 . S
C552 N553 1.314 1_545 S
C552 C554 1.353 . S
C552 H558 0.930 . S
N553 Li529 1.990 . S
N553 C552 1.314 1_565 S
N553 C556 1.279 . S
C554 C552 1.353 . S
C554 C557 1.348 . S
C554 H602 0.929 . S
C555 C556 1.358 1_545 S
C555 C557 1.356 . S
C555 H603 0.930 . S
C556 N553 1.279 . S
C556 C555 1.358 1_565 S
C556 H559 0.930 . S
C557 C554 1.348 . S
C557 C555 1.356 . S
H558 C552 0.930 . S
H559 C556 0.930 . S
C560 C562 1.348 . S
C560 C563 1.356 . S
C560 O590 1.325 . S
N561 C564 1.314 . S
N561 C565 1.279 . S
C562 C560 1.348 . S
C562 C564 1.353 . S
C562 H604 0.929 . S
C563 C560 1.356 . S
C563 C565 1.358 . S
C563 H605 0.930 . S
C564 N561 1.314 . S
C564 C562 1.353 . S
C564 H606 0.930 . S
C565 N561 1.279 . S
C565 C563 1.358 . S
C565 H607 0.930 . S
C566 C567 1.348 1_655 S
C566 C568 1.356 . S
C566 O591 1.325 . S
C567 C566 1.348 1_455 S
C567 C569 1.353 . S
C567 H608 0.942 . S
C568 C566 1.356 . S
C568 C570 1.358 1_655 S
C568 H609 0.930 . S
C569 C567 1.353 . S
C569 N571 1.314 . S
C569 H610 0.930 . S
C570 C568 1.358 1_455 S
C570 N571 1.279 . S
C570 H611 0.930 . S
N571 C569 1.314 . S
N571 C570 1.279 . S
C572 C574 1.353 . S
C572 N575 1.314 . S
C572 H578 0.930 . S
C573 N575 1.279 . S
C573 C576 1.358 . S
C573 H579 0.930 . S
C574 C572 1.353 . S
C574 C577 1.348 . S
C574 H612 0.929 . S
N575 Li530 1.990 . S
N575 C572 1.314 . S
N575 C573 1.279 . S
C576 C573 1.358 . S
C576 C577 1.356 . S
C576 H613 0.930 . S
C577 C574 1.348 . S
C577 C576 1.356 . S
H578 C572 0.930 . S
H579 C573 0.930 . S
C580 N581 1.314 . S
C580 C582 1.353 . S
C580 H586 0.930 . S
N581 Li531 1.990 . S
N581 C580 1.314 . S
N581 C584 1.279 . S
C582 C580 1.353 . S
C582 C585 1.348 . S
C582 H614 0.929 . S
C583 C584 1.358 . S
C583 C585 1.356 . S
C583 H615 0.876 1_655 S
C584 N581 1.279 . S
C584 C583 1.358 . S
C584 H587 0.930 . S
C585 C582 1.348 . S
C585 C583 1.356 . S
H586 C580 0.930 . S
H587 C584 0.930 . S
O588 Li528 1.956 . S
O588 Li529 1.970 . S
O588 Li530 1.961 . S
O588 C532 1.325 . S
O589 Li528 1.970 . S
O589 Li529 1.956 . S
O589 Li531 1.961 . S
O589 C538 1.325 . S
O590 Li528 1.961 . S
O590 Li530 1.956 . S
O590 Li531 1.970 . S
O590 C560 1.325 . S
O591 Li529 1.961 . S
O591 Li530 1.970 . S
O591 Li531 1.956 . S
O591 C566 1.325 . S
H592 C534 0.929 . S
H593 C535 0.930 . S
H594 C536 0.930 . S
H595 C537 0.930 . S
H596 C539 0.930 . S
H597 C541 0.929 . S
H598 C542 0.930 . S
H599 C543 0.930 . S
H600 C546 0.930 . S
H601 C549 0.929 . S
H602 C554 0.929 . S
H603 C555 0.930 . S
H604 C562 0.929 . S
H605 C563 0.930 . S
H606 C564 0.930 . S
H607 C565 0.930 . S
H608 C567 0.942 . S
H609 C568 0.930 . S
H610 C569 0.930 . S
H611 C570 0.930 . S
H612 C574 0.929 . S
H613 C576 0.930 . S
H614 C582 0.929 . S
H615 C583 0.876 1_455 S
Li616 N633 1.990 . S
Li616 O676 1.956 . S
Li616 O677 1.970 . S
Li616 O678 1.961 . S
Li617 N641 1.990 . S
Li617 O676 1.970 . S
Li617 O677 1.956 . S
Li617 O679 1.961 . S
Li618 N663 1.990 . S
Li618 O676 1.961 . S
Li618 O678 1.956 . S
Li618 O679 1.970 . S
Li619 N669 1.990 . S
Li619 O677 1.961 . S
Li619 O678 1.970 . S
Li619 O679 1.956 . S
C620 C622 1.348 . S
C620 C623 1.356 . S
C620 O676 1.325 . S
N621 C624 1.314 . S
N621 C625 1.279 1_545 S
C622 C620 1.348 . S
C622 C624 1.353 1_565 S
C622 H680 0.929 . S
C623 C620 1.356 . S
C623 C625 1.358 . S
C623 H681 0.930 . S
C624 N621 1.314 . S
C624 C622 1.353 1_545 S
C624 H682 0.930 . S
C625 N621 1.279 1_565 S
C625 C623 1.358 . S
C625 H683 0.930 . S
C626 C629 1.348 . S
C626 C630 1.356 . S
C626 O677 1.325 . S
C627 N628 1.279 . S
C627 C630 1.358 . S
C627 H684 0.930 . S
N628 C627 1.279 . S
N628 C631 1.314 . S
C629 C626 1.348 . S
C629 C631 1.353 . S
C629 H685 0.929 . S
C630 C626 1.356 . S
C630 C627 1.358 . S
C630 H686 0.930 . S
C631 N628 1.314 . S
C631 C629 1.353 . S
C631 H687 0.930 . S
C632 N633 1.314 . S
C632 C637 1.353 . S
C632 H638 0.930 . S
N633 Li616 1.990 . S
N633 C632 1.314 . S
N633 C635 1.279 . S
C634 C635 1.358 . S
C634 C636 1.356 . S
C634 H688 0.930 . S
C635 N633 1.279 . S
C635 C634 1.358 . S
C635 H639 0.930 . S
C636 C634 1.356 . S
C636 C637 1.348 . S
C637 C632 1.353 . S
C637 C636 1.348 . S
C637 H689 0.929 . S
H638 C632 0.930 . S
H639 C635 0.930 . S
C640 N641 1.314 . S
C640 C642 1.353 1_565 S
C640 H646 0.930 . S
N641 Li617 1.990 . S
N641 C640 1.314 . S
N641 C644 1.279 . S
C642 C640 1.353 1_545 S
C642 C645 1.348 . S
C642 H690 0.929 . S
C643 C644 1.358 1_545 S
C643 C645 1.356 . S
C643 H691 0.930 . S
C644 N641 1.279 . S
C644 C643 1.358 1_565 S
C644 H647 0.930 . S
C645 C642 1.348 . S
C645 C643 1.356 . S
H646 C640 0.930 . S
H647 C644 0.930 . S
C648 C650 1.348 . S
C648 C651 1.356 . S
C648 O678 1.325 . S
N649 C652 1.314 . S
N649 C653 1.279 . S
C650 C648 1.348 . S
C650 C652 1.353 . S
C650 H692 0.929 . S
C651 C648 1.356 . S
C651 C653 1.358 . S
C651 H693 0.930 . S
C652 N649 1.314 . S
C652 C650 1.353 . S
C652 H694 0.930 . S
C653 N649 1.279 . S
C653 C651 1.358 . S
C653 H695 0.930 . S
C654 C655 1.348 . S
C654 C656 1.356 . S
C654 O679 1.325 . S
C655 C654 1.348 . S
C655 C657 1.353 . S
C655 H696 0.929 . S
C656 C654 1.356 . S
C656 C658 1.358 . S
C656 H697 0.930 . S
C657 C655 1.353 . S
C657 N659 1.314 . S
C657 H698 0.930 . S
C658 C656 1.358 . S
C658 N659 1.279 . S
C658 H699 0.930 . S
N659 C657 1.314 . S
N659 C658 1.279 . S
C660 C662 1.353 . S
C660 N663 1.314 . S
C660 H666 0.930 . S
C661 N663 1.279 . S
C661 C664 1.358 . S
C661 H667 0.930 . S
C662 C660 1.353 . S
C662 C665 1.348 . S
C662 H700 0.929 . S
N663 Li618 1.990 . S
N663 C660 1.314 . S
N663 C661 1.279 . S
C664 C661 1.358 . S
C664 C665 1.356 . S
C664 H701 0.930 . S
C665 C662 1.348 . S
C665 C664 1.356 . S
H666 C660 0.930 . S
H667 C661 0.930 . S
C668 N669 1.314 . S
C668 C670 1.353 . S
C668 H674 0.930 . S
N669 Li619 1.990 . S
N669 C668 1.314 . S
N669 C672 1.279 . S
C670 C668 1.353 . S
C670 C673 1.348 . S
C670 H702 0.929 . S
C671 C672 1.358 . S
C671 C673 1.356 . S
C671 H703 0.930 . S
C672 N669 1.279 . S
C672 C671 1.358 . S
C672 H675 0.930 . S
C673 C670 1.348 . S
C673 C671 1.356 . S
H674 C668 0.930 . S
H675 C672 0.930 . S
O676 Li616 1.956 . S
O676 Li617 1.970 . S
O676 Li618 1.961 . S
O676 C620 1.325 . S
O677 Li616 1.970 . S
O677 Li617 1.956 . S
O677 Li619 1.961 . S
O677 C626 1.325 . S
O678 Li616 1.961 . S
O678 Li618 1.956 . S
O678 Li619 1.970 . S
O678 C648 1.325 . S
O679 Li617 1.961 . S
O679 Li618 1.970 . S
O679 Li619 1.956 . S
O679 C654 1.325 . S
H680 C622 0.929 . S
H681 C623 0.930 . S
H682 C624 0.930 . S
H683 C625 0.930 . S
H684 C627 0.930 . S
H685 C629 0.929 . S
H686 C630 0.930 . S
H687 C631 0.930 . S
H688 C634 0.930 . S
H689 C637 0.929 . S
H690 C642 0.929 . S
H691 C643 0.930 . S
H692 C650 0.929 . S
H693 C651 0.930 . S
H694 C652 0.930 . S
H695 C653 0.930 . S
H696 C655 0.929 . S
H697 C656 0.930 . S
H698 C657 0.930 . S
H699 C658 0.930 . S
H700 C662 0.929 . S
H701 C664 0.930 . S
H702 C670 0.929 . S
H703 C671 0.930 . S
Li704 N721 1.990 . S
Li704 O764 1.956 . S
Li704 O765 1.970 . S
Li704 O766 1.961 . S
Li705 N729 1.990 . S
Li705 O764 1.970 . S
Li705 O765 1.956 . S
Li705 O767 1.961 . S
Li706 N751 1.990 . S
Li706 O764 1.961 . S
Li706 O766 1.956 . S
Li706 O767 1.970 . S
Li707 N757 1.990 . S
Li707 O765 1.961 . S
Li707 O766 1.970 . S
Li707 O767 1.956 . S
C708 C710 1.348 . S
C708 C711 1.356 . S
C708 O764 1.325 . S
N709 C712 1.314 . S
N709 C713 1.279 . S
C710 C708 1.348 . S
C710 C712 1.353 . S
C710 H768 0.929 . S
C711 C708 1.356 . S
C711 C713 1.358 . S
C711 H769 0.930 . S
C712 N709 1.314 . S
C712 C710 1.353 . S
C712 H770 0.930 . S
C713 N709 1.279 . S
C713 C711 1.358 . S
C713 H771 0.930 . S
C714 C717 1.348 1_455 S
C714 C718 1.356 . S
C714 O765 1.325 . S
C715 N716 1.279 . S
C715 C718 1.358 1_655 S
C715 H772 0.930 . S
N716 C715 1.279 . S
N716 C719 1.314 . S
C717 C714 1.348 1_655 S
C717 C719 1.353 . S
C717 H773 0.921 1_655 S
C718 C714 1.356 . S
C718 C715 1.358 1_455 S
C718 H774 0.930 . S
C719 N716 1.314 . S
C719 C717 1.353 . S
C719 H775 0.930 . S
C720 N721 1.314 . S
C720 C725 1.353 . S
C720 H726 0.930 . S
N721 Li704 1.990 . S
N721 C720 1.314 . S
N721 C723 1.279 . S
C722 C723 1.358 . S
C722 C724 1.356 . S
C722 H776 0.930 . S
C723 N721 1.279 . S
C723 C722 1.358 . S
C723 H727 0.930 . S
C724 C722 1.356 . S
C724 C725 1.348 . S
C725 C720 1.353 . S
C725 C724 1.348 . S
C725 H777 0.929 . S
H726 C720 0.930 . S
H727 C723 0.930 . S
C728 N729 1.314 . S
C728 C730 1.353 . S
C728 H734 0.930 . S
N729 Li705 1.990 . S
N729 C728 1.314 . S
N729 C732 1.279 . S
C730 C728 1.353 . S
C730 C733 1.348 . S
C730 H778 0.929 . S
C731 C732 1.358 . S
C731 C733 1.356 . S
C731 H779 0.930 . S
C732 N729 1.279 . S
C732 C731 1.358 . S
C732 H735 0.930 . S
C733 C730 1.348 . S
C733 C731 1.356 . S
H734 C728 0.930 . S
H735 C732 0.930 . S
C736 C738 1.348 . S
C736 C739 1.356 . S
C736 O766 1.325 . S
N737 C740 1.314 . S
N737 C741 1.279 . S
C738 C736 1.348 . S
C738 C740 1.353 . S
C738 H780 0.929 . S
C739 C736 1.356 . S
C739 C741 1.358 . S
C739 H781 0.930 . S
C740 N737 1.314 . S
C740 C738 1.353 . S
C740 H782 0.930 . S
C741 N737 1.279 . S
C741 C739 1.358 . S
C741 H783 0.930 . S
C742 C743 1.348 . S
C742 C744 1.356 . S
C742 O767 1.325 . S
C743 C742 1.348 . S
C743 C745 1.353 . S
C743 H784 0.929 . S
C744 C742 1.356 . S
C744 C746 1.358 . S
C744 H785 0.930 . S
C745 C743 1.353 . S
C745 N747 1.314 . S
C745 H786 0.930 . S
C746 C744 1.358 . S
C746 N747 1.279 . S
C746 H787 0.930 . S
N747 C745 1.314 . S
N747 C746 1.279 . S
C748 C750 1.353 . S
C748 N751 1.314 . S
C748 H754 0.930 . S
C749 N751 1.279 . S
C749 C752 1.358 . S
C749 H755 0.930 . S
C750 C748 1.353 . S
C750 C753 1.348 . S
C750 H788 0.929 . S
N751 Li706 1.990 . S
N751 C748 1.314 . S
N751 C749 1.279 . S
C752 C749 1.358 . S
C752 C753 1.356 . S
C752 H789 0.930 . S
C753 C750 1.348 . S
C753 C752 1.356 . S
H754 C748 0.930 . S
H755 C749 0.930 . S
C756 N757 1.314 . S
C756 C758 1.353 . S
C756 H762 0.930 . S
N757 Li707 1.990 . S
N757 C756 1.314 . S
N757 C760 1.279 . S
C758 C756 1.353 . S
C758 C761 1.348 . S
C758 H790 0.929 . S
C759 C760 1.358 . S
C759 C761 1.356 . S
C759 H791 0.930 . S
C760 N757 1.279 . S
C760 C759 1.358 . S
C760 H763 0.930 . S
C761 C758 1.348 . S
C761 C759 1.356 . S
H762 C756 0.930 . S
H763 C760 0.930 . S
O764 Li704 1.956 . S
O764 Li705 1.970 . S
O764 Li706 1.961 . S
O764 C708 1.325 . S
O765 Li704 1.970 . S
O765 Li705 1.956 . S
O765 Li707 1.961 . S
O765 C714 1.325 . S
O766 Li704 1.961 . S
O766 Li706 1.956 . S
O766 Li707 1.970 . S
O766 C736 1.325 . S
O767 Li705 1.961 . S
O767 Li706 1.970 . S
O767 Li707 1.956 . S
O767 C742 1.325 . S
H768 C710 0.929 . S
H769 C711 0.930 . S
H770 C712 0.930 . S
H771 C713 0.930 . S
H772 C715 0.930 . S
H773 C717 0.921 1_455 S
H774 C718 0.930 . S
H775 C719 0.930 . S
H776 C722 0.930 . S
H777 C725 0.929 . S
H778 C730 0.929 . S
H779 C731 0.930 . S
H780 C738 0.929 . S
H781 C739 0.930 . S
H782 C740 0.930 . S
H783 C741 0.930 . S
H784 C743 0.929 . S
H785 C744 0.930 . S
H786 C745 0.930 . S
H787 C746 0.930 . S
H788 C750 0.929 . S
H789 C752 0.930 . S
H790 C758 0.929 . S
H791 C759 0.930 . S
Li792 N809 1.990 . S
Li792 O852 1.956 . S
Li792 O853 1.970 . S
Li792 O854 1.961 . S
Li793 N817 1.990 . S
Li793 O852 1.970 . S
Li793 O853 1.956 . S
Li793 O855 1.961 . S
Li794 N839 1.990 . S
Li794 O852 1.961 . S
Li794 O854 1.956 . S
Li794 O855 1.970 . S
Li795 N845 1.990 . S
Li795 O853 1.961 . S
Li795 O854 1.970 . S
Li795 O855 1.956 . S
C796 C798 1.348 . S
C796 C799 1.356 . S
C796 O852 1.325 . S
N797 C800 1.314 . S
N797 C801 1.279 . S
C798 C796 1.348 . S
C798 C800 1.353 . S
C798 H856 0.929 . S
C799 C796 1.356 . S
C799 C801 1.358 . S
C799 H857 0.930 . S
C800 N797 1.314 . S
C800 C798 1.353 . S
C800 H858 0.930 . S
C801 N797 1.279 . S
C801 C799 1.358 . S
C801 H859 0.930 . S
C802 C805 1.348 . S
C802 C806 1.356 . S
C802 O853 1.325 . S
C803 N804 1.279 . S
C803 C806 1.358 . S
C803 H860 0.930 . S
N804 C803 1.279 . S
N804 C807 1.314 . S
C805 C802 1.348 . S
C805 C807 1.353 . S
C805 H861 0.929 . S
C806 C802 1.356 . S
C806 C803 1.358 . S
C806 H862 0.930 . S
C807 N804 1.314 . S
C807 C805 1.353 . S
C807 H863 0.930 . S
C808 N809 1.314 . S
C808 C813 1.353 . S
C808 H814 0.930 . S
N809 Li792 1.990 . S
N809 C808 1.314 . S
N809 C811 1.279 . S
C810 C811 1.358 . S
C810 C812 1.356 . S
C810 H864 0.930 . S
C811 N809 1.279 . S
C811 C810 1.358 . S
C811 H815 0.930 . S
C812 C810 1.356 . S
C812 C813 1.348 . S
C813 C808 1.353 . S
C813 C812 1.348 . S
C813 H865 0.929 . S
H814 C808 0.930 . S
H815 C811 0.930 . S
C816 N817 1.314 . S
C816 C818 1.353 . S
C816 H822 0.930 . S
N817 Li793 1.990 . S
N817 C816 1.314 . S
N817 C820 1.279 . S
C818 C816 1.353 . S
C818 C821 1.348 . S
C818 H866 0.929 . S
C819 C820 1.358 . S
C819 C821 1.356 . S
C819 H867 0.930 . S
C820 N817 1.279 . S
C820 C819 1.358 . S
C820 H823 0.930 . S
C821 C818 1.348 . S
C821 C819 1.356 . S
H822 C816 0.930 . S
H823 C820 0.930 . S
C824 C826 1.348 . S
C824 C827 1.356 . S
C824 O854 1.325 . S
N825 C828 1.314 . S
N825 C829 1.279 . S
C826 C824 1.348 . S
C826 C828 1.353 . S
C826 H868 0.929 . S
C827 C824 1.356 . S
C827 C829 1.358 . S
C827 H869 0.930 . S
C828 N825 1.314 . S
C828 C826 1.353 . S
C828 H870 0.930 . S
C829 N825 1.279 . S
C829 C827 1.358 . S
C829 H871 0.930 . S
C830 C831 1.348 . S
C830 C832 1.356 . S
C830 O855 1.325 . S
C831 C830 1.348 . S
C831 C833 1.353 . S
C831 H872 0.929 . S
C832 C830 1.356 . S
C832 C834 1.358 . S
C832 H873 0.930 . S
C833 C831 1.353 . S
C833 N835 1.314 . S
C833 H874 0.930 . S
C834 C832 1.358 . S
C834 N835 1.279 . S
C834 H875 0.930 . S
N835 C833 1.314 . S
N835 C834 1.279 . S
C836 C838 1.353 . S
C836 N839 1.314 . S
C836 H842 0.930 . S
C837 N839 1.279 . S
C837 C840 1.358 . S
C837 H843 0.930 . S
C838 C836 1.353 . S
C838 C841 1.348 . S
C838 H876 0.929 . S
N839 Li794 1.990 . S
N839 C836 1.314 . S
N839 C837 1.279 . S
C840 C837 1.358 . S
C840 C841 1.356 . S
C840 H877 0.930 . S
C841 C838 1.348 . S
C841 C840 1.356 . S
H842 C836 0.930 . S
H843 C837 0.930 . S
C844 N845 1.314 . S
C844 C846 1.353 . S
C844 H850 0.930 . S
N845 Li795 1.990 . S
N845 C844 1.314 . S
N845 C848 1.279 . S
C846 C844 1.353 . S
C846 C849 1.348 . S
C846 H878 0.929 . S
C847 C848 1.358 . S
C847 C849 1.356 . S
C847 H879 0.930 . S
C848 N845 1.279 . S
C848 C847 1.358 . S
C848 H851 0.930 . S
C849 C846 1.348 . S
C849 C847 1.356 . S
H850 C844 0.930 . S
H851 C848 0.930 . S
O852 Li792 1.956 . S
O852 Li793 1.970 . S
O852 Li794 1.961 . S
O852 C796 1.325 . S
O853 Li792 1.970 . S
O853 Li793 1.956 . S
O853 Li795 1.961 . S
O853 C802 1.325 . S
O854 Li792 1.961 . S
O854 Li794 1.956 . S
O854 Li795 1.970 . S
O854 C824 1.325 . S
O855 Li793 1.961 . S
O855 Li794 1.970 . S
O855 Li795 1.956 . S
O855 C830 1.325 . S
H856 C798 0.929 . S
H857 C799 0.930 . S
H858 C800 0.930 . S
H859 C801 0.930 . S
H860 C803 0.930 . S
H861 C805 0.929 . S
H862 C806 0.930 . S
H863 C807 0.930 . S
H864 C810 0.930 . S
H865 C813 0.929 . S
H866 C818 0.929 . S
H867 C819 0.930 . S
H868 C826 0.929 . S
H869 C827 0.930 . S
H870 C828 0.930 . S
H871 C829 0.930 . S
H872 C831 0.929 . S
H873 C832 0.930 . S
H874 C833 0.930 . S
H875 C834 0.930 . S
H876 C838 0.929 . S
H877 C840 0.930 . S
H878 C846 0.929 . S
H879 C847 0.930 . S
Li880 N897 1.990 . S
Li880 O940 1.956 . S
Li880 O941 1.970 . S
Li880 O942 1.961 . S
Li881 N905 1.990 . S
Li881 O940 1.970 . S
Li881 O941 1.956 . S
Li881 O943 1.961 . S
Li882 N927 1.990 . S
Li882 O940 1.961 . S
Li882 O942 1.956 . S
Li882 O943 1.970 . S
Li883 N933 1.990 . S
Li883 O941 1.961 . S
Li883 O942 1.970 . S
Li883 O943 1.956 . S
C884 C886 1.348 . S
C884 C887 1.356 . S
C884 O940 1.325 . S
N885 C888 1.314 . S
N885 C889 1.279 . S
C886 C884 1.348 . S
C886 C888 1.353 . S
C886 H944 0.929 . S
C887 C884 1.356 . S
C887 C889 1.358 . S
C887 H945 0.930 . S
C888 N885 1.314 . S
C888 C886 1.353 . S
C888 H946 0.930 . S
C889 N885 1.279 . S
C889 C887 1.358 . S
C889 H947 0.930 . S
C890 C893 1.348 . S
C890 C894 1.356 . S
C890 O941 1.325 . S
C891 N892 1.279 . S
C891 C894 1.358 . S
C891 H948 0.930 . S
N892 C891 1.279 . S
N892 C895 1.314 . S
C893 C890 1.348 . S
C893 C895 1.353 . S
C893 H949 0.929 . S
C894 C890 1.356 . S
C894 C891 1.358 . S
C894 H950 0.930 . S
C895 N892 1.314 . S
C895 C893 1.353 . S
C895 H951 0.930 . S
C896 N897 1.314 . S
C896 C901 1.353 . S
C896 H902 0.930 . S
N897 Li880 1.990 . S
N897 C896 1.314 . S
N897 C899 1.279 . S
C898 C899 1.358 . S
C898 C900 1.356 . S
C898 H952 0.930 . S
C899 N897 1.279 . S
C899 C898 1.358 . S
C899 H903 0.930 . S
C900 C898 1.356 . S
C900 C901 1.348 . S
C901 C896 1.353 . S
C901 C900 1.348 . S
C901 H953 0.929 . S
H902 C896 0.930 . S
H903 C899 0.930 . S
C904 N905 1.314 . S
C904 C906 1.353 . S
C904 H910 0.930 . S
N905 Li881 1.990 . S
N905 C904 1.314 . S
N905 C908 1.279 . S
C906 C904 1.353 . S
C906 C909 1.348 . S
C906 H954 0.929 . S
C907 C908 1.358 . S
C907 C909 1.356 . S
C907 H955 0.930 . S
C908 N905 1.279 . S
C908 C907 1.358 . S
C908 H911 0.930 . S
C909 C906 1.348 . S
C909 C907 1.356 . S
H910 C904 0.930 . S
H911 C908 0.930 . S
C912 C914 1.348 1_455 S
C912 C915 1.356 . S
C912 O942 1.325 . S
N913 C916 1.314 . S
N913 C917 1.279 . S
C914 C912 1.348 1_655 S
C914 C916 1.353 . S
C914 H956 0.921 1_655 S
C915 C912 1.356 . S
C915 C917 1.358 1_455 S
C915 H957 0.930 . S
C916 N913 1.314 . S
C916 C914 1.353 . S
C916 H958 0.930 . S
C917 N913 1.279 . S
C917 C915 1.358 1_655 S
C917 H959 0.930 . S
C918 C919 1.348 . S
C918 C920 1.356 . S
C918 O943 1.325 . S
C919 C918 1.348 . S
C919 C921 1.353 . S
C919 H960 0.929 . S
C920 C918 1.356 . S
C920 C922 1.358 . S
C920 H961 0.930 . S
C921 C919 1.353 . S
C921 N923 1.314 . S
C921 H962 0.930 . S
C922 C920 1.358 . S
C922 N923 1.279 . S
C922 H963 0.930 . S
N923 C921 1.314 . S
N923 C922 1.279 . S
C924 C926 1.353 . S
C924 N927 1.314 . S
C924 H930 0.930 . S
C925 N927 1.279 . S
C925 C928 1.358 . S
C925 H931 0.930 . S
C926 C924 1.353 . S
C926 C929 1.348 . S
C926 H964 0.929 . S
N927 Li882 1.990 . S
N927 C924 1.314 . S
N927 C925 1.279 . S
C928 C925 1.358 . S
C928 C929 1.356 . S
C928 H965 0.930 . S
C929 C926 1.348 . S
C929 C928 1.356 . S
H930 C924 0.930 . S
H931 C925 0.930 . S
C932 N933 1.314 . S
C932 C934 1.353 . S
C932 H938 0.930 . S
N933 Li883 1.990 . S
N933 C932 1.314 . S
N933 C936 1.279 . S
C934 C932 1.353 . S
C934 C937 1.348 . S
C934 H966 0.929 . S
C935 C936 1.358 . S
C935 C937 1.356 . S
C935 H967 0.930 . S
C936 N933 1.279 . S
C936 C935 1.358 . S
C936 H939 0.930 . S
C937 C934 1.348 . S
C937 C935 1.356 . S
H938 C932 0.930 . S
H939 C936 0.930 . S
O940 Li880 1.956 . S
O940 Li881 1.970 . S
O940 Li882 1.961 . S
O940 C884 1.325 . S
O941 Li880 1.970 . S
O941 Li881 1.956 . S
O941 Li883 1.961 . S
O941 C890 1.325 . S
O942 Li880 1.961 . S
O942 Li882 1.956 . S
O942 Li883 1.970 . S
O942 C912 1.325 . S
O943 Li881 1.961 . S
O943 Li882 1.970 . S
O943 Li883 1.956 . S
O943 C918 1.325 . S
H944 C886 0.929 . S
H945 C887 0.930 . S
H946 C888 0.930 . S
H947 C889 0.930 . S
H948 C891 0.930 . S
H949 C893 0.929 . S
H950 C894 0.930 . S
H951 C895 0.930 . S
H952 C898 0.930 . S
H953 C901 0.929 . S
H954 C906 0.929 . S
H955 C907 0.930 . S
H956 C914 0.921 1_455 S
H957 C915 0.930 . S
H958 C916 0.930 . S
H959 C917 0.930 . S
H960 C919 0.929 . S
H961 C920 0.930 . S
H962 C921 0.930 . S
H963 C922 0.930 . S
H964 C926 0.929 . S
H965 C928 0.930 . S
H966 C934 0.929 . S
H967 C935 0.930 . S
Li968 N985 1.990 . S
Li968 O1028 1.956 . S
Li968 O1029 1.970 . S
Li968 O1030 1.961 . S
Li969 N993 1.990 . S
Li969 O1028 1.970 . S
Li969 O1029 1.956 . S
Li969 O1031 1.961 . S
Li970 N1015 1.990 . S
Li970 O1028 1.961 . S
Li970 O1030 1.956 . S
Li970 O1031 1.970 . S
Li971 N1021 1.990 . S
Li971 O1029 1.961 . S
Li971 O1030 1.970 . S
Li971 O1031 1.956 . S
C972 C974 1.348 . S
C972 C975 1.356 . S
C972 O1028 1.325 . S
N973 C976 1.314 . S
N973 C977 1.279 . S
C974 C972 1.348 . S
C974 C976 1.353 . S
C974 H1032 0.929 . S
C975 C972 1.356 . S
C975 C977 1.358 . S
C975 H1033 0.930 . S
C976 N973 1.314 . S
C976 C974 1.353 . S
C976 H1034 0.930 . S
C977 N973 1.279 . S
C977 C975 1.358 . S
C977 H1035 0.930 . S
C978 C981 1.348 . S
C978 C982 1.356 . S
C978 O1029 1.325 . S
C979 N980 1.279 . S
C979 C982 1.358 . S
C979 H1036 0.930 . S
N980 C979 1.279 . S
N980 C983 1.314 . S
C981 C978 1.348 . S
C981 C983 1.353 . S
C981 H1037 0.929 . S
C982 C978 1.356 . S
C982 C979 1.358 . S
C982 H1038 0.930 . S
C983 N980 1.314 . S
C983 C981 1.353 . S
C983 H1039 0.930 . S
C984 N985 1.314 . S
C984 C989 1.353 . S
C984 H990 0.930 . S
N985 Li968 1.990 . S
N985 C984 1.314 . S
N985 C987 1.279 . S
C986 C987 1.358 . S
C986 C988 1.356 . S
C986 H1040 0.930 . S
C987 N985 1.279 . S
C987 C986 1.358 . S
C987 H991 0.930 . S
C988 C986 1.356 . S
C988 C989 1.348 . S
C989 C984 1.353 . S
C989 C988 1.348 . S
C989 H1041 0.929 . S
H990 C984 0.930 . S
H991 C987 0.930 . S
C992 N993 1.314 . S
C992 C994 1.353 . S
C992 H998 0.930 . S
N993 Li969 1.990 . S
N993 C992 1.314 . S
N993 C996 1.279 . S
C994 C992 1.353 . S
C994 C997 1.348 . S
C994 H1042 0.929 . S
C995 C996 1.358 . S
C995 C997 1.356 . S
C995 H1043 0.930 . S
C996 N993 1.279 . S
C996 C995 1.358 . S
C996 H999 0.930 . S
C997 C994 1.348 . S
C997 C995 1.356 . S
H998 C992 0.930 . S
H999 C996 0.930 . S
C1000 C1002 1.348 . S
C1000 C1003 1.356 . S
C1000 O1030 1.325 . S
N1001 C1004 1.314 . S
N1001 C1005 1.279 . S
C1002 C1000 1.348 . S
C1002 C1004 1.353 . S
C1002 H1044 0.929 . S
C1003 C1000 1.356 . S
C1003 C1005 1.358 . S
C1003 H1045 0.930 . S
C1004 N1001 1.314 . S
C1004 C1002 1.353 . S
C1004 H1046 0.930 . S
C1005 N1001 1.279 . S
C1005 C1003 1.358 . S
C1005 H1047 0.930 . S
C1006 C1007 1.348 . S
C1006 C1008 1.356 . S
C1006 O1031 1.325 . S
C1007 C1006 1.348 . S
C1007 C1009 1.353 . S
C1007 H1048 0.929 . S
C1008 C1006 1.356 . S
C1008 C1010 1.358 . S
C1008 H1049 0.930 . S
C1009 C1007 1.353 . S
C1009 N1011 1.314 . S
C1009 H1050 0.930 . S
C1010 C1008 1.358 . S
C1010 N1011 1.279 . S
C1010 H1051 0.930 . S
N1011 C1009 1.314 . S
N1011 C1010 1.279 . S
C1012 C1014 1.353 . S
C1012 N1015 1.314 . S
C1012 H1018 0.930 . S
C1013 N1015 1.279 . S
C1013 C1016 1.358 . S
C1013 H1019 0.930 . S
C1014 C1012 1.353 . S
C1014 C1017 1.348 . S
C1014 H1052 0.929 . S
N1015 Li970 1.990 . S
N1015 C1012 1.314 . S
N1015 C1013 1.279 . S
C1016 C1013 1.358 . S
C1016 C1017 1.356 . S
C1016 H1053 0.930 . S
C1017 C1014 1.348 . S
C1017 C1016 1.356 . S
H1018 C1012 0.930 . S
H1019 C1013 0.930 . S
C1020 N1021 1.314 . S
C1020 C1022 1.353 . S
C1020 H1026 0.930 . S
N1021 Li971 1.990 . S
N1021 C1020 1.314 . S
N1021 C1024 1.279 . S
C1022 C1020 1.353 . S
C1022 C1025 1.348 . S
C1022 H1054 0.929 . S
C1023 C1024 1.358 . S
C1023 C1025 1.356 . S
C1023 H1055 0.930 . S
C1024 N1021 1.279 . S
C1024 C1023 1.358 . S
C1024 H1027 0.930 . S
C1025 C1022 1.348 . S
C1025 C1023 1.356 . S
H1026 C1020 0.930 . S
H1027 C1024 0.930 . S
O1028 Li968 1.956 . S
O1028 Li969 1.970 . S
O1028 Li970 1.961 . S
O1028 C972 1.325 . S
O1029 Li968 1.970 . S
O1029 Li969 1.956 . S
O1029 Li971 1.961 . S
O1029 C978 1.325 . S
O1030 Li968 1.961 . S
O1030 Li970 1.956 . S
O1030 Li971 1.970 . S
O1030 C1000 1.325 . S
O1031 Li969 1.961 . S
O1031 Li970 1.970 . S
O1031 Li971 1.956 . S
O1031 C1006 1.325 . S
H1032 C974 0.929 . S
H1033 C975 0.930 . S
H1034 C976 0.930 . S
H1035 C977 0.930 . S
H1036 C979 0.930 . S
H1037 C981 0.929 . S
H1038 C982 0.930 . S
H1039 C983 0.930 . S
H1040 C986 0.930 . S
H1041 C989 0.929 . S
H1042 C994 0.929 . S
H1043 C995 0.930 . S
H1044 C1002 0.929 . S
H1045 C1003 0.930 . S
H1046 C1004 0.930 . S
H1047 C1005 0.930 . S
H1048 C1007 0.929 . S
H1049 C1008 0.930 . S
H1050 C1009 0.930 . S
H1051 C1010 0.930 . S
H1052 C1014 0.929 . S
H1053 C1016 0.930 . S
H1054 C1022 0.929 . S
H1055 C1023 0.930 . S
Li1056 N1073 1.990 . S
Li1056 O1116 1.956 . S
Li1056 O1117 1.970 . S
Li1056 O1118 1.961 . S
Li1057 N1081 1.990 . S
Li1057 O1116 1.970 . S
Li1057 O1117 1.956 . S
Li1057 O1119 1.961 . S
Li1058 N1103 1.990 . S
Li1058 O1116 1.961 . S
Li1058 O1118 1.956 . S
Li1058 O1119 1.970 . S
Li1059 N1109 1.990 . S
Li1059 O1117 1.961 . S
Li1059 O1118 1.970 . S
Li1059 O1119 1.956 . S
C1060 C1062 1.348 . S
C1060 C1063 1.356 . S
C1060 O1116 1.325 . S
N1061 C1064 1.314 . S
N1061 C1065 1.279 . S
C1062 C1060 1.348 . S
C1062 C1064 1.353 . S
C1062 H1120 0.929 . S
C1063 C1060 1.356 . S
C1063 C1065 1.358 . S
C1063 H1121 0.930 . S
C1064 N1061 1.314 . S
C1064 C1062 1.353 . S
C1064 H1122 0.930 . S
C1065 N1061 1.279 . S
C1065 C1063 1.358 . S
C1065 H1123 0.930 . S
C1066 C1069 1.348 1_655 S
C1066 C1070 1.356 . S
C1066 O1117 1.325 . S
C1067 N1068 1.279 . S
C1067 C1070 1.358 1_455 S
C1067 H1124 0.930 . S
N1068 C1067 1.279 . S
N1068 C1071 1.314 . S
C1069 C1066 1.348 1_455 S
C1069 C1071 1.353 . S
C1069 H1125 0.942 . S
C1070 C1066 1.356 . S
C1070 C1067 1.358 1_655 S
C1070 H1126 0.930 . S
C1071 N1068 1.314 . S
C1071 C1069 1.353 . S
C1071 H1127 0.930 . S
C1072 N1073 1.314 . S
C1072 C1077 1.353 . S
C1072 H1078 0.930 . S
N1073 Li1056 1.990 . S
N1073 C1072 1.314 . S
N1073 C1075 1.279 . S
C1074 C1075 1.358 . S
C1074 C1076 1.356 . S
C1074 H1128 0.930 . S
C1075 N1073 1.279 . S
C1075 C1074 1.358 . S
C1075 H1079 0.930 . S
C1076 C1074 1.356 . S
C1076 C1077 1.348 . S
C1077 C1072 1.353 . S
C1077 C1076 1.348 . S
C1077 H1129 0.929 . S
H1078 C1072 0.930 . S
H1079 C1075 0.930 . S
C1080 N1081 1.314 . S
C1080 C1082 1.353 . S
C1080 H1086 0.930 . S
N1081 Li1057 1.990 . S
N1081 C1080 1.314 . S
N1081 C1084 1.279 . S
C1082 C1080 1.353 . S
C1082 C1085 1.348 . S
C1082 H1130 0.929 . S
C1083 C1084 1.358 . S
C1083 C1085 1.356 . S
C1083 H1131 0.876 1_655 S
C1084 N1081 1.279 . S
C1084 C1083 1.358 . S
C1084 H1087 0.930 . S
C1085 C1082 1.348 . S
C1085 C1083 1.356 . S
H1086 C1080 0.930 . S
H1087 C1084 0.930 . S
C1088 C1090 1.348 . S
C1088 C1091 1.356 . S
C1088 O1118 1.325 . S
N1089 C1092 1.314 . S
N1089 C1093 1.279 . S
C1090 C1088 1.348 . S
C1090 C1092 1.353 . S
C1090 H1132 0.929 . S
C1091 C1088 1.356 . S
C1091 C1093 1.358 . S
C1091 H1133 0.930 . S
C1092 N1089 1.314 . S
C1092 C1090 1.353 . S
C1092 H1134 0.930 . S
C1093 N1089 1.279 . S
C1093 C1091 1.358 . S
C1093 H1135 0.930 . S
C1094 C1095 1.348 . S
C1094 C1096 1.356 . S
C1094 O1119 1.325 . S
C1095 C1094 1.348 . S
C1095 C1097 1.353 . S
C1095 H1136 0.929 . S
C1096 C1094 1.356 . S
C1096 C1098 1.358 . S
C1096 H1137 0.930 . S
C1097 C1095 1.353 . S
C1097 N1099 1.314 . S
C1097 H1138 0.930 . S
C1098 C1096 1.358 . S
C1098 N1099 1.279 . S
C1098 H1139 0.930 . S
N1099 C1097 1.314 . S
N1099 C1098 1.279 . S
C1100 C1102 1.353 . S
C1100 N1103 1.314 . S
C1100 H1106 0.930 . S
C1101 N1103 1.279 . S
C1101 C1104 1.358 . S
C1101 H1107 0.930 . S
C1102 C1100 1.353 . S
C1102 C1105 1.348 . S
C1102 H1140 0.929 . S
N1103 Li1058 1.990 . S
N1103 C1100 1.314 . S
N1103 C1101 1.279 . S
C1104 C1101 1.358 . S
C1104 C1105 1.356 . S
C1104 H1141 0.930 . S
C1105 C1102 1.348 . S
C1105 C1104 1.356 . S
H1106 C1100 0.930 . S
H1107 C1101 0.930 . S
C1108 N1109 1.314 . S
C1108 C1110 1.353 . S
C1108 H1114 0.930 . S
N1109 Li1059 1.990 . S
N1109 C1108 1.314 . S
N1109 C1112 1.279 . S
C1110 C1108 1.353 . S
C1110 C1113 1.348 . S
C1110 H1142 0.929 . S
C1111 C1112 1.358 . S
C1111 C1113 1.356 . S
C1111 H1143 0.930 . S
C1112 N1109 1.279 . S
C1112 C1111 1.358 . S
C1112 H1115 0.930 . S
C1113 C1110 1.348 . S
C1113 C1111 1.356 . S
H1114 C1108 0.930 . S
H1115 C1112 0.930 . S
O1116 Li1056 1.956 . S
O1116 Li1057 1.970 . S
O1116 Li1058 1.961 . S
O1116 C1060 1.325 . S
O1117 Li1056 1.970 . S
O1117 Li1057 1.956 . S
O1117 Li1059 1.961 . S
O1117 C1066 1.325 . S
O1118 Li1056 1.961 . S
O1118 Li1058 1.956 . S
O1118 Li1059 1.970 . S
O1118 C1088 1.325 . S
O1119 Li1057 1.961 . S
O1119 Li1058 1.970 . S
O1119 Li1059 1.956 . S
O1119 C1094 1.325 . S
H1120 C1062 0.929 . S
H1121 C1063 0.930 . S
H1122 C1064 0.930 . S
H1123 C1065 0.930 . S
H1124 C1067 0.930 . S
H1125 C1069 0.942 . S
H1126 C1070 0.930 . S
H1127 C1071 0.930 . S
H1128 C1074 0.930 . S
H1129 C1077 0.929 . S
H1130 C1082 0.929 . S
H1131 C1083 0.876 1_455 S
H1132 C1090 0.929 . S
H1133 C1091 0.930 . S
H1134 C1092 0.930 . S
H1135 C1093 0.930 . S
H1136 C1095 0.929 . S
H1137 C1096 0.930 . S
H1138 C1097 0.930 . S
H1139 C1098 0.930 . S
H1140 C1102 0.929 . S
H1141 C1104 0.930 . S
H1142 C1110 0.929 . S
H1143 C1111 0.930 . S
Li1144 N1161 1.990 . S
Li1144 O1204 1.956 . S
Li1144 O1205 1.970 . S
Li1144 O1206 1.961 . S
Li1145 N1169 1.990 . S
Li1145 O1204 1.970 . S
Li1145 O1205 1.956 . S
Li1145 O1207 1.961 . S
Li1146 N1191 1.990 . S
Li1146 O1204 1.961 . S
Li1146 O1206 1.956 . S
Li1146 O1207 1.970 . S
Li1147 N1197 1.990 . S
Li1147 O1205 1.961 . S
Li1147 O1206 1.970 . S
Li1147 O1207 1.956 . S
C1148 C1150 1.348 . S
C1148 C1151 1.356 . S
C1148 O1204 1.325 . S
N1149 C1152 1.314 . S
N1149 C1153 1.279 . S
C1150 C1148 1.348 . S
C1150 C1152 1.353 . S
C1150 H1208 0.929 . S
C1151 C1148 1.356 . S
C1151 C1153 1.358 . S
C1151 H1209 0.930 . S
C1152 N1149 1.314 . S
C1152 C1150 1.353 . S
C1152 H1210 0.930 . S
C1153 N1149 1.279 . S
C1153 C1151 1.358 . S
C1153 H1211 0.930 . S
C1154 C1157 1.348 . S
C1154 C1158 1.356 . S
C1154 O1205 1.325 . S
C1155 N1156 1.279 . S
C1155 C1158 1.358 . S
C1155 H1212 0.930 . S
N1156 C1155 1.279 . S
N1156 C1159 1.314 . S
C1157 C1154 1.348 . S
C1157 C1159 1.353 . S
C1157 H1213 0.929 . S
C1158 C1154 1.356 . S
C1158 C1155 1.358 . S
C1158 H1214 0.930 . S
C1159 N1156 1.314 . S
C1159 C1157 1.353 . S
C1159 H1215 0.930 . S
C1160 N1161 1.314 . S
C1160 C1165 1.353 . S
C1160 H1166 0.930 . S
N1161 Li1144 1.990 . S
N1161 C1160 1.314 . S
N1161 C1163 1.279 . S
C1162 C1163 1.358 . S
C1162 C1164 1.356 . S
C1162 H1216 0.930 . S
C1163 N1161 1.279 . S
C1163 C1162 1.358 . S
C1163 H1167 0.930 . S
C1164 C1162 1.356 . S
C1164 C1165 1.348 . S
C1165 C1160 1.353 . S
C1165 C1164 1.348 . S
C1165 H1217 0.929 . S
H1166 C1160 0.930 . S
H1167 C1163 0.930 . S
C1168 N1169 1.314 . S
C1168 C1170 1.353 . S
C1168 H1174 0.930 . S
N1169 Li1145 1.990 . S
N1169 C1168 1.314 . S
N1169 C1172 1.279 . S
C1170 C1168 1.353 . S
C1170 C1173 1.348 . S
C1170 H1218 0.929 . S
C1171 C1172 1.358 . S
C1171 C1173 1.356 . S
C1171 H1219 0.930 . S
C1172 N1169 1.279 . S
C1172 C1171 1.358 . S
C1172 H1175 0.930 . S
C1173 C1170 1.348 . S
C1173 C1171 1.356 . S
H1174 C1168 0.930 . S
H1175 C1172 0.930 . S
C1176 C1178 1.348 . S
C1176 C1179 1.356 . S
C1176 O1206 1.325 . S
N1177 C1180 1.314 . S
N1177 C1181 1.279 . S
C1178 C1176 1.348 . S
C1178 C1180 1.353 . S
C1178 H1220 0.929 . S
C1179 C1176 1.356 . S
C1179 C1181 1.358 . S
C1179 H1221 0.930 . S
C1180 N1177 1.314 . S
C1180 C1178 1.353 . S
C1180 H1222 0.930 . S
C1181 N1177 1.279 . S
C1181 C1179 1.358 . S
C1181 H1223 0.930 . S
C1182 C1183 1.348 . S
C1182 C1184 1.356 . S
C1182 O1207 1.325 . S
C1183 C1182 1.348 . S
C1183 C1185 1.353 . S
C1183 H1224 0.929 . S
C1184 C1182 1.356 . S
C1184 C1186 1.358 . S
C1184 H1225 0.930 . S
C1185 C1183 1.353 . S
C1185 N1187 1.314 . S
C1185 H1226 0.930 . S
C1186 C1184 1.358 . S
C1186 N1187 1.279 . S
C1186 H1227 0.930 . S
N1187 C1185 1.314 . S
N1187 C1186 1.279 . S
C1188 C1190 1.353 . S
C1188 N1191 1.314 . S
C1188 H1194 0.930 . S
C1189 N1191 1.279 . S
C1189 C1192 1.358 . S
C1189 H1195 0.930 . S
C1190 C1188 1.353 . S
C1190 C1193 1.348 . S
C1190 H1228 0.929 . S
N1191 Li1146 1.990 . S
N1191 C1188 1.314 . S
N1191 C1189 1.279 . S
C1192 C1189 1.358 . S
C1192 C1193 1.356 . S
C1192 H1229 0.930 . S
C1193 C1190 1.348 . S
C1193 C1192 1.356 . S
H1194 C1188 0.930 . S
H1195 C1189 0.930 . S
C1196 N1197 1.314 . S
C1196 C1198 1.353 . S
C1196 H1202 0.930 . S
N1197 Li1147 1.990 . S
N1197 C1196 1.314 . S
N1197 C1200 1.279 . S
C1198 C1196 1.353 . S
C1198 C1201 1.348 . S
C1198 H1230 0.929 . S
C1199 C1200 1.358 . S
C1199 C1201 1.356 . S
C1199 H1231 0.930 . S
C1200 N1197 1.279 . S
C1200 C1199 1.358 . S
C1200 H1203 0.930 . S
C1201 C1198 1.348 . S
C1201 C1199 1.356 . S
H1202 C1196 0.930 . S
H1203 C1200 0.930 . S
O1204 Li1144 1.956 . S
O1204 Li1145 1.970 . S
O1204 Li1146 1.961 . S
O1204 C1148 1.325 . S
O1205 Li1144 1.970 . S
O1205 Li1145 1.956 . S
O1205 Li1147 1.961 . S
O1205 C1154 1.325 . S
O1206 Li1144 1.961 . S
O1206 Li1146 1.956 . S
O1206 Li1147 1.970 . S
O1206 C1176 1.325 . S
O1207 Li1145 1.961 . S
O1207 Li1146 1.970 . S
O1207 Li1147 1.956 . S
O1207 C1182 1.325 . S
H1208 C1150 0.929 . S
H1209 C1151 0.930 . S
H1210 C1152 0.930 . S
H1211 C1153 0.930 . S
H1212 C1155 0.930 . S
H1213 C1157 0.929 . S
H1214 C1158 0.930 . S
H1215 C1159 0.930 . S
H1216 C1162 0.930 . S
H1217 C1165 0.929 . S
H1218 C1170 0.929 . S
H1219 C1171 0.930 . S
H1220 C1178 0.929 . S
H1221 C1179 0.930 . S
H1222 C1180 0.930 . S
H1223 C1181 0.930 . S
H1224 C1183 0.929 . S
H1225 C1184 0.930 . S
H1226 C1185 0.930 . S
H1227 C1186 0.930 . S
H1228 C1190 0.929 . S
H1229 C1192 0.930 . S
H1230 C1198 0.929 . S
H1231 C1199 0.930 . S
Li1232 N1249 1.990 . S
Li1232 O1292 1.956 . S
Li1232 O1293 1.970 . S
Li1232 O1294 1.961 . S
Li1233 N1257 1.990 . S
Li1233 O1292 1.970 . S
Li1233 O1293 1.956 . S
Li1233 O1295 1.961 . S
Li1234 N1279 1.990 . S
Li1234 O1292 1.961 . S
Li1234 O1294 1.956 . S
Li1234 O1295 1.970 . S
Li1235 N1285 1.990 . S
Li1235 O1293 1.961 . S
Li1235 O1294 1.970 . S
Li1235 O1295 1.956 . S
C1236 C1238 1.348 . S
C1236 C1239 1.356 . S
C1236 O1292 1.325 . S
N1237 C1240 1.314 . S
N1237 C1241 1.279 . S
C1238 C1236 1.348 . S
C1238 C1240 1.353 . S
C1238 H1296 0.929 . S
C1239 C1236 1.356 . S
C1239 C1241 1.358 . S
C1239 H1297 0.930 . S
C1240 N1237 1.314 . S
C1240 C1238 1.353 . S
C1240 H1298 0.930 . S
C1241 N1237 1.279 . S
C1241 C1239 1.358 . S
C1241 H1299 0.930 . S
C1242 C1245 1.348 . S
C1242 C1246 1.356 . S
C1242 O1293 1.325 . S
C1243 N1244 1.279 . S
C1243 C1246 1.358 . S
C1243 H1300 0.930 . S
N1244 C1243 1.279 . S
N1244 C1247 1.314 . S
C1245 C1242 1.348 . S
C1245 C1247 1.353 . S
C1245 H1301 0.929 . S
C1246 C1242 1.356 . S
C1246 C1243 1.358 . S
C1246 H1302 0.930 . S
C1247 N1244 1.314 . S
C1247 C1245 1.353 . S
C1247 H1303 0.930 . S
C1248 N1249 1.314 . S
C1248 C1253 1.353 . S
C1248 H1254 0.930 . S
N1249 Li1232 1.990 . S
N1249 C1248 1.314 . S
N1249 C1251 1.279 . S
C1250 C1251 1.358 . S
C1250 C1252 1.356 . S
C1250 H1304 0.930 . S
C1251 N1249 1.279 . S
C1251 C1250 1.358 . S
C1251 H1255 0.930 . S
C1252 C1250 1.356 . S
C1252 C1253 1.348 . S
C1253 C1248 1.353 . S
C1253 C1252 1.348 . S
C1253 H1305 0.929 . S
H1254 C1248 0.930 . S
H1255 C1251 0.930 . S
C1256 N1257 1.314 . S
C1256 C1258 1.353 . S
C1256 H1262 0.930 . S
N1257 Li1233 1.990 . S
N1257 C1256 1.314 . S
N1257 C1260 1.279 . S
C1258 C1256 1.353 . S
C1258 C1261 1.348 . S
C1258 H1306 0.929 . S
C1259 C1260 1.358 . S
C1259 C1261 1.356 . S
C1259 H1307 0.930 . S
C1260 N1257 1.279 . S
C1260 C1259 1.358 . S
C1260 H1263 0.930 . S
C1261 C1258 1.348 . S
C1261 C1259 1.356 . S
H1262 C1256 0.930 . S
H1263 C1260 0.930 . S
C1264 C1266 1.348 . S
C1264 C1267 1.356 . S
C1264 O1294 1.325 . S
N1265 C1268 1.314 . S
N1265 C1269 1.279 . S
C1266 C1264 1.348 . S
C1266 C1268 1.353 . S
C1266 H1308 0.929 . S
C1267 C1264 1.356 . S
C1267 C1269 1.358 . S
C1267 H1309 0.930 . S
C1268 N1265 1.314 . S
C1268 C1266 1.353 . S
C1268 H1310 0.930 . S
C1269 N1265 1.279 . S
C1269 C1267 1.358 . S
C1269 H1311 0.930 . S
C1270 C1271 1.348 1_655 S
C1270 C1272 1.356 . S
C1270 O1295 1.325 . S
C1271 C1270 1.348 1_455 S
C1271 C1273 1.353 . S
C1271 H1312 0.942 . S
C1272 C1270 1.356 . S
C1272 C1274 1.358 1_655 S
C1272 H1313 0.930 . S
C1273 C1271 1.353 . S
C1273 N1275 1.314 . S
C1273 H1314 0.930 . S
C1274 C1272 1.358 1_455 S
C1274 N1275 1.279 . S
C1274 H1315 0.930 . S
N1275 C1273 1.314 . S
N1275 C1274 1.279 . S
C1276 C1278 1.353 . S
C1276 N1279 1.314 . S
C1276 H1282 0.930 . S
C1277 N1279 1.279 . S
C1277 C1280 1.358 . S
C1277 H1283 0.930 . S
C1278 C1276 1.353 . S
C1278 C1281 1.348 . S
C1278 H1316 0.929 . S
N1279 Li1234 1.990 . S
N1279 C1276 1.314 . S
N1279 C1277 1.279 . S
C1280 C1277 1.358 . S
C1280 C1281 1.356 . S
C1280 H1317 0.930 . S
C1281 C1278 1.348 . S
C1281 C1280 1.356 . S
H1282 C1276 0.930 . S
H1283 C1277 0.930 . S
C1284 N1285 1.314 . S
C1284 C1286 1.353 . S
C1284 H1290 0.930 . S
N1285 Li1235 1.990 . S
N1285 C1284 1.314 . S
N1285 C1288 1.279 . S
C1286 C1284 1.353 . S
C1286 C1289 1.348 . S
C1286 H1318 0.929 . S
C1287 C1288 1.358 . S
C1287 C1289 1.356 . S
C1287 H1319 0.876 1_655 S
C1288 N1285 1.279 . S
C1288 C1287 1.358 . S
C1288 H1291 0.930 . S
C1289 C1286 1.348 . S
C1289 C1287 1.356 . S
H1290 C1284 0.930 . S
H1291 C1288 0.930 . S
O1292 Li1232 1.956 . S
O1292 Li1233 1.970 . S
O1292 Li1234 1.961 . S
O1292 C1236 1.325 . S
O1293 Li1232 1.970 . S
O1293 Li1233 1.956 . S
O1293 Li1235 1.961 . S
O1293 C1242 1.325 . S
O1294 Li1232 1.961 . S
O1294 Li1234 1.956 . S
O1294 Li1235 1.970 . S
O1294 C1264 1.325 . S
O1295 Li1233 1.961 . S
O1295 Li1234 1.970 . S
O1295 Li1235 1.956 . S
O1295 C1270 1.325 . S
H1296 C1238 0.929 . S
H1297 C1239 0.930 . S
H1298 C1240 0.930 . S
H1299 C1241 0.930 . S
H1300 C1243 0.930 . S
H1301 C1245 0.929 . S
H1302 C1246 0.930 . S
H1303 C1247 0.930 . S
H1304 C1250 0.930 . S
H1305 C1253 0.929 . S
H1306 C1258 0.929 . S
H1307 C1259 0.930 . S
H1308 C1266 0.929 . S
H1309 C1267 0.930 . S
H1310 C1268 0.930 . S
H1311 C1269 0.930 . S
H1312 C1271 0.942 . S
H1313 C1272 0.930 . S
H1314 C1273 0.930 . S
H1315 C1274 0.930 . S
H1316 C1278 0.929 . S
H1317 C1280 0.930 . S
H1318 C1286 0.929 . S
H1319 C1287 0.876 1_455 S
Li1320 N1337 1.990 . S
Li1320 O1380 1.956 . S
Li1320 O1381 1.970 . S
Li1320 O1382 1.961 . S
Li1321 N1345 1.990 . S
Li1321 O1380 1.970 . S
Li1321 O1381 1.956 . S
Li1321 O1383 1.961 . S
Li1322 N1367 1.990 . S
Li1322 O1380 1.961 . S
Li1322 O1382 1.956 . S
Li1322 O1383 1.970 . S
Li1323 N1373 1.990 . S
Li1323 O1381 1.961 . S
Li1323 O1382 1.970 . S
Li1323 O1383 1.956 . S
C1324 C1326 1.348 . S
C1324 C1327 1.356 . S
C1324 O1380 1.325 . S
N1325 C1328 1.314 . S
N1325 C1329 1.279 . S
C1326 C1324 1.348 . S
C1326 C1328 1.353 . S
C1326 H1384 0.929 . S
C1327 C1324 1.356 . S
C1327 C1329 1.358 . S
C1327 H1385 0.930 . S
C1328 N1325 1.314 . S
C1328 C1326 1.353 . S
C1328 H1386 0.930 . S
C1329 N1325 1.279 . S
C1329 C1327 1.358 . S
C1329 H1387 0.930 . S
C1330 C1333 1.348 . S
C1330 C1334 1.356 . S
C1330 O1381 1.325 . S
C1331 N1332 1.279 . S
C1331 C1334 1.358 . S
C1331 H1388 0.930 . S
N1332 C1331 1.279 . S
N1332 C1335 1.314 . S
C1333 C1330 1.348 . S
C1333 C1335 1.353 . S
C1333 H1389 0.929 . S
C1334 C1330 1.356 . S
C1334 C1331 1.358 . S
C1334 H1390 0.930 . S
C1335 N1332 1.314 . S
C1335 C1333 1.353 . S
C1335 H1391 0.930 . S
C1336 N1337 1.314 . S
C1336 C1341 1.353 . S
C1336 H1342 0.930 . S
N1337 Li1320 1.990 . S
N1337 C1336 1.314 . S
N1337 C1339 1.279 . S
C1338 C1339 1.358 . S
C1338 C1340 1.356 . S
C1338 H1392 0.930 . S
C1339 N1337 1.279 . S
C1339 C1338 1.358 . S
C1339 H1343 0.930 . S
C1340 C1338 1.356 . S
C1340 C1341 1.348 . S
C1341 C1336 1.353 . S
C1341 C1340 1.348 . S
C1341 H1393 0.929 . S
H1342 C1336 0.930 . S
H1343 C1339 0.930 . S
C1344 N1345 1.314 . S
C1344 C1346 1.353 . S
C1344 H1350 0.930 . S
N1345 Li1321 1.990 . S
N1345 C1344 1.314 . S
N1345 C1348 1.279 . S
C1346 C1344 1.353 . S
C1346 C1349 1.348 . S
C1346 H1394 0.929 . S
C1347 C1348 1.358 . S
C1347 C1349 1.356 . S
C1347 H1395 0.930 . S
C1348 N1345 1.279 . S
C1348 C1347 1.358 . S
C1348 H1351 0.930 . S
C1349 C1346 1.348 . S
C1349 C1347 1.356 . S
H1350 C1344 0.930 . S
H1351 C1348 0.930 . S
C1352 C1354 1.348 . S
C1352 C1355 1.356 . S
C1352 O1382 1.325 . S
N1353 C1356 1.314 . S
N1353 C1357 1.279 . S
C1354 C1352 1.348 . S
C1354 C1356 1.353 . S
C1354 H1396 0.929 . S
C1355 C1352 1.356 . S
C1355 C1357 1.358 . S
C1355 H1397 0.930 . S
C1356 N1353 1.314 . S
C1356 C1354 1.353 . S
C1356 H1398 0.930 . S
C1357 N1353 1.279 . S
C1357 C1355 1.358 . S
C1357 H1399 0.930 . S
C1358 C1359 1.348 . S
C1358 C1360 1.356 . S
C1358 O1383 1.325 . S
C1359 C1358 1.348 . S
C1359 C1361 1.353 . S
C1359 H1400 0.929 . S
C1360 C1358 1.356 . S
C1360 C1362 1.358 . S
C1360 H1401 0.930 . S
C1361 C1359 1.353 . S
C1361 N1363 1.314 . S
C1361 H1402 0.930 . S
C1362 C1360 1.358 . S
C1362 N1363 1.279 . S
C1362 H1403 0.930 . S
N1363 C1361 1.314 . S
N1363 C1362 1.279 . S
C1364 C1366 1.353 . S
C1364 N1367 1.314 . S
C1364 H1370 0.930 . S
C1365 N1367 1.279 . S
C1365 C1368 1.358 . S
C1365 H1371 0.930 . S
C1366 C1364 1.353 . S
C1366 C1369 1.348 . S
C1366 H1404 0.929 . S
N1367 Li1322 1.990 . S
N1367 C1364 1.314 . S
N1367 C1365 1.279 . S
C1368 C1365 1.358 . S
C1368 C1369 1.356 . S
C1368 H1405 0.930 . S
C1369 C1366 1.348 . S
C1369 C1368 1.356 . S
H1370 C1364 0.930 . S
H1371 C1365 0.930 . S
C1372 N1373 1.314 . S
C1372 C1374 1.353 . S
C1372 H1378 0.930 . S
N1373 Li1323 1.990 . S
N1373 C1372 1.314 . S
N1373 C1376 1.279 . S
C1374 C1372 1.353 . S
C1374 C1377 1.348 . S
C1374 H1406 0.929 . S
C1375 C1376 1.358 . S
C1375 C1377 1.356 . S
C1375 H1407 0.930 . S
C1376 N1373 1.279 . S
C1376 C1375 1.358 . S
C1376 H1379 0.930 . S
C1377 C1374 1.348 . S
C1377 C1375 1.356 . S
H1378 C1372 0.930 . S
H1379 C1376 0.930 . S
O1380 Li1320 1.956 . S
O1380 Li1321 1.970 . S
O1380 Li1322 1.961 . S
O1380 C1324 1.325 . S
O1381 Li1320 1.970 . S
O1381 Li1321 1.956 . S
O1381 Li1323 1.961 . S
O1381 C1330 1.325 . S
O1382 Li1320 1.961 . S
O1382 Li1322 1.956 . S
O1382 Li1323 1.970 . S
O1382 C1352 1.325 . S
O1383 Li1321 1.961 . S
O1383 Li1322 1.970 . S
O1383 Li1323 1.956 . S
O1383 C1358 1.325 . S
H1384 C1326 0.929 . S
H1385 C1327 0.930 . S
H1386 C1328 0.930 . S
H1387 C1329 0.930 . S
H1388 C1331 0.930 . S
H1389 C1333 0.929 . S
H1390 C1334 0.930 . S
H1391 C1335 0.930 . S
H1392 C1338 0.930 . S
H1393 C1341 0.929 . S
H1394 C1346 0.929 . S
H1395 C1347 0.930 . S
H1396 C1354 0.929 . S
H1397 C1355 0.930 . S
H1398 C1356 0.930 . S
H1399 C1357 0.930 . S
H1400 C1359 0.929 . S
H1401 C1360 0.930 . S
H1402 C1361 0.930 . S
H1403 C1362 0.930 . S
H1404 C1366 0.929 . S
H1405 C1368 0.930 . S
H1406 C1374 0.929 . S
H1407 C1375 0.930 . S
Li1408 N1425 1.990 . S
Li1408 O1468 1.956 . S
Li1408 O1469 1.970 . S
Li1408 O1470 1.961 . S
Li1409 N1433 1.990 . S
Li1409 O1468 1.970 . S
Li1409 O1469 1.956 . S
Li1409 O1471 1.961 . S
Li1410 N1455 1.990 . S
Li1410 O1468 1.961 . S
Li1410 O1470 1.956 . S
Li1410 O1471 1.970 . S
Li1411 N1461 1.990 . S
Li1411 O1469 1.961 . S
Li1411 O1470 1.970 . S
Li1411 O1471 1.956 . S
C1412 C1414 1.348 . S
C1412 C1415 1.356 . S
C1412 O1468 1.325 . S
N1413 C1416 1.314 . S
N1413 C1417 1.279 . S
C1414 C1412 1.348 . S
C1414 C1416 1.353 . S
C1414 H1472 0.929 . S
C1415 C1412 1.356 . S
C1415 C1417 1.358 . S
C1415 H1473 0.930 . S
C1416 N1413 1.314 . S
C1416 C1414 1.353 . S
C1416 H1474 0.930 . S
C1417 N1413 1.279 . S
C1417 C1415 1.358 . S
C1417 H1475 0.930 . S
C1418 C1421 1.348 . S
C1418 C1422 1.356 . S
C1418 O1469 1.325 . S
C1419 N1420 1.279 . S
C1419 C1422 1.358 . S
C1419 H1476 0.930 . S
N1420 C1419 1.279 . S
N1420 C1423 1.314 . S
C1421 C1418 1.348 . S
C1421 C1423 1.353 . S
C1421 H1477 0.929 . S
C1422 C1418 1.356 . S
C1422 C1419 1.358 . S
C1422 H1478 0.930 . S
C1423 N1420 1.314 . S
C1423 C1421 1.353 . S
C1423 H1479 0.930 . S
C1424 N1425 1.314 . S
C1424 C1429 1.353 . S
C1424 H1430 0.930 . S
N1425 Li1408 1.990 . S
N1425 C1424 1.314 . S
N1425 C1427 1.279 . S
C1426 C1427 1.358 . S
C1426 C1428 1.356 . S
C1426 H1480 0.930 . S
C1427 N1425 1.279 . S
C1427 C1426 1.358 . S
C1427 H1431 0.930 . S
C1428 C1426 1.356 . S
C1428 C1429 1.348 . S
C1429 C1424 1.353 . S
C1429 C1428 1.348 . S
C1429 H1481 0.929 . S
H1430 C1424 0.930 . S
H1431 C1427 0.930 . S
C1432 N1433 1.314 . S
C1432 C1434 1.353 . S
C1432 H1438 0.930 . S
N1433 Li1409 1.990 . S
N1433 C1432 1.314 . S
N1433 C1436 1.279 . S
C1434 C1432 1.353 . S
C1434 C1437 1.348 . S
C1434 H1482 0.929 . S
C1435 C1436 1.358 . S
C1435 C1437 1.356 . S
C1435 H1483 0.930 . S
C1436 N1433 1.279 . S
C1436 C1435 1.358 . S
C1436 H1439 0.930 . S
C1437 C1434 1.348 . S
C1437 C1435 1.356 . S
H1438 C1432 0.930 . S
H1439 C1436 0.930 . S
C1440 C1442 1.348 . S
C1440 C1443 1.356 . S
C1440 O1470 1.325 . S
N1441 C1444 1.314 . S
N1441 C1445 1.279 1_565 S
C1442 C1440 1.348 . S
C1442 C1444 1.353 1_545 S
C1442 H1484 0.929 . S
C1443 C1440 1.356 . S
C1443 C1445 1.358 . S
C1443 H1485 0.930 . S
C1444 N1441 1.314 . S
C1444 C1442 1.353 1_565 S
C1444 H1486 0.930 . S
C1445 N1441 1.279 1_545 S
C1445 C1443 1.358 . S
C1445 H1487 0.930 . S
C1446 C1447 1.348 . S
C1446 C1448 1.356 . S
C1446 O1471 1.325 . S
C1447 C1446 1.348 . S
C1447 C1449 1.353 . S
C1447 H1488 0.929 . S
C1448 C1446 1.356 . S
C1448 C1450 1.358 . S
C1448 H1489 0.930 . S
C1449 C1447 1.353 . S
C1449 N1451 1.314 . S
C1449 H1490 0.930 . S
C1450 C1448 1.358 . S
C1450 N1451 1.279 . S
C1450 H1491 0.930 . S
N1451 C1449 1.314 . S
N1451 C1450 1.279 . S
C1452 C1454 1.353 . S
C1452 N1455 1.314 . S
C1452 H1458 0.930 . S
C1453 N1455 1.279 . S
C1453 C1456 1.358 . S
C1453 H1459 0.930 . S
C1454 C1452 1.353 . S
C1454 C1457 1.348 . S
C1454 H1492 0.929 . S
N1455 Li1410 1.990 . S
N1455 C1452 1.314 . S
N1455 C1453 1.279 . S
C1456 C1453 1.358 . S
C1456 C1457 1.356 . S
C1456 H1493 0.930 . S
C1457 C1454 1.348 . S
C1457 C1456 1.356 . S
H1458 C1452 0.930 . S
H1459 C1453 0.930 . S
C1460 N1461 1.314 . S
C1460 C1462 1.353 1_545 S
C1460 H1466 0.930 . S
N1461 Li1411 1.990 . S
N1461 C1460 1.314 . S
N1461 C1464 1.279 . S
C1462 C1460 1.353 1_565 S
C1462 C1465 1.348 . S
C1462 H1494 0.929 . S
C1463 C1464 1.358 1_565 S
C1463 C1465 1.356 . S
C1463 H1495 0.930 . S
C1464 N1461 1.279 . S
C1464 C1463 1.358 1_545 S
C1464 H1467 0.930 . S
C1465 C1462 1.348 . S
C1465 C1463 1.356 . S
H1466 C1460 0.930 . S
H1467 C1464 0.930 . S
O1468 Li1408 1.956 . S
O1468 Li1409 1.970 . S
O1468 Li1410 1.961 . S
O1468 C1412 1.325 . S
O1469 Li1408 1.970 . S
O1469 Li1409 1.956 . S
O1469 Li1411 1.961 . S
O1469 C1418 1.325 . S
O1470 Li1408 1.961 . S
O1470 Li1410 1.956 . S
O1470 Li1411 1.970 . S
O1470 C1440 1.325 . S
O1471 Li1409 1.961 . S
O1471 Li1410 1.970 . S
O1471 Li1411 1.956 . S
O1471 C1446 1.325 . S
H1472 C1414 0.929 . S
H1473 C1415 0.930 . S
H1474 C1416 0.930 . S
H1475 C1417 0.930 . S
H1476 C1419 0.930 . S
H1477 C1421 0.929 . S
H1478 C1422 0.930 . S
H1479 C1423 0.930 . S
H1480 C1426 0.930 . S
H1481 C1429 0.929 . S
H1482 C1434 0.929 . S
H1483 C1435 0.930 . S
H1484 C1442 0.929 . S
H1485 C1443 0.930 . S
H1486 C1444 0.930 . S
H1487 C1445 0.930 . S
H1488 C1447 0.929 . S
H1489 C1448 0.930 . S
H1490 C1449 0.930 . S
H1491 C1450 0.930 . S
H1492 C1454 0.929 . S
H1493 C1456 0.930 . S
H1494 C1462 0.929 . S
H1495 C1463 0.930 . S
Li1496 N1513 1.990 . S
Li1496 O1556 1.956 . S
Li1496 O1557 1.970 . S
Li1496 O1558 1.961 . S
Li1497 N1521 1.990 . S
Li1497 O1556 1.970 . S
Li1497 O1557 1.956 . S
Li1497 O1559 1.961 . S
Li1498 N1543 1.990 . S
Li1498 O1556 1.961 . S
Li1498 O1558 1.956 . S
Li1498 O1559 1.970 . S
Li1499 N1549 1.990 . S
Li1499 O1557 1.961 . S
Li1499 O1558 1.970 . S
Li1499 O1559 1.956 . S
C1500 C1502 1.348 . S
C1500 C1503 1.356 . S
C1500 O1556 1.325 . S
N1501 C1504 1.314 . S
N1501 C1505 1.279 . S
C1502 C1500 1.348 . S
C1502 C1504 1.353 . S
C1502 H1560 0.929 . S
C1503 C1500 1.356 . S
C1503 C1505 1.358 . S
C1503 H1561 0.930 . S
C1504 N1501 1.314 . S
C1504 C1502 1.353 . S
C1504 H1562 0.930 . S
C1505 N1501 1.279 . S
C1505 C1503 1.358 . S
C1505 H1563 0.930 . S
C1506 C1509 1.348 . S
C1506 C1510 1.356 . S
C1506 O1557 1.325 . S
C1507 N1508 1.279 . S
C1507 C1510 1.358 . S
C1507 H1564 0.930 . S
N1508 C1507 1.279 . S
N1508 C1511 1.314 . S
C1509 C1506 1.348 . S
C1509 C1511 1.353 . S
C1509 H1565 0.929 . S
C1510 C1506 1.356 . S
C1510 C1507 1.358 . S
C1510 H1566 0.930 . S
C1511 N1508 1.314 . S
C1511 C1509 1.353 . S
C1511 H1567 0.930 . S
C1512 N1513 1.314 . S
C1512 C1517 1.353 . S
C1512 H1518 0.930 . S
N1513 Li1496 1.990 . S
N1513 C1512 1.314 . S
N1513 C1515 1.279 . S
C1514 C1515 1.358 . S
C1514 C1516 1.356 . S
C1514 H1568 0.930 . S
C1515 N1513 1.279 . S
C1515 C1514 1.358 . S
C1515 H1519 0.930 . S
C1516 C1514 1.356 . S
C1516 C1517 1.348 . S
C1517 C1512 1.353 . S
C1517 C1516 1.348 . S
C1517 H1569 0.929 . S
H1518 C1512 0.930 . S
H1519 C1515 0.930 . S
C1520 N1521 1.314 . S
C1520 C1522 1.353 . S
C1520 H1526 0.930 . S
N1521 Li1497 1.990 . S
N1521 C1520 1.314 . S
N1521 C1524 1.279 . S
C1522 C1520 1.353 . S
C1522 C1525 1.348 . S
C1522 H1570 0.929 . S
C1523 C1524 1.358 . S
C1523 C1525 1.356 . S
C1523 H1571 0.930 . S
C1524 N1521 1.279 . S
C1524 C1523 1.358 . S
C1524 H1527 0.930 . S
C1525 C1522 1.348 . S
C1525 C1523 1.356 . S
H1526 C1520 0.930 . S
H1527 C1524 0.930 . S
C1528 C1530 1.348 1_545 S
C1528 C1531 1.356 . S
C1528 O1558 1.325 . S
N1529 C1532 1.314 . S
N1529 C1533 1.279 . S
C1530 C1528 1.348 1_565 S
C1530 C1532 1.353 . S
C1530 H1572 0.929 . S
C1531 C1528 1.356 . S
C1531 C1533 1.358 1_545 S
C1531 H1573 0.930 . S
C1532 N1529 1.314 . S
C1532 C1530 1.353 . S
C1532 H1574 0.930 . S
C1533 N1529 1.279 . S
C1533 C1531 1.358 1_565 S
C1533 H1575 0.930 . S
C1534 C1535 1.348 . S
C1534 C1536 1.356 . S
C1534 O1559 1.325 . S
C1535 C1534 1.348 . S
C1535 C1537 1.353 . S
C1535 H1576 0.929 . S
C1536 C1534 1.356 . S
C1536 C1538 1.358 . S
C1536 H1577 0.930 . S
C1537 C1535 1.353 . S
C1537 N1539 1.314 . S
C1537 H1578 0.930 . S
C1538 C1536 1.358 . S
C1538 N1539 1.279 . S
C1538 H1579 0.930 . S
N1539 C1537 1.314 . S
N1539 C1538 1.279 . S
C1540 C1542 1.353 . S
C1540 N1543 1.314 . S
C1540 H1546 0.930 . S
C1541 N1543 1.279 . S
C1541 C1544 1.358 . S
C1541 H1547 0.930 . S
C1542 C1540 1.353 . S
C1542 C1545 1.348 . S
C1542 H1580 0.929 . S
N1543 Li1498 1.990 . S
N1543 C1540 1.314 . S
N1543 C1541 1.279 . S
C1544 C1541 1.358 . S
C1544 C1545 1.356 . S
C1544 H1581 0.930 . S
C1545 C1542 1.348 . S
C1545 C1544 1.356 . S
H1546 C1540 0.930 . S
H1547 C1541 0.930 . S
C1548 N1549 1.303 1_565 S
C1548 C1550 1.372 . S
C1548 H1554 0.921 1_565 S
N1549 Li1499 1.990 . S
N1549 C1548 1.303 1_545 S
N1549 C1552 1.279 . S
C1550 C1548 1.372 . S
C1550 C1553 1.348 . S
C1550 H1582 0.929 . S
C1551 C1552 1.358 1_565 S
C1551 C1553 1.356 . S
C1551 H1583 0.930 . S
C1552 N1549 1.279 . S
C1552 C1551 1.358 1_545 S
C1552 H1555 0.930 . S
C1553 C1550 1.348 . S
C1553 C1551 1.356 . S
H1554 C1548 0.921 1_545 S
H1555 C1552 0.930 . S
O1556 Li1496 1.956 . S
O1556 Li1497 1.970 . S
O1556 Li1498 1.961 . S
O1556 C1500 1.325 . S
O1557 Li1496 1.970 . S
O1557 Li1497 1.956 . S
O1557 Li1499 1.961 . S
O1557 C1506 1.325 . S
O1558 Li1496 1.961 . S
O1558 Li1498 1.956 . S
O1558 Li1499 1.970 . S
O1558 C1528 1.325 . S
O1559 Li1497 1.961 . S
O1559 Li1498 1.970 . S
O1559 Li1499 1.956 . S
O1559 C1534 1.325 . S
H1560 C1502 0.929 . S
H1561 C1503 0.930 . S
H1562 C1504 0.930 . S
H1563 C1505 0.930 . S
H1564 C1507 0.930 . S
H1565 C1509 0.929 . S
H1566 C1510 0.930 . S
H1567 C1511 0.930 . S
H1568 C1514 0.930 . S
H1569 C1517 0.929 . S
H1570 C1522 0.929 . S
H1571 C1523 0.930 . S
H1572 C1530 0.929 . S
H1573 C1531 0.930 . S
H1574 C1532 0.930 . S
H1575 C1533 0.930 . S
H1576 C1535 0.929 . S
H1577 C1536 0.930 . S
H1578 C1537 0.930 . S
H1579 C1538 0.930 . S
H1580 C1542 0.929 . S
H1581 C1544 0.930 . S
H1582 C1550 0.929 . S
H1583 C1551 0.930 . S
Li1584 N1601 1.990 . S
Li1584 O1644 1.956 . S
Li1584 O1645 1.970 . S
Li1584 O1646 1.961 . S
Li1585 N1609 1.990 . S
Li1585 O1644 1.970 . S
Li1585 O1645 1.956 . S
Li1585 O1647 1.961 . S
Li1586 N1631 1.990 . S
Li1586 O1644 1.961 . S
Li1586 O1646 1.956 . S
Li1586 O1647 1.970 . S
Li1587 N1637 1.990 . S
Li1587 O1645 1.961 . S
Li1587 O1646 1.970 . S
Li1587 O1647 1.956 . S
C1588 C1590 1.348 . S
C1588 C1591 1.356 . S
C1588 O1644 1.325 . S
N1589 C1592 1.314 . S
N1589 C1593 1.279 . S
C1590 C1588 1.348 . S
C1590 C1592 1.353 . S
C1590 H1648 0.929 . S
C1591 C1588 1.356 . S
C1591 C1593 1.358 . S
C1591 H1649 0.930 . S
C1592 N1589 1.314 . S
C1592 C1590 1.353 . S
C1592 H1650 0.930 . S
C1593 N1589 1.279 . S
C1593 C1591 1.358 . S
C1593 H1651 0.930 . S
C1594 C1597 1.348 . S
C1594 C1598 1.356 . S
C1594 O1645 1.325 . S
C1595 N1596 1.279 . S
C1595 C1598 1.358 . S
C1595 H1652 0.930 . S
N1596 C1595 1.279 . S
N1596 C1599 1.314 . S
C1597 C1594 1.348 . S
C1597 C1599 1.353 . S
C1597 H1653 0.929 . S
C1598 C1594 1.356 . S
C1598 C1595 1.358 . S
C1598 H1654 0.930 . S
C1599 N1596 1.314 . S
C1599 C1597 1.353 . S
C1599 H1655 0.930 . S
C1600 N1601 1.314 . S
C1600 C1605 1.353 . S
C1600 H1606 0.930 . S
N1601 Li1584 1.990 . S
N1601 C1600 1.314 . S
N1601 C1603 1.279 . S
C1602 C1603 1.358 . S
C1602 C1604 1.356 . S
C1602 H1656 0.930 . S
C1603 N1601 1.279 . S
C1603 C1602 1.358 . S
C1603 H1607 0.930 . S
C1604 C1602 1.356 . S
C1604 C1605 1.348 . S
C1605 C1600 1.353 . S
C1605 C1604 1.348 . S
C1605 H1657 0.929 . S
H1606 C1600 0.930 . S
H1607 C1603 0.930 . S
C1608 N1609 1.314 . S
C1608 C1610 1.353 . S
C1608 H1614 0.930 . S
N1609 Li1585 1.990 . S
N1609 C1608 1.314 . S
N1609 C1612 1.279 . S
C1610 C1608 1.353 . S
C1610 C1613 1.348 . S
C1610 H1658 0.929 . S
C1611 C1612 1.358 . S
C1611 C1613 1.356 . S
C1611 H1659 0.930 . S
C1612 N1609 1.279 . S
C1612 C1611 1.358 . S
C1612 H1615 0.930 . S
C1613 C1610 1.348 . S
C1613 C1611 1.356 . S
H1614 C1608 0.930 . S
H1615 C1612 0.930 . S
C1616 C1618 1.348 . S
C1616 C1619 1.356 . S
C1616 O1646 1.325 . S
N1617 C1620 1.314 . S
N1617 C1621 1.279 . S
C1618 C1616 1.348 . S
C1618 C1620 1.353 . S
C1618 H1660 0.929 . S
C1619 C1616 1.356 . S
C1619 C1621 1.358 . S
C1619 H1661 0.930 . S
C1620 N1617 1.314 . S
C1620 C1618 1.353 . S
C1620 H1662 0.930 . S
C1621 N1617 1.279 . S
C1621 C1619 1.358 . S
C1621 H1663 0.930 . S
C1622 C1623 1.348 1_545 S
C1622 C1624 1.356 . S
C1622 O1647 1.325 . S
C1623 C1622 1.348 1_565 S
C1623 C1625 1.353 . S
C1623 H1664 0.929 . S
C1624 C1622 1.356 . S
C1624 C1626 1.358 1_545 S
C1624 H1665 0.930 . S
C1625 C1623 1.353 . S
C1625 N1627 1.314 . S
C1625 H1666 0.930 . S
C1626 C1624 1.358 1_565 S
C1626 N1627 1.279 . S
C1626 H1667 0.930 . S
N1627 C1625 1.314 . S
N1627 C1626 1.279 . S
C1628 C1630 1.372 . S
C1628 N1631 1.303 1_565 S
C1628 H1634 0.921 1_565 S
C1629 N1631 1.279 . S
C1629 C1632 1.358 1_545 S
C1629 H1635 0.930 . S
C1630 C1628 1.372 . S
C1630 C1633 1.348 . S
C1630 H1668 0.929 . S
N1631 Li1586 1.990 . S
N1631 C1628 1.303 1_545 S
N1631 C1629 1.279 . S
C1632 C1629 1.358 1_565 S
C1632 C1633 1.356 . S
C1632 H1669 0.930 . S
C1633 C1630 1.348 . S
C1633 C1632 1.356 . S
H1634 C1628 0.921 1_545 S
H1635 C1629 0.930 . S
C1636 N1637 1.314 . S
C1636 C1638 1.353 . S
C1636 H1642 0.930 . S
N1637 Li1587 1.990 . S
N1637 C1636 1.314 . S
N1637 C1640 1.279 . S
C1638 C1636 1.353 . S
C1638 C1641 1.348 . S
C1638 H1670 0.929 . S
C1639 C1640 1.358 . S
C1639 C1641 1.356 . S
C1639 H1671 0.930 . S
C1640 N1637 1.279 . S
C1640 C1639 1.358 . S
C1640 H1643 0.930 . S
C1641 C1638 1.348 . S
C1641 C1639 1.356 . S
H1642 C1636 0.930 . S
H1643 C1640 0.930 . S
O1644 Li1584 1.956 . S
O1644 Li1585 1.970 . S
O1644 Li1586 1.961 . S
O1644 C1588 1.325 . S
O1645 Li1584 1.970 . S
O1645 Li1585 1.956 . S
O1645 Li1587 1.961 . S
O1645 C1594 1.325 . S
O1646 Li1584 1.961 . S
O1646 Li1586 1.956 . S
O1646 Li1587 1.970 . S
O1646 C1616 1.325 . S
O1647 Li1585 1.961 . S
O1647 Li1586 1.970 . S
O1647 Li1587 1.956 . S
O1647 C1622 1.325 . S
H1648 C1590 0.929 . S
H1649 C1591 0.930 . S
H1650 C1592 0.930 . S
H1651 C1593 0.930 . S
H1652 C1595 0.930 . S
H1653 C1597 0.929 . S
H1654 C1598 0.930 . S
H1655 C1599 0.930 . S
H1656 C1602 0.930 . S
H1657 C1605 0.929 . S
H1658 C1610 0.929 . S
H1659 C1611 0.930 . S
H1660 C1618 0.929 . S
H1661 C1619 0.930 . S
H1662 C1620 0.930 . S
H1663 C1621 0.930 . S
H1664 C1623 0.929 . S
H1665 C1624 0.930 . S
H1666 C1625 0.930 . S
H1667 C1626 0.930 . S
H1668 C1630 0.929 . S
H1669 C1632 0.930 . S
H1670 C1638 0.929 . S
H1671 C1639 0.930 . S
Li1672 N1689 1.990 . S
Li1672 O1732 1.956 . S
Li1672 O1733 1.970 . S
Li1672 O1734 1.961 . S
Li1673 N1697 1.990 . S
Li1673 O1732 1.970 . S
Li1673 O1733 1.956 . S
Li1673 O1735 1.961 . S
Li1674 N1719 1.990 . S
Li1674 O1732 1.961 . S
Li1674 O1734 1.956 . S
Li1674 O1735 1.970 . S
Li1675 N1725 1.990 . S
Li1675 O1733 1.961 . S
Li1675 O1734 1.970 . S
Li1675 O1735 1.956 . S
C1676 C1678 1.348 . S
C1676 C1679 1.356 . S
C1676 O1732 1.325 . S
N1677 C1680 1.314 . S
N1677 C1681 1.279 . S
C1678 C1676 1.348 . S
C1678 C1680 1.353 . S
C1678 H1736 0.929 . S
C1679 C1676 1.356 . S
C1679 C1681 1.358 . S
C1679 H1737 0.930 . S
C1680 N1677 1.314 . S
C1680 C1678 1.353 . S
C1680 H1738 0.930 . S
C1681 N1677 1.279 . S
C1681 C1679 1.358 . S
C1681 H1739 0.930 . S
C1682 C1685 1.348 . S
C1682 C1686 1.356 . S
C1682 O1733 1.325 . S
C1683 N1684 1.279 . S
C1683 C1686 1.358 . S
C1683 H1740 0.930 . S
N1684 C1683 1.279 . S
N1684 C1687 1.314 . S
C1685 C1682 1.348 . S
C1685 C1687 1.353 . S
C1685 H1741 0.929 . S
C1686 C1682 1.356 . S
C1686 C1683 1.358 . S
C1686 H1742 0.930 . S
C1687 N1684 1.314 . S
C1687 C1685 1.353 . S
C1687 H1743 0.930 . S
C1688 N1689 1.314 . S
C1688 C1693 1.353 . S
C1688 H1694 0.930 . S
N1689 Li1672 1.990 . S
N1689 C1688 1.314 . S
N1689 C1691 1.279 . S
C1690 C1691 1.358 . S
C1690 C1692 1.356 . S
C1690 H1744 0.930 . S
C1691 N1689 1.279 . S
C1691 C1690 1.358 . S
C1691 H1695 0.930 . S
C1692 C1690 1.356 . S
C1692 C1693 1.348 . S
C1693 C1688 1.353 . S
C1693 C1692 1.348 . S
C1693 H1745 0.929 . S
H1694 C1688 0.930 . S
H1695 C1691 0.930 . S
C1696 N1697 1.314 . S
C1696 C1698 1.353 . S
C1696 H1702 0.930 . S
N1697 Li1673 1.990 . S
N1697 C1696 1.314 . S
N1697 C1700 1.279 . S
C1698 C1696 1.353 . S
C1698 C1701 1.348 . S
C1698 H1746 0.929 . S
C1699 C1700 1.358 . S
C1699 C1701 1.356 . S
C1699 H1747 0.930 . S
C1700 N1697 1.279 . S
C1700 C1699 1.358 . S
C1700 H1703 0.930 . S
C1701 C1698 1.348 . S
C1701 C1699 1.356 . S
H1702 C1696 0.930 . S
H1703 C1700 0.930 . S
C1704 C1706 1.348 . S
C1704 C1707 1.356 . S
C1704 O1734 1.325 . S
N1705 C1708 1.314 . S
N1705 C1709 1.279 1_565 S
C1706 C1704 1.348 . S
C1706 C1708 1.353 1_545 S
C1706 H1748 0.929 . S
C1707 C1704 1.356 . S
C1707 C1709 1.358 . S
C1707 H1749 0.930 . S
C1708 N1705 1.314 . S
C1708 C1706 1.353 1_565 S
C1708 H1750 0.930 . S
C1709 N1705 1.279 1_545 S
C1709 C1707 1.358 . S
C1709 H1751 0.930 . S
C1710 C1711 1.348 . S
C1710 C1712 1.356 . S
C1710 O1735 1.325 . S
C1711 C1710 1.348 . S
C1711 C1713 1.353 . S
C1711 H1752 0.929 . S
C1712 C1710 1.356 . S
C1712 C1714 1.358 . S
C1712 H1753 0.930 . S
C1713 C1711 1.353 . S
C1713 N1715 1.314 . S
C1713 H1754 0.930 . S
C1714 C1712 1.358 . S
C1714 N1715 1.279 . S
C1714 H1755 0.930 . S
N1715 C1713 1.314 . S
N1715 C1714 1.279 . S
C1716 C1718 1.353 . S
C1716 N1719 1.314 . S
C1716 H1722 0.930 . S
C1717 N1719 1.279 . S
C1717 C1720 1.358 . S
C1717 H1723 0.930 . S
C1718 C1716 1.353 . S
C1718 C1721 1.348 . S
C1718 H1756 0.929 . S
N1719 Li1674 1.990 . S
N1719 C1716 1.314 . S
N1719 C1717 1.279 . S
C1720 C1717 1.358 . S
C1720 C1721 1.356 . S
C1720 H1757 0.930 . S
C1721 C1718 1.348 . S
C1721 C1720 1.356 . S
H1722 C1716 0.930 . S
H1723 C1717 0.930 . S
C1724 N1725 1.314 . S
C1724 C1726 1.353 1_545 S
C1724 H1730 0.930 . S
N1725 Li1675 1.990 . S
N1725 C1724 1.314 . S
N1725 C1728 1.279 . S
C1726 C1724 1.353 1_565 S
C1726 C1729 1.348 . S
C1726 H1758 0.929 . S
C1727 C1728 1.358 1_565 S
C1727 C1729 1.356 . S
C1727 H1759 0.930 . S
C1728 N1725 1.279 . S
C1728 C1727 1.358 1_545 S
C1728 H1731 0.930 . S
C1729 C1726 1.348 . S
C1729 C1727 1.356 . S
H1730 C1724 0.930 . S
H1731 C1728 0.930 . S
O1732 Li1672 1.956 . S
O1732 Li1673 1.970 . S
O1732 Li1674 1.961 . S
O1732 C1676 1.325 . S
O1733 Li1672 1.970 . S
O1733 Li1673 1.956 . S
O1733 Li1675 1.961 . S
O1733 C1682 1.325 . S
O1734 Li1672 1.961 . S
O1734 Li1674 1.956 . S
O1734 Li1675 1.970 . S
O1734 C1704 1.325 . S
O1735 Li1673 1.961 . S
O1735 Li1674 1.970 . S
O1735 Li1675 1.956 . S
O1735 C1710 1.325 . S
H1736 C1678 0.929 . S
H1737 C1679 0.930 . S
H1738 C1680 0.930 . S
H1739 C1681 0.930 . S
H1740 C1683 0.930 . S
H1741 C1685 0.929 . S
H1742 C1686 0.930 . S
H1743 C1687 0.930 . S
H1744 C1690 0.930 . S
H1745 C1693 0.929 . S
H1746 C1698 0.929 . S
H1747 C1699 0.930 . S
H1748 C1706 0.929 . S
H1749 C1707 0.930 . S
H1750 C1708 0.930 . S
H1751 C1709 0.930 . S
H1752 C1711 0.929 . S
H1753 C1712 0.930 . S
H1754 C1713 0.930 . S
H1755 C1714 0.930 . S
H1756 C1718 0.929 . S
H1757 C1720 0.930 . S
H1758 C1726 0.929 . S
H1759 C1727 0.930 . S
Li1760 N1777 1.990 . S
Li1760 O1820 1.956 . S
Li1760 O1821 1.970 . S
Li1760 O1822 1.961 . S
Li1761 N1785 1.990 . S
Li1761 O1820 1.970 . S
Li1761 O1821 1.956 . S
Li1761 O1823 1.961 . S
Li1762 N1807 1.990 . S
Li1762 O1820 1.961 . S
Li1762 O1822 1.956 . S
Li1762 O1823 1.970 . S
Li1763 N1813 1.990 . S
Li1763 O1821 1.961 . S
Li1763 O1822 1.970 . S
Li1763 O1823 1.956 . S
C1764 C1766 1.348 . S
C1764 C1767 1.356 . S
C1764 O1820 1.325 . S
N1765 C1768 1.314 . S
N1765 C1769 1.279 . S
C1766 C1764 1.348 . S
C1766 C1768 1.353 . S
C1766 H1824 0.929 . S
C1767 C1764 1.356 . S
C1767 C1769 1.358 . S
C1767 H1825 0.930 . S
C1768 N1765 1.314 . S
C1768 C1766 1.353 . S
C1768 H1826 0.930 . S
C1769 N1765 1.279 . S
C1769 C1767 1.358 . S
C1769 H1827 0.930 . S
C1770 C1773 1.348 . S
C1770 C1774 1.356 . S
C1770 O1821 1.325 . S
C1771 N1772 1.279 1_565 S
C1771 C1774 1.358 . S
C1771 H1828 0.930 . S
N1772 C1771 1.279 1_545 S
N1772 C1775 1.314 . S
C1773 C1770 1.348 . S
C1773 C1775 1.353 1_565 S
C1773 H1829 0.929 . S
C1774 C1770 1.356 . S
C1774 C1771 1.358 . S
C1774 H1830 0.930 . S
C1775 N1772 1.314 . S
C1775 C1773 1.353 1_545 S
C1775 H1831 0.930 . S
C1776 N1777 1.314 . S
C1776 C1781 1.353 1_565 S
C1776 H1782 0.930 . S
N1777 Li1760 1.990 . S
N1777 C1776 1.314 . S
N1777 C1779 1.279 . S
C1778 C1779 1.358 1_545 S
C1778 C1780 1.356 . S
C1778 H1832 0.930 . S
C1779 N1777 1.279 . S
C1779 C1778 1.358 1_565 S
C1779 H1783 0.930 . S
C1780 C1778 1.356 . S
C1780 C1781 1.348 . S
C1781 C1776 1.353 1_545 S
C1781 C1780 1.348 . S
C1781 H1833 0.929 . S
H1782 C1776 0.930 . S
H1783 C1779 0.930 . S
C1784 N1785 1.314 . S
C1784 C1786 1.353 . S
C1784 H1790 0.930 . S
N1785 Li1761 1.990 . S
N1785 C1784 1.314 . S
N1785 C1788 1.279 . S
C1786 C1784 1.353 . S
C1786 C1789 1.348 . S
C1786 H1834 0.929 . S
C1787 C1788 1.358 . S
C1787 C1789 1.356 . S
C1787 H1835 0.930 . S
C1788 N1785 1.279 . S
C1788 C1787 1.358 . S
C1788 H1791 0.930 . S
C1789 C1786 1.348 . S
C1789 C1787 1.356 . S
H1790 C1784 0.930 . S
H1791 C1788 0.930 . S
C1792 C1794 1.348 . S
C1792 C1795 1.356 . S
C1792 O1822 1.325 . S
N1793 C1796 1.314 . S
N1793 C1797 1.279 . S
C1794 C1792 1.348 . S
C1794 C1796 1.353 . S
C1794 H1836 0.929 . S
C1795 C1792 1.356 . S
C1795 C1797 1.358 . S
C1795 H1837 0.930 . S
C1796 N1793 1.314 . S
C1796 C1794 1.353 . S
C1796 H1838 0.930 . S
C1797 N1793 1.279 . S
C1797 C1795 1.358 . S
C1797 H1839 0.930 . S
C1798 C1799 1.348 . S
C1798 C1800 1.356 . S
C1798 O1823 1.325 . S
C1799 C1798 1.348 . S
C1799 C1801 1.353 . S
C1799 H1840 0.929 . S
C1800 C1798 1.356 . S
C1800 C1802 1.358 . S
C1800 H1841 0.930 . S
C1801 C1799 1.353 . S
C1801 N1803 1.314 . S
C1801 H1842 0.930 . S
C1802 C1800 1.358 . S
C1802 N1803 1.279 . S
C1802 H1843 0.930 . S
N1803 C1801 1.314 . S
N1803 C1802 1.279 . S
C1804 C1806 1.353 . S
C1804 N1807 1.314 . S
C1804 H1810 0.930 . S
C1805 N1807 1.279 . S
C1805 C1808 1.358 . S
C1805 H1811 0.930 . S
C1806 C1804 1.353 . S
C1806 C1809 1.348 . S
C1806 H1844 0.929 . S
N1807 Li1762 1.990 . S
N1807 C1804 1.314 . S
N1807 C1805 1.279 . S
C1808 C1805 1.358 . S
C1808 C1809 1.356 . S
C1808 H1845 0.930 . S
C1809 C1806 1.348 . S
C1809 C1808 1.356 . S
H1810 C1804 0.930 . S
H1811 C1805 0.930 . S
C1812 N1813 1.314 . S
C1812 C1814 1.353 . S
C1812 H1818 0.930 . S
N1813 Li1763 1.990 . S
N1813 C1812 1.314 . S
N1813 C1816 1.279 . S
C1814 C1812 1.353 . S
C1814 C1817 1.348 . S
C1814 H1846 0.929 . S
C1815 C1816 1.358 . S
C1815 C1817 1.356 . S
C1815 H1847 0.930 . S
C1816 N1813 1.279 . S
C1816 C1815 1.358 . S
C1816 H1819 0.930 . S
C1817 C1814 1.348 . S
C1817 C1815 1.356 . S
H1818 C1812 0.930 . S
H1819 C1816 0.930 . S
O1820 Li1760 1.956 . S
O1820 Li1761 1.970 . S
O1820 Li1762 1.961 . S
O1820 C1764 1.325 . S
O1821 Li1760 1.970 . S
O1821 Li1761 1.956 . S
O1821 Li1763 1.961 . S
O1821 C1770 1.325 . S
O1822 Li1760 1.961 . S
O1822 Li1762 1.956 . S
O1822 Li1763 1.970 . S
O1822 C1792 1.325 . S
O1823 Li1761 1.961 . S
O1823 Li1762 1.970 . S
O1823 Li1763 1.956 . S
O1823 C1798 1.325 . S
H1824 C1766 0.929 . S
H1825 C1767 0.930 . S
H1826 C1768 0.930 . S
H1827 C1769 0.930 . S
H1828 C1771 0.930 . S
H1829 C1773 0.929 . S
H1830 C1774 0.930 . S
H1831 C1775 0.930 . S
H1832 C1778 0.930 . S
H1833 C1781 0.929 . S
H1834 C1786 0.929 . S
H1835 C1787 0.930 . S
H1836 C1794 0.929 . S
H1837 C1795 0.930 . S
H1838 C1796 0.930 . S
H1839 C1797 0.930 . S
H1840 C1799 0.929 . S
H1841 C1800 0.930 . S
H1842 C1801 0.930 . S
H1843 C1802 0.930 . S
H1844 C1806 0.929 . S
H1845 C1808 0.930 . S
H1846 C1814 0.929 . S
H1847 C1815 0.930 . S
Li1848 N1865 1.990 . S
Li1848 O1908 1.956 . S
Li1848 O1909 1.970 . S
Li1848 O1910 1.961 . S
Li1849 N1873 1.990 . S
Li1849 O1908 1.970 . S
Li1849 O1909 1.956 . S
Li1849 O1911 1.961 . S
Li1850 N1895 1.990 . S
Li1850 O1908 1.961 . S
Li1850 O1910 1.956 . S
Li1850 O1911 1.970 . S
Li1851 N1901 1.990 . S
Li1851 O1909 1.961 . S
Li1851 O1910 1.970 . S
Li1851 O1911 1.956 . S
C1852 C1854 1.348 1_565 S
C1852 C1855 1.356 . S
C1852 O1908 1.325 . S
N1853 C1856 1.314 . S
N1853 C1857 1.279 . S
C1854 C1852 1.348 1_545 S
C1854 C1856 1.353 . S
C1854 H1912 0.929 . S
C1855 C1852 1.356 . S
C1855 C1857 1.358 1_565 S
C1855 H1913 0.930 . S
C1856 N1853 1.314 . S
C1856 C1854 1.353 . S
C1856 H1914 0.930 . S
C1857 N1853 1.279 . S
C1857 C1855 1.358 1_545 S
C1857 H1915 0.930 . S
C1858 C1861 1.348 . S
C1858 C1862 1.356 . S
C1858 O1909 1.325 . S
C1859 N1860 1.279 . S
C1859 C1862 1.358 . S
C1859 H1916 0.930 . S
N1860 C1859 1.279 . S
N1860 C1863 1.314 . S
C1861 C1858 1.348 . S
C1861 C1863 1.353 . S
C1861 H1917 0.929 . S
C1862 C1858 1.356 . S
C1862 C1859 1.358 . S
C1862 H1918 0.930 . S
C1863 N1860 1.314 . S
C1863 C1861 1.353 . S
C1863 H1919 0.930 . S
C1864 N1865 1.314 . S
C1864 C1869 1.353 . S
C1864 H1870 0.930 . S
N1865 Li1848 1.990 . S
N1865 C1864 1.314 . S
N1865 C1867 1.279 . S
C1866 C1867 1.358 . S
C1866 C1868 1.356 . S
C1866 H1920 0.930 . S
C1867 N1865 1.279 . S
C1867 C1866 1.358 . S
C1867 H1871 0.930 . S
C1868 C1866 1.356 . S
C1868 C1869 1.348 . S
C1869 C1864 1.353 . S
C1869 C1868 1.348 . S
C1869 H1921 0.929 . S
H1870 C1864 0.930 . S
H1871 C1867 0.930 . S
C1872 N1873 1.314 1_545 S
C1872 C1874 1.353 . S
C1872 H1878 0.930 . S
N1873 Li1849 1.990 . S
N1873 C1872 1.314 1_565 S
N1873 C1876 1.279 . S
C1874 C1872 1.353 . S
C1874 C1877 1.348 . S
C1874 H1922 0.929 . S
C1875 C1876 1.358 1_545 S
C1875 C1877 1.356 . S
C1875 H1923 0.930 . S
C1876 N1873 1.279 . S
C1876 C1875 1.358 1_565 S
C1876 H1879 0.930 . S
C1877 C1874 1.348 . S
C1877 C1875 1.356 . S
H1878 C1872 0.930 . S
H1879 C1876 0.930 . S
C1880 C1882 1.348 . S
C1880 C1883 1.356 . S
C1880 O1910 1.325 . S
N1881 C1884 1.314 . S
N1881 C1885 1.279 . S
C1882 C1880 1.348 . S
C1882 C1884 1.353 . S
C1882 H1924 0.929 . S
C1883 C1880 1.356 . S
C1883 C1885 1.358 . S
C1883 H1925 0.930 . S
C1884 N1881 1.314 . S
C1884 C1882 1.353 . S
C1884 H1926 0.930 . S
C1885 N1881 1.279 . S
C1885 C1883 1.358 . S
C1885 H1927 0.930 . S
C1886 C1887 1.348 . S
C1886 C1888 1.356 . S
C1886 O1911 1.325 . S
C1887 C1886 1.348 . S
C1887 C1889 1.353 . S
C1887 H1928 0.929 . S
C1888 C1886 1.356 . S
C1888 C1890 1.358 . S
C1888 H1929 0.930 . S
C1889 C1887 1.353 . S
C1889 N1891 1.314 . S
C1889 H1930 0.930 . S
C1890 C1888 1.358 . S
C1890 N1891 1.279 . S
C1890 H1931 0.930 . S
N1891 C1889 1.314 . S
N1891 C1890 1.279 . S
C1892 C1894 1.353 . S
C1892 N1895 1.314 . S
C1892 H1898 0.930 . S
C1893 N1895 1.279 . S
C1893 C1896 1.358 . S
C1893 H1899 0.930 . S
C1894 C1892 1.353 . S
C1894 C1897 1.348 . S
C1894 H1932 0.929 . S
N1895 Li1850 1.990 . S
N1895 C1892 1.314 . S
N1895 C1893 1.279 . S
C1896 C1893 1.358 . S
C1896 C1897 1.356 . S
C1896 H1933 0.930 . S
C1897 C1894 1.348 . S
C1897 C1896 1.356 . S
H1898 C1892 0.930 . S
H1899 C1893 0.930 . S
C1900 N1901 1.314 . S
C1900 C1902 1.353 . S
C1900 H1906 0.930 . S
N1901 Li1851 1.990 . S
N1901 C1900 1.314 . S
N1901 C1904 1.279 . S
C1902 C1900 1.353 . S
C1902 C1905 1.348 . S
C1902 H1934 0.929 . S
C1903 C1904 1.358 . S
C1903 C1905 1.356 . S
C1903 H1935 0.930 . S
C1904 N1901 1.279 . S
C1904 C1903 1.358 . S
C1904 H1907 0.930 . S
C1905 C1902 1.348 . S
C1905 C1903 1.356 . S
H1906 C1900 0.930 . S
H1907 C1904 0.930 . S
O1908 Li1848 1.956 . S
O1908 Li1849 1.970 . S
O1908 Li1850 1.961 . S
O1908 C1852 1.325 . S
O1909 Li1848 1.970 . S
O1909 Li1849 1.956 . S
O1909 Li1851 1.961 . S
O1909 C1858 1.325 . S
O1910 Li1848 1.961 . S
O1910 Li1850 1.956 . S
O1910 Li1851 1.970 . S
O1910 C1880 1.325 . S
O1911 Li1849 1.961 . S
O1911 Li1850 1.970 . S
O1911 Li1851 1.956 . S
O1911 C1886 1.325 . S
H1912 C1854 0.929 . S
H1913 C1855 0.930 . S
H1914 C1856 0.930 . S
H1915 C1857 0.930 . S
H1916 C1859 0.930 . S
H1917 C1861 0.929 . S
H1918 C1862 0.930 . S
H1919 C1863 0.930 . S
H1920 C1866 0.930 . S
H1921 C1869 0.929 . S
H1922 C1874 0.929 . S
H1923 C1875 0.930 . S
H1924 C1882 0.929 . S
H1925 C1883 0.930 . S
H1926 C1884 0.930 . S
H1927 C1885 0.930 . S
H1928 C1887 0.929 . S
H1929 C1888 0.930 . S
H1930 C1889 0.930 . S
H1931 C1890 0.930 . S
H1932 C1894 0.929 . S
H1933 C1896 0.930 . S
H1934 C1902 0.929 . S
H1935 C1903 0.930 . S
Li1936 N1953 1.990 . S
Li1936 O1996 1.956 . S
Li1936 O1997 1.970 . S
Li1936 O1998 1.961 . S
Li1937 N1961 1.990 . S
Li1937 O1996 1.970 . S
Li1937 O1997 1.956 . S
Li1937 O1999 1.961 . S
Li1938 N1983 1.990 . S
Li1938 O1996 1.961 . S
Li1938 O1998 1.956 . S
Li1938 O1999 1.970 . S
Li1939 N1989 1.990 . S
Li1939 O1997 1.961 . S
Li1939 O1998 1.970 . S
Li1939 O1999 1.956 . S
C1940 C1942 1.348 1_565 S
C1940 C1943 1.356 . S
C1940 O1996 1.325 . S
N1941 C1944 1.314 . S
N1941 C1945 1.279 . S
C1942 C1940 1.348 1_545 S
C1942 C1944 1.353 . S
C1942 H2000 0.929 . S
C1943 C1940 1.356 . S
C1943 C1945 1.358 1_565 S
C1943 H2001 0.930 . S
C1944 N1941 1.314 . S
C1944 C1942 1.353 . S
C1944 H2002 0.930 . S
C1945 N1941 1.279 . S
C1945 C1943 1.358 1_545 S
C1945 H2003 0.930 . S
C1946 C1949 1.348 . S
C1946 C1950 1.356 . S
C1946 O1997 1.325 . S
C1947 N1948 1.279 . S
C1947 C1950 1.358 . S
C1947 H2004 0.930 . S
N1948 C1947 1.279 . S
N1948 C1951 1.314 . S
C1949 C1946 1.348 . S
C1949 C1951 1.353 . S
C1949 H2005 0.929 . S
C1950 C1946 1.356 . S
C1950 C1947 1.358 . S
C1950 H2006 0.930 . S
C1951 N1948 1.314 . S
C1951 C1949 1.353 . S
C1951 H2007 0.930 . S
C1952 N1953 1.314 . S
C1952 C1957 1.353 . S
C1952 H1958 0.930 . S
N1953 Li1936 1.990 . S
N1953 C1952 1.314 . S
N1953 C1955 1.279 . S
C1954 C1955 1.358 . S
C1954 C1956 1.356 . S
C1954 H2008 0.930 . S
C1955 N1953 1.279 . S
C1955 C1954 1.358 . S
C1955 H1959 0.930 . S
C1956 C1954 1.356 . S
C1956 C1957 1.348 . S
C1957 C1952 1.353 . S
C1957 C1956 1.348 . S
C1957 H2009 0.929 . S
H1958 C1952 0.930 . S
H1959 C1955 0.930 . S
C1960 N1961 1.314 1_545 S
C1960 C1962 1.353 . S
C1960 H1966 0.930 . S
N1961 Li1937 1.990 . S
N1961 C1960 1.314 1_565 S
N1961 C1964 1.279 . S
C1962 C1960 1.353 . S
C1962 C1965 1.348 . S
C1962 H2010 0.929 . S
C1963 C1964 1.358 1_545 S
C1963 C1965 1.356 . S
C1963 H2011 0.930 . S
C1964 N1961 1.279 . S
C1964 C1963 1.358 1_565 S
C1964 H1967 0.930 . S
C1965 C1962 1.348 . S
C1965 C1963 1.356 . S
H1966 C1960 0.930 . S
H1967 C1964 0.930 . S
C1968 C1970 1.348 . S
C1968 C1971 1.356 . S
C1968 O1998 1.325 . S
N1969 C1972 1.314 . S
N1969 C1973 1.279 . S
C1970 C1968 1.348 . S
C1970 C1972 1.353 . S
C1970 H2012 0.929 . S
C1971 C1968 1.356 . S
C1971 C1973 1.358 . S
C1971 H2013 0.930 . S
C1972 N1969 1.314 . S
C1972 C1970 1.353 . S
C1972 H2014 0.930 . S
C1973 N1969 1.279 . S
C1973 C1971 1.358 . S
C1973 H2015 0.930 . S
C1974 C1975 1.348 . S
C1974 C1976 1.356 . S
C1974 O1999 1.325 . S
C1975 C1974 1.348 . S
C1975 C1977 1.353 . S
C1975 H2016 0.929 . S
C1976 C1974 1.356 . S
C1976 C1978 1.358 . S
C1976 H2017 0.930 . S
C1977 C1975 1.353 . S
C1977 N1979 1.314 . S
C1977 H2018 0.930 . S
C1978 C1976 1.358 . S
C1978 N1979 1.279 . S
C1978 H2019 0.930 . S
N1979 C1977 1.314 . S
N1979 C1978 1.279 . S
C1980 C1982 1.353 . S
C1980 N1983 1.314 . S
C1980 H1986 0.930 . S
C1981 N1983 1.279 . S
C1981 C1984 1.358 . S
C1981 H1987 0.930 . S
C1982 C1980 1.353 . S
C1982 C1985 1.348 . S
C1982 H2020 0.929 . S
N1983 Li1938 1.990 . S
N1983 C1980 1.314 . S
N1983 C1981 1.279 . S
C1984 C1981 1.358 . S
C1984 C1985 1.356 . S
C1984 H2021 0.930 . S
C1985 C1982 1.348 . S
C1985 C1984 1.356 . S
H1986 C1980 0.930 . S
H1987 C1981 0.930 . S
C1988 N1989 1.314 . S
C1988 C1990 1.353 . S
C1988 H1994 0.930 . S
N1989 Li1939 1.990 . S
N1989 C1988 1.314 . S
N1989 C1992 1.279 . S
C1990 C1988 1.353 . S
C1990 C1993 1.348 . S
C1990 H2022 0.929 . S
C1991 C1992 1.358 . S
C1991 C1993 1.356 . S
C1991 H2023 0.930 . S
C1992 N1989 1.279 . S
C1992 C1991 1.358 . S
C1992 H1995 0.930 . S
C1993 C1990 1.348 . S
C1993 C1991 1.356 . S
H1994 C1988 0.930 . S
H1995 C1992 0.930 . S
O1996 Li1936 1.956 . S
O1996 Li1937 1.970 . S
O1996 Li1938 1.961 . S
O1996 C1940 1.325 . S
O1997 Li1936 1.970 . S
O1997 Li1937 1.956 . S
O1997 Li1939 1.961 . S
O1997 C1946 1.325 . S
O1998 Li1936 1.961 . S
O1998 Li1938 1.956 . S
O1998 Li1939 1.970 . S
O1998 C1968 1.325 . S
O1999 Li1937 1.961 . S
O1999 Li1938 1.970 . S
O1999 Li1939 1.956 . S
O1999 C1974 1.325 . S
H2000 C1942 0.929 . S
H2001 C1943 0.930 . S
H2002 C1944 0.930 . S
H2003 C1945 0.930 . S
H2004 C1947 0.930 . S
H2005 C1949 0.929 . S
H2006 C1950 0.930 . S
H2007 C1951 0.930 . S
H2008 C1954 0.930 . S
H2009 C1957 0.929 . S
H2010 C1962 0.929 . S
H2011 C1963 0.930 . S
H2012 C1970 0.929 . S
H2013 C1971 0.930 . S
H2014 C1972 0.930 . S
H2015 C1973 0.930 . S
H2016 C1975 0.929 . S
H2017 C1976 0.930 . S
H2018 C1977 0.930 . S
H2019 C1978 0.930 . S
H2020 C1982 0.929 . S
H2021 C1984 0.930 . S
H2022 C1990 0.929 . S
H2023 C1991 0.930 . S
Li2024 N2041 1.990 . S
Li2024 O2084 1.956 . S
Li2024 O2085 1.970 . S
Li2024 O2086 1.961 . S
Li2025 N2049 1.990 . S
Li2025 O2084 1.970 . S
Li2025 O2085 1.956 . S
Li2025 O2087 1.961 . S
Li2026 N2071 1.990 . S
Li2026 O2084 1.961 . S
Li2026 O2086 1.956 . S
Li2026 O2087 1.970 . S
Li2027 N2077 1.990 . S
Li2027 O2085 1.961 . S
Li2027 O2086 1.970 . S
Li2027 O2087 1.956 . S
C2028 C2030 1.348 . S
C2028 C2031 1.356 . S
C2028 O2084 1.325 . S
N2029 C2032 1.314 . S
N2029 C2033 1.279 1_545 S
C2030 C2028 1.348 . S
C2030 C2032 1.353 1_565 S
C2030 H2088 0.929 . S
C2031 C2028 1.356 . S
C2031 C2033 1.358 . S
C2031 H2089 0.930 . S
C2032 N2029 1.314 . S
C2032 C2030 1.353 1_545 S
C2032 H2090 0.930 . S
C2033 N2029 1.279 1_565 S
C2033 C2031 1.358 . S
C2033 H2091 0.930 . S
C2034 C2037 1.348 . S
C2034 C2038 1.356 . S
C2034 O2085 1.325 . S
C2035 N2036 1.279 . S
C2035 C2038 1.358 . S
C2035 H2092 0.930 . S
N2036 C2035 1.279 . S
N2036 C2039 1.314 . S
C2037 C2034 1.348 . S
C2037 C2039 1.353 . S
C2037 H2093 0.929 . S
C2038 C2034 1.356 . S
C2038 C2035 1.358 . S
C2038 H2094 0.930 . S
C2039 N2036 1.314 . S
C2039 C2037 1.353 . S
C2039 H2095 0.930 . S
C2040 N2041 1.314 . S
C2040 C2045 1.353 . S
C2040 H2046 0.930 . S
N2041 Li2024 1.990 . S
N2041 C2040 1.314 . S
N2041 C2043 1.279 . S
C2042 C2043 1.358 . S
C2042 C2044 1.356 . S
C2042 H2096 0.930 . S
C2043 N2041 1.279 . S
C2043 C2042 1.358 . S
C2043 H2047 0.930 . S
C2044 C2042 1.356 . S
C2044 C2045 1.348 . S
C2045 C2040 1.353 . S
C2045 C2044 1.348 . S
C2045 H2097 0.929 . S
H2046 C2040 0.930 . S
H2047 C2043 0.930 . S
C2048 N2049 1.314 . S
C2048 C2050 1.353 1_565 S
C2048 H2054 0.930 . S
N2049 Li2025 1.990 . S
N2049 C2048 1.314 . S
N2049 C2052 1.279 . S
C2050 C2048 1.353 1_545 S
C2050 C2053 1.348 . S
C2050 H2098 0.929 . S
C2051 C2052 1.358 1_545 S
C2051 C2053 1.356 . S
C2051 H2099 0.930 . S
C2052 N2049 1.279 . S
C2052 C2051 1.358 1_565 S
C2052 H2055 0.930 . S
C2053 C2050 1.348 . S
C2053 C2051 1.356 . S
H2054 C2048 0.930 . S
H2055 C2052 0.930 . S
C2056 C2058 1.348 . S
C2056 C2059 1.356 . S
C2056 O2086 1.325 . S
N2057 C2060 1.314 . S
N2057 C2061 1.279 . S
C2058 C2056 1.348 . S
C2058 C2060 1.353 . S
C2058 H2100 0.929 . S
C2059 C2056 1.356 . S
C2059 C2061 1.358 . S
C2059 H2101 0.930 . S
C2060 N2057 1.314 . S
C2060 C2058 1.353 . S
C2060 H2102 0.930 . S
C2061 N2057 1.279 . S
C2061 C2059 1.358 . S
C2061 H2103 0.930 . S
C2062 C2063 1.348 . S
C2062 C2064 1.356 . S
C2062 O2087 1.325 . S
C2063 C2062 1.348 . S
C2063 C2065 1.353 . S
C2063 H2104 0.929 . S
C2064 C2062 1.356 . S
C2064 C2066 1.358 . S
C2064 H2105 0.930 . S
C2065 C2063 1.353 . S
C2065 N2067 1.314 . S
C2065 H2106 0.930 . S
C2066 C2064 1.358 . S
C2066 N2067 1.279 . S
C2066 H2107 0.930 . S
N2067 C2065 1.314 . S
N2067 C2066 1.279 . S
C2068 C2070 1.353 . S
C2068 N2071 1.314 . S
C2068 H2074 0.930 . S
C2069 N2071 1.279 . S
C2069 C2072 1.358 . S
C2069 H2075 0.930 . S
C2070 C2068 1.353 . S
C2070 C2073 1.348 . S
C2070 H2108 0.929 . S
N2071 Li2026 1.990 . S
N2071 C2068 1.314 . S
N2071 C2069 1.279 . S
C2072 C2069 1.358 . S
C2072 C2073 1.356 . S
C2072 H2109 0.930 . S
C2073 C2070 1.348 . S
C2073 C2072 1.356 . S
H2074 C2068 0.930 . S
H2075 C2069 0.930 . S
C2076 N2077 1.314 . S
C2076 C2078 1.353 . S
C2076 H2082 0.930 . S
N2077 Li2027 1.990 . S
N2077 C2076 1.314 . S
N2077 C2080 1.279 . S
C2078 C2076 1.353 . S
C2078 C2081 1.348 . S
C2078 H2110 0.929 . S
C2079 C2080 1.358 . S
C2079 C2081 1.356 . S
C2079 H2111 0.930 . S
C2080 N2077 1.279 . S
C2080 C2079 1.358 . S
C2080 H2083 0.930 . S
C2081 C2078 1.348 . S
C2081 C2079 1.356 . S
H2082 C2076 0.930 . S
H2083 C2080 0.930 . S
O2084 Li2024 1.956 . S
O2084 Li2025 1.970 . S
O2084 Li2026 1.961 . S
O2084 C2028 1.325 . S
O2085 Li2024 1.970 . S
O2085 Li2025 1.956 . S
O2085 Li2027 1.961 . S
O2085 C2034 1.325 . S
O2086 Li2024 1.961 . S
O2086 Li2026 1.956 . S
O2086 Li2027 1.970 . S
O2086 C2056 1.325 . S
O2087 Li2025 1.961 . S
O2087 Li2026 1.970 . S
O2087 Li2027 1.956 . S
O2087 C2062 1.325 . S
H2088 C2030 0.929 . S
H2089 C2031 0.930 . S
H2090 C2032 0.930 . S
H2091 C2033 0.930 . S
H2092 C2035 0.930 . S
H2093 C2037 0.929 . S
H2094 C2038 0.930 . S
H2095 C2039 0.930 . S
H2096 C2042 0.930 . S
H2097 C2045 0.929 . S
H2098 C2050 0.929 . S
H2099 C2051 0.930 . S
H2100 C2058 0.929 . S
H2101 C2059 0.930 . S
H2102 C2060 0.930 . S
H2103 C2061 0.930 . S
H2104 C2063 0.929 . S
H2105 C2064 0.930 . S
H2106 C2065 0.930 . S
H2107 C2066 0.930 . S
H2108 C2070 0.929 . S
H2109 C2072 0.930 . S
H2110 C2078 0.929 . S
H2111 C2079 0.930 . S
Li2112 N2129 1.990 . S
Li2112 O2172 1.956 . S
Li2112 O2173 1.970 . S
Li2112 O2174 1.961 . S
Li2113 N2137 1.990 . S
Li2113 O2172 1.970 . S
Li2113 O2173 1.956 . S
Li2113 O2175 1.961 . S
Li2114 N2159 1.990 . S
Li2114 O2172 1.961 . S
Li2114 O2174 1.956 . S
Li2114 O2175 1.970 . S
Li2115 N2165 1.990 . S
Li2115 O2173 1.961 . S
Li2115 O2174 1.970 . S
Li2115 O2175 1.956 . S
C2116 C2118 1.348 . S
C2116 C2119 1.356 . S
C2116 O2172 1.325 . S
N2117 C2120 1.314 . S
N2117 C2121 1.279 . S
C2118 C2116 1.348 . S
C2118 C2120 1.353 . S
C2118 H2176 0.929 . S
C2119 C2116 1.356 . S
C2119 C2121 1.358 . S
C2119 H2177 0.930 . S
C2120 N2117 1.314 . S
C2120 C2118 1.353 . S
C2120 H2178 0.930 . S
C2121 N2117 1.279 . S
C2121 C2119 1.358 . S
C2121 H2179 0.930 . S
C2122 C2125 1.348 . S
C2122 C2126 1.356 . S
C2122 O2173 1.325 . S
C2123 N2124 1.279 . S
C2123 C2126 1.358 . S
C2123 H2180 0.930 . S
N2124 C2123 1.279 . S
N2124 C2127 1.314 . S
C2125 C2122 1.348 . S
C2125 C2127 1.353 . S
C2125 H2181 0.929 . S
C2126 C2122 1.356 . S
C2126 C2123 1.358 . S
C2126 H2182 0.930 . S
C2127 N2124 1.314 . S
C2127 C2125 1.353 . S
C2127 H2183 0.930 . S
C2128 N2129 1.314 . S
C2128 C2133 1.353 . S
C2128 H2134 0.930 . S
N2129 Li2112 1.990 . S
N2129 C2128 1.314 . S
N2129 C2131 1.279 . S
C2130 C2131 1.358 . S
C2130 C2132 1.356 . S
C2130 H2184 0.930 . S
C2131 N2129 1.279 . S
C2131 C2130 1.358 . S
C2131 H2135 0.930 . S
C2132 C2130 1.356 . S
C2132 C2133 1.348 . S
C2133 C2128 1.353 . S
C2133 C2132 1.348 . S
C2133 H2185 0.929 . S
H2134 C2128 0.930 . S
H2135 C2131 0.930 . S
C2136 N2137 1.314 . S
C2136 C2138 1.353 . S
C2136 H2142 0.930 . S
N2137 Li2113 1.990 . S
N2137 C2136 1.314 . S
N2137 C2140 1.279 . S
C2138 C2136 1.353 . S
C2138 C2141 1.348 . S
C2138 H2186 0.929 . S
C2139 C2140 1.358 . S
C2139 C2141 1.356 . S
C2139 H2187 0.930 . S
C2140 N2137 1.279 . S
C2140 C2139 1.358 . S
C2140 H2143 0.930 . S
C2141 C2138 1.348 . S
C2141 C2139 1.356 . S
H2142 C2136 0.930 . S
H2143 C2140 0.930 . S
C2144 C2146 1.348 . S
C2144 C2147 1.356 . S
C2144 O2174 1.325 . S
N2145 C2148 1.314 . S
N2145 C2149 1.279 . S
C2146 C2144 1.348 . S
C2146 C2148 1.353 . S
C2146 H2188 0.929 . S
C2147 C2144 1.356 . S
C2147 C2149 1.358 . S
C2147 H2189 0.930 . S
C2148 N2145 1.314 . S
C2148 C2146 1.353 . S
C2148 H2190 0.930 . S
C2149 N2145 1.279 . S
C2149 C2147 1.358 . S
C2149 H2191 0.930 . S
C2150 C2151 1.348 . S
C2150 C2152 1.356 . S
C2150 O2175 1.325 . S
C2151 C2150 1.348 . S
C2151 C2153 1.353 . S
C2151 H2192 0.929 . S
C2152 C2150 1.356 . S
C2152 C2154 1.358 . S
C2152 H2193 0.930 . S
C2153 C2151 1.353 . S
C2153 N2155 1.314 . S
C2153 H2194 0.930 . S
C2154 C2152 1.358 . S
C2154 N2155 1.279 . S
C2154 H2195 0.930 . S
N2155 C2153 1.314 . S
N2155 C2154 1.279 . S
C2156 C2158 1.353 . S
C2156 N2159 1.314 . S
C2156 H2162 0.930 . S
C2157 N2159 1.279 . S
C2157 C2160 1.358 . S
C2157 H2163 0.930 . S
C2158 C2156 1.353 . S
C2158 C2161 1.348 . S
C2158 H2196 0.929 . S
N2159 Li2114 1.990 . S
N2159 C2156 1.314 . S
N2159 C2157 1.279 . S
C2160 C2157 1.358 . S
C2160 C2161 1.356 . S
C2160 H2197 0.930 . S
C2161 C2158 1.348 . S
C2161 C2160 1.356 . S
H2162 C2156 0.930 . S
H2163 C2157 0.930 . S
C2164 N2165 1.314 . S
C2164 C2166 1.353 . S
C2164 H2170 0.930 . S
N2165 Li2115 1.990 . S
N2165 C2164 1.314 . S
N2165 C2168 1.279 . S
C2166 C2164 1.353 . S
C2166 C2169 1.348 . S
C2166 H2198 0.929 . S
C2167 C2168 1.358 . S
C2167 C2169 1.356 . S
C2167 H2199 0.930 . S
C2168 N2165 1.279 . S
C2168 C2167 1.358 . S
C2168 H2171 0.930 . S
C2169 C2166 1.348 . S
C2169 C2167 1.356 . S
H2170 C2164 0.930 . S
H2171 C2168 0.930 . S
O2172 Li2112 1.956 . S
O2172 Li2113 1.970 . S
O2172 Li2114 1.961 . S
O2172 C2116 1.325 . S
O2173 Li2112 1.970 . S
O2173 Li2113 1.956 . S
O2173 Li2115 1.961 . S
O2173 C2122 1.325 . S
O2174 Li2112 1.961 . S
O2174 Li2114 1.956 . S
O2174 Li2115 1.970 . S
O2174 C2144 1.325 . S
O2175 Li2113 1.961 . S
O2175 Li2114 1.970 . S
O2175 Li2115 1.956 . S
O2175 C2150 1.325 . S
H2176 C2118 0.929 . S
H2177 C2119 0.930 . S
H2178 C2120 0.930 . S
H2179 C2121 0.930 . S
H2180 C2123 0.930 . S
H2181 C2125 0.929 . S
H2182 C2126 0.930 . S
H2183 C2127 0.930 . S
H2184 C2130 0.930 . S
H2185 C2133 0.929 . S
H2186 C2138 0.929 . S
H2187 C2139 0.930 . S
H2188 C2146 0.929 . S
H2189 C2147 0.930 . S
H2190 C2148 0.930 . S
H2191 C2149 0.930 . S
H2192 C2151 0.929 . S
H2193 C2152 0.930 . S
H2194 C2153 0.930 . S
H2195 C2154 0.930 . S
H2196 C2158 0.929 . S
H2197 C2160 0.930 . S
H2198 C2166 0.929 . S
H2199 C2167 0.930 . S
Li2200 N2217 1.990 . S
Li2200 O2260 1.956 . S
Li2200 O2261 1.970 . S
Li2200 O2262 1.961 . S
Li2201 N2225 1.990 . S
Li2201 O2260 1.970 . S
Li2201 O2261 1.956 . S
Li2201 O2263 1.961 . S
Li2202 N2247 1.990 . S
Li2202 O2260 1.961 . S
Li2202 O2262 1.956 . S
Li2202 O2263 1.970 . S
Li2203 N2253 1.990 . S
Li2203 O2261 1.961 . S
Li2203 O2262 1.970 . S
Li2203 O2263 1.956 . S
C2204 C2206 1.348 . S
C2204 C2207 1.356 . S
C2204 O2260 1.325 . S
N2205 C2208 1.314 . S
N2205 C2209 1.279 . S
C2206 C2204 1.348 . S
C2206 C2208 1.353 . S
C2206 H2264 0.929 . S
C2207 C2204 1.356 . S
C2207 C2209 1.358 . S
C2207 H2265 0.930 . S
C2208 N2205 1.314 . S
C2208 C2206 1.353 . S
C2208 H2266 0.930 . S
C2209 N2205 1.279 . S
C2209 C2207 1.358 . S
C2209 H2267 0.930 . S
C2210 C2213 1.348 . S
C2210 C2214 1.356 . S
C2210 O2261 1.325 . S
C2211 N2212 1.279 . S
C2211 C2214 1.358 . S
C2211 H2268 0.930 . S
N2212 C2211 1.279 . S
N2212 C2215 1.314 . S
C2213 C2210 1.348 . S
C2213 C2215 1.353 . S
C2213 H2269 0.929 . S
C2214 C2210 1.356 . S
C2214 C2211 1.358 . S
C2214 H2270 0.930 . S
C2215 N2212 1.314 . S
C2215 C2213 1.353 . S
C2215 H2271 0.930 . S
C2216 N2217 1.314 . S
C2216 C2221 1.353 . S
C2216 H2222 0.930 . S
N2217 Li2200 1.990 . S
N2217 C2216 1.314 . S
N2217 C2219 1.279 . S
C2218 C2219 1.358 . S
C2218 C2220 1.356 . S
C2218 H2272 0.930 . S
C2219 N2217 1.279 . S
C2219 C2218 1.358 . S
C2219 H2223 0.930 . S
C2220 C2218 1.356 . S
C2220 C2221 1.348 . S
C2221 C2216 1.353 . S
C2221 C2220 1.348 . S
C2221 H2273 0.929 . S
H2222 C2216 0.930 . S
H2223 C2219 0.930 . S
C2224 N2225 1.314 . S
C2224 C2226 1.353 . S
C2224 H2230 0.930 . S
N2225 Li2201 1.990 . S
N2225 C2224 1.314 . S
N2225 C2228 1.279 . S
C2226 C2224 1.353 . S
C2226 C2229 1.348 . S
C2226 H2274 0.929 . S
C2227 C2228 1.358 . S
C2227 C2229 1.356 . S
C2227 H2275 0.930 . S
C2228 N2225 1.279 . S
C2228 C2227 1.358 . S
C2228 H2231 0.930 . S
C2229 C2226 1.348 . S
C2229 C2227 1.356 . S
H2230 C2224 0.930 . S
H2231 C2228 0.930 . S
C2232 C2234 1.348 . S
C2232 C2235 1.356 . S
C2232 O2262 1.325 . S
N2233 C2236 1.314 . S
N2233 C2237 1.279 . S
C2234 C2232 1.348 . S
C2234 C2236 1.353 . S
C2234 H2276 0.929 . S
C2235 C2232 1.356 . S
C2235 C2237 1.358 . S
C2235 H2277 0.930 . S
C2236 N2233 1.314 . S
C2236 C2234 1.353 . S
C2236 H2278 0.930 . S
C2237 N2233 1.279 . S
C2237 C2235 1.358 . S
C2237 H2279 0.930 . S
C2238 C2239 1.348 . S
C2238 C2240 1.356 . S
C2238 O2263 1.325 . S
C2239 C2238 1.348 . S
C2239 C2241 1.353 . S
C2239 H2280 0.929 . S
C2240 C2238 1.356 . S
C2240 C2242 1.358 . S
C2240 H2281 0.930 . S
C2241 C2239 1.353 . S
C2241 N2243 1.314 . S
C2241 H2282 0.930 . S
C2242 C2240 1.358 . S
C2242 N2243 1.279 . S
C2242 H2283 0.930 . S
N2243 C2241 1.314 . S
N2243 C2242 1.279 . S
C2244 C2246 1.353 . S
C2244 N2247 1.314 . S
C2244 H2250 0.930 . S
C2245 N2247 1.279 . S
C2245 C2248 1.358 . S
C2245 H2251 0.930 . S
C2246 C2244 1.353 . S
C2246 C2249 1.348 . S
C2246 H2284 0.929 . S
N2247 Li2202 1.990 . S
N2247 C2244 1.314 . S
N2247 C2245 1.279 . S
C2248 C2245 1.358 . S
C2248 C2249 1.356 . S
C2248 H2285 0.930 . S
C2249 C2246 1.348 . S
C2249 C2248 1.356 . S
H2250 C2244 0.930 . S
H2251 C2245 0.930 . S
C2252 N2253 1.314 . S
C2252 C2254 1.353 . S
C2252 H2258 0.930 . S
N2253 Li2203 1.990 . S
N2253 C2252 1.314 . S
N2253 C2256 1.279 . S
C2254 C2252 1.353 . S
C2254 C2257 1.348 . S
C2254 H2286 0.929 . S
C2255 C2256 1.358 . S
C2255 C2257 1.356 . S
C2255 H2287 0.930 . S
C2256 N2253 1.279 . S
C2256 C2255 1.358 . S
C2256 H2259 0.930 . S
C2257 C2254 1.348 . S
C2257 C2255 1.356 . S
H2258 C2252 0.930 . S
H2259 C2256 0.930 . S
O2260 Li2200 1.956 . S
O2260 Li2201 1.970 . S
O2260 Li2202 1.961 . S
O2260 C2204 1.325 . S
O2261 Li2200 1.970 . S
O2261 Li2201 1.956 . S
O2261 Li2203 1.961 . S
O2261 C2210 1.325 . S
O2262 Li2200 1.961 . S
O2262 Li2202 1.956 . S
O2262 Li2203 1.970 . S
O2262 C2232 1.325 . S
O2263 Li2201 1.961 . S
O2263 Li2202 1.970 . S
O2263 Li2203 1.956 . S
O2263 C2238 1.325 . S
H2264 C2206 0.929 . S
H2265 C2207 0.930 . S
H2266 C2208 0.930 . S
H2267 C2209 0.930 . S
H2268 C2211 0.930 . S
H2269 C2213 0.929 . S
H2270 C2214 0.930 . S
H2271 C2215 0.930 . S
H2272 C2218 0.930 . S
H2273 C2221 0.929 . S
H2274 C2226 0.929 . S
H2275 C2227 0.930 . S
H2276 C2234 0.929 . S
H2277 C2235 0.930 . S
H2278 C2236 0.930 . S
H2279 C2237 0.930 . S
H2280 C2239 0.929 . S
H2281 C2240 0.930 . S
H2282 C2241 0.930 . S
H2283 C2242 0.930 . S
H2284 C2246 0.929 . S
H2285 C2248 0.930 . S
H2286 C2254 0.929 . S
H2287 C2255 0.930 . S
Li2288 N2305 1.990 . S
Li2288 O2348 1.956 . S
Li2288 O2349 1.970 . S
Li2288 O2350 1.961 . S
Li2289 N2313 1.990 . S
Li2289 O2348 1.970 . S
Li2289 O2349 1.956 . S
Li2289 O2351 1.961 . S
Li2290 N2335 1.990 . S
Li2290 O2348 1.961 . S
Li2290 O2350 1.956 . S
Li2290 O2351 1.970 . S
Li2291 N2341 1.990 . S
Li2291 O2349 1.961 . S
Li2291 O2350 1.970 . S
Li2291 O2351 1.956 . S
C2292 C2294 1.348 . S
C2292 C2295 1.356 . S
C2292 O2348 1.325 . S
N2293 C2296 1.314 . S
N2293 C2297 1.279 . S
C2294 C2292 1.348 . S
C2294 C2296 1.353 . S
C2294 H2352 0.929 . S
C2295 C2292 1.356 . S
C2295 C2297 1.358 . S
C2295 H2353 0.930 . S
C2296 N2293 1.314 . S
C2296 C2294 1.353 . S
C2296 H2354 0.930 . S
C2297 N2293 1.279 . S
C2297 C2295 1.358 . S
C2297 H2355 0.930 . S
C2298 C2301 1.348 . S
C2298 C2302 1.356 . S
C2298 O2349 1.325 . S
C2299 N2300 1.279 . S
C2299 C2302 1.358 . S
C2299 H2356 0.930 . S
N2300 C2299 1.279 . S
N2300 C2303 1.314 . S
C2301 C2298 1.348 . S
C2301 C2303 1.353 . S
C2301 H2357 0.929 . S
C2302 C2298 1.356 . S
C2302 C2299 1.358 . S
C2302 H2358 0.930 . S
C2303 N2300 1.314 . S
C2303 C2301 1.353 . S
C2303 H2359 0.930 . S
C2304 N2305 1.314 . S
C2304 C2309 1.353 . S
C2304 H2310 0.930 . S
N2305 Li2288 1.990 . S
N2305 C2304 1.314 . S
N2305 C2307 1.279 . S
C2306 C2307 1.358 . S
C2306 C2308 1.356 . S
C2306 H2360 0.930 . S
C2307 N2305 1.279 . S
C2307 C2306 1.358 . S
C2307 H2311 0.930 . S
C2308 C2306 1.356 . S
C2308 C2309 1.348 . S
C2309 C2304 1.353 . S
C2309 C2308 1.348 . S
C2309 H2361 0.929 . S
H2310 C2304 0.930 . S
H2311 C2307 0.930 . S
C2312 N2313 1.314 . S
C2312 C2314 1.353 . S
C2312 H2318 0.930 . S
N2313 Li2289 1.990 . S
N2313 C2312 1.314 . S
N2313 C2316 1.279 . S
C2314 C2312 1.353 . S
C2314 C2317 1.348 . S
C2314 H2362 0.929 . S
C2315 C2316 1.358 . S
C2315 C2317 1.356 . S
C2315 H2363 0.930 . S
C2316 N2313 1.279 . S
C2316 C2315 1.358 . S
C2316 H2319 0.930 . S
C2317 C2314 1.348 . S
C2317 C2315 1.356 . S
H2318 C2312 0.930 . S
H2319 C2316 0.930 . S
C2320 C2322 1.348 . S
C2320 C2323 1.356 . S
C2320 O2350 1.325 . S
N2321 C2324 1.314 . S
N2321 C2325 1.279 . S
C2322 C2320 1.348 . S
C2322 C2324 1.353 . S
C2322 H2364 0.929 . S
C2323 C2320 1.356 . S
C2323 C2325 1.358 . S
C2323 H2365 0.930 . S
C2324 N2321 1.314 . S
C2324 C2322 1.353 . S
C2324 H2366 0.930 . S
C2325 N2321 1.279 . S
C2325 C2323 1.358 . S
C2325 H2367 0.930 . S
C2326 C2327 1.348 . S
C2326 C2328 1.356 . S
C2326 O2351 1.325 . S
C2327 C2326 1.348 . S
C2327 C2329 1.353 . S
C2327 H2368 0.929 . S
C2328 C2326 1.356 . S
C2328 C2330 1.358 . S
C2328 H2369 0.930 . S
C2329 C2327 1.353 . S
C2329 N2331 1.314 . S
C2329 H2370 0.930 . S
C2330 C2328 1.358 . S
C2330 N2331 1.279 . S
C2330 H2371 0.930 . S
N2331 C2329 1.314 . S
N2331 C2330 1.279 . S
C2332 C2334 1.353 . S
C2332 N2335 1.314 . S
C2332 H2338 0.930 . S
C2333 N2335 1.279 . S
C2333 C2336 1.358 . S
C2333 H2339 0.930 . S
C2334 C2332 1.353 . S
C2334 C2337 1.348 . S
C2334 H2372 0.929 . S
N2335 Li2290 1.990 . S
N2335 C2332 1.314 . S
N2335 C2333 1.279 . S
C2336 C2333 1.358 . S
C2336 C2337 1.356 . S
C2336 H2373 0.930 . S
C2337 C2334 1.348 . S
C2337 C2336 1.356 . S
H2338 C2332 0.930 . S
H2339 C2333 0.930 . S
C2340 N2341 1.314 . S
C2340 C2342 1.353 . S
C2340 H2346 0.930 . S
N2341 Li2291 1.990 . S
N2341 C2340 1.314 . S
N2341 C2344 1.279 . S
C2342 C2340 1.353 . S
C2342 C2345 1.348 . S
C2342 H2374 0.929 . S
C2343 C2344 1.358 . S
C2343 C2345 1.356 . S
C2343 H2375 0.930 . S
C2344 N2341 1.279 . S
C2344 C2343 1.358 . S
C2344 H2347 0.930 . S
C2345 C2342 1.348 . S
C2345 C2343 1.356 . S
H2346 C2340 0.930 . S
H2347 C2344 0.930 . S
O2348 Li2288 1.956 . S
O2348 Li2289 1.970 . S
O2348 Li2290 1.961 . S
O2348 C2292 1.325 . S
O2349 Li2288 1.970 . S
O2349 Li2289 1.956 . S
O2349 Li2291 1.961 . S
O2349 C2298 1.325 . S
O2350 Li2288 1.961 . S
O2350 Li2290 1.956 . S
O2350 Li2291 1.970 . S
O2350 C2320 1.325 . S
O2351 Li2289 1.961 . S
O2351 Li2290 1.970 . S
O2351 Li2291 1.956 . S
O2351 C2326 1.325 . S
H2352 C2294 0.929 . S
H2353 C2295 0.930 . S
H2354 C2296 0.930 . S
H2355 C2297 0.930 . S
H2356 C2299 0.930 . S
H2357 C2301 0.929 . S
H2358 C2302 0.930 . S
H2359 C2303 0.930 . S
H2360 C2306 0.930 . S
H2361 C2309 0.929 . S
H2362 C2314 0.929 . S
H2363 C2315 0.930 . S
H2364 C2322 0.929 . S
H2365 C2323 0.930 . S
H2366 C2324 0.930 . S
H2367 C2325 0.930 . S
H2368 C2327 0.929 . S
H2369 C2328 0.930 . S
H2370 C2329 0.930 . S
H2371 C2330 0.930 . S
H2372 C2334 0.929 . S
H2373 C2336 0.930 . S
H2374 C2342 0.929 . S
H2375 C2343 0.930 . S
Li2376 N2393 1.990 . S
Li2376 O2436 1.956 . S
Li2376 O2437 1.970 . S
Li2376 O2438 1.961 . S
Li2377 N2401 1.990 . S
Li2377 O2436 1.970 . S
Li2377 O2437 1.956 . S
Li2377 O2439 1.961 . S
Li2378 N2423 1.990 . S
Li2378 O2436 1.961 . S
Li2378 O2438 1.956 . S
Li2378 O2439 1.970 . S
Li2379 N2429 1.990 . S
Li2379 O2437 1.961 . S
Li2379 O2438 1.970 . S
Li2379 O2439 1.956 . S
C2380 C2382 1.348 . S
C2380 C2383 1.356 . S
C2380 O2436 1.325 . S
N2381 C2384 1.314 . S
N2381 C2385 1.279 . S
C2382 C2380 1.348 . S
C2382 C2384 1.353 . S
C2382 H2440 0.929 . S
C2383 C2380 1.356 . S
C2383 C2385 1.358 . S
C2383 H2441 0.930 . S
C2384 N2381 1.314 . S
C2384 C2382 1.353 . S
C2384 H2442 0.930 . S
C2385 N2381 1.279 . S
C2385 C2383 1.358 . S
C2385 H2443 0.930 . S
C2386 C2389 1.348 . S
C2386 C2390 1.356 . S
C2386 O2437 1.325 . S
C2387 N2388 1.279 . S
C2387 C2390 1.358 . S
C2387 H2444 0.930 . S
N2388 C2387 1.279 . S
N2388 C2391 1.314 . S
C2389 C2386 1.348 . S
C2389 C2391 1.353 . S
C2389 H2445 0.929 . S
C2390 C2386 1.356 . S
C2390 C2387 1.358 . S
C2390 H2446 0.930 . S
C2391 N2388 1.314 . S
C2391 C2389 1.353 . S
C2391 H2447 0.930 . S
C2392 N2393 1.314 . S
C2392 C2397 1.353 . S
C2392 H2398 0.930 . S
N2393 Li2376 1.990 . S
N2393 C2392 1.314 . S
N2393 C2395 1.279 . S
C2394 C2395 1.358 . S
C2394 C2396 1.356 . S
C2394 H2448 0.930 . S
C2395 N2393 1.279 . S
C2395 C2394 1.358 . S
C2395 H2399 0.930 . S
C2396 C2394 1.356 . S
C2396 C2397 1.348 . S
C2397 C2392 1.353 . S
C2397 C2396 1.348 . S
C2397 H2449 0.929 . S
H2398 C2392 0.930 . S
H2399 C2395 0.930 . S
C2400 N2401 1.314 . S
C2400 C2402 1.353 . S
C2400 H2406 0.930 . S
N2401 Li2377 1.990 . S
N2401 C2400 1.314 . S
N2401 C2404 1.279 . S
C2402 C2400 1.353 . S
C2402 C2405 1.348 . S
C2402 H2450 0.929 . S
C2403 C2404 1.358 . S
C2403 C2405 1.356 . S
C2403 H2451 0.930 . S
C2404 N2401 1.279 . S
C2404 C2403 1.358 . S
C2404 H2407 0.930 . S
C2405 C2402 1.348 . S
C2405 C2403 1.356 . S
H2406 C2400 0.930 . S
H2407 C2404 0.930 . S
C2408 C2410 1.348 . S
C2408 C2411 1.356 . S
C2408 O2438 1.325 . S
N2409 C2412 1.314 . S
N2409 C2413 1.279 . S
C2410 C2408 1.348 . S
C2410 C2412 1.353 . S
C2410 H2452 0.929 . S
C2411 C2408 1.356 . S
C2411 C2413 1.358 . S
C2411 H2453 0.930 . S
C2412 N2409 1.314 . S
C2412 C2410 1.353 . S
C2412 H2454 0.930 . S
C2413 N2409 1.279 . S
C2413 C2411 1.358 . S
C2413 H2455 0.930 . S
C2414 C2415 1.348 . S
C2414 C2416 1.356 . S
C2414 O2439 1.325 . S
C2415 C2414 1.348 . S
C2415 C2417 1.353 . S
C2415 H2456 0.929 . S
C2416 C2414 1.356 . S
C2416 C2418 1.358 . S
C2416 H2457 0.930 . S
C2417 C2415 1.353 . S
C2417 N2419 1.314 . S
C2417 H2458 0.930 . S
C2418 C2416 1.358 . S
C2418 N2419 1.279 . S
C2418 H2459 0.930 . S
N2419 C2417 1.314 . S
N2419 C2418 1.279 . S
C2420 C2422 1.353 . S
C2420 N2423 1.314 . S
C2420 H2426 0.930 . S
C2421 N2423 1.279 . S
C2421 C2424 1.358 . S
C2421 H2427 0.930 . S
C2422 C2420 1.353 . S
C2422 C2425 1.348 . S
C2422 H2460 0.929 . S
N2423 Li2378 1.990 . S
N2423 C2420 1.314 . S
N2423 C2421 1.279 . S
C2424 C2421 1.358 . S
C2424 C2425 1.356 . S
C2424 H2461 0.930 . S
C2425 C2422 1.348 . S
C2425 C2424 1.356 . S
H2426 C2420 0.930 . S
H2427 C2421 0.930 . S
C2428 N2429 1.314 . S
C2428 C2430 1.353 . S
C2428 H2434 0.930 . S
N2429 Li2379 1.990 . S
N2429 C2428 1.314 . S
N2429 C2432 1.279 . S
C2430 C2428 1.353 . S
C2430 C2433 1.348 . S
C2430 H2462 0.929 . S
C2431 C2432 1.358 . S
C2431 C2433 1.356 . S
C2431 H2463 0.930 . S
C2432 N2429 1.279 . S
C2432 C2431 1.358 . S
C2432 H2435 0.930 . S
C2433 C2430 1.348 . S
C2433 C2431 1.356 . S
H2434 C2428 0.930 . S
H2435 C2432 0.930 . S
O2436 Li2376 1.956 . S
O2436 Li2377 1.970 . S
O2436 Li2378 1.961 . S
O2436 C2380 1.325 . S
O2437 Li2376 1.970 . S
O2437 Li2377 1.956 . S
O2437 Li2379 1.961 . S
O2437 C2386 1.325 . S
O2438 Li2376 1.961 . S
O2438 Li2378 1.956 . S
O2438 Li2379 1.970 . S
O2438 C2408 1.325 . S
O2439 Li2377 1.961 . S
O2439 Li2378 1.970 . S
O2439 Li2379 1.956 . S
O2439 C2414 1.325 . S
H2440 C2382 0.929 . S
H2441 C2383 0.930 . S
H2442 C2384 0.930 . S
H2443 C2385 0.930 . S
H2444 C2387 0.930 . S
H2445 C2389 0.929 . S
H2446 C2390 0.930 . S
H2447 C2391 0.930 . S
H2448 C2394 0.930 . S
H2449 C2397 0.929 . S
H2450 C2402 0.929 . S
H2451 C2403 0.930 . S
H2452 C2410 0.929 . S
H2453 C2411 0.930 . S
H2454 C2412 0.930 . S
H2455 C2413 0.930 . S
H2456 C2415 0.929 . S
H2457 C2416 0.930 . S
H2458 C2417 0.930 . S
H2459 C2418 0.930 . S
H2460 C2422 0.929 . S
H2461 C2424 0.930 . S
H2462 C2430 0.929 . S
H2463 C2431 0.930 . S
Li2464 N2481 1.990 . S
Li2464 O2524 1.956 . S
Li2464 O2525 1.970 . S
Li2464 O2526 1.961 . S
Li2465 N2489 1.990 . S
Li2465 O2524 1.970 . S
Li2465 O2525 1.956 . S
Li2465 O2527 1.961 . S
Li2466 N2511 1.990 . S
Li2466 O2524 1.961 . S
Li2466 O2526 1.956 . S
Li2466 O2527 1.970 . S
Li2467 N2517 1.990 . S
Li2467 O2525 1.961 . S
Li2467 O2526 1.970 . S
Li2467 O2527 1.956 . S
C2468 C2470 1.348 . S
C2468 C2471 1.356 . S
C2468 O2524 1.325 . S
N2469 C2472 1.314 . S
N2469 C2473 1.279 . S
C2470 C2468 1.348 . S
C2470 C2472 1.353 . S
C2470 H2528 0.929 . S
C2471 C2468 1.356 . S
C2471 C2473 1.358 . S
C2471 H2529 0.930 . S
C2472 N2469 1.314 . S
C2472 C2470 1.353 . S
C2472 H2530 0.930 . S
C2473 N2469 1.279 . S
C2473 C2471 1.358 . S
C2473 H2531 0.930 . S
C2474 C2477 1.348 . S
C2474 C2478 1.356 . S
C2474 O2525 1.325 . S
C2475 N2476 1.279 . S
C2475 C2478 1.358 . S
C2475 H2532 0.930 . S
N2476 C2475 1.279 . S
N2476 C2479 1.314 . S
C2477 C2474 1.348 . S
C2477 C2479 1.353 . S
C2477 H2533 0.929 . S
C2478 C2474 1.356 . S
C2478 C2475 1.358 . S
C2478 H2534 0.930 . S
C2479 N2476 1.314 . S
C2479 C2477 1.353 . S
C2479 H2535 0.930 . S
C2480 N2481 1.314 . S
C2480 C2485 1.353 . S
C2480 H2486 0.930 . S
N2481 Li2464 1.990 . S
N2481 C2480 1.314 . S
N2481 C2483 1.279 . S
C2482 C2483 1.358 . S
C2482 C2484 1.356 . S
C2482 H2536 0.930 . S
C2483 N2481 1.279 . S
C2483 C2482 1.358 . S
C2483 H2487 0.930 . S
C2484 C2482 1.356 . S
C2484 C2485 1.348 . S
C2485 C2480 1.353 . S
C2485 C2484 1.348 . S
C2485 H2537 0.929 . S
H2486 C2480 0.930 . S
H2487 C2483 0.930 . S
C2488 N2489 1.314 . S
C2488 C2490 1.353 . S
C2488 H2494 0.930 . S
N2489 Li2465 1.990 . S
N2489 C2488 1.314 . S
N2489 C2492 1.279 . S
C2490 C2488 1.353 . S
C2490 C2493 1.348 . S
C2490 H2538 0.929 . S
C2491 C2492 1.358 . S
C2491 C2493 1.356 . S
C2491 H2539 0.930 . S
C2492 N2489 1.279 . S
C2492 C2491 1.358 . S
C2492 H2495 0.930 . S
C2493 C2490 1.348 . S
C2493 C2491 1.356 . S
H2494 C2488 0.930 . S
H2495 C2492 0.930 . S
C2496 C2498 1.348 . S
C2496 C2499 1.356 . S
C2496 O2526 1.325 . S
N2497 C2500 1.314 . S
N2497 C2501 1.279 . S
C2498 C2496 1.348 . S
C2498 C2500 1.353 . S
C2498 H2540 0.929 . S
C2499 C2496 1.356 . S
C2499 C2501 1.358 . S
C2499 H2541 0.930 . S
C2500 N2497 1.314 . S
C2500 C2498 1.353 . S
C2500 H2542 0.930 . S
C2501 N2497 1.279 . S
C2501 C2499 1.358 . S
C2501 H2543 0.930 . S
C2502 C2503 1.348 . S
C2502 C2504 1.356 . S
C2502 O2527 1.325 . S
C2503 C2502 1.348 . S
C2503 C2505 1.353 . S
C2503 H2544 0.929 . S
C2504 C2502 1.356 . S
C2504 C2506 1.358 . S
C2504 H2545 0.930 . S
C2505 C2503 1.353 . S
C2505 N2507 1.314 . S
C2505 H2546 0.930 . S
C2506 C2504 1.358 . S
C2506 N2507 1.279 . S
C2506 H2547 0.930 . S
N2507 C2505 1.314 . S
N2507 C2506 1.279 . S
C2508 C2510 1.353 . S
C2508 N2511 1.314 . S
C2508 H2514 0.930 . S
C2509 N2511 1.279 . S
C2509 C2512 1.358 . S
C2509 H2515 0.930 . S
C2510 C2508 1.353 . S
C2510 C2513 1.348 . S
C2510 H2548 0.929 . S
N2511 Li2466 1.990 . S
N2511 C2508 1.314 . S
N2511 C2509 1.279 . S
C2512 C2509 1.358 . S
C2512 C2513 1.356 . S
C2512 H2549 0.930 . S
C2513 C2510 1.348 . S
C2513 C2512 1.356 . S
H2514 C2508 0.930 . S
H2515 C2509 0.930 . S
C2516 N2517 1.314 . S
C2516 C2518 1.353 . S
C2516 H2522 0.930 . S
N2517 Li2467 1.990 . S
N2517 C2516 1.314 . S
N2517 C2520 1.279 . S
C2518 C2516 1.353 . S
C2518 C2521 1.348 . S
C2518 H2550 0.929 . S
C2519 C2520 1.358 . S
C2519 C2521 1.356 . S
C2519 H2551 0.930 . S
C2520 N2517 1.279 . S
C2520 C2519 1.358 . S
C2520 H2523 0.930 . S
C2521 C2518 1.348 . S
C2521 C2519 1.356 . S
H2522 C2516 0.930 . S
H2523 C2520 0.930 . S
O2524 Li2464 1.956 . S
O2524 Li2465 1.970 . S
O2524 Li2466 1.961 . S
O2524 C2468 1.325 . S
O2525 Li2464 1.970 . S
O2525 Li2465 1.956 . S
O2525 Li2467 1.961 . S
O2525 C2474 1.325 . S
O2526 Li2464 1.961 . S
O2526 Li2466 1.956 . S
O2526 Li2467 1.970 . S
O2526 C2496 1.325 . S
O2527 Li2465 1.961 . S
O2527 Li2466 1.970 . S
O2527 Li2467 1.956 . S
O2527 C2502 1.325 . S
H2528 C2470 0.929 . S
H2529 C2471 0.930 . S
H2530 C2472 0.930 . S
H2531 C2473 0.930 . S
H2532 C2475 0.930 . S
H2533 C2477 0.929 . S
H2534 C2478 0.930 . S
H2535 C2479 0.930 . S
H2536 C2482 0.930 . S
H2537 C2485 0.929 . S
H2538 C2490 0.929 . S
H2539 C2491 0.930 . S
H2540 C2498 0.929 . S
H2541 C2499 0.930 . S
H2542 C2500 0.930 . S
H2543 C2501 0.930 . S
H2544 C2503 0.929 . S
H2545 C2504 0.930 . S
H2546 C2505 0.930 . S
H2547 C2506 0.930 . S
H2548 C2510 0.929 . S
H2549 C2512 0.930 . S
H2550 C2518 0.929 . S
H2551 C2519 0.930 . S
Li2552 N2569 1.990 . S
Li2552 O2612 1.956 . S
Li2552 O2613 1.970 . S
Li2552 O2614 1.961 . S
Li2553 N2577 1.990 . S
Li2553 O2612 1.970 . S
Li2553 O2613 1.956 . S
Li2553 O2615 1.961 . S
Li2554 N2599 1.990 . S
Li2554 O2612 1.961 . S
Li2554 O2614 1.956 . S
Li2554 O2615 1.970 . S
Li2555 N2605 1.990 . S
Li2555 O2613 1.961 . S
Li2555 O2614 1.970 . S
Li2555 O2615 1.956 . S
C2556 C2558 1.348 . S
C2556 C2559 1.356 . S
C2556 O2612 1.325 . S
N2557 C2560 1.314 . S
N2557 C2561 1.279 . S
C2558 C2556 1.348 . S
C2558 C2560 1.353 . S
C2558 H2616 0.929 . S
C2559 C2556 1.356 . S
C2559 C2561 1.358 . S
C2559 H2617 0.930 . S
C2560 N2557 1.314 . S
C2560 C2558 1.353 . S
C2560 H2618 0.930 . S
C2561 N2557 1.279 . S
C2561 C2559 1.358 . S
C2561 H2619 0.930 . S
C2562 C2565 1.348 . S
C2562 C2566 1.356 . S
C2562 O2613 1.325 . S
C2563 N2564 1.279 . S
C2563 C2566 1.358 . S
C2563 H2620 0.930 . S
N2564 C2563 1.279 . S
N2564 C2567 1.314 . S
C2565 C2562 1.348 . S
C2565 C2567 1.353 . S
C2565 H2621 0.929 . S
C2566 C2562 1.356 . S
C2566 C2563 1.358 . S
C2566 H2622 0.930 . S
C2567 N2564 1.314 . S
C2567 C2565 1.353 . S
C2567 H2623 0.930 . S
C2568 N2569 1.314 . S
C2568 C2573 1.353 . S
C2568 H2574 0.930 . S
N2569 Li2552 1.990 . S
N2569 C2568 1.314 . S
N2569 C2571 1.279 . S
C2570 C2571 1.358 . S
C2570 C2572 1.356 . S
C2570 H2624 0.930 . S
C2571 N2569 1.279 . S
C2571 C2570 1.358 . S
C2571 H2575 0.930 . S
C2572 C2570 1.356 . S
C2572 C2573 1.348 . S
C2573 C2568 1.353 . S
C2573 C2572 1.348 . S
C2573 H2625 0.929 . S
H2574 C2568 0.930 . S
H2575 C2571 0.930 . S
C2576 N2577 1.314 . S
C2576 C2578 1.353 . S
C2576 H2582 0.930 . S
N2577 Li2553 1.990 . S
N2577 C2576 1.314 . S
N2577 C2580 1.279 . S
C2578 C2576 1.353 . S
C2578 C2581 1.348 . S
C2578 H2626 0.929 . S
C2579 C2580 1.358 . S
C2579 C2581 1.356 . S
C2579 H2627 0.930 . S
C2580 N2577 1.279 . S
C2580 C2579 1.358 . S
C2580 H2583 0.930 . S
C2581 C2578 1.348 . S
C2581 C2579 1.356 . S
H2582 C2576 0.930 . S
H2583 C2580 0.930 . S
C2584 C2586 1.348 . S
C2584 C2587 1.356 . S
C2584 O2614 1.325 . S
N2585 C2588 1.314 . S
N2585 C2589 1.279 . S
C2586 C2584 1.348 . S
C2586 C2588 1.353 . S
C2586 H2628 0.929 . S
C2587 C2584 1.356 . S
C2587 C2589 1.358 . S
C2587 H2629 0.930 . S
C2588 N2585 1.314 . S
C2588 C2586 1.353 . S
C2588 H2630 0.930 . S
C2589 N2585 1.279 . S
C2589 C2587 1.358 . S
C2589 H2631 0.930 . S
C2590 C2591 1.348 . S
C2590 C2592 1.356 . S
C2590 O2615 1.325 . S
C2591 C2590 1.348 . S
C2591 C2593 1.353 . S
C2591 H2632 0.929 . S
C2592 C2590 1.356 . S
C2592 C2594 1.358 . S
C2592 H2633 0.930 . S
C2593 C2591 1.353 . S
C2593 N2595 1.314 . S
C2593 H2634 0.930 . S
C2594 C2592 1.358 . S
C2594 N2595 1.279 . S
C2594 H2635 0.930 . S
N2595 C2593 1.314 . S
N2595 C2594 1.279 . S
C2596 C2598 1.353 . S
C2596 N2599 1.314 . S
C2596 H2602 0.930 . S
C2597 N2599 1.279 . S
C2597 C2600 1.358 . S
C2597 H2603 0.930 . S
C2598 C2596 1.353 . S
C2598 C2601 1.348 . S
C2598 H2636 0.929 . S
N2599 Li2554 1.990 . S
N2599 C2596 1.314 . S
N2599 C2597 1.279 . S
C2600 C2597 1.358 . S
C2600 C2601 1.356 . S
C2600 H2637 0.930 . S
C2601 C2598 1.348 . S
C2601 C2600 1.356 . S
H2602 C2596 0.930 . S
H2603 C2597 0.930 . S
C2604 N2605 1.314 . S
C2604 C2606 1.353 . S
C2604 H2610 0.930 . S
N2605 Li2555 1.990 . S
N2605 C2604 1.314 . S
N2605 C2608 1.279 . S
C2606 C2604 1.353 . S
C2606 C2609 1.348 . S
C2606 H2638 0.929 . S
C2607 C2608 1.358 . S
C2607 C2609 1.356 . S
C2607 H2639 0.930 . S
C2608 N2605 1.279 . S
C2608 C2607 1.358 . S
C2608 H2611 0.930 . S
C2609 C2606 1.348 . S
C2609 C2607 1.356 . S
H2610 C2604 0.930 . S
H2611 C2608 0.930 . S
O2612 Li2552 1.956 . S
O2612 Li2553 1.970 . S
O2612 Li2554 1.961 . S
O2612 C2556 1.325 . S
O2613 Li2552 1.970 . S
O2613 Li2553 1.956 . S
O2613 Li2555 1.961 . S
O2613 C2562 1.325 . S
O2614 Li2552 1.961 . S
O2614 Li2554 1.956 . S
O2614 Li2555 1.970 . S
O2614 C2584 1.325 . S
O2615 Li2553 1.961 . S
O2615 Li2554 1.970 . S
O2615 Li2555 1.956 . S
O2615 C2590 1.325 . S
H2616 C2558 0.929 . S
H2617 C2559 0.930 . S
H2618 C2560 0.930 . S
H2619 C2561 0.930 . S
H2620 C2563 0.930 . S
H2621 C2565 0.929 . S
H2622 C2566 0.930 . S
H2623 C2567 0.930 . S
H2624 C2570 0.930 . S
H2625 C2573 0.929 . S
H2626 C2578 0.929 . S
H2627 C2579 0.930 . S
H2628 C2586 0.929 . S
H2629 C2587 0.930 . S
H2630 C2588 0.930 . S
H2631 C2589 0.930 . S
H2632 C2591 0.929 . S
H2633 C2592 0.930 . S
H2634 C2593 0.930 . S
H2635 C2594 0.930 . S
H2636 C2598 0.929 . S
H2637 C2600 0.930 . S
H2638 C2606 0.929 . S
H2639 C2607 0.930 . S
Li2640 N2657 1.990 . S
Li2640 O2700 1.956 . S
Li2640 O2701 1.970 . S
Li2640 O2702 1.961 . S
Li2641 N2665 1.990 . S
Li2641 O2700 1.970 . S
Li2641 O2701 1.956 . S
Li2641 O2703 1.961 . S
Li2642 N2687 1.990 . S
Li2642 O2700 1.961 . S
Li2642 O2702 1.956 . S
Li2642 O2703 1.970 . S
Li2643 N2693 1.990 . S
Li2643 O2701 1.961 . S
Li2643 O2702 1.970 . S
Li2643 O2703 1.956 . S
C2644 C2646 1.348 . S
C2644 C2647 1.356 . S
C2644 O2700 1.325 . S
N2645 C2648 1.314 . S
N2645 C2649 1.279 . S
C2646 C2644 1.348 . S
C2646 C2648 1.353 . S
C2646 H2704 0.929 . S
C2647 C2644 1.356 . S
C2647 C2649 1.358 . S
C2647 H2705 0.930 . S
C2648 N2645 1.314 . S
C2648 C2646 1.353 . S
C2648 H2706 0.930 . S
C2649 N2645 1.279 . S
C2649 C2647 1.358 . S
C2649 H2707 0.930 . S
C2650 C2653 1.348 . S
C2650 C2654 1.356 . S
C2650 O2701 1.325 . S
C2651 N2652 1.279 . S
C2651 C2654 1.358 . S
C2651 H2708 0.930 . S
N2652 C2651 1.279 . S
N2652 C2655 1.314 . S
C2653 C2650 1.348 . S
C2653 C2655 1.353 . S
C2653 H2709 0.929 . S
C2654 C2650 1.356 . S
C2654 C2651 1.358 . S
C2654 H2710 0.930 . S
C2655 N2652 1.314 . S
C2655 C2653 1.353 . S
C2655 H2711 0.930 . S
C2656 N2657 1.314 . S
C2656 C2661 1.353 . S
C2656 H2662 0.930 . S
N2657 Li2640 1.990 . S
N2657 C2656 1.314 . S
N2657 C2659 1.279 . S
C2658 C2659 1.358 . S
C2658 C2660 1.356 . S
C2658 H2712 0.930 . S
C2659 N2657 1.279 . S
C2659 C2658 1.358 . S
C2659 H2663 0.930 . S
C2660 C2658 1.356 . S
C2660 C2661 1.348 . S
C2661 C2656 1.353 . S
C2661 C2660 1.348 . S
C2661 H2713 0.929 . S
H2662 C2656 0.930 . S
H2663 C2659 0.930 . S
C2664 N2665 1.314 . S
C2664 C2666 1.353 . S
C2664 H2670 0.930 . S
N2665 Li2641 1.990 . S
N2665 C2664 1.314 . S
N2665 C2668 1.279 . S
C2666 C2664 1.353 . S
C2666 C2669 1.348 . S
C2666 H2714 0.929 . S
C2667 C2668 1.358 . S
C2667 C2669 1.356 . S
C2667 H2715 0.930 . S
C2668 N2665 1.279 . S
C2668 C2667 1.358 . S
C2668 H2671 0.930 . S
C2669 C2666 1.348 . S
C2669 C2667 1.356 . S
H2670 C2664 0.930 . S
H2671 C2668 0.930 . S
C2672 C2674 1.348 . S
C2672 C2675 1.356 . S
C2672 O2702 1.325 . S
N2673 C2676 1.314 . S
N2673 C2677 1.279 . S
C2674 C2672 1.348 . S
C2674 C2676 1.353 . S
C2674 H2716 0.929 . S
C2675 C2672 1.356 . S
C2675 C2677 1.358 . S
C2675 H2717 0.930 . S
C2676 N2673 1.314 . S
C2676 C2674 1.353 . S
C2676 H2718 0.930 . S
C2677 N2673 1.279 . S
C2677 C2675 1.358 . S
C2677 H2719 0.930 . S
C2678 C2679 1.348 . S
C2678 C2680 1.356 . S
C2678 O2703 1.325 . S
C2679 C2678 1.348 . S
C2679 C2681 1.353 . S
C2679 H2720 0.929 . S
C2680 C2678 1.356 . S
C2680 C2682 1.358 . S
C2680 H2721 0.930 . S
C2681 C2679 1.353 . S
C2681 N2683 1.314 . S
C2681 H2722 0.930 . S
C2682 C2680 1.358 . S
C2682 N2683 1.279 . S
C2682 H2723 0.930 . S
N2683 C2681 1.314 . S
N2683 C2682 1.279 . S
C2684 C2686 1.353 . S
C2684 N2687 1.314 . S
C2684 H2690 0.930 . S
C2685 N2687 1.279 . S
C2685 C2688 1.358 . S
C2685 H2691 0.930 . S
C2686 C2684 1.353 . S
C2686 C2689 1.348 . S
C2686 H2724 0.929 . S
N2687 Li2642 1.990 . S
N2687 C2684 1.314 . S
N2687 C2685 1.279 . S
C2688 C2685 1.358 . S
C2688 C2689 1.356 . S
C2688 H2725 0.930 . S
C2689 C2686 1.348 . S
C2689 C2688 1.356 . S
H2690 C2684 0.930 . S
H2691 C2685 0.930 . S
C2692 N2693 1.314 . S
C2692 C2694 1.353 . S
C2692 H2698 0.930 . S
N2693 Li2643 1.990 . S
N2693 C2692 1.314 . S
N2693 C2696 1.279 . S
C2694 C2692 1.353 . S
C2694 C2697 1.348 . S
C2694 H2726 0.929 . S
C2695 C2696 1.358 . S
C2695 C2697 1.356 . S
C2695 H2727 0.930 . S
C2696 N2693 1.279 . S
C2696 C2695 1.358 . S
C2696 H2699 0.930 . S
C2697 C2694 1.348 . S
C2697 C2695 1.356 . S
H2698 C2692 0.930 . S
H2699 C2696 0.930 . S
O2700 Li2640 1.956 . S
O2700 Li2641 1.970 . S
O2700 Li2642 1.961 . S
O2700 C2644 1.325 . S
O2701 Li2640 1.970 . S
O2701 Li2641 1.956 . S
O2701 Li2643 1.961 . S
O2701 C2650 1.325 . S
O2702 Li2640 1.961 . S
O2702 Li2642 1.956 . S
O2702 Li2643 1.970 . S
O2702 C2672 1.325 . S
O2703 Li2641 1.961 . S
O2703 Li2642 1.970 . S
O2703 Li2643 1.956 . S
O2703 C2678 1.325 . S
H2704 C2646 0.929 . S
H2705 C2647 0.930 . S
H2706 C2648 0.930 . S
H2707 C2649 0.930 . S
H2708 C2651 0.930 . S
H2709 C2653 0.929 . S
H2710 C2654 0.930 . S
H2711 C2655 0.930 . S
H2712 C2658 0.930 . S
H2713 C2661 0.929 . S
H2714 C2666 0.929 . S
H2715 C2667 0.930 . S
H2716 C2674 0.929 . S
H2717 C2675 0.930 . S
H2718 C2676 0.930 . S
H2719 C2677 0.930 . S
H2720 C2679 0.929 . S
H2721 C2680 0.930 . S
H2722 C2681 0.930 . S
H2723 C2682 0.930 . S
H2724 C2686 0.929 . S
H2725 C2688 0.930 . S
H2726 C2694 0.929 . S
H2727 C2695 0.930 . S
Li2728 N2745 1.990 . S
Li2728 O2788 1.956 . S
Li2728 O2789 1.970 . S
Li2728 O2790 1.961 . S
Li2729 N2753 1.990 . S
Li2729 O2788 1.970 . S
Li2729 O2789 1.956 . S
Li2729 O2791 1.961 . S
Li2730 N2775 1.990 . S
Li2730 O2788 1.961 . S
Li2730 O2790 1.956 . S
Li2730 O2791 1.970 . S
Li2731 N2781 1.990 . S
Li2731 O2789 1.961 . S
Li2731 O2790 1.970 . S
Li2731 O2791 1.956 . S
C2732 C2734 1.348 . S
C2732 C2735 1.356 . S
C2732 O2788 1.325 . S
N2733 C2736 1.314 . S
N2733 C2737 1.279 . S
C2734 C2732 1.348 . S
C2734 C2736 1.353 . S
C2734 H2792 0.929 . S
C2735 C2732 1.356 . S
C2735 C2737 1.358 . S
C2735 H2793 0.930 . S
C2736 N2733 1.314 . S
C2736 C2734 1.353 . S
C2736 H2794 0.930 . S
C2737 N2733 1.279 . S
C2737 C2735 1.358 . S
C2737 H2795 0.930 . S
C2738 C2741 1.348 . S
C2738 C2742 1.356 . S
C2738 O2789 1.325 . S
C2739 N2740 1.279 . S
C2739 C2742 1.358 . S
C2739 H2796 0.930 . S
N2740 C2739 1.279 . S
N2740 C2743 1.314 . S
C2741 C2738 1.348 . S
C2741 C2743 1.353 . S
C2741 H2797 0.929 . S
C2742 C2738 1.356 . S
C2742 C2739 1.358 . S
C2742 H2798 0.930 . S
C2743 N2740 1.314 . S
C2743 C2741 1.353 . S
C2743 H2799 0.930 . S
C2744 N2745 1.314 . S
C2744 C2749 1.353 . S
C2744 H2750 0.930 . S
N2745 Li2728 1.990 . S
N2745 C2744 1.314 . S
N2745 C2747 1.279 . S
C2746 C2747 1.358 . S
C2746 C2748 1.356 . S
C2746 H2800 0.930 . S
C2747 N2745 1.279 . S
C2747 C2746 1.358 . S
C2747 H2751 0.930 . S
C2748 C2746 1.356 . S
C2748 C2749 1.348 . S
C2749 C2744 1.353 . S
C2749 C2748 1.348 . S
C2749 H2801 0.929 . S
H2750 C2744 0.930 . S
H2751 C2747 0.930 . S
C2752 N2753 1.314 . S
C2752 C2754 1.353 . S
C2752 H2758 0.930 . S
N2753 Li2729 1.990 . S
N2753 C2752 1.314 . S
N2753 C2756 1.279 . S
C2754 C2752 1.353 . S
C2754 C2757 1.348 . S
C2754 H2802 0.929 . S
C2755 C2756 1.358 . S
C2755 C2757 1.356 . S
C2755 H2803 0.930 . S
C2756 N2753 1.279 . S
C2756 C2755 1.358 . S
C2756 H2759 0.930 . S
C2757 C2754 1.348 . S
C2757 C2755 1.356 . S
H2758 C2752 0.930 . S
H2759 C2756 0.930 . S
C2760 C2762 1.348 . S
C2760 C2763 1.356 . S
C2760 O2790 1.325 . S
N2761 C2764 1.314 . S
N2761 C2765 1.279 . S
C2762 C2760 1.348 . S
C2762 C2764 1.353 . S
C2762 H2804 0.929 . S
C2763 C2760 1.356 . S
C2763 C2765 1.358 . S
C2763 H2805 0.930 . S
C2764 N2761 1.314 . S
C2764 C2762 1.353 . S
C2764 H2806 0.930 . S
C2765 N2761 1.279 . S
C2765 C2763 1.358 . S
C2765 H2807 0.930 . S
C2766 C2767 1.348 . S
C2766 C2768 1.356 . S
C2766 O2791 1.325 . S
C2767 C2766 1.348 . S
C2767 C2769 1.353 . S
C2767 H2808 0.929 . S
C2768 C2766 1.356 . S
C2768 C2770 1.358 . S
C2768 H2809 0.930 . S
C2769 C2767 1.353 . S
C2769 N2771 1.314 . S
C2769 H2810 0.930 . S
C2770 C2768 1.358 . S
C2770 N2771 1.279 . S
C2770 H2811 0.930 . S
N2771 C2769 1.314 . S
N2771 C2770 1.279 . S
C2772 C2774 1.353 . S
C2772 N2775 1.314 . S
C2772 H2778 0.930 . S
C2773 N2775 1.279 . S
C2773 C2776 1.358 . S
C2773 H2779 0.930 . S
C2774 C2772 1.353 . S
C2774 C2777 1.348 . S
C2774 H2812 0.929 . S
N2775 Li2730 1.990 . S
N2775 C2772 1.314 . S
N2775 C2773 1.279 . S
C2776 C2773 1.358 . S
C2776 C2777 1.356 . S
C2776 H2813 0.930 . S
C2777 C2774 1.348 . S
C2777 C2776 1.356 . S
H2778 C2772 0.930 . S
H2779 C2773 0.930 . S
C2780 N2781 1.314 . S
C2780 C2782 1.353 . S
C2780 H2786 0.930 . S
N2781 Li2731 1.990 . S
N2781 C2780 1.314 . S
N2781 C2784 1.279 . S
C2782 C2780 1.353 . S
C2782 C2785 1.348 . S
C2782 H2814 0.929 . S
C2783 C2784 1.358 . S
C2783 C2785 1.356 . S
C2783 H2815 0.930 . S
C2784 N2781 1.279 . S
C2784 C2783 1.358 . S
C2784 H2787 0.930 . S
C2785 C2782 1.348 . S
C2785 C2783 1.356 . S
H2786 C2780 0.930 . S
H2787 C2784 0.930 . S
O2788 Li2728 1.956 . S
O2788 Li2729 1.970 . S
O2788 Li2730 1.961 . S
O2788 C2732 1.325 . S
O2789 Li2728 1.970 . S
O2789 Li2729 1.956 . S
O2789 Li2731 1.961 . S
O2789 C2738 1.325 . S
O2790 Li2728 1.961 . S
O2790 Li2730 1.956 . S
O2790 Li2731 1.970 . S
O2790 C2760 1.325 . S
O2791 Li2729 1.961 . S
O2791 Li2730 1.970 . S
O2791 Li2731 1.956 . S
O2791 C2766 1.325 . S
H2792 C2734 0.929 . S
H2793 C2735 0.930 . S
H2794 C2736 0.930 . S
H2795 C2737 0.930 . S
H2796 C2739 0.930 . S
H2797 C2741 0.929 . S
H2798 C2742 0.930 . S
H2799 C2743 0.930 . S
H2800 C2746 0.930 . S
H2801 C2749 0.929 . S
H2802 C2754 0.929 . S
H2803 C2755 0.930 . S
H2804 C2762 0.929 . S
H2805 C2763 0.930 . S
H2806 C2764 0.930 . S
H2807 C2765 0.930 . S
H2808 C2767 0.929 . S
H2809 C2768 0.930 . S
H2810 C2769 0.930 . S
H2811 C2770 0.930 . S
H2812 C2774 0.929 . S
H2813 C2776 0.930 . S
H2814 C2782 0.929 . S
H2815 C2783 0.930 . S
C2816 C2817 1.363 . S
C2816 C2822 1.379 . S
C2816 N2824 1.356 . S
C2817 C2816 1.363 . S
C2817 C2823 1.363 . S
C2818 C2819 1.363 . S
C2818 C2823 1.379 . S
C2818 N2825 1.356 . S
C2819 C2818 1.363 . S
C2819 C2822 1.363 . S
N2820 C2822 1.356 . S
N2820 H2832 0.984 . S
N2820 H2833 0.985 . S
N2821 C2823 1.356 . S
N2821 H2826 0.984 . S
N2821 H2827 0.985 . S
C2822 C2816 1.379 . S
C2822 C2819 1.363 . S
C2822 N2820 1.356 . S
C2823 C2817 1.363 . S
C2823 C2818 1.379 . S
C2823 N2821 1.356 . S
N2824 C2816 1.356 . S
N2824 H2830 0.984 . S
N2824 H2831 0.984 . S
N2825 C2818 1.356 . S
N2825 H2828 0.984 . S
N2825 H2829 0.985 . S
H2826 N2821 0.984 . S
H2827 N2821 0.985 . S
H2828 N2825 0.984 . S
H2829 N2825 0.985 . S
H2830 N2824 0.984 . S
H2831 N2824 0.984 . S
H2832 N2820 0.984 . S
H2833 N2820 0.985 . S
C2834 C2835 1.363 . S
C2834 C2840 1.379 . S
C2834 N2842 1.356 . S
C2835 C2834 1.363 . S
C2835 C2841 1.363 . S
C2836 C2837 1.363 . S
C2836 C2841 1.379 . S
C2836 N2843 1.356 . S
C2837 C2836 1.363 . S
C2837 C2840 1.363 . S
N2838 C2840 1.356 . S
N2838 H2850 0.984 . S
N2838 H2851 0.985 . S
N2839 C2841 1.356 . S
N2839 H2844 0.984 . S
N2839 H2845 0.985 . S
C2840 C2834 1.379 . S
C2840 C2837 1.363 . S
C2840 N2838 1.356 . S
C2841 C2835 1.363 . S
C2841 C2836 1.379 . S
C2841 N2839 1.356 . S
N2842 C2834 1.356 . S
N2842 H2848 0.984 . S
N2842 H2849 0.984 . S
N2843 C2836 1.356 . S
N2843 H2846 0.984 . S
N2843 H2847 0.985 . S
H2844 N2839 0.984 . S
H2845 N2839 0.985 . S
H2846 N2843 0.984 . S
H2847 N2843 0.985 . S
H2848 N2842 0.984 . S
H2849 N2842 0.984 . S
H2850 N2838 0.984 . S
H2851 N2838 0.985 . S
C2852 C2853 1.363 . S
C2852 C2858 1.379 . S
C2852 N2860 1.356 . S
C2853 C2852 1.363 . S
C2853 C2859 1.363 . S
C2854 C2855 1.363 . S
C2854 C2859 1.379 . S
C2854 N2861 1.356 . S
C2855 C2854 1.363 . S
C2855 C2858 1.363 . S
N2856 C2858 1.356 . S
N2856 H2868 0.984 . S
N2856 H2869 0.985 . S
N2857 C2859 1.356 . S
N2857 H2862 0.984 . S
N2857 H2863 0.985 . S
C2858 C2852 1.379 . S
C2858 C2855 1.363 . S
C2858 N2856 1.356 . S
C2859 C2853 1.363 . S
C2859 C2854 1.379 . S
C2859 N2857 1.356 . S
N2860 C2852 1.356 . S
N2860 H2866 0.984 . S
N2860 H2867 0.984 . S
N2861 C2854 1.356 . S
N2861 H2864 0.984 . S
N2861 H2865 0.985 . S
H2862 N2857 0.984 . S
H2863 N2857 0.985 . S
H2864 N2861 0.984 . S
H2865 N2861 0.985 . S
H2866 N2860 0.984 . S
H2867 N2860 0.984 . S
H2868 N2856 0.984 . S
H2869 N2856 0.985 . S
C2870 C2871 1.363 . S
C2870 C2876 1.379 . S
C2870 N2878 1.356 . S
C2871 C2870 1.363 . S
C2871 C2877 1.363 . S
C2872 C2873 1.363 . S
C2872 C2877 1.379 . S
C2872 N2879 1.356 . S
C2873 C2872 1.363 . S
C2873 C2876 1.363 . S
N2874 C2876 1.356 . S
N2874 H2886 0.984 . S
N2874 H2887 0.985 . S
N2875 C2877 1.356 . S
N2875 H2880 0.984 . S
N2875 H2881 0.985 . S
C2876 C2870 1.379 . S
C2876 C2873 1.363 . S
C2876 N2874 1.356 . S
C2877 C2871 1.363 . S
C2877 C2872 1.379 . S
C2877 N2875 1.356 . S
N2878 C2870 1.356 . S
N2878 H2884 0.984 . S
N2878 H2885 0.984 . S
N2879 C2872 1.356 . S
N2879 H2882 0.984 . S
N2879 H2883 0.985 . S
H2880 N2875 0.984 . S
H2881 N2875 0.985 . S
H2882 N2879 0.984 . S
H2883 N2879 0.985 . S
H2884 N2878 0.984 . S
H2885 N2878 0.984 . S
H2886 N2874 0.984 . S
H2887 N2874 0.985 . S
C2888 C2889 1.363 . S
C2888 C2894 1.379 . S
C2888 N2896 1.356 . S
C2889 C2888 1.363 . S
C2889 C2895 1.363 . S
C2890 C2891 1.363 . S
C2890 C2895 1.379 . S
C2890 N2897 1.356 . S
C2891 C2890 1.363 . S
C2891 C2894 1.363 . S
N2892 C2894 1.356 . S
N2892 H2904 0.984 . S
N2892 H2905 0.985 . S
N2893 C2895 1.356 . S
N2893 H2898 0.984 . S
N2893 H2899 0.985 . S
C2894 C2888 1.379 . S
C2894 C2891 1.363 . S
C2894 N2892 1.356 . S
C2895 C2889 1.363 . S
C2895 C2890 1.379 . S
C2895 N2893 1.356 . S
N2896 C2888 1.356 . S
N2896 H2902 0.984 . S
N2896 H2903 0.984 . S
N2897 C2890 1.356 . S
N2897 H2900 0.984 . S
N2897 H2901 0.985 . S
H2898 N2893 0.984 . S
H2899 N2893 0.985 . S
H2900 N2897 0.984 . S
H2901 N2897 0.985 . S
H2902 N2896 0.984 . S
H2903 N2896 0.984 . S
H2904 N2892 0.984 . S
H2905 N2892 0.985 . S
C2906 C2907 1.363 . S
C2906 C2912 1.379 . S
C2906 N2914 1.356 . S
C2907 C2906 1.363 . S
C2907 C2913 1.363 . S
C2908 C2909 1.363 . S
C2908 C2913 1.379 . S
C2908 N2915 1.356 . S
C2909 C2908 1.363 . S
C2909 C2912 1.363 . S
N2910 C2912 1.356 . S
N2910 H2922 0.984 . S
N2910 H2923 0.985 . S
N2911 C2913 1.356 . S
N2911 H2916 0.984 . S
N2911 H2917 0.985 . S
C2912 C2906 1.379 . S
C2912 C2909 1.363 . S
C2912 N2910 1.356 . S
C2913 C2907 1.363 . S
C2913 C2908 1.379 . S
C2913 N2911 1.356 . S
N2914 C2906 1.356 . S
N2914 H2920 0.984 . S
N2914 H2921 0.984 . S
N2915 C2908 1.356 . S
N2915 H2918 0.984 . S
N2915 H2919 0.985 . S
H2916 N2911 0.984 . S
H2917 N2911 0.985 . S
H2918 N2915 0.984 . S
H2919 N2915 0.985 . S
H2920 N2914 0.984 . S
H2921 N2914 0.984 . S
H2922 N2910 0.984 . S
H2923 N2910 0.985 . S
C2924 C2925 1.363 . S
C2924 C2930 1.379 . S
C2924 N2932 1.356 . S
C2925 C2924 1.363 . S
C2925 C2931 1.363 . S
C2926 C2927 1.363 . S
C2926 C2931 1.379 . S
C2926 N2933 1.356 . S
C2927 C2926 1.363 . S
C2927 C2930 1.363 . S
N2928 C2930 1.356 . S
N2928 H2940 0.984 . S
N2928 H2941 0.985 . S
N2929 C2931 1.356 . S
N2929 H2934 0.984 . S
N2929 H2935 0.985 . S
C2930 C2924 1.379 . S
C2930 C2927 1.363 . S
C2930 N2928 1.356 . S
C2931 C2925 1.363 . S
C2931 C2926 1.379 . S
C2931 N2929 1.356 . S
N2932 C2924 1.356 . S
N2932 H2938 0.984 . S
N2932 H2939 0.984 . S
N2933 C2926 1.356 . S
N2933 H2936 0.984 . S
N2933 H2937 0.985 . S
H2934 N2929 0.984 . S
H2935 N2929 0.985 . S
H2936 N2933 0.984 . S
H2937 N2933 0.985 . S
H2938 N2932 0.984 . S
H2939 N2932 0.984 . S
H2940 N2928 0.984 . S
H2941 N2928 0.985 . S
C2942 C2943 1.363 . S
C2942 C2948 1.379 . S
C2942 N2950 1.356 . S
C2943 C2942 1.363 . S
C2943 C2949 1.363 . S
C2944 C2945 1.363 . S
C2944 C2949 1.379 . S
C2944 N2951 1.356 . S
C2945 C2944 1.363 . S
C2945 C2948 1.363 . S
N2946 C2948 1.356 . S
N2946 H2958 0.984 . S
N2946 H2959 0.985 . S
N2947 C2949 1.356 . S
N2947 H2952 0.984 . S
N2947 H2953 0.985 . S
C2948 C2942 1.379 . S
C2948 C2945 1.363 . S
C2948 N2946 1.356 . S
C2949 C2943 1.363 . S
C2949 C2944 1.379 . S
C2949 N2947 1.356 . S
N2950 C2942 1.356 . S
N2950 H2956 0.984 . S
N2950 H2957 0.984 . S
N2951 C2944 1.356 . S
N2951 H2954 0.984 . S
N2951 H2955 0.985 . S
H2952 N2947 0.984 . S
H2953 N2947 0.985 . S
H2954 N2951 0.984 . S
H2955 N2951 0.985 . S
H2956 N2950 0.984 . S
H2957 N2950 0.984 . S
H2958 N2946 0.984 . S
H2959 N2946 0.985 . S
C2960 C2961 1.363 . S
C2960 C2966 1.379 . S
C2960 N2968 1.356 . S
C2961 C2960 1.363 . S
C2961 C2967 1.363 . S
C2962 C2963 1.363 . S
C2962 C2967 1.379 . S
C2962 N2969 1.356 . S
C2963 C2962 1.363 . S
C2963 C2966 1.363 . S
N2964 C2966 1.356 . S
N2964 H2976 0.984 . S
N2964 H2977 0.985 . S
N2965 C2967 1.356 . S
N2965 H2970 0.984 . S
N2965 H2971 0.985 . S
C2966 C2960 1.379 . S
C2966 C2963 1.363 . S
C2966 N2964 1.356 . S
C2967 C2961 1.363 . S
C2967 C2962 1.379 . S
C2967 N2965 1.356 . S
N2968 C2960 1.356 . S
N2968 H2974 0.984 . S
N2968 H2975 0.984 . S
N2969 C2962 1.356 . S
N2969 H2972 0.984 . S
N2969 H2973 0.985 . S
H2970 N2965 0.984 . S
H2971 N2965 0.985 . S
H2972 N2969 0.984 . S
H2973 N2969 0.985 . S
H2974 N2968 0.984 . S
H2975 N2968 0.984 . S
H2976 N2964 0.984 . S
H2977 N2964 0.985 . S
C2978 C2979 1.363 . S
C2978 C2984 1.379 . S
C2978 N2986 1.356 . S
C2979 C2978 1.363 . S
C2979 C2985 1.363 . S
C2980 C2981 1.363 . S
C2980 C2985 1.379 . S
C2980 N2987 1.356 . S
C2981 C2980 1.363 . S
C2981 C2984 1.363 . S
N2982 C2984 1.356 . S
N2982 H2994 0.984 . S
N2982 H2995 0.985 . S
N2983 C2985 1.356 . S
N2983 H2988 0.984 . S
N2983 H2989 0.985 . S
C2984 C2978 1.379 . S
C2984 C2981 1.363 . S
C2984 N2982 1.356 . S
C2985 C2979 1.363 . S
C2985 C2980 1.379 . S
C2985 N2983 1.356 . S
N2986 C2978 1.356 . S
N2986 H2992 0.984 . S
N2986 H2993 0.984 . S
N2987 C2980 1.356 . S
N2987 H2990 0.984 . S
N2987 H2991 0.985 . S
H2988 N2983 0.984 . S
H2989 N2983 0.985 . S
H2990 N2987 0.984 . S
H2991 N2987 0.985 . S
H2992 N2986 0.984 . S
H2993 N2986 0.984 . S
H2994 N2982 0.984 . S
H2995 N2982 0.985 . S
C2996 C2997 1.363 . S
C2996 C3002 1.379 . S
C2996 N3004 1.356 . S
C2997 C2996 1.363 . S
C2997 C3003 1.363 . S
C2998 C2999 1.363 . S
C2998 C3003 1.379 . S
C2998 N3005 1.356 . S
C2999 C2998 1.363 . S
C2999 C3002 1.363 . S
N3000 C3002 1.356 . S
N3000 H3012 0.984 . S
N3000 H3013 0.985 . S
N3001 C3003 1.356 . S
N3001 H3006 0.984 . S
N3001 H3007 0.985 . S
C3002 C2996 1.379 . S
C3002 C2999 1.363 . S
C3002 N3000 1.356 . S
C3003 C2997 1.363 . S
C3003 C2998 1.379 . S
C3003 N3001 1.356 . S
N3004 C2996 1.356 . S
N3004 H3010 0.984 . S
N3004 H3011 0.984 . S
N3005 C2998 1.356 . S
N3005 H3008 0.984 . S
N3005 H3009 0.985 . S
H3006 N3001 0.984 . S
H3007 N3001 0.985 . S
H3008 N3005 0.984 . S
H3009 N3005 0.985 . S
H3010 N3004 0.984 . S
H3011 N3004 0.984 . S
H3012 N3000 0.984 . S
H3013 N3000 0.985 . S
C3014 C3015 1.363 . S
C3014 C3020 1.379 . S
C3014 N3022 1.356 . S
C3015 C3014 1.363 . S
C3015 C3021 1.363 . S
C3016 C3017 1.363 . S
C3016 C3021 1.379 . S
C3016 N3023 1.356 . S
C3017 C3016 1.363 . S
C3017 C3020 1.363 . S
N3018 C3020 1.356 . S
N3018 H3030 0.984 . S
N3018 H3031 0.985 . S
N3019 C3021 1.356 . S
N3019 H3024 0.984 . S
N3019 H3025 0.985 . S
C3020 C3014 1.379 . S
C3020 C3017 1.363 . S
C3020 N3018 1.356 . S
C3021 C3015 1.363 . S
C3021 C3016 1.379 . S
C3021 N3019 1.356 . S
N3022 C3014 1.356 . S
N3022 H3028 0.984 . S
N3022 H3029 0.984 . S
N3023 C3016 1.356 . S
N3023 H3026 0.984 . S
N3023 H3027 0.985 . S
H3024 N3019 0.984 . S
H3025 N3019 0.985 . S
H3026 N3023 0.984 . S
H3027 N3023 0.985 . S
H3028 N3022 0.984 . S
H3029 N3022 0.984 . S
H3030 N3018 0.984 . S
H3031 N3018 0.985 . S
C3032 C3033 1.363 . S
C3032 C3038 1.379 . S
C3032 N3040 1.356 . S
C3033 C3032 1.363 . S
C3033 C3039 1.363 . S
C3034 C3035 1.363 . S
C3034 C3039 1.379 . S
C3034 N3041 1.356 . S
C3035 C3034 1.363 . S
C3035 C3038 1.363 . S
N3036 C3038 1.356 . S
N3036 H3048 0.984 . S
N3036 H3049 0.985 . S
N3037 C3039 1.356 . S
N3037 H3042 0.984 . S
N3037 H3043 0.985 . S
C3038 C3032 1.379 . S
C3038 C3035 1.363 . S
C3038 N3036 1.356 . S
C3039 C3033 1.363 . S
C3039 C3034 1.379 . S
C3039 N3037 1.356 . S
N3040 C3032 1.356 . S
N3040 H3046 0.984 . S
N3040 H3047 0.984 . S
N3041 C3034 1.356 . S
N3041 H3044 0.984 . S
N3041 H3045 0.985 . S
H3042 N3037 0.984 . S
H3043 N3037 0.985 . S
H3044 N3041 0.984 . S
H3045 N3041 0.985 . S
H3046 N3040 0.984 . S
H3047 N3040 0.984 . S
H3048 N3036 0.984 . S
H3049 N3036 0.985 . S
C3050 C3051 1.363 . S
C3050 C3056 1.379 . S
C3050 N3058 1.356 . S
C3051 C3050 1.363 . S
C3051 C3057 1.363 . S
C3052 C3053 1.363 . S
C3052 C3057 1.379 . S
C3052 N3059 1.356 . S
C3053 C3052 1.363 . S
C3053 C3056 1.363 . S
N3054 C3056 1.356 . S
N3054 H3066 0.984 . S
N3054 H3067 0.985 . S
N3055 C3057 1.356 . S
N3055 H3060 0.984 . S
N3055 H3061 0.985 . S
C3056 C3050 1.379 . S
C3056 C3053 1.363 . S
C3056 N3054 1.356 . S
C3057 C3051 1.363 . S
C3057 C3052 1.379 . S
C3057 N3055 1.356 . S
N3058 C3050 1.356 . S
N3058 H3064 0.984 . S
N3058 H3065 0.984 . S
N3059 C3052 1.356 . S
N3059 H3062 0.984 . S
N3059 H3063 0.985 . S
H3060 N3055 0.984 . S
H3061 N3055 0.985 . S
H3062 N3059 0.984 . S
H3063 N3059 0.985 . S
H3064 N3058 0.984 . S
H3065 N3058 0.984 . S
H3066 N3054 0.984 . S
H3067 N3054 0.985 . S
C3068 C3069 1.363 . S
C3068 C3074 1.379 . S
C3068 N3076 1.356 . S
C3069 C3068 1.363 . S
C3069 C3075 1.363 . S
C3070 C3071 1.363 . S
C3070 C3075 1.379 . S
C3070 N3077 1.356 . S
C3071 C3070 1.363 . S
C3071 C3074 1.363 . S
N3072 C3074 1.356 . S
N3072 H3084 0.984 . S
N3072 H3085 0.985 . S
N3073 C3075 1.356 . S
N3073 H3078 0.984 . S
N3073 H3079 0.985 . S
C3074 C3068 1.379 . S
C3074 C3071 1.363 . S
C3074 N3072 1.356 . S
C3075 C3069 1.363 . S
C3075 C3070 1.379 . S
C3075 N3073 1.356 . S
N3076 C3068 1.356 . S
N3076 H3082 0.984 . S
N3076 H3083 0.984 . S
N3077 C3070 1.356 . S
N3077 H3080 0.984 . S
N3077 H3081 0.985 . S
H3078 N3073 0.984 . S
H3079 N3073 0.985 . S
H3080 N3077 0.984 . S
H3081 N3077 0.985 . S
H3082 N3076 0.984 . S
H3083 N3076 0.984 . S
H3084 N3072 0.984 . S
H3085 N3072 0.985 . S
C3086 C3087 1.363 . S
C3086 C3092 1.379 . S
C3086 N3094 1.356 . S
C3087 C3086 1.363 . S
C3087 C3093 1.363 . S
C3088 C3089 1.363 . S
C3088 C3093 1.379 . S
C3088 N3095 1.356 . S
C3089 C3088 1.363 . S
C3089 C3092 1.363 . S
N3090 C3092 1.356 . S
N3090 H3102 0.984 . S
N3090 H3103 0.985 . S
N3091 C3093 1.356 . S
N3091 H3096 0.984 . S
N3091 H3097 0.985 . S
C3092 C3086 1.379 . S
C3092 C3089 1.363 . S
C3092 N3090 1.356 . S
C3093 C3087 1.363 . S
C3093 C3088 1.379 . S
C3093 N3091 1.356 . S
N3094 C3086 1.356 . S
N3094 H3100 0.984 . S
N3094 H3101 0.984 . S
N3095 C3088 1.356 . S
N3095 H3098 0.984 . S
N3095 H3099 0.985 . S
H3096 N3091 0.984 . S
H3097 N3091 0.985 . S
H3098 N3095 0.984 . S
H3099 N3095 0.985 . S
H3100 N3094 0.984 . S
H3101 N3094 0.984 . S
H3102 N3090 0.984 . S
H3103 N3090 0.985 . S
C3104 C3105 1.340 1_655 S
C3104 C3110 1.379 . S
C3104 N3112 1.356 . S
C3105 C3104 1.340 1_455 S
C3105 C3111 1.385 . S
C3106 C3107 1.339 1_455 S
C3106 C3111 1.379 . S
C3106 N3113 1.356 . S
C3107 C3106 1.339 1_655 S
C3107 C3110 1.386 . S
N3108 C3110 1.356 . S
N3108 H3120 0.984 . S
N3108 H3121 0.985 . S
N3109 C3111 1.356 . S
N3109 H3114 0.984 . S
N3109 H3115 0.985 . S
C3110 C3104 1.379 . S
C3110 C3107 1.386 . S
C3110 N3108 1.356 . S
C3111 C3105 1.385 . S
C3111 C3106 1.379 . S
C3111 N3109 1.356 . S
N3112 C3104 1.356 . S
N3112 H3118 0.984 . S
N3112 H3119 0.984 . S
N3113 C3106 1.356 . S
N3113 H3116 0.984 . S
N3113 H3117 0.985 . S
H3114 N3109 0.984 . S
H3115 N3109 0.985 . S
H3116 N3113 0.984 . S
H3117 N3113 0.985 . S
H3118 N3112 0.984 . S
H3119 N3112 0.984 . S
H3120 N3108 0.984 . S
H3121 N3108 0.985 . S
C3122 C3123 1.363 . S
C3122 C3128 1.379 1_545 S
C3122 N3130 1.356 . S
C3123 C3122 1.363 . S
C3123 C3129 1.363 . S
C3124 C3125 1.363 . S
C3124 C3129 1.379 1_565 S
C3124 N3131 1.356 . S
C3125 C3124 1.363 . S
C3125 C3128 1.363 . S
N3126 C3128 1.356 . S
N3126 H3138 0.984 . S
N3126 H3139 0.985 . S
N3127 C3129 1.356 . S
N3127 H3132 0.984 . S
N3127 H3133 0.985 . S
C3128 C3122 1.379 1_565 S
C3128 C3125 1.363 . S
C3128 N3126 1.356 . S
C3129 C3123 1.363 . S
C3129 C3124 1.379 1_545 S
C3129 N3127 1.356 . S
N3130 C3122 1.356 . S
N3130 H3136 0.984 . S
N3130 H3137 0.984 . S
N3131 C3124 1.356 . S
N3131 H3134 0.984 . S
N3131 H3135 0.985 . S
H3132 N3127 0.984 . S
H3133 N3127 0.985 . S
H3134 N3131 0.984 . S
H3135 N3131 0.985 . S
H3136 N3130 0.984 . S
H3137 N3130 0.984 . S
H3138 N3126 0.984 . S
H3139 N3126 0.985 . S
C3140 C3141 1.370 1_554 S
C3140 C3146 1.376 1_545 S
C3140 N3148 1.356 . S
C3141 C3140 1.370 1_556 S
C3141 C3147 1.378 1_455 S
C3142 C3143 1.371 1_556 S
C3142 C3147 1.357 1_565 S
C3142 N3149 1.356 . S
C3143 C3142 1.371 1_554 S
C3143 C3146 1.357 1_655 S
N3144 C3146 1.357 . S
N3144 H3156 0.984 1_565 S
N3144 H3157 0.985 . S
N3145 C3147 1.364 . S
N3145 H3150 0.984 . S
N3145 H3151 0.985 1_545 S
C3146 C3140 1.376 1_565 S
C3146 C3143 1.357 1_455 S
C3146 N3144 1.357 . S
C3147 C3141 1.378 1_655 S
C3147 C3142 1.357 1_545 S
C3147 N3145 1.364 . S
N3148 C3140 1.356 . S
N3148 H3154 0.984 . S
N3148 H3155 0.984 . S
N3149 C3142 1.356 . S
N3149 H3152 0.984 . S
N3149 H3153 0.985 . S
H3150 N3145 0.984 . S
H3151 N3145 0.985 1_565 S
H3152 N3149 0.984 . S
H3153 N3149 0.985 . S
H3154 N3148 0.984 . S
H3155 N3148 0.984 . S
H3156 N3144 0.984 1_545 S
H3157 N3144 0.985 . S
C3158 C3159 1.363 . S
C3158 C3164 1.379 . S
C3158 N3166 1.356 . S
C3159 C3158 1.363 . S
C3159 C3165 1.363 1_556 S
C3160 C3161 1.363 . S
C3160 C3165 1.379 . S
C3160 N3167 1.356 . S
C3161 C3160 1.363 . S
C3161 C3164 1.363 1_554 S
N3162 C3164 1.356 . S
N3162 H3174 0.984 . S
N3162 H3175 0.985 . S
N3163 C3165 1.356 . S
N3163 H3168 0.984 . S
N3163 H3169 0.985 . S
C3164 C3158 1.379 . S
C3164 C3161 1.363 1_556 S
C3164 N3162 1.356 . S
C3165 C3159 1.363 1_554 S
C3165 C3160 1.379 . S
C3165 N3163 1.356 . S
N3166 C3158 1.356 . S
N3166 H3172 0.984 . S
N3166 H3173 0.984 . S
N3167 C3160 1.356 . S
N3167 H3170 0.984 . S
N3167 H3171 0.985 . S
H3168 N3163 0.984 . S
H3169 N3163 0.985 . S
H3170 N3167 0.984 . S
H3171 N3167 0.985 . S
H3172 N3166 0.984 . S
H3173 N3166 0.984 . S
H3174 N3162 0.984 . S
H3175 N3162 0.985 . S
C3176 C3177 1.341 1_455 S
C3176 C3182 1.379 . S
C3176 N3184 1.356 . S
C3177 C3176 1.341 1_655 S
C3177 C3183 1.384 . S
C3178 C3179 1.342 1_655 S
C3178 C3183 1.379 . S
C3178 N3185 1.356 . S
C3179 C3178 1.342 1_455 S
C3179 C3182 1.383 . S
N3180 C3182 1.356 . S
N3180 H3192 0.984 . S
N3180 H3193 0.985 . S
N3181 C3183 1.356 . S
N3181 H3186 0.984 . S
N3181 H3187 0.985 . S
C3182 C3176 1.379 . S
C3182 C3179 1.383 . S
C3182 N3180 1.356 . S
C3183 C3177 1.384 . S
C3183 C3178 1.379 . S
C3183 N3181 1.356 . S
N3184 C3176 1.356 . S
N3184 H3190 0.984 . S
N3184 H3191 0.984 . S
N3185 C3178 1.356 . S
N3185 H3188 0.984 . S
N3185 H3189 0.985 . S
H3186 N3181 0.984 . S
H3187 N3181 0.985 . S
H3188 N3185 0.984 . S
H3189 N3185 0.985 . S
H3190 N3184 0.984 . S
H3191 N3184 0.984 . S
H3192 N3180 0.984 . S
H3193 N3180 0.985 . S
C3194 C3195 1.382 . S
C3194 C3200 1.361 1_545 S
C3194 N3202 1.363 . S
C3195 C3194 1.382 . S
C3195 C3201 1.363 . S
C3196 C3197 1.361 . S
C3196 C3201 1.381 1_565 S
C3196 N3203 1.356 . S
C3197 C3196 1.361 . S
C3197 C3200 1.363 . S
N3198 C3200 1.356 . S
N3198 H3210 0.984 . S
N3198 H3211 0.985 . S
N3199 C3201 1.356 . S
N3199 H3204 0.984 . S
N3199 H3205 0.985 . S
C3200 C3194 1.361 1_565 S
C3200 C3197 1.363 . S
C3200 N3198 1.356 . S
C3201 C3195 1.363 . S
C3201 C3196 1.381 1_545 S
C3201 N3199 1.356 . S
N3202 C3194 1.363 . S
N3202 H3208 0.984 1_545 S
N3202 H3209 0.984 . S
N3203 C3196 1.356 . S
N3203 H3206 0.984 . S
N3203 H3207 0.985 1_565 S
H3204 N3199 0.984 . S
H3205 N3199 0.985 . S
H3206 N3203 0.984 . S
H3207 N3203 0.985 1_545 S
H3208 N3202 0.984 1_565 S
H3209 N3202 0.984 . S
H3210 N3198 0.984 . S
H3211 N3198 0.985 . S
C3212 C3213 1.363 1_554 S
C3212 C3218 1.379 . S
C3212 N3220 1.356 . S
C3213 C3212 1.363 1_556 S
C3213 C3219 1.363 . S
C3214 C3215 1.363 1_556 S
C3214 C3219 1.379 . S
C3214 N3221 1.356 . S
C3215 C3214 1.363 1_554 S
C3215 C3218 1.363 . S
N3216 C3218 1.356 . S
N3216 H3228 0.984 . S
N3216 H3229 0.985 . S
N3217 C3219 1.356 . S
N3217 H3222 0.984 . S
N3217 H3223 0.985 . S
C3218 C3212 1.379 . S
C3218 C3215 1.363 . S
C3218 N3216 1.356 . S
C3219 C3213 1.363 . S
C3219 C3214 1.379 . S
C3219 N3217 1.356 . S
N3220 C3212 1.356 . S
N3220 H3226 0.984 . S
N3220 H3227 0.984 1_554 S
N3221 C3214 1.356 . S
N3221 H3224 0.984 1_556 S
N3221 H3225 0.985 . S
H3222 N3217 0.984 . S
H3223 N3217 0.985 . S
H3224 N3221 0.984 1_554 S
H3225 N3221 0.985 . S
H3226 N3220 0.984 . S
H3227 N3220 0.984 1_556 S
H3228 N3216 0.984 . S
H3229 N3216 0.985 . S
C3230 C3231 1.363 . S
C3230 C3236 1.379 . S
C3230 N3238 1.356 . S
C3231 C3230 1.363 . S
C3231 C3237 1.363 . S
C3232 C3233 1.363 . S
C3232 C3237 1.379 . S
C3232 N3239 1.356 . S
C3233 C3232 1.363 . S
C3233 C3236 1.363 . S
N3234 C3236 1.356 . S
N3234 H3246 0.984 . S
N3234 H3247 0.985 . S
N3235 C3237 1.356 . S
N3235 H3240 0.984 . S
N3235 H3241 0.985 . S
C3236 C3230 1.379 . S
C3236 C3233 1.363 . S
C3236 N3234 1.356 . S
C3237 C3231 1.363 . S
C3237 C3232 1.379 . S
C3237 N3235 1.356 . S
N3238 C3230 1.356 . S
N3238 H3244 0.984 . S
N3238 H3245 0.984 . S
N3239 C3232 1.356 . S
N3239 H3242 0.984 . S
N3239 H3243 0.985 . S
H3240 N3235 0.984 . S
H3241 N3235 0.985 . S
H3242 N3239 0.984 . S
H3243 N3239 0.985 . S
H3244 N3238 0.984 . S
H3245 N3238 0.984 . S
H3246 N3234 0.984 . S
H3247 N3234 0.985 . S
C3248 C3249 1.384 . S
C3248 C3254 1.379 . S
C3248 N3256 1.356 . S
C3249 C3248 1.384 . S
C3249 C3255 1.341 1_455 S
C3250 C3251 1.385 . S
C3250 C3255 1.379 . S
C3250 N3257 1.356 . S
C3251 C3250 1.385 . S
C3251 C3254 1.340 1_655 S
N3252 C3254 1.356 . S
N3252 H3264 0.984 . S
N3252 H3265 0.985 . S
N3253 C3255 1.356 . S
N3253 H3258 0.984 . S
N3253 H3259 0.985 . S
C3254 C3248 1.379 . S
C3254 C3251 1.340 1_455 S
C3254 N3252 1.356 . S
C3255 C3249 1.341 1_655 S
C3255 C3250 1.379 . S
C3255 N3253 1.356 . S
N3256 C3248 1.356 . S
N3256 H3262 0.984 . S
N3256 H3263 0.984 . S
N3257 C3250 1.356 . S
N3257 H3260 0.984 . S
N3257 H3261 0.985 . S
H3258 N3253 0.984 . S
H3259 N3253 0.985 . S
H3260 N3257 0.984 . S
H3261 N3257 0.985 . S
H3262 N3256 0.984 . S
H3263 N3256 0.984 . S
H3264 N3252 0.984 . S
H3265 N3252 0.985 . S
C3266 C3267 1.363 . S
C3266 C3272 1.379 . S
C3266 N3274 1.356 . S
C3267 C3266 1.363 . S
C3267 C3273 1.363 . S
C3268 C3269 1.363 . S
C3268 C3273 1.379 . S
C3268 N3275 1.356 . S
C3269 C3268 1.363 . S
C3269 C3272 1.363 . S
N3270 C3272 1.356 . S
N3270 H3282 0.984 . S
N3270 H3283 0.985 . S
N3271 C3273 1.356 . S
N3271 H3276 0.984 . S
N3271 H3277 0.985 . S
C3272 C3266 1.379 . S
C3272 C3269 1.363 . S
C3272 N3270 1.356 . S
C3273 C3267 1.363 . S
C3273 C3268 1.379 . S
C3273 N3271 1.356 . S
N3274 C3266 1.356 . S
N3274 H3280 0.984 . S
N3274 H3281 0.984 . S
N3275 C3268 1.356 . S
N3275 H3278 0.984 . S
N3275 H3279 0.985 . S
H3276 N3271 0.984 . S
H3277 N3271 0.985 . S
H3278 N3275 0.984 . S
H3279 N3275 0.985 . S
H3280 N3274 0.984 . S
H3281 N3274 0.984 . S
H3282 N3270 0.984 . S
H3283 N3270 0.985 . S
C3284 C3285 1.363 . S
C3284 C3290 1.379 . S
C3284 N3292 1.356 . S
C3285 C3284 1.363 . S
C3285 C3291 1.363 . S
C3286 C3287 1.363 . S
C3286 C3291 1.379 . S
C3286 N3293 1.356 . S
C3287 C3286 1.363 . S
C3287 C3290 1.363 . S
N3288 C3290 1.356 . S
N3288 H3300 0.984 . S
N3288 H3301 0.985 . S
N3289 C3291 1.356 . S
N3289 H3294 0.984 . S
N3289 H3295 0.985 . S
C3290 C3284 1.379 . S
C3290 C3287 1.363 . S
C3290 N3288 1.356 . S
C3291 C3285 1.363 . S
C3291 C3286 1.379 . S
C3291 N3289 1.356 . S
N3292 C3284 1.356 . S
N3292 H3298 0.984 . S
N3292 H3299 0.984 . S
N3293 C3286 1.356 . S
N3293 H3296 0.984 . S
N3293 H3297 0.985 . S
H3294 N3289 0.984 . S
H3295 N3289 0.985 . S
H3296 N3293 0.984 . S
H3297 N3293 0.985 . S
H3298 N3292 0.984 . S
H3299 N3292 0.984 . S
H3300 N3288 0.984 . S
H3301 N3288 0.985 . S
C3302 C3303 1.363 . S
C3302 C3308 1.379 . S
C3302 N3310 1.356 . S
C3303 C3302 1.363 . S
C3303 C3309 1.363 . S
C3304 C3305 1.363 . S
C3304 C3309 1.379 . S
C3304 N3311 1.356 . S
C3305 C3304 1.363 . S
C3305 C3308 1.363 . S
N3306 C3308 1.356 . S
N3306 H3318 0.984 . S
N3306 H3319 0.985 . S
N3307 C3309 1.356 . S
N3307 H3312 0.984 . S
N3307 H3313 0.985 . S
C3308 C3302 1.379 . S
C3308 C3305 1.363 . S
C3308 N3306 1.356 . S
C3309 C3303 1.363 . S
C3309 C3304 1.379 . S
C3309 N3307 1.356 . S
N3310 C3302 1.356 . S
N3310 H3316 0.984 . S
N3310 H3317 0.984 . S
N3311 C3304 1.356 . S
N3311 H3314 0.984 . S
N3311 H3315 0.985 . S
H3312 N3307 0.984 . S
H3313 N3307 0.985 . S
H3314 N3311 0.984 . S
H3315 N3311 0.985 . S
H3316 N3310 0.984 . S
H3317 N3310 0.984 . S
H3318 N3306 0.984 . S
H3319 N3306 0.985 . S
C3320 C3321 1.363 . S
C3320 C3326 1.379 . S
C3320 N3328 1.356 . S
C3321 C3320 1.363 . S
C3321 C3327 1.363 . S
C3322 C3323 1.363 . S
C3322 C3327 1.379 . S
C3322 N3329 1.356 . S
C3323 C3322 1.363 . S
C3323 C3326 1.363 . S
N3324 C3326 1.356 . S
N3324 H3336 0.984 . S
N3324 H3337 0.985 . S
N3325 C3327 1.356 . S
N3325 H3330 0.984 . S
N3325 H3331 0.985 . S
C3326 C3320 1.379 . S
C3326 C3323 1.363 . S
C3326 N3324 1.356 . S
C3327 C3321 1.363 . S
C3327 C3322 1.379 . S
C3327 N3325 1.356 . S
N3328 C3320 1.356 . S
N3328 H3334 0.984 . S
N3328 H3335 0.984 . S
N3329 C3322 1.356 . S
N3329 H3332 0.984 . S
N3329 H3333 0.985 . S
H3330 N3325 0.984 . S
H3331 N3325 0.985 . S
H3332 N3329 0.984 . S
H3333 N3329 0.985 . S
H3334 N3328 0.984 . S
H3335 N3328 0.984 . S
H3336 N3324 0.984 . S
H3337 N3324 0.985 . S
C3338 C3339 1.363 . S
C3338 C3344 1.375 1_565 S
C3338 N3346 1.356 . S
C3339 C3338 1.363 . S
C3339 C3345 1.351 1_565 S
C3340 C3341 1.363 . S
C3340 C3345 1.390 . S
C3340 N3347 1.356 . S
C3341 C3340 1.363 . S
C3341 C3344 1.367 . S
N3342 C3344 1.357 . S
N3342 H3354 0.984 1_545 S
N3342 H3355 0.985 . S
N3343 C3345 1.353 1_565 S
N3343 H3348 0.984 . S
N3343 H3349 0.985 1_565 S
C3344 C3338 1.375 1_545 S
C3344 C3341 1.367 . S
C3344 N3342 1.357 . S
C3345 C3339 1.351 1_545 S
C3345 C3340 1.390 . S
C3345 N3343 1.353 1_545 S
N3346 C3338 1.356 . S
N3346 H3352 0.984 . S
N3346 H3353 0.984 . S
N3347 C3340 1.356 . S
N3347 H3350 0.984 . S
N3347 H3351 0.985 . S
H3348 N3343 0.984 . S
H3349 N3343 0.985 1_545 S
H3350 N3347 0.984 . S
H3351 N3347 0.985 . S
H3352 N3346 0.984 . S
H3353 N3346 0.984 . S
H3354 N3342 0.984 1_565 S
H3355 N3342 0.985 . S
C3356 C3357 1.363 . S
C3356 C3362 1.379 . S
C3356 N3364 1.356 . S
C3357 C3356 1.363 . S
C3357 C3363 1.363 . S
C3358 C3359 1.363 . S
C3358 C3363 1.379 . S
C3358 N3365 1.356 . S
C3359 C3358 1.363 . S
C3359 C3362 1.363 . S
N3360 C3362 1.356 . S
N3360 H3372 0.984 . S
N3360 H3373 0.985 . S
N3361 C3363 1.356 . S
N3361 H3366 0.984 . S
N3361 H3367 0.985 . S
C3362 C3356 1.379 . S
C3362 C3359 1.363 . S
C3362 N3360 1.356 . S
C3363 C3357 1.363 . S
C3363 C3358 1.379 . S
C3363 N3361 1.356 . S
N3364 C3356 1.356 . S
N3364 H3370 0.984 . S
N3364 H3371 0.984 . S
N3365 C3358 1.356 . S
N3365 H3368 0.984 . S
N3365 H3369 0.985 . S
H3366 N3361 0.984 . S
H3367 N3361 0.985 . S
H3368 N3365 0.984 . S
H3369 N3365 0.985 . S
H3370 N3364 0.984 . S
H3371 N3364 0.984 . S
H3372 N3360 0.984 . S
H3373 N3360 0.985 . S
C3374 C3375 1.363 . S
C3374 C3380 1.379 1_554 S
C3374 N3382 1.356 . S
C3375 C3374 1.363 . S
C3375 C3381 1.363 . S
C3376 C3377 1.363 . S
C3376 C3381 1.379 1_556 S
C3376 N3383 1.356 . S
C3377 C3376 1.363 . S
C3377 C3380 1.363 . S
N3378 C3380 1.356 . S
N3378 H3390 0.984 . S
N3378 H3391 0.985 . S
N3379 C3381 1.356 . S
N3379 H3384 0.984 . S
N3379 H3385 0.985 . S
C3380 C3374 1.379 1_556 S
C3380 C3377 1.363 . S
C3380 N3378 1.356 . S
C3381 C3375 1.363 . S
C3381 C3376 1.379 1_554 S
C3381 N3379 1.356 . S
N3382 C3374 1.356 . S
N3382 H3388 0.984 . S
N3382 H3389 0.984 . S
N3383 C3376 1.356 . S
N3383 H3386 0.984 . S
N3383 H3387 0.985 . S
H3384 N3379 0.984 . S
H3385 N3379 0.985 . S
H3386 N3383 0.984 . S
H3387 N3383 0.985 . S
H3388 N3382 0.984 . S
H3389 N3382 0.984 . S
H3390 N3378 0.984 . S
H3391 N3378 0.985 . S
C3392 C3393 1.363 . S
C3392 C3398 1.379 . S
C3392 N3400 1.356 . S
C3393 C3392 1.363 . S
C3393 C3399 1.363 . S
C3394 C3395 1.363 . S
C3394 C3399 1.379 . S
C3394 N3401 1.356 . S
C3395 C3394 1.363 . S
C3395 C3398 1.363 . S
N3396 C3398 1.356 . S
N3396 H3408 0.984 . S
N3396 H3409 0.985 . S
N3397 C3399 1.356 . S
N3397 H3402 0.984 . S
N3397 H3403 0.985 . S
C3398 C3392 1.379 . S
C3398 C3395 1.363 . S
C3398 N3396 1.356 . S
C3399 C3393 1.363 . S
C3399 C3394 1.379 . S
C3399 N3397 1.356 . S
N3400 C3392 1.356 . S
N3400 H3406 0.984 . S
N3400 H3407 0.984 . S
N3401 C3394 1.356 . S
N3401 H3404 0.984 . S
N3401 H3405 0.985 . S
H3402 N3397 0.984 . S
H3403 N3397 0.985 . S
H3404 N3401 0.984 . S
H3405 N3401 0.985 . S
H3406 N3400 0.984 . S
H3407 N3400 0.984 . S
H3408 N3396 0.984 . S
H3409 N3396 0.985 . S
C3410 C3411 1.363 . S
C3410 C3416 1.379 . S
C3410 N3418 1.356 . S
C3411 C3410 1.363 . S
C3411 C3417 1.363 . S
C3412 C3413 1.363 . S
C3412 C3417 1.379 . S
C3412 N3419 1.356 . S
C3413 C3412 1.363 . S
C3413 C3416 1.363 . S
N3414 C3416 1.356 . S
N3414 H3426 0.984 . S
N3414 H3427 0.985 . S
N3415 C3417 1.356 . S
N3415 H3420 0.984 . S
N3415 H3421 0.985 . S
C3416 C3410 1.379 . S
C3416 C3413 1.363 . S
C3416 N3414 1.356 . S
C3417 C3411 1.363 . S
C3417 C3412 1.379 . S
C3417 N3415 1.356 . S
N3418 C3410 1.356 . S
N3418 H3424 0.984 . S
N3418 H3425 0.984 . S
N3419 C3412 1.356 . S
N3419 H3422 0.984 . S
N3419 H3423 0.985 . S
H3420 N3415 0.984 . S
H3421 N3415 0.985 . S
H3422 N3419 0.984 . S
H3423 N3419 0.985 . S
H3424 N3418 0.984 . S
H3425 N3418 0.984 . S
H3426 N3414 0.984 . S
H3427 N3414 0.985 . S
C3428 C3429 1.363 . S
C3428 C3434 1.379 . S
C3428 N3436 1.356 . S
C3429 C3428 1.363 . S
C3429 C3435 1.363 . S
C3430 C3431 1.363 . S
C3430 C3435 1.379 . S
C3430 N3437 1.356 . S
C3431 C3430 1.363 . S
C3431 C3434 1.363 . S
N3432 C3434 1.356 . S
N3432 H3444 0.984 . S
N3432 H3445 0.985 . S
N3433 C3435 1.356 . S
N3433 H3438 0.984 . S
N3433 H3439 0.985 . S
C3434 C3428 1.379 . S
C3434 C3431 1.363 . S
C3434 N3432 1.356 . S
C3435 C3429 1.363 . S
C3435 C3430 1.379 . S
C3435 N3433 1.356 . S
N3436 C3428 1.356 . S
N3436 H3442 0.984 . S
N3436 H3443 0.984 . S
N3437 C3430 1.356 . S
N3437 H3440 0.984 . S
N3437 H3441 0.985 . S
H3438 N3433 0.984 . S
H3439 N3433 0.985 . S
H3440 N3437 0.984 . S
H3441 N3437 0.985 . S
H3442 N3436 0.984 . S
H3443 N3436 0.984 . S
H3444 N3432 0.984 . S
H3445 N3432 0.985 . S
C3446 C3447 1.363 . S
C3446 C3452 1.379 . S
C3446 N3454 1.356 . S
C3447 C3446 1.363 . S
C3447 C3453 1.363 . S
C3448 C3449 1.363 . S
C3448 C3453 1.379 . S
C3448 N3455 1.356 . S
C3449 C3448 1.363 . S
C3449 C3452 1.363 . S
N3450 C3452 1.356 . S
N3450 H3462 0.984 . S
N3450 H3463 0.985 . S
N3451 C3453 1.356 . S
N3451 H3456 0.984 . S
N3451 H3457 0.985 . S
C3452 C3446 1.379 . S
C3452 C3449 1.363 . S
C3452 N3450 1.356 . S
C3453 C3447 1.363 . S
C3453 C3448 1.379 . S
C3453 N3451 1.356 . S
N3454 C3446 1.356 . S
N3454 H3460 0.984 . S
N3454 H3461 0.984 . S
N3455 C3448 1.356 . S
N3455 H3458 0.984 . S
N3455 H3459 0.985 . S
H3456 N3451 0.984 . S
H3457 N3451 0.985 . S
H3458 N3455 0.984 . S
H3459 N3455 0.985 . S
H3460 N3454 0.984 . S
H3461 N3454 0.984 . S
H3462 N3450 0.984 . S
H3463 N3450 0.985 . S
C3464 C3465 1.363 . S
C3464 C3470 1.379 . S
C3464 N3472 1.356 . S
C3465 C3464 1.363 . S
C3465 C3471 1.363 . S
C3466 C3467 1.363 . S
C3466 C3471 1.379 . S
C3466 N3473 1.356 . S
C3467 C3466 1.363 . S
C3467 C3470 1.363 . S
N3468 C3470 1.356 . S
N3468 H3480 0.984 . S
N3468 H3481 0.985 . S
N3469 C3471 1.356 . S
N3469 H3474 0.984 . S
N3469 H3475 0.985 1_655 S
C3470 C3464 1.379 . S
C3470 C3467 1.363 . S
C3470 N3468 1.356 . S
C3471 C3465 1.363 . S
C3471 C3466 1.379 . S
C3471 N3469 1.356 . S
N3472 C3464 1.356 . S
N3472 H3478 0.984 . S
N3472 H3479 0.984 . S
N3473 C3466 1.356 . S
N3473 H3476 0.984 . S
N3473 H3477 0.985 1_655 S
H3474 N3469 0.984 . S
H3475 N3469 0.985 1_455 S
H3476 N3473 0.984 . S
H3477 N3473 0.985 1_455 S
H3478 N3472 0.984 . S
H3479 N3472 0.984 . S
H3480 N3468 0.984 . S
H3481 N3468 0.985 . S
C3482 C3483 1.363 . S
C3482 C3488 1.379 . S
C3482 N3490 1.356 . S
C3483 C3482 1.363 . S
C3483 C3489 1.363 . S
C3484 C3485 1.363 . S
C3484 C3489 1.379 . S
C3484 N3491 1.356 . S
C3485 C3484 1.363 . S
C3485 C3488 1.363 . S
N3486 C3488 1.356 . S
N3486 H3498 0.984 . S
N3486 H3499 0.985 . S
N3487 C3489 1.356 . S
N3487 H3492 0.984 . S
N3487 H3493 0.985 . S
C3488 C3482 1.379 . S
C3488 C3485 1.363 . S
C3488 N3486 1.356 . S
C3489 C3483 1.363 . S
C3489 C3484 1.379 . S
C3489 N3487 1.356 . S
N3490 C3482 1.356 . S
N3490 H3496 0.984 . S
N3490 H3497 0.984 . S
N3491 C3484 1.356 . S
N3491 H3494 0.984 . S
N3491 H3495 0.985 . S
H3492 N3487 0.984 . S
H3493 N3487 0.985 . S
H3494 N3491 0.984 . S
H3495 N3491 0.985 . S
H3496 N3490 0.984 . S
H3497 N3490 0.984 . S
H3498 N3486 0.984 . S
H3499 N3486 0.985 . S
C3500 C3501 1.363 . S
C3500 C3506 1.379 . S
C3500 N3508 1.356 . S
C3501 C3500 1.363 . S
C3501 C3507 1.363 . S
C3502 C3503 1.363 . S
C3502 C3507 1.379 . S
C3502 N3509 1.356 . S
C3503 C3502 1.363 . S
C3503 C3506 1.363 . S
N3504 C3506 1.356 . S
N3504 H3516 0.984 . S
N3504 H3517 0.985 . S
N3505 C3507 1.356 . S
N3505 H3510 0.984 . S
N3505 H3511 0.985 . S
C3506 C3500 1.379 . S
C3506 C3503 1.363 . S
C3506 N3504 1.356 . S
C3507 C3501 1.363 . S
C3507 C3502 1.379 . S
C3507 N3505 1.356 . S
N3508 C3500 1.356 . S
N3508 H3514 0.984 . S
N3508 H3515 0.984 . S
N3509 C3502 1.356 . S
N3509 H3512 0.984 . S
N3509 H3513 0.985 . S
H3510 N3505 0.984 . S
H3511 N3505 0.985 . S
H3512 N3509 0.984 . S
H3513 N3509 0.985 . S
H3514 N3508 0.984 . S
H3515 N3508 0.984 . S
H3516 N3504 0.984 . S
H3517 N3504 0.985 . S
C3518 C3519 1.363 . S
C3518 C3524 1.379 . S
C3518 N3526 1.356 . S
C3519 C3518 1.363 . S
C3519 C3525 1.363 . S
C3520 C3521 1.363 . S
C3520 C3525 1.379 . S
C3520 N3527 1.356 . S
C3521 C3520 1.363 . S
C3521 C3524 1.363 . S
N3522 C3524 1.356 . S
N3522 H3534 0.984 . S
N3522 H3535 0.985 . S
N3523 C3525 1.356 . S
N3523 H3528 0.984 . S
N3523 H3529 0.985 . S
C3524 C3518 1.379 . S
C3524 C3521 1.363 . S
C3524 N3522 1.356 . S
C3525 C3519 1.363 . S
C3525 C3520 1.379 . S
C3525 N3523 1.356 . S
N3526 C3518 1.356 . S
N3526 H3532 0.984 . S
N3526 H3533 0.984 . S
N3527 C3520 1.356 . S
N3527 H3530 0.984 . S
N3527 H3531 0.985 . S
H3528 N3523 0.984 . S
H3529 N3523 0.985 . S
H3530 N3527 0.984 . S
H3531 N3527 0.985 . S
H3532 N3526 0.984 . S
H3533 N3526 0.984 . S
H3534 N3522 0.984 . S
H3535 N3522 0.985 . S
C3536 C3537 1.363 . S
C3536 C3542 1.379 . S
C3536 N3544 1.356 . S
C3537 C3536 1.363 . S
C3537 C3543 1.363 . S
C3538 C3539 1.363 . S
C3538 C3543 1.379 . S
C3538 N3545 1.356 . S
C3539 C3538 1.363 . S
C3539 C3542 1.363 . S
N3540 C3542 1.356 . S
N3540 H3552 0.984 . S
N3540 H3553 0.985 . S
N3541 C3543 1.356 . S
N3541 H3546 0.984 . S
N3541 H3547 0.985 . S
C3542 C3536 1.379 . S
C3542 C3539 1.363 . S
C3542 N3540 1.356 . S
C3543 C3537 1.363 . S
C3543 C3538 1.379 . S
C3543 N3541 1.356 . S
N3544 C3536 1.356 . S
N3544 H3550 0.984 . S
N3544 H3551 0.984 . S
N3545 C3538 1.356 . S
N3545 H3548 0.984 . S
N3545 H3549 0.985 . S
H3546 N3541 0.984 . S
H3547 N3541 0.985 . S
H3548 N3545 0.984 . S
H3549 N3545 0.985 . S
H3550 N3544 0.984 . S
H3551 N3544 0.984 . S
H3552 N3540 0.984 . S
H3553 N3540 0.985 . S
C3554 C3555 1.363 . S
C3554 C3560 1.379 . S
C3554 N3562 1.356 . S
C3555 C3554 1.363 . S
C3555 C3561 1.363 . S
C3556 C3557 1.363 . S
C3556 C3561 1.379 . S
C3556 N3563 1.356 . S
C3557 C3556 1.363 . S
C3557 C3560 1.363 . S
N3558 C3560 1.356 . S
N3558 H3570 0.984 . S
N3558 H3571 0.985 . S
N3559 C3561 1.356 . S
N3559 H3564 0.984 . S
N3559 H3565 0.985 . S
C3560 C3554 1.379 . S
C3560 C3557 1.363 . S
C3560 N3558 1.356 . S
C3561 C3555 1.363 . S
C3561 C3556 1.379 . S
C3561 N3559 1.356 . S
N3562 C3554 1.356 . S
N3562 H3568 0.984 . S
N3562 H3569 0.984 . S
N3563 C3556 1.356 . S
N3563 H3566 0.984 . S
N3563 H3567 0.985 . S
H3564 N3559 0.984 . S
H3565 N3559 0.985 . S
H3566 N3563 0.984 . S
H3567 N3563 0.985 . S
H3568 N3562 0.984 . S
H3569 N3562 0.984 . S
H3570 N3558 0.984 . S
H3571 N3558 0.985 . S
C3572 C3573 1.363 . S
C3572 C3578 1.379 . S
C3572 N3580 1.356 . S
C3573 C3572 1.363 . S
C3573 C3579 1.363 . S
C3574 C3575 1.363 . S
C3574 C3579 1.379 . S
C3574 N3581 1.356 . S
C3575 C3574 1.363 . S
C3575 C3578 1.363 . S
N3576 C3578 1.356 . S
N3576 H3588 0.984 . S
N3576 H3589 0.985 . S
N3577 C3579 1.356 . S
N3577 H3582 0.984 . S
N3577 H3583 0.985 . S
C3578 C3572 1.379 . S
C3578 C3575 1.363 . S
C3578 N3576 1.356 . S
C3579 C3573 1.363 . S
C3579 C3574 1.379 . S
C3579 N3577 1.356 . S
N3580 C3572 1.356 . S
N3580 H3586 0.984 . S
N3580 H3587 0.984 . S
N3581 C3574 1.356 . S
N3581 H3584 0.984 . S
N3581 H3585 0.985 . S
H3582 N3577 0.984 . S
H3583 N3577 0.985 . S
H3584 N3581 0.984 . S
H3585 N3581 0.985 . S
H3586 N3580 0.984 . S
H3587 N3580 0.984 . S
H3588 N3576 0.984 . S
H3589 N3576 0.985 . S
C3590 C3591 1.363 . S
C3590 C3596 1.379 . S
C3590 N3598 1.356 . S
C3591 C3590 1.363 . S
C3591 C3597 1.363 . S
C3592 C3593 1.363 . S
C3592 C3597 1.379 . S
C3592 N3599 1.356 . S
C3593 C3592 1.363 . S
C3593 C3596 1.363 . S
N3594 C3596 1.356 . S
N3594 H3606 0.984 . S
N3594 H3607 0.985 . S
N3595 C3597 1.356 . S
N3595 H3600 0.984 . S
N3595 H3601 0.985 . S
C3596 C3590 1.379 . S
C3596 C3593 1.363 . S
C3596 N3594 1.356 . S
C3597 C3591 1.363 . S
C3597 C3592 1.379 . S
C3597 N3595 1.356 . S
N3598 C3590 1.356 . S
N3598 H3604 0.984 . S
N3598 H3605 0.984 . S
N3599 C3592 1.356 . S
N3599 H3602 0.984 . S
N3599 H3603 0.985 . S
H3600 N3595 0.984 . S
H3601 N3595 0.985 . S
H3602 N3599 0.984 . S
H3603 N3599 0.985 . S
H3604 N3598 0.984 . S
H3605 N3598 0.984 . S
H3606 N3594 0.984 . S
H3607 N3594 0.985 . S
C3608 C3609 1.363 . S
C3608 C3614 1.379 . S
C3608 N3616 1.356 . S
C3609 C3608 1.363 . S
C3609 C3615 1.363 . S
C3610 C3611 1.363 . S
C3610 C3615 1.379 . S
C3610 N3617 1.356 . S
C3611 C3610 1.363 . S
C3611 C3614 1.363 . S
N3612 C3614 1.356 . S
N3612 H3624 0.984 . S
N3612 H3625 0.985 . S
N3613 C3615 1.356 . S
N3613 H3618 0.984 . S
N3613 H3619 0.985 . S
C3614 C3608 1.379 . S
C3614 C3611 1.363 . S
C3614 N3612 1.356 . S
C3615 C3609 1.363 . S
C3615 C3610 1.379 . S
C3615 N3613 1.356 . S
N3616 C3608 1.356 . S
N3616 H3622 0.984 . S
N3616 H3623 0.984 . S
N3617 C3610 1.356 . S
N3617 H3620 0.984 . S
N3617 H3621 0.985 . S
H3618 N3613 0.984 . S
H3619 N3613 0.985 . S
H3620 N3617 0.984 . S
H3621 N3617 0.985 . S
H3622 N3616 0.984 . S
H3623 N3616 0.984 . S
H3624 N3612 0.984 . S
H3625 N3612 0.985 . S
C3626 C3627 1.363 . S
C3626 C3632 1.379 . S
C3626 N3634 1.356 . S
C3627 C3626 1.363 . S
C3627 C3633 1.363 . S
C3628 C3629 1.363 . S
C3628 C3633 1.379 . S
C3628 N3635 1.356 . S
C3629 C3628 1.363 . S
C3629 C3632 1.363 . S
N3630 C3632 1.356 . S
N3630 H3642 0.984 . S
N3630 H3643 0.985 . S
N3631 C3633 1.356 . S
N3631 H3636 0.984 . S
N3631 H3637 0.985 . S
C3632 C3626 1.379 . S
C3632 C3629 1.363 . S
C3632 N3630 1.356 . S
C3633 C3627 1.363 . S
C3633 C3628 1.379 . S
C3633 N3631 1.356 . S
N3634 C3626 1.356 . S
N3634 H3640 0.984 . S
N3634 H3641 0.984 . S
N3635 C3628 1.356 . S
N3635 H3638 0.984 . S
N3635 H3639 0.985 . S
H3636 N3631 0.984 . S
H3637 N3631 0.985 . S
H3638 N3635 0.984 . S
H3639 N3635 0.985 . S
H3640 N3634 0.984 . S
H3641 N3634 0.984 . S
H3642 N3630 0.984 . S
H3643 N3630 0.985 . S
C3644 C3645 1.363 . S
C3644 C3650 1.379 . S
C3644 N3652 1.356 . S
C3645 C3644 1.363 . S
C3645 C3651 1.363 . S
C3646 C3647 1.363 . S
C3646 C3651 1.379 . S
C3646 N3653 1.356 . S
C3647 C3646 1.363 . S
C3647 C3650 1.363 . S
N3648 C3650 1.356 . S
N3648 H3660 0.984 . S
N3648 H3661 0.985 . S
N3649 C3651 1.356 . S
N3649 H3654 0.984 . S
N3649 H3655 0.985 . S
C3650 C3644 1.379 . S
C3650 C3647 1.363 . S
C3650 N3648 1.356 . S
C3651 C3645 1.363 . S
C3651 C3646 1.379 . S
C3651 N3649 1.356 . S
N3652 C3644 1.356 . S
N3652 H3658 0.984 . S
N3652 H3659 0.984 . S
N3653 C3646 1.356 . S
N3653 H3656 0.984 . S
N3653 H3657 0.985 . S
H3654 N3649 0.984 . S
H3655 N3649 0.985 . S
H3656 N3653 0.984 . S
H3657 N3653 0.985 . S
H3658 N3652 0.984 . S
H3659 N3652 0.984 . S
H3660 N3648 0.984 . S
H3661 N3648 0.985 . S
C3662 C3663 1.363 . S
C3662 C3668 1.379 . S
C3662 N3670 1.356 . S
C3663 C3662 1.363 . S
C3663 C3669 1.363 . S
C3664 C3665 1.363 . S
C3664 C3669 1.379 . S
C3664 N3671 1.356 . S
C3665 C3664 1.363 . S
C3665 C3668 1.363 . S
N3666 C3668 1.356 . S
N3666 H3678 0.984 . S
N3666 H3679 0.985 . S
N3667 C3669 1.356 . S
N3667 H3672 0.984 . S
N3667 H3673 0.985 . S
C3668 C3662 1.379 . S
C3668 C3665 1.363 . S
C3668 N3666 1.356 . S
C3669 C3663 1.363 . S
C3669 C3664 1.379 . S
C3669 N3667 1.356 . S
N3670 C3662 1.356 . S
N3670 H3676 0.984 . S
N3670 H3677 0.984 . S
N3671 C3664 1.356 . S
N3671 H3674 0.984 . S
N3671 H3675 0.985 . S
H3672 N3667 0.984 . S
H3673 N3667 0.985 . S
H3674 N3671 0.984 . S
H3675 N3671 0.985 . S
H3676 N3670 0.984 . S
H3677 N3670 0.984 . S
H3678 N3666 0.984 . S
H3679 N3666 0.985 . S
C3680 C3681 1.363 . S
C3680 C3686 1.379 . S
C3680 N3688 1.362 . S
C3681 C3680 1.363 . S
C3681 C3687 1.363 . S
C3682 C3683 1.363 . S
C3682 C3687 1.379 . S
C3682 N3689 1.356 . S
C3683 C3682 1.363 . S
C3683 C3686 1.363 . S
N3684 C3686 1.362 . S
N3684 H3696 0.977 1_455 S
N3684 H3697 0.987 . S
N3685 C3687 1.356 . S
N3685 H3690 0.984 . S
N3685 H3691 0.985 . S
C3686 C3680 1.379 . S
C3686 C3683 1.363 . S
C3686 N3684 1.362 . S
C3687 C3681 1.363 . S
C3687 C3682 1.379 . S
C3687 N3685 1.356 . S
N3688 C3680 1.362 . S
N3688 H3694 0.977 1_455 S
N3688 H3695 0.987 . S
N3689 C3682 1.356 . S
N3689 H3692 0.984 . S
N3689 H3693 0.985 . S
H3690 N3685 0.984 . S
H3691 N3685 0.985 . S
H3692 N3689 0.984 . S
H3693 N3689 0.985 . S
H3694 N3688 0.977 1_655 S
H3695 N3688 0.987 . S
H3696 N3684 0.977 1_655 S
H3697 N3684 0.987 . S
C3698 C3699 1.363 . S
C3698 C3704 1.379 . S
C3698 N3706 1.356 . S
C3699 C3698 1.363 . S
C3699 C3705 1.363 . S
C3700 C3701 1.363 . S
C3700 C3705 1.379 . S
C3700 N3707 1.356 . S
C3701 C3700 1.363 . S
C3701 C3704 1.363 . S
N3702 C3704 1.356 . S
N3702 H3714 0.984 . S
N3702 H3715 0.985 . S
N3703 C3705 1.356 . S
N3703 H3708 0.984 . S
N3703 H3709 0.985 . S
C3704 C3698 1.379 . S
C3704 C3701 1.363 . S
C3704 N3702 1.356 . S
C3705 C3699 1.363 . S
C3705 C3700 1.379 . S
C3705 N3703 1.356 . S
N3706 C3698 1.356 . S
N3706 H3712 0.984 . S
N3706 H3713 0.984 . S
N3707 C3700 1.356 . S
N3707 H3710 0.984 . S
N3707 H3711 0.985 . S
H3708 N3703 0.984 . S
H3709 N3703 0.985 . S
H3710 N3707 0.984 . S
H3711 N3707 0.985 . S
H3712 N3706 0.984 . S
H3713 N3706 0.984 . S
H3714 N3702 0.984 . S
H3715 N3702 0.985 . S
C3716 C3717 1.363 . S
C3716 C3722 1.379 . S
C3716 N3724 1.356 . S
C3717 C3716 1.363 . S
C3717 C3723 1.363 . S
C3718 C3719 1.363 . S
C3718 C3723 1.379 . S
C3718 N3725 1.356 . S
C3719 C3718 1.363 . S
C3719 C3722 1.363 . S
N3720 C3722 1.356 . S
N3720 H3732 0.984 . S
N3720 H3733 0.985 . S
N3721 C3723 1.356 . S
N3721 H3726 0.984 . S
N3721 H3727 0.985 1_455 S
C3722 C3716 1.379 . S
C3722 C3719 1.363 . S
C3722 N3720 1.356 . S
C3723 C3717 1.363 . S
C3723 C3718 1.379 . S
C3723 N3721 1.356 . S
N3724 C3716 1.356 . S
N3724 H3730 0.984 . S
N3724 H3731 0.984 . S
N3725 C3718 1.356 . S
N3725 H3728 0.984 . S
N3725 H3729 0.985 1_455 S
H3726 N3721 0.984 . S
H3727 N3721 0.985 1_655 S
H3728 N3725 0.984 . S
H3729 N3725 0.985 1_655 S
H3730 N3724 0.984 . S
H3731 N3724 0.984 . S
H3732 N3720 0.984 . S
H3733 N3720 0.985 . S
C3734 C3735 1.363 . S
C3734 C3740 1.379 . S
C3734 N3742 1.356 . S
C3735 C3734 1.363 . S
C3735 C3741 1.363 . S
C3736 C3737 1.363 . S
C3736 C3741 1.379 . S
C3736 N3743 1.356 . S
C3737 C3736 1.363 . S
C3737 C3740 1.363 . S
N3738 C3740 1.356 . S
N3738 H3750 0.984 . S
N3738 H3751 0.985 . S
N3739 C3741 1.356 . S
N3739 H3744 0.984 . S
N3739 H3745 0.985 . S
C3740 C3734 1.379 . S
C3740 C3737 1.363 . S
C3740 N3738 1.356 . S
C3741 C3735 1.363 . S
C3741 C3736 1.379 . S
C3741 N3739 1.356 . S
N3742 C3734 1.356 . S
N3742 H3748 0.984 . S
N3742 H3749 0.984 . S
N3743 C3736 1.356 . S
N3743 H3746 0.984 . S
N3743 H3747 0.985 . S
H3744 N3739 0.984 . S
H3745 N3739 0.985 . S
H3746 N3743 0.984 . S
H3747 N3743 0.985 . S
H3748 N3742 0.984 . S
H3749 N3742 0.984 . S
H3750 N3738 0.984 . S
H3751 N3738 0.985 . S
C3752 C3753 1.363 . S
C3752 C3758 1.379 . S
C3752 N3760 1.356 . S
C3753 C3752 1.363 . S
C3753 C3759 1.363 . S
C3754 C3755 1.363 . S
C3754 C3759 1.379 . S
C3754 N3761 1.356 . S
C3755 C3754 1.363 . S
C3755 C3758 1.363 . S
N3756 C3758 1.356 . S
N3756 H3768 0.984 . S
N3756 H3769 0.985 . S
N3757 C3759 1.356 . S
N3757 H3762 0.984 . S
N3757 H3763 0.985 . S
C3758 C3752 1.379 . S
C3758 C3755 1.363 . S
C3758 N3756 1.356 . S
C3759 C3753 1.363 . S
C3759 C3754 1.379 . S
C3759 N3757 1.356 . S
N3760 C3752 1.356 . S
N3760 H3766 0.984 . S
N3760 H3767 0.984 . S
N3761 C3754 1.356 . S
N3761 H3764 0.984 . S
N3761 H3765 0.985 . S
H3762 N3757 0.984 . S
H3763 N3757 0.985 . S
H3764 N3761 0.984 . S
H3765 N3761 0.985 . S
H3766 N3760 0.984 . S
H3767 N3760 0.984 . S
H3768 N3756 0.984 . S
H3769 N3756 0.985 . S
C3770 C3771 1.363 . S
C3770 C3776 1.379 . S
C3770 N3778 1.356 . S
C3771 C3770 1.363 . S
C3771 C3777 1.363 . S
C3772 C3773 1.363 . S
C3772 C3777 1.379 . S
C3772 N3779 1.356 . S
C3773 C3772 1.363 . S
C3773 C3776 1.363 . S
N3774 C3776 1.356 . S
N3774 H3786 0.984 . S
N3774 H3787 0.985 . S
N3775 C3777 1.356 . S
N3775 H3780 0.984 . S
N3775 H3781 0.985 . S
C3776 C3770 1.379 . S
C3776 C3773 1.363 . S
C3776 N3774 1.356 . S
C3777 C3771 1.363 . S
C3777 C3772 1.379 . S
C3777 N3775 1.356 . S
N3778 C3770 1.356 . S
N3778 H3784 0.984 . S
N3778 H3785 0.984 . S
N3779 C3772 1.356 . S
N3779 H3782 0.984 . S
N3779 H3783 0.985 . S
H3780 N3775 0.984 . S
H3781 N3775 0.985 . S
H3782 N3779 0.984 . S
H3783 N3779 0.985 . S
H3784 N3778 0.984 . S
H3785 N3778 0.984 . S
H3786 N3774 0.984 . S
H3787 N3774 0.985 . S
C3788 C3789 1.363 . S
C3788 C3794 1.379 . S
C3788 N3796 1.356 . S
C3789 C3788 1.363 . S
C3789 C3795 1.363 . S
C3790 C3791 1.363 . S
C3790 C3795 1.379 . S
C3790 N3797 1.356 . S
C3791 C3790 1.363 . S
C3791 C3794 1.363 . S
N3792 C3794 1.356 . S
N3792 H3804 0.984 . S
N3792 H3805 0.985 . S
N3793 C3795 1.356 . S
N3793 H3798 0.984 . S
N3793 H3799 0.985 1_655 S
C3794 C3788 1.379 . S
C3794 C3791 1.363 . S
C3794 N3792 1.356 . S
C3795 C3789 1.363 . S
C3795 C3790 1.379 . S
C3795 N3793 1.356 . S
N3796 C3788 1.356 . S
N3796 H3802 0.984 . S
N3796 H3803 0.984 . S
N3797 C3790 1.356 . S
N3797 H3800 0.984 . S
N3797 H3801 0.985 1_655 S
H3798 N3793 0.984 . S
H3799 N3793 0.985 1_455 S
H3800 N3797 0.984 . S
H3801 N3797 0.985 1_455 S
H3802 N3796 0.984 . S
H3803 N3796 0.984 . S
H3804 N3792 0.984 . S
H3805 N3792 0.985 . S
C3806 C3807 1.363 . S
C3806 C3812 1.379 . S
C3806 N3814 1.356 . S
C3807 C3806 1.363 . S
C3807 C3813 1.363 . S
C3808 C3809 1.363 . S
C3808 C3813 1.379 . S
C3808 N3815 1.356 . S
C3809 C3808 1.363 . S
C3809 C3812 1.363 . S
N3810 C3812 1.356 . S
N3810 H3822 0.984 . S
N3810 H3823 0.985 . S
N3811 C3813 1.356 . S
N3811 H3816 0.984 . S
N3811 H3817 0.985 . S
C3812 C3806 1.379 . S
C3812 C3809 1.363 . S
C3812 N3810 1.356 . S
C3813 C3807 1.363 . S
C3813 C3808 1.379 . S
C3813 N3811 1.356 . S
N3814 C3806 1.356 . S
N3814 H3820 0.984 . S
N3814 H3821 0.984 . S
N3815 C3808 1.356 . S
N3815 H3818 0.984 . S
N3815 H3819 0.985 . S
H3816 N3811 0.984 . S
H3817 N3811 0.985 . S
H3818 N3815 0.984 . S
H3819 N3815 0.985 . S
H3820 N3814 0.984 . S
H3821 N3814 0.984 . S
H3822 N3810 0.984 . S
H3823 N3810 0.985 . S
C3824 C3825 1.363 . S
C3824 C3830 1.379 . S
C3824 N3832 1.356 . S
C3825 C3824 1.363 . S
C3825 C3831 1.363 . S
C3826 C3827 1.363 . S
C3826 C3831 1.379 . S
C3826 N3833 1.356 . S
C3827 C3826 1.363 . S
C3827 C3830 1.363 . S
N3828 C3830 1.356 . S
N3828 H3840 0.984 . S
N3828 H3841 0.985 . S
N3829 C3831 1.356 . S
N3829 H3834 0.984 . S
N3829 H3835 0.985 . S
C3830 C3824 1.379 . S
C3830 C3827 1.363 . S
C3830 N3828 1.356 . S
C3831 C3825 1.363 . S
C3831 C3826 1.379 . S
C3831 N3829 1.356 . S
N3832 C3824 1.356 . S
N3832 H3838 0.984 . S
N3832 H3839 0.984 . S
N3833 C3826 1.356 . S
N3833 H3836 0.984 . S
N3833 H3837 0.985 . S
H3834 N3829 0.984 . S
H3835 N3829 0.985 . S
H3836 N3833 0.984 . S
H3837 N3833 0.985 . S
H3838 N3832 0.984 . S
H3839 N3832 0.984 . S
H3840 N3828 0.984 . S
H3841 N3828 0.985 . S
C3842 C3843 1.363 . S
C3842 C3848 1.379 . S
C3842 N3850 1.356 . S
C3843 C3842 1.363 . S
C3843 C3849 1.363 . S
C3844 C3845 1.363 . S
C3844 C3849 1.379 . S
C3844 N3851 1.356 . S
C3845 C3844 1.363 . S
C3845 C3848 1.363 . S
N3846 C3848 1.356 . S
N3846 H3858 0.984 . S
N3846 H3859 0.985 . S
N3847 C3849 1.356 . S
N3847 H3852 0.984 . S
N3847 H3853 0.985 . S
C3848 C3842 1.379 . S
C3848 C3845 1.363 . S
C3848 N3846 1.356 . S
C3849 C3843 1.363 . S
C3849 C3844 1.379 . S
C3849 N3847 1.356 . S
N3850 C3842 1.356 . S
N3850 H3856 0.984 . S
N3850 H3857 0.984 . S
N3851 C3844 1.356 . S
N3851 H3854 0.984 . S
N3851 H3855 0.985 . S
H3852 N3847 0.984 . S
H3853 N3847 0.985 . S
H3854 N3851 0.984 . S
H3855 N3851 0.985 . S
H3856 N3850 0.984 . S
H3857 N3850 0.984 . S
H3858 N3846 0.984 . S
H3859 N3846 0.985 . S
C3860 C3861 1.363 . S
C3860 C3866 1.379 . S
C3860 N3868 1.356 . S
C3861 C3860 1.363 . S
C3861 C3867 1.363 . S
C3862 C3863 1.363 . S
C3862 C3867 1.379 . S
C3862 N3869 1.356 . S
C3863 C3862 1.363 . S
C3863 C3866 1.363 . S
N3864 C3866 1.356 . S
N3864 H3876 0.984 . S
N3864 H3877 0.985 . S
N3865 C3867 1.356 . S
N3865 H3870 0.984 . S
N3865 H3871 0.985 . S
C3866 C3860 1.379 . S
C3866 C3863 1.363 . S
C3866 N3864 1.356 . S
C3867 C3861 1.363 . S
C3867 C3862 1.379 . S
C3867 N3865 1.356 . S
N3868 C3860 1.356 . S
N3868 H3874 0.984 . S
N3868 H3875 0.984 . S
N3869 C3862 1.356 . S
N3869 H3872 0.984 . S
N3869 H3873 0.985 . S
H3870 N3865 0.984 . S
H3871 N3865 0.985 . S
H3872 N3869 0.984 . S
H3873 N3869 0.985 . S
H3874 N3868 0.984 . S
H3875 N3868 0.984 . S
H3876 N3864 0.984 . S
H3877 N3864 0.985 . S
C3878 C3879 1.363 . S
C3878 C3884 1.379 . S
C3878 N3886 1.356 . S
C3879 C3878 1.363 . S
C3879 C3885 1.363 . S
C3880 C3881 1.363 . S
C3880 C3885 1.379 . S
C3880 N3887 1.356 . S
C3881 C3880 1.363 . S
C3881 C3884 1.363 . S
N3882 C3884 1.356 . S
N3882 H3894 0.984 . S
N3882 H3895 0.985 . S
N3883 C3885 1.356 . S
N3883 H3888 0.984 . S
N3883 H3889 0.985 . S
C3884 C3878 1.379 . S
C3884 C3881 1.363 . S
C3884 N3882 1.356 . S
C3885 C3879 1.363 . S
C3885 C3880 1.379 . S
C3885 N3883 1.356 . S
N3886 C3878 1.356 . S
N3886 H3892 0.984 . S
N3886 H3893 0.984 . S
N3887 C3880 1.356 . S
N3887 H3890 0.984 . S
N3887 H3891 0.985 . S
H3888 N3883 0.984 . S
H3889 N3883 0.985 . S
H3890 N3887 0.984 . S
H3891 N3887 0.985 . S
H3892 N3886 0.984 . S
H3893 N3886 0.984 . S
H3894 N3882 0.984 . S
H3895 N3882 0.985 . S
C3896 C3897 1.363 . S
C3896 C3902 1.379 . S
C3896 N3904 1.356 . S
C3897 C3896 1.363 . S
C3897 C3903 1.363 . S
C3898 C3899 1.363 . S
C3898 C3903 1.379 . S
C3898 N3905 1.356 . S
C3899 C3898 1.363 . S
C3899 C3902 1.363 . S
N3900 C3902 1.356 . S
N3900 H3912 0.984 . S
N3900 H3913 0.985 . S
N3901 C3903 1.356 . S
N3901 H3906 0.984 . S
N3901 H3907 0.985 . S
C3902 C3896 1.379 . S
C3902 C3899 1.363 . S
C3902 N3900 1.356 . S
C3903 C3897 1.363 . S
C3903 C3898 1.379 . S
C3903 N3901 1.356 . S
N3904 C3896 1.356 . S
N3904 H3910 0.984 . S
N3904 H3911 0.984 . S
N3905 C3898 1.356 . S
N3905 H3908 0.984 . S
N3905 H3909 0.985 . S
H3906 N3901 0.984 . S
H3907 N3901 0.985 . S
H3908 N3905 0.984 . S
H3909 N3905 0.985 . S
H3910 N3904 0.984 . S
H3911 N3904 0.984 . S
H3912 N3900 0.984 . S
H3913 N3900 0.985 . S
C3914 C3915 1.363 . S
C3914 C3920 1.379 . S
C3914 N3922 1.356 . S
C3915 C3914 1.363 . S
C3915 C3921 1.363 . S
C3916 C3917 1.363 . S
C3916 C3921 1.379 . S
C3916 N3923 1.356 . S
C3917 C3916 1.363 . S
C3917 C3920 1.363 . S
N3918 C3920 1.356 . S
N3918 H3930 0.984 . S
N3918 H3931 0.985 . S
N3919 C3921 1.356 . S
N3919 H3924 0.984 . S
N3919 H3925 0.985 . S
C3920 C3914 1.379 . S
C3920 C3917 1.363 . S
C3920 N3918 1.356 . S
C3921 C3915 1.363 . S
C3921 C3916 1.379 . S
C3921 N3919 1.356 . S
N3922 C3914 1.356 . S
N3922 H3928 0.984 . S
N3922 H3929 0.984 . S
N3923 C3916 1.356 . S
N3923 H3926 0.984 . S
N3923 H3927 0.985 . S
H3924 N3919 0.984 . S
H3925 N3919 0.985 . S
H3926 N3923 0.984 . S
H3927 N3923 0.985 . S
H3928 N3922 0.984 . S
H3929 N3922 0.984 . S
H3930 N3918 0.984 . S
H3931 N3918 0.985 . S
C3932 C3933 1.363 . S
C3932 C3938 1.379 . S
C3932 N3940 1.356 . S
C3933 C3932 1.363 . S
C3933 C3939 1.363 . S
C3934 C3935 1.363 . S
C3934 C3939 1.379 . S
C3934 N3941 1.356 . S
C3935 C3934 1.363 . S
C3935 C3938 1.363 . S
N3936 C3938 1.356 . S
N3936 H3948 0.984 . S
N3936 H3949 0.985 . S
N3937 C3939 1.356 . S
N3937 H3942 0.984 . S
N3937 H3943 0.985 . S
C3938 C3932 1.379 . S
C3938 C3935 1.363 . S
C3938 N3936 1.356 . S
C3939 C3933 1.363 . S
C3939 C3934 1.379 . S
C3939 N3937 1.356 . S
N3940 C3932 1.356 . S
N3940 H3946 0.984 . S
N3940 H3947 0.984 . S
N3941 C3934 1.356 . S
N3941 H3944 0.984 . S
N3941 H3945 0.985 . S
H3942 N3937 0.984 . S
H3943 N3937 0.985 . S
H3944 N3941 0.984 . S
H3945 N3941 0.985 . S
H3946 N3940 0.984 . S
H3947 N3940 0.984 . S
H3948 N3936 0.984 . S
H3949 N3936 0.985 . S
C3950 C3951 1.363 . S
C3950 C3956 1.379 . S
C3950 N3958 1.356 . S
C3951 C3950 1.363 . S
C3951 C3957 1.363 . S
C3952 C3953 1.363 . S
C3952 C3957 1.379 . S
C3952 N3959 1.356 . S
C3953 C3952 1.363 . S
C3953 C3956 1.363 . S
N3954 C3956 1.356 . S
N3954 H3966 0.984 . S
N3954 H3967 0.985 . S
N3955 C3957 1.356 . S
N3955 H3960 0.984 . S
N3955 H3961 0.985 . S
C3956 C3950 1.379 . S
C3956 C3953 1.363 . S
C3956 N3954 1.356 . S
C3957 C3951 1.363 . S
C3957 C3952 1.379 . S
C3957 N3955 1.356 . S
N3958 C3950 1.356 . S
N3958 H3964 0.984 . S
N3958 H3965 0.984 . S
N3959 C3952 1.356 . S
N3959 H3962 0.984 . S
N3959 H3963 0.985 . S
H3960 N3955 0.984 . S
H3961 N3955 0.985 . S
H3962 N3959 0.984 . S
H3963 N3959 0.985 . S
H3964 N3958 0.984 . S
H3965 N3958 0.984 . S
H3966 N3954 0.984 . S
H3967 N3954 0.985 . S
C2817 C49 1.559 . S
C2819 C108 1.559 . S
C2835 C321 1.559 . S
C2837 C196 1.558 . S
C2853 C409 1.558 . S
C2855 C460 1.558 . S
C2871 C548 1.558 . S
C2873 C665 1.558 . S
C2889 C753 1.559 . S
C2891 C812 1.559 . S
C2907 C909 1.558 . S
C2909 C1017 1.559 . S
C2925 C1105 1.558 . S
C2927 C1164 1.558 . S
C2943 C1252 1.558 . S
C2945 C1369 1.558 . S
C2961 C1516 1.558 . S
C2963 C1457 1.558 . S
C2979 C1721 1.558 . S
C2981 C1613 1.558 . S
C2997 C1868 1.558 . S
C2999 C1817 1.558 . S
C3015 C2073 1.558 . S
C3017 C1956 1.558 . S
C3033 C2220 1.558 . S
C3035 C2169 1.558 . S
C3051 C2433 1.558 . S
C3053 C2317 1.558 . S
C3069 C2572 1.558 . S
C3071 C2513 1.558 . S
C3087 C2777 1.558 . S
C3089 C2660 1.558 . S
C3105 C20 1.763 . S
C3107 C1076 1.775 . S
C3123 C137 1.752 . S
C3125 C1897 1.763 . S
C3141 C225 1.763 . S
C3143 C577 1.775 . S
C3159 C293 1.752 . S
C3161 C2748 1.763 . S
C3177 C381 1.775 . S
C3179 C724 1.763 . S
C3195 C1545 1.752 . S
C3197 C489 1.763 . S
C3213 C2405 1.752 . S
C3215 C636 1.763 . S
C3231 C841 1.752 . S
C3233 C2601 1.763 . S
C3249 C937 1.763 . S
C3251 C1281 1.775 . S
C3267 C988 1.752 . S
C3269 C2044 1.763 . S
C3285 C1193 1.763 . S
C3287 C2249 1.752 . S
C3303 C1340 1.763 . S
C3305 C1692 1.752 . S
C3321 C2484 1.763 . S
C3323 C1428 1.752 . S
C3339 C1985 1.763 . S
C3341 C1641 1.752 . S
C3357 C1789 1.763 . S
C3359 C2141 1.752 . S
C3375 C2689 1.763 . S
C3377 C2345 1.752 . S
C3393 C929 0.843 . S
C3395 C29 0.843 . S
C3411 C997 0.843 . S
C3413 C145 0.843 . S
C3429 C233 0.843 . S
C3431 C733 0.843 . S
C3447 C849 0.843 . S
C3449 C284 0.843 . S
C3465 C401 0.837 . S
C3467 C1261 0.837 . S
C3483 C469 0.837 . S
C3485 C1377 0.837 . S
C3501 C1113 0.837 . S
C3503 C557 0.837 . S
C3519 C1173 0.837 . S
C3521 C673 0.837 . S
C3537 C1437 0.843 . S
C3539 C2337 0.843 . S
C3555 C2396 0.843 . S
C3557 C1553 0.843 . S
C3573 C2132 0.843 . S
C3575 C1633 0.843 . S
C3591 C1701 0.843 . S
C3593 C2257 0.843 . S
C3609 C2669 0.837 . S
C3611 C1809 0.837 . S
C3627 C1877 0.838 . S
C3629 C2785 0.837 . S
C3645 C2521 0.837 . S
C3647 C1965 0.837 . S
C3663 C2581 0.838 . S
C3665 C2081 0.837 . S
C3681 C900 1.756 . S
C3683 C57 1.756 . S
C3699 C1025 1.756 . S
C3701 C117 1.756 . S
C3717 C761 1.756 . S
C3719 C205 1.756 . S
C3735 C313 1.756 . S
C3737 C821 1.756 . S
C3753 C1289 1.760 . S
C3755 C372 1.760 . S
C3771 C1349 1.760 . S
C3773 C497 1.760 . S
C3789 C1085 1.760 . S
C3791 C585 1.760 . S
C3807 C1201 1.760 . S
C3809 C645 1.760 . S
C3825 C2308 1.756 . S
C3827 C1465 1.756 . S
C3843 C2425 1.756 . S
C3845 C1525 1.756 . S
C3861 C2161 1.756 . S
C3863 C1604 1.756 . S
C3879 C1729 1.756 . S
C3881 C2229 1.756 . S
C3897 C2697 1.760 . S
C3899 C1780 1.760 . S
C3915 C1905 1.760 . S
C3917 C2757 1.760 . S
C3933 C2493 1.760 . S
C3935 C1993 1.760 . S
C3951 C2053 1.760 . S
C3953 C2609 1.760 . S
