# Generated by pormake.
# Topology uka, (4)-cn, num edge types: 1
# Building blocks:
#     Node 0, Type 0, BuildingBlock: TATPOV_clean_sbu_0, # of connection points: 4
#     Node 1, Type 0, BuildingBlock: TATPOV_clean_sbu_0, # of connection points: 4
#     Node 2, Type 0, BuildingBlock: TATPOV_clean_sbu_0, # of connection points: 4
#     Node 3, Type 0, BuildingBlock: TATPOV_clean_sbu_0, # of connection points: 4
#     Node 4, Type 0, BuildingBlock: TATPOV_clean_sbu_0, # of connection points: 4
#     Node 5, Type 0, BuildingBlock: TATPOV_clean_sbu_0, # of connection points: 4
#     Node 6, Type 0, BuildingBlock: TATPOV_clean_sbu_0, # of connection points: 4
#     Node 7, Type 0, BuildingBlock: TATPOV_clean_sbu_0, # of connection points: 4
#     Node 8, Type 0, BuildingBlock: TATPOV_clean_sbu_0, # of connection points: 4
#     Node 9, Type 0, BuildingBlock: TATPOV_clean_sbu_0, # of connection points: 4
#     Node 10, Type 0, BuildingBlock: TATPOV_clean_sbu_0, # of connection points: 4
#     Node 11, Type 0, BuildingBlock: TATPOV_clean_sbu_0, # of connection points: 4
#     Node 12, Type 0, BuildingBlock: TATPOV_clean_sbu_0, # of connection points: 4
#     Node 13, Type 0, BuildingBlock: TATPOV_clean_sbu_0, # of connection points: 4
#     Node 14, Type 0, BuildingBlock: TATPOV_clean_sbu_0, # of connection points: 4
#     Node 15, Type 0, BuildingBlock: TATPOV_clean_sbu_0, # of connection points: 4
#     Node 16, Type 0, BuildingBlock: TATPOV_clean_sbu_0, # of connection points: 4
#     Node 17, Type 0, BuildingBlock: TATPOV_clean_sbu_0, # of connection points: 4
#     Node 18, Type 0, BuildingBlock: TATPOV_clean_sbu_0, # of connection points: 4
#     Node 19, Type 0, BuildingBlock: TATPOV_clean_sbu_0, # of connection points: 4
#     Node 20, Type 0, BuildingBlock: TATPOV_clean_sbu_0, # of connection points: 4
#     Node 21, Type 0, BuildingBlock: TATPOV_clean_sbu_0, # of connection points: 4
#     Node 22, Type 0, BuildingBlock: TATPOV_clean_sbu_0, # of connection points: 4
#     Node 23, Type 0, BuildingBlock: TATPOV_clean_sbu_0, # of connection points: 4
#     Node 24, Type 0, BuildingBlock: TATPOV_clean_sbu_0, # of connection points: 4
#     Node 25, Type 0, BuildingBlock: TATPOV_clean_sbu_0, # of connection points: 4
#     Node 26, Type 0, BuildingBlock: TATPOV_clean_sbu_0, # of connection points: 4
#     Node 27, Type 0, BuildingBlock: TATPOV_clean_sbu_0, # of connection points: 4
#     Node 28, Type 0, BuildingBlock: TATPOV_clean_sbu_0, # of connection points: 4
#     Node 29, Type 0, BuildingBlock: TATPOV_clean_sbu_0, # of connection points: 4
#     Node 30, Type 0, BuildingBlock: TATPOV_clean_sbu_0, # of connection points: 4
#     Node 31, Type 0, BuildingBlock: TATPOV_clean_sbu_0, # of connection points: 4
#     Edge 32, Type (0, 0), BuildingBlock: XIVTED_clean_linker_0, # of connection points: 2
#     Edge 33, Type (0, 0), BuildingBlock: XIVTED_clean_linker_0, # of connection points: 2
#     Edge 34, Type (0, 0), BuildingBlock: XIVTED_clean_linker_0, # of connection points: 2
#     Edge 35, Type (0, 0), BuildingBlock: XIVTED_clean_linker_0, # of connection points: 2
#     Edge 36, Type (0, 0), BuildingBlock: XIVTED_clean_linker_0, # of connection points: 2
#     Edge 37, Type (0, 0), BuildingBlock: XIVTED_clean_linker_0, # of connection points: 2
#     Edge 38, Type (0, 0), BuildingBlock: XIVTED_clean_linker_0, # of connection points: 2
#     Edge 39, Type (0, 0), BuildingBlock: XIVTED_clean_linker_0, # of connection points: 2
#     Edge 40, Type (0, 0), BuildingBlock: XIVTED_clean_linker_0, # of connection points: 2
#     Edge 41, Type (0, 0), BuildingBlock: XIVTED_clean_linker_0, # of connection points: 2
#     Edge 42, Type (0, 0), BuildingBlock: XIVTED_clean_linker_0, # of connection points: 2
#     Edge 43, Type (0, 0), BuildingBlock: XIVTED_clean_linker_0, # of connection points: 2
#     Edge 44, Type (0, 0), BuildingBlock: XIVTED_clean_linker_0, # of connection points: 2
#     Edge 45, Type (0, 0), BuildingBlock: XIVTED_clean_linker_0, # of connection points: 2
#     Edge 46, Type (0, 0), BuildingBlock: XIVTED_clean_linker_0, # of connection points: 2
#     Edge 47, Type (0, 0), BuildingBlock: XIVTED_clean_linker_0, # of connection points: 2
#     Edge 48, Type (0, 0), BuildingBlock: XIVTED_clean_linker_0, # of connection points: 2
#     Edge 49, Type (0, 0), BuildingBlock: XIVTED_clean_linker_0, # of connection points: 2
#     Edge 50, Type (0, 0), BuildingBlock: XIVTED_clean_linker_0, # of connection points: 2
#     Edge 51, Type (0, 0), BuildingBlock: XIVTED_clean_linker_0, # of connection points: 2
#     Edge 52, Type (0, 0), BuildingBlock: XIVTED_clean_linker_0, # of connection points: 2
#     Edge 53, Type (0, 0), BuildingBlock: XIVTED_clean_linker_0, # of connection points: 2
#     Edge 54, Type (0, 0), BuildingBlock: XIVTED_clean_linker_0, # of connection points: 2
#     Edge 55, Type (0, 0), BuildingBlock: XIVTED_clean_linker_0, # of connection points: 2
#     Edge 56, Type (0, 0), BuildingBlock: XIVTED_clean_linker_0, # of connection points: 2
#     Edge 57, Type (0, 0), BuildingBlock: XIVTED_clean_linker_0, # of connection points: 2
#     Edge 58, Type (0, 0), BuildingBlock: XIVTED_clean_linker_0, # of connection points: 2
#     Edge 59, Type (0, 0), BuildingBlock: XIVTED_clean_linker_0, # of connection points: 2
#     Edge 60, Type (0, 0), BuildingBlock: XIVTED_clean_linker_0, # of connection points: 2
#     Edge 61, Type (0, 0), BuildingBlock: XIVTED_clean_linker_0, # of connection points: 2
#     Edge 62, Type (0, 0), BuildingBlock: XIVTED_clean_linker_0, # of connection points: 2
#     Edge 63, Type (0, 0), BuildingBlock: XIVTED_clean_linker_0, # of connection points: 2
#     Edge 64, Type (0, 0), BuildingBlock: XIVTED_clean_linker_0, # of connection points: 2
#     Edge 65, Type (0, 0), BuildingBlock: XIVTED_clean_linker_0, # of connection points: 2
#     Edge 66, Type (0, 0), BuildingBlock: XIVTED_clean_linker_0, # of connection points: 2
#     Edge 67, Type (0, 0), BuildingBlock: XIVTED_clean_linker_0, # of connection points: 2
#     Edge 68, Type (0, 0), BuildingBlock: XIVTED_clean_linker_0, # of connection points: 2
#     Edge 69, Type (0, 0), BuildingBlock: XIVTED_clean_linker_0, # of connection points: 2
#     Edge 70, Type (0, 0), BuildingBlock: XIVTED_clean_linker_0, # of connection points: 2
#     Edge 71, Type (0, 0), BuildingBlock: XIVTED_clean_linker_0, # of connection points: 2
#     Edge 72, Type (0, 0), BuildingBlock: XIVTED_clean_linker_0, # of connection points: 2
#     Edge 73, Type (0, 0), BuildingBlock: XIVTED_clean_linker_0, # of connection points: 2
#     Edge 74, Type (0, 0), BuildingBlock: XIVTED_clean_linker_0, # of connection points: 2
#     Edge 75, Type (0, 0), BuildingBlock: XIVTED_clean_linker_0, # of connection points: 2
#     Edge 76, Type (0, 0), BuildingBlock: XIVTED_clean_linker_0, # of connection points: 2
#     Edge 77, Type (0, 0), BuildingBlock: XIVTED_clean_linker_0, # of connection points: 2
#     Edge 78, Type (0, 0), BuildingBlock: XIVTED_clean_linker_0, # of connection points: 2
#     Edge 79, Type (0, 0), BuildingBlock: XIVTED_clean_linker_0, # of connection points: 2
#     Edge 80, Type (0, 0), BuildingBlock: XIVTED_clean_linker_0, # of connection points: 2
#     Edge 81, Type (0, 0), BuildingBlock: XIVTED_clean_linker_0, # of connection points: 2
#     Edge 82, Type (0, 0), BuildingBlock: XIVTED_clean_linker_0, # of connection points: 2
#     Edge 83, Type (0, 0), BuildingBlock: XIVTED_clean_linker_0, # of connection points: 2
#     Edge 84, Type (0, 0), BuildingBlock: XIVTED_clean_linker_0, # of connection points: 2
#     Edge 85, Type (0, 0), BuildingBlock: XIVTED_clean_linker_0, # of connection points: 2
#     Edge 86, Type (0, 0), BuildingBlock: XIVTED_clean_linker_0, # of connection points: 2
#     Edge 87, Type (0, 0), BuildingBlock: XIVTED_clean_linker_0, # of connection points: 2
#     Edge 88, Type (0, 0), BuildingBlock: XIVTED_clean_linker_0, # of connection points: 2
#     Edge 89, Type (0, 0), BuildingBlock: XIVTED_clean_linker_0, # of connection points: 2
#     Edge 90, Type (0, 0), BuildingBlock: XIVTED_clean_linker_0, # of connection points: 2
#     Edge 91, Type (0, 0), BuildingBlock: XIVTED_clean_linker_0, # of connection points: 2
#     Edge 92, Type (0, 0), BuildingBlock: XIVTED_clean_linker_0, # of connection points: 2
#     Edge 93, Type (0, 0), BuildingBlock: XIVTED_clean_linker_0, # of connection points: 2
#     Edge 94, Type (0, 0), BuildingBlock: XIVTED_clean_linker_0, # of connection points: 2
#     Edge 95, Type (0, 0), BuildingBlock: XIVTED_clean_linker_0, # of connection points: 2
# Relax obj value: 0.182
# Max RMSD: 0.208
# Mean RMSD: 0.208
data_MOF--net-uka--node1-TATPOV_clean_sbu_0--edge1-XIVTED_clean_linker_0
_symmetry_space_group_name_H-M    P1
_symmetry_Int_Tables_number       1
_symmetry_cell_setting            triclinic
loop_
_symmetry_equiv_pos_as_xyz
'x, y, z'
_cell_length_a     58.635054
_cell_length_b     58.733584
_cell_length_c     43.457863
_cell_angle_alpha  90.008893
_cell_angle_beta   90.062644
_cell_angle_gamma 90.600608
loop_
_atom_site_label
_atom_site_type_symbol
_atom_site_fract_x
_atom_site_fract_y
_atom_site_fract_z
_atom_type_partial_charge
Zn0 Zn 0.09473 0.31531 0.30106 0.0
Zn1 Zn 0.13474 0.29581 0.29482 0.0
O2 O 0.11429 0.26836 0.3077 0.0
O3 O 0.08082 0.28479 0.31156 0.0
O4 O 0.16521 0.28205 0.2848 0.0
O5 O 0.09345 0.32716 0.25857 0.0
O6 O 0.12708 0.3114 0.25309 0.0
C7 C 0.09295 0.26711 0.31326 0.0
C8 C 0.12876 0.33313 0.3426 0.0
O9 O 0.14135 0.3178 0.331 0.0
O10 O 0.10847 0.33552 0.33328 0.0
C11 C 0.18021 0.27626 0.30434 0.0
O12 O 0.17598 0.27865 0.33384 0.0
C13 C 0.1107 0.32307 0.24218 0.0
Zn14 Zn 0.03389 0.81784 0.48086 0.0
Zn15 Zn 0.01706 0.85856 0.49721 0.0
O16 O 0.05201 0.86087 0.49681 0.0
O17 O 0.06651 0.82945 0.4782 0.0
O18 O 0.00799 0.89147 0.50166 0.0
O19 O 0.01236 0.81581 0.4444 0.0
O20 O 0.99973 0.84941 0.45827 0.0
C21 C 0.06933 0.84932 0.48894 0.0
C22 C 0.00981 0.81982 0.54083 0.0
O23 O 0.00519 0.84044 0.53432 0.0
O24 O 0.02188 0.80799 0.52275 0.0
C25 C 0.01964 0.90617 0.51656 0.0
O26 O 0.03712 0.89947 0.53305 0.0
C27 C 0.99891 0.83228 0.44037 0.0
Zn28 Zn 0.42038 0.7364 0.71739 0.0
Zn29 Zn 0.37582 0.73889 0.72549 0.0
O30 O 0.38721 0.77151 0.7365 0.0
O31 O 0.42435 0.76892 0.73022 0.0
O32 O 0.34164 0.74131 0.72666 0.0
O33 O 0.41766 0.72932 0.67283 0.0
O34 O 0.38068 0.72678 0.68113 0.0
C35 C 0.40708 0.78055 0.7373 0.0
C36 C 0.40248 0.7056 0.76413 0.0
O37 O 0.38372 0.71564 0.75893 0.0
O38 O 0.42017 0.71078 0.74879 0.0
C39 C 0.33049 0.75113 0.7478 0.0
O40 O 0.3415 0.76007 0.7713 0.0
C41 C 0.39778 0.72475 0.6633 0.0
Zn42 Zn 0.45384 0.18811 0.01568 0.0
Zn43 Zn 0.47315 0.14788 0.01679 0.0
O44 O 0.43817 0.14319 0.01695 0.0
O45 O 0.42189 0.17618 0.00968 0.0
O46 O 0.48392 0.11562 0.01255 0.0
O47 O 0.47365 0.19805 0.9804 0.0
O48 O 0.48929 0.16418 0.98108 0.0
C49 C 0.42016 0.15488 0.01345 0.0
C50 C 0.4809 0.17895 0.07088 0.0
O51 O 0.4859 0.16041 0.05732 0.0
O52 O 0.46679 0.19252 0.05877 0.0
C53 C 0.47463 0.09963 0.02792 0.0
O54 O 0.45931 0.10467 0.04882 0.0
C55 C 0.48824 0.18426 0.97013 0.0
Zn56 Zn 0.10234 0.67865 0.20493 0.0
Zn57 Zn 0.13647 0.70692 0.209 0.0
O58 O 0.11215 0.72967 0.19522 0.0
O59 O 0.08298 0.70579 0.19288 0.0
O60 O 0.16557 0.72511 0.21493 0.0
O61 O 0.10362 0.66824 0.24804 0.0
O62 O 0.13034 0.69453 0.25331 0.0
C63 C 0.09107 0.7258 0.18994 0.0
C64 C 0.13544 0.66713 0.16172 0.0
O65 O 0.14466 0.68516 0.17271 0.0
O66 O 0.11693 0.6597 0.1729 0.0
C67 C 0.17523 0.73542 0.1927 0.0
O68 O 0.16544 0.73509 0.16548 0.0
C69 C 0.11744 0.67914 0.26492 0.0
Zn70 Zn 0.58288 0.83831 0.44185 0.0
Zn71 Zn 0.56356 0.87612 0.45533 0.0
O72 O 0.53666 0.85898 0.43399 0.0
O73 O 0.55465 0.82811 0.41943 0.0
O74 O 0.55021 0.90541 0.47083 0.0
O75 O 0.58754 0.82789 0.48452 0.0
O76 O 0.57552 0.86216 0.49637 0.0
C77 C 0.53666 0.83983 0.42009 0.0
C78 C 0.60494 0.87591 0.41288 0.0
O79 O 0.58772 0.8864 0.42346 0.0
O80 O 0.60789 0.85522 0.41979 0.0
C81 C 0.53885 0.91926 0.45459 0.0
O82 O 0.53508 0.91461 0.42544 0.0
C83 C 0.58361 0.84297 0.50443 0.0
Zn84 Zn 0.40274 0.2518 0.71716 0.0
Zn85 Zn 0.36311 0.26507 0.70466 0.0
O86 O 0.36232 0.22976 0.70573 0.0
O87 O 0.39362 0.22011 0.72974 0.0
O88 O 0.32964 0.27259 0.70064 0.0
O89 O 0.40849 0.27618 0.74815 0.0
O90 O 0.37161 0.2822 0.74495 0.0
C91 C 0.37476 0.21444 0.7177 0.0
C92 C 0.39969 0.27075 0.65661 0.0
O93 O 0.38027 0.2775 0.66606 0.0
O94 O 0.41155 0.25775 0.67329 0.0
C95 C 0.31536 0.2598 0.68665 0.0
O96 O 0.32283 0.24227 0.67098 0.0
C97 C 0.39087 0.28618 0.75756 0.0
Zn98 Zn 0.94035 0.15568 0.94371 0.0
Zn99 Zn 0.9553 0.11816 0.96703 0.0
O100 O 0.98535 0.13252 0.94988 0.0
O101 O 0.97129 0.16262 0.92647 0.0
O102 O 0.96438 0.08856 0.98713 0.0
O103 O 0.93241 0.16954 0.98343 0.0
O104 O 0.94121 0.13637 0.00365 0.0
C105 C 0.98812 0.15038 0.93352 0.0
C106 C 0.91773 0.1174 0.91801 0.0
O107 O 0.93302 0.10683 0.93296 0.0
O108 O 0.91638 0.13881 0.92011 0.0
C109 C 0.9777 0.07456 0.97422 0.0
O110 O 0.98678 0.07991 0.94752 0.0
C111 C 0.93377 0.15663 0.00656 0.0
Zn112 Zn 0.9174 0.66273 0.68542 0.0
Zn113 Zn 0.8833 0.68985 0.69793 0.0
O114 O 0.906 0.71389 0.68255 0.0
O115 O 0.93485 0.6914 0.67229 0.0
O116 O 0.856 0.70728 0.71227 0.0
O117 O 0.92074 0.65068 0.7279 0.0
O118 O 0.8935 0.6748 0.73879 0.0
C119 C 0.92632 0.71117 0.673 0.0
C120 C 0.87912 0.65316 0.64744 0.0
O121 O 0.87121 0.67047 0.66137 0.0
O122 O 0.89841 0.64544 0.65492 0.0
C123 C 0.84426 0.72059 0.69569 0.0
O124 O 0.84995 0.72376 0.66676 0.0
C125 C 0.90787 0.65994 0.74741 0.0
Zn126 Zn 0.96989 0.15457 0.4786 0.0
Zn127 Zn 0.99411 0.11878 0.47962 0.0
O128 O 0.96101 0.11031 0.46523 0.0
O129 O 0.93951 0.13969 0.47505 0.0
O130 O 0.00758 0.08745 0.48512 0.0
O131 O 0.97983 0.16552 0.51937 0.0
O132 O 1.00021 0.13435 0.52196 0.0
C133 C 0.94135 0.11939 0.46593 0.0
C134 C 0.0056 0.15344 0.43164 0.0
O135 O 0.012 0.1354 0.44536 0.0
O136 O 0.98778 0.16362 0.44042 0.0
C137 C 1.00245 0.07185 0.46594 0.0
O138 O 0.9907 0.07717 0.44126 0.0
C139 C 0.99349 0.15296 0.53386 0.0
Zn140 Zn 0.60012 0.328 0.18078 0.0
Zn141 Zn 0.63461 0.29981 0.18166 0.0
O142 O 0.60874 0.27634 0.17639 0.0
O143 O 0.57973 0.2999 0.177 0.0
O144 O 0.66367 0.28195 0.18669 0.0
O145 O 0.60587 0.34157 0.22178 0.0
O146 O 0.63303 0.31614 0.224 0.0
C147 C 0.58731 0.27978 0.17535 0.0
C148 C 0.6294 0.33536 0.12989 0.0
O149 O 0.63954 0.31819 0.1413 0.0
O150 O 0.61232 0.34363 0.14346 0.0
C151 C 0.68099 0.29346 0.19546 0.0
O152 O 0.679 0.31558 0.19885 0.0
C153 C 0.62161 0.33197 0.23659 0.0
Zn154 Zn 0.49642 0.85194 0.93563 0.0
Zn155 Zn 0.48495 0.89115 0.95055 0.0
O156 O 0.52052 0.89136 0.94774 0.0
O157 O 0.52889 0.85509 0.94888 0.0
O158 O 0.4789 0.92326 0.96426 0.0
O159 O 0.47394 0.83733 0.96379 0.0
O160 O 0.46962 0.8712 0.9843 0.0
C161 C 0.53532 0.87566 0.94957 0.0
C162 C 0.47331 0.87394 0.88704 0.0
O163 O 0.46848 0.88776 0.90862 0.0
O164 O 0.48738 0.85812 0.89173 0.0
C165 C 0.48922 0.93955 0.95072 0.0
O166 O 0.50248 0.93498 0.92721 0.0
C167 C 0.46549 0.84982 0.98444 0.0
Zn168 Zn 0.93456 0.22293 0.78193 0.0
Zn169 Zn 0.89486 0.24122 0.78338 0.0
O170 O 0.89057 0.20616 0.77893 0.0
O171 O 0.92416 0.19173 0.76954 0.0
O172 O 0.86198 0.251 0.78247 0.0
O173 O 0.94484 0.24563 0.75065 0.0
O174 O 0.91008 0.25926 0.74802 0.0
C175 C 0.90287 0.18903 0.77245 0.0
C176 C 0.92616 0.24584 0.83896 0.0
O177 O 0.90828 0.25234 0.82486 0.0
O178 O 0.93914 0.23134 0.8266 0.0
C179 C 0.84786 0.24127 0.80051 0.0
O180 O 0.85552 0.22677 0.821 0.0
C181 C 0.93085 0.25959 0.73935 0.0
Zn182 Zn 0.46735 0.15862 0.54993 0.0
Zn183 Zn 0.47424 0.11434 0.54343 0.0
O184 O 0.50404 0.126 0.5645 0.0
O185 O 0.49827 0.16289 0.56881 0.0
O186 O 0.48107 0.08197 0.53158 0.0
O187 O 0.46348 0.16477 0.50539 0.0
O188 O 0.46491 0.12746 0.50083 0.0
C189 C 0.51086 0.14579 0.57275 0.0
C190 C 0.43519 0.12867 0.58287 0.0
O191 O 0.44759 0.11235 0.57379 0.0
O192 O 0.43982 0.14903 0.57524 0.0
C193 C 0.49112 0.06754 0.54845 0.0
O194 O 0.49732 0.07334 0.57646 0.0
C195 C 0.4619 0.14707 0.48901 0.0
Zn196 Zn 0.57085 0.77062 0.26189 0.0
Zn197 Zn 0.60997 0.74968 0.26151 0.0
O198 O 0.61638 0.78453 0.26198 0.0
O199 O 0.5838 0.80197 0.25591 0.0
O200 O 0.64229 0.73822 0.25795 0.0
O201 O 0.55997 0.75202 0.22621 0.0
O202 O 0.59339 0.73538 0.22414 0.0
C203 C 0.60525 0.8029 0.25871 0.0
C204 C 0.57793 0.74244 0.31562 0.0
O205 O 0.59609 0.73664 0.3016 0.0
O206 O 0.56535 0.7578 0.30442 0.0
C207 C 0.65732 0.74552 0.27676 0.0
O208 O 0.65085 0.75819 0.30004 0.0
C209 C 0.57311 0.73764 0.21404 0.0
Zn210 Zn 0.9738 0.8215 6e-05 0.0
Zn211 Zn 0.98616 0.86382 0.01562 0.0
O212 O 0.9509 0.86272 0.01595 0.0
O213 O 0.94049 0.82949 -0.0029 0.0
O214 O 0.99336 0.89734 0.02082 0.0
O215 O 0.99471 0.8218 0.96325 0.0
O216 O 0.00295 0.85733 0.97523 0.0
C217 C 0.9352 0.84882 0.00764 0.0
C218 C 0.99807 0.82558 0.0589 0.0
O219 O 1.0005 0.84658 0.05202 0.0
O220 O 0.98678 0.81232 0.04142 0.0
C221 C 0.98124 0.91111 0.03617 0.0
O222 O 0.96397 0.90316 0.05228 0.0
C223 C 0.00547 0.84014 0.95776 0.0
Zn224 Zn 0.60605 0.79445 0.78351 0.0
Zn225 Zn 0.65094 0.79215 0.77613 0.0
O226 O 0.64213 0.7605 0.79409 0.0
O227 O 0.60475 0.76219 0.79833 0.0
O228 O 0.68397 0.78828 0.76509 0.0
O229 O 0.59987 0.80041 0.7395 0.0
O230 O 0.6372 0.80119 0.73378 0.0
C231 C 0.62308 0.75122 0.80105 0.0
C232 C 0.63272 0.82733 0.8196 0.0
O233 O 0.65021 0.81758 0.80863 0.0
O234 O 0.61282 0.82079 0.81211 0.0
C235 C 0.69821 0.77902 0.7831 0.0
O236 O 0.69157 0.77279 0.81073 0.0
C237 C 0.61719 0.80332 0.72267 0.0
Zn238 Zn 0.49421 0.32167 0.98525 0.0
Zn239 Zn 0.48532 0.36485 -0.00525 0.0
O240 O 0.52023 0.36198 -0.01026 0.0
O241 O 0.52704 0.32728 0.97368 0.0
O242 O 0.48178 0.39901 -0.00298 0.0
O243 O 0.46915 0.31944 0.95382 0.0
O244 O 0.46533 0.35661 0.95727 0.0
C245 C 0.53427 0.34699 0.98058 0.0
C246 C 0.47674 0.33117 0.04619 0.0
O247 O 0.4732 0.35113 0.03572 0.0
O248 O 0.48662 0.31643 0.02981 0.0
C249 C 0.49568 0.41162 0.01191 0.0
O250 O 0.51155 0.40207 0.02876 0.0
C251 C 0.45984 0.33764 0.945 0.0
Zn252 Zn 0.92052 0.21276 0.27693 0.0
Zn253 Zn 0.8766 0.22322 0.27646 0.0
O254 O 0.89218 0.24942 0.30127 0.0
O255 O 0.92859 0.24056 0.30168 0.0
O256 O 0.84435 0.23414 0.27121 0.0
O257 O 0.92348 0.21396 0.23142 0.0
O258 O 0.8861 0.2173 0.23131 0.0
C259 C 0.91272 0.25386 0.30922 0.0
C260 C 0.88976 0.17894 0.30532 0.0
O261 O 0.8742 0.19354 0.30085 0.0
O262 O 0.91007 0.18303 0.29676 0.0
C263 C 0.82979 0.22281 0.25561 0.0
O264 O 0.83561 0.20302 0.24409 0.0
C265 C 0.90483 0.21467 0.21693 0.0
Zn266 Zn 0.99401 0.68463 0.49261 0.0
Zn267 Zn 0.0075 0.64232 0.50623 0.0
O268 O 0.97264 0.64145 0.50019 0.0
O269 O 0.96162 0.67478 0.48321 0.0
O270 O 0.01462 0.60893 0.51107 0.0
O271 O 0.01832 0.68706 0.45978 0.0
O272 O 0.02759 0.6516 0.46973 0.0
C273 C 0.95684 0.65448 0.49076 0.0
C274 C 0.01306 0.67875 0.55456 0.0
O275 O 0.01756 0.65851 0.54603 0.0
O276 O 1.0025 0.69212 0.53675 0.0
C277 C 1.00169 0.59559 0.52634 0.0
O278 O 0.98438 0.60409 0.54151 0.0
C279 C 0.03059 0.66989 0.45447 0.0
Zn280 Zn 0.58976 0.26032 0.75991 0.0
Zn281 Zn 0.63206 0.24776 0.76742 0.0
O282 O 0.63355 0.28087 0.75064 0.0
O283 O 0.59795 0.29081 0.74333 0.0
O284 O 0.66544 0.24173 0.77551 0.0
O285 O 0.58285 0.25768 0.80414 0.0
O286 O 0.61633 0.24149 0.80969 0.0
C287 C 0.619 0.29554 0.74204 0.0
C288 C 0.60213 0.22065 0.72391 0.0
O289 O 0.62214 0.22455 0.73425 0.0
O290 O 0.58555 0.23288 0.73215 0.0
C291 C 0.68003 0.24789 0.75545 0.0
O292 O 0.67283 0.25659 0.72938 0.0
C293 C 0.59714 0.24744 0.82074 0.0
Zn294 Zn 0.0836 0.34472 0.962 0.0
Zn295 Zn 0.05884 0.38134 0.97304 0.0
O296 O 0.03285 0.35853 0.96315 0.0
O297 O 0.05354 0.32798 0.95504 0.0
O298 O 0.04405 0.41072 0.98597 0.0
O299 O 0.09829 0.34384 0.00309 0.0
O300 O 0.07699 0.37361 0.01265 0.0
C301 C 0.03421 0.33742 0.95659 0.0
C302 C 0.09284 0.38054 0.91929 0.0
O303 O 0.0768 0.3903 0.93383 0.0
O304 O 0.09954 0.36109 0.92763 0.0
C305 C 0.03073 0.42265 0.96963 0.0
O306 O 0.02488 0.41542 0.94209 0.0
C307 C 0.09162 0.35904 0.02145 0.0
Zn308 Zn 0.8968 0.81649 0.2047 0.0
Zn309 Zn 0.86318 0.79028 0.21771 0.0
O310 O 0.88361 0.76551 0.1993 0.0
O311 O 0.91289 0.78816 0.18953 0.0
O312 O 0.83404 0.77487 0.23212 0.0
O313 O 0.90303 0.82813 0.24623 0.0
O314 O 0.87694 0.80274 0.25923 0.0
C315 C 0.90386 0.76844 0.18928 0.0
C316 C 0.85994 0.82937 0.16934 0.0
O317 O 0.85158 0.81179 0.18262 0.0
O318 O 0.8798 0.83618 0.1761 0.0
C319 C 0.81976 0.76552 0.2139 0.0
O320 O 0.82452 0.76454 0.1844 0.0
C321 C 0.89192 0.8177 0.26676 0.0
Zn322 Zn 0.43338 0.67029 0.42676 0.0
Zn323 Zn 0.45408 0.59804 0.44913 0.0
O324 O 0.48294 0.61742 0.43872 0.0
O325 O 0.45722 0.64342 0.43377 0.0
O326 O 0.46351 0.56639 0.46025 0.0
O327 O 0.43609 0.64068 0.45516 0.0
O328 O 0.43745 0.61213 0.48668 0.0
C329 C 0.4783 0.63799 0.43241 0.0
C330 C 0.42609 0.61776 0.40461 0.0
O331 O 0.43264 0.59773 0.41098 0.0
O332 O 0.43374 0.63387 0.42172 0.0
C333 C 0.47989 0.55686 0.44636 0.0
O334 O 0.49019 0.56771 0.42379 0.0
C335 C 0.43147 0.63254 0.48181 0.0
Zn336 Zn 0.4114 0.17729 0.21118 0.0
Zn337 Zn 0.3746 0.19843 0.22935 0.0
O338 O 0.39266 0.22494 0.20887 0.0
O339 O 0.42263 0.20646 0.19189 0.0
O340 O 0.34582 0.21286 0.24522 0.0
O341 O 0.42156 0.17025 0.25349 0.0
O342 O 0.38935 0.18534 0.26921 0.0
C343 C 0.41168 0.22483 0.19464 0.0
C344 C 0.3714 0.15858 0.18364 0.0
O345 O 0.36229 0.17538 0.19731 0.0
O346 O 0.39241 0.1547 0.18734 0.0
C347 C 0.33092 0.2202 0.22652 0.0
O348 O 0.33489 0.21893 0.19682 0.0
C349 C 0.4081 0.17534 0.27502 0.0
Zn350 Zn 0.51099 0.67022 0.97233 0.0
Zn351 Zn 0.51606 0.62624 0.97302 0.0
O352 O 0.48555 0.63184 0.94957 0.0
O353 O 0.4819 0.66908 0.94896 0.0
O354 O 0.51663 0.59194 0.97847 0.0
O355 O 0.50958 0.67346 0.01732 0.0
O356 O 0.52 0.63757 0.0184 0.0
C357 C 0.47445 0.64952 0.94185 0.0
C358 C 0.55177 0.65453 0.94092 0.0
O359 O 0.5437 0.63464 0.94595 0.0
O360 O 0.54153 0.67196 0.95079 0.0
C361 C 0.50594 0.57823 0.9608 0.0
O362 O 0.49505 0.58631 0.93681 0.0
C363 C 0.51589 0.65623 0.03228 0.0
Zn364 Zn 0.08871 0.83647 0.70572 0.0
Zn365 Zn 0.1251 0.81289 0.71959 0.0
O366 O 0.10509 0.78659 0.70405 0.0
O367 O 0.07395 0.80598 0.69416 0.0
O368 O 0.15481 0.79879 0.7322 0.0
O369 O 0.08469 0.84882 0.74788 0.0
O370 O 0.11291 0.8263 0.76065 0.0
C371 C 0.08444 0.78719 0.69499 0.0
C372 C 0.12563 0.84952 0.66814 0.0
O373 O 0.1351 0.8336 0.68325 0.0
O374 O 0.10536 0.85507 0.67425 0.0
C375 C 0.16588 0.78667 0.71328 0.0
O376 O 0.15715 0.78268 0.68591 0.0
C377 C 0.0974 0.84032 0.76824 0.0
Zn378 Zn 0.01589 0.33477 0.51975 0.0
Zn379 Zn 0.00569 0.37853 0.5154 0.0
O380 O 0.04068 0.37694 0.50829 0.0
O381 O 0.04879 0.34052 0.51069 0.0
O382 O 1.00007 0.41247 0.51572 0.0
O383 O 0.00629 0.33376 0.56329 0.0
O384 O 0.99339 0.36869 0.55826 0.0
C385 C 0.05521 0.36096 0.50705 0.0
C386 C 0.98288 0.34472 0.47192 0.0
O387 O 0.98669 0.36545 0.47921 0.0
O388 O 0.99261 0.32875 0.48625 0.0
C389 C 0.01132 0.42613 0.49867 0.0
O390 O 0.02598 0.41788 0.47885 0.0
C391 C 0.99593 0.35067 0.57419 0.0
Zn392 Zn 0.42424 0.74082 0.2171 0.0
Zn393 Zn 0.38605 0.7614 0.23155 0.0
O394 O 0.38268 0.7269 0.24097 0.0
O395 O 0.41292 0.70913 0.22405 0.0
O396 O 0.35291 0.7708 0.23486 0.0
O397 O 0.42533 0.75341 0.17464 0.0
O398 O 0.39538 0.77324 0.18827 0.0
C399 C 0.39359 0.70847 0.23682 0.0
C400 C 0.42634 0.77301 0.27016 0.0
O401 O 0.40531 0.77706 0.26517 0.0
O402 O 0.4369 0.75896 0.2533 0.0
C403 C 0.34127 0.7661 0.21087 0.0
O404 O 0.35167 0.75716 0.18707 0.0
C405 C 0.4106 0.76829 0.16856 0.0
Zn406 Zn 0.01514 0.67469 -0.00691 0.0
Zn407 Zn 0.00324 0.63196 0.00628 0.0
O408 O 0.03847 0.63365 0.00727 0.0
O409 O 0.04855 0.66739 -0.01014 0.0
O410 O 0.99725 0.59814 0.00997 0.0
O411 O 0.99447 0.67508 0.95609 0.0
O412 O 0.98702 0.63897 0.96557 0.0
C413 C 0.05402 0.64792 -0.00031 0.0
C414 C 0.99088 0.66874 0.05149 0.0
O415 O 0.9883 0.64799 0.04337 0.0
O416 O 1.00223 0.68249 0.03486 0.0
C417 C 0.00855 0.58534 0.02784 0.0
O418 O 0.02323 0.59461 0.04709 0.0
C419 C 0.98438 0.65665 0.94906 0.0
Zn420 Zn 0.06079 0.27279 0.75688 0.0
Zn421 Zn 0.102 0.25889 0.74464 0.0
O422 O 0.10289 0.29416 0.74991 0.0
O423 O 0.0676 0.30599 0.75272 0.0
O424 O 0.13484 0.25272 0.73321 0.0
O425 O 0.04836 0.25521 0.72124 0.0
O426 O 0.08321 0.24506 0.70893 0.0
C427 C 0.08871 0.31043 0.75168 0.0
C428 C 0.07931 0.24315 0.80363 0.0
O429 O 0.0956 0.24083 0.78451 0.0
O430 O 0.06341 0.25704 0.79816 0.0
C431 C 0.15051 0.26313 0.74804 0.0
O432 O 0.14484 0.27598 0.77151 0.0
C433 C 0.0618 0.24458 0.70374 0.0
Zn434 Zn 0.57123 0.31825 0.51323 0.0
Zn435 Zn 0.5587 0.36214 0.50984 0.0
O436 O 0.52861 0.34567 0.52061 0.0
O437 O 0.53833 0.30965 0.52318 0.0
O438 O 0.54916 0.39434 0.5024 0.0
O439 O 0.58286 0.31821 0.46988 0.0
O440 O 0.57383 0.35446 0.46857 0.0
C441 C 0.52325 0.32488 0.52523 0.0
C442 C 0.59406 0.34881 0.55684 0.0
O443 O 0.58105 0.36404 0.54593 0.0
O444 O 0.59315 0.32862 0.54658 0.0
C445 C 0.53387 0.40428 0.51793 0.0
O446 O 0.52409 0.3935 0.54097 0.0
C447 C 0.5825 0.33705 0.45581 0.0
H448 H 0.99004 0.1784 0.38379 0.0
H449 H 0.11255 0.2299 0.3412 0.0
H450 H 0.05221 0.15291 0.42339 0.0
H451 H 0.04819 0.2554 0.3085 0.0
H452 H 0.09222 0.19726 0.36434 0.0
H453 H 0.01239 0.20173 0.34854 0.0
C454 C 0.00848 0.1775 0.38474 0.0
C455 C 0.0193 0.16393 0.40677 0.0
C456 C 0.08265 0.20986 0.35169 0.0
C457 C 0.04519 0.19113 0.36682 0.0
C458 C 0.09424 0.22841 0.3384 0.0
C459 C 0.08199 0.24554 0.3233 0.0
C460 C 0.05874 0.20844 0.34956 0.0
C461 C 0.0583 0.24281 0.32036 0.0
C462 C 0.02128 0.19088 0.36463 0.0
C463 C 0.04323 0.16321 0.40675 0.0
N464 N 0.04749 0.22478 0.33353 0.0
N465 N 0.05544 0.17699 0.38744 0.0
H466 H 0.10822 0.82394 0.49446 0.0
H467 H 0.12152 0.89169 0.64266 0.0
H468 H 0.08248 0.89156 0.50953 0.0
H469 H 0.15116 0.82592 0.62674 0.0
H470 H 0.12234 0.89902 0.58751 0.0
H471 H 0.1379 0.83127 0.53257 0.0
C472 C 0.1093 0.84067 0.50489 0.0
C473 C 0.09211 0.85675 0.50002 0.0
C474 C 0.12941 0.88325 0.59599 0.0
C475 C 0.12569 0.86502 0.54422 0.0
C476 C 0.12906 0.87915 0.62759 0.0
C477 C 0.13555 0.85788 0.63905 0.0
C478 C 0.13543 0.86558 0.57582 0.0
C479 C 0.14552 0.84238 0.61868 0.0
C480 C 0.12626 0.84483 0.52686 0.0
C481 C 0.0948 0.87829 0.51362 0.0
N482 N 0.14435 0.84616 0.58786 0.0
N483 N 0.11077 0.88155 0.53587 0.0
H484 H 0.49032 0.87119 0.8293 0.0
H485 H 0.38074 0.80411 0.77853 0.0
H486 H 0.42715 0.87387 0.87958 0.0
H487 H 0.44245 0.80936 0.72499 0.0
H488 H 0.39329 0.83722 0.80876 0.0
H489 H 0.46959 0.85737 0.78427 0.0
C490 C 0.47191 0.86957 0.83042 0.0
C491 C 0.46039 0.87348 0.85806 0.0
C492 C 0.4038 0.83151 0.78986 0.0
C493 C 0.4366 0.8565 0.80726 0.0
C494 C 0.39658 0.81265 0.77253 0.0
C495 C 0.41088 0.80367 0.7498 0.0
C496 C 0.42544 0.84125 0.78433 0.0
C497 C 0.43118 0.81541 0.74286 0.0
C498 C 0.46004 0.86152 0.8048 0.0
C499 C 0.43658 0.87104 0.85854 0.0
N500 N 0.43803 0.83331 0.7604 0.0
N501 N 0.42549 0.86204 0.83374 0.0
H502 H 0.33838 0.17541 0.14565 0.0
H503 H 0.41033 0.11086 0.0308 0.0
H504 H 0.37795 0.11531 0.16279 0.0
H505 H 0.37859 0.17593 0.01644 0.0
H506 H 0.38046 0.10099 0.06746 0.0
H507 H 0.33425 0.16388 0.09195 0.0
C508 C 0.34528 0.15921 0.13849 0.0
C509 C 0.35953 0.14684 0.15815 0.0
C510 C 0.37952 0.11713 0.0555 0.0
C511 C 0.35544 0.13394 0.09681 0.0
C512 C 0.39662 0.12279 0.03443 0.0
C513 C 0.39779 0.14488 0.02216 0.0
C514 C 0.36401 0.13391 0.06469 0.0
C515 C 0.37903 0.15915 0.02671 0.0
C516 C 0.34303 0.15267 0.1077 0.0
C517 C 0.36765 0.12581 0.14788 0.0
N518 N 0.36334 0.1538 0.04857 0.0
N519 N 0.36613 0.12035 0.11761 0.0
H520 H 0.04477 0.72435 0.18406 0.0
H521 H 0.03766 0.83989 0.08737 0.0
H522 H 0.10293 0.7687 0.16927 0.0
H523 H 0.98487 0.78825 0.09139 0.0
H524 H 0.05949 0.81854 0.12595 0.0
H525 H 0.02053 0.7521 0.159 0.0
C526 C 0.05245 0.74005 0.17578 0.0
C527 C 0.07602 0.74402 0.17837 0.0
C528 C 0.04297 0.81212 0.11868 0.0
C529 C 0.04821 0.77596 0.14931 0.0
C530 C 0.03046 0.82436 0.09686 0.0
C531 C 0.00959 0.81565 0.08593 0.0
C532 C 0.03435 0.79124 0.12973 0.0
C533 C 1.00105 0.79541 0.09885 0.0
C534 C 0.03855 0.75592 0.16144 0.0
C535 C 0.08487 0.76485 0.16756 0.0
N536 N 0.01352 0.78384 0.11985 0.0
N537 N 0.071 0.77995 0.15312 0.0
H538 H 0.41506 0.81112 0.3045 0.0
H539 H 0.49826 0.86314 0.40126 0.0
H540 H 0.46664 0.75975 0.2944 0.0
H541 H 0.52889 0.79663 0.40039 0.0
H542 H 0.46775 0.8485 0.36766 0.0
H543 H 0.43821 0.82904 0.34528 0.0
C544 C 0.43119 0.80363 0.31085 0.0
C545 C 0.43902 0.78405 0.29574 0.0
C546 C 0.48085 0.837 0.37535 0.0
C547 C 0.46563 0.80444 0.342 0.0
C548 C 0.49833 0.84539 0.3945 0.0
C549 C 0.5163 0.83117 0.40339 0.0
C550 C 0.48147 0.81423 0.36525 0.0
C551 C 0.51561 0.80835 0.39385 0.0
C552 C 0.44451 0.81397 0.33396 0.0
C553 C 0.45997 0.77497 0.305 0.0
N554 N 0.49868 0.80074 0.37517 0.0
N555 N 0.47242 0.7852 0.3274 0.0
H556 H 0.3967 0.17705 0.7406 0.0
H557 H 0.39073 0.13886 0.57465 0.0
H558 H 0.34372 0.19627 0.67706 0.0
H559 H 0.43773 0.11166 0.64095 0.0
H560 H 0.36415 0.14736 0.61607 0.0
H561 H 0.40175 0.1418 0.71207 0.0
C562 C 0.38555 0.17351 0.72126 0.0
C563 C 0.37064 0.19018 0.71018 0.0
C564 C 0.37989 0.1388 0.62169 0.0
C565 C 0.37678 0.15018 0.6769 0.0
C566 C 0.39499 0.13384 0.59794 0.0
C567 C 0.41646 0.12494 0.60466 0.0
C568 C 0.3869 0.13585 0.65238 0.0
C569 C 0.42132 0.11873 0.63503 0.0
C570 C 0.38848 0.15333 0.70485 0.0
C571 C 0.3561 0.18431 0.6857 0.0
N572 N 0.40696 0.12501 0.658 0.0
N573 N 0.36011 0.16514 0.66916 0.0
H574 H 0.088 0.19749 0.80642 0.0
H575 H 0.01025 0.18704 0.95603 0.0
H576 H 0.06332 0.25363 0.86041 0.0
H577 H 0.01622 0.13356 0.88884 0.0
H578 H 0.0414 0.2078 0.93092 0.0
H579 H 0.07317 0.17095 0.84554 0.0
C580 C 0.08021 0.20424 0.82704 0.0
C581 C 0.07666 0.22772 0.83019 0.0
C582 C 0.03638 0.19124 0.92208 0.0
C583 C 0.05968 0.19766 0.87466 0.0
C584 C 0.01876 0.17933 0.93656 0.0
C585 C 0.01086 0.15862 0.92445 0.0
C586 C 0.04584 0.18258 0.89487 0.0
C587 C 0.02207 0.14944 0.89893 0.0
C588 C 0.07159 0.18911 0.84918 0.0
C589 C 0.06622 0.23562 0.85707 0.0
N590 N 0.0388 0.16171 0.88455 0.0
N591 N 0.0579 0.22063 0.8781 0.0
H592 H 0.02795 0.78488 0.573 0.0
H593 H 0.91164 0.75437 0.65911 0.0
H594 H 0.96937 0.82864 0.57043 0.0
H595 H 0.97169 0.71245 0.65916 0.0
H596 H 0.93363 0.78461 0.63338 0.0
H597 H 0.00911 0.76155 0.61162 0.0
C598 C 0.01118 0.78974 0.58095 0.0
C599 C 1.00007 0.80853 0.56823 0.0
C600 C 0.94202 0.76889 0.63941 0.0
C601 C 0.97808 0.7815 0.61226 0.0
C602 C 0.9295 0.75163 0.65411 0.0
C603 C 0.93975 0.7307 0.66093 0.0
C604 C 0.96492 0.76516 0.63157 0.0
C605 C 0.96294 0.72814 0.65401 0.0
C606 C 1.00038 0.77636 0.60305 0.0
C607 C 0.97847 0.81422 0.57964 0.0
N608 N 0.97462 0.74505 0.63952 0.0
N609 N 0.96797 0.80049 0.60069 0.0
H610 H 0.89582 0.12812 0.47168 0.0
H611 H 0.91034 0.13789 0.29947 0.0
H612 H 0.94334 0.08925 0.41799 0.0
H613 H 0.85891 0.17256 0.3519 0.0
H614 H 0.91103 0.10789 0.33814 0.0
H615 H 0.87063 0.13017 0.42724 0.0
C616 C 0.90049 0.11911 0.4509 0.0
C617 C 0.92227 0.10967 0.44788 0.0
C618 C 0.8991 0.12169 0.34093 0.0
C619 C 0.89407 0.11275 0.3967 0.0
C620 C 0.89877 0.13887 0.31885 0.0
C621 C 0.88518 0.15809 0.32321 0.0
C622 C 0.88641 0.12424 0.36811 0.0
C623 C 0.87006 0.15826 0.34815 0.0
C624 C 0.88616 0.12044 0.42535 0.0
C625 C 0.9271 0.09758 0.42089 0.0
N626 N 0.87162 0.14196 0.37025 0.0
N627 N 0.91355 0.10028 0.39582 0.0
H628 H 0.523 0.16473 0.09011 0.0
H629 H 0.54113 0.28014 0.18268 0.0
H630 H 0.46956 0.21198 0.11215 0.0
H631 H 0.59624 0.23604 0.15644 0.0
H632 H 0.51386 0.25077 0.16729 0.0
H633 H 0.54865 0.1855 0.12491 0.0
C634 C 0.51645 0.17905 0.10294 0.0
C635 C 0.49425 0.18693 0.09774 0.0
C636 C 0.53191 0.24733 0.16523 0.0
C637 C 0.52356 0.21092 0.13715 0.0
C638 C 0.54753 0.26415 0.17397 0.0
C639 C 0.57102 0.26072 0.17028 0.0
C640 C 0.53975 0.22695 0.15233 0.0
C641 C 0.57827 0.2395 0.15936 0.0
C642 C 0.53117 0.19102 0.12262 0.0
C643 C 0.48668 0.20557 0.11501 0.0
N644 N 0.56267 0.22353 0.15028 0.0
N645 N 0.5014 0.21713 0.13354 0.0
H646 H 0.57131 0.85197 0.9723 0.0
H647 H 0.6206 0.87147 0.81451 0.0
H648 H 0.55494 0.90988 0.91589 0.0
H649 H 0.64717 0.82256 0.87857 0.0
H650 H 0.60755 0.89461 0.85747 0.0
H651 H 0.6086 0.85017 0.94786 0.0
C652 C 0.57594 0.86486 0.95553 0.0
C653 C 0.5598 0.88059 0.94528 0.0
C654 C 0.617 0.8793 0.86239 0.0
C655 C 0.602 0.87803 0.91618 0.0
C656 C 0.62461 0.86618 0.83777 0.0
C657 C 0.63465 0.84505 0.84321 0.0
C658 C 0.61856 0.87058 0.89245 0.0
C659 C 0.63934 0.83877 0.8736 0.0
C660 C 0.59725 0.8638 0.94143 0.0
C661 C 0.56676 0.89715 0.92395 0.0
N662 N 0.63058 0.85111 0.89717 0.0
N663 N 0.58707 0.89494 0.90925 0.0
H664 H 0.86028 0.17567 0.79227 0.0
H665 H 0.93321 0.09013 0.87202 0.0
H666 H 0.92397 0.14865 0.75974 0.0
H667 H 0.87224 0.12086 0.90715 0.0
H668 H 0.91781 0.09296 0.82 0.0
H669 H 0.85249 0.13972 0.81836 0.0
C670 C 0.87229 0.16192 0.78965 0.0
C671 C 0.89351 0.16564 0.77555 0.0
C672 C 0.90724 0.09813 0.83914 0.0
C673 C 0.88506 0.12482 0.80616 0.0
C674 C 0.91599 0.09625 0.86897 0.0
C675 C 0.90437 0.10634 0.89351 0.0
C676 C 0.88719 0.11064 0.8343 0.0
C677 C 0.88205 0.11374 0.88844 0.0
C678 C 0.86784 0.14131 0.80463 0.0
C679 C 0.90794 0.14691 0.77188 0.0
N680 N 0.87445 0.11654 0.85921 0.0
N681 N 0.90386 0.12754 0.78809 0.0
H682 H 0.61859 0.21724 0.66553 0.0
H683 H 0.52695 0.1209 0.62103 0.0
H684 H 0.57445 0.18387 0.73104 0.0
H685 H 0.54267 0.17904 0.56409 0.0
H686 H 0.55671 0.1334 0.65746 0.0
H687 H 0.60288 0.19251 0.62474 0.0
C688 C 0.60623 0.20412 0.67145 0.0
C689 C 0.5977 0.20245 0.70146 0.0
C690 C 0.55407 0.14297 0.63647 0.0
C691 C 0.57986 0.17435 0.65543 0.0
C692 C 0.53727 0.13578 0.61565 0.0
C693 C 0.53235 0.14911 0.58978 0.0
C694 C 0.5662 0.16331 0.63091 0.0
C695 C 0.54592 0.16843 0.58397 0.0
C696 C 0.59721 0.19016 0.64825 0.0
C697 C 0.58139 0.18556 0.70806 0.0
N698 N 0.56213 0.17509 0.60453 0.0
N699 N 0.57285 0.17222 0.68516 0.0
H700 H 0.64904 0.81151 0.27842 0.0
H701 H 0.58989 0.90425 0.36745 0.0
H702 H 0.58701 0.84545 0.25253 0.0
H703 H 0.64903 0.86717 0.39685 0.0
H704 H 0.6015 0.89908 0.31413 0.0
H705 H 0.66104 0.8455 0.30655 0.0
C706 C 0.63825 0.82636 0.27776 0.0
C707 C 0.6164 0.82521 0.26461 0.0
C708 C 0.61254 0.89287 0.33222 0.0
C709 C 0.62977 0.86391 0.29737 0.0
C710 C 0.606 0.89607 0.36282 0.0
C711 C 0.61784 0.88491 0.38635 0.0
C712 C 0.63067 0.87814 0.3256 0.0
C713 C 0.63884 0.87507 0.37908 0.0
C714 C 0.64512 0.84584 0.29388 0.0
C715 C 0.60354 0.84522 0.26364 0.0
N716 N 0.64418 0.87108 0.3492 0.0
N717 N 0.61007 0.86352 0.28073 0.0
H718 H 0.85753 0.87373 0.15175 0.0
H719 H 0.89788 0.82067 0.00028 0.0
H720 H 0.84161 0.80563 0.12134 0.0
H721 H 0.91758 0.88668 0.03562 0.0
H722 H 0.86325 0.822 0.03118 0.0
H723 H 0.86288 0.88532 0.09838 0.0
C724 C 0.85398 0.86149 0.13367 0.0
C725 C 0.84997 0.83852 0.14089 0.0
C726 C 0.87478 0.83653 0.03148 0.0
C727 C 0.85729 0.85127 0.08004 0.0
C728 C 0.89463 0.83579 0.01378 0.0
C729 C 0.91122 0.85312 0.01651 0.0
C730 C 0.87171 0.85455 0.05227 0.0
C731 C 0.9057 0.87252 0.03369 0.0
C732 C 0.85733 0.86803 0.10314 0.0
C733 C 0.84525 0.82342 0.1167 0.0
N734 N 0.88674 0.87243 0.05163 0.0
N735 N 0.84998 0.82981 0.08729 0.0
H736 H 0.58905 0.68055 0.95324 0.0
H737 H 0.59364 0.71695 0.78681 0.0
H738 H 0.55876 0.63816 0.88306 0.0
H739 H 0.64893 0.73452 0.84802 0.0
H740 H 0.5844 0.68416 0.81919 0.0
H741 H 0.61534 0.69638 0.91507 0.0
C742 C 0.58854 0.67402 0.92993 0.0
C743 C 0.57174 0.6582 0.92109 0.0
C744 C 0.59902 0.6947 0.8251 0.0
C745 C 0.601 0.67684 0.87709 0.0
C746 C 0.60426 0.71343 0.80664 0.0
C747 C 0.62189 0.72845 0.81505 0.0
C748 C 0.61096 0.69155 0.85277 0.0
C749 C 0.63517 0.72326 0.84089 0.0
C750 C 0.60352 0.68305 0.90812 0.0
C751 C 0.57156 0.65034 0.89066 0.0
N752 N 0.62899 0.70558 0.85944 0.0
N753 N 0.58552 0.66027 0.86945 0.0
H754 H 0.64116 0.30894 0.08077 0.0
H755 H 0.55635 0.38668 -0.00334 0.0
H756 H 0.62542 0.37796 0.10594 0.0
H757 H 0.56896 0.31637 0.97407 0.0
H758 H 0.59382 0.38905 0.02084 0.0
H759 H 0.62886 0.31693 0.02818 0.0
C760 C 0.63621 0.32611 0.07488 0.0
C761 C 0.63344 0.3426 0.09787 0.0
C762 C 0.5887 0.37325 0.00984 0.0
C763 C 0.61869 0.35164 0.03824 0.0
C764 C 0.56725 0.3719 -0.00404 0.0
C765 C 0.55908 0.35099 0.9846 0.0
C766 C 0.60177 0.35344 0.01293 0.0
C767 C 0.57423 0.33264 0.98355 0.0
C768 C 0.62892 0.33063 0.04486 0.0
C769 C 0.62711 0.36458 0.08896 0.0
N770 N 0.59457 0.33407 -0.00152 0.0
N771 N 0.61925 0.3683 0.06004 0.0
H772 H 0.88748 0.27138 0.3564 0.0
H773 H 0.98554 0.35796 0.41176 0.0
H774 H 0.95089 0.28057 0.30756 0.0
H775 H 0.94599 0.31673 0.47445 0.0
H776 H 0.96435 0.34079 0.3684 0.0
H777 H 0.90061 0.29942 0.3948 0.0
C778 C 0.90387 0.27975 0.35334 0.0
C779 C 0.91825 0.27356 0.32904 0.0
C780 C 0.95998 0.33599 0.39174 0.0
C781 C 0.93311 0.30564 0.37231 0.0
C782 C 0.97191 0.34585 0.41637 0.0
C783 C 0.96741 0.33864 0.4465 0.0
C784 C 0.94321 0.31928 0.39756 0.0
C785 C 0.94989 0.32264 0.45142 0.0
C786 C 0.91136 0.29561 0.37525 0.0
C787 C 0.93942 0.28475 0.32619 0.0
N788 N 0.93843 0.31342 0.42718 0.0
N789 N 0.94627 0.3002 0.34765 0.0
H790 H 0.87905 0.61053 0.62247 0.0
H791 H 0.91848 0.68064 0.48508 0.0
H792 H 0.85934 0.67953 0.60338 0.0
H793 H 0.93993 0.6126 0.50769 0.0
H794 H 0.88283 0.67362 0.51242 0.0
H795 H 0.88457 0.60419 0.5676 0.0
C796 C 0.87481 0.62404 0.60655 0.0
C797 C 0.86978 0.64588 0.61747 0.0
C798 C 0.89499 0.65993 0.51057 0.0
C799 C 0.87723 0.63918 0.55498 0.0
C800 C 0.91541 0.66393 0.49487 0.0
C801 C 0.93273 0.64758 0.49552 0.0
C802 C 0.89212 0.63964 0.52734 0.0
C803 C 0.92745 0.62606 0.50777 0.0
C804 C 0.87819 0.6205 0.57515 0.0
C805 C 0.86397 0.66261 0.59592 0.0
N806 N 0.90791 0.62295 0.52404 0.0
N807 N 0.86881 0.65924 0.56568 0.0
H808 H 0.63432 0.32902 0.57122 0.0
H809 H 0.66003 0.30418 0.7136 0.0
H810 H 0.58673 0.37896 0.60381 0.0
H811 H 0.59433 0.33382 0.73119 0.0
H812 H 0.66502 0.33004 0.67007 0.0
H813 H 0.65164 0.32783 0.62175 0.0
C814 C 0.62801 0.34032 0.58892 0.0
C815 C 0.60865 0.35355 0.58374 0.0
C816 C 0.64962 0.33111 0.68365 0.0
C817 C 0.62827 0.35225 0.64214 0.0
C818 C 0.64692 0.31655 0.70884 0.0
C819 C 0.62619 0.31607 0.72492 0.0
C820 C 0.63123 0.34474 0.6744 0.0
C821 C 0.61014 0.33295 0.71842 0.0
C822 C 0.63808 0.33984 0.61793 0.0
C823 C 0.6014 0.36818 0.60714 0.0
N824 N 0.61269 0.34616 0.69307 0.0
N825 N 0.61074 0.36657 0.63569 0.0
H826 H 0.02937 0.29139 0.95958 0.0
H827 H 0.91648 0.28923 0.8582 0.0
H828 H 0.9923 0.35205 0.93619 0.0
H829 H 0.95565 0.23006 0.88228 0.0
H830 H 0.93882 0.3117 0.89531 0.0
H831 H 0.9979 0.26826 0.94006 0.0
C832 C 0.01445 0.29986 0.95059 0.0
C833 C 0.01362 0.3237 0.94906 0.0
C834 C 0.94216 0.29368 0.89296 0.0
C835 C 0.97744 0.2972 0.92614 0.0
C836 C 0.92927 0.28079 0.87198 0.0
C837 C 0.93446 0.25782 0.86682 0.0
C838 C 0.96027 0.28345 0.90884 0.0
C839 C 0.95129 0.24781 0.88519 0.0
C840 C 0.99642 0.28662 0.93946 0.0
C841 C 0.99369 0.33372 0.93762 0.0
N842 N 0.96378 0.26074 0.905 0.0
N843 N 0.97652 0.32041 0.92607 0.0
H844 H 0.00798 0.70099 0.08965 0.0
H845 H 0.88819 0.72674 0.16817 0.0
H846 H 0.94893 0.65776 0.07617 0.0
H847 H 0.94965 0.76683 0.18036 0.0
H848 H 0.91056 0.69798 0.14064 0.0
H849 H 0.98774 0.7215 0.12959 0.0
C850 C 0.99078 0.69561 0.09551 0.0
C851 C 0.98001 0.67783 0.07945 0.0
C852 C 0.91913 0.71294 0.14974 0.0
C853 C 0.95634 0.70167 0.12475 0.0
C854 C 0.90639 0.72933 0.16548 0.0
C855 C 0.91701 0.74938 0.17615 0.0
C856 C 0.94259 0.71669 0.14487 0.0
C857 C 0.94064 0.75185 0.1721 0.0
C858 C 0.97917 0.70737 0.11829 0.0
C859 C 0.9578 0.67141 0.08808 0.0
N860 N 0.95252 0.73584 0.15663 0.0
N861 N 0.94648 0.68363 0.10983 0.0
H862 H 0.59058 0.69976 0.33488 0.0
H863 H 0.47439 0.68406 0.42729 0.0
H864 H 0.54446 0.75439 0.35588 0.0
H865 H 0.52238 0.62967 0.41472 0.0
H866 H 0.50233 0.71088 0.40644 0.0
H867 H 0.56904 0.67493 0.36991 0.0
C868 C 0.57631 0.70672 0.34744 0.0
C869 C 0.5691 0.72909 0.34204 0.0
C870 C 0.50691 0.69313 0.40846 0.0
C871 C 0.54416 0.70069 0.38167 0.0
C872 C 0.49088 0.67777 0.42027 0.0
C873 C 0.49594 0.65455 0.42235 0.0
C874 C 0.52814 0.68522 0.39825 0.0
C875 C 0.51773 0.64743 0.41331 0.0
C876 C 0.5639 0.69247 0.36727 0.0
C877 C 0.55044 0.73715 0.35892 0.0
N878 N 0.53294 0.66266 0.40127 0.0
N879 N 0.53845 0.72289 0.37757 0.0
H880 H 0.50083 0.30876 0.0892 0.0
H881 H 0.38931 0.26361 0.17593 0.0
H882 H 0.43412 0.3359 0.07144 0.0
H883 H 0.45606 0.23354 0.18098 0.0
H884 H 0.40589 0.2956 0.14657 0.0
H885 H 0.48547 0.2876 0.13281 0.0
C886 C 0.48299 0.31068 0.09508 0.0
C887 C 0.46867 0.32395 0.07676 0.0
C888 C 0.41689 0.28213 0.15456 0.0
C889 C 0.45063 0.29904 0.12591 0.0
C890 C 0.40747 0.26393 0.17133 0.0
C891 C 0.42128 0.24575 0.1805 0.0
C892 C 0.44027 0.28215 0.14733 0.0
C893 C 0.44468 0.24699 0.17397 0.0
C894 C 0.47415 0.29846 0.11983 0.0
C895 C 0.44569 0.32587 0.08521 0.0
N896 N 0.45335 0.26474 0.15768 0.0
N897 N 0.43721 0.31312 0.10888 0.0
H898 H 0.46832 0.62029 0.89362 0.0
H899 H 0.37839 0.70444 0.81807 0.0
H900 H 0.4369 0.67625 0.94109 0.0
H901 H 0.43165 0.66999 0.76863 0.0
H902 H 0.38823 0.68259 0.86429 0.0
H903 H 0.44282 0.62675 0.84972 0.0
C904 C 0.45544 0.63331 0.89529 0.0
C905 C 0.45489 0.64804 0.92065 0.0
C906 C 0.39732 0.67943 0.84306 0.0
C907 C 0.42596 0.65554 0.87083 0.0
C908 C 0.3917 0.69182 0.81671 0.0
C909 C 0.40458 0.68931 0.78977 0.0
C910 C 0.41568 0.66426 0.84216 0.0
C911 C 0.42163 0.67274 0.78918 0.0
C912 C 0.44104 0.6371 0.87019 0.0
C913 C 0.43802 0.66477 0.92166 0.0
N914 N 0.42687 0.66102 0.81511 0.0
N915 N 0.42442 0.66831 0.89686 0.0
H916 H 0.03871 0.77942 0.68995 0.0
H917 H 0.05338 0.66961 0.58407 0.0
H918 H 0.10365 0.74764 0.67389 0.0
H919 H 0.99212 0.7092 0.59155 0.0
H920 H 0.07014 0.69179 0.62663 0.0
H921 H 0.01974 0.74751 0.66451 0.0
C922 C 0.04898 0.76562 0.68123 0.0
C923 C 0.07283 0.76639 0.68353 0.0
C924 C 0.05285 0.69525 0.61936 0.0
C925 C 0.05119 0.72998 0.65356 0.0
C926 C 0.04325 0.68252 0.59525 0.0
C927 C 0.02149 0.68786 0.58411 0.0
C928 C 0.04043 0.71317 0.63241 0.0
C929 C 0.00909 0.70478 0.59919 0.0
C930 C 0.03813 0.74739 0.66664 0.0
C931 C 0.08522 0.74781 0.67233 0.0
N932 N 0.0188 0.71692 0.62236 0.0
N933 N 0.07429 0.73052 0.65728 0.0
H934 H 0.09221 0.33359 0.51347 0.0
H935 H 0.15433 0.31865 0.39157 0.0
H936 H 0.072 0.39839 0.47638 0.0
H937 H 0.1185 0.37684 0.35657 0.0
H938 H 0.15049 0.33376 0.44358 0.0
H939 H 0.12568 0.33436 0.4811 0.0
C940 C 0.09522 0.34836 0.49905 0.0
C941 C 0.07876 0.36542 0.49648 0.0
C942 C 0.14366 0.34349 0.42465 0.0
C943 C 0.1171 0.36638 0.45853 0.0
C944 C 0.14633 0.33502 0.39478 0.0
C945 C 0.13574 0.34604 0.37011 0.0
C946 C 0.12984 0.36268 0.42946 0.0
C947 C 0.12608 0.3674 0.37532 0.0
C948 C 0.11455 0.34888 0.48041 0.0
C949 C 0.08389 0.38449 0.47831 0.0
N950 N 0.12275 0.37471 0.40452 0.0
N951 N 0.10226 0.38411 0.45927 0.0
H952 H 0.42532 0.59697 0.34814 0.0
H953 H 0.36008 0.70339 0.28023 0.0
H954 H 0.39437 0.65068 0.40068 0.0
H955 H 0.41124 0.66565 0.23101 0.0
H956 H 0.35873 0.67332 0.31897 0.0
H957 H 0.40718 0.61202 0.30139 0.0
C958 C 0.41415 0.61149 0.34993 0.0
C959 C 0.41163 0.62296 0.37797 0.0
C960 C 0.36975 0.67132 0.29918 0.0
C961 C 0.39081 0.63996 0.32519 0.0
C962 C 0.37046 0.68843 0.27694 0.0
C963 C 0.38646 0.68743 0.253 0.0
C964 C 0.38512 0.6532 0.29736 0.0
C965 C 0.39917 0.66744 0.24967 0.0
C966 C 0.40386 0.62006 0.32334 0.0
C967 C 0.39705 0.64167 0.37926 0.0
N968 N 0.39868 0.65134 0.2721 0.0
N969 N 0.38738 0.64975 0.35317 0.0
H970 H 0.07222 0.60908 0.02436 0.0
H971 H 0.15283 0.6903 0.11237 0.0
H972 H 0.09073 0.67711 -0.00447 0.0
H973 H 0.13252 0.62314 0.14218 0.0
H974 H 0.1449 0.67919 0.05925 0.0
H975 H 0.10714 0.6075 0.05472 0.0
C976 C 0.08393 0.62346 0.02367 0.0
C977 C 0.07802 0.64366 0.00851 0.0
C978 C 0.14301 0.66655 0.07723 0.0
C979 C 0.11778 0.64217 0.04383 0.0
C980 C 0.14782 0.67284 0.10761 0.0
C981 C 0.14242 0.65785 0.13169 0.0
C982 C 0.13258 0.6453 0.07131 0.0
C983 C 0.13617 0.63541 0.12421 0.0
C984 C 0.10393 0.62257 0.04108 0.0
C985 C 0.09419 0.66147 0.00778 0.0
N986 N 0.13068 0.63001 0.09474 0.0
N987 N 0.11298 0.6606 0.02602 0.0
H988 H 0.06395 0.34972 0.7515 0.0
H989 H 0.13493 0.37662 0.8935 0.0
H990 H 0.13141 0.32447 0.76991 0.0
H991 H 0.06769 0.40236 0.87559 0.0
H992 H 0.14134 0.37333 0.83831 0.0
H993 H 0.07238 0.38291 0.7833 0.0
C994 C 0.08083 0.3515 0.76145 0.0
C995 C 0.0966 0.33374 0.75941 0.0
C996 C 0.12544 0.38047 0.84626 0.0
C997 C 0.10613 0.37138 0.79646 0.0
C998 C 0.12185 0.38247 0.87784 0.0
C999 C 0.10042 0.38888 0.88898 0.0
C1000 C 0.10715 0.3841 0.82598 0.0
C1001 C 0.08425 0.39675 0.86786 0.0
C1002 C 0.08565 0.37051 0.77966 0.0
C1003 C 0.11842 0.33734 0.77184 0.0
N1004 N 0.0876 0.39331 0.83727 0.0
N1005 N 0.12229 0.35539 0.79075 0.0
H1006 H 0.48883 0.35306 0.54428 0.0
H1007 H 0.39618 0.31309 0.62973 0.0
H1008 H 0.50456 0.28222 0.53017 0.0
H1009 H 0.42757 0.24758 0.61862 0.0
H1010 H 0.4214 0.32854 0.5898 0.0
H1011 H 0.45309 0.34176 0.56867 0.0
C1012 C 0.48454 0.33511 0.54578 0.0
C1013 C 0.49994 0.31856 0.5356 0.0
C1014 C 0.42276 0.31076 0.59581 0.0
C1015 C 0.45874 0.30531 0.56344 0.0
C1016 C 0.40803 0.30187 0.61833 0.0
C1017 C 0.41009 0.27916 0.62778 0.0
C1018 C 0.43961 0.29672 0.58286 0.0
C1019 C 0.4257 0.26531 0.61236 0.0
C1020 C 0.46397 0.3286 0.55973 0.0
C1021 C 0.49344 0.2956 0.53809 0.0
N1022 N 0.43998 0.27436 0.59101 0.0
N1023 N 0.47353 0.2897 0.55202 0.0
H1024 H 0.295 0.23597 0.19269 0.0
H1025 H 0.21659 0.26227 0.3392 0.0
H1026 H 0.31667 0.22468 0.28638 0.0
H1027 H 0.19476 0.27078 0.24502 0.0
H1028 H 0.25353 0.24894 0.32063 0.0
H1029 H 0.25846 0.24953 0.21176 0.0
C1030 C 0.29212 0.23639 0.21729 0.0
C1031 C 0.30896 0.22914 0.23795 0.0
C1032 C 0.24063 0.25371 0.30405 0.0
C1033 C 0.26701 0.24463 0.26 0.0
C1034 C 0.21953 0.2613 0.31464 0.0
C1035 C 0.20252 0.26766 0.29366 0.0
C1036 C 0.24479 0.2525 0.27224 0.0
C1037 C 0.20732 0.26606 0.26208 0.0
C1038 C 0.2712 0.24411 0.22818 0.0
C1039 C 0.3042 0.23009 0.2696 0.0
N1040 N 0.22798 0.25868 0.25237 0.0
N1041 N 0.28366 0.23766 0.27965 0.0
H1042 H 0.98904 0.92581 0.47736 0.0
H1043 H 0.02694 0.0542 0.51426 0.0
H1044 H 0.0415 0.94264 0.54362 0.0
H1045 H 0.98721 0.03424 0.43483 0.0
H1046 H 0.03065 0.01395 0.52813 0.0
H1047 H 0.98548 0.96613 0.46519 0.0
C1048 C 0.99967 0.93799 0.4896 0.0
C1049 C 0.01566 0.93077 0.5115 0.0
C1050 C 0.02123 0.01842 0.5076 0.0
C1051 C 0.01176 0.9771 0.49742 0.0
C1052 C 0.01915 0.04138 0.49961 0.0
C1053 C 0.00674 0.04764 0.47333 0.0
C1054 C 0.01063 1.00163 0.48934 0.0
C1055 C 0.99697 0.03027 0.45526 0.0
C1056 C 0.99773 0.96103 0.48246 0.0
C1057 C 0.02898 0.94741 0.52653 0.0
N1058 N 0.99901 0.00812 0.4637 0.0
N1059 N 0.02676 0.96981 0.51918 0.0
H1060 H 0.30284 0.73487 0.70188 0.0
H1061 H 0.19053 0.79493 0.76588 0.0
H1062 H 0.3011 0.77319 0.78663 0.0
H1063 H 0.19424 0.7606 0.6782 0.0
H1064 H 0.22994 0.78414 0.77632 0.0
H1065 H 0.2621 0.74117 0.69535 0.0
C1066 C 0.29388 0.74453 0.71924 0.0
C1067 C 0.30548 0.75366 0.74476 0.0
C1068 C 0.22208 0.77886 0.75488 0.0
C1069 C 0.2587 0.761 0.73733 0.0
C1070 C 0.19955 0.78498 0.74891 0.0
C1071 C 0.18909 0.77879 0.721 0.0
C1072 C 0.23425 0.76645 0.73281 0.0
C1073 C 0.20163 0.76586 0.69993 0.0
C1074 C 0.27058 0.74813 0.71546 0.0
C1075 C 0.2929 0.76592 0.76653 0.0
N1076 N 0.22356 0.76022 0.70621 0.0
N1077 N 0.2702 0.76933 0.76224 0.0
H1078 H 0.45539 0.06121 0.05309 0.0
H1079 H 0.51052 0.9778 0.92854 0.0
H1080 H 0.50285 0.08329 0.98303 0.0
H1081 H 0.46421 0.95507 -0.00037 0.0
H1082 H 0.50845 0.01642 0.94894 0.0
H1083 H 0.45946 0.02202 0.03519 0.0
C1084 C 0.46683 0.05781 0.03413 0.0
C1085 C 0.47872 0.07561 0.01946 0.0
C1086 C 0.49873 0.003 0.9601 0.0
C1087 C 0.48328 0.03078 -0.00134 0.0
C1088 C 0.49985 0.98092 0.9484 0.0
C1089 C 0.48747 0.96315 0.96234 0.0
C1090 C 0.48512 0.00741 0.98596 0.0
C1091 C 0.474 0.96824 0.98809 0.0
C1092 C 0.46908 0.03542 0.02385 0.0
C1093 C 0.4933 0.07015 -0.005 0.0
N1094 N 0.47317 0.9899 -0.00095 0.0
N1095 N 0.49506 0.04825 0.98527 0.0
H1096 H 0.20246 0.75505 0.14877 0.0
H1097 H 0.31127 0.76736 0.25956 0.0
H1098 H 0.20077 0.73869 0.2456 0.0
H1099 H 0.31411 0.76874 0.16038 0.0
H1100 H 0.26947 0.76447 0.25651 0.0
H1101 H 0.24201 0.76773 0.15448 0.0
C1102 C 0.21031 0.75433 0.17132 0.0
C1103 C 0.19833 0.7455 0.19665 0.0
C1104 C 0.27928 0.76571 0.23546 0.0
C1105 C 0.24374 0.75997 0.20334 0.0
C1106 C 0.30308 0.7675 0.2372 0.0
C1107 C 0.31615 0.76806 0.21017 0.0
C1108 C 0.26856 0.7647 0.20651 0.0
C1109 C 0.3047 0.76808 0.1818 0.0
C1110 C 0.23294 0.76154 0.17455 0.0
C1111 C 0.20941 0.74515 0.22535 0.0
N1112 N 0.28163 0.76628 0.18071 0.0
N1113 N 0.23155 0.75209 0.22788 0.0
H1114 H 0.51446 0.95326 0.42693 0.0
H1115 H 0.51309 0.03241 0.57725 0.0
H1116 H 0.5441 0.934 0.51399 0.0
H1117 H 0.48218 0.05101 0.49073 0.0
H1118 H 0.52366 0.99579 0.55492 0.0
H1119 H 0.50164 0.98878 0.45026 0.0
C1120 C 0.51824 0.95646 0.45095 0.0
C1121 C 0.53045 0.94063 0.46847 0.0
C1122 C 0.5145 0.00786 0.54085 0.0
C1123 C 0.51582 0.98129 0.49536 0.0
C1124 C 0.50844 0.02878 0.55361 0.0
C1125 C 0.49679 0.04486 0.53583 0.0
C1126 C 0.50892 0.00298 0.51006 0.0
C1127 C 0.49119 0.03917 0.50532 0.0
C1128 C 0.5109 0.97675 0.46428 0.0
C1129 C 0.5348 0.94571 0.49954 0.0
N1130 N 0.49737 0.01876 0.49339 0.0
N1131 N 0.52755 0.96559 0.51195 0.0
H1132 H 0.16909 0.23737 0.70167 0.0
H1133 H 0.29424 0.29139 0.72289 0.0
H1134 H 0.18677 0.28752 0.77056 0.0
H1135 H 0.27995 0.23408 0.66345 0.0
H1136 H 0.25393 0.29267 0.73654 0.0
H1137 H 0.20881 0.2378 0.68415 0.0
C1138 C 0.18131 0.24841 0.71317 0.0
C1139 C 0.17458 0.26236 0.73772 0.0
C1140 C 0.25957 0.27988 0.72038 0.0
C1141 C 0.21998 0.26311 0.71757 0.0
C1142 C 0.28261 0.27921 0.71243 0.0
C1143 C 0.29058 0.26251 0.69211 0.0
C1144 C 0.24428 0.26376 0.70792 0.0
C1145 C 0.27462 0.2472 0.6793 0.0
C1146 C 0.20397 0.24868 0.70312 0.0
C1147 C 0.19115 0.27638 0.75166 0.0
N1148 N 0.25226 0.24812 0.68753 0.0
N1149 N 0.21302 0.27642 0.74137 0.0
H1150 H 0.95748 0.05597 0.02543 0.0
H1151 H 0.01262 0.93327 -7e-05 0.0
H1152 H 0.00589 0.04087 0.95368 0.0
H1153 H 0.95702 0.94577 0.06254 0.0
H1154 H 0.01445 0.97391 -0.01169 0.0
H1155 H 0.96109 0.01702 0.04451 0.0
C1156 C 0.96903 0.04455 0.01383 0.0
C1157 C 0.98125 0.05168 0.98771 0.0
C1158 C 1.00197 0.9678 0.00478 0.0
C1159 C 0.98543 0.00701 0.00948 0.0
C1160 C 1.00096 0.94457 0.01154 0.0
C1161 C 0.98448 0.93601 0.03205 0.0
C1162 C 0.98642 0.98265 0.01863 0.0
C1163 C 0.9699 0.95155 0.04643 0.0
C1164 C 0.97104 0.02228 0.02473 0.0
C1165 C 0.996 0.03611 0.97373 0.0
N1166 N 0.9711 0.97409 0.03928 0.0
N1167 N 0.99758 0.01449 0.98468 0.0
H1168 H 0.81354 0.74833 0.66668 0.0
H1169 H 0.73246 0.75759 0.81433 0.0
H1170 H 0.82859 0.71807 0.75485 0.0
H1171 H 0.71645 0.78718 0.72606 0.0
H1172 H 0.76913 0.74541 0.79383 0.0
H1173 H 0.77915 0.76495 0.6888 0.0
C1174 C 0.80969 0.74526 0.6907 0.0
C1175 C 0.82392 0.73166 0.70887 0.0
C1176 C 0.75766 0.75469 0.77898 0.0
C1177 C 0.78459 0.75062 0.73433 0.0
C1178 C 0.73671 0.76168 0.79071 0.0
C1179 C 0.72127 0.77329 0.77185 0.0
C1180 C 0.76321 0.75927 0.74813 0.0
C1181 C 0.72777 0.77818 0.74142 0.0
C1182 C 0.79005 0.75475 0.70332 0.0
C1183 C 0.81809 0.72833 0.7399 0.0
N1184 N 0.74818 0.77102 0.73047 0.0
N1185 N 0.79885 0.73765 0.75158 0.0
H1186 H 0.69247 0.24836 0.18897 0.0
H1187 H 0.81411 0.26513 0.27051 0.0
H1188 H 0.71892 0.31302 0.22103 0.0
H1189 H 0.79409 0.20301 0.22421 0.0
H1190 H 0.77776 0.28187 0.25603 0.0
H1191 H 0.7283 0.23047 0.20452 0.0
C1192 C 0.7058 0.2588 0.19918 0.0
C1193 C 0.70268 0.28224 0.20365 0.0
C1194 C 0.78127 0.26455 0.24905 0.0
C1195 C 0.74356 0.26187 0.22171 0.0
C1196 C 0.80202 0.25494 0.25743 0.0
C1197 C 0.80722 0.23263 0.24849 0.0
C1198 C 0.76548 0.25178 0.23169 0.0
C1199 C 0.79084 0.22028 0.23154 0.0
C1200 C 0.72623 0.24858 0.20806 0.0
C1201 C 0.72053 0.29492 0.21704 0.0
N1202 N 0.77071 0.23003 0.22366 0.0
N1203 N 0.74012 0.28457 0.22566 0.0
H1204 H 0.71521 0.26378 0.71991 0.0
H1205 H 0.81315 0.2235 0.83548 0.0
H1206 H 0.70134 0.23001 0.80622 0.0
H1207 H 0.8258 0.26489 0.75508 0.0
H1208 H 0.77224 0.22534 0.82512 0.0
H1209 H 0.75586 0.26342 0.73191 0.0
C1210 C 0.7207 0.25619 0.74136 0.0
C1211 C 0.7048 0.24688 0.76207 0.0
C1212 C 0.78396 0.23413 0.80985 0.0
C1213 C 0.75145 0.2465 0.77603 0.0
C1214 C 0.80734 0.23313 0.81578 0.0
C1215 C 0.82298 0.24402 0.79608 0.0
C1216 C 0.77611 0.24598 0.7839 0.0
C1217 C 0.81441 0.25624 0.77091 0.0
C1218 C 0.74395 0.25609 0.74825 0.0
C1219 C 0.71297 0.23737 0.78955 0.0
N1220 N 0.79158 0.25677 0.76545 0.0
N1221 N 0.73573 0.2374 0.79571 0.0
H1222 H 0.8029 0.7686 0.2726 0.0
H1223 H 0.67709 0.72712 0.22526 0.0
H1224 H 0.78468 0.7456 0.18139 0.0
H1225 H 0.69376 0.75879 0.31218 0.0
H1226 H 0.71753 0.72821 0.21148 0.0
H1227 H 0.7642 0.75969 0.28987 0.0
C1228 C 0.79085 0.76148 0.25623 0.0
C1229 C 0.79705 0.75805 0.22538 0.0
C1230 C 0.71236 0.73472 0.23369 0.0
C1231 C 0.75257 0.74786 0.24507 0.0
C1232 C 0.68926 0.73401 0.24165 0.0
C1233 C 0.68194 0.74307 0.26983 0.0
C1234 C 0.7283 0.7445 0.25407 0.0
C1235 C 0.69855 0.75177 0.29011 0.0
C1236 C 0.7687 0.75643 0.26613 0.0
C1237 C 0.78066 0.74868 0.20532 0.0
N1238 N 0.72089 0.75242 0.28174 0.0
N1239 N 0.75915 0.74405 0.21546 0.0
H1240 H 0.52279 0.44379 0.04006 0.0
H1241 H 0.48089 0.54517 0.93141 0.0
H1242 H 0.46927 0.43643 0.97237 0.0
H1243 H 0.5273 0.55522 0.00752 0.0
H1244 H 0.47739 0.50502 0.94524 0.0
H1245 H 0.52516 0.48447 0.02828 0.0
C1246 C 0.5114 0.45074 0.0229 0.0
C1247 C 0.49584 0.43662 0.00714 0.0
C1248 C 0.48834 0.51599 0.95895 0.0
C1249 C 0.49866 0.48317 -0.00671 0.0
C1250 C 0.49043 0.53894 0.95098 0.0
C1251 C 0.50444 0.55364 0.9683 0.0
C1252 C 0.50042 0.50756 0.98437 0.0
C1253 C 0.51631 0.54454 -0.00651 0.0
C1254 C 0.5128 0.47398 0.01614 0.0
C1255 C 0.48153 0.44662 0.98512 0.0
N1256 N 0.51406 0.52209 0.00073 0.0
N1257 N 0.48339 0.46922 0.97873 0.0
H1258 H 0.98257 0.4492 0.53721 0.0
H1259 H 0.03336 0.57209 0.49292 0.0
H1260 H 0.03565 0.45997 0.46982 0.0
H1261 H 0.97629 0.56207 0.55431 0.0
H1262 H 0.03575 0.53089 0.48636 0.0
H1263 H 0.98088 0.49034 0.54527 0.0
C1264 C 0.99381 0.4602 0.524 0.0
C1265 C 0.00926 0.45108 0.50276 0.0
C1266 C 0.02275 0.53769 0.50135 0.0
C1267 C 0.00753 0.49824 0.51208 0.0
C1268 C 0.02143 0.56124 0.50522 0.0
C1269 C 0.00455 0.5706 0.52416 0.0
C1270 C 0.00711 0.52332 0.51654 0.0
C1271 C 0.98956 0.55564 0.53946 0.0
C1272 C 0.99286 0.48371 0.52867 0.0
C1273 C 0.02343 0.46621 0.48638 0.0
N1274 N 0.99115 0.53277 0.53525 0.0
N1275 N 0.02225 0.489 0.49144 0.0
H1276 H 0.00295 0.45346 0.94084 0.0
H1277 H 0.0305 0.55271 0.06148 0.0
H1278 H 0.04248 0.44383 0.02361 0.0
H1279 H 0.98521 0.56085 0.98396 0.0
H1280 H 0.03291 0.51211 0.04987 0.0
H1281 H 0.99422 0.49212 0.95782 0.0
C1282 C 0.00965 0.45938 0.96268 0.0
C1283 C 0.02363 0.4454 0.98067 0.0
C1284 C 0.02226 0.52272 0.03556 0.0
C1285 C 0.0138 0.48972 0.0002 0.0
C1286 C 0.02085 0.54594 0.04222 0.0
C1287 C 0.00778 0.56029 0.02354 0.0
C1288 C 0.01067 0.51377 0.00986 0.0
C1289 C 0.99558 0.55048 -0.00106 0.0
C1290 C 0.00465 0.48147 0.97238 0.0
C1291 C 0.03174 0.45401 0.00885 0.0
N1292 N 0.99752 0.5279 -0.00736 0.0
N1293 N 0.02687 0.47564 0.01759 0.0
H1294 H 0.49999 0.42992 0.54357 0.0
H1295 H 0.51474 0.53178 0.42239 0.0
H1296 H 0.55041 0.43088 0.47121 0.0
H1297 H 0.46335 0.53054 0.49349 0.0
H1298 H 0.52829 0.49494 0.4404 0.0
H1299 H 0.48678 0.46715 0.52633 0.0
C1300 C 0.50835 0.43799 0.52415 0.0
C1301 C 0.5263 0.42724 0.50879 0.0
C1302 C 0.51403 0.50272 0.45205 0.0
C1303 C 0.51122 0.46978 0.48885 0.0
C1304 C 0.50626 0.52375 0.44174 0.0
C1305 C 0.48787 0.53427 0.45644 0.0
C1306 C 0.50336 0.49211 0.47727 0.0
C1307 C 0.47757 0.52305 0.48144 0.0
C1308 C 0.50077 0.45922 0.51428 0.0
C1309 C 0.53648 0.4385 0.48374 0.0
N1310 N 0.48547 0.50259 0.49108 0.0
N1311 N 0.52877 0.45912 0.47453 0.0
H1312 H 0.1254 0.33306 0.04625 0.0
H1313 H 0.08359 0.35549 0.21706 0.0
H1314 H 0.07509 0.38315 0.07043 0.0
H1315 H 0.13953 0.31111 0.19514 0.0
H1316 H 0.08283 0.36832 0.16391 0.0
H1317 H 0.13371 0.32763 0.10073 0.0
C1318 C 0.11629 0.34314 0.06301 0.0
C1319 C 0.09925 0.35833 0.05381 0.0
C1320 C 0.09542 0.35592 0.17069 0.0
C1321 C 0.10857 0.35203 0.11621 0.0
C1322 C 0.0958 0.34848 0.20105 0.0
C1323 C 0.11145 0.33194 0.21044 0.0
C1324 C 0.11062 0.34659 0.14935 0.0
C1325 C 0.12707 0.32376 0.1888 0.0
C1326 C 0.12107 0.34002 0.09413 0.0
C1327 C 0.08821 0.37111 0.07648 0.0
N1328 N 0.12608 0.33098 0.1591 0.0
N1329 N 0.09285 0.36743 0.10668 0.0
H1330 H 0.89726 0.78482 0.31048 0.0
H1331 H 0.97253 0.86671 0.4181 0.0
H1332 H 0.9054 0.85691 0.29462 0.0
H1333 H 0.98344 0.79437 0.4098 0.0
H1334 H 0.94119 0.86352 0.3811 0.0
H1335 H 0.92105 0.78848 0.3568 0.0
C1336 C 0.90335 0.80153 0.31741 0.0
C1337 C 0.89952 0.82059 0.29879 0.0
C1338 C 0.95044 0.84836 0.38747 0.0
C1339 C 0.9269 0.82482 0.35101 0.0
C1340 C 0.96838 0.85017 0.40844 0.0
C1341 C 0.98081 0.83082 0.41675 0.0
C1342 C 0.94466 0.82701 0.37503 0.0
C1343 C 0.97454 0.80979 0.4037 0.0
C1344 C 0.91717 0.80356 0.34351 0.0
C1345 C 0.90809 0.84181 0.3084 0.0
N1346 N 0.95687 0.80843 0.3835 0.0
N1347 N 0.92158 0.84333 0.33372 0.0
H1348 H 0.41864 0.73861 0.61091 0.0
H1349 H 0.41188 0.61854 0.53593 0.0
H1350 H 0.37236 0.68762 0.64661 0.0
H1351 H 0.42659 0.67857 0.48192 0.0
H1352 H 0.39716 0.64297 0.57703 0.0
H1353 H 0.4214 0.71707 0.56296 0.0
C1354 C 0.40864 0.72311 0.60825 0.0
C1355 C 0.39527 0.71479 0.63251 0.0
C1356 C 0.40326 0.6507 0.55592 0.0
C1357 C 0.39895 0.6897 0.57844 0.0
C1358 C 0.41179 0.63682 0.53261 0.0
C1359 C 0.42065 0.64659 0.50566 0.0
C1360 C 0.40408 0.67446 0.55238 0.0
C1361 C 0.41999 0.67034 0.50237 0.0
C1362 C 0.41022 0.71082 0.58098 0.0
C1363 C 0.38273 0.69459 0.6282 0.0
N1364 N 0.41221 0.68349 0.52568 0.0
N1365 N 0.38529 0.68238 0.60186 0.0
H1366 H 0.57415 0.27198 0.8628 0.0
H1367 H 0.5241 0.16069 0.94515 0.0
H1368 H 0.60067 0.205 0.84581 0.0
H1369 H 0.49359 0.2273 0.94763 0.0
H1370 H 0.5557 0.17661 0.91481 0.0
H1371 H 0.54972 0.25628 0.903 0.0
C1372 C 0.57532 0.25403 0.86833 0.0
C1373 C 0.58928 0.2397 0.85104 0.0
C1374 C 0.54205 0.18767 0.92205 0.0
C1375 C 0.56064 0.22137 0.89589 0.0
C1376 C 0.52391 0.17858 0.9391 0.0
C1377 C 0.50605 0.19264 0.94879 0.0
C1378 C 0.54237 0.21098 0.91491 0.0
C1379 C 0.50684 0.21573 0.94055 0.0
C1380 C 0.56115 0.245 0.89096 0.0
C1381 C 0.59016 0.21657 0.85886 0.0
N1382 N 0.52469 0.22414 0.92419 0.0
N1383 N 0.5756 0.20796 0.88039 0.0
H1384 H 0.04778 0.70804 0.42641 0.0
H1385 H 0.10904 0.63996 0.29616 0.0
H1386 H 0.05507 0.63499 0.42946 0.0
H1387 H 0.11946 0.71209 0.30913 0.0
H1388 H 0.09333 0.63724 0.34801 0.0
H1389 H 0.07663 0.70987 0.38603 0.0
C1390 C 0.05549 0.69238 0.41864 0.0
C1391 C 0.04871 0.67128 0.43094 0.0
C1392 C 0.09958 0.65359 0.33991 0.0
C1393 C 0.08184 0.67329 0.38481 0.0
C1394 C 0.10866 0.6551 0.31038 0.0
C1395 C 0.1153 0.67631 0.29839 0.0
C1396 C 0.09658 0.67354 0.35717 0.0
C1397 C 0.11449 0.69543 0.31762 0.0
C1398 C 0.07214 0.69347 0.39579 0.0
C1399 C 0.05958 0.6516 0.42037 0.0
N1400 N 0.10468 0.69371 0.34587 0.0
N1401 N 0.07538 0.65305 0.39759 0.0
H1402 H 0.64317 0.83149 0.6862 0.0
H1403 H 0.57801 0.80231 0.53264 0.0
H1404 H 0.58305 0.78849 0.68564 0.0
H1405 H 0.59984 0.87158 0.54952 0.0
H1406 H 0.58705 0.7928 0.58602 0.0
H1407 H 0.63485 0.84246 0.63258 0.0
C1408 C 0.62841 0.82422 0.67467 0.0
C1409 C 0.61374 0.80909 0.69013 0.0
C1410 C 0.58982 0.81008 0.578 0.0
C1411 C 0.60442 0.82124 0.62953 0.0
C1412 C 0.58472 0.8155 0.54767 0.0
C1413 C 0.58812 0.83776 0.5369 0.0
C1414 C 0.59895 0.82688 0.59743 0.0
C1415 C 0.59682 0.85428 0.5572 0.0
C1416 C 0.62359 0.83062 0.64438 0.0
C1417 C 0.59471 0.80027 0.67446 0.0
N1418 N 0.60222 0.84844 0.58661 0.0
N1419 N 0.5907 0.80631 0.64488 0.0
H1420 H 0.36581 0.28562 0.81038 0.0
H1421 H 0.45409 0.36768 0.89762 0.0
H1422 H 0.42156 0.32038 0.76525 0.0
H1423 H 0.42762 0.30494 0.93557 0.0
H1424 H 0.43024 0.36157 0.85164 0.0
H1425 H 0.37658 0.30451 0.85893 0.0
C1426 C 0.37977 0.29785 0.81053 0.0
C1427 C 0.39303 0.30139 0.78416 0.0
C1428 C 0.4293 0.3495 0.87046 0.0
C1429 C 0.40518 0.32295 0.83886 0.0
C1430 C 0.44283 0.35296 0.89657 0.0
C1431 C 0.44301 0.33654 0.91995 0.0
C1432 C 0.4156 0.32981 0.86831 0.0
C1433 C 0.42818 0.31775 0.91766 0.0
C1434 C 0.38595 0.30848 0.83811 0.0
C1435 C 0.41111 0.31715 0.78535 0.0
N1436 N 0.41514 0.31479 0.89214 0.0
N1437 N 0.41682 0.32725 0.8124 0.0
H1438 H 0.87569 0.1867 0.18558 0.0
H1439 H 0.93743 0.20054 0.02478 0.0
H1440 H 0.93499 0.22993 0.17419 0.0
H1441 H 0.91614 0.1341 0.05683 0.0
H1442 H 0.92742 0.21656 0.07478 0.0
H1443 H 0.88098 0.17249 0.13276 0.0
C1444 C 0.88941 0.19361 0.17163 0.0
C1445 C 0.90493 0.2095 0.18394 0.0
C1446 C 0.92484 0.19851 0.07074 0.0
C1447 C 0.91092 0.19352 0.12428 0.0
C1448 C 0.9305 0.18935 0.04232 0.0
C1449 C 0.92768 0.16594 0.03684 0.0
C1450 C 0.91581 0.18429 0.09359 0.0
C1451 C 0.91873 0.15219 0.06036 0.0
C1452 C 0.89255 0.18533 0.14183 0.0
C1453 C 0.9227 0.21769 0.16535 0.0
N1454 N 0.91293 0.16162 0.08783 0.0
N1455 N 0.92519 0.20965 0.13631 0.0
H1456 H 0.96449 0.69242 0.91984 0.0
H1457 H 0.92767 0.62293 0.77384 0.0
H1458 H 0.96935 0.61916 0.91715 0.0
H1459 H 0.89844 0.68808 0.79571 0.0
H1460 H 0.94224 0.62037 0.82643 0.0
H1461 H 0.94024 0.69108 0.87416 0.0
C1462 C 0.96042 0.67604 0.90964 0.0
C1463 C 0.96914 0.65588 0.92205 0.0
C1464 C 0.93224 0.63501 0.81991 0.0
C1465 C 0.94143 0.65425 0.86983 0.0
C1466 C 0.92393 0.63647 0.78992 0.0
C1467 C 0.91208 0.65587 0.78037 0.0
C1468 C 0.92911 0.6533 0.84018 0.0
C1469 C 0.90757 0.67287 0.80213 0.0
C1470 C 0.94641 0.67528 0.88376 0.0
C1471 C 0.96307 0.63511 0.90818 0.0
N1472 N 0.91652 0.67142 0.83089 0.0
N1473 N 0.94983 0.63484 0.88249 0.0
H1474 H 0.01766 0.24304 0.68457 0.0
H1475 H 0.03571 0.14522 0.55913 0.0
H1476 H 0.08343 0.21326 0.66695 0.0
H1477 H 0.97276 0.18086 0.57437 0.0
H1478 H 0.05297 0.16636 0.60229 0.0
H1479 H 1.00069 0.21765 0.64684 0.0
C1480 C 0.02861 0.23122 0.67262 0.0
C1481 C 0.05205 0.23035 0.6789 0.0
C1482 C 0.0353 0.16929 0.59636 0.0
C1483 C 0.03255 0.20091 0.63552 0.0
C1484 C 0.0254 0.15708 0.57201 0.0
C1485 C 0.00287 0.1615 0.56313 0.0
C1486 C 0.02242 0.1858 0.6118 0.0
C1487 C 0.99027 0.17714 0.5803 0.0
C1488 C 0.01885 0.21661 0.65109 0.0
C1489 C 0.06531 0.2146 0.66265 0.0
N1490 N 1.00026 0.18881 0.60362 0.0
N1491 N 0.05535 0.20045 0.64165 0.0
H1492 H 0.58193 0.37365 0.41675 0.0
H1493 H 0.64251 0.30604 0.28053 0.0
H1494 H 0.60663 0.30485 0.42455 0.0
H1495 H 0.60559 0.3686 0.26817 0.0
H1496 H 0.63782 0.30979 0.33621 0.0
H1497 H 0.59791 0.37579 0.36492 0.0
C1498 C 0.59078 0.35903 0.40763 0.0
C1499 C 0.59263 0.33891 0.42482 0.0
C1500 C 0.63108 0.32288 0.3213 0.0
C1501 C 0.61112 0.34135 0.36571 0.0
C1502 C 0.63392 0.32085 0.28955 0.0
C1503 C 0.62401 0.33679 0.26973 0.0
C1504 C 0.61835 0.34102 0.33315 0.0
C1505 C 0.61313 0.35569 0.28264 0.0
C1506 C 0.59996 0.3603 0.37809 0.0
C1507 C 0.6045 0.32059 0.41195 0.0
N1508 N 0.61031 0.35712 0.31355 0.0
N1509 N 0.61317 0.3222 0.38309 0.0
H1510 H 0.4503 0.80598 0.98645 0.0
H1511 H 0.39911 0.81253 0.15631 0.0
H1512 H 0.44901 0.86885 0.03801 0.0
H1513 H 0.42615 0.752 0.11428 0.0
H1514 H 0.40769 0.83379 0.10878 0.0
H1515 H 0.4313 0.78671 0.02883 0.0
C1516 C 0.4459 0.81582 0.00664 0.0
C1517 C 0.4517 0.839 0.00894 0.0
C1518 C 0.4114 0.81578 0.10996 0.0
C1519 C 0.42984 0.81688 0.05765 0.0
C1520 C 0.40641 0.80366 0.13687 0.0
C1521 C 0.41217 0.78059 0.13915 0.0
C1522 C 0.42177 0.80453 0.08522 0.0
C1523 C 0.42169 0.76984 0.11352 0.0
C1524 C 0.43501 0.80476 0.03082 0.0
C1525 C 0.44511 0.85089 0.03547 0.0
N1526 N 0.42625 0.78191 0.08767 0.0
N1527 N 0.43471 0.83961 0.05906 0.0
H1528 H 0.95102 0.35399 0.58969 0.0
H1529 H 0.97506 0.27123 0.72946 0.0
H1530 H 0.0175 0.3394 0.62653 0.0
H1531 H 0.90666 0.2889 0.70208 0.0
H1532 H 0.99008 0.30037 0.69565 0.0
H1533 H 0.93356 0.33591 0.63508 0.0
C1534 C 0.96188 0.34786 0.60802 0.0
C1535 C 0.98564 0.34802 0.60462 0.0
C1536 C 0.97175 0.29808 0.69699 0.0
C1537 C 0.96607 0.32691 0.65565 0.0
C1538 C 0.96313 0.28121 0.71616 0.0
C1539 C 0.93954 0.27734 0.71824 0.0
C1540 C 0.95679 0.3111 0.67916 0.0
C1541 C 0.92498 0.29117 0.70087 0.0
C1542 C 0.95196 0.33731 0.63367 0.0
C1543 C 0.99908 0.3395 0.62847 0.0
N1544 N 0.93387 0.30731 0.68168 0.0
N1545 N 0.98911 0.32901 0.65277 0.0
H1546 H 0.3815 0.16261 0.3243 0.0
H1547 H 0.477 0.17906 0.44881 0.0
H1548 H 0.45096 0.17743 0.29769 0.0
H1549 H 0.4314 0.12123 0.45632 0.0
H1550 H 0.46342 0.18534 0.39614 0.0
H1551 H 0.39508 0.15385 0.37675 0.0
C1552 C 0.39951 0.16412 0.32958 0.0
C1553 C 0.41519 0.17066 0.30683 0.0
C1554 C 0.45652 0.17121 0.40933 0.0
C1555 C 0.43054 0.16115 0.36607 0.0
C1556 C 0.46424 0.16761 0.4392 0.0
C1557 C 0.45541 0.14949 0.45657 0.0
C1558 C 0.43935 0.15704 0.39723 0.0
C1559 C 0.43879 0.13519 0.44332 0.0
C1560 C 0.40721 0.15898 0.35924 0.0
C1561 C 0.43838 0.17229 0.3146 0.0
N1562 N 0.43099 0.13946 0.41442 0.0
N1563 N 0.44534 0.16782 0.34369 0.0
H1564 H 0.55374 0.64242 0.0637 0.0
H1565 H 0.5295 0.73555 0.19277 0.0
H1566 H 0.49083 0.67893 0.07405 0.0
H1567 H 0.59538 0.70453 0.18084 0.0
H1568 H 0.5137 0.70999 0.15438 0.0
H1569 H 0.56737 0.659 0.11241 0.0
C1570 C 0.54249 0.65322 0.07686 0.0
C1571 C 0.52122 0.65949 0.06499 0.0
C1572 C 0.53162 0.70867 0.16009 0.0
C1573 C 0.53674 0.6788 0.11983 0.0
C1574 C 0.54074 0.72342 0.18195 0.0
C1575 C 0.56393 0.72244 0.18979 0.0
C1576 C 0.54573 0.69281 0.14556 0.0
C1577 C 0.57747 0.70606 0.17523 0.0
C1578 C 0.55037 0.66292 0.10437 0.0
C1579 C 0.5074 0.67381 0.08247 0.0
N1580 N 0.5682 0.69196 0.15358 0.0
N1581 N 0.5155 0.68319 0.10882 0.0
H1582 H 0.07739 0.87744 0.79378 0.0
H1583 H 0.02514 0.80455 0.9278 0.0
H1584 H 0.10229 0.81057 0.81599 0.0
H1585 H 0.0238 0.87801 0.93002 0.0
H1586 H 0.05289 0.80644 0.88599 0.0
H1587 H 0.05823 0.87879 0.84369 0.0
C1588 C 0.07929 0.86329 0.80954 0.0
C1589 C 0.09127 0.84379 0.80074 0.0
C1590 C 0.04666 0.82214 0.8958 0.0
C1591 C 0.06887 0.84493 0.85727 0.0
C1592 C 0.03063 0.82108 0.91942 0.0
C1593 C 0.02198 0.84116 0.93217 0.0
C1594 C 0.05379 0.84342 0.88445 0.0
C1595 C 0.02995 0.86212 0.92071 0.0
C1596 C 0.06831 0.86404 0.83794 0.0
C1597 C 0.09323 0.82592 0.82193 0.0
N1598 N 0.04522 0.86271 0.8972 0.0
N1599 N 0.08168 0.82669 0.849 0.0
loop_
_geom_bond_atom_site_label_1
_geom_bond_atom_site_label_2
_geom_bond_distance
_geom_bond_site_symmetry_2
_ccdc_geom_bond_type
Zn0 O3 2.031 . S
Zn0 O5 2.049 . S
Zn0 O10 2.067 . S
Zn1 O2 1.962 . S
Zn1 O4 1.986 . S
Zn1 O6 1.996 . S
Zn1 O9 1.943 . S
O2 Zn1 1.962 . S
O2 C7 1.254 . S
O3 Zn0 2.031 . S
O3 C7 1.269 . S
O4 Zn1 1.986 . S
O4 C11 1.262 . S
O5 Zn0 2.049 . S
O5 C13 1.260 . S
O6 Zn1 1.996 . S
O6 C13 1.257 . S
C7 O2 1.254 . S
C7 O3 1.269 . S
C8 O9 1.249 . S
C8 O10 1.270 . S
O9 Zn1 1.943 . S
O9 C8 1.249 . S
O10 Zn0 2.067 . S
O10 C8 1.270 . S
C11 O4 1.262 . S
C11 O12 1.232 . S
O12 C11 1.232 . S
C13 O5 1.260 . S
C13 O6 1.257 . S
Zn14 O17 2.031 1_655 S
Zn14 O19 2.049 . S
Zn14 O24 2.067 . S
Zn15 O16 1.962 1_655 S
Zn15 O18 1.986 . S
Zn15 O20 1.996 . S
Zn15 O23 1.943 . S
O16 Zn15 1.962 1_455 S
O16 C21 1.254 . S
O17 Zn14 2.031 1_455 S
O17 C21 1.269 . S
O18 Zn15 1.986 . S
O18 C25 1.262 . S
O19 Zn14 2.049 . S
O19 C27 1.260 . S
O20 Zn15 1.996 . S
O20 C27 1.257 . S
C21 O16 1.254 . S
C21 O17 1.269 . S
C22 O23 1.249 . S
C22 O24 1.270 . S
O23 Zn15 1.943 . S
O23 C22 1.249 . S
O24 Zn14 2.067 . S
O24 C22 1.270 . S
C25 O18 1.262 . S
C25 O26 1.232 . S
O26 C25 1.232 . S
C27 O19 1.260 . S
C27 O20 1.257 . S
Zn28 O31 2.031 . S
Zn28 O33 2.049 . S
Zn28 O38 2.067 . S
Zn29 O30 1.962 . S
Zn29 O32 1.986 . S
Zn29 O34 1.996 . S
Zn29 O37 1.943 . S
O30 Zn29 1.962 . S
O30 C35 1.254 . S
O31 Zn28 2.031 . S
O31 C35 1.269 . S
O32 Zn29 1.986 . S
O32 C39 1.262 . S
O33 Zn28 2.049 . S
O33 C41 1.260 . S
O34 Zn29 1.996 . S
O34 C41 1.257 . S
C35 O30 1.254 . S
C35 O31 1.269 . S
C36 O37 1.249 . S
C36 O38 1.270 . S
O37 Zn29 1.943 . S
O37 C36 1.249 . S
O38 Zn28 2.067 . S
O38 C36 1.270 . S
C39 O32 1.262 . S
C39 O40 1.232 . S
O40 C39 1.232 . S
C41 O33 1.260 . S
C41 O34 1.257 . S
Zn42 O45 2.031 . S
Zn42 O47 2.049 1_554 S
Zn42 O52 2.067 . S
Zn43 O44 1.962 . S
Zn43 O46 1.986 1_554 S
Zn43 O48 1.996 1_554 S
Zn43 O51 1.943 . S
O44 Zn43 1.962 . S
O44 C49 1.254 . S
O45 Zn42 2.031 . S
O45 C49 1.269 . S
O46 Zn43 1.986 1_556 S
O46 C53 1.262 1_556 S
O47 Zn42 2.049 1_556 S
O47 C55 1.260 . S
O48 Zn43 1.996 1_556 S
O48 C55 1.257 . S
C49 O44 1.254 . S
C49 O45 1.269 . S
C50 O51 1.249 . S
C50 O52 1.270 . S
O51 Zn43 1.943 . S
O51 C50 1.249 . S
O52 Zn42 2.067 . S
O52 C50 1.270 . S
C53 O46 1.262 1_554 S
C53 O54 1.232 . S
O54 C53 1.232 . S
C55 O47 1.260 . S
C55 O48 1.257 . S
Zn56 O59 2.031 . S
Zn56 O61 2.049 . S
Zn56 O66 2.067 . S
Zn57 O58 1.962 . S
Zn57 O60 1.986 . S
Zn57 O62 1.996 . S
Zn57 O65 1.943 . S
O58 Zn57 1.962 . S
O58 C63 1.254 . S
O59 Zn56 2.031 . S
O59 C63 1.269 . S
O60 Zn57 1.986 . S
O60 C67 1.262 . S
O61 Zn56 2.049 . S
O61 C69 1.260 . S
O62 Zn57 1.996 . S
O62 C69 1.257 . S
C63 O58 1.254 . S
C63 O59 1.269 . S
C64 O65 1.249 . S
C64 O66 1.270 . S
O65 Zn57 1.943 . S
O65 C64 1.249 . S
O66 Zn56 2.067 . S
O66 C64 1.270 . S
C67 O60 1.262 . S
C67 O68 1.232 . S
O68 C67 1.232 . S
C69 O61 1.260 . S
C69 O62 1.257 . S
Zn70 O73 2.031 . S
Zn70 O75 2.049 . S
Zn70 O80 2.067 . S
Zn71 O72 1.962 . S
Zn71 O74 1.986 . S
Zn71 O76 1.996 . S
Zn71 O79 1.943 . S
O72 Zn71 1.962 . S
O72 C77 1.254 . S
O73 Zn70 2.031 . S
O73 C77 1.269 . S
O74 Zn71 1.986 . S
O74 C81 1.262 . S
O75 Zn70 2.049 . S
O75 C83 1.260 . S
O76 Zn71 1.996 . S
O76 C83 1.257 . S
C77 O72 1.254 . S
C77 O73 1.269 . S
C78 O79 1.249 . S
C78 O80 1.270 . S
O79 Zn71 1.943 . S
O79 C78 1.249 . S
O80 Zn70 2.067 . S
O80 C78 1.270 . S
C81 O74 1.262 . S
C81 O82 1.232 . S
O82 C81 1.232 . S
C83 O75 1.260 . S
C83 O76 1.257 . S
Zn84 O87 2.031 . S
Zn84 O89 2.049 . S
Zn84 O94 2.067 . S
Zn85 O86 1.962 . S
Zn85 O88 1.986 . S
Zn85 O90 1.996 . S
Zn85 O93 1.943 . S
O86 Zn85 1.962 . S
O86 C91 1.254 . S
O87 Zn84 2.031 . S
O87 C91 1.269 . S
O88 Zn85 1.986 . S
O88 C95 1.262 . S
O89 Zn84 2.049 . S
O89 C97 1.260 . S
O90 Zn85 1.996 . S
O90 C97 1.257 . S
C91 O86 1.254 . S
C91 O87 1.269 . S
C92 O93 1.249 . S
C92 O94 1.270 . S
O93 Zn85 1.943 . S
O93 C92 1.249 . S
O94 Zn84 2.067 . S
O94 C92 1.270 . S
C95 O88 1.262 . S
C95 O96 1.232 . S
O96 C95 1.232 . S
C97 O89 1.260 . S
C97 O90 1.257 . S
Zn98 O101 2.031 1_655 S
Zn98 O103 2.049 1_556 S
Zn98 O108 2.067 . S
Zn99 O100 1.962 1_655 S
Zn99 O102 1.986 1_556 S
Zn99 O104 1.996 1_556 S
Zn99 O107 1.943 . S
O100 Zn99 1.962 1_455 S
O100 C105 1.254 . S
O101 Zn98 2.031 1_455 S
O101 C105 1.269 . S
O102 Zn99 1.986 1_554 S
O102 C109 1.262 1_554 S
O103 Zn98 2.049 1_554 S
O103 C111 1.260 . S
O104 Zn99 1.996 1_554 S
O104 C111 1.257 . S
C105 O100 1.254 . S
C105 O101 1.269 . S
C106 O107 1.249 . S
C106 O108 1.270 . S
O107 Zn99 1.943 . S
O107 C106 1.249 . S
O108 Zn98 2.067 . S
O108 C106 1.270 . S
C109 O102 1.262 1_556 S
C109 O110 1.232 . S
O110 C109 1.232 . S
C111 O103 1.260 . S
C111 O104 1.257 . S
Zn112 O115 2.031 . S
Zn112 O117 2.049 . S
Zn112 O122 2.067 . S
Zn113 O114 1.962 . S
Zn113 O116 1.986 . S
Zn113 O118 1.996 . S
Zn113 O121 1.943 . S
O114 Zn113 1.962 . S
O114 C119 1.254 . S
O115 Zn112 2.031 . S
O115 C119 1.269 . S
O116 Zn113 1.986 . S
O116 C123 1.262 . S
O117 Zn112 2.049 . S
O117 C125 1.260 . S
O118 Zn113 1.996 . S
O118 C125 1.257 . S
C119 O114 1.254 . S
C119 O115 1.269 . S
C120 O121 1.249 . S
C120 O122 1.270 . S
O121 Zn113 1.943 . S
O121 C120 1.249 . S
O122 Zn112 2.067 . S
O122 C120 1.270 . S
C123 O116 1.262 . S
C123 O124 1.232 . S
O124 C123 1.232 . S
C125 O117 1.260 . S
C125 O118 1.257 . S
Zn126 O129 2.031 1_455 S
Zn126 O131 2.049 . S
Zn126 O136 2.067 . S
Zn127 O128 1.962 1_455 S
Zn127 O130 1.986 . S
Zn127 O132 1.996 . S
Zn127 O135 1.943 . S
O128 Zn127 1.962 1_655 S
O128 C133 1.254 . S
O129 Zn126 2.031 1_655 S
O129 C133 1.269 . S
O130 Zn127 1.986 . S
O130 C137 1.262 . S
O131 Zn126 2.049 . S
O131 C139 1.260 . S
O132 Zn127 1.996 . S
O132 C139 1.257 . S
C133 O128 1.254 . S
C133 O129 1.269 . S
C134 O135 1.249 . S
C134 O136 1.270 . S
O135 Zn127 1.943 . S
O135 C134 1.249 . S
O136 Zn126 2.067 . S
O136 C134 1.270 . S
C137 O130 1.262 . S
C137 O138 1.232 . S
O138 C137 1.232 . S
C139 O131 1.260 . S
C139 O132 1.257 . S
Zn140 O143 2.031 . S
Zn140 O145 2.049 . S
Zn140 O150 2.067 . S
Zn141 O142 1.962 . S
Zn141 O144 1.986 . S
Zn141 O146 1.996 . S
Zn141 O149 1.943 . S
O142 Zn141 1.962 . S
O142 C147 1.254 . S
O143 Zn140 2.031 . S
O143 C147 1.269 . S
O144 Zn141 1.986 . S
O144 C151 1.262 . S
O145 Zn140 2.049 . S
O145 C153 1.260 . S
O146 Zn141 1.996 . S
O146 C153 1.257 . S
C147 O142 1.254 . S
C147 O143 1.269 . S
C148 O149 1.249 . S
C148 O150 1.270 . S
O149 Zn141 1.943 . S
O149 C148 1.249 . S
O150 Zn140 2.067 . S
O150 C148 1.270 . S
C151 O144 1.262 . S
C151 O152 1.232 . S
O152 C151 1.232 . S
C153 O145 1.260 . S
C153 O146 1.257 . S
Zn154 O157 2.031 . S
Zn154 O159 2.049 1_556 S
Zn154 O164 2.067 . S
Zn155 O156 1.962 . S
Zn155 O158 1.986 1_556 S
Zn155 O160 1.996 1_556 S
Zn155 O163 1.943 . S
O156 Zn155 1.962 . S
O156 C161 1.254 . S
O157 Zn154 2.031 . S
O157 C161 1.269 . S
O158 Zn155 1.986 1_554 S
O158 C165 1.262 1_554 S
O159 Zn154 2.049 1_554 S
O159 C167 1.260 . S
O160 Zn155 1.996 1_554 S
O160 C167 1.257 . S
C161 O156 1.254 . S
C161 O157 1.269 . S
C162 O163 1.249 . S
C162 O164 1.270 . S
O163 Zn155 1.943 . S
O163 C162 1.249 . S
O164 Zn154 2.067 . S
O164 C162 1.270 . S
C165 O158 1.262 1_556 S
C165 O166 1.232 . S
O166 C165 1.232 . S
C167 O159 1.260 . S
C167 O160 1.257 . S
Zn168 O171 2.031 . S
Zn168 O173 2.049 . S
Zn168 O178 2.067 . S
Zn169 O170 1.962 . S
Zn169 O172 1.986 . S
Zn169 O174 1.996 . S
Zn169 O177 1.943 . S
O170 Zn169 1.962 . S
O170 C175 1.254 . S
O171 Zn168 2.031 . S
O171 C175 1.269 . S
O172 Zn169 1.986 . S
O172 C179 1.262 . S
O173 Zn168 2.049 . S
O173 C181 1.260 . S
O174 Zn169 1.996 . S
O174 C181 1.257 . S
C175 O170 1.254 . S
C175 O171 1.269 . S
C176 O177 1.249 . S
C176 O178 1.270 . S
O177 Zn169 1.943 . S
O177 C176 1.249 . S
O178 Zn168 2.067 . S
O178 C176 1.270 . S
C179 O172 1.262 . S
C179 O180 1.232 . S
O180 C179 1.232 . S
C181 O173 1.260 . S
C181 O174 1.257 . S
Zn182 O185 2.031 . S
Zn182 O187 2.049 . S
Zn182 O192 2.067 . S
Zn183 O184 1.962 . S
Zn183 O186 1.986 . S
Zn183 O188 1.996 . S
Zn183 O191 1.943 . S
O184 Zn183 1.962 . S
O184 C189 1.254 . S
O185 Zn182 2.031 . S
O185 C189 1.269 . S
O186 Zn183 1.986 . S
O186 C193 1.262 . S
O187 Zn182 2.049 . S
O187 C195 1.260 . S
O188 Zn183 1.996 . S
O188 C195 1.257 . S
C189 O184 1.254 . S
C189 O185 1.269 . S
C190 O191 1.249 . S
C190 O192 1.270 . S
O191 Zn183 1.943 . S
O191 C190 1.249 . S
O192 Zn182 2.067 . S
O192 C190 1.270 . S
C193 O186 1.262 . S
C193 O194 1.232 . S
O194 C193 1.232 . S
C195 O187 1.260 . S
C195 O188 1.257 . S
Zn196 O199 2.031 . S
Zn196 O201 2.049 . S
Zn196 O206 2.067 . S
Zn197 O198 1.962 . S
Zn197 O200 1.986 . S
Zn197 O202 1.996 . S
Zn197 O205 1.943 . S
O198 Zn197 1.962 . S
O198 C203 1.254 . S
O199 Zn196 2.031 . S
O199 C203 1.269 . S
O200 Zn197 1.986 . S
O200 C207 1.262 . S
O201 Zn196 2.049 . S
O201 C209 1.260 . S
O202 Zn197 1.996 . S
O202 C209 1.257 . S
C203 O198 1.254 . S
C203 O199 1.269 . S
C204 O205 1.249 . S
C204 O206 1.270 . S
O205 Zn197 1.943 . S
O205 C204 1.249 . S
O206 Zn196 2.067 . S
O206 C204 1.270 . S
C207 O200 1.262 . S
C207 O208 1.232 . S
O208 C207 1.232 . S
C209 O201 1.260 . S
C209 O202 1.257 . S
Zn210 O213 2.031 1_455 S
Zn210 O215 2.049 1_554 S
Zn210 O220 2.067 . S
Zn211 O212 1.962 1_455 S
Zn211 O214 1.986 1_554 S
Zn211 O216 1.996 1_554 S
Zn211 O219 1.943 . S
O212 Zn211 1.962 1_655 S
O212 C217 1.254 . S
O213 Zn210 2.031 1_655 S
O213 C217 1.269 . S
O214 Zn211 1.986 1_556 S
O214 C221 1.262 1_556 S
O215 Zn210 2.049 1_556 S
O215 C223 1.260 . S
O216 Zn211 1.996 1_556 S
O216 C223 1.257 . S
C217 O212 1.254 . S
C217 O213 1.269 . S
C218 O219 1.249 . S
C218 O220 1.270 . S
O219 Zn211 1.943 . S
O219 C218 1.249 . S
O220 Zn210 2.067 . S
O220 C218 1.270 . S
C221 O214 1.262 1_554 S
C221 O222 1.232 . S
O222 C221 1.232 . S
C223 O215 1.260 . S
C223 O216 1.257 . S
Zn224 O227 2.031 . S
Zn224 O229 2.049 . S
Zn224 O234 2.067 . S
Zn225 O226 1.962 . S
Zn225 O228 1.986 . S
Zn225 O230 1.996 . S
Zn225 O233 1.943 . S
O226 Zn225 1.962 . S
O226 C231 1.254 . S
O227 Zn224 2.031 . S
O227 C231 1.269 . S
O228 Zn225 1.986 . S
O228 C235 1.262 . S
O229 Zn224 2.049 . S
O229 C237 1.260 . S
O230 Zn225 1.996 . S
O230 C237 1.257 . S
C231 O226 1.254 . S
C231 O227 1.269 . S
C232 O233 1.249 . S
C232 O234 1.270 . S
O233 Zn225 1.943 . S
O233 C232 1.249 . S
O234 Zn224 2.067 . S
O234 C232 1.270 . S
C235 O228 1.262 . S
C235 O236 1.232 . S
O236 C235 1.232 . S
C237 O229 1.260 . S
C237 O230 1.257 . S
Zn238 O241 2.031 . S
Zn238 O243 2.049 1_554 S
Zn238 O248 2.067 . S
Zn239 O240 1.962 . S
Zn239 O242 1.986 1_554 S
Zn239 O244 1.996 1_554 S
Zn239 O247 1.943 . S
O240 Zn239 1.962 . S
O240 C245 1.254 . S
O241 Zn238 2.031 . S
O241 C245 1.269 . S
O242 Zn239 1.986 1_556 S
O242 C249 1.262 1_556 S
O243 Zn238 2.049 1_556 S
O243 C251 1.260 . S
O244 Zn239 1.996 1_556 S
O244 C251 1.257 . S
C245 O240 1.254 . S
C245 O241 1.269 . S
C246 O247 1.249 . S
C246 O248 1.270 . S
O247 Zn239 1.943 . S
O247 C246 1.249 . S
O248 Zn238 2.067 . S
O248 C246 1.270 . S
C249 O242 1.262 1_554 S
C249 O250 1.232 . S
O250 C249 1.232 . S
C251 O243 1.260 . S
C251 O244 1.257 . S
Zn252 O255 2.031 . S
Zn252 O257 2.049 . S
Zn252 O262 2.067 . S
Zn253 O254 1.962 . S
Zn253 O256 1.986 . S
Zn253 O258 1.996 . S
Zn253 O261 1.943 . S
O254 Zn253 1.962 . S
O254 C259 1.254 . S
O255 Zn252 2.031 . S
O255 C259 1.269 . S
O256 Zn253 1.986 . S
O256 C263 1.262 . S
O257 Zn252 2.049 . S
O257 C265 1.260 . S
O258 Zn253 1.996 . S
O258 C265 1.257 . S
C259 O254 1.254 . S
C259 O255 1.269 . S
C260 O261 1.249 . S
C260 O262 1.270 . S
O261 Zn253 1.943 . S
O261 C260 1.249 . S
O262 Zn252 2.067 . S
O262 C260 1.270 . S
C263 O256 1.262 . S
C263 O264 1.232 . S
O264 C263 1.232 . S
C265 O257 1.260 . S
C265 O258 1.257 . S
Zn266 O269 2.031 1_455 S
Zn266 O271 2.049 . S
Zn266 O276 2.067 . S
Zn267 O268 1.962 1_455 S
Zn267 O270 1.986 . S
Zn267 O272 1.996 . S
Zn267 O275 1.943 . S
O268 Zn267 1.962 1_655 S
O268 C273 1.254 . S
O269 Zn266 2.031 1_655 S
O269 C273 1.269 . S
O270 Zn267 1.986 . S
O270 C277 1.262 . S
O271 Zn266 2.049 . S
O271 C279 1.260 . S
O272 Zn267 1.996 . S
O272 C279 1.257 . S
C273 O268 1.254 . S
C273 O269 1.269 . S
C274 O275 1.249 . S
C274 O276 1.270 . S
O275 Zn267 1.943 . S
O275 C274 1.249 . S
O276 Zn266 2.067 . S
O276 C274 1.270 . S
C277 O270 1.262 . S
C277 O278 1.232 . S
O278 C277 1.232 . S
C279 O271 1.260 . S
C279 O272 1.257 . S
Zn280 O283 2.031 . S
Zn280 O285 2.049 . S
Zn280 O290 2.067 . S
Zn281 O282 1.962 . S
Zn281 O284 1.986 . S
Zn281 O286 1.996 . S
Zn281 O289 1.943 . S
O282 Zn281 1.962 . S
O282 C287 1.254 . S
O283 Zn280 2.031 . S
O283 C287 1.269 . S
O284 Zn281 1.986 . S
O284 C291 1.262 . S
O285 Zn280 2.049 . S
O285 C293 1.260 . S
O286 Zn281 1.996 . S
O286 C293 1.257 . S
C287 O282 1.254 . S
C287 O283 1.269 . S
C288 O289 1.249 . S
C288 O290 1.270 . S
O289 Zn281 1.943 . S
O289 C288 1.249 . S
O290 Zn280 2.067 . S
O290 C288 1.270 . S
C291 O284 1.262 . S
C291 O292 1.232 . S
O292 C291 1.232 . S
C293 O285 1.260 . S
C293 O286 1.257 . S
Zn294 O297 2.031 1_455 S
Zn294 O299 2.049 1_556 S
Zn294 O304 2.067 . S
Zn295 O296 1.962 1_455 S
Zn295 O298 1.986 1_556 S
Zn295 O300 1.996 1_556 S
Zn295 O303 1.943 . S
O296 Zn295 1.962 1_655 S
O296 C301 1.254 . S
O297 Zn294 2.031 1_655 S
O297 C301 1.269 . S
O298 Zn295 1.986 1_554 S
O298 C305 1.262 1_554 S
O299 Zn294 2.049 1_554 S
O299 C307 1.260 . S
O300 Zn295 1.996 1_554 S
O300 C307 1.257 . S
C301 O296 1.254 . S
C301 O297 1.269 . S
C302 O303 1.249 . S
C302 O304 1.270 . S
O303 Zn295 1.943 . S
O303 C302 1.249 . S
O304 Zn294 2.067 . S
O304 C302 1.270 . S
C305 O298 1.262 1_556 S
C305 O306 1.232 . S
O306 C305 1.232 . S
C307 O299 1.260 . S
C307 O300 1.257 . S
Zn308 O311 2.031 . S
Zn308 O313 2.049 . S
Zn308 O318 2.067 . S
Zn309 O310 1.962 . S
Zn309 O312 1.986 . S
Zn309 O314 1.996 . S
Zn309 O317 1.943 . S
O310 Zn309 1.962 . S
O310 C315 1.254 . S
O311 Zn308 2.031 . S
O311 C315 1.269 . S
O312 Zn309 1.986 . S
O312 C319 1.262 . S
O313 Zn308 2.049 . S
O313 C321 1.260 . S
O314 Zn309 1.996 . S
O314 C321 1.257 . S
C315 O310 1.254 . S
C315 O311 1.269 . S
C316 O317 1.249 . S
C316 O318 1.270 . S
O317 Zn309 1.943 . S
O317 C316 1.249 . S
O318 Zn308 2.067 . S
O318 C316 1.270 . S
C319 O312 1.262 . S
C319 O320 1.232 . S
O320 C319 1.232 . S
C321 O313 1.260 . S
C321 O314 1.257 . S
Zn322 O325 2.031 . S
Zn322 O327 2.049 . S
Zn322 O332 2.067 . S
Zn323 O324 1.962 . S
Zn323 O326 1.986 . S
Zn323 O328 1.996 . S
Zn323 O331 1.943 . S
O324 Zn323 1.962 . S
O324 C329 1.254 . S
O325 Zn322 2.031 . S
O325 C329 1.269 . S
O326 Zn323 1.986 . S
O326 C333 1.262 . S
O327 Zn322 2.049 . S
O327 C335 1.260 . S
O328 Zn323 1.996 . S
O328 C335 1.257 . S
C329 O324 1.254 . S
C329 O325 1.269 . S
C330 O331 1.249 . S
C330 O332 1.270 . S
O331 Zn323 1.943 . S
O331 C330 1.249 . S
O332 Zn322 2.067 . S
O332 C330 1.270 . S
C333 O326 1.262 . S
C333 O334 1.232 . S
O334 C333 1.232 . S
C335 O327 1.260 . S
C335 O328 1.257 . S
Zn336 O339 2.031 . S
Zn336 O341 2.049 . S
Zn336 O346 2.067 . S
Zn337 O338 1.962 . S
Zn337 O340 1.986 . S
Zn337 O342 1.996 . S
Zn337 O345 1.943 . S
O338 Zn337 1.962 . S
O338 C343 1.254 . S
O339 Zn336 2.031 . S
O339 C343 1.269 . S
O340 Zn337 1.986 . S
O340 C347 1.262 . S
O341 Zn336 2.049 . S
O341 C349 1.260 . S
O342 Zn337 1.996 . S
O342 C349 1.257 . S
C343 O338 1.254 . S
C343 O339 1.269 . S
C344 O345 1.249 . S
C344 O346 1.270 . S
O345 Zn337 1.943 . S
O345 C344 1.249 . S
O346 Zn336 2.067 . S
O346 C344 1.270 . S
C347 O340 1.262 . S
C347 O348 1.232 . S
O348 C347 1.232 . S
C349 O341 1.260 . S
C349 O342 1.257 . S
Zn350 O353 2.031 . S
Zn350 O355 2.049 1_556 S
Zn350 O360 2.067 . S
Zn351 O352 1.962 . S
Zn351 O354 1.986 1_556 S
Zn351 O356 1.996 1_556 S
Zn351 O359 1.943 . S
O352 Zn351 1.962 . S
O352 C357 1.254 . S
O353 Zn350 2.031 . S
O353 C357 1.269 . S
O354 Zn351 1.986 1_554 S
O354 C361 1.262 1_554 S
O355 Zn350 2.049 1_554 S
O355 C363 1.260 . S
O356 Zn351 1.996 1_554 S
O356 C363 1.257 . S
C357 O352 1.254 . S
C357 O353 1.269 . S
C358 O359 1.249 . S
C358 O360 1.270 . S
O359 Zn351 1.943 . S
O359 C358 1.249 . S
O360 Zn350 2.067 . S
O360 C358 1.270 . S
C361 O354 1.262 1_556 S
C361 O362 1.232 . S
O362 C361 1.232 . S
C363 O355 1.260 . S
C363 O356 1.257 . S
Zn364 O367 2.031 . S
Zn364 O369 2.049 . S
Zn364 O374 2.067 . S
Zn365 O366 1.962 . S
Zn365 O368 1.986 . S
Zn365 O370 1.996 . S
Zn365 O373 1.943 . S
O366 Zn365 1.962 . S
O366 C371 1.254 . S
O367 Zn364 2.031 . S
O367 C371 1.269 . S
O368 Zn365 1.986 . S
O368 C375 1.262 . S
O369 Zn364 2.049 . S
O369 C377 1.260 . S
O370 Zn365 1.996 . S
O370 C377 1.257 . S
C371 O366 1.254 . S
C371 O367 1.269 . S
C372 O373 1.249 . S
C372 O374 1.270 . S
O373 Zn365 1.943 . S
O373 C372 1.249 . S
O374 Zn364 2.067 . S
O374 C372 1.270 . S
C375 O368 1.262 . S
C375 O376 1.232 . S
O376 C375 1.232 . S
C377 O369 1.260 . S
C377 O370 1.257 . S
Zn378 O381 2.031 1_655 S
Zn378 O383 2.049 . S
Zn378 O388 2.067 . S
Zn379 O380 1.962 1_655 S
Zn379 O382 1.986 . S
Zn379 O384 1.996 . S
Zn379 O387 1.943 . S
O380 Zn379 1.962 1_455 S
O380 C385 1.254 . S
O381 Zn378 2.031 1_455 S
O381 C385 1.269 . S
O382 Zn379 1.986 . S
O382 C389 1.262 . S
O383 Zn378 2.049 . S
O383 C391 1.260 . S
O384 Zn379 1.996 . S
O384 C391 1.257 . S
C385 O380 1.254 . S
C385 O381 1.269 . S
C386 O387 1.249 . S
C386 O388 1.270 . S
O387 Zn379 1.943 . S
O387 C386 1.249 . S
O388 Zn378 2.067 . S
O388 C386 1.270 . S
C389 O382 1.262 . S
C389 O390 1.232 . S
O390 C389 1.232 . S
C391 O383 1.260 . S
C391 O384 1.257 . S
Zn392 O395 2.031 . S
Zn392 O397 2.049 . S
Zn392 O402 2.067 . S
Zn393 O394 1.962 . S
Zn393 O396 1.986 . S
Zn393 O398 1.996 . S
Zn393 O401 1.943 . S
O394 Zn393 1.962 . S
O394 C399 1.254 . S
O395 Zn392 2.031 . S
O395 C399 1.269 . S
O396 Zn393 1.986 . S
O396 C403 1.262 . S
O397 Zn392 2.049 . S
O397 C405 1.260 . S
O398 Zn393 1.996 . S
O398 C405 1.257 . S
C399 O394 1.254 . S
C399 O395 1.269 . S
C400 O401 1.249 . S
C400 O402 1.270 . S
O401 Zn393 1.943 . S
O401 C400 1.249 . S
O402 Zn392 2.067 . S
O402 C400 1.270 . S
C403 O396 1.262 . S
C403 O404 1.232 . S
O404 C403 1.232 . S
C405 O397 1.260 . S
C405 O398 1.257 . S
Zn406 O409 2.031 1_655 S
Zn406 O411 2.049 1_554 S
Zn406 O416 2.067 . S
Zn407 O408 1.962 1_655 S
Zn407 O410 1.986 1_554 S
Zn407 O412 1.996 1_554 S
Zn407 O415 1.943 . S
O408 Zn407 1.962 1_455 S
O408 C413 1.254 . S
O409 Zn406 2.031 1_455 S
O409 C413 1.269 . S
O410 Zn407 1.986 1_556 S
O410 C417 1.262 1_556 S
O411 Zn406 2.049 1_556 S
O411 C419 1.260 . S
O412 Zn407 1.996 1_556 S
O412 C419 1.257 . S
C413 O408 1.254 . S
C413 O409 1.269 . S
C414 O415 1.249 . S
C414 O416 1.270 . S
O415 Zn407 1.943 . S
O415 C414 1.249 . S
O416 Zn406 2.067 . S
O416 C414 1.270 . S
C417 O410 1.262 1_554 S
C417 O418 1.232 . S
O418 C417 1.232 . S
C419 O411 1.260 . S
C419 O412 1.257 . S
Zn420 O423 2.031 . S
Zn420 O425 2.049 . S
Zn420 O430 2.067 . S
Zn421 O422 1.962 . S
Zn421 O424 1.986 . S
Zn421 O426 1.996 . S
Zn421 O429 1.943 . S
O422 Zn421 1.962 . S
O422 C427 1.254 . S
O423 Zn420 2.031 . S
O423 C427 1.269 . S
O424 Zn421 1.986 . S
O424 C431 1.262 . S
O425 Zn420 2.049 . S
O425 C433 1.260 . S
O426 Zn421 1.996 . S
O426 C433 1.257 . S
C427 O422 1.254 . S
C427 O423 1.269 . S
C428 O429 1.249 . S
C428 O430 1.270 . S
O429 Zn421 1.943 . S
O429 C428 1.249 . S
O430 Zn420 2.067 . S
O430 C428 1.270 . S
C431 O424 1.262 . S
C431 O432 1.232 . S
O432 C431 1.232 . S
C433 O425 1.260 . S
C433 O426 1.257 . S
Zn434 O437 2.031 . S
Zn434 O439 2.049 . S
Zn434 O444 2.067 . S
Zn435 O436 1.962 . S
Zn435 O438 1.986 . S
Zn435 O440 1.996 . S
Zn435 O443 1.943 . S
O436 Zn435 1.962 . S
O436 C441 1.254 . S
O437 Zn434 2.031 . S
O437 C441 1.269 . S
O438 Zn435 1.986 . S
O438 C445 1.262 . S
O439 Zn434 2.049 . S
O439 C447 1.260 . S
O440 Zn435 1.996 . S
O440 C447 1.257 . S
C441 O436 1.254 . S
C441 O437 1.269 . S
C442 O443 1.249 . S
C442 O444 1.270 . S
O443 Zn435 1.943 . S
O443 C442 1.249 . S
O444 Zn434 2.067 . S
O444 C442 1.270 . S
C445 O438 1.262 . S
C445 O446 1.232 . S
O446 C445 1.232 . S
C447 O439 1.260 . S
C447 O440 1.257 . S
H448 C454 0.930 . S
H449 C458 0.930 . S
H450 C463 0.929 . S
H451 C461 0.929 . S
H452 C456 0.929 . S
H453 C462 0.929 . S
C454 H448 0.930 . S
C454 C455 1.367 . S
C454 C462 1.378 . S
C455 C454 1.367 . S
C455 C463 1.433 . S
C456 H452 0.929 . S
C456 C458 1.378 . S
C456 C460 1.350 . S
C457 C460 1.463 . S
C457 C462 1.350 . S
C457 N465 1.427 . S
C458 H449 0.930 . S
C458 C456 1.378 . S
C458 C459 1.367 . S
C459 C458 1.367 . S
C459 C461 1.433 . S
C460 C456 1.350 . S
C460 C457 1.463 . S
C460 N464 1.427 . S
C461 H451 0.929 . S
C461 C459 1.433 . S
C461 N464 1.384 . S
C462 H453 0.929 . S
C462 C454 1.378 . S
C462 C457 1.350 . S
C463 H450 0.929 . S
C463 C455 1.433 . S
C463 N465 1.384 . S
N464 C460 1.427 . S
N464 C461 1.384 . S
N465 C457 1.427 . S
N465 C463 1.384 . S
H466 C472 0.930 . S
H467 C476 0.930 . S
H468 C481 0.929 . S
H469 C479 0.929 . S
H470 C474 0.929 . S
H471 C480 0.929 . S
C472 H466 0.930 . S
C472 C473 1.367 . S
C472 C480 1.378 . S
C473 C472 1.367 . S
C473 C481 1.433 . S
C474 H470 0.929 . S
C474 C476 1.378 . S
C474 C478 1.350 . S
C475 C478 1.463 . S
C475 C480 1.350 . S
C475 N483 1.427 . S
C476 H467 0.930 . S
C476 C474 1.378 . S
C476 C477 1.367 . S
C477 C476 1.367 . S
C477 C479 1.433 . S
C478 C474 1.350 . S
C478 C475 1.463 . S
C478 N482 1.427 . S
C479 H469 0.929 . S
C479 C477 1.433 . S
C479 N482 1.384 . S
C480 H471 0.929 . S
C480 C472 1.378 . S
C480 C475 1.350 . S
C481 H468 0.929 . S
C481 C473 1.433 . S
C481 N483 1.384 . S
N482 C478 1.427 . S
N482 C479 1.384 . S
N483 C475 1.427 . S
N483 C481 1.384 . S
H484 C490 0.930 . S
H485 C494 0.930 . S
H486 C499 0.929 . S
H487 C497 0.929 . S
H488 C492 0.929 . S
H489 C498 0.929 . S
C490 H484 0.930 . S
C490 C491 1.367 . S
C490 C498 1.378 . S
C491 C490 1.367 . S
C491 C499 1.433 . S
C492 H488 0.929 . S
C492 C494 1.378 . S
C492 C496 1.350 . S
C493 C496 1.463 . S
C493 C498 1.350 . S
C493 N501 1.427 . S
C494 H485 0.930 . S
C494 C492 1.378 . S
C494 C495 1.367 . S
C495 C494 1.367 . S
C495 C497 1.433 . S
C496 C492 1.350 . S
C496 C493 1.463 . S
C496 N500 1.427 . S
C497 H487 0.929 . S
C497 C495 1.433 . S
C497 N500 1.384 . S
C498 H489 0.929 . S
C498 C490 1.378 . S
C498 C493 1.350 . S
C499 H486 0.929 . S
C499 C491 1.433 . S
C499 N501 1.384 . S
N500 C496 1.427 . S
N500 C497 1.384 . S
N501 C493 1.427 . S
N501 C499 1.384 . S
H502 C508 0.930 . S
H503 C512 0.930 . S
H504 C517 0.929 . S
H505 C515 0.929 . S
H506 C510 0.929 . S
H507 C516 0.929 . S
C508 H502 0.930 . S
C508 C509 1.367 . S
C508 C516 1.378 . S
C509 C508 1.367 . S
C509 C517 1.433 . S
C510 H506 0.929 . S
C510 C512 1.378 . S
C510 C514 1.350 . S
C511 C514 1.463 . S
C511 C516 1.350 . S
C511 N519 1.427 . S
C512 H503 0.930 . S
C512 C510 1.378 . S
C512 C513 1.367 . S
C513 C512 1.367 . S
C513 C515 1.433 . S
C514 C510 1.350 . S
C514 C511 1.463 . S
C514 N518 1.427 . S
C515 H505 0.929 . S
C515 C513 1.433 . S
C515 N518 1.384 . S
C516 H507 0.929 . S
C516 C508 1.378 . S
C516 C511 1.350 . S
C517 H504 0.929 . S
C517 C509 1.433 . S
C517 N519 1.384 . S
N518 C514 1.427 . S
N518 C515 1.384 . S
N519 C511 1.427 . S
N519 C517 1.384 . S
H520 C526 0.930 . S
H521 C530 0.930 . S
H522 C535 0.929 . S
H523 C533 0.929 . S
H524 C528 0.929 . S
H525 C534 0.929 . S
C526 H520 0.930 . S
C526 C527 1.367 . S
C526 C534 1.378 . S
C527 C526 1.367 . S
C527 C535 1.433 . S
C528 H524 0.929 . S
C528 C530 1.378 . S
C528 C532 1.350 . S
C529 C532 1.463 . S
C529 C534 1.350 . S
C529 N537 1.427 . S
C530 H521 0.930 . S
C530 C528 1.378 . S
C530 C531 1.367 . S
C531 C530 1.367 . S
C531 C533 1.433 . S
C532 C528 1.350 . S
C532 C529 1.463 . S
C532 N536 1.427 . S
C533 H523 0.929 . S
C533 C531 1.433 . S
C533 N536 1.384 . S
C534 H525 0.929 . S
C534 C526 1.378 . S
C534 C529 1.350 . S
C535 H522 0.929 . S
C535 C527 1.433 . S
C535 N537 1.384 . S
N536 C532 1.427 . S
N536 C533 1.384 . S
N537 C529 1.427 . S
N537 C535 1.384 . S
H538 C544 0.930 . S
H539 C548 0.930 . S
H540 C553 0.929 . S
H541 C551 0.929 . S
H542 C546 0.929 . S
H543 C552 0.929 . S
C544 H538 0.930 . S
C544 C545 1.367 . S
C544 C552 1.378 . S
C545 C544 1.367 . S
C545 C553 1.433 . S
C546 H542 0.929 . S
C546 C548 1.378 . S
C546 C550 1.350 . S
C547 C550 1.463 . S
C547 C552 1.350 . S
C547 N555 1.427 . S
C548 H539 0.930 . S
C548 C546 1.378 . S
C548 C549 1.367 . S
C549 C548 1.367 . S
C549 C551 1.433 . S
C550 C546 1.350 . S
C550 C547 1.463 . S
C550 N554 1.427 . S
C551 H541 0.929 . S
C551 C549 1.433 . S
C551 N554 1.384 . S
C552 H543 0.929 . S
C552 C544 1.378 . S
C552 C547 1.350 . S
C553 H540 0.929 . S
C553 C545 1.433 . S
C553 N555 1.384 . S
N554 C550 1.427 . S
N554 C551 1.384 . S
N555 C547 1.427 . S
N555 C553 1.384 . S
H556 C562 0.930 . S
H557 C566 0.930 . S
H558 C571 0.929 . S
H559 C569 0.929 . S
H560 C564 0.929 . S
H561 C570 0.929 . S
C562 H556 0.930 . S
C562 C563 1.367 . S
C562 C570 1.378 . S
C563 C562 1.367 . S
C563 C571 1.433 . S
C564 H560 0.929 . S
C564 C566 1.378 . S
C564 C568 1.350 . S
C565 C568 1.463 . S
C565 C570 1.350 . S
C565 N573 1.427 . S
C566 H557 0.930 . S
C566 C564 1.378 . S
C566 C567 1.367 . S
C567 C566 1.367 . S
C567 C569 1.433 . S
C568 C564 1.350 . S
C568 C565 1.463 . S
C568 N572 1.427 . S
C569 H559 0.929 . S
C569 C567 1.433 . S
C569 N572 1.384 . S
C570 H561 0.929 . S
C570 C562 1.378 . S
C570 C565 1.350 . S
C571 H558 0.929 . S
C571 C563 1.433 . S
C571 N573 1.384 . S
N572 C568 1.427 . S
N572 C569 1.384 . S
N573 C565 1.427 . S
N573 C571 1.384 . S
H574 C580 0.930 . S
H575 C584 0.930 . S
H576 C589 0.929 . S
H577 C587 0.929 . S
H578 C582 0.929 . S
H579 C588 0.929 . S
C580 H574 0.930 . S
C580 C581 1.367 . S
C580 C588 1.378 . S
C581 C580 1.367 . S
C581 C589 1.433 . S
C582 H578 0.929 . S
C582 C584 1.378 . S
C582 C586 1.350 . S
C583 C586 1.463 . S
C583 C588 1.350 . S
C583 N591 1.427 . S
C584 H575 0.930 . S
C584 C582 1.378 . S
C584 C585 1.367 . S
C585 C584 1.367 . S
C585 C587 1.433 . S
C586 C582 1.350 . S
C586 C583 1.463 . S
C586 N590 1.427 . S
C587 H577 0.929 . S
C587 C585 1.433 . S
C587 N590 1.384 . S
C588 H579 0.929 . S
C588 C580 1.378 . S
C588 C583 1.350 . S
C589 H576 0.929 . S
C589 C581 1.433 . S
C589 N591 1.384 . S
N590 C586 1.427 . S
N590 C587 1.384 . S
N591 C583 1.427 . S
N591 C589 1.384 . S
H592 C598 0.930 . S
H593 C602 0.930 . S
H594 C607 0.929 . S
H595 C605 0.929 . S
H596 C600 0.929 . S
H597 C606 0.929 . S
C598 H592 0.930 . S
C598 C599 1.367 . S
C598 C606 1.378 . S
C599 C598 1.367 . S
C599 C607 1.433 . S
C600 H596 0.929 . S
C600 C602 1.378 . S
C600 C604 1.350 . S
C601 C604 1.463 . S
C601 C606 1.350 . S
C601 N609 1.427 . S
C602 H593 0.930 . S
C602 C600 1.378 . S
C602 C603 1.367 . S
C603 C602 1.367 . S
C603 C605 1.433 . S
C604 C600 1.350 . S
C604 C601 1.463 . S
C604 N608 1.427 . S
C605 H595 0.929 . S
C605 C603 1.433 . S
C605 N608 1.384 . S
C606 H597 0.929 . S
C606 C598 1.378 . S
C606 C601 1.350 . S
C607 H594 0.929 . S
C607 C599 1.433 . S
C607 N609 1.384 . S
N608 C604 1.427 . S
N608 C605 1.384 . S
N609 C601 1.427 . S
N609 C607 1.384 . S
H610 C616 0.930 . S
H611 C620 0.930 . S
H612 C625 0.929 . S
H613 C623 0.929 . S
H614 C618 0.929 . S
H615 C624 0.929 . S
C616 H610 0.930 . S
C616 C617 1.367 . S
C616 C624 1.378 . S
C617 C616 1.367 . S
C617 C625 1.433 . S
C618 H614 0.929 . S
C618 C620 1.378 . S
C618 C622 1.350 . S
C619 C622 1.463 . S
C619 C624 1.350 . S
C619 N627 1.427 . S
C620 H611 0.930 . S
C620 C618 1.378 . S
C620 C621 1.367 . S
C621 C620 1.367 . S
C621 C623 1.433 . S
C622 C618 1.350 . S
C622 C619 1.463 . S
C622 N626 1.427 . S
C623 H613 0.929 . S
C623 C621 1.433 . S
C623 N626 1.384 . S
C624 H615 0.929 . S
C624 C616 1.378 . S
C624 C619 1.350 . S
C625 H612 0.929 . S
C625 C617 1.433 . S
C625 N627 1.384 . S
N626 C622 1.427 . S
N626 C623 1.384 . S
N627 C619 1.427 . S
N627 C625 1.384 . S
H628 C634 0.930 . S
H629 C638 0.930 . S
H630 C643 0.929 . S
H631 C641 0.929 . S
H632 C636 0.929 . S
H633 C642 0.929 . S
C634 H628 0.930 . S
C634 C635 1.367 . S
C634 C642 1.378 . S
C635 C634 1.367 . S
C635 C643 1.433 . S
C636 H632 0.929 . S
C636 C638 1.378 . S
C636 C640 1.350 . S
C637 C640 1.463 . S
C637 C642 1.350 . S
C637 N645 1.427 . S
C638 H629 0.930 . S
C638 C636 1.378 . S
C638 C639 1.367 . S
C639 C638 1.367 . S
C639 C641 1.433 . S
C640 C636 1.350 . S
C640 C637 1.463 . S
C640 N644 1.427 . S
C641 H631 0.929 . S
C641 C639 1.433 . S
C641 N644 1.384 . S
C642 H633 0.929 . S
C642 C634 1.378 . S
C642 C637 1.350 . S
C643 H630 0.929 . S
C643 C635 1.433 . S
C643 N645 1.384 . S
N644 C640 1.427 . S
N644 C641 1.384 . S
N645 C637 1.427 . S
N645 C643 1.384 . S
H646 C652 0.930 . S
H647 C656 0.930 . S
H648 C661 0.929 . S
H649 C659 0.929 . S
H650 C654 0.929 . S
H651 C660 0.929 . S
C652 H646 0.930 . S
C652 C653 1.367 . S
C652 C660 1.378 . S
C653 C652 1.367 . S
C653 C661 1.433 . S
C654 H650 0.929 . S
C654 C656 1.378 . S
C654 C658 1.350 . S
C655 C658 1.463 . S
C655 C660 1.350 . S
C655 N663 1.427 . S
C656 H647 0.930 . S
C656 C654 1.378 . S
C656 C657 1.367 . S
C657 C656 1.367 . S
C657 C659 1.433 . S
C658 C654 1.350 . S
C658 C655 1.463 . S
C658 N662 1.427 . S
C659 H649 0.929 . S
C659 C657 1.433 . S
C659 N662 1.384 . S
C660 H651 0.929 . S
C660 C652 1.378 . S
C660 C655 1.350 . S
C661 H648 0.929 . S
C661 C653 1.433 . S
C661 N663 1.384 . S
N662 C658 1.427 . S
N662 C659 1.384 . S
N663 C655 1.427 . S
N663 C661 1.384 . S
H664 C670 0.930 . S
H665 C674 0.930 . S
H666 C679 0.929 . S
H667 C677 0.929 . S
H668 C672 0.929 . S
H669 C678 0.929 . S
C670 H664 0.930 . S
C670 C671 1.367 . S
C670 C678 1.378 . S
C671 C670 1.367 . S
C671 C679 1.433 . S
C672 H668 0.929 . S
C672 C674 1.378 . S
C672 C676 1.350 . S
C673 C676 1.463 . S
C673 C678 1.350 . S
C673 N681 1.427 . S
C674 H665 0.930 . S
C674 C672 1.378 . S
C674 C675 1.367 . S
C675 C674 1.367 . S
C675 C677 1.433 . S
C676 C672 1.350 . S
C676 C673 1.463 . S
C676 N680 1.427 . S
C677 H667 0.929 . S
C677 C675 1.433 . S
C677 N680 1.384 . S
C678 H669 0.929 . S
C678 C670 1.378 . S
C678 C673 1.350 . S
C679 H666 0.929 . S
C679 C671 1.433 . S
C679 N681 1.384 . S
N680 C676 1.427 . S
N680 C677 1.384 . S
N681 C673 1.427 . S
N681 C679 1.384 . S
H682 C688 0.930 . S
H683 C692 0.930 . S
H684 C697 0.929 . S
H685 C695 0.929 . S
H686 C690 0.929 . S
H687 C696 0.929 . S
C688 H682 0.930 . S
C688 C689 1.367 . S
C688 C696 1.378 . S
C689 C688 1.367 . S
C689 C697 1.433 . S
C690 H686 0.929 . S
C690 C692 1.378 . S
C690 C694 1.350 . S
C691 C694 1.463 . S
C691 C696 1.350 . S
C691 N699 1.427 . S
C692 H683 0.930 . S
C692 C690 1.378 . S
C692 C693 1.367 . S
C693 C692 1.367 . S
C693 C695 1.433 . S
C694 C690 1.350 . S
C694 C691 1.463 . S
C694 N698 1.427 . S
C695 H685 0.929 . S
C695 C693 1.433 . S
C695 N698 1.384 . S
C696 H687 0.929 . S
C696 C688 1.378 . S
C696 C691 1.350 . S
C697 H684 0.929 . S
C697 C689 1.433 . S
C697 N699 1.384 . S
N698 C694 1.427 . S
N698 C695 1.384 . S
N699 C691 1.427 . S
N699 C697 1.384 . S
H700 C706 0.930 . S
H701 C710 0.930 . S
H702 C715 0.929 . S
H703 C713 0.929 . S
H704 C708 0.929 . S
H705 C714 0.929 . S
C706 H700 0.930 . S
C706 C707 1.367 . S
C706 C714 1.378 . S
C707 C706 1.367 . S
C707 C715 1.433 . S
C708 H704 0.929 . S
C708 C710 1.378 . S
C708 C712 1.350 . S
C709 C712 1.463 . S
C709 C714 1.350 . S
C709 N717 1.427 . S
C710 H701 0.930 . S
C710 C708 1.378 . S
C710 C711 1.367 . S
C711 C710 1.367 . S
C711 C713 1.433 . S
C712 C708 1.350 . S
C712 C709 1.463 . S
C712 N716 1.427 . S
C713 H703 0.929 . S
C713 C711 1.433 . S
C713 N716 1.384 . S
C714 H705 0.929 . S
C714 C706 1.378 . S
C714 C709 1.350 . S
C715 H702 0.929 . S
C715 C707 1.433 . S
C715 N717 1.384 . S
N716 C712 1.427 . S
N716 C713 1.384 . S
N717 C709 1.427 . S
N717 C715 1.384 . S
H718 C724 0.930 . S
H719 C728 0.930 . S
H720 C733 0.929 . S
H721 C731 0.929 . S
H722 C726 0.929 . S
H723 C732 0.929 . S
C724 H718 0.930 . S
C724 C725 1.367 . S
C724 C732 1.378 . S
C725 C724 1.367 . S
C725 C733 1.433 . S
C726 H722 0.929 . S
C726 C728 1.378 . S
C726 C730 1.350 . S
C727 C730 1.463 . S
C727 C732 1.350 . S
C727 N735 1.427 . S
C728 H719 0.930 . S
C728 C726 1.378 . S
C728 C729 1.367 . S
C729 C728 1.367 . S
C729 C731 1.433 . S
C730 C726 1.350 . S
C730 C727 1.463 . S
C730 N734 1.427 . S
C731 H721 0.929 . S
C731 C729 1.433 . S
C731 N734 1.384 . S
C732 H723 0.929 . S
C732 C724 1.378 . S
C732 C727 1.350 . S
C733 H720 0.929 . S
C733 C725 1.433 . S
C733 N735 1.384 . S
N734 C730 1.427 . S
N734 C731 1.384 . S
N735 C727 1.427 . S
N735 C733 1.384 . S
H736 C742 0.930 . S
H737 C746 0.930 . S
H738 C751 0.929 . S
H739 C749 0.929 . S
H740 C744 0.929 . S
H741 C750 0.929 . S
C742 H736 0.930 . S
C742 C743 1.367 . S
C742 C750 1.378 . S
C743 C742 1.367 . S
C743 C751 1.433 . S
C744 H740 0.929 . S
C744 C746 1.378 . S
C744 C748 1.350 . S
C745 C748 1.463 . S
C745 C750 1.350 . S
C745 N753 1.427 . S
C746 H737 0.930 . S
C746 C744 1.378 . S
C746 C747 1.367 . S
C747 C746 1.367 . S
C747 C749 1.433 . S
C748 C744 1.350 . S
C748 C745 1.463 . S
C748 N752 1.427 . S
C749 H739 0.929 . S
C749 C747 1.433 . S
C749 N752 1.384 . S
C750 H741 0.929 . S
C750 C742 1.378 . S
C750 C745 1.350 . S
C751 H738 0.929 . S
C751 C743 1.433 . S
C751 N753 1.384 . S
N752 C748 1.427 . S
N752 C749 1.384 . S
N753 C745 1.427 . S
N753 C751 1.384 . S
H754 C760 0.930 . S
H755 C764 0.930 . S
H756 C769 0.929 . S
H757 C767 0.929 . S
H758 C762 0.929 . S
H759 C768 0.929 . S
C760 H754 0.930 . S
C760 C761 1.367 . S
C760 C768 1.378 . S
C761 C760 1.367 . S
C761 C769 1.433 . S
C762 H758 0.929 . S
C762 C764 1.378 . S
C762 C766 1.350 . S
C763 C766 1.463 . S
C763 C768 1.350 . S
C763 N771 1.427 . S
C764 H755 0.930 . S
C764 C762 1.378 . S
C764 C765 1.367 . S
C765 C764 1.367 . S
C765 C767 1.433 . S
C766 C762 1.350 . S
C766 C763 1.463 . S
C766 N770 1.427 . S
C767 H757 0.929 . S
C767 C765 1.433 . S
C767 N770 1.384 . S
C768 H759 0.929 . S
C768 C760 1.378 . S
C768 C763 1.350 . S
C769 H756 0.929 . S
C769 C761 1.433 . S
C769 N771 1.384 . S
N770 C766 1.427 . S
N770 C767 1.384 . S
N771 C763 1.427 . S
N771 C769 1.384 . S
H772 C778 0.930 . S
H773 C782 0.930 . S
H774 C787 0.929 . S
H775 C785 0.929 . S
H776 C780 0.929 . S
H777 C786 0.929 . S
C778 H772 0.930 . S
C778 C779 1.367 . S
C778 C786 1.378 . S
C779 C778 1.367 . S
C779 C787 1.433 . S
C780 H776 0.929 . S
C780 C782 1.378 . S
C780 C784 1.350 . S
C781 C784 1.463 . S
C781 C786 1.350 . S
C781 N789 1.427 . S
C782 H773 0.930 . S
C782 C780 1.378 . S
C782 C783 1.367 . S
C783 C782 1.367 . S
C783 C785 1.433 . S
C784 C780 1.350 . S
C784 C781 1.463 . S
C784 N788 1.427 . S
C785 H775 0.929 . S
C785 C783 1.433 . S
C785 N788 1.384 . S
C786 H777 0.929 . S
C786 C778 1.378 . S
C786 C781 1.350 . S
C787 H774 0.929 . S
C787 C779 1.433 . S
C787 N789 1.384 . S
N788 C784 1.427 . S
N788 C785 1.384 . S
N789 C781 1.427 . S
N789 C787 1.384 . S
H790 C796 0.930 . S
H791 C800 0.930 . S
H792 C805 0.929 . S
H793 C803 0.929 . S
H794 C798 0.929 . S
H795 C804 0.929 . S
C796 H790 0.930 . S
C796 C797 1.367 . S
C796 C804 1.378 . S
C797 C796 1.367 . S
C797 C805 1.433 . S
C798 H794 0.929 . S
C798 C800 1.378 . S
C798 C802 1.350 . S
C799 C802 1.463 . S
C799 C804 1.350 . S
C799 N807 1.427 . S
C800 H791 0.930 . S
C800 C798 1.378 . S
C800 C801 1.367 . S
C801 C800 1.367 . S
C801 C803 1.433 . S
C802 C798 1.350 . S
C802 C799 1.463 . S
C802 N806 1.427 . S
C803 H793 0.929 . S
C803 C801 1.433 . S
C803 N806 1.384 . S
C804 H795 0.929 . S
C804 C796 1.378 . S
C804 C799 1.350 . S
C805 H792 0.929 . S
C805 C797 1.433 . S
C805 N807 1.384 . S
N806 C802 1.427 . S
N806 C803 1.384 . S
N807 C799 1.427 . S
N807 C805 1.384 . S
H808 C814 0.930 . S
H809 C818 0.930 . S
H810 C823 0.929 . S
H811 C821 0.929 . S
H812 C816 0.929 . S
H813 C822 0.929 . S
C814 H808 0.930 . S
C814 C815 1.367 . S
C814 C822 1.378 . S
C815 C814 1.367 . S
C815 C823 1.433 . S
C816 H812 0.929 . S
C816 C818 1.378 . S
C816 C820 1.350 . S
C817 C820 1.463 . S
C817 C822 1.350 . S
C817 N825 1.427 . S
C818 H809 0.930 . S
C818 C816 1.378 . S
C818 C819 1.367 . S
C819 C818 1.367 . S
C819 C821 1.433 . S
C820 C816 1.350 . S
C820 C817 1.463 . S
C820 N824 1.427 . S
C821 H811 0.929 . S
C821 C819 1.433 . S
C821 N824 1.384 . S
C822 H813 0.929 . S
C822 C814 1.378 . S
C822 C817 1.350 . S
C823 H810 0.929 . S
C823 C815 1.433 . S
C823 N825 1.384 . S
N824 C820 1.427 . S
N824 C821 1.384 . S
N825 C817 1.427 . S
N825 C823 1.384 . S
H826 C832 0.930 . S
H827 C836 0.930 . S
H828 C841 0.929 . S
H829 C839 0.929 . S
H830 C834 0.929 . S
H831 C840 0.929 . S
C832 H826 0.930 . S
C832 C833 1.367 . S
C832 C840 1.378 . S
C833 C832 1.367 . S
C833 C841 1.433 . S
C834 H830 0.929 . S
C834 C836 1.378 . S
C834 C838 1.350 . S
C835 C838 1.463 . S
C835 C840 1.350 . S
C835 N843 1.427 . S
C836 H827 0.930 . S
C836 C834 1.378 . S
C836 C837 1.367 . S
C837 C836 1.367 . S
C837 C839 1.433 . S
C838 C834 1.350 . S
C838 C835 1.463 . S
C838 N842 1.427 . S
C839 H829 0.929 . S
C839 C837 1.433 . S
C839 N842 1.384 . S
C840 H831 0.929 . S
C840 C832 1.378 . S
C840 C835 1.350 . S
C841 H828 0.929 . S
C841 C833 1.433 . S
C841 N843 1.384 . S
N842 C838 1.427 . S
N842 C839 1.384 . S
N843 C835 1.427 . S
N843 C841 1.384 . S
H844 C850 0.930 . S
H845 C854 0.930 . S
H846 C859 0.929 . S
H847 C857 0.929 . S
H848 C852 0.929 . S
H849 C858 0.929 . S
C850 H844 0.930 . S
C850 C851 1.367 . S
C850 C858 1.378 . S
C851 C850 1.367 . S
C851 C859 1.433 . S
C852 H848 0.929 . S
C852 C854 1.378 . S
C852 C856 1.350 . S
C853 C856 1.463 . S
C853 C858 1.350 . S
C853 N861 1.427 . S
C854 H845 0.930 . S
C854 C852 1.378 . S
C854 C855 1.367 . S
C855 C854 1.367 . S
C855 C857 1.433 . S
C856 C852 1.350 . S
C856 C853 1.463 . S
C856 N860 1.427 . S
C857 H847 0.929 . S
C857 C855 1.433 . S
C857 N860 1.384 . S
C858 H849 0.929 . S
C858 C850 1.378 . S
C858 C853 1.350 . S
C859 H846 0.929 . S
C859 C851 1.433 . S
C859 N861 1.384 . S
N860 C856 1.427 . S
N860 C857 1.384 . S
N861 C853 1.427 . S
N861 C859 1.384 . S
H862 C868 0.930 . S
H863 C872 0.930 . S
H864 C877 0.929 . S
H865 C875 0.929 . S
H866 C870 0.929 . S
H867 C876 0.929 . S
C868 H862 0.930 . S
C868 C869 1.367 . S
C868 C876 1.378 . S
C869 C868 1.367 . S
C869 C877 1.433 . S
C870 H866 0.929 . S
C870 C872 1.378 . S
C870 C874 1.350 . S
C871 C874 1.463 . S
C871 C876 1.350 . S
C871 N879 1.427 . S
C872 H863 0.930 . S
C872 C870 1.378 . S
C872 C873 1.367 . S
C873 C872 1.367 . S
C873 C875 1.433 . S
C874 C870 1.350 . S
C874 C871 1.463 . S
C874 N878 1.427 . S
C875 H865 0.929 . S
C875 C873 1.433 . S
C875 N878 1.384 . S
C876 H867 0.929 . S
C876 C868 1.378 . S
C876 C871 1.350 . S
C877 H864 0.929 . S
C877 C869 1.433 . S
C877 N879 1.384 . S
N878 C874 1.427 . S
N878 C875 1.384 . S
N879 C871 1.427 . S
N879 C877 1.384 . S
H880 C886 0.930 . S
H881 C890 0.930 . S
H882 C895 0.929 . S
H883 C893 0.929 . S
H884 C888 0.929 . S
H885 C894 0.929 . S
C886 H880 0.930 . S
C886 C887 1.367 . S
C886 C894 1.378 . S
C887 C886 1.367 . S
C887 C895 1.433 . S
C888 H884 0.929 . S
C888 C890 1.378 . S
C888 C892 1.350 . S
C889 C892 1.463 . S
C889 C894 1.350 . S
C889 N897 1.427 . S
C890 H881 0.930 . S
C890 C888 1.378 . S
C890 C891 1.367 . S
C891 C890 1.367 . S
C891 C893 1.433 . S
C892 C888 1.350 . S
C892 C889 1.463 . S
C892 N896 1.427 . S
C893 H883 0.929 . S
C893 C891 1.433 . S
C893 N896 1.384 . S
C894 H885 0.929 . S
C894 C886 1.378 . S
C894 C889 1.350 . S
C895 H882 0.929 . S
C895 C887 1.433 . S
C895 N897 1.384 . S
N896 C892 1.427 . S
N896 C893 1.384 . S
N897 C889 1.427 . S
N897 C895 1.384 . S
H898 C904 0.930 . S
H899 C908 0.930 . S
H900 C913 0.929 . S
H901 C911 0.929 . S
H902 C906 0.929 . S
H903 C912 0.929 . S
C904 H898 0.930 . S
C904 C905 1.367 . S
C904 C912 1.378 . S
C905 C904 1.367 . S
C905 C913 1.433 . S
C906 H902 0.929 . S
C906 C908 1.378 . S
C906 C910 1.350 . S
C907 C910 1.463 . S
C907 C912 1.350 . S
C907 N915 1.427 . S
C908 H899 0.930 . S
C908 C906 1.378 . S
C908 C909 1.367 . S
C909 C908 1.367 . S
C909 C911 1.433 . S
C910 C906 1.350 . S
C910 C907 1.463 . S
C910 N914 1.427 . S
C911 H901 0.929 . S
C911 C909 1.433 . S
C911 N914 1.384 . S
C912 H903 0.929 . S
C912 C904 1.378 . S
C912 C907 1.350 . S
C913 H900 0.929 . S
C913 C905 1.433 . S
C913 N915 1.384 . S
N914 C910 1.427 . S
N914 C911 1.384 . S
N915 C907 1.427 . S
N915 C913 1.384 . S
H916 C922 0.930 . S
H917 C926 0.930 . S
H918 C931 0.929 . S
H919 C929 0.929 . S
H920 C924 0.929 . S
H921 C930 0.929 . S
C922 H916 0.930 . S
C922 C923 1.367 . S
C922 C930 1.378 . S
C923 C922 1.367 . S
C923 C931 1.433 . S
C924 H920 0.929 . S
C924 C926 1.378 . S
C924 C928 1.350 . S
C925 C928 1.463 . S
C925 C930 1.350 . S
C925 N933 1.427 . S
C926 H917 0.930 . S
C926 C924 1.378 . S
C926 C927 1.367 . S
C927 C926 1.367 . S
C927 C929 1.433 . S
C928 C924 1.350 . S
C928 C925 1.463 . S
C928 N932 1.427 . S
C929 H919 0.929 . S
C929 C927 1.433 . S
C929 N932 1.384 . S
C930 H921 0.929 . S
C930 C922 1.378 . S
C930 C925 1.350 . S
C931 H918 0.929 . S
C931 C923 1.433 . S
C931 N933 1.384 . S
N932 C928 1.427 . S
N932 C929 1.384 . S
N933 C925 1.427 . S
N933 C931 1.384 . S
H934 C940 0.930 . S
H935 C944 0.930 . S
H936 C949 0.929 . S
H937 C947 0.929 . S
H938 C942 0.929 . S
H939 C948 0.929 . S
C940 H934 0.930 . S
C940 C941 1.367 . S
C940 C948 1.378 . S
C941 C940 1.367 . S
C941 C949 1.433 . S
C942 H938 0.929 . S
C942 C944 1.378 . S
C942 C946 1.350 . S
C943 C946 1.463 . S
C943 C948 1.350 . S
C943 N951 1.427 . S
C944 H935 0.930 . S
C944 C942 1.378 . S
C944 C945 1.367 . S
C945 C944 1.367 . S
C945 C947 1.433 . S
C946 C942 1.350 . S
C946 C943 1.463 . S
C946 N950 1.427 . S
C947 H937 0.929 . S
C947 C945 1.433 . S
C947 N950 1.384 . S
C948 H939 0.929 . S
C948 C940 1.378 . S
C948 C943 1.350 . S
C949 H936 0.929 . S
C949 C941 1.433 . S
C949 N951 1.384 . S
N950 C946 1.427 . S
N950 C947 1.384 . S
N951 C943 1.427 . S
N951 C949 1.384 . S
H952 C958 0.930 . S
H953 C962 0.930 . S
H954 C967 0.929 . S
H955 C965 0.929 . S
H956 C960 0.929 . S
H957 C966 0.929 . S
C958 H952 0.930 . S
C958 C959 1.367 . S
C958 C966 1.378 . S
C959 C958 1.367 . S
C959 C967 1.433 . S
C960 H956 0.929 . S
C960 C962 1.378 . S
C960 C964 1.350 . S
C961 C964 1.463 . S
C961 C966 1.350 . S
C961 N969 1.427 . S
C962 H953 0.930 . S
C962 C960 1.378 . S
C962 C963 1.367 . S
C963 C962 1.367 . S
C963 C965 1.433 . S
C964 C960 1.350 . S
C964 C961 1.463 . S
C964 N968 1.427 . S
C965 H955 0.929 . S
C965 C963 1.433 . S
C965 N968 1.384 . S
C966 H957 0.929 . S
C966 C958 1.378 . S
C966 C961 1.350 . S
C967 H954 0.929 . S
C967 C959 1.433 . S
C967 N969 1.384 . S
N968 C964 1.427 . S
N968 C965 1.384 . S
N969 C961 1.427 . S
N969 C967 1.384 . S
H970 C976 0.930 . S
H971 C980 0.930 . S
H972 C985 0.929 . S
H973 C983 0.929 . S
H974 C978 0.929 . S
H975 C984 0.929 . S
C976 H970 0.930 . S
C976 C977 1.367 . S
C976 C984 1.378 . S
C977 C976 1.367 . S
C977 C985 1.433 . S
C978 H974 0.929 . S
C978 C980 1.378 . S
C978 C982 1.350 . S
C979 C982 1.463 . S
C979 C984 1.350 . S
C979 N987 1.427 . S
C980 H971 0.930 . S
C980 C978 1.378 . S
C980 C981 1.367 . S
C981 C980 1.367 . S
C981 C983 1.433 . S
C982 C978 1.350 . S
C982 C979 1.463 . S
C982 N986 1.427 . S
C983 H973 0.929 . S
C983 C981 1.433 . S
C983 N986 1.384 . S
C984 H975 0.929 . S
C984 C976 1.378 . S
C984 C979 1.350 . S
C985 H972 0.929 . S
C985 C977 1.433 . S
C985 N987 1.384 . S
N986 C982 1.427 . S
N986 C983 1.384 . S
N987 C979 1.427 . S
N987 C985 1.384 . S
H988 C994 0.930 . S
H989 C998 0.930 . S
H990 C1003 0.929 . S
H991 C1001 0.929 . S
H992 C996 0.929 . S
H993 C1002 0.929 . S
C994 H988 0.930 . S
C994 C995 1.367 . S
C994 C1002 1.378 . S
C995 C994 1.367 . S
C995 C1003 1.433 . S
C996 H992 0.929 . S
C996 C998 1.378 . S
C996 C1000 1.350 . S
C997 C1000 1.463 . S
C997 C1002 1.350 . S
C997 N1005 1.427 . S
C998 H989 0.930 . S
C998 C996 1.378 . S
C998 C999 1.367 . S
C999 C998 1.367 . S
C999 C1001 1.433 . S
C1000 C996 1.350 . S
C1000 C997 1.463 . S
C1000 N1004 1.427 . S
C1001 H991 0.929 . S
C1001 C999 1.433 . S
C1001 N1004 1.384 . S
C1002 H993 0.929 . S
C1002 C994 1.378 . S
C1002 C997 1.350 . S
C1003 H990 0.929 . S
C1003 C995 1.433 . S
C1003 N1005 1.384 . S
N1004 C1000 1.427 . S
N1004 C1001 1.384 . S
N1005 C997 1.427 . S
N1005 C1003 1.384 . S
H1006 C1012 0.930 . S
H1007 C1016 0.930 . S
H1008 C1021 0.929 . S
H1009 C1019 0.929 . S
H1010 C1014 0.929 . S
H1011 C1020 0.929 . S
C1012 H1006 0.930 . S
C1012 C1013 1.367 . S
C1012 C1020 1.378 . S
C1013 C1012 1.367 . S
C1013 C1021 1.433 . S
C1014 H1010 0.929 . S
C1014 C1016 1.378 . S
C1014 C1018 1.350 . S
C1015 C1018 1.463 . S
C1015 C1020 1.350 . S
C1015 N1023 1.427 . S
C1016 H1007 0.930 . S
C1016 C1014 1.378 . S
C1016 C1017 1.367 . S
C1017 C1016 1.367 . S
C1017 C1019 1.433 . S
C1018 C1014 1.350 . S
C1018 C1015 1.463 . S
C1018 N1022 1.427 . S
C1019 H1009 0.929 . S
C1019 C1017 1.433 . S
C1019 N1022 1.384 . S
C1020 H1011 0.929 . S
C1020 C1012 1.378 . S
C1020 C1015 1.350 . S
C1021 H1008 0.929 . S
C1021 C1013 1.433 . S
C1021 N1023 1.384 . S
N1022 C1018 1.427 . S
N1022 C1019 1.384 . S
N1023 C1015 1.427 . S
N1023 C1021 1.384 . S
H1024 C1030 0.930 . S
H1025 C1034 0.930 . S
H1026 C1039 0.929 . S
H1027 C1037 0.929 . S
H1028 C1032 0.929 . S
H1029 C1038 0.929 . S
C1030 H1024 0.930 . S
C1030 C1031 1.367 . S
C1030 C1038 1.378 . S
C1031 C1030 1.367 . S
C1031 C1039 1.433 . S
C1032 H1028 0.929 . S
C1032 C1034 1.378 . S
C1032 C1036 1.350 . S
C1033 C1036 1.463 . S
C1033 C1038 1.350 . S
C1033 N1041 1.427 . S
C1034 H1025 0.930 . S
C1034 C1032 1.378 . S
C1034 C1035 1.367 . S
C1035 C1034 1.367 . S
C1035 C1037 1.433 . S
C1036 C1032 1.350 . S
C1036 C1033 1.463 . S
C1036 N1040 1.427 . S
C1037 H1027 0.929 . S
C1037 C1035 1.433 . S
C1037 N1040 1.384 . S
C1038 H1029 0.929 . S
C1038 C1030 1.378 . S
C1038 C1033 1.350 . S
C1039 H1026 0.929 . S
C1039 C1031 1.433 . S
C1039 N1041 1.384 . S
N1040 C1036 1.427 . S
N1040 C1037 1.384 . S
N1041 C1033 1.427 . S
N1041 C1039 1.384 . S
H1042 C1048 0.930 . S
H1043 C1052 0.930 . S
H1044 C1057 0.929 . S
H1045 C1055 0.929 . S
H1046 C1050 0.929 . S
H1047 C1056 0.929 . S
C1048 H1042 0.930 . S
C1048 C1049 1.367 . S
C1048 C1056 1.378 . S
C1049 C1048 1.367 . S
C1049 C1057 1.433 . S
C1050 H1046 0.929 . S
C1050 C1052 1.378 . S
C1050 C1054 1.350 . S
C1051 C1054 1.463 1_665 S
C1051 C1056 1.350 . S
C1051 N1059 1.425 1_655 S
C1052 H1043 0.930 . S
C1052 C1050 1.378 . S
C1052 C1053 1.367 . S
C1053 C1052 1.367 . S
C1053 C1055 1.433 . S
C1054 C1050 1.350 . S
C1054 C1051 1.463 1_445 S
C1054 N1058 1.425 1_455 S
C1055 H1045 0.929 . S
C1055 C1053 1.433 . S
C1055 N1058 1.380 1_455 S
C1056 H1047 0.929 . S
C1056 C1048 1.378 . S
C1056 C1051 1.350 . S
C1057 H1044 0.929 . S
C1057 C1049 1.433 . S
C1057 N1059 1.380 1_655 S
N1058 C1054 1.425 1_655 S
N1058 C1055 1.380 1_655 S
N1059 C1051 1.425 1_455 S
N1059 C1057 1.380 1_455 S
H1060 C1066 0.930 . S
H1061 C1070 0.930 . S
H1062 C1075 0.929 . S
H1063 C1073 0.929 . S
H1064 C1068 0.929 . S
H1065 C1074 0.929 . S
C1066 H1060 0.930 . S
C1066 C1067 1.367 . S
C1066 C1074 1.378 . S
C1067 C1066 1.367 . S
C1067 C1075 1.433 . S
C1068 H1064 0.929 . S
C1068 C1070 1.378 . S
C1068 C1072 1.350 . S
C1069 C1072 1.463 . S
C1069 C1074 1.350 . S
C1069 N1077 1.427 . S
C1070 H1061 0.930 . S
C1070 C1068 1.378 . S
C1070 C1071 1.367 . S
C1071 C1070 1.367 . S
C1071 C1073 1.433 . S
C1072 C1068 1.350 . S
C1072 C1069 1.463 . S
C1072 N1076 1.427 . S
C1073 H1063 0.929 . S
C1073 C1071 1.433 . S
C1073 N1076 1.384 . S
C1074 H1065 0.929 . S
C1074 C1066 1.378 . S
C1074 C1069 1.350 . S
C1075 H1062 0.929 . S
C1075 C1067 1.433 . S
C1075 N1077 1.384 . S
N1076 C1072 1.427 . S
N1076 C1073 1.384 . S
N1077 C1069 1.427 . S
N1077 C1075 1.384 . S
H1078 C1084 0.930 . S
H1079 C1088 0.930 . S
H1080 C1093 0.929 . S
H1081 C1091 0.929 . S
H1082 C1086 0.929 . S
H1083 C1092 0.929 . S
C1084 H1078 0.930 . S
C1084 C1085 1.367 . S
C1084 C1092 1.378 . S
C1085 C1084 1.367 . S
C1085 C1093 1.433 1_554 S
C1086 H1082 0.929 . S
C1086 C1088 1.378 . S
C1086 C1090 1.350 . S
C1087 C1090 1.463 1_544 S
C1087 C1092 1.350 . S
C1087 N1095 1.427 1_554 S
C1088 H1079 0.930 . S
C1088 C1086 1.378 . S
C1088 C1089 1.367 . S
C1089 C1088 1.367 . S
C1089 C1091 1.433 1_556 S
C1090 C1086 1.350 . S
C1090 C1087 1.463 1_566 S
C1090 N1094 1.427 1_556 S
C1091 H1081 0.929 . S
C1091 C1089 1.433 1_554 S
C1091 N1094 1.384 . S
C1092 H1083 0.929 . S
C1092 C1084 1.378 . S
C1092 C1087 1.350 . S
C1093 H1080 0.929 . S
C1093 C1085 1.433 1_556 S
C1093 N1095 1.384 . S
N1094 C1090 1.427 1_554 S
N1094 C1091 1.384 . S
N1095 C1087 1.427 1_556 S
N1095 C1093 1.384 . S
H1096 C1102 0.930 . S
H1097 C1106 0.930 . S
H1098 C1111 0.929 . S
H1099 C1109 0.929 . S
H1100 C1104 0.929 . S
H1101 C1110 0.929 . S
C1102 H1096 0.930 . S
C1102 C1103 1.367 . S
C1102 C1110 1.378 . S
C1103 C1102 1.367 . S
C1103 C1111 1.433 . S
C1104 H1100 0.929 . S
C1104 C1106 1.378 . S
C1104 C1108 1.350 . S
C1105 C1108 1.463 . S
C1105 C1110 1.350 . S
C1105 N1113 1.427 . S
C1106 H1097 0.930 . S
C1106 C1104 1.378 . S
C1106 C1107 1.367 . S
C1107 C1106 1.367 . S
C1107 C1109 1.433 . S
C1108 C1104 1.350 . S
C1108 C1105 1.463 . S
C1108 N1112 1.427 . S
C1109 H1099 0.929 . S
C1109 C1107 1.433 . S
C1109 N1112 1.384 . S
C1110 H1101 0.929 . S
C1110 C1102 1.378 . S
C1110 C1105 1.350 . S
C1111 H1098 0.929 . S
C1111 C1103 1.433 . S
C1111 N1113 1.384 . S
N1112 C1108 1.427 . S
N1112 C1109 1.384 . S
N1113 C1105 1.427 . S
N1113 C1111 1.384 . S
H1114 C1120 0.930 . S
H1115 C1124 0.930 . S
H1116 C1129 0.929 . S
H1117 C1127 0.929 . S
H1118 C1122 0.929 . S
H1119 C1128 0.929 . S
C1120 H1114 0.930 . S
C1120 C1121 1.367 . S
C1120 C1128 1.378 . S
C1121 C1120 1.367 . S
C1121 C1129 1.433 . S
C1122 H1118 0.929 . S
C1122 C1124 1.378 . S
C1122 C1126 1.350 . S
C1123 C1126 1.463 1_565 S
C1123 C1128 1.350 . S
C1123 N1131 1.427 . S
C1124 H1115 0.930 . S
C1124 C1122 1.378 . S
C1124 C1125 1.367 . S
C1125 C1124 1.367 . S
C1125 C1127 1.433 . S
C1126 C1122 1.350 . S
C1126 C1123 1.463 1_545 S
C1126 N1130 1.427 . S
C1127 H1117 0.929 . S
C1127 C1125 1.433 . S
C1127 N1130 1.384 . S
C1128 H1119 0.929 . S
C1128 C1120 1.378 . S
C1128 C1123 1.350 . S
C1129 H1116 0.929 . S
C1129 C1121 1.433 . S
C1129 N1131 1.384 . S
N1130 C1126 1.427 . S
N1130 C1127 1.384 . S
N1131 C1123 1.427 . S
N1131 C1129 1.384 . S
H1132 C1138 0.930 . S
H1133 C1142 0.930 . S
H1134 C1147 0.929 . S
H1135 C1145 0.929 . S
H1136 C1140 0.929 . S
H1137 C1146 0.929 . S
C1138 H1132 0.930 . S
C1138 C1139 1.367 . S
C1138 C1146 1.378 . S
C1139 C1138 1.367 . S
C1139 C1147 1.433 . S
C1140 H1136 0.929 . S
C1140 C1142 1.378 . S
C1140 C1144 1.350 . S
C1141 C1144 1.463 . S
C1141 C1146 1.350 . S
C1141 N1149 1.427 . S
C1142 H1133 0.930 . S
C1142 C1140 1.378 . S
C1142 C1143 1.367 . S
C1143 C1142 1.367 . S
C1143 C1145 1.433 . S
C1144 C1140 1.350 . S
C1144 C1141 1.463 . S
C1144 N1148 1.427 . S
C1145 H1135 0.929 . S
C1145 C1143 1.433 . S
C1145 N1148 1.384 . S
C1146 H1137 0.929 . S
C1146 C1138 1.378 . S
C1146 C1141 1.350 . S
C1147 H1134 0.929 . S
C1147 C1139 1.433 . S
C1147 N1149 1.384 . S
N1148 C1144 1.427 . S
N1148 C1145 1.384 . S
N1149 C1141 1.427 . S
N1149 C1147 1.384 . S
H1150 C1156 0.930 . S
H1151 C1160 0.930 . S
H1152 C1165 0.929 . S
H1153 C1163 0.929 . S
H1154 C1158 0.929 . S
H1155 C1164 0.929 . S
C1156 H1150 0.930 . S
C1156 C1157 1.367 1_554 S
C1156 C1164 1.378 . S
C1157 C1156 1.367 1_556 S
C1157 C1165 1.433 1_655 S
C1158 H1154 0.929 . S
C1158 C1160 1.378 . S
C1158 C1162 1.350 1_556 S
C1159 C1162 1.463 1_646 S
C1159 C1164 1.350 1_556 S
C1159 N1167 1.427 1_655 S
C1160 H1151 0.930 . S
C1160 C1158 1.378 . S
C1160 C1161 1.367 1_556 S
C1161 C1160 1.367 1_554 S
C1161 C1163 1.433 1_455 S
C1162 C1158 1.350 1_554 S
C1162 C1159 1.463 1_464 S
C1162 N1166 1.427 1_455 S
C1163 H1153 0.929 . S
C1163 C1161 1.433 1_655 S
C1163 N1166 1.384 . S
C1164 H1155 0.929 . S
C1164 C1156 1.378 . S
C1164 C1159 1.350 1_554 S
C1165 H1152 0.929 . S
C1165 C1157 1.433 1_455 S
C1165 N1167 1.384 . S
N1166 C1162 1.427 1_655 S
N1166 C1163 1.384 . S
N1167 C1159 1.427 1_455 S
N1167 C1165 1.384 . S
H1168 C1174 0.930 . S
H1169 C1178 0.930 . S
H1170 C1183 0.929 . S
H1171 C1181 0.929 . S
H1172 C1176 0.929 . S
H1173 C1182 0.929 . S
C1174 H1168 0.930 . S
C1174 C1175 1.367 . S
C1174 C1182 1.378 . S
C1175 C1174 1.367 . S
C1175 C1183 1.433 . S
C1176 H1172 0.929 . S
C1176 C1178 1.378 . S
C1176 C1180 1.350 . S
C1177 C1180 1.463 . S
C1177 C1182 1.350 . S
C1177 N1185 1.427 . S
C1178 H1169 0.930 . S
C1178 C1176 1.378 . S
C1178 C1179 1.367 . S
C1179 C1178 1.367 . S
C1179 C1181 1.433 . S
C1180 C1176 1.350 . S
C1180 C1177 1.463 . S
C1180 N1184 1.427 . S
C1181 H1171 0.929 . S
C1181 C1179 1.433 . S
C1181 N1184 1.384 . S
C1182 H1173 0.929 . S
C1182 C1174 1.378 . S
C1182 C1177 1.350 . S
C1183 H1170 0.929 . S
C1183 C1175 1.433 . S
C1183 N1185 1.384 . S
N1184 C1180 1.427 . S
N1184 C1181 1.384 . S
N1185 C1177 1.427 . S
N1185 C1183 1.384 . S
H1186 C1192 0.930 . S
H1187 C1196 0.930 . S
H1188 C1201 0.929 . S
H1189 C1199 0.929 . S
H1190 C1194 0.929 . S
H1191 C1200 0.929 . S
C1192 H1186 0.930 . S
C1192 C1193 1.367 . S
C1192 C1200 1.378 . S
C1193 C1192 1.367 . S
C1193 C1201 1.433 . S
C1194 H1190 0.929 . S
C1194 C1196 1.378 . S
C1194 C1198 1.350 . S
C1195 C1198 1.463 . S
C1195 C1200 1.350 . S
C1195 N1203 1.427 . S
C1196 H1187 0.930 . S
C1196 C1194 1.378 . S
C1196 C1197 1.367 . S
C1197 C1196 1.367 . S
C1197 C1199 1.433 . S
C1198 C1194 1.350 . S
C1198 C1195 1.463 . S
C1198 N1202 1.427 . S
C1199 H1189 0.929 . S
C1199 C1197 1.433 . S
C1199 N1202 1.384 . S
C1200 H1191 0.929 . S
C1200 C1192 1.378 . S
C1200 C1195 1.350 . S
C1201 H1188 0.929 . S
C1201 C1193 1.433 . S
C1201 N1203 1.384 . S
N1202 C1198 1.427 . S
N1202 C1199 1.384 . S
N1203 C1195 1.427 . S
N1203 C1201 1.384 . S
H1204 C1210 0.930 . S
H1205 C1214 0.930 . S
H1206 C1219 0.929 . S
H1207 C1217 0.929 . S
H1208 C1212 0.929 . S
H1209 C1218 0.929 . S
C1210 H1204 0.930 . S
C1210 C1211 1.367 . S
C1210 C1218 1.378 . S
C1211 C1210 1.367 . S
C1211 C1219 1.433 . S
C1212 H1208 0.929 . S
C1212 C1214 1.378 . S
C1212 C1216 1.350 . S
C1213 C1216 1.463 . S
C1213 C1218 1.350 . S
C1213 N1221 1.427 . S
C1214 H1205 0.930 . S
C1214 C1212 1.378 . S
C1214 C1215 1.367 . S
C1215 C1214 1.367 . S
C1215 C1217 1.433 . S
C1216 C1212 1.350 . S
C1216 C1213 1.463 . S
C1216 N1220 1.427 . S
C1217 H1207 0.929 . S
C1217 C1215 1.433 . S
C1217 N1220 1.384 . S
C1218 H1209 0.929 . S
C1218 C1210 1.378 . S
C1218 C1213 1.350 . S
C1219 H1206 0.929 . S
C1219 C1211 1.433 . S
C1219 N1221 1.384 . S
N1220 C1216 1.427 . S
N1220 C1217 1.384 . S
N1221 C1213 1.427 . S
N1221 C1219 1.384 . S
H1222 C1228 0.930 . S
H1223 C1232 0.930 . S
H1224 C1237 0.929 . S
H1225 C1235 0.929 . S
H1226 C1230 0.929 . S
H1227 C1236 0.929 . S
C1228 H1222 0.930 . S
C1228 C1229 1.367 . S
C1228 C1236 1.378 . S
C1229 C1228 1.367 . S
C1229 C1237 1.433 . S
C1230 H1226 0.929 . S
C1230 C1232 1.378 . S
C1230 C1234 1.350 . S
C1231 C1234 1.463 . S
C1231 C1236 1.350 . S
C1231 N1239 1.427 . S
C1232 H1223 0.930 . S
C1232 C1230 1.378 . S
C1232 C1233 1.367 . S
C1233 C1232 1.367 . S
C1233 C1235 1.433 . S
C1234 C1230 1.350 . S
C1234 C1231 1.463 . S
C1234 N1238 1.427 . S
C1235 H1225 0.929 . S
C1235 C1233 1.433 . S
C1235 N1238 1.384 . S
C1236 H1227 0.929 . S
C1236 C1228 1.378 . S
C1236 C1231 1.350 . S
C1237 H1224 0.929 . S
C1237 C1229 1.433 . S
C1237 N1239 1.384 . S
N1238 C1234 1.427 . S
N1238 C1235 1.384 . S
N1239 C1231 1.427 . S
N1239 C1237 1.384 . S
H1240 C1246 0.930 . S
H1241 C1250 0.930 . S
H1242 C1255 0.929 . S
H1243 C1253 0.929 . S
H1244 C1248 0.929 . S
H1245 C1254 0.929 . S
C1246 H1240 0.930 . S
C1246 C1247 1.367 . S
C1246 C1254 1.378 . S
C1247 C1246 1.367 . S
C1247 C1255 1.433 1_554 S
C1248 H1244 0.929 . S
C1248 C1250 1.378 . S
C1248 C1252 1.350 . S
C1249 C1252 1.463 1_554 S
C1249 C1254 1.350 . S
C1249 N1257 1.427 1_554 S
C1250 H1241 0.930 . S
C1250 C1248 1.378 . S
C1250 C1251 1.367 . S
C1251 C1250 1.367 . S
C1251 C1253 1.433 1_556 S
C1252 C1248 1.350 . S
C1252 C1249 1.463 1_556 S
C1252 N1256 1.427 1_556 S
C1253 H1243 0.929 . S
C1253 C1251 1.433 1_554 S
C1253 N1256 1.384 . S
C1254 H1245 0.929 . S
C1254 C1246 1.378 . S
C1254 C1249 1.350 . S
C1255 H1242 0.929 . S
C1255 C1247 1.433 1_556 S
C1255 N1257 1.384 . S
N1256 C1252 1.427 1_554 S
N1256 C1253 1.384 . S
N1257 C1249 1.427 1_556 S
N1257 C1255 1.384 . S
H1258 C1264 0.930 . S
H1259 C1268 0.930 . S
H1260 C1273 0.929 . S
H1261 C1271 0.929 . S
H1262 C1266 0.929 . S
H1263 C1272 0.929 . S
C1264 H1258 0.930 . S
C1264 C1265 1.367 . S
C1264 C1272 1.378 . S
C1265 C1264 1.367 . S
C1265 C1273 1.433 1_655 S
C1266 H1262 0.929 . S
C1266 C1268 1.378 . S
C1266 C1270 1.350 . S
C1267 C1270 1.463 1_655 S
C1267 C1272 1.350 . S
C1267 N1275 1.427 1_655 S
C1268 H1259 0.930 . S
C1268 C1266 1.378 . S
C1268 C1269 1.367 . S
C1269 C1268 1.367 . S
C1269 C1271 1.433 1_455 S
C1270 C1266 1.350 . S
C1270 C1267 1.463 1_455 S
C1270 N1274 1.427 1_455 S
C1271 H1261 0.929 . S
C1271 C1269 1.433 1_655 S
C1271 N1274 1.384 . S
C1272 H1263 0.929 . S
C1272 C1264 1.378 . S
C1272 C1267 1.350 . S
C1273 H1260 0.929 . S
C1273 C1265 1.433 1_455 S
C1273 N1275 1.384 . S
N1274 C1270 1.427 1_655 S
N1274 C1271 1.384 . S
N1275 C1267 1.427 1_455 S
N1275 C1273 1.384 . S
H1276 C1282 0.930 1_655 S
H1277 C1286 0.930 1_455 S
H1278 C1291 0.929 . S
H1279 C1289 0.929 . S
H1280 C1284 0.929 . S
H1281 C1290 0.929 . S
C1282 H1276 0.930 1_455 S
C1282 C1283 1.367 . S
C1282 C1290 1.378 1_455 S
C1283 C1282 1.367 . S
C1283 C1291 1.433 1_556 S
C1284 H1280 0.929 . S
C1284 C1286 1.378 1_455 S
C1284 C1288 1.350 1_455 S
C1285 C1288 1.463 1_456 S
C1285 C1290 1.350 1_455 S
C1285 N1293 1.427 1_556 S
C1286 H1277 0.930 1_655 S
C1286 C1284 1.378 1_655 S
C1286 C1287 1.367 . S
C1287 C1286 1.367 . S
C1287 C1289 1.433 1_554 S
C1288 C1284 1.350 1_655 S
C1288 C1285 1.463 1_654 S
C1288 N1292 1.427 1_554 S
C1289 H1279 0.929 . S
C1289 C1287 1.433 1_556 S
C1289 N1292 1.384 . S
C1290 H1281 0.929 . S
C1290 C1282 1.378 1_655 S
C1290 C1285 1.350 1_655 S
C1291 H1278 0.929 . S
C1291 C1283 1.433 1_554 S
C1291 N1293 1.384 . S
N1292 C1288 1.427 1_556 S
N1292 C1289 1.384 . S
N1293 C1285 1.427 1_554 S
N1293 C1291 1.384 . S
H1294 C1300 0.930 . S
H1295 C1304 0.930 . S
H1296 C1309 0.929 . S
H1297 C1307 0.929 . S
H1298 C1302 0.929 . S
H1299 C1308 0.929 . S
C1300 H1294 0.930 . S
C1300 C1301 1.367 . S
C1300 C1308 1.378 . S
C1301 C1300 1.367 . S
C1301 C1309 1.433 . S
C1302 H1298 0.929 . S
C1302 C1304 1.378 . S
C1302 C1306 1.350 . S
C1303 C1306 1.463 . S
C1303 C1308 1.350 . S
C1303 N1311 1.427 . S
C1304 H1295 0.930 . S
C1304 C1302 1.378 . S
C1304 C1305 1.367 . S
C1305 C1304 1.367 . S
C1305 C1307 1.433 . S
C1306 C1302 1.350 . S
C1306 C1303 1.463 . S
C1306 N1310 1.427 . S
C1307 H1297 0.929 . S
C1307 C1305 1.433 . S
C1307 N1310 1.384 . S
C1308 H1299 0.929 . S
C1308 C1300 1.378 . S
C1308 C1303 1.350 . S
C1309 H1296 0.929 . S
C1309 C1301 1.433 . S
C1309 N1311 1.384 . S
N1310 C1306 1.427 . S
N1310 C1307 1.384 . S
N1311 C1303 1.427 . S
N1311 C1309 1.384 . S
H1312 C1318 0.930 . S
H1313 C1322 0.930 . S
H1314 C1327 0.929 . S
H1315 C1325 0.929 . S
H1316 C1320 0.929 . S
H1317 C1326 0.929 . S
C1318 H1312 0.930 . S
C1318 C1319 1.367 . S
C1318 C1326 1.378 . S
C1319 C1318 1.367 . S
C1319 C1327 1.433 . S
C1320 H1316 0.929 . S
C1320 C1322 1.378 . S
C1320 C1324 1.350 . S
C1321 C1324 1.463 . S
C1321 C1326 1.350 . S
C1321 N1329 1.427 . S
C1322 H1313 0.930 . S
C1322 C1320 1.378 . S
C1322 C1323 1.367 . S
C1323 C1322 1.367 . S
C1323 C1325 1.433 . S
C1324 C1320 1.350 . S
C1324 C1321 1.463 . S
C1324 N1328 1.427 . S
C1325 H1315 0.929 . S
C1325 C1323 1.433 . S
C1325 N1328 1.384 . S
C1326 H1317 0.929 . S
C1326 C1318 1.378 . S
C1326 C1321 1.350 . S
C1327 H1314 0.929 . S
C1327 C1319 1.433 . S
C1327 N1329 1.384 . S
N1328 C1324 1.427 . S
N1328 C1325 1.384 . S
N1329 C1321 1.427 . S
N1329 C1327 1.384 . S
H1330 C1336 0.930 . S
H1331 C1340 0.930 . S
H1332 C1345 0.929 . S
H1333 C1343 0.929 . S
H1334 C1338 0.929 . S
H1335 C1344 0.929 . S
C1336 H1330 0.930 . S
C1336 C1337 1.367 . S
C1336 C1344 1.378 . S
C1337 C1336 1.367 . S
C1337 C1345 1.433 . S
C1338 H1334 0.929 . S
C1338 C1340 1.378 . S
C1338 C1342 1.350 . S
C1339 C1342 1.463 . S
C1339 C1344 1.350 . S
C1339 N1347 1.427 . S
C1340 H1331 0.930 . S
C1340 C1338 1.378 . S
C1340 C1341 1.367 . S
C1341 C1340 1.367 . S
C1341 C1343 1.433 . S
C1342 C1338 1.350 . S
C1342 C1339 1.463 . S
C1342 N1346 1.427 . S
C1343 H1333 0.929 . S
C1343 C1341 1.433 . S
C1343 N1346 1.384 . S
C1344 H1335 0.929 . S
C1344 C1336 1.378 . S
C1344 C1339 1.350 . S
C1345 H1332 0.929 . S
C1345 C1337 1.433 . S
C1345 N1347 1.384 . S
N1346 C1342 1.427 . S
N1346 C1343 1.384 . S
N1347 C1339 1.427 . S
N1347 C1345 1.384 . S
H1348 C1354 0.930 . S
H1349 C1358 0.930 . S
H1350 C1363 0.929 . S
H1351 C1361 0.929 . S
H1352 C1356 0.929 . S
H1353 C1362 0.929 . S
C1354 H1348 0.930 . S
C1354 C1355 1.367 . S
C1354 C1362 1.378 . S
C1355 C1354 1.367 . S
C1355 C1363 1.433 . S
C1356 H1352 0.929 . S
C1356 C1358 1.378 . S
C1356 C1360 1.350 . S
C1357 C1360 1.463 . S
C1357 C1362 1.350 . S
C1357 N1365 1.427 . S
C1358 H1349 0.930 . S
C1358 C1356 1.378 . S
C1358 C1359 1.367 . S
C1359 C1358 1.367 . S
C1359 C1361 1.433 . S
C1360 C1356 1.350 . S
C1360 C1357 1.463 . S
C1360 N1364 1.427 . S
C1361 H1351 0.929 . S
C1361 C1359 1.433 . S
C1361 N1364 1.384 . S
C1362 H1353 0.929 . S
C1362 C1354 1.378 . S
C1362 C1357 1.350 . S
C1363 H1350 0.929 . S
C1363 C1355 1.433 . S
C1363 N1365 1.384 . S
N1364 C1360 1.427 . S
N1364 C1361 1.384 . S
N1365 C1357 1.427 . S
N1365 C1363 1.384 . S
H1366 C1372 0.930 . S
H1367 C1376 0.930 . S
H1368 C1381 0.929 . S
H1369 C1379 0.929 . S
H1370 C1374 0.929 . S
H1371 C1380 0.929 . S
C1372 H1366 0.930 . S
C1372 C1373 1.367 . S
C1372 C1380 1.378 . S
C1373 C1372 1.367 . S
C1373 C1381 1.433 . S
C1374 H1370 0.929 . S
C1374 C1376 1.378 . S
C1374 C1378 1.350 . S
C1375 C1378 1.463 . S
C1375 C1380 1.350 . S
C1375 N1383 1.427 . S
C1376 H1367 0.930 . S
C1376 C1374 1.378 . S
C1376 C1377 1.367 . S
C1377 C1376 1.367 . S
C1377 C1379 1.433 . S
C1378 C1374 1.350 . S
C1378 C1375 1.463 . S
C1378 N1382 1.427 . S
C1379 H1369 0.929 . S
C1379 C1377 1.433 . S
C1379 N1382 1.384 . S
C1380 H1371 0.929 . S
C1380 C1372 1.378 . S
C1380 C1375 1.350 . S
C1381 H1368 0.929 . S
C1381 C1373 1.433 . S
C1381 N1383 1.384 . S
N1382 C1378 1.427 . S
N1382 C1379 1.384 . S
N1383 C1375 1.427 . S
N1383 C1381 1.384 . S
H1384 C1390 0.930 . S
H1385 C1394 0.930 . S
H1386 C1399 0.929 . S
H1387 C1397 0.929 . S
H1388 C1392 0.929 . S
H1389 C1398 0.929 . S
C1390 H1384 0.930 . S
C1390 C1391 1.367 . S
C1390 C1398 1.378 . S
C1391 C1390 1.367 . S
C1391 C1399 1.433 . S
C1392 H1388 0.929 . S
C1392 C1394 1.378 . S
C1392 C1396 1.350 . S
C1393 C1396 1.463 . S
C1393 C1398 1.350 . S
C1393 N1401 1.427 . S
C1394 H1385 0.930 . S
C1394 C1392 1.378 . S
C1394 C1395 1.367 . S
C1395 C1394 1.367 . S
C1395 C1397 1.433 . S
C1396 C1392 1.350 . S
C1396 C1393 1.463 . S
C1396 N1400 1.427 . S
C1397 H1387 0.929 . S
C1397 C1395 1.433 . S
C1397 N1400 1.384 . S
C1398 H1389 0.929 . S
C1398 C1390 1.378 . S
C1398 C1393 1.350 . S
C1399 H1386 0.929 . S
C1399 C1391 1.433 . S
C1399 N1401 1.384 . S
N1400 C1396 1.427 . S
N1400 C1397 1.384 . S
N1401 C1393 1.427 . S
N1401 C1399 1.384 . S
H1402 C1408 0.930 . S
H1403 C1412 0.930 . S
H1404 C1417 0.929 . S
H1405 C1415 0.929 . S
H1406 C1410 0.929 . S
H1407 C1416 0.929 . S
C1408 H1402 0.930 . S
C1408 C1409 1.367 . S
C1408 C1416 1.378 . S
C1409 C1408 1.367 . S
C1409 C1417 1.433 . S
C1410 H1406 0.929 . S
C1410 C1412 1.378 . S
C1410 C1414 1.350 . S
C1411 C1414 1.463 . S
C1411 C1416 1.350 . S
C1411 N1419 1.427 . S
C1412 H1403 0.930 . S
C1412 C1410 1.378 . S
C1412 C1413 1.367 . S
C1413 C1412 1.367 . S
C1413 C1415 1.433 . S
C1414 C1410 1.350 . S
C1414 C1411 1.463 . S
C1414 N1418 1.427 . S
C1415 H1405 0.929 . S
C1415 C1413 1.433 . S
C1415 N1418 1.384 . S
C1416 H1407 0.929 . S
C1416 C1408 1.378 . S
C1416 C1411 1.350 . S
C1417 H1404 0.929 . S
C1417 C1409 1.433 . S
C1417 N1419 1.384 . S
N1418 C1414 1.427 . S
N1418 C1415 1.384 . S
N1419 C1411 1.427 . S
N1419 C1417 1.384 . S
H1420 C1426 0.930 . S
H1421 C1430 0.930 . S
H1422 C1435 0.929 . S
H1423 C1433 0.929 . S
H1424 C1428 0.929 . S
H1425 C1434 0.929 . S
C1426 H1420 0.930 . S
C1426 C1427 1.367 . S
C1426 C1434 1.378 . S
C1427 C1426 1.367 . S
C1427 C1435 1.433 . S
C1428 H1424 0.929 . S
C1428 C1430 1.378 . S
C1428 C1432 1.350 . S
C1429 C1432 1.463 . S
C1429 C1434 1.350 . S
C1429 N1437 1.427 . S
C1430 H1421 0.930 . S
C1430 C1428 1.378 . S
C1430 C1431 1.367 . S
C1431 C1430 1.367 . S
C1431 C1433 1.433 . S
C1432 C1428 1.350 . S
C1432 C1429 1.463 . S
C1432 N1436 1.427 . S
C1433 H1423 0.929 . S
C1433 C1431 1.433 . S
C1433 N1436 1.384 . S
C1434 H1425 0.929 . S
C1434 C1426 1.378 . S
C1434 C1429 1.350 . S
C1435 H1422 0.929 . S
C1435 C1427 1.433 . S
C1435 N1437 1.384 . S
N1436 C1432 1.427 . S
N1436 C1433 1.384 . S
N1437 C1429 1.427 . S
N1437 C1435 1.384 . S
H1438 C1444 0.930 . S
H1439 C1448 0.930 . S
H1440 C1453 0.929 . S
H1441 C1451 0.929 . S
H1442 C1446 0.929 . S
H1443 C1452 0.929 . S
C1444 H1438 0.930 . S
C1444 C1445 1.367 . S
C1444 C1452 1.378 . S
C1445 C1444 1.367 . S
C1445 C1453 1.433 . S
C1446 H1442 0.929 . S
C1446 C1448 1.378 . S
C1446 C1450 1.350 . S
C1447 C1450 1.463 . S
C1447 C1452 1.350 . S
C1447 N1455 1.427 . S
C1448 H1439 0.930 . S
C1448 C1446 1.378 . S
C1448 C1449 1.367 . S
C1449 C1448 1.367 . S
C1449 C1451 1.433 . S
C1450 C1446 1.350 . S
C1450 C1447 1.463 . S
C1450 N1454 1.427 . S
C1451 H1441 0.929 . S
C1451 C1449 1.433 . S
C1451 N1454 1.384 . S
C1452 H1443 0.929 . S
C1452 C1444 1.378 . S
C1452 C1447 1.350 . S
C1453 H1440 0.929 . S
C1453 C1445 1.433 . S
C1453 N1455 1.384 . S
N1454 C1450 1.427 . S
N1454 C1451 1.384 . S
N1455 C1447 1.427 . S
N1455 C1453 1.384 . S
H1456 C1462 0.930 . S
H1457 C1466 0.930 . S
H1458 C1471 0.929 . S
H1459 C1469 0.929 . S
H1460 C1464 0.929 . S
H1461 C1470 0.929 . S
C1462 H1456 0.930 . S
C1462 C1463 1.367 . S
C1462 C1470 1.378 . S
C1463 C1462 1.367 . S
C1463 C1471 1.433 . S
C1464 H1460 0.929 . S
C1464 C1466 1.378 . S
C1464 C1468 1.350 . S
C1465 C1468 1.463 . S
C1465 C1470 1.350 . S
C1465 N1473 1.427 . S
C1466 H1457 0.930 . S
C1466 C1464 1.378 . S
C1466 C1467 1.367 . S
C1467 C1466 1.367 . S
C1467 C1469 1.433 . S
C1468 C1464 1.350 . S
C1468 C1465 1.463 . S
C1468 N1472 1.427 . S
C1469 H1459 0.929 . S
C1469 C1467 1.433 . S
C1469 N1472 1.384 . S
C1470 H1461 0.929 . S
C1470 C1462 1.378 . S
C1470 C1465 1.350 . S
C1471 H1458 0.929 . S
C1471 C1463 1.433 . S
C1471 N1473 1.384 . S
N1472 C1468 1.427 . S
N1472 C1469 1.384 . S
N1473 C1465 1.427 . S
N1473 C1471 1.384 . S
H1474 C1480 0.930 . S
H1475 C1484 0.930 . S
H1476 C1489 0.929 . S
H1477 C1487 0.929 . S
H1478 C1482 0.929 . S
H1479 C1488 0.929 . S
C1480 H1474 0.930 . S
C1480 C1481 1.367 . S
C1480 C1488 1.378 . S
C1481 C1480 1.367 . S
C1481 C1489 1.433 . S
C1482 H1478 0.929 . S
C1482 C1484 1.378 . S
C1482 C1486 1.350 . S
C1483 C1486 1.463 . S
C1483 C1488 1.350 . S
C1483 N1491 1.427 . S
C1484 H1475 0.930 . S
C1484 C1482 1.378 . S
C1484 C1485 1.367 . S
C1485 C1484 1.367 . S
C1485 C1487 1.433 . S
C1486 C1482 1.350 . S
C1486 C1483 1.463 . S
C1486 N1490 1.427 . S
C1487 H1477 0.929 . S
C1487 C1485 1.433 . S
C1487 N1490 1.384 . S
C1488 H1479 0.929 . S
C1488 C1480 1.378 . S
C1488 C1483 1.350 . S
C1489 H1476 0.929 . S
C1489 C1481 1.433 . S
C1489 N1491 1.384 . S
N1490 C1486 1.427 . S
N1490 C1487 1.384 . S
N1491 C1483 1.427 . S
N1491 C1489 1.384 . S
H1492 C1498 0.930 . S
H1493 C1502 0.930 . S
H1494 C1507 0.929 . S
H1495 C1505 0.929 . S
H1496 C1500 0.929 . S
H1497 C1506 0.929 . S
C1498 H1492 0.930 . S
C1498 C1499 1.367 . S
C1498 C1506 1.378 . S
C1499 C1498 1.367 . S
C1499 C1507 1.433 . S
C1500 H1496 0.929 . S
C1500 C1502 1.378 . S
C1500 C1504 1.350 . S
C1501 C1504 1.463 . S
C1501 C1506 1.350 . S
C1501 N1509 1.427 . S
C1502 H1493 0.930 . S
C1502 C1500 1.378 . S
C1502 C1503 1.367 . S
C1503 C1502 1.367 . S
C1503 C1505 1.433 . S
C1504 C1500 1.350 . S
C1504 C1501 1.463 . S
C1504 N1508 1.427 . S
C1505 H1495 0.929 . S
C1505 C1503 1.433 . S
C1505 N1508 1.384 . S
C1506 H1497 0.929 . S
C1506 C1498 1.378 . S
C1506 C1501 1.350 . S
C1507 H1494 0.929 . S
C1507 C1499 1.433 . S
C1507 N1509 1.384 . S
N1508 C1504 1.427 . S
N1508 C1505 1.384 . S
N1509 C1501 1.427 . S
N1509 C1507 1.384 . S
H1510 C1516 0.930 . S
H1511 C1520 0.930 . S
H1512 C1525 0.929 . S
H1513 C1523 0.929 . S
H1514 C1518 0.929 . S
H1515 C1524 0.929 . S
C1516 H1510 0.930 . S
C1516 C1517 1.367 . S
C1516 C1524 1.378 . S
C1517 C1516 1.367 . S
C1517 C1525 1.433 . S
C1518 H1514 0.929 . S
C1518 C1520 1.378 . S
C1518 C1522 1.350 . S
C1519 C1522 1.463 . S
C1519 C1524 1.350 . S
C1519 N1527 1.427 . S
C1520 H1511 0.930 . S
C1520 C1518 1.378 . S
C1520 C1521 1.367 . S
C1521 C1520 1.367 . S
C1521 C1523 1.433 . S
C1522 C1518 1.350 . S
C1522 C1519 1.463 . S
C1522 N1526 1.427 . S
C1523 H1513 0.929 . S
C1523 C1521 1.433 . S
C1523 N1526 1.384 . S
C1524 H1515 0.929 . S
C1524 C1516 1.378 . S
C1524 C1519 1.350 . S
C1525 H1512 0.929 . S
C1525 C1517 1.433 . S
C1525 N1527 1.384 . S
N1526 C1522 1.427 . S
N1526 C1523 1.384 . S
N1527 C1519 1.427 . S
N1527 C1525 1.384 . S
H1528 C1534 0.930 . S
H1529 C1538 0.930 . S
H1530 C1543 0.929 . S
H1531 C1541 0.929 . S
H1532 C1536 0.929 . S
H1533 C1542 0.929 . S
C1534 H1528 0.930 . S
C1534 C1535 1.367 . S
C1534 C1542 1.378 . S
C1535 C1534 1.367 . S
C1535 C1543 1.433 . S
C1536 H1532 0.929 . S
C1536 C1538 1.378 . S
C1536 C1540 1.350 . S
C1537 C1540 1.463 . S
C1537 C1542 1.350 . S
C1537 N1545 1.427 . S
C1538 H1529 0.930 . S
C1538 C1536 1.378 . S
C1538 C1539 1.367 . S
C1539 C1538 1.367 . S
C1539 C1541 1.433 . S
C1540 C1536 1.350 . S
C1540 C1537 1.463 . S
C1540 N1544 1.427 . S
C1541 H1531 0.929 . S
C1541 C1539 1.433 . S
C1541 N1544 1.384 . S
C1542 H1533 0.929 . S
C1542 C1534 1.378 . S
C1542 C1537 1.350 . S
C1543 H1530 0.929 . S
C1543 C1535 1.433 . S
C1543 N1545 1.384 . S
N1544 C1540 1.427 . S
N1544 C1541 1.384 . S
N1545 C1537 1.427 . S
N1545 C1543 1.384 . S
H1546 C1552 0.930 . S
H1547 C1556 0.930 . S
H1548 C1561 0.929 . S
H1549 C1559 0.929 . S
H1550 C1554 0.929 . S
H1551 C1560 0.929 . S
C1552 H1546 0.930 . S
C1552 C1553 1.367 . S
C1552 C1560 1.378 . S
C1553 C1552 1.367 . S
C1553 C1561 1.433 . S
C1554 H1550 0.929 . S
C1554 C1556 1.378 . S
C1554 C1558 1.350 . S
C1555 C1558 1.463 . S
C1555 C1560 1.350 . S
C1555 N1563 1.427 . S
C1556 H1547 0.930 . S
C1556 C1554 1.378 . S
C1556 C1557 1.367 . S
C1557 C1556 1.367 . S
C1557 C1559 1.433 . S
C1558 C1554 1.350 . S
C1558 C1555 1.463 . S
C1558 N1562 1.427 . S
C1559 H1549 0.929 . S
C1559 C1557 1.433 . S
C1559 N1562 1.384 . S
C1560 H1551 0.929 . S
C1560 C1552 1.378 . S
C1560 C1555 1.350 . S
C1561 H1548 0.929 . S
C1561 C1553 1.433 . S
C1561 N1563 1.384 . S
N1562 C1558 1.427 . S
N1562 C1559 1.384 . S
N1563 C1555 1.427 . S
N1563 C1561 1.384 . S
H1564 C1570 0.930 . S
H1565 C1574 0.930 . S
H1566 C1579 0.929 . S
H1567 C1577 0.929 . S
H1568 C1572 0.929 . S
H1569 C1578 0.929 . S
C1570 H1564 0.930 . S
C1570 C1571 1.367 . S
C1570 C1578 1.378 . S
C1571 C1570 1.367 . S
C1571 C1579 1.433 . S
C1572 H1568 0.929 . S
C1572 C1574 1.378 . S
C1572 C1576 1.350 . S
C1573 C1576 1.463 . S
C1573 C1578 1.350 . S
C1573 N1581 1.427 . S
C1574 H1565 0.930 . S
C1574 C1572 1.378 . S
C1574 C1575 1.367 . S
C1575 C1574 1.367 . S
C1575 C1577 1.433 . S
C1576 C1572 1.350 . S
C1576 C1573 1.463 . S
C1576 N1580 1.427 . S
C1577 H1567 0.929 . S
C1577 C1575 1.433 . S
C1577 N1580 1.384 . S
C1578 H1569 0.929 . S
C1578 C1570 1.378 . S
C1578 C1573 1.350 . S
C1579 H1566 0.929 . S
C1579 C1571 1.433 . S
C1579 N1581 1.384 . S
N1580 C1576 1.427 . S
N1580 C1577 1.384 . S
N1581 C1573 1.427 . S
N1581 C1579 1.384 . S
H1582 C1588 0.930 . S
H1583 C1592 0.930 . S
H1584 C1597 0.929 . S
H1585 C1595 0.929 . S
H1586 C1590 0.929 . S
H1587 C1596 0.929 . S
C1588 H1582 0.930 . S
C1588 C1589 1.367 . S
C1588 C1596 1.378 . S
C1589 C1588 1.367 . S
C1589 C1597 1.433 . S
C1590 H1586 0.929 . S
C1590 C1592 1.378 . S
C1590 C1594 1.350 . S
C1591 C1594 1.463 . S
C1591 C1596 1.350 . S
C1591 N1599 1.427 . S
C1592 H1583 0.930 . S
C1592 C1590 1.378 . S
C1592 C1593 1.367 . S
C1593 C1592 1.367 . S
C1593 C1595 1.433 . S
C1594 C1590 1.350 . S
C1594 C1591 1.463 . S
C1594 N1598 1.427 . S
C1595 H1585 0.929 . S
C1595 C1593 1.433 . S
C1595 N1598 1.384 . S
C1596 H1587 0.929 . S
C1596 C1588 1.378 . S
C1596 C1591 1.350 . S
C1597 H1584 0.929 . S
C1597 C1589 1.433 . S
C1597 N1599 1.384 . S
N1598 C1594 1.427 . S
N1598 C1595 1.384 . S
N1599 C1591 1.427 . S
N1599 C1597 1.384 . S
C455 C134 0.924 . S
C459 C7 0.954 . S
C473 C21 0.949 . S
C477 C372 0.927 . S
C491 C162 0.941 . S
C495 C35 0.942 . S
C509 C344 0.932 . S
C513 C49 0.949 . S
C527 C63 0.938 . S
C531 C218 0.943 . S
C545 C400 0.944 . S
C549 C77 0.938 . S
C563 C91 0.955 . S
C567 C190 0.920 . S
C581 C428 0.920 . S
C585 C105 0.955 . S
C599 C22 0.920 . S
C603 C119 0.956 . S
C617 C133 0.954 . S
C621 C260 0.921 . S
C635 C50 0.920 . S
C639 C147 0.956 . S
C653 C161 0.951 . S
C657 C232 0.925 . S
C671 C175 0.952 . S
C675 C106 0.927 . S
C689 C288 0.942 . S
C693 C189 0.941 . S
C707 C203 0.940 . S
C711 C78 0.943 . S
C725 C316 0.933 . S
C729 C217 0.945 . S
C743 C358 0.921 . S
C747 C231 0.954 . S
C761 C148 0.933 . S
C765 C245 0.948 . S
C779 C259 0.938 . S
C783 C386 0.945 . S
C797 C120 0.938 . S
C801 C273 0.941 . S
C815 C442 0.922 . S
C819 C287 0.955 . S
C833 C301 0.938 . S
C837 C176 0.943 . S
C851 C414 0.933 . S
C855 C315 0.948 . S
C869 C204 0.945 . S
C873 C329 0.938 . S
C887 C246 0.928 . S
C891 C343 0.951 . S
C905 C357 0.954 . S
C909 C36 0.924 . S
C923 C371 0.952 . S
C927 C274 0.924 . S
C941 C385 0.938 . S
C945 C8 0.945 . S
C959 C330 0.944 . S
C963 C399 0.939 . S
C977 C413 0.951 . S
C981 C64 0.929 . S
C995 C427 0.948 . S
C999 C302 0.929 . S
C1013 C441 0.956 . S
C1017 C92 0.920 . S
C1031 C347 1.257 . S
C1035 C11 1.257 . S
C1049 C25 1.263 . S
C1053 C137 1.263 . S
C1067 C39 1.258 . S
C1071 C375 1.258 . S
C1085 C53 1.258 . S
C1089 C165 1.258 . S
C1103 C67 1.267 . S
C1107 C403 1.267 . S
C1121 C81 1.263 . S
C1125 C193 1.263 . S
C1139 C431 1.265 . S
C1143 C95 1.265 . S
C1157 C109 1.264 . S
C1161 C221 1.264 . S
C1175 C123 1.265 . S
C1179 C235 1.265 . S
C1193 C151 1.258 . S
C1197 C263 1.258 . S
C1211 C291 1.266 . S
C1215 C179 1.266 . S
C1229 C319 1.267 . S
C1233 C207 1.267 . S
C1247 C249 1.260 . S
C1251 C361 1.260 . S
C1265 C389 1.264 . S
C1269 C277 1.264 . S
C1283 C305 1.261 . S
C1287 C417 1.261 . S
C1301 C445 1.262 . S
C1305 C333 1.262 . S
C1319 C307 1.468 . S
C1323 C13 1.476 . S
C1337 C321 1.476 . S
C1341 C27 1.489 . S
C1355 C41 1.478 . S
C1359 C335 1.490 . S
C1373 C293 1.480 . S
C1377 C55 1.490 . S
C1391 C279 1.470 . S
C1395 C69 1.483 . S
C1409 C237 1.488 . S
C1413 C83 1.475 . S
C1427 C97 1.487 . S
C1431 C251 1.488 . S
C1445 C265 1.487 . S
C1449 C111 1.473 . S
C1463 C419 1.469 . S
C1467 C125 1.475 . S
C1481 C433 1.473 . S
C1485 C139 1.487 . S
C1499 C447 1.489 . S
C1503 C153 1.485 . S
C1517 C167 1.468 . S
C1521 C405 1.478 . S
C1535 C391 1.488 . S
C1539 C181 1.475 . S
C1553 C349 1.480 . S
C1557 C195 1.469 . S
C1571 C363 1.487 . S
C1575 C209 1.473 . S
C1589 C377 1.469 . S
C1593 C223 1.475 . S
