# Generated by pormake.
# Topology wiu, (6)-cn, num edge types: 1
# Building blocks:
#     Node 0, Type 0, BuildingBlock: BETFEN_clean_sbu_0, # of connection points: 6
#     Node 1, Type 0, BuildingBlock: BETFEN_clean_sbu_0, # of connection points: 6
#     Node 2, Type 0, BuildingBlock: BETFEN_clean_sbu_0, # of connection points: 6
#     Node 3, Type 0, BuildingBlock: BETFEN_clean_sbu_0, # of connection points: 6
#     Node 4, Type 0, BuildingBlock: BETFEN_clean_sbu_0, # of connection points: 6
#     Node 5, Type 0, BuildingBlock: BETFEN_clean_sbu_0, # of connection points: 6
#     Node 6, Type 0, BuildingBlock: BETFEN_clean_sbu_0, # of connection points: 6
#     Node 7, Type 0, BuildingBlock: BETFEN_clean_sbu_0, # of connection points: 6
#     Node 8, Type 0, BuildingBlock: BETFEN_clean_sbu_0, # of connection points: 6
#     Node 9, Type 0, BuildingBlock: BETFEN_clean_sbu_0, # of connection points: 6
#     Node 10, Type 0, BuildingBlock: BETFEN_clean_sbu_0, # of connection points: 6
#     Node 11, Type 0, BuildingBlock: BETFEN_clean_sbu_0, # of connection points: 6
#     Node 12, Type 0, BuildingBlock: BETFEN_clean_sbu_0, # of connection points: 6
#     Node 13, Type 0, BuildingBlock: BETFEN_clean_sbu_0, # of connection points: 6
#     Node 14, Type 0, BuildingBlock: BETFEN_clean_sbu_0, # of connection points: 6
#     Node 15, Type 0, BuildingBlock: BETFEN_clean_sbu_0, # of connection points: 6
#     Edge 16, Type (0, 0), BuildingBlock: KIFKEQ_clean_linker_1, # of connection points: 2
#     Edge 17, Type (0, 0), BuildingBlock: KIFKEQ_clean_linker_1, # of connection points: 2
#     Edge 18, Type (0, 0), BuildingBlock: KIFKEQ_clean_linker_1, # of connection points: 2
#     Edge 19, Type (0, 0), BuildingBlock: KIFKEQ_clean_linker_1, # of connection points: 2
#     Edge 20, Type (0, 0), BuildingBlock: KIFKEQ_clean_linker_1, # of connection points: 2
#     Edge 21, Type (0, 0), BuildingBlock: KIFKEQ_clean_linker_1, # of connection points: 2
#     Edge 22, Type (0, 0), BuildingBlock: KIFKEQ_clean_linker_1, # of connection points: 2
#     Edge 23, Type (0, 0), BuildingBlock: KIFKEQ_clean_linker_1, # of connection points: 2
#     Edge 24, Type (0, 0), BuildingBlock: KIFKEQ_clean_linker_1, # of connection points: 2
#     Edge 25, Type (0, 0), BuildingBlock: KIFKEQ_clean_linker_1, # of connection points: 2
#     Edge 26, Type (0, 0), BuildingBlock: KIFKEQ_clean_linker_1, # of connection points: 2
#     Edge 27, Type (0, 0), BuildingBlock: KIFKEQ_clean_linker_1, # of connection points: 2
#     Edge 28, Type (0, 0), BuildingBlock: KIFKEQ_clean_linker_1, # of connection points: 2
#     Edge 29, Type (0, 0), BuildingBlock: KIFKEQ_clean_linker_1, # of connection points: 2
#     Edge 30, Type (0, 0), BuildingBlock: KIFKEQ_clean_linker_1, # of connection points: 2
#     Edge 31, Type (0, 0), BuildingBlock: KIFKEQ_clean_linker_1, # of connection points: 2
#     Edge 32, Type (0, 0), BuildingBlock: KIFKEQ_clean_linker_1, # of connection points: 2
#     Edge 33, Type (0, 0), BuildingBlock: KIFKEQ_clean_linker_1, # of connection points: 2
#     Edge 34, Type (0, 0), BuildingBlock: KIFKEQ_clean_linker_1, # of connection points: 2
#     Edge 35, Type (0, 0), BuildingBlock: KIFKEQ_clean_linker_1, # of connection points: 2
#     Edge 36, Type (0, 0), BuildingBlock: KIFKEQ_clean_linker_1, # of connection points: 2
#     Edge 37, Type (0, 0), BuildingBlock: KIFKEQ_clean_linker_1, # of connection points: 2
#     Edge 38, Type (0, 0), BuildingBlock: KIFKEQ_clean_linker_1, # of connection points: 2
#     Edge 39, Type (0, 0), BuildingBlock: KIFKEQ_clean_linker_1, # of connection points: 2
#     Edge 40, Type (0, 0), BuildingBlock: KIFKEQ_clean_linker_1, # of connection points: 2
#     Edge 41, Type (0, 0), BuildingBlock: KIFKEQ_clean_linker_1, # of connection points: 2
#     Edge 42, Type (0, 0), BuildingBlock: KIFKEQ_clean_linker_1, # of connection points: 2
#     Edge 43, Type (0, 0), BuildingBlock: KIFKEQ_clean_linker_1, # of connection points: 2
#     Edge 44, Type (0, 0), BuildingBlock: KIFKEQ_clean_linker_1, # of connection points: 2
#     Edge 45, Type (0, 0), BuildingBlock: KIFKEQ_clean_linker_1, # of connection points: 2
#     Edge 46, Type (0, 0), BuildingBlock: KIFKEQ_clean_linker_1, # of connection points: 2
#     Edge 47, Type (0, 0), BuildingBlock: KIFKEQ_clean_linker_1, # of connection points: 2
#     Edge 48, Type (0, 0), BuildingBlock: KIFKEQ_clean_linker_1, # of connection points: 2
#     Edge 49, Type (0, 0), BuildingBlock: KIFKEQ_clean_linker_1, # of connection points: 2
#     Edge 50, Type (0, 0), BuildingBlock: KIFKEQ_clean_linker_1, # of connection points: 2
#     Edge 51, Type (0, 0), BuildingBlock: KIFKEQ_clean_linker_1, # of connection points: 2
#     Edge 52, Type (0, 0), BuildingBlock: KIFKEQ_clean_linker_1, # of connection points: 2
#     Edge 53, Type (0, 0), BuildingBlock: KIFKEQ_clean_linker_1, # of connection points: 2
#     Edge 54, Type (0, 0), BuildingBlock: KIFKEQ_clean_linker_1, # of connection points: 2
#     Edge 55, Type (0, 0), BuildingBlock: KIFKEQ_clean_linker_1, # of connection points: 2
#     Edge 56, Type (0, 0), BuildingBlock: KIFKEQ_clean_linker_1, # of connection points: 2
#     Edge 57, Type (0, 0), BuildingBlock: KIFKEQ_clean_linker_1, # of connection points: 2
#     Edge 58, Type (0, 0), BuildingBlock: KIFKEQ_clean_linker_1, # of connection points: 2
#     Edge 59, Type (0, 0), BuildingBlock: KIFKEQ_clean_linker_1, # of connection points: 2
#     Edge 60, Type (0, 0), BuildingBlock: KIFKEQ_clean_linker_1, # of connection points: 2
#     Edge 61, Type (0, 0), BuildingBlock: KIFKEQ_clean_linker_1, # of connection points: 2
#     Edge 62, Type (0, 0), BuildingBlock: KIFKEQ_clean_linker_1, # of connection points: 2
#     Edge 63, Type (0, 0), BuildingBlock: KIFKEQ_clean_linker_1, # of connection points: 2
# Relax obj value: 0.558
# Max RMSD: 0.321
# Mean RMSD: 0.321
data_MOF--net-wiu--node1-BETFEN_clean_sbu_0--edge1-KIFKEQ_clean_linker_1
_symmetry_space_group_name_H-M    P1
_symmetry_Int_Tables_number       1
_symmetry_cell_setting            triclinic
loop_
_symmetry_equiv_pos_as_xyz
'x, y, z'
_cell_length_a     38.612306
_cell_length_b     38.567826
_cell_length_c     55.109078
_cell_angle_alpha  89.974688
_cell_angle_beta   89.71751
_cell_angle_gamma 89.995369
loop_
_atom_site_label
_atom_site_type_symbol
_atom_site_fract_x
_atom_site_fract_y
_atom_site_fract_z
_atom_type_partial_charge
Pr0 Pr 0.3406 0.17322 0.30641 0.0
Pr1 Pr 0.37556 0.11609 0.28638 0.0
C2 C 0.3061 0.22435 0.32981 0.0
C3 C 0.29627 0.26012 0.32362 0.0
C4 C 0.28509 0.28288 0.34182 0.0
C5 C 0.27546 0.31684 0.336 0.0
C6 C 0.27679 0.32866 0.31181 0.0
C7 C 0.28849 0.30575 0.29366 0.0
C8 C 0.29819 0.27181 0.29952 0.0
C9 C 0.40542 0.19478 0.28796 0.0
C10 C 0.37672 0.11401 0.3442 0.0
C11 C 0.41125 0.07346 0.25723 0.0
C12 C 0.40078 0.05634 0.2344 0.0
C13 C 0.3971 0.07556 0.21288 0.0
C14 C 0.3853 0.0597 0.19175 0.0
C15 C 0.37679 0.02424 0.19156 0.0
C16 C 0.37987 1.00517 0.2132 0.0
C17 C 0.39188 0.02102 0.23435 0.0
C18 C 0.30872 0.09705 0.30166 0.0
C19 C 0.32112 0.15743 0.24873 0.0
O20 O 0.33913 0.21862 0.33258 0.0
O21 O 0.29076 0.19989 0.31756 0.0
O22 O 0.40065 0.16751 0.30061 0.0
O23 O 0.37597 0.20884 0.28255 0.0
O24 O 0.39619 0.10619 0.32535 0.0
O25 O 0.35081 0.13635 0.34126 0.0
O26 O 0.41504 0.1072 0.25659 0.0
O27 O 0.39553 0.06266 0.27688 0.0
O28 O 0.31671 0.12447 0.29069 0.0
O29 O 0.33571 0.07751 0.30465 0.0
O30 O 0.3117 0.17555 0.2681 0.0
O31 O 0.3471 0.13536 0.25067 0.0
H32 H 0.28375 0.27436 0.36054 0.0
H33 H 0.26714 0.33391 0.3505 0.0
H34 H 0.28948 0.31377 0.27484 0.0
H35 H 0.30693 0.25459 0.28522 0.0
H36 H 0.40343 0.1029 0.21226 0.0
H37 H 0.38407 0.07507 0.17532 0.0
H38 H 0.37341 0.97785 0.21373 0.0
H39 H 0.39409 1.00563 0.25073 0.0
Pr40 Pr 0.61318 0.60147 0.55577 0.0
Pr41 Pr 0.67036 0.63791 0.53685 0.0
C42 C 0.56198 0.56569 0.57805 0.0
C43 C 0.52583 0.55678 0.57206 0.0
C44 C 0.5037 0.58093 0.56093 0.0
C45 C 0.47018 0.57131 0.55407 0.0
C46 C 0.45832 0.53726 0.55791 0.0
C47 C 0.48048 0.51329 0.56923 0.0
C48 C 0.51385 0.52299 0.57626 0.0
C49 C 0.59165 0.6671 0.53862 0.0
C50 C 0.67136 0.63581 0.59455 0.0
C51 C 0.71338 0.67515 0.50896 0.0
C52 C 0.73169 0.66524 0.48638 0.0
C53 C 0.71324 0.65884 0.46492 0.0
C54 C 0.73035 0.64712 0.44415 0.0
C55 C 0.76632 0.64136 0.4443 0.0
C56 C 0.78468 0.64724 0.4659 0.0
C57 C 0.76756 0.6592 0.48668 0.0
C58 C 0.68994 0.57091 0.55103 0.0
C59 C 0.63014 0.58374 0.49803 0.0
O60 O 0.56877 0.59817 0.58273 0.0
O61 O 0.58574 0.55101 0.56466 0.0
O62 O 0.61858 0.66188 0.55135 0.0
O63 O 0.57766 0.63781 0.53266 0.0
O64 O 0.67803 0.65729 0.5766 0.0
O65 O 0.65055 0.60901 0.59043 0.0
O66 O 0.67963 0.67822 0.50774 0.0
O67 O 0.72365 0.65934 0.52862 0.0
O68 O 0.66267 0.57882 0.53999 0.0
O69 O 0.70911 0.59804 0.55458 0.0
O70 O 0.61152 0.57392 0.51706 0.0
O71 O 0.65229 0.60962 0.50055 0.0
H72 H 0.51248 0.60709 0.55719 0.0
H73 H 0.45384 0.59027 0.54521 0.0
H74 H 0.47197 0.48699 0.57272 0.0
H75 H 0.53052 0.50393 0.58472 0.0
H76 H 0.68551 0.66284 0.46407 0.0
H77 H 0.71543 0.6437 0.42774 0.0
H78 H 0.81237 0.64292 0.46669 0.0
H79 H 0.78235 0.66348 0.50306 0.0
Pr80 Pr 0.18548 0.87464 0.80653 0.0
Pr81 Pr 0.1459 0.92981 0.787 0.0
C82 C 0.22281 0.82453 0.82858 0.0
C83 C 0.23049 0.78767 0.82386 0.0
C84 C 0.20617 0.76589 0.81266 0.0
C85 C 0.21442 0.73126 0.80757 0.0
C86 C 0.24722 0.7178 0.81344 0.0
C87 C 0.27148 0.73992 0.82456 0.0
C88 C 0.26315 0.77442 0.82974 0.0
C89 C 0.12016 0.85108 0.79027 0.0
C90 C 0.15115 0.93339 0.8451 0.0
C91 C 0.09687 0.96599 0.76363 0.0
C92 C 0.05948 0.97098 0.76648 0.0
C93 C 0.03925 0.94703 0.77952 0.0
C94 C 1.00311 0.94957 0.77934 0.0
C95 C 0.9868 0.97617 0.76618 0.0
C96 C 1.00755 1.00137 0.75458 0.0
C97 C 0.04354 0.99874 0.75473 0.0
C98 C 0.21228 0.95331 0.79952 0.0
C99 C 0.20189 0.89138 0.74836 0.0
O100 O 0.19105 0.83228 0.83475 0.0
O101 O 0.23623 0.84669 0.81334 0.0
O102 O 0.12518 0.87786 0.80316 0.0
O103 O 0.14954 0.83785 0.78362 0.0
O104 O 0.12952 0.93943 0.82724 0.0
O105 O 0.17771 0.91215 0.84124 0.0
O106 O 0.11646 0.97969 0.78033 0.0
O107 O 0.10661 0.93484 0.75715 0.0
O108 O 0.20517 0.92484 0.78969 0.0
O109 O 0.18464 0.97222 0.8019 0.0
O110 O 0.21349 0.87523 0.76792 0.0
O111 O 0.17409 0.91137 0.75034 0.0
H112 H 0.18085 0.77566 0.80775 0.0
H113 H 0.19498 0.715 0.79921 0.0
H114 H 0.29724 0.73079 0.8289 0.0
H115 H 0.28242 0.79091 0.83811 0.0
H116 H 0.05134 0.92555 0.78893 0.0
H117 H 0.98795 0.92989 0.78855 0.0
H118 H 0.99608 0.02186 0.74384 0.0
H119 H 0.05884 1.01748 0.74468 0.0
Pr120 Pr 0.91309 0.44977 1.05645 0.0
Pr121 Pr 0.85894 0.40795 1.0368 0.0
C122 C 0.96144 0.48941 1.0782 0.0
C123 C 0.99815 0.49723 1.07301 0.0
C124 C 0.0207 0.47159 1.06401 0.0
C125 C 0.05484 0.47995 1.05766 0.0
C126 C 0.06694 0.51418 1.0599 0.0
C127 C 0.04435 0.53968 1.06911 0.0
C128 C 1.01032 0.53125 1.07563 0.0
C129 C 0.93905 0.38485 1.04086 0.0
C130 C 0.85446 0.41439 1.09491 0.0
C131 C 0.82648 0.35621 1.01375 0.0
C132 C 0.82359 0.3185 1.0173 0.0
C133 C 0.79095 0.30282 1.01641 0.0
C134 C 0.78795 0.26681 1.0176 0.0
C135 C 0.81764 0.24579 1.01959 0.0
C136 C 0.85015 0.26173 1.02208 0.0
C137 C 0.8531 0.2978 1.02098 0.0
C138 C 0.83345 0.47364 1.04936 0.0
C139 C 0.89536 0.46527 0.99811 0.0
O140 O 0.95409 0.45786 1.08517 0.0
O141 O 0.93917 0.50168 1.06269 0.0
O142 O 0.91139 0.38926 1.05306 0.0
O143 O 0.95218 0.41457 1.03492 0.0
O144 O 0.8487 0.39255 1.07707 0.0
O145 O 0.87549 0.44117 1.09112 0.0
O146 O 0.81094 0.37573 1.02985 0.0
O147 O 0.85687 0.36799 1.00705 0.0
O148 O 0.86234 0.46732 1.03973 0.0
O149 O 0.81499 0.44554 1.05111 0.0
O150 O 0.91332 0.47597 1.01714 0.0
O151 O 0.87433 0.43833 1.00054 0.0
H152 H 1.0118 0.4452 1.06151 0.0
H153 H 0.07149 0.45982 1.05042 0.0
H154 H 0.05302 0.56619 1.07132 0.0
H155 H 0.99332 0.55144 1.0824 0.0
H156 H 0.76787 0.31834 1.0138 0.0
H157 H 0.76256 0.25543 1.01518 0.0
H158 H 0.87344 0.24624 1.02365 0.0
H159 H 0.87859 0.30935 1.02206 0.0
Pr160 Pr 0.64808 0.92705 1.04261 0.0
Pr161 Pr 0.68817 0.8727 1.02165 0.0
C162 C 0.59896 0.96251 1.06678 0.0
C163 C 0.56185 0.96877 1.0636 0.0
C164 C 0.54153 0.94625 1.04959 0.0
C165 C 0.50555 0.95031 1.0489 0.0
C166 C 0.48953 0.97717 1.06204 0.0
C167 C 0.51046 1.00086 1.0748 0.0
C168 C 0.54628 0.99663 1.07558 0.0
C169 C 0.71396 0.95176 1.02942 0.0
C170 C 0.70533 0.88875 1.07985 0.0
C171 C 0.72553 0.82298 0.99896 0.0
C172 C 0.73334 0.78646 1.00457 0.0
C173 C 0.74511 0.76414 0.98627 0.0
C174 C 0.75298 0.72953 0.99161 0.0
C175 C 0.7493 0.71659 1.01542 0.0
C176 C 0.73687 0.73905 1.03362 0.0
C177 C 0.7289 0.7736 1.02823 0.0
C178 C 0.6235 0.8477 1.03855 0.0
C179 C 0.65264 0.93195 0.98429 0.0
O180 O 0.61952 0.97698 1.05085 0.0
O181 O 0.60772 0.93067 1.07219 0.0
O182 O 0.70741 0.92277 1.03878 0.0
O183 O 0.68604 0.97039 1.02794 0.0
O184 O 0.71696 0.87341 1.05989 0.0
O185 O 0.67697 0.908 1.0786 0.0
O186 O 0.69344 0.82995 0.99353 0.0
O187 O 0.7391 0.84599 1.01343 0.0
O188 O 0.62785 0.87524 1.02621 0.0
O189 O 0.65324 0.83455 1.04424 0.0
O190 O 0.63142 0.93769 1.0026 0.0
O191 O 0.67927 0.91062 0.98742 0.0
H192 H 0.55338 0.92485 1.03993 0.0
H193 H 0.49019 0.93173 1.03889 0.0
H194 H 0.49907 0.02144 1.08555 0.0
H195 H 0.56166 1.01431 1.08635 0.0
H196 H 0.74836 0.7735 0.96786 0.0
H197 H 0.7619 0.71289 0.97705 0.0
H198 H 0.73407 0.73021 1.05217 0.0
H199 H 0.71962 0.79042 1.0426 0.0
Pr200 Pr 0.35825 0.40922 0.7917 0.0
Pr201 Pr 0.41289 0.45024 0.77213 0.0
C202 C 0.32128 0.35997 0.81457 0.0
C203 C 0.31521 0.32277 0.81142 0.0
C204 C 0.33845 0.30219 0.79805 0.0
C205 C 0.33478 0.26611 0.7978 0.0
C206 C 0.30763 0.25024 0.81078 0.0
C207 C 0.28314 0.27141 0.82273 0.0
C208 C 0.28697 0.30733 0.82306 0.0
C209 C 0.334 0.47579 0.7797 0.0
C210 C 0.3962 0.46512 0.83038 0.0
C211 C 0.46241 0.48887 0.75036 0.0
C212 C 0.49902 0.49659 0.75576 0.0
C213 C 0.52118 0.47106 0.76525 0.0
C214 C 0.55513 0.47946 0.77189 0.0
C215 C 0.56741 0.51363 0.76946 0.0
C216 C 0.54523 0.53898 0.75972 0.0
C217 C 0.51142 0.53051 0.75292 0.0
C218 C 0.43775 0.38506 0.78809 0.0
C219 C 0.3559 0.41496 0.73372 0.0
O220 O 0.30799 0.38034 0.79814 0.0
O221 O 0.35265 0.36878 0.82097 0.0
O222 O 0.36247 0.46867 0.78938 0.0
O223 O 0.31564 0.44791 0.77683 0.0
O224 O 0.41174 0.47754 0.81076 0.0
O225 O 0.37702 0.43673 0.82845 0.0
O226 O 0.45496 0.45724 0.74371 0.0
O227 O 0.43977 0.50169 0.76553 0.0
O228 O 0.41057 0.38966 0.7756 0.0
O229 O 0.45084 0.4147 0.79419 0.0
O230 O 0.35172 0.39211 0.75121 0.0
O231 O 0.37469 0.44305 0.73812 0.0
H232 H 0.36018 0.31394 0.78867 0.0
H233 H 0.35396 0.25059 0.78837 0.0
H234 H 0.26227 0.26019 0.83333 0.0
H235 H 0.26874 0.32291 0.83335 0.0
H236 H 0.51209 0.44476 0.76794 0.0
H237 H 0.57145 0.45944 0.77952 0.0
H238 H 0.55404 0.56543 0.75733 0.0
H239 H 0.49473 0.55062 0.74576 0.0
Pr240 Pr 0.8762 0.11621 0.54202 0.0
Pr241 Pr 0.83954 0.17302 0.52341 0.0
C242 C 0.9143 0.07228 0.56858 0.0
C243 C 0.90427 0.05111 0.58951 0.0
C244 C 0.92925 0.03269 0.60245 0.0
C245 C 0.9197 1.01404 0.62314 0.0
C246 C 0.885 1.01366 0.63123 0.0
C247 C 0.85991 0.03166 0.61786 0.0
C248 C 0.86947 0.05008 0.59706 0.0
C249 C 0.80892 0.0963 0.52862 0.0
C250 C 0.82206 0.15659 0.58118 0.0
C251 C 0.80402 0.22376 0.50069 0.0
C252 C 0.79461 0.25967 0.50682 0.0
C253 C 0.7945 0.27085 0.53106 0.0
C254 C 0.78503 0.30486 0.53685 0.0
C255 C 0.77569 0.3284 0.51849 0.0
C256 C 0.77653 0.31714 0.49417 0.0
C257 C 0.78586 0.28306 0.48842 0.0
C258 C 0.90449 0.19533 0.54089 0.0
C259 C 0.87441 0.1154 0.48437 0.0
O260 O 0.91426 0.1058 0.57226 0.0
O261 O 0.89988 0.06343 0.54812 0.0
O262 O 0.8171 0.12366 0.53945 0.0
O263 O 0.83596 0.07713 0.52475 0.0
O264 O 0.81182 0.17475 0.56213 0.0
O265 O 0.84828 0.13478 0.57858 0.0
O266 O 0.83684 0.21786 0.49678 0.0
O267 O 0.78928 0.19961 0.51372 0.0
O268 O 0.8999 0.16839 0.52792 0.0
O269 O 0.87493 0.20879 0.5469 0.0
O270 O 0.89606 0.10932 0.50219 0.0
O271 O 0.84722 0.13556 0.48872 0.0
H272 H 0.95618 0.0333 0.59686 0.0
H273 H 0.93978 1.00101 0.63334 0.0
H274 H 0.83305 0.03183 0.62365 0.0
H275 H 0.84979 0.06402 0.58705 0.0
H276 H 0.80142 0.25316 0.54553 0.0
H277 H 0.78431 0.31246 0.55576 0.0
H278 H 0.77009 0.33469 0.47953 0.0
H279 H 0.78614 0.27494 0.4696 0.0
Pr280 Pr 0.16678 0.63622 0.29562 0.0
Pr281 Pr 0.11161 0.59827 0.2739 0.0
C282 C 0.20831 0.68 0.31974 0.0
C283 C 0.24241 0.69607 0.31616 0.0
C284 C 0.25218 0.71138 0.29399 0.0
C285 C 0.28415 0.72827 0.29181 0.0
C286 C 0.30685 0.72967 0.31166 0.0
C287 C 0.29744 0.71267 0.33335 0.0
C288 C 0.26557 0.69613 0.33554 0.0
C289 C 0.18952 0.57075 0.28015 0.0
C290 C 0.12508 0.58171 0.33227 0.0
C291 C 0.06194 0.56154 0.25121 0.0
C292 C 0.02545 0.55354 0.25693 0.0
C293 C 1.00336 0.57871 0.2671 0.0
C294 C 0.96963 0.56995 0.27419 0.0
C295 C 0.95754 0.53579 0.27154 0.0
C296 C 0.97959 0.51082 0.26108 0.0
C297 C 1.01319 0.51965 0.25381 0.0
C298 C 0.08698 0.66213 0.29238 0.0
C299 C 0.17429 0.63163 0.237 0.0
O300 O 0.20831 0.6466 0.32342 0.0
O301 O 0.18302 0.69055 0.30587 0.0
O302 O 0.16111 0.57725 0.2904 0.0
O303 O 0.2083 0.5986 0.27821 0.0
O304 O 0.11174 0.56899 0.31204 0.0
O305 O 0.14232 0.61131 0.33126 0.0
O306 O 0.06934 0.59365 0.24572 0.0
O307 O 0.0848 0.54741 0.26549 0.0
O308 O 0.11486 0.65821 0.28031 0.0
O309 O 0.07315 0.6322 0.29684 0.0
O310 O 0.18404 0.64952 0.2561 0.0
O311 O 0.14893 0.60846 0.23922 0.0
H312 H 0.23483 0.71106 0.27861 0.0
H313 H 0.29065 0.74112 0.27491 0.0
H314 H 0.31376 0.71385 0.34925 0.0
H315 H 0.25857 0.68423 0.35271 0.0
H316 H 1.01236 0.60498 0.27001 0.0
H317 H 0.95333 0.58965 0.28236 0.0
H318 H 0.97085 0.48439 0.25852 0.0
H319 H 0.02984 0.49983 0.24614 0.0
Pr320 Pr 0.83813 0.67352 0.80523 0.0
Pr321 Pr 0.878 0.6176 0.78724 0.0
C322 C 0.80023 0.72332 0.82727 0.0
C323 C 0.79267 0.76016 0.8227 0.0
C324 C 0.81688 0.78176 0.81105 0.0
C325 C 0.8087 0.81638 0.80601 0.0
C326 C 0.77606 0.82996 0.81239 0.0
C327 C 0.75192 0.80804 0.82398 0.0
C328 C 0.7602 0.77354 0.82911 0.0
C329 C 0.90406 0.69661 0.78944 0.0
C330 C 0.87199 0.61681 0.84494 0.0
C331 C 0.92735 0.58034 0.76482 0.0
C332 C 0.96464 0.57533 0.76804 0.0
C333 C 0.98458 0.59975 0.78071 0.0
C334 C 0.02071 0.59701 0.78092 0.0
C335 C 0.03728 0.56974 0.76853 0.0
C336 C 0.01678 0.54412 0.75733 0.0
C337 C 0.9808 0.54696 0.75708 0.0
C338 C 0.81125 0.59487 0.79982 0.0
C339 C 0.8231 0.65536 0.74739 0.0
O340 O 0.83185 0.71556 0.83358 0.0
O341 O 0.78724 0.70139 0.81178 0.0
O342 O 0.8985 0.67012 0.80257 0.0
O343 O 0.87497 0.70989 0.78245 0.0
O344 O 0.89492 0.61169 0.82764 0.0
O345 O 0.84428 0.63589 0.83999 0.0
O346 O 0.90729 0.56734 0.78168 0.0
O347 O 0.91791 0.61128 0.75765 0.0
O348 O 0.81872 0.62278 0.78929 0.0
O349 O 0.83878 0.57611 0.80315 0.0
O350 O 0.81256 0.67425 0.76607 0.0
O351 O 0.84919 0.6334 0.75039 0.0
H352 H 0.84205 0.77183 0.80574 0.0
H353 H 0.82802 0.83253 0.79728 0.0
H354 H 0.7263 0.81731 0.82872 0.0
H355 H 0.74103 0.75716 0.83784 0.0
H356 H 0.97232 0.62169 0.78954 0.0
H357 H 0.03569 0.61702 0.7898 0.0
H358 H 0.02849 0.5231 0.74719 0.0
H359 H 0.96572 0.52785 0.74733 0.0
Pr360 Pr 0.11173 0.09929 1.05803 0.0
Pr361 Pr 0.16785 0.13587 1.0381 0.0
C362 C 0.06067 0.06428 1.08117 0.0
C363 C 0.02435 0.05624 1.0754 0.0
C364 C 1.00159 0.04541 1.09375 0.0
C365 C 0.96725 0.03701 1.08825 0.0
C366 C 0.95504 0.03919 1.06423 0.0
C367 C 0.97792 0.05074 1.04597 0.0
C368 C 1.01221 0.05925 1.05152 0.0
C369 C 0.08911 0.16429 1.04038 0.0
C370 C 0.1699 0.13487 1.09592 0.0
C371 C 0.21033 0.17295 1.00962 0.0
C372 C 0.2277 0.16345 0.9866 0.0
C373 C 0.2085 0.15854 0.96527 0.0
C374 C 0.22477 0.1476 0.94396 0.0
C375 C 0.26062 0.14114 0.94344 0.0
C376 C 0.2797 0.14542 0.96492 0.0
C377 C 0.26343 0.15662 0.98622 0.0
C378 C 0.18833 0.06881 1.05201 0.0
C379 C 0.12723 0.08112 1.00024 0.0
O380 O 0.06772 0.09676 1.08548 0.0
O381 O 0.084 0.04937 1.06753 0.0
O382 O 0.1163 0.15969 1.05294 0.0
O383 O 0.0755 0.13469 1.03472 0.0
O384 O 0.17588 0.15614 1.07771 0.0
O385 O 0.14963 0.10758 1.09219 0.0
O386 O 0.17661 0.17643 1.00907 0.0
O387 O 0.22113 0.15659 1.02892 0.0
O388 O 0.16073 0.07674 1.04143 0.0
O389 O 0.20724 0.09611 1.05552 0.0
O390 O 0.11156 0.06964 1.02009 0.0
O391 O 0.14694 0.10907 1.00184 0.0
H392 H 1.01043 0.04325 1.11232 0.0
H393 H 0.95025 0.02881 1.10285 0.0
H394 H 0.96963 0.05238 1.02727 0.0
H395 H 0.0294 0.06776 1.03711 0.0
H396 H 0.18085 0.16322 0.96492 0.0
H397 H 0.20932 0.14538 0.92769 0.0
H398 H 0.3073 0.14047 0.96521 0.0
H399 H 0.27879 0.15976 1.00248 0.0
Pr400 Pr 0.68834 0.37209 0.30768 0.0
Pr401 Pr 0.64981 0.427 0.28755 0.0
C402 C 0.725 0.32228 0.33051 0.0
C403 C 0.73288 0.28559 0.3252 0.0
C404 C 0.70759 0.26323 0.31567 0.0
C405 C 0.71623 0.22927 0.309 0.0
C406 C 0.75041 0.21719 0.31143 0.0
C407 C 0.77551 0.23954 0.32124 0.0
C408 C 0.76679 0.27336 0.32809 0.0
C409 C 0.62419 0.34728 0.29019 0.0
C410 C 0.65183 0.43067 0.34539 0.0
C411 C 0.61144 0.46636 0.2581 0.0
C412 C 0.62074 0.48112 0.23414 0.0
C413 C 0.62033 0.46028 0.21322 0.0
C414 C 0.63205 0.47327 0.19104 0.0
C415 C 0.64443 0.50746 0.18916 0.0
C416 C 0.64498 0.52829 0.21009 0.0
C417 C 0.63315 0.5153 0.23231 0.0
C418 C 0.71571 0.44985 0.30162 0.0
C419 C 0.70643 0.38786 0.24992 0.0
O420 O 0.69303 0.32996 0.33619 0.0
O421 O 0.73902 0.34488 0.31586 0.0
O422 O 0.62793 0.37477 0.30266 0.0
O423 O 0.65415 0.33429 0.2847 0.0
O424 O 0.63026 0.43603 0.32733 0.0
O425 O 0.67926 0.41052 0.34162 0.0
O426 O 0.60807 0.43261 0.2592 0.0
O427 O 0.62792 0.47914 0.27673 0.0
O428 O 0.70896 0.42185 0.29106 0.0
O429 O 0.68788 0.46824 0.30468 0.0
O430 O 0.71823 0.37273 0.26977 0.0
O431 O 0.67791 0.40671 0.25147 0.0
H432 H 0.68129 0.27217 0.31293 0.0
H433 H 0.69641 0.21277 0.30132 0.0
H434 H 0.80196 0.23087 0.32362 0.0
H435 H 0.78672 0.2902 0.33528 0.0
H436 H 0.61109 0.43378 0.21393 0.0
H437 H 0.63039 0.45677 0.17519 0.0
H438 H 0.65437 0.55472 0.20927 0.0
H439 H 0.63406 0.53194 0.24813 0.0
Pr440 Pr 0.41427 0.95154 0.55854 0.0
Pr441 Pr 0.36242 0.90989 0.53501 0.0
C442 C 0.46089 0.99045 0.58255 0.0
C443 C 0.49762 0.99856 0.57775 0.0
C444 C 0.5202 0.97327 0.5683 0.0
C445 C 0.55406 0.98205 0.56158 0.0
C446 C 0.56588 1.01636 0.56391 0.0
C447 C 0.54338 0.04146 0.57374 0.0
C448 C 0.50959 0.03261 0.58061 0.0
C449 C 0.44233 0.88824 0.54157 0.0
C450 C 0.35089 0.9148 0.59329 0.0
C451 C 0.33536 0.8645 0.50371 0.0
C452 C 0.34217 0.86138 0.47746 0.0
C453 C 0.35676 0.83074 0.46831 0.0
C454 C 0.36785 0.82895 0.44419 0.0
C455 C 0.36436 0.85772 0.42872 0.0
C456 C 0.34934 0.88825 0.43778 0.0
C457 C 0.33855 0.89017 0.46196 0.0
C458 C 0.33563 0.97433 0.54859 0.0
C459 C 0.40341 0.96841 0.50004 0.0
O460 O 0.45354 0.95851 0.58857 0.0
O461 O 0.43889 1.00345 0.56714 0.0
O462 O 0.41378 0.8915 0.55288 0.0
O463 O 0.45557 0.91848 0.53725 0.0
O464 O 0.34384 0.89531 0.57424 0.0
O465 O 0.37451 0.93985 0.59145 0.0
O466 O 0.36168 0.85687 0.51755 0.0
O467 O 0.31851 0.89206 0.51098 0.0
O468 O 0.36516 0.96885 0.5396 0.0
O469 O 0.31754 0.94585 0.54982 0.0
O470 O 0.41453 0.9816 0.52075 0.0
O471 O 0.38733 0.93813 0.50041 0.0
H472 H 0.51147 0.94688 0.56557 0.0
H473 H 0.57064 0.96222 0.55386 0.0
H474 H 0.55186 0.06802 0.57604 0.0
H475 H 0.49254 0.05254 0.58769 0.0
H476 H 0.3602 0.80838 0.47997 0.0
H477 H 0.3786 0.80479 0.43753 0.0
H478 H 0.34625 0.91075 0.4262 0.0
H479 H 0.32806 0.91445 0.46858 0.0
Pr480 Pr 0.14983 0.42871 0.54241 0.0
Pr481 Pr 0.18717 0.37245 0.52356 0.0
C482 C 0.11192 0.47094 0.57042 0.0
C483 C 0.12136 0.48906 0.5931 0.0
C484 C 0.12665 0.47042 0.61469 0.0
C485 C 0.13788 0.48729 0.6356 0.0
C486 C 0.14419 0.5232 0.63547 0.0
C487 C 0.13936 0.54175 0.61376 0.0
C488 C 0.12793 0.52488 0.59284 0.0
C489 C 0.21657 0.44977 0.52811 0.0
C490 C 0.20464 0.38965 0.58116 0.0
C491 C 0.22329 0.3217 0.50112 0.0
C492 C 0.23129 0.28511 0.50672 0.0
C493 C 0.20554 0.26213 0.51507 0.0
C494 C 0.21414 0.22816 0.52171 0.0
C495 C 0.24867 0.2167 0.52046 0.0
C496 C 0.27426 0.23968 0.5119 0.0
C497 C 0.26562 0.27348 0.50504 0.0
C498 C 0.12235 0.34925 0.5412 0.0
C499 C 0.15118 0.42967 0.4848 0.0
O500 O 0.10927 0.43711 0.57153 0.0
O501 O 0.12772 0.48169 0.55079 0.0
O502 O 0.20909 0.42228 0.53916 0.0
O503 O 0.18906 0.46828 0.52433 0.0
O504 O 0.21513 0.37161 0.56206 0.0
O505 O 0.178 0.41087 0.57875 0.0
O506 O 0.19125 0.32928 0.49579 0.0
O507 O 0.23763 0.34472 0.51519 0.0
O508 O 0.1268 0.37633 0.52833 0.0
O509 O 0.15198 0.33603 0.54704 0.0
O510 O 0.12961 0.43559 0.50284 0.0
O511 O 0.17877 0.40994 0.48891 0.0
H512 H 0.12217 0.44272 0.61554 0.0
H513 H 0.14049 0.47225 0.65209 0.0
H514 H 0.14412 0.5694 0.61299 0.0
H515 H 0.12446 0.53983 0.57638 0.0
H516 H 0.17888 0.27054 0.51684 0.0
H517 H 0.19393 0.21113 0.5284 0.0
H518 H 0.30102 0.23147 0.51045 0.0
H519 H 0.28589 0.29076 0.49874 0.0
Pr520 Pr 0.85633 0.90732 0.29253 0.0
Pr521 Pr 0.91189 0.94696 0.27283 0.0
C522 C 0.82006 0.85834 0.31617 0.0
C523 C 0.81503 0.82097 0.31309 0.0
C524 C 0.8385 0.80125 0.29928 0.0
C525 C 0.83605 0.76508 0.29898 0.0
C526 C 0.80987 0.74825 0.31232 0.0
C527 C 0.78508 0.7685 0.32475 0.0
C528 C 0.78773 0.80454 0.32515 0.0
C529 C 0.83333 0.97381 0.27962 0.0
C530 C 0.89458 0.96344 0.33105 0.0
C531 C 0.96151 0.98496 0.25059 0.0
C532 C 0.99713 0.99498 0.2569 0.0
C533 C 0.02045 1.005 0.23867 0.0
C534 C 0.05438 1.01445 0.24456 0.0
C535 C 0.06561 1.01412 0.26885 0.0
C536 C 0.04211 1.00366 0.28704 0.0
C537 C 1.00824 0.99409 0.28111 0.0
C538 C 0.9358 0.882 0.2896 0.0
C539 C 0.85343 0.91193 0.23437 0.0
O540 O 0.80637 0.8782 0.29958 0.0
O541 O 0.85125 0.8679 0.32251 0.0
O542 O 0.86163 0.9666 0.28955 0.0
O543 O 0.81439 0.9462 0.27719 0.0
O544 O 0.91305 0.9735 0.31197 0.0
O545 O 0.87262 0.93726 0.32868 0.0
O546 O 0.9565 0.95213 0.24609 0.0
O547 O 0.9369 0.99848 0.26387 0.0
O548 O 0.90871 0.88656 0.27693 0.0
O549 O 0.9491 0.91165 0.29548 0.0
O550 O 0.84676 0.89072 0.25247 0.0
O551 O 0.87504 0.93824 0.23798 0.0
H552 H 0.85949 0.81378 0.28957 0.0
H553 H 0.85544 0.75025 0.28921 0.0
H554 H 0.76496 0.75651 0.33563 0.0
H555 H 0.76934 0.81946 0.33578 0.0
H556 H 1.01242 1.00549 0.21986 0.0
H557 H 0.07189 0.02177 0.23002 0.0
H558 H 0.04965 1.00346 0.30594 0.0
H559 H 0.99064 0.98619 0.29546 0.0
Pr560 Pr 0.37843 0.61728 1.04355 0.0
Pr561 Pr 0.33855 0.6723 1.02323 0.0
C562 C 0.42676 0.58016 1.06693 0.0
C563 C 0.46314 0.571 1.06291 0.0
C564 C 0.48474 0.59156 1.04822 0.0
C565 C 0.52021 0.58439 1.04662 0.0
C566 C 0.5344 0.5564 1.05957 0.0
C567 C 0.51201 0.53473 1.07302 0.0
C568 C 0.47675 0.54202 1.07467 0.0
C569 C 0.31197 0.59404 1.0309 0.0
C570 C 0.32232 0.65624 1.08166 0.0
C571 C 0.30047 0.72134 1.00073 0.0
C572 C 0.29248 0.7581 1.0054 0.0
C573 C 0.31647 0.77991 1.01691 0.0
C574 C 0.30781 0.81431 1.02232 0.0
C575 C 0.2749 0.8275 1.01645 0.0
C576 C 0.25101 0.80542 1.00492 0.0
C577 C 0.25976 0.77112 0.99943 0.0
C578 C 0.40345 0.6969 1.0394 0.0
C579 C 0.37337 0.61294 0.9854 0.0
O580 O 0.40447 0.5662 1.05213 0.0
O581 O 0.42043 0.61281 1.07166 0.0
O582 O 0.31926 0.6225 1.04062 0.0
O583 O 0.33951 0.57499 1.02853 0.0
O584 O 0.31059 0.6719 1.06193 0.0
O585 O 0.35037 0.63657 1.07995 0.0
O586 O 0.3323 0.71389 0.99454 0.0
O587 O 0.28737 0.69921 1.01613 0.0
O588 O 0.39893 0.66928 1.0272 0.0
O589 O 0.37382 0.71046 1.04512 0.0
O590 O 0.39487 0.60705 1.00337 0.0
O591 O 0.34682 0.63428 0.98897 0.0
H592 H 0.4744 0.61382 1.0387 0.0
H593 H 0.53668 0.60146 1.03606 0.0
H594 H 0.52197 0.51337 1.08368 0.0
H595 H 0.46034 0.52579 1.08594 0.0
H596 H 0.34183 0.7703 1.02189 0.0
H597 H 0.32696 0.8306 1.03097 0.0
H598 H 0.22521 0.81438 1.00055 0.0
H599 H 0.24075 0.75458 0.99083 0.0
Pr600 Pr 0.6653 0.13747 0.79239 0.0
Pr601 Pr 0.61057 0.09868 0.77218 0.0
C602 C 0.70293 0.17718 0.82198 0.0
C603 C 0.71676 0.1678 0.84584 0.0
C604 C 0.72513 0.13306 0.85104 0.0
C605 C 0.73436 0.12322 0.87453 0.0
C606 C 0.7347 0.14786 0.89321 0.0
C607 C 0.7266 0.18263 0.88788 0.0
C608 C 0.7177 0.19251 0.86437 0.0
C609 C 0.68853 0.07118 0.77906 0.0
C610 C 0.62578 0.0809 0.83003 0.0
C611 C 0.56079 0.06195 0.74946 0.0
C612 C 0.5241 0.05421 0.75487 0.0
C613 C 0.50197 0.07948 0.76486 0.0
C614 C 0.46798 0.07094 0.77157 0.0
C615 C 0.45566 0.03688 0.76872 0.0
C616 C 0.47779 1.01182 0.75844 0.0
C617 C 0.51162 0.02043 0.75156 0.0
C618 C 0.58634 0.16361 0.78908 0.0
C619 C 0.66972 0.13449 0.73453 0.0
O620 O 0.66914 0.17917 0.82109 0.0
O621 O 0.71649 0.16095 0.8034 0.0
O622 O 0.66011 0.07822 0.78908 0.0
O623 O 0.70704 0.09899 0.77613 0.0
O624 O 0.61053 0.0692 0.81021 0.0
O625 O 0.6449 0.10926 0.82844 0.0
O626 O 0.56855 0.0939 0.74377 0.0
O627 O 0.5833 0.04794 0.76405 0.0
O628 O 0.61376 0.15909 0.77663 0.0
O629 O 0.57289 0.13394 0.79485 0.0
O630 O 0.67504 0.15626 0.75255 0.0
O631 O 0.64946 0.10713 0.73832 0.0
H632 H 0.72375 0.11337 0.83706 0.0
H633 H 0.74044 0.09631 0.87822 0.0
H634 H 0.72727 0.20226 0.90193 0.0
H635 H 0.71083 0.21926 0.86076 0.0
H636 H 0.51111 0.10567 0.76792 0.0
H637 H 0.45167 0.09074 0.77961 0.0
H638 H 0.46892 0.98546 0.75571 0.0
H639 H 0.52828 1.00052 0.74401 0.0
H640 H 0.41372 0.26171 0.27253 0.0
H641 H 0.47205 0.17645 0.3022 0.0
H642 H 0.46525 0.29816 0.27326 0.0
H643 H 0.52416 0.21312 0.30274 0.0
H644 H 0.61802 0.27929 0.27655 0.0
H645 H 0.56666 0.24245 0.2761 0.0
H646 H 0.50463 0.3284 0.3012 0.0
H647 H 0.55645 0.3654 0.30183 0.0
C648 C 0.43762 0.25054 0.27913 0.0
C649 C 0.43841 0.21583 0.28728 0.0
C650 C 0.4673 0.27173 0.27973 0.0
C651 C 0.49923 0.25901 0.28819 0.0
C652 C 0.50026 0.22403 0.29595 0.0
C653 C 0.47029 0.20287 0.29567 0.0
C654 C 0.59346 0.29054 0.28195 0.0
C655 C 0.59166 0.32562 0.28918 0.0
C656 C 0.56387 0.26915 0.28187 0.0
C657 C 0.53111 0.28206 0.28868 0.0
C658 C 0.52918 0.31733 0.29564 0.0
C659 C 0.55899 0.33867 0.29606 0.0
H660 H 0.52557 0.67666 0.52218 0.0
H661 H 0.61025 0.73318 0.55405 0.0
H662 H 0.48996 0.72884 0.52283 0.0
H663 H 0.57442 0.78587 0.55465 0.0
H664 H 0.51103 0.88175 0.52967 0.0
H665 H 0.54712 0.82977 0.52888 0.0
H666 H 0.45888 0.76797 0.55007 0.0
H667 H 0.42268 0.82032 0.55092 0.0
C668 C 0.53678 0.7003 0.52927 0.0
C669 C 0.57107 0.70039 0.53804 0.0
C670 C 0.51607 0.73036 0.52982 0.0
C671 C 0.52888 0.76197 0.53892 0.0
C672 C 0.56346 0.76228 0.54733 0.0
C673 C 0.58413 0.73195 0.54704 0.0
C674 C 0.49916 0.85709 0.53412 0.0
C675 C 0.46369 0.8555 0.54033 0.0
C676 C 0.52009 0.82714 0.53385 0.0
C677 C 0.50631 0.79424 0.53948 0.0
C678 C 0.47064 0.79259 0.54541 0.0
C679 C 0.44975 0.82271 0.54598 0.0
H680 H 0.10078 0.80354 0.75617 0.0
H681 H 0.06497 0.85068 0.82261 0.0
H682 H 0.04933 0.76613 0.75567 0.0
H683 H 1.01412 0.81204 0.82262 0.0
H684 H 0.95782 0.69761 0.82256 0.0
H685 H 1.00866 0.73627 0.82295 0.0
H686 H 0.97641 0.78092 0.75506 0.0
H687 H 0.92495 0.74351 0.75517 0.0
C688 C 0.08186 0.80606 0.77064 0.0
C689 C 0.08707 0.83045 0.78932 0.0
C690 C 0.05238 0.78448 0.77038 0.0
C691 C 0.02763 0.78577 0.7892 0.0
C692 C 0.03274 0.81016 0.80792 0.0
C693 C 0.06178 0.83252 0.8078 0.0
C694 C 0.96167 0.7155 0.80763 0.0
C695 C 0.93719 0.71722 0.78877 0.0
C696 C 0.99069 0.73787 0.80796 0.0
C697 C 0.99662 0.76191 0.78909 0.0
C698 C 0.97271 0.76284 0.76989 0.0
C699 C 0.94323 0.74126 0.76993 0.0
H700 H 0.0215 0.17215 1.02668 0.0
H701 H 0.10834 0.23143 1.05277 0.0
H702 H 0.98551 0.22414 1.02706 0.0
H703 H 0.07221 0.28395 1.05289 0.0
H704 H 1.00602 0.37682 1.02526 0.0
H705 H 0.04218 0.3249 1.02531 0.0
H706 H 0.95717 0.26582 1.0551 0.0
H707 H 0.92102 0.31827 1.05548 0.0
C708 C 0.0331 0.19634 1.03242 0.0
C709 C 0.06811 0.1973 1.03967 0.0
C710 C 1.01221 0.22629 1.0328 0.0
C711 C 0.02558 0.2586 1.0401 0.0
C712 C 0.06082 0.25974 1.047 0.0
C713 C 0.08165 0.22954 1.04698 0.0
C714 C 0.99485 0.35279 1.03182 0.0
C715 C 0.96027 0.35198 1.04022 0.0
C716 C 1.01584 0.3229 1.032 0.0
C717 C 1.00296 0.2908 1.04025 0.0
C718 C 0.96816 0.28984 1.0484 0.0
C719 C 0.94729 0.31999 1.04861 0.0
H720 H 0.61551 0.78079 1.05433 0.0
H721 H 0.55693 0.86551 1.02421 0.0
H722 H 0.56376 0.74442 1.05433 0.0
H723 H 0.5047 0.82917 1.02457 0.0
H724 H 0.41098 0.76487 1.05261 0.0
H725 H 0.46283 0.80097 1.05227 0.0
H726 H 0.52312 0.7139 1.02701 0.0
H727 H 0.47072 0.67765 1.02708 0.0
C728 C 0.59152 0.79186 1.0478 0.0
C729 C 0.59067 0.82643 1.03939 0.0
C730 C 0.56172 0.77075 1.04764 0.0
C731 C 0.52966 0.78348 1.03939 0.0
C732 C 0.52866 0.81828 1.03126 0.0
C733 C 0.55871 0.83928 1.03107 0.0
C734 C 0.43524 0.75321 1.047 0.0
C735 C 0.43636 0.71804 1.03992 0.0
C736 C 0.46512 0.77417 1.04663 0.0
C737 C 0.49755 0.76074 1.03952 0.0
C738 C 0.49884 0.72536 1.03277 0.0
C739 C 0.4687 0.70444 1.03276 0.0
H740 H 0.60617 0.23069 0.77718 0.0
H741 H 0.51823 0.1715 0.80215 0.0
H742 H 0.57036 0.28338 0.77704 0.0
H743 H 0.48254 0.22373 0.80182 0.0
H744 H 0.41956 0.31866 0.77347 0.0
H745 H 0.45525 0.26595 0.774 0.0
H746 H 0.53992 0.32424 0.80439 0.0
H747 H 0.5042 0.37647 0.80421 0.0
C748 C 0.57929 0.22886 0.78272 0.0
C749 C 0.56535 0.19661 0.78973 0.0
C750 C 0.55864 0.25917 0.78271 0.0
C751 C 0.52321 0.25815 0.78933 0.0
C752 C 0.50941 0.2258 0.79631 0.0
C753 C 0.53012 0.19572 0.79667 0.0
C754 C 0.44563 0.32016 0.7805 0.0
C755 C 0.45867 0.35203 0.78895 0.0
C756 C 0.46625 0.28984 0.7808 0.0
C757 C 0.50082 0.2905 0.78916 0.0
C758 C 0.51374 0.32247 0.79753 0.0
C759 C 0.49301 0.35255 0.79758 0.0
H760 H 0.05504 0.36713 0.52845 0.0
H761 H 0.11572 0.28132 0.55489 0.0
H762 H 1.00335 0.32986 0.52829 0.0
H763 H 0.06457 0.24424 0.55448 0.0
H764 H 0.97162 0.17774 0.52683 0.0
H765 H 0.02346 0.21484 0.52681 0.0
H766 H 0.96298 0.29923 0.556 0.0
H767 H 0.91174 0.26235 0.55628 0.0
C768 C 0.05742 0.34043 0.5343 0.0
C769 C 0.0898 0.32754 0.54176 0.0
C770 C 0.0277 0.31893 0.53425 0.0
C771 C 0.02946 0.28366 0.54127 0.0
C772 C 0.06193 0.27093 0.54865 0.0
C773 C 0.09139 0.29247 0.54907 0.0
C774 C 0.96945 0.20412 0.53338 0.0
C775 C 0.93722 0.21675 0.54159 0.0
C776 C 0.99925 0.22552 0.53341 0.0
C777 C 0.99771 0.26043 0.54127 0.0
C778 C 0.96543 0.27286 0.54947 0.0
C779 C 0.93591 0.25142 0.5498 0.0
H780 H 0.01815 0.66887 0.30383 0.0
H781 H 0.10648 0.72982 0.2818 0.0
H782 H 0.98172 0.72056 0.30304 0.0
H783 H 0.06989 0.78197 0.28122 0.0
H784 H 1.00128 0.87359 0.3074 0.0
H785 H 0.03752 0.8218 0.30804 0.0
H786 H 0.9551 0.76309 0.27513 0.0
H787 H 0.91885 0.81545 0.27412 0.0
C788 C 0.02997 0.69337 0.29891 0.0
C789 C 0.06555 0.69489 0.29293 0.0
C790 C 1.00883 0.72315 0.29827 0.0
C791 C 0.02248 0.75583 0.29198 0.0
C792 C 0.05824 0.75749 0.28633 0.0
C793 C 0.07935 0.72749 0.28662 0.0
C794 C 0.99068 0.84968 0.3003 0.0
C795 C 0.95679 0.849 0.2908 0.0
C796 C 1.01173 0.81984 0.30052 0.0
C797 C 0.99964 0.78788 0.29156 0.0
C798 C 0.96548 0.78699 0.28238 0.0
C799 C 0.94453 0.81711 0.28182 0.0
H800 H 0.39981 0.96092 0.1767 0.0
H801 H 0.33772 0.04774 1.15318 0.0
H802 H 0.40488 0.94123 1.13556 0.0
H803 H 0.34289 0.02784 1.11125 0.0
H804 H 0.44698 0.92167 1.07071 0.0
H805 H 0.39454 0.92429 1.09513 0.0
H806 H 0.39496 0.03604 1.08908 0.0
H807 H 0.44585 0.03312 1.06347 0.0
C808 C 0.38583 0.97503 0.16286 0.0
C809 C 0.36955 1.00668 0.16814 0.0
C810 C 0.38858 0.96355 1.13898 0.0
C811 C 0.37534 0.98365 1.11979 0.0
C812 C 0.35436 1.01236 1.12551 0.0
C813 C 0.3516 0.02388 1.14951 0.0
C814 C 0.43474 0.94665 1.07338 0.0
C815 C 0.45155 0.97742 1.06634 0.0
C816 C 0.4047 0.94817 1.08758 0.0
C817 C 0.39185 0.98044 1.09542 0.0
C818 C 0.40455 1.01064 1.08409 0.0
C819 C 0.43418 1.00908 1.06956 0.0
H820 H 0.82819 0.66763 0.42898 0.0
H821 H 0.74628 0.59825 0.40703 0.0
H822 H 0.84846 0.67099 0.38783 0.0
H823 H 0.76669 0.6018 0.36508 0.0
H824 H 0.86736 0.70915 0.32198 0.0
H825 H 0.86711 0.65817 0.34782 0.0
H826 H 0.75576 0.65215 0.34137 0.0
H827 H 0.75637 0.70165 0.31445 0.0
C828 C 0.81536 0.65176 0.41554 0.0
C829 C 0.78476 0.63379 0.42117 0.0
C830 C 0.82718 0.65352 0.39167 0.0
C831 C 0.80848 0.6376 0.37283 0.0
C832 C 0.78106 0.61524 0.37905 0.0
C833 C 0.76922 0.61343 0.40305 0.0
C834 C 0.84305 0.69574 0.32487 0.0
C835 C 0.81157 0.71048 0.31733 0.0
C836 C 0.8429 0.66653 0.33987 0.0
C837 C 0.81126 0.65248 0.34797 0.0
C838 C 0.78066 0.66279 0.33618 0.0
C839 C 0.78088 0.6916 0.32088 0.0
H840 H 0.94753 0.9186 0.75636 0.0
H841 H 0.94057 0.02995 0.76278 0.0
H842 H 0.89749 0.91854 0.72996 0.0
H843 H 0.89259 0.03032 0.73491 0.0
H844 H 0.90597 0.95066 0.64794 0.0
H845 H 0.90866 0.93326 0.6899 0.0
H846 H 0.8451 0.02121 0.7101 0.0
H847 H 0.84419 0.03958 0.66779 0.0
C848 C 0.93455 0.94301 0.75298 0.0
C849 C 0.94927 0.97458 0.76045 0.0
C850 C 0.90594 0.943 0.73755 0.0
C851 C 0.89258 0.97455 0.7288 0.0
C852 C 0.90273 1.00541 0.74045 0.0
C853 C 0.93075 1.00534 0.75631 0.0
C854 C 0.89187 0.9658 0.66128 0.0
C855 C 0.87627 0.99725 0.65479 0.0
C856 C 0.89286 0.95555 0.6855 0.0
C857 C 0.87822 0.97662 0.70377 0.0
C858 C 0.85773 1.00503 0.69665 0.0
C859 C 0.85701 1.01547 0.67235 0.0
H860 H 0.76969 0.19841 1.03608 0.0
H861 H 0.85898 0.20864 0.98919 0.0
H862 H 0.75033 0.14868 1.01241 0.0
H863 H 0.83957 0.16025 0.96543 0.0
H864 H 0.79103 0.11038 0.90787 0.0
H865 H 0.81517 0.10958 0.94879 0.0
H866 H 0.72439 0.16384 0.97517 0.0
H867 H 0.70033 0.16339 0.93482 0.0
C868 C 0.78593 0.18913 1.02137 0.0
C869 C 0.81489 0.20839 1.01373 0.0
C870 C 0.77486 0.16065 1.00779 0.0
C871 C 0.7922 0.15181 0.98613 0.0
C872 C 0.82493 0.16662 0.98162 0.0
C873 C 0.83617 0.19477 0.99533 0.0
C874 C 0.77577 0.1208 0.92271 0.0
C875 C 0.74451 0.13818 0.9182 0.0
C876 C 0.78958 0.1204 0.94614 0.0
C877 C 0.77243 0.13774 0.96521 0.0
C878 C 0.73872 0.1504 0.96111 0.0
C879 C 0.725 0.15072 0.93781 0.0
H880 H 0.36358 0.20921 0.82102 0.0
H881 H 0.2525 0.20551 0.81276 0.0
H882 H 0.36123 0.15836 0.84692 0.0
H883 H 0.24983 0.15624 0.83985 0.0
H884 H 0.32268 0.16687 0.92807 0.0
H885 H 0.34264 0.17127 0.88689 0.0
H886 H 0.25876 0.10527 0.86328 0.0
H887 H 0.23864 0.10068 0.90525 0.0
C888 C 0.33877 0.19668 0.82378 0.0
C889 C 0.30794 0.21247 0.81599 0.0
C890 C 0.33741 0.16757 0.83884 0.0
C891 C 0.30522 0.15462 0.84675 0.0
C892 C 0.27514 0.166 0.83479 0.0
C893 C 0.27656 0.19469 0.8194 0.0
C894 C 0.30926 0.15193 0.9144 0.0
C895 C 0.2783 0.13448 0.91989 0.0
C896 C 0.3209 0.15429 0.89051 0.0
C897 C 0.30169 0.13947 0.87148 0.0
C898 C 0.27359 0.11781 0.87742 0.0
C899 C 0.26193 0.1154 0.90144 0.0
H900 H 0.42345 0.83088 0.4083 0.0
H901 H 0.32505 0.87697 0.39039 0.0
H902 H 0.43006 0.81106 0.36648 0.0
H903 H 0.33041 0.85628 0.34942 0.0
H904 H 0.37103 0.71823 0.33102 0.0
H905 H 0.40374 0.76327 0.35062 0.0
H906 H 0.34636 0.84087 0.31084 0.0
H907 H 0.31139 0.79542 0.29291 0.0
C908 C 0.40361 0.8374 0.39523 0.0
C909 C 0.37318 0.85435 0.40268 0.0
C910 C 0.40734 0.82607 0.37126 0.0
C911 C 0.38014 0.83052 0.3546 0.0
C912 C 0.35204 0.85185 0.36143 0.0
C913 C 0.34865 0.86365 0.3852 0.0
C914 C 0.36616 0.7449 0.32585 0.0
C915 C 0.33706 0.75344 0.3119 0.0
C916 C 0.38527 0.77105 0.33696 0.0
C917 C 0.37576 0.80605 0.33384 0.0
C918 C 0.35272 0.81416 0.31493 0.0
C919 C 0.33288 0.78797 0.30433 0.0
H920 H 0.11816 0.5853 0.65041 0.0
H921 H 0.18596 0.50246 0.67321 0.0
H922 H 0.11443 0.60588 0.69141 0.0
H923 H 0.18215 0.52325 0.715 0.0
H924 H 0.07673 0.62664 0.75725 0.0
H925 H 0.12726 0.62513 0.73096 0.0
H926 H 0.13237 0.51383 0.73941 0.0
H927 H 0.08353 0.51575 0.76698 0.0
C928 C 0.13359 0.5723 0.66402 0.0
C929 C 0.15129 0.54146 0.65864 0.0
C930 C 0.13162 0.5843 0.6878 0.0
C931 C 0.1471 0.56557 0.70684 0.0
C932 C 0.16905 0.53769 0.7009 0.0
C933 C 0.17104 0.52565 0.67698 0.0
C934 C 0.08984 0.60208 0.7547 0.0
C935 C 0.07496 0.57096 0.76303 0.0
C936 C 0.11877 0.6012 0.7394 0.0
C937 C 0.13239 0.56916 0.73174 0.0
C938 C 0.12203 0.53901 0.74422 0.0
C939 C 0.09357 0.53998 0.75989 0.0
H940 H 0.62728 0.57148 0.17226 0.0
H941 H 0.67931 0.47703 1.151 0.0
H942 H 0.62338 0.58874 1.13054 0.0
H943 H 0.67559 0.49453 1.1085 0.0
H944 H 0.582 0.6083 1.06602 0.0
H945 H 0.63439 0.60208 1.08975 0.0
H946 H 0.62386 0.4906 1.0864 0.0
H947 H 0.57324 0.49692 1.06122 0.0
C948 C 0.63933 0.55503 1.15872 0.0
C949 C 0.65239 0.52227 0.1649 0.0
C950 C 0.6373 0.56507 1.13451 0.0
C951 C 0.64809 0.54246 1.11586 0.0
C952 C 0.66598 0.51206 1.12233 0.0
C953 C 0.66794 0.50194 1.14666 0.0
C954 C 0.59199 0.58244 1.06909 0.0
C955 C 0.57237 0.553 1.06303 0.0
C956 C 0.62199 0.57887 1.08294 0.0
C957 C 0.63191 0.54596 1.09149 0.0
C958 C 0.61653 0.51653 1.08094 0.0
C959 C 0.58703 0.52009 1.06665 0.0
H960 H 0.22139 0.3642 0.33035 0.0
H961 H 0.3056 0.37411 0.27889 0.0
H962 H 0.20197 0.42231 0.32028 0.0
H963 H 0.28512 0.43201 0.26798 0.0
H964 H 0.2576 0.54989 0.2778 0.0
H965 H 0.27967 0.49097 0.28399 0.0
H966 H 0.17464 0.45254 0.28754 0.0
H967 H 0.15286 0.51116 0.28203 0.0
C968 C 0.23585 0.37879 0.31691 0.0
C969 C 0.26513 0.36439 0.30549 0.0
C970 C 0.22439 0.41201 0.31086 0.0
C971 C 0.24175 0.43178 0.29311 0.0
C972 C 0.27121 0.41757 0.28178 0.0
C973 C 0.28273 0.38423 0.28787 0.0
C974 C 0.23935 0.5287 0.27951 0.0
C975 C 0.20355 0.53511 0.27968 0.0
C976 C 0.25195 0.49494 0.28305 0.0
C977 C 0.22891 0.46707 0.28672 0.0
C978 C 0.19313 0.47345 0.28543 0.0
C979 C 0.18063 0.50703 0.28205 0.0
H980 H 0.39692 0.57217 0.56365 0.0
H981 H 0.44032 0.47805 0.53399 0.0
H982 H 0.33885 0.55232 0.55297 0.0
H983 H 0.38257 0.45848 0.52288 0.0
H984 H 0.27494 0.41476 0.53944 0.0
H985 H 0.3331 0.43737 0.54406 0.0
H986 H 0.298 0.53849 0.52092 0.0
H987 H 0.23896 0.51571 0.51691 0.0
C988 C 0.39408 0.54748 0.55451 0.0
C989 C 0.42316 0.52646 0.54997 0.0
C990 C 0.36081 0.53615 0.54829 0.0
C991 C 0.35591 0.50363 0.53724 0.0
C992 C 0.38523 0.48331 0.53185 0.0
C993 C 0.41837 0.49451 0.53822 0.0
C994 C 0.27963 0.44176 0.53507 0.0
C995 C 0.25234 0.4635 0.5279 0.0
C996 C 0.31313 0.45472 0.53758 0.0
C997 C 0.3204 0.48981 0.53286 0.0
C998 C 0.29324 0.51143 0.52498 0.0
C999 C 0.25951 0.49837 0.52247 0.0
H1000 H 0.2853 0.67304 0.84114 0.0
H1001 H 0.22989 0.67893 0.7733 0.0
H1002 H 0.30432 0.61469 0.83099 0.0
H1003 H 0.24841 0.61984 0.76347 0.0
H1004 H 0.26713 0.49772 0.77089 0.0
H1005 H 0.24343 0.55605 0.77824 0.0
H1006 H 0.34501 0.59167 0.79912 0.0
H1007 H 0.36847 0.53422 0.79173 0.0
C1008 C 0.27722 0.66199 0.82402 0.0
C1009 C 0.25647 0.68105 0.8079 0.0
C1010 C 0.28803 0.62844 0.81825 0.0
C1011 C 0.2782 0.61285 0.79629 0.0
C1012 C 0.2563 0.63117 0.78055 0.0
C1013 C 0.24566 0.665 0.78624 0.0
C1014 C 0.28435 0.51821 0.77674 0.0
C1015 C 0.31955 0.51131 0.78098 0.0
C1016 C 0.27083 0.55152 0.78094 0.0
C1017 C 0.29229 0.57823 0.78967 0.0
C1018 C 0.32769 0.57148 0.7929 0.0
C1019 C 0.34115 0.53855 0.78852 0.0
H1020 H 0.08766 0.57023 1.0333 0.0
H1021 H 0.12723 0.47909 1.06923 0.0
H1022 H 0.14645 0.58744 1.02257 0.0
H1023 H 0.18632 0.4966 1.05889 0.0
H1024 H 0.28903 0.52733 1.02296 0.0
H1025 H 0.22934 0.50602 1.02699 0.0
H1026 H 0.19496 0.60994 1.04389 0.0
H1027 H 0.25372 0.631 1.03925 0.0
C1028 C 0.10898 0.55394 1.039 0.0
C1029 C 0.10281 0.52353 1.05237 0.0
C1030 C 0.14272 0.56377 1.03284 0.0
C1031 C 0.17125 0.54361 1.04006 0.0
C1032 C 0.165 0.51257 1.05279 0.0
C1033 C 0.13114 0.5026 1.05882 0.0
C1034 C 0.26852 0.54554 1.02717 0.0
C1035 C 0.27603 0.58078 1.03083 0.0
C1036 C 0.23441 0.53336 1.02968 0.0
C1037 C 0.20726 0.55625 1.03578 0.0
C1038 C 0.21495 0.5916 1.03878 0.0
C1039 C 0.24879 0.60368 1.03628 0.0
H1040 H 0.86964 0.53342 1.04817 0.0
H1041 H 0.76499 0.49409 1.04926 0.0
H1042 H 0.84797 0.5918 1.04164 0.0
H1043 H 0.74302 0.5529 1.04204 0.0
H1044 H 0.71731 0.67056 1.04658 0.0
H1045 H 0.73632 0.61217 1.05759 0.0
H1046 H 0.82282 0.62172 1.00802 0.0
H1047 H 0.80489 0.68025 0.99794 0.0
C1048 C 0.84189 0.53736 1.0472 0.0
C1049 C 0.81902 0.50917 1.04902 0.0
C1050 C 0.82946 0.57082 1.04323 0.0
C1051 C 0.79377 0.57703 1.04076 0.0
C1052 C 0.77067 0.54905 1.04384 0.0
C1053 C 0.7832 0.51538 1.04798 0.0
C1054 C 0.74056 0.66028 1.0382 0.0
C1055 C 0.75961 0.68028 1.02141 0.0
C1056 C 0.75124 0.62665 1.04434 0.0
C1057 C 0.7813 0.6123 1.0339 0.0
C1058 C 0.79991 0.63211 1.01681 0.0
C1059 C 0.78931 0.66561 1.01072 0.0
H1060 H 0.58709 0.57019 0.79573 0.0
H1061 H 0.6281 0.47833 0.76131 0.0
H1062 H 0.64544 0.58774 0.80692 0.0
H1063 H 0.68678 0.49618 0.77212 0.0
H1064 H 0.7883 0.52825 0.80853 0.0
H1065 H 0.72882 0.50658 0.80428 0.0
H1066 H 0.69456 0.60992 0.78581 0.0
H1067 H 0.7531 0.63134 0.79063 0.0
C1068 C 0.60863 0.55381 0.79047 0.0
C1069 C 0.60299 0.52311 0.77736 0.0
C1070 C 0.64213 0.56384 0.79689 0.0
C1071 C 0.67096 0.5436 0.79021 0.0
C1072 C 0.66522 0.51225 0.77779 0.0
C1073 C 0.63159 0.50207 0.7715 0.0
C1074 C 0.76785 0.54627 0.80394 0.0
C1075 C 0.77535 0.58144 0.79987 0.0
C1076 C 0.73386 0.53387 0.8013 0.0
C1077 C 0.70681 0.55648 0.79468 0.0
C1078 C 0.71445 0.59179 0.79131 0.0
C1079 C 0.74817 0.60408 0.79393 0.0
H1080 H 0.80178 0.37224 0.55328 0.0
H1081 H 0.7233 0.36572 0.49784 0.0
H1082 H 0.78117 0.43007 0.5642 0.0
H1083 H 0.70397 0.42388 0.50787 0.0
H1084 H 0.65239 0.51239 0.54537 0.0
H1085 H 0.67357 0.45359 0.53949 0.0
H1086 H 0.77863 0.48944 0.54934 0.0
H1087 H 0.75707 0.54843 0.55598 0.0
C1088 C 0.78016 0.3831 0.54341 0.0
C1089 C 0.76417 0.36421 0.5247 0.0
C1090 C 0.7686 0.41642 0.5495 0.0
C1091 C 0.74074 0.43159 0.53705 0.0
C1092 C 0.72507 0.41281 0.51817 0.0
C1093 C 0.73653 0.37957 0.51214 0.0
C1094 C 0.67998 0.50761 0.54664 0.0
C1095 C 0.70312 0.53497 0.55096 0.0
C1096 C 0.69217 0.47396 0.54304 0.0
C1097 C 0.72787 0.46684 0.54346 0.0
C1098 C 0.75096 0.49398 0.54896 0.0
C1099 C 0.73866 0.52777 0.55274 0.0
H1100 H 0.77473 0.41472 0.29218 0.0
H1101 H 0.73706 0.51645 0.31166 0.0
H1102 H 0.83289 0.43749 0.28793 0.0
H1103 H 0.79615 0.53946 0.30801 0.0
H1104 H 0.89644 0.57051 0.26446 0.0
H1105 H 0.8381 0.55153 0.2757 0.0
H1106 H 0.88113 0.4602 0.30958 0.0
H1107 H 0.93913 0.47886 0.29793 0.0
C1108 C 0.77903 0.44195 0.29596 0.0
C1109 C 0.75131 0.46385 0.30214 0.0
C1110 C 0.81252 0.455 0.29368 0.0
C1111 C 0.81932 0.49034 0.29766 0.0
C1112 C 0.79173 0.51217 0.30458 0.0
C1113 C 0.75798 0.499 0.30686 0.0
C1114 C 0.89337 0.54659 0.27455 0.0
C1115 C 0.92229 0.52587 0.27996 0.0
C1116 C 0.85997 0.53578 0.2811 0.0
C1117 C 0.85485 0.50413 0.29331 0.0
C1118 C 0.88402 0.48432 0.29969 0.0
C1119 C 0.91728 0.49497 0.29301 0.0
H1120 H 0.73894 0.87511 0.84059 0.0
H1121 H 0.79246 0.86819 0.77167 0.0
H1122 H 0.71964 0.93332 0.83036 0.0
H1123 H 0.77369 0.92715 0.76177 0.0
H1124 H 0.75524 0.0495 0.76934 0.0
H1125 H 0.7792 0.99127 0.77649 0.0
H1126 H 0.67796 0.95533 0.79862 0.0
H1127 H 0.6542 1.01268 0.7914 0.0
C1128 C 0.74656 0.88592 0.82323 0.0
C1129 C 0.76682 0.86664 0.80682 0.0
C1130 C 0.7356 0.91936 0.81742 0.0
C1131 C 0.74482 0.93457 0.79514 0.0
C1132 C 0.76629 0.91606 0.7791 0.0
C1133 C 0.77707 0.88234 0.78483 0.0
C1134 C 0.73814 0.02895 0.77539 0.0
C1135 C 0.70296 0.03571 0.78005 0.0
C1136 C 0.75181 0.99572 0.77948 0.0
C1137 C 0.73052 0.969 0.78852 0.0
C1138 C 0.69512 0.97558 0.79213 0.0
C1139 C 0.6815 1.00843 0.78785 0.0
H1140 H 0.77375 0.91569 1.03244 0.0
H1141 H 0.73422 0.02023 1.02833 0.0
H1142 H 0.83175 0.93796 1.03924 0.0
H1143 H 0.79258 0.04281 1.0358 0.0
H1144 H 0.90979 0.06903 1.03183 0.0
H1145 H 0.85199 0.0489 1.02067 0.0
H1146 H 0.86068 0.96523 1.07243 0.0
H1147 H 0.91871 0.98423 1.08269 0.0
C1148 C 0.77756 0.94353 1.0328 0.0
C1149 C 0.74941 0.96622 1.03005 0.0
C1150 C 0.81079 0.95632 1.03693 0.0
C1151 C 0.81679 0.99219 1.03858 0.0
C1152 C 0.78889 1.01503 1.03461 0.0
C1153 C 0.75547 1.00214 1.03035 0.0
C1154 C 0.89946 0.04616 1.04067 0.0
C1155 C 0.91907 0.02821 1.05813 0.0
C1156 C 0.86616 0.03484 1.03444 0.0
C1157 C 0.85175 1.00524 1.04546 0.0
C1158 C 0.87116 0.98773 1.0632 0.0
C1159 C 0.90434 0.99897 1.06938 0.0
H1160 H 0.86956 0.03236 0.28838 0.0
H1161 H 0.76652 0.99626 0.27179 0.0
H1162 H 0.84778 0.0908 0.29363 0.0
H1163 H 0.74449 0.05562 0.27642 0.0
H1164 H 0.71582 0.15615 0.3197 0.0
H1165 H 0.73415 0.09756 0.30861 0.0
H1166 H 0.82491 0.13983 0.27319 0.0
H1167 H 0.80692 0.19806 0.28473 0.0
C1168 C 0.84223 0.03707 0.28545 0.0
C1169 C 0.81972 1.00967 0.27977 0.0
C1170 C 0.82973 0.07073 0.28832 0.0
C1171 C 0.79433 0.07809 0.28544 0.0
C1172 C 0.77185 0.05081 0.27904 0.0
C1173 C 0.78445 1.01689 0.27618 0.0
C1174 C 0.7395 0.15286 0.30933 0.0
C1175 C 0.76019 0.18168 0.3034 0.0
C1176 C 0.74995 0.1193 0.30287 0.0
C1177 C 0.78121 0.11385 0.29018 0.0
C1178 C 0.8011 0.14291 0.28343 0.0
C1179 C 0.79081 0.17633 0.29005 0.0
H1180 H 0.75147 0.13361 0.53866 0.0
H1181 H 0.78505 0.03016 0.52005 0.0
H1182 H 0.69283 0.11278 0.54472 0.0
H1183 H 0.72553 1.00911 0.52557 0.0
H1184 H 0.62687 0.98157 0.5713 0.0
H1185 H 0.68515 0.99936 0.55911 0.0
H1186 H 0.6427 0.09068 0.52487 0.0
H1187 H 0.5847 0.07314 0.53739 0.0
C1188 C 0.74613 0.10642 0.53544 0.0
C1189 C 0.77287 0.08347 0.52897 0.0
C1190 C 0.71238 0.09447 0.53878 0.0
C1191 C 0.70435 0.05922 0.53566 0.0
C1192 C 0.73093 0.03635 0.5284 0.0
C1193 C 0.76491 0.0484 0.52502 0.0
C1194 C 0.63002 1.00526 0.56097 0.0
C1195 C 0.60124 0.02619 0.55559 0.0
C1196 C 0.6634 1.01539 0.55387 0.0
C1197 C 0.66869 0.04659 0.54114 0.0
C1198 C 0.63969 0.06685 0.53508 0.0
C1199 C 0.60643 0.05685 0.54229 0.0
H1200 H 0.30256 0.19766 0.54933 0.0
H1201 H 0.21635 0.15539 0.50951 0.0
H1202 H 0.32092 0.13931 0.56021 0.0
H1203 H 0.23515 0.09671 0.5199 0.0
H1204 H 0.26748 0.99402 0.55463 0.0
H1205 H 0.24387 0.05293 0.55114 0.0
H1206 H 0.34728 0.09253 0.53916 0.0
H1207 H 0.37054 0.03456 0.54331 0.0
C1208 C 0.28759 0.17582 0.54284 0.0
C1209 C 0.25829 0.1811 0.5283 0.0
C1210 C 0.29809 0.14234 0.54907 0.0
C1211 C 0.27979 0.11318 0.5407 0.0
C1212 C 0.24969 0.11851 0.52688 0.0
C1213 C 0.23899 0.15213 0.52081 0.0
C1214 C 0.28505 1.01551 0.55165 0.0
C1215 C 0.32081 1.00969 0.54919 0.0
C1216 C 0.27156 0.04918 0.54944 0.0
C1217 C 0.29364 0.07757 0.54484 0.0
C1218 C 0.32947 0.07156 0.5431 0.0
C1219 C 0.34284 0.03816 0.54532 0.0
H1220 H 0.1094 0.98629 0.30299 0.0
H1221 H 0.10302 0.06756 0.24919 0.0
H1222 H 0.1673 1.0061 0.314 0.0
H1223 H 0.16126 0.08615 0.25932 0.0
H1224 H 0.25048 0.13531 0.29709 0.0
H1225 H 0.19155 0.11483 0.29117 0.0
H1226 H 0.22655 1.00899 0.29901 0.0
H1227 H 0.28569 0.02981 0.30567 0.0
C1228 C 0.12029 1.00837 0.29351 0.0
C1229 C 0.10141 0.02535 0.27521 0.0
C1230 C 0.15367 0.01948 0.29966 0.0
C1231 C 0.16894 0.04788 0.28769 0.0
C1232 C 0.15014 0.06459 0.26926 0.0
C1233 C 0.11685 0.05357 0.26317 0.0
C1234 C 0.2455 0.10768 0.29792 0.0
C1235 C 0.27268 0.08413 0.30169 0.0
C1236 C 0.21176 0.0959 0.29429 0.0
C1237 C 0.20433 0.06021 0.29413 0.0
C1238 C 0.2313 0.03666 0.29909 0.0
C1239 C 0.26519 0.04854 0.30289 0.0
H1240 H 0.25433 0.04574 1.06199 0.0
H1241 H 0.15324 1.01109 1.03912 0.0
H1242 H 0.27751 0.98734 1.05438 0.0
H1243 H 0.1762 0.95345 1.03154 0.0
H1244 H 0.23674 0.87273 0.9892 0.0
H1245 H 0.21723 0.93066 1.00008 0.0
H1246 H 0.27207 0.92367 1.06797 0.0
H1247 H 0.29113 0.86506 1.05737 0.0
C1248 C 0.23703 0.0256 1.0557 0.0
C1249 C 0.20208 0.03305 1.05091 0.0
C1250 C 0.25026 0.99224 1.05134 0.0
C1251 C 0.22877 0.96604 1.04195 0.0
C1252 C 0.19355 0.97327 1.03827 0.0
C1253 C 0.18037 1.00629 1.04278 0.0
C1254 C 0.24447 0.8833 1.00655 0.0
C1255 C 0.26514 0.86391 1.02252 0.0
C1256 C 0.23336 0.91658 1.01275 0.0
C1257 C 0.24278 0.93153 1.03502 0.0
C1258 C 0.2645 0.91283 1.05066 0.0
C1259 C 0.27546 0.87929 1.04452 0.0
H1260 H 0.43617 0.97972 0.79453 0.0
H1261 H 0.39488 0.07224 0.76139 0.0
H1262 H 0.37788 0.96162 0.8058 0.0
H1263 H 0.33622 0.05381 0.77224 0.0
H1264 H 0.23459 0.02 0.80846 0.0
H1265 H 0.29388 0.04227 0.80418 0.0
H1266 H 0.32917 0.93957 0.78471 0.0
H1267 H 0.27084 0.91752 0.78964 0.0
C1268 C 0.41456 0.99613 0.78956 0.0
C1269 C 0.42011 0.02716 0.77676 0.0
C1270 C 0.3811 0.98577 0.79603 0.0
C1271 C 0.35219 1.006 0.78968 0.0
C1272 C 0.35784 0.03771 0.77763 0.0
C1273 C 0.39145 0.04822 0.77131 0.0
C1274 C 0.25522 1.00224 0.80362 0.0
C1275 C 0.24806 0.96706 0.79934 0.0
C1276 C 0.28911 1.01499 0.80097 0.0
C1277 C 0.31641 0.99274 0.79408 0.0
C1278 C 0.30909 0.95742 0.79043 0.0
C1279 C 0.27547 0.94477 0.79311 0.0
H1280 H 0.32204 0.10931 0.212 0.0
H1281 H 0.2697 0.20324 0.23361 0.0
H1282 H 0.28449 0.10459 0.1767 0.0
H1283 H 0.23237 0.19885 0.19765 0.0
H1284 H 0.19993 0.19426 1.11425 0.0
H1285 H 0.23521 0.20109 1.15084 0.0
H1286 H 0.22117 0.09273 0.16732 0.0
H1287 H 0.1852 0.08608 1.13104 0.0
C1288 C 0.3028 0.12932 0.20916 0.0
C1289 C 0.29936 0.15686 0.22591 0.0
C1290 C 0.2809 0.12636 0.18886 0.0
C1291 C 0.25498 0.15116 0.18412 0.0
C1292 C 0.25198 0.17922 0.20051 0.0
C1293 C 0.27349 0.18179 0.2212 0.0
C1294 C 0.20395 0.17191 1.1258 0.0
C1295 C 0.18931 0.1396 1.1195 0.0
C1296 C 0.22424 0.17589 1.14691 0.0
C1297 C 0.23143 0.1475 1.16224 0.0
C1298 C 0.21659 0.11523 1.15602 0.0
C1299 C 0.19563 0.11145 1.13521 0.0
H1300 H 0.70088 0.44666 0.38 0.0
H1301 H 0.5928 0.46163 0.3638 0.0
H1302 H 0.69465 0.4835 0.41602 0.0
H1303 H 0.58641 0.49786 0.4001 0.0
H1304 H 0.58395 0.53331 0.48237 0.0
H1305 H 0.58831 0.49591 0.44639 0.0
H1306 H 0.68356 0.54662 0.42592 0.0
H1307 H 0.6789 0.58429 0.46141 0.0
C1308 C 0.67563 0.45736 0.38424 0.0
C1309 C 0.64736 0.45077 0.36879 0.0
C1310 C 0.6721 0.47884 0.40489 0.0
C1311 C 0.63999 0.49402 0.4112 0.0
C1312 C 0.61151 0.48666 0.3961 0.0
C1313 C 0.61522 0.4658 0.37515 0.0
C1314 C 0.60562 0.53682 0.47007 0.0
C1315 C 0.63086 0.5623 0.47499 0.0
C1316 C 0.60816 0.51526 0.44934 0.0
C1317 C 0.63646 0.51781 0.43307 0.0
C1318 C 0.66157 0.54339 0.43799 0.0
C1319 C 0.65867 0.56537 0.45837 0.0
H1320 H 0.27148 0.87731 0.7425 0.0
H1321 H 0.18163 0.90813 0.70169 0.0
H1322 H 0.30744 0.88291 0.70593 0.0
H1323 H 0.21749 0.91294 0.66495 0.0
H1324 H 0.28793 0.88223 0.59903 0.0
H1325 H 0.25243 0.87588 0.63564 0.0
H1326 H 0.32994 0.92992 0.67704 0.0
H1327 H 0.36528 0.93701 0.64014 0.0
C1328 C 0.25918 0.88479 0.72568 0.0
C1329 C 0.22331 0.89191 0.72526 0.0
C1330 C 0.28 0.88835 0.70464 0.0
C1331 C 0.26567 0.89846 0.68222 0.0
C1332 C 0.22965 0.90489 0.6817 0.0
C1333 C 0.20897 0.90211 0.70287 0.0
C1334 C 0.29763 0.89275 0.6159 0.0
C1335 C 0.32984 0.9101 0.61635 0.0
C1336 C 0.277 0.88926 0.63699 0.0
C1337 C 0.28802 0.90232 0.65957 0.0
C1338 C 0.32048 0.91924 0.66015 0.0
C1339 C 0.34081 0.92343 0.63888 0.0
H1340 H 0.82177 0.59918 0.87891 0.0
H1341 H 0.93126 0.58952 0.86483 0.0
H1342 H 0.82805 0.56306 0.91535 0.0
H1343 H 0.93763 0.55402 0.90135 0.0
H1344 H 0.93953 0.51777 0.98275 0.0
H1345 H 0.93422 0.55536 0.94699 0.0
H1346 H 0.84141 0.5011 0.92617 0.0
H1347 H 0.84702 0.46325 0.96152 0.0
C1348 C 0.84729 0.58985 0.88371 0.0
C1349 C 0.87597 0.59764 0.86874 0.0
C1350 C 0.85088 0.56877 0.90458 0.0
C1351 C 0.8834 0.55525 0.91153 0.0
C1352 C 0.91219 0.56393 0.8969 0.0
C1353 C 0.90849 0.58437 0.8758 0.0
C1354 C 0.91818 0.51353 0.97044 0.0
C1355 C 0.89395 0.48697 0.9752 0.0
C1356 C 0.91508 0.53522 0.94983 0.0
C1357 C 0.8872 0.5317 0.9335 0.0
C1358 C 0.86303 0.50511 0.93829 0.0
C1359 C 0.8665 0.48303 0.95858 0.0
H1360 H 0.79359 0.87516 0.22717 0.0
H1361 H 0.86659 0.93931 0.18829 0.0
H1362 H 0.75882 0.86922 0.19058 0.0
H1363 H 0.83187 0.93253 1.15118 0.0
H1364 H 0.77591 0.8792 1.08423 0.0
H1365 H 0.81219 0.88536 1.12043 0.0
H1366 H 0.72121 0.90695 0.16345 0.0
H1367 H 0.68505 0.90171 1.12716 0.0
C1368 C 0.80254 0.88784 0.21077 0.0
C1369 C 0.83331 0.90769 0.21098 0.0
C1370 C 0.78228 0.88456 0.18967 0.0
C1371 C 0.7922 0.90035 0.16766 0.0
C1372 C 0.8233 0.91976 0.16764 0.0
C1373 C 0.84327 0.92374 0.18901 0.0
C1374 C 0.76349 0.88493 1.10143 0.0
C1375 C 0.72722 0.88951 1.10258 0.0
C1376 C 0.78447 0.88885 1.12224 0.0
C1377 C 0.76991 0.89671 1.14512 0.0
C1378 C 0.73357 0.90068 1.14632 0.0
C1379 C 0.7127 0.89763 1.12541 0.0
H1380 H 0.40963 0.55257 0.97832 0.0
H1381 H 0.34616 0.62581 0.93955 0.0
H1382 H 0.41524 0.51732 0.9417 0.0
H1383 H 0.35263 0.59073 0.90248 0.0
H1384 H 0.40657 0.53534 0.8356 0.0
H1385 H 0.40047 0.57117 0.87208 0.0
H1386 H 0.37682 0.47989 0.91415 0.0
H1387 H 0.38195 0.44407 0.87746 0.0
C1388 C 0.39705 0.56146 0.96194 0.0
C1389 C 0.37751 0.59242 0.96214 0.0
C1390 C 0.40012 0.54094 0.94086 0.0
C1391 C 0.38443 0.55089 0.9189 0.0
C1392 C 0.3653 0.58215 0.91892 0.0
C1393 C 0.3615 0.60233 0.94025 0.0
C1394 C 0.40035 0.52272 0.85263 0.0
C1395 C 0.39515 0.48648 0.8534 0.0
C1396 C 0.3965 0.54346 0.8736 0.0
C1397 C 0.38809 0.52869 0.89629 0.0
C1398 C 0.3835 0.49236 0.89715 0.0
C1399 C 0.38648 0.47171 0.87603 0.0
H1400 H 0.68623 0.08518 0.69995 0.0
H1401 H 0.69991 0.19372 0.71589 0.0
H1402 H 0.72288 0.09151 0.66372 0.0
H1403 H 0.73589 0.20021 0.67938 0.0
H1404 H 0.77083 0.20211 0.59681 0.0
H1405 H 0.73355 0.19761 0.63296 0.0
H1406 H 0.78603 0.10357 0.65368 0.0
H1407 H 0.82367 0.10849 0.61811 0.0
C1408 C 0.6966 0.11054 0.69561 0.0
C1409 C 0.68974 0.13892 0.71104 0.0
C1410 C 0.71796 0.11414 0.67484 0.0
C1411 C 0.73269 0.14641 0.66839 0.0
C1412 C 0.72504 0.17498 0.68348 0.0
C1413 C 0.70434 0.17121 0.70455 0.0
C1414 C 0.77476 0.18069 0.60921 0.0
C1415 C 0.80072 0.15585 0.60433 0.0
C1416 C 0.75326 0.17806 0.63003 0.0
C1417 C 0.75635 0.15004 0.64641 0.0
C1418 C 0.78239 0.12533 0.64153 0.0
C1419 C 0.80432 0.12836 0.62107 0.0
H1420 H 0.09093 0.45536 0.46514 0.0
H1421 H 0.20062 0.44917 0.45095 0.0
H1422 H 0.08346 0.49096 0.42865 0.0
H1423 H 0.19327 0.48566 0.41479 0.0
H1424 H 0.16975 0.58734 0.3708 0.0
H1425 H 0.17587 0.5493 0.40605 0.0
H1426 H 0.08951 0.48811 0.3815 0.0
H1427 H 0.08396 0.52571 0.34567 0.0
C1428 C 0.1135 0.46132 0.45416 0.0
C1429 C 0.1464 0.44894 0.46113 0.0
C1430 C 0.10916 0.48182 0.43313 0.0
C1431 C 0.13771 0.49156 0.4186 0.0
C1432 C 0.17062 0.47902 0.42548 0.0
C1433 C 0.17483 0.45776 0.44619 0.0
C1434 C 0.15175 0.56601 0.37291 0.0
C1435 C 0.1261 0.56007 0.3552 0.0
C1436 C 0.15554 0.54387 0.39313 0.0
C1437 C 0.13335 0.51529 0.39681 0.0
C1438 C 0.10709 0.50981 0.37947 0.0
C1439 C 0.10384 0.5315 0.35886 0.0
H1440 H 0.68554 0.58613 0.62943 0.0
H1441 H 0.7031 0.69401 0.61303 0.0
H1442 H 0.72215 0.59145 0.66554 0.0
H1443 H 0.73909 0.69949 0.64929 0.0
H1444 H 0.77429 0.70237 0.73089 0.0
H1445 H 0.73704 0.69818 0.69506 0.0
H1446 H 0.78502 0.60091 0.67609 0.0
H1447 H 0.82265 0.6054 0.71156 0.0
C1448 C 0.69673 0.61115 0.63365 0.0
C1449 C 0.69095 0.63964 0.61813 0.0
C1450 C 0.71811 0.61415 0.65434 0.0
C1451 C 0.73397 0.64594 0.66057 0.0
C1452 C 0.72737 0.67462 0.64538 0.0
C1453 C 0.70662 0.67144 0.62445 0.0
C1454 C 0.77726 0.68025 0.71896 0.0
C1455 C 0.80199 0.65443 0.72429 0.0
C1456 C 0.75577 0.67782 0.6983 0.0
C1457 C 0.75758 0.64906 0.68248 0.0
C1458 C 0.78237 0.6233 0.68781 0.0
C1459 C 0.80434 0.62608 0.70815 0.0
H1460 H 0.11586 0.99425 0.85216 0.0
H1461 H 0.17731 0.91965 0.89125 0.0
H1462 H 0.10988 0.02916 0.88889 0.0
H1463 H 0.17036 0.95442 0.92848 0.0
H1464 H 0.11465 1.01104 0.99492 0.0
H1465 H 0.12122 0.97495 0.9585 0.0
H1466 H 0.14906 0.06552 0.91693 0.0
H1467 H 0.14348 0.10145 0.95346 0.0
C1468 C 0.12792 0.98498 0.86864 0.0
C1469 C 0.14702 0.95374 0.86847 0.0
C1470 C 0.12461 1.0053 0.8898 0.0
C1471 C 0.13956 0.99489 0.9119 0.0
C1472 C 0.15826 0.96335 0.91193 0.0
C1473 C 0.16234 0.94336 0.8905 0.0
C1474 C 0.12182 0.02343 0.97799 0.0
C1475 C 0.12802 0.05951 0.97731 0.0
C1476 C 0.12597 1.00255 0.95707 0.0
C1477 C 0.1357 1.01707 0.93454 0.0
C1478 C 0.14131 0.05324 0.93379 0.0
C1479 C 0.13802 0.07397 0.95482 0.0
H1480 H 0.79388 0.37872 1.10178 0.0
H1481 H 0.86773 0.44056 1.14116 0.0
H1482 H 0.7589 0.37219 1.13849 0.0
H1483 H 0.83285 0.43308 0.17839 0.0
H1484 H 0.77661 0.37621 0.24446 0.0
H1485 H 0.81274 0.38353 0.20804 0.0
H1486 H 0.72213 0.4107 0.16681 0.0
H1487 H 0.68613 0.40427 0.20331 0.0
C1488 C 0.80295 0.39077 1.11832 0.0
C1489 C 0.83402 0.41012 1.11825 0.0
C1490 C 0.7826 0.38714 1.13947 0.0
C1491 C 0.79279 0.40203 1.16164 0.0
C1492 C 0.82412 0.42102 1.16177 0.0
C1493 C 0.84415 0.42542 1.14035 0.0
C1494 C 0.76423 0.38338 0.2276 0.0
C1495 C 0.72812 0.38912 0.22699 0.0
C1496 C 0.78512 0.38797 0.20669 0.0
C1497 C 0.7706 0.39774 0.18426 0.0
C1498 C 0.73441 0.40293 0.18358 0.0
C1499 C 0.71364 0.39915 0.2046 0.0
H1500 H 0.40827 0.03955 0.49544 0.0
H1501 H 0.39609 0.94702 0.45252 0.0
H1502 H 0.40187 0.07517 0.45886 0.0
H1503 H 0.39005 0.98252 0.41591 0.0
H1504 H 0.41607 0.05573 0.35178 0.0
H1505 H 0.42347 0.02166 0.38865 0.0
H1506 H 0.35729 0.09265 0.42761 0.0
H1507 H 0.34936 0.12678 0.3903 0.0
C1508 C 0.40475 0.02666 0.47817 0.0
C1509 C 0.40306 0.99012 0.47714 0.0
C1510 C 0.40064 0.04723 0.45712 0.0
C1511 C 0.39533 0.03205 0.43414 0.0
C1512 C 0.39434 0.99545 0.43308 0.0
C1513 C 0.39778 0.97493 0.45419 0.0
C1514 C 0.40309 0.0644 0.36815 0.0
C1515 C 0.38212 0.09442 0.36775 0.0
C1516 C 0.4072 0.04451 0.38942 0.0
C1517 C 0.391 0.05402 0.41141 0.0
C1518 C 0.37047 0.08441 0.41121 0.0
C1519 C 0.36581 0.10405 0.38971 0.0
H1520 H 0.32862 0.35508 0.71435 0.0
H1521 H 0.33731 0.46459 0.69987 0.0
H1522 H 0.29295 0.34801 0.67806 0.0
H1523 H 0.30101 0.45763 0.66376 0.0
H1524 H 0.20162 0.4376 0.61811 0.0
H1525 H 0.23901 0.44346 0.65349 0.0
H1526 H 0.29456 0.35133 0.63214 0.0
H1527 H 0.25739 0.34577 0.59629 0.0
C1528 C 0.32319 0.3777 0.70336 0.0
C1529 C 0.33628 0.41043 0.71022 0.0
C1530 C 0.30266 0.37359 0.68241 0.0
C1531 C 0.2937 0.40219 0.66776 0.0
C1532 C 0.30695 0.43493 0.67454 0.0
C1533 C 0.32812 0.43891 0.69524 0.0
C1534 C 0.22157 0.4183 0.62093 0.0
C1535 C 0.22603 0.39099 0.60412 0.0
C1536 C 0.24338 0.42191 0.64125 0.0
C1537 C 0.27022 0.39804 0.64589 0.0
C1538 C 0.27421 0.37023 0.6294 0.0
C1539 C 0.25278 0.367 0.60875 0.0
H1540 H 0.93306 0.08459 0.46539 0.0
H1541 H 0.82501 0.10066 0.44965 0.0
H1542 H 0.93898 0.04891 0.42882 0.0
H1543 H 0.83076 0.06438 0.41329 0.0
H1544 H 0.84554 0.96363 0.3675 0.0
H1545 H 0.84115 1.00142 0.40297 0.0
H1546 H 0.93705 0.05101 0.38267 0.0
H1547 H 0.94113 1.01352 0.34672 0.0
C1548 C 0.91054 0.0808 0.45406 0.0
C1549 C 0.87855 0.09594 0.46066 0.0
C1550 C 0.91398 0.06026 0.43295 0.0
C1551 C 0.88537 0.05333 0.41788 0.0
C1552 C 0.85342 0.0687 0.42439 0.0
C1553 C 0.85015 0.08987 0.44524 0.0
C1554 C 0.86595 0.98236 0.37057 0.0
C1555 C 0.89387 0.98505 0.35402 0.0
C1556 C 0.86321 1.0044 0.39094 0.0
C1557 C 0.8886 0.02968 0.39591 0.0
C1558 C 0.91697 0.0319 0.37968 0.0
C1559 C 0.91935 1.01029 0.35896 0.0
H1560 H 0.23762 0.66265 0.23078 0.0
H1561 H 0.15817 0.61047 0.18992 0.0
H1562 H 0.27234 0.66924 0.19404 0.0
H1563 H 0.19305 0.61769 1.15273 0.0
H1564 H 0.2526 0.67024 1.08736 0.0
H1565 H 0.21642 0.66395 1.12381 0.0
H1566 H 0.30625 0.63322 0.1647 0.0
H1567 H 0.34227 0.6389 1.12819 0.0
C1568 C 0.22729 0.65267 0.21394 0.0
C1569 C 0.1947 0.63601 0.21363 0.0
C1570 C 0.24752 0.65632 0.19273 0.0
C1571 C 0.23585 0.64402 0.17014 0.0
C1572 C 0.20301 0.62776 0.16965 0.0
C1573 C 0.18295 0.62348 0.19107 0.0
C1574 C 0.26481 0.66251 1.10417 0.0
C1575 C 0.30071 0.6555 1.10465 0.0
C1576 C 0.24386 0.6585 1.12511 0.0
C1577 C 0.25811 0.64799 1.14747 0.0
C1578 C 0.29413 0.6416 1.14802 0.0
C1579 C 0.31493 0.6449 1.12697 0.0
H1580 H 0.61717 0.99291 0.9781 0.0
H1581 H 0.67771 0.91864 0.93766 0.0
H1582 H 0.61045 0.02818 0.9416 0.0
H1583 H 0.67001 0.95373 0.9007 0.0
H1584 H 0.6133 1.01076 0.83537 0.0
H1585 H 0.62045 0.97447 0.8716 0.0
H1586 H 0.64901 0.06476 0.91297 0.0
H1587 H 0.64285 0.10092 0.87661 0.0
C1588 C 0.62886 0.9838 0.96138 0.0
C1589 C 0.64794 0.95254 0.96109 0.0
C1590 C 0.62513 1.00431 0.94035 0.0
C1591 C 0.63961 0.99408 0.91796 0.0
C1592 C 0.65826 0.96253 0.91748 0.0
C1593 C 0.66278 0.94235 0.93876 0.0
C1594 C 0.62074 0.02306 0.85222 0.0
C1595 C 0.62693 0.05914 0.8529 0.0
C1596 C 0.62522 1.00206 0.87303 0.0
C1597 C 0.63531 1.01643 0.89545 0.0
C1598 C 0.64096 0.05259 0.89621 0.0
C1599 C 0.63732 0.07345 0.87527 0.0
loop_
_geom_bond_atom_site_label_1
_geom_bond_atom_site_label_2
_geom_bond_distance
_geom_bond_site_symmetry_2
_ccdc_geom_bond_type
Pr0 C2 2.880 . S
Pr0 O20 2.562 . S
Pr0 O21 2.490 . S
Pr0 O22 2.695 . S
Pr0 O23 2.512 . S
Pr0 O25 2.437 . S
Pr0 O28 2.436 . S
Pr0 O30 2.438 . S
Pr1 C11 2.880 . S
Pr1 O22 2.436 . S
Pr1 O24 2.438 . S
Pr1 O26 2.562 . S
Pr1 O27 2.490 . S
Pr1 O28 2.695 . S
Pr1 O29 2.512 . S
Pr1 O31 2.437 . S
C2 Pr0 2.880 . S
C2 C3 1.491 . S
C2 O20 1.254 . S
C2 O21 1.225 . S
C3 C2 1.491 . S
C3 C4 1.392 . S
C3 C8 1.356 . S
C4 C3 1.392 . S
C4 C5 1.368 . S
C4 H32 0.929 . S
C5 C4 1.368 . S
C5 C6 1.386 . S
C5 H33 0.929 . S
C6 C5 1.386 . S
C6 C7 1.373 . S
C7 C6 1.373 . S
C7 C8 1.409 . S
C7 H34 0.931 . S
C8 C3 1.356 . S
C8 C7 1.409 . S
C8 H35 0.930 . S
C9 O22 1.270 . S
C9 O23 1.248 . S
C10 O24 1.267 . S
C10 O25 1.278 . S
C11 Pr1 2.880 . S
C11 C12 1.491 . S
C11 O26 1.254 . S
C11 O27 1.225 . S
C12 C11 1.491 . S
C12 C13 1.392 . S
C12 C17 1.356 . S
C13 C12 1.392 . S
C13 C14 1.368 1_545 S
C13 H36 0.929 1_545 S
C14 C13 1.368 1_565 S
C14 C15 1.393 . S
C14 H37 0.929 . S
C15 C14 1.393 . S
C15 C16 1.357 1_565 S
C16 C15 1.357 1_545 S
C16 C17 1.409 . S
C16 H38 0.931 . S
C17 C12 1.356 . S
C17 C16 1.409 . S
C17 H39 0.930 . S
C18 O28 1.270 . S
C18 O29 1.248 . S
C19 O30 1.267 . S
C19 O31 1.278 . S
O20 Pr0 2.562 . S
O20 C2 1.254 . S
O21 Pr0 2.490 . S
O21 C2 1.225 . S
O22 Pr0 2.695 . S
O22 Pr1 2.436 . S
O22 C9 1.270 . S
O23 Pr0 2.512 . S
O23 C9 1.248 . S
O24 Pr1 2.438 . S
O24 C10 1.267 . S
O25 Pr0 2.437 . S
O25 C10 1.278 . S
O26 Pr1 2.562 . S
O26 C11 1.254 . S
O27 Pr1 2.490 . S
O27 C11 1.225 . S
O28 Pr0 2.436 . S
O28 Pr1 2.695 . S
O28 C18 1.270 . S
O29 Pr1 2.512 . S
O29 C18 1.248 . S
O30 Pr0 2.438 . S
O30 C19 1.267 . S
O31 Pr1 2.437 . S
O31 C19 1.278 . S
H32 C4 0.929 . S
H33 C5 0.929 . S
H34 C7 0.931 . S
H35 C8 0.930 . S
H36 C13 0.929 1_565 S
H37 C14 0.929 . S
H38 C16 0.931 . S
H39 C17 0.930 . S
Pr40 C42 2.880 . S
Pr40 O60 2.562 . S
Pr40 O61 2.490 . S
Pr40 O62 2.695 . S
Pr40 O63 2.512 . S
Pr40 O65 2.437 . S
Pr40 O68 2.436 . S
Pr40 O70 2.438 . S
Pr41 C51 2.880 . S
Pr41 O62 2.436 . S
Pr41 O64 2.438 . S
Pr41 O66 2.562 . S
Pr41 O67 2.490 . S
Pr41 O68 2.695 . S
Pr41 O69 2.512 . S
Pr41 O71 2.437 . S
C42 Pr40 2.880 . S
C42 C43 1.491 . S
C42 O60 1.254 . S
C42 O61 1.225 . S
C43 C42 1.491 . S
C43 C44 1.392 . S
C43 C48 1.356 . S
C44 C43 1.392 . S
C44 C45 1.368 . S
C44 H72 0.929 . S
C45 C44 1.368 . S
C45 C46 1.386 . S
C45 H73 0.929 . S
C46 C45 1.386 . S
C46 C47 1.373 . S
C47 C46 1.373 . S
C47 C48 1.409 . S
C47 H74 0.931 . S
C48 C43 1.356 . S
C48 C47 1.409 . S
C48 H75 0.930 . S
C49 O62 1.270 . S
C49 O63 1.248 . S
C50 O64 1.267 . S
C50 O65 1.278 . S
C51 Pr41 2.880 . S
C51 C52 1.491 . S
C51 O66 1.254 . S
C51 O67 1.225 . S
C52 C51 1.491 . S
C52 C53 1.392 . S
C52 C57 1.356 . S
C53 C52 1.392 . S
C53 C54 1.368 . S
C53 H76 0.929 . S
C54 C53 1.368 . S
C54 C55 1.386 . S
C54 H77 0.929 . S
C55 C54 1.386 . S
C55 C56 1.373 . S
C56 C55 1.373 . S
C56 C57 1.409 . S
C56 H78 0.931 . S
C57 C52 1.356 . S
C57 C56 1.409 . S
C57 H79 0.930 . S
C58 O68 1.270 . S
C58 O69 1.248 . S
C59 O70 1.267 . S
C59 O71 1.278 . S
O60 Pr40 2.562 . S
O60 C42 1.254 . S
O61 Pr40 2.490 . S
O61 C42 1.225 . S
O62 Pr40 2.695 . S
O62 Pr41 2.436 . S
O62 C49 1.270 . S
O63 Pr40 2.512 . S
O63 C49 1.248 . S
O64 Pr41 2.438 . S
O64 C50 1.267 . S
O65 Pr40 2.437 . S
O65 C50 1.278 . S
O66 Pr41 2.562 . S
O66 C51 1.254 . S
O67 Pr41 2.490 . S
O67 C51 1.225 . S
O68 Pr40 2.436 . S
O68 Pr41 2.695 . S
O68 C58 1.270 . S
O69 Pr41 2.512 . S
O69 C58 1.248 . S
O70 Pr40 2.438 . S
O70 C59 1.267 . S
O71 Pr41 2.437 . S
O71 C59 1.278 . S
H72 C44 0.929 . S
H73 C45 0.929 . S
H74 C47 0.931 . S
H75 C48 0.930 . S
H76 C53 0.929 . S
H77 C54 0.929 . S
H78 C56 0.931 . S
H79 C57 0.930 . S
Pr80 C82 2.880 . S
Pr80 O100 2.562 . S
Pr80 O101 2.490 . S
Pr80 O102 2.695 . S
Pr80 O103 2.512 . S
Pr80 O105 2.437 . S
Pr80 O108 2.436 . S
Pr80 O110 2.438 . S
Pr81 C91 2.880 . S
Pr81 O102 2.436 . S
Pr81 O104 2.438 . S
Pr81 O106 2.562 . S
Pr81 O107 2.490 . S
Pr81 O108 2.695 . S
Pr81 O109 2.512 . S
Pr81 O111 2.437 . S
C82 Pr80 2.880 . S
C82 C83 1.491 . S
C82 O100 1.254 . S
C82 O101 1.225 . S
C83 C82 1.491 . S
C83 C84 1.392 . S
C83 C88 1.356 . S
C84 C83 1.392 . S
C84 C85 1.368 . S
C84 H112 0.929 . S
C85 C84 1.368 . S
C85 C86 1.386 . S
C85 H113 0.929 . S
C86 C85 1.386 . S
C86 C87 1.373 . S
C87 C86 1.373 . S
C87 C88 1.409 . S
C87 H114 0.931 . S
C88 C83 1.356 . S
C88 C87 1.409 . S
C88 H115 0.930 . S
C89 O102 1.270 . S
C89 O103 1.248 . S
C90 O104 1.267 . S
C90 O105 1.278 . S
C91 Pr81 2.880 . S
C91 C92 1.491 . S
C91 O106 1.254 . S
C91 O107 1.225 . S
C92 C91 1.491 . S
C92 C93 1.392 . S
C92 C97 1.356 . S
C93 C92 1.392 . S
C93 C94 1.368 1_565 S
C93 H116 0.917 1_565 S
C94 C93 1.368 1_545 S
C94 C95 1.393 . S
C94 H117 0.929 . S
C95 C94 1.393 . S
C95 C96 1.357 1_545 S
C96 C95 1.357 1_565 S
C96 C97 1.409 . S
C96 H118 0.931 . S
C97 C92 1.356 . S
C97 C96 1.409 . S
C97 H119 0.930 . S
C98 O108 1.270 . S
C98 O109 1.248 . S
C99 O110 1.267 . S
C99 O111 1.278 . S
O100 Pr80 2.562 . S
O100 C82 1.254 . S
O101 Pr80 2.490 . S
O101 C82 1.225 . S
O102 Pr80 2.695 . S
O102 Pr81 2.436 . S
O102 C89 1.270 . S
O103 Pr80 2.512 . S
O103 C89 1.248 . S
O104 Pr81 2.438 . S
O104 C90 1.267 . S
O105 Pr80 2.437 . S
O105 C90 1.278 . S
O106 Pr81 2.562 . S
O106 C91 1.254 . S
O107 Pr81 2.490 . S
O107 C91 1.225 . S
O108 Pr80 2.436 . S
O108 Pr81 2.695 . S
O108 C98 1.270 . S
O109 Pr81 2.512 . S
O109 C98 1.248 . S
O110 Pr80 2.438 . S
O110 C99 1.267 . S
O111 Pr81 2.437 . S
O111 C99 1.278 . S
H112 C84 0.929 . S
H113 C85 0.929 . S
H114 C87 0.931 . S
H115 C88 0.930 . S
H116 C93 0.917 1_545 S
H117 C94 0.929 . S
H118 C96 0.931 . S
H119 C97 0.930 . S
Pr120 C122 2.880 . S
Pr120 O140 2.562 . S
Pr120 O141 2.490 . S
Pr120 O142 2.695 . S
Pr120 O143 2.512 . S
Pr120 O145 2.437 . S
Pr120 O148 2.436 . S
Pr120 O150 2.438 . S
Pr121 C131 2.880 . S
Pr121 O142 2.436 . S
Pr121 O144 2.438 . S
Pr121 O146 2.562 . S
Pr121 O147 2.490 . S
Pr121 O148 2.695 . S
Pr121 O149 2.512 . S
Pr121 O151 2.437 . S
C122 Pr120 2.880 . S
C122 C123 1.491 1_655 S
C122 O140 1.254 . S
C122 O141 1.225 . S
C123 C122 1.491 1_455 S
C123 C124 1.392 . S
C123 C128 1.356 1_455 S
C124 C123 1.392 . S
C124 C125 1.368 . S
C124 H152 0.929 . S
C125 C124 1.368 . S
C125 C126 1.386 . S
C125 H153 0.929 . S
C126 C125 1.386 . S
C126 C127 1.373 . S
C127 C126 1.373 . S
C127 C128 1.409 1_455 S
C127 H154 0.931 . S
C128 C123 1.356 1_655 S
C128 C127 1.409 1_655 S
C128 H155 0.930 . S
C129 O142 1.270 . S
C129 O143 1.248 . S
C130 O144 1.267 . S
C130 O145 1.278 . S
C131 Pr121 2.880 . S
C131 C132 1.491 . S
C131 O146 1.254 . S
C131 O147 1.225 . S
C132 C131 1.491 . S
C132 C133 1.392 . S
C132 C137 1.356 . S
C133 C132 1.392 . S
C133 C134 1.368 . S
C133 H156 0.929 . S
C134 C133 1.368 . S
C134 C135 1.386 . S
C134 H157 0.929 . S
C135 C134 1.386 . S
C135 C136 1.373 . S
C136 C135 1.373 . S
C136 C137 1.409 . S
C136 H158 0.931 . S
C137 C132 1.356 . S
C137 C136 1.409 . S
C137 H159 0.930 . S
C138 O148 1.270 . S
C138 O149 1.248 . S
C139 O150 1.267 . S
C139 O151 1.278 . S
O140 Pr120 2.562 . S
O140 C122 1.254 . S
O141 Pr120 2.490 . S
O141 C122 1.225 . S
O142 Pr120 2.695 . S
O142 Pr121 2.436 . S
O142 C129 1.270 . S
O143 Pr120 2.512 . S
O143 C129 1.248 . S
O144 Pr121 2.438 . S
O144 C130 1.267 . S
O145 Pr120 2.437 . S
O145 C130 1.278 . S
O146 Pr121 2.562 . S
O146 C131 1.254 . S
O147 Pr121 2.490 . S
O147 C131 1.225 . S
O148 Pr120 2.436 . S
O148 Pr121 2.695 . S
O148 C138 1.270 . S
O149 Pr121 2.512 . S
O149 C138 1.248 . S
O150 Pr120 2.438 . S
O150 C139 1.267 . S
O151 Pr121 2.437 . S
O151 C139 1.278 . S
H152 C124 0.929 . S
H153 C125 0.929 . S
H154 C127 0.931 . S
H155 C128 0.930 . S
H156 C133 0.929 . S
H157 C134 0.929 . S
H158 C136 0.931 . S
H159 C137 0.930 . S
Pr160 C162 2.880 . S
Pr160 O180 2.562 . S
Pr160 O181 2.490 . S
Pr160 O182 2.695 . S
Pr160 O183 2.512 . S
Pr160 O185 2.437 . S
Pr160 O188 2.436 . S
Pr160 O190 2.438 . S
Pr161 C171 2.880 . S
Pr161 O182 2.436 . S
Pr161 O184 2.438 . S
Pr161 O186 2.562 . S
Pr161 O187 2.490 . S
Pr161 O188 2.695 . S
Pr161 O189 2.512 . S
Pr161 O191 2.437 . S
C162 Pr160 2.880 . S
C162 C163 1.491 . S
C162 O180 1.254 . S
C162 O181 1.225 . S
C163 C162 1.491 . S
C163 C164 1.392 . S
C163 C168 1.356 . S
C164 C163 1.392 . S
C164 C165 1.368 1_565 S
C164 H192 0.929 1_565 S
C165 C164 1.368 1_545 S
C165 C166 1.393 . S
C165 H193 0.929 . S
C166 C165 1.393 . S
C166 C167 1.357 1_545 S
C167 C166 1.357 1_565 S
C167 C168 1.409 . S
C167 H194 0.931 . S
C168 C163 1.356 . S
C168 C167 1.409 . S
C168 H195 0.930 . S
C169 O182 1.270 . S
C169 O183 1.248 . S
C170 O184 1.267 . S
C170 O185 1.278 . S
C171 Pr161 2.880 . S
C171 C172 1.491 . S
C171 O186 1.254 . S
C171 O187 1.225 . S
C172 C171 1.491 . S
C172 C173 1.392 . S
C172 C177 1.356 . S
C173 C172 1.392 . S
C173 C174 1.368 . S
C173 H196 0.929 . S
C174 C173 1.368 . S
C174 C175 1.386 . S
C174 H197 0.929 . S
C175 C174 1.386 . S
C175 C176 1.373 . S
C176 C175 1.373 . S
C176 C177 1.409 . S
C176 H198 0.931 . S
C177 C172 1.356 . S
C177 C176 1.409 . S
C177 H199 0.930 . S
C178 O188 1.270 . S
C178 O189 1.248 . S
C179 O190 1.267 . S
C179 O191 1.278 . S
O180 Pr160 2.562 . S
O180 C162 1.254 . S
O181 Pr160 2.490 . S
O181 C162 1.225 . S
O182 Pr160 2.695 . S
O182 Pr161 2.436 . S
O182 C169 1.270 . S
O183 Pr160 2.512 . S
O183 C169 1.248 . S
O184 Pr161 2.438 . S
O184 C170 1.267 . S
O185 Pr160 2.437 . S
O185 C170 1.278 . S
O186 Pr161 2.562 . S
O186 C171 1.254 . S
O187 Pr161 2.490 . S
O187 C171 1.225 . S
O188 Pr160 2.436 . S
O188 Pr161 2.695 . S
O188 C178 1.270 . S
O189 Pr161 2.512 . S
O189 C178 1.248 . S
O190 Pr160 2.438 . S
O190 C179 1.267 . S
O191 Pr161 2.437 . S
O191 C179 1.278 . S
H192 C164 0.929 1_545 S
H193 C165 0.929 . S
H194 C167 0.931 . S
H195 C168 0.930 . S
H196 C173 0.929 . S
H197 C174 0.929 . S
H198 C176 0.931 . S
H199 C177 0.930 . S
Pr200 C202 2.880 . S
Pr200 O220 2.562 . S
Pr200 O221 2.490 . S
Pr200 O222 2.695 . S
Pr200 O223 2.512 . S
Pr200 O225 2.437 . S
Pr200 O228 2.436 . S
Pr200 O230 2.438 . S
Pr201 C211 2.880 . S
Pr201 O222 2.436 . S
Pr201 O224 2.438 . S
Pr201 O226 2.562 . S
Pr201 O227 2.490 . S
Pr201 O228 2.695 . S
Pr201 O229 2.512 . S
Pr201 O231 2.437 . S
C202 Pr200 2.880 . S
C202 C203 1.491 . S
C202 O220 1.254 . S
C202 O221 1.225 . S
C203 C202 1.491 . S
C203 C204 1.392 . S
C203 C208 1.356 . S
C204 C203 1.392 . S
C204 C205 1.368 . S
C204 H232 0.929 . S
C205 C204 1.368 . S
C205 C206 1.386 . S
C205 H233 0.929 . S
C206 C205 1.386 . S
C206 C207 1.373 . S
C207 C206 1.373 . S
C207 C208 1.409 . S
C207 H234 0.931 . S
C208 C203 1.356 . S
C208 C207 1.409 . S
C208 H235 0.930 . S
C209 O222 1.270 . S
C209 O223 1.248 . S
C210 O224 1.267 . S
C210 O225 1.278 . S
C211 Pr201 2.880 . S
C211 C212 1.491 . S
C211 O226 1.254 . S
C211 O227 1.225 . S
C212 C211 1.491 . S
C212 C213 1.392 . S
C212 C217 1.356 . S
C213 C212 1.392 . S
C213 C214 1.368 . S
C213 H236 0.929 . S
C214 C213 1.368 . S
C214 C215 1.386 . S
C214 H237 0.929 . S
C215 C214 1.386 . S
C215 C216 1.373 . S
C216 C215 1.373 . S
C216 C217 1.409 . S
C216 H238 0.931 . S
C217 C212 1.356 . S
C217 C216 1.409 . S
C217 H239 0.930 . S
C218 O228 1.270 . S
C218 O229 1.248 . S
C219 O230 1.267 . S
C219 O231 1.278 . S
O220 Pr200 2.562 . S
O220 C202 1.254 . S
O221 Pr200 2.490 . S
O221 C202 1.225 . S
O222 Pr200 2.695 . S
O222 Pr201 2.436 . S
O222 C209 1.270 . S
O223 Pr200 2.512 . S
O223 C209 1.248 . S
O224 Pr201 2.438 . S
O224 C210 1.267 . S
O225 Pr200 2.437 . S
O225 C210 1.278 . S
O226 Pr201 2.562 . S
O226 C211 1.254 . S
O227 Pr201 2.490 . S
O227 C211 1.225 . S
O228 Pr200 2.436 . S
O228 Pr201 2.695 . S
O228 C218 1.270 . S
O229 Pr201 2.512 . S
O229 C218 1.248 . S
O230 Pr200 2.438 . S
O230 C219 1.267 . S
O231 Pr201 2.437 . S
O231 C219 1.278 . S
H232 C204 0.929 . S
H233 C205 0.929 . S
H234 C207 0.931 . S
H235 C208 0.930 . S
H236 C213 0.929 . S
H237 C214 0.929 . S
H238 C216 0.931 . S
H239 C217 0.930 . S
Pr240 C242 2.880 . S
Pr240 O260 2.562 . S
Pr240 O261 2.490 . S
Pr240 O262 2.695 . S
Pr240 O263 2.512 . S
Pr240 O265 2.437 . S
Pr240 O268 2.436 . S
Pr240 O270 2.438 . S
Pr241 C251 2.880 . S
Pr241 O262 2.436 . S
Pr241 O264 2.438 . S
Pr241 O266 2.562 . S
Pr241 O267 2.490 . S
Pr241 O268 2.695 . S
Pr241 O269 2.512 . S
Pr241 O271 2.437 . S
C242 Pr240 2.880 . S
C242 C243 1.491 . S
C242 O260 1.254 . S
C242 O261 1.225 . S
C243 C242 1.491 . S
C243 C244 1.392 . S
C243 C248 1.356 . S
C244 C243 1.392 . S
C244 C245 1.368 1_545 S
C244 H272 0.917 1_545 S
C245 C244 1.368 1_565 S
C245 C246 1.393 . S
C245 H273 0.929 . S
C246 C245 1.393 . S
C246 C247 1.357 1_565 S
C247 C246 1.357 1_545 S
C247 C248 1.409 . S
C247 H274 0.931 . S
C248 C243 1.356 . S
C248 C247 1.409 . S
C248 H275 0.930 . S
C249 O262 1.270 . S
C249 O263 1.248 . S
C250 O264 1.267 . S
C250 O265 1.278 . S
C251 Pr241 2.880 . S
C251 C252 1.491 . S
C251 O266 1.254 . S
C251 O267 1.225 . S
C252 C251 1.491 . S
C252 C253 1.392 . S
C252 C257 1.356 . S
C253 C252 1.392 . S
C253 C254 1.368 . S
C253 H276 0.929 . S
C254 C253 1.368 . S
C254 C255 1.386 . S
C254 H277 0.929 . S
C255 C254 1.386 . S
C255 C256 1.373 . S
C256 C255 1.373 . S
C256 C257 1.409 . S
C256 H278 0.931 . S
C257 C252 1.356 . S
C257 C256 1.409 . S
C257 H279 0.930 . S
C258 O268 1.270 . S
C258 O269 1.248 . S
C259 O270 1.267 . S
C259 O271 1.278 . S
O260 Pr240 2.562 . S
O260 C242 1.254 . S
O261 Pr240 2.490 . S
O261 C242 1.225 . S
O262 Pr240 2.695 . S
O262 Pr241 2.436 . S
O262 C249 1.270 . S
O263 Pr240 2.512 . S
O263 C249 1.248 . S
O264 Pr241 2.438 . S
O264 C250 1.267 . S
O265 Pr240 2.437 . S
O265 C250 1.278 . S
O266 Pr241 2.562 . S
O266 C251 1.254 . S
O267 Pr241 2.490 . S
O267 C251 1.225 . S
O268 Pr240 2.436 . S
O268 Pr241 2.695 . S
O268 C258 1.270 . S
O269 Pr241 2.512 . S
O269 C258 1.248 . S
O270 Pr240 2.438 . S
O270 C259 1.267 . S
O271 Pr241 2.437 . S
O271 C259 1.278 . S
H272 C244 0.917 1_565 S
H273 C245 0.929 . S
H274 C247 0.931 . S
H275 C248 0.930 . S
H276 C253 0.929 . S
H277 C254 0.929 . S
H278 C256 0.931 . S
H279 C257 0.930 . S
Pr280 C282 2.880 . S
Pr280 O300 2.562 . S
Pr280 O301 2.490 . S
Pr280 O302 2.695 . S
Pr280 O303 2.512 . S
Pr280 O305 2.437 . S
Pr280 O308 2.436 . S
Pr280 O310 2.438 . S
Pr281 C291 2.880 . S
Pr281 O302 2.436 . S
Pr281 O304 2.438 . S
Pr281 O306 2.562 . S
Pr281 O307 2.490 . S
Pr281 O308 2.695 . S
Pr281 O309 2.512 . S
Pr281 O311 2.437 . S
C282 Pr280 2.880 . S
C282 C283 1.491 . S
C282 O300 1.254 . S
C282 O301 1.225 . S
C283 C282 1.491 . S
C283 C284 1.392 . S
C283 C288 1.356 . S
C284 C283 1.392 . S
C284 C285 1.368 . S
C284 H312 0.929 . S
C285 C284 1.368 . S
C285 C286 1.386 . S
C285 H313 0.929 . S
C286 C285 1.386 . S
C286 C287 1.373 . S
C287 C286 1.373 . S
C287 C288 1.409 . S
C287 H314 0.931 . S
C288 C283 1.356 . S
C288 C287 1.409 . S
C288 H315 0.930 . S
C289 O302 1.270 . S
C289 O303 1.248 . S
C290 O304 1.267 . S
C290 O305 1.278 . S
C291 Pr281 2.880 . S
C291 C292 1.491 1_455 S
C291 O306 1.254 . S
C291 O307 1.225 . S
C292 C291 1.491 1_655 S
C292 C293 1.392 . S
C292 C297 1.356 1_655 S
C293 C292 1.392 . S
C293 C294 1.368 . S
C293 H316 0.929 . S
C294 C293 1.368 . S
C294 C295 1.386 . S
C294 H317 0.929 . S
C295 C294 1.386 . S
C295 C296 1.373 . S
C296 C295 1.373 . S
C296 C297 1.409 1_655 S
C296 H318 0.931 . S
C297 C292 1.356 1_455 S
C297 C296 1.409 1_455 S
C297 H319 0.930 . S
C298 O308 1.270 . S
C298 O309 1.248 . S
C299 O310 1.267 . S
C299 O311 1.278 . S
O300 Pr280 2.562 . S
O300 C282 1.254 . S
O301 Pr280 2.490 . S
O301 C282 1.225 . S
O302 Pr280 2.695 . S
O302 Pr281 2.436 . S
O302 C289 1.270 . S
O303 Pr280 2.512 . S
O303 C289 1.248 . S
O304 Pr281 2.438 . S
O304 C290 1.267 . S
O305 Pr280 2.437 . S
O305 C290 1.278 . S
O306 Pr281 2.562 . S
O306 C291 1.254 . S
O307 Pr281 2.490 . S
O307 C291 1.225 . S
O308 Pr280 2.436 . S
O308 Pr281 2.695 . S
O308 C298 1.270 . S
O309 Pr281 2.512 . S
O309 C298 1.248 . S
O310 Pr280 2.438 . S
O310 C299 1.267 . S
O311 Pr281 2.437 . S
O311 C299 1.278 . S
H312 C284 0.929 . S
H313 C285 0.929 . S
H314 C287 0.931 . S
H315 C288 0.930 . S
H316 C293 0.929 . S
H317 C294 0.929 . S
H318 C296 0.931 . S
H319 C297 0.930 . S
Pr320 C322 2.880 . S
Pr320 O340 2.562 . S
Pr320 O341 2.490 . S
Pr320 O342 2.695 . S
Pr320 O343 2.512 . S
Pr320 O345 2.437 . S
Pr320 O348 2.436 . S
Pr320 O350 2.438 . S
Pr321 C331 2.880 . S
Pr321 O342 2.436 . S
Pr321 O344 2.438 . S
Pr321 O346 2.562 . S
Pr321 O347 2.490 . S
Pr321 O348 2.695 . S
Pr321 O349 2.512 . S
Pr321 O351 2.437 . S
C322 Pr320 2.880 . S
C322 C323 1.491 . S
C322 O340 1.254 . S
C322 O341 1.225 . S
C323 C322 1.491 . S
C323 C324 1.392 . S
C323 C328 1.356 . S
C324 C323 1.392 . S
C324 C325 1.368 . S
C324 H352 0.929 . S
C325 C324 1.368 . S
C325 C326 1.386 . S
C325 H353 0.929 . S
C326 C325 1.386 . S
C326 C327 1.373 . S
C327 C326 1.373 . S
C327 C328 1.409 . S
C327 H354 0.931 . S
C328 C323 1.356 . S
C328 C327 1.409 . S
C328 H355 0.930 . S
C329 O342 1.270 . S
C329 O343 1.248 . S
C330 O344 1.267 . S
C330 O345 1.278 . S
C331 Pr321 2.880 . S
C331 C332 1.491 . S
C331 O346 1.254 . S
C331 O347 1.225 . S
C332 C331 1.491 . S
C332 C333 1.392 . S
C332 C337 1.356 . S
C333 C332 1.392 . S
C333 C334 1.368 . S
C333 H356 0.929 . S
C334 C333 1.368 . S
C334 C335 1.386 . S
C334 H357 0.929 . S
C335 C334 1.386 . S
C335 C336 1.373 . S
C336 C335 1.373 . S
C336 C337 1.409 . S
C336 H358 0.931 . S
C337 C332 1.356 . S
C337 C336 1.409 . S
C337 H359 0.930 . S
C338 O348 1.270 . S
C338 O349 1.248 . S
C339 O350 1.267 . S
C339 O351 1.278 . S
O340 Pr320 2.562 . S
O340 C322 1.254 . S
O341 Pr320 2.490 . S
O341 C322 1.225 . S
O342 Pr320 2.695 . S
O342 Pr321 2.436 . S
O342 C329 1.270 . S
O343 Pr320 2.512 . S
O343 C329 1.248 . S
O344 Pr321 2.438 . S
O344 C330 1.267 . S
O345 Pr320 2.437 . S
O345 C330 1.278 . S
O346 Pr321 2.562 . S
O346 C331 1.254 . S
O347 Pr321 2.490 . S
O347 C331 1.225 . S
O348 Pr320 2.436 . S
O348 Pr321 2.695 . S
O348 C338 1.270 . S
O349 Pr321 2.512 . S
O349 C338 1.248 . S
O350 Pr320 2.438 . S
O350 C339 1.267 . S
O351 Pr321 2.437 . S
O351 C339 1.278 . S
H352 C324 0.929 . S
H353 C325 0.929 . S
H354 C327 0.931 . S
H355 C328 0.930 . S
H356 C333 0.929 . S
H357 C334 0.929 . S
H358 C336 0.931 . S
H359 C337 0.930 . S
Pr360 C362 2.880 . S
Pr360 O380 2.562 1_545 S
Pr360 O381 2.490 . S
Pr360 O382 2.695 . S
Pr360 O383 2.512 . S
Pr360 O385 2.437 . S
Pr360 O388 2.436 . S
Pr360 O390 2.438 . S
Pr361 C371 2.880 . S
Pr361 O382 2.436 . S
Pr361 O384 2.438 . S
Pr361 O386 2.562 . S
Pr361 O387 2.490 . S
Pr361 O388 2.695 . S
Pr361 O389 2.512 . S
Pr361 O391 2.437 . S
C362 Pr360 2.880 . S
C362 C363 1.491 1_445 S
C362 O380 1.254 1_545 S
C362 O381 1.225 . S
C363 C362 1.491 1_665 S
C363 C364 1.392 1_565 S
C363 C368 1.356 1_655 S
C364 C363 1.392 1_545 S
C364 C365 1.368 1_545 S
C364 H392 0.929 . S
C365 C364 1.368 1_565 S
C365 C366 1.386 . S
C365 H393 0.929 . S
C366 C365 1.386 . S
C366 C367 1.373 . S
C367 C366 1.373 . S
C367 C368 1.409 1_655 S
C367 H394 0.931 . S
C368 C363 1.356 1_455 S
C368 C367 1.409 1_455 S
C368 H395 0.930 . S
C369 O382 1.270 . S
C369 O383 1.248 . S
C370 O384 1.267 . S
C370 O385 1.278 . S
C371 Pr361 2.880 . S
C371 C372 1.491 . S
C371 O386 1.254 . S
C371 O387 1.225 . S
C372 C371 1.491 . S
C372 C373 1.392 . S
C372 C377 1.356 . S
C373 C372 1.392 . S
C373 C374 1.368 . S
C373 H396 0.929 . S
C374 C373 1.368 . S
C374 C375 1.386 . S
C374 H397 0.929 . S
C375 C374 1.386 . S
C375 C376 1.373 . S
C376 C375 1.373 . S
C376 C377 1.409 . S
C376 H398 0.931 . S
C377 C372 1.356 . S
C377 C376 1.409 . S
C377 H399 0.930 . S
C378 O388 1.270 . S
C378 O389 1.248 . S
C379 O390 1.267 . S
C379 O391 1.278 . S
O380 Pr360 2.562 1_565 S
O380 C362 1.254 1_565 S
O381 Pr360 2.490 . S
O381 C362 1.225 . S
O382 Pr360 2.695 . S
O382 Pr361 2.436 . S
O382 C369 1.270 . S
O383 Pr360 2.512 . S
O383 C369 1.248 . S
O384 Pr361 2.438 . S
O384 C370 1.267 . S
O385 Pr360 2.437 . S
O385 C370 1.278 . S
O386 Pr361 2.562 . S
O386 C371 1.254 . S
O387 Pr361 2.490 . S
O387 C371 1.225 . S
O388 Pr360 2.436 . S
O388 Pr361 2.695 . S
O388 C378 1.270 . S
O389 Pr361 2.512 . S
O389 C378 1.248 . S
O390 Pr360 2.438 . S
O390 C379 1.267 . S
O391 Pr361 2.437 . S
O391 C379 1.278 . S
H392 C364 0.929 . S
H393 C365 0.929 . S
H394 C367 0.931 . S
H395 C368 0.930 . S
H396 C373 0.929 . S
H397 C374 0.929 . S
H398 C376 0.931 . S
H399 C377 0.930 . S
Pr400 C402 2.880 . S
Pr400 O420 2.562 . S
Pr400 O421 2.490 . S
Pr400 O422 2.695 . S
Pr400 O423 2.512 . S
Pr400 O425 2.437 . S
Pr400 O428 2.436 . S
Pr400 O430 2.438 . S
Pr401 C411 2.880 . S
Pr401 O422 2.436 . S
Pr401 O424 2.438 . S
Pr401 O426 2.562 . S
Pr401 O427 2.490 . S
Pr401 O428 2.695 . S
Pr401 O429 2.512 . S
Pr401 O431 2.437 . S
C402 Pr400 2.880 . S
C402 C403 1.491 . S
C402 O420 1.254 . S
C402 O421 1.225 . S
C403 C402 1.491 . S
C403 C404 1.392 . S
C403 C408 1.356 . S
C404 C403 1.392 . S
C404 C405 1.368 . S
C404 H432 0.929 . S
C405 C404 1.368 . S
C405 C406 1.386 . S
C405 H433 0.929 . S
C406 C405 1.386 . S
C406 C407 1.373 . S
C407 C406 1.373 . S
C407 C408 1.409 . S
C407 H434 0.931 . S
C408 C403 1.356 . S
C408 C407 1.409 . S
C408 H435 0.930 . S
C409 O422 1.270 . S
C409 O423 1.248 . S
C410 O424 1.267 . S
C410 O425 1.278 . S
C411 Pr401 2.880 . S
C411 C412 1.491 . S
C411 O426 1.254 . S
C411 O427 1.225 . S
C412 C411 1.491 . S
C412 C413 1.392 . S
C412 C417 1.356 . S
C413 C412 1.392 . S
C413 C414 1.368 . S
C413 H436 0.929 . S
C414 C413 1.368 . S
C414 C415 1.386 . S
C414 H437 0.929 . S
C415 C414 1.386 . S
C415 C416 1.373 . S
C416 C415 1.373 . S
C416 C417 1.409 . S
C416 H438 0.931 . S
C417 C412 1.356 . S
C417 C416 1.409 . S
C417 H439 0.930 . S
C418 O428 1.270 . S
C418 O429 1.248 . S
C419 O430 1.267 . S
C419 O431 1.278 . S
O420 Pr400 2.562 . S
O420 C402 1.254 . S
O421 Pr400 2.490 . S
O421 C402 1.225 . S
O422 Pr400 2.695 . S
O422 Pr401 2.436 . S
O422 C409 1.270 . S
O423 Pr400 2.512 . S
O423 C409 1.248 . S
O424 Pr401 2.438 . S
O424 C410 1.267 . S
O425 Pr400 2.437 . S
O425 C410 1.278 . S
O426 Pr401 2.562 . S
O426 C411 1.254 . S
O427 Pr401 2.490 . S
O427 C411 1.225 . S
O428 Pr400 2.436 . S
O428 Pr401 2.695 . S
O428 C418 1.270 . S
O429 Pr401 2.512 . S
O429 C418 1.248 . S
O430 Pr400 2.438 . S
O430 C419 1.267 . S
O431 Pr401 2.437 . S
O431 C419 1.278 . S
H432 C404 0.929 . S
H433 C405 0.929 . S
H434 C407 0.931 . S
H435 C408 0.930 . S
H436 C413 0.929 . S
H437 C414 0.929 . S
H438 C416 0.931 . S
H439 C417 0.930 . S
Pr440 C442 2.880 . S
Pr440 O460 2.562 1_565 S
Pr440 O461 2.490 . S
Pr440 O462 2.695 . S
Pr440 O463 2.512 . S
Pr440 O465 2.437 . S
Pr440 O468 2.436 . S
Pr440 O470 2.438 . S
Pr441 C451 2.880 . S
Pr441 O462 2.436 . S
Pr441 O464 2.438 . S
Pr441 O466 2.562 . S
Pr441 O467 2.490 . S
Pr441 O468 2.695 . S
Pr441 O469 2.512 . S
Pr441 O471 2.437 . S
C442 Pr440 2.880 . S
C442 C443 1.491 1_565 S
C442 O460 1.254 1_565 S
C442 O461 1.225 . S
C443 C442 1.491 1_545 S
C443 C444 1.392 1_545 S
C443 C448 1.356 . S
C444 C443 1.392 1_565 S
C444 C445 1.368 1_565 S
C444 H472 0.929 . S
C445 C444 1.368 1_545 S
C445 C446 1.386 . S
C445 H473 0.929 . S
C446 C445 1.386 . S
C446 C447 1.373 . S
C447 C446 1.373 . S
C447 C448 1.409 . S
C447 H474 0.931 . S
C448 C443 1.356 . S
C448 C447 1.409 . S
C448 H475 0.930 . S
C449 O462 1.270 . S
C449 O463 1.248 . S
C450 O464 1.267 . S
C450 O465 1.278 . S
C451 Pr441 2.880 . S
C451 C452 1.491 . S
C451 O466 1.254 . S
C451 O467 1.225 . S
C452 C451 1.491 . S
C452 C453 1.392 . S
C452 C457 1.356 . S
C453 C452 1.392 . S
C453 C454 1.368 . S
C453 H476 0.929 . S
C454 C453 1.368 . S
C454 C455 1.386 . S
C454 H477 0.929 . S
C455 C454 1.386 . S
C455 C456 1.373 . S
C456 C455 1.373 . S
C456 C457 1.409 . S
C456 H478 0.931 . S
C457 C452 1.356 . S
C457 C456 1.409 . S
C457 H479 0.930 . S
C458 O468 1.270 . S
C458 O469 1.248 . S
C459 O470 1.267 . S
C459 O471 1.278 . S
O460 Pr440 2.562 1_545 S
O460 C442 1.254 1_545 S
O461 Pr440 2.490 . S
O461 C442 1.225 . S
O462 Pr440 2.695 . S
O462 Pr441 2.436 . S
O462 C449 1.270 . S
O463 Pr440 2.512 . S
O463 C449 1.248 . S
O464 Pr441 2.438 . S
O464 C450 1.267 . S
O465 Pr440 2.437 . S
O465 C450 1.278 . S
O466 Pr441 2.562 . S
O466 C451 1.254 . S
O467 Pr441 2.490 . S
O467 C451 1.225 . S
O468 Pr440 2.436 . S
O468 Pr441 2.695 . S
O468 C458 1.270 . S
O469 Pr441 2.512 . S
O469 C458 1.248 . S
O470 Pr440 2.438 . S
O470 C459 1.267 . S
O471 Pr441 2.437 . S
O471 C459 1.278 . S
H472 C444 0.929 . S
H473 C445 0.929 . S
H474 C447 0.931 . S
H475 C448 0.930 . S
H476 C453 0.929 . S
H477 C454 0.929 . S
H478 C456 0.931 . S
H479 C457 0.930 . S
Pr480 C482 2.880 . S
Pr480 O500 2.562 . S
Pr480 O501 2.490 . S
Pr480 O502 2.695 . S
Pr480 O503 2.512 . S
Pr480 O505 2.437 . S
Pr480 O508 2.436 . S
Pr480 O510 2.438 . S
Pr481 C491 2.880 . S
Pr481 O502 2.436 . S
Pr481 O504 2.438 . S
Pr481 O506 2.562 . S
Pr481 O507 2.490 . S
Pr481 O508 2.695 . S
Pr481 O509 2.512 . S
Pr481 O511 2.437 . S
C482 Pr480 2.880 . S
C482 C483 1.491 . S
C482 O500 1.254 . S
C482 O501 1.225 . S
C483 C482 1.491 . S
C483 C484 1.392 . S
C483 C488 1.356 . S
C484 C483 1.392 . S
C484 C485 1.368 . S
C484 H512 0.929 . S
C485 C484 1.368 . S
C485 C486 1.386 . S
C485 H513 0.929 . S
C486 C485 1.386 . S
C486 C487 1.373 . S
C487 C486 1.373 . S
C487 C488 1.409 . S
C487 H514 0.931 . S
C488 C483 1.356 . S
C488 C487 1.409 . S
C488 H515 0.930 . S
C489 O502 1.270 . S
C489 O503 1.248 . S
C490 O504 1.267 . S
C490 O505 1.278 . S
C491 Pr481 2.880 . S
C491 C492 1.491 . S
C491 O506 1.254 . S
C491 O507 1.225 . S
C492 C491 1.491 . S
C492 C493 1.392 . S
C492 C497 1.356 . S
C493 C492 1.392 . S
C493 C494 1.368 . S
C493 H516 0.929 . S
C494 C493 1.368 . S
C494 C495 1.386 . S
C494 H517 0.929 . S
C495 C494 1.386 . S
C495 C496 1.373 . S
C496 C495 1.373 . S
C496 C497 1.409 . S
C496 H518 0.931 . S
C497 C492 1.356 . S
C497 C496 1.409 . S
C497 H519 0.930 . S
C498 O508 1.270 . S
C498 O509 1.248 . S
C499 O510 1.267 . S
C499 O511 1.278 . S
O500 Pr480 2.562 . S
O500 C482 1.254 . S
O501 Pr480 2.490 . S
O501 C482 1.225 . S
O502 Pr480 2.695 . S
O502 Pr481 2.436 . S
O502 C489 1.270 . S
O503 Pr480 2.512 . S
O503 C489 1.248 . S
O504 Pr481 2.438 . S
O504 C490 1.267 . S
O505 Pr480 2.437 . S
O505 C490 1.278 . S
O506 Pr481 2.562 . S
O506 C491 1.254 . S
O507 Pr481 2.490 . S
O507 C491 1.225 . S
O508 Pr480 2.436 . S
O508 Pr481 2.695 . S
O508 C498 1.270 . S
O509 Pr481 2.512 . S
O509 C498 1.248 . S
O510 Pr480 2.438 . S
O510 C499 1.267 . S
O511 Pr481 2.437 . S
O511 C499 1.278 . S
H512 C484 0.929 . S
H513 C485 0.929 . S
H514 C487 0.931 . S
H515 C488 0.930 . S
H516 C493 0.929 . S
H517 C494 0.929 . S
H518 C496 0.931 . S
H519 C497 0.930 . S
Pr520 C522 2.880 . S
Pr520 O540 2.562 . S
Pr520 O541 2.490 . S
Pr520 O542 2.695 . S
Pr520 O543 2.512 . S
Pr520 O545 2.437 . S
Pr520 O548 2.436 . S
Pr520 O550 2.438 . S
Pr521 C531 2.880 . S
Pr521 O542 2.436 . S
Pr521 O544 2.438 . S
Pr521 O546 2.562 1_565 S
Pr521 O547 2.490 . S
Pr521 O548 2.695 . S
Pr521 O549 2.512 . S
Pr521 O551 2.437 . S
C522 Pr520 2.880 . S
C522 C523 1.491 . S
C522 O540 1.254 . S
C522 O541 1.225 . S
C523 C522 1.491 . S
C523 C524 1.392 . S
C523 C528 1.356 . S
C524 C523 1.392 . S
C524 C525 1.368 . S
C524 H552 0.929 . S
C525 C524 1.368 . S
C525 C526 1.386 . S
C525 H553 0.929 . S
C526 C525 1.386 . S
C526 C527 1.373 . S
C527 C526 1.373 . S
C527 C528 1.409 . S
C527 H554 0.931 . S
C528 C523 1.356 . S
C528 C527 1.409 . S
C528 H555 0.930 . S
C529 O542 1.270 . S
C529 O543 1.248 . S
C530 O544 1.267 . S
C530 O545 1.278 . S
C531 Pr521 2.880 . S
C531 C532 1.491 1_665 S
C531 O546 1.254 1_565 S
C531 O547 1.225 . S
C532 C531 1.491 1_445 S
C532 C533 1.392 1_545 S
C532 C537 1.356 1_455 S
C533 C532 1.392 1_565 S
C533 C534 1.368 1_565 S
C533 H556 0.929 . S
C534 C533 1.368 1_545 S
C534 C535 1.386 . S
C534 H557 0.929 . S
C535 C534 1.386 . S
C535 C536 1.373 . S
C536 C535 1.373 . S
C536 C537 1.409 1_455 S
C536 H558 0.931 . S
C537 C532 1.356 1_655 S
C537 C536 1.409 1_655 S
C537 H559 0.930 . S
C538 O548 1.270 . S
C538 O549 1.248 . S
C539 O550 1.267 . S
C539 O551 1.278 . S
O540 Pr520 2.562 . S
O540 C522 1.254 . S
O541 Pr520 2.490 . S
O541 C522 1.225 . S
O542 Pr520 2.695 . S
O542 Pr521 2.436 . S
O542 C529 1.270 . S
O543 Pr520 2.512 . S
O543 C529 1.248 . S
O544 Pr521 2.438 . S
O544 C530 1.267 . S
O545 Pr520 2.437 . S
O545 C530 1.278 . S
O546 Pr521 2.562 1_545 S
O546 C531 1.254 1_545 S
O547 Pr521 2.490 . S
O547 C531 1.225 . S
O548 Pr520 2.436 . S
O548 Pr521 2.695 . S
O548 C538 1.270 . S
O549 Pr521 2.512 . S
O549 C538 1.248 . S
O550 Pr520 2.438 . S
O550 C539 1.267 . S
O551 Pr521 2.437 . S
O551 C539 1.278 . S
H552 C524 0.929 . S
H553 C525 0.929 . S
H554 C527 0.931 . S
H555 C528 0.930 . S
H556 C533 0.929 . S
H557 C534 0.929 . S
H558 C536 0.931 . S
H559 C537 0.930 . S
Pr560 C562 2.880 . S
Pr560 O580 2.562 . S
Pr560 O581 2.490 . S
Pr560 O582 2.695 . S
Pr560 O583 2.512 . S
Pr560 O585 2.437 . S
Pr560 O588 2.436 . S
Pr560 O590 2.438 . S
Pr561 C571 2.880 . S
Pr561 O582 2.436 . S
Pr561 O584 2.438 . S
Pr561 O586 2.562 . S
Pr561 O587 2.490 . S
Pr561 O588 2.695 . S
Pr561 O589 2.512 . S
Pr561 O591 2.437 . S
C562 Pr560 2.880 . S
C562 C563 1.491 . S
C562 O580 1.254 . S
C562 O581 1.225 . S
C563 C562 1.491 . S
C563 C564 1.392 . S
C563 C568 1.356 . S
C564 C563 1.392 . S
C564 C565 1.368 . S
C564 H592 0.929 . S
C565 C564 1.368 . S
C565 C566 1.386 . S
C565 H593 0.929 . S
C566 C565 1.386 . S
C566 C567 1.373 . S
C567 C566 1.373 . S
C567 C568 1.409 . S
C567 H594 0.931 . S
C568 C563 1.356 . S
C568 C567 1.409 . S
C568 H595 0.930 . S
C569 O582 1.270 . S
C569 O583 1.248 . S
C570 O584 1.267 . S
C570 O585 1.278 . S
C571 Pr561 2.880 . S
C571 C572 1.491 . S
C571 O586 1.254 . S
C571 O587 1.225 . S
C572 C571 1.491 . S
C572 C573 1.392 . S
C572 C577 1.356 . S
C573 C572 1.392 . S
C573 C574 1.368 . S
C573 H596 0.929 . S
C574 C573 1.368 . S
C574 C575 1.386 . S
C574 H597 0.929 . S
C575 C574 1.386 . S
C575 C576 1.373 . S
C576 C575 1.373 . S
C576 C577 1.409 . S
C576 H598 0.931 . S
C577 C572 1.356 . S
C577 C576 1.409 . S
C577 H599 0.930 . S
C578 O588 1.270 . S
C578 O589 1.248 . S
C579 O590 1.267 . S
C579 O591 1.278 . S
O580 Pr560 2.562 . S
O580 C562 1.254 . S
O581 Pr560 2.490 . S
O581 C562 1.225 . S
O582 Pr560 2.695 . S
O582 Pr561 2.436 . S
O582 C569 1.270 . S
O583 Pr560 2.512 . S
O583 C569 1.248 . S
O584 Pr561 2.438 . S
O584 C570 1.267 . S
O585 Pr560 2.437 . S
O585 C570 1.278 . S
O586 Pr561 2.562 . S
O586 C571 1.254 . S
O587 Pr561 2.490 . S
O587 C571 1.225 . S
O588 Pr560 2.436 . S
O588 Pr561 2.695 . S
O588 C578 1.270 . S
O589 Pr561 2.512 . S
O589 C578 1.248 . S
O590 Pr560 2.438 . S
O590 C579 1.267 . S
O591 Pr561 2.437 . S
O591 C579 1.278 . S
H592 C564 0.929 . S
H593 C565 0.929 . S
H594 C567 0.931 . S
H595 C568 0.930 . S
H596 C573 0.929 . S
H597 C574 0.929 . S
H598 C576 0.931 . S
H599 C577 0.930 . S
Pr600 C602 2.880 . S
Pr600 O620 2.562 . S
Pr600 O621 2.490 . S
Pr600 O622 2.695 . S
Pr600 O623 2.512 . S
Pr600 O625 2.437 . S
Pr600 O628 2.436 . S
Pr600 O630 2.438 . S
Pr601 C611 2.880 . S
Pr601 O622 2.436 . S
Pr601 O624 2.438 . S
Pr601 O626 2.562 1_545 S
Pr601 O627 2.490 . S
Pr601 O628 2.695 . S
Pr601 O629 2.512 . S
Pr601 O631 2.437 . S
C602 Pr600 2.880 . S
C602 C603 1.491 . S
C602 O620 1.254 . S
C602 O621 1.225 . S
C603 C602 1.491 . S
C603 C604 1.392 . S
C603 C608 1.356 . S
C604 C603 1.392 . S
C604 C605 1.368 . S
C604 H632 0.929 . S
C605 C604 1.368 . S
C605 C606 1.386 . S
C605 H633 0.929 . S
C606 C605 1.386 . S
C606 C607 1.373 . S
C607 C606 1.373 . S
C607 C608 1.409 . S
C607 H634 0.931 . S
C608 C603 1.356 . S
C608 C607 1.409 . S
C608 H635 0.930 . S
C609 O622 1.270 . S
C609 O623 1.248 . S
C610 O624 1.267 . S
C610 O625 1.278 . S
C611 Pr601 2.880 . S
C611 C612 1.491 1_545 S
C611 O626 1.254 1_545 S
C611 O627 1.225 . S
C612 C611 1.491 1_565 S
C612 C613 1.392 1_565 S
C612 C617 1.356 . S
C613 C612 1.392 1_545 S
C613 C614 1.368 1_545 S
C613 H636 0.929 . S
C614 C613 1.368 1_565 S
C614 C615 1.386 . S
C614 H637 0.929 . S
C615 C614 1.386 . S
C615 C616 1.373 . S
C616 C615 1.373 . S
C616 C617 1.409 . S
C616 H638 0.931 . S
C617 C612 1.356 . S
C617 C616 1.409 . S
C617 H639 0.930 . S
C618 O628 1.270 . S
C618 O629 1.248 . S
C619 O630 1.267 . S
C619 O631 1.278 . S
O620 Pr600 2.562 . S
O620 C602 1.254 . S
O621 Pr600 2.490 . S
O621 C602 1.225 . S
O622 Pr600 2.695 . S
O622 Pr601 2.436 . S
O622 C609 1.270 . S
O623 Pr600 2.512 . S
O623 C609 1.248 . S
O624 Pr601 2.438 . S
O624 C610 1.267 . S
O625 Pr600 2.437 . S
O625 C610 1.278 . S
O626 Pr601 2.562 1_565 S
O626 C611 1.254 1_565 S
O627 Pr601 2.490 . S
O627 C611 1.225 . S
O628 Pr600 2.436 . S
O628 Pr601 2.695 . S
O628 C618 1.270 . S
O629 Pr601 2.512 . S
O629 C618 1.248 . S
O630 Pr600 2.438 . S
O630 C619 1.267 . S
O631 Pr601 2.437 . S
O631 C619 1.278 . S
H632 C604 0.929 . S
H633 C605 0.929 . S
H634 C607 0.931 . S
H635 C608 0.930 . S
H636 C613 0.929 . S
H637 C614 0.929 . S
H638 C616 0.931 . S
H639 C617 0.930 . S
H640 C648 0.950 . S
H641 C653 0.950 . S
H642 C650 0.950 . S
H643 C652 0.950 . S
H644 C654 0.950 . S
H645 C656 0.950 . S
H646 C658 0.950 . S
H647 C659 0.950 . S
C648 H640 0.950 . S
C648 C649 1.386 . S
C648 C650 1.391 . S
C649 C648 1.386 . S
C649 C653 1.393 . S
C650 H642 0.950 . S
C650 C648 1.391 . S
C650 C651 1.400 . S
C651 C650 1.400 . S
C651 C652 1.398 . S
C651 C657 1.491 . S
C652 H643 0.950 . S
C652 C651 1.398 . S
C652 C653 1.391 . S
C653 H641 0.950 . S
C653 C649 1.393 . S
C653 C652 1.391 . S
C654 H644 0.950 . S
C654 C655 1.386 . S
C654 C656 1.391 . S
C655 C654 1.386 . S
C655 C659 1.393 . S
C656 H645 0.950 . S
C656 C654 1.391 . S
C656 C657 1.400 . S
C657 C651 1.491 . S
C657 C656 1.400 . S
C657 C658 1.398 . S
C658 H646 0.950 . S
C658 C657 1.398 . S
C658 C659 1.391 . S
C659 H647 0.950 . S
C659 C655 1.393 . S
C659 C658 1.391 . S
H660 C668 0.950 . S
H661 C673 0.950 . S
H662 C670 0.950 . S
H663 C672 0.950 . S
H664 C674 0.950 . S
H665 C676 0.950 . S
H666 C678 0.950 . S
H667 C679 0.950 . S
C668 H660 0.950 . S
C668 C669 1.386 . S
C668 C670 1.391 . S
C669 C668 1.386 . S
C669 C673 1.393 . S
C670 H662 0.950 . S
C670 C668 1.391 . S
C670 C671 1.400 . S
C671 C670 1.400 . S
C671 C672 1.398 . S
C671 C677 1.491 . S
C672 H663 0.950 . S
C672 C671 1.398 . S
C672 C673 1.391 . S
C673 H661 0.950 . S
C673 C669 1.393 . S
C673 C672 1.391 . S
C674 H664 0.950 . S
C674 C675 1.386 . S
C674 C676 1.391 . S
C675 C674 1.386 . S
C675 C679 1.393 . S
C676 H665 0.950 . S
C676 C674 1.391 . S
C676 C677 1.400 . S
C677 C671 1.491 . S
C677 C676 1.400 . S
C677 C678 1.398 . S
C678 H666 0.950 . S
C678 C677 1.398 . S
C678 C679 1.391 . S
C679 H667 0.950 . S
C679 C675 1.393 . S
C679 C678 1.391 . S
H680 C688 0.950 . S
H681 C693 0.950 . S
H682 C690 0.950 . S
H683 C692 0.950 . S
H684 C694 0.950 . S
H685 C696 0.950 . S
H686 C698 0.950 . S
H687 C699 0.950 . S
C688 H680 0.950 . S
C688 C689 1.386 . S
C688 C690 1.391 . S
C689 C688 1.386 . S
C689 C693 1.393 . S
C690 H682 0.950 . S
C690 C688 1.391 . S
C690 C691 1.400 . S
C691 C690 1.400 . S
C691 C692 1.398 . S
C691 C697 1.491 1_455 S
C692 H683 0.950 . S
C692 C691 1.398 . S
C692 C693 1.391 . S
C693 H681 0.950 . S
C693 C689 1.393 . S
C693 C692 1.391 . S
C694 H684 0.950 . S
C694 C695 1.386 . S
C694 C696 1.391 . S
C695 C694 1.386 . S
C695 C699 1.393 . S
C696 H685 0.950 . S
C696 C694 1.391 . S
C696 C697 1.400 . S
C697 C691 1.491 1_655 S
C697 C696 1.400 . S
C697 C698 1.398 . S
C698 H686 0.950 . S
C698 C697 1.398 . S
C698 C699 1.391 . S
C699 H687 0.950 . S
C699 C695 1.393 . S
C699 C698 1.391 . S
H700 C708 0.950 1_655 S
H701 C713 0.950 . S
H702 C710 0.950 . S
H703 C712 0.950 . S
H704 C714 0.950 1_455 S
H705 C716 0.950 . S
H706 C718 0.950 . S
H707 C719 0.950 . S
C708 H700 0.950 1_455 S
C708 C709 1.386 . S
C708 C710 1.391 1_455 S
C709 C708 1.386 . S
C709 C713 1.393 . S
C710 H702 0.950 . S
C710 C708 1.391 1_655 S
C710 C711 1.400 1_655 S
C711 C710 1.400 1_455 S
C711 C712 1.398 . S
C711 C717 1.491 1_455 S
C712 H703 0.950 . S
C712 C711 1.398 . S
C712 C713 1.391 . S
C713 H701 0.950 . S
C713 C709 1.393 . S
C713 C712 1.391 . S
C714 H704 0.950 1_655 S
C714 C715 1.386 . S
C714 C716 1.391 1_655 S
C715 C714 1.386 . S
C715 C719 1.393 . S
C716 H705 0.950 . S
C716 C714 1.391 1_455 S
C716 C717 1.400 1_455 S
C717 C711 1.491 1_655 S
C717 C716 1.400 1_655 S
C717 C718 1.398 . S
C718 H706 0.950 . S
C718 C717 1.398 . S
C718 C719 1.391 . S
C719 H707 0.950 . S
C719 C715 1.393 . S
C719 C718 1.391 . S
H720 C728 0.950 . S
H721 C733 0.950 . S
H722 C730 0.950 . S
H723 C732 0.950 . S
H724 C734 0.950 . S
H725 C736 0.950 . S
H726 C738 0.950 . S
H727 C739 0.950 . S
C728 H720 0.950 . S
C728 C729 1.386 . S
C728 C730 1.391 . S
C729 C728 1.386 . S
C729 C733 1.393 . S
C730 H722 0.950 . S
C730 C728 1.391 . S
C730 C731 1.400 . S
C731 C730 1.400 . S
C731 C732 1.398 . S
C731 C737 1.491 . S
C732 H723 0.950 . S
C732 C731 1.398 . S
C732 C733 1.391 . S
C733 H721 0.950 . S
C733 C729 1.393 . S
C733 C732 1.391 . S
C734 H724 0.950 . S
C734 C735 1.386 . S
C734 C736 1.391 . S
C735 C734 1.386 . S
C735 C739 1.393 . S
C736 H725 0.950 . S
C736 C734 1.391 . S
C736 C737 1.400 . S
C737 C731 1.491 . S
C737 C736 1.400 . S
C737 C738 1.398 . S
C738 H726 0.950 . S
C738 C737 1.398 . S
C738 C739 1.391 . S
C739 H727 0.950 . S
C739 C735 1.393 . S
C739 C738 1.391 . S
H740 C748 0.950 . S
H741 C753 0.950 . S
H742 C750 0.950 . S
H743 C752 0.950 . S
H744 C754 0.950 . S
H745 C756 0.950 . S
H746 C758 0.950 . S
H747 C759 0.950 . S
C748 H740 0.950 . S
C748 C749 1.386 . S
C748 C750 1.391 . S
C749 C748 1.386 . S
C749 C753 1.393 . S
C750 H742 0.950 . S
C750 C748 1.391 . S
C750 C751 1.400 . S
C751 C750 1.400 . S
C751 C752 1.398 . S
C751 C757 1.491 . S
C752 H743 0.950 . S
C752 C751 1.398 . S
C752 C753 1.391 . S
C753 H741 0.950 . S
C753 C749 1.393 . S
C753 C752 1.391 . S
C754 H744 0.950 . S
C754 C755 1.386 . S
C754 C756 1.391 . S
C755 C754 1.386 . S
C755 C759 1.393 . S
C756 H745 0.950 . S
C756 C754 1.391 . S
C756 C757 1.400 . S
C757 C751 1.491 . S
C757 C756 1.400 . S
C757 C758 1.398 . S
C758 H746 0.950 . S
C758 C757 1.398 . S
C758 C759 1.391 . S
C759 H747 0.950 . S
C759 C755 1.393 . S
C759 C758 1.391 . S
H760 C768 0.950 . S
H761 C773 0.950 . S
H762 C770 0.950 . S
H763 C772 0.950 . S
H764 C774 0.950 . S
H765 C776 0.950 . S
H766 C778 0.950 . S
H767 C779 0.950 . S
C768 H760 0.950 . S
C768 C769 1.386 . S
C768 C770 1.391 . S
C769 C768 1.386 . S
C769 C773 1.393 . S
C770 H762 0.950 . S
C770 C768 1.391 . S
C770 C771 1.400 . S
C771 C770 1.400 . S
C771 C772 1.398 . S
C771 C777 1.491 1_455 S
C772 H763 0.950 . S
C772 C771 1.398 . S
C772 C773 1.391 . S
C773 H761 0.950 . S
C773 C769 1.393 . S
C773 C772 1.391 . S
C774 H764 0.950 . S
C774 C775 1.386 . S
C774 C776 1.391 . S
C775 C774 1.386 . S
C775 C779 1.393 . S
C776 H765 0.950 . S
C776 C774 1.391 . S
C776 C777 1.400 . S
C777 C771 1.491 1_655 S
C777 C776 1.400 . S
C777 C778 1.398 . S
C778 H766 0.950 . S
C778 C777 1.398 . S
C778 C779 1.391 . S
C779 H767 0.950 . S
C779 C775 1.393 . S
C779 C778 1.391 . S
H780 C788 0.950 . S
H781 C793 0.950 . S
H782 C790 0.950 1_655 S
H783 C792 0.950 . S
H784 C794 0.950 . S
H785 C796 0.950 1_455 S
H786 C798 0.950 . S
H787 C799 0.950 . S
C788 H780 0.950 . S
C788 C789 1.386 . S
C788 C790 1.391 . S
C789 C788 1.386 . S
C789 C793 1.393 . S
C790 H782 0.950 1_455 S
C790 C788 1.391 . S
C790 C791 1.400 . S
C791 C790 1.400 . S
C791 C792 1.398 . S
C791 C797 1.491 1_455 S
C792 H783 0.950 . S
C792 C791 1.398 . S
C792 C793 1.391 . S
C793 H781 0.950 . S
C793 C789 1.393 . S
C793 C792 1.391 . S
C794 H784 0.950 . S
C794 C795 1.386 . S
C794 C796 1.391 . S
C795 C794 1.386 . S
C795 C799 1.393 . S
C796 H785 0.950 1_655 S
C796 C794 1.391 . S
C796 C797 1.400 . S
C797 C791 1.491 1_655 S
C797 C796 1.400 . S
C797 C798 1.398 . S
C798 H786 0.950 . S
C798 C797 1.398 . S
C798 C799 1.391 . S
C799 H787 0.950 . S
C799 C795 1.393 . S
C799 C798 1.391 . S
H800 C808 0.950 . S
H801 C813 0.950 . S
H802 C810 0.950 . S
H803 C812 0.950 . S
H804 C814 0.950 . S
H805 C816 0.950 . S
H806 C818 0.950 . S
H807 C819 0.950 . S
C808 H800 0.950 . S
C808 C809 1.386 . S
C808 C810 1.391 . S
C809 C808 1.386 . S
C809 C813 1.393 1_564 S
C810 H802 0.950 . S
C810 C808 1.391 . S
C810 C811 1.400 . S
C811 C810 1.400 . S
C811 C812 1.398 1_564 S
C811 C817 1.491 1_564 S
C812 H803 0.950 . S
C812 C811 1.398 1_546 S
C812 C813 1.391 . S
C813 H801 0.950 . S
C813 C809 1.393 1_546 S
C813 C812 1.391 . S
C814 H804 0.950 . S
C814 C815 1.386 . S
C814 C816 1.391 . S
C815 C814 1.386 . S
C815 C819 1.393 1_546 S
C816 H805 0.950 . S
C816 C814 1.391 . S
C816 C817 1.400 . S
C817 C811 1.491 1_546 S
C817 C816 1.400 . S
C817 C818 1.398 1_546 S
C818 H806 0.950 . S
C818 C817 1.398 1_564 S
C818 C819 1.391 . S
C819 H807 0.950 . S
C819 C815 1.393 1_564 S
C819 C818 1.391 . S
H820 C828 0.950 . S
H821 C833 0.950 . S
H822 C830 0.950 . S
H823 C832 0.950 . S
H824 C834 0.950 . S
H825 C836 0.950 . S
H826 C838 0.950 . S
H827 C839 0.950 . S
C828 H820 0.950 . S
C828 C829 1.386 . S
C828 C830 1.391 . S
C829 C828 1.386 . S
C829 C833 1.393 . S
C830 H822 0.950 . S
C830 C828 1.391 . S
C830 C831 1.400 . S
C831 C830 1.400 . S
C831 C832 1.398 . S
C831 C837 1.491 . S
C832 H823 0.950 . S
C832 C831 1.398 . S
C832 C833 1.391 . S
C833 H821 0.950 . S
C833 C829 1.393 . S
C833 C832 1.391 . S
C834 H824 0.950 . S
C834 C835 1.386 . S
C834 C836 1.391 . S
C835 C834 1.386 . S
C835 C839 1.393 . S
C836 H825 0.950 . S
C836 C834 1.391 . S
C836 C837 1.400 . S
C837 C831 1.491 . S
C837 C836 1.400 . S
C837 C838 1.398 . S
C838 H826 0.950 . S
C838 C837 1.398 . S
C838 C839 1.391 . S
C839 H827 0.950 . S
C839 C835 1.393 . S
C839 C838 1.391 . S
H840 C848 0.950 . S
H841 C853 0.950 . S
H842 C850 0.950 . S
H843 C852 0.950 . S
H844 C854 0.950 . S
H845 C856 0.950 . S
H846 C858 0.950 . S
H847 C859 0.950 . S
C848 H840 0.950 . S
C848 C849 1.386 1_565 S
C848 C850 1.391 . S
C849 C848 1.386 1_545 S
C849 C853 1.393 . S
C850 H842 0.950 . S
C850 C848 1.391 . S
C850 C851 1.400 1_565 S
C851 C850 1.400 1_545 S
C851 C852 1.398 . S
C851 C857 1.491 1_445 S
C852 H843 0.950 . S
C852 C851 1.398 . S
C852 C853 1.391 . S
C853 H841 0.950 . S
C853 C849 1.393 . S
C853 C852 1.391 . S
C854 H844 0.950 . S
C854 C855 1.386 1_545 S
C854 C856 1.391 . S
C855 C854 1.386 1_565 S
C855 C859 1.393 . S
C856 H845 0.950 . S
C856 C854 1.391 . S
C856 C857 1.400 1_545 S
C857 C851 1.491 1_665 S
C857 C856 1.400 1_565 S
C857 C858 1.398 . S
C858 H846 0.950 . S
C858 C857 1.398 . S
C858 C859 1.391 . S
C859 H847 0.950 . S
C859 C855 1.393 . S
C859 C858 1.391 . S
H860 C868 0.950 . S
H861 C873 0.950 . S
H862 C870 0.950 . S
H863 C872 0.950 . S
H864 C874 0.950 . S
H865 C876 0.950 . S
H866 C878 0.950 . S
H867 C879 0.950 . S
C868 H860 0.950 . S
C868 C869 1.386 . S
C868 C870 1.391 . S
C869 C868 1.386 . S
C869 C873 1.393 . S
C870 H862 0.950 . S
C870 C868 1.391 . S
C870 C871 1.400 . S
C871 C870 1.400 . S
C871 C872 1.398 . S
C871 C877 1.491 . S
C872 H863 0.950 . S
C872 C871 1.398 . S
C872 C873 1.391 . S
C873 H861 0.950 . S
C873 C869 1.393 . S
C873 C872 1.391 . S
C874 H864 0.950 . S
C874 C875 1.386 . S
C874 C876 1.391 . S
C875 C874 1.386 . S
C875 C879 1.393 . S
C876 H865 0.950 . S
C876 C874 1.391 . S
C876 C877 1.400 . S
C877 C871 1.491 . S
C877 C876 1.400 . S
C877 C878 1.398 . S
C878 H866 0.950 . S
C878 C877 1.398 . S
C878 C879 1.391 . S
C879 H867 0.950 . S
C879 C875 1.393 . S
C879 C878 1.391 . S
H880 C888 0.950 . S
H881 C893 0.950 . S
H882 C890 0.950 . S
H883 C892 0.950 . S
H884 C894 0.950 . S
H885 C896 0.950 . S
H886 C898 0.950 . S
H887 C899 0.950 . S
C888 H880 0.950 . S
C888 C889 1.386 . S
C888 C890 1.391 . S
C889 C888 1.386 . S
C889 C893 1.393 . S
C890 H882 0.950 . S
C890 C888 1.391 . S
C890 C891 1.400 . S
C891 C890 1.400 . S
C891 C892 1.398 . S
C891 C897 1.491 . S
C892 H883 0.950 . S
C892 C891 1.398 . S
C892 C893 1.391 . S
C893 H881 0.950 . S
C893 C889 1.393 . S
C893 C892 1.391 . S
C894 H884 0.950 . S
C894 C895 1.386 . S
C894 C896 1.391 . S
C895 C894 1.386 . S
C895 C899 1.393 . S
C896 H885 0.950 . S
C896 C894 1.391 . S
C896 C897 1.400 . S
C897 C891 1.491 . S
C897 C896 1.400 . S
C897 C898 1.398 . S
C898 H886 0.950 . S
C898 C897 1.398 . S
C898 C899 1.391 . S
C899 H887 0.950 . S
C899 C895 1.393 . S
C899 C898 1.391 . S
H900 C908 0.950 . S
H901 C913 0.950 . S
H902 C910 0.950 . S
H903 C912 0.950 . S
H904 C914 0.950 . S
H905 C916 0.950 . S
H906 C918 0.950 . S
H907 C919 0.950 . S
C908 H900 0.950 . S
C908 C909 1.386 . S
C908 C910 1.391 . S
C909 C908 1.386 . S
C909 C913 1.393 . S
C910 H902 0.950 . S
C910 C908 1.391 . S
C910 C911 1.400 . S
C911 C910 1.400 . S
C911 C912 1.398 . S
C911 C917 1.491 . S
C912 H903 0.950 . S
C912 C911 1.398 . S
C912 C913 1.391 . S
C913 H901 0.950 . S
C913 C909 1.393 . S
C913 C912 1.391 . S
C914 H904 0.950 . S
C914 C915 1.386 . S
C914 C916 1.391 . S
C915 C914 1.386 . S
C915 C919 1.393 . S
C916 H905 0.950 . S
C916 C914 1.391 . S
C916 C917 1.400 . S
C917 C911 1.491 . S
C917 C916 1.400 . S
C917 C918 1.398 . S
C918 H906 0.950 . S
C918 C917 1.398 . S
C918 C919 1.391 . S
C919 H907 0.950 . S
C919 C915 1.393 . S
C919 C918 1.391 . S
H920 C928 0.950 . S
H921 C933 0.950 . S
H922 C930 0.950 . S
H923 C932 0.950 . S
H924 C934 0.950 . S
H925 C936 0.950 . S
H926 C938 0.950 . S
H927 C939 0.950 . S
C928 H920 0.950 . S
C928 C929 1.386 . S
C928 C930 1.391 . S
C929 C928 1.386 . S
C929 C933 1.393 . S
C930 H922 0.950 . S
C930 C928 1.391 . S
C930 C931 1.400 . S
C931 C930 1.400 . S
C931 C932 1.398 . S
C931 C937 1.491 1_455 S
C932 H923 0.950 . S
C932 C931 1.398 . S
C932 C933 1.391 . S
C933 H921 0.950 . S
C933 C929 1.393 . S
C933 C932 1.391 . S
C934 H924 0.950 . S
C934 C935 1.386 . S
C934 C936 1.391 . S
C935 C934 1.386 . S
C935 C939 1.393 . S
C936 H925 0.950 . S
C936 C934 1.391 . S
C936 C937 1.400 . S
C937 C931 1.491 1_655 S
C937 C936 1.400 . S
C937 C938 1.398 . S
C938 H926 0.950 . S
C938 C937 1.398 . S
C938 C939 1.391 . S
C939 H927 0.950 . S
C939 C935 1.393 . S
C939 C938 1.391 . S
H940 C948 0.950 . S
H941 C953 0.950 . S
H942 C950 0.950 . S
H943 C952 0.950 . S
H944 C954 0.950 . S
H945 C956 0.950 . S
H946 C958 0.950 . S
H947 C959 0.950 . S
C948 H940 0.950 . S
C948 C949 1.386 . S
C948 C950 1.391 . S
C949 C948 1.386 . S
C949 C953 1.393 1_554 S
C950 H942 0.950 . S
C950 C948 1.391 . S
C950 C951 1.400 . S
C951 C950 1.400 . S
C951 C952 1.398 1_554 S
C951 C957 1.491 1_554 S
C952 H943 0.950 . S
C952 C951 1.398 1_556 S
C952 C953 1.391 . S
C953 H941 0.950 . S
C953 C949 1.393 1_556 S
C953 C952 1.391 . S
C954 H944 0.950 . S
C954 C955 1.386 . S
C954 C956 1.391 . S
C955 C954 1.386 . S
C955 C959 1.393 1_556 S
C956 H945 0.950 . S
C956 C954 1.391 . S
C956 C957 1.400 . S
C957 C951 1.491 1_556 S
C957 C956 1.400 . S
C957 C958 1.398 1_556 S
C958 H946 0.950 . S
C958 C957 1.398 1_554 S
C958 C959 1.391 . S
C959 H947 0.950 . S
C959 C955 1.393 1_554 S
C959 C958 1.391 . S
H960 C968 0.950 . S
H961 C973 0.950 . S
H962 C970 0.950 . S
H963 C972 0.950 . S
H964 C974 0.950 . S
H965 C976 0.950 . S
H966 C978 0.950 . S
H967 C979 0.950 . S
C968 H960 0.950 . S
C968 C969 1.386 . S
C968 C970 1.391 . S
C969 C968 1.386 . S
C969 C973 1.393 . S
C970 H962 0.950 . S
C970 C968 1.391 . S
C970 C971 1.400 . S
C971 C970 1.400 . S
C971 C972 1.398 . S
C971 C977 1.491 . S
C972 H963 0.950 . S
C972 C971 1.398 . S
C972 C973 1.391 . S
C973 H961 0.950 . S
C973 C969 1.393 . S
C973 C972 1.391 . S
C974 H964 0.950 . S
C974 C975 1.386 . S
C974 C976 1.391 . S
C975 C974 1.386 . S
C975 C979 1.393 . S
C976 H965 0.950 . S
C976 C974 1.391 . S
C976 C977 1.400 . S
C977 C971 1.491 . S
C977 C976 1.400 . S
C977 C978 1.398 . S
C978 H966 0.950 . S
C978 C977 1.398 . S
C978 C979 1.391 . S
C979 H967 0.950 . S
C979 C975 1.393 . S
C979 C978 1.391 . S
H980 C988 0.950 . S
H981 C993 0.950 . S
H982 C990 0.950 . S
H983 C992 0.950 . S
H984 C994 0.950 . S
H985 C996 0.950 . S
H986 C998 0.950 . S
H987 C999 0.950 . S
C988 H980 0.950 . S
C988 C989 1.386 . S
C988 C990 1.391 . S
C989 C988 1.386 . S
C989 C993 1.393 . S
C990 H982 0.950 . S
C990 C988 1.391 . S
C990 C991 1.400 . S
C991 C990 1.400 . S
C991 C992 1.398 . S
C991 C997 1.491 . S
C992 H983 0.950 . S
C992 C991 1.398 . S
C992 C993 1.391 . S
C993 H981 0.950 . S
C993 C989 1.393 . S
C993 C992 1.391 . S
C994 H984 0.950 . S
C994 C995 1.386 . S
C994 C996 1.391 . S
C995 C994 1.386 . S
C995 C999 1.393 . S
C996 H985 0.950 . S
C996 C994 1.391 . S
C996 C997 1.400 . S
C997 C991 1.491 . S
C997 C996 1.400 . S
C997 C998 1.398 . S
C998 H986 0.950 . S
C998 C997 1.398 . S
C998 C999 1.391 . S
C999 H987 0.950 . S
C999 C995 1.393 . S
C999 C998 1.391 . S
H1000 C1008 0.950 . S
H1001 C1013 0.950 . S
H1002 C1010 0.950 . S
H1003 C1012 0.950 . S
H1004 C1014 0.950 . S
H1005 C1016 0.950 . S
H1006 C1018 0.950 . S
H1007 C1019 0.950 . S
C1008 H1000 0.950 . S
C1008 C1009 1.386 . S
C1008 C1010 1.391 . S
C1009 C1008 1.386 . S
C1009 C1013 1.393 . S
C1010 H1002 0.950 . S
C1010 C1008 1.391 . S
C1010 C1011 1.400 . S
C1011 C1010 1.400 . S
C1011 C1012 1.398 . S
C1011 C1017 1.491 . S
C1012 H1003 0.950 . S
C1012 C1011 1.398 . S
C1012 C1013 1.391 . S
C1013 H1001 0.950 . S
C1013 C1009 1.393 . S
C1013 C1012 1.391 . S
C1014 H1004 0.950 . S
C1014 C1015 1.386 . S
C1014 C1016 1.391 . S
C1015 C1014 1.386 . S
C1015 C1019 1.393 . S
C1016 H1005 0.950 . S
C1016 C1014 1.391 . S
C1016 C1017 1.400 . S
C1017 C1011 1.491 . S
C1017 C1016 1.400 . S
C1017 C1018 1.398 . S
C1018 H1006 0.950 . S
C1018 C1017 1.398 . S
C1018 C1019 1.391 . S
C1019 H1007 0.950 . S
C1019 C1015 1.393 . S
C1019 C1018 1.391 . S
H1020 C1028 0.950 . S
H1021 C1033 0.950 . S
H1022 C1030 0.950 . S
H1023 C1032 0.950 . S
H1024 C1034 0.950 . S
H1025 C1036 0.950 . S
H1026 C1038 0.950 . S
H1027 C1039 0.950 . S
C1028 H1020 0.950 . S
C1028 C1029 1.386 . S
C1028 C1030 1.391 . S
C1029 C1028 1.386 . S
C1029 C1033 1.393 . S
C1030 H1022 0.950 . S
C1030 C1028 1.391 . S
C1030 C1031 1.400 . S
C1031 C1030 1.400 . S
C1031 C1032 1.398 . S
C1031 C1037 1.491 . S
C1032 H1023 0.950 . S
C1032 C1031 1.398 . S
C1032 C1033 1.391 . S
C1033 H1021 0.950 . S
C1033 C1029 1.393 . S
C1033 C1032 1.391 . S
C1034 H1024 0.950 . S
C1034 C1035 1.386 . S
C1034 C1036 1.391 . S
C1035 C1034 1.386 . S
C1035 C1039 1.393 . S
C1036 H1025 0.950 . S
C1036 C1034 1.391 . S
C1036 C1037 1.400 . S
C1037 C1031 1.491 . S
C1037 C1036 1.400 . S
C1037 C1038 1.398 . S
C1038 H1026 0.950 . S
C1038 C1037 1.398 . S
C1038 C1039 1.391 . S
C1039 H1027 0.950 . S
C1039 C1035 1.393 . S
C1039 C1038 1.391 . S
H1040 C1048 0.950 . S
H1041 C1053 0.950 . S
H1042 C1050 0.950 . S
H1043 C1052 0.950 . S
H1044 C1054 0.950 . S
H1045 C1056 0.950 . S
H1046 C1058 0.950 . S
H1047 C1059 0.950 . S
C1048 H1040 0.950 . S
C1048 C1049 1.386 . S
C1048 C1050 1.391 . S
C1049 C1048 1.386 . S
C1049 C1053 1.393 . S
C1050 H1042 0.950 . S
C1050 C1048 1.391 . S
C1050 C1051 1.400 . S
C1051 C1050 1.400 . S
C1051 C1052 1.398 . S
C1051 C1057 1.491 . S
C1052 H1043 0.950 . S
C1052 C1051 1.398 . S
C1052 C1053 1.391 . S
C1053 H1041 0.950 . S
C1053 C1049 1.393 . S
C1053 C1052 1.391 . S
C1054 H1044 0.950 . S
C1054 C1055 1.386 . S
C1054 C1056 1.391 . S
C1055 C1054 1.386 . S
C1055 C1059 1.393 . S
C1056 H1045 0.950 . S
C1056 C1054 1.391 . S
C1056 C1057 1.400 . S
C1057 C1051 1.491 . S
C1057 C1056 1.400 . S
C1057 C1058 1.398 . S
C1058 H1046 0.950 . S
C1058 C1057 1.398 . S
C1058 C1059 1.391 . S
C1059 H1047 0.950 . S
C1059 C1055 1.393 . S
C1059 C1058 1.391 . S
H1060 C1068 0.950 . S
H1061 C1073 0.950 . S
H1062 C1070 0.950 . S
H1063 C1072 0.950 . S
H1064 C1074 0.950 . S
H1065 C1076 0.950 . S
H1066 C1078 0.950 . S
H1067 C1079 0.950 . S
C1068 H1060 0.950 . S
C1068 C1069 1.386 . S
C1068 C1070 1.391 . S
C1069 C1068 1.386 . S
C1069 C1073 1.393 . S
C1070 H1062 0.950 . S
C1070 C1068 1.391 . S
C1070 C1071 1.400 . S
C1071 C1070 1.400 . S
C1071 C1072 1.398 . S
C1071 C1077 1.491 . S
C1072 H1063 0.950 . S
C1072 C1071 1.398 . S
C1072 C1073 1.391 . S
C1073 H1061 0.950 . S
C1073 C1069 1.393 . S
C1073 C1072 1.391 . S
C1074 H1064 0.950 . S
C1074 C1075 1.386 . S
C1074 C1076 1.391 . S
C1075 C1074 1.386 . S
C1075 C1079 1.393 . S
C1076 H1065 0.950 . S
C1076 C1074 1.391 . S
C1076 C1077 1.400 . S
C1077 C1071 1.491 . S
C1077 C1076 1.400 . S
C1077 C1078 1.398 . S
C1078 H1066 0.950 . S
C1078 C1077 1.398 . S
C1078 C1079 1.391 . S
C1079 H1067 0.950 . S
C1079 C1075 1.393 . S
C1079 C1078 1.391 . S
H1080 C1088 0.950 . S
H1081 C1093 0.950 . S
H1082 C1090 0.950 . S
H1083 C1092 0.950 . S
H1084 C1094 0.950 . S
H1085 C1096 0.950 . S
H1086 C1098 0.950 . S
H1087 C1099 0.950 . S
C1088 H1080 0.950 . S
C1088 C1089 1.386 . S
C1088 C1090 1.391 . S
C1089 C1088 1.386 . S
C1089 C1093 1.393 . S
C1090 H1082 0.950 . S
C1090 C1088 1.391 . S
C1090 C1091 1.400 . S
C1091 C1090 1.400 . S
C1091 C1092 1.398 . S
C1091 C1097 1.491 . S
C1092 H1083 0.950 . S
C1092 C1091 1.398 . S
C1092 C1093 1.391 . S
C1093 H1081 0.950 . S
C1093 C1089 1.393 . S
C1093 C1092 1.391 . S
C1094 H1084 0.950 . S
C1094 C1095 1.386 . S
C1094 C1096 1.391 . S
C1095 C1094 1.386 . S
C1095 C1099 1.393 . S
C1096 H1085 0.950 . S
C1096 C1094 1.391 . S
C1096 C1097 1.400 . S
C1097 C1091 1.491 . S
C1097 C1096 1.400 . S
C1097 C1098 1.398 . S
C1098 H1086 0.950 . S
C1098 C1097 1.398 . S
C1098 C1099 1.391 . S
C1099 H1087 0.950 . S
C1099 C1095 1.393 . S
C1099 C1098 1.391 . S
H1100 C1108 0.950 . S
H1101 C1113 0.950 . S
H1102 C1110 0.950 . S
H1103 C1112 0.950 . S
H1104 C1114 0.950 . S
H1105 C1116 0.950 . S
H1106 C1118 0.950 . S
H1107 C1119 0.950 . S
C1108 H1100 0.950 . S
C1108 C1109 1.386 . S
C1108 C1110 1.391 . S
C1109 C1108 1.386 . S
C1109 C1113 1.393 . S
C1110 H1102 0.950 . S
C1110 C1108 1.391 . S
C1110 C1111 1.400 . S
C1111 C1110 1.400 . S
C1111 C1112 1.398 . S
C1111 C1117 1.491 . S
C1112 H1103 0.950 . S
C1112 C1111 1.398 . S
C1112 C1113 1.391 . S
C1113 H1101 0.950 . S
C1113 C1109 1.393 . S
C1113 C1112 1.391 . S
C1114 H1104 0.950 . S
C1114 C1115 1.386 . S
C1114 C1116 1.391 . S
C1115 C1114 1.386 . S
C1115 C1119 1.393 . S
C1116 H1105 0.950 . S
C1116 C1114 1.391 . S
C1116 C1117 1.400 . S
C1117 C1111 1.491 . S
C1117 C1116 1.400 . S
C1117 C1118 1.398 . S
C1118 H1106 0.950 . S
C1118 C1117 1.398 . S
C1118 C1119 1.391 . S
C1119 H1107 0.950 . S
C1119 C1115 1.393 . S
C1119 C1118 1.391 . S
H1120 C1128 0.950 . S
H1121 C1133 0.950 . S
H1122 C1130 0.950 . S
H1123 C1132 0.950 . S
H1124 C1134 0.950 . S
H1125 C1136 0.950 . S
H1126 C1138 0.950 . S
H1127 C1139 0.950 . S
C1128 H1120 0.950 . S
C1128 C1129 1.386 . S
C1128 C1130 1.391 . S
C1129 C1128 1.386 . S
C1129 C1133 1.393 . S
C1130 H1122 0.950 . S
C1130 C1128 1.391 . S
C1130 C1131 1.400 . S
C1131 C1130 1.400 . S
C1131 C1132 1.398 . S
C1131 C1137 1.491 . S
C1132 H1123 0.950 . S
C1132 C1131 1.398 . S
C1132 C1133 1.391 . S
C1133 H1121 0.950 . S
C1133 C1129 1.393 . S
C1133 C1132 1.391 . S
C1134 H1124 0.950 . S
C1134 C1135 1.386 . S
C1134 C1136 1.391 . S
C1135 C1134 1.386 . S
C1135 C1139 1.393 . S
C1136 H1125 0.950 . S
C1136 C1134 1.391 . S
C1136 C1137 1.400 . S
C1137 C1131 1.491 . S
C1137 C1136 1.400 . S
C1137 C1138 1.398 . S
C1138 H1126 0.950 . S
C1138 C1137 1.398 . S
C1138 C1139 1.391 . S
C1139 H1127 0.950 . S
C1139 C1135 1.393 . S
C1139 C1138 1.391 . S
H1140 C1148 0.950 . S
H1141 C1153 0.950 . S
H1142 C1150 0.950 . S
H1143 C1152 0.950 . S
H1144 C1154 0.950 . S
H1145 C1156 0.950 . S
H1146 C1158 0.950 . S
H1147 C1159 0.950 . S
C1148 H1140 0.950 . S
C1148 C1149 1.386 . S
C1148 C1150 1.391 . S
C1149 C1148 1.386 . S
C1149 C1153 1.393 . S
C1150 H1142 0.950 . S
C1150 C1148 1.391 . S
C1150 C1151 1.400 . S
C1151 C1150 1.400 . S
C1151 C1152 1.398 . S
C1151 C1157 1.491 . S
C1152 H1143 0.950 . S
C1152 C1151 1.398 . S
C1152 C1153 1.391 . S
C1153 H1141 0.950 . S
C1153 C1149 1.393 . S
C1153 C1152 1.391 . S
C1154 H1144 0.950 . S
C1154 C1155 1.386 . S
C1154 C1156 1.391 . S
C1155 C1154 1.386 . S
C1155 C1159 1.393 . S
C1156 H1145 0.950 . S
C1156 C1154 1.391 . S
C1156 C1157 1.400 . S
C1157 C1151 1.491 . S
C1157 C1156 1.400 . S
C1157 C1158 1.398 . S
C1158 H1146 0.950 . S
C1158 C1157 1.398 . S
C1158 C1159 1.391 . S
C1159 H1147 0.950 . S
C1159 C1155 1.393 . S
C1159 C1158 1.391 . S
H1160 C1168 0.950 . S
H1161 C1173 0.950 . S
H1162 C1170 0.950 . S
H1163 C1172 0.950 . S
H1164 C1174 0.950 . S
H1165 C1176 0.950 . S
H1166 C1178 0.950 . S
H1167 C1179 0.950 . S
C1168 H1160 0.950 . S
C1168 C1169 1.386 . S
C1168 C1170 1.391 . S
C1169 C1168 1.386 . S
C1169 C1173 1.393 . S
C1170 H1162 0.950 . S
C1170 C1168 1.391 . S
C1170 C1171 1.400 . S
C1171 C1170 1.400 . S
C1171 C1172 1.398 . S
C1171 C1177 1.491 . S
C1172 H1163 0.950 . S
C1172 C1171 1.398 . S
C1172 C1173 1.391 . S
C1173 H1161 0.950 . S
C1173 C1169 1.393 . S
C1173 C1172 1.391 . S
C1174 H1164 0.950 . S
C1174 C1175 1.386 . S
C1174 C1176 1.391 . S
C1175 C1174 1.386 . S
C1175 C1179 1.393 . S
C1176 H1165 0.950 . S
C1176 C1174 1.391 . S
C1176 C1177 1.400 . S
C1177 C1171 1.491 . S
C1177 C1176 1.400 . S
C1177 C1178 1.398 . S
C1178 H1166 0.950 . S
C1178 C1177 1.398 . S
C1178 C1179 1.391 . S
C1179 H1167 0.950 . S
C1179 C1175 1.393 . S
C1179 C1178 1.391 . S
H1180 C1188 0.950 . S
H1181 C1193 0.950 . S
H1182 C1190 0.950 . S
H1183 C1192 0.950 . S
H1184 C1194 0.950 1_565 S
H1185 C1196 0.950 . S
H1186 C1198 0.950 . S
H1187 C1199 0.950 . S
C1188 H1180 0.950 . S
C1188 C1189 1.386 . S
C1188 C1190 1.391 . S
C1189 C1188 1.386 . S
C1189 C1193 1.393 . S
C1190 H1182 0.950 . S
C1190 C1188 1.391 . S
C1190 C1191 1.400 . S
C1191 C1190 1.400 . S
C1191 C1192 1.398 . S
C1191 C1197 1.491 . S
C1192 H1183 0.950 . S
C1192 C1191 1.398 . S
C1192 C1193 1.391 . S
C1193 H1181 0.950 . S
C1193 C1189 1.393 . S
C1193 C1192 1.391 . S
C1194 H1184 0.950 1_545 S
C1194 C1195 1.386 . S
C1194 C1196 1.391 . S
C1195 C1194 1.386 . S
C1195 C1199 1.393 . S
C1196 H1185 0.950 . S
C1196 C1194 1.391 . S
C1196 C1197 1.400 . S
C1197 C1191 1.491 . S
C1197 C1196 1.400 . S
C1197 C1198 1.398 . S
C1198 H1186 0.950 . S
C1198 C1197 1.398 . S
C1198 C1199 1.391 . S
C1199 H1187 0.950 . S
C1199 C1195 1.393 . S
C1199 C1198 1.391 . S
H1200 C1208 0.950 . S
H1201 C1213 0.950 . S
H1202 C1210 0.950 . S
H1203 C1212 0.950 . S
H1204 C1214 0.950 . S
H1205 C1216 0.950 . S
H1206 C1218 0.950 . S
H1207 C1219 0.950 . S
C1208 H1200 0.950 . S
C1208 C1209 1.386 . S
C1208 C1210 1.391 . S
C1209 C1208 1.386 . S
C1209 C1213 1.393 . S
C1210 H1202 0.950 . S
C1210 C1208 1.391 . S
C1210 C1211 1.400 . S
C1211 C1210 1.400 . S
C1211 C1212 1.398 . S
C1211 C1217 1.491 . S
C1212 H1203 0.950 . S
C1212 C1211 1.398 . S
C1212 C1213 1.391 . S
C1213 H1201 0.950 . S
C1213 C1209 1.393 . S
C1213 C1212 1.391 . S
C1214 H1204 0.950 . S
C1214 C1215 1.386 . S
C1214 C1216 1.391 . S
C1215 C1214 1.386 . S
C1215 C1219 1.393 . S
C1216 H1205 0.950 . S
C1216 C1214 1.391 . S
C1216 C1217 1.400 . S
C1217 C1211 1.491 . S
C1217 C1216 1.400 . S
C1217 C1218 1.398 . S
C1218 H1206 0.950 . S
C1218 C1217 1.398 . S
C1218 C1219 1.391 . S
C1219 H1207 0.950 . S
C1219 C1215 1.393 . S
C1219 C1218 1.391 . S
H1220 C1228 0.950 . S
H1221 C1233 0.950 . S
H1222 C1230 0.950 . S
H1223 C1232 0.950 . S
H1224 C1234 0.950 . S
H1225 C1236 0.950 . S
H1226 C1238 0.950 . S
H1227 C1239 0.950 . S
C1228 H1220 0.950 . S
C1228 C1229 1.386 . S
C1228 C1230 1.391 . S
C1229 C1228 1.386 . S
C1229 C1233 1.393 . S
C1230 H1222 0.950 . S
C1230 C1228 1.391 . S
C1230 C1231 1.400 . S
C1231 C1230 1.400 . S
C1231 C1232 1.398 . S
C1231 C1237 1.491 . S
C1232 H1223 0.950 . S
C1232 C1231 1.398 . S
C1232 C1233 1.391 . S
C1233 H1221 0.950 . S
C1233 C1229 1.393 . S
C1233 C1232 1.391 . S
C1234 H1224 0.950 . S
C1234 C1235 1.386 . S
C1234 C1236 1.391 . S
C1235 C1234 1.386 . S
C1235 C1239 1.393 . S
C1236 H1225 0.950 . S
C1236 C1234 1.391 . S
C1236 C1237 1.400 . S
C1237 C1231 1.491 . S
C1237 C1236 1.400 . S
C1237 C1238 1.398 . S
C1238 H1226 0.950 . S
C1238 C1237 1.398 . S
C1238 C1239 1.391 . S
C1239 H1227 0.950 . S
C1239 C1235 1.393 . S
C1239 C1238 1.391 . S
H1240 C1248 0.950 . S
H1241 C1253 0.950 . S
H1242 C1250 0.950 . S
H1243 C1252 0.950 . S
H1244 C1254 0.950 . S
H1245 C1256 0.950 . S
H1246 C1258 0.950 . S
H1247 C1259 0.950 . S
C1248 H1240 0.950 . S
C1248 C1249 1.386 . S
C1248 C1250 1.391 . S
C1249 C1248 1.386 . S
C1249 C1253 1.393 . S
C1250 H1242 0.950 . S
C1250 C1248 1.391 . S
C1250 C1251 1.400 . S
C1251 C1250 1.400 . S
C1251 C1252 1.398 . S
C1251 C1257 1.491 . S
C1252 H1243 0.950 . S
C1252 C1251 1.398 . S
C1252 C1253 1.391 . S
C1253 H1241 0.950 . S
C1253 C1249 1.393 . S
C1253 C1252 1.391 . S
C1254 H1244 0.950 . S
C1254 C1255 1.386 . S
C1254 C1256 1.391 . S
C1255 C1254 1.386 . S
C1255 C1259 1.393 . S
C1256 H1245 0.950 . S
C1256 C1254 1.391 . S
C1256 C1257 1.400 . S
C1257 C1251 1.491 . S
C1257 C1256 1.400 . S
C1257 C1258 1.398 . S
C1258 H1246 0.950 . S
C1258 C1257 1.398 . S
C1258 C1259 1.391 . S
C1259 H1247 0.950 . S
C1259 C1255 1.393 . S
C1259 C1258 1.391 . S
H1260 C1268 0.950 . S
H1261 C1273 0.950 1_545 S
H1262 C1270 0.950 . S
H1263 C1272 0.950 . S
H1264 C1274 0.950 . S
H1265 C1276 0.950 . S
H1266 C1278 0.950 . S
H1267 C1279 0.950 . S
C1268 H1260 0.950 . S
C1268 C1269 1.386 . S
C1268 C1270 1.391 . S
C1269 C1268 1.386 . S
C1269 C1273 1.393 . S
C1270 H1262 0.950 . S
C1270 C1268 1.391 . S
C1270 C1271 1.400 . S
C1271 C1270 1.400 . S
C1271 C1272 1.398 . S
C1271 C1277 1.491 . S
C1272 H1263 0.950 . S
C1272 C1271 1.398 . S
C1272 C1273 1.391 . S
C1273 H1261 0.950 1_565 S
C1273 C1269 1.393 . S
C1273 C1272 1.391 . S
C1274 H1264 0.950 . S
C1274 C1275 1.386 . S
C1274 C1276 1.391 . S
C1275 C1274 1.386 . S
C1275 C1279 1.393 . S
C1276 H1265 0.950 . S
C1276 C1274 1.391 . S
C1276 C1277 1.400 . S
C1277 C1271 1.491 . S
C1277 C1276 1.400 . S
C1277 C1278 1.398 . S
C1278 H1266 0.950 . S
C1278 C1277 1.398 . S
C1278 C1279 1.391 . S
C1279 H1267 0.950 . S
C1279 C1275 1.393 . S
C1279 C1278 1.391 . S
H1280 C1288 0.956 . S
H1281 C1293 0.938 1_554 S
H1282 C1290 0.950 . S
H1283 C1292 0.950 . S
H1284 C1294 0.950 . S
H1285 C1296 0.950 . S
H1286 C1298 0.950 . S
H1287 C1299 0.950 . S
C1288 H1280 0.956 . S
C1288 C1289 1.392 . S
C1288 C1290 1.379 1_554 S
C1289 C1288 1.392 . S
C1289 C1293 1.379 1_554 S
C1290 H1282 0.950 . S
C1290 C1288 1.379 1_556 S
C1290 C1291 1.400 . S
C1291 C1290 1.400 . S
C1291 C1292 1.398 . S
C1291 C1297 1.491 . S
C1292 H1283 0.950 . S
C1292 C1291 1.398 . S
C1292 C1293 1.417 . S
C1293 H1281 0.938 1_556 S
C1293 C1289 1.379 1_556 S
C1293 C1292 1.417 . S
C1294 H1284 0.950 . S
C1294 C1295 1.386 . S
C1294 C1296 1.391 . S
C1295 C1294 1.386 . S
C1295 C1299 1.393 . S
C1296 H1285 0.950 . S
C1296 C1294 1.391 . S
C1296 C1297 1.400 . S
C1297 C1291 1.491 . S
C1297 C1296 1.400 . S
C1297 C1298 1.398 . S
C1298 H1286 0.950 . S
C1298 C1297 1.398 . S
C1298 C1299 1.391 . S
C1299 H1287 0.950 . S
C1299 C1295 1.393 . S
C1299 C1298 1.391 . S
H1300 C1308 0.950 . S
H1301 C1313 0.950 . S
H1302 C1310 0.950 . S
H1303 C1312 0.950 . S
H1304 C1314 0.950 . S
H1305 C1316 0.950 . S
H1306 C1318 0.950 . S
H1307 C1319 0.950 . S
C1308 H1300 0.950 . S
C1308 C1309 1.386 . S
C1308 C1310 1.391 . S
C1309 C1308 1.386 . S
C1309 C1313 1.393 . S
C1310 H1302 0.950 . S
C1310 C1308 1.391 . S
C1310 C1311 1.400 . S
C1311 C1310 1.400 . S
C1311 C1312 1.398 . S
C1311 C1317 1.491 . S
C1312 H1303 0.950 . S
C1312 C1311 1.398 . S
C1312 C1313 1.391 . S
C1313 H1301 0.950 . S
C1313 C1309 1.393 . S
C1313 C1312 1.391 . S
C1314 H1304 0.950 . S
C1314 C1315 1.386 . S
C1314 C1316 1.391 . S
C1315 C1314 1.386 . S
C1315 C1319 1.393 . S
C1316 H1305 0.950 . S
C1316 C1314 1.391 . S
C1316 C1317 1.400 . S
C1317 C1311 1.491 . S
C1317 C1316 1.400 . S
C1317 C1318 1.398 . S
C1318 H1306 0.950 . S
C1318 C1317 1.398 . S
C1318 C1319 1.391 . S
C1319 H1307 0.950 . S
C1319 C1315 1.393 . S
C1319 C1318 1.391 . S
H1320 C1328 0.950 . S
H1321 C1333 0.950 . S
H1322 C1330 0.950 . S
H1323 C1332 0.950 . S
H1324 C1334 0.950 . S
H1325 C1336 0.950 . S
H1326 C1338 0.950 . S
H1327 C1339 0.950 . S
C1328 H1320 0.950 . S
C1328 C1329 1.386 . S
C1328 C1330 1.391 . S
C1329 C1328 1.386 . S
C1329 C1333 1.393 . S
C1330 H1322 0.950 . S
C1330 C1328 1.391 . S
C1330 C1331 1.400 . S
C1331 C1330 1.400 . S
C1331 C1332 1.398 . S
C1331 C1337 1.491 . S
C1332 H1323 0.950 . S
C1332 C1331 1.398 . S
C1332 C1333 1.391 . S
C1333 H1321 0.950 . S
C1333 C1329 1.393 . S
C1333 C1332 1.391 . S
C1334 H1324 0.950 . S
C1334 C1335 1.386 . S
C1334 C1336 1.391 . S
C1335 C1334 1.386 . S
C1335 C1339 1.393 . S
C1336 H1325 0.950 . S
C1336 C1334 1.391 . S
C1336 C1337 1.400 . S
C1337 C1331 1.491 . S
C1337 C1336 1.400 . S
C1337 C1338 1.398 . S
C1338 H1326 0.950 . S
C1338 C1337 1.398 . S
C1338 C1339 1.391 . S
C1339 H1327 0.950 . S
C1339 C1335 1.393 . S
C1339 C1338 1.391 . S
H1340 C1348 0.950 . S
H1341 C1353 0.950 . S
H1342 C1350 0.950 . S
H1343 C1352 0.950 . S
H1344 C1354 0.950 . S
H1345 C1356 0.950 . S
H1346 C1358 0.950 . S
H1347 C1359 0.950 . S
C1348 H1340 0.950 . S
C1348 C1349 1.386 . S
C1348 C1350 1.391 . S
C1349 C1348 1.386 . S
C1349 C1353 1.393 . S
C1350 H1342 0.950 . S
C1350 C1348 1.391 . S
C1350 C1351 1.400 . S
C1351 C1350 1.400 . S
C1351 C1352 1.398 . S
C1351 C1357 1.491 . S
C1352 H1343 0.950 . S
C1352 C1351 1.398 . S
C1352 C1353 1.391 . S
C1353 H1341 0.950 . S
C1353 C1349 1.393 . S
C1353 C1352 1.391 . S
C1354 H1344 0.950 . S
C1354 C1355 1.386 . S
C1354 C1356 1.391 . S
C1355 C1354 1.386 . S
C1355 C1359 1.393 . S
C1356 H1345 0.950 . S
C1356 C1354 1.391 . S
C1356 C1357 1.400 . S
C1357 C1351 1.491 . S
C1357 C1356 1.400 . S
C1357 C1358 1.398 . S
C1358 H1346 0.950 . S
C1358 C1357 1.398 . S
C1358 C1359 1.391 . S
C1359 H1347 0.950 . S
C1359 C1355 1.393 . S
C1359 C1358 1.391 . S
H1360 C1368 0.950 . S
H1361 C1373 0.950 . S
H1362 C1370 0.950 . S
H1363 C1372 0.950 . S
H1364 C1374 0.950 . S
H1365 C1376 0.950 . S
H1366 C1378 0.950 . S
H1367 C1379 0.950 . S
C1368 H1360 0.950 . S
C1368 C1369 1.386 . S
C1368 C1370 1.391 . S
C1369 C1368 1.386 . S
C1369 C1373 1.393 . S
C1370 H1362 0.950 . S
C1370 C1368 1.391 . S
C1370 C1371 1.400 . S
C1371 C1370 1.400 . S
C1371 C1372 1.398 . S
C1371 C1377 1.491 . S
C1372 H1363 0.950 . S
C1372 C1371 1.398 . S
C1372 C1373 1.391 . S
C1373 H1361 0.950 . S
C1373 C1369 1.393 . S
C1373 C1372 1.391 . S
C1374 H1364 0.950 . S
C1374 C1375 1.386 . S
C1374 C1376 1.391 1_556 S
C1375 C1374 1.386 . S
C1375 C1379 1.393 1_556 S
C1376 H1365 0.950 . S
C1376 C1374 1.391 1_554 S
C1376 C1377 1.400 . S
C1377 C1371 1.491 . S
C1377 C1376 1.400 . S
C1377 C1378 1.398 . S
C1378 H1366 0.950 . S
C1378 C1377 1.398 . S
C1378 C1379 1.391 . S
C1379 H1367 0.950 . S
C1379 C1375 1.393 1_554 S
C1379 C1378 1.391 . S
H1380 C1388 0.950 . S
H1381 C1393 0.950 . S
H1382 C1390 0.950 . S
H1383 C1392 0.950 . S
H1384 C1394 0.950 . S
H1385 C1396 0.950 . S
H1386 C1398 0.950 . S
H1387 C1399 0.950 . S
C1388 H1380 0.950 . S
C1388 C1389 1.386 . S
C1388 C1390 1.391 . S
C1389 C1388 1.386 . S
C1389 C1393 1.393 . S
C1390 H1382 0.950 . S
C1390 C1388 1.391 . S
C1390 C1391 1.400 . S
C1391 C1390 1.400 . S
C1391 C1392 1.398 . S
C1391 C1397 1.491 . S
C1392 H1383 0.950 . S
C1392 C1391 1.398 . S
C1392 C1393 1.391 . S
C1393 H1381 0.950 . S
C1393 C1389 1.393 . S
C1393 C1392 1.391 . S
C1394 H1384 0.950 . S
C1394 C1395 1.386 . S
C1394 C1396 1.391 . S
C1395 C1394 1.386 . S
C1395 C1399 1.393 . S
C1396 H1385 0.950 . S
C1396 C1394 1.391 . S
C1396 C1397 1.400 . S
C1397 C1391 1.491 . S
C1397 C1396 1.400 . S
C1397 C1398 1.398 . S
C1398 H1386 0.950 . S
C1398 C1397 1.398 . S
C1398 C1399 1.391 . S
C1399 H1387 0.950 . S
C1399 C1395 1.393 . S
C1399 C1398 1.391 . S
H1400 C1408 0.950 . S
H1401 C1413 0.950 . S
H1402 C1410 0.950 . S
H1403 C1412 0.950 . S
H1404 C1414 0.950 . S
H1405 C1416 0.950 . S
H1406 C1418 0.950 . S
H1407 C1419 0.950 . S
C1408 H1400 0.950 . S
C1408 C1409 1.386 . S
C1408 C1410 1.391 . S
C1409 C1408 1.386 . S
C1409 C1413 1.393 . S
C1410 H1402 0.950 . S
C1410 C1408 1.391 . S
C1410 C1411 1.400 . S
C1411 C1410 1.400 . S
C1411 C1412 1.398 . S
C1411 C1417 1.491 . S
C1412 H1403 0.950 . S
C1412 C1411 1.398 . S
C1412 C1413 1.391 . S
C1413 H1401 0.950 . S
C1413 C1409 1.393 . S
C1413 C1412 1.391 . S
C1414 H1404 0.950 . S
C1414 C1415 1.386 . S
C1414 C1416 1.391 . S
C1415 C1414 1.386 . S
C1415 C1419 1.393 . S
C1416 H1405 0.950 . S
C1416 C1414 1.391 . S
C1416 C1417 1.400 . S
C1417 C1411 1.491 . S
C1417 C1416 1.400 . S
C1417 C1418 1.398 . S
C1418 H1406 0.950 . S
C1418 C1417 1.398 . S
C1418 C1419 1.391 . S
C1419 H1407 0.950 . S
C1419 C1415 1.393 . S
C1419 C1418 1.391 . S
H1420 C1428 0.950 . S
H1421 C1433 0.950 . S
H1422 C1430 0.950 . S
H1423 C1432 0.950 . S
H1424 C1434 0.950 . S
H1425 C1436 0.950 . S
H1426 C1438 0.950 . S
H1427 C1439 0.950 . S
C1428 H1420 0.950 . S
C1428 C1429 1.386 . S
C1428 C1430 1.391 . S
C1429 C1428 1.386 . S
C1429 C1433 1.393 . S
C1430 H1422 0.950 . S
C1430 C1428 1.391 . S
C1430 C1431 1.400 . S
C1431 C1430 1.400 . S
C1431 C1432 1.398 . S
C1431 C1437 1.491 . S
C1432 H1423 0.950 . S
C1432 C1431 1.398 . S
C1432 C1433 1.391 . S
C1433 H1421 0.950 . S
C1433 C1429 1.393 . S
C1433 C1432 1.391 . S
C1434 H1424 0.950 . S
C1434 C1435 1.386 . S
C1434 C1436 1.391 . S
C1435 C1434 1.386 . S
C1435 C1439 1.393 . S
C1436 H1425 0.950 . S
C1436 C1434 1.391 . S
C1436 C1437 1.400 . S
C1437 C1431 1.491 . S
C1437 C1436 1.400 . S
C1437 C1438 1.398 . S
C1438 H1426 0.950 . S
C1438 C1437 1.398 . S
C1438 C1439 1.391 . S
C1439 H1427 0.950 . S
C1439 C1435 1.393 . S
C1439 C1438 1.391 . S
H1440 C1448 0.950 . S
H1441 C1453 0.950 . S
H1442 C1450 0.950 . S
H1443 C1452 0.950 . S
H1444 C1454 0.950 . S
H1445 C1456 0.950 . S
H1446 C1458 0.950 . S
H1447 C1459 0.950 . S
C1448 H1440 0.950 . S
C1448 C1449 1.386 . S
C1448 C1450 1.391 . S
C1449 C1448 1.386 . S
C1449 C1453 1.393 . S
C1450 H1442 0.950 . S
C1450 C1448 1.391 . S
C1450 C1451 1.400 . S
C1451 C1450 1.400 . S
C1451 C1452 1.398 . S
C1451 C1457 1.491 . S
C1452 H1443 0.950 . S
C1452 C1451 1.398 . S
C1452 C1453 1.391 . S
C1453 H1441 0.950 . S
C1453 C1449 1.393 . S
C1453 C1452 1.391 . S
C1454 H1444 0.950 . S
C1454 C1455 1.386 . S
C1454 C1456 1.391 . S
C1455 C1454 1.386 . S
C1455 C1459 1.393 . S
C1456 H1445 0.950 . S
C1456 C1454 1.391 . S
C1456 C1457 1.400 . S
C1457 C1451 1.491 . S
C1457 C1456 1.400 . S
C1457 C1458 1.398 . S
C1458 H1446 0.950 . S
C1458 C1457 1.398 . S
C1458 C1459 1.391 . S
C1459 H1447 0.950 . S
C1459 C1455 1.393 . S
C1459 C1458 1.391 . S
H1460 C1468 0.950 . S
H1461 C1473 0.950 . S
H1462 C1470 0.950 . S
H1463 C1472 0.950 . S
H1464 C1474 0.950 . S
H1465 C1476 0.950 . S
H1466 C1478 0.950 1_545 S
H1467 C1479 0.950 . S
C1468 H1460 0.950 . S
C1468 C1469 1.386 . S
C1468 C1470 1.391 . S
C1469 C1468 1.386 . S
C1469 C1473 1.393 . S
C1470 H1462 0.950 . S
C1470 C1468 1.391 . S
C1470 C1471 1.400 . S
C1471 C1470 1.400 . S
C1471 C1472 1.398 . S
C1471 C1477 1.491 . S
C1472 H1463 0.950 . S
C1472 C1471 1.398 . S
C1472 C1473 1.391 . S
C1473 H1461 0.950 . S
C1473 C1469 1.393 . S
C1473 C1472 1.391 . S
C1474 H1464 0.950 . S
C1474 C1475 1.386 1_565 S
C1474 C1476 1.391 . S
C1475 C1474 1.386 1_545 S
C1475 C1479 1.393 . S
C1476 H1465 0.950 . S
C1476 C1474 1.391 . S
C1476 C1477 1.400 . S
C1477 C1471 1.491 . S
C1477 C1476 1.400 . S
C1477 C1478 1.398 . S
C1478 H1466 0.950 1_565 S
C1478 C1477 1.398 . S
C1478 C1479 1.391 1_565 S
C1479 H1467 0.950 . S
C1479 C1475 1.393 . S
C1479 C1478 1.391 1_545 S
H1480 C1488 0.950 . S
H1481 C1493 0.950 . S
H1482 C1490 0.950 . S
H1483 C1492 0.950 . S
H1484 C1494 0.950 . S
H1485 C1496 0.950 . S
H1486 C1498 0.950 . S
H1487 C1499 0.950 . S
C1488 H1480 0.950 . S
C1488 C1489 1.386 . S
C1488 C1490 1.391 . S
C1489 C1488 1.386 . S
C1489 C1493 1.393 . S
C1490 H1482 0.950 . S
C1490 C1488 1.391 . S
C1490 C1491 1.400 . S
C1491 C1490 1.400 . S
C1491 C1492 1.398 . S
C1491 C1497 1.491 . S
C1492 H1483 0.950 . S
C1492 C1491 1.398 . S
C1492 C1493 1.391 . S
C1493 H1481 0.950 . S
C1493 C1489 1.393 . S
C1493 C1492 1.391 . S
C1494 H1484 0.950 . S
C1494 C1495 1.386 . S
C1494 C1496 1.391 1_554 S
C1495 C1494 1.386 . S
C1495 C1499 1.393 1_554 S
C1496 H1485 0.950 . S
C1496 C1494 1.391 1_556 S
C1496 C1497 1.400 . S
C1497 C1491 1.491 . S
C1497 C1496 1.400 . S
C1497 C1498 1.398 . S
C1498 H1486 0.950 . S
C1498 C1497 1.398 . S
C1498 C1499 1.391 . S
C1499 H1487 0.950 . S
C1499 C1495 1.393 1_556 S
C1499 C1498 1.391 . S
H1500 C1508 0.950 . S
H1501 C1513 0.950 . S
H1502 C1510 0.950 . S
H1503 C1512 0.943 1_565 S
H1504 C1514 0.950 . S
H1505 C1516 0.950 . S
H1506 C1518 0.950 . S
H1507 C1519 0.950 . S
C1508 H1500 0.950 . S
C1508 C1509 1.372 1_545 S
C1508 C1510 1.391 . S
C1509 C1508 1.372 1_565 S
C1509 C1513 1.398 . S
C1510 H1502 0.950 . S
C1510 C1508 1.391 . S
C1510 C1511 1.400 . S
C1511 C1510 1.400 . S
C1511 C1512 1.398 . S
C1511 C1517 1.491 . S
C1512 H1503 0.943 1_545 S
C1512 C1511 1.398 . S
C1512 C1513 1.391 1_545 S
C1513 H1501 0.950 . S
C1513 C1509 1.398 . S
C1513 C1512 1.391 1_565 S
C1514 H1504 0.950 . S
C1514 C1515 1.386 . S
C1514 C1516 1.391 . S
C1515 C1514 1.386 . S
C1515 C1519 1.393 . S
C1516 H1505 0.950 . S
C1516 C1514 1.391 . S
C1516 C1517 1.400 . S
C1517 C1511 1.491 . S
C1517 C1516 1.400 . S
C1517 C1518 1.398 . S
C1518 H1506 0.950 . S
C1518 C1517 1.398 . S
C1518 C1519 1.391 . S
C1519 H1507 0.950 . S
C1519 C1515 1.393 . S
C1519 C1518 1.391 . S
H1520 C1528 0.950 . S
H1521 C1533 0.950 . S
H1522 C1530 0.950 . S
H1523 C1532 0.950 . S
H1524 C1534 0.950 . S
H1525 C1536 0.950 . S
H1526 C1538 0.950 . S
H1527 C1539 0.950 . S
C1528 H1520 0.950 . S
C1528 C1529 1.386 . S
C1528 C1530 1.391 . S
C1529 C1528 1.386 . S
C1529 C1533 1.393 . S
C1530 H1522 0.950 . S
C1530 C1528 1.391 . S
C1530 C1531 1.400 . S
C1531 C1530 1.400 . S
C1531 C1532 1.398 . S
C1531 C1537 1.491 . S
C1532 H1523 0.950 . S
C1532 C1531 1.398 . S
C1532 C1533 1.391 . S
C1533 H1521 0.950 . S
C1533 C1529 1.393 . S
C1533 C1532 1.391 . S
C1534 H1524 0.950 . S
C1534 C1535 1.386 . S
C1534 C1536 1.391 . S
C1535 C1534 1.386 . S
C1535 C1539 1.393 . S
C1536 H1525 0.950 . S
C1536 C1534 1.391 . S
C1536 C1537 1.400 . S
C1537 C1531 1.491 . S
C1537 C1536 1.400 . S
C1537 C1538 1.398 . S
C1538 H1526 0.950 . S
C1538 C1537 1.398 . S
C1538 C1539 1.391 . S
C1539 H1527 0.950 . S
C1539 C1535 1.393 . S
C1539 C1538 1.391 . S
H1540 C1548 0.950 . S
H1541 C1553 0.950 . S
H1542 C1550 0.950 . S
H1543 C1552 0.950 . S
H1544 C1554 0.950 1_565 S
H1545 C1556 0.950 . S
H1546 C1558 0.950 . S
H1547 C1559 0.950 . S
C1548 H1540 0.950 . S
C1548 C1549 1.386 . S
C1548 C1550 1.391 . S
C1549 C1548 1.386 . S
C1549 C1553 1.393 . S
C1550 H1542 0.950 . S
C1550 C1548 1.391 . S
C1550 C1551 1.400 . S
C1551 C1550 1.400 . S
C1551 C1552 1.398 . S
C1551 C1557 1.491 . S
C1552 H1543 0.950 . S
C1552 C1551 1.398 . S
C1552 C1553 1.391 . S
C1553 H1541 0.950 . S
C1553 C1549 1.393 . S
C1553 C1552 1.391 . S
C1554 H1544 0.950 1_545 S
C1554 C1555 1.386 . S
C1554 C1556 1.391 . S
C1555 C1554 1.386 . S
C1555 C1559 1.394 . S
C1556 H1545 0.950 . S
C1556 C1554 1.391 . S
C1556 C1557 1.400 . S
C1557 C1551 1.491 . S
C1557 C1556 1.400 . S
C1557 C1558 1.398 . S
C1558 H1546 0.950 . S
C1558 C1557 1.398 . S
C1558 C1559 1.391 . S
C1559 H1547 0.950 . S
C1559 C1555 1.394 . S
C1559 C1558 1.391 . S
H1560 C1568 0.950 . S
H1561 C1573 0.950 . S
H1562 C1570 0.950 . S
H1563 C1572 0.950 . S
H1564 C1574 0.950 . S
H1565 C1576 0.950 . S
H1566 C1578 0.950 . S
H1567 C1579 0.950 . S
C1568 H1560 0.950 . S
C1568 C1569 1.386 . S
C1568 C1570 1.391 . S
C1569 C1568 1.386 . S
C1569 C1573 1.393 . S
C1570 H1562 0.950 . S
C1570 C1568 1.391 . S
C1570 C1571 1.400 . S
C1571 C1570 1.400 . S
C1571 C1572 1.398 . S
C1571 C1577 1.491 . S
C1572 H1563 0.950 . S
C1572 C1571 1.398 . S
C1572 C1573 1.391 . S
C1573 H1561 0.950 . S
C1573 C1569 1.393 . S
C1573 C1572 1.391 . S
C1574 H1564 0.950 . S
C1574 C1575 1.386 . S
C1574 C1576 1.391 1_556 S
C1575 C1574 1.386 . S
C1575 C1579 1.393 1_556 S
C1576 H1565 0.950 . S
C1576 C1574 1.391 1_554 S
C1576 C1577 1.400 . S
C1577 C1571 1.491 . S
C1577 C1576 1.400 . S
C1577 C1578 1.398 . S
C1578 H1566 0.950 . S
C1578 C1577 1.398 . S
C1578 C1579 1.391 . S
C1579 H1567 0.950 . S
C1579 C1575 1.393 1_554 S
C1579 C1578 1.391 . S
H1580 C1588 0.950 . S
H1581 C1593 0.950 . S
H1582 C1590 0.950 . S
H1583 C1592 0.950 . S
H1584 C1594 0.950 . S
H1585 C1596 0.950 . S
H1586 C1598 0.950 1_545 S
H1587 C1599 0.950 . S
C1588 H1580 0.950 . S
C1588 C1589 1.386 . S
C1588 C1590 1.391 . S
C1589 C1588 1.386 . S
C1589 C1593 1.393 . S
C1590 H1582 0.950 . S
C1590 C1588 1.391 . S
C1590 C1591 1.400 . S
C1591 C1590 1.400 . S
C1591 C1592 1.398 . S
C1591 C1597 1.491 . S
C1592 H1583 0.950 . S
C1592 C1591 1.398 . S
C1592 C1593 1.391 . S
C1593 H1581 0.950 . S
C1593 C1589 1.393 . S
C1593 C1592 1.391 . S
C1594 H1584 0.950 . S
C1594 C1595 1.358 1_565 S
C1594 C1596 1.391 . S
C1595 C1594 1.358 1_545 S
C1595 C1599 1.405 . S
C1596 H1585 0.950 . S
C1596 C1594 1.391 . S
C1596 C1597 1.400 . S
C1597 C1591 1.491 . S
C1597 C1596 1.400 . S
C1597 C1598 1.398 . S
C1598 H1586 0.950 1_565 S
C1598 C1597 1.398 . S
C1598 C1599 1.391 1_565 S
C1599 H1587 0.950 . S
C1599 C1595 1.405 . S
C1599 C1598 1.391 1_545 S
C649 C9 2.601 . S
C655 C409 2.605 . S
C669 C49 2.606 . S
C675 C449 2.610 . S
C689 C89 2.600 . S
C695 C329 2.601 . S
C709 C369 2.603 . S
C715 C129 2.607 . S
C729 C178 2.613 . S
C735 C578 2.611 . S
C749 C618 2.601 . S
C755 C218 2.605 . S
C769 C498 2.602 . S
C775 C258 2.606 . S
C789 C298 2.613 . S
C795 C538 2.611 . S
C809 C15 1.005 . S
C815 C166 1.005 . S
C829 C55 0.984 . S
C835 C526 0.984 . S
C849 C95 0.989 . S
C855 C246 0.989 . S
C869 C135 0.961 . S
C875 C606 0.961 . S
C889 C206 0.931 . S
C895 C375 0.931 . S
C909 C455 0.951 . S
C915 C286 0.951 . S
C929 C486 0.966 . S
C935 C335 0.966 . S
C949 C415 0.997 . S
C955 C566 0.997 . S
C969 C6 1.076 . S
C975 C289 1.182 . S
C989 C46 1.050 . S
C995 C489 1.158 . S
C1009 C86 1.084 . S
C1015 C209 1.185 . S
C1029 C126 1.101 . S
C1035 C569 1.183 . S
C1049 C138 1.159 . S
C1055 C175 1.075 . S
C1069 C215 1.049 . S
C1075 C338 1.158 . S
C1089 C255 1.098 . S
C1095 C58 1.172 . S
C1109 C418 1.156 . S
C1115 C295 1.059 . S
C1129 C326 1.087 . S
C1135 C609 1.185 1_565 S
C1149 C169 1.171 . S
C1155 C366 1.053 . S
C1169 C529 1.182 1_545 S
C1175 C406 1.102 . S
C1189 C249 1.180 . S
C1195 C446 1.103 . S
C1209 C495 1.049 . S
C1215 C458 1.167 1_545 S
C1229 C535 1.059 . S
C1235 C18 1.175 . S
C1249 C378 1.182 1_565 S
C1255 C575 1.073 . S
C1269 C615 1.047 . S
C1275 C98 1.160 . S
C1289 C19 4.045 . S
C1295 C370 4.075 . S
C1309 C410 4.076 . S
C1315 C59 4.046 . S
C1329 C99 4.056 . S
C1335 C450 4.085 . S
C1349 C330 4.078 . S
C1355 C139 4.048 . S
C1369 C539 4.086 . S
C1375 C170 4.057 . S
C1389 C579 4.086 . S
C1395 C210 4.057 . S
C1409 C619 4.082 . S
C1415 C250 4.055 . S
C1429 C499 4.074 . S
C1435 C290 4.045 . S
C1449 C50 4.075 . S
C1455 C339 4.045 . S
C1469 C90 4.080 . S
C1475 C379 4.053 . S
C1489 C130 4.077 . S
C1495 C419 4.050 . S
C1509 C459 4.058 . S
C1515 C10 4.081 . S
C1529 C219 4.076 . S
C1535 C490 4.046 . S
C1549 C259 4.075 . S
C1555 C530 4.044 1_545 S
C1569 C299 4.084 . S
C1575 C570 4.054 . S
C1589 C179 4.083 . S
C1595 C610 4.066 . S
