# Generated by pormake.
# Topology umw, (4)-cn, num edge types: 1
# Building blocks:
#     Node 0, Type 0, BuildingBlock: UXUYUI_clean_sbu_0, # of connection points: 4
#     Node 1, Type 0, BuildingBlock: UXUYUI_clean_sbu_0, # of connection points: 4
#     Node 2, Type 0, BuildingBlock: UXUYUI_clean_sbu_0, # of connection points: 4
#     Node 3, Type 0, BuildingBlock: UXUYUI_clean_sbu_0, # of connection points: 4
#     Node 4, Type 0, BuildingBlock: UXUYUI_clean_sbu_0, # of connection points: 4
#     Node 5, Type 0, BuildingBlock: UXUYUI_clean_sbu_0, # of connection points: 4
#     Node 6, Type 0, BuildingBlock: UXUYUI_clean_sbu_0, # of connection points: 4
#     Node 7, Type 0, BuildingBlock: UXUYUI_clean_sbu_0, # of connection points: 4
#     Edge 8, Type (0, 0), BuildingBlock: XUDNAN_clean_linker_2, # of connection points: 2
#     Edge 9, Type (0, 0), BuildingBlock: XUDNAN_clean_linker_2, # of connection points: 2
#     Edge 10, Type (0, 0), BuildingBlock: XUDNAN_clean_linker_2, # of connection points: 2
#     Edge 11, Type (0, 0), BuildingBlock: XUDNAN_clean_linker_2, # of connection points: 2
#     Edge 12, Type (0, 0), BuildingBlock: XUDNAN_clean_linker_2, # of connection points: 2
#     Edge 13, Type (0, 0), BuildingBlock: XUDNAN_clean_linker_2, # of connection points: 2
#     Edge 14, Type (0, 0), BuildingBlock: XUDNAN_clean_linker_2, # of connection points: 2
#     Edge 15, Type (0, 0), BuildingBlock: XUDNAN_clean_linker_2, # of connection points: 2
#     Edge 16, Type (0, 0), BuildingBlock: XUDNAN_clean_linker_2, # of connection points: 2
#     Edge 17, Type (0, 0), BuildingBlock: XUDNAN_clean_linker_2, # of connection points: 2
#     Edge 18, Type (0, 0), BuildingBlock: XUDNAN_clean_linker_2, # of connection points: 2
#     Edge 19, Type (0, 0), BuildingBlock: XUDNAN_clean_linker_2, # of connection points: 2
#     Edge 20, Type (0, 0), BuildingBlock: XUDNAN_clean_linker_2, # of connection points: 2
#     Edge 21, Type (0, 0), BuildingBlock: XUDNAN_clean_linker_2, # of connection points: 2
#     Edge 22, Type (0, 0), BuildingBlock: XUDNAN_clean_linker_2, # of connection points: 2
#     Edge 23, Type (0, 0), BuildingBlock: XUDNAN_clean_linker_2, # of connection points: 2
# Relax obj value: 0.239
# Max RMSD: 0.148
# Mean RMSD: 0.148
data_MOF--net-umw--node1-UXUYUI_clean_sbu_0--edge1-XUDNAN_clean_linker_2
_symmetry_space_group_name_H-M    P1
_symmetry_Int_Tables_number       1
_symmetry_cell_setting            triclinic
loop_
_symmetry_equiv_pos_as_xyz
'x, y, z'
_cell_length_a     63.048089
_cell_length_b     63.063165
_cell_length_c     34.872763
_cell_angle_alpha  89.990112
_cell_angle_beta   89.981486
_cell_angle_gamma 90.00826
loop_
_atom_site_label
_atom_site_type_symbol
_atom_site_fract_x
_atom_site_fract_y
_atom_site_fract_z
_atom_type_partial_charge
Li0 Li 0.38193 0.14688 0.26986 0.0
Li1 Li 0.40764 0.17 0.30517 0.0
Li2 Li 0.37687 0.18647 0.27419 0.0
Li3 Li 0.40543 0.17236 0.23782 0.0
C4 C 0.36211 0.16985 0.34084 0.0
N5 N 0.33013 0.18265 0.38978 0.0
C6 C 0.36686 0.18224 0.37291 0.0
C7 C 0.34115 0.16379 0.3338 0.0
C8 C 0.35046 0.18858 0.3973 0.0
C9 C 0.32519 0.17048 0.35884 0.0
C10 C 0.42963 0.13684 0.28501 0.0
C11 C 0.46648 0.13533 0.30329 0.0
N12 N 0.46267 0.117 0.32265 0.0
C13 C 0.42609 0.11791 0.30484 0.0
C14 C 0.44999 0.14557 0.28397 0.0
C15 C 0.443 0.10814 0.32377 0.0
C16 C 0.36765 0.10744 0.23969 0.0
N17 N 0.36946 0.11955 0.27175 0.0
C18 C 0.3584 0.09062 0.31123 0.0
C19 C 0.36469 0.1117 0.30701 0.0
C20 C 0.35706 0.07744 0.27882 0.0
C21 C 0.36134 0.08625 0.24256 0.0
H22 H 0.3718 0.11401 0.21208 0.0
H23 H 0.36673 0.12157 0.3321 0.0
C24 C 0.4384 0.1856 0.35789 0.0
N25 N 0.42388 0.17021 0.3506 0.0
C26 C 0.44892 0.18607 0.39313 0.0
C27 C 0.42946 0.15472 0.41217 0.0
C28 C 0.41932 0.15489 0.3767 0.0
C29 C 0.44429 0.17062 0.42097 0.0
H30 H 0.44145 0.19775 0.33672 0.0
H31 H 0.40753 0.14298 0.37009 0.0
C32 C 0.37277 0.17334 0.19122 0.0
N33 N 0.37186 0.18497 0.11486 0.0
C34 C 0.36761 0.19412 0.18088 0.0
C35 C 0.37737 0.15845 0.16274 0.0
C36 C 0.36723 0.19969 0.14211 0.0
C37 C 0.37688 0.16465 0.12429 0.0
C38 C 0.41695 0.21201 0.25605 0.0
C39 C 0.40567 0.22897 0.24026 0.0
C40 C 0.43902 0.21131 0.25254 0.0
C41 C 0.4167 0.24487 0.22071 0.0
C42 C 0.44945 0.22749 0.23269 0.0
N43 N 0.43816 0.24379 0.21731 0.0
C44 C 0.36069 0.22173 0.31197 0.0
C45 C 0.33563 0.20487 0.27151 0.0
C46 C 0.34481 0.23409 0.32855 0.0
N47 N 0.35575 0.20708 0.28487 0.0
C48 C 0.31926 0.21714 0.28694 0.0
C49 C 0.32362 0.2315 0.31686 0.0
H50 H 0.37677 0.22274 0.32262 0.0
H51 H 0.33213 0.1928 0.25042 0.0
C52 C 0.43344 0.15634 0.18356 0.0
N53 N 0.42237 0.17427 0.19174 0.0
C54 C 0.44568 0.155 0.15043 0.0
C55 C 0.43515 0.1907 0.13416 0.0
C56 C 0.4229 0.1913 0.16768 0.0
C57 C 0.44657 0.17225 0.12508 0.0
H58 H 0.43252 0.14283 0.20247 0.0
H59 H 0.41354 0.20519 0.17396 0.0
O60 O 0.37782 0.16412 0.31588 0.0
O61 O 0.41321 0.14691 0.26697 0.0
O62 O 0.37362 0.16774 0.22907 0.0
O63 O 0.40646 0.19644 0.27565 0.0
H64 H 0.383 0.18718 0.37859 0.0
H65 H 0.33722 0.15429 0.30894 0.0
H66 H 0.35387 0.19831 0.42208 0.0
H67 H 0.30886 0.16609 0.35358 0.0
H68 H 0.4823 0.14197 0.30292 0.0
H69 H 0.41045 0.11091 0.30585 0.0
H70 H 0.45299 0.16016 0.26859 0.0
H71 H 0.44048 0.09354 0.33941 0.0
H72 H 0.35565 0.08448 0.3398 0.0
H73 H 0.3603 0.07675 0.21677 0.0
H74 H 0.46008 0.19873 0.39891 0.0
H75 H 0.42566 0.14233 0.43253 0.0
H76 H 0.36413 0.20588 0.20256 0.0
H77 H 0.38163 0.14237 0.17025 0.0
H78 H 0.36336 0.21574 0.1337 0.0
H79 H 0.38057 0.15334 0.10195 0.0
H80 H 0.3886 0.22982 0.24294 0.0
H81 H 0.44798 0.19836 0.2648 0.0
H82 H 0.40818 0.25805 0.20818 0.0
H83 H 0.46651 0.22708 0.22951 0.0
H84 H 0.34901 0.24461 0.35188 0.0
H85 H 0.30327 0.21484 0.27645 0.0
H86 H 0.45438 0.14053 0.1447 0.0
H87 H 0.43522 0.20425 0.11508 0.0
Li88 Li 0.82778 0.41345 0.55958 0.0
Li89 Li 0.84937 0.3884 0.52269 0.0
Li90 Li 0.82123 0.40908 0.49085 0.0
Li91 Li 0.81223 0.38031 0.53504 0.0
C92 C 0.85557 0.43944 0.51754 0.0
N93 N 0.87245 0.47987 0.51971 0.0
C94 C 0.87683 0.44249 0.52745 0.0
C95 C 0.84298 0.45693 0.50825 0.0
C96 C 0.88505 0.46306 0.52854 0.0
C97 C 0.85178 0.47725 0.50962 0.0
C98 C 0.84122 0.3646 0.58768 0.0
C99 C 0.84846 0.32734 0.57922 0.0
N100 N 0.85229 0.32555 0.61747 0.0
C101 C 0.84522 0.3624 0.62688 0.0
C102 C 0.84283 0.34695 0.5636 0.0
C103 C 0.8508 0.34252 0.6414 0.0
C104 C 0.80802 0.42907 0.62354 0.0
N105 N 0.82624 0.43127 0.60311 0.0
C106 C 0.84045 0.45468 0.65045 0.0
C107 C 0.84235 0.44381 0.61567 0.0
C108 C 0.82195 0.45225 0.67251 0.0
C109 C 0.80549 0.43951 0.65838 0.0
H110 H 0.7956 0.41877 0.61315 0.0
H111 H 0.8569 0.44485 0.59948 0.0
C112 C 0.88386 0.36687 0.48751 0.0
N113 N 0.87751 0.37824 0.5185 0.0
C114 C 0.90525 0.36167 0.48283 0.0
C115 C 0.91295 0.37955 0.54255 0.0
C116 C 0.8914 0.38418 0.54625 0.0
C117 C 0.92024 0.36851 0.51008 0.0
H118 H 0.87241 0.36236 0.46591 0.0
H119 H 0.88582 0.39329 0.57054 0.0
C120 C 0.78302 0.42159 0.5329 0.0
N121 N 0.74712 0.44672 0.53189 0.0
C122 C 0.76303 0.41243 0.52756 0.0
C123 C 0.78469 0.44347 0.53841 0.0
C124 C 0.74509 0.42542 0.52694 0.0
C125 C 0.76637 0.45592 0.53763 0.0
C126 C 0.81476 0.36893 0.45761 0.0
C127 C 0.7936 0.37528 0.45473 0.0
C128 C 0.82258 0.35336 0.43284 0.0
C129 C 0.78059 0.36601 0.42699 0.0
C130 C 0.80907 0.34446 0.40546 0.0
N131 N 0.78853 0.35092 0.40312 0.0
C132 C 0.83125 0.43198 0.42491 0.0
C133 C 0.7943 0.43088 0.43711 0.0
C134 C 0.82824 0.44658 0.3953 0.0
N135 N 0.81447 0.42492 0.44578 0.0
C136 C 0.79055 0.44541 0.40764 0.0
C137 C 0.8077 0.4539 0.38694 0.0
H138 H 0.84713 0.42706 0.43254 0.0
H139 H 0.78115 0.42493 0.45375 0.0
C140 C 0.7827 0.36726 0.58506 0.0
N141 N 0.79171 0.36043 0.55196 0.0
C142 C 0.76703 0.35537 0.60299 0.0
C143 C 0.77032 0.3291 0.55285 0.0
C144 C 0.78606 0.34166 0.53566 0.0
C145 C 0.76046 0.3361 0.5868 0.0
H146 H 0.7878 0.38209 0.59756 0.0
H147 H 0.79367 0.33648 0.5095 0.0
O148 O 0.84733 0.41937 0.51624 0.0
O149 O 0.83562 0.38396 0.5732 0.0
O150 O 0.80074 0.40906 0.53358 0.0
O151 O 0.8278 0.37762 0.48474 0.0
H152 H 0.88688 0.42914 0.53438 0.0
H153 H 0.82666 0.45488 0.49966 0.0
H154 H 0.90144 0.46566 0.53637 0.0
H155 H 0.84219 0.49092 0.50253 0.0
H156 H 0.84976 0.31355 0.56094 0.0
H157 H 0.84399 0.37592 0.64587 0.0
H158 H 0.83976 0.34831 0.53321 0.0
H159 H 0.85394 0.34058 0.67169 0.0
H160 H 0.85359 0.46418 0.66067 0.0
H161 H 0.7909 0.4374 0.67434 0.0
H162 H 0.91003 0.35279 0.45771 0.0
H163 H 0.92383 0.38543 0.56407 0.0
H164 H 0.76139 0.39547 0.52384 0.0
H165 H 0.7999 0.45076 0.54376 0.0
H166 H 0.72955 0.41856 0.5226 0.0
H167 H 0.76744 0.47288 0.54176 0.0
H168 H 0.78726 0.38715 0.47375 0.0
H169 H 0.83891 0.34817 0.4348 0.0
H170 H 0.76418 0.3708 0.42449 0.0
H171 H 0.81492 0.3324 0.3861 0.0
H172 H 0.84198 0.45281 0.38044 0.0
H173 H 0.77441 0.45029 0.4017 0.0
H174 H 0.76026 0.36115 0.62956 0.0
H175 H 0.76571 0.3143 0.53949 0.0
Li176 Li 0.58718 0.82966 0.79098 0.0
Li177 Li 0.61418 0.85011 0.76065 0.0
Li178 Li 0.5967 0.81933 0.72628 0.0
Li179 Li 0.62198 0.81408 0.78223 0.0
C180 C 0.56402 0.85433 0.74546 0.0
N181 N 0.52302 0.86969 0.74962 0.0
C182 C 0.55898 0.87064 0.77105 0.0
C183 C 0.54819 0.8459 0.72186 0.0
C184 C 0.53816 0.87815 0.77279 0.0
C185 C 0.52757 0.85389 0.7244 0.0
C186 C 0.62443 0.85446 0.8329 0.0
C187 C 0.65652 0.86946 0.85902 0.0
N188 N 0.6454 0.88679 0.87064 0.0
C189 C 0.6133 0.87236 0.8453 0.0
C190 C 0.64622 0.85295 0.83987 0.0
C191 C 0.6242 0.88856 0.86423 0.0
C192 C 0.56998 0.8349 0.86454 0.0
N193 N 0.56444 0.83078 0.82762 0.0
C194 C 0.52788 0.82826 0.84541 0.0
C195 C 0.54386 0.82724 0.81777 0.0
C196 C 0.53312 0.8329 0.88365 0.0
C197 C 0.55453 0.83616 0.89306 0.0
H198 H 0.58645 0.8372 0.87194 0.0
H199 H 0.53978 0.82351 0.7885 0.0
C200 C 0.61145 0.89384 0.74593 0.0
N201 N 0.62539 0.87809 0.7543 0.0
C202 C 0.61798 0.91496 0.7463 0.0
C203 C 0.65346 0.90328 0.76175 0.0
C204 C 0.6462 0.88234 0.76106 0.0
C205 C 0.63915 0.91996 0.75506 0.0
H206 H 0.59509 0.89009 0.74005 0.0
H207 H 0.65704 0.86957 0.76736 0.0
C208 C 0.57921 0.78861 0.79025 0.0
N209 N 0.54885 0.76564 0.82958 0.0
C210 C 0.58347 0.78096 0.82707 0.0
C211 C 0.55952 0.7845 0.77338 0.0
C212 C 0.56791 0.76942 0.84651 0.0
C213 C 0.54439 0.77285 0.79372 0.0
C214 C 0.64506 0.8171 0.71511 0.0
C215 C 0.64238 0.80029 0.68942 0.0
C216 C 0.66551 0.82367 0.72503 0.0
C217 C 0.66026 0.79032 0.67406 0.0
C218 C 0.68298 0.81327 0.7091 0.0
N219 N 0.68002 0.79696 0.68415 0.0
C220 C 0.58548 0.82508 0.6498 0.0
C221 C 0.57791 0.79054 0.67279 0.0
C222 C 0.5747 0.82093 0.61567 0.0
N223 N 0.58633 0.81018 0.67787 0.0
C224 C 0.56679 0.78575 0.6392 0.0
C225 C 0.56454 0.80128 0.61049 0.0
H226 H 0.59235 0.84057 0.65471 0.0
H227 H 0.57903 0.7789 0.69545 0.0
C228 C 0.64103 0.79799 0.84673 0.0
N229 N 0.64234 0.79656 0.80792 0.0
C230 C 0.65525 0.7871 0.87006 0.0
C231 C 0.67187 0.77287 0.81323 0.0
C232 C 0.65705 0.78388 0.7909 0.0
C233 C 0.67126 0.77463 0.85347 0.0
H234 H 0.62892 0.8078 0.85967 0.0
H235 H 0.6575 0.78238 0.76011 0.0
O236 O 0.58434 0.84677 0.74326 0.0
O237 O 0.61408 0.83863 0.8136 0.0
O238 O 0.59415 0.80024 0.77103 0.0
O239 O 0.62776 0.82724 0.73003 0.0
H240 H 0.57097 0.8773 0.78965 0.0
H241 H 0.55167 0.83319 0.70207 0.0
H242 H 0.53404 0.89068 0.79262 0.0
H243 H 0.51516 0.84746 0.70641 0.0
H244 H 0.6734 0.86857 0.86438 0.0
H245 H 0.59645 0.87379 0.84018 0.0
H246 H 0.65518 0.8394 0.82995 0.0
H247 H 0.6158 0.90255 0.87379 0.0
H248 H 0.51164 0.82521 0.83695 0.0
H249 H 0.55932 0.83995 0.92208 0.0
H250 H 0.60631 0.92725 0.74131 0.0
H251 H 0.66998 0.90638 0.7681 0.0
H252 H 0.59857 0.78402 0.84062 0.0
H253 H 0.55573 0.79068 0.74529 0.0
H254 H 0.57097 0.7635 0.87509 0.0
H255 H 0.52903 0.7697 0.78112 0.0
H256 H 0.6267 0.79495 0.68148 0.0
H257 H 0.66789 0.8365 0.74509 0.0
H258 H 0.65843 0.77729 0.65418 0.0
H259 H 0.6989 0.81813 0.71664 0.0
H260 H 0.57386 0.83322 0.59404 0.0
H261 H 0.55919 0.77042 0.63667 0.0
H262 H 0.65362 0.78847 0.90087 0.0
H263 H 0.68389 0.76344 0.79906 0.0
Li264 Li 0.15182 0.61376 0.01468 0.0
Li265 Li 0.17383 0.58837 0.05093 0.0
Li266 Li 0.18851 0.6227 0.02888 0.0
Li267 Li 0.18147 0.59466 0.98296 0.0
C268 C 0.15944 0.63621 0.08278 0.0
N269 N 0.14898 0.67438 0.11669 0.0
C270 C 0.15832 0.63782 0.12268 0.0
C271 C 0.15527 0.65401 0.06009 0.0
C272 C 0.15298 0.65726 0.13929 0.0
C273 C 0.15001 0.67316 0.07779 0.0
C274 C 0.14568 0.56415 0.00205 0.0
C275 C 0.14715 0.52665 0.98882 0.0
N276 N 0.12579 0.52537 0.99391 0.0
C277 C 0.12372 0.56251 0.00681 0.0
C278 C 0.15748 0.54612 0.99272 0.0
C279 C 0.11398 0.54274 0.00273 0.0
C280 C 0.11496 0.63011 0.97758 0.0
N281 N 0.12332 0.62291 0.01104 0.0
C282 C 0.0899 0.6264 0.04262 0.0
C283 C 0.11133 0.62102 0.04323 0.0
C284 C 0.08061 0.63359 0.00838 0.0
C285 C 0.09349 0.63558 0.97559 0.0
H286 H 0.12489 0.63124 0.95235 0.0
H287 H 0.11841 0.61505 0.06934 0.0
C288 C 0.19074 0.56397 0.11186 0.0
N289 N 0.17305 0.56799 0.09079 0.0
C290 C 0.19037 0.54845 0.14045 0.0
C291 C 0.15347 0.54194 0.1256 0.0
C292 C 0.1545 0.55771 0.09769 0.0
C293 C 0.17161 0.53703 0.14713 0.0
H294 H 0.20518 0.5727 0.10625 0.0
H295 H 0.14047 0.56176 0.08155 0.0
C296 C 0.18623 0.63503 0.95158 0.0
N297 N 0.21206 0.65427 0.89784 0.0
C298 C 0.2078 0.63002 0.94988 0.0
C299 C 0.17779 0.64983 0.92596 0.0
C300 C 0.2206 0.63991 0.92251 0.0
C301 C 0.19111 0.65939 0.89899 0.0
C302 C 0.21915 0.58187 0.02494 0.0
C303 C 0.23918 0.59115 0.02136 0.0
C304 C 0.21732 0.55981 0.0266 0.0
C305 C 0.25707 0.57815 0.01881 0.0
C306 C 0.23559 0.54735 0.02398 0.0
N307 N 0.25491 0.5567 0.02013 0.0
C308 C 0.21832 0.64056 0.0775 0.0
C309 C 0.20652 0.66446 0.02958 0.0
C310 C 0.23026 0.6565 0.09492 0.0
N311 N 0.20666 0.64483 0.04568 0.0
C312 C 0.21836 0.68087 0.04593 0.0
C313 C 0.23022 0.67708 0.07942 0.0
H314 H 0.21776 0.62488 0.09004 0.0
H315 H 0.19676 0.66757 0.00474 0.0
C316 C 0.17271 0.57374 0.91426 0.0
N317 N 0.18909 0.57992 0.93701 0.0
C318 C 0.17619 0.55984 0.88373 0.0
C319 C 0.21354 0.55985 0.89922 0.0
C320 C 0.20935 0.57388 0.92929 0.0
C321 C 0.19674 0.55221 0.87664 0.0
H322 H 0.15675 0.57882 0.92101 0.0
H323 H 0.22222 0.57931 0.94712 0.0
O324 O 0.16498 0.61736 0.06618 0.0
O325 O 0.15542 0.58342 0.00599 0.0
O326 O 0.17335 0.62564 0.97818 0.0
O327 O 0.2015 0.59442 0.02731 0.0
H328 H 0.1616 0.62419 0.1406 0.0
H329 H 0.1562 0.65309 0.02916 0.0
H330 H 0.15206 0.65875 0.17014 0.0
H331 H 0.14678 0.68707 0.0606 0.0
H332 H 0.15609 0.51257 0.98162 0.0
H333 H 0.11433 0.57634 0.0138 0.0
H334 H 0.17439 0.54716 0.98812 0.0
H335 H 0.09702 0.54122 0.00654 0.0
H336 H 0.08072 0.62491 0.06872 0.0
H337 H 0.08696 0.64078 0.94846 0.0
H338 H 0.20466 0.54512 0.15659 0.0
H339 H 0.13859 0.53379 0.13053 0.0
H340 H 0.2146 0.61869 0.96952 0.0
H341 H 0.16112 0.65389 0.92697 0.0
H342 H 0.23732 0.63618 0.9209 0.0
H343 H 0.1848 0.67088 0.87899 0.0
H344 H 0.24089 0.60823 0.02042 0.0
H345 H 0.20202 0.55237 0.03019 0.0
H346 H 0.27266 0.58511 0.01583 0.0
H347 H 0.2344 0.53025 0.02514 0.0
H348 H 0.23881 0.65288 0.12104 0.0
H349 H 0.21801 0.6964 0.0327 0.0
H350 H 0.16277 0.55426 0.86719 0.0
H351 H 0.22968 0.55463 0.89426 0.0
Li352 Li 0.41224 0.82294 0.30226 0.0
Li353 Li 0.38093 0.81493 0.2668 0.0
Li354 Li 0.41116 0.83046 0.23494 0.0
Li355 Li 0.38806 0.85252 0.27821 0.0
C356 C 0.42036 0.78543 0.27285 0.0
N357 N 0.44294 0.75141 0.3017 0.0
C358 C 0.40968 0.76805 0.28858 0.0
C359 C 0.44252 0.78541 0.27153 0.0
C360 C 0.42138 0.75102 0.30304 0.0
C361 C 0.45365 0.76811 0.28639 0.0
C362 C 0.36551 0.82238 0.33744 0.0
C363 C 0.33124 0.82742 0.3668 0.0
N364 N 0.33131 0.80678 0.37818 0.0
C365 C 0.36531 0.80127 0.34961 0.0
C366 C 0.34839 0.83561 0.3462 0.0
C367 C 0.34784 0.79366 0.37008 0.0
C368 C 0.44761 0.829 0.35005 0.0
N369 N 0.43101 0.8157 0.34361 0.0
C370 C 0.44284 0.79264 0.39379 0.0
C371 C 0.42819 0.79797 0.36526 0.0
C372 C 0.46029 0.80596 0.40061 0.0
C373 C 0.46247 0.82444 0.37853 0.0
H374 H 0.44941 0.84316 0.33296 0.0
H375 H 0.4147 0.78781 0.36021 0.0
C376 C 0.36271 0.77959 0.23144 0.0
N377 N 0.35797 0.79592 0.25542 0.0
C378 C 0.34658 0.76745 0.21506 0.0
C379 C 0.32089 0.78866 0.24924 0.0
C380 C 0.33752 0.8005 0.26474 0.0
C381 C 0.32528 0.77219 0.22325 0.0
H382 H 0.37899 0.77681 0.22315 0.0
H383 H 0.33396 0.81412 0.28229 0.0
C384 C 0.43565 0.86129 0.25877 0.0
N385 N 0.46711 0.88309 0.22012 0.0
C386 C 0.43215 0.88209 0.24647 0.0
C387 C 0.45525 0.85167 0.25181 0.0
C388 C 0.44823 0.89282 0.22689 0.0
C389 C 0.47092 0.86292 0.23209 0.0
C390 C 0.36509 0.83483 0.2051 0.0
C391 C 0.36835 0.82163 0.17347 0.0
C392 C 0.34494 0.84321 0.21211 0.0
C393 C 0.35124 0.81677 0.14957 0.0
C394 C 0.32825 0.83799 0.18751 0.0
N395 N 0.33171 0.82496 0.15705 0.0
C396 C 0.43757 0.81554 0.17466 0.0
C397 C 0.42292 0.84985 0.1662 0.0
C398 C 0.44728 0.81659 0.13872 0.0
N399 N 0.42574 0.83207 0.18758 0.0
C400 C 0.4324 0.85163 0.13021 0.0
C401 C 0.44466 0.83479 0.11589 0.0
H402 H 0.43913 0.8014 0.19191 0.0
H403 H 0.41313 0.86259 0.17705 0.0
C404 C 0.37528 0.88921 0.32023 0.0
N405 N 0.37706 0.88021 0.28496 0.0
C406 C 0.3686 0.91027 0.32376 0.0
C407 C 0.36569 0.91221 0.2547 0.0
C408 C 0.37221 0.89112 0.25253 0.0
C409 C 0.36404 0.92211 0.29062 0.0
H410 H 0.37946 0.88017 0.34548 0.0
H411 H 0.37399 0.88358 0.22486 0.0
O412 O 0.4092 0.80233 0.25875 0.0
O413 O 0.38246 0.83017 0.31748 0.0
O414 O 0.41993 0.85033 0.27724 0.0
O415 O 0.38146 0.83919 0.22955 0.0
H416 H 0.39255 0.76778 0.29003 0.0
H417 H 0.45106 0.7987 0.25947 0.0
H418 H 0.41332 0.73752 0.31547 0.0
H419 H 0.4708 0.76797 0.28578 0.0
H420 H 0.31785 0.83745 0.37366 0.0
H421 H 0.37837 0.79082 0.34294 0.0
H422 H 0.34829 0.85199 0.33694 0.0
H423 H 0.34741 0.77732 0.37948 0.0
H424 H 0.44042 0.77839 0.41056 0.0
H425 H 0.47575 0.83509 0.38276 0.0
H426 H 0.35077 0.75526 0.19456 0.0
H427 H 0.30474 0.79283 0.2566 0.0
H428 H 0.41716 0.88984 0.2518 0.0
H429 H 0.45827 0.83563 0.26125 0.0
H430 H 0.44569 0.90889 0.21704 0.0
H431 H 0.4861 0.8556 0.22627 0.0
H432 H 0.38385 0.81495 0.16779 0.0
H433 H 0.34217 0.85336 0.23664 0.0
H434 H 0.35347 0.80642 0.12517 0.0
H435 H 0.31252 0.8442 0.19274 0.0
H436 H 0.45629 0.8031 0.12856 0.0
H437 H 0.43015 0.86604 0.11384 0.0
H438 H 0.36772 0.91742 0.35195 0.0
H439 H 0.36217 0.92075 0.22851 0.0
Li440 Li 0.17684 0.40578 0.55862 0.0
Li441 Li 0.18575 0.37611 0.51888 0.0
Li442 Li 0.17134 0.40807 0.49013 0.0
Li443 Li 0.14773 0.38336 0.52711 0.0
C444 C 0.21564 0.41528 0.53088 0.0
N445 N 0.25025 0.43691 0.55971 0.0
C446 C 0.23351 0.40414 0.54343 0.0
C447 C 0.21544 0.43742 0.53272 0.0
C448 C 0.25084 0.41537 0.55795 0.0
C449 C 0.23307 0.44806 0.5475 0.0
C450 C 0.17632 0.35915 0.58912 0.0
C451 C 0.1714 0.32531 0.62001 0.0
N452 N 0.19176 0.32609 0.63287 0.0
C453 C 0.19715 0.35967 0.60273 0.0
C454 C 0.16329 0.34189 0.59784 0.0
C455 C 0.20468 0.34277 0.62476 0.0
C456 C 0.16784 0.43574 0.61636 0.0
N457 N 0.18297 0.42204 0.60383 0.0
C458 C 0.20618 0.43263 0.65459 0.0
C459 C 0.20174 0.42003 0.62267 0.0
C460 C 0.19095 0.44712 0.66809 0.0
C461 C 0.17146 0.44841 0.64858 0.0
H462 H 0.15286 0.43678 0.60142 0.0
H463 H 0.21342 0.4088 0.61284 0.0
C464 C 0.2206 0.3593 0.48101 0.0
N465 N 0.20539 0.3538 0.5068 0.0
C466 C 0.23298 0.34379 0.46335 0.0
C467 C 0.21474 0.3172 0.50076 0.0
C468 C 0.20248 0.33323 0.5173 0.0
C469 C 0.22982 0.3223 0.47245 0.0
H470 H 0.22217 0.37567 0.47225 0.0
H471 H 0.18981 0.32901 0.53664 0.0
C472 C 0.14051 0.43234 0.51711 0.0
N473 N 0.12052 0.46736 0.48616 0.0
C474 C 0.12077 0.43018 0.49928 0.0
C475 C 0.14999 0.45233 0.51948 0.0
C476 C 0.11094 0.44808 0.48374 0.0
C477 C 0.13966 0.46983 0.50357 0.0
C478 C 0.16955 0.3644 0.45164 0.0
C479 C 0.18145 0.37133 0.4202 0.0
C480 C 0.16505 0.3428 0.45573 0.0
C481 C 0.18869 0.35653 0.39342 0.0
C482 C 0.17262 0.32849 0.42837 0.0
N483 N 0.18418 0.33559 0.39805 0.0
C484 C 0.18768 0.43732 0.43482 0.0
C485 C 0.15344 0.42321 0.42305 0.0
C486 C 0.18735 0.448 0.3997 0.0
N487 N 0.17088 0.4252 0.44558 0.0
C488 C 0.15237 0.43367 0.38795 0.0
C489 C 0.16961 0.446 0.37553 0.0
H490 H 0.20158 0.43817 0.45285 0.0
H491 H 0.14054 0.41305 0.43202 0.0
C492 C 0.10524 0.38129 0.55474 0.0
N493 N 0.1192 0.37361 0.52845 0.0
C494 C 0.08347 0.37756 0.55044 0.0
C495 C 0.09113 0.35719 0.49341 0.0
C496 C 0.11261 0.36147 0.49858 0.0
C497 C 0.07614 0.36588 0.51872 0.0
H498 H 0.11089 0.39135 0.5777 0.0
H499 H 0.12389 0.35604 0.47752 0.0
O500 O 0.19853 0.40457 0.51655 0.0
O501 O 0.16862 0.37549 0.56753 0.0
O502 O 0.15057 0.41496 0.53189 0.0
O503 O 0.16284 0.3786 0.47878 0.0
H504 H 0.23393 0.38701 0.54239 0.0
H505 H 0.20178 0.44628 0.52304 0.0
H506 H 0.26473 0.40696 0.56794 0.0
H507 H 0.23308 0.46518 0.54927 0.0
H508 H 0.16153 0.31181 0.62695 0.0
H509 H 0.20747 0.37282 0.59587 0.0
H510 H 0.14711 0.3413 0.58749 0.0
H511 H 0.22081 0.34289 0.63531 0.0
H512 H 0.22154 0.43115 0.66818 0.0
H513 H 0.15897 0.4589 0.65827 0.0
H514 H 0.24403 0.34857 0.44122 0.0
H515 H 0.21188 0.30092 0.50912 0.0
H516 H 0.11324 0.41482 0.49701 0.0
H517 H 0.16519 0.45429 0.53339 0.0
H518 H 0.09573 0.44662 0.46965 0.0
H519 H 0.14686 0.48538 0.50507 0.0
H520 H 0.18536 0.38791 0.41674 0.0
H521 H 0.15628 0.33706 0.48031 0.0
H522 H 0.19801 0.36167 0.36908 0.0
H523 H 0.16945 0.31172 0.43142 0.0
H524 H 0.2011 0.4571 0.39101 0.0
H525 H 0.13826 0.4319 0.37054 0.0
H526 H 0.07249 0.38478 0.57042 0.0
H527 H 0.08626 0.34784 0.46889 0.0
Li528 Li 0.62308 0.18048 0.76326 0.0
Li529 Li 0.59478 0.17213 0.80994 0.0
Li530 Li 0.61426 0.14435 0.77249 0.0
Li531 Li 0.58992 0.16712 0.74037 0.0
C532 C 0.64163 0.17488 0.82975 0.0
N533 N 0.67417 0.19722 0.86413 0.0
C534 C 0.63727 0.18895 0.8597 0.0
C535 C 0.66254 0.17205 0.81747 0.0
C536 C 0.65394 0.20011 0.87669 0.0
C537 C 0.67876 0.18355 0.83514 0.0
C538 C 0.59339 0.21184 0.74793 0.0
C539 C 0.58656 0.24933 0.74221 0.0
N540 N 0.59215 0.24849 0.70457 0.0
C541 C 0.59909 0.21136 0.70919 0.0
C542 C 0.58712 0.23097 0.76463 0.0
C543 C 0.59835 0.23005 0.68776 0.0
C544 C 0.65295 0.19967 0.71444 0.0
N545 N 0.64392 0.20131 0.74974 0.0
C546 C 0.6596 0.23549 0.7587 0.0
C547 C 0.64699 0.21877 0.77193 0.0
C548 C 0.66896 0.23424 0.72217 0.0
C549 C 0.66577 0.21587 0.70025 0.0
H550 H 0.64928 0.18632 0.69628 0.0
H551 H 0.63891 0.22015 0.79915 0.0
C552 C 0.58097 0.16048 0.88175 0.0
N553 N 0.58016 0.17691 0.85664 0.0
C554 C 0.56669 0.15943 0.9122 0.0
C555 C 0.55198 0.19306 0.89209 0.0
C556 C 0.56649 0.19338 0.86166 0.0
C557 C 0.55147 0.17547 0.91679 0.0
H558 H 0.59175 0.14745 0.87649 0.0
H559 H 0.56584 0.20595 0.84062 0.0
C560 C 0.62995 0.14303 0.70602 0.0
N561 N 0.65286 0.1098 0.67494 0.0
C562 C 0.61956 0.12666 0.68655 0.0
C563 C 0.65203 0.14239 0.70979 0.0
C564 C 0.63141 0.11001 0.67107 0.0
C565 C 0.66332 0.12551 0.69377 0.0
C566 C 0.563 0.14112 0.77312 0.0
C567 C 0.55906 0.12841 0.741 0.0
C568 C 0.54593 0.14818 0.79535 0.0
C569 C 0.53819 0.12321 0.73145 0.0
C570 C 0.52528 0.14258 0.78492 0.0
N571 N 0.52186 0.13034 0.75343 0.0
C572 C 0.645 0.11128 0.78418 0.0
C573 C 0.60996 0.10014 0.77021 0.0
C574 C 0.65206 0.09024 0.78419 0.0
N575 N 0.62433 0.1158 0.77651 0.0
C576 C 0.61628 0.079 0.76986 0.0
C577 C 0.63763 0.07382 0.77636 0.0
H578 H 0.65609 0.12401 0.78943 0.0
H579 H 0.59359 0.10405 0.76507 0.0
C580 C 0.57282 0.16361 0.66526 0.0
N581 N 0.56895 0.17033 0.7016 0.0
C582 C 0.55696 0.16478 0.63749 0.0
C583 C 0.53382 0.18084 0.68457 0.0
C584 C 0.55012 0.17928 0.71145 0.0
C585 C 0.53703 0.17323 0.64714 0.0
H586 H 0.58815 0.15718 0.6579 0.0
H587 H 0.54769 0.1849 0.74042 0.0
O588 O 0.6255 0.16393 0.81261 0.0
O589 O 0.5945 0.19385 0.76981 0.0
O590 O 0.61854 0.1592 0.72234 0.0
O591 O 0.58337 0.14674 0.78253 0.0
H592 H 0.62118 0.19133 0.86957 0.0
H593 H 0.66619 0.16127 0.79429 0.0
H594 H 0.6508 0.21112 0.8998 0.0
H595 H 0.69501 0.18162 0.82576 0.0
H596 H 0.58175 0.26426 0.75478 0.0
H597 H 0.60428 0.19677 0.69586 0.0
H598 H 0.58286 0.23167 0.79467 0.0
H599 H 0.60278 0.22991 0.65779 0.0
H600 H 0.66158 0.24944 0.77643 0.0
H601 H 0.67217 0.21451 0.67152 0.0
H602 H 0.56682 0.14567 0.9308 0.0
H603 H 0.54032 0.2056 0.89457 0.0
H604 H 0.6025 0.12654 0.68395 0.0
H605 H 0.66038 0.15455 0.72555 0.0
H606 H 0.62352 0.0972 0.65616 0.0
H607 H 0.68039 0.12481 0.69663 0.0
H608 H 0.57194 0.123 0.72306 0.0
H609 H 0.54848 0.15796 0.82029 0.0
H610 H 0.53496 0.11358 0.70645 0.0
H611 H 0.51196 0.14801 0.80184 0.0
H612 H 0.66866 0.0869 0.78938 0.0
H613 H 0.60451 0.06681 0.76472 0.0
H614 H 0.56014 0.15865 0.60907 0.0
H615 H 0.51888 0.18788 0.69305 0.0
Li616 Li 0.81653 0.62508 0.02432 0.0
Li617 Li 0.82712 0.59831 0.06821 0.0
Li618 Li 0.85361 0.61663 0.02917 0.0
Li619 Li 0.82848 0.59167 -8e-05 0.0
C620 C 0.82458 0.63846 0.09939 0.0
N621 N 0.80312 0.65757 0.15922 0.0
C622 C 0.8027 0.63564 0.10339 0.0
C623 C 0.83554 0.65101 0.12578 0.0
C624 C 0.79214 0.64542 0.13384 0.0
C625 C 0.82441 0.66054 0.15584 0.0
C626 C 0.79183 0.57862 0.03531 0.0
C627 C 0.79048 0.54122 0.04972 0.0
N628 N 0.76923 0.5413 0.04307 0.0
C629 C 0.76997 0.57833 0.02868 0.0
C630 C 0.80218 0.55992 0.04596 0.0
C631 C 0.75883 0.55931 0.03273 0.0
C632 C 0.77915 0.64208 0.99371 0.0
N633 N 0.79692 0.64728 0.01358 0.0
C634 C 0.78804 0.68405 0.0107 0.0
C635 C 0.80142 0.66773 0.02278 0.0
C636 C 0.76968 0.67926 0.98944 0.0
C637 C 0.76516 0.65785 0.98157 0.0
H638 H 0.77611 0.62567 0.98657 0.0
H639 H 0.8158 0.67142 0.03832 0.0
C640 C 0.83861 0.57581 0.13498 0.0
N641 N 0.82202 0.58506 0.11662 0.0
C642 C 0.83522 0.56386 0.16818 0.0
C643 C 0.7978 0.57176 0.16357 0.0
C644 C 0.80192 0.58354 0.13051 0.0
C645 C 0.81453 0.56146 0.18259 0.0
H646 H 0.85443 0.57735 0.12335 0.0
H647 H 0.78894 0.59087 0.11521 0.0
C648 C 0.83543 0.63914 0.96242 0.0
N649 N 0.83116 0.67776 0.9256 0.0
C650 C 0.82324 0.64077 0.92905 0.0
C651 C 0.84533 0.65724 0.97713 0.0
C652 C 0.82128 0.66042 0.91088 0.0
C653 C 0.84306 0.67658 0.95804 0.0
C654 C 0.86801 0.57549 0.0235 0.0
C655 C 0.8742 0.57965 0.98572 0.0
C656 C 0.87956 0.56098 0.04545 0.0
C657 C 0.89189 0.56927 0.97059 0.0
C658 C 0.89716 0.55091 0.02927 0.0
N659 N 0.90291 0.55523 0.99249 0.0
C660 C 0.89434 0.62642 0.05894 0.0
C661 C 0.89079 0.63025 0.9916 0.0
C662 C 0.91589 0.63154 0.05675 0.0
N663 N 0.88234 0.62584 0.02658 0.0
C664 C 0.91213 0.63569 0.98815 0.0
C665 C 0.925 0.63623 0.02094 0.0
H666 H 0.88724 0.62252 0.08629 0.0
H667 H 0.88106 0.62909 0.96618 0.0
C668 C 0.81567 0.57585 0.92788 0.0
N669 N 0.82493 0.57043 0.96164 0.0
C670 C 0.81334 0.56082 0.8988 0.0
C671 C 0.82942 0.5347 0.94039 0.0
C672 C 0.83159 0.55026 0.96849 0.0
C673 C 0.82035 0.53997 0.90492 0.0
H674 H 0.81003 0.5918 0.92359 0.0
H675 H 0.83868 0.54622 0.99571 0.0
O676 O 0.83538 0.62904 0.06992 0.0
O677 O 0.80286 0.5972 0.03133 0.0
O678 O 0.83705 0.62017 0.98141 0.0
O679 O 0.85086 0.5856 0.03919 0.0
H680 H 0.79391 0.62603 0.08326 0.0
H681 H 0.85249 0.65335 0.12306 0.0
H682 H 0.77521 0.64336 0.13728 0.0
H683 H 0.83269 0.67029 0.1765 0.0
H684 H 0.7983 0.52665 0.05796 0.0
H685 H 0.76169 0.59268 0.02052 0.0
H686 H 0.81904 0.5598 0.05147 0.0
H687 H 0.74191 0.55887 0.02767 0.0
H688 H 0.79245 0.70027 0.01698 0.0
H689 H 0.75105 0.65327 0.96599 0.0
H690 H 0.84864 0.55648 0.18224 0.0
H691 H 0.78157 0.57015 0.17333 0.0
H692 H 0.8152 0.62712 0.91738 0.0
H693 H 0.85428 0.65651 0.00354 0.0
H694 H 0.81184 0.66189 0.88511 0.0
H695 H 0.85057 0.6907 0.96924 0.0
H696 H 0.86546 0.59074 0.96818 0.0
H697 H 0.87498 0.55752 0.07469 0.0
H698 H 0.89685 0.57236 0.94143 0.0
H699 H 0.90624 0.53966 0.04595 0.0
H700 H 0.92534 0.63179 0.08268 0.0
H701 H 0.91865 0.63879 0.95996 0.0
H702 H 0.80596 0.5654 0.87201 0.0
H703 H 0.83512 0.51882 0.94612 0.0
H704 H 0.48591 0.17945 0.43813 0.0
H705 H 0.42555 0.1633 0.49053 0.0
H706 H 0.44248 0.1633 0.55428 0.0
H707 H 0.51822 0.14776 0.49835 0.0
H708 H 0.53968 0.1666 0.50085 0.0
H709 H 0.5227 0.16601 0.45936 0.0
H710 H 0.51406 0.20586 0.46871 0.0
H711 H 0.53108 0.20659 0.51019 0.0
H712 H 0.5038 0.21487 0.51413 0.0
H713 H 0.46613 0.16376 0.61188 0.0
H714 H 0.49498 0.16465 0.65959 0.0
H715 H 0.5396 0.18204 0.57001 0.0
C716 C 0.47619 0.1762 0.46305 0.0
C717 C 0.45443 0.17127 0.45932 0.0
C718 C 0.44233 0.16678 0.49262 0.0
C719 C 0.45175 0.1669 0.52898 0.0
C720 C 0.47326 0.17166 0.53159 0.0
C721 C 0.48533 0.1763 0.49957 0.0
C722 C 0.50823 0.18044 0.51023 0.0
C723 C 0.52307 0.16423 0.49106 0.0
C724 C 0.51466 0.2033 0.50022 0.0
C725 C 0.50718 0.17715 0.55318 0.0
C726 C 0.48686 0.17218 0.56492 0.0
C727 C 0.48208 0.16787 0.60312 0.0
C728 C 0.49855 0.16855 0.63004 0.0
C729 C 0.51956 0.17353 0.61864 0.0
C730 C 0.52378 0.17802 0.57966 0.0
H731 H 0.83199 0.493 0.69342 0.0
H732 H 0.80778 0.43351 0.73819 0.0
H733 H 0.80421 0.44965 0.80231 0.0
H734 H 0.86253 0.50741 0.77664 0.0
H735 H 0.85652 0.53528 0.77291 0.0
H736 H 0.85709 0.51904 0.73045 0.0
H737 H 0.81876 0.53078 0.71402 0.0
H738 H 0.81803 0.54699 0.75652 0.0
H739 H 0.79797 0.52707 0.7489 0.0
H740 H 0.80382 0.47191 0.86156 0.0
H741 H 0.80616 0.49922 0.9122 0.0
H742 H 0.83039 0.54428 0.82894 0.0
C743 C 0.82605 0.48338 0.71681 0.0
C744 C 0.82008 0.46205 0.7109 0.0
C745 C 0.81218 0.44997 0.74205 0.0
C746 C 0.81018 0.45896 0.77857 0.0
C747 C 0.81609 0.48005 0.78341 0.0
C748 C 0.82382 0.49214 0.75343 0.0
C749 C 0.82893 0.51447 0.76637 0.0
C750 C 0.85268 0.51932 0.7613 0.0
C751 C 0.81509 0.53079 0.74519 0.0
C752 C 0.82295 0.51299 0.80832 0.0
C753 C 0.81563 0.49298 0.81756 0.0
C754 C 0.8095 0.48765 0.85471 0.0
C755 C 0.81096 0.50321 0.88326 0.0
C756 C 0.81841 0.52382 0.87439 0.0
C757 C 0.82437 0.52873 0.83638 0.0
H758 H 0.48412 0.82102 0.09353 0.0
H759 H 0.42708 0.85139 0.05049 0.0
H760 H 0.44333 0.85395 0.98628 0.0
H761 H 0.52126 0.8512 0.03924 0.0
H762 H 0.53882 0.82917 0.03052 0.0
H763 H 0.52267 0.82964 0.0731 0.0
H764 H 0.50671 0.7931 0.05495 0.0
H765 H 0.52288 0.79249 0.01237 0.0
H766 H 0.4945 0.78966 0.00863 0.0
H767 H 0.466 0.85367 0.92698 0.0
H768 H 0.49351 0.85055 0.8769 0.0
H769 H 0.53497 0.81889 0.9582 0.0
C770 C 0.47493 0.82801 0.07055 0.0
C771 C 0.45434 0.83608 0.07714 0.0
C772 C 0.44301 0.8454 0.04633 0.0
C773 C 0.45203 0.84679 0.00968 0.0
C774 C 0.47236 0.83871 0.00424 0.0
C775 C 0.48365 0.82945 0.03379 0.0
C776 C 0.50527 0.8221 0.02042 0.0
C777 C 0.52305 0.83373 0.04211 0.0
C778 C 0.50746 0.7979 0.02432 0.0
C779 C 0.50442 0.82879 0.97879 0.0
C780 C 0.48531 0.83832 0.97 0.0
C781 C 0.48098 0.8461 0.93344 0.0
C782 C 0.49666 0.84413 0.90513 0.0
C783 C 0.5164 0.83443 0.91353 0.0
C784 C 0.52017 0.8266 0.95089 0.0
H785 H 0.18419 0.48558 0.35498 0.0
H786 H 0.15441 0.42897 0.30879 0.0
H787 H 0.1526 0.44582 0.24515 0.0
H788 H 0.15453 0.52306 0.3015 0.0
H789 H 0.17645 0.54089 0.29373 0.0
H790 H 0.17597 0.52422 0.33563 0.0
H791 H 0.21268 0.50879 0.3172 0.0
H792 H 0.2133 0.52545 0.27523 0.0
H793 H 0.21636 0.49715 0.27045 0.0
H794 H 0.15258 0.46911 0.18741 0.0
H795 H 0.15519 0.49734 0.1385 0.0
H796 H 0.18607 0.53839 0.22126 0.0
C797 C 0.17755 0.47662 0.33139 0.0
C798 C 0.16927 0.45601 0.33701 0.0
C799 C 0.16047 0.44493 0.30542 0.0
C800 C 0.15952 0.45429 0.26906 0.0
C801 C 0.16762 0.47467 0.26463 0.0
C802 C 0.17658 0.48568 0.2948 0.0
C803 C 0.18381 0.50753 0.28234 0.0
C804 C 0.17198 0.52495 0.30462 0.0
C805 C 0.20797 0.50986 0.28655 0.0
C806 C 0.17727 0.50714 0.24057 0.0
C807 C 0.16797 0.48801 0.23098 0.0
C808 C 0.15996 0.48411 0.19446 0.0
C809 C 0.16141 0.50023 0.16698 0.0
C810 C 0.17086 0.51996 0.17617 0.0
C811 C 0.17903 0.52334 0.21337 0.0
H812 H 0.32377 0.27163 0.34871 0.0
H813 H 0.28398 0.21595 0.33386 0.0
H814 H 0.25574 0.23316 0.37138 0.0
H815 H 0.30926 0.28068 0.44675 0.0
H816 H 0.31005 0.30916 0.44267 0.0
H817 H 0.32672 0.29307 0.41246 0.0
H818 H 0.3108 0.311 0.35209 0.0
H819 H 0.29413 0.32719 0.38212 0.0
H820 H 0.28246 0.31094 0.34521 0.0
H821 H 0.23182 0.25631 0.41097 0.0
H822 H 0.21405 0.28364 0.44981 0.0
H823 H 0.27071 0.32278 0.44394 0.0
C824 C 0.30917 0.26296 0.35334 0.0
C825 C 0.30614 0.24245 0.33778 0.0
C826 C 0.28661 0.23187 0.34444 0.0
C827 C 0.2705 0.24143 0.36612 0.0
C828 C 0.27417 0.2615 0.38134 0.0
C829 C 0.29303 0.27213 0.37533 0.0
C830 C 0.2932 0.29331 0.39584 0.0
C831 C 0.31085 0.29409 0.42623 0.0
C832 C 0.29526 0.31169 0.36709 0.0
C833 C 0.27144 0.29293 0.41424 0.0
C834 C 0.2607 0.27449 0.40539 0.0
C835 C 0.24016 0.27073 0.41842 0.0
C836 C 0.23028 0.28631 0.44087 0.0
C837 C 0.24098 0.30538 0.45047 0.0
C838 C 0.26194 0.30852 0.43704 0.0
H839 H 0.75884 0.29294 0.59943 0.0
H840 H 0.72365 0.35125 0.61761 0.0
H841 H 0.69692 0.33162 0.65502 0.0
H842 H 0.71233 0.25865 0.58908 0.0
H843 H 0.72461 0.23671 0.61364 0.0
H844 H 0.74071 0.25527 0.58726 0.0
H845 H 0.76308 0.26225 0.64829 0.0
H846 H 0.74691 0.24389 0.67496 0.0
H847 H 0.75004 0.27076 0.69165 0.0
H848 H 0.67489 0.30623 0.69279 0.0
H849 H 0.65731 0.27594 0.72443 0.0
H850 H 0.70628 0.23385 0.68126 0.0
C851 C 0.74532 0.30149 0.61073 0.0
C852 C 0.74343 0.32367 0.60585 0.0
C853 C 0.72561 0.33432 0.62149 0.0
C854 C 0.7103 0.32331 0.64269 0.0
C855 C 0.71292 0.3016 0.64782 0.0
C856 C 0.72981 0.29072 0.63197 0.0
C857 C 0.72886 0.26736 0.64213 0.0
C858 C 0.72648 0.25369 0.60586 0.0
C859 C 0.74838 0.26068 0.66566 0.0
C860 C 0.70887 0.26689 0.66628 0.0
C861 C 0.7 0.28684 0.66933 0.0
C862 C 0.68164 0.29051 0.69057 0.0
C863 C 0.67189 0.27325 0.70873 0.0
C864 C 0.68046 0.25257 0.70545 0.0
C865 C 0.69929 0.24946 0.68409 0.0
H866 H 0.74759 0.68052 0.92118 0.0
H867 H 0.75968 0.71706 0.02458 0.0
H868 H 0.73719 0.74586 0.99962 0.0
H869 H 0.74614 0.7238 0.85488 0.0
H870 H 0.72461 0.713 0.82705 0.0
H871 H 0.74241 0.6955 0.85216 0.0
H872 H 0.71058 0.67824 0.88738 0.0
H873 H 0.69267 0.69557 0.86216 0.0
H874 H 0.69242 0.69479 0.91383 0.0
H875 H 0.71375 0.77084 0.96327 0.0
H876 H 0.68909 0.7894 0.92012 0.0
H877 H 0.68973 0.73528 0.84298 0.0
C878 C 0.74537 0.69443 0.93892 0.0
C879 C 0.75562 0.69646 0.97487 0.0
C880 C 0.75244 0.71519 0.99664 0.0
C881 C 0.73957 0.73163 0.98281 0.0
C882 C 0.7298 0.72906 0.94731 0.0
C883 C 0.73236 0.71086 0.92582 0.0
C884 C 0.71952 0.71181 0.88913 0.0
C885 C 0.73404 0.71098 0.85371 0.0
C886 C 0.7028 0.69405 0.88809 0.0
C887 C 0.70929 0.73341 0.8934 0.0
C888 C 0.7156 0.74315 0.927 0.0
C889 C 0.7085 0.76327 0.93709 0.0
C890 C 0.69434 0.77362 0.91245 0.0
C891 C 0.68713 0.76375 0.87826 0.0
C892 C 0.69496 0.74341 0.86863 0.0
H893 H 0.26893 0.67541 0.11602 0.0
H894 H 0.21741 0.71844 0.08802 0.0
H895 H 0.23597 0.74728 0.12195 0.0
H896 H 0.27764 0.69527 0.21151 0.0
H897 H 0.30601 0.69195 0.20937 0.0
H898 H 0.28899 0.6748 0.18182 0.0
H899 H 0.30904 0.68525 0.11972 0.0
H900 H 0.32614 0.7024 0.14708 0.0
H901 H 0.31142 0.71286 0.10701 0.0
H902 H 0.26014 0.77149 0.15891 0.0
H903 H 0.28833 0.78938 0.19563 0.0
H904 H 0.32299 0.72999 0.20296 0.0
C905 C 0.26144 0.69084 0.11716 0.0
C906 C 0.24172 0.69462 0.09906 0.0
C907 C 0.23268 0.71519 0.10094 0.0
C908 C 0.24301 0.73166 0.12046 0.0
C909 C 0.26233 0.72731 0.13816 0.0
C910 C 0.27145 0.70742 0.13674 0.0
C911 C 0.29226 0.70689 0.15842 0.0
C912 C 0.29115 0.6913 0.19229 0.0
C913 C 0.3108 0.70154 0.13144 0.0
C914 C 0.29344 0.72963 0.17218 0.0
C915 C 0.27603 0.74114 0.16017 0.0
C916 C 0.27376 0.76259 0.16877 0.0
C917 C 0.2898 0.77257 0.18999 0.0
C918 C 0.30785 0.7611 0.20262 0.0
C919 C 0.3095 0.73928 0.19363 0.0
H920 H 0.38025 0.9545 0.24772 0.0
H921 H 0.33592 0.94126 0.33978 0.0
H922 H 0.32755 0.97956 0.34442 0.0
H923 H 0.40085 0.00194 0.28723 0.0
H924 H 0.40383 0.01506 0.24162 0.0
H925 H 0.40523 0.9866 0.24434 0.0
H926 H 0.37519 0.98361 0.19387 0.0
H927 H 0.37364 0.0121 0.19111 0.0
H928 H 0.35028 0.99683 0.20232 0.0
H929 H 0.32477 0.01954 0.33962 0.0
H930 H 0.32903 0.05798 0.32813 0.0
H931 H 0.37603 0.04458 0.24039 0.0
C932 C 0.36853 0.95962 0.26845 0.0
C933 C 0.35857 0.94494 0.29318 0.0
C934 C 0.34374 0.95229 0.32063 0.0
C935 C 0.33882 0.97396 0.3233 0.0
C936 C 0.34894 0.98802 0.29842 0.0
C937 C 0.36357 0.98113 0.27166 0.0
C938 C 0.37306 0.99949 0.24961 0.0
C939 C 0.39717 0.00085 0.25611 0.0
C940 C 0.36771 0.99791 0.20668 0.0
C941 C 0.36159 0.01785 0.26826 0.0
C942 C 0.34763 0.01094 0.29613 0.0
C943 C 0.33565 0.02512 0.31783 0.0
C944 C 0.33826 0.04692 0.31122 0.0
C945 C 0.35284 0.05436 0.2833 0.0
C946 C 0.36443 0.0395 0.26138 0.0
H947 H 0.9517 0.36041 0.56341 0.0
H948 H 0.9415 0.37089 0.44162 0.0
H949 H 0.97996 0.3688 0.43058 0.0
H950 H 0.99701 0.3931 0.57074 0.0
H951 H 0.01062 0.37654 0.60492 0.0
H952 H 0.98209 0.37654 0.60313 0.0
H953 H 0.98209 0.33582 0.59324 0.0
H954 H 0.01066 0.33567 0.59516 0.0
H955 H 0.99715 0.32452 0.55432 0.0
H956 H 0.01934 0.36839 0.43294 0.0
H957 H 0.05736 0.36943 0.44843 0.0
H958 H 0.04266 0.35981 0.56889 0.0
C959 C 0.9575 0.36215 0.53436 0.0
C960 C 0.9434 0.36561 0.50335 0.0
C961 C 0.95178 0.36771 0.46579 0.0
C962 C 0.97368 0.36671 0.45922 0.0
C963 C 0.98707 0.36363 0.49045 0.0
C964 C 0.97935 0.36133 0.52727 0.0
C965 C 0.99731 0.35929 0.55599 0.0
C966 C 0.99672 0.37745 0.58542 0.0
C967 C 0.99676 0.33753 0.57584 0.0
C968 C 0.01631 0.36122 0.52957 0.0
C969 C 0.00998 0.36353 0.49186 0.0
C970 C 0.02452 0.36628 0.46227 0.0
C971 C 0.04613 0.36671 0.47139 0.0
C972 C 0.0531 0.36439 0.50985 0.0
C973 C 0.03789 0.36159 0.53925 0.0
H974 H 0.62716 0.95399 0.71106 0.0
H975 H 0.66542 0.93692 0.80979 0.0
H976 H 0.67294 0.97479 0.82153 0.0
H977 H 0.65834 0.00101 0.68091 0.0
H978 H 0.63479 0.01551 0.66787 0.0
H979 H 0.63528 0.98702 0.66374 0.0
H980 H 0.60183 0.98454 0.70678 0.0
H981 H 0.60129 0.01294 0.71119 0.0
H982 H 0.60215 0.99664 0.75362 0.0
H983 H 0.67267 0.01471 0.82706 0.0
H984 H 0.66438 0.05307 0.82596 0.0
H985 H 0.62592 0.04369 0.72422 0.0
C986 C 0.63737 0.95816 0.73484 0.0
C987 C 0.64578 0.94245 0.75937 0.0
C988 C 0.65912 0.94862 0.79013 0.0
C989 C 0.66341 0.97012 0.79714 0.0
C990 C 0.65436 0.98523 0.773 0.0
C991 C 0.64172 0.97949 0.74231 0.0
C992 C 0.63239 0.99871 0.72263 0.0
C993 C 0.6407 0.00067 0.68134 0.0
C994 C 0.60798 0.99817 0.72365 0.0
C995 C 0.64112 0.01614 0.74786 0.0
C996 C 0.65402 0.00813 0.77642 0.0
C997 C 0.66286 0.0212 0.80446 0.0
C998 C 0.65812 0.04295 0.80356 0.0
C999 C 0.64448 0.05133 0.77506 0.0
C1000 C 0.63629 0.03773 0.74651 0.0
H1001 H 0.95793 0.61421 0.05288 0.0
H1002 H 0.94383 0.66805 0.9798 0.0
H1003 H 0.98223 0.67406 0.97002 0.0
H1004 H 0.00544 0.63607 0.09776 0.0
H1005 H 0.01899 0.61091 0.09807 0.0
H1006 H 0.99048 0.61178 0.1011 0.0
H1007 H 0.9878 0.58716 0.04177 0.0
H1008 H 0.01627 0.58628 0.03847 0.0
H1009 H 0.00079 0.59472 0.99779 0.0
H1010 H 0.02221 0.67336 0.96661 0.0
H1011 H 0.06067 0.66599 0.96973 0.0
H1012 H 0.04821 0.61184 0.04331 0.0
C1013 C 0.96295 0.62751 0.03543 0.0
C1014 C 0.94797 0.64077 0.01728 0.0
C1015 C 0.9551 0.65769 0.99387 0.0
C1016 C 0.97685 0.66126 0.98827 0.0
C1017 C 0.99122 0.64771 0.00617 0.0
C1018 C 0.98456 0.63118 0.02929 0.0
C1019 C 0.00317 0.61833 0.04381 0.0
C1020 C 0.0046 0.61934 0.08779 0.0
C1021 C 0.00193 0.59526 0.0296 0.0
C1022 C 0.02132 0.63014 0.02512 0.0
C1023 C 0.01415 0.6471 0.00368 0.0
C1024 C 0.02802 0.66014 0.98336 0.0
C1025 C 0.04983 0.65573 0.98507 0.0
C1026 C 0.05753 0.63836 0.00682 0.0
C1027 C 0.04295 0.62547 0.02699 0.0
H1028 H 0.53644 0.20306 0.97207 0.0
H1029 H 0.52631 0.1408 0.92241 0.0
H1030 H 0.49682 0.1345 0.96742 0.0
H1031 H 0.52714 0.1874 0.06893 0.0
H1032 H 0.51383 0.21153 0.08262 0.0
H1033 H 0.53325 0.21193 0.04476 0.0
H1034 H 0.50555 0.22845 0.99876 0.0
H1035 H 0.48601 0.22804 0.03649 0.0
H1036 H 0.48053 0.21521 0.99138 0.0
H1037 H 0.46959 0.13413 0.01843 0.0
H1038 H 0.44683 0.13907 0.07517 0.0
H1039 H 0.47449 0.20123 0.09392 0.0
C1040 C 0.52783 0.18822 0.97058 0.0
C1041 C 0.53366 0.17235 0.94396 0.0
C1042 C 0.52223 0.15303 0.94294 0.0
C1043 C 0.50537 0.14937 0.96816 0.0
C1044 C 0.50013 0.16518 0.99433 0.0
C1045 C 0.51101 0.18419 0.99595 0.0
C1046 C 0.50273 0.19796 0.02839 0.0
C1047 C 0.52028 0.20246 0.05792 0.0
C1048 C 0.49313 0.21864 0.01281 0.0
C1049 C 0.48571 0.18357 0.04489 0.0
C1050 C 0.48441 0.16485 0.02447 0.0
C1051 C 0.47042 0.14873 0.03465 0.0
C1052 C 0.45764 0.15164 0.06703 0.0
C1053 C 0.45898 0.17046 0.08905 0.0
C1054 C 0.47297 0.18678 0.07738 0.0
H1055 H 0.83247 0.5229 0.19991 0.0
H1056 H 0.78691 0.569 0.24194 0.0
H1057 H 0.77913 0.5458 0.29724 0.0
H1058 H 0.80351 0.47622 0.22753 0.0
H1059 H 0.82685 0.46161 0.24137 0.0
H1060 H 0.82858 0.48164 0.20468 0.0
H1061 H 0.85816 0.50078 0.24295 0.0
H1062 H 0.8566 0.48074 0.27965 0.0
H1063 H 0.85336 0.5083 0.29207 0.0
H1064 H 0.77674 0.51786 0.34847 0.0
H1065 H 0.78067 0.48776 0.39303 0.0
H1066 H 0.82775 0.4598 0.31746 0.0
C1067 C 0.82101 0.52824 0.22092 0.0
C1068 C 0.81029 0.5478 0.21652 0.0
C1069 C 0.79514 0.55399 0.2444 0.0
C1070 C 0.79067 0.54095 0.27598 0.0
C1071 C 0.80145 0.52176 0.2793 0.0
C1072 C 0.81635 0.51544 0.25259 0.0
C1073 C 0.8259 0.49417 0.26309 0.0
C1074 C 0.8209 0.47742 0.23233 0.0
C1075 C 0.84993 0.49612 0.26985 0.0
C1076 C 0.81417 0.4896 0.30008 0.0
C1077 C 0.80006 0.50566 0.3088 0.0
C1078 C 0.78765 0.50513 0.34182 0.0
C1079 C 0.78987 0.48785 0.36681 0.0
C1080 C 0.80443 0.4713 0.35872 0.0
C1081 C 0.81658 0.47222 0.32465 0.0
H1082 H 0.53797 0.82983 0.57551 0.0
H1083 H 0.55901 0.76434 0.56923 0.0
H1084 H 0.53424 0.75813 0.51547 0.0
H1085 H 0.4837 0.8207 0.55477 0.0
H1086 H 0.48065 0.84433 0.52621 0.0
H1087 H 0.50006 0.84358 0.56405 0.0
H1088 H 0.5296 0.85372 0.51568 0.0
H1089 H 0.51026 0.85464 0.47773 0.0
H1090 H 0.53329 0.8379 0.47314 0.0
H1091 H 0.50633 0.75902 0.46303 0.0
H1092 H 0.47901 0.76745 0.41437 0.0
H1093 H 0.47751 0.83259 0.45424 0.0
C1094 C 0.53773 0.81424 0.5625 0.0
C1095 C 0.55055 0.79759 0.5767 0.0
C1096 C 0.54922 0.77732 0.55925 0.0
C1097 C 0.53526 0.77366 0.52856 0.0
C1098 C 0.5228 0.79043 0.51552 0.0
C1099 C 0.52405 0.81036 0.53179 0.0
C1100 C 0.50902 0.82576 0.51256 0.0
C1101 C 0.49237 0.83407 0.5411 0.0
C1102 C 0.52128 0.84408 0.49365 0.0
C1103 C 0.49907 0.81139 0.48287 0.0
C1104 C 0.50711 0.79104 0.48512 0.0
C1105 C 0.49999 0.77493 0.46095 0.0
C1106 C 0.4844 0.77982 0.43358 0.0
C1107 C 0.47621 0.80068 0.43047 0.0
C1108 C 0.48366 0.81657 0.45562 0.0
H1109 H 0.18052 0.54918 0.80354 0.0
H1110 H 0.2205 0.51638 0.88562 0.0
H1111 H 0.22431 0.48647 0.84049 0.0
H1112 H 0.15263 0.50408 0.77031 0.0
H1113 H 0.15159 0.5125 0.72095 0.0
H1114 H 0.15294 0.53193 0.75869 0.0
H1115 H 0.18653 0.54832 0.7277 0.0
H1116 H 0.18518 0.52903 0.68968 0.0
H1117 H 0.20907 0.53162 0.71769 0.0
H1118 H 0.22143 0.45899 0.78882 0.0
H1119 H 0.21402 0.43671 0.73246 0.0
H1120 H 0.17742 0.4881 0.68221 0.0
C1121 C 0.1902 0.53576 0.81185 0.0
C1122 C 0.2003 0.53514 0.84802 0.0
C1123 C 0.2129 0.51734 0.85784 0.0
C1124 C 0.21504 0.50021 0.8325 0.0
C1125 C 0.20465 0.5012 0.7973 0.0
C1126 C 0.19268 0.5186 0.78675 0.0
C1127 C 0.18296 0.51553 0.7474 0.0
C1128 C 0.15859 0.51604 0.74948 0.0
C1129 C 0.19145 0.53211 0.71894 0.0
C1130 C 0.19101 0.49352 0.73783 0.0
C1131 C 0.20347 0.48554 0.76702 0.0
C1132 C 0.212 0.4652 0.76545 0.0
C1133 C 0.20779 0.4527 0.73309 0.0
C1134 C 0.19529 0.4606 0.7024 0.0
C1135 C 0.18688 0.48138 0.70507 0.0
loop_
_geom_bond_atom_site_label_1
_geom_bond_atom_site_label_2
_geom_bond_distance
_geom_bond_site_symmetry_2
_ccdc_geom_bond_type
Li0 N17 1.990 . S
Li0 O60 1.956 . S
Li0 O61 1.970 . S
Li0 O62 1.961 . S
Li1 N25 1.990 . S
Li1 O60 1.970 . S
Li1 O61 1.956 . S
Li1 O63 1.961 . S
Li2 N47 1.990 . S
Li2 O60 1.961 . S
Li2 O62 1.956 . S
Li2 O63 1.970 . S
Li3 N53 1.990 . S
Li3 O61 1.961 . S
Li3 O62 1.970 . S
Li3 O63 1.956 . S
C4 C6 1.348 . S
C4 C7 1.356 . S
C4 O60 1.325 . S
N5 C8 1.314 . S
N5 C9 1.279 . S
C6 C4 1.348 . S
C6 C8 1.353 . S
C6 H64 0.929 . S
C7 C4 1.356 . S
C7 C9 1.358 . S
C7 H65 0.930 . S
C8 N5 1.314 . S
C8 C6 1.353 . S
C8 H66 0.930 . S
C9 N5 1.279 . S
C9 C7 1.358 . S
C9 H67 0.930 . S
C10 C13 1.348 . S
C10 C14 1.356 . S
C10 O61 1.325 . S
C11 N12 1.279 . S
C11 C14 1.358 . S
C11 H68 0.930 . S
N12 C11 1.279 . S
N12 C15 1.314 . S
C13 C10 1.348 . S
C13 C15 1.353 . S
C13 H69 0.929 . S
C14 C10 1.356 . S
C14 C11 1.358 . S
C14 H70 0.930 . S
C15 N12 1.314 . S
C15 C13 1.353 . S
C15 H71 0.930 . S
C16 N17 1.314 . S
C16 C21 1.353 . S
C16 H22 0.930 . S
N17 Li0 1.990 . S
N17 C16 1.314 . S
N17 C19 1.279 . S
C18 C19 1.358 . S
C18 C20 1.356 . S
C18 H72 0.930 . S
C19 N17 1.279 . S
C19 C18 1.358 . S
C19 H23 0.930 . S
C20 C18 1.356 . S
C20 C21 1.348 . S
C21 C16 1.353 . S
C21 C20 1.348 . S
C21 H73 0.929 . S
H22 C16 0.930 . S
H23 C19 0.930 . S
C24 N25 1.314 . S
C24 C26 1.353 . S
C24 H30 0.930 . S
N25 Li1 1.990 . S
N25 C24 1.314 . S
N25 C28 1.279 . S
C26 C24 1.353 . S
C26 C29 1.348 . S
C26 H74 0.929 . S
C27 C28 1.358 . S
C27 C29 1.356 . S
C27 H75 0.930 . S
C28 N25 1.279 . S
C28 C27 1.358 . S
C28 H31 0.930 . S
C29 C26 1.348 . S
C29 C27 1.356 . S
H30 C24 0.930 . S
H31 C28 0.930 . S
C32 C34 1.348 . S
C32 C35 1.356 . S
C32 O62 1.325 . S
N33 C36 1.314 . S
N33 C37 1.279 . S
C34 C32 1.348 . S
C34 C36 1.353 . S
C34 H76 0.929 . S
C35 C32 1.356 . S
C35 C37 1.358 . S
C35 H77 0.930 . S
C36 N33 1.314 . S
C36 C34 1.353 . S
C36 H78 0.930 . S
C37 N33 1.279 . S
C37 C35 1.358 . S
C37 H79 0.930 . S
C38 C39 1.348 . S
C38 C40 1.356 . S
C38 O63 1.325 . S
C39 C38 1.348 . S
C39 C41 1.353 . S
C39 H80 0.929 . S
C40 C38 1.356 . S
C40 C42 1.358 . S
C40 H81 0.930 . S
C41 C39 1.353 . S
C41 N43 1.314 . S
C41 H82 0.930 . S
C42 C40 1.358 . S
C42 N43 1.279 . S
C42 H83 0.930 . S
N43 C41 1.314 . S
N43 C42 1.279 . S
C44 C46 1.353 . S
C44 N47 1.314 . S
C44 H50 0.930 . S
C45 N47 1.279 . S
C45 C48 1.358 . S
C45 H51 0.930 . S
C46 C44 1.353 . S
C46 C49 1.348 . S
C46 H84 0.929 . S
N47 Li2 1.990 . S
N47 C44 1.314 . S
N47 C45 1.279 . S
C48 C45 1.358 . S
C48 C49 1.356 . S
C48 H85 0.930 . S
C49 C46 1.348 . S
C49 C48 1.356 . S
H50 C44 0.930 . S
H51 C45 0.930 . S
C52 N53 1.314 . S
C52 C54 1.353 . S
C52 H58 0.930 . S
N53 Li3 1.990 . S
N53 C52 1.314 . S
N53 C56 1.279 . S
C54 C52 1.353 . S
C54 C57 1.348 . S
C54 H86 0.929 . S
C55 C56 1.358 . S
C55 C57 1.356 . S
C55 H87 0.930 . S
C56 N53 1.279 . S
C56 C55 1.358 . S
C56 H59 0.930 . S
C57 C54 1.348 . S
C57 C55 1.356 . S
H58 C52 0.930 . S
H59 C56 0.930 . S
O60 Li0 1.956 . S
O60 Li1 1.970 . S
O60 Li2 1.961 . S
O60 C4 1.325 . S
O61 Li0 1.970 . S
O61 Li1 1.956 . S
O61 Li3 1.961 . S
O61 C10 1.325 . S
O62 Li0 1.961 . S
O62 Li2 1.956 . S
O62 Li3 1.970 . S
O62 C32 1.325 . S
O63 Li1 1.961 . S
O63 Li2 1.970 . S
O63 Li3 1.956 . S
O63 C38 1.325 . S
H64 C6 0.929 . S
H65 C7 0.930 . S
H66 C8 0.930 . S
H67 C9 0.930 . S
H68 C11 0.930 . S
H69 C13 0.929 . S
H70 C14 0.930 . S
H71 C15 0.930 . S
H72 C18 0.930 . S
H73 C21 0.929 . S
H74 C26 0.929 . S
H75 C27 0.930 . S
H76 C34 0.929 . S
H77 C35 0.930 . S
H78 C36 0.930 . S
H79 C37 0.930 . S
H80 C39 0.929 . S
H81 C40 0.930 . S
H82 C41 0.930 . S
H83 C42 0.930 . S
H84 C46 0.929 . S
H85 C48 0.930 . S
H86 C54 0.929 . S
H87 C55 0.930 . S
Li88 N105 1.990 . S
Li88 O148 1.956 . S
Li88 O149 1.970 . S
Li88 O150 1.961 . S
Li89 N113 1.990 . S
Li89 O148 1.970 . S
Li89 O149 1.956 . S
Li89 O151 1.961 . S
Li90 N135 1.990 . S
Li90 O148 1.961 . S
Li90 O150 1.956 . S
Li90 O151 1.970 . S
Li91 N141 1.990 . S
Li91 O149 1.961 . S
Li91 O150 1.970 . S
Li91 O151 1.956 . S
C92 C94 1.348 . S
C92 C95 1.356 . S
C92 O148 1.325 . S
N93 C96 1.314 . S
N93 C97 1.279 . S
C94 C92 1.348 . S
C94 C96 1.353 . S
C94 H152 0.929 . S
C95 C92 1.356 . S
C95 C97 1.358 . S
C95 H153 0.930 . S
C96 N93 1.314 . S
C96 C94 1.353 . S
C96 H154 0.930 . S
C97 N93 1.279 . S
C97 C95 1.358 . S
C97 H155 0.930 . S
C98 C101 1.348 . S
C98 C102 1.356 . S
C98 O149 1.325 . S
C99 N100 1.279 . S
C99 C102 1.358 . S
C99 H156 0.930 . S
N100 C99 1.279 . S
N100 C103 1.314 . S
C101 C98 1.348 . S
C101 C103 1.353 . S
C101 H157 0.929 . S
C102 C98 1.356 . S
C102 C99 1.358 . S
C102 H158 0.930 . S
C103 N100 1.314 . S
C103 C101 1.353 . S
C103 H159 0.930 . S
C104 N105 1.314 . S
C104 C109 1.353 . S
C104 H110 0.930 . S
N105 Li88 1.990 . S
N105 C104 1.314 . S
N105 C107 1.279 . S
C106 C107 1.358 . S
C106 C108 1.356 . S
C106 H160 0.930 . S
C107 N105 1.279 . S
C107 C106 1.358 . S
C107 H111 0.930 . S
C108 C106 1.356 . S
C108 C109 1.348 . S
C109 C104 1.353 . S
C109 C108 1.348 . S
C109 H161 0.929 . S
H110 C104 0.930 . S
H111 C107 0.930 . S
C112 N113 1.314 . S
C112 C114 1.353 . S
C112 H118 0.930 . S
N113 Li89 1.990 . S
N113 C112 1.314 . S
N113 C116 1.279 . S
C114 C112 1.353 . S
C114 C117 1.348 . S
C114 H162 0.929 . S
C115 C116 1.358 . S
C115 C117 1.356 . S
C115 H163 0.930 . S
C116 N113 1.279 . S
C116 C115 1.358 . S
C116 H119 0.930 . S
C117 C114 1.348 . S
C117 C115 1.356 . S
H118 C112 0.930 . S
H119 C116 0.930 . S
C120 C122 1.348 . S
C120 C123 1.356 . S
C120 O150 1.325 . S
N121 C124 1.314 . S
N121 C125 1.279 . S
C122 C120 1.348 . S
C122 C124 1.353 . S
C122 H164 0.929 . S
C123 C120 1.356 . S
C123 C125 1.358 . S
C123 H165 0.930 . S
C124 N121 1.314 . S
C124 C122 1.353 . S
C124 H166 0.930 . S
C125 N121 1.279 . S
C125 C123 1.358 . S
C125 H167 0.930 . S
C126 C127 1.348 . S
C126 C128 1.356 . S
C126 O151 1.325 . S
C127 C126 1.348 . S
C127 C129 1.353 . S
C127 H168 0.929 . S
C128 C126 1.356 . S
C128 C130 1.358 . S
C128 H169 0.930 . S
C129 C127 1.353 . S
C129 N131 1.314 . S
C129 H170 0.930 . S
C130 C128 1.358 . S
C130 N131 1.279 . S
C130 H171 0.930 . S
N131 C129 1.314 . S
N131 C130 1.279 . S
C132 C134 1.353 . S
C132 N135 1.314 . S
C132 H138 0.930 . S
C133 N135 1.279 . S
C133 C136 1.358 . S
C133 H139 0.930 . S
C134 C132 1.353 . S
C134 C137 1.348 . S
C134 H172 0.929 . S
N135 Li90 1.990 . S
N135 C132 1.314 . S
N135 C133 1.279 . S
C136 C133 1.358 . S
C136 C137 1.356 . S
C136 H173 0.930 . S
C137 C134 1.348 . S
C137 C136 1.356 . S
H138 C132 0.930 . S
H139 C133 0.930 . S
C140 N141 1.314 . S
C140 C142 1.353 . S
C140 H146 0.930 . S
N141 Li91 1.990 . S
N141 C140 1.314 . S
N141 C144 1.279 . S
C142 C140 1.353 . S
C142 C145 1.348 . S
C142 H174 0.929 . S
C143 C144 1.358 . S
C143 C145 1.356 . S
C143 H175 0.930 . S
C144 N141 1.279 . S
C144 C143 1.358 . S
C144 H147 0.930 . S
C145 C142 1.348 . S
C145 C143 1.356 . S
H146 C140 0.930 . S
H147 C144 0.930 . S
O148 Li88 1.956 . S
O148 Li89 1.970 . S
O148 Li90 1.961 . S
O148 C92 1.325 . S
O149 Li88 1.970 . S
O149 Li89 1.956 . S
O149 Li91 1.961 . S
O149 C98 1.325 . S
O150 Li88 1.961 . S
O150 Li90 1.956 . S
O150 Li91 1.970 . S
O150 C120 1.325 . S
O151 Li89 1.961 . S
O151 Li90 1.970 . S
O151 Li91 1.956 . S
O151 C126 1.325 . S
H152 C94 0.929 . S
H153 C95 0.930 . S
H154 C96 0.930 . S
H155 C97 0.930 . S
H156 C99 0.930 . S
H157 C101 0.929 . S
H158 C102 0.930 . S
H159 C103 0.930 . S
H160 C106 0.930 . S
H161 C109 0.929 . S
H162 C114 0.929 . S
H163 C115 0.930 . S
H164 C122 0.929 . S
H165 C123 0.930 . S
H166 C124 0.930 . S
H167 C125 0.930 . S
H168 C127 0.929 . S
H169 C128 0.930 . S
H170 C129 0.930 . S
H171 C130 0.930 . S
H172 C134 0.929 . S
H173 C136 0.930 . S
H174 C142 0.929 . S
H175 C143 0.930 . S
Li176 N193 1.990 . S
Li176 O236 1.956 . S
Li176 O237 1.970 . S
Li176 O238 1.961 . S
Li177 N201 1.990 . S
Li177 O236 1.970 . S
Li177 O237 1.956 . S
Li177 O239 1.961 . S
Li178 N223 1.990 . S
Li178 O236 1.961 . S
Li178 O238 1.956 . S
Li178 O239 1.970 . S
Li179 N229 1.990 . S
Li179 O237 1.961 . S
Li179 O238 1.970 . S
Li179 O239 1.956 . S
C180 C182 1.348 . S
C180 C183 1.356 . S
C180 O236 1.325 . S
N181 C184 1.314 . S
N181 C185 1.279 . S
C182 C180 1.348 . S
C182 C184 1.353 . S
C182 H240 0.929 . S
C183 C180 1.356 . S
C183 C185 1.358 . S
C183 H241 0.930 . S
C184 N181 1.314 . S
C184 C182 1.353 . S
C184 H242 0.930 . S
C185 N181 1.279 . S
C185 C183 1.358 . S
C185 H243 0.930 . S
C186 C189 1.348 . S
C186 C190 1.356 . S
C186 O237 1.325 . S
C187 N188 1.279 . S
C187 C190 1.358 . S
C187 H244 0.930 . S
N188 C187 1.279 . S
N188 C191 1.314 . S
C189 C186 1.348 . S
C189 C191 1.353 . S
C189 H245 0.929 . S
C190 C186 1.356 . S
C190 C187 1.358 . S
C190 H246 0.930 . S
C191 N188 1.314 . S
C191 C189 1.353 . S
C191 H247 0.930 . S
C192 N193 1.314 . S
C192 C197 1.353 . S
C192 H198 0.930 . S
N193 Li176 1.990 . S
N193 C192 1.314 . S
N193 C195 1.279 . S
C194 C195 1.358 . S
C194 C196 1.356 . S
C194 H248 0.930 . S
C195 N193 1.279 . S
C195 C194 1.358 . S
C195 H199 0.930 . S
C196 C194 1.356 . S
C196 C197 1.348 . S
C197 C192 1.353 . S
C197 C196 1.348 . S
C197 H249 0.929 . S
H198 C192 0.930 . S
H199 C195 0.930 . S
C200 N201 1.314 . S
C200 C202 1.353 . S
C200 H206 0.930 . S
N201 Li177 1.990 . S
N201 C200 1.314 . S
N201 C204 1.279 . S
C202 C200 1.353 . S
C202 C205 1.348 . S
C202 H250 0.929 . S
C203 C204 1.358 . S
C203 C205 1.356 . S
C203 H251 0.930 . S
C204 N201 1.279 . S
C204 C203 1.358 . S
C204 H207 0.930 . S
C205 C202 1.348 . S
C205 C203 1.356 . S
H206 C200 0.930 . S
H207 C204 0.930 . S
C208 C210 1.348 . S
C208 C211 1.356 . S
C208 O238 1.325 . S
N209 C212 1.314 . S
N209 C213 1.279 . S
C210 C208 1.348 . S
C210 C212 1.353 . S
C210 H252 0.929 . S
C211 C208 1.356 . S
C211 C213 1.358 . S
C211 H253 0.930 . S
C212 N209 1.314 . S
C212 C210 1.353 . S
C212 H254 0.930 . S
C213 N209 1.279 . S
C213 C211 1.358 . S
C213 H255 0.930 . S
C214 C215 1.348 . S
C214 C216 1.356 . S
C214 O239 1.325 . S
C215 C214 1.348 . S
C215 C217 1.353 . S
C215 H256 0.929 . S
C216 C214 1.356 . S
C216 C218 1.358 . S
C216 H257 0.930 . S
C217 C215 1.353 . S
C217 N219 1.314 . S
C217 H258 0.930 . S
C218 C216 1.358 . S
C218 N219 1.279 . S
C218 H259 0.930 . S
N219 C217 1.314 . S
N219 C218 1.279 . S
C220 C222 1.353 . S
C220 N223 1.314 . S
C220 H226 0.930 . S
C221 N223 1.279 . S
C221 C224 1.358 . S
C221 H227 0.930 . S
C222 C220 1.353 . S
C222 C225 1.348 . S
C222 H260 0.929 . S
N223 Li178 1.990 . S
N223 C220 1.314 . S
N223 C221 1.279 . S
C224 C221 1.358 . S
C224 C225 1.356 . S
C224 H261 0.930 . S
C225 C222 1.348 . S
C225 C224 1.356 . S
H226 C220 0.930 . S
H227 C221 0.930 . S
C228 N229 1.314 . S
C228 C230 1.353 . S
C228 H234 0.930 . S
N229 Li179 1.990 . S
N229 C228 1.314 . S
N229 C232 1.279 . S
C230 C228 1.353 . S
C230 C233 1.348 . S
C230 H262 0.929 . S
C231 C232 1.358 . S
C231 C233 1.356 . S
C231 H263 0.930 . S
C232 N229 1.279 . S
C232 C231 1.358 . S
C232 H235 0.930 . S
C233 C230 1.348 . S
C233 C231 1.356 . S
H234 C228 0.930 . S
H235 C232 0.930 . S
O236 Li176 1.956 . S
O236 Li177 1.970 . S
O236 Li178 1.961 . S
O236 C180 1.325 . S
O237 Li176 1.970 . S
O237 Li177 1.956 . S
O237 Li179 1.961 . S
O237 C186 1.325 . S
O238 Li176 1.961 . S
O238 Li178 1.956 . S
O238 Li179 1.970 . S
O238 C208 1.325 . S
O239 Li177 1.961 . S
O239 Li178 1.970 . S
O239 Li179 1.956 . S
O239 C214 1.325 . S
H240 C182 0.929 . S
H241 C183 0.930 . S
H242 C184 0.930 . S
H243 C185 0.930 . S
H244 C187 0.930 . S
H245 C189 0.929 . S
H246 C190 0.930 . S
H247 C191 0.930 . S
H248 C194 0.930 . S
H249 C197 0.929 . S
H250 C202 0.929 . S
H251 C203 0.930 . S
H252 C210 0.929 . S
H253 C211 0.930 . S
H254 C212 0.930 . S
H255 C213 0.930 . S
H256 C215 0.929 . S
H257 C216 0.930 . S
H258 C217 0.930 . S
H259 C218 0.930 . S
H260 C222 0.929 . S
H261 C224 0.930 . S
H262 C230 0.929 . S
H263 C231 0.930 . S
Li264 N281 1.990 . S
Li264 O324 1.956 . S
Li264 O325 1.970 . S
Li264 O326 1.961 1_554 S
Li265 N289 1.990 . S
Li265 O324 1.970 . S
Li265 O325 1.956 . S
Li265 O327 1.961 . S
Li266 N311 1.990 . S
Li266 O324 1.961 . S
Li266 O326 1.956 1_554 S
Li266 O327 1.970 . S
Li267 N317 1.990 . S
Li267 O325 1.961 1_556 S
Li267 O326 1.970 . S
Li267 O327 1.956 1_556 S
C268 C270 1.348 . S
C268 C271 1.356 . S
C268 O324 1.325 . S
N269 C272 1.314 . S
N269 C273 1.279 . S
C270 C268 1.348 . S
C270 C272 1.353 . S
C270 H328 0.929 . S
C271 C268 1.356 . S
C271 C273 1.358 . S
C271 H329 0.930 . S
C272 N269 1.314 . S
C272 C270 1.353 . S
C272 H330 0.930 . S
C273 N269 1.279 . S
C273 C271 1.358 . S
C273 H331 0.930 . S
C274 C277 1.348 . S
C274 C278 1.356 . S
C274 O325 1.325 . S
C275 N276 1.279 . S
C275 C278 1.358 . S
C275 H332 0.925 1_554 S
N276 C275 1.279 . S
N276 C279 1.314 . S
C277 C274 1.348 . S
C277 C279 1.353 . S
C277 H333 0.929 . S
C278 C274 1.356 . S
C278 C275 1.358 . S
C278 H334 0.930 . S
C279 N276 1.314 . S
C279 C277 1.353 . S
C279 H335 0.930 . S
C280 N281 1.314 1_556 S
C280 C285 1.353 . S
C280 H286 0.930 . S
N281 Li264 1.990 . S
N281 C280 1.314 1_554 S
N281 C283 1.279 . S
C282 C283 1.358 . S
C282 C284 1.356 . S
C282 H336 0.930 . S
C283 N281 1.279 . S
C283 C282 1.358 . S
C283 H287 0.930 . S
C284 C282 1.356 . S
C284 C285 1.348 1_554 S
C285 C280 1.353 . S
C285 C284 1.348 1_556 S
C285 H337 0.929 . S
H286 C280 0.930 . S
H287 C283 0.930 . S
C288 N289 1.314 . S
C288 C290 1.353 . S
C288 H294 0.930 . S
N289 Li265 1.990 . S
N289 C288 1.314 . S
N289 C292 1.279 . S
C290 C288 1.353 . S
C290 C293 1.348 . S
C290 H338 0.929 . S
C291 C292 1.358 . S
C291 C293 1.356 . S
C291 H339 0.930 . S
C292 N289 1.279 . S
C292 C291 1.358 . S
C292 H295 0.930 . S
C293 C290 1.348 . S
C293 C291 1.356 . S
H294 C288 0.930 . S
H295 C292 0.930 . S
C296 C298 1.348 . S
C296 C299 1.356 . S
C296 O326 1.325 . S
N297 C300 1.314 . S
N297 C301 1.279 . S
C298 C296 1.348 . S
C298 C300 1.353 . S
C298 H340 0.929 . S
C299 C296 1.356 . S
C299 C301 1.358 . S
C299 H341 0.930 . S
C300 N297 1.314 . S
C300 C298 1.353 . S
C300 H342 0.930 . S
C301 N297 1.279 . S
C301 C299 1.358 . S
C301 H343 0.930 . S
C302 C303 1.348 . S
C302 C304 1.356 . S
C302 O327 1.325 . S
C303 C302 1.348 . S
C303 C305 1.353 . S
C303 H344 0.929 . S
C304 C302 1.356 . S
C304 C306 1.358 . S
C304 H345 0.930 . S
C305 C303 1.353 . S
C305 N307 1.314 . S
C305 H346 0.930 . S
C306 C304 1.358 . S
C306 N307 1.279 . S
C306 H347 0.930 . S
N307 C305 1.314 . S
N307 C306 1.279 . S
C308 C310 1.353 . S
C308 N311 1.314 . S
C308 H314 0.930 . S
C309 N311 1.279 . S
C309 C312 1.358 . S
C309 H315 0.930 1_554 S
C310 C308 1.353 . S
C310 C313 1.348 . S
C310 H348 0.929 . S
N311 Li266 1.990 . S
N311 C308 1.314 . S
N311 C309 1.279 . S
C312 C309 1.358 . S
C312 C313 1.356 . S
C312 H349 0.930 . S
C313 C310 1.348 . S
C313 C312 1.356 . S
H314 C308 0.930 . S
H315 C309 0.930 1_556 S
C316 N317 1.314 . S
C316 C318 1.353 . S
C316 H322 0.930 . S
N317 Li267 1.990 . S
N317 C316 1.314 . S
N317 C320 1.279 . S
C318 C316 1.353 . S
C318 C321 1.348 . S
C318 H350 0.929 . S
C319 C320 1.358 . S
C319 C321 1.356 . S
C319 H351 0.930 . S
C320 N317 1.279 . S
C320 C319 1.358 . S
C320 H323 0.930 . S
C321 C318 1.348 . S
C321 C319 1.356 . S
H322 C316 0.930 . S
H323 C320 0.930 . S
O324 Li264 1.956 . S
O324 Li265 1.970 . S
O324 Li266 1.961 . S
O324 C268 1.325 . S
O325 Li264 1.970 . S
O325 Li265 1.956 . S
O325 Li267 1.961 1_554 S
O325 C274 1.325 . S
O326 Li264 1.961 1_556 S
O326 Li266 1.956 1_556 S
O326 Li267 1.970 . S
O326 C296 1.325 . S
O327 Li265 1.961 . S
O327 Li266 1.970 . S
O327 Li267 1.956 1_554 S
O327 C302 1.325 . S
H328 C270 0.929 . S
H329 C271 0.930 . S
H330 C272 0.930 . S
H331 C273 0.930 . S
H332 C275 0.925 1_556 S
H333 C277 0.929 . S
H334 C278 0.930 . S
H335 C279 0.930 . S
H336 C282 0.930 . S
H337 C285 0.929 . S
H338 C290 0.929 . S
H339 C291 0.930 . S
H340 C298 0.929 . S
H341 C299 0.930 . S
H342 C300 0.930 . S
H343 C301 0.930 . S
H344 C303 0.929 . S
H345 C304 0.930 . S
H346 C305 0.930 . S
H347 C306 0.930 . S
H348 C310 0.929 . S
H349 C312 0.930 . S
H350 C318 0.929 . S
H351 C319 0.930 . S
Li352 N369 1.990 . S
Li352 O412 1.956 . S
Li352 O413 1.970 . S
Li352 O414 1.961 . S
Li353 N377 1.990 . S
Li353 O412 1.970 . S
Li353 O413 1.956 . S
Li353 O415 1.961 . S
Li354 N399 1.990 . S
Li354 O412 1.961 . S
Li354 O414 1.956 . S
Li354 O415 1.970 . S
Li355 N405 1.990 . S
Li355 O413 1.961 . S
Li355 O414 1.970 . S
Li355 O415 1.956 . S
C356 C358 1.348 . S
C356 C359 1.356 . S
C356 O412 1.325 . S
N357 C360 1.314 . S
N357 C361 1.279 . S
C358 C356 1.348 . S
C358 C360 1.353 . S
C358 H416 0.929 . S
C359 C356 1.356 . S
C359 C361 1.358 . S
C359 H417 0.930 . S
C360 N357 1.314 . S
C360 C358 1.353 . S
C360 H418 0.930 . S
C361 N357 1.279 . S
C361 C359 1.358 . S
C361 H419 0.930 . S
C362 C365 1.348 . S
C362 C366 1.356 . S
C362 O413 1.325 . S
C363 N364 1.279 . S
C363 C366 1.358 . S
C363 H420 0.930 . S
N364 C363 1.279 . S
N364 C367 1.314 . S
C365 C362 1.348 . S
C365 C367 1.353 . S
C365 H421 0.929 . S
C366 C362 1.356 . S
C366 C363 1.358 . S
C366 H422 0.930 . S
C367 N364 1.314 . S
C367 C365 1.353 . S
C367 H423 0.930 . S
C368 N369 1.314 . S
C368 C373 1.353 . S
C368 H374 0.930 . S
N369 Li352 1.990 . S
N369 C368 1.314 . S
N369 C371 1.279 . S
C370 C371 1.358 . S
C370 C372 1.356 . S
C370 H424 0.930 . S
C371 N369 1.279 . S
C371 C370 1.358 . S
C371 H375 0.930 . S
C372 C370 1.356 . S
C372 C373 1.348 . S
C373 C368 1.353 . S
C373 C372 1.348 . S
C373 H425 0.929 . S
H374 C368 0.930 . S
H375 C371 0.930 . S
C376 N377 1.314 . S
C376 C378 1.353 . S
C376 H382 0.930 . S
N377 Li353 1.990 . S
N377 C376 1.314 . S
N377 C380 1.279 . S
C378 C376 1.353 . S
C378 C381 1.348 . S
C378 H426 0.929 . S
C379 C380 1.358 . S
C379 C381 1.356 . S
C379 H427 0.930 . S
C380 N377 1.279 . S
C380 C379 1.358 . S
C380 H383 0.930 . S
C381 C378 1.348 . S
C381 C379 1.356 . S
H382 C376 0.930 . S
H383 C380 0.930 . S
C384 C386 1.348 . S
C384 C387 1.356 . S
C384 O414 1.325 . S
N385 C388 1.314 . S
N385 C389 1.279 . S
C386 C384 1.348 . S
C386 C388 1.353 . S
C386 H428 0.929 . S
C387 C384 1.356 . S
C387 C389 1.358 . S
C387 H429 0.930 . S
C388 N385 1.314 . S
C388 C386 1.353 . S
C388 H430 0.930 . S
C389 N385 1.279 . S
C389 C387 1.358 . S
C389 H431 0.930 . S
C390 C391 1.348 . S
C390 C392 1.356 . S
C390 O415 1.325 . S
C391 C390 1.348 . S
C391 C393 1.353 . S
C391 H432 0.929 . S
C392 C390 1.356 . S
C392 C394 1.358 . S
C392 H433 0.930 . S
C393 C391 1.353 . S
C393 N395 1.314 . S
C393 H434 0.930 . S
C394 C392 1.358 . S
C394 N395 1.279 . S
C394 H435 0.930 . S
N395 C393 1.314 . S
N395 C394 1.279 . S
C396 C398 1.353 . S
C396 N399 1.314 . S
C396 H402 0.930 . S
C397 N399 1.279 . S
C397 C400 1.358 . S
C397 H403 0.930 . S
C398 C396 1.353 . S
C398 C401 1.348 . S
C398 H436 0.929 . S
N399 Li354 1.990 . S
N399 C396 1.314 . S
N399 C397 1.279 . S
C400 C397 1.358 . S
C400 C401 1.356 . S
C400 H437 0.930 . S
C401 C398 1.348 . S
C401 C400 1.356 . S
H402 C396 0.930 . S
H403 C397 0.930 . S
C404 N405 1.314 . S
C404 C406 1.353 . S
C404 H410 0.930 . S
N405 Li355 1.990 . S
N405 C404 1.314 . S
N405 C408 1.279 . S
C406 C404 1.353 . S
C406 C409 1.348 . S
C406 H438 0.929 . S
C407 C408 1.358 . S
C407 C409 1.356 . S
C407 H439 0.930 . S
C408 N405 1.279 . S
C408 C407 1.358 . S
C408 H411 0.930 . S
C409 C406 1.348 . S
C409 C407 1.356 . S
H410 C404 0.930 . S
H411 C408 0.930 . S
O412 Li352 1.956 . S
O412 Li353 1.970 . S
O412 Li354 1.961 . S
O412 C356 1.325 . S
O413 Li352 1.970 . S
O413 Li353 1.956 . S
O413 Li355 1.961 . S
O413 C362 1.325 . S
O414 Li352 1.961 . S
O414 Li354 1.956 . S
O414 Li355 1.970 . S
O414 C384 1.325 . S
O415 Li353 1.961 . S
O415 Li354 1.970 . S
O415 Li355 1.956 . S
O415 C390 1.325 . S
H416 C358 0.929 . S
H417 C359 0.930 . S
H418 C360 0.930 . S
H419 C361 0.930 . S
H420 C363 0.930 . S
H421 C365 0.929 . S
H422 C366 0.930 . S
H423 C367 0.930 . S
H424 C370 0.930 . S
H425 C373 0.929 . S
H426 C378 0.929 . S
H427 C379 0.930 . S
H428 C386 0.929 . S
H429 C387 0.930 . S
H430 C388 0.930 . S
H431 C389 0.930 . S
H432 C391 0.929 . S
H433 C392 0.930 . S
H434 C393 0.930 . S
H435 C394 0.930 . S
H436 C398 0.929 . S
H437 C400 0.930 . S
H438 C406 0.929 . S
H439 C407 0.930 . S
Li440 N457 1.990 . S
Li440 O500 1.956 . S
Li440 O501 1.970 . S
Li440 O502 1.961 . S
Li441 N465 1.990 . S
Li441 O500 1.970 . S
Li441 O501 1.956 . S
Li441 O503 1.961 . S
Li442 N487 1.990 . S
Li442 O500 1.961 . S
Li442 O502 1.956 . S
Li442 O503 1.970 . S
Li443 N493 1.990 . S
Li443 O501 1.961 . S
Li443 O502 1.970 . S
Li443 O503 1.956 . S
C444 C446 1.348 . S
C444 C447 1.356 . S
C444 O500 1.325 . S
N445 C448 1.314 . S
N445 C449 1.279 . S
C446 C444 1.348 . S
C446 C448 1.353 . S
C446 H504 0.929 . S
C447 C444 1.356 . S
C447 C449 1.358 . S
C447 H505 0.930 . S
C448 N445 1.314 . S
C448 C446 1.353 . S
C448 H506 0.930 . S
C449 N445 1.279 . S
C449 C447 1.358 . S
C449 H507 0.930 . S
C450 C453 1.348 . S
C450 C454 1.356 . S
C450 O501 1.325 . S
C451 N452 1.279 . S
C451 C454 1.358 . S
C451 H508 0.930 . S
N452 C451 1.279 . S
N452 C455 1.314 . S
C453 C450 1.348 . S
C453 C455 1.353 . S
C453 H509 0.929 . S
C454 C450 1.356 . S
C454 C451 1.358 . S
C454 H510 0.930 . S
C455 N452 1.314 . S
C455 C453 1.353 . S
C455 H511 0.930 . S
C456 N457 1.314 . S
C456 C461 1.353 . S
C456 H462 0.930 . S
N457 Li440 1.990 . S
N457 C456 1.314 . S
N457 C459 1.279 . S
C458 C459 1.358 . S
C458 C460 1.356 . S
C458 H512 0.930 . S
C459 N457 1.279 . S
C459 C458 1.358 . S
C459 H463 0.930 . S
C460 C458 1.356 . S
C460 C461 1.348 . S
C461 C456 1.353 . S
C461 C460 1.348 . S
C461 H513 0.929 . S
H462 C456 0.930 . S
H463 C459 0.930 . S
C464 N465 1.314 . S
C464 C466 1.353 . S
C464 H470 0.930 . S
N465 Li441 1.990 . S
N465 C464 1.314 . S
N465 C468 1.279 . S
C466 C464 1.353 . S
C466 C469 1.348 . S
C466 H514 0.929 . S
C467 C468 1.358 . S
C467 C469 1.356 . S
C467 H515 0.930 . S
C468 N465 1.279 . S
C468 C467 1.358 . S
C468 H471 0.930 . S
C469 C466 1.348 . S
C469 C467 1.356 . S
H470 C464 0.930 . S
H471 C468 0.930 . S
C472 C474 1.348 . S
C472 C475 1.356 . S
C472 O502 1.325 . S
N473 C476 1.314 . S
N473 C477 1.279 . S
C474 C472 1.348 . S
C474 C476 1.353 . S
C474 H516 0.929 . S
C475 C472 1.356 . S
C475 C477 1.358 . S
C475 H517 0.930 . S
C476 N473 1.314 . S
C476 C474 1.353 . S
C476 H518 0.930 . S
C477 N473 1.279 . S
C477 C475 1.358 . S
C477 H519 0.930 . S
C478 C479 1.348 . S
C478 C480 1.356 . S
C478 O503 1.325 . S
C479 C478 1.348 . S
C479 C481 1.353 . S
C479 H520 0.929 . S
C480 C478 1.356 . S
C480 C482 1.358 . S
C480 H521 0.930 . S
C481 C479 1.353 . S
C481 N483 1.314 . S
C481 H522 0.930 . S
C482 C480 1.358 . S
C482 N483 1.279 . S
C482 H523 0.930 . S
N483 C481 1.314 . S
N483 C482 1.279 . S
C484 C486 1.353 . S
C484 N487 1.314 . S
C484 H490 0.930 . S
C485 N487 1.279 . S
C485 C488 1.358 . S
C485 H491 0.930 . S
C486 C484 1.353 . S
C486 C489 1.348 . S
C486 H524 0.929 . S
N487 Li442 1.990 . S
N487 C484 1.314 . S
N487 C485 1.279 . S
C488 C485 1.358 . S
C488 C489 1.356 . S
C488 H525 0.930 . S
C489 C486 1.348 . S
C489 C488 1.356 . S
H490 C484 0.930 . S
H491 C485 0.930 . S
C492 N493 1.314 . S
C492 C494 1.353 . S
C492 H498 0.930 . S
N493 Li443 1.990 . S
N493 C492 1.314 . S
N493 C496 1.279 . S
C494 C492 1.353 . S
C494 C497 1.348 . S
C494 H526 0.929 . S
C495 C496 1.358 . S
C495 C497 1.356 . S
C495 H527 0.930 . S
C496 N493 1.279 . S
C496 C495 1.358 . S
C496 H499 0.930 . S
C497 C494 1.348 . S
C497 C495 1.356 . S
H498 C492 0.930 . S
H499 C496 0.930 . S
O500 Li440 1.956 . S
O500 Li441 1.970 . S
O500 Li442 1.961 . S
O500 C444 1.325 . S
O501 Li440 1.970 . S
O501 Li441 1.956 . S
O501 Li443 1.961 . S
O501 C450 1.325 . S
O502 Li440 1.961 . S
O502 Li442 1.956 . S
O502 Li443 1.970 . S
O502 C472 1.325 . S
O503 Li441 1.961 . S
O503 Li442 1.970 . S
O503 Li443 1.956 . S
O503 C478 1.325 . S
H504 C446 0.929 . S
H505 C447 0.930 . S
H506 C448 0.930 . S
H507 C449 0.930 . S
H508 C451 0.930 . S
H509 C453 0.929 . S
H510 C454 0.930 . S
H511 C455 0.930 . S
H512 C458 0.930 . S
H513 C461 0.929 . S
H514 C466 0.929 . S
H515 C467 0.930 . S
H516 C474 0.929 . S
H517 C475 0.930 . S
H518 C476 0.930 . S
H519 C477 0.930 . S
H520 C479 0.929 . S
H521 C480 0.930 . S
H522 C481 0.930 . S
H523 C482 0.930 . S
H524 C486 0.929 . S
H525 C488 0.930 . S
H526 C494 0.929 . S
H527 C495 0.930 . S
Li528 N545 1.990 . S
Li528 O588 1.956 . S
Li528 O589 1.970 . S
Li528 O590 1.961 . S
Li529 N553 1.990 . S
Li529 O588 1.970 . S
Li529 O589 1.956 . S
Li529 O591 1.961 . S
Li530 N575 1.990 . S
Li530 O588 1.961 . S
Li530 O590 1.956 . S
Li530 O591 1.970 . S
Li531 N581 1.990 . S
Li531 O589 1.961 . S
Li531 O590 1.970 . S
Li531 O591 1.956 . S
C532 C534 1.348 . S
C532 C535 1.356 . S
C532 O588 1.325 . S
N533 C536 1.314 . S
N533 C537 1.279 . S
C534 C532 1.348 . S
C534 C536 1.353 . S
C534 H592 0.929 . S
C535 C532 1.356 . S
C535 C537 1.358 . S
C535 H593 0.930 . S
C536 N533 1.314 . S
C536 C534 1.353 . S
C536 H594 0.930 . S
C537 N533 1.279 . S
C537 C535 1.358 . S
C537 H595 0.930 . S
C538 C541 1.348 . S
C538 C542 1.356 . S
C538 O589 1.325 . S
C539 N540 1.279 . S
C539 C542 1.358 . S
C539 H596 0.930 . S
N540 C539 1.279 . S
N540 C543 1.314 . S
C541 C538 1.348 . S
C541 C543 1.353 . S
C541 H597 0.929 . S
C542 C538 1.356 . S
C542 C539 1.358 . S
C542 H598 0.930 . S
C543 N540 1.314 . S
C543 C541 1.353 . S
C543 H599 0.930 . S
C544 N545 1.314 . S
C544 C549 1.353 . S
C544 H550 0.930 . S
N545 Li528 1.990 . S
N545 C544 1.314 . S
N545 C547 1.279 . S
C546 C547 1.358 . S
C546 C548 1.356 . S
C546 H600 0.930 . S
C547 N545 1.279 . S
C547 C546 1.358 . S
C547 H551 0.930 . S
C548 C546 1.356 . S
C548 C549 1.348 . S
C549 C544 1.353 . S
C549 C548 1.348 . S
C549 H601 0.929 . S
H550 C544 0.930 . S
H551 C547 0.930 . S
C552 N553 1.314 . S
C552 C554 1.353 . S
C552 H558 0.930 . S
N553 Li529 1.990 . S
N553 C552 1.314 . S
N553 C556 1.279 . S
C554 C552 1.353 . S
C554 C557 1.348 . S
C554 H602 0.929 . S
C555 C556 1.358 . S
C555 C557 1.356 . S
C555 H603 0.930 . S
C556 N553 1.279 . S
C556 C555 1.358 . S
C556 H559 0.930 . S
C557 C554 1.348 . S
C557 C555 1.356 . S
H558 C552 0.930 . S
H559 C556 0.930 . S
C560 C562 1.348 . S
C560 C563 1.356 . S
C560 O590 1.325 . S
N561 C564 1.314 . S
N561 C565 1.279 . S
C562 C560 1.348 . S
C562 C564 1.353 . S
C562 H604 0.929 . S
C563 C560 1.356 . S
C563 C565 1.358 . S
C563 H605 0.930 . S
C564 N561 1.314 . S
C564 C562 1.353 . S
C564 H606 0.930 . S
C565 N561 1.279 . S
C565 C563 1.358 . S
C565 H607 0.930 . S
C566 C567 1.348 . S
C566 C568 1.356 . S
C566 O591 1.325 . S
C567 C566 1.348 . S
C567 C569 1.353 . S
C567 H608 0.929 . S
C568 C566 1.356 . S
C568 C570 1.358 . S
C568 H609 0.930 . S
C569 C567 1.353 . S
C569 N571 1.314 . S
C569 H610 0.930 . S
C570 C568 1.358 . S
C570 N571 1.279 . S
C570 H611 0.930 . S
N571 C569 1.314 . S
N571 C570 1.279 . S
C572 C574 1.353 . S
C572 N575 1.314 . S
C572 H578 0.930 . S
C573 N575 1.279 . S
C573 C576 1.358 . S
C573 H579 0.930 . S
C574 C572 1.353 . S
C574 C577 1.348 . S
C574 H612 0.929 . S
N575 Li530 1.990 . S
N575 C572 1.314 . S
N575 C573 1.279 . S
C576 C573 1.358 . S
C576 C577 1.356 . S
C576 H613 0.930 . S
C577 C574 1.348 . S
C577 C576 1.356 . S
H578 C572 0.930 . S
H579 C573 0.930 . S
C580 N581 1.314 . S
C580 C582 1.353 . S
C580 H586 0.930 . S
N581 Li531 1.990 . S
N581 C580 1.314 . S
N581 C584 1.279 . S
C582 C580 1.353 . S
C582 C585 1.348 . S
C582 H614 0.929 . S
C583 C584 1.358 . S
C583 C585 1.356 . S
C583 H615 0.930 . S
C584 N581 1.279 . S
C584 C583 1.358 . S
C584 H587 0.930 . S
C585 C582 1.348 . S
C585 C583 1.356 . S
H586 C580 0.930 . S
H587 C584 0.930 . S
O588 Li528 1.956 . S
O588 Li529 1.970 . S
O588 Li530 1.961 . S
O588 C532 1.325 . S
O589 Li528 1.970 . S
O589 Li529 1.956 . S
O589 Li531 1.961 . S
O589 C538 1.325 . S
O590 Li528 1.961 . S
O590 Li530 1.956 . S
O590 Li531 1.970 . S
O590 C560 1.325 . S
O591 Li529 1.961 . S
O591 Li530 1.970 . S
O591 Li531 1.956 . S
O591 C566 1.325 . S
H592 C534 0.929 . S
H593 C535 0.930 . S
H594 C536 0.930 . S
H595 C537 0.930 . S
H596 C539 0.930 . S
H597 C541 0.929 . S
H598 C542 0.930 . S
H599 C543 0.930 . S
H600 C546 0.930 . S
H601 C549 0.929 . S
H602 C554 0.929 . S
H603 C555 0.930 . S
H604 C562 0.929 . S
H605 C563 0.930 . S
H606 C564 0.930 . S
H607 C565 0.930 . S
H608 C567 0.929 . S
H609 C568 0.930 . S
H610 C569 0.930 . S
H611 C570 0.930 . S
H612 C574 0.929 . S
H613 C576 0.930 . S
H614 C582 0.929 . S
H615 C583 0.930 . S
Li616 N633 1.990 . S
Li616 O676 1.956 . S
Li616 O677 1.970 . S
Li616 O678 1.961 1_554 S
Li617 N641 1.990 . S
Li617 O676 1.970 . S
Li617 O677 1.956 . S
Li617 O679 1.961 . S
Li618 N663 1.990 . S
Li618 O676 1.961 . S
Li618 O678 1.956 1_554 S
Li618 O679 1.970 . S
Li619 N669 1.990 . S
Li619 O677 1.961 1_556 S
Li619 O678 1.970 . S
Li619 O679 1.956 1_556 S
C620 C622 1.348 . S
C620 C623 1.356 . S
C620 O676 1.325 . S
N621 C624 1.314 . S
N621 C625 1.279 . S
C622 C620 1.348 . S
C622 C624 1.353 . S
C622 H680 0.929 . S
C623 C620 1.356 . S
C623 C625 1.358 . S
C623 H681 0.930 . S
C624 N621 1.314 . S
C624 C622 1.353 . S
C624 H682 0.930 . S
C625 N621 1.279 . S
C625 C623 1.358 . S
C625 H683 0.930 . S
C626 C629 1.348 . S
C626 C630 1.356 . S
C626 O677 1.325 . S
C627 N628 1.279 . S
C627 C630 1.358 . S
C627 H684 0.931 . S
N628 C627 1.279 . S
N628 C631 1.314 . S
C629 C626 1.348 . S
C629 C631 1.353 . S
C629 H685 0.929 . S
C630 C626 1.356 . S
C630 C627 1.358 . S
C630 H686 0.930 . S
C631 N628 1.314 . S
C631 C629 1.353 . S
C631 H687 0.930 . S
C632 N633 1.315 1_556 S
C632 C637 1.353 . S
C632 H638 0.930 . S
N633 Li616 1.990 . S
N633 C632 1.315 1_554 S
N633 C635 1.279 . S
C634 C635 1.358 . S
C634 C636 1.356 1_554 S
C634 H688 0.930 . S
C635 N633 1.279 . S
C635 C634 1.358 . S
C635 H639 0.930 . S
C636 C634 1.356 1_556 S
C636 C637 1.348 . S
C637 C632 1.353 . S
C637 C636 1.348 . S
C637 H689 0.929 . S
H638 C632 0.930 . S
H639 C635 0.930 . S
C640 N641 1.314 . S
C640 C642 1.353 . S
C640 H646 0.930 . S
N641 Li617 1.990 . S
N641 C640 1.314 . S
N641 C644 1.279 . S
C642 C640 1.353 . S
C642 C645 1.348 . S
C642 H690 0.929 . S
C643 C644 1.358 . S
C643 C645 1.356 . S
C643 H691 0.930 . S
C644 N641 1.279 . S
C644 C643 1.358 . S
C644 H647 0.930 . S
C645 C642 1.348 . S
C645 C643 1.356 . S
H646 C640 0.930 . S
H647 C644 0.930 . S
C648 C650 1.348 . S
C648 C651 1.356 . S
C648 O678 1.325 . S
N649 C652 1.314 . S
N649 C653 1.279 . S
C650 C648 1.348 . S
C650 C652 1.353 . S
C650 H692 0.929 . S
C651 C648 1.356 . S
C651 C653 1.358 . S
C651 H693 0.930 . S
C652 N649 1.314 . S
C652 C650 1.353 . S
C652 H694 0.930 . S
C653 N649 1.279 . S
C653 C651 1.358 . S
C653 H695 0.930 . S
C654 C655 1.348 . S
C654 C656 1.356 . S
C654 O679 1.325 . S
C655 C654 1.348 . S
C655 C657 1.353 . S
C655 H696 0.929 . S
C656 C654 1.356 . S
C656 C658 1.358 . S
C656 H697 0.930 . S
C657 C655 1.353 . S
C657 N659 1.314 . S
C657 H698 0.930 . S
C658 C656 1.358 . S
C658 N659 1.279 . S
C658 H699 0.930 . S
N659 C657 1.314 . S
N659 C658 1.279 . S
C660 C662 1.353 . S
C660 N663 1.314 . S
C660 H666 0.930 . S
C661 N663 1.279 1_556 S
C661 C664 1.358 . S
C661 H667 0.930 . S
C662 C660 1.353 . S
C662 C665 1.348 . S
C662 H700 0.929 . S
N663 Li618 1.990 . S
N663 C660 1.314 . S
N663 C661 1.279 1_554 S
C664 C661 1.358 . S
C664 C665 1.356 1_556 S
C664 H701 0.930 . S
C665 C662 1.348 . S
C665 C664 1.356 1_554 S
H666 C660 0.930 . S
H667 C661 0.930 . S
C668 N669 1.314 . S
C668 C670 1.353 . S
C668 H674 0.930 . S
N669 Li619 1.990 . S
N669 C668 1.314 . S
N669 C672 1.279 . S
C670 C668 1.353 . S
C670 C673 1.348 . S
C670 H702 0.929 . S
C671 C672 1.358 . S
C671 C673 1.356 . S
C671 H703 0.930 . S
C672 N669 1.279 . S
C672 C671 1.358 . S
C672 H675 0.930 . S
C673 C670 1.348 . S
C673 C671 1.356 . S
H674 C668 0.930 . S
H675 C672 0.930 . S
O676 Li616 1.956 . S
O676 Li617 1.970 . S
O676 Li618 1.961 . S
O676 C620 1.325 . S
O677 Li616 1.970 . S
O677 Li617 1.956 . S
O677 Li619 1.961 1_554 S
O677 C626 1.325 . S
O678 Li616 1.961 1_556 S
O678 Li618 1.956 1_556 S
O678 Li619 1.970 . S
O678 C648 1.325 . S
O679 Li617 1.961 . S
O679 Li618 1.970 . S
O679 Li619 1.956 1_554 S
O679 C654 1.325 . S
H680 C622 0.929 . S
H681 C623 0.930 . S
H682 C624 0.930 . S
H683 C625 0.930 . S
H684 C627 0.931 . S
H685 C629 0.929 . S
H686 C630 0.930 . S
H687 C631 0.930 . S
H688 C634 0.930 . S
H689 C637 0.929 . S
H690 C642 0.929 . S
H691 C643 0.930 . S
H692 C650 0.929 . S
H693 C651 0.930 . S
H694 C652 0.930 . S
H695 C653 0.930 . S
H696 C655 0.929 . S
H697 C656 0.930 . S
H698 C657 0.930 . S
H699 C658 0.930 . S
H700 C662 0.929 . S
H701 C664 0.930 . S
H702 C670 0.929 . S
H703 C671 0.930 . S
H704 C716 0.930 . S
H705 C718 0.930 . S
H706 C719 0.930 . S
H707 C723 0.959 . S
H708 C723 0.959 . S
H709 C723 0.961 . S
H710 C724 0.960 . S
H711 C724 0.961 . S
H712 C724 0.959 . S
H713 C727 0.929 . S
H714 C728 0.931 . S
H715 C730 0.930 . S
C716 H704 0.930 . S
C716 C717 1.399 . S
C716 C721 1.399 . S
C717 C716 1.399 . S
C717 C718 1.376 . S
C718 H705 0.930 . S
C718 C717 1.376 . S
C718 C719 1.388 . S
C719 H706 0.930 . S
C719 C718 1.388 . S
C719 C720 1.390 . S
C720 C719 1.390 . S
C720 C721 1.394 . S
C720 C726 1.465 . S
C721 C716 1.399 . S
C721 C720 1.394 . S
C721 C722 1.516 . S
C722 C721 1.516 . S
C722 C723 1.502 . S
C722 C724 1.561 . S
C722 C725 1.526 . S
C723 H707 0.959 . S
C723 H708 0.959 . S
C723 H709 0.961 . S
C723 C722 1.502 . S
C724 H710 0.960 . S
C724 H711 0.961 . S
C724 H712 0.959 . S
C724 C722 1.561 . S
C725 C722 1.526 . S
C725 C726 1.396 . S
C725 C730 1.390 . S
C726 C720 1.465 . S
C726 C725 1.396 . S
C726 C727 1.399 . S
C727 H713 0.929 . S
C727 C726 1.399 . S
C727 C728 1.385 . S
C728 H714 0.931 . S
C728 C727 1.385 . S
C728 C729 1.389 . S
C729 C728 1.389 . S
C729 C730 1.387 . S
C730 H715 0.930 . S
C730 C725 1.390 . S
C730 C729 1.387 . S
H731 C743 0.930 . S
H732 C745 0.930 . S
H733 C746 0.930 . S
H734 C750 0.959 . S
H735 C750 0.959 . S
H736 C750 0.961 . S
H737 C751 0.960 . S
H738 C751 0.961 . S
H739 C751 0.959 . S
H740 C754 0.929 . S
H741 C755 0.931 . S
H742 C757 0.930 . S
C743 H731 0.930 . S
C743 C744 1.399 . S
C743 C748 1.399 . S
C744 C743 1.399 . S
C744 C745 1.376 . S
C745 H732 0.930 . S
C745 C744 1.376 . S
C745 C746 1.388 . S
C746 H733 0.930 . S
C746 C745 1.388 . S
C746 C747 1.390 . S
C747 C746 1.390 . S
C747 C748 1.394 . S
C747 C753 1.465 . S
C748 C743 1.399 . S
C748 C747 1.394 . S
C748 C749 1.516 . S
C749 C748 1.516 . S
C749 C750 1.502 . S
C749 C751 1.561 . S
C749 C752 1.526 . S
C750 H734 0.959 . S
C750 H735 0.959 . S
C750 H736 0.961 . S
C750 C749 1.502 . S
C751 H737 0.960 . S
C751 H738 0.961 . S
C751 H739 0.959 . S
C751 C749 1.561 . S
C752 C749 1.526 . S
C752 C753 1.396 . S
C752 C757 1.390 . S
C753 C747 1.465 . S
C753 C752 1.396 . S
C753 C754 1.399 . S
C754 H740 0.929 . S
C754 C753 1.399 . S
C754 C755 1.385 . S
C755 H741 0.931 . S
C755 C754 1.385 . S
C755 C756 1.389 . S
C756 C755 1.389 . S
C756 C757 1.387 . S
C757 H742 0.930 . S
C757 C752 1.390 . S
C757 C756 1.387 . S
H758 C770 0.930 . S
H759 C772 0.930 . S
H760 C773 0.930 . S
H761 C777 0.959 . S
H762 C777 0.959 . S
H763 C777 0.961 . S
H764 C778 0.960 . S
H765 C778 0.961 . S
H766 C778 0.959 . S
H767 C781 0.929 . S
H768 C782 0.931 . S
H769 C784 0.930 . S
C770 H758 0.930 . S
C770 C771 1.399 . S
C770 C775 1.399 . S
C771 C770 1.399 . S
C771 C772 1.376 . S
C772 H759 0.930 . S
C772 C771 1.376 . S
C772 C773 1.388 . S
C773 H760 0.930 . S
C773 C772 1.388 . S
C773 C774 1.390 . S
C774 C773 1.390 . S
C774 C775 1.394 . S
C774 C780 1.465 1_554 S
C775 C770 1.399 . S
C775 C774 1.394 . S
C775 C776 1.516 . S
C776 C775 1.516 . S
C776 C777 1.502 . S
C776 C778 1.561 . S
C776 C779 1.510 1_554 S
C777 H761 0.959 . S
C777 H762 0.959 . S
C777 H763 0.961 . S
C777 C776 1.502 . S
C778 H764 0.960 . S
C778 H765 0.961 . S
C778 H766 0.959 . S
C778 C776 1.561 . S
C779 C776 1.510 1_556 S
C779 C780 1.397 . S
C779 C784 1.404 . S
C780 C774 1.465 1_556 S
C780 C779 1.397 . S
C780 C781 1.399 . S
C781 H767 0.929 . S
C781 C780 1.399 . S
C781 C782 1.385 . S
C782 H768 0.931 . S
C782 C781 1.385 . S
C782 C783 1.389 . S
C783 C782 1.389 . S
C783 C784 1.387 . S
C784 H769 0.930 . S
C784 C779 1.404 . S
C784 C783 1.387 . S
H785 C797 0.930 . S
H786 C799 0.930 . S
H787 C800 0.930 . S
H788 C804 0.959 . S
H789 C804 0.959 . S
H790 C804 0.961 . S
H791 C805 0.960 . S
H792 C805 0.961 . S
H793 C805 0.959 . S
H794 C808 0.929 . S
H795 C809 0.931 . S
H796 C811 0.930 . S
C797 H785 0.930 . S
C797 C798 1.399 . S
C797 C802 1.399 . S
C798 C797 1.399 . S
C798 C799 1.376 . S
C799 H786 0.930 . S
C799 C798 1.376 . S
C799 C800 1.388 . S
C800 H787 0.930 . S
C800 C799 1.388 . S
C800 C801 1.390 . S
C801 C800 1.390 . S
C801 C802 1.394 . S
C801 C807 1.465 . S
C802 C797 1.399 . S
C802 C801 1.394 . S
C802 C803 1.516 . S
C803 C802 1.516 . S
C803 C804 1.502 . S
C803 C805 1.561 . S
C803 C806 1.526 . S
C804 H788 0.959 . S
C804 H789 0.959 . S
C804 H790 0.961 . S
C804 C803 1.502 . S
C805 H791 0.960 . S
C805 H792 0.961 . S
C805 H793 0.959 . S
C805 C803 1.561 . S
C806 C803 1.526 . S
C806 C807 1.396 . S
C806 C811 1.390 . S
C807 C801 1.465 . S
C807 C806 1.396 . S
C807 C808 1.399 . S
C808 H794 0.929 . S
C808 C807 1.399 . S
C808 C809 1.385 . S
C809 H795 0.931 . S
C809 C808 1.385 . S
C809 C810 1.389 . S
C810 C809 1.389 . S
C810 C811 1.387 . S
C811 H796 0.930 . S
C811 C806 1.390 . S
C811 C810 1.387 . S
H812 C824 0.930 . S
H813 C826 0.930 . S
H814 C827 0.930 . S
H815 C831 0.959 . S
H816 C831 0.959 . S
H817 C831 0.961 . S
H818 C832 0.960 . S
H819 C832 0.961 . S
H820 C832 0.959 . S
H821 C835 0.929 . S
H822 C836 0.931 . S
H823 C838 0.930 . S
C824 H812 0.930 . S
C824 C825 1.399 . S
C824 C829 1.399 . S
C825 C824 1.399 . S
C825 C826 1.376 . S
C826 H813 0.930 . S
C826 C825 1.376 . S
C826 C827 1.388 . S
C827 H814 0.930 . S
C827 C826 1.388 . S
C827 C828 1.390 . S
C828 C827 1.390 . S
C828 C829 1.394 . S
C828 C834 1.465 . S
C829 C824 1.399 . S
C829 C828 1.394 . S
C829 C830 1.516 . S
C830 C829 1.516 . S
C830 C831 1.502 . S
C830 C832 1.561 . S
C830 C833 1.526 . S
C831 H815 0.959 . S
C831 H816 0.959 . S
C831 H817 0.961 . S
C831 C830 1.502 . S
C832 H818 0.960 . S
C832 H819 0.961 . S
C832 H820 0.959 . S
C832 C830 1.561 . S
C833 C830 1.526 . S
C833 C834 1.396 . S
C833 C838 1.390 . S
C834 C828 1.465 . S
C834 C833 1.396 . S
C834 C835 1.399 . S
C835 H821 0.929 . S
C835 C834 1.399 . S
C835 C836 1.385 . S
C836 H822 0.931 . S
C836 C835 1.385 . S
C836 C837 1.389 . S
C837 C836 1.389 . S
C837 C838 1.387 . S
C838 H823 0.930 . S
C838 C833 1.390 . S
C838 C837 1.387 . S
H839 C851 0.930 . S
H840 C853 0.930 . S
H841 C854 0.930 . S
H842 C858 0.959 . S
H843 C858 0.959 . S
H844 C858 0.961 . S
H845 C859 0.960 . S
H846 C859 0.961 . S
H847 C859 0.959 . S
H848 C862 0.929 . S
H849 C863 0.931 . S
H850 C865 0.930 . S
C851 H839 0.930 . S
C851 C852 1.399 . S
C851 C856 1.399 . S
C852 C851 1.399 . S
C852 C853 1.376 . S
C853 H840 0.930 . S
C853 C852 1.376 . S
C853 C854 1.388 . S
C854 H841 0.930 . S
C854 C853 1.388 . S
C854 C855 1.390 . S
C855 C854 1.390 . S
C855 C856 1.394 . S
C855 C861 1.465 . S
C856 C851 1.399 . S
C856 C855 1.394 . S
C856 C857 1.516 . S
C857 C856 1.516 . S
C857 C858 1.502 . S
C857 C859 1.561 . S
C857 C860 1.526 . S
C858 H842 0.959 . S
C858 H843 0.959 . S
C858 H844 0.961 . S
C858 C857 1.502 . S
C859 H845 0.960 . S
C859 H846 0.961 . S
C859 H847 0.959 . S
C859 C857 1.561 . S
C860 C857 1.526 . S
C860 C861 1.396 . S
C860 C865 1.390 . S
C861 C855 1.465 . S
C861 C860 1.396 . S
C861 C862 1.399 . S
C862 H848 0.929 . S
C862 C861 1.399 . S
C862 C863 1.385 . S
C863 H849 0.931 . S
C863 C862 1.385 . S
C863 C864 1.389 . S
C864 C863 1.389 . S
C864 C865 1.387 . S
C865 H850 0.930 . S
C865 C860 1.390 . S
C865 C864 1.387 . S
H866 C878 0.930 . S
H867 C880 0.930 1_554 S
H868 C881 0.930 . S
H869 C885 0.959 . S
H870 C885 0.959 . S
H871 C885 0.961 . S
H872 C886 0.960 . S
H873 C886 0.961 . S
H874 C886 0.959 . S
H875 C889 0.929 . S
H876 C890 0.931 . S
H877 C892 0.930 . S
C878 H866 0.930 . S
C878 C879 1.399 . S
C878 C883 1.399 . S
C879 C878 1.399 . S
C879 C880 1.376 . S
C880 H867 0.930 1_556 S
C880 C879 1.376 . S
C880 C881 1.388 . S
C881 H868 0.930 . S
C881 C880 1.388 . S
C881 C882 1.390 . S
C882 C881 1.390 . S
C882 C883 1.394 . S
C882 C888 1.465 . S
C883 C878 1.399 . S
C883 C882 1.394 . S
C883 C884 1.516 . S
C884 C883 1.516 . S
C884 C885 1.502 . S
C884 C886 1.561 . S
C884 C887 1.526 . S
C885 H869 0.959 . S
C885 H870 0.959 . S
C885 H871 0.961 . S
C885 C884 1.502 . S
C886 H872 0.960 . S
C886 H873 0.961 . S
C886 H874 0.959 . S
C886 C884 1.561 . S
C887 C884 1.526 . S
C887 C888 1.396 . S
C887 C892 1.390 . S
C888 C882 1.465 . S
C888 C887 1.396 . S
C888 C889 1.399 . S
C889 H875 0.929 . S
C889 C888 1.399 . S
C889 C890 1.385 . S
C890 H876 0.931 . S
C890 C889 1.385 . S
C890 C891 1.389 . S
C891 C890 1.389 . S
C891 C892 1.387 . S
C892 H877 0.930 . S
C892 C887 1.390 . S
C892 C891 1.387 . S
H893 C905 0.930 . S
H894 C907 0.930 . S
H895 C908 0.930 . S
H896 C912 0.959 . S
H897 C912 0.959 . S
H898 C912 0.961 . S
H899 C913 0.960 . S
H900 C913 0.961 . S
H901 C913 0.959 . S
H902 C916 0.929 . S
H903 C917 0.931 . S
H904 C919 0.930 . S
C905 H893 0.930 . S
C905 C906 1.399 . S
C905 C910 1.399 . S
C906 C905 1.399 . S
C906 C907 1.376 . S
C907 H894 0.930 . S
C907 C906 1.376 . S
C907 C908 1.388 . S
C908 H895 0.930 . S
C908 C907 1.388 . S
C908 C909 1.390 . S
C909 C908 1.390 . S
C909 C910 1.394 . S
C909 C915 1.465 . S
C910 C905 1.399 . S
C910 C909 1.394 . S
C910 C911 1.516 . S
C911 C910 1.516 . S
C911 C912 1.502 . S
C911 C913 1.561 . S
C911 C914 1.526 . S
C912 H896 0.959 . S
C912 H897 0.959 . S
C912 H898 0.961 . S
C912 C911 1.502 . S
C913 H899 0.960 . S
C913 H900 0.961 . S
C913 H901 0.959 . S
C913 C911 1.561 . S
C914 C911 1.526 . S
C914 C915 1.396 . S
C914 C919 1.390 . S
C915 C909 1.465 . S
C915 C914 1.396 . S
C915 C916 1.399 . S
C916 H902 0.929 . S
C916 C915 1.399 . S
C916 C917 1.385 . S
C917 H903 0.931 . S
C917 C916 1.385 . S
C917 C918 1.389 . S
C918 C917 1.389 . S
C918 C919 1.387 . S
C919 H904 0.930 . S
C919 C914 1.390 . S
C919 C918 1.387 . S
H920 C932 0.930 . S
H921 C934 0.930 . S
H922 C935 0.930 . S
H923 C939 0.963 . S
H924 C939 0.989 . S
H925 C939 0.929 1_565 S
H926 C940 0.945 1_565 S
H927 C940 0.975 . S
H928 C940 0.961 . S
H929 C943 0.929 . S
H930 C944 0.931 . S
H931 C946 0.930 . S
C932 H920 0.930 . S
C932 C933 1.399 . S
C932 C937 1.399 . S
C933 C932 1.399 . S
C933 C934 1.376 . S
C934 H921 0.930 . S
C934 C933 1.376 . S
C934 C935 1.388 . S
C935 H922 0.930 . S
C935 C934 1.388 . S
C935 C936 1.390 . S
C936 C935 1.390 . S
C936 C937 1.394 . S
C936 C942 1.465 1_565 S
C937 C932 1.399 . S
C937 C936 1.394 . S
C937 C938 1.510 1_565 S
C938 C937 1.510 1_545 S
C938 C939 1.501 . S
C938 C940 1.561 . S
C938 C941 1.532 . S
C939 H923 0.963 . S
C939 H924 0.989 . S
C939 H925 0.929 1_545 S
C939 C938 1.501 . S
C940 H926 0.945 1_545 S
C940 H927 0.975 . S
C940 H928 0.961 . S
C940 C938 1.561 . S
C941 C938 1.532 . S
C941 C942 1.396 . S
C941 C946 1.390 . S
C942 C936 1.465 1_545 S
C942 C941 1.396 . S
C942 C943 1.399 . S
C943 H929 0.929 . S
C943 C942 1.399 . S
C943 C944 1.385 . S
C944 H930 0.931 . S
C944 C943 1.385 . S
C944 C945 1.389 . S
C945 C944 1.389 . S
C945 C946 1.387 . S
C946 H931 0.930 . S
C946 C941 1.390 . S
C946 C945 1.387 . S
H947 C959 0.930 . S
H948 C961 0.930 . S
H949 C962 0.930 . S
H950 C966 0.963 . S
H951 C966 0.987 . S
H952 C966 0.931 1_655 S
H953 C967 0.960 1_655 S
H954 C967 0.961 . S
H955 C967 0.959 . S
H956 C970 0.929 . S
H957 C971 0.931 . S
H958 C973 0.930 . S
C959 H947 0.930 . S
C959 C960 1.399 . S
C959 C964 1.399 . S
C960 C959 1.399 . S
C960 C961 1.376 . S
C961 H948 0.930 . S
C961 C960 1.376 . S
C961 C962 1.388 . S
C962 H949 0.930 . S
C962 C961 1.388 . S
C962 C963 1.390 . S
C963 C962 1.390 . S
C963 C964 1.394 . S
C963 C969 1.465 1_655 S
C964 C959 1.399 . S
C964 C963 1.394 . S
C964 C965 1.515 1_655 S
C965 C964 1.515 1_455 S
C965 C966 1.501 . S
C965 C967 1.561 . S
C965 C968 1.527 . S
C966 H950 0.963 . S
C966 H951 0.987 . S
C966 H952 0.931 1_455 S
C966 C965 1.501 . S
C967 H953 0.960 1_455 S
C967 H954 0.961 . S
C967 H955 0.959 . S
C967 C965 1.561 . S
C968 C965 1.527 . S
C968 C969 1.396 . S
C968 C973 1.390 . S
C969 C963 1.465 1_455 S
C969 C968 1.396 . S
C969 C970 1.399 . S
C970 H956 0.929 . S
C970 C969 1.399 . S
C970 C971 1.385 . S
C971 H957 0.931 . S
C971 C970 1.385 . S
C971 C972 1.389 . S
C972 C971 1.389 . S
C972 C973 1.387 . S
C973 H958 0.930 . S
C973 C968 1.390 . S
C973 C972 1.387 . S
H974 C986 0.930 . S
H975 C988 0.930 . S
H976 C989 0.930 . S
H977 C993 0.961 . S
H978 C993 0.968 . S
H979 C993 0.951 1_565 S
H980 C994 0.960 . S
H981 C994 0.961 1_545 S
H982 C994 0.959 1_545 S
H983 C997 0.929 . S
H984 C998 0.931 . S
H985 C1000 0.930 . S
C986 H974 0.930 . S
C986 C987 1.399 . S
C986 C991 1.399 . S
C987 C986 1.399 . S
C987 C988 1.376 . S
C988 H975 0.930 . S
C988 C987 1.376 . S
C988 C989 1.388 . S
C989 H976 0.930 . S
C989 C988 1.388 . S
C989 C990 1.390 . S
C990 C989 1.390 . S
C990 C991 1.394 . S
C990 C996 1.465 1_565 S
C991 C986 1.399 . S
C991 C990 1.394 . S
C991 C992 1.515 . S
C992 C991 1.515 . S
C992 C993 1.502 1_565 S
C992 C994 1.561 . S
C992 C995 1.527 1_565 S
C993 H977 0.961 . S
C993 H978 0.968 . S
C993 H979 0.951 1_545 S
C993 C992 1.502 1_545 S
C994 H980 0.960 . S
C994 H981 0.961 1_565 S
C994 H982 0.959 1_565 S
C994 C992 1.561 . S
C995 C992 1.527 1_545 S
C995 C996 1.396 . S
C995 C1000 1.390 . S
C996 C990 1.465 1_545 S
C996 C995 1.396 . S
C996 C997 1.399 . S
C997 H983 0.929 . S
C997 C996 1.399 . S
C997 C998 1.385 . S
C998 H984 0.931 . S
C998 C997 1.385 . S
C998 C999 1.389 . S
C999 C998 1.389 . S
C999 C1000 1.387 . S
C1000 H985 0.930 . S
C1000 C995 1.390 . S
C1000 C999 1.387 . S
H1001 C1013 0.930 . S
H1002 C1015 0.930 1_556 S
H1003 C1016 0.930 1_556 S
H1004 C1020 0.961 . S
H1005 C1020 0.971 . S
H1006 C1020 0.948 1_655 S
H1007 C1021 0.955 1_655 S
H1008 C1021 0.965 . S
H1009 C1021 0.959 1_556 S
H1010 C1024 0.929 1_556 S
H1011 C1025 0.931 . S
H1012 C1027 0.930 . S
C1013 H1001 0.930 . S
C1013 C1014 1.399 . S
C1013 C1018 1.399 . S
C1014 C1013 1.399 . S
C1014 C1015 1.376 . S
C1015 H1002 0.930 1_554 S
C1015 C1014 1.376 . S
C1015 C1016 1.388 . S
C1016 H1003 0.930 1_554 S
C1016 C1015 1.388 . S
C1016 C1017 1.390 . S
C1017 C1016 1.390 . S
C1017 C1018 1.394 . S
C1017 C1023 1.465 1_655 S
C1018 C1013 1.399 . S
C1018 C1017 1.394 . S
C1018 C1019 1.519 1_655 S
C1019 C1018 1.519 1_455 S
C1019 C1020 1.502 . S
C1019 C1021 1.561 . S
C1019 C1022 1.523 . S
C1020 H1004 0.961 . S
C1020 H1005 0.971 . S
C1020 H1006 0.948 1_455 S
C1020 C1019 1.502 . S
C1021 H1007 0.955 1_455 S
C1021 H1008 0.965 . S
C1021 H1009 0.959 1_554 S
C1021 C1019 1.561 . S
C1022 C1019 1.523 . S
C1022 C1023 1.396 . S
C1022 C1027 1.390 . S
C1023 C1017 1.465 1_455 S
C1023 C1022 1.396 . S
C1023 C1024 1.399 . S
C1024 H1010 0.929 1_554 S
C1024 C1023 1.399 . S
C1024 C1025 1.385 . S
C1025 H1011 0.931 . S
C1025 C1024 1.385 . S
C1025 C1026 1.389 . S
C1026 C1025 1.389 . S
C1026 C1027 1.387 . S
C1027 H1012 0.930 . S
C1027 C1022 1.390 . S
C1027 C1026 1.387 . S
H1028 C1040 0.930 . S
H1029 C1042 0.930 . S
H1030 C1043 0.930 . S
H1031 C1047 0.959 . S
H1032 C1047 0.959 . S
H1033 C1047 0.961 . S
H1034 C1048 0.960 1_556 S
H1035 C1048 0.961 . S
H1036 C1048 0.959 1_556 S
H1037 C1051 0.929 . S
H1038 C1052 0.931 . S
H1039 C1054 0.930 . S
C1040 H1028 0.930 . S
C1040 C1041 1.399 . S
C1040 C1045 1.399 1_556 S
C1041 C1040 1.399 . S
C1041 C1042 1.376 . S
C1042 H1029 0.930 . S
C1042 C1041 1.376 . S
C1042 C1043 1.388 . S
C1043 H1030 0.930 . S
C1043 C1042 1.388 . S
C1043 C1044 1.390 1_556 S
C1044 C1043 1.390 1_554 S
C1044 C1045 1.394 . S
C1044 C1050 1.465 . S
C1045 C1040 1.399 1_554 S
C1045 C1044 1.394 . S
C1045 C1046 1.516 . S
C1046 C1045 1.516 . S
C1046 C1047 1.502 . S
C1046 C1048 1.561 . S
C1046 C1049 1.526 . S
C1047 H1031 0.959 . S
C1047 H1032 0.959 . S
C1047 H1033 0.961 . S
C1047 C1046 1.502 . S
C1048 H1034 0.960 1_554 S
C1048 H1035 0.961 . S
C1048 H1036 0.959 1_554 S
C1048 C1046 1.561 . S
C1049 C1046 1.526 . S
C1049 C1050 1.396 . S
C1049 C1054 1.390 . S
C1050 C1044 1.465 . S
C1050 C1049 1.396 . S
C1050 C1051 1.399 . S
C1051 H1037 0.929 . S
C1051 C1050 1.399 . S
C1051 C1052 1.385 . S
C1052 H1038 0.931 . S
C1052 C1051 1.385 . S
C1052 C1053 1.389 . S
C1053 C1052 1.389 . S
C1053 C1054 1.387 . S
C1054 H1039 0.930 . S
C1054 C1049 1.390 . S
C1054 C1053 1.387 . S
H1055 C1067 0.930 . S
H1056 C1069 0.930 . S
H1057 C1070 0.930 . S
H1058 C1074 0.959 . S
H1059 C1074 0.959 . S
H1060 C1074 0.961 . S
H1061 C1075 0.960 . S
H1062 C1075 0.961 . S
H1063 C1075 0.959 . S
H1064 C1078 0.929 . S
H1065 C1079 0.931 . S
H1066 C1081 0.930 . S
C1067 H1055 0.930 . S
C1067 C1068 1.399 . S
C1067 C1072 1.399 . S
C1068 C1067 1.399 . S
C1068 C1069 1.376 . S
C1069 H1056 0.930 . S
C1069 C1068 1.376 . S
C1069 C1070 1.388 . S
C1070 H1057 0.930 . S
C1070 C1069 1.388 . S
C1070 C1071 1.390 . S
C1071 C1070 1.390 . S
C1071 C1072 1.394 . S
C1071 C1077 1.465 . S
C1072 C1067 1.399 . S
C1072 C1071 1.394 . S
C1072 C1073 1.516 . S
C1073 C1072 1.516 . S
C1073 C1074 1.502 . S
C1073 C1075 1.561 . S
C1073 C1076 1.526 . S
C1074 H1058 0.959 . S
C1074 H1059 0.959 . S
C1074 H1060 0.961 . S
C1074 C1073 1.502 . S
C1075 H1061 0.960 . S
C1075 H1062 0.961 . S
C1075 H1063 0.959 . S
C1075 C1073 1.561 . S
C1076 C1073 1.526 . S
C1076 C1077 1.396 . S
C1076 C1081 1.390 . S
C1077 C1071 1.465 . S
C1077 C1076 1.396 . S
C1077 C1078 1.399 . S
C1078 H1064 0.929 . S
C1078 C1077 1.399 . S
C1078 C1079 1.385 . S
C1079 H1065 0.931 . S
C1079 C1078 1.385 . S
C1079 C1080 1.389 . S
C1080 C1079 1.389 . S
C1080 C1081 1.387 . S
C1081 H1066 0.930 . S
C1081 C1076 1.390 . S
C1081 C1080 1.387 . S
H1082 C1094 0.930 . S
H1083 C1096 0.930 . S
H1084 C1097 0.930 . S
H1085 C1101 0.959 . S
H1086 C1101 0.959 . S
H1087 C1101 0.961 . S
H1088 C1102 0.960 . S
H1089 C1102 0.961 . S
H1090 C1102 0.959 . S
H1091 C1105 0.929 . S
H1092 C1106 0.931 . S
H1093 C1108 0.930 . S
C1094 H1082 0.930 . S
C1094 C1095 1.399 . S
C1094 C1099 1.399 . S
C1095 C1094 1.399 . S
C1095 C1096 1.376 . S
C1096 H1083 0.930 . S
C1096 C1095 1.376 . S
C1096 C1097 1.388 . S
C1097 H1084 0.930 . S
C1097 C1096 1.388 . S
C1097 C1098 1.390 . S
C1098 C1097 1.390 . S
C1098 C1099 1.394 . S
C1098 C1104 1.465 . S
C1099 C1094 1.399 . S
C1099 C1098 1.394 . S
C1099 C1100 1.516 . S
C1100 C1099 1.516 . S
C1100 C1101 1.502 . S
C1100 C1102 1.561 . S
C1100 C1103 1.526 . S
C1101 H1085 0.959 . S
C1101 H1086 0.959 . S
C1101 H1087 0.961 . S
C1101 C1100 1.502 . S
C1102 H1088 0.960 . S
C1102 H1089 0.961 . S
C1102 H1090 0.959 . S
C1102 C1100 1.561 . S
C1103 C1100 1.526 . S
C1103 C1104 1.396 . S
C1103 C1108 1.390 . S
C1104 C1098 1.465 . S
C1104 C1103 1.396 . S
C1104 C1105 1.399 . S
C1105 H1091 0.929 . S
C1105 C1104 1.399 . S
C1105 C1106 1.385 . S
C1106 H1092 0.931 . S
C1106 C1105 1.385 . S
C1106 C1107 1.389 . S
C1107 C1106 1.389 . S
C1107 C1108 1.387 . S
C1108 H1093 0.930 . S
C1108 C1103 1.390 . S
C1108 C1107 1.387 . S
H1109 C1121 0.930 . S
H1110 C1123 0.930 . S
H1111 C1124 0.930 . S
H1112 C1128 0.959 . S
H1113 C1128 0.959 . S
H1114 C1128 0.961 . S
H1115 C1129 0.960 . S
H1116 C1129 0.961 . S
H1117 C1129 0.959 . S
H1118 C1132 0.929 . S
H1119 C1133 0.931 . S
H1120 C1135 0.930 . S
C1121 H1109 0.930 . S
C1121 C1122 1.399 . S
C1121 C1126 1.399 . S
C1122 C1121 1.399 . S
C1122 C1123 1.376 . S
C1123 H1110 0.930 . S
C1123 C1122 1.376 . S
C1123 C1124 1.388 . S
C1124 H1111 0.930 . S
C1124 C1123 1.388 . S
C1124 C1125 1.390 . S
C1125 C1124 1.390 . S
C1125 C1126 1.394 . S
C1125 C1131 1.465 . S
C1126 C1121 1.399 . S
C1126 C1125 1.394 . S
C1126 C1127 1.516 . S
C1127 C1126 1.516 . S
C1127 C1128 1.502 . S
C1127 C1129 1.561 . S
C1127 C1130 1.526 . S
C1128 H1112 0.959 . S
C1128 H1113 0.959 . S
C1128 H1114 0.961 . S
C1128 C1127 1.502 . S
C1129 H1115 0.960 . S
C1129 H1116 0.961 . S
C1129 H1117 0.959 . S
C1129 C1127 1.561 . S
C1130 C1127 1.526 . S
C1130 C1131 1.396 . S
C1130 C1135 1.390 . S
C1131 C1125 1.465 . S
C1131 C1130 1.396 . S
C1131 C1132 1.399 . S
C1132 H1118 0.929 . S
C1132 C1131 1.399 . S
C1132 C1133 1.385 . S
C1133 H1119 0.931 . S
C1133 C1132 1.385 . S
C1133 C1134 1.389 . S
C1134 C1133 1.389 . S
C1134 C1135 1.387 . S
C1135 H1120 0.930 . S
C1135 C1130 1.390 . S
C1135 C1134 1.387 . S
C717 C29 0.835 . S
C729 C585 0.836 . S
C744 C108 0.853 . S
C756 C673 0.853 . S
C771 C401 0.836 . S
C783 C196 0.837 . S
C798 C489 0.841 . S
C810 C293 0.841 . S
C825 C49 1.369 . S
C837 C469 1.388 . S
C852 C145 1.313 . S
C864 C548 1.403 . S
C879 C636 1.405 . S
C891 C233 1.314 . S
C906 C313 1.407 . S
C918 C381 1.343 . S
C933 C409 1.362 . S
C945 C20 1.348 . S
C960 C117 1.331 . S
C972 C497 1.321 . S
C987 C205 1.324 . S
C999 C577 1.338 . S
C1014 C665 1.355 . S
C1026 C284 1.365 . S
C1041 C557 1.688 . S
C1053 C57 1.712 . S
C1068 C645 1.742 . S
C1080 C137 1.705 . S
C1095 C225 1.742 . S
C1107 C372 1.716 . S
C1122 C321 1.715 . S
C1134 C460 1.742 . S
