# Generated by pormake.
# Topology snp, (6)-cn, num edge types: 1
# Building blocks:
#     Node 0, Type 0, BuildingBlock: MIFKUJ_clean_sbu_0, # of connection points: 6
#     Node 1, Type 0, BuildingBlock: MIFKUJ_clean_sbu_0, # of connection points: 6
#     Node 2, Type 0, BuildingBlock: MIFKUJ_clean_sbu_0, # of connection points: 6
#     Node 3, Type 0, BuildingBlock: MIFKUJ_clean_sbu_0, # of connection points: 6
#     Edge 4, Type (0, 0), BuildingBlock: EZIPEK_clean_linker_0, # of connection points: 2
#     Edge 5, Type (0, 0), BuildingBlock: EZIPEK_clean_linker_0, # of connection points: 2
#     Edge 6, Type (0, 0), BuildingBlock: EZIPEK_clean_linker_0, # of connection points: 2
#     Edge 7, Type (0, 0), BuildingBlock: EZIPEK_clean_linker_0, # of connection points: 2
#     Edge 8, Type (0, 0), BuildingBlock: EZIPEK_clean_linker_0, # of connection points: 2
#     Edge 9, Type (0, 0), BuildingBlock: EZIPEK_clean_linker_0, # of connection points: 2
#     Edge 10, Type (0, 0), BuildingBlock: EZIPEK_clean_linker_0, # of connection points: 2
#     Edge 11, Type (0, 0), BuildingBlock: EZIPEK_clean_linker_0, # of connection points: 2
#     Edge 12, Type (0, 0), BuildingBlock: EZIPEK_clean_linker_0, # of connection points: 2
#     Edge 13, Type (0, 0), BuildingBlock: EZIPEK_clean_linker_0, # of connection points: 2
#     Edge 14, Type (0, 0), BuildingBlock: EZIPEK_clean_linker_0, # of connection points: 2
#     Edge 15, Type (0, 0), BuildingBlock: EZIPEK_clean_linker_0, # of connection points: 2
# Relax obj value: 0.271
# Max RMSD: 0.230
# Mean RMSD: 0.230
data_MOF--net-snp--node1-MIFKUJ_clean_sbu_0--edge1-EZIPEK_clean_linker_0
_symmetry_space_group_name_H-M    P1
_symmetry_Int_Tables_number       1
_symmetry_cell_setting            triclinic
loop_
_symmetry_equiv_pos_as_xyz
'x, y, z'
_cell_length_a     16.893322
_cell_length_b     17.056755
_cell_length_c     24.572889
_cell_angle_alpha  90.379884
_cell_angle_beta   89.636559
_cell_angle_gamma 90.108569
loop_
_atom_site_label
_atom_site_type_symbol
_atom_site_fract_x
_atom_site_fract_y
_atom_site_fract_z
_atom_type_partial_charge
Zn0 Zn 0.33485 0.9702 0.06538 0.0
Zn1 Zn 0.35658 0.95155 0.88985 0.0
C2 C 0.25138 0.89348 0.14357 0.0
O3 O 0.21958 0.96368 0.14278 0.0
C4 C 0.41007 0.06769 0.80998 0.0
O5 O 0.48059 0.03807 0.81803 0.0
O6 O 0.36725 0.05255 0.12108 0.0
O7 O 0.40206 0.94207 0.00114 0.0
O8 O 0.46489 0.96066 0.92522 0.0
C9 C 0.34961 0.12463 0.1168 0.0
O10 O 0.33393 0.153 0.06849 0.0
O11 O 0.30699 0.87695 0.11041 0.0
C12 C 0.26243 0.8561 0.82629 0.0
O13 O 0.22021 0.92014 0.83243 0.0
O14 O 0.3283 0.85054 0.85084 0.0
O15 O 0.27525 0.98372 0.94702 0.0
O16 O 0.23442 0.00508 0.03131 0.0
O17 O 0.35118 0.03567 0.83344 0.0
C18 C 0.45844 0.97502 0.97591 0.0
C19 C 0.22164 0.00508 0.98038 0.0
Zn20 Zn 0.17944 0.3257 0.58156 0.0
Zn21 Zn 0.17929 0.35564 0.40565 0.0
C22 C 0.30897 0.23445 0.62273 0.0
O23 O 0.28984 0.1853 0.58366 0.0
C24 C 0.05338 0.41022 0.33401 0.0
O25 O 0.10621 0.46325 0.32023 0.0
O26 O 0.0928 0.35482 0.63596 0.0
O27 O 0.19601 0.40732 0.5218 0.0
O28 O 0.20602 0.46134 0.44128 0.0
C29 C 0.10841 0.37681 0.68436 0.0
O30 O 0.18305 0.3805 0.69882 0.0
O31 O 0.27705 0.30183 0.62465 0.0
C32 C 0.23044 0.25801 0.3189 0.0
O33 O 0.16246 0.22596 0.33262 0.0
O34 O 0.25621 0.31569 0.34697 0.0
O35 O 0.16468 0.28602 0.46904 0.0
O36 O 0.1435 0.22542 0.54505 0.0
O37 O 0.07239 0.36068 0.37 0.0
C38 C 0.20378 0.46882 0.49323 0.0
C39 C 0.14257 0.22492 0.49346 0.0
Zn40 Zn 0.81886 0.15747 0.09174 0.0
Zn41 Zn 0.81533 0.19321 0.91722 0.0
C42 C 0.90177 0.26213 0.16264 0.0
O43 O 0.96218 0.22177 0.14393 0.0
C44 C 0.78213 0.07484 0.82992 0.0
O45 O 0.70662 0.09213 0.83453 0.0
O46 O 0.77993 0.0653 0.1352 0.0
O47 O 0.74366 0.18005 0.02867 0.0
O48 O 0.70232 0.20128 0.94562 0.0
C49 C 0.82884 0.03381 0.16732 0.0
O50 O 0.9025 0.05843 0.168 0.0
O51 O 0.83262 0.24818 0.1447 0.0
C52 C 0.92374 0.27901 0.85794 0.0
O53 O 0.96102 0.21283 0.86646 0.0
O54 O 0.85639 0.29017 0.88006 0.0
O55 O 0.87305 0.16681 0.98379 0.0
O56 O 0.92569 0.12831 0.05896 0.0
O57 O 0.83191 0.10603 0.86206 0.0
C58 C 0.68645 0.1902 -0.0039 0.0
C59 C 0.93159 0.13855 0.0081 0.0
Zn60 Zn 0.00953 0.82096 0.5716 0.0
Zn61 Zn 0.98316 0.79488 0.40143 0.0
C62 C 0.95056 0.91246 0.65905 0.0
O63 O 0.02453 0.93618 0.65718 0.0
C64 C 0.0944 0.75304 0.31829 0.0
O65 O 0.03891 0.70031 0.31027 0.0
O66 O 0.10028 0.77548 0.61418 0.0
O67 O 0.96475 0.75334 0.51404 0.0
O68 O 0.98913 0.69036 0.4391 0.0
C69 C 0.08687 0.7369 0.65741 0.0
O70 O 0.01268 0.72255 0.67026 0.0
O71 O 0.92694 0.86093 0.62513 0.0
C72 C 0.83969 0.84751 0.3477 0.0
O73 O 0.83174 0.89128 0.39159 0.0
O74 O 0.89667 0.79916 0.34595 0.0
O75 O 0.97368 0.88666 0.45629 0.0
O76 O 0.04899 0.91152 0.52765 0.0
O77 O 0.08331 0.80328 0.35615 0.0
C78 C -0.00172 0.69644 0.49008 0.0
C79 C 0.02906 0.92607 0.47873 0.0
C80 C 0.06697 0.15908 0.97289 0.0
C81 C 0.0008 0.10911 0.97848 0.0
C82 C 0.08104 -0.00497 0.9548 0.0
C83 C 0.14887 0.04239 0.96156 0.0
N84 N 0.21004 0.16939 0.96865 0.0
N85 N 0.9391 0.98262 0.96859 0.0
C86 C 0.14279 0.12498 0.96645 0.0
C87 C 0.0057 0.02807 0.96602 0.0
N88 N 0.05688 0.2385 0.97569 0.0
N89 N 0.08973 0.91834 0.93964 0.0
H90 H 0.88286 0.00646 0.97478 0.0
H91 H 0.9393 0.92174 0.96586 0.0
H92 H 0.14534 0.8938 0.93225 0.0
H93 H 0.04276 0.88113 0.93036 0.0
H94 H 0.10178 0.27913 0.96887 0.0
H95 H 0.00123 0.26404 0.98095 0.0
H96 H 0.21135 0.2289 0.97806 0.0
H97 H 0.26583 0.14527 0.96202 0.0
C98 C -0.00477 0.06813 0.47242 0.0
C99 C 0.04762 0.00566 0.45937 0.0
C100 C 0.1564 0.09818 0.44469 0.0
C101 C 0.10674 0.15822 0.46484 0.0
N102 N 0.97613 0.20917 0.47896 0.0
N103 N 0.16954 0.96115 0.4191 0.0
C104 C 0.0247 0.14598 0.47171 0.0
C105 C 0.12533 0.02107 0.44005 0.0
N106 N 0.91981 0.05259 0.48979 0.0
N107 N 0.23406 0.11455 0.43357 0.0
H108 H 0.14744 0.90434 0.41625 0.0
H109 H 0.22511 0.96823 0.40141 0.0
H110 H 0.25644 0.17161 0.43491 0.0
H111 H 0.2765 0.07264 0.42371 0.0
H112 H 0.88215 0.0947 0.50646 0.0
H113 H 0.89546 -0.00358 0.48966 0.0
H114 H 0.91464 0.20552 0.48022 0.0
H115 H -0.00209 0.26653 0.47856 0.0
C116 C 0.54353 0.17861 0.9741 0.0
C117 C 0.60452 0.16763 0.01206 0.0
C118 C 0.544 0.04668 0.04388 0.0
C119 C 0.49493 0.04782 -0.00262 0.0
N120 N 0.42285 0.1281 0.9345 0.0
N121 N 0.62875 0.1241 0.10302 0.0
C122 C 0.48611 0.11867 0.96784 0.0
C123 C 0.5935 0.11237 0.05398 0.0
N124 N 0.54375 0.24449 0.94286 0.0
N125 N 0.54689 0.98202 0.07619 0.0
H126 H 0.66083 0.17519 0.11121 0.0
H127 H 0.61817 0.08853 0.13662 0.0
H128 H 0.51016 0.93354 0.0703 0.0
H129 H 0.5881 0.97551 0.1072 0.0
H130 H 0.50673 0.25336 0.9098 0.0
H131 H 0.58282 0.2907 0.95075 0.0
H132 H 0.41 0.17983 0.91428 0.0
H133 H 0.37925 0.08537 0.93103 0.0
C134 C 0.13061 0.5521 0.55962 0.0
C135 C 0.18708 0.54729 0.51726 0.0
C136 C 0.14383 0.67537 0.4875 0.0
C137 C 0.0699 0.6605 0.5128 0.0
N138 N -0.00284 0.59193 0.58258 0.0
N139 N 0.2654 0.61837 0.45237 0.0
C140 C 0.0648 0.60208 0.55295 0.0
C141 C 0.20094 0.61481 0.48586 0.0
N142 N 0.14222 0.51234 0.60643 0.0
N143 N 0.15927 0.74727 0.46655 0.0
H144 H 0.30908 0.5751 0.45307 0.0
H145 H 0.27393 0.66276 0.42396 0.0
H146 H 0.11692 0.7915 0.46755 0.0
H147 H 0.21639 0.76483 0.4561 0.0
H148 H 0.1067 0.52165 0.64073 0.0
H149 H 0.19367 0.4796 0.61211 0.0
H150 H 0.98941 0.54509 0.60918 0.0
H151 H 0.94865 0.62929 0.57891 0.0
C152 C 0.34447 0.20129 0.26357 0.0
C153 C 0.26771 0.23499 0.266 0.0
C154 C 0.24485 0.19645 0.1711 0.0
C155 C 0.32376 0.16773 0.16694 0.0
N156 N 0.45325 0.15532 0.20652 0.0
N157 N 0.15474 0.28452 0.21762 0.0
C158 C 0.37507 0.17411 0.21244 0.0
C159 C 0.2213 0.23907 0.21823 0.0
N160 N 0.38658 0.19184 0.31033 0.0
N161 N 0.19001 0.17809 0.13228 0.0
H162 H 0.13662 0.31815 0.251 0.0
H163 H 0.12281 0.29557 0.18234 0.0
H164 H 0.20162 0.14194 0.09889 0.0
H165 H 0.13005 0.19109 0.13658 0.0
H166 H 0.43879 0.15965 0.31223 0.0
H167 H 0.36632 0.21159 0.34818 0.0
H168 H 0.49532 0.16547 0.23657 0.0
H169 H 0.47739 0.13595 0.16964 0.0
C170 C 0.06473 0.40916 0.7802 0.0
C171 C 0.04466 0.38505 0.72672 0.0
C172 C 0.92435 0.32257 0.76102 0.0
C173 C 0.95382 0.33116 0.81473 0.0
N174 N 0.04482 0.39112 0.87735 0.0
N175 N 0.9341 0.36412 0.667 0.0
C176 C 0.0211 0.37857 0.82498 0.0
C177 C 0.96748 0.35592 0.71707 0.0
N178 N 0.12254 0.46422 0.78742 0.0
N179 N 0.85823 0.27838 0.75161 0.0
H180 H 0.96096 0.39713 0.63642 0.0
H181 H 0.87583 0.3486 0.65843 0.0
H182 H 0.82365 0.25498 0.78285 0.0
H183 H 0.84007 0.26162 0.71282 0.0
H184 H 0.13729 0.48839 0.82502 0.0
H185 H 0.1491 0.49262 0.7545 0.0
H186 H 0.09863 0.41676 0.88777 0.0
H187 H 0.01065 0.37356 0.91065 0.0
C188 C 0.83239 0.84403 0.24535 0.0
C189 C 0.80212 0.87239 0.29558 0.0
C190 C 0.75531 -0.00881 0.2512 0.0
C191 C 0.8038 0.97188 0.20556 0.0
N192 N 0.87914 0.87628 0.15461 0.0
N193 N 0.69811 0.94761 0.33704 0.0
C194 C 0.8382 0.89633 0.20077 0.0
C195 C 0.75124 0.93804 0.29548 0.0
N196 N 0.85248 0.76685 0.24024 0.0
N197 N 0.71827 0.06227 0.25399 0.0
H198 H 0.69161 0.90551 0.36742 0.0
H199 H 0.65513 -0.00875 0.3381 0.0
H200 H 0.71814 0.10179 0.22184 0.0
H201 H 0.69037 0.08366 0.28891 0.0
H202 H 0.87093 0.74093 0.20386 0.0
H203 H 0.84114 0.72685 0.27132 0.0
H204 H 0.91383 0.8261 0.15107 0.0
H205 H 0.88035 0.91184 0.12019 0.0
C206 C 0.12975 0.71128 0.75391 0.0
C207 C 0.15016 0.73085 0.69972 0.0
C208 C 0.26799 0.80004 0.73188 0.0
C209 C 0.23656 0.79717 0.7856 0.0
N210 N 0.14383 0.74281 0.84989 0.0
N211 N 0.25937 0.75191 0.63864 0.0
C212 C 0.17018 0.74904 0.79744 0.0
C213 C 0.22642 0.76174 0.68908 0.0
N214 N 0.07449 0.65441 0.76325 0.0
N215 N 0.33393 0.84398 0.72124 0.0
H216 H 0.2316 0.71827 0.60862 0.0
H217 H 0.31704 0.76841 0.62879 0.0
H218 H 0.36693 0.871 0.75183 0.0
H219 H 0.35395 0.85648 0.68209 0.0
H220 H 0.05983 0.63383 0.80181 0.0
H221 H 0.05092 0.62091 0.73152 0.0
H222 H 0.09017 0.71691 0.86064 0.0
H223 H 0.17516 0.76632 0.88265 0.0
C224 C 0.79967 0.04359 0.72975 0.0
C225 C 0.81213 0.02349 0.78518 0.0
C226 C 0.91052 0.92525 0.75721 0.0
C227 C 0.897 0.9442 0.70186 0.0
N228 N 0.81789 0.00913 0.63446 0.0
N229 N 0.86259 0.93179 0.85035 0.0
C230 C 0.83737 -0.00119 0.68785 0.0
C231 C 0.8625 0.96008 0.79844 0.0
N232 N 0.75677 0.1088 0.71702 0.0
N233 N 0.97037 0.87518 0.77053 0.0
H234 H 0.82585 0.95439 0.88092 0.0
H235 H 0.89257 0.88128 0.86177 0.0
H236 H 0.00418 0.84526 0.74152 0.0
H237 H 0.98974 0.86685 0.81023 0.0
H238 H 0.75381 0.13182 0.67796 0.0
H239 H 0.72896 0.14428 0.74594 0.0
H240 H 0.76903 0.04138 0.62201 0.0
H241 H 0.84679 0.98037 0.60249 0.0
C242 C 0.18576 0.77216 0.17924 0.0
C243 C 0.23128 0.84074 0.18874 0.0
C244 C 0.21832 0.82209 0.28683 0.0
C245 C 0.1589 0.76547 0.27697 0.0
N246 N 0.12725 0.65581 0.21896 0.0
N247 N 0.29946 0.92716 0.25107 0.0
C248 C 0.15475 0.7306 0.22456 0.0
C249 C 0.25137 0.86376 0.24248 0.0
N250 N 0.16865 0.74929 0.12724 0.0
N251 N 0.24719 0.83091 0.33809 0.0
H252 H 0.32903 0.95592 0.21955 0.0
H253 H 0.30754 0.95307 0.28915 0.0
H254 H 0.22838 0.79441 0.36933 0.0
H255 H 0.29591 0.86569 0.34773 0.0
H256 H 0.12789 0.70535 0.11802 0.0
H257 H 0.19209 0.77739 0.09316 0.0
H258 H 0.12703 0.62523 0.18214 0.0
H259 H 0.11671 0.62059 0.25273 0.0
C260 C 0.42197 0.18167 0.67767 0.0
C261 C 0.34098 0.20251 0.67369 0.0
C262 C 0.31913 0.16566 0.76837 0.0
C263 C 0.39533 0.13125 0.76945 0.0
N264 N 0.52984 0.14299 0.73651 0.0
N265 N 0.20888 0.20215 0.71258 0.0
C266 C 0.45047 0.14954 0.72734 0.0
C267 C 0.28872 0.19231 0.71852 0.0
N268 N 0.47074 0.19069 0.63355 0.0
N269 N 0.27729 0.17634 0.8156 0.0
H270 H 0.18259 0.21716 0.67584 0.0
H271 H 0.16787 0.18731 0.74268 0.0
H272 H 0.30105 0.16371 0.85359 0.0
H273 H 0.22425 0.20738 0.81769 0.0
H274 H 0.52797 0.16841 0.63121 0.0
H275 H 0.45208 0.21681 0.59757 0.0
H276 H 0.57336 0.15881 0.70853 0.0
H277 H 0.5528 0.13318 0.77507 0.0
C278 C 0.90453 0.28392 0.2633 0.0
C279 C 0.91407 0.31437 0.20999 0.0
C280 C 0.97628 0.43216 0.2477 0.0
C281 C 0.98411 0.39301 0.29793 0.0
N282 N 0.91798 0.30704 0.36053 0.0
N283 N 0.95219 0.42013 0.15081 0.0
C284 C 0.93597 0.32661 0.30811 0.0
C285 C 0.94653 0.39014 0.20208 0.0
N286 N 0.87002 0.21219 0.27056 0.0
N287 N -0.00735 0.51031 0.2449 0.0
H288 H 0.92778 0.39196 0.11698 0.0
H289 H 0.98387 0.47084 0.14162 0.0
H290 H 0.00508 0.54299 0.27988 0.0
H291 H 0.98331 0.54397 0.21034 0.0
H292 H 0.87012 0.18225 0.30734 0.0
H293 H 0.84395 0.18085 0.23882 0.0
H294 H 0.87914 0.26216 0.37116 0.0
H295 H 0.93474 0.34255 0.39328 0.0
loop_
_geom_bond_atom_site_label_1
_geom_bond_atom_site_label_2
_geom_bond_distance
_geom_bond_site_symmetry_2
_ccdc_geom_bond_type
Zn0 O6 1.969 . S
Zn0 O7 1.965 . S
Zn0 O11 2.024 1_545 S
Zn0 O16 1.969 . S
Zn1 O8 1.969 . S
Zn1 O14 1.969 . S
Zn1 O15 1.965 . S
Zn1 O17 2.024 1_565 S
C2 O3 1.229 . S
C2 O11 1.058 . S
O3 C2 1.229 . S
C4 O5 1.229 . S
C4 O17 1.058 . S
O5 C4 1.229 . S
O6 Zn0 1.969 . S
O6 C9 1.267 . S
O7 Zn0 1.965 . S
O7 C18 1.260 1_554 S
O8 Zn1 1.969 . S
O8 C18 1.258 1_565 S
C9 O6 1.267 . S
C9 O10 1.228 . S
O10 C9 1.228 . S
O11 Zn0 2.024 1_565 S
O11 C2 1.058 . S
C12 O13 1.228 . S
C12 O14 1.267 . S
O13 C12 1.228 . S
O14 Zn1 1.969 . S
O14 C12 1.267 . S
O15 Zn1 1.965 . S
O15 C19 1.260 1_566 S
O16 Zn0 1.969 . S
O16 C19 1.258 . S
O17 Zn1 2.024 1_545 S
O17 C4 1.058 . S
C18 O7 1.260 1_556 S
C18 O8 1.258 1_545 S
C19 O15 1.260 1_544 S
C19 O16 1.258 . S
Zn20 O26 1.969 . S
Zn20 O27 1.965 . S
Zn20 O31 2.024 . S
Zn20 O36 1.969 . S
Zn21 O28 1.969 . S
Zn21 O34 1.969 . S
Zn21 O35 1.965 . S
Zn21 O37 2.024 . S
C22 O23 1.229 . S
C22 O31 1.058 . S
O23 C22 1.229 . S
C24 O25 1.229 . S
C24 O37 1.058 . S
O25 C24 1.229 . S
O26 Zn20 1.969 . S
O26 C29 1.267 . S
O27 Zn20 1.965 . S
O27 C38 1.260 . S
O28 Zn21 1.969 . S
O28 C38 1.258 . S
C29 O26 1.267 . S
C29 O30 1.228 . S
O30 C29 1.228 . S
O31 Zn20 2.024 . S
O31 C22 1.058 . S
C32 O33 1.228 . S
C32 O34 1.267 . S
O33 C32 1.228 . S
O34 Zn21 1.969 . S
O34 C32 1.267 . S
O35 Zn21 1.965 . S
O35 C39 1.260 . S
O36 Zn20 1.969 . S
O36 C39 1.258 . S
O37 Zn21 2.024 . S
O37 C24 1.058 . S
C38 O27 1.260 . S
C38 O28 1.258 . S
C39 O35 1.260 . S
C39 O36 1.258 . S
Zn40 O46 1.969 . S
Zn40 O47 1.965 . S
Zn40 O51 2.024 . S
Zn40 O56 1.969 . S
Zn41 O48 1.969 . S
Zn41 O54 1.969 . S
Zn41 O55 1.965 . S
Zn41 O57 2.024 . S
C42 O43 1.229 . S
C42 O51 1.058 . S
O43 C42 1.229 . S
C44 O45 1.229 . S
C44 O57 1.058 . S
O45 C44 1.229 . S
O46 Zn40 1.969 . S
O46 C49 1.267 . S
O47 Zn40 1.965 . S
O47 C58 1.260 1_554 S
O48 Zn41 1.969 . S
O48 C58 1.258 . S
C49 O46 1.267 . S
C49 O50 1.228 . S
O50 C49 1.228 . S
O51 Zn40 2.024 . S
O51 C42 1.058 . S
C52 O53 1.228 . S
C52 O54 1.267 . S
O53 C52 1.228 . S
O54 Zn41 1.969 . S
O54 C52 1.267 . S
O55 Zn41 1.965 . S
O55 C59 1.260 1_556 S
O56 Zn40 1.969 . S
O56 C59 1.258 . S
O57 Zn41 2.024 . S
O57 C44 1.058 . S
C58 O47 1.260 1_556 S
C58 O48 1.258 . S
C59 O55 1.260 1_554 S
C59 O56 1.258 . S
Zn60 O66 1.969 . S
Zn60 O67 1.965 . S
Zn60 O71 2.024 1_455 S
Zn60 O76 1.969 . S
Zn61 O68 1.969 . S
Zn61 O74 1.969 . S
Zn61 O75 1.965 . S
Zn61 O77 2.024 1_655 S
C62 O63 1.229 . S
C62 O71 1.058 . S
O63 C62 1.229 . S
C64 O65 1.229 . S
C64 O77 1.058 . S
O65 C64 1.229 . S
O66 Zn60 1.969 . S
O66 C69 1.267 . S
O67 Zn60 1.965 . S
O67 C78 1.260 . S
O68 Zn61 1.969 . S
O68 C78 1.258 1_655 S
C69 O66 1.267 . S
C69 O70 1.228 . S
O70 C69 1.228 . S
O71 Zn60 2.024 1_655 S
O71 C62 1.058 . S
C72 O73 1.228 . S
C72 O74 1.267 . S
O73 C72 1.228 . S
O74 Zn61 1.969 . S
O74 C72 1.267 . S
O75 Zn61 1.965 . S
O75 C79 1.260 1_655 S
O76 Zn60 1.969 . S
O76 C79 1.258 . S
O77 Zn61 2.024 1_455 S
O77 C64 1.058 . S
C78 O67 1.260 . S
C78 O68 1.258 1_455 S
C79 O75 1.260 1_455 S
C79 O76 1.258 . S
C80 C81 1.363 1_554 S
C80 C86 1.379 . S
C80 N88 1.356 . S
C81 C80 1.363 1_556 S
C81 C87 1.363 . S
C82 C83 1.363 . S
C82 C87 1.379 . S
C82 N89 1.356 1_545 S
C83 C82 1.363 . S
C83 C86 1.363 1_556 S
N84 C86 1.356 . S
N84 H96 0.984 . S
N84 H97 0.985 . S
N85 C87 1.356 1_655 S
N85 H90 0.984 . S
N85 H91 0.985 . S
C86 C80 1.379 . S
C86 C83 1.363 1_554 S
C86 N84 1.356 . S
C87 C81 1.363 . S
C87 C82 1.379 . S
C87 N85 1.356 1_455 S
N88 C80 1.356 . S
N88 H94 0.984 . S
N88 H95 0.984 . S
N89 C82 1.356 1_565 S
N89 H92 0.984 . S
N89 H93 0.985 . S
H90 N85 0.984 . S
H91 N85 0.985 . S
H92 N89 0.984 . S
H93 N89 0.985 . S
H94 N88 0.984 . S
H95 N88 0.984 . S
H96 N84 0.984 . S
H97 N84 0.985 . S
C98 C99 1.363 . S
C98 C104 1.379 . S
C98 N106 1.356 1_455 S
C99 C98 1.363 . S
C99 C105 1.363 . S
C100 C101 1.363 . S
C100 C105 1.379 . S
C100 N107 1.356 . S
C101 C100 1.363 . S
C101 C104 1.363 . S
N102 C104 1.356 . S
N102 H114 0.984 . S
N102 H115 0.985 . S
N103 C105 1.356 1_565 S
N103 H108 0.984 . S
N103 H109 0.985 . S
C104 C98 1.379 . S
C104 C101 1.363 . S
C104 N102 1.356 . S
C105 C99 1.363 . S
C105 C100 1.379 . S
C105 N103 1.356 1_545 S
N106 C98 1.356 1_655 S
N106 H112 0.984 . S
N106 H113 0.984 . S
N107 C100 1.356 . S
N107 H110 0.984 . S
N107 H111 0.985 . S
H108 N103 0.984 . S
H109 N103 0.985 . S
H110 N107 0.984 . S
H111 N107 0.985 . S
H112 N106 0.984 . S
H113 N106 0.984 . S
H114 N102 0.984 . S
H115 N102 0.985 . S
C116 C117 1.363 1_556 S
C116 C122 1.379 . S
C116 N124 1.356 . S
C117 C116 1.363 1_554 S
C117 C123 1.363 . S
C118 C119 1.363 . S
C118 C123 1.379 . S
C118 N125 1.356 1_545 S
C119 C118 1.363 . S
C119 C122 1.363 1_554 S
N120 C122 1.356 . S
N120 H132 0.984 . S
N120 H133 0.985 . S
N121 C123 1.356 . S
N121 H126 0.984 . S
N121 H127 0.985 . S
C122 C116 1.379 . S
C122 C119 1.363 1_556 S
C122 N120 1.356 . S
C123 C117 1.363 . S
C123 C118 1.379 . S
C123 N121 1.356 . S
N124 C116 1.356 . S
N124 H130 0.984 . S
N124 H131 0.984 . S
N125 C118 1.356 1_565 S
N125 H128 0.984 . S
N125 H129 0.985 . S
H126 N121 0.984 . S
H127 N121 0.985 . S
H128 N125 0.984 . S
H129 N125 0.985 . S
H130 N124 0.984 . S
H131 N124 0.984 . S
H132 N120 0.984 . S
H133 N120 0.985 . S
C134 C135 1.363 . S
C134 C140 1.379 . S
C134 N142 1.356 . S
C135 C134 1.363 . S
C135 C141 1.363 . S
C136 C137 1.363 . S
C136 C141 1.379 . S
C136 N143 1.356 . S
C137 C136 1.363 . S
C137 C140 1.363 . S
N138 C140 1.356 1_655 S
N138 H150 0.984 . S
N138 H151 0.985 . S
N139 C141 1.356 . S
N139 H144 0.984 . S
N139 H145 0.985 . S
C140 C134 1.379 . S
C140 C137 1.363 . S
C140 N138 1.356 1_455 S
C141 C135 1.363 . S
C141 C136 1.379 . S
C141 N139 1.356 . S
N142 C134 1.356 . S
N142 H148 0.984 . S
N142 H149 0.984 . S
N143 C136 1.356 . S
N143 H146 0.984 . S
N143 H147 0.985 . S
H144 N139 0.984 . S
H145 N139 0.985 . S
H146 N143 0.984 . S
H147 N143 0.985 . S
H148 N142 0.984 . S
H149 N142 0.984 . S
H150 N138 0.984 . S
H151 N138 0.985 . S
C152 C153 1.363 . S
C152 C158 1.379 . S
C152 N160 1.356 . S
C153 C152 1.363 . S
C153 C159 1.363 . S
C154 C155 1.363 . S
C154 C159 1.379 . S
C154 N161 1.356 . S
C155 C154 1.363 . S
C155 C158 1.363 . S
N156 C158 1.356 . S
N156 H168 0.984 . S
N156 H169 0.985 . S
N157 C159 1.356 . S
N157 H162 0.984 . S
N157 H163 0.985 . S
C158 C152 1.379 . S
C158 C155 1.363 . S
C158 N156 1.356 . S
C159 C153 1.363 . S
C159 C154 1.379 . S
C159 N157 1.356 . S
N160 C152 1.356 . S
N160 H166 0.984 . S
N160 H167 0.984 . S
N161 C154 1.356 . S
N161 H164 0.984 . S
N161 H165 0.985 . S
H162 N157 0.984 . S
H163 N157 0.985 . S
H164 N161 0.984 . S
H165 N161 0.985 . S
H166 N160 0.984 . S
H167 N160 0.984 . S
H168 N156 0.984 . S
H169 N156 0.985 . S
C170 C171 1.363 1_455 S
C170 C176 1.379 1_455 S
C170 N178 1.356 . S
C171 C170 1.363 1_655 S
C171 C177 1.363 . S
C172 C173 1.363 . S
C172 C177 1.379 . S
C172 N179 1.356 . S
C173 C172 1.363 . S
C173 C176 1.363 . S
N174 C176 1.356 . S
N174 H186 0.984 1_655 S
N174 H187 0.985 . S
N175 C177 1.356 . S
N175 H180 0.984 . S
N175 H181 0.985 . S
C176 C170 1.379 1_655 S
C176 C173 1.363 . S
C176 N174 1.356 . S
C177 C171 1.363 . S
C177 C172 1.379 . S
C177 N175 1.356 . S
N178 C170 1.356 . S
N178 H184 0.984 . S
N178 H185 0.984 . S
N179 C172 1.356 . S
N179 H182 0.984 . S
N179 H183 0.985 . S
H180 N175 0.984 . S
H181 N175 0.985 . S
H182 N179 0.984 . S
H183 N179 0.985 . S
H184 N178 0.984 . S
H185 N178 0.984 . S
H186 N174 0.984 1_455 S
H187 N174 0.985 . S
C188 C189 1.363 . S
C188 C194 1.379 . S
C188 N196 1.356 . S
C189 C188 1.363 . S
C189 C195 1.363 . S
C190 C191 1.363 1_545 S
C190 C195 1.379 1_545 S
C190 N197 1.356 . S
C191 C190 1.363 1_565 S
C191 C194 1.363 . S
N192 C194 1.356 . S
N192 H204 0.984 . S
N192 H205 0.985 . S
N193 C195 1.356 . S
N193 H198 0.984 . S
N193 H199 0.985 1_565 S
C194 C188 1.379 . S
C194 C191 1.363 . S
C194 N192 1.356 . S
C195 C189 1.363 . S
C195 C190 1.379 1_565 S
C195 N193 1.356 . S
N196 C188 1.356 . S
N196 H202 0.984 . S
N196 H203 0.984 . S
N197 C190 1.356 . S
N197 H200 0.984 . S
N197 H201 0.985 . S
H198 N193 0.984 . S
H199 N193 0.985 1_545 S
H200 N197 0.984 . S
H201 N197 0.985 . S
H202 N196 0.984 . S
H203 N196 0.984 . S
H204 N192 0.984 . S
H205 N192 0.985 . S
C206 C207 1.363 . S
C206 C212 1.379 . S
C206 N214 1.356 . S
C207 C206 1.363 . S
C207 C213 1.363 . S
C208 C209 1.363 . S
C208 C213 1.379 . S
C208 N215 1.356 . S
C209 C208 1.363 . S
C209 C212 1.363 . S
N210 C212 1.356 . S
N210 H222 0.984 . S
N210 H223 0.985 . S
N211 C213 1.356 . S
N211 H216 0.984 . S
N211 H217 0.985 . S
C212 C206 1.379 . S
C212 C209 1.363 . S
C212 N210 1.356 . S
C213 C207 1.363 . S
C213 C208 1.379 . S
C213 N211 1.356 . S
N214 C206 1.356 . S
N214 H220 0.984 . S
N214 H221 0.984 . S
N215 C208 1.356 . S
N215 H218 0.984 . S
N215 H219 0.985 . S
H216 N211 0.984 . S
H217 N211 0.985 . S
H218 N215 0.984 . S
H219 N215 0.985 . S
H220 N214 0.984 . S
H221 N214 0.984 . S
H222 N210 0.984 . S
H223 N210 0.985 . S
C224 C225 1.363 1_545 S
C224 C230 1.379 1_545 S
C224 N232 1.356 . S
C225 C224 1.363 1_565 S
C225 C231 1.363 . S
C226 C227 1.363 . S
C226 C231 1.379 . S
C226 N233 1.356 . S
C227 C226 1.363 . S
C227 C230 1.363 . S
N228 C230 1.356 . S
N228 H240 0.984 1_565 S
N228 H241 0.985 . S
N229 C231 1.356 . S
N229 H234 0.984 . S
N229 H235 0.985 . S
C230 C224 1.379 1_565 S
C230 C227 1.363 . S
C230 N228 1.356 . S
C231 C225 1.363 . S
C231 C226 1.379 . S
C231 N229 1.356 . S
N232 C224 1.356 . S
N232 H238 0.984 . S
N232 H239 0.984 . S
N233 C226 1.356 . S
N233 H236 0.984 . S
N233 H237 0.985 . S
H234 N229 0.984 . S
H235 N229 0.985 . S
H236 N233 0.984 . S
H237 N233 0.985 . S
H238 N232 0.984 . S
H239 N232 0.984 . S
H240 N228 0.984 1_545 S
H241 N228 0.985 . S
C242 C243 1.363 . S
C242 C248 1.379 . S
C242 N250 1.356 . S
C243 C242 1.363 . S
C243 C249 1.363 . S
C244 C245 1.363 . S
C244 C249 1.379 . S
C244 N251 1.356 . S
C245 C244 1.363 . S
C245 C248 1.363 . S
N246 C248 1.356 . S
N246 H258 0.984 . S
N246 H259 0.985 . S
N247 C249 1.356 . S
N247 H252 0.984 . S
N247 H253 0.985 1_565 S
C248 C242 1.379 . S
C248 C245 1.363 . S
C248 N246 1.356 . S
C249 C243 1.363 . S
C249 C244 1.379 . S
C249 N247 1.356 . S
N250 C242 1.356 . S
N250 H256 0.984 . S
N250 H257 0.984 . S
N251 C244 1.356 . S
N251 H254 0.984 . S
N251 H255 0.985 . S
H252 N247 0.984 . S
H253 N247 0.985 1_545 S
H254 N251 0.984 . S
H255 N251 0.985 . S
H256 N250 0.984 . S
H257 N250 0.984 . S
H258 N246 0.984 . S
H259 N246 0.985 . S
C260 C261 1.363 . S
C260 C266 1.379 . S
C260 N268 1.356 . S
C261 C260 1.363 . S
C261 C267 1.363 . S
C262 C263 1.363 . S
C262 C267 1.379 . S
C262 N269 1.356 . S
C263 C262 1.363 . S
C263 C266 1.363 . S
N264 C266 1.356 . S
N264 H276 0.984 . S
N264 H277 0.985 . S
N265 C267 1.356 . S
N265 H270 0.984 . S
N265 H271 0.985 . S
C266 C260 1.379 . S
C266 C263 1.363 . S
C266 N264 1.356 . S
C267 C261 1.363 . S
C267 C262 1.379 . S
C267 N265 1.356 . S
N268 C260 1.356 . S
N268 H274 0.984 . S
N268 H275 0.984 . S
N269 C262 1.356 . S
N269 H272 0.984 . S
N269 H273 0.985 . S
H270 N265 0.984 . S
H271 N265 0.985 . S
H272 N269 0.984 . S
H273 N269 0.985 . S
H274 N268 0.984 . S
H275 N268 0.984 . S
H276 N264 0.984 . S
H277 N264 0.985 . S
C278 C279 1.363 . S
C278 C284 1.379 . S
C278 N286 1.356 . S
C279 C278 1.363 . S
C279 C285 1.363 . S
C280 C281 1.363 1_455 S
C280 C285 1.379 1_455 S
C280 N287 1.356 . S
C281 C280 1.363 1_655 S
C281 C284 1.363 . S
N282 C284 1.356 . S
N282 H294 0.984 . S
N282 H295 0.985 . S
N283 C285 1.356 . S
N283 H288 0.984 . S
N283 H289 0.985 . S
C284 C278 1.379 . S
C284 C281 1.363 . S
C284 N282 1.356 . S
C285 C279 1.363 . S
C285 C280 1.379 1_655 S
C285 N283 1.356 . S
N286 C278 1.356 . S
N286 H292 0.984 . S
N286 H293 0.984 . S
N287 C280 1.356 . S
N287 H290 0.984 . S
N287 H291 0.985 . S
H288 N283 0.984 . S
H289 N283 0.985 . S
H290 N287 0.984 . S
H291 N287 0.985 . S
H292 N286 0.984 . S
H293 N286 0.984 . S
H294 N282 0.984 . S
H295 N282 0.985 . S
C81 C59 0.990 1_456 S
C83 C19 0.990 1_556 S
C99 C79 0.986 1_545 S
C101 C39 0.986 . S
C117 C58 1.323 1_554 S
C119 C18 1.323 1_554 S
C135 C38 1.318 . S
C137 C78 1.318 . S
C153 C32 1.199 . S
C155 C9 1.268 . S
C171 C29 1.270 1_655 S
C173 C52 1.200 . S
C189 C72 1.199 . S
C191 C49 1.268 1_565 S
C207 C69 1.270 . S
C209 C12 1.200 . S
C225 C44 1.709 1_565 S
C227 C62 1.546 . S
C243 C2 1.547 . S
C245 C64 1.710 . S
C261 C22 1.546 . S
C263 C4 1.709 . S
C279 C42 1.547 . S
C281 C24 1.710 1_655 S
