# Generated by pormake.
# Topology umf, (4)-cn, num edge types: 1
# Building blocks:
#     Node 0, Type 0, BuildingBlock: QUQFOY_clean_sbu_1, # of connection points: 4
#     Node 1, Type 0, BuildingBlock: QUQFOY_clean_sbu_1, # of connection points: 4
#     Node 2, Type 0, BuildingBlock: QUQFOY_clean_sbu_1, # of connection points: 4
#     Node 3, Type 0, BuildingBlock: QUQFOY_clean_sbu_1, # of connection points: 4
#     Node 4, Type 0, BuildingBlock: QUQFOY_clean_sbu_1, # of connection points: 4
#     Node 5, Type 0, BuildingBlock: QUQFOY_clean_sbu_1, # of connection points: 4
#     Node 6, Type 0, BuildingBlock: QUQFOY_clean_sbu_1, # of connection points: 4
#     Node 7, Type 0, BuildingBlock: QUQFOY_clean_sbu_1, # of connection points: 4
#     Edge 8, Type (0, 0), BuildingBlock: FUNLAD_clean_linker_1, # of connection points: 2
#     Edge 9, Type (0, 0), BuildingBlock: FUNLAD_clean_linker_1, # of connection points: 2
#     Edge 10, Type (0, 0), BuildingBlock: FUNLAD_clean_linker_1, # of connection points: 2
#     Edge 11, Type (0, 0), BuildingBlock: FUNLAD_clean_linker_1, # of connection points: 2
#     Edge 12, Type (0, 0), BuildingBlock: FUNLAD_clean_linker_1, # of connection points: 2
#     Edge 13, Type (0, 0), BuildingBlock: FUNLAD_clean_linker_1, # of connection points: 2
#     Edge 14, Type (0, 0), BuildingBlock: FUNLAD_clean_linker_1, # of connection points: 2
#     Edge 15, Type (0, 0), BuildingBlock: FUNLAD_clean_linker_1, # of connection points: 2
#     Edge 16, Type (0, 0), BuildingBlock: FUNLAD_clean_linker_1, # of connection points: 2
#     Edge 17, Type (0, 0), BuildingBlock: FUNLAD_clean_linker_1, # of connection points: 2
#     Edge 18, Type (0, 0), BuildingBlock: FUNLAD_clean_linker_1, # of connection points: 2
#     Edge 19, Type (0, 0), BuildingBlock: FUNLAD_clean_linker_1, # of connection points: 2
#     Edge 20, Type (0, 0), BuildingBlock: FUNLAD_clean_linker_1, # of connection points: 2
#     Edge 21, Type (0, 0), BuildingBlock: FUNLAD_clean_linker_1, # of connection points: 2
#     Edge 22, Type (0, 0), BuildingBlock: FUNLAD_clean_linker_1, # of connection points: 2
#     Edge 23, Type (0, 0), BuildingBlock: FUNLAD_clean_linker_1, # of connection points: 2
# Relax obj value: 0.061
# Max RMSD: 0.221
# Mean RMSD: 0.221
data_MOF--net-umf--node1-QUQFOY_clean_sbu_1--edge1-FUNLAD_clean_linker_1
_symmetry_space_group_name_H-M    P1
_symmetry_Int_Tables_number       1
_symmetry_cell_setting            triclinic
loop_
_symmetry_equiv_pos_as_xyz
'x, y, z'
_cell_length_a     30.316425
_cell_length_b     30.100912
_cell_length_c     54.95082
_cell_angle_alpha  90.114963
_cell_angle_beta   89.787855
_cell_angle_gamma 90.758105
loop_
_atom_site_label
_atom_site_type_symbol
_atom_site_fract_x
_atom_site_fract_y
_atom_site_fract_z
_atom_type_partial_charge
O0 O 0.01167 0.25485 0.13351 0.0
Cd1 Cd 0.00425 0.25406 0.17101 0.0
Cd2 Cd 0.08994 0.23367 0.16721 0.0
O3 O 0.08442 0.26123 0.13265 0.0
O4 O 0.95467 0.29521 0.18016 0.0
O5 O 0.02515 0.30977 0.18715 0.0
C6 C 0.98479 0.32245 0.18789 0.0
C7 C 0.13378 0.25478 0.20021 0.0
C8 C 0.04736 0.26191 0.12174 0.0
C9 C 0.02852 0.16194 0.18287 0.0
O10 O 0.06327 0.17125 0.17092 0.0
O11 O 1.00131 0.19225 0.1885 0.0
O12 O 0.15054 0.23225 0.18245 0.0
O13 O 0.09384 0.26808 0.19814 0.0
O14 O 0.82999 0.06113 0.67616 0.0
Cd15 Cd 0.77305 0.09329 0.66743 0.0
Cd16 Cd 0.73871 0.01472 0.67576 0.0
O17 O 0.79615 1.00759 0.69644 0.0
O18 O 0.78472 0.157 0.67625 0.0
O19 O 0.73812 0.11315 0.69639 0.0
C20 C 0.75921 0.1506 0.69483 0.0
C21 C 0.66668 1.00517 0.69059 0.0
C22 C 0.83145 0.02867 0.69084 0.0
C23 C 0.74526 0.04425 0.62374 0.0
O24 O 0.74439 0.01109 0.6381 0.0
O25 O 0.75034 0.08342 0.63219 0.0
O26 O 0.69118 0.97142 0.68596 0.0
O27 O 0.68381 0.04438 0.68803 0.0
O28 O 0.00706 0.74147 0.14221 0.0
Cd29 Cd 0.99863 0.73776 0.1796 0.0
Cd30 Cd 0.92246 0.77511 0.16598 0.0
O31 O 0.93791 0.75252 0.13122 0.0
O32 O 0.04148 0.69205 0.19158 0.0
O33 O 0.96924 0.68144 0.19107 0.0
C34 C 0.00793 0.66597 0.19504 0.0
C35 C 0.86822 0.75498 0.19388 0.0
C36 C 0.97792 0.74434 0.1257 0.0
C37 C 0.98431 0.83218 0.19354 0.0
O38 O 0.95521 0.83122 0.17697 0.0
O39 O 1.0029 0.79647 0.20015 0.0
O40 O 0.85926 0.78253 0.17658 0.0
O41 O 0.90585 0.73569 0.19348 0.0
O42 O 0.1726 0.95018 0.6731 0.0
Cd43 Cd 0.23486 0.92516 0.6711 0.0
Cd44 Cd 0.25483 0.0083 0.67832 0.0
O45 O 0.19224 0.00869 0.69492 0.0
O46 O 0.2305 0.86157 0.68225 0.0
O47 O 0.2617 0.91551 0.70386 0.0
C48 C 0.248 0.87483 0.70245 0.0
C49 C 0.32403 0.02421 0.69517 0.0
C50 C 0.1623 0.98269 0.68659 0.0
C51 C 0.26517 0.9736 0.62791 0.0
O52 O 0.25574 1.00746 0.64073 0.0
O53 O 0.26612 0.93525 0.63769 0.0
O54 O 0.2975 0.05587 0.68967 0.0
O55 O 0.30991 0.98383 0.6928 0.0
O56 O 0.01859 0.74145 0.92216 0.0
Cd57 Cd 0.03296 0.7402 0.8852 0.0
Cd58 Cd 0.10139 0.78544 0.9021 0.0
O59 O 0.08554 0.75751 0.93555 0.0
O60 O 0.99877 0.68823 0.87121 0.0
O61 O 0.07147 0.68995 0.87455 0.0
C62 C 0.03602 0.66822 0.869 0.0
C63 C 0.16212 0.78057 0.87647 0.0
C64 C 0.04566 0.74574 0.93967 0.0
C65 C 0.03885 0.83658 0.87381 0.0
O66 O 0.06385 0.83805 0.89228 0.0
O67 O 0.02651 0.79916 0.86507 0.0
O68 O 0.16434 0.80409 0.89616 0.0
O69 O 0.12753 0.75588 0.87311 0.0
O70 O 0.17853 0.0741 0.3887 0.0
Cd71 Cd 0.23086 0.11459 0.39806 0.0
Cd72 Cd 0.27138 0.03409 0.39657 0.0
O73 O 0.21397 0.0126 0.37951 0.0
O74 O 0.2154 0.1742 0.38398 0.0
O75 O 0.27023 0.13288 0.37056 0.0
C76 C 0.24581 0.16716 0.36792 0.0
C77 C 0.34213 0.03072 0.38013 0.0
C78 C 0.17858 0.03484 0.38015 0.0
C79 C 0.26133 0.07873 0.4456 0.0
O80 O 0.26847 0.04322 0.4337 0.0
O81 O 0.24971 0.11401 0.43463 0.0
O82 O 0.32368 0.99566 0.38941 0.0
O83 O 0.31954 0.06654 0.37909 0.0
O84 O 0.9795 0.25951 0.92605 0.0
Cd85 Cd 0.98098 0.25747 0.88841 0.0
Cd86 Cd 0.89814 0.2297 0.89549 0.0
O87 O 0.90696 0.25746 0.92994 0.0
O88 O 0.02216 0.30623 0.87685 0.0
O89 O 0.94967 0.30703 0.87203 0.0
C90 C 0.98733 0.327 0.8699 0.0
C91 C 0.84055 0.24049 0.86796 0.0
C92 C 0.94513 0.26255 0.93929 0.0
C93 C 0.96319 0.1628 0.87786 0.0
O94 O 0.92802 0.16969 0.88981 0.0
O95 O 0.9888 0.19509 0.8721 0.0
O96 O 0.83404 0.21865 0.88787 0.0
O97 O 0.87846 0.25959 0.8648 0.0
O98 O 0.83699 0.94016 0.38358 0.0
Cd99 Cd 0.78098 0.90434 0.39237 0.0
Cd100 Cd 0.74962 0.98947 0.39371 0.0
O101 O 0.80902 1.00652 0.37715 0.0
O102 O 0.79167 0.84417 0.37733 0.0
O103 O 0.74096 0.89058 0.36442 0.0
C104 C 0.76252 0.85449 0.36127 0.0
C105 C 0.67974 0.99835 0.37732 0.0
C106 C 0.84146 0.98015 0.37649 0.0
C107 C 0.75409 0.93945 0.44121 0.0
O108 O 0.75106 0.97667 0.43046 0.0
O109 O 0.76195 0.90413 0.42911 0.0
O110 O 0.7 0.03166 0.38737 0.0
O111 O 0.70022 0.96134 0.37543 0.0
H112 H 0.9401 0.37927 0.19325 0.0
C113 C 0.974 0.36845 0.19496 0.0
H114 H 0.04023 0.3879 0.20106 0.0
H115 H 0.01273 0.57893 0.15741 0.0
H116 H 0.04607 0.54189 0.12299 0.0
H117 H 0.05833 0.46107 0.12356 0.0
H118 H 0.03677 0.41679 0.1585 0.0
C119 C 0.00603 0.3982 0.20037 0.0
C120 C 0.99791 0.44682 0.20041 0.0
C121 C 0.0119 0.4725 0.18012 0.0
C122 C 0.00576 0.51925 0.18003 0.0
C123 C 0.01798 0.5436 0.15894 0.0
C124 C 0.03687 0.52268 0.1389 0.0
C125 C 0.04371 0.47719 0.1392 0.0
C126 C 0.03129 0.4522 0.15945 0.0
H127 H 0.0475 0.60648 0.20261 0.0
C128 C 0.01405 0.61856 0.20077 0.0
H129 H 0.94635 0.601 0.19876 0.0
H130 H 0.96757 0.40733 0.24207 0.0
H131 H 0.93339 0.44422 0.27654 0.0
H132 H 0.92331 0.52543 0.27662 0.0
H133 H 0.94745 0.57035 0.24226 0.0
C134 C 0.97999 0.58941 0.20045 0.0
C135 C 0.98681 0.54048 0.2006 0.0
C136 C 0.9722 0.51469 0.22071 0.0
C137 C 0.97784 0.46779 0.22064 0.0
C138 C 0.96368 0.44296 0.24113 0.0
C139 C 0.94412 0.46373 0.26103 0.0
C140 C 0.93845 0.50947 0.26107 0.0
C141 C 0.95236 0.53484 0.24123 0.0
H142 H 0.38168 0.0685 0.70167 0.0
C143 C 0.37073 0.03399 0.70124 0.0
H144 H 0.3901 0.96695 0.70115 0.0
H145 H 0.57618 1.00423 0.65419 0.0
H146 H 0.53608 0.97365 0.61992 0.0
H147 H 0.45589 0.95952 0.62252 0.0
H148 H 0.41532 0.97625 0.65938 0.0
C149 C 0.40068 1.00146 0.70282 0.0
C150 C 0.44913 0.01086 0.70164 0.0
C151 C 0.47269 0.99996 0.68011 0.0
C152 C 0.51912 1.00741 0.67875 0.0
C153 C 0.54125 0.99799 0.6566 0.0
C154 C 0.51855 0.98071 0.63665 0.0
C155 C 0.47341 0.9728 0.63811 0.0
C156 C 0.45055 0.98242 0.65946 0.0
H157 H 0.60674 0.96468 0.69763 0.0
C158 C 0.6194 0.99857 0.69651 0.0
H159 H 0.60305 0.06666 0.69688 0.0
H160 H 0.41446 0.03459 0.74571 0.0
H161 H 0.4545 0.06612 0.77995 0.0
H162 H 0.53491 0.07922 0.77757 0.0
H163 H 0.5759 0.06068 0.74096 0.0
C164 C 0.59101 0.03254 0.69778 0.0
C165 C 0.54225 0.02485 0.69915 0.0
C166 C 0.5186 0.03644 0.72051 0.0
C167 C 0.47206 0.02925 0.72181 0.0
C168 C 0.44961 0.04002 0.74361 0.0
C169 C 0.47223 0.05798 0.76343 0.0
C170 C 0.51752 0.06533 0.7621 0.0
C171 C 0.54063 0.05463 0.74097 0.0
H172 H 0.95887 0.3881 0.8549 0.0
C173 C 0.989 0.37389 0.86199 0.0
H174 H 0.05273 0.38775 0.87553 0.0
H175 H 0.0144 0.57703 0.81785 0.0
H176 H 0.02791 0.53485 0.78087 0.0
H177 H 0.0378 0.45366 0.78234 0.0
H178 H 0.03411 0.41402 0.8208 0.0
C179 C 0.02353 0.40088 0.86685 0.0
C180 C 0.01896 0.45012 0.86564 0.0
C181 C 0.02154 0.47282 0.84309 0.0
C182 C 0.01639 0.51981 0.84228 0.0
C183 C 0.01861 0.54152 0.81949 0.0
C184 C 0.02624 0.5177 0.79815 0.0
C185 C 0.03176 0.47196 0.79897 0.0
C186 C 0.02948 0.4496 0.82113 0.0
H187 H 0.07118 0.60667 0.85985 0.0
C188 C 0.03863 0.6206 0.86259 0.0
H189 H 0.971 0.60623 0.86793 0.0
H190 H 0.01233 0.41702 0.91193 0.0
H191 H 0.99946 0.45919 0.94885 0.0
H192 H 0.99087 0.54053 0.94747 0.0
H193 H 0.99496 0.58017 0.90915 0.0
C194 C 1.00334 0.59316 0.8636 0.0
C195 C 0.00881 0.54399 0.86403 0.0
C196 C 0.0063 0.52124 0.88659 0.0
C197 C 0.01156 0.47436 0.88741 0.0
C198 C 0.00883 0.4526 0.91023 0.0
C199 C 1.00142 0.4764 0.93158 0.0
C200 C 0.99654 0.52218 0.93081 0.0
C201 C 0.99893 0.54451 0.90865 0.0
H202 H 0.40218 0.06314 0.36577 0.0
C203 C 0.38904 0.0321 0.37307 0.0
H204 H 0.40446 0.96904 0.38703 0.0
H205 H 0.5901 0.03996 0.33159 0.0
H206 H 0.54943 0.03318 0.29374 0.0
H207 H 0.47021 0.01326 0.29391 0.0
H208 H 0.43105 1.00052 0.33193 0.0
C209 C 0.41683 0.99926 0.37846 0.0
C210 C 0.4654 1.00729 0.3778 0.0
C211 C 0.48801 0.01345 0.35539 0.0
C212 C 0.53404 0.02346 0.35525 0.0
C213 C 0.55548 0.03101 0.33268 0.0
C214 C 0.53247 0.02744 0.31084 0.0
C215 C 0.48784 0.01636 0.31094 0.0
C216 C 0.4657 0.00936 0.3329 0.0
H217 H 0.61854 0.97048 0.36196 0.0
C218 C 0.63289 0.99997 0.37042 0.0
H219 H 0.61985 0.06122 0.38745 0.0
H220 H 0.43196 0.99846 0.42404 0.0
H221 H 0.47303 1.00306 0.46168 0.0
H222 H 0.5533 0.01753 0.46135 0.0
H223 H 0.59284 0.02798 0.4234 0.0
C224 C 0.60633 0.0328 0.37764 0.0
C225 C 0.55758 0.026 0.37747 0.0
C226 C 0.53499 0.01964 0.39988 0.0
C227 C 0.48887 0.01041 0.40005 0.0
C228 C 0.46708 1.00487 0.42274 0.0
C229 C 0.49024 1.0075 0.44454 0.0
C230 C 0.5354 0.01572 0.44436 0.0
C231 C 0.55768 0.02173 0.42238 0.0
H232 H 0.91977 0.26892 0.97702 0.0
C233 C 0.94955 0.26909 0.96594 0.0
H234 H 0.0192 0.27102 0.96592 0.0
H235 H 0.97536 0.34439 0.07781 0.0
H236 H 0.94317 0.40838 0.0582 0.0
H237 H 0.9351 0.41108 1.01358 0.0
H238 H 0.95879 0.34971 0.98828 0.0
C239 C 0.98927 0.27237 0.97683 0.0
C240 C 0.99443 0.27173 1.00388 0.0
C241 C 0.98077 0.30809 1.01842 0.0
C242 C 0.98602 0.30678 0.04419 0.0
C243 C 0.97199 0.34353 0.05821 0.0
C244 C 0.95361 0.38055 0.04719 0.0
C245 C 0.94904 0.38206 1.02206 0.0
C246 C 0.96254 0.34645 1.00775 0.0
H247 H 0.0769 0.27212 0.08514 0.0
C248 C 0.04594 0.26831 0.09499 0.0
H249 H 0.97646 0.26427 0.09229 0.0
H250 H 0.02541 0.19695 0.98147 0.0
H251 H 0.05798 0.13332 1.00101 0.0
H252 H 0.06592 0.13052 0.04562 0.0
H253 H 0.04172 0.19144 0.07092 0.0
C254 C 0.00765 0.26697 0.08256 0.0
C255 C 0.00555 0.2695 0.05542 0.0
C256 C 0.0197 0.23335 0.04084 0.0
C257 C 0.01451 0.23468 1.01508 0.0
C258 C 0.02873 0.19795 1.00105 0.0
C259 C 0.04734 0.16105 1.01204 0.0
C260 C 0.05184 0.15949 0.03715 0.0
C261 C 0.03803 0.19495 0.05147 0.0
H262 H 0.74458 0.06638 0.58534 0.0
C263 C 0.74312 0.03732 0.59704 0.0
H264 H 0.73977 0.96716 0.59836 0.0
H265 H 0.66833 0.94026 0.49115 0.0
H266 H 0.60369 0.91943 0.5149 0.0
H267 H 0.60229 0.93018 0.55941 0.0
H268 H 0.66543 0.96205 0.58047 0.0
C269 C 0.7421 0.99647 0.58689 0.0
C270 C 0.74342 0.98952 0.55993 0.0
C271 C 0.70655 0.97009 0.54789 0.0
C272 C 0.7074 0.96367 0.52217 0.0
C273 C 0.66961 0.94544 0.51062 0.0
C274 C 0.63226 0.93341 0.52403 0.0
C275 C 0.63147 0.93946 0.5491 0.0
C276 C 0.66801 0.95768 0.56097 0.0
H277 H 0.75323 0.90621 0.47735 0.0
C278 C 0.7501 0.93792 0.46815 0.0
H279 H 0.74301 1.00731 0.47226 0.0
H280 H 0.82246 0.02119 0.57743 0.0
H281 H 0.88705 0.04144 0.55367 0.0
H282 H 0.88756 0.03248 0.50904 0.0
H283 H 0.82355 1.00267 0.48794 0.0
C284 C 0.74461 0.97534 0.48134 0.0
C285 C 0.74525 0.97639 0.5085 0.0
C286 C 0.78257 0.99461 0.52061 0.0
C287 C 0.78192 1.00067 0.54633 0.0
C288 C 0.82046 0.01725 0.55791 0.0
C289 C 0.85797 0.0287 0.54449 0.0
C290 C 0.85828 0.02361 0.51937 0.0
C291 C 0.82122 1.00663 0.50748 0.0
H292 H 0.02632 0.72883 0.09709 0.0
C293 C 0.99249 0.73914 0.10013 0.0
H294 H 0.9346 0.76213 0.08333 0.0
H295 H 0.04231 0.83453 0.99177 0.0
H296 H 0.02253 0.90325 1.01187 0.0
H297 H 0.98666 0.90244 0.05223 0.0
H298 H 0.97013 0.83288 0.07271 0.0
C299 C 0.96766 0.74938 0.08078 0.0
C300 C 0.98726 0.74931 0.05576 0.0
C301 C 0.99672 0.79024 0.04397 0.0
C302 C 0.01788 0.79072 1.02078 0.0
C303 C 0.02671 0.83216 1.00947 0.0
C304 C 0.01547 0.87191 1.02079 0.0
C305 C 0.99524 0.87145 0.0435 0.0
C306 C 0.98592 0.83124 0.05505 0.0
H307 H 0.99542 0.72577 0.96674 0.0
C308 C 0.02884 0.73885 0.96472 0.0
H309 H 0.08353 0.76688 0.98309 0.0
H310 H 0.97036 0.66505 0.07214 0.0
H311 H 0.99118 0.59623 0.05237 0.0
H312 H 0.03063 0.5971 1.01302 0.0
H313 H 0.04917 0.66675 0.99308 0.0
C314 C 0.05112 0.75131 0.98476 0.0
C315 C 0.02947 0.75025 1.00926 0.0
C316 C 0.01977 0.70926 1.02098 0.0
C317 C 0.9982 0.70879 0.04408 0.0
C318 C 0.98776 0.66735 0.05496 0.0
C319 C 0.99933 0.6276 0.04375 0.0
C320 C 0.02143 0.62809 1.02156 0.0
C321 C 0.03168 0.66832 1.01025 0.0
H322 H 0.25729 0.10813 0.48267 0.0
C323 C 0.26448 0.07803 0.47254 0.0
H324 H 0.27933 0.00971 0.4746 0.0
H325 H 0.34001 0.0612 0.58602 0.0
H326 H 0.4001 0.10264 0.56707 0.0
H327 H 0.40227 0.11384 0.52262 0.0
H328 H 0.34424 0.0839 0.49683 0.0
C329 C 0.27371 0.0403 0.48462 0.0
C330 C 0.27136 0.03661 0.51167 0.0
C331 C 0.30545 0.05443 0.5265 0.0
C332 C 0.30433 0.04769 0.55217 0.0
C333 C 0.33905 0.06555 0.56649 0.0
C334 C 0.37382 0.08928 0.55584 0.0
C335 C 0.37503 0.09558 0.53081 0.0
C336 C 0.34143 0.07833 0.51621 0.0
H337 H 0.27788 0.94876 0.59054 0.0
C338 C 0.27176 0.97841 0.60129 0.0
H339 H 0.26212 0.04785 0.60065 0.0
H340 H 0.20066 0.99828 0.48858 0.0
H341 H 0.13999 0.95787 0.5075 0.0
H342 H 0.13696 0.94787 0.55201 0.0
H343 H 0.19471 0.97774 0.57783 0.0
C344 C 0.26733 0.01787 0.59002 0.0
C345 C 0.26933 0.02284 0.56299 0.0
C346 C 0.23486 1.00558 0.54816 0.0
C347 C 0.23618 0.01206 0.52249 0.0
C348 C 0.20144 0.99426 0.50814 0.0
C349 C 0.16628 0.97114 0.51876 0.0
C350 C 0.1646 0.96547 0.54382 0.0
C351 C 0.19823 0.98258 0.55843 0.0
H352 H 0.14072 0.28197 0.23716 0.0
C353 C 0.15635 0.26056 0.22379 0.0
H354 H 0.20254 0.20987 0.21828 0.0
H355 H 0.24913 0.28877 0.3299 0.0
H356 H 0.2756 0.35565 0.30947 0.0
H357 H 0.26736 0.36427 0.26507 0.0
H358 H 0.23248 0.30619 0.24078 0.0
C359 C 0.18884 0.23374 0.231 0.0
C360 C 0.19782 0.22769 0.25748 0.0
C361 C 0.21876 0.26167 0.27136 0.0
C362 C 0.22407 0.25647 0.29696 0.0
C363 C 0.24459 0.29104 0.31041 0.0
C364 C 0.25989 0.32952 0.29892 0.0
C365 C 0.2552 0.3344 0.27391 0.0
C366 C 0.23496 0.30094 0.26019 0.0
H367 H 0.27697 0.18688 0.33329 0.0
C368 C 0.24844 0.19234 0.34492 0.0
H369 H 0.18263 0.21389 0.34619 0.0
H370 H 0.15681 0.15549 0.23638 0.0
H371 H 0.13222 0.08828 0.25676 0.0
H372 H 0.14237 0.07902 0.30088 0.0
H373 H 0.17663 0.13716 0.32509 0.0
C374 C 0.21268 0.2116 0.33544 0.0
C375 C 0.20868 0.21726 0.30859 0.0
C376 C 0.18854 0.18289 0.29465 0.0
C377 C 0.18319 0.18804 0.2691 0.0
C378 C 0.16231 0.15332 0.25577 0.0
C379 C 0.14785 0.11452 0.26723 0.0
C380 C 0.15347 0.10933 0.29211 0.0
C381 C 0.17335 0.14301 0.30577 0.0
H382 H 0.77733 0.21949 0.85145 0.0
C383 C 0.80824 0.23706 0.84791 0.0
H384 H 0.85125 0.26269 0.82087 0.0
H385 H 0.76524 0.10136 0.7566 0.0
H386 H 0.80158 0.05329 0.78517 0.0
H387 H 0.83663 0.08402 0.8221 0.0
H388 H 0.8361 0.16236 0.83045 0.0
C389 C 0.82011 0.24582 0.82474 0.0
C390 C 0.79545 0.22698 0.80352 0.0
C391 C 0.79673 0.18063 0.79861 0.0
C392 C 0.77684 0.16309 0.77714 0.0
C393 C 0.77924 0.11672 0.77266 0.0
C394 C 0.80026 0.0886 0.78886 0.0
C395 C 0.82005 0.10581 0.80961 0.0
C396 C 0.81892 0.15116 0.81435 0.0
H397 H 0.78531 0.20856 0.71491 0.0
C398 C 0.76076 0.18194 0.7156 0.0
H399 H 0.71626 0.14572 0.73763 0.0
H400 H 0.78654 0.31678 0.80751 0.0
H401 H 0.74957 0.36522 0.77898 0.0
H402 H 0.71446 0.33475 0.74199 0.0
H403 H 0.71632 0.25567 0.73317 0.0
C404 C 0.73983 0.17319 0.73673 0.0
C405 C 0.75656 0.19195 0.76022 0.0
C406 C 0.75451 0.23808 0.76536 0.0
C407 C 0.77425 0.25561 0.78692 0.0
C408 C 0.77214 0.30183 0.79141 0.0
C409 C 0.75093 0.32994 0.77523 0.0
C410 C 0.7312 0.31278 0.75439 0.0
C411 C 0.73273 0.2674 0.74946 0.0
H412 H 0.73188 0.84021 0.32581 0.0
C413 C 0.75854 0.83069 0.33782 0.0
H414 H 0.82042 0.8001 0.34005 0.0
H415 H 0.75247 0.72897 0.23117 0.0
H416 H 0.69884 0.68349 0.25316 0.0
H417 H 0.69003 0.69099 0.29763 0.0
H418 H 0.73462 0.74417 0.32044 0.0
C419 C 0.79194 0.80679 0.32874 0.0
C420 C 0.79713 0.80096 0.3019 0.0
C421 C 0.77114 0.76951 0.28888 0.0
C422 C 0.77676 0.76464 0.26324 0.0
C423 C 0.74997 0.73344 0.25067 0.0
C424 C 0.71902 0.70727 0.26305 0.0
C425 C 0.71401 0.71154 0.2881 0.0
C426 C 0.7397 0.74223 0.30097 0.0
H427 H 0.8484 0.72427 0.22853 0.0
C428 C 0.84071 0.75098 0.21601 0.0
H429 H 0.81184 0.81379 0.21241 0.0
H430 H 0.85124 0.86577 0.3211 0.0
H431 H 0.90556 0.91012 0.29931 0.0
H432 H 0.91692 0.90012 0.25521 0.0
H433 H 0.87338 0.84639 0.2325 0.0
C434 C 0.81657 0.78514 0.22408 0.0
C435 C 0.80859 0.79098 0.25072 0.0
C436 C 0.83448 0.82262 0.26375 0.0
C437 C 0.82866 0.82767 0.28931 0.0
C438 C 0.85465 0.85993 0.30175 0.0
C439 C 0.88596 0.88576 0.28946 0.0
C440 C 0.89225 0.88024 0.26462 0.0
C441 C 0.86692 0.84919 0.25181 0.0
H442 H 0.2326 0.81276 0.72241 0.0
C443 C 0.24635 0.84612 0.72429 0.0
H444 H 0.26521 0.897 0.74873 0.0
H445 H 0.12957 0.83777 0.82957 0.0
H446 H 0.09201 0.90051 0.81201 0.0
H447 H 0.11992 0.93607 0.77447 0.0
H448 H 0.18578 0.90934 0.75443 0.0
C449 C 0.2539 0.86278 0.74668 0.0
C450 C 0.23709 0.83996 0.769 0.0
C451 C 0.19854 0.85613 0.78059 0.0
C452 C 0.18221 0.83537 0.80211 0.0
C453 C 0.14347 0.85212 0.81316 0.0
C454 C 0.1215 0.88816 0.80327 0.0
C455 C 0.13725 0.90822 0.78218 0.0
C456 C 0.17523 0.89255 0.77088 0.0
H457 H 0.22107 0.81181 0.85959 0.0
C458 C 0.19411 0.78835 0.85647 0.0
H459 H 0.15652 0.75379 0.8301 0.0
H460 H 0.31261 0.80202 0.75207 0.0
H461 H 0.35027 0.73905 0.76973 0.0
H462 H 0.32146 0.70264 0.80683 0.0
H463 H 0.25487 0.72909 0.82664 0.0
C464 C 0.18492 0.77524 0.83358 0.0
C465 C 0.20448 0.79851 0.81211 0.0
C466 C 0.24317 0.7826 0.8007 0.0
C467 C 0.25957 0.8034 0.77913 0.0
C468 C 0.29855 0.78713 0.76829 0.0
C469 C 0.32048 0.75111 0.77827 0.0
C470 C 0.30427 0.7306 0.79918 0.0
C471 C 0.26606 0.74603 0.81035 0.0
H472 H 0.03515 0.09075 0.17665 0.0
C473 C 0.02026 0.11493 0.1888 0.0
H474 H 0.98464 0.12401 0.2215 0.0
H475 H 0.90256 0.92832 0.21092 0.0
H476 H 0.83768 0.9732 0.21796 0.0
H477 H 0.84444 0.05452 0.22292 0.0
H478 H 0.91614 0.09138 0.22119 0.0
C479 C 0.99935 0.10049 0.20896 0.0
C480 C 0.99564 0.0516 0.21362 0.0
C481 C 0.95363 0.03076 0.21502 0.0
C482 C 0.94971 0.98397 0.21178 0.0
C483 C 0.90726 0.96386 0.2129 0.0
C484 C 0.86983 0.98919 0.21701 0.0
C485 C 0.87366 0.03497 0.21982 0.0
C486 C 0.91498 0.05574 0.21874 0.0
H487 H 0.01462 0.87536 0.22199 0.0
C488 C 0.9954 0.87514 0.20534 0.0
H489 H 0.96121 0.91257 0.17933 0.0
H490 H 0.08065 0.07915 0.22044 0.0
H491 H 0.1464 0.03434 0.21572 0.0
H492 H 0.14015 0.95469 0.20535 0.0
H493 H 0.06872 0.91913 0.20056 0.0
C494 C 0.98133 0.91352 0.19567 0.0
C495 C 0.98768 0.95832 0.20682 0.0
C496 C 0.03015 0.97848 0.20862 0.0
C497 C 0.03394 0.02497 0.21303 0.0
C498 C 0.07636 0.04431 0.216 0.0
C499 C 0.11418 0.01897 0.21347 0.0
C500 C 0.11064 0.9741 0.20773 0.0
C501 C 0.06923 0.95397 0.20517 0.0
H502 H 0.09249 0.97459 0.67786 0.0
C503 C 0.11494 0.99001 0.69087 0.0
H504 H 0.11962 0.02753 0.72327 0.0
H505 H 0.93052 0.1114 0.70458 0.0
H506 H 0.97718 0.17659 0.71069 0.0
H507 H 0.05719 0.16922 0.71731 0.0
H508 H 0.09093 0.09663 0.71823 0.0
C509 C 0.09795 0.01189 0.70999 0.0
C510 C 0.04891 0.01638 0.71217 0.0
C511 C 0.02978 0.059 0.7118 0.0
C512 C 0.98377 0.06324 0.70739 0.0
C513 C 0.96544 0.10629 0.70724 0.0
C514 C 0.9918 0.14397 0.71085 0.0
C515 C 0.03684 0.13982 0.71461 0.0
C516 C 0.05581 0.09792 0.71505 0.0
H517 H 0.87447 0.99638 0.71809 0.0
C518 C 0.87428 0.01666 0.70176 0.0
H519 H 0.91151 0.05213 0.67571 0.0
H520 H 0.07201 0.93081 0.7213 0.0
H521 H 0.02577 0.86489 0.71583 0.0
H522 H 0.94849 0.87144 0.70251 0.0
H523 H 0.91653 0.94343 0.69555 0.0
C524 C 0.91253 0.03129 0.69183 0.0
C525 C 0.95714 0.02497 0.7027 0.0
C526 C 0.9756 0.98213 0.70539 0.0
C527 C 0.0211 0.97808 0.71126 0.0
C528 C 0.03825 0.93531 0.71553 0.0
C529 C 0.01204 0.89737 0.71263 0.0
C530 C 0.96848 0.90109 0.70525 0.0
C531 C 0.95037 0.94283 0.70151 0.0
H532 H 0.9544 0.0909 0.88164 0.0
C533 C 0.9738 0.11618 0.87216 0.0
H534 H 0.02547 0.12775 0.84704 0.0
H535 H 0.11224 0.94286 0.87432 0.0
H536 H 0.1727 0.99549 0.88009 0.0
H537 H 0.16168 0.07583 0.87426 0.0
H538 H 0.09045 0.10396 0.86224 0.0
C539 C 0.00528 0.10318 0.8565 0.0
C540 C 0.01527 0.05475 0.85407 0.0
C541 C 0.05719 0.03897 0.86096 0.0
C542 C 0.06321 0.99276 0.86498 0.0
C543 C 0.10555 0.97777 0.87171 0.0
C544 C 0.14058 1.00757 0.87493 0.0
C545 C 0.13439 0.05279 0.87162 0.0
C546 C 0.09326 0.06851 0.86475 0.0
H547 H 0.01656 0.8782 0.84296 0.0
C548 C 0.02691 0.87877 0.86186 0.0
H549 H 0.04234 0.91722 0.89274 0.0
H550 H 0.93704 0.07209 0.83195 0.0
H551 H 0.87721 0.01894 0.82433 0.0
H552 H 0.88384 0.94067 0.8364 0.0
H553 H 0.9507 0.91402 0.85482 0.0
C554 C 0.03114 0.91759 0.87396 0.0
C555 C 0.02704 0.96253 0.86281 0.0
C556 C 0.98642 0.97774 0.85341 0.0
C557 C 0.9813 0.0237 0.8481 0.0
C558 C 0.94162 0.03787 0.83731 0.0
C559 C 0.90721 1.00787 0.83281 0.0
C560 C 0.91107 0.96362 0.83945 0.0
C561 C 0.94996 0.94863 0.84984 0.0
H562 H 0.89183 0.03239 0.36907 0.0
C563 C 0.88582 0.99673 0.36955 0.0
H564 H 0.91365 0.9329 0.36721 0.0
H565 H 0.08078 0.06074 0.32888 0.0
H566 H 0.03723 0.0725 0.29244 0.0
H567 H 0.96091 0.04337 0.28963 0.0
H568 H 0.92756 1.00263 0.32331 0.0
C569 C 0.91952 0.96858 0.36637 0.0
C570 C 0.96619 0.98425 0.36698 0.0
C571 C 0.98511 1.00773 0.34712 0.0
C572 C 0.0293 0.02401 0.34862 0.0
C573 C 0.04738 0.04766 0.32862 0.0
C574 C 0.02277 0.05455 0.30762 0.0
C575 C 0.97978 0.03818 0.30605 0.0
C576 C 0.96098 0.01501 0.32552 0.0
H577 H 0.13522 0.97844 0.36921 0.0
C578 C 0.13634 0.01398 0.37273 0.0
H579 H 0.09978 0.07321 0.37528 0.0
H580 H 0.94053 0.93816 0.4078 0.0
H581 H 0.98436 0.92537 0.44377 0.0
H582 H 0.06043 0.95485 0.44673 0.0
H583 H 0.09315 0.99689 0.4137 0.0
C584 C 0.09885 0.03747 0.37245 0.0
C585 C 0.05458 0.01623 0.36981 0.0
C586 C 0.03594 0.99178 0.38946 0.0
C587 C 0.99185 0.97538 0.38791 0.0
C588 C 0.9739 0.95132 0.40788 0.0
C589 C 0.99865 0.94382 0.42872 0.0
C590 C 0.04147 0.96037 0.43038 0.0
C591 C 0.05996 0.98429 0.41114 0.0
loop_
_geom_bond_atom_site_label_1
_geom_bond_atom_site_label_2
_geom_bond_distance
_geom_bond_site_symmetry_2
_ccdc_geom_bond_type
O0 Cd1 2.223 . S
O0 C8 1.315 . S
Cd1 O0 2.223 . S
Cd1 O4 2.297 . S
Cd1 O5 2.439 . S
Cd1 O11 2.240 . S
Cd2 O3 2.240 . S
Cd2 O10 2.223 . S
Cd2 O12 2.297 . S
Cd2 O13 2.439 . S
O3 Cd2 2.240 . S
O3 C8 1.279 . S
O4 Cd1 2.297 . S
O4 C6 1.247 . S
O5 Cd1 2.439 . S
O5 C6 1.208 . S
C6 O4 1.247 . S
C6 O5 1.208 . S
C7 O12 1.247 . S
C7 O13 1.208 . S
C8 O0 1.315 . S
C8 O3 1.279 . S
C9 O10 1.315 . S
C9 O11 1.279 . S
O10 Cd2 2.223 . S
O10 C9 1.315 . S
O11 Cd1 2.240 . S
O11 C9 1.279 . S
O12 Cd2 2.297 . S
O12 C7 1.247 . S
O13 Cd2 2.439 . S
O13 C7 1.208 . S
O14 Cd15 2.223 . S
O14 C22 1.315 . S
Cd15 O14 2.223 . S
Cd15 O18 2.297 . S
Cd15 O19 2.439 . S
Cd15 O25 2.240 . S
Cd16 O17 2.240 . S
Cd16 O24 2.223 . S
Cd16 O26 2.297 . S
Cd16 O27 2.439 . S
O17 Cd16 2.240 . S
O17 C22 1.279 . S
O18 Cd15 2.297 . S
O18 C20 1.247 . S
O19 Cd15 2.439 . S
O19 C20 1.208 . S
C20 O18 1.247 . S
C20 O19 1.208 . S
C21 O26 1.247 . S
C21 O27 1.208 . S
C22 O14 1.315 . S
C22 O17 1.279 . S
C23 O24 1.315 . S
C23 O25 1.279 . S
O24 Cd16 2.223 . S
O24 C23 1.315 . S
O25 Cd15 2.240 . S
O25 C23 1.279 . S
O26 Cd16 2.297 . S
O26 C21 1.247 . S
O27 Cd16 2.439 . S
O27 C21 1.208 . S
O28 Cd29 2.223 . S
O28 C36 1.315 . S
Cd29 O28 2.223 . S
Cd29 O32 2.297 . S
Cd29 O33 2.439 . S
Cd29 O39 2.240 . S
Cd30 O31 2.240 . S
Cd30 O38 2.223 . S
Cd30 O40 2.297 . S
Cd30 O41 2.439 . S
O31 Cd30 2.240 . S
O31 C36 1.279 . S
O32 Cd29 2.297 . S
O32 C34 1.247 . S
O33 Cd29 2.439 . S
O33 C34 1.208 . S
C34 O32 1.247 . S
C34 O33 1.208 . S
C35 O40 1.247 . S
C35 O41 1.208 . S
C36 O28 1.315 . S
C36 O31 1.279 . S
C37 O38 1.315 . S
C37 O39 1.279 . S
O38 Cd30 2.223 . S
O38 C37 1.315 . S
O39 Cd29 2.240 . S
O39 C37 1.279 . S
O40 Cd30 2.297 . S
O40 C35 1.247 . S
O41 Cd30 2.439 . S
O41 C35 1.208 . S
O42 Cd43 2.223 . S
O42 C50 1.315 . S
Cd43 O42 2.223 . S
Cd43 O46 2.297 . S
Cd43 O47 2.439 . S
Cd43 O53 2.240 . S
Cd44 O45 2.240 . S
Cd44 O52 2.223 . S
Cd44 O54 2.297 . S
Cd44 O55 2.439 . S
O45 Cd44 2.240 . S
O45 C50 1.279 . S
O46 Cd43 2.297 . S
O46 C48 1.247 . S
O47 Cd43 2.439 . S
O47 C48 1.208 . S
C48 O46 1.247 . S
C48 O47 1.208 . S
C49 O54 1.247 . S
C49 O55 1.208 . S
C50 O42 1.315 . S
C50 O45 1.279 . S
C51 O52 1.315 . S
C51 O53 1.279 . S
O52 Cd44 2.223 . S
O52 C51 1.315 . S
O53 Cd43 2.240 . S
O53 C51 1.279 . S
O54 Cd44 2.297 . S
O54 C49 1.247 . S
O55 Cd44 2.439 . S
O55 C49 1.208 . S
O56 Cd57 2.223 . S
O56 C64 1.315 . S
Cd57 O56 2.223 . S
Cd57 O60 2.297 . S
Cd57 O61 2.439 . S
Cd57 O67 2.240 . S
Cd58 O59 2.240 . S
Cd58 O66 2.223 . S
Cd58 O68 2.297 . S
Cd58 O69 2.439 . S
O59 Cd58 2.240 . S
O59 C64 1.279 . S
O60 Cd57 2.297 . S
O60 C62 1.247 . S
O61 Cd57 2.439 . S
O61 C62 1.208 . S
C62 O60 1.247 . S
C62 O61 1.208 . S
C63 O68 1.247 . S
C63 O69 1.208 . S
C64 O56 1.315 . S
C64 O59 1.279 . S
C65 O66 1.315 . S
C65 O67 1.279 . S
O66 Cd58 2.223 . S
O66 C65 1.315 . S
O67 Cd57 2.240 . S
O67 C65 1.279 . S
O68 Cd58 2.297 . S
O68 C63 1.247 . S
O69 Cd58 2.439 . S
O69 C63 1.208 . S
O70 Cd71 2.223 . S
O70 C78 1.315 . S
Cd71 O70 2.223 . S
Cd71 O74 2.297 . S
Cd71 O75 2.439 . S
Cd71 O81 2.240 . S
Cd72 O73 2.240 . S
Cd72 O80 2.223 . S
Cd72 O82 2.297 . S
Cd72 O83 2.439 . S
O73 Cd72 2.240 . S
O73 C78 1.279 . S
O74 Cd71 2.297 . S
O74 C76 1.247 . S
O75 Cd71 2.439 . S
O75 C76 1.208 . S
C76 O74 1.247 . S
C76 O75 1.208 . S
C77 O82 1.247 . S
C77 O83 1.208 . S
C78 O70 1.315 . S
C78 O73 1.279 . S
C79 O80 1.315 . S
C79 O81 1.279 . S
O80 Cd72 2.223 . S
O80 C79 1.315 . S
O81 Cd71 2.240 . S
O81 C79 1.279 . S
O82 Cd72 2.297 . S
O82 C77 1.247 . S
O83 Cd72 2.439 . S
O83 C77 1.208 . S
O84 Cd85 2.223 . S
O84 C92 1.315 . S
Cd85 O84 2.223 . S
Cd85 O88 2.297 . S
Cd85 O89 2.439 . S
Cd85 O95 2.240 . S
Cd86 O87 2.240 . S
Cd86 O94 2.223 . S
Cd86 O96 2.297 . S
Cd86 O97 2.439 . S
O87 Cd86 2.240 . S
O87 C92 1.279 . S
O88 Cd85 2.297 . S
O88 C90 1.247 . S
O89 Cd85 2.439 . S
O89 C90 1.208 . S
C90 O88 1.247 . S
C90 O89 1.208 . S
C91 O96 1.247 . S
C91 O97 1.208 . S
C92 O84 1.315 . S
C92 O87 1.279 . S
C93 O94 1.315 . S
C93 O95 1.279 . S
O94 Cd86 2.223 . S
O94 C93 1.315 . S
O95 Cd85 2.240 . S
O95 C93 1.279 . S
O96 Cd86 2.297 . S
O96 C91 1.247 . S
O97 Cd86 2.439 . S
O97 C91 1.208 . S
O98 Cd99 2.223 . S
O98 C106 1.315 . S
Cd99 O98 2.223 . S
Cd99 O102 2.297 . S
Cd99 O103 2.439 . S
Cd99 O109 2.240 . S
Cd100 O101 2.240 . S
Cd100 O108 2.223 . S
Cd100 O110 2.297 . S
Cd100 O111 2.439 . S
O101 Cd100 2.240 . S
O101 C106 1.279 . S
O102 Cd99 2.297 . S
O102 C104 1.247 . S
O103 Cd99 2.439 . S
O103 C104 1.208 . S
C104 O102 1.247 . S
C104 O103 1.208 . S
C105 O110 1.247 . S
C105 O111 1.208 . S
C106 O98 1.315 . S
C106 O101 1.279 . S
C107 O108 1.315 . S
C107 O109 1.279 . S
O108 Cd100 2.223 . S
O108 C107 1.315 . S
O109 Cd99 2.240 . S
O109 C107 1.279 . S
O110 Cd100 2.297 . S
O110 C105 1.247 . S
O111 Cd100 2.439 . S
O111 C105 1.208 . S
H112 C113 0.952 1_655 S
C113 H112 0.952 1_455 S
C113 C119 1.265 . S
H114 C119 0.950 . S
H115 C123 0.949 . S
H116 C124 0.950 . S
H117 C125 0.951 . S
H118 C126 0.951 . S
C119 C113 1.265 . S
C119 H114 0.950 . S
C119 C120 1.478 . S
C120 C119 1.478 . S
C120 C121 1.397 . S
C120 C137 1.394 1_455 S
C121 C120 1.397 . S
C121 C122 1.438 . S
C121 C126 1.429 . S
C122 C121 1.438 . S
C122 C123 1.428 . S
C122 C135 1.394 1_455 S
C123 H115 0.949 . S
C123 C122 1.428 . S
C123 C124 1.345 . S
C124 H116 0.950 . S
C124 C123 1.345 . S
C124 C125 1.424 . S
C125 H117 0.951 . S
C125 C124 1.424 . S
C125 C126 1.347 . S
C126 H118 0.951 . S
C126 C121 1.429 . S
C126 C125 1.347 . S
H127 C128 0.953 1_455 S
C128 H127 0.953 1_655 S
C128 C134 1.265 . S
H129 C134 0.950 . S
H130 C138 0.949 . S
H131 C139 0.950 . S
H132 C140 0.951 . S
H133 C141 0.951 . S
C134 C128 1.265 . S
C134 H129 0.950 . S
C134 C135 1.478 . S
C135 C122 1.394 1_655 S
C135 C134 1.478 . S
C135 C136 1.397 . S
C136 C135 1.397 . S
C136 C137 1.438 . S
C136 C141 1.429 . S
C137 C120 1.394 1_655 S
C137 C136 1.438 . S
C137 C138 1.428 . S
C138 H130 0.949 . S
C138 C137 1.428 . S
C138 C139 1.345 . S
C139 H131 0.950 . S
C139 C138 1.345 . S
C139 C140 1.424 . S
C140 H132 0.951 . S
C140 C139 1.424 . S
C140 C141 1.347 . S
C141 H133 0.951 . S
C141 C136 1.429 . S
C141 C140 1.347 . S
H142 C143 0.951 . S
C143 H142 0.951 . S
C143 C149 1.265 . S
H144 C149 0.950 . S
H145 C153 0.949 . S
H146 C154 0.950 . S
H147 C155 0.951 . S
H148 C156 0.951 . S
C149 C143 1.265 . S
C149 H144 0.950 . S
C149 C150 1.478 . S
C150 C149 1.478 . S
C150 C151 1.397 . S
C150 C167 1.394 1_565 S
C151 C150 1.397 . S
C151 C152 1.438 . S
C151 C156 1.429 . S
C152 C151 1.438 . S
C152 C153 1.428 . S
C152 C165 1.394 1_565 S
C153 H145 0.949 . S
C153 C152 1.428 . S
C153 C154 1.345 . S
C154 H146 0.950 . S
C154 C153 1.345 . S
C154 C155 1.424 . S
C155 H147 0.951 . S
C155 C154 1.424 . S
C155 C156 1.347 . S
C156 H148 0.951 . S
C156 C151 1.429 . S
C156 C155 1.347 . S
H157 C158 0.951 . S
C158 H157 0.951 . S
C158 C164 1.265 . S
H159 C164 0.950 . S
H160 C168 0.949 . S
H161 C169 0.950 . S
H162 C170 0.951 . S
H163 C171 0.951 . S
C164 C158 1.265 . S
C164 H159 0.950 . S
C164 C165 1.478 . S
C165 C152 1.394 1_545 S
C165 C164 1.478 . S
C165 C166 1.397 . S
C166 C165 1.397 . S
C166 C167 1.438 . S
C166 C171 1.429 . S
C167 C150 1.394 1_545 S
C167 C166 1.438 . S
C167 C168 1.428 . S
C168 H160 0.949 . S
C168 C167 1.428 . S
C168 C169 1.345 . S
C169 H161 0.950 . S
C169 C168 1.345 . S
C169 C170 1.424 . S
C170 H162 0.951 . S
C170 C169 1.424 . S
C170 C171 1.347 . S
C171 H163 0.951 . S
C171 C166 1.429 . S
C171 C170 1.347 . S
H172 C173 0.951 . S
C173 H172 0.951 . S
C173 C179 1.265 . S
H174 C179 0.950 1_455 S
H175 C183 0.949 . S
H176 C184 0.950 . S
H177 C185 0.951 . S
H178 C186 0.951 . S
C179 C173 1.265 . S
C179 H174 0.950 1_655 S
C179 C180 1.478 . S
C180 C179 1.478 . S
C180 C181 1.397 1_655 S
C180 C197 1.394 . S
C181 C180 1.397 1_455 S
C181 C182 1.438 . S
C181 C186 1.429 . S
C182 C181 1.438 . S
C182 C183 1.428 . S
C182 C195 1.394 . S
C183 H175 0.949 . S
C183 C182 1.428 . S
C183 C184 1.345 . S
C184 H176 0.950 . S
C184 C183 1.345 . S
C184 C185 1.424 . S
C185 H177 0.951 . S
C185 C184 1.424 . S
C185 C186 1.347 . S
C186 H178 0.951 . S
C186 C181 1.429 . S
C186 C185 1.347 . S
H187 C188 0.951 . S
C188 H187 0.951 . S
C188 C194 1.265 . S
H189 C194 0.950 1_655 S
H190 C198 0.949 . S
H191 C199 0.950 . S
H192 C200 0.951 . S
H193 C201 0.951 . S
C194 C188 1.265 . S
C194 H189 0.950 1_455 S
C194 C195 1.478 . S
C195 C182 1.394 . S
C195 C194 1.478 . S
C195 C196 1.397 1_455 S
C196 C195 1.397 1_655 S
C196 C197 1.438 . S
C196 C201 1.429 . S
C197 C180 1.394 . S
C197 C196 1.438 . S
C197 C198 1.428 . S
C198 H190 0.949 . S
C198 C197 1.428 . S
C198 C199 1.345 . S
C199 H191 0.950 . S
C199 C198 1.345 . S
C199 C200 1.424 . S
C200 H192 0.951 . S
C200 C199 1.424 . S
C200 C201 1.347 . S
C201 H193 0.951 . S
C201 C196 1.429 . S
C201 C200 1.347 . S
H202 C203 0.951 . S
C203 H202 0.951 . S
C203 C209 1.265 . S
H204 C209 0.950 1_565 S
H205 C213 0.949 . S
H206 C214 0.950 . S
H207 C215 0.951 . S
H208 C216 0.951 . S
C209 C203 1.265 . S
C209 H204 0.950 1_545 S
C209 C210 1.478 . S
C210 C209 1.478 . S
C210 C211 1.397 1_545 S
C210 C227 1.394 . S
C211 C210 1.397 1_565 S
C211 C212 1.438 . S
C211 C216 1.429 . S
C212 C211 1.438 . S
C212 C213 1.428 . S
C212 C225 1.394 . S
C213 H205 0.949 . S
C213 C212 1.428 . S
C213 C214 1.345 . S
C214 H206 0.950 . S
C214 C213 1.345 . S
C214 C215 1.424 . S
C215 H207 0.951 . S
C215 C214 1.424 . S
C215 C216 1.347 . S
C216 H208 0.951 . S
C216 C211 1.429 . S
C216 C215 1.347 . S
H217 C218 0.951 . S
C218 H217 0.951 . S
C218 C224 1.265 . S
H219 C224 0.950 1_545 S
H220 C228 0.949 . S
H221 C229 0.950 . S
H222 C230 0.951 . S
H223 C231 0.951 . S
C224 C218 1.265 . S
C224 H219 0.950 1_565 S
C224 C225 1.478 . S
C225 C212 1.394 . S
C225 C224 1.478 . S
C225 C226 1.397 1_565 S
C226 C225 1.397 1_545 S
C226 C227 1.438 . S
C226 C231 1.429 . S
C227 C210 1.394 . S
C227 C226 1.438 . S
C227 C228 1.428 . S
C228 H220 0.949 . S
C228 C227 1.428 . S
C228 C229 1.345 . S
C229 H221 0.950 . S
C229 C228 1.345 . S
C229 C230 1.424 . S
C230 H222 0.951 . S
C230 C229 1.424 . S
C230 C231 1.347 . S
C231 H223 0.951 . S
C231 C226 1.429 . S
C231 C230 1.347 . S
H232 C233 0.951 . S
C233 H232 0.951 . S
C233 C239 1.265 . S
H234 C239 0.950 . S
H235 C243 0.949 . S
H236 C244 0.950 . S
H237 C245 0.951 . S
H238 C246 0.951 . S
C239 C233 1.265 . S
C239 H234 0.950 . S
C239 C240 1.478 . S
C240 C239 1.478 . S
C240 C241 1.397 . S
C240 C257 1.394 . S
C241 C240 1.397 . S
C241 C242 1.438 1_656 S
C241 C246 1.429 . S
C242 C241 1.438 1_454 S
C242 C243 1.428 . S
C242 C255 1.394 . S
C243 H235 0.949 . S
C243 C242 1.428 . S
C243 C244 1.345 1_455 S
C244 H236 0.950 . S
C244 C243 1.345 1_655 S
C244 C245 1.424 . S
C245 H237 0.951 . S
C245 C244 1.424 . S
C245 C246 1.347 1_554 S
C246 H238 0.951 . S
C246 C241 1.429 . S
C246 C245 1.347 1_556 S
H247 C248 0.951 . S
C248 H247 0.951 . S
C248 C254 1.265 . S
H249 C254 0.950 . S
H250 C258 0.949 . S
H251 C259 0.950 . S
H252 C260 0.951 . S
H253 C261 0.951 . S
C254 C248 1.265 . S
C254 H249 0.950 . S
C254 C255 1.478 . S
C255 C242 1.394 . S
C255 C254 1.478 . S
C255 C256 1.397 . S
C256 C255 1.397 . S
C256 C257 1.438 1_454 S
C256 C261 1.429 . S
C257 C240 1.394 . S
C257 C256 1.438 1_656 S
C257 C258 1.428 . S
C258 H250 0.949 . S
C258 C257 1.428 . S
C258 C259 1.345 1_655 S
C259 H251 0.950 . S
C259 C258 1.345 1_455 S
C259 C260 1.424 . S
C260 H252 0.951 . S
C260 C259 1.424 . S
C260 C261 1.347 1_556 S
C261 H253 0.951 . S
C261 C256 1.429 . S
C261 C260 1.347 1_554 S
H262 C263 0.951 . S
C263 H262 0.951 . S
C263 C269 1.265 . S
H264 C269 0.950 . S
H265 C273 0.949 . S
H266 C274 0.950 . S
H267 C275 0.951 . S
H268 C276 0.951 . S
C269 C263 1.265 . S
C269 H264 0.950 . S
C269 C270 1.478 . S
C270 C269 1.478 . S
C270 C271 1.397 1_545 S
C270 C287 1.394 . S
C271 C270 1.397 1_565 S
C271 C272 1.438 . S
C271 C276 1.429 . S
C272 C271 1.438 . S
C272 C273 1.428 . S
C272 C285 1.394 . S
C273 H265 0.949 . S
C273 C272 1.428 . S
C273 C274 1.345 . S
C274 H266 0.950 . S
C274 C273 1.345 . S
C274 C275 1.424 . S
C275 H267 0.951 . S
C275 C274 1.424 . S
C275 C276 1.347 . S
C276 H268 0.951 . S
C276 C271 1.429 . S
C276 C275 1.347 . S
H277 C278 0.951 . S
C278 H277 0.951 . S
C278 C284 1.265 . S
H279 C284 0.950 . S
H280 C288 0.949 . S
H281 C289 0.950 . S
H282 C290 0.951 . S
H283 C291 0.951 . S
C284 C278 1.265 . S
C284 H279 0.950 . S
C284 C285 1.478 . S
C285 C272 1.394 . S
C285 C284 1.478 . S
C285 C286 1.397 1_565 S
C286 C285 1.397 1_545 S
C286 C287 1.438 . S
C286 C291 1.429 . S
C287 C270 1.394 . S
C287 C286 1.438 . S
C287 C288 1.428 . S
C288 H280 0.949 . S
C288 C287 1.428 . S
C288 C289 1.345 . S
C289 H281 0.950 . S
C289 C288 1.345 . S
C289 C290 1.424 . S
C290 H282 0.951 . S
C290 C289 1.424 . S
C290 C291 1.347 . S
C291 H283 0.951 . S
C291 C286 1.429 . S
C291 C290 1.347 . S
H292 C293 0.951 . S
C293 H292 0.951 . S
C293 C299 1.265 . S
H294 C299 0.950 . S
H295 C303 0.949 . S
H296 C304 0.951 . S
H297 C305 0.951 . S
H298 C306 0.951 . S
C299 C293 1.265 . S
C299 H294 0.950 . S
C299 C300 1.478 . S
C300 C299 1.478 . S
C300 C301 1.397 . S
C300 C317 1.394 . S
C301 C300 1.397 . S
C301 C302 1.438 1_654 S
C301 C306 1.429 . S
C302 C301 1.438 1_456 S
C302 C303 1.428 . S
C302 C315 1.394 . S
C303 H295 0.949 . S
C303 C302 1.428 . S
C303 C304 1.349 . S
C304 H296 0.951 . S
C304 C303 1.349 . S
C304 C305 1.418 1_455 S
C305 H297 0.951 . S
C305 C304 1.418 1_655 S
C305 C306 1.347 1_556 S
C306 H298 0.951 . S
C306 C301 1.429 . S
C306 C305 1.347 1_554 S
H307 C308 0.951 . S
C308 H307 0.951 . S
C308 C314 1.265 . S
H309 C314 0.950 . S
H310 C318 0.949 . S
H311 C319 0.951 . S
H312 C320 0.951 . S
H313 C321 0.951 . S
C314 C308 1.265 . S
C314 H309 0.950 . S
C314 C315 1.478 . S
C315 C302 1.394 . S
C315 C314 1.478 . S
C315 C316 1.397 . S
C316 C315 1.397 . S
C316 C317 1.438 1_456 S
C316 C321 1.429 . S
C317 C300 1.394 . S
C317 C316 1.438 1_654 S
C317 C318 1.428 . S
C318 H310 0.949 . S
C318 C317 1.428 . S
C318 C319 1.349 . S
C319 H311 0.951 . S
C319 C318 1.349 . S
C319 C320 1.418 1_655 S
C320 H312 0.951 . S
C320 C319 1.418 1_455 S
C320 C321 1.347 1_554 S
C321 H313 0.951 . S
C321 C316 1.429 . S
C321 C320 1.347 1_556 S
H322 C323 0.951 . S
C323 H322 0.951 . S
C323 C329 1.265 . S
H324 C329 0.950 . S
H325 C333 0.949 1_565 S
H326 C334 0.950 . S
H327 C335 0.951 . S
H328 C336 0.951 . S
C329 C323 1.265 . S
C329 H324 0.950 . S
C329 C330 1.478 . S
C330 C329 1.478 . S
C330 C331 1.397 . S
C330 C347 1.394 1_545 S
C331 C330 1.397 . S
C331 C332 1.438 . S
C331 C336 1.429 . S
C332 C331 1.438 . S
C332 C333 1.428 . S
C332 C345 1.394 1_545 S
C333 H325 0.949 1_545 S
C333 C332 1.428 . S
C333 C334 1.345 . S
C334 H326 0.950 . S
C334 C333 1.345 . S
C334 C335 1.424 . S
C335 H327 0.951 . S
C335 C334 1.424 . S
C335 C336 1.347 . S
C336 H328 0.951 . S
C336 C331 1.429 . S
C336 C335 1.347 . S
H337 C338 0.951 . S
C338 H337 0.951 . S
C338 C344 1.265 . S
H339 C344 0.950 . S
H340 C348 0.949 1_545 S
H341 C349 0.950 . S
H342 C350 0.951 . S
H343 C351 0.951 . S
C344 C338 1.265 . S
C344 H339 0.950 . S
C344 C345 1.478 . S
C345 C332 1.394 1_565 S
C345 C344 1.478 . S
C345 C346 1.397 . S
C346 C345 1.397 . S
C346 C347 1.438 . S
C346 C351 1.429 . S
C347 C330 1.394 1_565 S
C347 C346 1.438 . S
C347 C348 1.428 . S
C348 H340 0.949 1_565 S
C348 C347 1.428 . S
C348 C349 1.345 . S
C349 H341 0.950 . S
C349 C348 1.345 . S
C349 C350 1.424 . S
C350 H342 0.951 . S
C350 C349 1.424 . S
C350 C351 1.347 . S
C351 H343 0.951 . S
C351 C346 1.429 . S
C351 C350 1.347 . S
H352 C353 0.951 . S
C353 H352 0.951 . S
C353 C359 1.265 . S
H354 C359 0.950 . S
H355 C363 0.949 . S
H356 C364 0.950 . S
H357 C365 0.951 . S
H358 C366 0.951 . S
C359 C353 1.265 . S
C359 H354 0.950 . S
C359 C360 1.478 . S
C360 C359 1.478 . S
C360 C361 1.397 . S
C360 C377 1.394 . S
C361 C360 1.397 . S
C361 C362 1.438 . S
C361 C366 1.429 . S
C362 C361 1.438 . S
C362 C363 1.428 . S
C362 C375 1.394 . S
C363 H355 0.949 . S
C363 C362 1.428 . S
C363 C364 1.345 . S
C364 H356 0.950 . S
C364 C363 1.345 . S
C364 C365 1.424 . S
C365 H357 0.951 . S
C365 C364 1.424 . S
C365 C366 1.347 . S
C366 H358 0.951 . S
C366 C361 1.429 . S
C366 C365 1.347 . S
H367 C368 0.951 . S
C368 H367 0.951 . S
C368 C374 1.265 . S
H369 C374 0.950 . S
H370 C378 0.949 . S
H371 C379 0.950 . S
H372 C380 0.951 . S
H373 C381 0.951 . S
C374 C368 1.265 . S
C374 H369 0.950 . S
C374 C375 1.478 . S
C375 C362 1.394 . S
C375 C374 1.478 . S
C375 C376 1.397 . S
C376 C375 1.397 . S
C376 C377 1.438 . S
C376 C381 1.429 . S
C377 C360 1.394 . S
C377 C376 1.438 . S
C377 C378 1.428 . S
C378 H370 0.949 . S
C378 C377 1.428 . S
C378 C379 1.345 . S
C379 H371 0.950 . S
C379 C378 1.345 . S
C379 C380 1.424 . S
C380 H372 0.951 . S
C380 C379 1.424 . S
C380 C381 1.347 . S
C381 H373 0.951 . S
C381 C376 1.429 . S
C381 C380 1.347 . S
H382 C383 0.951 . S
C383 H382 0.951 . S
C383 C389 1.265 . S
H384 C389 0.950 . S
H385 C393 0.949 . S
H386 C394 0.950 . S
H387 C395 0.951 . S
H388 C396 0.951 . S
C389 C383 1.265 . S
C389 H384 0.950 . S
C389 C390 1.478 . S
C390 C389 1.478 . S
C390 C391 1.397 . S
C390 C407 1.394 . S
C391 C390 1.397 . S
C391 C392 1.438 . S
C391 C396 1.429 . S
C392 C391 1.438 . S
C392 C393 1.428 . S
C392 C405 1.394 . S
C393 H385 0.949 . S
C393 C392 1.428 . S
C393 C394 1.345 . S
C394 H386 0.950 . S
C394 C393 1.345 . S
C394 C395 1.424 . S
C395 H387 0.951 . S
C395 C394 1.424 . S
C395 C396 1.347 . S
C396 H388 0.951 . S
C396 C391 1.429 . S
C396 C395 1.347 . S
H397 C398 0.951 . S
C398 H397 0.951 . S
C398 C404 1.265 . S
H399 C404 0.950 . S
H400 C408 0.949 . S
H401 C409 0.950 . S
H402 C410 0.951 . S
H403 C411 0.951 . S
C404 C398 1.265 . S
C404 H399 0.950 . S
C404 C405 1.478 . S
C405 C392 1.394 . S
C405 C404 1.478 . S
C405 C406 1.397 . S
C406 C405 1.397 . S
C406 C407 1.438 . S
C406 C411 1.429 . S
C407 C390 1.394 . S
C407 C406 1.438 . S
C407 C408 1.428 . S
C408 H400 0.949 . S
C408 C407 1.428 . S
C408 C409 1.345 . S
C409 H401 0.950 . S
C409 C408 1.345 . S
C409 C410 1.424 . S
C410 H402 0.951 . S
C410 C409 1.424 . S
C410 C411 1.347 . S
C411 H403 0.951 . S
C411 C406 1.429 . S
C411 C410 1.347 . S
H412 C413 0.951 . S
C413 H412 0.951 . S
C413 C419 1.265 . S
H414 C419 0.950 . S
H415 C423 0.949 . S
H416 C424 0.950 . S
H417 C425 0.951 . S
H418 C426 0.951 . S
C419 C413 1.265 . S
C419 H414 0.950 . S
C419 C420 1.478 . S
C420 C419 1.478 . S
C420 C421 1.397 . S
C420 C437 1.394 . S
C421 C420 1.397 . S
C421 C422 1.438 . S
C421 C426 1.429 . S
C422 C421 1.438 . S
C422 C423 1.428 . S
C422 C435 1.394 . S
C423 H415 0.949 . S
C423 C422 1.428 . S
C423 C424 1.345 . S
C424 H416 0.950 . S
C424 C423 1.345 . S
C424 C425 1.424 . S
C425 H417 0.951 . S
C425 C424 1.424 . S
C425 C426 1.347 . S
C426 H418 0.951 . S
C426 C421 1.429 . S
C426 C425 1.347 . S
H427 C428 0.951 . S
C428 H427 0.951 . S
C428 C434 1.265 . S
H429 C434 0.950 . S
H430 C438 0.949 . S
H431 C439 0.950 . S
H432 C440 0.951 . S
H433 C441 0.951 . S
C434 C428 1.265 . S
C434 H429 0.950 . S
C434 C435 1.478 . S
C435 C422 1.394 . S
C435 C434 1.478 . S
C435 C436 1.397 . S
C436 C435 1.397 . S
C436 C437 1.438 . S
C436 C441 1.429 . S
C437 C420 1.394 . S
C437 C436 1.438 . S
C437 C438 1.428 . S
C438 H430 0.949 . S
C438 C437 1.428 . S
C438 C439 1.345 . S
C439 H431 0.950 . S
C439 C438 1.345 . S
C439 C440 1.424 . S
C440 H432 0.951 . S
C440 C439 1.424 . S
C440 C441 1.347 . S
C441 H433 0.951 . S
C441 C436 1.429 . S
C441 C440 1.347 . S
H442 C443 0.951 . S
C443 H442 0.951 . S
C443 C449 1.265 . S
H444 C449 0.950 . S
H445 C453 0.949 . S
H446 C454 0.950 . S
H447 C455 0.951 . S
H448 C456 0.951 . S
C449 C443 1.265 . S
C449 H444 0.950 . S
C449 C450 1.478 . S
C450 C449 1.478 . S
C450 C451 1.397 . S
C450 C467 1.394 . S
C451 C450 1.397 . S
C451 C452 1.438 . S
C451 C456 1.429 . S
C452 C451 1.438 . S
C452 C453 1.428 . S
C452 C465 1.394 . S
C453 H445 0.949 . S
C453 C452 1.428 . S
C453 C454 1.345 . S
C454 H446 0.950 . S
C454 C453 1.345 . S
C454 C455 1.424 . S
C455 H447 0.951 . S
C455 C454 1.424 . S
C455 C456 1.347 . S
C456 H448 0.951 . S
C456 C451 1.429 . S
C456 C455 1.347 . S
H457 C458 0.951 . S
C458 H457 0.951 . S
C458 C464 1.265 . S
H459 C464 0.950 . S
H460 C468 0.949 . S
H461 C469 0.950 . S
H462 C470 0.951 . S
H463 C471 0.951 . S
C464 C458 1.265 . S
C464 H459 0.950 . S
C464 C465 1.478 . S
C465 C452 1.394 . S
C465 C464 1.478 . S
C465 C466 1.397 . S
C466 C465 1.397 . S
C466 C467 1.438 . S
C466 C471 1.429 . S
C467 C450 1.394 . S
C467 C466 1.438 . S
C467 C468 1.428 . S
C468 H460 0.949 . S
C468 C467 1.428 . S
C468 C469 1.345 . S
C469 H461 0.950 . S
C469 C468 1.345 . S
C469 C470 1.424 . S
C470 H462 0.951 . S
C470 C469 1.424 . S
C470 C471 1.347 . S
C471 H463 0.951 . S
C471 C466 1.429 . S
C471 C470 1.347 . S
H472 C473 0.951 . S
C473 H472 0.951 . S
C473 C479 1.265 . S
H474 C479 0.950 1_655 S
H475 C483 0.949 . S
H476 C484 0.950 . S
H477 C485 0.951 . S
H478 C486 0.951 . S
C479 C473 1.265 . S
C479 H474 0.950 1_455 S
C479 C480 1.478 . S
C480 C479 1.478 . S
C480 C481 1.397 1_455 S
C480 C497 1.394 . S
C481 C480 1.397 1_655 S
C481 C482 1.438 1_545 S
C481 C486 1.429 . S
C482 C481 1.438 1_565 S
C482 C483 1.428 . S
C482 C495 1.394 . S
C483 H475 0.949 . S
C483 C482 1.428 . S
C483 C484 1.345 . S
C484 H476 0.950 . S
C484 C483 1.345 . S
C484 C485 1.424 1_565 S
C485 H477 0.951 . S
C485 C484 1.424 1_545 S
C485 C486 1.347 . S
C486 H478 0.951 . S
C486 C481 1.429 . S
C486 C485 1.347 . S
H487 C488 0.951 . S
C488 H487 0.951 . S
C488 C494 1.265 . S
H489 C494 0.950 1_455 S
H490 C498 0.949 . S
H491 C499 0.950 . S
H492 C500 0.951 . S
H493 C501 0.951 . S
C494 C488 1.265 . S
C494 H489 0.950 1_655 S
C494 C495 1.478 . S
C495 C482 1.394 . S
C495 C494 1.478 . S
C495 C496 1.397 1_655 S
C496 C495 1.397 1_455 S
C496 C497 1.438 1_565 S
C496 C501 1.429 . S
C497 C480 1.394 . S
C497 C496 1.438 1_545 S
C497 C498 1.428 . S
C498 H490 0.949 . S
C498 C497 1.428 . S
C498 C499 1.345 . S
C499 H491 0.950 . S
C499 C498 1.345 . S
C499 C500 1.424 1_545 S
C500 H492 0.951 . S
C500 C499 1.424 1_565 S
C500 C501 1.347 . S
C501 H493 0.951 . S
C501 C496 1.429 . S
C501 C500 1.347 . S
H502 C503 0.951 . S
C503 H502 0.951 . S
C503 C509 1.265 . S
H504 C509 0.950 1_545 S
H505 C513 0.949 . S
H506 C514 0.950 . S
H507 C515 0.951 . S
H508 C516 0.951 . S
C509 C503 1.265 . S
C509 H504 0.950 1_565 S
C509 C510 1.478 . S
C510 C509 1.478 . S
C510 C511 1.397 1_565 S
C510 C527 1.394 . S
C511 C510 1.397 1_545 S
C511 C512 1.438 1_455 S
C511 C516 1.429 . S
C512 C511 1.438 1_655 S
C512 C513 1.428 . S
C512 C525 1.394 . S
C513 H505 0.949 . S
C513 C512 1.428 . S
C513 C514 1.345 . S
C514 H506 0.950 . S
C514 C513 1.345 . S
C514 C515 1.424 1_655 S
C515 H507 0.951 . S
C515 C514 1.424 1_455 S
C515 C516 1.347 . S
C516 H508 0.951 . S
C516 C511 1.429 . S
C516 C515 1.347 . S
H517 C518 0.951 . S
C518 H517 0.951 . S
C518 C524 1.265 . S
H519 C524 0.950 1_565 S
H520 C528 0.949 . S
H521 C529 0.950 . S
H522 C530 0.951 . S
H523 C531 0.951 . S
C524 C518 1.265 . S
C524 H519 0.950 1_545 S
C524 C525 1.478 . S
C525 C512 1.394 . S
C525 C524 1.478 . S
C525 C526 1.397 1_545 S
C526 C525 1.397 1_565 S
C526 C527 1.438 1_655 S
C526 C531 1.429 . S
C527 C510 1.394 . S
C527 C526 1.438 1_455 S
C527 C528 1.428 . S
C528 H520 0.949 . S
C528 C527 1.428 . S
C528 C529 1.345 . S
C529 H521 0.950 . S
C529 C528 1.345 . S
C529 C530 1.424 1_455 S
C530 H522 0.951 . S
C530 C529 1.424 1_655 S
C530 C531 1.347 . S
C531 H523 0.951 . S
C531 C526 1.429 . S
C531 C530 1.347 . S
H532 C533 0.951 . S
C533 H532 0.951 . S
C533 C539 1.265 . S
H534 C539 0.950 1_455 S
H535 C543 0.949 . S
H536 C544 0.950 . S
H537 C545 0.951 . S
H538 C546 0.951 . S
C539 C533 1.265 . S
C539 H534 0.950 1_655 S
C539 C540 1.478 . S
C540 C539 1.478 . S
C540 C541 1.397 1_655 S
C540 C557 1.394 . S
C541 C540 1.397 1_455 S
C541 C542 1.438 1_545 S
C541 C546 1.429 . S
C542 C541 1.438 1_565 S
C542 C543 1.428 . S
C542 C555 1.394 . S
C543 H535 0.949 . S
C543 C542 1.428 . S
C543 C544 1.345 . S
C544 H536 0.950 . S
C544 C543 1.345 . S
C544 C545 1.424 1_565 S
C545 H537 0.951 . S
C545 C544 1.424 1_545 S
C545 C546 1.347 . S
C546 H538 0.951 . S
C546 C541 1.429 . S
C546 C545 1.347 . S
H547 C548 0.951 . S
C548 H547 0.951 . S
C548 C554 1.265 . S
H549 C554 0.950 1_655 S
H550 C558 0.949 . S
H551 C559 0.950 . S
H552 C560 0.951 . S
H553 C561 0.951 . S
C554 C548 1.265 . S
C554 H549 0.950 1_455 S
C554 C555 1.478 . S
C555 C542 1.394 . S
C555 C554 1.478 . S
C555 C556 1.397 1_455 S
C556 C555 1.397 1_655 S
C556 C557 1.438 1_565 S
C556 C561 1.429 . S
C557 C540 1.394 . S
C557 C556 1.438 1_545 S
C557 C558 1.428 . S
C558 H550 0.949 . S
C558 C557 1.428 . S
C558 C559 1.345 . S
C559 H551 0.950 . S
C559 C558 1.345 . S
C559 C560 1.424 1_545 S
C560 H552 0.951 . S
C560 C559 1.424 1_565 S
C560 C561 1.347 . S
C561 H553 0.951 . S
C561 C556 1.429 . S
C561 C560 1.347 . S
H562 C563 0.951 . S
C563 H562 0.951 . S
C563 C569 1.265 . S
H564 C569 0.950 1_545 S
H565 C573 0.949 . S
H566 C574 0.950 . S
H567 C575 0.951 . S
H568 C576 0.951 . S
C569 C563 1.265 . S
C569 H564 0.950 1_565 S
C569 C570 1.478 . S
C570 C569 1.478 . S
C570 C571 1.397 1_565 S
C570 C587 1.394 . S
C571 C570 1.397 1_545 S
C571 C572 1.438 1_655 S
C571 C576 1.429 . S
C572 C571 1.438 1_455 S
C572 C573 1.428 . S
C572 C585 1.394 . S
C573 H565 0.949 . S
C573 C572 1.428 . S
C573 C574 1.345 . S
C574 H566 0.950 . S
C574 C573 1.345 . S
C574 C575 1.424 1_455 S
C575 H567 0.951 . S
C575 C574 1.424 1_655 S
C575 C576 1.347 . S
C576 H568 0.951 . S
C576 C571 1.429 . S
C576 C575 1.347 . S
H577 C578 0.951 . S
C578 H577 0.951 . S
C578 C584 1.265 . S
H579 C584 0.950 1_565 S
H580 C588 0.949 . S
H581 C589 0.950 . S
H582 C590 0.951 . S
H583 C591 0.951 . S
C584 C578 1.265 . S
C584 H579 0.950 1_545 S
C584 C585 1.478 . S
C585 C572 1.394 . S
C585 C584 1.478 . S
C585 C586 1.397 1_545 S
C586 C585 1.397 1_565 S
C586 C587 1.438 1_455 S
C586 C591 1.429 . S
C587 C570 1.394 . S
C587 C586 1.438 1_655 S
C587 C588 1.428 . S
C588 H580 0.949 . S
C588 C587 1.428 . S
C588 C589 1.345 . S
C589 H581 0.950 . S
C589 C588 1.345 . S
C589 C590 1.424 1_655 S
C590 H582 0.951 . S
C590 C589 1.424 1_455 S
C590 C591 1.347 . S
C591 H583 0.951 . S
C591 C586 1.429 . S
C591 C590 1.347 . S
C113 C6 1.428 . S
C128 C34 1.438 . S
C143 C49 1.434 . S
C158 C21 1.459 . S
C173 C90 1.486 . S
C188 C62 1.487 . S
C203 C77 1.487 . S
C218 C105 1.486 . S
C233 C92 1.270 . S
C248 C8 1.272 . S
C263 C23 1.344 . S
C278 C107 1.382 . S
C293 C36 1.269 . S
C308 C64 1.275 . S
C323 C79 1.418 . S
C338 C51 1.387 . S
C353 C7 1.604 . S
C368 C76 1.634 . S
C383 C91 1.643 . S
C398 C20 1.614 . S
C413 C104 1.629 . S
C428 C35 1.606 . S
C443 C48 1.615 . S
C458 C63 1.643 . S
C473 C9 1.192 . S
C488 C37 1.193 . S
C503 C50 1.192 . S
C518 C22 1.193 . S
C533 C93 1.192 . S
C548 C65 1.193 . S
C563 C106 1.200 . S
C578 C78 1.193 . S
