# Generated by pormake.
# Topology wjd, (6)-cn, num edge types: 1
# Building blocks:
#     Node 0, Type 0, BuildingBlock: VOLQOD_clean_sbu_1, # of connection points: 6
#     Node 1, Type 0, BuildingBlock: VOLQOD_clean_sbu_1, # of connection points: 6
#     Node 2, Type 0, BuildingBlock: VOLQOD_clean_sbu_1, # of connection points: 6
#     Node 3, Type 0, BuildingBlock: VOLQOD_clean_sbu_1, # of connection points: 6
#     Node 4, Type 0, BuildingBlock: VOLQOD_clean_sbu_1, # of connection points: 6
#     Node 5, Type 0, BuildingBlock: VOLQOD_clean_sbu_1, # of connection points: 6
#     Node 6, Type 0, BuildingBlock: VOLQOD_clean_sbu_1, # of connection points: 6
#     Node 7, Type 0, BuildingBlock: VOLQOD_clean_sbu_1, # of connection points: 6
#     Node 8, Type 0, BuildingBlock: VOLQOD_clean_sbu_1, # of connection points: 6
#     Node 9, Type 0, BuildingBlock: VOLQOD_clean_sbu_1, # of connection points: 6
#     Node 10, Type 0, BuildingBlock: VOLQOD_clean_sbu_1, # of connection points: 6
#     Node 11, Type 0, BuildingBlock: VOLQOD_clean_sbu_1, # of connection points: 6
#     Edge 12, Type (0, 0), BuildingBlock: AJUNOK_clean_linker_0, # of connection points: 2
#     Edge 13, Type (0, 0), BuildingBlock: AJUNOK_clean_linker_0, # of connection points: 2
#     Edge 14, Type (0, 0), BuildingBlock: AJUNOK_clean_linker_0, # of connection points: 2
#     Edge 15, Type (0, 0), BuildingBlock: AJUNOK_clean_linker_0, # of connection points: 2
#     Edge 16, Type (0, 0), BuildingBlock: AJUNOK_clean_linker_0, # of connection points: 2
#     Edge 17, Type (0, 0), BuildingBlock: AJUNOK_clean_linker_0, # of connection points: 2
#     Edge 18, Type (0, 0), BuildingBlock: AJUNOK_clean_linker_0, # of connection points: 2
#     Edge 19, Type (0, 0), BuildingBlock: AJUNOK_clean_linker_0, # of connection points: 2
#     Edge 20, Type (0, 0), BuildingBlock: AJUNOK_clean_linker_0, # of connection points: 2
#     Edge 21, Type (0, 0), BuildingBlock: AJUNOK_clean_linker_0, # of connection points: 2
#     Edge 22, Type (0, 0), BuildingBlock: AJUNOK_clean_linker_0, # of connection points: 2
#     Edge 23, Type (0, 0), BuildingBlock: AJUNOK_clean_linker_0, # of connection points: 2
#     Edge 24, Type (0, 0), BuildingBlock: AJUNOK_clean_linker_0, # of connection points: 2
#     Edge 25, Type (0, 0), BuildingBlock: AJUNOK_clean_linker_0, # of connection points: 2
#     Edge 26, Type (0, 0), BuildingBlock: AJUNOK_clean_linker_0, # of connection points: 2
#     Edge 27, Type (0, 0), BuildingBlock: AJUNOK_clean_linker_0, # of connection points: 2
#     Edge 28, Type (0, 0), BuildingBlock: AJUNOK_clean_linker_0, # of connection points: 2
#     Edge 29, Type (0, 0), BuildingBlock: AJUNOK_clean_linker_0, # of connection points: 2
#     Edge 30, Type (0, 0), BuildingBlock: AJUNOK_clean_linker_0, # of connection points: 2
#     Edge 31, Type (0, 0), BuildingBlock: AJUNOK_clean_linker_0, # of connection points: 2
#     Edge 32, Type (0, 0), BuildingBlock: AJUNOK_clean_linker_0, # of connection points: 2
#     Edge 33, Type (0, 0), BuildingBlock: AJUNOK_clean_linker_0, # of connection points: 2
#     Edge 34, Type (0, 0), BuildingBlock: AJUNOK_clean_linker_0, # of connection points: 2
#     Edge 35, Type (0, 0), BuildingBlock: AJUNOK_clean_linker_0, # of connection points: 2
#     Edge 36, Type (0, 0), BuildingBlock: AJUNOK_clean_linker_0, # of connection points: 2
#     Edge 37, Type (0, 0), BuildingBlock: AJUNOK_clean_linker_0, # of connection points: 2
#     Edge 38, Type (0, 0), BuildingBlock: AJUNOK_clean_linker_0, # of connection points: 2
#     Edge 39, Type (0, 0), BuildingBlock: AJUNOK_clean_linker_0, # of connection points: 2
#     Edge 40, Type (0, 0), BuildingBlock: AJUNOK_clean_linker_0, # of connection points: 2
#     Edge 41, Type (0, 0), BuildingBlock: AJUNOK_clean_linker_0, # of connection points: 2
#     Edge 42, Type (0, 0), BuildingBlock: AJUNOK_clean_linker_0, # of connection points: 2
#     Edge 43, Type (0, 0), BuildingBlock: AJUNOK_clean_linker_0, # of connection points: 2
#     Edge 44, Type (0, 0), BuildingBlock: AJUNOK_clean_linker_0, # of connection points: 2
#     Edge 45, Type (0, 0), BuildingBlock: AJUNOK_clean_linker_0, # of connection points: 2
#     Edge 46, Type (0, 0), BuildingBlock: AJUNOK_clean_linker_0, # of connection points: 2
#     Edge 47, Type (0, 0), BuildingBlock: AJUNOK_clean_linker_0, # of connection points: 2
# Relax obj value: 0.309
# Max RMSD: 0.232
# Mean RMSD: 0.231
data_MOF--net-wjd--node1-VOLQOD_clean_sbu_1--edge1-AJUNOK_clean_linker_0
_symmetry_space_group_name_H-M    P1
_symmetry_Int_Tables_number       1
_symmetry_cell_setting            triclinic
loop_
_symmetry_equiv_pos_as_xyz
'x, y, z'
_cell_length_a     24.512252
_cell_length_b     24.503639
_cell_length_c     49.742808
_cell_angle_alpha  90.173033
_cell_angle_beta   89.783735
_cell_angle_gamma 119.97856
loop_
_atom_site_label
_atom_site_type_symbol
_atom_site_fract_x
_atom_site_fract_y
_atom_site_fract_z
_atom_type_partial_charge
O0 O 0.36755 0.22175 0.09716 0.0
Zn1 Zn 0.29198 0.13413 0.10126 0.0
O2 O 0.304 0.0888 0.13089 0.0
Zn3 Zn 0.29558 0.00979 0.11864 0.0
Zn4 Zn 0.38365 0.14073 0.14737 0.0
Zn5 Zn 0.24471 0.07298 0.15872 0.0
O6 O 0.2199 0.93462 0.13604 0.0
O7 O 0.17635 -0.01422 0.1552 0.0
O8 O 0.26924 0.0829 0.06626 0.0
O9 O 0.2718 -0.00192 0.07997 0.0
O10 O 0.38069 0.01377 0.11983 0.0
O11 O 0.44189 0.11338 0.13341 0.0
O12 O 0.38278 0.13654 0.18816 0.0
O13 O 0.22454 0.15454 0.11149 0.0
O14 O 0.28 0.08186 0.19555 0.0
O15 O 0.2089 0.12961 0.15483 0.0
C16 C 0.40632 0.25435 0.11559 0.0
C17 C 0.17319 0.93484 0.14744 0.0
C18 C 0.43484 0.06181 0.12414 0.0
C19 C 0.26224 0.02838 0.06167 0.0
C20 C 0.33619 0.10955 0.20418 0.0
C21 C 0.20133 0.15591 0.13429 0.0
O22 O 0.41353 0.22896 0.13655 0.0
O23 O 0.81825 0.56614 0.37191 0.0
Zn24 Zn 0.80512 0.63271 0.35643 0.0
O25 O 0.75741 0.65392 0.38083 0.0
Zn26 Zn 0.67763 0.63573 0.36541 0.0
Zn27 Zn 0.74763 0.61173 0.41465 0.0
Zn28 Zn 0.80119 0.74184 0.38689 0.0
O29 O 0.6639 0.71078 0.36824 0.0
O30 O 0.76502 0.78269 0.36497 0.0
O31 O 0.76263 0.60681 0.32075 0.0
O32 O 0.67767 0.61675 0.32576 0.0
O33 O 0.60865 0.56016 0.38403 0.0
O34 O 0.65797 0.54359 0.41768 0.0
O35 O 0.76607 0.67068 0.446 0.0
O36 O 0.89245 0.70504 0.35092 0.0
O37 O 0.79354 0.76141 0.42555 0.0
O38 O 0.89001 0.77914 0.37598 0.0
C39 C 0.81975 0.54984 0.39601 0.0
C40 C 0.70738 0.76682 0.36327 0.0
C41 C 0.60808 0.52851 0.40445 0.0
C42 C 0.71346 0.60474 0.31128 0.0
C43 C 0.78101 0.72848 0.44682 0.0
C44 C 0.91908 0.76004 0.36095 0.0
O45 O 0.79884 0.56795 0.41555 0.0
O46 O 0.72306 0.13659 0.09138 0.0
Zn47 Zn 0.81189 0.14927 0.09324 0.0
O48 O 0.8595 0.20638 0.12284 0.0
Zn49 Zn 0.9379 0.2771 0.11069 0.0
Zn50 Zn 0.80945 0.23511 0.14043 0.0
Zn51 Zn 0.87662 0.16237 0.14976 0.0
O52 O 0.01355 0.27682 0.1273 0.0
O53 O 0.96409 0.18157 0.14594 0.0
O54 O 0.8625 0.17872 0.05775 0.0
O55 O 0.94773 0.26519 0.07196 0.0
O56 O 0.93522 0.35861 0.11339 0.0
O57 O 0.83582 0.32079 0.12712 0.0
O58 O 0.81769 0.23985 0.18091 0.0
O59 O 0.79143 0.06061 0.10255 0.0
O60 O 0.86933 0.18827 0.18697 0.0
O61 O 0.81908 0.07044 0.1455 0.0
C62 C 0.69263 0.14197 0.11113 0.0
C63 C 0.01438 0.2304 0.13848 0.0
C64 C 0.88777 0.3654 0.11825 0.0
C65 C 0.91728 0.22618 0.05338 0.0
C66 C 0.84442 0.21901 0.19627 0.0
C67 C 0.79091 0.03623 0.12524 0.0
O68 O 0.72044 0.17567 0.13156 0.0
O69 O 0.38097 0.25721 0.38338 0.0
Zn70 Zn 0.31455 0.1776 0.36734 0.0
O71 O 0.29581 0.10937 0.39166 0.0
Zn72 Zn 0.30293 0.04376 0.37289 0.0
Zn73 Zn 0.34798 0.13851 0.42299 0.0
Zn74 Zn 0.21242 0.07715 0.40453 0.0
O75 O 0.2195 0.96297 0.37117 0.0
O76 O 0.15853 0.00309 0.38224 0.0
O77 O 0.34012 0.16426 0.33048 0.0
O78 O 0.32563 0.06761 0.33398 0.0
O79 O 0.37266 0.03434 0.38914 0.0
O80 O 0.41119 0.11136 0.4195 0.0
O81 O 0.29978 0.09719 0.45674 0.0
O82 O 0.24051 0.19029 0.36333 0.0
O83 O 0.2009 0.04725 0.44296 0.0
O84 O 0.18422 0.13977 0.39942 0.0
C85 C 0.40521 0.27359 0.40666 0.0
C86 C 0.16596 0.95958 0.37204 0.0
C87 C 0.41411 0.06804 0.40653 0.0
C88 C 0.34008 0.11666 0.32014 0.0
C89 C 0.24152 0.06008 0.46133 0.0
C90 C 0.19615 0.17757 0.37989 0.0
O91 O 0.39408 0.23326 0.42509 0.0
O92 O 0.82522 0.59021 0.09306 0.0
Zn93 Zn 0.80978 0.66424 0.09589 0.0
O94 O 0.74514 0.64843 0.12284 0.0
Zn95 Zn 0.67426 0.65042 0.10695 0.0
Zn96 Zn 0.71886 0.56971 0.13984 0.0
Zn97 Zn 0.77901 0.70891 0.15114 0.0
O98 O 0.67083 0.72794 0.11909 0.0
O99 O 0.75632 0.7742 0.1449 0.0
O100 O 0.78735 0.68668 0.05936 0.0
O101 O 0.68879 0.66376 0.0678 0.0
O102 O 0.59374 0.56627 0.11095 0.0
O103 O 0.63433 0.5086 0.12636 0.0
O104 O 0.71102 0.57131 0.18005 0.0
O105 O 0.89391 0.7318 0.10958 0.0
O106 O 0.74588 0.6725 0.1874 0.0
O107 O 0.87238 0.74804 0.15133 0.0
C108 C 0.81666 0.55094 0.11163 0.0
C109 C 0.71082 0.77468 0.13298 0.0
C110 C 0.58873 0.51337 0.11697 0.0
C111 C 0.73479 0.68045 0.05174 0.0
C112 C 0.72178 0.61632 0.1959 0.0
C113 C 0.91176 0.75534 0.13297 0.0
O114 O 0.77985 0.54163 0.13133 0.0
O115 O 0.68425 0.12297 0.37407 0.0
Zn116 Zn 0.76437 0.13604 0.35841 0.0
O117 O 0.83119 0.1827 0.38339 0.0
Zn118 Zn 0.89666 0.25744 0.36689 0.0
Zn119 Zn 0.80031 0.2032 0.41478 0.0
Zn120 Zn 0.86483 0.13166 0.39471 0.0
O121 O -0.02038 0.26135 0.37218 0.0
O122 O 0.94331 0.15788 0.37377 0.0
O123 O 0.78312 0.1762 0.32182 0.0
O124 O 0.88186 0.25391 0.32698 0.0
O125 O 0.89587 0.3335 0.38169 0.0
O126 O 0.81839 0.29155 0.41173 0.0
O127 O 0.84697 0.20165 0.44744 0.0
O128 O 0.74783 0.04792 0.35421 0.0
O129 O 0.89368 0.14931 0.43335 0.0
O130 O 0.80196 0.04039 0.38844 0.0
C131 C 0.66714 0.12136 0.3984 0.0
C132 C -0.01202 0.2142 0.37041 0.0
C133 C 0.85979 0.33891 0.39869 0.0
C134 C 0.83413 0.22088 0.31217 0.0
C135 C 0.88376 0.17996 0.45155 0.0
C136 C 0.76087 0.01534 0.36994 0.0
O137 O 0.7069 0.14613 0.41743 0.0
O138 O 0.25537 0.40036 0.61913 0.0
Zn139 Zn 0.17836 0.33076 0.63516 0.0
O140 O 0.10801 0.31289 0.6129 0.0
Zn141 Zn 0.04606 0.32207 0.63364 0.0
Zn142 Zn 0.13377 0.36521 0.58165 0.0
Zn143 Zn 0.07352 0.22892 0.60019 0.0
O144 O 0.96386 0.24057 0.63394 0.0
O145 O 0.00131 0.17669 0.6238 0.0
O146 O 0.16527 0.34667 0.67336 0.0
O147 O 0.07146 0.33981 0.67281 0.0
O148 O 0.03785 0.39379 0.61919 0.0
O149 O 0.10998 0.43077 0.58674 0.0
O150 O 0.08507 0.31705 0.54907 0.0
O151 O 0.19502 0.25956 0.6359 0.0
O152 O 0.03831 0.21779 0.56284 0.0
O153 O 0.13529 0.19845 0.60269 0.0
C154 C 0.26978 0.42192 0.59533 0.0
C155 C 0.95868 0.18622 0.63349 0.0
C156 C 0.06912 0.43465 0.6012 0.0
C157 C 0.11987 0.34743 0.68545 0.0
C158 C 0.04733 0.25864 0.54506 0.0
C159 C 0.17863 0.21347 0.61999 0.0
O160 O 0.22807 0.40841 0.57727 0.0
O161 O 0.12846 0.7336 0.9122 0.0
Zn162 Zn 0.14133 0.82215 0.91121 0.0
O163 O 0.20178 0.87367 0.88324 0.0
Zn164 Zn 0.27205 0.94879 0.89859 0.0
Zn165 Zn 0.2296 0.82423 0.86438 0.0
Zn166 Zn 0.16191 0.89686 0.8564 0.0
O167 O 0.27675 0.02809 0.88375 0.0
O168 O 0.185 -0.01499 0.86209 0.0
O169 O 0.16575 0.86681 0.94772 0.0
O170 O 0.25506 0.95409 0.93734 0.0
O171 O 0.35257 0.94377 0.89637 0.0
O172 O 0.31529 0.8497 0.8767 0.0
O173 O 0.23344 0.83385 0.82406 0.0
O174 O 0.05445 0.8033 0.90055 0.0
O175 O 0.18857 0.89208 0.81891 0.0
O176 O 0.06907 0.84156 0.85911 0.0
C177 C 0.13654 0.70488 0.89253 0.0
C178 C 0.23364 0.03272 0.87146 0.0
C179 C 0.35937 0.89813 0.88809 0.0
C180 C 0.21255 0.92025 0.95423 0.0
C181 C 0.21603 0.86425 0.80912 0.0
C182 C 0.03267 0.80889 0.87816 0.0
O183 O 0.1714 0.73459 0.87262 0.0
O184 O 0.55498 0.83578 0.62288 0.0
Zn185 Zn 0.62568 0.82936 0.63775 0.0
O186 O 0.64621 0.77856 0.61507 0.0
Zn187 Zn 0.62749 0.70083 0.63363 0.0
Zn188 Zn 0.60191 0.76409 0.5814 0.0
Zn189 Zn 0.73364 0.82373 0.60736 0.0
O190 O 0.70394 0.6891 0.63519 0.0
O191 O 0.7761 0.7897 0.62906 0.0
O192 O 0.60821 0.79649 0.67495 0.0
O193 O 0.60658 0.70507 0.67295 0.0
O194 O 0.55415 0.62843 0.61529 0.0
O195 O 0.53708 0.6735 0.58006 0.0
O196 O 0.65888 0.78085 0.5493 0.0
O197 O 0.69612 0.91733 0.64087 0.0
O198 O 0.75148 0.81387 0.56885 0.0
O199 O 0.7717 0.91328 0.61768 0.0
C200 C 0.53477 0.83185 0.59906 0.0
C201 C 0.76049 0.73444 0.63665 0.0
C202 C 0.52299 0.62513 0.59424 0.0
C203 C 0.60251 0.74746 0.68622 0.0
C204 C 0.71705 0.7974 0.54798 0.0
C205 C 0.7516 0.94323 0.63154 0.0
O206 O 0.5531 0.8105 0.57976 0.0
O207 O 0.22044 0.38733 0.90592 0.0
Zn208 Zn 0.13372 0.30989 0.90552 0.0
O209 O 0.08301 0.31416 0.87601 0.0
Zn210 Zn 0.00612 0.30792 0.89 0.0
Zn211 Zn 0.12994 0.39064 0.85651 0.0
Zn212 Zn 0.06507 0.24981 0.85019 0.0
O213 O 0.92959 0.23417 0.87354 0.0
O214 O -0.02444 0.18562 0.85379 0.0
O215 O 0.08689 0.29197 0.94151 0.0
O216 O -0.00335 0.28456 0.92866 0.0
O217 O 0.01017 0.39289 0.88858 0.0
O218 O 0.10355 0.45043 0.8686 0.0
O219 O 0.12082 0.38256 0.81612 0.0
O220 O 0.15652 0.24282 0.89788 0.0
O221 O 0.08062 0.2796 0.81217 0.0
O222 O 0.1188 0.21205 0.85676 0.0
C223 C 0.2493 0.42105 0.88554 0.0
C224 C 0.92663 0.18621 0.86198 0.0
C225 C 0.05512 0.44555 0.88029 0.0
C226 C 0.03109 0.28073 0.9467 0.0
C227 C 0.10216 0.33366 0.80165 0.0
C228 C 0.15168 0.21215 0.87645 0.0
O229 O 0.2199 0.42361 0.865 0.0
O230 O 0.11573 0.70122 0.63197 0.0
Zn231 Zn 0.12597 0.77982 0.64786 0.0
O232 O 0.1705 0.84719 0.62303 0.0
Zn233 Zn 0.24925 0.90996 0.63777 0.0
Zn234 Zn 0.18372 0.81557 0.59014 0.0
Zn235 Zn 0.12305 0.88737 0.6157 0.0
O236 O 0.25973 -0.00475 0.63079 0.0
O237 O 0.15912 0.96572 0.63754 0.0
O238 O 0.16779 0.80069 0.68412 0.0
O239 O 0.2481 0.89792 0.6779 0.0
O240 O 0.3198 0.90215 0.62115 0.0
O241 O 0.27102 0.83011 0.58943 0.0
O242 O 0.17891 0.86482 0.55917 0.0
O243 O 0.03713 0.76073 0.65244 0.0
O244 O 0.13477 0.91678 0.57698 0.0
O245 O 0.03258 0.83065 0.62538 0.0
C246 C 0.10823 0.68327 0.60752 0.0
C247 C 0.21671 0.00838 0.63593 0.0
C248 C 0.32068 0.86719 0.6023 0.0
C249 C 0.21413 0.85132 0.69319 0.0
C250 C 0.15972 0.90424 0.55716 0.0
C251 C 0.0065 0.78324 0.641 0.0
O252 O 0.12574 0.72216 0.58801 0.0
O253 O 0.57792 0.82459 0.90915 0.0
Zn254 Zn 0.65448 0.81379 0.90571 0.0
O255 O 0.64323 0.75585 0.87619 0.0
Zn256 Zn 0.64608 0.68307 0.88925 0.0
Zn257 Zn 0.56626 0.7309 0.85783 0.0
Zn258 Zn 0.70674 0.79804 0.84978 0.0
O259 O 0.7231 0.68172 0.87513 0.0
O260 O 0.77202 0.77498 0.85468 0.0
O261 O 0.67689 0.78609 0.9409 0.0
O262 O 0.66169 0.69222 0.92846 0.0
O263 O 0.56169 0.60322 0.88485 0.0
O264 O 0.50497 0.64455 0.86913 0.0
O265 O 0.57225 0.73007 0.81719 0.0
O266 O 0.72097 0.90202 0.89583 0.0
O267 O 0.67567 0.77737 0.81232 0.0
O268 O 0.74399 0.89007 0.85387 0.0
C269 C 0.54115 0.82019 0.89013 0.0
C270 C 0.77165 0.72642 0.86381 0.0
C271 C 0.50924 0.59847 0.87828 0.0
C272 C 0.6752 0.73429 0.94626 0.0
C273 C 0.62083 0.75114 0.80228 0.0
C274 C 0.7477 0.92522 0.87342 0.0
O275 O 0.53606 0.78934 0.86872 0.0
C276 C 0.0783 0.19186 0.16094 0.0
C277 C 0.07277 0.22753 0.14017 0.0
C278 C 0.12225 0.17162 0.15944 0.0
C279 C 0.16204 0.18582 0.13695 0.0
H280 H 0.04581 0.17627 0.17779 0.0
H281 H 0.12243 0.14171 0.17539 0.0
S282 S 0.1736 0.28723 0.07946 0.0
N283 N 0.11586 0.28319 0.09815 0.0
N284 N 0.19924 0.2453 0.09528 0.0
C285 C 0.16069 0.22603 0.11712 0.0
C286 C 0.116 0.24709 0.11879 0.0
C287 C 0.06316 0.91413 0.34989 0.0
C288 C 0.10957 0.90438 0.36169 0.0
C289 C 0.00178 0.86465 0.34702 0.0
C290 C -0.01471 0.80394 0.35556 0.0
H291 H 0.07316 0.96124 0.34478 0.0
H292 H 0.96599 0.87486 0.34003 0.0
S293 S 0.09161 0.75168 0.38319 0.0
N294 N 0.13731 0.82833 0.37853 0.0
N295 N 0.02074 0.73424 0.37277 0.0
C296 C 0.03247 0.79191 0.36449 0.0
C297 C 0.09531 0.84266 0.3676 0.0
C298 C 0.73708 0.92768 0.10525 0.0
C299 C 0.75842 0.9668 0.12815 0.0
C300 C 0.71422 0.86273 0.10726 0.0
C301 C 0.71218 0.83511 0.13221 0.0
H302 H 0.74124 0.94767 0.08544 0.0
H303 H 0.70315 0.8351 0.08897 0.0
S304 S 0.75013 0.91346 0.19873 0.0
N305 N 0.76616 0.97055 0.17711 0.0
N306 N 0.72461 0.84889 0.18049 0.0
C307 C 0.72785 0.87235 0.15543 0.0
C308 C 0.75068 0.93817 0.1535 0.0
C309 C 0.13235 0.22207 0.3976 0.0
C310 C 0.15383 0.2025 0.3754 0.0
C311 C 0.08201 0.2331 0.39499 0.0
C312 C 0.05142 0.22382 0.37024 0.0
H313 H 0.15233 0.22551 0.41736 0.0
H314 H 0.06364 0.2438 0.41287 0.0
S315 S 0.09286 0.17813 0.30574 0.0
N316 N 0.14453 0.17973 0.32745 0.0
N317 N 0.04788 0.19847 0.32289 0.0
C318 C 0.07481 0.20828 0.34757 0.0
C319 C 0.1269 0.19824 0.35006 0.0
C320 C 0.06374 0.87803 0.16467 0.0
C321 C 0.11007 0.87798 0.14786 0.0
C322 C -0.00017 0.83651 0.16031 0.0
C323 C -0.02034 0.79313 0.13899 0.0
H324 H 0.07668 0.9132 0.18034 0.0
H325 H 0.96607 0.84084 0.17294 0.0
S326 S 0.08204 0.76286 0.09359 0.0
N327 N 0.13174 0.82352 0.11206 0.0
N328 N 0.0109 0.74437 0.10409 0.0
C329 C 0.02545 0.78804 0.12378 0.0
C330 C 0.09089 0.8305 0.12826 0.0
C331 C 0.71953 0.8595 0.33921 0.0
C332 C 0.6946 0.81876 0.36135 0.0
C333 C 0.73611 0.92288 0.3414 0.0
C334 C 0.72966 0.94715 0.36603 0.0
H335 H 0.73181 0.84375 0.32096 0.0
H336 H 0.75922 0.95406 0.32456 0.0
S337 S 0.65662 0.85755 0.42829 0.0
N338 N 0.65558 0.80478 0.40721 0.0
N339 N 0.68867 0.92478 0.41161 0.0
C340 C 0.69933 0.90577 0.38744 0.0
C341 C 0.68099 0.84101 0.38498 0.0
C342 C 0.21949 0.10289 0.65441 0.0
C343 C 0.22891 0.07234 0.63255 0.0
C344 C 0.20863 0.153 0.65019 0.0
C345 C 0.20468 0.17195 0.62396 0.0
H346 H 0.21605 0.08509 0.67463 0.0
H347 H 0.19796 0.17332 0.6674 0.0
S348 S 0.23313 0.111 0.56041 0.0
N349 N 0.24064 0.06831 0.58419 0.0
N350 N 0.21753 0.16118 0.57612 0.0
C351 C 0.21839 0.14459 0.6021 0.0
C352 C 0.23126 0.09491 0.60646 0.0
C353 C 0.9409 0.78374 0.84882 0.0
C354 C 0.96375 0.77707 0.8738 0.0
C355 C 0.87678 0.76065 0.84474 0.0
C356 C 0.8329 0.7295 0.86536 0.0
H357 H -0.02713 0.80956 0.83253 0.0
H358 H 0.86186 0.77081 0.82583 0.0
S359 S 0.86635 0.69146 0.93321 0.0
N360 N 0.93605 0.73041 0.91855 0.0
N361 N 0.81505 0.6872 0.91069 0.0
C362 C 0.85401 0.71756 0.88965 0.0
C363 C 0.91964 0.74149 0.89395 0.0
C364 C 0.79163 0.05786 0.62827 0.0
C365 C 0.79641 0.00761 0.63905 0.0
C366 C 0.84317 0.11921 0.62938 0.0
C367 C 0.89987 0.13062 0.64123 0.0
H368 H 0.75022 0.04901 0.61701 0.0
H369 H 0.84073 0.15634 0.61864 0.0
S370 S 0.92954 0.01601 0.67726 0.0
N371 N 0.85708 0.97388 0.66562 0.0
N372 N 0.95405 0.08928 0.66784 0.0
C373 C 0.90209 0.08167 0.65473 0.0
C374 C 0.8501 0.01973 0.65353 0.0
C375 C 0.2079 0.16108 0.89726 0.0
C376 C 0.18482 0.17582 0.87414 0.0
C377 C 0.23173 0.11971 0.89583 0.0
C378 C 0.23316 0.09211 0.87127 0.0
H379 H 0.20413 0.17852 0.91681 0.0
H380 H 0.24383 0.10506 0.91434 0.0
S381 S 0.19115 0.12496 0.80424 0.0
N382 N 0.17507 0.16732 0.82527 0.0
N383 N 0.21846 0.08851 0.82301 0.0
C384 C 0.21595 0.11091 0.84776 0.0
C385 C 0.19202 0.15305 0.84908 0.0
C386 C 0.91748 0.78259 0.66424 0.0
C387 C 0.93904 0.75428 0.64583 0.0
C388 C 0.85465 0.76788 0.66396 0.0
C389 C 0.81215 0.72502 0.64508 0.0
H390 H 0.95034 0.8199 0.67736 0.0
H391 H 0.84087 0.7951 0.67661 0.0
S392 S 0.84453 0.63183 0.59552 0.0
N393 N 0.91267 0.67603 0.61074 0.0
N394 N 0.79395 0.64889 0.60991 0.0
C395 C 0.83174 0.69161 0.62855 0.0
C396 C 0.8958 0.7065 0.62889 0.0
C397 C 0.85708 0.08264 0.84157 0.0
C398 C 0.86804 0.12537 0.86248 0.0
C399 C 0.81582 0.01836 0.84499 0.0
C400 C 0.78438 -0.00574 0.8696 0.0
H401 H 0.88388 0.09854 0.82303 0.0
H402 H 0.81123 -0.01277 0.82856 0.0
S403 S 0.79006 0.08855 0.92924 0.0
N404 N 0.83917 0.14101 0.90746 0.0
N405 N 0.76094 0.01956 0.91407 0.0
C406 C 0.79082 0.03726 0.88991 0.0
C407 C 0.83271 0.10309 0.88627 0.0
C408 C 0.31027 0.05816 0.27679 0.0
C409 C 0.34808 0.11476 0.29074 0.0
C410 C 0.30863 0.05657 0.24867 0.0
C411 C 0.3461 0.11107 0.23346 0.0
H412 H 0.27901 0.01541 0.28765 0.0
H413 H 0.27657 0.01265 0.23874 0.0
S414 S 0.45785 0.26967 0.26018 0.0
N415 N 0.42665 0.22588 0.28726 0.0
N416 N 0.42525 0.2222 0.2342 0.0
C417 C 0.38698 0.16712 0.24705 0.0
C418 C 0.38746 0.16916 0.27577 0.0
C419 C 0.68755 0.63719 0.26814 0.0
C420 C 0.70359 0.59733 0.28201 0.0
C421 C 0.69126 0.64127 0.24006 0.0
C422 C 0.70954 0.60447 0.22493 0.0
H423 H 0.67603 0.66842 0.27908 0.0
H424 H 0.68156 0.67486 0.23018 0.0
S425 S 0.74915 0.48744 0.25167 0.0
N426 N 0.73383 0.51702 0.27864 0.0
N427 N 0.73878 0.52314 0.22571 0.0
C428 C 0.72138 0.56122 0.23847 0.0
C429 C 0.71898 0.5581 0.26709 0.0
C430 C 0.79035 0.2184 0.23899 0.0
C431 C 0.84511 0.22831 0.22556 0.0
C432 C 0.78761 0.21808 0.26718 0.0
C433 C 0.84012 0.22952 0.28274 0.0
H434 H 0.74844 0.20768 0.22769 0.0
H435 H 0.74373 0.20752 0.27685 0.0
S436 S -0.00385 0.26314 0.25693 0.0
N437 N 0.9538 0.25288 0.22967 0.0
N438 N 0.94944 0.25431 0.28256 0.0
C439 C 0.89616 0.24282 0.26944 0.0
C440 C 0.89842 0.24164 0.24085 0.0
C441 C 0.09705 0.38185 0.72959 0.0
C442 C 0.11934 0.34751 0.7151 0.0
C443 C 0.09318 0.3788 0.75781 0.0
C444 C 0.10928 0.33952 0.77219 0.0
H445 H 0.08262 0.41118 0.71906 0.0
H446 H 0.07582 0.40584 0.76837 0.0
S447 S 0.16949 0.23971 0.74357 0.0
N448 N 0.15828 0.27373 0.71723 0.0
N449 N 0.14896 0.26641 0.76997 0.0
C450 C 0.13156 0.30507 0.75788 0.0
C451 C 0.1371 0.30946 0.72938 0.0
C452 C 0.21327 0.80919 0.76644 0.0
C453 C 0.22422 0.86447 0.77973 0.0
C454 C 0.21221 0.80582 0.73828 0.0
C455 C 0.22393 0.85819 0.72254 0.0
H456 H 0.20237 0.76732 0.77785 0.0
H457 H 0.20082 0.76155 0.72877 0.0
S458 S 0.26023 0.01545 0.7478 0.0
N459 N 0.25009 0.97356 0.77522 0.0
N460 N 0.25014 0.96796 0.72232 0.0
C461 C 0.23827 0.91474 0.73563 0.0
C462 C 0.23782 0.91767 0.76425 0.0
C463 C 0.56217 0.69581 0.73116 0.0
C464 C 0.60533 0.74758 0.71574 0.0
C465 C 0.5662 0.69739 0.7594 0.0
C466 C 0.61475 0.74991 0.77277 0.0
H467 H 0.52491 0.65444 0.72138 0.0
H468 H 0.53209 0.65695 0.77079 0.0
S469 S 0.74014 0.8963 0.74111 0.0
N470 N 0.6979 0.85219 0.71569 0.0
N471 N 0.70651 0.85456 0.76838 0.0
C472 C 0.65834 0.80145 0.7574 0.0
C473 C 0.6534 0.8004 0.72895 0.0
C474 C 0.2443 0.01062 0.98576 0.0
C475 C 0.21874 0.94534 0.98181 0.0
C476 C 0.25598 0.03694 0.01164 0.0
C477 C 0.24382 -0.00088 0.03457 0.0
H478 H 0.25603 0.0418 0.96864 0.0
H479 H 0.27668 0.0875 0.01362 0.0
S480 S 0.17561 0.82514 0.03489 0.0
N481 N 0.17995 0.84337 0.00276 0.0
N482 N 0.20263 0.89219 0.05147 0.0
C483 C 0.21691 0.93342 0.03083 0.0
C484 C 0.20411 0.90669 0.00446 0.0
C485 C 0.74023 0.78665 0.47331 0.0
C486 C 0.7747 0.75491 0.4725 0.0
C487 C 0.72354 0.80258 0.49787 0.0
C488 C 0.74261 0.7891 0.52237 0.0
H489 H 0.72294 0.7959 0.45489 0.0
H490 H 0.6942 0.8241 0.49771 0.0
S491 S 0.8386 0.71174 0.53087 0.0
N492 N 0.83011 0.71343 0.49801 0.0
N493 N 0.80128 0.74575 0.54426 0.0
C494 C 0.78037 0.76075 0.52174 0.0
C495 C 0.79573 0.74295 0.49676 0.0
C496 C 0.9396 0.2214 0.97773 0.0
C497 C 0.00456 0.2635 0.97416 0.0
C498 C 0.91184 0.20799 0.00339 0.0
C499 C 0.94779 0.23724 0.02644 0.0
H500 H 0.90979 0.19899 0.96048 0.0
H501 H 0.86162 0.17585 0.00505 0.0
S502 S 0.12022 0.35164 0.02765 0.0
N503 N 0.10414 0.33368 0.99559 0.0
N504 N 0.05284 0.30992 0.04379 0.0
C505 C 0.01323 0.27891 0.02306 0.0
C506 C 0.0414 0.29162 0.99696 0.0
C507 C 0.15745 -0.00752 0.49483 0.0
C508 C 0.22162 0.02548 0.48728 0.0
C509 C 0.13704 0.9539 0.51782 0.0
C510 C 0.17994 0.9458 0.53349 0.0
H511 H 0.12259 -0.0042 0.48272 0.0
H512 H 0.08741 0.92903 0.52292 0.0
S513 S 0.35297 0.0248 0.52415 0.0
N514 N 0.32813 0.0502 0.49891 0.0
N515 N 0.28924 0.97667 0.54139 0.0
C516 C 0.24409 0.97965 0.52671 0.0
C517 C 0.2651 0.0198 0.5038 0.0
C518 C 0.75984 0.75294 0.01251 0.0
C519 C 0.72463 0.69246 0.02378 0.0
C520 C 0.74254 0.76734 0.9877 0.0
C521 C 0.69014 0.72134 0.9734 0.0
H522 H 0.79951 0.78974 0.02334 0.0
H523 H 0.77072 0.8143 0.97951 0.0
S524 S 0.58317 0.55612 0.99458 0.0
N525 N 0.6352 0.58686 0.01909 0.0
N526 N 0.60367 0.61305 0.97234 0.0
C527 C 0.65535 0.6606 0.98442 0.0
C528 C 0.67233 0.64639 0.00967 0.0
C529 C -0.00973 0.18243 0.50764 0.0
C530 C 0.00647 0.23907 0.52109 0.0
C531 C 0.94961 0.16281 0.48539 0.0
C532 C 0.92218 0.19812 0.47641 0.0
H533 H 0.00987 0.15364 0.51412 0.0
H534 H 0.93961 0.11971 0.47516 0.0
S535 S 0.9468 0.34816 0.50614 0.0
N536 N -0.00942 0.32909 0.52458 0.0
N537 N 0.91327 0.29186 0.48339 0.0
C538 C 0.9369 0.25406 0.49027 0.0
C539 C -0.0207 0.27464 0.51242 0.0
C540 C 0.5875 0.10646 0.09006 0.0
C541 C 0.62336 0.10591 0.11188 0.0
C542 C 0.52281 0.08453 0.0932 0.0
C543 C 0.49252 0.06048 0.11801 0.0
H544 H 0.61031 0.12852 0.07129 0.0
H545 H 0.49754 0.09114 0.07687 0.0
S546 S 0.56368 0.03926 0.17963 0.0
N547 N 0.62246 0.07186 0.15788 0.0
N548 N 0.50113 0.03094 0.16354 0.0
C549 C 0.52672 0.0544 0.13904 0.0
C550 C 0.59224 0.07701 0.136 0.0
C551 C 0.49753 0.44792 0.39373 0.0
C552 C 0.55047 0.46791 0.41033 0.0
C553 C 0.44848 0.3856 0.39411 0.0
C554 C 0.4502 0.34091 0.41122 0.0
H555 H 0.49546 0.47946 0.37908 0.0
H556 H 0.4104 0.3717 0.37988 0.0
S557 S 0.57172 0.37183 0.46252 0.0
N558 N 0.59695 0.44022 0.4474 0.0
N559 N 0.50428 0.32261 0.44795 0.0
C560 C 0.49945 0.3615 0.42989 0.0
C561 C 0.54975 0.4252 0.42949 0.0
C562 C 0.87252 0.43933 0.0898 0.0
C563 C 0.89133 0.42616 0.11447 0.0
C564 C 0.8531 0.48432 0.08822 0.0
C565 C 0.85096 0.51598 0.11144 0.0
H566 H 0.86796 0.41122 0.07219 0.0
H567 H 0.83487 0.49045 0.06936 0.0
S568 S 0.90434 0.50426 0.17976 0.0
N569 N 0.91355 0.45285 0.16162 0.0
N570 N 0.87713 0.53727 0.15888 0.0
C571 C 0.87483 0.50685 0.13562 0.0
C572 C 0.89495 0.46175 0.1371 0.0
C573 C 0.5177 0.10286 0.42803 0.0
C574 C 0.47266 0.06523 0.40863 0.0
C575 C 0.58024 0.11718 0.42579 0.0
C576 C 0.59966 0.09428 0.40409 0.0
H577 H 0.50581 0.12526 0.44402 0.0
H578 H 0.61422 0.15008 0.44001 0.0
S579 S 0.49713 0.97987 0.35233 0.0
N580 N 0.44939 -0.00494 0.37022 0.0
N581 N 0.56729 0.0219 0.36614 0.0
C582 C 0.5538 0.05042 0.38652 0.0
C583 C 0.49001 0.03566 0.38882 0.0
C584 C 0.45783 0.35813 0.13815 0.0
C585 C 0.44223 0.32359 0.11399 0.0
C586 C 0.50048 0.42265 0.13846 0.0
C587 C 0.5287 0.45488 0.11464 0.0
H588 H 0.43942 0.33458 0.1572 0.0
H589 H 0.51515 0.44653 0.15769 0.0
S590 S 0.49838 0.38847 0.04582 0.0
N591 N 0.45326 0.3277 0.06529 0.0
N592 N 0.53471 0.44994 0.06606 0.0
C593 C 0.50987 0.42241 0.09011 0.0
C594 C 0.46604 0.35633 0.08972 0.0
C595 C 0.81046 0.45638 0.41963 0.0
C596 C 0.84122 0.50441 0.40059 0.0
C597 C 0.82002 0.40471 0.42003 0.0
C598 C 0.86089 0.39958 0.40147 0.0
H599 H 0.77559 0.45645 0.43307 0.0
H600 H 0.79254 0.36706 0.43409 0.0
S601 S 0.96267 0.52063 0.3515 0.0
N602 N 0.92124 0.54928 0.36565 0.0
N603 N 0.93977 0.45239 0.36638 0.0
C604 C 0.89653 0.45059 0.3841 0.0
C605 C 0.88644 0.50295 0.38364 0.0
C606 C 0.10983 0.59852 0.58086 0.0
C607 C 0.08446 0.61634 0.60216 0.0
C608 C 0.10007 0.53738 0.57941 0.0
C609 C 0.06453 0.49226 0.5992 0.0
H610 H 0.1413 0.63307 0.56642 0.0
H611 H 0.124 0.52685 0.56363 0.0
S612 S -0.02482 0.51255 0.65504 0.0
N613 N 0.01304 0.58224 0.64042 0.0
N614 N -0.00574 0.46683 0.63778 0.0
C615 C 0.03291 0.50779 0.61877 0.0
C616 C 0.04317 0.57016 0.62027 0.0
C617 C 0.44854 0.89587 0.86715 0.0
C618 C 0.41926 0.89932 0.89081 0.0
C619 C 0.49084 0.87354 0.86757 0.0
C620 C 0.50508 0.85349 0.89169 0.0
H621 H 0.43499 0.90599 0.84789 0.0
H622 H 0.51011 0.86902 0.84859 0.0
S623 S 0.44573 0.86003 0.95956 0.0
N624 N 0.41081 0.88643 0.93928 0.0
N625 N 0.49153 0.84474 0.94025 0.0
C626 C 0.48019 0.86174 0.91586 0.0
C627 C 0.43675 0.88454 0.91536 0.0
C628 C 0.44461 0.51453 0.60585 0.0
C629 C 0.46323 0.56647 0.58877 0.0
C630 C 0.38242 0.46535 0.60631 0.0
C631 C 0.33661 0.4661 0.58962 0.0
H632 H 0.4771 0.5136 0.6203 0.0
H633 H 0.36947 0.42817 0.62095 0.0
S634 S 0.36389 0.58392 0.53701 0.0
N635 N 0.43319 0.61029 0.55139 0.0
N636 N 0.31575 0.51741 0.55253 0.0
C637 C 0.35586 0.51389 0.57031 0.0
C638 C 0.41944 0.56425 0.56981 0.0
C639 C 0.0877 0.60711 0.8655 0.0
C640 C 0.10217 0.6355 0.89109 0.0
C641 C 0.06465 0.54275 0.86241 0.0
C642 C 0.05471 0.5043 0.88478 0.0
H643 H 0.09721 0.63534 0.84751 0.0
H644 H 0.059 0.52373 0.84225 0.0
S645 S 0.07698 0.55327 0.95625 0.0
N646 N 0.09828 0.61901 0.93942 0.0
N647 N 0.05494 0.49695 0.93344 0.0
C648 C 0.06351 0.5306 0.91061 0.0
C649 C 0.08723 0.59665 0.91382 0.0
C650 C 0.43268 0.90272 0.61284 0.0
C651 C 0.37928 0.86561 0.59698 0.0
C652 C 0.4849 0.89438 0.61186 0.0
C653 C 0.48601 0.84907 0.59485 0.0
H654 H 0.43319 0.93634 0.62717 0.0
H655 H 0.5236 0.92173 0.62549 0.0
S656 S 0.3627 0.7464 0.54627 0.0
N657 N 0.33393 0.78681 0.56131 0.0
N658 N 0.43276 0.77138 0.55969 0.0
C659 C 0.43551 0.81536 0.57722 0.0
C660 C 0.38189 0.82355 0.57825 0.0
C661 C 0.41915 0.5252 0.9064 0.0
C662 C 0.45028 0.5393 0.88145 0.0
C663 C 0.354 0.48358 0.90805 0.0
C664 C 0.3186 0.45615 0.88468 0.0
H665 H 0.44429 0.55022 0.92433 0.0
H666 H 0.33075 0.47635 0.92735 0.0
S667 S 0.38115 0.47081 0.81534 0.0
N668 N 0.44332 0.51763 0.83366 0.0
N669 N 0.32117 0.43891 0.83651 0.0
C670 C 0.35055 0.46599 0.86001 0.0
C671 C 0.41649 0.50787 0.85846 0.0
loop_
_geom_bond_atom_site_label_1
_geom_bond_atom_site_label_2
_geom_bond_distance
_geom_bond_site_symmetry_2
_ccdc_geom_bond_type
O0 Zn1 1.953 . S
O0 C16 1.225 . S
Zn1 O0 1.953 . S
Zn1 O2 1.949 . S
Zn1 O8 1.919 . S
Zn1 O13 1.924 . S
O2 Zn1 1.949 . S
O2 Zn3 1.923 . S
O2 Zn4 1.950 . S
O2 Zn5 1.945 . S
Zn3 O2 1.923 . S
Zn3 O6 1.933 1_545 S
Zn3 O9 1.941 . S
Zn3 O10 1.965 . S
Zn4 O2 1.950 . S
Zn4 O11 1.938 . S
Zn4 O12 1.906 . S
Zn4 O22 1.953 . S
Zn5 O2 1.945 . S
Zn5 O7 1.932 1_545 S
Zn5 O14 1.977 . S
Zn5 O15 1.910 . S
O6 Zn3 1.933 1_565 S
O6 C17 1.226 . S
O7 Zn5 1.932 1_565 S
O7 C17 1.307 . S
O8 Zn1 1.919 . S
O8 C19 1.253 . S
O9 Zn3 1.941 . S
O9 C19 1.283 . S
O10 Zn3 1.965 . S
O10 C18 1.303 . S
O11 Zn4 1.938 . S
O11 C18 1.247 . S
O12 Zn4 1.906 . S
O12 C20 1.304 . S
O13 Zn1 1.924 . S
O13 C21 1.311 . S
O14 Zn5 1.977 . S
O14 C20 1.272 . S
O15 Zn5 1.910 . S
O15 C21 1.231 . S
C16 O0 1.225 . S
C16 O22 1.298 . S
C17 O6 1.226 . S
C17 O7 1.307 . S
C18 O10 1.303 . S
C18 O11 1.247 . S
C19 O8 1.253 . S
C19 O9 1.283 . S
C20 O12 1.304 . S
C20 O14 1.272 . S
C21 O13 1.311 . S
C21 O15 1.231 . S
O22 Zn4 1.953 . S
O22 C16 1.298 . S
O23 Zn24 1.953 . S
O23 C39 1.225 . S
Zn24 O23 1.953 . S
Zn24 O25 1.949 . S
Zn24 O31 1.919 . S
Zn24 O36 1.924 . S
O25 Zn24 1.949 . S
O25 Zn26 1.923 . S
O25 Zn27 1.950 . S
O25 Zn28 1.945 . S
Zn26 O25 1.923 . S
Zn26 O29 1.933 . S
Zn26 O32 1.941 . S
Zn26 O33 1.965 . S
Zn27 O25 1.950 . S
Zn27 O34 1.938 . S
Zn27 O35 1.906 . S
Zn27 O45 1.953 . S
Zn28 O25 1.945 . S
Zn28 O30 1.932 . S
Zn28 O37 1.977 . S
Zn28 O38 1.910 . S
O29 Zn26 1.933 . S
O29 C40 1.226 . S
O30 Zn28 1.932 . S
O30 C40 1.307 . S
O31 Zn24 1.919 . S
O31 C42 1.253 . S
O32 Zn26 1.941 . S
O32 C42 1.283 . S
O33 Zn26 1.965 . S
O33 C41 1.303 . S
O34 Zn27 1.938 . S
O34 C41 1.247 . S
O35 Zn27 1.906 . S
O35 C43 1.304 . S
O36 Zn24 1.924 . S
O36 C44 1.311 . S
O37 Zn28 1.977 . S
O37 C43 1.272 . S
O38 Zn28 1.910 . S
O38 C44 1.231 . S
C39 O23 1.225 . S
C39 O45 1.298 . S
C40 O29 1.226 . S
C40 O30 1.307 . S
C41 O33 1.303 . S
C41 O34 1.247 . S
C42 O31 1.253 . S
C42 O32 1.283 . S
C43 O35 1.304 . S
C43 O37 1.272 . S
C44 O36 1.311 . S
C44 O38 1.231 . S
O45 Zn27 1.953 . S
O45 C39 1.298 . S
O46 Zn47 1.953 . S
O46 C62 1.225 . S
Zn47 O46 1.953 . S
Zn47 O48 1.949 . S
Zn47 O54 1.919 . S
Zn47 O59 1.924 . S
O48 Zn47 1.949 . S
O48 Zn49 1.923 . S
O48 Zn50 1.950 . S
O48 Zn51 1.945 . S
Zn49 O48 1.923 . S
Zn49 O52 1.933 1_655 S
Zn49 O55 1.941 . S
Zn49 O56 1.965 . S
Zn50 O48 1.950 . S
Zn50 O57 1.938 . S
Zn50 O58 1.906 . S
Zn50 O68 1.953 . S
Zn51 O48 1.945 . S
Zn51 O53 1.932 1_655 S
Zn51 O60 1.977 . S
Zn51 O61 1.910 . S
O52 Zn49 1.933 1_455 S
O52 C63 1.226 . S
O53 Zn51 1.932 1_455 S
O53 C63 1.307 . S
O54 Zn47 1.919 . S
O54 C65 1.253 . S
O55 Zn49 1.941 . S
O55 C65 1.283 . S
O56 Zn49 1.965 . S
O56 C64 1.303 . S
O57 Zn50 1.938 . S
O57 C64 1.247 . S
O58 Zn50 1.906 . S
O58 C66 1.304 . S
O59 Zn47 1.924 . S
O59 C67 1.311 . S
O60 Zn51 1.977 . S
O60 C66 1.272 . S
O61 Zn51 1.910 . S
O61 C67 1.231 . S
C62 O46 1.225 . S
C62 O68 1.298 . S
C63 O52 1.226 . S
C63 O53 1.307 . S
C64 O56 1.303 . S
C64 O57 1.247 . S
C65 O54 1.253 . S
C65 O55 1.283 . S
C66 O58 1.304 . S
C66 O60 1.272 . S
C67 O59 1.311 . S
C67 O61 1.231 . S
O68 Zn50 1.953 . S
O68 C62 1.298 . S
O69 Zn70 1.953 . S
O69 C85 1.225 . S
Zn70 O69 1.953 . S
Zn70 O71 1.949 . S
Zn70 O77 1.919 . S
Zn70 O82 1.924 . S
O71 Zn70 1.949 . S
O71 Zn72 1.923 . S
O71 Zn73 1.950 . S
O71 Zn74 1.945 . S
Zn72 O71 1.923 . S
Zn72 O75 1.933 1_545 S
Zn72 O78 1.941 . S
Zn72 O79 1.965 . S
Zn73 O71 1.950 . S
Zn73 O80 1.938 . S
Zn73 O81 1.906 . S
Zn73 O91 1.953 . S
Zn74 O71 1.945 . S
Zn74 O76 1.932 1_545 S
Zn74 O83 1.977 . S
Zn74 O84 1.910 . S
O75 Zn72 1.933 1_565 S
O75 C86 1.226 . S
O76 Zn74 1.932 1_565 S
O76 C86 1.307 . S
O77 Zn70 1.919 . S
O77 C88 1.253 . S
O78 Zn72 1.941 . S
O78 C88 1.283 . S
O79 Zn72 1.965 . S
O79 C87 1.303 . S
O80 Zn73 1.938 . S
O80 C87 1.247 . S
O81 Zn73 1.906 . S
O81 C89 1.304 . S
O82 Zn70 1.924 . S
O82 C90 1.311 . S
O83 Zn74 1.977 . S
O83 C89 1.272 . S
O84 Zn74 1.910 . S
O84 C90 1.231 . S
C85 O69 1.225 . S
C85 O91 1.298 . S
C86 O75 1.226 . S
C86 O76 1.307 . S
C87 O79 1.303 . S
C87 O80 1.247 . S
C88 O77 1.253 . S
C88 O78 1.283 . S
C89 O81 1.304 . S
C89 O83 1.272 . S
C90 O82 1.311 . S
C90 O84 1.231 . S
O91 Zn73 1.953 . S
O91 C85 1.298 . S
O92 Zn93 1.953 . S
O92 C108 1.225 . S
Zn93 O92 1.953 . S
Zn93 O94 1.949 . S
Zn93 O100 1.919 . S
Zn93 O105 1.924 . S
O94 Zn93 1.949 . S
O94 Zn95 1.923 . S
O94 Zn96 1.950 . S
O94 Zn97 1.945 . S
Zn95 O94 1.923 . S
Zn95 O98 1.933 . S
Zn95 O101 1.941 . S
Zn95 O102 1.965 . S
Zn96 O94 1.950 . S
Zn96 O103 1.938 . S
Zn96 O104 1.906 . S
Zn96 O114 1.953 . S
Zn97 O94 1.945 . S
Zn97 O99 1.932 . S
Zn97 O106 1.977 . S
Zn97 O107 1.910 . S
O98 Zn95 1.933 . S
O98 C109 1.226 . S
O99 Zn97 1.932 . S
O99 C109 1.307 . S
O100 Zn93 1.919 . S
O100 C111 1.253 . S
O101 Zn95 1.941 . S
O101 C111 1.283 . S
O102 Zn95 1.965 . S
O102 C110 1.303 . S
O103 Zn96 1.938 . S
O103 C110 1.247 . S
O104 Zn96 1.906 . S
O104 C112 1.304 . S
O105 Zn93 1.924 . S
O105 C113 1.311 . S
O106 Zn97 1.977 . S
O106 C112 1.272 . S
O107 Zn97 1.910 . S
O107 C113 1.231 . S
C108 O92 1.225 . S
C108 O114 1.298 . S
C109 O98 1.226 . S
C109 O99 1.307 . S
C110 O102 1.303 . S
C110 O103 1.247 . S
C111 O100 1.253 . S
C111 O101 1.283 . S
C112 O104 1.304 . S
C112 O106 1.272 . S
C113 O105 1.311 . S
C113 O107 1.231 . S
O114 Zn96 1.953 . S
O114 C108 1.298 . S
O115 Zn116 1.953 . S
O115 C131 1.225 . S
Zn116 O115 1.953 . S
Zn116 O117 1.949 . S
Zn116 O123 1.919 . S
Zn116 O128 1.924 . S
O117 Zn116 1.949 . S
O117 Zn118 1.923 . S
O117 Zn119 1.950 . S
O117 Zn120 1.945 . S
Zn118 O117 1.923 . S
Zn118 O121 1.933 1_655 S
Zn118 O124 1.941 . S
Zn118 O125 1.965 . S
Zn119 O117 1.950 . S
Zn119 O126 1.938 . S
Zn119 O127 1.906 . S
Zn119 O137 1.953 . S
Zn120 O117 1.945 . S
Zn120 O122 1.932 1_655 S
Zn120 O129 1.977 . S
Zn120 O130 1.910 . S
O121 Zn118 1.933 1_455 S
O121 C132 1.226 . S
O122 Zn120 1.932 1_455 S
O122 C132 1.307 . S
O123 Zn116 1.919 . S
O123 C134 1.253 . S
O124 Zn118 1.941 . S
O124 C134 1.283 . S
O125 Zn118 1.965 . S
O125 C133 1.303 . S
O126 Zn119 1.938 . S
O126 C133 1.247 . S
O127 Zn119 1.906 . S
O127 C135 1.304 . S
O128 Zn116 1.924 . S
O128 C136 1.311 . S
O129 Zn120 1.977 . S
O129 C135 1.272 . S
O130 Zn120 1.910 . S
O130 C136 1.231 . S
C131 O115 1.225 . S
C131 O137 1.298 . S
C132 O121 1.226 . S
C132 O122 1.307 . S
C133 O125 1.303 . S
C133 O126 1.247 . S
C134 O123 1.253 . S
C134 O124 1.283 . S
C135 O127 1.304 . S
C135 O129 1.272 . S
C136 O128 1.311 . S
C136 O130 1.231 . S
O137 Zn119 1.953 . S
O137 C131 1.298 . S
O138 Zn139 1.953 . S
O138 C154 1.225 . S
Zn139 O138 1.953 . S
Zn139 O140 1.949 . S
Zn139 O146 1.919 . S
Zn139 O151 1.924 . S
O140 Zn139 1.949 . S
O140 Zn141 1.923 . S
O140 Zn142 1.950 . S
O140 Zn143 1.945 . S
Zn141 O140 1.923 . S
Zn141 O144 1.933 1_455 S
Zn141 O147 1.941 . S
Zn141 O148 1.965 . S
Zn142 O140 1.950 . S
Zn142 O149 1.938 . S
Zn142 O150 1.906 . S
Zn142 O160 1.953 . S
Zn143 O140 1.945 . S
Zn143 O145 1.932 1_455 S
Zn143 O152 1.977 . S
Zn143 O153 1.910 . S
O144 Zn141 1.933 1_655 S
O144 C155 1.226 . S
O145 Zn143 1.932 1_655 S
O145 C155 1.307 . S
O146 Zn139 1.919 . S
O146 C157 1.253 . S
O147 Zn141 1.941 . S
O147 C157 1.283 . S
O148 Zn141 1.965 . S
O148 C156 1.303 . S
O149 Zn142 1.938 . S
O149 C156 1.247 . S
O150 Zn142 1.906 . S
O150 C158 1.304 . S
O151 Zn139 1.924 . S
O151 C159 1.311 . S
O152 Zn143 1.977 . S
O152 C158 1.272 . S
O153 Zn143 1.910 . S
O153 C159 1.231 . S
C154 O138 1.225 . S
C154 O160 1.298 . S
C155 O144 1.226 . S
C155 O145 1.307 . S
C156 O148 1.303 . S
C156 O149 1.247 . S
C157 O146 1.253 . S
C157 O147 1.283 . S
C158 O150 1.304 . S
C158 O152 1.272 . S
C159 O151 1.311 . S
C159 O153 1.231 . S
O160 Zn142 1.953 . S
O160 C154 1.298 . S
O161 Zn162 1.953 . S
O161 C177 1.225 . S
Zn162 O161 1.953 . S
Zn162 O163 1.949 . S
Zn162 O169 1.919 . S
Zn162 O174 1.924 . S
O163 Zn162 1.949 . S
O163 Zn164 1.923 . S
O163 Zn165 1.950 . S
O163 Zn166 1.945 . S
Zn164 O163 1.923 . S
Zn164 O167 1.933 1_565 S
Zn164 O170 1.941 . S
Zn164 O171 1.965 . S
Zn165 O163 1.950 . S
Zn165 O172 1.938 . S
Zn165 O173 1.906 . S
Zn165 O183 1.953 . S
Zn166 O163 1.945 . S
Zn166 O168 1.932 1_565 S
Zn166 O175 1.977 . S
Zn166 O176 1.910 . S
O167 Zn164 1.933 1_545 S
O167 C178 1.226 . S
O168 Zn166 1.932 1_545 S
O168 C178 1.307 . S
O169 Zn162 1.919 . S
O169 C180 1.253 . S
O170 Zn164 1.941 . S
O170 C180 1.283 . S
O171 Zn164 1.965 . S
O171 C179 1.303 . S
O172 Zn165 1.938 . S
O172 C179 1.247 . S
O173 Zn165 1.906 . S
O173 C181 1.304 . S
O174 Zn162 1.924 . S
O174 C182 1.311 . S
O175 Zn166 1.977 . S
O175 C181 1.272 . S
O176 Zn166 1.910 . S
O176 C182 1.231 . S
C177 O161 1.225 . S
C177 O183 1.298 . S
C178 O167 1.226 . S
C178 O168 1.307 . S
C179 O171 1.303 . S
C179 O172 1.247 . S
C180 O169 1.253 . S
C180 O170 1.283 . S
C181 O173 1.304 . S
C181 O175 1.272 . S
C182 O174 1.311 . S
C182 O176 1.231 . S
O183 Zn165 1.953 . S
O183 C177 1.298 . S
O184 Zn185 1.953 . S
O184 C200 1.225 . S
Zn185 O184 1.953 . S
Zn185 O186 1.949 . S
Zn185 O192 1.919 . S
Zn185 O197 1.924 . S
O186 Zn185 1.949 . S
O186 Zn187 1.923 . S
O186 Zn188 1.950 . S
O186 Zn189 1.945 . S
Zn187 O186 1.923 . S
Zn187 O190 1.933 . S
Zn187 O193 1.941 . S
Zn187 O194 1.965 . S
Zn188 O186 1.950 . S
Zn188 O195 1.938 . S
Zn188 O196 1.906 . S
Zn188 O206 1.953 . S
Zn189 O186 1.945 . S
Zn189 O191 1.932 . S
Zn189 O198 1.977 . S
Zn189 O199 1.910 . S
O190 Zn187 1.933 . S
O190 C201 1.226 . S
O191 Zn189 1.932 . S
O191 C201 1.307 . S
O192 Zn185 1.919 . S
O192 C203 1.253 . S
O193 Zn187 1.941 . S
O193 C203 1.283 . S
O194 Zn187 1.965 . S
O194 C202 1.303 . S
O195 Zn188 1.938 . S
O195 C202 1.247 . S
O196 Zn188 1.906 . S
O196 C204 1.304 . S
O197 Zn185 1.924 . S
O197 C205 1.311 . S
O198 Zn189 1.977 . S
O198 C204 1.272 . S
O199 Zn189 1.910 . S
O199 C205 1.231 . S
C200 O184 1.225 . S
C200 O206 1.298 . S
C201 O190 1.226 . S
C201 O191 1.307 . S
C202 O194 1.303 . S
C202 O195 1.247 . S
C203 O192 1.253 . S
C203 O193 1.283 . S
C204 O196 1.304 . S
C204 O198 1.272 . S
C205 O197 1.311 . S
C205 O199 1.231 . S
O206 Zn188 1.953 . S
O206 C200 1.298 . S
O207 Zn208 1.953 . S
O207 C223 1.225 . S
Zn208 O207 1.953 . S
Zn208 O209 1.949 . S
Zn208 O215 1.919 . S
Zn208 O220 1.924 . S
O209 Zn208 1.949 . S
O209 Zn210 1.923 . S
O209 Zn211 1.950 . S
O209 Zn212 1.945 . S
Zn210 O209 1.923 . S
Zn210 O213 1.933 1_455 S
Zn210 O216 1.941 . S
Zn210 O217 1.965 . S
Zn211 O209 1.950 . S
Zn211 O218 1.938 . S
Zn211 O219 1.906 . S
Zn211 O229 1.953 . S
Zn212 O209 1.945 . S
Zn212 O214 1.932 1_455 S
Zn212 O221 1.977 . S
Zn212 O222 1.910 . S
O213 Zn210 1.933 1_655 S
O213 C224 1.226 . S
O214 Zn212 1.932 1_655 S
O214 C224 1.307 . S
O215 Zn208 1.919 . S
O215 C226 1.253 . S
O216 Zn210 1.941 . S
O216 C226 1.283 . S
O217 Zn210 1.965 . S
O217 C225 1.303 . S
O218 Zn211 1.938 . S
O218 C225 1.247 . S
O219 Zn211 1.906 . S
O219 C227 1.304 . S
O220 Zn208 1.924 . S
O220 C228 1.311 . S
O221 Zn212 1.977 . S
O221 C227 1.272 . S
O222 Zn212 1.910 . S
O222 C228 1.231 . S
C223 O207 1.225 . S
C223 O229 1.298 . S
C224 O213 1.226 . S
C224 O214 1.307 . S
C225 O217 1.303 . S
C225 O218 1.247 . S
C226 O215 1.253 . S
C226 O216 1.283 . S
C227 O219 1.304 . S
C227 O221 1.272 . S
C228 O220 1.311 . S
C228 O222 1.231 . S
O229 Zn211 1.953 . S
O229 C223 1.298 . S
O230 Zn231 1.953 . S
O230 C246 1.225 . S
Zn231 O230 1.953 . S
Zn231 O232 1.949 . S
Zn231 O238 1.919 . S
Zn231 O243 1.924 . S
O232 Zn231 1.949 . S
O232 Zn233 1.923 . S
O232 Zn234 1.950 . S
O232 Zn235 1.945 . S
Zn233 O232 1.923 . S
Zn233 O236 1.933 1_565 S
Zn233 O239 1.941 . S
Zn233 O240 1.965 . S
Zn234 O232 1.950 . S
Zn234 O241 1.938 . S
Zn234 O242 1.906 . S
Zn234 O252 1.953 . S
Zn235 O232 1.945 . S
Zn235 O237 1.932 1_565 S
Zn235 O244 1.977 . S
Zn235 O245 1.910 . S
O236 Zn233 1.933 1_545 S
O236 C247 1.226 . S
O237 Zn235 1.932 1_545 S
O237 C247 1.307 . S
O238 Zn231 1.919 . S
O238 C249 1.253 . S
O239 Zn233 1.941 . S
O239 C249 1.283 . S
O240 Zn233 1.965 . S
O240 C248 1.303 . S
O241 Zn234 1.938 . S
O241 C248 1.247 . S
O242 Zn234 1.906 . S
O242 C250 1.304 . S
O243 Zn231 1.924 . S
O243 C251 1.311 . S
O244 Zn235 1.977 . S
O244 C250 1.272 . S
O245 Zn235 1.910 . S
O245 C251 1.231 . S
C246 O230 1.225 . S
C246 O252 1.298 . S
C247 O236 1.226 . S
C247 O237 1.307 . S
C248 O240 1.303 . S
C248 O241 1.247 . S
C249 O238 1.253 . S
C249 O239 1.283 . S
C250 O242 1.304 . S
C250 O244 1.272 . S
C251 O243 1.311 . S
C251 O245 1.231 . S
O252 Zn234 1.953 . S
O252 C246 1.298 . S
O253 Zn254 1.953 . S
O253 C269 1.225 . S
Zn254 O253 1.953 . S
Zn254 O255 1.949 . S
Zn254 O261 1.919 . S
Zn254 O266 1.924 . S
O255 Zn254 1.949 . S
O255 Zn256 1.923 . S
O255 Zn257 1.950 . S
O255 Zn258 1.945 . S
Zn256 O255 1.923 . S
Zn256 O259 1.933 . S
Zn256 O262 1.941 . S
Zn256 O263 1.965 . S
Zn257 O255 1.950 . S
Zn257 O264 1.938 . S
Zn257 O265 1.906 . S
Zn257 O275 1.953 . S
Zn258 O255 1.945 . S
Zn258 O260 1.932 . S
Zn258 O267 1.977 . S
Zn258 O268 1.910 . S
O259 Zn256 1.933 . S
O259 C270 1.226 . S
O260 Zn258 1.932 . S
O260 C270 1.307 . S
O261 Zn254 1.919 . S
O261 C272 1.253 . S
O262 Zn256 1.941 . S
O262 C272 1.283 . S
O263 Zn256 1.965 . S
O263 C271 1.303 . S
O264 Zn257 1.938 . S
O264 C271 1.247 . S
O265 Zn257 1.906 . S
O265 C273 1.304 . S
O266 Zn254 1.924 . S
O266 C274 1.311 . S
O267 Zn258 1.977 . S
O267 C273 1.272 . S
O268 Zn258 1.910 . S
O268 C274 1.231 . S
C269 O253 1.225 . S
C269 O275 1.298 . S
C270 O259 1.226 . S
C270 O260 1.307 . S
C271 O263 1.303 . S
C271 O264 1.247 . S
C272 O261 1.253 . S
C272 O262 1.283 . S
C273 O265 1.304 . S
C273 O267 1.272 . S
C274 O266 1.311 . S
C274 O268 1.231 . S
O275 Zn257 1.953 . S
O275 C269 1.298 . S
C276 C277 1.369 . S
C276 C278 1.419 . S
C276 H280 0.930 . S
C277 C276 1.369 . S
C277 C286 1.429 . S
C278 C276 1.419 . S
C278 C279 1.363 . S
C278 H281 0.929 . S
C279 C278 1.363 . S
C279 C285 1.428 . S
H280 C276 0.930 . S
H281 C278 0.929 . S
S282 N283 1.613 . S
S282 N284 1.610 . S
N283 S282 1.613 . S
N283 C286 1.350 . S
N284 S282 1.610 . S
N284 C285 1.351 . S
C285 C279 1.428 . S
C285 N284 1.351 . S
C285 C286 1.434 . S
C286 C277 1.429 . S
C286 N283 1.350 . S
C286 C285 1.434 . S
C287 C288 1.369 . S
C287 C289 1.419 . S
C287 H291 0.930 . S
C288 C287 1.369 . S
C288 C297 1.429 . S
C289 C287 1.419 . S
C289 C290 1.363 . S
C289 H292 0.929 . S
C290 C289 1.363 . S
C290 C296 1.428 . S
H291 C287 0.930 . S
H292 C289 0.929 . S
S293 N294 1.613 . S
S293 N295 1.610 . S
N294 S293 1.613 . S
N294 C297 1.350 . S
N295 S293 1.610 . S
N295 C296 1.351 . S
C296 C290 1.428 . S
C296 N295 1.351 . S
C296 C297 1.434 . S
C297 C288 1.429 . S
C297 N294 1.350 . S
C297 C296 1.434 . S
C298 C299 1.369 . S
C298 C300 1.419 . S
C298 H302 0.930 . S
C299 C298 1.369 . S
C299 C308 1.429 . S
C300 C298 1.419 . S
C300 C301 1.363 . S
C300 H303 0.929 . S
C301 C300 1.363 . S
C301 C307 1.428 . S
H302 C298 0.930 . S
H303 C300 0.929 . S
S304 N305 1.613 . S
S304 N306 1.610 . S
N305 S304 1.613 . S
N305 C308 1.350 . S
N306 S304 1.610 . S
N306 C307 1.351 . S
C307 C301 1.428 . S
C307 N306 1.351 . S
C307 C308 1.434 . S
C308 C299 1.429 . S
C308 N305 1.350 . S
C308 C307 1.434 . S
C309 C310 1.369 . S
C309 C311 1.419 . S
C309 H313 0.930 . S
C310 C309 1.369 . S
C310 C319 1.429 . S
C311 C309 1.419 . S
C311 C312 1.363 . S
C311 H314 0.929 . S
C312 C311 1.363 . S
C312 C318 1.428 . S
H313 C309 0.930 . S
H314 C311 0.929 . S
S315 N316 1.613 . S
S315 N317 1.610 . S
N316 S315 1.613 . S
N316 C319 1.350 . S
N317 S315 1.610 . S
N317 C318 1.351 . S
C318 C312 1.428 . S
C318 N317 1.351 . S
C318 C319 1.434 . S
C319 C310 1.429 . S
C319 N316 1.350 . S
C319 C318 1.434 . S
C320 C321 1.369 . S
C320 C322 1.419 . S
C320 H324 0.930 . S
C321 C320 1.369 . S
C321 C330 1.429 . S
C322 C320 1.419 . S
C322 C323 1.363 . S
C322 H325 0.929 . S
C323 C322 1.363 . S
C323 C329 1.428 . S
H324 C320 0.930 . S
H325 C322 0.929 . S
S326 N327 1.613 . S
S326 N328 1.610 . S
N327 S326 1.613 . S
N327 C330 1.350 . S
N328 S326 1.610 . S
N328 C329 1.351 . S
C329 C323 1.428 . S
C329 N328 1.351 . S
C329 C330 1.434 . S
C330 C321 1.429 . S
C330 N327 1.350 . S
C330 C329 1.434 . S
C331 C332 1.369 . S
C331 C333 1.419 . S
C331 H335 0.930 . S
C332 C331 1.369 . S
C332 C341 1.429 . S
C333 C331 1.419 . S
C333 C334 1.363 . S
C333 H336 0.929 . S
C334 C333 1.363 . S
C334 C340 1.428 . S
H335 C331 0.930 . S
H336 C333 0.929 . S
S337 N338 1.613 . S
S337 N339 1.610 . S
N338 S337 1.613 . S
N338 C341 1.350 . S
N339 S337 1.610 . S
N339 C340 1.351 . S
C340 C334 1.428 . S
C340 N339 1.351 . S
C340 C341 1.434 . S
C341 C332 1.429 . S
C341 N338 1.350 . S
C341 C340 1.434 . S
C342 C343 1.369 . S
C342 C344 1.419 . S
C342 H346 0.930 . S
C343 C342 1.369 . S
C343 C352 1.429 . S
C344 C342 1.419 . S
C344 C345 1.363 . S
C344 H347 0.929 . S
C345 C344 1.363 . S
C345 C351 1.428 . S
H346 C342 0.930 . S
H347 C344 0.929 . S
S348 N349 1.613 . S
S348 N350 1.610 . S
N349 S348 1.613 . S
N349 C352 1.350 . S
N350 S348 1.610 . S
N350 C351 1.351 . S
C351 C345 1.428 . S
C351 N350 1.351 . S
C351 C352 1.434 . S
C352 C343 1.429 . S
C352 N349 1.350 . S
C352 C351 1.434 . S
C353 C354 1.369 . S
C353 C355 1.419 . S
C353 H357 0.930 . S
C354 C353 1.369 . S
C354 C363 1.429 . S
C355 C353 1.419 . S
C355 C356 1.363 . S
C355 H358 0.929 . S
C356 C355 1.363 . S
C356 C362 1.428 . S
H357 C353 0.930 . S
H358 C355 0.929 . S
S359 N360 1.613 . S
S359 N361 1.610 . S
N360 S359 1.613 . S
N360 C363 1.350 . S
N361 S359 1.610 . S
N361 C362 1.351 . S
C362 C356 1.428 . S
C362 N361 1.351 . S
C362 C363 1.434 . S
C363 C354 1.429 . S
C363 N360 1.350 . S
C363 C362 1.434 . S
C364 C365 1.369 . S
C364 C366 1.419 . S
C364 H368 0.930 . S
C365 C364 1.369 . S
C365 C374 1.429 . S
C366 C364 1.419 . S
C366 C367 1.363 . S
C366 H369 0.929 . S
C367 C366 1.363 . S
C367 C373 1.428 . S
H368 C364 0.930 . S
H369 C366 0.929 . S
S370 N371 1.613 1_545 S
S370 N372 1.610 . S
N371 S370 1.613 1_565 S
N371 C374 1.350 1_565 S
N372 S370 1.610 . S
N372 C373 1.351 . S
C373 C367 1.428 . S
C373 N372 1.351 . S
C373 C374 1.434 . S
C374 C365 1.429 . S
C374 N371 1.350 1_545 S
C374 C373 1.434 . S
C375 C376 1.369 . S
C375 C377 1.419 . S
C375 H379 0.930 . S
C376 C375 1.369 . S
C376 C385 1.429 . S
C377 C375 1.419 . S
C377 C378 1.363 . S
C377 H380 0.929 . S
C378 C377 1.363 . S
C378 C384 1.428 . S
H379 C375 0.930 . S
H380 C377 0.929 . S
S381 N382 1.613 . S
S381 N383 1.610 . S
N382 S381 1.613 . S
N382 C385 1.350 . S
N383 S381 1.610 . S
N383 C384 1.351 . S
C384 C378 1.428 . S
C384 N383 1.351 . S
C384 C385 1.434 . S
C385 C376 1.429 . S
C385 N382 1.350 . S
C385 C384 1.434 . S
C386 C387 1.369 . S
C386 C388 1.419 . S
C386 H390 0.930 . S
C387 C386 1.369 . S
C387 C396 1.429 . S
C388 C386 1.419 . S
C388 C389 1.363 . S
C388 H391 0.929 . S
C389 C388 1.363 . S
C389 C395 1.428 . S
H390 C386 0.930 . S
H391 C388 0.929 . S
S392 N393 1.613 . S
S392 N394 1.610 . S
N393 S392 1.613 . S
N393 C396 1.350 . S
N394 S392 1.610 . S
N394 C395 1.351 . S
C395 C389 1.428 . S
C395 N394 1.351 . S
C395 C396 1.434 . S
C396 C387 1.429 . S
C396 N393 1.350 . S
C396 C395 1.434 . S
C397 C398 1.369 . S
C397 C399 1.419 . S
C397 H401 0.930 . S
C398 C397 1.369 . S
C398 C407 1.429 . S
C399 C397 1.419 . S
C399 C400 1.363 . S
C399 H402 0.929 . S
C400 C399 1.363 . S
C400 C406 1.428 . S
H401 C397 0.930 . S
H402 C399 0.929 . S
S403 N404 1.613 . S
S403 N405 1.610 . S
N404 S403 1.613 . S
N404 C407 1.350 . S
N405 S403 1.610 . S
N405 C406 1.351 . S
C406 C400 1.428 . S
C406 N405 1.351 . S
C406 C407 1.434 . S
C407 C398 1.429 . S
C407 N404 1.350 . S
C407 C406 1.434 . S
C408 C409 1.369 . S
C408 C410 1.419 . S
C408 H412 0.930 . S
C409 C408 1.369 . S
C409 C418 1.429 . S
C410 C408 1.419 . S
C410 C411 1.363 . S
C410 H413 0.929 . S
C411 C410 1.363 . S
C411 C417 1.428 . S
H412 C408 0.930 . S
H413 C410 0.929 . S
S414 N415 1.613 . S
S414 N416 1.610 . S
N415 S414 1.613 . S
N415 C418 1.350 . S
N416 S414 1.610 . S
N416 C417 1.351 . S
C417 C411 1.428 . S
C417 N416 1.351 . S
C417 C418 1.434 . S
C418 C409 1.429 . S
C418 N415 1.350 . S
C418 C417 1.434 . S
C419 C420 1.369 . S
C419 C421 1.419 . S
C419 H423 0.930 . S
C420 C419 1.369 . S
C420 C429 1.429 . S
C421 C419 1.419 . S
C421 C422 1.363 . S
C421 H424 0.929 . S
C422 C421 1.363 . S
C422 C428 1.428 . S
H423 C419 0.930 . S
H424 C421 0.929 . S
S425 N426 1.613 . S
S425 N427 1.610 . S
N426 S425 1.613 . S
N426 C429 1.350 . S
N427 S425 1.610 . S
N427 C428 1.351 . S
C428 C422 1.428 . S
C428 N427 1.351 . S
C428 C429 1.434 . S
C429 C420 1.429 . S
C429 N426 1.350 . S
C429 C428 1.434 . S
C430 C431 1.369 . S
C430 C432 1.419 . S
C430 H434 0.930 . S
C431 C430 1.369 . S
C431 C440 1.429 . S
C432 C430 1.419 . S
C432 C433 1.363 . S
C432 H435 0.929 . S
C433 C432 1.363 . S
C433 C439 1.428 . S
H434 C430 0.930 . S
H435 C432 0.929 . S
S436 N437 1.613 . S
S436 N438 1.610 . S
N437 S436 1.613 . S
N437 C440 1.350 1_455 S
N438 S436 1.610 . S
N438 C439 1.351 1_455 S
C439 C433 1.428 . S
C439 N438 1.351 1_655 S
C439 C440 1.434 . S
C440 C431 1.429 . S
C440 N437 1.350 1_655 S
C440 C439 1.434 . S
C441 C442 1.369 . S
C441 C443 1.419 . S
C441 H445 0.930 . S
C442 C441 1.369 . S
C442 C451 1.429 . S
C443 C441 1.419 . S
C443 C444 1.363 . S
C443 H446 0.929 . S
C444 C443 1.363 . S
C444 C450 1.428 . S
H445 C441 0.930 . S
H446 C443 0.929 . S
S447 N448 1.613 . S
S447 N449 1.610 . S
N448 S447 1.613 . S
N448 C451 1.350 . S
N449 S447 1.610 . S
N449 C450 1.351 . S
C450 C444 1.428 . S
C450 N449 1.351 . S
C450 C451 1.434 . S
C451 C442 1.429 . S
C451 N448 1.350 . S
C451 C450 1.434 . S
C452 C453 1.369 . S
C452 C454 1.419 . S
C452 H456 0.930 . S
C453 C452 1.369 . S
C453 C462 1.429 . S
C454 C452 1.419 . S
C454 C455 1.363 . S
C454 H457 0.929 . S
C455 C454 1.363 . S
C455 C461 1.428 . S
H456 C452 0.930 . S
H457 C454 0.929 . S
S458 N459 1.613 . S
S458 N460 1.610 . S
N459 S458 1.613 . S
N459 C462 1.350 1_545 S
N460 S458 1.610 . S
N460 C461 1.351 1_545 S
C461 C455 1.428 . S
C461 N460 1.351 1_565 S
C461 C462 1.434 . S
C462 C453 1.429 . S
C462 N459 1.350 1_565 S
C462 C461 1.434 . S
C463 C464 1.369 . S
C463 C465 1.419 . S
C463 H467 0.930 . S
C464 C463 1.369 . S
C464 C473 1.429 . S
C465 C463 1.419 . S
C465 C466 1.363 . S
C465 H468 0.929 . S
C466 C465 1.363 . S
C466 C472 1.428 . S
H467 C463 0.930 . S
H468 C465 0.929 . S
S469 N470 1.613 . S
S469 N471 1.610 . S
N470 S469 1.613 . S
N470 C473 1.350 . S
N471 S469 1.610 . S
N471 C472 1.351 . S
C472 C466 1.428 . S
C472 N471 1.351 . S
C472 C473 1.434 . S
C473 C464 1.429 . S
C473 N470 1.350 . S
C473 C472 1.434 . S
C474 C475 1.369 1_545 S
C474 C476 1.419 1_556 S
C474 H478 0.930 . S
C475 C474 1.369 1_565 S
C475 C484 1.429 . S
C476 C474 1.419 1_554 S
C476 C477 1.363 . S
C476 H479 0.929 . S
C477 C476 1.363 . S
C477 C483 1.428 1_545 S
H478 C474 0.930 . S
H479 C476 0.929 . S
S480 N481 1.613 1_554 S
S480 N482 1.610 . S
N481 S480 1.613 1_556 S
N481 C484 1.350 . S
N482 S480 1.610 . S
N482 C483 1.351 . S
C483 C477 1.428 1_565 S
C483 N482 1.351 . S
C483 C484 1.434 1_554 S
C484 C475 1.429 . S
C484 N481 1.350 . S
C484 C483 1.434 1_556 S
C485 C486 1.369 . S
C485 C487 1.419 . S
C485 H489 0.930 . S
C486 C485 1.369 . S
C486 C495 1.429 . S
C487 C485 1.419 . S
C487 C488 1.363 . S
C487 H490 0.929 . S
C488 C487 1.363 . S
C488 C494 1.428 . S
H489 C485 0.930 . S
H490 C487 0.929 . S
S491 N492 1.613 . S
S491 N493 1.610 . S
N492 S491 1.613 . S
N492 C495 1.350 . S
N493 S491 1.610 . S
N493 C494 1.351 . S
C494 C488 1.428 . S
C494 N493 1.351 . S
C494 C495 1.434 . S
C495 C486 1.429 . S
C495 N492 1.350 . S
C495 C494 1.434 . S
C496 C497 1.369 1_655 S
C496 C498 1.383 1_556 S
C496 H500 0.930 . S
C497 C496 1.369 1_455 S
C497 C506 1.429 1_556 S
C498 C496 1.383 1_554 S
C498 C499 1.400 . S
C498 H501 0.929 . S
C499 C498 1.400 . S
C499 C505 1.428 1_655 S
H500 C496 0.930 . S
H501 C498 0.929 . S
S502 N503 1.613 . S
S502 N504 1.610 . S
N503 S502 1.613 . S
N503 C506 1.350 . S
N504 S502 1.610 . S
N504 C505 1.351 . S
C505 C499 1.428 1_455 S
C505 N504 1.351 . S
C505 C506 1.434 . S
C506 C497 1.429 1_554 S
C506 N503 1.350 . S
C506 C505 1.434 . S
C507 C508 1.369 1_565 S
C507 C509 1.419 . S
C507 H511 0.930 . S
C508 C507 1.369 1_545 S
C508 C517 1.429 . S
C509 C507 1.419 . S
C509 C510 1.363 . S
C509 H512 0.929 . S
C510 C509 1.363 . S
C510 C516 1.428 1_565 S
H511 C507 0.930 . S
H512 C509 0.929 . S
S513 N514 1.613 . S
S513 N515 1.610 . S
N514 S513 1.613 . S
N514 C517 1.350 . S
N515 S513 1.610 . S
N515 C516 1.351 . S
C516 C510 1.428 1_545 S
C516 N515 1.351 . S
C516 C517 1.434 . S
C517 C508 1.429 . S
C517 N514 1.350 . S
C517 C516 1.434 . S
C518 C519 1.369 . S
C518 C520 1.419 1_554 S
C518 H522 0.930 . S
C519 C518 1.369 . S
C519 C528 1.429 . S
C520 C518 1.419 1_556 S
C520 C521 1.363 . S
C520 H523 0.929 . S
C521 C520 1.363 . S
C521 C527 1.428 . S
H522 C518 0.930 . S
H523 C520 0.929 . S
S524 N525 1.613 1_556 S
S524 N526 1.610 . S
N525 S524 1.613 1_554 S
N525 C528 1.350 . S
N526 S524 1.610 . S
N526 C527 1.351 . S
C527 C521 1.428 . S
C527 N526 1.351 . S
C527 C528 1.434 1_556 S
C528 C519 1.429 . S
C528 N525 1.350 . S
C528 C527 1.434 1_554 S
C529 C530 1.369 . S
C529 C531 1.419 1_455 S
C529 H533 0.930 . S
C530 C529 1.369 . S
C530 C539 1.440 . S
C531 C529 1.419 1_655 S
C531 C532 1.363 . S
C531 H534 0.929 . S
C532 C531 1.363 . S
C532 C538 1.428 . S
H533 C529 0.930 . S
H534 C531 0.929 . S
S535 N536 1.613 . S
S535 N537 1.610 . S
N536 S535 1.613 . S
N536 C539 1.343 1_655 S
N537 S535 1.610 . S
N537 C538 1.351 . S
C538 C532 1.428 . S
C538 N537 1.351 . S
C538 C539 1.428 1_655 S
C539 C530 1.440 . S
C539 N536 1.343 1_455 S
C539 C538 1.428 1_455 S
C540 C541 1.369 . S
C540 C542 1.419 . S
C540 H544 0.930 . S
C541 C540 1.369 . S
C541 C550 1.429 . S
C542 C540 1.419 . S
C542 C543 1.363 . S
C542 H545 0.929 . S
C543 C542 1.363 . S
C543 C549 1.428 . S
H544 C540 0.930 . S
H545 C542 0.929 . S
S546 N547 1.613 . S
S546 N548 1.610 . S
N547 S546 1.613 . S
N547 C550 1.350 . S
N548 S546 1.610 . S
N548 C549 1.351 . S
C549 C543 1.428 . S
C549 N548 1.351 . S
C549 C550 1.434 . S
C550 C541 1.429 . S
C550 N547 1.350 . S
C550 C549 1.434 . S
C551 C552 1.369 . S
C551 C553 1.419 . S
C551 H555 0.930 . S
C552 C551 1.369 . S
C552 C561 1.429 . S
C553 C551 1.419 . S
C553 C554 1.363 . S
C553 H556 0.929 . S
C554 C553 1.363 . S
C554 C560 1.428 . S
H555 C551 0.930 . S
H556 C553 0.929 . S
S557 N558 1.613 . S
S557 N559 1.610 . S
N558 S557 1.613 . S
N558 C561 1.350 . S
N559 S557 1.610 . S
N559 C560 1.351 . S
C560 C554 1.428 . S
C560 N559 1.351 . S
C560 C561 1.434 . S
C561 C552 1.429 . S
C561 N558 1.350 . S
C561 C560 1.434 . S
C562 C563 1.369 . S
C562 C564 1.419 . S
C562 H566 0.930 . S
C563 C562 1.369 . S
C563 C572 1.429 . S
C564 C562 1.419 . S
C564 C565 1.363 . S
C564 H567 0.929 . S
C565 C564 1.363 . S
C565 C571 1.428 . S
H566 C562 0.930 . S
H567 C564 0.929 . S
S568 N569 1.613 1_455 S
S568 N570 1.610 1_455 S
N569 S568 1.613 1_655 S
N569 C572 1.350 . S
N570 S568 1.610 1_655 S
N570 C571 1.351 . S
C571 C565 1.428 . S
C571 N570 1.351 . S
C571 C572 1.434 . S
C572 C563 1.429 . S
C572 N569 1.350 . S
C572 C571 1.434 . S
C573 C574 1.369 . S
C573 C575 1.419 . S
C573 H577 0.930 . S
C574 C573 1.369 . S
C574 C583 1.429 . S
C575 C573 1.419 . S
C575 C576 1.363 . S
C575 H578 0.929 . S
C576 C575 1.363 . S
C576 C582 1.428 . S
H577 C573 0.930 . S
H578 C575 0.929 . S
S579 N580 1.613 . S
S579 N581 1.610 . S
N580 S579 1.613 . S
N580 C583 1.350 . S
N581 S579 1.610 . S
N581 C582 1.351 . S
C582 C576 1.428 . S
C582 N581 1.351 . S
C582 C583 1.434 . S
C583 C574 1.429 . S
C583 N580 1.350 . S
C583 C582 1.434 . S
C584 C585 1.369 . S
C584 C586 1.419 . S
C584 H588 0.930 . S
C585 C584 1.369 . S
C585 C594 1.429 . S
C586 C584 1.419 . S
C586 C587 1.363 . S
C586 H589 0.929 . S
C587 C586 1.363 . S
C587 C593 1.428 . S
H588 C584 0.930 . S
H589 C586 0.929 . S
S590 N591 1.613 . S
S590 N592 1.610 . S
N591 S590 1.613 . S
N591 C594 1.350 . S
N592 S590 1.610 . S
N592 C593 1.351 . S
C593 C587 1.428 . S
C593 N592 1.351 . S
C593 C594 1.434 . S
C594 C585 1.429 . S
C594 N591 1.350 . S
C594 C593 1.434 . S
C595 C596 1.369 . S
C595 C597 1.419 . S
C595 H599 0.930 . S
C596 C595 1.369 . S
C596 C605 1.429 . S
C597 C595 1.419 . S
C597 C598 1.363 . S
C597 H600 0.929 . S
C598 C597 1.363 . S
C598 C604 1.428 . S
H599 C595 0.930 . S
H600 C597 0.929 . S
S601 N602 1.613 1_455 S
S601 N603 1.610 1_455 S
N602 S601 1.613 1_655 S
N602 C605 1.350 . S
N603 S601 1.610 1_655 S
N603 C604 1.351 . S
C604 C598 1.428 . S
C604 N603 1.351 . S
C604 C605 1.434 . S
C605 C596 1.429 . S
C605 N602 1.350 . S
C605 C604 1.434 . S
C606 C607 1.369 . S
C606 C608 1.419 . S
C606 H610 0.930 . S
C607 C606 1.369 . S
C607 C616 1.429 . S
C608 C606 1.419 . S
C608 C609 1.363 . S
C608 H611 0.929 . S
C609 C608 1.363 . S
C609 C615 1.428 . S
H610 C606 0.930 . S
H611 C608 0.929 . S
S612 N613 1.613 . S
S612 N614 1.610 . S
N613 S612 1.613 . S
N613 C616 1.350 . S
N614 S612 1.610 . S
N614 C615 1.351 . S
C615 C609 1.428 . S
C615 N614 1.351 . S
C615 C616 1.434 . S
C616 C607 1.429 . S
C616 N613 1.350 . S
C616 C615 1.434 . S
C617 C618 1.369 . S
C617 C619 1.419 . S
C617 H621 0.930 . S
C618 C617 1.369 . S
C618 C627 1.429 . S
C619 C617 1.419 . S
C619 C620 1.363 . S
C619 H622 0.929 . S
C620 C619 1.363 . S
C620 C626 1.428 . S
H621 C617 0.930 . S
H622 C619 0.929 . S
S623 N624 1.613 . S
S623 N625 1.610 . S
N624 S623 1.613 . S
N624 C627 1.350 . S
N625 S623 1.610 . S
N625 C626 1.351 . S
C626 C620 1.428 . S
C626 N625 1.351 . S
C626 C627 1.434 . S
C627 C618 1.429 . S
C627 N624 1.350 . S
C627 C626 1.434 . S
C628 C629 1.369 . S
C628 C630 1.419 . S
C628 H632 0.930 . S
C629 C628 1.369 . S
C629 C638 1.429 . S
C630 C628 1.419 . S
C630 C631 1.363 . S
C630 H633 0.929 . S
C631 C630 1.363 . S
C631 C637 1.428 . S
H632 C628 0.930 . S
H633 C630 0.929 . S
S634 N635 1.613 . S
S634 N636 1.610 . S
N635 S634 1.613 . S
N635 C638 1.350 . S
N636 S634 1.610 . S
N636 C637 1.351 . S
C637 C631 1.428 . S
C637 N636 1.351 . S
C637 C638 1.434 . S
C638 C629 1.429 . S
C638 N635 1.350 . S
C638 C637 1.434 . S
C639 C640 1.369 . S
C639 C641 1.419 . S
C639 H643 0.930 . S
C640 C639 1.369 . S
C640 C649 1.429 . S
C641 C639 1.419 . S
C641 C642 1.363 . S
C641 H644 0.929 . S
C642 C641 1.363 . S
C642 C648 1.428 . S
H643 C639 0.930 . S
H644 C641 0.929 . S
S645 N646 1.613 1_655 S
S645 N647 1.610 . S
N646 S645 1.613 1_455 S
N646 C649 1.350 . S
N647 S645 1.610 . S
N647 C648 1.351 1_655 S
C648 C642 1.428 . S
C648 N647 1.351 1_455 S
C648 C649 1.434 . S
C649 C640 1.429 . S
C649 N646 1.350 . S
C649 C648 1.434 . S
C650 C651 1.369 . S
C650 C652 1.419 . S
C650 H654 0.930 . S
C651 C650 1.369 . S
C651 C660 1.429 . S
C652 C650 1.419 . S
C652 C653 1.363 . S
C652 H655 0.929 . S
C653 C652 1.363 . S
C653 C659 1.428 . S
H654 C650 0.930 . S
H655 C652 0.929 . S
S656 N657 1.613 . S
S656 N658 1.610 . S
N657 S656 1.613 . S
N657 C660 1.350 . S
N658 S656 1.610 . S
N658 C659 1.351 . S
C659 C653 1.428 . S
C659 N658 1.351 . S
C659 C660 1.434 . S
C660 C651 1.429 . S
C660 N657 1.350 . S
C660 C659 1.434 . S
C661 C662 1.369 . S
C661 C663 1.419 . S
C661 H665 0.930 . S
C662 C661 1.369 . S
C662 C671 1.429 . S
C663 C661 1.419 . S
C663 C664 1.363 . S
C663 H666 0.929 . S
C664 C663 1.363 . S
C664 C670 1.428 . S
H665 C661 0.930 . S
H666 C663 0.929 . S
S667 N668 1.613 . S
S667 N669 1.610 . S
N668 S667 1.613 . S
N668 C671 1.350 . S
N669 S667 1.610 . S
N669 C670 1.351 . S
C670 C664 1.428 . S
C670 N669 1.351 . S
C670 C671 1.434 . S
C671 C662 1.429 . S
C671 N668 1.350 . S
C671 C670 1.434 . S
C277 C63 1.130 . S
C279 C21 1.174 . S
C288 C86 1.090 . S
C290 C44 1.122 1_455 S
C299 C67 1.179 1_565 S
C301 C109 1.142 . S
C310 C90 1.119 . S
C312 C132 1.102 . S
C321 C17 1.138 . S
C323 C113 1.178 1_455 S
C332 C40 1.095 . S
C334 C136 1.125 1_565 S
C343 C247 1.096 . S
C345 C159 1.125 . S
C354 C182 1.179 1_655 S
C356 C270 1.142 . S
C365 C205 1.115 1_545 S
C367 C155 1.095 . S
C376 C228 1.173 . S
C378 C178 1.134 . S
C387 C251 1.126 1_655 S
C389 C201 1.099 . S
C398 C224 1.140 . S
C400 C274 1.178 1_545 S
C409 C88 1.489 . S
C411 C20 1.500 . S
C420 C42 1.488 . S
C422 C112 1.500 . S
C431 C66 1.504 . S
C433 C134 1.493 . S
C442 C157 1.492 . S
C444 C227 1.500 . S
C453 C181 1.504 . S
C455 C249 1.493 . S
C464 C203 1.493 . S
C466 C273 1.501 . S
C475 C180 1.546 . S
C477 C19 1.546 . S
C486 C43 1.561 . S
C488 C204 1.560 . S
C497 C226 1.545 . S
C499 C65 1.545 . S
C508 C89 1.561 . S
C510 C250 1.560 . S
C519 C111 1.543 . S
C521 C272 1.543 . S
C530 C158 1.561 . S
C532 C135 1.561 . S
C541 C62 1.286 . S
C543 C18 1.272 . S
C552 C41 1.281 . S
C554 C85 1.305 . S
C563 C64 1.275 . S
C565 C108 1.284 . S
C574 C87 1.282 . S
C576 C131 1.304 . S
C585 C16 1.286 . S
C587 C110 1.272 . S
C596 C39 1.302 . S
C598 C133 1.285 . S
C607 C246 1.305 . S
C609 C156 1.282 . S
C618 C179 1.276 . S
C620 C269 1.287 . S
C629 C202 1.278 . S
C631 C154 1.306 . S
C640 C177 1.286 . S
C642 C225 1.277 . S
C651 C248 1.277 . S
C653 C200 1.307 . S
C662 C271 1.277 . S
C664 C223 1.285 . S
