# Generated by pormake.
# Topology una, (4)-cn, num edge types: 1
# Building blocks:
#     Node 0, Type 0, BuildingBlock: GALJAG_clean_sbu_0, # of connection points: 4
#     Node 1, Type 0, BuildingBlock: GALJAG_clean_sbu_0, # of connection points: 4
#     Node 2, Type 0, BuildingBlock: GALJAG_clean_sbu_0, # of connection points: 4
#     Node 3, Type 0, BuildingBlock: GALJAG_clean_sbu_0, # of connection points: 4
#     Node 4, Type 0, BuildingBlock: GALJAG_clean_sbu_0, # of connection points: 4
#     Node 5, Type 0, BuildingBlock: GALJAG_clean_sbu_0, # of connection points: 4
#     Node 6, Type 0, BuildingBlock: GALJAG_clean_sbu_0, # of connection points: 4
#     Node 7, Type 0, BuildingBlock: GALJAG_clean_sbu_0, # of connection points: 4
#     Node 8, Type 0, BuildingBlock: GALJAG_clean_sbu_0, # of connection points: 4
#     Node 9, Type 0, BuildingBlock: GALJAG_clean_sbu_0, # of connection points: 4
#     Node 10, Type 0, BuildingBlock: GALJAG_clean_sbu_0, # of connection points: 4
#     Node 11, Type 0, BuildingBlock: GALJAG_clean_sbu_0, # of connection points: 4
#     Edge 12, Type (0, 0), BuildingBlock: XUDNAN_clean_linker_2, # of connection points: 2
#     Edge 13, Type (0, 0), BuildingBlock: XUDNAN_clean_linker_2, # of connection points: 2
#     Edge 14, Type (0, 0), BuildingBlock: XUDNAN_clean_linker_2, # of connection points: 2
#     Edge 15, Type (0, 0), BuildingBlock: XUDNAN_clean_linker_2, # of connection points: 2
#     Edge 16, Type (0, 0), BuildingBlock: XUDNAN_clean_linker_2, # of connection points: 2
#     Edge 17, Type (0, 0), BuildingBlock: XUDNAN_clean_linker_2, # of connection points: 2
#     Edge 18, Type (0, 0), BuildingBlock: XUDNAN_clean_linker_2, # of connection points: 2
#     Edge 19, Type (0, 0), BuildingBlock: XUDNAN_clean_linker_2, # of connection points: 2
#     Edge 20, Type (0, 0), BuildingBlock: XUDNAN_clean_linker_2, # of connection points: 2
#     Edge 21, Type (0, 0), BuildingBlock: XUDNAN_clean_linker_2, # of connection points: 2
#     Edge 22, Type (0, 0), BuildingBlock: XUDNAN_clean_linker_2, # of connection points: 2
#     Edge 23, Type (0, 0), BuildingBlock: XUDNAN_clean_linker_2, # of connection points: 2
#     Edge 24, Type (0, 0), BuildingBlock: XUDNAN_clean_linker_2, # of connection points: 2
#     Edge 25, Type (0, 0), BuildingBlock: XUDNAN_clean_linker_2, # of connection points: 2
#     Edge 26, Type (0, 0), BuildingBlock: XUDNAN_clean_linker_2, # of connection points: 2
#     Edge 27, Type (0, 0), BuildingBlock: XUDNAN_clean_linker_2, # of connection points: 2
#     Edge 28, Type (0, 0), BuildingBlock: XUDNAN_clean_linker_2, # of connection points: 2
#     Edge 29, Type (0, 0), BuildingBlock: XUDNAN_clean_linker_2, # of connection points: 2
#     Edge 30, Type (0, 0), BuildingBlock: XUDNAN_clean_linker_2, # of connection points: 2
#     Edge 31, Type (0, 0), BuildingBlock: XUDNAN_clean_linker_2, # of connection points: 2
#     Edge 32, Type (0, 0), BuildingBlock: XUDNAN_clean_linker_2, # of connection points: 2
#     Edge 33, Type (0, 0), BuildingBlock: XUDNAN_clean_linker_2, # of connection points: 2
#     Edge 34, Type (0, 0), BuildingBlock: XUDNAN_clean_linker_2, # of connection points: 2
#     Edge 35, Type (0, 0), BuildingBlock: XUDNAN_clean_linker_2, # of connection points: 2
# Relax obj value: 0.044
# Max RMSD: 0.038
# Mean RMSD: 0.038
data_MOF--net-una--node1-GALJAG_clean_sbu_0--edge1-XUDNAN_clean_linker_2
_symmetry_space_group_name_H-M    P1
_symmetry_Int_Tables_number       1
_symmetry_cell_setting            triclinic
loop_
_symmetry_equiv_pos_as_xyz
'x, y, z'
_cell_length_a     60.47351
_cell_length_b     60.342228
_cell_length_c     19.98078
_cell_angle_alpha  89.966344
_cell_angle_beta   89.956854
_cell_angle_gamma 120.04743
loop_
_atom_site_label
_atom_site_type_symbol
_atom_site_fract_x
_atom_site_fract_y
_atom_site_fract_z
_atom_type_partial_charge
In0 In 0.14329 0.45633 0.04566 0.0
O1 O 0.10224 0.42092 0.0482 0.0
O2 O 0.11821 0.43849 0.95484 0.0
C3 C 0.1746 0.45155 0.13487 0.0
C4 C 0.13088 0.49072 0.09262 0.0
C5 C 0.17667 0.46715 0.94579 0.0
O6 O 0.15322 0.43247 0.11934 0.0
O7 O 0.17882 0.47235 0.10919 0.0
O8 O 0.17261 0.48405 0.97095 0.0
O9 O 0.16357 0.44496 0.9704 0.0
C10 C 0.09934 0.42107 0.9855 0.0
O11 O 0.14255 0.49373 0.03804 0.0
O12 O 0.12535 0.4703 0.12339 0.0
In13 In 0.69051 0.1359 0.23402 0.0
O14 O 0.67396 0.09213 0.22143 0.0
O15 O 0.67576 0.11429 0.13672 0.0
C16 C 0.71857 0.15094 0.34817 0.0
C17 C 0.65011 0.14174 0.26289 0.0
C18 C 0.73005 0.16701 0.15501 0.0
O19 O 0.71402 0.1307 0.31766 0.0
O20 O 0.70748 0.16204 0.32388 0.0
O21 O 0.71007 0.16869 0.15841 0.0
O22 O 0.72968 0.14949 0.19026 0.0
C23 C 0.66996 0.09252 0.15928 0.0
O24 O 0.66923 0.15791 0.22978 0.0
O25 O 0.65101 0.1221 0.28095 0.0
In26 In 0.571 0.69365 0.39097 0.0
O27 O 0.60344 0.6848 0.40974 0.0
O28 O 0.59377 0.68765 0.30927 0.0
C29 C 0.58027 0.72823 0.48967 0.0
C30 C 0.53299 0.64529 0.41687 0.0
C31 C 0.56046 0.71859 0.29582 0.0
O32 O 0.59774 0.72506 0.46484 0.0
O33 O 0.55826 0.71321 0.46706 0.0
O34 O 0.54343 0.6982 0.32261 0.0
O35 O 0.58285 0.7262 0.31638 0.0
C36 C 0.60736 0.68308 0.34823 0.0
O37 O 0.54092 0.65363 0.35888 0.0
O38 O 0.5441 0.66136 0.46305 0.0
In39 In 0.87208 0.55266 0.54467 0.0
O40 O 0.88365 0.52419 0.50975 0.0
O41 O 0.87619 0.52429 0.61374 0.0
C42 C 0.84507 0.54225 0.43045 0.0
C43 C 0.91793 0.59462 0.51478 0.0
C44 C 0.8386 0.55533 0.63144 0.0
O45 O 0.84554 0.5249 0.46468 0.0
O46 O 0.85864 0.5646 0.45309 0.0
O47 O 0.86238 0.57065 0.63617 0.0
O48 O 0.83261 0.5386 0.58695 0.0
C49 C 0.8824 0.51449 0.56654 0.0
O50 O 0.9159 0.57815 0.55716 0.0
O51 O 0.89692 0.59081 0.49208 0.0
In52 In 0.31647 0.87921 0.75682 0.0
O53 O 0.34253 0.87892 0.83913 0.0
O54 O 0.35446 0.87992 0.73916 0.0
C55 C 0.29148 0.84255 0.66504 0.0
C56 C 0.33116 0.92671 0.706 0.0
C57 C 0.28054 0.85922 0.85576 0.0
O58 O 0.3086 0.84293 0.7021 0.0
O59 O 0.28719 0.8608 0.67411 0.0
O60 O 0.27651 0.85062 0.79696 0.0
O61 O 0.30229 0.87878 0.86425 0.0
C62 C 0.3592 0.87947 0.80034 0.0
O63 O 0.3204 0.91938 0.76221 0.0
O64 O 0.33417 0.91018 0.67573 0.0
In65 In 0.44735 0.31758 0.89248 0.0
O66 O 0.41168 0.32161 0.90954 0.0
O67 O 0.43588 0.34047 0.8262 0.0
C68 C 0.44298 0.27779 0.9661 0.0
C69 C 0.48726 0.35994 0.94555 0.0
C70 C 0.44381 0.29362 0.77698 0.0
O71 O 0.4269 0.28533 0.97202 0.0
O72 O 0.46103 0.29084 0.92611 0.0
O73 O 0.4652 0.31007 0.80094 0.0
O74 O 0.42453 0.28963 0.81093 0.0
C75 C 0.41586 0.33542 0.8579 0.0
O76 O 0.48695 0.35323 0.88556 0.0
O77 O 0.46749 0.34525 0.97885 0.0
In78 In 0.56266 0.87657 0.89021 0.0
O79 O 0.52761 0.87431 0.93741 0.0
O80 O 0.53242 0.88162 0.83277 0.0
C81 C 0.55514 0.83966 0.97833 0.0
C82 C 0.59399 0.92605 0.92744 0.0
C83 C 0.57648 0.8565 0.78704 0.0
O84 O 0.53751 0.83878 0.94283 0.0
O85 O 0.57673 0.85944 0.97014 0.0
O86 O 0.59246 0.87258 0.82751 0.0
O87 O 0.55393 0.85192 0.79583 0.0
C88 C 0.51894 0.87834 0.8843 0.0
O89 O 0.58748 0.91956 0.86731 0.0
O90 O 0.5856 0.90756 0.96793 0.0
In91 In 0.6937 0.56032 0.05575 0.0
O92 O 0.66011 0.52537 0.10415 0.0
O93 O 0.65648 0.53286 0.00197 0.0
C94 C 0.72412 0.54668 0.12014 0.0
C95 C 0.68606 0.59585 0.12036 0.0
C96 C 0.7204 0.57119 0.93883 0.0
O97 O 0.70307 0.53025 0.09493 0.0
O98 O 0.72946 0.56961 0.11309 0.0
O99 O 0.73048 0.5824 0.9929 0.0
O100 O 0.69662 0.55625 0.94259 0.0
C101 C 0.64644 0.51851 0.05213 0.0
O102 O 0.68242 0.59213 0.05813 0.0
O103 O 0.69377 0.58229 0.14797 0.0
In104 In 0.13319 0.6913 0.25747 0.0
O105 O 0.09393 0.68887 0.24428 0.0
O106 O 0.10304 0.67945 0.33859 0.0
C107 C 0.16149 0.72864 0.1673 0.0
C108 C 0.12494 0.64403 0.22496 0.0
C109 C 0.16616 0.71569 0.35754 0.0
O110 O 0.13738 0.71822 0.16892 0.0
O111 O 0.17065 0.71947 0.20802 0.0
O112 O 0.16478 0.69649 0.32827 0.0
O113 O 0.1505 0.72228 0.33717 0.0
C114 C 0.08674 0.68124 0.30355 0.0
O115 O 0.1255 0.65157 0.28379 0.0
O116 O 0.12875 0.66046 0.18055 0.0
In117 In 0.44383 0.13383 0.38898 0.0
O118 O 0.48708 0.15883 0.39317 0.0
O119 O 0.47186 0.11958 0.36776 0.0
C120 C 0.44123 0.17088 0.45694 0.0
C121 C 0.41574 0.09063 0.46291 0.0
C122 C 0.43233 0.14449 0.26542 0.0
O123 O 0.46105 0.16883 0.45819 0.0
O124 O 0.42308 0.15421 0.42244 0.0
O125 O 0.41804 0.13998 0.31544 0.0
O126 O 0.45096 0.14114 0.27599 0.0
C127 C 0.49155 0.14121 0.37686 0.0
O128 O 0.4156 0.09007 0.39963 0.0
O129 O 0.42995 0.11245 0.48745 0.0
In130 In 0.32576 0.45128 0.55054 0.0
O131 O 0.36143 0.49044 0.56624 0.0
O132 O 0.36323 0.46515 0.49498 0.0
C133 C 0.2977 0.46445 0.627 0.0
C134 C 0.33336 0.41752 0.62328 0.0
C135 C 0.2985 0.44381 0.43592 0.0
O136 O 0.31999 0.48072 0.60804 0.0
O137 O 0.28987 0.44183 0.60747 0.0
O138 O 0.29147 0.42653 0.47991 0.0
O139 O 0.31938 0.4637 0.44856 0.0
C140 C 0.3746 0.48679 0.52314 0.0
O141 O 0.33293 0.41707 0.56002 0.0
O142 O 0.32954 0.43435 0.6488 0.0
In143 In 0.88252 0.31413 0.72922 0.0
O144 O 0.87617 0.34848 0.7377 0.0
O145 O 0.89446 0.34527 0.65032 0.0
C146 C 0.85725 0.28641 0.83713 0.0
C147 C 0.93147 0.33266 0.76896 0.0
C148 C 0.85368 0.27699 0.63925 0.0
O149 O 0.85288 0.30321 0.81293 0.0
O150 O 0.87437 0.28407 0.80747 0.0
O151 O 0.87596 0.28203 0.6552 0.0
O152 O 0.8466 0.29124 0.66655 0.0
C153 C 0.88642 0.35796 0.6819 0.0
O154 O 0.92312 0.32091 0.71406 0.0
O155 O 0.91528 0.33525 0.80276 0.0
H156 H 0.17211 0.42094 0.24328 0.0
H157 H 0.22434 0.47879 0.10403 0.0
H158 H 0.26066 0.4787 0.1586 0.0
H159 H 0.21225 0.44792 0.38569 0.0
H160 H 0.20428 0.41784 0.42443 0.0
H161 H 0.18162 0.4199 0.3702 0.0
H162 H 0.17919 0.38329 0.29729 0.0
H163 H 0.202 0.38123 0.35121 0.0
H164 H 0.2081 0.3863 0.26261 0.0
H165 H 0.29155 0.47514 0.22984 0.0
H166 H 0.31627 0.47049 0.32092 0.0
H167 H 0.24586 0.41576 0.41974 0.0
C168 C 0.19119 0.43323 0.22397 0.0
C169 C 0.19541 0.44983 0.1692 0.0
C170 C 0.22067 0.46603 0.14604 0.0
C171 C 0.24144 0.46599 0.17637 0.0
C172 C 0.23685 0.44977 0.23053 0.0
C173 C 0.21247 0.43381 0.25484 0.0
C174 C 0.21354 0.42007 0.31771 0.0
C175 C 0.20226 0.42685 0.37807 0.0
C176 C 0.19989 0.39099 0.30651 0.0
C177 C 0.24227 0.43123 0.32515 0.0
C178 C 0.25516 0.44801 0.27342 0.0
C179 C 0.28172 0.46186 0.27031 0.0
C180 C 0.29561 0.45908 0.3223 0.0
C181 C 0.28305 0.44259 0.377 0.0
C182 C 0.25597 0.42804 0.37773 0.0
H183 H 0.80752 0.26661 0.58844 0.0
H184 H 0.8605 0.23796 0.59243 0.0
H185 H 0.83009 0.20034 0.52553 0.0
H186 H 0.74949 0.20579 0.60119 0.0
H187 H 0.732 0.21463 0.54459 0.0
H188 H 0.75765 0.23882 0.59392 0.0
H189 H 0.78005 0.2642 0.48626 0.0
H190 H 0.75429 0.24029 0.43678 0.0
H191 H 0.78673 0.24834 0.4194 0.0
H192 H 0.79311 0.1655 0.45735 0.0
H193 H 0.75545 0.13939 0.38543 0.0
H194 H 0.72761 0.19175 0.42598 0.0
C195 C 0.81278 0.25245 0.57523 0.0
C196 C 0.83639 0.2552 0.59575 0.0
C197 C 0.84256 0.23629 0.57707 0.0
C198 C 0.82532 0.21478 0.53946 0.0
C199 C 0.80203 0.21251 0.52072 0.0
C200 C 0.79592 0.23103 0.53748 0.0
C201 C 0.77021 0.22476 0.50925 0.0
C202 C 0.75122 0.22076 0.56561 0.0
C203 C 0.77299 0.24563 0.45999 0.0
C204 C 0.76277 0.19988 0.47352 0.0
C205 C 0.78118 0.19289 0.48122 0.0
C206 C 0.77858 0.1708 0.45126 0.0
C207 C 0.75703 0.15596 0.41089 0.0
C208 C 0.7385 0.16341 0.40041 0.0
C209 C 0.7413 0.18539 0.43342 0.0
H210 H 0.54551 0.74014 0.54123 0.0
H211 H 0.62615 0.76407 0.54412 0.0
H212 H 0.63441 0.80059 0.61717 0.0
H213 H 0.55328 0.80297 0.53473 0.0
H214 H 0.52625 0.7951 0.58801 0.0
H215 H 0.52667 0.77066 0.5372 0.0
H216 H 0.51949 0.7428 0.64261 0.0
H217 H 0.51877 0.76701 0.69363 0.0
H218 H 0.54096 0.7562 0.71265 0.0
H219 H 0.63365 0.83483 0.69019 0.0
H220 H 0.6237 0.86253 0.76031 0.0
H221 H 0.54365 0.81634 0.70753 0.0
C222 C 0.5649 0.75293 0.5576 0.0
C223 C 0.58519 0.74916 0.53715 0.0
C224 C 0.61029 0.76649 0.55937 0.0
C225 C 0.61517 0.78734 0.60067 0.0
C226 C 0.59476 0.79067 0.61919 0.0
C227 C 0.5701 0.77384 0.59856 0.0
C228 C 0.55148 0.78159 0.62535 0.0
C229 C 0.53867 0.78796 0.56789 0.0
C230 C 0.5315 0.76066 0.6713 0.0
C231 C 0.56946 0.80538 0.66458 0.0
C232 C 0.59436 0.81038 0.66033 0.0
C233 C 0.61422 0.83111 0.69361 0.0
C234 C 0.60841 0.84681 0.73315 0.0
C235 C 0.58294 0.84177 0.73908 0.0
C236 C 0.56335 0.82092 0.70349 0.0
H237 H 0.8424 0.5812 0.75071 0.0
H238 H 0.78921 0.53468 0.59523 0.0
H239 H 0.75482 0.53786 0.65141 0.0
H240 H 0.7978 0.55258 0.88577 0.0
H241 H 0.80924 0.58178 0.93281 0.0
H242 H 0.8306 0.57778 0.87789 0.0
H243 H 0.84096 0.61965 0.81611 0.0
H244 H 0.81941 0.62362 0.87056 0.0
H245 H 0.8153 0.62297 0.78111 0.0
H246 H 0.72559 0.54433 0.72418 0.0
H247 H 0.70209 0.55049 0.81629 0.0
H248 H 0.77263 0.59183 0.92883 0.0
C249 C 0.82355 0.5719 0.72846 0.0
C250 C 0.81858 0.55774 0.66836 0.0
C251 C 0.79355 0.54555 0.64126 0.0
C252 C 0.77385 0.54738 0.67254 0.0
C253 C 0.77923 0.56136 0.73148 0.0
C254 C 0.80333 0.5732 0.75985 0.0
C255 C 0.80317 0.58547 0.82623 0.0
C256 C 0.81064 0.57369 0.88409 0.0
C257 C 0.82076 0.61467 0.8233 0.0
C258 C 0.77523 0.57828 0.83075 0.0
C259 C 0.76195 0.56471 0.77487 0.0
C260 C 0.73577 0.55508 0.76807 0.0
C261 C 0.72258 0.55875 0.82061 0.0
C262 C 0.73549 0.57181 0.87953 0.0
C263 C 0.7623 0.58217 0.88392 0.0
H264 H 0.23338 0.81554 0.84888 0.0
H265 H 0.28744 0.87128 0.98883 0.0
H266 H 0.26038 0.84539 0.08307 0.0
H267 H 0.17472 0.79894 0.94816 0.0
H268 H 0.15951 0.76564 0.92494 0.0
H269 H 0.1816 0.7899 0.8682 0.0
H270 H 0.20831 0.76724 0.86327 0.0
H271 H 0.18646 0.74304 0.92025 0.0
H272 H 0.22004 0.76108 0.9399 0.0
H273 H 0.23107 0.8111 0.16148 0.0
H274 H 0.19953 0.77183 0.22007 0.0
H275 H 0.16251 0.73854 0.03136 0.0
C276 C 0.23919 0.82261 0.89933 0.0
C277 C 0.26251 0.84556 0.91149 0.0
C278 C 0.26962 0.85392 0.97823 0.0
C279 C 0.25436 0.83931 0.03211 0.0
C280 C 0.23186 0.81649 0.0185 0.0
C281 C 0.22406 0.80831 0.95379 0.0
C282 C 0.19969 0.78234 0.95324 0.0
C283 C 0.17757 0.78433 0.92177 0.0
C284 C 0.20389 0.76224 0.91703 0.0
C285 C 0.19547 0.77683 0.02777 0.0
C286 C 0.2143 0.79688 0.06431 0.0
C287 C 0.21593 0.79555 0.13355 0.0
C288 C 0.198 0.77316 0.16634 0.0
C289 C 0.17843 0.75245 0.13028 0.0
C290 C 0.17691 0.75441 0.06014 0.0
H291 H 0.40678 0.17114 0.25087 0.0
H292 H 0.45612 0.14981 0.14568 0.0
H293 H 0.4609 0.17916 0.05355 0.0
H294 H 0.37619 0.18111 0.09895 0.0
H295 H 0.3761 0.20833 0.13575 0.0
H296 H 0.37321 0.18272 0.18836 0.0
H297 H 0.41216 0.21544 0.25739 0.0
H298 H 0.41543 0.24108 0.20458 0.0
H299 H 0.44203 0.23581 0.21541 0.0
H300 H 0.46511 0.2144 0.98118 0.0
H301 H 0.46674 0.25196 0.92826 0.0
H302 H 0.41461 0.25151 0.07846 0.0
C303 C 0.41778 0.17193 0.20722 0.0
C304 C 0.43077 0.15785 0.20487 0.0
C305 C 0.44575 0.16012 0.14808 0.0
C306 C 0.44861 0.1768 0.0956 0.0
C307 C 0.43637 0.19112 0.10056 0.0
C308 C 0.421 0.1887 0.15447 0.0
C309 C 0.41179 0.20796 0.14985 0.0
C310 C 0.38258 0.19421 0.14279 0.0
C311 C 0.42091 0.22614 0.2104 0.0
C312 C 0.42494 0.22201 0.08584 0.0
C313 C 0.43887 0.21178 0.05829 0.0
C314 C 0.45396 0.22231 0.00167 0.0
C315 C 0.45487 0.24379 0.97222 0.0
C316 C 0.44074 0.25468 0.99903 0.0
C317 C 0.42536 0.24344 0.05638 0.0
H318 H 0.14207 0.53677 0.03645 0.0
H319 H 0.10663 0.48834 0.20988 0.0
H320 H 0.09863 0.52132 0.25811 0.0
H321 H 0.17409 0.59535 0.12369 0.0
H322 H 0.16927 0.61389 0.06067 0.0
H323 H 0.17053 0.58576 0.0371 0.0
H324 H 0.12619 0.56701 0.98062 0.0
H325 H 0.12479 0.59513 0.00399 0.0
H326 H 0.09946 0.56385 0.02842 0.0
H327 H 0.09748 0.56037 0.29157 0.0
H328 H 0.10254 0.60312 0.30803 0.0
H329 H 0.13776 0.62651 0.11205 0.0
C330 C 0.13233 0.53299 0.08419 0.0
C331 C 0.12491 0.50997 0.11945 0.0
C332 C 0.11242 0.5058 0.18198 0.0
C333 C 0.10775 0.5244 0.20971 0.0
C334 C 0.11555 0.54699 0.17407 0.0
C335 C 0.12745 0.55135 0.11254 0.0
C336 C 0.13481 0.57776 0.08607 0.0
C337 C 0.1639 0.59415 0.07634 0.0
C338 C 0.12045 0.57581 0.02091 0.0
C339 C 0.12568 0.58775 0.14307 0.0
C340 C 0.11453 0.56958 0.19309 0.0
C341 C 0.10587 0.57464 0.25246 0.0
C342 C 0.1089 0.59901 0.26138 0.0
C343 C 0.12038 0.61803 0.21114 0.0
C344 C 0.12855 0.61218 0.15079 0.0
H345 H 0.6005 0.10623 0.29649 0.0
H346 H 0.65229 0.1877 0.27041 0.0
H347 H 0.61786 0.19631 0.30203 0.0
H348 H 0.54592 0.10627 0.22505 0.0
H349 H 0.5232 0.08235 0.28142 0.0
H350 H 0.55229 0.08256 0.26058 0.0
H351 H 0.56335 0.0849 0.38655 0.0
H352 H 0.53433 0.08479 0.40777 0.0
H353 H 0.56465 0.11027 0.43711 0.0
H354 H 0.57833 0.19634 0.33756 0.0
H355 H 0.53488 0.18759 0.36479 0.0
H356 H 0.50743 0.10594 0.36115 0.0
C357 C 0.60455 0.12586 0.2979 0.0
C358 C 0.62908 0.14634 0.28144 0.0
C359 C 0.63362 0.17175 0.28279 0.0
C360 C 0.61423 0.17684 0.30098 0.0
C361 C 0.59026 0.15628 0.31685 0.0
C362 C 0.5852 0.13127 0.31473 0.0
C363 C 0.55734 0.11268 0.33062 0.0
C364 C 0.5439 0.09492 0.27085 0.0
C365 C 0.55477 0.09725 0.39431 0.0
C366 C 0.5476 0.13118 0.34197 0.0
C367 C 0.56703 0.15624 0.33463 0.0
C368 C 0.56291 0.1768 0.34322 0.0
C369 C 0.53818 0.17163 0.35887 0.0
C370 C 0.51778 0.14611 0.36491 0.0
C371 C 0.52265 0.12565 0.35666 0.0
H372 H 0.40443 0.53418 0.58032 0.0
H373 H 0.4034 0.48485 0.42084 0.0
H374 H 0.44527 0.5193 0.38132 0.0
H375 H 0.43153 0.59127 0.48736 0.0
H376 H 0.45126 0.61168 0.55406 0.0
H377 H 0.4221 0.58258 0.57336 0.0
H378 H 0.44723 0.56748 0.64735 0.0
H379 H 0.4765 0.59663 0.62846 0.0
H380 H 0.47395 0.56605 0.61221 0.0
H381 H 0.48458 0.56007 0.35183 0.0
H382 H 0.52067 0.60412 0.33829 0.0
H383 H 0.49808 0.62692 0.51995 0.0
C384 C 0.41322 0.53053 0.53772 0.0
C385 C 0.40067 0.50683 0.50362 0.0
C386 C 0.41269 0.50281 0.44785 0.0
C387 C 0.43648 0.52227 0.42502 0.0
C388 C 0.44816 0.54554 0.45899 0.0
C389 C 0.43715 0.5497 0.51462 0.0
C390 C 0.45347 0.57681 0.54057 0.0
C391 C 0.43871 0.59144 0.53869 0.0
C392 C 0.46338 0.57673 0.61136 0.0
C393 C 0.47502 0.5874 0.48977 0.0
C394 C 0.47152 0.56898 0.44319 0.0
C395 C 0.4878 0.57453 0.38862 0.0
C396 C 0.50817 0.59961 0.38122 0.0
C397 C 0.51226 0.61875 0.42847 0.0
C398 C 0.49565 0.61248 0.4839 0.0
H399 H 0.87128 0.4827 0.67616 0.0
H400 H 0.9035 0.49692 0.47596 0.0
H401 H 0.90917 0.45936 0.48566 0.0
H402 H 0.912 0.45987 0.74838 0.0
H403 H 0.88666 0.43562 0.79868 0.0
H404 H 0.8865 0.46461 0.77797 0.0
H405 H 0.84124 0.43774 0.72719 0.0
H406 H 0.84131 0.4087 0.74746 0.0
H407 H 0.83584 0.41477 0.66246 0.0
H408 H 0.91005 0.41969 0.51448 0.0
H409 H 0.90598 0.37996 0.56095 0.0
H410 H 0.87247 0.39029 0.74207 0.0
C411 C 0.87984 0.47807 0.63482 0.0
C412 C 0.88706 0.49281 0.57539 0.0
C413 C 0.89785 0.48594 0.52197 0.0
C414 C 0.90119 0.46465 0.52701 0.0
C415 C 0.89357 0.45031 0.58574 0.0
C416 C 0.88315 0.45667 0.63881 0.0
C417 C 0.87571 0.43733 0.69521 0.0
C418 C 0.89114 0.45013 0.75883 0.0
C419 C 0.84681 0.42384 0.70885 0.0
C420 C 0.88337 0.41905 0.66516 0.0
C421 C 0.89377 0.42704 0.60214 0.0
C422 C 0.90202 0.41327 0.56389 0.0
C423 C 0.8996 0.3907 0.59072 0.0
C424 C 0.88891 0.382 0.65508 0.0
C425 C 0.88073 0.39645 0.69273 0.0
H426 H 0.39972 0.88369 0.72696 0.0
H427 H 0.3705 0.87488 0.92965 0.0
H428 H 0.4084 0.87418 0.97227 0.0
H429 H 0.4263 0.84244 0.74455 0.0
H430 H 0.45408 0.86206 0.694 0.0
H431 H 0.42477 0.86216 0.67894 0.0
H432 H 0.44857 0.91142 0.69366 0.0
H433 H 0.47797 0.91148 0.70878 0.0
H434 H 0.46638 0.9254 0.76931 0.0
H435 H 0.44864 0.87373 0.99318 0.0
H436 H 0.48943 0.87392 0.99174 0.0
H437 H 0.49355 0.88354 0.77584 0.0
C438 C 0.40134 0.88164 0.7803 0.0
C439 C 0.38216 0.87933 0.82507 0.0
C440 C 0.38497 0.87672 0.89449 0.0
C441 C 0.40642 0.87629 0.91919 0.0
C442 C 0.42496 0.87861 0.87386 0.0
C443 C 0.42275 0.88129 0.80593 0.0
C444 C 0.44554 0.88341 0.76828 0.0
C445 C 0.43716 0.86119 0.71851 0.0
C446 C 0.4605 0.90948 0.73293 0.0
C447 C 0.46077 0.88126 0.8257 0.0
C448 C 0.44848 0.87854 0.88608 0.0
C449 C 0.4585 0.87592 0.94628 0.0
C450 C 0.48169 0.87605 0.94487 0.0
C451 C 0.4947 0.87878 0.88371 0.0
C452 C 0.48408 0.8815 0.82335 0.0
H453 H 0.52731 0.39933 0.87889 0.0
H454 H 0.49649 0.37281 0.07781 0.0
H455 H 0.53344 0.41101 0.12684 0.0
H456 H 0.59312 0.42517 0.91985 0.0
H457 H 0.60423 0.45241 0.86492 0.0
H458 H 0.57526 0.42313 0.84562 0.0
H459 H 0.55048 0.44784 0.84072 0.0
H460 H 0.57938 0.47721 0.86003 0.0
H461 H 0.5514 0.46678 0.91154 0.0
H462 H 0.57485 0.45104 0.1543 0.0
H463 H 0.61663 0.49109 0.15791 0.0
H464 H 0.61933 0.49264 0.94089 0.0
C465 C 0.52833 0.40159 0.93277 0.0
C466 C 0.50911 0.38307 0.97465 0.0
C467 C 0.51101 0.38678 0.04484 0.0
C468 C 0.53193 0.40839 0.07312 0.0
C469 C 0.55061 0.42626 0.03045 0.0
C470 C 0.5489 0.42321 0.96175 0.0
C471 C 0.57145 0.44533 0.92703 0.0
C472 C 0.58693 0.43594 0.88701 0.0
C473 C 0.56264 0.46017 0.88219 0.0
C474 C 0.58629 0.46113 0.98697 0.0
C475 C 0.574 0.44974 0.04618 0.0
C476 C 0.58452 0.46025 0.10824 0.0
C477 C 0.60826 0.48296 0.10981 0.0
C478 C 0.62108 0.49503 0.04973 0.0
C479 C 0.6098 0.484 0.98761 0.0
H480 H 0.25296 0.43113 0.68746 0.0
H481 H 0.30712 0.51221 0.66435 0.0
H482 H 0.28053 0.52228 0.73887 0.0
H483 H 0.1954 0.43551 0.69322 0.0
H484 H 0.18055 0.41069 0.75554 0.0
H485 H 0.20306 0.41026 0.69723 0.0
H486 H 0.23025 0.40906 0.79602 0.0
H487 H 0.20782 0.40944 0.85456 0.0
H488 H 0.24114 0.4335 0.85952 0.0
H489 H 0.24809 0.52299 0.81881 0.0
H490 H 0.21406 0.51423 0.90143 0.0
H491 H 0.18265 0.43264 0.87248 0.0
C492 C 0.25913 0.45104 0.69747 0.0
C493 C 0.28197 0.47093 0.67001 0.0
C494 C 0.2896 0.49671 0.68494 0.0
C495 C 0.2746 0.50259 0.72695 0.0
C496 C 0.25218 0.48243 0.75349 0.0
C497 C 0.24459 0.45718 0.73945 0.0
C498 C 0.22049 0.43892 0.77665 0.0
C499 C 0.19858 0.42291 0.72773 0.0
C500 C 0.22522 0.42173 0.82452 0.0
C501 C 0.21576 0.45779 0.81451 0.0
C502 C 0.23402 0.48281 0.80012 0.0
C503 C 0.23366 0.50347 0.83026 0.0
C504 C 0.21428 0.49834 0.87692 0.0
C505 C 0.19583 0.47278 0.8932 0.0
C506 C 0.19653 0.45238 0.861 0.0
H507 H 0.73583 0.20593 0.07181 0.0
H508 H 0.77484 0.16692 0.14585 0.0
H509 H 0.81257 0.19529 0.07784 0.0
H510 H 0.75904 0.21413 0.90448 0.0
H511 H 0.76253 0.24538 0.89365 0.0
H512 H 0.73891 0.22284 0.95071 0.0
H513 H 0.75848 0.25606 0.04653 0.0
H514 H 0.78226 0.27869 0.98975 0.0
H515 H 0.79194 0.26997 0.066 0.0
H516 H 0.84502 0.22599 0.99904 0.0
H517 H 0.87047 0.2572 0.91142 0.0
H518 H 0.81123 0.27724 0.88844 0.0
C519 C 0.75238 0.20349 0.0739 0.0
C520 C 0.75245 0.18425 0.11407 0.0
C521 C 0.77438 0.18153 0.11537 0.0
C522 C 0.79594 0.1976 0.07712 0.0
C523 C 0.79528 0.21634 0.03803 0.0
C524 C 0.77414 0.21942 0.03596 0.0
C525 C 0.77825 0.24057 0.98776 0.0
C526 C 0.75851 0.2301 0.93077 0.0
C527 C 0.7777 0.26263 0.02474 0.0
C528 C 0.80485 0.24859 0.96246 0.0
C529 C 0.8143 0.2344 0.99251 0.0
C530 C 0.83796 0.2374 0.97552 0.0
C531 C 0.85224 0.25514 0.92568 0.0
C532 C 0.84284 0.26968 0.89359 0.0
C533 C 0.81901 0.26662 0.91293 0.0
H534 H 0.59376 0.76443 0.23767 0.0
H535 H 0.51387 0.7051 0.2421 0.0
H536 H 0.50381 0.72976 0.1611 0.0
H537 H 0.58319 0.81758 0.22898 0.0
H538 H 0.60967 0.83599 0.17333 0.0
H539 H 0.6107 0.81341 0.23037 0.0
H540 H 0.61864 0.79059 0.13115 0.0
H541 H 0.61775 0.81317 0.07382 0.0
H542 H 0.59666 0.77933 0.06176 0.0
H543 H 0.50244 0.76097 0.0809 0.0
H544 H 0.50984 0.79652 0.00572 0.0
H545 H 0.59061 0.83565 0.05461 0.0
C546 C 0.57417 0.75656 0.22132 0.0
C547 C 0.55457 0.73286 0.24591 0.0
C548 C 0.52916 0.72323 0.22369 0.0
C549 C 0.52327 0.73709 0.1778 0.0
C550 C 0.54302 0.76049 0.15486 0.0
C551 C 0.56796 0.77015 0.17574 0.0
C552 C 0.58558 0.79588 0.14395 0.0
C553 C 0.59801 0.81696 0.19735 0.0
C554 C 0.60585 0.79466 0.10006 0.0
C555 C 0.56664 0.79921 0.10197 0.0
C556 C 0.5422 0.77857 0.10894 0.0
C557 C 0.52148 0.77724 0.075 0.0
C558 C 0.52588 0.79752 0.03251 0.0
C559 C 0.55078 0.81881 0.02453 0.0
C560 C 0.57136 0.81964 0.05993 0.0
H561 H 0.8414 0.57717 0.35281 0.0
H562 H 0.80951 0.49543 0.38011 0.0
H563 H 0.77684 0.48718 0.29396 0.0
H564 H 0.78421 0.57595 0.34229 0.0
H565 H 0.79436 0.60094 0.28044 0.0
H566 H 0.81741 0.60029 0.33589 0.0
H567 H 0.84398 0.59999 0.23433 0.0
H568 H 0.82111 0.60092 0.17836 0.0
H569 H 0.82885 0.57582 0.17064 0.0
H570 H 0.7446 0.48829 0.2147 0.0
H571 H 0.71649 0.49872 0.14779 0.0
H572 H 0.7701 0.57969 0.17502 0.0
C573 C 0.82797 0.55751 0.33948 0.0
C574 C 0.82799 0.53692 0.37273 0.0
C575 C 0.80989 0.51147 0.35469 0.0
C576 C 0.79129 0.50662 0.3059 0.0
C577 C 0.79131 0.52745 0.27553 0.0
C578 C 0.80938 0.55239 0.29127 0.0
C579 C 0.80417 0.57146 0.25608 0.0
C580 C 0.79977 0.58812 0.3067 0.0
C581 C 0.82581 0.58802 0.20692 0.0
C582 C 0.77989 0.5534 0.21955 0.0
C583 C 0.77283 0.52808 0.23061 0.0
C584 C 0.75016 0.50805 0.2049 0.0
C585 C 0.7343 0.51413 0.16721 0.0
C586 C 0.74119 0.53998 0.15627 0.0
C587 C 0.7644 0.55974 0.1822 0.0
H588 H 0.17665 0.76096 0.41506 0.0
H589 H 0.20085 0.70432 0.4113 0.0
H590 H 0.23609 0.73089 0.48905 0.0
H591 H 0.23897 0.81575 0.41615 0.0
H592 H 0.23064 0.83403 0.47148 0.0
H593 H 0.20674 0.81009 0.41771 0.0
H594 H 0.17793 0.78757 0.52054 0.0
H595 H 0.20163 0.81158 0.57457 0.0
H596 H 0.1906 0.77818 0.58965 0.0
H597 H 0.26915 0.76413 0.56544 0.0
H598 H 0.29681 0.80103 0.63771 0.0
H599 H 0.25108 0.83592 0.58931 0.0
C600 C 0.18919 0.75401 0.43116 0.0
C601 C 0.18601 0.73057 0.40754 0.0
C602 C 0.20294 0.72222 0.42912 0.0
C603 C 0.22302 0.73718 0.47309 0.0
C604 C 0.22585 0.76041 0.49471 0.0
C605 C 0.20935 0.76872 0.47469 0.0
C606 C 0.21676 0.79457 0.50432 0.0
C607 C 0.22369 0.8148 0.44912 0.0
C608 C 0.19546 0.79286 0.54999 0.0
C609 C 0.24002 0.79951 0.54418 0.0
C610 C 0.24499 0.77961 0.53802 0.0
C611 C 0.26545 0.77984 0.57069 0.0
C612 C 0.28107 0.80087 0.61142 0.0
C613 C 0.27609 0.8213 0.61885 0.0
C614 C 0.25542 0.82062 0.5843 0.0
H615 H 0.47846 0.28167 0.72556 0.0
H616 H 0.40273 0.27096 0.69467 0.0
H617 H 0.3958 0.24147 0.60118 0.0
H618 H 0.49296 0.27599 0.54684 0.0
H619 H 0.50875 0.25833 0.56828 0.0
H620 H 0.50941 0.28169 0.62569 0.0
H621 H 0.49045 0.24711 0.71862 0.0
H622 H 0.48951 0.22362 0.6615 0.0
H623 H 0.46076 0.2179 0.70368 0.0
H624 H 0.39525 0.21037 0.51987 0.0
H625 H 0.40071 0.17866 0.45551 0.0
H626 H 0.47632 0.20796 0.54085 0.0
C627 C 0.46077 0.27368 0.69765 0.0
C628 C 0.44122 0.27873 0.7164 0.0
C629 C 0.41796 0.26737 0.6805 0.0
C630 C 0.4139 0.2507 0.6273 0.0
C631 C 0.43325 0.24553 0.61105 0.0
C632 C 0.45626 0.25666 0.64496 0.0
C633 C 0.4728 0.24583 0.62174 0.0
C634 C 0.49744 0.26671 0.58866 0.0
C635 C 0.47871 0.23284 0.67985 0.0
C636 C 0.4552 0.22641 0.57083 0.0
C637 C 0.43267 0.22688 0.56486 0.0
C638 C 0.41291 0.20999 0.52345 0.0
C639 C 0.41617 0.19199 0.48733 0.0
C640 C 0.43893 0.19089 0.49326 0.0
C641 C 0.45879 0.2085 0.53507 0.0
H642 H 0.04913 0.40181 0.02334 0.0
H643 H 0.09711 0.40103 0.86319 0.0
H644 H 0.05896 0.37554 0.79323 0.0
H645 H 0.9929 0.33733 0.99224 0.0
H646 H 0.97044 0.34795 0.00974 0.0
H647 H 1.00107 0.36299 0.05085 0.0
H648 H 0.01005 0.40719 0.00729 0.0
H649 H 0.9796 0.39228 0.96561 0.0
H650 H 0.00843 0.41187 0.91869 0.0
H651 H 0.01618 0.35278 0.73749 0.0
H652 H 0.97162 0.33515 0.69901 0.0
H653 H 0.95134 0.35262 0.89237 0.0
C654 C 0.05141 0.39555 0.97434 0.0
C655 C 0.07595 0.40293 0.94895 0.0
C656 C 0.0784 0.39528 0.88368 0.0
C657 C 0.05686 0.3808 0.84361 0.0
C658 C 0.03294 0.37435 0.86918 0.0
C659 C 0.03004 0.38146 0.93299 0.0
C660 C 1.00242 0.374 0.94583 0.0
C661 C 0.99104 0.3544 0.00306 0.0
C662 C 1.0 0.39775 0.96018 0.0
C663 C 0.99044 0.36198 0.87909 0.0
C664 C 0.00833 0.36207 0.83594 0.0
C665 C 1.00195 0.35246 0.77098 0.0
C666 C 0.97661 0.34253 0.74949 0.0
C667 C 0.95803 0.34255 0.79252 0.0
C668 C 0.96513 0.35235 0.85824 0.0
H669 H 0.60747 0.94436 0.05595 0.0
H670 H 0.61246 0.96901 0.84962 0.0
H671 H 0.63321 0.01401 0.88707 0.0
H672 H 0.59246 0.98919 0.12681 0.0
H673 H 0.61116 0.99471 0.2016 0.0
H674 H 0.59803 0.96446 0.15883 0.0
H675 H 0.64318 0.96988 0.14906 0.0
H676 H 0.65646 1.00008 0.19223 0.0
H677 H 0.66858 0.99843 0.11106 0.0
H678 H 0.65103 0.05587 0.94665 0.0
H679 H 0.66669 0.09243 0.02374 0.0
H680 H 0.651 0.04143 0.19288 0.0
C681 C 0.61325 0.95926 0.01856 0.0
C682 C 0.60843 0.95315 0.94968 0.0
C683 C 0.61606 0.9732 0.9025 0.0
C684 C 0.62782 0.99883 0.92335 0.0
C685 C 0.63192 1.00416 0.99159 0.0
C686 C 0.62507 0.985 0.03855 0.0
C687 C 0.63117 0.99599 0.10897 0.0
C688 C 0.60675 0.98546 0.15155 0.0
C689 C 0.65103 0.99078 0.14228 0.0
C690 C 0.64226 0.0243 0.09429 0.0
C691 C 0.64247 0.02849 0.02617 0.0
C692 C 0.65113 0.05284 1.00001 0.0
C693 C 0.65993 0.07351 0.0444 0.0
C694 C 0.66014 0.06988 0.11449 0.0
C695 C 0.6512 0.04486 0.13963 0.0
H696 H 0.65695 0.61779 0.08517 0.0
H697 H 0.702 0.61254 0.24678 0.0
H698 H 0.68956 0.63734 0.31981 0.0
H699 H 0.66912 0.6831 0.12592 0.0
H700 H 0.637 0.6752 0.10506 0.0
H701 H 0.6516 0.65938 0.06274 0.0
H702 H 0.61365 0.61533 0.09782 0.0
H703 H 0.59902 0.63099 0.14042 0.0
H704 H 0.60538 0.60884 0.18516 0.0
H705 H 0.66907 0.65893 0.37932 0.0
H706 H 0.64249 0.67674 0.41975 0.0
H707 H 0.61096 0.66873 0.22039 0.0
C708 C 0.66465 0.62242 0.13538 0.0
C709 C 0.68058 0.61334 0.16008 0.0
C710 C 0.68983 0.61932 0.22663 0.0
C711 C 0.68291 0.63346 0.26858 0.0
C712 C 0.66672 0.64162 0.24345 0.0
C713 C 0.65781 0.6365 0.17829 0.0
C714 C 0.63936 0.64616 0.16538 0.0
C715 C 0.64991 0.66722 0.11158 0.0
C716 C 0.61278 0.62401 0.14607 0.0
C717 C 0.63893 0.65696 0.2337 0.0
C718 C 0.65497 0.65428 0.2779 0.0
C719 C 0.65671 0.66149 0.34492 0.0
C720 C 0.64153 0.67155 0.36752 0.0
C721 C 0.62486 0.67437 0.32322 0.0
C722 C 0.62384 0.66721 0.25528 0.0
H723 H 0.06438 0.65326 0.41602 0.0
H724 H 0.05068 0.69122 0.25017 0.0
H725 H 0.0072 0.67689 0.2941 0.0
H726 H 1.00323 0.59827 0.41512 0.0
H727 H 1.00128 0.59413 0.50469 0.0
H728 H 0.03195 0.60964 0.46398 0.0
H729 H 0.04659 0.64923 0.54045 0.0
H730 H 0.01585 0.63387 0.58122 0.0
H731 H 0.02798 0.66501 0.54367 0.0
H732 H 0.96461 0.65673 0.35389 0.0
H733 H 0.92518 0.62941 0.41766 0.0
H734 H 0.96626 0.60312 0.54216 0.0
C735 C 0.05239 0.65893 0.38945 0.0
C736 C 0.06099 0.67362 0.33002 0.0
C737 C 0.04452 0.68012 0.29594 0.0
C738 C 0.01986 0.67215 0.32073 0.0
C739 C 0.01195 0.65758 0.37939 0.0
C740 C 0.02769 0.65086 0.41297 0.0
C741 C 0.01401 0.63338 0.47179 0.0
C742 C 0.01252 0.60732 0.46335 0.0
C743 C 0.02688 0.64615 0.53822 0.0
C744 C 0.9879 0.63091 0.46561 0.0
C745 C 0.98725 0.64537 0.41266 0.0
C746 C 0.96498 0.64548 0.39565 0.0
C747 C 0.94267 0.62993 0.43239 0.0
C748 C 0.94262 0.61419 0.48522 0.0
C749 C 0.96573 0.61517 0.50273 0.0
H750 H 0.39697 0.03937 0.4345 0.0
H751 H 0.40059 0.09112 0.59031 0.0
H752 H 0.377 0.05458 0.66685 0.0
H753 H 0.33362 0.98545 0.47699 0.0
H754 H 0.34264 0.96167 0.46048 0.0
H755 H 0.35791 0.99161 0.41558 0.0
H756 H 0.4022 0.99973 0.45461 0.0
H757 H 0.38707 0.96985 0.49959 0.0
H758 H 0.40821 0.99918 0.54279 0.0
H759 H 0.35399 0.01271 0.72799 0.0
H760 H 0.33548 0.96854 0.77143 0.0
H761 H 0.34855 0.94388 0.57884 0.0
C762 C 0.39242 0.04288 0.48438 0.0
C763 C 0.40041 0.06806 0.50629 0.0
C764 C 0.3946 0.07199 0.57242 0.0
C765 C 0.38113 0.05134 0.61625 0.0
C766 C 0.37374 0.02679 0.5936 0.0
C767 C 0.37929 0.02243 0.52941 0.0
C768 C 0.37059 0.9943 0.51941 0.0
C769 C 0.34996 0.98257 0.46488 0.0
C770 C 0.39338 0.99056 0.50316 0.0
C771 C 0.35955 0.98368 0.58806 0.0
C772 C 0.36125 1.0027 0.62978 0.0
C773 C 0.3525 0.99763 0.69575 0.0
C774 C 0.34198 0.97248 0.71999 0.0
C775 C 0.34059 0.95279 0.67866 0.0
C776 C 0.34936 0.95853 0.61169 0.0
H777 H 0.36442 0.39789 0.5924 0.0
H778 H 0.31708 0.40134 0.75032 0.0
H779 H 0.3306 0.37791 0.82607 0.0
H780 H 0.35672 0.33484 0.63535 0.0
H781 H 0.38962 0.34504 0.6168 0.0
H782 H 0.37364 0.35906 0.57266 0.0
H783 H 0.40915 0.40424 0.60908 0.0
H784 H 0.42513 0.39037 0.65364 0.0
H785 H 0.41627 0.411 0.69681 0.0
H786 H 0.35101 0.35567 0.88664 0.0
H787 H 0.37834 0.33868 0.92791 0.0
H788 H 0.41442 0.35264 0.73281 0.0
C789 C 0.35641 0.39308 0.64235 0.0
C790 C 0.33937 0.401 0.66525 0.0
C791 C 0.32997 0.39519 0.73168 0.0
C792 C 0.33752 0.38187 0.77503 0.0
C793 C 0.35478 0.37476 0.75152 0.0
C794 C 0.3642 0.38026 0.68677 0.0
C795 C 0.38423 0.37255 0.67575 0.0
C796 C 0.37552 0.35163 0.62195 0.0
C797 C 0.41023 0.39594 0.65778 0.0
C798 C 0.38481 0.36217 0.74443 0.0
C799 C 0.36741 0.36319 0.78723 0.0
C800 C 0.36468 0.35474 0.85347 0.0
C801 C 0.38025 0.34513 0.87654 0.0
C802 C 0.39859 0.34451 0.8338 0.0
C803 C 0.40069 0.35304 0.76689 0.0
loop_
_geom_bond_atom_site_label_1
_geom_bond_atom_site_label_2
_geom_bond_distance
_geom_bond_site_symmetry_2
_ccdc_geom_bond_type
In0 O1 2.294 . S
In0 O2 2.326 1_554 S
In0 O6 2.266 . S
In0 O7 2.326 . S
In0 O8 2.266 1_554 S
In0 O9 2.326 . S
In0 O11 2.294 . S
In0 O12 2.326 . S
O1 In0 2.294 . S
O1 C10 1.240 . S
O2 In0 2.326 1_556 S
O2 C10 1.252 1_556 S
C3 O6 1.252 . S
C3 O7 1.260 . S
C4 O11 1.240 . S
C4 O12 1.252 . S
C5 O8 1.252 . S
C5 O9 1.260 1_556 S
O6 In0 2.266 . S
O6 C3 1.252 . S
O7 In0 2.326 . S
O7 C3 1.260 . S
O8 In0 2.266 1_556 S
O8 C5 1.252 . S
O9 In0 2.326 . S
O9 C5 1.260 1_554 S
C10 O1 1.240 . S
C10 O2 1.252 1_554 S
O11 In0 2.294 . S
O11 C4 1.240 . S
O12 In0 2.326 . S
O12 C4 1.252 . S
In13 O14 2.294 . S
In13 O15 2.326 . S
In13 O19 2.266 . S
In13 O20 2.326 . S
In13 O21 2.266 . S
In13 O22 2.326 . S
In13 O24 2.294 . S
In13 O25 2.326 . S
O14 In13 2.294 . S
O14 C23 1.240 . S
O15 In13 2.326 . S
O15 C23 1.252 . S
C16 O19 1.252 . S
C16 O20 1.260 . S
C17 O24 1.240 . S
C17 O25 1.252 . S
C18 O21 1.252 . S
C18 O22 1.260 . S
O19 In13 2.266 . S
O19 C16 1.252 . S
O20 In13 2.326 . S
O20 C16 1.260 . S
O21 In13 2.266 . S
O21 C18 1.252 . S
O22 In13 2.326 . S
O22 C18 1.260 . S
C23 O14 1.240 . S
C23 O15 1.252 . S
O24 In13 2.294 . S
O24 C17 1.240 . S
O25 In13 2.326 . S
O25 C17 1.252 . S
In26 O27 2.294 . S
In26 O28 2.326 . S
In26 O32 2.266 . S
In26 O33 2.326 . S
In26 O34 2.266 . S
In26 O35 2.326 . S
In26 O37 2.294 . S
In26 O38 2.326 . S
O27 In26 2.294 . S
O27 C36 1.240 . S
O28 In26 2.326 . S
O28 C36 1.252 . S
C29 O32 1.252 . S
C29 O33 1.260 . S
C30 O37 1.240 . S
C30 O38 1.252 . S
C31 O34 1.252 . S
C31 O35 1.260 . S
O32 In26 2.266 . S
O32 C29 1.252 . S
O33 In26 2.326 . S
O33 C29 1.260 . S
O34 In26 2.266 . S
O34 C31 1.252 . S
O35 In26 2.326 . S
O35 C31 1.260 . S
C36 O27 1.240 . S
C36 O28 1.252 . S
O37 In26 2.294 . S
O37 C30 1.240 . S
O38 In26 2.326 . S
O38 C30 1.252 . S
In39 O40 2.294 . S
In39 O41 2.326 . S
In39 O45 2.266 . S
In39 O46 2.326 . S
In39 O47 2.266 . S
In39 O48 2.326 . S
In39 O50 2.294 . S
In39 O51 2.326 . S
O40 In39 2.294 . S
O40 C49 1.240 . S
O41 In39 2.326 . S
O41 C49 1.252 . S
C42 O45 1.252 . S
C42 O46 1.260 . S
C43 O50 1.240 . S
C43 O51 1.252 . S
C44 O47 1.252 . S
C44 O48 1.260 . S
O45 In39 2.266 . S
O45 C42 1.252 . S
O46 In39 2.326 . S
O46 C42 1.260 . S
O47 In39 2.266 . S
O47 C44 1.252 . S
O48 In39 2.326 . S
O48 C44 1.260 . S
C49 O40 1.240 . S
C49 O41 1.252 . S
O50 In39 2.294 . S
O50 C43 1.240 . S
O51 In39 2.326 . S
O51 C43 1.252 . S
In52 O53 2.294 . S
In52 O54 2.326 . S
In52 O58 2.266 . S
In52 O59 2.326 . S
In52 O60 2.266 . S
In52 O61 2.326 . S
In52 O63 2.294 . S
In52 O64 2.326 . S
O53 In52 2.294 . S
O53 C62 1.240 . S
O54 In52 2.326 . S
O54 C62 1.252 . S
C55 O58 1.252 . S
C55 O59 1.260 . S
C56 O63 1.240 . S
C56 O64 1.252 . S
C57 O60 1.252 . S
C57 O61 1.260 . S
O58 In52 2.266 . S
O58 C55 1.252 . S
O59 In52 2.326 . S
O59 C55 1.260 . S
O60 In52 2.266 . S
O60 C57 1.252 . S
O61 In52 2.326 . S
O61 C57 1.260 . S
C62 O53 1.240 . S
C62 O54 1.252 . S
O63 In52 2.294 . S
O63 C56 1.240 . S
O64 In52 2.326 . S
O64 C56 1.252 . S
In65 O66 2.294 . S
In65 O67 2.326 . S
In65 O71 2.266 . S
In65 O72 2.326 . S
In65 O73 2.266 . S
In65 O74 2.326 . S
In65 O76 2.294 . S
In65 O77 2.326 . S
O66 In65 2.294 . S
O66 C75 1.240 . S
O67 In65 2.326 . S
O67 C75 1.252 . S
C68 O71 1.252 . S
C68 O72 1.260 . S
C69 O76 1.240 . S
C69 O77 1.252 . S
C70 O73 1.252 . S
C70 O74 1.260 . S
O71 In65 2.266 . S
O71 C68 1.252 . S
O72 In65 2.326 . S
O72 C68 1.260 . S
O73 In65 2.266 . S
O73 C70 1.252 . S
O74 In65 2.326 . S
O74 C70 1.260 . S
C75 O66 1.240 . S
C75 O67 1.252 . S
O76 In65 2.294 . S
O76 C69 1.240 . S
O77 In65 2.326 . S
O77 C69 1.252 . S
In78 O79 2.294 . S
In78 O80 2.326 . S
In78 O84 2.266 . S
In78 O85 2.326 . S
In78 O86 2.266 . S
In78 O87 2.326 . S
In78 O89 2.294 . S
In78 O90 2.326 . S
O79 In78 2.294 . S
O79 C88 1.240 . S
O80 In78 2.326 . S
O80 C88 1.252 . S
C81 O84 1.252 . S
C81 O85 1.260 . S
C82 O89 1.240 . S
C82 O90 1.252 . S
C83 O86 1.252 . S
C83 O87 1.260 . S
O84 In78 2.266 . S
O84 C81 1.252 . S
O85 In78 2.326 . S
O85 C81 1.260 . S
O86 In78 2.266 . S
O86 C83 1.252 . S
O87 In78 2.326 . S
O87 C83 1.260 . S
C88 O79 1.240 . S
C88 O80 1.252 . S
O89 In78 2.294 . S
O89 C82 1.240 . S
O90 In78 2.326 . S
O90 C82 1.252 . S
In91 O92 2.294 . S
In91 O93 2.326 1_554 S
In91 O97 2.266 . S
In91 O98 2.326 . S
In91 O99 2.266 1_554 S
In91 O100 2.326 1_554 S
In91 O102 2.294 . S
In91 O103 2.326 . S
O92 In91 2.294 . S
O92 C101 1.240 . S
O93 In91 2.326 1_556 S
O93 C101 1.252 1_556 S
C94 O97 1.252 . S
C94 O98 1.260 . S
C95 O102 1.240 . S
C95 O103 1.252 . S
C96 O99 1.252 . S
C96 O100 1.260 . S
O97 In91 2.266 . S
O97 C94 1.252 . S
O98 In91 2.326 . S
O98 C94 1.260 . S
O99 In91 2.266 1_556 S
O99 C96 1.252 . S
O100 In91 2.326 1_556 S
O100 C96 1.260 . S
C101 O92 1.240 . S
C101 O93 1.252 1_554 S
O102 In91 2.294 . S
O102 C95 1.240 . S
O103 In91 2.326 . S
O103 C95 1.252 . S
In104 O105 2.294 . S
In104 O106 2.326 . S
In104 O110 2.266 . S
In104 O111 2.326 . S
In104 O112 2.266 . S
In104 O113 2.326 . S
In104 O115 2.294 . S
In104 O116 2.326 . S
O105 In104 2.294 . S
O105 C114 1.240 . S
O106 In104 2.326 . S
O106 C114 1.252 . S
C107 O110 1.252 . S
C107 O111 1.260 . S
C108 O115 1.240 . S
C108 O116 1.252 . S
C109 O112 1.252 . S
C109 O113 1.260 . S
O110 In104 2.266 . S
O110 C107 1.252 . S
O111 In104 2.326 . S
O111 C107 1.260 . S
O112 In104 2.266 . S
O112 C109 1.252 . S
O113 In104 2.326 . S
O113 C109 1.260 . S
C114 O105 1.240 . S
C114 O106 1.252 . S
O115 In104 2.294 . S
O115 C108 1.240 . S
O116 In104 2.326 . S
O116 C108 1.252 . S
In117 O118 2.294 . S
In117 O119 2.326 . S
In117 O123 2.266 . S
In117 O124 2.326 . S
In117 O125 2.266 . S
In117 O126 2.326 . S
In117 O128 2.294 . S
In117 O129 2.326 . S
O118 In117 2.294 . S
O118 C127 1.240 . S
O119 In117 2.326 . S
O119 C127 1.252 . S
C120 O123 1.252 . S
C120 O124 1.260 . S
C121 O128 1.240 . S
C121 O129 1.252 . S
C122 O125 1.252 . S
C122 O126 1.260 . S
O123 In117 2.266 . S
O123 C120 1.252 . S
O124 In117 2.326 . S
O124 C120 1.260 . S
O125 In117 2.266 . S
O125 C122 1.252 . S
O126 In117 2.326 . S
O126 C122 1.260 . S
C127 O118 1.240 . S
C127 O119 1.252 . S
O128 In117 2.294 . S
O128 C121 1.240 . S
O129 In117 2.326 . S
O129 C121 1.252 . S
In130 O131 2.294 . S
In130 O132 2.326 . S
In130 O136 2.266 . S
In130 O137 2.326 . S
In130 O138 2.266 . S
In130 O139 2.326 . S
In130 O141 2.294 . S
In130 O142 2.326 . S
O131 In130 2.294 . S
O131 C140 1.240 . S
O132 In130 2.326 . S
O132 C140 1.252 . S
C133 O136 1.252 . S
C133 O137 1.260 . S
C134 O141 1.240 . S
C134 O142 1.252 . S
C135 O138 1.252 . S
C135 O139 1.260 . S
O136 In130 2.266 . S
O136 C133 1.252 . S
O137 In130 2.326 . S
O137 C133 1.260 . S
O138 In130 2.266 . S
O138 C135 1.252 . S
O139 In130 2.326 . S
O139 C135 1.260 . S
C140 O131 1.240 . S
C140 O132 1.252 . S
O141 In130 2.294 . S
O141 C134 1.240 . S
O142 In130 2.326 . S
O142 C134 1.252 . S
In143 O144 2.294 . S
In143 O145 2.326 . S
In143 O149 2.266 . S
In143 O150 2.326 . S
In143 O151 2.266 . S
In143 O152 2.326 . S
In143 O154 2.294 . S
In143 O155 2.326 . S
O144 In143 2.294 . S
O144 C153 1.240 . S
O145 In143 2.326 . S
O145 C153 1.252 . S
C146 O149 1.252 . S
C146 O150 1.260 . S
C147 O154 1.240 . S
C147 O155 1.252 . S
C148 O151 1.252 . S
C148 O152 1.260 . S
O149 In143 2.266 . S
O149 C146 1.252 . S
O150 In143 2.326 . S
O150 C146 1.260 . S
O151 In143 2.266 . S
O151 C148 1.252 . S
O152 In143 2.326 . S
O152 C148 1.260 . S
C153 O144 1.240 . S
C153 O145 1.252 . S
O154 In143 2.294 . S
O154 C147 1.240 . S
O155 In143 2.326 . S
O155 C147 1.252 . S
H156 C168 0.930 . S
H157 C170 0.930 . S
H158 C171 0.930 . S
H159 C175 0.959 . S
H160 C175 0.959 . S
H161 C175 0.961 . S
H162 C176 0.960 . S
H163 C176 0.961 . S
H164 C176 0.959 . S
H165 C179 0.929 . S
H166 C180 0.931 . S
H167 C182 0.930 . S
C168 H156 0.930 . S
C168 C169 1.399 . S
C168 C173 1.399 . S
C169 C168 1.399 . S
C169 C170 1.376 . S
C170 H157 0.930 . S
C170 C169 1.376 . S
C170 C171 1.388 . S
C171 H158 0.930 . S
C171 C170 1.388 . S
C171 C172 1.390 . S
C172 C171 1.390 . S
C172 C173 1.394 . S
C172 C178 1.465 . S
C173 C168 1.399 . S
C173 C172 1.394 . S
C173 C174 1.516 . S
C174 C173 1.516 . S
C174 C175 1.502 . S
C174 C176 1.561 . S
C174 C177 1.526 . S
C175 H159 0.959 . S
C175 H160 0.959 . S
C175 H161 0.961 . S
C175 C174 1.502 . S
C176 H162 0.960 . S
C176 H163 0.961 . S
C176 H164 0.959 . S
C176 C174 1.561 . S
C177 C174 1.526 . S
C177 C178 1.396 . S
C177 C182 1.390 . S
C178 C172 1.465 . S
C178 C177 1.396 . S
C178 C179 1.399 . S
C179 H165 0.929 . S
C179 C178 1.399 . S
C179 C180 1.385 . S
C180 H166 0.931 . S
C180 C179 1.385 . S
C180 C181 1.389 . S
C181 C180 1.389 . S
C181 C182 1.387 . S
C182 H167 0.930 . S
C182 C177 1.390 . S
C182 C181 1.387 . S
H183 C195 0.930 . S
H184 C197 0.930 . S
H185 C198 0.930 . S
H186 C202 0.959 . S
H187 C202 0.959 . S
H188 C202 0.961 . S
H189 C203 0.960 . S
H190 C203 0.961 . S
H191 C203 0.959 . S
H192 C206 0.929 . S
H193 C207 0.931 . S
H194 C209 0.930 . S
C195 H183 0.930 . S
C195 C196 1.399 . S
C195 C200 1.399 . S
C196 C195 1.399 . S
C196 C197 1.376 . S
C197 H184 0.930 . S
C197 C196 1.376 . S
C197 C198 1.388 . S
C198 H185 0.930 . S
C198 C197 1.388 . S
C198 C199 1.390 . S
C199 C198 1.390 . S
C199 C200 1.394 . S
C199 C205 1.465 . S
C200 C195 1.399 . S
C200 C199 1.394 . S
C200 C201 1.516 . S
C201 C200 1.516 . S
C201 C202 1.502 . S
C201 C203 1.561 . S
C201 C204 1.526 . S
C202 H186 0.959 . S
C202 H187 0.959 . S
C202 H188 0.961 . S
C202 C201 1.502 . S
C203 H189 0.960 . S
C203 H190 0.961 . S
C203 H191 0.959 . S
C203 C201 1.561 . S
C204 C201 1.526 . S
C204 C205 1.396 . S
C204 C209 1.390 . S
C205 C199 1.465 . S
C205 C204 1.396 . S
C205 C206 1.399 . S
C206 H192 0.929 . S
C206 C205 1.399 . S
C206 C207 1.385 . S
C207 H193 0.931 . S
C207 C206 1.385 . S
C207 C208 1.389 . S
C208 C207 1.389 . S
C208 C209 1.387 . S
C209 H194 0.930 . S
C209 C204 1.390 . S
C209 C208 1.387 . S
H210 C222 0.930 . S
H211 C224 0.930 . S
H212 C225 0.930 . S
H213 C229 0.959 . S
H214 C229 0.959 . S
H215 C229 0.961 . S
H216 C230 0.960 . S
H217 C230 0.961 . S
H218 C230 0.959 . S
H219 C233 0.929 . S
H220 C234 0.931 . S
H221 C236 0.930 . S
C222 H210 0.930 . S
C222 C223 1.399 . S
C222 C227 1.399 . S
C223 C222 1.399 . S
C223 C224 1.376 . S
C224 H211 0.930 . S
C224 C223 1.376 . S
C224 C225 1.388 . S
C225 H212 0.930 . S
C225 C224 1.388 . S
C225 C226 1.390 . S
C226 C225 1.390 . S
C226 C227 1.394 . S
C226 C232 1.465 . S
C227 C222 1.399 . S
C227 C226 1.394 . S
C227 C228 1.516 . S
C228 C227 1.516 . S
C228 C229 1.502 . S
C228 C230 1.561 . S
C228 C231 1.526 . S
C229 H213 0.959 . S
C229 H214 0.959 . S
C229 H215 0.961 . S
C229 C228 1.502 . S
C230 H216 0.960 . S
C230 H217 0.961 . S
C230 H218 0.959 . S
C230 C228 1.561 . S
C231 C228 1.526 . S
C231 C232 1.396 . S
C231 C236 1.390 . S
C232 C226 1.465 . S
C232 C231 1.396 . S
C232 C233 1.399 . S
C233 H219 0.929 . S
C233 C232 1.399 . S
C233 C234 1.385 . S
C234 H220 0.931 . S
C234 C233 1.385 . S
C234 C235 1.389 . S
C235 C234 1.389 . S
C235 C236 1.387 . S
C236 H221 0.930 . S
C236 C231 1.390 . S
C236 C235 1.387 . S
H237 C249 0.930 . S
H238 C251 0.930 . S
H239 C252 0.930 . S
H240 C256 0.959 . S
H241 C256 0.959 . S
H242 C256 0.961 . S
H243 C257 0.960 . S
H244 C257 0.961 . S
H245 C257 0.959 . S
H246 C260 0.929 . S
H247 C261 0.931 . S
H248 C263 0.930 . S
C249 H237 0.930 . S
C249 C250 1.399 . S
C249 C254 1.399 . S
C250 C249 1.399 . S
C250 C251 1.376 . S
C251 H238 0.930 . S
C251 C250 1.376 . S
C251 C252 1.388 . S
C252 H239 0.930 . S
C252 C251 1.388 . S
C252 C253 1.390 . S
C253 C252 1.390 . S
C253 C254 1.394 . S
C253 C259 1.465 . S
C254 C249 1.399 . S
C254 C253 1.394 . S
C254 C255 1.516 . S
C255 C254 1.516 . S
C255 C256 1.502 . S
C255 C257 1.561 . S
C255 C258 1.526 . S
C256 H240 0.959 . S
C256 H241 0.959 . S
C256 H242 0.961 . S
C256 C255 1.502 . S
C257 H243 0.960 . S
C257 H244 0.961 . S
C257 H245 0.959 . S
C257 C255 1.561 . S
C258 C255 1.526 . S
C258 C259 1.396 . S
C258 C263 1.390 . S
C259 C253 1.465 . S
C259 C258 1.396 . S
C259 C260 1.399 . S
C260 H246 0.929 . S
C260 C259 1.399 . S
C260 C261 1.385 . S
C261 H247 0.931 . S
C261 C260 1.385 . S
C261 C262 1.389 . S
C262 C261 1.389 . S
C262 C263 1.387 . S
C263 H248 0.930 . S
C263 C258 1.390 . S
C263 C262 1.387 . S
H264 C276 0.930 . S
H265 C278 0.930 . S
H266 C279 0.930 1_554 S
H267 C283 0.959 . S
H268 C283 0.959 . S
H269 C283 0.961 . S
H270 C284 0.960 . S
H271 C284 0.961 . S
H272 C284 0.959 . S
H273 C287 0.929 . S
H274 C288 0.931 . S
H275 C290 0.930 . S
C276 H264 0.930 . S
C276 C277 1.399 . S
C276 C281 1.399 . S
C277 C276 1.399 . S
C277 C278 1.376 . S
C278 H265 0.930 . S
C278 C277 1.376 . S
C278 C279 1.388 . S
C279 H266 0.930 1_556 S
C279 C278 1.388 . S
C279 C280 1.390 . S
C280 C279 1.390 . S
C280 C281 1.394 . S
C280 C286 1.465 1_556 S
C281 C276 1.399 . S
C281 C280 1.394 . S
C281 C282 1.516 . S
C282 C281 1.516 . S
C282 C283 1.502 . S
C282 C284 1.561 . S
C282 C285 1.526 . S
C283 H267 0.959 . S
C283 H268 0.959 . S
C283 H269 0.961 . S
C283 C282 1.502 . S
C284 H270 0.960 . S
C284 H271 0.961 . S
C284 H272 0.959 . S
C284 C282 1.561 . S
C285 C282 1.526 . S
C285 C286 1.396 1_556 S
C285 C290 1.390 1_556 S
C286 C280 1.465 1_554 S
C286 C285 1.396 1_554 S
C286 C287 1.399 . S
C287 H273 0.929 . S
C287 C286 1.399 . S
C287 C288 1.385 . S
C288 H274 0.931 . S
C288 C287 1.385 . S
C288 C289 1.389 . S
C289 C288 1.389 . S
C289 C290 1.387 . S
C290 H275 0.930 . S
C290 C285 1.390 1_554 S
C290 C289 1.387 . S
H291 C303 0.930 . S
H292 C305 0.930 . S
H293 C306 0.930 . S
H294 C310 0.959 . S
H295 C310 0.959 1_556 S
H296 C310 0.961 . S
H297 C311 0.960 . S
H298 C311 0.961 . S
H299 C311 0.959 . S
H300 C314 0.929 . S
H301 C315 0.931 . S
H302 C317 0.939 . S
C303 H291 0.930 . S
C303 C304 1.399 . S
C303 C308 1.399 . S
C304 C303 1.399 . S
C304 C305 1.376 . S
C305 H292 0.930 . S
C305 C304 1.376 . S
C305 C306 1.388 . S
C306 H293 0.930 . S
C306 C305 1.388 . S
C306 C307 1.390 . S
C307 C306 1.390 . S
C307 C308 1.394 . S
C307 C313 1.465 . S
C308 C303 1.399 . S
C308 C307 1.394 . S
C308 C309 1.516 . S
C309 C308 1.516 . S
C309 C310 1.502 . S
C309 C311 1.561 . S
C309 C312 1.526 . S
C310 H294 0.959 . S
C310 H295 0.959 1_554 S
C310 H296 0.961 . S
C310 C309 1.502 . S
C311 H297 0.960 . S
C311 H298 0.961 . S
C311 H299 0.959 . S
C311 C309 1.561 . S
C312 C309 1.526 . S
C312 C313 1.396 . S
C312 C317 1.390 . S
C313 C307 1.465 . S
C313 C312 1.396 . S
C313 C314 1.399 . S
C314 H300 0.929 . S
C314 C313 1.399 . S
C314 C315 1.385 . S
C315 H301 0.931 . S
C315 C314 1.385 . S
C315 C316 1.389 . S
C316 C315 1.389 . S
C316 C317 1.387 . S
C317 H302 0.939 . S
C317 C312 1.390 . S
C317 C316 1.387 . S
H318 C330 0.930 . S
H319 C332 0.930 . S
H320 C333 0.930 . S
H321 C337 0.959 . S
H322 C337 0.959 . S
H323 C337 0.961 1_556 S
H324 C338 0.960 1_556 S
H325 C338 0.961 1_556 S
H326 C338 0.959 . S
H327 C341 0.929 . S
H328 C342 0.931 . S
H329 C344 0.930 . S
C330 H318 0.930 . S
C330 C331 1.399 . S
C330 C335 1.399 . S
C331 C330 1.399 . S
C331 C332 1.376 . S
C332 H319 0.930 . S
C332 C331 1.376 . S
C332 C333 1.388 . S
C333 H320 0.930 . S
C333 C332 1.388 . S
C333 C334 1.390 . S
C334 C333 1.390 . S
C334 C335 1.394 . S
C334 C340 1.465 . S
C335 C330 1.399 . S
C335 C334 1.394 . S
C335 C336 1.516 . S
C336 C335 1.516 . S
C336 C337 1.502 . S
C336 C338 1.561 . S
C336 C339 1.526 . S
C337 H321 0.959 . S
C337 H322 0.959 . S
C337 H323 0.961 1_554 S
C337 C336 1.502 . S
C338 H324 0.960 1_554 S
C338 H325 0.961 1_554 S
C338 H326 0.959 . S
C338 C336 1.561 . S
C339 C336 1.526 . S
C339 C340 1.396 . S
C339 C344 1.390 . S
C340 C334 1.465 . S
C340 C339 1.396 . S
C340 C341 1.399 . S
C341 H327 0.929 . S
C341 C340 1.399 . S
C341 C342 1.385 . S
C342 H328 0.931 . S
C342 C341 1.385 . S
C342 C343 1.389 . S
C343 C342 1.389 . S
C343 C344 1.387 . S
C344 H329 0.930 . S
C344 C339 1.390 . S
C344 C343 1.387 . S
H345 C357 0.930 . S
H346 C359 0.930 . S
H347 C360 0.930 . S
H348 C364 0.959 . S
H349 C364 0.959 . S
H350 C364 0.961 . S
H351 C365 0.960 . S
H352 C365 0.961 . S
H353 C365 0.959 . S
H354 C368 0.929 . S
H355 C369 0.931 . S
H356 C371 0.930 . S
C357 H345 0.930 . S
C357 C358 1.399 . S
C357 C362 1.399 . S
C358 C357 1.399 . S
C358 C359 1.376 . S
C359 H346 0.930 . S
C359 C358 1.376 . S
C359 C360 1.388 . S
C360 H347 0.930 . S
C360 C359 1.388 . S
C360 C361 1.390 . S
C361 C360 1.390 . S
C361 C362 1.394 . S
C361 C367 1.465 . S
C362 C357 1.399 . S
C362 C361 1.394 . S
C362 C363 1.516 . S
C363 C362 1.516 . S
C363 C364 1.502 . S
C363 C365 1.561 . S
C363 C366 1.526 . S
C364 H348 0.959 . S
C364 H349 0.959 . S
C364 H350 0.961 . S
C364 C363 1.502 . S
C365 H351 0.960 . S
C365 H352 0.961 . S
C365 H353 0.959 . S
C365 C363 1.561 . S
C366 C363 1.526 . S
C366 C367 1.396 . S
C366 C371 1.390 . S
C367 C361 1.465 . S
C367 C366 1.396 . S
C367 C368 1.399 . S
C368 H354 0.929 . S
C368 C367 1.399 . S
C368 C369 1.385 . S
C369 H355 0.931 . S
C369 C368 1.385 . S
C369 C370 1.389 . S
C370 C369 1.389 . S
C370 C371 1.387 . S
C371 H356 0.930 . S
C371 C366 1.390 . S
C371 C370 1.387 . S
H372 C384 0.930 . S
H373 C386 0.930 . S
H374 C387 0.930 . S
H375 C391 0.959 . S
H376 C391 0.959 . S
H377 C391 0.961 . S
H378 C392 0.960 . S
H379 C392 0.961 . S
H380 C392 0.959 . S
H381 C395 0.929 . S
H382 C396 0.931 . S
H383 C398 0.930 . S
C384 H372 0.930 . S
C384 C385 1.399 . S
C384 C389 1.399 . S
C385 C384 1.399 . S
C385 C386 1.376 . S
C386 H373 0.930 . S
C386 C385 1.376 . S
C386 C387 1.388 . S
C387 H374 0.930 . S
C387 C386 1.388 . S
C387 C388 1.390 . S
C388 C387 1.390 . S
C388 C389 1.394 . S
C388 C394 1.465 . S
C389 C384 1.399 . S
C389 C388 1.394 . S
C389 C390 1.516 . S
C390 C389 1.516 . S
C390 C391 1.502 . S
C390 C392 1.561 . S
C390 C393 1.526 . S
C391 H375 0.959 . S
C391 H376 0.959 . S
C391 H377 0.961 . S
C391 C390 1.502 . S
C392 H378 0.960 . S
C392 H379 0.961 . S
C392 H380 0.959 . S
C392 C390 1.561 . S
C393 C390 1.526 . S
C393 C394 1.396 . S
C393 C398 1.390 . S
C394 C388 1.465 . S
C394 C393 1.396 . S
C394 C395 1.399 . S
C395 H381 0.929 . S
C395 C394 1.399 . S
C395 C396 1.385 . S
C396 H382 0.931 . S
C396 C395 1.385 . S
C396 C397 1.389 . S
C397 C396 1.389 . S
C397 C398 1.387 . S
C398 H383 0.930 . S
C398 C393 1.390 . S
C398 C397 1.387 . S
H399 C411 0.930 . S
H400 C413 0.930 . S
H401 C414 0.930 . S
H402 C418 0.959 . S
H403 C418 0.959 . S
H404 C418 0.961 . S
H405 C419 0.960 . S
H406 C419 0.961 . S
H407 C419 0.959 . S
H408 C422 0.929 . S
H409 C423 0.931 . S
H410 C425 0.930 . S
C411 H399 0.930 . S
C411 C412 1.399 . S
C411 C416 1.399 . S
C412 C411 1.399 . S
C412 C413 1.376 . S
C413 H400 0.930 . S
C413 C412 1.376 . S
C413 C414 1.388 . S
C414 H401 0.930 . S
C414 C413 1.388 . S
C414 C415 1.390 . S
C415 C414 1.390 . S
C415 C416 1.394 . S
C415 C421 1.465 . S
C416 C411 1.399 . S
C416 C415 1.394 . S
C416 C417 1.516 . S
C417 C416 1.516 . S
C417 C418 1.502 . S
C417 C419 1.561 . S
C417 C420 1.526 . S
C418 H402 0.959 . S
C418 H403 0.959 . S
C418 H404 0.961 . S
C418 C417 1.502 . S
C419 H405 0.960 . S
C419 H406 0.961 . S
C419 H407 0.959 . S
C419 C417 1.561 . S
C420 C417 1.526 . S
C420 C421 1.396 . S
C420 C425 1.390 . S
C421 C415 1.465 . S
C421 C420 1.396 . S
C421 C422 1.399 . S
C422 H408 0.929 . S
C422 C421 1.399 . S
C422 C423 1.385 . S
C423 H409 0.931 . S
C423 C422 1.385 . S
C423 C424 1.389 . S
C424 C423 1.389 . S
C424 C425 1.387 . S
C425 H410 0.930 . S
C425 C420 1.390 . S
C425 C424 1.387 . S
H426 C438 0.930 . S
H427 C440 0.930 . S
H428 C441 0.930 . S
H429 C445 0.959 . S
H430 C445 0.959 . S
H431 C445 0.961 . S
H432 C446 0.960 . S
H433 C446 0.961 . S
H434 C446 0.959 . S
H435 C449 0.929 . S
H436 C450 0.931 . S
H437 C452 0.930 . S
C438 H426 0.930 . S
C438 C439 1.399 . S
C438 C443 1.399 . S
C439 C438 1.399 . S
C439 C440 1.376 . S
C440 H427 0.930 . S
C440 C439 1.376 . S
C440 C441 1.388 . S
C441 H428 0.930 . S
C441 C440 1.388 . S
C441 C442 1.390 . S
C442 C441 1.390 . S
C442 C443 1.394 . S
C442 C448 1.465 . S
C443 C438 1.399 . S
C443 C442 1.394 . S
C443 C444 1.516 . S
C444 C443 1.516 . S
C444 C445 1.502 . S
C444 C446 1.561 . S
C444 C447 1.526 . S
C445 H429 0.959 . S
C445 H430 0.959 . S
C445 H431 0.961 . S
C445 C444 1.502 . S
C446 H432 0.960 . S
C446 H433 0.961 . S
C446 H434 0.959 . S
C446 C444 1.561 . S
C447 C444 1.526 . S
C447 C448 1.396 . S
C447 C452 1.390 . S
C448 C442 1.465 . S
C448 C447 1.396 . S
C448 C449 1.399 . S
C449 H435 0.929 . S
C449 C448 1.399 . S
C449 C450 1.385 . S
C450 H436 0.931 . S
C450 C449 1.385 . S
C450 C451 1.389 . S
C451 C450 1.389 . S
C451 C452 1.387 . S
C452 H437 0.930 . S
C452 C447 1.390 . S
C452 C451 1.387 . S
H453 C465 0.930 . S
H454 C467 0.930 . S
H455 C468 0.930 . S
H456 C472 0.959 . S
H457 C472 0.959 . S
H458 C472 0.961 . S
H459 C473 0.960 . S
H460 C473 0.961 . S
H461 C473 0.959 . S
H462 C476 0.929 . S
H463 C477 0.931 . S
H464 C479 0.930 . S
C465 H453 0.930 . S
C465 C466 1.399 . S
C465 C470 1.399 . S
C466 C465 1.399 . S
C466 C467 1.376 1_556 S
C467 H454 0.930 . S
C467 C466 1.376 1_554 S
C467 C468 1.388 . S
C468 H455 0.930 . S
C468 C467 1.388 . S
C468 C469 1.390 1_554 S
C469 C468 1.390 1_556 S
C469 C470 1.394 . S
C469 C475 1.465 1_556 S
C470 C465 1.399 . S
C470 C469 1.394 . S
C470 C471 1.516 . S
C471 C470 1.516 . S
C471 C472 1.502 . S
C471 C473 1.561 . S
C471 C474 1.526 . S
C472 H456 0.959 . S
C472 H457 0.959 . S
C472 H458 0.961 . S
C472 C471 1.502 . S
C473 H459 0.960 . S
C473 H460 0.961 . S
C473 H461 0.959 . S
C473 C471 1.561 . S
C474 C471 1.526 . S
C474 C475 1.396 1_556 S
C474 C479 1.390 . S
C475 C469 1.465 1_554 S
C475 C474 1.396 1_554 S
C475 C476 1.399 . S
C476 H462 0.929 . S
C476 C475 1.399 . S
C476 C477 1.385 . S
C477 H463 0.931 . S
C477 C476 1.385 . S
C477 C478 1.389 . S
C478 C477 1.389 . S
C478 C479 1.387 1_554 S
C479 H464 0.930 . S
C479 C474 1.390 . S
C479 C478 1.387 1_556 S
H480 C492 0.930 . S
H481 C494 0.930 . S
H482 C495 0.930 . S
H483 C499 0.959 . S
H484 C499 0.959 . S
H485 C499 0.961 . S
H486 C500 0.960 . S
H487 C500 0.961 . S
H488 C500 0.959 . S
H489 C503 0.929 . S
H490 C504 0.931 . S
H491 C506 0.930 . S
C492 H480 0.930 . S
C492 C493 1.399 . S
C492 C497 1.399 . S
C493 C492 1.399 . S
C493 C494 1.376 . S
C494 H481 0.930 . S
C494 C493 1.376 . S
C494 C495 1.388 . S
C495 H482 0.930 . S
C495 C494 1.388 . S
C495 C496 1.390 . S
C496 C495 1.390 . S
C496 C497 1.394 . S
C496 C502 1.465 . S
C497 C492 1.399 . S
C497 C496 1.394 . S
C497 C498 1.516 . S
C498 C497 1.516 . S
C498 C499 1.502 . S
C498 C500 1.561 . S
C498 C501 1.526 . S
C499 H483 0.959 . S
C499 H484 0.959 . S
C499 H485 0.961 . S
C499 C498 1.502 . S
C500 H486 0.960 . S
C500 H487 0.961 . S
C500 H488 0.959 . S
C500 C498 1.561 . S
C501 C498 1.526 . S
C501 C502 1.396 . S
C501 C506 1.390 . S
C502 C496 1.465 . S
C502 C501 1.396 . S
C502 C503 1.399 . S
C503 H489 0.929 . S
C503 C502 1.399 . S
C503 C504 1.385 . S
C504 H490 0.931 . S
C504 C503 1.385 . S
C504 C505 1.389 . S
C505 C504 1.389 . S
C505 C506 1.387 . S
C506 H491 0.930 . S
C506 C501 1.390 . S
C506 C505 1.387 . S
H507 C519 0.930 . S
H508 C521 0.930 . S
H509 C522 0.930 . S
H510 C526 0.959 . S
H511 C526 0.959 . S
H512 C526 0.961 . S
H513 C527 0.960 . S
H514 C527 0.961 . S
H515 C527 0.959 . S
H516 C530 0.929 . S
H517 C531 0.931 . S
H518 C533 0.930 . S
C519 H507 0.930 . S
C519 C520 1.399 . S
C519 C524 1.399 . S
C520 C519 1.399 . S
C520 C521 1.376 . S
C521 H508 0.930 . S
C521 C520 1.376 . S
C521 C522 1.388 1_554 S
C522 H509 0.930 . S
C522 C521 1.388 1_556 S
C522 C523 1.390 . S
C523 C522 1.390 . S
C523 C524 1.394 1_556 S
C523 C529 1.465 . S
C524 C519 1.399 . S
C524 C523 1.394 1_554 S
C524 C525 1.516 . S
C525 C524 1.516 . S
C525 C526 1.502 . S
C525 C527 1.561 . S
C525 C528 1.526 1_554 S
C526 H510 0.959 . S
C526 H511 0.959 . S
C526 H512 0.961 . S
C526 C525 1.502 . S
C527 H513 0.960 . S
C527 H514 0.961 . S
C527 H515 0.959 . S
C527 C525 1.561 . S
C528 C525 1.526 1_556 S
C528 C529 1.396 . S
C528 C533 1.390 . S
C529 C523 1.465 . S
C529 C528 1.396 . S
C529 C530 1.399 . S
C530 H516 0.929 . S
C530 C529 1.399 . S
C530 C531 1.385 . S
C531 H517 0.931 . S
C531 C530 1.385 . S
C531 C532 1.389 . S
C532 C531 1.389 . S
C532 C533 1.387 . S
C533 H518 0.930 . S
C533 C528 1.390 . S
C533 C532 1.387 . S
H534 C546 0.930 . S
H535 C548 0.930 . S
H536 C549 0.930 . S
H537 C553 0.959 . S
H538 C553 0.959 . S
H539 C553 0.961 . S
H540 C554 0.960 . S
H541 C554 0.961 . S
H542 C554 0.959 . S
H543 C557 0.929 . S
H544 C558 0.931 . S
H545 C560 0.930 . S
C546 H534 0.930 . S
C546 C547 1.399 . S
C546 C551 1.399 . S
C547 C546 1.399 . S
C547 C548 1.376 . S
C548 H535 0.930 . S
C548 C547 1.376 . S
C548 C549 1.388 . S
C549 H536 0.930 . S
C549 C548 1.388 . S
C549 C550 1.390 . S
C550 C549 1.390 . S
C550 C551 1.394 . S
C550 C556 1.465 . S
C551 C546 1.399 . S
C551 C550 1.394 . S
C551 C552 1.516 . S
C552 C551 1.516 . S
C552 C553 1.502 . S
C552 C554 1.561 . S
C552 C555 1.526 . S
C553 H537 0.959 . S
C553 H538 0.959 . S
C553 H539 0.961 . S
C553 C552 1.502 . S
C554 H540 0.960 . S
C554 H541 0.961 . S
C554 H542 0.959 . S
C554 C552 1.561 . S
C555 C552 1.526 . S
C555 C556 1.396 . S
C555 C560 1.390 . S
C556 C550 1.465 . S
C556 C555 1.396 . S
C556 C557 1.399 . S
C557 H543 0.929 . S
C557 C556 1.399 . S
C557 C558 1.385 1_554 S
C558 H544 0.931 . S
C558 C557 1.385 1_556 S
C558 C559 1.389 1_556 S
C559 C558 1.389 1_554 S
C559 C560 1.387 . S
C560 H545 0.930 . S
C560 C555 1.390 . S
C560 C559 1.387 . S
H561 C573 0.930 . S
H562 C575 0.930 . S
H563 C576 0.930 . S
H564 C580 0.959 . S
H565 C580 0.959 . S
H566 C580 0.961 . S
H567 C581 0.960 . S
H568 C581 0.961 . S
H569 C581 0.959 . S
H570 C584 0.929 . S
H571 C585 0.931 . S
H572 C587 0.930 . S
C573 H561 0.930 . S
C573 C574 1.399 . S
C573 C578 1.399 . S
C574 C573 1.399 . S
C574 C575 1.376 . S
C575 H562 0.930 . S
C575 C574 1.376 . S
C575 C576 1.388 . S
C576 H563 0.930 . S
C576 C575 1.388 . S
C576 C577 1.390 . S
C577 C576 1.390 . S
C577 C578 1.394 . S
C577 C583 1.465 . S
C578 C573 1.399 . S
C578 C577 1.394 . S
C578 C579 1.516 . S
C579 C578 1.516 . S
C579 C580 1.502 . S
C579 C581 1.561 . S
C579 C582 1.526 . S
C580 H564 0.959 . S
C580 H565 0.959 . S
C580 H566 0.961 . S
C580 C579 1.502 . S
C581 H567 0.960 . S
C581 H568 0.961 . S
C581 H569 0.959 . S
C581 C579 1.561 . S
C582 C579 1.526 . S
C582 C583 1.396 . S
C582 C587 1.390 . S
C583 C577 1.465 . S
C583 C582 1.396 . S
C583 C584 1.399 . S
C584 H570 0.929 . S
C584 C583 1.399 . S
C584 C585 1.385 . S
C585 H571 0.931 . S
C585 C584 1.385 . S
C585 C586 1.389 . S
C586 C585 1.389 . S
C586 C587 1.387 . S
C587 H572 0.930 . S
C587 C582 1.390 . S
C587 C586 1.387 . S
H588 C600 0.930 . S
H589 C602 0.930 . S
H590 C603 0.930 . S
H591 C607 0.959 . S
H592 C607 0.959 . S
H593 C607 0.961 . S
H594 C608 0.960 . S
H595 C608 0.961 . S
H596 C608 0.959 . S
H597 C611 0.929 . S
H598 C612 0.931 . S
H599 C614 0.930 . S
C600 H588 0.930 . S
C600 C601 1.399 . S
C600 C605 1.399 . S
C601 C600 1.399 . S
C601 C602 1.376 . S
C602 H589 0.930 . S
C602 C601 1.376 . S
C602 C603 1.388 . S
C603 H590 0.930 . S
C603 C602 1.388 . S
C603 C604 1.390 . S
C604 C603 1.390 . S
C604 C605 1.394 . S
C604 C610 1.465 . S
C605 C600 1.399 . S
C605 C604 1.394 . S
C605 C606 1.516 . S
C606 C605 1.516 . S
C606 C607 1.502 . S
C606 C608 1.561 . S
C606 C609 1.526 . S
C607 H591 0.959 . S
C607 H592 0.959 . S
C607 H593 0.961 . S
C607 C606 1.502 . S
C608 H594 0.960 . S
C608 H595 0.961 . S
C608 H596 0.959 . S
C608 C606 1.561 . S
C609 C606 1.526 . S
C609 C610 1.396 . S
C609 C614 1.390 . S
C610 C604 1.465 . S
C610 C609 1.396 . S
C610 C611 1.399 . S
C611 H597 0.929 . S
C611 C610 1.399 . S
C611 C612 1.385 . S
C612 H598 0.931 . S
C612 C611 1.385 . S
C612 C613 1.389 . S
C613 C612 1.389 . S
C613 C614 1.387 . S
C614 H599 0.930 . S
C614 C609 1.390 . S
C614 C613 1.387 . S
H615 C627 0.930 . S
H616 C629 0.930 . S
H617 C630 0.930 . S
H618 C634 0.959 . S
H619 C634 0.959 . S
H620 C634 0.961 . S
H621 C635 0.960 . S
H622 C635 0.961 . S
H623 C635 0.959 . S
H624 C638 0.929 . S
H625 C639 0.931 . S
H626 C641 0.930 . S
C627 H615 0.930 . S
C627 C628 1.399 . S
C627 C632 1.399 . S
C628 C627 1.399 . S
C628 C629 1.376 . S
C629 H616 0.930 . S
C629 C628 1.376 . S
C629 C630 1.388 . S
C630 H617 0.930 . S
C630 C629 1.388 . S
C630 C631 1.390 . S
C631 C630 1.390 . S
C631 C632 1.394 . S
C631 C637 1.465 . S
C632 C627 1.399 . S
C632 C631 1.394 . S
C632 C633 1.516 . S
C633 C632 1.516 . S
C633 C634 1.502 . S
C633 C635 1.561 . S
C633 C636 1.526 . S
C634 H618 0.959 . S
C634 H619 0.959 . S
C634 H620 0.961 . S
C634 C633 1.502 . S
C635 H621 0.960 . S
C635 H622 0.961 . S
C635 H623 0.959 . S
C635 C633 1.561 . S
C636 C633 1.526 . S
C636 C637 1.396 . S
C636 C641 1.390 . S
C637 C631 1.465 . S
C637 C636 1.396 . S
C637 C638 1.399 . S
C638 H624 0.929 . S
C638 C637 1.399 . S
C638 C639 1.385 . S
C639 H625 0.931 . S
C639 C638 1.385 . S
C639 C640 1.389 . S
C640 C639 1.389 . S
C640 C641 1.387 . S
C641 H626 0.930 . S
C641 C636 1.390 . S
C641 C640 1.387 . S
H642 C654 0.930 1_554 S
H643 C656 0.930 . S
H644 C657 0.930 . S
H645 C661 0.959 . S
H646 C661 0.959 . S
H647 C661 0.961 . S
H648 C662 0.960 . S
H649 C662 0.961 . S
H650 C662 0.959 . S
H651 C665 0.929 . S
H652 C666 0.931 . S
H653 C668 0.930 . S
C654 H642 0.930 1_556 S
C654 C655 1.399 . S
C654 C659 1.399 . S
C655 C654 1.399 . S
C655 C656 1.376 . S
C656 H643 0.930 . S
C656 C655 1.376 . S
C656 C657 1.388 . S
C657 H644 0.930 . S
C657 C656 1.388 . S
C657 C658 1.390 . S
C658 C657 1.390 . S
C658 C659 1.394 . S
C658 C664 1.465 1_455 S
C659 C654 1.399 . S
C659 C658 1.394 . S
C659 C660 1.516 1_455 S
C660 C659 1.516 1_655 S
C660 C661 1.502 . S
C660 C662 1.561 1_556 S
C660 C663 1.526 . S
C661 H645 0.959 . S
C661 H646 0.959 . S
C661 H647 0.961 . S
C661 C660 1.502 . S
C662 H648 0.960 . S
C662 H649 0.961 . S
C662 H650 0.959 . S
C662 C660 1.561 1_554 S
C663 C660 1.526 . S
C663 C664 1.396 . S
C663 C668 1.390 . S
C664 C658 1.465 1_655 S
C664 C663 1.396 . S
C664 C665 1.399 . S
C665 H651 0.929 . S
C665 C664 1.399 . S
C665 C666 1.385 . S
C666 H652 0.931 . S
C666 C665 1.385 . S
C666 C667 1.389 . S
C667 C666 1.389 . S
C667 C668 1.387 . S
C668 H653 0.930 . S
C668 C663 1.390 . S
C668 C667 1.387 . S
H669 C681 0.930 . S
H670 C683 0.930 . S
H671 C684 0.936 . S
H672 C688 0.959 . S
H673 C688 0.959 . S
H674 C688 0.961 . S
H675 C689 0.960 . S
H676 C689 0.961 . S
H677 C689 0.959 . S
H678 C692 0.929 . S
H679 C693 0.931 . S
H680 C695 0.930 . S
C681 H669 0.930 . S
C681 C682 1.399 1_554 S
C681 C686 1.399 . S
C682 C681 1.399 1_556 S
C682 C683 1.376 . S
C683 H670 0.930 . S
C683 C682 1.376 . S
C683 C684 1.388 . S
C684 H671 0.936 . S
C684 C683 1.388 . S
C684 C685 1.390 1_556 S
C685 C684 1.390 1_554 S
C685 C686 1.394 . S
C685 C691 1.465 1_565 S
C686 C681 1.399 . S
C686 C685 1.394 . S
C686 C687 1.516 . S
C687 C686 1.516 . S
C687 C688 1.502 . S
C687 C689 1.561 . S
C687 C690 1.526 1_565 S
C688 H672 0.959 . S
C688 H673 0.959 . S
C688 H674 0.961 . S
C688 C687 1.502 . S
C689 H675 0.960 . S
C689 H676 0.961 . S
C689 H677 0.959 . S
C689 C687 1.561 . S
C690 C687 1.526 1_545 S
C690 C691 1.396 . S
C690 C695 1.390 . S
C691 C685 1.465 1_545 S
C691 C690 1.396 . S
C691 C692 1.399 . S
C692 H678 0.929 . S
C692 C691 1.399 . S
C692 C693 1.385 . S
C693 H679 0.931 . S
C693 C692 1.385 . S
C693 C694 1.389 . S
C694 C693 1.389 . S
C694 C695 1.387 . S
C695 H680 0.930 . S
C695 C690 1.390 . S
C695 C694 1.387 . S
H696 C708 0.930 . S
H697 C710 0.930 . S
H698 C711 0.930 . S
H699 C715 0.959 . S
H700 C715 0.959 . S
H701 C715 0.961 . S
H702 C716 0.960 . S
H703 C716 0.961 . S
H704 C716 0.959 . S
H705 C719 0.929 . S
H706 C720 0.931 . S
H707 C722 0.930 . S
C708 H696 0.930 . S
C708 C709 1.399 . S
C708 C713 1.399 . S
C709 C708 1.399 . S
C709 C710 1.376 . S
C710 H697 0.930 . S
C710 C709 1.376 . S
C710 C711 1.388 . S
C711 H698 0.930 . S
C711 C710 1.388 . S
C711 C712 1.390 . S
C712 C711 1.390 . S
C712 C713 1.394 . S
C712 C718 1.465 . S
C713 C708 1.399 . S
C713 C712 1.394 . S
C713 C714 1.516 . S
C714 C713 1.516 . S
C714 C715 1.502 . S
C714 C716 1.561 . S
C714 C717 1.526 . S
C715 H699 0.959 . S
C715 H700 0.959 . S
C715 H701 0.961 . S
C715 C714 1.502 . S
C716 H702 0.960 . S
C716 H703 0.961 . S
C716 H704 0.959 . S
C716 C714 1.561 . S
C717 C714 1.526 . S
C717 C718 1.396 . S
C717 C722 1.390 . S
C718 C712 1.465 . S
C718 C717 1.396 . S
C718 C719 1.399 . S
C719 H705 0.929 . S
C719 C718 1.399 . S
C719 C720 1.385 . S
C720 H706 0.931 . S
C720 C719 1.385 . S
C720 C721 1.389 . S
C721 C720 1.389 . S
C721 C722 1.387 . S
C722 H707 0.930 . S
C722 C717 1.390 . S
C722 C721 1.387 . S
H723 C735 0.930 . S
H724 C737 0.930 . S
H725 C738 0.930 . S
H726 C742 0.959 . S
H727 C742 0.959 . S
H728 C742 0.961 . S
H729 C743 0.960 1_455 S
H730 C743 0.961 . S
H731 C743 0.959 . S
H732 C746 0.929 . S
H733 C747 0.931 . S
H734 C749 0.930 . S
C735 H723 0.930 . S
C735 C736 1.399 . S
C735 C740 1.399 . S
C736 C735 1.399 . S
C736 C737 1.376 . S
C737 H724 0.930 . S
C737 C736 1.376 . S
C737 C738 1.388 . S
C738 H725 0.930 . S
C738 C737 1.388 . S
C738 C739 1.390 . S
C739 C738 1.390 . S
C739 C740 1.394 . S
C739 C745 1.465 1_455 S
C740 C735 1.399 . S
C740 C739 1.394 . S
C740 C741 1.516 . S
C741 C740 1.516 . S
C741 C742 1.502 . S
C741 C743 1.561 1_455 S
C741 C744 1.526 1_455 S
C742 H726 0.959 . S
C742 H727 0.959 . S
C742 H728 0.961 . S
C742 C741 1.502 . S
C743 H729 0.960 1_655 S
C743 H730 0.961 . S
C743 H731 0.959 . S
C743 C741 1.561 1_655 S
C744 C741 1.526 1_655 S
C744 C745 1.396 . S
C744 C749 1.390 . S
C745 C739 1.465 1_655 S
C745 C744 1.396 . S
C745 C746 1.399 . S
C746 H732 0.929 . S
C746 C745 1.399 . S
C746 C747 1.385 . S
C747 H733 0.931 . S
C747 C746 1.385 . S
C747 C748 1.389 . S
C748 C747 1.389 . S
C748 C749 1.387 . S
C749 H734 0.930 . S
C749 C744 1.390 . S
C749 C748 1.387 . S
H750 C762 0.930 . S
H751 C764 0.930 . S
H752 C765 0.930 . S
H753 C769 0.959 . S
H754 C769 0.959 . S
H755 C769 0.961 . S
H756 C770 0.960 . S
H757 C770 0.961 . S
H758 C770 0.959 . S
H759 C773 0.929 1_545 S
H760 C774 0.931 . S
H761 C776 0.930 . S
C762 H750 0.930 . S
C762 C763 1.399 . S
C762 C767 1.399 . S
C763 C762 1.399 . S
C763 C764 1.376 . S
C764 H751 0.930 . S
C764 C763 1.376 . S
C764 C765 1.388 . S
C765 H752 0.930 . S
C765 C764 1.388 . S
C765 C766 1.390 . S
C766 C765 1.390 . S
C766 C767 1.394 . S
C766 C772 1.465 1_545 S
C767 C762 1.399 . S
C767 C766 1.394 . S
C767 C768 1.516 1_545 S
C768 C767 1.516 1_565 S
C768 C769 1.502 . S
C768 C770 1.561 . S
C768 C771 1.526 . S
C769 H753 0.959 . S
C769 H754 0.959 . S
C769 H755 0.961 . S
C769 C768 1.502 . S
C770 H756 0.960 . S
C770 H757 0.961 . S
C770 H758 0.959 . S
C770 C768 1.561 . S
C771 C768 1.526 . S
C771 C772 1.396 . S
C771 C776 1.390 . S
C772 C766 1.465 1_565 S
C772 C771 1.396 . S
C772 C773 1.399 . S
C773 H759 0.929 1_565 S
C773 C772 1.399 . S
C773 C774 1.385 . S
C774 H760 0.931 . S
C774 C773 1.385 . S
C774 C775 1.389 . S
C775 C774 1.389 . S
C775 C776 1.387 . S
C776 H761 0.930 . S
C776 C771 1.390 . S
C776 C775 1.387 . S
H777 C789 0.930 . S
H778 C791 0.930 . S
H779 C792 0.930 . S
H780 C796 0.959 . S
H781 C796 0.959 . S
H782 C796 0.961 . S
H783 C797 0.960 . S
H784 C797 0.961 . S
H785 C797 0.959 . S
H786 C800 0.929 . S
H787 C801 0.931 . S
H788 C803 0.930 . S
C789 H777 0.930 . S
C789 C790 1.399 . S
C789 C794 1.399 . S
C790 C789 1.399 . S
C790 C791 1.376 . S
C791 H778 0.930 . S
C791 C790 1.376 . S
C791 C792 1.388 . S
C792 H779 0.930 . S
C792 C791 1.388 . S
C792 C793 1.390 . S
C793 C792 1.390 . S
C793 C794 1.394 . S
C793 C799 1.465 . S
C794 C789 1.399 . S
C794 C793 1.394 . S
C794 C795 1.516 . S
C795 C794 1.516 . S
C795 C796 1.502 . S
C795 C797 1.561 . S
C795 C798 1.526 . S
C796 H780 0.959 . S
C796 H781 0.959 . S
C796 H782 0.961 . S
C796 C795 1.502 . S
C797 H783 0.960 . S
C797 H784 0.961 . S
C797 H785 0.959 . S
C797 C795 1.561 . S
C798 C795 1.526 . S
C798 C799 1.396 . S
C798 C803 1.390 . S
C799 C793 1.465 . S
C799 C798 1.396 . S
C799 C800 1.399 . S
C800 H786 0.929 . S
C800 C799 1.399 . S
C800 C801 1.385 . S
C801 H787 0.931 . S
C801 C800 1.385 . S
C801 C802 1.389 . S
C802 C801 1.389 . S
C802 C803 1.387 . S
C803 H788 0.930 . S
C803 C798 1.390 . S
C803 C802 1.387 . S
C169 C3 1.474 . S
C181 C135 1.490 . S
C196 C148 1.499 . S
C208 C16 1.510 . S
C223 C29 1.500 . S
C235 C83 1.510 . S
C250 C44 1.474 . S
C262 C96 1.493 . S
C277 C57 1.488 . S
C289 C107 1.475 . S
C304 C122 1.476 . S
C316 C68 1.500 1_554 S
C331 C4 1.749 . S
C343 C108 1.735 . S
C358 C17 1.739 . S
C370 C127 1.731 . S
C385 C140 1.749 . S
C397 C30 1.738 . S
C412 C49 1.730 . S
C424 C153 1.741 . S
C439 C62 1.739 . S
C451 C88 1.732 . S
C466 C69 1.749 . S
C478 C101 1.736 . S
C493 C133 1.466 . S
C505 C5 1.463 . S
C520 C18 1.475 . S
C532 C146 1.471 . S
C547 C31 1.470 . S
C559 C81 1.465 1_554 S
C574 C42 1.464 . S
C586 C94 1.463 . S
C601 C109 1.462 . S
C613 C55 1.466 . S
C628 C70 1.473 . S
C640 C120 1.476 . S
C655 C10 1.388 1_556 S
C667 C147 1.404 . S
C682 C82 1.414 . S
C694 C23 1.393 . S
C709 C95 1.384 . S
C721 C36 1.411 . S
C736 C114 1.408 . S
C748 C43 1.386 . S
C763 C121 1.383 . S
C775 C56 1.412 . S
C790 C134 1.385 . S
C802 C75 1.417 . S
