# Generated by pormake.
# Topology unj, (4)-cn, num edge types: 1
# Building blocks:
#     Node 0, Type 0, BuildingBlock: ICAMEG_clean_sbu_1, # of connection points: 4
#     Node 1, Type 0, BuildingBlock: ICAMEG_clean_sbu_1, # of connection points: 4
#     Node 2, Type 0, BuildingBlock: ICAMEG_clean_sbu_1, # of connection points: 4
#     Node 3, Type 0, BuildingBlock: ICAMEG_clean_sbu_1, # of connection points: 4
#     Node 4, Type 0, BuildingBlock: ICAMEG_clean_sbu_1, # of connection points: 4
#     Node 5, Type 0, BuildingBlock: ICAMEG_clean_sbu_1, # of connection points: 4
#     Edge 6, Type (0, 0), BuildingBlock: EZIPEK_clean_linker_0, # of connection points: 2
#     Edge 7, Type (0, 0), BuildingBlock: EZIPEK_clean_linker_0, # of connection points: 2
#     Edge 8, Type (0, 0), BuildingBlock: EZIPEK_clean_linker_0, # of connection points: 2
#     Edge 9, Type (0, 0), BuildingBlock: EZIPEK_clean_linker_0, # of connection points: 2
#     Edge 10, Type (0, 0), BuildingBlock: EZIPEK_clean_linker_0, # of connection points: 2
#     Edge 11, Type (0, 0), BuildingBlock: EZIPEK_clean_linker_0, # of connection points: 2
#     Edge 12, Type (0, 0), BuildingBlock: EZIPEK_clean_linker_0, # of connection points: 2
#     Edge 13, Type (0, 0), BuildingBlock: EZIPEK_clean_linker_0, # of connection points: 2
#     Edge 14, Type (0, 0), BuildingBlock: EZIPEK_clean_linker_0, # of connection points: 2
#     Edge 15, Type (0, 0), BuildingBlock: EZIPEK_clean_linker_0, # of connection points: 2
#     Edge 16, Type (0, 0), BuildingBlock: EZIPEK_clean_linker_0, # of connection points: 2
#     Edge 17, Type (0, 0), BuildingBlock: EZIPEK_clean_linker_0, # of connection points: 2
# Relax obj value: 0.090
# Max RMSD: 0.191
# Mean RMSD: 0.155
data_MOF--net-unj--node1-ICAMEG_clean_sbu_1--edge1-EZIPEK_clean_linker_0
_symmetry_space_group_name_H-M    P1
_symmetry_Int_Tables_number       1
_symmetry_cell_setting            triclinic
loop_
_symmetry_equiv_pos_as_xyz
'x, y, z'
_cell_length_a     23.552939
_cell_length_b     26.280388
_cell_length_c     29.182933
_cell_angle_alpha  90.145811
_cell_angle_beta   89.902862
_cell_angle_gamma 120.188
loop_
_atom_site_label
_atom_site_type_symbol
_atom_site_fract_x
_atom_site_fract_y
_atom_site_fract_z
_atom_type_partial_charge
Co0 Co 0.60316 0.33113 0.61465 0.0
Co1 Co 0.44956 0.20604 0.61861 0.0
O2 O 0.53082 0.26092 0.58625 0.0
C3 C 0.57776 0.37868 0.52783 0.0
O4 O 0.51442 0.34988 0.53582 0.0
C5 C 0.49121 0.12883 0.57067 0.0
O6 O 0.55228 0.16544 0.5821 0.0
O7 O 0.50203 0.19542 0.668 0.0
O8 O 0.59183 0.2863 0.67322 0.0
H9 H 0.28962 0.12716 0.75086 0.0
H10 H 0.61874 0.27716 0.52976 0.0
O11 O 0.61778 0.37562 0.55556 0.0
H12 H 0.80015 0.30494 0.62984 0.0
H13 H 0.823 0.51867 0.61766 0.0
H14 H 0.62478 0.38623 0.70643 0.0
H15 H 0.71898 0.33126 0.65668 0.0
H16 H 0.73369 0.42851 0.58245 0.0
O17 O 0.44544 0.13846 0.58269 0.0
H18 H 0.39083 0.19837 0.71163 0.0
H19 H 0.32872 0.0953 0.59024 0.0
H20 H 0.71299 0.47566 0.74309 0.0
H21 H 0.69859 0.25013 0.50118 0.0
H22 H 0.81322 0.54253 0.69868 0.0
H23 H 0.79037 0.26408 0.55151 0.0
O24 O 0.54124 0.3571 0.63619 0.0
H25 H 0.39197 0.22229 0.45565 0.0
H26 H 0.33914 0.23097 0.61802 0.0
H27 H 0.27716 0.24778 0.55782 0.0
H28 H 0.30331 0.24334 0.47592 0.0
H29 H 0.45325 0.20656 0.51705 0.0
H30 H 0.2266 0.02291 0.62819 0.0
H31 H 0.20637 0.0383 0.70921 0.0
O32 O 0.45082 0.27206 0.65479 0.0
C33 C 0.55567 0.23335 0.68748 0.0
C34 C 0.29838 0.11934 0.71582 0.0
C35 C 0.26302 0.0609 0.64702 0.0
N36 N 0.36815 0.15004 0.64932 0.0
C37 C 0.35638 0.15936 0.69353 0.0
C38 C 0.32159 0.10189 0.62586 0.0
C39 C 0.25161 0.0696 0.69241 0.0
C40 C 0.659 0.28428 0.55132 0.0
N41 N 0.66491 0.30719 0.59419 0.0
C42 C 0.70385 0.26844 0.53522 0.0
C43 C 0.75524 0.27619 0.56348 0.0
C44 C 0.76082 0.29919 0.60738 0.0
C45 C 0.71475 0.31422 0.62233 0.0
C46 C 0.77965 0.48981 0.63741 0.0
C47 C 0.66823 0.4149 0.68694 0.0
C48 C 0.72872 0.43881 0.61758 0.0
N49 N 0.67408 0.40183 0.64247 0.0
C50 C 0.71804 0.46559 0.70785 0.0
C51 C 0.77417 0.50315 0.68288 0.0
C52 C 0.4853 0.32815 0.65547 0.0
C53 C 0.37988 0.22407 0.49119 0.0
C54 C 0.35088 0.22897 0.58249 0.0
C55 C 0.31553 0.23847 0.54854 0.0
C56 C 0.33023 0.23597 0.5026 0.0
N57 N 0.39952 0.21731 0.57103 0.0
C58 C 0.41421 0.21485 0.52609 0.0
Co59 Co 0.23783 0.41525 0.79859 0.0
Co60 Co 0.25978 0.55377 0.78149 0.0
O61 O 0.26559 0.4855 0.76054 0.0
C62 C 0.367 0.44008 0.75857 0.0
O63 O 0.39227 0.49648 0.76668 0.0
C64 C 0.22677 0.54047 0.67971 0.0
O65 O 0.23108 0.49272 0.67776 0.0
O66 O 0.1642 0.50117 0.79457 0.0
O67 O 0.16455 0.42357 0.8267 0.0
H68 H 0.19474 0.66325 0.89166 0.0
H69 H 0.25087 0.40385 0.69826 0.0
O70 O 0.30838 0.40337 0.77041 0.0
H71 H 0.01917 0.26237 0.73422 0.0
H72 H 0.19571 0.21017 0.82753 0.0
H73 H 0.18899 0.37925 0.89397 0.0
H74 H 0.0962 0.32198 0.79534 0.0
H75 H 0.22769 0.29889 0.7815 0.0
O76 O 0.23624 0.56815 0.71761 0.0
H77 H 0.20399 0.57923 0.86381 0.0
H78 H 0.30315 0.67409 0.74466 0.0
H79 H 0.15603 0.29141 0.94133 0.0
H80 H 0.17562 0.34469 0.63613 0.0
H81 H 0.1594 0.20586 0.9081 0.0
H82 H 0.05868 0.27357 0.65387 0.0
O83 O 0.2993 0.46564 0.84867 0.0
H84 H 0.46775 0.62676 0.68953 0.0
H85 H 0.3719 0.64961 0.83295 0.0
H86 H 0.49074 0.71192 0.81944 0.0
H87 H 0.53949 0.70099 0.74718 0.0
H88 H 0.34949 0.56495 0.70467 0.0
H89 H 0.29452 0.75911 0.77056 0.0
H90 H 0.24019 0.75422 0.84477 0.0
O91 O 0.28327 0.54318 0.84575 0.0
C92 C 0.13617 0.45272 0.81671 0.0
C93 C 0.21831 0.66591 0.85917 0.0
C94 C 0.27419 0.71964 0.79122 0.0
N95 N 0.25334 0.62111 0.80242 0.0
C96 C 0.22354 0.61827 0.84325 0.0
C97 C 0.2785 0.67108 0.77649 0.0
C98 C 0.24381 0.71691 0.83287 0.0
C99 C 0.2002 0.37284 0.70635 0.0
N100 N 0.17796 0.36703 0.75036 0.0
C101 C 0.15775 0.33949 0.67098 0.0
C102 C 0.09215 0.29963 0.68095 0.0
C103 C 0.06995 0.29336 0.726 0.0
C104 C 0.11381 0.32749 0.76046 0.0
C105 C 0.19448 0.24731 0.84254 0.0
C106 C 0.19123 0.34281 0.8795 0.0
C107 C 0.21303 0.29799 0.81673 0.0
N108 N 0.21157 0.34517 0.83536 0.0
C109 C 0.17221 0.29287 0.90637 0.0
C110 C 0.17405 0.24488 0.88771 0.0
C111 C 0.30589 0.51353 0.86527 0.0
C112 C 0.44703 0.6324 0.72095 0.0
C113 C 0.39249 0.64469 0.80125 0.0
C114 C 0.45994 0.68013 0.79385 0.0
C115 C 0.48726 0.67393 0.75334 0.0
N116 N 0.35308 0.60437 0.76912 0.0
C117 C 0.37979 0.59769 0.72958 0.0
Co118 Co 0.74809 0.32369 0.92118 0.0
Co119 Co 0.76903 0.20258 0.91596 0.0
O120 O 0.74391 0.25384 0.94898 0.0
C121 C 0.81529 0.36674 1.01146 0.0
O122 O 0.84364 0.33525 1.00575 0.0
C123 C 0.64108 0.11886 0.9625 0.0
O124 O 0.61834 0.15435 0.95439 0.0
O125 O 0.70631 0.19146 0.86524 0.0
O126 O 0.71647 0.28141 0.86099 0.0
H127 H 0.84636 0.13302 0.78121 0.0
H128 H 0.67114 0.27266 1.00606 0.0
O129 O 0.77689 0.36721 0.98111 0.0
H130 H 0.51504 0.27659 0.89584 0.0
H131 H 0.72062 0.50196 0.91705 0.0
H132 H 0.79502 0.38387 0.83192 0.0
H133 H 0.63001 0.3123 0.87358 0.0
H134 H 0.71333 0.41345 0.95186 0.0
O135 O 0.69807 0.13148 0.94891 0.0
H136 H 0.81711 0.19855 0.8221 0.0
H137 H 0.77561 0.096 0.94265 0.0
H138 H 0.80293 0.47182 0.79571 0.0
H139 H 0.55658 0.23634 0.02983 0.0
H140 H 0.76527 0.53145 0.83828 0.0
H141 H 0.47757 0.23813 0.97446 0.0
O142 O 0.8415 0.35415 0.90357 0.0
H143 H 0.83571 0.21128 0.08058 0.0
H144 H 0.90924 0.23268 0.91988 0.0
H145 H 0.98719 0.24833 0.982 0.0
H146 H 0.95058 0.23763 0.06307 0.0
H147 H 0.75963 0.19661 1.01734 0.0
H148 H 0.80416 0.02908 0.90314 0.0
H149 H 0.83988 0.04729 0.82179 0.0
O150 O 0.84235 0.27207 0.88283 0.0
C151 C 0.69561 0.22939 0.84564 0.0
C152 C 0.83021 0.12423 0.81653 0.0
C153 C 0.80653 0.06593 0.88492 0.0
N154 N 0.79276 0.15059 0.8843 0.0
C155 C 0.81309 0.16112 0.83975 0.0
C156 C 0.78985 0.10382 0.90701 0.0
C157 C 0.82667 0.07621 0.83931 0.0
C158 C 0.63715 0.27376 0.98189 0.0
N159 N 0.6573 0.29458 0.93855 0.0
C160 C 0.57229 0.25304 0.99549 0.0
C161 C 0.52799 0.25403 0.96441 0.0
C162 C 0.54897 0.27562 0.92031 0.0
C163 C 0.61414 0.29571 0.90788 0.0
C164 C 0.73706 0.47627 0.89811 0.0
C165 C 0.77844 0.40947 0.85062 0.0
C166 C 0.73328 0.42621 0.91771 0.0
N167 N 0.75344 0.39327 0.89383 0.0
C168 C 0.7831 0.4593 0.82996 0.0
C169 C 0.76208 0.49278 0.8539 0.0
C170 C 0.86877 0.32803 0.88476 0.0
C171 C 0.85224 0.21596 0.04541 0.0
C172 C 0.8929 0.22801 0.95505 0.0
C173 C 0.93727 0.23682 0.99009 0.0
C174 C 0.91669 0.23081 0.03556 0.0
N175 N 0.82985 0.21376 0.96499 0.0
C176 C 0.80926 0.20747 1.00946 0.0
Co177 Co 0.42465 0.70188 0.1194 0.0
Co178 Co 0.57633 0.83094 0.11654 0.0
O179 O 0.49393 0.77141 0.08732 0.0
C180 C 0.43258 0.65934 0.02332 0.0
O181 O 0.4822 0.71135 1.01319 0.0
C182 C 0.53025 0.90567 0.06918 0.0
O183 O 0.46937 0.86939 0.08138 0.0
O184 O 0.52494 0.84151 0.16754 0.0
O185 O 0.43658 0.75067 0.17497 0.0
H186 H 0.72879 0.93964 0.24782 0.0
H187 H 0.40353 0.74975 0.03204 0.0
O188 O 0.40757 0.64905 0.06363 0.0
H189 H 0.22723 0.72717 0.13584 0.0
H190 H 0.20823 0.51238 0.13861 0.0
H191 H 0.41509 0.65675 0.21337 0.0
H192 H 0.30889 0.70132 0.16169 0.0
H193 H 0.29096 0.5994 0.09663 0.0
O194 O 0.57613 0.89607 0.08049 0.0
H195 H 0.62611 0.86411 0.21213 0.0
H196 H 0.70054 0.93178 0.08023 0.0
H197 H 0.33362 0.57049 0.25682 0.0
H198 H 0.32365 0.777 1.00518 0.0
H199 H 0.22905 0.49761 0.21957 0.0
H200 H 0.23415 0.76532 0.05702 0.0
O201 O 0.49051 0.68167 0.14243 0.0
H202 H 0.62902 0.81647 0.95164 0.0
H203 H 0.6878 0.80691 0.1122 0.0
H204 H 0.74742 0.79041 0.04991 0.0
H205 H 0.71831 0.79529 0.96891 0.0
H206 H 0.5697 0.83157 1.01499 0.0
H207 H 0.80391 1.0089 0.11424 0.0
H208 H 0.81897 1.01294 0.19865 0.0
O209 O 0.58242 0.76839 0.15263 0.0
C210 C 0.4724 0.80376 0.18822 0.0
C211 C 0.72337 0.93778 0.21094 0.0
C212 C 0.76544 0.97668 0.13602 0.0
N213 N 0.65801 0.89126 0.14413 0.0
C214 C 0.6654 0.89441 0.19057 0.0
C215 C 0.70676 0.93259 0.11695 0.0
C216 C 0.77383 0.97898 0.18336 0.0
C217 C 0.36477 0.74403 0.05488 0.0
N218 N 0.35989 0.72178 0.09792 0.0
C219 C 0.31958 0.75973 0.03942 0.0
C220 C 0.26943 0.75322 0.06851 0.0
C221 C 0.26538 0.73163 0.11265 0.0
C222 C 0.31158 0.71657 0.12696 0.0
C223 C 0.25354 0.54385 0.15528 0.0
C224 C 0.3697 0.6254 0.19683 0.0
C225 C 0.30081 0.59313 0.13147 0.0
N226 N 0.35789 0.63344 0.15234 0.0
C227 C 0.32373 0.57654 0.22166 0.0
C228 C 0.2652 0.53561 0.2007 0.0
C229 C 0.54943 0.71227 0.15681 0.0
C230 C 0.64217 0.81421 0.98679 0.0
C231 C 0.67409 0.80834 0.0771 0.0
C232 C 0.70843 0.79937 0.04194 0.0
C233 C 0.69217 0.80223 0.99651 0.0
N234 N 0.6248 0.81977 0.06733 0.0
C235 C 0.60893 0.823 0.02284 0.0
Co236 Co 0.791 0.60496 0.30337 0.0
Co237 Co 0.77698 0.47168 0.28264 0.0
O238 O 0.76916 0.53898 0.26133 0.0
C239 C 0.6859 0.59837 0.23812 0.0
O240 O 0.68553 0.55487 0.21586 0.0
C241 C 0.80149 0.47818 0.17951 0.0
O242 O 0.79648 0.52546 0.17568 0.0
O243 O 0.87252 0.52729 0.29273 0.0
O244 O 0.86124 0.59417 0.33331 0.0
H245 H 0.87019 0.37639 0.38335 0.0
H246 H 0.80247 0.62248 0.20108 0.0
O247 O 0.72242 0.62048 0.27367 0.0
H248 H 0.01651 0.77157 0.26342 0.0
H249 H 0.83062 0.80442 0.35367 0.0
H250 H 0.81903 0.62023 0.40297 0.0
H251 H 0.92793 0.70433 0.31501 0.0
H252 H 0.80715 0.72578 0.29808 0.0
O253 O 0.79639 0.45452 0.21859 0.0
H254 H 0.85433 0.45704 0.35644 0.0
H255 H 0.72696 0.34757 0.25132 0.0
H256 H 0.84404 0.69811 0.45973 0.0
H257 H 0.88956 0.68852 0.14839 0.0
H258 H 0.84968 0.79102 0.43532 0.0
H259 H 0.99778 0.7641 0.17935 0.0
O260 O 0.7233 0.54812 0.34697 0.0
H261 H 0.56081 0.39564 0.20069 0.0
H262 H 0.67021 0.37433 0.33698 0.0
H263 H 0.55049 0.31166 0.32887 0.0
H264 H 0.4948 0.32193 0.26025 0.0
H265 H 0.68044 0.45698 0.21011 0.0
H266 H 0.74206 0.26588 0.2766 0.0
H267 H 0.81363 0.27975 0.34345 0.0
O268 O 0.75671 0.48302 0.34784 0.0
C269 C 0.89576 0.57234 0.31896 0.0
C270 C 0.83828 0.36954 0.3545 0.0
C271 C 0.76647 0.30758 0.29459 0.0
N272 N 0.788 0.40673 0.30324 0.0
C273 C 0.82873 0.41503 0.33928 0.0
C274 C 0.75808 0.35409 0.2804 0.0
C275 C 0.80665 0.31539 0.33206 0.0
C276 C 0.84862 0.65523 0.21517 0.0
N277 N 0.85869 0.65998 0.26144 0.0
C278 C 0.89817 0.69263 0.18499 0.0
C279 C 0.95887 0.73497 0.20235 0.0
C280 C 0.96934 0.73928 0.24947 0.0
C281 C 0.91862 0.70113 0.27857 0.0
C282 C 0.82796 0.76402 0.36482 0.0
C283 C 0.82164 0.66053 0.39185 0.0
C284 C 0.814 0.71905 0.33339 0.0
N285 N 0.81089 0.66802 0.34698 0.0
C286 C 0.8357 0.70448 0.42428 0.0
C287 C 0.83879 0.75654 0.41058 0.0
C288 C 0.72625 0.50636 0.36681 0.0
C289 C 0.58447 0.39054 0.23068 0.0
C290 C 0.64666 0.37905 0.30688 0.0
C291 C 0.57868 0.34338 0.30252 0.0
C292 C 0.54747 0.34922 0.26408 0.0
N293 N 0.68294 0.41918 0.27374 0.0
C294 C 0.65238 0.42545 0.23627 0.0
Co295 Co 0.2837 0.71164 0.42787 0.0
Co296 Co 0.25738 0.82944 0.41844 0.0
O297 O 0.28415 0.78089 0.45303 0.0
C298 C 0.19948 0.6314 0.50465 0.0
O299 O 0.14622 0.61027 0.4795 0.0
C300 C 0.38474 0.91603 0.4635 0.0
O301 O 0.409 0.88182 0.45457 0.0
O302 O 0.32053 0.83987 0.36797 0.0
O303 O 0.31689 0.7522 0.36714 0.0
H304 H 0.17555 0.89109 0.28178 0.0
H305 H 0.35653 0.76795 0.51334 0.0
O306 O 0.2545 0.67208 0.48936 0.0
H307 H 0.5192 0.76241 0.41003 0.0
H308 H 0.31473 0.53541 0.43388 0.0
H309 H 0.24214 0.6475 0.33964 0.0
H310 H 0.40478 0.72344 0.38479 0.0
H311 H 0.31995 0.62533 0.46421 0.0
O312 O 0.32702 0.90193 0.45071 0.0
H313 H 0.20678 0.82836 0.32434 0.0
H314 H 0.24923 0.9362 0.44226 0.0
H315 H 0.23592 0.55784 0.30795 0.0
H316 H 0.47045 0.80763 0.53994 0.0
H317 H 0.27277 0.50125 0.3551 0.0
H318 H 0.55274 0.80503 0.48809 0.0
O319 O 0.19109 0.67874 0.40745 0.0
H320 H 0.18692 0.81801 0.58257 0.0
H321 H 0.11725 0.79964 0.42123 0.0
H322 H 0.03797 0.78329 0.48269 0.0
H323 H 0.07263 0.79244 0.56408 0.0
H324 H 0.26452 0.83393 0.51995 0.0
H325 H 0.21876 1.00043 0.40098 0.0
H326 H 0.18155 0.97816 0.32009 0.0
O327 O 0.18548 0.75834 0.38641 0.0
C328 C 0.33454 0.8029 0.35009 0.0
C329 C 0.19246 0.90172 0.31684 0.0
C330 C 0.21669 0.96304 0.3837 0.0
N331 N 0.23205 0.87925 0.38529 0.0
C332 C 0.21079 0.86644 0.34101 0.0
C333 C 0.23454 0.92669 0.40678 0.0
C334 C 0.19571 0.95047 0.33837 0.0
C335 C 0.39199 0.76654 0.49063 0.0
N336 N 0.37401 0.74347 0.44755 0.0
C337 C 0.45646 0.78914 0.50586 0.0
C338 C 0.5026 0.78768 0.47675 0.0
C339 C 0.48381 0.76375 0.43297 0.0
C340 C 0.41895 0.7418 0.41885 0.0
C341 C 0.29873 0.55978 0.41293 0.0
C342 C 0.25834 0.62323 0.3603 0.0
C343 C 0.30139 0.61066 0.42997 0.0
N344 N 0.28158 0.64183 0.4036 0.0
C345 C 0.25471 0.57245 0.3422 0.0
C346 C 0.27522 0.54065 0.36873 0.0
C347 C 0.16184 0.70278 0.38844 0.0
C348 C 0.17128 0.81414 0.54725 0.0
C349 C 0.13289 0.80407 0.45653 0.0
C350 C 0.08771 0.79467 0.4912 0.0
C351 C 0.10717 0.79975 0.53685 0.0
N352 N 0.19576 0.81829 0.467 0.0
C353 C 0.21512 0.82328 0.51166 0.0
C354 C 0.45153 0.02073 0.56564 0.0
C355 C 0.47444 0.07543 0.54313 0.0
C356 C 0.45273 0.02612 0.46814 0.0
C357 C 0.42295 0.97086 0.49073 0.0
N358 N 0.39492 0.91389 0.56015 0.0
N359 N 0.50149 0.1325 0.47387 0.0
C360 C 0.42344 0.96775 0.53931 0.0
C361 C 0.47703 0.07883 0.49454 0.0
N362 N 0.45778 0.0199 0.6122 0.0
N363 N 0.45855 0.02779 0.42144 0.0
H364 H 0.52398 0.17198 0.49216 0.0
H365 H 0.49856 0.13846 0.43893 0.0
H366 H 0.44148 0.98986 0.40147 0.0
H367 H 0.48369 0.06622 0.40238 0.0
H368 H 0.44755 0.98259 0.63088 0.0
H369 H 0.47783 0.05796 0.63226 0.0
H370 H 0.38606 0.90738 0.59516 0.0
H371 H 0.37777 0.87465 0.54196 0.0
C372 C 0.46054 0.36013 0.7306 0.0
C373 C 0.4598 0.36107 0.68194 0.0
C374 C 0.41047 0.42427 0.68445 0.0
C375 C 0.40467 0.41783 0.73282 0.0
N376 N 0.4186 0.37568 0.80214 0.0
N377 N 0.42653 0.38741 0.61215 0.0
C378 C 0.42821 0.38465 0.75596 0.0
C379 C 0.43325 0.39182 0.65872 0.0
N380 N 0.49397 0.33736 0.75259 0.0
N381 N 0.3938 0.46113 0.66305 0.0
H382 H 0.44184 0.36348 0.5924 0.0
H383 H 0.40093 0.40307 0.59343 0.0
H384 H 0.37463 0.48385 0.68044 0.0
H385 H 0.40354 0.47279 0.62866 0.0
H386 H 0.50233 0.34064 0.78778 0.0
H387 H 0.51841 0.31944 0.73508 0.0
H388 H 0.42697 0.34593 0.82016 0.0
H389 H 0.39851 0.39561 0.82224 0.0
C390 C 0.94815 0.37194 0.81853 0.0
C391 C 0.93672 0.36444 0.86652 0.0
C392 C 0.05466 0.42802 0.88022 0.0
C393 C 0.06719 0.42843 0.83273 0.0
N394 N 0.02623 0.39805 0.75598 0.0
N395 N 0.98064 0.37856 0.94308 0.0
C396 C 1.01395 0.39994 0.80155 0.0
C397 C 0.99039 0.39091 0.89738 0.0
N398 N 0.8962 0.35368 0.78936 0.0
N399 N 0.10401 0.46477 0.90889 0.0
H400 H 0.93451 0.35072 0.95688 0.0
H401 H 0.01881 0.39115 0.96647 0.0
H402 H 0.15103 0.49337 0.89686 0.0
H403 H 0.09668 0.47137 0.94311 0.0
H404 H 0.90113 0.36255 0.75437 0.0
H405 H 0.84791 0.3341 0.80101 0.0
H406 H 0.99006 0.37213 0.73228 0.0
H407 H 0.07353 0.41968 0.74221 0.0
C408 C 0.53945 0.95607 0.99418 0.0
C409 C 0.54768 0.95974 0.04247 0.0
C410 C 0.60267 0.06778 0.03835 0.0
C411 C 0.60208 0.06426 0.98979 0.0
N412 N 0.57212 1.00624 0.9207 0.0
N413 N 0.58902 0.0181 0.11111 0.0
C414 C 0.57054 1.00864 0.96747 0.0
C415 C 0.57938 0.01539 0.06476 0.0
N416 N 0.50194 0.90225 0.97397 0.0
N417 N 0.62533 0.12126 0.05914 0.0
H418 H 0.56969 0.98072 0.1318 0.0
H419 H 0.61887 0.05697 0.12889 0.0
H420 H 0.64332 0.16045 0.04086 0.0
H421 H 0.62159 0.12658 0.09415 0.0
H422 H 0.4886 0.89648 0.93956 0.0
H423 H 0.47971 0.863 0.99248 0.0
H424 H 0.55723 0.96764 0.90222 0.0
H425 H 0.59154 0.04373 0.90013 0.0
C426 C 0.58705 0.59189 0.19685 0.0
C427 C 0.64922 0.62627 0.21831 0.0
C428 C 0.63749 0.7126 0.20815 0.0
C429 C 0.58198 0.68122 0.17895 0.0
N430 N 0.51979 0.59101 0.1344 0.0
N431 N 0.74311 0.72451 0.22465 0.0
C432 C 0.56074 0.62061 0.17009 0.0
C433 C 0.67745 0.68821 0.21829 0.0
N434 N 0.55234 0.53224 0.20218 0.0
N435 N 0.65097 0.76405 0.22854 0.0
H436 H 0.77564 0.70867 0.22502 0.0
H437 H 0.76538 0.77023 0.22235 0.0
H438 H 0.61704 0.77809 0.22886 0.0
H439 H 0.69002 0.78642 0.25132 0.0
H440 H 0.50469 0.50642 0.18963 0.0
H441 H 0.56779 0.5098 0.22355 0.0
H442 H 0.50712 0.54803 0.12583 0.0
H443 H 0.50685 0.61134 0.10927 0.0
C444 C 0.08355 0.65332 0.32293 0.0
C445 C 0.09429 0.66427 0.37065 0.0
C446 C 0.97565 0.60453 0.38445 0.0
C447 C 0.96431 0.59923 0.33638 0.0
N448 N 1.00719 0.62564 0.25948 0.0
N449 N 0.05088 0.65602 0.44687 0.0
C450 C 0.01821 0.62503 0.30542 0.0
C451 C 0.04042 0.64115 0.40146 0.0
N452 N 0.13587 0.66924 0.29442 0.0
N453 N 0.92457 0.57331 0.41393 0.0
H454 H 0.09762 0.68144 0.46095 0.0
H455 H 1.01331 0.64697 0.47004 0.0
H456 H 0.87647 0.54633 0.40285 0.0
H457 H 0.93048 0.56998 0.44893 0.0
H458 H 0.13123 0.65723 0.26 0.0
H459 H 0.18415 0.6902 0.30624 0.0
H460 H 0.04429 0.64988 0.23588 0.0
H461 H 0.96033 0.60595 0.24515 0.0
C462 C 0.61264 0.46592 0.47478 0.0
C463 C 0.60418 0.40949 0.48351 0.0
C464 C 0.68847 0.42805 0.42808 0.0
C465 C 0.69019 0.47986 0.4117 0.0
N466 N 0.65066 0.54901 0.4236 0.0
N467 N 0.61559 0.32966 0.45436 0.0
C468 C 0.65087 0.49905 0.4359 0.0
C469 C 0.63545 0.38806 0.45507 0.0
N470 N 0.58677 0.48897 0.50465 0.0
N471 N 0.74063 0.41965 0.42291 0.0
H472 H 0.57298 0.29887 0.47133 0.0
H473 H 0.6367 0.3123 0.43243 0.0
H474 H 0.7868 0.45425 0.4142 0.0
H475 H 0.7408 0.38275 0.4359 0.0
H476 H 0.59778 0.53263 0.5037 0.0
H477 H 0.55707 0.46501 0.53219 0.0
H478 H 0.61489 0.55839 0.43485 0.0
H479 H 0.68604 0.58181 0.40309 0.0
C480 C 0.23526 0.64688 0.58686 0.0
C481 C 0.19787 0.60736 0.55127 0.0
C482 C 0.16678 0.52526 0.60459 0.0
C483 C 0.21452 0.56415 0.63654 0.0
N484 N 0.30703 0.6618 0.65029 0.0
N485 N 0.13826 0.50627 0.52446 0.0
C486 C 0.25206 0.6251 0.62584 0.0
C487 C 0.16587 0.54568 0.55958 0.0
N488 N 0.2544 0.7052 0.58384 0.0
N489 N 0.1213 0.46925 0.61725 0.0
H490 H 0.13983 0.5186 0.4904 0.0
H491 H 0.12019 0.4613 0.52857 0.0
H492 H 0.11813 0.45346 0.65047 0.0
H493 H 0.08221 0.44104 0.59623 0.0
H494 H 0.27765 0.73474 0.6107 0.0
H495 H 0.24014 0.72234 0.55689 0.0
H496 H 0.3386 0.70554 0.6411 0.0
H497 H 0.32586 0.64673 0.67562 0.0
C498 C 0.67908 0.21852 0.75974 0.0
C499 C 0.65272 0.21254 0.80436 0.0
C500 C 0.55464 0.20848 0.77183 0.0
C501 C 0.58144 0.21519 0.72719 0.0
N502 N 0.65558 0.20176 0.67875 0.0
N503 N 0.55609 0.18029 0.85064 0.0
C504 C 0.63935 0.21213 0.72119 0.0
C505 C 0.5872 0.20019 0.80961 0.0
N506 N 0.74292 0.23319 0.75397 0.0
N507 N 0.50029 0.21317 0.77871 0.0
H508 H 0.57891 0.17326 0.87849 0.0
H509 H 0.50636 0.16559 0.85549 0.0
H510 H 0.47574 0.21922 0.75175 0.0
H511 H 0.48297 0.2155 0.81108 0.0
H512 H 0.76671 0.24463 0.72234 0.0
H513 H 0.7731 0.2382 0.78153 0.0
H514 H 0.69401 0.19365 0.67299 0.0
H515 H 0.62618 0.19536 0.65025 0.0
C516 C 0.30231 0.53757 0.94755 0.0
C517 C 0.33999 0.53726 0.91005 0.0
C518 C 0.43975 0.60481 0.95327 0.0
C519 C 0.40085 0.61437 0.98585 0.0
N520 N 0.29276 0.59858 1.0044 0.0
N521 N 0.44665 0.57369 0.87595 0.0
C522 C 0.33139 0.58256 0.98088 0.0
C523 C 0.40952 0.57144 0.91266 0.0
N524 N 0.23824 0.49485 0.9514 0.0
N525 N 0.50494 0.62616 0.96151 0.0
H526 H 0.42609 0.54816 0.84668 0.0
H527 H 0.49693 0.60324 0.87364 0.0
H528 H 0.52795 0.64831 0.99165 0.0
H529 H 0.53433 0.61645 0.94079 0.0
H530 H 0.21001 0.49007 0.9804 0.0
H531 H 0.21632 0.46091 0.92766 0.0
H532 H 0.24243 0.57945 0.99859 0.0
H533 H 0.31187 0.63598 0.02472 0.0
C534 C 0.85823 0.45667 0.06163 0.0
C535 C 0.81899 0.39478 0.0563 0.0
C536 C 0.76619 0.38782 0.12999 0.0
C537 C 0.80878 0.44927 0.13745 0.0
N538 N 0.90564 0.53936 0.11436 0.0
N539 N 0.74714 0.29986 0.08998 0.0
C540 C 0.85781 0.48302 0.10434 0.0
C541 C 0.77719 0.35988 0.09216 0.0
N542 N 0.89536 0.49033 0.02576 0.0
N543 N 0.71186 0.35665 0.1567 0.0
H544 H 0.75264 0.27751 0.06235 0.0
H545 H 0.72178 0.27257 0.11748 0.0
H546 H 0.69884 0.37579 0.18265 0.0
H547 H 0.67555 0.31344 0.14969 0.0
H548 H 0.919 0.53614 0.02568 0.0
H549 H 0.89917 0.4722 0.99484 0.0
H550 H 0.94609 0.56414 0.09333 0.0
H551 H 0.9086 0.55941 0.14585 0.0
C552 C 0.44161 0.8303 0.31228 0.0
C553 C 0.37656 0.81947 0.30821 0.0
C554 C 0.38972 0.82429 0.22468 0.0
C555 C 0.44771 0.82095 0.22913 0.0
N556 N 0.52186 0.80979 0.27939 0.0
N557 N 0.28543 0.79909 0.25897 0.0
C558 C 0.47255 0.82192 0.27355 0.0
C559 C 0.34989 0.81542 0.26392 0.0
N560 N 0.47367 0.84819 0.35314 0.0
N561 N 0.3723 0.83519 0.18291 0.0
H562 H 0.25445 0.78955 0.28695 0.0
H563 H 0.26173 0.78952 0.22733 0.0
H564 H 0.40091 0.84205 0.1538 0.0
H565 H 0.33338 0.84289 0.17832 0.0
H566 H 0.52312 0.86101 0.35694 0.0
H567 H 0.45233 0.85571 0.38176 0.0
H568 H 0.53764 0.80473 0.31153 0.0
H569 H 0.54119 0.79807 0.25206 0.0
loop_
_geom_bond_atom_site_label_1
_geom_bond_atom_site_label_2
_geom_bond_distance
_geom_bond_site_symmetry_2
_ccdc_geom_bond_type
Co0 O2 2.143 . S
Co0 O8 2.074 . S
Co0 O11 2.093 . S
Co0 O24 2.097 . S
Co0 N41 2.151 . S
Co0 N49 2.214 . S
Co1 O2 2.160 . S
Co1 O7 2.058 . S
Co1 O17 2.057 . S
Co1 O32 2.037 . S
Co1 N36 2.145 . S
Co1 N57 2.257 . S
O2 Co0 2.143 . S
O2 Co1 2.160 . S
C3 O4 1.278 . S
C3 O11 1.224 . S
O4 C3 1.278 . S
C5 O6 1.245 . S
C5 O17 1.232 . S
O6 C5 1.245 . S
O7 Co1 2.058 . S
O7 C33 1.269 . S
O8 Co0 2.074 . S
O8 C33 1.257 . S
H9 C34 0.930 . S
H10 C40 0.930 . S
O11 Co0 2.093 . S
O11 C3 1.224 . S
H12 C44 0.929 . S
H13 C46 0.930 . S
H14 C47 0.930 . S
H15 C45 0.929 . S
H16 C48 0.928 . S
O17 Co1 2.057 . S
O17 C5 1.232 . S
H18 C37 0.929 . S
H19 C38 0.929 . S
H20 C50 0.931 . S
H21 C42 0.929 . S
H22 C51 0.930 . S
H23 C43 0.931 . S
O24 Co0 2.097 . S
O24 C52 1.214 . S
H25 C53 0.929 . S
H26 C54 0.929 . S
H27 C55 0.930 . S
H28 C56 0.929 . S
H29 C58 0.930 . S
H30 C35 0.930 . S
H31 C39 0.930 . S
O32 Co1 2.037 . S
O32 C52 1.234 . S
C33 O7 1.269 . S
C33 O8 1.257 . S
C34 H9 0.930 . S
C34 C37 1.388 . S
C34 C39 1.418 . S
C35 H30 0.930 . S
C35 C38 1.404 . S
C35 C39 1.353 . S
N36 Co1 2.145 . S
N36 C37 1.397 . S
N36 C38 1.334 . S
C37 H18 0.929 . S
C37 C34 1.388 . S
C37 N36 1.397 . S
C38 H19 0.929 . S
C38 C35 1.404 . S
C38 N36 1.334 . S
C39 H31 0.930 . S
C39 C34 1.418 . S
C39 C35 1.353 . S
C40 H10 0.930 . S
C40 N41 1.330 . S
C40 C42 1.446 . S
N41 Co0 2.151 . S
N41 C40 1.330 . S
N41 C45 1.418 . S
C42 H21 0.929 . S
C42 C40 1.446 . S
C42 C43 1.332 . S
C43 H23 0.931 . S
C43 C42 1.332 . S
C43 C44 1.267 . S
C44 H12 0.929 . S
C44 C43 1.267 . S
C44 C45 1.251 . S
C45 H15 0.929 . S
C45 N41 1.418 . S
C45 C44 1.251 . S
C46 H13 0.930 . S
C46 C48 1.406 . S
C46 C51 1.261 . S
C47 H14 0.930 . S
C47 N49 1.325 . S
C47 C50 1.357 . S
C48 H16 0.928 . S
C48 C46 1.406 . S
C48 N49 1.261 . S
N49 Co0 2.214 . S
N49 C47 1.325 . S
N49 C48 1.261 . S
C50 H20 0.931 . S
C50 C47 1.357 . S
C50 C51 1.312 . S
C51 H22 0.930 . S
C51 C46 1.261 . S
C51 C50 1.312 . S
C52 O24 1.214 . S
C52 O32 1.234 . S
C53 H25 0.929 . S
C53 C56 1.391 . S
C53 C58 1.391 . S
C54 H26 0.929 . S
C54 C55 1.390 . S
C54 N57 1.391 . S
C55 H27 0.930 . S
C55 C54 1.390 . S
C55 C56 1.392 . S
C56 H28 0.929 . S
C56 C53 1.391 . S
C56 C55 1.392 . S
N57 Co1 2.257 . S
N57 C54 1.391 . S
N57 C58 1.388 . S
C58 H29 0.930 . S
C58 C53 1.391 . S
C58 N57 1.388 . S
Co59 O61 2.143 . S
Co59 O67 2.074 . S
Co59 O70 2.093 . S
Co59 O83 2.097 . S
Co59 N100 2.151 . S
Co59 N108 2.214 . S
Co60 O61 2.160 . S
Co60 O66 2.058 . S
Co60 O76 2.057 . S
Co60 O91 2.037 . S
Co60 N95 2.145 . S
Co60 N116 2.257 . S
O61 Co59 2.143 . S
O61 Co60 2.160 . S
C62 O63 1.278 . S
C62 O70 1.224 . S
O63 C62 1.278 . S
C64 O65 1.245 . S
C64 O76 1.232 . S
O65 C64 1.245 . S
O66 Co60 2.058 . S
O66 C92 1.269 . S
O67 Co59 2.074 . S
O67 C92 1.257 . S
H68 C93 0.930 . S
H69 C99 0.930 . S
O70 Co59 2.093 . S
O70 C62 1.224 . S
H71 C103 0.929 . S
H72 C105 0.930 . S
H73 C106 0.930 . S
H74 C104 0.929 . S
H75 C107 0.928 . S
O76 Co60 2.057 . S
O76 C64 1.232 . S
H77 C96 0.929 . S
H78 C97 0.929 . S
H79 C109 0.931 . S
H80 C101 0.929 . S
H81 C110 0.930 . S
H82 C102 0.931 . S
O83 Co59 2.097 . S
O83 C111 1.214 . S
H84 C112 0.929 . S
H85 C113 0.929 . S
H86 C114 0.930 . S
H87 C115 0.929 . S
H88 C117 0.930 . S
H89 C94 0.930 . S
H90 C98 0.930 . S
O91 Co60 2.037 . S
O91 C111 1.234 . S
C92 O66 1.269 . S
C92 O67 1.257 . S
C93 H68 0.930 . S
C93 C96 1.388 . S
C93 C98 1.418 . S
C94 H89 0.930 . S
C94 C97 1.404 . S
C94 C98 1.353 . S
N95 Co60 2.145 . S
N95 C96 1.397 . S
N95 C97 1.334 . S
C96 H77 0.929 . S
C96 C93 1.388 . S
C96 N95 1.397 . S
C97 H78 0.929 . S
C97 C94 1.404 . S
C97 N95 1.334 . S
C98 H90 0.930 . S
C98 C93 1.418 . S
C98 C94 1.353 . S
C99 H69 0.930 . S
C99 N100 1.330 . S
C99 C101 1.446 . S
N100 Co59 2.151 . S
N100 C99 1.330 . S
N100 C104 1.418 . S
C101 H80 0.929 . S
C101 C99 1.446 . S
C101 C102 1.332 . S
C102 H82 0.931 . S
C102 C101 1.332 . S
C102 C103 1.267 . S
C103 H71 0.929 . S
C103 C102 1.267 . S
C103 C104 1.251 . S
C104 H74 0.929 . S
C104 N100 1.418 . S
C104 C103 1.251 . S
C105 H72 0.930 . S
C105 C107 1.406 . S
C105 C110 1.261 . S
C106 H73 0.930 . S
C106 N108 1.325 . S
C106 C109 1.357 . S
C107 H75 0.928 . S
C107 C105 1.406 . S
C107 N108 1.261 . S
N108 Co59 2.214 . S
N108 C106 1.325 . S
N108 C107 1.261 . S
C109 H79 0.931 . S
C109 C106 1.357 . S
C109 C110 1.312 . S
C110 H81 0.930 . S
C110 C105 1.261 . S
C110 C109 1.312 . S
C111 O83 1.214 . S
C111 O91 1.234 . S
C112 H84 0.929 . S
C112 C115 1.391 . S
C112 C117 1.391 . S
C113 H85 0.929 . S
C113 C114 1.390 . S
C113 N116 1.391 . S
C114 H86 0.930 . S
C114 C113 1.390 . S
C114 C115 1.392 . S
C115 H87 0.929 . S
C115 C112 1.391 . S
C115 C114 1.392 . S
N116 Co60 2.257 . S
N116 C113 1.391 . S
N116 C117 1.388 . S
C117 H88 0.930 . S
C117 C112 1.391 . S
C117 N116 1.388 . S
Co118 O120 2.143 . S
Co118 O126 2.074 . S
Co118 O129 2.093 . S
Co118 O142 2.097 . S
Co118 N159 2.151 . S
Co118 N167 2.214 . S
Co119 O120 2.160 . S
Co119 O125 2.058 . S
Co119 O135 2.057 . S
Co119 O150 2.037 . S
Co119 N154 2.145 . S
Co119 N175 2.257 . S
O120 Co118 2.143 . S
O120 Co119 2.160 . S
C121 O122 1.278 . S
C121 O129 1.224 1_554 S
O122 C121 1.278 . S
C123 O124 1.245 . S
C123 O135 1.232 . S
O124 C123 1.245 . S
O125 Co119 2.058 . S
O125 C151 1.269 . S
O126 Co118 2.074 . S
O126 C151 1.257 . S
H127 C152 0.930 . S
H128 C158 0.930 . S
O129 Co118 2.093 . S
O129 C121 1.224 1_556 S
H130 C162 0.929 . S
H131 C164 0.930 . S
H132 C165 0.930 . S
H133 C163 0.929 . S
H134 C166 0.928 . S
O135 Co119 2.057 . S
O135 C123 1.232 . S
H136 C155 0.929 . S
H137 C156 0.929 . S
H138 C168 0.931 . S
H139 C160 0.907 1_554 S
H140 C169 0.930 . S
H141 C161 0.931 . S
O142 Co118 2.097 . S
O142 C170 1.214 . S
H143 C171 0.929 . S
H144 C172 0.929 . S
H145 C173 0.930 . S
H146 C174 0.929 . S
H147 C176 0.935 . S
H148 C153 0.930 . S
H149 C157 0.930 . S
O150 Co119 2.037 . S
O150 C170 1.234 . S
C151 O125 1.269 . S
C151 O126 1.257 . S
C152 H127 0.930 . S
C152 C155 1.388 . S
C152 C157 1.418 . S
C153 H148 0.930 . S
C153 C156 1.404 . S
C153 C157 1.353 . S
N154 Co119 2.145 . S
N154 C155 1.397 . S
N154 C156 1.334 . S
C155 H136 0.929 . S
C155 C152 1.388 . S
C155 N154 1.397 . S
C156 H137 0.929 . S
C156 C153 1.404 . S
C156 N154 1.334 . S
C157 H149 0.930 . S
C157 C152 1.418 . S
C157 C153 1.353 . S
C158 H128 0.930 . S
C158 N159 1.330 . S
C158 C160 1.446 . S
N159 Co118 2.151 . S
N159 C158 1.330 . S
N159 C163 1.418 . S
C160 H139 0.907 1_556 S
C160 C158 1.446 . S
C160 C161 1.332 . S
C161 H141 0.931 . S
C161 C160 1.332 . S
C161 C162 1.267 . S
C162 H130 0.929 . S
C162 C161 1.267 . S
C162 C163 1.251 . S
C163 H133 0.929 . S
C163 N159 1.418 . S
C163 C162 1.251 . S
C164 H131 0.930 . S
C164 C166 1.406 . S
C164 C169 1.261 . S
C165 H132 0.930 . S
C165 N167 1.325 . S
C165 C168 1.357 . S
C166 H134 0.928 . S
C166 C164 1.406 . S
C166 N167 1.261 . S
N167 Co118 2.214 . S
N167 C165 1.325 . S
N167 C166 1.261 . S
C168 H138 0.931 . S
C168 C165 1.357 . S
C168 C169 1.312 . S
C169 H140 0.930 . S
C169 C164 1.261 . S
C169 C168 1.312 . S
C170 O142 1.214 . S
C170 O150 1.234 . S
C171 H143 0.929 . S
C171 C174 1.391 . S
C171 C176 1.391 1_554 S
C172 H144 0.929 . S
C172 C173 1.390 . S
C172 N175 1.391 . S
C173 H145 0.930 . S
C173 C172 1.390 . S
C173 C174 1.392 1_556 S
C174 H146 0.929 . S
C174 C171 1.391 . S
C174 C173 1.392 1_554 S
N175 Co119 2.257 . S
N175 C172 1.391 . S
N175 C176 1.388 . S
C176 H147 0.935 . S
C176 C171 1.391 1_556 S
C176 N175 1.388 . S
Co177 O179 2.143 . S
Co177 O185 2.074 . S
Co177 O188 2.093 . S
Co177 O201 2.097 . S
Co177 N218 2.151 . S
Co177 N226 2.214 . S
Co178 O179 2.160 . S
Co178 O184 2.058 . S
Co178 O194 2.057 . S
Co178 O209 2.037 . S
Co178 N213 2.145 . S
Co178 N234 2.257 . S
O179 Co177 2.143 . S
O179 Co178 2.160 . S
C180 O181 1.278 . S
C180 O188 1.224 1_556 S
O181 C180 1.278 . S
C182 O183 1.245 . S
C182 O194 1.232 . S
O183 C182 1.245 . S
O184 Co178 2.058 . S
O184 C210 1.269 . S
O185 Co177 2.074 . S
O185 C210 1.257 . S
H186 C211 0.930 . S
H187 C217 0.930 . S
O188 Co177 2.093 . S
O188 C180 1.224 1_554 S
H189 C221 0.929 . S
H190 C223 0.930 . S
H191 C224 0.930 . S
H192 C222 0.929 . S
H193 C225 0.928 . S
O194 Co178 2.057 . S
O194 C182 1.232 . S
H195 C214 0.929 . S
H196 C215 0.929 . S
H197 C227 0.931 . S
H198 C219 0.929 1_556 S
H199 C228 0.930 . S
H200 C220 0.931 . S
O201 Co177 2.097 . S
O201 C229 1.214 . S
H202 C230 0.929 . S
H203 C231 0.929 . S
H204 C232 0.930 . S
H205 C233 0.929 . S
H206 C235 0.930 . S
H207 C212 0.930 . S
H208 C216 0.930 . S
O209 Co178 2.037 . S
O209 C229 1.234 . S
C210 O184 1.269 . S
C210 O185 1.257 . S
C211 H186 0.930 . S
C211 C214 1.388 . S
C211 C216 1.418 . S
C212 H207 0.930 . S
C212 C215 1.404 . S
C212 C216 1.353 . S
N213 Co178 2.145 . S
N213 C214 1.397 . S
N213 C215 1.334 . S
C214 H195 0.929 . S
C214 C211 1.388 . S
C214 N213 1.397 . S
C215 H196 0.929 . S
C215 C212 1.404 . S
C215 N213 1.334 . S
C216 H208 0.930 . S
C216 C211 1.418 . S
C216 C212 1.353 . S
C217 H187 0.930 . S
C217 N218 1.330 . S
C217 C219 1.446 . S
N218 Co177 2.151 . S
N218 C217 1.330 . S
N218 C222 1.418 . S
C219 H198 0.929 1_554 S
C219 C217 1.446 . S
C219 C220 1.332 . S
C220 H200 0.931 . S
C220 C219 1.332 . S
C220 C221 1.267 . S
C221 H189 0.929 . S
C221 C220 1.267 . S
C221 C222 1.251 . S
C222 H192 0.929 . S
C222 N218 1.418 . S
C222 C221 1.251 . S
C223 H190 0.930 . S
C223 C225 1.406 . S
C223 C228 1.261 . S
C224 H191 0.930 . S
C224 N226 1.325 . S
C224 C227 1.357 . S
C225 H193 0.928 . S
C225 C223 1.406 . S
C225 N226 1.261 . S
N226 Co177 2.214 . S
N226 C224 1.325 . S
N226 C225 1.261 . S
C227 H197 0.931 . S
C227 C224 1.357 . S
C227 C228 1.312 . S
C228 H199 0.930 . S
C228 C223 1.261 . S
C228 C227 1.312 . S
C229 O201 1.214 . S
C229 O209 1.234 . S
C230 H202 0.929 . S
C230 C233 1.391 . S
C230 C235 1.391 1_556 S
C231 H203 0.929 . S
C231 C232 1.390 . S
C231 N234 1.391 . S
C232 H204 0.930 . S
C232 C231 1.390 . S
C232 C233 1.392 1_554 S
C233 H205 0.929 . S
C233 C230 1.391 . S
C233 C232 1.392 1_556 S
N234 Co178 2.257 . S
N234 C231 1.391 . S
N234 C235 1.388 . S
C235 H206 0.930 . S
C235 C230 1.391 1_554 S
C235 N234 1.388 . S
Co236 O238 2.143 . S
Co236 O244 2.074 . S
Co236 O247 2.093 . S
Co236 O260 2.097 . S
Co236 N277 2.151 . S
Co236 N285 2.214 . S
Co237 O238 2.160 . S
Co237 O243 2.058 . S
Co237 O253 2.057 . S
Co237 O268 2.037 . S
Co237 N272 2.145 . S
Co237 N293 2.257 . S
O238 Co236 2.143 . S
O238 Co237 2.160 . S
C239 O240 1.278 . S
C239 O247 1.224 . S
O240 C239 1.278 . S
C241 O242 1.245 . S
C241 O253 1.232 . S
O242 C241 1.245 . S
O243 Co237 2.058 . S
O243 C269 1.269 . S
O244 Co236 2.074 . S
O244 C269 1.257 . S
H245 C270 0.930 . S
H246 C276 0.930 . S
O247 Co236 2.093 . S
O247 C239 1.224 . S
H248 C280 0.929 . S
H249 C282 0.930 . S
H250 C283 0.930 . S
H251 C281 0.929 . S
H252 C284 0.928 . S
O253 Co237 2.057 . S
O253 C241 1.232 . S
H254 C273 0.929 . S
H255 C274 0.929 . S
H256 C286 0.931 . S
H257 C278 0.929 . S
H258 C287 0.930 . S
H259 C279 0.931 . S
O260 Co236 2.097 . S
O260 C288 1.214 . S
H261 C289 0.929 . S
H262 C290 0.929 . S
H263 C291 0.930 . S
H264 C292 0.929 . S
H265 C294 0.930 . S
H266 C271 0.930 . S
H267 C275 0.930 . S
O268 Co237 2.037 . S
O268 C288 1.234 . S
C269 O243 1.269 . S
C269 O244 1.257 . S
C270 H245 0.930 . S
C270 C273 1.388 . S
C270 C275 1.418 . S
C271 H266 0.930 . S
C271 C274 1.404 . S
C271 C275 1.353 . S
N272 Co237 2.145 . S
N272 C273 1.397 . S
N272 C274 1.334 . S
C273 H254 0.929 . S
C273 C270 1.388 . S
C273 N272 1.397 . S
C274 H255 0.929 . S
C274 C271 1.404 . S
C274 N272 1.334 . S
C275 H267 0.930 . S
C275 C270 1.418 . S
C275 C271 1.353 . S
C276 H246 0.930 . S
C276 N277 1.330 . S
C276 C278 1.446 . S
N277 Co236 2.151 . S
N277 C276 1.330 . S
N277 C281 1.418 . S
C278 H257 0.929 . S
C278 C276 1.446 . S
C278 C279 1.332 . S
C279 H259 0.931 . S
C279 C278 1.332 . S
C279 C280 1.267 . S
C280 H248 0.929 . S
C280 C279 1.267 . S
C280 C281 1.251 . S
C281 H251 0.929 . S
C281 N277 1.418 . S
C281 C280 1.251 . S
C282 H249 0.930 . S
C282 C284 1.406 . S
C282 C287 1.261 . S
C283 H250 0.930 . S
C283 N285 1.325 . S
C283 C286 1.357 . S
C284 H252 0.928 . S
C284 C282 1.406 . S
C284 N285 1.261 . S
N285 Co236 2.214 . S
N285 C283 1.325 . S
N285 C284 1.261 . S
C286 H256 0.931 . S
C286 C283 1.357 . S
C286 C287 1.312 . S
C287 H258 0.930 . S
C287 C282 1.261 . S
C287 C286 1.312 . S
C288 O260 1.214 . S
C288 O268 1.234 . S
C289 H261 0.929 . S
C289 C292 1.391 . S
C289 C294 1.391 . S
C290 H262 0.929 . S
C290 C291 1.390 . S
C290 N293 1.391 . S
C291 H263 0.930 . S
C291 C290 1.390 . S
C291 C292 1.392 . S
C292 H264 0.929 . S
C292 C289 1.391 . S
C292 C291 1.392 . S
N293 Co237 2.257 . S
N293 C290 1.391 . S
N293 C294 1.388 . S
C294 H265 0.930 . S
C294 C289 1.391 . S
C294 N293 1.388 . S
Co295 O297 2.143 . S
Co295 O303 2.074 . S
Co295 O306 2.093 . S
Co295 O319 2.097 . S
Co295 N336 2.151 . S
Co295 N344 2.214 . S
Co296 O297 2.160 . S
Co296 O302 2.058 . S
Co296 O312 2.057 . S
Co296 O327 2.037 . S
Co296 N331 2.145 . S
Co296 N352 2.257 . S
O297 Co295 2.143 . S
O297 Co296 2.160 . S
C298 O299 1.278 . S
C298 O306 1.224 . S
O299 C298 1.278 . S
C300 O301 1.245 . S
C300 O312 1.232 . S
O301 C300 1.245 . S
O302 Co296 2.058 . S
O302 C328 1.269 . S
O303 Co295 2.074 . S
O303 C328 1.257 . S
H304 C329 0.930 . S
H305 C335 0.930 . S
O306 Co295 2.093 . S
O306 C298 1.224 . S
H307 C339 0.929 . S
H308 C341 0.930 . S
H309 C342 0.930 . S
H310 C340 0.929 . S
H311 C343 0.928 . S
O312 Co296 2.057 . S
O312 C300 1.232 . S
H313 C332 0.929 . S
H314 C333 0.929 . S
H315 C345 0.931 . S
H316 C337 0.929 . S
H317 C346 0.930 . S
H318 C338 0.931 . S
O319 Co295 2.097 . S
O319 C347 1.214 . S
H320 C348 0.929 . S
H321 C349 0.929 . S
H322 C350 0.930 . S
H323 C351 0.929 . S
H324 C353 0.930 . S
H325 C330 0.930 . S
H326 C334 0.930 . S
O327 Co296 2.037 . S
O327 C347 1.234 . S
C328 O302 1.269 . S
C328 O303 1.257 . S
C329 H304 0.930 . S
C329 C332 1.388 . S
C329 C334 1.418 . S
C330 H325 0.930 . S
C330 C333 1.404 . S
C330 C334 1.353 . S
N331 Co296 2.145 . S
N331 C332 1.397 . S
N331 C333 1.334 . S
C332 H313 0.929 . S
C332 C329 1.388 . S
C332 N331 1.397 . S
C333 H314 0.929 . S
C333 C330 1.404 . S
C333 N331 1.334 . S
C334 H326 0.930 . S
C334 C329 1.418 . S
C334 C330 1.353 . S
C335 H305 0.930 . S
C335 N336 1.330 . S
C335 C337 1.446 . S
N336 Co295 2.151 . S
N336 C335 1.330 . S
N336 C340 1.418 . S
C337 H316 0.929 . S
C337 C335 1.446 . S
C337 C338 1.332 . S
C338 H318 0.931 . S
C338 C337 1.332 . S
C338 C339 1.267 . S
C339 H307 0.929 . S
C339 C338 1.267 . S
C339 C340 1.251 . S
C340 H310 0.929 . S
C340 N336 1.418 . S
C340 C339 1.251 . S
C341 H308 0.930 . S
C341 C343 1.406 . S
C341 C346 1.261 . S
C342 H309 0.930 . S
C342 N344 1.325 . S
C342 C345 1.357 . S
C343 H311 0.928 . S
C343 C341 1.406 . S
C343 N344 1.261 . S
N344 Co295 2.214 . S
N344 C342 1.325 . S
N344 C343 1.261 . S
C345 H315 0.931 . S
C345 C342 1.357 . S
C345 C346 1.312 . S
C346 H317 0.930 . S
C346 C341 1.261 . S
C346 C345 1.312 . S
C347 O319 1.214 . S
C347 O327 1.234 . S
C348 H320 0.929 . S
C348 C351 1.391 . S
C348 C353 1.391 . S
C349 H321 0.929 . S
C349 C350 1.390 . S
C349 N352 1.391 . S
C350 H322 0.930 . S
C350 C349 1.390 . S
C350 C351 1.392 . S
C351 H323 0.929 . S
C351 C348 1.391 . S
C351 C350 1.392 . S
N352 Co296 2.257 . S
N352 C349 1.391 . S
N352 C353 1.388 . S
C353 H324 0.930 . S
C353 C348 1.391 . S
C353 N352 1.388 . S
C354 C355 1.363 . S
C354 C360 1.379 1_545 S
C354 N362 1.356 . S
C355 C354 1.363 . S
C355 C361 1.363 . S
C356 C357 1.363 1_545 S
C356 C361 1.379 . S
C356 N363 1.356 1_545 S
C357 C356 1.363 1_565 S
C357 C360 1.363 . S
N358 C360 1.356 . S
N358 H370 0.984 . S
N358 H371 0.985 . S
N359 C361 1.356 . S
N359 H364 0.984 . S
N359 H365 0.985 . S
C360 C354 1.379 1_565 S
C360 C357 1.363 . S
C360 N358 1.356 . S
C361 C355 1.363 . S
C361 C356 1.379 . S
C361 N359 1.356 . S
N362 C354 1.356 . S
N362 H368 0.984 1_545 S
N362 H369 0.984 . S
N363 C356 1.356 1_565 S
N363 H366 0.984 . S
N363 H367 0.985 1_565 S
H364 N359 0.984 . S
H365 N359 0.985 . S
H366 N363 0.984 . S
H367 N363 0.985 1_545 S
H368 N362 0.984 1_565 S
H369 N362 0.984 . S
H370 N358 0.984 . S
H371 N358 0.985 . S
C372 C373 1.363 . S
C372 C378 1.379 . S
C372 N380 1.356 . S
C373 C372 1.363 . S
C373 C379 1.363 . S
C374 C375 1.363 . S
C374 C379 1.379 . S
C374 N381 1.356 . S
C375 C374 1.363 . S
C375 C378 1.363 . S
N376 C378 1.356 . S
N376 H388 0.984 . S
N376 H389 0.985 . S
N377 C379 1.356 . S
N377 H382 0.984 . S
N377 H383 0.985 . S
C378 C372 1.379 . S
C378 C375 1.363 . S
C378 N376 1.356 . S
C379 C373 1.363 . S
C379 C374 1.379 . S
C379 N377 1.356 . S
N380 C372 1.356 . S
N380 H386 0.984 . S
N380 H387 0.984 . S
N381 C374 1.356 . S
N381 H384 0.984 . S
N381 H385 0.985 . S
H382 N377 0.984 . S
H383 N377 0.985 . S
H384 N381 0.984 . S
H385 N381 0.985 . S
H386 N380 0.984 . S
H387 N380 0.984 . S
H388 N376 0.984 . S
H389 N376 0.985 . S
C390 C391 1.363 . S
C390 C396 1.379 1_655 S
C390 N398 1.356 . S
C391 C390 1.363 . S
C391 C397 1.363 . S
C392 C393 1.363 . S
C392 C397 1.379 1_455 S
C392 N399 1.356 . S
C393 C392 1.363 . S
C393 C396 1.363 . S
N394 C396 1.356 . S
N394 H406 0.984 . S
N394 H407 0.985 . S
N395 C397 1.356 . S
N395 H400 0.984 . S
N395 H401 0.985 . S
C396 C390 1.379 1_455 S
C396 C393 1.363 . S
C396 N394 1.356 . S
C397 C391 1.363 . S
C397 C392 1.379 1_655 S
C397 N395 1.356 . S
N398 C390 1.356 . S
N398 H404 0.984 . S
N398 H405 0.984 . S
N399 C392 1.356 . S
N399 H402 0.984 . S
N399 H403 0.985 . S
H400 N395 0.984 . S
H401 N395 0.985 . S
H402 N399 0.984 . S
H403 N399 0.985 . S
H404 N398 0.984 . S
H405 N398 0.984 . S
H406 N394 0.984 . S
H407 N394 0.985 . S
C408 C409 1.363 1_556 S
C408 C414 1.379 1_565 S
C408 N416 1.356 . S
C409 C408 1.363 1_554 S
C409 C415 1.363 . S
C410 C411 1.363 1_554 S
C410 C415 1.379 1_545 S
C410 N417 1.356 . S
C411 C410 1.363 1_556 S
C411 C414 1.363 . S
N412 C414 1.356 . S
N412 H424 0.984 . S
N412 H425 0.985 . S
N413 C415 1.356 . S
N413 H418 0.984 . S
N413 H419 0.985 . S
C414 C408 1.379 1_545 S
C414 C411 1.363 . S
C414 N412 1.356 . S
C415 C409 1.363 . S
C415 C410 1.379 1_565 S
C415 N413 1.356 . S
N416 C408 1.356 . S
N416 H422 0.984 . S
N416 H423 0.984 1_556 S
N417 C410 1.356 . S
N417 H420 0.984 1_554 S
N417 H421 0.985 . S
H418 N413 0.984 . S
H419 N413 0.985 . S
H420 N417 0.984 1_556 S
H421 N417 0.985 . S
H422 N416 0.984 . S
H423 N416 0.984 1_554 S
H424 N412 0.984 . S
H425 N412 0.985 . S
C426 C427 1.363 . S
C426 C432 1.379 . S
C426 N434 1.356 . S
C427 C426 1.363 . S
C427 C433 1.363 . S
C428 C429 1.363 . S
C428 C433 1.379 . S
C428 N435 1.356 . S
C429 C428 1.363 . S
C429 C432 1.363 . S
N430 C432 1.356 . S
N430 H442 0.984 . S
N430 H443 0.985 . S
N431 C433 1.356 . S
N431 H436 0.984 . S
N431 H437 0.985 . S
C432 C426 1.379 . S
C432 C429 1.363 . S
C432 N430 1.356 . S
C433 C427 1.363 . S
C433 C428 1.379 . S
C433 N431 1.356 . S
N434 C426 1.356 . S
N434 H440 0.984 . S
N434 H441 0.984 . S
N435 C428 1.356 . S
N435 H438 0.984 . S
N435 H439 0.985 . S
H436 N431 0.984 . S
H437 N431 0.985 . S
H438 N435 0.984 . S
H439 N435 0.985 . S
H440 N434 0.984 . S
H441 N434 0.984 . S
H442 N430 0.984 . S
H443 N430 0.985 . S
C444 C445 1.363 . S
C444 C450 1.379 1_455 S
C444 N452 1.356 . S
C445 C444 1.363 . S
C445 C451 1.363 . S
C446 C447 1.363 . S
C446 C451 1.379 1_655 S
C446 N453 1.356 . S
C447 C446 1.363 . S
C447 C450 1.363 . S
N448 C450 1.356 . S
N448 H460 0.984 . S
N448 H461 0.985 . S
N449 C451 1.356 . S
N449 H454 0.984 . S
N449 H455 0.985 . S
C450 C444 1.379 1_655 S
C450 C447 1.363 . S
C450 N448 1.356 . S
C451 C445 1.363 . S
C451 C446 1.379 1_455 S
C451 N449 1.356 . S
N452 C444 1.356 . S
N452 H458 0.984 . S
N452 H459 0.984 . S
N453 C446 1.356 . S
N453 H456 0.984 . S
N453 H457 0.985 . S
H454 N449 0.984 . S
H455 N449 0.985 . S
H456 N453 0.984 . S
H457 N453 0.985 . S
H458 N452 0.984 . S
H459 N452 0.984 . S
H460 N448 0.984 . S
H461 N448 0.985 . S
C462 C463 1.363 . S
C462 C468 1.379 . S
C462 N470 1.356 . S
C463 C462 1.363 . S
C463 C469 1.363 . S
C464 C465 1.363 . S
C464 C469 1.379 . S
C464 N471 1.356 . S
C465 C464 1.363 . S
C465 C468 1.363 . S
N466 C468 1.356 . S
N466 H478 0.984 . S
N466 H479 0.985 . S
N467 C469 1.356 . S
N467 H472 0.984 . S
N467 H473 0.985 . S
C468 C462 1.379 . S
C468 C465 1.363 . S
C468 N466 1.356 . S
C469 C463 1.363 . S
C469 C464 1.379 . S
C469 N467 1.356 . S
N470 C462 1.356 . S
N470 H476 0.984 . S
N470 H477 0.984 . S
N471 C464 1.356 . S
N471 H474 0.984 . S
N471 H475 0.985 . S
H472 N467 0.984 . S
H473 N467 0.985 . S
H474 N471 0.984 . S
H475 N471 0.985 . S
H476 N470 0.984 . S
H477 N470 0.984 . S
H478 N466 0.984 . S
H479 N466 0.985 . S
C480 C481 1.363 . S
C480 C486 1.379 . S
C480 N488 1.356 . S
C481 C480 1.363 . S
C481 C487 1.363 . S
C482 C483 1.363 . S
C482 C487 1.379 . S
C482 N489 1.356 . S
C483 C482 1.363 . S
C483 C486 1.363 . S
N484 C486 1.356 . S
N484 H496 0.984 . S
N484 H497 0.985 . S
N485 C487 1.356 . S
N485 H490 0.984 . S
N485 H491 0.985 . S
C486 C480 1.379 . S
C486 C483 1.363 . S
C486 N484 1.356 . S
C487 C481 1.363 . S
C487 C482 1.379 . S
C487 N485 1.356 . S
N488 C480 1.356 . S
N488 H494 0.984 . S
N488 H495 0.984 . S
N489 C482 1.356 . S
N489 H492 0.984 . S
N489 H493 0.985 . S
H490 N485 0.984 . S
H491 N485 0.985 . S
H492 N489 0.984 . S
H493 N489 0.985 . S
H494 N488 0.984 . S
H495 N488 0.984 . S
H496 N484 0.984 . S
H497 N484 0.985 . S
C498 C499 1.363 . S
C498 C504 1.379 . S
C498 N506 1.356 . S
C499 C498 1.363 . S
C499 C505 1.363 . S
C500 C501 1.363 . S
C500 C505 1.379 . S
C500 N507 1.356 . S
C501 C500 1.363 . S
C501 C504 1.363 . S
N502 C504 1.356 . S
N502 H514 0.984 . S
N502 H515 0.985 . S
N503 C505 1.356 . S
N503 H508 0.984 . S
N503 H509 0.985 . S
C504 C498 1.379 . S
C504 C501 1.363 . S
C504 N502 1.356 . S
C505 C499 1.363 . S
C505 C500 1.379 . S
C505 N503 1.356 . S
N506 C498 1.356 . S
N506 H512 0.984 . S
N506 H513 0.984 . S
N507 C500 1.356 . S
N507 H510 0.984 . S
N507 H511 0.985 . S
H508 N503 0.984 . S
H509 N503 0.985 . S
H510 N507 0.984 . S
H511 N507 0.985 . S
H512 N506 0.984 . S
H513 N506 0.984 . S
H514 N502 0.984 . S
H515 N502 0.985 . S
C516 C517 1.363 . S
C516 C522 1.379 . S
C516 N524 1.356 . S
C517 C516 1.363 . S
C517 C523 1.363 . S
C518 C519 1.363 . S
C518 C523 1.379 . S
C518 N525 1.356 . S
C519 C518 1.363 . S
C519 C522 1.363 . S
N520 C522 1.356 . S
N520 H532 0.984 1_556 S
N520 H533 0.985 1_556 S
N521 C523 1.356 . S
N521 H526 0.984 . S
N521 H527 0.985 . S
C522 C516 1.379 . S
C522 C519 1.363 . S
C522 N520 1.356 . S
C523 C517 1.363 . S
C523 C518 1.379 . S
C523 N521 1.356 . S
N524 C516 1.356 . S
N524 H530 0.984 . S
N524 H531 0.984 . S
N525 C518 1.356 . S
N525 H528 0.984 . S
N525 H529 0.985 . S
H526 N521 0.984 . S
H527 N521 0.985 . S
H528 N525 0.984 . S
H529 N525 0.985 . S
H530 N524 0.984 . S
H531 N524 0.984 . S
H532 N520 0.984 1_554 S
H533 N520 0.985 1_554 S
C534 C535 1.363 . S
C534 C540 1.379 . S
C534 N542 1.356 . S
C535 C534 1.363 . S
C535 C541 1.363 . S
C536 C537 1.363 . S
C536 C541 1.379 . S
C536 N543 1.356 . S
C537 C536 1.363 . S
C537 C540 1.363 . S
N538 C540 1.356 . S
N538 H550 0.984 . S
N538 H551 0.985 . S
N539 C541 1.356 . S
N539 H544 0.984 . S
N539 H545 0.985 . S
C540 C534 1.379 . S
C540 C537 1.363 . S
C540 N538 1.356 . S
C541 C535 1.363 . S
C541 C536 1.379 . S
C541 N539 1.356 . S
N542 C534 1.356 . S
N542 H548 0.984 1_554 S
N542 H549 0.984 1_554 S
N543 C536 1.356 . S
N543 H546 0.984 . S
N543 H547 0.985 . S
H544 N539 0.984 . S
H545 N539 0.985 . S
H546 N543 0.984 . S
H547 N543 0.985 . S
H548 N542 0.984 1_556 S
H549 N542 0.984 1_556 S
H550 N538 0.984 . S
H551 N538 0.985 . S
C552 C553 1.363 . S
C552 C558 1.379 . S
C552 N560 1.356 . S
C553 C552 1.363 . S
C553 C559 1.363 . S
C554 C555 1.363 . S
C554 C559 1.379 . S
C554 N561 1.356 . S
C555 C554 1.363 . S
C555 C558 1.363 . S
N556 C558 1.356 . S
N556 H568 0.984 . S
N556 H569 0.985 . S
N557 C559 1.356 . S
N557 H562 0.984 . S
N557 H563 0.985 . S
C558 C552 1.379 . S
C558 C555 1.363 . S
C558 N556 1.356 . S
C559 C553 1.363 . S
C559 C554 1.379 . S
C559 N557 1.356 . S
N560 C552 1.356 . S
N560 H566 0.984 . S
N560 H567 0.984 . S
N561 C554 1.356 . S
N561 H564 0.984 . S
N561 H565 0.985 . S
H562 N557 0.984 . S
H563 N557 0.985 . S
H564 N561 0.984 . S
H565 N561 0.985 . S
H566 N560 0.984 . S
H567 N560 0.984 . S
H568 N556 0.984 . S
H569 N556 0.985 . S
C355 C5 1.744 . S
C357 C300 1.744 . S
C373 C52 1.694 . S
C375 C62 1.696 . S
C391 C170 1.640 . S
C393 C92 1.642 . S
C409 C182 1.744 . S
C411 C123 1.744 . S
C427 C239 1.696 . S
C429 C229 1.694 . S
C445 C347 1.640 . S
C447 C269 1.642 . S
C463 C3 1.502 . S
C465 C288 1.496 . S
C481 C298 1.378 . S
C483 C64 1.382 . S
C499 C151 1.582 . S
C501 C33 1.588 . S
C517 C111 1.496 . S
C519 C180 1.502 . S
C535 C121 1.378 . S
C537 C241 1.382 . S
C553 C328 1.582 . S
C555 C210 1.588 . S
